# Generated by pormake.
# Topology ukr, (4)-cn, num edge types: 1
# Building blocks:
#     Node 0, Type 0, BuildingBlock: QUQFOY_clean_sbu_1, # of connection points: 4
#     Node 1, Type 0, BuildingBlock: QUQFOY_clean_sbu_1, # of connection points: 4
#     Node 2, Type 0, BuildingBlock: QUQFOY_clean_sbu_1, # of connection points: 4
#     Node 3, Type 0, BuildingBlock: QUQFOY_clean_sbu_1, # of connection points: 4
#     Node 4, Type 0, BuildingBlock: QUQFOY_clean_sbu_1, # of connection points: 4
#     Node 5, Type 0, BuildingBlock: QUQFOY_clean_sbu_1, # of connection points: 4
#     Node 6, Type 0, BuildingBlock: QUQFOY_clean_sbu_1, # of connection points: 4
#     Node 7, Type 0, BuildingBlock: QUQFOY_clean_sbu_1, # of connection points: 4
#     Node 8, Type 0, BuildingBlock: QUQFOY_clean_sbu_1, # of connection points: 4
#     Node 9, Type 0, BuildingBlock: QUQFOY_clean_sbu_1, # of connection points: 4
#     Node 10, Type 0, BuildingBlock: QUQFOY_clean_sbu_1, # of connection points: 4
#     Node 11, Type 0, BuildingBlock: QUQFOY_clean_sbu_1, # of connection points: 4
#     Node 12, Type 0, BuildingBlock: QUQFOY_clean_sbu_1, # of connection points: 4
#     Node 13, Type 0, BuildingBlock: QUQFOY_clean_sbu_1, # of connection points: 4
#     Node 14, Type 0, BuildingBlock: QUQFOY_clean_sbu_1, # of connection points: 4
#     Node 15, Type 0, BuildingBlock: QUQFOY_clean_sbu_1, # of connection points: 4
#     Node 16, Type 0, BuildingBlock: QUQFOY_clean_sbu_1, # of connection points: 4
#     Node 17, Type 0, BuildingBlock: QUQFOY_clean_sbu_1, # of connection points: 4
#     Node 18, Type 0, BuildingBlock: QUQFOY_clean_sbu_1, # of connection points: 4
#     Node 19, Type 0, BuildingBlock: QUQFOY_clean_sbu_1, # of connection points: 4
#     Node 20, Type 0, BuildingBlock: QUQFOY_clean_sbu_1, # of connection points: 4
#     Node 21, Type 0, BuildingBlock: QUQFOY_clean_sbu_1, # of connection points: 4
#     Node 22, Type 0, BuildingBlock: QUQFOY_clean_sbu_1, # of connection points: 4
#     Node 23, Type 0, BuildingBlock: QUQFOY_clean_sbu_1, # of connection points: 4
#     Node 24, Type 0, BuildingBlock: QUQFOY_clean_sbu_1, # of connection points: 4
#     Node 25, Type 0, BuildingBlock: QUQFOY_clean_sbu_1, # of connection points: 4
#     Node 26, Type 0, BuildingBlock: QUQFOY_clean_sbu_1, # of connection points: 4
#     Node 27, Type 0, BuildingBlock: QUQFOY_clean_sbu_1, # of connection points: 4
#     Node 28, Type 0, BuildingBlock: QUQFOY_clean_sbu_1, # of connection points: 4
#     Node 29, Type 0, BuildingBlock: QUQFOY_clean_sbu_1, # of connection points: 4
#     Node 30, Type 0, BuildingBlock: QUQFOY_clean_sbu_1, # of connection points: 4
#     Node 31, Type 0, BuildingBlock: QUQFOY_clean_sbu_1, # of connection points: 4
#     Node 32, Type 0, BuildingBlock: QUQFOY_clean_sbu_1, # of connection points: 4
#     Node 33, Type 0, BuildingBlock: QUQFOY_clean_sbu_1, # of connection points: 4
#     Node 34, Type 0, BuildingBlock: QUQFOY_clean_sbu_1, # of connection points: 4
#     Node 35, Type 0, BuildingBlock: QUQFOY_clean_sbu_1, # of connection points: 4
#     Node 36, Type 0, BuildingBlock: QUQFOY_clean_sbu_1, # of connection points: 4
#     Node 37, Type 0, BuildingBlock: QUQFOY_clean_sbu_1, # of connection points: 4
#     Node 38, Type 0, BuildingBlock: QUQFOY_clean_sbu_1, # of connection points: 4
#     Node 39, Type 0, BuildingBlock: QUQFOY_clean_sbu_1, # of connection points: 4
#     Node 40, Type 0, BuildingBlock: QUQFOY_clean_sbu_1, # of connection points: 4
#     Node 41, Type 0, BuildingBlock: QUQFOY_clean_sbu_1, # of connection points: 4
#     Node 42, Type 0, BuildingBlock: QUQFOY_clean_sbu_1, # of connection points: 4
#     Node 43, Type 0, BuildingBlock: QUQFOY_clean_sbu_1, # of connection points: 4
#     Node 44, Type 0, BuildingBlock: QUQFOY_clean_sbu_1, # of connection points: 4
#     Node 45, Type 0, BuildingBlock: QUQFOY_clean_sbu_1, # of connection points: 4
#     Node 46, Type 0, BuildingBlock: QUQFOY_clean_sbu_1, # of connection points: 4
#     Node 47, Type 0, BuildingBlock: QUQFOY_clean_sbu_1, # of connection points: 4
#     Edge 48, Type (0, 0), BuildingBlock: TEMPAE_clean_linker_10, # of connection points: 2
#     Edge 49, Type (0, 0), BuildingBlock: TEMPAE_clean_linker_10, # of connection points: 2
#     Edge 50, Type (0, 0), BuildingBlock: TEMPAE_clean_linker_10, # of connection points: 2
#     Edge 51, Type (0, 0), BuildingBlock: TEMPAE_clean_linker_10, # of connection points: 2
#     Edge 52, Type (0, 0), BuildingBlock: TEMPAE_clean_linker_10, # of connection points: 2
#     Edge 53, Type (0, 0), BuildingBlock: TEMPAE_clean_linker_10, # of connection points: 2
#     Edge 54, Type (0, 0), BuildingBlock: TEMPAE_clean_linker_10, # of connection points: 2
#     Edge 55, Type (0, 0), BuildingBlock: TEMPAE_clean_linker_10, # of connection points: 2
#     Edge 56, Type (0, 0), BuildingBlock: TEMPAE_clean_linker_10, # of connection points: 2
#     Edge 57, Type (0, 0), BuildingBlock: TEMPAE_clean_linker_10, # of connection points: 2
#     Edge 58, Type (0, 0), BuildingBlock: TEMPAE_clean_linker_10, # of connection points: 2
#     Edge 59, Type (0, 0), BuildingBlock: TEMPAE_clean_linker_10, # of connection points: 2
#     Edge 60, Type (0, 0), BuildingBlock: TEMPAE_clean_linker_10, # of connection points: 2
#     Edge 61, Type (0, 0), BuildingBlock: TEMPAE_clean_linker_10, # of connection points: 2
#     Edge 62, Type (0, 0), BuildingBlock: TEMPAE_clean_linker_10, # of connection points: 2
#     Edge 63, Type (0, 0), BuildingBlock: TEMPAE_clean_linker_10, # of connection points: 2
#     Edge 64, Type (0, 0), BuildingBlock: TEMPAE_clean_linker_10, # of connection points: 2
#     Edge 65, Type (0, 0), BuildingBlock: TEMPAE_clean_linker_10, # of connection points: 2
#     Edge 66, Type (0, 0), BuildingBlock: TEMPAE_clean_linker_10, # of connection points: 2
#     Edge 67, Type (0, 0), BuildingBlock: TEMPAE_clean_linker_10, # of connection points: 2
#     Edge 68, Type (0, 0), BuildingBlock: TEMPAE_clean_linker_10, # of connection points: 2
#     Edge 69, Type (0, 0), BuildingBlock: TEMPAE_clean_linker_10, # of connection points: 2
#     Edge 70, Type (0, 0), BuildingBlock: TEMPAE_clean_linker_10, # of connection points: 2
#     Edge 71, Type (0, 0), BuildingBlock: TEMPAE_clean_linker_10, # of connection points: 2
#     Edge 72, Type (0, 0), BuildingBlock: TEMPAE_clean_linker_10, # of connection points: 2
#     Edge 73, Type (0, 0), BuildingBlock: TEMPAE_clean_linker_10, # of connection points: 2
#     Edge 74, Type (0, 0), BuildingBlock: TEMPAE_clean_linker_10, # of connection points: 2
#     Edge 75, Type (0, 0), BuildingBlock: TEMPAE_clean_linker_10, # of connection points: 2
#     Edge 76, Type (0, 0), BuildingBlock: TEMPAE_clean_linker_10, # of connection points: 2
#     Edge 77, Type (0, 0), BuildingBlock: TEMPAE_clean_linker_10, # of connection points: 2
#     Edge 78, Type (0, 0), BuildingBlock: TEMPAE_clean_linker_10, # of connection points: 2
#     Edge 79, Type (0, 0), BuildingBlock: TEMPAE_clean_linker_10, # of connection points: 2
#     Edge 80, Type (0, 0), BuildingBlock: TEMPAE_clean_linker_10, # of connection points: 2
#     Edge 81, Type (0, 0), BuildingBlock: TEMPAE_clean_linker_10, # of connection points: 2
#     Edge 82, Type (0, 0), BuildingBlock: TEMPAE_clean_linker_10, # of connection points: 2
#     Edge 83, Type (0, 0), BuildingBlock: TEMPAE_clean_linker_10, # of connection points: 2
#     Edge 84, Type (0, 0), BuildingBlock: TEMPAE_clean_linker_10, # of connection points: 2
#     Edge 85, Type (0, 0), BuildingBlock: TEMPAE_clean_linker_10, # of connection points: 2
#     Edge 86, Type (0, 0), BuildingBlock: TEMPAE_clean_linker_10, # of connection points: 2
#     Edge 87, Type (0, 0), BuildingBlock: TEMPAE_clean_linker_10, # of connection points: 2
#     Edge 88, Type (0, 0), BuildingBlock: TEMPAE_clean_linker_10, # of connection points: 2
#     Edge 89, Type (0, 0), BuildingBlock: TEMPAE_clean_linker_10, # of connection points: 2
#     Edge 90, Type (0, 0), BuildingBlock: TEMPAE_clean_linker_10, # of connection points: 2
#     Edge 91, Type (0, 0), BuildingBlock: TEMPAE_clean_linker_10, # of connection points: 2
#     Edge 92, Type (0, 0), BuildingBlock: TEMPAE_clean_linker_10, # of connection points: 2
#     Edge 93, Type (0, 0), BuildingBlock: TEMPAE_clean_linker_10, # of connection points: 2
#     Edge 94, Type (0, 0), BuildingBlock: TEMPAE_clean_linker_10, # of connection points: 2
#     Edge 95, Type (0, 0), BuildingBlock: TEMPAE_clean_linker_10, # of connection points: 2
#     Edge 96, Type (0, 0), BuildingBlock: TEMPAE_clean_linker_10, # of connection points: 2
#     Edge 97, Type (0, 0), BuildingBlock: TEMPAE_clean_linker_10, # of connection points: 2
#     Edge 98, Type (0, 0), BuildingBlock: TEMPAE_clean_linker_10, # of connection points: 2
#     Edge 99, Type (0, 0), BuildingBlock: TEMPAE_clean_linker_10, # of connection points: 2
#     Edge 100, Type (0, 0), BuildingBlock: TEMPAE_clean_linker_10, # of connection points: 2
#     Edge 101, Type (0, 0), BuildingBlock: TEMPAE_clean_linker_10, # of connection points: 2
#     Edge 102, Type (0, 0), BuildingBlock: TEMPAE_clean_linker_10, # of connection points: 2
#     Edge 103, Type (0, 0), BuildingBlock: TEMPAE_clean_linker_10, # of connection points: 2
#     Edge 104, Type (0, 0), BuildingBlock: TEMPAE_clean_linker_10, # of connection points: 2
#     Edge 105, Type (0, 0), BuildingBlock: TEMPAE_clean_linker_10, # of connection points: 2
#     Edge 106, Type (0, 0), BuildingBlock: TEMPAE_clean_linker_10, # of connection points: 2
#     Edge 107, Type (0, 0), BuildingBlock: TEMPAE_clean_linker_10, # of connection points: 2
#     Edge 108, Type (0, 0), BuildingBlock: TEMPAE_clean_linker_10, # of connection points: 2
#     Edge 109, Type (0, 0), BuildingBlock: TEMPAE_clean_linker_10, # of connection points: 2
#     Edge 110, Type (0, 0), BuildingBlock: TEMPAE_clean_linker_10, # of connection points: 2
#     Edge 111, Type (0, 0), BuildingBlock: TEMPAE_clean_linker_10, # of connection points: 2
#     Edge 112, Type (0, 0), BuildingBlock: TEMPAE_clean_linker_10, # of connection points: 2
#     Edge 113, Type (0, 0), BuildingBlock: TEMPAE_clean_linker_10, # of connection points: 2
#     Edge 114, Type (0, 0), BuildingBlock: TEMPAE_clean_linker_10, # of connection points: 2
#     Edge 115, Type (0, 0), BuildingBlock: TEMPAE_clean_linker_10, # of connection points: 2
#     Edge 116, Type (0, 0), BuildingBlock: TEMPAE_clean_linker_10, # of connection points: 2
#     Edge 117, Type (0, 0), BuildingBlock: TEMPAE_clean_linker_10, # of connection points: 2
#     Edge 118, Type (0, 0), BuildingBlock: TEMPAE_clean_linker_10, # of connection points: 2
#     Edge 119, Type (0, 0), BuildingBlock: TEMPAE_clean_linker_10, # of connection points: 2
#     Edge 120, Type (0, 0), BuildingBlock: TEMPAE_clean_linker_10, # of connection points: 2
#     Edge 121, Type (0, 0), BuildingBlock: TEMPAE_clean_linker_10, # of connection points: 2
#     Edge 122, Type (0, 0), BuildingBlock: TEMPAE_clean_linker_10, # of connection points: 2
#     Edge 123, Type (0, 0), BuildingBlock: TEMPAE_clean_linker_10, # of connection points: 2
#     Edge 124, Type (0, 0), BuildingBlock: TEMPAE_clean_linker_10, # of connection points: 2
#     Edge 125, Type (0, 0), BuildingBlock: TEMPAE_clean_linker_10, # of connection points: 2
#     Edge 126, Type (0, 0), BuildingBlock: TEMPAE_clean_linker_10, # of connection points: 2
#     Edge 127, Type (0, 0), BuildingBlock: TEMPAE_clean_linker_10, # of connection points: 2
#     Edge 128, Type (0, 0), BuildingBlock: TEMPAE_clean_linker_10, # of connection points: 2
#     Edge 129, Type (0, 0), BuildingBlock: TEMPAE_clean_linker_10, # of connection points: 2
#     Edge 130, Type (0, 0), BuildingBlock: TEMPAE_clean_linker_10, # of connection points: 2
#     Edge 131, Type (0, 0), BuildingBlock: TEMPAE_clean_linker_10, # of connection points: 2
#     Edge 132, Type (0, 0), BuildingBlock: TEMPAE_clean_linker_10, # of connection points: 2
#     Edge 133, Type (0, 0), BuildingBlock: TEMPAE_clean_linker_10, # of connection points: 2
#     Edge 134, Type (0, 0), BuildingBlock: TEMPAE_clean_linker_10, # of connection points: 2
#     Edge 135, Type (0, 0), BuildingBlock: TEMPAE_clean_linker_10, # of connection points: 2
#     Edge 136, Type (0, 0), BuildingBlock: TEMPAE_clean_linker_10, # of connection points: 2
#     Edge 137, Type (0, 0), BuildingBlock: TEMPAE_clean_linker_10, # of connection points: 2
#     Edge 138, Type (0, 0), BuildingBlock: TEMPAE_clean_linker_10, # of connection points: 2
#     Edge 139, Type (0, 0), BuildingBlock: TEMPAE_clean_linker_10, # of connection points: 2
#     Edge 140, Type (0, 0), BuildingBlock: TEMPAE_clean_linker_10, # of connection points: 2
#     Edge 141, Type (0, 0), BuildingBlock: TEMPAE_clean_linker_10, # of connection points: 2
#     Edge 142, Type (0, 0), BuildingBlock: TEMPAE_clean_linker_10, # of connection points: 2
#     Edge 143, Type (0, 0), BuildingBlock: TEMPAE_clean_linker_10, # of connection points: 2
# Relax obj value: 0.377
# Max RMSD: 0.181
# Mean RMSD: 0.181
data_MOF--net-ukr--node1-QUQFOY_clean_sbu_1--edge1-TEMPAE_clean_linker_10
_symmetry_space_group_name_H-M    P1
_symmetry_Int_Tables_number       1
_symmetry_cell_setting            triclinic
loop_
_symmetry_equiv_pos_as_xyz
'x, y, z'
_cell_length_a     74.21443
_cell_length_b     74.216262
_cell_length_c     74.233817
_cell_angle_alpha  89.992555
_cell_angle_beta   90.003504
_cell_angle_gamma 90.003586
loop_
_atom_site_label
_atom_site_type_symbol
_atom_site_fract_x
_atom_site_fract_y
_atom_site_fract_z
_atom_type_partial_charge
O0 O 0.09529 0.23816 0.199 0.0
Cd1 Cd 0.09227 0.25656 0.17835 0.0
Cd2 Cd 0.12051 0.27357 0.19541 0.0
O3 O 0.11898 0.25102 0.2115 0.0
O4 O 0.06786 0.25122 0.16905 0.0
O5 O 0.07522 0.27746 0.18123 0.0
C6 C 0.06309 0.26707 0.17429 0.0
C7 C 0.13024 0.29948 0.21074 0.0
C8 C 0.10757 0.2383 0.2109 0.0
C9 C 0.12585 0.26095 0.15684 0.0
O10 O 0.13171 0.26953 0.17044 0.0
O11 O 0.10997 0.25452 0.15685 0.0
O12 O 0.14093 0.28641 0.20696 0.0
O13 O 0.11368 0.29811 0.20565 0.0
O14 O 0.25703 0.60085 0.70451 0.0
Cd15 Cd 0.2394 0.59509 0.68374 0.0
Cd16 Cd 0.22007 0.62305 0.69862 0.0
O17 O 0.24266 0.62481 0.71463 0.0
O18 O 0.24715 0.57076 0.67594 0.0
O19 O 0.21984 0.57646 0.68657 0.0
C20 C 0.23144 0.56496 0.68055 0.0
C21 C 0.19335 0.63197 0.71302 0.0
C22 C 0.25607 0.61421 0.71514 0.0
C23 C 0.23286 0.6268 0.66002 0.0
O24 O 0.22335 0.63272 0.67294 0.0
O25 O 0.24072 0.61163 0.66128 0.0
O26 O 0.20553 0.6433 0.70828 0.0
O27 O 0.19612 0.61517 0.70956 0.0
O28 O 0.89547 0.76697 0.19802 0.0
Cd29 Cd 0.90075 0.7479 0.17854 0.0
Cd30 Cd 0.87561 0.72917 0.19705 0.0
O31 O 0.87853 0.74986 0.21538 0.0
O32 O 0.92523 0.75386 0.1698 0.0
O33 O 0.91847 0.72788 0.18294 0.0
C34 C 0.9304 0.73841 0.17585 0.0
C35 C 0.86706 0.70155 0.20984 0.0
C36 C 0.88647 0.76473 0.21239 0.0
C37 C 0.86709 0.74307 0.15896 0.0
O38 O 0.86204 0.73573 0.17359 0.0
O39 O 0.88334 0.74806 0.15701 0.0
O40 O 0.85612 0.71487 0.20848 0.0
O41 O 0.88326 0.70369 0.20395 0.0
O42 O 0.73351 0.39979 0.68756 0.0
Cd43 Cd 0.75842 0.4018 0.67525 0.0
Cd44 Cd 0.76871 0.38153 0.70167 0.0
O45 O 0.74545 0.39135 0.71331 0.0
O46 O 0.76033 0.42498 0.66219 0.0
O47 O 0.77629 0.41836 0.68668 0.0
C48 C 0.77188 0.4298 0.67429 0.0
C49 C 0.7931 0.37574 0.72081 0.0
C50 C 0.73182 0.39633 0.70424 0.0
C51 C 0.76537 0.36504 0.66454 0.0
O52 O 0.76542 0.36249 0.68148 0.0
O53 O 0.76512 0.38098 0.65836 0.0
O54 O 0.77834 0.36673 0.72175 0.0
O55 O 0.79409 0.38854 0.70909 0.0
O56 O 0.1021 0.7757 0.8076 0.0
Cd57 Cd 0.09647 0.75632 0.82666 0.0
Cd58 Cd 0.12044 0.73702 0.808 0.0
O59 O 0.11807 0.75803 0.7899 0.0
O60 O 0.07158 0.76106 0.83486 0.0
O61 O 0.07982 0.73577 0.82113 0.0
C62 C 0.06728 0.74556 0.82825 0.0
C63 C 0.12766 0.70921 0.79483 0.0
C64 C 0.11079 0.77318 0.79308 0.0
C65 C 0.12968 0.7499 0.84628 0.0
O66 O 0.1344 0.74259 0.83152 0.0
O67 O 0.1137 0.75564 0.84827 0.0
O68 O 0.13913 0.72209 0.79608 0.0
O69 O 0.11166 0.71193 0.80106 0.0
O70 O 0.73183 0.5979 0.30661 0.0
Cd71 Cd 0.7516 0.59472 0.32587 0.0
Cd72 Cd 0.76858 0.62096 0.30672 0.0
O73 O 0.74569 0.61908 0.2911 0.0
O74 O 0.74678 0.57056 0.33589 0.0
O75 O 0.7722 0.5776 0.32184 0.0
C76 C 0.76227 0.56567 0.32974 0.0
C77 C 0.79478 0.62931 0.29114 0.0
C78 C 0.73214 0.6089 0.29352 0.0
C79 C 0.75779 0.62864 0.34562 0.0
O80 O 0.76528 0.63371 0.3311 0.0
O81 O 0.75146 0.6128 0.34699 0.0
O82 O 0.7819 0.64045 0.29418 0.0
O83 O 0.79293 0.61299 0.29682 0.0
O84 O 0.90013 0.23325 0.81235 0.0
Cd85 Cd 0.90226 0.25719 0.82637 0.0
Cd86 Cd 0.88156 0.26929 0.80085 0.0
O87 O 0.89134 0.24689 0.78759 0.0
O88 O 0.92557 0.2577 0.83931 0.0
O89 O 0.91896 0.27583 0.8164 0.0
C90 C 0.93048 0.27017 0.82819 0.0
C91 C 0.87479 0.29435 0.78289 0.0
C92 C 0.89647 0.2327 0.79564 0.0
C93 C 0.86565 0.26321 0.83803 0.0
O94 O 0.86293 0.26462 0.82117 0.0
O95 O 0.88164 0.26245 0.84402 0.0
O96 O 0.86603 0.27947 0.78162 0.0
O97 O 0.88785 0.29515 0.79434 0.0
O98 O 0.26174 0.39472 0.2931 0.0
Cd99 Cd 0.24857 0.40226 0.31629 0.0
Cd100 Cd 0.22888 0.37361 0.31081 0.0
O101 O 0.25058 0.36732 0.29442 0.0
O102 O 0.25634 0.42747 0.32029 0.0
O103 O 0.22781 0.41975 0.31618 0.0
C104 C 0.2397 0.4322 0.31882 0.0
C105 C 0.20086 0.36728 0.29789 0.0
C106 C 0.26174 0.37848 0.28779 0.0
C107 C 0.24657 0.37518 0.34608 0.0
O108 O 0.23281 0.36916 0.33789 0.0
O109 O 0.2557 0.38791 0.33916 0.0
O110 O 0.21099 0.3548 0.3044 0.0
O111 O 0.20633 0.38374 0.29925 0.0
O112 O 0.18912 0.10281 0.24325 0.0
Cd113 Cd 0.17069 0.09686 0.26301 0.0
Cd114 Cd 0.18783 0.12248 0.28231 0.0
O115 O 0.20445 0.12215 0.25981 0.0
O116 O 0.16118 0.07235 0.25843 0.0
O117 O 0.17779 0.07931 0.28233 0.0
C118 C 0.16915 0.06737 0.27305 0.0
C119 C 0.20244 0.12998 0.30925 0.0
C120 C 0.20223 0.11365 0.2451 0.0
C121 C 0.14898 0.12914 0.27102 0.0
O122 O 0.16292 0.13463 0.27929 0.0
O123 O 0.14881 0.11369 0.26374 0.0
O124 O 0.19921 0.14169 0.29694 0.0
O125 O 0.1975 0.11357 0.30641 0.0
O126 O 0.39879 0.69955 0.73586 0.0
Cd127 Cd 0.40274 0.68189 0.7567 0.0
Cd128 Cd 0.37883 0.70329 0.77435 0.0
O129 O 0.38207 0.7186 0.75123 0.0
O130 O 0.42625 0.67059 0.75128 0.0
O131 O 0.42117 0.68669 0.77595 0.0
C132 C 0.43225 0.67768 0.76597 0.0
C133 C 0.37193 0.72041 0.79996 0.0
C134 C 0.38996 0.71415 0.73672 0.0
C135 C 0.36803 0.66466 0.76526 0.0
O136 O 0.36384 0.67983 0.77204 0.0
O137 O 0.3836 0.66207 0.75867 0.0
O138 O 0.36116 0.71918 0.78649 0.0
O139 O 0.38697 0.71174 0.79917 0.0
O140 O 0.79971 0.90392 0.24226 0.0
Cd141 Cd 0.81555 0.90537 0.26508 0.0
Cd142 Cd 0.78907 0.88569 0.27769 0.0
O143 O 0.77485 0.89627 0.25631 0.0
O144 O 0.83079 0.92673 0.26055 0.0
O145 O 0.81145 0.92499 0.28328 0.0
C146 C 0.82295 0.9343 0.27408 0.0
C147 C 0.77295 0.87916 0.30399 0.0
C148 C 0.78283 0.90118 0.24201 0.0
C149 C 0.82512 0.86803 0.26983 0.0
O150 O 0.80814 0.86627 0.27142 0.0
O151 O 0.8321 0.88363 0.26951 0.0
O152 O 0.77012 0.87077 0.28911 0.0
O153 O 0.78481 0.89187 0.304 0.0
O154 O 0.59368 0.30112 0.72356 0.0
Cd155 Cd 0.58984 0.31813 0.74522 0.0
Cd156 Cd 0.61241 0.29547 0.76116 0.0
O157 O 0.60598 0.27937 0.73944 0.0
O158 O 0.56585 0.32922 0.74164 0.0
O159 O 0.57261 0.31195 0.76512 0.0
C160 C 0.56086 0.32134 0.75632 0.0
C161 C 0.61946 0.27979 0.78768 0.0
C162 C 0.59984 0.2852 0.72459 0.0
C163 C 0.62528 0.33342 0.75152 0.0
O164 O 0.62912 0.3173 0.75595 0.0
O165 O 0.60908 0.33777 0.74819 0.0
O166 O 0.62934 0.27886 0.77351 0.0
O167 O 0.60523 0.28974 0.78702 0.0
O168 O 0.20762 0.90491 0.75898 0.0
Cd169 Cd 0.19068 0.90796 0.73708 0.0
Cd170 Cd 0.21454 0.88522 0.72291 0.0
O171 O 0.23049 0.89351 0.74405 0.0
O172 O 0.17781 0.93078 0.74218 0.0
O173 O 0.19535 0.92696 0.71832 0.0
C174 C 0.18527 0.9374 0.72796 0.0
C175 C 0.22951 0.87673 0.69642 0.0
C176 C 0.22389 0.89961 0.75859 0.0
C177 C 0.1771 0.87161 0.73272 0.0
O178 O 0.19359 0.86809 0.72968 0.0
O179 O 0.17186 0.88784 0.73397 0.0
O180 O 0.23139 0.86805 0.71128 0.0
O181 O 0.21923 0.89075 0.69647 0.0
O182 O 0.60682 0.7114 0.25095 0.0
Cd183 Cd 0.59861 0.68799 0.23857 0.0
Cd184 Cd 0.62666 0.69289 0.21824 0.0
O185 O 0.6342 0.70874 0.24 0.0
O186 O 0.57394 0.68418 0.24795 0.0
O187 O 0.57989 0.68748 0.2189 0.0
C188 C 0.56821 0.68506 0.23159 0.0
C189 C 0.63195 0.70566 0.19003 0.0
C190 C 0.62328 0.71598 0.25101 0.0
C191 C 0.62494 0.65772 0.23563 0.0
O192 O 0.63031 0.66566 0.22149 0.0
O193 O 0.61299 0.66507 0.24545 0.0
O194 O 0.64473 0.69871 0.19946 0.0
O195 O 0.61577 0.70504 0.19641 0.0
O196 O 0.80239 0.09656 0.77182 0.0
Cd197 Cd 0.81967 0.09251 0.75044 0.0
Cd198 Cd 0.79711 0.11421 0.73362 0.0
O199 O 0.7807 0.10769 0.75506 0.0
O200 O 0.83091 0.06874 0.75457 0.0
O201 O 0.8136 0.07486 0.73093 0.0
C202 C 0.82299 0.06336 0.74005 0.0
C203 C 0.78142 0.12044 0.70694 0.0
C204 C 0.7863 0.10212 0.77021 0.0
C205 C 0.83465 0.1279 0.74353 0.0
O206 O 0.81851 0.13148 0.73892 0.0
O207 O 0.83916 0.11181 0.74714 0.0
O208 O 0.78026 0.13057 0.72092 0.0
O209 O 0.79177 0.1065 0.70783 0.0
O210 O 0.40817 0.29858 0.25875 0.0
Cd211 Cd 0.40913 0.31582 0.23722 0.0
Cd212 Cd 0.38707 0.29012 0.22239 0.0
O213 O 0.39621 0.27554 0.24443 0.0
O214 O 0.43101 0.33018 0.24226 0.0
O215 O 0.42809 0.31289 0.21807 0.0
C216 C 0.43797 0.32334 0.22789 0.0
C217 C 0.37817 0.27294 0.19738 0.0
C218 C 0.40321 0.28224 0.25853 0.0
C219 C 0.37189 0.32746 0.23179 0.0
O220 O 0.36928 0.31117 0.22715 0.0
O221 O 0.38765 0.33306 0.2354 0.0
O222 O 0.36997 0.27206 0.21258 0.0
O223 O 0.39203 0.28338 0.19625 0.0
O224 O 0.22854 0.18612 0.09758 0.0
Cd225 Cd 0.25354 0.17384 0.09843 0.0
Cd226 Cd 0.26222 0.20325 0.11408 0.0
O227 O 0.24006 0.21324 0.10053 0.0
O228 O 0.25692 0.15804 0.07711 0.0
O229 O 0.27187 0.18363 0.08146 0.0
C230 C 0.2682 0.16997 0.07128 0.0
C231 C 0.28821 0.22071 0.11765 0.0
C232 C 0.22662 0.20314 0.09728 0.0
C233 C 0.25756 0.16983 0.13668 0.0
O234 O 0.25663 0.18693 0.13603 0.0
O235 O 0.2595 0.1609 0.12222 0.0
O236 O 0.27323 0.22494 0.12531 0.0
O237 O 0.28833 0.20685 0.10716 0.0
O238 O 0.23647 0.82128 0.90531 0.0
Cd239 Cd 0.26189 0.83258 0.90608 0.0
Cd240 Cd 0.27077 0.80427 0.8881 0.0
O241 O 0.24767 0.79436 0.90008 0.0
O242 O 0.26608 0.84526 0.92922 0.0
O243 O 0.27959 0.81965 0.92149 0.0
C244 C 0.27665 0.83204 0.93338 0.0
C245 C 0.29474 0.78434 0.88341 0.0
C246 C 0.23435 0.80433 0.90408 0.0
C247 C 0.2685 0.84005 0.86863 0.0
O248 O 0.26748 0.82296 0.86755 0.0
O249 O 0.26914 0.84755 0.88398 0.0
O250 O 0.27965 0.78264 0.87507 0.0
O251 O 0.29626 0.79724 0.89496 0.0
O252 O 0.68597 0.73295 0.40592 0.0
Cd253 Cd 0.67288 0.75731 0.40532 0.0
Cd254 Cd 0.70204 0.76892 0.38928 0.0
O255 O 0.71232 0.74525 0.40005 0.0
O256 O 0.65771 0.7603 0.42711 0.0
O257 O 0.68266 0.77603 0.42185 0.0
C258 C 0.66951 0.77192 0.43252 0.0
C259 C 0.72107 0.79395 0.38678 0.0
C260 C 0.70296 0.73159 0.40442 0.0
C261 C 0.66779 0.76481 0.36722 0.0
O262 O 0.68482 0.76665 0.36735 0.0
O263 O 0.65926 0.76252 0.38187 0.0
O264 O 0.7238 0.7794 0.37778 0.0
O265 O 0.70781 0.79417 0.39801 0.0
O266 O 0.75922 0.19571 0.90337 0.0
Cd267 Cd 0.73555 0.18129 0.90613 0.0
Cd268 Cd 0.72312 0.20636 0.8844 0.0
O269 O 0.74524 0.22009 0.89409 0.0
O270 O 0.73681 0.16756 0.92897 0.0
O271 O 0.71762 0.19005 0.92429 0.0
C272 C 0.72427 0.178 0.93498 0.0
C273 C 0.69823 0.22409 0.87641 0.0
C274 C 0.75955 0.21234 0.89934 0.0
C275 C 0.72954 0.1688 0.86969 0.0
O276 O 0.72825 0.18558 0.86643 0.0
O277 O 0.73008 0.1633 0.88586 0.0
O278 O 0.71334 0.2251 0.86803 0.0
O279 O 0.69709 0.21304 0.88978 0.0
O280 O 0.31754 0.26469 0.39979 0.0
Cd281 Cd 0.33304 0.24156 0.40155 0.0
Cd282 Cd 0.30874 0.2272 0.37916 0.0
O283 O 0.29658 0.25185 0.38306 0.0
O284 O 0.34541 0.24093 0.42516 0.0
O285 O 0.32349 0.22202 0.41745 0.0
C286 C 0.33478 0.22782 0.42939 0.0
C287 C 0.28961 0.20282 0.37297 0.0
C288 C 0.30264 0.26554 0.39139 0.0
C289 C 0.34716 0.23199 0.3658 0.0
O290 O 0.33095 0.22754 0.36272 0.0
O291 O 0.35177 0.23734 0.38138 0.0
O292 O 0.29193 0.21584 0.36181 0.0
O293 O 0.29776 0.20371 0.38828 0.0
O294 O 0.7658 0.82238 0.0977 0.0
Cd295 Cd 0.74173 0.83623 0.0956 0.0
Cd296 Cd 0.72907 0.80965 0.11535 0.0
O297 O 0.75226 0.79733 0.10608 0.0
O298 O 0.73986 0.84827 0.07188 0.0
O299 O 0.723 0.82486 0.08004 0.0
C300 C 0.72776 0.83639 0.06787 0.0
C301 C 0.70531 0.79033 0.12307 0.0
C302 C 0.76637 0.80559 0.10102 0.0
C303 C 0.73385 0.84715 0.13192 0.0
O304 O 0.73206 0.83024 0.13394 0.0
O305 O 0.73592 0.85365 0.11626 0.0
O306 O 0.71995 0.7911 0.13224 0.0
O307 O 0.70413 0.8002 0.10882 0.0
O308 O 0.70057 0.26158 0.59275 0.0
Cd309 Cd 0.68409 0.23951 0.58877 0.0
Cd310 Cd 0.70726 0.22427 0.61175 0.0
O311 O 0.72281 0.24614 0.60466 0.0
O312 O 0.67239 0.24398 0.56524 0.0
O313 O 0.69017 0.22051 0.57049 0.0
C314 C 0.68041 0.22972 0.55938 0.0
C315 C 0.72414 0.19885 0.61995 0.0
C316 C 0.71661 0.26086 0.59863 0.0
C317 C 0.669 0.23289 0.62429 0.0
O318 O 0.68528 0.22932 0.62832 0.0
O319 O 0.66459 0.23565 0.608 0.0
O320 O 0.72431 0.21345 0.62922 0.0
O321 O 0.71415 0.19837 0.60574 0.0
O322 O 0.30575 0.72663 0.59234 0.0
Cd323 Cd 0.31941 0.75079 0.59036 0.0
Cd324 Cd 0.29196 0.76199 0.60824 0.0
O325 O 0.27961 0.73931 0.59785 0.0
O326 O 0.33369 0.74945 0.56795 0.0
O327 O 0.31171 0.76933 0.57238 0.0
C328 C 0.32375 0.76238 0.56188 0.0
C329 C 0.27495 0.78819 0.61234 0.0
C330 C 0.28879 0.72536 0.59417 0.0
C331 C 0.32778 0.75769 0.62742 0.0
O332 O 0.31068 0.75785 0.62864 0.0
O333 O 0.33522 0.75734 0.61204 0.0
O334 O 0.27186 0.77373 0.62138 0.0
O335 O 0.28743 0.7877 0.60024 0.0
O336 O 0.90236 0.76317 0.80862 0.0
Cd337 Cd 0.906 0.73961 0.82307 0.0
Cd338 Cd 0.8868 0.72572 0.79731 0.0
O339 O 0.89533 0.74848 0.78392 0.0
O340 O 0.92865 0.74127 0.83703 0.0
O341 O 0.92472 0.72244 0.81408 0.0
C342 C 0.93511 0.72913 0.82637 0.0
C343 C 0.88202 0.70023 0.77937 0.0
C344 C 0.89911 0.76317 0.79182 0.0
C345 C 0.86964 0.73097 0.83392 0.0
O346 O 0.86732 0.72946 0.81702 0.0
O347 O 0.88543 0.73271 0.84021 0.0
O348 O 0.87243 0.71455 0.7778 0.0
O349 O 0.89477 0.70023 0.79118 0.0
O350 O 0.73315 0.40627 0.3168 0.0
Cd351 Cd 0.75663 0.40687 0.33177 0.0
Cd352 Cd 0.7693 0.38734 0.30578 0.0
O353 O 0.74776 0.39855 0.29223 0.0
O354 O 0.75829 0.42969 0.34542 0.0
O355 O 0.77635 0.42266 0.32256 0.0
C356 C 0.77122 0.43413 0.33463 0.0
C357 C 0.79493 0.38104 0.28848 0.0
C358 C 0.73336 0.40369 0.29988 0.0
C359 C 0.76154 0.36968 0.34185 0.0
O360 O 0.76355 0.36776 0.32494 0.0
O361 O 0.76074 0.38537 0.34857 0.0
O362 O 0.77998 0.3726 0.28623 0.0
O363 O 0.79546 0.39352 0.30057 0.0
O364 O 0.10152 0.23656 0.80016 0.0
Cd365 Cd 0.09293 0.25308 0.82054 0.0
Cd366 Cd 0.11906 0.27513 0.80952 0.0
O367 O 0.12388 0.25413 0.79164 0.0
O368 O 0.0678 0.24575 0.82553 0.0
O369 O 0.07533 0.27327 0.81659 0.0
C370 C 0.06297 0.26186 0.82115 0.0
C371 C 0.12436 0.30368 0.79722 0.0
C372 C 0.11501 0.23956 0.79009 0.0
C373 C 0.12127 0.26024 0.84747 0.0
O374 O 0.12724 0.27142 0.83595 0.0
O375 O 0.10736 0.2509 0.84401 0.0
O376 O 0.13726 0.29312 0.80187 0.0
O377 O 0.10804 0.29823 0.79975 0.0
O378 O 0.26588 0.59572 0.30873 0.0
Cd379 Cd 0.24283 0.59339 0.32413 0.0
Cd380 Cd 0.22956 0.61522 0.29964 0.0
O381 O 0.25122 0.60574 0.28502 0.0
O382 O 0.24382 0.57012 0.33716 0.0
O383 O 0.22385 0.57615 0.31572 0.0
C384 C 0.23065 0.56483 0.3271 0.0
C385 C 0.20385 0.62299 0.28298 0.0
C386 C 0.26569 0.60005 0.29217 0.0
C387 C 0.23784 0.62985 0.33699 0.0
O388 O 0.23544 0.63307 0.32032 0.0
O389 O 0.23881 0.61369 0.34248 0.0
O390 O 0.21878 0.63162 0.28147 0.0
O391 O 0.20335 0.60951 0.29395 0.0
O392 O 0.90181 0.24152 0.19524 0.0
Cd393 Cd 0.90268 0.2661 0.18212 0.0
Cd394 Cd 0.88465 0.27646 0.21005 0.0
O395 O 0.89595 0.25386 0.22148 0.0
O396 O 0.92436 0.26695 0.16657 0.0
O397 O 0.92075 0.28405 0.19088 0.0
C398 C 0.93074 0.27881 0.17759 0.0
C399 C 0.87934 0.30118 0.22889 0.0
C400 C 0.89995 0.24006 0.2122 0.0
C401 C 0.865 0.27168 0.17472 0.0
O402 O 0.86406 0.27173 0.19182 0.0
O403 O 0.88027 0.27225 0.16706 0.0
O404 O 0.87112 0.28608 0.23096 0.0
O405 O 0.89117 0.30231 0.2162 0.0
O406 O 0.25949 0.39832 0.69079 0.0
Cd407 Cd 0.2375 0.40267 0.67422 0.0
Cd408 Cd 0.22109 0.38021 0.69696 0.0
O409 O 0.24356 0.38565 0.71239 0.0
O410 O 0.23982 0.42666 0.66274 0.0
O411 O 0.21865 0.41996 0.68282 0.0
C412 C 0.22625 0.43168 0.67239 0.0
C413 C 0.19528 0.37225 0.71337 0.0
C414 C 0.25843 0.39185 0.70661 0.0
C415 C 0.22949 0.36772 0.65861 0.0
O416 O 0.22512 0.36394 0.67472 0.0
O417 O 0.23341 0.3838 0.65437 0.0
O418 O 0.20909 0.36191 0.71222 0.0
O419 O 0.19601 0.38767 0.70539 0.0
O420 O 0.09506 0.76433 0.19134 0.0
Cd421 Cd 0.09224 0.73975 0.17853 0.0
Cd422 Cd 0.11253 0.72871 0.20514 0.0
O423 O 0.10286 0.75189 0.21706 0.0
O424 O 0.0695 0.73981 0.16455 0.0
O425 O 0.07407 0.72252 0.18856 0.0
C426 C 0.06344 0.72813 0.17593 0.0
C427 C 0.11904 0.70436 0.22415 0.0
C428 C 0.09839 0.76575 0.20808 0.0
C429 C 0.12893 0.73228 0.16792 0.0
O430 O 0.13144 0.73216 0.18487 0.0
O431 O 0.11302 0.73267 0.16169 0.0
O432 O 0.12777 0.71929 0.225 0.0
O433 O 0.10605 0.70319 0.21265 0.0
O434 O 0.73436 0.59615 0.69903 0.0
Cd435 Cd 0.75645 0.59199 0.68265 0.0
Cd436 Cd 0.77211 0.61343 0.70619 0.0
O437 O 0.75009 0.60676 0.72172 0.0
O438 O 0.75191 0.56865 0.67067 0.0
O439 O 0.7751 0.57347 0.68896 0.0
C440 C 0.76592 0.56254 0.67896 0.0
C441 C 0.79841 0.61947 0.72255 0.0
C442 C 0.73519 0.60144 0.71527 0.0
C443 C 0.76404 0.62755 0.66848 0.0
O444 O 0.76752 0.631 0.68491 0.0
O445 O 0.761 0.61146 0.66356 0.0
O446 O 0.78436 0.62953 0.72357 0.0
O447 O 0.79774 0.60562 0.71207 0.0
O448 O 0.8093 0.90128 0.76785 0.0
Cd449 Cd 0.82295 0.90309 0.74368 0.0
Cd450 Cd 0.79748 0.88187 0.73221 0.0
O451 O 0.7845 0.89194 0.75462 0.0
O452 O 0.83619 0.92621 0.74266 0.0
O453 O 0.81281 0.91973 0.72507 0.0
C454 C 0.82493 0.9311 0.73033 0.0
C455 C 0.77914 0.87493 0.70747 0.0
C456 C 0.79263 0.89743 0.76863 0.0
C457 C 0.83484 0.8664 0.73812 0.0
O458 O 0.818 0.86341 0.73691 0.0
O459 O 0.84059 0.88249 0.73853 0.0
O460 O 0.77808 0.86626 0.72242 0.0
O461 O 0.79064 0.88792 0.70639 0.0
O462 O 0.60131 0.3121 0.26243 0.0
Cd463 Cd 0.59833 0.32981 0.24114 0.0
Cd464 Cd 0.62214 0.30864 0.22473 0.0
O465 O 0.61628 0.29215 0.24631 0.0
O466 O 0.57404 0.34084 0.24179 0.0
O467 O 0.58299 0.32179 0.22046 0.0
C468 C 0.57049 0.33177 0.22738 0.0
C469 C 0.63043 0.2932 0.19844 0.0
C470 C 0.60864 0.29669 0.26094 0.0
C471 C 0.63337 0.34668 0.23588 0.0
O472 O 0.63775 0.33111 0.23027 0.0
O473 O 0.61707 0.3501 0.23969 0.0
O474 O 0.64084 0.29422 0.21222 0.0
O475 O 0.61491 0.30095 0.19937 0.0
O476 O 0.19567 0.09723 0.76456 0.0
Cd477 Cd 0.18495 0.09793 0.73885 0.0
Cd478 Cd 0.21443 0.11434 0.7324 0.0
O479 O 0.22342 0.10075 0.75489 0.0
O480 O 0.16962 0.07637 0.73468 0.0
O481 O 0.196 0.08094 0.72125 0.0
C482 C 0.18228 0.0706 0.7242 0.0
C483 C 0.23306 0.11883 0.70742 0.0
C484 C 0.21252 0.09732 0.76764 0.0
C485 C 0.18043 0.13616 0.73525 0.0
O486 O 0.19741 0.13581 0.73753 0.0
O487 O 0.17199 0.1216 0.73219 0.0
O488 O 0.23642 0.12619 0.72276 0.0
O489 O 0.21944 0.10806 0.70638 0.0
O490 O 0.40499 0.68699 0.26689 0.0
Cd491 Cd 0.40772 0.67119 0.24414 0.0
Cd492 Cd 0.38746 0.69565 0.22928 0.0
O493 O 0.39646 0.71045 0.25097 0.0
O494 O 0.43152 0.65914 0.24414 0.0
O495 O 0.42375 0.68053 0.22467 0.0
C496 C 0.43582 0.66959 0.23089 0.0
C497 C 0.38115 0.71257 0.2034 0.0
C498 C 0.40122 0.70366 0.26593 0.0
C499 C 0.37139 0.65889 0.23766 0.0
O500 O 0.36873 0.67556 0.23465 0.0
O501 O 0.38733 0.65306 0.23969 0.0
O502 O 0.37201 0.71426 0.21799 0.0
O503 O 0.39422 0.70112 0.20328 0.0
O504 O 0.81846 0.09292 0.22945 0.0
Cd505 Cd 0.83166 0.09285 0.25394 0.0
Cd506 Cd 0.80495 0.11309 0.26429 0.0
O507 O 0.79299 0.10136 0.24204 0.0
O508 O 0.84448 0.06979 0.25799 0.0
O509 O 0.82031 0.07838 0.27352 0.0
C510 C 0.83246 0.06636 0.27012 0.0
C511 C 0.78592 0.12014 0.28849 0.0
C512 C 0.8016 0.09572 0.22838 0.0
C513 C 0.84175 0.13015 0.25868 0.0
O514 O 0.82477 0.1323 0.25957 0.0
O515 O 0.84833 0.11437 0.25858 0.0
O516 O 0.78473 0.1282 0.27321 0.0
O517 O 0.79787 0.10762 0.29015 0.0
O518 O 0.3994 0.30991 0.7339 0.0
Cd519 Cd 0.40067 0.32309 0.75835 0.0
Cd520 Cd 0.38131 0.29609 0.76901 0.0
O521 O 0.3925 0.28407 0.74658 0.0
O522 O 0.42335 0.33713 0.75955 0.0
O523 O 0.41788 0.31298 0.77641 0.0
C524 C 0.42886 0.32552 0.77129 0.0
C525 C 0.37524 0.27759 0.79386 0.0
C526 C 0.39699 0.293 0.7327 0.0
C527 C 0.36333 0.33233 0.76352 0.0
O528 O 0.36162 0.31529 0.76401 0.0
O529 O 0.37895 0.3393 0.76399 0.0
O530 O 0.38741 0.28996 0.79498 0.0
O531 O 0.367 0.27567 0.77875 0.0
O532 O 0.19648 0.90164 0.22782 0.0
Cd533 Cd 0.17948 0.90588 0.24935 0.0
Cd534 Cd 0.20188 0.88268 0.26568 0.0
O535 O 0.2179 0.889 0.24388 0.0
O536 O 0.16883 0.92994 0.24517 0.0
O537 O 0.18565 0.92336 0.26904 0.0
C538 C 0.17661 0.93508 0.25985 0.0
C539 C 0.21858 0.87422 0.29118 0.0
C540 C 0.2123 0.89525 0.22901 0.0
C541 C 0.16346 0.87079 0.25604 0.0
O542 O 0.17945 0.86666 0.26068 0.0
O543 O 0.15949 0.88702 0.25237 0.0
O544 O 0.21826 0.8647 0.27675 0.0
O545 O 0.2091 0.88879 0.29148 0.0
O546 O 0.59567 0.68827 0.73441 0.0
Cd547 Cd 0.59342 0.67528 0.75894 0.0
Cd548 Cd 0.61315 0.70182 0.77023 0.0
O549 O 0.60334 0.71385 0.74719 0.0
O550 O 0.5704 0.66184 0.76012 0.0
O551 O 0.57642 0.68595 0.77687 0.0
C552 C 0.56522 0.67354 0.77193 0.0
C553 C 0.6188 0.72075 0.79483 0.0
C554 C 0.59883 0.70506 0.73323 0.0
C555 C 0.63025 0.665 0.7661 0.0
O556 O 0.63251 0.68198 0.76663 0.0
O557 O 0.61443 0.65855 0.7655 0.0
O558 O 0.62773 0.72196 0.78005 0.0
O559 O 0.60617 0.70884 0.79575 0.0
O560 O 0.7671 0.79945 0.9035 0.0
Cd561 Cd 0.74599 0.81717 0.90706 0.0
Cd562 Cd 0.72983 0.79504 0.88347 0.0
O563 O 0.75102 0.77841 0.89025 0.0
O564 O 0.75104 0.82881 0.93047 0.0
O565 O 0.72646 0.8126 0.92526 0.0
C566 C 0.7362 0.82191 0.93631 0.0
C567 C 0.70354 0.77958 0.8752 0.0
C568 C 0.7658 0.78368 0.89702 0.0
C569 C 0.74054 0.83301 0.87157 0.0
O570 O 0.73581 0.81709 0.86731 0.0
O571 O 0.74375 0.83695 0.88789 0.0
O572 O 0.71801 0.77891 0.86576 0.0
O573 O 0.70371 0.78925 0.88964 0.0
O574 O 0.76576 0.19818 0.10339 0.0
Cd575 Cd 0.74719 0.17852 0.09707 0.0
Cd576 Cd 0.72741 0.19515 0.12227 0.0
O577 O 0.74802 0.21379 0.12133 0.0
O578 O 0.75296 0.17115 0.07212 0.0
O579 O 0.72683 0.18341 0.07994 0.0
C580 C 0.73727 0.17706 0.06752 0.0
C581 C 0.69929 0.20778 0.12906 0.0
C582 C 0.76301 0.21183 0.11333 0.0
C583 C 0.74141 0.15693 0.12942 0.0
O584 O 0.73338 0.17102 0.13496 0.0
O585 O 0.74741 0.15618 0.11343 0.0
O586 O 0.71159 0.2057 0.14104 0.0
O587 O 0.70269 0.20246 0.11287 0.0
O588 O 0.30459 0.26784 0.59303 0.0
Cd589 Cd 0.32216 0.2465 0.59036 0.0
Cd590 Cd 0.29895 0.23135 0.61324 0.0
O591 O 0.28236 0.25181 0.60423 0.0
O592 O 0.33422 0.25082 0.56703 0.0
O593 O 0.3174 0.2267 0.57254 0.0
C594 C 0.32693 0.23608 0.56138 0.0
C595 C 0.28422 0.205 0.62262 0.0
C596 C 0.28827 0.26658 0.59795 0.0
C597 C 0.33643 0.24245 0.62639 0.0
O598 O 0.32014 0.23855 0.63004 0.0
O599 O 0.34134 0.24439 0.61013 0.0
O600 O 0.28243 0.22005 0.63096 0.0
O601 O 0.29432 0.20474 0.60848 0.0
O602 O 0.2346 0.79455 0.09686 0.0
Cd603 Cd 0.25696 0.81079 0.09354 0.0
Cd604 Cd 0.27165 0.78725 0.11608 0.0
O605 O 0.24932 0.77217 0.10945 0.0
O606 O 0.25272 0.82344 0.07051 0.0
O607 O 0.27605 0.80532 0.07517 0.0
C608 C 0.26704 0.81569 0.06446 0.0
C609 C 0.29751 0.77034 0.12243 0.0
C610 C 0.23485 0.77859 0.103 0.0
C611 C 0.264 0.8253 0.12932 0.0
O612 O 0.26743 0.80896 0.13321 0.0
O613 O 0.26098 0.82984 0.11312 0.0
O614 O 0.28343 0.76981 0.13248 0.0
O615 O 0.29714 0.78066 0.10844 0.0
O616 O 0.69605 0.72913 0.59676 0.0
Cd617 Cd 0.67883 0.7507 0.5936 0.0
Cd618 Cd 0.7016 0.76604 0.6173 0.0
O619 O 0.71764 0.74459 0.60987 0.0
O620 O 0.6671 0.74654 0.57003 0.0
O621 O 0.68397 0.77052 0.57588 0.0
C622 C 0.67447 0.7613 0.56456 0.0
C623 C 0.71784 0.79169 0.62619 0.0
C624 C 0.71194 0.73001 0.60302 0.0
C625 C 0.66343 0.75586 0.6293 0.0
O626 O 0.67949 0.76022 0.63346 0.0
O627 O 0.65925 0.75302 0.61296 0.0
O628 O 0.71817 0.77694 0.63523 0.0
O629 O 0.70808 0.79216 0.61182 0.0
O630 O 0.2304 0.19558 0.90739 0.0
Cd631 Cd 0.25076 0.17675 0.90972 0.0
Cd632 Cd 0.26733 0.19783 0.88373 0.0
O633 O 0.2445 0.21297 0.88788 0.0
O634 O 0.24573 0.1651 0.93317 0.0
O635 O 0.27079 0.18039 0.92764 0.0
C636 C 0.26085 0.1715 0.93884 0.0
C637 C 0.29246 0.21478 0.87459 0.0
C638 C 0.23081 0.20955 0.89754 0.0
C639 C 0.25702 0.15917 0.87431 0.0
O640 O 0.26355 0.17428 0.86955 0.0
O641 O 0.2516 0.15673 0.89037 0.0
O642 O 0.27829 0.21325 0.86481 0.0
O643 O 0.29268 0.2065 0.88986 0.0
O644 O 0.31066 0.73388 0.40088 0.0
Cd645 Cd 0.32499 0.75769 0.40242 0.0
Cd646 Cd 0.3002 0.76987 0.38095 0.0
O647 O 0.2865 0.7479 0.39106 0.0
O648 O 0.33784 0.75903 0.42572 0.0
O649 O 0.3149 0.77688 0.41837 0.0
C650 C 0.32672 0.77169 0.43007 0.0
C651 C 0.2823 0.79491 0.37403 0.0
C652 C 0.29402 0.73368 0.39686 0.0
C653 C 0.33746 0.76282 0.36584 0.0
O654 O 0.32071 0.76459 0.36263 0.0
O655 O 0.34299 0.76218 0.382 0.0
O656 O 0.28104 0.78001 0.3653 0.0
O657 O 0.29388 0.79583 0.38696 0.0
O658 O 0.69185 0.26045 0.39901 0.0
Cd659 Cd 0.67757 0.23658 0.39943 0.0
Cd660 Cd 0.70365 0.22554 0.37881 0.0
O661 O 0.71682 0.24696 0.3906 0.0
O662 O 0.66399 0.23482 0.42233 0.0
O663 O 0.68721 0.21719 0.41543 0.0
C664 C 0.67514 0.22227 0.42693 0.0
C665 C 0.7216 0.20084 0.37074 0.0
C666 C 0.70872 0.26099 0.3961 0.0
C667 C 0.66712 0.23335 0.36219 0.0
O668 O 0.68406 0.23204 0.35998 0.0
O669 O 0.66054 0.23271 0.37796 0.0
O670 O 0.72324 0.2163 0.36312 0.0
O671 O 0.70975 0.19923 0.38335 0.0
C672 C 0.95987 0.28729 0.19182 0.0
C673 C 0.94975 0.28437 0.17616 0.0
C674 C 0.97876 0.28796 0.19111 0.0
C675 C 0.98759 0.28618 0.17429 0.0
C676 C 0.97727 0.28527 0.15827 0.0
C677 C 0.95845 0.28405 0.15942 0.0
C678 C 0.98921 0.28861 0.20855 0.0
C679 C 0.98614 0.28398 0.14001 0.0
C680 C 0.03875 0.29058 0.1733 0.0
C681 C 0.04395 0.27242 0.17353 0.0
C682 C 0.02041 0.29541 0.1731 0.0
C683 C 0.00711 0.28173 0.17374 0.0
C684 C 0.01238 0.26339 0.17407 0.0
C685 C 0.03069 0.25899 0.17369 0.0
C686 C 0.01525 0.31505 0.17216 0.0
C687 C 0.99867 0.24835 0.17513 0.0
H688 H 0.95315 0.28748 0.20479 0.0
H689 H 0.9506 0.282 0.14727 0.0
H690 H 0.99473 0.27502 0.21147 0.0
H691 H 0.00076 0.29801 0.20752 0.0
H692 H 0.98061 0.29279 0.22007 0.0
H693 H 0.97654 0.2871 0.12896 0.0
H694 H 0.99779 0.2933 0.13909 0.0
H695 H 0.99128 0.27009 0.13796 0.0
H696 H 0.04901 0.30098 0.1731 0.0
H697 H 0.03465 0.24493 0.17406 0.0
H698 H 0.00768 0.31893 0.18444 0.0
H699 H 0.00622 0.3174 0.16048 0.0
H700 H 0.0272 0.32398 0.17089 0.0
H701 H 0.98992 0.25024 0.1871 0.0
H702 H 0.00507 0.23485 0.17601 0.0
H703 H 0.98986 0.24861 0.16306 0.0
C704 C 0.24148 0.53314 0.68161 0.0
C705 C 0.2274 0.54553 0.67958 0.0
C706 C 0.23831 0.51458 0.68066 0.0
C707 C 0.22068 0.50823 0.67705 0.0
C708 C 0.20635 0.52068 0.67501 0.0
C709 C 0.20984 0.53926 0.67657 0.0
C710 C 0.25391 0.50178 0.68337 0.0
C711 C 0.1875 0.51441 0.67068 0.0
C712 C 0.22357 0.46149 0.6573 0.0
C713 C 0.22084 0.45079 0.6726 0.0
C714 C 0.22176 0.48027 0.65815 0.0
C715 C 0.21773 0.48853 0.67486 0.0
C716 C 0.21379 0.47769 0.69007 0.0
C717 C 0.21516 0.45886 0.68868 0.0
C718 C 0.22553 0.49131 0.64149 0.0
C719 C 0.20978 0.48595 0.70821 0.0
H720 H 0.25503 0.53797 0.68416 0.0
H721 H 0.19897 0.54887 0.67494 0.0
H722 H 0.25059 0.49177 0.69397 0.0
H723 H 0.25652 0.49422 0.67074 0.0
H724 H 0.26649 0.50888 0.6873 0.0
H725 H 0.17771 0.52572 0.67032 0.0
H726 H 0.18743 0.50759 0.65738 0.0
H727 H 0.18291 0.50439 0.68078 0.0
H728 H 0.22778 0.45521 0.6448 0.0
H729 H 0.21313 0.45058 0.70054 0.0
H730 H 0.23903 0.49761 0.64264 0.0
H731 H 0.21551 0.50232 0.64008 0.0
H732 H 0.22528 0.48295 0.62908 0.0
H733 H 0.22237 0.49166 0.7139 0.0
H734 H 0.20436 0.47588 0.71788 0.0
H735 H 0.19997 0.49715 0.70692 0.0
C736 C 0.03485 0.72029 0.19162 0.0
C737 C 0.04427 0.72297 0.17549 0.0
C738 C 0.01594 0.71961 0.19175 0.0
C739 C 0.00638 0.72115 0.1753 0.0
C740 C 0.01598 0.72199 0.15884 0.0
C741 C 0.03483 0.7232 0.15915 0.0
C742 C 0.00625 0.71905 0.20962 0.0
C743 C 0.00632 0.72306 0.14098 0.0
C744 C 0.95532 0.71553 0.17556 0.0
C745 C 0.94969 0.73356 0.1755 0.0
C746 C 0.97377 0.71115 0.17527 0.0
C747 C 0.98674 0.72515 0.17549 0.0
C748 C 0.98103 0.74335 0.17572 0.0
C749 C 0.96261 0.74731 0.17547 0.0
C750 C 0.97939 0.69162 0.1745 0.0
C751 C 0.99439 0.75872 0.17635 0.0
H752 H 0.04215 0.72019 0.20427 0.0
H753 H 0.04215 0.72508 0.14665 0.0
H754 H 0.00067 0.7326 0.21261 0.0
H755 H 0.99479 0.70949 0.20918 0.0
H756 H 0.01538 0.71513 0.22082 0.0
H757 H 0.0155 0.7202 0.12951 0.0
H758 H 0.9949 0.71343 0.14055 0.0
H759 H 0.00071 0.7368 0.13917 0.0
H760 H 0.94532 0.70488 0.17552 0.0
H761 H 0.95829 0.76127 0.17563 0.0
H762 H 0.98803 0.68828 0.18622 0.0
H763 H 0.98753 0.6892 0.1622 0.0
H764 H 0.96764 0.68234 0.1744 0.0
H765 H 0.00356 0.75707 0.18805 0.0
H766 H 0.98769 0.77206 0.17741 0.0
H767 H 0.00282 0.75865 0.16401 0.0
C768 C 0.7795 0.45738 0.69163 0.0
C769 C 0.77809 0.44862 0.67499 0.0
C770 C 0.78089 0.47622 0.69251 0.0
C771 C 0.78146 0.48634 0.67634 0.0
C772 C 0.78205 0.47731 0.65955 0.0
C773 C 0.77998 0.45854 0.65906 0.0
C774 C 0.7798 0.4853 0.71068 0.0
C775 C 0.78332 0.48756 0.64203 0.0
C776 C 0.75647 0.53075 0.67552 0.0
C777 C 0.7704 0.54323 0.67792 0.0
C778 C 0.75996 0.51223 0.67525 0.0
C779 C 0.77795 0.50605 0.67682 0.0
C780 C 0.79217 0.51861 0.67885 0.0
C781 C 0.78818 0.53713 0.67971 0.0
C782 C 0.74432 0.4993 0.67351 0.0
C783 C 0.81153 0.5125 0.67993 0.0
H784 H 0.77794 0.44969 0.70396 0.0
H785 H 0.77908 0.4517 0.64618 0.0
H786 H 0.78968 0.49645 0.71169 0.0
H787 H 0.76617 0.49122 0.71239 0.0
H788 H 0.78221 0.47568 0.7219 0.0
H789 H 0.78733 0.47866 0.63069 0.0
H790 H 0.77002 0.49355 0.6388 0.0
H791 H 0.79319 0.49874 0.64313 0.0
H792 H 0.74269 0.53545 0.67434 0.0
H793 H 0.79895 0.54683 0.68148 0.0
H794 H 0.74442 0.48957 0.68487 0.0
H795 H 0.74558 0.49144 0.66087 0.0
H796 H 0.7311 0.50632 0.6734 0.0
H797 H 0.81344 0.50354 0.69173 0.0
H798 H 0.82105 0.52401 0.68107 0.0
H799 H 0.81502 0.50456 0.66776 0.0
C800 C 0.96368 0.72571 0.84352 0.0
C801 C 0.95442 0.72467 0.82712 0.0
C802 C 0.98255 0.72531 0.84402 0.0
C803 C 0.99233 0.72454 0.82766 0.0
C804 C 0.983 0.72215 0.81118 0.0
C805 C 0.96409 0.722 0.81114 0.0
C806 C 0.99199 0.72725 0.86193 0.0
C807 C 0.99287 0.72163 0.7934 0.0
C808 C 0.03471 0.75286 0.82757 0.0
C809 C 0.04828 0.73977 0.82809 0.0
C810 C 0.01651 0.74797 0.82702 0.0
C811 C 0.01172 0.7295 0.82755 0.0
C812 C 0.02537 0.71617 0.82825 0.0
C813 C 0.04357 0.72148 0.82822 0.0
C814 C 0.00242 0.76263 0.82583 0.0
C815 C 0.02072 0.69641 0.82936 0.0
H816 H 0.95616 0.72759 0.85591 0.0
H817 H 0.95691 0.72129 0.79844 0.0
H818 H 0.00385 0.71818 0.86268 0.0
H819 H 0.99691 0.74128 0.86347 0.0
H820 H 0.98284 0.7242 0.87339 0.0
H821 H 0.98406 0.71692 0.78225 0.0
H822 H 0.99772 0.73538 0.79008 0.0
H823 H 0.00483 0.71273 0.79419 0.0
H824 H 0.03834 0.76701 0.82725 0.0
H825 H 0.05409 0.71136 0.82869 0.0
H826 H 0.99389 0.76248 0.8381 0.0
H827 H 0.99346 0.7602 0.81411 0.0
H828 H 0.00847 0.77625 0.82446 0.0
H829 H 0.01283 0.69379 0.84178 0.0
H830 H 0.03291 0.68772 0.8295 0.0
H831 H 0.01214 0.69246 0.81778 0.0
C832 C 0.7859 0.54153 0.3314 0.0
C833 C 0.76772 0.54661 0.33078 0.0
C834 C 0.79079 0.52324 0.33251 0.0
C835 C 0.77714 0.50989 0.33243 0.0
C836 C 0.7588 0.51505 0.33143 0.0
C837 C 0.75434 0.53333 0.33089 0.0
C838 C 0.81042 0.51822 0.33411 0.0
C839 C 0.7438 0.50127 0.33088 0.0
C840 C 0.78194 0.46135 0.3184 0.0
C841 C 0.77812 0.45272 0.33473 0.0
C842 C 0.78346 0.48018 0.31759 0.0
C843 C 0.78157 0.49041 0.3336 0.0
C844 C 0.78 0.48149 0.35038 0.0
C845 C 0.77795 0.46272 0.35072 0.0
C846 C 0.78486 0.48912 0.29938 0.0
C847 C 0.77861 0.49186 0.36781 0.0
H848 H 0.79624 0.55185 0.33138 0.0
H849 H 0.74027 0.53724 0.33018 0.0
H850 H 0.81278 0.51138 0.3472 0.0
H851 H 0.81421 0.50856 0.32336 0.0
H852 H 0.81941 0.53016 0.33326 0.0
H853 H 0.73034 0.50755 0.32901 0.0
H854 H 0.74611 0.4916 0.3197 0.0
H855 H 0.74361 0.49345 0.34361 0.0
H856 H 0.78205 0.4536 0.30602 0.0
H857 H 0.77522 0.45599 0.3634 0.0
H858 H 0.79413 0.50083 0.29982 0.0
H859 H 0.77138 0.49419 0.29537 0.0
H860 H 0.78962 0.47959 0.28887 0.0
H861 H 0.78812 0.50339 0.36793 0.0
H862 H 0.78141 0.48315 0.37966 0.0
H863 H 0.76478 0.49736 0.36922 0.0
C864 C 0.03815 0.2847 0.8235 0.0
C865 C 0.04371 0.26679 0.8212 0.0
C866 C 0.01973 0.28905 0.8246 0.0
C867 C 0.00671 0.27519 0.82298 0.0
C868 C 0.01233 0.2572 0.82 0.0
C869 C 0.03074 0.25321 0.81935 0.0
C870 C 0.01423 0.30831 0.82811 0.0
C871 C 0.9989 0.24204 0.81782 0.0
C872 C 0.96019 0.2742 0.84319 0.0
C873 C 0.94944 0.2761 0.8278 0.0
C874 C 0.97897 0.27583 0.84215 0.0
C875 C 0.98717 0.27895 0.82522 0.0
C876 C 0.97628 0.2824 0.80993 0.0
C877 C 0.95746 0.2811 0.81145 0.0
C878 C 0.99007 0.27257 0.85888 0.0
C879 C 0.98448 0.28563 0.79161 0.0
H880 H 0.04819 0.2952 0.82499 0.0
H881 H 0.035 0.23938 0.81735 0.0
H882 H 0.00388 0.31268 0.81825 0.0
H883 H 0.0081 0.30933 0.8417 0.0
H884 H 0.02585 0.31772 0.8274 0.0
H885 H 0.00549 0.22905 0.81438 0.0
H886 H 0.99124 0.24021 0.83052 0.0
H887 H 0.98906 0.24537 0.80708 0.0
H888 H 0.95397 0.27056 0.8559 0.0
H889 H 0.94918 0.28257 0.79951 0.0
H890 H 0.00134 0.28236 0.85975 0.0
H891 H 0.99603 0.25887 0.8583 0.0
H892 H 0.98183 0.27358 0.87133 0.0
H893 H 0.99609 0.29499 0.79251 0.0
H894 H 0.9745 0.29123 0.78195 0.0
H895 H 0.98956 0.27267 0.78615 0.0
C896 C 0.21714 0.45687 0.32415 0.0
C897 C 0.23472 0.45145 0.31982 0.0
C898 C 0.2128 0.47526 0.32581 0.0
C899 C 0.2263 0.4884 0.32272 0.0
C900 C 0.24391 0.48293 0.31783 0.0
C901 C 0.24792 0.46455 0.31662 0.0
C902 C 0.19398 0.48061 0.33133 0.0
C903 C 0.25865 0.49649 0.31411 0.0
C904 C 0.21863 0.53754 0.31161 0.0
C905 C 0.22511 0.54573 0.32733 0.0
C906 C 0.21746 0.51869 0.31032 0.0
C907 C 0.22259 0.50793 0.32523 0.0
C908 C 0.22731 0.51628 0.34171 0.0
C909 C 0.22873 0.5351 0.3425 0.0
C910 C 0.21248 0.51033 0.29247 0.0
C911 C 0.23243 0.50533 0.35807 0.0
H912 H 0.20692 0.44675 0.32668 0.0
H913 H 0.26148 0.46043 0.31307 0.0
H914 H 0.19439 0.48713 0.34478 0.0
H915 H 0.18838 0.49061 0.32175 0.0
H916 H 0.18473 0.46886 0.332 0.0
H917 H 0.27131 0.49001 0.30944 0.0
H918 H 0.25417 0.50623 0.30369 0.0
H919 H 0.26163 0.50425 0.32652 0.0
H920 H 0.21582 0.54573 0.29985 0.0
H921 H 0.23352 0.54144 0.35476 0.0
H922 H 0.20335 0.49867 0.29438 0.0
H923 H 0.22487 0.50529 0.28578 0.0
H924 H 0.20588 0.5202 0.28334 0.0
H925 H 0.22294 0.49395 0.36 0.0
H926 H 0.23261 0.51364 0.37052 0.0
H927 H 0.24608 0.49955 0.3561 0.0
C928 C 0.17446 0.95926 0.2833 0.0
C929 C 0.17595 0.95416 0.26519 0.0
C930 C 0.17312 0.97756 0.28809 0.0
C931 C 0.17399 0.99091 0.27447 0.0
C932 C 0.17615 0.98572 0.25624 0.0
C933 C 0.17676 0.96741 0.25181 0.0
C934 C 0.17022 0.98257 0.30757 0.0
C935 C 0.17768 0.9995 0.24132 0.0
C936 C 0.15412 0.03762 0.27552 0.0
C937 C 0.16957 0.04817 0.27785 0.0
C938 C 0.15506 0.01878 0.27637 0.0
C939 C 0.172 0.01036 0.27883 0.0
C940 C 0.18744 0.02102 0.28237 0.0
C941 C 0.18597 0.03989 0.28212 0.0
C942 C 0.13815 0.00792 0.2732 0.0
C943 C 0.20583 0.01262 0.28459 0.0
H944 H 0.17376 0.94894 0.29361 0.0
H945 H 0.17815 0.96342 0.23782 0.0
H946 H 0.1805 0.99247 0.312 0.0
H947 H 0.15686 0.98911 0.30909 0.0
H948 H 0.17077 0.97066 0.31663 0.0
H949 H 0.18082 0.99324 0.22809 0.0
H950 H 0.16483 0.00702 0.24003 0.0
H951 H 0.18839 0.00943 0.24454 0.0
H952 H 0.14142 0.04411 0.27233 0.0
H953 H 0.19793 0.04811 0.28376 0.0
H954 H 0.13753 0.99627 0.28255 0.0
H955 H 0.13823 0.00253 0.25926 0.0
H956 H 0.1258 0.0162 0.27495 0.0
H957 H 0.20524 0.00077 0.29366 0.0
H958 H 0.21581 0.02237 0.29002 0.0
H959 H 0.21068 0.00784 0.27128 0.0
C960 C 0.53647 0.65769 0.77874 0.0
C961 C 0.54631 0.67376 0.77793 0.0
C962 C 0.51768 0.65794 0.78072 0.0
C963 C 0.50854 0.67468 0.78118 0.0
C964 C 0.51857 0.69092 0.78169 0.0
C965 C 0.53742 0.69024 0.78032 0.0
C966 C 0.50753 0.64031 0.7808 0.0
C967 C 0.50938 0.70906 0.78176 0.0
C968 C 0.46408 0.67519 0.75627 0.0
C969 C 0.45159 0.67651 0.77035 0.0
C970 C 0.4826 0.67486 0.75971 0.0
C971 C 0.48882 0.67526 0.77774 0.0
C972 C 0.47627 0.67622 0.79208 0.0
C973 C 0.45773 0.67716 0.78819 0.0
C974 C 0.49552 0.67428 0.74397 0.0
C975 C 0.48241 0.67608 0.81146 0.0
H976 H 0.54339 0.64493 0.77708 0.0
H977 H 0.54504 0.70268 0.77961 0.0
H978 H 0.49636 0.64067 0.79073 0.0
H979 H 0.50152 0.63797 0.76731 0.0
H980 H 0.51649 0.62876 0.784 0.0
H981 H 0.51893 0.72016 0.78489 0.0
H982 H 0.50344 0.71162 0.76828 0.0
H983 H 0.49824 0.70937 0.7917 0.0
H984 H 0.45936 0.6749 0.74245 0.0
H985 H 0.44804 0.67811 0.79908 0.0
H986 H 0.5035 0.66166 0.74439 0.0
H987 H 0.50514 0.6857 0.74481 0.0
H988 H 0.48847 0.67496 0.73078 0.0
H989 H 0.4904 0.66372 0.81414 0.0
H990 H 0.47093 0.67656 0.82105 0.0
H991 H 0.49135 0.68776 0.8141 0.0
C992 C 0.8472 0.03836 0.28122 0.0
C993 C 0.83145 0.04825 0.27812 0.0
C994 C 0.84639 0.01986 0.28502 0.0
C995 C 0.82948 0.01102 0.28484 0.0
C996 C 0.81347 0.02126 0.28308 0.0
C997 C 0.81466 0.03988 0.28004 0.0
C998 C 0.86372 0.00955 0.28764 0.0
C999 C 0.79519 0.01236 0.28234 0.0
C1000 C 0.82936 0.96503 0.26296 0.0
C1001 C 0.82575 0.95364 0.27755 0.0
C1002 C 0.83055 0.98368 0.26526 0.0
C1003 C 0.82877 0.99112 0.28273 0.0
C1004 C 0.82583 0.97963 0.29769 0.0
C1005 C 0.82395 0.96097 0.29486 0.0
C1006 C 0.83322 0.99545 0.24884 0.0
C1007 C 0.82456 0.98703 0.31658 0.0
H1008 H 0.86019 0.04492 0.27993 0.0
H1009 H 0.80247 0.04755 0.27755 0.0
H1010 H 0.86215 0.99913 0.29825 0.0
H1011 H 0.86734 0.00258 0.27493 0.0
H1012 H 0.87503 0.01862 0.29138 0.0
H1013 H 0.78406 0.0223 0.28353 0.0
H1014 H 0.79374 0.00521 0.26928 0.0
H1015 H 0.79374 0.0022 0.29318 0.0
H1016 H 0.83054 0.9594 0.24954 0.0
H1017 H 0.82122 0.95211 0.30615 0.0
H1018 H 0.84605 0.00301 0.25 0.0
H1019 H 0.82217 0.00547 0.24787 0.0
H1020 H 0.83356 0.98753 0.23614 0.0
H1021 H 0.83609 0.99615 0.31934 0.0
H1022 H 0.82442 0.97617 0.32687 0.0
H1023 H 0.81207 0.99509 0.31803 0.0
C1024 C 0.53711 0.32135 0.78037 0.0
C1025 C 0.54188 0.32227 0.76212 0.0
C1026 C 0.51892 0.3223 0.78567 0.0
C1027 C 0.50531 0.32352 0.77234 0.0
C1028 C 0.51016 0.32415 0.7539 0.0
C1029 C 0.52837 0.32382 0.74906 0.0
C1030 C 0.51428 0.32222 0.80546 0.0
C1031 C 0.49609 0.32499 0.73919 0.0
C1032 C 0.45696 0.30871 0.77826 0.0
C1033 C 0.448 0.32524 0.77657 0.0
C1034 C 0.47586 0.30795 0.77835 0.0
C1035 C 0.48591 0.32415 0.77729 0.0
C1036 C 0.47683 0.34093 0.77767 0.0
C1037 C 0.45794 0.34127 0.77694 0.0
C1038 C 0.48494 0.28976 0.77757 0.0
C1039 C 0.48703 0.35851 0.77725 0.0
H1040 H 0.5476 0.32025 0.79047 0.0
H1041 H 0.53205 0.32433 0.73493 0.0
H1042 H 0.50676 0.33467 0.80892 0.0
H1043 H 0.50535 0.31067 0.80862 0.0
H1044 H 0.52645 0.32139 0.81414 0.0
H1045 H 0.50211 0.3244 0.7255 0.0
H1046 H 0.48646 0.31363 0.74064 0.0
H1047 H 0.48826 0.33767 0.74035 0.0
H1048 H 0.44927 0.29629 0.77786 0.0
H1049 H 0.45099 0.35407 0.7758 0.0
H1050 H 0.49684 0.28933 0.78658 0.0
H1051 H 0.48977 0.28729 0.76364 0.0
H1052 H 0.47562 0.27868 0.78137 0.0
H1053 H 0.49893 0.35796 0.78628 0.0
H1054 H 0.47839 0.37004 0.78131 0.0
H1055 H 0.49199 0.36106 0.76338 0.0
C1056 C 0.19845 0.04231 0.71651 0.0
C1057 C 0.18216 0.05175 0.7179 0.0
C1058 C 0.19861 0.02347 0.71495 0.0
C1059 C 0.18207 0.01397 0.71419 0.0
C1060 C 0.16564 0.02366 0.71367 0.0
C1061 C 0.16586 0.04244 0.7159 0.0
C1062 C 0.21643 0.01369 0.71599 0.0
C1063 C 0.14776 0.01409 0.71216 0.0
C1064 C 0.18503 0.96332 0.70622 0.0
C1065 C 0.18343 0.95677 0.72386 0.0
C1066 C 0.18393 0.98192 0.70266 0.0
C1067 C 0.18189 0.99415 0.71718 0.0
C1068 C 0.18027 0.9875 0.73499 0.0
C1069 C 0.18075 0.9689 0.73805 0.0
C1070 C 0.18503 0.98849 0.68346 0.0
C1071 C 0.17852 5e-05 0.75094 0.0
H1072 H 0.21108 0.04947 0.71816 0.0
H1073 H 0.15325 0.04976 0.71679 0.0
H1074 H 0.21764 0.00708 0.72936 0.0
H1075 H 0.21723 0.00298 0.70563 0.0
H1076 H 0.22805 0.02296 0.71423 0.0
H1077 H 0.13677 0.02347 0.70824 0.0
H1078 H 0.1485 0.00303 0.70213 0.0
H1079 H 0.14423 0.00801 0.72535 0.0
H1080 H 0.18701 0.95391 0.69523 0.0
H1081 H 0.17968 0.96388 0.75173 0.0
H1082 H 0.19754 0.99642 0.68151 0.0
H1083 H 0.17352 0.99756 0.68046 0.0
H1084 H 0.18497 0.9772 0.67362 0.0
H1085 H 0.19014 0.00947 0.75131 0.0
H1086 H 0.17797 0.99269 0.76396 0.0
H1087 H 0.16612 0.00828 0.74964 0.0
C1088 C 0.46148 0.68614 0.21682 0.0
C1089 C 0.45464 0.6703 0.2245 0.0
C1090 C 0.4801 0.68849 0.21447 0.0
C1091 C 0.49203 0.67453 0.21966 0.0
C1092 C 0.48502 0.65786 0.22571 0.0
C1093 C 0.46639 0.65601 0.22825 0.0
C1094 C 0.48704 0.7065 0.20806 0.0
C1095 C 0.49725 0.64249 0.231 0.0
C1096 C 0.54249 0.67788 0.21084 0.0
C1097 C 0.54876 0.68336 0.22779 0.0
C1098 C 0.52397 0.67517 0.20777 0.0
C1099 C 0.51156 0.67835 0.22191 0.0
C1100 C 0.51785 0.68451 0.23883 0.0
C1101 C 0.53636 0.68677 0.24159 0.0
C1102 C 0.51776 0.66835 0.18965 0.0
C1103 C 0.50506 0.68837 0.2542 0.0
H1104 H 0.45243 0.69722 0.21388 0.0
H1105 H 0.46112 0.64364 0.23396 0.0
H1106 H 0.49244 0.71413 0.21973 0.0
H1107 H 0.4982 0.70476 0.19828 0.0
H1108 H 0.47625 0.71469 0.20167 0.0
H1109 H 0.48975 0.62961 0.23246 0.0
H1110 H 0.50808 0.64063 0.22086 0.0
H1111 H 0.50379 0.64562 0.24407 0.0
H1112 H 0.55208 0.67518 0.20016 0.0
H1113 H 0.54113 0.69121 0.25466 0.0
H1114 H 0.50675 0.67694 0.18434 0.0
H1115 H 0.51226 0.65453 0.19114 0.0
H1116 H 0.52888 0.66801 0.17963 0.0
H1117 H 0.49447 0.69797 0.24981 0.0
H1118 H 0.51205 0.69413 0.26612 0.0
H1119 H 0.49822 0.67575 0.25838 0.0
C1120 C 0.82568 0.03116 0.74834 0.0
C1121 C 0.82376 0.04421 0.73486 0.0
C1122 C 0.82561 0.01279 0.74415 0.0
C1123 C 0.82419 0.00731 0.72593 0.0
C1124 C 0.82265 0.02044 0.71217 0.0
C1125 C 0.82213 0.03881 0.71684 0.0
C1126 C 0.82684 0.99925 0.75932 0.0
C1127 C 0.82173 0.01508 0.69258 0.0
C1128 C 0.84091 0.95954 0.72277 0.0
C1129 C 0.82474 0.94995 0.72421 0.0
C1130 C 0.84087 0.97836 0.72111 0.0
C1131 C 0.82427 0.98774 0.72171 0.0
C1132 C 0.80786 0.97797 0.72174 0.0
C1133 C 0.80831 0.95909 0.7227 0.0
C1134 C 0.85863 0.98823 0.72037 0.0
C1135 C 0.78988 0.98742 0.72282 0.0
H1136 H 0.82674 0.03532 0.7623 0.0
H1137 H 0.82073 0.04894 0.70641 0.0
H1138 H 0.81529 0.98977 0.75869 0.0
H1139 H 0.83935 0.99118 0.75795 0.0
H1140 H 0.82691 0.00577 0.7728 0.0
H1141 H 0.82114 0.02696 0.68348 0.0
H1142 H 0.8337 0.00687 0.689 0.0
H1143 H 0.80968 0.00659 0.69015 0.0
H1144 H 0.85362 0.95239 0.72377 0.0
H1145 H 0.7958 0.95164 0.72394 0.0
H1146 H 0.86187 0.99367 0.73391 0.0
H1147 H 0.8579 -0.00022 0.7109 0.0
H1148 H 0.86981 0.97921 0.71616 0.0
H1149 H 0.78803 0.99287 0.73662 0.0
H1150 H 0.77851 0.97815 0.71984 0.0
H1151 H 0.7893 0.99894 0.71334 0.0
C1152 C 0.54186 0.34739 0.21983 0.0
C1153 C 0.55198 0.33149 0.22034 0.0
C1154 C 0.52321 0.34687 0.21687 0.0
C1155 C 0.51446 0.32999 0.21528 0.0
C1156 C 0.52485 0.31399 0.21456 0.0
C1157 C 0.54361 0.31498 0.21679 0.0
C1158 C 0.51272 0.3643 0.21696 0.0
C1159 C 0.51607 0.29567 0.21344 0.0
C1160 C 0.46923 0.32741 0.23861 0.0
C1161 C 0.45728 0.32592 0.2241 0.0
C1162 C 0.48782 0.32853 0.23582 0.0
C1163 C 0.49464 0.32887 0.21801 0.0
C1164 C 0.4826 0.32793 0.20323 0.0
C1165 C 0.464 0.32607 0.20646 0.0
C1166 C 0.50018 0.32899 0.25202 0.0
C1167 C 0.48935 0.32897 0.18408 0.0
H1168 H 0.54844 0.36017 0.22246 0.0
H1169 H 0.55148 0.30268 0.21734 0.0
H1170 H 0.50189 0.36403 0.20665 0.0
H1171 H 0.50624 0.36614 0.2303 0.0
H1172 H 0.52157 0.3761 0.21439 0.0
H1173 H 0.52597 0.28489 0.21033 0.0
H1174 H 0.50962 0.29251 0.22656 0.0
H1175 H 0.50535 0.2955 0.20304 0.0
H1176 H 0.46405 0.32706 0.25227 0.0
H1177 H 0.45471 0.32496 0.19525 0.0
H1178 H 0.50772 0.34188 0.25232 0.0
H1179 H 0.51021 0.31794 0.25113 0.0
H1180 H 0.49272 0.3276 0.26492 0.0
H1181 H 0.4976 0.34131 0.18225 0.0
H1182 H 0.47816 0.32913 0.17414 0.0
H1183 H 0.49818 0.31729 0.18114 0.0
C1184 C 0.27542 0.15277 0.04333 0.0
C1185 C 0.27461 0.16925 0.05249 0.0
C1186 C 0.27741 0.15225 0.02454 0.0
C1187 C 0.27788 0.1686 0.01472 0.0
C1188 C 0.27855 0.18522 0.02408 0.0
C1189 C 0.27718 0.18531 0.04293 0.0
C1190 C 0.2774 0.13423 0.01512 0.0
C1191 C 0.27866 0.20299 0.01418 0.0
C1192 C 0.28373 0.17025 0.96374 0.0
C1193 C 0.26572 0.16984 0.95804 0.0
C1194 C 0.28806 0.16923 0.98218 0.0
C1195 C 0.27401 0.16848 0.99507 0.0
C1196 C 0.25583 0.16812 0.98928 0.0
C1197 C 0.25195 0.1685 0.97085 0.0
C1198 C 0.30758 0.16901 0.98785 0.0
C1199 C 0.24038 0.16775 0.00256 0.0
H1200 H 0.27366 0.14031 0.05075 0.0
H1201 H 0.27651 0.19809 0.04999 0.0
H1202 H 0.26379 0.13154 0.00955 0.0
H1203 H 0.28706 0.1342 0.00371 0.0
H1204 H 0.28091 0.12309 0.02448 0.0
H1205 H 0.28191 0.21445 0.02325 0.0
H1206 H 0.28851 0.20281 0.00296 0.0
H1207 H 0.26514 0.20538 0.00824 0.0
H1208 H 0.29439 0.1712 0.9538 0.0
H1209 H 0.23801 0.16837 0.96649 0.0
H1210 H 0.31016 0.15741 0.99693 0.0
H1211 H 0.31079 0.18142 0.99552 0.0
H1212 H 0.31686 0.16812 0.97614 0.0
H1213 H 0.24107 0.15535 0.01086 0.0
H1214 H 0.22703 0.16818 0.99581 0.0
H1215 H 0.24137 0.17943 0.01185 0.0
C1216 C 0.29034 0.81733 0.04007 0.0
C1217 C 0.27227 0.81806 0.04547 0.0
C1218 C 0.2951 0.81993 0.0219 0.0
C1219 C 0.28137 0.8227 0.00894 0.0
C1220 C 0.26309 0.82311 0.01439 0.0
C1221 C 0.25881 0.82108 0.03262 0.0
C1222 C 0.31474 0.81999 0.01662 0.0
C1223 C 0.24797 0.82558 0.00097 0.0
C1224 C 0.28432 0.84487 0.96344 0.0
C1225 C 0.28297 0.82988 0.95207 0.0
C1226 C 0.28602 0.84269 0.98213 0.0
C1227 C 0.2857 0.82512 0.98956 0.0
C1228 C 0.28592 0.80995 0.97799 0.0
C1229 C 0.28481 0.81254 0.95931 0.0
C1230 C 0.28645 0.85921 0.99397 0.0
C1231 C 0.28522 0.79099 0.98532 0.0
H1232 H 0.30075 0.81511 0.05007 0.0
H1233 H 0.24481 0.82147 0.03678 0.0
H1234 H 0.31735 0.8095 0.00632 0.0
H1235 H 0.31826 0.83316 0.01048 0.0
H1236 H 0.32376 0.81758 0.02832 0.0
H1237 H 0.23446 0.82464 0.00735 0.0
H1238 H 0.24914 0.83894 0.99438 0.0
H1239 H 0.24888 0.81519 0.99026 0.0
H1240 H 0.28313 0.85831 0.95781 0.0
H1241 H 0.28374 0.8009 0.95054 0.0
H1242 H 0.29591 0.85732 0.00539 0.0
H1243 H 0.27284 0.86157 -0.00031 0.0
H1244 H 0.29048 0.87142 0.98631 0.0
H1245 H 0.29463 0.78931 0.99679 0.0
H1246 H 0.28854 0.78082 0.97484 0.0
H1247 H 0.27143 0.78819 0.99037 0.0
C1248 C 0.67159 0.75322 0.53235 0.0
C1249 C 0.67295 0.76665 0.54551 0.0
C1250 C 0.67087 0.7576 0.51404 0.0
C1251 C 0.67088 0.77594 0.50875 0.0
C1252 C 0.67181 0.78963 0.52201 0.0
C1253 C 0.67319 0.7848 0.5403 0.0
C1254 C 0.67038 0.74252 0.50035 0.0
C1255 C 0.67121 0.8093 0.51689 0.0
C1256 C 0.6858 0.78068 0.4604 0.0
C1257 C 0.66941 0.77808 0.4514 0.0
C1258 C 0.68642 0.78156 0.47926 0.0
C1259 C 0.67019 0.78036 0.48923 0.0
C1260 C 0.65347 0.77991 0.48005 0.0
C1261 C 0.65329 0.77842 0.4612 0.0
C1262 C 0.70457 0.78165 0.48846 0.0
C1263 C 0.63584 0.77934 0.49015 0.0
H1264 H 0.6716 0.73917 0.53636 0.0
H1265 H 0.67413 0.79519 0.55052 0.0
H1266 H 0.65766 0.74316 0.49253 0.0
H1267 H 0.68168 0.74402 0.49067 0.0
H1268 H 0.67133 0.72901 0.5067 0.0
H1269 H 0.67151 0.81828 0.52885 0.0
H1270 H 0.6828 0.81267 0.50809 0.0
H1271 H 0.65878 0.81212 0.50907 0.0
H1272 H 0.6983 0.78036 0.45284 0.0
H1273 H 0.64058 0.77662 0.45423 0.0
H1274 H 0.70746 0.76796 0.49373 0.0
H1275 H 0.70465 0.79103 0.50008 0.0
H1276 H 0.71558 0.78552 0.47909 0.0
H1277 H 0.63358 0.76554 0.49544 0.0
H1278 H 0.62429 0.78292 0.48133 0.0
H1279 H 0.6361 0.78869 0.50182 0.0
C1280 C 0.7138 0.17643 0.0432 0.0
C1281 C 0.73195 0.17722 0.04838 0.0
C1282 C 0.70897 0.17626 0.02487 0.0
C1283 C 0.72261 0.17745 0.01158 0.0
C1284 C 0.74091 0.17869 0.01684 0.0
C1285 C 0.74535 0.17829 0.03515 0.0
C1286 C 0.68939 0.17442 0.01973 0.0
C1287 C 0.75587 0.18039 0.00313 0.0
C1288 C 0.72063 0.16098 0.9636 0.0
C1289 C 0.71928 0.17727 0.95417 0.0
C1290 C 0.71977 0.16062 0.98246 0.0
C1291 C 0.71816 0.17702 0.99206 0.0
C1292 C 0.71544 0.19334 0.98253 0.0
C1293 C 0.71579 0.19322 0.96362 0.0
C1294 C 0.72213 0.14286 0.99209 0.0
C1295 C 0.714 0.21116 0.99222 0.0
H1296 H 0.70344 0.17552 0.05346 0.0
H1297 H 0.75938 0.17912 0.03914 0.0
H1298 H 0.68528 0.18573 0.01086 0.0
H1299 H 0.6874 0.16179 0.01198 0.0
H1300 H 0.68038 0.17417 0.03168 0.0
H1301 H 0.76927 0.18232 0.00952 0.0
H1302 H 0.75642 0.16809 0.99466 0.0
H1303 H 0.75323 0.19197 0.99405 0.0
H1304 H 0.72314 0.14861 0.95625 0.0
H1305 H 0.71484 0.20584 0.95632 0.0
H1306 H 0.71277 0.14186 0.0037 0.0
H1307 H 0.73607 0.1419 0.99741 0.0
H1308 H 0.71978 0.13122 0.98298 0.0
H1309 H 0.70483 0.21013 0.00397 0.0
H1310 H 0.70909 0.22205 0.98321 0.0
H1311 H 0.72749 0.21504 0.99739 0.0
C1312 C 0.3284 0.21296 0.53676 0.0
C1313 C 0.32846 0.23103 0.54225 0.0
C1314 C 0.32987 0.20844 0.5184 0.0
C1315 C 0.33074 0.22237 0.50537 0.0
C1316 C 0.33045 0.24062 0.51094 0.0
C1317 C 0.32962 0.24469 0.52931 0.0
C1318 C 0.33077 0.18887 0.51297 0.0
C1319 C 0.33087 0.25592 0.4975 0.0
C1320 C 0.34995 0.22113 0.45848 0.0
C1321 C 0.33419 0.22137 0.44813 0.0
C1322 C 0.34913 0.21921 0.47726 0.0
C1323 C 0.33211 0.21828 0.48582 0.0
C1324 C 0.31626 0.21705 0.47526 0.0
C1325 C 0.31753 0.21833 0.45644 0.0
C1326 C 0.3664 0.21988 0.48798 0.0
C1327 C 0.29782 0.21646 0.48382 0.0
H1328 H 0.32757 0.20241 0.54682 0.0
H1329 H 0.32944 0.25867 0.53354 0.0
H1330 H 0.31975 0.18564 0.50342 0.0
H1331 H 0.34366 0.18622 0.50588 0.0
H1332 H 0.32978 0.17967 0.52474 0.0
H1333 H 0.32942 0.2693 0.50404 0.0
H1334 H 0.34379 0.25574 0.48999 0.0
H1335 H 0.31986 0.2543 0.48752 0.0
H1336 H 0.36286 0.22331 0.45199 0.0
H1337 H 0.30533 0.21862 0.4484 0.0
H1338 H 0.36593 0.21024 0.4994 0.0
H1339 H 0.36819 0.23358 0.49367 0.0
H1340 H 0.37832 0.21675 0.47949 0.0
H1341 H 0.29754 0.20697 0.49534 0.0
H1342 H 0.28724 0.21245 0.47401 0.0
H1343 H 0.29443 0.23004 0.48909 0.0
C1344 C 0.72118 0.84984 0.03787 0.0
C1345 C 0.72146 0.83471 0.04913 0.0
C1346 C 0.71937 0.84794 0.01917 0.0
C1347 C 0.71851 0.83045 0.01159 0.0
C1348 C 0.71727 0.81523 0.02304 0.0
C1349 C 0.71851 0.81759 0.04176 0.0
C1350 C 0.72007 0.86456 0.00746 0.0
C1351 C 0.71668 0.79633 0.01555 0.0
C1352 C 0.71314 0.82417 0.96092 0.0
C1353 C 0.73121 0.82393 0.95541 0.0
C1354 C 0.70864 0.82647 0.97919 0.0
C1355 C 0.72258 0.82797 0.99215 0.0
C1356 C 0.74082 0.82731 0.98659 0.0
C1357 C 0.74488 0.82559 0.96828 0.0
C1358 C 0.68908 0.82766 0.98459 0.0
C1359 C 0.75613 0.8284 -1e-05 0.0
H1360 H 0.72324 0.86312 0.04361 0.0
H1361 H 0.71879 0.80585 0.05047 0.0
H1362 H 0.73377 0.86596 0.00165 0.0
H1363 H 0.71041 0.86346 0.99611 0.0
H1364 H 0.717 0.87696 0.01525 0.0
H1365 H 0.71265 0.78633 0.02594 0.0
H1366 H 0.7072 0.79541 0.00405 0.0
H1367 H 0.73027 0.79264 0.0105 0.0
H1368 H 0.70257 0.82297 0.95091 0.0
H1369 H 0.75886 0.8252 0.96405 0.0
H1370 H 0.68637 0.84105 0.99067 0.0
H1371 H 0.68592 0.81739 0.99497 0.0
H1372 H 0.67986 0.82573 0.97295 0.0
H1373 H 0.75597 0.8417 0.00682 0.0
H1374 H 0.76951 0.8266 0.99352 0.0
H1375 H 0.7545 0.81792 0.01052 0.0
C1376 C 0.67998 0.20698 0.53438 0.0
C1377 C 0.67929 0.22495 0.54014 0.0
C1378 C 0.67884 0.2027 0.51595 0.0
C1379 C 0.67768 0.21677 0.50311 0.0
C1380 C 0.67731 0.23494 0.50895 0.0
C1381 C 0.67781 0.23876 0.5274 0.0
C1382 C 0.67862 0.18319 0.51022 0.0
C1383 C 0.67656 0.25041 0.49573 0.0
C1384 C 0.69204 0.21342 0.4544 0.0
C1385 C 0.67548 0.21587 0.4457 0.0
C1386 C 0.69295 0.21222 0.47325 0.0
C1387 C 0.67684 0.21292 0.48347 0.0
C1388 C 0.65999 0.21331 0.47453 0.0
C1389 C 0.65952 0.21517 0.45573 0.0
C1390 C 0.71121 0.21224 0.48221 0.0
C1391 C 0.64248 0.21339 0.48488 0.0
H1392 H 0.68104 0.19631 0.5443 0.0
H1393 H 0.67748 0.25267 0.53185 0.0
H1394 H 0.66604 0.1803 0.50267 0.0
H1395 H 0.69003 0.18039 0.501 0.0
H1396 H 0.67947 0.17385 0.52189 0.0
H1397 H 0.67743 0.26374 0.50249 0.0
H1398 H 0.6878 0.24933 0.48592 0.0
H1399 H 0.66379 0.24988 0.48799 0.0
H1400 H 0.7044 0.21409 0.44664 0.0
H1401 H 0.64669 0.21691 0.44895 0.0
H1402 H 0.71161 0.20258 0.49359 0.0
H1403 H 0.71392 0.22586 0.48778 0.0
H1404 H 0.72216 0.20882 0.4726 0.0
H1405 H 0.643 0.20369 0.49625 0.0
H1406 H 0.63084 0.20995 0.47611 0.0
H1407 H 0.64016 0.22699 0.49062 0.0
C1408 C 0.30974 0.77881 0.45787 0.0
C1409 C 0.32622 0.77819 0.44875 0.0
C1410 C 0.30924 0.77988 0.47673 0.0
C1411 C 0.32562 0.78102 0.48648 0.0
C1412 C 0.34214 0.7826 0.47708 0.0
C1413 C 0.34229 0.78071 0.45829 0.0
C1414 C 0.29137 0.77764 0.48619 0.0
C1415 C 0.35982 0.78463 0.48693 0.0
C1416 C 0.32226 0.78564 0.53747 0.0
C1417 C 0.32506 0.76777 0.54286 0.0
C1418 C 0.32301 0.79041 0.51914 0.0
C1419 C 0.32579 0.77681 0.50604 0.0
C1420 C 0.32847 0.75873 0.51154 0.0
C1421 C 0.32843 0.75452 0.5299 0.0
C1422 C 0.32088 0.80991 0.51379 0.0
C1423 C 0.33098 0.74369 0.49803 0.0
H1424 H 0.29734 0.77671 0.45044 0.0
H1425 H 0.35503 0.78036 0.45114 0.0
H1426 H 0.29048 0.76379 0.49176 0.0
H1427 H 0.29012 0.78716 0.49762 0.0
H1428 H 0.27982 0.77974 0.4769 0.0
H1429 H 0.37062 0.78969 0.47789 0.0
H1430 H 0.35841 0.79399 0.4985 0.0
H1431 H 0.36407 0.77135 0.49231 0.0
H1432 H 0.31974 0.79587 0.54758 0.0
H1433 H 0.33039 0.74066 0.5341 0.0
H1434 H 0.30847 0.81165 0.50566 0.0
H1435 H 0.33239 0.81415 0.50524 0.0
H1436 H 0.3201 0.81898 0.52568 0.0
H1437 H 0.31956 0.74352 0.48838 0.0
H1438 H 0.33188 0.73025 0.50456 0.0
H1439 H 0.34348 0.74593 0.49016 0.0
C1440 C 0.17819 0.37332 0.27362 0.0
C1441 C 0.18458 0.3623 0.28758 0.0
C1442 C 0.16578 0.36663 0.26094 0.0
C1443 C 0.1597 0.34859 0.2624 0.0
C1444 C 0.16463 0.33818 0.27761 0.0
C1445 C 0.17707 0.34515 0.28996 0.0
C1446 C 0.16055 0.37828 0.24514 0.0
C1447 C 0.15825 0.31899 0.2799 0.0
C1448 C 0.12546 0.32489 0.23257 0.0
C1449 C 0.13697 0.31483 0.22148 0.0
C1450 C 0.13252 0.33713 0.24524 0.0
C1451 C 0.15144 0.33928 0.24668 0.0
C1452 C 0.16293 0.33024 0.23442 0.0
C1453 C 0.15555 0.3181 0.22204 0.0
C1454 C 0.11982 0.34672 0.25787 0.0
C1455 C 0.18317 0.33228 0.23524 0.0
H1456 H 0.18387 0.38665 0.27178 0.0
H1457 H 0.18173 0.3367 0.30093 0.0
H1458 H 0.16888 0.37454 0.2333 0.0
H1459 H 0.14622 0.37619 0.24144 0.0
H1460 H 0.16278 0.3928 0.24802 0.0
H1461 H 0.16122 0.31367 0.29358 0.0
H1462 H 0.14355 0.318 0.27748 0.0
H1463 H 0.1651 0.31026 0.26988 0.0
H1464 H 0.11107 0.32244 0.23213 0.0
H1465 H 0.16447 0.31057 0.21326 0.0
H1466 H 0.12438 0.36072 0.26048 0.0
H1467 H 0.11955 0.33953 0.27097 0.0
H1468 H 0.10587 0.34707 0.25245 0.0
H1469 H 0.18696 0.34674 0.23544 0.0
H1470 H 0.19001 0.32573 0.22365 0.0
H1471 H 0.18831 0.32609 0.24785 0.0
C1472 C 0.12075 0.68266 0.77507 0.0
C1473 C 0.13295 0.69234 0.78577 0.0
C1474 C 0.12689 0.66899 0.76343 0.0
C1475 C 0.14555 0.66498 0.76271 0.0
C1476 C 0.15752 0.67354 0.77485 0.0
C1477 C 0.15108 0.68719 0.78612 0.0
C1478 C 0.11366 0.66 0.75091 0.0
C1479 C 0.17748 0.66948 0.77483 0.0
C1480 C 0.16988 0.62821 0.737 0.0
C1481 C 0.17747 0.63843 0.72305 0.0
C1482 C 0.15783 0.63618 0.7493 0.0
C1483 C 0.15334 0.65464 0.7474 0.0
C1484 C 0.15949 0.66432 0.73215 0.0
C1485 C 0.17157 0.65612 0.72025 0.0
C1486 C 0.15131 0.62531 0.76517 0.0
C1487 C 0.1548 0.68393 0.72935 0.0
H1488 H 0.10669 0.6866 0.77485 0.0
H1489 H 0.16047 0.69446 0.79463 0.0
H1490 H 0.11424 0.66665 0.73754 0.0
H1491 H 0.11704 0.64557 0.74896 0.0
H1492 H 0.09964 0.66107 0.75605 0.0
H1493 H 0.1845 0.67563 0.78653 0.0
H1494 H 0.17985 0.65473 0.77508 0.0
H1495 H 0.18364 0.67486 0.76231 0.0
H1496 H 0.17438 0.61448 0.73912 0.0
H1497 H 0.17721 0.66393 0.70926 0.0
H1498 H 0.13723 0.62886 0.76871 0.0
H1499 H 0.15988 0.62832 0.77705 0.0
H1500 H 0.1521 0.61061 0.76246 0.0
H1501 H 0.14015 0.68617 0.73129 0.0
H1502 H 0.1586 0.68873 0.71569 0.0
H1503 H 0.16204 0.69227 0.73943 0.0
C1504 C 0.81948 0.62417 0.26863 0.0
C1505 C 0.81074 0.63543 0.28101 0.0
C1506 C 0.83222 0.63126 0.25648 0.0
C1507 C 0.83631 0.64991 0.257 0.0
C1508 C 0.82871 0.66086 0.27065 0.0
C1509 C 0.81591 0.65351 0.28235 0.0
C1510 C 0.84013 0.61911 0.24225 0.0
C1511 C 0.83291 0.68074 0.27198 0.0
C1512 C 0.87187 0.67589 0.23119 0.0
C1513 C 0.86094 0.68488 0.2187 0.0
C1514 C 0.86444 0.66293 0.24289 0.0
C1515 C 0.8458 0.65889 0.24179 0.0
C1516 C 0.83531 0.66655 0.22782 0.0
C1517 C 0.84297 0.6796 0.21659 0.0
C1518 C 0.87613 0.65492 0.25745 0.0
C1519 C 0.81548 0.66237 0.22585 0.0
H1520 H 0.8155 0.61015 0.26762 0.0
H1521 H 0.80936 0.66216 0.29214 0.0
H1522 H 0.83261 0.62098 0.22947 0.0
H1523 H 0.85445 0.6225 0.23963 0.0
H1524 H 0.83917 0.60469 0.24617 0.0
H1525 H 0.82766 0.68679 0.28462 0.0
H1526 H 0.84766 0.68304 0.27137 0.0
H1527 H 0.82673 0.68793 0.26041 0.0
H1528 H 0.8858 0.67999 0.2328 0.0
H1529 H 0.8346 0.6864 0.20673 0.0
H1530 H 0.87266 0.64059 0.25986 0.0
H1531 H 0.87385 0.66235 0.27022 0.0
H1532 H 0.89066 0.65591 0.254 0.0
H1533 H 0.81308 0.64765 0.22679 0.0
H1534 H 0.80997 0.6673 0.21284 0.0
H1535 H 0.8079 0.66892 0.23695 0.0
C1536 C 0.87088 0.32767 0.77887 0.0
C1537 C 0.86891 0.31009 0.77226 0.0
C1538 C 0.8618 0.34215 0.77064 0.0
C1539 C 0.85068 0.33884 0.75548 0.0
C1540 C 0.85012 0.32138 0.74782 0.0
C1541 C 0.85916 0.30722 0.75637 0.0
C1542 C 0.86294 0.36061 0.77906 0.0
C1543 C 0.83871 0.31725 0.73147 0.0
C1544 C 0.80552 0.3605 0.7478 0.0
C1545 C 0.80863 0.37027 0.73197 0.0
C1546 C 0.8196 0.35163 0.75666 0.0
C1547 C 0.83722 0.35238 0.74938 0.0
C1548 C 0.84074 0.36362 0.73435 0.0
C1549 C 0.82634 0.37253 0.72581 0.0
C1550 C 0.81524 0.34009 0.77285 0.0
C1551 C 0.85937 0.36501 0.72635 0.0
H1552 H 0.87847 0.32993 0.79114 0.0
H1553 H 0.85787 0.29367 0.75105 0.0
H1554 H 0.86326 0.37129 0.7686 0.0
H1555 H 0.85084 0.36292 0.78752 0.0
H1556 H 0.87505 0.36195 0.78776 0.0
H1557 H 0.84145 0.30361 0.72597 0.0
H1558 H 0.82424 0.31801 0.73518 0.0
H1559 H 0.84114 0.32731 0.7207 0.0
H1560 H 0.79186 0.35899 0.75277 0.0
H1561 H 0.8288 0.38015 0.71359 0.0
H1562 H 0.82517 0.3424 0.78378 0.0
H1563 H 0.816 0.32565 0.76902 0.0
H1564 H 0.80153 0.34282 0.7782 0.0
H1565 H 0.8698 0.3654 0.73705 0.0
H1566 H 0.86077 0.37717 0.71773 0.0
H1567 H 0.862 0.35296 0.7179 0.0
C1568 C 0.27629 0.18338 0.34947 0.0
C1569 C 0.27812 0.18747 0.36778 0.0
C1570 C 0.26394 0.17048 0.34356 0.0
C1571 C 0.25286 0.16156 0.35628 0.0
C1572 C 0.25541 0.16477 0.37493 0.0
C1573 C 0.26816 0.1777 0.38051 0.0
C1574 C 0.26196 0.1673 0.32353 0.0
C1575 C 0.24396 0.15549 0.38891 0.0
C1576 C 0.20931 0.15284 0.33241 0.0
C1577 C 0.21234 0.13557 0.32549 0.0
C1578 C 0.22142 0.16068 0.34453 0.0
C1579 C 0.23717 0.15112 0.34949 0.0
C1580 C 0.23924 0.13291 0.34411 0.0
C1581 C 0.22667 0.12526 0.33215 0.0
C1582 C 0.2184 0.17997 0.35027 0.0
C1583 C 0.25568 0.12218 0.34934 0.0
H1584 H 0.28426 0.19068 0.33962 0.0
H1585 H 0.26963 0.1808 0.39471 0.0
H1586 H 0.26222 0.15266 0.32052 0.0
H1587 H 0.24879 0.17264 0.31888 0.0
H1588 H 0.27279 0.17396 0.31563 0.0
H1589 H 0.25037 0.15589 0.40242 0.0
H1590 H 0.23074 0.16242 0.38982 0.0
H1591 H 0.24136 0.14125 0.38518 0.0
H1592 H 0.19803 0.1607 0.32743 0.0
H1593 H 0.22896 0.11185 0.32682 0.0
H1594 H 0.22748 0.18894 0.34247 0.0
H1595 H 0.22161 0.18174 0.36475 0.0
H1596 H 0.20429 0.18436 0.34789 0.0
H1597 H 0.26707 0.12598 0.34044 0.0
H1598 H 0.25331 0.10747 0.3479 0.0
H1599 H 0.25974 0.1251 0.36342 0.0
C1600 C 0.32775 0.77962 0.87862 0.0
C1601 C 0.31012 0.77285 0.87829 0.0
C1602 C 0.34167 0.77068 0.86937 0.0
C1603 C 0.33775 0.75463 0.85981 0.0
C1604 C 0.32045 0.74673 0.86133 0.0
C1605 C 0.3068 0.75603 0.87043 0.0
C1606 C 0.36001 0.77938 0.86833 0.0
C1607 C 0.31577 0.72942 0.85172 0.0
C1608 C 0.35528 0.74607 0.81303 0.0
C1609 C 0.36653 0.73119 0.81572 0.0
C1610 C 0.34706 0.75478 0.82755 0.0
C1611 C 0.34993 0.74824 0.84525 0.0
C1612 C 0.36237 0.73405 0.84819 0.0
C1613 C 0.37065 0.72569 0.83331 0.0
C1614 C 0.33419 0.7701 0.82375 0.0
C1615 C 0.3659 0.72678 0.86683 0.0
H1616 H 0.33038 0.7926 0.88479 0.0
H1617 H 0.29322 0.75063 0.87045 0.0
H1618 H 0.37086 0.7691 0.86863 0.0
H1619 H 0.36118 0.78684 0.85543 0.0
H1620 H 0.36215 0.78906 0.87954 0.0
H1621 H 0.30281 0.72367 0.85653 0.0
H1622 H 0.31457 0.73207 0.83705 0.0
H1623 H 0.32653 0.71924 0.85363 0.0
H1624 H 0.35232 0.75049 0.79942 0.0
H1625 H 0.37938 0.71416 0.83538 0.0
H1626 H 0.33705 0.78169 0.83273 0.0
H1627 H 0.32017 0.76564 0.82644 0.0
H1628 H 0.33499 0.77478 0.80955 0.0
H1629 H 0.36631 0.73779 0.87693 0.0
H1630 H 0.37876 0.71916 0.86742 0.0
H1631 H 0.35481 0.71752 0.87067 0.0
C1632 C 0.72419 0.82752 0.38514 0.0
C1633 C 0.73149 0.81032 0.38233 0.0
C1634 C 0.73155 0.84266 0.37644 0.0
C1635 C 0.74642 0.84039 0.3647 0.0
C1636 C 0.75508 0.82342 0.36364 0.0
C1637 C 0.74749 0.80859 0.37247 0.0
C1638 C 0.72232 0.86065 0.37841 0.0
C1639 C 0.77117 0.8204 0.35155 0.0
C1640 C 0.74846 0.86216 0.319 0.0
C1641 C 0.76383 0.87299 0.32056 0.0
C1642 C 0.74169 0.85269 0.33381 0.0
C1643 C 0.75052 0.85409 0.35066 0.0
C1644 C 0.76498 0.86638 0.35276 0.0
C1645 C 0.77152 0.87572 0.3376 0.0
C1646 C 0.72607 0.83993 0.33094 0.0
C1647 C 0.77445 0.86864 0.37059 0.0
H1648 H 0.71191 0.82897 0.39292 0.0
H1649 H 0.7534 0.79537 0.37058 0.0
H1650 H 0.73224 0.87184 0.37826 0.0
H1651 H 0.71297 0.86269 0.36693 0.0
H1652 H 0.71436 0.86136 0.39107 0.0
H1653 H 0.77771 0.80718 0.35408 0.0
H1654 H 0.76679 0.82083 0.33726 0.0
H1655 H 0.78132 0.83119 0.3535 0.0
H1656 H 0.74226 0.86028 0.3059 0.0
H1657 H 0.78335 0.88419 0.3389 0.0
H1658 H 0.71566 0.84195 0.34146 0.0
H1659 H 0.73089 0.82581 0.33199 0.0
H1660 H 0.71967 0.84173 0.31753 0.0
H1661 H 0.76485 0.8676 0.382 0.0
H1662 H 0.78154 0.8818 0.37137 0.0
H1663 H 0.78462 0.8578 0.37217 0.0
C1664 C 0.68577 0.25024 0.85986 0.0
C1665 C 0.68265 0.23445 0.86969 0.0
C1666 C 0.67201 0.25829 0.8498 0.0
C1667 C 0.65474 0.25019 0.84937 0.0
C1668 C 0.65106 0.23521 0.86063 0.0
C1669 C 0.66512 0.22751 0.87077 0.0
C1670 C 0.67649 0.27446 0.83827 0.0
C1671 C 0.63278 0.22634 0.86075 0.0
C1672 C 0.62149 0.27716 0.82133 0.0
C1673 C 0.62511 0.2702 0.80416 0.0
C1674 C 0.62997 0.26989 0.83667 0.0
C1675 C 0.64214 0.25531 0.83464 0.0
C1676 C 0.64448 0.24729 0.8175 0.0
C1677 C 0.63603 0.25491 0.80248 0.0
C1678 C 0.62698 0.2787 0.85473 0.0
C1679 C 0.65707 0.23153 0.8147 0.0
H1680 H 0.69927 0.2558 0.85925 0.0
H1681 H 0.66267 0.21531 0.87843 0.0
H1682 H 0.67717 0.2703 0.82393 0.0
H1683 H 0.66585 0.28489 0.83946 0.0
H1684 H 0.68963 0.28058 0.84202 0.0
H1685 H 0.63086 0.21783 0.87291 0.0
H1686 H 0.62186 0.23653 0.86016 0.0
H1687 H 0.63148 0.2176 0.84869 0.0
H1688 H 0.613 0.28897 0.82266 0.0
H1689 H 0.6386 0.24932 0.78923 0.0
H1690 H 0.63847 0.28779 0.85774 0.0
H1691 H 0.62631 0.26849 0.86563 0.0
H1692 H 0.61442 0.28683 0.85489 0.0
H1693 H 0.6712 0.23605 0.81653 0.0
H1694 H 0.65575 0.2256 0.80103 0.0
H1695 H 0.65441 0.22084 0.8248 0.0
C1696 C 0.24994 0.80419 0.6277 0.0
C1697 C 0.26577 0.80509 0.61747 0.0
C1698 C 0.24341 0.81934 0.63682 0.0
C1699 C 0.25301 0.83579 0.63574 0.0
C1700 C 0.26783 0.83729 0.62381 0.0
C1701 C 0.27408 0.82185 0.61476 0.0
C1702 C 0.22734 0.81716 0.64912 0.0
C1703 C 0.27814 0.8547 0.62193 0.0
C1704 C 0.23036 0.87279 0.66284 0.0
C1705 C 0.23795 0.86966 0.67985 0.0
C1706 C 0.23614 0.8629 0.64772 0.0
C1707 C 0.24977 0.84969 0.64981 0.0
C1708 C 0.25855 0.84777 0.66665 0.0
C1709 C 0.2525 0.85775 0.68143 0.0
C1710 C 0.2267 0.86562 0.62994 0.0
C1711 C 0.27333 0.83405 0.66949 0.0
H1712 H 0.24328 0.79131 0.62955 0.0
H1713 H 0.28626 0.82265 0.60673 0.0
H1714 H 0.23195 0.81717 0.66334 0.0
H1715 H 0.21783 0.82857 0.64744 0.0
H1716 H 0.21998 0.80438 0.64656 0.0
H1717 H 0.28613 0.85501 0.60927 0.0
H1718 H 0.26892 0.86646 0.62215 0.0
H1719 H 0.28759 0.8561 0.63343 0.0
H1720 H 0.21915 0.88207 0.66155 0.0
H1721 H 0.25862 0.85553 0.69451 0.0
H1722 H 0.21615 0.85517 0.62831 0.0
H1723 H 0.23624 0.86429 0.6185 0.0
H1724 H 0.22011 0.87904 0.62923 0.0
H1725 H 0.26758 0.82027 0.6686 0.0
H1726 H 0.27994 0.83553 0.68284 0.0
H1727 H 0.28375 0.8353 0.65886 0.0
C1728 C 0.67763 0.77153 0.11749 0.0
C1729 C 0.6904 0.77877 0.12938 0.0
C1730 C 0.66449 0.7593 0.1237 0.0
C1731 C 0.66412 0.75451 0.14218 0.0
C1732 C 0.67645 0.7626 0.15429 0.0
C1733 C 0.68948 0.77447 0.14771 0.0
C1734 C 0.65168 0.75089 0.11035 0.0
C1735 C 0.67639 0.75819 0.17419 0.0
C1736 C 0.62788 0.73205 0.16966 0.0
C1737 C 0.63645 0.71569 0.17351 0.0
C1738 C 0.63567 0.74436 0.15755 0.0
C1739 C 0.6522 0.73995 0.14907 0.0
C1740 C 0.65944 0.72243 0.1511 0.0
C1741 C 0.6516 0.71057 0.1635 0.0
C1742 C 0.62739 0.76281 0.15558 0.0
C1743 C 0.67674 0.71695 0.14191 0.0
H1744 H 0.67832 0.77488 0.10329 0.0
H1745 H 0.69914 0.78029 0.157 0.0
H1746 H 0.65635 0.73708 0.10709 0.0
H1747 H 0.63792 0.74975 0.11608 0.0
H1748 H 0.651 0.75874 0.09763 0.0
H1749 H 0.68596 0.76669 0.18194 0.0
H1750 H 0.6627 0.76009 0.17988 0.0
H1751 H 0.68017 0.74386 0.17619 0.0
H1752 H 0.6161 0.73599 0.17736 0.0
H1753 H 0.65806 0.69776 0.16627 0.0
H1754 H 0.62866 0.76781 0.14156 0.0
H1755 H 0.63461 0.7724 0.1645 0.0
H1756 H 0.61293 0.76279 0.15945 0.0
H1757 H 0.67698 0.72175 0.12776 0.0
H1758 H 0.67862 0.7021 0.14201 0.0
H1759 H 0.68832 0.72319 0.14903 0.0
C1760 C 0.77873 0.12227 0.6733 0.0
C1761 C 0.77154 0.12547 0.69046 0.0
C1762 C 0.77113 0.13051 0.658 0.0
C1763 C 0.75602 0.14201 0.66007 0.0
C1764 C 0.74773 0.14371 0.67717 0.0
C1765 C 0.75568 0.13552 0.69215 0.0
C1766 C 0.78018 0.12813 0.63997 0.0
C1767 C 0.73142 0.15557 0.68001 0.0
C1768 C 0.75024 0.18633 0.6364 0.0
C1769 C 0.73463 0.18322 0.62628 0.0
C1770 C 0.75851 0.1724 0.646 0.0
C1771 C 0.75081 0.15494 0.64568 0.0
C1772 C 0.73606 0.15134 0.6341 0.0
C1773 C 0.72812 0.1656 0.62442 0.0
C1774 C 0.77444 0.17683 0.65788 0.0
C1775 C 0.72766 0.13287 0.63314 0.0
H1776 H 0.79096 0.1144 0.67198 0.0
H1777 H 0.74991 0.13771 0.70539 0.0
H1778 H 0.77011 0.12753 0.62893 0.0
H1779 H 0.78911 0.13983 0.63735 0.0
H1780 H 0.78853 0.11571 0.63962 0.0
H1781 H 0.72533 0.15363 0.69354 0.0
H1782 H 0.7354 0.16992 0.67865 0.0
H1783 H 0.72101 0.15276 0.66967 0.0
H1784 H 0.75547 0.19992 0.63757 0.0
H1785 H 0.71608 0.16318 0.61651 0.0
H1786 H 0.78518 0.16656 0.65635 0.0
H1787 H 0.77013 0.17677 0.6722 0.0
H1788 H 0.78022 0.19029 0.65477 0.0
H1789 H 0.73809 0.12218 0.63372 0.0
H1790 H 0.71959 0.13114 0.62066 0.0
H1791 H 0.71857 0.13098 0.64486 0.0
C1792 C 0.32185 0.22219 0.12028 0.0
C1793 C 0.30495 0.23033 0.1226 0.0
C1794 C 0.33724 0.22923 0.12882 0.0
C1795 C 0.33557 0.2447 0.13986 0.0
C1796 C 0.31891 0.25397 0.14063 0.0
C1797 C 0.30381 0.24665 0.13202 0.0
C1798 C 0.35485 0.21918 0.12732 0.0
C1799 C 0.31656 0.27068 0.15202 0.0
C1800 C 0.35903 0.24873 0.18467 0.0
C1801 C 0.37067 0.26328 0.18169 0.0
C1802 C 0.34859 0.24159 0.1707 0.0
C1803 C 0.34976 0.24925 0.15327 0.0
C1804 C 0.36264 0.26292 0.1498 0.0
C1805 C 0.37301 0.26981 0.16411 0.0
C1806 C 0.33524 0.22683 0.17501 0.0
C1807 C 0.36451 0.27122 0.13135 0.0
H1808 H 0.32286 0.20964 0.11288 0.0
H1809 H 0.29084 0.25318 0.13359 0.0
H1810 H 0.36638 0.22866 0.12653 0.0
H1811 H 0.35675 0.21073 0.1395 0.0
H1812 H 0.35508 0.21023 0.11533 0.0
H1813 H 0.30354 0.27755 0.1493 0.0
H1814 H 0.31697 0.26692 0.16648 0.0
H1815 H 0.32768 0.28034 0.14954 0.0
H1816 H 0.35739 0.24347 0.1982 0.0
H1817 H 0.38204 0.28104 0.16175 0.0
H1818 H 0.33631 0.21574 0.16506 0.0
H1819 H 0.32134 0.23229 0.17422 0.0
H1820 H 0.3373 0.22115 0.18871 0.0
H1821 H 0.36327 0.26087 0.12064 0.0
H1822 H 0.37762 0.27829 0.12979 0.0
H1823 H 0.35357 0.2812 0.1293 0.0
C1824 C 0.81292 0.63513 0.7481 0.0
C1825 C 0.81478 0.6246 0.73257 0.0
C1826 C 0.8278 0.64362 0.75591 0.0
C1827 C 0.845 0.64165 0.74788 0.0
C1828 C 0.84726 0.62961 0.73324 0.0
C1829 C 0.83203 0.62115 0.72571 0.0
C1830 C 0.82473 0.65608 0.77172 0.0
C1831 C 0.86541 0.62681 0.72456 0.0
C1832 C 0.86788 0.68641 0.75255 0.0
C1833 C 0.8772 0.68412 0.76879 0.0
C1834 C 0.85898 0.67196 0.74437 0.0
C1835 C 0.85927 0.65483 0.75276 0.0
C1836 C 0.87037 0.65199 0.76803 0.0
C1837 C 0.87928 0.66676 0.77593 0.0
C1838 C 0.84762 0.67558 0.72787 0.0
C1839 C 0.87146 0.63383 0.77706 0.0
H1840 H 0.7996 0.63752 0.75363 0.0
H1841 H 0.8335 0.61289 0.71375 0.0
H1842 H 0.83481 0.65351 0.78245 0.0
H1843 H 0.82635 0.67027 0.76729 0.0
H1844 H 0.81105 0.65451 0.77758 0.0
H1845 H 0.86596 0.61381 0.71716 0.0
H1846 H 0.86795 0.63782 0.71478 0.0
H1847 H 0.87638 0.62709 0.73471 0.0
H1848 H 0.86658 0.69979 0.74682 0.0
H1849 H 0.88662 0.66494 0.78842 0.0
H1850 H 0.83316 0.67552 0.73169 0.0
H1851 H 0.84965 0.66491 0.71763 0.0
H1852 H 0.85078 0.68883 0.72166 0.0
H1853 H 0.85965 0.63208 0.78606 0.0
H1854 H 0.88385 0.63258 0.78536 0.0
H1855 H 0.87119 0.62277 0.767 0.0
C1856 C 0.86467 0.31395 0.25601 0.0
C1857 C 0.87382 0.31687 0.23978 0.0
C1858 C 0.85533 0.32792 0.26454 0.0
C1859 C 0.85506 0.34524 0.25656 0.0
C1860 C 0.86585 0.34873 0.24121 0.0
C1861 C 0.87517 0.33444 0.23295 0.0
C1862 C 0.84426 0.32361 0.28107 0.0
C1863 C 0.86626 0.36711 0.23255 0.0
C1864 C 0.80877 0.36497 0.26268 0.0
C1865 C 0.81104 0.37539 0.27825 0.0
C1866 C 0.8234 0.35634 0.25455 0.0
C1867 C 0.84079 0.35812 0.26221 0.0
C1868 C 0.84345 0.36993 0.27696 0.0
C1869 C 0.82847 0.37848 0.28486 0.0
C1870 C 0.81993 0.34408 0.23867 0.0
C1871 C 0.86181 0.37248 0.28527 0.0
H1872 H 0.86389 0.30043 0.26151 0.0
H1873 H 0.88235 0.33678 0.22044 0.0
H1874 H 0.8462 0.33405 0.29157 0.0
H1875 H 0.82975 0.32347 0.27744 0.0
H1876 H 0.84778 0.31027 0.28689 0.0
H1877 H 0.8783 0.3688 0.22381 0.0
H1878 H 0.85407 0.36884 0.22407 0.0
H1879 H 0.86619 0.37792 0.24287 0.0
H1880 H 0.79535 0.36282 0.25732 0.0
H1881 H 0.8303 0.38664 0.29683 0.0
H1882 H 0.82172 0.32984 0.24287 0.0
H1883 H 0.82971 0.34681 0.22771 0.0
H1884 H 0.80609 0.34567 0.2332 0.0
H1885 H 0.86475 0.36098 0.29435 0.0
H1886 H 0.8625 0.38508 0.29333 0.0
H1887 H 0.87247 0.37284 0.2748 0.0
C1888 C 0.14507 0.32913 0.79141 0.0
C1889 C 0.12865 0.3206 0.78776 0.0
C1890 C 0.15222 0.34187 0.7795 0.0
C1891 C 0.14283 0.34589 0.7634 0.0
C1892 C 0.12522 0.33899 0.76078 0.0
C1893 C 0.11826 0.32637 0.7731 0.0
C1894 C 0.17084 0.34925 0.78311 0.0
C1895 C 0.11459 0.34332 0.74402 0.0
C1896 C 0.16841 0.37834 0.73307 0.0
C1897 C 0.17944 0.36619 0.72372 0.0
C1898 C 0.1553 0.37203 0.74527 0.0
C1899 C 0.15325 0.35322 0.74793 0.0
C1900 C 0.16339 0.34102 0.73733 0.0
C1901 C 0.17639 0.34767 0.72546 0.0
C1902 C 0.14462 0.38548 0.75612 0.0
C1903 C 0.16149 0.32084 0.73943 0.0
H1904 H 0.15296 0.32489 0.80296 0.0
H1905 H 0.10548 0.31986 0.77032 0.0
H1906 H 0.18073 0.34222 0.77437 0.0
H1907 H 0.17147 0.36382 0.77989 0.0
H1908 H 0.17495 0.3473 0.79737 0.0
H1909 H 0.09997 0.34081 0.74601 0.0
H1910 H 0.11658 0.35756 0.73992 0.0
H1911 H 0.11933 0.33464 0.73281 0.0
H1912 H 0.17071 0.3927 0.73166 0.0
H1913 H 0.18468 0.33826 0.71796 0.0
H1914 H 0.15127 0.3875 0.76935 0.0
H1915 H 0.13073 0.3806 0.75868 0.0
H1916 H 0.14392 0.39874 0.74921 0.0
H1917 H 0.16657 0.3167 0.75287 0.0
H1918 H 0.16913 0.3133 0.729 0.0
H1919 H 0.14712 0.31683 0.73859 0.0
C1920 C 0.19019 0.63982 0.25758 0.0
C1921 C 0.1878 0.62934 0.27308 0.0
C1922 C 0.17571 0.64889 0.24962 0.0
C1923 C 0.15837 0.64761 0.25748 0.0
C1924 C 0.15557 0.63593 0.27232 0.0
C1925 C 0.17038 0.62683 0.27995 0.0
C1926 C 0.1793 0.66095 0.23361 0.0
C1927 C 0.13728 0.63407 0.28098 0.0
C1928 C 0.13494 0.69207 0.25083 0.0
C1929 C 0.1251 0.68886 0.23506 0.0
C1930 C 0.14443 0.67818 0.25936 0.0
C1931 C 0.14427 0.66068 0.25177 0.0
C1932 C 0.13301 0.65699 0.2368 0.0
C1933 C 0.12345 0.67119 0.22861 0.0
C1934 C 0.15598 0.68269 0.2755 0.0
C1935 C 0.13229 0.63849 0.22844 0.0
H1936 H 0.20361 0.64156 0.25206 0.0
H1937 H 0.16848 0.61869 0.29193 0.0
H1938 H 0.16924 0.65849 0.22284 0.0
H1939 H 0.17806 0.67526 0.23776 0.0
H1940 H 0.19299 0.65886 0.22792 0.0
H1941 H 0.13644 0.62182 0.28954 0.0
H1942 H 0.13469 0.646 0.28961 0.0
H1943 H 0.12649 0.63354 0.27066 0.0
H1944 H 0.136 0.70569 0.25601 0.0
H1945 H 0.1158 0.66866 0.21643 0.0
H1946 H 0.17038 0.68266 0.27147 0.0
H1947 H 0.15427 0.67243 0.28622 0.0
H1948 H 0.15271 0.69615 0.28118 0.0
H1949 H 0.14446 0.63642 0.22 0.0
H1950 H 0.12022 0.63681 0.21976 0.0
H1951 H 0.13223 0.62786 0.23895 0.0
C1952 C 0.75195 0.85996 0.69516 0.0
C1953 C 0.76818 0.86903 0.69197 0.0
C1954 C 0.74306 0.85078 0.6813 0.0
C1955 C 0.75078 0.85041 0.66386 0.0
C1956 C 0.7663 0.86091 0.66018 0.0
C1957 C 0.77482 0.87023 0.67433 0.0
C1958 C 0.72634 0.84008 0.68579 0.0
C1959 C 0.77483 0.86102 0.64174 0.0
C1960 C 0.74324 0.8045 0.6436 0.0
C1961 C 0.72807 0.80742 0.63277 0.0
C1962 C 0.75166 0.81874 0.6526 0.0
C1963 C 0.74458 0.83638 0.65095 0.0
C1964 C 0.73005 0.83965 0.63899 0.0
C1965 C 0.72197 0.82506 0.62992 0.0
C1966 C 0.76733 0.81463 0.66494 0.0
C1967 C 0.72219 0.85826 0.63678 0.0
H1968 H 0.74664 0.85928 0.70876 0.0
H1969 H 0.78735 0.8773 0.67183 0.0
H1970 H 0.71583 0.84212 0.67536 0.0
H1971 H 0.72969 0.82551 0.68605 0.0
H1972 H 0.72066 0.84385 0.69911 0.0
H1973 H 0.78412 0.87263 0.64002 0.0
H1974 H 0.78268 0.84843 0.63988 0.0
H1975 H 0.76442 0.86149 0.63103 0.0
H1976 H 0.74816 0.79088 0.64558 0.0
H1977 H 0.71026 0.82735 0.6215 0.0
H1978 H 0.76304 0.81627 0.67917 0.0
H1979 H 0.77857 0.82417 0.66249 0.0
H1980 H 0.77244 0.80068 0.66315 0.0
H1981 H 0.71348 0.86136 0.64853 0.0
H1982 H 0.71387 0.85931 0.62438 0.0
H1983 H 0.73296 0.86861 0.63629 0.0
C1984 C 0.65478 0.28226 0.17858 0.0
C1985 C 0.63637 0.28289 0.18255 0.0
C1986 C 0.66158 0.27007 0.16595 0.0
C1987 C 0.64968 0.25792 0.15728 0.0
C1988 C 0.63086 0.25946 0.16016 0.0
C1989 C 0.62437 0.27208 0.17277 0.0
C1990 C 0.68172 0.26921 0.16306 0.0
C1991 C 0.61772 0.2469 0.15109 0.0
C1992 C 0.6755 0.23076 0.1228 0.0
C1993 C 0.68257 0.21727 0.13395 0.0
C1994 C 0.66302 0.2433 0.12962 0.0
C1995 C 0.65751 0.24206 0.14786 0.0
C1996 C 0.66299 0.22709 0.15836 0.0
C1997 C 0.67562 0.215 0.15132 0.0
C1998 C 0.65728 0.25888 0.11791 0.0
C1999 C 0.65713 0.22493 0.17772 0.0
H2000 H 0.66403 0.29084 0.18596 0.0
H2001 H 0.61009 0.27258 0.17584 0.0
H2002 H 0.68713 0.25671 0.16924 0.0
H2003 H 0.68491 0.2688 0.14847 0.0
H2004 H 0.68881 0.2809 0.16915 0.0
H2005 H 0.60386 0.25258 0.15101 0.0
H2006 H 0.62186 0.24397 0.13704 0.0
H2007 H 0.61738 0.23394 0.15853 0.0
H2008 H 0.68088 0.23249 0.10933 0.0
H2009 H 0.68095 0.20439 0.15985 0.0
H2010 H 0.66576 0.27079 0.12107 0.0
H2011 H 0.64305 0.26262 0.12051 0.0
H2012 H 0.65892 0.25571 0.10338 0.0
H2013 H 0.66427 0.23497 0.18621 0.0
H2014 H 0.66021 0.21127 0.18301 0.0
H2015 H 0.64247 0.22742 0.17911 0.0
C2016 C 0.2826 0.1714 0.62653 0.0
C2017 C 0.27562 0.18862 0.62998 0.0
C2018 C 0.27625 0.15629 0.6361 0.0
C2019 C 0.26265 0.15858 0.6493 0.0
C2020 C 0.25469 0.17574 0.65177 0.0
C2021 C 0.2613 0.19051 0.64213 0.0
C2022 C 0.28493 0.13819 0.63292 0.0
C2023 C 0.23997 0.17881 0.66551 0.0
C2024 C 0.23542 0.12339 0.67409 0.0
C2025 C 0.2432 0.12458 0.69127 0.0
C2026 C 0.24273 0.13302 0.6595 0.0
C2027 C 0.25811 0.14397 0.66226 0.0
C2028 C 0.26711 0.14351 0.67907 0.0
C2029 C 0.2595 0.13386 0.69339 0.0
C2030 C 0.23295 0.13286 0.64168 0.0
C2031 C 0.28374 0.15471 0.68254 0.0
H2032 H 0.29365 0.16987 0.6171 0.0
H2033 H 0.25567 0.20376 0.64464 0.0
H2034 H 0.29487 0.13551 0.64375 0.0
H2035 H 0.27477 0.12723 0.63328 0.0
H2036 H 0.2921 0.13774 0.61979 0.0
H2037 H 0.23419 0.19259 0.66466 0.0
H2038 H 0.22894 0.16891 0.66363 0.0
H2039 H 0.24548 0.17686 0.67927 0.0
H2040 H 0.22288 0.11611 0.67233 0.0
H2041 H 0.26574 0.13456 0.70658 0.0
H2042 H 0.2426 0.13294 0.63027 0.0
H2043 H 0.22452 0.14517 0.64058 0.0
H2044 H 0.224 0.12093 0.64041 0.0
H2045 H 0.29347 0.15335 0.67128 0.0
H2046 H 0.29058 0.15081 0.69528 0.0
H2047 H 0.2799 0.16913 0.68349 0.0
C2048 C 0.33102 0.76636 0.12428 0.0
C2049 C 0.31359 0.75994 0.12769 0.0
C2050 C 0.34603 0.75849 0.13282 0.0
C2051 C 0.34336 0.74392 0.14487 0.0
C2052 C 0.32597 0.73631 0.14679 0.0
C2053 C 0.31131 0.74448 0.13825 0.0
C2054 C 0.36439 0.76675 0.13012 0.0
C2055 C 0.32249 0.72058 0.15924 0.0
C2056 C 0.3775 0.71554 0.16996 0.0
C2057 C 0.37571 0.72283 0.18729 0.0
C2058 C 0.36843 0.72336 0.15526 0.0
C2059 C 0.35748 0.73874 0.1581 0.0
C2060 C 0.35734 0.74718 0.17521 0.0
C2061 C 0.36638 0.73906 0.18959 0.0
C2062 C 0.36925 0.7142 0.13714 0.0
C2063 C 0.34613 0.76379 0.17883 0.0
H2064 H 0.33282 0.77827 0.116 0.0
H2065 H 0.29785 0.73929 0.14061 0.0
H2066 H 0.36723 0.77622 0.14133 0.0
H2067 H 0.37508 0.75629 0.13017 0.0
H2068 H 0.36512 0.7744 0.11727 0.0
H2069 H 0.30872 0.71495 0.15753 0.0
H2070 H 0.33241 0.70967 0.15683 0.0
H2071 H 0.32401 0.72503 0.17343 0.0
H2072 H 0.38483 0.70304 0.16813 0.0
H2073 H 0.36529 0.7449 0.20294 0.0
H2074 H 0.3691 0.7242 0.12604 0.0
H2075 H 0.35727 0.7054 0.13552 0.0
H2076 H 0.38149 0.70568 0.13587 0.0
H2077 H 0.34826 0.77402 0.16816 0.0
H2078 H 0.34936 0.76998 0.19208 0.0
H2079 H 0.33163 0.76012 0.17877 0.0
C2080 C 0.72595 0.16774 0.36541 0.0
C2081 C 0.73237 0.18546 0.36414 0.0
C2082 C 0.73452 0.15367 0.35601 0.0
C2083 C 0.74985 0.15752 0.3453 0.0
C2084 C 0.75722 0.17512 0.34533 0.0
C2085 C 0.74833 0.18887 0.35466 0.0
C2086 C 0.72637 0.13506 0.35647 0.0
C2087 C 0.7737 0.1798 0.33433 0.0
C2088 C 0.78048 0.12415 0.3216 0.0
C2089 C 0.77468 0.12624 0.30374 0.0
C2090 C 0.77162 0.13314 0.33575 0.0
C2091 C 0.75663 0.1443 0.33184 0.0
C2092 C 0.74981 0.14506 0.31404 0.0
C2093 C 0.75898 0.1361 0.30022 0.0
C2094 C 0.77918 0.13183 0.35456 0.0
C2095 C 0.7337 0.15655 0.30929 0.0
H2096 H 0.71363 0.16506 0.37278 0.0
H2097 H 0.75349 0.20252 0.3539 0.0
H2098 H 0.7186 0.13277 0.34391 0.0
H2099 H 0.737 0.12458 0.35716 0.0
H2100 H 0.7171 0.13335 0.3681 0.0
H2101 H 0.77888 0.19349 0.33746 0.0
H2102 H 0.78461 0.16989 0.33677 0.0
H2103 H 0.77029 0.17928 0.31978 0.0
H2104 H 0.79259 0.11647 0.32438 0.0
H2105 H 0.75428 0.1375 0.28646 0.0
H2106 H 0.76821 0.13094 0.36468 0.0
H2107 H 0.7871 0.14415 0.35757 0.0
H2108 H 0.78818 0.11997 0.35611 0.0
H2109 H 0.72248 0.15408 0.31884 0.0
H2110 H 0.7288 0.15393 0.29539 0.0
H2111 H 0.73741 0.17101 0.31032 0.0
C2112 C 0.32567 0.22069 0.87186 0.0
C2113 C 0.30784 0.22548 0.86792 0.0
C2114 C 0.34014 0.2291 0.86289 0.0
C2115 C 0.33654 0.24268 0.84995 0.0
C2116 C 0.31859 0.24846 0.84708 0.0
C2117 C 0.30449 0.23969 0.85598 0.0
C2118 C 0.35907 0.22258 0.86635 0.0
C2119 C 0.3141 0.26311 0.83367 0.0
C2120 C 0.36945 0.27415 0.8269 0.0
C2121 C 0.36958 0.26675 0.80953 0.0
C2122 C 0.36003 0.26559 0.84095 0.0
C2123 C 0.35081 0.24923 0.83747 0.0
C2124 C 0.35261 0.24084 0.82044 0.0
C2125 C 0.36182 0.2498 0.80663 0.0
C2126 C 0.35856 0.2749 0.85895 0.0
C2127 C 0.34334 0.22322 0.81622 0.0
H2128 H 0.32828 0.20969 0.88112 0.0
H2129 H 0.29069 0.24359 0.85313 0.0
H2130 H 0.3633 0.21358 0.85519 0.0
H2131 H 0.36868 0.23402 0.8668 0.0
H2132 H 0.36004 0.21492 0.87918 0.0
H2133 H 0.29976 0.26734 0.83448 0.0
H2134 H 0.32273 0.2751 0.83594 0.0
H2135 H 0.31676 0.25819 0.81981 0.0
H2136 H 0.37548 0.28726 0.82917 0.0
H2137 H 0.36215 0.24393 0.79325 0.0
H2138 H 0.35923 0.26504 0.87016 0.0
H2139 H 0.34535 0.28185 0.85982 0.0
H2140 H 0.36936 0.2851 0.86079 0.0
H2141 H 0.34542 0.21339 0.82727 0.0
H2142 H 0.34829 0.2172 0.80344 0.0
H2143 H 0.32862 0.22554 0.81493 0.0
C2144 C 0.25452 0.80731 0.3604 0.0
C2145 C 0.27131 0.81045 0.36839 0.0
C2146 C 0.24536 0.82107 0.35133 0.0
C2147 C 0.2534 0.83831 0.3499 0.0
C2148 C 0.26956 0.842 0.35939 0.0
C2149 C 0.27833 0.82797 0.36866 0.0
C2150 C 0.22796 0.81659 0.34177 0.0
C2151 C 0.27846 0.86024 0.35836 0.0
C2152 C 0.2441 0.85673 0.30358 0.0
C2153 C 0.22931 0.86802 0.30672 0.0
C2154 C 0.253 0.84817 0.3178 0.0
C2155 C 0.24682 0.85076 0.33565 0.0
C2156 C 0.23271 0.86318 0.33906 0.0
C2157 C 0.22412 0.87178 0.32448 0.0
C2158 C 0.26818 0.83529 0.3135 0.0
C2159 C 0.22583 0.86642 0.3579 0.0
H2160 H 0.24894 0.7938 0.36046 0.0
H2161 H 0.29131 0.83042 0.3749 0.0
H2162 H 0.21783 0.82736 0.34393 0.0
H2163 H 0.23048 0.81563 0.32706 0.0
H2164 H 0.22219 0.80358 0.3464 0.0
H2165 H 0.28836 0.86218 0.36942 0.0
H2166 H 0.2857 0.86146 0.34534 0.0
H2167 H 0.26831 0.8712 0.35894 0.0
H2168 H 0.24834 0.85406 0.28986 0.0
H2169 H 0.21271 0.88057 0.32693 0.0
H2170 H 0.26368 0.82125 0.31601 0.0
H2171 H 0.27994 0.83792 0.32234 0.0
H2172 H 0.27262 0.83633 0.29925 0.0
H2173 H 0.21692 0.8551 0.3619 0.0
H2174 H 0.21796 0.87912 0.3588 0.0
H2175 H 0.2371 0.86698 0.36771 0.0
C2176 C 0.62306 0.72494 0.82801 0.0
C2177 C 0.62427 0.73175 0.81044 0.0
C2178 C 0.63245 0.73327 0.84223 0.0
C2179 C 0.64307 0.74874 0.83866 0.0
C2180 C 0.64255 0.75673 0.82135 0.0
C2181 C 0.63326 0.74806 0.80743 0.0
C2182 C 0.6324 0.72451 0.86056 0.0
C2183 C 0.65336 0.77342 0.81699 0.0
C2184 C 0.66997 0.77635 0.87237 0.0
C2185 C 0.68737 0.76983 0.86898 0.0
C2186 C 0.65494 0.76877 0.86359 0.0
C2187 C 0.65753 0.75435 0.85135 0.0
C2188 C 0.67493 0.74682 0.84915 0.0
C2189 C 0.68961 0.75473 0.8579 0.0
C2190 C 0.63661 0.77705 0.86643 0.0
C2191 C 0.67833 0.73125 0.83648 0.0
H2192 H 0.61603 0.71236 0.83039 0.0
H2193 H 0.63394 0.75351 0.79389 0.0
H2194 H 0.6448 0.7163 0.86212 0.0
H2195 H 0.63236 0.73478 0.87141 0.0
H2196 H 0.62057 0.7155 0.86232 0.0
H2197 H 0.64941 0.7794 0.80385 0.0
H2198 H 0.65166 0.78374 0.82765 0.0
H2199 H 0.66789 0.76989 0.81637 0.0
H2200 H 0.66821 0.78801 0.88099 0.0
H2201 H 0.70303 0.74948 0.85551 0.0
H2202 H 0.62595 0.76656 0.86671 0.0
H2203 H 0.63357 0.78629 0.85509 0.0
H2204 H 0.63603 0.78492 0.87915 0.0
H2205 H 0.66863 0.72018 0.83907 0.0
H2206 H 0.69221 0.72582 0.83778 0.0
H2207 H 0.67635 0.73578 0.82236 0.0
C2208 C 0.09491 0.21294 0.22927 0.0
C2209 C 0.10982 0.22265 0.22292 0.0
C2210 C 0.09727 0.19733 0.23977 0.0
C2211 C 0.11492 0.19092 0.24316 0.0
C2212 C 0.12998 0.20085 0.23688 0.0
C2213 C 0.12722 0.21677 0.22716 0.0
C2214 C 0.08088 0.18758 0.24682 0.0
C2215 C 0.14906 0.1943 0.23975 0.0
C2216 C 0.13203 0.15751 0.27729 0.0
C2217 C 0.13497 0.14244 0.26629 0.0
C2218 C 0.12325 0.17284 0.27053 0.0
C2219 C 0.11805 0.1733 0.25219 0.0
C2220 C 0.11936 0.15748 0.24162 0.0
C2221 C 0.12753 0.1421 0.24893 0.0
C2222 C 0.12111 0.18911 0.28253 0.0
C2223 C 0.11424 0.15741 0.22193 0.0
H2224 H 0.08143 0.21757 0.22606 0.0
H2225 H 0.13875 0.22419 0.22211 0.0
H2226 H 0.07781 0.17595 0.23797 0.0
H2227 H 0.08329 0.1823 0.26061 0.0
H2228 H 0.06886 0.1965 0.24709 0.0
H2229 H 0.15921 0.20338 0.23355 0.0
H2230 H 0.15198 0.19325 0.25436 0.0
H2231 H 0.1507 0.18065 0.23386 0.0
H2232 H 0.13758 0.15773 0.2908 0.0
H2233 H 0.1298 0.13049 0.24035 0.0
H2234 H 0.10806 0.19594 0.27992 0.0
H2235 H 0.13203 0.1989 0.27964 0.0
H2236 H 0.12186 0.1854 0.29701 0.0
H2237 H 0.10081 0.1636 0.21993 0.0
H2238 H 0.11404 0.14358 0.21621 0.0
H2239 H 0.12414 0.16557 0.21423 0.0
C2240 C 0.33916 0.64977 0.77407 0.0
C2241 C 0.3536 0.65138 0.76202 0.0
C2242 C 0.32345 0.64044 0.76915 0.0
C2243 C 0.32192 0.63336 0.7515 0.0
C2244 C 0.33696 0.63391 0.73977 0.0
C2245 C 0.35277 0.64263 0.74533 0.0
C2246 C 0.30805 0.63931 0.78237 0.0
C2247 C 0.33579 0.62698 0.72067 0.0
C2248 C 0.28267 0.60542 0.734 0.0
C2249 C 0.27172 0.61885 0.72648 0.0
C2250 C 0.29855 0.60996 0.74329 0.0
C2251 C 0.30395 0.62824 0.74424 0.0
C2252 C 0.2927 0.64183 0.73694 0.0
C2253 C 0.27655 0.63697 0.72848 0.0
C2254 C 0.30976 0.59518 0.75162 0.0
C2255 C 0.29814 0.66145 0.73717 0.0
H2256 H 0.33986 0.65644 0.78705 0.0
H2257 H 0.36387 0.644 0.73594 0.0
H2258 H 0.29776 0.64959 0.77894 0.0
H2259 H 0.30147 0.6259 0.78171 0.0
H2260 H 0.31263 0.64179 0.79641 0.0
H2261 H 0.34911 0.62694 0.71384 0.0
H2262 H 0.33026 0.61311 0.72042 0.0
H2263 H 0.32647 0.63565 0.71282 0.0
H2264 H 0.27886 0.59139 0.73254 0.0
H2265 H 0.26818 0.64734 0.7225 0.0
H2266 H 0.31457 0.59921 0.76518 0.0
H2267 H 0.3218 0.59263 0.74315 0.0
H2268 H 0.30209 0.58238 0.75281 0.0
H2269 H 0.30017 0.66607 0.75123 0.0
H2270 H 0.28792 0.67029 0.73072 0.0
H2271 H 0.31113 0.66319 0.72998 0.0
C2272 C 0.85491 0.85205 0.26883 0.0
C2273 C 0.83626 0.85202 0.2658 0.0
C2274 C 0.86569 0.83756 0.26306 0.0
C2275 C 0.85766 0.82315 0.25347 0.0
C2276 C 0.83875 0.82285 0.25091 0.0
C2277 C 0.82828 0.83714 0.25737 0.0
C2278 C 0.88569 0.83799 0.26667 0.0
C2279 C 0.82965 0.80796 0.2404 0.0
C2280 C 0.88223 0.79764 0.21692 0.0
C2281 C 0.88286 0.78026 0.22429 0.0
C2282 C 0.87505 0.81207 0.22674 0.0
C2283 C 0.86889 0.80916 0.24456 0.0
C2284 C 0.87114 0.79203 0.25266 0.0
C2285 C 0.87779 0.77765 0.24229 0.0
C2286 C 0.87255 0.83 0.21743 0.0
C2287 C 0.86545 0.78858 0.27187 0.0
H2288 H 0.86111 0.86348 0.27547 0.0
H2289 H 0.81388 0.83709 0.25489 0.0
H2290 H 0.89049 0.82461 0.27131 0.0
H2291 H 0.893 0.84124 0.25404 0.0
H2292 H 0.88929 0.84826 0.27694 0.0
H2293 H 0.81478 0.80962 0.23986 0.0
H2294 H 0.8349 0.80773 0.2264 0.0
H2295 H 0.8327 0.79469 0.24653 0.0
H2296 H 0.88608 0.7997 0.20298 0.0
H2297 H 0.87845 0.76426 0.24809 0.0
H2298 H 0.87783 0.84111 0.2259 0.0
H2299 H 0.85795 0.83252 0.21534 0.0
H2300 H 0.87939 0.83049 0.20413 0.0
H2301 H 0.8695 0.79995 0.2807 0.0
H2302 H 0.87139 0.77593 0.27723 0.0
H2303 H 0.85057 0.78742 0.27254 0.0
C2304 C 0.63665 0.36488 0.74603 0.0
C2305 C 0.64006 0.34638 0.74803 0.0
C2306 C 0.65037 0.37678 0.74059 0.0
C2307 C 0.6677 0.36988 0.73654 0.0
C2308 C 0.67132 0.35132 0.73913 0.0
C2309 C 0.65755 0.33988 0.74506 0.0
C2310 C 0.64616 0.39657 0.7386 0.0
C2311 C 0.68954 0.34332 0.73477 0.0
C2312 C 0.69909 0.38946 0.70163 0.0
C2313 C 0.71374 0.39455 0.71241 0.0
C2314 C 0.68324 0.3827 0.7094 0.0
C2315 C 0.68187 0.3815 0.7284 0.0
C2316 C 0.69579 0.38862 0.73932 0.0
C2317 C 0.71171 0.39482 0.73119 0.0
C2318 C 0.66882 0.37509 0.69724 0.0
C2319 C 0.69454 0.38828 0.75961 0.0
H2320 H 0.62318 0.37001 0.74842 0.0
H2321 H 0.66031 0.32561 0.7465 0.0
H2322 H 0.65719 0.40491 0.74428 0.0
H2323 H 0.64496 0.39999 0.72411 0.0
H2324 H 0.63332 0.40024 0.74536 0.0
H2325 H 0.69018 0.32865 0.73766 0.0
H2326 H 0.69266 0.34543 0.7203 0.0
H2327 H 0.70021 0.35016 0.74269 0.0
H2328 H 0.70058 0.38921 0.6871 0.0
H2329 H 0.72293 0.39898 0.73958 0.0
H2330 H 0.65528 0.37965 0.70158 0.0
H2331 H 0.66902 0.36016 0.69809 0.0
H2332 H 0.67085 0.37904 0.68294 0.0
H2333 H 0.68078 0.39194 0.76415 0.0
H2334 H 0.70439 0.39763 0.76591 0.0
H2335 H 0.69741 0.37446 0.76453 0.0
C2336 C 0.1172 0.80575 0.78867 0.0
C2337 C 0.11482 0.78859 0.78117 0.0
C2338 C 0.12488 0.81975 0.7786 0.0
C2339 C 0.12972 0.81666 0.7604 0.0
C2340 C 0.12566 0.79988 0.75226 0.0
C2341 C 0.11859 0.78589 0.76287 0.0
C2342 C 0.12937 0.83726 0.78795 0.0
C2343 C 0.12987 0.79633 0.7327 0.0
C2344 C 0.14601 0.85852 0.73567 0.0
C2345 C 0.16474 0.85672 0.73745 0.0
C2346 C 0.13433 0.845 0.74204 0.0
C2347 C 0.14159 0.8298 0.75102 0.0
C2348 C 0.16051 0.82777 0.7524 0.0
C2349 C 0.17182 0.84109 0.74532 0.0
C2350 C 0.11427 0.84726 0.73966 0.0
C2351 C 0.16886 0.81201 0.76225 0.0
H2352 H 0.11438 0.80785 0.80285 0.0
H2353 H 0.11657 0.77267 0.75698 0.0
H2354 H 0.14421 0.83852 0.78927 0.0
H2355 H 0.1246 0.8489 0.77991 0.0
H2356 H 0.12331 0.83809 0.80161 0.0
H2357 H 0.12259 0.7843 0.72756 0.0
H2358 H 0.12625 0.80814 0.72428 0.0
H2359 H 0.14454 0.79395 0.7311 0.0
H2360 H 0.1405 0.87054 0.72948 0.0
H2361 H 0.18628 0.83969 0.74686 0.0
H2362 H 0.10806 0.85099 0.75272 0.0
H2363 H 0.10802 0.83442 0.73523 0.0
H2364 H 0.111 0.85794 0.72969 0.0
H2365 H 0.16431 0.81197 0.77649 0.0
H2366 H 0.18383 0.81243 0.76205 0.0
H2367 H 0.16442 0.79914 0.75611 0.0
C2368 C 0.63742 0.64047 0.26149 0.0
C2369 C 0.63583 0.64264 0.24279 0.0
C2370 C 0.65196 0.63096 0.26891 0.0
C2371 C 0.66488 0.62303 0.25732 0.0
C2372 C 0.66189 0.62304 0.23849 0.0
C2373 C 0.64751 0.63309 0.2314 0.0
C2374 C 0.65463 0.63133 0.28908 0.0
C2375 C 0.67484 0.61395 0.22574 0.0
C2376 C 0.71291 0.62789 0.2737 0.0
C2377 C 0.71587 0.61133 0.28226 0.0
C2378 C 0.69653 0.63159 0.26511 0.0
C2379 C 0.68292 0.6182 0.26459 0.0
C2380 C 0.68626 0.60103 0.27218 0.0
C2381 C 0.70261 0.59789 0.28123 0.0
C2382 C 0.69348 0.65021 0.25741 0.0
C2383 C 0.67238 0.58619 0.27135 0.0
H2384 H 0.6284 0.64773 0.27039 0.0
H2385 H 0.64617 0.63447 0.21692 0.0
H2386 H 0.6584 0.61782 0.29417 0.0
H2387 H 0.66582 0.64069 0.2924 0.0
H2388 H 0.64234 0.63592 0.29629 0.0
H2389 H 0.66864 0.61164 0.21231 0.0
H2390 H 0.68688 0.62262 0.22389 0.0
H2391 H 0.67946 0.60086 0.23128 0.0
H2392 H 0.72306 0.63837 0.27452 0.0
H2393 H 0.7049 0.585 0.28772 0.0
H2394 H 0.68197 0.65674 0.26437 0.0
H2395 H 0.69001 0.64928 0.24292 0.0
H2396 H 0.7055 0.65902 0.25884 0.0
H2397 H 0.66197 0.58853 0.2818 0.0
H2398 H 0.67851 0.57276 0.27383 0.0
H2399 H 0.66553 0.58599 0.25807 0.0
C2400 C 0.89479 0.21442 0.76742 0.0
C2401 C 0.89469 0.2152 0.7863 0.0
C2402 C 0.88871 0.19898 0.75833 0.0
C2403 C 0.88184 0.1843 0.76838 0.0
C2404 C 0.88316 0.18447 0.78742 0.0
C2405 C 0.88983 0.19985 0.79615 0.0
C2406 C 0.88828 0.199 0.73801 0.0
C2407 C 0.87581 0.16921 0.7987 0.0
C2408 C 0.84057 0.16007 0.75081 0.0
C2409 C 0.84736 0.14284 0.74713 0.0
C2410 C 0.85182 0.17381 0.75718 0.0
C2411 C 0.87047 0.17042 0.75944 0.0
C2412 C 0.87765 0.15344 0.75454 0.0
C2413 C 0.86595 0.13972 0.74872 0.0
C2414 C 0.84351 0.19164 0.76247 0.0
C2415 C 0.89755 0.14954 0.75611 0.0
H2416 H 0.89876 0.2262 0.75975 0.0
H2417 H 0.88971 0.20038 0.81074 0.0
H2418 H 0.89208 0.18559 0.7326 0.0
H2419 H 0.87441 0.20202 0.73333 0.0
H2420 H 0.89749 0.20933 0.73229 0.0
H2421 H 0.87961 0.1705 0.81312 0.0
H2422 H 0.86088 0.16909 0.79774 0.0
H2423 H 0.88072 0.15605 0.79363 0.0
H2424 H 0.82623 0.16259 0.74968 0.0
H2425 H 0.8713 0.12645 0.74576 0.0
H2426 H 0.85016 0.20283 0.75514 0.0
H2427 H 0.84557 0.19402 0.77709 0.0
H2428 H 0.82883 0.19217 0.75961 0.0
H2429 H 0.90562 0.16108 0.75109 0.0
H2430 H 0.90141 0.13725 0.74849 0.0
H2431 H 0.90111 0.14746 0.77046 0.0
C2432 C 0.35646 0.35077 0.25026 0.0
C2433 C 0.35612 0.33898 0.23553 0.0
C2434 C 0.34056 0.35878 0.25662 0.0
C2435 C 0.32407 0.35535 0.24764 0.0
C2436 C 0.32396 0.34476 0.23178 0.0
C2437 C 0.33996 0.3364 0.2261 0.0
C2438 C 0.34122 0.36965 0.2738 0.0
C2439 C 0.30679 0.34136 0.22143 0.0
C2440 C 0.28266 0.35446 0.27749 0.0
C2441 C 0.27618 0.37209 0.2757 0.0
C2442 C 0.29803 0.34877 0.26813 0.0
C2443 C 0.3068 0.36083 0.25621 0.0
C2444 C 0.29967 0.37832 0.25352 0.0
C2445 C 0.28461 0.38388 0.26358 0.0
C2446 C 0.30541 0.33013 0.27171 0.0
C2447 C 0.30824 0.39132 0.24044 0.0
H2448 H 0.36891 0.35267 0.25766 0.0
H2449 H 0.33971 0.32737 0.21462 0.0
H2450 H 0.33428 0.38275 0.272 0.0
H2451 H 0.33403 0.36225 0.28463 0.0
H2452 H 0.35525 0.37225 0.27833 0.0
H2453 H 0.3095 0.33571 0.20784 0.0
H2454 H 0.29827 0.33165 0.22894 0.0
H2455 H 0.29895 0.35401 0.21994 0.0
H2456 H 0.27628 0.34536 0.28698 0.0
H2457 H 0.27955 0.3975 0.2621 0.0
H2458 H 0.31921 0.33117 0.27738 0.0
H2459 H 0.3064 0.32242 0.25896 0.0
H2460 H 0.29691 0.32237 0.28129 0.0
H2461 H 0.32141 0.39591 0.24579 0.0
H2462 H 0.29966 0.40335 0.23804 0.0
H2463 H 0.31084 0.38457 0.22735 0.0
C2464 C 0.24395 0.16941 0.1673 0.0
C2465 C 0.25374 0.16044 0.15385 0.0
C2466 C 0.23769 0.16023 0.18255 0.0
C2467 C 0.24176 0.14172 0.18472 0.0
C2468 C 0.25263 0.13285 0.17178 0.0
C2469 C 0.25825 0.14226 0.15631 0.0
C2470 C 0.22584 0.17014 0.19582 0.0
C2471 C 0.25776 0.1133 0.17395 0.0
C2472 C 0.23103 0.12527 0.23188 0.0
C2473 C 0.21375 0.11801 0.22944 0.0
C2474 C 0.24101 0.13177 0.21717 0.0
C2475 C 0.23325 0.13153 0.19974 0.0
C2476 C 0.21617 0.12344 0.19711 0.0
C2477 C 0.20675 0.11654 0.21197 0.0
C2478 C 0.25945 0.13971 0.22042 0.0
C2479 C 0.20722 0.12325 0.17883 0.0
H2480 H 0.24031 0.18344 0.16546 0.0
H2481 H 0.26592 0.1353 0.14601 0.0
H2482 H 0.21225 0.1639 0.19607 0.0
H2483 H 0.23149 0.16908 0.20961 0.0
H2484 H 0.22434 0.18464 0.19241 0.0
H2485 H 0.26843 0.1092 0.16428 0.0
H2486 H 0.26259 0.11068 0.18785 0.0
H2487 H 0.24577 0.10468 0.17168 0.0
H2488 H 0.23657 0.12626 0.24536 0.0
H2489 H 0.19337 0.11101 0.21001 0.0
H2490 H 0.25872 0.1546 0.21951 0.0
H2491 H 0.26909 0.13504 0.20999 0.0
H2492 H 0.2648 0.13607 0.23392 0.0
H2493 H 0.20413 0.13727 0.17465 0.0
H2494 H 0.19449 0.11537 0.17883 0.0
H2495 H 0.21641 0.11746 0.16858 0.0
C2496 C 0.33113 0.74773 0.6592 0.0
C2497 C 0.33878 0.7557 0.6439 0.0
C2498 C 0.3417 0.74341 0.67421 0.0
C2499 C 0.36031 0.74766 0.67415 0.0
C2500 C 0.3679 0.75676 0.6592 0.0
C2501 C 0.35709 0.76039 0.64406 0.0
C2502 C 0.33311 0.73338 0.68972 0.0
C2503 C 0.38751 0.7621 0.65892 0.0
C2504 C 0.37984 0.74219 0.7209 0.0
C2505 C 0.38633 0.72447 0.72006 0.0
C2506 C 0.37287 0.75071 0.70551 0.0
C2507 C 0.37185 0.74101 0.68911 0.0
C2508 C 0.37956 0.7236 0.68793 0.0
C2509 C 0.38695 0.71565 0.70337 0.0
C2510 C 0.36545 0.76957 0.70711 0.0
C2511 C 0.37849 0.71265 0.6708 0.0
H2512 H 0.31701 0.74399 0.65912 0.0
H2513 H 0.36301 0.76671 0.6323 0.0
H2514 H 0.33956 0.71997 0.69125 0.0
H2515 H 0.33522 0.74083 0.70249 0.0
H2516 H 0.31841 0.73138 0.68778 0.0
H2517 H 0.39053 0.77173 0.64787 0.0
H2518 H 0.39145 0.76831 0.67194 0.0
H2519 H 0.39599 0.74994 0.65701 0.0
H2520 H 0.37954 0.74916 0.73374 0.0
H2521 H 0.39194 0.70194 0.70261 0.0
H2522 H 0.35054 0.76901 0.70789 0.0
H2523 H 0.36905 0.77772 0.69511 0.0
H2524 H 0.37053 0.7765 0.71937 0.0
H2525 H 0.36424 0.70894 0.66817 0.0
H2526 H 0.38659 0.70009 0.6716 0.0
H2527 H 0.38326 0.72065 0.65913 0.0
C2528 C 0.75427 0.89991 0.22403 0.0
C2529 C 0.77316 0.90039 0.22459 0.0
C2530 C 0.74516 0.89509 0.20815 0.0
C2531 C 0.75523 0.8901 0.19274 0.0
C2532 C 0.77422 0.89206 0.19283 0.0
C2533 C 0.78292 0.89744 0.20869 0.0
C2534 C 0.72487 0.89399 0.20832 0.0
C2535 C 0.78553 0.88671 0.17678 0.0
C2536 C 0.73984 0.85053 0.16471 0.0
C2537 C 0.73615 0.85867 0.14806 0.0
C2538 C 0.74528 0.86077 0.17956 0.0
C2539 C 0.74658 0.87973 0.17794 0.0
C2540 C 0.74146 0.8882 0.16163 0.0
C2541 C 0.73656 0.87753 0.14674 0.0
C2542 C 0.75083 0.8511 0.19662 0.0
C2543 C 0.74197 0.90842 0.15959 0.0
H2544 H 0.74663 0.90246 0.23621 0.0
H2545 H 0.79752 0.89786 0.20898 0.0
H2546 H 0.71917 0.89878 0.19535 0.0
H2547 H 0.72067 0.87976 0.21014 0.0
H2548 H 0.719 0.90206 0.21947 0.0
H2549 H 0.79986 0.89072 0.17837 0.0
H2550 H 0.78494 0.87186 0.17503 0.0
H2551 H 0.7802 0.89292 0.16429 0.0
H2552 H 0.73952 0.83598 0.16591 0.0
H2553 H 0.73355 0.88394 0.13397 0.0
H2554 H 0.74324 0.85646 0.20832 0.0
H2555 H 0.76537 0.85346 0.19924 0.0
H2556 H 0.7485 0.83634 0.19584 0.0
H2557 H 0.73713 0.91517 0.17202 0.0
H2558 H 0.73366 0.91301 0.14802 0.0
H2559 H 0.75606 0.91282 0.15723 0.0
C2560 C 0.60694 0.28386 0.69189 0.0
C2561 C 0.60323 0.27473 0.708 0.0
C2562 C 0.61493 0.27491 0.6773 0.0
C2563 C 0.61877 0.25626 0.67868 0.0
C2564 C 0.61318 0.2466 0.69415 0.0
C2565 C 0.60577 0.25602 0.7088 0.0
C2566 C 0.62094 0.28583 0.66121 0.0
C2567 C 0.61628 0.22658 0.69581 0.0
C2568 C 0.63722 0.23542 0.63565 0.0
C2569 C 0.65583 0.2363 0.63885 0.0
C2570 C 0.62481 0.24078 0.64894 0.0
C2571 C 0.63125 0.2478 0.66548 0.0
C2572 C 0.65002 0.24815 0.66893 0.0
C2573 C 0.66203 0.24212 0.6557 0.0
C2574 C 0.6049 0.23951 0.64504 0.0
C2575 C 0.65752 0.25586 0.68623 0.0
H2576 H 0.60506 0.29833 0.69121 0.0
H2577 H 0.60273 0.24887 0.72117 0.0
H2578 H 0.63587 0.28673 0.66115 0.0
H2579 H 0.6168 0.27919 0.6485 0.0
H2580 H 0.61536 0.29972 0.6614 0.0
H2581 H 0.60784 0.22055 0.70661 0.0
H2582 H 0.6133 0.21966 0.6829 0.0
H2583 H 0.63063 0.22402 0.69912 0.0
H2584 H 0.63237 0.2308 0.62268 0.0
H2585 H 0.6764 0.24294 0.65822 0.0
H2586 H 0.5995 0.25312 0.64208 0.0
H2587 H 0.59752 0.23423 0.65693 0.0
H2588 H 0.60208 0.23069 0.63329 0.0
H2589 H 0.65355 0.27022 0.6875 0.0
H2590 H 0.67245 0.25499 0.68686 0.0
H2591 H 0.65187 0.2486 0.698 0.0
C2592 C 0.25231 0.8927 0.77546 0.0
C2593 C 0.23395 0.89723 0.77566 0.0
C2594 C 0.2609 0.88625 0.79105 0.0
C2595 C 0.25075 0.88388 0.80702 0.0
C2596 C 0.23264 0.88986 0.80767 0.0
C2597 C 0.22453 0.89667 0.79203 0.0
C2598 C 0.28042 0.88067 0.79001 0.0
C2599 C 0.22127 0.88745 0.82437 0.0
C2600 C 0.25981 0.84319 0.83637 0.0
C2601 C 0.26659 0.85111 0.85213 0.0
C2602 C 0.25524 0.8537 0.82139 0.0
C2603 C 0.2579 0.87259 0.82196 0.0
C2604 C 0.26587 0.88054 0.83736 0.0
C2605 C 0.26991 0.86973 0.85239 0.0
C2606 C 0.24658 0.84466 0.80532 0.0
C2607 C 0.26944 0.90054 0.83825 0.0
H2608 H 0.25976 0.89333 0.76291 0.0
H2609 H 0.21036 0.90019 0.79235 0.0
H2610 H 0.28776 0.88466 0.80241 0.0
H2611 H 0.28128 0.86579 0.78884 0.0
H2612 H 0.28729 0.88671 0.77816 0.0
H2613 H 0.20811 0.89451 0.82332 0.0
H2614 H 0.21865 0.87288 0.82652 0.0
H2615 H 0.22846 0.89253 0.83643 0.0
H2616 H 0.25719 0.82883 0.83604 0.0
H2617 H 0.27529 0.87592 0.86447 0.0
H2618 H 0.25417 0.84788 0.79287 0.0
H2619 H 0.23266 0.84981 0.80354 0.0
H2620 H 0.24597 0.82977 0.80679 0.0
H2621 H 0.27555 0.90539 0.8255 0.0
H2622 H 0.27852 0.90408 0.84961 0.0
H2623 H 0.25653 0.90784 0.8401 0.0
C2624 C 0.64671 0.72357 0.27366 0.0
C2625 C 0.63008 0.72755 0.26568 0.0
C2626 C 0.65209 0.73212 0.28962 0.0
C2627 C 0.64086 0.74546 0.2974 0.0
C2628 C 0.62466 0.75045 0.28865 0.0
C2629 C 0.61925 0.74114 0.27307 0.0
C2630 C 0.66923 0.726 0.29875 0.0
C2631 C 0.61272 0.76513 0.29608 0.0
C2632 C 0.64506 0.74936 0.34813 0.0
C2633 C 0.65848 0.76251 0.34981 0.0
C2634 C 0.63866 0.74416 0.33112 0.0
C2635 C 0.64539 0.75282 0.31549 0.0
C2636 C 0.65786 0.76716 0.31726 0.0
C2637 C 0.66457 0.77158 0.3344 0.0
C2638 C 0.62574 0.72849 0.32984 0.0
C2639 C 0.66476 0.77723 0.30101 0.0
H2640 H 0.655 0.71292 0.26806 0.0
H2641 H 0.60641 0.74427 0.26684 0.0
H2642 H 0.67829 0.73764 0.30111 0.0
H2643 H 0.66597 0.72012 0.31211 0.0
H2644 H 0.67663 0.71576 0.29073 0.0
H2645 H 0.60231 0.76942 0.28622 0.0
H2646 H 0.6058 0.76023 0.30838 0.0
H2647 H 0.62088 0.77704 0.29998 0.0
H2648 H 0.64049 0.7422 0.36001 0.0
H2649 H 0.67491 0.78182 0.33571 0.0
H2650 H 0.63241 0.71708 0.32283 0.0
H2651 H 0.61374 0.73226 0.3218 0.0
H2652 H 0.62117 0.72377 0.34329 0.0
H2653 H 0.67441 0.76864 0.29351 0.0
H2654 H 0.67176 0.7899 0.30485 0.0
H2655 H 0.65352 0.78054 0.29172 0.0
C2656 C 0.75642 0.10749 0.78479 0.0
C2657 C 0.77513 0.1053 0.78637 0.0
C2658 C 0.74625 0.11461 0.79907 0.0
C2659 C 0.75513 0.12017 0.815 0.0
C2660 C 0.77377 0.11664 0.81716 0.0
C2661 C 0.7835 0.109 0.80289 0.0
C2662 C 0.72628 0.11744 0.79654 0.0
C2663 C 0.78383 0.12256 0.83383 0.0
C2664 C 0.73959 0.16275 0.83829 0.0
C2665 C 0.73315 0.1561 0.85475 0.0
C2666 C 0.74616 0.15109 0.82499 0.0
C2667 C 0.74585 0.13225 0.82801 0.0
C2668 C 0.73814 0.12536 0.84404 0.0
C2669 C 0.73211 0.13739 0.85737 0.0
C2670 C 0.75447 0.15905 0.80819 0.0
C2671 C 0.73697 0.10535 0.84745 0.0
H2672 H 0.74986 0.10443 0.77211 0.0
H2673 H 0.79795 0.10736 0.80418 0.0
H2674 H 0.71882 0.11412 0.80907 0.0
H2675 H 0.72365 0.1318 0.79337 0.0
H2676 H 0.72088 0.10911 0.78534 0.0
H2677 H 0.79781 0.11723 0.83419 0.0
H2678 H 0.78445 0.1375 0.83419 0.0
H2679 H 0.77669 0.11807 0.84615 0.0
H2680 H 0.74048 0.17717 0.83615 0.0
H2681 H 0.72701 0.13216 0.87001 0.0
H2682 H 0.74797 0.15337 0.79601 0.0
H2683 H 0.76899 0.1555 0.80759 0.0
H2684 H 0.75322 0.17396 0.80771 0.0
H2685 H 0.73239 0.09815 0.83518 0.0
H2686 H 0.72764 0.10216 0.85871 0.0
H2687 H 0.75051 0.10009 0.85096 0.0
C2688 C 0.40241 0.25318 0.27575 0.0
C2689 C 0.40249 0.27207 0.27561 0.0
C2690 C 0.39794 0.24366 0.29149 0.0
C2691 C 0.39256 0.2533 0.30705 0.0
C2692 C 0.39407 0.27232 0.30734 0.0
C2693 C 0.39937 0.28144 0.2917 0.0
C2694 C 0.39772 0.22334 0.29108 0.0
C2695 C 0.38825 0.28322 0.32352 0.0
C2696 C 0.35224 0.23687 0.33319 0.0
C2697 C 0.35958 0.23395 0.35035 0.0
C2698 C 0.36304 0.24236 0.31878 0.0
C2699 C 0.38186 0.24423 0.32134 0.0
C2700 C 0.38961 0.23966 0.33818 0.0
C2701 C 0.3783 0.23499 0.35267 0.0
C2702 C 0.35403 0.24754 0.30125 0.0
C2703 C 0.40968 0.24054 0.34126 0.0
H2704 H 0.40515 0.24588 0.2634 0.0
H2705 H 0.39948 0.29605 0.29168 0.0
H2706 H 0.40238 0.21772 0.30414 0.0
H2707 H 0.38377 0.21852 0.28876 0.0
H2708 H 0.40638 0.21799 0.28011 0.0
H2709 H 0.39126 0.2978 0.32194 0.0
H2710 H 0.37352 0.28162 0.32558 0.0
H2711 H 0.39508 0.27829 0.33584 0.0
H2712 H 0.33778 0.23614 0.33127 0.0
H2713 H 0.38407 0.23255 0.36587 0.0
H2714 H 0.35978 0.23968 0.28994 0.0
H2715 H 0.35649 0.26201 0.29838 0.0
H2716 H 0.33924 0.24524 0.30152 0.0
H2717 H 0.41731 0.23774 0.32871 0.0
H2718 H 0.41391 0.23076 0.35178 0.0
H2719 H 0.41338 0.25421 0.34604 0.0
C2720 C 0.19439 0.20184 0.10605 0.0
C2721 C 0.20839 0.21111 0.09742 0.0
C2722 C 0.17874 0.21089 0.11153 0.0
C2723 C 0.17682 0.22949 0.10767 0.0
C2724 C 0.18977 0.2382 0.09671 0.0
C2725 C 0.20567 0.22903 0.09207 0.0
C2726 C 0.16535 0.20105 0.12327 0.0
C2727 C 0.18759 0.25765 0.09124 0.0
C2728 C 0.13302 0.24915 0.12581 0.0
C2729 C 0.13879 0.25587 0.14251 0.0
C2730 C 0.14544 0.24176 0.1135 0.0
C2731 C 0.16384 0.24037 0.11843 0.0
C2732 C 0.16977 0.24787 0.13494 0.0
C2733 C 0.15725 0.25583 0.14655 0.0
C2734 C 0.13863 0.23478 0.09568 0.0
C2735 C 0.18917 0.2464 0.14103 0.0
H2736 H 0.19641 0.18797 0.11017 0.0
H2737 H 0.21636 0.23616 0.08511 0.0
H2738 H 0.16608 0.20641 0.13721 0.0
H2739 H 0.15144 0.20326 0.11832 0.0
H2740 H 0.16797 0.18632 0.12372 0.0
H2741 H 0.19609 0.26099 0.07938 0.0
H2742 H 0.17329 0.26067 0.088 0.0
H2743 H 0.19169 0.26651 0.10255 0.0
H2744 H 0.11879 0.24928 0.12251 0.0
H2745 H 0.16187 0.26095 0.15942 0.0
H2746 H 0.13467 0.22044 0.09716 0.0
H2747 H 0.1491 0.23567 0.08503 0.0
H2748 H 0.12654 0.24238 0.09121 0.0
H2749 H 0.19313 0.232 0.14194 0.0
H2750 H 0.19149 0.25277 0.15437 0.0
H2751 H 0.19821 0.25293 0.1311 0.0
C2752 C 0.21345 0.77823 0.90792 0.0
C2753 C 0.21609 0.79645 0.90365 0.0
C2754 C 0.19741 0.76939 0.90317 0.0
C2755 C 0.18413 0.77883 0.89327 0.0
C2756 C 0.18607 0.79762 0.89042 0.0
C2757 C 0.20194 0.80626 0.89592 0.0
C2758 C 0.19539 0.74961 0.90737 0.0
C2759 C 0.17234 0.80819 0.87975 0.0
C2760 C 0.1618 0.75477 0.85436 0.0
C2761 C 0.14371 0.75432 0.85978 0.0
C2762 C 0.17512 0.76215 0.86546 0.0
C2763 C 0.1704 0.7687 0.88274 0.0
C2764 C 0.15243 0.76693 0.88892 0.0
C2765 C 0.13918 0.76007 0.87721 0.0
C2766 C 0.19406 0.76398 0.85814 0.0
C2767 C 0.14697 0.773 0.90754 0.0
H2768 H 0.22429 0.77067 0.91415 0.0
H2769 H 0.20394 0.82035 0.89259 0.0
H2770 H 0.18128 0.74639 0.91113 0.0
H2771 H 0.19882 0.74156 0.89525 0.0
H2772 H 0.20448 0.74538 0.91849 0.0
H2773 H 0.17489 0.82294 0.88033 0.0
H2774 H 0.17279 0.80387 0.86544 0.0
H2775 H 0.15855 0.80553 0.88482 0.0
H2776 H 0.16545 0.75039 0.84092 0.0
H2777 H 0.12524 0.75962 0.88155 0.0
H2778 H 0.20378 0.75716 0.86719 0.0
H2779 H 0.19787 0.77843 0.85753 0.0
H2780 H 0.19548 0.75813 0.84444 0.0
H2781 H 0.15776 0.7702 0.91751 0.0
H2782 H 0.13437 0.76627 0.912 0.0
H2783 H 0.14454 0.78774 0.90744 0.0
C2784 C 0.72984 0.71161 0.40811 0.0
C2785 C 0.71147 0.71362 0.40421 0.0
C2786 C 0.73899 0.69567 0.40358 0.0
C2787 C 0.7297 0.68193 0.39418 0.0
C2788 C 0.7108 0.68324 0.39181 0.0
C2789 C 0.70186 0.69898 0.39717 0.0
C2790 C 0.75888 0.69421 0.40747 0.0
C2791 C 0.70035 0.66898 0.38175 0.0
C2792 C 0.75301 0.66051 0.35441 0.0
C2793 C 0.75376 0.64234 0.35953 0.0
C2794 C 0.74585 0.67358 0.36591 0.0
C2795 C 0.73994 0.66855 0.38334 0.0
C2796 C 0.74213 0.65051 0.38922 0.0
C2797 C 0.74865 0.63748 0.37707 0.0
C2798 C 0.74344 0.69255 0.35883 0.0
C2799 C 0.73687 0.6447 0.40797 0.0
H2800 H 0.73725 0.72281 0.41387 0.0
H2801 H 0.68763 0.70046 0.3942 0.0
H2802 H 0.76252 0.68021 0.41128 0.0
H2803 H 0.76665 0.69777 0.39521 0.0
H2804 H 0.76302 0.70349 0.41846 0.0
H2805 H 0.68557 0.6713 0.38235 0.0
H2806 H 0.70454 0.66894 0.36739 0.0
H2807 H 0.70327 0.65544 0.38732 0.0
H2808 H 0.75688 0.6644 0.34088 0.0
H2809 H 0.74936 0.62348 0.38117 0.0
H2810 H 0.75054 0.7023 0.36763 0.0
H2811 H 0.72892 0.69618 0.3589 0.0
H2812 H 0.74863 0.69416 0.34489 0.0
H2813 H 0.7385 0.6558 0.41785 0.0
H2814 H 0.74507 0.633 0.41245 0.0
H2815 H 0.72254 0.64046 0.408 0.0
C2816 C 0.77732 0.24078 0.89614 0.0
C2817 C 0.77692 0.22191 0.89736 0.0
C2818 C 0.79273 0.24979 0.88989 0.0
C2819 C 0.80787 0.23963 0.88429 0.0
C2820 C 0.80807 0.22073 0.88697 0.0
C2821 C 0.79265 0.21212 0.89369 0.0
C2822 C 0.79223 0.27001 0.88787 0.0
C2823 C 0.82388 0.20936 0.88106 0.0
C2824 C 0.83349 0.25497 0.84297 0.0
C2825 C 0.85021 0.2599 0.85025 0.0
C2826 C 0.81946 0.24889 0.85402 0.0
C2827 C 0.82201 0.24813 0.87291 0.0
C2828 C 0.83843 0.25422 0.88048 0.0
C2829 C 0.85245 0.25984 0.86903 0.0
C2830 C 0.80222 0.24237 0.84533 0.0
C2831 C 0.84145 0.25414 0.90058 0.0
H2832 H 0.76527 0.24845 0.8992 0.0
H2833 H 0.79244 0.19754 0.8946 0.0
H2834 H 0.8053 0.27607 0.89187 0.0
H2835 H 0.78981 0.27352 0.87355 0.0
H2836 H 0.78133 0.27613 0.89611 0.0
H2837 H 0.82283 0.19526 0.88597 0.0
H2838 H 0.82449 0.20913 0.86612 0.0
H2839 H 0.83672 0.2152 0.88598 0.0
H2840 H 0.83162 0.25495 0.82849 0.0
H2841 H 0.86529 0.26376 0.87477 0.0
H2842 H 0.79049 0.24967 0.85101 0.0
H2843 H 0.80029 0.22783 0.84825 0.0
H2844 H 0.80224 0.24426 0.83049 0.0
H2845 H 0.8295 0.25959 0.90774 0.0
H2846 H 0.85349 0.26215 0.90445 0.0
H2847 H 0.84345 0.24009 0.90527 0.0
C2848 C 0.29385 0.29616 0.40294 0.0
C2849 C 0.29316 0.28294 0.38945 0.0
C2850 C 0.28547 0.31301 0.40045 0.0
C2851 C 0.277 0.31691 0.38379 0.0
C2852 C 0.27624 0.3035 0.37022 0.0
C2853 C 0.28402 0.28662 0.37337 0.0
C2854 C 0.28604 0.32664 0.41551 0.0
C2855 C 0.26774 0.30713 0.35206 0.0
C2856 C 0.24335 0.35258 0.37085 0.0
C2857 C 0.25432 0.36428 0.36086 0.0
C2858 C 0.25088 0.33821 0.3806 0.0
C2859 C 0.26969 0.33515 0.37972 0.0
C2860 C 0.28093 0.34808 0.37131 0.0
C2861 C 0.2731 0.36268 0.36222 0.0
C2862 C 0.23854 0.32531 0.39031 0.0
C2863 C 0.30104 0.34532 0.36993 0.0
H2864 H 0.30085 0.2933 0.41543 0.0
H2865 H 0.2836 0.27649 0.36285 0.0
H2866 H 0.29721 0.33626 0.41308 0.0
H2867 H 0.27332 0.33447 0.41621 0.0
H2868 H 0.28842 0.32008 0.42875 0.0
H2869 H 0.26879 0.29541 0.34281 0.0
H2870 H 0.25329 0.3105 0.35375 0.0
H2871 H 0.27437 0.31888 0.34559 0.0
H2872 H 0.22882 0.35392 0.37007 0.0
H2873 H 0.28168 0.3717 0.35458 0.0
H2874 H 0.24472 0.3207 0.40313 0.0
H2875 H 0.23622 0.31326 0.38178 0.0
H2876 H 0.22526 0.33156 0.39327 0.0
H2877 H 0.30677 0.34141 0.38314 0.0
H2878 H 0.30808 0.35762 0.36509 0.0
H2879 H 0.30384 0.3342 0.36033 0.0
C2880 C 0.79869 0.80487 0.10966 0.0
C2881 C 0.78381 0.79611 0.10207 0.0
C2882 C 0.8138 0.79505 0.11536 0.0
C2883 C 0.81423 0.77612 0.11281 0.0
C2884 C 0.80013 0.7676 0.1032 0.0
C2885 C 0.78485 0.77763 0.0983 0.0
C2886 C 0.82837 0.80466 0.12581 0.0
C2887 C 0.8005 0.74764 0.09937 0.0
C2888 C 0.85789 0.75398 0.12818 0.0
C2889 C 0.85324 0.7486 0.1457 0.0
C2890 C 0.84501 0.76187 0.1167 0.0
C2891 C 0.82736 0.76509 0.12321 0.0
C2892 C 0.82247 0.75902 0.14062 0.0
C2893 C 0.83536 0.75057 0.15147 0.0
C2894 C 0.85054 0.7674 0.09794 0.0
C2895 C 0.80391 0.76244 0.14831 0.0
H2896 H 0.79786 0.81915 0.11265 0.0
H2897 H 0.77341 0.77088 0.09223 0.0
H2898 H 0.8277 0.80054 0.14018 0.0
H2899 H 0.84188 0.8009 0.1207 0.0
H2900 H 0.82696 0.81955 0.12509 0.0
H2901 H 0.79092 0.74393 0.08849 0.0
H2902 H 0.81425 0.74325 0.09544 0.0
H2903 H 0.79669 0.74011 0.11171 0.0
H2904 H 0.87166 0.75239 0.12358 0.0
H2905 H 0.83163 0.74653 0.16501 0.0
H2906 H 0.85361 0.78202 0.09776 0.0
H2907 H 0.8395 0.76494 0.08815 0.0
H2908 H 0.86276 0.76004 0.09342 0.0
H2909 H 0.80128 0.77716 0.14883 0.0
H2910 H 0.80232 0.75686 0.16211 0.0
H2911 H 0.79347 0.75634 0.13955 0.0
C2912 C 0.76518 0.35147 0.63354 0.0
C2913 C 0.76298 0.34953 0.65222 0.0
C2914 C 0.76038 0.3375 0.62168 0.0
C2915 C 0.75276 0.32148 0.62869 0.0
C2916 C 0.75127 0.31918 0.64757 0.0
C2917 C 0.75661 0.33313 0.65909 0.0
C2918 C 0.76275 0.3402 0.60168 0.0
C2919 C 0.74302 0.30239 0.65564 0.0
C2920 C 0.7177 0.29394 0.60416 0.0
C2921 C 0.72692 0.27764 0.60169 0.0
C2922 C 0.72637 0.30891 0.61176 0.0
C2923 C 0.7448 0.30765 0.61656 0.0
C2924 C 0.75463 0.2919 0.61223 0.0
C2925 C 0.74551 0.27695 0.60507 0.0
C2926 C 0.71532 0.32538 0.6163 0.0
C2927 C 0.77445 0.2903 0.61647 0.0
H2928 H 0.77024 0.36407 0.62815 0.0
H2929 H 0.75484 0.3315 0.67349 0.0
H2930 H 0.76829 0.32786 0.5953 0.0
H2931 H 0.74947 0.34292 0.5954 0.0
H2932 H 0.77183 0.35171 0.59864 0.0
H2933 H 0.74329 0.30252 0.6706 0.0
H2934 H 0.72881 0.30111 0.65117 0.0
H2935 H 0.75031 0.29024 0.65089 0.0
H2936 H 0.70334 0.29457 0.60158 0.0
H2937 H 0.75276 0.26445 0.60296 0.0
H2938 H 0.72231 0.33781 0.61186 0.0
H2939 H 0.7136 0.32626 0.63113 0.0
H2940 H 0.70175 0.325 0.60998 0.0
H2941 H 0.78164 0.30298 0.61314 0.0
H2942 H 0.78082 0.279 0.609 0.0
H2943 H 0.77622 0.28781 0.6311 0.0
C2944 C 0.23769 0.65784 0.6488 0.0
C2945 C 0.23746 0.6393 0.64519 0.0
C2946 C 0.24517 0.67007 0.63659 0.0
C2947 C 0.25188 0.66376 0.61988 0.0
C2948 C 0.25031 0.64524 0.61548 0.0
C2949 C 0.24353 0.63311 0.62841 0.0
C2950 C 0.24702 0.68958 0.64221 0.0
C2951 C 0.25643 0.638 0.59751 0.0
C2952 C 0.26207 0.7049 0.59191 0.0
C2953 C 0.28033 0.70745 0.59596 0.0
C2954 C 0.25301 0.68926 0.59757 0.0
C2955 C 0.26223 0.67648 0.60833 0.0
C2956 C 0.28103 0.67831 0.61108 0.0
C2957 C 0.28992 0.69363 0.60453 0.0
C2958 C 0.23327 0.68711 0.59324 0.0
C2959 C 0.29139 0.66515 0.62264 0.0
H2960 H 0.23315 0.66274 0.66179 0.0
H2961 H 0.24328 0.6188 0.6255 0.0
H2962 H 0.26145 0.69352 0.64223 0.0
H2963 H 0.23996 0.69846 0.6325 0.0
H2964 H 0.24141 0.69217 0.65585 0.0
H2965 H 0.24839 0.626 0.59358 0.0
H2966 H 0.25532 0.64829 0.58671 0.0
H2967 H 0.27071 0.63373 0.59849 0.0
H2968 H 0.25469 0.71546 0.58501 0.0
H2969 H 0.30406 0.69555 0.60767 0.0
H2970 H 0.22506 0.69146 0.60494 0.0
H2971 H 0.23 0.67278 0.59044 0.0
H2972 H 0.22931 0.69541 0.58143 0.0
H2973 H 0.28653 0.66601 0.63676 0.0
H2974 H 0.30612 0.66787 0.62252 0.0
H2975 H 0.2891 0.65117 0.61794 0.0
C2976 C 0.86608 0.85404 0.74223 0.0
C2977 C 0.84736 0.85126 0.74171 0.0
C2978 C 0.87777 0.84046 0.74839 0.0
C2979 C 0.87052 0.82391 0.75449 0.0
C2980 C 0.85174 0.82076 0.75317 0.0
C2981 C 0.84044 0.83439 0.74664 0.0
C2982 C 0.89776 0.84413 0.7491 0.0
C2983 C 0.84342 0.80332 0.75962 0.0
C2984 C 0.89562 0.78042 0.76312 0.0
C2985 C 0.89634 0.7803 0.78201 0.0
C2986 C 0.88874 0.79534 0.75374 0.0
C2987 C 0.8821 0.81029 0.76354 0.0
C2988 C 0.8842 0.81084 0.7825 0.0
C2989 C 0.89149 0.79589 0.7915 0.0
C2990 C 0.88729 0.79448 0.73348 0.0
C2991 C 0.87722 0.82647 0.79348 0.0
H2992 H 0.87156 0.867 0.73834 0.0
H2993 H 0.82602 0.83209 0.74629 0.0
H2994 H 0.90194 0.84624 0.76329 0.0
H2995 H 0.90545 0.83244 0.74386 0.0
H2996 H 0.9015 0.85631 0.74123 0.0
H2997 H 0.82867 0.80277 0.7571 0.0
H2998 H 0.84983 0.79169 0.75278 0.0
H2999 H 0.84578 0.80174 0.7743 0.0
H3000 H 0.89956 0.76848 0.75568 0.0
H3001 H 0.89201 0.7959 0.8061 0.0
H3002 H 0.89094 0.80761 0.72734 0.0
H3003 H 0.87316 0.79148 0.72964 0.0
H3004 H 0.89609 0.78383 0.72773 0.0
H3005 H 0.88179 0.83945 0.78767 0.0
H3006 H 0.88166 0.82578 0.80776 0.0
H3007 H 0.86226 0.82645 0.79317 0.0
C3008 C 0.6437 0.3777 0.24479 0.0
C3009 C 0.6477 0.35962 0.24093 0.0
C3010 C 0.65672 0.38909 0.25256 0.0
C3011 C 0.67383 0.382 0.25716 0.0
C3012 C 0.67816 0.36401 0.25247 0.0
C3013 C 0.66516 0.35317 0.24416 0.0
C3014 C 0.65183 0.4084 0.2566 0.0
C3015 C 0.69615 0.35576 0.25734 0.0
C3016 C 0.71652 0.40599 0.27085 0.0
C3017 C 0.71638 0.40314 0.28953 0.0
C3018 C 0.70168 0.40107 0.26019 0.0
C3019 C 0.68675 0.39246 0.26835 0.0
C3020 C 0.68595 0.39099 0.28738 0.0
C3021 C 0.7007 0.39664 0.29777 0.0
C3022 C 0.70266 0.40371 0.24006 0.0
C3023 C 0.67041 0.3817 0.29665 0.0
H3024 H 0.63027 0.38281 0.2422 0.0
H3025 H 0.66839 0.33922 0.24127 0.0
H3026 H 0.64817 0.40969 0.27103 0.0
H3027 H 0.6634 0.41751 0.254 0.0
H3028 H 0.64015 0.41295 0.24842 0.0
H3029 H 0.69746 0.34166 0.25251 0.0
H3030 H 0.70729 0.3638 0.25148 0.0
H3031 H 0.69789 0.35585 0.27219 0.0
H3032 H 0.72857 0.41123 0.26447 0.0
H3033 H 0.70057 0.39438 0.3122 0.0
H3034 H 0.68936 0.40782 0.23459 0.0
H3035 H 0.70647 0.39083 0.23352 0.0
H3036 H 0.71284 0.41404 0.23634 0.0
H3037 H 0.65737 0.38708 0.29175 0.0
H3038 H 0.67095 0.38327 0.31152 0.0
H3039 H 0.67074 0.36709 0.29343 0.0
C3040 C 0.15318 0.15597 0.73192 0.0
C3041 C 0.17044 0.15299 0.73899 0.0
C3042 C 0.14302 0.17109 0.73719 0.0
C3043 C 0.15005 0.18301 0.75035 0.0
C3044 C 0.16768 0.18029 0.75711 0.0
C3045 C 0.17775 0.1655 0.75111 0.0
C3046 C 0.12457 0.17396 0.72916 0.0
C3047 C 0.17554 0.19234 0.77152 0.0
C3048 C 0.13183 0.22917 0.76271 0.0
C3049 C 0.12168 0.22512 0.77811 0.0
C3050 C 0.14001 0.21541 0.75259 0.0
C3051 C 0.13857 0.1973 0.75847 0.0
C3052 C 0.12776 0.19313 0.77363 0.0
C3053 C 0.1192 0.20707 0.78307 0.0
C3054 C 0.15083 0.22032 0.73609 0.0
C3055 C 0.12625 0.17409 0.78069 0.0
H3056 H 0.14755 0.14639 0.72245 0.0
H3057 H 0.19103 0.16319 0.75674 0.0
H3058 H 0.1141 0.17069 0.73931 0.0
H3059 H 0.12272 0.18828 0.72528 0.0
H3060 H 0.12231 0.16535 0.71712 0.0
H3061 H 0.1896 0.18861 0.77504 0.0
H3062 H 0.17541 0.20658 0.76701 0.0
H3063 H 0.16717 0.19151 0.78388 0.0
H3064 H 0.13363 0.24312 0.75875 0.0
H3065 H 0.11146 0.20388 0.79504 0.0
H3066 H 0.14786 0.21088 0.72488 0.0
H3067 H 0.16541 0.21921 0.73914 0.0
H3068 H 0.14802 0.2343 0.73153 0.0
H3069 H 0.1219 0.16482 0.76982 0.0
H3070 H 0.11657 0.17299 0.79205 0.0
H3071 H 0.13966 0.16945 0.78541 0.0
C3072 C 0.35784 0.62816 0.242 0.0
C3073 C 0.35584 0.64696 0.24139 0.0
C3074 C 0.3437 0.61706 0.24802 0.0
C3075 C 0.32746 0.62503 0.25407 0.0
C3076 C 0.32515 0.64393 0.25277 0.0
C3077 C 0.33925 0.65461 0.24622 0.0
C3078 C 0.34643 0.59693 0.24858 0.0
C3079 C 0.30814 0.65305 0.25929 0.0
C3080 C 0.28262 0.60263 0.26316 0.0
C3081 C 0.28275 0.60179 0.28204 0.0
C3082 C 0.29787 0.60847 0.2536 0.0
C3083 C 0.31335 0.61411 0.26321 0.0
C3084 C 0.31401 0.61191 0.28215 0.0
C3085 C 0.29877 0.60553 0.29132 0.0
C3086 C 0.29689 0.6099 0.23334 0.0
C3087 C 0.33015 0.61797 0.29297 0.0
H3088 H 0.37058 0.62215 0.23815 0.0
H3089 H 0.33759 0.66912 0.24584 0.0
H3090 H 0.3487 0.59258 0.2627 0.0
H3091 H 0.33426 0.58981 0.2436 0.0
H3092 H 0.35822 0.59267 0.24041 0.0
H3093 H 0.30835 0.66784 0.25699 0.0
H3094 H 0.29621 0.64735 0.25233 0.0
H3095 H 0.30638 0.65056 0.27393 0.0
H3096 H 0.27032 0.59954 0.2559 0.0
H3097 H 0.29895 0.60493 0.30591 0.0
H3098 H 0.30978 0.6056 0.22709 0.0
H3099 H 0.29452 0.62414 0.22947 0.0
H3100 H 0.28577 0.6016 0.22774 0.0
H3101 H 0.32931 0.61363 0.30727 0.0
H3102 H 0.33103 0.6329 0.2926 0.0
H3103 H 0.34277 0.6126 0.28708 0.0
C3104 C 0.84588 0.1627 0.25142 0.0
C3105 C 0.85357 0.14596 0.25557 0.0
C3106 C 0.85656 0.17722 0.24583 0.0
C3107 C 0.87549 0.17508 0.24466 0.0
C3108 C 0.88348 0.15856 0.24985 0.0
C3109 C 0.8724 0.14411 0.2551 0.0
C3110 C 0.84746 0.1946 0.24035 0.0
C3111 C 0.90363 0.15592 0.24919 0.0
C3112 C 0.89501 0.20688 0.21005 0.0
C3113 C 0.89869 0.22205 0.2207 0.0
C3114 C 0.88876 0.19084 0.21787 0.0
C3115 C 0.88649 0.18988 0.23679 0.0
C3116 C 0.89213 0.20444 0.24772 0.0
C3117 C 0.89803 0.22044 0.23953 0.0
C3118 C 0.88289 0.17563 0.2057 0.0
C3119 C 0.89047 0.20374 0.26797 0.0
H3120 H 0.83136 0.1643 0.25175 0.0
H3121 H 0.87848 0.13125 0.2584 0.0
H3122 H 0.85312 0.20605 0.2481 0.0
H3123 H 0.85003 0.19729 0.22587 0.0
H3124 H 0.83266 0.19423 0.24256 0.0
H3125 H 0.90788 0.14344 0.25629 0.0
H3126 H 0.90808 0.15499 0.23496 0.0
H3127 H 0.91068 0.1676 0.25532 0.0
H3128 H 0.89555 0.20797 0.1955 0.0
H3129 H 0.90111 0.23203 0.24787 0.0
H3130 H 0.86795 0.17489 0.20557 0.0
H3131 H 0.88799 0.16253 0.21078 0.0
H3132 H 0.88766 0.17751 0.19164 0.0
H3133 H 0.87616 0.20572 0.27183 0.0
H3134 H 0.89864 0.2144 0.27458 0.0
H3135 H 0.89476 0.19041 0.2732 0.0
C3136 C 0.29149 0.38633 0.70888 0.0
C3137 C 0.27489 0.38901 0.71748 0.0
C3138 C 0.30636 0.37959 0.71842 0.0
C3139 C 0.30469 0.3759 0.73708 0.0
C3140 C 0.28848 0.38024 0.74613 0.0
C3141 C 0.27367 0.3865 0.73617 0.0
C3142 C 0.32332 0.37495 0.70819 0.0
C3143 C 0.28636 0.37709 0.7661 0.0
C3144 C 0.33163 0.33561 0.753 0.0
C3145 C 0.34739 0.3437 0.75957 0.0
C3146 C 0.31744 0.34601 0.74617 0.0
C3147 C 0.3188 0.36504 0.74631 0.0
C3148 C 0.33413 0.37336 0.75406 0.0
C3149 C 0.34838 0.36258 0.7604 0.0
C3150 C 0.30143 0.33655 0.73786 0.0
C3151 C 0.3358 0.3936 0.75498 0.0
H3152 H 0.2925 0.3882 0.69444 0.0
H3153 H 0.2609 0.38875 0.74291 0.0
H3154 H 0.33535 0.38039 0.71518 0.0
H3155 H 0.32484 0.36008 0.70759 0.0
H3156 H 0.32312 0.38026 0.69419 0.0
H3157 H 0.27443 0.38427 0.77163 0.0
H3158 H 0.28465 0.36247 0.7687 0.0
H3159 H 0.29856 0.38159 0.77349 0.0
H3160 H 0.33072 0.32105 0.75226 0.0
H3161 H 0.36047 0.36894 0.76557 0.0
H3162 H 0.30057 0.33993 0.72332 0.0
H3163 H 0.28876 0.3412 0.74428 0.0
H3164 H 0.30225 0.32167 0.73923 0.0
H3165 H 0.33834 0.39904 0.7413 0.0
H3166 H 0.34702 0.39788 0.76392 0.0
H3167 H 0.32308 0.3997 0.75994 0.0
C3168 C 0.15638 0.83861 0.24978 0.0
C3169 C 0.15022 0.85624 0.2526 0.0
C3170 C 0.14471 0.82505 0.24378 0.0
C3171 C 0.12626 0.82905 0.241 0.0
C3172 C 0.11968 0.84653 0.24493 0.0
C3173 C 0.13181 0.86003 0.25043 0.0
C3174 C 0.15239 0.80667 0.23953 0.0
C3175 C 0.10001 0.85114 0.24273 0.0
C3176 C 0.10629 0.79826 0.20574 0.0
C3177 C 0.10068 0.78371 0.21639 0.0
C3178 C 0.11341 0.81388 0.21366 0.0
C3179 C 0.11446 0.81513 0.23268 0.0
C3180 C 0.10687 0.80135 0.24346 0.0
C3181 C 0.10032 0.78564 0.23519 0.0
C3182 C 0.12153 0.82815 0.20163 0.0
C3183 C 0.10702 0.80251 0.26375 0.0
H3184 H 0.17058 0.83556 0.25136 0.0
H3185 H 0.12694 0.87361 0.2527 0.0
H3186 H 0.14521 0.79614 0.24734 0.0
H3187 H 0.15042 0.80361 0.22503 0.0
H3188 H 0.167 0.80572 0.24263 0.0
H3189 H 0.09652 0.86403 0.2495 0.0
H3190 H 0.09678 0.85246 0.22821 0.0
H3191 H 0.09137 0.84027 0.24829 0.0
H3192 H 0.10662 0.79685 0.19121 0.0
H3193 H 0.09578 0.7745 0.24348 0.0
H3194 H 0.13644 0.82765 0.20274 0.0
H3195 H 0.11718 0.84177 0.20592 0.0
H3196 H 0.11778 0.82622 0.18727 0.0
H3197 H 0.12072 0.79932 0.26881 0.0
H3198 H 0.09738 0.79285 0.26991 0.0
H3199 H 0.10361 0.81634 0.2683 0.0
C3200 C 0.7022 0.60744 0.71653 0.0
C3201 C 0.71846 0.6045 0.72566 0.0
C3202 C 0.68724 0.61473 0.72547 0.0
C3203 C 0.68846 0.61873 0.74409 0.0
C3204 C 0.70421 0.61402 0.75374 0.0
C3205 C 0.71916 0.60719 0.74436 0.0
C3206 C 0.67077 0.61972 0.7146 0.0
C3207 C 0.70578 0.61742 0.77372 0.0
C3208 C 0.66238 0.66038 0.75761 0.0
C3209 C 0.646 0.65302 0.76348 0.0
C3210 C 0.67655 0.64929 0.75193 0.0
C3211 C 0.67449 0.63033 0.75257 0.0
C3212 C 0.65851 0.62278 0.75975 0.0
C3213 C 0.64432 0.63424 0.7649 0.0
C3214 C 0.69329 0.65792 0.74419 0.0
C3215 C 0.65606 0.60265 0.76122 0.0
H3216 H 0.70156 0.6054 0.70208 0.0
H3217 H 0.73164 0.60472 0.75154 0.0
H3218 H 0.65836 0.61479 0.72129 0.0
H3219 H 0.66975 0.63462 0.71368 0.0
H3220 H 0.67125 0.61415 0.70072 0.0
H3221 H 0.71713 0.60975 0.77978 0.0
H3222 H 0.70817 0.63198 0.77612 0.0
H3223 H 0.69312 0.61369 0.78075 0.0
H3224 H 0.66382 0.67487 0.75645 0.0
H3225 H 0.63175 0.62846 0.76958 0.0
H3226 H 0.69465 0.65421 0.72977 0.0
H3227 H 0.70546 0.6529 0.75126 0.0
H3228 H 0.69302 0.67285 0.74523 0.0
H3229 H 0.65355 0.59693 0.74765 0.0
H3230 H 0.6445 0.59907 0.77003 0.0
H3231 H 0.66843 0.59621 0.7666 0.0
C3232 C 0.74615 0.86468 0.86098 0.0
C3233 C 0.74457 0.84622 0.85718 0.0
C3234 C 0.75211 0.87686 0.84773 0.0
C3235 C 0.75715 0.87028 0.83056 0.0
C3236 C 0.755 0.85175 0.82652 0.0
C3237 C 0.74849 0.84003 0.83979 0.0
C3238 C 0.75359 0.89661 0.85234 0.0
C3239 C 0.76044 0.84408 0.80846 0.0
C3240 C 0.76464 0.89574 0.78721 0.0
C3241 C 0.78351 0.89567 0.78623 0.0
C3242 C 0.7557 0.88934 0.8026 0.0
C3243 C 0.76591 0.8822 0.81703 0.0
C3244 C 0.78495 0.88365 0.81676 0.0
C3245 C 0.79352 0.89062 0.80142 0.0
C3246 C 0.73538 0.88878 0.80272 0.0
C3247 C 0.79638 0.87603 0.83176 0.0
H3248 H 0.74301 0.86957 0.87438 0.0
H3249 H 0.74739 0.82578 0.83676 0.0
H3250 H 0.76793 0.90015 0.85459 0.0
H3251 H 0.74858 0.90507 0.84107 0.0
H3252 H 0.74591 0.90002 0.86473 0.0
H3253 H 0.75781 0.82937 0.80747 0.0
H3254 H 0.75299 0.85095 0.79748 0.0
H3255 H 0.77502 0.84644 0.80614 0.0
H3256 H 0.75684 0.89985 0.77555 0.0
H3257 H 0.80811 0.89052 0.80074 0.0
H3258 H 0.73005 0.89221 0.81626 0.0
H3259 H 0.73076 0.87496 0.79939 0.0
H3260 H 0.72953 0.89822 0.79267 0.0
H3261 H 0.79123 0.88039 0.84507 0.0
H3262 H 0.81072 0.88016 0.83057 0.0
H3263 H 0.79573 0.86109 0.83136 0.0
C3264 C 0.61321 0.29258 0.29391 0.0
C3265 C 0.61076 0.28492 0.27684 0.0
C3266 C 0.61963 0.28219 0.30834 0.0
C3267 C 0.62318 0.26361 0.30571 0.0
C3268 C 0.61892 0.25547 0.289 0.0
C3269 C 0.61305 0.2663 0.27465 0.0
C3270 C 0.62423 0.29147 0.32585 0.0
C3271 C 0.62184 0.2356 0.28585 0.0
C3272 C 0.66357 0.2459 0.33131 0.0
C3273 C 0.65558 0.23845 0.34673 0.0
C3274 C 0.65309 0.25369 0.3177 0.0
C3275 C 0.63408 0.25361 0.31924 0.0
C3276 C 0.62584 0.24506 0.33418 0.0
C3277 C 0.63671 0.23781 0.34792 0.0
C3278 C 0.66248 0.26286 0.30212 0.0
C3279 C 0.60561 0.24415 0.33598 0.0
H3280 H 0.61152 0.30699 0.29564 0.0
H3281 H 0.61097 0.2603 0.26149 0.0
H3282 H 0.61882 0.28381 0.33746 0.0
H3283 H 0.6391 0.29203 0.32739 0.0
H3284 H 0.61889 0.30544 0.3264 0.0
H3285 H 0.61458 0.23078 0.27369 0.0
H3286 H 0.63643 0.23295 0.28396 0.0
H3287 H 0.6173 0.22764 0.29767 0.0
H3288 H 0.67813 0.24653 0.33028 0.0
H3289 H 0.63044 0.23198 0.35975 0.0
H3290 H 0.659 0.27741 0.30199 0.0
H3291 H 0.65785 0.25705 0.28916 0.0
H3292 H 0.67737 0.26155 0.30284 0.0
H3293 H 0.60029 0.25767 0.33947 0.0
H3294 H 0.60137 0.23453 0.34663 0.0
H3295 H 0.59936 0.24008 0.32303 0.0
C3296 C 0.20794 0.10417 0.80011 0.0
C3297 C 0.21923 0.09772 0.78641 0.0
C3298 C 0.21513 0.11021 0.81651 0.0
C3299 C 0.23397 0.10927 0.8194 0.0
C3300 C 0.24502 0.10042 0.80663 0.0
C3301 C 0.23757 0.09502 0.79009 0.0
C3302 C 0.20282 0.11958 0.82972 0.0
C3303 C 0.26499 0.09823 0.80967 0.0
C3304 C 0.25301 0.15063 0.84219 0.0
C3305 C 0.25361 0.14535 0.86031 0.0
C3306 C 0.24715 0.13878 0.82876 0.0
C3307 C 0.24229 0.12092 0.83343 0.0
C3308 C 0.24405 0.11508 0.85152 0.0
C3309 C 0.24938 0.12748 0.86484 0.0
C3310 C 0.24524 0.14575 0.80971 0.0
C3311 C 0.23966 0.09599 0.85697 0.0
H3312 H 0.19373 0.1062 0.79742 0.0
H3313 H 0.24631 0.08972 0.77966 0.0
H3314 H 0.20551 0.11492 0.84364 0.0
H3315 H 0.20543 0.13431 0.82931 0.0
H3316 H 0.18837 0.11725 0.82659 0.0
H3317 H 0.27078 0.08765 0.80081 0.0
H3318 H 0.27192 0.11113 0.80667 0.0
H3319 H 0.26784 0.09474 0.82393 0.0
H3320 H 0.25619 0.16441 0.83854 0.0
H3321 H 0.24994 0.12327 0.87881 0.0
H3322 H 0.23097 0.14474 0.80534 0.0
H3323 H 0.2534 0.13745 0.80035 0.0
H3324 H 0.2496 0.16001 0.80837 0.0
H3325 H 0.22493 0.09472 0.85915 0.0
H3326 H 0.24654 0.09225 0.86973 0.0
H3327 H 0.24359 0.08626 0.84633 0.0
C3328 C 0.36876 0.75836 0.35383 0.0
C3329 C 0.35007 0.75874 0.35092 0.0
C3330 C 0.38054 0.75162 0.34061 0.0
C3331 C 0.37337 0.74473 0.32434 0.0
C3332 C 0.35461 0.74593 0.321 0.0
C3333 C 0.34324 0.75311 0.33424 0.0
C3334 C 0.4005 0.75112 0.34441 0.0
C3335 C 0.34637 0.73863 0.30387 0.0
C3336 C 0.39832 0.73337 0.28144 0.0
C3337 C 0.39889 0.7145 0.28247 0.0
C3338 C 0.39164 0.74368 0.29582 0.0
C3339 C 0.38497 0.73484 0.31134 0.0
C3340 C 0.38697 0.71593 0.31303 0.0
C3341 C 0.39412 0.706 0.29863 0.0
C3342 C 0.39039 0.76387 0.29377 0.0
C3343 C 0.37993 0.70594 0.3293 0.0
H3344 H 0.37416 0.76282 0.36664 0.0
H3345 H 0.32883 0.75334 0.33186 0.0
H3346 H 0.40462 0.73711 0.34761 0.0
H3347 H 0.40829 0.75545 0.33241 0.0
H3348 H 0.4042 0.75986 0.35599 0.0
H3349 H 0.33163 0.74114 0.30311 0.0
H3350 H 0.35286 0.74485 0.29195 0.0
H3351 H 0.34871 0.72388 0.30306 0.0
H3352 H 0.4022 0.74004 0.26904 0.0
H3353 H 0.39452 0.69142 0.2995 0.0
H3354 H 0.39397 0.77074 0.30656 0.0
H3355 H 0.37633 0.76766 0.29038 0.0
H3356 H 0.39935 0.76891 0.28289 0.0
H3357 H 0.38459 0.71246 0.3419 0.0
H3358 H 0.38425 0.69161 0.32944 0.0
H3359 H 0.36498 0.70638 0.32929 0.0
C3360 C 0.74838 0.14776 0.16079 0.0
C3361 C 0.74653 0.14291 0.14264 0.0
C3362 C 0.75649 0.13613 0.17321 0.0
C3363 C 0.76229 0.11885 0.16754 0.0
C3364 C 0.75913 0.11327 0.14956 0.0
C3365 C 0.75165 0.12555 0.13718 0.0
C3366 C 0.75989 0.14286 0.19214 0.0
C3367 C 0.76431 0.0947 0.14313 0.0
C3368 C 0.8016 0.10388 0.19599 0.0
C3369 C 0.79257 0.09625 0.21069 0.0
C3370 C 0.79202 0.10993 0.18086 0.0
C3371 C 0.77307 0.10767 0.18023 0.0
C3372 C 0.76431 0.09777 0.19398 0.0
C3373 C 0.7741 0.09255 0.20931 0.0
C3374 C 0.80192 0.12057 0.16663 0.0
C3375 C 0.74433 0.09411 0.19326 0.0
H3376 H 0.74456 0.16118 0.16512 0.0
H3377 H 0.75015 0.12168 0.12317 0.0
H3378 H 0.75338 0.13381 0.20208 0.0
H3379 H 0.77457 0.14284 0.19497 0.0
H3380 H 0.75468 0.15673 0.1943 0.0
H3381 H 0.75619 0.09062 0.13124 0.0
H3382 H 0.77869 0.09468 0.13909 0.0
H3383 H 0.76252 0.0845 0.15393 0.0
H3384 H 0.81588 0.1068 0.19707 0.0
H3385 H 0.76713 0.08645 0.2206 0.0
H3386 H 0.79796 0.13497 0.16756 0.0
H3387 H 0.79822 0.11578 0.15298 0.0
H3388 H 0.81678 0.11963 0.16817 0.0
H3389 H 0.73685 0.10634 0.19748 0.0
H3390 H 0.74047 0.08289 0.2024 0.0
H3391 H 0.74006 0.09073 0.17933 0.0
C3392 C 0.39587 0.26544 0.71339 0.0
C3393 C 0.39573 0.28428 0.71483 0.0
C3394 C 0.39001 0.25687 0.69758 0.0
C3395 C 0.38343 0.26743 0.68312 0.0
C3396 C 0.38488 0.28645 0.68389 0.0
C3397 C 0.39124 0.29464 0.69968 0.0
C3398 C 0.38934 0.23656 0.697 0.0
C3399 C 0.3779 0.29824 0.66886 0.0
C3400 C 0.36764 0.24828 0.63824 0.0
C3401 C 0.34903 0.24671 0.64127 0.0
C3402 C 0.37928 0.25415 0.65201 0.0
C3403 C 0.37202 0.25901 0.66896 0.0
C3404 C 0.35333 0.25692 0.67221 0.0
C3405 C 0.34214 0.2506 0.65841 0.0
C3406 C 0.3992 0.25567 0.64823 0.0
C3407 C 0.34495 0.26213 0.69003 0.0
H3408 H 0.39959 0.25735 0.72497 0.0
H3409 H 0.39114 0.30922 0.70067 0.0
H3410 H 0.37537 0.23198 0.69968 0.0
H3411 H 0.39327 0.23149 0.6835 0.0
H3412 H 0.39833 0.23044 0.70729 0.0
H3413 H 0.38217 0.3125 0.67044 0.0
H3414 H 0.38263 0.29327 0.6556 0.0
H3415 H 0.36295 0.29777 0.66876 0.0
H3416 H 0.37308 0.24518 0.62505 0.0
H3417 H 0.32778 0.24948 0.66087 0.0
H3418 H 0.40716 0.25012 0.6596 0.0
H3419 H 0.40292 0.27006 0.64676 0.0
H3420 H 0.40306 0.2485 0.63567 0.0
H3421 H 0.35138 0.25451 0.70116 0.0
H3422 H 0.33022 0.25953 0.6904 0.0
H3423 H 0.34726 0.27668 0.69264 0.0
C3424 C 0.21392 0.88812 0.19635 0.0
C3425 C 0.22291 0.89176 0.21254 0.0
C3426 C 0.22295 0.87997 0.1819 0.0
C3427 C 0.24153 0.87591 0.18354 0.0
C3428 C 0.25108 0.88145 0.19909 0.0
C3429 C 0.24158 0.88903 0.21358 0.0
C3430 C 0.21217 0.87404 0.1657 0.0
C3431 C 0.27105 0.87812 0.201 0.0
C3432 C 0.25512 0.83238 0.1608 0.0
C3433 C 0.26105 0.83847 0.14395 0.0
C3434 C 0.24931 0.84452 0.174 0.0
C3435 C 0.24999 0.86328 0.1705 0.0
C3436 C 0.25722 0.86957 0.15401 0.0
C3437 C 0.26235 0.85706 0.14075 0.0
C3438 C 0.24139 0.83718 0.19128 0.0
C3439 C 0.25886 0.88945 0.15008 0.0
H3440 H 0.19948 0.89016 0.19549 0.0
H3441 H 0.24861 0.89203 0.22603 0.0
H3442 H 0.21899 0.87812 0.15306 0.0
H3443 H 0.21114 0.85912 0.16562 0.0
H3444 H 0.19833 0.87974 0.16572 0.0
H3445 H 0.27705 0.88657 0.2118 0.0
H3446 H 0.27339 0.86377 0.20446 0.0
H3447 H 0.27815 0.88091 0.18815 0.0
H3448 H 0.254 0.81803 0.1633 0.0
H3449 H 0.26707 0.86181 0.12777 0.0
H3450 H 0.22705 0.8413 0.1924 0.0
H3451 H 0.2486 0.84283 0.20307 0.0
H3452 H 0.24211 0.82225 0.19199 0.0
H3453 H 0.24539 0.89503 0.14681 0.0
H3454 H 0.26796 0.89209 0.13849 0.0
H3455 H 0.26401 0.8968 0.16204 0.0
C3456 C 0.65653 0.7484 0.66126 0.0
C3457 C 0.65029 0.75186 0.64377 0.0
C3458 C 0.64491 0.74196 0.67465 0.0
C3459 C 0.62643 0.73934 0.67064 0.0
C3460 C 0.61979 0.74386 0.65334 0.0
C3461 C 0.63186 0.74983 0.64 0.0
C3462 C 0.65264 0.73713 0.69287 0.0
C3463 C 0.60009 0.7418 0.64873 0.0
C3464 C 0.60646 0.7034 0.70061 0.0
C3465 C 0.60092 0.71372 0.71541 0.0
C3466 C 0.61354 0.71166 0.68516 0.0
C3467 C 0.61464 0.73071 0.68436 0.0
C3468 C 0.6071 0.74118 0.69839 0.0
C3469 C 0.60055 0.73256 0.7139 0.0
C3470 C 0.62158 0.69996 0.67059 0.0
C3471 C 0.60735 0.7615 0.69773 0.0
H3472 H 0.67074 0.74987 0.6643 0.0
H3473 H 0.62692 0.75259 0.62653 0.0
H3474 H 0.64551 0.74462 0.70364 0.0
H3475 H 0.65065 0.72254 0.69549 0.0
H3476 H 0.66726 0.74017 0.69386 0.0
H3477 H 0.5966 0.74875 0.63594 0.0
H3478 H 0.59679 0.7273 0.64725 0.0
H3479 H 0.59152 0.74726 0.65969 0.0
H3480 H 0.6068 0.68883 0.70171 0.0
H3481 H 0.59606 0.7406 0.72524 0.0
H3482 H 0.6365 0.7009 0.67117 0.0
H3483 H 0.61732 0.70467 0.65708 0.0
H3484 H 0.61769 0.68559 0.67212 0.0
H3485 H 0.62108 0.76641 0.70101 0.0
H3486 H 0.59777 0.76748 0.70757 0.0
H3487 H 0.60392 0.76642 0.68404 0.0
C3488 C 0.83766 0.73988 0.83849 0.0
C3489 C 0.85388 0.73358 0.84585 0.0
C3490 C 0.82356 0.7457 0.84959 0.0
C3491 C 0.82548 0.74468 0.86855 0.0
C3492 C 0.84125 0.73699 0.87605 0.0
C3493 C 0.85543 0.73181 0.8646 0.0
C3494 C 0.8071 0.75407 0.84099 0.0
C3495 C 0.8435 0.735 0.89616 0.0
C3496 C 0.79881 0.78122 0.89182 0.0
C3497 C 0.78216 0.77266 0.89424 0.0
C3498 C 0.81354 0.77188 0.88458 0.0
C3499 C 0.8117 0.7534 0.8802 0.0
C3500 C 0.79553 0.74424 0.88447 0.0
C3501 C 0.7808 0.75406 0.89116 0.0
C3502 C 0.83045 0.78226 0.88001 0.0
C3503 C 0.79332 0.72438 0.88076 0.0
H3504 H 0.83637 0.74135 0.82402 0.0
H3505 H 0.86788 0.7268 0.87036 0.0
H3506 H 0.79472 0.74717 0.8457 0.0
H3507 H 0.80606 0.76843 0.84505 0.0
H3508 H 0.80751 0.75339 0.82605 0.0
H3509 H 0.85459 0.72554 0.89959 0.0
H3510 H 0.84668 0.7483 0.90217 0.0
H3511 H 0.83085 0.73011 0.90245 0.0
H3512 H 0.79993 0.7956 0.89415 0.0
H3513 H 0.76799 0.74734 0.89322 0.0
H3514 H 0.83175 0.78332 0.86515 0.0
H3515 H 0.84254 0.7751 0.88506 0.0
H3516 H 0.83034 0.79608 0.88574 0.0
H3517 H 0.7909 0.72228 0.86616 0.0
H3518 H 0.78174 0.71859 0.88829 0.0
H3519 H 0.80572 0.71688 0.88442 0.0
C3520 C 0.84806 0.2713 0.14545 0.0
C3521 C 0.84862 0.2679 0.16403 0.0
C3522 C 0.83355 0.2652 0.1349 0.0
C3523 C 0.81969 0.25493 0.14307 0.0
C3524 C 0.81985 0.25215 0.16194 0.0
C3525 C 0.83415 0.25892 0.1722 0.0
C3526 C 0.83346 0.26906 0.11494 0.0
C3527 C 0.80555 0.24096 0.17118 0.0
C3528 C 0.77458 0.24195 0.12306 0.0
C3529 C 0.778 0.2242 0.11757 0.0
C3530 C 0.78848 0.25282 0.12991 0.0
C3531 C 0.80597 0.24547 0.13195 0.0
C3532 C 0.80965 0.22788 0.12552 0.0
C3533 C 0.79566 0.21757 0.11813 0.0
C3534 C 0.7842 0.27176 0.13592 0.0
C3535 C 0.828 0.21937 0.12779 0.0
H3536 H 0.85915 0.27837 0.13909 0.0
H3537 H 0.83452 0.25616 0.18654 0.0
H3538 H 0.83721 0.2567 0.10744 0.0
H3539 H 0.81979 0.2731 0.11042 0.0
H3540 H 0.84315 0.27988 0.11132 0.0
H3541 H 0.79197 0.24644 0.16824 0.0
H3542 H 0.80596 0.22696 0.16593 0.0
H3543 H 0.80737 0.24051 0.18602 0.0
H3544 H 0.76095 0.24717 0.12245 0.0
H3545 H 0.79833 0.20382 0.11397 0.0
H3546 H 0.79508 0.28118 0.13184 0.0
H3547 H 0.78323 0.27218 0.15082 0.0
H3548 H 0.77122 0.2766 0.13024 0.0
H3549 H 0.83864 0.22832 0.12235 0.0
H3550 H 0.82898 0.20609 0.12095 0.0
H3551 H 0.83082 0.21741 0.14234 0.0
C3552 C 0.23422 0.35588 0.62721 0.0
C3553 C 0.23305 0.35284 0.64583 0.0
C3554 C 0.24041 0.34228 0.61554 0.0
C3555 C 0.24628 0.32564 0.62282 0.0
C3556 C 0.24432 0.32228 0.6415 0.0
C3557 C 0.23741 0.33579 0.65268 0.0
C3558 C 0.24144 0.34608 0.59561 0.0
C3559 C 0.25076 0.3049 0.64997 0.0
C3560 C 0.25828 0.28193 0.59969 0.0
C3561 C 0.27715 0.28299 0.59968 0.0
C3562 C 0.24777 0.29666 0.60524 0.0
C3563 C 0.2564 0.31241 0.61167 0.0
C3564 C 0.27538 0.31399 0.61036 0.0
C3565 C 0.28549 0.29934 0.60405 0.0
C3566 C 0.22752 0.29487 0.60545 0.0
C3567 C 0.2852 0.33038 0.61736 0.0
H3568 H 0.2307 0.36899 0.62182 0.0
H3569 H 0.23661 0.33333 0.66705 0.0
H3570 H 0.25529 0.35045 0.59209 0.0
H3571 H 0.23832 0.33384 0.58761 0.0
H3572 H 0.23201 0.35701 0.59163 0.0
H3573 H 0.24804 0.30436 0.66467 0.0
H3574 H 0.24408 0.2932 0.64352 0.0
H3575 H 0.26549 0.3034 0.64783 0.0
H3576 H 0.25178 0.26936 0.59607 0.0
H3577 H 0.30008 0.30021 0.60408 0.0
H3578 H 0.22102 0.30772 0.60144 0.0
H3579 H 0.22294 0.29158 0.61929 0.0
H3580 H 0.22286 0.28399 0.5963 0.0
H3581 H 0.27932 0.34285 0.61166 0.0
H3582 H 0.29981 0.33007 0.61409 0.0
H3583 H 0.28371 0.3311 0.63223 0.0
C3584 C 0.21801 0.7501 0.10937 0.0
C3585 C 0.2178 0.76867 0.10582 0.0
C3586 C 0.20273 0.74138 0.11632 0.0
C3587 C 0.18711 0.75159 0.12027 0.0
C3588 C 0.18636 0.77 0.11526 0.0
C3589 C 0.20166 0.77826 0.10787 0.0
C3590 C 0.20381 0.72157 0.12078 0.0
C3591 C 0.17005 0.78145 0.1194 0.0
C3592 C 0.14271 0.73223 0.13699 0.0
C3593 C 0.14453 0.73451 0.15568 0.0
C3594 C 0.15688 0.7367 0.12523 0.0
C3595 C 0.17297 0.74409 0.13232 0.0
C3596 C 0.1751 0.74573 0.15121 0.0
C3597 C 0.16096 0.7407 0.16263 0.0
C3598 C 0.15434 0.73418 0.10522 0.0
C3599 C 0.19195 0.75375 0.15937 0.0
H3600 H 0.2304 0.74257 0.10758 0.0
H3601 H 0.20139 0.79261 0.10514 0.0
H3602 H 0.20604 0.71989 0.13546 0.0
H3603 H 0.19103 0.71464 0.11732 0.0
H3604 H 0.21508 0.71488 0.11354 0.0
H3605 H 0.17081 0.79491 0.11288 0.0
H3606 H 0.15754 0.77465 0.11489 0.0
H3607 H 0.16902 0.78342 0.13419 0.0
H3608 H 0.13008 0.72731 0.13153 0.0
H3609 H 0.16249 0.74254 0.17704 0.0
H3610 H 0.16663 0.72833 0.09903 0.0
H3611 H 0.15195 0.74745 0.09878 0.0
H3612 H 0.14268 0.72531 0.10215 0.0
H3613 H 0.204 0.74612 0.15491 0.0
H3614 H 0.19161 0.75374 0.17433 0.0
H3615 H 0.1936 0.76786 0.15468 0.0
C3616 C 0.75519 0.65926 0.66247 0.0
C3617 C 0.76096 0.64258 0.65577 0.0
C3618 C 0.7493 0.67289 0.65085 0.0
C3619 C 0.74977 0.67003 0.63199 0.0
C3620 C 0.75682 0.6537 0.62508 0.0
C3621 C 0.762 0.63998 0.63708 0.0
C3622 C 0.74156 0.68995 0.65886 0.0
C3623 C 0.75825 0.65044 0.60507 0.0
C3624 C 0.71354 0.69704 0.60866 0.0
C3625 C 0.72254 0.71336 0.60565 0.0
C3626 C 0.72261 0.6822 0.61603 0.0
C3627 C 0.74125 0.68357 0.61992 0.0
C3628 C 0.75079 0.69932 0.61493 0.0
C3629 C 0.74125 0.71419 0.60816 0.0
C3630 C 0.71182 0.66579 0.62139 0.0
C3631 C 0.77082 0.70098 0.61804 0.0
H3632 H 0.75426 0.66131 0.6769 0.0
H3633 H 0.7666 0.62714 0.63185 0.0
H3634 H 0.74885 0.70189 0.65362 0.0
H3635 H 0.72722 0.69134 0.65486 0.0
H3636 H 0.74236 0.69011 0.6738 0.0
H3637 H 0.76746 0.63905 0.60196 0.0
H3638 H 0.74475 0.64715 0.59957 0.0
H3639 H 0.76314 0.66269 0.59802 0.0
H3640 H 0.69907 0.69633 0.60677 0.0
H3641 H 0.7483 0.72674 0.60563 0.0
H3642 H 0.71097 0.66509 0.63631 0.0
H3643 H 0.71853 0.65331 0.6167 0.0
H3644 H 0.69792 0.66611 0.61587 0.0
H3645 H 0.77339 0.70386 0.63247 0.0
H3646 H 0.77676 0.71207 0.60993 0.0
H3647 H 0.7778 0.6882 0.61464 0.0
C3648 C 0.14493 0.26795 0.87012 0.0
C3649 C 0.13289 0.25536 0.86284 0.0
C3650 C 0.15956 0.26232 0.88073 0.0
C3651 C 0.1626 0.24366 0.88328 0.0
C3652 C 0.14943 0.2311 0.87753 0.0
C3653 C 0.13453 0.23717 0.86764 0.0
C3654 C 0.17263 0.2762 0.88776 0.0
C3655 C 0.15215 0.21107 0.87987 0.0
C3656 C 0.21056 0.22738 0.87795 0.0
C3657 C 0.21434 0.22041 0.89506 0.0
C3658 C 0.19391 0.23535 0.87416 0.0
C3659 C 0.18093 0.23711 0.88806 0.0
C3660 C 0.18515 0.23123 0.90572 0.0
C3661 C 0.20168 0.22249 0.90892 0.0
C3662 C 0.18989 0.24094 0.85498 0.0
C3663 C 0.17212 0.23354 0.92114 0.0
H3664 H 0.14354 0.28208 0.86666 0.0
H3665 H 0.12522 0.22738 0.86206 0.0
H3666 H 0.1776 0.27237 0.90134 0.0
H3667 H 0.18445 0.277 0.87865 0.0
H3668 H 0.16637 0.28977 0.88849 0.0
H3669 H 0.13996 0.20324 0.8761 0.0
H3670 H 0.16353 0.20657 0.87128 0.0
H3671 H 0.15567 0.20789 0.89402 0.0
H3672 H 0.22025 0.22564 0.86716 0.0
H3673 H 0.20463 0.21718 0.92221 0.0
H3674 H 0.18682 0.25554 0.8544 0.0
H3675 H 0.17785 0.23361 0.84996 0.0
H3676 H 0.2013 0.23817 0.8457 0.0
H3677 H 0.16358 0.2457 0.9194 0.0
H3678 H 0.17938 0.23457 0.93419 0.0
H3679 H 0.16316 0.2216 0.92188 0.0
C3680 C 0.26518 0.71643 0.39541 0.0
C3681 C 0.28408 0.71647 0.39556 0.0
C3682 C 0.25555 0.70124 0.38957 0.0
C3683 C 0.2651 0.68599 0.38325 0.0
C3684 C 0.28412 0.6854 0.38491 0.0
C3685 C 0.29338 0.70061 0.39128 0.0
C3686 C 0.23526 0.70213 0.38869 0.0
C3687 C 0.29485 0.66948 0.3782 0.0
C3688 C 0.24315 0.6422 0.36808 0.0
C3689 C 0.24211 0.6449 0.34938 0.0
C3690 C 0.24969 0.65581 0.37953 0.0
C3691 C 0.25575 0.67227 0.37202 0.0
C3692 C 0.25403 0.6753 0.35326 0.0
C3693 C 0.24703 0.66169 0.34224 0.0
C3694 C 0.25076 0.65231 0.39953 0.0
C3695 C 0.26047 0.69259 0.34463 0.0
H3696 H 0.25793 0.72861 0.39894 0.0
H3697 H 0.30799 0.70057 0.39135 0.0
H3698 H 0.23101 0.70493 0.37464 0.0
H3699 H 0.22918 0.68909 0.39275 0.0
H3700 H 0.22981 0.71296 0.39747 0.0
H3701 H 0.30919 0.67016 0.38245 0.0
H3702 H 0.28898 0.65667 0.38317 0.0
H3703 H 0.29437 0.66915 0.36326 0.0
H3704 H 0.23926 0.6293 0.37372 0.0
H3705 H 0.24631 0.66392 0.32783 0.0
H3706 H 0.24605 0.66423 0.40723 0.0
H3707 H 0.26496 0.64979 0.4034 0.0
H3708 H 0.2426 0.64042 0.40355 0.0
H3709 H 0.25365 0.70433 0.35087 0.0
H3710 H 0.25791 0.69292 0.32989 0.0
H3711 H 0.27517 0.69421 0.34692 0.0
C3712 C 0.75304 0.33737 0.34506 0.0
C3713 C 0.75777 0.35373 0.35323 0.0
C3714 C 0.74664 0.32287 0.35529 0.0
C3715 C 0.7453 0.32459 0.37424 0.0
C3716 C 0.75116 0.34063 0.38272 0.0
C3717 C 0.75714 0.35512 0.37208 0.0
C3718 C 0.7404 0.30604 0.34566 0.0
C3719 C 0.75045 0.34276 0.40293 0.0
C3720 C 0.70864 0.29434 0.39236 0.0
C3721 C 0.71831 0.27844 0.39556 0.0
C3722 C 0.71747 0.31008 0.38675 0.0
C3723 C 0.73645 0.30998 0.38472 0.0
C3724 C 0.74642 0.29459 0.38995 0.0
C3725 C 0.73721 0.2789 0.39512 0.0
C3726 C 0.7063 0.32616 0.38123 0.0
C3727 C 0.7667 0.29417 0.38862 0.0
H3728 H 0.75347 0.33615 0.33051 0.0
H3729 H 0.7609 0.36769 0.37851 0.0
H3730 H 0.74753 0.29406 0.35105 0.0
H3731 H 0.72578 0.30399 0.34803 0.0
H3732 H 0.74276 0.30671 0.33089 0.0
H3733 H 0.75837 0.35458 0.40757 0.0
H3734 H 0.73626 0.34462 0.40724 0.0
H3735 H 0.75563 0.33049 0.40972 0.0
H3736 H 0.69403 0.2941 0.39271 0.0
H3737 H 0.74478 0.26671 0.39783 0.0
H3738 H 0.70649 0.32744 0.36633 0.0
H3739 H 0.71201 0.33875 0.38688 0.0
H3740 H 0.69206 0.32493 0.38568 0.0
H3741 H 0.7707 0.29234 0.37434 0.0
H3742 H 0.77255 0.28293 0.3966 0.0
H3743 H 0.77262 0.30706 0.39336 0.0
loop_
_geom_bond_atom_site_label_1
_geom_bond_atom_site_label_2
_geom_bond_distance
_geom_bond_site_symmetry_2
_ccdc_geom_bond_type
O0 Cd1 2.223 . S
O0 C8 1.315 . S
Cd1 O0 2.223 . S
Cd1 O4 2.297 . S
Cd1 O5 2.439 . S
Cd1 O11 2.240 . S
Cd2 O3 2.240 . S
Cd2 O10 2.223 . S
Cd2 O12 2.297 . S
Cd2 O13 2.439 . S
O3 Cd2 2.240 . S
O3 C8 1.279 . S
O4 Cd1 2.297 . S
O4 C6 1.247 . S
O5 Cd1 2.439 . S
O5 C6 1.208 . S
C6 O4 1.247 . S
C6 O5 1.208 . S
C7 O12 1.247 . S
C7 O13 1.208 . S
C8 O0 1.315 . S
C8 O3 1.279 . S
C9 O10 1.315 . S
C9 O11 1.279 . S
O10 Cd2 2.223 . S
O10 C9 1.315 . S
O11 Cd1 2.240 . S
O11 C9 1.279 . S
O12 Cd2 2.297 . S
O12 C7 1.247 . S
O13 Cd2 2.439 . S
O13 C7 1.208 . S
O14 Cd15 2.223 . S
O14 C22 1.315 . S
Cd15 O14 2.223 . S
Cd15 O18 2.297 . S
Cd15 O19 2.439 . S
Cd15 O25 2.240 . S
Cd16 O17 2.240 . S
Cd16 O24 2.223 . S
Cd16 O26 2.297 . S
Cd16 O27 2.439 . S
O17 Cd16 2.240 . S
O17 C22 1.279 . S
O18 Cd15 2.297 . S
O18 C20 1.247 . S
O19 Cd15 2.439 . S
O19 C20 1.208 . S
C20 O18 1.247 . S
C20 O19 1.208 . S
C21 O26 1.247 . S
C21 O27 1.208 . S
C22 O14 1.315 . S
C22 O17 1.279 . S
C23 O24 1.315 . S
C23 O25 1.279 . S
O24 Cd16 2.223 . S
O24 C23 1.315 . S
O25 Cd15 2.240 . S
O25 C23 1.279 . S
O26 Cd16 2.297 . S
O26 C21 1.247 . S
O27 Cd16 2.439 . S
O27 C21 1.208 . S
O28 Cd29 2.223 . S
O28 C36 1.315 . S
Cd29 O28 2.223 . S
Cd29 O32 2.297 . S
Cd29 O33 2.439 . S
Cd29 O39 2.240 . S
Cd30 O31 2.240 . S
Cd30 O38 2.223 . S
Cd30 O40 2.297 . S
Cd30 O41 2.439 . S
O31 Cd30 2.240 . S
O31 C36 1.279 . S
O32 Cd29 2.297 . S
O32 C34 1.247 . S
O33 Cd29 2.439 . S
O33 C34 1.208 . S
C34 O32 1.247 . S
C34 O33 1.208 . S
C35 O40 1.247 . S
C35 O41 1.208 . S
C36 O28 1.315 . S
C36 O31 1.279 . S
C37 O38 1.315 . S
C37 O39 1.279 . S
O38 Cd30 2.223 . S
O38 C37 1.315 . S
O39 Cd29 2.240 . S
O39 C37 1.279 . S
O40 Cd30 2.297 . S
O40 C35 1.247 . S
O41 Cd30 2.439 . S
O41 C35 1.208 . S
O42 Cd43 2.223 . S
O42 C50 1.315 . S
Cd43 O42 2.223 . S
Cd43 O46 2.297 . S
Cd43 O47 2.439 . S
Cd43 O53 2.240 . S
Cd44 O45 2.240 . S
Cd44 O52 2.223 . S
Cd44 O54 2.297 . S
Cd44 O55 2.439 . S
O45 Cd44 2.240 . S
O45 C50 1.279 . S
O46 Cd43 2.297 . S
O46 C48 1.247 . S
O47 Cd43 2.439 . S
O47 C48 1.208 . S
C48 O46 1.247 . S
C48 O47 1.208 . S
C49 O54 1.247 . S
C49 O55 1.208 . S
C50 O42 1.315 . S
C50 O45 1.279 . S
C51 O52 1.315 . S
C51 O53 1.279 . S
O52 Cd44 2.223 . S
O52 C51 1.315 . S
O53 Cd43 2.240 . S
O53 C51 1.279 . S
O54 Cd44 2.297 . S
O54 C49 1.247 . S
O55 Cd44 2.439 . S
O55 C49 1.208 . S
O56 Cd57 2.223 . S
O56 C64 1.315 . S
Cd57 O56 2.223 . S
Cd57 O60 2.297 . S
Cd57 O61 2.439 . S
Cd57 O67 2.240 . S
Cd58 O59 2.240 . S
Cd58 O66 2.223 . S
Cd58 O68 2.297 . S
Cd58 O69 2.439 . S
O59 Cd58 2.240 . S
O59 C64 1.279 . S
O60 Cd57 2.297 . S
O60 C62 1.247 . S
O61 Cd57 2.439 . S
O61 C62 1.208 . S
C62 O60 1.247 . S
C62 O61 1.208 . S
C63 O68 1.247 . S
C63 O69 1.208 . S
C64 O56 1.315 . S
C64 O59 1.279 . S
C65 O66 1.315 . S
C65 O67 1.279 . S
O66 Cd58 2.223 . S
O66 C65 1.315 . S
O67 Cd57 2.240 . S
O67 C65 1.279 . S
O68 Cd58 2.297 . S
O68 C63 1.247 . S
O69 Cd58 2.439 . S
O69 C63 1.208 . S
O70 Cd71 2.223 . S
O70 C78 1.315 . S
Cd71 O70 2.223 . S
Cd71 O74 2.297 . S
Cd71 O75 2.439 . S
Cd71 O81 2.240 . S
Cd72 O73 2.240 . S
Cd72 O80 2.223 . S
Cd72 O82 2.297 . S
Cd72 O83 2.439 . S
O73 Cd72 2.240 . S
O73 C78 1.279 . S
O74 Cd71 2.297 . S
O74 C76 1.247 . S
O75 Cd71 2.439 . S
O75 C76 1.208 . S
C76 O74 1.247 . S
C76 O75 1.208 . S
C77 O82 1.247 . S
C77 O83 1.208 . S
C78 O70 1.315 . S
C78 O73 1.279 . S
C79 O80 1.315 . S
C79 O81 1.279 . S
O80 Cd72 2.223 . S
O80 C79 1.315 . S
O81 Cd71 2.240 . S
O81 C79 1.279 . S
O82 Cd72 2.297 . S
O82 C77 1.247 . S
O83 Cd72 2.439 . S
O83 C77 1.208 . S
O84 Cd85 2.223 . S
O84 C92 1.315 . S
Cd85 O84 2.223 . S
Cd85 O88 2.297 . S
Cd85 O89 2.439 . S
Cd85 O95 2.240 . S
Cd86 O87 2.240 . S
Cd86 O94 2.223 . S
Cd86 O96 2.297 . S
Cd86 O97 2.439 . S
O87 Cd86 2.240 . S
O87 C92 1.279 . S
O88 Cd85 2.297 . S
O88 C90 1.247 . S
O89 Cd85 2.439 . S
O89 C90 1.208 . S
C90 O88 1.247 . S
C90 O89 1.208 . S
C91 O96 1.247 . S
C91 O97 1.208 . S
C92 O84 1.315 . S
C92 O87 1.279 . S
C93 O94 1.315 . S
C93 O95 1.279 . S
O94 Cd86 2.223 . S
O94 C93 1.315 . S
O95 Cd85 2.240 . S
O95 C93 1.279 . S
O96 Cd86 2.297 . S
O96 C91 1.247 . S
O97 Cd86 2.439 . S
O97 C91 1.208 . S
O98 Cd99 2.223 . S
O98 C106 1.315 . S
Cd99 O98 2.223 . S
Cd99 O102 2.297 . S
Cd99 O103 2.439 . S
Cd99 O109 2.240 . S
Cd100 O101 2.240 . S
Cd100 O108 2.223 . S
Cd100 O110 2.297 . S
Cd100 O111 2.439 . S
O101 Cd100 2.240 . S
O101 C106 1.279 . S
O102 Cd99 2.297 . S
O102 C104 1.247 . S
O103 Cd99 2.439 . S
O103 C104 1.208 . S
C104 O102 1.247 . S
C104 O103 1.208 . S
C105 O110 1.247 . S
C105 O111 1.208 . S
C106 O98 1.315 . S
C106 O101 1.279 . S
C107 O108 1.315 . S
C107 O109 1.279 . S
O108 Cd100 2.223 . S
O108 C107 1.315 . S
O109 Cd99 2.240 . S
O109 C107 1.279 . S
O110 Cd100 2.297 . S
O110 C105 1.247 . S
O111 Cd100 2.439 . S
O111 C105 1.208 . S
O112 Cd113 2.223 . S
O112 C120 1.315 . S
Cd113 O112 2.223 . S
Cd113 O116 2.297 . S
Cd113 O117 2.439 . S
Cd113 O123 2.240 . S
Cd114 O115 2.240 . S
Cd114 O122 2.223 . S
Cd114 O124 2.297 . S
Cd114 O125 2.439 . S
O115 Cd114 2.240 . S
O115 C120 1.279 . S
O116 Cd113 2.297 . S
O116 C118 1.247 . S
O117 Cd113 2.439 . S
O117 C118 1.208 . S
C118 O116 1.247 . S
C118 O117 1.208 . S
C119 O124 1.247 . S
C119 O125 1.208 . S
C120 O112 1.315 . S
C120 O115 1.279 . S
C121 O122 1.315 . S
C121 O123 1.279 . S
O122 Cd114 2.223 . S
O122 C121 1.315 . S
O123 Cd113 2.240 . S
O123 C121 1.279 . S
O124 Cd114 2.297 . S
O124 C119 1.247 . S
O125 Cd114 2.439 . S
O125 C119 1.208 . S
O126 Cd127 2.223 . S
O126 C134 1.315 . S
Cd127 O126 2.223 . S
Cd127 O130 2.297 . S
Cd127 O131 2.439 . S
Cd127 O137 2.240 . S
Cd128 O129 2.240 . S
Cd128 O136 2.223 . S
Cd128 O138 2.297 . S
Cd128 O139 2.439 . S
O129 Cd128 2.240 . S
O129 C134 1.279 . S
O130 Cd127 2.297 . S
O130 C132 1.247 . S
O131 Cd127 2.439 . S
O131 C132 1.208 . S
C132 O130 1.247 . S
C132 O131 1.208 . S
C133 O138 1.247 . S
C133 O139 1.208 . S
C134 O126 1.315 . S
C134 O129 1.279 . S
C135 O136 1.315 . S
C135 O137 1.279 . S
O136 Cd128 2.223 . S
O136 C135 1.315 . S
O137 Cd127 2.240 . S
O137 C135 1.279 . S
O138 Cd128 2.297 . S
O138 C133 1.247 . S
O139 Cd128 2.439 . S
O139 C133 1.208 . S
O140 Cd141 2.223 . S
O140 C148 1.315 . S
Cd141 O140 2.223 . S
Cd141 O144 2.297 . S
Cd141 O145 2.439 . S
Cd141 O151 2.240 . S
Cd142 O143 2.240 . S
Cd142 O150 2.223 . S
Cd142 O152 2.297 . S
Cd142 O153 2.439 . S
O143 Cd142 2.240 . S
O143 C148 1.279 . S
O144 Cd141 2.297 . S
O144 C146 1.247 . S
O145 Cd141 2.439 . S
O145 C146 1.208 . S
C146 O144 1.247 . S
C146 O145 1.208 . S
C147 O152 1.247 . S
C147 O153 1.208 . S
C148 O140 1.315 . S
C148 O143 1.279 . S
C149 O150 1.315 . S
C149 O151 1.279 . S
O150 Cd142 2.223 . S
O150 C149 1.315 . S
O151 Cd141 2.240 . S
O151 C149 1.279 . S
O152 Cd142 2.297 . S
O152 C147 1.247 . S
O153 Cd142 2.439 . S
O153 C147 1.208 . S
O154 Cd155 2.223 . S
O154 C162 1.315 . S
Cd155 O154 2.223 . S
Cd155 O158 2.297 . S
Cd155 O159 2.439 . S
Cd155 O165 2.240 . S
Cd156 O157 2.240 . S
Cd156 O164 2.223 . S
Cd156 O166 2.297 . S
Cd156 O167 2.439 . S
O157 Cd156 2.240 . S
O157 C162 1.279 . S
O158 Cd155 2.297 . S
O158 C160 1.247 . S
O159 Cd155 2.439 . S
O159 C160 1.208 . S
C160 O158 1.247 . S
C160 O159 1.208 . S
C161 O166 1.247 . S
C161 O167 1.208 . S
C162 O154 1.315 . S
C162 O157 1.279 . S
C163 O164 1.315 . S
C163 O165 1.279 . S
O164 Cd156 2.223 . S
O164 C163 1.315 . S
O165 Cd155 2.240 . S
O165 C163 1.279 . S
O166 Cd156 2.297 . S
O166 C161 1.247 . S
O167 Cd156 2.439 . S
O167 C161 1.208 . S
O168 Cd169 2.223 . S
O168 C176 1.315 . S
Cd169 O168 2.223 . S
Cd169 O172 2.297 . S
Cd169 O173 2.439 . S
Cd169 O179 2.240 . S
Cd170 O171 2.240 . S
Cd170 O178 2.223 . S
Cd170 O180 2.297 . S
Cd170 O181 2.439 . S
O171 Cd170 2.240 . S
O171 C176 1.279 . S
O172 Cd169 2.297 . S
O172 C174 1.247 . S
O173 Cd169 2.439 . S
O173 C174 1.208 . S
C174 O172 1.247 . S
C174 O173 1.208 . S
C175 O180 1.247 . S
C175 O181 1.208 . S
C176 O168 1.315 . S
C176 O171 1.279 . S
C177 O178 1.315 . S
C177 O179 1.279 . S
O178 Cd170 2.223 . S
O178 C177 1.315 . S
O179 Cd169 2.240 . S
O179 C177 1.279 . S
O180 Cd170 2.297 . S
O180 C175 1.247 . S
O181 Cd170 2.439 . S
O181 C175 1.208 . S
O182 Cd183 2.223 . S
O182 C190 1.315 . S
Cd183 O182 2.223 . S
Cd183 O186 2.297 . S
Cd183 O187 2.439 . S
Cd183 O193 2.240 . S
Cd184 O185 2.240 . S
Cd184 O192 2.223 . S
Cd184 O194 2.297 . S
Cd184 O195 2.439 . S
O185 Cd184 2.240 . S
O185 C190 1.279 . S
O186 Cd183 2.297 . S
O186 C188 1.247 . S
O187 Cd183 2.439 . S
O187 C188 1.208 . S
C188 O186 1.247 . S
C188 O187 1.208 . S
C189 O194 1.247 . S
C189 O195 1.208 . S
C190 O182 1.315 . S
C190 O185 1.279 . S
C191 O192 1.315 . S
C191 O193 1.279 . S
O192 Cd184 2.223 . S
O192 C191 1.315 . S
O193 Cd183 2.240 . S
O193 C191 1.279 . S
O194 Cd184 2.297 . S
O194 C189 1.247 . S
O195 Cd184 2.439 . S
O195 C189 1.208 . S
O196 Cd197 2.223 . S
O196 C204 1.315 . S
Cd197 O196 2.223 . S
Cd197 O200 2.297 . S
Cd197 O201 2.439 . S
Cd197 O207 2.240 . S
Cd198 O199 2.240 . S
Cd198 O206 2.223 . S
Cd198 O208 2.297 . S
Cd198 O209 2.439 . S
O199 Cd198 2.240 . S
O199 C204 1.279 . S
O200 Cd197 2.297 . S
O200 C202 1.247 . S
O201 Cd197 2.439 . S
O201 C202 1.208 . S
C202 O200 1.247 . S
C202 O201 1.208 . S
C203 O208 1.247 . S
C203 O209 1.208 . S
C204 O196 1.315 . S
C204 O199 1.279 . S
C205 O206 1.315 . S
C205 O207 1.279 . S
O206 Cd198 2.223 . S
O206 C205 1.315 . S
O207 Cd197 2.240 . S
O207 C205 1.279 . S
O208 Cd198 2.297 . S
O208 C203 1.247 . S
O209 Cd198 2.439 . S
O209 C203 1.208 . S
O210 Cd211 2.223 . S
O210 C218 1.315 . S
Cd211 O210 2.223 . S
Cd211 O214 2.297 . S
Cd211 O215 2.439 . S
Cd211 O221 2.240 . S
Cd212 O213 2.240 . S
Cd212 O220 2.223 . S
Cd212 O222 2.297 . S
Cd212 O223 2.439 . S
O213 Cd212 2.240 . S
O213 C218 1.279 . S
O214 Cd211 2.297 . S
O214 C216 1.247 . S
O215 Cd211 2.439 . S
O215 C216 1.208 . S
C216 O214 1.247 . S
C216 O215 1.208 . S
C217 O222 1.247 . S
C217 O223 1.208 . S
C218 O210 1.315 . S
C218 O213 1.279 . S
C219 O220 1.315 . S
C219 O221 1.279 . S
O220 Cd212 2.223 . S
O220 C219 1.315 . S
O221 Cd211 2.240 . S
O221 C219 1.279 . S
O222 Cd212 2.297 . S
O222 C217 1.247 . S
O223 Cd212 2.439 . S
O223 C217 1.208 . S
O224 Cd225 2.223 . S
O224 C232 1.315 . S
Cd225 O224 2.223 . S
Cd225 O228 2.297 . S
Cd225 O229 2.439 . S
Cd225 O235 2.240 . S
Cd226 O227 2.240 . S
Cd226 O234 2.223 . S
Cd226 O236 2.297 . S
Cd226 O237 2.439 . S
O227 Cd226 2.240 . S
O227 C232 1.279 . S
O228 Cd225 2.297 . S
O228 C230 1.247 . S
O229 Cd225 2.439 . S
O229 C230 1.208 . S
C230 O228 1.247 . S
C230 O229 1.208 . S
C231 O236 1.247 . S
C231 O237 1.208 . S
C232 O224 1.315 . S
C232 O227 1.279 . S
C233 O234 1.315 . S
C233 O235 1.279 . S
O234 Cd226 2.223 . S
O234 C233 1.315 . S
O235 Cd225 2.240 . S
O235 C233 1.279 . S
O236 Cd226 2.297 . S
O236 C231 1.247 . S
O237 Cd226 2.439 . S
O237 C231 1.208 . S
O238 Cd239 2.223 . S
O238 C246 1.315 . S
Cd239 O238 2.223 . S
Cd239 O242 2.297 . S
Cd239 O243 2.439 . S
Cd239 O249 2.240 . S
Cd240 O241 2.240 . S
Cd240 O248 2.223 . S
Cd240 O250 2.297 . S
Cd240 O251 2.439 . S
O241 Cd240 2.240 . S
O241 C246 1.279 . S
O242 Cd239 2.297 . S
O242 C244 1.247 . S
O243 Cd239 2.439 . S
O243 C244 1.208 . S
C244 O242 1.247 . S
C244 O243 1.208 . S
C245 O250 1.247 . S
C245 O251 1.208 . S
C246 O238 1.315 . S
C246 O241 1.279 . S
C247 O248 1.315 . S
C247 O249 1.279 . S
O248 Cd240 2.223 . S
O248 C247 1.315 . S
O249 Cd239 2.240 . S
O249 C247 1.279 . S
O250 Cd240 2.297 . S
O250 C245 1.247 . S
O251 Cd240 2.439 . S
O251 C245 1.208 . S
O252 Cd253 2.223 . S
O252 C260 1.315 . S
Cd253 O252 2.223 . S
Cd253 O256 2.297 . S
Cd253 O257 2.439 . S
Cd253 O263 2.240 . S
Cd254 O255 2.240 . S
Cd254 O262 2.223 . S
Cd254 O264 2.297 . S
Cd254 O265 2.439 . S
O255 Cd254 2.240 . S
O255 C260 1.279 . S
O256 Cd253 2.297 . S
O256 C258 1.247 . S
O257 Cd253 2.439 . S
O257 C258 1.208 . S
C258 O256 1.247 . S
C258 O257 1.208 . S
C259 O264 1.247 . S
C259 O265 1.208 . S
C260 O252 1.315 . S
C260 O255 1.279 . S
C261 O262 1.315 . S
C261 O263 1.279 . S
O262 Cd254 2.223 . S
O262 C261 1.315 . S
O263 Cd253 2.240 . S
O263 C261 1.279 . S
O264 Cd254 2.297 . S
O264 C259 1.247 . S
O265 Cd254 2.439 . S
O265 C259 1.208 . S
O266 Cd267 2.223 . S
O266 C274 1.315 . S
Cd267 O266 2.223 . S
Cd267 O270 2.297 . S
Cd267 O271 2.439 . S
Cd267 O277 2.240 . S
Cd268 O269 2.240 . S
Cd268 O276 2.223 . S
Cd268 O278 2.297 . S
Cd268 O279 2.439 . S
O269 Cd268 2.240 . S
O269 C274 1.279 . S
O270 Cd267 2.297 . S
O270 C272 1.247 . S
O271 Cd267 2.439 . S
O271 C272 1.208 . S
C272 O270 1.247 . S
C272 O271 1.208 . S
C273 O278 1.247 . S
C273 O279 1.208 . S
C274 O266 1.315 . S
C274 O269 1.279 . S
C275 O276 1.315 . S
C275 O277 1.279 . S
O276 Cd268 2.223 . S
O276 C275 1.315 . S
O277 Cd267 2.240 . S
O277 C275 1.279 . S
O278 Cd268 2.297 . S
O278 C273 1.247 . S
O279 Cd268 2.439 . S
O279 C273 1.208 . S
O280 Cd281 2.223 . S
O280 C288 1.315 . S
Cd281 O280 2.223 . S
Cd281 O284 2.297 . S
Cd281 O285 2.439 . S
Cd281 O291 2.240 . S
Cd282 O283 2.240 . S
Cd282 O290 2.223 . S
Cd282 O292 2.297 . S
Cd282 O293 2.439 . S
O283 Cd282 2.240 . S
O283 C288 1.279 . S
O284 Cd281 2.297 . S
O284 C286 1.247 . S
O285 Cd281 2.439 . S
O285 C286 1.208 . S
C286 O284 1.247 . S
C286 O285 1.208 . S
C287 O292 1.247 . S
C287 O293 1.208 . S
C288 O280 1.315 . S
C288 O283 1.279 . S
C289 O290 1.315 . S
C289 O291 1.279 . S
O290 Cd282 2.223 . S
O290 C289 1.315 . S
O291 Cd281 2.240 . S
O291 C289 1.279 . S
O292 Cd282 2.297 . S
O292 C287 1.247 . S
O293 Cd282 2.439 . S
O293 C287 1.208 . S
O294 Cd295 2.223 . S
O294 C302 1.315 . S
Cd295 O294 2.223 . S
Cd295 O298 2.297 . S
Cd295 O299 2.439 . S
Cd295 O305 2.240 . S
Cd296 O297 2.240 . S
Cd296 O304 2.223 . S
Cd296 O306 2.297 . S
Cd296 O307 2.439 . S
O297 Cd296 2.240 . S
O297 C302 1.279 . S
O298 Cd295 2.297 . S
O298 C300 1.247 . S
O299 Cd295 2.439 . S
O299 C300 1.208 . S
C300 O298 1.247 . S
C300 O299 1.208 . S
C301 O306 1.247 . S
C301 O307 1.208 . S
C302 O294 1.315 . S
C302 O297 1.279 . S
C303 O304 1.315 . S
C303 O305 1.279 . S
O304 Cd296 2.223 . S
O304 C303 1.315 . S
O305 Cd295 2.240 . S
O305 C303 1.279 . S
O306 Cd296 2.297 . S
O306 C301 1.247 . S
O307 Cd296 2.439 . S
O307 C301 1.208 . S
O308 Cd309 2.223 . S
O308 C316 1.315 . S
Cd309 O308 2.223 . S
Cd309 O312 2.297 . S
Cd309 O313 2.439 . S
Cd309 O319 2.240 . S
Cd310 O311 2.240 . S
Cd310 O318 2.223 . S
Cd310 O320 2.297 . S
Cd310 O321 2.439 . S
O311 Cd310 2.240 . S
O311 C316 1.279 . S
O312 Cd309 2.297 . S
O312 C314 1.247 . S
O313 Cd309 2.439 . S
O313 C314 1.208 . S
C314 O312 1.247 . S
C314 O313 1.208 . S
C315 O320 1.247 . S
C315 O321 1.208 . S
C316 O308 1.315 . S
C316 O311 1.279 . S
C317 O318 1.315 . S
C317 O319 1.279 . S
O318 Cd310 2.223 . S
O318 C317 1.315 . S
O319 Cd309 2.240 . S
O319 C317 1.279 . S
O320 Cd310 2.297 . S
O320 C315 1.247 . S
O321 Cd310 2.439 . S
O321 C315 1.208 . S
O322 Cd323 2.223 . S
O322 C330 1.315 . S
Cd323 O322 2.223 . S
Cd323 O326 2.297 . S
Cd323 O327 2.439 . S
Cd323 O333 2.240 . S
Cd324 O325 2.240 . S
Cd324 O332 2.223 . S
Cd324 O334 2.297 . S
Cd324 O335 2.439 . S
O325 Cd324 2.240 . S
O325 C330 1.279 . S
O326 Cd323 2.297 . S
O326 C328 1.247 . S
O327 Cd323 2.439 . S
O327 C328 1.208 . S
C328 O326 1.247 . S
C328 O327 1.208 . S
C329 O334 1.247 . S
C329 O335 1.208 . S
C330 O322 1.315 . S
C330 O325 1.279 . S
C331 O332 1.315 . S
C331 O333 1.279 . S
O332 Cd324 2.223 . S
O332 C331 1.315 . S
O333 Cd323 2.240 . S
O333 C331 1.279 . S
O334 Cd324 2.297 . S
O334 C329 1.247 . S
O335 Cd324 2.439 . S
O335 C329 1.208 . S
O336 Cd337 2.223 . S
O336 C344 1.315 . S
Cd337 O336 2.223 . S
Cd337 O340 2.297 . S
Cd337 O341 2.439 . S
Cd337 O347 2.240 . S
Cd338 O339 2.240 . S
Cd338 O346 2.223 . S
Cd338 O348 2.297 . S
Cd338 O349 2.439 . S
O339 Cd338 2.240 . S
O339 C344 1.279 . S
O340 Cd337 2.297 . S
O340 C342 1.247 . S
O341 Cd337 2.439 . S
O341 C342 1.208 . S
C342 O340 1.247 . S
C342 O341 1.208 . S
C343 O348 1.247 . S
C343 O349 1.208 . S
C344 O336 1.315 . S
C344 O339 1.279 . S
C345 O346 1.315 . S
C345 O347 1.279 . S
O346 Cd338 2.223 . S
O346 C345 1.315 . S
O347 Cd337 2.240 . S
O347 C345 1.279 . S
O348 Cd338 2.297 . S
O348 C343 1.247 . S
O349 Cd338 2.439 . S
O349 C343 1.208 . S
O350 Cd351 2.223 . S
O350 C358 1.315 . S
Cd351 O350 2.223 . S
Cd351 O354 2.297 . S
Cd351 O355 2.439 . S
Cd351 O361 2.240 . S
Cd352 O353 2.240 . S
Cd352 O360 2.223 . S
Cd352 O362 2.297 . S
Cd352 O363 2.439 . S
O353 Cd352 2.240 . S
O353 C358 1.279 . S
O354 Cd351 2.297 . S
O354 C356 1.247 . S
O355 Cd351 2.439 . S
O355 C356 1.208 . S
C356 O354 1.247 . S
C356 O355 1.208 . S
C357 O362 1.247 . S
C357 O363 1.208 . S
C358 O350 1.315 . S
C358 O353 1.279 . S
C359 O360 1.315 . S
C359 O361 1.279 . S
O360 Cd352 2.223 . S
O360 C359 1.315 . S
O361 Cd351 2.240 . S
O361 C359 1.279 . S
O362 Cd352 2.297 . S
O362 C357 1.247 . S
O363 Cd352 2.439 . S
O363 C357 1.208 . S
O364 Cd365 2.223 . S
O364 C372 1.315 . S
Cd365 O364 2.223 . S
Cd365 O368 2.297 . S
Cd365 O369 2.439 . S
Cd365 O375 2.240 . S
Cd366 O367 2.240 . S
Cd366 O374 2.223 . S
Cd366 O376 2.297 . S
Cd366 O377 2.439 . S
O367 Cd366 2.240 . S
O367 C372 1.279 . S
O368 Cd365 2.297 . S
O368 C370 1.247 . S
O369 Cd365 2.439 . S
O369 C370 1.208 . S
C370 O368 1.247 . S
C370 O369 1.208 . S
C371 O376 1.247 . S
C371 O377 1.208 . S
C372 O364 1.315 . S
C372 O367 1.279 . S
C373 O374 1.315 . S
C373 O375 1.279 . S
O374 Cd366 2.223 . S
O374 C373 1.315 . S
O375 Cd365 2.240 . S
O375 C373 1.279 . S
O376 Cd366 2.297 . S
O376 C371 1.247 . S
O377 Cd366 2.439 . S
O377 C371 1.208 . S
O378 Cd379 2.223 . S
O378 C386 1.315 . S
Cd379 O378 2.223 . S
Cd379 O382 2.297 . S
Cd379 O383 2.439 . S
Cd379 O389 2.240 . S
Cd380 O381 2.240 . S
Cd380 O388 2.223 . S
Cd380 O390 2.297 . S
Cd380 O391 2.439 . S
O381 Cd380 2.240 . S
O381 C386 1.279 . S
O382 Cd379 2.297 . S
O382 C384 1.247 . S
O383 Cd379 2.439 . S
O383 C384 1.208 . S
C384 O382 1.247 . S
C384 O383 1.208 . S
C385 O390 1.247 . S
C385 O391 1.208 . S
C386 O378 1.315 . S
C386 O381 1.279 . S
C387 O388 1.315 . S
C387 O389 1.279 . S
O388 Cd380 2.223 . S
O388 C387 1.315 . S
O389 Cd379 2.240 . S
O389 C387 1.279 . S
O390 Cd380 2.297 . S
O390 C385 1.247 . S
O391 Cd380 2.439 . S
O391 C385 1.208 . S
O392 Cd393 2.223 . S
O392 C400 1.315 . S
Cd393 O392 2.223 . S
Cd393 O396 2.297 . S
Cd393 O397 2.439 . S
Cd393 O403 2.240 . S
Cd394 O395 2.240 . S
Cd394 O402 2.223 . S
Cd394 O404 2.297 . S
Cd394 O405 2.439 . S
O395 Cd394 2.240 . S
O395 C400 1.279 . S
O396 Cd393 2.297 . S
O396 C398 1.247 . S
O397 Cd393 2.439 . S
O397 C398 1.208 . S
C398 O396 1.247 . S
C398 O397 1.208 . S
C399 O404 1.247 . S
C399 O405 1.208 . S
C400 O392 1.315 . S
C400 O395 1.279 . S
C401 O402 1.315 . S
C401 O403 1.279 . S
O402 Cd394 2.223 . S
O402 C401 1.315 . S
O403 Cd393 2.240 . S
O403 C401 1.279 . S
O404 Cd394 2.297 . S
O404 C399 1.247 . S
O405 Cd394 2.439 . S
O405 C399 1.208 . S
O406 Cd407 2.223 . S
O406 C414 1.315 . S
Cd407 O406 2.223 . S
Cd407 O410 2.297 . S
Cd407 O411 2.439 . S
Cd407 O417 2.240 . S
Cd408 O409 2.240 . S
Cd408 O416 2.223 . S
Cd408 O418 2.297 . S
Cd408 O419 2.439 . S
O409 Cd408 2.240 . S
O409 C414 1.279 . S
O410 Cd407 2.297 . S
O410 C412 1.247 . S
O411 Cd407 2.439 . S
O411 C412 1.208 . S
C412 O410 1.247 . S
C412 O411 1.208 . S
C413 O418 1.247 . S
C413 O419 1.208 . S
C414 O406 1.315 . S
C414 O409 1.279 . S
C415 O416 1.315 . S
C415 O417 1.279 . S
O416 Cd408 2.223 . S
O416 C415 1.315 . S
O417 Cd407 2.240 . S
O417 C415 1.279 . S
O418 Cd408 2.297 . S
O418 C413 1.247 . S
O419 Cd408 2.439 . S
O419 C413 1.208 . S
O420 Cd421 2.223 . S
O420 C428 1.315 . S
Cd421 O420 2.223 . S
Cd421 O424 2.297 . S
Cd421 O425 2.439 . S
Cd421 O431 2.240 . S
Cd422 O423 2.240 . S
Cd422 O430 2.223 . S
Cd422 O432 2.297 . S
Cd422 O433 2.439 . S
O423 Cd422 2.240 . S
O423 C428 1.279 . S
O424 Cd421 2.297 . S
O424 C426 1.247 . S
O425 Cd421 2.439 . S
O425 C426 1.208 . S
C426 O424 1.247 . S
C426 O425 1.208 . S
C427 O432 1.247 . S
C427 O433 1.208 . S
C428 O420 1.315 . S
C428 O423 1.279 . S
C429 O430 1.315 . S
C429 O431 1.279 . S
O430 Cd422 2.223 . S
O430 C429 1.315 . S
O431 Cd421 2.240 . S
O431 C429 1.279 . S
O432 Cd422 2.297 . S
O432 C427 1.247 . S
O433 Cd422 2.439 . S
O433 C427 1.208 . S
O434 Cd435 2.223 . S
O434 C442 1.315 . S
Cd435 O434 2.223 . S
Cd435 O438 2.297 . S
Cd435 O439 2.439 . S
Cd435 O445 2.240 . S
Cd436 O437 2.240 . S
Cd436 O444 2.223 . S
Cd436 O446 2.297 . S
Cd436 O447 2.439 . S
O437 Cd436 2.240 . S
O437 C442 1.279 . S
O438 Cd435 2.297 . S
O438 C440 1.247 . S
O439 Cd435 2.439 . S
O439 C440 1.208 . S
C440 O438 1.247 . S
C440 O439 1.208 . S
C441 O446 1.247 . S
C441 O447 1.208 . S
C442 O434 1.315 . S
C442 O437 1.279 . S
C443 O444 1.315 . S
C443 O445 1.279 . S
O444 Cd436 2.223 . S
O444 C443 1.315 . S
O445 Cd435 2.240 . S
O445 C443 1.279 . S
O446 Cd436 2.297 . S
O446 C441 1.247 . S
O447 Cd436 2.439 . S
O447 C441 1.208 . S
O448 Cd449 2.223 . S
O448 C456 1.315 . S
Cd449 O448 2.223 . S
Cd449 O452 2.297 . S
Cd449 O453 2.439 . S
Cd449 O459 2.240 . S
Cd450 O451 2.240 . S
Cd450 O458 2.223 . S
Cd450 O460 2.297 . S
Cd450 O461 2.439 . S
O451 Cd450 2.240 . S
O451 C456 1.279 . S
O452 Cd449 2.297 . S
O452 C454 1.247 . S
O453 Cd449 2.439 . S
O453 C454 1.208 . S
C454 O452 1.247 . S
C454 O453 1.208 . S
C455 O460 1.247 . S
C455 O461 1.208 . S
C456 O448 1.315 . S
C456 O451 1.279 . S
C457 O458 1.315 . S
C457 O459 1.279 . S
O458 Cd450 2.223 . S
O458 C457 1.315 . S
O459 Cd449 2.240 . S
O459 C457 1.279 . S
O460 Cd450 2.297 . S
O460 C455 1.247 . S
O461 Cd450 2.439 . S
O461 C455 1.208 . S
O462 Cd463 2.223 . S
O462 C470 1.315 . S
Cd463 O462 2.223 . S
Cd463 O466 2.297 . S
Cd463 O467 2.439 . S
Cd463 O473 2.240 . S
Cd464 O465 2.240 . S
Cd464 O472 2.223 . S
Cd464 O474 2.297 . S
Cd464 O475 2.439 . S
O465 Cd464 2.240 . S
O465 C470 1.279 . S
O466 Cd463 2.297 . S
O466 C468 1.247 . S
O467 Cd463 2.439 . S
O467 C468 1.208 . S
C468 O466 1.247 . S
C468 O467 1.208 . S
C469 O474 1.247 . S
C469 O475 1.208 . S
C470 O462 1.315 . S
C470 O465 1.279 . S
C471 O472 1.315 . S
C471 O473 1.279 . S
O472 Cd464 2.223 . S
O472 C471 1.315 . S
O473 Cd463 2.240 . S
O473 C471 1.279 . S
O474 Cd464 2.297 . S
O474 C469 1.247 . S
O475 Cd464 2.439 . S
O475 C469 1.208 . S
O476 Cd477 2.223 . S
O476 C484 1.315 . S
Cd477 O476 2.223 . S
Cd477 O480 2.297 . S
Cd477 O481 2.439 . S
Cd477 O487 2.240 . S
Cd478 O479 2.240 . S
Cd478 O486 2.223 . S
Cd478 O488 2.297 . S
Cd478 O489 2.439 . S
O479 Cd478 2.240 . S
O479 C484 1.279 . S
O480 Cd477 2.297 . S
O480 C482 1.247 . S
O481 Cd477 2.439 . S
O481 C482 1.208 . S
C482 O480 1.247 . S
C482 O481 1.208 . S
C483 O488 1.247 . S
C483 O489 1.208 . S
C484 O476 1.315 . S
C484 O479 1.279 . S
C485 O486 1.315 . S
C485 O487 1.279 . S
O486 Cd478 2.223 . S
O486 C485 1.315 . S
O487 Cd477 2.240 . S
O487 C485 1.279 . S
O488 Cd478 2.297 . S
O488 C483 1.247 . S
O489 Cd478 2.439 . S
O489 C483 1.208 . S
O490 Cd491 2.223 . S
O490 C498 1.315 . S
Cd491 O490 2.223 . S
Cd491 O494 2.297 . S
Cd491 O495 2.439 . S
Cd491 O501 2.240 . S
Cd492 O493 2.240 . S
Cd492 O500 2.223 . S
Cd492 O502 2.297 . S
Cd492 O503 2.439 . S
O493 Cd492 2.240 . S
O493 C498 1.279 . S
O494 Cd491 2.297 . S
O494 C496 1.247 . S
O495 Cd491 2.439 . S
O495 C496 1.208 . S
C496 O494 1.247 . S
C496 O495 1.208 . S
C497 O502 1.247 . S
C497 O503 1.208 . S
C498 O490 1.315 . S
C498 O493 1.279 . S
C499 O500 1.315 . S
C499 O501 1.279 . S
O500 Cd492 2.223 . S
O500 C499 1.315 . S
O501 Cd491 2.240 . S
O501 C499 1.279 . S
O502 Cd492 2.297 . S
O502 C497 1.247 . S
O503 Cd492 2.439 . S
O503 C497 1.208 . S
O504 Cd505 2.223 . S
O504 C512 1.315 . S
Cd505 O504 2.223 . S
Cd505 O508 2.297 . S
Cd505 O509 2.439 . S
Cd505 O515 2.240 . S
Cd506 O507 2.240 . S
Cd506 O514 2.223 . S
Cd506 O516 2.297 . S
Cd506 O517 2.439 . S
O507 Cd506 2.240 . S
O507 C512 1.279 . S
O508 Cd505 2.297 . S
O508 C510 1.247 . S
O509 Cd505 2.439 . S
O509 C510 1.208 . S
C510 O508 1.247 . S
C510 O509 1.208 . S
C511 O516 1.247 . S
C511 O517 1.208 . S
C512 O504 1.315 . S
C512 O507 1.279 . S
C513 O514 1.315 . S
C513 O515 1.279 . S
O514 Cd506 2.223 . S
O514 C513 1.315 . S
O515 Cd505 2.240 . S
O515 C513 1.279 . S
O516 Cd506 2.297 . S
O516 C511 1.247 . S
O517 Cd506 2.439 . S
O517 C511 1.208 . S
O518 Cd519 2.223 . S
O518 C526 1.315 . S
Cd519 O518 2.223 . S
Cd519 O522 2.297 . S
Cd519 O523 2.439 . S
Cd519 O529 2.240 . S
Cd520 O521 2.240 . S
Cd520 O528 2.223 . S
Cd520 O530 2.297 . S
Cd520 O531 2.439 . S
O521 Cd520 2.240 . S
O521 C526 1.279 . S
O522 Cd519 2.297 . S
O522 C524 1.247 . S
O523 Cd519 2.439 . S
O523 C524 1.208 . S
C524 O522 1.247 . S
C524 O523 1.208 . S
C525 O530 1.247 . S
C525 O531 1.208 . S
C526 O518 1.315 . S
C526 O521 1.279 . S
C527 O528 1.315 . S
C527 O529 1.279 . S
O528 Cd520 2.223 . S
O528 C527 1.315 . S
O529 Cd519 2.240 . S
O529 C527 1.279 . S
O530 Cd520 2.297 . S
O530 C525 1.247 . S
O531 Cd520 2.439 . S
O531 C525 1.208 . S
O532 Cd533 2.223 . S
O532 C540 1.315 . S
Cd533 O532 2.223 . S
Cd533 O536 2.297 . S
Cd533 O537 2.439 . S
Cd533 O543 2.240 . S
Cd534 O535 2.240 . S
Cd534 O542 2.223 . S
Cd534 O544 2.297 . S
Cd534 O545 2.439 . S
O535 Cd534 2.240 . S
O535 C540 1.279 . S
O536 Cd533 2.297 . S
O536 C538 1.247 . S
O537 Cd533 2.439 . S
O537 C538 1.208 . S
C538 O536 1.247 . S
C538 O537 1.208 . S
C539 O544 1.247 . S
C539 O545 1.208 . S
C540 O532 1.315 . S
C540 O535 1.279 . S
C541 O542 1.315 . S
C541 O543 1.279 . S
O542 Cd534 2.223 . S
O542 C541 1.315 . S
O543 Cd533 2.240 . S
O543 C541 1.279 . S
O544 Cd534 2.297 . S
O544 C539 1.247 . S
O545 Cd534 2.439 . S
O545 C539 1.208 . S
O546 Cd547 2.223 . S
O546 C554 1.315 . S
Cd547 O546 2.223 . S
Cd547 O550 2.297 . S
Cd547 O551 2.439 . S
Cd547 O557 2.240 . S
Cd548 O549 2.240 . S
Cd548 O556 2.223 . S
Cd548 O558 2.297 . S
Cd548 O559 2.439 . S
O549 Cd548 2.240 . S
O549 C554 1.279 . S
O550 Cd547 2.297 . S
O550 C552 1.247 . S
O551 Cd547 2.439 . S
O551 C552 1.208 . S
C552 O550 1.247 . S
C552 O551 1.208 . S
C553 O558 1.247 . S
C553 O559 1.208 . S
C554 O546 1.315 . S
C554 O549 1.279 . S
C555 O556 1.315 . S
C555 O557 1.279 . S
O556 Cd548 2.223 . S
O556 C555 1.315 . S
O557 Cd547 2.240 . S
O557 C555 1.279 . S
O558 Cd548 2.297 . S
O558 C553 1.247 . S
O559 Cd548 2.439 . S
O559 C553 1.208 . S
O560 Cd561 2.223 . S
O560 C568 1.315 . S
Cd561 O560 2.223 . S
Cd561 O564 2.297 . S
Cd561 O565 2.439 . S
Cd561 O571 2.240 . S
Cd562 O563 2.240 . S
Cd562 O570 2.223 . S
Cd562 O572 2.297 . S
Cd562 O573 2.439 . S
O563 Cd562 2.240 . S
O563 C568 1.279 . S
O564 Cd561 2.297 . S
O564 C566 1.247 . S
O565 Cd561 2.439 . S
O565 C566 1.208 . S
C566 O564 1.247 . S
C566 O565 1.208 . S
C567 O572 1.247 . S
C567 O573 1.208 . S
C568 O560 1.315 . S
C568 O563 1.279 . S
C569 O570 1.315 . S
C569 O571 1.279 . S
O570 Cd562 2.223 . S
O570 C569 1.315 . S
O571 Cd561 2.240 . S
O571 C569 1.279 . S
O572 Cd562 2.297 . S
O572 C567 1.247 . S
O573 Cd562 2.439 . S
O573 C567 1.208 . S
O574 Cd575 2.223 . S
O574 C582 1.315 . S
Cd575 O574 2.223 . S
Cd575 O578 2.297 . S
Cd575 O579 2.439 . S
Cd575 O585 2.240 . S
Cd576 O577 2.240 . S
Cd576 O584 2.223 . S
Cd576 O586 2.297 . S
Cd576 O587 2.439 . S
O577 Cd576 2.240 . S
O577 C582 1.279 . S
O578 Cd575 2.297 . S
O578 C580 1.247 . S
O579 Cd575 2.439 . S
O579 C580 1.208 . S
C580 O578 1.247 . S
C580 O579 1.208 . S
C581 O586 1.247 . S
C581 O587 1.208 . S
C582 O574 1.315 . S
C582 O577 1.279 . S
C583 O584 1.315 . S
C583 O585 1.279 . S
O584 Cd576 2.223 . S
O584 C583 1.315 . S
O585 Cd575 2.240 . S
O585 C583 1.279 . S
O586 Cd576 2.297 . S
O586 C581 1.247 . S
O587 Cd576 2.439 . S
O587 C581 1.208 . S
O588 Cd589 2.223 . S
O588 C596 1.315 . S
Cd589 O588 2.223 . S
Cd589 O592 2.297 . S
Cd589 O593 2.439 . S
Cd589 O599 2.240 . S
Cd590 O591 2.240 . S
Cd590 O598 2.223 . S
Cd590 O600 2.297 . S
Cd590 O601 2.439 . S
O591 Cd590 2.240 . S
O591 C596 1.279 . S
O592 Cd589 2.297 . S
O592 C594 1.247 . S
O593 Cd589 2.439 . S
O593 C594 1.208 . S
C594 O592 1.247 . S
C594 O593 1.208 . S
C595 O600 1.247 . S
C595 O601 1.208 . S
C596 O588 1.315 . S
C596 O591 1.279 . S
C597 O598 1.315 . S
C597 O599 1.279 . S
O598 Cd590 2.223 . S
O598 C597 1.315 . S
O599 Cd589 2.240 . S
O599 C597 1.279 . S
O600 Cd590 2.297 . S
O600 C595 1.247 . S
O601 Cd590 2.439 . S
O601 C595 1.208 . S
O602 Cd603 2.223 . S
O602 C610 1.315 . S
Cd603 O602 2.223 . S
Cd603 O606 2.297 . S
Cd603 O607 2.439 . S
Cd603 O613 2.240 . S
Cd604 O605 2.240 . S
Cd604 O612 2.223 . S
Cd604 O614 2.297 . S
Cd604 O615 2.439 . S
O605 Cd604 2.240 . S
O605 C610 1.279 . S
O606 Cd603 2.297 . S
O606 C608 1.247 . S
O607 Cd603 2.439 . S
O607 C608 1.208 . S
C608 O606 1.247 . S
C608 O607 1.208 . S
C609 O614 1.247 . S
C609 O615 1.208 . S
C610 O602 1.315 . S
C610 O605 1.279 . S
C611 O612 1.315 . S
C611 O613 1.279 . S
O612 Cd604 2.223 . S
O612 C611 1.315 . S
O613 Cd603 2.240 . S
O613 C611 1.279 . S
O614 Cd604 2.297 . S
O614 C609 1.247 . S
O615 Cd604 2.439 . S
O615 C609 1.208 . S
O616 Cd617 2.223 . S
O616 C624 1.315 . S
Cd617 O616 2.223 . S
Cd617 O620 2.297 . S
Cd617 O621 2.439 . S
Cd617 O627 2.240 . S
Cd618 O619 2.240 . S
Cd618 O626 2.223 . S
Cd618 O628 2.297 . S
Cd618 O629 2.439 . S
O619 Cd618 2.240 . S
O619 C624 1.279 . S
O620 Cd617 2.297 . S
O620 C622 1.247 . S
O621 Cd617 2.439 . S
O621 C622 1.208 . S
C622 O620 1.247 . S
C622 O621 1.208 . S
C623 O628 1.247 . S
C623 O629 1.208 . S
C624 O616 1.315 . S
C624 O619 1.279 . S
C625 O626 1.315 . S
C625 O627 1.279 . S
O626 Cd618 2.223 . S
O626 C625 1.315 . S
O627 Cd617 2.240 . S
O627 C625 1.279 . S
O628 Cd618 2.297 . S
O628 C623 1.247 . S
O629 Cd618 2.439 . S
O629 C623 1.208 . S
O630 Cd631 2.223 . S
O630 C638 1.315 . S
Cd631 O630 2.223 . S
Cd631 O634 2.297 . S
Cd631 O635 2.439 . S
Cd631 O641 2.240 . S
Cd632 O633 2.240 . S
Cd632 O640 2.223 . S
Cd632 O642 2.297 . S
Cd632 O643 2.439 . S
O633 Cd632 2.240 . S
O633 C638 1.279 . S
O634 Cd631 2.297 . S
O634 C636 1.247 . S
O635 Cd631 2.439 . S
O635 C636 1.208 . S
C636 O634 1.247 . S
C636 O635 1.208 . S
C637 O642 1.247 . S
C637 O643 1.208 . S
C638 O630 1.315 . S
C638 O633 1.279 . S
C639 O640 1.315 . S
C639 O641 1.279 . S
O640 Cd632 2.223 . S
O640 C639 1.315 . S
O641 Cd631 2.240 . S
O641 C639 1.279 . S
O642 Cd632 2.297 . S
O642 C637 1.247 . S
O643 Cd632 2.439 . S
O643 C637 1.208 . S
O644 Cd645 2.223 . S
O644 C652 1.315 . S
Cd645 O644 2.223 . S
Cd645 O648 2.297 . S
Cd645 O649 2.439 . S
Cd645 O655 2.240 . S
Cd646 O647 2.240 . S
Cd646 O654 2.223 . S
Cd646 O656 2.297 . S
Cd646 O657 2.439 . S
O647 Cd646 2.240 . S
O647 C652 1.279 . S
O648 Cd645 2.297 . S
O648 C650 1.247 . S
O649 Cd645 2.439 . S
O649 C650 1.208 . S
C650 O648 1.247 . S
C650 O649 1.208 . S
C651 O656 1.247 . S
C651 O657 1.208 . S
C652 O644 1.315 . S
C652 O647 1.279 . S
C653 O654 1.315 . S
C653 O655 1.279 . S
O654 Cd646 2.223 . S
O654 C653 1.315 . S
O655 Cd645 2.240 . S
O655 C653 1.279 . S
O656 Cd646 2.297 . S
O656 C651 1.247 . S
O657 Cd646 2.439 . S
O657 C651 1.208 . S
O658 Cd659 2.223 . S
O658 C666 1.315 . S
Cd659 O658 2.223 . S
Cd659 O662 2.297 . S
Cd659 O663 2.439 . S
Cd659 O669 2.240 . S
Cd660 O661 2.240 . S
Cd660 O668 2.223 . S
Cd660 O670 2.297 . S
Cd660 O671 2.439 . S
O661 Cd660 2.240 . S
O661 C666 1.279 . S
O662 Cd659 2.297 . S
O662 C664 1.247 . S
O663 Cd659 2.439 . S
O663 C664 1.208 . S
C664 O662 1.247 . S
C664 O663 1.208 . S
C665 O670 1.247 . S
C665 O671 1.208 . S
C666 O658 1.315 . S
C666 O661 1.279 . S
C667 O668 1.315 . S
C667 O669 1.279 . S
O668 Cd660 2.223 . S
O668 C667 1.315 . S
O669 Cd659 2.240 . S
O669 C667 1.279 . S
O670 Cd660 2.297 . S
O670 C665 1.247 . S
O671 Cd660 2.439 . S
O671 C665 1.208 . S
C672 C673 1.391 . S
C672 C674 1.394 . S
C672 H688 0.931 . S
C673 C672 1.391 . S
C673 C677 1.376 . S
C674 C672 1.394 . S
C674 C675 1.369 . S
C674 C678 1.531 . S
C675 C674 1.369 . S
C675 C676 1.410 . S
C675 C683 1.503 1_655 S
C676 C675 1.410 . S
C676 C677 1.392 . S
C676 C679 1.511 . S
C677 C673 1.376 . S
C677 C676 1.392 . S
C677 H689 0.929 . S
C678 C674 1.531 . S
C678 H690 0.960 1_655 S
C678 H691 0.962 . S
C678 H692 0.960 . S
C679 C676 1.511 . S
C679 H693 0.961 . S
C679 H694 0.961 1_655 S
C679 H695 0.961 . S
C680 C681 1.370 . S
C680 C682 1.363 . S
C680 H696 0.931 . S
C681 C680 1.370 . S
C681 C685 1.408 . S
C682 C680 1.363 . S
C682 C683 1.370 . S
C682 C686 1.524 . S
C683 C675 1.503 1_455 S
C683 C682 1.370 . S
C683 C684 1.403 . S
C684 C683 1.403 . S
C684 C685 1.404 . S
C684 C687 1.539 . S
C685 C681 1.408 . S
C685 C684 1.404 . S
C685 H697 0.930 . S
C686 C682 1.524 . S
C686 H698 0.983 . S
C686 H699 0.961 1_455 S
C686 H700 0.961 . S
C687 C684 1.539 . S
C687 H701 0.958 . S
C687 H702 0.961 . S
C687 H703 0.969 . S
H688 C672 0.931 . S
H689 C677 0.929 . S
H690 C678 0.960 1_455 S
H691 C678 0.962 . S
H692 C678 0.960 . S
H693 C679 0.961 . S
H694 C679 0.961 1_455 S
H695 C679 0.961 . S
H696 C680 0.931 . S
H697 C685 0.930 . S
H698 C686 0.983 . S
H699 C686 0.961 1_655 S
H700 C686 0.961 . S
H701 C687 0.958 . S
H702 C687 0.961 . S
H703 C687 0.969 . S
C704 C705 1.391 . S
C704 C706 1.394 . S
C704 H720 0.931 . S
C705 C704 1.391 . S
C705 C709 1.376 . S
C706 C704 1.394 . S
C706 C707 1.369 . S
C706 C710 1.531 . S
C707 C706 1.369 . S
C707 C708 1.410 . S
C707 C715 1.503 . S
C708 C707 1.410 . S
C708 C709 1.392 . S
C708 C711 1.511 . S
C709 C705 1.376 . S
C709 C708 1.392 . S
C709 H721 0.929 . S
C710 C706 1.531 . S
C710 H722 0.960 . S
C710 H723 0.962 . S
C710 H724 0.960 . S
C711 C708 1.511 . S
C711 H725 0.961 . S
C711 H726 0.961 . S
C711 H727 0.961 . S
C712 C713 1.370 . S
C712 C714 1.363 . S
C712 H728 0.931 . S
C713 C712 1.370 . S
C713 C717 1.408 . S
C714 C712 1.363 . S
C714 C715 1.370 . S
C714 C718 1.524 . S
C715 C707 1.503 . S
C715 C714 1.370 . S
C715 C716 1.403 . S
C716 C715 1.403 . S
C716 C717 1.404 . S
C716 C719 1.539 . S
C717 C713 1.408 . S
C717 C716 1.404 . S
C717 H729 0.930 . S
C718 C714 1.524 . S
C718 H730 0.956 . S
C718 H731 0.961 . S
C718 H732 0.961 . S
C719 C716 1.539 . S
C719 H733 0.958 . S
C719 H734 0.961 . S
C719 H735 0.960 . S
H720 C704 0.931 . S
H721 C709 0.929 . S
H722 C710 0.960 . S
H723 C710 0.962 . S
H724 C710 0.960 . S
H725 C711 0.961 . S
H726 C711 0.961 . S
H727 C711 0.961 . S
H728 C712 0.931 . S
H729 C717 0.930 . S
H730 C718 0.956 . S
H731 C718 0.961 . S
H732 C718 0.961 . S
H733 C719 0.958 . S
H734 C719 0.961 . S
H735 C719 0.960 . S
C736 C737 1.391 . S
C736 C738 1.394 . S
C736 H752 0.931 . S
C737 C736 1.391 . S
C737 C741 1.376 . S
C738 C736 1.394 . S
C738 C739 1.369 . S
C738 C742 1.531 . S
C739 C738 1.369 . S
C739 C740 1.410 . S
C739 C747 1.503 1_455 S
C740 C739 1.410 . S
C740 C741 1.392 . S
C740 C743 1.511 . S
C741 C737 1.376 . S
C741 C740 1.392 . S
C741 H753 0.929 . S
C742 C738 1.531 . S
C742 H754 0.960 1_455 S
C742 H755 0.962 . S
C742 H756 0.960 . S
C743 C740 1.511 . S
C743 H757 0.961 . S
C743 H758 0.961 1_455 S
C743 H759 0.961 . S
C744 C745 1.370 . S
C744 C746 1.363 . S
C744 H760 0.931 . S
C745 C744 1.370 . S
C745 C749 1.408 . S
C746 C744 1.363 . S
C746 C747 1.370 . S
C746 C750 1.524 . S
C747 C739 1.503 1_655 S
C747 C746 1.370 . S
C747 C748 1.403 . S
C748 C747 1.403 . S
C748 C749 1.404 . S
C748 C751 1.539 . S
C749 C745 1.408 . S
C749 C748 1.404 . S
C749 H761 0.930 . S
C750 C746 1.524 . S
C750 H762 0.983 . S
C750 H763 0.961 1_655 S
C750 H764 0.961 . S
C751 C748 1.539 . S
C751 H765 0.958 . S
C751 H766 0.961 . S
C751 H767 0.969 . S
H752 C736 0.931 . S
H753 C741 0.929 . S
H754 C742 0.960 1_655 S
H755 C742 0.962 . S
H756 C742 0.960 . S
H757 C743 0.961 . S
H758 C743 0.961 1_655 S
H759 C743 0.961 . S
H760 C744 0.931 . S
H761 C749 0.930 . S
H762 C750 0.983 . S
H763 C750 0.961 1_455 S
H764 C750 0.961 . S
H765 C751 0.958 . S
H766 C751 0.961 . S
H767 C751 0.969 . S
C768 C769 1.391 . S
C768 C770 1.394 . S
C768 H784 0.931 . S
C769 C768 1.391 . S
C769 C773 1.376 . S
C770 C768 1.394 . S
C770 C771 1.369 . S
C770 C774 1.531 . S
C771 C770 1.369 . S
C771 C772 1.410 . S
C771 C779 1.503 . S
C772 C771 1.410 . S
C772 C773 1.392 . S
C772 C775 1.511 . S
C773 C769 1.376 . S
C773 C772 1.392 . S
C773 H785 0.929 . S
C774 C770 1.531 . S
C774 H786 0.960 . S
C774 H787 0.962 . S
C774 H788 0.960 . S
C775 C772 1.511 . S
C775 H789 0.961 . S
C775 H790 0.961 . S
C775 H791 0.961 . S
C776 C777 1.370 . S
C776 C778 1.363 . S
C776 H792 0.931 . S
C777 C776 1.370 . S
C777 C781 1.408 . S
C778 C776 1.363 . S
C778 C779 1.370 . S
C778 C782 1.524 . S
C779 C771 1.503 . S
C779 C778 1.370 . S
C779 C780 1.403 . S
C780 C779 1.403 . S
C780 C781 1.404 . S
C780 C783 1.539 . S
C781 C777 1.408 . S
C781 C780 1.404 . S
C781 H793 0.930 . S
C782 C778 1.524 . S
C782 H794 0.956 . S
C782 H795 0.961 . S
C782 H796 0.961 . S
C783 C780 1.539 . S
C783 H797 0.958 . S
C783 H798 0.961 . S
C783 H799 0.960 . S
H784 C768 0.931 . S
H785 C773 0.929 . S
H786 C774 0.960 . S
H787 C774 0.962 . S
H788 C774 0.960 . S
H789 C775 0.961 . S
H790 C775 0.961 . S
H791 C775 0.961 . S
H792 C776 0.931 . S
H793 C781 0.930 . S
H794 C782 0.956 . S
H795 C782 0.961 . S
H796 C782 0.961 . S
H797 C783 0.958 . S
H798 C783 0.961 . S
H799 C783 0.960 . S
C800 C801 1.391 . S
C800 C802 1.394 . S
C800 H816 0.931 . S
C801 C800 1.391 . S
C801 C805 1.376 . S
C802 C800 1.394 . S
C802 C803 1.369 . S
C802 C806 1.531 . S
C803 C802 1.369 . S
C803 C804 1.410 . S
C803 C811 1.503 1_655 S
C804 C803 1.410 . S
C804 C805 1.392 . S
C804 C807 1.511 . S
C805 C801 1.376 . S
C805 C804 1.392 . S
C805 H817 0.929 . S
C806 C802 1.531 . S
C806 H818 0.960 1_655 S
C806 H819 0.962 . S
C806 H820 0.960 . S
C807 C804 1.511 . S
C807 H821 0.961 . S
C807 H822 0.961 1_655 S
C807 H823 0.961 . S
C808 C809 1.370 . S
C808 C810 1.363 . S
C808 H824 0.931 . S
C809 C808 1.370 . S
C809 C813 1.408 . S
C810 C808 1.363 . S
C810 C811 1.370 . S
C810 C814 1.524 . S
C811 C803 1.503 1_455 S
C811 C810 1.370 . S
C811 C812 1.403 . S
C812 C811 1.403 . S
C812 C813 1.404 . S
C812 C815 1.539 . S
C813 C809 1.408 . S
C813 C812 1.404 . S
C813 H825 0.930 . S
C814 C810 1.524 . S
C814 H826 0.983 . S
C814 H827 0.961 1_455 S
C814 H828 0.961 . S
C815 C812 1.539 . S
C815 H829 0.958 . S
C815 H830 0.961 . S
C815 H831 0.969 . S
H816 C800 0.931 . S
H817 C805 0.929 . S
H818 C806 0.960 1_455 S
H819 C806 0.962 . S
H820 C806 0.960 . S
H821 C807 0.961 . S
H822 C807 0.961 1_455 S
H823 C807 0.961 . S
H824 C808 0.931 . S
H825 C813 0.930 . S
H826 C814 0.983 . S
H827 C814 0.961 1_655 S
H828 C814 0.961 . S
H829 C815 0.958 . S
H830 C815 0.961 . S
H831 C815 0.969 . S
C832 C833 1.391 . S
C832 C834 1.394 . S
C832 H848 0.931 . S
C833 C832 1.391 . S
C833 C837 1.376 . S
C834 C832 1.394 . S
C834 C835 1.369 . S
C834 C838 1.531 . S
C835 C834 1.369 . S
C835 C836 1.410 . S
C835 C843 1.503 . S
C836 C835 1.410 . S
C836 C837 1.392 . S
C836 C839 1.511 . S
C837 C833 1.376 . S
C837 C836 1.392 . S
C837 H849 0.929 . S
C838 C834 1.531 . S
C838 H850 0.960 . S
C838 H851 0.962 . S
C838 H852 0.960 . S
C839 C836 1.511 . S
C839 H853 0.961 . S
C839 H854 0.961 . S
C839 H855 0.961 . S
C840 C841 1.370 . S
C840 C842 1.363 . S
C840 H856 0.931 . S
C841 C840 1.370 . S
C841 C845 1.408 . S
C842 C840 1.363 . S
C842 C843 1.370 . S
C842 C846 1.524 . S
C843 C835 1.503 . S
C843 C842 1.370 . S
C843 C844 1.403 . S
C844 C843 1.403 . S
C844 C845 1.404 . S
C844 C847 1.539 . S
C845 C841 1.408 . S
C845 C844 1.404 . S
C845 H857 0.930 . S
C846 C842 1.524 . S
C846 H858 0.956 . S
C846 H859 0.961 . S
C846 H860 0.961 . S
C847 C844 1.539 . S
C847 H861 0.958 . S
C847 H862 0.961 . S
C847 H863 0.960 . S
H848 C832 0.931 . S
H849 C837 0.929 . S
H850 C838 0.960 . S
H851 C838 0.962 . S
H852 C838 0.960 . S
H853 C839 0.961 . S
H854 C839 0.961 . S
H855 C839 0.961 . S
H856 C840 0.931 . S
H857 C845 0.930 . S
H858 C846 0.956 . S
H859 C846 0.961 . S
H860 C846 0.961 . S
H861 C847 0.958 . S
H862 C847 0.961 . S
H863 C847 0.960 . S
C864 C865 1.391 . S
C864 C866 1.394 . S
C864 H880 0.931 . S
C865 C864 1.391 . S
C865 C869 1.376 . S
C866 C864 1.394 . S
C866 C867 1.369 . S
C866 C870 1.531 . S
C867 C866 1.369 . S
C867 C868 1.410 . S
C867 C875 1.503 1_455 S
C868 C867 1.410 . S
C868 C869 1.392 . S
C868 C871 1.511 . S
C869 C865 1.376 . S
C869 C868 1.392 . S
C869 H881 0.929 . S
C870 C866 1.531 . S
C870 H882 0.960 1_455 S
C870 H883 0.962 . S
C870 H884 0.960 . S
C871 C868 1.511 . S
C871 H885 0.961 . S
C871 H886 0.961 1_455 S
C871 H887 0.961 . S
C872 C873 1.370 . S
C872 C874 1.363 . S
C872 H888 0.931 . S
C873 C872 1.370 . S
C873 C877 1.408 . S
C874 C872 1.363 . S
C874 C875 1.370 . S
C874 C878 1.524 . S
C875 C867 1.503 1_655 S
C875 C874 1.370 . S
C875 C876 1.403 . S
C876 C875 1.403 . S
C876 C877 1.404 . S
C876 C879 1.539 . S
C877 C873 1.408 . S
C877 C876 1.404 . S
C877 H889 0.930 . S
C878 C874 1.524 . S
C878 H890 0.983 . S
C878 H891 0.961 1_655 S
C878 H892 0.961 . S
C879 C876 1.539 . S
C879 H893 0.958 . S
C879 H894 0.961 . S
C879 H895 0.969 . S
H880 C864 0.931 . S
H881 C869 0.929 . S
H882 C870 0.960 1_655 S
H883 C870 0.962 . S
H884 C870 0.960 . S
H885 C871 0.961 . S
H886 C871 0.961 1_655 S
H887 C871 0.961 . S
H888 C872 0.931 . S
H889 C877 0.930 . S
H890 C878 0.983 . S
H891 C878 0.961 1_455 S
H892 C878 0.961 . S
H893 C879 0.958 . S
H894 C879 0.961 . S
H895 C879 0.969 . S
C896 C897 1.391 . S
C896 C898 1.394 . S
C896 H912 0.931 . S
C897 C896 1.391 . S
C897 C901 1.376 . S
C898 C896 1.394 . S
C898 C899 1.369 . S
C898 C902 1.531 . S
C899 C898 1.369 . S
C899 C900 1.410 . S
C899 C907 1.503 . S
C900 C899 1.410 . S
C900 C901 1.392 . S
C900 C903 1.511 . S
C901 C897 1.376 . S
C901 C900 1.392 . S
C901 H913 0.929 . S
C902 C898 1.531 . S
C902 H914 0.960 . S
C902 H915 0.962 . S
C902 H916 0.960 . S
C903 C900 1.511 . S
C903 H917 0.961 . S
C903 H918 0.961 . S
C903 H919 0.961 . S
C904 C905 1.370 . S
C904 C906 1.363 . S
C904 H920 0.931 . S
C905 C904 1.370 . S
C905 C909 1.408 . S
C906 C904 1.363 . S
C906 C907 1.370 . S
C906 C910 1.524 . S
C907 C899 1.503 . S
C907 C906 1.370 . S
C907 C908 1.403 . S
C908 C907 1.403 . S
C908 C909 1.404 . S
C908 C911 1.539 . S
C909 C905 1.408 . S
C909 C908 1.404 . S
C909 H921 0.930 . S
C910 C906 1.524 . S
C910 H922 0.956 . S
C910 H923 0.961 . S
C910 H924 0.961 . S
C911 C908 1.539 . S
C911 H925 0.958 . S
C911 H926 0.961 . S
C911 H927 0.960 . S
H912 C896 0.931 . S
H913 C901 0.929 . S
H914 C902 0.960 . S
H915 C902 0.962 . S
H916 C902 0.960 . S
H917 C903 0.961 . S
H918 C903 0.961 . S
H919 C903 0.961 . S
H920 C904 0.931 . S
H921 C909 0.930 . S
H922 C910 0.956 . S
H923 C910 0.961 . S
H924 C910 0.961 . S
H925 C911 0.958 . S
H926 C911 0.961 . S
H927 C911 0.960 . S
C928 C929 1.391 . S
C928 C930 1.394 . S
C928 H944 0.931 . S
C929 C928 1.391 . S
C929 C933 1.376 . S
C930 C928 1.394 . S
C930 C931 1.369 . S
C930 C934 1.531 . S
C931 C930 1.369 . S
C931 C932 1.410 . S
C931 C939 1.503 1_565 S
C932 C931 1.410 . S
C932 C933 1.392 . S
C932 C935 1.511 . S
C933 C929 1.376 . S
C933 C932 1.392 . S
C933 H945 0.929 . S
C934 C930 1.531 . S
C934 H946 0.960 1_565 S
C934 H947 0.962 . S
C934 H948 0.960 . S
C935 C932 1.511 . S
C935 H949 0.961 . S
C935 H950 0.961 1_565 S
C935 H951 0.961 . S
C936 C937 1.370 . S
C936 C938 1.363 . S
C936 H952 0.931 . S
C937 C936 1.370 . S
C937 C941 1.408 . S
C938 C936 1.363 . S
C938 C939 1.370 . S
C938 C942 1.524 . S
C939 C931 1.503 1_545 S
C939 C938 1.370 . S
C939 C940 1.403 . S
C940 C939 1.403 . S
C940 C941 1.404 . S
C940 C943 1.539 . S
C941 C937 1.408 . S
C941 C940 1.404 . S
C941 H953 0.930 . S
C942 C938 1.524 . S
C942 H954 0.983 . S
C942 H955 0.961 1_545 S
C942 H956 0.961 . S
C943 C940 1.539 . S
C943 H957 0.958 . S
C943 H958 0.961 . S
C943 H959 0.969 . S
H944 C928 0.931 . S
H945 C933 0.929 . S
H946 C934 0.960 1_545 S
H947 C934 0.962 . S
H948 C934 0.960 . S
H949 C935 0.961 . S
H950 C935 0.961 1_545 S
H951 C935 0.961 . S
H952 C936 0.931 . S
H953 C941 0.930 . S
H954 C942 0.983 . S
H955 C942 0.961 1_565 S
H956 C942 0.961 . S
H957 C943 0.958 . S
H958 C943 0.961 . S
H959 C943 0.969 . S
C960 C961 1.391 . S
C960 C962 1.394 . S
C960 H976 0.931 . S
C961 C960 1.391 . S
C961 C965 1.376 . S
C962 C960 1.394 . S
C962 C963 1.369 . S
C962 C966 1.531 . S
C963 C962 1.369 . S
C963 C964 1.410 . S
C963 C971 1.503 . S
C964 C963 1.410 . S
C964 C965 1.392 . S
C964 C967 1.511 . S
C965 C961 1.376 . S
C965 C964 1.392 . S
C965 H977 0.929 . S
C966 C962 1.531 . S
C966 H978 0.960 . S
C966 H979 0.962 . S
C966 H980 0.960 . S
C967 C964 1.511 . S
C967 H981 0.961 . S
C967 H982 0.961 . S
C967 H983 0.961 . S
C968 C969 1.370 . S
C968 C970 1.363 . S
C968 H984 0.931 . S
C969 C968 1.370 . S
C969 C973 1.408 . S
C970 C968 1.363 . S
C970 C971 1.370 . S
C970 C974 1.524 . S
C971 C963 1.503 . S
C971 C970 1.370 . S
C971 C972 1.403 . S
C972 C971 1.403 . S
C972 C973 1.404 . S
C972 C975 1.539 . S
C973 C969 1.408 . S
C973 C972 1.404 . S
C973 H985 0.930 . S
C974 C970 1.524 . S
C974 H986 0.956 . S
C974 H987 0.961 . S
C974 H988 0.961 . S
C975 C972 1.539 . S
C975 H989 0.958 . S
C975 H990 0.961 . S
C975 H991 0.960 . S
H976 C960 0.931 . S
H977 C965 0.929 . S
H978 C966 0.960 . S
H979 C966 0.962 . S
H980 C966 0.960 . S
H981 C967 0.961 . S
H982 C967 0.961 . S
H983 C967 0.961 . S
H984 C968 0.931 . S
H985 C973 0.930 . S
H986 C974 0.956 . S
H987 C974 0.961 . S
H988 C974 0.961 . S
H989 C975 0.958 . S
H990 C975 0.961 . S
H991 C975 0.960 . S
C992 C993 1.391 . S
C992 C994 1.394 . S
C992 H1008 0.931 . S
C993 C992 1.391 . S
C993 C997 1.376 . S
C994 C992 1.394 . S
C994 C995 1.369 . S
C994 C998 1.531 . S
C995 C994 1.369 . S
C995 C996 1.410 . S
C995 C1003 1.503 1_545 S
C996 C995 1.410 . S
C996 C997 1.392 . S
C996 C999 1.511 . S
C997 C993 1.376 . S
C997 C996 1.392 . S
C997 H1009 0.929 . S
C998 C994 1.531 . S
C998 H1010 0.960 1_545 S
C998 H1011 0.962 . S
C998 H1012 0.960 . S
C999 C996 1.511 . S
C999 H1013 0.961 . S
C999 H1014 0.961 1_545 S
C999 H1015 0.961 . S
C1000 C1001 1.370 . S
C1000 C1002 1.363 . S
C1000 H1016 0.931 . S
C1001 C1000 1.370 . S
C1001 C1005 1.408 . S
C1002 C1000 1.363 . S
C1002 C1003 1.370 . S
C1002 C1006 1.524 . S
C1003 C995 1.503 1_565 S
C1003 C1002 1.370 . S
C1003 C1004 1.403 . S
C1004 C1003 1.403 . S
C1004 C1005 1.404 . S
C1004 C1007 1.539 . S
C1005 C1001 1.408 . S
C1005 C1004 1.404 . S
C1005 H1017 0.930 . S
C1006 C1002 1.524 . S
C1006 H1018 0.983 . S
C1006 H1019 0.961 1_565 S
C1006 H1020 0.961 . S
C1007 C1004 1.539 . S
C1007 H1021 0.958 . S
C1007 H1022 0.961 . S
C1007 H1023 0.969 . S
H1008 C992 0.931 . S
H1009 C997 0.929 . S
H1010 C998 0.960 1_565 S
H1011 C998 0.962 . S
H1012 C998 0.960 . S
H1013 C999 0.961 . S
H1014 C999 0.961 1_565 S
H1015 C999 0.961 . S
H1016 C1000 0.931 . S
H1017 C1005 0.930 . S
H1018 C1006 0.983 . S
H1019 C1006 0.961 1_545 S
H1020 C1006 0.961 . S
H1021 C1007 0.958 . S
H1022 C1007 0.961 . S
H1023 C1007 0.969 . S
C1024 C1025 1.391 . S
C1024 C1026 1.394 . S
C1024 H1040 0.931 . S
C1025 C1024 1.391 . S
C1025 C1029 1.376 . S
C1026 C1024 1.394 . S
C1026 C1027 1.369 . S
C1026 C1030 1.531 . S
C1027 C1026 1.369 . S
C1027 C1028 1.410 . S
C1027 C1035 1.503 . S
C1028 C1027 1.410 . S
C1028 C1029 1.392 . S
C1028 C1031 1.511 . S
C1029 C1025 1.376 . S
C1029 C1028 1.392 . S
C1029 H1041 0.929 . S
C1030 C1026 1.531 . S
C1030 H1042 0.960 . S
C1030 H1043 0.962 . S
C1030 H1044 0.960 . S
C1031 C1028 1.511 . S
C1031 H1045 0.961 . S
C1031 H1046 0.961 . S
C1031 H1047 0.961 . S
C1032 C1033 1.370 . S
C1032 C1034 1.363 . S
C1032 H1048 0.931 . S
C1033 C1032 1.370 . S
C1033 C1037 1.408 . S
C1034 C1032 1.363 . S
C1034 C1035 1.370 . S
C1034 C1038 1.524 . S
C1035 C1027 1.503 . S
C1035 C1034 1.370 . S
C1035 C1036 1.403 . S
C1036 C1035 1.403 . S
C1036 C1037 1.404 . S
C1036 C1039 1.539 . S
C1037 C1033 1.408 . S
C1037 C1036 1.404 . S
C1037 H1049 0.930 . S
C1038 C1034 1.524 . S
C1038 H1050 0.956 . S
C1038 H1051 0.961 . S
C1038 H1052 0.961 . S
C1039 C1036 1.539 . S
C1039 H1053 0.958 . S
C1039 H1054 0.961 . S
C1039 H1055 0.960 . S
H1040 C1024 0.931 . S
H1041 C1029 0.929 . S
H1042 C1030 0.960 . S
H1043 C1030 0.962 . S
H1044 C1030 0.960 . S
H1045 C1031 0.961 . S
H1046 C1031 0.961 . S
H1047 C1031 0.961 . S
H1048 C1032 0.931 . S
H1049 C1037 0.930 . S
H1050 C1038 0.956 . S
H1051 C1038 0.961 . S
H1052 C1038 0.961 . S
H1053 C1039 0.958 . S
H1054 C1039 0.961 . S
H1055 C1039 0.960 . S
C1056 C1057 1.391 . S
C1056 C1058 1.394 . S
C1056 H1072 0.931 . S
C1057 C1056 1.391 . S
C1057 C1061 1.376 . S
C1058 C1056 1.394 . S
C1058 C1059 1.369 . S
C1058 C1062 1.531 . S
C1059 C1058 1.369 . S
C1059 C1060 1.410 . S
C1059 C1067 1.503 1_545 S
C1060 C1059 1.410 . S
C1060 C1061 1.392 . S
C1060 C1063 1.511 . S
C1061 C1057 1.376 . S
C1061 C1060 1.392 . S
C1061 H1073 0.929 . S
C1062 C1058 1.531 . S
C1062 H1074 0.960 1_545 S
C1062 H1075 0.962 . S
C1062 H1076 0.960 . S
C1063 C1060 1.511 . S
C1063 H1077 0.961 . S
C1063 H1078 0.961 1_545 S
C1063 H1079 0.961 . S
C1064 C1065 1.370 . S
C1064 C1066 1.363 . S
C1064 H1080 0.931 . S
C1065 C1064 1.370 . S
C1065 C1069 1.408 . S
C1066 C1064 1.363 . S
C1066 C1067 1.370 . S
C1066 C1070 1.524 . S
C1067 C1059 1.503 1_565 S
C1067 C1066 1.370 . S
C1067 C1068 1.403 . S
C1068 C1067 1.403 . S
C1068 C1069 1.404 . S
C1068 C1071 1.539 . S
C1069 C1065 1.408 . S
C1069 C1068 1.404 . S
C1069 H1081 0.930 . S
C1070 C1066 1.524 . S
C1070 H1082 0.983 . S
C1070 H1083 0.961 1_565 S
C1070 H1084 0.961 . S
C1071 C1068 1.539 . S
C1071 H1085 0.958 . S
C1071 H1086 0.961 . S
C1071 H1087 0.969 . S
H1072 C1056 0.931 . S
H1073 C1061 0.929 . S
H1074 C1062 0.960 1_565 S
H1075 C1062 0.962 . S
H1076 C1062 0.960 . S
H1077 C1063 0.961 . S
H1078 C1063 0.961 1_565 S
H1079 C1063 0.961 . S
H1080 C1064 0.931 . S
H1081 C1069 0.930 . S
H1082 C1070 0.983 . S
H1083 C1070 0.961 1_545 S
H1084 C1070 0.961 . S
H1085 C1071 0.958 . S
H1086 C1071 0.961 . S
H1087 C1071 0.969 . S
C1088 C1089 1.391 . S
C1088 C1090 1.394 . S
C1088 H1104 0.931 . S
C1089 C1088 1.391 . S
C1089 C1093 1.376 . S
C1090 C1088 1.394 . S
C1090 C1091 1.369 . S
C1090 C1094 1.531 . S
C1091 C1090 1.369 . S
C1091 C1092 1.410 . S
C1091 C1099 1.503 . S
C1092 C1091 1.410 . S
C1092 C1093 1.392 . S
C1092 C1095 1.511 . S
C1093 C1089 1.376 . S
C1093 C1092 1.392 . S
C1093 H1105 0.929 . S
C1094 C1090 1.531 . S
C1094 H1106 0.960 . S
C1094 H1107 0.962 . S
C1094 H1108 0.960 . S
C1095 C1092 1.511 . S
C1095 H1109 0.961 . S
C1095 H1110 0.961 . S
C1095 H1111 0.961 . S
C1096 C1097 1.370 . S
C1096 C1098 1.363 . S
C1096 H1112 0.931 . S
C1097 C1096 1.370 . S
C1097 C1101 1.408 . S
C1098 C1096 1.363 . S
C1098 C1099 1.370 . S
C1098 C1102 1.524 . S
C1099 C1091 1.503 . S
C1099 C1098 1.370 . S
C1099 C1100 1.403 . S
C1100 C1099 1.403 . S
C1100 C1101 1.404 . S
C1100 C1103 1.539 . S
C1101 C1097 1.408 . S
C1101 C1100 1.404 . S
C1101 H1113 0.930 . S
C1102 C1098 1.524 . S
C1102 H1114 0.956 . S
C1102 H1115 0.961 . S
C1102 H1116 0.961 . S
C1103 C1100 1.539 . S
C1103 H1117 0.958 . S
C1103 H1118 0.961 . S
C1103 H1119 0.960 . S
H1104 C1088 0.931 . S
H1105 C1093 0.929 . S
H1106 C1094 0.960 . S
H1107 C1094 0.962 . S
H1108 C1094 0.960 . S
H1109 C1095 0.961 . S
H1110 C1095 0.961 . S
H1111 C1095 0.961 . S
H1112 C1096 0.931 . S
H1113 C1101 0.930 . S
H1114 C1102 0.956 . S
H1115 C1102 0.961 . S
H1116 C1102 0.961 . S
H1117 C1103 0.958 . S
H1118 C1103 0.961 . S
H1119 C1103 0.960 . S
C1120 C1121 1.391 . S
C1120 C1122 1.394 . S
C1120 H1136 0.931 . S
C1121 C1120 1.391 . S
C1121 C1125 1.376 . S
C1122 C1120 1.394 . S
C1122 C1123 1.369 . S
C1122 C1126 1.531 . S
C1123 C1122 1.369 . S
C1123 C1124 1.410 . S
C1123 C1131 1.503 1_545 S
C1124 C1123 1.410 . S
C1124 C1125 1.392 . S
C1124 C1127 1.511 . S
C1125 C1121 1.376 . S
C1125 C1124 1.392 . S
C1125 H1137 0.929 . S
C1126 C1122 1.531 . S
C1126 H1138 0.960 1_545 S
C1126 H1139 0.962 . S
C1126 H1140 0.960 . S
C1127 C1124 1.511 . S
C1127 H1141 0.961 . S
C1127 H1142 0.961 1_545 S
C1127 H1143 0.961 . S
C1128 C1129 1.370 . S
C1128 C1130 1.363 . S
C1128 H1144 0.931 . S
C1129 C1128 1.370 . S
C1129 C1133 1.408 . S
C1130 C1128 1.363 . S
C1130 C1131 1.370 . S
C1130 C1134 1.524 . S
C1131 C1123 1.503 1_565 S
C1131 C1130 1.370 . S
C1131 C1132 1.403 . S
C1132 C1131 1.403 . S
C1132 C1133 1.404 . S
C1132 C1135 1.539 . S
C1133 C1129 1.408 . S
C1133 C1132 1.404 . S
C1133 H1145 0.930 . S
C1134 C1130 1.524 . S
C1134 H1146 0.983 . S
C1134 H1147 0.961 1_565 S
C1134 H1148 0.961 . S
C1135 C1132 1.539 . S
C1135 H1149 0.958 . S
C1135 H1150 0.961 . S
C1135 H1151 0.969 . S
H1136 C1120 0.931 . S
H1137 C1125 0.929 . S
H1138 C1126 0.960 1_565 S
H1139 C1126 0.962 . S
H1140 C1126 0.960 . S
H1141 C1127 0.961 . S
H1142 C1127 0.961 1_565 S
H1143 C1127 0.961 . S
H1144 C1128 0.931 . S
H1145 C1133 0.930 . S
H1146 C1134 0.983 . S
H1147 C1134 0.961 1_545 S
H1148 C1134 0.961 . S
H1149 C1135 0.958 . S
H1150 C1135 0.961 . S
H1151 C1135 0.969 . S
C1152 C1153 1.391 . S
C1152 C1154 1.394 . S
C1152 H1168 0.931 . S
C1153 C1152 1.391 . S
C1153 C1157 1.376 . S
C1154 C1152 1.394 . S
C1154 C1155 1.369 . S
C1154 C1158 1.531 . S
C1155 C1154 1.369 . S
C1155 C1156 1.410 . S
C1155 C1163 1.503 . S
C1156 C1155 1.410 . S
C1156 C1157 1.392 . S
C1156 C1159 1.511 . S
C1157 C1153 1.376 . S
C1157 C1156 1.392 . S
C1157 H1169 0.929 . S
C1158 C1154 1.531 . S
C1158 H1170 0.960 . S
C1158 H1171 0.962 . S
C1158 H1172 0.960 . S
C1159 C1156 1.511 . S
C1159 H1173 0.961 . S
C1159 H1174 0.961 . S
C1159 H1175 0.961 . S
C1160 C1161 1.370 . S
C1160 C1162 1.363 . S
C1160 H1176 0.931 . S
C1161 C1160 1.370 . S
C1161 C1165 1.408 . S
C1162 C1160 1.363 . S
C1162 C1163 1.370 . S
C1162 C1166 1.524 . S
C1163 C1155 1.503 . S
C1163 C1162 1.370 . S
C1163 C1164 1.403 . S
C1164 C1163 1.403 . S
C1164 C1165 1.404 . S
C1164 C1167 1.539 . S
C1165 C1161 1.408 . S
C1165 C1164 1.404 . S
C1165 H1177 0.930 . S
C1166 C1162 1.524 . S
C1166 H1178 0.956 . S
C1166 H1179 0.961 . S
C1166 H1180 0.961 . S
C1167 C1164 1.539 . S
C1167 H1181 0.958 . S
C1167 H1182 0.961 . S
C1167 H1183 0.960 . S
H1168 C1152 0.931 . S
H1169 C1157 0.929 . S
H1170 C1158 0.960 . S
H1171 C1158 0.962 . S
H1172 C1158 0.960 . S
H1173 C1159 0.961 . S
H1174 C1159 0.961 . S
H1175 C1159 0.961 . S
H1176 C1160 0.931 . S
H1177 C1165 0.930 . S
H1178 C1166 0.956 . S
H1179 C1166 0.961 . S
H1180 C1166 0.961 . S
H1181 C1167 0.958 . S
H1182 C1167 0.961 . S
H1183 C1167 0.960 . S
C1184 C1185 1.391 . S
C1184 C1186 1.394 . S
C1184 H1200 0.931 . S
C1185 C1184 1.391 . S
C1185 C1189 1.376 . S
C1186 C1184 1.394 . S
C1186 C1187 1.369 . S
C1186 C1190 1.531 . S
C1187 C1186 1.369 . S
C1187 C1188 1.410 . S
C1187 C1195 1.503 1_554 S
C1188 C1187 1.410 . S
C1188 C1189 1.392 . S
C1188 C1191 1.511 . S
C1189 C1185 1.376 . S
C1189 C1188 1.392 . S
C1189 H1201 0.929 . S
C1190 C1186 1.531 . S
C1190 H1202 0.960 1_554 S
C1190 H1203 0.962 . S
C1190 H1204 0.960 . S
C1191 C1188 1.511 . S
C1191 H1205 0.961 . S
C1191 H1206 0.961 1_554 S
C1191 H1207 0.961 . S
C1192 C1193 1.370 . S
C1192 C1194 1.363 . S
C1192 H1208 0.931 . S
C1193 C1192 1.370 . S
C1193 C1197 1.408 . S
C1194 C1192 1.363 . S
C1194 C1195 1.370 . S
C1194 C1198 1.524 . S
C1195 C1187 1.503 1_556 S
C1195 C1194 1.370 . S
C1195 C1196 1.403 . S
C1196 C1195 1.403 . S
C1196 C1197 1.404 . S
C1196 C1199 1.539 . S
C1197 C1193 1.408 . S
C1197 C1196 1.404 . S
C1197 H1209 0.930 . S
C1198 C1194 1.524 . S
C1198 H1210 0.983 . S
C1198 H1211 0.961 1_556 S
C1198 H1212 0.961 . S
C1199 C1196 1.539 . S
C1199 H1213 0.958 . S
C1199 H1214 0.961 . S
C1199 H1215 0.969 . S
H1200 C1184 0.931 . S
H1201 C1189 0.929 . S
H1202 C1190 0.960 1_556 S
H1203 C1190 0.962 . S
H1204 C1190 0.960 . S
H1205 C1191 0.961 . S
H1206 C1191 0.961 1_556 S
H1207 C1191 0.961 . S
H1208 C1192 0.931 . S
H1209 C1197 0.930 . S
H1210 C1198 0.983 . S
H1211 C1198 0.961 1_554 S
H1212 C1198 0.961 . S
H1213 C1199 0.958 . S
H1214 C1199 0.961 . S
H1215 C1199 0.969 . S
C1216 C1217 1.391 . S
C1216 C1218 1.394 . S
C1216 H1232 0.931 . S
C1217 C1216 1.391 . S
C1217 C1221 1.376 . S
C1218 C1216 1.394 . S
C1218 C1219 1.369 . S
C1218 C1222 1.531 . S
C1219 C1218 1.369 . S
C1219 C1220 1.410 . S
C1219 C1227 1.503 1_554 S
C1220 C1219 1.410 . S
C1220 C1221 1.392 . S
C1220 C1223 1.511 . S
C1221 C1217 1.376 . S
C1221 C1220 1.392 . S
C1221 H1233 0.929 . S
C1222 C1218 1.531 . S
C1222 H1234 0.960 1_554 S
C1222 H1235 0.962 . S
C1222 H1236 0.960 . S
C1223 C1220 1.511 . S
C1223 H1237 0.961 . S
C1223 H1238 0.961 1_554 S
C1223 H1239 0.961 . S
C1224 C1225 1.370 . S
C1224 C1226 1.363 . S
C1224 H1240 0.931 . S
C1225 C1224 1.370 . S
C1225 C1229 1.408 . S
C1226 C1224 1.363 . S
C1226 C1227 1.370 . S
C1226 C1230 1.524 . S
C1227 C1219 1.503 1_556 S
C1227 C1226 1.370 . S
C1227 C1228 1.403 . S
C1228 C1227 1.403 . S
C1228 C1229 1.404 . S
C1228 C1231 1.539 . S
C1229 C1225 1.408 . S
C1229 C1228 1.404 . S
C1229 H1241 0.930 . S
C1230 C1226 1.524 . S
C1230 H1242 0.983 . S
C1230 H1243 0.961 1_556 S
C1230 H1244 0.961 . S
C1231 C1228 1.539 . S
C1231 H1245 0.958 . S
C1231 H1246 0.961 . S
C1231 H1247 0.969 . S
H1232 C1216 0.931 . S
H1233 C1221 0.929 . S
H1234 C1222 0.960 1_556 S
H1235 C1222 0.962 . S
H1236 C1222 0.960 . S
H1237 C1223 0.961 . S
H1238 C1223 0.961 1_556 S
H1239 C1223 0.961 . S
H1240 C1224 0.931 . S
H1241 C1229 0.930 . S
H1242 C1230 0.983 . S
H1243 C1230 0.961 1_554 S
H1244 C1230 0.961 . S
H1245 C1231 0.958 . S
H1246 C1231 0.961 . S
H1247 C1231 0.969 . S
C1248 C1249 1.391 . S
C1248 C1250 1.394 . S
C1248 H1264 0.931 . S
C1249 C1248 1.391 . S
C1249 C1253 1.376 . S
C1250 C1248 1.394 . S
C1250 C1251 1.369 . S
C1250 C1254 1.531 . S
C1251 C1250 1.369 . S
C1251 C1252 1.410 . S
C1251 C1259 1.503 . S
C1252 C1251 1.410 . S
C1252 C1253 1.392 . S
C1252 C1255 1.511 . S
C1253 C1249 1.376 . S
C1253 C1252 1.392 . S
C1253 H1265 0.929 . S
C1254 C1250 1.531 . S
C1254 H1266 0.960 . S
C1254 H1267 0.962 . S
C1254 H1268 0.960 . S
C1255 C1252 1.511 . S
C1255 H1269 0.961 . S
C1255 H1270 0.961 . S
C1255 H1271 0.961 . S
C1256 C1257 1.370 . S
C1256 C1258 1.363 . S
C1256 H1272 0.931 . S
C1257 C1256 1.370 . S
C1257 C1261 1.408 . S
C1258 C1256 1.363 . S
C1258 C1259 1.370 . S
C1258 C1262 1.524 . S
C1259 C1251 1.503 . S
C1259 C1258 1.370 . S
C1259 C1260 1.403 . S
C1260 C1259 1.403 . S
C1260 C1261 1.404 . S
C1260 C1263 1.539 . S
C1261 C1257 1.408 . S
C1261 C1260 1.404 . S
C1261 H1273 0.930 . S
C1262 C1258 1.524 . S
C1262 H1274 0.956 . S
C1262 H1275 0.961 . S
C1262 H1276 0.961 . S
C1263 C1260 1.539 . S
C1263 H1277 0.958 . S
C1263 H1278 0.961 . S
C1263 H1279 0.960 . S
H1264 C1248 0.931 . S
H1265 C1253 0.929 . S
H1266 C1254 0.960 . S
H1267 C1254 0.962 . S
H1268 C1254 0.960 . S
H1269 C1255 0.961 . S
H1270 C1255 0.961 . S
H1271 C1255 0.961 . S
H1272 C1256 0.931 . S
H1273 C1261 0.930 . S
H1274 C1262 0.956 . S
H1275 C1262 0.961 . S
H1276 C1262 0.961 . S
H1277 C1263 0.958 . S
H1278 C1263 0.961 . S
H1279 C1263 0.960 . S
C1280 C1281 1.391 . S
C1280 C1282 1.394 . S
C1280 H1296 0.931 . S
C1281 C1280 1.391 . S
C1281 C1285 1.376 . S
C1282 C1280 1.394 . S
C1282 C1283 1.369 . S
C1282 C1286 1.531 . S
C1283 C1282 1.369 . S
C1283 C1284 1.410 . S
C1283 C1291 1.503 1_554 S
C1284 C1283 1.410 . S
C1284 C1285 1.392 . S
C1284 C1287 1.511 . S
C1285 C1281 1.376 . S
C1285 C1284 1.392 . S
C1285 H1297 0.929 . S
C1286 C1282 1.531 . S
C1286 H1298 0.960 1_554 S
C1286 H1299 0.962 . S
C1286 H1300 0.960 . S
C1287 C1284 1.511 . S
C1287 H1301 0.961 . S
C1287 H1302 0.961 1_554 S
C1287 H1303 0.961 . S
C1288 C1289 1.370 . S
C1288 C1290 1.363 . S
C1288 H1304 0.931 . S
C1289 C1288 1.370 . S
C1289 C1293 1.408 . S
C1290 C1288 1.363 . S
C1290 C1291 1.370 . S
C1290 C1294 1.524 . S
C1291 C1283 1.503 1_556 S
C1291 C1290 1.370 . S
C1291 C1292 1.403 . S
C1292 C1291 1.403 . S
C1292 C1293 1.404 . S
C1292 C1295 1.539 . S
C1293 C1289 1.408 . S
C1293 C1292 1.404 . S
C1293 H1305 0.930 . S
C1294 C1290 1.524 . S
C1294 H1306 0.983 . S
C1294 H1307 0.961 1_556 S
C1294 H1308 0.961 . S
C1295 C1292 1.539 . S
C1295 H1309 0.958 . S
C1295 H1310 0.961 . S
C1295 H1311 0.969 . S
H1296 C1280 0.931 . S
H1297 C1285 0.929 . S
H1298 C1286 0.960 1_556 S
H1299 C1286 0.962 . S
H1300 C1286 0.960 . S
H1301 C1287 0.961 . S
H1302 C1287 0.961 1_556 S
H1303 C1287 0.961 . S
H1304 C1288 0.931 . S
H1305 C1293 0.930 . S
H1306 C1294 0.983 . S
H1307 C1294 0.961 1_554 S
H1308 C1294 0.961 . S
H1309 C1295 0.958 . S
H1310 C1295 0.961 . S
H1311 C1295 0.969 . S
C1312 C1313 1.391 . S
C1312 C1314 1.394 . S
C1312 H1328 0.931 . S
C1313 C1312 1.391 . S
C1313 C1317 1.376 . S
C1314 C1312 1.394 . S
C1314 C1315 1.369 . S
C1314 C1318 1.531 . S
C1315 C1314 1.369 . S
C1315 C1316 1.410 . S
C1315 C1323 1.503 . S
C1316 C1315 1.410 . S
C1316 C1317 1.392 . S
C1316 C1319 1.511 . S
C1317 C1313 1.376 . S
C1317 C1316 1.392 . S
C1317 H1329 0.929 . S
C1318 C1314 1.531 . S
C1318 H1330 0.960 . S
C1318 H1331 0.962 . S
C1318 H1332 0.960 . S
C1319 C1316 1.511 . S
C1319 H1333 0.961 . S
C1319 H1334 0.961 . S
C1319 H1335 0.961 . S
C1320 C1321 1.370 . S
C1320 C1322 1.363 . S
C1320 H1336 0.931 . S
C1321 C1320 1.370 . S
C1321 C1325 1.408 . S
C1322 C1320 1.363 . S
C1322 C1323 1.370 . S
C1322 C1326 1.524 . S
C1323 C1315 1.503 . S
C1323 C1322 1.370 . S
C1323 C1324 1.403 . S
C1324 C1323 1.403 . S
C1324 C1325 1.404 . S
C1324 C1327 1.539 . S
C1325 C1321 1.408 . S
C1325 C1324 1.404 . S
C1325 H1337 0.930 . S
C1326 C1322 1.524 . S
C1326 H1338 0.956 . S
C1326 H1339 0.961 . S
C1326 H1340 0.961 . S
C1327 C1324 1.539 . S
C1327 H1341 0.958 . S
C1327 H1342 0.961 . S
C1327 H1343 0.960 . S
H1328 C1312 0.931 . S
H1329 C1317 0.929 . S
H1330 C1318 0.960 . S
H1331 C1318 0.962 . S
H1332 C1318 0.960 . S
H1333 C1319 0.961 . S
H1334 C1319 0.961 . S
H1335 C1319 0.961 . S
H1336 C1320 0.931 . S
H1337 C1325 0.930 . S
H1338 C1326 0.956 . S
H1339 C1326 0.961 . S
H1340 C1326 0.961 . S
H1341 C1327 0.958 . S
H1342 C1327 0.961 . S
H1343 C1327 0.960 . S
C1344 C1345 1.391 . S
C1344 C1346 1.394 . S
C1344 H1360 0.931 . S
C1345 C1344 1.391 . S
C1345 C1349 1.376 . S
C1346 C1344 1.394 . S
C1346 C1347 1.369 . S
C1346 C1350 1.531 . S
C1347 C1346 1.369 . S
C1347 C1348 1.410 . S
C1347 C1355 1.503 1_554 S
C1348 C1347 1.410 . S
C1348 C1349 1.392 . S
C1348 C1351 1.511 . S
C1349 C1345 1.376 . S
C1349 C1348 1.392 . S
C1349 H1361 0.929 . S
C1350 C1346 1.531 . S
C1350 H1362 0.960 1_554 S
C1350 H1363 0.962 . S
C1350 H1364 0.960 . S
C1351 C1348 1.511 . S
C1351 H1365 0.961 . S
C1351 H1366 0.961 1_554 S
C1351 H1367 0.961 . S
C1352 C1353 1.370 . S
C1352 C1354 1.363 . S
C1352 H1368 0.931 . S
C1353 C1352 1.370 . S
C1353 C1357 1.408 . S
C1354 C1352 1.363 . S
C1354 C1355 1.370 . S
C1354 C1358 1.524 . S
C1355 C1347 1.503 1_556 S
C1355 C1354 1.370 . S
C1355 C1356 1.403 . S
C1356 C1355 1.403 . S
C1356 C1357 1.404 . S
C1356 C1359 1.539 . S
C1357 C1353 1.408 . S
C1357 C1356 1.404 . S
C1357 H1369 0.930 . S
C1358 C1354 1.524 . S
C1358 H1370 0.983 . S
C1358 H1371 0.961 1_556 S
C1358 H1372 0.961 . S
C1359 C1356 1.539 . S
C1359 H1373 0.958 . S
C1359 H1374 0.961 . S
C1359 H1375 0.969 . S
H1360 C1344 0.931 . S
H1361 C1349 0.929 . S
H1362 C1350 0.960 1_556 S
H1363 C1350 0.962 . S
H1364 C1350 0.960 . S
H1365 C1351 0.961 . S
H1366 C1351 0.961 1_556 S
H1367 C1351 0.961 . S
H1368 C1352 0.931 . S
H1369 C1357 0.930 . S
H1370 C1358 0.983 . S
H1371 C1358 0.961 1_554 S
H1372 C1358 0.961 . S
H1373 C1359 0.958 . S
H1374 C1359 0.961 . S
H1375 C1359 0.969 . S
C1376 C1377 1.391 . S
C1376 C1378 1.394 . S
C1376 H1392 0.931 . S
C1377 C1376 1.391 . S
C1377 C1381 1.376 . S
C1378 C1376 1.394 . S
C1378 C1379 1.369 . S
C1378 C1382 1.531 . S
C1379 C1378 1.369 . S
C1379 C1380 1.410 . S
C1379 C1387 1.503 . S
C1380 C1379 1.410 . S
C1380 C1381 1.392 . S
C1380 C1383 1.511 . S
C1381 C1377 1.376 . S
C1381 C1380 1.392 . S
C1381 H1393 0.929 . S
C1382 C1378 1.531 . S
C1382 H1394 0.960 . S
C1382 H1395 0.962 . S
C1382 H1396 0.960 . S
C1383 C1380 1.511 . S
C1383 H1397 0.961 . S
C1383 H1398 0.961 . S
C1383 H1399 0.961 . S
C1384 C1385 1.370 . S
C1384 C1386 1.363 . S
C1384 H1400 0.931 . S
C1385 C1384 1.370 . S
C1385 C1389 1.408 . S
C1386 C1384 1.363 . S
C1386 C1387 1.370 . S
C1386 C1390 1.524 . S
C1387 C1379 1.503 . S
C1387 C1386 1.370 . S
C1387 C1388 1.403 . S
C1388 C1387 1.403 . S
C1388 C1389 1.404 . S
C1388 C1391 1.539 . S
C1389 C1385 1.408 . S
C1389 C1388 1.404 . S
C1389 H1401 0.930 . S
C1390 C1386 1.524 . S
C1390 H1402 0.956 . S
C1390 H1403 0.961 . S
C1390 H1404 0.961 . S
C1391 C1388 1.539 . S
C1391 H1405 0.958 . S
C1391 H1406 0.961 . S
C1391 H1407 0.960 . S
H1392 C1376 0.931 . S
H1393 C1381 0.929 . S
H1394 C1382 0.960 . S
H1395 C1382 0.962 . S
H1396 C1382 0.960 . S
H1397 C1383 0.961 . S
H1398 C1383 0.961 . S
H1399 C1383 0.961 . S
H1400 C1384 0.931 . S
H1401 C1389 0.930 . S
H1402 C1390 0.956 . S
H1403 C1390 0.961 . S
H1404 C1390 0.961 . S
H1405 C1391 0.958 . S
H1406 C1391 0.961 . S
H1407 C1391 0.960 . S
C1408 C1409 1.391 . S
C1408 C1410 1.394 . S
C1408 H1424 0.931 . S
C1409 C1408 1.391 . S
C1409 C1413 1.376 . S
C1410 C1408 1.394 . S
C1410 C1411 1.369 . S
C1410 C1414 1.531 . S
C1411 C1410 1.369 . S
C1411 C1412 1.410 . S
C1411 C1419 1.503 . S
C1412 C1411 1.410 . S
C1412 C1413 1.392 . S
C1412 C1415 1.511 . S
C1413 C1409 1.376 . S
C1413 C1412 1.392 . S
C1413 H1425 0.929 . S
C1414 C1410 1.531 . S
C1414 H1426 0.960 . S
C1414 H1427 0.962 . S
C1414 H1428 0.960 . S
C1415 C1412 1.511 . S
C1415 H1429 0.961 . S
C1415 H1430 0.961 . S
C1415 H1431 0.961 . S
C1416 C1417 1.370 . S
C1416 C1418 1.363 . S
C1416 H1432 0.931 . S
C1417 C1416 1.370 . S
C1417 C1421 1.408 . S
C1418 C1416 1.363 . S
C1418 C1419 1.370 . S
C1418 C1422 1.524 . S
C1419 C1411 1.503 . S
C1419 C1418 1.370 . S
C1419 C1420 1.403 . S
C1420 C1419 1.403 . S
C1420 C1421 1.404 . S
C1420 C1423 1.539 . S
C1421 C1417 1.408 . S
C1421 C1420 1.404 . S
C1421 H1433 0.930 . S
C1422 C1418 1.524 . S
C1422 H1434 0.956 . S
C1422 H1435 0.961 . S
C1422 H1436 0.961 . S
C1423 C1420 1.539 . S
C1423 H1437 0.958 . S
C1423 H1438 0.961 . S
C1423 H1439 0.960 . S
H1424 C1408 0.931 . S
H1425 C1413 0.929 . S
H1426 C1414 0.960 . S
H1427 C1414 0.962 . S
H1428 C1414 0.960 . S
H1429 C1415 0.961 . S
H1430 C1415 0.961 . S
H1431 C1415 0.961 . S
H1432 C1416 0.931 . S
H1433 C1421 0.930 . S
H1434 C1422 0.956 . S
H1435 C1422 0.961 . S
H1436 C1422 0.961 . S
H1437 C1423 0.958 . S
H1438 C1423 0.961 . S
H1439 C1423 0.960 . S
C1440 C1441 1.391 . S
C1440 C1442 1.394 . S
C1440 H1456 0.931 . S
C1441 C1440 1.391 . S
C1441 C1445 1.376 . S
C1442 C1440 1.394 . S
C1442 C1443 1.369 . S
C1442 C1446 1.531 . S
C1443 C1442 1.369 . S
C1443 C1444 1.410 . S
C1443 C1451 1.503 . S
C1444 C1443 1.410 . S
C1444 C1445 1.392 . S
C1444 C1447 1.511 . S
C1445 C1441 1.376 . S
C1445 C1444 1.392 . S
C1445 H1457 0.929 . S
C1446 C1442 1.531 . S
C1446 H1458 0.960 . S
C1446 H1459 0.962 . S
C1446 H1460 0.960 . S
C1447 C1444 1.511 . S
C1447 H1461 0.961 . S
C1447 H1462 0.961 . S
C1447 H1463 0.961 . S
C1448 C1449 1.370 . S
C1448 C1450 1.363 . S
C1448 H1464 0.931 . S
C1449 C1448 1.370 . S
C1449 C1453 1.408 . S
C1450 C1448 1.363 . S
C1450 C1451 1.370 . S
C1450 C1454 1.524 . S
C1451 C1443 1.503 . S
C1451 C1450 1.370 . S
C1451 C1452 1.403 . S
C1452 C1451 1.403 . S
C1452 C1453 1.404 . S
C1452 C1455 1.539 . S
C1453 C1449 1.408 . S
C1453 C1452 1.404 . S
C1453 H1465 0.930 . S
C1454 C1450 1.524 . S
C1454 H1466 0.956 . S
C1454 H1467 0.961 . S
C1454 H1468 0.961 . S
C1455 C1452 1.539 . S
C1455 H1469 0.958 . S
C1455 H1470 0.961 . S
C1455 H1471 0.960 . S
H1456 C1440 0.931 . S
H1457 C1445 0.929 . S
H1458 C1446 0.960 . S
H1459 C1446 0.962 . S
H1460 C1446 0.960 . S
H1461 C1447 0.961 . S
H1462 C1447 0.961 . S
H1463 C1447 0.961 . S
H1464 C1448 0.931 . S
H1465 C1453 0.930 . S
H1466 C1454 0.956 . S
H1467 C1454 0.961 . S
H1468 C1454 0.961 . S
H1469 C1455 0.958 . S
H1470 C1455 0.961 . S
H1471 C1455 0.960 . S
C1472 C1473 1.391 . S
C1472 C1474 1.394 . S
C1472 H1488 0.931 . S
C1473 C1472 1.391 . S
C1473 C1477 1.376 . S
C1474 C1472 1.394 . S
C1474 C1475 1.369 . S
C1474 C1478 1.531 . S
C1475 C1474 1.369 . S
C1475 C1476 1.410 . S
C1475 C1483 1.503 . S
C1476 C1475 1.410 . S
C1476 C1477 1.392 . S
C1476 C1479 1.511 . S
C1477 C1473 1.376 . S
C1477 C1476 1.392 . S
C1477 H1489 0.929 . S
C1478 C1474 1.531 . S
C1478 H1490 0.960 . S
C1478 H1491 0.962 . S
C1478 H1492 0.960 . S
C1479 C1476 1.511 . S
C1479 H1493 0.961 . S
C1479 H1494 0.961 . S
C1479 H1495 0.961 . S
C1480 C1481 1.370 . S
C1480 C1482 1.363 . S
C1480 H1496 0.931 . S
C1481 C1480 1.370 . S
C1481 C1485 1.408 . S
C1482 C1480 1.363 . S
C1482 C1483 1.370 . S
C1482 C1486 1.524 . S
C1483 C1475 1.503 . S
C1483 C1482 1.370 . S
C1483 C1484 1.403 . S
C1484 C1483 1.403 . S
C1484 C1485 1.404 . S
C1484 C1487 1.539 . S
C1485 C1481 1.408 . S
C1485 C1484 1.404 . S
C1485 H1497 0.930 . S
C1486 C1482 1.524 . S
C1486 H1498 0.956 . S
C1486 H1499 0.961 . S
C1486 H1500 0.961 . S
C1487 C1484 1.539 . S
C1487 H1501 0.958 . S
C1487 H1502 0.961 . S
C1487 H1503 0.960 . S
H1488 C1472 0.931 . S
H1489 C1477 0.929 . S
H1490 C1478 0.960 . S
H1491 C1478 0.962 . S
H1492 C1478 0.960 . S
H1493 C1479 0.961 . S
H1494 C1479 0.961 . S
H1495 C1479 0.961 . S
H1496 C1480 0.931 . S
H1497 C1485 0.930 . S
H1498 C1486 0.956 . S
H1499 C1486 0.961 . S
H1500 C1486 0.961 . S
H1501 C1487 0.958 . S
H1502 C1487 0.961 . S
H1503 C1487 0.960 . S
C1504 C1505 1.391 . S
C1504 C1506 1.394 . S
C1504 H1520 0.931 . S
C1505 C1504 1.391 . S
C1505 C1509 1.376 . S
C1506 C1504 1.394 . S
C1506 C1507 1.369 . S
C1506 C1510 1.531 . S
C1507 C1506 1.369 . S
C1507 C1508 1.410 . S
C1507 C1515 1.503 . S
C1508 C1507 1.410 . S
C1508 C1509 1.392 . S
C1508 C1511 1.511 . S
C1509 C1505 1.376 . S
C1509 C1508 1.392 . S
C1509 H1521 0.929 . S
C1510 C1506 1.531 . S
C1510 H1522 0.960 . S
C1510 H1523 0.962 . S
C1510 H1524 0.960 . S
C1511 C1508 1.511 . S
C1511 H1525 0.961 . S
C1511 H1526 0.961 . S
C1511 H1527 0.961 . S
C1512 C1513 1.370 . S
C1512 C1514 1.363 . S
C1512 H1528 0.931 . S
C1513 C1512 1.370 . S
C1513 C1517 1.408 . S
C1514 C1512 1.363 . S
C1514 C1515 1.370 . S
C1514 C1518 1.524 . S
C1515 C1507 1.503 . S
C1515 C1514 1.370 . S
C1515 C1516 1.403 . S
C1516 C1515 1.403 . S
C1516 C1517 1.404 . S
C1516 C1519 1.539 . S
C1517 C1513 1.408 . S
C1517 C1516 1.404 . S
C1517 H1529 0.930 . S
C1518 C1514 1.524 . S
C1518 H1530 0.956 . S
C1518 H1531 0.961 . S
C1518 H1532 0.961 . S
C1519 C1516 1.539 . S
C1519 H1533 0.958 . S
C1519 H1534 0.961 . S
C1519 H1535 0.960 . S
H1520 C1504 0.931 . S
H1521 C1509 0.929 . S
H1522 C1510 0.960 . S
H1523 C1510 0.962 . S
H1524 C1510 0.960 . S
H1525 C1511 0.961 . S
H1526 C1511 0.961 . S
H1527 C1511 0.961 . S
H1528 C1512 0.931 . S
H1529 C1517 0.930 . S
H1530 C1518 0.956 . S
H1531 C1518 0.961 . S
H1532 C1518 0.961 . S
H1533 C1519 0.958 . S
H1534 C1519 0.961 . S
H1535 C1519 0.960 . S
C1536 C1537 1.391 . S
C1536 C1538 1.394 . S
C1536 H1552 0.931 . S
C1537 C1536 1.391 . S
C1537 C1541 1.376 . S
C1538 C1536 1.394 . S
C1538 C1539 1.369 . S
C1538 C1542 1.531 . S
C1539 C1538 1.369 . S
C1539 C1540 1.410 . S
C1539 C1547 1.503 . S
C1540 C1539 1.410 . S
C1540 C1541 1.392 . S
C1540 C1543 1.511 . S
C1541 C1537 1.376 . S
C1541 C1540 1.392 . S
C1541 H1553 0.929 . S
C1542 C1538 1.531 . S
C1542 H1554 0.960 . S
C1542 H1555 0.962 . S
C1542 H1556 0.960 . S
C1543 C1540 1.511 . S
C1543 H1557 0.961 . S
C1543 H1558 0.961 . S
C1543 H1559 0.961 . S
C1544 C1545 1.370 . S
C1544 C1546 1.363 . S
C1544 H1560 0.931 . S
C1545 C1544 1.370 . S
C1545 C1549 1.408 . S
C1546 C1544 1.363 . S
C1546 C1547 1.370 . S
C1546 C1550 1.524 . S
C1547 C1539 1.503 . S
C1547 C1546 1.370 . S
C1547 C1548 1.403 . S
C1548 C1547 1.403 . S
C1548 C1549 1.404 . S
C1548 C1551 1.539 . S
C1549 C1545 1.408 . S
C1549 C1548 1.404 . S
C1549 H1561 0.930 . S
C1550 C1546 1.524 . S
C1550 H1562 0.956 . S
C1550 H1563 0.961 . S
C1550 H1564 0.961 . S
C1551 C1548 1.539 . S
C1551 H1565 0.958 . S
C1551 H1566 0.961 . S
C1551 H1567 0.960 . S
H1552 C1536 0.931 . S
H1553 C1541 0.929 . S
H1554 C1542 0.960 . S
H1555 C1542 0.962 . S
H1556 C1542 0.960 . S
H1557 C1543 0.961 . S
H1558 C1543 0.961 . S
H1559 C1543 0.961 . S
H1560 C1544 0.931 . S
H1561 C1549 0.930 . S
H1562 C1550 0.956 . S
H1563 C1550 0.961 . S
H1564 C1550 0.961 . S
H1565 C1551 0.958 . S
H1566 C1551 0.961 . S
H1567 C1551 0.960 . S
C1568 C1569 1.391 . S
C1568 C1570 1.394 . S
C1568 H1584 0.931 . S
C1569 C1568 1.391 . S
C1569 C1573 1.376 . S
C1570 C1568 1.394 . S
C1570 C1571 1.369 . S
C1570 C1574 1.531 . S
C1571 C1570 1.369 . S
C1571 C1572 1.410 . S
C1571 C1579 1.503 . S
C1572 C1571 1.410 . S
C1572 C1573 1.392 . S
C1572 C1575 1.511 . S
C1573 C1569 1.376 . S
C1573 C1572 1.392 . S
C1573 H1585 0.929 . S
C1574 C1570 1.531 . S
C1574 H1586 0.960 . S
C1574 H1587 0.962 . S
C1574 H1588 0.960 . S
C1575 C1572 1.511 . S
C1575 H1589 0.961 . S
C1575 H1590 0.961 . S
C1575 H1591 0.961 . S
C1576 C1577 1.370 . S
C1576 C1578 1.363 . S
C1576 H1592 0.931 . S
C1577 C1576 1.370 . S
C1577 C1581 1.408 . S
C1578 C1576 1.363 . S
C1578 C1579 1.370 . S
C1578 C1582 1.524 . S
C1579 C1571 1.503 . S
C1579 C1578 1.370 . S
C1579 C1580 1.403 . S
C1580 C1579 1.403 . S
C1580 C1581 1.404 . S
C1580 C1583 1.539 . S
C1581 C1577 1.408 . S
C1581 C1580 1.404 . S
C1581 H1593 0.930 . S
C1582 C1578 1.524 . S
C1582 H1594 0.956 . S
C1582 H1595 0.961 . S
C1582 H1596 0.961 . S
C1583 C1580 1.539 . S
C1583 H1597 0.958 . S
C1583 H1598 0.961 . S
C1583 H1599 0.960 . S
H1584 C1568 0.931 . S
H1585 C1573 0.929 . S
H1586 C1574 0.960 . S
H1587 C1574 0.962 . S
H1588 C1574 0.960 . S
H1589 C1575 0.961 . S
H1590 C1575 0.961 . S
H1591 C1575 0.961 . S
H1592 C1576 0.931 . S
H1593 C1581 0.930 . S
H1594 C1582 0.956 . S
H1595 C1582 0.961 . S
H1596 C1582 0.961 . S
H1597 C1583 0.958 . S
H1598 C1583 0.961 . S
H1599 C1583 0.960 . S
C1600 C1601 1.391 . S
C1600 C1602 1.394 . S
C1600 H1616 0.931 . S
C1601 C1600 1.391 . S
C1601 C1605 1.376 . S
C1602 C1600 1.394 . S
C1602 C1603 1.369 . S
C1602 C1606 1.531 . S
C1603 C1602 1.369 . S
C1603 C1604 1.410 . S
C1603 C1611 1.503 . S
C1604 C1603 1.410 . S
C1604 C1605 1.392 . S
C1604 C1607 1.511 . S
C1605 C1601 1.376 . S
C1605 C1604 1.392 . S
C1605 H1617 0.929 . S
C1606 C1602 1.531 . S
C1606 H1618 0.960 . S
C1606 H1619 0.962 . S
C1606 H1620 0.960 . S
C1607 C1604 1.511 . S
C1607 H1621 0.961 . S
C1607 H1622 0.961 . S
C1607 H1623 0.961 . S
C1608 C1609 1.370 . S
C1608 C1610 1.363 . S
C1608 H1624 0.931 . S
C1609 C1608 1.370 . S
C1609 C1613 1.408 . S
C1610 C1608 1.363 . S
C1610 C1611 1.370 . S
C1610 C1614 1.524 . S
C1611 C1603 1.503 . S
C1611 C1610 1.370 . S
C1611 C1612 1.403 . S
C1612 C1611 1.403 . S
C1612 C1613 1.404 . S
C1612 C1615 1.539 . S
C1613 C1609 1.408 . S
C1613 C1612 1.404 . S
C1613 H1625 0.930 . S
C1614 C1610 1.524 . S
C1614 H1626 0.956 . S
C1614 H1627 0.961 . S
C1614 H1628 0.961 . S
C1615 C1612 1.539 . S
C1615 H1629 0.958 . S
C1615 H1630 0.961 . S
C1615 H1631 0.960 . S
H1616 C1600 0.931 . S
H1617 C1605 0.929 . S
H1618 C1606 0.960 . S
H1619 C1606 0.962 . S
H1620 C1606 0.960 . S
H1621 C1607 0.961 . S
H1622 C1607 0.961 . S
H1623 C1607 0.961 . S
H1624 C1608 0.931 . S
H1625 C1613 0.930 . S
H1626 C1614 0.956 . S
H1627 C1614 0.961 . S
H1628 C1614 0.961 . S
H1629 C1615 0.958 . S
H1630 C1615 0.961 . S
H1631 C1615 0.960 . S
C1632 C1633 1.391 . S
C1632 C1634 1.394 . S
C1632 H1648 0.931 . S
C1633 C1632 1.391 . S
C1633 C1637 1.376 . S
C1634 C1632 1.394 . S
C1634 C1635 1.369 . S
C1634 C1638 1.531 . S
C1635 C1634 1.369 . S
C1635 C1636 1.410 . S
C1635 C1643 1.503 . S
C1636 C1635 1.410 . S
C1636 C1637 1.392 . S
C1636 C1639 1.511 . S
C1637 C1633 1.376 . S
C1637 C1636 1.392 . S
C1637 H1649 0.929 . S
C1638 C1634 1.531 . S
C1638 H1650 0.960 . S
C1638 H1651 0.962 . S
C1638 H1652 0.960 . S
C1639 C1636 1.511 . S
C1639 H1653 0.961 . S
C1639 H1654 0.961 . S
C1639 H1655 0.961 . S
C1640 C1641 1.370 . S
C1640 C1642 1.363 . S
C1640 H1656 0.931 . S
C1641 C1640 1.370 . S
C1641 C1645 1.408 . S
C1642 C1640 1.363 . S
C1642 C1643 1.370 . S
C1642 C1646 1.524 . S
C1643 C1635 1.503 . S
C1643 C1642 1.370 . S
C1643 C1644 1.403 . S
C1644 C1643 1.403 . S
C1644 C1645 1.404 . S
C1644 C1647 1.539 . S
C1645 C1641 1.408 . S
C1645 C1644 1.404 . S
C1645 H1657 0.930 . S
C1646 C1642 1.524 . S
C1646 H1658 0.956 . S
C1646 H1659 0.961 . S
C1646 H1660 0.961 . S
C1647 C1644 1.539 . S
C1647 H1661 0.958 . S
C1647 H1662 0.961 . S
C1647 H1663 0.960 . S
H1648 C1632 0.931 . S
H1649 C1637 0.929 . S
H1650 C1638 0.960 . S
H1651 C1638 0.962 . S
H1652 C1638 0.960 . S
H1653 C1639 0.961 . S
H1654 C1639 0.961 . S
H1655 C1639 0.961 . S
H1656 C1640 0.931 . S
H1657 C1645 0.930 . S
H1658 C1646 0.956 . S
H1659 C1646 0.961 . S
H1660 C1646 0.961 . S
H1661 C1647 0.958 . S
H1662 C1647 0.961 . S
H1663 C1647 0.960 . S
C1664 C1665 1.391 . S
C1664 C1666 1.394 . S
C1664 H1680 0.931 . S
C1665 C1664 1.391 . S
C1665 C1669 1.376 . S
C1666 C1664 1.394 . S
C1666 C1667 1.369 . S
C1666 C1670 1.531 . S
C1667 C1666 1.369 . S
C1667 C1668 1.410 . S
C1667 C1675 1.503 . S
C1668 C1667 1.410 . S
C1668 C1669 1.392 . S
C1668 C1671 1.511 . S
C1669 C1665 1.376 . S
C1669 C1668 1.392 . S
C1669 H1681 0.929 . S
C1670 C1666 1.531 . S
C1670 H1682 0.960 . S
C1670 H1683 0.962 . S
C1670 H1684 0.960 . S
C1671 C1668 1.511 . S
C1671 H1685 0.961 . S
C1671 H1686 0.961 . S
C1671 H1687 0.961 . S
C1672 C1673 1.370 . S
C1672 C1674 1.363 . S
C1672 H1688 0.931 . S
C1673 C1672 1.370 . S
C1673 C1677 1.408 . S
C1674 C1672 1.363 . S
C1674 C1675 1.370 . S
C1674 C1678 1.524 . S
C1675 C1667 1.503 . S
C1675 C1674 1.370 . S
C1675 C1676 1.403 . S
C1676 C1675 1.403 . S
C1676 C1677 1.404 . S
C1676 C1679 1.539 . S
C1677 C1673 1.408 . S
C1677 C1676 1.404 . S
C1677 H1689 0.930 . S
C1678 C1674 1.524 . S
C1678 H1690 0.956 . S
C1678 H1691 0.961 . S
C1678 H1692 0.961 . S
C1679 C1676 1.539 . S
C1679 H1693 0.958 . S
C1679 H1694 0.961 . S
C1679 H1695 0.960 . S
H1680 C1664 0.931 . S
H1681 C1669 0.929 . S
H1682 C1670 0.960 . S
H1683 C1670 0.962 . S
H1684 C1670 0.960 . S
H1685 C1671 0.961 . S
H1686 C1671 0.961 . S
H1687 C1671 0.961 . S
H1688 C1672 0.931 . S
H1689 C1677 0.930 . S
H1690 C1678 0.956 . S
H1691 C1678 0.961 . S
H1692 C1678 0.961 . S
H1693 C1679 0.958 . S
H1694 C1679 0.961 . S
H1695 C1679 0.960 . S
C1696 C1697 1.391 . S
C1696 C1698 1.394 . S
C1696 H1712 0.931 . S
C1697 C1696 1.391 . S
C1697 C1701 1.376 . S
C1698 C1696 1.394 . S
C1698 C1699 1.369 . S
C1698 C1702 1.531 . S
C1699 C1698 1.369 . S
C1699 C1700 1.410 . S
C1699 C1707 1.503 . S
C1700 C1699 1.410 . S
C1700 C1701 1.392 . S
C1700 C1703 1.511 . S
C1701 C1697 1.376 . S
C1701 C1700 1.392 . S
C1701 H1713 0.929 . S
C1702 C1698 1.531 . S
C1702 H1714 0.960 . S
C1702 H1715 0.962 . S
C1702 H1716 0.960 . S
C1703 C1700 1.511 . S
C1703 H1717 0.961 . S
C1703 H1718 0.961 . S
C1703 H1719 0.961 . S
C1704 C1705 1.370 . S
C1704 C1706 1.363 . S
C1704 H1720 0.931 . S
C1705 C1704 1.370 . S
C1705 C1709 1.408 . S
C1706 C1704 1.363 . S
C1706 C1707 1.370 . S
C1706 C1710 1.524 . S
C1707 C1699 1.503 . S
C1707 C1706 1.370 . S
C1707 C1708 1.403 . S
C1708 C1707 1.403 . S
C1708 C1709 1.404 . S
C1708 C1711 1.539 . S
C1709 C1705 1.408 . S
C1709 C1708 1.404 . S
C1709 H1721 0.930 . S
C1710 C1706 1.524 . S
C1710 H1722 0.956 . S
C1710 H1723 0.961 . S
C1710 H1724 0.961 . S
C1711 C1708 1.539 . S
C1711 H1725 0.958 . S
C1711 H1726 0.961 . S
C1711 H1727 0.960 . S
H1712 C1696 0.931 . S
H1713 C1701 0.929 . S
H1714 C1702 0.960 . S
H1715 C1702 0.962 . S
H1716 C1702 0.960 . S
H1717 C1703 0.961 . S
H1718 C1703 0.961 . S
H1719 C1703 0.961 . S
H1720 C1704 0.931 . S
H1721 C1709 0.930 . S
H1722 C1710 0.956 . S
H1723 C1710 0.961 . S
H1724 C1710 0.961 . S
H1725 C1711 0.958 . S
H1726 C1711 0.961 . S
H1727 C1711 0.960 . S
C1728 C1729 1.391 . S
C1728 C1730 1.394 . S
C1728 H1744 0.931 . S
C1729 C1728 1.391 . S
C1729 C1733 1.376 . S
C1730 C1728 1.394 . S
C1730 C1731 1.369 . S
C1730 C1734 1.531 . S
C1731 C1730 1.369 . S
C1731 C1732 1.410 . S
C1731 C1739 1.503 . S
C1732 C1731 1.410 . S
C1732 C1733 1.392 . S
C1732 C1735 1.511 . S
C1733 C1729 1.376 . S
C1733 C1732 1.392 . S
C1733 H1745 0.929 . S
C1734 C1730 1.531 . S
C1734 H1746 0.960 . S
C1734 H1747 0.962 . S
C1734 H1748 0.960 . S
C1735 C1732 1.511 . S
C1735 H1749 0.961 . S
C1735 H1750 0.961 . S
C1735 H1751 0.961 . S
C1736 C1737 1.370 . S
C1736 C1738 1.363 . S
C1736 H1752 0.931 . S
C1737 C1736 1.370 . S
C1737 C1741 1.408 . S
C1738 C1736 1.363 . S
C1738 C1739 1.370 . S
C1738 C1742 1.524 . S
C1739 C1731 1.503 . S
C1739 C1738 1.370 . S
C1739 C1740 1.403 . S
C1740 C1739 1.403 . S
C1740 C1741 1.404 . S
C1740 C1743 1.539 . S
C1741 C1737 1.408 . S
C1741 C1740 1.404 . S
C1741 H1753 0.930 . S
C1742 C1738 1.524 . S
C1742 H1754 0.956 . S
C1742 H1755 0.961 . S
C1742 H1756 0.961 . S
C1743 C1740 1.539 . S
C1743 H1757 0.958 . S
C1743 H1758 0.961 . S
C1743 H1759 0.960 . S
H1744 C1728 0.931 . S
H1745 C1733 0.929 . S
H1746 C1734 0.960 . S
H1747 C1734 0.962 . S
H1748 C1734 0.960 . S
H1749 C1735 0.961 . S
H1750 C1735 0.961 . S
H1751 C1735 0.961 . S
H1752 C1736 0.931 . S
H1753 C1741 0.930 . S
H1754 C1742 0.956 . S
H1755 C1742 0.961 . S
H1756 C1742 0.961 . S
H1757 C1743 0.958 . S
H1758 C1743 0.961 . S
H1759 C1743 0.960 . S
C1760 C1761 1.391 . S
C1760 C1762 1.394 . S
C1760 H1776 0.931 . S
C1761 C1760 1.391 . S
C1761 C1765 1.376 . S
C1762 C1760 1.394 . S
C1762 C1763 1.369 . S
C1762 C1766 1.531 . S
C1763 C1762 1.369 . S
C1763 C1764 1.410 . S
C1763 C1771 1.503 . S
C1764 C1763 1.410 . S
C1764 C1765 1.392 . S
C1764 C1767 1.511 . S
C1765 C1761 1.376 . S
C1765 C1764 1.392 . S
C1765 H1777 0.929 . S
C1766 C1762 1.531 . S
C1766 H1778 0.960 . S
C1766 H1779 0.962 . S
C1766 H1780 0.960 . S
C1767 C1764 1.511 . S
C1767 H1781 0.961 . S
C1767 H1782 0.961 . S
C1767 H1783 0.961 . S
C1768 C1769 1.370 . S
C1768 C1770 1.363 . S
C1768 H1784 0.931 . S
C1769 C1768 1.370 . S
C1769 C1773 1.408 . S
C1770 C1768 1.363 . S
C1770 C1771 1.370 . S
C1770 C1774 1.524 . S
C1771 C1763 1.503 . S
C1771 C1770 1.370 . S
C1771 C1772 1.403 . S
C1772 C1771 1.403 . S
C1772 C1773 1.404 . S
C1772 C1775 1.539 . S
C1773 C1769 1.408 . S
C1773 C1772 1.404 . S
C1773 H1785 0.930 . S
C1774 C1770 1.524 . S
C1774 H1786 0.956 . S
C1774 H1787 0.961 . S
C1774 H1788 0.961 . S
C1775 C1772 1.539 . S
C1775 H1789 0.958 . S
C1775 H1790 0.961 . S
C1775 H1791 0.960 . S
H1776 C1760 0.931 . S
H1777 C1765 0.929 . S
H1778 C1766 0.960 . S
H1779 C1766 0.962 . S
H1780 C1766 0.960 . S
H1781 C1767 0.961 . S
H1782 C1767 0.961 . S
H1783 C1767 0.961 . S
H1784 C1768 0.931 . S
H1785 C1773 0.930 . S
H1786 C1774 0.956 . S
H1787 C1774 0.961 . S
H1788 C1774 0.961 . S
H1789 C1775 0.958 . S
H1790 C1775 0.961 . S
H1791 C1775 0.960 . S
C1792 C1793 1.391 . S
C1792 C1794 1.394 . S
C1792 H1808 0.931 . S
C1793 C1792 1.391 . S
C1793 C1797 1.376 . S
C1794 C1792 1.394 . S
C1794 C1795 1.369 . S
C1794 C1798 1.531 . S
C1795 C1794 1.369 . S
C1795 C1796 1.410 . S
C1795 C1803 1.503 . S
C1796 C1795 1.410 . S
C1796 C1797 1.392 . S
C1796 C1799 1.511 . S
C1797 C1793 1.376 . S
C1797 C1796 1.392 . S
C1797 H1809 0.929 . S
C1798 C1794 1.531 . S
C1798 H1810 0.960 . S
C1798 H1811 0.962 . S
C1798 H1812 0.960 . S
C1799 C1796 1.511 . S
C1799 H1813 0.961 . S
C1799 H1814 0.961 . S
C1799 H1815 0.961 . S
C1800 C1801 1.370 . S
C1800 C1802 1.363 . S
C1800 H1816 0.931 . S
C1801 C1800 1.370 . S
C1801 C1805 1.408 . S
C1802 C1800 1.363 . S
C1802 C1803 1.370 . S
C1802 C1806 1.524 . S
C1803 C1795 1.503 . S
C1803 C1802 1.370 . S
C1803 C1804 1.403 . S
C1804 C1803 1.403 . S
C1804 C1805 1.404 . S
C1804 C1807 1.539 . S
C1805 C1801 1.408 . S
C1805 C1804 1.404 . S
C1805 H1817 0.930 . S
C1806 C1802 1.524 . S
C1806 H1818 0.956 . S
C1806 H1819 0.961 . S
C1806 H1820 0.961 . S
C1807 C1804 1.539 . S
C1807 H1821 0.958 . S
C1807 H1822 0.961 . S
C1807 H1823 0.960 . S
H1808 C1792 0.931 . S
H1809 C1797 0.929 . S
H1810 C1798 0.960 . S
H1811 C1798 0.962 . S
H1812 C1798 0.960 . S
H1813 C1799 0.961 . S
H1814 C1799 0.961 . S
H1815 C1799 0.961 . S
H1816 C1800 0.931 . S
H1817 C1805 0.930 . S
H1818 C1806 0.956 . S
H1819 C1806 0.961 . S
H1820 C1806 0.961 . S
H1821 C1807 0.958 . S
H1822 C1807 0.961 . S
H1823 C1807 0.960 . S
C1824 C1825 1.391 . S
C1824 C1826 1.394 . S
C1824 H1840 0.931 . S
C1825 C1824 1.391 . S
C1825 C1829 1.376 . S
C1826 C1824 1.394 . S
C1826 C1827 1.369 . S
C1826 C1830 1.531 . S
C1827 C1826 1.369 . S
C1827 C1828 1.410 . S
C1827 C1835 1.503 . S
C1828 C1827 1.410 . S
C1828 C1829 1.392 . S
C1828 C1831 1.511 . S
C1829 C1825 1.376 . S
C1829 C1828 1.392 . S
C1829 H1841 0.929 . S
C1830 C1826 1.531 . S
C1830 H1842 0.960 . S
C1830 H1843 0.962 . S
C1830 H1844 0.960 . S
C1831 C1828 1.511 . S
C1831 H1845 0.961 . S
C1831 H1846 0.961 . S
C1831 H1847 0.961 . S
C1832 C1833 1.370 . S
C1832 C1834 1.363 . S
C1832 H1848 0.931 . S
C1833 C1832 1.370 . S
C1833 C1837 1.408 . S
C1834 C1832 1.363 . S
C1834 C1835 1.370 . S
C1834 C1838 1.524 . S
C1835 C1827 1.503 . S
C1835 C1834 1.370 . S
C1835 C1836 1.403 . S
C1836 C1835 1.403 . S
C1836 C1837 1.404 . S
C1836 C1839 1.539 . S
C1837 C1833 1.408 . S
C1837 C1836 1.404 . S
C1837 H1849 0.930 . S
C1838 C1834 1.524 . S
C1838 H1850 0.956 . S
C1838 H1851 0.961 . S
C1838 H1852 0.961 . S
C1839 C1836 1.539 . S
C1839 H1853 0.958 . S
C1839 H1854 0.961 . S
C1839 H1855 0.960 . S
H1840 C1824 0.931 . S
H1841 C1829 0.929 . S
H1842 C1830 0.960 . S
H1843 C1830 0.962 . S
H1844 C1830 0.960 . S
H1845 C1831 0.961 . S
H1846 C1831 0.961 . S
H1847 C1831 0.961 . S
H1848 C1832 0.931 . S
H1849 C1837 0.930 . S
H1850 C1838 0.956 . S
H1851 C1838 0.961 . S
H1852 C1838 0.961 . S
H1853 C1839 0.958 . S
H1854 C1839 0.961 . S
H1855 C1839 0.960 . S
C1856 C1857 1.391 . S
C1856 C1858 1.394 . S
C1856 H1872 0.931 . S
C1857 C1856 1.391 . S
C1857 C1861 1.376 . S
C1858 C1856 1.394 . S
C1858 C1859 1.369 . S
C1858 C1862 1.531 . S
C1859 C1858 1.369 . S
C1859 C1860 1.410 . S
C1859 C1867 1.503 . S
C1860 C1859 1.410 . S
C1860 C1861 1.392 . S
C1860 C1863 1.511 . S
C1861 C1857 1.376 . S
C1861 C1860 1.392 . S
C1861 H1873 0.929 . S
C1862 C1858 1.531 . S
C1862 H1874 0.960 . S
C1862 H1875 0.962 . S
C1862 H1876 0.960 . S
C1863 C1860 1.511 . S
C1863 H1877 0.961 . S
C1863 H1878 0.961 . S
C1863 H1879 0.961 . S
C1864 C1865 1.370 . S
C1864 C1866 1.363 . S
C1864 H1880 0.931 . S
C1865 C1864 1.370 . S
C1865 C1869 1.408 . S
C1866 C1864 1.363 . S
C1866 C1867 1.370 . S
C1866 C1870 1.524 . S
C1867 C1859 1.503 . S
C1867 C1866 1.370 . S
C1867 C1868 1.403 . S
C1868 C1867 1.403 . S
C1868 C1869 1.404 . S
C1868 C1871 1.539 . S
C1869 C1865 1.408 . S
C1869 C1868 1.404 . S
C1869 H1881 0.930 . S
C1870 C1866 1.524 . S
C1870 H1882 0.956 . S
C1870 H1883 0.961 . S
C1870 H1884 0.961 . S
C1871 C1868 1.539 . S
C1871 H1885 0.958 . S
C1871 H1886 0.961 . S
C1871 H1887 0.960 . S
H1872 C1856 0.931 . S
H1873 C1861 0.929 . S
H1874 C1862 0.960 . S
H1875 C1862 0.962 . S
H1876 C1862 0.960 . S
H1877 C1863 0.961 . S
H1878 C1863 0.961 . S
H1879 C1863 0.961 . S
H1880 C1864 0.931 . S
H1881 C1869 0.930 . S
H1882 C1870 0.956 . S
H1883 C1870 0.961 . S
H1884 C1870 0.961 . S
H1885 C1871 0.958 . S
H1886 C1871 0.961 . S
H1887 C1871 0.960 . S
C1888 C1889 1.391 . S
C1888 C1890 1.394 . S
C1888 H1904 0.931 . S
C1889 C1888 1.391 . S
C1889 C1893 1.376 . S
C1890 C1888 1.394 . S
C1890 C1891 1.369 . S
C1890 C1894 1.531 . S
C1891 C1890 1.369 . S
C1891 C1892 1.410 . S
C1891 C1899 1.503 . S
C1892 C1891 1.410 . S
C1892 C1893 1.392 . S
C1892 C1895 1.511 . S
C1893 C1889 1.376 . S
C1893 C1892 1.392 . S
C1893 H1905 0.929 . S
C1894 C1890 1.531 . S
C1894 H1906 0.960 . S
C1894 H1907 0.962 . S
C1894 H1908 0.960 . S
C1895 C1892 1.511 . S
C1895 H1909 0.961 . S
C1895 H1910 0.961 . S
C1895 H1911 0.961 . S
C1896 C1897 1.370 . S
C1896 C1898 1.363 . S
C1896 H1912 0.931 . S
C1897 C1896 1.370 . S
C1897 C1901 1.408 . S
C1898 C1896 1.363 . S
C1898 C1899 1.370 . S
C1898 C1902 1.524 . S
C1899 C1891 1.503 . S
C1899 C1898 1.370 . S
C1899 C1900 1.403 . S
C1900 C1899 1.403 . S
C1900 C1901 1.404 . S
C1900 C1903 1.539 . S
C1901 C1897 1.408 . S
C1901 C1900 1.404 . S
C1901 H1913 0.930 . S
C1902 C1898 1.524 . S
C1902 H1914 0.956 . S
C1902 H1915 0.961 . S
C1902 H1916 0.961 . S
C1903 C1900 1.539 . S
C1903 H1917 0.958 . S
C1903 H1918 0.961 . S
C1903 H1919 0.960 . S
H1904 C1888 0.931 . S
H1905 C1893 0.929 . S
H1906 C1894 0.960 . S
H1907 C1894 0.962 . S
H1908 C1894 0.960 . S
H1909 C1895 0.961 . S
H1910 C1895 0.961 . S
H1911 C1895 0.961 . S
H1912 C1896 0.931 . S
H1913 C1901 0.930 . S
H1914 C1902 0.956 . S
H1915 C1902 0.961 . S
H1916 C1902 0.961 . S
H1917 C1903 0.958 . S
H1918 C1903 0.961 . S
H1919 C1903 0.960 . S
C1920 C1921 1.391 . S
C1920 C1922 1.394 . S
C1920 H1936 0.931 . S
C1921 C1920 1.391 . S
C1921 C1925 1.376 . S
C1922 C1920 1.394 . S
C1922 C1923 1.369 . S
C1922 C1926 1.531 . S
C1923 C1922 1.369 . S
C1923 C1924 1.410 . S
C1923 C1931 1.503 . S
C1924 C1923 1.410 . S
C1924 C1925 1.392 . S
C1924 C1927 1.511 . S
C1925 C1921 1.376 . S
C1925 C1924 1.392 . S
C1925 H1937 0.929 . S
C1926 C1922 1.531 . S
C1926 H1938 0.960 . S
C1926 H1939 0.962 . S
C1926 H1940 0.960 . S
C1927 C1924 1.511 . S
C1927 H1941 0.961 . S
C1927 H1942 0.961 . S
C1927 H1943 0.961 . S
C1928 C1929 1.370 . S
C1928 C1930 1.363 . S
C1928 H1944 0.931 . S
C1929 C1928 1.370 . S
C1929 C1933 1.408 . S
C1930 C1928 1.363 . S
C1930 C1931 1.370 . S
C1930 C1934 1.524 . S
C1931 C1923 1.503 . S
C1931 C1930 1.370 . S
C1931 C1932 1.403 . S
C1932 C1931 1.403 . S
C1932 C1933 1.404 . S
C1932 C1935 1.539 . S
C1933 C1929 1.408 . S
C1933 C1932 1.404 . S
C1933 H1945 0.930 . S
C1934 C1930 1.524 . S
C1934 H1946 0.956 . S
C1934 H1947 0.961 . S
C1934 H1948 0.961 . S
C1935 C1932 1.539 . S
C1935 H1949 0.958 . S
C1935 H1950 0.961 . S
C1935 H1951 0.960 . S
H1936 C1920 0.931 . S
H1937 C1925 0.929 . S
H1938 C1926 0.960 . S
H1939 C1926 0.962 . S
H1940 C1926 0.960 . S
H1941 C1927 0.961 . S
H1942 C1927 0.961 . S
H1943 C1927 0.961 . S
H1944 C1928 0.931 . S
H1945 C1933 0.930 . S
H1946 C1934 0.956 . S
H1947 C1934 0.961 . S
H1948 C1934 0.961 . S
H1949 C1935 0.958 . S
H1950 C1935 0.961 . S
H1951 C1935 0.960 . S
C1952 C1953 1.391 . S
C1952 C1954 1.394 . S
C1952 H1968 0.931 . S
C1953 C1952 1.391 . S
C1953 C1957 1.376 . S
C1954 C1952 1.394 . S
C1954 C1955 1.369 . S
C1954 C1958 1.531 . S
C1955 C1954 1.369 . S
C1955 C1956 1.410 . S
C1955 C1963 1.503 . S
C1956 C1955 1.410 . S
C1956 C1957 1.392 . S
C1956 C1959 1.511 . S
C1957 C1953 1.376 . S
C1957 C1956 1.392 . S
C1957 H1969 0.929 . S
C1958 C1954 1.531 . S
C1958 H1970 0.960 . S
C1958 H1971 0.962 . S
C1958 H1972 0.960 . S
C1959 C1956 1.511 . S
C1959 H1973 0.961 . S
C1959 H1974 0.961 . S
C1959 H1975 0.961 . S
C1960 C1961 1.370 . S
C1960 C1962 1.363 . S
C1960 H1976 0.931 . S
C1961 C1960 1.370 . S
C1961 C1965 1.408 . S
C1962 C1960 1.363 . S
C1962 C1963 1.370 . S
C1962 C1966 1.524 . S
C1963 C1955 1.503 . S
C1963 C1962 1.370 . S
C1963 C1964 1.403 . S
C1964 C1963 1.403 . S
C1964 C1965 1.404 . S
C1964 C1967 1.539 . S
C1965 C1961 1.408 . S
C1965 C1964 1.404 . S
C1965 H1977 0.930 . S
C1966 C1962 1.524 . S
C1966 H1978 0.956 . S
C1966 H1979 0.961 . S
C1966 H1980 0.961 . S
C1967 C1964 1.539 . S
C1967 H1981 0.958 . S
C1967 H1982 0.961 . S
C1967 H1983 0.960 . S
H1968 C1952 0.931 . S
H1969 C1957 0.929 . S
H1970 C1958 0.960 . S
H1971 C1958 0.962 . S
H1972 C1958 0.960 . S
H1973 C1959 0.961 . S
H1974 C1959 0.961 . S
H1975 C1959 0.961 . S
H1976 C1960 0.931 . S
H1977 C1965 0.930 . S
H1978 C1966 0.956 . S
H1979 C1966 0.961 . S
H1980 C1966 0.961 . S
H1981 C1967 0.958 . S
H1982 C1967 0.961 . S
H1983 C1967 0.960 . S
C1984 C1985 1.391 . S
C1984 C1986 1.394 . S
C1984 H2000 0.931 . S
C1985 C1984 1.391 . S
C1985 C1989 1.376 . S
C1986 C1984 1.394 . S
C1986 C1987 1.369 . S
C1986 C1990 1.531 . S
C1987 C1986 1.369 . S
C1987 C1988 1.410 . S
C1987 C1995 1.503 . S
C1988 C1987 1.410 . S
C1988 C1989 1.392 . S
C1988 C1991 1.511 . S
C1989 C1985 1.376 . S
C1989 C1988 1.392 . S
C1989 H2001 0.929 . S
C1990 C1986 1.531 . S
C1990 H2002 0.960 . S
C1990 H2003 0.962 . S
C1990 H2004 0.960 . S
C1991 C1988 1.511 . S
C1991 H2005 0.961 . S
C1991 H2006 0.961 . S
C1991 H2007 0.961 . S
C1992 C1993 1.370 . S
C1992 C1994 1.363 . S
C1992 H2008 0.931 . S
C1993 C1992 1.370 . S
C1993 C1997 1.408 . S
C1994 C1992 1.363 . S
C1994 C1995 1.370 . S
C1994 C1998 1.524 . S
C1995 C1987 1.503 . S
C1995 C1994 1.370 . S
C1995 C1996 1.403 . S
C1996 C1995 1.403 . S
C1996 C1997 1.404 . S
C1996 C1999 1.539 . S
C1997 C1993 1.408 . S
C1997 C1996 1.404 . S
C1997 H2009 0.930 . S
C1998 C1994 1.524 . S
C1998 H2010 0.956 . S
C1998 H2011 0.961 . S
C1998 H2012 0.961 . S
C1999 C1996 1.539 . S
C1999 H2013 0.958 . S
C1999 H2014 0.961 . S
C1999 H2015 0.960 . S
H2000 C1984 0.931 . S
H2001 C1989 0.929 . S
H2002 C1990 0.960 . S
H2003 C1990 0.962 . S
H2004 C1990 0.960 . S
H2005 C1991 0.961 . S
H2006 C1991 0.961 . S
H2007 C1991 0.961 . S
H2008 C1992 0.931 . S
H2009 C1997 0.930 . S
H2010 C1998 0.956 . S
H2011 C1998 0.961 . S
H2012 C1998 0.961 . S
H2013 C1999 0.958 . S
H2014 C1999 0.961 . S
H2015 C1999 0.960 . S
C2016 C2017 1.391 . S
C2016 C2018 1.394 . S
C2016 H2032 0.931 . S
C2017 C2016 1.391 . S
C2017 C2021 1.376 . S
C2018 C2016 1.394 . S
C2018 C2019 1.369 . S
C2018 C2022 1.531 . S
C2019 C2018 1.369 . S
C2019 C2020 1.410 . S
C2019 C2027 1.503 . S
C2020 C2019 1.410 . S
C2020 C2021 1.392 . S
C2020 C2023 1.511 . S
C2021 C2017 1.376 . S
C2021 C2020 1.392 . S
C2021 H2033 0.929 . S
C2022 C2018 1.531 . S
C2022 H2034 0.960 . S
C2022 H2035 0.962 . S
C2022 H2036 0.960 . S
C2023 C2020 1.511 . S
C2023 H2037 0.961 . S
C2023 H2038 0.961 . S
C2023 H2039 0.961 . S
C2024 C2025 1.370 . S
C2024 C2026 1.363 . S
C2024 H2040 0.931 . S
C2025 C2024 1.370 . S
C2025 C2029 1.408 . S
C2026 C2024 1.363 . S
C2026 C2027 1.370 . S
C2026 C2030 1.524 . S
C2027 C2019 1.503 . S
C2027 C2026 1.370 . S
C2027 C2028 1.403 . S
C2028 C2027 1.403 . S
C2028 C2029 1.404 . S
C2028 C2031 1.539 . S
C2029 C2025 1.408 . S
C2029 C2028 1.404 . S
C2029 H2041 0.930 . S
C2030 C2026 1.524 . S
C2030 H2042 0.956 . S
C2030 H2043 0.961 . S
C2030 H2044 0.961 . S
C2031 C2028 1.539 . S
C2031 H2045 0.958 . S
C2031 H2046 0.961 . S
C2031 H2047 0.960 . S
H2032 C2016 0.931 . S
H2033 C2021 0.929 . S
H2034 C2022 0.960 . S
H2035 C2022 0.962 . S
H2036 C2022 0.960 . S
H2037 C2023 0.961 . S
H2038 C2023 0.961 . S
H2039 C2023 0.961 . S
H2040 C2024 0.931 . S
H2041 C2029 0.930 . S
H2042 C2030 0.956 . S
H2043 C2030 0.961 . S
H2044 C2030 0.961 . S
H2045 C2031 0.958 . S
H2046 C2031 0.961 . S
H2047 C2031 0.960 . S
C2048 C2049 1.391 . S
C2048 C2050 1.394 . S
C2048 H2064 0.931 . S
C2049 C2048 1.391 . S
C2049 C2053 1.376 . S
C2050 C2048 1.394 . S
C2050 C2051 1.369 . S
C2050 C2054 1.531 . S
C2051 C2050 1.369 . S
C2051 C2052 1.410 . S
C2051 C2059 1.503 . S
C2052 C2051 1.410 . S
C2052 C2053 1.392 . S
C2052 C2055 1.511 . S
C2053 C2049 1.376 . S
C2053 C2052 1.392 . S
C2053 H2065 0.929 . S
C2054 C2050 1.531 . S
C2054 H2066 0.960 . S
C2054 H2067 0.962 . S
C2054 H2068 0.960 . S
C2055 C2052 1.511 . S
C2055 H2069 0.961 . S
C2055 H2070 0.961 . S
C2055 H2071 0.961 . S
C2056 C2057 1.370 . S
C2056 C2058 1.363 . S
C2056 H2072 0.931 . S
C2057 C2056 1.370 . S
C2057 C2061 1.408 . S
C2058 C2056 1.363 . S
C2058 C2059 1.370 . S
C2058 C2062 1.524 . S
C2059 C2051 1.503 . S
C2059 C2058 1.370 . S
C2059 C2060 1.403 . S
C2060 C2059 1.403 . S
C2060 C2061 1.404 . S
C2060 C2063 1.539 . S
C2061 C2057 1.408 . S
C2061 C2060 1.404 . S
C2061 H2073 0.930 . S
C2062 C2058 1.524 . S
C2062 H2074 0.956 . S
C2062 H2075 0.961 . S
C2062 H2076 0.961 . S
C2063 C2060 1.539 . S
C2063 H2077 0.958 . S
C2063 H2078 0.961 . S
C2063 H2079 0.960 . S
H2064 C2048 0.931 . S
H2065 C2053 0.929 . S
H2066 C2054 0.960 . S
H2067 C2054 0.962 . S
H2068 C2054 0.960 . S
H2069 C2055 0.961 . S
H2070 C2055 0.961 . S
H2071 C2055 0.961 . S
H2072 C2056 0.931 . S
H2073 C2061 0.930 . S
H2074 C2062 0.956 . S
H2075 C2062 0.961 . S
H2076 C2062 0.961 . S
H2077 C2063 0.958 . S
H2078 C2063 0.961 . S
H2079 C2063 0.960 . S
C2080 C2081 1.391 . S
C2080 C2082 1.394 . S
C2080 H2096 0.931 . S
C2081 C2080 1.391 . S
C2081 C2085 1.376 . S
C2082 C2080 1.394 . S
C2082 C2083 1.369 . S
C2082 C2086 1.531 . S
C2083 C2082 1.369 . S
C2083 C2084 1.410 . S
C2083 C2091 1.503 . S
C2084 C2083 1.410 . S
C2084 C2085 1.392 . S
C2084 C2087 1.511 . S
C2085 C2081 1.376 . S
C2085 C2084 1.392 . S
C2085 H2097 0.929 . S
C2086 C2082 1.531 . S
C2086 H2098 0.960 . S
C2086 H2099 0.962 . S
C2086 H2100 0.960 . S
C2087 C2084 1.511 . S
C2087 H2101 0.961 . S
C2087 H2102 0.961 . S
C2087 H2103 0.961 . S
C2088 C2089 1.370 . S
C2088 C2090 1.363 . S
C2088 H2104 0.931 . S
C2089 C2088 1.370 . S
C2089 C2093 1.408 . S
C2090 C2088 1.363 . S
C2090 C2091 1.370 . S
C2090 C2094 1.524 . S
C2091 C2083 1.503 . S
C2091 C2090 1.370 . S
C2091 C2092 1.403 . S
C2092 C2091 1.403 . S
C2092 C2093 1.404 . S
C2092 C2095 1.539 . S
C2093 C2089 1.408 . S
C2093 C2092 1.404 . S
C2093 H2105 0.930 . S
C2094 C2090 1.524 . S
C2094 H2106 0.956 . S
C2094 H2107 0.961 . S
C2094 H2108 0.961 . S
C2095 C2092 1.539 . S
C2095 H2109 0.958 . S
C2095 H2110 0.961 . S
C2095 H2111 0.960 . S
H2096 C2080 0.931 . S
H2097 C2085 0.929 . S
H2098 C2086 0.960 . S
H2099 C2086 0.962 . S
H2100 C2086 0.960 . S
H2101 C2087 0.961 . S
H2102 C2087 0.961 . S
H2103 C2087 0.961 . S
H2104 C2088 0.931 . S
H2105 C2093 0.930 . S
H2106 C2094 0.956 . S
H2107 C2094 0.961 . S
H2108 C2094 0.961 . S
H2109 C2095 0.958 . S
H2110 C2095 0.961 . S
H2111 C2095 0.960 . S
C2112 C2113 1.391 . S
C2112 C2114 1.394 . S
C2112 H2128 0.931 . S
C2113 C2112 1.391 . S
C2113 C2117 1.376 . S
C2114 C2112 1.394 . S
C2114 C2115 1.369 . S
C2114 C2118 1.531 . S
C2115 C2114 1.369 . S
C2115 C2116 1.410 . S
C2115 C2123 1.503 . S
C2116 C2115 1.410 . S
C2116 C2117 1.392 . S
C2116 C2119 1.511 . S
C2117 C2113 1.376 . S
C2117 C2116 1.392 . S
C2117 H2129 0.929 . S
C2118 C2114 1.531 . S
C2118 H2130 0.960 . S
C2118 H2131 0.962 . S
C2118 H2132 0.960 . S
C2119 C2116 1.511 . S
C2119 H2133 0.961 . S
C2119 H2134 0.961 . S
C2119 H2135 0.961 . S
C2120 C2121 1.370 . S
C2120 C2122 1.363 . S
C2120 H2136 0.931 . S
C2121 C2120 1.370 . S
C2121 C2125 1.408 . S
C2122 C2120 1.363 . S
C2122 C2123 1.370 . S
C2122 C2126 1.524 . S
C2123 C2115 1.503 . S
C2123 C2122 1.370 . S
C2123 C2124 1.403 . S
C2124 C2123 1.403 . S
C2124 C2125 1.404 . S
C2124 C2127 1.539 . S
C2125 C2121 1.408 . S
C2125 C2124 1.404 . S
C2125 H2137 0.930 . S
C2126 C2122 1.524 . S
C2126 H2138 0.956 . S
C2126 H2139 0.961 . S
C2126 H2140 0.961 . S
C2127 C2124 1.539 . S
C2127 H2141 0.958 . S
C2127 H2142 0.961 . S
C2127 H2143 0.960 . S
H2128 C2112 0.931 . S
H2129 C2117 0.929 . S
H2130 C2118 0.960 . S
H2131 C2118 0.962 . S
H2132 C2118 0.960 . S
H2133 C2119 0.961 . S
H2134 C2119 0.961 . S
H2135 C2119 0.961 . S
H2136 C2120 0.931 . S
H2137 C2125 0.930 . S
H2138 C2126 0.956 . S
H2139 C2126 0.961 . S
H2140 C2126 0.961 . S
H2141 C2127 0.958 . S
H2142 C2127 0.961 . S
H2143 C2127 0.960 . S
C2144 C2145 1.391 . S
C2144 C2146 1.394 . S
C2144 H2160 0.931 . S
C2145 C2144 1.391 . S
C2145 C2149 1.376 . S
C2146 C2144 1.394 . S
C2146 C2147 1.369 . S
C2146 C2150 1.531 . S
C2147 C2146 1.369 . S
C2147 C2148 1.410 . S
C2147 C2155 1.503 . S
C2148 C2147 1.410 . S
C2148 C2149 1.392 . S
C2148 C2151 1.511 . S
C2149 C2145 1.376 . S
C2149 C2148 1.392 . S
C2149 H2161 0.929 . S
C2150 C2146 1.531 . S
C2150 H2162 0.960 . S
C2150 H2163 0.962 . S
C2150 H2164 0.960 . S
C2151 C2148 1.511 . S
C2151 H2165 0.961 . S
C2151 H2166 0.961 . S
C2151 H2167 0.961 . S
C2152 C2153 1.370 . S
C2152 C2154 1.363 . S
C2152 H2168 0.931 . S
C2153 C2152 1.370 . S
C2153 C2157 1.408 . S
C2154 C2152 1.363 . S
C2154 C2155 1.370 . S
C2154 C2158 1.524 . S
C2155 C2147 1.503 . S
C2155 C2154 1.370 . S
C2155 C2156 1.403 . S
C2156 C2155 1.403 . S
C2156 C2157 1.404 . S
C2156 C2159 1.539 . S
C2157 C2153 1.408 . S
C2157 C2156 1.404 . S
C2157 H2169 0.930 . S
C2158 C2154 1.524 . S
C2158 H2170 0.956 . S
C2158 H2171 0.961 . S
C2158 H2172 0.961 . S
C2159 C2156 1.539 . S
C2159 H2173 0.958 . S
C2159 H2174 0.961 . S
C2159 H2175 0.960 . S
H2160 C2144 0.931 . S
H2161 C2149 0.929 . S
H2162 C2150 0.960 . S
H2163 C2150 0.962 . S
H2164 C2150 0.960 . S
H2165 C2151 0.961 . S
H2166 C2151 0.961 . S
H2167 C2151 0.961 . S
H2168 C2152 0.931 . S
H2169 C2157 0.930 . S
H2170 C2158 0.956 . S
H2171 C2158 0.961 . S
H2172 C2158 0.961 . S
H2173 C2159 0.958 . S
H2174 C2159 0.961 . S
H2175 C2159 0.960 . S
C2176 C2177 1.391 . S
C2176 C2178 1.394 . S
C2176 H2192 0.931 . S
C2177 C2176 1.391 . S
C2177 C2181 1.376 . S
C2178 C2176 1.394 . S
C2178 C2179 1.369 . S
C2178 C2182 1.531 . S
C2179 C2178 1.369 . S
C2179 C2180 1.410 . S
C2179 C2187 1.503 . S
C2180 C2179 1.410 . S
C2180 C2181 1.392 . S
C2180 C2183 1.511 . S
C2181 C2177 1.376 . S
C2181 C2180 1.392 . S
C2181 H2193 0.929 . S
C2182 C2178 1.531 . S
C2182 H2194 0.960 . S
C2182 H2195 0.962 . S
C2182 H2196 0.960 . S
C2183 C2180 1.511 . S
C2183 H2197 0.961 . S
C2183 H2198 0.961 . S
C2183 H2199 0.961 . S
C2184 C2185 1.370 . S
C2184 C2186 1.363 . S
C2184 H2200 0.931 . S
C2185 C2184 1.370 . S
C2185 C2189 1.408 . S
C2186 C2184 1.363 . S
C2186 C2187 1.370 . S
C2186 C2190 1.524 . S
C2187 C2179 1.503 . S
C2187 C2186 1.370 . S
C2187 C2188 1.403 . S
C2188 C2187 1.403 . S
C2188 C2189 1.404 . S
C2188 C2191 1.539 . S
C2189 C2185 1.408 . S
C2189 C2188 1.404 . S
C2189 H2201 0.930 . S
C2190 C2186 1.524 . S
C2190 H2202 0.956 . S
C2190 H2203 0.961 . S
C2190 H2204 0.961 . S
C2191 C2188 1.539 . S
C2191 H2205 0.958 . S
C2191 H2206 0.961 . S
C2191 H2207 0.960 . S
H2192 C2176 0.931 . S
H2193 C2181 0.929 . S
H2194 C2182 0.960 . S
H2195 C2182 0.962 . S
H2196 C2182 0.960 . S
H2197 C2183 0.961 . S
H2198 C2183 0.961 . S
H2199 C2183 0.961 . S
H2200 C2184 0.931 . S
H2201 C2189 0.930 . S
H2202 C2190 0.956 . S
H2203 C2190 0.961 . S
H2204 C2190 0.961 . S
H2205 C2191 0.958 . S
H2206 C2191 0.961 . S
H2207 C2191 0.960 . S
C2208 C2209 1.391 . S
C2208 C2210 1.394 . S
C2208 H2224 0.931 . S
C2209 C2208 1.391 . S
C2209 C2213 1.376 . S
C2210 C2208 1.394 . S
C2210 C2211 1.369 . S
C2210 C2214 1.531 . S
C2211 C2210 1.369 . S
C2211 C2212 1.410 . S
C2211 C2219 1.503 . S
C2212 C2211 1.410 . S
C2212 C2213 1.392 . S
C2212 C2215 1.511 . S
C2213 C2209 1.376 . S
C2213 C2212 1.392 . S
C2213 H2225 0.929 . S
C2214 C2210 1.531 . S
C2214 H2226 0.960 . S
C2214 H2227 0.962 . S
C2214 H2228 0.960 . S
C2215 C2212 1.511 . S
C2215 H2229 0.961 . S
C2215 H2230 0.961 . S
C2215 H2231 0.961 . S
C2216 C2217 1.370 . S
C2216 C2218 1.363 . S
C2216 H2232 0.931 . S
C2217 C2216 1.370 . S
C2217 C2221 1.408 . S
C2218 C2216 1.363 . S
C2218 C2219 1.370 . S
C2218 C2222 1.524 . S
C2219 C2211 1.503 . S
C2219 C2218 1.370 . S
C2219 C2220 1.403 . S
C2220 C2219 1.403 . S
C2220 C2221 1.404 . S
C2220 C2223 1.539 . S
C2221 C2217 1.408 . S
C2221 C2220 1.404 . S
C2221 H2233 0.930 . S
C2222 C2218 1.524 . S
C2222 H2234 0.956 . S
C2222 H2235 0.961 . S
C2222 H2236 0.961 . S
C2223 C2220 1.539 . S
C2223 H2237 0.958 . S
C2223 H2238 0.961 . S
C2223 H2239 0.960 . S
H2224 C2208 0.931 . S
H2225 C2213 0.929 . S
H2226 C2214 0.960 . S
H2227 C2214 0.962 . S
H2228 C2214 0.960 . S
H2229 C2215 0.961 . S
H2230 C2215 0.961 . S
H2231 C2215 0.961 . S
H2232 C2216 0.931 . S
H2233 C2221 0.930 . S
H2234 C2222 0.956 . S
H2235 C2222 0.961 . S
H2236 C2222 0.961 . S
H2237 C2223 0.958 . S
H2238 C2223 0.961 . S
H2239 C2223 0.960 . S
C2240 C2241 1.391 . S
C2240 C2242 1.394 . S
C2240 H2256 0.931 . S
C2241 C2240 1.391 . S
C2241 C2245 1.376 . S
C2242 C2240 1.394 . S
C2242 C2243 1.369 . S
C2242 C2246 1.531 . S
C2243 C2242 1.369 . S
C2243 C2244 1.410 . S
C2243 C2251 1.503 . S
C2244 C2243 1.410 . S
C2244 C2245 1.392 . S
C2244 C2247 1.511 . S
C2245 C2241 1.376 . S
C2245 C2244 1.392 . S
C2245 H2257 0.929 . S
C2246 C2242 1.531 . S
C2246 H2258 0.960 . S
C2246 H2259 0.962 . S
C2246 H2260 0.960 . S
C2247 C2244 1.511 . S
C2247 H2261 0.961 . S
C2247 H2262 0.961 . S
C2247 H2263 0.961 . S
C2248 C2249 1.370 . S
C2248 C2250 1.363 . S
C2248 H2264 0.931 . S
C2249 C2248 1.370 . S
C2249 C2253 1.408 . S
C2250 C2248 1.363 . S
C2250 C2251 1.370 . S
C2250 C2254 1.524 . S
C2251 C2243 1.503 . S
C2251 C2250 1.370 . S
C2251 C2252 1.403 . S
C2252 C2251 1.403 . S
C2252 C2253 1.404 . S
C2252 C2255 1.539 . S
C2253 C2249 1.408 . S
C2253 C2252 1.404 . S
C2253 H2265 0.930 . S
C2254 C2250 1.524 . S
C2254 H2266 0.956 . S
C2254 H2267 0.961 . S
C2254 H2268 0.961 . S
C2255 C2252 1.539 . S
C2255 H2269 0.958 . S
C2255 H2270 0.961 . S
C2255 H2271 0.960 . S
H2256 C2240 0.931 . S
H2257 C2245 0.929 . S
H2258 C2246 0.960 . S
H2259 C2246 0.962 . S
H2260 C2246 0.960 . S
H2261 C2247 0.961 . S
H2262 C2247 0.961 . S
H2263 C2247 0.961 . S
H2264 C2248 0.931 . S
H2265 C2253 0.930 . S
H2266 C2254 0.956 . S
H2267 C2254 0.961 . S
H2268 C2254 0.961 . S
H2269 C2255 0.958 . S
H2270 C2255 0.961 . S
H2271 C2255 0.960 . S
C2272 C2273 1.391 . S
C2272 C2274 1.394 . S
C2272 H2288 0.931 . S
C2273 C2272 1.391 . S
C2273 C2277 1.376 . S
C2274 C2272 1.394 . S
C2274 C2275 1.369 . S
C2274 C2278 1.531 . S
C2275 C2274 1.369 . S
C2275 C2276 1.410 . S
C2275 C2283 1.503 . S
C2276 C2275 1.410 . S
C2276 C2277 1.392 . S
C2276 C2279 1.511 . S
C2277 C2273 1.376 . S
C2277 C2276 1.392 . S
C2277 H2289 0.929 . S
C2278 C2274 1.531 . S
C2278 H2290 0.960 . S
C2278 H2291 0.962 . S
C2278 H2292 0.960 . S
C2279 C2276 1.511 . S
C2279 H2293 0.961 . S
C2279 H2294 0.961 . S
C2279 H2295 0.961 . S
C2280 C2281 1.370 . S
C2280 C2282 1.363 . S
C2280 H2296 0.931 . S
C2281 C2280 1.370 . S
C2281 C2285 1.408 . S
C2282 C2280 1.363 . S
C2282 C2283 1.370 . S
C2282 C2286 1.524 . S
C2283 C2275 1.503 . S
C2283 C2282 1.370 . S
C2283 C2284 1.403 . S
C2284 C2283 1.403 . S
C2284 C2285 1.404 . S
C2284 C2287 1.539 . S
C2285 C2281 1.408 . S
C2285 C2284 1.404 . S
C2285 H2297 0.930 . S
C2286 C2282 1.524 . S
C2286 H2298 0.956 . S
C2286 H2299 0.961 . S
C2286 H2300 0.961 . S
C2287 C2284 1.539 . S
C2287 H2301 0.958 . S
C2287 H2302 0.961 . S
C2287 H2303 0.960 . S
H2288 C2272 0.931 . S
H2289 C2277 0.929 . S
H2290 C2278 0.960 . S
H2291 C2278 0.962 . S
H2292 C2278 0.960 . S
H2293 C2279 0.961 . S
H2294 C2279 0.961 . S
H2295 C2279 0.961 . S
H2296 C2280 0.931 . S
H2297 C2285 0.930 . S
H2298 C2286 0.956 . S
H2299 C2286 0.961 . S
H2300 C2286 0.961 . S
H2301 C2287 0.958 . S
H2302 C2287 0.961 . S
H2303 C2287 0.960 . S
C2304 C2305 1.391 . S
C2304 C2306 1.394 . S
C2304 H2320 0.931 . S
C2305 C2304 1.391 . S
C2305 C2309 1.376 . S
C2306 C2304 1.394 . S
C2306 C2307 1.369 . S
C2306 C2310 1.531 . S
C2307 C2306 1.369 . S
C2307 C2308 1.410 . S
C2307 C2315 1.503 . S
C2308 C2307 1.410 . S
C2308 C2309 1.392 . S
C2308 C2311 1.511 . S
C2309 C2305 1.376 . S
C2309 C2308 1.392 . S
C2309 H2321 0.929 . S
C2310 C2306 1.531 . S
C2310 H2322 0.960 . S
C2310 H2323 0.962 . S
C2310 H2324 0.960 . S
C2311 C2308 1.511 . S
C2311 H2325 0.961 . S
C2311 H2326 0.961 . S
C2311 H2327 0.961 . S
C2312 C2313 1.370 . S
C2312 C2314 1.363 . S
C2312 H2328 0.931 . S
C2313 C2312 1.370 . S
C2313 C2317 1.408 . S
C2314 C2312 1.363 . S
C2314 C2315 1.370 . S
C2314 C2318 1.524 . S
C2315 C2307 1.503 . S
C2315 C2314 1.370 . S
C2315 C2316 1.403 . S
C2316 C2315 1.403 . S
C2316 C2317 1.404 . S
C2316 C2319 1.539 . S
C2317 C2313 1.408 . S
C2317 C2316 1.404 . S
C2317 H2329 0.930 . S
C2318 C2314 1.524 . S
C2318 H2330 0.956 . S
C2318 H2331 0.961 . S
C2318 H2332 0.961 . S
C2319 C2316 1.539 . S
C2319 H2333 0.958 . S
C2319 H2334 0.961 . S
C2319 H2335 0.960 . S
H2320 C2304 0.931 . S
H2321 C2309 0.929 . S
H2322 C2310 0.960 . S
H2323 C2310 0.962 . S
H2324 C2310 0.960 . S
H2325 C2311 0.961 . S
H2326 C2311 0.961 . S
H2327 C2311 0.961 . S
H2328 C2312 0.931 . S
H2329 C2317 0.930 . S
H2330 C2318 0.956 . S
H2331 C2318 0.961 . S
H2332 C2318 0.961 . S
H2333 C2319 0.958 . S
H2334 C2319 0.961 . S
H2335 C2319 0.960 . S
C2336 C2337 1.391 . S
C2336 C2338 1.394 . S
C2336 H2352 0.931 . S
C2337 C2336 1.391 . S
C2337 C2341 1.376 . S
C2338 C2336 1.394 . S
C2338 C2339 1.369 . S
C2338 C2342 1.531 . S
C2339 C2338 1.369 . S
C2339 C2340 1.410 . S
C2339 C2347 1.503 . S
C2340 C2339 1.410 . S
C2340 C2341 1.392 . S
C2340 C2343 1.511 . S
C2341 C2337 1.376 . S
C2341 C2340 1.392 . S
C2341 H2353 0.929 . S
C2342 C2338 1.531 . S
C2342 H2354 0.960 . S
C2342 H2355 0.962 . S
C2342 H2356 0.960 . S
C2343 C2340 1.511 . S
C2343 H2357 0.961 . S
C2343 H2358 0.961 . S
C2343 H2359 0.961 . S
C2344 C2345 1.370 . S
C2344 C2346 1.363 . S
C2344 H2360 0.931 . S
C2345 C2344 1.370 . S
C2345 C2349 1.408 . S
C2346 C2344 1.363 . S
C2346 C2347 1.370 . S
C2346 C2350 1.524 . S
C2347 C2339 1.503 . S
C2347 C2346 1.370 . S
C2347 C2348 1.403 . S
C2348 C2347 1.403 . S
C2348 C2349 1.404 . S
C2348 C2351 1.539 . S
C2349 C2345 1.408 . S
C2349 C2348 1.404 . S
C2349 H2361 0.930 . S
C2350 C2346 1.524 . S
C2350 H2362 0.956 . S
C2350 H2363 0.961 . S
C2350 H2364 0.961 . S
C2351 C2348 1.539 . S
C2351 H2365 0.958 . S
C2351 H2366 0.961 . S
C2351 H2367 0.960 . S
H2352 C2336 0.931 . S
H2353 C2341 0.929 . S
H2354 C2342 0.960 . S
H2355 C2342 0.962 . S
H2356 C2342 0.960 . S
H2357 C2343 0.961 . S
H2358 C2343 0.961 . S
H2359 C2343 0.961 . S
H2360 C2344 0.931 . S
H2361 C2349 0.930 . S
H2362 C2350 0.956 . S
H2363 C2350 0.961 . S
H2364 C2350 0.961 . S
H2365 C2351 0.958 . S
H2366 C2351 0.961 . S
H2367 C2351 0.960 . S
C2368 C2369 1.391 . S
C2368 C2370 1.394 . S
C2368 H2384 0.931 . S
C2369 C2368 1.391 . S
C2369 C2373 1.376 . S
C2370 C2368 1.394 . S
C2370 C2371 1.369 . S
C2370 C2374 1.531 . S
C2371 C2370 1.369 . S
C2371 C2372 1.410 . S
C2371 C2379 1.503 . S
C2372 C2371 1.410 . S
C2372 C2373 1.392 . S
C2372 C2375 1.511 . S
C2373 C2369 1.376 . S
C2373 C2372 1.392 . S
C2373 H2385 0.929 . S
C2374 C2370 1.531 . S
C2374 H2386 0.960 . S
C2374 H2387 0.962 . S
C2374 H2388 0.960 . S
C2375 C2372 1.511 . S
C2375 H2389 0.961 . S
C2375 H2390 0.961 . S
C2375 H2391 0.961 . S
C2376 C2377 1.370 . S
C2376 C2378 1.363 . S
C2376 H2392 0.931 . S
C2377 C2376 1.370 . S
C2377 C2381 1.408 . S
C2378 C2376 1.363 . S
C2378 C2379 1.370 . S
C2378 C2382 1.524 . S
C2379 C2371 1.503 . S
C2379 C2378 1.370 . S
C2379 C2380 1.403 . S
C2380 C2379 1.403 . S
C2380 C2381 1.404 . S
C2380 C2383 1.539 . S
C2381 C2377 1.408 . S
C2381 C2380 1.404 . S
C2381 H2393 0.930 . S
C2382 C2378 1.524 . S
C2382 H2394 0.956 . S
C2382 H2395 0.961 . S
C2382 H2396 0.961 . S
C2383 C2380 1.539 . S
C2383 H2397 0.958 . S
C2383 H2398 0.961 . S
C2383 H2399 0.960 . S
H2384 C2368 0.931 . S
H2385 C2373 0.929 . S
H2386 C2374 0.960 . S
H2387 C2374 0.962 . S
H2388 C2374 0.960 . S
H2389 C2375 0.961 . S
H2390 C2375 0.961 . S
H2391 C2375 0.961 . S
H2392 C2376 0.931 . S
H2393 C2381 0.930 . S
H2394 C2382 0.956 . S
H2395 C2382 0.961 . S
H2396 C2382 0.961 . S
H2397 C2383 0.958 . S
H2398 C2383 0.961 . S
H2399 C2383 0.960 . S
C2400 C2401 1.391 . S
C2400 C2402 1.394 . S
C2400 H2416 0.931 . S
C2401 C2400 1.391 . S
C2401 C2405 1.376 . S
C2402 C2400 1.394 . S
C2402 C2403 1.369 . S
C2402 C2406 1.531 . S
C2403 C2402 1.369 . S
C2403 C2404 1.410 . S
C2403 C2411 1.503 . S
C2404 C2403 1.410 . S
C2404 C2405 1.392 . S
C2404 C2407 1.511 . S
C2405 C2401 1.376 . S
C2405 C2404 1.392 . S
C2405 H2417 0.929 . S
C2406 C2402 1.531 . S
C2406 H2418 0.960 . S
C2406 H2419 0.962 . S
C2406 H2420 0.960 . S
C2407 C2404 1.511 . S
C2407 H2421 0.961 . S
C2407 H2422 0.961 . S
C2407 H2423 0.961 . S
C2408 C2409 1.370 . S
C2408 C2410 1.363 . S
C2408 H2424 0.931 . S
C2409 C2408 1.370 . S
C2409 C2413 1.408 . S
C2410 C2408 1.363 . S
C2410 C2411 1.370 . S
C2410 C2414 1.524 . S
C2411 C2403 1.503 . S
C2411 C2410 1.370 . S
C2411 C2412 1.403 . S
C2412 C2411 1.403 . S
C2412 C2413 1.404 . S
C2412 C2415 1.539 . S
C2413 C2409 1.408 . S
C2413 C2412 1.404 . S
C2413 H2425 0.930 . S
C2414 C2410 1.524 . S
C2414 H2426 0.956 . S
C2414 H2427 0.961 . S
C2414 H2428 0.961 . S
C2415 C2412 1.539 . S
C2415 H2429 0.958 . S
C2415 H2430 0.961 . S
C2415 H2431 0.960 . S
H2416 C2400 0.931 . S
H2417 C2405 0.929 . S
H2418 C2406 0.960 . S
H2419 C2406 0.962 . S
H2420 C2406 0.960 . S
H2421 C2407 0.961 . S
H2422 C2407 0.961 . S
H2423 C2407 0.961 . S
H2424 C2408 0.931 . S
H2425 C2413 0.930 . S
H2426 C2414 0.956 . S
H2427 C2414 0.961 . S
H2428 C2414 0.961 . S
H2429 C2415 0.958 . S
H2430 C2415 0.961 . S
H2431 C2415 0.960 . S
C2432 C2433 1.391 . S
C2432 C2434 1.394 . S
C2432 H2448 0.931 . S
C2433 C2432 1.391 . S
C2433 C2437 1.376 . S
C2434 C2432 1.394 . S
C2434 C2435 1.369 . S
C2434 C2438 1.531 . S
C2435 C2434 1.369 . S
C2435 C2436 1.410 . S
C2435 C2443 1.503 . S
C2436 C2435 1.410 . S
C2436 C2437 1.392 . S
C2436 C2439 1.511 . S
C2437 C2433 1.376 . S
C2437 C2436 1.392 . S
C2437 H2449 0.929 . S
C2438 C2434 1.531 . S
C2438 H2450 0.960 . S
C2438 H2451 0.962 . S
C2438 H2452 0.960 . S
C2439 C2436 1.511 . S
C2439 H2453 0.961 . S
C2439 H2454 0.961 . S
C2439 H2455 0.961 . S
C2440 C2441 1.370 . S
C2440 C2442 1.363 . S
C2440 H2456 0.931 . S
C2441 C2440 1.370 . S
C2441 C2445 1.408 . S
C2442 C2440 1.363 . S
C2442 C2443 1.370 . S
C2442 C2446 1.524 . S
C2443 C2435 1.503 . S
C2443 C2442 1.370 . S
C2443 C2444 1.403 . S
C2444 C2443 1.403 . S
C2444 C2445 1.404 . S
C2444 C2447 1.539 . S
C2445 C2441 1.408 . S
C2445 C2444 1.404 . S
C2445 H2457 0.930 . S
C2446 C2442 1.524 . S
C2446 H2458 0.956 . S
C2446 H2459 0.961 . S
C2446 H2460 0.961 . S
C2447 C2444 1.539 . S
C2447 H2461 0.958 . S
C2447 H2462 0.961 . S
C2447 H2463 0.960 . S
H2448 C2432 0.931 . S
H2449 C2437 0.929 . S
H2450 C2438 0.960 . S
H2451 C2438 0.962 . S
H2452 C2438 0.960 . S
H2453 C2439 0.961 . S
H2454 C2439 0.961 . S
H2455 C2439 0.961 . S
H2456 C2440 0.931 . S
H2457 C2445 0.930 . S
H2458 C2446 0.956 . S
H2459 C2446 0.961 . S
H2460 C2446 0.961 . S
H2461 C2447 0.958 . S
H2462 C2447 0.961 . S
H2463 C2447 0.960 . S
C2464 C2465 1.391 . S
C2464 C2466 1.394 . S
C2464 H2480 0.931 . S
C2465 C2464 1.391 . S
C2465 C2469 1.376 . S
C2466 C2464 1.394 . S
C2466 C2467 1.369 . S
C2466 C2470 1.531 . S
C2467 C2466 1.369 . S
C2467 C2468 1.410 . S
C2467 C2475 1.503 . S
C2468 C2467 1.410 . S
C2468 C2469 1.392 . S
C2468 C2471 1.511 . S
C2469 C2465 1.376 . S
C2469 C2468 1.392 . S
C2469 H2481 0.929 . S
C2470 C2466 1.531 . S
C2470 H2482 0.960 . S
C2470 H2483 0.962 . S
C2470 H2484 0.960 . S
C2471 C2468 1.511 . S
C2471 H2485 0.961 . S
C2471 H2486 0.961 . S
C2471 H2487 0.961 . S
C2472 C2473 1.370 . S
C2472 C2474 1.363 . S
C2472 H2488 0.931 . S
C2473 C2472 1.370 . S
C2473 C2477 1.408 . S
C2474 C2472 1.363 . S
C2474 C2475 1.370 . S
C2474 C2478 1.524 . S
C2475 C2467 1.503 . S
C2475 C2474 1.370 . S
C2475 C2476 1.403 . S
C2476 C2475 1.403 . S
C2476 C2477 1.404 . S
C2476 C2479 1.539 . S
C2477 C2473 1.408 . S
C2477 C2476 1.404 . S
C2477 H2489 0.930 . S
C2478 C2474 1.524 . S
C2478 H2490 0.956 . S
C2478 H2491 0.961 . S
C2478 H2492 0.961 . S
C2479 C2476 1.539 . S
C2479 H2493 0.958 . S
C2479 H2494 0.961 . S
C2479 H2495 0.960 . S
H2480 C2464 0.931 . S
H2481 C2469 0.929 . S
H2482 C2470 0.960 . S
H2483 C2470 0.962 . S
H2484 C2470 0.960 . S
H2485 C2471 0.961 . S
H2486 C2471 0.961 . S
H2487 C2471 0.961 . S
H2488 C2472 0.931 . S
H2489 C2477 0.930 . S
H2490 C2478 0.956 . S
H2491 C2478 0.961 . S
H2492 C2478 0.961 . S
H2493 C2479 0.958 . S
H2494 C2479 0.961 . S
H2495 C2479 0.960 . S
C2496 C2497 1.391 . S
C2496 C2498 1.394 . S
C2496 H2512 0.931 . S
C2497 C2496 1.391 . S
C2497 C2501 1.376 . S
C2498 C2496 1.394 . S
C2498 C2499 1.369 . S
C2498 C2502 1.531 . S
C2499 C2498 1.369 . S
C2499 C2500 1.410 . S
C2499 C2507 1.503 . S
C2500 C2499 1.410 . S
C2500 C2501 1.392 . S
C2500 C2503 1.511 . S
C2501 C2497 1.376 . S
C2501 C2500 1.392 . S
C2501 H2513 0.929 . S
C2502 C2498 1.531 . S
C2502 H2514 0.960 . S
C2502 H2515 0.962 . S
C2502 H2516 0.960 . S
C2503 C2500 1.511 . S
C2503 H2517 0.961 . S
C2503 H2518 0.961 . S
C2503 H2519 0.961 . S
C2504 C2505 1.370 . S
C2504 C2506 1.363 . S
C2504 H2520 0.931 . S
C2505 C2504 1.370 . S
C2505 C2509 1.408 . S
C2506 C2504 1.363 . S
C2506 C2507 1.370 . S
C2506 C2510 1.524 . S
C2507 C2499 1.503 . S
C2507 C2506 1.370 . S
C2507 C2508 1.403 . S
C2508 C2507 1.403 . S
C2508 C2509 1.404 . S
C2508 C2511 1.539 . S
C2509 C2505 1.408 . S
C2509 C2508 1.404 . S
C2509 H2521 0.930 . S
C2510 C2506 1.524 . S
C2510 H2522 0.956 . S
C2510 H2523 0.961 . S
C2510 H2524 0.961 . S
C2511 C2508 1.539 . S
C2511 H2525 0.958 . S
C2511 H2526 0.961 . S
C2511 H2527 0.960 . S
H2512 C2496 0.931 . S
H2513 C2501 0.929 . S
H2514 C2502 0.960 . S
H2515 C2502 0.962 . S
H2516 C2502 0.960 . S
H2517 C2503 0.961 . S
H2518 C2503 0.961 . S
H2519 C2503 0.961 . S
H2520 C2504 0.931 . S
H2521 C2509 0.930 . S
H2522 C2510 0.956 . S
H2523 C2510 0.961 . S
H2524 C2510 0.961 . S
H2525 C2511 0.958 . S
H2526 C2511 0.961 . S
H2527 C2511 0.960 . S
C2528 C2529 1.391 . S
C2528 C2530 1.394 . S
C2528 H2544 0.931 . S
C2529 C2528 1.391 . S
C2529 C2533 1.376 . S
C2530 C2528 1.394 . S
C2530 C2531 1.369 . S
C2530 C2534 1.531 . S
C2531 C2530 1.369 . S
C2531 C2532 1.410 . S
C2531 C2539 1.503 . S
C2532 C2531 1.410 . S
C2532 C2533 1.392 . S
C2532 C2535 1.511 . S
C2533 C2529 1.376 . S
C2533 C2532 1.392 . S
C2533 H2545 0.929 . S
C2534 C2530 1.531 . S
C2534 H2546 0.960 . S
C2534 H2547 0.962 . S
C2534 H2548 0.960 . S
C2535 C2532 1.511 . S
C2535 H2549 0.961 . S
C2535 H2550 0.961 . S
C2535 H2551 0.961 . S
C2536 C2537 1.370 . S
C2536 C2538 1.363 . S
C2536 H2552 0.931 . S
C2537 C2536 1.370 . S
C2537 C2541 1.408 . S
C2538 C2536 1.363 . S
C2538 C2539 1.370 . S
C2538 C2542 1.524 . S
C2539 C2531 1.503 . S
C2539 C2538 1.370 . S
C2539 C2540 1.403 . S
C2540 C2539 1.403 . S
C2540 C2541 1.404 . S
C2540 C2543 1.539 . S
C2541 C2537 1.408 . S
C2541 C2540 1.404 . S
C2541 H2553 0.930 . S
C2542 C2538 1.524 . S
C2542 H2554 0.956 . S
C2542 H2555 0.961 . S
C2542 H2556 0.961 . S
C2543 C2540 1.539 . S
C2543 H2557 0.958 . S
C2543 H2558 0.961 . S
C2543 H2559 0.960 . S
H2544 C2528 0.931 . S
H2545 C2533 0.929 . S
H2546 C2534 0.960 . S
H2547 C2534 0.962 . S
H2548 C2534 0.960 . S
H2549 C2535 0.961 . S
H2550 C2535 0.961 . S
H2551 C2535 0.961 . S
H2552 C2536 0.931 . S
H2553 C2541 0.930 . S
H2554 C2542 0.956 . S
H2555 C2542 0.961 . S
H2556 C2542 0.961 . S
H2557 C2543 0.958 . S
H2558 C2543 0.961 . S
H2559 C2543 0.960 . S
C2560 C2561 1.391 . S
C2560 C2562 1.394 . S
C2560 H2576 0.931 . S
C2561 C2560 1.391 . S
C2561 C2565 1.376 . S
C2562 C2560 1.394 . S
C2562 C2563 1.369 . S
C2562 C2566 1.531 . S
C2563 C2562 1.369 . S
C2563 C2564 1.410 . S
C2563 C2571 1.503 . S
C2564 C2563 1.410 . S
C2564 C2565 1.392 . S
C2564 C2567 1.511 . S
C2565 C2561 1.376 . S
C2565 C2564 1.392 . S
C2565 H2577 0.929 . S
C2566 C2562 1.531 . S
C2566 H2578 0.960 . S
C2566 H2579 0.962 . S
C2566 H2580 0.960 . S
C2567 C2564 1.511 . S
C2567 H2581 0.961 . S
C2567 H2582 0.961 . S
C2567 H2583 0.961 . S
C2568 C2569 1.370 . S
C2568 C2570 1.363 . S
C2568 H2584 0.931 . S
C2569 C2568 1.370 . S
C2569 C2573 1.408 . S
C2570 C2568 1.363 . S
C2570 C2571 1.370 . S
C2570 C2574 1.524 . S
C2571 C2563 1.503 . S
C2571 C2570 1.370 . S
C2571 C2572 1.403 . S
C2572 C2571 1.403 . S
C2572 C2573 1.404 . S
C2572 C2575 1.539 . S
C2573 C2569 1.408 . S
C2573 C2572 1.404 . S
C2573 H2585 0.930 . S
C2574 C2570 1.524 . S
C2574 H2586 0.956 . S
C2574 H2587 0.961 . S
C2574 H2588 0.961 . S
C2575 C2572 1.539 . S
C2575 H2589 0.958 . S
C2575 H2590 0.961 . S
C2575 H2591 0.960 . S
H2576 C2560 0.931 . S
H2577 C2565 0.929 . S
H2578 C2566 0.960 . S
H2579 C2566 0.962 . S
H2580 C2566 0.960 . S
H2581 C2567 0.961 . S
H2582 C2567 0.961 . S
H2583 C2567 0.961 . S
H2584 C2568 0.931 . S
H2585 C2573 0.930 . S
H2586 C2574 0.956 . S
H2587 C2574 0.961 . S
H2588 C2574 0.961 . S
H2589 C2575 0.958 . S
H2590 C2575 0.961 . S
H2591 C2575 0.960 . S
C2592 C2593 1.391 . S
C2592 C2594 1.394 . S
C2592 H2608 0.931 . S
C2593 C2592 1.391 . S
C2593 C2597 1.376 . S
C2594 C2592 1.394 . S
C2594 C2595 1.369 . S
C2594 C2598 1.531 . S
C2595 C2594 1.369 . S
C2595 C2596 1.410 . S
C2595 C2603 1.503 . S
C2596 C2595 1.410 . S
C2596 C2597 1.392 . S
C2596 C2599 1.511 . S
C2597 C2593 1.376 . S
C2597 C2596 1.392 . S
C2597 H2609 0.929 . S
C2598 C2594 1.531 . S
C2598 H2610 0.960 . S
C2598 H2611 0.962 . S
C2598 H2612 0.960 . S
C2599 C2596 1.511 . S
C2599 H2613 0.961 . S
C2599 H2614 0.961 . S
C2599 H2615 0.961 . S
C2600 C2601 1.370 . S
C2600 C2602 1.363 . S
C2600 H2616 0.931 . S
C2601 C2600 1.370 . S
C2601 C2605 1.408 . S
C2602 C2600 1.363 . S
C2602 C2603 1.370 . S
C2602 C2606 1.524 . S
C2603 C2595 1.503 . S
C2603 C2602 1.370 . S
C2603 C2604 1.403 . S
C2604 C2603 1.403 . S
C2604 C2605 1.404 . S
C2604 C2607 1.539 . S
C2605 C2601 1.408 . S
C2605 C2604 1.404 . S
C2605 H2617 0.930 . S
C2606 C2602 1.524 . S
C2606 H2618 0.956 . S
C2606 H2619 0.961 . S
C2606 H2620 0.961 . S
C2607 C2604 1.539 . S
C2607 H2621 0.958 . S
C2607 H2622 0.961 . S
C2607 H2623 0.960 . S
H2608 C2592 0.931 . S
H2609 C2597 0.929 . S
H2610 C2598 0.960 . S
H2611 C2598 0.962 . S
H2612 C2598 0.960 . S
H2613 C2599 0.961 . S
H2614 C2599 0.961 . S
H2615 C2599 0.961 . S
H2616 C2600 0.931 . S
H2617 C2605 0.930 . S
H2618 C2606 0.956 . S
H2619 C2606 0.961 . S
H2620 C2606 0.961 . S
H2621 C2607 0.958 . S
H2622 C2607 0.961 . S
H2623 C2607 0.960 . S
C2624 C2625 1.391 . S
C2624 C2626 1.394 . S
C2624 H2640 0.931 . S
C2625 C2624 1.391 . S
C2625 C2629 1.376 . S
C2626 C2624 1.394 . S
C2626 C2627 1.369 . S
C2626 C2630 1.531 . S
C2627 C2626 1.369 . S
C2627 C2628 1.410 . S
C2627 C2635 1.503 . S
C2628 C2627 1.410 . S
C2628 C2629 1.392 . S
C2628 C2631 1.511 . S
C2629 C2625 1.376 . S
C2629 C2628 1.392 . S
C2629 H2641 0.929 . S
C2630 C2626 1.531 . S
C2630 H2642 0.960 . S
C2630 H2643 0.962 . S
C2630 H2644 0.960 . S
C2631 C2628 1.511 . S
C2631 H2645 0.961 . S
C2631 H2646 0.961 . S
C2631 H2647 0.961 . S
C2632 C2633 1.370 . S
C2632 C2634 1.363 . S
C2632 H2648 0.931 . S
C2633 C2632 1.370 . S
C2633 C2637 1.408 . S
C2634 C2632 1.363 . S
C2634 C2635 1.370 . S
C2634 C2638 1.524 . S
C2635 C2627 1.503 . S
C2635 C2634 1.370 . S
C2635 C2636 1.403 . S
C2636 C2635 1.403 . S
C2636 C2637 1.404 . S
C2636 C2639 1.539 . S
C2637 C2633 1.408 . S
C2637 C2636 1.404 . S
C2637 H2649 0.930 . S
C2638 C2634 1.524 . S
C2638 H2650 0.956 . S
C2638 H2651 0.961 . S
C2638 H2652 0.961 . S
C2639 C2636 1.539 . S
C2639 H2653 0.958 . S
C2639 H2654 0.961 . S
C2639 H2655 0.960 . S
H2640 C2624 0.931 . S
H2641 C2629 0.929 . S
H2642 C2630 0.960 . S
H2643 C2630 0.962 . S
H2644 C2630 0.960 . S
H2645 C2631 0.961 . S
H2646 C2631 0.961 . S
H2647 C2631 0.961 . S
H2648 C2632 0.931 . S
H2649 C2637 0.930 . S
H2650 C2638 0.956 . S
H2651 C2638 0.961 . S
H2652 C2638 0.961 . S
H2653 C2639 0.958 . S
H2654 C2639 0.961 . S
H2655 C2639 0.960 . S
C2656 C2657 1.391 . S
C2656 C2658 1.394 . S
C2656 H2672 0.931 . S
C2657 C2656 1.391 . S
C2657 C2661 1.376 . S
C2658 C2656 1.394 . S
C2658 C2659 1.369 . S
C2658 C2662 1.531 . S
C2659 C2658 1.369 . S
C2659 C2660 1.410 . S
C2659 C2667 1.503 . S
C2660 C2659 1.410 . S
C2660 C2661 1.392 . S
C2660 C2663 1.511 . S
C2661 C2657 1.376 . S
C2661 C2660 1.392 . S
C2661 H2673 0.929 . S
C2662 C2658 1.531 . S
C2662 H2674 0.960 . S
C2662 H2675 0.962 . S
C2662 H2676 0.960 . S
C2663 C2660 1.511 . S
C2663 H2677 0.961 . S
C2663 H2678 0.961 . S
C2663 H2679 0.961 . S
C2664 C2665 1.370 . S
C2664 C2666 1.363 . S
C2664 H2680 0.931 . S
C2665 C2664 1.370 . S
C2665 C2669 1.408 . S
C2666 C2664 1.363 . S
C2666 C2667 1.370 . S
C2666 C2670 1.524 . S
C2667 C2659 1.503 . S
C2667 C2666 1.370 . S
C2667 C2668 1.403 . S
C2668 C2667 1.403 . S
C2668 C2669 1.404 . S
C2668 C2671 1.539 . S
C2669 C2665 1.408 . S
C2669 C2668 1.404 . S
C2669 H2681 0.930 . S
C2670 C2666 1.524 . S
C2670 H2682 0.956 . S
C2670 H2683 0.961 . S
C2670 H2684 0.961 . S
C2671 C2668 1.539 . S
C2671 H2685 0.958 . S
C2671 H2686 0.961 . S
C2671 H2687 0.960 . S
H2672 C2656 0.931 . S
H2673 C2661 0.929 . S
H2674 C2662 0.960 . S
H2675 C2662 0.962 . S
H2676 C2662 0.960 . S
H2677 C2663 0.961 . S
H2678 C2663 0.961 . S
H2679 C2663 0.961 . S
H2680 C2664 0.931 . S
H2681 C2669 0.930 . S
H2682 C2670 0.956 . S
H2683 C2670 0.961 . S
H2684 C2670 0.961 . S
H2685 C2671 0.958 . S
H2686 C2671 0.961 . S
H2687 C2671 0.960 . S
C2688 C2689 1.391 . S
C2688 C2690 1.394 . S
C2688 H2704 0.931 . S
C2689 C2688 1.391 . S
C2689 C2693 1.376 . S
C2690 C2688 1.394 . S
C2690 C2691 1.369 . S
C2690 C2694 1.531 . S
C2691 C2690 1.369 . S
C2691 C2692 1.410 . S
C2691 C2699 1.503 . S
C2692 C2691 1.410 . S
C2692 C2693 1.392 . S
C2692 C2695 1.511 . S
C2693 C2689 1.376 . S
C2693 C2692 1.392 . S
C2693 H2705 0.929 . S
C2694 C2690 1.531 . S
C2694 H2706 0.960 . S
C2694 H2707 0.962 . S
C2694 H2708 0.960 . S
C2695 C2692 1.511 . S
C2695 H2709 0.961 . S
C2695 H2710 0.961 . S
C2695 H2711 0.961 . S
C2696 C2697 1.370 . S
C2696 C2698 1.363 . S
C2696 H2712 0.931 . S
C2697 C2696 1.370 . S
C2697 C2701 1.408 . S
C2698 C2696 1.363 . S
C2698 C2699 1.370 . S
C2698 C2702 1.524 . S
C2699 C2691 1.503 . S
C2699 C2698 1.370 . S
C2699 C2700 1.403 . S
C2700 C2699 1.403 . S
C2700 C2701 1.404 . S
C2700 C2703 1.539 . S
C2701 C2697 1.408 . S
C2701 C2700 1.404 . S
C2701 H2713 0.930 . S
C2702 C2698 1.524 . S
C2702 H2714 0.956 . S
C2702 H2715 0.961 . S
C2702 H2716 0.961 . S
C2703 C2700 1.539 . S
C2703 H2717 0.958 . S
C2703 H2718 0.961 . S
C2703 H2719 0.960 . S
H2704 C2688 0.931 . S
H2705 C2693 0.929 . S
H2706 C2694 0.960 . S
H2707 C2694 0.962 . S
H2708 C2694 0.960 . S
H2709 C2695 0.961 . S
H2710 C2695 0.961 . S
H2711 C2695 0.961 . S
H2712 C2696 0.931 . S
H2713 C2701 0.930 . S
H2714 C2702 0.956 . S
H2715 C2702 0.961 . S
H2716 C2702 0.961 . S
H2717 C2703 0.958 . S
H2718 C2703 0.961 . S
H2719 C2703 0.960 . S
C2720 C2721 1.391 . S
C2720 C2722 1.394 . S
C2720 H2736 0.931 . S
C2721 C2720 1.391 . S
C2721 C2725 1.376 . S
C2722 C2720 1.394 . S
C2722 C2723 1.369 . S
C2722 C2726 1.531 . S
C2723 C2722 1.369 . S
C2723 C2724 1.410 . S
C2723 C2731 1.503 . S
C2724 C2723 1.410 . S
C2724 C2725 1.392 . S
C2724 C2727 1.511 . S
C2725 C2721 1.376 . S
C2725 C2724 1.392 . S
C2725 H2737 0.929 . S
C2726 C2722 1.531 . S
C2726 H2738 0.960 . S
C2726 H2739 0.962 . S
C2726 H2740 0.960 . S
C2727 C2724 1.511 . S
C2727 H2741 0.961 . S
C2727 H2742 0.961 . S
C2727 H2743 0.961 . S
C2728 C2729 1.370 . S
C2728 C2730 1.363 . S
C2728 H2744 0.931 . S
C2729 C2728 1.370 . S
C2729 C2733 1.408 . S
C2730 C2728 1.363 . S
C2730 C2731 1.370 . S
C2730 C2734 1.524 . S
C2731 C2723 1.503 . S
C2731 C2730 1.370 . S
C2731 C2732 1.403 . S
C2732 C2731 1.403 . S
C2732 C2733 1.404 . S
C2732 C2735 1.539 . S
C2733 C2729 1.408 . S
C2733 C2732 1.404 . S
C2733 H2745 0.930 . S
C2734 C2730 1.524 . S
C2734 H2746 0.956 . S
C2734 H2747 0.961 . S
C2734 H2748 0.961 . S
C2735 C2732 1.539 . S
C2735 H2749 0.958 . S
C2735 H2750 0.961 . S
C2735 H2751 0.960 . S
H2736 C2720 0.931 . S
H2737 C2725 0.929 . S
H2738 C2726 0.960 . S
H2739 C2726 0.962 . S
H2740 C2726 0.960 . S
H2741 C2727 0.961 . S
H2742 C2727 0.961 . S
H2743 C2727 0.961 . S
H2744 C2728 0.931 . S
H2745 C2733 0.930 . S
H2746 C2734 0.956 . S
H2747 C2734 0.961 . S
H2748 C2734 0.961 . S
H2749 C2735 0.958 . S
H2750 C2735 0.961 . S
H2751 C2735 0.960 . S
C2752 C2753 1.391 . S
C2752 C2754 1.394 . S
C2752 H2768 0.931 . S
C2753 C2752 1.391 . S
C2753 C2757 1.376 . S
C2754 C2752 1.394 . S
C2754 C2755 1.369 . S
C2754 C2758 1.531 . S
C2755 C2754 1.369 . S
C2755 C2756 1.410 . S
C2755 C2763 1.503 . S
C2756 C2755 1.410 . S
C2756 C2757 1.392 . S
C2756 C2759 1.511 . S
C2757 C2753 1.376 . S
C2757 C2756 1.392 . S
C2757 H2769 0.929 . S
C2758 C2754 1.531 . S
C2758 H2770 0.960 . S
C2758 H2771 0.962 . S
C2758 H2772 0.960 . S
C2759 C2756 1.511 . S
C2759 H2773 0.961 . S
C2759 H2774 0.961 . S
C2759 H2775 0.961 . S
C2760 C2761 1.370 . S
C2760 C2762 1.363 . S
C2760 H2776 0.931 . S
C2761 C2760 1.370 . S
C2761 C2765 1.408 . S
C2762 C2760 1.363 . S
C2762 C2763 1.370 . S
C2762 C2766 1.524 . S
C2763 C2755 1.503 . S
C2763 C2762 1.370 . S
C2763 C2764 1.403 . S
C2764 C2763 1.403 . S
C2764 C2765 1.404 . S
C2764 C2767 1.539 . S
C2765 C2761 1.408 . S
C2765 C2764 1.404 . S
C2765 H2777 0.930 . S
C2766 C2762 1.524 . S
C2766 H2778 0.956 . S
C2766 H2779 0.961 . S
C2766 H2780 0.961 . S
C2767 C2764 1.539 . S
C2767 H2781 0.958 . S
C2767 H2782 0.961 . S
C2767 H2783 0.960 . S
H2768 C2752 0.931 . S
H2769 C2757 0.929 . S
H2770 C2758 0.960 . S
H2771 C2758 0.962 . S
H2772 C2758 0.960 . S
H2773 C2759 0.961 . S
H2774 C2759 0.961 . S
H2775 C2759 0.961 . S
H2776 C2760 0.931 . S
H2777 C2765 0.930 . S
H2778 C2766 0.956 . S
H2779 C2766 0.961 . S
H2780 C2766 0.961 . S
H2781 C2767 0.958 . S
H2782 C2767 0.961 . S
H2783 C2767 0.960 . S
C2784 C2785 1.391 . S
C2784 C2786 1.394 . S
C2784 H2800 0.931 . S
C2785 C2784 1.391 . S
C2785 C2789 1.376 . S
C2786 C2784 1.394 . S
C2786 C2787 1.369 . S
C2786 C2790 1.531 . S
C2787 C2786 1.369 . S
C2787 C2788 1.410 . S
C2787 C2795 1.503 . S
C2788 C2787 1.410 . S
C2788 C2789 1.392 . S
C2788 C2791 1.511 . S
C2789 C2785 1.376 . S
C2789 C2788 1.392 . S
C2789 H2801 0.929 . S
C2790 C2786 1.531 . S
C2790 H2802 0.960 . S
C2790 H2803 0.962 . S
C2790 H2804 0.960 . S
C2791 C2788 1.511 . S
C2791 H2805 0.961 . S
C2791 H2806 0.961 . S
C2791 H2807 0.961 . S
C2792 C2793 1.370 . S
C2792 C2794 1.363 . S
C2792 H2808 0.931 . S
C2793 C2792 1.370 . S
C2793 C2797 1.408 . S
C2794 C2792 1.363 . S
C2794 C2795 1.370 . S
C2794 C2798 1.524 . S
C2795 C2787 1.503 . S
C2795 C2794 1.370 . S
C2795 C2796 1.403 . S
C2796 C2795 1.403 . S
C2796 C2797 1.404 . S
C2796 C2799 1.539 . S
C2797 C2793 1.408 . S
C2797 C2796 1.404 . S
C2797 H2809 0.930 . S
C2798 C2794 1.524 . S
C2798 H2810 0.956 . S
C2798 H2811 0.961 . S
C2798 H2812 0.961 . S
C2799 C2796 1.539 . S
C2799 H2813 0.958 . S
C2799 H2814 0.961 . S
C2799 H2815 0.960 . S
H2800 C2784 0.931 . S
H2801 C2789 0.929 . S
H2802 C2790 0.960 . S
H2803 C2790 0.962 . S
H2804 C2790 0.960 . S
H2805 C2791 0.961 . S
H2806 C2791 0.961 . S
H2807 C2791 0.961 . S
H2808 C2792 0.931 . S
H2809 C2797 0.930 . S
H2810 C2798 0.956 . S
H2811 C2798 0.961 . S
H2812 C2798 0.961 . S
H2813 C2799 0.958 . S
H2814 C2799 0.961 . S
H2815 C2799 0.960 . S
C2816 C2817 1.391 . S
C2816 C2818 1.394 . S
C2816 H2832 0.931 . S
C2817 C2816 1.391 . S
C2817 C2821 1.376 . S
C2818 C2816 1.394 . S
C2818 C2819 1.369 . S
C2818 C2822 1.531 . S
C2819 C2818 1.369 . S
C2819 C2820 1.410 . S
C2819 C2827 1.503 . S
C2820 C2819 1.410 . S
C2820 C2821 1.392 . S
C2820 C2823 1.511 . S
C2821 C2817 1.376 . S
C2821 C2820 1.392 . S
C2821 H2833 0.929 . S
C2822 C2818 1.531 . S
C2822 H2834 0.960 . S
C2822 H2835 0.962 . S
C2822 H2836 0.960 . S
C2823 C2820 1.511 . S
C2823 H2837 0.961 . S
C2823 H2838 0.961 . S
C2823 H2839 0.961 . S
C2824 C2825 1.370 . S
C2824 C2826 1.363 . S
C2824 H2840 0.931 . S
C2825 C2824 1.370 . S
C2825 C2829 1.408 . S
C2826 C2824 1.363 . S
C2826 C2827 1.370 . S
C2826 C2830 1.524 . S
C2827 C2819 1.503 . S
C2827 C2826 1.370 . S
C2827 C2828 1.403 . S
C2828 C2827 1.403 . S
C2828 C2829 1.404 . S
C2828 C2831 1.539 . S
C2829 C2825 1.408 . S
C2829 C2828 1.404 . S
C2829 H2841 0.930 . S
C2830 C2826 1.524 . S
C2830 H2842 0.956 . S
C2830 H2843 0.961 . S
C2830 H2844 0.961 . S
C2831 C2828 1.539 . S
C2831 H2845 0.958 . S
C2831 H2846 0.961 . S
C2831 H2847 0.960 . S
H2832 C2816 0.931 . S
H2833 C2821 0.929 . S
H2834 C2822 0.960 . S
H2835 C2822 0.962 . S
H2836 C2822 0.960 . S
H2837 C2823 0.961 . S
H2838 C2823 0.961 . S
H2839 C2823 0.961 . S
H2840 C2824 0.931 . S
H2841 C2829 0.930 . S
H2842 C2830 0.956 . S
H2843 C2830 0.961 . S
H2844 C2830 0.961 . S
H2845 C2831 0.958 . S
H2846 C2831 0.961 . S
H2847 C2831 0.960 . S
C2848 C2849 1.391 . S
C2848 C2850 1.394 . S
C2848 H2864 0.931 . S
C2849 C2848 1.391 . S
C2849 C2853 1.376 . S
C2850 C2848 1.394 . S
C2850 C2851 1.369 . S
C2850 C2854 1.531 . S
C2851 C2850 1.369 . S
C2851 C2852 1.410 . S
C2851 C2859 1.503 . S
C2852 C2851 1.410 . S
C2852 C2853 1.392 . S
C2852 C2855 1.511 . S
C2853 C2849 1.376 . S
C2853 C2852 1.392 . S
C2853 H2865 0.929 . S
C2854 C2850 1.531 . S
C2854 H2866 0.960 . S
C2854 H2867 0.962 . S
C2854 H2868 0.960 . S
C2855 C2852 1.511 . S
C2855 H2869 0.961 . S
C2855 H2870 0.961 . S
C2855 H2871 0.961 . S
C2856 C2857 1.370 . S
C2856 C2858 1.363 . S
C2856 H2872 0.931 . S
C2857 C2856 1.370 . S
C2857 C2861 1.408 . S
C2858 C2856 1.363 . S
C2858 C2859 1.370 . S
C2858 C2862 1.524 . S
C2859 C2851 1.503 . S
C2859 C2858 1.370 . S
C2859 C2860 1.403 . S
C2860 C2859 1.403 . S
C2860 C2861 1.404 . S
C2860 C2863 1.539 . S
C2861 C2857 1.408 . S
C2861 C2860 1.404 . S
C2861 H2873 0.930 . S
C2862 C2858 1.524 . S
C2862 H2874 0.956 . S
C2862 H2875 0.961 . S
C2862 H2876 0.961 . S
C2863 C2860 1.539 . S
C2863 H2877 0.958 . S
C2863 H2878 0.961 . S
C2863 H2879 0.960 . S
H2864 C2848 0.931 . S
H2865 C2853 0.929 . S
H2866 C2854 0.960 . S
H2867 C2854 0.962 . S
H2868 C2854 0.960 . S
H2869 C2855 0.961 . S
H2870 C2855 0.961 . S
H2871 C2855 0.961 . S
H2872 C2856 0.931 . S
H2873 C2861 0.930 . S
H2874 C2862 0.956 . S
H2875 C2862 0.961 . S
H2876 C2862 0.961 . S
H2877 C2863 0.958 . S
H2878 C2863 0.961 . S
H2879 C2863 0.960 . S
C2880 C2881 1.391 . S
C2880 C2882 1.394 . S
C2880 H2896 0.931 . S
C2881 C2880 1.391 . S
C2881 C2885 1.376 . S
C2882 C2880 1.394 . S
C2882 C2883 1.369 . S
C2882 C2886 1.531 . S
C2883 C2882 1.369 . S
C2883 C2884 1.410 . S
C2883 C2891 1.503 . S
C2884 C2883 1.410 . S
C2884 C2885 1.392 . S
C2884 C2887 1.511 . S
C2885 C2881 1.376 . S
C2885 C2884 1.392 . S
C2885 H2897 0.929 . S
C2886 C2882 1.531 . S
C2886 H2898 0.960 . S
C2886 H2899 0.962 . S
C2886 H2900 0.960 . S
C2887 C2884 1.511 . S
C2887 H2901 0.961 . S
C2887 H2902 0.961 . S
C2887 H2903 0.961 . S
C2888 C2889 1.370 . S
C2888 C2890 1.363 . S
C2888 H2904 0.931 . S
C2889 C2888 1.370 . S
C2889 C2893 1.408 . S
C2890 C2888 1.363 . S
C2890 C2891 1.370 . S
C2890 C2894 1.524 . S
C2891 C2883 1.503 . S
C2891 C2890 1.370 . S
C2891 C2892 1.403 . S
C2892 C2891 1.403 . S
C2892 C2893 1.404 . S
C2892 C2895 1.539 . S
C2893 C2889 1.408 . S
C2893 C2892 1.404 . S
C2893 H2905 0.930 . S
C2894 C2890 1.524 . S
C2894 H2906 0.956 . S
C2894 H2907 0.961 . S
C2894 H2908 0.961 . S
C2895 C2892 1.539 . S
C2895 H2909 0.958 . S
C2895 H2910 0.961 . S
C2895 H2911 0.960 . S
H2896 C2880 0.931 . S
H2897 C2885 0.929 . S
H2898 C2886 0.960 . S
H2899 C2886 0.962 . S
H2900 C2886 0.960 . S
H2901 C2887 0.961 . S
H2902 C2887 0.961 . S
H2903 C2887 0.961 . S
H2904 C2888 0.931 . S
H2905 C2893 0.930 . S
H2906 C2894 0.956 . S
H2907 C2894 0.961 . S
H2908 C2894 0.961 . S
H2909 C2895 0.958 . S
H2910 C2895 0.961 . S
H2911 C2895 0.960 . S
C2912 C2913 1.391 . S
C2912 C2914 1.394 . S
C2912 H2928 0.931 . S
C2913 C2912 1.391 . S
C2913 C2917 1.376 . S
C2914 C2912 1.394 . S
C2914 C2915 1.369 . S
C2914 C2918 1.531 . S
C2915 C2914 1.369 . S
C2915 C2916 1.410 . S
C2915 C2923 1.503 . S
C2916 C2915 1.410 . S
C2916 C2917 1.392 . S
C2916 C2919 1.511 . S
C2917 C2913 1.376 . S
C2917 C2916 1.392 . S
C2917 H2929 0.929 . S
C2918 C2914 1.531 . S
C2918 H2930 0.960 . S
C2918 H2931 0.962 . S
C2918 H2932 0.960 . S
C2919 C2916 1.511 . S
C2919 H2933 0.961 . S
C2919 H2934 0.961 . S
C2919 H2935 0.961 . S
C2920 C2921 1.370 . S
C2920 C2922 1.363 . S
C2920 H2936 0.931 . S
C2921 C2920 1.370 . S
C2921 C2925 1.408 . S
C2922 C2920 1.363 . S
C2922 C2923 1.370 . S
C2922 C2926 1.524 . S
C2923 C2915 1.503 . S
C2923 C2922 1.370 . S
C2923 C2924 1.403 . S
C2924 C2923 1.403 . S
C2924 C2925 1.404 . S
C2924 C2927 1.539 . S
C2925 C2921 1.408 . S
C2925 C2924 1.404 . S
C2925 H2937 0.930 . S
C2926 C2922 1.524 . S
C2926 H2938 0.956 . S
C2926 H2939 0.961 . S
C2926 H2940 0.961 . S
C2927 C2924 1.539 . S
C2927 H2941 0.958 . S
C2927 H2942 0.961 . S
C2927 H2943 0.960 . S
H2928 C2912 0.931 . S
H2929 C2917 0.929 . S
H2930 C2918 0.960 . S
H2931 C2918 0.962 . S
H2932 C2918 0.960 . S
H2933 C2919 0.961 . S
H2934 C2919 0.961 . S
H2935 C2919 0.961 . S
H2936 C2920 0.931 . S
H2937 C2925 0.930 . S
H2938 C2926 0.956 . S
H2939 C2926 0.961 . S
H2940 C2926 0.961 . S
H2941 C2927 0.958 . S
H2942 C2927 0.961 . S
H2943 C2927 0.960 . S
C2944 C2945 1.391 . S
C2944 C2946 1.394 . S
C2944 H2960 0.931 . S
C2945 C2944 1.391 . S
C2945 C2949 1.376 . S
C2946 C2944 1.394 . S
C2946 C2947 1.369 . S
C2946 C2950 1.531 . S
C2947 C2946 1.369 . S
C2947 C2948 1.410 . S
C2947 C2955 1.503 . S
C2948 C2947 1.410 . S
C2948 C2949 1.392 . S
C2948 C2951 1.511 . S
C2949 C2945 1.376 . S
C2949 C2948 1.392 . S
C2949 H2961 0.929 . S
C2950 C2946 1.531 . S
C2950 H2962 0.960 . S
C2950 H2963 0.962 . S
C2950 H2964 0.960 . S
C2951 C2948 1.511 . S
C2951 H2965 0.961 . S
C2951 H2966 0.961 . S
C2951 H2967 0.961 . S
C2952 C2953 1.370 . S
C2952 C2954 1.363 . S
C2952 H2968 0.931 . S
C2953 C2952 1.370 . S
C2953 C2957 1.408 . S
C2954 C2952 1.363 . S
C2954 C2955 1.370 . S
C2954 C2958 1.524 . S
C2955 C2947 1.503 . S
C2955 C2954 1.370 . S
C2955 C2956 1.403 . S
C2956 C2955 1.403 . S
C2956 C2957 1.404 . S
C2956 C2959 1.539 . S
C2957 C2953 1.408 . S
C2957 C2956 1.404 . S
C2957 H2969 0.930 . S
C2958 C2954 1.524 . S
C2958 H2970 0.956 . S
C2958 H2971 0.961 . S
C2958 H2972 0.961 . S
C2959 C2956 1.539 . S
C2959 H2973 0.958 . S
C2959 H2974 0.961 . S
C2959 H2975 0.960 . S
H2960 C2944 0.931 . S
H2961 C2949 0.929 . S
H2962 C2950 0.960 . S
H2963 C2950 0.962 . S
H2964 C2950 0.960 . S
H2965 C2951 0.961 . S
H2966 C2951 0.961 . S
H2967 C2951 0.961 . S
H2968 C2952 0.931 . S
H2969 C2957 0.930 . S
H2970 C2958 0.956 . S
H2971 C2958 0.961 . S
H2972 C2958 0.961 . S
H2973 C2959 0.958 . S
H2974 C2959 0.961 . S
H2975 C2959 0.960 . S
C2976 C2977 1.391 . S
C2976 C2978 1.394 . S
C2976 H2992 0.931 . S
C2977 C2976 1.391 . S
C2977 C2981 1.376 . S
C2978 C2976 1.394 . S
C2978 C2979 1.369 . S
C2978 C2982 1.531 . S
C2979 C2978 1.369 . S
C2979 C2980 1.410 . S
C2979 C2987 1.503 . S
C2980 C2979 1.410 . S
C2980 C2981 1.392 . S
C2980 C2983 1.511 . S
C2981 C2977 1.376 . S
C2981 C2980 1.392 . S
C2981 H2993 0.929 . S
C2982 C2978 1.531 . S
C2982 H2994 0.960 . S
C2982 H2995 0.962 . S
C2982 H2996 0.960 . S
C2983 C2980 1.511 . S
C2983 H2997 0.961 . S
C2983 H2998 0.961 . S
C2983 H2999 0.961 . S
C2984 C2985 1.370 . S
C2984 C2986 1.363 . S
C2984 H3000 0.931 . S
C2985 C2984 1.370 . S
C2985 C2989 1.408 . S
C2986 C2984 1.363 . S
C2986 C2987 1.370 . S
C2986 C2990 1.524 . S
C2987 C2979 1.503 . S
C2987 C2986 1.370 . S
C2987 C2988 1.403 . S
C2988 C2987 1.403 . S
C2988 C2989 1.404 . S
C2988 C2991 1.539 . S
C2989 C2985 1.408 . S
C2989 C2988 1.404 . S
C2989 H3001 0.930 . S
C2990 C2986 1.524 . S
C2990 H3002 0.956 . S
C2990 H3003 0.961 . S
C2990 H3004 0.961 . S
C2991 C2988 1.539 . S
C2991 H3005 0.958 . S
C2991 H3006 0.961 . S
C2991 H3007 0.960 . S
H2992 C2976 0.931 . S
H2993 C2981 0.929 . S
H2994 C2982 0.960 . S
H2995 C2982 0.962 . S
H2996 C2982 0.960 . S
H2997 C2983 0.961 . S
H2998 C2983 0.961 . S
H2999 C2983 0.961 . S
H3000 C2984 0.931 . S
H3001 C2989 0.930 . S
H3002 C2990 0.956 . S
H3003 C2990 0.961 . S
H3004 C2990 0.961 . S
H3005 C2991 0.958 . S
H3006 C2991 0.961 . S
H3007 C2991 0.960 . S
C3008 C3009 1.391 . S
C3008 C3010 1.394 . S
C3008 H3024 0.931 . S
C3009 C3008 1.391 . S
C3009 C3013 1.376 . S
C3010 C3008 1.394 . S
C3010 C3011 1.369 . S
C3010 C3014 1.531 . S
C3011 C3010 1.369 . S
C3011 C3012 1.410 . S
C3011 C3019 1.503 . S
C3012 C3011 1.410 . S
C3012 C3013 1.392 . S
C3012 C3015 1.511 . S
C3013 C3009 1.376 . S
C3013 C3012 1.392 . S
C3013 H3025 0.929 . S
C3014 C3010 1.531 . S
C3014 H3026 0.960 . S
C3014 H3027 0.962 . S
C3014 H3028 0.960 . S
C3015 C3012 1.511 . S
C3015 H3029 0.961 . S
C3015 H3030 0.961 . S
C3015 H3031 0.961 . S
C3016 C3017 1.370 . S
C3016 C3018 1.363 . S
C3016 H3032 0.931 . S
C3017 C3016 1.370 . S
C3017 C3021 1.408 . S
C3018 C3016 1.363 . S
C3018 C3019 1.370 . S
C3018 C3022 1.524 . S
C3019 C3011 1.503 . S
C3019 C3018 1.370 . S
C3019 C3020 1.403 . S
C3020 C3019 1.403 . S
C3020 C3021 1.404 . S
C3020 C3023 1.539 . S
C3021 C3017 1.408 . S
C3021 C3020 1.404 . S
C3021 H3033 0.930 . S
C3022 C3018 1.524 . S
C3022 H3034 0.956 . S
C3022 H3035 0.961 . S
C3022 H3036 0.961 . S
C3023 C3020 1.539 . S
C3023 H3037 0.958 . S
C3023 H3038 0.961 . S
C3023 H3039 0.960 . S
H3024 C3008 0.931 . S
H3025 C3013 0.929 . S
H3026 C3014 0.960 . S
H3027 C3014 0.962 . S
H3028 C3014 0.960 . S
H3029 C3015 0.961 . S
H3030 C3015 0.961 . S
H3031 C3015 0.961 . S
H3032 C3016 0.931 . S
H3033 C3021 0.930 . S
H3034 C3022 0.956 . S
H3035 C3022 0.961 . S
H3036 C3022 0.961 . S
H3037 C3023 0.958 . S
H3038 C3023 0.961 . S
H3039 C3023 0.960 . S
C3040 C3041 1.391 . S
C3040 C3042 1.394 . S
C3040 H3056 0.931 . S
C3041 C3040 1.391 . S
C3041 C3045 1.376 . S
C3042 C3040 1.394 . S
C3042 C3043 1.369 . S
C3042 C3046 1.531 . S
C3043 C3042 1.369 . S
C3043 C3044 1.410 . S
C3043 C3051 1.503 . S
C3044 C3043 1.410 . S
C3044 C3045 1.392 . S
C3044 C3047 1.511 . S
C3045 C3041 1.376 . S
C3045 C3044 1.392 . S
C3045 H3057 0.929 . S
C3046 C3042 1.531 . S
C3046 H3058 0.960 . S
C3046 H3059 0.962 . S
C3046 H3060 0.960 . S
C3047 C3044 1.511 . S
C3047 H3061 0.961 . S
C3047 H3062 0.961 . S
C3047 H3063 0.961 . S
C3048 C3049 1.370 . S
C3048 C3050 1.363 . S
C3048 H3064 0.931 . S
C3049 C3048 1.370 . S
C3049 C3053 1.408 . S
C3050 C3048 1.363 . S
C3050 C3051 1.370 . S
C3050 C3054 1.524 . S
C3051 C3043 1.503 . S
C3051 C3050 1.370 . S
C3051 C3052 1.403 . S
C3052 C3051 1.403 . S
C3052 C3053 1.404 . S
C3052 C3055 1.539 . S
C3053 C3049 1.408 . S
C3053 C3052 1.404 . S
C3053 H3065 0.930 . S
C3054 C3050 1.524 . S
C3054 H3066 0.956 . S
C3054 H3067 0.961 . S
C3054 H3068 0.961 . S
C3055 C3052 1.539 . S
C3055 H3069 0.958 . S
C3055 H3070 0.961 . S
C3055 H3071 0.960 . S
H3056 C3040 0.931 . S
H3057 C3045 0.929 . S
H3058 C3046 0.960 . S
H3059 C3046 0.962 . S
H3060 C3046 0.960 . S
H3061 C3047 0.961 . S
H3062 C3047 0.961 . S
H3063 C3047 0.961 . S
H3064 C3048 0.931 . S
H3065 C3053 0.930 . S
H3066 C3054 0.956 . S
H3067 C3054 0.961 . S
H3068 C3054 0.961 . S
H3069 C3055 0.958 . S
H3070 C3055 0.961 . S
H3071 C3055 0.960 . S
C3072 C3073 1.391 . S
C3072 C3074 1.394 . S
C3072 H3088 0.931 . S
C3073 C3072 1.391 . S
C3073 C3077 1.376 . S
C3074 C3072 1.394 . S
C3074 C3075 1.369 . S
C3074 C3078 1.531 . S
C3075 C3074 1.369 . S
C3075 C3076 1.410 . S
C3075 C3083 1.503 . S
C3076 C3075 1.410 . S
C3076 C3077 1.392 . S
C3076 C3079 1.511 . S
C3077 C3073 1.376 . S
C3077 C3076 1.392 . S
C3077 H3089 0.929 . S
C3078 C3074 1.531 . S
C3078 H3090 0.960 . S
C3078 H3091 0.962 . S
C3078 H3092 0.960 . S
C3079 C3076 1.511 . S
C3079 H3093 0.961 . S
C3079 H3094 0.961 . S
C3079 H3095 0.961 . S
C3080 C3081 1.370 . S
C3080 C3082 1.363 . S
C3080 H3096 0.931 . S
C3081 C3080 1.370 . S
C3081 C3085 1.408 . S
C3082 C3080 1.363 . S
C3082 C3083 1.370 . S
C3082 C3086 1.524 . S
C3083 C3075 1.503 . S
C3083 C3082 1.370 . S
C3083 C3084 1.403 . S
C3084 C3083 1.403 . S
C3084 C3085 1.404 . S
C3084 C3087 1.539 . S
C3085 C3081 1.408 . S
C3085 C3084 1.404 . S
C3085 H3097 0.930 . S
C3086 C3082 1.524 . S
C3086 H3098 0.956 . S
C3086 H3099 0.961 . S
C3086 H3100 0.961 . S
C3087 C3084 1.539 . S
C3087 H3101 0.958 . S
C3087 H3102 0.961 . S
C3087 H3103 0.960 . S
H3088 C3072 0.931 . S
H3089 C3077 0.929 . S
H3090 C3078 0.960 . S
H3091 C3078 0.962 . S
H3092 C3078 0.960 . S
H3093 C3079 0.961 . S
H3094 C3079 0.961 . S
H3095 C3079 0.961 . S
H3096 C3080 0.931 . S
H3097 C3085 0.930 . S
H3098 C3086 0.956 . S
H3099 C3086 0.961 . S
H3100 C3086 0.961 . S
H3101 C3087 0.958 . S
H3102 C3087 0.961 . S
H3103 C3087 0.960 . S
C3104 C3105 1.391 . S
C3104 C3106 1.394 . S
C3104 H3120 0.931 . S
C3105 C3104 1.391 . S
C3105 C3109 1.376 . S
C3106 C3104 1.394 . S
C3106 C3107 1.369 . S
C3106 C3110 1.531 . S
C3107 C3106 1.369 . S
C3107 C3108 1.410 . S
C3107 C3115 1.503 . S
C3108 C3107 1.410 . S
C3108 C3109 1.392 . S
C3108 C3111 1.511 . S
C3109 C3105 1.376 . S
C3109 C3108 1.392 . S
C3109 H3121 0.929 . S
C3110 C3106 1.531 . S
C3110 H3122 0.960 . S
C3110 H3123 0.962 . S
C3110 H3124 0.960 . S
C3111 C3108 1.511 . S
C3111 H3125 0.961 . S
C3111 H3126 0.961 . S
C3111 H3127 0.961 . S
C3112 C3113 1.370 . S
C3112 C3114 1.363 . S
C3112 H3128 0.931 . S
C3113 C3112 1.370 . S
C3113 C3117 1.408 . S
C3114 C3112 1.363 . S
C3114 C3115 1.370 . S
C3114 C3118 1.524 . S
C3115 C3107 1.503 . S
C3115 C3114 1.370 . S
C3115 C3116 1.403 . S
C3116 C3115 1.403 . S
C3116 C3117 1.404 . S
C3116 C3119 1.539 . S
C3117 C3113 1.408 . S
C3117 C3116 1.404 . S
C3117 H3129 0.930 . S
C3118 C3114 1.524 . S
C3118 H3130 0.956 . S
C3118 H3131 0.961 . S
C3118 H3132 0.961 . S
C3119 C3116 1.539 . S
C3119 H3133 0.958 . S
C3119 H3134 0.961 . S
C3119 H3135 0.960 . S
H3120 C3104 0.931 . S
H3121 C3109 0.929 . S
H3122 C3110 0.960 . S
H3123 C3110 0.962 . S
H3124 C3110 0.960 . S
H3125 C3111 0.961 . S
H3126 C3111 0.961 . S
H3127 C3111 0.961 . S
H3128 C3112 0.931 . S
H3129 C3117 0.930 . S
H3130 C3118 0.956 . S
H3131 C3118 0.961 . S
H3132 C3118 0.961 . S
H3133 C3119 0.958 . S
H3134 C3119 0.961 . S
H3135 C3119 0.960 . S
C3136 C3137 1.391 . S
C3136 C3138 1.394 . S
C3136 H3152 0.931 . S
C3137 C3136 1.391 . S
C3137 C3141 1.376 . S
C3138 C3136 1.394 . S
C3138 C3139 1.369 . S
C3138 C3142 1.531 . S
C3139 C3138 1.369 . S
C3139 C3140 1.410 . S
C3139 C3147 1.503 . S
C3140 C3139 1.410 . S
C3140 C3141 1.392 . S
C3140 C3143 1.511 . S
C3141 C3137 1.376 . S
C3141 C3140 1.392 . S
C3141 H3153 0.929 . S
C3142 C3138 1.531 . S
C3142 H3154 0.960 . S
C3142 H3155 0.962 . S
C3142 H3156 0.960 . S
C3143 C3140 1.511 . S
C3143 H3157 0.961 . S
C3143 H3158 0.961 . S
C3143 H3159 0.961 . S
C3144 C3145 1.370 . S
C3144 C3146 1.363 . S
C3144 H3160 0.931 . S
C3145 C3144 1.370 . S
C3145 C3149 1.408 . S
C3146 C3144 1.363 . S
C3146 C3147 1.370 . S
C3146 C3150 1.524 . S
C3147 C3139 1.503 . S
C3147 C3146 1.370 . S
C3147 C3148 1.403 . S
C3148 C3147 1.403 . S
C3148 C3149 1.404 . S
C3148 C3151 1.539 . S
C3149 C3145 1.408 . S
C3149 C3148 1.404 . S
C3149 H3161 0.930 . S
C3150 C3146 1.524 . S
C3150 H3162 0.956 . S
C3150 H3163 0.961 . S
C3150 H3164 0.961 . S
C3151 C3148 1.539 . S
C3151 H3165 0.958 . S
C3151 H3166 0.961 . S
C3151 H3167 0.960 . S
H3152 C3136 0.931 . S
H3153 C3141 0.929 . S
H3154 C3142 0.960 . S
H3155 C3142 0.962 . S
H3156 C3142 0.960 . S
H3157 C3143 0.961 . S
H3158 C3143 0.961 . S
H3159 C3143 0.961 . S
H3160 C3144 0.931 . S
H3161 C3149 0.930 . S
H3162 C3150 0.956 . S
H3163 C3150 0.961 . S
H3164 C3150 0.961 . S
H3165 C3151 0.958 . S
H3166 C3151 0.961 . S
H3167 C3151 0.960 . S
C3168 C3169 1.391 . S
C3168 C3170 1.394 . S
C3168 H3184 0.931 . S
C3169 C3168 1.391 . S
C3169 C3173 1.376 . S
C3170 C3168 1.394 . S
C3170 C3171 1.369 . S
C3170 C3174 1.531 . S
C3171 C3170 1.369 . S
C3171 C3172 1.410 . S
C3171 C3179 1.503 . S
C3172 C3171 1.410 . S
C3172 C3173 1.392 . S
C3172 C3175 1.511 . S
C3173 C3169 1.376 . S
C3173 C3172 1.392 . S
C3173 H3185 0.929 . S
C3174 C3170 1.531 . S
C3174 H3186 0.960 . S
C3174 H3187 0.962 . S
C3174 H3188 0.960 . S
C3175 C3172 1.511 . S
C3175 H3189 0.961 . S
C3175 H3190 0.961 . S
C3175 H3191 0.961 . S
C3176 C3177 1.370 . S
C3176 C3178 1.363 . S
C3176 H3192 0.931 . S
C3177 C3176 1.370 . S
C3177 C3181 1.408 . S
C3178 C3176 1.363 . S
C3178 C3179 1.370 . S
C3178 C3182 1.524 . S
C3179 C3171 1.503 . S
C3179 C3178 1.370 . S
C3179 C3180 1.403 . S
C3180 C3179 1.403 . S
C3180 C3181 1.404 . S
C3180 C3183 1.539 . S
C3181 C3177 1.408 . S
C3181 C3180 1.404 . S
C3181 H3193 0.930 . S
C3182 C3178 1.524 . S
C3182 H3194 0.956 . S
C3182 H3195 0.961 . S
C3182 H3196 0.961 . S
C3183 C3180 1.539 . S
C3183 H3197 0.958 . S
C3183 H3198 0.961 . S
C3183 H3199 0.960 . S
H3184 C3168 0.931 . S
H3185 C3173 0.929 . S
H3186 C3174 0.960 . S
H3187 C3174 0.962 . S
H3188 C3174 0.960 . S
H3189 C3175 0.961 . S
H3190 C3175 0.961 . S
H3191 C3175 0.961 . S
H3192 C3176 0.931 . S
H3193 C3181 0.930 . S
H3194 C3182 0.956 . S
H3195 C3182 0.961 . S
H3196 C3182 0.961 . S
H3197 C3183 0.958 . S
H3198 C3183 0.961 . S
H3199 C3183 0.960 . S
C3200 C3201 1.391 . S
C3200 C3202 1.394 . S
C3200 H3216 0.931 . S
C3201 C3200 1.391 . S
C3201 C3205 1.376 . S
C3202 C3200 1.394 . S
C3202 C3203 1.369 . S
C3202 C3206 1.531 . S
C3203 C3202 1.369 . S
C3203 C3204 1.410 . S
C3203 C3211 1.503 . S
C3204 C3203 1.410 . S
C3204 C3205 1.392 . S
C3204 C3207 1.511 . S
C3205 C3201 1.376 . S
C3205 C3204 1.392 . S
C3205 H3217 0.929 . S
C3206 C3202 1.531 . S
C3206 H3218 0.960 . S
C3206 H3219 0.962 . S
C3206 H3220 0.960 . S
C3207 C3204 1.511 . S
C3207 H3221 0.961 . S
C3207 H3222 0.961 . S
C3207 H3223 0.961 . S
C3208 C3209 1.370 . S
C3208 C3210 1.363 . S
C3208 H3224 0.931 . S
C3209 C3208 1.370 . S
C3209 C3213 1.408 . S
C3210 C3208 1.363 . S
C3210 C3211 1.370 . S
C3210 C3214 1.524 . S
C3211 C3203 1.503 . S
C3211 C3210 1.370 . S
C3211 C3212 1.403 . S
C3212 C3211 1.403 . S
C3212 C3213 1.404 . S
C3212 C3215 1.539 . S
C3213 C3209 1.408 . S
C3213 C3212 1.404 . S
C3213 H3225 0.930 . S
C3214 C3210 1.524 . S
C3214 H3226 0.956 . S
C3214 H3227 0.961 . S
C3214 H3228 0.961 . S
C3215 C3212 1.539 . S
C3215 H3229 0.958 . S
C3215 H3230 0.961 . S
C3215 H3231 0.960 . S
H3216 C3200 0.931 . S
H3217 C3205 0.929 . S
H3218 C3206 0.960 . S
H3219 C3206 0.962 . S
H3220 C3206 0.960 . S
H3221 C3207 0.961 . S
H3222 C3207 0.961 . S
H3223 C3207 0.961 . S
H3224 C3208 0.931 . S
H3225 C3213 0.930 . S
H3226 C3214 0.956 . S
H3227 C3214 0.961 . S
H3228 C3214 0.961 . S
H3229 C3215 0.958 . S
H3230 C3215 0.961 . S
H3231 C3215 0.960 . S
C3232 C3233 1.391 . S
C3232 C3234 1.394 . S
C3232 H3248 0.931 . S
C3233 C3232 1.391 . S
C3233 C3237 1.376 . S
C3234 C3232 1.394 . S
C3234 C3235 1.369 . S
C3234 C3238 1.531 . S
C3235 C3234 1.369 . S
C3235 C3236 1.410 . S
C3235 C3243 1.503 . S
C3236 C3235 1.410 . S
C3236 C3237 1.392 . S
C3236 C3239 1.511 . S
C3237 C3233 1.376 . S
C3237 C3236 1.392 . S
C3237 H3249 0.929 . S
C3238 C3234 1.531 . S
C3238 H3250 0.960 . S
C3238 H3251 0.962 . S
C3238 H3252 0.960 . S
C3239 C3236 1.511 . S
C3239 H3253 0.961 . S
C3239 H3254 0.961 . S
C3239 H3255 0.961 . S
C3240 C3241 1.370 . S
C3240 C3242 1.363 . S
C3240 H3256 0.931 . S
C3241 C3240 1.370 . S
C3241 C3245 1.408 . S
C3242 C3240 1.363 . S
C3242 C3243 1.370 . S
C3242 C3246 1.524 . S
C3243 C3235 1.503 . S
C3243 C3242 1.370 . S
C3243 C3244 1.403 . S
C3244 C3243 1.403 . S
C3244 C3245 1.404 . S
C3244 C3247 1.539 . S
C3245 C3241 1.408 . S
C3245 C3244 1.404 . S
C3245 H3257 0.930 . S
C3246 C3242 1.524 . S
C3246 H3258 0.956 . S
C3246 H3259 0.961 . S
C3246 H3260 0.961 . S
C3247 C3244 1.539 . S
C3247 H3261 0.958 . S
C3247 H3262 0.961 . S
C3247 H3263 0.960 . S
H3248 C3232 0.931 . S
H3249 C3237 0.929 . S
H3250 C3238 0.960 . S
H3251 C3238 0.962 . S
H3252 C3238 0.960 . S
H3253 C3239 0.961 . S
H3254 C3239 0.961 . S
H3255 C3239 0.961 . S
H3256 C3240 0.931 . S
H3257 C3245 0.930 . S
H3258 C3246 0.956 . S
H3259 C3246 0.961 . S
H3260 C3246 0.961 . S
H3261 C3247 0.958 . S
H3262 C3247 0.961 . S
H3263 C3247 0.960 . S
C3264 C3265 1.391 . S
C3264 C3266 1.394 . S
C3264 H3280 0.931 . S
C3265 C3264 1.391 . S
C3265 C3269 1.376 . S
C3266 C3264 1.394 . S
C3266 C3267 1.369 . S
C3266 C3270 1.531 . S
C3267 C3266 1.369 . S
C3267 C3268 1.410 . S
C3267 C3275 1.503 . S
C3268 C3267 1.410 . S
C3268 C3269 1.392 . S
C3268 C3271 1.511 . S
C3269 C3265 1.376 . S
C3269 C3268 1.392 . S
C3269 H3281 0.929 . S
C3270 C3266 1.531 . S
C3270 H3282 0.960 . S
C3270 H3283 0.962 . S
C3270 H3284 0.960 . S
C3271 C3268 1.511 . S
C3271 H3285 0.961 . S
C3271 H3286 0.961 . S
C3271 H3287 0.961 . S
C3272 C3273 1.370 . S
C3272 C3274 1.363 . S
C3272 H3288 0.931 . S
C3273 C3272 1.370 . S
C3273 C3277 1.408 . S
C3274 C3272 1.363 . S
C3274 C3275 1.370 . S
C3274 C3278 1.524 . S
C3275 C3267 1.503 . S
C3275 C3274 1.370 . S
C3275 C3276 1.403 . S
C3276 C3275 1.403 . S
C3276 C3277 1.404 . S
C3276 C3279 1.539 . S
C3277 C3273 1.408 . S
C3277 C3276 1.404 . S
C3277 H3289 0.930 . S
C3278 C3274 1.524 . S
C3278 H3290 0.956 . S
C3278 H3291 0.961 . S
C3278 H3292 0.961 . S
C3279 C3276 1.539 . S
C3279 H3293 0.958 . S
C3279 H3294 0.961 . S
C3279 H3295 0.960 . S
H3280 C3264 0.931 . S
H3281 C3269 0.929 . S
H3282 C3270 0.960 . S
H3283 C3270 0.962 . S
H3284 C3270 0.960 . S
H3285 C3271 0.961 . S
H3286 C3271 0.961 . S
H3287 C3271 0.961 . S
H3288 C3272 0.931 . S
H3289 C3277 0.930 . S
H3290 C3278 0.956 . S
H3291 C3278 0.961 . S
H3292 C3278 0.961 . S
H3293 C3279 0.958 . S
H3294 C3279 0.961 . S
H3295 C3279 0.960 . S
C3296 C3297 1.391 . S
C3296 C3298 1.394 . S
C3296 H3312 0.931 . S
C3297 C3296 1.391 . S
C3297 C3301 1.376 . S
C3298 C3296 1.394 . S
C3298 C3299 1.369 . S
C3298 C3302 1.531 . S
C3299 C3298 1.369 . S
C3299 C3300 1.410 . S
C3299 C3307 1.503 . S
C3300 C3299 1.410 . S
C3300 C3301 1.392 . S
C3300 C3303 1.511 . S
C3301 C3297 1.376 . S
C3301 C3300 1.392 . S
C3301 H3313 0.929 . S
C3302 C3298 1.531 . S
C3302 H3314 0.960 . S
C3302 H3315 0.962 . S
C3302 H3316 0.960 . S
C3303 C3300 1.511 . S
C3303 H3317 0.961 . S
C3303 H3318 0.961 . S
C3303 H3319 0.961 . S
C3304 C3305 1.370 . S
C3304 C3306 1.363 . S
C3304 H3320 0.931 . S
C3305 C3304 1.370 . S
C3305 C3309 1.408 . S
C3306 C3304 1.363 . S
C3306 C3307 1.370 . S
C3306 C3310 1.524 . S
C3307 C3299 1.503 . S
C3307 C3306 1.370 . S
C3307 C3308 1.403 . S
C3308 C3307 1.403 . S
C3308 C3309 1.404 . S
C3308 C3311 1.539 . S
C3309 C3305 1.408 . S
C3309 C3308 1.404 . S
C3309 H3321 0.930 . S
C3310 C3306 1.524 . S
C3310 H3322 0.956 . S
C3310 H3323 0.961 . S
C3310 H3324 0.961 . S
C3311 C3308 1.539 . S
C3311 H3325 0.958 . S
C3311 H3326 0.961 . S
C3311 H3327 0.960 . S
H3312 C3296 0.931 . S
H3313 C3301 0.929 . S
H3314 C3302 0.960 . S
H3315 C3302 0.962 . S
H3316 C3302 0.960 . S
H3317 C3303 0.961 . S
H3318 C3303 0.961 . S
H3319 C3303 0.961 . S
H3320 C3304 0.931 . S
H3321 C3309 0.930 . S
H3322 C3310 0.956 . S
H3323 C3310 0.961 . S
H3324 C3310 0.961 . S
H3325 C3311 0.958 . S
H3326 C3311 0.961 . S
H3327 C3311 0.960 . S
C3328 C3329 1.391 . S
C3328 C3330 1.394 . S
C3328 H3344 0.931 . S
C3329 C3328 1.391 . S
C3329 C3333 1.376 . S
C3330 C3328 1.394 . S
C3330 C3331 1.369 . S
C3330 C3334 1.531 . S
C3331 C3330 1.369 . S
C3331 C3332 1.410 . S
C3331 C3339 1.503 . S
C3332 C3331 1.410 . S
C3332 C3333 1.392 . S
C3332 C3335 1.511 . S
C3333 C3329 1.376 . S
C3333 C3332 1.392 . S
C3333 H3345 0.929 . S
C3334 C3330 1.531 . S
C3334 H3346 0.960 . S
C3334 H3347 0.962 . S
C3334 H3348 0.960 . S
C3335 C3332 1.511 . S
C3335 H3349 0.961 . S
C3335 H3350 0.961 . S
C3335 H3351 0.961 . S
C3336 C3337 1.370 . S
C3336 C3338 1.363 . S
C3336 H3352 0.931 . S
C3337 C3336 1.370 . S
C3337 C3341 1.408 . S
C3338 C3336 1.363 . S
C3338 C3339 1.370 . S
C3338 C3342 1.524 . S
C3339 C3331 1.503 . S
C3339 C3338 1.370 . S
C3339 C3340 1.403 . S
C3340 C3339 1.403 . S
C3340 C3341 1.404 . S
C3340 C3343 1.539 . S
C3341 C3337 1.408 . S
C3341 C3340 1.404 . S
C3341 H3353 0.930 . S
C3342 C3338 1.524 . S
C3342 H3354 0.956 . S
C3342 H3355 0.961 . S
C3342 H3356 0.961 . S
C3343 C3340 1.539 . S
C3343 H3357 0.958 . S
C3343 H3358 0.961 . S
C3343 H3359 0.960 . S
H3344 C3328 0.931 . S
H3345 C3333 0.929 . S
H3346 C3334 0.960 . S
H3347 C3334 0.962 . S
H3348 C3334 0.960 . S
H3349 C3335 0.961 . S
H3350 C3335 0.961 . S
H3351 C3335 0.961 . S
H3352 C3336 0.931 . S
H3353 C3341 0.930 . S
H3354 C3342 0.956 . S
H3355 C3342 0.961 . S
H3356 C3342 0.961 . S
H3357 C3343 0.958 . S
H3358 C3343 0.961 . S
H3359 C3343 0.960 . S
C3360 C3361 1.391 . S
C3360 C3362 1.394 . S
C3360 H3376 0.931 . S
C3361 C3360 1.391 . S
C3361 C3365 1.376 . S
C3362 C3360 1.394 . S
C3362 C3363 1.369 . S
C3362 C3366 1.531 . S
C3363 C3362 1.369 . S
C3363 C3364 1.410 . S
C3363 C3371 1.503 . S
C3364 C3363 1.410 . S
C3364 C3365 1.392 . S
C3364 C3367 1.511 . S
C3365 C3361 1.376 . S
C3365 C3364 1.392 . S
C3365 H3377 0.929 . S
C3366 C3362 1.531 . S
C3366 H3378 0.960 . S
C3366 H3379 0.962 . S
C3366 H3380 0.960 . S
C3367 C3364 1.511 . S
C3367 H3381 0.961 . S
C3367 H3382 0.961 . S
C3367 H3383 0.961 . S
C3368 C3369 1.370 . S
C3368 C3370 1.363 . S
C3368 H3384 0.931 . S
C3369 C3368 1.370 . S
C3369 C3373 1.408 . S
C3370 C3368 1.363 . S
C3370 C3371 1.370 . S
C3370 C3374 1.524 . S
C3371 C3363 1.503 . S
C3371 C3370 1.370 . S
C3371 C3372 1.403 . S
C3372 C3371 1.403 . S
C3372 C3373 1.404 . S
C3372 C3375 1.539 . S
C3373 C3369 1.408 . S
C3373 C3372 1.404 . S
C3373 H3385 0.930 . S
C3374 C3370 1.524 . S
C3374 H3386 0.956 . S
C3374 H3387 0.961 . S
C3374 H3388 0.961 . S
C3375 C3372 1.539 . S
C3375 H3389 0.958 . S
C3375 H3390 0.961 . S
C3375 H3391 0.960 . S
H3376 C3360 0.931 . S
H3377 C3365 0.929 . S
H3378 C3366 0.960 . S
H3379 C3366 0.962 . S
H3380 C3366 0.960 . S
H3381 C3367 0.961 . S
H3382 C3367 0.961 . S
H3383 C3367 0.961 . S
H3384 C3368 0.931 . S
H3385 C3373 0.930 . S
H3386 C3374 0.956 . S
H3387 C3374 0.961 . S
H3388 C3374 0.961 . S
H3389 C3375 0.958 . S
H3390 C3375 0.961 . S
H3391 C3375 0.960 . S
C3392 C3393 1.391 . S
C3392 C3394 1.394 . S
C3392 H3408 0.931 . S
C3393 C3392 1.391 . S
C3393 C3397 1.376 . S
C3394 C3392 1.394 . S
C3394 C3395 1.369 . S
C3394 C3398 1.531 . S
C3395 C3394 1.369 . S
C3395 C3396 1.410 . S
C3395 C3403 1.503 . S
C3396 C3395 1.410 . S
C3396 C3397 1.392 . S
C3396 C3399 1.511 . S
C3397 C3393 1.376 . S
C3397 C3396 1.392 . S
C3397 H3409 0.929 . S
C3398 C3394 1.531 . S
C3398 H3410 0.960 . S
C3398 H3411 0.962 . S
C3398 H3412 0.960 . S
C3399 C3396 1.511 . S
C3399 H3413 0.961 . S
C3399 H3414 0.961 . S
C3399 H3415 0.961 . S
C3400 C3401 1.370 . S
C3400 C3402 1.363 . S
C3400 H3416 0.931 . S
C3401 C3400 1.370 . S
C3401 C3405 1.408 . S
C3402 C3400 1.363 . S
C3402 C3403 1.370 . S
C3402 C3406 1.524 . S
C3403 C3395 1.503 . S
C3403 C3402 1.370 . S
C3403 C3404 1.403 . S
C3404 C3403 1.403 . S
C3404 C3405 1.404 . S
C3404 C3407 1.539 . S
C3405 C3401 1.408 . S
C3405 C3404 1.404 . S
C3405 H3417 0.930 . S
C3406 C3402 1.524 . S
C3406 H3418 0.956 . S
C3406 H3419 0.961 . S
C3406 H3420 0.961 . S
C3407 C3404 1.539 . S
C3407 H3421 0.958 . S
C3407 H3422 0.961 . S
C3407 H3423 0.960 . S
H3408 C3392 0.931 . S
H3409 C3397 0.929 . S
H3410 C3398 0.960 . S
H3411 C3398 0.962 . S
H3412 C3398 0.960 . S
H3413 C3399 0.961 . S
H3414 C3399 0.961 . S
H3415 C3399 0.961 . S
H3416 C3400 0.931 . S
H3417 C3405 0.930 . S
H3418 C3406 0.956 . S
H3419 C3406 0.961 . S
H3420 C3406 0.961 . S
H3421 C3407 0.958 . S
H3422 C3407 0.961 . S
H3423 C3407 0.960 . S
C3424 C3425 1.391 . S
C3424 C3426 1.394 . S
C3424 H3440 0.931 . S
C3425 C3424 1.391 . S
C3425 C3429 1.376 . S
C3426 C3424 1.394 . S
C3426 C3427 1.369 . S
C3426 C3430 1.531 . S
C3427 C3426 1.369 . S
C3427 C3428 1.410 . S
C3427 C3435 1.503 . S
C3428 C3427 1.410 . S
C3428 C3429 1.392 . S
C3428 C3431 1.511 . S
C3429 C3425 1.376 . S
C3429 C3428 1.392 . S
C3429 H3441 0.929 . S
C3430 C3426 1.531 . S
C3430 H3442 0.960 . S
C3430 H3443 0.962 . S
C3430 H3444 0.960 . S
C3431 C3428 1.511 . S
C3431 H3445 0.961 . S
C3431 H3446 0.961 . S
C3431 H3447 0.961 . S
C3432 C3433 1.370 . S
C3432 C3434 1.363 . S
C3432 H3448 0.931 . S
C3433 C3432 1.370 . S
C3433 C3437 1.408 . S
C3434 C3432 1.363 . S
C3434 C3435 1.370 . S
C3434 C3438 1.524 . S
C3435 C3427 1.503 . S
C3435 C3434 1.370 . S
C3435 C3436 1.403 . S
C3436 C3435 1.403 . S
C3436 C3437 1.404 . S
C3436 C3439 1.539 . S
C3437 C3433 1.408 . S
C3437 C3436 1.404 . S
C3437 H3449 0.930 . S
C3438 C3434 1.524 . S
C3438 H3450 0.956 . S
C3438 H3451 0.961 . S
C3438 H3452 0.961 . S
C3439 C3436 1.539 . S
C3439 H3453 0.958 . S
C3439 H3454 0.961 . S
C3439 H3455 0.960 . S
H3440 C3424 0.931 . S
H3441 C3429 0.929 . S
H3442 C3430 0.960 . S
H3443 C3430 0.962 . S
H3444 C3430 0.960 . S
H3445 C3431 0.961 . S
H3446 C3431 0.961 . S
H3447 C3431 0.961 . S
H3448 C3432 0.931 . S
H3449 C3437 0.930 . S
H3450 C3438 0.956 . S
H3451 C3438 0.961 . S
H3452 C3438 0.961 . S
H3453 C3439 0.958 . S
H3454 C3439 0.961 . S
H3455 C3439 0.960 . S
C3456 C3457 1.391 . S
C3456 C3458 1.394 . S
C3456 H3472 0.931 . S
C3457 C3456 1.391 . S
C3457 C3461 1.376 . S
C3458 C3456 1.394 . S
C3458 C3459 1.369 . S
C3458 C3462 1.531 . S
C3459 C3458 1.369 . S
C3459 C3460 1.410 . S
C3459 C3467 1.503 . S
C3460 C3459 1.410 . S
C3460 C3461 1.392 . S
C3460 C3463 1.511 . S
C3461 C3457 1.376 . S
C3461 C3460 1.392 . S
C3461 H3473 0.929 . S
C3462 C3458 1.531 . S
C3462 H3474 0.960 . S
C3462 H3475 0.962 . S
C3462 H3476 0.960 . S
C3463 C3460 1.511 . S
C3463 H3477 0.961 . S
C3463 H3478 0.961 . S
C3463 H3479 0.961 . S
C3464 C3465 1.370 . S
C3464 C3466 1.363 . S
C3464 H3480 0.931 . S
C3465 C3464 1.370 . S
C3465 C3469 1.408 . S
C3466 C3464 1.363 . S
C3466 C3467 1.370 . S
C3466 C3470 1.524 . S
C3467 C3459 1.503 . S
C3467 C3466 1.370 . S
C3467 C3468 1.403 . S
C3468 C3467 1.403 . S
C3468 C3469 1.404 . S
C3468 C3471 1.539 . S
C3469 C3465 1.408 . S
C3469 C3468 1.404 . S
C3469 H3481 0.930 . S
C3470 C3466 1.524 . S
C3470 H3482 0.956 . S
C3470 H3483 0.961 . S
C3470 H3484 0.961 . S
C3471 C3468 1.539 . S
C3471 H3485 0.958 . S
C3471 H3486 0.961 . S
C3471 H3487 0.960 . S
H3472 C3456 0.931 . S
H3473 C3461 0.929 . S
H3474 C3462 0.960 . S
H3475 C3462 0.962 . S
H3476 C3462 0.960 . S
H3477 C3463 0.961 . S
H3478 C3463 0.961 . S
H3479 C3463 0.961 . S
H3480 C3464 0.931 . S
H3481 C3469 0.930 . S
H3482 C3470 0.956 . S
H3483 C3470 0.961 . S
H3484 C3470 0.961 . S
H3485 C3471 0.958 . S
H3486 C3471 0.961 . S
H3487 C3471 0.960 . S
C3488 C3489 1.391 . S
C3488 C3490 1.394 . S
C3488 H3504 0.931 . S
C3489 C3488 1.391 . S
C3489 C3493 1.376 . S
C3490 C3488 1.394 . S
C3490 C3491 1.369 . S
C3490 C3494 1.531 . S
C3491 C3490 1.369 . S
C3491 C3492 1.410 . S
C3491 C3499 1.503 . S
C3492 C3491 1.410 . S
C3492 C3493 1.392 . S
C3492 C3495 1.511 . S
C3493 C3489 1.376 . S
C3493 C3492 1.392 . S
C3493 H3505 0.929 . S
C3494 C3490 1.531 . S
C3494 H3506 0.960 . S
C3494 H3507 0.962 . S
C3494 H3508 0.960 . S
C3495 C3492 1.511 . S
C3495 H3509 0.961 . S
C3495 H3510 0.961 . S
C3495 H3511 0.961 . S
C3496 C3497 1.370 . S
C3496 C3498 1.363 . S
C3496 H3512 0.931 . S
C3497 C3496 1.370 . S
C3497 C3501 1.408 . S
C3498 C3496 1.363 . S
C3498 C3499 1.370 . S
C3498 C3502 1.524 . S
C3499 C3491 1.503 . S
C3499 C3498 1.370 . S
C3499 C3500 1.403 . S
C3500 C3499 1.403 . S
C3500 C3501 1.404 . S
C3500 C3503 1.539 . S
C3501 C3497 1.408 . S
C3501 C3500 1.404 . S
C3501 H3513 0.930 . S
C3502 C3498 1.524 . S
C3502 H3514 0.956 . S
C3502 H3515 0.961 . S
C3502 H3516 0.961 . S
C3503 C3500 1.539 . S
C3503 H3517 0.958 . S
C3503 H3518 0.961 . S
C3503 H3519 0.960 . S
H3504 C3488 0.931 . S
H3505 C3493 0.929 . S
H3506 C3494 0.960 . S
H3507 C3494 0.962 . S
H3508 C3494 0.960 . S
H3509 C3495 0.961 . S
H3510 C3495 0.961 . S
H3511 C3495 0.961 . S
H3512 C3496 0.931 . S
H3513 C3501 0.930 . S
H3514 C3502 0.956 . S
H3515 C3502 0.961 . S
H3516 C3502 0.961 . S
H3517 C3503 0.958 . S
H3518 C3503 0.961 . S
H3519 C3503 0.960 . S
C3520 C3521 1.391 . S
C3520 C3522 1.394 . S
C3520 H3536 0.931 . S
C3521 C3520 1.391 . S
C3521 C3525 1.376 . S
C3522 C3520 1.394 . S
C3522 C3523 1.369 . S
C3522 C3526 1.531 . S
C3523 C3522 1.369 . S
C3523 C3524 1.410 . S
C3523 C3531 1.503 . S
C3524 C3523 1.410 . S
C3524 C3525 1.392 . S
C3524 C3527 1.511 . S
C3525 C3521 1.376 . S
C3525 C3524 1.392 . S
C3525 H3537 0.929 . S
C3526 C3522 1.531 . S
C3526 H3538 0.960 . S
C3526 H3539 0.962 . S
C3526 H3540 0.960 . S
C3527 C3524 1.511 . S
C3527 H3541 0.961 . S
C3527 H3542 0.961 . S
C3527 H3543 0.961 . S
C3528 C3529 1.370 . S
C3528 C3530 1.363 . S
C3528 H3544 0.931 . S
C3529 C3528 1.370 . S
C3529 C3533 1.408 . S
C3530 C3528 1.363 . S
C3530 C3531 1.370 . S
C3530 C3534 1.524 . S
C3531 C3523 1.503 . S
C3531 C3530 1.370 . S
C3531 C3532 1.403 . S
C3532 C3531 1.403 . S
C3532 C3533 1.404 . S
C3532 C3535 1.539 . S
C3533 C3529 1.408 . S
C3533 C3532 1.404 . S
C3533 H3545 0.930 . S
C3534 C3530 1.524 . S
C3534 H3546 0.956 . S
C3534 H3547 0.961 . S
C3534 H3548 0.961 . S
C3535 C3532 1.539 . S
C3535 H3549 0.958 . S
C3535 H3550 0.961 . S
C3535 H3551 0.960 . S
H3536 C3520 0.931 . S
H3537 C3525 0.929 . S
H3538 C3526 0.960 . S
H3539 C3526 0.962 . S
H3540 C3526 0.960 . S
H3541 C3527 0.961 . S
H3542 C3527 0.961 . S
H3543 C3527 0.961 . S
H3544 C3528 0.931 . S
H3545 C3533 0.930 . S
H3546 C3534 0.956 . S
H3547 C3534 0.961 . S
H3548 C3534 0.961 . S
H3549 C3535 0.958 . S
H3550 C3535 0.961 . S
H3551 C3535 0.960 . S
C3552 C3553 1.391 . S
C3552 C3554 1.394 . S
C3552 H3568 0.931 . S
C3553 C3552 1.391 . S
C3553 C3557 1.376 . S
C3554 C3552 1.394 . S
C3554 C3555 1.369 . S
C3554 C3558 1.531 . S
C3555 C3554 1.369 . S
C3555 C3556 1.410 . S
C3555 C3563 1.503 . S
C3556 C3555 1.410 . S
C3556 C3557 1.392 . S
C3556 C3559 1.511 . S
C3557 C3553 1.376 . S
C3557 C3556 1.392 . S
C3557 H3569 0.929 . S
C3558 C3554 1.531 . S
C3558 H3570 0.960 . S
C3558 H3571 0.962 . S
C3558 H3572 0.960 . S
C3559 C3556 1.511 . S
C3559 H3573 0.961 . S
C3559 H3574 0.961 . S
C3559 H3575 0.961 . S
C3560 C3561 1.370 . S
C3560 C3562 1.363 . S
C3560 H3576 0.931 . S
C3561 C3560 1.370 . S
C3561 C3565 1.408 . S
C3562 C3560 1.363 . S
C3562 C3563 1.370 . S
C3562 C3566 1.524 . S
C3563 C3555 1.503 . S
C3563 C3562 1.370 . S
C3563 C3564 1.403 . S
C3564 C3563 1.403 . S
C3564 C3565 1.404 . S
C3564 C3567 1.539 . S
C3565 C3561 1.408 . S
C3565 C3564 1.404 . S
C3565 H3577 0.930 . S
C3566 C3562 1.524 . S
C3566 H3578 0.956 . S
C3566 H3579 0.961 . S
C3566 H3580 0.961 . S
C3567 C3564 1.539 . S
C3567 H3581 0.958 . S
C3567 H3582 0.961 . S
C3567 H3583 0.960 . S
H3568 C3552 0.931 . S
H3569 C3557 0.929 . S
H3570 C3558 0.960 . S
H3571 C3558 0.962 . S
H3572 C3558 0.960 . S
H3573 C3559 0.961 . S
H3574 C3559 0.961 . S
H3575 C3559 0.961 . S
H3576 C3560 0.931 . S
H3577 C3565 0.930 . S
H3578 C3566 0.956 . S
H3579 C3566 0.961 . S
H3580 C3566 0.961 . S
H3581 C3567 0.958 . S
H3582 C3567 0.961 . S
H3583 C3567 0.960 . S
C3584 C3585 1.391 . S
C3584 C3586 1.394 . S
C3584 H3600 0.931 . S
C3585 C3584 1.391 . S
C3585 C3589 1.376 . S
C3586 C3584 1.394 . S
C3586 C3587 1.369 . S
C3586 C3590 1.531 . S
C3587 C3586 1.369 . S
C3587 C3588 1.410 . S
C3587 C3595 1.503 . S
C3588 C3587 1.410 . S
C3588 C3589 1.392 . S
C3588 C3591 1.511 . S
C3589 C3585 1.376 . S
C3589 C3588 1.392 . S
C3589 H3601 0.929 . S
C3590 C3586 1.531 . S
C3590 H3602 0.960 . S
C3590 H3603 0.962 . S
C3590 H3604 0.960 . S
C3591 C3588 1.511 . S
C3591 H3605 0.961 . S
C3591 H3606 0.961 . S
C3591 H3607 0.961 . S
C3592 C3593 1.370 . S
C3592 C3594 1.363 . S
C3592 H3608 0.931 . S
C3593 C3592 1.370 . S
C3593 C3597 1.408 . S
C3594 C3592 1.363 . S
C3594 C3595 1.370 . S
C3594 C3598 1.524 . S
C3595 C3587 1.503 . S
C3595 C3594 1.370 . S
C3595 C3596 1.403 . S
C3596 C3595 1.403 . S
C3596 C3597 1.404 . S
C3596 C3599 1.539 . S
C3597 C3593 1.408 . S
C3597 C3596 1.404 . S
C3597 H3609 0.930 . S
C3598 C3594 1.524 . S
C3598 H3610 0.956 . S
C3598 H3611 0.961 . S
C3598 H3612 0.961 . S
C3599 C3596 1.539 . S
C3599 H3613 0.958 . S
C3599 H3614 0.961 . S
C3599 H3615 0.960 . S
H3600 C3584 0.931 . S
H3601 C3589 0.929 . S
H3602 C3590 0.960 . S
H3603 C3590 0.962 . S
H3604 C3590 0.960 . S
H3605 C3591 0.961 . S
H3606 C3591 0.961 . S
H3607 C3591 0.961 . S
H3608 C3592 0.931 . S
H3609 C3597 0.930 . S
H3610 C3598 0.956 . S
H3611 C3598 0.961 . S
H3612 C3598 0.961 . S
H3613 C3599 0.958 . S
H3614 C3599 0.961 . S
H3615 C3599 0.960 . S
C3616 C3617 1.391 . S
C3616 C3618 1.394 . S
C3616 H3632 0.931 . S
C3617 C3616 1.391 . S
C3617 C3621 1.376 . S
C3618 C3616 1.394 . S
C3618 C3619 1.369 . S
C3618 C3622 1.531 . S
C3619 C3618 1.369 . S
C3619 C3620 1.410 . S
C3619 C3627 1.503 . S
C3620 C3619 1.410 . S
C3620 C3621 1.392 . S
C3620 C3623 1.511 . S
C3621 C3617 1.376 . S
C3621 C3620 1.392 . S
C3621 H3633 0.929 . S
C3622 C3618 1.531 . S
C3622 H3634 0.960 . S
C3622 H3635 0.962 . S
C3622 H3636 0.960 . S
C3623 C3620 1.511 . S
C3623 H3637 0.961 . S
C3623 H3638 0.961 . S
C3623 H3639 0.961 . S
C3624 C3625 1.370 . S
C3624 C3626 1.363 . S
C3624 H3640 0.931 . S
C3625 C3624 1.370 . S
C3625 C3629 1.408 . S
C3626 C3624 1.363 . S
C3626 C3627 1.370 . S
C3626 C3630 1.524 . S
C3627 C3619 1.503 . S
C3627 C3626 1.370 . S
C3627 C3628 1.403 . S
C3628 C3627 1.403 . S
C3628 C3629 1.404 . S
C3628 C3631 1.539 . S
C3629 C3625 1.408 . S
C3629 C3628 1.404 . S
C3629 H3641 0.930 . S
C3630 C3626 1.524 . S
C3630 H3642 0.956 . S
C3630 H3643 0.961 . S
C3630 H3644 0.961 . S
C3631 C3628 1.539 . S
C3631 H3645 0.958 . S
C3631 H3646 0.961 . S
C3631 H3647 0.960 . S
H3632 C3616 0.931 . S
H3633 C3621 0.929 . S
H3634 C3622 0.960 . S
H3635 C3622 0.962 . S
H3636 C3622 0.960 . S
H3637 C3623 0.961 . S
H3638 C3623 0.961 . S
H3639 C3623 0.961 . S
H3640 C3624 0.931 . S
H3641 C3629 0.930 . S
H3642 C3630 0.956 . S
H3643 C3630 0.961 . S
H3644 C3630 0.961 . S
H3645 C3631 0.958 . S
H3646 C3631 0.961 . S
H3647 C3631 0.960 . S
C3648 C3649 1.391 . S
C3648 C3650 1.394 . S
C3648 H3664 0.931 . S
C3649 C3648 1.391 . S
C3649 C3653 1.376 . S
C3650 C3648 1.394 . S
C3650 C3651 1.369 . S
C3650 C3654 1.531 . S
C3651 C3650 1.369 . S
C3651 C3652 1.410 . S
C3651 C3659 1.503 . S
C3652 C3651 1.410 . S
C3652 C3653 1.392 . S
C3652 C3655 1.511 . S
C3653 C3649 1.376 . S
C3653 C3652 1.392 . S
C3653 H3665 0.929 . S
C3654 C3650 1.531 . S
C3654 H3666 0.960 . S
C3654 H3667 0.962 . S
C3654 H3668 0.960 . S
C3655 C3652 1.511 . S
C3655 H3669 0.961 . S
C3655 H3670 0.961 . S
C3655 H3671 0.961 . S
C3656 C3657 1.370 . S
C3656 C3658 1.363 . S
C3656 H3672 0.931 . S
C3657 C3656 1.370 . S
C3657 C3661 1.408 . S
C3658 C3656 1.363 . S
C3658 C3659 1.370 . S
C3658 C3662 1.524 . S
C3659 C3651 1.503 . S
C3659 C3658 1.370 . S
C3659 C3660 1.403 . S
C3660 C3659 1.403 . S
C3660 C3661 1.404 . S
C3660 C3663 1.539 . S
C3661 C3657 1.408 . S
C3661 C3660 1.404 . S
C3661 H3673 0.930 . S
C3662 C3658 1.524 . S
C3662 H3674 0.956 . S
C3662 H3675 0.961 . S
C3662 H3676 0.961 . S
C3663 C3660 1.539 . S
C3663 H3677 0.958 . S
C3663 H3678 0.961 . S
C3663 H3679 0.960 . S
H3664 C3648 0.931 . S
H3665 C3653 0.929 . S
H3666 C3654 0.960 . S
H3667 C3654 0.962 . S
H3668 C3654 0.960 . S
H3669 C3655 0.961 . S
H3670 C3655 0.961 . S
H3671 C3655 0.961 . S
H3672 C3656 0.931 . S
H3673 C3661 0.930 . S
H3674 C3662 0.956 . S
H3675 C3662 0.961 . S
H3676 C3662 0.961 . S
H3677 C3663 0.958 . S
H3678 C3663 0.961 . S
H3679 C3663 0.960 . S
C3680 C3681 1.391 . S
C3680 C3682 1.394 . S
C3680 H3696 0.931 . S
C3681 C3680 1.391 . S
C3681 C3685 1.376 . S
C3682 C3680 1.394 . S
C3682 C3683 1.369 . S
C3682 C3686 1.531 . S
C3683 C3682 1.369 . S
C3683 C3684 1.410 . S
C3683 C3691 1.503 . S
C3684 C3683 1.410 . S
C3684 C3685 1.392 . S
C3684 C3687 1.511 . S
C3685 C3681 1.376 . S
C3685 C3684 1.392 . S
C3685 H3697 0.929 . S
C3686 C3682 1.531 . S
C3686 H3698 0.960 . S
C3686 H3699 0.962 . S
C3686 H3700 0.960 . S
C3687 C3684 1.511 . S
C3687 H3701 0.961 . S
C3687 H3702 0.961 . S
C3687 H3703 0.961 . S
C3688 C3689 1.370 . S
C3688 C3690 1.363 . S
C3688 H3704 0.931 . S
C3689 C3688 1.370 . S
C3689 C3693 1.408 . S
C3690 C3688 1.363 . S
C3690 C3691 1.370 . S
C3690 C3694 1.524 . S
C3691 C3683 1.503 . S
C3691 C3690 1.370 . S
C3691 C3692 1.403 . S
C3692 C3691 1.403 . S
C3692 C3693 1.404 . S
C3692 C3695 1.539 . S
C3693 C3689 1.408 . S
C3693 C3692 1.404 . S
C3693 H3705 0.930 . S
C3694 C3690 1.524 . S
C3694 H3706 0.956 . S
C3694 H3707 0.961 . S
C3694 H3708 0.961 . S
C3695 C3692 1.539 . S
C3695 H3709 0.958 . S
C3695 H3710 0.961 . S
C3695 H3711 0.960 . S
H3696 C3680 0.931 . S
H3697 C3685 0.929 . S
H3698 C3686 0.960 . S
H3699 C3686 0.962 . S
H3700 C3686 0.960 . S
H3701 C3687 0.961 . S
H3702 C3687 0.961 . S
H3703 C3687 0.961 . S
H3704 C3688 0.931 . S
H3705 C3693 0.930 . S
H3706 C3694 0.956 . S
H3707 C3694 0.961 . S
H3708 C3694 0.961 . S
H3709 C3695 0.958 . S
H3710 C3695 0.961 . S
H3711 C3695 0.960 . S
C3712 C3713 1.391 . S
C3712 C3714 1.394 . S
C3712 H3728 0.931 . S
C3713 C3712 1.391 . S
C3713 C3717 1.376 . S
C3714 C3712 1.394 . S
C3714 C3715 1.369 . S
C3714 C3718 1.531 . S
C3715 C3714 1.369 . S
C3715 C3716 1.410 . S
C3715 C3723 1.503 . S
C3716 C3715 1.410 . S
C3716 C3717 1.392 . S
C3716 C3719 1.511 . S
C3717 C3713 1.376 . S
C3717 C3716 1.392 . S
C3717 H3729 0.929 . S
C3718 C3714 1.531 . S
C3718 H3730 0.960 . S
C3718 H3731 0.962 . S
C3718 H3732 0.960 . S
C3719 C3716 1.511 . S
C3719 H3733 0.961 . S
C3719 H3734 0.961 . S
C3719 H3735 0.961 . S
C3720 C3721 1.370 . S
C3720 C3722 1.363 . S
C3720 H3736 0.931 . S
C3721 C3720 1.370 . S
C3721 C3725 1.408 . S
C3722 C3720 1.363 . S
C3722 C3723 1.370 . S
C3722 C3726 1.524 . S
C3723 C3715 1.503 . S
C3723 C3722 1.370 . S
C3723 C3724 1.403 . S
C3724 C3723 1.403 . S
C3724 C3725 1.404 . S
C3724 C3727 1.539 . S
C3725 C3721 1.408 . S
C3725 C3724 1.404 . S
C3725 H3737 0.930 . S
C3726 C3722 1.524 . S
C3726 H3738 0.956 . S
C3726 H3739 0.961 . S
C3726 H3740 0.961 . S
C3727 C3724 1.539 . S
C3727 H3741 0.958 . S
C3727 H3742 0.961 . S
C3727 H3743 0.960 . S
H3728 C3712 0.931 . S
H3729 C3717 0.929 . S
H3730 C3718 0.960 . S
H3731 C3718 0.962 . S
H3732 C3718 0.960 . S
H3733 C3719 0.961 . S
H3734 C3719 0.961 . S
H3735 C3719 0.961 . S
H3736 C3720 0.931 . S
H3737 C3725 0.930 . S
H3738 C3726 0.956 . S
H3739 C3726 0.961 . S
H3740 C3726 0.961 . S
H3741 C3727 0.958 . S
H3742 C3727 0.961 . S
H3743 C3727 0.960 . S
C673 C398 1.051 . S
C681 C6 1.068 . S
C705 C20 1.107 . S
C713 C412 1.092 . S
C737 C426 1.059 . S
C745 C34 1.071 . S
C769 C48 1.108 . S
C777 C440 1.092 . S
C801 C342 1.103 . S
C809 C62 1.092 . S
C833 C76 1.052 . S
C841 C356 1.069 . S
C865 C370 1.107 . S
C873 C90 1.092 . S
C897 C104 1.048 . S
C905 C384 1.068 . S
C929 C538 1.107 . S
C937 C118 1.092 . S
C961 C552 1.099 . S
C969 C132 1.091 . S
C993 C510 1.106 . S
C1001 C146 1.093 . S
C1025 C160 1.066 . S
C1033 C524 1.074 . S
C1057 C482 1.056 . S
C1065 C174 1.070 . S
C1089 C496 1.049 . S
C1097 C188 1.068 . S
C1121 C202 1.079 . S
C1129 C454 1.083 . S
C1153 C468 1.107 . S
C1161 C216 1.093 . S
C1185 C230 1.048 . S
C1193 C636 1.069 . S
C1217 C608 1.097 . S
C1225 C244 1.086 . S
C1249 C622 1.048 . S
C1257 C258 1.068 . S
C1281 C580 1.089 . S
C1289 C272 1.083 . S
C1313 C594 1.105 . S
C1321 C286 1.091 . S
C1345 C300 1.056 . S
C1353 C566 1.072 . S
C1377 C314 1.060 . S
C1385 C664 1.071 . S
C1409 C650 1.055 . S
C1417 C328 1.070 . S
C1441 C105 1.523 . S
C1449 C7 1.557 . S
C1473 C63 1.526 . S
C1481 C21 1.554 . S
C1505 C77 1.526 . S
C1513 C35 1.569 . S
C1537 C91 1.596 . S
C1545 C49 1.587 . S
C1569 C287 1.609 . S
C1577 C119 1.580 . S
C1601 C245 1.582 . S
C1609 C133 1.588 . S
C1633 C259 1.605 . S
C1641 C147 1.584 . S
C1665 C273 1.592 . S
C1673 C161 1.561 . S
C1697 C329 1.565 . S
C1705 C175 1.552 . S
C1729 C301 1.529 . S
C1737 C189 1.572 . S
C1761 C203 1.545 . S
C1769 C315 1.580 . S
C1793 C231 1.587 . S
C1801 C217 1.588 . S
C1825 C441 1.603 . S
C1833 C343 1.581 . S
C1857 C399 1.554 . S
C1865 C357 1.586 . S
C1889 C371 1.521 . S
C1897 C413 1.567 . S
C1921 C385 1.600 . S
C1929 C427 1.582 . S
C1953 C455 1.605 . S
C1961 C623 1.579 . S
C1985 C469 1.523 . S
C1993 C581 1.572 . S
C2017 C595 1.546 . S
C2025 C483 1.552 . S
C2049 C609 1.558 . S
C2057 C497 1.551 . S
C2081 C665 1.570 . S
C2089 C511 1.551 . S
C2113 C637 1.535 . S
C2121 C525 1.554 . S
C2145 C651 1.608 . S
C2153 C539 1.577 . S
C2177 C553 1.596 . S
C2185 C567 1.558 . S
C2209 C8 1.265 . S
C2217 C121 1.221 . S
C2241 C135 1.188 . S
C2249 C22 1.260 . S
C2273 C149 1.236 . S
C2281 C36 1.263 . S
C2305 C163 1.253 . S
C2313 C50 1.266 . S
C2337 C64 1.248 . S
C2345 C177 1.213 . S
C2369 C191 1.250 . S
C2377 C78 1.271 . S
C2401 C92 1.265 . S
C2409 C205 1.240 . S
C2433 C219 1.260 . S
C2441 C106 1.270 . S
C2465 C233 1.226 . S
C2473 C120 1.269 . S
C2497 C331 1.216 . S
C2505 C134 1.267 . S
C2529 C148 1.272 . S
C2537 C303 1.229 . S
C2561 C162 1.253 . S
C2569 C317 1.213 . S
C2593 C176 1.274 . S
C2601 C247 1.243 . S
C2625 C190 1.250 . S
C2633 C261 1.224 . S
C2657 C204 1.276 . S
C2665 C275 1.239 . S
C2689 C218 1.276 . S
C2697 C289 1.239 . S
C2721 C232 1.247 . S
C2729 C9 1.216 . S
C2753 C246 1.276 . S
C2761 C65 1.236 . S
C2785 C260 1.276 . S
C2793 C79 1.241 . S
C2817 C274 1.265 . S
C2825 C93 1.240 . S
C2849 C288 1.273 . S
C2857 C107 1.230 . S
C2881 C302 1.247 . S
C2889 C37 1.216 . S
C2913 C51 1.260 . S
C2921 C316 1.268 . S
C2945 C23 1.215 . S
C2953 C330 1.267 . S
C2977 C457 1.219 . S
C2985 C344 1.266 . S
C3009 C471 1.247 . S
C3017 C358 1.270 . S
C3041 C485 1.244 . S
C3049 C372 1.270 . S
C3073 C499 1.190 . S
C3081 C386 1.261 . S
C3105 C513 1.262 . S
C3113 C400 1.270 . S
C3137 C414 1.273 . S
C3145 C527 1.236 . S
C3169 C541 1.243 . S
C3177 C428 1.266 . S
C3201 C442 1.272 . S
C3209 C555 1.242 . S
C3233 C569 1.236 . S
C3241 C456 1.269 . S
C3265 C470 1.272 . S
C3273 C667 1.242 . S
C3297 C484 1.276 . S
C3305 C639 1.242 . S
C3329 C653 1.217 . S
C3337 C498 1.266 . S
C3361 C583 1.215 . S
C3369 C512 1.261 . S
C3393 C526 1.248 . S
C3401 C597 1.216 . S
C3425 C540 1.275 . S
C3433 C611 1.243 . S
C3457 C625 1.211 . S
C3465 C554 1.261 . S
C3489 C345 1.262 . S
C3497 C568 1.270 . S
C3521 C401 1.238 . S
C3529 C582 1.269 . S
C3553 C415 1.196 . S
C3561 C596 1.262 . S
C3585 C610 1.248 . S
C3593 C429 1.213 . S
C3617 C443 1.195 . S
C3625 C624 1.259 . S
C3649 C373 1.262 . S
C3657 C638 1.271 . S
C3681 C652 1.250 . S
C3689 C387 1.213 . S
C3713 C359 1.233 . S
C3721 C666 1.264 . S
