# Generated by pormake.
# Topology wjb, (6)-cn, num edge types: 1
# Building blocks:
#     Node 0, Type 0, BuildingBlock: IZENUY_clean_sbu_0, # of connection points: 6
#     Node 1, Type 0, BuildingBlock: IZENUY_clean_sbu_0, # of connection points: 6
#     Node 2, Type 0, BuildingBlock: IZENUY_clean_sbu_0, # of connection points: 6
#     Node 3, Type 0, BuildingBlock: IZENUY_clean_sbu_0, # of connection points: 6
#     Node 4, Type 0, BuildingBlock: IZENUY_clean_sbu_0, # of connection points: 6
#     Node 5, Type 0, BuildingBlock: IZENUY_clean_sbu_0, # of connection points: 6
#     Node 6, Type 0, BuildingBlock: IZENUY_clean_sbu_0, # of connection points: 6
#     Node 7, Type 0, BuildingBlock: IZENUY_clean_sbu_0, # of connection points: 6
#     Node 8, Type 0, BuildingBlock: IZENUY_clean_sbu_0, # of connection points: 6
#     Node 9, Type 0, BuildingBlock: IZENUY_clean_sbu_0, # of connection points: 6
#     Node 10, Type 0, BuildingBlock: IZENUY_clean_sbu_0, # of connection points: 6
#     Node 11, Type 0, BuildingBlock: IZENUY_clean_sbu_0, # of connection points: 6
#     Node 12, Type 0, BuildingBlock: IZENUY_clean_sbu_0, # of connection points: 6
#     Node 13, Type 0, BuildingBlock: IZENUY_clean_sbu_0, # of connection points: 6
#     Node 14, Type 0, BuildingBlock: IZENUY_clean_sbu_0, # of connection points: 6
#     Node 15, Type 0, BuildingBlock: IZENUY_clean_sbu_0, # of connection points: 6
#     Node 16, Type 0, BuildingBlock: IZENUY_clean_sbu_0, # of connection points: 6
#     Node 17, Type 0, BuildingBlock: IZENUY_clean_sbu_0, # of connection points: 6
#     Node 18, Type 0, BuildingBlock: IZENUY_clean_sbu_0, # of connection points: 6
#     Node 19, Type 0, BuildingBlock: IZENUY_clean_sbu_0, # of connection points: 6
#     Node 20, Type 0, BuildingBlock: IZENUY_clean_sbu_0, # of connection points: 6
#     Node 21, Type 0, BuildingBlock: IZENUY_clean_sbu_0, # of connection points: 6
#     Node 22, Type 0, BuildingBlock: IZENUY_clean_sbu_0, # of connection points: 6
#     Node 23, Type 0, BuildingBlock: IZENUY_clean_sbu_0, # of connection points: 6
#     Edge 24, Type (0, 0), BuildingBlock: KIFKEQ_clean_linker_1, # of connection points: 2
#     Edge 25, Type (0, 0), BuildingBlock: KIFKEQ_clean_linker_1, # of connection points: 2
#     Edge 26, Type (0, 0), BuildingBlock: KIFKEQ_clean_linker_1, # of connection points: 2
#     Edge 27, Type (0, 0), BuildingBlock: KIFKEQ_clean_linker_1, # of connection points: 2
#     Edge 28, Type (0, 0), BuildingBlock: KIFKEQ_clean_linker_1, # of connection points: 2
#     Edge 29, Type (0, 0), BuildingBlock: KIFKEQ_clean_linker_1, # of connection points: 2
#     Edge 30, Type (0, 0), BuildingBlock: KIFKEQ_clean_linker_1, # of connection points: 2
#     Edge 31, Type (0, 0), BuildingBlock: KIFKEQ_clean_linker_1, # of connection points: 2
#     Edge 32, Type (0, 0), BuildingBlock: KIFKEQ_clean_linker_1, # of connection points: 2
#     Edge 33, Type (0, 0), BuildingBlock: KIFKEQ_clean_linker_1, # of connection points: 2
#     Edge 34, Type (0, 0), BuildingBlock: KIFKEQ_clean_linker_1, # of connection points: 2
#     Edge 35, Type (0, 0), BuildingBlock: KIFKEQ_clean_linker_1, # of connection points: 2
#     Edge 36, Type (0, 0), BuildingBlock: KIFKEQ_clean_linker_1, # of connection points: 2
#     Edge 37, Type (0, 0), BuildingBlock: KIFKEQ_clean_linker_1, # of connection points: 2
#     Edge 38, Type (0, 0), BuildingBlock: KIFKEQ_clean_linker_1, # of connection points: 2
#     Edge 39, Type (0, 0), BuildingBlock: KIFKEQ_clean_linker_1, # of connection points: 2
#     Edge 40, Type (0, 0), BuildingBlock: KIFKEQ_clean_linker_1, # of connection points: 2
#     Edge 41, Type (0, 0), BuildingBlock: KIFKEQ_clean_linker_1, # of connection points: 2
#     Edge 42, Type (0, 0), BuildingBlock: KIFKEQ_clean_linker_1, # of connection points: 2
#     Edge 43, Type (0, 0), BuildingBlock: KIFKEQ_clean_linker_1, # of connection points: 2
#     Edge 44, Type (0, 0), BuildingBlock: KIFKEQ_clean_linker_1, # of connection points: 2
#     Edge 45, Type (0, 0), BuildingBlock: KIFKEQ_clean_linker_1, # of connection points: 2
#     Edge 46, Type (0, 0), BuildingBlock: KIFKEQ_clean_linker_1, # of connection points: 2
#     Edge 47, Type (0, 0), BuildingBlock: KIFKEQ_clean_linker_1, # of connection points: 2
#     Edge 48, Type (0, 0), BuildingBlock: KIFKEQ_clean_linker_1, # of connection points: 2
#     Edge 49, Type (0, 0), BuildingBlock: KIFKEQ_clean_linker_1, # of connection points: 2
#     Edge 50, Type (0, 0), BuildingBlock: KIFKEQ_clean_linker_1, # of connection points: 2
#     Edge 51, Type (0, 0), BuildingBlock: KIFKEQ_clean_linker_1, # of connection points: 2
#     Edge 52, Type (0, 0), BuildingBlock: KIFKEQ_clean_linker_1, # of connection points: 2
#     Edge 53, Type (0, 0), BuildingBlock: KIFKEQ_clean_linker_1, # of connection points: 2
#     Edge 54, Type (0, 0), BuildingBlock: KIFKEQ_clean_linker_1, # of connection points: 2
#     Edge 55, Type (0, 0), BuildingBlock: KIFKEQ_clean_linker_1, # of connection points: 2
#     Edge 56, Type (0, 0), BuildingBlock: KIFKEQ_clean_linker_1, # of connection points: 2
#     Edge 57, Type (0, 0), BuildingBlock: KIFKEQ_clean_linker_1, # of connection points: 2
#     Edge 58, Type (0, 0), BuildingBlock: KIFKEQ_clean_linker_1, # of connection points: 2
#     Edge 59, Type (0, 0), BuildingBlock: KIFKEQ_clean_linker_1, # of connection points: 2
#     Edge 60, Type (0, 0), BuildingBlock: KIFKEQ_clean_linker_1, # of connection points: 2
#     Edge 61, Type (0, 0), BuildingBlock: KIFKEQ_clean_linker_1, # of connection points: 2
#     Edge 62, Type (0, 0), BuildingBlock: KIFKEQ_clean_linker_1, # of connection points: 2
#     Edge 63, Type (0, 0), BuildingBlock: KIFKEQ_clean_linker_1, # of connection points: 2
#     Edge 64, Type (0, 0), BuildingBlock: KIFKEQ_clean_linker_1, # of connection points: 2
#     Edge 65, Type (0, 0), BuildingBlock: KIFKEQ_clean_linker_1, # of connection points: 2
#     Edge 66, Type (0, 0), BuildingBlock: KIFKEQ_clean_linker_1, # of connection points: 2
#     Edge 67, Type (0, 0), BuildingBlock: KIFKEQ_clean_linker_1, # of connection points: 2
#     Edge 68, Type (0, 0), BuildingBlock: KIFKEQ_clean_linker_1, # of connection points: 2
#     Edge 69, Type (0, 0), BuildingBlock: KIFKEQ_clean_linker_1, # of connection points: 2
#     Edge 70, Type (0, 0), BuildingBlock: KIFKEQ_clean_linker_1, # of connection points: 2
#     Edge 71, Type (0, 0), BuildingBlock: KIFKEQ_clean_linker_1, # of connection points: 2
#     Edge 72, Type (0, 0), BuildingBlock: KIFKEQ_clean_linker_1, # of connection points: 2
#     Edge 73, Type (0, 0), BuildingBlock: KIFKEQ_clean_linker_1, # of connection points: 2
#     Edge 74, Type (0, 0), BuildingBlock: KIFKEQ_clean_linker_1, # of connection points: 2
#     Edge 75, Type (0, 0), BuildingBlock: KIFKEQ_clean_linker_1, # of connection points: 2
#     Edge 76, Type (0, 0), BuildingBlock: KIFKEQ_clean_linker_1, # of connection points: 2
#     Edge 77, Type (0, 0), BuildingBlock: KIFKEQ_clean_linker_1, # of connection points: 2
#     Edge 78, Type (0, 0), BuildingBlock: KIFKEQ_clean_linker_1, # of connection points: 2
#     Edge 79, Type (0, 0), BuildingBlock: KIFKEQ_clean_linker_1, # of connection points: 2
#     Edge 80, Type (0, 0), BuildingBlock: KIFKEQ_clean_linker_1, # of connection points: 2
#     Edge 81, Type (0, 0), BuildingBlock: KIFKEQ_clean_linker_1, # of connection points: 2
#     Edge 82, Type (0, 0), BuildingBlock: KIFKEQ_clean_linker_1, # of connection points: 2
#     Edge 83, Type (0, 0), BuildingBlock: KIFKEQ_clean_linker_1, # of connection points: 2
#     Edge 84, Type (0, 0), BuildingBlock: KIFKEQ_clean_linker_1, # of connection points: 2
#     Edge 85, Type (0, 0), BuildingBlock: KIFKEQ_clean_linker_1, # of connection points: 2
#     Edge 86, Type (0, 0), BuildingBlock: KIFKEQ_clean_linker_1, # of connection points: 2
#     Edge 87, Type (0, 0), BuildingBlock: KIFKEQ_clean_linker_1, # of connection points: 2
#     Edge 88, Type (0, 0), BuildingBlock: KIFKEQ_clean_linker_1, # of connection points: 2
#     Edge 89, Type (0, 0), BuildingBlock: KIFKEQ_clean_linker_1, # of connection points: 2
#     Edge 90, Type (0, 0), BuildingBlock: KIFKEQ_clean_linker_1, # of connection points: 2
#     Edge 91, Type (0, 0), BuildingBlock: KIFKEQ_clean_linker_1, # of connection points: 2
#     Edge 92, Type (0, 0), BuildingBlock: KIFKEQ_clean_linker_1, # of connection points: 2
#     Edge 93, Type (0, 0), BuildingBlock: KIFKEQ_clean_linker_1, # of connection points: 2
#     Edge 94, Type (0, 0), BuildingBlock: KIFKEQ_clean_linker_1, # of connection points: 2
#     Edge 95, Type (0, 0), BuildingBlock: KIFKEQ_clean_linker_1, # of connection points: 2
# Relax obj value: 0.470
# Max RMSD: 0.193
# Mean RMSD: 0.193
data_MOF--net-wjb--node1-IZENUY_clean_sbu_0--edge1-KIFKEQ_clean_linker_1
_symmetry_space_group_name_H-M    P1
_symmetry_Int_Tables_number       1
_symmetry_cell_setting            triclinic
loop_
_symmetry_equiv_pos_as_xyz
'x, y, z'
_cell_length_a     52.807526
_cell_length_b     52.784328
_cell_length_c     56.155982
_cell_angle_alpha  90.072474
_cell_angle_beta   90.002468
_cell_angle_gamma 120.06139
loop_
_atom_site_label
_atom_site_type_symbol
_atom_site_fract_x
_atom_site_fract_y
_atom_site_fract_z
_atom_type_partial_charge
Fe0 Fe 0.16637 0.46869 0.12216 0.0
Fe1 Fe 0.14186 0.51089 0.12321 0.0
O2 O 0.16839 0.50204 0.11343 0.0
Fe3 Fe 0.19726 0.52693 0.09497 0.0
O4 O 0.22411 0.51765 0.10613 0.0
O5 O 0.20236 0.48816 0.13627 0.0
O6 O 0.15083 0.4677 0.15179 0.0
C7 C 0.1508 0.48794 0.16403 0.0
C8 C 0.18456 0.47558 0.0735 0.0
O9 O 0.15082 0.50935 0.15405 0.0
C10 C 0.14881 0.53044 0.07761 0.0
O11 O 0.13012 0.44683 0.1089 0.0
O12 O 0.11183 0.47303 0.12356 0.0
O13 O 0.18598 0.50005 0.07135 0.0
O14 O 0.18192 0.46415 0.09395 0.0
C15 C 0.19491 0.56528 0.12615 0.0
O16 O 0.13107 0.51308 0.09281 0.0
O17 O 0.17605 0.54116 0.08027 0.0
C18 C 0.10856 0.45037 0.11307 0.0
O19 O 0.16725 0.55064 0.12467 0.0
O20 O 0.21025 0.55529 0.1176 0.0
C21 C 0.22531 0.50679 0.12579 0.0
Fe22 Fe 0.66404 0.18128 0.58768 0.0
Fe23 Fe 0.69717 0.16162 0.62032 0.0
O24 O 0.66365 0.15816 0.61048 0.0
Fe25 Fe 0.63003 0.13216 0.62356 0.0
O26 O 0.61282 0.15497 0.62088 0.0
O27 O 0.64815 0.19687 0.60716 0.0
O28 O 0.69976 0.21206 0.59569 0.0
C29 C 0.71151 0.21902 0.61601 0.0
C30 C 0.61296 0.12752 0.57723 0.0
O31 O 0.71072 0.19958 0.62964 0.0
C32 C 0.66169 0.10204 0.61925 0.0
O33 O 0.68012 0.16704 0.56688 0.0
O34 O 0.71539 0.17307 0.59104 0.0
O35 O 0.61493 0.11416 0.59509 0.0
O36 O 0.62828 0.15501 0.57568 0.0
C37 C 0.66505 0.15162 0.66306 0.0
O38 O 0.68509 0.12382 0.61178 0.0
O39 O 0.64161 0.10517 0.62867 0.0
C40 C 0.70506 0.16987 0.57011 0.0
O41 O 0.68525 0.15106 0.65132 0.0
O42 O 0.6423 0.14813 0.65279 0.0
C43 C 0.62416 0.18236 0.618 0.0
Fe44 Fe 0.47445 0.66179 0.0869 0.0
Fe45 Fe 0.5288 0.6966 0.11832 0.0
O46 O 0.49967 0.66256 0.10789 0.0
Fe47 Fe 0.49546 0.62891 0.11827 0.0
O48 O 0.45937 0.61747 0.13052 0.0
O49 O 0.44335 0.62771 0.09793 0.0
O50 O 0.46311 0.68067 0.10706 0.0
C51 C 0.47969 0.70524 0.11645 0.0
C52 C 0.48218 0.61825 0.06918 0.0
O53 O 0.50717 0.71544 0.11762 0.0
C54 C 0.55468 0.66094 0.11166 0.0
O55 O 0.5003 0.69573 0.07196 0.0
O56 O 0.54297 0.70919 0.08837 0.0
O57 O 0.47982 0.60873 0.09026 0.0
O58 O 0.48461 0.64289 0.06548 0.0
C59 C 0.51358 0.66474 0.15973 0.0
O60 O 0.55513 0.68319 0.12087 0.0
O61 O 0.53088 0.6382 0.10661 0.0
C62 C 0.52788 0.70992 0.07123 0.0
O63 O 0.5171 0.68724 0.149 0.0
O64 O 0.51047 0.64272 0.14816 0.0
C65 C 0.43862 0.616 0.11831 0.0
Fe66 Fe 0.80281 0.4737 0.60031 0.0
Fe67 Fe 0.83298 0.53188 0.62743 0.0
O68 O 0.83151 0.49886 0.61871 0.0
Fe69 Fe 0.85858 0.4908 0.62848 0.0
O70 O 0.83396 0.45081 0.6295 0.0
O71 O 0.79053 0.44525 0.62277 0.0
O72 O 0.77552 0.48221 0.61185 0.0
C73 C 0.77444 0.4931 0.63159 0.0
C74 C 0.85203 0.47151 0.58289 0.0
O75 O 0.79738 0.51203 0.6419 0.0
C76 C 0.89078 0.55165 0.61901 0.0
O77 O 0.81341 0.50052 0.57678 0.0
O78 O 0.81674 0.53595 0.59959 0.0
O79 O 0.86968 0.48915 0.59807 0.0
O80 O 0.82472 0.46043 0.58546 0.0
C81 C 0.84938 0.51337 0.66908 0.0
O82 O 0.86877 0.55389 0.61368 0.0
O83 O 0.88799 0.52917 0.62946 0.0
C84 C 0.81455 0.52484 0.5791 0.0
O85 O 0.84921 0.53344 0.65679 0.0
O86 O 0.84913 0.49178 0.65921 0.0
C87 C 0.80632 0.4355 0.63082 0.0
Fe88 Fe 0.37142 0.87051 0.12433 0.0
Fe89 Fe 0.338 0.82075 0.08875 0.0
O90 O 0.33785 0.84331 0.1118 0.0
Fe91 Fe 0.30399 0.83819 0.12248 0.0
O92 O 0.31688 0.8492 0.15332 0.0
O93 O 0.36076 0.85406 0.15352 0.0
O94 O 0.39064 0.84971 0.12032 0.0
C95 C 0.38004 0.82237 0.11803 0.0
C96 C 0.33711 0.89791 0.12162 0.0
O97 O 0.35594 0.80682 0.10767 0.0
C98 C 0.29446 0.82897 0.07233 0.0
O99 O 0.38454 0.88893 0.09584 0.0
O100 O 0.37248 0.8486 0.07585 0.0
O101 O 0.31419 0.87556 0.11413 0.0
O102 O 0.35802 0.89585 0.13062 0.0
C103 C 0.29213 0.78161 0.11789 0.0
O104 O 0.31983 0.83323 0.0686 0.0
O105 O 0.28477 0.8258 0.09349 0.0
C106 C 0.38554 0.87618 0.07717 0.0
O107 O 0.30356 0.78876 0.09748 0.0
O108 O 0.29228 0.80066 0.13163 0.0
C109 C 0.33802 0.8496 0.16443 0.0
Fe110 Fe 0.52776 0.33625 0.59484 0.0
Fe111 Fe 0.47042 0.30294 0.62284 0.0
O112 O 0.50139 0.33653 0.61393 0.0
Fe113 Fe 0.50639 0.37061 0.62406 0.0
O114 O 0.54119 0.38062 0.63814 0.0
O115 O 0.55875 0.36957 0.60696 0.0
O116 O 0.53609 0.31636 0.61649 0.0
C117 C 0.51774 0.2919 0.62505 0.0
C118 C 0.5234 0.38113 0.57551 0.0
O119 O 0.49043 0.28246 0.62353 0.0
C120 C 0.44766 0.34105 0.61455 0.0
O121 O 0.50219 0.3028 0.57893 0.0
O122 O 0.45862 0.29165 0.59204 0.0
O123 O 0.52437 0.39067 0.59646 0.0
O124 O 0.52065 0.35624 0.57226 0.0
C125 C 0.48464 0.3342 0.66491 0.0
O126 O 0.44523 0.31793 0.62377 0.0
O127 O 0.47239 0.36308 0.61066 0.0
C128 C 0.47482 0.29022 0.57612 0.0
O129 O 0.48002 0.31127 0.65411 0.0
O130 O 0.48914 0.35673 0.65338 0.0
C131 C 0.56239 0.38139 0.6272 0.0
Fe132 Fe 0.52878 0.83749 0.88872 0.0
Fe133 Fe 0.49584 0.87209 0.88793 0.0
O134 O 0.49991 0.84287 0.89884 0.0
Fe135 Fe 0.4746 0.81887 0.92002 0.0
O136 O 0.46248 0.78841 0.89972 0.0
O137 O 0.50659 0.79702 0.88995 0.0
O138 O 0.51706 0.83459 0.85798 0.0
C139 C 0.51308 0.85303 0.84684 0.0
C140 C 0.52765 0.82362 0.93582 0.0
O141 O 0.51015 0.87229 0.85798 0.0
C142 C 0.48375 0.87082 0.93726 0.0
O143 O 0.55553 0.87718 0.88573 0.0
O144 O 0.5315 0.89854 0.89901 0.0
O145 O 0.50007 0.81007 0.93478 0.0
O146 O 0.54287 0.83953 0.91878 0.0
C147 C 0.43868 0.82954 0.88928 0.0
O148 O 0.4811 0.87761 0.91609 0.0
O149 O 0.48572 0.84836 0.94124 0.0
C150 C 0.55521 0.8993 0.8944 0.0
O151 O 0.45945 0.84711 0.87616 0.0
O152 O 0.44381 0.82277 0.90957 0.0
C153 C 0.47896 0.78024 0.89041 0.0
Fe154 Fe 0.70359 0.53594 0.38782 0.0
Fe155 Fe 0.63689 0.49484 0.38583 0.0
O156 O 0.67146 0.50461 0.39821 0.0
Fe157 Fe 0.67403 0.48307 0.42095 0.0
O158 O 0.71014 0.48962 0.41193 0.0
O159 O 0.71933 0.51367 0.37816 0.0
O160 O 0.69009 0.53321 0.35712 0.0
C161 C 0.67059 0.51132 0.34575 0.0
C162 C 0.71368 0.53665 0.43773 0.0
O163 O 0.64892 0.49106 0.35647 0.0
C164 C 0.62317 0.48478 0.43311 0.0
O165 O 0.68948 0.55981 0.39681 0.0
O166 O 0.64631 0.53274 0.38001 0.0
O167 O 0.68955 0.51376 0.44128 0.0
O168 O 0.72318 0.54424 0.41667 0.0
C169 C 0.63379 0.44012 0.39208 0.0
O170 O 0.62244 0.49783 0.41453 0.0
O171 O 0.63862 0.47272 0.43414 0.0
C172 C 0.66544 0.55661 0.38936 0.0
O173 O 0.62143 0.4552 0.38939 0.0
O174 O 0.65847 0.45094 0.40203 0.0
C175 C 0.72311 0.49703 0.39206 0.0
Fe176 Fe 0.13813 0.63385 0.88364 0.0
Fe177 Fe 0.19312 0.67052 0.91335 0.0
O178 O 0.16601 0.66856 0.89381 0.0
Fe179 Fe 0.16652 0.70096 0.88426 0.0
O180 O 0.15147 0.68624 0.85443 0.0
O181 O 0.15019 0.64389 0.85322 0.0
O182 O 0.1603 0.61609 0.88478 0.0
C183 C 0.18768 0.62673 0.88418 0.0
C184 C 0.10798 0.66418 0.89175 0.0
O185 O 0.20449 0.652 0.89226 0.0
C186 C 0.18435 0.713 0.9329 0.0
O187 O 0.12471 0.62197 0.91367 0.0
O188 O 0.16833 0.63643 0.92895 0.0
O189 O 0.13022 0.68847 0.89683 0.0
O190 O 0.11052 0.64477 0.88064 0.0
C191 C 0.22484 0.71804 0.88188 0.0
O192 O 0.18388 0.68912 0.93582 0.0
O193 O 0.18221 0.72144 0.91222 0.0
C194 C 0.1407 0.62253 0.93057 0.0
O195 O 0.22246 0.70495 0.9013 0.0
O196 O 0.20277 0.71577 0.87118 0.0
C197 C 0.15186 0.6658 0.84273 0.0
Fe198 Fe 0.52407 0.18335 0.4189 0.0
Fe199 Fe 0.47032 0.16555 0.38725 0.0
O200 O 0.49889 0.15974 0.39743 0.0
Fe201 Fe 0.50285 0.13037 0.38634 0.0
O202 O 0.53925 0.15527 0.37459 0.0
O203 O 0.5546 0.1794 0.40819 0.0
O204 O 0.53665 0.21404 0.39902 0.0
C205 C 0.52064 0.22243 0.38925 0.0
C206 C 0.51443 0.13106 0.43554 0.0
O207 O 0.49298 0.20598 0.38833 0.0
C208 C 0.44359 0.10383 0.39326 0.0
O209 O 0.49897 0.19251 0.43379 0.0
O210 O 0.45619 0.16407 0.41734 0.0
O211 O 0.51782 0.12485 0.41437 0.0
O212 O 0.51242 0.15345 0.43977 0.0
C213 C 0.48572 0.14944 0.34527 0.0
O214 O 0.44324 0.12589 0.38452 0.0
O215 O 0.46721 0.10419 0.39745 0.0
C216 C 0.47146 0.17975 0.43453 0.0
O217 O 0.48204 0.1681 0.35642 0.0
O218 O 0.48829 0.13001 0.35643 0.0
C219 C 0.55977 0.17382 0.38746 0.0
Fe220 Fe 0.30013 0.46593 0.88262 0.0
Fe221 Fe 0.3669 0.50655 0.881 0.0
O222 O 0.33234 0.49694 0.89334 0.0
Fe223 Fe 0.32969 0.51824 0.91633 0.0
O224 O 0.29387 0.51231 0.9069 0.0
O225 O 0.2854 0.48885 0.87279 0.0
O226 O 0.31386 0.46846 0.852 0.0
C227 C 0.33361 0.49016 0.84066 0.0
C228 C 0.28909 0.46497 0.9325 0.0
O229 O 0.35513 0.5104 0.85157 0.0
C230 C 0.38042 0.51611 0.92839 0.0
O231 O 0.31365 0.44173 0.89179 0.0
O232 O 0.3571 0.46839 0.87525 0.0
O233 O 0.31362 0.48727 0.93629 0.0
O234 O 0.27995 0.45775 0.91128 0.0
C235 C 0.37042 0.56159 0.88804 0.0
O236 O 0.38125 0.50342 0.90961 0.0
O237 O 0.36482 0.52798 0.92979 0.0
C238 C 0.33764 0.44462 0.88452 0.0
O239 O 0.38261 0.54639 0.88468 0.0
O240 O 0.34572 0.55061 0.8979 0.0
C241 C 0.28194 0.50576 0.88658 0.0
Fe242 Fe 0.86213 0.36601 0.38903 0.0
Fe243 Fe 0.80636 0.32754 0.41693 0.0
O244 O 0.83399 0.33065 0.39755 0.0
Fe245 Fe 0.83328 0.29854 0.38699 0.0
O246 O 0.83228 0.30851 0.35645 0.0
O247 O 0.86673 0.35476 0.35911 0.0
O248 O 0.83632 0.37546 0.37596 0.0
C249 C 0.81557 0.3748 0.38757 0.0
C250 C 0.89363 0.33832 0.39638 0.0
O251 O 0.80755 0.36114 0.40709 0.0
C252 C 0.81557 0.28216 0.43278 0.0
O253 O 0.86275 0.38348 0.41767 0.0
O254 O 0.83287 0.34645 0.44023 0.0
O255 O 0.87367 0.31525 0.38645 0.0
O256 O 0.8896 0.35927 0.4015 0.0
C257 C 0.77409 0.28515 0.38441 0.0
O258 O 0.79941 0.29329 0.43064 0.0
O259 O 0.83401 0.28578 0.41697 0.0
C260 C 0.85451 0.37193 0.43806 0.0
O261 O 0.77892 0.30857 0.3944 0.0
O262 O 0.79271 0.27659 0.38547 0.0
C263 C 0.85025 0.33234 0.34675 0.0
Fe264 Fe 0.80991 0.47936 0.91759 0.0
Fe265 Fe 0.83528 0.53629 0.889 0.0
O266 O 0.83716 0.50515 0.89861 0.0
Fe267 Fe 0.86627 0.49974 0.88951 0.0
O268 O 0.84162 0.46462 0.87566 0.0
O269 O 0.81185 0.44779 0.90627 0.0
O270 O 0.78216 0.47103 0.89539 0.0
C271 C 0.77665 0.48951 0.8862 0.0
C272 C 0.85892 0.48416 0.93796 0.0
O273 O 0.79474 0.51679 0.88788 0.0
C274 C 0.8956 0.55869 0.89852 0.0
O275 O 0.8025 0.50572 0.93262 0.0
O276 O 0.836 0.54874 0.91935 0.0
O277 O 0.86754 0.48211 0.91738 0.0
O278 O 0.83659 0.48665 0.94064 0.0
C279 C 0.85271 0.52128 0.8481 0.0
O280 O 0.87547 0.56104 0.88824 0.0
O281 O 0.89269 0.53399 0.90292 0.0
C282 C 0.81826 0.53307 0.93528 0.0
O283 O 0.83424 0.52607 0.85822 0.0
O284 O 0.87027 0.51654 0.86006 0.0
C285 C 0.82087 0.44364 0.8866 0.0
Fe286 Fe 0.30366 0.83299 0.38628 0.0
Fe287 Fe 0.37098 0.86234 0.38524 0.0
O288 O 0.33664 0.83532 0.39669 0.0
Fe289 Fe 0.33518 0.81042 0.41838 0.0
O290 O 0.30045 0.77998 0.40799 0.0
O291 O 0.28984 0.79567 0.37531 0.0
O292 O 0.3174 0.84591 0.35603 0.0
C293 C 0.33795 0.8457 0.34455 0.0
C294 C 0.29297 0.82068 0.43574 0.0
O295 O 0.36013 0.84826 0.35523 0.0
C296 C 0.3843 0.86392 0.4325 0.0
O297 O 0.31547 0.87011 0.39656 0.0
O298 O 0.35977 0.88969 0.38118 0.0
O299 O 0.31726 0.82228 0.43944 0.0
O300 O 0.28382 0.81949 0.41466 0.0
C301 C 0.37748 0.81244 0.38891 0.0
O302 O 0.38444 0.87827 0.41453 0.0
O303 O 0.36964 0.83629 0.43275 0.0
C304 C 0.33964 0.89229 0.39102 0.0
O305 O 0.38839 0.83986 0.38737 0.0
O306 O 0.35299 0.79681 0.39874 0.0
C307 C 0.28819 0.77499 0.38784 0.0
Fe308 Fe 0.50584 0.37315 0.88783 0.0
Fe309 Fe 0.52636 0.33989 0.91921 0.0
O310 O 0.50108 0.33934 0.89836 0.0
Fe311 Fe 0.47159 0.30531 0.88827 0.0
O312 O 0.48256 0.31421 0.85736 0.0
O313 O 0.49115 0.3595 0.85777 0.0
O314 O 0.54194 0.38416 0.87575 0.0
C315 C 0.56242 0.38544 0.88819 0.0
C316 C 0.44645 0.34168 0.89464 0.0
O317 O 0.55733 0.37413 0.90867 0.0
C318 C 0.47329 0.29194 0.93525 0.0
O319 O 0.52125 0.39301 0.91612 0.0
O320 O 0.51618 0.35858 0.94086 0.0
O321 O 0.44545 0.31892 0.88599 0.0
O322 O 0.47045 0.36442 0.89919 0.0
C323 C 0.52086 0.29719 0.88874 0.0
O324 O 0.5008 0.30566 0.93391 0.0
O325 O 0.45793 0.29304 0.91848 0.0
C326 C 0.51898 0.38343 0.93723 0.0
O327 O 0.53764 0.32145 0.8985 0.0
O328 O 0.49325 0.28647 0.88867 0.0
C329 C 0.48699 0.33694 0.84642 0.0
Fe330 Fe 0.16722 0.47043 0.38594 0.0
Fe331 Fe 0.13155 0.50228 0.38496 0.0
O332 O 0.16147 0.49921 0.39578 0.0
Fe333 Fe 0.18557 0.52527 0.41654 0.0
O334 O 0.21597 0.53691 0.39652 0.0
O335 O 0.20765 0.49299 0.38656 0.0
O336 O 0.16927 0.4814 0.35509 0.0
C337 C 0.15 0.48424 0.34416 0.0
C338 C 0.18153 0.47273 0.43318 0.0
O339 O 0.1306 0.48667 0.35548 0.0
C340 C 0.13386 0.51668 0.43374 0.0
O341 O 0.12763 0.44324 0.38357 0.0
O342 O 0.10592 0.46691 0.39707 0.0
O343 O 0.1944 0.5003 0.4321 0.0
O344 O 0.16601 0.45708 0.41611 0.0
C345 C 0.1745 0.55948 0.38427 0.0
O346 O 0.12663 0.51837 0.41253 0.0
O347 O 0.15632 0.51483 0.4378 0.0
C348 C 0.10563 0.44335 0.39265 0.0
O349 O 0.15574 0.53818 0.37218 0.0
O350 O 0.18172 0.55565 0.40485 0.0
C351 C 0.22439 0.52062 0.3873 0.0
Fe352 Fe 0.70633 0.17039 0.88485 0.0
Fe353 Fe 0.63952 0.14376 0.88333 0.0
O354 O 0.67412 0.1694 0.89521 0.0
Fe355 Fe 0.67662 0.1942 0.91738 0.0
O356 O 0.7125 0.22404 0.90778 0.0
O357 O 0.72136 0.20797 0.87444 0.0
O358 O 0.69247 0.15857 0.85431 0.0
C359 C 0.67266 0.16037 0.84295 0.0
C360 C 0.71671 0.18116 0.93456 0.0
O361 O 0.65097 0.15882 0.85374 0.0
C362 C 0.62644 0.14139 0.93064 0.0
O363 O 0.69281 0.13269 0.89451 0.0
O364 O 0.6494 0.1155 0.87793 0.0
O365 O 0.69269 0.18012 0.93804 0.0
O366 O 0.72628 0.18286 0.91354 0.0
C367 C 0.63549 0.19501 0.88854 0.0
O368 O 0.62575 0.12711 0.91236 0.0
O369 O 0.64149 0.16902 0.93108 0.0
C370 C 0.66889 0.11139 0.88726 0.0
O371 O 0.62349 0.16748 0.88651 0.0
O372 O 0.66037 0.20963 0.89806 0.0
C373 C 0.72491 0.22883 0.8877 0.0
Fe374 Fe 0.49743 0.63052 0.38134 0.0
Fe375 Fe 0.47847 0.66647 0.41118 0.0
O376 O 0.50378 0.66495 0.39162 0.0
Fe377 Fe 0.53502 0.6979 0.38226 0.0
O378 O 0.53639 0.68412 0.35227 0.0
O379 O 0.49671 0.64068 0.3507 0.0
O380 O 0.45716 0.61319 0.38112 0.0
C381 C 0.44111 0.62473 0.38026 0.0
C382 C 0.5585 0.66262 0.38967 0.0
O383 O 0.44964 0.64967 0.38916 0.0
C384 C 0.52902 0.70791 0.43144 0.0
O385 O 0.49756 0.61781 0.4115 0.0
O386 O 0.46722 0.63125 0.4253 0.0
O387 O 0.55969 0.68655 0.39454 0.0
O388 O 0.53633 0.64183 0.37967 0.0
C389 C 0.49329 0.71384 0.38067 0.0
O390 O 0.50611 0.68344 0.43413 0.0
O391 O 0.53876 0.71752 0.41069 0.0
C392 C 0.47984 0.61638 0.4272 0.0
O393 O 0.48459 0.70185 0.40071 0.0
O394 O 0.51239 0.71133 0.36915 0.0
C395 C 0.51665 0.66295 0.34034 0.0
Fe396 Fe 0.5318 0.18895 0.09158 0.0
Fe397 Fe 0.47662 0.16951 0.12174 0.0
O398 O 0.50576 0.1643 0.11204 0.0
Fe399 Fe 0.50938 0.13465 0.12257 0.0
O400 O 0.54551 0.15906 0.13505 0.0
O401 O 0.56219 0.1845 0.10228 0.0
O402 O 0.54338 0.21862 0.11255 0.0
C403 C 0.52665 0.22662 0.12164 0.0
C404 C 0.52313 0.13767 0.07328 0.0
O405 O 0.49901 0.20994 0.12139 0.0
C406 C 0.45014 0.10791 0.11505 0.0
O407 O 0.507 0.1985 0.07659 0.0
O408 O 0.46363 0.16849 0.09135 0.0
O409 O 0.52481 0.12988 0.09437 0.0
O410 O 0.52121 0.16022 0.06974 0.0
C411 C 0.49083 0.15256 0.16377 0.0
O412 O 0.44967 0.12989 0.12381 0.0
O413 O 0.47392 0.10862 0.11081 0.0
C414 C 0.47949 0.18495 0.07478 0.0
O415 O 0.48705 0.17125 0.1528 0.0
O416 O 0.49446 0.1338 0.15245 0.0
C417 C 0.5667 0.17689 0.12244 0.0
Fe418 Fe 0.30243 0.46919 0.61858 0.0
Fe419 Fe 0.37019 0.50292 0.61933 0.0
O420 O 0.33655 0.49796 0.60813 0.0
Fe421 Fe 0.33744 0.52236 0.58632 0.0
O422 O 0.319 0.53486 0.60597 0.0
O423 O 0.28381 0.49101 0.6167 0.0
O424 O 0.31138 0.48188 0.64906 0.0
C425 C 0.33392 0.48645 0.66032 0.0
C426 C 0.28944 0.46865 0.5713 0.0
O427 O 0.35619 0.48929 0.6494 0.0
C428 C 0.38061 0.5134 0.56993 0.0
O429 O 0.31574 0.44293 0.6223 0.0
O430 O 0.3613 0.46698 0.60909 0.0
O431 O 0.30326 0.49623 0.5718 0.0
O432 O 0.29023 0.45405 0.58876 0.0
C433 C 0.38258 0.55954 0.61727 0.0
O434 O 0.39041 0.51728 0.59106 0.0
O435 O 0.35596 0.51077 0.56574 0.0
C436 C 0.33833 0.44333 0.61398 0.0
O437 O 0.3811 0.53949 0.6304 0.0
O438 O 0.37177 0.55365 0.59656 0.0
C439 C 0.2946 0.51862 0.6157 0.0
Fe440 Fe 0.86575 0.37083 0.12694 0.0
Fe441 Fe 0.80796 0.3338 0.10066 0.0
O442 O 0.83699 0.33598 0.11788 0.0
Fe443 Fe 0.83742 0.3037 0.12616 0.0
O444 O 0.85465 0.31829 0.15535 0.0
O445 O 0.85705 0.36113 0.15781 0.0
O446 O 0.84312 0.38824 0.12852 0.0
C447 C 0.81579 0.37758 0.13071 0.0
C448 C 0.89539 0.34023 0.11625 0.0
O449 O 0.79842 0.35191 0.12361 0.0
C450 C 0.8162 0.29227 0.07851 0.0
O451 O 0.87594 0.38258 0.09627 0.0
O452 O 0.83082 0.36824 0.08503 0.0
O453 O 0.87262 0.31627 0.11158 0.0
O454 O 0.89396 0.36034 0.12725 0.0
C455 C 0.7792 0.28587 0.13209 0.0
O456 O 0.81523 0.31556 0.07654 0.0
O457 O 0.81988 0.28362 0.09858 0.0
C458 C 0.85816 0.38328 0.08166 0.0
O459 O 0.77998 0.29907 0.11315 0.0
O460 O 0.80219 0.28845 0.14127 0.0
C461 C 0.85607 0.3392 0.16765 0.0
Fe462 Fe 0.52914 0.83112 0.62524 0.0
Fe463 Fe 0.49383 0.8633 0.62424 0.0
O464 O 0.49883 0.83398 0.61474 0.0
Fe465 Fe 0.47346 0.80748 0.59483 0.0
O466 O 0.47637 0.7771 0.60741 0.0
O467 O 0.50533 0.79548 0.63858 0.0
O468 O 0.53035 0.84727 0.6547 0.0
C469 C 0.51072 0.84941 0.66609 0.0
C470 C 0.52403 0.81335 0.57673 0.0
O471 O 0.49138 0.85221 0.65513 0.0
C472 C 0.48034 0.86062 0.57693 0.0
O473 O 0.55507 0.86666 0.61263 0.0
O474 O 0.53303 0.88958 0.62681 0.0
O475 O 0.50174 0.81558 0.57297 0.0
O476 O 0.53304 0.81395 0.59777 0.0
C477 C 0.43588 0.81506 0.62344 0.0
O478 O 0.49584 0.87638 0.59394 0.0
O479 O 0.46596 0.83303 0.57862 0.0
C480 C 0.55481 0.89001 0.61701 0.0
O481 O 0.45363 0.84236 0.62325 0.0
O482 O 0.44332 0.7975 0.61527 0.0
C483 C 0.48525 0.77399 0.62751 0.0
Fe484 Fe 0.70379 0.5395 0.12455 0.0
Fe485 Fe 0.63695 0.49888 0.12475 0.0
O486 O 0.6719 0.5088 0.11306 0.0
Fe487 Fe 0.67529 0.48799 0.08999 0.0
O488 O 0.71099 0.49392 0.09982 0.0
O489 O 0.71834 0.51631 0.13428 0.0
O490 O 0.68937 0.53612 0.15491 0.0
C491 C 0.66934 0.5141 0.16567 0.0
C492 C 0.71581 0.54201 0.0749 0.0
O493 O 0.64778 0.49447 0.15438 0.0
C494 C 0.62446 0.48969 0.07716 0.0
O495 O 0.69053 0.56401 0.11559 0.0
O496 O 0.6464 0.53682 0.13086 0.0
O497 O 0.69173 0.51939 0.07044 0.0
O498 O 0.72452 0.5485 0.09627 0.0
C499 C 0.63413 0.4443 0.11784 0.0
O500 O 0.62329 0.50235 0.09585 0.0
O501 O 0.64041 0.47819 0.07599 0.0
C502 C 0.66625 0.56088 0.12232 0.0
O503 O 0.62163 0.45926 0.12072 0.0
O504 O 0.65893 0.45531 0.1081 0.0
C505 C 0.72228 0.49978 0.12038 0.0
Fe506 Fe 0.16249 0.70038 0.62164 0.0
Fe507 Fe 0.13654 0.63342 0.62131 0.0
O508 O 0.16222 0.6687 0.61051 0.0
Fe509 Fe 0.18783 0.67262 0.58857 0.0
O510 O 0.21683 0.70818 0.59944 0.0
O511 O 0.19964 0.71513 0.63299 0.0
O512 O 0.14945 0.68537 0.65152 0.0
C513 C 0.15059 0.66512 0.66263 0.0
C514 C 0.17509 0.71325 0.57241 0.0
O515 O 0.14956 0.64382 0.65158 0.0
C516 C 0.13627 0.62195 0.57378 0.0
O517 O 0.12535 0.68714 0.61102 0.0
O518 O 0.10747 0.64236 0.62527 0.0
O519 O 0.17396 0.68929 0.56823 0.0
O520 O 0.17593 0.72163 0.59373 0.0
C521 C 0.18886 0.63087 0.61667 0.0
O522 O 0.12142 0.62019 0.59188 0.0
O523 O 0.16375 0.63802 0.57365 0.0
C524 C 0.10391 0.66212 0.61575 0.0
O525 O 0.1613 0.61844 0.61889 0.0
O526 O 0.20316 0.65597 0.60747 0.0
C527 C 0.22093 0.71954 0.61993 0.0
H528 H 0.11915 0.56421 0.93641 0.0
H529 H 0.13551 0.64273 0.97314 0.0
H530 H 0.11204 0.53922 0.97471 0.0
H531 H 0.12787 0.61784 0.01137 0.0
H532 H 0.17659 0.58579 0.06133 0.0
H533 H 0.16431 0.60534 0.02704 0.0
H534 H 0.08634 0.5216 0.01548 0.0
H535 H 0.09875 0.50185 0.05054 0.0
C536 C 0.11985 0.57559 0.95269 0.0
C537 C 0.12775 0.6052 0.95209 0.0
C538 C 0.11576 0.56135 0.97457 0.0
C539 C 0.11975 0.57672 0.99601 0.0
C540 C 0.12495 0.60557 0.99513 0.0
C541 C 0.12917 0.61977 0.97332 0.0
C542 C 0.15658 0.57161 0.05171 0.0
C543 C 0.13873 0.54226 0.05841 0.0
C544 C 0.14936 0.5829 0.03219 0.0
C545 C 0.12425 0.56505 0.01864 0.0
C546 C 0.10579 0.53582 0.02568 0.0
C547 C 0.11281 0.52458 0.04568 0.0
H548 H 0.60237 0.08574 0.54351 0.0
H549 H 0.56925 0.13878 0.57316 0.0
H550 H 0.56939 0.07397 0.50926 0.0
H551 H 0.53755 0.12845 0.53917 0.0
H552 H 0.4852 0.11573 0.47752 0.0
H553 H 0.49942 0.10066 0.51378 0.0
H554 H 0.57101 0.10129 0.47575 0.0
H555 H 0.55517 0.11411 0.43926 0.0
C556 C 0.58724 0.09395 0.54305 0.0
C557 C 0.58812 0.11305 0.56081 0.0
C558 C 0.56866 0.08762 0.52333 0.0
C559 C 0.55098 0.10056 0.52111 0.0
C560 C 0.55032 0.11761 0.54013 0.0
C561 C 0.56865 0.12374 0.5597 0.0
C562 C 0.50341 0.11171 0.47688 0.0
C563 C 0.51938 0.11642 0.45581 0.0
C564 C 0.51175 0.10329 0.49766 0.0
C565 C 0.53696 0.10057 0.49801 0.0
C566 C 0.55142 0.10296 0.47632 0.0
C567 C 0.5425 0.11054 0.45535 0.0
H568 H 0.43981 0.54021 0.92788 0.0
H569 H 0.36454 0.50322 0.97412 0.0
H570 H 0.47208 0.55999 0.96275 0.0
H571 H 0.39633 0.52241 0.00875 0.0
H572 H 0.4556 0.5584 0.06928 0.0
H573 H 0.43664 0.52604 0.03467 0.0
H574 H 0.47589 0.60122 0.98815 0.0
H575 H 0.49485 0.63345 0.02257 0.0
C576 C 0.43032 0.53528 0.94555 0.0
C577 C 0.39986 0.52037 0.94851 0.0
C578 C 0.44868 0.54669 0.96545 0.0
C579 C 0.43671 0.54289 0.98846 0.0
C580 C 0.40628 0.52546 0.99134 0.0
C581 C 0.38804 0.51457 0.97153 0.0
C582 C 0.46087 0.56795 0.05164 0.0
C583 C 0.47614 0.59848 0.04863 0.0
C584 C 0.45001 0.54942 0.03185 0.0
C585 C 0.45455 0.56111 0.00873 0.0
C586 C 0.47219 0.5915 0.0057 0.0
C587 C 0.48278 0.61001 0.02545 0.0
H588 H 0.82585 0.41492 0.57048 0.0
H589 H 0.90034 0.49928 0.55383 0.0
H590 H 0.8365 0.39338 0.53674 0.0
H591 H 0.91145 0.4774 0.51945 0.0
H592 H 0.87651 0.43081 0.44316 0.0
H593 H 0.88564 0.45745 0.48073 0.0
H594 H 0.86976 0.37996 0.51915 0.0
H595 H 0.85945 0.35312 0.48173 0.0
C596 C 0.8449 0.42876 0.55971 0.0
C597 C 0.86209 0.45878 0.56448 0.0
C598 C 0.85125 0.41634 0.5405 0.0
C599 C 0.87491 0.43365 0.52542 0.0
C600 C 0.89304 0.46357 0.53077 0.0
C601 C 0.88681 0.47604 0.5504 0.0
C602 C 0.87573 0.41976 0.45963 0.0
C603 C 0.86653 0.38976 0.45971 0.0
C604 C 0.88117 0.43506 0.48112 0.0
C605 C 0.87782 0.4206 0.50291 0.0
C606 C 0.87182 0.39147 0.50266 0.0
C607 C 0.86589 0.3761 0.48128 0.0
H608 H 0.49565 0.8679 0.98405 0.0
H609 H 0.4597 0.90634 0.93666 0.0
H610 H 0.47811 0.88306 0.01814 0.0
H611 H 0.44227 0.92178 0.97099 0.0
H612 H 0.3698 0.87669 0.03186 0.0
H613 H 0.40129 0.88819 0.99719 0.0
H614 H 0.47688 0.92134 0.04326 0.0
H615 H 0.44491 0.90977 0.07811 0.0
C616 C 0.48461 0.88023 0.98093 0.0
C617 C 0.47848 0.88534 0.95766 0.0
C618 C 0.47485 0.88925 1.00052 0.0
C619 C 0.45858 0.90343 0.99725 0.0
C620 C 0.45455 0.91068 0.97402 0.0
C621 C 0.46455 0.90184 0.95438 0.0
C622 C 0.3933 0.88776 0.03445 0.0
C623 C 0.40508 0.89253 0.05746 0.0
C624 C 0.41139 0.8944 0.01462 0.0
C625 C 0.44157 0.90539 0.0175 0.0
C626 C 0.45367 0.91271 0.04054 0.0
C627 C 0.4355 0.90639 0.06044 0.0
H628 H 0.5635 0.45739 0.43337 0.0
H629 H 0.63967 0.49981 0.47851 0.0
H630 H 0.53242 0.43656 0.46869 0.0
H631 H 0.60905 0.47943 0.51362 0.0
H632 H 0.55003 0.44108 0.5751 0.0
H633 H 0.56864 0.4731 0.54028 0.0
H634 H 0.53128 0.39729 0.49425 0.0
H635 H 0.51266 0.36545 0.52881 0.0
C636 C 0.57335 0.46329 0.4509 0.0
C637 C 0.60382 0.48018 0.4534 0.0
C638 C 0.55569 0.45121 0.47107 0.0
C639 C 0.56832 0.45616 0.49393 0.0
C640 C 0.59855 0.47541 0.49636 0.0
C641 C 0.61613 0.48706 0.47626 0.0
C642 C 0.54521 0.43131 0.55751 0.0
C643 C 0.53036 0.40073 0.55471 0.0
C644 C 0.55588 0.44964 0.5376 0.0
C645 C 0.55157 0.43773 0.51453 0.0
C646 C 0.53474 0.40721 0.51172 0.0
C647 C 0.52436 0.38893 0.53158 0.0
H648 H 0.8804 0.44693 0.94228 0.0
H649 H 0.86635 0.50935 0.98126 0.0
H650 H 0.89075 0.43001 0.97956 0.0
H651 H 0.87813 0.49361 0.01837 0.0
H652 H 0.83371 0.41548 0.07023 0.0
H653 H 0.84471 0.44782 0.03666 0.0
H654 H 0.91708 0.43531 0.01757 0.0
H655 H 0.90551 0.40205 0.05177 0.0
C656 C 0.88061 0.45773 0.95876 0.0
C657 C 0.87183 0.47881 0.95915 0.0
C658 C 0.88677 0.44824 0.98008 0.0
C659 C 0.88461 0.46006 1.00194 0.0
C660 C 0.87923 0.48359 1.00185 0.0
C661 C 0.87246 0.49258 0.98067 0.0
C662 C 0.85225 0.41992 0.05908 0.0
C663 C 0.8685 0.40599 0.06324 0.0
C664 C 0.85886 0.43883 0.03999 0.0
C665 C 0.88187 0.44426 0.02444 0.0
C666 C 0.89917 0.43144 0.02925 0.0
C667 C 0.89267 0.41257 0.04875 0.0
H668 H 0.48623 0.84773 0.53163 0.0
H669 H 0.46346 0.90176 0.57378 0.0
H670 H 0.46935 0.86076 0.49573 0.0
H671 H 0.44565 0.91433 0.5377 0.0
H672 H 0.36885 0.86569 0.47791 0.0
H673 H 0.3999 0.87652 0.51308 0.0
H674 H 0.47497 0.90256 0.46773 0.0
H675 H 0.44376 0.89228 0.43246 0.0
C676 C 0.47835 0.8631 0.53302 0.0
C677 C 0.47612 0.87381 0.55532 0.0
C678 C 0.46883 0.87069 0.51248 0.0
C679 C 0.45621 0.88858 0.51392 0.0
C680 C 0.45541 0.90059 0.53612 0.0
C681 C 0.46565 0.89352 0.55668 0.0
C682 C 0.39223 0.87501 0.47555 0.0
C683 C 0.40409 0.87846 0.45265 0.0
C684 C 0.41001 0.88125 0.49564 0.0
C685 C 0.43983 0.89031 0.49312 0.0
C686 C 0.45206 0.89569 0.47014 0.0
C687 C 0.43432 0.88999 0.45001 0.0
H688 H 0.56493 0.46437 0.078 0.0
H689 H 0.63958 0.50132 0.03111 0.0
H690 H 0.5323 0.44295 0.04352 0.0
H691 H 0.60739 0.48048 0.99683 0.0
H692 H 0.54621 0.44334 0.93689 0.0
H693 H 0.5665 0.47604 0.97119 0.0
H694 H 0.52829 0.40143 0.01829 0.0
H695 H 0.508 0.36881 0.98417 0.0
C696 C 0.57418 0.46894 0.06025 0.0
C697 C 0.60462 0.48444 0.05705 0.0
C698 C 0.55561 0.45653 0.04057 0.0
C699 C 0.5673 0.4599 0.01748 0.0
C700 C 0.59764 0.47773 0.0143 0.0
C701 C 0.61611 0.48962 0.03391 0.0
C702 C 0.54147 0.43397 0.9546 0.0
C703 C 0.52598 0.40345 0.9578 0.0
C704 C 0.55313 0.45271 0.97422 0.0
C705 C 0.5492 0.4413 0.9974 0.0
C706 C 0.53153 0.41094 1.00069 0.0
C707 C 0.52014 0.39222 0.9811 0.0
H708 H 0.13397 0.5029 0.48038 0.0
H709 H 0.10376 0.54635 0.43264 0.0
H710 H 0.12197 0.52361 0.51441 0.0
H711 H 0.09191 0.56724 0.46683 0.0
H712 H 0.14559 0.63817 0.52782 0.0
H713 H 0.13231 0.60619 0.4932 0.0
H714 H 0.08419 0.53075 0.53846 0.0
H715 H 0.09713 0.5632 0.5733 0.0
C716 C 0.124 0.51622 0.4772 0.0
C717 C 0.12032 0.52349 0.45389 0.0
C718 C 0.11685 0.52784 0.49669 0.0
C719 C 0.10623 0.5472 0.49321 0.0
C720 C 0.10018 0.55244 0.46994 0.0
C721 C 0.10696 0.54048 0.45041 0.0
C722 C 0.13134 0.61482 0.53022 0.0
C723 C 0.12246 0.603 0.55307 0.0
C724 C 0.12356 0.59652 0.51042 0.0
C725 C 0.10727 0.56599 0.51318 0.0
C726 C 0.09673 0.55423 0.53591 0.0
C727 C 0.10402 0.5727 0.55575 0.0
H728 H 0.5672 0.10421 0.93133 0.0
H729 H 0.64343 0.14772 0.97635 0.0
H730 H 0.5356 0.09167 0.96663 0.0
H731 H 0.61231 0.13504 0.0114 0.0
H732 H 0.55339 0.10802 0.07293 0.0
H733 H 0.57386 0.09693 0.03801 0.0
H734 H 0.52943 0.12782 0.99212 0.0
H735 H 0.50905 0.13886 0.02686 0.0
C736 C 0.57711 0.11 0.94884 0.0
C737 C 0.60761 0.12688 0.95129 0.0
C738 C 0.55912 0.10304 0.96898 0.0
C739 C 0.57148 0.11246 0.99177 0.0
C740 C 0.60207 0.12713 0.99419 0.0
C741 C 0.61992 0.13452 0.97412 0.0
C742 C 0.54729 0.11158 0.05537 0.0
C743 C 0.53001 0.12475 0.05262 0.0
C744 C 0.55907 0.10531 0.03539 0.0
C745 C 0.55345 0.11173 0.01234 0.0
C746 C 0.53401 0.12239 0.0096 0.0
C747 C 0.52254 0.12898 0.02953 0.0
H748 H 0.439 0.55298 0.56651 0.0
H749 H 0.3657 0.48621 0.52709 0.0
H750 H 0.46682 0.57089 0.52956 0.0
H751 H 0.39385 0.50306 0.49033 0.0
H752 H 0.42342 0.57986 0.43726 0.0
H753 H 0.4032 0.5473 0.47094 0.0
H754 H 0.49015 0.56773 0.49219 0.0
H755 H 0.51058 0.60104 0.45787 0.0
C756 C 0.42934 0.54137 0.55007 0.0
C757 C 0.40007 0.51866 0.54946 0.0
C758 C 0.44531 0.55153 0.52889 0.0
C759 C 0.43228 0.53883 0.50692 0.0
C760 C 0.40423 0.5138 0.50689 0.0
C761 C 0.38813 0.50407 0.52791 0.0
C762 C 0.4382 0.57695 0.44884 0.0
C763 C 0.46851 0.59306 0.4452 0.0
C764 C 0.4266 0.558 0.46806 0.0
C765 C 0.44503 0.55479 0.48431 0.0
C766 C 0.47542 0.56982 0.48 0.0
C767 C 0.48709 0.5887 0.46038 0.0
H768 H 0.25713 0.55506 0.15218 0.0
H769 H 0.25968 0.48247 0.11949 0.0
H770 H 0.31029 0.58076 0.15712 0.0
H771 H 0.31304 0.5081 0.12446 0.0
H772 H 0.41196 0.56444 0.14373 0.0
H773 H 0.35942 0.53457 0.15312 0.0
H774 H 0.34447 0.60017 0.12091 0.0
H775 H 0.39619 0.6293 0.11117 0.0
C776 C 0.26901 0.54408 0.1471 0.0
C777 C 0.25447 0.5167 0.13582 0.0
C778 C 0.2994 0.55884 0.14973 0.0
C779 C 0.3158 0.54651 0.14101 0.0
C780 C 0.30093 0.51797 0.13157 0.0
C781 C 0.27044 0.50326 0.12879 0.0
C782 C 0.39738 0.57252 0.13903 0.0
C783 C 0.40801 0.59906 0.12663 0.0
C784 C 0.36742 0.55546 0.14432 0.0
C785 C 0.34793 0.56516 0.13789 0.0
C786 C 0.35898 0.59229 0.1264 0.0
C787 C 0.38856 0.60887 0.12065 0.0
H788 H 0.83303 0.40294 0.63779 0.0
H789 H 0.74812 0.39645 0.63728 0.0
H790 H 0.8095 0.34967 0.63956 0.0
H791 H 0.72476 0.34331 0.63941 0.0
H792 H 0.70097 0.25974 0.59709 0.0
H793 H 0.72316 0.31105 0.60684 0.0
H794 H 0.77578 0.30134 0.66096 0.0
H795 H 0.75311 0.24889 0.65107 0.0
C796 C 0.80938 0.39024 0.63867 0.0
C797 C 0.79244 0.40396 0.63685 0.0
C798 C 0.79593 0.35968 0.63982 0.0
C799 C 0.7653 0.34229 0.63921 0.0
C800 C 0.74844 0.35615 0.63944 0.0
C801 C 0.76183 0.38661 0.63824 0.0
C802 C 0.71727 0.26833 0.61111 0.0
C803 C 0.72553 0.25022 0.62311 0.0
C804 C 0.72973 0.2978 0.61691 0.0
C805 C 0.75102 0.31025 0.63483 0.0
C806 C 0.75936 0.29227 0.64707 0.0
C807 C 0.74643 0.26234 0.64144 0.0
H808 H 0.42214 0.68905 0.11544 0.0
H809 H 0.50741 0.76258 0.13208 0.0
H810 H 0.40044 0.71924 0.12079 0.0
H811 H 0.4851 0.79301 0.13874 0.0
H812 H 0.43843 0.84336 0.1114 0.0
H813 H 0.46433 0.81615 0.11628 0.0
H814 H 0.38612 0.74379 0.14645 0.0
H815 H 0.36 0.77024 0.13983 0.0
C816 C 0.43628 0.71164 0.12071 0.0
C817 C 0.46665 0.72345 0.12302 0.0
C818 C 0.42367 0.72901 0.1241 0.0
C819 C 0.4409 0.7587 0.1303 0.0
C820 C 0.47119 0.77033 0.13367 0.0
C821 C 0.48396 0.75286 0.13002 0.0
C822 C 0.42707 0.82179 0.11938 0.0
C823 C 0.3972 0.80858 0.12488 0.0
C824 C 0.4419 0.80623 0.12234 0.0
C825 C 0.42719 0.77744 0.13131 0.0
C826 C 0.39792 0.76546 0.13872 0.0
C827 C 0.38296 0.78065 0.13512 0.0
H828 H 0.745 0.4481 0.66175 0.0
H829 H 0.73824 0.51442 0.62226 0.0
H830 H 0.69208 0.42201 0.66853 0.0
H831 H 0.68527 0.48848 0.62904 0.0
H832 H 0.58851 0.43504 0.64934 0.0
H833 H 0.64094 0.46594 0.6585 0.0
H834 H 0.65584 0.39664 0.63474 0.0
H835 H 0.6041 0.36637 0.62524 0.0
C836 C 0.73227 0.45772 0.6555 0.0
C837 C 0.74547 0.48334 0.64181 0.0
C838 C 0.70204 0.44274 0.6592 0.0
C839 C 0.68457 0.45314 0.64919 0.0
C840 C 0.69822 0.48015 0.6372 0.0
C841 C 0.72847 0.49501 0.63333 0.0
C842 C 0.60302 0.42633 0.64662 0.0
C843 C 0.59246 0.39848 0.63649 0.0
C844 C 0.63292 0.44398 0.65176 0.0
C845 C 0.65241 0.43363 0.64741 0.0
C846 C 0.64134 0.40509 0.63859 0.0
C847 C 0.61177 0.38783 0.63298 0.0
H848 H 0.16943 0.59868 0.13434 0.0
H849 H 0.25319 0.60262 0.13419 0.0
H850 H 0.19409 0.65177 0.13832 0.0
H851 H 0.27773 0.65563 0.13874 0.0
H852 H 0.30489 0.74211 0.09969 0.0
H853 H 0.28241 0.6905 0.10826 0.0
H854 H 0.22676 0.69818 0.16071 0.0
H855 H 0.24957 0.75082 0.15186 0.0
C856 C 0.19306 0.61077 0.13577 0.0
C857 C 0.20939 0.59648 0.13335 0.0
C858 C 0.20717 0.64122 0.13822 0.0
C859 C 0.23786 0.65794 0.13841 0.0
C860 C 0.25404 0.64337 0.13813 0.0
C861 C 0.23998 0.61299 0.13555 0.0
C862 C 0.28791 0.73297 0.11313 0.0
C863 C 0.27868 0.75049 0.12483 0.0
C864 C 0.27528 0.70335 0.11829 0.0
C865 C 0.25292 0.69021 0.13529 0.0
C866 C 0.24394 0.70774 0.14748 0.0
C867 C 0.25697 0.73778 0.14246 0.0
H868 H 0.56832 0.15751 0.63582 0.0
H869 H 0.64251 0.24058 0.61537 0.0
H870 H 0.54021 0.18185 0.64411 0.0
H871 H 0.6144 0.26452 0.62297 0.0
H872 H 0.493 0.23298 0.6177 0.0
H873 H 0.51788 0.20459 0.6211 0.0
H874 H 0.59251 0.27925 0.653 0.0
H875 H 0.56809 0.30775 0.64865 0.0
C876 C 0.5787 0.18095 0.63325 0.0
C877 C 0.6076 0.19707 0.62476 0.0
C878 C 0.56255 0.19485 0.6379 0.0
C879 C 0.57503 0.22513 0.63426 0.0
C880 C 0.6042 0.24126 0.62642 0.0
C881 C 0.62028 0.22744 0.6218 0.0
C882 C 0.51436 0.24294 0.62606 0.0
C883 C 0.52886 0.27258 0.63262 0.0
C884 C 0.52864 0.22672 0.62802 0.0
C885 C 0.55747 0.23988 0.63682 0.0
C886 C 0.57066 0.26872 0.64551 0.0
C887 C 0.55662 0.28497 0.64321 0.0
H888 H 0.35197 0.60067 0.89618 0.0
H889 H 0.42572 0.595 0.86941 0.0
H890 H 0.37957 0.65334 0.89234 0.0
H891 H 0.45327 0.64819 0.86468 0.0
H892 H 0.42493 0.7458 0.87182 0.0
H893 H 0.39959 0.69303 0.86592 0.0
H894 H 0.47697 0.69145 0.88883 0.0
H895 H 0.50273 0.74465 0.89358 0.0
C896 C 0.37398 0.61062 0.8891 0.0
C897 C 0.38667 0.59352 0.88329 0.0
C898 C 0.38981 0.64097 0.88667 0.0
C899 C 0.41873 0.65518 0.87811 0.0
C900 C 0.43119 0.63804 0.87159 0.0
C901 C 0.41533 0.60752 0.87417 0.0
C902 C 0.43666 0.73419 0.87516 0.0
C903 C 0.46565 0.74919 0.8834 0.0
C904 C 0.4221 0.70391 0.87196 0.0
C905 C 0.43596 0.68779 0.87743 0.0
C906 C 0.46561 0.7031 0.88432 0.0
C907 C 0.48039 0.73358 0.88712 0.0
H908 H 0.73536 0.48208 0.34826 0.0
H909 H 0.75624 0.48727 0.42312 0.0
H910 H 0.76055 0.45398 0.34131 0.0
H911 H 0.78107 0.45959 0.41613 0.0
H912 H 0.76238 0.36613 0.39978 0.0
H913 H 0.7442 0.40011 0.39573 0.0
H914 H 0.82158 0.45969 0.3565 0.0
H915 H 0.84022 0.42537 0.36054 0.0
C916 C 0.74614 0.4781 0.363 0.0
C917 C 0.74358 0.48651 0.38627 0.0
C918 C 0.76046 0.46206 0.35903 0.0
C919 C 0.77248 0.45461 0.37826 0.0
C920 C 0.77187 0.46506 0.40107 0.0
C921 C 0.75759 0.4808 0.40504 0.0
C922 C 0.77539 0.3862 0.3899 0.0
C923 C 0.80295 0.39329 0.38081 0.0
C924 C 0.76489 0.40555 0.38752 0.0
C925 C 0.78162 0.43245 0.37596 0.0
C926 C 0.8083 0.43892 0.36538 0.0
C927 C 0.8189 0.41935 0.36772 0.0
H928 H 0.26285 0.70544 0.86014 0.0
H929 H 0.25389 0.77694 0.88732 0.0
H930 H 0.31579 0.73808 0.8563 0.0
H931 H 0.30695 0.80964 0.88389 0.0
H932 H 0.39644 0.82624 0.91835 0.0
H933 H 0.34431 0.80405 0.91004 0.0
H934 H 0.35899 0.78671 0.8377 0.0
H935 H 0.41181 0.80983 0.84598 0.0
C936 C 0.27219 0.72845 0.86438 0.0
C937 C 0.25451 0.73894 0.87368 0.0
C938 C 0.30241 0.74711 0.8622 0.0
C939 C 0.31545 0.77636 0.86984 0.0
C940 C 0.29742 0.7872 0.87784 0.0
C941 C 0.26713 0.76863 0.87965 0.0
C942 C 0.38862 0.81822 0.90053 0.0
C943 C 0.40803 0.81962 0.88281 0.0
C944 C 0.35883 0.80572 0.89572 0.0
C945 C 0.34763 0.79375 0.8732 0.0
C946 C 0.36713 0.79589 0.85518 0.0
C947 C 0.39724 0.80913 0.85987 0.0
H948 H 0.57997 0.40884 0.3709 0.0
H949 H 0.6505 0.39966 0.40058 0.0
H950 H 0.55156 0.35605 0.36452 0.0
H951 H 0.6219 0.3471 0.39489 0.0
H952 H 0.4982 0.25916 0.39208 0.0
H953 H 0.52562 0.31247 0.38837 0.0
H954 H 0.60211 0.30855 0.36652 0.0
H955 H 0.57501 0.2556 0.37117 0.0
C956 C 0.58948 0.3956 0.37597 0.0
C957 C 0.61745 0.40847 0.38642 0.0
C958 C 0.57312 0.36533 0.3724 0.0
C959 C 0.58437 0.34728 0.37921 0.0
C960 C 0.61268 0.36032 0.38903 0.0
C961 C 0.62905 0.39052 0.39249 0.0
C962 C 0.52066 0.26974 0.38596 0.0
C963 C 0.53466 0.25343 0.38224 0.0
C964 C 0.53641 0.30027 0.3838 0.0
C965 C 0.56627 0.31486 0.3776 0.0
C966 C 0.57941 0.29812 0.37199 0.0
C967 C 0.56385 0.26778 0.37449 0.0
H968 H 0.24477 0.64218 0.8755 0.0
H969 H 0.15727 0.56739 0.879 0.0
H970 H 0.26439 0.60918 0.87033 0.0
H971 H 0.17704 0.53472 0.87419 0.0
H972 H 0.23644 0.50119 0.91184 0.0
H973 H 0.21109 0.52872 0.90565 0.0
H974 H 0.26126 0.56644 0.84163 0.0
H975 H 0.28608 0.53797 0.84753 0.0
C976 C 0.22972 0.6188 0.87481 0.0
C977 C 0.19952 0.60741 0.87796 0.0
C978 C 0.24093 0.59996 0.87167 0.0
C979 C 0.22216 0.56948 0.87194 0.0
C980 C 0.19191 0.55815 0.87397 0.0
C981 C 0.18067 0.57692 0.87673 0.0
C982 C 0.24129 0.51463 0.89605 0.0
C983 C 0.26283 0.51734 0.87999 0.0
C984 C 0.22687 0.53037 0.89251 0.0
C985 C 0.23433 0.54968 0.87319 0.0
C986 C 0.25518 0.55163 0.85662 0.0
C987 C 0.26911 0.53524 0.85986 0.0
H988 H 0.58864 0.1518 0.36107 0.0
H989 H 0.60025 0.22951 0.39655 0.0
H990 H 0.6417 0.17676 0.35297 0.0
H991 H 0.65226 0.25417 0.38842 0.0
H992 H 0.74008 0.30212 0.36163 0.0
H993 H 0.68754 0.27311 0.35482 0.0
H994 H 0.68767 0.19606 0.38038 0.0
H995 H 0.74077 0.22519 0.38666 0.0
C996 C 0.60242 0.17431 0.36667 0.0
C997 C 0.5905 0.18876 0.3795 0.0
C998 C 0.63267 0.18849 0.36218 0.0
C999 C 0.65109 0.21747 0.36993 0.0
C1000 C 0.63869 0.23204 0.38187 0.0
C1001 C 0.60888 0.21783 0.38669 0.0
C1002 C 0.72903 0.2788 0.36513 0.0
C1003 C 0.74432 0.26595 0.37502 0.0
C1004 C 0.69897 0.26221 0.36125 0.0
C1005 C 0.68342 0.23246 0.36753 0.0
C1006 C 0.69911 0.21893 0.37532 0.0
C1007 C 0.72945 0.23558 0.37897 0.0
H1008 H 0.6024 0.36926 0.89568 0.0
H1009 H 0.59152 0.43717 0.863 0.0
H1010 H 0.65445 0.3968 0.88783 0.0
H1011 H 0.64458 0.46538 0.85505 0.0
H1012 H 0.74313 0.43858 0.86293 0.0
H1013 H 0.6907 0.41476 0.85556 0.0
H1014 H 0.68979 0.4911 0.88216 0.0
H1015 H 0.74277 0.5154 0.88891 0.0
C1016 C 0.61121 0.39 0.88645 0.0
C1017 C 0.59305 0.40119 0.88004 0.0
C1018 C 0.64104 0.40571 0.88176 0.0
C1019 C 0.65366 0.43325 0.87071 0.0
C1020 C 0.6354 0.44421 0.86359 0.0
C1021 C 0.60515 0.42807 0.86799 0.0
C1022 C 0.73186 0.45059 0.8666 0.0
C1023 C 0.74682 0.47859 0.87689 0.0
C1024 C 0.70186 0.43695 0.8624 0.0
C1025 C 0.68604 0.45081 0.86877 0.0
C1026 C 0.70142 0.47991 0.87702 0.0
C1027 C 0.7317 0.49378 0.88096 0.0
H1028 H 0.30188 0.73321 0.39622 0.0
H1029 H 0.23632 0.74693 0.36242 0.0
H1030 H 0.27278 0.68112 0.3886 0.0
H1031 H 0.20656 0.69388 0.35472 0.0
H1032 H 0.15205 0.59589 0.38735 0.0
H1033 H 0.17911 0.64918 0.3817 0.0
H1034 H 0.25385 0.64405 0.35689 0.0
H1035 H 0.22688 0.59106 0.36298 0.0
C1036 C 0.2813 0.72504 0.38683 0.0
C1037 C 0.27127 0.7441 0.38004 0.0
C1038 C 0.26469 0.69514 0.38226 0.0
C1039 C 0.23736 0.68329 0.37096 0.0
C1040 C 0.22754 0.7024 0.3635 0.0
C1041 C 0.24457 0.7327 0.36776 0.0
C1042 C 0.1739 0.6062 0.37991 0.0
C1043 C 0.18745 0.58962 0.37541 0.0
C1044 C 0.18938 0.63664 0.37664 0.0
C1045 C 0.21873 0.65088 0.36905 0.0
C1046 C 0.2314 0.63379 0.36299 0.0
C1047 C 0.21597 0.60348 0.36631 0.0
H1048 H 0.49882 0.23815 0.89305 0.0
H1049 H 0.5732 0.31758 0.86725 0.0
H1050 H 0.52624 0.21241 0.88824 0.0
H1051 H 0.60018 0.29182 0.86146 0.0
H1052 H 0.65209 0.25259 0.89475 0.0
H1053 H 0.62255 0.2755 0.88946 0.0
H1054 H 0.55081 0.19369 0.8637 0.0
H1055 H 0.58025 0.17039 0.86969 0.0
C1056 C 0.52065 0.24978 0.88558 0.0
C1057 C 0.5341 0.27985 0.8808 0.0
C1058 C 0.53639 0.23509 0.88279 0.0
C1059 C 0.56567 0.25023 0.87493 0.0
C1060 C 0.57802 0.27972 0.86821 0.0
C1061 C 0.5625 0.29442 0.87133 0.0
C1062 C 0.63013 0.23949 0.88775 0.0
C1063 C 0.61847 0.20958 0.88289 0.0
C1064 C 0.6132 0.25271 0.8845 0.0
C1065 C 0.58424 0.23644 0.87613 0.0
C1066 C 0.57289 0.20675 0.87046 0.0
C1067 C 0.58984 0.19345 0.87379 0.0
H1068 H 0.26493 0.57859 0.38754 0.0
H1069 H 0.25444 0.49391 0.37065 0.0
H1070 H 0.31669 0.60141 0.3803 0.0
H1071 H 0.30689 0.51727 0.36223 0.0
H1072 H 0.40481 0.5663 0.38742 0.0
H1073 H 0.35166 0.53937 0.38373 0.0
H1074 H 0.35458 0.61598 0.35315 0.0
H1075 H 0.4075 0.64322 0.35833 0.0
C1076 C 0.27359 0.5648 0.38186 0.0
C1077 C 0.25548 0.53429 0.38001 0.0
C1078 C 0.30346 0.57805 0.37738 0.0
C1079 C 0.31619 0.56129 0.37058 0.0
C1080 C 0.29792 0.53084 0.36773 0.0
C1081 C 0.26783 0.51745 0.37242 0.0
C1082 C 0.39405 0.57712 0.37947 0.0
C1083 C 0.41009 0.60691 0.37347 0.0
C1084 C 0.36355 0.56166 0.37724 0.0
C1085 C 0.34864 0.57562 0.36858 0.0
C1086 C 0.36517 0.60475 0.36061 0.0
C1087 C 0.39551 0.62035 0.36338 0.0
H1088 H 0.76409 0.40176 0.88217 0.0
H1089 H 0.85182 0.41675 0.87452 0.0
H1090 H 0.74437 0.34922 0.87608 0.0
H1091 H 0.83206 0.3638 0.86934 0.0
H1092 H 0.77269 0.26954 0.91146 0.0
H1093 H 0.79937 0.32251 0.90459 0.0
H1094 H 0.74584 0.31047 0.84284 0.0
H1095 H 0.71989 0.25719 0.84921 0.0
C1096 C 0.77907 0.3938 0.87864 0.0
C1097 C 0.8094 0.41318 0.87865 0.0
C1098 C 0.76782 0.36382 0.8751 0.0
C1099 C 0.78672 0.35256 0.87219 0.0
C1100 C 0.81708 0.37204 0.87139 0.0
C1101 C 0.82834 0.40223 0.87425 0.0
C1102 C 0.76741 0.2782 0.89594 0.0
C1103 C 0.74458 0.25946 0.88068 0.0
C1104 C 0.78264 0.30841 0.892 0.0
C1105 C 0.77468 0.32047 0.87315 0.0
C1106 C 0.7525 0.30162 0.85736 0.0
C1107 C 0.73781 0.27125 0.86093 0.0
H1108 H 0.36109 0.75434 0.38804 0.0
H1109 H 0.43402 0.8405 0.37297 0.0
H1110 H 0.39171 0.73306 0.37926 0.0
H1111 H 0.4645 0.81909 0.36399 0.0
H1112 H 0.51278 0.77006 0.39303 0.0
H1113 H 0.48522 0.79574 0.38958 0.0
H1114 H 0.41933 0.72398 0.348 0.0
H1115 H 0.4471 0.69837 0.35169 0.0
C1116 C 0.38353 0.76871 0.38259 0.0
C1117 C 0.39518 0.79916 0.38153 0.0
C1118 C 0.40101 0.75648 0.37732 0.0
C1119 C 0.43055 0.77443 0.37096 0.0
C1120 C 0.4419 0.80475 0.36903 0.0
C1121 C 0.42438 0.81697 0.37416 0.0
C1122 C 0.49306 0.76048 0.38231 0.0
C1123 C 0.48216 0.73263 0.37227 0.0
C1124 C 0.4772 0.77506 0.38038 0.0
C1125 C 0.44996 0.76174 0.36869 0.0
C1126 C 0.4401 0.73464 0.3573 0.0
C1127 C 0.4561 0.72017 0.35912 0.0
H1128 H 0.58061 0.26141 0.14023 0.0
H1129 H 0.50249 0.26174 0.11811 0.0
H1130 H 0.60603 0.3144 0.14478 0.0
H1131 H 0.52824 0.31502 0.12163 0.0
H1132 H 0.65235 0.4049 0.11019 0.0
H1133 H 0.62504 0.35245 0.11623 0.0
H1134 H 0.55268 0.35919 0.14495 0.0
H1135 H 0.57984 0.41197 0.13814 0.0
C1136 C 0.5688 0.27288 0.13663 0.0
C1137 C 0.53974 0.25761 0.12855 0.0
C1138 C 0.58339 0.30324 0.13906 0.0
C1139 C 0.56942 0.31907 0.13303 0.0
C1140 C 0.53966 0.30355 0.12653 0.0
C1141 C 0.52488 0.27302 0.12446 0.0
C1142 C 0.6307 0.39532 0.11795 0.0
C1143 C 0.6182 0.41265 0.12345 0.0
C1144 C 0.61508 0.36517 0.12164 0.0
C1145 C 0.58663 0.35152 0.13116 0.0
C1146 C 0.5744 0.36895 0.13734 0.0
C1147 C 0.59003 0.39921 0.13352 0.0
H1148 H 0.31522 0.57252 0.63463 0.0
H1149 H 0.23534 0.49585 0.61234 0.0
H1150 H 0.28892 0.59894 0.64031 0.0
H1151 H 0.209 0.52272 0.61688 0.0
H1152 H 0.2464 0.64841 0.60921 0.0
H1153 H 0.2704 0.61985 0.61358 0.0
H1154 H 0.19034 0.54727 0.64089 0.0
H1155 H 0.16583 0.57573 0.63566 0.0
C1156 C 0.29189 0.56126 0.63117 0.0
C1157 C 0.27732 0.53228 0.62283 0.0
C1158 C 0.27684 0.57645 0.63424 0.0
C1159 C 0.24695 0.56325 0.62852 0.0
C1160 C 0.23197 0.53358 0.62157 0.0
C1161 C 0.24702 0.51816 0.61891 0.0
C1162 C 0.23388 0.62647 0.61635 0.0
C1163 C 0.20408 0.61432 0.62188 0.0
C1164 C 0.24777 0.61008 0.61907 0.0
C1165 C 0.23236 0.58117 0.62764 0.0
C1166 C 0.20278 0.56931 0.63395 0.0
C1167 C 0.18878 0.58571 0.63108 0.0
H1168 H 0.75059 0.22734 0.12481 0.0
H1169 H 0.74195 0.29675 0.15705 0.0
H1170 H 0.69754 0.1946 0.12777 0.0
H1171 H 0.689 0.26406 0.16035 0.0
H1172 H 0.5922 0.19298 0.16662 0.0
H1173 H 0.64462 0.21458 0.17593 0.0
H1174 H 0.66149 0.20285 0.10269 0.0
H1175 H 0.60981 0.18213 0.0934 0.0
C1176 C 0.73745 0.23506 0.13361 0.0
C1177 C 0.75019 0.26427 0.14108 0.0
C1178 C 0.70714 0.21648 0.13512 0.0
C1179 C 0.68916 0.22684 0.14421 0.0
C1180 C 0.70232 0.25537 0.15355 0.0
C1181 C 0.73258 0.27405 0.15173 0.0
C1182 C 0.60716 0.19459 0.15271 0.0
C1183 C 0.59711 0.18612 0.12928 0.0
C1184 C 0.63705 0.20696 0.158 0.0
C1185 C 0.65707 0.2102 0.14006 0.0
C1186 C 0.64658 0.20025 0.11696 0.0
C1187 C 0.61702 0.18863 0.11159 0.0
H1188 H 0.42965 0.73908 0.64121 0.0
H1189 H 0.51193 0.74144 0.63285 0.0
H1190 H 0.40455 0.68599 0.64568 0.0
H1191 H 0.48671 0.68788 0.63664 0.0
H1192 H 0.42748 0.58752 0.64997 0.0
H1193 H 0.45358 0.6401 0.65999 0.0
H1194 H 0.39719 0.65299 0.61188 0.0
H1195 H 0.37164 0.60142 0.60203 0.0
C1196 C 0.44243 0.72819 0.64113 0.0
C1197 C 0.47258 0.74409 0.63677 0.0
C1198 C 0.42811 0.69784 0.64352 0.0
C1199 C 0.4436 0.68273 0.64107 0.0
C1200 C 0.47424 0.69894 0.63874 0.0
C1201 C 0.48868 0.72952 0.63659 0.0
C1202 C 0.42063 0.60169 0.64181 0.0
C1203 C 0.39773 0.59047 0.62506 0.0
C1204 C 0.43556 0.63169 0.64747 0.0
C1205 C 0.42727 0.65061 0.63688 0.0
C1206 C 0.40385 0.63899 0.62068 0.0
C1207 C 0.38938 0.60942 0.61482 0.0
H1208 H 0.84619 0.43728 0.13165 0.0
H1209 H 0.75939 0.36306 0.14167 0.0
H1210 H 0.82638 0.47016 0.13383 0.0
H1211 H 0.73974 0.39635 0.14426 0.0
H1212 H 0.72047 0.47172 0.16165 0.0
H1213 H 0.74492 0.44321 0.16935 0.0
H1214 H 0.78961 0.47145 0.1019 0.0
H1215 H 0.7646 0.49894 0.09394 0.0
C1216 C 0.82299 0.42797 0.13491 0.0
C1217 C 0.80431 0.39745 0.13625 0.0
C1218 C 0.8117 0.44687 0.13611 0.0
C1219 C 0.78159 0.43575 0.13914 0.0
C1220 C 0.7631 0.40545 0.14209 0.0
C1221 C 0.77433 0.38642 0.14048 0.0
C1222 C 0.73608 0.47231 0.14882 0.0
C1223 C 0.74089 0.48758 0.12729 0.0
C1224 C 0.74982 0.45588 0.15312 0.0
C1225 C 0.76913 0.45523 0.13622 0.0
C1226 C 0.77503 0.4718 0.1153 0.0
C1227 C 0.76076 0.48751 0.11074 0.0
H1228 H 0.39388 0.75871 0.63362 0.0
H1229 H 0.40753 0.84629 0.62728 0.0
H1230 H 0.34148 0.73965 0.63892 0.0
H1231 H 0.35506 0.82704 0.6323 0.0
H1232 H 0.24883 0.71584 0.65939 0.0
H1233 H 0.30207 0.74196 0.66594 0.0
H1234 H 0.31414 0.79335 0.60276 0.0
H1235 H 0.26134 0.76683 0.596 0.0
C1236 C 0.38578 0.77394 0.63373 0.0
C1237 C 0.40484 0.80396 0.62977 0.0
C1238 C 0.35582 0.76304 0.63696 0.0
C1239 C 0.34426 0.7819 0.63597 0.0
C1240 C 0.36344 0.81206 0.63309 0.0
C1241 C 0.39346 0.82303 0.63024 0.0
C1242 C 0.26293 0.7334 0.64744 0.0
C1243 C 0.25124 0.73961 0.62732 0.0
C1244 C 0.29328 0.74812 0.65104 0.0
C1245 C 0.31216 0.76962 0.63483 0.0
C1246 C 0.30011 0.77712 0.61566 0.0
C1247 C 0.26996 0.76199 0.61178 0.0
H1248 H 0.14425 0.52395 0.19536 0.0
H1249 H 0.1545 0.44772 0.19258 0.0
H1250 H 0.14342 0.52187 0.23864 0.0
H1251 H 0.15337 0.44554 0.23606 0.0
H1252 H 0.18494 0.47452 0.31375 0.0
H1253 H 0.18415 0.4742 0.27029 0.0
H1254 H 0.11216 0.4911 0.27124 0.0
H1255 H 0.11307 0.49173 0.31462 0.0
C1256 C 0.14616 0.50662 0.20394 0.0
C1257 C 0.1494 0.48596 0.19042 0.0
C1258 C 0.14553 0.50535 0.2288 0.0
C1259 C 0.14827 0.48351 0.24081 0.0
C1260 C 0.15146 0.46279 0.22734 0.0
C1261 C 0.15192 0.46394 0.20241 0.0
C1262 C 0.16887 0.47808 0.30471 0.0
C1263 C 0.14911 0.48321 0.31773 0.0
C1264 C 0.16832 0.47772 0.27979 0.0
C1265 C 0.14813 0.48268 0.2673 0.0
C1266 C 0.12822 0.48755 0.28031 0.0
C1267 C 0.12866 0.48776 0.30521 0.0
H1268 H 0.70486 0.1466 0.81297 0.0
H1269 H 0.64142 0.17547 0.81333 0.0
H1270 H 0.70346 0.14503 0.76961 0.0
H1271 H 0.64089 0.17512 0.77 0.0
H1272 H 0.62099 0.13943 0.69457 0.0
H1273 H 0.62374 0.14226 0.73776 0.0
H1274 H 0.71653 0.17322 0.73436 0.0
H1275 H 0.71345 0.16917 0.69107 0.0
C1276 C 0.69089 0.15297 0.80377 0.0
C1277 C 0.6731 0.16096 0.81659 0.0
C1278 C 0.69019 0.15223 0.77887 0.0
C1279 C 0.67195 0.15981 0.76619 0.0
C1280 C 0.65472 0.1685 0.7791 0.0
C1281 C 0.65515 0.16888 0.80397 0.0
C1282 C 0.642 0.14686 0.70302 0.0
C1283 C 0.66698 0.15398 0.68936 0.0
C1284 C 0.64364 0.1487 0.72784 0.0
C1285 C 0.67039 0.15808 0.73967 0.0
C1286 C 0.69545 0.16545 0.72595 0.0
C1287 C 0.69373 0.16329 0.7011 0.0
H1288 H 0.50679 0.62032 0.18912 0.0
H1289 H 0.52368 0.70934 0.19047 0.0
H1290 H 0.50899 0.62036 0.23247 0.0
H1291 H 0.52547 0.70916 0.23388 0.0
H1292 H 0.48028 0.61962 0.30964 0.0
H1293 H 0.48039 0.62051 0.26636 0.0
H1294 H 0.55493 0.70813 0.26731 0.0
H1295 H 0.55464 0.70745 0.31085 0.0
C1296 C 0.51094 0.63991 0.19862 0.0
C1297 C 0.51502 0.66481 0.18621 0.0
C1298 C 0.51207 0.63987 0.22353 0.0
C1299 C 0.51736 0.66475 0.23671 0.0
C1300 C 0.52169 0.68975 0.22431 0.0
C1301 C 0.52047 0.68976 0.19939 0.0
C1302 C 0.49682 0.6391 0.3007 0.0
C1303 C 0.51751 0.66347 0.31384 0.0
C1304 C 0.49696 0.63952 0.27581 0.0
C1305 C 0.51771 0.66435 0.26329 0.0
C1306 C 0.53846 0.68874 0.27638 0.0
C1307 C 0.5384 0.68828 0.30135 0.0
H1308 H 0.85091 0.55677 0.69681 0.0
H1309 H 0.85373 0.47637 0.70063 0.0
H1310 H 0.8542 0.56075 0.7401 0.0
H1311 H 0.8566 0.48023 0.74384 0.0
H1312 H 0.88838 0.51061 0.81953 0.0
H1313 H 0.88976 0.51069 0.77609 0.0
H1314 H 0.8222 0.53401 0.77392 0.0
H1315 H 0.82102 0.53437 0.81719 0.0
C1316 C 0.85228 0.53998 0.70685 0.0
C1317 C 0.85201 0.51623 0.69526 0.0
C1318 C 0.85405 0.54222 0.73164 0.0
C1319 C 0.85565 0.5208 0.74532 0.0
C1320 C 0.85578 0.49728 0.73374 0.0
C1321 C 0.85393 0.49498 0.70898 0.0
C1322 C 0.87397 0.51596 0.80979 0.0
C1323 C 0.85457 0.52244 0.82183 0.0
C1324 C 0.87467 0.51586 0.78493 0.0
C1325 C 0.85607 0.52233 0.77165 0.0
C1326 C 0.83705 0.5293 0.78368 0.0
C1327 C 0.83627 0.52932 0.8085 0.0
H1328 H 0.37084 0.83326 0.31435 0.0
H1329 H 0.30315 0.85643 0.31511 0.0
H1330 H 0.36974 0.83231 0.27101 0.0
H1331 H 0.30289 0.85679 0.27177 0.0
H1332 H 0.29059 0.83027 0.19387 0.0
H1333 H 0.28973 0.82757 0.23722 0.0
H1334 H 0.38345 0.86337 0.23785 0.0
H1335 H 0.38403 0.86481 0.19461 0.0
C1336 C 0.35588 0.83839 0.30524 0.0
C1337 C 0.33715 0.84501 0.31818 0.0
C1338 C 0.35534 0.83801 0.28035 0.0
C1339 C 0.33633 0.84462 0.26775 0.0
C1340 C 0.3175 0.85111 0.28077 0.0
C1341 C 0.31777 0.85111 0.30567 0.0
C1342 C 0.31097 0.83748 0.2033 0.0
C1343 C 0.33736 0.84776 0.19077 0.0
C1344 C 0.31053 0.8361 0.2282 0.0
C1345 C 0.33654 0.8453 0.24118 0.0
C1346 C 0.3629 0.85556 0.22855 0.0
C1347 C 0.36327 0.85659 0.20369 0.0
H1348 H 0.48865 0.29612 0.69563 0.0
H1349 H 0.4795 0.37291 0.69451 0.0
H1350 H 0.48949 0.29724 0.7389 0.0
H1351 H 0.47889 0.37331 0.73791 0.0
H1352 H 0.50714 0.38372 0.81591 0.0
H1353 H 0.50658 0.38316 0.77251 0.0
H1354 H 0.4624 0.28859 0.77336 0.0
H1355 H 0.46433 0.28939 0.81662 0.0
C1356 C 0.4864 0.31305 0.70463 0.0
C1357 C 0.48395 0.33439 0.69148 0.0
C1358 C 0.48671 0.31362 0.7296 0.0
C1359 C 0.48415 0.33531 0.74227 0.0
C1360 C 0.48144 0.35652 0.72902 0.0
C1361 C 0.48155 0.35618 0.70402 0.0
C1362 C 0.4973 0.36281 0.80681 0.0
C1363 C 0.48588 0.33662 0.81986 0.0
C1364 C 0.49678 0.36244 0.78181 0.0
C1365 C 0.48447 0.33582 0.76907 0.0
C1366 C 0.47268 0.30962 0.78226 0.0
C1367 C 0.47358 0.31004 0.80722 0.0
H1368 H 0.50431 0.88867 0.81653 0.0
H1369 H 0.52215 0.81721 0.81692 0.0
H1370 H 0.50437 0.88837 0.7731 0.0
H1371 H 0.52178 0.81669 0.77352 0.0
H1372 H 0.54887 0.84409 0.69601 0.0
H1373 H 0.54997 0.84561 0.73943 0.0
H1374 H 0.47524 0.85822 0.73976 0.0
H1375 H 0.47435 0.85713 0.69636 0.0
C1376 C 0.50823 0.87288 0.8074 0.0
C1377 C 0.51329 0.85301 0.82033 0.0
C1378 C 0.50809 0.87259 0.78245 0.0
C1379 C 0.51308 0.8525 0.76975 0.0
C1380 C 0.51824 0.83272 0.78268 0.0
C1381 C 0.51828 0.83292 0.80762 0.0
C1382 C 0.5327 0.84727 0.70531 0.0
C1383 C 0.51156 0.85055 0.69259 0.0
C1384 C 0.53323 0.84796 0.73025 0.0
C1385 C 0.51269 0.85203 0.74315 0.0
C1386 C 0.49163 0.85543 0.73043 0.0
C1387 C 0.49103 0.85464 0.7055 0.0
H1388 H 0.62407 0.48023 0.19576 0.0
H1389 H 0.71612 0.54489 0.19512 0.0
H1390 H 0.62487 0.47939 0.23908 0.0
H1391 H 0.71732 0.54315 0.23839 0.0
H1392 H 0.70272 0.55742 0.31598 0.0
H1393 H 0.70242 0.55757 0.27268 0.0
H1394 H 0.64086 0.4645 0.27252 0.0
H1395 H 0.64023 0.46471 0.31589 0.0
C1396 C 0.64457 0.49404 0.20487 0.0
C1397 C 0.66999 0.51277 0.19199 0.0
C1398 C 0.6451 0.49343 0.22976 0.0
C1399 C 0.67116 0.51124 0.24238 0.0
C1400 C 0.6967 0.52957 0.22939 0.0
C1401 C 0.69607 0.53046 0.20453 0.0
C1402 C 0.68919 0.53697 0.3067 0.0
C1403 C 0.67141 0.51108 0.31939 0.0
C1404 C 0.68913 0.537 0.28181 0.0
C1405 C 0.6716 0.51104 0.26895 0.0
C1406 C 0.65421 0.48503 0.28173 0.0
C1407 C 0.65398 0.48509 0.30663 0.0
H1408 H 0.13764 0.69811 0.81321 0.0
H1409 H 0.16646 0.63463 0.8127 0.0
H1410 H 0.13675 0.69767 0.76979 0.0
H1411 H 0.16692 0.63513 0.76944 0.0
H1412 H 0.13664 0.61926 0.69272 0.0
H1413 H 0.13629 0.61957 0.73603 0.0
H1414 H 0.16623 0.7123 0.7355 0.0
H1415 H 0.16522 0.71158 0.69215 0.0
C1416 C 0.14404 0.68427 0.80381 0.0
C1417 C 0.15192 0.66627 0.81638 0.0
C1418 C 0.14371 0.68412 0.77889 0.0
C1419 C 0.15169 0.66629 0.76597 0.0
C1420 C 0.16 0.64865 0.77867 0.0
C1421 C 0.15991 0.64849 0.80353 0.0
C1422 C 0.14312 0.6397 0.70186 0.0
C1423 C 0.15088 0.66537 0.68899 0.0
C1424 C 0.14311 0.63995 0.72675 0.0
C1425 C 0.15131 0.66599 0.73941 0.0
C1426 C 0.15927 0.69171 0.72645 0.0
C1427 C 0.15887 0.69136 0.70156 0.0
H1428 H 0.49284 0.19348 0.31527 0.0
H1429 H 0.47915 0.10571 0.31492 0.0
H1430 H 0.49449 0.19431 0.27195 0.0
H1431 H 0.47941 0.1059 0.27155 0.0
H1432 H 0.50911 0.12427 0.19419 0.0
H1433 H 0.5082 0.12378 0.23756 0.0
H1434 H 0.46764 0.17745 0.23696 0.0
H1435 H 0.46989 0.17899 0.19368 0.0
C1436 C 0.48983 0.17419 0.30593 0.0
C1437 C 0.48586 0.14954 0.31869 0.0
C1438 C 0.4906 0.17457 0.28096 0.0
C1439 C 0.48703 0.15015 0.2679 0.0
C1440 C 0.4828 0.12539 0.28075 0.0
C1441 C 0.48243 0.12517 0.30574 0.0
C1442 C 0.49998 0.13595 0.20333 0.0
C1443 C 0.48961 0.15169 0.19034 0.0
C1444 C 0.49927 0.13554 0.22832 0.0
C1445 C 0.4878 0.15055 0.24111 0.0
C1446 C 0.47719 0.16607 0.228 0.0
C1447 C 0.47827 0.16679 0.20304 0.0
H1448 H 0.37907 0.49833 0.69086 0.0
H1449 H 0.28836 0.47601 0.68981 0.0
H1450 H 0.37868 0.49939 0.73429 0.0
H1451 H 0.28815 0.47739 0.73319 0.0
H1452 H 0.29076 0.45077 0.81092 0.0
H1453 H 0.29086 0.4499 0.76749 0.0
H1454 H 0.37541 0.52879 0.76696 0.0
H1455 H 0.37553 0.52957 0.81037 0.0
C1456 C 0.35905 0.49366 0.69985 0.0
C1457 C 0.33373 0.487 0.68678 0.0
C1458 C 0.35889 0.49445 0.72477 0.0
C1459 C 0.33338 0.48849 0.73723 0.0
C1460 C 0.30806 0.48177 0.72417 0.0
C1461 C 0.30825 0.48112 0.69926 0.0
C1462 C 0.30937 0.46798 0.80157 0.0
C1463 C 0.33318 0.49018 0.81421 0.0
C1464 C 0.30935 0.46755 0.77665 0.0
C1465 C 0.33318 0.48923 0.76374 0.0
C1466 C 0.35688 0.51154 0.77636 0.0
C1467 C 0.35685 0.51207 0.80127 0.0
H1468 H 0.86126 0.3811 0.19899 0.0
H1469 H 0.85497 0.29625 0.19576 0.0
H1470 H 0.86174 0.37949 0.2422 0.0
H1471 H 0.85597 0.29496 0.23919 0.0
H1472 H 0.81923 0.28826 0.31494 0.0
H1473 H 0.82295 0.2903 0.27175 0.0
H1474 H 0.89173 0.38075 0.27588 0.0
H1475 H 0.88773 0.37896 0.31918 0.0
C1476 C 0.86028 0.36221 0.20747 0.0
C1477 C 0.85799 0.33874 0.19389 0.0
C1478 C 0.86074 0.3614 0.23227 0.0
C1479 C 0.85889 0.33711 0.24408 0.0
C1480 C 0.8571 0.31384 0.23055 0.0
C1481 C 0.85668 0.31465 0.20569 0.0
C1482 C 0.83525 0.30859 0.30669 0.0
C1483 C 0.85313 0.33349 0.32053 0.0
C1484 C 0.8375 0.30966 0.28192 0.0
C1485 C 0.85766 0.33566 0.27043 0.0
C1486 C 0.87578 0.36048 0.28425 0.0
C1487 C 0.87355 0.35942 0.30905 0.0
H1488 H 0.93281 0.33666 0.14712 0.0
H1489 H 0.92421 0.35643 0.07417 0.0
H1490 H 0.98548 0.35706 0.14144 0.0
H1491 H 0.97699 0.3771 0.06836 0.0
H1492 H 0.06811 0.45855 0.09092 0.0
H1493 H 0.0159 0.42407 0.08717 0.0
H1494 H 0.02799 0.35657 0.11931 0.0
H1495 H 0.08087 0.3914 0.12263 0.0
C1496 C 0.94212 0.34432 0.12961 0.0
C1497 C 0.92462 0.34469 0.11097 0.0
C1498 C 0.97223 0.35599 0.12632 0.0
C1499 C 0.98541 0.3688 0.10447 0.0
C1500 C 0.96745 0.36743 0.0854 0.0
C1501 C 0.93728 0.35543 0.08863 0.0
C1502 C 0.05972 0.43612 0.09658 0.0
C1503 C 0.07841 0.42757 0.10704 0.0
C1504 C 0.02984 0.41631 0.09433 0.0
C1505 C 0.01779 0.38757 0.10294 0.0
C1506 C 0.03669 0.37859 0.11251 0.0
C1507 C 0.06689 0.39838 0.11429 0.0
H1508 H 0.56517 0.92672 0.58017 0.0
H1509 H 0.60149 0.91847 0.64645 0.0
H1510 H 0.60069 0.97918 0.57938 0.0
H1511 H 0.63717 0.97106 0.64584 0.0
H1512 H 0.64136 0.06242 0.6548 0.0
H1513 H 0.62432 0.01031 0.65202 0.0
H1514 H 0.65352 0.02145 0.57895 0.0
H1515 H 0.67114 0.07423 0.582 0.0
C1516 C 0.58165 0.93603 0.59402 0.0
C1517 C 0.581 0.91873 0.6132 0.0
C1518 C 0.60199 0.96603 0.5936 0.0
C1519 C 0.62166 0.9793 0.61262 0.0
C1520 C 0.62223 0.96146 0.63098 0.0
C1521 C 0.60203 0.93139 0.63127 0.0
C1522 C 0.64493 0.05388 0.63837 0.0
C1523 C 0.65753 0.07224 0.61862 0.0
C1524 C 0.63532 0.02404 0.63679 0.0
C1525 C 0.63754 0.01171 0.61525 0.0
C1526 C 0.65153 0.03036 0.59577 0.0
C1527 C 0.66176 0.06051 0.59754 0.0
H1528 H 0.63941 0.57567 0.15605 0.0
H1529 H 0.67976 0.60109 0.0868 0.0
H1530 H 0.62174 0.6102 0.15236 0.0
H1531 H 0.66136 0.63545 0.08278 0.0
H1532 H 0.56962 0.63541 0.07686 0.0
H1533 H 0.6064 0.62043 0.07917 0.0
H1534 H 0.63556 0.66443 0.14692 0.0
H1535 H 0.59892 0.67997 0.14434 0.0
C1536 C 0.64505 0.5892 0.14026 0.0
C1537 C 0.66079 0.58568 0.12165 0.0
C1538 C 0.63513 0.60913 0.13821 0.0
C1539 C 0.64018 0.62552 0.11729 0.0
C1540 C 0.65725 0.62312 0.09913 0.0
C1541 C 0.66781 0.60358 0.10144 0.0
C1542 C 0.58461 0.64276 0.09183 0.0
C1543 C 0.58141 0.65872 0.11047 0.0
C1544 C 0.60575 0.63431 0.0931 0.0
C1545 C 0.62373 0.64114 0.11328 0.0
C1546 C 0.62194 0.65888 0.13117 0.0
C1547 C 0.60112 0.66789 0.12965 0.0
H1548 H 0.06563 0.62105 0.58581 0.0
H1549 H 0.07427 0.6866 0.63621 0.0
H1550 H 0.01294 0.60197 0.58357 0.0
H1551 H 0.02108 0.66703 0.63448 0.0
H1552 H 0.92971 0.57993 0.65411 0.0
H1553 H 0.98186 0.61514 0.64983 0.0
H1554 H 0.97141 0.61361 0.57348 0.0
H1555 H 0.91875 0.57873 0.57795 0.0
C1556 C 0.05622 0.63185 0.59588 0.0
C1557 C 0.07377 0.65528 0.61108 0.0
C1558 C 0.02614 0.62105 0.59453 0.0
C1559 C 0.01295 0.63305 0.60883 0.0
C1560 C 0.03077 0.65748 0.62322 0.0
C1561 C 0.06109 0.66872 0.62416 0.0
C1562 C 0.93846 0.58789 0.63649 0.0
C1563 C 0.92045 0.57685 0.61635 0.0
C1564 C 0.96822 0.60812 0.63404 0.0
C1565 C 0.98065 0.61712 0.61133 0.0
C1566 C 0.96231 0.60708 0.59119 0.0
C1567 C 0.93229 0.58728 0.59371 0.0
H1568 H 0.40248 0.08339 0.14463 0.0
H1569 H 0.43746 0.06754 0.08051 0.0
H1570 H 0.36401 0.03166 0.14544 0.0
H1571 H 0.39913 0.0163 0.08111 0.0
H1572 H 0.32699 0.92467 0.08419 0.0
H1573 H 0.34515 0.97742 0.08049 0.0
H1574 H 0.37332 0.98969 0.15389 0.0
H1575 H 0.3557 0.93747 0.15734 0.0
C1576 C 0.40128 0.06911 0.13027 0.0
C1577 C 0.42304 0.0793 0.11264 0.0
C1578 C 0.37939 0.03952 0.13077 0.0
C1579 C 0.37863 0.01989 0.11339 0.0
C1580 C 0.39888 0.03085 0.09461 0.0
C1581 C 0.42098 0.06017 0.09436 0.0
C1582 C 0.33607 0.93859 0.0997 0.0
C1583 C 0.34011 0.9272 0.121 0.0
C1584 C 0.34659 0.96872 0.09757 0.0
C1585 C 0.36078 0.98771 0.11688 0.0
C1586 C 0.36224 0.97569 0.13878 0.0
C1587 C 0.3523 0.9458 0.14074 0.0
H1588 H 0.39623 0.31741 0.64017 0.0
H1589 H 0.44179 0.37415 0.58096 0.0
H1590 H 0.35942 0.33285 0.63837 0.0
H1591 H 0.40606 0.38994 0.57941 0.0
H1592 H 0.34152 0.41618 0.57431 0.0
H1593 H 0.35845 0.38087 0.57191 0.0
H1594 H 0.36002 0.37771 0.64881 0.0
H1595 H 0.34152 0.41187 0.6509 0.0
C1596 C 0.39792 0.33253 0.6264 0.0
C1597 C 0.42197 0.34476 0.61082 0.0
C1598 C 0.37704 0.34161 0.6255 0.0
C1599 C 0.37975 0.36281 0.60884 0.0
C1600 C 0.40279 0.3733 0.59228 0.0
C1601 C 0.42355 0.36442 0.59327 0.0
C1602 C 0.34432 0.40688 0.59061 0.0
C1603 C 0.34012 0.41646 0.61276 0.0
C1604 C 0.35434 0.38693 0.58931 0.0
C1605 C 0.36131 0.3769 0.61018 0.0
C1606 C 0.35474 0.38473 0.63236 0.0
C1607 C 0.34416 0.40432 0.63362 0.0
H1608 H 0.56966 0.93905 0.92969 0.0
H1609 H 0.60052 0.925 0.8626 0.0
H1610 H 0.60691 0.99073 0.92851 0.0
H1611 H 0.63781 0.97717 0.86117 0.0
H1612 H 0.64491 0.07089 0.85233 0.0
H1613 H 0.62661 0.01851 0.85534 0.0
H1614 H 0.66092 0.03054 0.92684 0.0
H1615 H 0.67982 0.0835 0.92356 0.0
C1616 C 0.58508 0.94692 0.91504 0.0
C1617 C 0.58218 0.92813 0.89619 0.0
C1618 C 0.60652 0.9765 0.91442 0.0
C1619 C 0.62519 0.98808 0.89468 0.0
C1620 C 0.62365 0.96884 0.87658 0.0
C1621 C 0.60247 0.939 0.87744 0.0
C1622 C 0.64929 0.06245 0.86844 0.0
C1623 C 0.66362 0.08114 0.88776 0.0
C1624 C 0.63899 0.03247 0.87011 0.0
C1625 C 0.64226 0.02036 0.89134 0.0
C1626 C 0.6581 0.03929 0.91025 0.0
C1627 C 0.669 0.06954 0.90837 0.0
H1628 H 0.57164 0.64005 0.4278 0.0
H1629 H 0.60159 0.67572 0.35773 0.0
H1630 H 0.60651 0.62228 0.42859 0.0
H1631 H 0.63666 0.65821 0.3584 0.0
H1632 H 0.64005 0.5709 0.35425 0.0
H1633 H 0.62254 0.60556 0.35599 0.0
H1634 H 0.65913 0.63203 0.42653 0.0
H1635 H 0.67714 0.59713 0.42458 0.0
C1636 C 0.58661 0.6451 0.41302 0.0
C1637 C 0.58432 0.65941 0.39281 0.0
C1638 C 0.60657 0.63499 0.41344 0.0
C1639 C 0.6242 0.63869 0.39348 0.0
C1640 C 0.62324 0.6549 0.37397 0.0
C1641 C 0.60338 0.66509 0.37362 0.0
C1642 C 0.64496 0.5846 0.36992 0.0
C1643 C 0.65983 0.58132 0.38931 0.0
C1644 C 0.63511 0.60463 0.37086 0.0
C1645 C 0.63946 0.62157 0.39139 0.0
C1646 C 0.65547 0.61923 0.41049 0.0
C1647 C 0.66589 0.59945 0.40934 0.0
H1648 H 0.92851 0.60382 0.86795 0.0
H1649 H 0.92873 0.57048 0.93798 0.0
H1650 H 0.98148 0.63729 0.87086 0.0
H1651 H 0.98112 0.60451 0.94138 0.0
H1652 H 0.06854 0.61543 0.91378 0.0
H1653 H 0.01694 0.59774 0.91954 0.0
H1654 H 0.02747 0.67808 0.89009 0.0
H1655 H 0.08013 0.696 0.88436 0.0
C1656 C 0.9397 0.60461 0.88435 0.0
C1657 C 0.92477 0.58441 0.90262 0.0
C1658 C 0.97 0.62378 0.88606 0.0
C1659 C 0.9856 0.62311 0.90616 0.0
C1660 C 0.96986 0.60511 0.92545 0.0
C1661 C 0.93986 0.58573 0.92357 0.0
C1662 C 0.06002 0.62965 0.90905 0.0
C1663 C 0.07823 0.65705 0.89869 0.0
C1664 C 0.03042 0.6196 0.91249 0.0
C1665 C 0.01801 0.63654 0.9054 0.0
C1666 C 0.03643 0.66455 0.89574 0.0
C1667 C 0.06649 0.6749 0.89263 0.0
H1668 H 0.30861 0.91909 0.37735 0.0
H1669 H 0.38549 0.93305 0.4154 0.0
H1670 H 0.32525 0.9718 0.38076 0.0
H1671 H 0.40185 0.98478 0.41905 0.0
H1672 H 0.40294 0.07047 0.35967 0.0
H1673 H 0.36905 0.01755 0.36267 0.0
H1674 H 0.39073 0.02058 0.43716 0.0
H1675 H 0.42506 0.07297 0.43385 0.0
C1676 C 0.32856 0.9333 0.38699 0.0
C1677 C 0.34579 0.9222 0.39622 0.0
C1678 C 0.33818 0.96337 0.3888 0.0
C1679 C 0.36476 0.98245 0.40032 0.0
C1680 C 0.38103 0.97074 0.41047 0.0
C1681 C 0.37176 0.94109 0.40828 0.0
C1682 C 0.39938 0.05993 0.37686 0.0
C1683 C 0.41653 0.07558 0.39653 0.0
C1684 C 0.38004 0.02965 0.37861 0.0
C1685 C 0.37765 0.01481 0.40006 0.0
C1686 C 0.39246 0.03129 0.4203 0.0
C1687 C 0.41194 0.0613 0.41848 0.0
H1688 H 0.32376 0.40435 0.92006 0.0
H1689 H 0.36444 0.42958 0.8509 0.0
H1690 H 0.34131 0.3693 0.92399 0.0
H1691 H 0.38127 0.39437 0.85452 0.0
H1692 H 0.40208 0.32319 0.86218 0.0
H1693 H 0.36612 0.33964 0.8598 0.0
H1694 H 0.39612 0.38336 0.92757 0.0
H1695 H 0.43223 0.36749 0.92967 0.0
C1696 C 0.33564 0.40172 0.90544 0.0
C1697 C 0.34299 0.41975 0.88527 0.0
C1698 C 0.3457 0.38177 0.90769 0.0
C1699 C 0.36258 0.37908 0.88953 0.0
C1700 C 0.36802 0.39567 0.86867 0.0
C1701 C 0.3586 0.416 0.86668 0.0
C1702 C 0.40017 0.33539 0.87693 0.0
C1703 C 0.41994 0.34424 0.89605 0.0
C1704 C 0.37976 0.34492 0.87552 0.0
C1705 C 0.37845 0.36287 0.89346 0.0
C1706 C 0.39642 0.36934 0.9136 0.0
C1707 C 0.41717 0.36037 0.91476 0.0
H1708 H 0.93388 0.37422 0.4284 0.0
H1709 H 0.92151 0.31452 0.37106 0.0
H1710 H 0.98559 0.39083 0.42908 0.0
H1711 H 0.97396 0.33076 0.37208 0.0
H1712 H 0.07666 0.41811 0.43325 0.0
H1713 H 0.02457 0.38258 0.43685 0.0
H1714 H 0.01777 0.37506 0.36014 0.0
H1715 H 0.0703 0.40942 0.35688 0.0
C1716 C 0.94218 0.3641 0.41627 0.0
C1717 C 0.92365 0.34331 0.39949 0.0
C1718 C 0.97195 0.37344 0.41681 0.0
C1719 C 0.98419 0.36224 0.40058 0.0
C1720 C 0.96534 0.34007 0.38468 0.0
C1721 C 0.93527 0.33057 0.38422 0.0
C1722 C 0.06416 0.40779 0.41728 0.0
C1723 C 0.0773 0.41622 0.39482 0.0
C1724 C 0.03426 0.38773 0.41926 0.0
C1725 C 0.0167 0.37645 0.39876 0.0
C1726 C 0.0305 0.38308 0.37633 0.0
C1727 C 0.06062 0.40277 0.3744 0.0
H1728 H 0.3023 0.46462 0.97933 0.0
H1729 H 0.22957 0.4412 0.93179 0.0
H1730 H 0.27112 0.45855 0.01336 0.0
H1731 H 0.19826 0.43508 0.96595 0.0
H1732 H 0.1797 0.48602 0.02665 0.0
H1733 H 0.19996 0.47388 0.99244 0.0
H1734 H 0.22743 0.42645 0.03825 0.0
H1735 H 0.20708 0.43866 0.07266 0.0
C1736 C 0.27938 0.45725 0.97621 0.0
C1737 C 0.26846 0.45354 0.95285 0.0
C1738 C 0.26146 0.45369 0.99574 0.0
C1739 C 0.23226 0.44665 0.99237 0.0
C1740 C 0.22075 0.44081 0.96911 0.0
C1741 C 0.23862 0.44402 0.94955 0.0
C1742 C 0.1895 0.47247 0.02939 0.0
C1743 C 0.19198 0.46353 0.05243 0.0
C1744 C 0.20095 0.46532 0.00972 0.0
C1745 C 0.21546 0.44931 0.01261 0.0
C1746 C 0.21656 0.439 0.03547 0.0
C1747 C 0.20474 0.44585 0.05516 0.0
H1748 H 0.7882 0.22284 0.43018 0.0
H1749 H 0.82578 0.29529 0.47938 0.0
H1750 H 0.76478 0.18882 0.46348 0.0
H1751 H 0.80291 0.26164 0.51262 0.0
H1752 H 0.69043 0.16162 0.52284 0.0
H1753 H 0.72324 0.18417 0.48914 0.0
H1754 H 0.79761 0.21883 0.5365 0.0
H1755 H 0.76485 0.19626 0.5703 0.0
C1756 C 0.79245 0.23125 0.44823 0.0
C1757 C 0.80907 0.26148 0.45242 0.0
C1758 C 0.77886 0.2119 0.46722 0.0
C1759 C 0.78196 0.22255 0.49066 0.0
C1760 C 0.80042 0.25267 0.49485 0.0
C1761 C 0.81356 0.27196 0.47587 0.0
C1762 C 0.71381 0.17338 0.52602 0.0
C1763 C 0.72495 0.1775 0.54933 0.0
C1764 C 0.73265 0.18617 0.50666 0.0
C1765 C 0.763 0.20354 0.51021 0.0
C1766 C 0.77429 0.20579 0.53327 0.0
C1767 C 0.75548 0.19273 0.55261 0.0
H1768 H 0.56223 0.76936 0.07329 0.0
H1769 H 0.52173 0.69672 0.02437 0.0
H1770 H 0.57236 0.80351 0.04013 0.0
H1771 H 0.53245 0.7306 0.99126 0.0
H1772 H 0.56202 0.79864 0.93374 0.0
H1773 H 0.57235 0.77473 0.96686 0.0
H1774 H 0.53213 0.80719 0.01578 0.0
H1775 H 0.5212 0.83024 0.98269 0.0
C1776 C 0.55671 0.76084 0.05531 0.0
C1777 C 0.5415 0.73051 0.05126 0.0
C1778 C 0.56227 0.7803 0.03639 0.0
C1779 C 0.55321 0.76973 0.01309 0.0
C1780 C 0.54005 0.73947 0.00891 0.0
C1781 C 0.53391 0.72006 0.02785 0.0
C1782 C 0.55645 0.80152 0.95172 0.0
C1783 C 0.54112 0.81648 0.95579 0.0
C1784 C 0.56214 0.78769 0.97062 0.0
C1785 C 0.55309 0.78913 0.99392 0.0
C1786 C 0.53974 0.80601 0.99812 0.0
C1787 C 0.53346 0.8192 0.9792 0.0
H1788 H 0.82009 0.515 0.53225 0.0
H1789 H 0.79289 0.5624 0.57854 0.0
H1790 H 0.80113 0.52851 0.49799 0.0
H1791 H 0.77381 0.57591 0.5441 0.0
H1792 H 0.69931 0.53674 0.48424 0.0
H1793 H 0.73012 0.54336 0.51867 0.0
H1794 H 0.80421 0.56896 0.47225 0.0
H1795 H 0.77331 0.56236 0.43769 0.0
C1796 C 0.81059 0.52881 0.53504 0.0
C1797 C 0.8077 0.53734 0.55813 0.0
C1798 C 0.79995 0.53678 0.51537 0.0
C1799 C 0.78588 0.5532 0.51836 0.0
C1800 C 0.78443 0.56312 0.54129 0.0
C1801 C 0.79545 0.55546 0.56098 0.0
C1802 C 0.7224 0.54475 0.48144 0.0
C1803 C 0.73383 0.54877 0.45827 0.0
C1804 C 0.7401 0.54864 0.50118 0.0
C1805 C 0.76951 0.55632 0.49813 0.0
C1806 C 0.78154 0.56274 0.47509 0.0
C1807 C 0.7639 0.55921 0.45533 0.0
H1808 H 0.2113 0.77295 0.93232 0.0
H1809 H 0.17788 0.69903 0.98005 0.0
H1810 H 0.23375 0.80619 0.96612 0.0
H1811 H 0.20025 0.73208 0.01364 0.0
H1812 H 0.30817 0.83982 0.02516 0.0
H1813 H 0.2762 0.81518 0.99139 0.0
H1814 H 0.20245 0.77168 0.039 0.0
H1815 H 0.23453 0.79626 0.07292 0.0
C1816 C 0.20809 0.76383 0.95006 0.0
C1817 C 0.19299 0.73333 0.95348 0.0
C1818 C 0.22112 0.78286 0.9694 0.0
C1819 C 0.21896 0.7718 0.99256 0.0
C1820 C 0.20215 0.74139 0.9961 0.0
C1821 C 0.18945 0.7224 0.9768 0.0
C1822 C 0.285 0.82559 0.0284 0.0
C1823 C 0.274 0.81976 0.05179 0.0
C1824 C 0.26661 0.81155 0.00899 0.0
C1825 C 0.23682 0.79117 0.01252 0.0
C1826 C 0.22539 0.78699 0.03573 0.0
C1827 C 0.24375 0.80127 0.05516 0.0
H1828 H 0.48758 0.30677 0.53021 0.0
H1829 H 0.43659 0.23107 0.57421 0.0
H1830 H 0.47721 0.27525 0.49541 0.0
H1831 H 0.42663 0.19914 0.53932 0.0
H1832 H 0.47094 0.16597 0.48098 0.0
H1833 H 0.46269 0.18971 0.51519 0.0
H1834 H 0.43794 0.23775 0.46757 0.0
H1835 H 0.44571 0.2134 0.43335 0.0
C1836 C 0.47334 0.28336 0.53223 0.0
C1837 C 0.46251 0.27138 0.5548 0.0
C1838 C 0.46739 0.26527 0.5123 0.0
C1839 C 0.45108 0.23463 0.51453 0.0
C1840 C 0.43923 0.22265 0.537 0.0
C1841 C 0.44467 0.24089 0.55691 0.0
C1842 C 0.46248 0.18063 0.47794 0.0
C1843 C 0.45836 0.1874 0.45459 0.0
C1844 C 0.45782 0.19431 0.49751 0.0
C1845 C 0.44971 0.21571 0.49415 0.0
C1846 C 0.44417 0.22137 0.47077 0.0
C1847 C 0.44828 0.20722 0.45119 0.0
H1848 H 0.70352 0.54493 0.0282 0.0
H1849 H 0.77529 0.56707 0.07655 0.0
H1850 H 0.73593 0.55353 0.9944 0.0
H1851 H 0.80758 0.57528 0.04267 0.0
H1852 H 0.81937 0.51865 0.98101 0.0
H1853 H 0.80086 0.53242 0.01554 0.0
H1854 H 0.784 0.58917 0.97122 0.0
H1855 H 0.80349 0.57583 0.93658 0.0
C1856 C 0.72645 0.5526 0.03157 0.0
C1857 C 0.7368 0.55507 0.05501 0.0
C1858 C 0.74503 0.55764 0.01221 0.0
C1859 C 0.77419 0.56482 0.01595 0.0
C1860 C 0.78516 0.56967 0.03933 0.0
C1861 C 0.76669 0.56511 0.05871 0.0
C1862 C 0.81264 0.53483 0.97886 0.0
C1863 C 0.81292 0.54634 0.95631 0.0
C1864 C 0.80215 0.54281 0.9986 0.0
C1865 C 0.79104 0.56191 0.99606 0.0
C1866 C 0.79257 0.5745 0.97365 0.0
C1867 C 0.8038 0.56702 0.95392 0.0
H1868 H 0.20792 0.773 0.57464 0.0
H1869 H 0.16349 0.70106 0.52529 0.0
H1870 H 0.23319 0.80599 0.54139 0.0
H1871 H 0.18871 0.73386 0.4922 0.0
H1872 H 0.23355 0.79782 0.43451 0.0
H1873 H 0.19958 0.77743 0.46791 0.0
H1874 H 0.27253 0.80684 0.51636 0.0
H1875 H 0.30643 0.82735 0.48314 0.0
C1876 C 0.20275 0.76444 0.55666 0.0
C1877 C 0.18394 0.73439 0.55256 0.0
C1878 C 0.21742 0.78328 0.53764 0.0
C1879 C 0.21322 0.77247 0.5142 0.0
C1880 C 0.19232 0.74296 0.51 0.0
C1881 C 0.17794 0.7241 0.52898 0.0
C1882 C 0.24236 0.80062 0.45235 0.0
C1883 C 0.27271 0.81379 0.45612 0.0
C1884 C 0.22287 0.78882 0.47146 0.0
C1885 C 0.23334 0.79026 0.49474 0.0
C1886 C 0.26372 0.80554 0.49869 0.0
C1887 C 0.28318 0.8171 0.47959 0.0
H1888 H 0.49116 0.1816 0.02849 0.0
H1889 H 0.44111 0.20565 0.07434 0.0
H1890 H 0.4795 0.20255 0.99436 0.0
H1891 H 0.42991 0.22748 0.04011 0.0
H1892 H 0.47392 0.30548 0.98176 0.0
H1893 H 0.46593 0.27335 0.01574 0.0
H1894 H 0.43872 0.20022 0.96782 0.0
H1895 H 0.44622 0.23248 0.93383 0.0
C1896 C 0.47692 0.19066 0.03108 0.0
C1897 C 0.46677 0.19175 0.05396 0.0
C1898 C 0.47019 0.20263 0.01154 0.0
C1899 C 0.45376 0.21669 0.01449 0.0
C1900 C 0.44256 0.21674 0.03727 0.0
C1901 C 0.44876 0.20407 0.0568 0.0
C1902 C 0.46492 0.28226 0.97863 0.0
C1903 C 0.4601 0.2713 0.95527 0.0
C1904 C 0.46042 0.26386 0.99807 0.0
C1905 C 0.45176 0.23423 0.99449 0.0
C1906 C 0.44537 0.22293 0.97114 0.0
C1907 C 0.44935 0.24128 0.95172 0.0
H1908 H 0.17787 0.48372 0.4796 0.0
H1909 H 0.20185 0.43413 0.43306 0.0
H1910 H 0.19873 0.47155 0.5135 0.0
H1911 H 0.22363 0.42248 0.46705 0.0
H1912 H 0.30275 0.46963 0.52479 0.0
H1913 H 0.26985 0.46012 0.49107 0.0
H1914 H 0.19691 0.42998 0.53948 0.0
H1915 H 0.22997 0.43895 0.57323 0.0
C1916 C 0.18688 0.46947 0.47681 0.0
C1917 C 0.18812 0.45969 0.45382 0.0
C1918 C 0.19875 0.46242 0.49621 0.0
C1919 C 0.21281 0.44604 0.49295 0.0
C1920 C 0.21283 0.43506 0.47008 0.0
C1921 C 0.20025 0.44155 0.45069 0.0
C1922 C 0.27947 0.45967 0.52807 0.0
C1923 C 0.26875 0.45456 0.55148 0.0
C1924 C 0.26062 0.45426 0.5088 0.0
C1925 C 0.2308 0.44437 0.51263 0.0
C1926 C 0.21978 0.43753 0.53601 0.0
C1927 C 0.23859 0.44239 0.55528 0.0
H1928 H 0.84635 0.2787 0.04603 0.0
H1929 H 0.75981 0.25928 0.06655 0.0
H1930 H 0.82562 0.24564 0.01154 0.0
H1931 H 0.73908 0.22685 0.03241 0.0
H1932 H 0.77487 0.22184 0.9371 0.0
H1933 H 0.80202 0.24498 0.97355 0.0
H1934 H 0.72944 0.18112 0.01548 0.0
H1935 H 0.70205 0.15886 0.97908 0.0
C1936 C 0.8229 0.26707 0.0432 0.0
C1937 C 0.80452 0.27131 0.05871 0.0
C1938 C 0.81104 0.24829 0.02352 0.0
C1939 C 0.78064 0.23335 0.01928 0.0
C1940 C 0.76246 0.23739 0.03532 0.0
C1941 C 0.77429 0.25617 0.05476 0.0
C1942 C 0.76524 0.21212 0.95411 0.0
C1943 C 0.7363 0.18873 0.95534 0.0
C1944 C 0.78075 0.22543 0.97503 0.0
C1945 C 0.76762 0.21534 0.99746 0.0
C1946 C 0.73988 0.18994 0.9985 0.0
C1947 C 0.72429 0.17696 0.97768 0.0
H1948 H 0.546 0.7002 0.47539 0.0
H1949 H 0.53155 0.76027 0.43381 0.0
H1950 H 0.55347 0.72974 0.5109 0.0
H1951 H 0.53587 0.78834 0.46927 0.0
H1952 H 0.547 0.84008 0.53437 0.0
H1953 H 0.5571 0.81893 0.49958 0.0
H1954 H 0.52966 0.73888 0.53921 0.0
H1955 H 0.5227 0.76158 0.57426 0.0
C1956 C 0.54475 0.72001 0.47391 0.0
C1957 C 0.53857 0.72821 0.4519 0.0
C1958 C 0.54847 0.73679 0.49436 0.0
C1959 C 0.54476 0.76149 0.49353 0.0
C1960 C 0.53956 0.77005 0.47107 0.0
C1961 C 0.53693 0.75385 0.45053 0.0
C1962 C 0.5441 0.8183 0.53563 0.0
C1963 C 0.53446 0.80254 0.55695 0.0
C1964 C 0.54936 0.80581 0.51555 0.0
C1965 C 0.54378 0.77668 0.51597 0.0
C1966 C 0.53492 0.76142 0.53782 0.0
C1967 C 0.53073 0.77436 0.55809 0.0
loop_
_geom_bond_atom_site_label_1
_geom_bond_atom_site_label_2
_geom_bond_distance
_geom_bond_site_symmetry_2
_ccdc_geom_bond_type
Fe0 O2 1.918 . S
Fe0 O5 1.997 . S
Fe0 O6 2.002 . S
Fe0 O11 1.976 . S
Fe0 O14 1.996 . S
Fe1 O2 1.918 . S
Fe1 O9 1.997 . S
Fe1 O12 1.996 . S
Fe1 O16 1.976 . S
Fe1 O19 2.002 . S
O2 Fe0 1.918 . S
O2 Fe1 1.918 . S
O2 Fe3 1.918 . S
Fe3 O2 1.918 . S
Fe3 O4 2.002 . S
Fe3 O13 1.976 . S
Fe3 O17 1.996 . S
Fe3 O20 1.997 . S
O4 Fe3 2.002 . S
O4 C21 1.295 . S
O5 Fe0 1.997 . S
O5 C21 1.235 . S
O6 Fe0 2.002 . S
O6 C7 1.295 . S
C7 O6 1.295 . S
C7 O9 1.235 . S
C8 O13 1.287 . S
C8 O14 1.255 . S
O9 Fe1 1.997 . S
O9 C7 1.235 . S
C10 O16 1.287 . S
C10 O17 1.255 . S
O11 Fe0 1.976 . S
O11 C18 1.287 . S
O12 Fe1 1.996 . S
O12 C18 1.255 . S
O13 Fe3 1.976 . S
O13 C8 1.287 . S
O14 Fe0 1.996 . S
O14 C8 1.255 . S
C15 O19 1.295 . S
C15 O20 1.235 . S
O16 Fe1 1.976 . S
O16 C10 1.287 . S
O17 Fe3 1.996 . S
O17 C10 1.255 . S
C18 O11 1.287 . S
C18 O12 1.255 . S
O19 Fe1 2.002 . S
O19 C15 1.295 . S
O20 Fe3 1.997 . S
O20 C15 1.235 . S
C21 O4 1.295 . S
C21 O5 1.235 . S
Fe22 O24 1.918 . S
Fe22 O27 1.997 . S
Fe22 O28 2.002 . S
Fe22 O33 1.976 . S
Fe22 O36 1.996 . S
Fe23 O24 1.918 . S
Fe23 O31 1.997 . S
Fe23 O34 1.996 . S
Fe23 O38 1.976 . S
Fe23 O41 2.002 . S
O24 Fe22 1.918 . S
O24 Fe23 1.918 . S
O24 Fe25 1.918 . S
Fe25 O24 1.918 . S
Fe25 O26 2.002 . S
Fe25 O35 1.976 . S
Fe25 O39 1.996 . S
Fe25 O42 1.997 . S
O26 Fe25 2.002 . S
O26 C43 1.295 . S
O27 Fe22 1.997 . S
O27 C43 1.235 . S
O28 Fe22 2.002 . S
O28 C29 1.295 . S
C29 O28 1.295 . S
C29 O31 1.235 . S
C30 O35 1.287 . S
C30 O36 1.255 . S
O31 Fe23 1.997 . S
O31 C29 1.235 . S
C32 O38 1.287 . S
C32 O39 1.255 . S
O33 Fe22 1.976 . S
O33 C40 1.287 . S
O34 Fe23 1.996 . S
O34 C40 1.255 . S
O35 Fe25 1.976 . S
O35 C30 1.287 . S
O36 Fe22 1.996 . S
O36 C30 1.255 . S
C37 O41 1.295 . S
C37 O42 1.235 . S
O38 Fe23 1.976 . S
O38 C32 1.287 . S
O39 Fe25 1.996 . S
O39 C32 1.255 . S
C40 O33 1.287 . S
C40 O34 1.255 . S
O41 Fe23 2.002 . S
O41 C37 1.295 . S
O42 Fe25 1.997 . S
O42 C37 1.235 . S
C43 O26 1.295 . S
C43 O27 1.235 . S
Fe44 O46 1.918 . S
Fe44 O49 1.997 . S
Fe44 O50 2.002 . S
Fe44 O55 1.976 . S
Fe44 O58 1.996 . S
Fe45 O46 1.918 . S
Fe45 O53 1.997 . S
Fe45 O56 1.996 . S
Fe45 O60 1.976 . S
Fe45 O63 2.002 . S
O46 Fe44 1.918 . S
O46 Fe45 1.918 . S
O46 Fe47 1.918 . S
Fe47 O46 1.918 . S
Fe47 O48 2.002 . S
Fe47 O57 1.976 . S
Fe47 O61 1.996 . S
Fe47 O64 1.997 . S
O48 Fe47 2.002 . S
O48 C65 1.295 . S
O49 Fe44 1.997 . S
O49 C65 1.235 . S
O50 Fe44 2.002 . S
O50 C51 1.295 . S
C51 O50 1.295 . S
C51 O53 1.235 . S
C52 O57 1.287 . S
C52 O58 1.255 . S
O53 Fe45 1.997 . S
O53 C51 1.235 . S
C54 O60 1.287 . S
C54 O61 1.255 . S
O55 Fe44 1.976 . S
O55 C62 1.287 . S
O56 Fe45 1.996 . S
O56 C62 1.255 . S
O57 Fe47 1.976 . S
O57 C52 1.287 . S
O58 Fe44 1.996 . S
O58 C52 1.255 . S
C59 O63 1.295 . S
C59 O64 1.235 . S
O60 Fe45 1.976 . S
O60 C54 1.287 . S
O61 Fe47 1.996 . S
O61 C54 1.255 . S
C62 O55 1.287 . S
C62 O56 1.255 . S
O63 Fe45 2.002 . S
O63 C59 1.295 . S
O64 Fe47 1.997 . S
O64 C59 1.235 . S
C65 O48 1.295 . S
C65 O49 1.235 . S
Fe66 O68 1.918 . S
Fe66 O71 1.997 . S
Fe66 O72 2.002 . S
Fe66 O77 1.976 . S
Fe66 O80 1.996 . S
Fe67 O68 1.918 . S
Fe67 O75 1.997 . S
Fe67 O78 1.996 . S
Fe67 O82 1.976 . S
Fe67 O85 2.002 . S
O68 Fe66 1.918 . S
O68 Fe67 1.918 . S
O68 Fe69 1.918 . S
Fe69 O68 1.918 . S
Fe69 O70 2.002 . S
Fe69 O79 1.976 . S
Fe69 O83 1.996 . S
Fe69 O86 1.997 . S
O70 Fe69 2.002 . S
O70 C87 1.295 . S
O71 Fe66 1.997 . S
O71 C87 1.235 . S
O72 Fe66 2.002 . S
O72 C73 1.295 . S
C73 O72 1.295 . S
C73 O75 1.235 . S
C74 O79 1.287 . S
C74 O80 1.255 . S
O75 Fe67 1.997 . S
O75 C73 1.235 . S
C76 O82 1.287 . S
C76 O83 1.255 . S
O77 Fe66 1.976 . S
O77 C84 1.287 . S
O78 Fe67 1.996 . S
O78 C84 1.255 . S
O79 Fe69 1.976 . S
O79 C74 1.287 . S
O80 Fe66 1.996 . S
O80 C74 1.255 . S
C81 O85 1.295 . S
C81 O86 1.235 . S
O82 Fe67 1.976 . S
O82 C76 1.287 . S
O83 Fe69 1.996 . S
O83 C76 1.255 . S
C84 O77 1.287 . S
C84 O78 1.255 . S
O85 Fe67 2.002 . S
O85 C81 1.295 . S
O86 Fe69 1.997 . S
O86 C81 1.235 . S
C87 O70 1.295 . S
C87 O71 1.235 . S
Fe88 O90 1.918 . S
Fe88 O93 1.997 . S
Fe88 O94 2.002 . S
Fe88 O99 1.976 . S
Fe88 O102 1.996 . S
Fe89 O90 1.918 . S
Fe89 O97 1.997 . S
Fe89 O100 1.996 . S
Fe89 O104 1.976 . S
Fe89 O107 2.002 . S
O90 Fe88 1.918 . S
O90 Fe89 1.918 . S
O90 Fe91 1.918 . S
Fe91 O90 1.918 . S
Fe91 O92 2.002 . S
Fe91 O101 1.976 . S
Fe91 O105 1.996 . S
Fe91 O108 1.997 . S
O92 Fe91 2.002 . S
O92 C109 1.295 . S
O93 Fe88 1.997 . S
O93 C109 1.235 . S
O94 Fe88 2.002 . S
O94 C95 1.295 . S
C95 O94 1.295 . S
C95 O97 1.235 . S
C96 O101 1.287 . S
C96 O102 1.255 . S
O97 Fe89 1.997 . S
O97 C95 1.235 . S
C98 O104 1.287 . S
C98 O105 1.255 . S
O99 Fe88 1.976 . S
O99 C106 1.287 . S
O100 Fe89 1.996 . S
O100 C106 1.255 . S
O101 Fe91 1.976 . S
O101 C96 1.287 . S
O102 Fe88 1.996 . S
O102 C96 1.255 . S
C103 O107 1.295 . S
C103 O108 1.235 . S
O104 Fe89 1.976 . S
O104 C98 1.287 . S
O105 Fe91 1.996 . S
O105 C98 1.255 . S
C106 O99 1.287 . S
C106 O100 1.255 . S
O107 Fe89 2.002 . S
O107 C103 1.295 . S
O108 Fe91 1.997 . S
O108 C103 1.235 . S
C109 O92 1.295 . S
C109 O93 1.235 . S
Fe110 O112 1.918 . S
Fe110 O115 1.997 . S
Fe110 O116 2.002 . S
Fe110 O121 1.976 . S
Fe110 O124 1.996 . S
Fe111 O112 1.918 . S
Fe111 O119 1.997 . S
Fe111 O122 1.996 . S
Fe111 O126 1.976 . S
Fe111 O129 2.002 . S
O112 Fe110 1.918 . S
O112 Fe111 1.918 . S
O112 Fe113 1.918 . S
Fe113 O112 1.918 . S
Fe113 O114 2.002 . S
Fe113 O123 1.976 . S
Fe113 O127 1.996 . S
Fe113 O130 1.997 . S
O114 Fe113 2.002 . S
O114 C131 1.295 . S
O115 Fe110 1.997 . S
O115 C131 1.235 . S
O116 Fe110 2.002 . S
O116 C117 1.295 . S
C117 O116 1.295 . S
C117 O119 1.235 . S
C118 O123 1.287 . S
C118 O124 1.255 . S
O119 Fe111 1.997 . S
O119 C117 1.235 . S
C120 O126 1.287 . S
C120 O127 1.255 . S
O121 Fe110 1.976 . S
O121 C128 1.287 . S
O122 Fe111 1.996 . S
O122 C128 1.255 . S
O123 Fe113 1.976 . S
O123 C118 1.287 . S
O124 Fe110 1.996 . S
O124 C118 1.255 . S
C125 O129 1.295 . S
C125 O130 1.235 . S
O126 Fe111 1.976 . S
O126 C120 1.287 . S
O127 Fe113 1.996 . S
O127 C120 1.255 . S
C128 O121 1.287 . S
C128 O122 1.255 . S
O129 Fe111 2.002 . S
O129 C125 1.295 . S
O130 Fe113 1.997 . S
O130 C125 1.235 . S
C131 O114 1.295 . S
C131 O115 1.235 . S
Fe132 O134 1.918 . S
Fe132 O137 1.997 . S
Fe132 O138 2.002 . S
Fe132 O143 1.976 . S
Fe132 O146 1.996 . S
Fe133 O134 1.918 . S
Fe133 O141 1.997 . S
Fe133 O144 1.996 . S
Fe133 O148 1.976 . S
Fe133 O151 2.002 . S
O134 Fe132 1.918 . S
O134 Fe133 1.918 . S
O134 Fe135 1.918 . S
Fe135 O134 1.918 . S
Fe135 O136 2.002 . S
Fe135 O145 1.976 . S
Fe135 O149 1.996 . S
Fe135 O152 1.997 . S
O136 Fe135 2.002 . S
O136 C153 1.295 . S
O137 Fe132 1.997 . S
O137 C153 1.235 . S
O138 Fe132 2.002 . S
O138 C139 1.295 . S
C139 O138 1.295 . S
C139 O141 1.235 . S
C140 O145 1.287 . S
C140 O146 1.255 . S
O141 Fe133 1.997 . S
O141 C139 1.235 . S
C142 O148 1.287 . S
C142 O149 1.255 . S
O143 Fe132 1.976 . S
O143 C150 1.287 . S
O144 Fe133 1.996 . S
O144 C150 1.255 . S
O145 Fe135 1.976 . S
O145 C140 1.287 . S
O146 Fe132 1.996 . S
O146 C140 1.255 . S
C147 O151 1.295 . S
C147 O152 1.235 . S
O148 Fe133 1.976 . S
O148 C142 1.287 . S
O149 Fe135 1.996 . S
O149 C142 1.255 . S
C150 O143 1.287 . S
C150 O144 1.255 . S
O151 Fe133 2.002 . S
O151 C147 1.295 . S
O152 Fe135 1.997 . S
O152 C147 1.235 . S
C153 O136 1.295 . S
C153 O137 1.235 . S
Fe154 O156 1.918 . S
Fe154 O159 1.997 . S
Fe154 O160 2.002 . S
Fe154 O165 1.976 . S
Fe154 O168 1.996 . S
Fe155 O156 1.918 . S
Fe155 O163 1.997 . S
Fe155 O166 1.996 . S
Fe155 O170 1.976 . S
Fe155 O173 2.002 . S
O156 Fe154 1.918 . S
O156 Fe155 1.918 . S
O156 Fe157 1.918 . S
Fe157 O156 1.918 . S
Fe157 O158 2.002 . S
Fe157 O167 1.976 . S
Fe157 O171 1.996 . S
Fe157 O174 1.997 . S
O158 Fe157 2.002 . S
O158 C175 1.295 . S
O159 Fe154 1.997 . S
O159 C175 1.235 . S
O160 Fe154 2.002 . S
O160 C161 1.295 . S
C161 O160 1.295 . S
C161 O163 1.235 . S
C162 O167 1.287 . S
C162 O168 1.255 . S
O163 Fe155 1.997 . S
O163 C161 1.235 . S
C164 O170 1.287 . S
C164 O171 1.255 . S
O165 Fe154 1.976 . S
O165 C172 1.287 . S
O166 Fe155 1.996 . S
O166 C172 1.255 . S
O167 Fe157 1.976 . S
O167 C162 1.287 . S
O168 Fe154 1.996 . S
O168 C162 1.255 . S
C169 O173 1.295 . S
C169 O174 1.235 . S
O170 Fe155 1.976 . S
O170 C164 1.287 . S
O171 Fe157 1.996 . S
O171 C164 1.255 . S
C172 O165 1.287 . S
C172 O166 1.255 . S
O173 Fe155 2.002 . S
O173 C169 1.295 . S
O174 Fe157 1.997 . S
O174 C169 1.235 . S
C175 O158 1.295 . S
C175 O159 1.235 . S
Fe176 O178 1.918 . S
Fe176 O181 1.997 . S
Fe176 O182 2.002 . S
Fe176 O187 1.976 . S
Fe176 O190 1.996 . S
Fe177 O178 1.918 . S
Fe177 O185 1.997 . S
Fe177 O188 1.996 . S
Fe177 O192 1.976 . S
Fe177 O195 2.002 . S
O178 Fe176 1.918 . S
O178 Fe177 1.918 . S
O178 Fe179 1.918 . S
Fe179 O178 1.918 . S
Fe179 O180 2.002 . S
Fe179 O189 1.976 . S
Fe179 O193 1.996 . S
Fe179 O196 1.997 . S
O180 Fe179 2.002 . S
O180 C197 1.295 . S
O181 Fe176 1.997 . S
O181 C197 1.235 . S
O182 Fe176 2.002 . S
O182 C183 1.295 . S
C183 O182 1.295 . S
C183 O185 1.235 . S
C184 O189 1.287 . S
C184 O190 1.255 . S
O185 Fe177 1.997 . S
O185 C183 1.235 . S
C186 O192 1.287 . S
C186 O193 1.255 . S
O187 Fe176 1.976 . S
O187 C194 1.287 . S
O188 Fe177 1.996 . S
O188 C194 1.255 . S
O189 Fe179 1.976 . S
O189 C184 1.287 . S
O190 Fe176 1.996 . S
O190 C184 1.255 . S
C191 O195 1.295 . S
C191 O196 1.235 . S
O192 Fe177 1.976 . S
O192 C186 1.287 . S
O193 Fe179 1.996 . S
O193 C186 1.255 . S
C194 O187 1.287 . S
C194 O188 1.255 . S
O195 Fe177 2.002 . S
O195 C191 1.295 . S
O196 Fe179 1.997 . S
O196 C191 1.235 . S
C197 O180 1.295 . S
C197 O181 1.235 . S
Fe198 O200 1.918 . S
Fe198 O203 1.997 . S
Fe198 O204 2.002 . S
Fe198 O209 1.976 . S
Fe198 O212 1.996 . S
Fe199 O200 1.918 . S
Fe199 O207 1.997 . S
Fe199 O210 1.996 . S
Fe199 O214 1.976 . S
Fe199 O217 2.002 . S
O200 Fe198 1.918 . S
O200 Fe199 1.918 . S
O200 Fe201 1.918 . S
Fe201 O200 1.918 . S
Fe201 O202 2.002 . S
Fe201 O211 1.976 . S
Fe201 O215 1.996 . S
Fe201 O218 1.997 . S
O202 Fe201 2.002 . S
O202 C219 1.295 . S
O203 Fe198 1.997 . S
O203 C219 1.235 . S
O204 Fe198 2.002 . S
O204 C205 1.295 . S
C205 O204 1.295 . S
C205 O207 1.235 . S
C206 O211 1.287 . S
C206 O212 1.255 . S
O207 Fe199 1.997 . S
O207 C205 1.235 . S
C208 O214 1.287 . S
C208 O215 1.255 . S
O209 Fe198 1.976 . S
O209 C216 1.287 . S
O210 Fe199 1.996 . S
O210 C216 1.255 . S
O211 Fe201 1.976 . S
O211 C206 1.287 . S
O212 Fe198 1.996 . S
O212 C206 1.255 . S
C213 O217 1.295 . S
C213 O218 1.235 . S
O214 Fe199 1.976 . S
O214 C208 1.287 . S
O215 Fe201 1.996 . S
O215 C208 1.255 . S
C216 O209 1.287 . S
C216 O210 1.255 . S
O217 Fe199 2.002 . S
O217 C213 1.295 . S
O218 Fe201 1.997 . S
O218 C213 1.235 . S
C219 O202 1.295 . S
C219 O203 1.235 . S
Fe220 O222 1.918 . S
Fe220 O225 1.997 . S
Fe220 O226 2.002 . S
Fe220 O231 1.976 . S
Fe220 O234 1.996 . S
Fe221 O222 1.918 . S
Fe221 O229 1.997 . S
Fe221 O232 1.996 . S
Fe221 O236 1.976 . S
Fe221 O239 2.002 . S
O222 Fe220 1.918 . S
O222 Fe221 1.918 . S
O222 Fe223 1.918 . S
Fe223 O222 1.918 . S
Fe223 O224 2.002 . S
Fe223 O233 1.976 . S
Fe223 O237 1.996 . S
Fe223 O240 1.997 . S
O224 Fe223 2.002 . S
O224 C241 1.295 . S
O225 Fe220 1.997 . S
O225 C241 1.235 . S
O226 Fe220 2.002 . S
O226 C227 1.295 . S
C227 O226 1.295 . S
C227 O229 1.235 . S
C228 O233 1.287 . S
C228 O234 1.255 . S
O229 Fe221 1.997 . S
O229 C227 1.235 . S
C230 O236 1.287 . S
C230 O237 1.255 . S
O231 Fe220 1.976 . S
O231 C238 1.287 . S
O232 Fe221 1.996 . S
O232 C238 1.255 . S
O233 Fe223 1.976 . S
O233 C228 1.287 . S
O234 Fe220 1.996 . S
O234 C228 1.255 . S
C235 O239 1.295 . S
C235 O240 1.235 . S
O236 Fe221 1.976 . S
O236 C230 1.287 . S
O237 Fe223 1.996 . S
O237 C230 1.255 . S
C238 O231 1.287 . S
C238 O232 1.255 . S
O239 Fe221 2.002 . S
O239 C235 1.295 . S
O240 Fe223 1.997 . S
O240 C235 1.235 . S
C241 O224 1.295 . S
C241 O225 1.235 . S
Fe242 O244 1.918 . S
Fe242 O247 1.997 . S
Fe242 O248 2.002 . S
Fe242 O253 1.976 . S
Fe242 O256 1.996 . S
Fe243 O244 1.918 . S
Fe243 O251 1.997 . S
Fe243 O254 1.996 . S
Fe243 O258 1.976 . S
Fe243 O261 2.002 . S
O244 Fe242 1.918 . S
O244 Fe243 1.918 . S
O244 Fe245 1.918 . S
Fe245 O244 1.918 . S
Fe245 O246 2.002 . S
Fe245 O255 1.976 . S
Fe245 O259 1.996 . S
Fe245 O262 1.997 . S
O246 Fe245 2.002 . S
O246 C263 1.295 . S
O247 Fe242 1.997 . S
O247 C263 1.235 . S
O248 Fe242 2.002 . S
O248 C249 1.295 . S
C249 O248 1.295 . S
C249 O251 1.235 . S
C250 O255 1.287 . S
C250 O256 1.255 . S
O251 Fe243 1.997 . S
O251 C249 1.235 . S
C252 O258 1.287 . S
C252 O259 1.255 . S
O253 Fe242 1.976 . S
O253 C260 1.287 . S
O254 Fe243 1.996 . S
O254 C260 1.255 . S
O255 Fe245 1.976 . S
O255 C250 1.287 . S
O256 Fe242 1.996 . S
O256 C250 1.255 . S
C257 O261 1.295 . S
C257 O262 1.235 . S
O258 Fe243 1.976 . S
O258 C252 1.287 . S
O259 Fe245 1.996 . S
O259 C252 1.255 . S
C260 O253 1.287 . S
C260 O254 1.255 . S
O261 Fe243 2.002 . S
O261 C257 1.295 . S
O262 Fe245 1.997 . S
O262 C257 1.235 . S
C263 O246 1.295 . S
C263 O247 1.235 . S
Fe264 O266 1.918 . S
Fe264 O269 1.997 . S
Fe264 O270 2.002 . S
Fe264 O275 1.976 . S
Fe264 O278 1.996 . S
Fe265 O266 1.918 . S
Fe265 O273 1.997 . S
Fe265 O276 1.996 . S
Fe265 O280 1.976 . S
Fe265 O283 2.002 . S
O266 Fe264 1.918 . S
O266 Fe265 1.918 . S
O266 Fe267 1.918 . S
Fe267 O266 1.918 . S
Fe267 O268 2.002 . S
Fe267 O277 1.976 . S
Fe267 O281 1.996 . S
Fe267 O284 1.997 . S
O268 Fe267 2.002 . S
O268 C285 1.295 . S
O269 Fe264 1.997 . S
O269 C285 1.235 . S
O270 Fe264 2.002 . S
O270 C271 1.295 . S
C271 O270 1.295 . S
C271 O273 1.235 . S
C272 O277 1.287 . S
C272 O278 1.255 . S
O273 Fe265 1.997 . S
O273 C271 1.235 . S
C274 O280 1.287 . S
C274 O281 1.255 . S
O275 Fe264 1.976 . S
O275 C282 1.287 . S
O276 Fe265 1.996 . S
O276 C282 1.255 . S
O277 Fe267 1.976 . S
O277 C272 1.287 . S
O278 Fe264 1.996 . S
O278 C272 1.255 . S
C279 O283 1.295 . S
C279 O284 1.235 . S
O280 Fe265 1.976 . S
O280 C274 1.287 . S
O281 Fe267 1.996 . S
O281 C274 1.255 . S
C282 O275 1.287 . S
C282 O276 1.255 . S
O283 Fe265 2.002 . S
O283 C279 1.295 . S
O284 Fe267 1.997 . S
O284 C279 1.235 . S
C285 O268 1.295 . S
C285 O269 1.235 . S
Fe286 O288 1.918 . S
Fe286 O291 1.997 . S
Fe286 O292 2.002 . S
Fe286 O297 1.976 . S
Fe286 O300 1.996 . S
Fe287 O288 1.918 . S
Fe287 O295 1.997 . S
Fe287 O298 1.996 . S
Fe287 O302 1.976 . S
Fe287 O305 2.002 . S
O288 Fe286 1.918 . S
O288 Fe287 1.918 . S
O288 Fe289 1.918 . S
Fe289 O288 1.918 . S
Fe289 O290 2.002 . S
Fe289 O299 1.976 . S
Fe289 O303 1.996 . S
Fe289 O306 1.997 . S
O290 Fe289 2.002 . S
O290 C307 1.295 . S
O291 Fe286 1.997 . S
O291 C307 1.235 . S
O292 Fe286 2.002 . S
O292 C293 1.295 . S
C293 O292 1.295 . S
C293 O295 1.235 . S
C294 O299 1.287 . S
C294 O300 1.255 . S
O295 Fe287 1.997 . S
O295 C293 1.235 . S
C296 O302 1.287 . S
C296 O303 1.255 . S
O297 Fe286 1.976 . S
O297 C304 1.287 . S
O298 Fe287 1.996 . S
O298 C304 1.255 . S
O299 Fe289 1.976 . S
O299 C294 1.287 . S
O300 Fe286 1.996 . S
O300 C294 1.255 . S
C301 O305 1.295 . S
C301 O306 1.235 . S
O302 Fe287 1.976 . S
O302 C296 1.287 . S
O303 Fe289 1.996 . S
O303 C296 1.255 . S
C304 O297 1.287 . S
C304 O298 1.255 . S
O305 Fe287 2.002 . S
O305 C301 1.295 . S
O306 Fe289 1.997 . S
O306 C301 1.235 . S
C307 O290 1.295 . S
C307 O291 1.235 . S
Fe308 O310 1.918 . S
Fe308 O313 1.997 . S
Fe308 O314 2.002 . S
Fe308 O319 1.976 . S
Fe308 O322 1.996 . S
Fe309 O310 1.918 . S
Fe309 O317 1.997 . S
Fe309 O320 1.996 . S
Fe309 O324 1.976 . S
Fe309 O327 2.002 . S
O310 Fe308 1.918 . S
O310 Fe309 1.918 . S
O310 Fe311 1.918 . S
Fe311 O310 1.918 . S
Fe311 O312 2.002 . S
Fe311 O321 1.976 . S
Fe311 O325 1.996 . S
Fe311 O328 1.997 . S
O312 Fe311 2.002 . S
O312 C329 1.295 . S
O313 Fe308 1.997 . S
O313 C329 1.235 . S
O314 Fe308 2.002 . S
O314 C315 1.295 . S
C315 O314 1.295 . S
C315 O317 1.235 . S
C316 O321 1.287 . S
C316 O322 1.255 . S
O317 Fe309 1.997 . S
O317 C315 1.235 . S
C318 O324 1.287 . S
C318 O325 1.255 . S
O319 Fe308 1.976 . S
O319 C326 1.287 . S
O320 Fe309 1.996 . S
O320 C326 1.255 . S
O321 Fe311 1.976 . S
O321 C316 1.287 . S
O322 Fe308 1.996 . S
O322 C316 1.255 . S
C323 O327 1.295 . S
C323 O328 1.235 . S
O324 Fe309 1.976 . S
O324 C318 1.287 . S
O325 Fe311 1.996 . S
O325 C318 1.255 . S
C326 O319 1.287 . S
C326 O320 1.255 . S
O327 Fe309 2.002 . S
O327 C323 1.295 . S
O328 Fe311 1.997 . S
O328 C323 1.235 . S
C329 O312 1.295 . S
C329 O313 1.235 . S
Fe330 O332 1.918 . S
Fe330 O335 1.997 . S
Fe330 O336 2.002 . S
Fe330 O341 1.976 . S
Fe330 O344 1.996 . S
Fe331 O332 1.918 . S
Fe331 O339 1.997 . S
Fe331 O342 1.996 . S
Fe331 O346 1.976 . S
Fe331 O349 2.002 . S
O332 Fe330 1.918 . S
O332 Fe331 1.918 . S
O332 Fe333 1.918 . S
Fe333 O332 1.918 . S
Fe333 O334 2.002 . S
Fe333 O343 1.976 . S
Fe333 O347 1.996 . S
Fe333 O350 1.997 . S
O334 Fe333 2.002 . S
O334 C351 1.295 . S
O335 Fe330 1.997 . S
O335 C351 1.235 . S
O336 Fe330 2.002 . S
O336 C337 1.295 . S
C337 O336 1.295 . S
C337 O339 1.235 . S
C338 O343 1.287 . S
C338 O344 1.255 . S
O339 Fe331 1.997 . S
O339 C337 1.235 . S
C340 O346 1.287 . S
C340 O347 1.255 . S
O341 Fe330 1.976 . S
O341 C348 1.287 . S
O342 Fe331 1.996 . S
O342 C348 1.255 . S
O343 Fe333 1.976 . S
O343 C338 1.287 . S
O344 Fe330 1.996 . S
O344 C338 1.255 . S
C345 O349 1.295 . S
C345 O350 1.235 . S
O346 Fe331 1.976 . S
O346 C340 1.287 . S
O347 Fe333 1.996 . S
O347 C340 1.255 . S
C348 O341 1.287 . S
C348 O342 1.255 . S
O349 Fe331 2.002 . S
O349 C345 1.295 . S
O350 Fe333 1.997 . S
O350 C345 1.235 . S
C351 O334 1.295 . S
C351 O335 1.235 . S
Fe352 O354 1.918 . S
Fe352 O357 1.997 . S
Fe352 O358 2.002 . S
Fe352 O363 1.976 . S
Fe352 O366 1.996 . S
Fe353 O354 1.918 . S
Fe353 O361 1.997 . S
Fe353 O364 1.996 . S
Fe353 O368 1.976 . S
Fe353 O371 2.002 . S
O354 Fe352 1.918 . S
O354 Fe353 1.918 . S
O354 Fe355 1.918 . S
Fe355 O354 1.918 . S
Fe355 O356 2.002 . S
Fe355 O365 1.976 . S
Fe355 O369 1.996 . S
Fe355 O372 1.997 . S
O356 Fe355 2.002 . S
O356 C373 1.295 . S
O357 Fe352 1.997 . S
O357 C373 1.235 . S
O358 Fe352 2.002 . S
O358 C359 1.295 . S
C359 O358 1.295 . S
C359 O361 1.235 . S
C360 O365 1.287 . S
C360 O366 1.255 . S
O361 Fe353 1.997 . S
O361 C359 1.235 . S
C362 O368 1.287 . S
C362 O369 1.255 . S
O363 Fe352 1.976 . S
O363 C370 1.287 . S
O364 Fe353 1.996 . S
O364 C370 1.255 . S
O365 Fe355 1.976 . S
O365 C360 1.287 . S
O366 Fe352 1.996 . S
O366 C360 1.255 . S
C367 O371 1.295 . S
C367 O372 1.235 . S
O368 Fe353 1.976 . S
O368 C362 1.287 . S
O369 Fe355 1.996 . S
O369 C362 1.255 . S
C370 O363 1.287 . S
C370 O364 1.255 . S
O371 Fe353 2.002 . S
O371 C367 1.295 . S
O372 Fe355 1.997 . S
O372 C367 1.235 . S
C373 O356 1.295 . S
C373 O357 1.235 . S
Fe374 O376 1.918 . S
Fe374 O379 1.997 . S
Fe374 O380 2.002 . S
Fe374 O385 1.976 . S
Fe374 O388 1.996 . S
Fe375 O376 1.918 . S
Fe375 O383 1.997 . S
Fe375 O386 1.996 . S
Fe375 O390 1.976 . S
Fe375 O393 2.002 . S
O376 Fe374 1.918 . S
O376 Fe375 1.918 . S
O376 Fe377 1.918 . S
Fe377 O376 1.918 . S
Fe377 O378 2.002 . S
Fe377 O387 1.976 . S
Fe377 O391 1.996 . S
Fe377 O394 1.997 . S
O378 Fe377 2.002 . S
O378 C395 1.295 . S
O379 Fe374 1.997 . S
O379 C395 1.235 . S
O380 Fe374 2.002 . S
O380 C381 1.295 . S
C381 O380 1.295 . S
C381 O383 1.235 . S
C382 O387 1.287 . S
C382 O388 1.255 . S
O383 Fe375 1.997 . S
O383 C381 1.235 . S
C384 O390 1.287 . S
C384 O391 1.255 . S
O385 Fe374 1.976 . S
O385 C392 1.287 . S
O386 Fe375 1.996 . S
O386 C392 1.255 . S
O387 Fe377 1.976 . S
O387 C382 1.287 . S
O388 Fe374 1.996 . S
O388 C382 1.255 . S
C389 O393 1.295 . S
C389 O394 1.235 . S
O390 Fe375 1.976 . S
O390 C384 1.287 . S
O391 Fe377 1.996 . S
O391 C384 1.255 . S
C392 O385 1.287 . S
C392 O386 1.255 . S
O393 Fe375 2.002 . S
O393 C389 1.295 . S
O394 Fe377 1.997 . S
O394 C389 1.235 . S
C395 O378 1.295 . S
C395 O379 1.235 . S
Fe396 O398 1.918 . S
Fe396 O401 1.997 . S
Fe396 O402 2.002 . S
Fe396 O407 1.976 . S
Fe396 O410 1.996 . S
Fe397 O398 1.918 . S
Fe397 O405 1.997 . S
Fe397 O408 1.996 . S
Fe397 O412 1.976 . S
Fe397 O415 2.002 . S
O398 Fe396 1.918 . S
O398 Fe397 1.918 . S
O398 Fe399 1.918 . S
Fe399 O398 1.918 . S
Fe399 O400 2.002 . S
Fe399 O409 1.976 . S
Fe399 O413 1.996 . S
Fe399 O416 1.997 . S
O400 Fe399 2.002 . S
O400 C417 1.295 . S
O401 Fe396 1.997 . S
O401 C417 1.235 . S
O402 Fe396 2.002 . S
O402 C403 1.295 . S
C403 O402 1.295 . S
C403 O405 1.235 . S
C404 O409 1.287 . S
C404 O410 1.255 . S
O405 Fe397 1.997 . S
O405 C403 1.235 . S
C406 O412 1.287 . S
C406 O413 1.255 . S
O407 Fe396 1.976 . S
O407 C414 1.287 . S
O408 Fe397 1.996 . S
O408 C414 1.255 . S
O409 Fe399 1.976 . S
O409 C404 1.287 . S
O410 Fe396 1.996 . S
O410 C404 1.255 . S
C411 O415 1.295 . S
C411 O416 1.235 . S
O412 Fe397 1.976 . S
O412 C406 1.287 . S
O413 Fe399 1.996 . S
O413 C406 1.255 . S
C414 O407 1.287 . S
C414 O408 1.255 . S
O415 Fe397 2.002 . S
O415 C411 1.295 . S
O416 Fe399 1.997 . S
O416 C411 1.235 . S
C417 O400 1.295 . S
C417 O401 1.235 . S
Fe418 O420 1.918 . S
Fe418 O423 1.997 . S
Fe418 O424 2.002 . S
Fe418 O429 1.976 . S
Fe418 O432 1.996 . S
Fe419 O420 1.918 . S
Fe419 O427 1.997 . S
Fe419 O430 1.996 . S
Fe419 O434 1.976 . S
Fe419 O437 2.002 . S
O420 Fe418 1.918 . S
O420 Fe419 1.918 . S
O420 Fe421 1.918 . S
Fe421 O420 1.918 . S
Fe421 O422 2.002 . S
Fe421 O431 1.976 . S
Fe421 O435 1.996 . S
Fe421 O438 1.997 . S
O422 Fe421 2.002 . S
O422 C439 1.295 . S
O423 Fe418 1.997 . S
O423 C439 1.235 . S
O424 Fe418 2.002 . S
O424 C425 1.295 . S
C425 O424 1.295 . S
C425 O427 1.235 . S
C426 O431 1.287 . S
C426 O432 1.255 . S
O427 Fe419 1.997 . S
O427 C425 1.235 . S
C428 O434 1.287 . S
C428 O435 1.255 . S
O429 Fe418 1.976 . S
O429 C436 1.287 . S
O430 Fe419 1.996 . S
O430 C436 1.255 . S
O431 Fe421 1.976 . S
O431 C426 1.287 . S
O432 Fe418 1.996 . S
O432 C426 1.255 . S
C433 O437 1.295 . S
C433 O438 1.235 . S
O434 Fe419 1.976 . S
O434 C428 1.287 . S
O435 Fe421 1.996 . S
O435 C428 1.255 . S
C436 O429 1.287 . S
C436 O430 1.255 . S
O437 Fe419 2.002 . S
O437 C433 1.295 . S
O438 Fe421 1.997 . S
O438 C433 1.235 . S
C439 O422 1.295 . S
C439 O423 1.235 . S
Fe440 O442 1.918 . S
Fe440 O445 1.997 . S
Fe440 O446 2.002 . S
Fe440 O451 1.976 . S
Fe440 O454 1.996 . S
Fe441 O442 1.918 . S
Fe441 O449 1.997 . S
Fe441 O452 1.996 . S
Fe441 O456 1.976 . S
Fe441 O459 2.002 . S
O442 Fe440 1.918 . S
O442 Fe441 1.918 . S
O442 Fe443 1.918 . S
Fe443 O442 1.918 . S
Fe443 O444 2.002 . S
Fe443 O453 1.976 . S
Fe443 O457 1.996 . S
Fe443 O460 1.997 . S
O444 Fe443 2.002 . S
O444 C461 1.295 . S
O445 Fe440 1.997 . S
O445 C461 1.235 . S
O446 Fe440 2.002 . S
O446 C447 1.295 . S
C447 O446 1.295 . S
C447 O449 1.235 . S
C448 O453 1.287 . S
C448 O454 1.255 . S
O449 Fe441 1.997 . S
O449 C447 1.235 . S
C450 O456 1.287 . S
C450 O457 1.255 . S
O451 Fe440 1.976 . S
O451 C458 1.287 . S
O452 Fe441 1.996 . S
O452 C458 1.255 . S
O453 Fe443 1.976 . S
O453 C448 1.287 . S
O454 Fe440 1.996 . S
O454 C448 1.255 . S
C455 O459 1.295 . S
C455 O460 1.235 . S
O456 Fe441 1.976 . S
O456 C450 1.287 . S
O457 Fe443 1.996 . S
O457 C450 1.255 . S
C458 O451 1.287 . S
C458 O452 1.255 . S
O459 Fe441 2.002 . S
O459 C455 1.295 . S
O460 Fe443 1.997 . S
O460 C455 1.235 . S
C461 O444 1.295 . S
C461 O445 1.235 . S
Fe462 O464 1.918 . S
Fe462 O467 1.997 . S
Fe462 O468 2.002 . S
Fe462 O473 1.976 . S
Fe462 O476 1.996 . S
Fe463 O464 1.918 . S
Fe463 O471 1.997 . S
Fe463 O474 1.996 . S
Fe463 O478 1.976 . S
Fe463 O481 2.002 . S
O464 Fe462 1.918 . S
O464 Fe463 1.918 . S
O464 Fe465 1.918 . S
Fe465 O464 1.918 . S
Fe465 O466 2.002 . S
Fe465 O475 1.976 . S
Fe465 O479 1.996 . S
Fe465 O482 1.997 . S
O466 Fe465 2.002 . S
O466 C483 1.295 . S
O467 Fe462 1.997 . S
O467 C483 1.235 . S
O468 Fe462 2.002 . S
O468 C469 1.295 . S
C469 O468 1.295 . S
C469 O471 1.235 . S
C470 O475 1.287 . S
C470 O476 1.255 . S
O471 Fe463 1.997 . S
O471 C469 1.235 . S
C472 O478 1.287 . S
C472 O479 1.255 . S
O473 Fe462 1.976 . S
O473 C480 1.287 . S
O474 Fe463 1.996 . S
O474 C480 1.255 . S
O475 Fe465 1.976 . S
O475 C470 1.287 . S
O476 Fe462 1.996 . S
O476 C470 1.255 . S
C477 O481 1.295 . S
C477 O482 1.235 . S
O478 Fe463 1.976 . S
O478 C472 1.287 . S
O479 Fe465 1.996 . S
O479 C472 1.255 . S
C480 O473 1.287 . S
C480 O474 1.255 . S
O481 Fe463 2.002 . S
O481 C477 1.295 . S
O482 Fe465 1.997 . S
O482 C477 1.235 . S
C483 O466 1.295 . S
C483 O467 1.235 . S
Fe484 O486 1.918 . S
Fe484 O489 1.997 . S
Fe484 O490 2.002 . S
Fe484 O495 1.976 . S
Fe484 O498 1.996 . S
Fe485 O486 1.918 . S
Fe485 O493 1.997 . S
Fe485 O496 1.996 . S
Fe485 O500 1.976 . S
Fe485 O503 2.002 . S
O486 Fe484 1.918 . S
O486 Fe485 1.918 . S
O486 Fe487 1.918 . S
Fe487 O486 1.918 . S
Fe487 O488 2.002 . S
Fe487 O497 1.976 . S
Fe487 O501 1.996 . S
Fe487 O504 1.997 . S
O488 Fe487 2.002 . S
O488 C505 1.295 . S
O489 Fe484 1.997 . S
O489 C505 1.235 . S
O490 Fe484 2.002 . S
O490 C491 1.295 . S
C491 O490 1.295 . S
C491 O493 1.235 . S
C492 O497 1.287 . S
C492 O498 1.255 . S
O493 Fe485 1.997 . S
O493 C491 1.235 . S
C494 O500 1.287 . S
C494 O501 1.255 . S
O495 Fe484 1.976 . S
O495 C502 1.287 . S
O496 Fe485 1.996 . S
O496 C502 1.255 . S
O497 Fe487 1.976 . S
O497 C492 1.287 . S
O498 Fe484 1.996 . S
O498 C492 1.255 . S
C499 O503 1.295 . S
C499 O504 1.235 . S
O500 Fe485 1.976 . S
O500 C494 1.287 . S
O501 Fe487 1.996 . S
O501 C494 1.255 . S
C502 O495 1.287 . S
C502 O496 1.255 . S
O503 Fe485 2.002 . S
O503 C499 1.295 . S
O504 Fe487 1.997 . S
O504 C499 1.235 . S
C505 O488 1.295 . S
C505 O489 1.235 . S
Fe506 O508 1.918 . S
Fe506 O511 1.997 . S
Fe506 O512 2.002 . S
Fe506 O517 1.976 . S
Fe506 O520 1.996 . S
Fe507 O508 1.918 . S
Fe507 O515 1.997 . S
Fe507 O518 1.996 . S
Fe507 O522 1.976 . S
Fe507 O525 2.002 . S
O508 Fe506 1.918 . S
O508 Fe507 1.918 . S
O508 Fe509 1.918 . S
Fe509 O508 1.918 . S
Fe509 O510 2.002 . S
Fe509 O519 1.976 . S
Fe509 O523 1.996 . S
Fe509 O526 1.997 . S
O510 Fe509 2.002 . S
O510 C527 1.295 . S
O511 Fe506 1.997 . S
O511 C527 1.235 . S
O512 Fe506 2.002 . S
O512 C513 1.295 . S
C513 O512 1.295 . S
C513 O515 1.235 . S
C514 O519 1.287 . S
C514 O520 1.255 . S
O515 Fe507 1.997 . S
O515 C513 1.235 . S
C516 O522 1.287 . S
C516 O523 1.255 . S
O517 Fe506 1.976 . S
O517 C524 1.287 . S
O518 Fe507 1.996 . S
O518 C524 1.255 . S
O519 Fe509 1.976 . S
O519 C514 1.287 . S
O520 Fe506 1.996 . S
O520 C514 1.255 . S
C521 O525 1.295 . S
C521 O526 1.235 . S
O522 Fe507 1.976 . S
O522 C516 1.287 . S
O523 Fe509 1.996 . S
O523 C516 1.255 . S
C524 O517 1.287 . S
C524 O518 1.255 . S
O525 Fe507 2.002 . S
O525 C521 1.295 . S
O526 Fe509 1.997 . S
O526 C521 1.235 . S
C527 O510 1.295 . S
C527 O511 1.235 . S
H528 C536 0.950 . S
H529 C541 0.950 . S
H530 C538 0.950 . S
H531 C540 0.974 . S
H532 C542 0.950 . S
H533 C544 0.950 . S
H534 C546 0.974 . S
H535 C547 0.950 . S
C536 H528 0.950 . S
C536 C537 1.386 . S
C536 C538 1.391 . S
C537 C536 1.386 . S
C537 C541 1.393 . S
C538 H530 0.950 . S
C538 C536 1.391 . S
C538 C539 1.400 . S
C539 C538 1.400 . S
C539 C540 1.398 . S
C539 C545 1.491 1_556 S
C540 H531 0.974 . S
C540 C539 1.398 . S
C540 C541 1.391 . S
C541 H529 0.950 . S
C541 C537 1.393 . S
C541 C540 1.391 . S
C542 H532 0.950 . S
C542 C543 1.386 . S
C542 C544 1.391 . S
C543 C542 1.386 . S
C543 C547 1.393 . S
C544 H533 0.950 . S
C544 C542 1.391 . S
C544 C545 1.400 . S
C545 C539 1.491 1_554 S
C545 C544 1.400 . S
C545 C546 1.398 . S
C546 H534 0.974 . S
C546 C545 1.398 . S
C546 C547 1.391 . S
C547 H535 0.950 . S
C547 C543 1.393 . S
C547 C546 1.391 . S
H548 C556 0.950 . S
H549 C561 0.950 . S
H550 C558 0.950 . S
H551 C560 0.950 . S
H552 C562 0.950 . S
H553 C564 0.950 . S
H554 C566 0.950 . S
H555 C567 0.950 . S
C556 H548 0.950 . S
C556 C557 1.386 . S
C556 C558 1.391 . S
C557 C556 1.386 . S
C557 C561 1.393 . S
C558 H550 0.950 . S
C558 C556 1.391 . S
C558 C559 1.400 . S
C559 C558 1.400 . S
C559 C560 1.398 . S
C559 C565 1.491 . S
C560 H551 0.950 . S
C560 C559 1.398 . S
C560 C561 1.391 . S
C561 H549 0.950 . S
C561 C557 1.393 . S
C561 C560 1.391 . S
C562 H552 0.950 . S
C562 C563 1.386 . S
C562 C564 1.391 . S
C563 C562 1.386 . S
C563 C567 1.393 . S
C564 H553 0.950 . S
C564 C562 1.391 . S
C564 C565 1.400 . S
C565 C559 1.491 . S
C565 C564 1.400 . S
C565 C566 1.398 . S
C566 H554 0.950 . S
C566 C565 1.398 . S
C566 C567 1.391 . S
C567 H555 0.950 . S
C567 C563 1.393 . S
C567 C566 1.391 . S
H568 C576 0.950 . S
H569 C581 0.950 . S
H570 C578 0.950 . S
H571 C580 0.950 . S
H572 C582 0.950 . S
H573 C584 0.950 . S
H574 C586 0.950 . S
H575 C587 0.950 . S
C576 H568 0.950 . S
C576 C577 1.386 . S
C576 C578 1.391 . S
C577 C576 1.386 . S
C577 C581 1.393 . S
C578 H570 0.950 . S
C578 C576 1.391 . S
C578 C579 1.400 . S
C579 C578 1.400 . S
C579 C580 1.398 . S
C579 C585 1.491 1_556 S
C580 H571 0.950 . S
C580 C579 1.398 . S
C580 C581 1.391 . S
C581 H569 0.950 . S
C581 C577 1.393 . S
C581 C580 1.391 . S
C582 H572 0.950 . S
C582 C583 1.386 . S
C582 C584 1.391 . S
C583 C582 1.386 . S
C583 C587 1.393 . S
C584 H573 0.950 . S
C584 C582 1.391 . S
C584 C585 1.400 . S
C585 C579 1.491 1_554 S
C585 C584 1.400 . S
C585 C586 1.398 . S
C586 H574 0.950 . S
C586 C585 1.398 . S
C586 C587 1.391 . S
C587 H575 0.950 . S
C587 C583 1.393 . S
C587 C586 1.391 . S
H588 C596 0.950 . S
H589 C601 0.950 . S
H590 C598 0.950 . S
H591 C600 0.950 . S
H592 C602 0.950 . S
H593 C604 0.950 . S
H594 C606 0.950 . S
H595 C607 0.950 . S
C596 H588 0.950 . S
C596 C597 1.386 . S
C596 C598 1.391 . S
C597 C596 1.386 . S
C597 C601 1.393 . S
C598 H590 0.950 . S
C598 C596 1.391 . S
C598 C599 1.400 . S
C599 C598 1.400 . S
C599 C600 1.398 . S
C599 C605 1.491 . S
C600 H591 0.950 . S
C600 C599 1.398 . S
C600 C601 1.391 . S
C601 H589 0.950 . S
C601 C597 1.393 . S
C601 C600 1.391 . S
C602 H592 0.950 . S
C602 C603 1.386 . S
C602 C604 1.391 . S
C603 C602 1.386 . S
C603 C607 1.393 . S
C604 H593 0.950 . S
C604 C602 1.391 . S
C604 C605 1.400 . S
C605 C599 1.491 . S
C605 C604 1.400 . S
C605 C606 1.398 . S
C606 H594 0.950 . S
C606 C605 1.398 . S
C606 C607 1.391 . S
C607 H595 0.950 . S
C607 C603 1.393 . S
C607 C606 1.391 . S
H608 C616 0.950 . S
H609 C621 0.950 . S
H610 C618 0.950 1_554 S
H611 C620 0.950 . S
H612 C622 0.950 . S
H613 C624 0.950 1_556 S
H614 C626 0.950 . S
H615 C627 0.950 . S
C616 H608 0.950 . S
C616 C617 1.386 . S
C616 C618 1.391 . S
C617 C616 1.386 . S
C617 C621 1.393 . S
C618 H610 0.950 1_556 S
C618 C616 1.391 . S
C618 C619 1.400 . S
C619 C618 1.400 . S
C619 C620 1.398 . S
C619 C625 1.491 1_556 S
C620 H611 0.950 . S
C620 C619 1.398 . S
C620 C621 1.391 . S
C621 H609 0.950 . S
C621 C617 1.393 . S
C621 C620 1.391 . S
C622 H612 0.950 . S
C622 C623 1.386 . S
C622 C624 1.391 . S
C623 C622 1.386 . S
C623 C627 1.393 . S
C624 H613 0.950 1_554 S
C624 C622 1.391 . S
C624 C625 1.400 . S
C625 C619 1.491 1_554 S
C625 C624 1.400 . S
C625 C626 1.398 . S
C626 H614 0.950 . S
C626 C625 1.398 . S
C626 C627 1.391 . S
C627 H615 0.950 . S
C627 C623 1.393 . S
C627 C626 1.391 . S
H628 C636 0.950 . S
H629 C641 0.950 . S
H630 C638 0.950 . S
H631 C640 0.950 . S
H632 C642 0.950 . S
H633 C644 0.950 . S
H634 C646 0.950 . S
H635 C647 0.950 . S
C636 H628 0.950 . S
C636 C637 1.386 . S
C636 C638 1.391 . S
C637 C636 1.386 . S
C637 C641 1.393 . S
C638 H630 0.950 . S
C638 C636 1.391 . S
C638 C639 1.400 . S
C639 C638 1.400 . S
C639 C640 1.398 . S
C639 C645 1.491 . S
C640 H631 0.950 . S
C640 C639 1.398 . S
C640 C641 1.391 . S
C641 H629 0.950 . S
C641 C637 1.393 . S
C641 C640 1.391 . S
C642 H632 0.950 . S
C642 C643 1.386 . S
C642 C644 1.391 . S
C643 C642 1.386 . S
C643 C647 1.393 . S
C644 H633 0.950 . S
C644 C642 1.391 . S
C644 C645 1.400 . S
C645 C639 1.491 . S
C645 C644 1.400 . S
C645 C646 1.398 . S
C646 H634 0.950 . S
C646 C645 1.398 . S
C646 C647 1.391 . S
C647 H635 0.950 . S
C647 C643 1.393 . S
C647 C646 1.391 . S
H648 C656 0.950 . S
H649 C661 0.950 . S
H650 C658 0.950 . S
H651 C660 0.950 . S
H652 C662 0.950 . S
H653 C664 0.950 . S
H654 C666 0.950 . S
H655 C667 0.950 . S
C656 H648 0.950 . S
C656 C657 1.386 . S
C656 C658 1.391 . S
C657 C656 1.386 . S
C657 C661 1.393 . S
C658 H650 0.950 . S
C658 C656 1.391 . S
C658 C659 1.400 . S
C659 C658 1.400 . S
C659 C660 1.398 . S
C659 C665 1.491 1_556 S
C660 H651 0.950 . S
C660 C659 1.398 . S
C660 C661 1.391 . S
C661 H649 0.950 . S
C661 C657 1.393 . S
C661 C660 1.391 . S
C662 H652 0.950 . S
C662 C663 1.386 . S
C662 C664 1.391 . S
C663 C662 1.386 . S
C663 C667 1.393 . S
C664 H653 0.950 . S
C664 C662 1.391 . S
C664 C665 1.400 . S
C665 C659 1.491 1_554 S
C665 C664 1.400 . S
C665 C666 1.398 . S
C666 H654 0.950 . S
C666 C665 1.398 . S
C666 C667 1.391 . S
C667 H655 0.950 . S
C667 C663 1.393 . S
C667 C666 1.391 . S
H668 C676 0.950 . S
H669 C681 0.950 . S
H670 C678 0.950 . S
H671 C680 0.950 . S
H672 C682 0.950 . S
H673 C684 0.950 . S
H674 C686 0.950 . S
H675 C687 0.950 . S
C676 H668 0.950 . S
C676 C677 1.386 . S
C676 C678 1.391 . S
C677 C676 1.386 . S
C677 C681 1.393 . S
C678 H670 0.950 . S
C678 C676 1.391 . S
C678 C679 1.400 . S
C679 C678 1.400 . S
C679 C680 1.398 . S
C679 C685 1.491 . S
C680 H671 0.950 . S
C680 C679 1.398 . S
C680 C681 1.391 . S
C681 H669 0.950 . S
C681 C677 1.393 . S
C681 C680 1.391 . S
C682 H672 0.950 . S
C682 C683 1.386 . S
C682 C684 1.391 . S
C683 C682 1.386 . S
C683 C687 1.393 . S
C684 H673 0.950 . S
C684 C682 1.391 . S
C684 C685 1.400 . S
C685 C679 1.491 . S
C685 C684 1.400 . S
C685 C686 1.398 . S
C686 H674 0.950 . S
C686 C685 1.398 . S
C686 C687 1.391 . S
C687 H675 0.950 . S
C687 C683 1.393 . S
C687 C686 1.391 . S
H688 C696 0.950 . S
H689 C701 0.950 . S
H690 C698 0.950 . S
H691 C700 0.950 . S
H692 C702 0.950 . S
H693 C704 0.950 . S
H694 C706 0.950 . S
H695 C707 0.950 . S
C696 H688 0.950 . S
C696 C697 1.386 . S
C696 C698 1.391 . S
C697 C696 1.386 . S
C697 C701 1.393 . S
C698 H690 0.950 . S
C698 C696 1.391 . S
C698 C699 1.400 . S
C699 C698 1.400 . S
C699 C700 1.398 . S
C699 C705 1.491 1_554 S
C700 H691 0.950 . S
C700 C699 1.398 . S
C700 C701 1.391 . S
C701 H689 0.950 . S
C701 C697 1.393 . S
C701 C700 1.391 . S
C702 H692 0.950 . S
C702 C703 1.386 . S
C702 C704 1.391 . S
C703 C702 1.386 . S
C703 C707 1.393 . S
C704 H693 0.950 . S
C704 C702 1.391 . S
C704 C705 1.400 . S
C705 C699 1.491 1_556 S
C705 C704 1.400 . S
C705 C706 1.398 . S
C706 H694 0.950 . S
C706 C705 1.398 . S
C706 C707 1.391 . S
C707 H695 0.950 . S
C707 C703 1.393 . S
C707 C706 1.391 . S
H708 C716 0.950 . S
H709 C721 0.950 . S
H710 C718 0.950 . S
H711 C720 0.950 . S
H712 C722 0.950 . S
H713 C724 0.950 . S
H714 C726 0.950 . S
H715 C727 0.950 . S
C716 H708 0.950 . S
C716 C717 1.386 . S
C716 C718 1.391 . S
C717 C716 1.386 . S
C717 C721 1.393 . S
C718 H710 0.950 . S
C718 C716 1.391 . S
C718 C719 1.400 . S
C719 C718 1.400 . S
C719 C720 1.398 . S
C719 C725 1.491 . S
C720 H711 0.950 . S
C720 C719 1.398 . S
C720 C721 1.391 . S
C721 H709 0.950 . S
C721 C717 1.393 . S
C721 C720 1.391 . S
C722 H712 0.950 . S
C722 C723 1.386 . S
C722 C724 1.391 . S
C723 C722 1.386 . S
C723 C727 1.393 . S
C724 H713 0.950 . S
C724 C722 1.391 . S
C724 C725 1.400 . S
C725 C719 1.491 . S
C725 C724 1.400 . S
C725 C726 1.398 . S
C726 H714 0.950 . S
C726 C725 1.398 . S
C726 C727 1.391 . S
C727 H715 0.950 . S
C727 C723 1.393 . S
C727 C726 1.391 . S
H728 C736 0.950 . S
H729 C741 0.950 . S
H730 C738 0.950 . S
H731 C740 0.950 . S
H732 C742 0.950 . S
H733 C744 0.950 . S
H734 C746 0.950 . S
H735 C747 0.950 . S
C736 H728 0.950 . S
C736 C737 1.386 . S
C736 C738 1.391 . S
C737 C736 1.386 . S
C737 C741 1.393 . S
C738 H730 0.950 . S
C738 C736 1.391 . S
C738 C739 1.400 . S
C739 C738 1.400 . S
C739 C740 1.398 . S
C739 C745 1.491 1_556 S
C740 H731 0.950 . S
C740 C739 1.398 . S
C740 C741 1.391 . S
C741 H729 0.950 . S
C741 C737 1.393 . S
C741 C740 1.391 . S
C742 H732 0.950 . S
C742 C743 1.386 . S
C742 C744 1.391 . S
C743 C742 1.386 . S
C743 C747 1.393 . S
C744 H733 0.950 . S
C744 C742 1.391 . S
C744 C745 1.400 . S
C745 C739 1.491 1_554 S
C745 C744 1.400 . S
C745 C746 1.398 . S
C746 H734 0.950 . S
C746 C745 1.398 . S
C746 C747 1.391 . S
C747 H735 0.950 . S
C747 C743 1.393 . S
C747 C746 1.391 . S
H748 C756 0.950 . S
H749 C761 0.950 . S
H750 C758 0.950 . S
H751 C760 0.950 . S
H752 C762 0.950 . S
H753 C764 0.950 . S
H754 C766 0.950 . S
H755 C767 0.950 . S
C756 H748 0.950 . S
C756 C757 1.386 . S
C756 C758 1.391 . S
C757 C756 1.386 . S
C757 C761 1.393 . S
C758 H750 0.950 . S
C758 C756 1.391 . S
C758 C759 1.400 . S
C759 C758 1.400 . S
C759 C760 1.398 . S
C759 C765 1.491 . S
C760 H751 0.950 . S
C760 C759 1.398 . S
C760 C761 1.391 . S
C761 H749 0.950 . S
C761 C757 1.393 . S
C761 C760 1.391 . S
C762 H752 0.950 . S
C762 C763 1.386 . S
C762 C764 1.391 . S
C763 C762 1.386 . S
C763 C767 1.393 . S
C764 H753 0.950 . S
C764 C762 1.391 . S
C764 C765 1.400 . S
C765 C759 1.491 . S
C765 C764 1.400 . S
C765 C766 1.398 . S
C766 H754 0.950 . S
C766 C765 1.398 . S
C766 C767 1.391 . S
C767 H755 0.950 . S
C767 C763 1.393 . S
C767 C766 1.391 . S
H768 C776 0.950 . S
H769 C781 0.950 . S
H770 C778 0.950 . S
H771 C780 0.950 . S
H772 C782 0.950 . S
H773 C784 0.950 . S
H774 C786 0.950 . S
H775 C787 0.950 . S
C776 H768 0.950 . S
C776 C777 1.386 . S
C776 C778 1.391 . S
C777 C776 1.386 . S
C777 C781 1.393 . S
C778 H770 0.950 . S
C778 C776 1.391 . S
C778 C779 1.400 . S
C779 C778 1.400 . S
C779 C780 1.398 . S
C779 C785 1.491 . S
C780 H771 0.950 . S
C780 C779 1.398 . S
C780 C781 1.391 . S
C781 H769 0.950 . S
C781 C777 1.393 . S
C781 C780 1.391 . S
C782 H772 0.950 . S
C782 C783 1.386 . S
C782 C784 1.391 . S
C783 C782 1.386 . S
C783 C787 1.393 . S
C784 H773 0.950 . S
C784 C782 1.391 . S
C784 C785 1.400 . S
C785 C779 1.491 . S
C785 C784 1.400 . S
C785 C786 1.398 . S
C786 H774 0.950 . S
C786 C785 1.398 . S
C786 C787 1.391 . S
C787 H775 0.950 . S
C787 C783 1.393 . S
C787 C786 1.391 . S
H788 C796 0.950 . S
H789 C801 0.950 . S
H790 C798 0.950 . S
H791 C800 0.950 . S
H792 C802 0.950 . S
H793 C804 0.950 . S
H794 C806 0.950 . S
H795 C807 0.950 . S
C796 H788 0.950 . S
C796 C797 1.386 . S
C796 C798 1.391 . S
C797 C796 1.386 . S
C797 C801 1.393 . S
C798 H790 0.950 . S
C798 C796 1.391 . S
C798 C799 1.400 . S
C799 C798 1.400 . S
C799 C800 1.398 . S
C799 C805 1.491 . S
C800 H791 0.950 . S
C800 C799 1.398 . S
C800 C801 1.391 . S
C801 H789 0.950 . S
C801 C797 1.393 . S
C801 C800 1.391 . S
C802 H792 0.950 . S
C802 C803 1.386 . S
C802 C804 1.391 . S
C803 C802 1.386 . S
C803 C807 1.393 . S
C804 H793 0.950 . S
C804 C802 1.391 . S
C804 C805 1.400 . S
C805 C799 1.491 . S
C805 C804 1.400 . S
C805 C806 1.398 . S
C806 H794 0.950 . S
C806 C805 1.398 . S
C806 C807 1.391 . S
C807 H795 0.950 . S
C807 C803 1.393 . S
C807 C806 1.391 . S
H808 C816 0.950 . S
H809 C821 0.950 . S
H810 C818 0.950 . S
H811 C820 0.950 . S
H812 C822 0.950 . S
H813 C824 0.950 . S
H814 C826 0.950 . S
H815 C827 0.950 . S
C816 H808 0.950 . S
C816 C817 1.386 . S
C816 C818 1.391 . S
C817 C816 1.386 . S
C817 C821 1.393 . S
C818 H810 0.950 . S
C818 C816 1.391 . S
C818 C819 1.400 . S
C819 C818 1.400 . S
C819 C820 1.398 . S
C819 C825 1.491 . S
C820 H811 0.950 . S
C820 C819 1.398 . S
C820 C821 1.391 . S
C821 H809 0.950 . S
C821 C817 1.393 . S
C821 C820 1.391 . S
C822 H812 0.950 . S
C822 C823 1.386 . S
C822 C824 1.391 . S
C823 C822 1.386 . S
C823 C827 1.393 . S
C824 H813 0.950 . S
C824 C822 1.391 . S
C824 C825 1.400 . S
C825 C819 1.491 . S
C825 C824 1.400 . S
C825 C826 1.398 . S
C826 H814 0.950 . S
C826 C825 1.398 . S
C826 C827 1.391 . S
C827 H815 0.950 . S
C827 C823 1.393 . S
C827 C826 1.391 . S
H828 C836 0.950 . S
H829 C841 0.950 . S
H830 C838 0.950 . S
H831 C840 0.950 . S
H832 C842 0.950 . S
H833 C844 0.950 . S
H834 C846 0.950 . S
H835 C847 0.950 . S
C836 H828 0.950 . S
C836 C837 1.386 . S
C836 C838 1.391 . S
C837 C836 1.386 . S
C837 C841 1.393 . S
C838 H830 0.950 . S
C838 C836 1.391 . S
C838 C839 1.400 . S
C839 C838 1.400 . S
C839 C840 1.398 . S
C839 C845 1.491 . S
C840 H831 0.950 . S
C840 C839 1.398 . S
C840 C841 1.391 . S
C841 H829 0.950 . S
C841 C837 1.393 . S
C841 C840 1.391 . S
C842 H832 0.950 . S
C842 C843 1.386 . S
C842 C844 1.391 . S
C843 C842 1.386 . S
C843 C847 1.393 . S
C844 H833 0.950 . S
C844 C842 1.391 . S
C844 C845 1.400 . S
C845 C839 1.491 . S
C845 C844 1.400 . S
C845 C846 1.398 . S
C846 H834 0.950 . S
C846 C845 1.398 . S
C846 C847 1.391 . S
C847 H835 0.950 . S
C847 C843 1.393 . S
C847 C846 1.391 . S
H848 C856 0.950 . S
H849 C861 0.950 . S
H850 C858 0.950 . S
H851 C860 0.950 . S
H852 C862 0.950 . S
H853 C864 0.950 . S
H854 C866 0.950 . S
H855 C867 0.950 . S
C856 H848 0.950 . S
C856 C857 1.386 . S
C856 C858 1.391 . S
C857 C856 1.386 . S
C857 C861 1.393 . S
C858 H850 0.950 . S
C858 C856 1.391 . S
C858 C859 1.400 . S
C859 C858 1.400 . S
C859 C860 1.398 . S
C859 C865 1.491 . S
C860 H851 0.950 . S
C860 C859 1.398 . S
C860 C861 1.391 . S
C861 H849 0.950 . S
C861 C857 1.393 . S
C861 C860 1.391 . S
C862 H852 0.950 . S
C862 C863 1.386 . S
C862 C864 1.391 . S
C863 C862 1.386 . S
C863 C867 1.393 . S
C864 H853 0.950 . S
C864 C862 1.391 . S
C864 C865 1.400 . S
C865 C859 1.491 . S
C865 C864 1.400 . S
C865 C866 1.398 . S
C866 H854 0.950 . S
C866 C865 1.398 . S
C866 C867 1.391 . S
C867 H855 0.950 . S
C867 C863 1.393 . S
C867 C866 1.391 . S
H868 C876 0.950 . S
H869 C881 0.950 . S
H870 C878 0.950 . S
H871 C880 0.950 . S
H872 C882 0.950 . S
H873 C884 0.950 . S
H874 C886 0.950 . S
H875 C887 0.950 . S
C876 H868 0.950 . S
C876 C877 1.386 . S
C876 C878 1.391 . S
C877 C876 1.386 . S
C877 C881 1.393 . S
C878 H870 0.950 . S
C878 C876 1.391 . S
C878 C879 1.400 . S
C879 C878 1.400 . S
C879 C880 1.398 . S
C879 C885 1.491 . S
C880 H871 0.950 . S
C880 C879 1.398 . S
C880 C881 1.391 . S
C881 H869 0.950 . S
C881 C877 1.393 . S
C881 C880 1.391 . S
C882 H872 0.950 . S
C882 C883 1.386 . S
C882 C884 1.391 . S
C883 C882 1.386 . S
C883 C887 1.393 . S
C884 H873 0.950 . S
C884 C882 1.391 . S
C884 C885 1.400 . S
C885 C879 1.491 . S
C885 C884 1.400 . S
C885 C886 1.398 . S
C886 H874 0.950 . S
C886 C885 1.398 . S
C886 C887 1.391 . S
C887 H875 0.950 . S
C887 C883 1.393 . S
C887 C886 1.391 . S
H888 C896 0.950 . S
H889 C901 0.950 . S
H890 C898 0.950 . S
H891 C900 0.950 . S
H892 C902 0.950 . S
H893 C904 0.950 . S
H894 C906 0.950 . S
H895 C907 0.950 . S
C896 H888 0.950 . S
C896 C897 1.386 . S
C896 C898 1.391 . S
C897 C896 1.386 . S
C897 C901 1.393 . S
C898 H890 0.950 . S
C898 C896 1.391 . S
C898 C899 1.400 . S
C899 C898 1.400 . S
C899 C900 1.398 . S
C899 C905 1.491 . S
C900 H891 0.950 . S
C900 C899 1.398 . S
C900 C901 1.391 . S
C901 H889 0.950 . S
C901 C897 1.393 . S
C901 C900 1.391 . S
C902 H892 0.950 . S
C902 C903 1.386 . S
C902 C904 1.391 . S
C903 C902 1.386 . S
C903 C907 1.393 . S
C904 H893 0.950 . S
C904 C902 1.391 . S
C904 C905 1.400 . S
C905 C899 1.491 . S
C905 C904 1.400 . S
C905 C906 1.398 . S
C906 H894 0.950 . S
C906 C905 1.398 . S
C906 C907 1.391 . S
C907 H895 0.950 . S
C907 C903 1.393 . S
C907 C906 1.391 . S
H908 C916 0.950 . S
H909 C921 0.950 . S
H910 C918 0.950 . S
H911 C920 0.950 . S
H912 C922 0.950 . S
H913 C924 0.950 . S
H914 C926 0.950 . S
H915 C927 0.950 . S
C916 H908 0.950 . S
C916 C917 1.386 . S
C916 C918 1.391 . S
C917 C916 1.386 . S
C917 C921 1.393 . S
C918 H910 0.950 . S
C918 C916 1.391 . S
C918 C919 1.400 . S
C919 C918 1.400 . S
C919 C920 1.398 . S
C919 C925 1.491 . S
C920 H911 0.950 . S
C920 C919 1.398 . S
C920 C921 1.391 . S
C921 H909 0.950 . S
C921 C917 1.393 . S
C921 C920 1.391 . S
C922 H912 0.950 . S
C922 C923 1.386 . S
C922 C924 1.391 . S
C923 C922 1.386 . S
C923 C927 1.393 . S
C924 H913 0.950 . S
C924 C922 1.391 . S
C924 C925 1.400 . S
C925 C919 1.491 . S
C925 C924 1.400 . S
C925 C926 1.398 . S
C926 H914 0.950 . S
C926 C925 1.398 . S
C926 C927 1.391 . S
C927 H915 0.950 . S
C927 C923 1.393 . S
C927 C926 1.391 . S
H928 C936 0.950 . S
H929 C941 0.950 . S
H930 C938 0.950 . S
H931 C940 0.950 . S
H932 C942 0.950 . S
H933 C944 0.950 . S
H934 C946 0.950 . S
H935 C947 0.950 . S
C936 H928 0.950 . S
C936 C937 1.386 . S
C936 C938 1.391 . S
C937 C936 1.386 . S
C937 C941 1.393 . S
C938 H930 0.950 . S
C938 C936 1.391 . S
C938 C939 1.400 . S
C939 C938 1.400 . S
C939 C940 1.398 . S
C939 C945 1.491 . S
C940 H931 0.950 . S
C940 C939 1.398 . S
C940 C941 1.391 . S
C941 H929 0.950 . S
C941 C937 1.393 . S
C941 C940 1.391 . S
C942 H932 0.950 . S
C942 C943 1.386 . S
C942 C944 1.391 . S
C943 C942 1.386 . S
C943 C947 1.393 . S
C944 H933 0.950 . S
C944 C942 1.391 . S
C944 C945 1.400 . S
C945 C939 1.491 . S
C945 C944 1.400 . S
C945 C946 1.398 . S
C946 H934 0.950 . S
C946 C945 1.398 . S
C946 C947 1.391 . S
C947 H935 0.950 . S
C947 C943 1.393 . S
C947 C946 1.391 . S
H948 C956 0.950 . S
H949 C961 0.950 . S
H950 C958 0.950 . S
H951 C960 0.950 . S
H952 C962 0.950 . S
H953 C964 0.950 . S
H954 C966 0.950 . S
H955 C967 0.950 . S
C956 H948 0.950 . S
C956 C957 1.386 . S
C956 C958 1.391 . S
C957 C956 1.386 . S
C957 C961 1.393 . S
C958 H950 0.950 . S
C958 C956 1.391 . S
C958 C959 1.400 . S
C959 C958 1.400 . S
C959 C960 1.398 . S
C959 C965 1.491 . S
C960 H951 0.950 . S
C960 C959 1.398 . S
C960 C961 1.391 . S
C961 H949 0.950 . S
C961 C957 1.393 . S
C961 C960 1.391 . S
C962 H952 0.950 . S
C962 C963 1.386 . S
C962 C964 1.391 . S
C963 C962 1.386 . S
C963 C967 1.393 . S
C964 H953 0.950 . S
C964 C962 1.391 . S
C964 C965 1.400 . S
C965 C959 1.491 . S
C965 C964 1.400 . S
C965 C966 1.398 . S
C966 H954 0.950 . S
C966 C965 1.398 . S
C966 C967 1.391 . S
C967 H955 0.950 . S
C967 C963 1.393 . S
C967 C966 1.391 . S
H968 C976 0.950 . S
H969 C981 0.950 . S
H970 C978 0.950 . S
H971 C980 0.950 . S
H972 C982 0.950 . S
H973 C984 0.950 . S
H974 C986 0.950 . S
H975 C987 0.950 . S
C976 H968 0.950 . S
C976 C977 1.386 . S
C976 C978 1.391 . S
C977 C976 1.386 . S
C977 C981 1.393 . S
C978 H970 0.950 . S
C978 C976 1.391 . S
C978 C979 1.400 . S
C979 C978 1.400 . S
C979 C980 1.398 . S
C979 C985 1.491 . S
C980 H971 0.950 . S
C980 C979 1.398 . S
C980 C981 1.391 . S
C981 H969 0.950 . S
C981 C977 1.393 . S
C981 C980 1.391 . S
C982 H972 0.950 . S
C982 C983 1.386 . S
C982 C984 1.391 . S
C983 C982 1.386 . S
C983 C987 1.393 . S
C984 H973 0.950 . S
C984 C982 1.391 . S
C984 C985 1.400 . S
C985 C979 1.491 . S
C985 C984 1.400 . S
C985 C986 1.398 . S
C986 H974 0.950 . S
C986 C985 1.398 . S
C986 C987 1.391 . S
C987 H975 0.950 . S
C987 C983 1.393 . S
C987 C986 1.391 . S
H988 C996 0.950 . S
H989 C1001 0.950 . S
H990 C998 0.950 . S
H991 C1000 0.950 . S
H992 C1002 0.950 . S
H993 C1004 0.950 . S
H994 C1006 0.950 . S
H995 C1007 0.950 . S
C996 H988 0.950 . S
C996 C997 1.386 . S
C996 C998 1.391 . S
C997 C996 1.386 . S
C997 C1001 1.393 . S
C998 H990 0.950 . S
C998 C996 1.391 . S
C998 C999 1.400 . S
C999 C998 1.400 . S
C999 C1000 1.398 . S
C999 C1005 1.491 . S
C1000 H991 0.950 . S
C1000 C999 1.398 . S
C1000 C1001 1.391 . S
C1001 H989 0.950 . S
C1001 C997 1.393 . S
C1001 C1000 1.391 . S
C1002 H992 0.950 . S
C1002 C1003 1.386 . S
C1002 C1004 1.391 . S
C1003 C1002 1.386 . S
C1003 C1007 1.393 . S
C1004 H993 0.950 . S
C1004 C1002 1.391 . S
C1004 C1005 1.400 . S
C1005 C999 1.491 . S
C1005 C1004 1.400 . S
C1005 C1006 1.398 . S
C1006 H994 0.950 . S
C1006 C1005 1.398 . S
C1006 C1007 1.391 . S
C1007 H995 0.950 . S
C1007 C1003 1.393 . S
C1007 C1006 1.391 . S
H1008 C1016 0.950 . S
H1009 C1021 0.950 . S
H1010 C1018 0.950 . S
H1011 C1020 0.950 . S
H1012 C1022 0.950 . S
H1013 C1024 0.950 . S
H1014 C1026 0.950 . S
H1015 C1027 0.950 . S
C1016 H1008 0.950 . S
C1016 C1017 1.386 . S
C1016 C1018 1.391 . S
C1017 C1016 1.386 . S
C1017 C1021 1.393 . S
C1018 H1010 0.950 . S
C1018 C1016 1.391 . S
C1018 C1019 1.400 . S
C1019 C1018 1.400 . S
C1019 C1020 1.398 . S
C1019 C1025 1.491 . S
C1020 H1011 0.950 . S
C1020 C1019 1.398 . S
C1020 C1021 1.391 . S
C1021 H1009 0.950 . S
C1021 C1017 1.393 . S
C1021 C1020 1.391 . S
C1022 H1012 0.950 . S
C1022 C1023 1.386 . S
C1022 C1024 1.391 . S
C1023 C1022 1.386 . S
C1023 C1027 1.393 . S
C1024 H1013 0.950 . S
C1024 C1022 1.391 . S
C1024 C1025 1.400 . S
C1025 C1019 1.491 . S
C1025 C1024 1.400 . S
C1025 C1026 1.398 . S
C1026 H1014 0.950 . S
C1026 C1025 1.398 . S
C1026 C1027 1.391 . S
C1027 H1015 0.950 . S
C1027 C1023 1.393 . S
C1027 C1026 1.391 . S
H1028 C1036 0.950 . S
H1029 C1041 0.950 . S
H1030 C1038 0.950 . S
H1031 C1040 0.950 . S
H1032 C1042 0.950 . S
H1033 C1044 0.950 . S
H1034 C1046 0.950 . S
H1035 C1047 0.950 . S
C1036 H1028 0.950 . S
C1036 C1037 1.386 . S
C1036 C1038 1.391 . S
C1037 C1036 1.386 . S
C1037 C1041 1.393 . S
C1038 H1030 0.950 . S
C1038 C1036 1.391 . S
C1038 C1039 1.400 . S
C1039 C1038 1.400 . S
C1039 C1040 1.398 . S
C1039 C1045 1.491 . S
C1040 H1031 0.950 . S
C1040 C1039 1.398 . S
C1040 C1041 1.391 . S
C1041 H1029 0.950 . S
C1041 C1037 1.393 . S
C1041 C1040 1.391 . S
C1042 H1032 0.950 . S
C1042 C1043 1.386 . S
C1042 C1044 1.391 . S
C1043 C1042 1.386 . S
C1043 C1047 1.393 . S
C1044 H1033 0.950 . S
C1044 C1042 1.391 . S
C1044 C1045 1.400 . S
C1045 C1039 1.491 . S
C1045 C1044 1.400 . S
C1045 C1046 1.398 . S
C1046 H1034 0.950 . S
C1046 C1045 1.398 . S
C1046 C1047 1.391 . S
C1047 H1035 0.950 . S
C1047 C1043 1.393 . S
C1047 C1046 1.391 . S
H1048 C1056 0.950 . S
H1049 C1061 0.950 . S
H1050 C1058 0.950 . S
H1051 C1060 0.950 . S
H1052 C1062 0.950 . S
H1053 C1064 0.950 . S
H1054 C1066 0.950 . S
H1055 C1067 0.950 . S
C1056 H1048 0.950 . S
C1056 C1057 1.386 . S
C1056 C1058 1.391 . S
C1057 C1056 1.386 . S
C1057 C1061 1.393 . S
C1058 H1050 0.950 . S
C1058 C1056 1.391 . S
C1058 C1059 1.400 . S
C1059 C1058 1.400 . S
C1059 C1060 1.398 . S
C1059 C1065 1.491 . S
C1060 H1051 0.950 . S
C1060 C1059 1.398 . S
C1060 C1061 1.391 . S
C1061 H1049 0.950 . S
C1061 C1057 1.393 . S
C1061 C1060 1.391 . S
C1062 H1052 0.950 . S
C1062 C1063 1.386 . S
C1062 C1064 1.391 . S
C1063 C1062 1.386 . S
C1063 C1067 1.393 . S
C1064 H1053 0.950 . S
C1064 C1062 1.391 . S
C1064 C1065 1.400 . S
C1065 C1059 1.491 . S
C1065 C1064 1.400 . S
C1065 C1066 1.398 . S
C1066 H1054 0.950 . S
C1066 C1065 1.398 . S
C1066 C1067 1.391 . S
C1067 H1055 0.950 . S
C1067 C1063 1.393 . S
C1067 C1066 1.391 . S
H1068 C1076 0.950 . S
H1069 C1081 0.950 . S
H1070 C1078 0.950 . S
H1071 C1080 0.950 . S
H1072 C1082 0.950 . S
H1073 C1084 0.950 . S
H1074 C1086 0.950 . S
H1075 C1087 0.950 . S
C1076 H1068 0.950 . S
C1076 C1077 1.386 . S
C1076 C1078 1.391 . S
C1077 C1076 1.386 . S
C1077 C1081 1.393 . S
C1078 H1070 0.950 . S
C1078 C1076 1.391 . S
C1078 C1079 1.400 . S
C1079 C1078 1.400 . S
C1079 C1080 1.398 . S
C1079 C1085 1.491 . S
C1080 H1071 0.950 . S
C1080 C1079 1.398 . S
C1080 C1081 1.391 . S
C1081 H1069 0.950 . S
C1081 C1077 1.393 . S
C1081 C1080 1.391 . S
C1082 H1072 0.950 . S
C1082 C1083 1.386 . S
C1082 C1084 1.391 . S
C1083 C1082 1.386 . S
C1083 C1087 1.393 . S
C1084 H1073 0.950 . S
C1084 C1082 1.391 . S
C1084 C1085 1.400 . S
C1085 C1079 1.491 . S
C1085 C1084 1.400 . S
C1085 C1086 1.398 . S
C1086 H1074 0.950 . S
C1086 C1085 1.398 . S
C1086 C1087 1.391 . S
C1087 H1075 0.950 . S
C1087 C1083 1.393 . S
C1087 C1086 1.391 . S
H1088 C1096 0.950 . S
H1089 C1101 0.950 . S
H1090 C1098 0.950 . S
H1091 C1100 0.950 . S
H1092 C1102 0.950 . S
H1093 C1104 0.950 . S
H1094 C1106 0.950 . S
H1095 C1107 0.950 . S
C1096 H1088 0.950 . S
C1096 C1097 1.386 . S
C1096 C1098 1.391 . S
C1097 C1096 1.386 . S
C1097 C1101 1.393 . S
C1098 H1090 0.950 . S
C1098 C1096 1.391 . S
C1098 C1099 1.400 . S
C1099 C1098 1.400 . S
C1099 C1100 1.398 . S
C1099 C1105 1.491 . S
C1100 H1091 0.950 . S
C1100 C1099 1.398 . S
C1100 C1101 1.391 . S
C1101 H1089 0.950 . S
C1101 C1097 1.393 . S
C1101 C1100 1.391 . S
C1102 H1092 0.950 . S
C1102 C1103 1.386 . S
C1102 C1104 1.391 . S
C1103 C1102 1.386 . S
C1103 C1107 1.393 . S
C1104 H1093 0.950 . S
C1104 C1102 1.391 . S
C1104 C1105 1.400 . S
C1105 C1099 1.491 . S
C1105 C1104 1.400 . S
C1105 C1106 1.398 . S
C1106 H1094 0.950 . S
C1106 C1105 1.398 . S
C1106 C1107 1.391 . S
C1107 H1095 0.950 . S
C1107 C1103 1.393 . S
C1107 C1106 1.391 . S
H1108 C1116 0.950 . S
H1109 C1121 0.950 . S
H1110 C1118 0.950 . S
H1111 C1120 0.950 . S
H1112 C1122 0.950 . S
H1113 C1124 0.950 . S
H1114 C1126 0.950 . S
H1115 C1127 0.950 . S
C1116 H1108 0.950 . S
C1116 C1117 1.386 . S
C1116 C1118 1.391 . S
C1117 C1116 1.386 . S
C1117 C1121 1.393 . S
C1118 H1110 0.950 . S
C1118 C1116 1.391 . S
C1118 C1119 1.400 . S
C1119 C1118 1.400 . S
C1119 C1120 1.398 . S
C1119 C1125 1.491 . S
C1120 H1111 0.950 . S
C1120 C1119 1.398 . S
C1120 C1121 1.391 . S
C1121 H1109 0.950 . S
C1121 C1117 1.393 . S
C1121 C1120 1.391 . S
C1122 H1112 0.950 . S
C1122 C1123 1.386 . S
C1122 C1124 1.391 . S
C1123 C1122 1.386 . S
C1123 C1127 1.393 . S
C1124 H1113 0.950 . S
C1124 C1122 1.391 . S
C1124 C1125 1.400 . S
C1125 C1119 1.491 . S
C1125 C1124 1.400 . S
C1125 C1126 1.398 . S
C1126 H1114 0.950 . S
C1126 C1125 1.398 . S
C1126 C1127 1.391 . S
C1127 H1115 0.950 . S
C1127 C1123 1.393 . S
C1127 C1126 1.391 . S
H1128 C1136 0.950 . S
H1129 C1141 0.950 . S
H1130 C1138 0.950 . S
H1131 C1140 0.950 . S
H1132 C1142 0.950 . S
H1133 C1144 0.950 . S
H1134 C1146 0.950 . S
H1135 C1147 0.950 . S
C1136 H1128 0.950 . S
C1136 C1137 1.386 . S
C1136 C1138 1.391 . S
C1137 C1136 1.386 . S
C1137 C1141 1.393 . S
C1138 H1130 0.950 . S
C1138 C1136 1.391 . S
C1138 C1139 1.400 . S
C1139 C1138 1.400 . S
C1139 C1140 1.398 . S
C1139 C1145 1.491 . S
C1140 H1131 0.950 . S
C1140 C1139 1.398 . S
C1140 C1141 1.391 . S
C1141 H1129 0.950 . S
C1141 C1137 1.393 . S
C1141 C1140 1.391 . S
C1142 H1132 0.950 . S
C1142 C1143 1.386 . S
C1142 C1144 1.391 . S
C1143 C1142 1.386 . S
C1143 C1147 1.393 . S
C1144 H1133 0.950 . S
C1144 C1142 1.391 . S
C1144 C1145 1.400 . S
C1145 C1139 1.491 . S
C1145 C1144 1.400 . S
C1145 C1146 1.398 . S
C1146 H1134 0.950 . S
C1146 C1145 1.398 . S
C1146 C1147 1.391 . S
C1147 H1135 0.950 . S
C1147 C1143 1.393 . S
C1147 C1146 1.391 . S
H1148 C1156 0.950 . S
H1149 C1161 0.950 . S
H1150 C1158 0.950 . S
H1151 C1160 0.950 . S
H1152 C1162 0.950 . S
H1153 C1164 0.950 . S
H1154 C1166 0.950 . S
H1155 C1167 0.950 . S
C1156 H1148 0.950 . S
C1156 C1157 1.386 . S
C1156 C1158 1.391 . S
C1157 C1156 1.386 . S
C1157 C1161 1.393 . S
C1158 H1150 0.950 . S
C1158 C1156 1.391 . S
C1158 C1159 1.400 . S
C1159 C1158 1.400 . S
C1159 C1160 1.398 . S
C1159 C1165 1.491 . S
C1160 H1151 0.950 . S
C1160 C1159 1.398 . S
C1160 C1161 1.391 . S
C1161 H1149 0.950 . S
C1161 C1157 1.393 . S
C1161 C1160 1.391 . S
C1162 H1152 0.950 . S
C1162 C1163 1.386 . S
C1162 C1164 1.391 . S
C1163 C1162 1.386 . S
C1163 C1167 1.393 . S
C1164 H1153 0.950 . S
C1164 C1162 1.391 . S
C1164 C1165 1.400 . S
C1165 C1159 1.491 . S
C1165 C1164 1.400 . S
C1165 C1166 1.398 . S
C1166 H1154 0.950 . S
C1166 C1165 1.398 . S
C1166 C1167 1.391 . S
C1167 H1155 0.950 . S
C1167 C1163 1.393 . S
C1167 C1166 1.391 . S
H1168 C1176 0.950 . S
H1169 C1181 0.950 . S
H1170 C1178 0.950 . S
H1171 C1180 0.950 . S
H1172 C1182 0.950 . S
H1173 C1184 0.950 . S
H1174 C1186 0.950 . S
H1175 C1187 0.950 . S
C1176 H1168 0.950 . S
C1176 C1177 1.386 . S
C1176 C1178 1.391 . S
C1177 C1176 1.386 . S
C1177 C1181 1.393 . S
C1178 H1170 0.950 . S
C1178 C1176 1.391 . S
C1178 C1179 1.400 . S
C1179 C1178 1.400 . S
C1179 C1180 1.398 . S
C1179 C1185 1.491 . S
C1180 H1171 0.950 . S
C1180 C1179 1.398 . S
C1180 C1181 1.391 . S
C1181 H1169 0.950 . S
C1181 C1177 1.393 . S
C1181 C1180 1.391 . S
C1182 H1172 0.950 . S
C1182 C1183 1.386 . S
C1182 C1184 1.391 . S
C1183 C1182 1.386 . S
C1183 C1187 1.393 . S
C1184 H1173 0.950 . S
C1184 C1182 1.391 . S
C1184 C1185 1.400 . S
C1185 C1179 1.491 . S
C1185 C1184 1.400 . S
C1185 C1186 1.398 . S
C1186 H1174 0.950 . S
C1186 C1185 1.398 . S
C1186 C1187 1.391 . S
C1187 H1175 0.950 . S
C1187 C1183 1.393 . S
C1187 C1186 1.391 . S
H1188 C1196 0.950 . S
H1189 C1201 0.950 . S
H1190 C1198 0.950 . S
H1191 C1200 0.950 . S
H1192 C1202 0.950 . S
H1193 C1204 0.950 . S
H1194 C1206 0.950 . S
H1195 C1207 0.950 . S
C1196 H1188 0.950 . S
C1196 C1197 1.386 . S
C1196 C1198 1.391 . S
C1197 C1196 1.386 . S
C1197 C1201 1.393 . S
C1198 H1190 0.950 . S
C1198 C1196 1.391 . S
C1198 C1199 1.400 . S
C1199 C1198 1.400 . S
C1199 C1200 1.398 . S
C1199 C1205 1.491 . S
C1200 H1191 0.950 . S
C1200 C1199 1.398 . S
C1200 C1201 1.391 . S
C1201 H1189 0.950 . S
C1201 C1197 1.393 . S
C1201 C1200 1.391 . S
C1202 H1192 0.950 . S
C1202 C1203 1.386 . S
C1202 C1204 1.391 . S
C1203 C1202 1.386 . S
C1203 C1207 1.393 . S
C1204 H1193 0.950 . S
C1204 C1202 1.391 . S
C1204 C1205 1.400 . S
C1205 C1199 1.491 . S
C1205 C1204 1.400 . S
C1205 C1206 1.398 . S
C1206 H1194 0.950 . S
C1206 C1205 1.398 . S
C1206 C1207 1.391 . S
C1207 H1195 0.950 . S
C1207 C1203 1.393 . S
C1207 C1206 1.391 . S
H1208 C1216 0.950 . S
H1209 C1221 0.950 . S
H1210 C1218 0.950 . S
H1211 C1220 0.950 . S
H1212 C1222 0.950 . S
H1213 C1224 0.950 . S
H1214 C1226 0.950 . S
H1215 C1227 0.950 . S
C1216 H1208 0.950 . S
C1216 C1217 1.386 . S
C1216 C1218 1.391 . S
C1217 C1216 1.386 . S
C1217 C1221 1.393 . S
C1218 H1210 0.950 . S
C1218 C1216 1.391 . S
C1218 C1219 1.400 . S
C1219 C1218 1.400 . S
C1219 C1220 1.398 . S
C1219 C1225 1.491 . S
C1220 H1211 0.950 . S
C1220 C1219 1.398 . S
C1220 C1221 1.391 . S
C1221 H1209 0.950 . S
C1221 C1217 1.393 . S
C1221 C1220 1.391 . S
C1222 H1212 0.950 . S
C1222 C1223 1.386 . S
C1222 C1224 1.391 . S
C1223 C1222 1.386 . S
C1223 C1227 1.393 . S
C1224 H1213 0.950 . S
C1224 C1222 1.391 . S
C1224 C1225 1.400 . S
C1225 C1219 1.491 . S
C1225 C1224 1.400 . S
C1225 C1226 1.398 . S
C1226 H1214 0.950 . S
C1226 C1225 1.398 . S
C1226 C1227 1.391 . S
C1227 H1215 0.950 . S
C1227 C1223 1.393 . S
C1227 C1226 1.391 . S
H1228 C1236 0.950 . S
H1229 C1241 0.950 . S
H1230 C1238 0.950 . S
H1231 C1240 0.950 . S
H1232 C1242 0.950 . S
H1233 C1244 0.950 . S
H1234 C1246 0.950 . S
H1235 C1247 0.950 . S
C1236 H1228 0.950 . S
C1236 C1237 1.386 . S
C1236 C1238 1.391 . S
C1237 C1236 1.386 . S
C1237 C1241 1.393 . S
C1238 H1230 0.950 . S
C1238 C1236 1.391 . S
C1238 C1239 1.400 . S
C1239 C1238 1.400 . S
C1239 C1240 1.398 . S
C1239 C1245 1.491 . S
C1240 H1231 0.950 . S
C1240 C1239 1.398 . S
C1240 C1241 1.391 . S
C1241 H1229 0.950 . S
C1241 C1237 1.393 . S
C1241 C1240 1.391 . S
C1242 H1232 0.950 . S
C1242 C1243 1.386 . S
C1242 C1244 1.391 . S
C1243 C1242 1.386 . S
C1243 C1247 1.393 . S
C1244 H1233 0.950 . S
C1244 C1242 1.391 . S
C1244 C1245 1.400 . S
C1245 C1239 1.491 . S
C1245 C1244 1.400 . S
C1245 C1246 1.398 . S
C1246 H1234 0.950 . S
C1246 C1245 1.398 . S
C1246 C1247 1.391 . S
C1247 H1235 0.950 . S
C1247 C1243 1.393 . S
C1247 C1246 1.391 . S
H1248 C1256 0.950 . S
H1249 C1261 0.950 . S
H1250 C1258 0.950 . S
H1251 C1260 0.950 . S
H1252 C1262 0.950 . S
H1253 C1264 0.950 . S
H1254 C1266 0.950 . S
H1255 C1267 0.950 . S
C1256 H1248 0.950 . S
C1256 C1257 1.386 . S
C1256 C1258 1.391 . S
C1257 C1256 1.386 . S
C1257 C1261 1.393 . S
C1258 H1250 0.950 . S
C1258 C1256 1.391 . S
C1258 C1259 1.400 . S
C1259 C1258 1.400 . S
C1259 C1260 1.398 . S
C1259 C1265 1.491 . S
C1260 H1251 0.950 . S
C1260 C1259 1.398 . S
C1260 C1261 1.391 . S
C1261 H1249 0.950 . S
C1261 C1257 1.393 . S
C1261 C1260 1.391 . S
C1262 H1252 0.950 . S
C1262 C1263 1.386 . S
C1262 C1264 1.391 . S
C1263 C1262 1.386 . S
C1263 C1267 1.393 . S
C1264 H1253 0.950 . S
C1264 C1262 1.391 . S
C1264 C1265 1.400 . S
C1265 C1259 1.491 . S
C1265 C1264 1.400 . S
C1265 C1266 1.398 . S
C1266 H1254 0.950 . S
C1266 C1265 1.398 . S
C1266 C1267 1.391 . S
C1267 H1255 0.950 . S
C1267 C1263 1.393 . S
C1267 C1266 1.391 . S
H1268 C1276 0.950 . S
H1269 C1281 0.950 . S
H1270 C1278 0.950 . S
H1271 C1280 0.950 . S
H1272 C1282 0.950 . S
H1273 C1284 0.950 . S
H1274 C1286 0.950 . S
H1275 C1287 0.950 . S
C1276 H1268 0.950 . S
C1276 C1277 1.386 . S
C1276 C1278 1.391 . S
C1277 C1276 1.386 . S
C1277 C1281 1.393 . S
C1278 H1270 0.950 . S
C1278 C1276 1.391 . S
C1278 C1279 1.400 . S
C1279 C1278 1.400 . S
C1279 C1280 1.398 . S
C1279 C1285 1.491 . S
C1280 H1271 0.950 . S
C1280 C1279 1.398 . S
C1280 C1281 1.391 . S
C1281 H1269 0.950 . S
C1281 C1277 1.393 . S
C1281 C1280 1.391 . S
C1282 H1272 0.950 . S
C1282 C1283 1.386 . S
C1282 C1284 1.391 . S
C1283 C1282 1.386 . S
C1283 C1287 1.393 . S
C1284 H1273 0.950 . S
C1284 C1282 1.391 . S
C1284 C1285 1.400 . S
C1285 C1279 1.491 . S
C1285 C1284 1.400 . S
C1285 C1286 1.398 . S
C1286 H1274 0.950 . S
C1286 C1285 1.398 . S
C1286 C1287 1.391 . S
C1287 H1275 0.950 . S
C1287 C1283 1.393 . S
C1287 C1286 1.391 . S
H1288 C1296 0.950 . S
H1289 C1301 0.950 . S
H1290 C1298 0.950 . S
H1291 C1300 0.950 . S
H1292 C1302 0.950 . S
H1293 C1304 0.950 . S
H1294 C1306 0.950 . S
H1295 C1307 0.950 . S
C1296 H1288 0.950 . S
C1296 C1297 1.386 . S
C1296 C1298 1.391 . S
C1297 C1296 1.386 . S
C1297 C1301 1.393 . S
C1298 H1290 0.950 . S
C1298 C1296 1.391 . S
C1298 C1299 1.400 . S
C1299 C1298 1.400 . S
C1299 C1300 1.398 . S
C1299 C1305 1.491 . S
C1300 H1291 0.950 . S
C1300 C1299 1.398 . S
C1300 C1301 1.391 . S
C1301 H1289 0.950 . S
C1301 C1297 1.393 . S
C1301 C1300 1.391 . S
C1302 H1292 0.950 . S
C1302 C1303 1.386 . S
C1302 C1304 1.391 . S
C1303 C1302 1.386 . S
C1303 C1307 1.393 . S
C1304 H1293 0.950 . S
C1304 C1302 1.391 . S
C1304 C1305 1.400 . S
C1305 C1299 1.491 . S
C1305 C1304 1.400 . S
C1305 C1306 1.398 . S
C1306 H1294 0.950 . S
C1306 C1305 1.398 . S
C1306 C1307 1.391 . S
C1307 H1295 0.950 . S
C1307 C1303 1.393 . S
C1307 C1306 1.391 . S
H1308 C1316 0.950 . S
H1309 C1321 0.950 . S
H1310 C1318 0.950 . S
H1311 C1320 0.950 . S
H1312 C1322 0.950 . S
H1313 C1324 0.950 . S
H1314 C1326 0.950 . S
H1315 C1327 0.950 . S
C1316 H1308 0.950 . S
C1316 C1317 1.386 . S
C1316 C1318 1.391 . S
C1317 C1316 1.386 . S
C1317 C1321 1.393 . S
C1318 H1310 0.950 . S
C1318 C1316 1.391 . S
C1318 C1319 1.400 . S
C1319 C1318 1.400 . S
C1319 C1320 1.398 . S
C1319 C1325 1.491 . S
C1320 H1311 0.950 . S
C1320 C1319 1.398 . S
C1320 C1321 1.391 . S
C1321 H1309 0.950 . S
C1321 C1317 1.393 . S
C1321 C1320 1.391 . S
C1322 H1312 0.950 . S
C1322 C1323 1.386 . S
C1322 C1324 1.391 . S
C1323 C1322 1.386 . S
C1323 C1327 1.393 . S
C1324 H1313 0.950 . S
C1324 C1322 1.391 . S
C1324 C1325 1.400 . S
C1325 C1319 1.491 . S
C1325 C1324 1.400 . S
C1325 C1326 1.398 . S
C1326 H1314 0.950 . S
C1326 C1325 1.398 . S
C1326 C1327 1.391 . S
C1327 H1315 0.950 . S
C1327 C1323 1.393 . S
C1327 C1326 1.391 . S
H1328 C1336 0.950 . S
H1329 C1341 0.950 . S
H1330 C1338 0.950 . S
H1331 C1340 0.950 . S
H1332 C1342 0.950 . S
H1333 C1344 0.950 . S
H1334 C1346 0.950 . S
H1335 C1347 0.950 . S
C1336 H1328 0.950 . S
C1336 C1337 1.386 . S
C1336 C1338 1.391 . S
C1337 C1336 1.386 . S
C1337 C1341 1.393 . S
C1338 H1330 0.950 . S
C1338 C1336 1.391 . S
C1338 C1339 1.400 . S
C1339 C1338 1.400 . S
C1339 C1340 1.398 . S
C1339 C1345 1.491 . S
C1340 H1331 0.950 . S
C1340 C1339 1.398 . S
C1340 C1341 1.391 . S
C1341 H1329 0.950 . S
C1341 C1337 1.393 . S
C1341 C1340 1.391 . S
C1342 H1332 0.950 . S
C1342 C1343 1.386 . S
C1342 C1344 1.391 . S
C1343 C1342 1.386 . S
C1343 C1347 1.393 . S
C1344 H1333 0.950 . S
C1344 C1342 1.391 . S
C1344 C1345 1.400 . S
C1345 C1339 1.491 . S
C1345 C1344 1.400 . S
C1345 C1346 1.398 . S
C1346 H1334 0.950 . S
C1346 C1345 1.398 . S
C1346 C1347 1.391 . S
C1347 H1335 0.950 . S
C1347 C1343 1.393 . S
C1347 C1346 1.391 . S
H1348 C1356 0.950 . S
H1349 C1361 0.950 . S
H1350 C1358 0.950 . S
H1351 C1360 0.950 . S
H1352 C1362 0.950 . S
H1353 C1364 0.950 . S
H1354 C1366 0.950 . S
H1355 C1367 0.950 . S
C1356 H1348 0.950 . S
C1356 C1357 1.386 . S
C1356 C1358 1.391 . S
C1357 C1356 1.386 . S
C1357 C1361 1.393 . S
C1358 H1350 0.950 . S
C1358 C1356 1.391 . S
C1358 C1359 1.400 . S
C1359 C1358 1.400 . S
C1359 C1360 1.398 . S
C1359 C1365 1.491 . S
C1360 H1351 0.950 . S
C1360 C1359 1.398 . S
C1360 C1361 1.391 . S
C1361 H1349 0.950 . S
C1361 C1357 1.393 . S
C1361 C1360 1.391 . S
C1362 H1352 0.950 . S
C1362 C1363 1.386 . S
C1362 C1364 1.391 . S
C1363 C1362 1.386 . S
C1363 C1367 1.393 . S
C1364 H1353 0.950 . S
C1364 C1362 1.391 . S
C1364 C1365 1.400 . S
C1365 C1359 1.491 . S
C1365 C1364 1.400 . S
C1365 C1366 1.398 . S
C1366 H1354 0.950 . S
C1366 C1365 1.398 . S
C1366 C1367 1.391 . S
C1367 H1355 0.950 . S
C1367 C1363 1.393 . S
C1367 C1366 1.391 . S
H1368 C1376 0.950 . S
H1369 C1381 0.950 . S
H1370 C1378 0.950 . S
H1371 C1380 0.950 . S
H1372 C1382 0.950 . S
H1373 C1384 0.950 . S
H1374 C1386 0.950 . S
H1375 C1387 0.950 . S
C1376 H1368 0.950 . S
C1376 C1377 1.386 . S
C1376 C1378 1.391 . S
C1377 C1376 1.386 . S
C1377 C1381 1.393 . S
C1378 H1370 0.950 . S
C1378 C1376 1.391 . S
C1378 C1379 1.400 . S
C1379 C1378 1.400 . S
C1379 C1380 1.398 . S
C1379 C1385 1.491 . S
C1380 H1371 0.950 . S
C1380 C1379 1.398 . S
C1380 C1381 1.391 . S
C1381 H1369 0.950 . S
C1381 C1377 1.393 . S
C1381 C1380 1.391 . S
C1382 H1372 0.950 . S
C1382 C1383 1.386 . S
C1382 C1384 1.391 . S
C1383 C1382 1.386 . S
C1383 C1387 1.393 . S
C1384 H1373 0.950 . S
C1384 C1382 1.391 . S
C1384 C1385 1.400 . S
C1385 C1379 1.491 . S
C1385 C1384 1.400 . S
C1385 C1386 1.398 . S
C1386 H1374 0.950 . S
C1386 C1385 1.398 . S
C1386 C1387 1.391 . S
C1387 H1375 0.950 . S
C1387 C1383 1.393 . S
C1387 C1386 1.391 . S
H1388 C1396 0.950 . S
H1389 C1401 0.950 . S
H1390 C1398 0.950 . S
H1391 C1400 0.950 . S
H1392 C1402 0.950 . S
H1393 C1404 0.950 . S
H1394 C1406 0.950 . S
H1395 C1407 0.950 . S
C1396 H1388 0.950 . S
C1396 C1397 1.386 . S
C1396 C1398 1.391 . S
C1397 C1396 1.386 . S
C1397 C1401 1.393 . S
C1398 H1390 0.950 . S
C1398 C1396 1.391 . S
C1398 C1399 1.400 . S
C1399 C1398 1.400 . S
C1399 C1400 1.398 . S
C1399 C1405 1.491 . S
C1400 H1391 0.950 . S
C1400 C1399 1.398 . S
C1400 C1401 1.391 . S
C1401 H1389 0.950 . S
C1401 C1397 1.393 . S
C1401 C1400 1.391 . S
C1402 H1392 0.950 . S
C1402 C1403 1.386 . S
C1402 C1404 1.391 . S
C1403 C1402 1.386 . S
C1403 C1407 1.393 . S
C1404 H1393 0.950 . S
C1404 C1402 1.391 . S
C1404 C1405 1.400 . S
C1405 C1399 1.491 . S
C1405 C1404 1.400 . S
C1405 C1406 1.398 . S
C1406 H1394 0.950 . S
C1406 C1405 1.398 . S
C1406 C1407 1.391 . S
C1407 H1395 0.950 . S
C1407 C1403 1.393 . S
C1407 C1406 1.391 . S
H1408 C1416 0.950 . S
H1409 C1421 0.950 . S
H1410 C1418 0.950 . S
H1411 C1420 0.950 . S
H1412 C1422 0.950 . S
H1413 C1424 0.950 . S
H1414 C1426 0.950 . S
H1415 C1427 0.950 . S
C1416 H1408 0.950 . S
C1416 C1417 1.386 . S
C1416 C1418 1.391 . S
C1417 C1416 1.386 . S
C1417 C1421 1.393 . S
C1418 H1410 0.950 . S
C1418 C1416 1.391 . S
C1418 C1419 1.400 . S
C1419 C1418 1.400 . S
C1419 C1420 1.398 . S
C1419 C1425 1.491 . S
C1420 H1411 0.950 . S
C1420 C1419 1.398 . S
C1420 C1421 1.391 . S
C1421 H1409 0.950 . S
C1421 C1417 1.393 . S
C1421 C1420 1.391 . S
C1422 H1412 0.950 . S
C1422 C1423 1.386 . S
C1422 C1424 1.391 . S
C1423 C1422 1.386 . S
C1423 C1427 1.393 . S
C1424 H1413 0.950 . S
C1424 C1422 1.391 . S
C1424 C1425 1.400 . S
C1425 C1419 1.491 . S
C1425 C1424 1.400 . S
C1425 C1426 1.398 . S
C1426 H1414 0.950 . S
C1426 C1425 1.398 . S
C1426 C1427 1.391 . S
C1427 H1415 0.950 . S
C1427 C1423 1.393 . S
C1427 C1426 1.391 . S
H1428 C1436 0.950 . S
H1429 C1441 0.950 . S
H1430 C1438 0.950 . S
H1431 C1440 0.950 . S
H1432 C1442 0.950 . S
H1433 C1444 0.950 . S
H1434 C1446 0.950 . S
H1435 C1447 0.950 . S
C1436 H1428 0.950 . S
C1436 C1437 1.386 . S
C1436 C1438 1.391 . S
C1437 C1436 1.386 . S
C1437 C1441 1.393 . S
C1438 H1430 0.950 . S
C1438 C1436 1.391 . S
C1438 C1439 1.400 . S
C1439 C1438 1.400 . S
C1439 C1440 1.398 . S
C1439 C1445 1.491 . S
C1440 H1431 0.950 . S
C1440 C1439 1.398 . S
C1440 C1441 1.391 . S
C1441 H1429 0.950 . S
C1441 C1437 1.393 . S
C1441 C1440 1.391 . S
C1442 H1432 0.950 . S
C1442 C1443 1.386 . S
C1442 C1444 1.391 . S
C1443 C1442 1.386 . S
C1443 C1447 1.393 . S
C1444 H1433 0.950 . S
C1444 C1442 1.391 . S
C1444 C1445 1.400 . S
C1445 C1439 1.491 . S
C1445 C1444 1.400 . S
C1445 C1446 1.398 . S
C1446 H1434 0.950 . S
C1446 C1445 1.398 . S
C1446 C1447 1.391 . S
C1447 H1435 0.950 . S
C1447 C1443 1.393 . S
C1447 C1446 1.391 . S
H1448 C1456 0.950 . S
H1449 C1461 0.950 . S
H1450 C1458 0.950 . S
H1451 C1460 0.950 . S
H1452 C1462 0.950 . S
H1453 C1464 0.950 . S
H1454 C1466 0.950 . S
H1455 C1467 0.950 . S
C1456 H1448 0.950 . S
C1456 C1457 1.386 . S
C1456 C1458 1.391 . S
C1457 C1456 1.386 . S
C1457 C1461 1.393 . S
C1458 H1450 0.950 . S
C1458 C1456 1.391 . S
C1458 C1459 1.400 . S
C1459 C1458 1.400 . S
C1459 C1460 1.398 . S
C1459 C1465 1.491 . S
C1460 H1451 0.950 . S
C1460 C1459 1.398 . S
C1460 C1461 1.391 . S
C1461 H1449 0.950 . S
C1461 C1457 1.393 . S
C1461 C1460 1.391 . S
C1462 H1452 0.950 . S
C1462 C1463 1.386 . S
C1462 C1464 1.391 . S
C1463 C1462 1.386 . S
C1463 C1467 1.393 . S
C1464 H1453 0.950 . S
C1464 C1462 1.391 . S
C1464 C1465 1.400 . S
C1465 C1459 1.491 . S
C1465 C1464 1.400 . S
C1465 C1466 1.398 . S
C1466 H1454 0.950 . S
C1466 C1465 1.398 . S
C1466 C1467 1.391 . S
C1467 H1455 0.950 . S
C1467 C1463 1.393 . S
C1467 C1466 1.391 . S
H1468 C1476 0.950 . S
H1469 C1481 0.950 . S
H1470 C1478 0.950 . S
H1471 C1480 0.950 . S
H1472 C1482 0.950 . S
H1473 C1484 0.950 . S
H1474 C1486 0.950 . S
H1475 C1487 0.950 . S
C1476 H1468 0.950 . S
C1476 C1477 1.386 . S
C1476 C1478 1.391 . S
C1477 C1476 1.386 . S
C1477 C1481 1.393 . S
C1478 H1470 0.950 . S
C1478 C1476 1.391 . S
C1478 C1479 1.400 . S
C1479 C1478 1.400 . S
C1479 C1480 1.398 . S
C1479 C1485 1.491 . S
C1480 H1471 0.950 . S
C1480 C1479 1.398 . S
C1480 C1481 1.391 . S
C1481 H1469 0.950 . S
C1481 C1477 1.393 . S
C1481 C1480 1.391 . S
C1482 H1472 0.950 . S
C1482 C1483 1.386 . S
C1482 C1484 1.391 . S
C1483 C1482 1.386 . S
C1483 C1487 1.393 . S
C1484 H1473 0.950 . S
C1484 C1482 1.391 . S
C1484 C1485 1.400 . S
C1485 C1479 1.491 . S
C1485 C1484 1.400 . S
C1485 C1486 1.398 . S
C1486 H1474 0.950 . S
C1486 C1485 1.398 . S
C1486 C1487 1.391 . S
C1487 H1475 0.950 . S
C1487 C1483 1.393 . S
C1487 C1486 1.391 . S
H1488 C1496 0.950 . S
H1489 C1501 0.950 . S
H1490 C1498 0.950 . S
H1491 C1500 0.950 . S
H1492 C1502 0.950 . S
H1493 C1504 0.950 . S
H1494 C1506 0.950 . S
H1495 C1507 0.950 . S
C1496 H1488 0.950 . S
C1496 C1497 1.386 . S
C1496 C1498 1.391 . S
C1497 C1496 1.386 . S
C1497 C1501 1.393 . S
C1498 H1490 0.950 . S
C1498 C1496 1.391 . S
C1498 C1499 1.400 . S
C1499 C1498 1.400 . S
C1499 C1500 1.398 . S
C1499 C1505 1.491 1_655 S
C1500 H1491 0.950 . S
C1500 C1499 1.398 . S
C1500 C1501 1.391 . S
C1501 H1489 0.950 . S
C1501 C1497 1.393 . S
C1501 C1500 1.391 . S
C1502 H1492 0.950 . S
C1502 C1503 1.386 . S
C1502 C1504 1.391 . S
C1503 C1502 1.386 . S
C1503 C1507 1.393 . S
C1504 H1493 0.950 . S
C1504 C1502 1.391 . S
C1504 C1505 1.400 . S
C1505 C1499 1.491 1_455 S
C1505 C1504 1.400 . S
C1505 C1506 1.398 . S
C1506 H1494 0.950 . S
C1506 C1505 1.398 . S
C1506 C1507 1.391 . S
C1507 H1495 0.950 . S
C1507 C1503 1.393 . S
C1507 C1506 1.391 . S
H1508 C1516 0.950 . S
H1509 C1521 0.950 . S
H1510 C1518 0.950 . S
H1511 C1520 0.950 . S
H1512 C1522 0.950 . S
H1513 C1524 0.950 . S
H1514 C1526 0.950 . S
H1515 C1527 0.950 . S
C1516 H1508 0.950 . S
C1516 C1517 1.386 . S
C1516 C1518 1.391 . S
C1517 C1516 1.386 . S
C1517 C1521 1.393 . S
C1518 H1510 0.950 . S
C1518 C1516 1.391 . S
C1518 C1519 1.400 . S
C1519 C1518 1.400 . S
C1519 C1520 1.398 . S
C1519 C1525 1.491 1_565 S
C1520 H1511 0.950 . S
C1520 C1519 1.398 . S
C1520 C1521 1.391 . S
C1521 H1509 0.950 . S
C1521 C1517 1.393 . S
C1521 C1520 1.391 . S
C1522 H1512 0.950 . S
C1522 C1523 1.386 . S
C1522 C1524 1.391 . S
C1523 C1522 1.386 . S
C1523 C1527 1.393 . S
C1524 H1513 0.950 . S
C1524 C1522 1.391 . S
C1524 C1525 1.400 . S
C1525 C1519 1.491 1_545 S
C1525 C1524 1.400 . S
C1525 C1526 1.398 . S
C1526 H1514 0.950 . S
C1526 C1525 1.398 . S
C1526 C1527 1.391 . S
C1527 H1515 0.950 . S
C1527 C1523 1.393 . S
C1527 C1526 1.391 . S
H1528 C1536 0.950 . S
H1529 C1541 0.950 . S
H1530 C1538 0.950 . S
H1531 C1540 0.950 . S
H1532 C1542 0.950 . S
H1533 C1544 0.950 . S
H1534 C1546 0.950 . S
H1535 C1547 0.950 . S
C1536 H1528 0.950 . S
C1536 C1537 1.386 . S
C1536 C1538 1.391 . S
C1537 C1536 1.386 . S
C1537 C1541 1.393 . S
C1538 H1530 0.950 . S
C1538 C1536 1.391 . S
C1538 C1539 1.400 . S
C1539 C1538 1.400 . S
C1539 C1540 1.398 . S
C1539 C1545 1.491 . S
C1540 H1531 0.950 . S
C1540 C1539 1.398 . S
C1540 C1541 1.391 . S
C1541 H1529 0.950 . S
C1541 C1537 1.393 . S
C1541 C1540 1.391 . S
C1542 H1532 0.950 . S
C1542 C1543 1.386 . S
C1542 C1544 1.391 . S
C1543 C1542 1.386 . S
C1543 C1547 1.393 . S
C1544 H1533 0.950 . S
C1544 C1542 1.391 . S
C1544 C1545 1.400 . S
C1545 C1539 1.491 . S
C1545 C1544 1.400 . S
C1545 C1546 1.398 . S
C1546 H1534 0.950 . S
C1546 C1545 1.398 . S
C1546 C1547 1.391 . S
C1547 H1535 0.950 . S
C1547 C1543 1.393 . S
C1547 C1546 1.391 . S
H1548 C1556 0.950 . S
H1549 C1561 0.950 . S
H1550 C1558 0.950 . S
H1551 C1560 0.950 . S
H1552 C1562 0.950 . S
H1553 C1564 0.950 . S
H1554 C1566 0.950 . S
H1555 C1567 0.950 . S
C1556 H1548 0.950 . S
C1556 C1557 1.386 . S
C1556 C1558 1.391 . S
C1557 C1556 1.386 . S
C1557 C1561 1.393 . S
C1558 H1550 0.950 . S
C1558 C1556 1.391 . S
C1558 C1559 1.400 . S
C1559 C1558 1.400 . S
C1559 C1560 1.398 . S
C1559 C1565 1.491 1_455 S
C1560 H1551 0.950 . S
C1560 C1559 1.398 . S
C1560 C1561 1.391 . S
C1561 H1549 0.950 . S
C1561 C1557 1.393 . S
C1561 C1560 1.391 . S
C1562 H1552 0.950 . S
C1562 C1563 1.386 . S
C1562 C1564 1.391 . S
C1563 C1562 1.386 . S
C1563 C1567 1.393 . S
C1564 H1553 0.950 . S
C1564 C1562 1.391 . S
C1564 C1565 1.400 . S
C1565 C1559 1.491 1_655 S
C1565 C1564 1.400 . S
C1565 C1566 1.398 . S
C1566 H1554 0.950 . S
C1566 C1565 1.398 . S
C1566 C1567 1.391 . S
C1567 H1555 0.950 . S
C1567 C1563 1.393 . S
C1567 C1566 1.391 . S
H1568 C1576 0.950 . S
H1569 C1581 0.950 . S
H1570 C1578 0.950 . S
H1571 C1580 0.950 . S
H1572 C1582 0.950 . S
H1573 C1584 0.950 . S
H1574 C1586 0.950 . S
H1575 C1587 0.950 . S
C1576 H1568 0.950 . S
C1576 C1577 1.386 . S
C1576 C1578 1.391 . S
C1577 C1576 1.386 . S
C1577 C1581 1.393 . S
C1578 H1570 0.950 . S
C1578 C1576 1.391 . S
C1578 C1579 1.400 . S
C1579 C1578 1.400 . S
C1579 C1580 1.398 . S
C1579 C1585 1.491 1_545 S
C1580 H1571 0.950 . S
C1580 C1579 1.398 . S
C1580 C1581 1.391 . S
C1581 H1569 0.950 . S
C1581 C1577 1.393 . S
C1581 C1580 1.391 . S
C1582 H1572 0.950 . S
C1582 C1583 1.386 . S
C1582 C1584 1.391 . S
C1583 C1582 1.386 . S
C1583 C1587 1.393 . S
C1584 H1573 0.950 . S
C1584 C1582 1.391 . S
C1584 C1585 1.400 . S
C1585 C1579 1.491 1_565 S
C1585 C1584 1.400 . S
C1585 C1586 1.398 . S
C1586 H1574 0.950 . S
C1586 C1585 1.398 . S
C1586 C1587 1.391 . S
C1587 H1575 0.950 . S
C1587 C1583 1.393 . S
C1587 C1586 1.391 . S
H1588 C1596 0.950 . S
H1589 C1601 0.950 . S
H1590 C1598 0.950 . S
H1591 C1600 0.950 . S
H1592 C1602 0.950 . S
H1593 C1604 0.950 . S
H1594 C1606 0.950 . S
H1595 C1607 0.950 . S
C1596 H1588 0.950 . S
C1596 C1597 1.386 . S
C1596 C1598 1.391 . S
C1597 C1596 1.386 . S
C1597 C1601 1.393 . S
C1598 H1590 0.950 . S
C1598 C1596 1.391 . S
C1598 C1599 1.400 . S
C1599 C1598 1.400 . S
C1599 C1600 1.398 . S
C1599 C1605 1.491 . S
C1600 H1591 0.950 . S
C1600 C1599 1.398 . S
C1600 C1601 1.391 . S
C1601 H1589 0.950 . S
C1601 C1597 1.393 . S
C1601 C1600 1.391 . S
C1602 H1592 0.950 . S
C1602 C1603 1.386 . S
C1602 C1604 1.391 . S
C1603 C1602 1.386 . S
C1603 C1607 1.393 . S
C1604 H1593 0.950 . S
C1604 C1602 1.391 . S
C1604 C1605 1.400 . S
C1605 C1599 1.491 . S
C1605 C1604 1.400 . S
C1605 C1606 1.398 . S
C1606 H1594 0.950 . S
C1606 C1605 1.398 . S
C1606 C1607 1.391 . S
C1607 H1595 0.950 . S
C1607 C1603 1.393 . S
C1607 C1606 1.391 . S
H1608 C1616 0.950 . S
H1609 C1621 0.950 . S
H1610 C1618 0.950 . S
H1611 C1620 0.950 . S
H1612 C1622 0.950 . S
H1613 C1624 0.950 . S
H1614 C1626 0.950 . S
H1615 C1627 0.950 . S
C1616 H1608 0.950 . S
C1616 C1617 1.386 . S
C1616 C1618 1.391 . S
C1617 C1616 1.386 . S
C1617 C1621 1.393 . S
C1618 H1610 0.950 . S
C1618 C1616 1.391 . S
C1618 C1619 1.400 . S
C1619 C1618 1.400 . S
C1619 C1620 1.398 . S
C1619 C1625 1.491 1_565 S
C1620 H1611 0.950 . S
C1620 C1619 1.398 . S
C1620 C1621 1.391 . S
C1621 H1609 0.950 . S
C1621 C1617 1.393 . S
C1621 C1620 1.391 . S
C1622 H1612 0.950 . S
C1622 C1623 1.386 . S
C1622 C1624 1.391 . S
C1623 C1622 1.386 . S
C1623 C1627 1.393 . S
C1624 H1613 0.950 . S
C1624 C1622 1.391 . S
C1624 C1625 1.400 . S
C1625 C1619 1.491 1_545 S
C1625 C1624 1.400 . S
C1625 C1626 1.398 . S
C1626 H1614 0.950 . S
C1626 C1625 1.398 . S
C1626 C1627 1.391 . S
C1627 H1615 0.950 . S
C1627 C1623 1.393 . S
C1627 C1626 1.391 . S
H1628 C1636 0.950 . S
H1629 C1641 0.950 . S
H1630 C1638 0.950 . S
H1631 C1640 0.950 . S
H1632 C1642 0.950 . S
H1633 C1644 0.950 . S
H1634 C1646 0.950 . S
H1635 C1647 0.950 . S
C1636 H1628 0.950 . S
C1636 C1637 1.386 . S
C1636 C1638 1.391 . S
C1637 C1636 1.386 . S
C1637 C1641 1.393 . S
C1638 H1630 0.950 . S
C1638 C1636 1.391 . S
C1638 C1639 1.400 . S
C1639 C1638 1.400 . S
C1639 C1640 1.398 . S
C1639 C1645 1.491 . S
C1640 H1631 0.950 . S
C1640 C1639 1.398 . S
C1640 C1641 1.391 . S
C1641 H1629 0.950 . S
C1641 C1637 1.393 . S
C1641 C1640 1.391 . S
C1642 H1632 0.950 . S
C1642 C1643 1.386 . S
C1642 C1644 1.391 . S
C1643 C1642 1.386 . S
C1643 C1647 1.393 . S
C1644 H1633 0.950 . S
C1644 C1642 1.391 . S
C1644 C1645 1.400 . S
C1645 C1639 1.491 . S
C1645 C1644 1.400 . S
C1645 C1646 1.398 . S
C1646 H1634 0.950 . S
C1646 C1645 1.398 . S
C1646 C1647 1.391 . S
C1647 H1635 0.950 . S
C1647 C1643 1.393 . S
C1647 C1646 1.391 . S
H1648 C1656 0.950 . S
H1649 C1661 0.950 . S
H1650 C1658 0.950 . S
H1651 C1660 0.950 . S
H1652 C1662 0.950 . S
H1653 C1664 0.950 . S
H1654 C1666 0.950 . S
H1655 C1667 0.950 . S
C1656 H1648 0.950 . S
C1656 C1657 1.386 . S
C1656 C1658 1.391 . S
C1657 C1656 1.386 . S
C1657 C1661 1.393 . S
C1658 H1650 0.950 . S
C1658 C1656 1.391 . S
C1658 C1659 1.400 . S
C1659 C1658 1.400 . S
C1659 C1660 1.398 . S
C1659 C1665 1.491 1_655 S
C1660 H1651 0.950 . S
C1660 C1659 1.398 . S
C1660 C1661 1.391 . S
C1661 H1649 0.950 . S
C1661 C1657 1.393 . S
C1661 C1660 1.391 . S
C1662 H1652 0.950 . S
C1662 C1663 1.386 . S
C1662 C1664 1.391 . S
C1663 C1662 1.386 . S
C1663 C1667 1.393 . S
C1664 H1653 0.950 . S
C1664 C1662 1.391 . S
C1664 C1665 1.400 . S
C1665 C1659 1.491 1_455 S
C1665 C1664 1.400 . S
C1665 C1666 1.398 . S
C1666 H1654 0.950 . S
C1666 C1665 1.398 . S
C1666 C1667 1.391 . S
C1667 H1655 0.950 . S
C1667 C1663 1.393 . S
C1667 C1666 1.391 . S
H1668 C1676 0.950 . S
H1669 C1681 0.950 . S
H1670 C1678 0.950 . S
H1671 C1680 0.950 . S
H1672 C1682 0.950 . S
H1673 C1684 0.950 . S
H1674 C1686 0.950 . S
H1675 C1687 0.950 . S
C1676 H1668 0.950 . S
C1676 C1677 1.386 . S
C1676 C1678 1.391 . S
C1677 C1676 1.386 . S
C1677 C1681 1.393 . S
C1678 H1670 0.950 . S
C1678 C1676 1.391 . S
C1678 C1679 1.400 . S
C1679 C1678 1.400 . S
C1679 C1680 1.398 . S
C1679 C1685 1.491 1_565 S
C1680 H1671 0.950 . S
C1680 C1679 1.398 . S
C1680 C1681 1.391 . S
C1681 H1669 0.950 . S
C1681 C1677 1.393 . S
C1681 C1680 1.391 . S
C1682 H1672 0.950 . S
C1682 C1683 1.386 . S
C1682 C1684 1.391 . S
C1683 C1682 1.386 . S
C1683 C1687 1.393 . S
C1684 H1673 0.950 . S
C1684 C1682 1.391 . S
C1684 C1685 1.400 . S
C1685 C1679 1.491 1_545 S
C1685 C1684 1.400 . S
C1685 C1686 1.398 . S
C1686 H1674 0.950 . S
C1686 C1685 1.398 . S
C1686 C1687 1.391 . S
C1687 H1675 0.950 . S
C1687 C1683 1.393 . S
C1687 C1686 1.391 . S
H1688 C1696 0.950 . S
H1689 C1701 0.950 . S
H1690 C1698 0.950 . S
H1691 C1700 0.950 . S
H1692 C1702 0.950 . S
H1693 C1704 0.950 . S
H1694 C1706 0.950 . S
H1695 C1707 0.950 . S
C1696 H1688 0.950 . S
C1696 C1697 1.386 . S
C1696 C1698 1.391 . S
C1697 C1696 1.386 . S
C1697 C1701 1.393 . S
C1698 H1690 0.950 . S
C1698 C1696 1.391 . S
C1698 C1699 1.400 . S
C1699 C1698 1.400 . S
C1699 C1700 1.398 . S
C1699 C1705 1.491 . S
C1700 H1691 0.950 . S
C1700 C1699 1.398 . S
C1700 C1701 1.391 . S
C1701 H1689 0.950 . S
C1701 C1697 1.393 . S
C1701 C1700 1.391 . S
C1702 H1692 0.950 . S
C1702 C1703 1.386 . S
C1702 C1704 1.391 . S
C1703 C1702 1.386 . S
C1703 C1707 1.393 . S
C1704 H1693 0.950 . S
C1704 C1702 1.391 . S
C1704 C1705 1.400 . S
C1705 C1699 1.491 . S
C1705 C1704 1.400 . S
C1705 C1706 1.398 . S
C1706 H1694 0.950 . S
C1706 C1705 1.398 . S
C1706 C1707 1.391 . S
C1707 H1695 0.950 . S
C1707 C1703 1.393 . S
C1707 C1706 1.391 . S
H1708 C1716 0.950 . S
H1709 C1721 0.950 . S
H1710 C1718 0.950 . S
H1711 C1720 0.950 . S
H1712 C1722 0.950 . S
H1713 C1724 0.950 . S
H1714 C1726 0.950 . S
H1715 C1727 0.950 . S
C1716 H1708 0.950 . S
C1716 C1717 1.386 . S
C1716 C1718 1.391 . S
C1717 C1716 1.386 . S
C1717 C1721 1.393 . S
C1718 H1710 0.950 . S
C1718 C1716 1.391 . S
C1718 C1719 1.400 . S
C1719 C1718 1.400 . S
C1719 C1720 1.398 . S
C1719 C1725 1.491 1_655 S
C1720 H1711 0.950 . S
C1720 C1719 1.398 . S
C1720 C1721 1.391 . S
C1721 H1709 0.950 . S
C1721 C1717 1.393 . S
C1721 C1720 1.391 . S
C1722 H1712 0.950 . S
C1722 C1723 1.386 . S
C1722 C1724 1.391 . S
C1723 C1722 1.386 . S
C1723 C1727 1.393 . S
C1724 H1713 0.950 . S
C1724 C1722 1.391 . S
C1724 C1725 1.400 . S
C1725 C1719 1.491 1_455 S
C1725 C1724 1.400 . S
C1725 C1726 1.398 . S
C1726 H1714 0.950 . S
C1726 C1725 1.398 . S
C1726 C1727 1.391 . S
C1727 H1715 0.950 . S
C1727 C1723 1.393 . S
C1727 C1726 1.391 . S
H1728 C1736 0.950 . S
H1729 C1741 0.950 . S
H1730 C1738 0.950 . S
H1731 C1740 0.950 . S
H1732 C1742 0.950 . S
H1733 C1744 0.950 . S
H1734 C1746 0.950 . S
H1735 C1747 0.950 . S
C1736 H1728 0.950 . S
C1736 C1737 1.386 . S
C1736 C1738 1.391 . S
C1737 C1736 1.386 . S
C1737 C1741 1.393 . S
C1738 H1730 0.950 . S
C1738 C1736 1.391 . S
C1738 C1739 1.400 . S
C1739 C1738 1.400 . S
C1739 C1740 1.398 . S
C1739 C1745 1.491 1_556 S
C1740 H1731 0.950 . S
C1740 C1739 1.398 . S
C1740 C1741 1.391 . S
C1741 H1729 0.950 . S
C1741 C1737 1.393 . S
C1741 C1740 1.391 . S
C1742 H1732 0.950 . S
C1742 C1743 1.386 . S
C1742 C1744 1.391 . S
C1743 C1742 1.386 . S
C1743 C1747 1.393 . S
C1744 H1733 0.950 . S
C1744 C1742 1.391 . S
C1744 C1745 1.400 . S
C1745 C1739 1.491 1_554 S
C1745 C1744 1.400 . S
C1745 C1746 1.398 . S
C1746 H1734 0.950 . S
C1746 C1745 1.398 . S
C1746 C1747 1.391 . S
C1747 H1735 0.950 . S
C1747 C1743 1.393 . S
C1747 C1746 1.391 . S
H1748 C1756 0.950 . S
H1749 C1761 0.950 . S
H1750 C1758 0.950 . S
H1751 C1760 0.950 . S
H1752 C1762 0.950 . S
H1753 C1764 0.950 . S
H1754 C1766 0.950 . S
H1755 C1767 0.950 . S
C1756 H1748 0.950 . S
C1756 C1757 1.386 . S
C1756 C1758 1.391 . S
C1757 C1756 1.386 . S
C1757 C1761 1.393 . S
C1758 H1750 0.950 . S
C1758 C1756 1.391 . S
C1758 C1759 1.400 . S
C1759 C1758 1.400 . S
C1759 C1760 1.398 . S
C1759 C1765 1.491 . S
C1760 H1751 0.950 . S
C1760 C1759 1.398 . S
C1760 C1761 1.391 . S
C1761 H1749 0.950 . S
C1761 C1757 1.393 . S
C1761 C1760 1.391 . S
C1762 H1752 0.950 . S
C1762 C1763 1.386 . S
C1762 C1764 1.391 . S
C1763 C1762 1.386 . S
C1763 C1767 1.393 . S
C1764 H1753 0.950 . S
C1764 C1762 1.391 . S
C1764 C1765 1.400 . S
C1765 C1759 1.491 . S
C1765 C1764 1.400 . S
C1765 C1766 1.398 . S
C1766 H1754 0.950 . S
C1766 C1765 1.398 . S
C1766 C1767 1.391 . S
C1767 H1755 0.950 . S
C1767 C1763 1.393 . S
C1767 C1766 1.391 . S
H1768 C1776 0.950 . S
H1769 C1781 0.950 . S
H1770 C1778 0.950 . S
H1771 C1780 0.953 1_556 S
H1772 C1782 0.950 . S
H1773 C1784 0.950 . S
H1774 C1786 0.953 1_554 S
H1775 C1787 0.950 . S
C1776 H1768 0.950 . S
C1776 C1777 1.386 . S
C1776 C1778 1.391 . S
C1777 C1776 1.386 . S
C1777 C1781 1.393 . S
C1778 H1770 0.950 . S
C1778 C1776 1.391 . S
C1778 C1779 1.400 . S
C1779 C1778 1.400 . S
C1779 C1780 1.398 . S
C1779 C1785 1.491 1_554 S
C1780 H1771 0.953 1_554 S
C1780 C1779 1.398 . S
C1780 C1781 1.391 . S
C1781 H1769 0.950 . S
C1781 C1777 1.393 . S
C1781 C1780 1.391 . S
C1782 H1772 0.950 . S
C1782 C1783 1.386 . S
C1782 C1784 1.391 . S
C1783 C1782 1.386 . S
C1783 C1787 1.393 . S
C1784 H1773 0.950 . S
C1784 C1782 1.391 . S
C1784 C1785 1.400 . S
C1785 C1779 1.491 1_556 S
C1785 C1784 1.400 . S
C1785 C1786 1.398 . S
C1786 H1774 0.953 1_556 S
C1786 C1785 1.398 . S
C1786 C1787 1.391 . S
C1787 H1775 0.950 . S
C1787 C1783 1.393 . S
C1787 C1786 1.391 . S
H1788 C1796 0.950 . S
H1789 C1801 0.950 . S
H1790 C1798 0.950 . S
H1791 C1800 0.950 . S
H1792 C1802 0.950 . S
H1793 C1804 0.950 . S
H1794 C1806 0.950 . S
H1795 C1807 0.950 . S
C1796 H1788 0.950 . S
C1796 C1797 1.386 . S
C1796 C1798 1.391 . S
C1797 C1796 1.386 . S
C1797 C1801 1.393 . S
C1798 H1790 0.950 . S
C1798 C1796 1.391 . S
C1798 C1799 1.400 . S
C1799 C1798 1.400 . S
C1799 C1800 1.398 . S
C1799 C1805 1.491 . S
C1800 H1791 0.950 . S
C1800 C1799 1.398 . S
C1800 C1801 1.391 . S
C1801 H1789 0.950 . S
C1801 C1797 1.393 . S
C1801 C1800 1.391 . S
C1802 H1792 0.950 . S
C1802 C1803 1.386 . S
C1802 C1804 1.391 . S
C1803 C1802 1.386 . S
C1803 C1807 1.393 . S
C1804 H1793 0.950 . S
C1804 C1802 1.391 . S
C1804 C1805 1.400 . S
C1805 C1799 1.491 . S
C1805 C1804 1.400 . S
C1805 C1806 1.398 . S
C1806 H1794 0.950 . S
C1806 C1805 1.398 . S
C1806 C1807 1.391 . S
C1807 H1795 0.950 . S
C1807 C1803 1.393 . S
C1807 C1806 1.391 . S
H1808 C1816 0.950 . S
H1809 C1821 0.950 . S
H1810 C1818 0.950 . S
H1811 C1820 0.950 . S
H1812 C1822 0.950 . S
H1813 C1824 0.950 . S
H1814 C1826 0.950 . S
H1815 C1827 0.950 . S
C1816 H1808 0.950 . S
C1816 C1817 1.386 . S
C1816 C1818 1.391 . S
C1817 C1816 1.386 . S
C1817 C1821 1.393 . S
C1818 H1810 0.950 . S
C1818 C1816 1.391 . S
C1818 C1819 1.400 . S
C1819 C1818 1.400 . S
C1819 C1820 1.398 . S
C1819 C1825 1.491 1_556 S
C1820 H1811 0.950 . S
C1820 C1819 1.398 . S
C1820 C1821 1.391 . S
C1821 H1809 0.950 . S
C1821 C1817 1.393 . S
C1821 C1820 1.391 . S
C1822 H1812 0.950 . S
C1822 C1823 1.386 . S
C1822 C1824 1.391 . S
C1823 C1822 1.386 . S
C1823 C1827 1.393 . S
C1824 H1813 0.950 . S
C1824 C1822 1.391 . S
C1824 C1825 1.400 . S
C1825 C1819 1.491 1_554 S
C1825 C1824 1.400 . S
C1825 C1826 1.398 . S
C1826 H1814 0.950 . S
C1826 C1825 1.398 . S
C1826 C1827 1.391 . S
C1827 H1815 0.950 . S
C1827 C1823 1.393 . S
C1827 C1826 1.391 . S
H1828 C1836 0.950 . S
H1829 C1841 0.950 . S
H1830 C1838 0.950 . S
H1831 C1840 0.950 . S
H1832 C1842 0.950 . S
H1833 C1844 0.950 . S
H1834 C1846 0.950 . S
H1835 C1847 0.950 . S
C1836 H1828 0.950 . S
C1836 C1837 1.386 . S
C1836 C1838 1.391 . S
C1837 C1836 1.386 . S
C1837 C1841 1.393 . S
C1838 H1830 0.950 . S
C1838 C1836 1.391 . S
C1838 C1839 1.400 . S
C1839 C1838 1.400 . S
C1839 C1840 1.398 . S
C1839 C1845 1.491 . S
C1840 H1831 0.950 . S
C1840 C1839 1.398 . S
C1840 C1841 1.391 . S
C1841 H1829 0.950 . S
C1841 C1837 1.393 . S
C1841 C1840 1.391 . S
C1842 H1832 0.950 . S
C1842 C1843 1.386 . S
C1842 C1844 1.391 . S
C1843 C1842 1.386 . S
C1843 C1847 1.393 . S
C1844 H1833 0.950 . S
C1844 C1842 1.391 . S
C1844 C1845 1.400 . S
C1845 C1839 1.491 . S
C1845 C1844 1.400 . S
C1845 C1846 1.398 . S
C1846 H1834 0.950 . S
C1846 C1845 1.398 . S
C1846 C1847 1.391 . S
C1847 H1835 0.950 . S
C1847 C1843 1.393 . S
C1847 C1846 1.391 . S
H1848 C1856 0.950 . S
H1849 C1861 0.950 . S
H1850 C1858 0.950 1_556 S
H1851 C1860 0.950 . S
H1852 C1862 0.950 . S
H1853 C1864 0.950 1_554 S
H1854 C1866 0.950 . S
H1855 C1867 0.950 . S
C1856 H1848 0.950 . S
C1856 C1857 1.386 . S
C1856 C1858 1.391 . S
C1857 C1856 1.386 . S
C1857 C1861 1.393 . S
C1858 H1850 0.950 1_554 S
C1858 C1856 1.391 . S
C1858 C1859 1.400 . S
C1859 C1858 1.400 . S
C1859 C1860 1.398 . S
C1859 C1865 1.491 1_554 S
C1860 H1851 0.950 . S
C1860 C1859 1.398 . S
C1860 C1861 1.391 . S
C1861 H1849 0.950 . S
C1861 C1857 1.393 . S
C1861 C1860 1.391 . S
C1862 H1852 0.950 . S
C1862 C1863 1.386 . S
C1862 C1864 1.391 . S
C1863 C1862 1.386 . S
C1863 C1867 1.393 . S
C1864 H1853 0.950 1_556 S
C1864 C1862 1.391 . S
C1864 C1865 1.400 . S
C1865 C1859 1.491 1_556 S
C1865 C1864 1.400 . S
C1865 C1866 1.398 . S
C1866 H1854 0.950 . S
C1866 C1865 1.398 . S
C1866 C1867 1.391 . S
C1867 H1855 0.950 . S
C1867 C1863 1.393 . S
C1867 C1866 1.391 . S
H1868 C1876 0.950 . S
H1869 C1881 0.950 . S
H1870 C1878 0.950 . S
H1871 C1880 0.950 . S
H1872 C1882 0.950 . S
H1873 C1884 0.950 . S
H1874 C1886 0.950 . S
H1875 C1887 0.950 . S
C1876 H1868 0.950 . S
C1876 C1877 1.386 . S
C1876 C1878 1.391 . S
C1877 C1876 1.386 . S
C1877 C1881 1.393 . S
C1878 H1870 0.950 . S
C1878 C1876 1.391 . S
C1878 C1879 1.400 . S
C1879 C1878 1.400 . S
C1879 C1880 1.398 . S
C1879 C1885 1.491 . S
C1880 H1871 0.950 . S
C1880 C1879 1.398 . S
C1880 C1881 1.391 . S
C1881 H1869 0.950 . S
C1881 C1877 1.393 . S
C1881 C1880 1.391 . S
C1882 H1872 0.950 . S
C1882 C1883 1.386 . S
C1882 C1884 1.391 . S
C1883 C1882 1.386 . S
C1883 C1887 1.393 . S
C1884 H1873 0.950 . S
C1884 C1882 1.391 . S
C1884 C1885 1.400 . S
C1885 C1879 1.491 . S
C1885 C1884 1.400 . S
C1885 C1886 1.398 . S
C1886 H1874 0.950 . S
C1886 C1885 1.398 . S
C1886 C1887 1.391 . S
C1887 H1875 0.950 . S
C1887 C1883 1.393 . S
C1887 C1886 1.391 . S
H1888 C1896 0.950 . S
H1889 C1901 0.950 . S
H1890 C1898 0.950 1_556 S
H1891 C1900 0.950 . S
H1892 C1902 0.950 . S
H1893 C1904 0.950 1_554 S
H1894 C1906 0.950 . S
H1895 C1907 0.950 . S
C1896 H1888 0.950 . S
C1896 C1897 1.386 . S
C1896 C1898 1.391 . S
C1897 C1896 1.386 . S
C1897 C1901 1.393 . S
C1898 H1890 0.950 1_554 S
C1898 C1896 1.391 . S
C1898 C1899 1.400 . S
C1899 C1898 1.400 . S
C1899 C1900 1.398 . S
C1899 C1905 1.491 1_554 S
C1900 H1891 0.950 . S
C1900 C1899 1.398 . S
C1900 C1901 1.391 . S
C1901 H1889 0.950 . S
C1901 C1897 1.393 . S
C1901 C1900 1.391 . S
C1902 H1892 0.950 . S
C1902 C1903 1.386 . S
C1902 C1904 1.391 . S
C1903 C1902 1.386 . S
C1903 C1907 1.393 . S
C1904 H1893 0.950 1_556 S
C1904 C1902 1.391 . S
C1904 C1905 1.400 . S
C1905 C1899 1.491 1_556 S
C1905 C1904 1.400 . S
C1905 C1906 1.398 . S
C1906 H1894 0.950 . S
C1906 C1905 1.398 . S
C1906 C1907 1.391 . S
C1907 H1895 0.950 . S
C1907 C1903 1.393 . S
C1907 C1906 1.391 . S
H1908 C1916 0.950 . S
H1909 C1921 0.950 . S
H1910 C1918 0.950 . S
H1911 C1920 0.950 . S
H1912 C1922 0.950 . S
H1913 C1924 0.950 . S
H1914 C1926 0.950 . S
H1915 C1927 0.950 . S
C1916 H1908 0.950 . S
C1916 C1917 1.386 . S
C1916 C1918 1.391 . S
C1917 C1916 1.386 . S
C1917 C1921 1.393 . S
C1918 H1910 0.950 . S
C1918 C1916 1.391 . S
C1918 C1919 1.400 . S
C1919 C1918 1.400 . S
C1919 C1920 1.398 . S
C1919 C1925 1.491 . S
C1920 H1911 0.950 . S
C1920 C1919 1.398 . S
C1920 C1921 1.391 . S
C1921 H1909 0.950 . S
C1921 C1917 1.393 . S
C1921 C1920 1.391 . S
C1922 H1912 0.950 . S
C1922 C1923 1.386 . S
C1922 C1924 1.391 . S
C1923 C1922 1.386 . S
C1923 C1927 1.393 . S
C1924 H1913 0.950 . S
C1924 C1922 1.391 . S
C1924 C1925 1.400 . S
C1925 C1919 1.491 . S
C1925 C1924 1.400 . S
C1925 C1926 1.398 . S
C1926 H1914 0.950 . S
C1926 C1925 1.398 . S
C1926 C1927 1.391 . S
C1927 H1915 0.950 . S
C1927 C1923 1.393 . S
C1927 C1926 1.391 . S
H1928 C1936 0.950 . S
H1929 C1941 0.950 . S
H1930 C1938 0.950 . S
H1931 C1940 0.950 . S
H1932 C1942 0.950 . S
H1933 C1944 0.950 . S
H1934 C1946 0.950 . S
H1935 C1947 0.950 . S
C1936 H1928 0.950 . S
C1936 C1937 1.386 . S
C1936 C1938 1.391 . S
C1937 C1936 1.386 . S
C1937 C1941 1.393 . S
C1938 H1930 0.950 . S
C1938 C1936 1.391 . S
C1938 C1939 1.400 . S
C1939 C1938 1.400 . S
C1939 C1940 1.398 . S
C1939 C1945 1.491 1_554 S
C1940 H1931 0.950 . S
C1940 C1939 1.398 . S
C1940 C1941 1.391 . S
C1941 H1929 0.950 . S
C1941 C1937 1.393 . S
C1941 C1940 1.391 . S
C1942 H1932 0.950 . S
C1942 C1943 1.386 . S
C1942 C1944 1.391 . S
C1943 C1942 1.386 . S
C1943 C1947 1.393 . S
C1944 H1933 0.950 . S
C1944 C1942 1.391 . S
C1944 C1945 1.400 . S
C1945 C1939 1.491 1_556 S
C1945 C1944 1.400 . S
C1945 C1946 1.398 . S
C1946 H1934 0.950 . S
C1946 C1945 1.398 . S
C1946 C1947 1.391 . S
C1947 H1935 0.950 . S
C1947 C1943 1.393 . S
C1947 C1946 1.391 . S
H1948 C1956 0.950 . S
H1949 C1961 0.950 . S
H1950 C1958 0.950 . S
H1951 C1960 0.950 . S
H1952 C1962 0.950 . S
H1953 C1964 0.950 . S
H1954 C1966 0.950 . S
H1955 C1967 0.950 . S
C1956 H1948 0.950 . S
C1956 C1957 1.386 . S
C1956 C1958 1.391 . S
C1957 C1956 1.386 . S
C1957 C1961 1.393 . S
C1958 H1950 0.950 . S
C1958 C1956 1.391 . S
C1958 C1959 1.400 . S
C1959 C1958 1.400 . S
C1959 C1960 1.398 . S
C1959 C1965 1.491 . S
C1960 H1951 0.950 . S
C1960 C1959 1.398 . S
C1960 C1961 1.391 . S
C1961 H1949 0.950 . S
C1961 C1957 1.393 . S
C1961 C1960 1.391 . S
C1962 H1952 0.950 . S
C1962 C1963 1.386 . S
C1962 C1964 1.391 . S
C1963 C1962 1.386 . S
C1963 C1967 1.393 . S
C1964 H1953 0.950 . S
C1964 C1962 1.391 . S
C1964 C1965 1.400 . S
C1965 C1959 1.491 . S
C1965 C1964 1.400 . S
C1965 C1966 1.398 . S
C1966 H1954 0.950 . S
C1966 C1965 1.398 . S
C1966 C1967 1.391 . S
C1967 H1955 0.950 . S
C1967 C1963 1.393 . S
C1967 C1966 1.391 . S
C537 C194 0.960 . S
C543 C10 0.985 . S
C557 C30 0.985 . S
C563 C206 0.961 . S
C577 C230 0.975 . S
C583 C52 0.971 . S
C597 C74 0.959 . S
C603 C260 0.986 . S
C617 C142 0.986 . S
C623 C106 0.959 . S
C637 C164 0.970 . S
C643 C118 0.976 . S
C657 C272 0.984 . S
C663 C458 0.961 . S
C677 C472 0.965 . S
C683 C296 0.981 . S
C697 C494 0.975 . S
C703 C326 0.971 . S
C717 C340 0.959 . S
C723 C516 0.986 . S
C737 C362 0.985 . S
C743 C404 0.961 . S
C757 C428 0.986 . S
C763 C392 0.959 . S
C777 C21 1.135 . S
C783 C65 1.132 . S
C797 C87 1.149 . S
C803 C29 1.121 . S
C817 C51 1.134 . S
C823 C95 1.135 . S
C837 C73 1.135 . S
C843 C131 1.132 . S
C857 C15 1.149 . S
C863 C103 1.121 . S
C877 C43 1.147 . S
C883 C117 1.124 . S
C897 C235 1.131 . S
C903 C153 1.105 . S
C917 C175 1.112 . S
C923 C249 1.151 . S
C937 C191 1.132 . S
C943 C147 1.139 . S
C957 C169 1.144 . S
C963 C205 1.129 . S
C977 C183 1.125 . S
C983 C241 1.118 . S
C997 C219 1.148 . S
C1003 C257 1.099 . S
C1017 C315 1.151 . S
C1023 C271 1.116 . S
C1037 C307 1.116 . S
C1043 C345 1.150 . S
C1057 C323 1.126 . S
C1063 C367 1.124 . S
C1077 C351 1.099 . S
C1083 C381 1.139 . S
C1097 C285 1.150 . S
C1103 C373 1.102 . S
C1117 C301 1.150 . S
C1123 C389 1.102 . S
C1137 C403 1.105 . S
C1143 C499 1.131 . S
C1157 C439 1.100 . S
C1163 C521 1.135 . S
C1177 C455 1.132 . S
C1183 C417 1.139 . S
C1197 C483 1.099 . S
C1203 C433 1.147 . S
C1217 C447 1.124 . S
C1223 C505 1.119 . S
C1237 C477 1.139 . S
C1243 C527 1.132 . S
C1257 C7 1.479 . S
C1263 C337 1.481 . S
C1277 C359 1.479 . S
C1283 C37 1.481 . S
C1297 C59 1.478 . S
C1303 C395 1.481 . S
C1317 C81 1.480 . S
C1323 C279 1.480 . S
C1337 C293 1.481 . S
C1343 C109 1.479 . S
C1357 C125 1.481 . S
C1363 C329 1.479 . S
C1377 C139 1.480 . S
C1383 C469 1.480 . S
C1397 C491 1.479 . S
C1403 C161 1.481 . S
C1417 C197 1.481 . S
C1423 C513 1.479 . S
C1437 C213 1.481 . S
C1443 C411 1.479 . S
C1457 C425 1.480 . S
C1463 C227 1.479 . S
C1477 C461 1.480 . S
C1483 C263 1.480 . S
C1497 C448 1.241 . S
C1503 C18 1.230 . S
C1517 C480 1.226 . S
C1523 C32 1.245 . S
C1537 C502 1.235 . S
C1543 C54 1.235 . S
C1557 C524 1.235 . S
C1563 C76 1.236 . S
C1577 C406 1.246 . S
C1583 C96 1.225 . S
C1597 C120 1.226 . S
C1603 C436 1.244 . S
C1617 C150 1.240 . S
C1623 C370 1.230 . S
C1637 C382 1.233 . S
C1643 C172 1.237 . S
C1657 C274 1.236 . S
C1663 C184 1.235 . S
C1677 C304 1.231 . S
C1683 C208 1.240 . S
C1697 C238 1.246 . S
C1703 C316 1.223 . S
C1717 C250 1.235 . S
C1723 C348 1.235 . S
C1737 C228 1.026 . S
C1743 C8 1.034 . S
C1757 C252 1.042 . S
C1763 C40 1.029 . S
C1777 C62 1.046 . S
C1783 C140 1.017 . S
C1797 C84 1.015 . S
C1803 C162 1.048 . S
C1817 C186 1.033 . S
C1823 C98 1.039 . S
C1837 C128 1.018 . S
C1843 C216 1.044 . S
C1857 C492 1.044 . S
C1863 C282 1.018 . S
C1877 C514 1.026 . S
C1883 C294 1.034 . S
C1897 C414 1.049 . S
C1903 C318 1.016 . S
C1917 C338 1.046 . S
C1923 C426 1.017 . S
C1937 C450 1.028 . S
C1943 C360 1.032 . S
C1957 C384 1.043 . S
C1963 C470 1.018 . S
