# Generated by pormake.
# Topology nov, (5)-cn, num edge types: 1
# Building blocks:
#     Node 0, Type 0, BuildingBlock: XOMCOT_clean_sbu_1, # of connection points: 5
#     Node 1, Type 0, BuildingBlock: XOMCOT_clean_sbu_1, # of connection points: 5
#     Node 2, Type 0, BuildingBlock: XOMCOT_clean_sbu_1, # of connection points: 5
#     Node 3, Type 0, BuildingBlock: XOMCOT_clean_sbu_1, # of connection points: 5
#     Node 4, Type 0, BuildingBlock: XOMCOT_clean_sbu_1, # of connection points: 5
#     Node 5, Type 0, BuildingBlock: XOMCOT_clean_sbu_1, # of connection points: 5
#     Node 6, Type 0, BuildingBlock: XOMCOT_clean_sbu_1, # of connection points: 5
#     Node 7, Type 0, BuildingBlock: XOMCOT_clean_sbu_1, # of connection points: 5
#     Edge 8, Type (0, 0), BuildingBlock: ZUJKAS_clean_linker_0, # of connection points: 2
#     Edge 9, Type (0, 0), BuildingBlock: ZUJKAS_clean_linker_0, # of connection points: 2
#     Edge 10, Type (0, 0), BuildingBlock: ZUJKAS_clean_linker_0, # of connection points: 2
#     Edge 11, Type (0, 0), BuildingBlock: ZUJKAS_clean_linker_0, # of connection points: 2
#     Edge 12, Type (0, 0), BuildingBlock: ZUJKAS_clean_linker_0, # of connection points: 2
#     Edge 13, Type (0, 0), BuildingBlock: ZUJKAS_clean_linker_0, # of connection points: 2
#     Edge 14, Type (0, 0), BuildingBlock: ZUJKAS_clean_linker_0, # of connection points: 2
#     Edge 15, Type (0, 0), BuildingBlock: ZUJKAS_clean_linker_0, # of connection points: 2
#     Edge 16, Type (0, 0), BuildingBlock: ZUJKAS_clean_linker_0, # of connection points: 2
#     Edge 17, Type (0, 0), BuildingBlock: ZUJKAS_clean_linker_0, # of connection points: 2
#     Edge 18, Type (0, 0), BuildingBlock: ZUJKAS_clean_linker_0, # of connection points: 2
#     Edge 19, Type (0, 0), BuildingBlock: ZUJKAS_clean_linker_0, # of connection points: 2
#     Edge 20, Type (0, 0), BuildingBlock: ZUJKAS_clean_linker_0, # of connection points: 2
#     Edge 21, Type (0, 0), BuildingBlock: ZUJKAS_clean_linker_0, # of connection points: 2
#     Edge 22, Type (0, 0), BuildingBlock: ZUJKAS_clean_linker_0, # of connection points: 2
#     Edge 23, Type (0, 0), BuildingBlock: ZUJKAS_clean_linker_0, # of connection points: 2
#     Edge 24, Type (0, 0), BuildingBlock: ZUJKAS_clean_linker_0, # of connection points: 2
#     Edge 25, Type (0, 0), BuildingBlock: ZUJKAS_clean_linker_0, # of connection points: 2
#     Edge 26, Type (0, 0), BuildingBlock: ZUJKAS_clean_linker_0, # of connection points: 2
#     Edge 27, Type (0, 0), BuildingBlock: ZUJKAS_clean_linker_0, # of connection points: 2
# Relax obj value: 0.132
# Max RMSD: 0.166
# Mean RMSD: 0.166
data_MOF--net-nov--node1-XOMCOT_clean_sbu_1--edge1-ZUJKAS_clean_linker_0
_symmetry_space_group_name_H-M    P1
_symmetry_Int_Tables_number       1
_symmetry_cell_setting            triclinic
loop_
_symmetry_equiv_pos_as_xyz
'x, y, z'
_cell_length_a     34.666851
_cell_length_b     66.936112
_cell_length_c     35.315518
_cell_angle_alpha  90.027264
_cell_angle_beta   89.944664
_cell_angle_gamma 90.431516
loop_
_atom_site_label
_atom_site_type_symbol
_atom_site_fract_x
_atom_site_fract_y
_atom_site_fract_z
_atom_type_partial_charge
C0 C 0.05905 0.14826 0.06543 0.0
C1 C 0.06458 0.13128 0.04436 0.0
N2 N 0.05931 0.11532 0.06705 0.0
N3 N 0.04968 0.14316 0.10125 0.0
C4 C 0.051 0.12295 0.10155 0.0
H5 H 0.06195 0.16341 0.05519 0.0
Co6 Co 0.04196 0.16133 0.14109 0.0
C7 C 0.9694 0.13458 0.14944 0.0
O8 O 0.97184 0.12541 0.11667 0.0
N9 N 0.03455 0.17947 0.18061 0.0
C10 C 1.00538 0.2009 0.21894 0.0
C11 C 1.0002 0.18744 0.19011 0.0
C12 C 0.06024 0.18824 0.20427 0.0
N13 N 0.04312 0.20143 0.2278 0.0
O14 O 0.07487 0.14552 0.17321 0.0
H15 H 0.97306 0.1839 0.17649 0.0
H16 H 0.09092 0.18541 0.2037 0.0
O17 O 0.99499 0.1475 0.15899 0.0
C18 C 0.10961 0.14933 0.16318 0.0
O19 O 0.11521 0.16195 0.13516 0.0
N20 N 1.01413 0.17818 0.10855 0.0
C21 C 0.98923 0.20525 0.05381 0.0
C22 C 0.96875 0.18739 0.06034 0.0
C23 C 0.98162 0.17402 0.08811 0.0
C24 C 0.0339 0.19559 0.10282 0.0
C25 C 1.02176 0.2094 0.07601 0.0
H26 H 0.96648 0.16008 0.09159 0.0
H27 H 0.06034 0.19842 0.11823 0.0
H28 H 0.04605 0.11403 0.12667 0.0
H29 H 0.0713 0.13074 0.01444 0.0
H30 H 0.98304 0.20956 0.23254 0.0
H31 H 0.94363 0.18358 0.04353 0.0
H32 H 0.039 0.22274 0.07135 0.0
C33 C 0.51207 0.87939 0.57617 0.0
C34 C 0.50424 0.89618 0.55517 0.0
N35 N 0.51438 0.91233 0.57571 0.0
N36 N 0.52755 0.88488 0.60968 0.0
C37 C 0.52769 0.90508 0.60888 0.0
H38 H 0.50667 0.86414 0.5675 0.0
Co39 Co 0.54084 0.86757 0.64913 0.0
C40 C 0.61349 0.89479 0.64695 0.0
O41 O 0.60848 0.90251 0.61315 0.0
N42 N 0.55365 0.85017 0.68869 0.0
C43 C 0.58847 0.83117 0.727 0.0
C44 C 0.58958 0.84368 0.69626 0.0
C45 C 0.53105 0.84116 0.715 0.0
N46 N 0.55164 0.8296 0.7389 0.0
O47 O 0.51234 0.88407 0.68362 0.0
H48 H 0.61508 0.84762 0.68015 0.0
H49 H 0.50019 0.84312 0.71682 0.0
O50 O 0.58903 0.88221 0.66026 0.0
C51 C 0.477 0.8787 0.68173 0.0
O52 O 0.46749 0.86375 0.6594 0.0
N53 N 0.56463 0.85023 0.61448 0.0
C54 C 0.58049 0.82365 0.55561 0.0
C55 C 0.60398 0.84054 0.56161 0.0
C56 C 0.59546 0.85375 0.59125 0.0
C57 C 0.54299 0.83331 0.61031 0.0
C58 C 0.55049 0.81979 0.58128 0.0
H59 H 0.61251 0.86712 0.59395 0.0
H60 H 0.51834 0.83081 0.62856 0.0
H61 H 0.53732 0.91432 0.63225 0.0
H62 H 0.49274 0.89647 0.52669 0.0
H63 H 0.61288 0.82349 0.73913 0.0
H64 H 0.62734 0.84414 0.54234 0.0
H65 H 0.53201 0.80678 0.57819 0.0
C66 C 0.09216 0.88473 0.91394 0.0
C67 C 0.09815 0.9019 0.93448 0.0
N68 N 0.07321 0.91584 0.92226 0.0
N69 N 0.06348 0.88772 0.88894 0.0
C70 C 0.05256 0.90686 0.89447 0.0
H71 H 0.10746 0.87082 0.9172 0.0
Co72 Co 0.04666 0.8683 0.85483 0.0
C73 C 0.96291 0.88193 0.85419 0.0
O74 O 0.95282 0.86923 0.88068 0.0
N75 N 0.03047 0.84875 0.81931 0.0
C76 C 0.99585 0.82581 0.78838 0.0
C77 C 0.99527 0.84003 0.81636 0.0
C78 C 0.05185 0.83951 0.79248 0.0
N79 N 0.03149 0.82551 0.77339 0.0
O80 O 0.07331 0.88269 0.81543 0.0
H81 H 0.97089 0.84307 0.83429 0.0
H82 H 0.08213 0.84241 0.78767 0.0
O83 O 0.99824 0.88313 0.84341 0.0
C84 C 0.10851 0.8772 0.81569 0.0
O85 O 0.11887 0.86299 0.83913 0.0
N86 N 1.02541 0.85314 0.89584 0.0
C87 C 1.00846 0.82926 0.95892 0.0
C88 C 1.00143 0.84984 0.95968 0.0
C89 C 1.01059 0.86155 0.92809 0.0
C90 C 0.03409 0.83325 0.89571 0.0
C91 C 1.02489 0.821 0.92635 0.0
H92 H 1.00573 0.87745 0.92966 0.0
H93 H 0.04976 0.82676 0.87237 0.0
H94 H 0.0302 0.9141 0.87825 0.0
H95 H 0.11881 0.90383 0.95717 0.0
H96 H 0.97193 0.81635 0.77986 0.0
H97 H 0.98946 0.85687 0.98465 0.0
H98 H 0.03245 0.80533 0.92527 0.0
C99 C 0.51925 0.14693 0.44222 0.0
C100 C 0.51244 0.12974 0.46245 0.0
N101 N 0.51865 0.11404 0.4395 0.0
N102 N 0.53019 0.14217 0.40666 0.0
C103 C 0.52878 0.12196 0.40569 0.0
H104 H 0.51581 0.16199 0.45269 0.0
Co105 Co 0.53844 0.16077 0.36758 0.0
C106 C 0.61084 0.1345 0.35883 0.0
O107 O 0.60822 0.12514 0.39141 0.0
N108 N 0.54631 0.17935 0.32882 0.0
C109 C 0.57575 0.2016 0.29197 0.0
C110 C 0.58068 0.18785 0.32026 0.0
C111 C 0.52089 0.18804 0.30504 0.0
N112 N 0.53819 0.20172 0.28244 0.0
O113 O 0.50569 0.14507 0.33459 0.0
H114 H 0.60762 0.18449 0.33422 0.0
H115 H 0.49026 0.18481 0.30491 0.0
O116 O 0.58541 0.14735 0.34949 0.0
C117 C 0.47084 0.14807 0.34489 0.0
O118 O 0.46462 0.16019 0.37352 0.0
N119 N 0.56611 0.17745 0.40103 0.0
C120 C 0.59143 0.20437 0.45631 0.0
C121 C 0.61167 0.18663 0.44939 0.0
C122 C 0.59859 0.17334 0.42138 0.0
C123 C 0.54645 0.19469 0.40729 0.0
C124 C 0.55879 0.20842 0.43436 0.0
H125 H 0.61366 0.15953 0.4175 0.0
H126 H 0.52004 0.19748 0.39193 0.0
H127 H 0.53458 0.11323 0.38054 0.0
H128 H 0.50397 0.12885 0.49192 0.0
H129 H 0.59811 0.21077 0.2792 0.0
H130 H 0.63687 0.18289 0.46596 0.0
H131 H 0.54171 0.22166 0.43932 0.0
C132 C 0.57552 0.64734 0.07355 0.0
C133 C 0.58202 0.63079 0.05148 0.0
N134 N 0.57403 0.61436 0.07216 0.0
N135 N 0.56276 0.6415 0.10792 0.0
C136 C 0.56341 0.6213 0.1066 0.0
H137 H 0.57975 0.66269 0.06489 0.0
Co138 Co 0.54983 0.65853 0.14812 0.0
C139 C 0.4778 0.63087 0.14671 0.0
O140 O 0.48281 0.62302 0.11299 0.0
N141 N 0.53723 0.67564 0.18836 0.0
C142 C 0.50226 0.69422 0.22741 0.0
C143 C 0.50121 0.68189 0.19641 0.0
C144 C 0.55982 0.68466 0.21465 0.0
N145 N 0.53913 0.69595 0.23899 0.0
O146 O 0.57928 0.64201 0.18172 0.0
H147 H 0.47568 0.67791 0.18042 0.0
H148 H 0.59074 0.68293 0.21615 0.0
O149 O 0.50207 0.64363 0.15968 0.0
C150 C 0.61428 0.64796 0.17975 0.0
O151 O 0.6227 0.66324 0.15782 0.0
N152 N 0.52506 0.67594 0.11434 0.0
C153 C 0.5083 0.70256 0.05589 0.0
C154 C 0.48543 0.68542 0.06162 0.0
C155 C 0.49439 0.67219 0.09108 0.0
C156 C 0.54596 0.69314 0.11053 0.0
C157 C 0.53797 0.70668 0.08173 0.0
H158 H 0.47804 0.65856 0.09344 0.0
H159 H 0.57052 0.69581 0.12876 0.0
H160 H 0.55494 0.61189 0.13014 0.0
H161 H 0.59197 0.63091 0.02243 0.0
H162 H 0.47778 0.70169 0.23994 0.0
H163 H 0.46235 0.68162 0.0422 0.0
H164 H 0.55597 0.71989 0.07882 0.0
C165 C 1.0084 0.38123 0.58155 0.0
C166 C 1.0037 0.39846 0.56105 0.0
N167 N 1.02697 0.41266 0.57579 0.0
N168 N 0.03451 0.3845 0.60917 0.0
C169 C 0.04537 0.40383 0.60501 0.0
H170 H 0.99375 0.36714 0.5767 0.0
Co171 Co 0.0479 0.36535 0.64519 0.0
C172 C 0.13233 0.37827 0.6499 0.0
O173 O 0.1431 0.36419 0.62645 0.0
N174 N 0.06027 0.34617 0.68249 0.0
C175 C 0.09095 0.32407 0.71835 0.0
C176 C 0.09458 0.33738 0.68904 0.0
C177 C 0.03622 0.33783 0.7084 0.0
N178 N 0.05418 0.32431 0.73056 0.0
O179 O 1.01924 0.38031 0.6824 0.0
H180 H 0.12061 0.3399 0.67311 0.0
H181 H 1.00589 0.34126 0.71054 0.0
O182 O 0.09652 0.38019 0.65861 0.0
C183 C 0.98347 0.37641 0.67731 0.0
O184 O 0.97373 0.36306 0.6517 0.0
N185 N 0.07118 0.34961 0.60621 0.0
C186 C 0.09135 0.32536 0.54466 0.0
C187 C 0.09938 0.3459 0.54419 0.0
C188 C 0.08858 0.35779 0.57491 0.0
C189 C 0.0619 0.32973 0.60622 0.0
C190 C 0.07253 0.31729 0.57631 0.0
H191 H 0.09438 0.37366 0.57347 0.0
H192 H 0.04466 0.32339 0.62876 0.0
H193 H 0.06576 0.41137 0.62338 0.0
H194 H 0.98495 0.40032 0.53684 0.0
H195 H 0.11384 0.31503 0.72993 0.0
H196 H 0.11344 0.35279 0.52005 0.0
H197 H 0.06429 0.30166 0.57714 0.0
C198 C 0.58787 0.38014 0.93352 0.0
C199 C 0.59268 0.39712 0.95489 0.0
N200 N 0.57278 0.41203 0.93851 0.0
N201 N 0.56478 0.38418 0.90385 0.0
C202 C 0.55636 0.4038 0.90737 0.0
H203 H 0.60019 0.36566 0.9393 0.0
Co204 Co 0.55039 0.36547 0.86693 0.0
C205 C 0.46855 0.38142 0.8598 0.0
O206 O 0.45484 0.36823 0.88374 0.0
N207 N 0.53667 0.34686 0.82875 0.0
C208 C 0.50318 0.32601 0.79206 0.0
C209 C 0.50119 0.33928 0.82155 0.0
C210 C 0.55975 0.33788 0.80294 0.0
N211 N 0.54005 0.32508 0.78031 0.0
O212 O 0.5832 0.37949 0.83135 0.0
H213 H 0.47539 0.34264 0.83722 0.0
H214 H 0.59054 0.34035 0.80113 0.0
O215 O 0.50467 0.38178 0.85153 0.0
C216 C 0.61736 0.37358 0.83886 0.0
O217 O 0.62134 0.35937 0.86422 0.0
N218 N 0.5233 0.35028 0.90473 0.0
C219 C 0.49943 0.32623 0.96553 0.0
C220 C 0.49384 0.34692 0.96636 0.0
C221 C 0.50641 0.35869 0.93599 0.0
C222 C 0.53001 0.33017 0.9044 0.0
C223 C 0.51744 0.31787 0.93386 0.0
H224 H 0.50278 0.37469 0.93787 0.0
H225 H 0.54696 0.32352 0.88212 0.0
H226 H 0.53814 0.4118 0.88779 0.0
H227 H 0.60997 0.39843 0.98029 0.0
H228 H 0.47915 0.31779 0.78001 0.0
H229 H 0.48058 0.35402 0.99061 0.0
H230 H 0.52384 0.30206 0.93282 0.0
C231 C 0.99868 0.6398 0.41219 0.0
C232 C 0.99483 0.62272 0.4334 0.0
N233 N 1.02225 0.60969 0.42256 0.0
N234 N 0.02835 0.63769 0.38796 0.0
C235 C 0.04197 0.61914 0.3946 0.0
H236 H 0.98115 0.65305 0.41442 0.0
Co237 Co 0.04382 0.65746 0.35394 0.0
C238 C 0.12822 0.64483 0.35266 0.0
O239 O 0.1382 0.65767 0.37897 0.0
N240 N 0.05875 0.67732 0.31859 0.0
C241 C 0.09205 0.70084 0.28785 0.0
C242 C 0.09349 0.68651 0.31557 0.0
C243 C 0.03676 0.68637 0.29207 0.0
N244 N 0.05633 0.70073 0.27311 0.0
O245 O 1.01784 0.64278 0.3145 0.0
H246 H 0.1181 0.68372 0.33329 0.0
H247 H 1.0066 0.68308 0.28744 0.0
O248 O 0.09289 0.64337 0.34211 0.0
C249 C 0.98227 0.6476 0.31486 0.0
O250 O 0.97087 0.66154 0.33846 0.0
N251 N 0.0644 0.67283 0.39497 0.0
C252 C 0.08016 0.69686 0.45814 0.0
C253 C 0.08866 0.67644 0.45861 0.0
C254 C 0.08011 0.66464 0.42695 0.0
C255 C 0.05432 0.69254 0.39514 0.0
C256 C 0.0629 0.70488 0.42583 0.0
H257 H 0.08612 0.64885 0.42832 0.0
H258 H 0.03802 0.69878 0.37202 0.0
H259 H 0.06641 0.61292 0.37981 0.0
H260 H 0.97317 0.62015 0.45494 0.0
H261 H 0.11545 0.71065 0.27934 0.0
H262 H 0.10133 0.66959 0.48339 0.0
H263 H 0.05424 0.72039 0.42499 0.0
H264 H 0.12907 0.93868 0.95435 0.0
H265 H 0.12222 0.97197 0.98152 0.0
H266 H 1.00199 0.97214 0.95038 0.0
H267 H 1.00866 0.93866 0.92302 0.0
H268 H 0.03872 1.00741 0.93297 0.0
H269 H 0.07053 0.98631 0.08116 0.0
H270 H 0.10753 0.97862 0.04884 0.0
H271 H 0.0598 0.96806 0.04494 0.0
C272 C 0.10105 0.94567 0.95358 0.0
C273 C 0.06932 0.93589 0.93682 0.0
C274 C 0.09716 0.96472 0.96923 0.0
C275 C 0.06139 0.97437 0.96881 0.0
C276 C 0.0298 0.96489 0.95131 0.0
H277 H 1.0186 0.08439 0.09734 0.0
H278 H 1.01663 0.04981 0.07431 0.0
C279 C 0.03371 0.94581 0.9355 0.0
C280 C 0.05748 0.9946 0.98567 0.0
H281 H 0.07323 0.02127 0.06682 0.0
C282 C 0.04591 1.01041 0.96232 0.0
C283 C 0.0662 0.99847 0.02417 0.0
C284 C 0.07631 0.98193 0.05135 0.0
C285 C 0.04432 0.03009 0.976 0.0
C286 C 0.05534 0.03413 0.01387 0.0
C287 C 0.06536 0.01821 0.03766 0.0
C288 C 0.05755 0.05484 0.02892 0.0
C289 C 0.03074 0.04637 0.94976 0.0
C290 C 0.08207 0.06897 0.01183 0.0
C291 C 0.08328 0.08865 0.02494 0.0
C292 C 0.06027 0.09462 0.0557 0.0
C293 C 0.03683 0.08025 0.07376 0.0
C294 C 0.03552 0.06053 0.06048 0.0
H295 H 1.01274 0.04023 0.92641 0.0
H296 H 1.01374 0.05774 0.96529 0.0
H297 H 0.05617 0.0539 0.93687 0.0
H298 H 0.1002 0.06479 0.98817 0.0
H299 H 0.10223 0.09923 0.01092 0.0
H300 H 0.46768 0.09694 0.48759 0.0
H301 H 0.46707 0.0623 0.50958 0.0
H302 H 0.56497 0.04958 0.43824 0.0
H303 H 0.56479 0.08419 0.41529 0.0
H304 H 0.51491 0.01952 0.43628 0.0
H305 H 0.53976 0.03988 0.58612 0.0
H306 H 0.49701 0.05124 0.56779 0.0
H307 H 0.54342 0.05788 0.54829 0.0
C308 C 0.48901 0.08672 0.47659 0.0
C309 C 0.5165 0.09327 0.45001 0.0
C310 C 0.48882 0.06697 0.48935 0.0
C311 C 0.51669 0.05344 0.47647 0.0
C312 C 0.54337 0.05977 0.44887 0.0
H313 H 0.56574 0.94151 0.5933 0.0
H314 H 0.56738 0.97565 0.56835 0.0
C315 C 0.54319 0.0795 0.43565 0.0
C316 C 0.51793 0.03274 0.49181 0.0
H317 H 0.52073 1.00611 0.57428 0.0
C318 C 0.51642 0.01659 0.46645 0.0
C319 C 0.52076 0.02885 0.53115 0.0
C320 C 0.52576 0.04538 0.55986 0.0
C321 C 0.51671 0.99672 0.47933 0.0
C322 C 0.51724 0.99286 0.51879 0.0
C323 C 0.51969 1.00901 0.54408 0.0
C324 C 0.51571 0.97222 0.53446 0.0
C325 C 0.5173 0.98013 0.4504 0.0
C326 C 0.48566 0.95903 0.52454 0.0
C327 C 0.48494 0.93948 0.53849 0.0
C328 C 0.51377 0.93284 0.56334 0.0
C329 C 0.543 0.94627 0.57443 0.0
C330 C 0.54403 0.96574 0.56003 0.0
H331 H 0.52924 0.98537 0.4229 0.0
H332 H 0.53473 0.96731 0.46034 0.0
H333 H 0.48737 0.97482 0.44526 0.0
H334 H 0.46271 0.96384 0.50595 0.0
H335 H 0.46174 0.92955 0.52996 0.0
H336 H 0.58246 0.58068 0.11446 0.0
H337 H 0.58133 0.54607 0.09168 0.0
H338 H 0.56366 0.56695 0.97761 0.0
H339 H 0.56452 0.60138 0.99999 0.0
H340 H 0.52272 0.52539 0.05275 0.0
H341 H 0.65593 0.52992 0.96588 0.0
H342 H 0.64381 0.54854 1.00082 0.0
H343 H 0.62123 0.54883 0.95501 0.0
C344 C 0.57829 0.57791 0.08455 0.0
C345 C 0.57401 0.5939 0.05905 0.0
C346 C 0.57776 0.55812 0.07155 0.0
C347 C 0.57311 0.55394 0.03284 0.0
C348 C 0.5683 0.56982 0.00745 0.0
H349 H 0.56048 0.44542 0.89654 0.0
H350 H 0.55806 0.47996 0.91954 0.0
C351 C 0.56888 0.58955 0.02035 0.0
C352 C 0.57239 0.53298 0.01892 0.0
H353 H 0.61716 0.50079 0.95827 0.0
C354 C 0.54349 0.51996 0.03227 0.0
C355 C 0.5994 0.52595 0.99203 0.0
C356 C 0.63208 0.53896 0.97781 0.0
C357 C 0.5405 0.50021 0.01899 0.0
C358 C 0.5675 0.4932 0.99209 0.0
C359 C 0.59636 0.50622 0.97872 0.0
C360 C 0.56712 0.47223 0.97833 0.0
C361 C 0.508 0.48713 0.03332 0.0
C362 C 0.57314 0.45644 0.00368 0.0
C363 C 0.57443 0.43674 0.99065 0.0
C364 C 0.56994 0.43236 0.9519 0.0
C365 C 0.56362 0.44822 0.92656 0.0
C366 C 0.56246 0.46797 0.93964 0.0
H367 H 0.48417 0.49611 0.04547 0.0
H368 H 0.4962 0.47758 0.01029 0.0
H369 H 0.51907 0.47721 0.05594 0.0
H370 H 0.57744 0.45937 0.03355 0.0
H371 H 0.57891 0.42492 0.01103 0.0
H372 H 0.97113 0.4356 0.54585 0.0
H373 H 0.97828 0.46912 0.51944 0.0
H374 H 0.09915 0.46919 0.54837 0.0
H375 H 0.09181 0.4356 0.57567 0.0
H376 H 0.06696 0.50463 0.56412 0.0
H377 H 1.02603 0.48252 0.41881 0.0
H378 H 0.98928 0.47567 0.45219 0.0
H379 H 0.03626 0.46444 0.45523 0.0
C380 C 0.99926 0.44272 0.54643 0.0
C381 C 0.03102 0.4329 0.5624 0.0
C382 C 1.00337 0.46184 0.53117 0.0
C383 C 0.03949 0.47146 0.53087 0.0
C384 C 0.07107 0.46197 0.54791 0.0
H385 H 0.06309 0.57921 0.39088 0.0
H386 H 0.07369 0.54605 0.41753 0.0
C387 C 0.06686 0.44285 0.56363 0.0
C388 C 0.0438 0.49151 0.5132 0.0
H389 H 1.02312 0.51763 0.4328 0.0
C390 C 0.05783 0.50743 0.53525 0.0
C391 C 0.03284 0.49514 0.47521 0.0
C392 C 1.02069 0.47848 0.44888 0.0
C393 C 0.0593 0.52702 0.52097 0.0
C394 C 0.04538 0.53088 0.484 0.0
C395 C 0.03323 0.51479 0.46134 0.0
C396 C 0.0413 0.55149 0.46888 0.0
C397 C 0.07585 0.54335 0.5457 0.0
C398 C 1.01942 0.56562 0.48868 0.0
C399 C 1.01375 0.58469 0.47379 0.0
C400 C 0.02919 0.59007 0.43828 0.0
C401 C 0.05108 0.57583 0.41842 0.0
C402 C 0.05702 0.55676 0.43356 0.0
H403 H 0.0971 0.53728 0.56615 0.0
H404 H 0.09019 0.55517 0.52859 0.0
H405 H 0.05224 0.55024 0.56231 0.0
H406 H 1.00607 0.5618 0.51548 0.0
H407 H 0.99715 0.59516 0.49032 0.0
H408 H 0.40573 0.13477 0.37818 0.0
H409 H 0.34395 0.12735 0.34814 0.0
H410 H 0.396 0.13554 0.23819 0.0
H411 H 0.45858 0.14259 0.2685 0.0
H412 H 0.30693 0.15507 0.30712 0.0
H413 H 0.32658 0.08709 0.21971 0.0
H414 H 0.35986 0.0942 0.25676 0.0
H415 H 0.36216 0.10623 0.2113 0.0
C416 C 0.40429 0.1344 0.34753 0.0
C417 C 0.43693 0.1392 0.32563 0.0
C418 C 0.3689 0.13021 0.33039 0.0
C419 C 0.36513 0.13084 0.29088 0.0
C420 C 0.39824 0.13458 0.26871 0.0
H421 H 0.1812 0.14545 0.13399 0.0
H422 H 0.24079 0.13802 0.16731 0.0
C423 C 0.43402 0.13859 0.28598 0.0
C424 C 0.32582 0.13005 0.27375 0.0
H425 H 0.26961 0.10605 0.20823 0.0
C426 C 0.29863 0.14417 0.28585 0.0
C427 C 0.31496 0.11588 0.24593 0.0
C428 C 0.34227 0.09986 0.23285 0.0
C429 C 0.26146 0.14496 0.27012 0.0
C430 C 0.25072 0.13099 0.24187 0.0
C431 C 0.27767 0.11663 0.23015 0.0
C432 C 0.21332 0.13255 0.22134 0.0
C433 C 0.23465 0.16137 0.28267 0.0
C434 C 0.17756 0.13122 0.24024 0.0
C435 C 0.14304 0.13551 0.22108 0.0
C436 C 0.14392 0.14122 0.1828 0.0
C437 C 0.17953 0.14131 0.16361 0.0
C438 C 0.21372 0.13698 0.18259 0.0
H439 H 0.24998 0.17319 0.299 0.0
H440 H 0.22048 0.16841 0.2579 0.0
H441 H 0.2118 0.15492 0.30109 0.0
H442 H 0.17647 0.12749 0.27006 0.0
H443 H 0.11608 0.13532 0.23659 0.0
H444 H 0.44435 0.91486 0.66874 0.0
H445 H 0.38061 0.92549 0.69164 0.0
H446 H 0.3745 0.87338 0.76327 0.0
H447 H 0.43768 0.86282 0.74029 0.0
H448 H 0.31558 0.90167 0.67899 0.0
H449 H 0.33049 0.91678 0.83215 0.0
H450 H 0.37127 0.91691 0.80021 0.0
H451 H 0.35267 0.8937 0.81873 0.0
C452 C 0.43007 0.90626 0.69072 0.0
C453 C 0.44615 0.88832 0.70357 0.0
C454 C 0.39354 0.9122 0.70348 0.0
C455 C 0.37288 0.90036 0.72954 0.0
C456 C 0.39015 0.88303 0.74391 0.0
H457 H 0.15063 0.85801 0.7633 0.0
H458 H 0.21253 0.86898 0.73719 0.0
C459 C 0.42632 0.87701 0.73087 0.0
C460 C 0.33149 0.90424 0.73778 0.0
H461 H 0.26696 0.90651 0.81076 0.0
C462 C 0.30498 0.90324 0.70774 0.0
C463 C 0.31752 0.90648 0.77518 0.0
C464 C 0.34453 0.90874 0.80837 0.0
C465 C 0.26498 0.90288 0.7144 0.0
C466 C 0.25111 0.9034 0.75206 0.0
C467 C 0.27752 0.90596 0.78186 0.0
C468 C 0.21024 0.89863 0.76156 0.0
C469 C 0.23793 0.90122 0.68112 0.0
C470 C 0.18775 0.91178 0.78328 0.0
C471 C 0.15187 0.90557 0.79776 0.0
C472 C 0.1384 0.88604 0.79114 0.0
C473 C 0.16002 0.87329 0.76795 0.0
C474 C 0.19545 0.87956 0.75311 0.0
H475 H 0.25121 0.90753 0.65505 0.0
H476 H 0.23138 0.88522 0.6757 0.0
H477 H 0.21037 0.90903 0.68676 0.0
H478 H 0.1988 0.92647 0.79053 0.0
H479 H 0.1362 0.91543 0.81652 0.0
H480 H 0.88881 0.88713 0.87663 0.0
H481 H 0.83352 0.89516 0.83734 0.0
H482 H 0.90909 0.90616 0.7424 0.0
H483 H 0.96501 0.89737 0.78162 0.0
H484 H 0.80845 0.92618 0.79713 0.0
H485 H 0.84006 0.86287 0.70015 0.0
H486 H 0.86581 0.86661 0.74392 0.0
H487 H 0.87736 0.88155 0.70308 0.0
C488 C 0.8939 0.89151 0.84751 0.0
C489 C 0.93137 0.89131 0.83215 0.0
C490 C 0.86212 0.89614 0.82503 0.0
C491 C 0.86686 0.90076 0.78657 0.0
C492 C 0.90453 0.9021 0.77174 0.0
H493 H 0.67919 0.91306 0.62038 0.0
H494 H 0.74135 0.91673 0.65272 0.0
C495 C 0.93656 0.89735 0.79432 0.0
C496 C 0.83196 0.90283 0.76221 0.0
H497 H 0.78358 0.88102 0.68833 0.0
C498 C 0.80325 0.91643 0.77312 0.0
C499 C 0.82484 0.88998 0.73099 0.0
C500 C 0.85342 0.8743 0.71893 0.0
C501 C 0.76757 0.91723 0.75425 0.0
C502 C 0.76033 0.90415 0.72364 0.0
C503 C 0.78935 0.89106 0.7118 0.0
C504 C 0.72204 0.90303 0.70486 0.0
C505 C 0.7375 0.93183 0.76744 0.0
C506 C 0.69055 0.89412 0.72351 0.0
C507 C 0.65505 0.89182 0.70504 0.0
C508 C 0.65026 0.8985 0.66756 0.0
C509 C 0.68173 0.90782 0.64928 0.0
C510 C 0.71734 0.90991 0.66766 0.0
H511 H 0.74974 0.94324 0.78698 0.0
H512 H 0.72427 0.93951 0.74285 0.0
H513 H 0.71423 0.9236 0.78255 0.0
H514 H 0.69369 0.88855 0.75213 0.0
H515 H 0.63151 0.88457 0.71999 0.0
H516 H 0.6263 0.15071 0.28891 0.0
H517 H 0.68636 0.1488 0.25264 0.0
H518 H 0.73641 0.11228 0.34003 0.0
H519 H 0.6763 0.11368 0.37594 0.0
H520 H 0.75677 0.16208 0.27076 0.0
H521 H 0.76421 0.08041 0.24779 0.0
H522 H 0.72123 0.09246 0.26499 0.0
H523 H 0.76009 0.0868 0.29694 0.0
C524 C 0.64989 0.14204 0.30022 0.0
C525 C 0.64627 0.13227 0.33535 0.0
C526 C 0.68431 0.14101 0.27945 0.0
C527 C 0.71591 0.13016 0.29323 0.0
C528 C 0.71227 0.12032 0.32821 0.0
H529 H 0.95449 0.14998 0.22007 0.0
H530 H 0.89386 0.14846 0.25552 0.0
C531 C 0.67781 0.12124 0.34887 0.0
C532 C 0.75319 0.12996 0.27199 0.0
H533 H 0.82156 0.09909 0.23451 0.0
C534 C 0.77081 0.14829 0.26268 0.0
C535 C 0.77145 0.112 0.26095 0.0
C536 C 0.7531 0.09181 0.26782 0.0
C537 C 0.80623 0.14917 0.24324 0.0
C538 C 0.82527 0.13121 0.23359 0.0
C539 C 0.80737 0.11288 0.24234 0.0
C540 C 0.8631 0.13113 0.2133 0.0
C541 C 0.8224 0.16939 0.23247 0.0
C542 C 0.8668 0.12111 0.17854 0.0
C543 C 0.90165 0.1217 0.15845 0.0
C544 C 0.9337 0.13235 0.17261 0.0
C545 C 0.93035 0.14181 0.20807 0.0
C546 C 0.89553 0.14109 0.22828 0.0
H547 H 0.79963 0.18099 0.23207 0.0
H548 H 0.84438 0.174 0.25362 0.0
H549 H 0.83635 0.16895 0.20417 0.0
H550 H 0.84237 0.1132 0.16644 0.0
H551 H 0.90308 0.11421 0.1313 0.0
H552 H 0.95144 0.61033 0.32148 0.0
H553 H 0.8887 0.59951 0.29583 0.0
H554 H 0.88211 0.65411 0.23144 0.0
H555 H 0.94432 0.66487 0.25717 0.0
H556 H 0.82316 0.62182 0.31115 0.0
H557 H 0.83954 0.61295 0.15639 0.0
H558 H 0.88009 0.61215 0.1885 0.0
H559 H 0.86104 0.63575 0.17317 0.0
C560 C 0.93739 0.61948 0.30035 0.0
C561 C 0.953 0.63818 0.29046 0.0
C562 C 0.9014 0.61341 0.28605 0.0
C563 C 0.88079 0.62589 0.26136 0.0
C564 C 0.89774 0.64399 0.24968 0.0
H565 H 0.65783 0.66636 0.23231 0.0
H566 H 0.72044 0.65555 0.25607 0.0
C567 C 0.93338 0.65013 0.26428 0.0
C568 C 0.83956 0.62176 0.25227 0.0
H569 H 0.77558 0.62144 0.17877 0.0
C570 C 0.81282 0.62122 0.28219 0.0
C571 C 0.82591 0.6208 0.21457 0.0
C572 C 0.85321 0.62024 0.18133 0.0
C573 C 0.77287 0.62129 0.27535 0.0
C574 C 0.75928 0.62203 0.23764 0.0
C575 C 0.78594 0.62101 0.20772 0.0
C576 C 0.71837 0.62663 0.22866 0.0
C577 C 0.74554 0.62135 0.30859 0.0
C578 C 0.69587 0.61382 0.20591 0.0
C579 C 0.65955 0.61991 0.1928 0.0
C580 C 0.6457 0.639 0.20182 0.0
C581 C 0.66754 0.6514 0.22575 0.0
C582 C 0.70337 0.64523 0.23926 0.0
H583 H 0.75886 0.61443 0.33396 0.0
H584 H 0.73826 0.63701 0.31582 0.0
H585 H 0.71835 0.61322 0.30182 0.0
H586 H 0.70709 0.5995 0.19703 0.0
H587 H 0.64365 0.61035 0.17348 0.0
H588 H 0.9639 0.3739 0.75214 0.0
H589 H 0.9002 0.38203 0.77872 0.0
H590 H 0.86749 0.40877 0.67256 0.0
H591 H 0.9306 0.40038 0.64596 0.0
H592 H 0.85098 0.41804 0.78427 0.0
H593 H 0.79373 0.36011 0.68568 0.0
H594 H 0.84452 0.36274 0.69577 0.0
H595 H 0.8213 0.37998 0.66437 0.0
C596 C 0.94364 0.38228 0.73517 0.0
C597 C 0.95214 0.38678 0.69725 0.0
C598 C 0.90718 0.38677 0.75018 0.0
C599 C 0.87887 0.3957 0.72737 0.0
C600 C 0.88866 0.40165 0.6905 0.0
H601 H 0.62699 0.39174 0.76882 0.0
H602 H 0.68895 0.4016 0.73941 0.0
C603 C 0.92484 0.39706 0.67548 0.0
C604 C 0.8381 0.39669 0.74043 0.0
H605 H 0.74907 0.3758 0.72553 0.0
C606 C 0.82863 0.40893 0.77127 0.0
C607 C 0.80881 0.38493 0.72322 0.0
C608 C 0.81744 0.37106 0.6906 0.0
C609 C 0.7908 0.40944 0.78578 0.0
C610 C 0.76187 0.39704 0.76956 0.0
C611 C 0.77109 0.38539 0.73782 0.0
C612 C 0.7237 0.39376 0.78807 0.0
C613 C 0.78228 0.42314 0.8186 0.0
C614 C 0.7226 0.38616 0.82501 0.0
C615 C 0.68768 0.38051 0.84151 0.0
C616 C 0.65275 0.38217 0.82154 0.0
C617 C 0.6534 0.39042 0.78495 0.0
C618 C 0.68876 0.39599 0.76817 0.0
H619 H 0.80181 0.43638 0.81844 0.0
H620 H 0.75195 0.42835 0.81804 0.0
H621 H 0.78712 0.415 0.84552 0.0
H622 H 0.74902 0.38379 0.84067 0.0
H623 H 0.68825 0.37429 0.86982 0.0
H624 H 0.46511 0.38762 0.78308 0.0
H625 H 0.4069 0.39669 0.74756 0.0
H626 H 0.34772 0.4088 0.85246 0.0
H627 H 0.40531 0.39941 0.88778 0.0
H628 H 0.31188 0.38019 0.8105 0.0
H629 H 0.34339 0.44587 0.71982 0.0
H630 H 0.37843 0.42632 0.71623 0.0
H631 H 0.37269 0.43945 0.76027 0.0
C632 C 0.44024 0.39312 0.79837 0.0
C633 C 0.43974 0.39292 0.83816 0.0
C634 C 0.40688 0.39824 0.77808 0.0
C635 C 0.37279 0.40347 0.79731 0.0
C636 C 0.37354 0.40484 0.83695 0.0
H637 H 0.13042 0.39533 0.72113 0.0
H638 H 0.1867 0.4058 0.75884 0.0
C639 C 0.40657 0.39957 0.85712 0.0
C640 C 0.33506 0.40435 0.77711 0.0
H641 H 0.28672 0.42685 0.70455 0.0
C642 C 0.30617 0.39062 0.78772 0.0
C643 C 0.32767 0.41784 0.74722 0.0
C644 C 0.35703 0.43334 0.73536 0.0
C645 C 0.27078 0.38945 0.76847 0.0
C646 C 0.26346 0.40275 0.73817 0.0
C647 C 0.29206 0.4168 0.72802 0.0
C648 C 0.22829 0.40062 0.71413 0.0
C649 C 0.24244 0.37322 0.77953 0.0
C650 C 0.23254 0.39561 0.67582 0.0
C651 C 0.20055 0.38992 0.65427 0.0
C652 C 0.16343 0.38911 0.67043 0.0
C653 C 0.1586 0.39578 0.70787 0.0
C654 C 0.19083 0.40154 0.72955 0.0
H655 H 0.25589 0.36169 0.79778 0.0
H656 H 0.21825 0.37992 0.79559 0.0
H657 H 0.23036 0.36573 0.75406 0.0
H658 H 0.26096 0.39492 0.66311 0.0
H659 H 0.20525 0.38509 0.62536 0.0
H660 H 0.12723 0.63095 0.27915 0.0
H661 H 0.18354 0.62161 0.24082 0.0
H662 H 0.25691 0.62917 0.33841 0.0
H663 H 0.20122 0.63803 0.37664 0.0
H664 H 0.24405 0.64639 0.22636 0.0
H665 H 0.29984 0.57848 0.29526 0.0
H666 H 0.25177 0.58761 0.30401 0.0
H667 H 0.29243 0.59802 0.32915 0.0
C668 C 0.15519 0.62995 0.29265 0.0
C669 C 0.15973 0.63522 0.33096 0.0
C670 C 0.18741 0.62475 0.27067 0.0
C671 C 0.22455 0.62447 0.28675 0.0
C672 C 0.22863 0.6288 0.32542 0.0
H673 H 0.45853 0.64283 0.21857 0.0
H674 H 0.39602 0.63923 0.25034 0.0
C675 C 0.19666 0.63402 0.34724 0.0
C676 C 0.25963 0.62195 0.26281 0.0
H677 H 0.34622 0.5978 0.25882 0.0
C678 C 0.266 0.63547 0.23297 0.0
C679 C 0.28847 0.60776 0.27141 0.0
C680 C 0.2826 0.59202 0.30147 0.0
C681 C 0.30103 0.63581 0.21285 0.0
C682 C 0.33044 0.62228 0.22274 0.0
C683 C 0.32369 0.60828 0.25157 0.0
C684 C 0.36891 0.62313 0.20432 0.0
C685 C 0.30715 0.65112 0.18207 0.0
C686 C 0.3745 0.61496 0.16817 0.0
C687 C 0.41025 0.61691 0.14994 0.0
C688 C 0.44104 0.62719 0.16745 0.0
C689 C 0.43549 0.63491 0.20414 0.0
C690 C 0.3998 0.63284 0.2224 0.0
H691 H 0.28215 0.66128 0.17902 0.0
H692 H 0.33334 0.6602 0.18827 0.0
H693 H 0.31198 0.64342 0.15464 0.0
H694 H 0.35099 0.60739 0.1538 0.0
H695 H 0.4134 0.61079 0.12172 0.0
H696 H 0.99345 0.33377 0.77592 0.0
H697 H 0.97061 0.31503 0.8315 0.0
H698 H 0.05603 0.2699 0.81049 0.0
H699 H 0.07853 0.28822 0.75493 0.0
H700 H 0.94577 0.27163 0.83986 0.0
H701 H 0.07766 0.29301 0.91986 0.0
H702 H 0.0619 0.30632 0.87824 0.0
H703 H 0.08628 0.28286 0.8735 0.0
C704 C 1.00693 0.3197 0.78279 0.0
C705 C 0.03823 0.31265 0.76127 0.0
C706 C 0.9939 0.30905 0.81457 0.0
C707 C 1.01202 0.29125 0.82529 0.0
C708 C 0.04206 0.28377 0.80295 0.0
H709 H 0.97324 0.19503 0.98052 0.0
H710 H 0.97123 0.21741 0.9258 0.0
C711 C 0.05503 0.29434 0.77132 0.0
C712 C 1.00136 0.28088 0.86088 0.0
H713 H 0.0385 0.2674 0.94643 0.0
C714 C 0.96575 0.27085 0.86341 0.0
C715 C 1.02733 0.28012 0.89165 0.0
C716 C 0.06533 0.29128 0.891 0.0
C717 C 0.95611 0.25938 0.89551 0.0
C718 C 0.98298 0.25783 0.92551 0.0
C719 C 1.01792 0.26852 0.92341 0.0
C720 C 0.97673 0.24457 0.95873 0.0
C721 C 0.91737 0.24902 0.89699 0.0
C722 C 0.9799 0.25236 0.99552 0.0
C723 C 0.9813 0.2396 0.02677 0.0
C724 C 0.97965 0.21876 0.02186 0.0
C725 C 0.97405 0.21102 0.98524 0.0
C726 C 0.97285 0.22382 0.95392 0.0
H727 H 0.89614 0.25642 0.87818 0.0
H728 H 0.92061 0.23337 0.88721 0.0
H729 H 0.90573 0.24875 0.92629 0.0
H730 H 0.98299 0.26832 0.99993 0.0
H731 H 0.98535 0.24599 0.05469 0.0
H732 H 0.64723 0.80951 0.52295 0.0
H733 H 0.65283 0.7887 0.46574 0.0
H734 H 0.52906 0.78847 0.45394 0.0
H735 H 0.52327 0.80936 0.51012 0.0
H736 H 0.61755 0.74975 0.45216 0.0
H737 H 0.56884 0.80648 0.34893 0.0
H738 H 0.58587 0.81298 0.39572 0.0
H739 H 0.53726 0.80407 0.38901 0.0
C740 C 0.6213 0.80512 0.50794 0.0
C741 C 0.5848 0.81099 0.52122 0.0
C742 C 0.62453 0.79319 0.47541 0.0
C743 C 0.59137 0.78726 0.45538 0.0
C744 C 0.55504 0.79311 0.46864 0.0
H745 H 0.49992 0.70473 0.30297 0.0
H746 H 0.52061 0.72678 0.35427 0.0
C747 C 0.55178 0.80487 0.50107 0.0
C748 C 0.59392 0.7745 0.42114 0.0
H749 H 0.56415 0.77213 0.32906 0.0
C750 C 0.60675 0.75475 0.42499 0.0
C751 C 0.57997 0.78108 0.38566 0.0
C752 C 0.56755 0.80238 0.37938 0.0
C753 C 0.60352 0.74108 0.39488 0.0
C754 C 0.58725 0.74737 0.3603 0.0
C755 C 0.57655 0.76738 0.35574 0.0
C756 C 0.57677 0.73297 0.33022 0.0
C757 C 0.61568 0.71972 0.40056 0.0
C758 C 0.60177 0.72905 0.29989 0.0
C759 C 0.58996 0.71641 0.27031 0.0
C760 C 0.55283 0.70774 0.27053 0.0
C761 C 0.52839 0.71142 0.30155 0.0
C762 C 0.54024 0.72391 0.33103 0.0
H763 H 0.63116 0.71757 0.42777 0.0
H764 H 0.58977 0.70987 0.40026 0.0
H765 H 0.63466 0.71497 0.3769 0.0
H766 H 0.63005 0.73602 0.29881 0.0
H767 H 0.60935 0.71397 0.24675 0.0
H768 H 0.02938 0.83719 0.03189 0.0
H769 H 1.02643 0.81441 0.08602 0.0
H770 H 0.96966 0.77005 0.01662 0.0
H771 H 0.9734 0.79262 0.96213 0.0
H772 H 0.9689 0.7951 0.12448 0.0
H773 H 0.06348 0.74016 0.05246 0.0
H774 H 0.05564 0.76489 0.03395 0.0
H775 H 1.01985 0.7456 0.02733 0.0
C776 C 1.01573 0.8227 0.02836 0.0
C777 C 1.00194 0.81658 0.99276 0.0
C778 C 1.01415 0.80967 0.05925 0.0
C779 C 0.99862 0.79036 0.05513 0.0
C780 C 0.98274 0.78467 0.02017 0.0
H781 H 1.00377 0.69155 0.21901 0.0
H782 H 0.98336 0.71305 0.16639 0.0
C783 C 0.98472 0.79759 0.98914 0.0
C784 C 1.00088 0.77596 0.08697 0.0
H785 H 0.04071 0.73152 0.11317 0.0
C786 C 0.98439 0.78114 0.12193 0.0
C787 C 1.02122 0.75776 0.08363 0.0
C788 C 0.04138 0.7518 0.04747 0.0
C789 C 0.98818 0.76874 0.15376 0.0
C790 C 1.009 0.75077 0.15048 0.0
C791 C 1.02448 0.74527 0.11536 0.0
C792 C 1.01822 0.73836 0.18383 0.0
C793 C 0.97036 0.77502 0.19083 0.0
C794 C 0.04449 0.74553 0.21083 0.0
C795 C 0.05641 0.73328 0.24049 0.0
C796 C 0.04213 0.71365 0.24379 0.0
C797 C 1.01498 0.70666 0.21726 0.0
C798 C 1.0034 0.71888 0.18724 0.0
H799 H 0.94817 0.78672 0.18681 0.0
H800 H 0.95695 0.762 0.2054 0.0
H801 H 0.99323 0.78115 0.20959 0.0
H802 H 0.05658 0.76045 0.20837 0.0
H803 H 0.077 0.73913 0.26075 0.0
H804 H 0.60155 0.33304 0.73464 0.0
H805 H 0.62161 0.31382 0.67875 0.0
H806 H 0.53134 0.27071 0.70061 0.0
H807 H 0.51148 0.28958 0.75632 0.0
H808 H 0.64235 0.27099 0.66902 0.0
H809 H 0.50979 0.29315 0.5922 0.0
H810 H 0.52676 0.30611 0.63391 0.0
H811 H 0.50116 0.28277 0.63837 0.0
C812 C 0.5864 0.31931 0.72785 0.0
C813 C 0.5545 0.31302 0.7496 0.0
C814 C 0.59783 0.30838 0.69589 0.0
C815 C 0.57753 0.29104 0.68527 0.0
C816 C 0.54695 0.28425 0.70796 0.0
H817 H 0.6085 0.19422 0.52937 0.0
H818 H 0.61238 0.21664 0.58402 0.0
C819 C 0.53552 0.29512 0.73971 0.0
C820 C 0.58658 0.28044 0.64951 0.0
H821 H 0.54636 0.26689 0.56515 0.0
C822 C 0.62163 0.27023 0.64606 0.0
C823 C 0.55972 0.27973 0.61945 0.0
C824 C 0.52238 0.29116 0.62086 0.0
C825 C 0.62981 0.25863 0.6138 0.0
C826 C 0.602 0.2571 0.58459 0.0
C827 C 0.56764 0.26796 0.58757 0.0
C828 C 0.60674 0.24378 0.55123 0.0
C829 C 0.66805 0.24813 0.6113 0.0
C830 C 0.60278 0.25154 0.51452 0.0
C831 C 0.60027 0.23875 0.48332 0.0
C832 C 0.60162 0.21792 0.48817 0.0
C833 C 0.60788 0.21021 0.52467 0.0
C834 C 0.61017 0.22303 0.55595 0.0
H835 H 0.69014 0.2555 0.62942 0.0
H836 H 0.66446 0.23251 0.62132 0.0
H837 H 0.6788 0.24774 0.58168 0.0
H838 H 0.60002 0.26749 0.51016 0.0
H839 H 0.59577 0.24513 0.4555 0.0
H840 H 0.48052 0.81266 0.74768 0.0
H841 H 0.45938 0.79073 0.79971 0.0
H842 H 0.5704 0.79769 0.85303 0.0
H843 H 0.59152 0.81969 0.80184 0.0
H844 H 0.52589 0.75347 0.82926 0.0
H845 H 0.45853 0.8084 0.92727 0.0
H846 H 0.45466 0.81073 0.8764 0.0
H847 H 0.49973 0.81595 0.89925 0.0
C848 C 0.5002 0.80974 0.77076 0.0
C849 C 0.53786 0.81778 0.77039 0.0
C850 C 0.48812 0.79717 0.80033 0.0
C851 C 0.51342 0.79264 0.83003 0.0
C852 C 0.55054 0.80103 0.83025 0.0
H853 H 0.56558 0.71706 0.01072 0.0
H854 H 0.55988 0.73779 0.95439 0.0
C855 C 0.56263 0.81348 0.80081 0.0
C856 C 0.50252 0.77832 0.86012 0.0
H857 H 0.47125 0.77618 0.95174 0.0
C858 C 0.51321 0.7583 0.85579 0.0
C859 C 0.48587 0.78471 0.89451 0.0
C860 C 0.47381 0.80611 0.89996 0.0
C861 C 0.5094 0.74466 0.88576 0.0
C862 C 0.49511 0.75135 0.92107 0.0
C863 C 0.48229 0.77111 0.92468 0.0
C864 C 0.49754 0.7387 0.95545 0.0
C865 C 0.52183 0.72335 0.87974 0.0
C866 C 0.46431 0.73265 0.97529 0.0
C867 C 0.46749 0.7208 0.00791 0.0
C868 C 0.50398 0.71515 0.02145 0.0
C869 C 0.53706 0.7214 1.00147 0.0
C870 C 0.53386 0.73307 0.96897 0.0
H871 H 0.52085 0.71916 0.84931 0.0
H872 H 0.55201 0.72166 0.88963 0.0
H873 H 0.50332 0.7128 0.89602 0.0
H874 H 0.43602 0.73699 0.96541 0.0
H875 H 0.44151 0.71629 0.02277 0.0
H876 H 0.1228 0.28798 0.54372 0.0
H877 H 0.13058 0.26581 0.48905 0.0
H878 H 0.08445 0.31145 0.4161 0.0
H879 H 0.07738 0.33371 0.47035 0.0
H880 H 0.07482 0.2512 0.44633 0.0
H881 H 0.17388 0.29361 0.35339 0.0
H882 H 0.16682 0.30008 0.40254 0.0
H883 H 0.13358 0.30862 0.36692 0.0
C884 C 0.11489 0.29336 0.51589 0.0
C885 C 0.09964 0.31261 0.51127 0.0
C886 C 0.11945 0.28071 0.48468 0.0
C887 C 0.10878 0.28706 0.44829 0.0
C888 C 0.0941 0.30641 0.44361 0.0
H889 H 1.02304 0.23888 0.24678 0.0
H890 H 0.04698 0.25843 0.30043 0.0
C891 C 0.08989 0.31911 0.47471 0.0
C892 C 0.1091 0.27288 0.41591 0.0
H893 H 0.13303 0.26892 0.32232 0.0
C894 C 0.08839 0.25486 0.4195 0.0
C895 C 0.1269 0.27758 0.38087 0.0
C896 C 0.15188 0.29594 0.37583 0.0
C897 C 0.08299 0.24206 0.38845 0.0
C898 C 0.09872 0.24742 0.35295 0.0
C899 C 0.12096 0.26492 0.34965 0.0
C900 C 0.08821 0.23628 0.31829 0.0
C901 C 0.05867 0.22343 0.39311 0.0
C902 C 0.10421 0.21755 0.31018 0.0
C903 C 0.09063 0.20635 0.27932 0.0
C904 C 0.06058 0.21368 0.25664 0.0
C905 C 0.04581 0.23277 0.26414 0.0
C906 C 0.05961 0.24399 0.29458 0.0
H907 H 0.04717 0.2218 0.42233 0.0
H908 H 0.03408 0.22371 0.37299 0.0
H909 H 0.07623 0.2101 0.38634 0.0
H910 H 0.12634 0.2114 0.32828 0.0
H911 H 0.10234 0.19165 0.2742 0.0
H912 H 0.51599 0.33379 0.03965 0.0
H913 H 0.50827 0.31116 0.09347 0.0
H914 H 0.45396 0.26748 0.02071 0.0
H915 H 0.46257 0.28993 0.96647 0.0
H916 H 0.44783 0.29302 0.12847 0.0
H917 H 0.5427 0.23602 0.0627 0.0
H918 H 0.53755 0.26075 0.04328 0.0
H919 H 0.50078 0.24211 0.03541 0.0
C920 C 0.50186 0.3195 0.03524 0.0
C921 C 0.49015 0.31355 0.99883 0.0
C922 C 0.49754 0.30655 0.06599 0.0
C923 C 0.48128 0.28745 0.061 0.0
C924 C 0.46755 0.28192 0.02506 0.0
H925 H 0.483 0.19113 0.23191 0.0
H926 H 0.46045 0.21133 0.17806 0.0
C927 C 0.47231 0.29478 0.99416 0.0
C928 C 0.48067 0.27314 0.09313 0.0
H929 H 0.51791 0.22873 0.12307 0.0
C930 C 0.46281 0.27887 0.12714 0.0
C931 C 0.50028 0.25465 0.09143 0.0
C932 C 0.52172 0.24803 0.0564 0.0
C933 C 0.465 0.26691 0.15971 0.0
C934 C 0.48551 0.24878 0.1582 0.0
C935 C 0.50189 0.24259 0.12389 0.0
C936 C 0.49472 0.23733 0.19281 0.0
C937 C 0.44625 0.27393 0.19583 0.0
C938 C 0.52114 0.24535 0.21881 0.0
C939 C 0.53428 0.23384 0.24899 0.0
C940 C 0.52106 0.21413 0.25391 0.0
C941 C 0.49333 0.20635 0.22881 0.0
C942 C 0.48058 0.21781 0.19813 0.0
H943 H 0.42399 0.28542 0.19032 0.0
H944 H 0.43273 0.26121 0.2112 0.0
H945 H 0.4686 0.28063 0.21452 0.0
H946 H 0.53276 0.26028 0.21491 0.0
H947 H 0.55545 0.24019 0.26813 0.0
H948 H 0.05995 0.6885 0.53117 0.0
H949 H 0.06177 0.71124 0.58546 0.0
H950 H 0.11582 0.75652 0.51607 0.0
H951 H 0.11311 0.73399 0.46143 0.0
H952 H 0.11806 0.73121 0.62385 0.0
H953 H 1.02094 0.78513 0.55273 0.0
H954 H 0.02997 0.76057 0.53387 0.0
H955 H 0.06472 0.78037 0.52726 0.0
C956 C 0.07275 0.7032 0.52767 0.0
C957 C 0.08606 0.70958 0.49205 0.0
C958 C 0.07368 0.7162 0.55865 0.0
C959 C 0.08811 0.73575 0.5546 0.0
C960 C 0.10355 0.74172 0.51959 0.0
H961 H 0.0844 0.8342 0.71926 0.0
H962 H 0.1039 0.81259 0.66639 0.0
C963 C 0.10217 0.72882 0.48848 0.0
C964 C 0.08527 0.75006 0.58657 0.0
H965 H 0.04418 0.79416 0.61312 0.0
C966 C 0.10208 0.74502 0.62143 0.0
C967 C 0.06423 0.76806 0.58344 0.0
C968 C 0.04361 0.77381 0.54746 0.0
C969 C 0.09807 0.7574 0.6533 0.0
C970 C 0.07676 0.77521 0.65014 0.0
C971 C 0.0608 0.78054 0.61518 0.0
C972 C 0.06779 0.78769 0.68349 0.0
C973 C 0.1162 0.7513 0.69028 0.0
C974 C 0.0411 0.78078 0.71037 0.0
C975 C 0.02969 0.79309 0.74018 0.0
C976 C 0.04493 0.81252 0.74376 0.0
C977 C 0.07244 0.81925 0.7173 0.0
C978 C 0.08351 0.80697 0.68713 0.0
H979 H 0.13795 0.73937 0.68634 0.0
H980 H 0.13022 0.76436 0.70417 0.0
H981 H 0.0934 0.74559 0.70962 0.0
H982 H 0.0284 0.766 0.70776 0.0
H983 H 1.00881 0.78745 0.76039 0.0
loop_
_geom_bond_atom_site_label_1
_geom_bond_atom_site_label_2
_geom_bond_distance
_geom_bond_site_symmetry_2
_ccdc_geom_bond_type
C0 C1 1.351 . S
C0 N3 1.368 . S
C0 H5 0.931 . S
C1 C0 1.351 . S
C1 N2 1.373 . S
C1 H29 0.930 . S
N2 C1 1.373 . S
N2 C4 1.340 1_455 S
N3 C0 1.368 . S
N3 C4 1.321 1_455 S
N3 Co6 2.135 . S
C4 N2 1.340 1_655 S
C4 N3 1.321 1_655 S
C4 H28 0.930 . S
H5 C0 0.931 . S
Co6 N3 2.135 . S
Co6 N9 2.121 . S
Co6 O14 2.055 . S
Co6 O17 2.039 1_455 S
Co6 N20 2.140 . S
C7 O8 1.227 . S
C7 O17 1.265 . S
O8 C7 1.227 . S
N9 Co6 2.121 . S
N9 C11 1.375 1_455 S
N9 C12 1.313 . S
C10 C11 1.338 . S
C10 N13 1.377 1_655 S
C10 H30 0.930 . S
C11 N9 1.375 1_655 S
C11 C10 1.338 . S
C11 H15 0.931 . S
C12 N9 1.313 . S
C12 N13 1.344 . S
C12 H16 0.930 . S
N13 C10 1.377 1_455 S
N13 C12 1.344 . S
O14 Co6 2.055 . S
O14 C18 1.253 . S
H15 C11 0.931 . S
H16 C12 0.930 . S
O17 Co6 2.039 1_655 S
O17 C7 1.265 . S
C18 O14 1.253 . S
C18 O19 1.227 . S
O19 C18 1.227 . S
N20 Co6 2.140 . S
N20 C23 1.346 1_455 S
N20 C24 1.345 . S
C21 C22 1.387 1_455 S
C21 C25 1.391 . S
C22 C21 1.387 1_655 S
C22 C23 1.369 . S
C22 H31 0.929 . S
C23 N20 1.346 1_655 S
C23 C22 1.369 . S
C23 H26 0.928 . S
C24 N20 1.345 . S
C24 C25 1.371 . S
C24 H27 0.931 . S
C25 C21 1.391 . S
C25 C24 1.371 . S
C25 H32 0.930 . S
H26 C23 0.928 . S
H27 C24 0.931 . S
H28 C4 0.930 . S
H29 C1 0.930 . S
H30 C10 0.930 . S
H31 C22 0.929 . S
H32 C25 0.930 . S
C33 C34 1.351 . S
C33 N36 1.368 . S
C33 H38 0.931 . S
C34 C33 1.351 . S
C34 N35 1.373 . S
C34 H62 0.930 . S
N35 C34 1.373 . S
N35 C37 1.340 . S
N36 C33 1.368 . S
N36 C37 1.321 . S
N36 Co39 2.135 . S
C37 N35 1.340 . S
C37 N36 1.321 . S
C37 H61 0.930 . S
H38 C33 0.931 . S
Co39 N36 2.135 . S
Co39 N42 2.121 . S
Co39 O47 2.055 . S
Co39 O50 2.039 . S
Co39 N53 2.140 . S
C40 O41 1.227 . S
C40 O50 1.265 . S
O41 C40 1.227 . S
N42 Co39 2.121 . S
N42 C44 1.375 . S
N42 C45 1.313 . S
C43 C44 1.338 . S
C43 N46 1.377 . S
C43 H63 0.930 . S
C44 N42 1.375 . S
C44 C43 1.338 . S
C44 H48 0.931 . S
C45 N42 1.313 . S
C45 N46 1.344 . S
C45 H49 0.930 . S
N46 C43 1.377 . S
N46 C45 1.344 . S
O47 Co39 2.055 . S
O47 C51 1.253 . S
H48 C44 0.931 . S
H49 C45 0.930 . S
O50 Co39 2.039 . S
O50 C40 1.265 . S
C51 O47 1.253 . S
C51 O52 1.227 . S
O52 C51 1.227 . S
N53 Co39 2.140 . S
N53 C56 1.346 . S
N53 C57 1.345 . S
C54 C55 1.387 . S
C54 C58 1.391 . S
C55 C54 1.387 . S
C55 C56 1.369 . S
C55 H64 0.929 . S
C56 N53 1.346 . S
C56 C55 1.369 . S
C56 H59 0.928 . S
C57 N53 1.345 . S
C57 C58 1.371 . S
C57 H60 0.931 . S
C58 C54 1.391 . S
C58 C57 1.371 . S
C58 H65 0.930 . S
H59 C56 0.928 . S
H60 C57 0.931 . S
H61 C37 0.930 . S
H62 C34 0.930 . S
H63 C43 0.930 . S
H64 C55 0.929 . S
H65 C58 0.930 . S
C66 C67 1.351 . S
C66 N69 1.368 . S
C66 H71 0.931 . S
C67 C66 1.351 . S
C67 N68 1.373 . S
C67 H95 0.930 . S
N68 C67 1.373 . S
N68 C70 1.340 1_455 S
N69 C66 1.368 . S
N69 C70 1.321 1_455 S
N69 Co72 2.135 . S
C70 N68 1.340 1_655 S
C70 N69 1.321 1_655 S
C70 H94 0.930 . S
H71 C66 0.931 . S
Co72 N69 2.135 . S
Co72 N75 2.121 . S
Co72 O80 2.055 . S
Co72 O83 2.039 1_455 S
Co72 N86 2.140 . S
C73 O74 1.227 . S
C73 O83 1.265 . S
O74 C73 1.227 . S
N75 Co72 2.121 . S
N75 C77 1.375 1_455 S
N75 C78 1.313 . S
C76 C77 1.338 . S
C76 N79 1.377 1_655 S
C76 H96 0.930 . S
C77 N75 1.375 1_655 S
C77 C76 1.338 . S
C77 H81 0.931 . S
C78 N75 1.313 . S
C78 N79 1.344 . S
C78 H82 0.930 . S
N79 C76 1.377 1_455 S
N79 C78 1.344 . S
O80 Co72 2.055 . S
O80 C84 1.253 . S
H81 C77 0.931 . S
H82 C78 0.930 . S
O83 Co72 2.039 1_655 S
O83 C73 1.265 . S
C84 O80 1.253 . S
C84 O85 1.227 . S
O85 C84 1.227 . S
N86 Co72 2.140 . S
N86 C89 1.346 1_455 S
N86 C90 1.345 . S
C87 C88 1.387 1_455 S
C87 C91 1.391 . S
C88 C87 1.387 1_655 S
C88 C89 1.369 . S
C88 H97 0.929 . S
C89 N86 1.346 1_655 S
C89 C88 1.369 . S
C89 H92 0.928 . S
C90 N86 1.345 . S
C90 C91 1.371 . S
C90 H93 0.931 . S
C91 C87 1.391 . S
C91 C90 1.371 . S
C91 H98 0.930 . S
H92 C89 0.928 . S
H93 C90 0.931 . S
H94 C70 0.930 . S
H95 C67 0.930 . S
H96 C76 0.930 . S
H97 C88 0.929 . S
H98 C91 0.930 . S
C99 C100 1.351 . S
C99 N102 1.368 . S
C99 H104 0.931 . S
C100 C99 1.351 . S
C100 N101 1.373 . S
C100 H128 0.930 . S
N101 C100 1.373 . S
N101 C103 1.340 . S
N102 C99 1.368 . S
N102 C103 1.321 . S
N102 Co105 2.135 . S
C103 N101 1.340 . S
C103 N102 1.321 . S
C103 H127 0.930 . S
H104 C99 0.931 . S
Co105 N102 2.135 . S
Co105 N108 2.121 . S
Co105 O113 2.055 . S
Co105 O116 2.039 . S
Co105 N119 2.140 . S
C106 O107 1.227 . S
C106 O116 1.265 . S
O107 C106 1.227 . S
N108 Co105 2.121 . S
N108 C110 1.375 . S
N108 C111 1.313 . S
C109 C110 1.338 . S
C109 N112 1.377 . S
C109 H129 0.930 . S
C110 N108 1.375 . S
C110 C109 1.338 . S
C110 H114 0.931 . S
C111 N108 1.313 . S
C111 N112 1.344 . S
C111 H115 0.930 . S
N112 C109 1.377 . S
N112 C111 1.344 . S
O113 Co105 2.055 . S
O113 C117 1.253 . S
H114 C110 0.931 . S
H115 C111 0.930 . S
O116 Co105 2.039 . S
O116 C106 1.265 . S
C117 O113 1.253 . S
C117 O118 1.227 . S
O118 C117 1.227 . S
N119 Co105 2.140 . S
N119 C122 1.346 . S
N119 C123 1.345 . S
C120 C121 1.387 . S
C120 C124 1.391 . S
C121 C120 1.387 . S
C121 C122 1.369 . S
C121 H130 0.929 . S
C122 N119 1.346 . S
C122 C121 1.369 . S
C122 H125 0.928 . S
C123 N119 1.345 . S
C123 C124 1.371 . S
C123 H126 0.931 . S
C124 C120 1.391 . S
C124 C123 1.371 . S
C124 H131 0.930 . S
H125 C122 0.928 . S
H126 C123 0.931 . S
H127 C103 0.930 . S
H128 C100 0.930 . S
H129 C109 0.930 . S
H130 C121 0.929 . S
H131 C124 0.930 . S
C132 C133 1.351 . S
C132 N135 1.368 . S
C132 H137 0.931 . S
C133 C132 1.351 . S
C133 N134 1.373 . S
C133 H161 0.930 . S
N134 C133 1.373 . S
N134 C136 1.340 . S
N135 C132 1.368 . S
N135 C136 1.321 . S
N135 Co138 2.135 . S
C136 N134 1.340 . S
C136 N135 1.321 . S
C136 H160 0.930 . S
H137 C132 0.931 . S
Co138 N135 2.135 . S
Co138 N141 2.121 . S
Co138 O146 2.055 . S
Co138 O149 2.039 . S
Co138 N152 2.140 . S
C139 O140 1.227 . S
C139 O149 1.265 . S
O140 C139 1.227 . S
N141 Co138 2.121 . S
N141 C143 1.375 . S
N141 C144 1.313 . S
C142 C143 1.338 . S
C142 N145 1.377 . S
C142 H162 0.930 . S
C143 N141 1.375 . S
C143 C142 1.338 . S
C143 H147 0.931 . S
C144 N141 1.313 . S
C144 N145 1.344 . S
C144 H148 0.930 . S
N145 C142 1.377 . S
N145 C144 1.344 . S
O146 Co138 2.055 . S
O146 C150 1.253 . S
H147 C143 0.931 . S
H148 C144 0.930 . S
O149 Co138 2.039 . S
O149 C139 1.265 . S
C150 O146 1.253 . S
C150 O151 1.227 . S
O151 C150 1.227 . S
N152 Co138 2.140 . S
N152 C155 1.346 . S
N152 C156 1.345 . S
C153 C154 1.387 . S
C153 C157 1.391 . S
C154 C153 1.387 . S
C154 C155 1.369 . S
C154 H163 0.929 . S
C155 N152 1.346 . S
C155 C154 1.369 . S
C155 H158 0.928 . S
C156 N152 1.345 . S
C156 C157 1.371 . S
C156 H159 0.931 . S
C157 C153 1.391 . S
C157 C156 1.371 . S
C157 H164 0.930 . S
H158 C155 0.928 . S
H159 C156 0.931 . S
H160 C136 0.930 . S
H161 C133 0.930 . S
H162 C142 0.930 . S
H163 C154 0.929 . S
H164 C157 0.930 . S
C165 C166 1.351 . S
C165 N168 1.368 1_655 S
C165 H170 0.931 . S
C166 C165 1.351 . S
C166 N167 1.373 1_655 S
C166 H194 0.930 . S
N167 C166 1.373 1_455 S
N167 C169 1.340 . S
N168 C165 1.368 1_455 S
N168 C169 1.321 . S
N168 Co171 2.135 . S
C169 N167 1.340 . S
C169 N168 1.321 . S
C169 H193 0.930 . S
H170 C165 0.931 . S
Co171 N168 2.135 . S
Co171 N174 2.121 . S
Co171 O179 2.055 1_455 S
Co171 O182 2.039 . S
Co171 N185 2.140 . S
C172 O173 1.227 . S
C172 O182 1.265 . S
O173 C172 1.227 . S
N174 Co171 2.121 . S
N174 C176 1.375 . S
N174 C177 1.313 . S
C175 C176 1.338 . S
C175 N178 1.377 . S
C175 H195 0.930 . S
C176 N174 1.375 . S
C176 C175 1.338 . S
C176 H180 0.931 . S
C177 N174 1.313 . S
C177 N178 1.344 . S
C177 H181 0.930 1_455 S
N178 C175 1.377 . S
N178 C177 1.344 . S
O179 Co171 2.055 1_655 S
O179 C183 1.253 . S
H180 C176 0.931 . S
H181 C177 0.930 1_655 S
O182 Co171 2.039 . S
O182 C172 1.265 . S
C183 O179 1.253 . S
C183 O184 1.227 . S
O184 C183 1.227 . S
N185 Co171 2.140 . S
N185 C188 1.346 . S
N185 C189 1.345 . S
C186 C187 1.387 . S
C186 C190 1.391 . S
C187 C186 1.387 . S
C187 C188 1.369 . S
C187 H196 0.929 . S
C188 N185 1.346 . S
C188 C187 1.369 . S
C188 H191 0.928 . S
C189 N185 1.345 . S
C189 C190 1.371 . S
C189 H192 0.931 1_455 S
C190 C186 1.391 . S
C190 C189 1.371 . S
C190 H197 0.930 1_455 S
H191 C188 0.928 . S
H192 C189 0.931 1_655 S
H193 C169 0.930 . S
H194 C166 0.930 . S
H195 C175 0.930 . S
H196 C187 0.929 . S
H197 C190 0.930 1_655 S
C198 C199 1.351 . S
C198 N201 1.368 . S
C198 H203 0.931 . S
C199 C198 1.351 . S
C199 N200 1.373 . S
C199 H227 0.930 . S
N200 C199 1.373 . S
N200 C202 1.340 . S
N201 C198 1.368 . S
N201 C202 1.321 . S
N201 Co204 2.135 . S
C202 N200 1.340 . S
C202 N201 1.321 . S
C202 H226 0.930 . S
H203 C198 0.931 . S
Co204 N201 2.135 . S
Co204 N207 2.121 . S
Co204 O212 2.055 . S
Co204 O215 2.039 . S
Co204 N218 2.140 . S
C205 O206 1.227 . S
C205 O215 1.265 . S
O206 C205 1.227 . S
N207 Co204 2.121 . S
N207 C209 1.375 . S
N207 C210 1.313 . S
C208 C209 1.338 . S
C208 N211 1.377 . S
C208 H228 0.930 . S
C209 N207 1.375 . S
C209 C208 1.338 . S
C209 H213 0.931 . S
C210 N207 1.313 . S
C210 N211 1.344 . S
C210 H214 0.930 . S
N211 C208 1.377 . S
N211 C210 1.344 . S
O212 Co204 2.055 . S
O212 C216 1.253 . S
H213 C209 0.931 . S
H214 C210 0.930 . S
O215 Co204 2.039 . S
O215 C205 1.265 . S
C216 O212 1.253 . S
C216 O217 1.227 . S
O217 C216 1.227 . S
N218 Co204 2.140 . S
N218 C221 1.346 . S
N218 C222 1.345 . S
C219 C220 1.387 . S
C219 C223 1.391 . S
C220 C219 1.387 . S
C220 C221 1.369 . S
C220 H229 0.929 . S
C221 N218 1.346 . S
C221 C220 1.369 . S
C221 H224 0.928 . S
C222 N218 1.345 . S
C222 C223 1.371 . S
C222 H225 0.931 . S
C223 C219 1.391 . S
C223 C222 1.371 . S
C223 H230 0.930 . S
H224 C221 0.928 . S
H225 C222 0.931 . S
H226 C202 0.930 . S
H227 C199 0.930 . S
H228 C208 0.930 . S
H229 C220 0.929 . S
H230 C223 0.930 . S
C231 C232 1.351 . S
C231 N234 1.368 1_655 S
C231 H236 0.931 . S
C232 C231 1.351 . S
C232 N233 1.373 1_655 S
C232 H260 0.930 . S
N233 C232 1.373 1_455 S
N233 C235 1.340 . S
N234 C231 1.368 1_455 S
N234 C235 1.321 . S
N234 Co237 2.135 . S
C235 N233 1.340 . S
C235 N234 1.321 . S
C235 H259 0.930 . S
H236 C231 0.931 . S
Co237 N234 2.135 . S
Co237 N240 2.121 . S
Co237 O245 2.055 1_455 S
Co237 O248 2.039 . S
Co237 N251 2.140 . S
C238 O239 1.227 . S
C238 O248 1.265 . S
O239 C238 1.227 . S
N240 Co237 2.121 . S
N240 C242 1.375 . S
N240 C243 1.313 . S
C241 C242 1.338 . S
C241 N244 1.377 . S
C241 H261 0.930 . S
C242 N240 1.375 . S
C242 C241 1.338 . S
C242 H246 0.931 . S
C243 N240 1.313 . S
C243 N244 1.344 . S
C243 H247 0.930 1_455 S
N244 C241 1.377 . S
N244 C243 1.344 . S
O245 Co237 2.055 1_655 S
O245 C249 1.253 . S
H246 C242 0.931 . S
H247 C243 0.930 1_655 S
O248 Co237 2.039 . S
O248 C238 1.265 . S
C249 O245 1.253 . S
C249 O250 1.227 . S
O250 C249 1.227 . S
N251 Co237 2.140 . S
N251 C254 1.346 . S
N251 C255 1.345 . S
C252 C253 1.387 . S
C252 C256 1.391 . S
C253 C252 1.387 . S
C253 C254 1.369 . S
C253 H262 0.929 . S
C254 N251 1.346 . S
C254 C253 1.369 . S
C254 H257 0.928 . S
C255 N251 1.345 . S
C255 C256 1.371 . S
C255 H258 0.931 1_455 S
C256 C252 1.391 . S
C256 C255 1.371 . S
C256 H263 0.930 1_455 S
H257 C254 0.928 . S
H258 C255 0.931 1_655 S
H259 C235 0.930 . S
H260 C232 0.930 . S
H261 C241 0.930 . S
H262 C253 0.929 . S
H263 C256 0.930 1_655 S
H264 C272 0.929 . S
H265 C274 0.930 . S
H266 C276 0.930 . S
H267 C279 0.929 . S
H268 C282 0.930 . S
H269 C284 0.960 . S
H270 C284 0.960 . S
H271 C284 0.960 . S
C272 H264 0.929 . S
C272 C273 1.377 . S
C272 C274 1.384 . S
C273 C272 1.377 . S
C273 C279 1.390 1_455 S
C274 H265 0.930 . S
C274 C272 1.384 . S
C274 C275 1.372 . S
C275 C274 1.372 . S
C275 C276 1.400 1_455 S
C275 C280 1.490 . S
C276 H266 0.930 . S
C276 C275 1.400 1_655 S
C276 C279 1.386 . S
H277 C293 0.930 . S
H278 C294 0.931 . S
C279 H267 0.929 . S
C279 C273 1.390 1_655 S
C279 C276 1.386 . S
C280 C275 1.490 . S
C280 C282 1.395 1_455 S
C280 C283 1.403 1_556 S
H281 C287 0.930 . S
C282 H268 0.930 . S
C282 C280 1.395 1_655 S
C282 C285 1.403 1_565 S
C283 C280 1.403 1_554 S
C283 C284 1.524 . S
C283 C287 1.400 1_565 S
C284 H269 0.960 . S
C284 H270 0.960 . S
C284 H271 0.960 . S
C284 C283 1.524 . S
C285 C282 1.403 1_545 S
C285 C286 1.392 1_656 S
C285 C289 1.495 . S
C286 C285 1.392 1_454 S
C286 C287 1.385 . S
C286 C288 1.477 1_455 S
C287 H281 0.930 . S
C287 C283 1.400 1_545 S
C287 C286 1.385 . S
C288 C286 1.477 1_655 S
C288 C290 1.362 1_655 S
C288 C294 1.402 . S
C289 C285 1.495 . S
C289 H295 0.959 . S
C289 H296 0.961 . S
C289 H297 0.960 1_655 S
C290 C288 1.362 1_455 S
C290 C291 1.394 . S
C290 H298 0.930 . S
C291 C290 1.394 . S
C291 C292 1.385 1_455 S
C291 H299 0.929 . S
C292 C291 1.385 1_655 S
C292 C293 1.375 . S
C293 H277 0.930 . S
C293 C292 1.375 . S
C293 C294 1.379 . S
C294 H278 0.931 . S
C294 C288 1.402 . S
C294 C293 1.379 . S
H295 C289 0.959 . S
H296 C289 0.961 . S
H297 C289 0.960 1_455 S
H298 C290 0.930 . S
H299 C291 0.929 . S
H300 C308 0.929 . S
H301 C310 0.930 . S
H302 C312 0.930 . S
H303 C315 0.929 . S
H304 C318 0.930 . S
H305 C320 0.960 . S
H306 C320 0.960 . S
H307 C320 0.960 . S
C308 H300 0.929 . S
C308 C309 1.377 . S
C308 C310 1.384 . S
C309 C308 1.377 . S
C309 C315 1.390 . S
C310 H301 0.930 . S
C310 C308 1.384 . S
C310 C311 1.372 . S
C311 C310 1.372 . S
C311 C312 1.400 . S
C311 C316 1.490 . S
C312 H302 0.930 . S
C312 C311 1.400 . S
C312 C315 1.386 . S
H313 C329 0.930 . S
H314 C330 0.931 . S
C315 H303 0.929 . S
C315 C309 1.390 . S
C315 C312 1.386 . S
C316 C311 1.490 . S
C316 C318 1.395 . S
C316 C319 1.403 . S
H317 C323 0.930 . S
C318 H304 0.930 . S
C318 C316 1.395 . S
C318 C321 1.403 1_545 S
C319 C316 1.403 . S
C319 C320 1.524 . S
C319 C323 1.400 1_545 S
C320 H305 0.960 . S
C320 H306 0.960 . S
C320 H307 0.960 . S
C320 C319 1.524 . S
C321 C318 1.403 1_565 S
C321 C322 1.392 . S
C321 C325 1.495 . S
C322 C321 1.392 . S
C322 C323 1.385 . S
C322 C324 1.478 . S
C323 H317 0.930 . S
C323 C319 1.400 1_565 S
C323 C322 1.385 . S
C324 C322 1.478 . S
C324 C326 1.381 . S
C324 C330 1.383 . S
C325 C321 1.495 . S
C325 H331 0.959 . S
C325 H332 0.961 . S
C325 H333 0.960 . S
C326 C324 1.381 . S
C326 C327 1.394 . S
C326 H334 0.930 . S
C327 C326 1.394 . S
C327 C328 1.383 . S
C327 H335 0.929 . S
C328 C327 1.383 . S
C328 C329 1.377 . S
C329 H313 0.930 . S
C329 C328 1.377 . S
C329 C330 1.379 . S
C330 H314 0.931 . S
C330 C324 1.383 . S
C330 C329 1.379 . S
H331 C325 0.959 . S
H332 C325 0.961 . S
H333 C325 0.960 . S
H334 C326 0.930 . S
H335 C327 0.929 . S
H336 C344 0.929 . S
H337 C346 0.930 . S
H338 C348 0.930 1_556 S
H339 C351 0.929 . S
H340 C354 0.930 . S
H341 C356 0.960 . S
H342 C356 0.960 1_554 S
H343 C356 0.960 . S
C344 H336 0.929 . S
C344 C345 1.377 . S
C344 C346 1.384 . S
C345 C344 1.377 . S
C345 C351 1.390 . S
C346 H337 0.930 . S
C346 C344 1.384 . S
C346 C347 1.372 . S
C347 C346 1.372 . S
C347 C348 1.400 . S
C347 C352 1.490 . S
C348 H338 0.930 1_554 S
C348 C347 1.400 . S
C348 C351 1.386 . S
H349 C365 0.930 . S
H350 C366 0.931 . S
C351 H339 0.929 . S
C351 C345 1.390 . S
C351 C348 1.386 . S
C352 C347 1.490 . S
C352 C354 1.395 . S
C352 C355 1.403 1_554 S
H353 C359 0.930 . S
C354 H340 0.930 . S
C354 C352 1.395 . S
C354 C357 1.403 . S
C355 C352 1.403 1_556 S
C355 C356 1.524 . S
C355 C359 1.400 . S
C356 H341 0.960 . S
C356 H342 0.960 1_556 S
C356 H343 0.960 . S
C356 C355 1.524 . S
C357 C354 1.403 . S
C357 C358 1.392 1_554 S
C357 C361 1.495 . S
C358 C357 1.392 1_556 S
C358 C359 1.385 . S
C358 C360 1.478 . S
C359 H353 0.930 . S
C359 C355 1.400 . S
C359 C358 1.385 . S
C360 C358 1.478 . S
C360 C362 1.381 . S
C360 C366 1.383 . S
C361 C357 1.495 . S
C361 H367 0.959 . S
C361 H368 0.948 1_554 S
C361 H369 0.960 . S
C362 C360 1.381 . S
C362 C363 1.394 . S
C362 H370 0.930 1_556 S
C363 C362 1.394 . S
C363 C364 1.383 . S
C363 H371 0.929 . S
C364 C363 1.383 . S
C364 C365 1.377 . S
C365 H349 0.930 . S
C365 C364 1.377 . S
C365 C366 1.379 . S
C366 H350 0.931 . S
C366 C360 1.383 . S
C366 C365 1.379 . S
H367 C361 0.959 . S
H368 C361 0.948 1_556 S
H369 C361 0.960 . S
H370 C362 0.930 1_554 S
H371 C363 0.929 . S
H372 C380 0.929 1_655 S
H373 C382 0.930 1_655 S
H374 C384 0.930 . S
H375 C387 0.929 . S
H376 C390 0.930 . S
H377 C392 0.960 . S
H378 C392 0.960 . S
H379 C392 0.960 . S
C380 H372 0.929 1_455 S
C380 C381 1.377 . S
C380 C382 1.384 . S
C381 C380 1.377 . S
C381 C387 1.390 . S
C382 H373 0.930 1_455 S
C382 C380 1.384 . S
C382 C383 1.372 . S
C383 C382 1.372 . S
C383 C384 1.400 . S
C383 C388 1.490 . S
C384 H374 0.930 . S
C384 C383 1.400 . S
C384 C387 1.386 . S
H385 C401 0.930 . S
H386 C402 0.931 . S
C387 H375 0.929 . S
C387 C381 1.390 . S
C387 C384 1.386 . S
C388 C383 1.490 . S
C388 C390 1.395 . S
C388 C391 1.403 . S
H389 C395 0.930 . S
C390 H376 0.930 . S
C390 C388 1.395 . S
C390 C393 1.403 . S
C391 C388 1.403 . S
C391 C392 1.524 . S
C391 C395 1.400 . S
C392 H377 0.960 . S
C392 H378 0.960 . S
C392 H379 0.960 . S
C392 C391 1.524 . S
C393 C390 1.403 . S
C393 C394 1.392 . S
C393 C397 1.495 . S
C394 C393 1.392 . S
C394 C395 1.385 . S
C394 C396 1.478 . S
C395 H389 0.930 . S
C395 C391 1.400 . S
C395 C394 1.385 . S
C396 C394 1.478 . S
C396 C398 1.381 . S
C396 C402 1.383 . S
C397 C393 1.495 . S
C397 H403 0.959 . S
C397 H404 0.961 . S
C397 H405 0.960 . S
C398 C396 1.381 . S
C398 C399 1.394 . S
C398 H406 0.930 1_455 S
C399 C398 1.394 . S
C399 C400 1.383 . S
C399 H407 0.929 1_455 S
C400 C399 1.383 . S
C400 C401 1.377 . S
C401 H385 0.930 . S
C401 C400 1.377 . S
C401 C402 1.379 . S
C402 H386 0.931 . S
C402 C396 1.383 . S
C402 C401 1.379 . S
H403 C397 0.959 . S
H404 C397 0.961 . S
H405 C397 0.960 . S
H406 C398 0.930 1_655 S
H407 C399 0.929 1_655 S
H408 C416 0.929 . S
H409 C418 0.930 . S
H410 C420 0.930 . S
H411 C423 0.929 . S
H412 C426 0.930 . S
H413 C428 0.960 . S
H414 C428 0.960 . S
H415 C428 0.960 . S
C416 H408 0.929 . S
C416 C417 1.377 . S
C416 C418 1.384 . S
C417 C416 1.377 . S
C417 C423 1.390 . S
C418 H409 0.930 . S
C418 C416 1.384 . S
C418 C419 1.372 . S
C419 C418 1.372 . S
C419 C420 1.400 . S
C419 C424 1.490 . S
C420 H410 0.930 . S
C420 C419 1.400 . S
C420 C423 1.386 . S
H421 C437 0.930 . S
H422 C438 0.931 . S
C423 H411 0.929 . S
C423 C417 1.390 . S
C423 C420 1.386 . S
C424 C419 1.490 . S
C424 C426 1.395 . S
C424 C427 1.403 . S
H425 C431 0.930 . S
C426 H412 0.930 . S
C426 C424 1.395 . S
C426 C429 1.403 . S
C427 C424 1.403 . S
C427 C428 1.524 . S
C427 C431 1.400 . S
C428 H413 0.960 . S
C428 H414 0.960 . S
C428 H415 0.960 . S
C428 C427 1.524 . S
C429 C426 1.403 . S
C429 C430 1.392 . S
C429 C433 1.495 . S
C430 C429 1.392 . S
C430 C431 1.385 . S
C430 C432 1.478 . S
C431 H425 0.930 . S
C431 C427 1.400 . S
C431 C430 1.385 . S
C432 C430 1.478 . S
C432 C434 1.381 . S
C432 C438 1.383 . S
C433 C429 1.495 . S
C433 H439 0.959 . S
C433 H440 0.961 . S
C433 H441 0.960 . S
C434 C432 1.381 . S
C434 C435 1.394 . S
C434 H442 0.930 . S
C435 C434 1.394 . S
C435 C436 1.383 . S
C435 H443 0.929 . S
C436 C435 1.383 . S
C436 C437 1.377 . S
C437 H421 0.930 . S
C437 C436 1.377 . S
C437 C438 1.379 . S
C438 H422 0.931 . S
C438 C432 1.383 . S
C438 C437 1.379 . S
H439 C433 0.959 . S
H440 C433 0.961 . S
H441 C433 0.960 . S
H442 C434 0.930 . S
H443 C435 0.929 . S
H444 C452 0.929 . S
H445 C454 0.930 . S
H446 C456 0.930 . S
H447 C459 0.929 . S
H448 C462 0.930 . S
H449 C464 0.960 . S
H450 C464 0.960 . S
H451 C464 0.960 . S
C452 H444 0.929 . S
C452 C453 1.377 . S
C452 C454 1.384 . S
C453 C452 1.377 . S
C453 C459 1.390 . S
C454 H445 0.930 . S
C454 C452 1.384 . S
C454 C455 1.372 . S
C455 C454 1.372 . S
C455 C456 1.400 . S
C455 C460 1.490 . S
C456 H446 0.930 . S
C456 C455 1.400 . S
C456 C459 1.386 . S
H457 C473 0.930 . S
H458 C474 0.931 . S
C459 H447 0.929 . S
C459 C453 1.390 . S
C459 C456 1.386 . S
C460 C455 1.490 . S
C460 C462 1.395 . S
C460 C463 1.403 . S
H461 C467 0.930 . S
C462 H448 0.930 . S
C462 C460 1.395 . S
C462 C465 1.403 . S
C463 C460 1.403 . S
C463 C464 1.524 . S
C463 C467 1.400 . S
C464 H449 0.960 . S
C464 H450 0.960 . S
C464 H451 0.960 . S
C464 C463 1.524 . S
C465 C462 1.403 . S
C465 C466 1.392 . S
C465 C469 1.495 . S
C466 C465 1.392 . S
C466 C467 1.385 . S
C466 C468 1.478 . S
C467 H461 0.930 . S
C467 C463 1.400 . S
C467 C466 1.385 . S
C468 C466 1.478 . S
C468 C470 1.381 . S
C468 C474 1.383 . S
C469 C465 1.495 . S
C469 H475 0.959 . S
C469 H476 0.961 . S
C469 H477 0.960 . S
C470 C468 1.381 . S
C470 C471 1.394 . S
C470 H478 0.930 . S
C471 C470 1.394 . S
C471 C472 1.383 . S
C471 H479 0.929 . S
C472 C471 1.383 . S
C472 C473 1.377 . S
C473 H457 0.930 . S
C473 C472 1.377 . S
C473 C474 1.379 . S
C474 H458 0.931 . S
C474 C468 1.383 . S
C474 C473 1.379 . S
H475 C469 0.959 . S
H476 C469 0.961 . S
H477 C469 0.960 . S
H478 C470 0.930 . S
H479 C471 0.929 . S
H480 C488 0.929 . S
H481 C490 0.930 . S
H482 C492 0.930 . S
H483 C495 0.929 . S
H484 C498 0.930 . S
H485 C500 0.960 . S
H486 C500 0.960 . S
H487 C500 0.960 . S
C488 H480 0.929 . S
C488 C489 1.377 . S
C488 C490 1.384 . S
C489 C488 1.377 . S
C489 C495 1.390 . S
C490 H481 0.930 . S
C490 C488 1.384 . S
C490 C491 1.372 . S
C491 C490 1.372 . S
C491 C492 1.400 . S
C491 C496 1.490 . S
C492 H482 0.930 . S
C492 C491 1.400 . S
C492 C495 1.386 . S
H493 C509 0.930 . S
H494 C510 0.931 . S
C495 H483 0.929 . S
C495 C489 1.390 . S
C495 C492 1.386 . S
C496 C491 1.490 . S
C496 C498 1.395 . S
C496 C499 1.403 . S
H497 C503 0.930 . S
C498 H484 0.930 . S
C498 C496 1.395 . S
C498 C501 1.403 . S
C499 C496 1.403 . S
C499 C500 1.524 . S
C499 C503 1.400 . S
C500 H485 0.960 . S
C500 H486 0.960 . S
C500 H487 0.960 . S
C500 C499 1.524 . S
C501 C498 1.403 . S
C501 C502 1.392 . S
C501 C505 1.495 . S
C502 C501 1.392 . S
C502 C503 1.385 . S
C502 C504 1.478 . S
C503 H497 0.930 . S
C503 C499 1.400 . S
C503 C502 1.385 . S
C504 C502 1.478 . S
C504 C506 1.381 . S
C504 C510 1.383 . S
C505 C501 1.495 . S
C505 H511 0.959 . S
C505 H512 0.961 . S
C505 H513 0.960 . S
C506 C504 1.381 . S
C506 C507 1.394 . S
C506 H514 0.930 . S
C507 C506 1.394 . S
C507 C508 1.383 . S
C507 H515 0.929 . S
C508 C507 1.383 . S
C508 C509 1.377 . S
C509 H493 0.930 . S
C509 C508 1.377 . S
C509 C510 1.379 . S
C510 H494 0.931 . S
C510 C504 1.383 . S
C510 C509 1.379 . S
H511 C505 0.959 . S
H512 C505 0.961 . S
H513 C505 0.960 . S
H514 C506 0.930 . S
H515 C507 0.929 . S
H516 C524 0.929 . S
H517 C526 0.930 . S
H518 C528 0.930 . S
H519 C531 0.929 . S
H520 C534 0.930 . S
H521 C536 0.960 . S
H522 C536 0.960 . S
H523 C536 0.960 . S
C524 H516 0.929 . S
C524 C525 1.377 . S
C524 C526 1.384 . S
C525 C524 1.377 . S
C525 C531 1.390 . S
C526 H517 0.930 . S
C526 C524 1.384 . S
C526 C527 1.372 . S
C527 C526 1.372 . S
C527 C528 1.400 . S
C527 C532 1.490 . S
C528 H518 0.930 . S
C528 C527 1.400 . S
C528 C531 1.386 . S
H529 C545 0.930 . S
H530 C546 0.931 . S
C531 H519 0.929 . S
C531 C525 1.390 . S
C531 C528 1.386 . S
C532 C527 1.490 . S
C532 C534 1.395 . S
C532 C535 1.403 . S
H533 C539 0.930 . S
C534 H520 0.930 . S
C534 C532 1.395 . S
C534 C537 1.403 . S
C535 C532 1.403 . S
C535 C536 1.524 . S
C535 C539 1.400 . S
C536 H521 0.960 . S
C536 H522 0.960 . S
C536 H523 0.960 . S
C536 C535 1.524 . S
C537 C534 1.403 . S
C537 C538 1.392 . S
C537 C541 1.495 . S
C538 C537 1.392 . S
C538 C539 1.385 . S
C538 C540 1.478 . S
C539 H533 0.930 . S
C539 C535 1.400 . S
C539 C538 1.385 . S
C540 C538 1.478 . S
C540 C542 1.381 . S
C540 C546 1.383 . S
C541 C537 1.495 . S
C541 H547 0.959 . S
C541 H548 0.961 . S
C541 H549 0.960 . S
C542 C540 1.381 . S
C542 C543 1.394 . S
C542 H550 0.930 . S
C543 C542 1.394 . S
C543 C544 1.383 . S
C543 H551 0.929 . S
C544 C543 1.383 . S
C544 C545 1.377 . S
C545 H529 0.930 . S
C545 C544 1.377 . S
C545 C546 1.379 . S
C546 H530 0.931 . S
C546 C540 1.383 . S
C546 C545 1.379 . S
H547 C541 0.959 . S
H548 C541 0.961 . S
H549 C541 0.960 . S
H550 C542 0.930 . S
H551 C543 0.929 . S
H552 C560 0.929 . S
H553 C562 0.930 . S
H554 C564 0.930 . S
H555 C567 0.929 . S
H556 C570 0.930 . S
H557 C572 0.960 . S
H558 C572 0.960 . S
H559 C572 0.960 . S
C560 H552 0.929 . S
C560 C561 1.377 . S
C560 C562 1.384 . S
C561 C560 1.377 . S
C561 C567 1.390 . S
C562 H553 0.930 . S
C562 C560 1.384 . S
C562 C563 1.372 . S
C563 C562 1.372 . S
C563 C564 1.400 . S
C563 C568 1.490 . S
C564 H554 0.930 . S
C564 C563 1.400 . S
C564 C567 1.386 . S
H565 C581 0.930 . S
H566 C582 0.931 . S
C567 H555 0.929 . S
C567 C561 1.390 . S
C567 C564 1.386 . S
C568 C563 1.490 . S
C568 C570 1.395 . S
C568 C571 1.403 . S
H569 C575 0.930 . S
C570 H556 0.930 . S
C570 C568 1.395 . S
C570 C573 1.403 . S
C571 C568 1.403 . S
C571 C572 1.524 . S
C571 C575 1.400 . S
C572 H557 0.960 . S
C572 H558 0.960 . S
C572 H559 0.960 . S
C572 C571 1.524 . S
C573 C570 1.403 . S
C573 C574 1.392 . S
C573 C577 1.495 . S
C574 C573 1.392 . S
C574 C575 1.385 . S
C574 C576 1.478 . S
C575 H569 0.930 . S
C575 C571 1.400 . S
C575 C574 1.385 . S
C576 C574 1.478 . S
C576 C578 1.381 . S
C576 C582 1.383 . S
C577 C573 1.495 . S
C577 H583 0.959 . S
C577 H584 0.961 . S
C577 H585 0.960 . S
C578 C576 1.381 . S
C578 C579 1.394 . S
C578 H586 0.930 . S
C579 C578 1.394 . S
C579 C580 1.383 . S
C579 H587 0.929 . S
C580 C579 1.383 . S
C580 C581 1.377 . S
C581 H565 0.930 . S
C581 C580 1.377 . S
C581 C582 1.379 . S
C582 H566 0.931 . S
C582 C576 1.383 . S
C582 C581 1.379 . S
H583 C577 0.959 . S
H584 C577 0.961 . S
H585 C577 0.960 . S
H586 C578 0.930 . S
H587 C579 0.929 . S
H588 C596 0.929 . S
H589 C598 0.930 . S
H590 C600 0.930 . S
H591 C603 0.929 . S
H592 C606 0.930 . S
H593 C608 0.960 . S
H594 C608 0.960 . S
H595 C608 0.960 . S
C596 H588 0.929 . S
C596 C597 1.377 . S
C596 C598 1.384 . S
C597 C596 1.377 . S
C597 C603 1.390 . S
C598 H589 0.930 . S
C598 C596 1.384 . S
C598 C599 1.372 . S
C599 C598 1.372 . S
C599 C600 1.400 . S
C599 C604 1.490 . S
C600 H590 0.930 . S
C600 C599 1.400 . S
C600 C603 1.386 . S
H601 C617 0.930 . S
H602 C618 0.931 . S
C603 H591 0.929 . S
C603 C597 1.390 . S
C603 C600 1.386 . S
C604 C599 1.490 . S
C604 C606 1.395 . S
C604 C607 1.403 . S
H605 C611 0.930 . S
C606 H592 0.930 . S
C606 C604 1.395 . S
C606 C609 1.403 . S
C607 C604 1.403 . S
C607 C608 1.524 . S
C607 C611 1.400 . S
C608 H593 0.960 . S
C608 H594 0.960 . S
C608 H595 0.960 . S
C608 C607 1.524 . S
C609 C606 1.403 . S
C609 C610 1.392 . S
C609 C613 1.495 . S
C610 C609 1.392 . S
C610 C611 1.385 . S
C610 C612 1.478 . S
C611 H605 0.930 . S
C611 C607 1.400 . S
C611 C610 1.385 . S
C612 C610 1.478 . S
C612 C614 1.381 . S
C612 C618 1.383 . S
C613 C609 1.495 . S
C613 H619 0.959 . S
C613 H620 0.961 . S
C613 H621 0.960 . S
C614 C612 1.381 . S
C614 C615 1.394 . S
C614 H622 0.930 . S
C615 C614 1.394 . S
C615 C616 1.383 . S
C615 H623 0.929 . S
C616 C615 1.383 . S
C616 C617 1.377 . S
C617 H601 0.930 . S
C617 C616 1.377 . S
C617 C618 1.379 . S
C618 H602 0.931 . S
C618 C612 1.383 . S
C618 C617 1.379 . S
H619 C613 0.959 . S
H620 C613 0.961 . S
H621 C613 0.960 . S
H622 C614 0.930 . S
H623 C615 0.929 . S
H624 C632 0.929 . S
H625 C634 0.930 . S
H626 C636 0.930 . S
H627 C639 0.929 . S
H628 C642 0.930 . S
H629 C644 0.960 . S
H630 C644 0.960 . S
H631 C644 0.960 . S
C632 H624 0.929 . S
C632 C633 1.377 . S
C632 C634 1.384 . S
C633 C632 1.377 . S
C633 C639 1.390 . S
C634 H625 0.930 . S
C634 C632 1.384 . S
C634 C635 1.372 . S
C635 C634 1.372 . S
C635 C636 1.400 . S
C635 C640 1.490 . S
C636 H626 0.930 . S
C636 C635 1.400 . S
C636 C639 1.386 . S
H637 C653 0.930 . S
H638 C654 0.931 . S
C639 H627 0.929 . S
C639 C633 1.390 . S
C639 C636 1.386 . S
C640 C635 1.490 . S
C640 C642 1.395 . S
C640 C643 1.403 . S
H641 C647 0.930 . S
C642 H628 0.930 . S
C642 C640 1.395 . S
C642 C645 1.403 . S
C643 C640 1.403 . S
C643 C644 1.524 . S
C643 C647 1.400 . S
C644 H629 0.960 . S
C644 H630 0.960 . S
C644 H631 0.960 . S
C644 C643 1.524 . S
C645 C642 1.403 . S
C645 C646 1.392 . S
C645 C649 1.495 . S
C646 C645 1.392 . S
C646 C647 1.385 . S
C646 C648 1.478 . S
C647 H641 0.930 . S
C647 C643 1.400 . S
C647 C646 1.385 . S
C648 C646 1.478 . S
C648 C650 1.381 . S
C648 C654 1.383 . S
C649 C645 1.495 . S
C649 H655 0.959 . S
C649 H656 0.961 . S
C649 H657 0.960 . S
C650 C648 1.381 . S
C650 C651 1.394 . S
C650 H658 0.930 . S
C651 C650 1.394 . S
C651 C652 1.383 . S
C651 H659 0.929 . S
C652 C651 1.383 . S
C652 C653 1.377 . S
C653 H637 0.930 . S
C653 C652 1.377 . S
C653 C654 1.379 . S
C654 H638 0.931 . S
C654 C648 1.383 . S
C654 C653 1.379 . S
H655 C649 0.959 . S
H656 C649 0.961 . S
H657 C649 0.960 . S
H658 C650 0.930 . S
H659 C651 0.929 . S
H660 C668 0.929 . S
H661 C670 0.930 . S
H662 C672 0.930 . S
H663 C675 0.929 . S
H664 C678 0.930 . S
H665 C680 0.960 . S
H666 C680 0.960 . S
H667 C680 0.960 . S
C668 H660 0.929 . S
C668 C669 1.377 . S
C668 C670 1.384 . S
C669 C668 1.377 . S
C669 C675 1.390 . S
C670 H661 0.930 . S
C670 C668 1.384 . S
C670 C671 1.372 . S
C671 C670 1.372 . S
C671 C672 1.400 . S
C671 C676 1.490 . S
C672 H662 0.930 . S
C672 C671 1.400 . S
C672 C675 1.386 . S
H673 C689 0.930 . S
H674 C690 0.931 . S
C675 H663 0.929 . S
C675 C669 1.390 . S
C675 C672 1.386 . S
C676 C671 1.490 . S
C676 C678 1.395 . S
C676 C679 1.403 . S
H677 C683 0.930 . S
C678 H664 0.930 . S
C678 C676 1.395 . S
C678 C681 1.403 . S
C679 C676 1.403 . S
C679 C680 1.524 . S
C679 C683 1.400 . S
C680 H665 0.960 . S
C680 H666 0.960 . S
C680 H667 0.960 . S
C680 C679 1.524 . S
C681 C678 1.403 . S
C681 C682 1.392 . S
C681 C685 1.495 . S
C682 C681 1.392 . S
C682 C683 1.385 . S
C682 C684 1.478 . S
C683 H677 0.930 . S
C683 C679 1.400 . S
C683 C682 1.385 . S
C684 C682 1.478 . S
C684 C686 1.381 . S
C684 C690 1.383 . S
C685 C681 1.495 . S
C685 H691 0.959 . S
C685 H692 0.961 . S
C685 H693 0.960 . S
C686 C684 1.381 . S
C686 C687 1.394 . S
C686 H694 0.930 . S
C687 C686 1.394 . S
C687 C688 1.383 . S
C687 H695 0.929 . S
C688 C687 1.383 . S
C688 C689 1.377 . S
C689 H673 0.930 . S
C689 C688 1.377 . S
C689 C690 1.379 . S
C690 H674 0.931 . S
C690 C684 1.383 . S
C690 C689 1.379 . S
H691 C685 0.959 . S
H692 C685 0.961 . S
H693 C685 0.960 . S
H694 C686 0.930 . S
H695 C687 0.929 . S
H696 C704 0.929 . S
H697 C706 0.930 . S
H698 C708 0.930 . S
H699 C711 0.929 . S
H700 C714 0.930 . S
H701 C716 0.960 . S
H702 C716 0.960 . S
H703 C716 0.960 . S
C704 H696 0.929 . S
C704 C705 1.377 1_655 S
C704 C706 1.384 . S
C705 C704 1.377 1_455 S
C705 C711 1.390 . S
C706 H697 0.930 . S
C706 C704 1.384 . S
C706 C707 1.372 1_655 S
C707 C706 1.372 1_455 S
C707 C708 1.400 . S
C707 C712 1.490 . S
C708 H698 0.930 . S
C708 C707 1.400 . S
C708 C711 1.386 . S
H709 C725 0.930 . S
H710 C726 0.931 . S
C711 H699 0.929 . S
C711 C705 1.390 . S
C711 C708 1.386 . S
C712 C707 1.490 . S
C712 C714 1.395 1_455 S
C712 C715 1.403 . S
H713 C719 0.930 . S
C714 H700 0.930 . S
C714 C712 1.395 1_655 S
C714 C717 1.403 . S
C715 C712 1.403 . S
C715 C716 1.524 . S
C715 C719 1.400 . S
C716 H701 0.960 . S
C716 H702 0.960 . S
C716 H703 0.960 . S
C716 C715 1.524 . S
C717 C714 1.403 . S
C717 C718 1.392 1_655 S
C717 C721 1.495 . S
C718 C717 1.392 1_455 S
C718 C719 1.385 . S
C718 C720 1.478 . S
C719 H713 0.930 . S
C719 C715 1.400 . S
C719 C718 1.385 . S
C720 C718 1.478 . S
C720 C722 1.363 1_455 S
C720 C726 1.402 . S
C721 C717 1.495 . S
C721 H727 0.959 . S
C721 H728 0.961 . S
C721 H729 0.960 . S
C722 C720 1.363 1_655 S
C722 C723 1.394 1_556 S
C722 H730 0.930 . S
C723 C722 1.394 1_554 S
C723 C724 1.383 1_655 S
C723 H731 0.929 . S
C724 C723 1.383 1_455 S
C724 C725 1.377 1_554 S
C725 H709 0.930 . S
C725 C724 1.377 1_556 S
C725 C726 1.379 . S
C726 H710 0.931 . S
C726 C720 1.402 . S
C726 C725 1.379 . S
H727 C721 0.959 . S
H728 C721 0.961 . S
H729 C721 0.960 . S
H730 C722 0.930 . S
H731 C723 0.929 . S
H732 C740 0.929 . S
H733 C742 0.930 . S
H734 C744 0.930 . S
H735 C747 0.929 . S
H736 C750 0.930 . S
H737 C752 0.960 . S
H738 C752 0.960 . S
H739 C752 0.960 . S
C740 H732 0.929 . S
C740 C741 1.377 . S
C740 C742 1.384 . S
C741 C740 1.377 . S
C741 C747 1.390 . S
C742 H733 0.930 . S
C742 C740 1.384 . S
C742 C743 1.372 . S
C743 C742 1.372 . S
C743 C744 1.400 . S
C743 C748 1.490 . S
C744 H734 0.930 . S
C744 C743 1.400 . S
C744 C747 1.386 . S
H745 C761 0.930 . S
H746 C762 0.931 . S
C747 H735 0.929 . S
C747 C741 1.390 . S
C747 C744 1.386 . S
C748 C743 1.490 . S
C748 C750 1.395 . S
C748 C751 1.403 . S
H749 C755 0.930 . S
C750 H736 0.930 . S
C750 C748 1.395 . S
C750 C753 1.403 . S
C751 C748 1.403 . S
C751 C752 1.524 . S
C751 C755 1.400 . S
C752 H737 0.960 . S
C752 H738 0.960 . S
C752 H739 0.960 . S
C752 C751 1.524 . S
C753 C750 1.403 . S
C753 C754 1.392 . S
C753 C757 1.495 . S
C754 C753 1.392 . S
C754 C755 1.385 . S
C754 C756 1.478 . S
C755 H749 0.930 . S
C755 C751 1.400 . S
C755 C754 1.385 . S
C756 C754 1.478 . S
C756 C758 1.381 . S
C756 C762 1.383 . S
C757 C753 1.495 . S
C757 H763 0.959 . S
C757 H764 0.961 . S
C757 H765 0.960 . S
C758 C756 1.381 . S
C758 C759 1.394 . S
C758 H766 0.930 . S
C759 C758 1.394 . S
C759 C760 1.383 . S
C759 H767 0.929 . S
C760 C759 1.383 . S
C760 C761 1.377 . S
C761 H745 0.930 . S
C761 C760 1.377 . S
C761 C762 1.379 . S
C762 H746 0.931 . S
C762 C756 1.383 . S
C762 C761 1.379 . S
H763 C757 0.959 . S
H764 C757 0.961 . S
H765 C757 0.960 . S
H766 C758 0.930 . S
H767 C759 0.929 . S
H768 C776 0.929 . S
H769 C778 0.930 . S
H770 C780 0.930 . S
H771 C783 0.929 . S
H772 C786 0.936 . S
H773 C788 0.960 . S
H774 C788 0.960 . S
H775 C788 0.960 . S
C776 H768 0.929 . S
C776 C777 1.377 1_554 S
C776 C778 1.384 . S
C777 C776 1.377 1_556 S
C777 C783 1.390 1_455 S
C778 H769 0.930 . S
C778 C776 1.384 . S
C778 C779 1.372 . S
C779 C778 1.372 . S
C779 C780 1.400 1_455 S
C779 C784 1.490 . S
C780 H770 0.930 . S
C780 C779 1.400 1_655 S
C780 C783 1.386 1_554 S
H781 C797 0.930 . S
H782 C798 0.931 . S
C783 H771 0.929 . S
C783 C777 1.390 1_655 S
C783 C780 1.386 1_556 S
C784 C779 1.490 . S
C784 C786 1.388 1_455 S
C784 C787 1.403 . S
H785 C791 0.930 . S
C786 H772 0.936 . S
C786 C784 1.388 1_655 S
C786 C789 1.404 . S
C787 C784 1.403 . S
C787 C788 1.524 . S
C787 C791 1.400 . S
C788 H773 0.960 . S
C788 H774 0.960 . S
C788 H775 0.960 . S
C788 C787 1.524 . S
C789 C786 1.404 . S
C789 C790 1.392 1_655 S
C789 C793 1.495 . S
C790 C789 1.392 1_455 S
C790 C791 1.385 . S
C790 C792 1.478 . S
C791 H785 0.930 . S
C791 C787 1.400 . S
C791 C790 1.385 . S
C792 C790 1.478 . S
C792 C794 1.381 . S
C792 C798 1.383 1_455 S
C793 C789 1.495 . S
C793 H799 0.959 . S
C793 H800 0.961 . S
C793 H801 0.960 1_655 S
C794 C792 1.381 . S
C794 C795 1.394 . S
C794 H802 0.930 . S
C795 C794 1.394 . S
C795 C796 1.383 . S
C795 H803 0.929 . S
C796 C795 1.383 . S
C796 C797 1.377 1_455 S
C797 H781 0.930 . S
C797 C796 1.377 1_655 S
C797 C798 1.379 . S
C798 H782 0.931 . S
C798 C792 1.383 1_655 S
C798 C797 1.379 . S
H799 C793 0.959 . S
H800 C793 0.961 . S
H801 C793 0.960 1_455 S
H802 C794 0.930 . S
H803 C795 0.929 . S
H804 C812 0.929 . S
H805 C814 0.930 . S
H806 C816 0.930 . S
H807 C819 0.929 . S
H808 C822 0.930 . S
H809 C824 0.960 . S
H810 C824 0.960 . S
H811 C824 0.960 . S
C812 H804 0.929 . S
C812 C813 1.377 . S
C812 C814 1.384 . S
C813 C812 1.377 . S
C813 C819 1.390 . S
C814 H805 0.930 . S
C814 C812 1.384 . S
C814 C815 1.372 . S
C815 C814 1.372 . S
C815 C816 1.400 . S
C815 C820 1.490 . S
C816 H806 0.930 . S
C816 C815 1.400 . S
C816 C819 1.386 . S
H817 C833 0.930 . S
H818 C834 0.931 . S
C819 H807 0.929 . S
C819 C813 1.390 . S
C819 C816 1.386 . S
C820 C815 1.490 . S
C820 C822 1.395 . S
C820 C823 1.403 . S
H821 C827 0.930 . S
C822 H808 0.930 . S
C822 C820 1.395 . S
C822 C825 1.403 . S
C823 C820 1.403 . S
C823 C824 1.524 . S
C823 C827 1.400 . S
C824 H809 0.960 . S
C824 H810 0.960 . S
C824 H811 0.960 . S
C824 C823 1.524 . S
C825 C822 1.403 . S
C825 C826 1.392 . S
C825 C829 1.495 . S
C826 C825 1.392 . S
C826 C827 1.385 . S
C826 C828 1.478 . S
C827 H821 0.930 . S
C827 C823 1.400 . S
C827 C826 1.385 . S
C828 C826 1.478 . S
C828 C830 1.381 . S
C828 C834 1.383 . S
C829 C825 1.495 . S
C829 H835 0.959 . S
C829 H836 0.961 . S
C829 H837 0.960 . S
C830 C828 1.381 . S
C830 C831 1.394 . S
C830 H838 0.930 . S
C831 C830 1.394 . S
C831 C832 1.383 . S
C831 H839 0.929 . S
C832 C831 1.383 . S
C832 C833 1.377 . S
C833 H817 0.930 . S
C833 C832 1.377 . S
C833 C834 1.379 . S
C834 H818 0.931 . S
C834 C828 1.383 . S
C834 C833 1.379 . S
H835 C829 0.959 . S
H836 C829 0.961 . S
H837 C829 0.960 . S
H838 C830 0.930 . S
H839 C831 0.929 . S
H840 C848 0.929 . S
H841 C850 0.930 . S
H842 C852 0.930 . S
H843 C855 0.929 . S
H844 C858 0.930 . S
H845 C860 0.960 . S
H846 C860 0.960 . S
H847 C860 0.960 . S
C848 H840 0.929 . S
C848 C849 1.377 . S
C848 C850 1.384 . S
C849 C848 1.377 . S
C849 C855 1.390 . S
C850 H841 0.930 . S
C850 C848 1.384 . S
C850 C851 1.372 . S
C851 C850 1.372 . S
C851 C852 1.400 . S
C851 C856 1.490 . S
C852 H842 0.930 . S
C852 C851 1.400 . S
C852 C855 1.386 . S
H853 C869 0.930 . S
H854 C870 0.931 . S
C855 H843 0.929 . S
C855 C849 1.390 . S
C855 C852 1.386 . S
C856 C851 1.490 . S
C856 C858 1.395 . S
C856 C859 1.403 . S
H857 C863 0.930 . S
C858 H844 0.930 . S
C858 C856 1.395 . S
C858 C861 1.403 . S
C859 C856 1.403 . S
C859 C860 1.524 . S
C859 C863 1.400 . S
C860 H845 0.960 . S
C860 H846 0.960 . S
C860 H847 0.960 . S
C860 C859 1.524 . S
C861 C858 1.403 . S
C861 C862 1.392 . S
C861 C865 1.495 . S
C862 C861 1.392 . S
C862 C863 1.385 . S
C862 C864 1.478 . S
C863 H857 0.930 . S
C863 C859 1.400 . S
C863 C862 1.385 . S
C864 C862 1.478 . S
C864 C866 1.381 . S
C864 C870 1.383 . S
C865 C861 1.495 . S
C865 H871 0.959 . S
C865 H872 0.961 . S
C865 H873 0.960 . S
C866 C864 1.381 . S
C866 C867 1.394 . S
C866 H874 0.930 . S
C867 C866 1.394 . S
C867 C868 1.383 1_556 S
C867 H875 0.929 . S
C868 C867 1.383 1_554 S
C868 C869 1.377 . S
C869 H853 0.930 . S
C869 C868 1.377 . S
C869 C870 1.379 1_554 S
C870 H854 0.931 . S
C870 C864 1.383 . S
C870 C869 1.379 1_556 S
H871 C865 0.959 . S
H872 C865 0.961 . S
H873 C865 0.960 . S
H874 C866 0.930 . S
H875 C867 0.929 . S
H876 C884 0.929 . S
H877 C886 0.930 . S
H878 C888 0.930 1_655 S
H879 C891 0.929 1_655 S
H880 C894 0.930 . S
H881 C896 0.960 . S
H882 C896 0.960 . S
H883 C896 0.960 . S
C884 H876 0.929 . S
C884 C885 1.377 . S
C884 C886 1.384 . S
C885 C884 1.377 . S
C885 C891 1.390 . S
C886 H877 0.930 . S
C886 C884 1.384 . S
C886 C887 1.372 . S
C887 C886 1.372 . S
C887 C888 1.400 . S
C887 C892 1.490 . S
C888 H878 0.930 1_455 S
C888 C887 1.400 . S
C888 C891 1.386 . S
H889 C905 0.919 1_655 S
H890 C906 0.930 1_655 S
C891 H879 0.929 1_455 S
C891 C885 1.390 . S
C891 C888 1.386 . S
C892 C887 1.490 . S
C892 C894 1.395 . S
C892 C895 1.403 . S
H893 C899 0.930 . S
C894 H880 0.930 . S
C894 C892 1.395 . S
C894 C897 1.403 . S
C895 C892 1.403 . S
C895 C896 1.524 . S
C895 C899 1.400 . S
C896 H881 0.960 . S
C896 H882 0.960 . S
C896 H883 0.960 . S
C896 C895 1.524 . S
C897 C894 1.403 . S
C897 C898 1.392 . S
C897 C901 1.495 1_455 S
C898 C897 1.392 . S
C898 C899 1.385 . S
C898 C900 1.478 . S
C899 H893 0.930 . S
C899 C895 1.400 . S
C899 C898 1.385 . S
C900 C898 1.478 . S
C900 C902 1.381 . S
C900 C906 1.383 . S
C901 C897 1.495 1_655 S
C901 H907 0.959 . S
C901 H908 0.961 . S
C901 H909 0.960 1_655 S
C902 C900 1.381 . S
C902 C903 1.394 . S
C902 H910 0.930 . S
C903 C902 1.394 . S
C903 C904 1.383 . S
C903 H911 0.929 . S
C904 C903 1.383 . S
C904 C905 1.387 . S
C905 H889 0.919 1_455 S
C905 C904 1.387 . S
C905 C906 1.379 . S
C906 H890 0.930 1_455 S
C906 C900 1.383 . S
C906 C905 1.379 . S
H907 C901 0.959 . S
H908 C901 0.961 . S
H909 C901 0.960 1_455 S
H910 C902 0.930 . S
H911 C903 0.929 . S
H912 C920 0.929 . S
H913 C922 0.930 . S
H914 C924 0.930 . S
H915 C927 0.929 . S
H916 C930 0.930 . S
H917 C932 0.960 . S
H918 C932 0.960 . S
H919 C932 0.960 . S
C920 H912 0.929 . S
C920 C921 1.377 1_554 S
C920 C922 1.384 . S
C921 C920 1.377 1_556 S
C921 C927 1.390 . S
C922 H913 0.930 . S
C922 C920 1.384 . S
C922 C923 1.372 . S
C923 C922 1.372 . S
C923 C924 1.400 . S
C923 C928 1.490 . S
C924 H914 0.930 . S
C924 C923 1.400 . S
C924 C927 1.386 1_554 S
H925 C941 0.930 . S
H926 C942 0.931 . S
C927 H915 0.929 . S
C927 C921 1.390 . S
C927 C924 1.386 1_556 S
C928 C923 1.490 . S
C928 C930 1.395 . S
C928 C931 1.403 . S
H929 C935 0.930 . S
C930 H916 0.930 . S
C930 C928 1.395 . S
C930 C933 1.403 . S
C931 C928 1.403 . S
C931 C932 1.524 . S
C931 C935 1.400 . S
C932 H917 0.960 . S
C932 H918 0.960 . S
C932 H919 0.960 . S
C932 C931 1.524 . S
C933 C930 1.403 . S
C933 C934 1.392 . S
C933 C937 1.495 . S
C934 C933 1.392 . S
C934 C935 1.385 . S
C934 C936 1.478 . S
C935 H929 0.930 . S
C935 C931 1.400 . S
C935 C934 1.385 . S
C936 C934 1.478 . S
C936 C938 1.381 . S
C936 C942 1.383 . S
C937 C933 1.495 . S
C937 H943 0.959 . S
C937 H944 0.961 . S
C937 H945 0.960 . S
C938 C936 1.381 . S
C938 C939 1.394 . S
C938 H946 0.930 . S
C939 C938 1.394 . S
C939 C940 1.383 . S
C939 H947 0.929 . S
C940 C939 1.383 . S
C940 C941 1.377 . S
C941 H925 0.930 . S
C941 C940 1.377 . S
C941 C942 1.379 . S
C942 H926 0.931 . S
C942 C936 1.383 . S
C942 C941 1.379 . S
H943 C937 0.959 . S
H944 C937 0.961 . S
H945 C937 0.960 . S
H946 C938 0.930 . S
H947 C939 0.929 . S
H948 C956 0.929 . S
H949 C958 0.930 . S
H950 C960 0.930 . S
H951 C963 0.929 . S
H952 C966 0.930 . S
H953 C968 0.960 . S
H954 C968 0.960 . S
H955 C968 0.960 . S
C956 H948 0.929 . S
C956 C957 1.377 . S
C956 C958 1.384 . S
C957 C956 1.377 . S
C957 C963 1.390 . S
C958 H949 0.930 . S
C958 C956 1.384 . S
C958 C959 1.372 . S
C959 C958 1.372 . S
C959 C960 1.400 . S
C959 C964 1.490 . S
C960 H950 0.930 . S
C960 C959 1.400 . S
C960 C963 1.386 . S
H961 C977 0.930 . S
H962 C978 0.931 . S
C963 H951 0.929 . S
C963 C957 1.390 . S
C963 C960 1.386 . S
C964 C959 1.490 . S
C964 C966 1.395 . S
C964 C967 1.403 . S
H965 C971 0.930 1_655 S
C966 H952 0.930 . S
C966 C964 1.395 . S
C966 C969 1.403 . S
C967 C964 1.403 . S
C967 C968 1.524 1_455 S
C967 C971 1.400 . S
C968 H953 0.960 . S
C968 H954 0.960 . S
C968 H955 0.960 . S
C968 C967 1.524 1_655 S
C969 C966 1.403 . S
C969 C970 1.392 . S
C969 C973 1.495 . S
C970 C969 1.392 . S
C970 C971 1.385 . S
C970 C972 1.478 . S
C971 H965 0.930 1_455 S
C971 C967 1.400 . S
C971 C970 1.385 . S
C972 C970 1.478 . S
C972 C974 1.381 . S
C972 C978 1.383 . S
C973 C969 1.495 . S
C973 H979 0.959 . S
C973 H980 0.961 . S
C973 H981 0.960 . S
C974 C972 1.381 . S
C974 C975 1.394 . S
C974 H982 0.930 . S
C975 C974 1.394 . S
C975 C976 1.383 . S
C975 H983 0.929 . S
C976 C975 1.383 . S
C976 C977 1.377 . S
C977 H961 0.930 . S
C977 C976 1.377 . S
C977 C978 1.379 . S
C978 H962 0.931 . S
C978 C972 1.383 . S
C978 C977 1.379 . S
H979 C973 0.959 . S
H980 C973 0.961 . S
H981 C973 0.960 . S
H982 C974 0.930 . S
H983 C975 0.929 . S
C273 N68 1.367 . S
C292 N2 1.391 1_655 S
C309 N101 1.368 . S
C328 N35 1.380 . S
C345 N134 1.367 . S
C364 N200 1.399 . S
C381 N167 1.368 . S
C400 N233 1.383 . S
C417 C117 1.434 . S
C436 C18 1.418 . S
C453 C51 1.438 . S
C472 C84 1.440 . S
C489 C73 1.108 . S
C508 C40 1.127 . S
C525 C106 1.115 . S
C544 C7 1.092 . S
C561 C249 1.438 . S
C580 C150 1.438 . S
C597 C183 1.432 . S
C616 C216 1.432 . S
C633 C205 1.111 . S
C652 C172 1.108 . S
C669 C238 1.114 . S
C688 C139 1.097 . S
C705 N178 1.511 . S
C724 C21 1.564 . S
C741 C54 1.566 . S
C760 N145 1.530 . S
C777 C87 1.565 . S
C796 N244 1.527 . S
C813 N211 1.508 . S
C832 C120 1.562 . S
C849 N46 1.518 . S
C868 C153 1.563 . S
C885 C186 1.566 . S
C904 N13 1.492 . S
C921 C219 1.565 . S
C940 N112 1.526 . S
C957 C252 1.565 . S
C976 N79 1.534 . S
