# Generated by pormake.
# Topology snk, (6)-cn, num edge types: 1
# Building blocks:
#     Node 0, Type 0, BuildingBlock: FUNLAD_clean_sbu_0, # of connection points: 6
#     Node 1, Type 0, BuildingBlock: FUNLAD_clean_sbu_0, # of connection points: 6
#     Node 2, Type 0, BuildingBlock: FUNLAD_clean_sbu_0, # of connection points: 6
#     Node 3, Type 0, BuildingBlock: FUNLAD_clean_sbu_0, # of connection points: 6
#     Node 4, Type 0, BuildingBlock: FUNLAD_clean_sbu_0, # of connection points: 6
#     Node 5, Type 0, BuildingBlock: FUNLAD_clean_sbu_0, # of connection points: 6
#     Node 6, Type 0, BuildingBlock: FUNLAD_clean_sbu_0, # of connection points: 6
#     Node 7, Type 0, BuildingBlock: FUNLAD_clean_sbu_0, # of connection points: 6
#     Edge 8, Type (0, 0), BuildingBlock: EZIPEK_clean_linker_0, # of connection points: 2
#     Edge 9, Type (0, 0), BuildingBlock: EZIPEK_clean_linker_0, # of connection points: 2
#     Edge 10, Type (0, 0), BuildingBlock: EZIPEK_clean_linker_0, # of connection points: 2
#     Edge 11, Type (0, 0), BuildingBlock: EZIPEK_clean_linker_0, # of connection points: 2
#     Edge 12, Type (0, 0), BuildingBlock: EZIPEK_clean_linker_0, # of connection points: 2
#     Edge 13, Type (0, 0), BuildingBlock: EZIPEK_clean_linker_0, # of connection points: 2
#     Edge 14, Type (0, 0), BuildingBlock: EZIPEK_clean_linker_0, # of connection points: 2
#     Edge 15, Type (0, 0), BuildingBlock: EZIPEK_clean_linker_0, # of connection points: 2
#     Edge 16, Type (0, 0), BuildingBlock: EZIPEK_clean_linker_0, # of connection points: 2
#     Edge 17, Type (0, 0), BuildingBlock: EZIPEK_clean_linker_0, # of connection points: 2
#     Edge 18, Type (0, 0), BuildingBlock: EZIPEK_clean_linker_0, # of connection points: 2
#     Edge 19, Type (0, 0), BuildingBlock: EZIPEK_clean_linker_0, # of connection points: 2
#     Edge 20, Type (0, 0), BuildingBlock: EZIPEK_clean_linker_0, # of connection points: 2
#     Edge 21, Type (0, 0), BuildingBlock: EZIPEK_clean_linker_0, # of connection points: 2
#     Edge 22, Type (0, 0), BuildingBlock: EZIPEK_clean_linker_0, # of connection points: 2
#     Edge 23, Type (0, 0), BuildingBlock: EZIPEK_clean_linker_0, # of connection points: 2
#     Edge 24, Type (0, 0), BuildingBlock: EZIPEK_clean_linker_0, # of connection points: 2
#     Edge 25, Type (0, 0), BuildingBlock: EZIPEK_clean_linker_0, # of connection points: 2
#     Edge 26, Type (0, 0), BuildingBlock: EZIPEK_clean_linker_0, # of connection points: 2
#     Edge 27, Type (0, 0), BuildingBlock: EZIPEK_clean_linker_0, # of connection points: 2
#     Edge 28, Type (0, 0), BuildingBlock: EZIPEK_clean_linker_0, # of connection points: 2
#     Edge 29, Type (0, 0), BuildingBlock: EZIPEK_clean_linker_0, # of connection points: 2
#     Edge 30, Type (0, 0), BuildingBlock: EZIPEK_clean_linker_0, # of connection points: 2
#     Edge 31, Type (0, 0), BuildingBlock: EZIPEK_clean_linker_0, # of connection points: 2
# Relax obj value: 0.378
# Max RMSD: 0.135
# Mean RMSD: 0.103
data_MOF--net-snk--node1-FUNLAD_clean_sbu_0--edge1-EZIPEK_clean_linker_0
_symmetry_space_group_name_H-M    P1
_symmetry_Int_Tables_number       1
_symmetry_cell_setting            triclinic
loop_
_symmetry_equiv_pos_as_xyz
'x, y, z'
_cell_length_a     38.302326
_cell_length_b     37.951977
_cell_length_c     11.219696
_cell_angle_alpha  78.604274
_cell_angle_beta   79.271725
_cell_angle_gamma 96.162706
loop_
_atom_site_label
_atom_site_type_symbol
_atom_site_fract_x
_atom_site_fract_y
_atom_site_fract_z
_atom_type_partial_charge
C0 C 1.03901 0.04959 0.73664 0.0
N1 N 0.09559 0.98822 0.52049 0.0
C2 C 0.12093 0.99278 0.58915 0.0
C3 C 0.14035 0.9647 0.62518 0.0
C4 C 0.13381 0.93154 0.59017 0.0
C5 C 0.1082 0.92766 0.51711 0.0
C6 C 0.08919 0.95642 0.48356 0.0
Zn7 Zn 0.06248 1.02807 0.49451 0.0
C8 C 0.98012 0.98911 0.5532 0.0
N9 N 0.99194 0.11029 0.46285 0.0
C10 C 1.00184 0.14286 0.4904 0.0
C11 C 0.96331 0.10557 0.40834 0.0
C12 C 0.94398 0.13427 0.37764 0.0
C13 C 0.95443 0.16845 0.40131 0.0
C14 C 0.98365 0.17242 0.45928 0.0
Zn15 Zn 1.02486 0.06987 0.48549 0.0
O16 O 0.05704 1.02875 0.68369 0.0
C17 C 0.10752 0.10862 0.42475 0.0
O18 O 1.02173 0.07091 0.67608 0.0
H19 H 0.95604 0.0798 0.38522 0.0
H20 H 0.12546 1.01797 0.6191 0.0
H21 H 1.02456 0.14635 0.5336 0.0
O22 O 0.11141 0.07475 0.44625 0.0
O23 O 0.0749 0.1148 0.43118 0.0
H24 H 0.06872 0.95301 0.4304 0.0
O25 O 1.0288 0.06789 0.2977 0.0
O26 O 0.06689 1.02817 0.30298 0.0
O27 O 0.97592 1.0229 0.53909 0.0
O28 O 1.0129 0.98307 0.5413 0.0
C29 C 0.04813 1.04807 0.24387 0.0
H30 H 0.16018 0.96874 0.68046 0.0
H31 H 0.10274 0.90252 0.48748 0.0
H32 H 0.92161 0.13011 0.33292 0.0
H33 H 0.99257 0.19831 0.47903 0.0
C34 C 0.27832 0.78714 0.00168 0.0
N35 N 0.33403 0.85803 0.67141 0.0
C36 C 0.3214 0.88628 0.6056 0.0
C37 C 0.32768 0.92083 0.62933 0.0
C38 C 0.34888 0.92587 0.71501 0.0
C39 C 0.36742 0.89802 0.76092 0.0
C40 C 0.35905 0.86369 0.73946 0.0
Zn41 Zn 0.30235 0.80914 0.72335 0.0
C42 C 0.34024 0.74657 0.77739 0.0
N43 N 0.22917 0.71043 0.84277 0.0
C44 C 0.20471 0.70735 0.77066 0.0
C45 C 0.24518 0.68145 0.8854 0.0
C46 C 0.24593 0.65279 0.82411 0.0
C47 C 0.22731 0.65348 0.72786 0.0
C48 C 0.20335 0.67858 0.71136 0.0
Zn49 Zn 0.26148 0.75976 0.79251 0.0
O50 O 0.29798 0.81136 0.91296 0.0
C51 C 0.22458 0.82373 0.73663 0.0
O52 O 0.25791 0.7619 -0.02157 0.0
H53 H 0.26296 0.68363 0.94885 0.0
H54 H 0.30233 0.88119 0.54885 0.0
H55 H 0.19158 0.73019 0.73945 0.0
O56 O 0.25742 0.83731 0.71363 0.0
O57 O 0.21599 0.78953 0.77885 0.0
H58 H 0.36863 0.84091 0.7912 0.0
O59 O 0.26588 0.75736 0.6035 0.0
O60 O 0.30581 0.80674 0.53669 0.0
O61 O 0.30759 0.73191 0.80203 0.0
O62 O 0.34773 0.78076 0.73519 0.0
C63 C 0.28542 0.78135 0.51416 0.0
H64 H 0.31337 0.94204 0.59173 0.0
H65 H 0.38433 0.90152 0.82646 0.0
H66 H 0.264 0.63317 0.84091 0.0
H67 H 0.18794 0.67918 0.63965 0.0
C68 C 0.54496 0.05684 0.71955 0.0
N69 N 0.47539 1.00009 0.04718 0.0
C70 C 0.46933 0.97517 -0.02109 0.0
C71 C 0.43511 0.9669 0.95809 0.0
C72 C 0.40762 0.98511 0.00616 0.0
C73 C 0.41322 1.00633 0.09111 0.0
C74 C 0.44774 1.0129 0.11271 0.0
Zn75 Zn 0.52418 1.03152 -0.00288 0.0
C76 C 0.58603 0.99546 0.94518 0.0
N77 N 0.61906 0.10651 0.87454 0.0
C78 C 0.62656 0.13433 0.77211 0.0
C79 C 0.64483 0.09605 0.93568 0.0
C80 C 0.67965 0.11415 0.89625 0.0
C81 C 0.68864 0.14361 0.79151 0.0
C82 C 0.66144 0.15318 0.72818 0.0
Zn83 Zn 0.57117 0.0746 0.93033 0.0
O84 O 0.52186 1.03565 0.8072 0.0
C85 C 0.51078 0.11171 -0.02228 0.0
O86 O 0.56911 0.07797 0.74425 0.0
H87 H 0.63845 0.07328 0.0149 0.0
H88 H 0.49162 0.96553 0.92712 0.0
H89 H 0.60562 0.14162 0.72345 0.0
O90 O 0.4969 0.07844 0.00496 0.0
O91 O 0.54437 0.12028 0.93609 0.0
H92 H 0.45307 1.03217 0.16835 0.0
O93 O 0.5724 0.07112 0.12175 0.0
O94 O 0.52665 1.02683 0.18319 0.0
O95 O 0.59881 1.02898 0.92169 0.0
O96 O 0.55244 0.9858 -0.01213 0.0
C97 C 0.54988 1.04885 0.20902 0.0
H98 H 0.43121 0.95004 0.89273 0.0
H99 H 0.39231 1.02043 0.13006 0.0
H100 H 0.69887 0.10531 0.95074 0.0
H101 H 0.66664 0.17487 0.64607 0.0
C102 C 0.29444 0.30204 -0.01211 0.0
N103 N 0.3528 0.24203 0.21083 0.0
C104 C 0.34425 0.21222 0.16547 0.0
C105 C 0.37044 0.19097 0.13108 0.0
C106 C 0.40605 0.20108 0.13977 0.0
C107 C 0.41405 0.23149 0.18904 0.0
C108 C 0.38681 0.25134 0.22586 0.0
Zn109 Zn 0.31554 0.27716 0.23303 0.0
C110 C 0.35684 0.35943 0.16813 0.0
N111 N 0.23935 0.35197 0.25737 0.0
C112 C 0.24404 0.38532 0.17933 0.0
C113 C 0.21133 0.34181 0.35773 0.0
C114 C 0.18702 0.36563 0.38385 0.0
C115 C 0.1916 0.4003 0.30621 0.0
C116 C 0.22029 0.41005 0.20215 0.0
Zn117 Zn 0.27625 0.31661 0.23607 0.0
O118 O 0.31341 0.28191 0.04418 0.0
C119 C 0.23465 0.23434 0.30069 0.0
O120 O 0.27522 0.32135 0.04514 0.0
H121 H 0.20822 0.31538 0.41945 0.0
H122 H 0.31741 0.20558 0.15137 0.0
H123 H 0.26656 0.39298 0.10061 0.0
O124 O 0.26774 0.22921 0.28806 0.0
O125 O 0.22972 0.26784 0.28509 0.0
H126 H 0.39325 0.27493 0.26251 0.0
O127 O 0.27802 0.31126 0.42571 0.0
O128 O 0.31733 0.27297 0.42299 0.0
O129 O 0.32374 0.36458 0.18592 0.0
O130 O 0.36181 0.32607 0.17905 0.0
C131 C 0.29768 0.2918 0.48101 0.0
H132 H 0.36328 0.16764 0.09362 0.0
H133 H 0.44123 0.24003 0.19742 0.0
H134 H 0.16514 0.3573 0.46478 0.0
H135 H 0.22448 0.43666 0.14037 0.0
C136 C 0.78974 0.29578 0.49698 0.0
N137 N 0.83784 0.38224 0.20405 0.0
C138 C 0.81197 0.39949 0.2592 0.0
C139 C 0.81603 0.41214 0.36434 0.0
C140 C 0.84924 0.41326 0.39879 0.0
C141 C 0.87843 0.40454 0.31898 0.0
C142 C 0.87193 0.38825 0.22217 0.0
Zn143 Zn 0.81786 0.3288 0.20982 0.0
C144 C 0.86494 0.2763 0.26265 0.0
N145 N 0.76216 0.22122 0.28318 0.0
C146 C 0.72811 0.21522 0.26455 0.0
C147 C 0.78783 0.20323 0.231 0.0
C148 C 0.78393 0.19008 0.12666 0.0
C149 C 0.75099 0.18947 0.09022 0.0
C150 C 0.7217 0.19848 0.16865 0.0
Zn151 Zn 0.7824 0.27479 0.27554 0.0
O152 O 0.80733 0.32171 0.40931 0.0
C153 C 0.73517 0.32713 0.22176 0.0
O154 O 0.77221 0.26898 0.47047 0.0
H155 H 0.81367 0.2037 0.2555 0.0
H156 H 0.78594 0.3988 0.23626 0.0
H157 H 0.70708 0.22766 0.31113 0.0
O158 O 0.76644 0.34516 0.19484 0.0
O159 O 0.73121 0.29311 0.26585 0.0
H160 H 0.89301 0.37621 0.17399 0.0
O161 O 0.79295 0.28202 0.07578 0.0
O162 O 0.82846 0.33461 0.01476 0.0
O163 O 0.83365 0.25842 0.28877 0.0
O164 O 0.86906 0.31042 0.22021 0.0
C165 C 0.81083 0.30787 -0.01184 0.0
H166 H 0.79281 0.41896 0.42162 0.0
H167 H 0.90491 0.40622 0.34039 0.0
H168 H 0.80713 0.18272 0.07099 0.0
H169 H 0.69539 0.19709 0.14583 0.0
C170 C 0.79366 0.80356 0.48135 0.0
N171 N 0.85351 0.74417 0.69809 0.0
C172 C 0.84717 0.7186 0.63165 0.0
C173 C 0.87412 0.69877 0.5919 0.0
C174 C 0.90793 0.70515 0.62097 0.0
C175 C 0.91361 0.73083 0.69254 0.0
C176 C 0.88592 0.75027 0.72994 0.0
Zn177 Zn 0.81559 0.77865 0.72479 0.0
C178 C 0.85581 0.86099 0.66505 0.0
N179 N 0.73832 0.85282 0.75394 0.0
C180 C 0.70739 0.85092 0.71115 0.0
C181 C 0.74527 0.87731 0.823 0.0
C182 C 0.72167 0.90188 0.84704 0.0
C183 C 0.69132 0.90403 0.79214 0.0
C184 C 0.68323 0.87557 0.73173 0.0
Zn185 Zn 0.77495 0.81689 0.73173 0.0
O186 O 0.81323 0.784 0.53639 0.0
C187 C 0.73479 0.73444 0.79336 0.0
O188 O 0.77405 0.82236 0.53976 0.0
H189 H 0.76897 0.8774 0.86243 0.0
H190 H 0.82149 0.71439 0.60566 0.0
H191 H 0.70108 0.82988 0.66268 0.0
O192 O 0.76819 0.73012 0.77757 0.0
O193 O 0.7289 0.76767 0.78081 0.0
H194 H 0.89068 0.77095 0.78136 0.0
O195 O 0.77621 0.8105 0.92111 0.0
O196 O 0.81733 0.77415 0.91643 0.0
O197 O 0.82244 0.86526 0.68357 0.0
O198 O 0.86151 0.82789 0.67248 0.0
C199 C 0.79652 0.79185 -0.02429 0.0
H200 H 0.86875 0.67885 0.53796 0.0
H201 H 0.93933 0.7361 0.7176 0.0
H202 H 0.72745 0.91805 0.91177 0.0
H203 H 0.6581 0.87112 0.70285 0.0
C204 C 0.54271 0.54593 0.2277 0.0
N205 N 0.6007 0.48534 0.01021 0.0
C206 C 0.62943 0.49214 0.06245 0.0
C207 C 0.65012 0.46482 0.09492 0.0
C208 C 0.641 0.42985 0.07541 0.0
C209 C 0.61163 0.42368 0.01966 0.0
C210 C 0.59198 0.45194 -0.01318 0.0
Zn211 Zn 0.56627 0.52435 -0.01318 0.0
C212 C 0.48428 0.48417 0.04855 0.0
N213 N 0.4922 0.60269 0.95365 0.0
C214 C 0.49512 0.63443 -0.00692 0.0
C215 C 0.46642 0.59489 0.88979 0.0
C216 C 0.44273 0.61938 0.86207 0.0
C217 C 0.44529 0.65228 0.90071 0.0
C218 C 0.47169 0.6597 0.96785 0.0
Zn219 Zn 0.52794 0.56542 -0.02332 0.0
O220 O 0.562 0.52615 0.17383 0.0
C221 C 0.60958 0.60646 0.91511 0.0
O222 O 0.52398 0.56588 0.16848 0.0
H223 H 0.46448 0.56973 0.85837 0.0
H224 H 0.63572 0.51851 0.08267 0.0
H225 H 0.51586 0.64035 0.04292 0.0
O226 O 0.61412 0.5727 0.9343 0.0
O227 O 0.57663 0.61196 0.92445 0.0
H228 H 0.56909 0.44676 0.94578 0.0
O229 O 0.53294 0.56395 0.78864 0.0
O230 O 0.5698 0.5232 0.79611 0.0
O231 O 0.48024 0.51791 0.02776 0.0
O232 O 0.51702 0.47819 0.04057 0.0
C233 C 0.55165 0.54355 0.7358 0.0
H234 H 0.67254 0.47066 0.13782 0.0
H235 H 0.60372 0.39711 0.00312 0.0
H236 H 0.42257 0.61273 0.81067 0.0
H237 H 0.47427 0.68484 -0.00055 0.0
C238 C 1.046 0.56056 0.19032 0.0
N239 N 0.9851 0.50311 0.53834 0.0
C240 C 0.95598 0.51183 0.49338 0.0
C241 C 0.92216 0.49314 0.55122 0.0
C242 C 0.91767 0.46433 0.65677 0.0
C243 C 0.9485 0.4558 0.70081 0.0
C244 C 0.98215 0.4757 0.63997 0.0
Zn245 Zn 1.0307 0.53837 0.46394 0.0
C246 C 0.09525 0.50382 0.41238 0.0
N247 N 0.12449 0.61565 0.32418 0.0
C248 C 0.1331 0.64083 0.38853 0.0
C249 C 0.15026 0.60433 0.24514 0.0
C250 C 0.18625 0.61167 0.25152 0.0
C251 C 0.19476 0.63132 0.33784 0.0
C252 C 0.16874 0.64967 0.39481 0.0
Zn253 Zn 0.07796 0.58093 0.39561 0.0
O254 O 1.02282 0.54049 0.28059 0.0
C255 C 1.01272 0.61474 0.45671 0.0
O256 O 0.07145 0.58072 0.21323 0.0
H257 H 0.14268 0.58478 0.19275 0.0
H258 H 0.95882 0.53412 0.41392 0.0
H259 H 0.11218 0.64964 0.44982 0.0
O260 O 1.00022 0.5812 0.48155 0.0
O261 O 1.04615 0.62473 0.40952 0.0
H262 H 1.00575 0.46979 0.67557 0.0
O263 O 0.08472 0.58031 0.58043 0.0
O264 O 1.03818 0.5373 0.64463 0.0
O265 O 0.10871 0.53709 0.38838 0.0
O266 O 0.06139 0.49491 0.44774 0.0
C267 C 0.06209 0.55886 0.66909 0.0
H268 H 0.90007 0.50133 0.51046 0.0
H269 H 0.94688 0.43426 0.78137 0.0
H270 H 0.20597 0.59785 0.20417 0.0
H271 H 0.17482 0.66584 0.45963 0.0
C272 C 0.14037 0.17028 0.45668 0.0
C273 C 0.14053 0.14067 0.39374 0.0
C274 C 0.20203 0.17251 0.26802 0.0
C275 C 0.20203 0.20182 0.33241 0.0
N276 N 0.17191 0.22344 0.50577 0.0
N277 N 0.17095 0.11808 0.22348 0.0
C278 C 0.17106 0.19933 0.43019 0.0
C279 C 0.17161 0.14293 0.29651 0.0
N280 N 0.11032 0.17115 0.5428 0.0
N281 N 0.23148 0.17277 0.17777 0.0
H282 H 0.14978 0.09698 0.23834 0.0
H283 H 0.18975 0.11955 0.1422 0.0
H284 H 0.25166 0.19506 0.14303 0.0
H285 H 0.23687 0.15059 0.13963 0.0
H286 H 0.10513 0.19398 0.57745 0.0
H287 H 0.08929 0.14961 0.5756 0.0
H288 H 0.15337 0.22103 0.58855 0.0
H289 H 0.1931 0.24439 0.49243 0.0
C290 C 0.14431 0.87711 0.74405 0.0
C291 C 0.155 0.90162 0.62572 0.0
C292 C 0.20624 0.86965 0.57386 0.0
C293 C 0.19825 0.84791 0.69758 0.0
N294 N 0.16129 0.83331 0.90464 0.0
N295 N 0.19848 0.92413 0.43304 0.0
C296 C 0.16745 0.85199 0.7836 0.0
C297 C 0.18655 0.89858 0.54198 0.0
N298 N 0.1118 0.87763 0.81807 0.0
N299 N 0.23194 0.86185 0.4848 0.0
H300 H 0.18439 0.94516 0.40424 0.0
H301 H 0.22369 0.92622 0.37569 0.0
H302 H 0.24691 0.84089 0.5029 0.0
H303 H 0.23606 0.87374 0.39037 0.0
H304 H 0.10056 0.85814 0.89939 0.0
H305 H 0.09466 0.89606 0.793 0.0
H306 H 0.14185 0.83812 -0.02465 0.0
H307 H 0.17735 0.81462 0.93659 0.0
C308 C 0.37078 0.98813 0.73262 0.0
C309 C 0.3461 0.95581 0.78029 0.0
C310 C 0.3464 0.96056 -0.00706 0.0
C311 C 0.37688 0.98721 0.94518 0.0
N312 N 0.40751 1.03759 0.78105 0.0
N313 N 0.30078 0.91921 0.95306 0.0
C314 C 0.38471 1.00547 0.81833 0.0
C315 C 0.32967 0.94583 0.90874 0.0
N316 N 0.38331 0.99968 0.60726 0.0
N317 N 0.33523 0.94729 0.11797 0.0
H318 H 0.28767 0.90669 0.89519 0.0
H319 H 0.28767 0.90669 0.89519 0.0
H320 H 0.34755 0.95787 0.18156 0.0
H321 H 0.31348 0.92654 0.15615 0.0
H322 H 0.40431 1.02089 0.56635 0.0
H323 H 0.37265 0.98712 0.54439 0.0
H324 H 0.41298 0.05345 0.69089 0.0
H325 H 0.41838 0.04957 0.84487 0.0
C326 C 0.46692 0.15454 0.92823 0.0
C327 C 0.48814 0.13926 0.0099 0.0
C328 C 0.4552 0.16345 0.17702 0.0
C329 C 0.43504 0.18049 0.09405 0.0
N330 N 0.42845 0.19987 0.88191 0.0
N331 N 0.50997 0.13876 0.19811 0.0
C332 C 0.44282 0.17824 0.96682 0.0
C333 C 0.48472 0.14687 0.1298 0.0
N334 N 0.46967 0.14627 0.81413 0.0
N335 N 0.44505 0.1612 0.30202 0.0
H336 H 0.53215 0.12691 0.16582 0.0
H337 H 0.51065 0.14686 0.28128 0.0
H338 H 0.42267 0.17157 0.34159 0.0
H339 H 0.45664 0.14576 0.36746 0.0
H340 H 0.45188 0.15284 0.75629 0.0
H341 H 0.48888 0.13115 0.78022 0.0
H342 H 0.43573 0.20186 0.78638 0.0
H343 H 0.41191 0.21864 0.90548 0.0
C344 C 0.91916 0.95699 0.51457 0.0
C345 C 0.94753 0.95669 0.5828 0.0
C346 C 0.9165 0.89375 0.70267 0.0
C347 C 0.88765 0.8942 0.63651 0.0
N348 N 0.86607 0.92584 0.46365 0.0
N349 N 0.96702 0.92613 0.76222 0.0
C350 C 0.89013 0.92613 0.53963 0.0
C351 C 0.94453 0.92514 0.68115 0.0
N352 N 0.91975 0.9872 0.42432 0.0
N353 N 0.91779 0.86277 0.78673 0.0
H354 H 0.98656 0.94829 0.75423 0.0
H355 H 0.96406 0.90691 0.84498 0.0
H356 H 0.89733 0.84064 0.81429 0.0
H357 H 0.94026 0.85787 0.82362 0.0
H358 H 0.89828 0.99268 0.38263 0.0
H359 H 0.94152 1.00803 0.39351 0.0
H360 H 0.86763 0.94538 0.38287 0.0
H361 H 0.84559 0.90426 0.47549 0.0
C362 C 0.91614 0.21637 0.4531 0.0
C363 C 0.93542 0.20014 0.36237 0.0
C364 C 0.91378 0.24001 0.19862 0.0
C365 C 0.89509 0.25635 0.28943 0.0
N366 N 0.88711 0.2678 0.49487 0.0
N367 N 0.95997 0.20324 0.14557 0.0
C368 C 0.89923 0.24704 0.41403 0.0
C369 C 0.93648 0.21404 0.23391 0.0
N370 N 0.91201 0.20121 0.57689 0.0
N371 N 0.90905 0.24864 0.0792 0.0
H372 H 0.97756 0.18504 0.16777 0.0
H373 H 0.96442 0.21481 0.05081 0.0
H374 H 0.89464 0.26928 0.04925 0.0
H375 H 0.918 0.23441 0.01186 0.0
H376 H 0.89503 0.20951 0.64655 0.0
H377 H 0.9229 0.17811 0.60982 0.0
H378 H 0.89233 0.26473 0.58394 0.0
H379 H 0.87478 0.29043 0.46794 0.0
C380 C 0.75946 0.15388 0.91949 0.0
C381 C 0.74837 0.18459 0.96368 0.0
C382 C 0.72402 0.20236 0.77743 0.0
C383 C 0.72466 0.16659 0.76251 0.0
N384 N 0.76498 0.12344 0.74623 0.0
N385 N 0.73117 0.24456 0.91049 0.0
C386 C 0.75194 0.14901 0.80427 0.0
C387 C 0.73449 0.21134 0.8839 0.0
N388 N 0.77223 0.12719 -0.00745 0.0
N389 N 0.71434 0.22709 0.68864 0.0
H390 H 0.74205 0.2532 -0.01992 0.0
H391 H 0.71818 0.26371 0.86313 0.0
H392 H 0.7101 0.22048 0.60596 0.0
H393 H 0.71406 0.25435 0.69048 0.0
H394 H 0.77786 0.10325 0.96609 0.0
H395 H 0.7736 0.12693 0.08447 0.0
H396 H 0.78595 0.1101 0.77004 0.0
H397 H 0.75625 0.11843 0.66739 0.0
C398 C 0.67364 0.95893 0.88093 0.0
C399 C 0.66662 0.93277 0.81047 0.0
C400 C 0.60623 0.95043 0.81655 0.0
C401 C 0.611 0.96964 0.91087 0.0
N402 N 0.64928 0.98826 0.04253 0.0
N403 N 0.63698 0.92957 0.64116 0.0
C404 C 0.64466 0.97245 0.94632 0.0
C405 C 0.63553 0.93501 0.75853 0.0
N406 N 0.70773 0.97639 0.86552 0.0
N407 N 0.57434 0.94769 0.7788 0.0
H408 H 0.66098 0.92633 0.58565 0.0
H409 H 0.61673 0.93422 0.59213 0.0
H410 H 0.55304 0.96064 0.81058 0.0
H411 H 0.56834 0.9305 0.72118 0.0
H412 H 0.71373 0.99805 0.90651 0.0
H413 H 0.72864 0.97291 0.79648 0.0
H414 H 0.67294 0.98871 0.07605 0.0
H415 H 0.62827 0.99731 0.09608 0.0
C416 C 0.64169 0.6684 0.9494 0.0
C417 C 0.64216 0.63916 0.88444 0.0
C418 C 0.70244 0.67336 0.7553 0.0
C419 C 0.70294 0.70117 0.82563 0.0
N420 N 0.67401 0.71951 0.00773 0.0
N421 N 0.67758 0.61373 0.73065 0.0
C422 C 0.67256 0.69711 0.92665 0.0
C423 C 0.67406 0.64171 0.78985 0.0
N424 N 0.61155 0.66897 0.03548 0.0
N425 N 0.72824 0.67809 0.64915 0.0
H426 H 0.6571 0.59221 0.7423 0.0
H427 H 0.70159 0.61065 0.67532 0.0
H428 H 0.74888 0.70013 0.61993 0.0
H429 H 0.72749 0.6622 0.58369 0.0
H430 H 0.60668 0.69156 0.07212 0.0
H431 H 0.5903 0.6476 0.06613 0.0
H432 H 0.65566 0.71583 0.09179 0.0
H433 H 0.69567 0.73978 -0.00256 0.0
C434 C 0.68519 0.36273 0.28171 0.0
C435 C 0.70485 0.34653 0.19248 0.0
C436 C 0.68208 0.38387 0.02692 0.0
C437 C 0.66163 0.39969 0.11624 0.0
N438 N 0.63694 0.39744 0.33228 0.0
N439 N 0.71411 0.33404 -0.01181 0.0
C440 C 0.66115 0.38705 0.24496 0.0
C441 C 0.70061 0.35464 0.06766 0.0
N442 N 0.69022 0.35556 0.40099 0.0
N443 N 0.68565 0.39811 0.90273 0.0
H444 H 0.72767 0.31248 0.01605 0.0
H445 H 0.70893 0.33608 0.89936 0.0
H446 H 0.6734 0.42008 0.86859 0.0
H447 H 0.70336 0.39032 0.83373 0.0
H448 H 0.68041 0.36991 0.46694 0.0
H449 H 0.70578 0.33619 0.43215 0.0
H450 H 0.6329 0.38659 0.42742 0.0
H451 H 0.61845 0.41448 0.30908 0.0
C452 C 0.88129 0.40449 0.70123 0.0
C453 C 0.88182 0.441 0.70816 0.0
C454 C 0.84198 0.45011 0.56673 0.0
C455 C 0.85272 0.41907 0.52361 0.0
N456 N 0.87101 0.35971 0.57957 0.0
N457 N 0.84027 0.48262 0.73441 0.0
C458 C 0.86827 0.3935 0.60177 0.0
C459 C 0.85245 0.45678 0.67601 0.0
N460 N 0.89227 0.38115 0.79053 0.0
N461 N 0.82707 0.47562 0.49684 0.0
H462 H 0.85122 0.48908 0.80745 0.0
H463 H 0.81805 0.49478 0.71689 0.0
H464 H 0.82369 0.47491 0.40745 0.0
H465 H 0.82161 0.49971 0.52256 0.0
H466 H 0.89102 0.35335 0.79545 0.0
H467 H 0.89958 0.38986 0.86635 0.0
H468 H 0.88494 0.34135 0.62616 0.0
H469 H 0.85889 0.35002 0.51418 0.0
C470 C 0.95933 0.69507 0.45951 0.0
C471 C 0.93676 0.6838 0.58028 0.0
C472 C 0.9687 0.63169 0.62493 0.0
C473 C 0.98859 0.64044 0.49933 0.0
N474 N 0.99978 0.67834 0.29264 0.0
N475 N 0.91666 0.63899 0.77284 0.0
C476 C 0.98335 0.6718 0.41554 0.0
C477 C 0.94061 0.65148 0.66155 0.0
N478 N 0.958 0.72822 0.38734 0.0
N479 N 0.97753 0.60526 0.71124 0.0
H480 H 0.89636 0.65318 0.80516 0.0
H481 H 0.91508 0.61324 0.82889 0.0
H482 H 0.99803 0.5902 0.69011 0.0
H483 H 0.96708 0.6007 0.80646 0.0
H484 H 0.97625 0.73985 0.30408 0.0
H485 H 0.94025 0.74547 0.41562 0.0
H486 H 0.99402 0.69832 0.22413 0.0
H487 H 1.01727 0.6619 0.25703 0.0
C488 C 0.39091 0.41899 0.20888 0.0
C489 C 0.3894 0.39178 0.13652 0.0
C490 C 0.45082 0.42357 0.01178 0.0
C491 C 0.45129 0.45219 0.07902 0.0
N492 N 0.41732 0.47776 0.23563 0.0
N493 N 0.41738 0.37317 0.95351 0.0
C494 C 0.41987 0.45001 0.1749 0.0
C495 C 0.41949 0.39543 0.0347 0.0
N496 N 0.36562 0.41416 0.3164 0.0
N497 N 0.48045 0.4232 0.92319 0.0
H498 H 0.39556 0.35302 0.96471 0.0
H499 H 0.43546 0.37663 0.869 0.0
H500 H 0.50177 0.44453 0.89248 0.0
H501 H 0.48481 0.40096 0.88401 0.0
H502 H 0.36713 0.42961 0.38277 0.0
H503 H 0.34472 0.39237 0.34578 0.0
H504 H 0.39368 0.48107 0.2925 0.0
H505 H 0.43819 0.49893 0.22354 0.0
C506 C 0.387 0.67621 0.95823 0.0
C507 C 0.41973 0.67835 0.87203 0.0
C508 C 0.40033 0.72453 0.72084 0.0
C509 C 0.36844 0.72405 0.80999 0.0
N510 N 0.33567 0.705 0.02409 0.0
N511 N 0.46047 0.70841 0.67946 0.0
C512 C 0.36294 0.70138 0.93159 0.0
C513 C 0.42729 0.70379 0.75587 0.0
N514 N 0.3784 0.64945 0.06477 0.0
N515 N 0.40413 0.74327 0.60082 0.0
H516 H 0.48049 0.69319 0.70092 0.0
H517 H 0.4692 0.72922 0.60001 0.0
H518 H 0.3851 0.75856 0.57116 0.0
H519 H 0.42462 0.74133 0.52819 0.0
H520 H 0.35302 0.64346 0.12347 0.0
H521 H 0.39578 0.63133 0.09004 0.0
H522 H 0.33309 0.69253 0.11734 0.0
H523 H 0.31761 0.72328 0.01084 0.0
C524 C 0.21931 0.60189 0.62384 0.0
C525 C 0.23855 0.63558 0.62462 0.0
C526 C 0.25009 0.6536 0.39846 0.0
C527 C 0.2245 0.62374 0.40143 0.0
N528 N 0.20075 0.56123 0.49768 0.0
N529 N 0.2852 0.68513 0.51561 0.0
C530 C 0.21546 0.59457 0.50757 0.0
C531 C 0.25914 0.65817 0.5119 0.0
N532 N 0.20247 0.57872 0.73358 0.0
N533 N 0.26214 0.67919 0.2903 0.0
H534 H 0.29141 0.68876 0.59955 0.0
H535 H 0.30244 0.70135 0.43637 0.0
H536 H 0.25524 0.6753 0.20745 0.0
H537 H 0.27779 0.70395 0.28365 0.0
H538 H 0.18453 0.55546 0.73956 0.0
H539 H 0.20598 0.5838 0.81907 0.0
H540 H 0.19513 0.53844 0.57097 0.0
H541 H 0.19779 0.55591 0.4121 0.0
C542 C 0.16932 0.44448 0.43326 0.0
C543 C 0.16654 0.42645 0.33498 0.0
C544 C 0.11876 0.46099 0.28304 0.0
C545 C 0.11906 0.47635 0.38847 0.0
N546 N 0.14181 0.48009 0.57238 0.0
N547 N 0.13479 0.41297 0.17905 0.0
C548 C 0.14359 0.46734 0.46604 0.0
C549 C 0.14009 0.43336 0.26363 0.0
N550 N 0.19737 0.44081 0.49212 0.0
N551 N 0.0996 0.47427 0.19751 0.0
H552 H 0.15005 0.39266 0.1615 0.0
H553 H 0.11333 0.41406 0.13408 0.0
H554 H 0.08478 0.49539 0.20677 0.0
H555 H 0.10128 0.46702 0.11203 0.0
H556 H 0.20325 0.45629 0.55477 0.0
H557 H 0.21666 0.4243 0.4709 0.0
H558 H 0.15598 0.47123 0.64051 0.0
H559 H 0.12418 0.49785 0.59678 0.0
C560 C 1.01491 1.02648 0.96486 0.0
C561 C 1.04052 0.05024 0.86648 0.0
C562 C 0.0712 0.07278 0.0159 0.0
C563 C 0.04707 1.04732 0.11381 0.0
N564 N 0.99896 0.99669 0.18421 0.0
N565 N 0.09635 0.0916 0.79445 0.0
C566 C 1.01973 1.02319 0.08906 0.0
C567 C 0.06964 0.07218 0.89085 0.0
N568 N 0.98583 1.00748 0.93924 0.0
N569 N 0.09501 0.09806 0.04268 0.0
H570 H 0.09592 0.09217 0.70149 0.0
H571 H 0.12022 0.10496 0.80637 0.0
H572 H 0.09753 0.09863 0.13331 0.0
H573 H 0.11051 0.11997 -0.02375 0.0
H574 H 0.96427 0.99235 0.00711 0.0
H575 H 0.98195 1.00885 0.8489 0.0
H576 H 0.98077 0.97605 0.17162 0.0
H577 H 1.00181 0.99364 0.2762 0.0
C578 C 0.24966 0.78258 0.34723 0.0
C579 C 0.28316 0.78106 0.38425 0.0
C580 C 0.31391 0.78464 0.16905 0.0
C581 C 0.28051 0.78686 0.13185 0.0
N582 N 0.21838 0.79516 0.17808 0.0
N583 N 0.3453 0.77288 0.33838 0.0
C584 C 0.24876 0.78732 0.21919 0.0
C585 C 0.31491 0.78045 0.29696 0.0
N586 N 0.21852 0.77914 0.43414 0.0
N587 N 0.34479 0.78677 0.08222 0.0
H588 H 0.34645 0.76802 0.43214 0.0
H589 H 0.36836 0.76788 0.28291 0.0
H590 H 0.34533 0.78634 -0.0105 0.0
H591 H 0.37046 0.79071 0.09994 0.0
H592 H 0.19303 0.77436 0.41552 0.0
H593 H 0.2176 0.77907 0.5274 0.0
H594 H 0.19551 0.80031 0.23425 0.0
H595 H 0.21704 0.80009 0.08442 0.0
C596 C 0.5168 0.06338 0.53441 0.0
C597 C 0.54591 0.05445 0.58971 0.0
C598 C 0.57874 1.044 0.39347 0.0
C599 C 0.54864 0.05065 0.34006 0.0
N600 N 0.48735 0.06325 0.36213 0.0
N601 N 0.60167 1.02981 0.58154 0.0
C602 C 0.5171 0.05911 0.41153 0.0
C603 C 0.57621 1.04317 0.52179 0.0
N604 N 0.48972 0.07779 0.59703 0.0
N605 N 0.60975 1.03837 0.32188 0.0
H606 H 0.60079 1.02846 0.67568 0.0
H607 H 0.622 1.01702 0.54117 0.0
H608 H 0.61196 1.036 0.23005 0.0
H609 H 0.63402 1.0382 0.35097 0.0
H610 H 0.47048 0.08981 0.55557 0.0
H611 H 0.48796 0.08033 0.68867 0.0
H612 H 0.46212 0.06397 0.41486 0.0
H613 H 0.48742 0.06491 0.2685 0.0
C614 C 0.26796 0.27532 0.83237 0.0
C615 C 0.29376 0.30102 0.85759 0.0
C616 C 0.32505 0.31649 0.63852 0.0
C617 C 0.29803 0.29244 0.61188 0.0
N618 N 0.2425 0.25081 0.67777 0.0
N619 N 0.34363 0.34967 0.78614 0.0
C620 C 0.26908 0.27236 0.70736 0.0
C621 C 0.32146 0.32263 0.76095 0.0
N622 N 0.24302 0.25312 0.9286 0.0
N623 N 0.35431 0.33303 0.54692 0.0
H624 H 0.34128 0.35499 0.87482 0.0
H625 H 0.36232 0.36874 0.71842 0.0
H626 H 0.35754 0.32945 0.45591 0.0
H627 H 0.37667 0.34817 0.56232 0.0
H628 H 0.22617 0.2309 0.91916 0.0
H629 H 0.24027 0.2558 0.0205 0.0
H630 H 0.2184 0.23889 0.73927 0.0
H631 H 0.24394 0.24597 0.58877 0.0
C632 C 0.81712 0.27556 0.8119 0.0
C633 C 0.8084 0.3066 0.85761 0.0
C634 C 0.78361 0.32799 0.67331 0.0
C635 C 0.79242 0.29704 0.62731 0.0
N636 N 0.8133 0.23873 0.65946 0.0
N637 N 0.78816 0.36523 0.82386 0.0
C638 C 0.80792 0.27004 0.69861 0.0
C639 C 0.79312 0.33369 0.78585 0.0
N640 N 0.83619 0.25243 0.87382 0.0
N641 N 0.76399 0.35079 0.61279 0.0
H642 H 0.79203 0.36979 0.90921 0.0
H643 H 0.78211 0.38809 0.76788 0.0
H644 H 0.75577 0.34693 0.5322 0.0
H645 H 0.75302 0.37162 0.64719 0.0
H646 H 0.84694 0.23134 0.84053 0.0
H647 H 0.84406 0.2561 0.95513 0.0
H648 H 0.81966 0.21588 0.71443 0.0
H649 H 0.80959 0.23439 0.5737 0.0
C650 C 0.76775 0.77613 0.32635 0.0
C651 C 0.79299 0.8025 0.35107 0.0
C652 C 0.82022 0.82222 0.12891 0.0
C653 C 0.79723 0.79361 0.10551 0.0
N654 N 0.75175 0.74083 0.18057 0.0
N655 N 0.84615 0.84749 0.28078 0.0
C656 C 0.77172 0.76979 0.20403 0.0
C657 C 0.82012 0.82464 0.25369 0.0
N658 N 0.73967 0.75769 0.41954 0.0
N659 N 0.84118 0.84787 0.03163 0.0
H660 H 0.84612 0.85098 0.37075 0.0
H661 H 0.86902 0.86118 0.2157 0.0
H662 H 0.842 0.84694 0.93898 0.0
H663 H 0.85557 0.87154 0.04212 0.0
H664 H 0.71844 0.74054 0.40568 0.0
H665 H 0.73604 0.76175 0.51005 0.0
H666 H 0.73512 0.72036 0.24971 0.0
H667 H 0.75394 0.73571 0.09165 0.0
C668 C 0.51806 0.52597 0.58072 0.0
C669 C 0.55015 0.54248 0.60614 0.0
C670 C 0.57529 0.56469 0.38309 0.0
C671 C 0.54401 0.54656 0.35775 0.0
N672 N 0.48808 0.50562 0.4285 0.0
N673 N 0.61078 0.57408 0.53544 0.0
C674 C 0.51595 0.52611 0.45551 0.0
C675 C 0.57928 0.56074 0.50831 0.0
N676 N 0.48949 0.51042 0.67646 0.0
N677 N 0.60065 0.5865 0.2872 0.0
H678 H 0.61411 0.57272 0.62626 0.0
H679 H 0.63438 0.58434 0.4691 0.0
H680 H 0.59883 0.58954 0.19426 0.0
H681 H 0.62219 0.60362 0.29922 0.0
H682 H 0.46394 0.50193 0.66388 0.0
H683 H 0.49072 0.50763 0.76986 0.0
H684 H 0.46884 0.48681 0.49514 0.0
H685 H 0.48553 0.50552 0.33766 0.0
C686 C 0.05718 0.59378 0.83979 0.0
C687 C 0.06049 0.56056 0.8009 0.0
C688 C 1.04332 0.52682 0.01818 0.0
C689 C 1.04508 0.56016 0.05837 0.0
N690 N 0.05269 0.62578 0.00737 0.0
N691 N 0.06418 0.49657 0.854 0.0
C692 C 0.05198 0.59375 0.96881 0.0
C693 C 0.05565 0.52746 0.8905 0.0
N694 N 0.05658 0.62497 0.75513 0.0
N695 N 1.02923 0.49442 0.09967 0.0
H696 H 0.07416 0.49603 0.76146 0.0
H697 H 0.06511 0.47258 0.91651 0.0
H698 H 1.01966 0.49147 0.19443 0.0
H699 H 1.02379 0.47033 0.07072 0.0
H700 H 0.04972 0.64877 0.77973 0.0
H701 H 0.05967 0.62667 0.66001 0.0
H702 H 0.06325 0.65101 0.94847 0.0
H703 H 1.04346 0.62708 0.09967 0.0
loop_
_geom_bond_atom_site_label_1
_geom_bond_atom_site_label_2
_geom_bond_distance
_geom_bond_site_symmetry_2
_ccdc_geom_bond_type
C0 O16 1.246 1_645 S
C0 O18 1.258 . S
N1 C2 1.333 . S
N1 C6 1.307 . S
N1 Zn7 2.020 . S
C2 N1 1.333 . S
C2 C3 1.379 . S
C2 H20 0.952 . S
C3 C2 1.379 . S
C3 C4 1.390 . S
C3 H30 0.949 . S
C4 C3 1.390 . S
C4 C5 1.357 . S
C5 C4 1.357 . S
C5 C6 1.370 . S
C5 H31 0.950 . S
C6 N1 1.307 . S
C6 C5 1.370 . S
C6 H24 0.948 . S
Zn7 N1 2.020 . S
Zn7 O16 2.039 . S
Zn7 O22 2.034 1_565 S
Zn7 O26 2.025 . S
Zn7 O28 2.024 1_455 S
C8 O27 1.246 . S
C8 O28 1.249 . S
N9 C10 1.307 . S
N9 C11 1.333 . S
N9 Zn15 2.020 . S
C10 N9 1.307 . S
C10 C14 1.370 . S
C10 H21 0.948 . S
C11 N9 1.333 . S
C11 C12 1.379 . S
C11 H19 0.952 . S
C12 C11 1.379 . S
C12 C13 1.390 . S
C12 H32 0.949 . S
C13 C12 1.390 . S
C13 C14 1.357 . S
C14 C10 1.370 . S
C14 C13 1.357 . S
C14 H33 0.950 . S
Zn15 N9 2.020 . S
Zn15 O18 2.025 . S
Zn15 O23 2.024 1_655 S
Zn15 O25 2.039 . S
Zn15 O27 2.034 1_545 S
O16 C0 1.246 1_465 S
O16 Zn7 2.039 . S
C17 O22 1.246 . S
C17 O23 1.249 . S
O18 C0 1.258 . S
O18 Zn15 2.025 . S
H19 C11 0.952 . S
H20 C2 0.952 . S
H21 C10 0.948 . S
O22 Zn7 2.034 1_545 S
O22 C17 1.246 . S
O23 Zn15 2.024 1_455 S
O23 C17 1.249 . S
H24 C6 0.948 . S
O25 Zn15 2.039 . S
O25 C29 1.248 1_655 S
O26 Zn7 2.025 . S
O26 C29 1.256 1_565 S
O27 C8 1.246 . S
O27 Zn15 2.034 1_565 S
O28 Zn7 2.024 1_655 S
O28 C8 1.249 . S
C29 O25 1.248 1_455 S
C29 O26 1.256 1_545 S
H30 C3 0.949 . S
H31 C5 0.950 . S
H32 C12 0.949 . S
H33 C14 0.950 . S
C34 O50 1.251 1_554 S
C34 O52 1.254 1_554 S
N35 C36 1.333 . S
N35 C40 1.307 . S
N35 Zn41 2.020 . S
C36 N35 1.333 . S
C36 C37 1.379 . S
C36 H54 0.952 . S
C37 C36 1.379 . S
C37 C38 1.390 . S
C37 H64 0.949 . S
C38 C37 1.390 . S
C38 C39 1.357 . S
C39 C38 1.357 . S
C39 C40 1.370 . S
C39 H65 0.950 . S
C40 N35 1.307 . S
C40 C39 1.370 . S
C40 H58 0.948 . S
Zn41 N35 2.020 . S
Zn41 O50 2.039 . S
Zn41 O56 2.034 . S
Zn41 O60 2.025 . S
Zn41 O62 2.024 . S
C42 O61 1.246 . S
C42 O62 1.249 . S
N43 C44 1.307 . S
N43 C45 1.333 . S
N43 Zn49 2.020 . S
C44 N43 1.307 . S
C44 C48 1.370 . S
C44 H55 0.948 . S
C45 N43 1.333 . S
C45 C46 1.379 . S
C45 H53 0.952 . S
C46 C45 1.379 . S
C46 C47 1.390 . S
C46 H66 0.949 . S
C47 C46 1.390 . S
C47 C48 1.357 . S
C48 C44 1.370 . S
C48 C47 1.357 . S
C48 H67 0.950 . S
Zn49 N43 2.020 . S
Zn49 O52 2.025 . S
Zn49 O57 2.024 . S
Zn49 O59 2.039 . S
Zn49 O61 2.034 . S
O50 C34 1.251 1_556 S
O50 Zn41 2.039 . S
C51 O56 1.246 . S
C51 O57 1.249 . S
O52 C34 1.254 1_556 S
O52 Zn49 2.025 . S
H53 C45 0.952 . S
H54 C36 0.952 . S
H55 C44 0.948 . S
O56 Zn41 2.034 . S
O56 C51 1.246 . S
O57 Zn49 2.024 . S
O57 C51 1.249 . S
H58 C40 0.948 . S
O59 Zn49 2.039 . S
O59 C63 1.251 . S
O60 Zn41 2.025 . S
O60 C63 1.254 . S
O61 C42 1.246 . S
O61 Zn49 2.034 . S
O62 Zn41 2.024 . S
O62 C42 1.249 . S
C63 O59 1.251 . S
C63 O60 1.254 . S
H64 C37 0.949 . S
H65 C39 0.950 . S
H66 C46 0.949 . S
H67 C48 0.950 . S
C68 O84 1.251 1_545 S
C68 O86 1.254 . S
N69 C70 1.333 1_554 S
N69 C74 1.307 . S
N69 Zn75 2.020 . S
C70 N69 1.333 1_556 S
C70 C71 1.379 . S
C70 H88 0.952 . S
C71 C70 1.379 . S
C71 C72 1.390 1_556 S
C71 H98 0.949 . S
C72 C71 1.390 1_554 S
C72 C73 1.357 . S
C73 C72 1.357 . S
C73 C74 1.370 . S
C73 H99 0.950 . S
C74 N69 1.307 . S
C74 C73 1.370 . S
C74 H92 0.948 . S
Zn75 N69 2.020 . S
Zn75 O84 2.039 1_554 S
Zn75 O90 2.034 1_565 S
Zn75 O94 2.025 . S
Zn75 O96 2.024 1_554 S
C76 O95 1.246 . S
C76 O96 1.249 . S
N77 C78 1.307 . S
N77 C79 1.333 1_556 S
N77 Zn83 2.020 . S
C78 N77 1.307 . S
C78 C82 1.370 . S
C78 H89 0.948 . S
C79 N77 1.333 1_554 S
C79 C80 1.379 . S
C79 H87 0.952 . S
C80 C79 1.379 . S
C80 C81 1.390 1_554 S
C80 H100 0.949 . S
C81 C80 1.390 1_556 S
C81 C82 1.357 . S
C82 C78 1.370 . S
C82 C81 1.357 . S
C82 H101 0.950 . S
Zn83 N77 2.020 . S
Zn83 O86 2.025 . S
Zn83 O91 2.024 1_556 S
Zn83 O93 2.039 1_556 S
Zn83 O95 2.034 1_545 S
O84 C68 1.251 1_565 S
O84 Zn75 2.039 1_556 S
C85 O90 1.246 . S
C85 O91 1.249 . S
O86 C68 1.254 . S
O86 Zn83 2.025 . S
H87 C79 0.952 . S
H88 C70 0.952 . S
H89 C78 0.948 . S
O90 Zn75 2.034 1_545 S
O90 C85 1.246 . S
O91 Zn83 2.024 1_554 S
O91 C85 1.249 . S
H92 C74 0.948 . S
O93 Zn83 2.039 1_554 S
O93 C97 1.251 1_545 S
O94 Zn75 2.025 . S
O94 C97 1.254 . S
O95 C76 1.246 . S
O95 Zn83 2.034 1_565 S
O96 Zn75 2.024 1_556 S
O96 C76 1.249 . S
C97 O93 1.251 1_565 S
C97 O94 1.254 . S
H98 C71 0.949 . S
H99 C73 0.950 . S
H100 C80 0.949 . S
H101 C82 0.950 . S
C102 O118 1.251 . S
C102 O120 1.254 . S
N103 C104 1.333 . S
N103 C108 1.307 . S
N103 Zn109 2.020 . S
C104 N103 1.333 . S
C104 C105 1.379 . S
C104 H122 0.952 . S
C105 C104 1.379 . S
C105 C106 1.390 . S
C105 H132 0.949 . S
C106 C105 1.390 . S
C106 C107 1.357 . S
C107 C106 1.357 . S
C107 C108 1.370 . S
C107 H133 0.950 . S
C108 N103 1.307 . S
C108 C107 1.370 . S
C108 H126 0.948 . S
Zn109 N103 2.020 . S
Zn109 O118 2.039 . S
Zn109 O124 2.034 . S
Zn109 O128 2.025 . S
Zn109 O130 2.024 . S
C110 O129 1.246 . S
C110 O130 1.249 . S
N111 C112 1.307 . S
N111 C113 1.333 . S
N111 Zn117 2.020 . S
C112 N111 1.307 . S
C112 C116 1.370 . S
C112 H123 0.948 . S
C113 N111 1.333 . S
C113 C114 1.379 . S
C113 H121 0.952 . S
C114 C113 1.379 . S
C114 C115 1.390 . S
C114 H134 0.949 . S
C115 C114 1.390 . S
C115 C116 1.357 . S
C116 C112 1.370 . S
C116 C115 1.357 . S
C116 H135 0.950 . S
Zn117 N111 2.020 . S
Zn117 O120 2.025 . S
Zn117 O125 2.024 . S
Zn117 O127 2.039 . S
Zn117 O129 2.034 . S
O118 C102 1.251 . S
O118 Zn109 2.039 . S
C119 O124 1.246 . S
C119 O125 1.249 . S
O120 C102 1.254 . S
O120 Zn117 2.025 . S
H121 C113 0.952 . S
H122 C104 0.952 . S
H123 C112 0.948 . S
O124 Zn109 2.034 . S
O124 C119 1.246 . S
O125 Zn117 2.024 . S
O125 C119 1.249 . S
H126 C108 0.948 . S
O127 Zn117 2.039 . S
O127 C131 1.251 . S
O128 Zn109 2.025 . S
O128 C131 1.254 . S
O129 C110 1.246 . S
O129 Zn117 2.034 . S
O130 Zn109 2.024 . S
O130 C110 1.249 . S
C131 O127 1.251 . S
C131 O128 1.254 . S
H132 C105 0.949 . S
H133 C107 0.950 . S
H134 C114 0.949 . S
H135 C116 0.950 . S
C136 O152 1.251 . S
C136 O154 1.254 . S
N137 C138 1.333 . S
N137 C142 1.307 . S
N137 Zn143 2.020 . S
C138 N137 1.333 . S
C138 C139 1.379 . S
C138 H156 0.952 . S
C139 C138 1.379 . S
C139 C140 1.390 . S
C139 H166 0.949 . S
C140 C139 1.390 . S
C140 C141 1.357 . S
C141 C140 1.357 . S
C141 C142 1.370 . S
C141 H167 0.950 . S
C142 N137 1.307 . S
C142 C141 1.370 . S
C142 H160 0.948 . S
Zn143 N137 2.020 . S
Zn143 O152 2.039 . S
Zn143 O158 2.034 . S
Zn143 O162 2.025 . S
Zn143 O164 2.024 . S
C144 O163 1.246 . S
C144 O164 1.249 . S
N145 C146 1.307 . S
N145 C147 1.333 . S
N145 Zn151 2.020 . S
C146 N145 1.307 . S
C146 C150 1.370 . S
C146 H157 0.948 . S
C147 N145 1.333 . S
C147 C148 1.379 . S
C147 H155 0.952 . S
C148 C147 1.379 . S
C148 C149 1.390 . S
C148 H168 0.949 . S
C149 C148 1.390 . S
C149 C150 1.357 . S
C150 C146 1.370 . S
C150 C149 1.357 . S
C150 H169 0.950 . S
Zn151 N145 2.020 . S
Zn151 O154 2.025 . S
Zn151 O159 2.024 . S
Zn151 O161 2.039 . S
Zn151 O163 2.034 . S
O152 C136 1.251 . S
O152 Zn143 2.039 . S
C153 O158 1.246 . S
C153 O159 1.249 . S
O154 C136 1.254 . S
O154 Zn151 2.025 . S
H155 C147 0.952 . S
H156 C138 0.952 . S
H157 C146 0.948 . S
O158 Zn143 2.034 . S
O158 C153 1.246 . S
O159 Zn151 2.024 . S
O159 C153 1.249 . S
H160 C142 0.948 . S
O161 Zn151 2.039 . S
O161 C165 1.251 1_554 S
O162 Zn143 2.025 . S
O162 C165 1.254 1_554 S
O163 C144 1.246 . S
O163 Zn151 2.034 . S
O164 Zn143 2.024 . S
O164 C144 1.249 . S
C165 O161 1.251 1_556 S
C165 O162 1.254 1_556 S
H166 C139 0.949 . S
H167 C141 0.950 . S
H168 C148 0.949 . S
H169 C150 0.950 . S
C170 O186 1.251 . S
C170 O188 1.254 . S
N171 C172 1.333 . S
N171 C176 1.307 . S
N171 Zn177 2.020 . S
C172 N171 1.333 . S
C172 C173 1.379 . S
C172 H190 0.952 . S
C173 C172 1.379 . S
C173 C174 1.390 . S
C173 H200 0.949 . S
C174 C173 1.390 . S
C174 C175 1.357 . S
C175 C174 1.357 . S
C175 C176 1.370 . S
C175 H201 0.950 . S
C176 N171 1.307 . S
C176 C175 1.370 . S
C176 H194 0.948 . S
Zn177 N171 2.020 . S
Zn177 O186 2.039 . S
Zn177 O192 2.034 . S
Zn177 O196 2.025 . S
Zn177 O198 2.024 . S
C178 O197 1.246 . S
C178 O198 1.249 . S
N179 C180 1.307 . S
N179 C181 1.333 . S
N179 Zn185 2.020 . S
C180 N179 1.307 . S
C180 C184 1.370 . S
C180 H191 0.948 . S
C181 N179 1.333 . S
C181 C182 1.379 . S
C181 H189 0.952 . S
C182 C181 1.379 . S
C182 C183 1.390 . S
C182 H202 0.949 . S
C183 C182 1.390 . S
C183 C184 1.357 . S
C184 C180 1.370 . S
C184 C183 1.357 . S
C184 H203 0.950 . S
Zn185 N179 2.020 . S
Zn185 O188 2.025 . S
Zn185 O193 2.024 . S
Zn185 O195 2.039 . S
Zn185 O197 2.034 . S
O186 C170 1.251 . S
O186 Zn177 2.039 . S
C187 O192 1.246 . S
C187 O193 1.249 . S
O188 C170 1.254 . S
O188 Zn185 2.025 . S
H189 C181 0.952 . S
H190 C172 0.952 . S
H191 C180 0.948 . S
O192 Zn177 2.034 . S
O192 C187 1.246 . S
O193 Zn185 2.024 . S
O193 C187 1.249 . S
H194 C176 0.948 . S
O195 Zn185 2.039 . S
O195 C199 1.251 . S
O196 Zn177 2.025 . S
O196 C199 1.254 . S
O197 C178 1.246 . S
O197 Zn185 2.034 . S
O198 Zn177 2.024 . S
O198 C178 1.249 . S
C199 O195 1.251 . S
C199 O196 1.254 . S
H200 C173 0.949 . S
H201 C175 0.950 . S
H202 C182 0.949 . S
H203 C184 0.950 . S
C204 O220 1.251 . S
C204 O222 1.254 . S
N205 C206 1.333 . S
N205 C210 1.307 1_554 S
N205 Zn211 2.020 . S
C206 N205 1.333 . S
C206 C207 1.379 . S
C206 H224 0.952 . S
C207 C206 1.379 . S
C207 C208 1.390 . S
C207 H234 0.949 . S
C208 C207 1.390 . S
C208 C209 1.357 1_554 S
C209 C208 1.357 1_556 S
C209 C210 1.370 . S
C209 H235 0.950 . S
C210 N205 1.307 1_556 S
C210 C209 1.370 . S
C210 H228 0.948 . S
Zn211 N205 2.020 . S
Zn211 O220 2.039 . S
Zn211 O226 2.034 1_554 S
Zn211 O230 2.025 1_554 S
Zn211 O232 2.024 . S
C212 O231 1.246 . S
C212 O232 1.249 . S
N213 C214 1.307 1_556 S
N213 C215 1.333 . S
N213 Zn219 2.020 . S
C214 N213 1.307 1_554 S
C214 C218 1.370 . S
C214 H225 0.948 . S
C215 N213 1.333 . S
C215 C216 1.379 . S
C215 H223 0.952 . S
C216 C215 1.379 . S
C216 C217 1.390 . S
C216 H236 0.949 . S
C217 C216 1.390 . S
C217 C218 1.357 1_556 S
C218 C214 1.370 . S
C218 C217 1.357 1_554 S
C218 H237 0.950 . S
Zn219 N213 2.020 . S
Zn219 O222 2.025 1_556 S
Zn219 O227 2.024 . S
Zn219 O229 2.039 . S
Zn219 O231 2.034 1_556 S
O220 C204 1.251 . S
O220 Zn211 2.039 . S
C221 O226 1.246 . S
C221 O227 1.249 . S
O222 C204 1.254 . S
O222 Zn219 2.025 1_554 S
H223 C215 0.952 . S
H224 C206 0.952 . S
H225 C214 0.948 . S
O226 Zn211 2.034 1_556 S
O226 C221 1.246 . S
O227 Zn219 2.024 . S
O227 C221 1.249 . S
H228 C210 0.948 . S
O229 Zn219 2.039 . S
O229 C233 1.251 . S
O230 Zn211 2.025 1_556 S
O230 C233 1.254 . S
O231 C212 1.246 . S
O231 Zn219 2.034 1_554 S
O232 Zn211 2.024 . S
O232 C212 1.249 . S
C233 O229 1.251 . S
C233 O230 1.254 . S
H234 C207 0.949 . S
H235 C209 0.950 . S
H236 C216 0.949 . S
H237 C218 0.950 . S
C238 O254 1.251 1_455 S
C238 O256 1.254 . S
N239 C240 1.333 . S
N239 C244 1.307 . S
N239 Zn245 2.020 . S
C240 N239 1.333 . S
C240 C241 1.379 . S
C240 H258 0.952 . S
C241 C240 1.379 . S
C241 C242 1.390 . S
C241 H268 0.949 . S
C242 C241 1.390 . S
C242 C243 1.357 . S
C243 C242 1.357 . S
C243 C244 1.370 . S
C243 H269 0.950 . S
C244 N239 1.307 . S
C244 C243 1.370 . S
C244 H262 0.948 . S
Zn245 N239 2.020 . S
Zn245 O254 2.039 . S
Zn245 O260 2.034 . S
Zn245 O264 2.025 . S
Zn245 O266 2.024 1_655 S
C246 O265 1.246 . S
C246 O266 1.249 . S
N247 C248 1.307 . S
N247 C249 1.333 . S
N247 Zn253 2.020 . S
C248 N247 1.307 . S
C248 C252 1.370 . S
C248 H259 0.948 . S
C249 N247 1.333 . S
C249 C250 1.379 . S
C249 H257 0.952 . S
C250 C249 1.379 . S
C250 C251 1.390 . S
C250 H270 0.949 . S
C251 C250 1.390 . S
C251 C252 1.357 . S
C252 C248 1.370 . S
C252 C251 1.357 . S
C252 H271 0.950 . S
Zn253 N247 2.020 . S
Zn253 O256 2.025 . S
Zn253 O261 2.024 1_455 S
Zn253 O263 2.039 . S
Zn253 O265 2.034 . S
O254 C238 1.251 1_655 S
O254 Zn245 2.039 . S
C255 O260 1.246 . S
C255 O261 1.249 . S
O256 C238 1.254 . S
O256 Zn253 2.025 . S
H257 C249 0.952 . S
H258 C240 0.952 . S
H259 C248 0.948 . S
O260 Zn245 2.034 . S
O260 C255 1.246 . S
O261 Zn253 2.024 1_655 S
O261 C255 1.249 . S
H262 C244 0.948 . S
O263 Zn253 2.039 . S
O263 C267 1.251 1_455 S
O264 Zn245 2.025 . S
O264 C267 1.254 . S
O265 C246 1.246 . S
O265 Zn253 2.034 . S
O266 Zn245 2.024 1_455 S
O266 C246 1.249 . S
C267 O263 1.251 1_655 S
C267 O264 1.254 . S
H268 C241 0.949 . S
H269 C243 0.950 . S
H270 C250 0.949 . S
H271 C252 0.950 . S
C272 C273 1.363 . S
C272 C278 1.379 . S
C272 N280 1.356 . S
C273 C272 1.363 . S
C273 C279 1.363 . S
C274 C275 1.363 . S
C274 C279 1.379 . S
C274 N281 1.356 . S
C275 C274 1.363 . S
C275 C278 1.363 . S
N276 C278 1.356 . S
N276 H288 0.984 . S
N276 H289 0.985 . S
N277 C279 1.356 . S
N277 H282 0.984 . S
N277 H283 0.985 . S
C278 C272 1.379 . S
C278 C275 1.363 . S
C278 N276 1.356 . S
C279 C273 1.363 . S
C279 C274 1.379 . S
C279 N277 1.356 . S
N280 C272 1.356 . S
N280 H286 0.984 . S
N280 H287 0.984 . S
N281 C274 1.356 . S
N281 H284 0.984 . S
N281 H285 0.985 . S
H282 N277 0.984 . S
H283 N277 0.985 . S
H284 N281 0.984 . S
H285 N281 0.985 . S
H286 N280 0.984 . S
H287 N280 0.984 . S
H288 N276 0.984 . S
H289 N276 0.985 . S
C290 C291 1.363 . S
C290 C296 1.379 . S
C290 N298 1.356 . S
C291 C290 1.363 . S
C291 C297 1.363 . S
C292 C293 1.363 . S
C292 C297 1.379 . S
C292 N299 1.356 . S
C293 C292 1.363 . S
C293 C296 1.363 . S
N294 C296 1.356 . S
N294 H306 0.984 . S
N294 H307 0.985 . S
N295 C297 1.356 . S
N295 H300 0.984 . S
N295 H301 0.985 . S
C296 C290 1.379 . S
C296 C293 1.363 . S
C296 N294 1.356 . S
C297 C291 1.363 . S
C297 C292 1.379 . S
C297 N295 1.356 . S
N298 C290 1.356 . S
N298 H304 0.984 . S
N298 H305 0.984 . S
N299 C292 1.356 . S
N299 H302 0.984 . S
N299 H303 0.985 . S
H300 N295 0.984 . S
H301 N295 0.985 . S
H302 N299 0.984 . S
H303 N299 0.985 . S
H304 N298 0.984 . S
H305 N298 0.984 . S
H306 N294 0.984 . S
H307 N294 0.985 . S
C308 C309 1.363 . S
C308 C314 1.379 . S
C308 N316 1.356 . S
C309 C308 1.363 . S
C309 C315 1.363 . S
C310 C311 1.363 . S
C310 C315 1.379 . S
C310 N317 1.356 1_556 S
C311 C310 1.363 . S
C311 C314 1.363 . S
N312 C314 1.356 . S
N312 H324 0.984 . S
N312 H325 0.985 1_556 S
N313 C315 1.356 . S
N313 H318 0.984 . S
N313 H319 0.985 . S
C314 C308 1.379 . S
C314 C311 1.363 . S
C314 N312 1.356 . S
C315 C309 1.363 . S
C315 C310 1.379 . S
C315 N313 1.356 . S
N316 C308 1.356 . S
N316 H322 0.984 . S
N316 H323 0.984 . S
N317 C310 1.356 1_554 S
N317 H320 0.984 . S
N317 H321 0.985 . S
H318 N313 0.984 . S
H319 N313 0.985 . S
H320 N317 0.984 . S
H321 N317 0.985 . S
H322 N316 0.984 . S
H323 N316 0.984 . S
H324 N312 0.984 . S
H325 N312 0.985 1_554 S
C326 C327 1.363 1_556 S
C326 C332 1.379 1_556 S
C326 N334 1.356 . S
C327 C326 1.363 1_554 S
C327 C333 1.363 . S
C328 C329 1.363 . S
C328 C333 1.379 . S
C328 N335 1.356 . S
C329 C328 1.363 . S
C329 C332 1.363 . S
N330 C332 1.356 1_556 S
N330 H342 0.984 . S
N330 H343 0.985 1_556 S
N331 C333 1.356 . S
N331 H336 0.984 . S
N331 H337 0.985 . S
C332 C326 1.379 1_554 S
C332 C329 1.363 . S
C332 N330 1.356 1_554 S
C333 C327 1.363 . S
C333 C328 1.379 . S
C333 N331 1.356 . S
N334 C326 1.356 . S
N334 H340 0.984 . S
N334 H341 0.984 . S
N335 C328 1.356 . S
N335 H338 0.984 . S
N335 H339 0.985 . S
H336 N331 0.984 . S
H337 N331 0.985 . S
H338 N335 0.984 . S
H339 N335 0.985 . S
H340 N334 0.984 . S
H341 N334 0.984 . S
H342 N330 0.984 . S
H343 N330 0.985 1_554 S
C344 C345 1.363 . S
C344 C350 1.379 . S
C344 N352 1.356 . S
C345 C344 1.363 . S
C345 C351 1.363 . S
C346 C347 1.363 . S
C346 C351 1.379 . S
C346 N353 1.356 . S
C347 C346 1.363 . S
C347 C350 1.363 . S
N348 C350 1.356 . S
N348 H360 0.984 . S
N348 H361 0.985 . S
N349 C351 1.356 . S
N349 H354 0.984 . S
N349 H355 0.985 . S
C350 C344 1.379 . S
C350 C347 1.363 . S
C350 N348 1.356 . S
C351 C345 1.363 . S
C351 C346 1.379 . S
C351 N349 1.356 . S
N352 C344 1.356 . S
N352 H358 0.984 . S
N352 H359 0.984 . S
N353 C346 1.356 . S
N353 H356 0.984 . S
N353 H357 0.985 . S
H354 N349 0.984 . S
H355 N349 0.985 . S
H356 N353 0.984 . S
H357 N353 0.985 . S
H358 N352 0.984 . S
H359 N352 0.984 . S
H360 N348 0.984 . S
H361 N348 0.985 . S
C362 C363 1.363 . S
C362 C368 1.379 . S
C362 N370 1.356 . S
C363 C362 1.363 . S
C363 C369 1.363 . S
C364 C365 1.363 . S
C364 C369 1.379 . S
C364 N371 1.356 . S
C365 C364 1.363 . S
C365 C368 1.363 . S
N366 C368 1.356 . S
N366 H378 0.984 . S
N366 H379 0.985 . S
N367 C369 1.356 . S
N367 H372 0.984 . S
N367 H373 0.985 . S
C368 C362 1.379 . S
C368 C365 1.363 . S
C368 N366 1.356 . S
C369 C363 1.363 . S
C369 C364 1.379 . S
C369 N367 1.356 . S
N370 C362 1.356 . S
N370 H376 0.984 . S
N370 H377 0.984 . S
N371 C364 1.356 . S
N371 H374 0.984 . S
N371 H375 0.985 . S
H372 N367 0.984 . S
H373 N367 0.985 . S
H374 N371 0.984 . S
H375 N371 0.985 . S
H376 N370 0.984 . S
H377 N370 0.984 . S
H378 N366 0.984 . S
H379 N366 0.985 . S
C380 C381 1.363 . S
C380 C386 1.379 . S
C380 N388 1.356 . S
C381 C380 1.363 . S
C381 C387 1.363 . S
C382 C383 1.363 . S
C382 C387 1.379 . S
C382 N389 1.356 1_554 S
C383 C382 1.363 . S
C383 C386 1.363 . S
N384 C386 1.356 1_556 S
N384 H396 0.984 1_556 S
N384 H397 0.985 . S
N385 C387 1.356 . S
N385 H390 0.984 . S
N385 H391 0.985 . S
C386 C380 1.379 . S
C386 C383 1.363 . S
C386 N384 1.356 1_554 S
C387 C381 1.363 . S
C387 C382 1.379 . S
C387 N385 1.356 . S
N388 C380 1.356 . S
N388 H394 0.984 . S
N388 H395 0.984 . S
N389 C382 1.356 1_556 S
N389 H392 0.984 . S
N389 H393 0.985 . S
H390 N385 0.984 . S
H391 N385 0.985 . S
H392 N389 0.984 . S
H393 N389 0.985 . S
H394 N388 0.984 . S
H395 N388 0.984 . S
H396 N384 0.984 1_554 S
H397 N384 0.985 . S
C398 C399 1.363 . S
C398 C404 1.379 . S
C398 N406 1.356 . S
C399 C398 1.363 . S
C399 C405 1.363 . S
C400 C401 1.363 . S
C400 C405 1.379 . S
C400 N407 1.356 . S
C401 C400 1.363 . S
C401 C404 1.363 . S
N402 C404 1.356 1_554 S
N402 H414 0.984 . S
N402 H415 0.985 . S
N403 C405 1.356 . S
N403 H408 0.984 . S
N403 H409 0.985 . S
C404 C398 1.379 . S
C404 C401 1.363 . S
C404 N402 1.356 1_556 S
C405 C399 1.363 . S
C405 C400 1.379 . S
C405 N403 1.356 . S
N406 C398 1.356 . S
N406 H412 0.984 1_556 S
N406 H413 0.984 . S
N407 C400 1.356 . S
N407 H410 0.984 . S
N407 H411 0.985 . S
H408 N403 0.984 . S
H409 N403 0.985 . S
H410 N407 0.984 . S
H411 N407 0.985 . S
H412 N406 0.984 1_554 S
H413 N406 0.984 . S
H414 N402 0.984 . S
H415 N402 0.985 . S
C416 C417 1.363 . S
C416 C422 1.379 . S
C416 N424 1.356 1_556 S
C417 C416 1.363 . S
C417 C423 1.363 . S
C418 C419 1.363 . S
C418 C423 1.379 . S
C418 N425 1.356 . S
C419 C418 1.363 . S
C419 C422 1.363 . S
N420 C422 1.356 . S
N420 H432 0.984 1_556 S
N420 H433 0.985 . S
N421 C423 1.356 . S
N421 H426 0.984 . S
N421 H427 0.985 . S
C422 C416 1.379 . S
C422 C419 1.363 . S
C422 N420 1.356 . S
C423 C417 1.363 . S
C423 C418 1.379 . S
C423 N421 1.356 . S
N424 C416 1.356 1_554 S
N424 H430 0.984 . S
N424 H431 0.984 . S
N425 C418 1.356 . S
N425 H428 0.984 . S
N425 H429 0.985 . S
H426 N421 0.984 . S
H427 N421 0.985 . S
H428 N425 0.984 . S
H429 N425 0.985 . S
H430 N424 0.984 . S
H431 N424 0.984 . S
H432 N420 0.984 1_554 S
H433 N420 0.985 . S
C434 C435 1.363 . S
C434 C440 1.379 . S
C434 N442 1.356 . S
C435 C434 1.363 . S
C435 C441 1.363 . S
C436 C437 1.363 . S
C436 C441 1.379 . S
C436 N443 1.356 1_554 S
C437 C436 1.363 . S
C437 C440 1.363 . S
N438 C440 1.356 . S
N438 H450 0.984 . S
N438 H451 0.985 . S
N439 C441 1.356 . S
N439 H444 0.984 . S
N439 H445 0.985 1_554 S
C440 C434 1.379 . S
C440 C437 1.363 . S
C440 N438 1.356 . S
C441 C435 1.363 . S
C441 C436 1.379 . S
C441 N439 1.356 . S
N442 C434 1.356 . S
N442 H448 0.984 . S
N442 H449 0.984 . S
N443 C436 1.356 1_556 S
N443 H446 0.984 . S
N443 H447 0.985 . S
H444 N439 0.984 . S
H445 N439 0.985 1_556 S
H446 N443 0.984 . S
H447 N443 0.985 . S
H448 N442 0.984 . S
H449 N442 0.984 . S
H450 N438 0.984 . S
H451 N438 0.985 . S
C452 C453 1.363 . S
C452 C458 1.379 . S
C452 N460 1.356 . S
C453 C452 1.363 . S
C453 C459 1.363 . S
C454 C455 1.363 . S
C454 C459 1.379 . S
C454 N461 1.356 . S
C455 C454 1.363 . S
C455 C458 1.363 . S
N456 C458 1.356 . S
N456 H468 0.984 . S
N456 H469 0.985 . S
N457 C459 1.356 . S
N457 H462 0.984 . S
N457 H463 0.985 . S
C458 C452 1.379 . S
C458 C455 1.363 . S
C458 N456 1.356 . S
C459 C453 1.363 . S
C459 C454 1.379 . S
C459 N457 1.356 . S
N460 C452 1.356 . S
N460 H466 0.984 . S
N460 H467 0.984 . S
N461 C454 1.356 . S
N461 H464 0.984 . S
N461 H465 0.985 . S
H462 N457 0.984 . S
H463 N457 0.985 . S
H464 N461 0.984 . S
H465 N461 0.985 . S
H466 N460 0.984 . S
H467 N460 0.984 . S
H468 N456 0.984 . S
H469 N456 0.985 . S
C470 C471 1.363 . S
C470 C476 1.379 . S
C470 N478 1.356 . S
C471 C470 1.363 . S
C471 C477 1.363 . S
C472 C473 1.363 . S
C472 C477 1.379 . S
C472 N479 1.356 . S
C473 C472 1.363 . S
C473 C476 1.363 . S
N474 C476 1.356 . S
N474 H486 0.984 . S
N474 H487 0.985 . S
N475 C477 1.356 . S
N475 H480 0.984 . S
N475 H481 0.985 . S
C476 C470 1.379 . S
C476 C473 1.363 . S
C476 N474 1.356 . S
C477 C471 1.363 . S
C477 C472 1.379 . S
C477 N475 1.356 . S
N478 C470 1.356 . S
N478 H484 0.984 . S
N478 H485 0.984 . S
N479 C472 1.356 . S
N479 H482 0.984 . S
N479 H483 0.985 . S
H480 N475 0.984 . S
H481 N475 0.985 . S
H482 N479 0.984 . S
H483 N479 0.985 . S
H484 N478 0.984 . S
H485 N478 0.984 . S
H486 N474 0.984 . S
H487 N474 0.985 . S
C488 C489 1.363 . S
C488 C494 1.379 . S
C488 N496 1.356 . S
C489 C488 1.363 . S
C489 C495 1.363 . S
C490 C491 1.363 . S
C490 C495 1.379 . S
C490 N497 1.356 1_554 S
C491 C490 1.363 . S
C491 C494 1.363 . S
N492 C494 1.356 . S
N492 H504 0.984 . S
N492 H505 0.985 . S
N493 C495 1.356 . S
N493 H498 0.984 . S
N493 H499 0.985 1_554 S
C494 C488 1.379 . S
C494 C491 1.363 . S
C494 N492 1.356 . S
C495 C489 1.363 . S
C495 C490 1.379 . S
C495 N493 1.356 . S
N496 C488 1.356 . S
N496 H502 0.984 . S
N496 H503 0.984 . S
N497 C490 1.356 1_556 S
N497 H500 0.984 . S
N497 H501 0.985 . S
H498 N493 0.984 . S
H499 N493 0.985 1_556 S
H500 N497 0.984 . S
H501 N497 0.985 . S
H502 N496 0.984 . S
H503 N496 0.984 . S
H504 N492 0.984 . S
H505 N492 0.985 . S
C506 C507 1.363 . S
C506 C512 1.379 . S
C506 N514 1.356 1_556 S
C507 C506 1.363 . S
C507 C513 1.363 . S
C508 C509 1.363 . S
C508 C513 1.379 . S
C508 N515 1.356 . S
C509 C508 1.363 . S
C509 C512 1.363 . S
N510 C512 1.356 . S
N510 H522 0.984 1_556 S
N510 H523 0.985 . S
N511 C513 1.356 . S
N511 H516 0.984 . S
N511 H517 0.985 . S
C512 C506 1.379 . S
C512 C509 1.363 . S
C512 N510 1.356 . S
C513 C507 1.363 . S
C513 C508 1.379 . S
C513 N511 1.356 . S
N514 C506 1.356 1_554 S
N514 H520 0.984 . S
N514 H521 0.984 . S
N515 C508 1.356 . S
N515 H518 0.984 . S
N515 H519 0.985 . S
H516 N511 0.984 . S
H517 N511 0.985 . S
H518 N515 0.984 . S
H519 N515 0.985 . S
H520 N514 0.984 . S
H521 N514 0.984 . S
H522 N510 0.984 1_554 S
H523 N510 0.985 . S
C524 C525 1.363 . S
C524 C530 1.379 . S
C524 N532 1.356 . S
C525 C524 1.363 . S
C525 C531 1.363 . S
C526 C527 1.363 . S
C526 C531 1.379 . S
C526 N533 1.356 . S
C527 C526 1.363 . S
C527 C530 1.363 . S
N528 C530 1.356 . S
N528 H540 0.984 . S
N528 H541 0.985 . S
N529 C531 1.356 . S
N529 H534 0.984 . S
N529 H535 0.985 . S
C530 C524 1.379 . S
C530 C527 1.363 . S
C530 N528 1.356 . S
C531 C525 1.363 . S
C531 C526 1.379 . S
C531 N529 1.356 . S
N532 C524 1.356 . S
N532 H538 0.984 . S
N532 H539 0.984 . S
N533 C526 1.356 . S
N533 H536 0.984 . S
N533 H537 0.985 . S
H534 N529 0.984 . S
H535 N529 0.985 . S
H536 N533 0.984 . S
H537 N533 0.985 . S
H538 N532 0.984 . S
H539 N532 0.984 . S
H540 N528 0.984 . S
H541 N528 0.985 . S
C542 C543 1.363 . S
C542 C548 1.379 . S
C542 N550 1.356 . S
C543 C542 1.363 . S
C543 C549 1.363 . S
C544 C545 1.363 . S
C544 C549 1.379 . S
C544 N551 1.356 . S
C545 C544 1.363 . S
C545 C548 1.363 . S
N546 C548 1.356 . S
N546 H558 0.984 . S
N546 H559 0.985 . S
N547 C549 1.356 . S
N547 H552 0.984 . S
N547 H553 0.985 . S
C548 C542 1.379 . S
C548 C545 1.363 . S
C548 N546 1.356 . S
C549 C543 1.363 . S
C549 C544 1.379 . S
C549 N547 1.356 . S
N550 C542 1.356 . S
N550 H556 0.984 . S
N550 H557 0.984 . S
N551 C544 1.356 . S
N551 H554 0.984 . S
N551 H555 0.985 . S
H552 N547 0.984 . S
H553 N547 0.985 . S
H554 N551 0.984 . S
H555 N551 0.985 . S
H556 N550 0.984 . S
H557 N550 0.984 . S
H558 N546 0.984 . S
H559 N546 0.985 . S
C560 C561 1.365 . S
C560 C566 1.379 1_556 S
C560 N568 1.356 . S
C561 C560 1.365 . S
C561 C567 1.360 1_665 S
C562 C563 1.372 . S
C562 C567 1.379 1_554 S
C562 N569 1.356 . S
C563 C562 1.372 . S
C563 C566 1.351 1_445 S
N564 C566 1.356 . S
N564 H576 0.984 . S
N564 H577 0.985 . S
N565 C567 1.356 . S
N565 H570 0.984 . S
N565 H571 0.985 . S
C566 C560 1.379 1_554 S
C566 C563 1.351 1_665 S
C566 N564 1.356 . S
C567 C561 1.360 1_445 S
C567 C562 1.379 1_556 S
C567 N565 1.356 . S
N568 C560 1.356 . S
N568 H574 0.984 . S
N568 H575 0.984 . S
N569 C562 1.356 . S
N569 H572 0.984 . S
N569 H573 0.985 . S
H570 N565 0.984 . S
H571 N565 0.985 . S
H572 N569 0.984 . S
H573 N569 0.985 . S
H574 N568 0.984 . S
H575 N568 0.984 . S
H576 N564 0.984 . S
H577 N564 0.985 . S
C578 C579 1.363 . S
C578 C584 1.379 . S
C578 N586 1.356 . S
C579 C578 1.363 . S
C579 C585 1.363 . S
C580 C581 1.363 . S
C580 C585 1.379 . S
C580 N587 1.356 . S
C581 C580 1.363 . S
C581 C584 1.363 . S
N582 C584 1.356 . S
N582 H594 0.984 . S
N582 H595 0.985 . S
N583 C585 1.356 . S
N583 H588 0.984 . S
N583 H589 0.985 . S
C584 C578 1.379 . S
C584 C581 1.363 . S
C584 N582 1.356 . S
C585 C579 1.363 . S
C585 C580 1.379 . S
C585 N583 1.356 . S
N586 C578 1.356 . S
N586 H592 0.984 . S
N586 H593 0.984 . S
N587 C580 1.356 . S
N587 H590 0.984 1_554 S
N587 H591 0.985 1_554 S
H588 N583 0.984 . S
H589 N583 0.985 . S
H590 N587 0.984 1_556 S
H591 N587 0.985 1_556 S
H592 N586 0.984 . S
H593 N586 0.984 . S
H594 N582 0.984 . S
H595 N582 0.985 . S
C596 C597 1.363 . S
C596 C602 1.379 . S
C596 N604 1.356 . S
C597 C596 1.363 . S
C597 C603 1.363 1_545 S
C598 C599 1.363 . S
C598 C603 1.379 . S
C598 N605 1.356 . S
C599 C598 1.363 . S
C599 C602 1.363 1_565 S
N600 C602 1.356 . S
N600 H612 0.984 . S
N600 H613 0.985 . S
N601 C603 1.356 . S
N601 H606 0.984 . S
N601 H607 0.985 . S
C602 C596 1.379 . S
C602 C599 1.363 1_545 S
C602 N600 1.356 . S
C603 C597 1.363 1_565 S
C603 C598 1.379 . S
C603 N601 1.356 . S
N604 C596 1.356 . S
N604 H610 0.984 . S
N604 H611 0.984 . S
N605 C598 1.356 . S
N605 H608 0.984 . S
N605 H609 0.985 . S
H606 N601 0.984 . S
H607 N601 0.985 . S
H608 N605 0.984 . S
H609 N605 0.985 . S
H610 N604 0.984 . S
H611 N604 0.984 . S
H612 N600 0.984 . S
H613 N600 0.985 . S
C614 C615 1.363 . S
C614 C620 1.379 . S
C614 N622 1.356 . S
C615 C614 1.363 . S
C615 C621 1.363 . S
C616 C617 1.363 . S
C616 C621 1.379 . S
C616 N623 1.356 . S
C617 C616 1.363 . S
C617 C620 1.363 . S
N618 C620 1.356 . S
N618 H630 0.984 . S
N618 H631 0.985 . S
N619 C621 1.356 . S
N619 H624 0.984 . S
N619 H625 0.985 . S
C620 C614 1.379 . S
C620 C617 1.363 . S
C620 N618 1.356 . S
C621 C615 1.363 . S
C621 C616 1.379 . S
C621 N619 1.356 . S
N622 C614 1.356 . S
N622 H628 0.984 . S
N622 H629 0.984 1_556 S
N623 C616 1.356 . S
N623 H626 0.984 . S
N623 H627 0.985 . S
H624 N619 0.984 . S
H625 N619 0.985 . S
H626 N623 0.984 . S
H627 N623 0.985 . S
H628 N622 0.984 . S
H629 N622 0.984 1_554 S
H630 N618 0.984 . S
H631 N618 0.985 . S
C632 C633 1.363 . S
C632 C638 1.379 . S
C632 N640 1.356 . S
C633 C632 1.363 . S
C633 C639 1.363 . S
C634 C635 1.363 . S
C634 C639 1.379 . S
C634 N641 1.356 . S
C635 C634 1.363 . S
C635 C638 1.363 . S
N636 C638 1.356 . S
N636 H648 0.984 . S
N636 H649 0.985 . S
N637 C639 1.356 . S
N637 H642 0.984 . S
N637 H643 0.985 . S
C638 C632 1.379 . S
C638 C635 1.363 . S
C638 N636 1.356 . S
C639 C633 1.363 . S
C639 C634 1.379 . S
C639 N637 1.356 . S
N640 C632 1.356 . S
N640 H646 0.984 . S
N640 H647 0.984 . S
N641 C634 1.356 . S
N641 H644 0.984 . S
N641 H645 0.985 . S
H642 N637 0.984 . S
H643 N637 0.985 . S
H644 N641 0.984 . S
H645 N641 0.985 . S
H646 N640 0.984 . S
H647 N640 0.984 . S
H648 N636 0.984 . S
H649 N636 0.985 . S
C650 C651 1.363 . S
C650 C656 1.379 . S
C650 N658 1.356 . S
C651 C650 1.363 . S
C651 C657 1.363 . S
C652 C653 1.363 . S
C652 C657 1.379 . S
C652 N659 1.356 . S
C653 C652 1.363 . S
C653 C656 1.363 . S
N654 C656 1.356 . S
N654 H666 0.984 . S
N654 H667 0.992 . S
N655 C657 1.356 . S
N655 H660 0.984 . S
N655 H661 0.985 . S
C656 C650 1.379 . S
C656 C653 1.363 . S
C656 N654 1.356 . S
C657 C651 1.363 . S
C657 C652 1.379 . S
C657 N655 1.356 . S
N658 C650 1.356 . S
N658 H664 0.984 . S
N658 H665 0.984 . S
N659 C652 1.356 . S
N659 H662 0.984 . S
N659 H663 0.985 . S
H660 N655 0.984 . S
H661 N655 0.985 . S
H662 N659 0.984 . S
H663 N659 0.985 . S
H664 N658 0.984 . S
H665 N658 0.984 . S
H666 N654 0.984 . S
H667 N654 0.992 . S
C668 C669 1.363 . S
C668 C674 1.379 . S
C668 N676 1.356 . S
C669 C668 1.363 . S
C669 C675 1.363 . S
C670 C671 1.363 . S
C670 C675 1.379 . S
C670 N677 1.356 . S
C671 C670 1.363 . S
C671 C674 1.363 . S
N672 C674 1.356 . S
N672 H684 0.984 . S
N672 H685 0.985 . S
N673 C675 1.356 . S
N673 H678 0.984 . S
N673 H679 0.985 . S
C674 C668 1.379 . S
C674 C671 1.363 . S
C674 N672 1.356 . S
C675 C669 1.363 . S
C675 C670 1.379 . S
C675 N673 1.356 . S
N676 C668 1.356 . S
N676 H682 0.984 . S
N676 H683 0.984 . S
N677 C670 1.356 . S
N677 H680 0.984 . S
N677 H681 0.985 . S
H678 N673 0.984 . S
H679 N673 0.985 . S
H680 N677 0.984 . S
H681 N677 0.985 . S
H682 N676 0.984 . S
H683 N676 0.984 . S
H684 N672 0.984 . S
H685 N672 0.985 . S
C686 C687 1.363 1_455 S
C686 C692 1.379 1_556 S
C686 N694 1.356 . S
C687 C686 1.363 1_655 S
C687 C693 1.363 . S
C688 C689 1.363 1_655 S
C688 C693 1.379 1_554 S
C688 N695 1.356 . S
C689 C688 1.363 1_455 S
C689 C692 1.363 . S
N690 C692 1.356 . S
N690 H702 0.984 1_554 S
N690 H703 0.985 . S
N691 C693 1.356 . S
N691 H696 0.984 . S
N691 H697 0.985 1_556 S
C692 C686 1.379 1_554 S
C692 C689 1.363 . S
C692 N690 1.356 . S
C693 C687 1.363 . S
C693 C688 1.379 1_556 S
C693 N691 1.356 . S
N694 C686 1.356 . S
N694 H700 0.984 . S
N694 H701 0.984 . S
N695 C688 1.356 . S
N695 H698 0.984 . S
N695 H699 0.985 . S
H696 N691 0.984 . S
H697 N691 0.985 1_554 S
H698 N695 0.984 . S
H699 N695 0.985 . S
H700 N694 0.984 . S
H701 N694 0.984 . S
H702 N690 0.984 1_556 S
H703 N690 0.985 . S
C273 C17 3.294 . S
C275 C119 3.294 . S
C291 C4 1.525 . S
C293 C51 1.524 . S
C309 C38 0.763 . S
C311 C72 0.763 1_556 S
C327 C85 1.524 . S
C329 C106 1.525 . S
C345 C8 3.294 . S
C347 C178 3.294 . S
C363 C13 1.525 . S
C365 C144 1.524 . S
C381 C149 0.763 . S
C383 C81 0.762 1_554 S
C399 C183 1.525 . S
C401 C76 1.524 . S
C417 C221 3.294 . S
C419 C187 3.294 . S
C435 C153 1.524 . S
C437 C208 1.525 . S
C453 C242 0.763 . S
C455 C140 0.763 . S
C471 C174 1.525 . S
C473 C255 1.524 . S
C489 C110 3.294 . S
C491 C212 3.294 . S
C507 C217 1.525 . S
C509 C42 1.524 . S
C525 C47 0.763 . S
C527 C251 0.763 . S
C543 C115 1.525 . S
C545 C246 1.524 . S
C561 C0 1.271 1_565 S
C563 C29 1.272 . S
C579 C63 1.330 . S
C581 C34 1.330 . S
C597 C68 1.330 . S
C599 C97 1.330 . S
C615 C102 1.270 1_556 S
C617 C131 1.270 . S
C633 C165 1.330 . S
C635 C136 1.330 . S
C651 C170 1.270 . S
C653 C199 1.270 1_554 S
C669 C233 1.270 . S
C671 C204 1.270 . S
C687 C267 1.330 . S
C689 C238 1.330 . S
