# Generated by pormake.
# Topology lcy-a, (4)-cn, num edge types: 1
# Building blocks:
#     Node 0, Type 0, BuildingBlock: AZAVOO_clean_sbu_0, # of connection points: 4
#     Node 1, Type 0, BuildingBlock: AZAVOO_clean_sbu_0, # of connection points: 4
#     Node 2, Type 0, BuildingBlock: AZAVOO_clean_sbu_0, # of connection points: 4
#     Node 3, Type 0, BuildingBlock: AZAVOO_clean_sbu_0, # of connection points: 4
#     Node 4, Type 0, BuildingBlock: AZAVOO_clean_sbu_0, # of connection points: 4
#     Node 5, Type 0, BuildingBlock: AZAVOO_clean_sbu_0, # of connection points: 4
#     Node 6, Type 0, BuildingBlock: AZAVOO_clean_sbu_0, # of connection points: 4
#     Node 7, Type 0, BuildingBlock: AZAVOO_clean_sbu_0, # of connection points: 4
#     Node 8, Type 0, BuildingBlock: AZAVOO_clean_sbu_0, # of connection points: 4
#     Node 9, Type 0, BuildingBlock: AZAVOO_clean_sbu_0, # of connection points: 4
#     Node 10, Type 0, BuildingBlock: AZAVOO_clean_sbu_0, # of connection points: 4
#     Node 11, Type 0, BuildingBlock: AZAVOO_clean_sbu_0, # of connection points: 4
#     Node 12, Type 0, BuildingBlock: AZAVOO_clean_sbu_0, # of connection points: 4
#     Node 13, Type 0, BuildingBlock: AZAVOO_clean_sbu_0, # of connection points: 4
#     Node 14, Type 0, BuildingBlock: AZAVOO_clean_sbu_0, # of connection points: 4
#     Node 15, Type 0, BuildingBlock: AZAVOO_clean_sbu_0, # of connection points: 4
#     Node 16, Type 0, BuildingBlock: AZAVOO_clean_sbu_0, # of connection points: 4
#     Node 17, Type 0, BuildingBlock: AZAVOO_clean_sbu_0, # of connection points: 4
#     Node 18, Type 0, BuildingBlock: AZAVOO_clean_sbu_0, # of connection points: 4
#     Node 19, Type 0, BuildingBlock: AZAVOO_clean_sbu_0, # of connection points: 4
#     Node 20, Type 0, BuildingBlock: AZAVOO_clean_sbu_0, # of connection points: 4
#     Node 21, Type 0, BuildingBlock: AZAVOO_clean_sbu_0, # of connection points: 4
#     Node 22, Type 0, BuildingBlock: AZAVOO_clean_sbu_0, # of connection points: 4
#     Node 23, Type 0, BuildingBlock: AZAVOO_clean_sbu_0, # of connection points: 4
#     Edge 24, Type (0, 0), None
#     Edge 25, Type (0, 0), None
#     Edge 26, Type (0, 0), None
#     Edge 27, Type (0, 0), None
#     Edge 28, Type (0, 0), None
#     Edge 29, Type (0, 0), None
#     Edge 30, Type (0, 0), None
#     Edge 31, Type (0, 0), None
#     Edge 32, Type (0, 0), None
#     Edge 33, Type (0, 0), None
#     Edge 34, Type (0, 0), None
#     Edge 35, Type (0, 0), None
#     Edge 36, Type (0, 0), None
#     Edge 37, Type (0, 0), None
#     Edge 38, Type (0, 0), None
#     Edge 39, Type (0, 0), None
#     Edge 40, Type (0, 0), None
#     Edge 41, Type (0, 0), None
#     Edge 42, Type (0, 0), None
#     Edge 43, Type (0, 0), None
#     Edge 44, Type (0, 0), None
#     Edge 45, Type (0, 0), None
#     Edge 46, Type (0, 0), None
#     Edge 47, Type (0, 0), None
#     Edge 48, Type (0, 0), None
#     Edge 49, Type (0, 0), None
#     Edge 50, Type (0, 0), None
#     Edge 51, Type (0, 0), None
#     Edge 52, Type (0, 0), None
#     Edge 53, Type (0, 0), None
#     Edge 54, Type (0, 0), None
#     Edge 55, Type (0, 0), None
#     Edge 56, Type (0, 0), None
#     Edge 57, Type (0, 0), None
#     Edge 58, Type (0, 0), None
#     Edge 59, Type (0, 0), None
#     Edge 60, Type (0, 0), None
#     Edge 61, Type (0, 0), None
#     Edge 62, Type (0, 0), None
#     Edge 63, Type (0, 0), None
#     Edge 64, Type (0, 0), None
#     Edge 65, Type (0, 0), None
#     Edge 66, Type (0, 0), None
#     Edge 67, Type (0, 0), None
#     Edge 68, Type (0, 0), None
#     Edge 69, Type (0, 0), None
#     Edge 70, Type (0, 0), None
#     Edge 71, Type (0, 0), None
# Relax obj value: 0.368
# Max RMSD: 0.253
# Mean RMSD: 0.253
data_MOF--net-lcy-a--node1-AZAVOO_clean_sbu_0--edge1-none
_symmetry_space_group_name_H-M    P1
_symmetry_Int_Tables_number       1
_symmetry_cell_setting            triclinic
loop_
_symmetry_equiv_pos_as_xyz
'x, y, z'
_cell_length_a     26.100673
_cell_length_b     26.102449
_cell_length_c     26.17788
_cell_angle_alpha  89.996235
_cell_angle_beta   90.009749
_cell_angle_gamma 89.998174
loop_
_atom_site_label
_atom_site_type_symbol
_atom_site_fract_x
_atom_site_fract_y
_atom_site_fract_z
_atom_type_partial_charge
Mg0 Mg 0.15646 0.31093 0.37919 0.0
O1 O 0.2137 0.23548 0.38356 0.0
O2 O 0.24314 0.25867 0.31278 0.0
Mg3 Mg 0.27765 0.33982 0.3343 0.0
C4 C 0.23935 0.22336 0.3443 0.0
C5 C 0.0887 0.23294 0.45715 0.0
O6 O 0.04295 0.22416 0.47547 0.0
O7 O 0.18434 0.33787 0.46179 0.0
O8 O 0.24798 0.34605 0.41064 0.0
O9 O 0.15226 0.30969 0.28712 0.0
O10 O 0.20164 0.36267 0.324 0.0
C11 C 0.23091 0.34975 0.45514 0.0
C12 C 0.18538 0.34607 0.28156 0.0
O13 O 0.0927 0.26505 0.42048 0.0
Mg14 Mg 0.91116 0.9064 0.62922 0.0
O15 O -0.01337 0.96362 0.63356 0.0
O16 O 0.96336 -0.00681 0.56283 0.0
Mg17 Mg 0.88222 0.02769 0.58441 0.0
C18 C -0.0013 -0.01066 0.59432 0.0
C19 C -0.01085 0.83864 0.70716 0.0
O20 O -0.00207 0.7929 0.7255 0.0
O21 O 0.88422 0.93416 0.71192 0.0
O22 O 0.87613 -0.00242 0.66055 0.0
O23 O 0.91238 0.90225 0.53716 0.0
O24 O 0.85942 0.95165 0.57403 0.0
C25 C 0.87232 0.98069 0.70511 0.0
C26 C 0.87601 0.93538 0.5316 0.0
O27 O 0.95705 0.84263 0.67047 0.0
Mg28 Mg 0.31569 0.66112 0.87922 0.0
O29 O 0.25846 0.73657 0.88356 0.0
O30 O 0.22895 0.71336 0.8128 0.0
Mg31 Mg 0.19444 0.63221 0.83436 0.0
C32 C 0.23277 0.74868 0.8443 0.0
C33 C 0.38345 0.73912 0.95716 0.0
O34 O 0.42919 0.7479 0.97549 0.0
O35 O 0.28789 0.63418 0.96188 0.0
O36 O 0.22439 0.62607 0.91058 0.0
O37 O 0.31985 0.66236 0.78715 0.0
O38 O 0.27047 0.60938 0.82403 0.0
C39 C 0.24134 0.62229 0.95512 0.0
C40 C 0.28672 0.62598 0.78159 0.0
O41 O 0.37945 0.70701 0.92049 0.0
Mg42 Mg 0.56096 0.06566 0.12925 0.0
O43 O 0.48549 0.00843 0.13357 0.0
O44 O 0.50875 0.97886 0.06286 0.0
Mg45 Mg 0.58991 0.94432 0.08447 0.0
C46 C 0.47341 0.98271 0.09433 0.0
C47 C 0.48295 0.13342 0.20715 0.0
O48 O 0.47418 0.17916 0.22548 0.0
O49 O 0.58789 0.03793 0.21198 0.0
O50 O 0.59592 0.97461 0.16054 0.0
O51 O 0.55974 0.06981 0.03719 0.0
O52 O 0.61269 0.02039 0.07409 0.0
C53 C 0.59976 -0.0086 0.20512 0.0
C54 C 0.59608 0.03666 0.03166 0.0
O55 O 0.51505 0.12943 0.17047 0.0
Mg56 Mg 0.65652 0.16112 0.59001 0.0
O57 O 0.71383 0.23654 0.58567 0.0
O58 O 0.74336 0.21322 0.65638 0.0
Mg59 Mg 0.7779 0.13227 0.63481 0.0
C60 C 0.73963 0.24854 0.62488 0.0
C61 C 0.58881 0.23912 0.51207 0.0
O62 O 0.5431 0.24794 0.49368 0.0
O63 O 0.68425 0.13417 0.50733 0.0
O64 O 0.74766 0.12616 0.55872 0.0
O65 O 0.6523 0.16233 0.68206 0.0
O66 O 0.7018 0.10941 0.64521 0.0
C67 C 0.73079 0.12229 0.51416 0.0
C68 C 0.68545 0.12597 0.68763 0.0
O69 O 0.59274 0.20702 0.54875 0.0
Mg70 Mg 0.06096 0.40651 0.84004 0.0
O71 O 0.98554 0.46383 0.83567 0.0
O72 O 0.00883 0.49331 0.9064 0.0
Mg73 Mg 0.08979 0.52785 0.88485 0.0
C74 C 0.97353 0.48962 0.87488 0.0
C75 C 0.98297 0.3388 0.76208 0.0
O76 O 0.97416 0.29308 0.7437 0.0
O77 O 0.08792 0.43429 0.7574 0.0
O78 O 0.09597 0.49778 0.80869 0.0
O79 O 0.05976 0.40228 0.93209 0.0
O80 O 0.11267 0.45176 0.89523 0.0
C81 C 0.09979 0.48084 0.76416 0.0
C82 C 0.09612 0.43542 0.93766 0.0
O83 O 0.01508 0.34273 0.79877 0.0
Mg84 Mg 0.81616 0.81142 0.09002 0.0
O85 O 0.75912 0.73527 0.08655 0.0
O86 O 0.72605 0.76108 0.15528 0.0
Mg87 Mg 0.69444 0.84268 0.12965 0.0
C88 C 0.73188 0.72455 0.12527 0.0
C89 C 0.88326 0.733 0.01197 0.0
O90 O 0.92896 0.72406 -0.00636 0.0
O91 O 0.78957 0.84331 0.00855 0.0
O92 O 0.72306 0.82489 0.05256 0.0
O93 O 0.81939 0.80976 0.18173 0.0
O94 O 0.7707 0.86335 0.14439 0.0
C95 C 0.74226 0.8504 0.01634 0.0
C96 C 0.78639 0.84628 0.18703 0.0
O97 O 0.8794 0.7653 0.04847 0.0
Mg98 Mg 0.41115 0.56556 0.34002 0.0
O99 O 0.48656 0.50824 0.33567 0.0
O100 O 0.46327 0.47876 0.40639 0.0
Mg101 Mg 0.38232 0.44421 0.38481 0.0
C102 C 0.49858 0.48245 0.37489 0.0
C103 C 0.48915 0.63326 0.26208 0.0
O104 O 0.49793 0.67897 0.24369 0.0
O105 O 0.38418 0.53781 0.25735 0.0
O106 O 0.37617 0.47436 0.30869 0.0
O107 O 0.41234 0.56977 0.43208 0.0
O108 O 0.35943 0.5203 0.3952 0.0
C109 C 0.37232 0.49127 0.26415 0.0
C110 C 0.37598 0.53663 0.43764 0.0
O111 O 0.45704 0.62933 0.29876 0.0
Mg112 Mg 0.38092 0.15637 0.30949 0.0
O113 O 0.38501 0.21365 0.23425 0.0
O114 O 0.31446 0.24391 0.25799 0.0
Mg115 Mg 0.33614 0.2784 0.33862 0.0
C116 C 0.34583 0.23985 0.22258 0.0
C117 C 0.45865 0.08855 0.23147 0.0
O118 O 0.47693 0.0428 0.22257 0.0
O119 O 0.4642 0.18373 0.33631 0.0
O120 O 0.41151 0.24591 0.34389 0.0
O121 O 0.28873 0.15212 0.30828 0.0
O122 O 0.32557 0.20197 0.36098 0.0
C123 C 0.45649 0.23004 0.34831 0.0
C124 C 0.28313 0.18539 0.34441 0.0
O125 O 0.42199 0.09254 0.26362 0.0
Mg126 Mg 0.06572 0.13089 0.55949 0.0
O127 O 0.00843 0.13499 0.48425 0.0
O128 O 0.9782 0.06444 0.50798 0.0
Mg129 Mg 0.9437 0.08612 0.58861 0.0
C130 C 0.98225 0.09581 0.47257 0.0
C131 C 0.13356 0.20861 0.48146 0.0
O132 O 0.17932 0.22687 0.47257 0.0
O133 O 0.03837 0.21417 0.58631 0.0
O134 O 0.97618 0.16149 0.59389 0.0
O135 O 0.06996 0.03869 0.5583 0.0
O136 O 0.02012 0.07554 0.61099 0.0
C137 C -0.00795 0.20647 0.59831 0.0
C138 C 0.03669 0.03309 0.59443 0.0
O139 O 0.12956 0.17195 0.51362 0.0
Mg140 Mg 0.09121 0.81566 0.80948 0.0
O141 O 0.08709 0.75839 0.73424 0.0
O142 O 0.15767 0.72818 0.75796 0.0
Mg143 Mg 0.13601 0.69368 0.83859 0.0
C144 C 0.12627 0.73221 0.72256 0.0
C145 C 0.01346 0.8835 0.73147 0.0
O146 O -0.00482 0.92925 0.72257 0.0
O147 O 0.00796 0.78829 0.83631 0.0
O148 O 0.06058 0.72603 0.84392 0.0
O149 O 0.1834 0.81993 0.80828 0.0
O150 O 0.14657 0.77008 0.86098 0.0
C151 C 0.01562 0.74196 0.84831 0.0
C152 C 0.18901 0.78666 0.84441 0.0
O153 O 0.05013 0.87951 0.76362 0.0
Mg154 Mg 0.40642 0.84115 0.05948 0.0
O155 O 0.46372 0.83703 0.98424 0.0
O156 O 0.49389 0.90761 0.00798 0.0
Mg157 Mg 0.52832 0.88597 0.08876 0.0
C158 C 0.48989 0.87622 0.97256 0.0
C159 C 0.33858 0.76344 0.98146 0.0
O160 O 0.29282 0.74516 0.97257 0.0
O161 O 0.43379 0.75785 0.0863 0.0
O162 O 0.49587 0.81063 0.09389 0.0
O163 O 0.40216 0.93335 0.05827 0.0
O164 O 0.45196 0.89651 0.11102 0.0
C165 C 0.4801 0.76561 0.09828 0.0
C166 C 0.43542 0.93896 0.09443 0.0
O167 O 0.34258 0.8001 0.0136 0.0
Mg168 Mg 0.88124 0.31602 0.65978 0.0
O169 O 0.88491 0.25878 0.73519 0.0
O170 O 0.81501 0.22738 0.71065 0.0
Mg171 Mg 0.83749 0.19299 0.63014 0.0
C172 C 0.84593 0.23205 0.74642 0.0
C173 C 0.95866 0.38373 0.73786 0.0
O174 O 0.97702 0.42944 0.74677 0.0
O175 O 0.96542 0.28952 0.633 0.0
O176 O 0.91081 0.22954 0.62656 0.0
O177 O 0.78901 0.31984 0.66076 0.0
O178 O 0.82597 0.26979 0.60828 0.0
C179 C 0.95622 0.24359 0.62093 0.0
C180 C 0.78348 0.2864 0.62477 0.0
O181 O 0.92195 0.37985 0.70575 0.0
Mg182 Mg 0.90601 0.63123 0.90979 0.0
O183 O 0.96329 0.63487 -0.01482 0.0
O184 O -0.00527 0.56499 0.96062 0.0
Mg185 Mg 0.02911 0.58749 0.88012 0.0
C186 C -0.00995 0.5959 -0.0036 0.0
C187 C 0.83828 0.7087 -0.01214 0.0
O188 O 0.79259 0.72712 -0.00314 0.0
O189 O 0.93252 0.71542 0.88299 0.0
O190 O -0.00756 0.66075 0.87659 0.0
O191 O 0.90223 0.539 0.91076 0.0
O192 O 0.95228 0.57597 0.85829 0.0
C193 C 0.97845 0.70617 0.87093 0.0
C194 C 0.93567 0.53348 0.87477 0.0
O195 O 0.84211 0.67196 0.95577 0.0
Mg196 Mg 0.59094 0.65605 0.15988 0.0
O197 O 0.58708 0.7133 0.23529 0.0
O198 O 0.65701 0.74459 0.21094 0.0
Mg199 Mg 0.63482 0.77939 0.13026 0.0
C200 C 0.62606 0.73998 0.24661 0.0
C201 C 0.51345 0.58833 0.23786 0.0
O202 O 0.49509 0.54262 0.24677 0.0
O203 O 0.50686 0.6826 0.13297 0.0
O204 O 0.56141 0.74271 0.12654 0.0
O205 O 0.68328 0.65248 0.16088 0.0
O206 O 0.64603 0.70238 0.10848 0.0
C207 C 0.51602 0.72855 0.12088 0.0
C208 C 0.68862 0.686 0.12493 0.0
O209 O 0.55016 0.59221 0.20577 0.0
Mg210 Mg 0.56604 0.34084 0.40979 0.0
O211 O 0.50879 0.33718 0.48518 0.0
O212 O 0.47738 0.40707 0.46063 0.0
Mg213 Mg 0.44298 0.38458 0.38014 0.0
C214 C 0.48204 0.37615 0.4964 0.0
C215 C 0.63375 0.26342 0.48786 0.0
O216 O 0.67946 0.24504 0.49677 0.0
O217 O 0.53956 0.25667 0.383 0.0
O218 O 0.47957 0.31128 0.37657 0.0
O219 O 0.56987 0.43306 0.41077 0.0
O220 O 0.51979 0.39611 0.35829 0.0
C221 C 0.49361 0.26587 0.37093 0.0
C222 C 0.53642 0.43859 0.37477 0.0
O223 O 0.62988 0.30013 0.45576 0.0
Mg224 Mg 0.31094 0.38127 0.15461 0.0
O225 O 0.23508 0.38464 0.21148 0.0
O226 O 0.25997 0.31507 0.24355 0.0
Mg227 Mg 0.34095 0.33805 0.27771 0.0
C228 C 0.22394 0.34577 0.23838 0.0
C229 C 0.23288 0.45865 0.08716 0.0
O230 O 0.22398 0.47719 0.04165 0.0
O231 O 0.33774 0.4659 0.18079 0.0
O232 O 0.34366 0.41046 0.23963 0.0
O233 O 0.31002 0.28898 0.15116 0.0
O234 O 0.36254 0.32611 0.20106 0.0
C235 C 0.3498 0.45604 0.22644 0.0
C236 C 0.34602 0.28356 0.18464 0.0
O237 O 0.26496 0.42183 0.09088 0.0
Mg238 Mg 0.81097 0.09078 0.81463 0.0
O239 O 0.73512 0.08732 0.7577 0.0
O240 O 0.75989 0.157 0.72586 0.0
Mg241 Mg 0.84085 0.13392 0.69165 0.0
C242 C 0.72392 0.12624 0.7309 0.0
C243 C 0.73287 0.01343 0.88208 0.0
O244 O 0.7239 -0.00499 0.92762 0.0
O245 O 0.83779 0.00613 0.78848 0.0
O246 O 0.84367 0.0615 0.72959 0.0
O247 O 0.81011 0.18314 0.81799 0.0
O248 O 0.86262 0.1459 0.76823 0.0
C249 C 0.8498 0.01593 0.74281 0.0
C250 C 0.84615 0.1885 0.78456 0.0
O251 O 0.76495 0.05024 0.87833 0.0
Mg252 Mg 0.13132 0.56093 0.06465 0.0
O253 O 0.13476 0.48509 0.00773 0.0
O254 O 0.0651 0.50987 0.97586 0.0
Mg255 Mg 0.0882 0.59083 0.94164 0.0
C256 C 0.09585 0.47389 0.98091 0.0
C257 C 0.20869 0.48284 0.13209 0.0
O258 O 0.2272 0.4739 0.17761 0.0
O259 O 0.216 0.58776 0.03852 0.0
O260 O 0.16057 0.5936 0.97969 0.0
O261 O 0.03895 0.56008 0.06799 0.0
O262 O 0.0762 0.61259 0.01822 0.0
C263 C 0.20615 0.59977 -0.00714 0.0
C264 C 0.0336 0.59612 0.03455 0.0
O265 O 0.17187 0.51492 0.12837 0.0
Mg266 Mg 0.66122 0.88129 0.31456 0.0
O267 O 0.73708 0.88494 0.25752 0.0
O268 O 0.71216 0.81533 0.22586 0.0
Mg269 Mg 0.63212 0.83839 0.19105 0.0
C270 C 0.74802 0.84618 0.23041 0.0
C271 C 0.73925 0.95865 0.38209 0.0
O272 O 0.74817 0.97715 0.42761 0.0
O273 O 0.63425 0.96587 0.28847 0.0
O274 O 0.62874 0.91063 0.2294 0.0
O275 O 0.66191 0.78898 0.318 0.0
O276 O 0.60965 0.82625 0.2679 0.0
C277 C 0.62228 0.95611 0.24278 0.0
C278 C 0.62587 0.78364 0.28453 0.0
O279 O 0.70717 0.92183 0.37835 0.0
Mg280 Mg 0.34079 0.41115 0.56469 0.0
O281 O 0.33738 0.487 0.50776 0.0
O282 O 0.40696 0.46213 0.47577 0.0
Mg283 Mg 0.38378 0.38119 0.44157 0.0
C284 C 0.37626 0.49814 0.48088 0.0
C285 C 0.26344 0.48923 0.63211 0.0
O286 O 0.24493 0.49816 0.67762 0.0
O287 O 0.25605 0.3843 0.53859 0.0
O288 O 0.3116 0.37856 0.47992 0.0
O289 O 0.43316 0.41196 0.56798 0.0
O290 O 0.39588 0.35949 0.5182 0.0
C291 C 0.26601 0.37229 0.49297 0.0
C292 C 0.43849 0.37594 0.53453 0.0
O293 O 0.30026 0.45715 0.6284 0.0
Mg294 Mg 0.16117 0.59079 0.65461 0.0
O295 O 0.23703 0.58742 0.71149 0.0
O296 O 0.21212 0.65698 0.74357 0.0
Mg297 Mg 0.13115 0.63399 0.77772 0.0
C298 C 0.24815 0.62628 0.73841 0.0
C299 C 0.23923 0.51341 0.58717 0.0
O300 O 0.24815 0.49489 0.54166 0.0
O301 O 0.13436 0.50615 0.68079 0.0
O302 O 0.12848 0.56162 0.73958 0.0
O303 O 0.16207 0.68308 0.65116 0.0
O304 O 0.10957 0.64594 0.70106 0.0
C305 C 0.12231 0.51603 0.72643 0.0
C306 C 0.12608 0.68849 0.68464 0.0
O307 O 0.20714 0.55022 0.59088 0.0
Mg308 Mg 0.63148 0.91121 0.90523 0.0
O309 O 0.63446 -0.01278 0.96141 0.0
O310 O 0.5651 0.96202 -0.00628 0.0
Mg311 Mg 0.5873 0.88096 0.02788 0.0
C312 C 0.59572 -0.00189 -0.01148 0.0
C313 C 0.70871 -0.01086 0.8372 0.0
O314 O 0.72715 -0.00194 0.79165 0.0
O315 O 0.71563 0.88585 0.93364 0.0
O316 O 0.66097 0.87924 -0.00678 0.0
O317 O 0.53913 0.91185 0.90107 0.0
O318 O 0.57623 0.8596 0.95125 0.0
C319 C 0.7066 0.87481 0.97987 0.0
C320 C 0.53368 0.87598 0.93467 0.0
O321 O 0.672 0.95695 0.84106 0.0
Mg322 Mg 0.84081 0.06092 0.40463 0.0
O323 O 0.83743 0.98507 0.46151 0.0
O324 O 0.90702 0.00995 0.49355 0.0
Mg325 Mg 0.88407 0.09092 0.52771 0.0
C326 C 0.8763 0.97394 0.48841 0.0
C327 C 0.76343 0.98287 0.33717 0.0
O328 O 0.7449 0.97398 0.29166 0.0
O329 O 0.75619 0.08773 0.43082 0.0
O330 O 0.81162 0.09365 0.48969 0.0
O331 O 0.93311 0.06 0.40117 0.0
O332 O 0.89598 0.11251 0.45106 0.0
C333 C 0.76603 0.09977 0.47648 0.0
C334 C 0.93853 0.096 0.43464 0.0
O335 O 0.80024 0.01495 0.3409 0.0
loop_
_geom_bond_atom_site_label_1
_geom_bond_atom_site_label_2
_geom_bond_distance
_geom_bond_site_symmetry_2
_ccdc_geom_bond_type
Mg0 O1 2.028 . S
Mg0 O7 1.986 . S
Mg0 O9 2.114 . S
Mg0 O10 2.251 . S
Mg0 O13 2.010 . S
O1 Mg0 2.028 . S
O1 C4 1.250 . S
O2 Mg3 2.028 . S
O2 C4 1.248 . S
Mg3 O2 2.028 . S
Mg3 O8 2.032 . S
Mg3 O10 2.079 . S
C4 O1 1.250 . S
C4 O2 1.248 . S
C5 O6 1.264 . S
C5 O13 1.249 . S
O6 C5 1.264 . S
O7 Mg0 1.986 . S
O7 C11 1.246 . S
O8 Mg3 2.032 . S
O8 C11 1.259 . S
O9 Mg0 2.114 . S
O9 C12 1.252 . S
O10 Mg0 2.251 . S
O10 Mg3 2.079 . S
O10 C12 1.273 . S
C11 O7 1.246 . S
C11 O8 1.259 . S
C12 O9 1.252 . S
C12 O10 1.273 . S
O13 Mg0 2.010 . S
O13 C5 1.249 . S
Mg14 O15 2.028 1_655 S
Mg14 O21 1.986 . S
Mg14 O23 2.114 . S
Mg14 O24 2.251 . S
Mg14 O27 2.010 . S
O15 Mg14 2.028 1_455 S
O15 C18 1.250 1_565 S
O16 Mg17 2.028 . S
O16 C18 1.248 1_655 S
Mg17 O16 2.028 . S
Mg17 O22 2.032 . S
Mg17 O24 2.079 1_545 S
C18 O15 1.250 1_545 S
C18 O16 1.248 1_455 S
C19 O20 1.264 1_455 S
C19 O27 1.249 1_455 S
O20 C19 1.264 1_655 S
O21 Mg14 1.986 . S
O21 C25 1.246 1_565 S
O22 Mg17 2.032 . S
O22 C25 1.259 . S
O23 Mg14 2.114 . S
O23 C26 1.252 . S
O24 Mg14 2.251 . S
O24 Mg17 2.079 1_565 S
O24 C26 1.273 . S
C25 O21 1.246 1_545 S
C25 O22 1.259 . S
C26 O23 1.252 . S
C26 O24 1.273 . S
O27 Mg14 2.010 . S
O27 C19 1.249 1_655 S
Mg28 O29 2.028 . S
Mg28 O35 1.986 . S
Mg28 O37 2.114 . S
Mg28 O38 2.251 . S
Mg28 O41 2.010 . S
O29 Mg28 2.028 . S
O29 C32 1.250 . S
O30 Mg31 2.028 . S
O30 C32 1.248 . S
Mg31 O30 2.028 . S
Mg31 O36 2.032 . S
Mg31 O38 2.079 . S
C32 O29 1.250 . S
C32 O30 1.248 . S
C33 O34 1.264 . S
C33 O41 1.249 . S
O34 C33 1.264 . S
O35 Mg28 1.986 . S
O35 C39 1.246 . S
O36 Mg31 2.032 . S
O36 C39 1.259 . S
O37 Mg28 2.114 . S
O37 C40 1.252 . S
O38 Mg28 2.251 . S
O38 Mg31 2.079 . S
O38 C40 1.273 . S
C39 O35 1.246 . S
C39 O36 1.259 . S
C40 O37 1.252 . S
C40 O38 1.273 . S
O41 Mg28 2.010 . S
O41 C33 1.249 . S
Mg42 O43 2.028 . S
Mg42 O49 1.986 . S
Mg42 O51 2.114 . S
Mg42 O52 2.251 . S
Mg42 O55 2.010 . S
O43 Mg42 2.028 . S
O43 C46 1.250 1_545 S
O44 Mg45 2.028 . S
O44 C46 1.248 . S
Mg45 O44 2.028 . S
Mg45 O50 2.032 . S
Mg45 O52 2.079 1_565 S
C46 O43 1.250 1_565 S
C46 O44 1.248 . S
C47 O48 1.264 . S
C47 O55 1.249 . S
O48 C47 1.264 . S
O49 Mg42 1.986 . S
O49 C53 1.246 1_545 S
O50 Mg45 2.032 . S
O50 C53 1.259 . S
O51 Mg42 2.114 . S
O51 C54 1.252 . S
O52 Mg42 2.251 . S
O52 Mg45 2.079 1_545 S
O52 C54 1.273 . S
C53 O49 1.246 1_565 S
C53 O50 1.259 . S
C54 O51 1.252 . S
C54 O52 1.273 . S
O55 Mg42 2.010 . S
O55 C47 1.249 . S
Mg56 O57 2.028 . S
Mg56 O63 1.986 . S
Mg56 O65 2.114 . S
Mg56 O66 2.251 . S
Mg56 O69 2.010 . S
O57 Mg56 2.028 . S
O57 C60 1.250 . S
O58 Mg59 2.028 . S
O58 C60 1.248 . S
Mg59 O58 2.028 . S
Mg59 O64 2.032 . S
Mg59 O66 2.079 . S
C60 O57 1.250 . S
C60 O58 1.248 . S
C61 O62 1.264 . S
C61 O69 1.249 . S
O62 C61 1.264 . S
O63 Mg56 1.986 . S
O63 C67 1.246 . S
O64 Mg59 2.032 . S
O64 C67 1.259 . S
O65 Mg56 2.114 . S
O65 C68 1.252 . S
O66 Mg56 2.251 . S
O66 Mg59 2.079 . S
O66 C68 1.273 . S
C67 O63 1.246 . S
C67 O64 1.259 . S
C68 O65 1.252 . S
C68 O66 1.273 . S
O69 Mg56 2.010 . S
O69 C61 1.249 . S
Mg70 O71 2.028 1_455 S
Mg70 O77 1.986 . S
Mg70 O79 2.114 . S
Mg70 O80 2.251 . S
Mg70 O83 2.010 . S
O71 Mg70 2.028 1_655 S
O71 C74 1.250 . S
O72 Mg73 2.028 . S
O72 C74 1.248 1_455 S
Mg73 O72 2.028 . S
Mg73 O78 2.032 . S
Mg73 O80 2.079 . S
C74 O71 1.250 . S
C74 O72 1.248 1_655 S
C75 O76 1.264 1_655 S
C75 O83 1.249 1_655 S
O76 C75 1.264 1_455 S
O77 Mg70 1.986 . S
O77 C81 1.246 . S
O78 Mg73 2.032 . S
O78 C81 1.259 . S
O79 Mg70 2.114 . S
O79 C82 1.252 . S
O80 Mg70 2.251 . S
O80 Mg73 2.079 . S
O80 C82 1.273 . S
C81 O77 1.246 . S
C81 O78 1.259 . S
C82 O79 1.252 . S
C82 O80 1.273 . S
O83 Mg70 2.010 . S
O83 C75 1.249 1_455 S
Mg84 O85 2.028 . S
Mg84 O91 1.986 . S
Mg84 O93 2.114 . S
Mg84 O94 2.251 . S
Mg84 O97 2.010 . S
O85 Mg84 2.028 . S
O85 C88 1.250 . S
O86 Mg87 2.028 . S
O86 C88 1.248 . S
Mg87 O86 2.028 . S
Mg87 O92 2.032 . S
Mg87 O94 2.079 . S
C88 O85 1.250 . S
C88 O86 1.248 . S
C89 O90 1.264 . S
C89 O97 1.249 . S
O90 C89 1.264 . S
O91 Mg84 1.986 . S
O91 C95 1.246 . S
O92 Mg87 2.032 . S
O92 C95 1.259 . S
O93 Mg84 2.114 . S
O93 C96 1.252 . S
O94 Mg84 2.251 . S
O94 Mg87 2.079 . S
O94 C96 1.273 . S
C95 O91 1.246 . S
C95 O92 1.259 . S
C96 O93 1.252 . S
C96 O94 1.273 . S
O97 Mg84 2.010 . S
O97 C89 1.249 . S
Mg98 O99 2.028 . S
Mg98 O105 1.986 . S
Mg98 O107 2.114 . S
Mg98 O108 2.251 . S
Mg98 O111 2.010 . S
O99 Mg98 2.028 . S
O99 C102 1.250 . S
O100 Mg101 2.028 . S
O100 C102 1.248 . S
Mg101 O100 2.028 . S
Mg101 O106 2.032 . S
Mg101 O108 2.079 . S
C102 O99 1.250 . S
C102 O100 1.248 . S
C103 O104 1.264 . S
C103 O111 1.249 . S
O104 C103 1.264 . S
O105 Mg98 1.986 . S
O105 C109 1.246 . S
O106 Mg101 2.032 . S
O106 C109 1.259 . S
O107 Mg98 2.114 . S
O107 C110 1.252 . S
O108 Mg98 2.251 . S
O108 Mg101 2.079 . S
O108 C110 1.273 . S
C109 O105 1.246 . S
C109 O106 1.259 . S
C110 O107 1.252 . S
C110 O108 1.273 . S
O111 Mg98 2.010 . S
O111 C103 1.249 . S
Mg112 O113 2.028 . S
Mg112 O119 1.986 . S
Mg112 O121 2.114 . S
Mg112 O122 2.251 . S
Mg112 O125 2.010 . S
O113 Mg112 2.028 . S
O113 C116 1.250 . S
O114 Mg115 2.028 . S
O114 C116 1.248 . S
Mg115 O114 2.028 . S
Mg115 O120 2.032 . S
Mg115 O122 2.079 . S
C116 O113 1.250 . S
C116 O114 1.248 . S
C117 O118 1.264 . S
C117 O125 1.249 . S
O118 C117 1.264 . S
O119 Mg112 1.986 . S
O119 C123 1.246 . S
O120 Mg115 2.032 . S
O120 C123 1.259 . S
O121 Mg112 2.114 . S
O121 C124 1.252 . S
O122 Mg112 2.251 . S
O122 Mg115 2.079 . S
O122 C124 1.273 . S
C123 O119 1.246 . S
C123 O120 1.259 . S
C124 O121 1.252 . S
C124 O122 1.273 . S
O125 Mg112 2.010 . S
O125 C117 1.249 . S
Mg126 O127 2.028 . S
Mg126 O133 1.986 . S
Mg126 O135 2.114 . S
Mg126 O136 2.251 . S
Mg126 O139 2.010 . S
O127 Mg126 2.028 . S
O127 C130 1.250 1_455 S
O128 Mg129 2.028 . S
O128 C130 1.248 . S
Mg129 O128 2.028 . S
Mg129 O134 2.032 . S
Mg129 O136 2.079 1_655 S
C130 O127 1.250 1_655 S
C130 O128 1.248 . S
C131 O132 1.264 . S
C131 O139 1.249 . S
O132 C131 1.264 . S
O133 Mg126 1.986 . S
O133 C137 1.246 1_455 S
O134 Mg129 2.032 . S
O134 C137 1.259 . S
O135 Mg126 2.114 . S
O135 C138 1.252 . S
O136 Mg126 2.251 . S
O136 Mg129 2.079 1_455 S
O136 C138 1.273 . S
C137 O133 1.246 1_655 S
C137 O134 1.259 . S
C138 O135 1.252 . S
C138 O136 1.273 . S
O139 Mg126 2.010 . S
O139 C131 1.249 . S
Mg140 O141 2.028 . S
Mg140 O147 1.986 . S
Mg140 O149 2.114 . S
Mg140 O150 2.251 . S
Mg140 O153 2.010 . S
O141 Mg140 2.028 . S
O141 C144 1.250 . S
O142 Mg143 2.028 . S
O142 C144 1.248 . S
Mg143 O142 2.028 . S
Mg143 O148 2.032 . S
Mg143 O150 2.079 . S
C144 O141 1.250 . S
C144 O142 1.248 . S
C145 O146 1.264 . S
C145 O153 1.249 . S
O146 C145 1.264 . S
O147 Mg140 1.986 . S
O147 C151 1.246 . S
O148 Mg143 2.032 . S
O148 C151 1.259 . S
O149 Mg140 2.114 . S
O149 C152 1.252 . S
O150 Mg140 2.251 . S
O150 Mg143 2.079 . S
O150 C152 1.273 . S
C151 O147 1.246 . S
C151 O148 1.259 . S
C152 O149 1.252 . S
C152 O150 1.273 . S
O153 Mg140 2.010 . S
O153 C145 1.249 . S
Mg154 O155 2.028 1_554 S
Mg154 O161 1.986 . S
Mg154 O163 2.114 . S
Mg154 O164 2.251 . S
Mg154 O167 2.010 . S
O155 Mg154 2.028 1_556 S
O155 C158 1.250 . S
O156 Mg157 2.028 . S
O156 C158 1.248 1_554 S
Mg157 O156 2.028 . S
Mg157 O162 2.032 . S
Mg157 O164 2.079 . S
C158 O155 1.250 . S
C158 O156 1.248 1_556 S
C159 O160 1.264 1_556 S
C159 O167 1.249 1_556 S
O160 C159 1.264 1_554 S
O161 Mg154 1.986 . S
O161 C165 1.246 . S
O162 Mg157 2.032 . S
O162 C165 1.259 . S
O163 Mg154 2.114 . S
O163 C166 1.252 . S
O164 Mg154 2.251 . S
O164 Mg157 2.079 . S
O164 C166 1.273 . S
C165 O161 1.246 . S
C165 O162 1.259 . S
C166 O163 1.252 . S
C166 O164 1.273 . S
O167 Mg154 2.010 . S
O167 C159 1.249 1_554 S
Mg168 O169 2.028 . S
Mg168 O175 1.986 . S
Mg168 O177 2.114 . S
Mg168 O178 2.251 . S
Mg168 O181 2.010 . S
O169 Mg168 2.028 . S
O169 C172 1.250 . S
O170 Mg171 2.028 . S
O170 C172 1.248 . S
Mg171 O170 2.028 . S
Mg171 O176 2.032 . S
Mg171 O178 2.079 . S
C172 O169 1.250 . S
C172 O170 1.248 . S
C173 O174 1.264 . S
C173 O181 1.249 . S
O174 C173 1.264 . S
O175 Mg168 1.986 . S
O175 C179 1.246 . S
O176 Mg171 2.032 . S
O176 C179 1.259 . S
O177 Mg168 2.114 . S
O177 C180 1.252 . S
O178 Mg168 2.251 . S
O178 Mg171 2.079 . S
O178 C180 1.273 . S
C179 O175 1.246 . S
C179 O176 1.259 . S
C180 O177 1.252 . S
C180 O178 1.273 . S
O181 Mg168 2.010 . S
O181 C173 1.249 . S
Mg182 O183 2.028 1_556 S
Mg182 O189 1.986 . S
Mg182 O191 2.114 . S
Mg182 O192 2.251 . S
Mg182 O195 2.010 . S
O183 Mg182 2.028 1_554 S
O183 C186 1.250 1_655 S
O184 Mg185 2.028 . S
O184 C186 1.248 1_556 S
Mg185 O184 2.028 . S
Mg185 O190 2.032 . S
Mg185 O192 2.079 1_455 S
C186 O183 1.250 1_455 S
C186 O184 1.248 1_554 S
C187 O188 1.264 1_554 S
C187 O195 1.249 1_554 S
O188 C187 1.264 1_556 S
O189 Mg182 1.986 . S
O189 C193 1.246 1_655 S
O190 Mg185 2.032 . S
O190 C193 1.259 . S
O191 Mg182 2.114 . S
O191 C194 1.252 . S
O192 Mg182 2.251 . S
O192 Mg185 2.079 1_655 S
O192 C194 1.273 . S
C193 O189 1.246 1_455 S
C193 O190 1.259 . S
C194 O191 1.252 . S
C194 O192 1.273 . S
O195 Mg182 2.010 . S
O195 C187 1.249 1_556 S
Mg196 O197 2.028 . S
Mg196 O203 1.986 . S
Mg196 O205 2.114 . S
Mg196 O206 2.251 . S
Mg196 O209 2.010 . S
O197 Mg196 2.028 . S
O197 C200 1.250 . S
O198 Mg199 2.028 . S
O198 C200 1.248 . S
Mg199 O198 2.028 . S
Mg199 O204 2.032 . S
Mg199 O206 2.079 . S
C200 O197 1.250 . S
C200 O198 1.248 . S
C201 O202 1.264 . S
C201 O209 1.249 . S
O202 C201 1.264 . S
O203 Mg196 1.986 . S
O203 C207 1.246 . S
O204 Mg199 2.032 . S
O204 C207 1.259 . S
O205 Mg196 2.114 . S
O205 C208 1.252 . S
O206 Mg196 2.251 . S
O206 Mg199 2.079 . S
O206 C208 1.273 . S
C207 O203 1.246 . S
C207 O204 1.259 . S
C208 O205 1.252 . S
C208 O206 1.273 . S
O209 Mg196 2.010 . S
O209 C201 1.249 . S
Mg210 O211 2.028 . S
Mg210 O217 1.986 . S
Mg210 O219 2.114 . S
Mg210 O220 2.251 . S
Mg210 O223 2.010 . S
O211 Mg210 2.028 . S
O211 C214 1.250 . S
O212 Mg213 2.028 . S
O212 C214 1.248 . S
Mg213 O212 2.028 . S
Mg213 O218 2.032 . S
Mg213 O220 2.079 . S
C214 O211 1.250 . S
C214 O212 1.248 . S
C215 O216 1.264 . S
C215 O223 1.249 . S
O216 C215 1.264 . S
O217 Mg210 1.986 . S
O217 C221 1.246 . S
O218 Mg213 2.032 . S
O218 C221 1.259 . S
O219 Mg210 2.114 . S
O219 C222 1.252 . S
O220 Mg210 2.251 . S
O220 Mg213 2.079 . S
O220 C222 1.273 . S
C221 O217 1.246 . S
C221 O218 1.259 . S
C222 O219 1.252 . S
C222 O220 1.273 . S
O223 Mg210 2.010 . S
O223 C215 1.249 . S
Mg224 O225 2.028 . S
Mg224 O231 1.986 . S
Mg224 O233 2.114 . S
Mg224 O234 2.251 . S
Mg224 O237 2.010 . S
O225 Mg224 2.028 . S
O225 C228 1.250 . S
O226 Mg227 2.028 . S
O226 C228 1.248 . S
Mg227 O226 2.028 . S
Mg227 O232 2.032 . S
Mg227 O234 2.079 . S
C228 O225 1.250 . S
C228 O226 1.248 . S
C229 O230 1.264 . S
C229 O237 1.249 . S
O230 C229 1.264 . S
O231 Mg224 1.986 . S
O231 C235 1.246 . S
O232 Mg227 2.032 . S
O232 C235 1.259 . S
O233 Mg224 2.114 . S
O233 C236 1.252 . S
O234 Mg224 2.251 . S
O234 Mg227 2.079 . S
O234 C236 1.273 . S
C235 O231 1.246 . S
C235 O232 1.259 . S
C236 O233 1.252 . S
C236 O234 1.273 . S
O237 Mg224 2.010 . S
O237 C229 1.249 . S
Mg238 O239 2.028 . S
Mg238 O245 1.986 . S
Mg238 O247 2.114 . S
Mg238 O248 2.251 . S
Mg238 O251 2.010 . S
O239 Mg238 2.028 . S
O239 C242 1.250 . S
O240 Mg241 2.028 . S
O240 C242 1.248 . S
Mg241 O240 2.028 . S
Mg241 O246 2.032 . S
Mg241 O248 2.079 . S
C242 O239 1.250 . S
C242 O240 1.248 . S
C243 O244 1.264 . S
C243 O251 1.249 . S
O244 C243 1.264 . S
O245 Mg238 1.986 . S
O245 C249 1.246 . S
O246 Mg241 2.032 . S
O246 C249 1.259 . S
O247 Mg238 2.114 . S
O247 C250 1.252 . S
O248 Mg238 2.251 . S
O248 Mg241 2.079 . S
O248 C250 1.273 . S
C249 O245 1.246 . S
C249 O246 1.259 . S
C250 O247 1.252 . S
C250 O248 1.273 . S
O251 Mg238 2.010 . S
O251 C243 1.249 . S
Mg252 O253 2.028 . S
Mg252 O259 1.986 . S
Mg252 O261 2.114 . S
Mg252 O262 2.251 . S
Mg252 O265 2.010 . S
O253 Mg252 2.028 . S
O253 C256 1.250 1_554 S
O254 Mg255 2.028 . S
O254 C256 1.248 . S
Mg255 O254 2.028 . S
Mg255 O260 2.032 . S
Mg255 O262 2.079 1_556 S
C256 O253 1.250 1_556 S
C256 O254 1.248 . S
C257 O258 1.264 . S
C257 O265 1.249 . S
O258 C257 1.264 . S
O259 Mg252 1.986 . S
O259 C263 1.246 1_554 S
O260 Mg255 2.032 . S
O260 C263 1.259 . S
O261 Mg252 2.114 . S
O261 C264 1.252 . S
O262 Mg252 2.251 . S
O262 Mg255 2.079 1_554 S
O262 C264 1.273 . S
C263 O259 1.246 1_556 S
C263 O260 1.259 . S
C264 O261 1.252 . S
C264 O262 1.273 . S
O265 Mg252 2.010 . S
O265 C257 1.249 . S
Mg266 O267 2.028 . S
Mg266 O273 1.986 . S
Mg266 O275 2.114 . S
Mg266 O276 2.251 . S
Mg266 O279 2.010 . S
O267 Mg266 2.028 . S
O267 C270 1.250 . S
O268 Mg269 2.028 . S
O268 C270 1.248 . S
Mg269 O268 2.028 . S
Mg269 O274 2.032 . S
Mg269 O276 2.079 . S
C270 O267 1.250 . S
C270 O268 1.248 . S
C271 O272 1.264 . S
C271 O279 1.249 . S
O272 C271 1.264 . S
O273 Mg266 1.986 . S
O273 C277 1.246 . S
O274 Mg269 2.032 . S
O274 C277 1.259 . S
O275 Mg266 2.114 . S
O275 C278 1.252 . S
O276 Mg266 2.251 . S
O276 Mg269 2.079 . S
O276 C278 1.273 . S
C277 O273 1.246 . S
C277 O274 1.259 . S
C278 O275 1.252 . S
C278 O276 1.273 . S
O279 Mg266 2.010 . S
O279 C271 1.249 . S
Mg280 O281 2.028 . S
Mg280 O287 1.986 . S
Mg280 O289 2.114 . S
Mg280 O290 2.251 . S
Mg280 O293 2.010 . S
O281 Mg280 2.028 . S
O281 C284 1.250 . S
O282 Mg283 2.028 . S
O282 C284 1.248 . S
Mg283 O282 2.028 . S
Mg283 O288 2.032 . S
Mg283 O290 2.079 . S
C284 O281 1.250 . S
C284 O282 1.248 . S
C285 O286 1.264 . S
C285 O293 1.249 . S
O286 C285 1.264 . S
O287 Mg280 1.986 . S
O287 C291 1.246 . S
O288 Mg283 2.032 . S
O288 C291 1.259 . S
O289 Mg280 2.114 . S
O289 C292 1.252 . S
O290 Mg280 2.251 . S
O290 Mg283 2.079 . S
O290 C292 1.273 . S
C291 O287 1.246 . S
C291 O288 1.259 . S
C292 O289 1.252 . S
C292 O290 1.273 . S
O293 Mg280 2.010 . S
O293 C285 1.249 . S
Mg294 O295 2.028 . S
Mg294 O301 1.986 . S
Mg294 O303 2.114 . S
Mg294 O304 2.251 . S
Mg294 O307 2.010 . S
O295 Mg294 2.028 . S
O295 C298 1.250 . S
O296 Mg297 2.028 . S
O296 C298 1.248 . S
Mg297 O296 2.028 . S
Mg297 O302 2.032 . S
Mg297 O304 2.079 . S
C298 O295 1.250 . S
C298 O296 1.248 . S
C299 O300 1.264 . S
C299 O307 1.249 . S
O300 C299 1.264 . S
O301 Mg294 1.986 . S
O301 C305 1.246 . S
O302 Mg297 2.032 . S
O302 C305 1.259 . S
O303 Mg294 2.114 . S
O303 C306 1.252 . S
O304 Mg294 2.251 . S
O304 Mg297 2.079 . S
O304 C306 1.273 . S
C305 O301 1.246 . S
C305 O302 1.259 . S
C306 O303 1.252 . S
C306 O304 1.273 . S
O307 Mg294 2.010 . S
O307 C299 1.249 . S
Mg308 O309 2.028 1_565 S
Mg308 O315 1.986 . S
Mg308 O317 2.114 . S
Mg308 O318 2.251 . S
Mg308 O321 2.010 . S
O309 Mg308 2.028 1_545 S
O309 C312 1.250 1_556 S
O310 Mg311 2.028 . S
O310 C312 1.248 1_565 S
Mg311 O310 2.028 . S
Mg311 O316 2.032 . S
Mg311 O318 2.079 1_554 S
C312 O309 1.250 1_554 S
C312 O310 1.248 1_545 S
C313 O314 1.264 1_545 S
C313 O321 1.249 1_545 S
O314 C313 1.264 1_565 S
O315 Mg308 1.986 . S
O315 C319 1.246 1_556 S
O316 Mg311 2.032 . S
O316 C319 1.259 . S
O317 Mg308 2.114 . S
O317 C320 1.252 . S
O318 Mg308 2.251 . S
O318 Mg311 2.079 1_556 S
O318 C320 1.273 . S
C319 O315 1.246 1_554 S
C319 O316 1.259 . S
C320 O317 1.252 . S
C320 O318 1.273 . S
O321 Mg308 2.010 . S
O321 C313 1.249 1_565 S
Mg322 O323 2.028 1_545 S
Mg322 O329 1.986 . S
Mg322 O331 2.114 . S
Mg322 O332 2.251 . S
Mg322 O335 2.010 . S
O323 Mg322 2.028 1_565 S
O323 C326 1.250 . S
O324 Mg325 2.028 . S
O324 C326 1.248 1_545 S
Mg325 O324 2.028 . S
Mg325 O330 2.032 . S
Mg325 O332 2.079 . S
C326 O323 1.250 . S
C326 O324 1.248 1_565 S
C327 O328 1.264 1_565 S
C327 O335 1.249 1_565 S
O328 C327 1.264 1_545 S
O329 Mg322 1.986 . S
O329 C333 1.246 . S
O330 Mg325 2.032 . S
O330 C333 1.259 . S
O331 Mg322 2.114 . S
O331 C334 1.252 . S
O332 Mg322 2.251 . S
O332 Mg325 2.079 . S
O332 C334 1.273 . S
C333 O329 1.246 . S
C333 O330 1.259 . S
C334 O331 1.252 . S
C334 O332 1.273 . S
O335 Mg322 2.010 . S
O335 C327 1.249 1_545 S
C131 C5 2.706 . S
C19 C145 2.706 . S
C33 C159 2.706 . S
C47 C117 2.706 . S
C61 C215 2.706 . S
C173 C75 2.706 . S
C89 C187 2.706 . S
C201 C103 2.706 . S
C229 C257 2.706 . S
C313 C243 2.706 . S
C271 C327 2.706 . S
C299 C285 2.706 . S
C291 C11 1.480 . S
C25 C249 1.480 . S
C39 C263 1.480 . S
C53 C277 1.480 . S
C67 C333 1.480 . S
C305 C81 1.480 . S
C319 C95 1.480 . S
C235 C109 1.480 . S
C221 C123 1.480 . S
C137 C179 1.480 . S
C193 C151 1.480 . S
C207 C165 1.480 . S
C12 C228 1.561 . S
C326 C26 1.561 . S
C298 C40 1.561 . S
C54 C312 1.561 . S
C68 C242 1.561 . S
C256 C82 1.561 . S
C270 C96 1.561 . S
C284 C110 1.561 . S
C4 C124 1.561 . S
C18 C138 1.561 . S
C32 C152 1.561 . S
C46 C166 1.561 . S
C60 C180 1.561 . S
C74 C194 1.561 . S
C208 C88 1.561 . S
C102 C222 1.561 . S
C116 C236 1.561 . S
C250 C172 1.561 . S
C186 C264 1.561 . S
C278 C200 1.561 . S
C292 C214 1.561 . S
C306 C144 1.561 . S
C158 C320 1.561 . S
C334 C130 1.561 . S
