# Generated by pormake.
# Topology som, (6)-cn, num edge types: 1
# Building blocks:
#     Node 0, Type 0, BuildingBlock: BETGAK_clean_sbu_0, # of connection points: 6
#     Node 1, Type 0, BuildingBlock: BETGAK_clean_sbu_0, # of connection points: 6
#     Node 2, Type 0, BuildingBlock: BETGAK_clean_sbu_0, # of connection points: 6
#     Node 3, Type 0, BuildingBlock: BETGAK_clean_sbu_0, # of connection points: 6
#     Node 4, Type 0, BuildingBlock: BETGAK_clean_sbu_0, # of connection points: 6
#     Node 5, Type 0, BuildingBlock: BETGAK_clean_sbu_0, # of connection points: 6
#     Node 6, Type 0, BuildingBlock: BETGAK_clean_sbu_0, # of connection points: 6
#     Node 7, Type 0, BuildingBlock: BETGAK_clean_sbu_0, # of connection points: 6
#     Node 8, Type 0, BuildingBlock: BETGAK_clean_sbu_0, # of connection points: 6
#     Node 9, Type 0, BuildingBlock: BETGAK_clean_sbu_0, # of connection points: 6
#     Node 10, Type 0, BuildingBlock: BETGAK_clean_sbu_0, # of connection points: 6
#     Node 11, Type 0, BuildingBlock: BETGAK_clean_sbu_0, # of connection points: 6
#     Node 12, Type 0, BuildingBlock: BETGAK_clean_sbu_0, # of connection points: 6
#     Node 13, Type 0, BuildingBlock: BETGAK_clean_sbu_0, # of connection points: 6
#     Node 14, Type 0, BuildingBlock: BETGAK_clean_sbu_0, # of connection points: 6
#     Node 15, Type 0, BuildingBlock: BETGAK_clean_sbu_0, # of connection points: 6
#     Node 16, Type 0, BuildingBlock: BETGAK_clean_sbu_0, # of connection points: 6
#     Node 17, Type 0, BuildingBlock: BETGAK_clean_sbu_0, # of connection points: 6
#     Node 18, Type 0, BuildingBlock: BETGAK_clean_sbu_0, # of connection points: 6
#     Node 19, Type 0, BuildingBlock: BETGAK_clean_sbu_0, # of connection points: 6
#     Node 20, Type 0, BuildingBlock: BETGAK_clean_sbu_0, # of connection points: 6
#     Node 21, Type 0, BuildingBlock: BETGAK_clean_sbu_0, # of connection points: 6
#     Node 22, Type 0, BuildingBlock: BETGAK_clean_sbu_0, # of connection points: 6
#     Node 23, Type 0, BuildingBlock: BETGAK_clean_sbu_0, # of connection points: 6
#     Node 24, Type 0, BuildingBlock: BETGAK_clean_sbu_0, # of connection points: 6
#     Node 25, Type 0, BuildingBlock: BETGAK_clean_sbu_0, # of connection points: 6
#     Node 26, Type 0, BuildingBlock: BETGAK_clean_sbu_0, # of connection points: 6
#     Node 27, Type 0, BuildingBlock: BETGAK_clean_sbu_0, # of connection points: 6
#     Node 28, Type 0, BuildingBlock: BETGAK_clean_sbu_0, # of connection points: 6
#     Node 29, Type 0, BuildingBlock: BETGAK_clean_sbu_0, # of connection points: 6
#     Node 30, Type 0, BuildingBlock: BETGAK_clean_sbu_0, # of connection points: 6
#     Node 31, Type 0, BuildingBlock: BETGAK_clean_sbu_0, # of connection points: 6
#     Edge 32, Type (0, 0), None
#     Edge 33, Type (0, 0), None
#     Edge 34, Type (0, 0), None
#     Edge 35, Type (0, 0), None
#     Edge 36, Type (0, 0), None
#     Edge 37, Type (0, 0), None
#     Edge 38, Type (0, 0), None
#     Edge 39, Type (0, 0), None
#     Edge 40, Type (0, 0), None
#     Edge 41, Type (0, 0), None
#     Edge 42, Type (0, 0), None
#     Edge 43, Type (0, 0), None
#     Edge 44, Type (0, 0), None
#     Edge 45, Type (0, 0), None
#     Edge 46, Type (0, 0), None
#     Edge 47, Type (0, 0), None
#     Edge 48, Type (0, 0), None
#     Edge 49, Type (0, 0), None
#     Edge 50, Type (0, 0), None
#     Edge 51, Type (0, 0), None
#     Edge 52, Type (0, 0), None
#     Edge 53, Type (0, 0), None
#     Edge 54, Type (0, 0), None
#     Edge 55, Type (0, 0), None
#     Edge 56, Type (0, 0), None
#     Edge 57, Type (0, 0), None
#     Edge 58, Type (0, 0), None
#     Edge 59, Type (0, 0), None
#     Edge 60, Type (0, 0), None
#     Edge 61, Type (0, 0), None
#     Edge 62, Type (0, 0), None
#     Edge 63, Type (0, 0), None
#     Edge 64, Type (0, 0), None
#     Edge 65, Type (0, 0), None
#     Edge 66, Type (0, 0), None
#     Edge 67, Type (0, 0), None
#     Edge 68, Type (0, 0), None
#     Edge 69, Type (0, 0), None
#     Edge 70, Type (0, 0), None
#     Edge 71, Type (0, 0), None
#     Edge 72, Type (0, 0), None
#     Edge 73, Type (0, 0), None
#     Edge 74, Type (0, 0), None
#     Edge 75, Type (0, 0), None
#     Edge 76, Type (0, 0), None
#     Edge 77, Type (0, 0), None
#     Edge 78, Type (0, 0), None
#     Edge 79, Type (0, 0), None
#     Edge 80, Type (0, 0), None
#     Edge 81, Type (0, 0), None
#     Edge 82, Type (0, 0), None
#     Edge 83, Type (0, 0), None
#     Edge 84, Type (0, 0), None
#     Edge 85, Type (0, 0), None
#     Edge 86, Type (0, 0), None
#     Edge 87, Type (0, 0), None
#     Edge 88, Type (0, 0), None
#     Edge 89, Type (0, 0), None
#     Edge 90, Type (0, 0), None
#     Edge 91, Type (0, 0), None
#     Edge 92, Type (0, 0), None
#     Edge 93, Type (0, 0), None
#     Edge 94, Type (0, 0), None
#     Edge 95, Type (0, 0), None
#     Edge 96, Type (0, 0), None
#     Edge 97, Type (0, 0), None
#     Edge 98, Type (0, 0), None
#     Edge 99, Type (0, 0), None
#     Edge 100, Type (0, 0), None
#     Edge 101, Type (0, 0), None
#     Edge 102, Type (0, 0), None
#     Edge 103, Type (0, 0), None
#     Edge 104, Type (0, 0), None
#     Edge 105, Type (0, 0), None
#     Edge 106, Type (0, 0), None
#     Edge 107, Type (0, 0), None
#     Edge 108, Type (0, 0), None
#     Edge 109, Type (0, 0), None
#     Edge 110, Type (0, 0), None
#     Edge 111, Type (0, 0), None
#     Edge 112, Type (0, 0), None
#     Edge 113, Type (0, 0), None
#     Edge 114, Type (0, 0), None
#     Edge 115, Type (0, 0), None
#     Edge 116, Type (0, 0), None
#     Edge 117, Type (0, 0), None
#     Edge 118, Type (0, 0), None
#     Edge 119, Type (0, 0), None
#     Edge 120, Type (0, 0), None
#     Edge 121, Type (0, 0), None
#     Edge 122, Type (0, 0), None
#     Edge 123, Type (0, 0), None
#     Edge 124, Type (0, 0), None
#     Edge 125, Type (0, 0), None
#     Edge 126, Type (0, 0), None
#     Edge 127, Type (0, 0), None
# Relax obj value: 0.101
# Max RMSD: 0.184
# Mean RMSD: 0.184
data_MOF--net-som--node1-BETGAK_clean_sbu_0--edge1-none
_symmetry_space_group_name_H-M    P1
_symmetry_Int_Tables_number       1
_symmetry_cell_setting            triclinic
loop_
_symmetry_equiv_pos_as_xyz
'x, y, z'
_cell_length_a     15.966465
_cell_length_b     23.069155
_cell_length_c     44.719138
_cell_angle_alpha  90.000439
_cell_angle_beta   90.000611
_cell_angle_gamma 89.998261
loop_
_atom_site_label
_atom_site_type_symbol
_atom_site_fract_x
_atom_site_fract_y
_atom_site_fract_z
_atom_type_partial_charge
La0 La 1.03909 0.48606 0.1276 0.0
La1 La 0.18217 0.40487 0.10995 0.0
C2 C 0.89769 0.52907 0.12715 0.0
C3 C 0.81626 0.50296 0.11964 0.0
C4 C 0.75107 0.51669 0.13832 0.0
C5 C 0.67136 0.49538 0.13373 0.0
C6 C 0.65588 0.45437 0.1116 0.0
C7 C 0.72171 0.43912 0.09203 0.0
C8 C 0.80196 0.46389 0.0959 0.0
C9 C 0.16807 0.47438 0.16726 0.0
C10 C 0.99624 0.35079 0.1209 0.0
C11 C 0.32239 0.35853 0.11403 0.0
C12 C 0.40687 0.38379 0.11271 0.0
C13 C 0.44698 0.39428 0.0852 0.0
C14 C 0.52916 0.41504 0.08452 0.0
C15 C 0.57154 0.42739 0.11123 0.0
C16 C 0.53116 0.41589 0.13865 0.0
C17 C 0.44974 0.39504 0.13936 0.0
C18 C 0.10577 0.43827 0.06175 0.0
C19 C 0.18982 0.54891 0.10401 0.0
O20 O 0.93302 0.51028 0.15201 0.0
O21 O 0.95034 0.53593 0.10494 0.0
O22 O 0.12213 0.52057 0.16368 0.0
O23 O 0.13413 0.43597 0.15081 0.0
O24 O 0.9699 0.40411 0.12541 0.0
O25 O 1.07831 0.33946 0.11659 0.0
O26 O 0.27902 0.35865 0.08926 0.0
O27 O 0.27719 0.37206 0.1374 0.0
O28 O 0.16818 0.4027 0.06109 0.0
O29 O 0.08903 0.44993 0.08854 0.0
O30 O 0.23034 0.49778 0.10751 0.0
O31 O 0.10849 0.55285 0.10629 0.0
H32 H 0.7633 0.54515 0.15646 0.0
H33 H 0.62101 0.51048 0.14782 0.0
H34 H 0.7119 0.40759 0.07445 0.0
H35 H 0.85244 0.45163 0.08101 0.0
H36 H 0.41592 0.38485 0.06423 0.0
H37 H 0.55916 0.42068 0.06321 0.0
H38 H 0.56306 0.42207 0.15979 0.0
H39 H 0.42125 0.38605 0.16083 0.0
La40 La 0.38687 0.66769 0.1276 0.0
La41 La 0.2438 0.74889 0.10995 0.0
C42 C 0.52826 0.62469 0.12715 0.0
C43 C 0.6097 0.65084 0.11967 0.0
C44 C 0.67479 0.63726 0.13842 0.0
C45 C 0.7545 0.65859 0.13386 0.0
C46 C 0.77008 0.69946 0.11167 0.0
C47 C 0.70432 0.71459 0.09204 0.0
C48 C 0.62407 0.6898 0.09589 0.0
C49 C 0.25789 0.67938 0.16725 0.0
C50 C 0.42974 0.80296 0.1209 0.0
C51 C 0.10359 0.79526 0.11403 0.0
C52 C 1.01912 0.77 0.11272 0.0
C53 C 0.979 0.75944 0.08522 0.0
C54 C 0.89682 0.73868 0.08456 0.0
C55 C 0.85444 0.72641 0.11128 0.0
C56 C 0.89483 0.73798 0.13869 0.0
C57 C 0.97625 0.75881 0.13938 0.0
C58 C 0.3202 0.7155 0.06175 0.0
C59 C 0.23614 0.60486 0.104 0.0
O60 O 0.4929 0.64343 0.15201 0.0
O61 O 0.47565 0.61786 0.10493 0.0
O62 O 0.30382 0.63319 0.16367 0.0
O63 O 0.29184 0.71779 0.15081 0.0
O64 O 0.45607 0.74964 0.12542 0.0
O65 O 0.34767 0.8143 0.11658 0.0
O66 O 0.14695 0.7951 0.08926 0.0
O67 O 0.14882 0.78174 0.1374 0.0
O68 O 0.2578 0.75107 0.06109 0.0
O69 O 0.33693 0.70384 0.08854 0.0
O70 O 0.19561 0.65599 0.10751 0.0
O71 O 0.31746 0.60091 0.10629 0.0
H72 H 0.66251 0.60886 0.15658 0.0
H73 H 0.80478 0.64357 0.148 0.0
H74 H 0.71419 0.74602 0.07442 0.0
H75 H 0.57365 0.70196 0.08095 0.0
H76 H 1.01006 0.76882 0.06424 0.0
H77 H 0.86682 0.73299 0.06325 0.0
H78 H 0.86294 0.73186 0.15983 0.0
H79 H 1.00476 0.76784 0.16084 0.0
La80 La 1.03917 0.66772 0.21983 0.0
La81 La 0.1822 0.7489 0.23752 0.0
C82 C 0.89777 0.62472 0.22023 0.0
C83 C 0.81633 0.65082 0.22775 0.0
C84 C 0.75112 0.63707 0.20909 0.0
C85 C 0.67141 0.65839 0.21368 0.0
C86 C 0.65595 0.6994 0.23581 0.0
C87 C 0.72181 0.71466 0.25537 0.0
C88 C 0.80205 0.68989 0.2515 0.0
C89 C 0.16827 0.67937 0.18023 0.0
C90 C 0.99626 0.80298 0.22656 0.0
C91 C 0.32244 0.79524 0.23346 0.0
C92 C 0.40691 0.76996 0.23476 0.0
C93 C 0.44709 0.75948 0.26226 0.0
C94 C 0.52927 0.73873 0.26292 0.0
C95 C 0.5716 0.72637 0.2362 0.0
C96 C 0.53116 0.73786 0.20879 0.0
C97 C 0.44974 0.75871 0.2081 0.0
C98 C 0.10576 0.71551 0.2857 0.0
C99 C 0.18983 0.60486 0.24346 0.0
O100 O 0.93311 0.64357 0.19539 0.0
O101 O 0.9504 0.61779 0.24245 0.0
O102 O 0.12226 0.6332 0.18376 0.0
O103 O 0.13426 0.7178 0.19665 0.0
O104 O 0.96995 0.74966 0.22203 0.0
O105 O 1.07833 0.81432 0.23088 0.0
O106 O 0.27908 0.79504 0.25823 0.0
O107 O 0.27721 0.78178 0.21008 0.0
O108 O 0.16814 0.7511 0.28637 0.0
O109 O 0.08904 0.70384 0.25891 0.0
O110 O 0.23036 0.65599 0.23997 0.0
O111 O 0.10851 0.60092 0.24116 0.0
H112 H 0.76333 0.60859 0.19096 0.0
H113 H 0.62105 0.64327 0.1996 0.0
H114 H 0.71201 0.74619 0.27295 0.0
H115 H 0.85256 0.70216 0.26637 0.0
H116 H 0.41607 0.76892 0.28324 0.0
H117 H 0.55933 0.73312 0.28423 0.0
H118 H 0.56302 0.73166 0.18764 0.0
H119 H 0.4212 0.76769 0.18664 0.0
La120 La 0.3868 0.48605 0.21983 0.0
La121 La 0.24378 0.40486 0.23752 0.0
C122 C 0.52819 0.52905 0.22023 0.0
C123 C 0.60963 0.50292 0.22772 0.0
C124 C 0.67474 0.51651 0.20899 0.0
C125 C 0.75445 0.49517 0.21356 0.0
C126 C 0.77001 0.4543 0.23575 0.0
C127 C 0.70423 0.43917 0.25537 0.0
C128 C 0.62398 0.46395 0.25151 0.0
C129 C 0.25769 0.4744 0.18024 0.0
C130 C 0.42972 0.3508 0.22656 0.0
C131 C 0.10355 0.35851 0.23346 0.0
C132 C 1.01908 0.38378 0.23474 0.0
C133 C 0.97891 0.39433 0.26223 0.0
C134 C 0.89672 0.41508 0.26288 0.0
C135 C 0.85438 0.42736 0.23615 0.0
C136 C 0.89483 0.4158 0.20875 0.0
C137 C 0.97625 0.39496 0.20808 0.0
C138 C 0.32021 0.43826 0.2857 0.0
C139 C 0.23613 0.5489 0.24347 0.0
O140 O 0.49281 0.51025 0.19539 0.0
O141 O 0.47559 0.53595 0.24246 0.0
O142 O 0.30369 0.52058 0.18377 0.0
O143 O 0.2917 0.43597 0.19665 0.0
O144 O 0.45602 0.40412 0.22203 0.0
O145 O 0.34766 0.33945 0.23088 0.0
O146 O 0.14689 0.35873 0.25823 0.0
O147 O 0.1488 0.37195 0.21008 0.0
O148 O 0.25784 0.40266 0.28637 0.0
O149 O 0.33693 0.44993 0.25891 0.0
O150 O 0.1956 0.49778 0.23996 0.0
O151 O 0.31745 0.55284 0.24117 0.0
H152 H 0.66248 0.54493 0.19084 0.0
H153 H 0.80474 0.5102 0.19942 0.0
H154 H 0.71409 0.40773 0.27299 0.0
H155 H 0.57355 0.45177 0.26643 0.0
H156 H 1.00992 0.38495 0.28322 0.0
H157 H 0.86667 0.42075 0.28418 0.0
H158 H 0.86297 0.42192 0.1876 0.0
H159 H 1.00479 0.38594 0.18662 0.0
La160 La 0.99372 0.49888 0.98739 0.0
La161 La 0.13705 0.41764 0.96985 0.0
C162 C 0.85359 0.54529 0.98323 0.0
C163 C 0.76914 0.52002 0.98461 0.0
C164 C 0.72917 0.50949 1.01214 0.0
C165 C 0.64701 0.48871 1.01287 0.0
C166 C 0.60452 0.47636 0.98618 0.0
C167 C 0.64478 0.48789 0.95873 0.0
C168 C 0.72617 0.50877 0.95799 0.0
C169 C 1.06997 0.46543 1.03562 0.0
C170 C 0.98613 0.35486 0.9934 0.0
C171 C 0.27839 0.37459 0.97038 0.0
C172 C 0.35983 0.40073 0.97786 0.0
C173 C 0.42493 0.38709 0.95913 0.0
C174 C 0.50464 0.40841 0.96369 0.0
C175 C 0.5202 0.44936 0.98584 0.0
C176 C 0.45444 0.46455 1.00545 0.0
C177 C 0.37419 0.43975 1.00162 0.0
C178 C 1.00796 0.42935 0.93016 0.0
C179 C 0.17975 0.55295 0.97646 0.0
O180 O 0.897 0.54536 1.00799 0.0
O181 O 0.89877 0.53158 0.95988 0.0
O182 O 1.00745 0.50091 1.03627 0.0
O183 O 1.08698 0.45403 1.00882 0.0
O184 O 0.94559 0.40597 0.98985 0.0
O185 O 1.06748 0.35093 0.99117 0.0
O186 O 0.24311 0.39326 0.94549 0.0
O187 O 0.22572 0.36786 0.9926 0.0
O188 O 1.0539 0.38315 0.93375 0.0
O189 O 1.0421 0.46763 0.94662 0.0
O190 O 0.20615 0.49963 0.97199 0.0
O191 O 0.09765 0.56427 0.98075 0.0
H192 H 0.76032 0.51891 1.0331 0.0
H193 H 0.61711 0.48304 1.03419 0.0
H194 H 0.6128 0.48171 0.93761 0.0
H195 H 0.75457 0.51777 0.93651 0.0
H196 H 0.41264 0.35867 0.94098 0.0
H197 H 0.55494 0.39334 0.94957 0.0
H198 H 0.46431 0.49604 1.02305 0.0
H199 H 0.32376 0.45196 1.01654 0.0
La200 La 0.93225 0.15488 0.98739 0.0
La201 La 0.78893 0.23612 0.96985 0.0
C202 C 1.07237 0.10845 0.98323 0.0
C203 C 0.15682 0.13372 0.9846 0.0
C204 C 0.19681 0.14428 1.01213 0.0
C205 C 0.27897 0.16507 1.01284 0.0
C206 C 0.32145 0.17738 0.98615 0.0
C207 C 0.28118 0.16582 0.95871 0.0
C208 C 0.19979 0.14494 0.95797 0.0
C209 C 0.85594 0.18828 1.03561 0.0
C210 C 0.93984 0.29889 0.99341 0.0
C211 C 0.64759 0.27916 0.97037 0.0
C212 C 0.56616 0.25301 0.97784 0.0
C213 C 0.5011 0.26657 0.95907 0.0
C214 C 0.42139 0.24524 0.96362 0.0
C215 C 0.40579 0.20436 0.9858 0.0
C216 C 0.47151 0.18924 1.00544 0.0
C217 C 0.55175 0.21404 1.00162 0.0
C218 C 0.91803 0.22442 0.93016 0.0
C219 C 0.74622 0.10082 0.97646 0.0
O220 O 1.02898 0.10842 1.008 0.0
O221 O 1.02719 0.12214 0.95988 0.0
O222 O 0.91851 0.15285 1.03627 0.0
O223 O 0.83897 0.1997 1.00881 0.0
O224 O 0.98039 0.24779 0.98985 0.0
O225 O 0.85849 0.30283 0.99117 0.0
O226 O 0.68289 0.26052 0.94548 0.0
O227 O 0.70025 0.28589 0.9926 0.0
O228 O 0.8721 0.27062 0.93375 0.0
O229 O 0.88389 0.18614 0.94662 0.0
O230 O 0.71982 0.15413 0.97198 0.0
O231 O 0.82832 0.08949 0.98075 0.0
H232 H 0.16566 0.13489 1.03309 0.0
H233 H 0.30887 0.17077 1.03417 0.0
H234 H 0.31315 0.17196 0.93758 0.0
H235 H 0.17137 0.13592 0.93649 0.0
H236 H 0.51341 0.29496 0.94091 0.0
H237 H 0.37113 0.26027 0.94946 0.0
H238 H 0.46161 0.1578 1.02306 0.0
H239 H 0.60215 0.20188 1.01656 0.0
La240 La 0.99369 0.15487 0.86004 0.0
La241 La 0.13697 0.2361 0.87763 0.0
C242 C 0.85355 0.10847 0.86417 0.0
C243 C 0.76909 0.13375 0.86282 0.0
C244 C 0.72905 0.14427 0.8353 0.0
C245 C 0.64688 0.16505 0.83459 0.0
C246 C 0.60445 0.17741 0.86129 0.0
C247 C 0.64478 0.16589 0.88873 0.0
C248 C 0.72618 0.14501 0.88945 0.0
C249 C 1.07005 0.18827 0.81183 0.0
C250 C 0.98613 0.2989 0.85402 0.0
C251 C 0.27831 0.27914 0.87715 0.0
C252 C 0.35975 0.25302 0.86965 0.0
C253 C 0.42488 0.26668 0.88837 0.0
C254 C 0.50459 0.24535 0.8838 0.0
C255 C 0.52012 0.2044 0.86165 0.0
C256 C 0.45434 0.1892 0.84205 0.0
C257 C 0.3741 0.21399 0.84589 0.0
C258 C 1.00774 0.22444 0.91725 0.0
C259 C 0.17973 0.10081 0.87098 0.0
O260 O 0.89693 0.10849 0.8394 0.0
O261 O 0.89875 0.12209 0.88753 0.0
O262 O 1.0075 0.15282 0.81117 0.0
O263 O 1.087 0.19971 0.83863 0.0
O264 O 0.94557 0.24779 0.85756 0.0
O265 O 1.06748 0.30282 0.85627 0.0
O266 O 0.24301 0.26041 0.90202 0.0
O267 O 0.22566 0.28595 0.85493 0.0
O268 O 1.05375 0.27062 0.91371 0.0
O269 O 1.04195 0.18612 0.90082 0.0
O270 O 0.2061 0.15412 0.87547 0.0
O271 O 0.09763 0.08948 0.86668 0.0
H272 H 0.76015 0.13484 0.81433 0.0
H273 H 0.61693 0.17069 0.81327 0.0
H274 H 0.61285 0.17208 0.90986 0.0
H275 H 0.75463 0.13602 0.91093 0.0
H276 H 0.41261 0.29511 0.90652 0.0
H277 H 0.5549 0.26043 0.89791 0.0
H278 H 0.46419 0.15771 0.82445 0.0
H279 H 0.32365 0.20177 0.83099 0.0
La280 La 0.93228 0.4989 0.86004 0.0
La281 La 0.78902 0.41765 0.87763 0.0
C282 C 1.07242 0.54531 0.86418 0.0
C283 C 0.15687 0.52003 0.86283 0.0
C284 C 0.19691 0.50947 0.83531 0.0
C285 C 0.27908 0.48869 0.83462 0.0
C286 C 0.32151 0.47637 0.86133 0.0
C287 C 0.28119 0.48793 0.88875 0.0
C288 C 0.19979 0.5088 0.88947 0.0
C289 C 0.85592 0.46549 0.81183 0.0
C290 C 0.93985 0.35487 0.85401 0.0
C291 C 0.64767 0.37462 0.87715 0.0
C292 C 0.56623 0.40076 0.86967 0.0
C293 C 0.50116 0.38719 0.88843 0.0
C294 C 0.42145 0.40852 0.88387 0.0
C295 C 0.40586 0.4494 0.86169 0.0
C296 C 0.4716 0.46453 0.84206 0.0
C297 C 0.55184 0.43973 0.84589 0.0
C298 C 0.91825 0.42932 0.91725 0.0
C299 C 0.74624 0.55295 0.87098 0.0
O300 O 1.02905 0.54527 0.8394 0.0
O301 O 1.02721 0.5317 0.88753 0.0
O302 O 0.91847 0.50095 0.81117 0.0
O303 O 0.83897 0.45406 0.83864 0.0
O304 O 0.98041 0.40598 0.85756 0.0
O305 O 0.8585 0.35094 0.85627 0.0
O306 O 0.683 0.39333 0.90202 0.0
O307 O 0.70031 0.36782 0.85492 0.0
O308 O 0.87225 0.38314 0.91371 0.0
O309 O 0.88403 0.46764 0.90082 0.0
O310 O 0.71987 0.49963 0.87547 0.0
O311 O 0.82834 0.56428 0.86668 0.0
H312 H 0.16581 0.51886 0.81434 0.0
H313 H 0.30903 0.48301 0.8133 0.0
H314 H 0.31312 0.48178 0.90989 0.0
H315 H 0.17134 0.51783 0.91094 0.0
H316 H 0.51344 0.35878 0.90658 0.0
H317 H 0.37117 0.39349 0.89802 0.0
H318 H 0.46171 0.49598 0.82444 0.0
H319 H 0.60226 0.4519 0.83096 0.0
La320 La 1.0391 -0.01394 0.6276 0.0
La321 La 0.18217 0.90487 0.60995 0.0
C322 C 0.89771 0.02907 0.62716 0.0
C323 C 0.81627 0.00295 0.61965 0.0
C324 C 0.7511 0.01666 0.63834 0.0
C325 C 0.67139 -0.00466 0.63376 0.0
C326 C 0.65589 -0.04564 0.61162 0.0
C327 C 0.72171 0.93913 0.59204 0.0
C328 C 0.80196 -0.03609 0.5959 0.0
C329 C 0.16809 -0.02562 0.66726 0.0
C330 C 0.99625 0.85079 0.6209 0.0
C331 C 0.3224 0.85852 0.61403 0.0
C332 C 0.40687 0.88379 0.61271 0.0
C333 C 0.44699 0.89429 0.5852 0.0
C334 C 0.52917 0.91505 0.58452 0.0
C335 C 0.57155 0.92739 0.61124 0.0
C336 C 0.53116 0.91588 0.63866 0.0
C337 C 0.44974 0.89503 0.63936 0.0
C338 C 0.10577 0.93827 0.56175 0.0
C339 C 0.18983 0.04891 0.60401 0.0
O340 O 0.93304 0.01028 0.65201 0.0
O341 O 0.95034 0.03593 0.60494 0.0
O342 O 0.12214 0.02057 0.66368 0.0
O343 O 0.13414 0.93597 0.65081 0.0
O344 O 0.96991 0.90411 0.62542 0.0
O345 O 1.07832 0.83946 0.61659 0.0
O346 O 0.27903 0.85866 0.58926 0.0
O347 O 0.27719 0.87205 0.6374 0.0
O348 O 0.16818 0.90269 0.56109 0.0
O349 O 0.08903 0.94992 0.58854 0.0
O350 O 0.23035 -0.00222 0.60751 0.0
O351 O 0.1085 0.05285 0.60629 0.0
H352 H 0.76334 0.04511 0.65648 0.0
H353 H 0.62105 0.01043 0.64786 0.0
H354 H 0.71189 0.90762 0.57445 0.0
H355 H 0.85243 0.95166 0.58101 0.0
H356 H 0.41593 0.88486 0.56423 0.0
H357 H 0.55917 0.92069 0.56321 0.0
H358 H 0.56305 0.92205 0.6598 0.0
H359 H 0.42124 0.88604 0.66083 0.0
La360 La 0.38687 0.1677 0.6276 0.0
La361 La 0.2438 0.24889 0.60995 0.0
C362 C 0.52826 0.1247 0.62716 0.0
C363 C 0.60969 0.15083 0.61967 0.0
C364 C 0.6748 0.13723 0.6384 0.0
C365 C 0.75452 0.15855 0.63384 0.0
C366 C 0.77007 0.19945 0.61166 0.0
C367 C 0.7043 0.2146 0.59204 0.0
C368 C 0.62405 0.18982 0.59589 0.0
C369 C 0.25787 0.17939 0.66725 0.0
C370 C 0.42973 0.30296 0.6209 0.0
C371 C 0.10358 0.29526 0.61403 0.0
C372 C 1.01911 0.26999 0.61272 0.0
C373 C 0.97899 0.25945 0.58522 0.0
C374 C 0.89681 0.23869 0.58455 0.0
C375 C 0.85443 0.2264 0.61127 0.0
C376 C 0.89482 0.23796 0.63868 0.0
C377 C 0.97624 0.2588 0.63937 0.0
C378 C 0.3202 0.2155 0.56175 0.0
C379 C 0.23614 0.10486 0.604 0.0
O380 O 0.4929 0.14345 0.65201 0.0
O381 O 0.47564 0.11785 0.60493 0.0
O382 O 0.30381 0.13319 0.66367 0.0
O383 O 0.29183 0.21779 0.65081 0.0
O384 O 0.45606 0.24964 0.62542 0.0
O385 O 0.34767 0.3143 0.61658 0.0
O386 O 0.14694 0.29509 0.58926 0.0
O387 O 0.14881 0.28174 0.6374 0.0
O388 O 0.2578 0.25108 0.56109 0.0
O389 O 0.33693 0.20384 0.58854 0.0
O390 O 0.19561 0.15599 0.60751 0.0
O391 O 0.31746 0.10091 0.60629 0.0
H392 H 0.66254 0.10881 0.65655 0.0
H393 H 0.80481 0.14351 0.64797 0.0
H394 H 0.71415 0.24605 0.57443 0.0
H395 H 0.57361 0.202 0.58097 0.0
H396 H 1.01004 0.26884 0.56424 0.0
H397 H 0.86681 0.23301 0.56324 0.0
H398 H 0.86293 0.23183 0.65983 0.0
H399 H 1.00475 0.26782 0.66084 0.0
La400 La 1.03916 0.16772 0.71983 0.0
La401 La 0.18219 0.24891 0.73752 0.0
C402 C 0.89777 0.12471 0.72024 0.0
C403 C 0.81633 0.15082 0.72775 0.0
C404 C 0.75114 0.1371 0.70907 0.0
C405 C 0.67143 0.15843 0.71366 0.0
C406 C 0.65595 0.19941 0.7358 0.0
C407 C 0.72178 0.21464 0.75537 0.0
C408 C 0.80203 0.18987 0.7515 0.0
C409 C 0.16826 0.17937 0.68023 0.0
C410 C 0.99625 0.30297 0.72656 0.0
C411 C 0.32243 0.29524 0.73346 0.0
C412 C 0.4069 0.26996 0.73476 0.0
C413 C 0.44707 0.25947 0.76226 0.0
C414 C 0.52926 0.23872 0.76292 0.0
C415 C 0.5716 0.22637 0.7362 0.0
C416 C 0.53115 0.23787 0.70878 0.0
C417 C 0.44973 0.25872 0.7081 0.0
C418 C 0.10583 0.21545 0.7857 0.0
C419 C 0.18984 0.10486 0.74345 0.0
O420 O 0.93312 0.14354 0.6954 0.0
O421 O 0.9504 0.11781 0.74245 0.0
O422 O 0.12225 0.1332 0.68376 0.0
O423 O 0.13425 0.21781 0.69665 0.0
O424 O 0.96995 0.24966 0.72203 0.0
O425 O 1.07831 0.31432 0.73088 0.0
O426 O 0.27908 0.29505 0.75823 0.0
O427 O 0.2772 0.28177 0.71008 0.0
O428 O 0.16815 0.2511 0.78637 0.0
O429 O 0.08907 0.20381 0.75891 0.0
O430 O 0.23036 0.15599 0.73996 0.0
O431 O 0.10851 0.10092 0.74115 0.0
H432 H 0.76337 0.10864 0.69093 0.0
H433 H 0.62108 0.14333 0.69957 0.0
H434 H 0.71197 0.24615 0.77296 0.0
H435 H 0.85252 0.20212 0.76639 0.0
H436 H 0.41606 0.2689 0.78324 0.0
H437 H 0.55931 0.23309 0.78422 0.0
H438 H 0.56302 0.23169 0.68764 0.0
H439 H 0.4212 0.26771 0.68664 0.0
La440 La 0.38681 -0.01394 0.71983 0.0
La441 La 0.24379 0.90486 0.73751 0.0
C442 C 0.5282 0.02905 0.72024 0.0
C443 C 0.60964 0.00292 0.72773 0.0
C444 C 0.67477 0.01654 0.70901 0.0
C445 C 0.75448 -0.00479 0.71358 0.0
C446 C 0.77003 -0.04569 0.73576 0.0
C447 C 0.70423 0.93915 0.75537 0.0
C448 C 0.62399 -0.03607 0.75151 0.0
C449 C 0.25771 -0.0256 0.68024 0.0
C450 C 0.42973 0.8508 0.72656 0.0
C451 C 0.10356 0.85851 0.73345 0.0
C452 C 1.01909 0.88378 0.73474 0.0
C453 C 0.97893 0.89433 0.76223 0.0
C454 C 0.89674 0.91508 0.76289 0.0
C455 C 0.85439 0.92737 0.73616 0.0
C456 C 0.89483 0.91581 0.70876 0.0
C457 C 0.97625 0.89497 0.70808 0.0
C458 C 0.32021 0.93826 0.7857 0.0
C459 C 0.23614 0.0489 0.74346 0.0
O460 O 0.49283 0.01025 0.69539 0.0
O461 O 0.4756 0.03595 0.74246 0.0
O462 O 0.30371 0.02057 0.68376 0.0
O463 O 0.29172 0.93597 0.69665 0.0
O464 O 0.45604 0.90412 0.72202 0.0
O465 O 0.34767 0.83945 0.73088 0.0
O466 O 0.1469 0.85872 0.75823 0.0
O467 O 0.1488 0.87196 0.71008 0.0
O468 O 0.25784 0.90266 0.78637 0.0
O469 O 0.33693 0.94993 0.75891 0.0
O470 O 0.19561 -0.00222 0.73996 0.0
O471 O 0.31747 0.05285 0.74116 0.0
H472 H 0.66252 0.04498 0.69086 0.0
H473 H 0.80479 0.01025 0.69945 0.0
H474 H 0.71408 0.9077 0.77298 0.0
H475 H 0.57354 0.95174 0.76642 0.0
H476 H 1.00995 0.88494 0.78322 0.0
H477 H 0.8667 0.92075 0.78419 0.0
H478 H 0.86296 0.92195 0.6876 0.0
H479 H 1.00478 0.88595 0.68662 0.0
La480 La 0.99372 -0.00112 0.48739 0.0
La481 La 0.13704 0.91764 0.46985 0.0
C482 C 0.85359 0.04529 0.48323 0.0
C483 C 0.76914 0.02002 0.48461 0.0
C484 C 0.72916 0.00949 0.51214 0.0
C485 C 0.64699 -0.01129 0.51286 0.0
C486 C 0.60451 -0.02364 0.48617 0.0
C487 C 0.64478 -0.01211 0.45873 0.0
C488 C 0.72617 0.00877 0.45799 0.0
C489 C 1.06997 -0.03457 0.53562 0.0
C490 C 0.98613 0.85486 0.4934 0.0
C491 C 0.27838 0.87459 0.47038 0.0
C492 C 0.35982 0.90073 0.47785 0.0
C493 C 0.42491 0.8871 0.45912 0.0
C494 C 0.50463 0.90842 0.46368 0.0
C495 C 0.52019 0.94936 0.48583 0.0
C496 C 0.45444 -0.03546 0.50545 0.0
C497 C 0.37419 0.93975 0.50162 0.0
C498 C 1.00794 0.92934 0.43016 0.0
C499 C 0.17975 0.05295 0.47646 0.0
O500 O 0.89699 0.04535 0.508 0.0
O501 O 0.89876 0.03159 0.45988 0.0
O502 O 1.00745 0.00091 0.53627 0.0
O503 O 1.08698 -0.04597 0.50882 0.0
O504 O 0.94558 0.90597 0.48986 0.0
O505 O 1.06748 0.85093 0.49117 0.0
O506 O 0.2431 0.89326 0.44549 0.0
O507 O 0.22571 0.86786 0.4926 0.0
O508 O 1.05388 0.88315 0.43375 0.0
O509 O 1.04208 -0.03237 0.44662 0.0
O510 O 0.20615 -0.00037 0.47199 0.0
O511 O 0.09765 0.06427 0.48075 0.0
H512 H 0.7603 0.01891 0.5331 0.0
H513 H 0.61709 -0.01696 0.53419 0.0
H514 H 0.6128 -0.01829 0.43761 0.0
H515 H 0.75458 0.01777 0.43651 0.0
H516 H 0.41263 0.85869 0.44097 0.0
H517 H 0.55492 0.89335 0.44955 0.0
H518 H 0.46431 -0.00397 0.52305 0.0
H519 H 0.32376 -0.04805 0.51654 0.0
La520 La 0.93226 0.65488 0.48739 0.0
La521 La 0.78894 0.73612 0.46984 0.0
C522 C 1.07238 0.60845 0.48323 0.0
C523 C 0.15683 0.63372 0.48461 0.0
C524 C 0.19682 0.64428 0.51213 0.0
C525 C 0.27898 0.66507 0.51284 0.0
C526 C 0.32146 0.67738 0.48615 0.0
C527 C 0.28118 0.66582 0.45871 0.0
C528 C 0.19979 0.64495 0.45798 0.0
C529 C 0.85594 0.68828 0.53561 0.0
C530 C 0.93984 0.79889 0.49341 0.0
C531 C 0.6476 0.77916 0.47037 0.0
C532 C 0.56616 0.75301 0.47784 0.0
C533 C 0.5011 0.76658 0.45907 0.0
C534 C 0.42139 0.74526 0.46362 0.0
C535 C 0.40579 0.70437 0.4858 0.0
C536 C 0.47152 0.68923 0.50544 0.0
C537 C 0.55176 0.71403 0.50161 0.0
C538 C 0.91805 0.72442 0.43016 0.0
C539 C 0.74623 0.60082 0.47646 0.0
O540 O 1.02899 0.60843 0.508 0.0
O541 O 1.02719 0.62214 0.45988 0.0
O542 O 0.91851 0.65284 0.53627 0.0
O543 O 0.83897 0.6997 0.50881 0.0
O544 O 0.9804 0.74779 0.48986 0.0
O545 O 0.85849 0.80283 0.49117 0.0
O546 O 0.68289 0.76051 0.44548 0.0
O547 O 0.70025 0.7859 0.49259 0.0
O548 O 0.87211 0.77062 0.43375 0.0
O549 O 0.8839 0.68613 0.44662 0.0
O550 O 0.71983 0.65413 0.47198 0.0
O551 O 0.82833 0.58949 0.48075 0.0
H552 H 0.16568 0.63488 0.53309 0.0
H553 H 0.30889 0.67076 0.53417 0.0
H554 H 0.31315 0.67197 0.43758 0.0
H555 H 0.17138 0.63593 0.4365 0.0
H556 H 0.5134 0.79498 0.44092 0.0
H557 H 0.37112 0.76029 0.44948 0.0
H558 H 0.46163 0.65778 0.52305 0.0
H559 H 0.60217 0.70187 0.51655 0.0
La560 La 0.9937 0.65486 0.36004 0.0
La561 La 0.13697 0.73611 0.37762 0.0
C562 C 0.85355 0.60847 0.36417 0.0
C563 C 0.7691 0.63375 0.36282 0.0
C564 C 0.72907 0.64428 0.3353 0.0
C565 C 0.6469 0.66506 0.3346 0.0
C566 C 0.60446 0.67741 0.3613 0.0
C567 C 0.64479 0.66589 0.38873 0.0
C568 C 0.72618 0.64501 0.38945 0.0
C569 C 1.06998 0.68833 0.31183 0.0
C570 C 0.98612 0.7989 0.35403 0.0
C571 C 0.27832 0.77915 0.37714 0.0
C572 C 0.35975 0.75302 0.36965 0.0
C573 C 0.42487 0.76666 0.38837 0.0
C574 C 0.50458 0.74534 0.38381 0.0
C575 C 0.52013 0.7044 0.36165 0.0
C576 C 0.45436 0.68921 0.34204 0.0
C577 C 0.37411 0.714 0.34589 0.0
C578 C 1.00776 0.72443 0.41725 0.0
C579 C 0.17974 0.60081 0.37098 0.0
O580 O 0.89694 0.60848 0.3394 0.0
O581 O 0.89875 0.6221 0.38753 0.0
O582 O 1.00749 0.65282 0.31117 0.0
O583 O 1.08697 0.69973 0.33863 0.0
O584 O 0.94557 0.74779 0.35756 0.0
O585 O 1.06747 0.80282 0.35628 0.0
O586 O 0.24301 0.76043 0.40201 0.0
O587 O 0.22566 0.78594 0.35492 0.0
O588 O 1.05376 0.77061 0.41371 0.0
O589 O 1.04196 0.68612 0.40082 0.0
O590 O 0.20611 0.65413 0.37547 0.0
O591 O 0.09764 0.58948 0.36668 0.0
H592 H 0.76017 0.63485 0.31433 0.0
H593 H 0.61694 0.6707 0.31328 0.0
H594 H 0.61285 0.67207 0.40986 0.0
H595 H 0.75463 0.63601 0.41093 0.0
H596 H 0.4126 0.79509 0.40652 0.0
H597 H 0.55489 0.76041 0.39793 0.0
H598 H 0.46421 0.65772 0.32445 0.0
H599 H 0.32367 0.70179 0.33097 0.0
La600 La 0.93227 -0.0011 0.36005 0.0
La601 La 0.789 0.91765 0.37763 0.0
C602 C 1.07241 0.04531 0.36418 0.0
C603 C 0.15686 0.02003 0.36283 0.0
C604 C 0.19689 0.00947 0.33531 0.0
C605 C 0.27906 -0.01131 0.33462 0.0
C606 C 0.3215 -0.02363 0.36132 0.0
C607 C 0.28118 -0.01207 0.38875 0.0
C608 C 0.19978 0.0088 0.38947 0.0
C609 C 0.85592 -0.03451 0.31183 0.0
C610 C 0.93984 0.85487 0.35402 0.0
C611 C 0.64766 0.87462 0.37714 0.0
C612 C 0.56622 0.90076 0.36967 0.0
C613 C 0.50114 0.88718 0.38842 0.0
C614 C 0.42143 0.90851 0.38386 0.0
C615 C 0.40584 0.9494 0.36169 0.0
C616 C 0.47159 -0.03546 0.34205 0.0
C617 C 0.55183 0.93974 0.34589 0.0
C618 C 0.91823 0.92932 0.41725 0.0
C619 C 0.74623 0.05295 0.37098 0.0
O620 O 1.02904 0.04528 0.33941 0.0
O621 O 1.0272 0.03169 0.38754 0.0
O622 O 0.91846 0.00095 0.31117 0.0
O623 O 0.83897 -0.04594 0.33864 0.0
O624 O 0.9804 0.90598 0.35756 0.0
O625 O 0.8585 0.85094 0.35627 0.0
O626 O 0.68298 0.89332 0.40202 0.0
O627 O 0.7003 0.86783 0.35492 0.0
O628 O 0.87223 0.88314 0.41371 0.0
O629 O 0.88402 -0.03236 0.40083 0.0
O630 O 0.71986 -0.00037 0.37547 0.0
O631 O 0.82832 0.06428 0.36669 0.0
H632 H 0.16578 0.01886 0.31435 0.0
H633 H 0.30901 -0.017 0.3133 0.0
H634 H 0.31312 -0.01822 0.40989 0.0
H635 H 0.17134 0.01783 0.41094 0.0
H636 H 0.51342 0.85877 0.40657 0.0
H637 H 0.37115 0.89347 0.398 0.0
H638 H 0.46171 -0.00401 0.32444 0.0
H639 H 0.60225 -0.04809 0.33096 0.0
La640 La 0.53908 0.48606 0.6276 0.0
La641 La 0.68216 0.40487 0.60995 0.0
C642 C 0.39769 0.52907 0.62715 0.0
C643 C 0.31625 0.50297 0.61964 0.0
C644 C 0.25104 0.51674 0.6383 0.0
C645 C 0.17132 0.49543 0.6337 0.0
C646 C 0.15587 0.45439 0.61159 0.0
C647 C 0.22172 0.4391 0.59204 0.0
C648 C 0.30197 0.46387 0.5959 0.0
C649 C 0.66807 0.47437 0.66726 0.0
C650 C 0.49623 0.3508 0.6209 0.0
C651 C 0.82239 0.35853 0.61404 0.0
C652 C 0.90687 0.38379 0.6127 0.0
C653 C 0.94697 0.39428 0.58519 0.0
C654 C 1.02915 0.41504 0.58451 0.0
C655 C 1.07154 0.4274 0.61122 0.0
C656 C 1.03117 0.4159 0.63864 0.0
C657 C 0.94975 0.39505 0.63935 0.0
C658 C 0.60577 0.43827 0.56175 0.0
C659 C 0.68981 0.54891 0.60402 0.0
O660 O 0.433 0.51027 0.65201 0.0
O661 O 0.45034 0.53594 0.60494 0.0
O662 O 0.62212 0.52056 0.66368 0.0
O663 O 0.63412 0.43597 0.65081 0.0
O664 O 0.4699 0.40411 0.62541 0.0
O665 O 0.5783 0.33946 0.61659 0.0
O666 O 0.77901 0.35865 0.58927 0.0
O667 O 0.77719 0.37207 0.6374 0.0
O668 O 0.66818 0.4027 0.56109 0.0
O669 O 0.58903 0.44993 0.58854 0.0
O670 O 0.73033 0.49778 0.60752 0.0
O671 O 0.60848 0.55286 0.6063 0.0
H672 H 0.26326 0.54522 0.65643 0.0
H673 H 0.12095 0.51056 0.64777 0.0
H674 H 0.21192 0.40755 0.57446 0.0
H675 H 0.35248 0.45159 0.58103 0.0
H676 H 0.91591 0.38485 0.56422 0.0
H677 H 1.05915 0.42067 0.5632 0.0
H678 H 1.06307 0.42211 0.65978 0.0
H679 H 0.92126 0.38607 0.66082 0.0
La680 La 0.88687 0.66769 0.6276 0.0
La681 La 0.74381 0.74889 0.60995 0.0
C682 C 1.02826 0.62469 0.62715 0.0
C683 C 0.10969 0.65085 0.61968 0.0
C684 C 0.17475 0.63731 0.63845 0.0
C685 C 0.25447 0.65865 0.63389 0.0
C686 C 0.27007 0.69947 0.61168 0.0
C687 C 0.20433 0.71457 0.59204 0.0
C688 C 0.12409 0.68978 0.59588 0.0
C689 C 0.75788 0.67939 0.66725 0.0
C690 C 0.92975 0.80296 0.6209 0.0
C691 C 0.6036 0.79526 0.61403 0.0
C692 C 0.51913 0.76999 0.61272 0.0
C693 C 0.479 0.75943 0.58522 0.0
C694 C 0.39682 0.73867 0.58456 0.0
C695 C 0.35444 0.72641 0.61128 0.0
C696 C 0.39484 0.73799 0.63869 0.0
C697 C 0.47627 0.75882 0.63938 0.0
C698 C 0.82014 0.71544 0.56174 0.0
C699 C 0.73613 0.60486 0.60401 0.0
O700 O 0.99289 0.64341 0.65201 0.0
O701 O 0.97565 0.61787 0.60492 0.0
O702 O 0.80382 0.63319 0.66367 0.0
O703 O 0.79184 0.71779 0.65081 0.0
O704 O 0.95607 0.74964 0.62542 0.0
O705 O 0.84768 0.8143 0.61658 0.0
O706 O 0.64695 0.79509 0.58925 0.0
O707 O 0.64883 0.78175 0.6374 0.0
O708 O 0.7578 0.75107 0.56108 0.0
O709 O 0.83691 0.70381 0.58854 0.0
O710 O 0.69561 0.65599 0.60752 0.0
O711 O 0.81745 0.6009 0.60629 0.0
H712 H 0.16247 0.60892 0.65661 0.0
H713 H 0.30472 0.64364 0.64805 0.0
H714 H 0.21422 0.74598 0.5744 0.0
H715 H 1.07368 0.70192 0.58093 0.0
H716 H 0.51005 0.7688 0.56424 0.0
H717 H 0.36682 0.73298 0.56326 0.0
H718 H 0.36295 0.73189 0.65984 0.0
H719 H 0.50478 0.76785 0.66084 0.0
La720 La 0.53916 0.66772 0.71982 0.0
La721 La 0.68219 0.7489 0.73752 0.0
C722 C 0.39776 0.62472 0.72023 0.0
C723 C 0.31632 0.65081 0.72776 0.0
C724 C 0.25109 0.63702 0.70911 0.0
C725 C 0.17138 0.65834 0.71371 0.0
C726 C 0.15594 0.69938 0.73583 0.0
C727 C 0.22182 0.71468 0.75537 0.0
C728 C 0.30207 0.68991 0.75149 0.0
C729 C 0.66827 0.67937 0.68023 0.0
C730 C 0.49626 0.80298 0.72656 0.0
C731 C 0.82244 0.79524 0.73346 0.0
C732 C 0.90691 0.76996 0.73476 0.0
C733 C 0.94708 0.75948 0.76227 0.0
C734 C 1.02927 0.73874 0.76293 0.0
C735 C 1.0716 0.72636 0.73621 0.0
C736 C 1.03117 0.73784 0.7088 0.0
C737 C 0.94975 0.7587 0.70811 0.0
C738 C 0.60576 0.7155 0.7857 0.0
C739 C 0.68982 0.60486 0.74345 0.0
O740 O 0.4331 0.64358 0.69539 0.0
O741 O 0.4504 0.61779 0.74244 0.0
O742 O 0.62225 0.6332 0.68376 0.0
O743 O 0.63426 0.71781 0.69664 0.0
O744 O 0.46995 0.74966 0.72203 0.0
O745 O 0.57832 0.81432 0.73088 0.0
O746 O 0.77908 0.79505 0.75823 0.0
O747 O 0.77722 0.78177 0.71008 0.0
O748 O 0.66814 0.7511 0.78637 0.0
O749 O 0.58904 0.70384 0.7589 0.0
O750 O 0.73035 0.65598 0.73996 0.0
O751 O 0.6085 0.60092 0.74116 0.0
H752 H 0.26329 0.60853 0.69099 0.0
H753 H 0.12099 0.6432 0.69965 0.0
H754 H 0.21204 0.74623 0.77294 0.0
H755 H 0.35259 0.70221 0.76635 0.0
H756 H 0.91606 0.76893 0.78324 0.0
H757 H 1.05932 0.73313 0.78424 0.0
H758 H 1.06303 0.73163 0.68765 0.0
H759 H 0.92122 0.76767 0.68664 0.0
La760 La 0.88679 0.48606 0.71983 0.0
La761 La 0.74378 0.40486 0.73752 0.0
C762 C 1.02818 0.52905 0.72024 0.0
C763 C 0.10962 0.50291 0.72772 0.0
C764 C 0.17471 0.51646 0.70896 0.0
C765 C 0.25442 0.49512 0.71352 0.0
C766 C 0.27 0.45429 0.73573 0.0
C767 C 0.20425 0.43919 0.75537 0.0
C768 C 0.124 0.46397 0.75151 0.0
C769 C 0.75768 0.4744 0.68024 0.0
C770 C 0.92973 0.3508 0.72656 0.0
C771 C 0.60356 0.35851 0.73346 0.0
C772 C 0.51909 0.38378 0.73474 0.0
C773 C 0.47891 0.39434 0.76223 0.0
C774 C 0.39672 0.41509 0.76288 0.0
C775 C 0.35438 0.42736 0.73614 0.0
C776 C 0.39484 0.41579 0.70874 0.0
C777 C 0.47627 0.39496 0.70807 0.0
C778 C 0.82015 0.43831 0.78571 0.0
C779 C 0.73613 0.5489 0.74346 0.0
O780 O 0.99279 0.51027 0.69539 0.0
O781 O 0.97559 0.53593 0.74246 0.0
O782 O 0.80368 0.52057 0.68377 0.0
O783 O 0.7917 0.43596 0.69665 0.0
O784 O 0.95602 0.40412 0.72203 0.0
O785 O 0.84767 0.33945 0.73089 0.0
O786 O 0.64689 0.35873 0.75824 0.0
O787 O 0.6488 0.37194 0.71008 0.0
O788 O 0.75783 0.40266 0.78638 0.0
O789 O 0.8369 0.44995 0.75891 0.0
O790 O 0.6956 0.49777 0.73996 0.0
O791 O 0.81745 0.55285 0.74116 0.0
H792 H 0.16244 0.54487 0.69081 0.0
H793 H 0.30469 0.51013 0.69937 0.0
H794 H 0.21412 0.40777 0.773 0.0
H795 H 1.07358 0.45182 0.76645 0.0
H796 H 0.50992 0.38496 0.78322 0.0
H797 H 0.36667 0.42077 0.78417 0.0
H798 H 0.36298 0.42189 0.68759 0.0
H799 H 0.50481 0.38592 0.68662 0.0
La800 La 0.49373 0.49888 0.48738 0.0
La801 La 0.63705 0.41764 0.46984 0.0
C802 C 0.35359 0.54529 0.48323 0.0
C803 C 0.26914 0.52002 0.48461 0.0
C804 C 0.22917 0.5095 0.51215 0.0
C805 C 0.14701 0.48871 0.51287 0.0
C806 C 0.10452 0.47635 0.48619 0.0
C807 C 0.14477 0.48787 0.45874 0.0
C808 C 0.22616 0.50875 0.45799 0.0
C809 C 0.56997 0.46543 0.53562 0.0
C810 C 0.48614 0.35486 0.49339 0.0
C811 C 0.7784 0.37459 0.47038 0.0
C812 C 0.85983 0.40072 0.47786 0.0
C813 C 0.92496 0.38705 0.45915 0.0
C814 C 1.00467 0.40836 0.46372 0.0
C815 C 1.02021 0.44934 0.48585 0.0
C816 C 0.95443 0.46456 0.50545 0.0
C817 C 0.87418 0.43977 0.50161 0.0
C818 C 0.50796 0.42935 0.43015 0.0
C819 C 0.67976 0.55295 0.47646 0.0
O820 O 0.397 0.54536 0.50799 0.0
O821 O 0.39876 0.53157 0.45988 0.0
O822 O 0.50745 0.50091 0.53627 0.0
O823 O 0.58698 0.45403 0.50882 0.0
O824 O 0.4456 0.40597 0.48985 0.0
O825 O 0.56749 0.35092 0.49116 0.0
O826 O 0.74313 0.39327 0.44549 0.0
O827 O 0.72572 0.36785 0.49259 0.0
O828 O 0.5539 0.38315 0.43374 0.0
O829 O 0.5421 0.46763 0.44662 0.0
O830 O 0.70616 0.49963 0.47199 0.0
O831 O 0.59766 0.56427 0.48075 0.0
H832 H 0.26033 0.51892 0.5331 0.0
H833 H 0.11712 0.48305 0.5342 0.0
H834 H 0.11279 0.48168 0.43762 0.0
H835 H 0.25456 0.51775 0.43651 0.0
H836 H 0.91268 0.35861 0.441 0.0
H837 H 1.05499 0.39327 0.44961 0.0
H838 H 0.96428 0.49608 0.52304 0.0
H839 H 0.82374 0.45201 0.51652 0.0
La840 La 0.43225 0.15488 0.48739 0.0
La841 La 0.28894 0.23612 0.46985 0.0
C842 C 0.57237 0.10845 0.48323 0.0
C843 C 0.65682 0.13372 0.4846 0.0
C844 C 0.69681 0.14429 0.51213 0.0
C845 C 0.77897 0.16508 0.51284 0.0
C846 C 0.82145 0.17738 0.48614 0.0
C847 C 0.78117 0.1658 0.4587 0.0
C848 C 0.69977 0.14494 0.45797 0.0
C849 C 0.356 0.18834 0.53562 0.0
C850 C 0.43985 0.29889 0.4934 0.0
C851 C 0.14759 0.27917 0.47038 0.0
C852 C 1.06616 0.253 0.47783 0.0
C853 C 1.00113 0.26652 0.45905 0.0
C854 C 0.92142 0.24519 0.46359 0.0
C855 C 0.90579 0.20435 0.48579 0.0
C856 C 0.97149 0.18926 0.50545 0.0
C857 C 1.05173 0.21406 0.50162 0.0
C858 C 0.41804 0.22442 0.43016 0.0
C859 C 0.24621 0.10082 0.47646 0.0
O860 O 0.52898 0.10842 0.508 0.0
O861 O 0.52718 0.12214 0.45988 0.0
O862 O 0.41852 0.15285 0.53627 0.0
O863 O 0.33899 0.19973 0.50882 0.0
O864 O 0.48039 0.24779 0.48985 0.0
O865 O 0.3585 0.30284 0.49117 0.0
O866 O 0.1829 0.26054 0.44548 0.0
O867 O 0.20025 0.28588 0.4926 0.0
O868 O 0.3721 0.27062 0.43375 0.0
O869 O 0.38389 0.18613 0.44662 0.0
O870 O 0.21982 0.15413 0.47198 0.0
O871 O 0.32831 0.08949 0.48075 0.0
H872 H 0.66567 0.13491 0.53309 0.0
H873 H 0.80887 0.17078 0.53416 0.0
H874 H 0.81314 0.17193 0.43757 0.0
H875 H 0.67136 0.13591 0.43649 0.0
H876 H 1.01345 0.2949 0.44088 0.0
H877 H 0.87118 0.2602 0.44942 0.0
H878 H 0.96158 0.15784 0.52307 0.0
H879 H 0.10212 0.20193 0.51658 0.0
La880 La 0.4937 0.15487 0.36004 0.0
La881 La 0.63697 0.2361 0.37763 0.0
C882 C 0.35355 0.10847 0.36417 0.0
C883 C 0.26909 0.13375 0.36281 0.0
C884 C 0.22906 0.14426 0.33529 0.0
C885 C 0.14689 0.16504 0.33459 0.0
C886 C 0.10446 0.17741 0.36128 0.0
C887 C 0.14478 0.16591 0.38872 0.0
C888 C 0.22617 0.14503 0.38945 0.0
C889 C 0.57005 0.18827 0.31183 0.0
C890 C 0.48614 0.2989 0.35403 0.0
C891 C 0.77832 0.27914 0.37715 0.0
C892 C 0.85976 0.25303 0.36965 0.0
C893 C 0.92491 0.26672 0.38835 0.0
C894 C 1.00462 0.2454 0.38377 0.0
C895 C 1.02013 0.20441 0.36164 0.0
C896 C 0.95433 0.18918 0.34205 0.0
C897 C 0.87408 0.21397 0.3459 0.0
C898 C 0.50774 0.22443 0.41725 0.0
C899 C 0.67973 0.10081 0.37098 0.0
O900 O 0.39693 0.10849 0.3394 0.0
O901 O 0.39874 0.1221 0.38753 0.0
O902 O 0.50751 0.15282 0.31117 0.0
O903 O 0.58701 0.19971 0.33863 0.0
O904 O 0.44558 0.24779 0.35756 0.0
O905 O 0.56748 0.30282 0.35628 0.0
O906 O 0.74302 0.2604 0.40202 0.0
O907 O 0.72566 0.28596 0.35493 0.0
O908 O 0.55375 0.27061 0.41371 0.0
O909 O 0.54195 0.18612 0.40083 0.0
O910 O 0.70611 0.15412 0.37547 0.0
O911 O 0.59764 0.08948 0.36669 0.0
H912 H 0.26016 0.13483 0.31433 0.0
H913 H 0.11693 0.17068 0.31327 0.0
H914 H 0.11284 0.17211 0.40985 0.0
H915 H 0.25462 0.13604 0.41092 0.0
H916 H 0.91266 0.29517 0.40649 0.0
H917 H 1.05495 0.2605 0.39787 0.0
H918 H 0.96417 0.15767 0.32446 0.0
H919 H 0.82362 0.20173 0.331 0.0
La920 La 0.43228 0.4989 0.36004 0.0
La921 La 0.28902 0.41765 0.37762 0.0
C922 C 0.57241 0.54531 0.36417 0.0
C923 C 0.65686 0.52002 0.36283 0.0
C924 C 0.69691 0.50946 0.33532 0.0
C925 C 0.77908 0.48868 0.33463 0.0
C926 C 0.82151 0.47638 0.36133 0.0
C927 C 0.78118 0.48794 0.38876 0.0
C928 C 0.69978 0.50881 0.38947 0.0
C929 C 0.35599 0.46544 0.31183 0.0
C930 C 0.43985 0.35487 0.35402 0.0
C931 C 0.14767 0.37462 0.37714 0.0
C932 C 1.06624 0.40077 0.36968 0.0
C933 C 1.00119 0.38723 0.38845 0.0
C934 C 0.92147 0.40857 0.3839 0.0
C935 C 0.90586 0.44941 0.3617 0.0
C936 C 0.97158 0.46451 0.34205 0.0
C937 C 1.05183 0.43971 0.34588 0.0
C938 C 0.41825 0.42933 0.41724 0.0
C939 C 0.24624 0.55295 0.37098 0.0
O940 O 0.52905 0.54527 0.3394 0.0
O941 O 0.5272 0.5317 0.38753 0.0
O942 O 0.41847 0.50095 0.31117 0.0
O943 O 0.339 0.45403 0.33863 0.0
O944 O 0.48041 0.40598 0.35756 0.0
O945 O 0.35851 0.35094 0.35627 0.0
O946 O 0.18301 0.39331 0.40202 0.0
O947 O 0.20031 0.36784 0.35492 0.0
O948 O 0.37225 0.38315 0.41371 0.0
O949 O 0.38403 0.46764 0.40082 0.0
O950 O 0.21987 0.49963 0.37547 0.0
O951 O 0.32833 0.56428 0.36668 0.0
H952 H 0.66581 0.51885 0.31434 0.0
H953 H 0.80903 0.48299 0.31331 0.0
H954 H 0.81311 0.48181 0.4099 0.0
H955 H 0.67132 0.51784 0.41094 0.0
H956 H 1.01349 0.35884 0.40661 0.0
H957 H 0.87122 0.39356 0.39806 0.0
H958 H 0.96168 0.49594 0.32443 0.0
H959 H 0.10222 0.45186 0.33094 0.0
La960 La 0.53909 -0.01394 0.1276 0.0
La961 La 0.68217 0.90487 0.10995 0.0
C962 C 0.3977 0.02907 0.12716 0.0
C963 C 0.31626 0.00297 0.11964 0.0
C964 C 0.25105 0.01673 0.1383 0.0
C965 C 0.17134 -0.00458 0.13371 0.0
C966 C 0.15588 -0.04561 0.11159 0.0
C967 C 0.22173 0.93911 0.09204 0.0
C968 C 0.30198 -0.03612 0.09591 0.0
C969 C 0.66808 -0.02563 0.16726 0.0
C970 C 0.49624 0.85079 0.1209 0.0
C971 C 0.8224 0.85853 0.11403 0.0
C972 C 0.90687 0.88379 0.1127 0.0
C973 C 0.94698 0.89428 0.08519 0.0
C974 C 1.02917 0.91504 0.08451 0.0
C975 C 1.07155 0.9274 0.11122 0.0
C976 C 1.03117 0.91591 0.13864 0.0
C977 C 0.94975 0.89505 0.13935 0.0
C978 C 0.60577 0.93827 0.06175 0.0
C979 C 0.68981 0.04891 0.10402 0.0
O980 O 0.43301 0.01026 0.15201 0.0
O981 O 0.45035 0.03594 0.10495 0.0
O982 O 0.62213 0.02056 0.16368 0.0
O983 O 0.63413 0.93597 0.15081 0.0
O984 O 0.4699 0.90411 0.12542 0.0
O985 O 0.57831 0.83946 0.11659 0.0
O986 O 0.77902 0.85865 0.08926 0.0
O987 O 0.7772 0.87207 0.1374 0.0
O988 O 0.66818 0.90269 0.06109 0.0
O989 O 0.58903 0.94993 0.08854 0.0
O990 O 0.73034 -0.00222 0.10751 0.0
O991 O 0.60849 0.05285 0.1063 0.0
H992 H 0.26327 0.04521 0.15643 0.0
H993 H 0.12097 0.01055 0.14778 0.0
H994 H 0.21193 0.90756 0.07446 0.0
H995 H 0.35248 0.95159 0.08103 0.0
H996 H 0.91593 0.88484 0.06422 0.0
H997 H 1.05917 0.92066 0.0632 0.0
H998 H 1.06307 0.92211 0.15978 0.0
H999 H 0.92126 0.88608 0.16082 0.0
La1000 La 0.88686 0.1677 0.1276 0.0
La1001 La 0.74381 0.24889 0.10994 0.0
C1002 C 1.02825 0.12469 0.12715 0.0
C1003 C 0.10968 0.15085 0.11968 0.0
C1004 C 0.17476 0.1373 0.13844 0.0
C1005 C 0.25447 0.15864 0.13389 0.0
C1006 C 0.27006 0.19947 0.11168 0.0
C1007 C 0.20432 0.21457 0.09204 0.0
C1008 C 0.12407 0.18978 0.09588 0.0
C1009 C 0.75787 0.17939 0.16725 0.0
C1010 C 0.92974 0.30296 0.1209 0.0
C1011 C 0.60359 0.29526 0.11403 0.0
C1012 C 0.51912 0.26999 0.11272 0.0
C1013 C 0.47899 0.25943 0.08522 0.0
C1014 C 0.39681 0.23868 0.08456 0.0
C1015 C 0.35443 0.22641 0.11128 0.0
C1016 C 0.39484 0.23798 0.13869 0.0
C1017 C 0.47626 0.25881 0.13938 0.0
C1018 C 0.82014 0.21545 0.06174 0.0
C1019 C 0.73613 0.10486 0.10401 0.0
O1020 O 0.99288 0.14342 0.15201 0.0
O1021 O 0.97564 0.11787 0.10492 0.0
O1022 O 0.8038 0.1332 0.16367 0.0
O1023 O 0.79183 0.2178 0.15081 0.0
O1024 O 0.95606 0.24964 0.12542 0.0
O1025 O 0.84767 0.3143 0.11658 0.0
O1026 O 0.64694 0.29509 0.08925 0.0
O1027 O 0.64882 0.28175 0.13739 0.0
O1028 O 0.7578 0.25108 0.06108 0.0
O1029 O 0.8369 0.20381 0.08854 0.0
O1030 O 0.69561 0.15599 0.10751 0.0
O1031 O 0.81745 0.1009 0.10629 0.0
H1032 H 0.16247 0.10891 0.1566 0.0
H1033 H 0.30473 0.14363 0.14804 0.0
H1034 H 0.2142 0.24599 0.07441 0.0
H1035 H 1.07366 0.20193 0.08094 0.0
H1036 H 0.51004 0.26881 0.06424 0.0
H1037 H 0.3668 0.23298 0.06325 0.0
H1038 H 0.36295 0.23188 0.15984 0.0
H1039 H 0.50477 0.26785 0.16084 0.0
La1040 La 0.53915 0.16772 0.21982 0.0
La1041 La 0.68218 0.24891 0.23752 0.0
C1042 C 0.39776 0.12471 0.22024 0.0
C1043 C 0.31632 0.15081 0.22776 0.0
C1044 C 0.25109 0.13703 0.20911 0.0
C1045 C 0.17138 0.15835 0.21371 0.0
C1046 C 0.15594 0.19938 0.23583 0.0
C1047 C 0.22181 0.21467 0.25537 0.0
C1048 C 0.30206 0.1899 0.2515 0.0
C1049 C 0.66825 0.17938 0.18023 0.0
C1050 C 0.49625 0.30297 0.22656 0.0
C1051 C 0.82244 0.29523 0.23346 0.0
C1052 C 0.90691 0.26995 0.23476 0.0
C1053 C 0.94707 0.25948 0.26226 0.0
C1054 C 1.02926 0.23873 0.26293 0.0
C1055 C 1.0716 0.22636 0.23621 0.0
C1056 C 1.03116 0.23784 0.2088 0.0
C1057 C 0.94974 0.2587 0.20811 0.0
C1058 C 0.60583 0.21545 0.2857 0.0
C1059 C 0.68982 0.10486 0.24345 0.0
O1060 O 0.43309 0.14356 0.1954 0.0
O1061 O 0.4504 0.1178 0.24245 0.0
O1062 O 0.62224 0.13321 0.18375 0.0
O1063 O 0.63424 0.21781 0.19664 0.0
O1064 O 0.46994 0.24966 0.22203 0.0
O1065 O 0.57831 0.31432 0.23088 0.0
O1066 O 0.77907 0.29505 0.25823 0.0
O1067 O 0.77721 0.28176 0.21008 0.0
O1068 O 0.66815 0.25109 0.28637 0.0
O1069 O 0.58907 0.20381 0.25891 0.0
O1070 O 0.73035 0.15599 0.23996 0.0
O1071 O 0.6085 0.10092 0.24115 0.0
H1072 H 0.2633 0.10854 0.19098 0.0
H1073 H 0.121 0.14322 0.19964 0.0
H1074 H 0.21202 0.24622 0.27295 0.0
H1075 H 0.35257 0.20219 0.26636 0.0
H1076 H 0.91605 0.26892 0.28324 0.0
H1077 H 1.0593 0.23312 0.28424 0.0
H1078 H 1.06303 0.23164 0.18765 0.0
H1079 H 0.92122 0.26767 0.18664 0.0
La1080 La 0.8868 -0.01394 0.21983 0.0
La1081 La 0.7438 0.90486 0.23752 0.0
C1082 C 1.0282 0.02905 0.22024 0.0
C1083 C 0.10963 0.00291 0.22772 0.0
C1084 C 0.17472 0.01647 0.20897 0.0
C1085 C 0.25443 -0.00487 0.21353 0.0
C1086 C 0.27002 -0.04571 0.23574 0.0
C1087 C 0.20426 0.93918 0.25537 0.0
C1088 C 0.12401 -0.03603 0.25152 0.0
C1089 C 0.7577 -0.0256 0.18024 0.0
C1090 C 0.92974 0.8508 0.22656 0.0
C1091 C 0.60357 0.85851 0.23345 0.0
C1092 C 0.5191 0.88378 0.23474 0.0
C1093 C 0.47893 0.89435 0.26223 0.0
C1094 C 0.39674 0.91509 0.26288 0.0
C1095 C 0.35439 0.92736 0.23615 0.0
C1096 C 0.39484 0.91579 0.20874 0.0
C1097 C 0.47627 0.89496 0.20807 0.0
C1098 C 0.82015 0.93831 0.28571 0.0
C1099 C 0.73614 0.0489 0.24346 0.0
O1100 O 0.99281 0.01028 0.19539 0.0
O1101 O 0.9756 0.03593 0.24247 0.0
O1102 O 0.8037 0.02057 0.18376 0.0
O1103 O 0.79172 0.93596 0.19665 0.0
O1104 O 0.95604 0.90412 0.22202 0.0
O1105 O 0.84768 0.83945 0.23089 0.0
O1106 O 0.6469 0.85873 0.25823 0.0
O1107 O 0.64881 0.87195 0.21008 0.0
O1108 O 0.75784 0.90266 0.28637 0.0
O1109 O 0.8369 0.94996 0.25891 0.0
O1110 O 0.69561 -0.00223 0.23996 0.0
O1111 O 0.81746 0.05285 0.24116 0.0
H1112 H 0.16245 0.04488 0.19081 0.0
H1113 H 0.30471 0.01014 0.19938 0.0
H1114 H 0.21413 0.90776 0.273 0.0
H1115 H 1.07359 0.95182 0.26645 0.0
H1116 H 0.50994 0.88497 0.28322 0.0
H1117 H 0.3667 0.92078 0.28418 0.0
H1118 H 0.36298 0.92189 0.18759 0.0
H1119 H 0.50481 0.88592 0.18662 0.0
La1120 La 0.49372 -0.00112 0.98739 0.0
La1121 La 0.63705 0.91765 0.96984 0.0
C1122 C 0.35359 0.04529 0.98323 0.0
C1123 C 0.26914 0.02002 0.98462 0.0
C1124 C 0.22916 0.0095 1.01215 0.0
C1125 C 0.147 -0.01129 1.01287 0.0
C1126 C 0.10451 -0.02365 0.98618 0.0
C1127 C 0.14477 -0.01213 0.95874 0.0
C1128 C 0.22616 0.00875 0.95799 0.0
C1129 C 0.56997 -0.03457 1.03562 0.0
C1130 C 0.48614 0.85486 0.99339 0.0
C1131 C 0.77839 0.8746 0.97037 0.0
C1132 C 0.85983 0.90073 0.97786 0.0
C1133 C 0.92495 0.88705 0.95914 0.0
C1134 C 1.00466 0.90837 0.96371 0.0
C1135 C 1.0202 0.94935 0.98585 0.0
C1136 C 0.95442 -0.03544 1.00545 0.0
C1137 C 0.87418 0.93977 1.00161 0.0
C1138 C 0.50794 0.92935 0.93015 0.0
C1139 C 0.67975 0.05295 0.97646 0.0
O1140 O 0.39699 0.04535 1.008 0.0
O1141 O 0.39876 0.03158 0.95988 0.0
O1142 O 0.50745 0.00091 1.03627 0.0
O1143 O 0.58698 -0.04597 1.00882 0.0
O1144 O 0.44559 0.90597 0.98985 0.0
O1145 O 0.56749 0.85093 0.99116 0.0
O1146 O 0.74312 0.89327 0.94549 0.0
O1147 O 0.72571 0.86785 0.99259 0.0
O1148 O 0.55389 0.88315 0.93374 0.0
O1149 O 0.54209 -0.03237 0.94662 0.0
O1150 O 0.70615 -0.00037 0.97198 0.0
O1151 O 0.59765 0.06427 0.98075 0.0
H1152 H 0.26031 0.01892 1.03311 0.0
H1153 H 0.1171 -0.01695 1.0342 0.0
H1154 H 0.1128 -0.01832 0.93762 0.0
H1155 H 0.25457 0.01774 0.93651 0.0
H1156 H 0.91267 0.85862 0.941 0.0
H1157 H 1.05498 0.89328 0.9496 0.0
H1158 H 0.96428 -0.00393 1.02304 0.0
H1159 H 0.82373 -0.048 1.01652 0.0
La1160 La 0.43225 0.65487 0.98739 0.0
La1161 La 0.28894 0.73612 0.96984 0.0
C1162 C 0.57237 0.60845 0.98324 0.0
C1163 C 0.65682 0.63372 0.98461 0.0
C1164 C 0.69682 0.64429 1.01213 0.0
C1165 C 0.77898 0.66508 1.01284 0.0
C1166 C 0.82146 0.67738 0.98614 0.0
C1167 C 0.78117 0.66581 0.95871 0.0
C1168 C 0.69978 0.64494 0.95797 0.0
C1169 C 0.356 0.68833 1.03562 0.0
C1170 C 0.43985 0.79889 0.9934 0.0
C1171 C 0.1476 0.77916 0.97037 0.0
C1172 C 1.06617 0.753 0.97783 0.0
C1173 C 1.00113 0.76653 0.95905 0.0
C1174 C 0.92142 0.7452 0.96359 0.0
C1175 C 0.9058 0.70435 0.98579 0.0
C1176 C 0.9715 0.68925 1.00544 0.0
C1177 C 1.05175 0.71406 1.00162 0.0
C1178 C 0.41805 0.72441 0.93016 0.0
C1179 C 0.24622 0.60082 0.97646 0.0
O1180 O 0.52899 0.60843 1.00801 0.0
O1181 O 0.52719 0.62213 0.95988 0.0
O1182 O 0.41851 0.65284 1.03627 0.0
O1183 O 0.339 0.69973 1.00882 0.0
O1184 O 0.4804 0.74779 0.98985 0.0
O1185 O 0.3585 0.80284 0.99117 0.0
O1186 O 0.18291 0.76053 0.94548 0.0
O1187 O 0.20025 0.78589 0.9926 0.0
O1188 O 0.37211 0.77061 0.93375 0.0
O1189 O 0.3839 0.68613 0.94662 0.0
O1190 O 0.21983 0.65413 0.97198 0.0
O1191 O 0.32832 0.58949 0.98075 0.0
H1192 H 0.66568 0.6349 1.03309 0.0
H1193 H 0.80889 0.67078 1.03416 0.0
H1194 H 0.81314 0.67194 0.93757 0.0
H1195 H 0.67136 0.63591 0.9365 0.0
H1196 H 1.01345 0.79491 0.94089 0.0
H1197 H 0.87117 0.76022 0.94943 0.0
H1198 H 0.9616 0.65783 1.02307 0.0
H1199 H 0.10213 0.70191 1.01657 0.0
La1200 La 0.49371 0.65486 0.86004 0.0
La1201 La 0.63698 0.7361 0.87763 0.0
C1202 C 0.35355 0.60847 0.86418 0.0
C1203 C 0.2691 0.63376 0.86281 0.0
C1204 C 0.22907 0.64427 0.83529 0.0
C1205 C 0.1469 0.66505 0.83459 0.0
C1206 C 0.10446 0.67742 0.86129 0.0
C1207 C 0.14478 0.6659 0.88872 0.0
C1208 C 0.22618 0.64502 0.88945 0.0
C1209 C 0.56999 0.68833 0.81183 0.0
C1210 C 0.48613 0.7989 0.85403 0.0
C1211 C 0.77832 0.77915 0.87714 0.0
C1212 C 0.85976 0.75303 0.86964 0.0
C1213 C 0.9249 0.76671 0.88835 0.0
C1214 C 1.00462 0.74539 0.88378 0.0
C1215 C 1.02014 0.70441 0.86164 0.0
C1216 C 0.95434 0.68919 0.84205 0.0
C1217 C 0.8741 0.71398 0.84589 0.0
C1218 C 0.50776 0.72442 0.91725 0.0
C1219 C 0.67974 0.60081 0.87098 0.0
O1220 O 0.39694 0.60848 0.83941 0.0
O1221 O 0.39875 0.62211 0.88753 0.0
O1222 O 0.5075 0.65282 0.81117 0.0
O1223 O 0.58698 0.69973 0.83863 0.0
O1224 O 0.44558 0.74779 0.85757 0.0
O1225 O 0.56748 0.80283 0.85628 0.0
O1226 O 0.74303 0.76041 0.90201 0.0
O1227 O 0.72566 0.78595 0.85492 0.0
O1228 O 0.55377 0.7706 0.91372 0.0
O1229 O 0.54197 0.68612 0.90082 0.0
O1230 O 0.70612 0.65412 0.87547 0.0
O1231 O 0.59765 0.58948 0.86668 0.0
H1232 H 0.26018 0.63484 0.81433 0.0
H1233 H 0.11695 0.67069 0.81327 0.0
H1234 H 0.11284 0.6721 0.90985 0.0
H1235 H 0.25462 0.63603 0.91093 0.0
H1236 H 0.91265 0.79516 0.90649 0.0
H1237 H 1.05494 0.76048 0.89788 0.0
H1238 H 0.96418 0.65768 0.82446 0.0
H1239 H 0.82364 0.70174 0.83099 0.0
La1240 La 0.43227 -0.0011 0.86004 0.0
La1241 La 0.28901 0.91765 0.87762 0.0
C1242 C 0.5724 0.04531 0.86418 0.0
C1243 C 0.65685 0.02002 0.86283 0.0
C1244 C 0.69689 0.00945 0.83532 0.0
C1245 C 0.77906 -0.01132 0.83463 0.0
C1246 C 0.8215 -0.02362 0.86133 0.0
C1247 C 0.78117 -0.01206 0.88876 0.0
C1248 C 0.69977 0.00881 0.88947 0.0
C1249 C 0.35598 -0.03456 0.81183 0.0
C1250 C 0.43985 0.85487 0.85402 0.0
C1251 C 0.14766 0.87462 0.87714 0.0
C1252 C 1.06623 0.90077 0.86967 0.0
C1253 C 1.00117 0.88723 0.88844 0.0
C1254 C 0.92146 0.90856 0.88389 0.0
C1255 C 0.90585 0.94941 0.8617 0.0
C1256 C 0.97157 -0.03548 0.84205 0.0
C1257 C 1.05182 0.93972 0.84588 0.0
C1258 C 0.41823 0.92933 0.91725 0.0
C1259 C 0.24622 0.05295 0.87098 0.0
O1260 O 0.52904 0.04527 0.8394 0.0
O1261 O 0.52719 0.0317 0.88753 0.0
O1262 O 0.41847 0.00095 0.81117 0.0
O1263 O 0.33899 -0.04597 0.83863 0.0
O1264 O 0.4804 0.90598 0.85757 0.0
O1265 O 0.3585 0.85094 0.85628 0.0
O1266 O 0.18299 0.8933 0.90202 0.0
O1267 O 0.2003 0.86784 0.85491 0.0
O1268 O 0.37223 0.88315 0.91371 0.0
O1269 O 0.38402 -0.03236 0.90082 0.0
O1270 O 0.21986 -0.00037 0.87547 0.0
O1271 O 0.32832 0.06428 0.86668 0.0
H1272 H 0.66579 0.01884 0.81435 0.0
H1273 H 0.80901 -0.01701 0.81331 0.0
H1274 H 0.8131 -0.01819 0.90989 0.0
H1275 H 0.67132 0.01784 0.91094 0.0
H1276 H 1.01347 0.85883 0.9066 0.0
H1277 H 0.8712 0.89354 0.89805 0.0
H1278 H 0.96167 -0.00406 0.82443 0.0
H1279 H 0.10222 0.95186 0.83094 0.0
loop_
_geom_bond_atom_site_label_1
_geom_bond_atom_site_label_2
_geom_bond_distance
_geom_bond_site_symmetry_2
_ccdc_geom_bond_type
La0 C2 2.928 . S
La0 O20 2.521 . S
La0 O21 2.628 . S
La0 O22 2.554 . S
La0 O23 2.757 1_655 S
La0 O24 2.470 . S
La0 O29 2.482 . S
La0 O31 2.503 1_655 S
La1 C11 2.928 . S
La1 O23 2.482 . S
La1 O25 2.503 . S
La1 O26 2.521 . S
La1 O27 2.628 . S
La1 O28 2.554 . S
La1 O29 2.757 1_455 S
La1 O30 2.470 . S
C2 La0 2.928 . S
C2 C3 1.503 . S
C2 O20 1.261 . S
C2 O21 1.243 . S
C3 C2 1.503 . S
C3 C4 1.394 . S
C3 C8 1.373 . S
C4 C3 1.394 . S
C4 C5 1.380 . S
C4 H32 0.930 . S
C5 C4 1.380 . S
C5 C6 1.376 . S
C5 H33 0.930 . S
C6 C5 1.376 . S
C6 C7 1.370 . S
C7 C6 1.370 . S
C7 C8 1.396 . S
C7 H34 0.929 . S
C8 C3 1.373 . S
C8 C7 1.396 . S
C8 H35 0.929 . S
C9 O22 1.240 1_455 S
C9 O23 1.289 . S
C10 O24 1.258 . S
C10 O25 1.256 1_655 S
C11 La1 2.928 . S
C11 C12 1.503 . S
C11 O26 1.261 . S
C11 O27 1.243 . S
C12 C11 1.503 . S
C12 C13 1.394 . S
C12 C17 1.373 . S
C13 C12 1.394 . S
C13 C14 1.380 . S
C13 H36 0.930 . S
C14 C13 1.380 . S
C14 C15 1.376 . S
C14 H37 0.930 . S
C15 C14 1.376 . S
C15 C16 1.370 . S
C16 C15 1.370 . S
C16 C17 1.396 . S
C16 H38 0.929 . S
C17 C12 1.373 . S
C17 C16 1.396 . S
C17 H39 0.929 . S
C18 O28 1.240 . S
C18 O29 1.289 1_455 S
C19 O30 1.258 . S
C19 O31 1.256 . S
O20 La0 2.521 . S
O20 C2 1.261 . S
O21 La0 2.628 . S
O21 C2 1.243 . S
O22 La0 2.554 . S
O22 C9 1.240 1_655 S
O23 La0 2.757 1_455 S
O23 La1 2.482 . S
O23 C9 1.289 . S
O24 La0 2.470 . S
O24 C10 1.258 . S
O25 La1 2.503 . S
O25 C10 1.256 1_455 S
O26 La1 2.521 . S
O26 C11 1.261 . S
O27 La1 2.628 . S
O27 C11 1.243 . S
O28 La1 2.554 . S
O28 C18 1.240 . S
O29 La0 2.482 . S
O29 La1 2.757 1_655 S
O29 C18 1.289 1_655 S
O30 La1 2.470 . S
O30 C19 1.258 . S
O31 La0 2.503 1_455 S
O31 C19 1.256 . S
H32 C4 0.930 . S
H33 C5 0.930 . S
H34 C7 0.929 . S
H35 C8 0.929 . S
H36 C13 0.930 . S
H37 C14 0.930 . S
H38 C16 0.929 . S
H39 C17 0.929 . S
La40 C42 2.928 . S
La40 O60 2.521 . S
La40 O61 2.628 . S
La40 O62 2.554 . S
La40 O63 2.757 . S
La40 O64 2.470 . S
La40 O69 2.482 . S
La40 O71 2.503 . S
La41 C51 2.928 1_455 S
La41 O63 2.482 . S
La41 O65 2.503 . S
La41 O66 2.521 . S
La41 O67 2.628 . S
La41 O68 2.554 . S
La41 O69 2.757 . S
La41 O70 2.470 . S
C42 La40 2.928 . S
C42 C43 1.503 . S
C42 O60 1.261 . S
C42 O61 1.243 . S
C43 C42 1.503 . S
C43 C44 1.394 . S
C43 C48 1.373 . S
C44 C43 1.394 . S
C44 C45 1.380 . S
C44 H72 0.930 . S
C45 C44 1.380 . S
C45 C46 1.376 . S
C45 H73 0.930 . S
C46 C45 1.376 . S
C46 C47 1.370 . S
C47 C46 1.370 . S
C47 C48 1.396 . S
C47 H74 0.929 . S
C48 C43 1.373 . S
C48 C47 1.396 . S
C48 H75 0.929 . S
C49 O62 1.240 . S
C49 O63 1.289 . S
C50 O64 1.258 . S
C50 O65 1.256 . S
C51 La41 2.928 1_655 S
C51 C52 1.503 . S
C51 O66 1.261 1_655 S
C51 O67 1.243 1_655 S
C52 C51 1.503 . S
C52 C53 1.394 . S
C52 C57 1.373 . S
C53 C52 1.394 . S
C53 C54 1.380 . S
C53 H76 0.930 . S
C54 C53 1.380 . S
C54 C55 1.376 . S
C54 H77 0.930 . S
C55 C54 1.376 . S
C55 C56 1.370 . S
C56 C55 1.370 . S
C56 C57 1.396 . S
C56 H78 0.929 . S
C57 C52 1.373 . S
C57 C56 1.396 . S
C57 H79 0.929 . S
C58 O68 1.240 . S
C58 O69 1.289 . S
C59 O70 1.258 . S
C59 O71 1.256 . S
O60 La40 2.521 . S
O60 C42 1.261 . S
O61 La40 2.628 . S
O61 C42 1.243 . S
O62 La40 2.554 . S
O62 C49 1.240 . S
O63 La40 2.757 . S
O63 La41 2.482 . S
O63 C49 1.289 . S
O64 La40 2.470 . S
O64 C50 1.258 . S
O65 La41 2.503 . S
O65 C50 1.256 . S
O66 La41 2.521 . S
O66 C51 1.261 1_455 S
O67 La41 2.628 . S
O67 C51 1.243 1_455 S
O68 La41 2.554 . S
O68 C58 1.240 . S
O69 La40 2.482 . S
O69 La41 2.757 . S
O69 C58 1.289 . S
O70 La41 2.470 . S
O70 C59 1.258 . S
O71 La40 2.503 . S
O71 C59 1.256 . S
H72 C44 0.930 . S
H73 C45 0.930 . S
H74 C47 0.929 . S
H75 C48 0.929 . S
H76 C53 0.930 . S
H77 C54 0.930 . S
H78 C56 0.929 . S
H79 C57 0.929 . S
La80 C82 2.928 . S
La80 O100 2.521 . S
La80 O101 2.628 . S
La80 O102 2.554 . S
La80 O103 2.757 1_655 S
La80 O104 2.470 . S
La80 O109 2.482 . S
La80 O111 2.503 1_655 S
La81 C91 2.928 . S
La81 O103 2.482 . S
La81 O105 2.503 . S
La81 O106 2.521 . S
La81 O107 2.628 . S
La81 O108 2.554 . S
La81 O109 2.757 1_455 S
La81 O110 2.470 . S
C82 La80 2.928 . S
C82 C83 1.503 . S
C82 O100 1.261 . S
C82 O101 1.243 . S
C83 C82 1.503 . S
C83 C84 1.394 . S
C83 C88 1.373 . S
C84 C83 1.394 . S
C84 C85 1.380 . S
C84 H112 0.930 . S
C85 C84 1.380 . S
C85 C86 1.376 . S
C85 H113 0.930 . S
C86 C85 1.376 . S
C86 C87 1.370 . S
C87 C86 1.370 . S
C87 C88 1.396 . S
C87 H114 0.929 . S
C88 C83 1.373 . S
C88 C87 1.396 . S
C88 H115 0.929 . S
C89 O102 1.240 1_455 S
C89 O103 1.289 . S
C90 O104 1.258 . S
C90 O105 1.256 1_655 S
C91 La81 2.928 . S
C91 C92 1.503 . S
C91 O106 1.261 . S
C91 O107 1.243 . S
C92 C91 1.503 . S
C92 C93 1.394 . S
C92 C97 1.373 . S
C93 C92 1.394 . S
C93 C94 1.380 . S
C93 H116 0.930 . S
C94 C93 1.380 . S
C94 C95 1.376 . S
C94 H117 0.930 . S
C95 C94 1.376 . S
C95 C96 1.370 . S
C96 C95 1.370 . S
C96 C97 1.396 . S
C96 H118 0.929 . S
C97 C92 1.373 . S
C97 C96 1.396 . S
C97 H119 0.929 . S
C98 O108 1.240 . S
C98 O109 1.289 1_455 S
C99 O110 1.258 . S
C99 O111 1.256 . S
O100 La80 2.521 . S
O100 C82 1.261 . S
O101 La80 2.628 . S
O101 C82 1.243 . S
O102 La80 2.554 . S
O102 C89 1.240 1_655 S
O103 La80 2.757 1_455 S
O103 La81 2.482 . S
O103 C89 1.289 . S
O104 La80 2.470 . S
O104 C90 1.258 . S
O105 La81 2.503 . S
O105 C90 1.256 1_455 S
O106 La81 2.521 . S
O106 C91 1.261 . S
O107 La81 2.628 . S
O107 C91 1.243 . S
O108 La81 2.554 . S
O108 C98 1.240 . S
O109 La80 2.482 . S
O109 La81 2.757 1_655 S
O109 C98 1.289 1_655 S
O110 La81 2.470 . S
O110 C99 1.258 . S
O111 La80 2.503 1_455 S
O111 C99 1.256 . S
H112 C84 0.930 . S
H113 C85 0.930 . S
H114 C87 0.929 . S
H115 C88 0.929 . S
H116 C93 0.930 . S
H117 C94 0.930 . S
H118 C96 0.929 . S
H119 C97 0.929 . S
La120 C122 2.928 . S
La120 O140 2.521 . S
La120 O141 2.628 . S
La120 O142 2.554 . S
La120 O143 2.757 . S
La120 O144 2.470 . S
La120 O149 2.482 . S
La120 O151 2.503 . S
La121 C131 2.928 1_455 S
La121 O143 2.482 . S
La121 O145 2.503 . S
La121 O146 2.521 . S
La121 O147 2.628 . S
La121 O148 2.554 . S
La121 O149 2.757 . S
La121 O150 2.470 . S
C122 La120 2.928 . S
C122 C123 1.503 . S
C122 O140 1.261 . S
C122 O141 1.243 . S
C123 C122 1.503 . S
C123 C124 1.394 . S
C123 C128 1.373 . S
C124 C123 1.394 . S
C124 C125 1.380 . S
C124 H152 0.930 . S
C125 C124 1.380 . S
C125 C126 1.376 . S
C125 H153 0.930 . S
C126 C125 1.376 . S
C126 C127 1.370 . S
C127 C126 1.370 . S
C127 C128 1.396 . S
C127 H154 0.929 . S
C128 C123 1.373 . S
C128 C127 1.396 . S
C128 H155 0.929 . S
C129 O142 1.240 . S
C129 O143 1.289 . S
C130 O144 1.258 . S
C130 O145 1.256 . S
C131 La121 2.928 1_655 S
C131 C132 1.503 . S
C131 O146 1.261 1_655 S
C131 O147 1.243 1_655 S
C132 C131 1.503 . S
C132 C133 1.394 . S
C132 C137 1.373 . S
C133 C132 1.394 . S
C133 C134 1.380 . S
C133 H156 0.930 . S
C134 C133 1.380 . S
C134 C135 1.376 . S
C134 H157 0.930 . S
C135 C134 1.376 . S
C135 C136 1.370 . S
C136 C135 1.370 . S
C136 C137 1.396 . S
C136 H158 0.929 . S
C137 C132 1.373 . S
C137 C136 1.396 . S
C137 H159 0.929 . S
C138 O148 1.240 . S
C138 O149 1.289 . S
C139 O150 1.258 . S
C139 O151 1.256 . S
O140 La120 2.521 . S
O140 C122 1.261 . S
O141 La120 2.628 . S
O141 C122 1.243 . S
O142 La120 2.554 . S
O142 C129 1.240 . S
O143 La120 2.757 . S
O143 La121 2.482 . S
O143 C129 1.289 . S
O144 La120 2.470 . S
O144 C130 1.258 . S
O145 La121 2.503 . S
O145 C130 1.256 . S
O146 La121 2.521 . S
O146 C131 1.261 1_455 S
O147 La121 2.628 . S
O147 C131 1.243 1_455 S
O148 La121 2.554 . S
O148 C138 1.240 . S
O149 La120 2.482 . S
O149 La121 2.757 . S
O149 C138 1.289 . S
O150 La121 2.470 . S
O150 C139 1.258 . S
O151 La120 2.503 . S
O151 C139 1.256 . S
H152 C124 0.930 . S
H153 C125 0.930 . S
H154 C127 0.929 . S
H155 C128 0.929 . S
H156 C133 0.930 . S
H157 C134 0.930 . S
H158 C136 0.929 . S
H159 C137 0.929 . S
La160 C162 2.928 . S
La160 O180 2.521 . S
La160 O181 2.628 . S
La160 O182 2.554 . S
La160 O183 2.757 1_655 S
La160 O184 2.470 . S
La160 O189 2.482 . S
La160 O191 2.503 . S
La161 C171 2.928 . S
La161 O183 2.482 . S
La161 O185 2.503 1_455 S
La161 O186 2.521 . S
La161 O187 2.628 . S
La161 O188 2.554 . S
La161 O189 2.757 1_455 S
La161 O190 2.470 . S
C162 La160 2.928 . S
C162 C163 1.503 . S
C162 O180 1.261 . S
C162 O181 1.243 . S
C163 C162 1.503 . S
C163 C164 1.394 . S
C163 C168 1.373 . S
C164 C163 1.394 . S
C164 C165 1.380 . S
C164 H192 0.930 . S
C165 C164 1.380 . S
C165 C166 1.376 . S
C165 H193 0.930 . S
C166 C165 1.376 . S
C166 C167 1.370 . S
C167 C166 1.370 . S
C167 C168 1.396 . S
C167 H194 0.929 . S
C168 C163 1.373 . S
C168 C167 1.396 . S
C168 H195 0.929 . S
C169 O182 1.240 . S
C169 O183 1.289 1_655 S
C170 O184 1.258 . S
C170 O185 1.256 . S
C171 La161 2.928 . S
C171 C172 1.503 . S
C171 O186 1.261 . S
C171 O187 1.243 . S
C172 C171 1.503 . S
C172 C173 1.394 . S
C172 C177 1.373 . S
C173 C172 1.394 . S
C173 C174 1.380 . S
C173 H196 0.930 . S
C174 C173 1.380 . S
C174 C175 1.376 . S
C174 H197 0.930 . S
C175 C174 1.376 . S
C175 C176 1.370 . S
C176 C175 1.370 . S
C176 C177 1.396 . S
C176 H198 0.929 . S
C177 C172 1.373 . S
C177 C176 1.396 . S
C177 H199 0.929 . S
C178 O188 1.240 1_655 S
C178 O189 1.289 . S
C179 O190 1.258 . S
C179 O191 1.256 1_455 S
O180 La160 2.521 . S
O180 C162 1.261 . S
O181 La160 2.628 . S
O181 C162 1.243 . S
O182 La160 2.554 . S
O182 C169 1.240 . S
O183 La160 2.757 1_455 S
O183 La161 2.482 . S
O183 C169 1.289 1_455 S
O184 La160 2.470 . S
O184 C170 1.258 . S
O185 La161 2.503 1_655 S
O185 C170 1.256 . S
O186 La161 2.521 . S
O186 C171 1.261 . S
O187 La161 2.628 . S
O187 C171 1.243 . S
O188 La161 2.554 . S
O188 C178 1.240 1_455 S
O189 La160 2.482 . S
O189 La161 2.757 1_655 S
O189 C178 1.289 . S
O190 La161 2.470 . S
O190 C179 1.258 . S
O191 La160 2.503 . S
O191 C179 1.256 1_655 S
H192 C164 0.930 . S
H193 C165 0.930 . S
H194 C167 0.929 . S
H195 C168 0.929 . S
H196 C173 0.930 . S
H197 C174 0.930 . S
H198 C176 0.929 . S
H199 C177 0.929 . S
La200 C202 2.928 1_655 S
La200 O220 2.521 . S
La200 O221 2.628 . S
La200 O222 2.554 . S
La200 O223 2.757 . S
La200 O224 2.470 . S
La200 O229 2.482 . S
La200 O231 2.503 . S
La201 C211 2.928 . S
La201 O223 2.482 . S
La201 O225 2.503 . S
La201 O226 2.521 . S
La201 O227 2.628 . S
La201 O228 2.554 . S
La201 O229 2.757 . S
La201 O230 2.470 . S
C202 La200 2.928 1_455 S
C202 C203 1.503 . S
C202 O220 1.261 1_455 S
C202 O221 1.243 1_455 S
C203 C202 1.503 . S
C203 C204 1.394 . S
C203 C208 1.373 . S
C204 C203 1.394 . S
C204 C205 1.380 . S
C204 H232 0.930 . S
C205 C204 1.380 . S
C205 C206 1.376 . S
C205 H233 0.930 . S
C206 C205 1.376 . S
C206 C207 1.370 . S
C207 C206 1.370 . S
C207 C208 1.396 . S
C207 H234 0.929 . S
C208 C203 1.373 . S
C208 C207 1.396 . S
C208 H235 0.929 . S
C209 O222 1.240 . S
C209 O223 1.289 . S
C210 O224 1.258 . S
C210 O225 1.256 . S
C211 La201 2.928 . S
C211 C212 1.503 . S
C211 O226 1.261 . S
C211 O227 1.243 . S
C212 C211 1.503 . S
C212 C213 1.394 . S
C212 C217 1.373 . S
C213 C212 1.394 . S
C213 C214 1.380 . S
C213 H236 0.930 . S
C214 C213 1.380 . S
C214 C215 1.376 . S
C214 H237 0.930 . S
C215 C214 1.376 . S
C215 C216 1.370 . S
C216 C215 1.370 . S
C216 C217 1.396 . S
C216 H238 0.929 . S
C217 C212 1.373 . S
C217 C216 1.396 . S
C217 H239 0.929 . S
C218 O228 1.240 . S
C218 O229 1.289 . S
C219 O230 1.258 . S
C219 O231 1.256 . S
O220 La200 2.521 . S
O220 C202 1.261 1_655 S
O221 La200 2.628 . S
O221 C202 1.243 1_655 S
O222 La200 2.554 . S
O222 C209 1.240 . S
O223 La200 2.757 . S
O223 La201 2.482 . S
O223 C209 1.289 . S
O224 La200 2.470 . S
O224 C210 1.258 . S
O225 La201 2.503 . S
O225 C210 1.256 . S
O226 La201 2.521 . S
O226 C211 1.261 . S
O227 La201 2.628 . S
O227 C211 1.243 . S
O228 La201 2.554 . S
O228 C218 1.240 . S
O229 La200 2.482 . S
O229 La201 2.757 . S
O229 C218 1.289 . S
O230 La201 2.470 . S
O230 C219 1.258 . S
O231 La200 2.503 . S
O231 C219 1.256 . S
H232 C204 0.930 . S
H233 C205 0.930 . S
H234 C207 0.929 . S
H235 C208 0.929 . S
H236 C213 0.930 . S
H237 C214 0.930 . S
H238 C216 0.929 . S
H239 C217 0.929 . S
La240 C242 2.928 . S
La240 O260 2.521 . S
La240 O261 2.628 . S
La240 O262 2.554 . S
La240 O263 2.757 1_655 S
La240 O264 2.470 . S
La240 O269 2.482 . S
La240 O271 2.503 . S
La241 C251 2.928 . S
La241 O263 2.482 . S
La241 O265 2.503 1_455 S
La241 O266 2.521 . S
La241 O267 2.628 . S
La241 O268 2.554 . S
La241 O269 2.757 1_455 S
La241 O270 2.470 . S
C242 La240 2.928 . S
C242 C243 1.503 . S
C242 O260 1.261 . S
C242 O261 1.243 . S
C243 C242 1.503 . S
C243 C244 1.394 . S
C243 C248 1.373 . S
C244 C243 1.394 . S
C244 C245 1.380 . S
C244 H272 0.930 . S
C245 C244 1.380 . S
C245 C246 1.376 . S
C245 H273 0.930 . S
C246 C245 1.376 . S
C246 C247 1.370 . S
C247 C246 1.370 . S
C247 C248 1.396 . S
C247 H274 0.929 . S
C248 C243 1.373 . S
C248 C247 1.396 . S
C248 H275 0.929 . S
C249 O262 1.240 . S
C249 O263 1.289 1_655 S
C250 O264 1.258 . S
C250 O265 1.256 . S
C251 La241 2.928 . S
C251 C252 1.503 . S
C251 O266 1.261 . S
C251 O267 1.243 . S
C252 C251 1.503 . S
C252 C253 1.394 . S
C252 C257 1.373 . S
C253 C252 1.394 . S
C253 C254 1.380 . S
C253 H276 0.930 . S
C254 C253 1.380 . S
C254 C255 1.376 . S
C254 H277 0.930 . S
C255 C254 1.376 . S
C255 C256 1.370 . S
C256 C255 1.370 . S
C256 C257 1.396 . S
C256 H278 0.929 . S
C257 C252 1.373 . S
C257 C256 1.396 . S
C257 H279 0.929 . S
C258 O268 1.240 1_655 S
C258 O269 1.289 . S
C259 O270 1.258 . S
C259 O271 1.256 1_455 S
O260 La240 2.521 . S
O260 C242 1.261 . S
O261 La240 2.628 . S
O261 C242 1.243 . S
O262 La240 2.554 . S
O262 C249 1.240 . S
O263 La240 2.757 1_455 S
O263 La241 2.482 . S
O263 C249 1.289 1_455 S
O264 La240 2.470 . S
O264 C250 1.258 . S
O265 La241 2.503 1_655 S
O265 C250 1.256 . S
O266 La241 2.521 . S
O266 C251 1.261 . S
O267 La241 2.628 . S
O267 C251 1.243 . S
O268 La241 2.554 . S
O268 C258 1.240 1_455 S
O269 La240 2.482 . S
O269 La241 2.757 1_655 S
O269 C258 1.289 . S
O270 La241 2.470 . S
O270 C259 1.258 . S
O271 La240 2.503 . S
O271 C259 1.256 1_655 S
H272 C244 0.930 . S
H273 C245 0.930 . S
H274 C247 0.929 . S
H275 C248 0.929 . S
H276 C253 0.930 . S
H277 C254 0.930 . S
H278 C256 0.929 . S
H279 C257 0.929 . S
La280 C282 2.928 1_655 S
La280 O300 2.521 . S
La280 O301 2.628 . S
La280 O302 2.554 . S
La280 O303 2.757 . S
La280 O304 2.470 . S
La280 O309 2.482 . S
La280 O311 2.503 . S
La281 C291 2.928 . S
La281 O303 2.482 . S
La281 O305 2.503 . S
La281 O306 2.521 . S
La281 O307 2.628 . S
La281 O308 2.554 . S
La281 O309 2.757 . S
La281 O310 2.470 . S
C282 La280 2.928 1_455 S
C282 C283 1.503 . S
C282 O300 1.261 1_455 S
C282 O301 1.243 1_455 S
C283 C282 1.503 . S
C283 C284 1.394 . S
C283 C288 1.373 . S
C284 C283 1.394 . S
C284 C285 1.380 . S
C284 H312 0.930 . S
C285 C284 1.380 . S
C285 C286 1.376 . S
C285 H313 0.930 . S
C286 C285 1.376 . S
C286 C287 1.370 . S
C287 C286 1.370 . S
C287 C288 1.396 . S
C287 H314 0.929 . S
C288 C283 1.373 . S
C288 C287 1.396 . S
C288 H315 0.929 . S
C289 O302 1.240 . S
C289 O303 1.289 . S
C290 O304 1.258 . S
C290 O305 1.256 . S
C291 La281 2.928 . S
C291 C292 1.503 . S
C291 O306 1.261 . S
C291 O307 1.243 . S
C292 C291 1.503 . S
C292 C293 1.394 . S
C292 C297 1.373 . S
C293 C292 1.394 . S
C293 C294 1.380 . S
C293 H316 0.930 . S
C294 C293 1.380 . S
C294 C295 1.376 . S
C294 H317 0.930 . S
C295 C294 1.376 . S
C295 C296 1.370 . S
C296 C295 1.370 . S
C296 C297 1.396 . S
C296 H318 0.929 . S
C297 C292 1.373 . S
C297 C296 1.396 . S
C297 H319 0.929 . S
C298 O308 1.240 . S
C298 O309 1.289 . S
C299 O310 1.258 . S
C299 O311 1.256 . S
O300 La280 2.521 . S
O300 C282 1.261 1_655 S
O301 La280 2.628 . S
O301 C282 1.243 1_655 S
O302 La280 2.554 . S
O302 C289 1.240 . S
O303 La280 2.757 . S
O303 La281 2.482 . S
O303 C289 1.289 . S
O304 La280 2.470 . S
O304 C290 1.258 . S
O305 La281 2.503 . S
O305 C290 1.256 . S
O306 La281 2.521 . S
O306 C291 1.261 . S
O307 La281 2.628 . S
O307 C291 1.243 . S
O308 La281 2.554 . S
O308 C298 1.240 . S
O309 La280 2.482 . S
O309 La281 2.757 . S
O309 C298 1.289 . S
O310 La281 2.470 . S
O310 C299 1.258 . S
O311 La280 2.503 . S
O311 C299 1.256 . S
H312 C284 0.930 . S
H313 C285 0.930 . S
H314 C287 0.929 . S
H315 C288 0.929 . S
H316 C293 0.930 . S
H317 C294 0.930 . S
H318 C296 0.929 . S
H319 C297 0.929 . S
La320 C322 2.928 . S
La320 O340 2.521 . S
La320 O341 2.628 . S
La320 O342 2.554 . S
La320 O343 2.757 1_645 S
La320 O344 2.470 1_545 S
La320 O349 2.482 1_545 S
La320 O351 2.503 1_655 S
La321 C331 2.928 . S
La321 O343 2.482 . S
La321 O345 2.503 . S
La321 O346 2.521 . S
La321 O347 2.628 . S
La321 O348 2.554 . S
La321 O349 2.757 1_455 S
La321 O350 2.470 1_565 S
C322 La320 2.928 . S
C322 C323 1.503 . S
C322 O340 1.261 . S
C322 O341 1.243 . S
C323 C322 1.503 . S
C323 C324 1.394 . S
C323 C328 1.373 1_545 S
C324 C323 1.394 . S
C324 C325 1.380 . S
C324 H352 0.930 . S
C325 C324 1.380 . S
C325 C326 1.376 1_545 S
C325 H353 0.930 . S
C326 C325 1.376 1_565 S
C326 C327 1.370 . S
C327 C326 1.370 . S
C327 C328 1.396 . S
C327 H354 0.929 . S
C328 C323 1.373 1_565 S
C328 C327 1.396 . S
C328 H355 0.929 . S
C329 O342 1.240 1_465 S
C329 O343 1.289 . S
C330 O344 1.258 . S
C330 O345 1.256 1_655 S
C331 La321 2.928 . S
C331 C332 1.503 . S
C331 O346 1.261 . S
C331 O347 1.243 . S
C332 C331 1.503 . S
C332 C333 1.394 . S
C332 C337 1.373 . S
C333 C332 1.394 . S
C333 C334 1.380 . S
C333 H356 0.930 . S
C334 C333 1.380 . S
C334 C335 1.376 . S
C334 H357 0.930 . S
C335 C334 1.376 . S
C335 C336 1.370 . S
C336 C335 1.370 . S
C336 C337 1.396 . S
C336 H358 0.929 . S
C337 C332 1.373 . S
C337 C336 1.396 . S
C337 H359 0.929 . S
C338 O348 1.240 . S
C338 O349 1.289 1_455 S
C339 O350 1.258 . S
C339 O351 1.256 . S
O340 La320 2.521 . S
O340 C322 1.261 . S
O341 La320 2.628 . S
O341 C322 1.243 . S
O342 La320 2.554 . S
O342 C329 1.240 1_645 S
O343 La320 2.757 1_465 S
O343 La321 2.482 . S
O343 C329 1.289 . S
O344 La320 2.470 1_565 S
O344 C330 1.258 . S
O345 La321 2.503 . S
O345 C330 1.256 1_455 S
O346 La321 2.521 . S
O346 C331 1.261 . S
O347 La321 2.628 . S
O347 C331 1.243 . S
O348 La321 2.554 . S
O348 C338 1.240 . S
O349 La320 2.482 1_565 S
O349 La321 2.757 1_655 S
O349 C338 1.289 1_655 S
O350 La321 2.470 1_545 S
O350 C339 1.258 . S
O351 La320 2.503 1_455 S
O351 C339 1.256 . S
H352 C324 0.930 . S
H353 C325 0.930 . S
H354 C327 0.929 . S
H355 C328 0.929 . S
H356 C333 0.930 . S
H357 C334 0.930 . S
H358 C336 0.929 . S
H359 C337 0.929 . S
La360 C362 2.928 . S
La360 O380 2.521 . S
La360 O381 2.628 . S
La360 O382 2.554 . S
La360 O383 2.757 . S
La360 O384 2.470 . S
La360 O389 2.482 . S
La360 O391 2.503 . S
La361 C371 2.928 1_455 S
La361 O383 2.482 . S
La361 O385 2.503 . S
La361 O386 2.521 . S
La361 O387 2.628 . S
La361 O388 2.554 . S
La361 O389 2.757 . S
La361 O390 2.470 . S
C362 La360 2.928 . S
C362 C363 1.503 . S
C362 O380 1.261 . S
C362 O381 1.243 . S
C363 C362 1.503 . S
C363 C364 1.394 . S
C363 C368 1.373 . S
C364 C363 1.394 . S
C364 C365 1.380 . S
C364 H392 0.930 . S
C365 C364 1.380 . S
C365 C366 1.376 . S
C365 H393 0.930 . S
C366 C365 1.376 . S
C366 C367 1.370 . S
C367 C366 1.370 . S
C367 C368 1.396 . S
C367 H394 0.929 . S
C368 C363 1.373 . S
C368 C367 1.396 . S
C368 H395 0.929 . S
C369 O382 1.240 . S
C369 O383 1.289 . S
C370 O384 1.258 . S
C370 O385 1.256 . S
C371 La361 2.928 1_655 S
C371 C372 1.503 . S
C371 O386 1.261 1_655 S
C371 O387 1.243 1_655 S
C372 C371 1.503 . S
C372 C373 1.394 . S
C372 C377 1.373 . S
C373 C372 1.394 . S
C373 C374 1.380 . S
C373 H396 0.930 . S
C374 C373 1.380 . S
C374 C375 1.376 . S
C374 H397 0.930 . S
C375 C374 1.376 . S
C375 C376 1.370 . S
C376 C375 1.370 . S
C376 C377 1.396 . S
C376 H398 0.929 . S
C377 C372 1.373 . S
C377 C376 1.396 . S
C377 H399 0.929 . S
C378 O388 1.240 . S
C378 O389 1.289 . S
C379 O390 1.258 . S
C379 O391 1.256 . S
O380 La360 2.521 . S
O380 C362 1.261 . S
O381 La360 2.628 . S
O381 C362 1.243 . S
O382 La360 2.554 . S
O382 C369 1.240 . S
O383 La360 2.757 . S
O383 La361 2.482 . S
O383 C369 1.289 . S
O384 La360 2.470 . S
O384 C370 1.258 . S
O385 La361 2.503 . S
O385 C370 1.256 . S
O386 La361 2.521 . S
O386 C371 1.261 1_455 S
O387 La361 2.628 . S
O387 C371 1.243 1_455 S
O388 La361 2.554 . S
O388 C378 1.240 . S
O389 La360 2.482 . S
O389 La361 2.757 . S
O389 C378 1.289 . S
O390 La361 2.470 . S
O390 C379 1.258 . S
O391 La360 2.503 . S
O391 C379 1.256 . S
H392 C364 0.930 . S
H393 C365 0.930 . S
H394 C367 0.929 . S
H395 C368 0.929 . S
H396 C373 0.930 . S
H397 C374 0.930 . S
H398 C376 0.929 . S
H399 C377 0.929 . S
La400 C402 2.928 . S
La400 O420 2.521 . S
La400 O421 2.628 . S
La400 O422 2.554 . S
La400 O423 2.757 1_655 S
La400 O424 2.470 . S
La400 O429 2.482 . S
La400 O431 2.503 1_655 S
La401 C411 2.928 . S
La401 O423 2.482 . S
La401 O425 2.503 . S
La401 O426 2.521 . S
La401 O427 2.628 . S
La401 O428 2.554 . S
La401 O429 2.757 1_455 S
La401 O430 2.470 . S
C402 La400 2.928 . S
C402 C403 1.503 . S
C402 O420 1.261 . S
C402 O421 1.243 . S
C403 C402 1.503 . S
C403 C404 1.394 . S
C403 C408 1.373 . S
C404 C403 1.394 . S
C404 C405 1.380 . S
C404 H432 0.930 . S
C405 C404 1.380 . S
C405 C406 1.376 . S
C405 H433 0.930 . S
C406 C405 1.376 . S
C406 C407 1.370 . S
C407 C406 1.370 . S
C407 C408 1.396 . S
C407 H434 0.929 . S
C408 C403 1.373 . S
C408 C407 1.396 . S
C408 H435 0.929 . S
C409 O422 1.240 1_455 S
C409 O423 1.289 . S
C410 O424 1.258 . S
C410 O425 1.256 1_655 S
C411 La401 2.928 . S
C411 C412 1.503 . S
C411 O426 1.261 . S
C411 O427 1.243 . S
C412 C411 1.503 . S
C412 C413 1.394 . S
C412 C417 1.373 . S
C413 C412 1.394 . S
C413 C414 1.380 . S
C413 H436 0.930 . S
C414 C413 1.380 . S
C414 C415 1.376 . S
C414 H437 0.930 . S
C415 C414 1.376 . S
C415 C416 1.370 . S
C416 C415 1.370 . S
C416 C417 1.396 . S
C416 H438 0.929 . S
C417 C412 1.373 . S
C417 C416 1.396 . S
C417 H439 0.929 . S
C418 O428 1.240 . S
C418 O429 1.289 1_455 S
C419 O430 1.258 . S
C419 O431 1.256 . S
O420 La400 2.521 . S
O420 C402 1.261 . S
O421 La400 2.628 . S
O421 C402 1.243 . S
O422 La400 2.554 . S
O422 C409 1.240 1_655 S
O423 La400 2.757 1_455 S
O423 La401 2.482 . S
O423 C409 1.289 . S
O424 La400 2.470 . S
O424 C410 1.258 . S
O425 La401 2.503 . S
O425 C410 1.256 1_455 S
O426 La401 2.521 . S
O426 C411 1.261 . S
O427 La401 2.628 . S
O427 C411 1.243 . S
O428 La401 2.554 . S
O428 C418 1.240 . S
O429 La400 2.482 . S
O429 La401 2.757 1_655 S
O429 C418 1.289 1_655 S
O430 La401 2.470 . S
O430 C419 1.258 . S
O431 La400 2.503 1_455 S
O431 C419 1.256 . S
H432 C404 0.930 . S
H433 C405 0.930 . S
H434 C407 0.929 . S
H435 C408 0.929 . S
H436 C413 0.930 . S
H437 C414 0.930 . S
H438 C416 0.929 . S
H439 C417 0.929 . S
La440 C442 2.928 . S
La440 O460 2.521 . S
La440 O461 2.628 . S
La440 O462 2.554 . S
La440 O463 2.757 1_545 S
La440 O464 2.470 1_545 S
La440 O469 2.482 1_545 S
La440 O471 2.503 . S
La441 C451 2.928 1_455 S
La441 O463 2.482 . S
La441 O465 2.503 . S
La441 O466 2.521 . S
La441 O467 2.628 . S
La441 O468 2.554 . S
La441 O469 2.757 . S
La441 O470 2.470 1_565 S
C442 La440 2.928 . S
C442 C443 1.503 . S
C442 O460 1.261 . S
C442 O461 1.243 . S
C443 C442 1.503 . S
C443 C444 1.394 . S
C443 C448 1.373 1_545 S
C444 C443 1.394 . S
C444 C445 1.380 . S
C444 H472 0.930 . S
C445 C444 1.380 . S
C445 C446 1.376 1_545 S
C445 H473 0.930 . S
C446 C445 1.376 1_565 S
C446 C447 1.370 . S
C447 C446 1.370 . S
C447 C448 1.396 . S
C447 H474 0.929 . S
C448 C443 1.373 1_565 S
C448 C447 1.396 . S
C448 H475 0.929 . S
C449 O462 1.240 1_565 S
C449 O463 1.289 . S
C450 O464 1.258 . S
C450 O465 1.256 . S
C451 La441 2.928 1_655 S
C451 C452 1.503 . S
C451 O466 1.261 1_655 S
C451 O467 1.243 1_655 S
C452 C451 1.503 . S
C452 C453 1.394 . S
C452 C457 1.373 . S
C453 C452 1.394 . S
C453 C454 1.380 . S
C453 H476 0.930 . S
C454 C453 1.380 . S
C454 C455 1.376 . S
C454 H477 0.930 . S
C455 C454 1.376 . S
C455 C456 1.370 . S
C456 C455 1.370 . S
C456 C457 1.396 . S
C456 H478 0.929 . S
C457 C452 1.373 . S
C457 C456 1.396 . S
C457 H479 0.929 . S
C458 O468 1.240 . S
C458 O469 1.289 . S
C459 O470 1.258 . S
C459 O471 1.256 . S
O460 La440 2.521 . S
O460 C442 1.261 . S
O461 La440 2.628 . S
O461 C442 1.243 . S
O462 La440 2.554 . S
O462 C449 1.240 1_545 S
O463 La440 2.757 1_565 S
O463 La441 2.482 . S
O463 C449 1.289 . S
O464 La440 2.470 1_565 S
O464 C450 1.258 . S
O465 La441 2.503 . S
O465 C450 1.256 . S
O466 La441 2.521 . S
O466 C451 1.261 1_455 S
O467 La441 2.628 . S
O467 C451 1.243 1_455 S
O468 La441 2.554 . S
O468 C458 1.240 . S
O469 La440 2.482 1_565 S
O469 La441 2.757 . S
O469 C458 1.289 . S
O470 La441 2.470 1_545 S
O470 C459 1.258 . S
O471 La440 2.503 . S
O471 C459 1.256 . S
H472 C444 0.930 . S
H473 C445 0.930 . S
H474 C447 0.929 . S
H475 C448 0.929 . S
H476 C453 0.930 . S
H477 C454 0.930 . S
H478 C456 0.929 . S
H479 C457 0.929 . S
La480 C482 2.928 . S
La480 O500 2.521 . S
La480 O501 2.628 . S
La480 O502 2.554 . S
La480 O503 2.757 1_655 S
La480 O504 2.470 1_545 S
La480 O509 2.482 . S
La480 O511 2.503 . S
La481 C491 2.928 . S
La481 O503 2.482 1_565 S
La481 O505 2.503 1_455 S
La481 O506 2.521 . S
La481 O507 2.628 . S
La481 O508 2.554 . S
La481 O509 2.757 1_465 S
La481 O510 2.470 1_565 S
C482 La480 2.928 . S
C482 C483 1.503 . S
C482 O500 1.261 . S
C482 O501 1.243 . S
C483 C482 1.503 . S
C483 C484 1.394 . S
C483 C488 1.373 . S
C484 C483 1.394 . S
C484 C485 1.380 . S
C484 H512 0.930 . S
C485 C484 1.380 . S
C485 C486 1.376 . S
C485 H513 0.930 . S
C486 C485 1.376 . S
C486 C487 1.370 . S
C487 C486 1.370 . S
C487 C488 1.396 . S
C487 H514 0.929 . S
C488 C483 1.373 . S
C488 C487 1.396 . S
C488 H515 0.929 . S
C489 O502 1.240 . S
C489 O503 1.289 1_655 S
C490 O504 1.258 . S
C490 O505 1.256 . S
C491 La481 2.928 . S
C491 C492 1.503 . S
C491 O506 1.261 . S
C491 O507 1.243 . S
C492 C491 1.503 . S
C492 C493 1.394 . S
C492 C497 1.373 1_565 S
C493 C492 1.394 . S
C493 C494 1.380 . S
C493 H516 0.930 . S
C494 C493 1.380 . S
C494 C495 1.376 1_565 S
C494 H517 0.930 . S
C495 C494 1.376 1_545 S
C495 C496 1.370 . S
C496 C495 1.370 . S
C496 C497 1.396 . S
C496 H518 0.929 . S
C497 C492 1.373 1_545 S
C497 C496 1.396 . S
C497 H519 0.929 . S
C498 O508 1.240 1_645 S
C498 O509 1.289 . S
C499 O510 1.258 . S
C499 O511 1.256 1_455 S
O500 La480 2.521 . S
O500 C482 1.261 . S
O501 La480 2.628 . S
O501 C482 1.243 . S
O502 La480 2.554 . S
O502 C489 1.240 . S
O503 La480 2.757 1_455 S
O503 La481 2.482 1_545 S
O503 C489 1.289 1_455 S
O504 La480 2.470 1_565 S
O504 C490 1.258 . S
O505 La481 2.503 1_655 S
O505 C490 1.256 . S
O506 La481 2.521 . S
O506 C491 1.261 . S
O507 La481 2.628 . S
O507 C491 1.243 . S
O508 La481 2.554 . S
O508 C498 1.240 1_465 S
O509 La480 2.482 . S
O509 La481 2.757 1_645 S
O509 C498 1.289 . S
O510 La481 2.470 1_545 S
O510 C499 1.258 . S
O511 La480 2.503 . S
O511 C499 1.256 1_655 S
H512 C484 0.930 . S
H513 C485 0.930 . S
H514 C487 0.929 . S
H515 C488 0.929 . S
H516 C493 0.930 . S
H517 C494 0.930 . S
H518 C496 0.929 . S
H519 C497 0.929 . S
La520 C522 2.928 1_655 S
La520 O540 2.521 . S
La520 O541 2.628 . S
La520 O542 2.554 . S
La520 O543 2.757 . S
La520 O544 2.470 . S
La520 O549 2.482 . S
La520 O551 2.503 . S
La521 C531 2.928 . S
La521 O543 2.482 . S
La521 O545 2.503 . S
La521 O546 2.521 . S
La521 O547 2.628 . S
La521 O548 2.554 . S
La521 O549 2.757 . S
La521 O550 2.470 . S
C522 La520 2.928 1_455 S
C522 C523 1.503 . S
C522 O540 1.261 1_455 S
C522 O541 1.243 1_455 S
C523 C522 1.503 . S
C523 C524 1.394 . S
C523 C528 1.373 . S
C524 C523 1.394 . S
C524 C525 1.380 . S
C524 H552 0.930 . S
C525 C524 1.380 . S
C525 C526 1.376 . S
C525 H553 0.930 . S
C526 C525 1.376 . S
C526 C527 1.370 . S
C527 C526 1.370 . S
C527 C528 1.396 . S
C527 H554 0.929 . S
C528 C523 1.373 . S
C528 C527 1.396 . S
C528 H555 0.929 . S
C529 O542 1.240 . S
C529 O543 1.289 . S
C530 O544 1.258 . S
C530 O545 1.256 . S
C531 La521 2.928 . S
C531 C532 1.503 . S
C531 O546 1.261 . S
C531 O547 1.243 . S
C532 C531 1.503 . S
C532 C533 1.394 . S
C532 C537 1.373 . S
C533 C532 1.394 . S
C533 C534 1.380 . S
C533 H556 0.930 . S
C534 C533 1.380 . S
C534 C535 1.376 . S
C534 H557 0.930 . S
C535 C534 1.376 . S
C535 C536 1.370 . S
C536 C535 1.370 . S
C536 C537 1.396 . S
C536 H558 0.929 . S
C537 C532 1.373 . S
C537 C536 1.396 . S
C537 H559 0.929 . S
C538 O548 1.240 . S
C538 O549 1.289 . S
C539 O550 1.258 . S
C539 O551 1.256 . S
O540 La520 2.521 . S
O540 C522 1.261 1_655 S
O541 La520 2.628 . S
O541 C522 1.243 1_655 S
O542 La520 2.554 . S
O542 C529 1.240 . S
O543 La520 2.757 . S
O543 La521 2.482 . S
O543 C529 1.289 . S
O544 La520 2.470 . S
O544 C530 1.258 . S
O545 La521 2.503 . S
O545 C530 1.256 . S
O546 La521 2.521 . S
O546 C531 1.261 . S
O547 La521 2.628 . S
O547 C531 1.243 . S
O548 La521 2.554 . S
O548 C538 1.240 . S
O549 La520 2.482 . S
O549 La521 2.757 . S
O549 C538 1.289 . S
O550 La521 2.470 . S
O550 C539 1.258 . S
O551 La520 2.503 . S
O551 C539 1.256 . S
H552 C524 0.930 . S
H553 C525 0.930 . S
H554 C527 0.929 . S
H555 C528 0.929 . S
H556 C533 0.930 . S
H557 C534 0.930 . S
H558 C536 0.929 . S
H559 C537 0.929 . S
La560 C562 2.928 . S
La560 O580 2.521 . S
La560 O581 2.628 . S
La560 O582 2.554 . S
La560 O583 2.757 1_655 S
La560 O584 2.470 . S
La560 O589 2.482 . S
La560 O591 2.503 . S
La561 C571 2.928 . S
La561 O583 2.482 . S
La561 O585 2.503 1_455 S
La561 O586 2.521 . S
La561 O587 2.628 . S
La561 O588 2.554 . S
La561 O589 2.757 1_455 S
La561 O590 2.470 . S
C562 La560 2.928 . S
C562 C563 1.503 . S
C562 O580 1.261 . S
C562 O581 1.243 . S
C563 C562 1.503 . S
C563 C564 1.394 . S
C563 C568 1.373 . S
C564 C563 1.394 . S
C564 C565 1.380 . S
C564 H592 0.930 . S
C565 C564 1.380 . S
C565 C566 1.376 . S
C565 H593 0.930 . S
C566 C565 1.376 . S
C566 C567 1.370 . S
C567 C566 1.370 . S
C567 C568 1.396 . S
C567 H594 0.929 . S
C568 C563 1.373 . S
C568 C567 1.396 . S
C568 H595 0.929 . S
C569 O582 1.240 . S
C569 O583 1.289 1_655 S
C570 O584 1.258 . S
C570 O585 1.256 . S
C571 La561 2.928 . S
C571 C572 1.503 . S
C571 O586 1.261 . S
C571 O587 1.243 . S
C572 C571 1.503 . S
C572 C573 1.394 . S
C572 C577 1.373 . S
C573 C572 1.394 . S
C573 C574 1.380 . S
C573 H596 0.930 . S
C574 C573 1.380 . S
C574 C575 1.376 . S
C574 H597 0.930 . S
C575 C574 1.376 . S
C575 C576 1.370 . S
C576 C575 1.370 . S
C576 C577 1.396 . S
C576 H598 0.929 . S
C577 C572 1.373 . S
C577 C576 1.396 . S
C577 H599 0.929 . S
C578 O588 1.240 1_655 S
C578 O589 1.289 . S
C579 O590 1.258 . S
C579 O591 1.256 1_455 S
O580 La560 2.521 . S
O580 C562 1.261 . S
O581 La560 2.628 . S
O581 C562 1.243 . S
O582 La560 2.554 . S
O582 C569 1.240 . S
O583 La560 2.757 1_455 S
O583 La561 2.482 . S
O583 C569 1.289 1_455 S
O584 La560 2.470 . S
O584 C570 1.258 . S
O585 La561 2.503 1_655 S
O585 C570 1.256 . S
O586 La561 2.521 . S
O586 C571 1.261 . S
O587 La561 2.628 . S
O587 C571 1.243 . S
O588 La561 2.554 . S
O588 C578 1.240 1_455 S
O589 La560 2.482 . S
O589 La561 2.757 1_655 S
O589 C578 1.289 . S
O590 La561 2.470 . S
O590 C579 1.258 . S
O591 La560 2.503 . S
O591 C579 1.256 1_655 S
H592 C564 0.930 . S
H593 C565 0.930 . S
H594 C567 0.929 . S
H595 C568 0.929 . S
H596 C573 0.930 . S
H597 C574 0.930 . S
H598 C576 0.929 . S
H599 C577 0.929 . S
La600 C602 2.928 1_655 S
La600 O620 2.521 . S
La600 O621 2.628 . S
La600 O622 2.554 . S
La600 O623 2.757 . S
La600 O624 2.470 1_545 S
La600 O629 2.482 . S
La600 O631 2.503 . S
La601 C611 2.928 . S
La601 O623 2.482 1_565 S
La601 O625 2.503 . S
La601 O626 2.521 . S
La601 O627 2.628 . S
La601 O628 2.554 . S
La601 O629 2.757 1_565 S
La601 O630 2.470 1_565 S
C602 La600 2.928 1_455 S
C602 C603 1.503 . S
C602 O620 1.261 1_455 S
C602 O621 1.243 1_455 S
C603 C602 1.503 . S
C603 C604 1.394 . S
C603 C608 1.373 . S
C604 C603 1.394 . S
C604 C605 1.380 . S
C604 H632 0.930 . S
C605 C604 1.380 . S
C605 C606 1.376 . S
C605 H633 0.930 . S
C606 C605 1.376 . S
C606 C607 1.370 . S
C607 C606 1.370 . S
C607 C608 1.396 . S
C607 H634 0.929 . S
C608 C603 1.373 . S
C608 C607 1.396 . S
C608 H635 0.929 . S
C609 O622 1.240 . S
C609 O623 1.289 . S
C610 O624 1.258 . S
C610 O625 1.256 . S
C611 La601 2.928 . S
C611 C612 1.503 . S
C611 O626 1.261 . S
C611 O627 1.243 . S
C612 C611 1.503 . S
C612 C613 1.394 . S
C612 C617 1.373 1_565 S
C613 C612 1.394 . S
C613 C614 1.380 . S
C613 H636 0.930 . S
C614 C613 1.380 . S
C614 C615 1.376 1_565 S
C614 H637 0.930 . S
C615 C614 1.376 1_545 S
C615 C616 1.370 . S
C616 C615 1.370 . S
C616 C617 1.396 . S
C616 H638 0.929 . S
C617 C612 1.373 1_545 S
C617 C616 1.396 . S
C617 H639 0.929 . S
C618 O628 1.240 1_545 S
C618 O629 1.289 . S
C619 O630 1.258 . S
C619 O631 1.256 . S
O620 La600 2.521 . S
O620 C602 1.261 1_655 S
O621 La600 2.628 . S
O621 C602 1.243 1_655 S
O622 La600 2.554 . S
O622 C609 1.240 . S
O623 La600 2.757 . S
O623 La601 2.482 1_545 S
O623 C609 1.289 . S
O624 La600 2.470 1_565 S
O624 C610 1.258 . S
O625 La601 2.503 . S
O625 C610 1.256 . S
O626 La601 2.521 . S
O626 C611 1.261 . S
O627 La601 2.628 . S
O627 C611 1.243 . S
O628 La601 2.554 . S
O628 C618 1.240 1_565 S
O629 La600 2.482 . S
O629 La601 2.757 1_545 S
O629 C618 1.289 . S
O630 La601 2.470 1_545 S
O630 C619 1.258 . S
O631 La600 2.503 . S
O631 C619 1.256 . S
H632 C604 0.930 . S
H633 C605 0.930 . S
H634 C607 0.929 . S
H635 C608 0.929 . S
H636 C613 0.930 . S
H637 C614 0.930 . S
H638 C616 0.929 . S
H639 C617 0.929 . S
La640 C642 2.928 . S
La640 O660 2.521 . S
La640 O661 2.628 . S
La640 O662 2.554 . S
La640 O663 2.757 . S
La640 O664 2.470 . S
La640 O669 2.482 . S
La640 O671 2.503 . S
La641 C651 2.928 . S
La641 O663 2.482 . S
La641 O665 2.503 . S
La641 O666 2.521 . S
La641 O667 2.628 . S
La641 O668 2.554 . S
La641 O669 2.757 . S
La641 O670 2.470 . S
C642 La640 2.928 . S
C642 C643 1.503 . S
C642 O660 1.261 . S
C642 O661 1.243 . S
C643 C642 1.503 . S
C643 C644 1.394 . S
C643 C648 1.373 . S
C644 C643 1.394 . S
C644 C645 1.380 . S
C644 H672 0.930 . S
C645 C644 1.380 . S
C645 C646 1.376 . S
C645 H673 0.930 . S
C646 C645 1.376 . S
C646 C647 1.370 . S
C647 C646 1.370 . S
C647 C648 1.396 . S
C647 H674 0.929 . S
C648 C643 1.373 . S
C648 C647 1.396 . S
C648 H675 0.929 . S
C649 O662 1.240 . S
C649 O663 1.289 . S
C650 O664 1.258 . S
C650 O665 1.256 . S
C651 La641 2.928 . S
C651 C652 1.503 . S
C651 O666 1.261 . S
C651 O667 1.243 . S
C652 C651 1.503 . S
C652 C653 1.394 . S
C652 C657 1.373 . S
C653 C652 1.394 . S
C653 C654 1.380 . S
C653 H676 0.930 . S
C654 C653 1.380 . S
C654 C655 1.376 . S
C654 H677 0.930 . S
C655 C654 1.376 . S
C655 C656 1.370 . S
C656 C655 1.370 . S
C656 C657 1.396 . S
C656 H678 0.929 . S
C657 C652 1.373 . S
C657 C656 1.396 . S
C657 H679 0.929 . S
C658 O668 1.240 . S
C658 O669 1.289 . S
C659 O670 1.258 . S
C659 O671 1.256 . S
O660 La640 2.521 . S
O660 C642 1.261 . S
O661 La640 2.628 . S
O661 C642 1.243 . S
O662 La640 2.554 . S
O662 C649 1.240 . S
O663 La640 2.757 . S
O663 La641 2.482 . S
O663 C649 1.289 . S
O664 La640 2.470 . S
O664 C650 1.258 . S
O665 La641 2.503 . S
O665 C650 1.256 . S
O666 La641 2.521 . S
O666 C651 1.261 . S
O667 La641 2.628 . S
O667 C651 1.243 . S
O668 La641 2.554 . S
O668 C658 1.240 . S
O669 La640 2.482 . S
O669 La641 2.757 . S
O669 C658 1.289 . S
O670 La641 2.470 . S
O670 C659 1.258 . S
O671 La640 2.503 . S
O671 C659 1.256 . S
H672 C644 0.930 . S
H673 C645 0.930 . S
H674 C647 0.929 . S
H675 C648 0.929 . S
H676 C653 0.930 . S
H677 C654 0.930 . S
H678 C656 0.929 . S
H679 C657 0.929 . S
La680 C682 2.928 . S
La680 O700 2.521 . S
La680 O701 2.628 . S
La680 O702 2.554 . S
La680 O703 2.757 . S
La680 O704 2.470 . S
La680 O709 2.482 . S
La680 O711 2.503 . S
La681 C691 2.928 . S
La681 O703 2.482 . S
La681 O705 2.503 . S
La681 O706 2.521 . S
La681 O707 2.628 . S
La681 O708 2.554 . S
La681 O709 2.757 . S
La681 O710 2.470 . S
C682 La680 2.928 . S
C682 C683 1.503 1_655 S
C682 O700 1.261 . S
C682 O701 1.243 . S
C683 C682 1.503 1_455 S
C683 C684 1.394 . S
C683 C688 1.373 . S
C684 C683 1.394 . S
C684 C685 1.380 . S
C684 H712 0.930 . S
C685 C684 1.380 . S
C685 C686 1.376 . S
C685 H713 0.930 . S
C686 C685 1.376 . S
C686 C687 1.370 . S
C687 C686 1.370 . S
C687 C688 1.396 . S
C687 H714 0.929 . S
C688 C683 1.373 . S
C688 C687 1.396 . S
C688 H715 0.929 . S
C689 O702 1.240 . S
C689 O703 1.289 . S
C690 O704 1.258 . S
C690 O705 1.256 . S
C691 La681 2.928 . S
C691 C692 1.503 . S
C691 O706 1.261 . S
C691 O707 1.243 . S
C692 C691 1.503 . S
C692 C693 1.394 . S
C692 C697 1.373 . S
C693 C692 1.394 . S
C693 C694 1.380 . S
C693 H716 0.930 . S
C694 C693 1.380 . S
C694 C695 1.376 . S
C694 H717 0.930 . S
C695 C694 1.376 . S
C695 C696 1.370 . S
C696 C695 1.370 . S
C696 C697 1.396 . S
C696 H718 0.929 . S
C697 C692 1.373 . S
C697 C696 1.396 . S
C697 H719 0.929 . S
C698 O708 1.240 . S
C698 O709 1.289 . S
C699 O710 1.258 . S
C699 O711 1.256 . S
O700 La680 2.521 . S
O700 C682 1.261 . S
O701 La680 2.628 . S
O701 C682 1.243 . S
O702 La680 2.554 . S
O702 C689 1.240 . S
O703 La680 2.757 . S
O703 La681 2.482 . S
O703 C689 1.289 . S
O704 La680 2.470 . S
O704 C690 1.258 . S
O705 La681 2.503 . S
O705 C690 1.256 . S
O706 La681 2.521 . S
O706 C691 1.261 . S
O707 La681 2.628 . S
O707 C691 1.243 . S
O708 La681 2.554 . S
O708 C698 1.240 . S
O709 La680 2.482 . S
O709 La681 2.757 . S
O709 C698 1.289 . S
O710 La681 2.470 . S
O710 C699 1.258 . S
O711 La680 2.503 . S
O711 C699 1.256 . S
H712 C684 0.930 . S
H713 C685 0.930 . S
H714 C687 0.929 . S
H715 C688 0.929 . S
H716 C693 0.930 . S
H717 C694 0.930 . S
H718 C696 0.929 . S
H719 C697 0.929 . S
La720 C722 2.928 . S
La720 O740 2.521 . S
La720 O741 2.628 . S
La720 O742 2.554 . S
La720 O743 2.757 . S
La720 O744 2.470 . S
La720 O749 2.482 . S
La720 O751 2.503 . S
La721 C731 2.928 . S
La721 O743 2.482 . S
La721 O745 2.503 . S
La721 O746 2.521 . S
La721 O747 2.628 . S
La721 O748 2.554 . S
La721 O749 2.757 . S
La721 O750 2.470 . S
C722 La720 2.928 . S
C722 C723 1.503 . S
C722 O740 1.261 . S
C722 O741 1.243 . S
C723 C722 1.503 . S
C723 C724 1.394 . S
C723 C728 1.373 . S
C724 C723 1.394 . S
C724 C725 1.380 . S
C724 H752 0.930 . S
C725 C724 1.380 . S
C725 C726 1.376 . S
C725 H753 0.930 . S
C726 C725 1.376 . S
C726 C727 1.370 . S
C727 C726 1.370 . S
C727 C728 1.396 . S
C727 H754 0.929 . S
C728 C723 1.373 . S
C728 C727 1.396 . S
C728 H755 0.929 . S
C729 O742 1.240 . S
C729 O743 1.289 . S
C730 O744 1.258 . S
C730 O745 1.256 . S
C731 La721 2.928 . S
C731 C732 1.503 . S
C731 O746 1.261 . S
C731 O747 1.243 . S
C732 C731 1.503 . S
C732 C733 1.394 . S
C732 C737 1.373 . S
C733 C732 1.394 . S
C733 C734 1.380 . S
C733 H756 0.930 . S
C734 C733 1.380 . S
C734 C735 1.376 . S
C734 H757 0.930 . S
C735 C734 1.376 . S
C735 C736 1.370 . S
C736 C735 1.370 . S
C736 C737 1.396 . S
C736 H758 0.929 . S
C737 C732 1.373 . S
C737 C736 1.396 . S
C737 H759 0.929 . S
C738 O748 1.240 . S
C738 O749 1.289 . S
C739 O750 1.258 . S
C739 O751 1.256 . S
O740 La720 2.521 . S
O740 C722 1.261 . S
O741 La720 2.628 . S
O741 C722 1.243 . S
O742 La720 2.554 . S
O742 C729 1.240 . S
O743 La720 2.757 . S
O743 La721 2.482 . S
O743 C729 1.289 . S
O744 La720 2.470 . S
O744 C730 1.258 . S
O745 La721 2.503 . S
O745 C730 1.256 . S
O746 La721 2.521 . S
O746 C731 1.261 . S
O747 La721 2.628 . S
O747 C731 1.243 . S
O748 La721 2.554 . S
O748 C738 1.240 . S
O749 La720 2.482 . S
O749 La721 2.757 . S
O749 C738 1.289 . S
O750 La721 2.470 . S
O750 C739 1.258 . S
O751 La720 2.503 . S
O751 C739 1.256 . S
H752 C724 0.930 . S
H753 C725 0.930 . S
H754 C727 0.929 . S
H755 C728 0.929 . S
H756 C733 0.930 . S
H757 C734 0.930 . S
H758 C736 0.929 . S
H759 C737 0.929 . S
La760 C762 2.928 . S
La760 O780 2.521 . S
La760 O781 2.628 . S
La760 O782 2.554 . S
La760 O783 2.757 . S
La760 O784 2.470 . S
La760 O789 2.482 . S
La760 O791 2.503 . S
La761 C771 2.928 . S
La761 O783 2.482 . S
La761 O785 2.503 . S
La761 O786 2.521 . S
La761 O787 2.628 . S
La761 O788 2.554 . S
La761 O789 2.757 . S
La761 O790 2.470 . S
C762 La760 2.928 . S
C762 C763 1.503 1_655 S
C762 O780 1.261 . S
C762 O781 1.243 . S
C763 C762 1.503 1_455 S
C763 C764 1.394 . S
C763 C768 1.373 . S
C764 C763 1.394 . S
C764 C765 1.380 . S
C764 H792 0.930 . S
C765 C764 1.380 . S
C765 C766 1.376 . S
C765 H793 0.930 . S
C766 C765 1.376 . S
C766 C767 1.370 . S
C767 C766 1.370 . S
C767 C768 1.396 . S
C767 H794 0.929 . S
C768 C763 1.373 . S
C768 C767 1.396 . S
C768 H795 0.929 . S
C769 O782 1.240 . S
C769 O783 1.289 . S
C770 O784 1.258 . S
C770 O785 1.256 . S
C771 La761 2.928 . S
C771 C772 1.503 . S
C771 O786 1.261 . S
C771 O787 1.243 . S
C772 C771 1.503 . S
C772 C773 1.394 . S
C772 C777 1.373 . S
C773 C772 1.394 . S
C773 C774 1.380 . S
C773 H796 0.930 . S
C774 C773 1.380 . S
C774 C775 1.376 . S
C774 H797 0.930 . S
C775 C774 1.376 . S
C775 C776 1.370 . S
C776 C775 1.370 . S
C776 C777 1.396 . S
C776 H798 0.929 . S
C777 C772 1.373 . S
C777 C776 1.396 . S
C777 H799 0.929 . S
C778 O788 1.240 . S
C778 O789 1.289 . S
C779 O790 1.258 . S
C779 O791 1.256 . S
O780 La760 2.521 . S
O780 C762 1.261 . S
O781 La760 2.628 . S
O781 C762 1.243 . S
O782 La760 2.554 . S
O782 C769 1.240 . S
O783 La760 2.757 . S
O783 La761 2.482 . S
O783 C769 1.289 . S
O784 La760 2.470 . S
O784 C770 1.258 . S
O785 La761 2.503 . S
O785 C770 1.256 . S
O786 La761 2.521 . S
O786 C771 1.261 . S
O787 La761 2.628 . S
O787 C771 1.243 . S
O788 La761 2.554 . S
O788 C778 1.240 . S
O789 La760 2.482 . S
O789 La761 2.757 . S
O789 C778 1.289 . S
O790 La761 2.470 . S
O790 C779 1.258 . S
O791 La760 2.503 . S
O791 C779 1.256 . S
H792 C764 0.930 . S
H793 C765 0.930 . S
H794 C767 0.929 . S
H795 C768 0.929 . S
H796 C773 0.930 . S
H797 C774 0.930 . S
H798 C776 0.929 . S
H799 C777 0.929 . S
La800 C802 2.928 . S
La800 O820 2.521 . S
La800 O821 2.628 . S
La800 O822 2.554 . S
La800 O823 2.757 . S
La800 O824 2.470 . S
La800 O829 2.482 . S
La800 O831 2.503 . S
La801 C811 2.928 . S
La801 O823 2.482 . S
La801 O825 2.503 . S
La801 O826 2.521 . S
La801 O827 2.628 . S
La801 O828 2.554 . S
La801 O829 2.757 . S
La801 O830 2.470 . S
C802 La800 2.928 . S
C802 C803 1.503 . S
C802 O820 1.261 . S
C802 O821 1.243 . S
C803 C802 1.503 . S
C803 C804 1.394 . S
C803 C808 1.373 . S
C804 C803 1.394 . S
C804 C805 1.380 . S
C804 H832 0.930 . S
C805 C804 1.380 . S
C805 C806 1.376 . S
C805 H833 0.930 . S
C806 C805 1.376 . S
C806 C807 1.370 . S
C807 C806 1.370 . S
C807 C808 1.396 . S
C807 H834 0.929 . S
C808 C803 1.373 . S
C808 C807 1.396 . S
C808 H835 0.929 . S
C809 O822 1.240 . S
C809 O823 1.289 . S
C810 O824 1.258 . S
C810 O825 1.256 . S
C811 La801 2.928 . S
C811 C812 1.503 . S
C811 O826 1.261 . S
C811 O827 1.243 . S
C812 C811 1.503 . S
C812 C813 1.394 . S
C812 C817 1.373 . S
C813 C812 1.394 . S
C813 C814 1.380 . S
C813 H836 0.930 . S
C814 C813 1.380 . S
C814 C815 1.376 . S
C814 H837 0.930 . S
C815 C814 1.376 . S
C815 C816 1.370 . S
C816 C815 1.370 . S
C816 C817 1.396 . S
C816 H838 0.929 . S
C817 C812 1.373 . S
C817 C816 1.396 . S
C817 H839 0.929 . S
C818 O828 1.240 . S
C818 O829 1.289 . S
C819 O830 1.258 . S
C819 O831 1.256 . S
O820 La800 2.521 . S
O820 C802 1.261 . S
O821 La800 2.628 . S
O821 C802 1.243 . S
O822 La800 2.554 . S
O822 C809 1.240 . S
O823 La800 2.757 . S
O823 La801 2.482 . S
O823 C809 1.289 . S
O824 La800 2.470 . S
O824 C810 1.258 . S
O825 La801 2.503 . S
O825 C810 1.256 . S
O826 La801 2.521 . S
O826 C811 1.261 . S
O827 La801 2.628 . S
O827 C811 1.243 . S
O828 La801 2.554 . S
O828 C818 1.240 . S
O829 La800 2.482 . S
O829 La801 2.757 . S
O829 C818 1.289 . S
O830 La801 2.470 . S
O830 C819 1.258 . S
O831 La800 2.503 . S
O831 C819 1.256 . S
H832 C804 0.930 . S
H833 C805 0.930 . S
H834 C807 0.929 . S
H835 C808 0.929 . S
H836 C813 0.930 . S
H837 C814 0.930 . S
H838 C816 0.929 . S
H839 C817 0.929 . S
La840 C842 2.928 . S
La840 O860 2.521 . S
La840 O861 2.628 . S
La840 O862 2.554 . S
La840 O863 2.757 . S
La840 O864 2.470 . S
La840 O869 2.482 . S
La840 O871 2.503 . S
La841 C851 2.928 . S
La841 O863 2.482 . S
La841 O865 2.503 . S
La841 O866 2.521 . S
La841 O867 2.628 . S
La841 O868 2.554 . S
La841 O869 2.757 . S
La841 O870 2.470 . S
C842 La840 2.928 . S
C842 C843 1.503 . S
C842 O860 1.261 . S
C842 O861 1.243 . S
C843 C842 1.503 . S
C843 C844 1.394 . S
C843 C848 1.373 . S
C844 C843 1.394 . S
C844 C845 1.380 . S
C844 H872 0.930 . S
C845 C844 1.380 . S
C845 C846 1.376 . S
C845 H873 0.930 . S
C846 C845 1.376 . S
C846 C847 1.370 . S
C847 C846 1.370 . S
C847 C848 1.396 . S
C847 H874 0.929 . S
C848 C843 1.373 . S
C848 C847 1.396 . S
C848 H875 0.929 . S
C849 O862 1.240 . S
C849 O863 1.289 . S
C850 O864 1.258 . S
C850 O865 1.256 . S
C851 La841 2.928 . S
C851 C852 1.503 1_455 S
C851 O866 1.261 . S
C851 O867 1.243 . S
C852 C851 1.503 1_655 S
C852 C853 1.394 . S
C852 C857 1.373 . S
C853 C852 1.394 . S
C853 C854 1.380 . S
C853 H876 0.930 . S
C854 C853 1.380 . S
C854 C855 1.376 . S
C854 H877 0.930 . S
C855 C854 1.376 . S
C855 C856 1.370 . S
C856 C855 1.370 . S
C856 C857 1.396 . S
C856 H878 0.929 . S
C857 C852 1.373 . S
C857 C856 1.396 . S
C857 H879 0.929 . S
C858 O868 1.240 . S
C858 O869 1.289 . S
C859 O870 1.258 . S
C859 O871 1.256 . S
O860 La840 2.521 . S
O860 C842 1.261 . S
O861 La840 2.628 . S
O861 C842 1.243 . S
O862 La840 2.554 . S
O862 C849 1.240 . S
O863 La840 2.757 . S
O863 La841 2.482 . S
O863 C849 1.289 . S
O864 La840 2.470 . S
O864 C850 1.258 . S
O865 La841 2.503 . S
O865 C850 1.256 . S
O866 La841 2.521 . S
O866 C851 1.261 . S
O867 La841 2.628 . S
O867 C851 1.243 . S
O868 La841 2.554 . S
O868 C858 1.240 . S
O869 La840 2.482 . S
O869 La841 2.757 . S
O869 C858 1.289 . S
O870 La841 2.470 . S
O870 C859 1.258 . S
O871 La840 2.503 . S
O871 C859 1.256 . S
H872 C844 0.930 . S
H873 C845 0.930 . S
H874 C847 0.929 . S
H875 C848 0.929 . S
H876 C853 0.930 . S
H877 C854 0.930 . S
H878 C856 0.929 . S
H879 C857 0.929 . S
La880 C882 2.928 . S
La880 O900 2.521 . S
La880 O901 2.628 . S
La880 O902 2.554 . S
La880 O903 2.757 . S
La880 O904 2.470 . S
La880 O909 2.482 . S
La880 O911 2.503 . S
La881 C891 2.928 . S
La881 O903 2.482 . S
La881 O905 2.503 . S
La881 O906 2.521 . S
La881 O907 2.628 . S
La881 O908 2.554 . S
La881 O909 2.757 . S
La881 O910 2.470 . S
C882 La880 2.928 . S
C882 C883 1.503 . S
C882 O900 1.261 . S
C882 O901 1.243 . S
C883 C882 1.503 . S
C883 C884 1.394 . S
C883 C888 1.373 . S
C884 C883 1.394 . S
C884 C885 1.380 . S
C884 H912 0.930 . S
C885 C884 1.380 . S
C885 C886 1.376 . S
C885 H913 0.930 . S
C886 C885 1.376 . S
C886 C887 1.370 . S
C887 C886 1.370 . S
C887 C888 1.396 . S
C887 H914 0.929 . S
C888 C883 1.373 . S
C888 C887 1.396 . S
C888 H915 0.929 . S
C889 O902 1.240 . S
C889 O903 1.289 . S
C890 O904 1.258 . S
C890 O905 1.256 . S
C891 La881 2.928 . S
C891 C892 1.503 . S
C891 O906 1.261 . S
C891 O907 1.243 . S
C892 C891 1.503 . S
C892 C893 1.394 . S
C892 C897 1.373 . S
C893 C892 1.394 . S
C893 C894 1.380 . S
C893 H916 0.930 . S
C894 C893 1.380 . S
C894 C895 1.376 . S
C894 H917 0.930 . S
C895 C894 1.376 . S
C895 C896 1.370 . S
C896 C895 1.370 . S
C896 C897 1.396 . S
C896 H918 0.929 . S
C897 C892 1.373 . S
C897 C896 1.396 . S
C897 H919 0.929 . S
C898 O908 1.240 . S
C898 O909 1.289 . S
C899 O910 1.258 . S
C899 O911 1.256 . S
O900 La880 2.521 . S
O900 C882 1.261 . S
O901 La880 2.628 . S
O901 C882 1.243 . S
O902 La880 2.554 . S
O902 C889 1.240 . S
O903 La880 2.757 . S
O903 La881 2.482 . S
O903 C889 1.289 . S
O904 La880 2.470 . S
O904 C890 1.258 . S
O905 La881 2.503 . S
O905 C890 1.256 . S
O906 La881 2.521 . S
O906 C891 1.261 . S
O907 La881 2.628 . S
O907 C891 1.243 . S
O908 La881 2.554 . S
O908 C898 1.240 . S
O909 La880 2.482 . S
O909 La881 2.757 . S
O909 C898 1.289 . S
O910 La881 2.470 . S
O910 C899 1.258 . S
O911 La880 2.503 . S
O911 C899 1.256 . S
H912 C884 0.930 . S
H913 C885 0.930 . S
H914 C887 0.929 . S
H915 C888 0.929 . S
H916 C893 0.930 . S
H917 C894 0.930 . S
H918 C896 0.929 . S
H919 C897 0.929 . S
La920 C922 2.928 . S
La920 O940 2.521 . S
La920 O941 2.628 . S
La920 O942 2.554 . S
La920 O943 2.757 . S
La920 O944 2.470 . S
La920 O949 2.482 . S
La920 O951 2.503 . S
La921 C931 2.928 . S
La921 O943 2.482 . S
La921 O945 2.503 . S
La921 O946 2.521 . S
La921 O947 2.628 . S
La921 O948 2.554 . S
La921 O949 2.757 . S
La921 O950 2.470 . S
C922 La920 2.928 . S
C922 C923 1.503 . S
C922 O940 1.261 . S
C922 O941 1.243 . S
C923 C922 1.503 . S
C923 C924 1.394 . S
C923 C928 1.373 . S
C924 C923 1.394 . S
C924 C925 1.380 . S
C924 H952 0.930 . S
C925 C924 1.380 . S
C925 C926 1.376 . S
C925 H953 0.930 . S
C926 C925 1.376 . S
C926 C927 1.370 . S
C927 C926 1.370 . S
C927 C928 1.396 . S
C927 H954 0.929 . S
C928 C923 1.373 . S
C928 C927 1.396 . S
C928 H955 0.929 . S
C929 O942 1.240 . S
C929 O943 1.289 . S
C930 O944 1.258 . S
C930 O945 1.256 . S
C931 La921 2.928 . S
C931 C932 1.503 1_455 S
C931 O946 1.261 . S
C931 O947 1.243 . S
C932 C931 1.503 1_655 S
C932 C933 1.394 . S
C932 C937 1.373 . S
C933 C932 1.394 . S
C933 C934 1.380 . S
C933 H956 0.930 . S
C934 C933 1.380 . S
C934 C935 1.376 . S
C934 H957 0.930 . S
C935 C934 1.376 . S
C935 C936 1.370 . S
C936 C935 1.370 . S
C936 C937 1.396 . S
C936 H958 0.929 . S
C937 C932 1.373 . S
C937 C936 1.396 . S
C937 H959 0.929 . S
C938 O948 1.240 . S
C938 O949 1.289 . S
C939 O950 1.258 . S
C939 O951 1.256 . S
O940 La920 2.521 . S
O940 C922 1.261 . S
O941 La920 2.628 . S
O941 C922 1.243 . S
O942 La920 2.554 . S
O942 C929 1.240 . S
O943 La920 2.757 . S
O943 La921 2.482 . S
O943 C929 1.289 . S
O944 La920 2.470 . S
O944 C930 1.258 . S
O945 La921 2.503 . S
O945 C930 1.256 . S
O946 La921 2.521 . S
O946 C931 1.261 . S
O947 La921 2.628 . S
O947 C931 1.243 . S
O948 La921 2.554 . S
O948 C938 1.240 . S
O949 La920 2.482 . S
O949 La921 2.757 . S
O949 C938 1.289 . S
O950 La921 2.470 . S
O950 C939 1.258 . S
O951 La920 2.503 . S
O951 C939 1.256 . S
H952 C924 0.930 . S
H953 C925 0.930 . S
H954 C927 0.929 . S
H955 C928 0.929 . S
H956 C933 0.930 . S
H957 C934 0.930 . S
H958 C936 0.929 . S
H959 C937 0.929 . S
La960 C962 2.928 . S
La960 O980 2.521 . S
La960 O981 2.628 . S
La960 O982 2.554 . S
La960 O983 2.757 1_545 S
La960 O984 2.470 1_545 S
La960 O989 2.482 1_545 S
La960 O991 2.503 . S
La961 C971 2.928 . S
La961 O983 2.482 . S
La961 O985 2.503 . S
La961 O986 2.521 . S
La961 O987 2.628 . S
La961 O988 2.554 . S
La961 O989 2.757 . S
La961 O990 2.470 1_565 S
C962 La960 2.928 . S
C962 C963 1.503 . S
C962 O980 1.261 . S
C962 O981 1.243 . S
C963 C962 1.503 . S
C963 C964 1.394 . S
C963 C968 1.373 1_545 S
C964 C963 1.394 . S
C964 C965 1.380 . S
C964 H992 0.930 . S
C965 C964 1.380 . S
C965 C966 1.376 1_545 S
C965 H993 0.930 . S
C966 C965 1.376 1_565 S
C966 C967 1.370 . S
C967 C966 1.370 . S
C967 C968 1.396 . S
C967 H994 0.929 . S
C968 C963 1.373 1_565 S
C968 C967 1.396 . S
C968 H995 0.929 . S
C969 O982 1.240 1_565 S
C969 O983 1.289 . S
C970 O984 1.258 . S
C970 O985 1.256 . S
C971 La961 2.928 . S
C971 C972 1.503 . S
C971 O986 1.261 . S
C971 O987 1.243 . S
C972 C971 1.503 . S
C972 C973 1.394 . S
C972 C977 1.373 . S
C973 C972 1.394 . S
C973 C974 1.380 . S
C973 H996 0.930 . S
C974 C973 1.380 . S
C974 C975 1.376 . S
C974 H997 0.930 . S
C975 C974 1.376 . S
C975 C976 1.370 . S
C976 C975 1.370 . S
C976 C977 1.396 . S
C976 H998 0.929 . S
C977 C972 1.373 . S
C977 C976 1.396 . S
C977 H999 0.929 . S
C978 O988 1.240 . S
C978 O989 1.289 . S
C979 O990 1.258 . S
C979 O991 1.256 . S
O980 La960 2.521 . S
O980 C962 1.261 . S
O981 La960 2.628 . S
O981 C962 1.243 . S
O982 La960 2.554 . S
O982 C969 1.240 1_545 S
O983 La960 2.757 1_565 S
O983 La961 2.482 . S
O983 C969 1.289 . S
O984 La960 2.470 1_565 S
O984 C970 1.258 . S
O985 La961 2.503 . S
O985 C970 1.256 . S
O986 La961 2.521 . S
O986 C971 1.261 . S
O987 La961 2.628 . S
O987 C971 1.243 . S
O988 La961 2.554 . S
O988 C978 1.240 . S
O989 La960 2.482 1_565 S
O989 La961 2.757 . S
O989 C978 1.289 . S
O990 La961 2.470 1_545 S
O990 C979 1.258 . S
O991 La960 2.503 . S
O991 C979 1.256 . S
H992 C964 0.930 . S
H993 C965 0.930 . S
H994 C967 0.929 . S
H995 C968 0.929 . S
H996 C973 0.930 . S
H997 C974 0.930 . S
H998 C976 0.929 . S
H999 C977 0.929 . S
La1000 C1002 2.928 . S
La1000 O1020 2.521 . S
La1000 O1021 2.628 . S
La1000 O1022 2.554 . S
La1000 O1023 2.757 . S
La1000 O1024 2.470 . S
La1000 O1029 2.482 . S
La1000 O1031 2.503 . S
La1001 C1011 2.928 . S
La1001 O1023 2.482 . S
La1001 O1025 2.503 . S
La1001 O1026 2.521 . S
La1001 O1027 2.628 . S
La1001 O1028 2.554 . S
La1001 O1029 2.757 . S
La1001 O1030 2.470 . S
C1002 La1000 2.928 . S
C1002 C1003 1.503 1_655 S
C1002 O1020 1.261 . S
C1002 O1021 1.243 . S
C1003 C1002 1.503 1_455 S
C1003 C1004 1.394 . S
C1003 C1008 1.373 . S
C1004 C1003 1.394 . S
C1004 C1005 1.380 . S
C1004 H1032 0.930 . S
C1005 C1004 1.380 . S
C1005 C1006 1.376 . S
C1005 H1033 0.930 . S
C1006 C1005 1.376 . S
C1006 C1007 1.370 . S
C1007 C1006 1.370 . S
C1007 C1008 1.396 . S
C1007 H1034 0.929 . S
C1008 C1003 1.373 . S
C1008 C1007 1.396 . S
C1008 H1035 0.929 . S
C1009 O1022 1.240 . S
C1009 O1023 1.289 . S
C1010 O1024 1.258 . S
C1010 O1025 1.256 . S
C1011 La1001 2.928 . S
C1011 C1012 1.503 . S
C1011 O1026 1.261 . S
C1011 O1027 1.243 . S
C1012 C1011 1.503 . S
C1012 C1013 1.394 . S
C1012 C1017 1.373 . S
C1013 C1012 1.394 . S
C1013 C1014 1.380 . S
C1013 H1036 0.930 . S
C1014 C1013 1.380 . S
C1014 C1015 1.376 . S
C1014 H1037 0.930 . S
C1015 C1014 1.376 . S
C1015 C1016 1.370 . S
C1016 C1015 1.370 . S
C1016 C1017 1.396 . S
C1016 H1038 0.929 . S
C1017 C1012 1.373 . S
C1017 C1016 1.396 . S
C1017 H1039 0.929 . S
C1018 O1028 1.240 . S
C1018 O1029 1.289 . S
C1019 O1030 1.258 . S
C1019 O1031 1.256 . S
O1020 La1000 2.521 . S
O1020 C1002 1.261 . S
O1021 La1000 2.628 . S
O1021 C1002 1.243 . S
O1022 La1000 2.554 . S
O1022 C1009 1.240 . S
O1023 La1000 2.757 . S
O1023 La1001 2.482 . S
O1023 C1009 1.289 . S
O1024 La1000 2.470 . S
O1024 C1010 1.258 . S
O1025 La1001 2.503 . S
O1025 C1010 1.256 . S
O1026 La1001 2.521 . S
O1026 C1011 1.261 . S
O1027 La1001 2.628 . S
O1027 C1011 1.243 . S
O1028 La1001 2.554 . S
O1028 C1018 1.240 . S
O1029 La1000 2.482 . S
O1029 La1001 2.757 . S
O1029 C1018 1.289 . S
O1030 La1001 2.470 . S
O1030 C1019 1.258 . S
O1031 La1000 2.503 . S
O1031 C1019 1.256 . S
H1032 C1004 0.930 . S
H1033 C1005 0.930 . S
H1034 C1007 0.929 . S
H1035 C1008 0.929 . S
H1036 C1013 0.930 . S
H1037 C1014 0.930 . S
H1038 C1016 0.929 . S
H1039 C1017 0.929 . S
La1040 C1042 2.928 . S
La1040 O1060 2.521 . S
La1040 O1061 2.628 . S
La1040 O1062 2.554 . S
La1040 O1063 2.757 . S
La1040 O1064 2.470 . S
La1040 O1069 2.482 . S
La1040 O1071 2.503 . S
La1041 C1051 2.928 . S
La1041 O1063 2.482 . S
La1041 O1065 2.503 . S
La1041 O1066 2.521 . S
La1041 O1067 2.628 . S
La1041 O1068 2.554 . S
La1041 O1069 2.757 . S
La1041 O1070 2.470 . S
C1042 La1040 2.928 . S
C1042 C1043 1.503 . S
C1042 O1060 1.261 . S
C1042 O1061 1.243 . S
C1043 C1042 1.503 . S
C1043 C1044 1.394 . S
C1043 C1048 1.373 . S
C1044 C1043 1.394 . S
C1044 C1045 1.380 . S
C1044 H1072 0.930 . S
C1045 C1044 1.380 . S
C1045 C1046 1.376 . S
C1045 H1073 0.930 . S
C1046 C1045 1.376 . S
C1046 C1047 1.370 . S
C1047 C1046 1.370 . S
C1047 C1048 1.396 . S
C1047 H1074 0.929 . S
C1048 C1043 1.373 . S
C1048 C1047 1.396 . S
C1048 H1075 0.929 . S
C1049 O1062 1.240 . S
C1049 O1063 1.289 . S
C1050 O1064 1.258 . S
C1050 O1065 1.256 . S
C1051 La1041 2.928 . S
C1051 C1052 1.503 . S
C1051 O1066 1.261 . S
C1051 O1067 1.243 . S
C1052 C1051 1.503 . S
C1052 C1053 1.394 . S
C1052 C1057 1.373 . S
C1053 C1052 1.394 . S
C1053 C1054 1.380 . S
C1053 H1076 0.930 . S
C1054 C1053 1.380 . S
C1054 C1055 1.376 . S
C1054 H1077 0.930 . S
C1055 C1054 1.376 . S
C1055 C1056 1.370 . S
C1056 C1055 1.370 . S
C1056 C1057 1.396 . S
C1056 H1078 0.929 . S
C1057 C1052 1.373 . S
C1057 C1056 1.396 . S
C1057 H1079 0.929 . S
C1058 O1068 1.240 . S
C1058 O1069 1.289 . S
C1059 O1070 1.258 . S
C1059 O1071 1.256 . S
O1060 La1040 2.521 . S
O1060 C1042 1.261 . S
O1061 La1040 2.628 . S
O1061 C1042 1.243 . S
O1062 La1040 2.554 . S
O1062 C1049 1.240 . S
O1063 La1040 2.757 . S
O1063 La1041 2.482 . S
O1063 C1049 1.289 . S
O1064 La1040 2.470 . S
O1064 C1050 1.258 . S
O1065 La1041 2.503 . S
O1065 C1050 1.256 . S
O1066 La1041 2.521 . S
O1066 C1051 1.261 . S
O1067 La1041 2.628 . S
O1067 C1051 1.243 . S
O1068 La1041 2.554 . S
O1068 C1058 1.240 . S
O1069 La1040 2.482 . S
O1069 La1041 2.757 . S
O1069 C1058 1.289 . S
O1070 La1041 2.470 . S
O1070 C1059 1.258 . S
O1071 La1040 2.503 . S
O1071 C1059 1.256 . S
H1072 C1044 0.930 . S
H1073 C1045 0.930 . S
H1074 C1047 0.929 . S
H1075 C1048 0.929 . S
H1076 C1053 0.930 . S
H1077 C1054 0.930 . S
H1078 C1056 0.929 . S
H1079 C1057 0.929 . S
La1080 C1082 2.928 . S
La1080 O1100 2.521 . S
La1080 O1101 2.628 . S
La1080 O1102 2.554 . S
La1080 O1103 2.757 1_545 S
La1080 O1104 2.470 1_545 S
La1080 O1109 2.482 1_545 S
La1080 O1111 2.503 . S
La1081 C1091 2.928 . S
La1081 O1103 2.482 . S
La1081 O1105 2.503 . S
La1081 O1106 2.521 . S
La1081 O1107 2.628 . S
La1081 O1108 2.554 . S
La1081 O1109 2.757 . S
La1081 O1110 2.470 1_565 S
C1082 La1080 2.928 . S
C1082 C1083 1.503 1_655 S
C1082 O1100 1.261 . S
C1082 O1101 1.243 . S
C1083 C1082 1.503 1_455 S
C1083 C1084 1.394 . S
C1083 C1088 1.373 1_545 S
C1084 C1083 1.394 . S
C1084 C1085 1.380 . S
C1084 H1112 0.930 . S
C1085 C1084 1.380 . S
C1085 C1086 1.376 1_545 S
C1085 H1113 0.930 . S
C1086 C1085 1.376 1_565 S
C1086 C1087 1.370 . S
C1087 C1086 1.370 . S
C1087 C1088 1.396 . S
C1087 H1114 0.929 . S
C1088 C1083 1.373 1_565 S
C1088 C1087 1.396 . S
C1088 H1115 0.929 . S
C1089 O1102 1.240 1_565 S
C1089 O1103 1.289 . S
C1090 O1104 1.258 . S
C1090 O1105 1.256 . S
C1091 La1081 2.928 . S
C1091 C1092 1.503 . S
C1091 O1106 1.261 . S
C1091 O1107 1.243 . S
C1092 C1091 1.503 . S
C1092 C1093 1.394 . S
C1092 C1097 1.373 . S
C1093 C1092 1.394 . S
C1093 C1094 1.380 . S
C1093 H1116 0.930 . S
C1094 C1093 1.380 . S
C1094 C1095 1.376 . S
C1094 H1117 0.930 . S
C1095 C1094 1.376 . S
C1095 C1096 1.370 . S
C1096 C1095 1.370 . S
C1096 C1097 1.396 . S
C1096 H1118 0.929 . S
C1097 C1092 1.373 . S
C1097 C1096 1.396 . S
C1097 H1119 0.929 . S
C1098 O1108 1.240 . S
C1098 O1109 1.289 . S
C1099 O1110 1.258 . S
C1099 O1111 1.256 . S
O1100 La1080 2.521 . S
O1100 C1082 1.261 . S
O1101 La1080 2.628 . S
O1101 C1082 1.243 . S
O1102 La1080 2.554 . S
O1102 C1089 1.240 1_545 S
O1103 La1080 2.757 1_565 S
O1103 La1081 2.482 . S
O1103 C1089 1.289 . S
O1104 La1080 2.470 1_565 S
O1104 C1090 1.258 . S
O1105 La1081 2.503 . S
O1105 C1090 1.256 . S
O1106 La1081 2.521 . S
O1106 C1091 1.261 . S
O1107 La1081 2.628 . S
O1107 C1091 1.243 . S
O1108 La1081 2.554 . S
O1108 C1098 1.240 . S
O1109 La1080 2.482 1_565 S
O1109 La1081 2.757 . S
O1109 C1098 1.289 . S
O1110 La1081 2.470 1_545 S
O1110 C1099 1.258 . S
O1111 La1080 2.503 . S
O1111 C1099 1.256 . S
H1112 C1084 0.930 . S
H1113 C1085 0.930 . S
H1114 C1087 0.929 . S
H1115 C1088 0.929 . S
H1116 C1093 0.930 . S
H1117 C1094 0.930 . S
H1118 C1096 0.929 . S
H1119 C1097 0.929 . S
La1120 C1122 2.928 . S
La1120 O1140 2.521 . S
La1120 O1141 2.628 . S
La1120 O1142 2.554 . S
La1120 O1143 2.757 . S
La1120 O1144 2.470 1_545 S
La1120 O1149 2.482 . S
La1120 O1151 2.503 . S
La1121 C1131 2.928 . S
La1121 O1143 2.482 1_565 S
La1121 O1145 2.503 . S
La1121 O1146 2.521 . S
La1121 O1147 2.628 . S
La1121 O1148 2.554 . S
La1121 O1149 2.757 1_565 S
La1121 O1150 2.470 1_565 S
C1122 La1120 2.928 . S
C1122 C1123 1.503 . S
C1122 O1140 1.261 . S
C1122 O1141 1.243 . S
C1123 C1122 1.503 . S
C1123 C1124 1.394 . S
C1123 C1128 1.373 . S
C1124 C1123 1.394 . S
C1124 C1125 1.380 . S
C1124 H1152 0.930 . S
C1125 C1124 1.380 . S
C1125 C1126 1.376 . S
C1125 H1153 0.930 . S
C1126 C1125 1.376 . S
C1126 C1127 1.370 . S
C1127 C1126 1.370 . S
C1127 C1128 1.396 . S
C1127 H1154 0.929 . S
C1128 C1123 1.373 . S
C1128 C1127 1.396 . S
C1128 H1155 0.929 . S
C1129 O1142 1.240 . S
C1129 O1143 1.289 . S
C1130 O1144 1.258 . S
C1130 O1145 1.256 . S
C1131 La1121 2.928 . S
C1131 C1132 1.503 . S
C1131 O1146 1.261 . S
C1131 O1147 1.243 . S
C1132 C1131 1.503 . S
C1132 C1133 1.394 . S
C1132 C1137 1.373 1_565 S
C1133 C1132 1.394 . S
C1133 C1134 1.380 . S
C1133 H1156 0.930 . S
C1134 C1133 1.380 . S
C1134 C1135 1.376 1_565 S
C1134 H1157 0.930 . S
C1135 C1134 1.376 1_545 S
C1135 C1136 1.370 . S
C1136 C1135 1.370 . S
C1136 C1137 1.396 . S
C1136 H1158 0.929 . S
C1137 C1132 1.373 1_545 S
C1137 C1136 1.396 . S
C1137 H1159 0.929 . S
C1138 O1148 1.240 1_545 S
C1138 O1149 1.289 . S
C1139 O1150 1.258 . S
C1139 O1151 1.256 . S
O1140 La1120 2.521 . S
O1140 C1122 1.261 . S
O1141 La1120 2.628 . S
O1141 C1122 1.243 . S
O1142 La1120 2.554 . S
O1142 C1129 1.240 . S
O1143 La1120 2.757 . S
O1143 La1121 2.482 1_545 S
O1143 C1129 1.289 . S
O1144 La1120 2.470 1_565 S
O1144 C1130 1.258 . S
O1145 La1121 2.503 . S
O1145 C1130 1.256 . S
O1146 La1121 2.521 . S
O1146 C1131 1.261 . S
O1147 La1121 2.628 . S
O1147 C1131 1.243 . S
O1148 La1121 2.554 . S
O1148 C1138 1.240 1_565 S
O1149 La1120 2.482 . S
O1149 La1121 2.757 1_545 S
O1149 C1138 1.289 . S
O1150 La1121 2.470 1_545 S
O1150 C1139 1.258 . S
O1151 La1120 2.503 . S
O1151 C1139 1.256 . S
H1152 C1124 0.930 . S
H1153 C1125 0.930 . S
H1154 C1127 0.929 . S
H1155 C1128 0.929 . S
H1156 C1133 0.930 . S
H1157 C1134 0.930 . S
H1158 C1136 0.929 . S
H1159 C1137 0.929 . S
La1160 C1162 2.928 . S
La1160 O1180 2.521 . S
La1160 O1181 2.628 . S
La1160 O1182 2.554 . S
La1160 O1183 2.757 . S
La1160 O1184 2.470 . S
La1160 O1189 2.482 . S
La1160 O1191 2.503 . S
La1161 C1171 2.928 . S
La1161 O1183 2.482 . S
La1161 O1185 2.503 . S
La1161 O1186 2.521 . S
La1161 O1187 2.628 . S
La1161 O1188 2.554 . S
La1161 O1189 2.757 . S
La1161 O1190 2.470 . S
C1162 La1160 2.928 . S
C1162 C1163 1.503 . S
C1162 O1180 1.261 . S
C1162 O1181 1.243 . S
C1163 C1162 1.503 . S
C1163 C1164 1.394 . S
C1163 C1168 1.373 . S
C1164 C1163 1.394 . S
C1164 C1165 1.380 . S
C1164 H1192 0.930 . S
C1165 C1164 1.380 . S
C1165 C1166 1.376 . S
C1165 H1193 0.930 . S
C1166 C1165 1.376 . S
C1166 C1167 1.370 . S
C1167 C1166 1.370 . S
C1167 C1168 1.396 . S
C1167 H1194 0.929 . S
C1168 C1163 1.373 . S
C1168 C1167 1.396 . S
C1168 H1195 0.929 . S
C1169 O1182 1.240 . S
C1169 O1183 1.289 . S
C1170 O1184 1.258 . S
C1170 O1185 1.256 . S
C1171 La1161 2.928 . S
C1171 C1172 1.503 1_455 S
C1171 O1186 1.261 . S
C1171 O1187 1.243 . S
C1172 C1171 1.503 1_655 S
C1172 C1173 1.394 . S
C1172 C1177 1.373 . S
C1173 C1172 1.394 . S
C1173 C1174 1.380 . S
C1173 H1196 0.930 . S
C1174 C1173 1.380 . S
C1174 C1175 1.376 . S
C1174 H1197 0.930 . S
C1175 C1174 1.376 . S
C1175 C1176 1.370 . S
C1176 C1175 1.370 . S
C1176 C1177 1.396 . S
C1176 H1198 0.929 . S
C1177 C1172 1.373 . S
C1177 C1176 1.396 . S
C1177 H1199 0.929 . S
C1178 O1188 1.240 . S
C1178 O1189 1.289 . S
C1179 O1190 1.258 . S
C1179 O1191 1.256 . S
O1180 La1160 2.521 . S
O1180 C1162 1.261 . S
O1181 La1160 2.628 . S
O1181 C1162 1.243 . S
O1182 La1160 2.554 . S
O1182 C1169 1.240 . S
O1183 La1160 2.757 . S
O1183 La1161 2.482 . S
O1183 C1169 1.289 . S
O1184 La1160 2.470 . S
O1184 C1170 1.258 . S
O1185 La1161 2.503 . S
O1185 C1170 1.256 . S
O1186 La1161 2.521 . S
O1186 C1171 1.261 . S
O1187 La1161 2.628 . S
O1187 C1171 1.243 . S
O1188 La1161 2.554 . S
O1188 C1178 1.240 . S
O1189 La1160 2.482 . S
O1189 La1161 2.757 . S
O1189 C1178 1.289 . S
O1190 La1161 2.470 . S
O1190 C1179 1.258 . S
O1191 La1160 2.503 . S
O1191 C1179 1.256 . S
H1192 C1164 0.930 . S
H1193 C1165 0.930 . S
H1194 C1167 0.929 . S
H1195 C1168 0.929 . S
H1196 C1173 0.930 . S
H1197 C1174 0.930 . S
H1198 C1176 0.929 . S
H1199 C1177 0.929 . S
La1200 C1202 2.928 . S
La1200 O1220 2.521 . S
La1200 O1221 2.628 . S
La1200 O1222 2.554 . S
La1200 O1223 2.757 . S
La1200 O1224 2.470 . S
La1200 O1229 2.482 . S
La1200 O1231 2.503 . S
La1201 C1211 2.928 . S
La1201 O1223 2.482 . S
La1201 O1225 2.503 . S
La1201 O1226 2.521 . S
La1201 O1227 2.628 . S
La1201 O1228 2.554 . S
La1201 O1229 2.757 . S
La1201 O1230 2.470 . S
C1202 La1200 2.928 . S
C1202 C1203 1.503 . S
C1202 O1220 1.261 . S
C1202 O1221 1.243 . S
C1203 C1202 1.503 . S
C1203 C1204 1.394 . S
C1203 C1208 1.373 . S
C1204 C1203 1.394 . S
C1204 C1205 1.380 . S
C1204 H1232 0.930 . S
C1205 C1204 1.380 . S
C1205 C1206 1.376 . S
C1205 H1233 0.930 . S
C1206 C1205 1.376 . S
C1206 C1207 1.370 . S
C1207 C1206 1.370 . S
C1207 C1208 1.396 . S
C1207 H1234 0.929 . S
C1208 C1203 1.373 . S
C1208 C1207 1.396 . S
C1208 H1235 0.929 . S
C1209 O1222 1.240 . S
C1209 O1223 1.289 . S
C1210 O1224 1.258 . S
C1210 O1225 1.256 . S
C1211 La1201 2.928 . S
C1211 C1212 1.503 . S
C1211 O1226 1.261 . S
C1211 O1227 1.243 . S
C1212 C1211 1.503 . S
C1212 C1213 1.394 . S
C1212 C1217 1.373 . S
C1213 C1212 1.394 . S
C1213 C1214 1.380 . S
C1213 H1236 0.930 . S
C1214 C1213 1.380 . S
C1214 C1215 1.376 . S
C1214 H1237 0.930 . S
C1215 C1214 1.376 . S
C1215 C1216 1.370 . S
C1216 C1215 1.370 . S
C1216 C1217 1.396 . S
C1216 H1238 0.929 . S
C1217 C1212 1.373 . S
C1217 C1216 1.396 . S
C1217 H1239 0.929 . S
C1218 O1228 1.240 . S
C1218 O1229 1.289 . S
C1219 O1230 1.258 . S
C1219 O1231 1.256 . S
O1220 La1200 2.521 . S
O1220 C1202 1.261 . S
O1221 La1200 2.628 . S
O1221 C1202 1.243 . S
O1222 La1200 2.554 . S
O1222 C1209 1.240 . S
O1223 La1200 2.757 . S
O1223 La1201 2.482 . S
O1223 C1209 1.289 . S
O1224 La1200 2.470 . S
O1224 C1210 1.258 . S
O1225 La1201 2.503 . S
O1225 C1210 1.256 . S
O1226 La1201 2.521 . S
O1226 C1211 1.261 . S
O1227 La1201 2.628 . S
O1227 C1211 1.243 . S
O1228 La1201 2.554 . S
O1228 C1218 1.240 . S
O1229 La1200 2.482 . S
O1229 La1201 2.757 . S
O1229 C1218 1.289 . S
O1230 La1201 2.470 . S
O1230 C1219 1.258 . S
O1231 La1200 2.503 . S
O1231 C1219 1.256 . S
H1232 C1204 0.930 . S
H1233 C1205 0.930 . S
H1234 C1207 0.929 . S
H1235 C1208 0.929 . S
H1236 C1213 0.930 . S
H1237 C1214 0.930 . S
H1238 C1216 0.929 . S
H1239 C1217 0.929 . S
La1240 C1242 2.928 . S
La1240 O1260 2.521 . S
La1240 O1261 2.628 . S
La1240 O1262 2.554 . S
La1240 O1263 2.757 . S
La1240 O1264 2.470 1_545 S
La1240 O1269 2.482 . S
La1240 O1271 2.503 . S
La1241 C1251 2.928 . S
La1241 O1263 2.482 1_565 S
La1241 O1265 2.503 . S
La1241 O1266 2.521 . S
La1241 O1267 2.628 . S
La1241 O1268 2.554 . S
La1241 O1269 2.757 1_565 S
La1241 O1270 2.470 1_565 S
C1242 La1240 2.928 . S
C1242 C1243 1.503 . S
C1242 O1260 1.261 . S
C1242 O1261 1.243 . S
C1243 C1242 1.503 . S
C1243 C1244 1.394 . S
C1243 C1248 1.373 . S
C1244 C1243 1.394 . S
C1244 C1245 1.380 . S
C1244 H1272 0.930 . S
C1245 C1244 1.380 . S
C1245 C1246 1.376 . S
C1245 H1273 0.930 . S
C1246 C1245 1.376 . S
C1246 C1247 1.370 . S
C1247 C1246 1.370 . S
C1247 C1248 1.396 . S
C1247 H1274 0.929 . S
C1248 C1243 1.373 . S
C1248 C1247 1.396 . S
C1248 H1275 0.929 . S
C1249 O1262 1.240 . S
C1249 O1263 1.289 . S
C1250 O1264 1.258 . S
C1250 O1265 1.256 . S
C1251 La1241 2.928 . S
C1251 C1252 1.503 1_455 S
C1251 O1266 1.261 . S
C1251 O1267 1.243 . S
C1252 C1251 1.503 1_655 S
C1252 C1253 1.394 . S
C1252 C1257 1.373 1_565 S
C1253 C1252 1.394 . S
C1253 C1254 1.380 . S
C1253 H1276 0.930 . S
C1254 C1253 1.380 . S
C1254 C1255 1.376 1_565 S
C1254 H1277 0.930 . S
C1255 C1254 1.376 1_545 S
C1255 C1256 1.370 . S
C1256 C1255 1.370 . S
C1256 C1257 1.396 . S
C1256 H1278 0.929 . S
C1257 C1252 1.373 1_545 S
C1257 C1256 1.396 . S
C1257 H1279 0.929 . S
C1258 O1268 1.240 1_545 S
C1258 O1269 1.289 . S
C1259 O1270 1.258 . S
C1259 O1271 1.256 . S
O1260 La1240 2.521 . S
O1260 C1242 1.261 . S
O1261 La1240 2.628 . S
O1261 C1242 1.243 . S
O1262 La1240 2.554 . S
O1262 C1249 1.240 . S
O1263 La1240 2.757 . S
O1263 La1241 2.482 1_545 S
O1263 C1249 1.289 . S
O1264 La1240 2.470 1_565 S
O1264 C1250 1.258 . S
O1265 La1241 2.503 . S
O1265 C1250 1.256 . S
O1266 La1241 2.521 . S
O1266 C1251 1.261 . S
O1267 La1241 2.628 . S
O1267 C1251 1.243 . S
O1268 La1241 2.554 . S
O1268 C1258 1.240 1_565 S
O1269 La1240 2.482 . S
O1269 La1241 2.757 1_545 S
O1269 C1258 1.289 . S
O1270 La1241 2.470 1_545 S
O1270 C1259 1.258 . S
O1271 La1240 2.503 . S
O1271 C1259 1.256 . S
H1272 C1244 0.930 . S
H1273 C1245 0.930 . S
H1274 C1247 0.929 . S
H1275 C1248 0.929 . S
H1276 C1253 0.930 . S
H1277 C1254 0.930 . S
H1278 C1256 0.929 . S
H1279 C1257 0.929 . S
C10 C1010 2.637 . S
C970 C50 2.637 . S
C1090 C90 2.637 . S
C130 C1050 2.637 . S
C179 C1179 2.637 . S
C219 C1139 2.637 . S
C259 C1259 2.637 . S
C1219 C299 2.637 . S
C330 C690 2.637 . S
C370 C650 2.637 . S
C410 C770 2.637 . S
C730 C450 2.637 . S
C499 C859 2.637 . S
C539 C819 2.637 . S
C939 C579 2.637 . S
C619 C899 2.637 . S
C9 C129 2.927 . S
C49 C89 2.927 . S
C298 C178 2.927 . S
C258 C218 2.927 . S
C329 C449 2.927 . S
C369 C409 2.927 . S
C498 C618 2.927 . S
C578 C538 2.927 . S
C649 C769 2.927 . S
C689 C729 2.927 . S
C938 C818 2.927 . S
C858 C898 2.927 . S
C1089 C969 2.927 . S
C1009 C1049 2.927 . S
C1258 C1138 2.927 . S
C1218 C1178 2.927 . S
C59 C19 1.541 . S
C99 C139 1.541 . S
C210 C170 1.541 . S
C290 C250 1.541 . S
C339 C379 1.543 . S
C419 C459 1.543 . S
C530 C490 1.543 . S
C570 C610 1.543 . S
C659 C699 1.541 . S
C779 C739 1.541 . S
C810 C850 1.541 . S
C890 C930 1.541 . S
C979 C1019 1.543 . S
C1059 C1099 1.543 . S
C1170 C1130 1.543 . S
C1210 C1250 1.543 . S
C6 C15 2.795 . S
C46 C55 2.795 . S
C86 C95 2.795 . S
C135 C126 2.795 . S
C166 C175 2.795 . S
C215 C206 2.795 . S
C246 C255 2.795 . S
C286 C295 2.795 . S
C335 C326 2.795 . S
C366 C375 2.795 . S
C406 C415 2.795 . S
C455 C446 2.795 . S
C486 C495 2.795 . S
C535 C526 2.795 . S
C575 C566 2.795 . S
C606 C615 2.795 . S
C646 C655 2.795 1_455 S
C695 C686 2.795 . S
C735 C726 2.795 1_655 S
C766 C775 2.795 . S
C815 C806 2.795 1_655 S
C855 C846 2.795 . S
C886 C895 2.795 1_455 S
C935 C926 2.795 . S
C975 C966 2.795 1_655 S
C1006 C1015 2.795 . S
C1055 C1046 2.795 1_655 S
C1095 C1086 2.795 . S
C1135 C1126 2.795 1_655 S
C1175 C1166 2.795 . S
C1206 C1215 2.795 1_455 S
C1246 C1255 2.795 . S
C18 C169 1.618 1_454 S
C1169 C58 1.618 1_556 S
C569 C98 1.618 1_655 S
C138 C929 1.618 . S
C209 C1018 1.618 1_556 S
C249 C418 1.618 1_655 S
C289 C778 1.618 . S
C338 C489 1.619 1_465 S
C849 C378 1.618 . S
C1249 C458 1.619 1_545 S
C529 C698 1.618 . S
C1098 C609 1.619 1_565 S
C658 C809 1.618 . S
C1209 C738 1.618 . S
C889 C1058 1.618 . S
C978 C1129 1.619 1_564 S
