# Generated by pormake.
# Topology wgl, (5)-cn, num edge types: 1
# Building blocks:
#     Node 0, Type 0, BuildingBlock: BEQFEK_clean_sbu_0, # of connection points: 5
#     Node 1, Type 0, BuildingBlock: BEQFEK_clean_sbu_0, # of connection points: 5
#     Node 2, Type 0, BuildingBlock: BEQFEK_clean_sbu_0, # of connection points: 5
#     Node 3, Type 0, BuildingBlock: BEQFEK_clean_sbu_0, # of connection points: 5
#     Node 4, Type 0, BuildingBlock: BEQFEK_clean_sbu_0, # of connection points: 5
#     Node 5, Type 0, BuildingBlock: BEQFEK_clean_sbu_0, # of connection points: 5
#     Node 6, Type 0, BuildingBlock: BEQFEK_clean_sbu_0, # of connection points: 5
#     Node 7, Type 0, BuildingBlock: BEQFEK_clean_sbu_0, # of connection points: 5
#     Node 8, Type 0, BuildingBlock: BEQFEK_clean_sbu_0, # of connection points: 5
#     Node 9, Type 0, BuildingBlock: BEQFEK_clean_sbu_0, # of connection points: 5
#     Node 10, Type 0, BuildingBlock: BEQFEK_clean_sbu_0, # of connection points: 5
#     Node 11, Type 0, BuildingBlock: BEQFEK_clean_sbu_0, # of connection points: 5
#     Node 12, Type 0, BuildingBlock: BEQFEK_clean_sbu_0, # of connection points: 5
#     Node 13, Type 0, BuildingBlock: BEQFEK_clean_sbu_0, # of connection points: 5
#     Node 14, Type 0, BuildingBlock: BEQFEK_clean_sbu_0, # of connection points: 5
#     Node 15, Type 0, BuildingBlock: BEQFEK_clean_sbu_0, # of connection points: 5
#     Node 16, Type 0, BuildingBlock: BEQFEK_clean_sbu_0, # of connection points: 5
#     Node 17, Type 0, BuildingBlock: BEQFEK_clean_sbu_0, # of connection points: 5
#     Node 18, Type 0, BuildingBlock: BEQFEK_clean_sbu_0, # of connection points: 5
#     Node 19, Type 0, BuildingBlock: BEQFEK_clean_sbu_0, # of connection points: 5
#     Node 20, Type 0, BuildingBlock: BEQFEK_clean_sbu_0, # of connection points: 5
#     Node 21, Type 0, BuildingBlock: BEQFEK_clean_sbu_0, # of connection points: 5
#     Node 22, Type 0, BuildingBlock: BEQFEK_clean_sbu_0, # of connection points: 5
#     Node 23, Type 0, BuildingBlock: BEQFEK_clean_sbu_0, # of connection points: 5
#     Node 24, Type 0, BuildingBlock: BEQFEK_clean_sbu_0, # of connection points: 5
#     Node 25, Type 0, BuildingBlock: BEQFEK_clean_sbu_0, # of connection points: 5
#     Node 26, Type 0, BuildingBlock: BEQFEK_clean_sbu_0, # of connection points: 5
#     Node 27, Type 0, BuildingBlock: BEQFEK_clean_sbu_0, # of connection points: 5
#     Node 28, Type 0, BuildingBlock: BEQFEK_clean_sbu_0, # of connection points: 5
#     Node 29, Type 0, BuildingBlock: BEQFEK_clean_sbu_0, # of connection points: 5
#     Node 30, Type 0, BuildingBlock: BEQFEK_clean_sbu_0, # of connection points: 5
#     Node 31, Type 0, BuildingBlock: BEQFEK_clean_sbu_0, # of connection points: 5
#     Edge 32, Type (0, 0), BuildingBlock: AJUNOK_clean_linker_0, # of connection points: 2
#     Edge 33, Type (0, 0), BuildingBlock: AJUNOK_clean_linker_0, # of connection points: 2
#     Edge 34, Type (0, 0), BuildingBlock: AJUNOK_clean_linker_0, # of connection points: 2
#     Edge 35, Type (0, 0), BuildingBlock: AJUNOK_clean_linker_0, # of connection points: 2
#     Edge 36, Type (0, 0), BuildingBlock: AJUNOK_clean_linker_0, # of connection points: 2
#     Edge 37, Type (0, 0), BuildingBlock: AJUNOK_clean_linker_0, # of connection points: 2
#     Edge 38, Type (0, 0), BuildingBlock: AJUNOK_clean_linker_0, # of connection points: 2
#     Edge 39, Type (0, 0), BuildingBlock: AJUNOK_clean_linker_0, # of connection points: 2
#     Edge 40, Type (0, 0), BuildingBlock: AJUNOK_clean_linker_0, # of connection points: 2
#     Edge 41, Type (0, 0), BuildingBlock: AJUNOK_clean_linker_0, # of connection points: 2
#     Edge 42, Type (0, 0), BuildingBlock: AJUNOK_clean_linker_0, # of connection points: 2
#     Edge 43, Type (0, 0), BuildingBlock: AJUNOK_clean_linker_0, # of connection points: 2
#     Edge 44, Type (0, 0), BuildingBlock: AJUNOK_clean_linker_0, # of connection points: 2
#     Edge 45, Type (0, 0), BuildingBlock: AJUNOK_clean_linker_0, # of connection points: 2
#     Edge 46, Type (0, 0), BuildingBlock: AJUNOK_clean_linker_0, # of connection points: 2
#     Edge 47, Type (0, 0), BuildingBlock: AJUNOK_clean_linker_0, # of connection points: 2
#     Edge 48, Type (0, 0), BuildingBlock: AJUNOK_clean_linker_0, # of connection points: 2
#     Edge 49, Type (0, 0), BuildingBlock: AJUNOK_clean_linker_0, # of connection points: 2
#     Edge 50, Type (0, 0), BuildingBlock: AJUNOK_clean_linker_0, # of connection points: 2
#     Edge 51, Type (0, 0), BuildingBlock: AJUNOK_clean_linker_0, # of connection points: 2
#     Edge 52, Type (0, 0), BuildingBlock: AJUNOK_clean_linker_0, # of connection points: 2
#     Edge 53, Type (0, 0), BuildingBlock: AJUNOK_clean_linker_0, # of connection points: 2
#     Edge 54, Type (0, 0), BuildingBlock: AJUNOK_clean_linker_0, # of connection points: 2
#     Edge 55, Type (0, 0), BuildingBlock: AJUNOK_clean_linker_0, # of connection points: 2
#     Edge 56, Type (0, 0), BuildingBlock: AJUNOK_clean_linker_0, # of connection points: 2
#     Edge 57, Type (0, 0), BuildingBlock: AJUNOK_clean_linker_0, # of connection points: 2
#     Edge 58, Type (0, 0), BuildingBlock: AJUNOK_clean_linker_0, # of connection points: 2
#     Edge 59, Type (0, 0), BuildingBlock: AJUNOK_clean_linker_0, # of connection points: 2
#     Edge 60, Type (0, 0), BuildingBlock: AJUNOK_clean_linker_0, # of connection points: 2
#     Edge 61, Type (0, 0), BuildingBlock: AJUNOK_clean_linker_0, # of connection points: 2
#     Edge 62, Type (0, 0), BuildingBlock: AJUNOK_clean_linker_0, # of connection points: 2
#     Edge 63, Type (0, 0), BuildingBlock: AJUNOK_clean_linker_0, # of connection points: 2
#     Edge 64, Type (0, 0), BuildingBlock: AJUNOK_clean_linker_0, # of connection points: 2
#     Edge 65, Type (0, 0), BuildingBlock: AJUNOK_clean_linker_0, # of connection points: 2
#     Edge 66, Type (0, 0), BuildingBlock: AJUNOK_clean_linker_0, # of connection points: 2
#     Edge 67, Type (0, 0), BuildingBlock: AJUNOK_clean_linker_0, # of connection points: 2
#     Edge 68, Type (0, 0), BuildingBlock: AJUNOK_clean_linker_0, # of connection points: 2
#     Edge 69, Type (0, 0), BuildingBlock: AJUNOK_clean_linker_0, # of connection points: 2
#     Edge 70, Type (0, 0), BuildingBlock: AJUNOK_clean_linker_0, # of connection points: 2
#     Edge 71, Type (0, 0), BuildingBlock: AJUNOK_clean_linker_0, # of connection points: 2
#     Edge 72, Type (0, 0), BuildingBlock: AJUNOK_clean_linker_0, # of connection points: 2
#     Edge 73, Type (0, 0), BuildingBlock: AJUNOK_clean_linker_0, # of connection points: 2
#     Edge 74, Type (0, 0), BuildingBlock: AJUNOK_clean_linker_0, # of connection points: 2
#     Edge 75, Type (0, 0), BuildingBlock: AJUNOK_clean_linker_0, # of connection points: 2
#     Edge 76, Type (0, 0), BuildingBlock: AJUNOK_clean_linker_0, # of connection points: 2
#     Edge 77, Type (0, 0), BuildingBlock: AJUNOK_clean_linker_0, # of connection points: 2
#     Edge 78, Type (0, 0), BuildingBlock: AJUNOK_clean_linker_0, # of connection points: 2
#     Edge 79, Type (0, 0), BuildingBlock: AJUNOK_clean_linker_0, # of connection points: 2
#     Edge 80, Type (0, 0), BuildingBlock: AJUNOK_clean_linker_0, # of connection points: 2
#     Edge 81, Type (0, 0), BuildingBlock: AJUNOK_clean_linker_0, # of connection points: 2
#     Edge 82, Type (0, 0), BuildingBlock: AJUNOK_clean_linker_0, # of connection points: 2
#     Edge 83, Type (0, 0), BuildingBlock: AJUNOK_clean_linker_0, # of connection points: 2
#     Edge 84, Type (0, 0), BuildingBlock: AJUNOK_clean_linker_0, # of connection points: 2
#     Edge 85, Type (0, 0), BuildingBlock: AJUNOK_clean_linker_0, # of connection points: 2
#     Edge 86, Type (0, 0), BuildingBlock: AJUNOK_clean_linker_0, # of connection points: 2
#     Edge 87, Type (0, 0), BuildingBlock: AJUNOK_clean_linker_0, # of connection points: 2
#     Edge 88, Type (0, 0), BuildingBlock: AJUNOK_clean_linker_0, # of connection points: 2
#     Edge 89, Type (0, 0), BuildingBlock: AJUNOK_clean_linker_0, # of connection points: 2
#     Edge 90, Type (0, 0), BuildingBlock: AJUNOK_clean_linker_0, # of connection points: 2
#     Edge 91, Type (0, 0), BuildingBlock: AJUNOK_clean_linker_0, # of connection points: 2
#     Edge 92, Type (0, 0), BuildingBlock: AJUNOK_clean_linker_0, # of connection points: 2
#     Edge 93, Type (0, 0), BuildingBlock: AJUNOK_clean_linker_0, # of connection points: 2
#     Edge 94, Type (0, 0), BuildingBlock: AJUNOK_clean_linker_0, # of connection points: 2
#     Edge 95, Type (0, 0), BuildingBlock: AJUNOK_clean_linker_0, # of connection points: 2
#     Edge 96, Type (0, 0), BuildingBlock: AJUNOK_clean_linker_0, # of connection points: 2
#     Edge 97, Type (0, 0), BuildingBlock: AJUNOK_clean_linker_0, # of connection points: 2
#     Edge 98, Type (0, 0), BuildingBlock: AJUNOK_clean_linker_0, # of connection points: 2
#     Edge 99, Type (0, 0), BuildingBlock: AJUNOK_clean_linker_0, # of connection points: 2
#     Edge 100, Type (0, 0), BuildingBlock: AJUNOK_clean_linker_0, # of connection points: 2
#     Edge 101, Type (0, 0), BuildingBlock: AJUNOK_clean_linker_0, # of connection points: 2
#     Edge 102, Type (0, 0), BuildingBlock: AJUNOK_clean_linker_0, # of connection points: 2
#     Edge 103, Type (0, 0), BuildingBlock: AJUNOK_clean_linker_0, # of connection points: 2
#     Edge 104, Type (0, 0), BuildingBlock: AJUNOK_clean_linker_0, # of connection points: 2
#     Edge 105, Type (0, 0), BuildingBlock: AJUNOK_clean_linker_0, # of connection points: 2
#     Edge 106, Type (0, 0), BuildingBlock: AJUNOK_clean_linker_0, # of connection points: 2
#     Edge 107, Type (0, 0), BuildingBlock: AJUNOK_clean_linker_0, # of connection points: 2
#     Edge 108, Type (0, 0), BuildingBlock: AJUNOK_clean_linker_0, # of connection points: 2
#     Edge 109, Type (0, 0), BuildingBlock: AJUNOK_clean_linker_0, # of connection points: 2
#     Edge 110, Type (0, 0), BuildingBlock: AJUNOK_clean_linker_0, # of connection points: 2
#     Edge 111, Type (0, 0), BuildingBlock: AJUNOK_clean_linker_0, # of connection points: 2
# Relax obj value: 0.083
# Max RMSD: 0.105
# Mean RMSD: 0.105
data_MOF--net-wgl--node1-BEQFEK_clean_sbu_0--edge1-AJUNOK_clean_linker_0
_symmetry_space_group_name_H-M    P1
_symmetry_Int_Tables_number       1
_symmetry_cell_setting            triclinic
loop_
_symmetry_equiv_pos_as_xyz
'x, y, z'
_cell_length_a     44.455035
_cell_length_b     44.438693
_cell_length_c     43.567429
_cell_angle_alpha  89.963257
_cell_angle_beta   89.974654
_cell_angle_gamma 90.007547
loop_
_atom_site_label
_atom_site_type_symbol
_atom_site_fract_x
_atom_site_fract_y
_atom_site_fract_z
_atom_type_partial_charge
Co0 Co 0.32676 0.26344 0.13233 0.0
Co1 Co 0.28696 0.3202 0.13904 0.0
C2 C 0.2829 0.28304 0.08225 0.0
O3 O 0.30214 0.26378 0.09206 0.0
O4 O 0.2759 0.30589 0.09828 0.0
C5 C 0.3424 0.19944 0.13529 0.0
O6 O 0.31372 0.19442 0.13013 0.0
C7 C 0.2361 0.36167 0.14124 0.0
C8 C 0.25175 0.39333 0.17705 0.0
C9 C 0.22779 0.38679 0.15793 0.0
N10 N 0.2636 0.35339 0.15056 0.0
N11 N 0.27295 0.37248 0.17174 0.0
C12 C 0.21764 0.34445 0.11852 0.0
H13 H 0.22203 0.31999 0.12091 0.0
H14 H 0.19328 0.34893 0.1217 0.0
H15 H 0.22426 0.35132 0.09497 0.0
C16 C 0.29695 0.25049 0.19385 0.0
N17 N 0.30075 0.26651 0.16768 0.0
N18 N 0.28246 0.28977 0.1685 0.0
C19 C 0.26573 0.28868 0.19421 0.0
C20 C 0.2746 0.26416 0.21141 0.0
C21 C 0.31624 0.22452 0.20333 0.0
H22 H 0.3397 0.2281 0.1955 0.0
H23 H 0.30749 0.20366 0.1926 0.0
H24 H 0.31596 0.22153 0.22862 0.0
O25 O 0.35733 0.29687 0.13381 0.0
O26 O 0.32776 0.33626 0.13958 0.0
H27 H 0.25056 0.33128 0.21103 0.0
H28 H 0.22547 0.30058 0.21944 0.0
C29 C 0.24086 0.31013 0.2019 0.0
H30 H 0.22756 0.31515 0.18107 0.0
H31 H 0.29367 0.37095 0.18291 0.0
O32 O 0.35179 0.22641 0.13596 0.0
C33 C 0.35389 0.32509 0.13752 0.0
Co34 Co 0.99271 0.07862 0.38238 0.0
Co35 Co 0.93823 0.0352 0.38604 0.0
C36 C 0.97655 0.03358 0.33091 0.0
O37 O 0.9928 0.05508 0.34153 0.0
O38 O 0.95421 0.02318 0.34581 0.0
C39 C 0.05636 0.09483 0.38602 0.0
O40 O 0.06149 0.06627 0.38026 0.0
C41 C 0.89061 0.9888 0.38762 0.0
C42 C 0.86389 0.0066 0.42653 0.0
C43 C 0.86491 0.98387 0.40493 0.0
N44 N 0.90425 0.01339 0.39876 0.0
N45 N 0.88819 0.02387 0.42194 0.0
C46 C 0.90097 0.97215 0.3597 0.0
H47 H 0.90624 0.98842 0.34115 0.0
H48 H 0.92198 0.95982 0.36525 0.0
H49 H 0.88374 0.95604 0.3514 0.0
C50 C 0.00545 0.04788 0.44335 0.0
N51 N 0.98997 0.05154 0.41686 0.0
N52 N 0.96808 0.03164 0.41628 0.0
C53 C 0.96979 0.01383 0.44123 0.0
C54 C 0.99321 0.0237 0.45944 0.0
C55 C 0.03085 0.06755 0.45355 0.0
H56 H 0.05181 0.0601 0.44204 0.0
H57 H 0.03442 0.066 0.4787 0.0
H58 H 0.02638 0.09126 0.447 0.0
O59 O 0.95887 0.10832 0.3842 0.0
O60 O 0.92143 0.07599 0.38519 0.0
H61 H 0.92815 0.99837 0.45997 0.0
H62 H 0.95845 0.97218 0.46431 0.0
C63 C 0.94829 0.98888 0.44852 0.0
H64 H 0.94139 0.97724 0.42717 0.0
H65 H 0.8937 0.04316 0.43441 0.0
O66 O 0.02936 0.10412 0.38678 0.0
C67 C 0.9308 0.10289 0.38524 0.0
Co68 Co 0.17943 0.74036 0.63176 0.0
Co69 Co 0.21987 0.68392 0.64089 0.0
C70 C 0.22378 0.71913 0.58253 0.0
O71 O 0.20413 0.73853 0.59129 0.0
O72 O 0.23131 0.69742 0.59995 0.0
C73 C 0.16133 0.80474 0.63205 0.0
O74 O 0.18931 0.81148 0.62518 0.0
C75 C 0.26768 0.63767 0.64601 0.0
C76 C 0.24607 0.60791 0.68033 0.0
C77 C 0.2713 0.61103 0.66209 0.0
N78 N 0.24132 0.64985 0.6545 0.0
N79 N 0.22868 0.63204 0.67512 0.0
C80 C 0.28819 0.65038 0.62204 0.0
H81 H 0.2766 0.66733 0.6078 0.0
H82 H 0.30752 0.66148 0.63347 0.0
H83 H 0.2971 0.63214 0.60719 0.0
C84 C 0.20933 0.75537 0.69285 0.0
N85 N 0.20546 0.73832 0.6674 0.0
N86 N 0.22378 0.71514 0.66926 0.0
C87 C 0.24061 0.71727 0.69481 0.0
C88 C 0.23198 0.74265 0.71075 0.0
C89 C 0.19104 0.78258 0.70055 0.0
H90 H 0.19912 0.80184 0.68662 0.0
H91 H 0.19321 0.7886 0.72516 0.0
H92 H 0.16705 0.77851 0.69491 0.0
O93 O 0.14861 0.70692 0.63364 0.0
O94 O 0.17904 0.66845 0.64028 0.0
H95 H 0.25105 0.67408 0.71352 0.0
H96 H 0.27769 0.70273 0.72365 0.0
C97 C 0.2631 0.69423 0.70494 0.0
H98 H 0.27743 0.68762 0.68525 0.0
H99 H 0.20781 0.63613 0.68529 0.0
O100 O 0.1539 0.77725 0.63466 0.0
C101 C 0.15272 0.6788 0.63741 0.0
Co102 Co 0.51429 0.92855 0.88319 0.0
Co103 Co 0.5713 0.9683 0.89116 0.0
C104 C 0.53577 0.97218 0.83323 0.0
O105 O 0.51627 0.95288 0.84254 0.0
O106 O 0.55788 0.97967 0.85014 0.0
C107 C 0.44997 0.91307 0.88574 0.0
O108 O 0.44496 0.94191 0.88152 0.0
C109 C 0.61683 0.01633 0.89483 0.0
C110 C 0.645 0.99838 0.93257 0.0
C111 C 0.64202 0.02227 0.91248 0.0
N112 N 0.605 0.99027 0.90462 0.0
N113 N 0.62191 0.97969 0.92712 0.0
C114 C 0.60529 0.0337 0.86786 0.0
H115 H 0.60086 0.01812 0.84863 0.0
H116 H 0.58368 0.04458 0.87412 0.0
H117 H 0.62153 0.05104 0.86009 0.0
C118 C 0.50055 0.95889 0.94444 0.0
N119 N 0.51689 0.95479 0.91852 0.0
N120 N 0.54012 0.97311 0.9195 0.0
C121 C 0.53862 0.99027 0.94484 0.0
C122 C 0.51395 0.98155 0.96186 0.0
C123 C 0.47461 0.93956 0.95393 0.0
H124 H 0.47805 0.91615 0.94585 0.0
H125 H 0.45369 0.94849 0.94349 0.0
H126 H 0.47184 0.93961 0.97925 0.0
O127 O 0.54727 0.89758 0.88572 0.0
O128 O 0.58658 0.92716 0.89177 0.0
H129 H 0.58025 0.00632 0.96324 0.0
H130 H 0.54925 0.03187 0.96818 0.0
C131 C 0.55975 0.01551 0.9522 0.0
H132 H 0.56615 0.02752 0.93089 0.0
H133 H 0.61775 0.95948 0.93862 0.0
O134 O 0.47694 0.90364 0.886 0.0
C135 C 0.57542 0.90102 0.88977 0.0
Co136 Co 0.32539 0.74136 0.41161 0.0
Co137 Co 0.28531 0.68497 0.40307 0.0
C138 C 0.28211 0.71996 0.46154 0.0
O139 O 0.30134 0.73952 0.45226 0.0
O140 O 0.27448 0.69793 0.44457 0.0
C141 C 0.34406 0.80538 0.41098 0.0
O142 O 0.31611 0.81244 0.41766 0.0
C143 C 0.2372 0.63989 0.4008 0.0
C144 C 0.25369 0.61153 0.3625 0.0
C145 C 0.23064 0.61459 0.38354 0.0
N146 N 0.26281 0.65167 0.38989 0.0
N147 N 0.27256 0.63466 0.36708 0.0
C148 C 0.22139 0.6512 0.42885 0.0
H149 H 0.23748 0.65176 0.44826 0.0
H150 H 0.21363 0.6746 0.42476 0.0
H151 H 0.20207 0.6368 0.43538 0.0
C152 C 0.295 0.75664 0.35105 0.0
N153 N 0.29896 0.73963 0.37651 0.0
N154 N 0.28041 0.71661 0.37503 0.0
C155 C 0.26314 0.719 0.34979 0.0
C156 C 0.27193 0.74418 0.33357 0.0
C157 C 0.31383 0.78332 0.34274 0.0
H158 H 0.33774 0.77888 0.34842 0.0
H159 H 0.30615 0.80301 0.35625 0.0
H160 H 0.31172 0.7889 0.31801 0.0
O161 O 0.35589 0.70806 0.40887 0.0
O162 O 0.32619 0.66904 0.40189 0.0
H163 H 0.2514 0.67691 0.32938 0.0
H164 H 0.22421 0.70602 0.32295 0.0
C165 C 0.23999 0.69645 0.34006 0.0
H166 H 0.22694 0.68873 0.36024 0.0
H167 H 0.29237 0.63871 0.35487 0.0
O168 O 0.35123 0.77784 0.40857 0.0
C169 C 0.35236 0.68001 0.40428 0.0
Co170 Co 0.51437 0.07668 0.66347 0.0
Co171 Co 0.56939 0.03461 0.65451 0.0
C172 C 0.53483 0.03098 0.71252 0.0
O173 O 0.51622 0.05142 0.70378 0.0
O174 O 0.55621 0.02249 0.69515 0.0
C175 C 0.45052 0.09239 0.65988 0.0
O176 O 0.44579 0.0633 0.66217 0.0
C177 C 0.61479 0.98677 0.64921 0.0
C178 C 0.64147 0.00477 0.61034 0.0
C179 C 0.63945 0.98102 0.63072 0.0
N180 N 0.60235 0.01259 0.63965 0.0
N181 N 0.61834 0.02321 0.61647 0.0
C182 C 0.60466 0.96982 0.67705 0.0
H183 H 0.60108 0.98575 0.69619 0.0
H184 H 0.58282 0.95875 0.6721 0.0
H185 H 0.62134 0.9527 0.68433 0.0
C186 C 0.50033 0.04906 0.60076 0.0
N187 N 0.51606 0.05135 0.62732 0.0
N188 N 0.53805 0.0316 0.6264 0.0
C189 C 0.53618 0.0152 0.60059 0.0
C190 C 0.51284 0.02615 0.58303 0.0
C191 C 0.4759 0.07013 0.59103 0.0
H192 H 0.47985 0.09285 0.60073 0.0
H193 H 0.45401 0.06155 0.59956 0.0
H194 H 0.47465 0.07161 0.56562 0.0
O195 O 0.54825 0.10683 0.66169 0.0
O196 O 0.58582 0.07518 0.6554 0.0
H197 H 0.57668 0.99614 0.58232 0.0
H198 H 0.54394 0.97304 0.57724 0.0
C199 C 0.55555 0.98853 0.59333 0.0
H200 H 0.56109 0.97614 0.61468 0.0
H201 H 0.61361 0.04333 0.60505 0.0
O202 O 0.47736 0.10212 0.66132 0.0
C203 C 0.57624 0.10184 0.65807 0.0
Co204 Co 0.1803 0.26211 0.91172 0.0
Co205 Co 0.22036 0.31893 0.90504 0.0
C206 C 0.22414 0.28223 0.96196 0.0
O207 O 0.20479 0.26305 0.95213 0.0
O208 O 0.23154 0.30499 0.9459 0.0
C209 C 0.16437 0.19793 0.90818 0.0
O210 O 0.19311 0.19255 0.91252 0.0
C211 C 0.26737 0.36526 0.90374 0.0
C212 C 0.25167 0.39232 0.86411 0.0
C213 C 0.27403 0.39026 0.88603 0.0
N214 N 0.24242 0.35267 0.89223 0.0
N215 N 0.2331 0.36893 0.86868 0.0
C216 C 0.2825 0.35489 0.93255 0.0
H217 H 0.29232 0.33225 0.9287 0.0
H218 H 0.30032 0.3707 0.9401 0.0
H219 H 0.26555 0.35283 0.9511 0.0
C220 C 0.21082 0.24911 0.85051 0.0
N221 N 0.20662 0.26515 0.87659 0.0
N222 N 0.22516 0.28821 0.87613 0.0
C223 C 0.24256 0.28689 0.85092 0.0
C224 C 0.23377 0.26251 0.8335 0.0
C225 C 0.19141 0.22342 0.84054 0.0
H226 H 0.16797 0.22689 0.8485 0.0
H227 H 0.20013 0.20229 0.85076 0.0
H228 H 0.19165 0.22099 0.81519 0.0
O229 O 0.14955 0.29534 0.90992 0.0
O230 O 0.17949 0.33446 0.90455 0.0
H231 H 0.25933 0.32811 0.83215 0.0
H232 H 0.28486 0.29697 0.82878 0.0
C233 C 0.26807 0.30785 0.84402 0.0
H234 H 0.2794 0.31469 0.86556 0.0
H235 H 0.21386 0.36412 0.85585 0.0
O236 O 0.15522 0.225 0.90823 0.0
C237 C 0.15327 0.32353 0.90636 0.0
Co238 Co 0.99077 0.93052 0.16101 0.0
Co239 Co 0.93437 0.97128 0.15625 0.0
C240 C 0.97357 0.97656 0.21101 0.0
O241 O 0.99092 0.95558 0.20104 0.0
O242 O 0.95058 0.98483 0.19573 0.0
C243 C 0.05494 0.9127 0.15652 0.0
O244 O 0.06186 0.94118 0.16049 0.0
C245 C 0.8868 0.01735 0.15482 0.0
C246 C 0.85927 0.99935 0.11661 0.0
C247 C 0.86084 0.02227 0.13796 0.0
N248 N 0.90008 0.99259 0.14366 0.0
N249 N 0.88356 0.98196 0.12089 0.0
C250 C 0.8977 0.03406 0.18247 0.0
H251 H 0.91981 0.04446 0.17721 0.0
H252 H 0.88163 0.0517 0.18986 0.0
H253 H 0.90112 0.01798 0.20164 0.0
C254 C 1.00187 0.95995 0.09886 0.0
N255 N 0.98673 0.95625 0.12557 0.0
N256 N 0.96374 0.97488 0.12563 0.0
C257 C 0.96422 0.99182 0.10006 0.0
C258 C 0.98786 0.98251 0.08182 0.0
C259 C 0.02771 0.94083 0.08875 0.0
H260 H 0.02466 0.91742 0.097 0.0
H261 H 0.04878 0.94995 0.0987 0.0
H262 H 0.02989 0.94088 0.06337 0.0
O263 O 0.95765 0.90001 0.16029 0.0
O264 O 0.91849 0.93018 0.15784 0.0
H265 H 0.92243 0.00972 0.0838 0.0
H266 H 0.95412 0.03413 0.07784 0.0
C267 C 0.9437 0.01792 0.09407 0.0
H268 H 0.9385 0.0297 0.11585 0.0
H269 H 0.88878 0.96256 0.10849 0.0
O270 O 0.02746 0.90493 0.15686 0.0
C271 C 0.92937 0.90385 0.15856 0.0
Co272 Co 0.67791 0.73879 0.9138 0.0
Co273 Co 0.7199 0.68413 0.90434 0.0
C274 C 0.72324 0.71912 0.96259 0.0
O275 O 0.70299 0.73792 0.95397 0.0
O276 O 0.73123 0.69764 0.94516 0.0
C277 C 0.65913 0.80208 0.9134 0.0
O278 O 0.68758 0.80845 0.91838 0.0
C279 C 0.77192 0.64441 0.90032 0.0
C280 C 0.75638 0.61252 0.86468 0.0
C281 C 0.78043 0.61945 0.88354 0.0
N282 N 0.74415 0.65218 0.89141 0.0
N283 N 0.73491 0.63304 0.87022 0.0
C284 C 0.79033 0.66174 0.92297 0.0
H285 H 0.78484 0.68606 0.92157 0.0
H286 H 0.81473 0.65839 0.9188 0.0
H287 H 0.78491 0.65381 0.94646 0.0
C288 C 0.70591 0.75468 0.85186 0.0
N289 N 0.70335 0.73791 0.87773 0.0
N290 N 0.7225 0.71544 0.87582 0.0
C291 C 0.73854 0.71774 0.84976 0.0
C292 C 0.7283 0.74224 0.83336 0.0
C293 C 0.68554 0.78021 0.84361 0.0
H294 H 0.66234 0.77547 0.85163 0.0
H295 H 0.69363 0.80097 0.85507 0.0
H296 H 0.68538 0.78414 0.81845 0.0
O297 O 0.6486 0.70422 0.91191 0.0
O298 O 0.67983 0.66643 0.90449 0.0
H299 H 0.75487 0.67615 0.8315 0.0
H300 H 0.77865 0.70795 0.82335 0.0
C301 C 0.764 0.69742 0.84096 0.0
H302 H 0.77792 0.69236 0.86136 0.0
H303 H 0.71396 0.6341 0.85947 0.0
O304 O 0.65119 0.7747 0.91173 0.0
C305 C 0.6533 0.67626 0.90761 0.0
Co306 Co 0.01432 0.92752 0.66138 0.0
Co307 Co 0.06959 0.96974 0.65636 0.0
C308 C 0.03024 0.9733 0.71142 0.0
O309 O 0.01369 0.95169 0.70164 0.0
O310 O 0.05284 0.98254 0.69613 0.0
C311 C 0.9508 0.91097 0.65988 0.0
O312 O 0.94593 0.93927 0.66702 0.0
C313 C 0.10981 0.02193 0.65286 0.0
C314 C 0.14392 0.00456 0.62036 0.0
C315 C 0.13573 0.02968 0.63711 0.0
N316 N 0.1027 0.99358 0.64519 0.0
N317 N 0.12325 0.98325 0.62599 0.0
C318 C 0.09097 0.04144 0.67318 0.0
H319 H 0.06679 0.03637 0.66956 0.0
H320 H 0.09526 0.06565 0.66866 0.0
H321 H 0.09644 0.03644 0.69751 0.0
C322 C 1.00099 0.95749 0.60028 0.0
N323 N 0.01715 0.95389 0.62636 0.0
N324 N 0.04 0.97272 0.62562 0.0
C325 C 0.0385 0.98954 0.59993 0.0
C326 C 0.01389 0.98045 0.58302 0.0
C327 C 0.97443 0.93876 0.59147 0.0
H328 H 0.95438 0.94683 0.60419 0.0
H329 H 0.96969 0.94052 0.56653 0.0
H330 H 0.97845 0.9149 0.59769 0.0
O331 O 0.04825 0.89801 0.6599 0.0
O332 O 0.08696 0.92889 0.65721 0.0
H333 H 0.05406 0.02547 0.57002 0.0
H334 H 0.06483 0.02869 0.60972 0.0
C335 C 0.06124 0.01268 0.59061 0.0
H336 H 0.0828 1.00139 0.58521 0.0
H337 H 0.1229 0.96174 0.61638 0.0
O338 O 0.97775 0.90184 0.65735 0.0
C339 C 0.07647 0.90234 0.65784 0.0
Co340 Co 0.82849 0.26375 0.4116 0.0
Co341 Co 0.78467 0.31775 0.40664 0.0
C342 C 0.78159 0.27888 0.46153 0.0
O343 O 0.80382 0.26309 0.45177 0.0
O344 O 0.77142 0.30096 0.44607 0.0
C345 C 0.84527 0.20029 0.409 0.0
O346 O 0.81663 0.19518 0.41427 0.0
C347 C 0.73684 0.36357 0.40547 0.0
C348 C 0.75285 0.39112 0.36631 0.0
C349 C 0.73031 0.38882 0.38804 0.0
N350 N 0.7619 0.35112 0.39397 0.0
N351 N 0.77138 0.36769 0.3707 0.0
C352 C 0.72164 0.35301 0.43418 0.0
H353 H 0.73871 0.34939 0.45238 0.0
H354 H 0.71055 0.33107 0.42968 0.0
H355 H 0.70476 0.36945 0.44253 0.0
C356 C 0.79954 0.25055 0.34977 0.0
N357 N 0.80244 0.26624 0.37624 0.0
N358 N 0.7824 0.28802 0.37616 0.0
C359 C 0.76518 0.28595 0.35083 0.0
C360 C 0.77564 0.26248 0.33305 0.0
C361 C 0.81963 0.22525 0.3402 0.0
H362 H 0.8431 0.22987 0.34743 0.0
H363 H 0.81197 0.20425 0.35153 0.0
H364 H 0.81881 0.2217 0.31501 0.0
O365 O 0.85767 0.29802 0.41073 0.0
O366 O 0.82522 0.33536 0.40865 0.0
H367 H 0.74926 0.3272 0.33157 0.0
H368 H 0.72378 0.29635 0.3269 0.0
C369 C 0.73996 0.30692 0.34296 0.0
H370 H 0.72775 0.31367 0.36403 0.0
H371 H 0.79081 0.36315 0.35805 0.0
O372 O 0.85449 0.22733 0.40797 0.0
C373 C 0.85216 0.32608 0.40944 0.0
Co374 Co 0.49021 0.07913 0.16307 0.0
Co375 Co 0.43625 0.03507 0.159 0.0
C376 C 0.47569 0.03202 0.21317 0.0
O377 O 0.49133 0.05435 0.20331 0.0
O378 O 0.4534 0.02187 0.19807 0.0
C379 C 0.55372 0.09754 0.15829 0.0
O380 O 0.56026 0.06894 0.16205 0.0
C381 C 0.39052 0.9871 0.15739 0.0
C382 C 0.36357 0.00325 0.11788 0.0
C383 C 0.36558 0.98059 0.13951 0.0
N384 N 0.40305 0.01227 0.14622 0.0
N385 N 0.38684 0.02183 0.12276 0.0
C386 C 0.40078 0.97166 0.18608 0.0
H387 H 0.40545 0.98864 0.2041 0.0
H388 H 0.42209 0.95951 0.18132 0.0
H389 H 0.3837 0.95557 0.19476 0.0
C390 C 0.50216 0.05035 0.10081 0.0
N391 N 0.48727 0.0531 0.12779 0.0
N392 N 0.46549 0.03306 0.12824 0.0
C393 C 0.46664 0.01615 0.1027 0.0
C394 C 0.48928 0.02695 0.08408 0.0
C395 C 0.52658 0.071 0.09017 0.0
H396 H 0.52248 0.09413 0.09874 0.0
H397 H 0.54841 0.06299 0.09939 0.0
H398 H 0.52805 0.07127 0.06473 0.0
O399 O 0.45572 0.10808 0.16229 0.0
O400 O 0.41852 0.07543 0.16096 0.0
H401 H 0.42632 0.99561 0.08584 0.0
H402 H 0.45941 0.97299 0.0812 0.0
C403 C 0.44772 0.98884 0.09687 0.0
H404 H 0.44272 0.97713 0.11877 0.0
H405 H 0.39158 0.0413 0.11022 0.0
O406 O 0.52632 0.10563 0.15886 0.0
C407 C 0.42768 0.10241 0.16125 0.0
Co408 Co 0.67794 0.26291 0.63122 0.0
Co409 Co 0.72034 0.31795 0.63482 0.0
C410 C 0.72358 0.2778 0.58062 0.0
O411 O 0.702 0.26145 0.59083 0.0
O412 O 0.733 0.30053 0.59548 0.0
C413 C 0.66135 0.19969 0.6354 0.0
O414 O 0.69007 0.19465 0.63055 0.0
C415 C 0.77191 0.35871 0.63556 0.0
C416 C 0.75573 0.39283 0.66873 0.0
C417 C 0.77985 0.3851 0.65031 0.0
N418 N 0.74425 0.35112 0.64506 0.0
N419 N 0.73464 0.37159 0.66473 0.0
C420 C 0.79076 0.33977 0.61466 0.0
H421 H 0.78767 0.31563 0.62036 0.0
H422 H 0.81493 0.34579 0.61645 0.0
H423 H 0.78316 0.34311 0.59064 0.0
C424 C 0.70696 0.25169 0.69343 0.0
N425 N 0.70401 0.26655 0.66646 0.0
N426 N 0.72303 0.28924 0.66637 0.0
C427 C 0.73931 0.28895 0.69241 0.0
C428 C 0.72932 0.26562 0.71076 0.0
C429 C 0.68717 0.22635 0.70359 0.0
H430 H 0.66388 0.22996 0.69528 0.0
H431 H 0.69577 0.20502 0.69373 0.0
H432 H 0.68705 0.22424 0.72898 0.0
O433 O 0.64866 0.29689 0.63176 0.0
O434 O 0.67966 0.33555 0.63351 0.0
H435 H 0.75609 0.33196 0.7063 0.0
H436 H 0.7795 0.30084 0.71773 0.0
C437 C 0.76498 0.30976 0.69912 0.0
H438 H 0.77888 0.31274 0.67826 0.0
H439 H 0.71373 0.37088 0.67563 0.0
O440 O 0.65197 0.22666 0.63571 0.0
C441 C 0.6531 0.32513 0.63309 0.0
Co442 Co 0.49144 0.92786 0.38262 0.0
Co443 Co 0.43549 0.96949 0.38596 0.0
C444 C 0.47541 0.97345 0.33184 0.0
O445 O 0.49192 0.95198 0.34212 0.0
O446 O 0.4526 0.9828 0.34671 0.0
C447 C 0.55544 0.91251 0.38727 0.0
O448 O 0.56029 0.94128 0.38241 0.0
C449 C 0.38926 0.01693 0.38677 0.0
C450 C 0.36098 1.00006 0.425 0.0
C451 C 0.36379 0.02316 0.40395 0.0
N452 N 0.40136 0.99149 0.39778 0.0
N453 N 0.38434 0.98148 0.42047 0.0
C454 C 0.40072 0.03318 0.35902 0.0
H455 H 0.42235 0.0443 0.36474 0.0
H456 H 0.38442 0.05021 0.35067 0.0
H457 H 0.40515 0.01678 0.34039 0.0
C458 C 0.50259 0.95855 0.44396 0.0
N459 N 0.48737 0.95439 0.41739 0.0
N460 N 0.46445 0.97312 0.41697 0.0
C461 C 0.46503 0.9905 0.44223 0.0
C462 C 0.48879 0.98159 0.46045 0.0
C463 C 0.52813 0.93929 0.4546 0.0
H464 H 0.52483 0.91576 0.44685 0.0
H465 H 0.54939 0.94793 0.4446 0.0
H466 H 0.53016 0.93981 0.47999 0.0
O467 O 0.45812 0.89765 0.38378 0.0
O468 O 0.41927 0.92839 0.38462 0.0
H469 H 0.42334 0.00788 0.45913 0.0
H470 H 0.45469 0.0329 0.46407 0.0
C471 C 0.44424 0.01635 0.44826 0.0
H472 H 0.43857 0.02789 0.42648 0.0
H473 H 0.38869 0.96182 0.43283 0.0
O474 O 0.52854 0.90287 0.38729 0.0
C475 C 0.42984 0.9019 0.38477 0.0
Co476 Co 0.82618 0.74252 0.13237 0.0
Co477 Co 0.78532 0.68683 0.1417 0.0
C478 C 0.78243 0.7212 0.08292 0.0
O479 O 0.80193 0.74062 0.09187 0.0
O480 O 0.7746 0.69944 0.10017 0.0
C481 C 0.8448 0.80626 0.13274 0.0
O482 O 0.81664 0.813 0.12671 0.0
C483 C 0.73668 0.64254 0.14424 0.0
C484 C 0.75238 0.6143 0.183 0.0
C485 C 0.72959 0.6175 0.16169 0.0
N486 N 0.76233 0.65405 0.15529 0.0
N487 N 0.77161 0.63714 0.17838 0.0
C488 C 0.72143 0.65373 0.11582 0.0
H489 H 0.73755 0.6529 0.09644 0.0
H490 H 0.7148 0.67759 0.1191 0.0
H491 H 0.70146 0.64008 0.10971 0.0
C492 C 0.7963 0.75858 0.19305 0.0
N493 N 0.79988 0.74144 0.16763 0.0
N494 N 0.78086 0.71881 0.16926 0.0
C495 C 0.76361 0.72166 0.19447 0.0
C496 C 0.77294 0.74668 0.21056 0.0
C497 C 0.81584 0.78471 0.2014 0.0
H498 H 0.80824 0.80483 0.1885 0.0
H499 H 0.81438 0.78981 0.22628 0.0
H500 H 0.83954 0.77994 0.19507 0.0
O501 O 0.85623 0.70884 0.13524 0.0
O502 O 0.82595 0.67038 0.14297 0.0
H503 H 0.75092 0.68008 0.21544 0.0
H504 H 0.72421 0.70976 0.22112 0.0
C505 C 0.73998 0.69966 0.20432 0.0
H506 H 0.72696 0.6919 0.18415 0.0
H507 H 0.79136 0.64101 0.19072 0.0
O508 O 0.85234 0.7788 0.13487 0.0
C509 C 0.85227 0.6809 0.14023 0.0
Co510 Co 0.01489 0.0791 0.88002 0.0
Co511 Co 0.06834 0.03472 0.88524 0.0
C512 C 0.02983 0.03218 0.83012 0.0
O513 O 0.01414 0.05453 0.83974 0.0
O514 O 0.05168 0.02188 0.84575 0.0
C515 C 0.95159 0.0952 0.88357 0.0
O516 O 0.94713 0.06628 0.8793 0.0
C517 C 0.10865 0.98273 0.88889 0.0
C518 C 0.14051 0.99899 0.92424 0.0
C519 C 0.13366 0.97457 0.90586 0.0
N520 N 0.10076 0.01062 0.89738 0.0
N521 N 0.11994 0.02029 0.91832 0.0
C522 C 0.09136 0.96395 0.86652 0.0
H523 H 0.06691 0.96832 0.86903 0.0
H524 H 0.09591 0.93963 0.86996 0.0
H525 H 0.098 0.97035 0.84284 0.0
C526 C 1.0013 0.0506 0.94208 0.0
N527 N 0.01693 0.05308 0.9155 0.0
N528 N 0.03883 0.03318 0.91594 0.0
C529 C 0.03723 0.01681 0.94189 0.0
C530 C 0.0138 0.02751 0.95955 0.0
C531 C 0.97678 0.07152 0.95195 0.0
H532 H 0.98128 0.09456 0.94332 0.0
H533 H 0.95509 0.0636 0.94232 0.0
H534 H 0.97474 0.072 0.97734 0.0
O535 O 0.04971 0.10782 0.88131 0.0
O536 O 0.08671 0.07489 0.88348 0.0
H537 H 0.07883 0.9988 0.95832 0.0
H538 H 0.04661 0.97587 0.96707 0.0
C539 C 0.057 0.99054 0.94938 0.0
H540 H 0.06096 0.97694 0.9285 0.0
H541 H 0.11874 0.04137 0.92881 0.0
O542 O 0.97841 0.10512 0.88351 0.0
C543 C 0.07772 0.10195 0.88278 0.0
Co544 Co 0.82767 0.76488 0.63346 0.0
Co545 Co 0.78497 0.81977 0.63565 0.0
C546 C 0.78242 0.77965 0.58193 0.0
O547 O 0.80415 0.76368 0.59253 0.0
O548 O 0.77236 0.80221 0.5966 0.0
C549 C 0.84283 0.7011 0.63913 0.0
O550 O 0.81396 0.69642 0.63482 0.0
C551 C 0.73773 0.86566 0.63362 0.0
C552 C 0.75251 0.89467 0.67214 0.0
C553 C 0.73071 0.89152 0.64977 0.0
N554 N 0.76237 0.85369 0.64642 0.0
N555 N 0.77116 0.87111 0.66928 0.0
C556 C 0.72343 0.85401 0.60488 0.0
H557 H 0.74097 0.85066 0.5871 0.0
H558 H 0.71302 0.83179 0.60964 0.0
H559 H 0.7062 0.86969 0.59578 0.0
C560 C 0.79683 0.75423 0.69507 0.0
N561 N 0.80076 0.76887 0.66808 0.0
N562 N 0.78147 0.79129 0.66702 0.0
C563 C 0.76398 0.79094 0.69221 0.0
C564 C 0.7735 0.76798 0.71118 0.0
C565 C 0.81639 0.7292 0.70636 0.0
H566 H 0.83979 0.73235 0.69815 0.0
H567 H 0.80771 0.70754 0.69733 0.0
H568 H 0.81619 0.72806 0.73182 0.0
O569 O 0.85758 0.79868 0.63447 0.0
O570 O 0.82569 0.83655 0.63442 0.0
H571 H 0.74503 0.83253 0.7077 0.0
H572 H 0.72106 0.80049 0.71334 0.0
C573 C 0.73742 0.81106 0.69738 0.0
H574 H 0.72602 0.81587 0.67529 0.0
H575 H 0.79013 0.867 0.68277 0.0
O576 O 0.85269 0.72793 0.63854 0.0
C577 C 0.85247 0.82685 0.63494 0.0
Co578 Co 0.49039 0.57784 0.88144 0.0
Co579 Co 0.43603 0.53476 0.88609 0.0
C580 C 0.47486 0.53149 0.83122 0.0
O581 O 0.49091 0.5535 0.84105 0.0
O582 O 0.45258 0.52163 0.84655 0.0
C583 C 0.55383 0.59331 0.88448 0.0
O584 O 0.55822 0.56448 0.87955 0.0
C585 C 0.39024 0.4871 0.88689 0.0
C586 C 0.36215 0.50324 0.92557 0.0
C587 C 0.36477 0.48064 0.90398 0.0
N588 N 0.4025 0.51221 0.89845 0.0
N589 N 0.38562 0.52177 0.92144 0.0
C590 C 0.40128 0.47171 0.85849 0.0
H591 H 0.40474 0.4886 0.84007 0.0
H592 H 0.42336 0.46106 0.86332 0.0
H593 H 0.38521 0.45444 0.85022 0.0
C594 C 0.50319 0.5483 0.94319 0.0
N595 N 0.48767 0.55153 0.91665 0.0
N596 N 0.4657 0.5317 0.91653 0.0
C597 C 0.4675 0.51427 0.94175 0.0
C598 C 0.491 0.52437 0.95969 0.0
C599 C 0.52838 0.56832 0.9532 0.0
H600 H 0.52412 0.59177 0.94563 0.0
H601 H 0.5496 0.5604 0.94254 0.0
H602 H 0.53124 0.56769 0.9785 0.0
O603 O 0.4566 0.60754 0.8827 0.0
O604 O 0.41889 0.57554 0.88471 0.0
H605 H 0.42591 0.49872 0.96055 0.0
H606 H 0.45655 0.47302 0.9657 0.0
C607 C 0.44625 0.48924 0.94946 0.0
H608 H 0.43963 0.47705 0.92833 0.0
H609 H 0.39001 0.54124 0.93408 0.0
O610 O 0.52707 0.60325 0.88516 0.0
C611 C 0.4285 0.60238 0.88418 0.0
Co612 Co 0.67875 0.24352 0.13155 0.0
Co613 Co 0.71958 0.18729 0.13628 0.0
C614 C 0.72413 0.22586 0.08115 0.0
O615 O 0.70289 0.24285 0.09111 0.0
O616 O 0.73326 0.20327 0.09654 0.0
C617 C 0.66375 0.30786 0.13369 0.0
O618 O 0.69231 0.31266 0.12767 0.0
C619 C 0.76537 0.1395 0.13736 0.0
C620 C 0.7474 0.11185 0.17556 0.0
C621 C 0.77022 0.1134 0.15406 0.0
N622 N 0.74075 0.15286 0.14875 0.0
N623 N 0.73014 0.13627 0.17149 0.0
C624 C 0.78195 0.15044 0.10961 0.0
H625 H 0.76583 0.15359 0.09045 0.0
H626 H 0.79209 0.17271 0.11468 0.0
H627 H 0.79974 0.13451 0.10227 0.0
C628 C 0.70931 0.25577 0.19269 0.0
N629 N 0.70509 0.23994 0.16651 0.0
N630 N 0.72377 0.21697 0.16663 0.0
C631 C 0.74137 0.21829 0.19174 0.0
C632 C 0.73267 0.24266 0.20923 0.0
C633 C 0.69081 0.28225 0.20225 0.0
H634 H 0.667 0.27884 0.1955 0.0
H635 H 0.69939 0.30266 0.19047 0.0
H636 H 0.69226 0.286 0.22739 0.0
O637 O 0.64795 0.21076 0.13308 0.0
O638 O 0.67816 0.17158 0.13496 0.0
H639 H 0.75466 0.17585 0.21034 0.0
H640 H 0.78162 0.20523 0.21636 0.0
C641 C 0.76527 0.19586 0.1997 0.0
H642 H 0.7775 0.18889 0.1787 0.0
H643 H 0.7108 0.14151 0.18401 0.0
O644 O 0.6543 0.28094 0.13538 0.0
C645 C 0.6518 0.18246 0.13458 0.0
Co646 Co 0.01386 0.42743 0.38368 0.0
Co647 Co 0.06807 0.47093 0.38759 0.0
C648 C 0.02913 0.47351 0.33286 0.0
O649 O 0.01328 0.45144 0.34295 0.0
O650 O 0.0512 0.48382 0.34816 0.0
C651 C 0.95023 0.41136 0.38739 0.0
O652 O 0.94538 0.44017 0.38278 0.0
C653 C 0.11406 0.51825 0.38695 0.0
C654 C 0.14121 0.50406 0.42708 0.0
C655 C 0.13918 0.5255 0.40419 0.0
N656 N 0.10141 0.49386 0.39963 0.0
N657 N 0.11773 0.48544 0.42348 0.0
C658 C 0.10386 0.532 0.35735 0.0
H659 H 0.1008 0.51406 0.33994 0.0
H660 H 0.08173 0.54301 0.36091 0.0
H661 H 0.12026 0.54867 0.34845 0.0
C662 C 1.00096 0.45784 0.44508 0.0
N663 N 0.01657 0.45411 0.41864 0.0
N664 N 0.03873 0.47373 0.41831 0.0
C665 C 0.03722 0.49126 0.44343 0.0
C666 C 0.0137 0.48153 0.46158 0.0
C667 C 0.97607 0.43768 0.4556 0.0
H668 H 0.98011 0.41433 0.44764 0.0
H669 H 0.95453 0.4457 0.4457 0.0
H670 H 0.97404 0.43795 0.48099 0.0
O671 O 0.04808 0.39798 0.38502 0.0
O672 O 0.0855 0.43038 0.38612 0.0
H673 H 0.07752 0.51077 0.46139 0.0
H674 H 0.04512 0.5347 0.46407 0.0
C675 C 0.05683 0.51806 0.44931 0.0
H676 H 0.06305 0.52906 0.42737 0.0
H677 H 0.11297 0.46667 0.43707 0.0
O678 O 0.97716 0.40181 0.38769 0.0
C679 C 0.07617 0.40344 0.386 0.0
Co680 Co 0.82802 0.24058 0.91131 0.0
Co681 Co 0.78521 0.18585 0.90743 0.0
C682 C 0.78222 0.22542 0.96194 0.0
O683 O 0.80408 0.24154 0.95191 0.0
O684 O 0.7724 0.20302 0.94681 0.0
C685 C 0.84591 0.30422 0.90764 0.0
O686 O 0.81752 0.31068 0.91285 0.0
C687 C 0.73792 0.13983 0.90908 0.0
C688 C 0.75208 0.11189 0.86951 0.0
C689 C 0.73075 0.11428 0.89246 0.0
N690 N 0.7622 0.15233 0.89601 0.0
N691 N 0.77058 0.13555 0.87249 0.0
C692 C 0.72427 0.15056 0.93853 0.0
H693 H 0.74223 0.15376 0.95587 0.0
H694 H 0.71339 0.17272 0.93463 0.0
H695 H 0.70752 0.13441 0.94771 0.0
C696 C 0.79778 0.25319 0.84998 0.0
N697 N 0.80149 0.23754 0.87638 0.0
N698 N 0.78227 0.21502 0.87646 0.0
C699 C 0.76505 0.21627 0.8511 0.0
C700 C 0.77454 0.24008 0.83316 0.0
C701 C 0.8176 0.27849 0.83981 0.0
H702 H 0.84108 0.2744 0.84732 0.0
H703 H 0.8096 0.29971 0.85043 0.0
H704 H 0.81698 0.28117 0.81448 0.0
O705 O 0.85754 0.20657 0.91013 0.0
O706 O 0.82586 0.16854 0.90878 0.0
H707 H 0.74695 0.17541 0.83293 0.0
H708 H 0.72233 0.20725 0.8294 0.0
C709 C 0.73887 0.19602 0.84466 0.0
H710 H 0.72749 0.18967 0.86636 0.0
H711 H 0.7893 0.14007 0.85874 0.0
O712 O 0.85399 0.27683 0.9069 0.0
C713 C 0.8526 0.17839 0.909 0.0
Co714 Co 0.0134 0.57648 0.16303 0.0
Co715 Co 0.06906 0.53519 0.15875 0.0
C716 C 0.02901 0.53141 0.21353 0.0
O717 O 0.0123 0.55281 0.20357 0.0
O718 O 0.05176 0.52238 0.19837 0.0
C719 C 0.9502 0.59602 0.16329 0.0
O720 O 0.94355 0.56885 0.17309 0.0
C721 C 0.10956 0.48354 0.15758 0.0
C722 C 0.14564 0.50112 0.12743 0.0
C723 C 0.13683 0.47624 0.14424 0.0
N724 N 0.10253 0.51158 0.14887 0.0
N725 N 0.12415 0.52203 0.13097 0.0
C726 C 0.08956 0.46395 0.17667 0.0
H727 H 0.06576 0.46739 0.16985 0.0
H728 H 0.09564 0.43984 0.17419 0.0
H729 H 0.09169 0.47056 0.20113 0.0
C730 C 1.00043 0.54567 0.10235 0.0
N731 N 0.01666 0.54988 0.12825 0.0
N732 N 0.04018 0.53192 0.12737 0.0
C733 C 0.03936 0.51532 0.10153 0.0
C734 C 0.01419 0.52338 0.08479 0.0
C735 C 0.97263 0.56292 0.0944 0.0
H736 H 0.95423 0.55604 0.11009 0.0
H737 H 0.96546 0.55864 0.0704 0.0
H738 H 0.97669 0.58733 0.09773 0.0
O739 O 0.04713 0.60622 0.16179 0.0
O740 O 0.08627 0.57594 0.1598 0.0
H741 H 0.05785 0.48205 0.07014 0.0
H742 H 0.06704 0.47682 0.11009 0.0
C743 C 0.06348 0.49379 0.09182 0.0
H744 H 0.08473 0.50631 0.08824 0.0
H745 H 0.12415 0.54343 0.12108 0.0
O746 O 0.97749 0.60269 0.15824 0.0
C747 C 0.07542 0.60232 0.16018 0.0
Co748 Co 0.67817 0.76586 0.41282 0.0
Co749 Co 0.72111 0.82068 0.4088 0.0
C750 C 0.725 0.78086 0.46283 0.0
O751 O 0.70291 0.76495 0.45293 0.0
O752 O 0.73474 0.80347 0.44786 0.0
C753 C 0.66062 0.70189 0.40938 0.0
O754 O 0.68893 0.69552 0.41514 0.0
C755 C 0.7681 0.86754 0.40715 0.0
C756 C 0.74932 0.89616 0.37014 0.0
C757 C 0.77284 0.89385 0.39073 0.0
N758 N 0.74283 0.85482 0.39646 0.0
N759 N 0.73178 0.87199 0.37442 0.0
C760 C 0.78556 0.85574 0.43394 0.0
H761 H 0.77002 0.85137 0.45336 0.0
H762 H 0.79603 0.83395 0.42754 0.0
H763 H 0.80324 0.87171 0.44147 0.0
C764 C 0.70775 0.75389 0.35113 0.0
N765 N 0.70431 0.7693 0.37768 0.0
N766 N 0.72385 0.79154 0.3779 0.0
C767 C 0.74121 0.79014 0.35264 0.0
C768 C 0.73148 0.7665 0.3347 0.0
C769 C 0.6883 0.72823 0.34123 0.0
H770 H 0.69619 0.70736 0.35264 0.0
H771 H 0.68953 0.72481 0.31603 0.0
H772 H 0.66465 0.73237 0.34815 0.0
O773 O 0.64837 0.79971 0.41226 0.0
O774 O 0.68034 0.83745 0.41113 0.0
H775 H 0.78159 0.80262 0.32777 0.0
H776 H 0.7785 0.8179 0.36598 0.0
C777 C 0.76577 0.81197 0.34497 0.0
H778 H 0.75572 0.83264 0.33511 0.0
H779 H 0.71192 0.86733 0.36253 0.0
O780 O 0.65251 0.72928 0.40835 0.0
C781 C 0.65353 0.82785 0.4115 0.0
Co782 Co 0.49201 0.42835 0.66108 0.0
Co783 Co 0.43753 0.47125 0.6566 0.0
C784 C 0.47612 0.47416 0.71168 0.0
O785 O 0.49231 0.4523 0.70171 0.0
O786 O 0.45399 0.4842 0.69625 0.0
C787 C 0.55581 0.41031 0.65799 0.0
O788 O 0.56252 0.43855 0.66373 0.0
C789 C 0.39018 0.51714 0.65788 0.0
C790 C 0.36257 0.5016 0.61861 0.0
C791 C 0.36397 0.52284 0.64173 0.0
N792 N 0.40372 0.49353 0.64467 0.0
N793 N 0.38718 0.48437 0.62128 0.0
C794 C 0.40072 0.53141 0.68707 0.0
H795 H 0.4028 0.51387 0.70507 0.0
H796 H 0.42341 0.54121 0.6834 0.0
H797 H 0.38509 0.54909 0.69528 0.0
C798 C 0.50508 0.45843 0.59972 0.0
N799 N 0.48929 0.45488 0.62605 0.0
N800 N 0.46712 0.47448 0.62609 0.0
C801 C 0.46896 0.49203 0.60095 0.0
C802 C 0.49283 0.48233 0.58324 0.0
C803 C 0.53072 0.43886 0.59 0.0
H804 H 0.52636 0.4152 0.59678 0.0
H805 H 0.55151 0.4466 0.60162 0.0
H806 H 0.5344 0.44016 0.56484 0.0
O807 O 0.45821 0.39859 0.65978 0.0
O808 O 0.42046 0.43048 0.65797 0.0
H809 H 0.42729 0.5068 0.58176 0.0
H810 H 0.45737 0.53315 0.57698 0.0
C811 C 0.4473 0.51668 0.5931 0.0
H812 H 0.44017 0.52863 0.61419 0.0
H813 H 0.39242 0.46583 0.60757 0.0
O814 O 0.52835 0.40252 0.65688 0.0
C815 C 0.4301 0.40367 0.65842 0.0
Co816 Co 0.1778 0.24189 0.41317 0.0
Co817 Co 0.22106 0.18723 0.40912 0.0
C818 C 0.22515 0.22702 0.46294 0.0
O819 O 0.20292 0.24282 0.45313 0.0
O820 O 0.23495 0.20454 0.44788 0.0
C821 C 0.16171 0.30561 0.40876 0.0
O822 O 0.1906 0.3105 0.41269 0.0
C823 C 0.26835 0.14078 0.40728 0.0
C824 C 0.25117 0.11343 0.36854 0.0
C825 C 0.27424 0.1155 0.38967 0.0
N826 N 0.24314 0.15346 0.39642 0.0
N827 N 0.23297 0.137 0.37341 0.0
C828 C 0.28445 0.15131 0.43546 0.0
H829 H 0.26789 0.15622 0.45382 0.0
H830 H 0.29656 0.17253 0.43016 0.0
H831 H 0.30066 0.13425 0.44395 0.0
C832 C 0.20653 0.25322 0.35075 0.0
N833 N 0.20358 0.23835 0.37772 0.0
N834 N 0.22319 0.21619 0.37808 0.0
C835 C 0.23998 0.21698 0.35242 0.0
C836 C 0.22958 0.23989 0.33389 0.0
C837 C 0.18642 0.27815 0.34027 0.0
H838 H 0.16325 0.27458 0.34899 0.0
H839 H 0.195 0.29978 0.34947 0.0
H840 H 0.18606 0.27967 0.31484 0.0
O841 O 0.14827 0.20783 0.41283 0.0
O842 O 0.18046 0.17023 0.41175 0.0
H843 H 0.2594 0.17602 0.33581 0.0
H844 H 0.28266 0.20858 0.33034 0.0
C845 C 0.26679 0.19743 0.34641 0.0
H846 H 0.27868 0.19246 0.36819 0.0
H847 H 0.21335 0.14179 0.36118 0.0
O848 O 0.15216 0.27866 0.4091 0.0
C849 C 0.1536 0.17971 0.41213 0.0
Co850 Co 0.5158 0.42802 0.16142 0.0
Co851 Co 0.56867 0.47277 0.15571 0.0
C852 C 0.53098 0.47434 0.21157 0.0
O853 O 0.51526 0.452 0.20202 0.0
O854 O 0.55257 0.48491 0.19573 0.0
C855 C 0.45294 0.40877 0.16024 0.0
O856 O 0.44655 0.43705 0.16619 0.0
C857 C 0.61325 0.52128 0.15587 0.0
C858 C 0.64059 0.50781 0.11561 0.0
C859 C 0.63821 0.52907 0.13861 0.0
N860 N 0.60103 0.49674 0.1431 0.0
N861 N 0.61744 0.48877 0.11915 0.0
C862 C 0.60305 0.53446 0.18574 0.0
H863 H 0.60131 0.51635 0.20318 0.0
H864 H 0.58031 0.54434 0.18276 0.0
H865 H 0.61876 0.55191 0.19432 0.0
C866 C 0.50048 0.45759 0.10032 0.0
N867 N 0.51685 0.45461 0.12634 0.0
N868 N 0.53824 0.47506 0.126 0.0
C869 C 0.53522 0.49262 0.101 0.0
C870 C 0.51148 0.48201 0.08369 0.0
C871 C 0.47555 0.43697 0.09095 0.0
H872 H 0.48089 0.41352 0.0978 0.0
H873 H 0.45458 0.44392 0.10278 0.0
H874 H 0.4716 0.43803 0.06583 0.0
O875 O 0.55063 0.39966 0.15944 0.0
O876 O 0.58737 0.43269 0.1564 0.0
H877 H 0.57571 0.50944 0.08088 0.0
H878 H 0.54439 0.53445 0.07722 0.0
C879 C 0.55558 0.51828 0.09287 0.0
H880 H 0.56265 0.53038 0.1139 0.0
H881 H 0.6131 0.46991 0.10558 0.0
O882 O 0.48031 0.40095 0.15812 0.0
C883 C 0.57853 0.40561 0.15721 0.0
Co884 Co 0.32876 0.76478 0.91207 0.0
Co885 Co 0.28539 0.81909 0.90856 0.0
C886 C 0.28316 0.77929 0.96303 0.0
O887 O 0.3051 0.76339 0.95285 0.0
O888 O 0.27309 0.8016 0.94794 0.0
C889 C 0.34505 0.70127 0.90921 0.0
O890 O 0.31664 0.69653 0.91599 0.0
C891 C 0.23308 0.85868 0.90768 0.0
C892 C 0.24948 0.89462 0.87666 0.0
C893 C 0.22499 0.88551 0.8939 0.0
N894 N 0.26116 0.85213 0.89874 0.0
N895 N 0.27092 0.8737 0.88038 0.0
C896 C 0.21415 0.83854 0.92733 0.0
H897 H 0.21826 0.81467 0.92114 0.0
H898 H 0.18988 0.84386 0.92478 0.0
H899 H 0.22076 0.84149 0.9517 0.0
C900 C 0.29835 0.75213 0.85085 0.0
N901 N 0.30192 0.76775 0.87727 0.0
N902 N 0.28273 0.7903 0.8772 0.0
C903 C 0.2658 0.78922 0.8516 0.0
C904 C 0.27508 0.7651 0.83403 0.0
C905 C 0.31729 0.72593 0.84137 0.0
H906 H 0.3411 0.72997 0.84774 0.0
H907 H 0.30933 0.7055 0.85353 0.0
H908 H 0.31565 0.72178 0.81632 0.0
O909 O 0.35798 0.79932 0.91084 0.0
O910 O 0.32573 0.83694 0.90978 0.0
H911 H 0.23008 0.80574 0.82195 0.0
H912 H 0.22651 0.81512 0.86201 0.0
C913 C 0.24266 0.81219 0.84289 0.0
H914 H 0.25394 0.83396 0.83837 0.0
H915 H 0.29217 0.87397 0.87018 0.0
O916 O 0.35448 0.72821 0.90738 0.0
C917 C 0.35261 0.82746 0.90988 0.0
Co918 Co 0.98991 0.57931 0.66332 0.0
Co919 Co 0.93595 0.53549 0.65958 0.0
C920 C 0.9759 0.5324 0.71358 0.0
O921 O 0.99154 0.5546 0.70348 0.0
O922 O 0.9535 0.52233 0.69863 0.0
C923 C 0.05295 0.59561 0.65898 0.0
O924 O 0.05746 0.56666 0.663 0.0
C925 C 0.89513 0.48374 0.65626 0.0
C926 C 0.86267 0.50079 0.62185 0.0
C927 C 0.86977 0.47599 0.63963 0.0
N928 N 0.90299 0.51176 0.64812 0.0
N929 N 0.88343 0.5219 0.62777 0.0
C930 C 0.9128 0.46446 0.67789 0.0
H931 H 0.93718 0.46924 0.67547 0.0
H932 H 0.90854 0.44021 0.6736 0.0
H933 H 0.90613 0.4699 0.70179 0.0
C934 C 1.00143 0.55099 0.60065 0.0
N935 N 0.98668 0.55352 0.62775 0.0
N936 N 0.96468 0.53373 0.62804 0.0
C937 C 0.96541 0.51732 0.6021 0.0
C938 C 0.98817 0.52808 0.5835 0.0
C939 C 0.02613 0.57147 0.59029 0.0
H940 H 0.02234 0.59452 0.59921 0.0
H941 H 0.04786 0.56303 0.59936 0.0
H942 H 0.02757 0.57211 0.56486 0.0
O943 O 0.95547 0.60824 0.6632 0.0
O944 O 0.91794 0.5759 0.66192 0.0
H945 H 0.92341 0.49815 0.58816 0.0
H946 H 0.95569 0.47601 0.57771 0.0
C947 C 0.9459 0.49053 0.59586 0.0
H948 H 0.94339 0.47699 0.61703 0.0
H949 H 0.88456 0.54313 0.61757 0.0
O950 O 0.02616 0.60548 0.65923 0.0
C951 C 0.92738 0.60281 0.66245 0.0
Co952 Co 0.17727 0.76441 0.13119 0.0
Co953 Co 0.21913 0.81995 0.13577 0.0
C954 C 0.22385 0.78012 0.08145 0.0
O955 O 0.20212 0.76361 0.09117 0.0
O956 O 0.23284 0.80291 0.09656 0.0
C957 C 0.15945 0.70052 0.13446 0.0
O958 O 0.18772 0.694 0.12865 0.0
C959 C 0.2673 0.86541 0.13756 0.0
C960 C 0.24947 0.89464 0.17454 0.0
C961 C 0.27325 0.89115 0.15443 0.0
N962 N 0.24134 0.85383 0.14788 0.0
N963 N 0.23078 0.87141 0.16983 0.0
C964 C 0.28426 0.85332 0.11055 0.0
H965 H 0.26843 0.8488 0.09145 0.0
H966 H 0.29492 0.83165 0.11702 0.0
H967 H 0.30175 0.86927 0.10248 0.0
C968 C 0.20674 0.75226 0.19288 0.0
N969 N 0.20316 0.76794 0.16649 0.0
N970 N 0.22219 0.79061 0.16666 0.0
C971 C 0.2394 0.78924 0.19205 0.0
C972 C 0.23006 0.76514 0.20963 0.0
C973 C 0.1878 0.72604 0.20233 0.0
H974 H 0.16404 0.72993 0.19564 0.0
H975 H 0.19599 0.70557 0.19042 0.0
H976 H 0.1892 0.72208 0.22744 0.0
O977 O 0.14736 0.79802 0.13173 0.0
O978 O 0.1782 0.83671 0.1338 0.0
H979 H 0.25292 0.83206 0.2095 0.0
H980 H 0.27895 0.80248 0.21789 0.0
C981 C 0.26349 0.81143 0.20016 0.0
H982 H 0.27671 0.8173 0.17945 0.0
H983 H 0.21061 0.86757 0.1815 0.0
O984 O 0.15151 0.72794 0.1356 0.0
C985 C 0.15167 0.82627 0.13312 0.0
Co986 Co 0.99256 0.42809 0.88243 0.0
Co987 Co 0.9371 0.46949 0.88657 0.0
C988 C 0.97764 0.47346 0.83217 0.0
O989 O 0.99427 0.45198 0.84207 0.0
O990 O 0.95482 0.48238 0.84723 0.0
C991 C 0.05547 0.40825 0.88262 0.0
O992 O 0.0622 0.4354 0.87283 0.0
C993 C 0.89728 0.52143 0.88705 0.0
C994 C 0.86047 0.50443 0.91663 0.0
C995 C 0.86989 0.52909 0.89981 0.0
N996 N 0.90383 0.49337 0.89606 0.0
N997 N 0.88179 0.48326 0.91362 0.0
C998 C 0.91781 0.54069 0.8682 0.0
H999 H 0.94144 0.53713 0.87556 0.0
H1000 H 0.91188 0.56487 0.87032 0.0
H1001 H 0.91611 0.53388 0.84376 0.0
C1002 C 0.00501 0.45818 0.94361 0.0
N1003 N 0.98909 0.45438 0.91744 0.0
N1004 N 0.96561 0.47238 0.91829 0.0
C1005 C 0.96613 0.48859 0.9444 0.0
C1006 C 0.99101 0.48016 0.9614 0.0
C1007 C 0.03278 0.44087 0.95156 0.0
H1008 H 0.05106 0.44736 0.93556 0.0
H1009 H 0.04025 0.44547 0.97539 0.0
H1010 H 0.0285 0.41644 0.94866 0.0
O1011 O 0.95865 0.39858 0.88293 0.0
O1012 O 0.91959 0.42895 0.88501 0.0
H1013 H 0.94752 0.52182 0.97576 0.0
H1014 H 0.93844 0.52707 0.9358 0.0
C1015 C 0.94197 0.51008 0.95406 0.0
H1016 H 0.92072 0.49753 0.95755 0.0
H1017 H 0.88136 0.46191 0.92359 0.0
O1018 O 0.02815 0.40161 0.88752 0.0
C1019 C 0.93036 0.40256 0.88434 0.0
Co1020 Co 0.33044 0.24078 0.63178 0.0
Co1021 Co 0.28635 0.1867 0.63475 0.0
C1022 C 0.28426 0.22734 0.58106 0.0
O1023 O 0.30638 0.24291 0.59133 0.0
O1024 O 0.27418 0.20476 0.59573 0.0
C1025 C 0.34647 0.30418 0.63597 0.0
O1026 O 0.31769 0.30865 0.63087 0.0
C1027 C 0.23404 0.14671 0.63485 0.0
C1028 C 0.24916 0.11235 0.66829 0.0
C1029 C 0.22543 0.12046 0.64952 0.0
N1030 N 0.26168 0.15388 0.64475 0.0
N1031 N 0.27065 0.13325 0.66458 0.0
C1032 C 0.21585 0.16584 0.61353 0.0
H1033 H 0.21886 0.18993 0.61948 0.0
H1034 H 0.19162 0.1599 0.61459 0.0
H1035 H 0.22413 0.16265 0.58972 0.0
C1036 C 0.30132 0.25195 0.69385 0.0
N1037 N 0.30398 0.23734 0.66673 0.0
N1038 N 0.28431 0.2152 0.66633 0.0
C1039 C 0.26795 0.21562 0.69231 0.0
C1040 C 0.27853 0.23841 0.7109 0.0
C1041 C 0.32171 0.27663 0.70437 0.0
H1042 H 0.34493 0.27257 0.69603 0.0
H1043 H 0.31367 0.29832 0.69479 0.0
H1044 H 0.3218 0.27838 0.72979 0.0
O1045 O 0.35922 0.20598 0.63256 0.0
O1046 O 0.32666 0.16856 0.63348 0.0
H1047 H 0.25025 0.17296 0.70622 0.0
H1048 H 0.2274 0.20453 0.71742 0.0
C1049 C 0.24184 0.19531 0.69889 0.0
H1050 H 0.22801 0.19257 0.67796 0.0
H1051 H 0.29141 0.13361 0.67576 0.0
O1052 O 0.35629 0.27733 0.63652 0.0
C1053 C 0.35362 0.17788 0.6335 0.0
Co1054 Co 0.51497 0.57779 0.38102 0.0
Co1055 Co 0.5703 0.53577 0.3866 0.0
C1056 C 0.53182 0.53209 0.33102 0.0
O1057 O 0.51508 0.5536 0.34076 0.0
O1058 O 0.55416 0.52272 0.34662 0.0
C1059 C 0.45142 0.59625 0.38155 0.0
O1060 O 0.44504 0.56822 0.3745 0.0
C1061 C 0.61555 0.48746 0.38809 0.0
C1062 C 0.64391 0.50379 0.42643 0.0
C1063 C 0.64087 0.4808 0.40532 0.0
N1064 N 0.60375 0.51303 0.39912 0.0
N1065 N 0.62081 0.52269 0.42191 0.0
C1066 C 0.60419 0.47171 0.36003 0.0
H1067 H 0.60129 0.48826 0.3412 0.0
H1068 H 0.58179 0.46181 0.36502 0.0
H1069 H 0.6198 0.45381 0.35224 0.0
C1070 C 0.50135 0.54804 0.44216 0.0
N1071 N 0.51756 0.55155 0.41612 0.0
N1072 N 0.54015 0.53243 0.41675 0.0
C1073 C 0.5382 0.51524 0.44214 0.0
C1074 C 0.51384 0.52471 0.45928 0.0
C1075 C 0.4751 0.5672 0.451 0.0
H1076 H 0.47979 0.59108 0.44529 0.0
H1077 H 0.45511 0.55992 0.43773 0.0
H1078 H 0.4699 0.56505 0.47582 0.0
O1079 O 0.54853 0.60742 0.38252 0.0
O1080 O 0.58733 0.5768 0.38563 0.0
H1081 H 0.58019 0.5015 0.4614 0.0
H1082 H 0.55027 0.47519 0.46769 0.0
C1083 C 0.56009 0.49106 0.45079 0.0
H1084 H 0.56698 0.47828 0.43014 0.0
H1085 H 0.61676 0.54244 0.43422 0.0
O1086 O 0.47875 0.60388 0.38463 0.0
C1087 C 0.57673 0.60328 0.38471 0.0
C1088 C 0.26419 0.27952 0.26552 0.0
C1089 C 0.26415 0.25694 0.24281 0.0
C1090 C 0.25204 0.27425 0.29474 0.0
C1091 C 0.23968 0.24617 0.30222 0.0
H1092 H 0.27363 0.30147 0.26059 0.0
H1093 H 0.25283 0.29201 0.31175 0.0
S1094 S 0.23284 0.18015 0.25063 0.0
N1095 N 0.24981 0.20593 0.22948 0.0
N1096 N 0.22714 0.19584 0.2845 0.0
C1097 C 0.23936 0.22348 0.27971 0.0
C1098 C 0.25166 0.22887 0.24998 0.0
C1099 C 0.01358 0.97303 0.5263 0.0
C1100 C 0.00629 0.99089 0.55181 0.0
C1101 C 0.01016 0.98416 0.49634 0.0
C1102 C 0.99947 0.0135 0.49108 0.0
H1103 H 0.02251 0.95057 0.52956 0.0
H1104 H 0.01579 0.96974 0.47714 0.0
S1105 S 0.97665 0.06874 0.55028 0.0
N1106 N 0.98776 0.03902 0.57007 0.0
N1107 N 0.98081 0.05978 0.51372 0.0
C1108 C 0.99191 0.03142 0.51643 0.0
C1109 C 0.99543 0.02013 0.54685 0.0
C1110 C 0.28261 0.76369 0.77724 0.0
C1111 C 0.2643 0.75782 0.80283 0.0
C1112 C 0.27154 0.75995 0.74731 0.0
C1113 C 0.2418 0.75046 0.74213 0.0
H1114 H 0.30547 0.77156 0.78041 0.0
H1115 H 0.28642 0.7641 0.72806 0.0
S1116 S 0.1852 0.73164 0.80148 0.0
N1117 N 0.21527 0.74184 0.82119 0.0
N1118 N 0.19454 0.73462 0.76489 0.0
C1119 C 0.22334 0.74452 0.76752 0.0
C1120 C 0.2346 0.74823 0.79792 0.0
C1121 C 0.52389 0.00492 0.04497 0.0
C1122 C 0.49565 0.01688 0.05243 0.0
C1123 C 0.52925 0.99266 1.01583 0.0
C1124 C 0.50662 0.99219 0.99317 0.0
H1125 H 0.54169 0.00449 0.06194 0.0
H1126 H 0.55131 0.98348 1.01095 0.0
S1127 S 0.42941 0.02238 1.00098 0.0
N1128 N 0.44511 0.02853 0.03477 0.0
N1129 N 0.45538 0.00568 0.97988 0.0
C1130 C 0.4784 0.00431 1.00033 0.0
C1131 C 0.47291 0.01672 0.02998 0.0
C1132 C 0.22236 0.76548 0.26635 0.0
C1133 C 0.24048 0.75815 0.24101 0.0
C1134 C 0.23316 0.76207 0.29642 0.0
C1135 C 0.26246 0.75148 0.30196 0.0
H1136 H 0.19987 0.77423 0.26285 0.0
H1137 H 0.21844 0.76738 0.31548 0.0
S1138 S 0.31831 0.72856 0.24341 0.0
N1139 N 0.28876 0.7395 0.22329 0.0
N1140 N 0.30903 0.73298 0.27986 0.0
C1141 C 0.2807 0.74403 0.27683 0.0
C1142 C 0.26968 0.74738 0.24629 0.0
C1143 C 0.47269 0.99345 0.51405 0.0
C1144 C 0.49551 0.99294 0.4916 0.0
C1145 C 0.47795 0.00541 0.54337 0.0
C1146 C 0.5062 0.01726 0.55106 0.0
H1147 H 0.45068 0.98424 0.50898 0.0
H1148 H 0.46014 0.00467 0.56033 0.0
S1149 S 0.57241 0.02382 0.49961 0.0
N1150 N 0.54665 0.00692 0.47843 0.0
N1151 N 0.55658 0.02971 0.53338 0.0
C1152 C 0.5289 0.01764 0.52853 0.0
C1153 C 0.52358 0.00532 0.49884 0.0
C1154 C 0.25695 0.27289 0.75039 0.0
C1155 C 0.26875 0.24463 0.7427 0.0
C1156 C 0.24499 0.2782 0.77967 0.0
C1157 C 0.24457 0.25544 0.80221 0.0
H1158 H 0.25639 0.29077 0.73347 0.0
H1159 H 0.23588 0.30026 0.78471 0.0
S1160 S 0.27466 0.17823 0.79399 0.0
N1161 N 0.28061 0.19404 0.7602 0.0
N1162 N 0.2581 0.20414 0.81528 0.0
C1163 C 0.25663 0.22724 0.7949 0.0
C1164 C 0.26884 0.22183 0.76513 0.0
C1165 C 0.02861 0.01681 1.01377 0.0
C1166 C 0.00616 0.01744 0.99097 0.0
C1167 C 0.02284 0.00481 0.04299 0.0
C1168 C 0.99442 0.99308 0.05029 0.0
H1169 H 0.05086 0.02555 1.00889 0.0
H1170 H 0.04053 0.00509 0.06007 0.0
S1171 S 0.92877 0.98759 0.99802 0.0
N1172 N 0.95498 0.00429 0.97722 0.0
N1173 N 0.94408 0.98141 0.03198 0.0
C1174 C 0.97192 0.99327 0.02756 0.0
C1175 C 0.97778 0.00562 0.99793 0.0
C1176 C 0.73781 0.72794 0.77881 0.0
C1177 C 0.73768 0.75026 0.80178 0.0
C1178 C 0.75006 0.73355 0.7497 0.0
C1179 C 0.76233 0.76175 0.74254 0.0
H1180 H 0.72871 0.7058 0.78356 0.0
H1181 H 0.74965 0.71586 0.73261 0.0
S1182 S 0.76824 0.82742 0.79472 0.0
N1183 N 0.75138 0.80132 0.81557 0.0
N1184 N 0.77422 0.81208 0.76073 0.0
C1185 C 0.76218 0.78431 0.76519 0.0
C1186 C 0.74978 0.77856 0.79484 0.0
C1187 C 0.73694 0.24419 0.29598 0.0
C1188 C 0.7659 0.25576 0.30136 0.0
C1189 C 0.72583 0.241 0.266 0.0
C1190 C 0.74333 0.24944 0.24056 0.0
H1191 H 0.7227 0.23789 0.31513 0.0
H1192 H 0.70362 0.23154 0.26265 0.0
S1193 S 0.82019 0.28148 0.24243 0.0
N1194 N 0.81152 0.27623 0.27893 0.0
N1195 N 0.79077 0.26986 0.22252 0.0
C1196 C 0.77225 0.26103 0.24564 0.0
C1197 C 0.78354 0.26427 0.2761 0.0
C1198 C 0.75074 0.23054 0.75004 0.0
C1199 C 0.73931 0.25904 0.74252 0.0
C1200 C 0.76264 0.22482 0.7793 0.0
C1201 C 0.76353 0.24741 0.80196 0.0
H1202 H 0.75101 0.21278 0.73303 0.0
H1203 H 0.77139 0.20258 0.78421 0.0
S1204 S 0.73415 0.32499 0.79446 0.0
N1205 N 0.72791 0.30954 0.76058 0.0
N1206 N 0.7506 0.29875 0.81543 0.0
C1207 C 0.75177 0.27581 0.79486 0.0
C1208 C 0.73949 0.28161 0.76518 0.0
C1209 C 0.72403 0.76845 0.27804 0.0
C1210 C 0.7418 0.75991 0.30323 0.0
C1211 C 0.73484 0.7654 0.24793 0.0
C1212 C 0.76379 0.75398 0.24223 0.0
H1213 H 0.70182 0.77782 0.28168 0.0
H1214 H 0.72035 0.77156 0.22895 0.0
S1215 S 0.81865 0.72792 0.30037 0.0
N1216 N 0.7894 0.73936 0.32067 0.0
N1217 N 0.80966 0.73347 0.26401 0.0
C1218 C 0.7817 0.74538 0.26723 0.0
C1219 C 0.77068 0.74838 0.2978 0.0
C1220 C 0.50978 0.48595 0.9969 0.0
C1221 C 0.49733 0.51454 0.99144 0.0
C1222 C 0.51314 0.47492 0.02692 0.0
C1223 C 0.50386 0.49205 0.05231 0.0
H1224 H 0.51683 0.47203 0.9778 0.0
H1225 H 0.52354 0.45313 0.03035 0.0
S1226 S 0.46871 0.56757 0.0501 0.0
N1227 N 0.4748 0.55924 1.01366 0.0
N1228 N 0.4812 0.53855 0.07012 0.0
C1229 C 0.49104 0.52045 0.04709 0.0
C1230 C 0.48775 0.5317 1.01661 0.0
C1231 C 0.02349 0.50725 0.54412 0.0
C1232 C 0.99479 0.51802 0.55177 0.0
C1233 C 0.02918 0.49487 0.51505 0.0
C1234 C 0.00636 0.49286 0.49269 0.0
H1235 H 0.04144 0.50778 0.56092 0.0
H1236 H 0.05159 0.48663 0.51007 0.0
S1237 S 0.92808 0.52013 0.50063 0.0
N1238 N 0.94377 0.52752 0.53415 0.0
N1239 N 0.95453 0.50405 0.47965 0.0
C1240 C 0.97774 0.50397 0.49991 0.0
C1241 C 0.97197 0.5167 0.5294 0.0
C1242 C 0.00908 0.53172 0.02828 0.0
C1243 C 0.00643 0.51245 0.05371 0.0
C1244 C 0.00497 0.52085 0.99831 0.0
C1245 C 0.9982 0.49038 0.99287 0.0
H1246 H 0.01486 0.55518 0.03158 0.0
H1247 H 0.0069 0.53638 0.97924 0.0
S1248 S 0.98786 0.43119 0.0518 0.0
N1249 N 0.99608 0.46177 0.07167 0.0
N1250 N 0.98811 0.44142 1.01533 0.0
C1251 C 0.9953 0.47101 1.01812 0.0
C1252 C 0.99943 0.48205 0.04857 0.0
C1253 C 0.49561 0.48593 0.4964 0.0
C1254 C 0.50689 0.515 0.49094 0.0
C1255 C 0.49206 0.47502 0.52644 0.0
C1256 C 0.49993 0.49279 0.55186 0.0
H1257 H 0.48976 0.47148 0.47728 0.0
H1258 H 0.48274 0.45274 0.52985 0.0
S1259 S 0.5315 0.56989 0.54969 0.0
N1260 N 0.52666 0.56096 0.51321 0.0
N1261 N 0.51993 0.54049 0.56971 0.0
C1262 C 0.51143 0.52176 0.54666 0.0
C1263 C 0.51492 0.53288 0.51615 0.0
C1264 C 0.39451 0.18008 0.1458 0.0
C1265 C 0.36346 0.17435 0.14263 0.0
C1266 C 0.41497 0.15699 0.15277 0.0
C1267 C 0.4053 0.12712 0.15703 0.0
H1268 H 0.40327 0.2026 0.14252 0.0
H1269 H 0.43864 0.1626 0.15425 0.0
S1270 S 0.32603 0.10033 0.15313 0.0
N1271 N 0.32391 0.13664 0.14558 0.0
N1272 N 0.36205 0.09338 0.15882 0.0
C1273 C 0.37414 0.1212 0.15469 0.0
C1274 C 0.35335 0.14472 0.14743 0.0
C1275 C 0.07591 0.14701 0.39592 0.0
C1276 C 0.08138 0.11582 0.39371 0.0
C1277 C 0.09905 0.16741 0.40295 0.0
C1278 C 0.12868 0.15752 0.40823 0.0
H1279 H 0.0536 0.1559 0.39174 0.0
H1280 H 0.09371 0.19118 0.40356 0.0
S1281 S 0.15453 0.07783 0.40763 0.0
N1282 N 0.11844 0.07592 0.39902 0.0
N1283 N 0.16177 0.11393 0.41241 0.0
C1284 C 0.13426 0.12623 0.40703 0.0
C1285 C 0.11071 0.10551 0.3997 0.0
C1286 C 0.12826 0.88238 0.64717 0.0
C1287 C 0.0976 0.87661 0.6532 0.0
C1288 C 0.14848 0.85912 0.64026 0.0
C1289 C 0.1391 0.82892 0.63913 0.0
H1290 H 0.13682 0.9052 0.64729 0.0
H1291 H 0.1717 0.86501 0.63572 0.0
S1292 S 0.06147 0.80123 0.654 0.0
N1293 N 0.05904 0.83806 0.65819 0.0
N1294 N 0.09696 0.79437 0.64535 0.0
C1295 C 0.1086 0.82266 0.64558 0.0
C1296 C 0.08793 0.84643 0.65257 0.0
C1297 C 0.43017 0.86053 0.89318 0.0
C1298 C 0.42487 0.89182 0.89256 0.0
C1299 C 0.40702 0.83993 0.89969 0.0
C1300 C 0.37754 0.8497 0.906 0.0
H1301 H 0.45237 0.85173 0.88824 0.0
H1302 H 0.41223 0.81613 0.89916 0.0
S1303 S 0.35217 0.92946 0.90959 0.0
N1304 N 0.3881 0.9316 0.90037 0.0
N1305 N 0.34479 0.89322 0.91278 0.0
C1306 C 0.37212 0.88104 0.90626 0.0
C1307 C 0.39567 0.90197 0.89948 0.0
C1308 C 0.37783 0.88239 0.39469 0.0
C1309 C 0.40856 0.87632 0.38938 0.0
C1310 C 0.35737 0.85942 0.40177 0.0
C1311 C 0.36655 0.82923 0.40376 0.0
H1312 H 0.36939 0.90524 0.39392 0.0
H1313 H 0.3341 0.86553 0.40575 0.0
S1314 S 0.44425 0.80077 0.39093 0.0
N1315 N 0.44699 0.8375 0.38595 0.0
N1316 N 0.40857 0.79429 0.39908 0.0
C1317 C 0.39712 0.82263 0.39799 0.0
C1318 C 0.41806 0.84613 0.39085 0.0
C1319 C 0.40793 0.16534 0.64395 0.0
C1320 C 0.37839 0.15557 0.6379 0.0
C1321 C 0.43093 0.14482 0.65111 0.0
C1322 C 0.42546 0.11358 0.65264 0.0
H1323 H 0.4133 0.18911 0.64374 0.0
H1324 H 0.45318 0.15365 0.65574 0.0
S1325 S 0.35242 0.07593 0.63713 0.0
N1326 N 0.34531 0.1121 0.63268 0.0
N1327 N 0.38837 0.07384 0.64628 0.0
C1328 C 0.39618 0.10342 0.64608 0.0
C1329 C 0.37276 0.12428 0.63866 0.0
C1330 C 0.11171 0.17895 0.89985 0.0
C1331 C 0.1429 0.17317 0.90091 0.0
C1332 C 0.09088 0.15615 0.89301 0.0
C1333 C 0.10029 0.12652 0.88681 0.0
H1334 H 0.10317 0.20127 0.90474 0.0
H1335 H 0.06716 0.16172 0.89324 0.0
S1336 S 0.17965 0.09992 0.88426 0.0
N1337 N 0.18221 0.13581 0.89356 0.0
N1338 N 0.14335 0.0931 0.88056 0.0
C1339 C 0.13152 0.12061 0.88695 0.0
C1340 C 0.1527 0.14383 0.89405 0.0
C1341 C 0.13187 0.87868 0.14015 0.0
C1342 C 0.12601 0.84763 0.13692 0.0
C1343 C 0.10886 0.89934 0.14645 0.0
C1344 C 0.0788 0.89003 0.14978 0.0
H1345 H 0.15461 0.88725 0.1383 0.0
H1346 H 0.11484 0.92285 0.14887 0.0
S1347 S 0.05088 0.81142 0.14256 0.0
N1348 N 0.08749 0.80872 0.13686 0.0
N1349 N 0.04422 0.84748 0.14858 0.0
C1350 C 0.0724 0.85911 0.14607 0.0
C1351 C 0.09594 0.83799 0.13966 0.0
C1352 C 0.64688 0.85649 0.90542 0.0
C1353 C 0.63699 0.82651 0.90718 0.0
C1354 C 0.62689 0.88003 0.89912 0.0
C1355 C 0.59592 0.87481 0.89432 0.0
H1356 H 0.67037 0.86198 0.90892 0.0
H1357 H 0.63596 0.90264 0.89832 0.0
S1358 S 0.5583 0.80023 0.89595 0.0
N1359 N 0.59398 0.79272 0.90316 0.0
N1360 N 0.5564 0.83707 0.89144 0.0
C1361 C 0.58566 0.84488 0.8957 0.0
C1362 C 0.60613 0.82077 0.90211 0.0
C1363 C 0.93085 0.85913 0.64888 0.0
C1364 C 0.92544 0.89016 0.65283 0.0
C1365 C 0.90739 0.83893 0.6423 0.0
C1366 C 0.87749 0.8489 0.63916 0.0
H1367 H 0.95339 0.85018 0.65126 0.0
H1368 H 0.91275 0.81526 0.64012 0.0
S1369 S 0.85145 0.92831 0.64557 0.0
N1370 N 0.88799 0.93002 0.65195 0.0
N1371 N 0.84407 0.89246 0.63939 0.0
C1372 C 0.8719 0.88007 0.64233 0.0
C1373 C 0.89576 0.90055 0.64924 0.0
C1374 C 0.91824 0.15748 0.39419 0.0
C1375 C 0.90851 0.12773 0.38924 0.0
C1376 C 0.89768 0.18069 0.4005 0.0
C1377 C 0.86648 0.17517 0.40228 0.0
H1378 H 0.94199 0.16289 0.39372 0.0
H1379 H 0.90644 0.20311 0.40436 0.0
S1380 S 0.82893 0.10159 0.38938 0.0
N1381 N 0.8651 0.09439 0.38523 0.0
N1382 N 0.82679 0.13783 0.39724 0.0
C1383 C 0.85636 0.14566 0.39681 0.0
C1384 C 0.87724 0.12205 0.39023 0.0
C1385 C 0.6079 0.11015 0.14874 0.0
C1386 C 0.57792 0.11987 0.15154 0.0
C1387 C 0.63125 0.13044 0.14243 0.0
C1388 C 0.62582 0.16151 0.13865 0.0
H1389 H 0.61356 0.08661 0.15158 0.0
H1390 H 0.6539 0.12155 0.14098 0.0
S1391 S 0.55109 0.19867 0.14268 0.0
N1392 N 0.5439 0.16279 0.1492 0.0
N1393 N 0.5878 0.20086 0.13747 0.0
C1394 C 0.59585 0.17155 0.14088 0.0
C1395 C 0.57196 0.1508 0.1473 0.0
C1396 C 0.60888 0.17991 0.64333 0.0
C1397 C 0.64016 0.17458 0.64218 0.0
C1398 C 0.58835 0.15659 0.64941 0.0
C1399 C 0.59823 0.12696 0.65467 0.0
H1400 H 0.60005 0.20224 0.63907 0.0
H1401 H 0.56454 0.16175 0.64928 0.0
S1402 S 0.67799 0.10148 0.65685 0.0
N1403 N 0.68002 0.13766 0.64859 0.0
N1404 N 0.6418 0.09403 0.66019 0.0
C1405 C 0.62956 0.12153 0.65451 0.0
C1406 C 0.65039 0.14523 0.6482 0.0
C1407 C 0.59881 0.83994 0.40281 0.0
C1408 C 0.62845 0.84994 0.40786 0.0
C1409 C 0.57545 0.86029 0.39633 0.0
C1410 C 0.58068 0.89155 0.39448 0.0
H1411 H 0.59362 0.81613 0.40322 0.0
H1412 H 0.55315 0.8513 0.39231 0.0
S1413 S 0.65382 0.92979 0.40781 0.0
N1414 N 0.66133 0.89368 0.41207 0.0
N1415 N 0.61762 0.93159 0.39974 0.0
C1416 C 0.61005 0.90195 0.40019 0.0
C1417 C 0.63382 0.88128 0.40694 0.0
C1418 C 0.87755 0.88353 0.14956 0.0
C1419 C 0.90848 0.87794 0.15412 0.0
C1420 C 0.85737 0.86033 0.14252 0.0
C1421 C 0.86706 0.83035 0.13982 0.0
H1422 H 0.8687 0.90621 0.15092 0.0
H1423 H 0.83393 0.86609 0.13916 0.0
S1424 S 0.94551 0.80312 0.15037 0.0
N1425 N 0.94768 0.83979 0.15597 0.0
N1426 N 0.90978 0.79611 0.14293 0.0
C1427 C 0.89784 0.82421 0.14482 0.0
C1428 C 0.91849 0.84796 0.15193 0.0
C1429 C 0.93086 0.14715 0.89236 0.0
C1430 C 0.92611 0.11581 0.89084 0.0
C1431 C 0.90729 0.16714 0.89918 0.0
C1432 C 0.87791 0.15668 0.90488 0.0
H1433 H 0.95294 0.15647 0.88789 0.0
H1434 H 0.9121 0.19103 0.89935 0.0
S1435 S 0.85386 0.07646 0.90595 0.0
N1436 N 0.88993 0.0752 0.89715 0.0
N1437 N 0.84582 0.11247 0.91004 0.0
C1438 C 0.87302 0.12527 0.90424 0.0
C1439 C 0.89701 0.10496 0.89718 0.0
C1440 C 0.91528 0.6575 0.65393 0.0
C1441 C 0.90526 0.62787 0.65908 0.0
C1442 C 0.89497 0.68092 0.64768 0.0
C1443 C 0.8637 0.67577 0.64621 0.0
H1444 H 0.9391 0.66265 0.65405 0.0
H1445 H 0.904 0.70319 0.64354 0.0
S1446 S 0.82541 0.60272 0.66009 0.0
N1447 N 0.86153 0.59508 0.66388 0.0
N1448 N 0.82361 0.63895 0.65202 0.0
C1449 C 0.85326 0.64643 0.65208 0.0
C1450 C 0.87393 0.62257 0.65856 0.0
C1451 C 0.59846 0.66528 0.89861 0.0
C1452 C 0.62783 0.65475 0.90397 0.0
C1453 C 0.57475 0.64528 0.89239 0.0
C1454 C 0.5794 0.6139 0.89121 0.0
H1455 H 0.59379 0.68921 0.89853 0.0
H1456 H 0.55264 0.65462 0.88808 0.0
S1457 S 0.65158 0.57447 0.90615 0.0
N1458 N 0.6598 0.61051 0.90954 0.0
N1459 N 0.61542 0.57322 0.89772 0.0
C1460 C 0.6085 0.60302 0.89731 0.0
C1461 C 0.63261 0.62333 0.90374 0.0
C1462 C 0.59149 0.35081 0.1512 0.0
C1463 C 0.60098 0.38097 0.15299 0.0
C1464 C 0.61192 0.32748 0.14502 0.0
C1465 C 0.64277 0.33323 0.14023 0.0
H1466 H 0.56799 0.34509 0.15418 0.0
H1467 H 0.60327 0.30473 0.14373 0.0
S1468 S 0.67967 0.40816 0.14358 0.0
N1469 N 0.64383 0.41516 0.15033 0.0
N1470 N 0.68193 0.37142 0.13864 0.0
C1471 C 0.6527 0.36323 0.1424 0.0
C1472 C 0.63193 0.38701 0.14881 0.0
C1473 C 0.93029 0.35904 0.39584 0.0
C1474 C 0.92492 0.39027 0.39391 0.0
C1475 C 0.90691 0.33856 0.40174 0.0
C1476 C 0.87709 0.34837 0.40606 0.0
H1477 H 0.95273 0.35019 0.3924 0.0
H1478 H 0.91225 0.31479 0.40233 0.0
S1479 S 0.85122 0.42803 0.40537 0.0
N1480 N 0.88762 0.43007 0.39823 0.0
N1481 N 0.84382 0.39187 0.4094 0.0
C1482 C 0.87154 0.37965 0.40497 0.0
C1483 C 0.89535 0.40048 0.39885 0.0
C1484 C 0.87841 0.38195 0.89215 0.0
C1485 C 0.90944 0.37658 0.8881 0.0
C1486 C 0.85822 0.35851 0.89841 0.0
C1487 C 0.86804 0.32853 0.90084 0.0
H1488 H 0.86951 0.40462 0.891 0.0
H1489 H 0.8347 0.36409 0.9015 0.0
S1490 S 0.94679 0.30187 0.89116 0.0
N1491 N 0.94885 0.33864 0.88624 0.0
N1492 N 0.91098 0.29457 0.89787 0.0
C1493 C 0.89892 0.32264 0.89627 0.0
C1494 C 0.91955 0.3466 0.88993 0.0
C1495 C 0.87243 0.62951 0.15169 0.0
C1496 C 0.87814 0.66 0.14469 0.0
C1497 C 0.89578 0.60921 0.15767 0.0
C1498 C 0.92603 0.61832 0.15683 0.0
H1499 H 0.84959 0.62108 0.1529 0.0
H1500 H 0.88994 0.58612 0.16298 0.0
S1501 S 0.95358 0.69551 0.13936 0.0
N1502 N 0.91661 0.69822 0.13707 0.0
N1503 N 0.9606 0.66006 0.14815 0.0
C1504 C 0.93224 0.64867 0.14955 0.0
C1505 C 0.90833 0.66946 0.14353 0.0
C1506 C 0.64838 0.64735 0.40136 0.0
C1507 C 0.63868 0.67746 0.40233 0.0
C1508 C 0.62837 0.62382 0.39482 0.0
C1509 C 0.59763 0.62923 0.38899 0.0
H1510 H 0.67168 0.64174 0.40584 0.0
H1511 H 0.63715 0.60108 0.39486 0.0
S1512 S 0.5607 0.70421 0.38768 0.0
N1513 N 0.59617 0.71152 0.39603 0.0
N1514 N 0.55864 0.66733 0.38387 0.0
C1515 C 0.58765 0.65931 0.38938 0.0
C1516 C 0.60809 0.68335 0.39602 0.0
C1517 C 0.63326 0.37715 0.64253 0.0
C1518 C 0.62744 0.34637 0.63723 0.0
C1519 C 0.61006 0.39748 0.64921 0.0
C1520 C 0.57989 0.38807 0.65083 0.0
H1521 H 0.65607 0.3857 0.64208 0.0
H1522 H 0.61596 0.42078 0.65328 0.0
S1523 S 0.55211 0.31018 0.63763 0.0
N1524 N 0.5889 0.30769 0.63322 0.0
N1525 N 0.54531 0.34583 0.64566 0.0
C1526 C 0.57358 0.35746 0.645 0.0
C1527 C 0.59729 0.33669 0.63823 0.0
C1528 C 0.08885 0.34861 0.39345 0.0
C1529 C 0.09851 0.37857 0.38974 0.0
C1530 C 0.10939 0.32529 0.39949 0.0
C1531 C 0.14052 0.33085 0.4022 0.0
H1532 H 0.06515 0.3431 0.39217 0.0
H1533 H 0.10064 0.30271 0.40234 0.0
S1534 S 0.1779 0.4051 0.39309 0.0
N1535 N 0.14182 0.41224 0.38817 0.0
N1536 N 0.18006 0.3686 0.39962 0.0
C1537 C 0.15058 0.3606 0.39801 0.0
C1538 C 0.12972 0.38434 0.39174 0.0
C1539 C 0.39854 0.39659 0.15248 0.0
C1540 C 0.42851 0.38668 0.15396 0.0
C1541 C 0.37495 0.37659 0.14643 0.0
C1542 C 0.38012 0.34561 0.14164 0.0
H1543 H 0.39308 0.42009 0.15604 0.0
H1544 H 0.35234 0.38566 0.14587 0.0
S1545 S 0.45468 0.30799 0.14249 0.0
N1546 N 0.46226 0.34368 0.14959 0.0
N1547 N 0.41782 0.30608 0.13836 0.0
C1548 C 0.41005 0.33535 0.14268 0.0
C1549 C 0.43421 0.35583 0.14881 0.0
C1550 C 0.39682 0.68089 0.89876 0.0
C1551 C 0.36567 0.67579 0.90194 0.0
C1552 C 0.41685 0.6573 0.89216 0.0
C1553 C 0.40661 0.62755 0.88827 0.0
H1554 H 0.40599 0.70327 0.90182 0.0
H1555 H 0.44063 0.66242 0.89065 0.0
S1556 S 0.32681 0.60243 0.89208 0.0
N1557 N 0.32539 0.63885 0.89923 0.0
N1558 N 0.3627 0.59469 0.88668 0.0
C1559 C 0.37534 0.62229 0.89058 0.0
C1560 C 0.355 0.6463 0.89746 0.0
C1561 C 0.09775 0.66797 0.64661 0.0
C1562 C 0.127 0.65746 0.6405 0.0
C1563 C 0.07397 0.64786 0.65242 0.0
C1564 C 0.07846 0.61642 0.65242 0.0
H1565 H 0.09328 0.69191 0.64765 0.0
H1566 H 0.05197 0.65713 0.6574 0.0
S1567 S 0.15019 0.57714 0.63499 0.0
N1568 N 0.15857 0.61323 0.63279 0.0
N1569 N 0.11415 0.57581 0.64389 0.0
C1570 C 0.1074 0.60561 0.64549 0.0
C1571 C 0.13154 0.626 0.63947 0.0
C1572 C 0.12723 0.62294 0.15137 0.0
C1573 C 0.09624 0.62831 0.15575 0.0
C1574 C 0.14729 0.64632 0.14449 0.0
C1575 C 0.13741 0.67626 0.14175 0.0
H1576 H 0.13619 0.60031 0.15275 0.0
H1577 H 0.17079 0.64074 0.1412 0.0
S1578 S 0.05872 0.70292 0.15197 0.0
N1579 N 0.05678 0.66622 0.15749 0.0
N1580 N 0.09444 0.71018 0.14471 0.0
C1581 C 0.10657 0.68216 0.14661 0.0
C1582 C 0.08605 0.65825 0.15358 0.0
C1583 C 0.10976 0.39523 0.88927 0.0
C1584 C 0.07956 0.38598 0.88938 0.0
C1585 C 0.13305 0.37498 0.89551 0.0
C1586 C 0.12735 0.34437 0.90201 0.0
H1587 H 0.11561 0.4184 0.88432 0.0
H1588 H 0.15586 0.38353 0.89479 0.0
S1589 S 0.05198 0.30857 0.90564 0.0
N1590 N 0.04498 0.34407 0.89705 0.0
N1591 N 0.08891 0.30595 0.90858 0.0
C1592 C 0.09718 0.33479 0.90253 0.0
C1593 C 0.07331 0.35556 0.89628 0.0
C1594 C 0.41834 0.34854 0.65193 0.0
C1595 C 0.40818 0.37843 0.65472 0.0
C1596 C 0.39828 0.32479 0.64603 0.0
C1597 C 0.36714 0.32984 0.64252 0.0
H1598 H 0.44209 0.3434 0.65385 0.0
H1599 H 0.4074 0.30229 0.64388 0.0
S1600 S 0.32853 0.40372 0.64906 0.0
N1601 N 0.3644 0.4115 0.65456 0.0
N1602 N 0.32702 0.36705 0.64337 0.0
C1603 C 0.35657 0.35953 0.64579 0.0
C1604 C 0.37695 0.3837 0.65193 0.0
C1605 C 0.37333 0.62856 0.39464 0.0
C1606 C 0.37855 0.65947 0.39987 0.0
C1607 C 0.39692 0.60854 0.38867 0.0
C1608 C 0.42696 0.61835 0.38773 0.0
H1609 H 0.35067 0.61958 0.39485 0.0
H1610 H 0.39144 0.5851 0.3848 0.0
S1611 S 0.45324 0.69689 0.40011 0.0
N1612 N 0.41634 0.69886 0.40388 0.0
N1613 N 0.46079 0.66123 0.39281 0.0
C1614 C 0.43269 0.64914 0.3932 0.0
C1615 C 0.40853 0.66965 0.39924 0.0
C1616 C 0.2588 0.30738 0.03705 0.0
C1617 C 0.26854 0.28065 0.05131 0.0
C1618 C 0.24402 0.30713 1.00876 0.0
C1619 C 0.23774 0.28013 0.99319 0.0
H1620 H 0.26281 0.32903 0.04773 0.0
H1621 H 0.23739 0.32855 0.99897 0.0
S1622 S 0.25782 0.20359 1.02037 0.0
N1623 N 0.27061 0.22608 0.04764 0.0
N1624 N 0.24228 0.22563 0.99421 0.0
C1625 C 0.24692 0.25302 1.00714 0.0
C1626 C 0.26255 0.25329 0.03611 0.0
C1627 C 0.96738 0.02129 0.24559 0.0
C1628 C 0.9793 0.99216 0.24089 0.0
C1629 C 0.96868 0.03552 0.27436 0.0
C1630 C 0.98185 0.02126 0.29974 0.0
H1631 H 0.95611 0.03297 0.22705 0.0
H1632 H 0.95794 0.05724 0.27711 0.0
S1633 S 0.01779 0.946 0.3 0.0
N1634 N 0.00628 0.95042 0.2642 0.0
N1635 N 0.00805 0.97701 0.31841 0.0
C1636 C 0.99485 0.99273 0.29532 0.0
C1637 C 0.99388 0.97829 0.26585 0.0
C1638 C 0.24324 0.74734 0.53539 0.0
C1639 C 0.23809 0.72015 0.55136 0.0
C1640 C 0.25858 0.74772 0.50682 0.0
C1641 C 0.26892 0.72088 0.4931 0.0
H1642 H 0.23573 0.76844 0.54517 0.0
H1643 H 0.2617 0.769 0.49511 0.0
S1644 S 0.26135 0.64384 0.52531 0.0
N1645 N 0.24461 0.66572 0.55063 0.0
N1646 N 0.27356 0.66666 0.49819 0.0
C1647 C 0.26403 0.69376 0.509 0.0
C1648 C 0.24859 0.69333 0.53771 0.0
C1649 C 0.50718 0.99386 0.78737 0.0
C1650 C 0.53449 0.98598 0.80188 0.0
C1651 C 0.50692 0.00944 0.75891 0.0
C1652 C 0.53395 0.01748 0.74399 0.0
H1653 H 0.48597 0.98841 0.79827 0.0
H1654 H 0.48553 0.0147 0.74831 0.0
S1655 S 0.61131 1.00204 0.77231 0.0
N1656 N 0.58907 0.98676 0.79827 0.0
N1657 N 0.58857 0.01715 0.74672 0.0
C1658 C 0.56119 0.00988 0.75857 0.0
C1659 C 0.56146 0.99383 0.7869 0.0
C1660 C 0.75857 0.74856 0.03758 0.0
C1661 C 0.76915 0.72187 0.05144 0.0
C1662 C 0.74293 0.74787 1.00921 0.0
C1663 C 0.7377 0.72051 0.99362 0.0
H1664 H 0.76173 0.76994 0.04905 0.0
H1665 H 0.73527 0.76885 0.99927 0.0
S1666 S 0.76137 0.64451 1.02021 0.0
N1667 N 0.77389 0.66761 0.04689 0.0
N1668 N 0.74427 0.66611 0.99488 0.0
C1669 C 0.74839 0.69384 1.00742 0.0
C1670 C 0.76418 0.69459 0.0359 0.0
C1671 C 0.02451 0.98605 0.79746 0.0
C1672 C 0.02379 0.01772 0.79992 0.0
C1673 C 0.02418 0.97155 0.76871 0.0
C1674 C 0.02402 0.98822 0.7413 0.0
H1675 H 0.02636 0.97237 0.81798 0.0
H1676 H 0.02594 0.94725 0.76794 0.0
S1677 S 0.02094 0.07144 0.73493 0.0
N1678 N 0.02124 0.06508 0.77231 0.0
N1679 N 0.02182 0.03801 0.71838 0.0
C1680 C 0.0223 0.01981 0.74344 0.0
C1681 C 0.02183 0.03452 0.7727 0.0
C1682 C 0.7212 0.2732 0.52329 0.0
C1683 C 0.73803 0.27151 0.55053 0.0
C1684 C 0.73552 0.27412 0.49445 0.0
C1685 C 0.76713 0.27256 0.4917 0.0
H1686 H 0.69699 0.27575 0.52434 0.0
H1687 H 0.72177 0.27709 0.47414 0.0
S1688 S 0.82112 0.26596 0.55611 0.0
N1689 N 0.78783 0.2672 0.57296 0.0
N1690 N 0.81454 0.26768 0.51882 0.0
C1691 C 0.78402 0.26912 0.5187 0.0
C1692 C 0.76952 0.26897 0.54807 0.0
C1693 C 0.4805 0.01967 0.29924 0.0
C1694 C 0.48179 0.98803 0.30178 0.0
C1695 C 0.4812 0.03414 0.27046 0.0
C1696 C 0.48232 0.01742 0.24312 0.0
H1697 H 0.47785 0.03331 0.31966 0.0
H1698 H 0.47884 0.05839 0.26956 0.0
S1699 S 0.48702 0.93426 0.23707 0.0
N1700 N 0.48588 0.94068 0.27441 0.0
N1701 N 0.48585 0.96764 0.22039 0.0
C1702 C 0.48462 0.98588 0.24539 0.0
C1703 C 0.48474 0.97123 0.27468 0.0
C1704 C 0.73689 0.77306 0.5488 0.0
C1705 C 0.76852 0.77319 0.55161 0.0
C1706 C 0.72273 0.773 0.51987 0.0
C1707 C 0.73972 0.77406 0.49268 0.0
H1708 H 0.72296 0.77418 0.56918 0.0
H1709 H 0.69841 0.77416 0.51884 0.0
S1710 S 0.82304 0.77352 0.48731 0.0
N1711 N 0.81623 0.77267 0.5246 0.0
N1712 N 0.7898 0.77387 0.47034 0.0
C1713 C 0.77131 0.77313 0.49517 0.0
C1714 C 0.78567 0.77234 0.52459 0.0
C1715 C 0.48181 0.53393 0.774 0.0
C1716 C 0.48122 0.51689 0.80118 0.0
C1717 C 0.48164 0.51982 0.74503 0.0
C1718 C 0.48186 0.48818 0.74214 0.0
H1719 H 0.4805 0.55825 0.77509 0.0
H1720 H 0.48034 0.53379 0.72468 0.0
S1721 S 0.48246 0.43353 0.80637 0.0
N1722 N 0.48196 0.46673 0.8234 0.0
N1723 N 0.48298 0.44042 0.7691 0.0
C1724 C 0.48301 0.47099 0.76915 0.0
C1725 C 0.48232 0.4853 0.7986 0.0
C1726 C 0.77025 0.22994 0.04817 0.0
C1727 C 0.73864 0.23151 0.05088 0.0
C1728 C 0.78457 0.23049 1.0193 0.0
C1729 C 0.76774 0.23173 0.99203 0.0
H1730 H 0.78398 0.22733 0.06855 0.0
H1731 H 0.80879 0.22806 1.01829 0.0
S1732 S 0.68461 0.23682 0.9864 0.0
N1733 N 0.69121 0.23575 0.02371 0.0
N1734 N 0.71789 0.23541 0.96956 0.0
C1735 C 0.73623 0.23412 0.99446 0.0
C1736 C 0.72173 0.23441 0.02384 0.0
C1737 C 0.02318 0.51928 0.29971 0.0
C1738 C 0.02298 0.48763 0.30249 0.0
C1739 C 0.0227 0.53353 0.2708 0.0
C1740 C 0.02293 0.51662 0.24355 0.0
H1741 H 0.02474 0.53316 0.32009 0.0
H1742 H 0.02404 0.55785 0.26978 0.0
S1743 S 0.02147 0.4333 0.23806 0.0
N1744 N 0.02147 0.44 0.27537 0.0
N1745 N 0.02179 0.46659 0.22115 0.0
C1746 C 0.0218 0.48502 0.24602 0.0
C1747 C 0.02147 0.47056 0.27544 0.0
C1748 C 0.28628 0.23239 0.52379 0.0
C1749 C 0.26977 0.23439 0.5512 0.0
C1750 C 0.27163 0.23167 0.49513 0.0
C1751 C 0.24002 0.23371 0.49278 0.0
H1752 H 0.31044 0.2293 0.52456 0.0
H1753 H 0.28509 0.22833 0.47467 0.0
S1754 S 0.18686 0.24154 0.55778 0.0
N1755 N 0.2203 0.23977 0.57422 0.0
N1756 N 0.193 0.23958 0.52042 0.0
C1757 C 0.22348 0.23762 0.51993 0.0
C1758 C 0.23832 0.2376 0.54912 0.0
C1759 C 0.52855 0.48596 0.29794 0.0
C1760 C 0.52615 0.51752 0.30078 0.0
C1761 C 0.52763 0.4717 0.26906 0.0
C1762 C 0.52515 0.48856 0.24188 0.0
H1763 H 0.53203 0.47223 0.31819 0.0
H1764 H 0.53071 0.44755 0.26792 0.0
S1765 S 0.51748 0.57155 0.23659 0.0
N1766 N 0.51978 0.5649 0.27384 0.0
N1767 N 0.51941 0.53836 0.21964 0.0
C1768 C 0.52193 0.52 0.24446 0.0
C1769 C 0.52204 0.53441 0.27386 0.0
C1770 C 0.23727 0.772 0.99564 0.0
C1771 C 0.26893 0.773 0.99328 0.0
C1772 C 0.22268 0.77183 0.02437 0.0
C1773 C 0.2392 0.77367 0.0518 0.0
H1774 H 0.22364 0.77244 0.97503 0.0
H1775 H 0.19832 0.77224 0.02503 0.0
S1776 S 0.32242 0.77579 0.05836 0.0
N1777 N 0.3162 0.7743 1.021 0.0
N1778 N 0.28894 0.77528 0.07484 0.0
C1779 C 0.27085 0.77371 0.04976 0.0
C1780 C 0.28568 0.77303 1.02057 0.0
C1781 C 0.98221 0.48625 0.7461 0.0
C1782 C 0.98267 0.51793 0.74363 0.0
C1783 C 0.98317 0.47173 0.77485 0.0
C1784 C 0.98375 0.48838 0.80225 0.0
H1785 H 0.98002 0.47259 0.72563 0.0
H1786 H 0.98149 0.44742 0.77566 0.0
S1787 S 0.98627 0.57161 0.80853 0.0
N1788 N 0.98537 0.56528 0.77117 0.0
N1789 N 0.98598 0.53816 0.82511 0.0
C1790 C 0.98524 0.51998 0.80006 0.0
C1791 C 0.98505 0.53472 0.7708 0.0
C1792 C 0.19079 0.41407 0.12571 0.0
C1793 C 0.20058 0.40514 0.15495 0.0
C1794 C 0.16852 0.43597 0.12248 0.0
C1795 C 0.15525 0.44929 0.14836 0.0
H1796 H 0.20169 0.40558 0.10524 0.0
H1797 H 0.16256 0.44351 0.09961 0.0
S1798 S 0.17186 0.43215 0.22986 0.0
N1799 N 0.19432 0.40973 0.21016 0.0
N1800 N 0.15256 0.45135 0.20406 0.0
C1801 C 0.16376 0.43947 0.1777 0.0
C1802 C 0.18652 0.41727 0.18099 0.0
C1803 C 0.84912 0.93048 0.39831 0.0
C1804 C 0.8415 0.96107 0.40069 0.0
C1805 C 0.82671 0.90853 0.39552 0.0
C1806 C 0.79619 0.9167 0.39504 0.0
H1807 H 0.87247 0.92351 0.39898 0.0
H1808 H 0.83325 0.88515 0.39335 0.0
S1809 S 0.76482 0.99376 0.40051 0.0
N1810 N 0.80161 0.99844 0.40234 0.0
N1811 N 0.75946 0.95715 0.39716 0.0
C1812 C 0.78838 0.94718 0.39733 0.0
C1813 C 0.81108 0.96941 0.4003 0.0
C1814 C 0.3253 0.59679 0.6573 0.0
C1815 C 0.29487 0.58829 0.65813 0.0
C1816 C 0.34781 0.57535 0.65247 0.0
C1817 C 0.34044 0.54489 0.64849 0.0
H1818 H 0.33175 0.62007 0.66047 0.0
H1819 H 0.37103 0.58268 0.65128 0.0
S1820 S 0.26423 0.51117 0.64944 0.0
N1821 N 0.25855 0.54747 0.65502 0.0
N1822 N 0.30101 0.50709 0.64623 0.0
C1823 C 0.31019 0.53609 0.64966 0.0
C1824 C 0.28733 0.55783 0.65461 0.0
C1825 C 0.69445 0.03904 0.90535 0.0
C1826 C 0.66397 0.04651 0.90865 0.0
C1827 C 0.71594 0.06134 0.90028 0.0
C1828 C 0.7076 0.09176 0.89891 0.0
H1829 H 0.70163 0.01575 0.906 0.0
H1830 H 0.73924 0.05475 0.89744 0.0
S1831 S 0.63077 0.12294 0.90725 0.0
N1832 N 0.62648 0.08624 0.9115 0.0
N1833 N 0.66704 0.12839 0.9011 0.0
C1834 C 0.67726 0.09961 0.9026 0.0
C1835 C 0.65534 0.07686 0.90777 0.0
C1836 C 0.19211 0.54066 0.3973 0.0
C1837 C 0.16165 0.54881 0.39831 0.0
C1838 C 0.21429 0.56225 0.39213 0.0
C1839 C 0.20663 0.59264 0.38838 0.0
H1840 H 0.19881 0.51739 0.4003 0.0
H1841 H 0.23762 0.55519 0.39151 0.0
S1842 S 0.13007 0.62544 0.38926 0.0
N1843 N 0.1248 0.58917 0.39566 0.0
N1844 N 0.16675 0.62991 0.38518 0.0
C1845 C 0.17627 0.60113 0.38921 0.0
C1846 C 0.15364 0.57911 0.39443 0.0
C1847 C 0.69241 0.96562 0.63647 0.0
C1848 C 0.66203 0.95739 0.63427 0.0
C1849 C 0.71454 0.94393 0.64133 0.0
C1850 C 0.70692 0.91338 0.64362 0.0
H1851 H 0.69905 0.98905 0.63511 0.0
H1852 H 0.73777 0.95108 0.64329 0.0
S1853 S 0.63059 0.88032 0.63853 0.0
N1854 N 0.62537 0.9168 0.63355 0.0
N1855 N 0.66714 0.87582 0.64362 0.0
C1856 C 0.67667 0.90477 0.64109 0.0
C1857 C 0.65411 0.92689 0.63611 0.0
C1858 C 0.31205 0.46493 0.89679 0.0
C1859 C 0.3425 0.45695 0.89898 0.0
C1860 C 0.29004 0.44302 0.89237 0.0
C1861 C 0.29784 0.41249 0.89059 0.0
H1862 H 0.30523 0.4883 0.89823 0.0
H1863 H 0.26673 0.44996 0.8907 0.0
S1864 S 0.37445 0.38007 0.89521 0.0
N1865 N 0.37948 0.41665 0.89961 0.0
N1866 N 0.33788 0.37524 0.89056 0.0
C1867 C 0.3282 0.40416 0.89269 0.0
C1868 C 0.35066 0.42652 0.89713 0.0
C1869 C 0.84576 0.07587 0.14411 0.0
C1870 C 0.83776 0.04534 0.1425 0.0
C1871 C 0.82369 0.09806 0.14754 0.0
C1872 C 0.79314 0.0902 0.14934 0.0
H1873 H 0.86912 0.0826 0.14243 0.0
H1874 H 0.83055 0.1214 0.14914 0.0
S1875 S 0.76085 0.0134 0.14618 0.0
N1876 N 0.79751 0.00833 0.14293 0.0
N1877 N 0.75596 0.0501 0.14926 0.0
C1878 C 0.78495 0.05978 0.14778 0.0
C1879 C 0.80731 0.03728 0.1442 0.0
C1880 C 0.83855 0.57009 0.92051 0.0
C1881 C 0.8519 0.55619 0.89502 0.0
C1882 C 0.81669 0.59228 0.91663 0.0
C1883 C 0.80742 0.60092 0.88711 0.0
H1884 H 0.8441 0.5628 0.94357 0.0
H1885 H 0.80564 0.60117 0.93683 0.0
S1886 S 0.83655 0.57224 0.81304 0.0
N1887 N 0.85525 0.55318 0.83939 0.0
N1888 N 0.81421 0.59534 0.83207 0.0
C1889 C 0.82158 0.58817 0.86146 0.0
C1890 C 0.84393 0.56567 0.86541 0.0
C1891 C 0.1611 0.06895 0.66821 0.0
C1892 C 0.15364 0.0573 0.63925 0.0
C1893 C 0.18325 0.09105 0.67114 0.0
C1894 C 0.19826 0.10234 0.6452 0.0
H1895 H 0.15135 0.0595 0.68886 0.0
H1896 H 0.18969 0.09837 0.69393 0.0
S1897 S 0.1851 0.08072 0.56419 0.0
N1898 N 0.16125 0.05993 0.58408 0.0
N1899 N 0.20325 0.10139 0.58964 0.0
C1900 C 0.18978 0.09213 0.61601 0.0
C1901 C 0.16735 0.06953 0.61304 0.0
C1902 C 0.69335 0.46411 0.39845 0.0
C1903 C 0.66278 0.45664 0.40077 0.0
C1904 C 0.71502 0.44182 0.39429 0.0
C1905 C 0.7068 0.41137 0.3929 0.0
H1906 H 0.70053 0.48739 0.3995 0.0
H1907 H 0.73842 0.44843 0.39241 0.0
S1908 S 0.62971 0.38016 0.39831 0.0
N1909 N 0.62523 0.41688 0.40216 0.0
N1910 N 0.66619 0.37472 0.39361 0.0
C1911 C 0.67632 0.40352 0.3953 0.0
C1912 C 0.65419 0.42628 0.39946 0.0
C1913 C 0.31252 0.96521 0.14415 0.0
C1914 C 0.34299 0.95703 0.14384 0.0
C1915 C 0.29015 0.94354 0.14766 0.0
C1916 C 0.29756 0.91299 0.15043 0.0
H1917 H 0.30594 0.9886 0.14192 0.0
H1918 H 0.26684 0.95071 0.14789 0.0
S1919 S 0.37407 0.87998 0.15074 0.0
N1920 N 0.37963 0.91645 0.14597 0.0
N1921 N 0.33727 0.87548 0.15343 0.0
C1922 C 0.32793 0.90442 0.15021 0.0
C1923 C 0.35079 0.92656 0.14666 0.0
C1924 C 0.821 0.41514 0.67287 0.0
C1925 C 0.80691 0.40349 0.6466 0.0
C1926 C 0.84313 0.4373 0.67039 0.0
C1927 C 0.85156 0.44858 0.64155 0.0
H1928 H 0.81388 0.40802 0.69554 0.0
H1929 H 0.85215 0.447 0.69125 0.0
S1930 S 0.82259 0.42429 0.56578 0.0
N1931 N 0.80365 0.40388 0.59089 0.0
N1932 N 0.84576 0.44533 0.58619 0.0
C1933 C 0.83872 0.43605 0.61505 0.0
C1934 C 0.81625 0.41345 0.61757 0.0
C1935 C 0.28956 0.06241 0.39479 0.0
C1936 C 0.29781 0.09287 0.39371 0.0
C1937 C 0.31127 0.04003 0.39814 0.0
C1938 C 0.34189 0.04741 0.39992 0.0
H1939 H 0.26612 0.05586 0.39335 0.0
H1940 H 0.30406 0.01674 0.39905 0.0
S1941 S 0.37505 0.12387 0.39787 0.0
N1942 N 0.3385 0.12943 0.39402 0.0
N1943 N 0.37953 0.0871 0.4011 0.0
C1944 C 0.35051 0.07777 0.39885 0.0
C1945 C 0.32835 0.10063 0.39551 0.0
C1946 C 0.71322 0.56532 0.15241 0.0
C1947 C 0.70559 0.59567 0.15646 0.0
C1948 C 0.69106 0.54391 0.14653 0.0
C1949 C 0.66065 0.55222 0.14507 0.0
H1950 H 0.73651 0.55818 0.1533 0.0
H1951 H 0.69773 0.52067 0.14333 0.0
S1952 S 0.62918 0.62878 0.15476 0.0
N1953 N 0.6658 0.63306 0.15953 0.0
N1954 N 0.62389 0.59264 0.14773 0.0
C1955 C 0.65267 0.58246 0.14929 0.0
C1956 C 0.67528 0.6043 0.15525 0.0
C1957 C 0.16115 0.93715 0.87436 0.0
C1958 C 0.15209 0.94736 0.9034 0.0
C1959 C 0.18366 0.91543 0.87155 0.0
C1960 C 0.19748 0.90316 0.89768 0.0
H1961 H 0.15236 0.94742 0.85367 0.0
H1962 H 0.1913 0.9092 0.8488 0.0
S1963 S 0.18013 0.92102 0.97884 0.0
N1964 N 0.157 0.94239 0.95872 0.0
N1965 N 0.19977 0.9017 0.95342 0.0
C1966 C 0.18747 0.91196 0.92685 0.0
C1967 C 0.16464 0.93414 0.9297 0.0
loop_
_geom_bond_atom_site_label_1
_geom_bond_atom_site_label_2
_geom_bond_distance
_geom_bond_site_symmetry_2
_ccdc_geom_bond_type
Co0 O3 1.970 . S
Co0 N17 1.989 . S
Co0 O25 1.967 . S
Co0 O32 1.920 . S
Co1 O4 1.966 . S
Co1 N10 2.022 . S
Co1 N18 1.993 . S
Co1 O26 1.941 . S
C2 O3 1.258 . S
C2 O4 1.263 . S
O3 Co0 1.970 . S
O3 C2 1.258 . S
O4 Co1 1.966 . S
O4 C2 1.263 . S
C5 O6 1.235 . S
C5 O32 1.289 . S
O6 C5 1.235 . S
C7 C9 1.400 . S
C7 N10 1.351 . S
C7 C12 1.501 . S
C8 C9 1.387 . S
C8 N11 1.341 . S
C9 C7 1.400 . S
C9 C8 1.387 . S
N10 Co1 2.022 . S
N10 C7 1.351 . S
N10 N11 1.365 . S
N11 C8 1.341 . S
N11 N10 1.365 . S
N11 H31 0.862 . S
C12 C7 1.501 . S
C12 H13 0.961 . S
C12 H14 0.961 . S
C12 H15 0.960 . S
H13 C12 0.961 . S
H14 C12 0.961 . S
H15 C12 0.960 . S
C16 N17 1.342 . S
C16 C20 1.401 . S
C16 C21 1.499 . S
N17 Co0 1.989 . S
N17 C16 1.342 . S
N17 N18 1.388 . S
N18 Co1 1.993 . S
N18 N17 1.388 . S
N18 C19 1.346 . S
C19 N18 1.346 . S
C19 C20 1.396 . S
C19 C29 1.510 . S
C20 C16 1.401 . S
C20 C19 1.396 . S
C21 C16 1.499 . S
C21 H22 0.959 . S
C21 H23 0.960 . S
C21 H24 0.961 . S
H22 C21 0.959 . S
H23 C21 0.960 . S
H24 C21 0.961 . S
O25 Co0 1.967 . S
O25 C33 1.258 . S
O26 Co1 1.941 . S
O26 C33 1.266 . S
H27 C29 0.959 . S
H28 C29 0.961 . S
C29 C19 1.510 . S
C29 H27 0.959 . S
C29 H28 0.961 . S
C29 H30 0.960 . S
H30 C29 0.960 . S
H31 N11 0.862 . S
O32 Co0 1.920 . S
O32 C5 1.289 . S
C33 O25 1.258 . S
C33 O26 1.266 . S
Co34 O37 1.970 . S
Co34 N51 1.989 . S
Co34 O59 1.967 . S
Co34 O66 1.920 1_655 S
Co35 O38 1.966 . S
Co35 N44 2.022 1_545 S
Co35 N52 1.993 . S
Co35 O60 1.941 . S
C36 O37 1.258 . S
C36 O38 1.263 . S
O37 Co34 1.970 . S
O37 C36 1.258 . S
O38 Co35 1.966 . S
O38 C36 1.263 . S
C39 O40 1.235 . S
C39 O66 1.289 . S
O40 C39 1.235 . S
C41 C43 1.400 . S
C41 N44 1.351 . S
C41 C46 1.501 . S
C42 C43 1.387 . S
C42 N45 1.341 . S
C43 C41 1.400 . S
C43 C42 1.387 . S
N44 Co35 2.022 1_565 S
N44 C41 1.351 . S
N44 N45 1.365 . S
N45 C42 1.341 . S
N45 N44 1.365 . S
N45 H65 0.862 1_565 S
C46 C41 1.501 . S
C46 H47 0.961 . S
C46 H48 0.961 . S
C46 H49 0.960 . S
H47 C46 0.961 . S
H48 C46 0.961 . S
H49 C46 0.960 . S
C50 N51 1.342 1_455 S
C50 C54 1.401 1_455 S
C50 C55 1.499 . S
N51 Co34 1.989 . S
N51 C50 1.342 1_655 S
N51 N52 1.388 . S
N52 Co35 1.993 . S
N52 N51 1.388 . S
N52 C53 1.346 . S
C53 N52 1.346 . S
C53 C54 1.396 . S
C53 C63 1.510 1_545 S
C54 C50 1.401 1_655 S
C54 C53 1.396 . S
C55 C50 1.499 . S
C55 H56 0.959 . S
C55 H57 0.960 . S
C55 H58 0.961 . S
H56 C55 0.959 . S
H57 C55 0.960 . S
H58 C55 0.961 . S
O59 Co34 1.967 . S
O59 C67 1.258 . S
O60 Co35 1.941 . S
O60 C67 1.266 . S
H61 C63 0.959 . S
H62 C63 0.961 . S
C63 C53 1.510 1_565 S
C63 H61 0.959 . S
C63 H62 0.961 . S
C63 H64 0.960 . S
H64 C63 0.960 . S
H65 N45 0.862 1_545 S
O66 Co34 1.920 1_455 S
O66 C39 1.289 . S
C67 O59 1.258 . S
C67 O60 1.266 . S
Co68 O71 1.970 . S
Co68 N85 1.989 . S
Co68 O93 1.967 . S
Co68 O100 1.920 . S
Co69 O72 1.966 . S
Co69 N78 2.022 . S
Co69 N86 1.993 . S
Co69 O94 1.941 . S
C70 O71 1.258 . S
C70 O72 1.263 . S
O71 Co68 1.970 . S
O71 C70 1.258 . S
O72 Co69 1.966 . S
O72 C70 1.263 . S
C73 O74 1.235 . S
C73 O100 1.289 . S
O74 C73 1.235 . S
C75 C77 1.400 . S
C75 N78 1.351 . S
C75 C80 1.501 . S
C76 C77 1.387 . S
C76 N79 1.341 . S
C77 C75 1.400 . S
C77 C76 1.387 . S
N78 Co69 2.022 . S
N78 C75 1.351 . S
N78 N79 1.365 . S
N79 C76 1.341 . S
N79 N78 1.365 . S
N79 H99 0.862 . S
C80 C75 1.501 . S
C80 H81 0.961 . S
C80 H82 0.961 . S
C80 H83 0.960 . S
H81 C80 0.961 . S
H82 C80 0.961 . S
H83 C80 0.960 . S
C84 N85 1.342 . S
C84 C88 1.401 . S
C84 C89 1.499 . S
N85 Co68 1.989 . S
N85 C84 1.342 . S
N85 N86 1.388 . S
N86 Co69 1.993 . S
N86 N85 1.388 . S
N86 C87 1.346 . S
C87 N86 1.346 . S
C87 C88 1.396 . S
C87 C97 1.510 . S
C88 C84 1.401 . S
C88 C87 1.396 . S
C89 C84 1.499 . S
C89 H90 0.959 . S
C89 H91 0.960 . S
C89 H92 0.961 . S
H90 C89 0.959 . S
H91 C89 0.960 . S
H92 C89 0.961 . S
O93 Co68 1.967 . S
O93 C101 1.258 . S
O94 Co69 1.941 . S
O94 C101 1.266 . S
H95 C97 0.959 . S
H96 C97 0.961 . S
C97 C87 1.510 . S
C97 H95 0.959 . S
C97 H96 0.961 . S
C97 H98 0.960 . S
H98 C97 0.960 . S
H99 N79 0.862 . S
O100 Co68 1.920 . S
O100 C73 1.289 . S
C101 O93 1.258 . S
C101 O94 1.266 . S
Co102 O105 1.970 . S
Co102 N119 1.989 . S
Co102 O127 1.967 . S
Co102 O134 1.920 . S
Co103 O106 1.966 . S
Co103 N112 2.022 1_565 S
Co103 N120 1.993 . S
Co103 O128 1.941 . S
C104 O105 1.258 . S
C104 O106 1.263 . S
O105 Co102 1.970 . S
O105 C104 1.258 . S
O106 Co103 1.966 . S
O106 C104 1.263 . S
C107 O108 1.235 . S
C107 O134 1.289 . S
O108 C107 1.235 . S
C109 C111 1.400 . S
C109 N112 1.351 . S
C109 C114 1.501 . S
C110 C111 1.387 . S
C110 N113 1.341 . S
C111 C109 1.400 . S
C111 C110 1.387 . S
N112 Co103 2.022 1_545 S
N112 C109 1.351 . S
N112 N113 1.365 . S
N113 C110 1.341 . S
N113 N112 1.365 . S
N113 H133 0.862 1_545 S
C114 C109 1.501 . S
C114 H115 0.961 . S
C114 H116 0.961 . S
C114 H117 0.960 . S
H115 C114 0.961 . S
H116 C114 0.961 . S
H117 C114 0.960 . S
C118 N119 1.342 . S
C118 C122 1.401 . S
C118 C123 1.499 . S
N119 Co102 1.989 . S
N119 C118 1.342 . S
N119 N120 1.388 . S
N120 Co103 1.993 . S
N120 N119 1.388 . S
N120 C121 1.346 . S
C121 N120 1.346 . S
C121 C122 1.396 . S
C121 C131 1.510 1_565 S
C122 C118 1.401 . S
C122 C121 1.396 . S
C123 C118 1.499 . S
C123 H124 0.959 . S
C123 H125 0.960 . S
C123 H126 0.961 . S
H124 C123 0.959 . S
H125 C123 0.960 . S
H126 C123 0.961 . S
O127 Co102 1.967 . S
O127 C135 1.258 . S
O128 Co103 1.941 . S
O128 C135 1.266 . S
H129 C131 0.959 . S
H130 C131 0.961 . S
C131 C121 1.510 1_545 S
C131 H129 0.959 . S
C131 H130 0.961 . S
C131 H132 0.960 . S
H132 C131 0.960 . S
H133 N113 0.862 1_565 S
O134 Co102 1.920 . S
O134 C107 1.289 . S
C135 O127 1.258 . S
C135 O128 1.266 . S
Co136 O139 1.970 . S
Co136 N153 1.989 . S
Co136 O161 1.967 . S
Co136 O168 1.920 . S
Co137 O140 1.966 . S
Co137 N146 2.022 . S
Co137 N154 1.993 . S
Co137 O162 1.941 . S
C138 O139 1.258 . S
C138 O140 1.263 . S
O139 Co136 1.970 . S
O139 C138 1.258 . S
O140 Co137 1.966 . S
O140 C138 1.263 . S
C141 O142 1.235 . S
C141 O168 1.289 . S
O142 C141 1.235 . S
C143 C145 1.400 . S
C143 N146 1.351 . S
C143 C148 1.501 . S
C144 C145 1.387 . S
C144 N147 1.341 . S
C145 C143 1.400 . S
C145 C144 1.387 . S
N146 Co137 2.022 . S
N146 C143 1.351 . S
N146 N147 1.365 . S
N147 C144 1.341 . S
N147 N146 1.365 . S
N147 H167 0.862 . S
C148 C143 1.501 . S
C148 H149 0.961 . S
C148 H150 0.961 . S
C148 H151 0.960 . S
H149 C148 0.961 . S
H150 C148 0.961 . S
H151 C148 0.960 . S
C152 N153 1.342 . S
C152 C156 1.401 . S
C152 C157 1.499 . S
N153 Co136 1.989 . S
N153 C152 1.342 . S
N153 N154 1.388 . S
N154 Co137 1.993 . S
N154 N153 1.388 . S
N154 C155 1.346 . S
C155 N154 1.346 . S
C155 C156 1.396 . S
C155 C165 1.510 . S
C156 C152 1.401 . S
C156 C155 1.396 . S
C157 C152 1.499 . S
C157 H158 0.959 . S
C157 H159 0.960 . S
C157 H160 0.961 . S
H158 C157 0.959 . S
H159 C157 0.960 . S
H160 C157 0.961 . S
O161 Co136 1.967 . S
O161 C169 1.258 . S
O162 Co137 1.941 . S
O162 C169 1.266 . S
H163 C165 0.959 . S
H164 C165 0.961 . S
C165 C155 1.510 . S
C165 H163 0.959 . S
C165 H164 0.961 . S
C165 H166 0.960 . S
H166 C165 0.960 . S
H167 N147 0.862 . S
O168 Co136 1.920 . S
O168 C141 1.289 . S
C169 O161 1.258 . S
C169 O162 1.266 . S
Co170 O173 1.970 . S
Co170 N187 1.989 . S
Co170 O195 1.967 . S
Co170 O202 1.920 . S
Co171 O174 1.966 . S
Co171 N180 2.022 1_545 S
Co171 N188 1.993 . S
Co171 O196 1.941 . S
C172 O173 1.258 . S
C172 O174 1.263 . S
O173 Co170 1.970 . S
O173 C172 1.258 . S
O174 Co171 1.966 . S
O174 C172 1.263 . S
C175 O176 1.235 . S
C175 O202 1.289 . S
O176 C175 1.235 . S
C177 C179 1.400 . S
C177 N180 1.351 . S
C177 C182 1.501 . S
C178 C179 1.387 . S
C178 N181 1.341 . S
C179 C177 1.400 . S
C179 C178 1.387 . S
N180 Co171 2.022 1_565 S
N180 C177 1.351 . S
N180 N181 1.365 . S
N181 C178 1.341 . S
N181 N180 1.365 . S
N181 H201 0.862 1_565 S
C182 C177 1.501 . S
C182 H183 0.961 . S
C182 H184 0.961 . S
C182 H185 0.960 . S
H183 C182 0.961 . S
H184 C182 0.961 . S
H185 C182 0.960 . S
C186 N187 1.342 . S
C186 C190 1.401 . S
C186 C191 1.499 . S
N187 Co170 1.989 . S
N187 C186 1.342 . S
N187 N188 1.388 . S
N188 Co171 1.993 . S
N188 N187 1.388 . S
N188 C189 1.346 . S
C189 N188 1.346 . S
C189 C190 1.396 . S
C189 C199 1.510 1_545 S
C190 C186 1.401 . S
C190 C189 1.396 . S
C191 C186 1.499 . S
C191 H192 0.959 . S
C191 H193 0.960 . S
C191 H194 0.961 . S
H192 C191 0.959 . S
H193 C191 0.960 . S
H194 C191 0.961 . S
O195 Co170 1.967 . S
O195 C203 1.258 . S
O196 Co171 1.941 . S
O196 C203 1.266 . S
H197 C199 0.959 . S
H198 C199 0.961 . S
C199 C189 1.510 1_565 S
C199 H197 0.959 . S
C199 H198 0.961 . S
C199 H200 0.960 . S
H200 C199 0.960 . S
H201 N181 0.862 1_545 S
O202 Co170 1.920 . S
O202 C175 1.289 . S
C203 O195 1.258 . S
C203 O196 1.266 . S
Co204 O207 1.970 . S
Co204 N221 1.989 . S
Co204 O229 1.967 . S
Co204 O236 1.920 . S
Co205 O208 1.966 . S
Co205 N214 2.022 . S
Co205 N222 1.993 . S
Co205 O230 1.941 . S
C206 O207 1.258 . S
C206 O208 1.263 . S
O207 Co204 1.970 . S
O207 C206 1.258 . S
O208 Co205 1.966 . S
O208 C206 1.263 . S
C209 O210 1.235 . S
C209 O236 1.289 . S
O210 C209 1.235 . S
C211 C213 1.400 . S
C211 N214 1.351 . S
C211 C216 1.501 . S
C212 C213 1.387 . S
C212 N215 1.341 . S
C213 C211 1.400 . S
C213 C212 1.387 . S
N214 Co205 2.022 . S
N214 C211 1.351 . S
N214 N215 1.365 . S
N215 C212 1.341 . S
N215 N214 1.365 . S
N215 H235 0.862 . S
C216 C211 1.501 . S
C216 H217 0.961 . S
C216 H218 0.961 . S
C216 H219 0.960 . S
H217 C216 0.961 . S
H218 C216 0.961 . S
H219 C216 0.960 . S
C220 N221 1.342 . S
C220 C224 1.401 . S
C220 C225 1.499 . S
N221 Co204 1.989 . S
N221 C220 1.342 . S
N221 N222 1.388 . S
N222 Co205 1.993 . S
N222 N221 1.388 . S
N222 C223 1.346 . S
C223 N222 1.346 . S
C223 C224 1.396 . S
C223 C233 1.510 . S
C224 C220 1.401 . S
C224 C223 1.396 . S
C225 C220 1.499 . S
C225 H226 0.959 . S
C225 H227 0.960 . S
C225 H228 0.961 . S
H226 C225 0.959 . S
H227 C225 0.960 . S
H228 C225 0.961 . S
O229 Co204 1.967 . S
O229 C237 1.258 . S
O230 Co205 1.941 . S
O230 C237 1.266 . S
H231 C233 0.959 . S
H232 C233 0.961 . S
C233 C223 1.510 . S
C233 H231 0.959 . S
C233 H232 0.961 . S
C233 H234 0.960 . S
H234 C233 0.960 . S
H235 N215 0.862 . S
O236 Co204 1.920 . S
O236 C209 1.289 . S
C237 O229 1.258 . S
C237 O230 1.266 . S
Co238 O241 1.970 . S
Co238 N255 1.989 . S
Co238 O263 1.967 . S
Co238 O270 1.920 1_655 S
Co239 O242 1.966 . S
Co239 N248 2.022 1_565 S
Co239 N256 1.993 . S
Co239 O264 1.941 . S
C240 O241 1.258 . S
C240 O242 1.263 . S
O241 Co238 1.970 . S
O241 C240 1.258 . S
O242 Co239 1.966 . S
O242 C240 1.263 . S
C243 O244 1.235 . S
C243 O270 1.289 . S
O244 C243 1.235 . S
C245 C247 1.400 . S
C245 N248 1.351 . S
C245 C250 1.501 . S
C246 C247 1.387 . S
C246 N249 1.341 . S
C247 C245 1.400 . S
C247 C246 1.387 . S
N248 Co239 2.022 1_545 S
N248 C245 1.351 . S
N248 N249 1.365 . S
N249 C246 1.341 . S
N249 N248 1.365 . S
N249 H269 0.862 1_545 S
C250 C245 1.501 . S
C250 H251 0.961 . S
C250 H252 0.961 . S
C250 H253 0.960 . S
H251 C250 0.961 . S
H252 C250 0.961 . S
H253 C250 0.960 . S
C254 N255 1.342 1_455 S
C254 C258 1.401 1_455 S
C254 C259 1.499 . S
N255 Co238 1.989 . S
N255 C254 1.342 1_655 S
N255 N256 1.388 . S
N256 Co239 1.993 . S
N256 N255 1.388 . S
N256 C257 1.346 . S
C257 N256 1.346 . S
C257 C258 1.396 . S
C257 C267 1.510 1_565 S
C258 C254 1.401 1_655 S
C258 C257 1.396 . S
C259 C254 1.499 . S
C259 H260 0.959 . S
C259 H261 0.960 . S
C259 H262 0.961 . S
H260 C259 0.959 . S
H261 C259 0.960 . S
H262 C259 0.961 . S
O263 Co238 1.967 . S
O263 C271 1.258 . S
O264 Co239 1.941 . S
O264 C271 1.266 . S
H265 C267 0.959 . S
H266 C267 0.961 . S
C267 C257 1.510 1_545 S
C267 H265 0.959 . S
C267 H266 0.961 . S
C267 H268 0.960 . S
H268 C267 0.960 . S
H269 N249 0.862 1_565 S
O270 Co238 1.920 1_455 S
O270 C243 1.289 . S
C271 O263 1.258 . S
C271 O264 1.266 . S
Co272 O275 1.970 . S
Co272 N289 1.989 . S
Co272 O297 1.967 . S
Co272 O304 1.920 . S
Co273 O276 1.966 . S
Co273 N282 2.022 . S
Co273 N290 1.993 . S
Co273 O298 1.941 . S
C274 O275 1.258 . S
C274 O276 1.263 . S
O275 Co272 1.970 . S
O275 C274 1.258 . S
O276 Co273 1.966 . S
O276 C274 1.263 . S
C277 O278 1.235 . S
C277 O304 1.289 . S
O278 C277 1.235 . S
C279 C281 1.400 . S
C279 N282 1.351 . S
C279 C284 1.501 . S
C280 C281 1.387 . S
C280 N283 1.341 . S
C281 C279 1.400 . S
C281 C280 1.387 . S
N282 Co273 2.022 . S
N282 C279 1.351 . S
N282 N283 1.365 . S
N283 C280 1.341 . S
N283 N282 1.365 . S
N283 H303 0.862 . S
C284 C279 1.501 . S
C284 H285 0.961 . S
C284 H286 0.961 . S
C284 H287 0.960 . S
H285 C284 0.961 . S
H286 C284 0.961 . S
H287 C284 0.960 . S
C288 N289 1.342 . S
C288 C292 1.401 . S
C288 C293 1.499 . S
N289 Co272 1.989 . S
N289 C288 1.342 . S
N289 N290 1.388 . S
N290 Co273 1.993 . S
N290 N289 1.388 . S
N290 C291 1.346 . S
C291 N290 1.346 . S
C291 C292 1.396 . S
C291 C301 1.510 . S
C292 C288 1.401 . S
C292 C291 1.396 . S
C293 C288 1.499 . S
C293 H294 0.959 . S
C293 H295 0.960 . S
C293 H296 0.961 . S
H294 C293 0.959 . S
H295 C293 0.960 . S
H296 C293 0.961 . S
O297 Co272 1.967 . S
O297 C305 1.258 . S
O298 Co273 1.941 . S
O298 C305 1.266 . S
H299 C301 0.959 . S
H300 C301 0.961 . S
C301 C291 1.510 . S
C301 H299 0.959 . S
C301 H300 0.961 . S
C301 H302 0.960 . S
H302 C301 0.960 . S
H303 N283 0.862 . S
O304 Co272 1.920 . S
O304 C277 1.289 . S
C305 O297 1.258 . S
C305 O298 1.266 . S
Co306 O309 1.970 . S
Co306 N323 1.989 . S
Co306 O331 1.967 . S
Co306 O338 1.920 1_455 S
Co307 O310 1.966 . S
Co307 N316 2.022 1_565 S
Co307 N324 1.993 . S
Co307 O332 1.941 . S
C308 O309 1.258 . S
C308 O310 1.263 . S
O309 Co306 1.970 . S
O309 C308 1.258 . S
O310 Co307 1.966 . S
O310 C308 1.263 . S
C311 O312 1.235 . S
C311 O338 1.289 . S
O312 C311 1.235 . S
C313 C315 1.400 . S
C313 N316 1.351 . S
C313 C318 1.501 . S
C314 C315 1.387 . S
C314 N317 1.341 . S
C315 C313 1.400 . S
C315 C314 1.387 . S
N316 Co307 2.022 1_545 S
N316 C313 1.351 . S
N316 N317 1.365 . S
N317 C314 1.341 . S
N317 N316 1.365 . S
N317 H337 0.862 1_545 S
C318 C313 1.501 . S
C318 H319 0.961 . S
C318 H320 0.961 . S
C318 H321 0.960 . S
H319 C318 0.961 . S
H320 C318 0.961 . S
H321 C318 0.960 . S
C322 N323 1.342 1_655 S
C322 C326 1.401 1_655 S
C322 C327 1.499 . S
N323 Co306 1.989 . S
N323 C322 1.342 1_455 S
N323 N324 1.388 . S
N324 Co307 1.993 . S
N324 N323 1.388 . S
N324 C325 1.346 . S
C325 N324 1.346 . S
C325 C326 1.396 . S
C325 C335 1.510 1_565 S
C326 C322 1.401 1_455 S
C326 C325 1.396 . S
C327 C322 1.499 . S
C327 H328 0.959 . S
C327 H329 0.960 . S
C327 H330 0.961 . S
H328 C327 0.959 . S
H329 C327 0.960 . S
H330 C327 0.961 . S
O331 Co306 1.967 . S
O331 C339 1.258 . S
O332 Co307 1.941 . S
O332 C339 1.266 . S
H333 C335 0.959 . S
H334 C335 0.961 . S
C335 C325 1.510 1_545 S
C335 H333 0.959 . S
C335 H334 0.961 . S
C335 H336 0.960 . S
H336 C335 0.960 . S
H337 N317 0.862 1_565 S
O338 Co306 1.920 1_655 S
O338 C311 1.289 . S
C339 O331 1.258 . S
C339 O332 1.266 . S
Co340 O343 1.970 . S
Co340 N357 1.989 . S
Co340 O365 1.967 . S
Co340 O372 1.920 . S
Co341 O344 1.966 . S
Co341 N350 2.022 . S
Co341 N358 1.993 . S
Co341 O366 1.941 . S
C342 O343 1.258 . S
C342 O344 1.263 . S
O343 Co340 1.970 . S
O343 C342 1.258 . S
O344 Co341 1.966 . S
O344 C342 1.263 . S
C345 O346 1.235 . S
C345 O372 1.289 . S
O346 C345 1.235 . S
C347 C349 1.400 . S
C347 N350 1.351 . S
C347 C352 1.501 . S
C348 C349 1.387 . S
C348 N351 1.341 . S
C349 C347 1.400 . S
C349 C348 1.387 . S
N350 Co341 2.022 . S
N350 C347 1.351 . S
N350 N351 1.365 . S
N351 C348 1.341 . S
N351 N350 1.365 . S
N351 H371 0.862 . S
C352 C347 1.501 . S
C352 H353 0.961 . S
C352 H354 0.961 . S
C352 H355 0.960 . S
H353 C352 0.961 . S
H354 C352 0.961 . S
H355 C352 0.960 . S
C356 N357 1.342 . S
C356 C360 1.401 . S
C356 C361 1.499 . S
N357 Co340 1.989 . S
N357 C356 1.342 . S
N357 N358 1.388 . S
N358 Co341 1.993 . S
N358 N357 1.388 . S
N358 C359 1.346 . S
C359 N358 1.346 . S
C359 C360 1.396 . S
C359 C369 1.510 . S
C360 C356 1.401 . S
C360 C359 1.396 . S
C361 C356 1.499 . S
C361 H362 0.959 . S
C361 H363 0.960 . S
C361 H364 0.961 . S
H362 C361 0.959 . S
H363 C361 0.960 . S
H364 C361 0.961 . S
O365 Co340 1.967 . S
O365 C373 1.258 . S
O366 Co341 1.941 . S
O366 C373 1.266 . S
H367 C369 0.959 . S
H368 C369 0.961 . S
C369 C359 1.510 . S
C369 H367 0.959 . S
C369 H368 0.961 . S
C369 H370 0.960 . S
H370 C369 0.960 . S
H371 N351 0.862 . S
O372 Co340 1.920 . S
O372 C345 1.289 . S
C373 O365 1.258 . S
C373 O366 1.266 . S
Co374 O377 1.970 . S
Co374 N391 1.989 . S
Co374 O399 1.967 . S
Co374 O406 1.920 . S
Co375 O378 1.966 . S
Co375 N384 2.022 1_545 S
Co375 N392 1.993 . S
Co375 O400 1.941 . S
C376 O377 1.258 . S
C376 O378 1.263 . S
O377 Co374 1.970 . S
O377 C376 1.258 . S
O378 Co375 1.966 . S
O378 C376 1.263 . S
C379 O380 1.235 . S
C379 O406 1.289 . S
O380 C379 1.235 . S
C381 C383 1.400 . S
C381 N384 1.351 . S
C381 C386 1.501 . S
C382 C383 1.387 . S
C382 N385 1.341 . S
C383 C381 1.400 . S
C383 C382 1.387 . S
N384 Co375 2.022 1_565 S
N384 C381 1.351 . S
N384 N385 1.365 . S
N385 C382 1.341 . S
N385 N384 1.365 . S
N385 H405 0.862 1_565 S
C386 C381 1.501 . S
C386 H387 0.961 . S
C386 H388 0.961 . S
C386 H389 0.960 . S
H387 C386 0.961 . S
H388 C386 0.961 . S
H389 C386 0.960 . S
C390 N391 1.342 . S
C390 C394 1.401 . S
C390 C395 1.499 . S
N391 Co374 1.989 . S
N391 C390 1.342 . S
N391 N392 1.388 . S
N392 Co375 1.993 . S
N392 N391 1.388 . S
N392 C393 1.346 . S
C393 N392 1.346 . S
C393 C394 1.396 . S
C393 C403 1.510 1_545 S
C394 C390 1.401 . S
C394 C393 1.396 . S
C395 C390 1.499 . S
C395 H396 0.959 . S
C395 H397 0.960 . S
C395 H398 0.961 . S
H396 C395 0.959 . S
H397 C395 0.960 . S
H398 C395 0.961 . S
O399 Co374 1.967 . S
O399 C407 1.258 . S
O400 Co375 1.941 . S
O400 C407 1.266 . S
H401 C403 0.959 . S
H402 C403 0.961 . S
C403 C393 1.510 1_565 S
C403 H401 0.959 . S
C403 H402 0.961 . S
C403 H404 0.960 . S
H404 C403 0.960 . S
H405 N385 0.862 1_545 S
O406 Co374 1.920 . S
O406 C379 1.289 . S
C407 O399 1.258 . S
C407 O400 1.266 . S
Co408 O411 1.970 . S
Co408 N425 1.989 . S
Co408 O433 1.967 . S
Co408 O440 1.920 . S
Co409 O412 1.966 . S
Co409 N418 2.022 . S
Co409 N426 1.993 . S
Co409 O434 1.941 . S
C410 O411 1.258 . S
C410 O412 1.263 . S
O411 Co408 1.970 . S
O411 C410 1.258 . S
O412 Co409 1.966 . S
O412 C410 1.263 . S
C413 O414 1.235 . S
C413 O440 1.289 . S
O414 C413 1.235 . S
C415 C417 1.400 . S
C415 N418 1.351 . S
C415 C420 1.501 . S
C416 C417 1.387 . S
C416 N419 1.341 . S
C417 C415 1.400 . S
C417 C416 1.387 . S
N418 Co409 2.022 . S
N418 C415 1.351 . S
N418 N419 1.365 . S
N419 C416 1.341 . S
N419 N418 1.365 . S
N419 H439 0.862 . S
C420 C415 1.501 . S
C420 H421 0.961 . S
C420 H422 0.961 . S
C420 H423 0.960 . S
H421 C420 0.961 . S
H422 C420 0.961 . S
H423 C420 0.960 . S
C424 N425 1.342 . S
C424 C428 1.401 . S
C424 C429 1.499 . S
N425 Co408 1.989 . S
N425 C424 1.342 . S
N425 N426 1.388 . S
N426 Co409 1.993 . S
N426 N425 1.388 . S
N426 C427 1.346 . S
C427 N426 1.346 . S
C427 C428 1.396 . S
C427 C437 1.510 . S
C428 C424 1.401 . S
C428 C427 1.396 . S
C429 C424 1.499 . S
C429 H430 0.959 . S
C429 H431 0.960 . S
C429 H432 0.961 . S
H430 C429 0.959 . S
H431 C429 0.960 . S
H432 C429 0.961 . S
O433 Co408 1.967 . S
O433 C441 1.258 . S
O434 Co409 1.941 . S
O434 C441 1.266 . S
H435 C437 0.959 . S
H436 C437 0.961 . S
C437 C427 1.510 . S
C437 H435 0.959 . S
C437 H436 0.961 . S
C437 H438 0.960 . S
H438 C437 0.960 . S
H439 N419 0.862 . S
O440 Co408 1.920 . S
O440 C413 1.289 . S
C441 O433 1.258 . S
C441 O434 1.266 . S
Co442 O445 1.970 . S
Co442 N459 1.989 . S
Co442 O467 1.967 . S
Co442 O474 1.920 . S
Co443 O446 1.966 . S
Co443 N452 2.022 1_565 S
Co443 N460 1.993 . S
Co443 O468 1.941 . S
C444 O445 1.258 . S
C444 O446 1.263 . S
O445 Co442 1.970 . S
O445 C444 1.258 . S
O446 Co443 1.966 . S
O446 C444 1.263 . S
C447 O448 1.235 . S
C447 O474 1.289 . S
O448 C447 1.235 . S
C449 C451 1.400 . S
C449 N452 1.351 . S
C449 C454 1.501 . S
C450 C451 1.387 . S
C450 N453 1.341 . S
C451 C449 1.400 . S
C451 C450 1.387 . S
N452 Co443 2.022 1_545 S
N452 C449 1.351 . S
N452 N453 1.365 . S
N453 C450 1.341 . S
N453 N452 1.365 . S
N453 H473 0.862 1_545 S
C454 C449 1.501 . S
C454 H455 0.961 . S
C454 H456 0.961 . S
C454 H457 0.960 . S
H455 C454 0.961 . S
H456 C454 0.961 . S
H457 C454 0.960 . S
C458 N459 1.342 . S
C458 C462 1.401 . S
C458 C463 1.499 . S
N459 Co442 1.989 . S
N459 C458 1.342 . S
N459 N460 1.388 . S
N460 Co443 1.993 . S
N460 N459 1.388 . S
N460 C461 1.346 . S
C461 N460 1.346 . S
C461 C462 1.396 . S
C461 C471 1.510 1_565 S
C462 C458 1.401 . S
C462 C461 1.396 . S
C463 C458 1.499 . S
C463 H464 0.959 . S
C463 H465 0.960 . S
C463 H466 0.961 . S
H464 C463 0.959 . S
H465 C463 0.960 . S
H466 C463 0.961 . S
O467 Co442 1.967 . S
O467 C475 1.258 . S
O468 Co443 1.941 . S
O468 C475 1.266 . S
H469 C471 0.959 . S
H470 C471 0.961 . S
C471 C461 1.510 1_545 S
C471 H469 0.959 . S
C471 H470 0.961 . S
C471 H472 0.960 . S
H472 C471 0.960 . S
H473 N453 0.862 1_565 S
O474 Co442 1.920 . S
O474 C447 1.289 . S
C475 O467 1.258 . S
C475 O468 1.266 . S
Co476 O479 1.970 . S
Co476 N493 1.989 . S
Co476 O501 1.967 . S
Co476 O508 1.920 . S
Co477 O480 1.966 . S
Co477 N486 2.022 . S
Co477 N494 1.993 . S
Co477 O502 1.941 . S
C478 O479 1.258 . S
C478 O480 1.263 . S
O479 Co476 1.970 . S
O479 C478 1.258 . S
O480 Co477 1.966 . S
O480 C478 1.263 . S
C481 O482 1.235 . S
C481 O508 1.289 . S
O482 C481 1.235 . S
C483 C485 1.400 . S
C483 N486 1.351 . S
C483 C488 1.501 . S
C484 C485 1.387 . S
C484 N487 1.341 . S
C485 C483 1.400 . S
C485 C484 1.387 . S
N486 Co477 2.022 . S
N486 C483 1.351 . S
N486 N487 1.365 . S
N487 C484 1.341 . S
N487 N486 1.365 . S
N487 H507 0.862 . S
C488 C483 1.501 . S
C488 H489 0.961 . S
C488 H490 0.961 . S
C488 H491 0.960 . S
H489 C488 0.961 . S
H490 C488 0.961 . S
H491 C488 0.960 . S
C492 N493 1.342 . S
C492 C496 1.401 . S
C492 C497 1.499 . S
N493 Co476 1.989 . S
N493 C492 1.342 . S
N493 N494 1.388 . S
N494 Co477 1.993 . S
N494 N493 1.388 . S
N494 C495 1.346 . S
C495 N494 1.346 . S
C495 C496 1.396 . S
C495 C505 1.510 . S
C496 C492 1.401 . S
C496 C495 1.396 . S
C497 C492 1.499 . S
C497 H498 0.959 . S
C497 H499 0.960 . S
C497 H500 0.961 . S
H498 C497 0.959 . S
H499 C497 0.960 . S
H500 C497 0.961 . S
O501 Co476 1.967 . S
O501 C509 1.258 . S
O502 Co477 1.941 . S
O502 C509 1.266 . S
H503 C505 0.959 . S
H504 C505 0.961 . S
C505 C495 1.510 . S
C505 H503 0.959 . S
C505 H504 0.961 . S
C505 H506 0.960 . S
H506 C505 0.960 . S
H507 N487 0.862 . S
O508 Co476 1.920 . S
O508 C481 1.289 . S
C509 O501 1.258 . S
C509 O502 1.266 . S
Co510 O513 1.970 . S
Co510 N527 1.989 . S
Co510 O535 1.967 . S
Co510 O542 1.920 1_455 S
Co511 O514 1.966 . S
Co511 N520 2.022 1_545 S
Co511 N528 1.993 . S
Co511 O536 1.941 . S
C512 O513 1.258 . S
C512 O514 1.263 . S
O513 Co510 1.970 . S
O513 C512 1.258 . S
O514 Co511 1.966 . S
O514 C512 1.263 . S
C515 O516 1.235 . S
C515 O542 1.289 . S
O516 C515 1.235 . S
C517 C519 1.400 . S
C517 N520 1.351 . S
C517 C522 1.501 . S
C518 C519 1.387 . S
C518 N521 1.341 . S
C519 C517 1.400 . S
C519 C518 1.387 . S
N520 Co511 2.022 1_565 S
N520 C517 1.351 . S
N520 N521 1.365 . S
N521 C518 1.341 . S
N521 N520 1.365 . S
N521 H541 0.862 1_565 S
C522 C517 1.501 . S
C522 H523 0.961 . S
C522 H524 0.961 . S
C522 H525 0.960 . S
H523 C522 0.961 . S
H524 C522 0.961 . S
H525 C522 0.960 . S
C526 N527 1.342 1_655 S
C526 C530 1.401 1_655 S
C526 C531 1.499 . S
N527 Co510 1.989 . S
N527 C526 1.342 1_455 S
N527 N528 1.388 . S
N528 Co511 1.993 . S
N528 N527 1.388 . S
N528 C529 1.346 . S
C529 N528 1.346 . S
C529 C530 1.396 . S
C529 C539 1.510 1_545 S
C530 C526 1.401 1_455 S
C530 C529 1.396 . S
C531 C526 1.499 . S
C531 H532 0.959 . S
C531 H533 0.960 . S
C531 H534 0.961 . S
H532 C531 0.959 . S
H533 C531 0.960 . S
H534 C531 0.961 . S
O535 Co510 1.967 . S
O535 C543 1.258 . S
O536 Co511 1.941 . S
O536 C543 1.266 . S
H537 C539 0.959 . S
H538 C539 0.961 . S
C539 C529 1.510 1_565 S
C539 H537 0.959 . S
C539 H538 0.961 . S
C539 H540 0.960 . S
H540 C539 0.960 . S
H541 N521 0.862 1_545 S
O542 Co510 1.920 1_655 S
O542 C515 1.289 . S
C543 O535 1.258 . S
C543 O536 1.266 . S
Co544 O547 1.970 . S
Co544 N561 1.989 . S
Co544 O569 1.967 . S
Co544 O576 1.920 . S
Co545 O548 1.966 . S
Co545 N554 2.022 . S
Co545 N562 1.993 . S
Co545 O570 1.941 . S
C546 O547 1.258 . S
C546 O548 1.263 . S
O547 Co544 1.970 . S
O547 C546 1.258 . S
O548 Co545 1.966 . S
O548 C546 1.263 . S
C549 O550 1.235 . S
C549 O576 1.289 . S
O550 C549 1.235 . S
C551 C553 1.400 . S
C551 N554 1.351 . S
C551 C556 1.501 . S
C552 C553 1.387 . S
C552 N555 1.341 . S
C553 C551 1.400 . S
C553 C552 1.387 . S
N554 Co545 2.022 . S
N554 C551 1.351 . S
N554 N555 1.365 . S
N555 C552 1.341 . S
N555 N554 1.365 . S
N555 H575 0.862 . S
C556 C551 1.501 . S
C556 H557 0.961 . S
C556 H558 0.961 . S
C556 H559 0.960 . S
H557 C556 0.961 . S
H558 C556 0.961 . S
H559 C556 0.960 . S
C560 N561 1.342 . S
C560 C564 1.401 . S
C560 C565 1.499 . S
N561 Co544 1.989 . S
N561 C560 1.342 . S
N561 N562 1.388 . S
N562 Co545 1.993 . S
N562 N561 1.388 . S
N562 C563 1.346 . S
C563 N562 1.346 . S
C563 C564 1.396 . S
C563 C573 1.510 . S
C564 C560 1.401 . S
C564 C563 1.396 . S
C565 C560 1.499 . S
C565 H566 0.959 . S
C565 H567 0.960 . S
C565 H568 0.961 . S
H566 C565 0.959 . S
H567 C565 0.960 . S
H568 C565 0.961 . S
O569 Co544 1.967 . S
O569 C577 1.258 . S
O570 Co545 1.941 . S
O570 C577 1.266 . S
H571 C573 0.959 . S
H572 C573 0.961 . S
C573 C563 1.510 . S
C573 H571 0.959 . S
C573 H572 0.961 . S
C573 H574 0.960 . S
H574 C573 0.960 . S
H575 N555 0.862 . S
O576 Co544 1.920 . S
O576 C549 1.289 . S
C577 O569 1.258 . S
C577 O570 1.266 . S
Co578 O581 1.970 . S
Co578 N595 1.989 . S
Co578 O603 1.967 . S
Co578 O610 1.920 . S
Co579 O582 1.966 . S
Co579 N588 2.022 . S
Co579 N596 1.993 . S
Co579 O604 1.941 . S
C580 O581 1.258 . S
C580 O582 1.263 . S
O581 Co578 1.970 . S
O581 C580 1.258 . S
O582 Co579 1.966 . S
O582 C580 1.263 . S
C583 O584 1.235 . S
C583 O610 1.289 . S
O584 C583 1.235 . S
C585 C587 1.400 . S
C585 N588 1.351 . S
C585 C590 1.501 . S
C586 C587 1.387 . S
C586 N589 1.341 . S
C587 C585 1.400 . S
C587 C586 1.387 . S
N588 Co579 2.022 . S
N588 C585 1.351 . S
N588 N589 1.365 . S
N589 C586 1.341 . S
N589 N588 1.365 . S
N589 H609 0.862 . S
C590 C585 1.501 . S
C590 H591 0.961 . S
C590 H592 0.961 . S
C590 H593 0.960 . S
H591 C590 0.961 . S
H592 C590 0.961 . S
H593 C590 0.960 . S
C594 N595 1.342 . S
C594 C598 1.401 . S
C594 C599 1.499 . S
N595 Co578 1.989 . S
N595 C594 1.342 . S
N595 N596 1.388 . S
N596 Co579 1.993 . S
N596 N595 1.388 . S
N596 C597 1.346 . S
C597 N596 1.346 . S
C597 C598 1.396 . S
C597 C607 1.510 . S
C598 C594 1.401 . S
C598 C597 1.396 . S
C599 C594 1.499 . S
C599 H600 0.959 . S
C599 H601 0.960 . S
C599 H602 0.961 . S
H600 C599 0.959 . S
H601 C599 0.960 . S
H602 C599 0.961 . S
O603 Co578 1.967 . S
O603 C611 1.258 . S
O604 Co579 1.941 . S
O604 C611 1.266 . S
H605 C607 0.959 . S
H606 C607 0.961 . S
C607 C597 1.510 . S
C607 H605 0.959 . S
C607 H606 0.961 . S
C607 H608 0.960 . S
H608 C607 0.960 . S
H609 N589 0.862 . S
O610 Co578 1.920 . S
O610 C583 1.289 . S
C611 O603 1.258 . S
C611 O604 1.266 . S
Co612 O615 1.970 . S
Co612 N629 1.989 . S
Co612 O637 1.967 . S
Co612 O644 1.920 . S
Co613 O616 1.966 . S
Co613 N622 2.022 . S
Co613 N630 1.993 . S
Co613 O638 1.941 . S
C614 O615 1.258 . S
C614 O616 1.263 . S
O615 Co612 1.970 . S
O615 C614 1.258 . S
O616 Co613 1.966 . S
O616 C614 1.263 . S
C617 O618 1.235 . S
C617 O644 1.289 . S
O618 C617 1.235 . S
C619 C621 1.400 . S
C619 N622 1.351 . S
C619 C624 1.501 . S
C620 C621 1.387 . S
C620 N623 1.341 . S
C621 C619 1.400 . S
C621 C620 1.387 . S
N622 Co613 2.022 . S
N622 C619 1.351 . S
N622 N623 1.365 . S
N623 C620 1.341 . S
N623 N622 1.365 . S
N623 H643 0.862 . S
C624 C619 1.501 . S
C624 H625 0.961 . S
C624 H626 0.961 . S
C624 H627 0.960 . S
H625 C624 0.961 . S
H626 C624 0.961 . S
H627 C624 0.960 . S
C628 N629 1.342 . S
C628 C632 1.401 . S
C628 C633 1.499 . S
N629 Co612 1.989 . S
N629 C628 1.342 . S
N629 N630 1.388 . S
N630 Co613 1.993 . S
N630 N629 1.388 . S
N630 C631 1.346 . S
C631 N630 1.346 . S
C631 C632 1.396 . S
C631 C641 1.510 . S
C632 C628 1.401 . S
C632 C631 1.396 . S
C633 C628 1.499 . S
C633 H634 0.959 . S
C633 H635 0.960 . S
C633 H636 0.961 . S
H634 C633 0.959 . S
H635 C633 0.960 . S
H636 C633 0.961 . S
O637 Co612 1.967 . S
O637 C645 1.258 . S
O638 Co613 1.941 . S
O638 C645 1.266 . S
H639 C641 0.959 . S
H640 C641 0.961 . S
C641 C631 1.510 . S
C641 H639 0.959 . S
C641 H640 0.961 . S
C641 H642 0.960 . S
H642 C641 0.960 . S
H643 N623 0.862 . S
O644 Co612 1.920 . S
O644 C617 1.289 . S
C645 O637 1.258 . S
C645 O638 1.266 . S
Co646 O649 1.970 . S
Co646 N663 1.989 . S
Co646 O671 1.967 . S
Co646 O678 1.920 1_455 S
Co647 O650 1.966 . S
Co647 N656 2.022 . S
Co647 N664 1.993 . S
Co647 O672 1.941 . S
C648 O649 1.258 . S
C648 O650 1.263 . S
O649 Co646 1.970 . S
O649 C648 1.258 . S
O650 Co647 1.966 . S
O650 C648 1.263 . S
C651 O652 1.235 . S
C651 O678 1.289 . S
O652 C651 1.235 . S
C653 C655 1.400 . S
C653 N656 1.351 . S
C653 C658 1.501 . S
C654 C655 1.387 . S
C654 N657 1.341 . S
C655 C653 1.400 . S
C655 C654 1.387 . S
N656 Co647 2.022 . S
N656 C653 1.351 . S
N656 N657 1.365 . S
N657 C654 1.341 . S
N657 N656 1.365 . S
N657 H677 0.862 . S
C658 C653 1.501 . S
C658 H659 0.961 . S
C658 H660 0.961 . S
C658 H661 0.960 . S
H659 C658 0.961 . S
H660 C658 0.961 . S
H661 C658 0.960 . S
C662 N663 1.342 1_655 S
C662 C666 1.401 1_655 S
C662 C667 1.499 . S
N663 Co646 1.989 . S
N663 C662 1.342 1_455 S
N663 N664 1.388 . S
N664 Co647 1.993 . S
N664 N663 1.388 . S
N664 C665 1.346 . S
C665 N664 1.346 . S
C665 C666 1.396 . S
C665 C675 1.510 . S
C666 C662 1.401 1_455 S
C666 C665 1.396 . S
C667 C662 1.499 . S
C667 H668 0.959 . S
C667 H669 0.960 . S
C667 H670 0.961 . S
H668 C667 0.959 . S
H669 C667 0.960 . S
H670 C667 0.961 . S
O671 Co646 1.967 . S
O671 C679 1.258 . S
O672 Co647 1.941 . S
O672 C679 1.266 . S
H673 C675 0.959 . S
H674 C675 0.961 . S
C675 C665 1.510 . S
C675 H673 0.959 . S
C675 H674 0.961 . S
C675 H676 0.960 . S
H676 C675 0.960 . S
H677 N657 0.862 . S
O678 Co646 1.920 1_655 S
O678 C651 1.289 . S
C679 O671 1.258 . S
C679 O672 1.266 . S
Co680 O683 1.970 . S
Co680 N697 1.989 . S
Co680 O705 1.967 . S
Co680 O712 1.920 . S
Co681 O684 1.966 . S
Co681 N690 2.022 . S
Co681 N698 1.993 . S
Co681 O706 1.941 . S
C682 O683 1.258 . S
C682 O684 1.263 . S
O683 Co680 1.970 . S
O683 C682 1.258 . S
O684 Co681 1.966 . S
O684 C682 1.263 . S
C685 O686 1.235 . S
C685 O712 1.289 . S
O686 C685 1.235 . S
C687 C689 1.400 . S
C687 N690 1.351 . S
C687 C692 1.501 . S
C688 C689 1.387 . S
C688 N691 1.341 . S
C689 C687 1.400 . S
C689 C688 1.387 . S
N690 Co681 2.022 . S
N690 C687 1.351 . S
N690 N691 1.365 . S
N691 C688 1.341 . S
N691 N690 1.365 . S
N691 H711 0.862 . S
C692 C687 1.501 . S
C692 H693 0.961 . S
C692 H694 0.961 . S
C692 H695 0.960 . S
H693 C692 0.961 . S
H694 C692 0.961 . S
H695 C692 0.960 . S
C696 N697 1.342 . S
C696 C700 1.401 . S
C696 C701 1.499 . S
N697 Co680 1.989 . S
N697 C696 1.342 . S
N697 N698 1.388 . S
N698 Co681 1.993 . S
N698 N697 1.388 . S
N698 C699 1.346 . S
C699 N698 1.346 . S
C699 C700 1.396 . S
C699 C709 1.510 . S
C700 C696 1.401 . S
C700 C699 1.396 . S
C701 C696 1.499 . S
C701 H702 0.959 . S
C701 H703 0.960 . S
C701 H704 0.961 . S
H702 C701 0.959 . S
H703 C701 0.960 . S
H704 C701 0.961 . S
O705 Co680 1.967 . S
O705 C713 1.258 . S
O706 Co681 1.941 . S
O706 C713 1.266 . S
H707 C709 0.959 . S
H708 C709 0.961 . S
C709 C699 1.510 . S
C709 H707 0.959 . S
C709 H708 0.961 . S
C709 H710 0.960 . S
H710 C709 0.960 . S
H711 N691 0.862 . S
O712 Co680 1.920 . S
O712 C685 1.289 . S
C713 O705 1.258 . S
C713 O706 1.266 . S
Co714 O717 1.970 . S
Co714 N731 1.989 . S
Co714 O739 1.967 . S
Co714 O746 1.920 1_455 S
Co715 O718 1.966 . S
Co715 N724 2.022 . S
Co715 N732 1.993 . S
Co715 O740 1.941 . S
C716 O717 1.258 . S
C716 O718 1.263 . S
O717 Co714 1.970 . S
O717 C716 1.258 . S
O718 Co715 1.966 . S
O718 C716 1.263 . S
C719 O720 1.235 . S
C719 O746 1.289 . S
O720 C719 1.235 . S
C721 C723 1.400 . S
C721 N724 1.351 . S
C721 C726 1.501 . S
C722 C723 1.387 . S
C722 N725 1.341 . S
C723 C721 1.400 . S
C723 C722 1.387 . S
N724 Co715 2.022 . S
N724 C721 1.351 . S
N724 N725 1.365 . S
N725 C722 1.341 . S
N725 N724 1.365 . S
N725 H745 0.862 . S
C726 C721 1.501 . S
C726 H727 0.961 . S
C726 H728 0.961 . S
C726 H729 0.960 . S
H727 C726 0.961 . S
H728 C726 0.961 . S
H729 C726 0.960 . S
C730 N731 1.342 1_655 S
C730 C734 1.401 1_655 S
C730 C735 1.499 . S
N731 Co714 1.989 . S
N731 C730 1.342 1_455 S
N731 N732 1.388 . S
N732 Co715 1.993 . S
N732 N731 1.388 . S
N732 C733 1.346 . S
C733 N732 1.346 . S
C733 C734 1.396 . S
C733 C743 1.510 . S
C734 C730 1.401 1_455 S
C734 C733 1.396 . S
C735 C730 1.499 . S
C735 H736 0.959 . S
C735 H737 0.960 . S
C735 H738 0.961 . S
H736 C735 0.959 . S
H737 C735 0.960 . S
H738 C735 0.961 . S
O739 Co714 1.967 . S
O739 C747 1.258 . S
O740 Co715 1.941 . S
O740 C747 1.266 . S
H741 C743 0.959 . S
H742 C743 0.961 . S
C743 C733 1.510 . S
C743 H741 0.959 . S
C743 H742 0.961 . S
C743 H744 0.960 . S
H744 C743 0.960 . S
H745 N725 0.862 . S
O746 Co714 1.920 1_655 S
O746 C719 1.289 . S
C747 O739 1.258 . S
C747 O740 1.266 . S
Co748 O751 1.970 . S
Co748 N765 1.989 . S
Co748 O773 1.967 . S
Co748 O780 1.920 . S
Co749 O752 1.966 . S
Co749 N758 2.022 . S
Co749 N766 1.993 . S
Co749 O774 1.941 . S
C750 O751 1.258 . S
C750 O752 1.263 . S
O751 Co748 1.970 . S
O751 C750 1.258 . S
O752 Co749 1.966 . S
O752 C750 1.263 . S
C753 O754 1.235 . S
C753 O780 1.289 . S
O754 C753 1.235 . S
C755 C757 1.400 . S
C755 N758 1.351 . S
C755 C760 1.501 . S
C756 C757 1.387 . S
C756 N759 1.341 . S
C757 C755 1.400 . S
C757 C756 1.387 . S
N758 Co749 2.022 . S
N758 C755 1.351 . S
N758 N759 1.365 . S
N759 C756 1.341 . S
N759 N758 1.365 . S
N759 H779 0.862 . S
C760 C755 1.501 . S
C760 H761 0.961 . S
C760 H762 0.961 . S
C760 H763 0.960 . S
H761 C760 0.961 . S
H762 C760 0.961 . S
H763 C760 0.960 . S
C764 N765 1.342 . S
C764 C768 1.401 . S
C764 C769 1.499 . S
N765 Co748 1.989 . S
N765 C764 1.342 . S
N765 N766 1.388 . S
N766 Co749 1.993 . S
N766 N765 1.388 . S
N766 C767 1.346 . S
C767 N766 1.346 . S
C767 C768 1.396 . S
C767 C777 1.510 . S
C768 C764 1.401 . S
C768 C767 1.396 . S
C769 C764 1.499 . S
C769 H770 0.959 . S
C769 H771 0.960 . S
C769 H772 0.961 . S
H770 C769 0.959 . S
H771 C769 0.960 . S
H772 C769 0.961 . S
O773 Co748 1.967 . S
O773 C781 1.258 . S
O774 Co749 1.941 . S
O774 C781 1.266 . S
H775 C777 0.959 . S
H776 C777 0.961 . S
C777 C767 1.510 . S
C777 H775 0.959 . S
C777 H776 0.961 . S
C777 H778 0.960 . S
H778 C777 0.960 . S
H779 N759 0.862 . S
O780 Co748 1.920 . S
O780 C753 1.289 . S
C781 O773 1.258 . S
C781 O774 1.266 . S
Co782 O785 1.970 . S
Co782 N799 1.989 . S
Co782 O807 1.967 . S
Co782 O814 1.920 . S
Co783 O786 1.966 . S
Co783 N792 2.022 . S
Co783 N800 1.993 . S
Co783 O808 1.941 . S
C784 O785 1.258 . S
C784 O786 1.263 . S
O785 Co782 1.970 . S
O785 C784 1.258 . S
O786 Co783 1.966 . S
O786 C784 1.263 . S
C787 O788 1.235 . S
C787 O814 1.289 . S
O788 C787 1.235 . S
C789 C791 1.400 . S
C789 N792 1.351 . S
C789 C794 1.501 . S
C790 C791 1.387 . S
C790 N793 1.341 . S
C791 C789 1.400 . S
C791 C790 1.387 . S
N792 Co783 2.022 . S
N792 C789 1.351 . S
N792 N793 1.365 . S
N793 C790 1.341 . S
N793 N792 1.365 . S
N793 H813 0.862 . S
C794 C789 1.501 . S
C794 H795 0.961 . S
C794 H796 0.961 . S
C794 H797 0.960 . S
H795 C794 0.961 . S
H796 C794 0.961 . S
H797 C794 0.960 . S
C798 N799 1.342 . S
C798 C802 1.401 . S
C798 C803 1.499 . S
N799 Co782 1.989 . S
N799 C798 1.342 . S
N799 N800 1.388 . S
N800 Co783 1.993 . S
N800 N799 1.388 . S
N800 C801 1.346 . S
C801 N800 1.346 . S
C801 C802 1.396 . S
C801 C811 1.510 . S
C802 C798 1.401 . S
C802 C801 1.396 . S
C803 C798 1.499 . S
C803 H804 0.959 . S
C803 H805 0.960 . S
C803 H806 0.961 . S
H804 C803 0.959 . S
H805 C803 0.960 . S
H806 C803 0.961 . S
O807 Co782 1.967 . S
O807 C815 1.258 . S
O808 Co783 1.941 . S
O808 C815 1.266 . S
H809 C811 0.959 . S
H810 C811 0.961 . S
C811 C801 1.510 . S
C811 H809 0.959 . S
C811 H810 0.961 . S
C811 H812 0.960 . S
H812 C811 0.960 . S
H813 N793 0.862 . S
O814 Co782 1.920 . S
O814 C787 1.289 . S
C815 O807 1.258 . S
C815 O808 1.266 . S
Co816 O819 1.970 . S
Co816 N833 1.989 . S
Co816 O841 1.967 . S
Co816 O848 1.920 . S
Co817 O820 1.966 . S
Co817 N826 2.022 . S
Co817 N834 1.993 . S
Co817 O842 1.941 . S
C818 O819 1.258 . S
C818 O820 1.263 . S
O819 Co816 1.970 . S
O819 C818 1.258 . S
O820 Co817 1.966 . S
O820 C818 1.263 . S
C821 O822 1.235 . S
C821 O848 1.289 . S
O822 C821 1.235 . S
C823 C825 1.400 . S
C823 N826 1.351 . S
C823 C828 1.501 . S
C824 C825 1.387 . S
C824 N827 1.341 . S
C825 C823 1.400 . S
C825 C824 1.387 . S
N826 Co817 2.022 . S
N826 C823 1.351 . S
N826 N827 1.365 . S
N827 C824 1.341 . S
N827 N826 1.365 . S
N827 H847 0.862 . S
C828 C823 1.501 . S
C828 H829 0.961 . S
C828 H830 0.961 . S
C828 H831 0.960 . S
H829 C828 0.961 . S
H830 C828 0.961 . S
H831 C828 0.960 . S
C832 N833 1.342 . S
C832 C836 1.401 . S
C832 C837 1.499 . S
N833 Co816 1.989 . S
N833 C832 1.342 . S
N833 N834 1.388 . S
N834 Co817 1.993 . S
N834 N833 1.388 . S
N834 C835 1.346 . S
C835 N834 1.346 . S
C835 C836 1.396 . S
C835 C845 1.510 . S
C836 C832 1.401 . S
C836 C835 1.396 . S
C837 C832 1.499 . S
C837 H838 0.959 . S
C837 H839 0.960 . S
C837 H840 0.961 . S
H838 C837 0.959 . S
H839 C837 0.960 . S
H840 C837 0.961 . S
O841 Co816 1.967 . S
O841 C849 1.258 . S
O842 Co817 1.941 . S
O842 C849 1.266 . S
H843 C845 0.959 . S
H844 C845 0.961 . S
C845 C835 1.510 . S
C845 H843 0.959 . S
C845 H844 0.961 . S
C845 H846 0.960 . S
H846 C845 0.960 . S
H847 N827 0.862 . S
O848 Co816 1.920 . S
O848 C821 1.289 . S
C849 O841 1.258 . S
C849 O842 1.266 . S
Co850 O853 1.970 . S
Co850 N867 1.989 . S
Co850 O875 1.967 . S
Co850 O882 1.920 . S
Co851 O854 1.966 . S
Co851 N860 2.022 . S
Co851 N868 1.993 . S
Co851 O876 1.941 . S
C852 O853 1.258 . S
C852 O854 1.263 . S
O853 Co850 1.970 . S
O853 C852 1.258 . S
O854 Co851 1.966 . S
O854 C852 1.263 . S
C855 O856 1.235 . S
C855 O882 1.289 . S
O856 C855 1.235 . S
C857 C859 1.400 . S
C857 N860 1.351 . S
C857 C862 1.501 . S
C858 C859 1.387 . S
C858 N861 1.341 . S
C859 C857 1.400 . S
C859 C858 1.387 . S
N860 Co851 2.022 . S
N860 C857 1.351 . S
N860 N861 1.365 . S
N861 C858 1.341 . S
N861 N860 1.365 . S
N861 H881 0.862 . S
C862 C857 1.501 . S
C862 H863 0.961 . S
C862 H864 0.961 . S
C862 H865 0.960 . S
H863 C862 0.961 . S
H864 C862 0.961 . S
H865 C862 0.960 . S
C866 N867 1.342 . S
C866 C870 1.401 . S
C866 C871 1.499 . S
N867 Co850 1.989 . S
N867 C866 1.342 . S
N867 N868 1.388 . S
N868 Co851 1.993 . S
N868 N867 1.388 . S
N868 C869 1.346 . S
C869 N868 1.346 . S
C869 C870 1.396 . S
C869 C879 1.510 . S
C870 C866 1.401 . S
C870 C869 1.396 . S
C871 C866 1.499 . S
C871 H872 0.959 . S
C871 H873 0.960 . S
C871 H874 0.961 . S
H872 C871 0.959 . S
H873 C871 0.960 . S
H874 C871 0.961 . S
O875 Co850 1.967 . S
O875 C883 1.258 . S
O876 Co851 1.941 . S
O876 C883 1.266 . S
H877 C879 0.959 . S
H878 C879 0.961 . S
C879 C869 1.510 . S
C879 H877 0.959 . S
C879 H878 0.961 . S
C879 H880 0.960 . S
H880 C879 0.960 . S
H881 N861 0.862 . S
O882 Co850 1.920 . S
O882 C855 1.289 . S
C883 O875 1.258 . S
C883 O876 1.266 . S
Co884 O887 1.970 . S
Co884 N901 1.989 . S
Co884 O909 1.967 . S
Co884 O916 1.920 . S
Co885 O888 1.966 . S
Co885 N894 2.022 . S
Co885 N902 1.993 . S
Co885 O910 1.941 . S
C886 O887 1.258 . S
C886 O888 1.263 . S
O887 Co884 1.970 . S
O887 C886 1.258 . S
O888 Co885 1.966 . S
O888 C886 1.263 . S
C889 O890 1.235 . S
C889 O916 1.289 . S
O890 C889 1.235 . S
C891 C893 1.400 . S
C891 N894 1.351 . S
C891 C896 1.501 . S
C892 C893 1.387 . S
C892 N895 1.341 . S
C893 C891 1.400 . S
C893 C892 1.387 . S
N894 Co885 2.022 . S
N894 C891 1.351 . S
N894 N895 1.365 . S
N895 C892 1.341 . S
N895 N894 1.365 . S
N895 H915 0.862 . S
C896 C891 1.501 . S
C896 H897 0.961 . S
C896 H898 0.961 . S
C896 H899 0.960 . S
H897 C896 0.961 . S
H898 C896 0.961 . S
H899 C896 0.960 . S
C900 N901 1.342 . S
C900 C904 1.401 . S
C900 C905 1.499 . S
N901 Co884 1.989 . S
N901 C900 1.342 . S
N901 N902 1.388 . S
N902 Co885 1.993 . S
N902 N901 1.388 . S
N902 C903 1.346 . S
C903 N902 1.346 . S
C903 C904 1.396 . S
C903 C913 1.510 . S
C904 C900 1.401 . S
C904 C903 1.396 . S
C905 C900 1.499 . S
C905 H906 0.959 . S
C905 H907 0.960 . S
C905 H908 0.961 . S
H906 C905 0.959 . S
H907 C905 0.960 . S
H908 C905 0.961 . S
O909 Co884 1.967 . S
O909 C917 1.258 . S
O910 Co885 1.941 . S
O910 C917 1.266 . S
H911 C913 0.959 . S
H912 C913 0.961 . S
C913 C903 1.510 . S
C913 H911 0.959 . S
C913 H912 0.961 . S
C913 H914 0.960 . S
H914 C913 0.960 . S
H915 N895 0.862 . S
O916 Co884 1.920 . S
O916 C889 1.289 . S
C917 O909 1.258 . S
C917 O910 1.266 . S
Co918 O921 1.970 . S
Co918 N935 1.989 . S
Co918 O943 1.967 . S
Co918 O950 1.920 1_655 S
Co919 O922 1.966 . S
Co919 N928 2.022 . S
Co919 N936 1.993 . S
Co919 O944 1.941 . S
C920 O921 1.258 . S
C920 O922 1.263 . S
O921 Co918 1.970 . S
O921 C920 1.258 . S
O922 Co919 1.966 . S
O922 C920 1.263 . S
C923 O924 1.235 . S
C923 O950 1.289 . S
O924 C923 1.235 . S
C925 C927 1.400 . S
C925 N928 1.351 . S
C925 C930 1.501 . S
C926 C927 1.387 . S
C926 N929 1.341 . S
C927 C925 1.400 . S
C927 C926 1.387 . S
N928 Co919 2.022 . S
N928 C925 1.351 . S
N928 N929 1.365 . S
N929 C926 1.341 . S
N929 N928 1.365 . S
N929 H949 0.862 . S
C930 C925 1.501 . S
C930 H931 0.961 . S
C930 H932 0.961 . S
C930 H933 0.960 . S
H931 C930 0.961 . S
H932 C930 0.961 . S
H933 C930 0.960 . S
C934 N935 1.342 1_455 S
C934 C938 1.401 1_455 S
C934 C939 1.499 . S
N935 Co918 1.989 . S
N935 C934 1.342 1_655 S
N935 N936 1.388 . S
N936 Co919 1.993 . S
N936 N935 1.388 . S
N936 C937 1.346 . S
C937 N936 1.346 . S
C937 C938 1.396 . S
C937 C947 1.510 . S
C938 C934 1.401 1_655 S
C938 C937 1.396 . S
C939 C934 1.499 . S
C939 H940 0.959 . S
C939 H941 0.960 . S
C939 H942 0.961 . S
H940 C939 0.959 . S
H941 C939 0.960 . S
H942 C939 0.961 . S
O943 Co918 1.967 . S
O943 C951 1.258 . S
O944 Co919 1.941 . S
O944 C951 1.266 . S
H945 C947 0.959 . S
H946 C947 0.961 . S
C947 C937 1.510 . S
C947 H945 0.959 . S
C947 H946 0.961 . S
C947 H948 0.960 . S
H948 C947 0.960 . S
H949 N929 0.862 . S
O950 Co918 1.920 1_455 S
O950 C923 1.289 . S
C951 O943 1.258 . S
C951 O944 1.266 . S
Co952 O955 1.970 . S
Co952 N969 1.989 . S
Co952 O977 1.967 . S
Co952 O984 1.920 . S
Co953 O956 1.966 . S
Co953 N962 2.022 . S
Co953 N970 1.993 . S
Co953 O978 1.941 . S
C954 O955 1.258 . S
C954 O956 1.263 . S
O955 Co952 1.970 . S
O955 C954 1.258 . S
O956 Co953 1.966 . S
O956 C954 1.263 . S
C957 O958 1.235 . S
C957 O984 1.289 . S
O958 C957 1.235 . S
C959 C961 1.400 . S
C959 N962 1.351 . S
C959 C964 1.501 . S
C960 C961 1.387 . S
C960 N963 1.341 . S
C961 C959 1.400 . S
C961 C960 1.387 . S
N962 Co953 2.022 . S
N962 C959 1.351 . S
N962 N963 1.365 . S
N963 C960 1.341 . S
N963 N962 1.365 . S
N963 H983 0.862 . S
C964 C959 1.501 . S
C964 H965 0.961 . S
C964 H966 0.961 . S
C964 H967 0.960 . S
H965 C964 0.961 . S
H966 C964 0.961 . S
H967 C964 0.960 . S
C968 N969 1.342 . S
C968 C972 1.401 . S
C968 C973 1.499 . S
N969 Co952 1.989 . S
N969 C968 1.342 . S
N969 N970 1.388 . S
N970 Co953 1.993 . S
N970 N969 1.388 . S
N970 C971 1.346 . S
C971 N970 1.346 . S
C971 C972 1.396 . S
C971 C981 1.510 . S
C972 C968 1.401 . S
C972 C971 1.396 . S
C973 C968 1.499 . S
C973 H974 0.959 . S
C973 H975 0.960 . S
C973 H976 0.961 . S
H974 C973 0.959 . S
H975 C973 0.960 . S
H976 C973 0.961 . S
O977 Co952 1.967 . S
O977 C985 1.258 . S
O978 Co953 1.941 . S
O978 C985 1.266 . S
H979 C981 0.959 . S
H980 C981 0.961 . S
C981 C971 1.510 . S
C981 H979 0.959 . S
C981 H980 0.961 . S
C981 H982 0.960 . S
H982 C981 0.960 . S
H983 N963 0.862 . S
O984 Co952 1.920 . S
O984 C957 1.289 . S
C985 O977 1.258 . S
C985 O978 1.266 . S
Co986 O989 1.970 . S
Co986 N1003 1.989 . S
Co986 O1011 1.967 . S
Co986 O1018 1.920 1_655 S
Co987 O990 1.966 . S
Co987 N996 2.022 . S
Co987 N1004 1.993 . S
Co987 O1012 1.941 . S
C988 O989 1.258 . S
C988 O990 1.263 . S
O989 Co986 1.970 . S
O989 C988 1.258 . S
O990 Co987 1.966 . S
O990 C988 1.263 . S
C991 O992 1.235 . S
C991 O1018 1.289 . S
O992 C991 1.235 . S
C993 C995 1.400 . S
C993 N996 1.351 . S
C993 C998 1.501 . S
C994 C995 1.387 . S
C994 N997 1.341 . S
C995 C993 1.400 . S
C995 C994 1.387 . S
N996 Co987 2.022 . S
N996 C993 1.351 . S
N996 N997 1.365 . S
N997 C994 1.341 . S
N997 N996 1.365 . S
N997 H1017 0.862 . S
C998 C993 1.501 . S
C998 H999 0.961 . S
C998 H1000 0.961 . S
C998 H1001 0.960 . S
H999 C998 0.961 . S
H1000 C998 0.961 . S
H1001 C998 0.960 . S
C1002 N1003 1.342 1_455 S
C1002 C1006 1.401 1_455 S
C1002 C1007 1.499 . S
N1003 Co986 1.989 . S
N1003 C1002 1.342 1_655 S
N1003 N1004 1.388 . S
N1004 Co987 1.993 . S
N1004 N1003 1.388 . S
N1004 C1005 1.346 . S
C1005 N1004 1.346 . S
C1005 C1006 1.396 . S
C1005 C1015 1.510 . S
C1006 C1002 1.401 1_655 S
C1006 C1005 1.396 . S
C1007 C1002 1.499 . S
C1007 H1008 0.959 . S
C1007 H1009 0.960 . S
C1007 H1010 0.961 . S
H1008 C1007 0.959 . S
H1009 C1007 0.960 . S
H1010 C1007 0.961 . S
O1011 Co986 1.967 . S
O1011 C1019 1.258 . S
O1012 Co987 1.941 . S
O1012 C1019 1.266 . S
H1013 C1015 0.959 . S
H1014 C1015 0.961 . S
C1015 C1005 1.510 . S
C1015 H1013 0.959 . S
C1015 H1014 0.961 . S
C1015 H1016 0.960 . S
H1016 C1015 0.960 . S
H1017 N997 0.862 . S
O1018 Co986 1.920 1_455 S
O1018 C991 1.289 . S
C1019 O1011 1.258 . S
C1019 O1012 1.266 . S
Co1020 O1023 1.970 . S
Co1020 N1037 1.989 . S
Co1020 O1045 1.967 . S
Co1020 O1052 1.920 . S
Co1021 O1024 1.966 . S
Co1021 N1030 2.022 . S
Co1021 N1038 1.993 . S
Co1021 O1046 1.941 . S
C1022 O1023 1.258 . S
C1022 O1024 1.263 . S
O1023 Co1020 1.970 . S
O1023 C1022 1.258 . S
O1024 Co1021 1.966 . S
O1024 C1022 1.263 . S
C1025 O1026 1.235 . S
C1025 O1052 1.289 . S
O1026 C1025 1.235 . S
C1027 C1029 1.400 . S
C1027 N1030 1.351 . S
C1027 C1032 1.501 . S
C1028 C1029 1.387 . S
C1028 N1031 1.341 . S
C1029 C1027 1.400 . S
C1029 C1028 1.387 . S
N1030 Co1021 2.022 . S
N1030 C1027 1.351 . S
N1030 N1031 1.365 . S
N1031 C1028 1.341 . S
N1031 N1030 1.365 . S
N1031 H1051 0.862 . S
C1032 C1027 1.501 . S
C1032 H1033 0.961 . S
C1032 H1034 0.961 . S
C1032 H1035 0.960 . S
H1033 C1032 0.961 . S
H1034 C1032 0.961 . S
H1035 C1032 0.960 . S
C1036 N1037 1.342 . S
C1036 C1040 1.401 . S
C1036 C1041 1.499 . S
N1037 Co1020 1.989 . S
N1037 C1036 1.342 . S
N1037 N1038 1.388 . S
N1038 Co1021 1.993 . S
N1038 N1037 1.388 . S
N1038 C1039 1.346 . S
C1039 N1038 1.346 . S
C1039 C1040 1.396 . S
C1039 C1049 1.510 . S
C1040 C1036 1.401 . S
C1040 C1039 1.396 . S
C1041 C1036 1.499 . S
C1041 H1042 0.959 . S
C1041 H1043 0.960 . S
C1041 H1044 0.961 . S
H1042 C1041 0.959 . S
H1043 C1041 0.960 . S
H1044 C1041 0.961 . S
O1045 Co1020 1.967 . S
O1045 C1053 1.258 . S
O1046 Co1021 1.941 . S
O1046 C1053 1.266 . S
H1047 C1049 0.959 . S
H1048 C1049 0.961 . S
C1049 C1039 1.510 . S
C1049 H1047 0.959 . S
C1049 H1048 0.961 . S
C1049 H1050 0.960 . S
H1050 C1049 0.960 . S
H1051 N1031 0.862 . S
O1052 Co1020 1.920 . S
O1052 C1025 1.289 . S
C1053 O1045 1.258 . S
C1053 O1046 1.266 . S
Co1054 O1057 1.970 . S
Co1054 N1071 1.989 . S
Co1054 O1079 1.967 . S
Co1054 O1086 1.920 . S
Co1055 O1058 1.966 . S
Co1055 N1064 2.022 . S
Co1055 N1072 1.993 . S
Co1055 O1080 1.941 . S
C1056 O1057 1.258 . S
C1056 O1058 1.263 . S
O1057 Co1054 1.970 . S
O1057 C1056 1.258 . S
O1058 Co1055 1.966 . S
O1058 C1056 1.263 . S
C1059 O1060 1.235 . S
C1059 O1086 1.289 . S
O1060 C1059 1.235 . S
C1061 C1063 1.400 . S
C1061 N1064 1.351 . S
C1061 C1066 1.501 . S
C1062 C1063 1.387 . S
C1062 N1065 1.341 . S
C1063 C1061 1.400 . S
C1063 C1062 1.387 . S
N1064 Co1055 2.022 . S
N1064 C1061 1.351 . S
N1064 N1065 1.365 . S
N1065 C1062 1.341 . S
N1065 N1064 1.365 . S
N1065 H1085 0.862 . S
C1066 C1061 1.501 . S
C1066 H1067 0.961 . S
C1066 H1068 0.961 . S
C1066 H1069 0.960 . S
H1067 C1066 0.961 . S
H1068 C1066 0.961 . S
H1069 C1066 0.960 . S
C1070 N1071 1.342 . S
C1070 C1074 1.401 . S
C1070 C1075 1.499 . S
N1071 Co1054 1.989 . S
N1071 C1070 1.342 . S
N1071 N1072 1.388 . S
N1072 Co1055 1.993 . S
N1072 N1071 1.388 . S
N1072 C1073 1.346 . S
C1073 N1072 1.346 . S
C1073 C1074 1.396 . S
C1073 C1083 1.510 . S
C1074 C1070 1.401 . S
C1074 C1073 1.396 . S
C1075 C1070 1.499 . S
C1075 H1076 0.959 . S
C1075 H1077 0.960 . S
C1075 H1078 0.961 . S
H1076 C1075 0.959 . S
H1077 C1075 0.960 . S
H1078 C1075 0.961 . S
O1079 Co1054 1.967 . S
O1079 C1087 1.258 . S
O1080 Co1055 1.941 . S
O1080 C1087 1.266 . S
H1081 C1083 0.959 . S
H1082 C1083 0.961 . S
C1083 C1073 1.510 . S
C1083 H1081 0.959 . S
C1083 H1082 0.961 . S
C1083 H1084 0.960 . S
H1084 C1083 0.960 . S
H1085 N1065 0.862 . S
O1086 Co1054 1.920 . S
O1086 C1059 1.289 . S
C1087 O1079 1.258 . S
C1087 O1080 1.266 . S
C1088 C1089 1.369 . S
C1088 C1090 1.419 . S
C1088 H1092 0.930 . S
C1089 C1088 1.369 . S
C1089 C1098 1.429 . S
C1090 C1088 1.419 . S
C1090 C1091 1.363 . S
C1090 H1093 0.929 . S
C1091 C1090 1.363 . S
C1091 C1097 1.428 . S
H1092 C1088 0.930 . S
H1093 C1090 0.929 . S
S1094 N1095 1.613 . S
S1094 N1096 1.610 . S
N1095 S1094 1.613 . S
N1095 C1098 1.350 . S
N1096 S1094 1.610 . S
N1096 C1097 1.351 . S
C1097 C1091 1.428 . S
C1097 N1096 1.351 . S
C1097 C1098 1.434 . S
C1098 C1089 1.429 . S
C1098 N1095 1.350 . S
C1098 C1097 1.434 . S
C1099 C1100 1.369 1_655 S
C1099 C1101 1.419 . S
C1099 H1103 0.930 . S
C1100 C1099 1.369 1_455 S
C1100 C1109 1.429 1_565 S
C1101 C1099 1.419 . S
C1101 C1102 1.363 1_565 S
C1101 H1104 0.929 . S
C1102 C1101 1.363 1_545 S
C1102 C1108 1.428 1_655 S
H1103 C1099 0.930 . S
H1104 C1101 0.929 . S
S1105 N1106 1.613 . S
S1105 N1107 1.610 . S
N1106 S1105 1.613 . S
N1106 C1109 1.350 . S
N1107 S1105 1.610 . S
N1107 C1108 1.351 . S
C1108 C1102 1.428 1_455 S
C1108 N1107 1.351 . S
C1108 C1109 1.434 . S
C1109 C1100 1.429 1_545 S
C1109 N1106 1.350 . S
C1109 C1108 1.434 . S
C1110 C1111 1.369 . S
C1110 C1112 1.419 . S
C1110 H1114 0.930 . S
C1111 C1110 1.369 . S
C1111 C1120 1.429 . S
C1112 C1110 1.419 . S
C1112 C1113 1.363 . S
C1112 H1115 0.929 . S
C1113 C1112 1.363 . S
C1113 C1119 1.428 . S
H1114 C1110 0.930 . S
H1115 C1112 0.929 . S
S1116 N1117 1.613 . S
S1116 N1118 1.610 . S
N1117 S1116 1.613 . S
N1117 C1120 1.350 . S
N1118 S1116 1.610 . S
N1118 C1119 1.351 . S
C1119 C1113 1.428 . S
C1119 N1118 1.351 . S
C1119 C1120 1.434 . S
C1120 C1111 1.429 . S
C1120 N1117 1.350 . S
C1120 C1119 1.434 . S
C1121 C1122 1.369 . S
C1121 C1123 1.419 1_554 S
C1121 H1125 0.930 . S
C1122 C1121 1.369 . S
C1122 C1131 1.429 1_545 S
C1123 C1121 1.419 1_556 S
C1123 C1124 1.363 1_545 S
C1123 H1126 0.929 . S
C1124 C1123 1.363 1_565 S
C1124 C1130 1.428 . S
H1125 C1121 0.930 . S
H1126 C1123 0.929 . S
S1127 N1128 1.613 . S
S1127 N1129 1.610 1_554 S
N1128 S1127 1.613 . S
N1128 C1131 1.350 . S
N1129 S1127 1.610 1_556 S
N1129 C1130 1.351 . S
C1130 C1124 1.428 . S
C1130 N1129 1.351 . S
C1130 C1131 1.434 1_556 S
C1131 C1122 1.429 1_565 S
C1131 N1128 1.350 . S
C1131 C1130 1.434 1_554 S
C1132 C1133 1.369 . S
C1132 C1134 1.419 . S
C1132 H1136 0.930 . S
C1133 C1132 1.369 . S
C1133 C1142 1.429 . S
C1134 C1132 1.419 . S
C1134 C1135 1.363 . S
C1134 H1137 0.929 . S
C1135 C1134 1.363 . S
C1135 C1141 1.428 . S
H1136 C1132 0.930 . S
H1137 C1134 0.929 . S
S1138 N1139 1.613 . S
S1138 N1140 1.610 . S
N1139 S1138 1.613 . S
N1139 C1142 1.350 . S
N1140 S1138 1.610 . S
N1140 C1141 1.351 . S
C1141 C1135 1.428 . S
C1141 N1140 1.351 . S
C1141 C1142 1.434 . S
C1142 C1133 1.429 . S
C1142 N1139 1.350 . S
C1142 C1141 1.434 . S
C1143 C1144 1.369 1_545 S
C1143 C1145 1.419 . S
C1143 H1147 0.930 . S
C1144 C1143 1.369 1_565 S
C1144 C1153 1.429 . S
C1145 C1143 1.419 . S
C1145 C1146 1.363 . S
C1145 H1148 0.929 . S
C1146 C1145 1.363 . S
C1146 C1152 1.428 1_545 S
H1147 C1143 0.930 . S
H1148 C1145 0.929 . S
S1149 N1150 1.613 . S
S1149 N1151 1.610 . S
N1150 S1149 1.613 . S
N1150 C1153 1.350 . S
N1151 S1149 1.610 . S
N1151 C1152 1.351 . S
C1152 C1146 1.428 1_565 S
C1152 N1151 1.351 . S
C1152 C1153 1.434 . S
C1153 C1144 1.429 . S
C1153 N1150 1.350 . S
C1153 C1152 1.434 . S
C1154 C1155 1.369 . S
C1154 C1156 1.419 . S
C1154 H1158 0.930 . S
C1155 C1154 1.369 . S
C1155 C1164 1.429 . S
C1156 C1154 1.419 . S
C1156 C1157 1.363 . S
C1156 H1159 0.929 . S
C1157 C1156 1.363 . S
C1157 C1163 1.428 . S
H1158 C1154 0.930 . S
H1159 C1156 0.929 . S
S1160 N1161 1.613 . S
S1160 N1162 1.610 . S
N1161 S1160 1.613 . S
N1161 C1164 1.350 . S
N1162 S1160 1.610 . S
N1162 C1163 1.351 . S
C1163 C1157 1.428 . S
C1163 N1162 1.351 . S
C1163 C1164 1.434 . S
C1164 C1155 1.429 . S
C1164 N1161 1.350 . S
C1164 C1163 1.434 . S
C1165 C1166 1.369 . S
C1165 C1167 1.419 1_546 S
C1165 H1169 0.930 . S
C1166 C1165 1.369 . S
C1166 C1175 1.429 1_455 S
C1167 C1165 1.419 1_564 S
C1167 C1168 1.363 1_455 S
C1167 H1170 0.929 . S
C1168 C1167 1.363 1_655 S
C1168 C1174 1.428 . S
H1169 C1165 0.930 . S
H1170 C1167 0.929 . S
S1171 N1172 1.613 1_565 S
S1171 N1173 1.610 1_556 S
N1172 S1171 1.613 1_545 S
N1172 C1175 1.350 . S
N1173 S1171 1.610 1_554 S
N1173 C1174 1.351 . S
C1174 C1168 1.428 . S
C1174 N1173 1.351 . S
C1174 C1175 1.434 1_564 S
C1175 C1166 1.429 1_655 S
C1175 N1172 1.350 . S
C1175 C1174 1.434 1_546 S
C1176 C1177 1.369 . S
C1176 C1178 1.419 . S
C1176 H1180 0.930 . S
C1177 C1176 1.369 . S
C1177 C1186 1.429 . S
C1178 C1176 1.419 . S
C1178 C1179 1.363 . S
C1178 H1181 0.929 . S
C1179 C1178 1.363 . S
C1179 C1185 1.428 . S
H1180 C1176 0.930 . S
H1181 C1178 0.929 . S
S1182 N1183 1.613 . S
S1182 N1184 1.610 . S
N1183 S1182 1.613 . S
N1183 C1186 1.350 . S
N1184 S1182 1.610 . S
N1184 C1185 1.351 . S
C1185 C1179 1.428 . S
C1185 N1184 1.351 . S
C1185 C1186 1.434 . S
C1186 C1177 1.429 . S
C1186 N1183 1.350 . S
C1186 C1185 1.434 . S
C1187 C1188 1.369 . S
C1187 C1189 1.419 . S
C1187 H1191 0.930 . S
C1188 C1187 1.369 . S
C1188 C1197 1.429 . S
C1189 C1187 1.419 . S
C1189 C1190 1.363 . S
C1189 H1192 0.929 . S
C1190 C1189 1.363 . S
C1190 C1196 1.428 . S
H1191 C1187 0.930 . S
H1192 C1189 0.929 . S
S1193 N1194 1.613 . S
S1193 N1195 1.610 . S
N1194 S1193 1.613 . S
N1194 C1197 1.350 . S
N1195 S1193 1.610 . S
N1195 C1196 1.351 . S
C1196 C1190 1.428 . S
C1196 N1195 1.351 . S
C1196 C1197 1.434 . S
C1197 C1188 1.429 . S
C1197 N1194 1.350 . S
C1197 C1196 1.434 . S
C1198 C1199 1.369 . S
C1198 C1200 1.419 . S
C1198 H1202 0.930 . S
C1199 C1198 1.369 . S
C1199 C1208 1.429 . S
C1200 C1198 1.419 . S
C1200 C1201 1.363 . S
C1200 H1203 0.929 . S
C1201 C1200 1.363 . S
C1201 C1207 1.428 . S
H1202 C1198 0.930 . S
H1203 C1200 0.929 . S
S1204 N1205 1.613 . S
S1204 N1206 1.610 . S
N1205 S1204 1.613 . S
N1205 C1208 1.350 . S
N1206 S1204 1.610 . S
N1206 C1207 1.351 . S
C1207 C1201 1.428 . S
C1207 N1206 1.351 . S
C1207 C1208 1.434 . S
C1208 C1199 1.429 . S
C1208 N1205 1.350 . S
C1208 C1207 1.434 . S
C1209 C1210 1.369 . S
C1209 C1211 1.419 . S
C1209 H1213 0.930 . S
C1210 C1209 1.369 . S
C1210 C1219 1.429 . S
C1211 C1209 1.419 . S
C1211 C1212 1.363 . S
C1211 H1214 0.929 . S
C1212 C1211 1.363 . S
C1212 C1218 1.428 . S
H1213 C1209 0.930 . S
H1214 C1211 0.929 . S
S1215 N1216 1.613 . S
S1215 N1217 1.610 . S
N1216 S1215 1.613 . S
N1216 C1219 1.350 . S
N1217 S1215 1.610 . S
N1217 C1218 1.351 . S
C1218 C1212 1.428 . S
C1218 N1217 1.351 . S
C1218 C1219 1.434 . S
C1219 C1210 1.429 . S
C1219 N1216 1.350 . S
C1219 C1218 1.434 . S
C1220 C1221 1.369 . S
C1220 C1222 1.419 1_556 S
C1220 H1224 0.930 . S
C1221 C1220 1.369 . S
C1221 C1230 1.429 . S
C1222 C1220 1.419 1_554 S
C1222 C1223 1.363 . S
C1222 H1225 0.929 . S
C1223 C1222 1.363 . S
C1223 C1229 1.428 . S
H1224 C1220 0.930 . S
H1225 C1222 0.929 . S
S1226 N1227 1.613 1_554 S
S1226 N1228 1.610 . S
N1227 S1226 1.613 1_556 S
N1227 C1230 1.350 . S
N1228 S1226 1.610 . S
N1228 C1229 1.351 . S
C1229 C1223 1.428 . S
C1229 N1228 1.351 . S
C1229 C1230 1.434 1_554 S
C1230 C1221 1.429 . S
C1230 N1227 1.350 . S
C1230 C1229 1.434 1_556 S
C1231 C1232 1.369 1_455 S
C1231 C1233 1.419 . S
C1231 H1235 0.930 . S
C1232 C1231 1.369 1_655 S
C1232 C1241 1.429 . S
C1233 C1231 1.419 . S
C1233 C1234 1.363 . S
C1233 H1236 0.929 . S
C1234 C1233 1.363 . S
C1234 C1240 1.428 1_455 S
H1235 C1231 0.930 . S
H1236 C1233 0.929 . S
S1237 N1238 1.613 . S
S1237 N1239 1.610 . S
N1238 S1237 1.613 . S
N1238 C1241 1.350 . S
N1239 S1237 1.610 . S
N1239 C1240 1.351 . S
C1240 C1234 1.428 1_655 S
C1240 N1239 1.351 . S
C1240 C1241 1.434 . S
C1241 C1232 1.429 . S
C1241 N1238 1.350 . S
C1241 C1240 1.434 . S
C1242 C1243 1.369 1_655 S
C1242 C1244 1.419 1_554 S
C1242 H1246 0.930 . S
C1243 C1242 1.369 1_455 S
C1243 C1252 1.429 . S
C1244 C1242 1.419 1_556 S
C1244 C1245 1.363 . S
C1244 H1247 0.929 . S
C1245 C1244 1.363 . S
C1245 C1251 1.428 1_655 S
H1246 C1242 0.930 . S
H1247 C1244 0.929 . S
S1248 N1249 1.613 . S
S1248 N1250 1.610 1_554 S
N1249 S1248 1.613 . S
N1249 C1252 1.350 . S
N1250 S1248 1.610 1_556 S
N1250 C1251 1.351 . S
C1251 C1245 1.428 1_455 S
C1251 N1250 1.351 . S
C1251 C1252 1.434 1_556 S
C1252 C1243 1.429 . S
C1252 N1249 1.350 . S
C1252 C1251 1.434 1_554 S
C1253 C1254 1.369 . S
C1253 C1255 1.419 . S
C1253 H1257 0.930 . S
C1254 C1253 1.369 . S
C1254 C1263 1.429 . S
C1255 C1253 1.419 . S
C1255 C1256 1.363 . S
C1255 H1258 0.929 . S
C1256 C1255 1.363 . S
C1256 C1262 1.428 . S
H1257 C1253 0.930 . S
H1258 C1255 0.929 . S
S1259 N1260 1.613 . S
S1259 N1261 1.610 . S
N1260 S1259 1.613 . S
N1260 C1263 1.350 . S
N1261 S1259 1.610 . S
N1261 C1262 1.351 . S
C1262 C1256 1.428 . S
C1262 N1261 1.351 . S
C1262 C1263 1.434 . S
C1263 C1254 1.429 . S
C1263 N1260 1.350 . S
C1263 C1262 1.434 . S
C1264 C1265 1.369 . S
C1264 C1266 1.419 . S
C1264 H1268 0.930 . S
C1265 C1264 1.369 . S
C1265 C1274 1.429 . S
C1266 C1264 1.419 . S
C1266 C1267 1.363 . S
C1266 H1269 0.929 . S
C1267 C1266 1.363 . S
C1267 C1273 1.428 . S
H1268 C1264 0.930 . S
H1269 C1266 0.929 . S
S1270 N1271 1.613 . S
S1270 N1272 1.610 . S
N1271 S1270 1.613 . S
N1271 C1274 1.350 . S
N1272 S1270 1.610 . S
N1272 C1273 1.351 . S
C1273 C1267 1.428 . S
C1273 N1272 1.351 . S
C1273 C1274 1.434 . S
C1274 C1265 1.429 . S
C1274 N1271 1.350 . S
C1274 C1273 1.434 . S
C1275 C1276 1.369 . S
C1275 C1277 1.419 . S
C1275 H1279 0.930 . S
C1276 C1275 1.369 . S
C1276 C1285 1.429 . S
C1277 C1275 1.419 . S
C1277 C1278 1.363 . S
C1277 H1280 0.929 . S
C1278 C1277 1.363 . S
C1278 C1284 1.428 . S
H1279 C1275 0.930 . S
H1280 C1277 0.929 . S
S1281 N1282 1.613 . S
S1281 N1283 1.610 . S
N1282 S1281 1.613 . S
N1282 C1285 1.350 . S
N1283 S1281 1.610 . S
N1283 C1284 1.351 . S
C1284 C1278 1.428 . S
C1284 N1283 1.351 . S
C1284 C1285 1.434 . S
C1285 C1276 1.429 . S
C1285 N1282 1.350 . S
C1285 C1284 1.434 . S
C1286 C1287 1.369 . S
C1286 C1288 1.419 . S
C1286 H1290 0.930 . S
C1287 C1286 1.369 . S
C1287 C1296 1.429 . S
C1288 C1286 1.419 . S
C1288 C1289 1.363 . S
C1288 H1291 0.929 . S
C1289 C1288 1.363 . S
C1289 C1295 1.428 . S
H1290 C1286 0.930 . S
H1291 C1288 0.929 . S
S1292 N1293 1.613 . S
S1292 N1294 1.610 . S
N1293 S1292 1.613 . S
N1293 C1296 1.350 . S
N1294 S1292 1.610 . S
N1294 C1295 1.351 . S
C1295 C1289 1.428 . S
C1295 N1294 1.351 . S
C1295 C1296 1.434 . S
C1296 C1287 1.429 . S
C1296 N1293 1.350 . S
C1296 C1295 1.434 . S
C1297 C1298 1.369 . S
C1297 C1299 1.419 . S
C1297 H1301 0.930 . S
C1298 C1297 1.369 . S
C1298 C1307 1.429 . S
C1299 C1297 1.419 . S
C1299 C1300 1.363 . S
C1299 H1302 0.929 . S
C1300 C1299 1.363 . S
C1300 C1306 1.428 . S
H1301 C1297 0.930 . S
H1302 C1299 0.929 . S
S1303 N1304 1.613 . S
S1303 N1305 1.610 . S
N1304 S1303 1.613 . S
N1304 C1307 1.350 . S
N1305 S1303 1.610 . S
N1305 C1306 1.351 . S
C1306 C1300 1.428 . S
C1306 N1305 1.351 . S
C1306 C1307 1.434 . S
C1307 C1298 1.429 . S
C1307 N1304 1.350 . S
C1307 C1306 1.434 . S
C1308 C1309 1.369 . S
C1308 C1310 1.419 . S
C1308 H1312 0.930 . S
C1309 C1308 1.369 . S
C1309 C1318 1.429 . S
C1310 C1308 1.419 . S
C1310 C1311 1.363 . S
C1310 H1313 0.929 . S
C1311 C1310 1.363 . S
C1311 C1317 1.428 . S
H1312 C1308 0.930 . S
H1313 C1310 0.929 . S
S1314 N1315 1.613 . S
S1314 N1316 1.610 . S
N1315 S1314 1.613 . S
N1315 C1318 1.350 . S
N1316 S1314 1.610 . S
N1316 C1317 1.351 . S
C1317 C1311 1.428 . S
C1317 N1316 1.351 . S
C1317 C1318 1.434 . S
C1318 C1309 1.429 . S
C1318 N1315 1.350 . S
C1318 C1317 1.434 . S
C1319 C1320 1.369 . S
C1319 C1321 1.419 . S
C1319 H1323 0.930 . S
C1320 C1319 1.369 . S
C1320 C1329 1.429 . S
C1321 C1319 1.419 . S
C1321 C1322 1.363 . S
C1321 H1324 0.929 . S
C1322 C1321 1.363 . S
C1322 C1328 1.428 . S
H1323 C1319 0.930 . S
H1324 C1321 0.929 . S
S1325 N1326 1.613 . S
S1325 N1327 1.610 . S
N1326 S1325 1.613 . S
N1326 C1329 1.350 . S
N1327 S1325 1.610 . S
N1327 C1328 1.351 . S
C1328 C1322 1.428 . S
C1328 N1327 1.351 . S
C1328 C1329 1.434 . S
C1329 C1320 1.429 . S
C1329 N1326 1.350 . S
C1329 C1328 1.434 . S
C1330 C1331 1.369 . S
C1330 C1332 1.419 . S
C1330 H1334 0.930 . S
C1331 C1330 1.369 . S
C1331 C1340 1.429 . S
C1332 C1330 1.419 . S
C1332 C1333 1.363 . S
C1332 H1335 0.929 . S
C1333 C1332 1.363 . S
C1333 C1339 1.428 . S
H1334 C1330 0.930 . S
H1335 C1332 0.929 . S
S1336 N1337 1.613 . S
S1336 N1338 1.610 . S
N1337 S1336 1.613 . S
N1337 C1340 1.350 . S
N1338 S1336 1.610 . S
N1338 C1339 1.351 . S
C1339 C1333 1.428 . S
C1339 N1338 1.351 . S
C1339 C1340 1.434 . S
C1340 C1331 1.429 . S
C1340 N1337 1.350 . S
C1340 C1339 1.434 . S
C1341 C1342 1.369 . S
C1341 C1343 1.419 . S
C1341 H1345 0.930 . S
C1342 C1341 1.369 . S
C1342 C1351 1.429 . S
C1343 C1341 1.419 . S
C1343 C1344 1.363 . S
C1343 H1346 0.929 . S
C1344 C1343 1.363 . S
C1344 C1350 1.428 . S
H1345 C1341 0.930 . S
H1346 C1343 0.929 . S
S1347 N1348 1.613 . S
S1347 N1349 1.610 . S
N1348 S1347 1.613 . S
N1348 C1351 1.350 . S
N1349 S1347 1.610 . S
N1349 C1350 1.351 . S
C1350 C1344 1.428 . S
C1350 N1349 1.351 . S
C1350 C1351 1.434 . S
C1351 C1342 1.429 . S
C1351 N1348 1.350 . S
C1351 C1350 1.434 . S
C1352 C1353 1.369 . S
C1352 C1354 1.419 . S
C1352 H1356 0.930 . S
C1353 C1352 1.369 . S
C1353 C1362 1.429 . S
C1354 C1352 1.419 . S
C1354 C1355 1.363 . S
C1354 H1357 0.929 . S
C1355 C1354 1.363 . S
C1355 C1361 1.428 . S
H1356 C1352 0.930 . S
H1357 C1354 0.929 . S
S1358 N1359 1.613 . S
S1358 N1360 1.610 . S
N1359 S1358 1.613 . S
N1359 C1362 1.350 . S
N1360 S1358 1.610 . S
N1360 C1361 1.351 . S
C1361 C1355 1.428 . S
C1361 N1360 1.351 . S
C1361 C1362 1.434 . S
C1362 C1353 1.429 . S
C1362 N1359 1.350 . S
C1362 C1361 1.434 . S
C1363 C1364 1.369 . S
C1363 C1365 1.419 . S
C1363 H1367 0.930 . S
C1364 C1363 1.369 . S
C1364 C1373 1.429 . S
C1365 C1363 1.419 . S
C1365 C1366 1.363 . S
C1365 H1368 0.929 . S
C1366 C1365 1.363 . S
C1366 C1372 1.428 . S
H1367 C1363 0.930 . S
H1368 C1365 0.929 . S
S1369 N1370 1.613 . S
S1369 N1371 1.610 . S
N1370 S1369 1.613 . S
N1370 C1373 1.350 . S
N1371 S1369 1.610 . S
N1371 C1372 1.351 . S
C1372 C1366 1.428 . S
C1372 N1371 1.351 . S
C1372 C1373 1.434 . S
C1373 C1364 1.429 . S
C1373 N1370 1.350 . S
C1373 C1372 1.434 . S
C1374 C1375 1.369 . S
C1374 C1376 1.419 . S
C1374 H1378 0.930 . S
C1375 C1374 1.369 . S
C1375 C1384 1.429 . S
C1376 C1374 1.419 . S
C1376 C1377 1.363 . S
C1376 H1379 0.929 . S
C1377 C1376 1.363 . S
C1377 C1383 1.428 . S
H1378 C1374 0.930 . S
H1379 C1376 0.929 . S
S1380 N1381 1.613 . S
S1380 N1382 1.610 . S
N1381 S1380 1.613 . S
N1381 C1384 1.350 . S
N1382 S1380 1.610 . S
N1382 C1383 1.351 . S
C1383 C1377 1.428 . S
C1383 N1382 1.351 . S
C1383 C1384 1.434 . S
C1384 C1375 1.429 . S
C1384 N1381 1.350 . S
C1384 C1383 1.434 . S
C1385 C1386 1.369 . S
C1385 C1387 1.419 . S
C1385 H1389 0.930 . S
C1386 C1385 1.369 . S
C1386 C1395 1.429 . S
C1387 C1385 1.419 . S
C1387 C1388 1.363 . S
C1387 H1390 0.929 . S
C1388 C1387 1.363 . S
C1388 C1394 1.428 . S
H1389 C1385 0.930 . S
H1390 C1387 0.929 . S
S1391 N1392 1.613 . S
S1391 N1393 1.610 . S
N1392 S1391 1.613 . S
N1392 C1395 1.350 . S
N1393 S1391 1.610 . S
N1393 C1394 1.351 . S
C1394 C1388 1.428 . S
C1394 N1393 1.351 . S
C1394 C1395 1.434 . S
C1395 C1386 1.429 . S
C1395 N1392 1.350 . S
C1395 C1394 1.434 . S
C1396 C1397 1.369 . S
C1396 C1398 1.419 . S
C1396 H1400 0.930 . S
C1397 C1396 1.369 . S
C1397 C1406 1.429 . S
C1398 C1396 1.419 . S
C1398 C1399 1.363 . S
C1398 H1401 0.929 . S
C1399 C1398 1.363 . S
C1399 C1405 1.428 . S
H1400 C1396 0.930 . S
H1401 C1398 0.929 . S
S1402 N1403 1.613 . S
S1402 N1404 1.610 . S
N1403 S1402 1.613 . S
N1403 C1406 1.350 . S
N1404 S1402 1.610 . S
N1404 C1405 1.351 . S
C1405 C1399 1.428 . S
C1405 N1404 1.351 . S
C1405 C1406 1.434 . S
C1406 C1397 1.429 . S
C1406 N1403 1.350 . S
C1406 C1405 1.434 . S
C1407 C1408 1.369 . S
C1407 C1409 1.419 . S
C1407 H1411 0.930 . S
C1408 C1407 1.369 . S
C1408 C1417 1.429 . S
C1409 C1407 1.419 . S
C1409 C1410 1.363 . S
C1409 H1412 0.929 . S
C1410 C1409 1.363 . S
C1410 C1416 1.428 . S
H1411 C1407 0.930 . S
H1412 C1409 0.929 . S
S1413 N1414 1.613 . S
S1413 N1415 1.610 . S
N1414 S1413 1.613 . S
N1414 C1417 1.350 . S
N1415 S1413 1.610 . S
N1415 C1416 1.351 . S
C1416 C1410 1.428 . S
C1416 N1415 1.351 . S
C1416 C1417 1.434 . S
C1417 C1408 1.429 . S
C1417 N1414 1.350 . S
C1417 C1416 1.434 . S
C1418 C1419 1.369 . S
C1418 C1420 1.419 . S
C1418 H1422 0.930 . S
C1419 C1418 1.369 . S
C1419 C1428 1.429 . S
C1420 C1418 1.419 . S
C1420 C1421 1.363 . S
C1420 H1423 0.929 . S
C1421 C1420 1.363 . S
C1421 C1427 1.428 . S
H1422 C1418 0.930 . S
H1423 C1420 0.929 . S
S1424 N1425 1.613 . S
S1424 N1426 1.610 . S
N1425 S1424 1.613 . S
N1425 C1428 1.350 . S
N1426 S1424 1.610 . S
N1426 C1427 1.351 . S
C1427 C1421 1.428 . S
C1427 N1426 1.351 . S
C1427 C1428 1.434 . S
C1428 C1419 1.429 . S
C1428 N1425 1.350 . S
C1428 C1427 1.434 . S
C1429 C1430 1.369 . S
C1429 C1431 1.419 . S
C1429 H1433 0.930 . S
C1430 C1429 1.369 . S
C1430 C1439 1.429 . S
C1431 C1429 1.419 . S
C1431 C1432 1.363 . S
C1431 H1434 0.929 . S
C1432 C1431 1.363 . S
C1432 C1438 1.428 . S
H1433 C1429 0.930 . S
H1434 C1431 0.929 . S
S1435 N1436 1.613 . S
S1435 N1437 1.610 . S
N1436 S1435 1.613 . S
N1436 C1439 1.350 . S
N1437 S1435 1.610 . S
N1437 C1438 1.351 . S
C1438 C1432 1.428 . S
C1438 N1437 1.351 . S
C1438 C1439 1.434 . S
C1439 C1430 1.429 . S
C1439 N1436 1.350 . S
C1439 C1438 1.434 . S
C1440 C1441 1.369 . S
C1440 C1442 1.419 . S
C1440 H1444 0.930 . S
C1441 C1440 1.369 . S
C1441 C1450 1.429 . S
C1442 C1440 1.419 . S
C1442 C1443 1.363 . S
C1442 H1445 0.929 . S
C1443 C1442 1.363 . S
C1443 C1449 1.428 . S
H1444 C1440 0.930 . S
H1445 C1442 0.929 . S
S1446 N1447 1.613 . S
S1446 N1448 1.610 . S
N1447 S1446 1.613 . S
N1447 C1450 1.350 . S
N1448 S1446 1.610 . S
N1448 C1449 1.351 . S
C1449 C1443 1.428 . S
C1449 N1448 1.351 . S
C1449 C1450 1.434 . S
C1450 C1441 1.429 . S
C1450 N1447 1.350 . S
C1450 C1449 1.434 . S
C1451 C1452 1.369 . S
C1451 C1453 1.419 . S
C1451 H1455 0.930 . S
C1452 C1451 1.369 . S
C1452 C1461 1.429 . S
C1453 C1451 1.419 . S
C1453 C1454 1.363 . S
C1453 H1456 0.929 . S
C1454 C1453 1.363 . S
C1454 C1460 1.428 . S
H1455 C1451 0.930 . S
H1456 C1453 0.929 . S
S1457 N1458 1.613 . S
S1457 N1459 1.610 . S
N1458 S1457 1.613 . S
N1458 C1461 1.350 . S
N1459 S1457 1.610 . S
N1459 C1460 1.351 . S
C1460 C1454 1.428 . S
C1460 N1459 1.351 . S
C1460 C1461 1.434 . S
C1461 C1452 1.429 . S
C1461 N1458 1.350 . S
C1461 C1460 1.434 . S
C1462 C1463 1.369 . S
C1462 C1464 1.419 . S
C1462 H1466 0.930 . S
C1463 C1462 1.369 . S
C1463 C1472 1.429 . S
C1464 C1462 1.419 . S
C1464 C1465 1.363 . S
C1464 H1467 0.929 . S
C1465 C1464 1.363 . S
C1465 C1471 1.428 . S
H1466 C1462 0.930 . S
H1467 C1464 0.929 . S
S1468 N1469 1.613 . S
S1468 N1470 1.610 . S
N1469 S1468 1.613 . S
N1469 C1472 1.350 . S
N1470 S1468 1.610 . S
N1470 C1471 1.351 . S
C1471 C1465 1.428 . S
C1471 N1470 1.351 . S
C1471 C1472 1.434 . S
C1472 C1463 1.429 . S
C1472 N1469 1.350 . S
C1472 C1471 1.434 . S
C1473 C1474 1.369 . S
C1473 C1475 1.419 . S
C1473 H1477 0.930 . S
C1474 C1473 1.369 . S
C1474 C1483 1.429 . S
C1475 C1473 1.419 . S
C1475 C1476 1.363 . S
C1475 H1478 0.929 . S
C1476 C1475 1.363 . S
C1476 C1482 1.428 . S
H1477 C1473 0.930 . S
H1478 C1475 0.929 . S
S1479 N1480 1.613 . S
S1479 N1481 1.610 . S
N1480 S1479 1.613 . S
N1480 C1483 1.350 . S
N1481 S1479 1.610 . S
N1481 C1482 1.351 . S
C1482 C1476 1.428 . S
C1482 N1481 1.351 . S
C1482 C1483 1.434 . S
C1483 C1474 1.429 . S
C1483 N1480 1.350 . S
C1483 C1482 1.434 . S
C1484 C1485 1.369 . S
C1484 C1486 1.419 . S
C1484 H1488 0.930 . S
C1485 C1484 1.369 . S
C1485 C1494 1.429 . S
C1486 C1484 1.419 . S
C1486 C1487 1.363 . S
C1486 H1489 0.929 . S
C1487 C1486 1.363 . S
C1487 C1493 1.428 . S
H1488 C1484 0.930 . S
H1489 C1486 0.929 . S
S1490 N1491 1.613 . S
S1490 N1492 1.610 . S
N1491 S1490 1.613 . S
N1491 C1494 1.350 . S
N1492 S1490 1.610 . S
N1492 C1493 1.351 . S
C1493 C1487 1.428 . S
C1493 N1492 1.351 . S
C1493 C1494 1.434 . S
C1494 C1485 1.429 . S
C1494 N1491 1.350 . S
C1494 C1493 1.434 . S
C1495 C1496 1.369 . S
C1495 C1497 1.419 . S
C1495 H1499 0.930 . S
C1496 C1495 1.369 . S
C1496 C1505 1.429 . S
C1497 C1495 1.419 . S
C1497 C1498 1.363 . S
C1497 H1500 0.929 . S
C1498 C1497 1.363 . S
C1498 C1504 1.428 . S
H1499 C1495 0.930 . S
H1500 C1497 0.929 . S
S1501 N1502 1.613 . S
S1501 N1503 1.610 . S
N1502 S1501 1.613 . S
N1502 C1505 1.350 . S
N1503 S1501 1.610 . S
N1503 C1504 1.351 . S
C1504 C1498 1.428 . S
C1504 N1503 1.351 . S
C1504 C1505 1.434 . S
C1505 C1496 1.429 . S
C1505 N1502 1.350 . S
C1505 C1504 1.434 . S
C1506 C1507 1.369 . S
C1506 C1508 1.419 . S
C1506 H1510 0.930 . S
C1507 C1506 1.369 . S
C1507 C1516 1.429 . S
C1508 C1506 1.419 . S
C1508 C1509 1.363 . S
C1508 H1511 0.929 . S
C1509 C1508 1.363 . S
C1509 C1515 1.428 . S
H1510 C1506 0.930 . S
H1511 C1508 0.929 . S
S1512 N1513 1.613 . S
S1512 N1514 1.610 . S
N1513 S1512 1.613 . S
N1513 C1516 1.350 . S
N1514 S1512 1.610 . S
N1514 C1515 1.351 . S
C1515 C1509 1.428 . S
C1515 N1514 1.351 . S
C1515 C1516 1.434 . S
C1516 C1507 1.429 . S
C1516 N1513 1.350 . S
C1516 C1515 1.434 . S
C1517 C1518 1.369 . S
C1517 C1519 1.419 . S
C1517 H1521 0.930 . S
C1518 C1517 1.369 . S
C1518 C1527 1.429 . S
C1519 C1517 1.419 . S
C1519 C1520 1.363 . S
C1519 H1522 0.929 . S
C1520 C1519 1.363 . S
C1520 C1526 1.428 . S
H1521 C1517 0.930 . S
H1522 C1519 0.929 . S
S1523 N1524 1.613 . S
S1523 N1525 1.610 . S
N1524 S1523 1.613 . S
N1524 C1527 1.350 . S
N1525 S1523 1.610 . S
N1525 C1526 1.351 . S
C1526 C1520 1.428 . S
C1526 N1525 1.351 . S
C1526 C1527 1.434 . S
C1527 C1518 1.429 . S
C1527 N1524 1.350 . S
C1527 C1526 1.434 . S
C1528 C1529 1.369 . S
C1528 C1530 1.419 . S
C1528 H1532 0.930 . S
C1529 C1528 1.369 . S
C1529 C1538 1.429 . S
C1530 C1528 1.419 . S
C1530 C1531 1.363 . S
C1530 H1533 0.929 . S
C1531 C1530 1.363 . S
C1531 C1537 1.428 . S
H1532 C1528 0.930 . S
H1533 C1530 0.929 . S
S1534 N1535 1.613 . S
S1534 N1536 1.610 . S
N1535 S1534 1.613 . S
N1535 C1538 1.350 . S
N1536 S1534 1.610 . S
N1536 C1537 1.351 . S
C1537 C1531 1.428 . S
C1537 N1536 1.351 . S
C1537 C1538 1.434 . S
C1538 C1529 1.429 . S
C1538 N1535 1.350 . S
C1538 C1537 1.434 . S
C1539 C1540 1.369 . S
C1539 C1541 1.419 . S
C1539 H1543 0.930 . S
C1540 C1539 1.369 . S
C1540 C1549 1.429 . S
C1541 C1539 1.419 . S
C1541 C1542 1.363 . S
C1541 H1544 0.929 . S
C1542 C1541 1.363 . S
C1542 C1548 1.428 . S
H1543 C1539 0.930 . S
H1544 C1541 0.929 . S
S1545 N1546 1.613 . S
S1545 N1547 1.610 . S
N1546 S1545 1.613 . S
N1546 C1549 1.350 . S
N1547 S1545 1.610 . S
N1547 C1548 1.351 . S
C1548 C1542 1.428 . S
C1548 N1547 1.351 . S
C1548 C1549 1.434 . S
C1549 C1540 1.429 . S
C1549 N1546 1.350 . S
C1549 C1548 1.434 . S
C1550 C1551 1.369 . S
C1550 C1552 1.419 . S
C1550 H1554 0.930 . S
C1551 C1550 1.369 . S
C1551 C1560 1.429 . S
C1552 C1550 1.419 . S
C1552 C1553 1.363 . S
C1552 H1555 0.929 . S
C1553 C1552 1.363 . S
C1553 C1559 1.428 . S
H1554 C1550 0.930 . S
H1555 C1552 0.929 . S
S1556 N1557 1.613 . S
S1556 N1558 1.610 . S
N1557 S1556 1.613 . S
N1557 C1560 1.350 . S
N1558 S1556 1.610 . S
N1558 C1559 1.351 . S
C1559 C1553 1.428 . S
C1559 N1558 1.351 . S
C1559 C1560 1.434 . S
C1560 C1551 1.429 . S
C1560 N1557 1.350 . S
C1560 C1559 1.434 . S
C1561 C1562 1.369 . S
C1561 C1563 1.419 . S
C1561 H1565 0.930 . S
C1562 C1561 1.369 . S
C1562 C1571 1.429 . S
C1563 C1561 1.419 . S
C1563 C1564 1.363 . S
C1563 H1566 0.929 . S
C1564 C1563 1.363 . S
C1564 C1570 1.428 . S
H1565 C1561 0.930 . S
H1566 C1563 0.929 . S
S1567 N1568 1.613 . S
S1567 N1569 1.610 . S
N1568 S1567 1.613 . S
N1568 C1571 1.350 . S
N1569 S1567 1.610 . S
N1569 C1570 1.351 . S
C1570 C1564 1.428 . S
C1570 N1569 1.351 . S
C1570 C1571 1.434 . S
C1571 C1562 1.429 . S
C1571 N1568 1.350 . S
C1571 C1570 1.434 . S
C1572 C1573 1.369 . S
C1572 C1574 1.419 . S
C1572 H1576 0.930 . S
C1573 C1572 1.369 . S
C1573 C1582 1.429 . S
C1574 C1572 1.419 . S
C1574 C1575 1.363 . S
C1574 H1577 0.929 . S
C1575 C1574 1.363 . S
C1575 C1581 1.428 . S
H1576 C1572 0.930 . S
H1577 C1574 0.929 . S
S1578 N1579 1.613 . S
S1578 N1580 1.610 . S
N1579 S1578 1.613 . S
N1579 C1582 1.350 . S
N1580 S1578 1.610 . S
N1580 C1581 1.351 . S
C1581 C1575 1.428 . S
C1581 N1580 1.351 . S
C1581 C1582 1.434 . S
C1582 C1573 1.429 . S
C1582 N1579 1.350 . S
C1582 C1581 1.434 . S
C1583 C1584 1.369 . S
C1583 C1585 1.419 . S
C1583 H1587 0.930 . S
C1584 C1583 1.369 . S
C1584 C1593 1.429 . S
C1585 C1583 1.419 . S
C1585 C1586 1.363 . S
C1585 H1588 0.929 . S
C1586 C1585 1.363 . S
C1586 C1592 1.428 . S
H1587 C1583 0.930 . S
H1588 C1585 0.929 . S
S1589 N1590 1.613 . S
S1589 N1591 1.610 . S
N1590 S1589 1.613 . S
N1590 C1593 1.350 . S
N1591 S1589 1.610 . S
N1591 C1592 1.351 . S
C1592 C1586 1.428 . S
C1592 N1591 1.351 . S
C1592 C1593 1.434 . S
C1593 C1584 1.429 . S
C1593 N1590 1.350 . S
C1593 C1592 1.434 . S
C1594 C1595 1.369 . S
C1594 C1596 1.419 . S
C1594 H1598 0.930 . S
C1595 C1594 1.369 . S
C1595 C1604 1.429 . S
C1596 C1594 1.419 . S
C1596 C1597 1.363 . S
C1596 H1599 0.929 . S
C1597 C1596 1.363 . S
C1597 C1603 1.428 . S
H1598 C1594 0.930 . S
H1599 C1596 0.929 . S
S1600 N1601 1.613 . S
S1600 N1602 1.610 . S
N1601 S1600 1.613 . S
N1601 C1604 1.350 . S
N1602 S1600 1.610 . S
N1602 C1603 1.351 . S
C1603 C1597 1.428 . S
C1603 N1602 1.351 . S
C1603 C1604 1.434 . S
C1604 C1595 1.429 . S
C1604 N1601 1.350 . S
C1604 C1603 1.434 . S
C1605 C1606 1.369 . S
C1605 C1607 1.419 . S
C1605 H1609 0.930 . S
C1606 C1605 1.369 . S
C1606 C1615 1.429 . S
C1607 C1605 1.419 . S
C1607 C1608 1.363 . S
C1607 H1610 0.929 . S
C1608 C1607 1.363 . S
C1608 C1614 1.428 . S
H1609 C1605 0.930 . S
H1610 C1607 0.929 . S
S1611 N1612 1.613 . S
S1611 N1613 1.610 . S
N1612 S1611 1.613 . S
N1612 C1615 1.350 . S
N1613 S1611 1.610 . S
N1613 C1614 1.351 . S
C1614 C1608 1.428 . S
C1614 N1613 1.351 . S
C1614 C1615 1.434 . S
C1615 C1606 1.429 . S
C1615 N1612 1.350 . S
C1615 C1614 1.434 . S
C1616 C1617 1.369 . S
C1616 C1618 1.419 1_554 S
C1616 H1620 0.930 . S
C1617 C1616 1.369 . S
C1617 C1626 1.429 . S
C1618 C1616 1.419 1_556 S
C1618 C1619 1.363 . S
C1618 H1621 0.929 . S
C1619 C1618 1.363 . S
C1619 C1625 1.428 . S
H1620 C1616 0.930 . S
H1621 C1618 0.929 . S
S1622 N1623 1.613 1_556 S
S1622 N1624 1.610 . S
N1623 S1622 1.613 1_554 S
N1623 C1626 1.350 . S
N1624 S1622 1.610 . S
N1624 C1625 1.351 . S
C1625 C1619 1.428 . S
C1625 N1624 1.351 . S
C1625 C1626 1.434 1_556 S
C1626 C1617 1.429 . S
C1626 N1623 1.350 . S
C1626 C1625 1.434 1_554 S
C1627 C1628 1.369 1_545 S
C1627 C1629 1.419 . S
C1627 H1631 0.930 . S
C1628 C1627 1.369 1_565 S
C1628 C1637 1.429 . S
C1629 C1627 1.419 . S
C1629 C1630 1.363 . S
C1629 H1632 0.929 . S
C1630 C1629 1.363 . S
C1630 C1636 1.428 1_545 S
H1631 C1627 0.930 . S
H1632 C1629 0.929 . S
S1633 N1634 1.613 . S
S1633 N1635 1.610 . S
N1634 S1633 1.613 . S
N1634 C1637 1.350 1_455 S
N1635 S1633 1.610 . S
N1635 C1636 1.351 1_455 S
C1636 C1630 1.428 1_565 S
C1636 N1635 1.351 1_655 S
C1636 C1637 1.434 . S
C1637 C1628 1.429 . S
C1637 N1634 1.350 1_655 S
C1637 C1636 1.434 . S
C1638 C1639 1.369 . S
C1638 C1640 1.419 . S
C1638 H1642 0.930 . S
C1639 C1638 1.369 . S
C1639 C1648 1.429 . S
C1640 C1638 1.419 . S
C1640 C1641 1.363 . S
C1640 H1643 0.929 . S
C1641 C1640 1.363 . S
C1641 C1647 1.428 . S
H1642 C1638 0.930 . S
H1643 C1640 0.929 . S
S1644 N1645 1.613 . S
S1644 N1646 1.610 . S
N1645 S1644 1.613 . S
N1645 C1648 1.350 . S
N1646 S1644 1.610 . S
N1646 C1647 1.351 . S
C1647 C1641 1.428 . S
C1647 N1646 1.351 . S
C1647 C1648 1.434 . S
C1648 C1639 1.429 . S
C1648 N1645 1.350 . S
C1648 C1647 1.434 . S
C1649 C1650 1.369 . S
C1649 C1651 1.403 1_565 S
C1649 H1653 0.930 . S
C1650 C1649 1.369 . S
C1650 C1659 1.420 1_565 S
C1651 C1649 1.403 1_545 S
C1651 C1652 1.379 . S
C1651 H1654 0.929 . S
C1652 C1651 1.379 . S
C1652 C1658 1.428 . S
H1653 C1649 0.930 . S
H1654 C1651 0.929 . S
S1655 N1656 1.613 . S
S1655 N1657 1.610 . S
N1656 S1655 1.613 . S
N1656 C1659 1.352 . S
N1657 S1655 1.610 . S
N1657 C1658 1.351 . S
C1658 C1652 1.428 . S
C1658 N1657 1.351 . S
C1658 C1659 1.443 . S
C1659 C1650 1.420 1_545 S
C1659 N1656 1.352 . S
C1659 C1658 1.443 . S
C1660 C1661 1.369 . S
C1660 C1662 1.419 1_554 S
C1660 H1664 0.930 . S
C1661 C1660 1.369 . S
C1661 C1670 1.429 . S
C1662 C1660 1.419 1_556 S
C1662 C1663 1.363 . S
C1662 H1665 0.929 . S
C1663 C1662 1.363 . S
C1663 C1669 1.428 . S
H1664 C1660 0.930 . S
H1665 C1662 0.929 . S
S1666 N1667 1.613 1_556 S
S1666 N1668 1.610 . S
N1667 S1666 1.613 1_554 S
N1667 C1670 1.350 . S
N1668 S1666 1.610 . S
N1668 C1669 1.351 . S
C1669 C1663 1.428 . S
C1669 N1668 1.351 . S
C1669 C1670 1.434 1_556 S
C1670 C1661 1.429 . S
C1670 N1667 1.350 . S
C1670 C1669 1.434 1_554 S
C1671 C1672 1.369 1_565 S
C1671 C1673 1.419 . S
C1671 H1675 0.930 . S
C1672 C1671 1.369 1_545 S
C1672 C1681 1.429 . S
C1673 C1671 1.419 . S
C1673 C1674 1.363 . S
C1673 H1676 0.929 . S
C1674 C1673 1.363 . S
C1674 C1680 1.428 1_565 S
H1675 C1671 0.930 . S
H1676 C1673 0.929 . S
S1677 N1678 1.613 . S
S1677 N1679 1.610 . S
N1678 S1677 1.613 . S
N1678 C1681 1.350 . S
N1679 S1677 1.610 . S
N1679 C1680 1.351 . S
C1680 C1674 1.428 1_545 S
C1680 N1679 1.351 . S
C1680 C1681 1.434 . S
C1681 C1672 1.429 . S
C1681 N1678 1.350 . S
C1681 C1680 1.434 . S
C1682 C1683 1.369 . S
C1682 C1684 1.419 . S
C1682 H1686 0.930 . S
C1683 C1682 1.369 . S
C1683 C1692 1.429 . S
C1684 C1682 1.419 . S
C1684 C1685 1.363 . S
C1684 H1687 0.929 . S
C1685 C1684 1.363 . S
C1685 C1691 1.428 . S
H1686 C1682 0.930 . S
H1687 C1684 0.929 . S
S1688 N1689 1.613 . S
S1688 N1690 1.610 . S
N1689 S1688 1.613 . S
N1689 C1692 1.350 . S
N1690 S1688 1.610 . S
N1690 C1691 1.351 . S
C1691 C1685 1.428 . S
C1691 N1690 1.351 . S
C1691 C1692 1.434 . S
C1692 C1683 1.429 . S
C1692 N1689 1.350 . S
C1692 C1691 1.434 . S
C1693 C1694 1.369 1_545 S
C1693 C1695 1.419 . S
C1693 H1697 0.930 . S
C1694 C1693 1.369 1_565 S
C1694 C1703 1.429 . S
C1695 C1693 1.419 . S
C1695 C1696 1.363 . S
C1695 H1698 0.929 . S
C1696 C1695 1.363 . S
C1696 C1702 1.428 1_545 S
H1697 C1693 0.930 . S
H1698 C1695 0.929 . S
S1699 N1700 1.613 . S
S1699 N1701 1.610 . S
N1700 S1699 1.613 . S
N1700 C1703 1.350 . S
N1701 S1699 1.610 . S
N1701 C1702 1.351 . S
C1702 C1696 1.428 1_565 S
C1702 N1701 1.351 . S
C1702 C1703 1.434 . S
C1703 C1694 1.429 . S
C1703 N1700 1.350 . S
C1703 C1702 1.434 . S
C1704 C1705 1.369 . S
C1704 C1706 1.419 . S
C1704 H1708 0.930 . S
C1705 C1704 1.369 . S
C1705 C1714 1.429 . S
C1706 C1704 1.419 . S
C1706 C1707 1.363 . S
C1706 H1709 0.929 . S
C1707 C1706 1.363 . S
C1707 C1713 1.428 . S
H1708 C1704 0.930 . S
H1709 C1706 0.929 . S
S1710 N1711 1.613 . S
S1710 N1712 1.610 . S
N1711 S1710 1.613 . S
N1711 C1714 1.350 . S
N1712 S1710 1.610 . S
N1712 C1713 1.351 . S
C1713 C1707 1.428 . S
C1713 N1712 1.351 . S
C1713 C1714 1.434 . S
C1714 C1705 1.429 . S
C1714 N1711 1.350 . S
C1714 C1713 1.434 . S
C1715 C1716 1.369 . S
C1715 C1717 1.419 . S
C1715 H1719 0.930 . S
C1716 C1715 1.369 . S
C1716 C1725 1.429 . S
C1717 C1715 1.419 . S
C1717 C1718 1.363 . S
C1717 H1720 0.929 . S
C1718 C1717 1.363 . S
C1718 C1724 1.428 . S
H1719 C1715 0.930 . S
H1720 C1717 0.929 . S
S1721 N1722 1.613 . S
S1721 N1723 1.610 . S
N1722 S1721 1.613 . S
N1722 C1725 1.350 . S
N1723 S1721 1.610 . S
N1723 C1724 1.351 . S
C1724 C1718 1.428 . S
C1724 N1723 1.351 . S
C1724 C1725 1.434 . S
C1725 C1716 1.429 . S
C1725 N1722 1.350 . S
C1725 C1724 1.434 . S
C1726 C1727 1.369 . S
C1726 C1728 1.419 1_554 S
C1726 H1730 0.930 . S
C1727 C1726 1.369 . S
C1727 C1736 1.429 . S
C1728 C1726 1.419 1_556 S
C1728 C1729 1.363 . S
C1728 H1731 0.929 . S
C1729 C1728 1.363 . S
C1729 C1735 1.428 . S
H1730 C1726 0.930 . S
H1731 C1728 0.929 . S
S1732 N1733 1.637 . S
S1732 N1734 1.610 . S
N1733 S1732 1.637 . S
N1733 C1736 1.348 1_556 S
N1734 S1732 1.610 . S
N1734 C1735 1.351 . S
C1735 C1729 1.428 . S
C1735 N1734 1.351 . S
C1735 C1736 1.434 1_556 S
C1736 C1727 1.429 . S
C1736 N1733 1.348 1_554 S
C1736 C1735 1.434 1_554 S
C1737 C1738 1.369 . S
C1737 C1739 1.419 . S
C1737 H1741 0.930 . S
C1738 C1737 1.369 . S
C1738 C1747 1.429 . S
C1739 C1737 1.419 . S
C1739 C1740 1.363 . S
C1739 H1742 0.929 . S
C1740 C1739 1.363 . S
C1740 C1746 1.428 . S
H1741 C1737 0.930 . S
H1742 C1739 0.929 . S
S1743 N1744 1.613 . S
S1743 N1745 1.610 . S
N1744 S1743 1.613 . S
N1744 C1747 1.350 . S
N1745 S1743 1.610 . S
N1745 C1746 1.351 . S
C1746 C1740 1.428 . S
C1746 N1745 1.351 . S
C1746 C1747 1.434 . S
C1747 C1738 1.429 . S
C1747 N1744 1.350 . S
C1747 C1746 1.434 . S
C1748 C1749 1.369 . S
C1748 C1750 1.419 . S
C1748 H1752 0.930 . S
C1749 C1748 1.369 . S
C1749 C1758 1.429 . S
C1750 C1748 1.419 . S
C1750 C1751 1.363 . S
C1750 H1753 0.929 . S
C1751 C1750 1.363 . S
C1751 C1757 1.428 . S
H1752 C1748 0.930 . S
H1753 C1750 0.929 . S
S1754 N1755 1.613 . S
S1754 N1756 1.610 . S
N1755 S1754 1.613 . S
N1755 C1758 1.350 . S
N1756 S1754 1.610 . S
N1756 C1757 1.351 . S
C1757 C1751 1.428 . S
C1757 N1756 1.351 . S
C1757 C1758 1.434 . S
C1758 C1749 1.429 . S
C1758 N1755 1.350 . S
C1758 C1757 1.434 . S
C1759 C1760 1.369 . S
C1759 C1761 1.419 . S
C1759 H1763 0.930 . S
C1760 C1759 1.369 . S
C1760 C1769 1.429 . S
C1761 C1759 1.419 . S
C1761 C1762 1.363 . S
C1761 H1764 0.929 . S
C1762 C1761 1.363 . S
C1762 C1768 1.428 . S
H1763 C1759 0.930 . S
H1764 C1761 0.929 . S
S1765 N1766 1.613 . S
S1765 N1767 1.610 . S
N1766 S1765 1.613 . S
N1766 C1769 1.350 . S
N1767 S1765 1.610 . S
N1767 C1768 1.351 . S
C1768 C1762 1.428 . S
C1768 N1767 1.351 . S
C1768 C1769 1.434 . S
C1769 C1760 1.429 . S
C1769 N1766 1.350 . S
C1769 C1768 1.434 . S
C1770 C1771 1.369 . S
C1770 C1772 1.419 1_556 S
C1770 H1774 0.930 . S
C1771 C1770 1.369 . S
C1771 C1780 1.429 . S
C1772 C1770 1.419 1_554 S
C1772 C1773 1.363 . S
C1772 H1775 0.929 . S
C1773 C1772 1.363 . S
C1773 C1779 1.428 . S
H1774 C1770 0.930 . S
H1775 C1772 0.929 . S
S1776 N1777 1.613 1_554 S
S1776 N1778 1.610 . S
N1777 S1776 1.613 1_556 S
N1777 C1780 1.350 . S
N1778 S1776 1.610 . S
N1778 C1779 1.351 . S
C1779 C1773 1.428 . S
C1779 N1778 1.351 . S
C1779 C1780 1.434 1_554 S
C1780 C1771 1.429 . S
C1780 N1777 1.350 . S
C1780 C1779 1.434 1_556 S
C1781 C1782 1.369 . S
C1781 C1783 1.419 . S
C1781 H1785 0.930 . S
C1782 C1781 1.369 . S
C1782 C1791 1.429 . S
C1783 C1781 1.419 . S
C1783 C1784 1.363 . S
C1783 H1786 0.929 . S
C1784 C1783 1.363 . S
C1784 C1790 1.428 . S
H1785 C1781 0.930 . S
H1786 C1783 0.929 . S
S1787 N1788 1.613 . S
S1787 N1789 1.610 . S
N1788 S1787 1.613 . S
N1788 C1791 1.350 . S
N1789 S1787 1.610 . S
N1789 C1790 1.351 . S
C1790 C1784 1.428 . S
C1790 N1789 1.351 . S
C1790 C1791 1.434 . S
C1791 C1782 1.429 . S
C1791 N1788 1.350 . S
C1791 C1790 1.434 . S
C1792 C1793 1.369 . S
C1792 C1794 1.419 . S
C1792 H1796 0.930 . S
C1793 C1792 1.369 . S
C1793 C1802 1.429 . S
C1794 C1792 1.419 . S
C1794 C1795 1.363 . S
C1794 H1797 0.929 . S
C1795 C1794 1.363 . S
C1795 C1801 1.428 . S
H1796 C1792 0.930 . S
H1797 C1794 0.929 . S
S1798 N1799 1.613 . S
S1798 N1800 1.610 . S
N1799 S1798 1.613 . S
N1799 C1802 1.350 . S
N1800 S1798 1.610 . S
N1800 C1801 1.351 . S
C1801 C1795 1.428 . S
C1801 N1800 1.351 . S
C1801 C1802 1.434 . S
C1802 C1793 1.429 . S
C1802 N1799 1.350 . S
C1802 C1801 1.434 . S
C1803 C1804 1.369 . S
C1803 C1805 1.419 . S
C1803 H1807 0.930 . S
C1804 C1803 1.369 . S
C1804 C1813 1.429 . S
C1805 C1803 1.419 . S
C1805 C1806 1.363 . S
C1805 H1808 0.929 . S
C1806 C1805 1.363 . S
C1806 C1812 1.428 . S
H1807 C1803 0.930 . S
H1808 C1805 0.929 . S
S1809 N1810 1.613 . S
S1809 N1811 1.610 . S
N1810 S1809 1.613 . S
N1810 C1813 1.350 . S
N1811 S1809 1.610 . S
N1811 C1812 1.351 . S
C1812 C1806 1.428 . S
C1812 N1811 1.351 . S
C1812 C1813 1.434 . S
C1813 C1804 1.429 . S
C1813 N1810 1.350 . S
C1813 C1812 1.434 . S
C1814 C1815 1.369 . S
C1814 C1816 1.419 . S
C1814 H1818 0.930 . S
C1815 C1814 1.369 . S
C1815 C1824 1.429 . S
C1816 C1814 1.419 . S
C1816 C1817 1.363 . S
C1816 H1819 0.929 . S
C1817 C1816 1.363 . S
C1817 C1823 1.428 . S
H1818 C1814 0.930 . S
H1819 C1816 0.929 . S
S1820 N1821 1.613 . S
S1820 N1822 1.610 . S
N1821 S1820 1.613 . S
N1821 C1824 1.350 . S
N1822 S1820 1.610 . S
N1822 C1823 1.351 . S
C1823 C1817 1.428 . S
C1823 N1822 1.351 . S
C1823 C1824 1.434 . S
C1824 C1815 1.429 . S
C1824 N1821 1.350 . S
C1824 C1823 1.434 . S
C1825 C1826 1.369 . S
C1825 C1827 1.419 . S
C1825 H1829 0.930 . S
C1826 C1825 1.369 . S
C1826 C1835 1.429 . S
C1827 C1825 1.419 . S
C1827 C1828 1.363 . S
C1827 H1830 0.929 . S
C1828 C1827 1.363 . S
C1828 C1834 1.428 . S
H1829 C1825 0.930 . S
H1830 C1827 0.929 . S
S1831 N1832 1.613 . S
S1831 N1833 1.610 . S
N1832 S1831 1.613 . S
N1832 C1835 1.350 . S
N1833 S1831 1.610 . S
N1833 C1834 1.351 . S
C1834 C1828 1.428 . S
C1834 N1833 1.351 . S
C1834 C1835 1.434 . S
C1835 C1826 1.429 . S
C1835 N1832 1.350 . S
C1835 C1834 1.434 . S
C1836 C1837 1.369 . S
C1836 C1838 1.419 . S
C1836 H1840 0.930 . S
C1837 C1836 1.369 . S
C1837 C1846 1.429 . S
C1838 C1836 1.419 . S
C1838 C1839 1.363 . S
C1838 H1841 0.929 . S
C1839 C1838 1.363 . S
C1839 C1845 1.428 . S
H1840 C1836 0.930 . S
H1841 C1838 0.929 . S
S1842 N1843 1.613 . S
S1842 N1844 1.610 . S
N1843 S1842 1.613 . S
N1843 C1846 1.350 . S
N1844 S1842 1.610 . S
N1844 C1845 1.351 . S
C1845 C1839 1.428 . S
C1845 N1844 1.351 . S
C1845 C1846 1.434 . S
C1846 C1837 1.429 . S
C1846 N1843 1.350 . S
C1846 C1845 1.434 . S
C1847 C1848 1.369 . S
C1847 C1849 1.419 . S
C1847 H1851 0.930 . S
C1848 C1847 1.369 . S
C1848 C1857 1.429 . S
C1849 C1847 1.419 . S
C1849 C1850 1.363 . S
C1849 H1852 0.929 . S
C1850 C1849 1.363 . S
C1850 C1856 1.428 . S
H1851 C1847 0.930 . S
H1852 C1849 0.929 . S
S1853 N1854 1.613 . S
S1853 N1855 1.610 . S
N1854 S1853 1.613 . S
N1854 C1857 1.350 . S
N1855 S1853 1.610 . S
N1855 C1856 1.351 . S
C1856 C1850 1.428 . S
C1856 N1855 1.351 . S
C1856 C1857 1.434 . S
C1857 C1848 1.429 . S
C1857 N1854 1.350 . S
C1857 C1856 1.434 . S
C1858 C1859 1.369 . S
C1858 C1860 1.419 . S
C1858 H1862 0.930 . S
C1859 C1858 1.369 . S
C1859 C1868 1.429 . S
C1860 C1858 1.419 . S
C1860 C1861 1.363 . S
C1860 H1863 0.929 . S
C1861 C1860 1.363 . S
C1861 C1867 1.428 . S
H1862 C1858 0.930 . S
H1863 C1860 0.929 . S
S1864 N1865 1.613 . S
S1864 N1866 1.610 . S
N1865 S1864 1.613 . S
N1865 C1868 1.350 . S
N1866 S1864 1.610 . S
N1866 C1867 1.351 . S
C1867 C1861 1.428 . S
C1867 N1866 1.351 . S
C1867 C1868 1.434 . S
C1868 C1859 1.429 . S
C1868 N1865 1.350 . S
C1868 C1867 1.434 . S
C1869 C1870 1.369 . S
C1869 C1871 1.419 . S
C1869 H1873 0.930 . S
C1870 C1869 1.369 . S
C1870 C1879 1.429 . S
C1871 C1869 1.419 . S
C1871 C1872 1.363 . S
C1871 H1874 0.929 . S
C1872 C1871 1.363 . S
C1872 C1878 1.428 . S
H1873 C1869 0.930 . S
H1874 C1871 0.929 . S
S1875 N1876 1.613 . S
S1875 N1877 1.610 . S
N1876 S1875 1.613 . S
N1876 C1879 1.350 . S
N1877 S1875 1.610 . S
N1877 C1878 1.351 . S
C1878 C1872 1.428 . S
C1878 N1877 1.351 . S
C1878 C1879 1.434 . S
C1879 C1870 1.429 . S
C1879 N1876 1.350 . S
C1879 C1878 1.434 . S
C1880 C1881 1.369 . S
C1880 C1882 1.419 . S
C1880 H1884 0.930 . S
C1881 C1880 1.369 . S
C1881 C1890 1.429 . S
C1882 C1880 1.419 . S
C1882 C1883 1.363 . S
C1882 H1885 0.929 . S
C1883 C1882 1.363 . S
C1883 C1889 1.428 . S
H1884 C1880 0.930 . S
H1885 C1882 0.929 . S
S1886 N1887 1.613 . S
S1886 N1888 1.610 . S
N1887 S1886 1.613 . S
N1887 C1890 1.350 . S
N1888 S1886 1.610 . S
N1888 C1889 1.351 . S
C1889 C1883 1.428 . S
C1889 N1888 1.351 . S
C1889 C1890 1.434 . S
C1890 C1881 1.429 . S
C1890 N1887 1.350 . S
C1890 C1889 1.434 . S
C1891 C1892 1.369 . S
C1891 C1893 1.419 . S
C1891 H1895 0.930 . S
C1892 C1891 1.369 . S
C1892 C1901 1.429 . S
C1893 C1891 1.419 . S
C1893 C1894 1.363 . S
C1893 H1896 0.929 . S
C1894 C1893 1.363 . S
C1894 C1900 1.428 . S
H1895 C1891 0.930 . S
H1896 C1893 0.929 . S
S1897 N1898 1.613 . S
S1897 N1899 1.610 . S
N1898 S1897 1.613 . S
N1898 C1901 1.350 . S
N1899 S1897 1.610 . S
N1899 C1900 1.351 . S
C1900 C1894 1.428 . S
C1900 N1899 1.351 . S
C1900 C1901 1.434 . S
C1901 C1892 1.429 . S
C1901 N1898 1.350 . S
C1901 C1900 1.434 . S
C1902 C1903 1.369 . S
C1902 C1904 1.419 . S
C1902 H1906 0.930 . S
C1903 C1902 1.369 . S
C1903 C1912 1.429 . S
C1904 C1902 1.419 . S
C1904 C1905 1.363 . S
C1904 H1907 0.929 . S
C1905 C1904 1.363 . S
C1905 C1911 1.428 . S
H1906 C1902 0.930 . S
H1907 C1904 0.929 . S
S1908 N1909 1.613 . S
S1908 N1910 1.610 . S
N1909 S1908 1.613 . S
N1909 C1912 1.350 . S
N1910 S1908 1.610 . S
N1910 C1911 1.351 . S
C1911 C1905 1.428 . S
C1911 N1910 1.351 . S
C1911 C1912 1.434 . S
C1912 C1903 1.429 . S
C1912 N1909 1.350 . S
C1912 C1911 1.434 . S
C1913 C1914 1.369 . S
C1913 C1915 1.419 . S
C1913 H1917 0.930 . S
C1914 C1913 1.369 . S
C1914 C1923 1.429 . S
C1915 C1913 1.419 . S
C1915 C1916 1.363 . S
C1915 H1918 0.929 . S
C1916 C1915 1.363 . S
C1916 C1922 1.428 . S
H1917 C1913 0.930 . S
H1918 C1915 0.929 . S
S1919 N1920 1.613 . S
S1919 N1921 1.610 . S
N1920 S1919 1.613 . S
N1920 C1923 1.350 . S
N1921 S1919 1.610 . S
N1921 C1922 1.351 . S
C1922 C1916 1.428 . S
C1922 N1921 1.351 . S
C1922 C1923 1.434 . S
C1923 C1914 1.429 . S
C1923 N1920 1.350 . S
C1923 C1922 1.434 . S
C1924 C1925 1.369 . S
C1924 C1926 1.419 . S
C1924 H1928 0.930 . S
C1925 C1924 1.369 . S
C1925 C1934 1.429 . S
C1926 C1924 1.419 . S
C1926 C1927 1.363 . S
C1926 H1929 0.929 . S
C1927 C1926 1.363 . S
C1927 C1933 1.428 . S
H1928 C1924 0.930 . S
H1929 C1926 0.929 . S
S1930 N1931 1.613 . S
S1930 N1932 1.610 . S
N1931 S1930 1.613 . S
N1931 C1934 1.350 . S
N1932 S1930 1.610 . S
N1932 C1933 1.351 . S
C1933 C1927 1.428 . S
C1933 N1932 1.351 . S
C1933 C1934 1.434 . S
C1934 C1925 1.429 . S
C1934 N1931 1.350 . S
C1934 C1933 1.434 . S
C1935 C1936 1.369 . S
C1935 C1937 1.419 . S
C1935 H1939 0.930 . S
C1936 C1935 1.369 . S
C1936 C1945 1.429 . S
C1937 C1935 1.419 . S
C1937 C1938 1.363 . S
C1937 H1940 0.929 . S
C1938 C1937 1.363 . S
C1938 C1944 1.428 . S
H1939 C1935 0.930 . S
H1940 C1937 0.929 . S
S1941 N1942 1.613 . S
S1941 N1943 1.610 . S
N1942 S1941 1.613 . S
N1942 C1945 1.350 . S
N1943 S1941 1.610 . S
N1943 C1944 1.351 . S
C1944 C1938 1.428 . S
C1944 N1943 1.351 . S
C1944 C1945 1.434 . S
C1945 C1936 1.429 . S
C1945 N1942 1.350 . S
C1945 C1944 1.434 . S
C1946 C1947 1.369 . S
C1946 C1948 1.419 . S
C1946 H1950 0.930 . S
C1947 C1946 1.369 . S
C1947 C1956 1.429 . S
C1948 C1946 1.419 . S
C1948 C1949 1.363 . S
C1948 H1951 0.929 . S
C1949 C1948 1.363 . S
C1949 C1955 1.428 . S
H1950 C1946 0.930 . S
H1951 C1948 0.929 . S
S1952 N1953 1.613 . S
S1952 N1954 1.610 . S
N1953 S1952 1.613 . S
N1953 C1956 1.350 . S
N1954 S1952 1.610 . S
N1954 C1955 1.351 . S
C1955 C1949 1.428 . S
C1955 N1954 1.351 . S
C1955 C1956 1.434 . S
C1956 C1947 1.429 . S
C1956 N1953 1.350 . S
C1956 C1955 1.434 . S
C1957 C1958 1.369 . S
C1957 C1959 1.419 . S
C1957 H1961 0.930 . S
C1958 C1957 1.369 . S
C1958 C1967 1.429 . S
C1959 C1957 1.419 . S
C1959 C1960 1.363 . S
C1959 H1962 0.929 . S
C1960 C1959 1.363 . S
C1960 C1966 1.428 . S
H1961 C1957 0.930 . S
H1962 C1959 0.929 . S
S1963 N1964 1.613 . S
S1963 N1965 1.610 . S
N1964 S1963 1.613 . S
N1964 C1967 1.350 . S
N1965 S1963 1.610 . S
N1965 C1966 1.351 . S
C1966 C1960 1.428 . S
C1966 N1965 1.351 . S
C1966 C1967 1.434 . S
C1967 C1958 1.429 . S
C1967 N1964 1.350 . S
C1967 C1966 1.434 . S
C1089 C20 1.249 . S
C1091 C836 1.248 . S
C1100 C326 1.249 . S
C1102 C54 1.248 . S
C1111 C904 1.249 . S
C1113 C88 1.248 . S
C1122 C394 1.248 . S
C1124 C122 1.249 . S
C1133 C972 1.249 . S
C1135 C156 1.248 . S
C1144 C462 1.249 . S
C1146 C190 1.248 . S
C1155 C1040 1.248 . S
C1157 C224 1.249 . S
C1166 C530 1.249 . S
C1168 C258 1.248 . S
C1177 C292 1.249 . S
C1179 C564 1.248 . S
C1188 C360 1.248 . S
C1190 C632 1.249 . S
C1199 C428 1.248 . S
C1201 C700 1.249 . S
C1210 C768 1.248 . S
C1212 C496 1.249 . S
C1221 C598 1.248 . S
C1223 C870 1.249 . S
C1232 C938 1.248 . S
C1234 C666 1.249 . S
C1243 C734 1.248 . S
C1245 C1006 1.249 . S
C1254 C1074 1.248 . S
C1256 C802 1.249 . S
C1265 C5 1.739 . S
C1267 C407 1.728 . S
C1276 C39 1.737 . S
C1278 C849 1.730 . S
C1287 C339 1.731 . S
C1289 C73 1.739 . S
C1298 C107 1.738 . S
C1300 C917 1.729 . S
C1309 C475 1.731 . S
C1311 C141 1.739 . S
C1320 C1053 1.727 . S
C1322 C175 1.739 . S
C1331 C209 1.737 . S
C1333 C543 1.730 . S
C1342 C985 1.731 . S
C1344 C243 1.739 . S
C1353 C277 1.740 . S
C1355 C135 1.729 . S
C1364 C311 1.740 . S
C1366 C577 1.728 . S
C1375 C67 1.731 . S
C1377 C345 1.738 . S
C1386 C379 1.739 . S
C1388 C645 1.731 . S
C1397 C413 1.739 . S
C1399 C203 1.728 . S
C1408 C781 1.728 . S
C1410 C447 1.738 . S
C1419 C271 1.731 . S
C1421 C481 1.740 . S
C1430 C515 1.738 . S
C1432 C713 1.728 . S
C1441 C951 1.727 . S
C1443 C549 1.739 . S
C1452 C305 1.729 . S
C1454 C583 1.738 . S
C1463 C883 1.727 . S
C1465 C617 1.740 . S
C1474 C651 1.738 . S
C1476 C373 1.729 . S
C1485 C1019 1.731 . S
C1487 C685 1.738 . S
C1496 C509 1.731 . S
C1498 C719 1.738 . S
C1507 C753 1.738 . S
C1509 C1087 1.731 . S
C1518 C441 1.732 . S
C1520 C787 1.738 . S
C1529 C679 1.727 . S
C1531 C821 1.739 . S
C1540 C855 1.740 . S
C1542 C33 1.730 . S
C1551 C889 1.737 . S
C1553 C611 1.730 . S
C1562 C101 1.730 . S
C1564 C923 1.738 . S
C1573 C747 1.728 . S
C1575 C957 1.740 . S
C1584 C991 1.739 . S
C1586 C237 1.731 . S
C1595 C815 1.727 . S
C1597 C1025 1.739 . S
C1606 C169 1.728 . S
C1608 C1059 1.740 . S
C1617 C2 1.930 . S
C1619 C206 1.928 . S
C1628 C240 1.930 . S
C1630 C36 1.928 . S
C1639 C70 1.927 . S
C1641 C138 1.930 . S
C1650 C104 1.927 . S
C1652 C172 1.929 . S
C1661 C478 1.930 . S
C1663 C274 1.928 . S
C1672 C512 1.930 . S
C1674 C308 1.927 . S
C1683 C410 1.927 . S
C1685 C342 1.930 . S
C1694 C444 1.930 . S
C1696 C376 1.927 . S
C1705 C546 1.930 . S
C1707 C750 1.927 . S
C1716 C580 1.927 . S
C1718 C784 1.930 . S
C1727 C614 1.930 . S
C1729 C682 1.927 . S
C1738 C648 1.930 . S
C1740 C716 1.927 . S
C1749 C1022 1.927 . S
C1751 C818 1.930 . S
C1760 C1056 1.930 . S
C1762 C852 1.928 . S
C1771 C886 1.930 . S
C1773 C954 1.927 . S
C1782 C920 1.930 . S
C1784 C988 1.927 . S
C1793 C9 1.165 . S
C1795 C723 1.167 . S
C1804 C43 1.163 . S
C1806 C757 1.165 . S
C1815 C77 1.163 . S
C1817 C791 1.165 . S
C1826 C111 1.174 . S
C1828 C689 1.172 . S
C1837 C655 1.174 . S
C1839 C145 1.172 . S
C1848 C179 1.174 . S
C1850 C553 1.173 . S
C1859 C587 1.172 . S
C1861 C213 1.170 . S
C1870 C247 1.163 . S
C1872 C621 1.164 . S
C1881 C995 1.167 . S
C1883 C281 1.166 . S
C1892 C315 1.167 . S
C1894 C1029 1.170 . S
C1903 C1063 1.171 . S
C1905 C349 1.172 . S
C1914 C383 1.173 . S
C1916 C961 1.173 . S
C1925 C417 1.168 . S
C1927 C927 1.166 . S
C1936 C825 1.174 . S
C1938 C451 1.172 . S
C1947 C485 1.172 . S
C1949 C859 1.173 . S
C1958 C519 1.164 . S
C1960 C893 1.167 . S
