# Generated by pormake.
# Topology whw, (6)-cn, num edge types: 1
# Building blocks:
#     Node 0, Type 0, BuildingBlock: CUKXOW_clean_sbu_0, # of connection points: 6
#     Node 1, Type 0, BuildingBlock: CUKXOW_clean_sbu_0, # of connection points: 6
#     Node 2, Type 0, BuildingBlock: CUKXOW_clean_sbu_0, # of connection points: 6
#     Node 3, Type 0, BuildingBlock: CUKXOW_clean_sbu_0, # of connection points: 6
#     Node 4, Type 0, BuildingBlock: CUKXOW_clean_sbu_0, # of connection points: 6
#     Node 5, Type 0, BuildingBlock: CUKXOW_clean_sbu_0, # of connection points: 6
#     Node 6, Type 0, BuildingBlock: CUKXOW_clean_sbu_0, # of connection points: 6
#     Node 7, Type 0, BuildingBlock: CUKXOW_clean_sbu_0, # of connection points: 6
#     Node 8, Type 0, BuildingBlock: CUKXOW_clean_sbu_0, # of connection points: 6
#     Node 9, Type 0, BuildingBlock: CUKXOW_clean_sbu_0, # of connection points: 6
#     Node 10, Type 0, BuildingBlock: CUKXOW_clean_sbu_0, # of connection points: 6
#     Node 11, Type 0, BuildingBlock: CUKXOW_clean_sbu_0, # of connection points: 6
#     Node 12, Type 0, BuildingBlock: CUKXOW_clean_sbu_0, # of connection points: 6
#     Node 13, Type 0, BuildingBlock: CUKXOW_clean_sbu_0, # of connection points: 6
#     Node 14, Type 0, BuildingBlock: CUKXOW_clean_sbu_0, # of connection points: 6
#     Node 15, Type 0, BuildingBlock: CUKXOW_clean_sbu_0, # of connection points: 6
#     Edge 16, Type (0, 0), BuildingBlock: AJUNOK_clean_linker_0, # of connection points: 2
#     Edge 17, Type (0, 0), BuildingBlock: AJUNOK_clean_linker_0, # of connection points: 2
#     Edge 18, Type (0, 0), BuildingBlock: AJUNOK_clean_linker_0, # of connection points: 2
#     Edge 19, Type (0, 0), BuildingBlock: AJUNOK_clean_linker_0, # of connection points: 2
#     Edge 20, Type (0, 0), BuildingBlock: AJUNOK_clean_linker_0, # of connection points: 2
#     Edge 21, Type (0, 0), BuildingBlock: AJUNOK_clean_linker_0, # of connection points: 2
#     Edge 22, Type (0, 0), BuildingBlock: AJUNOK_clean_linker_0, # of connection points: 2
#     Edge 23, Type (0, 0), BuildingBlock: AJUNOK_clean_linker_0, # of connection points: 2
#     Edge 24, Type (0, 0), BuildingBlock: AJUNOK_clean_linker_0, # of connection points: 2
#     Edge 25, Type (0, 0), BuildingBlock: AJUNOK_clean_linker_0, # of connection points: 2
#     Edge 26, Type (0, 0), BuildingBlock: AJUNOK_clean_linker_0, # of connection points: 2
#     Edge 27, Type (0, 0), BuildingBlock: AJUNOK_clean_linker_0, # of connection points: 2
#     Edge 28, Type (0, 0), BuildingBlock: AJUNOK_clean_linker_0, # of connection points: 2
#     Edge 29, Type (0, 0), BuildingBlock: AJUNOK_clean_linker_0, # of connection points: 2
#     Edge 30, Type (0, 0), BuildingBlock: AJUNOK_clean_linker_0, # of connection points: 2
#     Edge 31, Type (0, 0), BuildingBlock: AJUNOK_clean_linker_0, # of connection points: 2
#     Edge 32, Type (0, 0), BuildingBlock: AJUNOK_clean_linker_0, # of connection points: 2
#     Edge 33, Type (0, 0), BuildingBlock: AJUNOK_clean_linker_0, # of connection points: 2
#     Edge 34, Type (0, 0), BuildingBlock: AJUNOK_clean_linker_0, # of connection points: 2
#     Edge 35, Type (0, 0), BuildingBlock: AJUNOK_clean_linker_0, # of connection points: 2
#     Edge 36, Type (0, 0), BuildingBlock: AJUNOK_clean_linker_0, # of connection points: 2
#     Edge 37, Type (0, 0), BuildingBlock: AJUNOK_clean_linker_0, # of connection points: 2
#     Edge 38, Type (0, 0), BuildingBlock: AJUNOK_clean_linker_0, # of connection points: 2
#     Edge 39, Type (0, 0), BuildingBlock: AJUNOK_clean_linker_0, # of connection points: 2
#     Edge 40, Type (0, 0), BuildingBlock: AJUNOK_clean_linker_0, # of connection points: 2
#     Edge 41, Type (0, 0), BuildingBlock: AJUNOK_clean_linker_0, # of connection points: 2
#     Edge 42, Type (0, 0), BuildingBlock: AJUNOK_clean_linker_0, # of connection points: 2
#     Edge 43, Type (0, 0), BuildingBlock: AJUNOK_clean_linker_0, # of connection points: 2
#     Edge 44, Type (0, 0), BuildingBlock: AJUNOK_clean_linker_0, # of connection points: 2
#     Edge 45, Type (0, 0), BuildingBlock: AJUNOK_clean_linker_0, # of connection points: 2
#     Edge 46, Type (0, 0), BuildingBlock: AJUNOK_clean_linker_0, # of connection points: 2
#     Edge 47, Type (0, 0), BuildingBlock: AJUNOK_clean_linker_0, # of connection points: 2
#     Edge 48, Type (0, 0), BuildingBlock: AJUNOK_clean_linker_0, # of connection points: 2
#     Edge 49, Type (0, 0), BuildingBlock: AJUNOK_clean_linker_0, # of connection points: 2
#     Edge 50, Type (0, 0), BuildingBlock: AJUNOK_clean_linker_0, # of connection points: 2
#     Edge 51, Type (0, 0), BuildingBlock: AJUNOK_clean_linker_0, # of connection points: 2
#     Edge 52, Type (0, 0), BuildingBlock: AJUNOK_clean_linker_0, # of connection points: 2
#     Edge 53, Type (0, 0), BuildingBlock: AJUNOK_clean_linker_0, # of connection points: 2
#     Edge 54, Type (0, 0), BuildingBlock: AJUNOK_clean_linker_0, # of connection points: 2
#     Edge 55, Type (0, 0), BuildingBlock: AJUNOK_clean_linker_0, # of connection points: 2
#     Edge 56, Type (0, 0), BuildingBlock: AJUNOK_clean_linker_0, # of connection points: 2
#     Edge 57, Type (0, 0), BuildingBlock: AJUNOK_clean_linker_0, # of connection points: 2
#     Edge 58, Type (0, 0), BuildingBlock: AJUNOK_clean_linker_0, # of connection points: 2
#     Edge 59, Type (0, 0), BuildingBlock: AJUNOK_clean_linker_0, # of connection points: 2
#     Edge 60, Type (0, 0), BuildingBlock: AJUNOK_clean_linker_0, # of connection points: 2
#     Edge 61, Type (0, 0), BuildingBlock: AJUNOK_clean_linker_0, # of connection points: 2
#     Edge 62, Type (0, 0), BuildingBlock: AJUNOK_clean_linker_0, # of connection points: 2
#     Edge 63, Type (0, 0), BuildingBlock: AJUNOK_clean_linker_0, # of connection points: 2
# Relax obj value: 0.284
# Max RMSD: 0.181
# Mean RMSD: 0.175
data_MOF--net-whw--node1-CUKXOW_clean_sbu_0--edge1-AJUNOK_clean_linker_0
_symmetry_space_group_name_H-M    P1
_symmetry_Int_Tables_number       1
_symmetry_cell_setting            triclinic
loop_
_symmetry_equiv_pos_as_xyz
'x, y, z'
_cell_length_a     35.484662
_cell_length_b     35.722604
_cell_length_c     19.853023
_cell_angle_alpha  94.048421
_cell_angle_beta   89.932422
_cell_angle_gamma 89.74954
loop_
_atom_site_label
_atom_site_type_symbol
_atom_site_fract_x
_atom_site_fract_y
_atom_site_fract_z
_atom_type_partial_charge
Tb0 Tb 0.01405 0.1089 0.25147 0.0
C1 C 0.04998 0.0408 0.16045 0.0
Tb2 Tb 0.08562 0.11757 0.17623 0.0
O3 O 0.97003 0.11875 0.1765 0.0
O4 O 0.02662 0.11995 0.15094 0.0
O5 O 0.01956 0.05362 0.19432 0.0
C6 C 0.10696 0.13878 0.06102 0.0
O7 O 0.08243 0.05814 0.16582 0.0
C8 C 0.09873 0.13047 0.30445 0.0
C9 C 0.05241 0.18768 0.25098 0.0
O10 O 0.12795 0.11673 0.09578 0.0
O11 O 0.07644 0.1485 0.09269 0.0
O12 O 0.12163 0.1398 0.25703 0.0
O13 O 0.07316 0.10798 0.2784 0.0
O14 O 0.07731 0.17448 0.20642 0.0
O15 O 0.02895 0.16586 0.28204 0.0
C16 C 0.9652 0.09953 0.34909 0.0
O17 O 0.964 0.12638 0.30865 0.0
O18 O -0.00605 0.07768 0.33437 0.0
C19 C -0.00689 0.1223 0.12683 0.0
Tb20 Tb 0.1312 0.67764 0.45211 0.0
C21 C 0.20087 0.70943 0.37893 0.0
Tb22 Tb 0.11946 0.74415 0.38444 0.0
O23 O 0.10371 0.63902 0.37641 0.0
O24 O 0.12943 0.68764 0.34711 0.0
O25 O 0.18832 0.68065 0.41131 0.0
C26 C 0.11423 0.7926 0.29125 0.0
O27 O 0.17989 0.73939 0.37199 0.0
C28 C 0.11394 0.7704 0.51088 0.0
C29 C 0.05101 0.69714 0.41915 0.0
O30 O 0.14536 0.77788 0.31052 0.0
O31 O 0.08635 0.78003 0.32512 0.0
O32 O 0.11245 0.79 0.45918 0.0
O33 O 0.12026 0.73564 0.49138 0.0
O34 O 0.06504 0.71812 0.37303 0.0
O35 O 0.07254 0.68555 0.46681 0.0
C36 C 0.13353 0.63532 0.55693 0.0
O37 O 0.11806 0.6262 0.49921 0.0
O38 O 0.15189 0.66643 0.55233 0.0
C39 C 0.10835 0.6603 0.3267 0.0
Tb40 Tb 0.53767 0.84959 0.66956 0.0
C41 C 0.48908 0.91043 0.6011 0.0
Tb42 Tb 0.46615 0.82387 0.59182 0.0
O43 O 0.57746 0.85407 0.58534 0.0
O44 O 0.52203 0.83791 0.56884 0.0
O45 O 0.51866 0.90394 0.63969 0.0
C46 C 0.42258 0.80124 0.48941 0.0
O47 O 0.46424 0.88432 0.58059 0.0
C48 C 0.44857 0.81994 0.7228 0.0
C49 C 0.52667 0.76907 0.63019 0.0
O50 O 0.43083 0.83582 0.50736 0.0
O51 O 0.43817 0.77927 0.53056 0.0
O52 O 0.42634 0.81331 0.67172 0.0
O53 O 0.48045 0.83094 0.69836 0.0
O54 O 0.50757 0.77932 0.57779 0.0
O55 O 0.55327 0.79158 0.65227 0.0
C56 C 0.58031 0.86564 0.77769 0.0
O57 O 0.59153 0.84781 0.72231 0.0
O58 O 0.54518 0.87503 0.77158 0.0
C59 C 0.5534 0.84229 0.5391 0.0
Tb60 Tb 0.41772 0.31759 0.87413 0.0
C61 C 0.47345 0.2904 0.97503 0.0
Tb62 Tb 0.39276 0.25969 0.99555 0.0
O63 O 0.41317 0.36842 0.94259 0.0
O64 O 0.39266 0.31756 0.97047 0.0
O65 O 0.47155 0.31155 0.9234 0.0
C66 C 0.3983 0.21378 0.10399 0.0
O67 O 0.4449 0.29121 1.01768 0.0
C68 C 0.39919 0.22969 0.87115 0.0
C69 C 0.33342 0.2846 0.88599 0.0
O70 O 0.42008 0.2139 0.05089 0.0
O71 O 0.3731 0.24043 0.09582 0.0
O72 O 0.38492 0.21227 0.92016 0.0
O73 O 0.41371 0.25967 0.89615 0.0
O74 O 0.33745 0.27182 0.94841 0.0
O75 O 0.36052 0.30075 0.85142 0.0
C76 C 0.44466 0.33986 0.75337 0.0
O77 O 0.41174 0.34802 0.78053 0.0
O78 O 0.46212 0.31897 0.79457 0.0
C79 C 0.39886 0.35103 0.99246 0.0
Tb80 Tb 0.00219 0.87013 0.83728 0.0
C81 C 0.04174 0.93044 0.93447 0.0
Tb82 Tb 0.06984 0.84648 0.91244 0.0
O83 O 0.95794 0.86603 0.91558 0.0
O84 O 0.01242 0.85342 0.93624 0.0
O85 O 0.01565 0.92486 0.88693 0.0
C86 C 0.10342 0.81825 1.01392 0.0
O87 O 0.06634 0.90461 0.9502 0.0
C88 C 0.08798 0.84268 0.78574 0.0
C89 C 0.02798 0.78936 0.81201 0.0
O90 O 0.11387 0.84918 0.98859 0.0
O91 O 0.07629 0.80291 0.97887 0.0
O92 O 0.10845 0.82955 0.83284 0.0
O93 O 0.06264 0.86511 0.8137 0.0
O94 O 0.0449 0.79482 0.87141 0.0
O95 O 0.01079 0.81658 0.78419 0.0
C96 C 0.95221 0.88342 0.74475 0.0
O97 O 0.95077 0.85588 0.78362 0.0
O98 O 0.98143 0.90443 0.75967 0.0
C99 C 0.98002 0.85663 0.96341 0.0
Tb100 Tb 0.40886 0.65579 0.22392 0.0
C101 C 0.4711 0.67963 0.13109 0.0
Tb102 Tb 0.39299 0.71012 0.09525 0.0
O103 O 0.41129 0.60433 0.15953 0.0
O104 O 0.38718 0.65317 0.12495 0.0
O105 O 0.46573 0.661 0.18526 0.0
C106 C 0.40533 0.75065 0.98179 0.0
O107 O 0.44503 0.67714 0.08367 0.0
C108 C 0.39839 0.74364 0.21736 0.0
C109 C 0.32696 0.69001 0.19688 0.0
O110 O 0.42087 0.75552 1.04102 0.0
O111 O 0.38163 0.72265 0.98702 0.0
O112 O 0.38634 0.76038 0.16563 0.0
O113 O 0.41139 0.71224 0.19619 0.0
O114 O 0.33531 0.70272 0.13588 0.0
O115 O 0.35109 0.67414 0.23787 0.0
C116 C 0.42844 0.63596 0.34776 0.0
O117 O 0.40234 0.6196 0.31008 0.0
O118 O 0.44231 0.66306 0.31558 0.0
C119 C 0.39759 0.61991 0.10734 0.0
Tb120 Tb 0.51402 0.12193 0.40201 0.0
C121 C 0.48129 0.05398 0.47929 0.0
Tb122 Tb 0.44582 0.13485 0.49154 0.0
O123 O 0.55971 0.13118 0.47814 0.0
O124 O 0.50508 0.13589 0.50746 0.0
O125 O 0.50422 0.06419 0.43033 0.0
C126 C 0.41453 0.16816 0.59918 0.0
O127 O 0.45734 0.07744 0.51173 0.0
C128 C 0.42384 0.13505 0.36121 0.0
C129 C 0.47108 0.19536 0.41162 0.0
O130 O 0.40487 0.13482 0.57407 0.0
O131 O 0.44057 0.18172 0.56324 0.0
O132 O 0.40383 0.14647 0.41381 0.0
O133 O 0.45299 0.11851 0.38559 0.0
O134 O 0.47037 0.1872 0.47437 0.0
O135 O 0.4895 0.17292 0.36805 0.0
C136 C 0.56313 0.11794 0.30179 0.0
O137 O 0.55905 0.14615 0.34593 0.0
O138 O 0.53963 0.0914 0.31452 0.0
C139 C 0.5386 0.13803 0.53076 0.0
Tb140 Tb 0.13266 0.30009 0.63976 0.0
C141 C 0.1994 0.27007 0.71888 0.0
Tb142 Tb 0.12043 0.2273 0.70156 0.0
O143 O 0.1165 0.33869 0.73041 0.0
O144 O 0.11568 0.28258 0.73423 0.0
O145 O 0.18961 0.29597 0.67765 0.0
C146 C 0.12001 0.17788 0.79086 0.0
O147 O 0.17736 0.24203 0.73286 0.0
C148 C 0.12544 0.20581 0.57446 0.0
C149 C 0.05258 0.27779 0.65793 0.0
O150 O 0.14937 0.19661 0.77521 0.0
O151 O 0.09094 0.18695 0.75544 0.0
O152 O 0.12111 0.18421 0.62285 0.0
O153 O 0.1281 0.24052 0.59867 0.0
O154 O 0.06479 0.25285 0.70022 0.0
O155 O 0.07508 0.29435 0.61786 0.0
C156 C 0.13314 0.3393 0.53089 0.0
O157 O 0.11624 0.34931 0.58737 0.0
O158 O 0.15339 0.30964 0.53944 0.0
C159 C 0.10747 0.31217 0.76965 0.0
Tb160 Tb 0.90801 0.15438 0.72504 0.0
C161 C 0.97077 0.16968 0.62575 0.0
Tb162 Tb 0.89423 0.2075 0.59458 0.0
O163 O 0.90943 0.10262 0.65991 0.0
O164 O 0.88568 0.15149 0.62598 0.0
O165 O 0.96421 0.15455 0.68335 0.0
C166 C 0.90504 0.24714 0.48052 0.0
O167 O 0.94375 0.17098 0.58023 0.0
C168 C 0.90036 0.24219 0.7139 0.0
C169 C 0.82549 0.18685 0.6914 0.0
O170 O 0.92718 0.24634 0.53275 0.0
O171 O 0.87679 0.22488 0.49302 0.0
O172 O 0.88954 0.25875 0.66141 0.0
O173 O 0.91316 0.21029 0.69493 0.0
O174 O 0.83583 0.20277 0.63433 0.0
O175 O 0.84819 0.16666 0.72878 0.0
C176 C 0.92861 0.14117 0.85415 0.0
O177 O 0.91454 0.11658 0.80926 0.0
O178 O 0.92969 0.17314 0.82652 0.0
C179 C 0.89527 0.11802 0.60758 0.0
Tb180 Tb 0.63216 0.7972 0.13691 0.0
C181 C 0.69916 0.76111 0.21428 0.0
Tb182 Tb 0.61553 0.72914 0.20735 0.0
O183 O 0.60734 0.83572 0.21719 0.0
O184 O 0.63061 0.78462 0.23957 0.0
O185 O 0.68891 0.78877 0.17645 0.0
C186 C 0.60082 0.68424 0.30294 0.0
O187 O 0.67593 0.73362 0.22747 0.0
C188 C 0.60817 0.70674 0.07986 0.0
C189 C 0.55143 0.78363 0.16738 0.0
O190 O 0.63207 0.68423 0.26922 0.0
O191 O 0.57776 0.70883 0.28094 0.0
O192 O 0.60437 0.68552 0.12918 0.0
O193 O 0.61713 0.73999 0.10295 0.0
O194 O 0.56352 0.76047 0.21218 0.0
O195 O 0.57336 0.7936 0.11895 0.0
C196 C 0.64159 0.84098 1.03616 0.0
O197 O 0.62317 0.84993 0.09126 0.0
O198 O 0.65771 0.80853 1.04091 0.0
C199 C 0.61165 0.81249 0.26406 0.0
Tb200 Tb 0.62916 0.1775 0.93625 0.0
C201 C 0.69304 0.21379 0.86079 0.0
Tb202 Tb 0.60749 0.24776 0.87418 0.0
O203 O 0.60694 0.14001 0.85085 0.0
O204 O 0.62266 0.19413 0.8351 0.0
O205 O 0.68538 0.18706 0.90165 0.0
C206 C 0.59951 0.29933 0.78648 0.0
O207 O 0.66762 0.23968 0.8465 0.0
C208 C 0.60468 0.26696 1.0051 0.0
C209 C 0.54681 0.18663 0.90805 0.0
O210 O 0.62727 0.29696 0.82813 0.0
O211 O 0.5753 0.27301 0.79649 0.0
O212 O 0.59668 0.2887 0.95802 0.0
O213 O 0.6136 0.23436 0.9768 0.0
O214 O 0.55572 0.21576 0.87246 0.0
O215 O 0.57105 0.17075 0.9461 0.0
C216 C 0.63542 0.14273 0.04952 0.0
O217 O 0.64413 0.17735 1.0416 0.0
O218 O 0.62758 0.12614 0.99072 0.0
C219 C 0.60503 0.16605 0.80797 0.0
Tb220 Tb 0.90695 0.82271 0.36706 0.0
C221 C 0.96929 0.80736 0.46682 0.0
Tb222 Tb 0.89389 0.76834 0.49706 0.0
O223 O 0.89811 0.87461 0.43063 0.0
O224 O 0.88339 0.82364 0.46485 0.0
O225 O 0.96254 0.8249 0.41199 0.0
C226 C 0.90478 0.72961 0.61303 0.0
O227 O 0.94223 0.80597 0.51227 0.0
C228 C 0.90239 0.73262 0.37817 0.0
C229 C 0.82836 0.78129 0.38921 0.0
O230 O 0.92417 0.72646 0.55706 0.0
O231 O 0.87878 0.75518 0.60308 0.0
O232 O 0.89081 0.71702 0.43129 0.0
O233 O 0.91385 0.7655 0.39593 0.0
O234 O 0.83641 0.77201 0.45274 0.0
O235 O 0.85239 0.79667 0.34716 0.0
C236 C 0.93047 0.85189 0.24911 0.0
O237 O 0.89578 0.85013 0.27141 0.0
O238 O 0.95128 0.83551 0.29239 0.0
C239 C 0.88767 0.85776 0.48355 0.0
Tb240 Tb 0.5001 0.59762 0.74905 0.0
C241 C 0.54698 0.54768 0.65259 0.0
Tb242 Tb 0.55475 0.6353 0.68053 0.0
O243 O 0.46965 0.57838 0.65521 0.0
O244 O 0.49723 0.62885 0.66021 0.0
O245 O 0.52353 0.54602 0.70366 0.0
C246 C 0.59544 0.65911 0.58071 0.0
O247 O 0.564 0.57881 0.63979 0.0
C248 C 0.57357 0.64611 0.80406 0.0
C249 C 0.49184 0.67891 0.76265 0.0
O250 O 0.59685 0.62577 0.60165 0.0
O251 O 0.57185 0.67922 0.61763 0.0
O252 O 0.58453 0.66616 0.7563 0.0
O253 O 0.55781 0.61517 0.77989 0.0
O254 O 0.51078 0.6758 0.70474 0.0
O255 O 0.48916 0.65086 0.79977 0.0
C256 C 0.45134 0.57972 0.84185 0.0
O257 O 0.44434 0.60108 0.79347 0.0
O258 O 0.48532 0.56615 0.83471 0.0
C259 C 0.48002 0.60593 0.62055 0.0
Tb260 Tb 0.01192 0.34832 0.17214 0.0
C261 C 0.97228 0.41591 0.10542 0.0
Tb262 Tb 0.94182 0.33364 0.08972 0.0
O263 O 0.05636 0.34253 0.09334 0.0
O264 O 0.00094 0.33476 0.06849 0.0
O265 O -0.001 0.40571 0.14743 0.0
C266 C 0.91224 0.30977 0.97674 0.0
O267 O 0.94669 0.3928 0.07804 0.0
C268 C 0.92676 0.32495 0.22106 0.0
C269 C 0.97528 0.26873 0.14998 0.0
O270 O 0.89362 0.3307 1.02213 0.0
O271 O 0.94647 0.30348 0.99439 0.0
O272 O 0.90554 0.31431 0.16978 0.0
O273 O 0.95246 0.34592 0.19637 0.0
O274 O 0.95785 0.2771 0.09581 0.0
O275 O -0.00718 0.29376 0.19099 0.0
C276 C 0.05931 0.35371 0.27535 0.0
O277 O 0.05872 0.32639 0.22889 0.0
O278 O 0.03371 0.37838 0.26274 0.0
C279 C 0.0341 0.33408 1.04287 0.0
Tb280 Tb 0.51514 0.37574 0.3456 0.0
C281 C 0.55933 0.43802 0.42743 0.0
Tb282 Tb 0.58459 0.3532 0.41844 0.0
O283 O 0.47348 0.37947 0.42968 0.0
O284 O 0.52815 0.3659 0.44784 0.0
O285 O 0.53219 0.43155 0.38237 0.0
C286 C 0.6284 0.33466 0.51809 0.0
O287 O 0.58542 0.41307 0.44091 0.0
C288 C 0.59495 0.33916 0.28618 0.0
C289 C 0.5253 0.2987 0.3746 0.0
O290 O 0.62313 0.36855 0.50028 0.0
O291 O 0.61171 0.31145 0.47508 0.0
O292 O 0.61508 0.32608 0.33351 0.0
O293 O 0.57379 0.36544 0.31462 0.0
O294 O 0.54387 0.30974 0.42916 0.0
O295 O 0.52756 0.31842 0.32266 0.0
C296 C 0.46281 0.37954 0.25194 0.0
O297 O 0.46485 0.35399 0.29486 0.0
O298 O 0.49042 0.40323 0.26171 0.0
C299 C 0.49669 0.37212 0.47748 0.0
Tb300 Tb 0.02532 0.62091 0.92756 0.0
C301 C 0.97529 0.55769 0.98003 0.0
Tb302 Tb 0.95483 0.64473 1.00658 0.0
O303 O 0.0664 0.6144 1.00928 0.0
O304 O 0.0106 0.62832 1.02875 0.0
O305 O 0.00336 0.56496 0.93875 0.0
C306 C 0.92092 0.65614 0.12301 0.0
O307 O 0.95228 0.58395 1.0071 0.0
C308 C 0.93907 0.65696 0.87655 0.0
C309 C 0.01269 0.70343 0.97529 0.0
O310 O 0.90345 0.64603 0.06716 0.0
O311 O 0.95605 0.6627 0.11116 0.0
O312 O 0.91613 0.66195 0.92786 0.0
O313 O 0.96988 0.64313 0.90097 0.0
O314 O 0.97899 0.70008 1.00208 0.0
O315 O 0.03636 0.67575 0.97719 0.0
C316 C 0.06449 0.61959 0.81412 0.0
O317 O 0.03053 0.63225 0.82264 0.0
O318 O 0.07741 0.60831 0.87034 0.0
C319 C 0.0422 0.62271 0.05792 0.0
C320 C 0.14569 0.14241 0.95754 0.0
C321 C 0.11116 0.14688 0.9912 0.0
C322 C 0.14844 0.15088 0.89011 0.0
C323 C 0.11652 0.16321 0.85592 0.0
H324 H 0.17052 0.1332 0.98357 0.0
H325 H 0.17561 0.14863 0.86513 0.0
S326 S 0.02176 0.18493 0.92493 0.0
N327 N 0.0452 0.1669 0.98635 0.0
N328 N 0.05139 0.18385 0.86166 0.0
C329 C 0.08235 0.1685 0.8896 0.0
C330 C 0.07942 0.16002 0.9571 0.0
C331 C 0.14092 0.81923 0.19023 0.0
C332 C 0.10973 0.80547 0.22441 0.0
C333 C 0.13912 0.82336 0.12092 0.0
C334 C 0.10677 0.8122 0.08474 0.0
H335 H 0.16702 0.82571 0.21674 0.0
H336 H 0.16325 0.83431 0.09532 0.0
S337 S 0.01894 0.77196 0.1512 0.0
N338 N 0.04597 0.78073 0.21757 0.0
N339 N 0.04334 0.78601 0.08724 0.0
C340 C 0.07551 0.79837 0.11864 0.0
C341 C 0.07677 0.79577 0.18889 0.0
C342 C 0.39471 0.73666 0.34083 0.0
C343 C 0.39866 0.75989 0.2872 0.0
C344 C 0.40011 0.7507 0.40755 0.0
C345 C 0.40902 0.7886 0.42231 0.0
H346 H 0.38824 0.70733 0.33132 0.0
H347 H 0.39876 0.7315 0.44739 0.0
S348 S 0.42086 0.86151 0.30029 0.0
N349 N 0.41022 0.82299 0.25333 0.0
N350 N 0.42028 0.8495 0.37893 0.0
C351 C 0.41084 0.81265 0.36954 0.0
C352 C 0.40547 0.7983 0.3017 0.0
C353 C 0.42187 0.23265 0.75419 0.0
C354 C 0.39872 0.21579 0.80001 0.0
C355 C 0.42606 0.21722 0.68876 0.0
C356 C 0.40542 0.18548 0.66548 0.0
H357 H 0.43778 0.25723 0.76898 0.0
H358 H 0.4467 0.22973 0.65723 0.0
S359 S 0.33516 0.13486 0.76102 0.0
N360 N 0.35158 0.16771 0.81597 0.0
N361 N 0.35775 0.14005 0.68959 0.0
C362 C 0.37991 0.1698 0.7087 0.0
C363 C 0.37673 0.18477 0.77678 0.0
C364 C 0.98109 0.86309 0.16003 0.0
C365 C 0.94263 0.85916 0.17762 0.0
C366 C -0.00664 0.86231 0.0915 0.0
C367 C 0.96794 0.85642 1.03707 0.0
H368 H 0.00209 0.86594 0.19958 0.0
H369 H 0.02302 0.86602 0.08114 0.0
S370 S 0.86447 0.84284 0.05539 0.0
N371 N 0.8794 0.85023 0.13381 0.0
N372 N 0.90219 0.84567 1.00723 0.0
C373 C 0.92942 0.85298 0.05438 0.0
C374 C 0.91686 0.85542 0.12369 0.0
C375 C 0.94058 0.16275 0.9769 0.0
C376 C 0.9435 0.13443 0.92389 0.0
C377 C 0.95716 0.15882 1.04112 0.0
C378 C 0.9794 0.12729 0.05522 0.0
H379 H 0.92538 0.1884 0.96865 0.0
H380 H 0.95215 0.18076 0.08017 0.0
S381 S -0.0112 0.04164 0.93927 0.0
N382 N 0.96524 0.07094 0.89405 0.0
N383 N -0.0029 0.06443 1.01306 0.0
C384 C 0.98062 0.09795 1.00377 0.0
C385 C 0.96274 0.10136 0.93884 0.0
C386 C 0.55238 0.1757 0.71964 0.0
C387 C 0.58817 0.16114 0.73715 0.0
C388 C 0.53564 0.16757 0.65464 0.0
C389 C 0.55411 0.14505 0.60299 0.0
H390 H 0.5368 0.19335 0.75618 0.0
H391 H 0.50839 0.17968 0.6445 0.0
S392 S 0.64869 0.10097 0.62269 0.0
N393 N 0.64083 0.12313 0.6971 0.0
N394 N 0.61137 0.10913 0.57608 0.0
C395 C 0.59014 0.13098 0.6203 0.0
C396 C 0.60649 0.13859 0.68658 0.0
C397 C 0.54695 0.84484 0.41264 0.0
C398 C 0.56471 0.82992 0.46817 0.0
C399 C 0.56213 0.83915 0.34669 0.0
C400 C 0.59475 0.81698 0.33328 0.0
H401 H 0.52234 0.86267 0.42071 0.0
H402 H 0.5483 0.8524 0.30593 0.0
S403 S 0.65135 0.77046 0.45974 0.0
N404 N 0.61717 0.7919 0.50443 0.0
N405 N 0.64336 0.77916 0.3805 0.0
C406 C 0.61163 0.80052 0.38768 0.0
C407 C 0.59725 0.80748 0.45502 0.0
C408 C 0.58369 0.70198 0.41873 0.0
C409 C 0.6 0.67523 0.37253 0.0
C410 C 0.58686 0.69861 0.48732 0.0
C411 C 0.60395 0.667 0.5118 0.0
H412 H 0.56933 0.72654 0.40217 0.0
H413 H 0.57404 0.72012 0.5212 0.0
S414 S 0.65337 0.59024 0.41154 0.0
N415 N 0.63758 0.61826 0.35492 0.0
N416 N 0.63952 0.6093 0.48578 0.0
C417 C 0.62126 0.64027 0.46643 0.0
C418 C 0.6199 0.64485 0.39603 0.0
C419 C 0.60958 0.34651 0.70314 0.0
C420 C 0.60794 0.3091 0.71901 0.0
C421 C 0.62021 0.35513 0.63834 0.0
C422 C 0.62971 0.32644 0.58873 0.0
H423 H 0.60188 0.36893 0.74027 0.0
H424 H 0.61877 0.38418 0.62608 0.0
S425 S 0.63388 0.2243 0.61068 0.0
N426 N 0.62016 0.24356 0.68467 0.0
N427 N 0.63908 0.25948 0.56182 0.0
C428 C 0.62989 0.28903 0.60583 0.0
C429 C 0.61918 0.28041 0.67147 0.0
C430 C 0.91898 0.31311 0.85689 0.0
C431 C 0.90005 0.2979 0.91036 0.0
C432 C 0.91798 0.2951 0.79262 0.0
C433 C 0.90024 0.26026 0.7817 0.0
H434 H 0.93593 0.33819 0.86554 0.0
H435 H 0.93205 0.30802 0.75183 0.0
S436 S 0.84364 0.21121 0.90526 0.0
N437 N 0.86087 0.24826 0.94898 0.0
N438 N 0.85956 0.21394 0.82778 0.0
C439 C 0.88002 0.24574 0.83456 0.0
C440 C 0.88008 0.2646 0.89956 0.0
C441 C 0.89462 0.67432 0.30281 0.0
C442 C 0.90141 0.71335 0.31045 0.0
C443 C 0.89648 0.65487 0.23902 0.0
C444 C 0.90354 0.67445 0.18191 0.0
H445 H 0.88992 0.65841 0.34649 0.0
H446 H 0.89489 0.6245 0.23491 0.0
S447 S 0.92266 0.77409 0.17398 0.0
N448 N 0.9158 0.76934 0.25497 0.0
N449 N 0.91621 0.73298 0.13472 0.0
C450 C 0.9078 0.71306 0.18842 0.0
C451 C 0.90771 0.73248 0.25293 0.0
C452 C 0.50966 0.35272 0.59842 0.0
C453 C 0.48535 0.36822 0.55105 0.0
C454 C 0.49675 0.34389 0.66354 0.0
C455 C 0.45909 0.35087 0.68528 0.0
H456 H 0.53838 0.34563 0.58388 0.0
H457 H 0.51635 0.33092 0.69669 0.0
S458 S 0.38415 0.39179 0.58272 0.0
N459 N 0.42141 0.39024 0.53269 0.0
N460 N 0.3983 0.37512 0.65387 0.0
C461 C 0.43508 0.36743 0.6394 0.0
C462 C 0.44787 0.37579 0.57306 0.0
C463 C 0.44393 0.58743 0.51277 0.0
C464 C 0.46567 0.61402 0.55175 0.0
C465 C 0.43134 0.59424 0.44697 0.0
C466 C 0.44017 0.62788 0.41759 0.0
H467 H 0.4369 0.56098 0.53299 0.0
H468 H 0.4151 0.57288 0.41875 0.0
S469 S 0.4941 0.70715 0.49777 0.0
N470 N 0.49388 0.676 0.55526 0.0
N471 N 0.47073 0.68816 0.43295 0.0
C472 C 0.46139 0.65459 0.45614 0.0
C473 C 0.47394 0.64791 0.52274 0.0
C474 C 0.06212 0.6252 0.24788 0.0
C475 C 0.08952 0.6537 0.25873 0.0
C476 C 0.045 0.6171 0.18409 0.0
C477 C 0.05463 0.63682 0.12777 0.0
H478 H 0.05423 0.60838 0.2889 0.0
H479 H 0.0253 0.59403 0.17811 0.0
S480 S 0.12484 0.71418 0.12873 0.0
N481 N 0.12451 0.70232 0.20758 0.0
N482 N 0.09394 0.68656 0.08778 0.0
C483 C 0.08164 0.66584 0.13819 0.0
C484 C 0.0985 0.67447 0.20349 0.0
C485 C 0.06183 0.29016 0.86274 0.0
C486 C 0.08698 0.31701 0.83805 0.0
C487 C 0.04261 0.29634 0.92637 0.0
C488 C 0.0481 0.32932 0.96942 0.0
H489 H 0.05679 0.26417 0.83284 0.0
H490 H 0.02444 0.27452 0.94297 0.0
S491 S 0.11152 0.40752 0.92998 0.0
N492 N 0.11521 0.37778 0.86286 0.0
N493 N 0.08198 0.3882 0.98155 0.0
C494 C 0.07341 0.35575 0.9451 0.0
C495 C 0.09182 0.35002 0.88007 0.0
C496 C 0.97782 0.22532 0.22764 0.0
C497 C 0.98549 0.23122 0.15962 0.0
C498 C 0.0067 0.23331 0.27463 0.0
C499 C 0.04374 0.22761 0.2511 0.0
H500 H 0.94895 0.2249 0.24546 0.0
H501 H 0.00031 0.23218 0.32762 0.0
S502 S 0.07772 0.24379 0.08036 0.0
N503 N 0.03259 0.23336 0.07139 0.0
N504 N 0.08623 0.24544 0.16243 0.0
C505 C 0.05117 0.23817 0.18574 0.0
C506 C 0.02286 0.22974 0.13679 0.0
C507 C -0.01212 0.75385 0.38771 0.0
C508 C -0.01136 0.77178 0.45366 0.0
C509 C -0.00774 0.71508 0.37871 0.0
C510 C 0.01053 0.6976 0.43019 0.0
H511 H 0.98051 0.76883 0.34399 0.0
H512 H -0.00759 0.70215 0.32761 0.0
S513 S 0.0115 0.72711 0.61105 0.0
N514 N 0.00014 0.76521 0.573 0.0
N515 N 0.01275 0.69258 0.55117 0.0
C516 C 0.00335 0.7115 0.49654 0.0
C517 C -0.00292 0.75048 0.50822 0.0
C518 C 0.45036 0.72098 0.72239 0.0
C519 C 0.47131 0.71312 0.77953 0.0
C520 C 0.46876 0.73913 0.67175 0.0
C521 C 0.50445 0.75535 0.68507 0.0
H522 H 0.42519 0.70499 0.70942 0.0
H523 H 0.45609 0.73839 0.62234 0.0
S524 S 0.54919 0.76854 0.85512 0.0
N525 N 0.51274 0.74089 0.86527 0.0
N526 N 0.54844 0.77793 0.77497 0.0
C527 C 0.5172 0.75882 0.75307 0.0
C528 C 0.49773 0.7396 0.80223 0.0
C529 C 0.48514 0.19826 0.87715 0.0
C530 C 0.50724 0.1798 0.92216 0.0
C531 C 0.48314 0.23706 0.89055 0.0
C532 C 0.48684 0.25272 0.9575 0.0
H533 H 0.48253 0.18682 0.82537 0.0
H534 H 0.47821 0.25446 0.84939 0.0
S535 S 0.51783 0.2026 0.10385 0.0
N536 N 0.51624 0.17007 1.04036 0.0
N537 N 0.5025 0.24167 0.07341 0.0
C538 C 0.49575 0.22908 1.00842 0.0
C539 C 0.50214 0.19041 0.99083 0.0
C540 C 0.98355 0.74451 0.81477 0.0
C541 C 0.01903 0.75099 0.78802 0.0
C542 C 0.98196 0.73335 0.88078 0.0
C543 C 0.01479 0.71996 0.91093 0.0
H544 H 0.9591 0.75819 0.79486 0.0
H545 H 0.95543 0.73546 0.90771 0.0
S546 S 0.10828 0.7061 0.82729 0.0
N547 N 0.08051 0.72285 0.76982 0.0
N548 N 0.08156 0.7028 0.89448 0.0
C549 C 0.048 0.71542 0.87141 0.0
C550 C 0.04769 0.72651 0.80461 0.0
C551 C 0.49924 0.77738 0.09873 0.0
C552 C 0.51092 0.79032 0.16307 0.0
C553 C 0.49103 0.73929 0.08856 0.0
C554 C 0.48539 0.71773 0.14435 0.0
H555 H 0.5081 0.792 0.05566 0.0
H556 H 0.48916 0.72678 1.0373 0.0
S557 S 0.49125 0.75393 0.32502 0.0
N558 N 0.49705 0.79105 0.28131 0.0
N559 N 0.48441 0.71852 0.26837 0.0
C560 C 0.48646 0.73617 0.21012 0.0
C561 C 0.49291 0.77546 0.21731 0.0
C562 C 0.45041 0.23373 0.32428 0.0
C563 C 0.44309 0.22269 0.38926 0.0
C564 C 0.47607 0.2622 0.31932 0.0
C565 C 0.49042 0.27963 0.37938 0.0
H566 H 0.44829 0.21478 0.28024 0.0
H567 H 0.48855 0.26615 0.27043 0.0
S568 S 0.44569 0.27745 0.54825 0.0
N569 N 0.42119 0.24797 0.4981 0.0
N570 N 0.47902 0.29394 0.50045 0.0
C571 C 0.46986 0.2771 0.43974 0.0
C572 C 0.43949 0.25181 0.43886 0.0
C573 C -0.00733 0.26529 0.69537 0.0
C574 C 0.013 0.27847 0.64209 0.0
C575 C -0.0124 0.22673 0.69451 0.0
C576 C -0.00888 0.20439 0.63313 0.0
H577 H -0.00736 0.28118 0.74391 0.0
H578 H 0.97888 0.21508 0.74097 0.0
S579 S 0.01774 0.23714 0.46751 0.0
N580 N 0.0195 0.27501 0.52025 0.0
N581 N 0.0051 0.20236 0.51297 0.0
C582 C 0.00166 0.22124 0.57455 0.0
C583 C 0.00852 0.26016 0.5782 0.0
C584 C 0.01756 0.98648 0.09632 0.0
C585 C 0.04627 0.01347 0.10089 0.0
C586 C 0.01422 0.96152 1.03856 0.0
C587 C 0.03912 0.96305 0.98345 0.0
H588 H -0.00176 0.98401 0.13804 0.0
H589 H -0.00694 0.93976 1.03823 0.0
S590 S 0.11497 0.03219 0.96487 0.0
N591 N 0.09686 0.0432 1.04019 0.0
N592 N 0.09114 -0.00477 0.93431 0.0
C593 C 0.06669 -0.00919 0.98591 0.0
C594 C 0.07002 0.01636 1.04392 0.0
C595 C 0.24295 0.66957 0.30214 0.0
C596 C 0.23419 0.70504 0.3337 0.0
C597 C 0.27041 0.66539 0.25111 0.0
C598 C 0.28986 0.69653 0.22883 0.0
H599 H 0.22823 0.64481 0.31637 0.0
H600 H 0.27772 0.63733 0.23088 0.0
S601 S 0.27843 0.79528 0.29579 0.0
N602 N 0.24755 0.77197 0.33882 0.0
N603 N 0.29932 0.76371 0.24342 0.0
C604 C 0.28105 0.73212 0.2591 0.0
C605 C 0.25325 0.73647 0.31133 0.0
C606 C 0.45143 0.00095 0.5359 0.0
C607 C 0.48314 0.01547 0.5035 0.0
C608 C 0.45325 0.96699 0.56754 0.0
C609 C 0.48718 0.9468 0.56979 0.0
H610 H 0.42492 0.01616 0.53743 0.0
H611 H 0.42818 0.95688 0.59148 0.0
S612 S 0.57726 0.97004 0.48791 0.0
N613 N 0.54871 0.00493 0.47166 0.0
N614 N 0.55228 0.94175 0.53255 0.0
C615 C 0.51872 0.96026 0.53614 0.0
C616 C 0.51668 -0.00564 0.50254 0.0
C617 C 0.26243 0.27975 0.87313 0.0
C618 C 0.29874 0.27773 0.84501 0.0
C619 C 0.23043 0.2778 0.83112 0.0
C620 C 0.23373 0.27446 0.76003 0.0
H621 H 0.25871 0.28375 0.92732 0.0
H622 H 0.20275 0.27935 0.85433 0.0
S623 S 0.32211 0.26326 0.66168 0.0
N624 N 0.33564 0.26774 0.74117 0.0
N625 N 0.27567 0.26643 0.66374 0.0
C626 C 0.2696 0.27144 0.73143 0.0
C627 C 0.302 0.27235 0.7737 0.0
C628 C 0.74583 0.17418 0.8127 0.0
C629 C 0.72688 0.20888 0.81662 0.0
C630 C 0.7749 0.16637 0.76638 0.0
C631 C 0.78758 0.19313 0.72265 0.0
H632 H 0.73796 0.15232 0.84508 0.0
H633 H 0.78871 0.13927 0.76694 0.0
S634 S 0.74544 0.28753 0.70848 0.0
N635 N 0.72072 0.26946 0.76867 0.0
N636 N 0.77712 0.25537 0.68364 0.0
C637 C 0.76816 0.22763 0.72414 0.0
C638 C 0.73768 0.23541 0.77086 0.0
C639 C 0.78291 0.73929 0.32544 0.0
C640 C 0.79076 0.77438 0.35909 0.0
C641 C 0.7537 0.73516 0.27742 0.0
C642 C 0.73228 0.76625 0.25953 0.0
H643 H 0.8006 0.71528 0.33393 0.0
H644 H 0.74839 0.70761 0.25298 0.0
S645 S 0.739 0.86323 0.33891 0.0
N646 N 0.77273 0.83994 0.37545 0.0
N647 N 0.71848 0.83249 0.28495 0.0
C648 C 0.73902 0.80114 0.29481 0.0
C649 C 0.76811 0.80511 0.3445 0.0
C650 C 0.54742 0.48093 0.6048 0.0
C651 C 0.54621 0.51928 0.5955 0.0
C652 C 0.55097 0.45507 0.54889 0.0
C653 C 0.55276 0.46679 0.48238 0.0
H654 H 0.54717 0.47101 0.65512 0.0
H655 H 0.55298 0.42555 0.55786 0.0
S656 S 0.54207 0.56383 0.43153 0.0
N657 N 0.541 0.56761 0.51475 0.0
N658 N 0.54723 0.51854 0.41017 0.0
C659 C 0.54805 0.50471 0.47221 0.0
C660 C 0.54491 0.53109 0.5289 0.0
C661 C 0.96411 0.51951 0.07856 0.0
C662 C 0.97387 0.52066 1.00955 0.0
C663 C 0.96497 0.48586 0.11111 0.0
C664 C 0.97522 0.45218 0.07543 0.0
H665 H 0.95638 0.545 0.10827 0.0
H666 H 0.95693 0.48611 0.16381 0.0
S667 S 0.00355 0.43902 0.89575 0.0
N668 N -0.00507 0.48454 0.90789 0.0
N669 N -0.00455 0.42126 0.96889 0.0
C670 C 0.98517 0.45274 1.00706 0.0
C671 C 0.98488 0.48698 0.97409 0.0
C672 C 0.10054 0.18953 0.38574 0.0
C673 C 0.10136 0.14964 0.37434 0.0
C674 C 0.10876 0.2083 0.44926 0.0
C675 C 0.12111 0.18834 0.50331 0.0
H676 H 0.09499 0.20723 0.34542 0.0
H677 H 0.10568 0.23852 0.45577 0.0
S678 S 0.14061 0.08512 0.49323 0.0
N679 N 0.12224 0.09233 0.41903 0.0
N680 N 0.14068 0.12646 0.53614 0.0
C681 C 0.1254 0.14874 0.4905 0.0
C682 C 0.11519 0.1298 0.42688 0.0
C683 C 0.11444 0.77054 0.63954 0.0
C684 C 0.10542 0.78833 0.58093 0.0
C685 C 0.10929 0.78911 0.7043 0.0
C686 C 0.09149 0.82474 0.71474 0.0
H687 H 0.12739 0.74295 0.63542 0.0
H688 H 0.12061 0.77579 0.74703 0.0
S689 S 0.06873 0.88663 0.57989 0.0
N690 N 0.08342 0.8474 0.5388 0.0
N691 N 0.06975 0.87888 0.66076 0.0
C692 C 0.08264 0.84298 0.65715 0.0
C693 C 0.09027 0.82549 0.59064 0.0
C694 C 0.39672 0.76349 0.85655 0.0
C695 C 0.41525 0.77184 0.91851 0.0
C696 C 0.40639 0.78109 0.79661 0.0
C697 C 0.43723 0.80637 0.79244 0.0
H698 H 0.37444 0.74281 0.85395 0.0
H699 H 0.39049 0.77287 0.75149 0.0
S700 S 0.48901 0.84591 0.94234 0.0
N701 N 0.46082 0.81468 0.97354 0.0
N702 N 0.48132 0.84377 0.86016 0.0
C703 C 0.45446 0.81687 0.85458 0.0
C704 C 0.44323 0.80046 0.91699 0.0
C705 C 0.38556 0.17582 0.2832 0.0
C706 C 0.41589 0.15009 0.29116 0.0
C707 C 0.37989 0.19514 0.22323 0.0
C708 C 0.40306 0.18921 0.16542 0.0
H709 H 0.36708 0.18308 0.32559 0.0
H710 H 0.35752 0.21584 0.22308 0.0
S711 S 0.47903 0.11602 0.15146 0.0
N712 N 0.46564 0.11584 0.23102 0.0
N713 N 0.4523 0.14759 0.11689 0.0
C714 C 0.43078 0.16025 0.17015 0.0
C715 C 0.4377 0.1419 0.23268 0.0
C716 C 0.88481 0.85254 0.60664 0.0
C717 C 0.89903 0.87084 0.55194 0.0
C718 C 0.90082 0.85851 0.67064 0.0
C719 C 0.93134 0.88317 0.68158 0.0
H720 H 0.86244 0.83213 0.5991 0.0
H721 H 0.89032 0.84245 0.71098 0.0
S722 S 0.98069 0.93576 0.55407 0.0
N723 N 0.94643 0.91345 0.51214 0.0
N724 N 0.97609 0.92481 0.6329 0.0
C725 C 0.94537 0.90215 0.6277 0.0
C726 C 0.92925 0.89602 0.56254 0.0
C727 C 0.94047 0.08514 0.52878 0.0
C728 C 0.90708 0.1062 0.53856 0.0
C729 C 0.95807 0.08167 0.46582 0.0
C730 C 0.94286 0.09911 0.41088 0.0
H731 H 0.95461 0.07348 0.57092 0.0
H732 H 0.98484 0.06699 0.46123 0.0
S733 S 0.85371 0.15365 0.40918 0.0
N734 N 0.85779 0.14191 0.48783 0.0
N735 N 0.8912 0.13601 0.3687 0.0
C736 C 0.90865 0.11891 0.41921 0.0
C737 C 0.89058 0.12214 0.48335 0.0
C738 C 0.62571 0.15694 0.17161 0.0
C739 C 0.62155 0.13124 0.11514 0.0
C740 C 0.60797 0.15146 0.23272 0.0
C741 C 0.58559 0.11976 0.24015 0.0
H742 H 0.64159 0.18248 0.16802 0.0
H743 H 0.61091 0.17295 0.27371 0.0
S744 S 0.56452 0.04404 0.10902 0.0
N745 N 0.59201 0.07314 0.0705 0.0
N746 N 0.56027 0.06193 0.18759 0.0
C747 C 0.58179 0.09318 0.18525 0.0
C748 C 0.59926 0.09915 0.12204 0.0
C749 C 0.5812 0.87891 0.90129 0.0
C750 C 0.60047 0.86626 0.84224 0.0
C751 C 0.59596 0.873 0.96484 0.0
C752 C 0.63097 0.85497 0.97121 0.0
H753 H 0.5536 0.89175 0.89846 0.0
H754 H 0.57878 0.88068 1.00887 0.0
S755 S 0.69537 0.82197 0.83296 0.0
N756 N 0.65818 0.83827 0.79418 0.0
N757 N 0.68623 0.82815 0.91451 0.0
C758 C 0.65168 0.84457 0.91289 0.0
C759 C 0.63646 0.8501 0.84801 0.0
C760 C 0.56565 0.64628 0.9315 0.0
C761 C 0.58432 0.6589 0.87515 0.0
C762 C 0.57302 0.66256 0.99722 0.0
C763 C 0.5988 0.6926 1.0092 0.0
H764 H 0.54475 0.62431 0.92474 0.0
H765 H 0.55807 0.65165 1.03917 0.0
S766 S 0.65664 0.73495 0.88057 0.0
N767 N 0.63147 0.70283 0.8373 0.0
N768 N 0.64369 0.73303 0.95997 0.0
C769 C 0.61752 0.70538 0.95374 0.0
C770 C 0.61075 0.68862 0.88714 0.0
C771 C 0.56958 0.32685 0.16398 0.0
C772 C 0.59669 0.32087 0.21396 0.0
C773 C 0.57171 0.3079 0.0983 0.0
C774 C 0.60047 0.28127 0.07901 0.0
H775 H 0.5466 0.34633 0.17543 0.0
H776 H 0.55056 0.31456 0.06165 0.0
S777 S 0.68052 0.25771 0.18781 0.0
N778 N 0.65477 0.28711 0.23673 0.0
N779 N 0.65816 0.25281 0.1149 0.0
C780 C 0.62775 0.27534 0.12812 0.0
C781 C 0.62592 0.29465 0.19472 0.0
C782 C 0.94835 0.31057 0.34415 0.0
C783 C 0.92224 0.3072 0.28996 0.0
C784 C 0.94271 0.29223 0.40575 0.0
C785 C 0.91115 0.2687 0.41646 0.0
H786 H 0.97342 0.32733 0.33905 0.0
H787 H 0.96326 0.29684 0.44542 0.0
S788 S 0.83342 0.25135 0.29396 0.0
N789 N 0.86248 0.27859 0.25497 0.0
N790 N 0.85294 0.24539 0.36765 0.0
C791 C 0.88494 0.26583 0.36345 0.0
C792 C 0.89029 0.28438 0.3015 0.0
C793 C 0.94768 0.6624 0.74486 0.0
C794 C 0.92995 0.6737 0.80715 0.0
C795 C 0.93911 0.67926 0.68263 0.0
C796 C 0.91262 0.70923 0.67842 0.0
H797 H 0.96817 0.64002 0.74404 0.0
H798 H 0.9536 0.6686 0.63725 0.0
S799 S 0.85795 0.75095 0.8242 0.0
N800 N 0.88311 0.71776 0.85714 0.0
N801 N 0.86892 0.74887 0.74338 0.0
C802 C 0.89431 0.72024 0.73952 0.0
C803 C 0.90233 0.70284 0.80233 0.0
C804 C 0.41934 0.3431 0.17549 0.0
C805 C 0.43845 0.37679 0.19253 0.0
C806 C 0.40223 0.33688 0.11253 0.0
C807 C 0.40548 0.3632 0.06366 0.0
H808 H 0.41938 0.32054 0.20925 0.0
H809 H 0.38925 0.30999 0.10008 0.0
S810 S 0.44545 0.459 0.09005 0.0
N811 N 0.45325 0.43956 0.16175 0.0
N812 N 0.42371 0.42679 1.04063 0.0
C813 C 0.42153 0.39834 0.08244 0.0
C814 C 0.43769 0.40522 0.14759 0.0
C815 C 0.43801 0.58181 1.02842 0.0
C816 C 0.40695 0.60602 1.03894 0.0
C817 C 0.45055 0.57134 0.96346 0.0
C818 C 0.4324 0.58473 0.90719 0.0
H819 H 0.45385 0.57218 0.07059 0.0
H820 H 0.47576 0.55418 0.95765 0.0
S821 S 0.34879 0.64792 0.90978 0.0
N822 N 0.35735 0.64191 0.98999 0.0
N823 N 0.38131 0.62322 0.8664 0.0
C824 C 0.40068 0.6084 0.91728 0.0
C825 C 0.38787 0.61883 0.98374 0.0
C826 C 0.13871 0.62918 0.68049 0.0
C827 C 0.11731 0.62472 0.62102 0.0
C828 C 0.1223 0.62457 0.74363 0.0
C829 C 0.08363 0.61729 0.74885 0.0
H830 H 0.16805 0.63722 0.67824 0.0
H831 H 0.13939 0.62897 0.78863 0.0
S832 S 0.0151 0.60176 0.60956 0.0
N833 N 0.05518 0.61123 0.57197 0.0
N834 N 0.02491 0.603 0.69078 0.0
C835 C 0.06219 0.61162 0.69004 0.0
C836 C 0.0788 0.6155 0.62589 0.0
C837 C 0.10777 0.32508 0.34644 0.0
C838 C 0.08083 0.35331 0.33838 0.0
C839 C 0.12614 0.32235 0.4082 0.0
C840 C 0.11786 0.34739 0.46432 0.0
H841 H 0.11413 0.30443 0.30531 0.0
H842 H 0.14585 0.29941 0.4126 0.0
S843 S 0.04688 0.42431 0.46965 0.0
N844 N 0.04579 0.40601 0.39107 0.0
N845 N 0.07899 0.39998 0.50835 0.0
C846 C 0.09048 0.37543 0.45692 0.0
C847 C 0.07236 0.37863 0.39354 0.0
loop_
_geom_bond_atom_site_label_1
_geom_bond_atom_site_label_2
_geom_bond_distance
_geom_bond_site_symmetry_2
_ccdc_geom_bond_type
Tb0 O3 2.453 . S
Tb0 O4 2.596 1_655 S
Tb0 O5 2.374 1_655 S
Tb0 O13 2.343 1_655 S
Tb0 O15 2.353 1_655 S
Tb0 O17 2.427 . S
Tb0 O18 2.513 . S
C1 O5 1.251 . S
C1 O7 1.263 . S
Tb2 O4 2.343 . S
Tb2 O7 2.353 . S
Tb2 O10 2.427 1_554 S
Tb2 O11 2.513 . S
Tb2 O12 2.453 . S
Tb2 O13 2.596 . S
Tb2 O14 2.374 . S
O3 Tb0 2.453 . S
O3 C19 1.245 1_655 S
O4 Tb0 2.596 1_455 S
O4 Tb2 2.343 . S
O4 C19 1.259 . S
O5 Tb0 2.374 1_455 S
O5 C1 1.251 . S
C6 O10 1.275 . S
C6 O11 1.246 1_556 S
O7 C1 1.263 . S
O7 Tb2 2.353 . S
C8 O12 1.245 . S
C8 O13 1.259 . S
C9 O14 1.250 . S
C9 O15 1.263 . S
O10 Tb2 2.427 1_556 S
O10 C6 1.275 . S
O11 Tb2 2.513 . S
O11 C6 1.246 1_554 S
O12 Tb2 2.453 . S
O12 C8 1.245 . S
O13 Tb0 2.343 1_455 S
O13 Tb2 2.596 . S
O13 C8 1.259 . S
O14 Tb2 2.374 . S
O14 C9 1.250 . S
O15 Tb0 2.353 1_455 S
O15 C9 1.263 . S
C16 O17 1.275 . S
C16 O18 1.246 . S
O17 Tb0 2.427 . S
O17 C16 1.275 . S
O18 Tb0 2.513 . S
O18 C16 1.246 . S
C19 O3 1.245 1_455 S
C19 O4 1.259 . S
Tb20 O23 2.453 . S
Tb20 O24 2.596 . S
Tb20 O25 2.374 . S
Tb20 O33 2.343 . S
Tb20 O35 2.353 . S
Tb20 O37 2.427 . S
Tb20 O38 2.513 . S
C21 O25 1.251 . S
C21 O27 1.263 . S
Tb22 O24 2.343 . S
Tb22 O27 2.353 . S
Tb22 O30 2.427 . S
Tb22 O31 2.513 . S
Tb22 O32 2.453 . S
Tb22 O33 2.596 . S
Tb22 O34 2.374 . S
O23 Tb20 2.453 . S
O23 C39 1.245 . S
O24 Tb20 2.596 . S
O24 Tb22 2.343 . S
O24 C39 1.259 . S
O25 Tb20 2.374 . S
O25 C21 1.251 . S
C26 O30 1.275 . S
C26 O31 1.246 . S
O27 C21 1.263 . S
O27 Tb22 2.353 . S
C28 O32 1.245 . S
C28 O33 1.259 . S
C29 O34 1.250 . S
C29 O35 1.263 . S
O30 Tb22 2.427 . S
O30 C26 1.275 . S
O31 Tb22 2.513 . S
O31 C26 1.246 . S
O32 Tb22 2.453 . S
O32 C28 1.245 . S
O33 Tb20 2.343 . S
O33 Tb22 2.596 . S
O33 C28 1.259 . S
O34 Tb22 2.374 . S
O34 C29 1.250 . S
O35 Tb20 2.353 . S
O35 C29 1.263 . S
C36 O37 1.275 . S
C36 O38 1.246 . S
O37 Tb20 2.427 . S
O37 C36 1.275 . S
O38 Tb20 2.513 . S
O38 C36 1.246 . S
C39 O23 1.245 . S
C39 O24 1.259 . S
Tb40 O43 2.453 . S
Tb40 O44 2.596 . S
Tb40 O45 2.374 . S
Tb40 O53 2.343 . S
Tb40 O55 2.353 . S
Tb40 O57 2.427 . S
Tb40 O58 2.513 . S
C41 O45 1.251 . S
C41 O47 1.263 . S
Tb42 O44 2.343 . S
Tb42 O47 2.353 . S
Tb42 O50 2.427 . S
Tb42 O51 2.513 . S
Tb42 O52 2.453 . S
Tb42 O53 2.596 . S
Tb42 O54 2.374 . S
O43 Tb40 2.453 . S
O43 C59 1.245 . S
O44 Tb40 2.596 . S
O44 Tb42 2.343 . S
O44 C59 1.259 . S
O45 Tb40 2.374 . S
O45 C41 1.251 . S
C46 O50 1.275 . S
C46 O51 1.246 . S
O47 C41 1.263 . S
O47 Tb42 2.353 . S
C48 O52 1.245 . S
C48 O53 1.259 . S
C49 O54 1.250 . S
C49 O55 1.263 . S
O50 Tb42 2.427 . S
O50 C46 1.275 . S
O51 Tb42 2.513 . S
O51 C46 1.246 . S
O52 Tb42 2.453 . S
O52 C48 1.245 . S
O53 Tb40 2.343 . S
O53 Tb42 2.596 . S
O53 C48 1.259 . S
O54 Tb42 2.374 . S
O54 C49 1.250 . S
O55 Tb40 2.353 . S
O55 C49 1.263 . S
C56 O57 1.275 . S
C56 O58 1.246 . S
O57 Tb40 2.427 . S
O57 C56 1.275 . S
O58 Tb40 2.513 . S
O58 C56 1.246 . S
C59 O43 1.245 . S
C59 O44 1.259 . S
Tb60 O63 2.453 . S
Tb60 O64 2.596 . S
Tb60 O65 2.374 . S
Tb60 O73 2.343 . S
Tb60 O75 2.353 . S
Tb60 O77 2.427 . S
Tb60 O78 2.513 . S
C61 O65 1.251 . S
C61 O67 1.263 . S
Tb62 O64 2.343 . S
Tb62 O67 2.353 . S
Tb62 O70 2.427 1_556 S
Tb62 O71 2.513 1_556 S
Tb62 O72 2.453 . S
Tb62 O73 2.596 . S
Tb62 O74 2.374 . S
O63 Tb60 2.453 . S
O63 C79 1.245 . S
O64 Tb60 2.596 . S
O64 Tb62 2.343 . S
O64 C79 1.259 . S
O65 Tb60 2.374 . S
O65 C61 1.251 . S
C66 O70 1.275 . S
C66 O71 1.246 . S
O67 C61 1.263 . S
O67 Tb62 2.353 . S
C68 O72 1.245 . S
C68 O73 1.259 . S
C69 O74 1.250 . S
C69 O75 1.263 . S
O70 Tb62 2.427 1_554 S
O70 C66 1.275 . S
O71 Tb62 2.513 1_554 S
O71 C66 1.246 . S
O72 Tb62 2.453 . S
O72 C68 1.245 . S
O73 Tb60 2.343 . S
O73 Tb62 2.596 . S
O73 C68 1.259 . S
O74 Tb62 2.374 . S
O74 C69 1.250 . S
O75 Tb60 2.353 . S
O75 C69 1.263 . S
C76 O77 1.275 . S
C76 O78 1.246 . S
O77 Tb60 2.427 . S
O77 C76 1.275 . S
O78 Tb60 2.513 . S
O78 C76 1.246 . S
C79 O63 1.245 . S
C79 O64 1.259 . S
Tb80 O83 2.453 . S
Tb80 O84 2.596 1_655 S
Tb80 O85 2.374 1_655 S
Tb80 O93 2.343 1_655 S
Tb80 O95 2.353 1_655 S
Tb80 O97 2.427 . S
Tb80 O98 2.513 . S
C81 O85 1.251 . S
C81 O87 1.263 . S
Tb82 O84 2.343 . S
Tb82 O87 2.353 . S
Tb82 O90 2.427 1_556 S
Tb82 O91 2.513 . S
Tb82 O92 2.453 . S
Tb82 O93 2.596 . S
Tb82 O94 2.374 . S
O83 Tb80 2.453 . S
O83 C99 1.245 1_655 S
O84 Tb80 2.596 1_455 S
O84 Tb82 2.343 . S
O84 C99 1.259 . S
O85 Tb80 2.374 1_455 S
O85 C81 1.251 . S
C86 O90 1.275 . S
C86 O91 1.246 1_554 S
O87 C81 1.263 . S
O87 Tb82 2.353 . S
C88 O92 1.245 . S
C88 O93 1.259 . S
C89 O94 1.250 . S
C89 O95 1.263 . S
O90 Tb82 2.427 1_554 S
O90 C86 1.275 . S
O91 Tb82 2.513 . S
O91 C86 1.246 1_556 S
O92 Tb82 2.453 . S
O92 C88 1.245 . S
O93 Tb80 2.343 1_455 S
O93 Tb82 2.596 . S
O93 C88 1.259 . S
O94 Tb82 2.374 . S
O94 C89 1.250 . S
O95 Tb80 2.353 1_455 S
O95 C89 1.263 . S
C96 O97 1.275 . S
C96 O98 1.246 . S
O97 Tb80 2.427 . S
O97 C96 1.275 . S
O98 Tb80 2.513 . S
O98 C96 1.246 . S
C99 O83 1.245 1_455 S
C99 O84 1.259 . S
Tb100 O103 2.453 . S
Tb100 O104 2.596 . S
Tb100 O105 2.374 . S
Tb100 O113 2.343 . S
Tb100 O115 2.353 . S
Tb100 O117 2.427 . S
Tb100 O118 2.513 . S
C101 O105 1.251 . S
C101 O107 1.263 . S
Tb102 O104 2.343 . S
Tb102 O107 2.353 . S
Tb102 O110 2.427 1_554 S
Tb102 O111 2.513 1_554 S
Tb102 O112 2.453 . S
Tb102 O113 2.596 . S
Tb102 O114 2.374 . S
O103 Tb100 2.453 . S
O103 C119 1.245 . S
O104 Tb100 2.596 . S
O104 Tb102 2.343 . S
O104 C119 1.259 . S
O105 Tb100 2.374 . S
O105 C101 1.251 . S
C106 O110 1.275 . S
C106 O111 1.246 . S
O107 C101 1.263 . S
O107 Tb102 2.353 . S
C108 O112 1.245 . S
C108 O113 1.259 . S
C109 O114 1.250 . S
C109 O115 1.263 . S
O110 Tb102 2.427 1_556 S
O110 C106 1.275 . S
O111 Tb102 2.513 1_556 S
O111 C106 1.246 . S
O112 Tb102 2.453 . S
O112 C108 1.245 . S
O113 Tb100 2.343 . S
O113 Tb102 2.596 . S
O113 C108 1.259 . S
O114 Tb102 2.374 . S
O114 C109 1.250 . S
O115 Tb100 2.353 . S
O115 C109 1.263 . S
C116 O117 1.275 . S
C116 O118 1.246 . S
O117 Tb100 2.427 . S
O117 C116 1.275 . S
O118 Tb100 2.513 . S
O118 C116 1.246 . S
C119 O103 1.245 . S
C119 O104 1.259 . S
Tb120 O123 2.453 . S
Tb120 O124 2.596 . S
Tb120 O125 2.374 . S
Tb120 O133 2.343 . S
Tb120 O135 2.353 . S
Tb120 O137 2.427 . S
Tb120 O138 2.513 . S
C121 O125 1.251 . S
C121 O127 1.263 . S
Tb122 O124 2.343 . S
Tb122 O127 2.353 . S
Tb122 O130 2.427 . S
Tb122 O131 2.513 . S
Tb122 O132 2.453 . S
Tb122 O133 2.596 . S
Tb122 O134 2.374 . S
O123 Tb120 2.453 . S
O123 C139 1.245 . S
O124 Tb120 2.596 . S
O124 Tb122 2.343 . S
O124 C139 1.259 . S
O125 Tb120 2.374 . S
O125 C121 1.251 . S
C126 O130 1.275 . S
C126 O131 1.246 . S
O127 C121 1.263 . S
O127 Tb122 2.353 . S
C128 O132 1.245 . S
C128 O133 1.259 . S
C129 O134 1.250 . S
C129 O135 1.263 . S
O130 Tb122 2.427 . S
O130 C126 1.275 . S
O131 Tb122 2.513 . S
O131 C126 1.246 . S
O132 Tb122 2.453 . S
O132 C128 1.245 . S
O133 Tb120 2.343 . S
O133 Tb122 2.596 . S
O133 C128 1.259 . S
O134 Tb122 2.374 . S
O134 C129 1.250 . S
O135 Tb120 2.353 . S
O135 C129 1.263 . S
C136 O137 1.275 . S
C136 O138 1.246 . S
O137 Tb120 2.427 . S
O137 C136 1.275 . S
O138 Tb120 2.513 . S
O138 C136 1.246 . S
C139 O123 1.245 . S
C139 O124 1.259 . S
Tb140 O143 2.453 . S
Tb140 O144 2.596 . S
Tb140 O145 2.374 . S
Tb140 O153 2.343 . S
Tb140 O155 2.353 . S
Tb140 O157 2.427 . S
Tb140 O158 2.513 . S
C141 O145 1.251 . S
C141 O147 1.263 . S
Tb142 O144 2.343 . S
Tb142 O147 2.353 . S
Tb142 O150 2.427 . S
Tb142 O151 2.513 . S
Tb142 O152 2.453 . S
Tb142 O153 2.596 . S
Tb142 O154 2.374 . S
O143 Tb140 2.453 . S
O143 C159 1.245 . S
O144 Tb140 2.596 . S
O144 Tb142 2.343 . S
O144 C159 1.259 . S
O145 Tb140 2.374 . S
O145 C141 1.251 . S
C146 O150 1.275 . S
C146 O151 1.246 . S
O147 C141 1.263 . S
O147 Tb142 2.353 . S
C148 O152 1.245 . S
C148 O153 1.259 . S
C149 O154 1.250 . S
C149 O155 1.263 . S
O150 Tb142 2.427 . S
O150 C146 1.275 . S
O151 Tb142 2.513 . S
O151 C146 1.246 . S
O152 Tb142 2.453 . S
O152 C148 1.245 . S
O153 Tb140 2.343 . S
O153 Tb142 2.596 . S
O153 C148 1.259 . S
O154 Tb142 2.374 . S
O154 C149 1.250 . S
O155 Tb140 2.353 . S
O155 C149 1.263 . S
C156 O157 1.275 . S
C156 O158 1.246 . S
O157 Tb140 2.427 . S
O157 C156 1.275 . S
O158 Tb140 2.513 . S
O158 C156 1.246 . S
C159 O143 1.245 . S
C159 O144 1.259 . S
Tb160 O163 2.453 . S
Tb160 O164 2.596 . S
Tb160 O165 2.374 . S
Tb160 O173 2.343 . S
Tb160 O175 2.353 . S
Tb160 O177 2.427 . S
Tb160 O178 2.513 . S
C161 O165 1.251 . S
C161 O167 1.263 . S
Tb162 O164 2.343 . S
Tb162 O167 2.353 . S
Tb162 O170 2.427 . S
Tb162 O171 2.513 . S
Tb162 O172 2.453 . S
Tb162 O173 2.596 . S
Tb162 O174 2.374 . S
O163 Tb160 2.453 . S
O163 C179 1.245 . S
O164 Tb160 2.596 . S
O164 Tb162 2.343 . S
O164 C179 1.259 . S
O165 Tb160 2.374 . S
O165 C161 1.251 . S
C166 O170 1.275 . S
C166 O171 1.246 . S
O167 C161 1.263 . S
O167 Tb162 2.353 . S
C168 O172 1.245 . S
C168 O173 1.259 . S
C169 O174 1.250 . S
C169 O175 1.263 . S
O170 Tb162 2.427 . S
O170 C166 1.275 . S
O171 Tb162 2.513 . S
O171 C166 1.246 . S
O172 Tb162 2.453 . S
O172 C168 1.245 . S
O173 Tb160 2.343 . S
O173 Tb162 2.596 . S
O173 C168 1.259 . S
O174 Tb162 2.374 . S
O174 C169 1.250 . S
O175 Tb160 2.353 . S
O175 C169 1.263 . S
C176 O177 1.275 . S
C176 O178 1.246 . S
O177 Tb160 2.427 . S
O177 C176 1.275 . S
O178 Tb160 2.513 . S
O178 C176 1.246 . S
C179 O163 1.245 . S
C179 O164 1.259 . S
Tb180 O183 2.453 . S
Tb180 O184 2.596 . S
Tb180 O185 2.374 . S
Tb180 O193 2.343 . S
Tb180 O195 2.353 . S
Tb180 O197 2.427 1_554 S
Tb180 O198 2.513 . S
C181 O185 1.251 . S
C181 O187 1.263 . S
Tb182 O184 2.343 . S
Tb182 O187 2.353 . S
Tb182 O190 2.427 . S
Tb182 O191 2.513 . S
Tb182 O192 2.453 . S
Tb182 O193 2.596 . S
Tb182 O194 2.374 . S
O183 Tb180 2.453 . S
O183 C199 1.245 . S
O184 Tb180 2.596 . S
O184 Tb182 2.343 . S
O184 C199 1.259 . S
O185 Tb180 2.374 . S
O185 C181 1.251 . S
C186 O190 1.275 . S
C186 O191 1.246 . S
O187 C181 1.263 . S
O187 Tb182 2.353 . S
C188 O192 1.245 . S
C188 O193 1.259 . S
C189 O194 1.250 . S
C189 O195 1.263 . S
O190 Tb182 2.427 . S
O190 C186 1.275 . S
O191 Tb182 2.513 . S
O191 C186 1.246 . S
O192 Tb182 2.453 . S
O192 C188 1.245 . S
O193 Tb180 2.343 . S
O193 Tb182 2.596 . S
O193 C188 1.259 . S
O194 Tb182 2.374 . S
O194 C189 1.250 . S
O195 Tb180 2.353 . S
O195 C189 1.263 . S
C196 O197 1.275 . S
C196 O198 1.246 1_556 S
O197 Tb180 2.427 1_556 S
O197 C196 1.275 . S
O198 Tb180 2.513 . S
O198 C196 1.246 1_554 S
C199 O183 1.245 . S
C199 O184 1.259 . S
Tb200 O203 2.453 . S
Tb200 O204 2.596 . S
Tb200 O205 2.374 . S
Tb200 O213 2.343 . S
Tb200 O215 2.353 . S
Tb200 O217 2.427 1_556 S
Tb200 O218 2.513 . S
C201 O205 1.251 . S
C201 O207 1.263 . S
Tb202 O204 2.343 . S
Tb202 O207 2.353 . S
Tb202 O210 2.427 . S
Tb202 O211 2.513 . S
Tb202 O212 2.453 . S
Tb202 O213 2.596 . S
Tb202 O214 2.374 . S
O203 Tb200 2.453 . S
O203 C219 1.245 . S
O204 Tb200 2.596 . S
O204 Tb202 2.343 . S
O204 C219 1.259 . S
O205 Tb200 2.374 . S
O205 C201 1.251 . S
C206 O210 1.275 . S
C206 O211 1.246 . S
O207 C201 1.263 . S
O207 Tb202 2.353 . S
C208 O212 1.245 . S
C208 O213 1.259 . S
C209 O214 1.250 . S
C209 O215 1.263 . S
O210 Tb202 2.427 . S
O210 C206 1.275 . S
O211 Tb202 2.513 . S
O211 C206 1.246 . S
O212 Tb202 2.453 . S
O212 C208 1.245 . S
O213 Tb200 2.343 . S
O213 Tb202 2.596 . S
O213 C208 1.259 . S
O214 Tb202 2.374 . S
O214 C209 1.250 . S
O215 Tb200 2.353 . S
O215 C209 1.263 . S
C216 O217 1.275 . S
C216 O218 1.246 1_554 S
O217 Tb200 2.427 1_554 S
O217 C216 1.275 . S
O218 Tb200 2.513 . S
O218 C216 1.246 1_556 S
C219 O203 1.245 . S
C219 O204 1.259 . S
Tb220 O223 2.453 . S
Tb220 O224 2.596 . S
Tb220 O225 2.374 . S
Tb220 O233 2.343 . S
Tb220 O235 2.353 . S
Tb220 O237 2.427 . S
Tb220 O238 2.513 . S
C221 O225 1.251 . S
C221 O227 1.263 . S
Tb222 O224 2.343 . S
Tb222 O227 2.353 . S
Tb222 O230 2.427 . S
Tb222 O231 2.513 . S
Tb222 O232 2.453 . S
Tb222 O233 2.596 . S
Tb222 O234 2.374 . S
O223 Tb220 2.453 . S
O223 C239 1.245 . S
O224 Tb220 2.596 . S
O224 Tb222 2.343 . S
O224 C239 1.259 . S
O225 Tb220 2.374 . S
O225 C221 1.251 . S
C226 O230 1.275 . S
C226 O231 1.246 . S
O227 C221 1.263 . S
O227 Tb222 2.353 . S
C228 O232 1.245 . S
C228 O233 1.259 . S
C229 O234 1.250 . S
C229 O235 1.263 . S
O230 Tb222 2.427 . S
O230 C226 1.275 . S
O231 Tb222 2.513 . S
O231 C226 1.246 . S
O232 Tb222 2.453 . S
O232 C228 1.245 . S
O233 Tb220 2.343 . S
O233 Tb222 2.596 . S
O233 C228 1.259 . S
O234 Tb222 2.374 . S
O234 C229 1.250 . S
O235 Tb220 2.353 . S
O235 C229 1.263 . S
C236 O237 1.275 . S
C236 O238 1.246 . S
O237 Tb220 2.427 . S
O237 C236 1.275 . S
O238 Tb220 2.513 . S
O238 C236 1.246 . S
C239 O223 1.245 . S
C239 O224 1.259 . S
Tb240 O243 2.453 . S
Tb240 O244 2.596 . S
Tb240 O245 2.374 . S
Tb240 O253 2.343 . S
Tb240 O255 2.353 . S
Tb240 O257 2.427 . S
Tb240 O258 2.513 . S
C241 O245 1.251 . S
C241 O247 1.263 . S
Tb242 O244 2.343 . S
Tb242 O247 2.353 . S
Tb242 O250 2.427 . S
Tb242 O251 2.513 . S
Tb242 O252 2.453 . S
Tb242 O253 2.596 . S
Tb242 O254 2.374 . S
O243 Tb240 2.453 . S
O243 C259 1.245 . S
O244 Tb240 2.596 . S
O244 Tb242 2.343 . S
O244 C259 1.259 . S
O245 Tb240 2.374 . S
O245 C241 1.251 . S
C246 O250 1.275 . S
C246 O251 1.246 . S
O247 C241 1.263 . S
O247 Tb242 2.353 . S
C248 O252 1.245 . S
C248 O253 1.259 . S
C249 O254 1.250 . S
C249 O255 1.263 . S
O250 Tb242 2.427 . S
O250 C246 1.275 . S
O251 Tb242 2.513 . S
O251 C246 1.246 . S
O252 Tb242 2.453 . S
O252 C248 1.245 . S
O253 Tb240 2.343 . S
O253 Tb242 2.596 . S
O253 C248 1.259 . S
O254 Tb242 2.374 . S
O254 C249 1.250 . S
O255 Tb240 2.353 . S
O255 C249 1.263 . S
C256 O257 1.275 . S
C256 O258 1.246 . S
O257 Tb240 2.427 . S
O257 C256 1.275 . S
O258 Tb240 2.513 . S
O258 C256 1.246 . S
C259 O243 1.245 . S
C259 O244 1.259 . S
Tb260 O263 2.453 . S
Tb260 O264 2.596 . S
Tb260 O265 2.374 . S
Tb260 O273 2.343 1_455 S
Tb260 O275 2.353 . S
Tb260 O277 2.427 . S
Tb260 O278 2.513 . S
C261 O265 1.251 1_655 S
C261 O267 1.263 . S
Tb262 O264 2.343 1_655 S
Tb262 O267 2.353 . S
Tb262 O270 2.427 1_554 S
Tb262 O271 2.513 1_554 S
Tb262 O272 2.453 . S
Tb262 O273 2.596 . S
Tb262 O274 2.374 . S
O263 Tb260 2.453 . S
O263 C279 1.245 . S
O264 Tb260 2.596 . S
O264 Tb262 2.343 1_455 S
O264 C279 1.259 . S
O265 Tb260 2.374 . S
O265 C261 1.251 1_455 S
C266 O270 1.275 . S
C266 O271 1.246 . S
O267 C261 1.263 . S
O267 Tb262 2.353 . S
C268 O272 1.245 . S
C268 O273 1.259 . S
C269 O274 1.250 1_455 S
C269 O275 1.263 . S
O270 Tb262 2.427 1_556 S
O270 C266 1.275 . S
O271 Tb262 2.513 1_556 S
O271 C266 1.246 . S
O272 Tb262 2.453 . S
O272 C268 1.245 . S
O273 Tb260 2.343 1_655 S
O273 Tb262 2.596 . S
O273 C268 1.259 . S
O274 Tb262 2.374 . S
O274 C269 1.250 1_655 S
O275 Tb260 2.353 . S
O275 C269 1.263 . S
C276 O277 1.275 . S
C276 O278 1.246 . S
O277 Tb260 2.427 . S
O277 C276 1.275 . S
O278 Tb260 2.513 . S
O278 C276 1.246 . S
C279 O263 1.245 . S
C279 O264 1.259 . S
Tb280 O283 2.453 . S
Tb280 O284 2.596 . S
Tb280 O285 2.374 . S
Tb280 O293 2.343 . S
Tb280 O295 2.353 . S
Tb280 O297 2.427 . S
Tb280 O298 2.513 . S
C281 O285 1.251 . S
C281 O287 1.263 . S
Tb282 O284 2.343 . S
Tb282 O287 2.353 . S
Tb282 O290 2.427 . S
Tb282 O291 2.513 . S
Tb282 O292 2.453 . S
Tb282 O293 2.596 . S
Tb282 O294 2.374 . S
O283 Tb280 2.453 . S
O283 C299 1.245 . S
O284 Tb280 2.596 . S
O284 Tb282 2.343 . S
O284 C299 1.259 . S
O285 Tb280 2.374 . S
O285 C281 1.251 . S
C286 O290 1.275 . S
C286 O291 1.246 . S
O287 C281 1.263 . S
O287 Tb282 2.353 . S
C288 O292 1.245 . S
C288 O293 1.259 . S
C289 O294 1.250 . S
C289 O295 1.263 . S
O290 Tb282 2.427 . S
O290 C286 1.275 . S
O291 Tb282 2.513 . S
O291 C286 1.246 . S
O292 Tb282 2.453 . S
O292 C288 1.245 . S
O293 Tb280 2.343 . S
O293 Tb282 2.596 . S
O293 C288 1.259 . S
O294 Tb282 2.374 . S
O294 C289 1.250 . S
O295 Tb280 2.353 . S
O295 C289 1.263 . S
C296 O297 1.275 . S
C296 O298 1.246 . S
O297 Tb280 2.427 . S
O297 C296 1.275 . S
O298 Tb280 2.513 . S
O298 C296 1.246 . S
C299 O283 1.245 . S
C299 O284 1.259 . S
Tb300 O303 2.453 . S
Tb300 O304 2.596 . S
Tb300 O305 2.374 . S
Tb300 O313 2.343 1_455 S
Tb300 O315 2.353 . S
Tb300 O317 2.427 . S
Tb300 O318 2.513 . S
C301 O305 1.251 1_655 S
C301 O307 1.263 . S
Tb302 O304 2.343 1_655 S
Tb302 O307 2.353 . S
Tb302 O310 2.427 1_556 S
Tb302 O311 2.513 1_556 S
Tb302 O312 2.453 . S
Tb302 O313 2.596 . S
Tb302 O314 2.374 . S
O303 Tb300 2.453 . S
O303 C319 1.245 . S
O304 Tb300 2.596 . S
O304 Tb302 2.343 1_455 S
O304 C319 1.259 . S
O305 Tb300 2.374 . S
O305 C301 1.251 1_455 S
C306 O310 1.275 . S
C306 O311 1.246 . S
O307 C301 1.263 . S
O307 Tb302 2.353 . S
C308 O312 1.245 . S
C308 O313 1.259 . S
C309 O314 1.250 1_455 S
C309 O315 1.263 . S
O310 Tb302 2.427 1_554 S
O310 C306 1.275 . S
O311 Tb302 2.513 1_554 S
O311 C306 1.246 . S
O312 Tb302 2.453 . S
O312 C308 1.245 . S
O313 Tb300 2.343 1_655 S
O313 Tb302 2.596 . S
O313 C308 1.259 . S
O314 Tb302 2.374 . S
O314 C309 1.250 1_655 S
O315 Tb300 2.353 . S
O315 C309 1.263 . S
C316 O317 1.275 . S
C316 O318 1.246 . S
O317 Tb300 2.427 . S
O317 C316 1.275 . S
O318 Tb300 2.513 . S
O318 C316 1.246 . S
C319 O303 1.245 . S
C319 O304 1.259 . S
C320 C321 1.369 . S
C320 C322 1.419 . S
C320 H324 0.930 . S
C321 C320 1.369 . S
C321 C330 1.429 . S
C322 C320 1.419 . S
C322 C323 1.363 . S
C322 H325 0.929 . S
C323 C322 1.363 . S
C323 C329 1.428 . S
H324 C320 0.930 . S
H325 C322 0.929 . S
S326 N327 1.613 . S
S326 N328 1.610 . S
N327 S326 1.613 . S
N327 C330 1.350 . S
N328 S326 1.610 . S
N328 C329 1.351 . S
C329 C323 1.428 . S
C329 N328 1.351 . S
C329 C330 1.434 . S
C330 C321 1.429 . S
C330 N327 1.350 . S
C330 C329 1.434 . S
C331 C332 1.369 . S
C331 C333 1.419 . S
C331 H335 0.930 . S
C332 C331 1.369 . S
C332 C341 1.429 . S
C333 C331 1.419 . S
C333 C334 1.363 . S
C333 H336 0.929 . S
C334 C333 1.363 . S
C334 C340 1.428 . S
H335 C331 0.930 . S
H336 C333 0.929 . S
S337 N338 1.613 . S
S337 N339 1.610 . S
N338 S337 1.613 . S
N338 C341 1.350 . S
N339 S337 1.610 . S
N339 C340 1.351 . S
C340 C334 1.428 . S
C340 N339 1.351 . S
C340 C341 1.434 . S
C341 C332 1.429 . S
C341 N338 1.350 . S
C341 C340 1.434 . S
C342 C343 1.369 . S
C342 C344 1.419 . S
C342 H346 0.930 . S
C343 C342 1.369 . S
C343 C352 1.429 . S
C344 C342 1.419 . S
C344 C345 1.363 . S
C344 H347 0.929 . S
C345 C344 1.363 . S
C345 C351 1.428 . S
H346 C342 0.930 . S
H347 C344 0.929 . S
S348 N349 1.613 . S
S348 N350 1.610 . S
N349 S348 1.613 . S
N349 C352 1.350 . S
N350 S348 1.610 . S
N350 C351 1.351 . S
C351 C345 1.428 . S
C351 N350 1.351 . S
C351 C352 1.434 . S
C352 C343 1.429 . S
C352 N349 1.350 . S
C352 C351 1.434 . S
C353 C354 1.369 . S
C353 C355 1.419 . S
C353 H357 0.930 . S
C354 C353 1.369 . S
C354 C363 1.429 . S
C355 C353 1.419 . S
C355 C356 1.363 . S
C355 H358 0.929 . S
C356 C355 1.363 . S
C356 C362 1.428 . S
H357 C353 0.930 . S
H358 C355 0.929 . S
S359 N360 1.613 . S
S359 N361 1.610 . S
N360 S359 1.613 . S
N360 C363 1.350 . S
N361 S359 1.610 . S
N361 C362 1.351 . S
C362 C356 1.428 . S
C362 N361 1.351 . S
C362 C363 1.434 . S
C363 C354 1.429 . S
C363 N360 1.350 . S
C363 C362 1.434 . S
C364 C365 1.369 . S
C364 C366 1.419 1_655 S
C364 H368 0.930 . S
C365 C364 1.369 . S
C365 C374 1.429 . S
C366 C364 1.419 1_455 S
C366 C367 1.363 1_455 S
C366 H369 0.929 . S
C367 C366 1.363 1_655 S
C367 C373 1.428 . S
H368 C364 0.930 . S
H369 C366 0.929 . S
S370 N371 1.613 1_556 S
S370 N372 1.610 . S
N371 S370 1.613 1_554 S
N371 C374 1.350 . S
N372 S370 1.610 . S
N372 C373 1.351 1_556 S
C373 C367 1.428 . S
C373 N372 1.351 1_554 S
C373 C374 1.434 . S
C374 C365 1.429 . S
C374 N371 1.350 . S
C374 C373 1.434 . S
C375 C376 1.369 . S
C375 C377 1.419 . S
C375 H379 0.930 . S
C376 C375 1.369 . S
C376 C385 1.429 . S
C377 C375 1.419 . S
C377 C378 1.363 . S
C377 H380 0.929 1_556 S
C378 C377 1.363 . S
C378 C384 1.428 . S
H379 C375 0.930 . S
H380 C377 0.929 1_554 S
S381 N382 1.613 1_455 S
S381 N383 1.610 . S
N382 S381 1.613 1_655 S
N382 C385 1.350 . S
N383 S381 1.610 . S
N383 C384 1.351 1_455 S
C384 C378 1.428 . S
C384 N383 1.351 1_655 S
C384 C385 1.434 . S
C385 C376 1.429 . S
C385 N382 1.350 . S
C385 C384 1.434 . S
C386 C387 1.369 . S
C386 C388 1.419 . S
C386 H390 0.930 . S
C387 C386 1.369 . S
C387 C396 1.429 . S
C388 C386 1.419 . S
C388 C389 1.363 . S
C388 H391 0.929 . S
C389 C388 1.363 . S
C389 C395 1.428 . S
H390 C386 0.930 . S
H391 C388 0.929 . S
S392 N393 1.613 . S
S392 N394 1.610 . S
N393 S392 1.613 . S
N393 C396 1.350 . S
N394 S392 1.610 . S
N394 C395 1.351 . S
C395 C389 1.428 . S
C395 N394 1.351 . S
C395 C396 1.434 . S
C396 C387 1.429 . S
C396 N393 1.350 . S
C396 C395 1.434 . S
C397 C398 1.369 . S
C397 C399 1.419 . S
C397 H401 0.930 . S
C398 C397 1.369 . S
C398 C407 1.429 . S
C399 C397 1.419 . S
C399 C400 1.363 . S
C399 H402 0.929 . S
C400 C399 1.363 . S
C400 C406 1.428 . S
H401 C397 0.930 . S
H402 C399 0.929 . S
S403 N404 1.613 . S
S403 N405 1.610 . S
N404 S403 1.613 . S
N404 C407 1.350 . S
N405 S403 1.610 . S
N405 C406 1.351 . S
C406 C400 1.428 . S
C406 N405 1.351 . S
C406 C407 1.434 . S
C407 C398 1.429 . S
C407 N404 1.350 . S
C407 C406 1.434 . S
C408 C409 1.369 . S
C408 C410 1.419 . S
C408 H412 0.930 . S
C409 C408 1.369 . S
C409 C418 1.429 . S
C410 C408 1.419 . S
C410 C411 1.363 . S
C410 H413 0.929 . S
C411 C410 1.363 . S
C411 C417 1.428 . S
H412 C408 0.930 . S
H413 C410 0.929 . S
S414 N415 1.613 . S
S414 N416 1.610 . S
N415 S414 1.613 . S
N415 C418 1.350 . S
N416 S414 1.610 . S
N416 C417 1.351 . S
C417 C411 1.428 . S
C417 N416 1.351 . S
C417 C418 1.434 . S
C418 C409 1.429 . S
C418 N415 1.350 . S
C418 C417 1.434 . S
C419 C420 1.369 . S
C419 C421 1.419 . S
C419 H423 0.930 . S
C420 C419 1.369 . S
C420 C429 1.429 . S
C421 C419 1.419 . S
C421 C422 1.363 . S
C421 H424 0.929 . S
C422 C421 1.363 . S
C422 C428 1.428 . S
H423 C419 0.930 . S
H424 C421 0.929 . S
S425 N426 1.613 . S
S425 N427 1.610 . S
N426 S425 1.613 . S
N426 C429 1.350 . S
N427 S425 1.610 . S
N427 C428 1.351 . S
C428 C422 1.428 . S
C428 N427 1.351 . S
C428 C429 1.434 . S
C429 C420 1.429 . S
C429 N426 1.350 . S
C429 C428 1.434 . S
C430 C431 1.369 . S
C430 C432 1.419 . S
C430 H434 0.930 . S
C431 C430 1.369 . S
C431 C440 1.429 . S
C432 C430 1.419 . S
C432 C433 1.363 . S
C432 H435 0.929 . S
C433 C432 1.363 . S
C433 C439 1.428 . S
H434 C430 0.930 . S
H435 C432 0.929 . S
S436 N437 1.613 . S
S436 N438 1.610 . S
N437 S436 1.613 . S
N437 C440 1.350 . S
N438 S436 1.610 . S
N438 C439 1.351 . S
C439 C433 1.428 . S
C439 N438 1.351 . S
C439 C440 1.434 . S
C440 C431 1.429 . S
C440 N437 1.350 . S
C440 C439 1.434 . S
C441 C442 1.369 . S
C441 C443 1.419 . S
C441 H445 0.930 . S
C442 C441 1.369 . S
C442 C451 1.429 . S
C443 C441 1.419 . S
C443 C444 1.363 . S
C443 H446 0.929 . S
C444 C443 1.363 . S
C444 C450 1.428 . S
H445 C441 0.930 . S
H446 C443 0.929 . S
S447 N448 1.613 . S
S447 N449 1.610 . S
N448 S447 1.613 . S
N448 C451 1.350 . S
N449 S447 1.610 . S
N449 C450 1.351 . S
C450 C444 1.428 . S
C450 N449 1.351 . S
C450 C451 1.434 . S
C451 C442 1.429 . S
C451 N448 1.350 . S
C451 C450 1.434 . S
C452 C453 1.369 . S
C452 C454 1.419 . S
C452 H456 0.930 . S
C453 C452 1.369 . S
C453 C462 1.429 . S
C454 C452 1.419 . S
C454 C455 1.363 . S
C454 H457 0.929 . S
C455 C454 1.363 . S
C455 C461 1.428 . S
H456 C452 0.930 . S
H457 C454 0.929 . S
S458 N459 1.613 . S
S458 N460 1.610 . S
N459 S458 1.613 . S
N459 C462 1.350 . S
N460 S458 1.610 . S
N460 C461 1.351 . S
C461 C455 1.428 . S
C461 N460 1.351 . S
C461 C462 1.434 . S
C462 C453 1.429 . S
C462 N459 1.350 . S
C462 C461 1.434 . S
C463 C464 1.369 . S
C463 C465 1.419 . S
C463 H467 0.930 . S
C464 C463 1.369 . S
C464 C473 1.429 . S
C465 C463 1.419 . S
C465 C466 1.363 . S
C465 H468 0.929 . S
C466 C465 1.363 . S
C466 C472 1.428 . S
H467 C463 0.930 . S
H468 C465 0.929 . S
S469 N470 1.613 . S
S469 N471 1.610 . S
N470 S469 1.613 . S
N470 C473 1.350 . S
N471 S469 1.610 . S
N471 C472 1.351 . S
C472 C466 1.428 . S
C472 N471 1.351 . S
C472 C473 1.434 . S
C473 C464 1.429 . S
C473 N470 1.350 . S
C473 C472 1.434 . S
C474 C475 1.369 . S
C474 C476 1.419 . S
C474 H478 0.930 . S
C475 C474 1.369 . S
C475 C484 1.429 . S
C476 C474 1.419 . S
C476 C477 1.363 . S
C476 H479 0.929 . S
C477 C476 1.363 . S
C477 C483 1.428 . S
H478 C474 0.930 . S
H479 C476 0.929 . S
S480 N481 1.613 . S
S480 N482 1.610 . S
N481 S480 1.613 . S
N481 C484 1.350 . S
N482 S480 1.610 . S
N482 C483 1.351 . S
C483 C477 1.428 . S
C483 N482 1.351 . S
C483 C484 1.434 . S
C484 C475 1.429 . S
C484 N481 1.350 . S
C484 C483 1.434 . S
C485 C486 1.369 . S
C485 C487 1.419 . S
C485 H489 0.930 . S
C486 C485 1.369 . S
C486 C495 1.429 . S
C487 C485 1.419 . S
C487 C488 1.363 . S
C487 H490 0.929 . S
C488 C487 1.363 . S
C488 C494 1.428 . S
H489 C485 0.930 . S
H490 C487 0.929 . S
S491 N492 1.613 . S
S491 N493 1.610 . S
N492 S491 1.613 . S
N492 C495 1.350 . S
N493 S491 1.610 . S
N493 C494 1.351 . S
C494 C488 1.428 . S
C494 N493 1.351 . S
C494 C495 1.434 . S
C495 C486 1.429 . S
C495 N492 1.350 . S
C495 C494 1.434 . S
C496 C497 1.371 . S
C496 C498 1.431 . S
C496 H500 0.915 1_455 S
C497 C496 1.371 . S
C497 C506 1.429 . S
C498 C496 1.431 . S
C498 C499 1.363 . S
C498 H501 0.929 . S
C499 C498 1.363 . S
C499 C505 1.428 . S
H500 C496 0.915 1_655 S
H501 C498 0.929 . S
S502 N503 1.613 . S
S502 N504 1.610 . S
N503 S502 1.613 . S
N503 C506 1.350 . S
N504 S502 1.610 . S
N504 C505 1.351 . S
C505 C499 1.428 . S
C505 N504 1.351 . S
C505 C506 1.434 . S
C506 C497 1.429 . S
C506 N503 1.350 . S
C506 C505 1.434 . S
C507 C508 1.369 1_455 S
C507 C509 1.419 . S
C507 H511 0.930 . S
C508 C507 1.369 1_655 S
C508 C517 1.429 1_655 S
C509 C507 1.419 . S
C509 C510 1.363 . S
C509 H512 0.929 . S
C510 C509 1.363 . S
C510 C516 1.428 . S
H511 C507 0.930 . S
H512 C509 0.929 . S
S513 N514 1.613 1_455 S
S513 N515 1.610 . S
N514 S513 1.613 1_655 S
N514 C517 1.350 1_655 S
N515 S513 1.610 . S
N515 C516 1.351 . S
C516 C510 1.428 . S
C516 N515 1.351 . S
C516 C517 1.434 . S
C517 C508 1.429 1_455 S
C517 N514 1.350 1_455 S
C517 C516 1.434 . S
C518 C519 1.369 . S
C518 C520 1.419 . S
C518 H522 0.930 . S
C519 C518 1.369 . S
C519 C528 1.429 . S
C520 C518 1.419 . S
C520 C521 1.363 . S
C520 H523 0.929 . S
C521 C520 1.363 . S
C521 C527 1.428 . S
H522 C518 0.930 . S
H523 C520 0.929 . S
S524 N525 1.613 . S
S524 N526 1.610 . S
N525 S524 1.613 . S
N525 C528 1.350 . S
N526 S524 1.610 . S
N526 C527 1.351 . S
C527 C521 1.428 . S
C527 N526 1.351 . S
C527 C528 1.434 . S
C528 C519 1.429 . S
C528 N525 1.350 . S
C528 C527 1.434 . S
C529 C530 1.369 . S
C529 C531 1.419 . S
C529 H533 0.930 . S
C530 C529 1.369 . S
C530 C539 1.429 . S
C531 C529 1.419 . S
C531 C532 1.363 . S
C531 H534 0.929 . S
C532 C531 1.363 . S
C532 C538 1.428 . S
H533 C529 0.930 . S
H534 C531 0.929 . S
S535 N536 1.613 1_554 S
S535 N537 1.613 . S
N536 S535 1.613 1_556 S
N536 C539 1.350 . S
N537 S535 1.613 . S
N537 C538 1.347 1_554 S
C538 C532 1.428 . S
C538 N537 1.347 1_556 S
C538 C539 1.434 . S
C539 C530 1.429 . S
C539 N536 1.350 . S
C539 C538 1.434 . S
C540 C541 1.369 . S
C540 C542 1.419 1_455 S
C540 H544 0.930 1_455 S
C541 C540 1.369 . S
C541 C550 1.429 . S
C542 C540 1.419 1_655 S
C542 C543 1.363 1_655 S
C542 H545 0.929 . S
C543 C542 1.363 1_455 S
C543 C549 1.428 . S
H544 C540 0.930 1_655 S
H545 C542 0.929 . S
S546 N547 1.613 . S
S546 N548 1.610 . S
N547 S546 1.613 . S
N547 C550 1.350 . S
N548 S546 1.610 . S
N548 C549 1.351 . S
C549 C543 1.428 . S
C549 N548 1.351 . S
C549 C550 1.434 . S
C550 C541 1.429 . S
C550 N547 1.350 . S
C550 C549 1.434 . S
C551 C552 1.369 . S
C551 C553 1.419 . S
C551 H555 0.930 . S
C552 C551 1.369 . S
C552 C561 1.429 . S
C553 C551 1.419 . S
C553 C554 1.363 . S
C553 H556 0.929 . S
C554 C553 1.363 . S
C554 C560 1.428 . S
H555 C551 0.930 . S
H556 C553 0.929 . S
S557 N558 1.613 . S
S557 N559 1.610 . S
N558 S557 1.613 . S
N558 C561 1.350 . S
N559 S557 1.610 . S
N559 C560 1.351 . S
C560 C554 1.428 . S
C560 N559 1.351 . S
C560 C561 1.434 . S
C561 C552 1.429 . S
C561 N558 1.350 . S
C561 C560 1.434 . S
C562 C563 1.369 . S
C562 C564 1.419 . S
C562 H566 0.930 . S
C563 C562 1.369 . S
C563 C572 1.429 . S
C564 C562 1.419 . S
C564 C565 1.363 . S
C564 H567 0.929 . S
C565 C564 1.363 . S
C565 C571 1.428 . S
H566 C562 0.930 . S
H567 C564 0.929 . S
S568 N569 1.613 . S
S568 N570 1.610 . S
N569 S568 1.613 . S
N569 C572 1.350 . S
N570 S568 1.610 . S
N570 C571 1.351 . S
C571 C565 1.428 . S
C571 N570 1.351 . S
C571 C572 1.434 . S
C572 C563 1.429 . S
C572 N569 1.350 . S
C572 C571 1.434 . S
C573 C574 1.369 . S
C573 C575 1.419 1_455 S
C573 H577 0.930 . S
C574 C573 1.369 . S
C574 C583 1.429 . S
C575 C573 1.419 1_655 S
C575 C576 1.363 . S
C575 H578 0.929 . S
C576 C575 1.363 . S
C576 C582 1.428 1_655 S
H577 C573 0.930 . S
H578 C575 0.929 . S
S579 N580 1.613 . S
S579 N581 1.610 . S
N580 S579 1.613 . S
N580 C583 1.350 . S
N581 S579 1.610 . S
N581 C582 1.351 . S
C582 C576 1.428 1_455 S
C582 N581 1.351 . S
C582 C583 1.434 . S
C583 C574 1.429 . S
C583 N580 1.350 . S
C583 C582 1.434 . S
C584 C585 1.369 1_565 S
C584 C586 1.419 1_554 S
C584 H588 0.930 . S
C585 C584 1.369 1_545 S
C585 C594 1.429 . S
C586 C584 1.419 1_556 S
C586 C587 1.363 . S
C586 H589 0.929 . S
C587 C586 1.363 . S
C587 C593 1.428 1_565 S
H588 C584 0.930 . S
H589 C586 0.929 . S
S590 N591 1.613 . S
S590 N592 1.610 . S
N591 S590 1.613 . S
N591 C594 1.350 1_556 S
N592 S590 1.610 . S
N592 C593 1.351 . S
C593 C587 1.428 1_545 S
C593 N592 1.351 . S
C593 C594 1.434 1_556 S
C594 C585 1.429 . S
C594 N591 1.350 1_554 S
C594 C593 1.434 1_554 S
C595 C596 1.369 . S
C595 C597 1.419 . S
C595 H599 0.930 . S
C596 C595 1.369 . S
C596 C605 1.429 . S
C597 C595 1.419 . S
C597 C598 1.363 . S
C597 H600 0.929 . S
C598 C597 1.363 . S
C598 C604 1.428 . S
H599 C595 0.930 . S
H600 C597 0.929 . S
S601 N602 1.613 . S
S601 N603 1.610 . S
N602 S601 1.613 . S
N602 C605 1.350 . S
N603 S601 1.610 . S
N603 C604 1.351 . S
C604 C598 1.428 . S
C604 N603 1.351 . S
C604 C605 1.434 . S
C605 C596 1.429 . S
C605 N602 1.350 . S
C605 C604 1.434 . S
C606 C607 1.369 . S
C606 C608 1.403 1_545 S
C606 H610 0.930 . S
C607 C606 1.369 . S
C607 C616 1.429 1_545 S
C608 C606 1.403 1_565 S
C608 C609 1.379 . S
C608 H611 0.930 1_565 S
C609 C608 1.379 . S
C609 C615 1.428 . S
H610 C606 0.930 . S
H611 C608 0.930 1_545 S
S612 N613 1.613 . S
S612 N614 1.610 . S
N613 S612 1.613 . S
N613 C616 1.350 . S
N614 S612 1.610 . S
N614 C615 1.351 . S
C615 C609 1.428 . S
C615 N614 1.351 . S
C615 C616 1.434 . S
C616 C607 1.429 1_565 S
C616 N613 1.350 . S
C616 C615 1.434 . S
C617 C618 1.369 . S
C617 C619 1.419 . S
C617 H621 0.930 . S
C618 C617 1.369 . S
C618 C627 1.429 . S
C619 C617 1.419 . S
C619 C620 1.363 . S
C619 H622 0.929 . S
C620 C619 1.363 . S
C620 C626 1.428 . S
H621 C617 0.930 . S
H622 C619 0.929 . S
S623 N624 1.613 . S
S623 N625 1.610 . S
N624 S623 1.613 . S
N624 C627 1.350 . S
N625 S623 1.610 . S
N625 C626 1.351 . S
C626 C620 1.428 . S
C626 N625 1.351 . S
C626 C627 1.434 . S
C627 C618 1.429 . S
C627 N624 1.350 . S
C627 C626 1.434 . S
C628 C629 1.369 . S
C628 C630 1.419 . S
C628 H632 0.930 . S
C629 C628 1.369 . S
C629 C638 1.429 . S
C630 C628 1.419 . S
C630 C631 1.363 . S
C630 H633 0.929 . S
C631 C630 1.363 . S
C631 C637 1.428 . S
H632 C628 0.930 . S
H633 C630 0.929 . S
S634 N635 1.613 . S
S634 N636 1.610 . S
N635 S634 1.613 . S
N635 C638 1.350 . S
N636 S634 1.610 . S
N636 C637 1.351 . S
C637 C631 1.428 . S
C637 N636 1.351 . S
C637 C638 1.434 . S
C638 C629 1.429 . S
C638 N635 1.350 . S
C638 C637 1.434 . S
C639 C640 1.369 . S
C639 C641 1.419 . S
C639 H643 0.930 . S
C640 C639 1.369 . S
C640 C649 1.429 . S
C641 C639 1.419 . S
C641 C642 1.363 . S
C641 H644 0.929 . S
C642 C641 1.363 . S
C642 C648 1.428 . S
H643 C639 0.930 . S
H644 C641 0.929 . S
S645 N646 1.613 . S
S645 N647 1.610 . S
N646 S645 1.613 . S
N646 C649 1.350 . S
N647 S645 1.610 . S
N647 C648 1.351 . S
C648 C642 1.428 . S
C648 N647 1.351 . S
C648 C649 1.434 . S
C649 C640 1.429 . S
C649 N646 1.350 . S
C649 C648 1.434 . S
C650 C651 1.369 . S
C650 C652 1.419 . S
C650 H654 0.930 . S
C651 C650 1.369 . S
C651 C660 1.429 . S
C652 C650 1.419 . S
C652 C653 1.363 . S
C652 H655 0.929 . S
C653 C652 1.363 . S
C653 C659 1.428 . S
H654 C650 0.930 . S
H655 C652 0.929 . S
S656 N657 1.613 . S
S656 N658 1.610 . S
N657 S656 1.613 . S
N657 C660 1.350 . S
N658 S656 1.610 . S
N658 C659 1.351 . S
C659 C653 1.428 . S
C659 N658 1.351 . S
C659 C660 1.434 . S
C660 C651 1.429 . S
C660 N657 1.350 . S
C660 C659 1.434 . S
C661 C662 1.369 1_554 S
C661 C663 1.419 . S
C661 H665 0.930 . S
C662 C661 1.369 1_556 S
C662 C671 1.429 1_655 S
C663 C661 1.419 . S
C663 C664 1.363 . S
C663 H666 0.929 . S
C664 C663 1.363 . S
C664 C670 1.428 1_654 S
H665 C661 0.930 . S
H666 C663 0.929 . S
S667 N668 1.613 . S
S667 N669 1.610 . S
N668 S667 1.613 . S
N668 C671 1.350 . S
N669 S667 1.610 . S
N669 C670 1.351 . S
C670 C664 1.428 1_456 S
C670 N669 1.351 . S
C670 C671 1.434 . S
C671 C662 1.429 1_455 S
C671 N668 1.350 . S
C671 C670 1.434 . S
C672 C673 1.369 . S
C672 C674 1.419 . S
C672 H676 0.930 . S
C673 C672 1.369 . S
C673 C682 1.429 . S
C674 C672 1.419 . S
C674 C675 1.363 . S
C674 H677 0.929 . S
C675 C674 1.363 . S
C675 C681 1.428 . S
H676 C672 0.930 . S
H677 C674 0.929 . S
S678 N679 1.613 . S
S678 N680 1.610 . S
N679 S678 1.613 . S
N679 C682 1.350 . S
N680 S678 1.610 . S
N680 C681 1.351 . S
C681 C675 1.428 . S
C681 N680 1.351 . S
C681 C682 1.434 . S
C682 C673 1.429 . S
C682 N679 1.350 . S
C682 C681 1.434 . S
C683 C684 1.369 . S
C683 C685 1.419 . S
C683 H687 0.930 . S
C684 C683 1.369 . S
C684 C693 1.429 . S
C685 C683 1.419 . S
C685 C686 1.363 . S
C685 H688 0.929 . S
C686 C685 1.363 . S
C686 C692 1.428 . S
H687 C683 0.930 . S
H688 C685 0.929 . S
S689 N690 1.613 . S
S689 N691 1.610 . S
N690 S689 1.613 . S
N690 C693 1.350 . S
N691 S689 1.610 . S
N691 C692 1.351 . S
C692 C686 1.428 . S
C692 N691 1.351 . S
C692 C693 1.434 . S
C693 C684 1.429 . S
C693 N690 1.350 . S
C693 C692 1.434 . S
C694 C695 1.369 . S
C694 C696 1.419 . S
C694 H698 0.930 . S
C695 C694 1.369 . S
C695 C704 1.429 . S
C696 C694 1.419 . S
C696 C697 1.363 . S
C696 H699 0.929 . S
C697 C696 1.363 . S
C697 C703 1.428 . S
H698 C694 0.930 . S
H699 C696 0.929 . S
S700 N701 1.613 . S
S700 N702 1.610 . S
N701 S700 1.613 . S
N701 C704 1.350 . S
N702 S700 1.610 . S
N702 C703 1.351 . S
C703 C697 1.428 . S
C703 N702 1.351 . S
C703 C704 1.434 . S
C704 C695 1.429 . S
C704 N701 1.350 . S
C704 C703 1.434 . S
C705 C706 1.369 . S
C705 C707 1.419 . S
C705 H709 0.930 . S
C706 C705 1.369 . S
C706 C715 1.429 . S
C707 C705 1.419 . S
C707 C708 1.363 . S
C707 H710 0.929 . S
C708 C707 1.363 . S
C708 C714 1.428 . S
H709 C705 0.930 . S
H710 C707 0.929 . S
S711 N712 1.613 . S
S711 N713 1.610 . S
N712 S711 1.613 . S
N712 C715 1.350 . S
N713 S711 1.610 . S
N713 C714 1.351 . S
C714 C708 1.428 . S
C714 N713 1.351 . S
C714 C715 1.434 . S
C715 C706 1.429 . S
C715 N712 1.350 . S
C715 C714 1.434 . S
C716 C717 1.369 . S
C716 C718 1.419 . S
C716 H720 0.930 . S
C717 C716 1.369 . S
C717 C726 1.429 . S
C718 C716 1.419 . S
C718 C719 1.363 . S
C718 H721 0.929 . S
C719 C718 1.363 . S
C719 C725 1.428 . S
H720 C716 0.930 . S
H721 C718 0.929 . S
S722 N723 1.613 1_455 S
S722 N724 1.610 . S
N723 S722 1.613 1_655 S
N723 C726 1.350 . S
N724 S722 1.610 . S
N724 C725 1.351 1_455 S
C725 C719 1.428 . S
C725 N724 1.351 1_655 S
C725 C726 1.434 . S
C726 C717 1.429 . S
C726 N723 1.350 . S
C726 C725 1.434 . S
C727 C728 1.369 . S
C727 C729 1.419 . S
C727 H731 0.930 . S
C728 C727 1.369 . S
C728 C737 1.429 . S
C729 C727 1.419 . S
C729 C730 1.363 . S
C729 H732 0.929 . S
C730 C729 1.363 . S
C730 C736 1.428 . S
H731 C727 0.930 . S
H732 C729 0.929 . S
S733 N734 1.613 . S
S733 N735 1.610 . S
N734 S733 1.613 . S
N734 C737 1.350 . S
N735 S733 1.610 . S
N735 C736 1.351 . S
C736 C730 1.428 . S
C736 N735 1.351 . S
C736 C737 1.434 . S
C737 C728 1.429 . S
C737 N734 1.350 . S
C737 C736 1.434 . S
C738 C739 1.369 . S
C738 C740 1.419 . S
C738 H742 0.930 . S
C739 C738 1.369 . S
C739 C748 1.429 . S
C740 C738 1.419 . S
C740 C741 1.363 . S
C740 H743 0.929 . S
C741 C740 1.363 . S
C741 C747 1.428 . S
H742 C738 0.930 . S
H743 C740 0.929 . S
S744 N745 1.613 . S
S744 N746 1.610 . S
N745 S744 1.613 . S
N745 C748 1.350 . S
N746 S744 1.610 . S
N746 C747 1.351 . S
C747 C741 1.428 . S
C747 N746 1.351 . S
C747 C748 1.434 . S
C748 C739 1.429 . S
C748 N745 1.350 . S
C748 C747 1.434 . S
C749 C750 1.369 . S
C749 C751 1.419 . S
C749 H753 0.930 . S
C750 C749 1.369 . S
C750 C759 1.429 . S
C751 C749 1.419 . S
C751 C752 1.363 . S
C751 H754 0.929 . S
C752 C751 1.363 . S
C752 C758 1.428 . S
H753 C749 0.930 . S
H754 C751 0.929 . S
S755 N756 1.613 . S
S755 N757 1.610 . S
N756 S755 1.613 . S
N756 C759 1.350 . S
N757 S755 1.610 . S
N757 C758 1.351 . S
C758 C752 1.428 . S
C758 N757 1.351 . S
C758 C759 1.434 . S
C759 C750 1.429 . S
C759 N756 1.350 . S
C759 C758 1.434 . S
C760 C761 1.369 . S
C760 C762 1.419 . S
C760 H764 0.930 . S
C761 C760 1.369 . S
C761 C770 1.429 . S
C762 C760 1.419 . S
C762 C763 1.363 . S
C762 H765 0.929 . S
C763 C762 1.363 . S
C763 C769 1.428 . S
H764 C760 0.930 . S
H765 C762 0.929 . S
S766 N767 1.613 . S
S766 N768 1.610 . S
N767 S766 1.613 . S
N767 C770 1.350 . S
N768 S766 1.610 . S
N768 C769 1.351 . S
C769 C763 1.428 . S
C769 N768 1.351 . S
C769 C770 1.434 . S
C770 C761 1.429 . S
C770 N767 1.350 . S
C770 C769 1.434 . S
C771 C772 1.369 . S
C771 C773 1.419 . S
C771 H775 0.930 . S
C772 C771 1.369 . S
C772 C781 1.429 . S
C773 C771 1.419 . S
C773 C774 1.363 . S
C773 H776 0.929 . S
C774 C773 1.363 . S
C774 C780 1.428 . S
H775 C771 0.930 . S
H776 C773 0.929 . S
S777 N778 1.613 . S
S777 N779 1.610 . S
N778 S777 1.613 . S
N778 C781 1.350 . S
N779 S777 1.610 . S
N779 C780 1.351 . S
C780 C774 1.428 . S
C780 N779 1.351 . S
C780 C781 1.434 . S
C781 C772 1.429 . S
C781 N778 1.350 . S
C781 C780 1.434 . S
C782 C783 1.369 . S
C782 C784 1.419 . S
C782 H786 0.930 . S
C783 C782 1.369 . S
C783 C792 1.429 . S
C784 C782 1.419 . S
C784 C785 1.363 . S
C784 H787 0.929 . S
C785 C784 1.363 . S
C785 C791 1.428 . S
H786 C782 0.930 . S
H787 C784 0.929 . S
S788 N789 1.613 . S
S788 N790 1.610 . S
N789 S788 1.613 . S
N789 C792 1.350 . S
N790 S788 1.610 . S
N790 C791 1.351 . S
C791 C785 1.428 . S
C791 N790 1.351 . S
C791 C792 1.434 . S
C792 C783 1.429 . S
C792 N789 1.350 . S
C792 C791 1.434 . S
C793 C794 1.369 . S
C793 C795 1.419 . S
C793 H797 0.930 . S
C794 C793 1.369 . S
C794 C803 1.429 . S
C795 C793 1.419 . S
C795 C796 1.363 . S
C795 H798 0.929 . S
C796 C795 1.363 . S
C796 C802 1.428 . S
H797 C793 0.930 . S
H798 C795 0.929 . S
S799 N800 1.613 . S
S799 N801 1.610 . S
N800 S799 1.613 . S
N800 C803 1.350 . S
N801 S799 1.610 . S
N801 C802 1.351 . S
C802 C796 1.428 . S
C802 N801 1.351 . S
C802 C803 1.434 . S
C803 C794 1.429 . S
C803 N800 1.350 . S
C803 C802 1.434 . S
C804 C805 1.369 . S
C804 C806 1.419 . S
C804 H808 0.930 . S
C805 C804 1.369 . S
C805 C814 1.429 . S
C806 C804 1.419 . S
C806 C807 1.363 . S
C806 H809 0.929 . S
C807 C806 1.363 . S
C807 C813 1.428 . S
H808 C804 0.930 . S
H809 C806 0.929 . S
S810 N811 1.613 . S
S810 N812 1.610 . S
N811 S810 1.613 . S
N811 C814 1.350 . S
N812 S810 1.610 . S
N812 C813 1.351 . S
C813 C807 1.428 . S
C813 N812 1.351 . S
C813 C814 1.434 . S
C814 C805 1.429 . S
C814 N811 1.350 . S
C814 C813 1.434 . S
C815 C816 1.369 . S
C815 C817 1.419 . S
C815 H819 0.930 1_556 S
C816 C815 1.369 . S
C816 C825 1.429 . S
C817 C815 1.419 . S
C817 C818 1.363 . S
C817 H820 0.929 . S
C818 C817 1.363 . S
C818 C824 1.428 . S
H819 C815 0.930 1_554 S
H820 C817 0.929 . S
S821 N822 1.613 . S
S821 N823 1.610 . S
N822 S821 1.613 . S
N822 C825 1.350 . S
N823 S821 1.610 . S
N823 C824 1.351 . S
C824 C818 1.428 . S
C824 N823 1.351 . S
C824 C825 1.434 . S
C825 C816 1.429 . S
C825 N822 1.350 . S
C825 C824 1.434 . S
C826 C827 1.369 . S
C826 C828 1.419 . S
C826 H830 0.930 . S
C827 C826 1.369 . S
C827 C836 1.429 . S
C828 C826 1.419 . S
C828 C829 1.363 . S
C828 H831 0.929 . S
C829 C828 1.363 . S
C829 C835 1.428 . S
H830 C826 0.930 . S
H831 C828 0.929 . S
S832 N833 1.613 . S
S832 N834 1.610 . S
N833 S832 1.613 . S
N833 C836 1.350 . S
N834 S832 1.610 . S
N834 C835 1.351 . S
C835 C829 1.428 . S
C835 N834 1.351 . S
C835 C836 1.434 . S
C836 C827 1.429 . S
C836 N833 1.350 . S
C836 C835 1.434 . S
C837 C838 1.369 . S
C837 C839 1.419 . S
C837 H841 0.930 . S
C838 C837 1.369 . S
C838 C847 1.429 . S
C839 C837 1.419 . S
C839 C840 1.363 . S
C839 H842 0.929 . S
C840 C839 1.363 . S
C840 C846 1.428 . S
H841 C837 0.930 . S
H842 C839 0.929 . S
S843 N844 1.613 . S
S843 N845 1.610 . S
N844 S843 1.613 . S
N844 C847 1.350 . S
N845 S843 1.610 . S
N845 C846 1.351 . S
C846 C840 1.428 . S
C846 N845 1.351 . S
C846 C847 1.434 . S
C847 C838 1.429 . S
C847 N844 1.350 . S
C847 C846 1.434 . S
C321 C6 0.961 . S
C323 C146 0.954 . S
C332 C26 0.957 . S
C334 C86 0.956 . S
C343 C108 1.242 . S
C345 C46 1.328 . S
C354 C68 1.248 . S
C356 C126 1.326 . S
C365 C236 1.683 . S
C367 C99 1.610 1_654 S
C376 C176 1.679 . S
C378 C19 1.617 1_656 S
C387 C219 1.947 . S
C389 C139 1.951 . S
C398 C59 1.948 . S
C400 C199 1.945 . S
C409 C186 0.953 . S
C411 C246 0.961 . S
C420 C206 0.966 . S
C422 C286 0.950 . S
C431 C266 1.318 . S
C433 C168 1.256 . S
C442 C228 1.258 . S
C444 C306 1.320 . S
C453 C299 1.616 . S
C455 C76 1.680 . S
C464 C259 1.611 . S
C466 C116 1.680 . S
C475 C39 1.942 . S
C477 C319 1.952 1_554 S
C486 C159 1.944 . S
C488 C279 1.953 1_556 S
C497 C269 0.421 . S
C499 C9 0.800 . S
C508 C221 0.635 . S
C510 C29 0.475 . S
C519 C249 0.824 . S
C521 C49 0.409 . S
C530 C209 0.481 . S
C532 C61 0.621 . S
C541 C89 0.825 . S
C543 C309 0.400 . S
C552 C189 0.459 . S
C554 C101 0.613 . S
C563 C129 0.425 . S
C565 C289 0.799 . S
C574 C149 0.473 . S
C576 C161 0.636 . S
C585 C1 1.609 . S
C587 C81 1.616 . S
C596 C21 1.585 . S
C598 C109 1.599 . S
C607 C121 1.572 . S
C609 C41 1.568 . S
C618 C69 1.595 . S
C620 C141 1.591 . S
C629 C201 1.585 . S
C631 C169 1.600 . S
C640 C229 1.600 . S
C642 C181 1.588 . S
C651 C241 1.609 . S
C653 C281 1.615 . S
C662 C301 1.572 . S
C664 C261 1.567 . S
C673 C8 2.125 . S
C675 C148 2.120 . S
C684 C28 2.118 . S
C686 C88 2.126 . S
C695 C106 2.051 . S
C697 C48 2.062 . S
C706 C128 2.063 . S
C708 C66 2.052 . S
C717 C239 1.339 . S
C719 C96 1.337 . S
C728 C179 1.345 . S
C730 C16 1.332 . S
C739 C216 1.299 . S
C741 C136 1.311 . S
C750 C56 1.299 . S
C752 C196 1.310 . S
C761 C248 2.122 . S
C763 C188 2.123 1_556 S
C772 C288 2.122 . S
C774 C208 2.122 1_554 S
C783 C268 2.056 . S
C785 C166 2.058 . S
C794 C308 2.056 . S
C796 C226 2.057 . S
C805 C296 1.337 . S
C807 C79 1.338 1_554 S
C816 C119 1.342 1_556 S
C818 C256 1.334 . S
C827 C36 1.303 . S
C829 C316 1.306 . S
C838 C276 1.311 . S
C840 C156 1.302 . S
