# Generated by pormake.
# Topology unw, (4)-cn, num edge types: 1
# Building blocks:
#     Node 0, Type 0, BuildingBlock: ESEHIV_clean_sbu_0, # of connection points: 4
#     Node 1, Type 0, BuildingBlock: ESEHIV_clean_sbu_0, # of connection points: 4
#     Node 2, Type 0, BuildingBlock: ESEHIV_clean_sbu_0, # of connection points: 4
#     Node 3, Type 0, BuildingBlock: ESEHIV_clean_sbu_0, # of connection points: 4
#     Node 4, Type 0, BuildingBlock: ESEHIV_clean_sbu_0, # of connection points: 4
#     Node 5, Type 0, BuildingBlock: ESEHIV_clean_sbu_0, # of connection points: 4
#     Node 6, Type 0, BuildingBlock: ESEHIV_clean_sbu_0, # of connection points: 4
#     Node 7, Type 0, BuildingBlock: ESEHIV_clean_sbu_0, # of connection points: 4
#     Node 8, Type 0, BuildingBlock: ESEHIV_clean_sbu_0, # of connection points: 4
#     Node 9, Type 0, BuildingBlock: ESEHIV_clean_sbu_0, # of connection points: 4
#     Node 10, Type 0, BuildingBlock: ESEHIV_clean_sbu_0, # of connection points: 4
#     Node 11, Type 0, BuildingBlock: ESEHIV_clean_sbu_0, # of connection points: 4
#     Node 12, Type 0, BuildingBlock: ESEHIV_clean_sbu_0, # of connection points: 4
#     Node 13, Type 0, BuildingBlock: ESEHIV_clean_sbu_0, # of connection points: 4
#     Node 14, Type 0, BuildingBlock: ESEHIV_clean_sbu_0, # of connection points: 4
#     Node 15, Type 0, BuildingBlock: ESEHIV_clean_sbu_0, # of connection points: 4
#     Node 16, Type 0, BuildingBlock: ESEHIV_clean_sbu_0, # of connection points: 4
#     Node 17, Type 0, BuildingBlock: ESEHIV_clean_sbu_0, # of connection points: 4
#     Node 18, Type 0, BuildingBlock: ESEHIV_clean_sbu_0, # of connection points: 4
#     Node 19, Type 0, BuildingBlock: ESEHIV_clean_sbu_0, # of connection points: 4
#     Node 20, Type 0, BuildingBlock: ESEHIV_clean_sbu_0, # of connection points: 4
#     Node 21, Type 0, BuildingBlock: ESEHIV_clean_sbu_0, # of connection points: 4
#     Node 22, Type 0, BuildingBlock: ESEHIV_clean_sbu_0, # of connection points: 4
#     Node 23, Type 0, BuildingBlock: ESEHIV_clean_sbu_0, # of connection points: 4
#     Edge 24, Type (0, 0), BuildingBlock: AJUNOK_clean_linker_0, # of connection points: 2
#     Edge 25, Type (0, 0), BuildingBlock: AJUNOK_clean_linker_0, # of connection points: 2
#     Edge 26, Type (0, 0), BuildingBlock: AJUNOK_clean_linker_0, # of connection points: 2
#     Edge 27, Type (0, 0), BuildingBlock: AJUNOK_clean_linker_0, # of connection points: 2
#     Edge 28, Type (0, 0), BuildingBlock: AJUNOK_clean_linker_0, # of connection points: 2
#     Edge 29, Type (0, 0), BuildingBlock: AJUNOK_clean_linker_0, # of connection points: 2
#     Edge 30, Type (0, 0), BuildingBlock: AJUNOK_clean_linker_0, # of connection points: 2
#     Edge 31, Type (0, 0), BuildingBlock: AJUNOK_clean_linker_0, # of connection points: 2
#     Edge 32, Type (0, 0), BuildingBlock: AJUNOK_clean_linker_0, # of connection points: 2
#     Edge 33, Type (0, 0), BuildingBlock: AJUNOK_clean_linker_0, # of connection points: 2
#     Edge 34, Type (0, 0), BuildingBlock: AJUNOK_clean_linker_0, # of connection points: 2
#     Edge 35, Type (0, 0), BuildingBlock: AJUNOK_clean_linker_0, # of connection points: 2
#     Edge 36, Type (0, 0), BuildingBlock: AJUNOK_clean_linker_0, # of connection points: 2
#     Edge 37, Type (0, 0), BuildingBlock: AJUNOK_clean_linker_0, # of connection points: 2
#     Edge 38, Type (0, 0), BuildingBlock: AJUNOK_clean_linker_0, # of connection points: 2
#     Edge 39, Type (0, 0), BuildingBlock: AJUNOK_clean_linker_0, # of connection points: 2
#     Edge 40, Type (0, 0), BuildingBlock: AJUNOK_clean_linker_0, # of connection points: 2
#     Edge 41, Type (0, 0), BuildingBlock: AJUNOK_clean_linker_0, # of connection points: 2
#     Edge 42, Type (0, 0), BuildingBlock: AJUNOK_clean_linker_0, # of connection points: 2
#     Edge 43, Type (0, 0), BuildingBlock: AJUNOK_clean_linker_0, # of connection points: 2
#     Edge 44, Type (0, 0), BuildingBlock: AJUNOK_clean_linker_0, # of connection points: 2
#     Edge 45, Type (0, 0), BuildingBlock: AJUNOK_clean_linker_0, # of connection points: 2
#     Edge 46, Type (0, 0), BuildingBlock: AJUNOK_clean_linker_0, # of connection points: 2
#     Edge 47, Type (0, 0), BuildingBlock: AJUNOK_clean_linker_0, # of connection points: 2
#     Edge 48, Type (0, 0), BuildingBlock: AJUNOK_clean_linker_0, # of connection points: 2
#     Edge 49, Type (0, 0), BuildingBlock: AJUNOK_clean_linker_0, # of connection points: 2
#     Edge 50, Type (0, 0), BuildingBlock: AJUNOK_clean_linker_0, # of connection points: 2
#     Edge 51, Type (0, 0), BuildingBlock: AJUNOK_clean_linker_0, # of connection points: 2
#     Edge 52, Type (0, 0), BuildingBlock: AJUNOK_clean_linker_0, # of connection points: 2
#     Edge 53, Type (0, 0), BuildingBlock: AJUNOK_clean_linker_0, # of connection points: 2
#     Edge 54, Type (0, 0), BuildingBlock: AJUNOK_clean_linker_0, # of connection points: 2
#     Edge 55, Type (0, 0), BuildingBlock: AJUNOK_clean_linker_0, # of connection points: 2
#     Edge 56, Type (0, 0), BuildingBlock: AJUNOK_clean_linker_0, # of connection points: 2
#     Edge 57, Type (0, 0), BuildingBlock: AJUNOK_clean_linker_0, # of connection points: 2
#     Edge 58, Type (0, 0), BuildingBlock: AJUNOK_clean_linker_0, # of connection points: 2
#     Edge 59, Type (0, 0), BuildingBlock: AJUNOK_clean_linker_0, # of connection points: 2
#     Edge 60, Type (0, 0), BuildingBlock: AJUNOK_clean_linker_0, # of connection points: 2
#     Edge 61, Type (0, 0), BuildingBlock: AJUNOK_clean_linker_0, # of connection points: 2
#     Edge 62, Type (0, 0), BuildingBlock: AJUNOK_clean_linker_0, # of connection points: 2
#     Edge 63, Type (0, 0), BuildingBlock: AJUNOK_clean_linker_0, # of connection points: 2
#     Edge 64, Type (0, 0), BuildingBlock: AJUNOK_clean_linker_0, # of connection points: 2
#     Edge 65, Type (0, 0), BuildingBlock: AJUNOK_clean_linker_0, # of connection points: 2
#     Edge 66, Type (0, 0), BuildingBlock: AJUNOK_clean_linker_0, # of connection points: 2
#     Edge 67, Type (0, 0), BuildingBlock: AJUNOK_clean_linker_0, # of connection points: 2
#     Edge 68, Type (0, 0), BuildingBlock: AJUNOK_clean_linker_0, # of connection points: 2
#     Edge 69, Type (0, 0), BuildingBlock: AJUNOK_clean_linker_0, # of connection points: 2
#     Edge 70, Type (0, 0), BuildingBlock: AJUNOK_clean_linker_0, # of connection points: 2
#     Edge 71, Type (0, 0), BuildingBlock: AJUNOK_clean_linker_0, # of connection points: 2
# Relax obj value: 0.347
# Max RMSD: 0.216
# Mean RMSD: 0.206
data_MOF--net-unw--node1-ESEHIV_clean_sbu_0--edge1-AJUNOK_clean_linker_0
_symmetry_space_group_name_H-M    P1
_symmetry_Int_Tables_number       1
_symmetry_cell_setting            triclinic
loop_
_symmetry_equiv_pos_as_xyz
'x, y, z'
_cell_length_a     37.1806
_cell_length_b     38.479639
_cell_length_c     37.691659
_cell_angle_alpha  90.710329
_cell_angle_beta   90.356622
_cell_angle_gamma 92.712299
loop_
_atom_site_label
_atom_site_type_symbol
_atom_site_fract_x
_atom_site_fract_y
_atom_site_fract_z
_atom_type_partial_charge
Cu0 Cu 0.1592 0.42456 0.26099 0.0
N1 N 0.168 0.41919 0.30924 0.0
N2 N 0.17317 0.37866 0.35092 0.0
C3 C 0.15146 0.39282 0.32685 0.0
C4 C 0.20416 0.39843 0.34983 0.0
C5 C 0.20087 0.42336 0.32419 0.0
O6 O 0.11651 0.39469 0.24962 0.0
C7 C 0.21126 0.37741 0.24155 0.0
O8 O 0.18901 0.35439 0.2563 0.0
H9 H 0.12619 0.38057 0.31827 0.0
H10 H 0.22287 0.43896 0.31304 0.0
N11 N 0.15585 0.47077 0.24752 0.0
N12 N 0.17573 0.52181 0.22507 0.0
C13 C 0.18422 0.49357 0.24387 0.0
C14 C 0.12839 0.48488 0.23044 0.0
C15 C 0.1405 0.51628 0.21663 0.0
C16 C 0.08673 0.40039 0.26474 0.0
O17 O 0.08427 0.4295 0.28296 0.0
H18 H 0.2111 0.48834 0.2529 0.0
H19 H 0.10233 0.47192 0.22567 0.0
O20 O 0.20199 0.40854 0.23843 0.0
H21 H 0.22923 0.39211 0.3624 0.0
H22 H 0.12516 0.53212 0.19914 0.0
Cu23 Cu 0.69667 0.13427 0.27007 0.0
N24 N 0.71321 0.14198 0.2237 0.0
N25 N 0.73034 0.17383 0.17686 0.0
C26 C 0.70878 0.1714 0.20543 0.0
C27 C 0.74853 0.14433 0.17653 0.0
C28 C 0.73789 0.12468 0.20546 0.0
O29 O 0.64582 0.14836 0.27027 0.0
C30 C 0.75313 0.18286 0.29298 0.0
O31 O 0.74332 0.20194 0.2664 0.0
H32 H 0.69289 0.19237 0.21484 0.0
H33 H 0.74962 0.10106 0.21429 0.0
N34 N 0.69862 0.08681 0.28206 0.0
N35 N 0.71763 0.03885 0.30906 0.0
C36 C 0.72643 0.07172 0.29819 0.0
C37 C 0.67134 0.06263 0.28229 0.0
C38 C 0.68294 0.03319 0.29865 0.0
C39 C 0.63451 0.17919 0.26793 0.0
O40 O 0.6578 0.20577 0.2715 0.0
H41 H 0.75234 0.08513 0.30228 0.0
H42 H 0.64437 0.06672 0.27279 0.0
O43 O 0.73246 0.1573 0.3024 0.0
H44 H 0.77047 0.13902 0.15881 0.0
H45 H 0.66635 1.01 0.30401 0.0
Cu46 Cu 0.87802 0.58911 0.25395 0.0
N47 N 0.8818 0.59708 0.30265 0.0
N48 N 0.88238 0.63353 0.34931 0.0
C49 C 0.89275 0.62856 0.31559 0.0
C50 C 0.86406 0.60379 0.35816 0.0
C51 C 0.86384 0.58121 0.32927 0.0
O52 O 0.91113 0.62384 0.23392 0.0
C53 C 0.81769 0.60877 0.21301 0.0
O54 O 0.84106 0.61713 0.18817 0.0
H55 H 0.90345 0.64934 0.29909 0.0
H56 H 0.84826 0.55685 0.32658 0.0
N57 N 0.8876 0.54405 0.2396 0.0
N58 N 0.88511 0.49638 0.20515 0.0
C59 C 0.88066 0.53093 0.20689 0.0
C60 C 0.89673 0.51693 0.25938 0.0
C61 C 0.89509 0.48735 0.23814 0.0
C62 C 0.94391 0.62225 0.24336 0.0
O63 O 0.95402 0.59321 0.25757 0.0
H64 H 0.87034 0.54607 0.1854 0.0
H65 H 0.90251 0.51829 0.28753 0.0
O66 O 0.82867 0.59694 0.24219 0.0
H67 H 0.84904 0.59996 0.38243 0.0
H68 H 0.89983 0.46113 0.2465 0.0
Cu69 Cu 0.33148 0.88742 0.31475 0.0
N70 N 0.29683 0.86288 0.34126 0.0
N71 N 0.23901 0.84878 0.3526 0.0
C72 C 0.26359 0.87465 0.34599 0.0
C73 C 0.2574 0.8194 0.35196 0.0
C74 C 0.29316 0.82818 0.3452 0.0
O75 O 0.32713 0.93627 0.32838 0.0
C76 C 0.3397 0.86935 0.24149 0.0
O77 O 0.37204 0.88462 0.24305 0.0
H78 H 0.25654 0.90082 0.33968 0.0
H79 H 0.3138 0.81024 0.3389 0.0
N80 N 0.37871 0.87329 0.32265 0.0
N81 N 0.43121 0.84934 0.30924 0.0
C82 C 0.39468 0.84631 0.30689 0.0
C83 C 0.40583 0.89349 0.33651 0.0
C84 C 0.43796 0.87886 0.32849 0.0
C85 C 0.30355 0.95594 0.31602 0.0
O86 O 0.28386 0.94502 0.28867 0.0
H87 H 0.37954 0.82615 0.2923 0.0
H88 H 0.40265 0.91866 0.34888 0.0
O89 O 0.3177 0.87428 0.26653 0.0
H90 H 0.24518 0.7933 0.35238 0.0
H91 H 0.46438 0.8908 0.33395 0.0
Cu92 Cu 0.19795 0.624 0.77802 0.0
N93 N 0.20318 0.62314 0.729 0.0
N94 N 0.20974 0.65643 0.68092 0.0
C95 C 0.19047 0.64949 0.7103 0.0
C96 C 0.23549 0.6328 0.68064 0.0
C97 C 0.23141 0.6123 0.7104 0.0
O98 O 0.15325 0.64943 0.78477 0.0
C99 C 0.27031 0.6444 0.80438 0.0
O100 O 0.27342 0.61244 0.81522 0.0
H101 H 0.17188 0.66738 0.72134 0.0
H102 H 0.25077 0.59463 0.72033 0.0
N103 N 0.19604 0.57894 0.79844 0.0
N104 N 0.20979 0.52644 0.81908 0.0
C105 C 0.22123 0.55455 0.80015 0.0
C106 C 0.16782 0.56533 0.81669 0.0
C107 C 0.17613 0.53316 0.82929 0.0
C108 C 0.12332 0.63881 0.77048 0.0
O109 O 0.1208 0.60736 0.75644 0.0
H110 H 0.24742 0.55721 0.78787 0.0
H111 H 0.14311 0.57835 0.8213 0.0
O112 O 0.24003 0.65371 0.79262 0.0
H113 H 0.25811 0.633 0.66269 0.0
H114 H 0.15921 0.51651 0.84586 0.0
Cu115 Cu 0.33758 0.07104 0.82121 0.0
N116 N 0.31044 0.10671 0.80423 0.0
N117 N 0.26569 0.13386 0.7787 0.0
C118 C 0.27792 0.10296 0.78843 0.0
C119 C 0.29161 0.15786 0.78838 0.0
C120 C 0.31912 0.14106 0.80411 0.0
O121 O 0.33134 0.03326 0.78677 0.0
C122 C 0.31399 0.07797 0.89355 0.0
O123 O 0.3025 0.06507 0.92373 0.0
H124 H 0.2639 0.07808 0.78365 0.0
H125 H 0.34311 0.15334 0.81578 0.0
N126 N 0.38558 0.08692 0.82525 0.0
N127 N 0.43007 0.12812 0.82514 0.0
C128 C 0.40088 0.11405 0.80782 0.0
C129 C 0.40688 0.08235 0.85357 0.0
C130 C 0.43417 0.10783 0.85375 0.0
C131 C 0.30335 1.01284 0.7867 0.0
O132 O 0.2806 1.0146 0.81312 0.0
H133 H 0.38889 0.12521 0.78464 0.0
H134 H 0.40046 0.0646 0.8749 0.0
O135 O 0.32073 0.05727 0.868 0.0
H136 H 0.29029 0.18569 0.78522 0.0
H137 H 0.45284 0.11323 0.87546 0.0
Cu138 Cu 0.81302 0.41305 0.78952 0.0
N139 N 0.77397 0.38281 0.80015 0.0
N140 N 0.71572 0.36607 0.80379 0.0
C141 C 0.74025 0.39301 0.80558 0.0
C142 C 0.73495 0.33769 0.79774 0.0
C143 C 0.77091 0.3481 0.79557 0.0
O144 O 0.80846 0.45345 0.82071 0.0
C145 C 0.78215 0.41243 0.72186 0.0
O146 O 0.75085 0.42078 0.73452 0.0
H147 H 0.73353 0.42007 0.80678 0.0
H148 H 0.7928 0.33199 0.78818 0.0
N149 N 0.85696 0.39186 0.79618 0.0
N150 N 0.90894 0.36746 0.78263 0.0
C151 C 0.87658 0.3771 0.77051 0.0
C152 C 0.87754 0.39167 0.82561 0.0
C153 C 0.90956 0.37675 0.81736 0.0
C154 C 0.80022 0.48369 0.81111 0.0
O155 O 0.79827 0.49073 0.77717 0.0
H156 H 0.86762 0.37429 0.74322 0.0
H157 H 0.8704 0.40296 0.85087 0.0
O158 O 0.81043 0.42226 0.73907 0.0
H159 H 0.72357 0.31165 0.79274 0.0
H160 H 0.93224 0.37478 0.83522 0.0
Cu161 Cu 0.67638 0.9331 0.77507 0.0
N162 N 0.67019 0.92681 0.82345 0.0
N163 N 0.66491 0.89374 0.87155 0.0
C164 C 0.65837 0.89612 0.83658 0.0
C165 C 0.68159 0.92445 0.881 0.0
C166 C 0.68463 0.94498 0.85118 0.0
O167 O 0.63647 0.90558 0.75359 0.0
C168 C 0.73911 0.91567 0.73552 0.0
O169 O 0.72232 0.92627 0.70714 0.0
H170 H 0.64956 0.87419 0.82006 0.0
H171 H 0.69946 0.96974 0.84919 0.0
N172 N 0.67577 0.98018 0.76357 0.0
N173 N 0.69302 0.03263 0.74302 0.0
C174 C 0.70232 0.99955 0.7481 0.0
C175 C 0.64875 1.00172 0.76849 0.0
C176 C 0.65925 0.03409 0.75573 0.0
C177 C 0.6373 0.87277 0.7488 0.0
O178 O 0.66852 0.85817 0.7492 0.0
H179 H 0.72797 0.98964 0.74063 0.0
H180 H 0.623 0.99421 0.78 0.0
O181 O 0.72318 0.91568 0.76519 0.0
H182 H 0.69364 0.93033 0.90674 0.0
H183 H 0.64279 0.05651 0.75471 0.0
Cu184 Cu 0.24018 0.16952 0.43111 0.0
N185 N 0.20387 0.18725 0.40343 0.0
N186 N 0.17779 0.23397 0.3823 0.0
C187 C 0.18816 0.21709 0.41155 0.0
C188 C 0.18502 0.21245 0.3549 0.0
C189 C 0.20122 0.18378 0.36798 0.0
O190 O 0.22918 0.18223 0.48101 0.0
C191 C 0.28717 0.21372 0.39019 0.0
O192 O 0.26358 0.23743 0.39583 0.0
H193 H 0.18815 0.22792 0.43806 0.0
H194 H 0.21483 0.16462 0.35245 0.0
N195 N 0.23982 0.12107 0.42524 0.0
N196 N 0.25328 0.06908 0.40283 0.0
C197 C 0.253 0.1037 0.39718 0.0
C198 C 0.23148 0.09663 0.44944 0.0
C199 C 0.23982 0.06457 0.43573 0.0
C200 C 0.23202 0.21257 0.49537 0.0
O201 O 0.24898 0.23778 0.47813 0.0
H202 H 0.2639 0.11643 0.37387 0.0
H203 H 0.22133 0.10193 0.47569 0.0
O204 O 0.28547 0.1862 0.4088 0.0
H205 H 0.18321 0.21904 0.32712 0.0
H206 H 0.23685 0.0399 0.44915 0.0
Cu207 Cu 0.91647 0.25429 0.31731 0.0
N208 N 0.8922 0.25845 0.27483 0.0
N209 N 0.88457 0.25765 0.21643 0.0
C210 C 0.90781 0.25387 0.24323 0.0
C211 C 0.85311 0.26558 0.23144 0.0
C212 C 0.85798 0.26629 0.26781 0.0
O213 O 0.95746 0.28786 0.3148 0.0
C214 C 0.90655 0.17987 0.325 0.0
O215 O 0.91867 0.14918 0.33197 0.0
H216 H 0.9357 0.24791 0.23983 0.0
H217 H 0.83806 0.27179 0.28763 0.0
N218 N 0.88872 0.26506 0.35631 0.0
N219 N 0.86813 0.26079 0.41169 0.0
C220 C 0.88893 0.24698 0.38652 0.0
C221 C 0.86697 0.29141 0.3622 0.0
C222 C 0.85401 0.28872 0.3964 0.0
C223 C 0.98554 0.28374 0.29629 0.0
O224 O 0.99063 0.25308 0.28197 0.0
H225 H 0.90382 0.22376 0.38951 0.0
H226 H 0.86137 0.31134 0.34323 0.0
O227 O 0.92903 0.20601 0.32283 0.0
H228 H 0.82887 0.27142 0.21711 0.0
H229 H 0.83615 0.30633 0.4092 0.0
Cu230 Cu 0.80333 0.84499 0.43585 0.0
N231 N 0.83945 0.82164 0.41305 0.0
N232 N 0.86676 0.77482 0.39293 0.0
C233 C 0.84142 0.78692 0.4146 0.0
C234 C 0.88147 0.80333 0.37695 0.0
C235 C 0.86451 0.83228 0.38947 0.0
O236 O 0.81222 0.83668 0.48719 0.0
C237 C 0.73317 0.84206 0.40414 0.0
O238 O 0.72884 0.87201 0.42025 0.0
H239 H 0.82345 0.77062 0.43031 0.0
H240 H 0.86887 0.85881 0.38074 0.0
N241 N 0.80541 0.89309 0.42509 0.0
N242 N 0.79204 0.94331 0.39871 0.0
C243 C 0.79473 0.90837 0.39479 0.0
C244 C 0.81003 0.91929 0.44882 0.0
C245 C 0.80179 0.95001 0.43283 0.0
C246 C 0.80728 0.80764 0.5032 0.0
O247 O 0.78898 0.78209 0.48688 0.0
H248 H 0.78683 0.89379 0.37104 0.0
H249 H 0.81631 0.91593 0.47659 0.0
O250 O 0.75973 0.82428 0.4132 0.0
H251 H 0.9014 0.80319 0.35617 0.0
H252 H 0.80031 0.97483 0.4464 0.0
Cu253 Cu 0.0785 0.78147 0.33246 0.0
N254 N 0.11951 0.77011 0.30841 0.0
N255 N 0.15483 0.76003 0.26238 0.0
C256 C 0.12193 0.76877 0.27291 0.0
C257 C 0.17347 0.75455 0.29252 0.0
C258 C 0.15151 0.76068 0.32097 0.0
O259 O 0.04195 0.74728 0.31634 0.0
C260 C 0.08715 0.85657 0.32449 0.0
O261 O 0.07374 0.887 0.31904 0.0
H262 H 0.09974 0.7737 0.25531 0.0
H263 H 0.15845 0.75839 0.34868 0.0
N264 N 0.08487 0.77733 0.38113 0.0
N265 N 0.10711 0.7881 0.43547 0.0
C266 C 0.1133 0.78975 0.40033 0.0
C267 C 0.05988 0.76695 0.40487 0.0
C268 C 0.07349 0.77368 0.43848 0.0
C269 C 0.02465 0.74884 0.2872 0.0
O270 O 0.02793 0.77706 0.26801 0.0
H271 H 0.1371 0.80182 0.38873 0.0
H272 H 0.03293 0.75715 0.39816 0.0
O273 O 0.06632 0.8292 0.32229 0.0
H274 H 0.20103 0.74681 0.29396 0.0
H275 H 0.05915 0.76987 0.46315 0.0
Cu276 Cu 0.25558 0.86447 0.62622 0.0
N277 N 0.30396 0.86556 0.61336 0.0
N278 N 0.35851 0.86713 0.63928 0.0
C279 C 0.32871 0.88464 0.6323 0.0
C280 C 0.35352 0.83699 0.62063 0.0
C281 C 0.32013 0.83623 0.60463 0.0
O282 O 0.2515 0.8964 0.66651 0.0
C283 C 0.2151 0.79967 0.63725 0.0
O284 O 0.18683 0.81558 0.6259 0.0
H285 H 0.32258 0.90837 0.64578 0.0
H286 H 0.30611 0.81316 0.59381 0.0
N287 N 0.2258 0.87483 0.58834 0.0
N288 N 0.18993 0.86459 0.54136 0.0
C289 C 0.21767 0.85341 0.56066 0.0
C290 C 0.2026 0.90054 0.58639 0.0
C291 C 0.18045 0.89431 0.55737 0.0
C292 C 0.25928 0.92871 0.6626 0.0
O293 O 0.26474 0.94043 0.63039 0.0
H294 H 0.22957 0.82851 0.55682 0.0
H295 H 0.20011 0.92093 0.60608 0.0
O296 O 0.24515 0.81668 0.64055 0.0
H297 H 0.36944 0.81437 0.62342 0.0
H298 H 0.15779 0.90933 0.5498 0.0
Cu299 Cu 0.11964 0.26751 0.68712 0.0
N300 N 0.106 0.222 0.6991 0.0
N301 N 0.13278 0.17575 0.72066 0.0
C302 C 0.1301 0.19769 0.69323 0.0
C303 C 0.10683 0.18477 0.74338 0.0
C304 C 0.09048 0.21327 0.73013 0.0
O305 O 0.14834 0.26585 0.64261 0.0
C306 C 0.13824 0.29164 0.75764 0.0
O307 O 0.10383 0.29727 0.76011 0.0
H308 H 0.15042 0.20061 0.67298 0.0
H309 H 0.07426 0.23021 0.7457 0.0
N310 N 0.07986 0.29617 0.68455 0.0
N311 N 0.0296 0.32225 0.70102 0.0
C312 C 0.04887 0.29332 0.70311 0.0
C313 C 0.07965 0.32762 0.66938 0.0
C314 C 0.04874 0.34363 0.67929 0.0
C315 C 0.1396 0.24479 0.61705 0.0
O316 O 0.10891 0.22654 0.61903 0.0
H317 H 0.04129 0.27105 0.71896 0.0
H318 H 0.10155 0.33899 0.65397 0.0
O319 O 0.15077 0.28181 0.7278 0.0
H320 H 0.1044 0.17589 0.77044 0.0
H321 H 0.04205 0.3699 0.67285 0.0
Cu322 Cu 0.77417 0.20823 0.63653 0.0
N323 N 0.72914 0.207 0.6151 0.0
N324 N 0.66995 0.21166 0.62182 0.0
C325 C 0.70026 0.19871 0.63482 0.0
C326 C 0.68006 0.22756 0.59144 0.0
C327 C 0.71678 0.22501 0.58757 0.0
O328 O 0.77195 0.17063 0.6705 0.0
C329 C 0.79127 0.28046 0.64655 0.0
O330 O 0.8036 0.27884 0.61403 0.0
H331 H 0.70264 0.1888 0.66146 0.0
H332 H 0.73355 0.23929 0.56891 0.0
N333 N 0.81126 0.20449 0.60402 0.0
N334 N 0.84123 0.21266 0.55336 0.0
C335 C 0.80872 0.20673 0.56851 0.0
C336 C 0.84656 0.20847 0.6117 0.0
C337 C 0.86511 0.21367 0.58058 0.0
C338 C 0.76532 0.13953 0.65964 0.0
O339 O 0.76609 0.13284 0.62539 0.0
H340 H 0.78338 0.20622 0.5543 0.0
H341 H 0.85762 0.21067 0.63829 0.0
O342 O 0.77871 0.25289 0.66131 0.0
H343 H 0.66314 0.24348 0.57554 0.0
H344 H 0.89351 0.22084 0.57873 0.0
Cu345 Cu 0.9103 0.76184 0.70273 0.0
N346 N 0.90808 0.80886 0.71355 0.0
N347 N 0.87784 0.85651 0.72405 0.0
C348 C 0.87815 0.82584 0.7067 0.0
C349 C 0.90895 0.85913 0.74276 0.0
C350 C 0.92771 0.8295 0.73617 0.0
O351 O 0.88545 0.75772 0.65547 0.0
C352 C 0.88311 0.71227 0.75715 0.0
O353 O 0.90055 0.68738 0.74174 0.0
H354 H 0.85532 0.8143 0.69211 0.0
H355 H 0.95225 0.82229 0.74913 0.0
N356 N 0.95904 0.7486 0.70308 0.0
N357 N 1.01196 0.72663 0.71877 0.0
C358 C 0.9764 0.72824 0.72618 0.0
C359 C 0.98474 0.76005 0.68046 0.0
C360 C 0.01712 0.74659 0.68993 0.0
C361 C 0.89252 0.7813 0.63234 0.0
O362 O 0.91935 0.80392 0.63903 0.0
H363 H 0.96364 0.71552 0.74853 0.0
H364 H 0.98034 0.77726 0.65858 0.0
O365 O 0.88303 0.74207 0.74284 0.0
H366 H 0.91647 0.87981 0.76148 0.0
H367 H 0.04244 0.75074 0.67624 0.0
Cu368 Cu 0.39336 0.24472 0.19232 0.0
N369 N 0.393 0.29187 0.20376 0.0
N370 N 0.35539 0.33389 0.2169 0.0
C371 C 0.364 0.30893 0.19356 0.0
C372 C 0.38099 0.33356 0.24242 0.0
C373 C 0.40407 0.30743 0.23436 0.0
O374 O 0.36827 0.24085 0.14515 0.0
C375 C 0.37544 0.2186 0.26176 0.0
O376 O 0.41032 0.22029 0.2673 0.0
H377 H 0.34583 0.29925 0.17282 0.0
H378 H 0.42349 0.29701 0.25235 0.0
N379 N 0.43993 0.22585 0.19135 0.0
N380 N 0.49414 0.20592 0.20617 0.0
C381 C 0.4683 0.22852 0.2144 0.0
C382 C 0.44892 0.20152 0.16748 0.0
C383 C 0.482 0.18935 0.17639 0.0
C384 C 0.37748 0.26148 0.1199 0.0
O385 O 0.40655 0.28185 0.12445 0.0
H386 H 0.46934 0.24543 0.23757 0.0
H387 H 0.43186 0.19235 0.14564 0.0
O388 O 0.36329 0.22444 0.23065 0.0
H389 H 0.38001 0.34748 0.26752 0.0
H390 H 0.49589 0.16941 0.16221 0.0
Cu391 Cu 0.45532 0.77257 0.83233 0.0
N392 N 0.4314 0.81164 0.81882 0.0
N393 N 0.41161 0.84743 0.77753 0.0
C394 C 0.43978 0.83017 0.7898 0.0
C395 C 0.38511 0.84092 0.80136 0.0
C396 C 0.39737 0.81879 0.82671 0.0
O397 O 0.50457 0.77948 0.81573 0.0
C398 C 0.40215 0.73313 0.79226 0.0
O399 O 0.40397 0.75947 0.77045 0.0
H400 H 0.46503 0.82839 0.77637 0.0
H401 H 0.38128 0.80549 0.84664 0.0
N402 N 0.45628 0.77044 0.88141 0.0
N403 N 0.44231 0.75237 0.93576 0.0
C404 C 0.43447 0.74955 0.90087 0.0
C405 C 0.47869 0.78733 0.90465 0.0
C406 C 0.47004 0.77625 0.93839 0.0
C407 C 0.51499 0.7795 0.78362 0.0
O408 O 0.49349 0.76633 0.75863 0.0
H409 H 0.41354 0.73218 0.88958 0.0
H410 H 0.49977 0.80625 0.89753 0.0
O411 O 0.42604 0.73152 0.81654 0.0
H412 H 0.35746 0.8481 0.79843 0.0
H413 H 0.48272 0.78551 0.96287 0.0
Cu414 Cu 0.2835 0.31464 0.92019 0.0
N415 N 0.30886 0.2812 0.89512 0.0
N416 N 0.32359 0.22711 0.88077 0.0
C417 C 0.31576 0.24931 0.90724 0.0
C418 C 0.32195 0.24566 0.85076 0.0
C419 C 0.31313 0.27913 0.85971 0.0
O420 O 0.29806 0.31082 0.97106 0.0
C421 C 0.22182 0.28001 0.88874 0.0
O422 O 0.23862 0.25122 0.89316 0.0
H423 H 0.31092 0.24124 0.93421 0.0
H424 H 0.30643 0.29931 0.84141 0.0
N425 N 0.29415 0.35964 0.90216 0.0
N426 N 0.28436 0.41039 0.87519 0.0
C427 C 0.26931 0.38128 0.88999 0.0
C428 C 0.32616 0.3757 0.89502 0.0
C429 C 0.32022 0.40701 0.8787 0.0
C430 C 0.28954 0.28535 0.99149 0.0
O431 O 0.265 0.26194 0.98045 0.0
H432 H 0.24064 0.37563 0.89205 0.0
H433 H 0.35199 0.36503 0.90047 0.0
O434 O 0.23262 0.3071 0.90629 0.0
H435 H 0.3237 0.23494 0.82417 0.0
H436 H 0.3408 0.4254 0.86925 0.0
Cu437 Cu 0.55377 0.31127 0.81731 0.0
N438 N 0.58266 0.28255 0.79123 0.0
N439 N 0.60097 0.25097 0.74545 0.0
C440 C 0.57958 0.27628 0.75614 0.0
C441 C 0.61742 0.2402 0.77506 0.0
C442 C 0.60578 0.25954 0.80338 0.0
O443 O 0.51385 0.28052 0.83033 0.0
C444 C 0.5627 0.3759 0.78181 0.0
O445 O 0.5511 0.40321 0.76554 0.0
H446 H 0.56179 0.28988 0.73886 0.0
H447 H 0.61286 0.25633 0.83096 0.0
N448 N 0.57566 0.32884 0.85854 0.0
N449 N 0.61582 0.34625 0.90007 0.0
C450 C 0.60956 0.3264 0.87064 0.0
C451 C 0.56007 0.35107 0.88075 0.0
C452 C 0.58474 0.36203 0.90624 0.0
C453 C 0.49323 0.26656 0.80667 0.0
O454 O 0.49383 0.27896 0.77438 0.0
H455 H 0.62953 0.31136 0.85754 0.0
H456 H 0.53308 0.35992 0.87754 0.0
O457 O 0.54033 0.35105 0.78977 0.0
H458 H 0.63684 0.22012 0.77602 0.0
H459 H 0.58054 0.38161 0.92642 0.0
Cu460 Cu 0.75887 0.68946 0.94367 0.0
N461 N 0.71835 0.70956 0.92552 0.0
N462 N 0.68523 0.75447 0.91175 0.0
C463 C 0.71092 0.7426 0.93318 0.0
C464 C 0.67587 0.72741 0.88981 0.0
C465 C 0.69642 0.69966 0.8984 0.0
O466 O 0.76093 0.70589 0.99387 0.0
C467 C 0.82132 0.68756 0.89849 0.0
O468 O 0.8272 0.65772 0.9135 0.0
H469 H 0.72603 0.75837 0.95261 0.0
H470 H 0.69734 0.67517 0.88412 0.0
N471 N 0.75488 0.64073 0.9396 0.0
N472 N 0.76126 0.5879 0.91508 0.0
C473 C 0.75575 0.6219 0.90917 0.0
C474 C 0.75945 0.61787 0.96572 0.0
C475 C 0.76342 0.58538 0.95076 0.0
C476 C 0.73118 0.70281 1.01079 0.0
O477 O 0.70395 0.68539 0.99547 0.0
H478 H 0.755 0.63347 0.88317 0.0
H479 H 0.76257 0.62483 0.9935 0.0
O480 O 0.79709 0.70643 0.91132 0.0
H481 H 0.65798 0.72847 0.86713 0.0
H482 H 0.77038 0.56242 0.96508 0.0
Cu483 Cu 0.6469 0.76075 0.20943 0.0
N484 N 0.64792 0.71394 0.22075 0.0
N485 N 0.67864 0.66534 0.22179 0.0
C486 C 0.66582 0.69076 0.20156 0.0
C487 C 0.66633 0.67192 0.25476 0.0
C488 C 0.64743 0.70183 0.25401 0.0
O489 O 0.66732 0.76449 0.16111 0.0
C490 C 0.66554 0.8107 0.26543 0.0
O491 O 0.63787 0.82759 0.25426 0.0
H492 H 0.67333 0.69496 0.17428 0.0
H493 H 0.63896 0.71647 0.27692 0.0
N494 N 0.59894 0.77443 0.20976 0.0
N495 N 0.54443 0.79022 0.22747 0.0
C496 C 0.57646 0.77796 0.23755 0.0
C497 C 0.58048 0.78469 0.18128 0.0
C498 C 0.54707 0.79454 0.19206 0.0
C499 C 0.69962 0.75786 0.15269 0.0
O500 O 0.72311 0.7534 0.17822 0.0
H501 H 0.58374 0.77242 0.26468 0.0
H502 H 0.59103 0.78588 0.15462 0.0
O503 O 0.67518 0.78432 0.24766 0.0
H504 H 0.67481 0.65931 0.2787 0.0
H505 H 0.52696 0.80559 0.17527 0.0
Cu506 Cu 0.2864 0.68727 0.11929 0.0
N507 N 0.25088 0.71073 0.0956 0.0
N508 N 0.20612 0.73812 0.12141 0.0
C509 C 0.21872 0.70722 0.11143 0.0
C510 C 0.2282 0.76202 0.10579 0.0
C511 C 0.25548 0.74505 0.08945 0.0
O512 O 0.26184 0.64707 0.14133 0.0
C513 C 0.32408 0.74715 0.1483 0.0
O514 O 0.33911 0.7488 0.11691 0.0
H515 H 0.20995 0.68318 0.12393 0.0
H516 H 0.28061 0.75761 0.08123 0.0
N517 N 0.3233 0.67555 0.08889 0.0
N518 N 0.36486 0.68216 0.04681 0.0
C519 C 0.33393 0.69351 0.06014 0.0
C520 C 0.34796 0.65149 0.09355 0.0
C521 C 0.37371 0.65547 0.06751 0.0
C522 C 0.27372 0.6267 0.16454 0.0
O523 O 0.30763 0.62976 0.17452 0.0
H524 H 0.32048 0.71591 0.05049 0.0
H525 H 0.34805 0.63329 0.11516 0.0
O526 O 0.3036 0.72072 0.15566 0.0
H527 H 0.22893 0.78964 0.11183 0.0
H528 H 0.39738 0.64041 0.06451 0.0
Cu529 Cu 0.81292 0.34304 0.05674 0.0
N530 N 0.85583 0.32239 0.04758 0.0
N531 N 0.8945 0.28803 0.0736 0.0
C532 C 0.87844 0.31865 0.07487 0.0
C533 C 0.88346 0.27297 0.04262 0.0
C534 C 0.85943 0.29424 0.02663 0.0
O535 O 0.82158 0.38042 0.09135 0.0
C536 C 0.78608 0.29903 0.10994 0.0
O537 O 0.80883 0.31831 0.12945 0.0
H538 H 0.87659 0.33403 0.09901 0.0
H539 H 0.84121 0.28663 1.00513 0.0
N540 N 0.79222 0.35866 1.0155 0.0
N541 N 0.75021 0.36618 0.97438 0.0
C542 C 0.7576 0.35262 1.00623 0.0
C543 C 0.80755 0.37641 0.98855 0.0
C544 C 0.78157 0.38097 0.96289 0.0
C545 C 0.84594 0.40433 0.08715 0.0
O546 O 0.86422 0.40517 0.05745 0.0
H547 H 0.73855 0.33752 0.02209 0.0
H548 H 0.83566 0.38492 0.98743 0.0
O549 O 0.78213 0.30636 0.07736 0.0
H550 H 0.88772 0.24626 0.03501 0.0
H551 H 0.78538 0.39396 0.93778 0.0
C552 C 0.26062 0.56785 0.19101 0.0
C553 C 0.24866 0.60049 0.18114 0.0
C554 C 0.23687 0.54246 0.20571 0.0
C555 C 0.20032 0.54893 0.21177 0.0
H556 H 0.28832 0.56153 0.18649 0.0
H557 H 0.24716 0.51731 0.21154 0.0
S558 S 0.15707 0.63232 0.19519 0.0
N559 N 0.19864 0.63884 0.18082 0.0
N560 N 0.15465 0.59211 0.21001 0.0
C561 C 0.18855 0.58211 0.2034 0.0
C562 C 0.21252 0.6076 0.18774 0.0
C563 C 0.58474 0.21951 0.25235 0.0
C564 C 0.59645 0.18526 0.25619 0.0
C565 C 0.55074 0.22617 0.23751 0.0
C566 C 0.52704 0.19892 0.2254 0.0
H567 H 0.60236 0.24158 0.26001 0.0
H568 H 0.54356 0.25288 0.23414 0.0
S569 S 0.5422 0.10455 0.23262 0.0
N570 N 0.57947 0.12372 0.24896 0.0
N571 N 0.51628 0.13628 0.22118 0.0
C572 C 0.53763 0.16461 0.23044 0.0
C573 C 0.57202 0.15778 0.24579 0.0
C574 C 0.84643 0.42002 0.15191 0.0
C575 C 0.85586 0.42874 0.11685 0.0
C576 C 0.85669 0.44186 0.18068 0.0
C577 C 0.87629 0.4735 0.17548 0.0
H578 H 0.83135 0.39591 0.1573 0.0
H579 H 0.84868 0.43425 0.20714 0.0
S580 S 0.9081 0.50845 0.0894 0.0
N581 N 0.88642 0.47127 0.07883 0.0
N582 N 0.90529 0.51231 0.13297 0.0
C583 C 0.88587 0.48261 0.1407 0.0
C584 C 0.87581 0.46022 0.11141 0.0
C585 C 0.52203 0.81691 0.28292 0.0
C586 C 0.51511 0.80066 0.2498 0.0
C587 C 0.49422 0.83115 0.30277 0.0
C588 C 0.45817 0.82996 0.29044 0.0
H589 H 0.54937 0.81993 0.29293 0.0
H590 H 0.50132 0.84396 0.32773 0.0
S591 S 0.42551 0.78538 0.20727 0.0
N592 N 0.46928 0.78024 0.20749 0.0
N593 N 0.41728 0.80791 0.2436 0.0
C594 C 0.45074 0.81193 0.25811 0.0
C595 C 0.47911 0.7972 0.23811 0.0
C596 C 0.2815 0.47335 0.86087 0.0
C597 C 0.26624 0.43903 0.85895 0.0
C598 C 0.26372 0.50167 0.84655 0.0
C599 C 0.22984 0.4969 0.82988 0.0
H600 H 0.30697 0.47855 0.87442 0.0
H601 H 0.27591 0.52766 0.84965 0.0
S602 S 0.18054 0.41238 0.81276 0.0
N603 N 0.21682 0.40196 0.83498 0.0
N604 N 0.18329 0.45516 0.80931 0.0
C605 C 0.21491 0.46277 0.82658 0.0
C606 C 0.23308 0.4339 0.84077 0.0
C607 C 0.44176 0.2228 0.80086 0.0
C608 C 0.47687 0.23154 0.81271 0.0
C609 C 0.42674 0.18895 0.80473 0.0
C610 C 0.44665 0.16237 0.81978 0.0
H611 H 0.42568 0.24234 0.78889 0.0
H612 H 0.39915 0.18388 0.79627 0.0
S613 S 0.54159 0.17149 0.85081 0.0
N614 N 0.53209 0.21092 0.83803 0.0
N615 N 0.50449 0.14697 0.8439 0.0
C616 C 0.48226 0.17076 0.83072 0.0
C617 C 0.49723 0.20539 0.82748 0.0
C618 C 0.7869 0.57092 0.85698 0.0
C619 C 0.76969 0.56152 0.88897 0.0
C620 C 0.79662 0.54568 0.83196 0.0
C621 C 0.79013 0.50996 0.8381 0.0
H622 H 0.79359 0.59797 0.85142 0.0
H623 H 0.80987 0.55422 0.80786 0.0
S624 S 0.74279 0.47138 0.91571 0.0
N625 N 0.74408 0.51371 0.92379 0.0
N626 N 0.76346 0.46646 0.87747 0.0
C627 C 0.77256 0.50013 0.86966 0.0
C628 C 0.76212 0.52582 0.89488 0.0
C629 C 0.60032 0.81679 0.73969 0.0
C630 C 0.60406 0.85058 0.75458 0.0
C631 C 0.57116 0.79387 0.74861 0.0
C632 C 0.5457 0.80344 0.77391 0.0
H633 H 0.62024 0.80793 0.72122 0.0
H634 H 0.56907 0.76823 0.73638 0.0
S635 S 0.5429 0.88888 0.82047 0.0
N636 N 0.57871 0.89266 0.79494 0.0
N637 N 0.5256 0.84917 0.81311 0.0
C638 C 0.54906 0.83715 0.78884 0.0
C639 C 0.5778 0.86081 0.77883 0.0
C640 C 0.16048 0.20565 0.56798 0.0
C641 C 0.16486 0.23736 0.58714 0.0
C642 C 0.18308 0.19741 0.53952 0.0
C643 C 0.21102 0.22065 0.52827 0.0
H644 H 0.13929 0.18675 0.57499 0.0
H645 H 0.17787 0.17285 0.52565 0.0
S646 S 0.23471 0.30704 0.56967 0.0
N647 N 0.20022 0.29182 0.59318 0.0
N648 N 0.24214 0.27686 0.53939 0.0
C649 C 0.21604 0.25237 0.54743 0.0
C650 C 0.19323 0.26054 0.57685 0.0
C651 C 0.82196 0.24076 0.4981 0.0
C652 C 0.84797 0.22298 0.51719 0.0
C653 C 0.82875 0.25293 0.46379 0.0
C654 C 0.86189 0.24805 0.44713 0.0
H655 H 0.79635 0.24609 0.50997 0.0
H656 H 0.80776 0.26616 0.45017 0.0
S657 S 0.93903 0.20284 0.48552 0.0
N658 N 0.90767 0.19992 0.51625 0.0
N659 N 0.9214 0.22468 0.45283 0.0
C660 C 0.88817 0.23026 0.46589 0.0
C661 C 0.88099 0.21735 0.50062 0.0
C662 C 0.85409 0.82447 0.55004 0.0
C663 C 0.8265 0.80099 0.53768 0.0
C664 C 0.87495 0.81751 0.58022 0.0
C665 C 0.86932 0.78678 0.60008 0.0
H666 H 0.86031 0.84828 0.53583 0.0
H667 H 0.89585 0.8367 0.58797 0.0
S668 S 0.79933 0.71713 0.58037 0.0
N669 N 0.79399 0.74576 0.5487 0.0
N670 N 0.83288 0.73309 0.60549 0.0
C671 C 0.84129 0.76333 0.58858 0.0
C672 C 0.82008 0.7703 0.55751 0.0
C673 C 0.1117 0.82391 0.49007 0.0
C674 C 0.12853 0.80534 0.46297 0.0
C675 C 0.13194 0.84348 0.51529 0.0
C676 C 0.16978 0.84503 0.51455 0.0
H677 H 0.08263 0.8241 0.49124 0.0
H678 H 0.11786 0.85728 0.53575 0.0
S679 S 0.22695 0.801 0.44932 0.0
N680 N 0.18531 0.78931 0.4372 0.0
N681 N 0.22337 0.82652 0.48457 0.0
C682 C 0.18701 0.82632 0.48789 0.0
C683 C 0.16639 0.80643 0.46209 0.0
C684 C 0.73369 0.05113 0.69446 0.0
C685 C 0.71352 0.05954 0.72458 0.0
C686 C 0.75149 0.0771 0.67441 0.0
C687 C 0.75039 0.1125 0.68403 0.0
H688 H 0.73458 0.02434 0.68551 0.0
H689 H 0.76562 0.0694 0.65075 0.0
S690 S 0.70325 0.14806 0.76214 0.0
N691 N 0.69498 0.10558 0.76414 0.0
N692 N 0.72855 0.15443 0.72674 0.0
C693 C 0.73147 0.12116 0.71494 0.0
C694 C 0.71295 0.0947 0.73508 0.0
C695 C 0.03125 0.67122 0.74433 0.0
C696 C 0.03878 0.7064 0.73621 0.0
C697 C 0.05838 0.65 0.75694 0.0
C698 C 0.09402 0.66324 0.76288 0.0
H699 H 1.00459 0.65961 0.73925 0.0
H700 H 0.05156 0.6227 0.76119 0.0
S701 S 0.1269 0.75462 0.74857 0.0
N702 N 0.08399 0.75404 0.73684 0.0
N703 N 0.13452 0.71471 0.76134 0.0
C704 C 0.10136 0.6989 0.75659 0.0
C705 C 0.07393 0.72027 0.74302 0.0
C706 C 0.26733 0.9634 0.75755 0.0
C707 C 0.29381 0.9907 0.75509 0.0
C708 C 0.25615 0.94352 0.72758 0.0
C709 C 0.27037 0.9507 0.69383 0.0
H710 H 0.2551 0.95727 0.78286 0.0
H711 H 0.23593 0.92261 0.73082 0.0
S712 S 0.34114 0.01872 0.67303 0.0
N713 N 0.33462 0.02317 0.71607 0.0
N714 N 0.31328 0.98639 0.65991 0.0
C715 C 0.29701 0.9778 0.69102 0.0
C716 C 0.30884 0.9976 0.72158 0.0
C717 C 0.97254 0.35275 0.70654 0.0
C718 C 0.99812 0.3311 0.72123 0.0
C719 C 0.94314 0.36379 0.72637 0.0
C720 C 0.9381 0.35389 0.76195 0.0
H721 H 0.97545 0.3615 0.67947 0.0
H722 H 0.92483 0.38108 0.71401 0.0
S723 S 0.99669 0.29665 0.81292 0.0
N724 N 1.01613 0.30003 0.77379 0.0
N725 N 0.96049 0.31975 0.81048 0.0
C726 C 0.96304 0.33163 0.77676 0.0
C727 C 0.99303 0.32044 0.75658 0.0
C728 C 0.74906 0.95566 0.34989 0.0
C729 C 0.77609 0.96736 0.37419 0.0
C730 C 0.73093 0.97898 0.32832 0.0
C731 C 0.73882 1.01527 0.32986 0.0
H732 H 0.74097 0.92832 0.34816 0.0
H733 H 0.71024 0.96833 0.31044 0.0
S734 S 0.80929 0.05933 0.38734 0.0
N735 N 0.81173 0.01768 0.39647 0.0
N736 N 0.7768 0.0614 0.35753 0.0
C737 C 0.76656 0.02724 0.35339 0.0
C738 C 0.78527 1.0034 0.37512 0.0
C739 C 0.99712 0.65383 0.2715 0.0
C740 C 0.96636 0.65484 0.24959 0.0
C741 C 1.01559 0.68435 0.28335 0.0
C742 C 1.00456 0.71729 0.27337 0.0
H743 H 1.00641 0.62928 0.28084 0.0
H744 H 0.03867 0.68202 0.30069 0.0
S745 S 0.92729 0.73473 0.21461 0.0
N746 N 0.92663 0.69189 0.21716 0.0
N747 N 0.96202 0.74931 0.23896 0.0
C748 C 0.97485 0.71887 0.2503 0.0
C749 C 0.95562 0.68767 0.23853 0.0
C750 C 0.30141 0.98977 0.37333 0.0
C751 C 0.29348 0.98731 0.33672 0.0
C752 C 0.28847 0.01664 0.39458 0.0
C753 C 0.26763 0.04262 0.38009 0.0
H754 H 0.31669 0.97007 0.38604 0.0
H755 H 0.2947 0.01705 0.42269 0.0
S756 S 0.24058 0.0494 0.28568 0.0
N757 N 0.26414 1.01409 0.28682 0.0
N758 N 0.24049 0.06485 0.32676 0.0
C759 C 0.26047 0.04124 0.34342 0.0
C760 C 0.27317 1.01353 0.32179 0.0
C761 C 0.06785 0.33665 0.26315 0.0
C762 C 0.0592 0.37138 0.26985 0.0
C763 C 0.04407 0.30862 0.27199 0.0
C764 C 1.01061 0.31401 0.28804 0.0
H765 H 0.09366 0.3309 0.25187 0.0
H766 H 0.05226 0.28246 0.26654 0.0
S767 S 0.97372 0.40001 0.30868 0.0
N768 N 1.01375 0.40955 0.29174 0.0
N769 N 0.96931 0.35713 0.30842 0.0
C770 C 1.00126 0.34865 0.29413 0.0
C771 C 0.02542 0.37719 0.28499 0.0
C772 C 0.75114 0.72282 0.07266 0.0
C773 C 0.72494 0.72081 0.04554 0.0
C774 C 0.74321 0.73609 0.10675 0.0
C775 C 0.70889 0.74836 0.11506 0.0
H776 H 0.77743 0.71273 0.06801 0.0
H777 H 0.76391 0.73569 0.12706 0.0
S778 S 0.63243 0.75299 0.05159 0.0
N779 N 0.66435 0.73516 0.02833 0.0
N780 N 0.64971 0.76025 0.09159 0.0
C781 C 0.68321 0.74818 0.08741 0.0
C782 C 0.69116 0.73439 0.05297 0.0
C783 C 0.36731 0.7104 0.98866 0.0
C784 C 0.38529 0.6981 1.01855 0.0
C785 C 0.38618 0.7279 0.96172 0.0
C786 C 0.42371 0.73417 0.96386 0.0
H787 H 0.33837 0.70646 0.98617 0.0
H788 H 0.37118 0.73716 0.93931 0.0
S789 S 0.4835 0.70718 0.03661 0.0
N790 N 0.44274 0.69345 0.04887 0.0
N791 N 0.47834 0.72603 0.9979 0.0
C792 C 0.4421 0.72185 0.99352 0.0
C793 C 0.42287 0.7038 0.0209 0.0
C794 C 0.3425 0.29917 0.03288 0.0
C795 C 0.31031 0.27958 0.02537 0.0
C796 C 0.36384 0.29265 0.06296 0.0
C797 C 0.35418 0.2663 0.08746 0.0
H798 H 0.35176 0.3195 1.01504 0.0
H799 H 0.38826 0.30871 0.06696 0.0
S800 S 0.2719 0.20792 0.08111 0.0
N801 N 0.26955 0.23272 0.0458 0.0
N802 N 0.30936 0.22088 0.10212 0.0
C803 C 0.32185 0.24672 0.08057 0.0
C804 C 0.30011 0.25323 0.04973 0.0
C805 C 0.71531 0.35523 0.91928 0.0
C806 C 0.71636 0.36302 0.95577 0.0
C807 C 0.68242 0.34925 0.90139 0.0
C808 C 0.64939 0.35162 0.91917 0.0
H809 H 0.74008 0.35281 0.90469 0.0
H810 H 0.68298 0.34295 0.87339 0.0
S811 S 0.63797 0.3716 1.01499 0.0
N812 N 0.68194 0.37347 1.00906 0.0
N813 N 0.62014 0.36154 0.97578 0.0
C814 C 0.65023 0.3596 0.95572 0.0
C815 C 0.6837 0.36554 0.9739 0.0
C816 C 0.1509 0.3174 0.34201 0.0
C817 C 0.16956 0.34313 0.36297 0.0
C818 C 0.15185 0.28208 0.35003 0.0
C819 C 0.17174 0.27066 0.37907 0.0
H820 H 0.137 0.3241 0.31795 0.0
H821 H 0.13813 0.26333 0.33237 0.0
S822 S 0.22244 0.32786 0.44445 0.0
N823 N 0.20542 0.35504 0.41605 0.0
N824 N 0.2089 0.2886 0.43038 0.0
C825 C 0.18903 0.29623 0.40141 0.0
C826 C 0.1876 0.33237 0.39343 0.0
C827 C 0.85483 0.18687 0.28378 0.0
C828 C 0.86743 0.18271 0.31852 0.0
C829 C 0.8179 0.1882 0.27629 0.0
C830 C 0.79188 0.18378 0.30309 0.0
H831 H 0.8737 0.18875 0.26204 0.0
H832 H 0.80966 0.19163 0.24897 0.0
S833 S 0.8107 0.16653 0.39779 0.0
N834 N 0.85099 0.17067 0.3796 0.0
N835 N 0.78137 0.17205 0.36543 0.0
C836 C 0.80402 0.17767 0.33775 0.0
C837 C 0.84181 0.17711 0.34545 0.0
C838 C 0.84723 0.67885 0.37743 0.0
C839 C 0.88043 0.66736 0.36569 0.0
C840 C 0.84321 0.71379 0.38683 0.0
C841 C 0.87232 0.73861 0.38508 0.0
H842 H 0.82371 0.66115 0.37745 0.0
H843 H 0.81664 0.72159 0.39408 0.0
S844 S 0.96596 0.72032 0.36036 0.0
N845 N 0.94352 0.68248 0.35539 0.0
N846 N 0.93634 0.74813 0.37401 0.0
C847 C 0.9061 0.72698 0.37502 0.0
C848 C 0.91006 0.69139 0.36517 0.0
C849 C 0.18639 0.84156 0.31297 0.0
C850 C 0.20105 0.85092 0.34636 0.0
C851 C 0.14953 0.84425 0.30591 0.0
C852 C 0.12598 0.85501 0.3324 0.0
H853 H 0.2037 0.83244 0.29217 0.0
H854 H 0.13935 0.83781 0.27956 0.0
S855 S 0.15239 0.8887 0.4218 0.0
N856 N 0.19048 0.87635 0.40429 0.0
N857 N 0.12077 0.88024 0.39145 0.0
C858 C 0.14076 0.86684 0.36501 0.0
C859 C 0.17842 0.86467 0.37203 0.0
C860 C 0.24363 0.70876 0.65961 0.0
C861 C 0.2107 0.68985 0.66392 0.0
C862 C 0.24467 0.74402 0.6505 0.0
C863 C 0.21282 0.76182 0.64512 0.0
H864 H 0.26878 0.69681 0.66523 0.0
H865 H 0.27076 0.75758 0.64844 0.0
S866 S 0.11966 0.72284 0.64985 0.0
N867 N 0.14559 0.69057 0.65959 0.0
N868 N 0.1473 0.75681 0.64247 0.0
C869 C 0.17971 0.74268 0.64764 0.0
C870 C 0.17873 0.70677 0.65701 0.0
C871 C 0.2315 0.16809 0.73724 0.0
C872 C 0.23232 0.14073 0.76135 0.0
C873 C 0.19916 0.17818 0.72275 0.0
C874 C 0.16605 0.16107 0.73144 0.0
H875 H 0.25608 0.18252 0.7302 0.0
H876 H 0.20031 0.20086 0.70608 0.0
S877 S 0.15372 0.08639 0.79196 0.0
N878 N 0.19754 0.09572 0.79268 0.0
N879 N 0.13635 0.11423 0.76438 0.0
C880 C 0.1666 0.13265 0.75443 0.0
C881 C 0.19978 0.12247 0.76951 0.0
C882 C 0.75916 0.32162 0.68549 0.0
C883 C 0.78931 0.31457 0.66475 0.0
C884 C 0.75619 0.35404 0.70234 0.0
C885 C 0.78372 0.38035 0.69983 0.0
H886 H 0.73751 0.30203 0.68849 0.0
H887 H 0.73264 0.35801 0.7184 0.0
S888 S 0.86817 0.3748 0.64868 0.0
N889 N 0.84686 0.33661 0.64198 0.0
N890 N 0.84189 0.39719 0.67469 0.0
C891 C 0.81391 0.37364 0.67901 0.0
C892 C 0.81655 0.34086 0.66121 0.0
C893 C 0.8263 0.88426 0.69725 0.0
C894 C 0.84635 0.87647 0.72763 0.0
C895 C 0.79212 0.89791 0.69999 0.0
C896 C 0.77644 0.90369 0.7333 0.0
H897 H 0.8368 0.87869 0.67115 0.0
H898 H 0.77746 0.90283 0.67579 0.0
S899 S 0.81862 0.88799 0.82107 0.0
N900 N 0.84873 0.87602 0.79191 0.0
N901 N 0.78459 0.90166 0.79753 0.0
C902 C 0.79682 0.89688 0.76399 0.0
C903 C 0.83176 0.8833 0.76105 0.0
C904 C 0.34093 0.19631 0.35444 0.0
C905 C 0.30959 0.21529 0.35737 0.0
C906 C 0.36153 0.19684 0.32315 0.0
C907 C 0.35108 0.21543 0.29304 0.0
H908 H 0.34991 0.18132 0.37667 0.0
H909 H 0.38596 0.18259 0.32256 0.0
S910 S 0.27035 0.26815 0.28621 0.0
N911 N 0.26875 0.25268 0.32681 0.0
N912 N 0.30684 0.25287 0.26817 0.0
C913 C 0.31935 0.2338 0.29531 0.0
C914 C 0.29884 0.23395 0.32738 0.0
C915 C 0.92017 0.28229 0.16757 0.0
C916 C 0.89332 0.25854 0.1796 0.0
C917 C 0.92443 0.28827 0.13127 0.0
C918 C 0.90203 0.2706 0.10607 0.0
H919 H 0.9359 0.29824 0.18641 0.0
H920 H 0.94256 0.30945 0.12298 0.0
S921 S 0.83482 0.19887 0.12482 0.0
N922 N 0.8492 0.21247 0.16437 0.0
N923 N 0.85701 0.22337 0.09581 0.0
C924 C 0.87832 0.24358 0.11792 0.0
C925 C 0.87377 0.23785 0.15489 0.0
C926 C 0.70696 0.79705 0.31612 0.0
C927 C 0.68254 0.81951 0.30073 0.0
C928 C 0.722 0.80377 0.35 0.0
C929 C 0.71336 0.8333 0.37021 0.0
H930 H 0.71453 0.77387 0.30196 0.0
H931 H 0.74106 0.78585 0.36014 0.0
S932 S 0.65069 0.90052 0.34229 0.0
N933 N 0.65038 0.87266 0.30864 0.0
N934 N 0.67828 0.88514 0.37207 0.0
C935 C 0.68866 0.85582 0.35529 0.0
C936 C 0.67343 0.84902 0.32071 0.0
C937 C 0.20369 0.72419 0.1849 0.0
C938 C 0.19118 0.7434 0.15609 0.0
C939 C 0.19132 0.72953 0.2192 0.0
C940 C 0.16685 0.75519 0.22656 0.0
H941 H 0.22403 0.70533 0.18117 0.0
H942 H 0.2012 0.71346 0.24016 0.0
S943 S 0.12922 0.81562 0.16137 0.0
N944 N 0.15465 0.7904 0.13736 0.0
N945 N 0.13252 0.80211 0.20265 0.0
C946 C 0.15494 0.77556 0.1983 0.0
C947 C 0.16709 0.76948 0.16297 0.0
C948 C 0.37843 0.88288 0.73587 0.0
C949 C 0.40617 0.86017 0.74199 0.0
C950 C 0.36513 0.88806 0.70171 0.0
C951 C 0.3794 0.87104 0.67183 0.0
H952 H 0.36503 0.89485 0.75799 0.0
H953 H 0.34157 0.90329 0.69971 0.0
S954 S 0.4599 0.81783 0.67181 0.0
N955 N 0.45246 0.82611 0.7141 0.0
N956 N 0.42869 0.83793 0.64982 0.0
C957 C 0.41065 0.85257 0.677 0.0
C958 C 0.42379 0.84657 0.71202 0.0
C959 C 0.20769 0.26429 0.82526 0.0
C960 C 0.19958 0.28357 0.85605 0.0
C961 C 0.18882 0.26817 0.79323 0.0
C962 C 0.1605 0.29103 0.79071 0.0
H963 H 0.22924 0.2463 0.82567 0.0
H964 H 0.19589 0.25238 0.77055 0.0
S965 S 0.12814 0.34715 0.86368 0.0
N966 N 0.16159 0.32667 0.88177 0.0
N967 N 0.12511 0.33309 0.82211 0.0
C968 C 0.15201 0.31041 0.82133 0.0
C969 C 0.17182 0.30697 0.85378 0.0
C970 C 0.629 0.19507 0.66989 0.0
C971 C 0.64088 0.21999 0.64498 0.0
C972 C 0.61348 0.20509 0.70194 0.0
C973 C 0.60838 0.24027 0.70969 0.0
H974 H 0.63532 0.16808 0.66616 0.0
H975 H 0.60756 0.18552 0.72174 0.0
S976 S 0.6288 0.31508 0.65097 0.0
N977 N 0.6422 0.281 0.62855 0.0
N978 N 0.61171 0.2995 0.68813 0.0
C979 C 0.61603 0.26493 0.6833 0.0
C980 C 0.63243 0.25484 0.65092 0.0
C981 C 0.872 0.67593 0.81154 0.0
C982 C 0.86659 0.70684 0.793 0.0
C983 C 0.85825 0.67059 0.84582 0.0
C984 C 0.8382 0.6958 0.86335 0.0
H985 H 0.88719 0.65556 0.79959 0.0
H986 H 0.863 0.64605 0.8584 0.0
S987 S 0.81629 0.78161 0.82683 0.0
N988 N 0.83977 0.76338 0.7952 0.0
N989 N 0.81383 0.75319 0.85929 0.0
C990 C 0.83264 0.72695 0.84523 0.0
C991 C 0.84679 0.73248 0.81027 0.0
C992 C 0.2544 0.33404 0.22109 0.0
C993 C 0.24822 0.36803 0.23256 0.0
C994 C 0.28936 0.32352 0.21502 0.0
C995 C 0.31965 0.34635 0.22095 0.0
H996 H 0.23205 0.31525 0.21712 0.0
H997 H 0.29268 0.29682 0.20683 0.0
S998 S 0.31809 0.43829 0.25068 0.0
N999 N 0.27521 0.42492 0.24892 0.0
N1000 N 0.34116 0.40458 0.2383 0.0
C1001 C 0.31389 0.3805 0.23211 0.0
C1002 C 0.27813 0.39151 0.23763 0.0
C1003 C 0.36694 0.68107 0.81622 0.0
C1004 C 0.36885 0.70981 0.79339 0.0
C1005 C 0.33493 0.66049 0.81999 0.0
C1006 C 0.3032 0.668 0.80152 0.0
H1007 H 0.39033 0.67444 0.83154 0.0
H1008 H 0.33509 0.63855 0.83771 0.0
S1009 S 0.29351 0.74028 0.7382 0.0
N1010 N 0.33579 0.74447 0.75172 0.0
N1011 N 0.27593 0.70614 0.75908 0.0
C1012 C 0.30466 0.69666 0.77859 0.0
C1013 C 0.33736 0.71739 0.77442 0.0
C1014 C 0.35153 0.17155 0.89292 0.0
C1015 C 0.32129 0.18984 0.88314 0.0
C1016 C 0.34914 0.13511 0.89612 0.0
C1017 C 0.31653 0.11604 0.88939 0.0
H1018 H 0.37699 0.18555 0.89818 0.0
H1019 H 0.37275 0.12189 0.90441 0.0
S1020 S 0.22938 0.15217 0.86493 0.0
N1021 N 0.25775 0.18645 0.86785 0.0
N1022 N 0.25309 0.11824 0.87459 0.0
C1023 C 0.28595 0.13422 0.88078 0.0
C1024 C 0.28843 0.17111 0.87728 0.0
C1025 C 0.62188 0.35223 0.76709 0.0
C1026 C 0.60166 0.37366 0.78874 0.0
C1027 C 0.6588 0.34897 0.77288 0.0
C1028 C 0.67731 0.36847 0.79964 0.0
H1029 H 0.60913 0.3386 0.74491 0.0
H1030 H 0.6732 0.332 0.75543 0.0
S1031 S 0.63741 0.43232 0.8606 0.0
N1032 N 0.60301 0.4169 0.83621 0.0
N1033 N 0.67298 0.41224 0.84632 0.0
C1034 C 0.65771 0.39162 0.82032 0.0
C1035 C 0.6198 0.39412 0.8149 0.0
C1036 C 0.70391 0.81697 0.91399 0.0
C1037 C 0.67706 0.79048 0.90743 0.0
C1038 C 0.69855 0.85159 0.90523 0.0
C1039 C 0.66624 0.86103 0.88941 0.0
H1040 H 0.73019 0.81077 0.92384 0.0
H1041 H 0.72085 0.87054 0.90832 0.0
S1042 S 0.58537 0.80313 0.87214 0.0
N1043 N 0.61526 0.77714 0.88855 0.0
N1044 N 0.60554 0.8423 0.87138 0.0
C1045 C 0.63828 0.83542 0.88509 0.0
C1046 C 0.64362 0.80014 0.89417 0.0
C1047 C 0.73654 0.65972 0.1905 0.0
C1048 C 0.71006 0.64599 0.21385 0.0
C1049 C 0.77061 0.64589 0.18845 0.0
C1050 C 0.77968 0.61801 0.20985 0.0
H1051 H 0.73208 0.68277 0.17533 0.0
H1052 H 0.79065 0.6587 0.17173 0.0
S1053 S 0.71793 0.56778 0.26929 0.0
N1054 N 0.69349 0.59914 0.25404 0.0
N1055 N 0.75793 0.57357 0.25089 0.0
C1056 C 0.75262 0.60207 0.23091 0.0
C1057 C 0.71775 0.61594 0.23271 0.0
C1058 C 0.35176 0.83739 0.18477 0.0
C1059 C 0.33269 0.83938 0.21673 0.0
C1060 C 0.3488 0.80749 0.163 0.0
C1061 C 0.32721 0.778 0.17261 0.0
H1062 H 0.36952 0.85894 0.17669 0.0
H1063 H 0.36407 0.80744 0.13862 0.0
S1064 S 0.27179 0.76984 0.254 0.0
N1065 N 0.29101 0.80928 0.25684 0.0
N1066 N 0.2861 0.75304 0.21646 0.0
C1067 C 0.30776 0.77976 0.20445 0.0
C1068 C 0.31031 0.81043 0.22633 0.0
C1069 C 0.76459 0.26587 0.16273 0.0
C1070 C 0.7678 0.26776 0.12564 0.0
C1071 C 0.75112 0.23553 0.17906 0.0
C1072 C 0.74079 0.20561 0.15906 0.0
H1073 H 0.77313 0.28787 0.17946 0.0
H1074 H 0.75002 0.23513 0.20769 0.0
S1075 S 0.7428 0.19678 0.06123 0.0
N1076 N 0.75823 0.23712 0.06919 0.0
N1077 N 0.7336 0.17974 0.10036 0.0
C1078 C 0.74299 0.2072 0.12198 0.0
C1079 C 0.75619 0.23839 0.10515 0.0
loop_
_geom_bond_atom_site_label_1
_geom_bond_atom_site_label_2
_geom_bond_distance
_geom_bond_site_symmetry_2
_ccdc_geom_bond_type
Cu0 N1 1.999 . S
Cu0 O6 1.974 . S
Cu0 N11 1.985 . S
Cu0 O20 1.959 . S
N1 Cu0 1.999 . S
N1 C3 1.263 . S
N1 C5 1.389 . S
N2 C3 1.358 . S
N2 C4 1.400 . S
C3 N1 1.263 . S
C3 N2 1.358 . S
C3 H9 0.930 . S
C4 N2 1.400 . S
C4 C5 1.351 . S
C4 H21 0.930 . S
C5 N1 1.389 . S
C5 C4 1.351 . S
C5 H10 0.930 . S
O6 Cu0 1.974 . S
O6 C16 1.282 . S
C7 O8 1.261 . S
C7 O20 1.251 . S
O8 C7 1.261 . S
H9 C3 0.930 . S
H10 C5 0.930 . S
N11 Cu0 1.985 . S
N11 C13 1.335 . S
N11 C14 1.390 . S
N12 C13 1.345 . S
N12 C15 1.336 . S
C13 N11 1.335 . S
C13 N12 1.345 . S
C13 H18 0.930 . S
C14 N11 1.390 . S
C14 C15 1.346 . S
C14 H19 0.930 . S
C15 N12 1.336 . S
C15 C14 1.346 . S
C15 H22 0.929 . S
C16 O6 1.282 . S
C16 O17 1.216 . S
O17 C16 1.216 . S
H18 C13 0.930 . S
H19 C14 0.930 . S
O20 Cu0 1.959 . S
O20 C7 1.251 . S
H21 C4 0.930 . S
H22 C15 0.929 . S
Cu23 N24 1.999 . S
Cu23 O29 1.974 . S
Cu23 N34 1.985 . S
Cu23 O43 1.959 . S
N24 Cu23 1.999 . S
N24 C26 1.263 . S
N24 C28 1.389 . S
N25 C26 1.358 . S
N25 C27 1.400 . S
C26 N24 1.263 . S
C26 N25 1.358 . S
C26 H32 0.930 . S
C27 N25 1.400 . S
C27 C28 1.351 . S
C27 H44 0.930 . S
C28 N24 1.389 . S
C28 C27 1.351 . S
C28 H33 0.930 . S
O29 Cu23 1.974 . S
O29 C39 1.282 . S
C30 O31 1.261 . S
C30 O43 1.251 . S
O31 C30 1.261 . S
H32 C26 0.930 . S
H33 C28 0.930 . S
N34 Cu23 1.985 . S
N34 C36 1.335 . S
N34 C37 1.390 . S
N35 C36 1.345 . S
N35 C38 1.336 . S
C36 N34 1.335 . S
C36 N35 1.345 . S
C36 H41 0.930 . S
C37 N34 1.390 . S
C37 C38 1.346 . S
C37 H42 0.930 . S
C38 N35 1.336 . S
C38 C37 1.346 . S
C38 H45 0.929 . S
C39 O29 1.282 . S
C39 O40 1.216 . S
O40 C39 1.216 . S
H41 C36 0.930 . S
H42 C37 0.930 . S
O43 Cu23 1.959 . S
O43 C30 1.251 . S
H44 C27 0.930 . S
H45 C38 0.929 . S
Cu46 N47 1.999 . S
Cu46 O52 1.974 . S
Cu46 N57 1.985 . S
Cu46 O66 1.959 . S
N47 Cu46 1.999 . S
N47 C49 1.263 . S
N47 C51 1.389 . S
N48 C49 1.358 . S
N48 C50 1.400 . S
C49 N47 1.263 . S
C49 N48 1.358 . S
C49 H55 0.930 . S
C50 N48 1.400 . S
C50 C51 1.351 . S
C50 H67 0.930 . S
C51 N47 1.389 . S
C51 C50 1.351 . S
C51 H56 0.930 . S
O52 Cu46 1.974 . S
O52 C62 1.282 . S
C53 O54 1.261 . S
C53 O66 1.251 . S
O54 C53 1.261 . S
H55 C49 0.930 . S
H56 C51 0.930 . S
N57 Cu46 1.985 . S
N57 C59 1.335 . S
N57 C60 1.390 . S
N58 C59 1.345 . S
N58 C61 1.336 . S
C59 N57 1.335 . S
C59 N58 1.345 . S
C59 H64 0.930 . S
C60 N57 1.390 . S
C60 C61 1.346 . S
C60 H65 0.930 . S
C61 N58 1.336 . S
C61 C60 1.346 . S
C61 H68 0.929 . S
C62 O52 1.282 . S
C62 O63 1.216 . S
O63 C62 1.216 . S
H64 C59 0.930 . S
H65 C60 0.930 . S
O66 Cu46 1.959 . S
O66 C53 1.251 . S
H67 C50 0.930 . S
H68 C61 0.929 . S
Cu69 N70 1.999 . S
Cu69 O75 1.974 . S
Cu69 N80 1.985 . S
Cu69 O89 1.959 . S
N70 Cu69 1.999 . S
N70 C72 1.263 . S
N70 C74 1.389 . S
N71 C72 1.358 . S
N71 C73 1.400 . S
C72 N70 1.263 . S
C72 N71 1.358 . S
C72 H78 0.930 . S
C73 N71 1.400 . S
C73 C74 1.351 . S
C73 H90 0.930 . S
C74 N70 1.389 . S
C74 C73 1.351 . S
C74 H79 0.930 . S
O75 Cu69 1.974 . S
O75 C85 1.282 . S
C76 O77 1.261 . S
C76 O89 1.251 . S
O77 C76 1.261 . S
H78 C72 0.930 . S
H79 C74 0.930 . S
N80 Cu69 1.985 . S
N80 C82 1.335 . S
N80 C83 1.390 . S
N81 C82 1.345 . S
N81 C84 1.336 . S
C82 N80 1.335 . S
C82 N81 1.345 . S
C82 H87 0.930 . S
C83 N80 1.390 . S
C83 C84 1.346 . S
C83 H88 0.930 . S
C84 N81 1.336 . S
C84 C83 1.346 . S
C84 H91 0.929 . S
C85 O75 1.282 . S
C85 O86 1.216 . S
O86 C85 1.216 . S
H87 C82 0.930 . S
H88 C83 0.930 . S
O89 Cu69 1.959 . S
O89 C76 1.251 . S
H90 C73 0.930 . S
H91 C84 0.929 . S
Cu92 N93 1.999 . S
Cu92 O98 1.974 . S
Cu92 N103 1.985 . S
Cu92 O112 1.959 . S
N93 Cu92 1.999 . S
N93 C95 1.263 . S
N93 C97 1.389 . S
N94 C95 1.358 . S
N94 C96 1.400 . S
C95 N93 1.263 . S
C95 N94 1.358 . S
C95 H101 0.930 . S
C96 N94 1.400 . S
C96 C97 1.351 . S
C96 H113 0.930 . S
C97 N93 1.389 . S
C97 C96 1.351 . S
C97 H102 0.930 . S
O98 Cu92 1.974 . S
O98 C108 1.282 . S
C99 O100 1.261 . S
C99 O112 1.251 . S
O100 C99 1.261 . S
H101 C95 0.930 . S
H102 C97 0.930 . S
N103 Cu92 1.985 . S
N103 C105 1.335 . S
N103 C106 1.390 . S
N104 C105 1.345 . S
N104 C107 1.336 . S
C105 N103 1.335 . S
C105 N104 1.345 . S
C105 H110 0.930 . S
C106 N103 1.390 . S
C106 C107 1.346 . S
C106 H111 0.930 . S
C107 N104 1.336 . S
C107 C106 1.346 . S
C107 H114 0.929 . S
C108 O98 1.282 . S
C108 O109 1.216 . S
O109 C108 1.216 . S
H110 C105 0.930 . S
H111 C106 0.930 . S
O112 Cu92 1.959 . S
O112 C99 1.251 . S
H113 C96 0.930 . S
H114 C107 0.929 . S
Cu115 N116 1.999 . S
Cu115 O121 1.974 . S
Cu115 N126 1.985 . S
Cu115 O135 1.959 . S
N116 Cu115 1.999 . S
N116 C118 1.263 . S
N116 C120 1.389 . S
N117 C118 1.358 . S
N117 C119 1.400 . S
C118 N116 1.263 . S
C118 N117 1.358 . S
C118 H124 0.930 . S
C119 N117 1.400 . S
C119 C120 1.351 . S
C119 H136 0.930 . S
C120 N116 1.389 . S
C120 C119 1.351 . S
C120 H125 0.930 . S
O121 Cu115 1.974 . S
O121 C131 1.282 . S
C122 O123 1.261 . S
C122 O135 1.251 . S
O123 C122 1.261 . S
H124 C118 0.930 . S
H125 C120 0.930 . S
N126 Cu115 1.985 . S
N126 C128 1.335 . S
N126 C129 1.390 . S
N127 C128 1.345 . S
N127 C130 1.336 . S
C128 N126 1.335 . S
C128 N127 1.345 . S
C128 H133 0.930 . S
C129 N126 1.390 . S
C129 C130 1.346 . S
C129 H134 0.930 . S
C130 N127 1.336 . S
C130 C129 1.346 . S
C130 H137 0.929 . S
C131 O121 1.282 . S
C131 O132 1.216 . S
O132 C131 1.216 . S
H133 C128 0.930 . S
H134 C129 0.930 . S
O135 Cu115 1.959 . S
O135 C122 1.251 . S
H136 C119 0.930 . S
H137 C130 0.929 . S
Cu138 N139 1.999 . S
Cu138 O144 1.974 . S
Cu138 N149 1.985 . S
Cu138 O158 1.959 . S
N139 Cu138 1.999 . S
N139 C141 1.263 . S
N139 C143 1.389 . S
N140 C141 1.358 . S
N140 C142 1.400 . S
C141 N139 1.263 . S
C141 N140 1.358 . S
C141 H147 0.930 . S
C142 N140 1.400 . S
C142 C143 1.351 . S
C142 H159 0.930 . S
C143 N139 1.389 . S
C143 C142 1.351 . S
C143 H148 0.930 . S
O144 Cu138 1.974 . S
O144 C154 1.282 . S
C145 O146 1.261 . S
C145 O158 1.251 . S
O146 C145 1.261 . S
H147 C141 0.930 . S
H148 C143 0.930 . S
N149 Cu138 1.985 . S
N149 C151 1.335 . S
N149 C152 1.390 . S
N150 C151 1.345 . S
N150 C153 1.336 . S
C151 N149 1.335 . S
C151 N150 1.345 . S
C151 H156 0.930 . S
C152 N149 1.390 . S
C152 C153 1.346 . S
C152 H157 0.930 . S
C153 N150 1.336 . S
C153 C152 1.346 . S
C153 H160 0.929 . S
C154 O144 1.282 . S
C154 O155 1.216 . S
O155 C154 1.216 . S
H156 C151 0.930 . S
H157 C152 0.930 . S
O158 Cu138 1.959 . S
O158 C145 1.251 . S
H159 C142 0.930 . S
H160 C153 0.929 . S
Cu161 N162 1.999 . S
Cu161 O167 1.974 . S
Cu161 N172 1.985 . S
Cu161 O181 1.959 . S
N162 Cu161 1.999 . S
N162 C164 1.263 . S
N162 C166 1.389 . S
N163 C164 1.358 . S
N163 C165 1.400 . S
C164 N162 1.263 . S
C164 N163 1.358 . S
C164 H170 0.930 . S
C165 N163 1.400 . S
C165 C166 1.351 . S
C165 H182 0.930 . S
C166 N162 1.389 . S
C166 C165 1.351 . S
C166 H171 0.930 . S
O167 Cu161 1.974 . S
O167 C177 1.282 . S
C168 O169 1.261 . S
C168 O181 1.251 . S
O169 C168 1.261 . S
H170 C164 0.930 . S
H171 C166 0.930 . S
N172 Cu161 1.985 . S
N172 C174 1.335 . S
N172 C175 1.390 . S
N173 C174 1.345 . S
N173 C176 1.336 . S
C174 N172 1.335 . S
C174 N173 1.345 . S
C174 H179 0.930 . S
C175 N172 1.390 . S
C175 C176 1.346 . S
C175 H180 0.930 . S
C176 N173 1.336 . S
C176 C175 1.346 . S
C176 H183 0.929 . S
C177 O167 1.282 . S
C177 O178 1.216 . S
O178 C177 1.216 . S
H179 C174 0.930 . S
H180 C175 0.930 . S
O181 Cu161 1.959 . S
O181 C168 1.251 . S
H182 C165 0.930 . S
H183 C176 0.929 . S
Cu184 N185 1.999 . S
Cu184 O190 1.974 . S
Cu184 N195 1.985 . S
Cu184 O204 1.959 . S
N185 Cu184 1.999 . S
N185 C187 1.263 . S
N185 C189 1.389 . S
N186 C187 1.358 . S
N186 C188 1.400 . S
C187 N185 1.263 . S
C187 N186 1.358 . S
C187 H193 0.930 . S
C188 N186 1.400 . S
C188 C189 1.351 . S
C188 H205 0.930 . S
C189 N185 1.389 . S
C189 C188 1.351 . S
C189 H194 0.930 . S
O190 Cu184 1.974 . S
O190 C200 1.282 . S
C191 O192 1.261 . S
C191 O204 1.251 . S
O192 C191 1.261 . S
H193 C187 0.930 . S
H194 C189 0.930 . S
N195 Cu184 1.985 . S
N195 C197 1.335 . S
N195 C198 1.390 . S
N196 C197 1.345 . S
N196 C199 1.336 . S
C197 N195 1.335 . S
C197 N196 1.345 . S
C197 H202 0.930 . S
C198 N195 1.390 . S
C198 C199 1.346 . S
C198 H203 0.930 . S
C199 N196 1.336 . S
C199 C198 1.346 . S
C199 H206 0.929 . S
C200 O190 1.282 . S
C200 O201 1.216 . S
O201 C200 1.216 . S
H202 C197 0.930 . S
H203 C198 0.930 . S
O204 Cu184 1.959 . S
O204 C191 1.251 . S
H205 C188 0.930 . S
H206 C199 0.929 . S
Cu207 N208 1.999 . S
Cu207 O213 1.974 . S
Cu207 N218 1.985 . S
Cu207 O227 1.959 . S
N208 Cu207 1.999 . S
N208 C210 1.263 . S
N208 C212 1.389 . S
N209 C210 1.358 . S
N209 C211 1.400 . S
C210 N208 1.263 . S
C210 N209 1.358 . S
C210 H216 0.930 . S
C211 N209 1.400 . S
C211 C212 1.351 . S
C211 H228 0.930 . S
C212 N208 1.389 . S
C212 C211 1.351 . S
C212 H217 0.930 . S
O213 Cu207 1.974 . S
O213 C223 1.282 . S
C214 O215 1.261 . S
C214 O227 1.251 . S
O215 C214 1.261 . S
H216 C210 0.930 . S
H217 C212 0.930 . S
N218 Cu207 1.985 . S
N218 C220 1.335 . S
N218 C221 1.390 . S
N219 C220 1.345 . S
N219 C222 1.336 . S
C220 N218 1.335 . S
C220 N219 1.345 . S
C220 H225 0.930 . S
C221 N218 1.390 . S
C221 C222 1.346 . S
C221 H226 0.930 . S
C222 N219 1.336 . S
C222 C221 1.346 . S
C222 H229 0.929 . S
C223 O213 1.282 . S
C223 O224 1.216 . S
O224 C223 1.216 . S
H225 C220 0.930 . S
H226 C221 0.930 . S
O227 Cu207 1.959 . S
O227 C214 1.251 . S
H228 C211 0.930 . S
H229 C222 0.929 . S
Cu230 N231 1.999 . S
Cu230 O236 1.974 . S
Cu230 N241 1.985 . S
Cu230 O250 1.959 . S
N231 Cu230 1.999 . S
N231 C233 1.263 . S
N231 C235 1.389 . S
N232 C233 1.358 . S
N232 C234 1.400 . S
C233 N231 1.263 . S
C233 N232 1.358 . S
C233 H239 0.930 . S
C234 N232 1.400 . S
C234 C235 1.351 . S
C234 H251 0.930 . S
C235 N231 1.389 . S
C235 C234 1.351 . S
C235 H240 0.930 . S
O236 Cu230 1.974 . S
O236 C246 1.282 . S
C237 O238 1.261 . S
C237 O250 1.251 . S
O238 C237 1.261 . S
H239 C233 0.930 . S
H240 C235 0.930 . S
N241 Cu230 1.985 . S
N241 C243 1.335 . S
N241 C244 1.390 . S
N242 C243 1.345 . S
N242 C245 1.336 . S
C243 N241 1.335 . S
C243 N242 1.345 . S
C243 H248 0.930 . S
C244 N241 1.390 . S
C244 C245 1.346 . S
C244 H249 0.930 . S
C245 N242 1.336 . S
C245 C244 1.346 . S
C245 H252 0.929 . S
C246 O236 1.282 . S
C246 O247 1.216 . S
O247 C246 1.216 . S
H248 C243 0.930 . S
H249 C244 0.930 . S
O250 Cu230 1.959 . S
O250 C237 1.251 . S
H251 C234 0.930 . S
H252 C245 0.929 . S
Cu253 N254 1.999 . S
Cu253 O259 1.974 . S
Cu253 N264 1.985 . S
Cu253 O273 1.959 . S
N254 Cu253 1.999 . S
N254 C256 1.263 . S
N254 C258 1.389 . S
N255 C256 1.358 . S
N255 C257 1.400 . S
C256 N254 1.263 . S
C256 N255 1.358 . S
C256 H262 0.930 . S
C257 N255 1.400 . S
C257 C258 1.351 . S
C257 H274 0.930 . S
C258 N254 1.389 . S
C258 C257 1.351 . S
C258 H263 0.930 . S
O259 Cu253 1.974 . S
O259 C269 1.282 . S
C260 O261 1.261 . S
C260 O273 1.251 . S
O261 C260 1.261 . S
H262 C256 0.930 . S
H263 C258 0.930 . S
N264 Cu253 1.985 . S
N264 C266 1.335 . S
N264 C267 1.390 . S
N265 C266 1.345 . S
N265 C268 1.336 . S
C266 N264 1.335 . S
C266 N265 1.345 . S
C266 H271 0.930 . S
C267 N264 1.390 . S
C267 C268 1.346 . S
C267 H272 0.930 . S
C268 N265 1.336 . S
C268 C267 1.346 . S
C268 H275 0.929 . S
C269 O259 1.282 . S
C269 O270 1.216 . S
O270 C269 1.216 . S
H271 C266 0.930 . S
H272 C267 0.930 . S
O273 Cu253 1.959 . S
O273 C260 1.251 . S
H274 C257 0.930 . S
H275 C268 0.929 . S
Cu276 N277 1.999 . S
Cu276 O282 1.974 . S
Cu276 N287 1.985 . S
Cu276 O296 1.959 . S
N277 Cu276 1.999 . S
N277 C279 1.263 . S
N277 C281 1.389 . S
N278 C279 1.358 . S
N278 C280 1.400 . S
C279 N277 1.263 . S
C279 N278 1.358 . S
C279 H285 0.930 . S
C280 N278 1.400 . S
C280 C281 1.351 . S
C280 H297 0.930 . S
C281 N277 1.389 . S
C281 C280 1.351 . S
C281 H286 0.930 . S
O282 Cu276 1.974 . S
O282 C292 1.282 . S
C283 O284 1.261 . S
C283 O296 1.251 . S
O284 C283 1.261 . S
H285 C279 0.930 . S
H286 C281 0.930 . S
N287 Cu276 1.985 . S
N287 C289 1.335 . S
N287 C290 1.390 . S
N288 C289 1.345 . S
N288 C291 1.336 . S
C289 N287 1.335 . S
C289 N288 1.345 . S
C289 H294 0.930 . S
C290 N287 1.390 . S
C290 C291 1.346 . S
C290 H295 0.930 . S
C291 N288 1.336 . S
C291 C290 1.346 . S
C291 H298 0.929 . S
C292 O282 1.282 . S
C292 O293 1.216 . S
O293 C292 1.216 . S
H294 C289 0.930 . S
H295 C290 0.930 . S
O296 Cu276 1.959 . S
O296 C283 1.251 . S
H297 C280 0.930 . S
H298 C291 0.929 . S
Cu299 N300 1.999 . S
Cu299 O305 1.974 . S
Cu299 N310 1.985 . S
Cu299 O319 1.959 . S
N300 Cu299 1.999 . S
N300 C302 1.263 . S
N300 C304 1.389 . S
N301 C302 1.358 . S
N301 C303 1.400 . S
C302 N300 1.263 . S
C302 N301 1.358 . S
C302 H308 0.930 . S
C303 N301 1.400 . S
C303 C304 1.351 . S
C303 H320 0.930 . S
C304 N300 1.389 . S
C304 C303 1.351 . S
C304 H309 0.930 . S
O305 Cu299 1.974 . S
O305 C315 1.282 . S
C306 O307 1.261 . S
C306 O319 1.251 . S
O307 C306 1.261 . S
H308 C302 0.930 . S
H309 C304 0.930 . S
N310 Cu299 1.985 . S
N310 C312 1.335 . S
N310 C313 1.390 . S
N311 C312 1.345 . S
N311 C314 1.336 . S
C312 N310 1.335 . S
C312 N311 1.345 . S
C312 H317 0.930 . S
C313 N310 1.390 . S
C313 C314 1.346 . S
C313 H318 0.930 . S
C314 N311 1.336 . S
C314 C313 1.346 . S
C314 H321 0.929 . S
C315 O305 1.282 . S
C315 O316 1.216 . S
O316 C315 1.216 . S
H317 C312 0.930 . S
H318 C313 0.930 . S
O319 Cu299 1.959 . S
O319 C306 1.251 . S
H320 C303 0.930 . S
H321 C314 0.929 . S
Cu322 N323 1.999 . S
Cu322 O328 1.974 . S
Cu322 N333 1.985 . S
Cu322 O342 1.959 . S
N323 Cu322 1.999 . S
N323 C325 1.263 . S
N323 C327 1.389 . S
N324 C325 1.358 . S
N324 C326 1.400 . S
C325 N323 1.263 . S
C325 N324 1.358 . S
C325 H331 0.930 . S
C326 N324 1.400 . S
C326 C327 1.351 . S
C326 H343 0.930 . S
C327 N323 1.389 . S
C327 C326 1.351 . S
C327 H332 0.930 . S
O328 Cu322 1.974 . S
O328 C338 1.282 . S
C329 O330 1.261 . S
C329 O342 1.251 . S
O330 C329 1.261 . S
H331 C325 0.930 . S
H332 C327 0.930 . S
N333 Cu322 1.985 . S
N333 C335 1.335 . S
N333 C336 1.390 . S
N334 C335 1.345 . S
N334 C337 1.336 . S
C335 N333 1.335 . S
C335 N334 1.345 . S
C335 H340 0.930 . S
C336 N333 1.390 . S
C336 C337 1.346 . S
C336 H341 0.930 . S
C337 N334 1.336 . S
C337 C336 1.346 . S
C337 H344 0.929 . S
C338 O328 1.282 . S
C338 O339 1.216 . S
O339 C338 1.216 . S
H340 C335 0.930 . S
H341 C336 0.930 . S
O342 Cu322 1.959 . S
O342 C329 1.251 . S
H343 C326 0.930 . S
H344 C337 0.929 . S
Cu345 N346 1.999 . S
Cu345 O351 1.974 . S
Cu345 N356 1.985 . S
Cu345 O365 1.959 . S
N346 Cu345 1.999 . S
N346 C348 1.263 . S
N346 C350 1.389 . S
N347 C348 1.358 . S
N347 C349 1.400 . S
C348 N346 1.263 . S
C348 N347 1.358 . S
C348 H354 0.930 . S
C349 N347 1.400 . S
C349 C350 1.351 . S
C349 H366 0.930 . S
C350 N346 1.389 . S
C350 C349 1.351 . S
C350 H355 0.930 . S
O351 Cu345 1.974 . S
O351 C361 1.282 . S
C352 O353 1.261 . S
C352 O365 1.251 . S
O353 C352 1.261 . S
H354 C348 0.930 . S
H355 C350 0.930 . S
N356 Cu345 1.985 . S
N356 C358 1.335 . S
N356 C359 1.390 . S
N357 C358 1.345 . S
N357 C360 1.336 . S
C358 N356 1.335 . S
C358 N357 1.345 . S
C358 H363 0.930 . S
C359 N356 1.390 . S
C359 C360 1.346 . S
C359 H364 0.930 . S
C360 N357 1.336 . S
C360 C359 1.346 . S
C360 H367 0.929 . S
C361 O351 1.282 . S
C361 O362 1.216 . S
O362 C361 1.216 . S
H363 C358 0.930 . S
H364 C359 0.930 . S
O365 Cu345 1.959 . S
O365 C352 1.251 . S
H366 C349 0.930 . S
H367 C360 0.929 . S
Cu368 N369 1.999 . S
Cu368 O374 1.974 . S
Cu368 N379 1.985 . S
Cu368 O388 1.959 . S
N369 Cu368 1.999 . S
N369 C371 1.263 . S
N369 C373 1.389 . S
N370 C371 1.358 . S
N370 C372 1.400 . S
C371 N369 1.263 . S
C371 N370 1.358 . S
C371 H377 0.930 . S
C372 N370 1.400 . S
C372 C373 1.351 . S
C372 H389 0.930 . S
C373 N369 1.389 . S
C373 C372 1.351 . S
C373 H378 0.930 . S
O374 Cu368 1.974 . S
O374 C384 1.282 . S
C375 O376 1.261 . S
C375 O388 1.251 . S
O376 C375 1.261 . S
H377 C371 0.930 . S
H378 C373 0.930 . S
N379 Cu368 1.985 . S
N379 C381 1.335 . S
N379 C382 1.390 . S
N380 C381 1.345 . S
N380 C383 1.336 . S
C381 N379 1.335 . S
C381 N380 1.345 . S
C381 H386 0.930 . S
C382 N379 1.390 . S
C382 C383 1.346 . S
C382 H387 0.930 . S
C383 N380 1.336 . S
C383 C382 1.346 . S
C383 H390 0.929 . S
C384 O374 1.282 . S
C384 O385 1.216 . S
O385 C384 1.216 . S
H386 C381 0.930 . S
H387 C382 0.930 . S
O388 Cu368 1.959 . S
O388 C375 1.251 . S
H389 C372 0.930 . S
H390 C383 0.929 . S
Cu391 N392 1.999 . S
Cu391 O397 1.974 . S
Cu391 N402 1.985 . S
Cu391 O411 1.959 . S
N392 Cu391 1.999 . S
N392 C394 1.263 . S
N392 C396 1.389 . S
N393 C394 1.358 . S
N393 C395 1.400 . S
C394 N392 1.263 . S
C394 N393 1.358 . S
C394 H400 0.930 . S
C395 N393 1.400 . S
C395 C396 1.351 . S
C395 H412 0.930 . S
C396 N392 1.389 . S
C396 C395 1.351 . S
C396 H401 0.930 . S
O397 Cu391 1.974 . S
O397 C407 1.282 . S
C398 O399 1.261 . S
C398 O411 1.251 . S
O399 C398 1.261 . S
H400 C394 0.930 . S
H401 C396 0.930 . S
N402 Cu391 1.985 . S
N402 C404 1.335 . S
N402 C405 1.390 . S
N403 C404 1.345 . S
N403 C406 1.336 . S
C404 N402 1.335 . S
C404 N403 1.345 . S
C404 H409 0.930 . S
C405 N402 1.390 . S
C405 C406 1.346 . S
C405 H410 0.930 . S
C406 N403 1.336 . S
C406 C405 1.346 . S
C406 H413 0.929 . S
C407 O397 1.282 . S
C407 O408 1.216 . S
O408 C407 1.216 . S
H409 C404 0.930 . S
H410 C405 0.930 . S
O411 Cu391 1.959 . S
O411 C398 1.251 . S
H412 C395 0.930 . S
H413 C406 0.929 . S
Cu414 N415 1.999 . S
Cu414 O420 1.974 . S
Cu414 N425 1.985 . S
Cu414 O434 1.959 . S
N415 Cu414 1.999 . S
N415 C417 1.263 . S
N415 C419 1.389 . S
N416 C417 1.358 . S
N416 C418 1.400 . S
C417 N415 1.263 . S
C417 N416 1.358 . S
C417 H423 0.930 . S
C418 N416 1.400 . S
C418 C419 1.351 . S
C418 H435 0.930 . S
C419 N415 1.389 . S
C419 C418 1.351 . S
C419 H424 0.930 . S
O420 Cu414 1.974 . S
O420 C430 1.282 . S
C421 O422 1.261 . S
C421 O434 1.251 . S
O422 C421 1.261 . S
H423 C417 0.930 . S
H424 C419 0.930 . S
N425 Cu414 1.985 . S
N425 C427 1.335 . S
N425 C428 1.390 . S
N426 C427 1.345 . S
N426 C429 1.336 . S
C427 N425 1.335 . S
C427 N426 1.345 . S
C427 H432 0.930 . S
C428 N425 1.390 . S
C428 C429 1.346 . S
C428 H433 0.930 . S
C429 N426 1.336 . S
C429 C428 1.346 . S
C429 H436 0.929 . S
C430 O420 1.282 . S
C430 O431 1.216 . S
O431 C430 1.216 . S
H432 C427 0.930 . S
H433 C428 0.930 . S
O434 Cu414 1.959 . S
O434 C421 1.251 . S
H435 C418 0.930 . S
H436 C429 0.929 . S
Cu437 N438 1.999 . S
Cu437 O443 1.974 . S
Cu437 N448 1.985 . S
Cu437 O457 1.959 . S
N438 Cu437 1.999 . S
N438 C440 1.263 . S
N438 C442 1.389 . S
N439 C440 1.358 . S
N439 C441 1.400 . S
C440 N438 1.263 . S
C440 N439 1.358 . S
C440 H446 0.930 . S
C441 N439 1.400 . S
C441 C442 1.351 . S
C441 H458 0.930 . S
C442 N438 1.389 . S
C442 C441 1.351 . S
C442 H447 0.930 . S
O443 Cu437 1.974 . S
O443 C453 1.282 . S
C444 O445 1.261 . S
C444 O457 1.251 . S
O445 C444 1.261 . S
H446 C440 0.930 . S
H447 C442 0.930 . S
N448 Cu437 1.985 . S
N448 C450 1.335 . S
N448 C451 1.390 . S
N449 C450 1.345 . S
N449 C452 1.336 . S
C450 N448 1.335 . S
C450 N449 1.345 . S
C450 H455 0.930 . S
C451 N448 1.390 . S
C451 C452 1.346 . S
C451 H456 0.930 . S
C452 N449 1.336 . S
C452 C451 1.346 . S
C452 H459 0.929 . S
C453 O443 1.282 . S
C453 O454 1.216 . S
O454 C453 1.216 . S
H455 C450 0.930 . S
H456 C451 0.930 . S
O457 Cu437 1.959 . S
O457 C444 1.251 . S
H458 C441 0.930 . S
H459 C452 0.929 . S
Cu460 N461 1.999 . S
Cu460 O466 1.974 . S
Cu460 N471 1.985 . S
Cu460 O480 1.959 . S
N461 Cu460 1.999 . S
N461 C463 1.263 . S
N461 C465 1.389 . S
N462 C463 1.358 . S
N462 C464 1.400 . S
C463 N461 1.263 . S
C463 N462 1.358 . S
C463 H469 0.930 . S
C464 N462 1.400 . S
C464 C465 1.351 . S
C464 H481 0.930 . S
C465 N461 1.389 . S
C465 C464 1.351 . S
C465 H470 0.930 . S
O466 Cu460 1.974 . S
O466 C476 1.282 . S
C467 O468 1.261 . S
C467 O480 1.251 . S
O468 C467 1.261 . S
H469 C463 0.930 . S
H470 C465 0.930 . S
N471 Cu460 1.985 . S
N471 C473 1.335 . S
N471 C474 1.390 . S
N472 C473 1.345 . S
N472 C475 1.336 . S
C473 N471 1.335 . S
C473 N472 1.345 . S
C473 H478 0.930 . S
C474 N471 1.390 . S
C474 C475 1.346 . S
C474 H479 0.930 . S
C475 N472 1.336 . S
C475 C474 1.346 . S
C475 H482 0.929 . S
C476 O466 1.282 . S
C476 O477 1.216 . S
O477 C476 1.216 . S
H478 C473 0.930 . S
H479 C474 0.930 . S
O480 Cu460 1.959 . S
O480 C467 1.251 . S
H481 C464 0.930 . S
H482 C475 0.929 . S
Cu483 N484 1.999 . S
Cu483 O489 1.974 . S
Cu483 N494 1.985 . S
Cu483 O503 1.959 . S
N484 Cu483 1.999 . S
N484 C486 1.263 . S
N484 C488 1.389 . S
N485 C486 1.358 . S
N485 C487 1.400 . S
C486 N484 1.263 . S
C486 N485 1.358 . S
C486 H492 0.930 . S
C487 N485 1.400 . S
C487 C488 1.351 . S
C487 H504 0.930 . S
C488 N484 1.389 . S
C488 C487 1.351 . S
C488 H493 0.930 . S
O489 Cu483 1.974 . S
O489 C499 1.282 . S
C490 O491 1.261 . S
C490 O503 1.251 . S
O491 C490 1.261 . S
H492 C486 0.930 . S
H493 C488 0.930 . S
N494 Cu483 1.985 . S
N494 C496 1.335 . S
N494 C497 1.390 . S
N495 C496 1.345 . S
N495 C498 1.336 . S
C496 N494 1.335 . S
C496 N495 1.345 . S
C496 H501 0.930 . S
C497 N494 1.390 . S
C497 C498 1.346 . S
C497 H502 0.930 . S
C498 N495 1.336 . S
C498 C497 1.346 . S
C498 H505 0.929 . S
C499 O489 1.282 . S
C499 O500 1.216 . S
O500 C499 1.216 . S
H501 C496 0.930 . S
H502 C497 0.930 . S
O503 Cu483 1.959 . S
O503 C490 1.251 . S
H504 C487 0.930 . S
H505 C498 0.929 . S
Cu506 N507 1.999 . S
Cu506 O512 1.974 . S
Cu506 N517 1.985 . S
Cu506 O526 1.959 . S
N507 Cu506 1.999 . S
N507 C509 1.263 . S
N507 C511 1.389 . S
N508 C509 1.358 . S
N508 C510 1.400 . S
C509 N507 1.263 . S
C509 N508 1.358 . S
C509 H515 0.930 . S
C510 N508 1.400 . S
C510 C511 1.351 . S
C510 H527 0.930 . S
C511 N507 1.389 . S
C511 C510 1.351 . S
C511 H516 0.930 . S
O512 Cu506 1.974 . S
O512 C522 1.282 . S
C513 O514 1.261 . S
C513 O526 1.251 . S
O514 C513 1.261 . S
H515 C509 0.930 . S
H516 C511 0.930 . S
N517 Cu506 1.985 . S
N517 C519 1.335 . S
N517 C520 1.390 . S
N518 C519 1.345 . S
N518 C521 1.336 . S
C519 N517 1.335 . S
C519 N518 1.345 . S
C519 H524 0.930 . S
C520 N517 1.390 . S
C520 C521 1.346 . S
C520 H525 0.930 . S
C521 N518 1.336 . S
C521 C520 1.346 . S
C521 H528 0.929 . S
C522 O512 1.282 . S
C522 O523 1.216 . S
O523 C522 1.216 . S
H524 C519 0.930 . S
H525 C520 0.930 . S
O526 Cu506 1.959 . S
O526 C513 1.251 . S
H527 C510 0.930 . S
H528 C521 0.929 . S
Cu529 N530 1.999 . S
Cu529 O535 1.974 . S
Cu529 N540 1.985 . S
Cu529 O549 1.959 . S
N530 Cu529 1.999 . S
N530 C532 1.263 . S
N530 C534 1.389 . S
N531 C532 1.358 . S
N531 C533 1.400 . S
C532 N530 1.263 . S
C532 N531 1.358 . S
C532 H538 0.930 . S
C533 N531 1.400 . S
C533 C534 1.351 . S
C533 H550 0.930 . S
C534 N530 1.389 . S
C534 C533 1.351 . S
C534 H539 0.930 . S
O535 Cu529 1.974 . S
O535 C545 1.282 . S
C536 O537 1.261 . S
C536 O549 1.251 . S
O537 C536 1.261 . S
H538 C532 0.930 . S
H539 C534 0.930 . S
N540 Cu529 1.985 . S
N540 C542 1.335 . S
N540 C543 1.390 . S
N541 C542 1.345 . S
N541 C544 1.336 . S
C542 N540 1.335 . S
C542 N541 1.345 . S
C542 H547 0.930 . S
C543 N540 1.390 . S
C543 C544 1.346 . S
C543 H548 0.930 . S
C544 N541 1.336 . S
C544 C543 1.346 . S
C544 H551 0.929 . S
C545 O535 1.282 . S
C545 O546 1.216 . S
O546 C545 1.216 . S
H547 C542 0.930 . S
H548 C543 0.930 . S
O549 Cu529 1.959 . S
O549 C536 1.251 . S
H550 C533 0.930 . S
H551 C544 0.929 . S
C552 C553 1.369 . S
C552 C554 1.419 . S
C552 H556 0.930 . S
C553 C552 1.369 . S
C553 C562 1.429 . S
C554 C552 1.419 . S
C554 C555 1.363 . S
C554 H557 0.929 . S
C555 C554 1.363 . S
C555 C561 1.428 . S
H556 C552 0.930 . S
H557 C554 0.929 . S
S558 N559 1.613 . S
S558 N560 1.610 . S
N559 S558 1.613 . S
N559 C562 1.350 . S
N560 S558 1.610 . S
N560 C561 1.351 . S
C561 C555 1.428 . S
C561 N560 1.351 . S
C561 C562 1.434 . S
C562 C553 1.429 . S
C562 N559 1.350 . S
C562 C561 1.434 . S
C563 C564 1.369 . S
C563 C565 1.419 . S
C563 H567 0.930 . S
C564 C563 1.369 . S
C564 C573 1.429 . S
C565 C563 1.419 . S
C565 C566 1.363 . S
C565 H568 0.929 . S
C566 C565 1.363 . S
C566 C572 1.428 . S
H567 C563 0.930 . S
H568 C565 0.929 . S
S569 N570 1.613 . S
S569 N571 1.610 . S
N570 S569 1.613 . S
N570 C573 1.350 . S
N571 S569 1.610 . S
N571 C572 1.351 . S
C572 C566 1.428 . S
C572 N571 1.351 . S
C572 C573 1.434 . S
C573 C564 1.429 . S
C573 N570 1.350 . S
C573 C572 1.434 . S
C574 C575 1.369 . S
C574 C576 1.419 . S
C574 H578 0.930 . S
C575 C574 1.369 . S
C575 C584 1.429 . S
C576 C574 1.419 . S
C576 C577 1.363 . S
C576 H579 0.929 . S
C577 C576 1.363 . S
C577 C583 1.428 . S
H578 C574 0.930 . S
H579 C576 0.929 . S
S580 N581 1.613 . S
S580 N582 1.610 . S
N581 S580 1.613 . S
N581 C584 1.350 . S
N582 S580 1.610 . S
N582 C583 1.351 . S
C583 C577 1.428 . S
C583 N582 1.351 . S
C583 C584 1.434 . S
C584 C575 1.429 . S
C584 N581 1.350 . S
C584 C583 1.434 . S
C585 C586 1.369 . S
C585 C587 1.419 . S
C585 H589 0.930 . S
C586 C585 1.369 . S
C586 C595 1.429 . S
C587 C585 1.419 . S
C587 C588 1.363 . S
C587 H590 0.929 . S
C588 C587 1.363 . S
C588 C594 1.428 . S
H589 C585 0.930 . S
H590 C587 0.929 . S
S591 N592 1.613 . S
S591 N593 1.610 . S
N592 S591 1.613 . S
N592 C595 1.350 . S
N593 S591 1.610 . S
N593 C594 1.351 . S
C594 C588 1.428 . S
C594 N593 1.351 . S
C594 C595 1.434 . S
C595 C586 1.429 . S
C595 N592 1.350 . S
C595 C594 1.434 . S
C596 C597 1.369 . S
C596 C598 1.419 . S
C596 H600 0.930 . S
C597 C596 1.369 . S
C597 C606 1.429 . S
C598 C596 1.419 . S
C598 C599 1.363 . S
C598 H601 0.929 . S
C599 C598 1.363 . S
C599 C605 1.428 . S
H600 C596 0.930 . S
H601 C598 0.929 . S
S602 N603 1.613 . S
S602 N604 1.610 . S
N603 S602 1.613 . S
N603 C606 1.350 . S
N604 S602 1.610 . S
N604 C605 1.351 . S
C605 C599 1.428 . S
C605 N604 1.351 . S
C605 C606 1.434 . S
C606 C597 1.429 . S
C606 N603 1.350 . S
C606 C605 1.434 . S
C607 C608 1.369 . S
C607 C609 1.419 . S
C607 H611 0.930 . S
C608 C607 1.369 . S
C608 C617 1.429 . S
C609 C607 1.419 . S
C609 C610 1.363 . S
C609 H612 0.929 . S
C610 C609 1.363 . S
C610 C616 1.428 . S
H611 C607 0.930 . S
H612 C609 0.929 . S
S613 N614 1.613 . S
S613 N615 1.610 . S
N614 S613 1.613 . S
N614 C617 1.350 . S
N615 S613 1.610 . S
N615 C616 1.351 . S
C616 C610 1.428 . S
C616 N615 1.351 . S
C616 C617 1.434 . S
C617 C608 1.429 . S
C617 N614 1.350 . S
C617 C616 1.434 . S
C618 C619 1.369 . S
C618 C620 1.419 . S
C618 H622 0.930 . S
C619 C618 1.369 . S
C619 C628 1.429 . S
C620 C618 1.419 . S
C620 C621 1.363 . S
C620 H623 0.929 . S
C621 C620 1.363 . S
C621 C627 1.428 . S
H622 C618 0.930 . S
H623 C620 0.929 . S
S624 N625 1.613 . S
S624 N626 1.610 . S
N625 S624 1.613 . S
N625 C628 1.350 . S
N626 S624 1.610 . S
N626 C627 1.351 . S
C627 C621 1.428 . S
C627 N626 1.351 . S
C627 C628 1.434 . S
C628 C619 1.429 . S
C628 N625 1.350 . S
C628 C627 1.434 . S
C629 C630 1.369 . S
C629 C631 1.419 . S
C629 H633 0.930 . S
C630 C629 1.369 . S
C630 C639 1.429 . S
C631 C629 1.419 . S
C631 C632 1.363 . S
C631 H634 0.929 . S
C632 C631 1.363 . S
C632 C638 1.428 . S
H633 C629 0.930 . S
H634 C631 0.929 . S
S635 N636 1.613 . S
S635 N637 1.610 . S
N636 S635 1.613 . S
N636 C639 1.350 . S
N637 S635 1.610 . S
N637 C638 1.351 . S
C638 C632 1.428 . S
C638 N637 1.351 . S
C638 C639 1.434 . S
C639 C630 1.429 . S
C639 N636 1.350 . S
C639 C638 1.434 . S
C640 C641 1.369 . S
C640 C642 1.419 . S
C640 H644 0.930 . S
C641 C640 1.369 . S
C641 C650 1.429 . S
C642 C640 1.419 . S
C642 C643 1.363 . S
C642 H645 0.929 . S
C643 C642 1.363 . S
C643 C649 1.428 . S
H644 C640 0.930 . S
H645 C642 0.929 . S
S646 N647 1.613 . S
S646 N648 1.610 . S
N647 S646 1.613 . S
N647 C650 1.350 . S
N648 S646 1.610 . S
N648 C649 1.351 . S
C649 C643 1.428 . S
C649 N648 1.351 . S
C649 C650 1.434 . S
C650 C641 1.429 . S
C650 N647 1.350 . S
C650 C649 1.434 . S
C651 C652 1.369 . S
C651 C653 1.419 . S
C651 H655 0.930 . S
C652 C651 1.369 . S
C652 C661 1.429 . S
C653 C651 1.419 . S
C653 C654 1.363 . S
C653 H656 0.929 . S
C654 C653 1.363 . S
C654 C660 1.428 . S
H655 C651 0.930 . S
H656 C653 0.929 . S
S657 N658 1.613 . S
S657 N659 1.610 . S
N658 S657 1.613 . S
N658 C661 1.350 . S
N659 S657 1.610 . S
N659 C660 1.351 . S
C660 C654 1.428 . S
C660 N659 1.351 . S
C660 C661 1.434 . S
C661 C652 1.429 . S
C661 N658 1.350 . S
C661 C660 1.434 . S
C662 C663 1.369 . S
C662 C664 1.419 . S
C662 H666 0.930 . S
C663 C662 1.369 . S
C663 C672 1.429 . S
C664 C662 1.419 . S
C664 C665 1.363 . S
C664 H667 0.929 . S
C665 C664 1.363 . S
C665 C671 1.428 . S
H666 C662 0.930 . S
H667 C664 0.929 . S
S668 N669 1.613 . S
S668 N670 1.610 . S
N669 S668 1.613 . S
N669 C672 1.350 . S
N670 S668 1.610 . S
N670 C671 1.351 . S
C671 C665 1.428 . S
C671 N670 1.351 . S
C671 C672 1.434 . S
C672 C663 1.429 . S
C672 N669 1.350 . S
C672 C671 1.434 . S
C673 C674 1.369 . S
C673 C675 1.419 . S
C673 H677 0.930 . S
C674 C673 1.369 . S
C674 C683 1.429 . S
C675 C673 1.419 . S
C675 C676 1.363 . S
C675 H678 0.929 . S
C676 C675 1.363 . S
C676 C682 1.428 . S
H677 C673 0.930 . S
H678 C675 0.929 . S
S679 N680 1.613 . S
S679 N681 1.610 . S
N680 S679 1.613 . S
N680 C683 1.350 . S
N681 S679 1.610 . S
N681 C682 1.351 . S
C682 C676 1.428 . S
C682 N681 1.351 . S
C682 C683 1.434 . S
C683 C674 1.429 . S
C683 N680 1.350 . S
C683 C682 1.434 . S
C684 C685 1.369 . S
C684 C686 1.419 . S
C684 H688 0.930 1_545 S
C685 C684 1.369 . S
C685 C694 1.429 . S
C686 C684 1.419 . S
C686 C687 1.363 . S
C686 H689 0.929 . S
C687 C686 1.363 . S
C687 C693 1.428 . S
H688 C684 0.930 1_565 S
H689 C686 0.929 . S
S690 N691 1.613 . S
S690 N692 1.610 . S
N691 S690 1.613 . S
N691 C694 1.350 . S
N692 S690 1.610 . S
N692 C693 1.351 . S
C693 C687 1.428 . S
C693 N692 1.351 . S
C693 C694 1.434 . S
C694 C685 1.429 . S
C694 N691 1.350 . S
C694 C693 1.434 . S
C695 C696 1.369 . S
C695 C697 1.419 . S
C695 H699 0.930 1_455 S
C696 C695 1.369 . S
C696 C705 1.429 . S
C697 C695 1.419 . S
C697 C698 1.363 . S
C697 H700 0.929 . S
C698 C697 1.363 . S
C698 C704 1.428 . S
H699 C695 0.930 1_655 S
H700 C697 0.929 . S
S701 N702 1.613 . S
S701 N703 1.610 . S
N702 S701 1.613 . S
N702 C705 1.350 . S
N703 S701 1.610 . S
N703 C704 1.351 . S
C704 C698 1.428 . S
C704 N703 1.351 . S
C704 C705 1.434 . S
C705 C696 1.429 . S
C705 N702 1.350 . S
C705 C704 1.434 . S
C706 C707 1.369 1_565 S
C706 C708 1.419 . S
C706 H710 0.930 . S
C707 C706 1.369 1_545 S
C707 C716 1.429 . S
C708 C706 1.419 . S
C708 C709 1.363 . S
C708 H711 0.929 . S
C709 C708 1.363 . S
C709 C715 1.428 1_565 S
H710 C706 0.930 . S
H711 C708 0.929 . S
S712 N713 1.613 . S
S712 N714 1.610 . S
N713 S712 1.613 . S
N713 C716 1.350 . S
N714 S712 1.610 . S
N714 C715 1.351 . S
C715 C709 1.428 1_545 S
C715 N714 1.351 . S
C715 C716 1.434 . S
C716 C707 1.429 . S
C716 N713 1.350 . S
C716 C715 1.434 . S
C717 C718 1.369 . S
C717 C719 1.419 . S
C717 H721 0.930 . S
C718 C717 1.369 . S
C718 C727 1.429 1_655 S
C719 C717 1.419 . S
C719 C720 1.363 . S
C719 H722 0.929 . S
C720 C719 1.363 . S
C720 C726 1.428 . S
H721 C717 0.930 . S
H722 C719 0.929 . S
S723 N724 1.613 . S
S723 N725 1.610 . S
N724 S723 1.613 . S
N724 C727 1.350 . S
N725 S723 1.610 . S
N725 C726 1.351 1_455 S
C726 C720 1.428 . S
C726 N725 1.351 1_655 S
C726 C727 1.434 1_655 S
C727 C718 1.429 1_455 S
C727 N724 1.350 . S
C727 C726 1.434 1_455 S
C728 C729 1.369 . S
C728 C730 1.419 . S
C728 H732 0.930 . S
C729 C728 1.369 . S
C729 C738 1.429 . S
C730 C728 1.419 . S
C730 C731 1.363 1_565 S
C730 H733 0.929 . S
C731 C730 1.363 1_545 S
C731 C737 1.428 . S
H732 C728 0.930 . S
H733 C730 0.929 . S
S734 N735 1.613 1_545 S
S734 N736 1.610 . S
N735 S734 1.613 1_565 S
N735 C738 1.350 . S
N736 S734 1.610 . S
N736 C737 1.351 . S
C737 C731 1.428 . S
C737 N736 1.351 . S
C737 C738 1.434 1_545 S
C738 C729 1.429 . S
C738 N735 1.350 . S
C738 C737 1.434 1_565 S
C739 C740 1.369 . S
C739 C741 1.419 . S
C739 H743 0.930 . S
C740 C739 1.369 . S
C740 C749 1.429 . S
C741 C739 1.419 . S
C741 C742 1.363 . S
C741 H744 0.929 1_655 S
C742 C741 1.363 . S
C742 C748 1.428 . S
H743 C739 0.930 . S
H744 C741 0.929 1_455 S
S745 N746 1.613 . S
S745 N747 1.610 . S
N746 S745 1.613 . S
N746 C749 1.350 . S
N747 S745 1.610 . S
N747 C748 1.351 . S
C748 C742 1.428 . S
C748 N747 1.351 . S
C748 C749 1.434 . S
C749 C740 1.429 . S
C749 N746 1.350 . S
C749 C748 1.434 . S
C750 C751 1.369 . S
C750 C752 1.419 . S
C750 H754 0.930 . S
C751 C750 1.369 . S
C751 C760 1.429 1_565 S
C752 C750 1.419 . S
C752 C753 1.363 1_565 S
C752 H755 0.929 . S
C753 C752 1.363 1_545 S
C753 C759 1.428 . S
H754 C750 0.930 . S
H755 C752 0.929 . S
S756 N757 1.613 . S
S756 N758 1.610 . S
N757 S756 1.613 . S
N757 C760 1.350 . S
N758 S756 1.610 . S
N758 C759 1.351 . S
C759 C753 1.428 . S
C759 N758 1.351 . S
C759 C760 1.434 . S
C760 C751 1.429 1_545 S
C760 N757 1.350 . S
C760 C759 1.434 . S
C761 C762 1.369 . S
C761 C763 1.419 . S
C761 H765 0.930 . S
C762 C761 1.369 . S
C762 C771 1.435 . S
C763 C761 1.419 . S
C763 C764 1.363 . S
C763 H766 0.929 . S
C764 C763 1.363 . S
C764 C770 1.428 1_455 S
H765 C761 0.930 . S
H766 C763 0.929 . S
S767 N768 1.613 . S
S767 N769 1.610 . S
N768 S767 1.613 . S
N768 C771 1.345 1_655 S
N769 S767 1.610 . S
N769 C770 1.351 . S
C770 C764 1.428 1_655 S
C770 N769 1.351 . S
C770 C771 1.431 1_655 S
C771 C762 1.435 . S
C771 N768 1.345 1_455 S
C771 C770 1.431 1_455 S
C772 C773 1.369 1_554 S
C772 C774 1.419 . S
C772 H776 0.930 . S
C773 C772 1.369 1_556 S
C773 C782 1.429 1_556 S
C774 C772 1.419 . S
C774 C775 1.363 . S
C774 H777 0.929 . S
C775 C774 1.363 . S
C775 C781 1.428 . S
H776 C772 0.930 . S
H777 C774 0.929 . S
S778 N779 1.613 1_554 S
S778 N780 1.610 . S
N779 S778 1.613 1_556 S
N779 C782 1.350 1_556 S
N780 S778 1.610 . S
N780 C781 1.351 . S
C781 C775 1.428 . S
C781 N780 1.351 . S
C781 C782 1.434 . S
C782 C773 1.429 1_554 S
C782 N779 1.350 1_554 S
C782 C781 1.434 . S
C783 C784 1.369 . S
C783 C785 1.419 . S
C783 H787 0.930 . S
C784 C783 1.369 . S
C784 C793 1.429 . S
C785 C783 1.419 . S
C785 C786 1.363 . S
C785 H788 0.929 . S
C786 C785 1.363 . S
C786 C792 1.428 . S
H787 C783 0.930 . S
H788 C785 0.929 . S
S789 N790 1.611 1_556 S
S789 N791 1.610 . S
N790 S789 1.611 1_554 S
N790 C793 1.345 1_554 S
N791 S789 1.610 . S
N791 C792 1.351 . S
C792 C786 1.428 . S
C792 N791 1.351 . S
C792 C793 1.434 . S
C793 C784 1.429 . S
C793 N790 1.345 1_556 S
C793 C792 1.434 . S
C794 C795 1.369 . S
C794 C796 1.419 1_556 S
C794 H798 0.930 . S
C795 C794 1.369 . S
C795 C804 1.429 1_556 S
C796 C794 1.419 1_554 S
C796 C797 1.363 . S
C796 H799 0.929 . S
C797 C796 1.363 . S
C797 C803 1.428 . S
H798 C794 0.930 . S
H799 C796 0.929 . S
S800 N801 1.613 . S
S800 N802 1.610 . S
N801 S800 1.613 . S
N801 C804 1.350 . S
N802 S800 1.610 . S
N802 C803 1.351 . S
C803 C797 1.428 . S
C803 N802 1.351 . S
C803 C804 1.434 . S
C804 C795 1.429 1_554 S
C804 N801 1.350 . S
C804 C803 1.434 . S
C805 C806 1.369 . S
C805 C807 1.419 . S
C805 H809 0.930 . S
C806 C805 1.369 . S
C806 C815 1.429 1_556 S
C807 C805 1.419 . S
C807 C808 1.363 . S
C807 H810 0.929 . S
C808 C807 1.363 . S
C808 C814 1.428 1_556 S
H809 C805 0.930 . S
H810 C807 0.929 . S
S811 N812 1.613 . S
S811 N813 1.610 . S
N812 S811 1.613 . S
N812 C815 1.350 . S
N813 S811 1.610 . S
N813 C814 1.351 . S
C814 C808 1.428 1_554 S
C814 N813 1.351 . S
C814 C815 1.434 . S
C815 C806 1.429 1_554 S
C815 N812 1.350 . S
C815 C814 1.434 . S
C816 C817 1.369 . S
C816 C818 1.419 . S
C816 H820 0.930 . S
C817 C816 1.369 . S
C817 C826 1.429 . S
C818 C816 1.419 . S
C818 C819 1.363 . S
C818 H821 0.929 . S
C819 C818 1.363 . S
C819 C825 1.428 . S
H820 C816 0.930 . S
H821 C818 0.929 . S
S822 N823 1.613 . S
S822 N824 1.610 . S
N823 S822 1.613 . S
N823 C826 1.350 . S
N824 S822 1.610 . S
N824 C825 1.351 . S
C825 C819 1.428 . S
C825 N824 1.351 . S
C825 C826 1.434 . S
C826 C817 1.429 . S
C826 N823 1.350 . S
C826 C825 1.434 . S
C827 C828 1.369 . S
C827 C829 1.419 . S
C827 H831 0.930 . S
C828 C827 1.369 . S
C828 C837 1.429 . S
C829 C827 1.419 . S
C829 C830 1.363 . S
C829 H832 0.929 . S
C830 C829 1.363 . S
C830 C836 1.428 . S
H831 C827 0.930 . S
H832 C829 0.929 . S
S833 N834 1.613 . S
S833 N835 1.610 . S
N834 S833 1.613 . S
N834 C837 1.350 . S
N835 S833 1.610 . S
N835 C836 1.351 . S
C836 C830 1.428 . S
C836 N835 1.351 . S
C836 C837 1.434 . S
C837 C828 1.429 . S
C837 N834 1.350 . S
C837 C836 1.434 . S
C838 C839 1.369 . S
C838 C840 1.419 . S
C838 H842 0.930 . S
C839 C838 1.369 . S
C839 C848 1.429 . S
C840 C838 1.419 . S
C840 C841 1.363 . S
C840 H843 0.929 . S
C841 C840 1.363 . S
C841 C847 1.428 . S
H842 C838 0.930 . S
H843 C840 0.929 . S
S844 N845 1.613 . S
S844 N846 1.610 . S
N845 S844 1.613 . S
N845 C848 1.350 . S
N846 S844 1.610 . S
N846 C847 1.351 . S
C847 C841 1.428 . S
C847 N846 1.351 . S
C847 C848 1.434 . S
C848 C839 1.429 . S
C848 N845 1.350 . S
C848 C847 1.434 . S
C849 C850 1.369 . S
C849 C851 1.419 . S
C849 H853 0.930 . S
C850 C849 1.369 . S
C850 C859 1.429 . S
C851 C849 1.419 . S
C851 C852 1.363 . S
C851 H854 0.929 . S
C852 C851 1.363 . S
C852 C858 1.428 . S
H853 C849 0.930 . S
H854 C851 0.929 . S
S855 N856 1.613 . S
S855 N857 1.610 . S
N856 S855 1.613 . S
N856 C859 1.350 . S
N857 S855 1.610 . S
N857 C858 1.351 . S
C858 C852 1.428 . S
C858 N857 1.351 . S
C858 C859 1.434 . S
C859 C850 1.429 . S
C859 N856 1.350 . S
C859 C858 1.434 . S
C860 C861 1.369 . S
C860 C862 1.419 . S
C860 H864 0.930 . S
C861 C860 1.369 . S
C861 C870 1.429 . S
C862 C860 1.419 . S
C862 C863 1.363 . S
C862 H865 0.929 . S
C863 C862 1.363 . S
C863 C869 1.428 . S
H864 C860 0.930 . S
H865 C862 0.929 . S
S866 N867 1.613 . S
S866 N868 1.610 . S
N867 S866 1.613 . S
N867 C870 1.350 . S
N868 S866 1.610 . S
N868 C869 1.351 . S
C869 C863 1.428 . S
C869 N868 1.351 . S
C869 C870 1.434 . S
C870 C861 1.429 . S
C870 N867 1.350 . S
C870 C869 1.434 . S
C871 C872 1.369 . S
C871 C873 1.419 . S
C871 H875 0.930 . S
C872 C871 1.369 . S
C872 C881 1.429 . S
C873 C871 1.419 . S
C873 C874 1.363 . S
C873 H876 0.929 . S
C874 C873 1.363 . S
C874 C880 1.428 . S
H875 C871 0.930 . S
H876 C873 0.929 . S
S877 N878 1.613 . S
S877 N879 1.610 . S
N878 S877 1.613 . S
N878 C881 1.350 . S
N879 S877 1.610 . S
N879 C880 1.351 . S
C880 C874 1.428 . S
C880 N879 1.351 . S
C880 C881 1.434 . S
C881 C872 1.429 . S
C881 N878 1.350 . S
C881 C880 1.434 . S
C882 C883 1.369 . S
C882 C884 1.419 . S
C882 H886 0.930 . S
C883 C882 1.369 . S
C883 C892 1.429 . S
C884 C882 1.419 . S
C884 C885 1.363 . S
C884 H887 0.929 . S
C885 C884 1.363 . S
C885 C891 1.428 . S
H886 C882 0.930 . S
H887 C884 0.929 . S
S888 N889 1.613 . S
S888 N890 1.610 . S
N889 S888 1.613 . S
N889 C892 1.350 . S
N890 S888 1.610 . S
N890 C891 1.351 . S
C891 C885 1.428 . S
C891 N890 1.351 . S
C891 C892 1.434 . S
C892 C883 1.429 . S
C892 N889 1.350 . S
C892 C891 1.434 . S
C893 C894 1.369 . S
C893 C895 1.419 . S
C893 H897 0.930 . S
C894 C893 1.369 . S
C894 C903 1.429 . S
C895 C893 1.419 . S
C895 C896 1.363 . S
C895 H898 0.929 . S
C896 C895 1.363 . S
C896 C902 1.428 . S
H897 C893 0.930 . S
H898 C895 0.929 . S
S899 N900 1.613 . S
S899 N901 1.610 . S
N900 S899 1.613 . S
N900 C903 1.350 . S
N901 S899 1.610 . S
N901 C902 1.351 . S
C902 C896 1.428 . S
C902 N901 1.351 . S
C902 C903 1.434 . S
C903 C894 1.429 . S
C903 N900 1.350 . S
C903 C902 1.434 . S
C904 C905 1.369 . S
C904 C906 1.419 . S
C904 H908 0.930 . S
C905 C904 1.369 . S
C905 C914 1.429 . S
C906 C904 1.419 . S
C906 C907 1.363 . S
C906 H909 0.929 . S
C907 C906 1.363 . S
C907 C913 1.428 . S
H908 C904 0.930 . S
H909 C906 0.929 . S
S910 N911 1.613 . S
S910 N912 1.610 . S
N911 S910 1.613 . S
N911 C914 1.350 . S
N912 S910 1.610 . S
N912 C913 1.351 . S
C913 C907 1.428 . S
C913 N912 1.351 . S
C913 C914 1.434 . S
C914 C905 1.429 . S
C914 N911 1.350 . S
C914 C913 1.434 . S
C915 C916 1.369 . S
C915 C917 1.419 . S
C915 H919 0.930 . S
C916 C915 1.369 . S
C916 C925 1.429 . S
C917 C915 1.419 . S
C917 C918 1.363 . S
C917 H920 0.929 . S
C918 C917 1.363 . S
C918 C924 1.428 . S
H919 C915 0.930 . S
H920 C917 0.929 . S
S921 N922 1.613 . S
S921 N923 1.610 . S
N922 S921 1.613 . S
N922 C925 1.350 . S
N923 S921 1.610 . S
N923 C924 1.351 . S
C924 C918 1.428 . S
C924 N923 1.351 . S
C924 C925 1.434 . S
C925 C916 1.429 . S
C925 N922 1.350 . S
C925 C924 1.434 . S
C926 C927 1.369 . S
C926 C928 1.419 . S
C926 H930 0.930 . S
C927 C926 1.369 . S
C927 C936 1.429 . S
C928 C926 1.419 . S
C928 C929 1.363 . S
C928 H931 0.929 . S
C929 C928 1.363 . S
C929 C935 1.428 . S
H930 C926 0.930 . S
H931 C928 0.929 . S
S932 N933 1.613 . S
S932 N934 1.610 . S
N933 S932 1.613 . S
N933 C936 1.350 . S
N934 S932 1.610 . S
N934 C935 1.351 . S
C935 C929 1.428 . S
C935 N934 1.351 . S
C935 C936 1.434 . S
C936 C927 1.429 . S
C936 N933 1.350 . S
C936 C935 1.434 . S
C937 C938 1.369 . S
C937 C939 1.419 . S
C937 H941 0.930 . S
C938 C937 1.369 . S
C938 C947 1.429 . S
C939 C937 1.419 . S
C939 C940 1.363 . S
C939 H942 0.929 . S
C940 C939 1.363 . S
C940 C946 1.428 . S
H941 C937 0.930 . S
H942 C939 0.929 . S
S943 N944 1.613 . S
S943 N945 1.610 . S
N944 S943 1.613 . S
N944 C947 1.350 . S
N945 S943 1.610 . S
N945 C946 1.351 . S
C946 C940 1.428 . S
C946 N945 1.351 . S
C946 C947 1.434 . S
C947 C938 1.429 . S
C947 N944 1.350 . S
C947 C946 1.434 . S
C948 C949 1.369 . S
C948 C950 1.419 . S
C948 H952 0.930 . S
C949 C948 1.369 . S
C949 C958 1.429 . S
C950 C948 1.419 . S
C950 C951 1.363 . S
C950 H953 0.929 . S
C951 C950 1.363 . S
C951 C957 1.428 . S
H952 C948 0.930 . S
H953 C950 0.929 . S
S954 N955 1.613 . S
S954 N956 1.610 . S
N955 S954 1.613 . S
N955 C958 1.350 . S
N956 S954 1.610 . S
N956 C957 1.351 . S
C957 C951 1.428 . S
C957 N956 1.351 . S
C957 C958 1.434 . S
C958 C949 1.429 . S
C958 N955 1.350 . S
C958 C957 1.434 . S
C959 C960 1.369 . S
C959 C961 1.419 . S
C959 H963 0.930 . S
C960 C959 1.369 . S
C960 C969 1.429 . S
C961 C959 1.419 . S
C961 C962 1.363 . S
C961 H964 0.929 . S
C962 C961 1.363 . S
C962 C968 1.428 . S
H963 C959 0.930 . S
H964 C961 0.929 . S
S965 N966 1.613 . S
S965 N967 1.610 . S
N966 S965 1.613 . S
N966 C969 1.350 . S
N967 S965 1.610 . S
N967 C968 1.351 . S
C968 C962 1.428 . S
C968 N967 1.351 . S
C968 C969 1.434 . S
C969 C960 1.429 . S
C969 N966 1.350 . S
C969 C968 1.434 . S
C970 C971 1.369 . S
C970 C972 1.419 . S
C970 H974 0.930 . S
C971 C970 1.369 . S
C971 C980 1.429 . S
C972 C970 1.419 . S
C972 C973 1.363 . S
C972 H975 0.929 . S
C973 C972 1.363 . S
C973 C979 1.428 . S
H974 C970 0.930 . S
H975 C972 0.929 . S
S976 N977 1.613 . S
S976 N978 1.610 . S
N977 S976 1.613 . S
N977 C980 1.350 . S
N978 S976 1.610 . S
N978 C979 1.351 . S
C979 C973 1.428 . S
C979 N978 1.351 . S
C979 C980 1.434 . S
C980 C971 1.429 . S
C980 N977 1.350 . S
C980 C979 1.434 . S
C981 C982 1.369 . S
C981 C983 1.419 . S
C981 H985 0.930 . S
C982 C981 1.369 . S
C982 C991 1.429 . S
C983 C981 1.419 . S
C983 C984 1.363 . S
C983 H986 0.929 . S
C984 C983 1.363 . S
C984 C990 1.428 . S
H985 C981 0.930 . S
H986 C983 0.929 . S
S987 N988 1.613 . S
S987 N989 1.610 . S
N988 S987 1.613 . S
N988 C991 1.350 . S
N989 S987 1.610 . S
N989 C990 1.351 . S
C990 C984 1.428 . S
C990 N989 1.351 . S
C990 C991 1.434 . S
C991 C982 1.429 . S
C991 N988 1.350 . S
C991 C990 1.434 . S
C992 C993 1.369 . S
C992 C994 1.419 . S
C992 H996 0.930 . S
C993 C992 1.369 . S
C993 C1002 1.429 . S
C994 C992 1.419 . S
C994 C995 1.363 . S
C994 H997 0.929 . S
C995 C994 1.363 . S
C995 C1001 1.428 . S
H996 C992 0.930 . S
H997 C994 0.929 . S
S998 N999 1.613 . S
S998 N1000 1.610 . S
N999 S998 1.613 . S
N999 C1002 1.350 . S
N1000 S998 1.610 . S
N1000 C1001 1.351 . S
C1001 C995 1.428 . S
C1001 N1000 1.351 . S
C1001 C1002 1.434 . S
C1002 C993 1.429 . S
C1002 N999 1.350 . S
C1002 C1001 1.434 . S
C1003 C1004 1.369 . S
C1003 C1005 1.419 . S
C1003 H1007 0.930 . S
C1004 C1003 1.369 . S
C1004 C1013 1.429 . S
C1005 C1003 1.419 . S
C1005 C1006 1.363 . S
C1005 H1008 0.929 . S
C1006 C1005 1.363 . S
C1006 C1012 1.428 . S
H1007 C1003 0.930 . S
H1008 C1005 0.929 . S
S1009 N1010 1.613 . S
S1009 N1011 1.610 . S
N1010 S1009 1.613 . S
N1010 C1013 1.350 . S
N1011 S1009 1.610 . S
N1011 C1012 1.351 . S
C1012 C1006 1.428 . S
C1012 N1011 1.351 . S
C1012 C1013 1.434 . S
C1013 C1004 1.429 . S
C1013 N1010 1.350 . S
C1013 C1012 1.434 . S
C1014 C1015 1.369 . S
C1014 C1016 1.419 . S
C1014 H1018 0.930 . S
C1015 C1014 1.369 . S
C1015 C1024 1.429 . S
C1016 C1014 1.419 . S
C1016 C1017 1.363 . S
C1016 H1019 0.929 . S
C1017 C1016 1.363 . S
C1017 C1023 1.428 . S
H1018 C1014 0.930 . S
H1019 C1016 0.929 . S
S1020 N1021 1.613 . S
S1020 N1022 1.610 . S
N1021 S1020 1.613 . S
N1021 C1024 1.350 . S
N1022 S1020 1.610 . S
N1022 C1023 1.351 . S
C1023 C1017 1.428 . S
C1023 N1022 1.351 . S
C1023 C1024 1.434 . S
C1024 C1015 1.429 . S
C1024 N1021 1.350 . S
C1024 C1023 1.434 . S
C1025 C1026 1.369 . S
C1025 C1027 1.419 . S
C1025 H1029 0.930 . S
C1026 C1025 1.369 . S
C1026 C1035 1.429 . S
C1027 C1025 1.419 . S
C1027 C1028 1.363 . S
C1027 H1030 0.929 . S
C1028 C1027 1.363 . S
C1028 C1034 1.428 . S
H1029 C1025 0.930 . S
H1030 C1027 0.929 . S
S1031 N1032 1.613 . S
S1031 N1033 1.610 . S
N1032 S1031 1.613 . S
N1032 C1035 1.350 . S
N1033 S1031 1.610 . S
N1033 C1034 1.351 . S
C1034 C1028 1.428 . S
C1034 N1033 1.351 . S
C1034 C1035 1.434 . S
C1035 C1026 1.429 . S
C1035 N1032 1.350 . S
C1035 C1034 1.434 . S
C1036 C1037 1.369 . S
C1036 C1038 1.419 . S
C1036 H1040 0.930 . S
C1037 C1036 1.369 . S
C1037 C1046 1.429 . S
C1038 C1036 1.419 . S
C1038 C1039 1.363 . S
C1038 H1041 0.929 . S
C1039 C1038 1.363 . S
C1039 C1045 1.428 . S
H1040 C1036 0.930 . S
H1041 C1038 0.929 . S
S1042 N1043 1.613 . S
S1042 N1044 1.610 . S
N1043 S1042 1.613 . S
N1043 C1046 1.350 . S
N1044 S1042 1.610 . S
N1044 C1045 1.351 . S
C1045 C1039 1.428 . S
C1045 N1044 1.351 . S
C1045 C1046 1.434 . S
C1046 C1037 1.429 . S
C1046 N1043 1.350 . S
C1046 C1045 1.434 . S
C1047 C1048 1.369 . S
C1047 C1049 1.419 . S
C1047 H1051 0.930 . S
C1048 C1047 1.369 . S
C1048 C1057 1.429 . S
C1049 C1047 1.419 . S
C1049 C1050 1.363 . S
C1049 H1052 0.929 . S
C1050 C1049 1.363 . S
C1050 C1056 1.428 . S
H1051 C1047 0.930 . S
H1052 C1049 0.929 . S
S1053 N1054 1.613 . S
S1053 N1055 1.610 . S
N1054 S1053 1.613 . S
N1054 C1057 1.350 . S
N1055 S1053 1.610 . S
N1055 C1056 1.351 . S
C1056 C1050 1.428 . S
C1056 N1055 1.351 . S
C1056 C1057 1.434 . S
C1057 C1048 1.429 . S
C1057 N1054 1.350 . S
C1057 C1056 1.434 . S
C1058 C1059 1.369 . S
C1058 C1060 1.419 . S
C1058 H1062 0.930 . S
C1059 C1058 1.369 . S
C1059 C1068 1.429 . S
C1060 C1058 1.419 . S
C1060 C1061 1.363 . S
C1060 H1063 0.929 . S
C1061 C1060 1.363 . S
C1061 C1067 1.428 . S
H1062 C1058 0.930 . S
H1063 C1060 0.929 . S
S1064 N1065 1.613 . S
S1064 N1066 1.610 . S
N1065 S1064 1.613 . S
N1065 C1068 1.350 . S
N1066 S1064 1.610 . S
N1066 C1067 1.351 . S
C1067 C1061 1.428 . S
C1067 N1066 1.351 . S
C1067 C1068 1.434 . S
C1068 C1059 1.429 . S
C1068 N1065 1.350 . S
C1068 C1067 1.434 . S
C1069 C1070 1.369 . S
C1069 C1071 1.419 . S
C1069 H1073 0.930 . S
C1070 C1069 1.369 . S
C1070 C1079 1.429 . S
C1071 C1069 1.419 . S
C1071 C1072 1.363 . S
C1071 H1074 0.929 . S
C1072 C1071 1.363 . S
C1072 C1078 1.428 . S
H1073 C1069 0.930 . S
H1074 C1071 0.929 . S
S1075 N1076 1.613 . S
S1075 N1077 1.610 . S
N1076 S1075 1.613 . S
N1076 C1079 1.350 . S
N1077 S1075 1.610 . S
N1077 C1078 1.351 . S
C1078 C1072 1.428 . S
C1078 N1077 1.351 . S
C1078 C1079 1.434 . S
C1079 C1070 1.429 . S
C1079 N1076 1.350 . S
C1079 C1078 1.434 . S
C553 C522 1.917 . S
C555 N12 2.046 . S
C564 C39 2.024 . S
C566 N380 2.109 . S
C575 C545 1.879 . S
C577 N58 2.004 . S
C586 N495 2.045 . S
C588 N81 2.050 . S
C597 N426 2.142 . S
C599 N104 2.131 . S
C608 C453 2.286 . S
C610 N127 2.227 . S
C619 N472 2.252 . S
C621 C154 2.300 . S
C630 C177 2.034 . S
C632 C407 2.211 . S
C641 C315 2.240 . S
C643 C200 2.379 . S
C652 N334 2.025 . S
C654 N219 2.059 . S
C663 C246 2.379 . S
C665 C361 2.249 . S
C674 N265 2.106 . S
C676 N288 2.077 . S
C685 N173 2.147 1_545 S
C687 C338 2.021 . S
C696 N357 2.144 1_455 S
C698 C108 2.059 . S
C707 C131 2.156 . S
C709 C292 1.971 . S
C718 N311 2.051 1_655 S
C720 N150 2.061 . S
C729 N242 2.105 . S
C731 N35 2.093 . S
C740 C62 1.981 . S
C742 C269 2.197 1_655 S
C751 C85 2.217 . S
C753 N196 2.168 . S
C762 C16 2.032 . S
C764 C223 2.195 1_455 S
C773 C476 2.310 . S
C775 C499 2.207 . S
C784 N518 1.992 1_556 S
C786 N403 2.018 . S
C795 C430 2.404 . S
C797 C384 2.259 . S
C806 N541 2.021 1_556 S
C808 N449 2.054 . S
C817 N2 1.152 . S
C819 N186 1.181 . S
C828 C214 1.729 . S
C830 C30 1.768 . S
C839 N48 1.143 . S
C841 N232 1.159 . S
C850 N71 1.355 . S
C852 C260 1.461 . S
C861 N94 1.406 . S
C863 C283 1.534 . S
C872 N117 1.225 . S
C874 N301 1.241 . S
C883 C329 1.793 . S
C885 C145 1.813 . S
C894 N347 1.463 . S
C896 C168 1.586 . S
C905 C191 1.910 . S
C907 C375 1.949 . S
C916 N209 1.168 . S
C918 N531 1.123 . S
C927 C490 1.913 . S
C929 C237 1.862 . S
C938 N508 1.189 . S
C940 N255 1.174 . S
C949 N393 1.260 . S
C951 N278 1.192 . S
C960 C421 1.915 . S
C962 C306 1.905 . S
C971 N324 1.174 . S
C973 N439 1.176 . S
C982 C352 1.895 . S
C984 C467 1.859 . S
C993 C7 1.605 . S
C995 N370 1.469 . S
C1004 C398 1.731 . S
C1006 C99 1.768 . S
C1015 N416 1.340 . S
C1017 C122 1.481 . S
C1026 C444 1.472 . S
C1028 N140 1.354 . S
C1037 N462 1.238 . S
C1039 N163 1.246 . S
C1048 N485 1.447 . S
C1050 C53 1.606 . S
C1059 C76 1.768 . S
C1061 C513 1.761 . S
C1070 C536 1.610 . S
C1072 N25 1.447 . S
