# Generated by pormake.
# Topology cbo, (4)-cn, num edge types: 1
# Building blocks:
#     Node 0, Type 0, BuildingBlock: TATPOV_clean_sbu_0, # of connection points: 4
#     Node 1, Type 0, BuildingBlock: TATPOV_clean_sbu_0, # of connection points: 4
#     Node 2, Type 0, BuildingBlock: TATPOV_clean_sbu_0, # of connection points: 4
#     Node 3, Type 0, BuildingBlock: TATPOV_clean_sbu_0, # of connection points: 4
#     Node 4, Type 0, BuildingBlock: TATPOV_clean_sbu_0, # of connection points: 4
#     Node 5, Type 0, BuildingBlock: TATPOV_clean_sbu_0, # of connection points: 4
#     Node 6, Type 0, BuildingBlock: TATPOV_clean_sbu_0, # of connection points: 4
#     Node 7, Type 0, BuildingBlock: TATPOV_clean_sbu_0, # of connection points: 4
#     Node 8, Type 0, BuildingBlock: TATPOV_clean_sbu_0, # of connection points: 4
#     Node 9, Type 0, BuildingBlock: TATPOV_clean_sbu_0, # of connection points: 4
#     Node 10, Type 0, BuildingBlock: TATPOV_clean_sbu_0, # of connection points: 4
#     Node 11, Type 0, BuildingBlock: TATPOV_clean_sbu_0, # of connection points: 4
#     Node 12, Type 0, BuildingBlock: TATPOV_clean_sbu_0, # of connection points: 4
#     Node 13, Type 0, BuildingBlock: TATPOV_clean_sbu_0, # of connection points: 4
#     Node 14, Type 0, BuildingBlock: TATPOV_clean_sbu_0, # of connection points: 4
#     Node 15, Type 0, BuildingBlock: TATPOV_clean_sbu_0, # of connection points: 4
#     Node 16, Type 0, BuildingBlock: TATPOV_clean_sbu_0, # of connection points: 4
#     Node 17, Type 0, BuildingBlock: TATPOV_clean_sbu_0, # of connection points: 4
#     Node 18, Type 0, BuildingBlock: TATPOV_clean_sbu_0, # of connection points: 4
#     Node 19, Type 0, BuildingBlock: TATPOV_clean_sbu_0, # of connection points: 4
#     Node 20, Type 0, BuildingBlock: TATPOV_clean_sbu_0, # of connection points: 4
#     Node 21, Type 0, BuildingBlock: TATPOV_clean_sbu_0, # of connection points: 4
#     Node 22, Type 0, BuildingBlock: TATPOV_clean_sbu_0, # of connection points: 4
#     Node 23, Type 0, BuildingBlock: TATPOV_clean_sbu_0, # of connection points: 4
#     Edge 24, Type (0, 0), None
#     Edge 25, Type (0, 0), None
#     Edge 26, Type (0, 0), None
#     Edge 27, Type (0, 0), None
#     Edge 28, Type (0, 0), None
#     Edge 29, Type (0, 0), None
#     Edge 30, Type (0, 0), None
#     Edge 31, Type (0, 0), None
#     Edge 32, Type (0, 0), None
#     Edge 33, Type (0, 0), None
#     Edge 34, Type (0, 0), None
#     Edge 35, Type (0, 0), None
#     Edge 36, Type (0, 0), None
#     Edge 37, Type (0, 0), None
#     Edge 38, Type (0, 0), None
#     Edge 39, Type (0, 0), None
#     Edge 40, Type (0, 0), None
#     Edge 41, Type (0, 0), None
#     Edge 42, Type (0, 0), None
#     Edge 43, Type (0, 0), None
#     Edge 44, Type (0, 0), None
#     Edge 45, Type (0, 0), None
#     Edge 46, Type (0, 0), None
#     Edge 47, Type (0, 0), None
#     Edge 48, Type (0, 0), None
#     Edge 49, Type (0, 0), None
#     Edge 50, Type (0, 0), None
#     Edge 51, Type (0, 0), None
#     Edge 52, Type (0, 0), None
#     Edge 53, Type (0, 0), None
#     Edge 54, Type (0, 0), None
#     Edge 55, Type (0, 0), None
#     Edge 56, Type (0, 0), None
#     Edge 57, Type (0, 0), None
#     Edge 58, Type (0, 0), None
#     Edge 59, Type (0, 0), None
#     Edge 60, Type (0, 0), None
#     Edge 61, Type (0, 0), None
#     Edge 62, Type (0, 0), None
#     Edge 63, Type (0, 0), None
#     Edge 64, Type (0, 0), None
#     Edge 65, Type (0, 0), None
#     Edge 66, Type (0, 0), None
#     Edge 67, Type (0, 0), None
#     Edge 68, Type (0, 0), None
#     Edge 69, Type (0, 0), None
#     Edge 70, Type (0, 0), None
#     Edge 71, Type (0, 0), None
# Relax obj value: 0.185
# Max RMSD: 0.264
# Mean RMSD: 0.247
data_MOF--net-cbo--node1-TATPOV_clean_sbu_0--edge1-none
_symmetry_space_group_name_H-M    P1
_symmetry_Int_Tables_number       1
_symmetry_cell_setting            triclinic
loop_
_symmetry_equiv_pos_as_xyz
'x, y, z'
_cell_length_a     23.264159
_cell_length_b     23.251833
_cell_length_c     22.151979
_cell_angle_alpha  89.99999
_cell_angle_beta   90.0
_cell_angle_gamma 90.0
loop_
_atom_site_label
_atom_site_type_symbol
_atom_site_fract_x
_atom_site_fract_y
_atom_site_fract_z
_atom_type_partial_charge
Zn0 Zn 0.1946 0.26413 0.45713 0.0
Zn1 Zn 0.14171 0.19072 0.39571 0.0
O2 O 0.13573 0.26906 0.35159 0.0
O3 O 0.17353 0.33487 0.40974 0.0
O4 O 0.07492 0.15113 0.35625 0.0
O5 O 0.15944 0.24801 0.5376 0.0
O6 O 0.12654 0.1734 0.48787 0.0
C7 C 0.14991 0.32118 0.36039 0.0
C8 C 0.26683 0.17964 0.38858 0.0
O9 O 0.21964 0.15933 0.36828 0.0
O10 O 0.26605 0.21965 0.42773 0.0
C11 C 0.0606 0.15936 0.30151 0.0
O12 O 0.09659 0.1846 0.26432 0.0
C13 C 0.13371 0.20021 0.53762 0.0
Zn14 Zn 0.30105 0.71726 0.95713 0.0
Zn15 Zn 0.35394 0.79066 0.89571 0.0
O16 O 0.35993 0.71232 0.85159 0.0
O17 O 0.32212 0.64651 0.90974 0.0
O18 O 0.42073 0.83026 0.85625 0.0
O19 O 0.33621 0.73337 0.0376 0.0
O20 O 0.36912 0.80798 0.98787 0.0
C21 C 0.34574 0.6602 0.86039 0.0
C22 C 0.22883 0.80174 0.88858 0.0
O23 O 0.27601 0.82205 0.86828 0.0
O24 O 0.2296 0.76173 0.92773 0.0
C25 C 0.43506 0.82202 0.80151 0.0
O26 O 0.39907 0.79678 0.76432 0.0
C27 C 0.36194 0.78117 0.03762 0.0
Zn28 Zn 0.6946 0.21726 0.57375 0.0
Zn29 Zn 0.64171 0.29066 0.63517 0.0
O30 O 0.63573 0.21232 0.67929 0.0
O31 O 0.67353 0.14651 0.62114 0.0
O32 O 0.57492 0.33026 0.67463 0.0
O33 O 0.65944 0.23338 0.49328 0.0
O34 O 0.62654 0.30799 0.54301 0.0
C35 C 0.64991 0.1602 0.67048 0.0
C36 C 0.76683 0.30174 0.6423 0.0
O37 O 0.71964 0.32205 0.6626 0.0
O38 O 0.76605 0.26173 0.60315 0.0
C39 C 0.5606 0.32202 0.72937 0.0
O40 O 0.59659 0.29678 0.76656 0.0
C41 C 0.63371 0.28117 0.49325 0.0
Zn42 Zn 0.80105 0.76413 0.07375 0.0
Zn43 Zn 0.85394 0.69072 0.13517 0.0
O44 O 0.85993 0.76906 0.17929 0.0
O45 O 0.82212 0.83487 0.12114 0.0
O46 O 0.92073 0.65113 0.17463 0.0
O47 O 0.83621 0.74801 0.99328 0.0
O48 O 0.86912 0.6734 0.04301 0.0
C49 C 0.84574 0.82118 0.17048 0.0
C50 C 0.72883 0.67964 0.1423 0.0
O51 O 0.77601 0.65933 0.1626 0.0
O52 O 0.7296 0.71965 0.10315 0.0
C53 C 0.93506 0.65936 0.22937 0.0
O54 O 0.89907 0.6846 0.26656 0.0
C55 C 0.86194 0.70021 0.99325 0.0
Zn56 Zn 0.41321 0.21948 0.30441 0.0
Zn57 Zn 0.36958 0.16417 0.2215 0.0
O58 O 0.31883 0.15708 0.2996 0.0
O59 O 0.3655 0.19595 0.37507 0.0
O60 O 0.34425 0.09338 0.17481 0.0
O61 O 0.49545 0.19873 0.29823 0.0
O62 O 0.46006 0.16536 0.21321 0.0
C63 C 0.32099 0.17128 0.35518 0.0
C64 C 0.35012 0.28596 0.20954 0.0
O65 O 0.33887 0.23775 0.18474 0.0
O66 O 0.38204 0.28794 0.25606 0.0
C67 C 0.29117 0.08093 0.17032 0.0
O68 O 0.2528 0.11924 0.18693 0.0
C69 C 0.5033 0.17824 0.24618 0.0
Zn70 Zn 0.08244 0.76191 0.80441 0.0
Zn71 Zn 0.12607 0.81722 0.7215 0.0
O72 O 0.17682 0.8243 0.7996 0.0
O73 O 0.13015 0.78543 0.87507 0.0
O74 O 0.1514 0.88801 0.67481 0.0
O75 O 0.0002 0.78265 0.79823 0.0
O76 O 0.0356 0.81603 0.71321 0.0
C77 C 0.17466 0.81011 0.85518 0.0
C78 C 0.14553 0.69543 0.70954 0.0
O79 O 0.15678 0.74364 0.68474 0.0
O80 O 0.11361 0.69344 0.75606 0.0
C81 C 0.20448 0.90046 0.67032 0.0
O82 O 0.24285 0.86214 0.68693 0.0
C83 C 0.99235 0.80314 0.74618 0.0
Zn84 Zn 0.91321 0.26191 0.72647 0.0
Zn85 Zn 0.86958 0.31722 0.80938 0.0
O86 O 0.81883 0.3243 0.73128 0.0
O87 O 0.8655 0.28543 0.65581 0.0
O88 O 0.84425 0.38801 0.85606 0.0
O89 O 0.99545 0.28265 0.73265 0.0
O90 O 0.96006 0.31603 0.81767 0.0
C91 C 0.82099 0.31011 0.6757 0.0
C92 C 0.85012 0.19543 0.82134 0.0
O93 O 0.83887 0.24364 0.84614 0.0
O94 O 0.88204 0.19344 0.77482 0.0
C95 C 0.79117 0.40046 0.86056 0.0
O96 O 0.7528 0.36215 0.84395 0.0
C97 C 0.0033 0.30314 0.7847 0.0
Zn98 Zn 0.58244 0.71948 0.22647 0.0
Zn99 Zn 0.62607 0.66417 0.30938 0.0
O100 O 0.67682 0.65708 0.23128 0.0
O101 O 0.63015 0.69595 0.15581 0.0
O102 O 0.6514 0.59338 0.35606 0.0
O103 O 0.5002 0.69873 0.23265 0.0
O104 O 0.5356 0.66536 0.31767 0.0
C105 C 0.67466 0.67128 0.1757 0.0
C106 C 0.64553 0.78596 0.32134 0.0
O107 O 0.65678 0.73775 0.34614 0.0
O108 O 0.61361 0.78794 0.27482 0.0
C109 C 0.70448 0.58093 0.36056 0.0
O110 O 0.74285 0.61924 0.34395 0.0
C111 C 0.49235 0.67824 0.2847 0.0
Zn112 Zn 0.24672 0.42342 0.2453 0.0
Zn113 Zn 0.18431 0.36541 0.17328 0.0
O114 O 0.26536 0.32819 0.17125 0.0
O115 O 0.31838 0.37822 0.23397 0.0
O116 O 0.14806 0.32303 0.10279 0.0
O117 O 0.2367 0.49686 0.20309 0.0
O118 O 0.17078 0.45177 0.14992 0.0
C119 C 0.31261 0.33563 0.19911 0.0
C120 C 0.15992 0.35826 0.30755 0.0
O121 O 0.14896 0.33923 0.25459 0.0
O122 O 0.19531 0.39918 0.31442 0.0
C123 C 0.16357 0.27124 0.09431 0.0
O124 O 0.18961 0.24379 0.13833 0.0
C125 C 0.19761 0.49771 0.16372 0.0
Zn126 Zn 0.74672 0.05797 0.78558 0.0
Zn127 Zn 0.68431 0.11597 0.8576 0.0
O128 O 0.76536 0.1532 0.85963 0.0
O129 O 0.81838 0.10316 0.79691 0.0
O130 O 0.64806 0.15836 0.92809 0.0
O131 O 0.7367 0.98453 0.82779 0.0
O132 O 0.67078 0.02962 0.88096 0.0
C133 C 0.81261 0.14575 0.83177 0.0
C134 C 0.65992 0.12313 0.72333 0.0
O135 O 0.64896 0.14215 0.77629 0.0
O136 O 0.69531 0.08221 0.71646 0.0
C137 C 0.66357 0.21015 0.93657 0.0
O138 O 0.68961 0.2376 0.89255 0.0
C139 C 0.69761 0.98367 0.86716 0.0
Zn140 Zn 0.74893 0.92342 0.28558 0.0
Zn141 Zn 0.81135 0.86541 0.3576 0.0
O142 O 0.73029 0.82819 0.35963 0.0
O143 O 0.67727 0.87822 0.29691 0.0
O144 O 0.84759 0.82303 0.42809 0.0
O145 O 0.75896 -0.00314 0.32779 0.0
O146 O 0.82487 0.95177 0.38096 0.0
C147 C 0.68304 0.83563 0.33177 0.0
C148 C 0.83573 0.85826 0.22333 0.0
O149 O 0.84669 0.83923 0.27629 0.0
O150 O 0.80035 0.89918 0.21646 0.0
C151 C 0.83208 0.77124 0.43657 0.0
O152 O 0.80604 0.74379 0.39255 0.0
C153 C 0.79804 -0.00229 0.36716 0.0
Zn154 Zn 0.24893 0.55797 0.7453 0.0
Zn155 Zn 0.31135 0.61597 0.67328 0.0
O156 O 0.23029 0.6532 0.67125 0.0
O157 O 0.17727 0.60316 0.73397 0.0
O158 O 0.34759 0.65836 0.60279 0.0
O159 O 0.25896 0.48453 0.70309 0.0
O160 O 0.32487 0.52962 0.64992 0.0
C161 C 0.18304 0.64575 0.69911 0.0
C162 C 0.33573 0.62313 0.80755 0.0
O163 O 0.34669 0.64215 0.75459 0.0
O164 O 0.30035 0.58221 0.81442 0.0
C165 C 0.33208 0.71015 0.59431 0.0
O166 O 0.30604 0.7376 0.63832 0.0
C167 C 0.29804 0.48367 0.66372 0.0
Zn168 Zn 0.75928 0.70918 0.59631 0.0
Zn169 Zn 0.85131 0.76141 0.63623 0.0
O170 O 0.84958 0.68324 0.68141 0.0
O171 O 0.77783 0.63618 0.64003 0.0
O172 O 0.92722 0.79457 0.66445 0.0
O173 O 0.7795 0.72038 0.50931 0.0
O174 O 0.85333 0.7705 0.54229 0.0
C175 C 0.81675 0.63939 0.6798 0.0
C176 C 0.73497 0.80095 0.68068 0.0
O177 O 0.78935 0.80726 0.67908 0.0
O178 O 0.71048 0.7652 0.64592 0.0
C179 C 0.93406 0.8012 0.72094 0.0
O180 O 0.89058 0.79095 0.75721 0.0
C181 C 0.82317 0.75106 0.4987 0.0
Zn182 Zn 0.73637 0.2722 0.09631 0.0
Zn183 Zn 0.64434 0.21997 0.13623 0.0
O184 O 0.64608 0.29815 0.18141 0.0
O185 O 0.71782 0.34521 0.14003 0.0
O186 O 0.56843 0.18682 0.16445 0.0
O187 O 0.71615 0.26101 1.00931 0.0
O188 O 0.64232 0.21089 0.04229 0.0
C189 C 0.6789 0.342 0.1798 0.0
C190 C 0.76068 0.18044 0.18068 0.0
O191 O 0.7063 0.17412 0.17908 0.0
O192 O 0.78517 0.21618 0.14592 0.0
C193 C 0.56159 0.18018 0.22094 0.0
O194 O 0.60507 0.19044 0.25721 0.0
C195 C 0.67248 0.23033 0.9987 0.0
Zn196 Zn 0.25928 0.7722 0.43456 0.0
Zn197 Zn 0.35131 0.71997 0.39465 0.0
O198 O 0.34958 0.79815 0.34947 0.0
O199 O 0.27783 0.84521 0.39085 0.0
O200 O 0.42722 0.68682 0.36643 0.0
O201 O 0.2795 0.76101 0.52157 0.0
O202 O 0.35333 0.71089 0.48859 0.0
C203 C 0.31675 0.842 0.35108 0.0
C204 C 0.23497 0.68044 0.3502 0.0
O205 O 0.28935 0.67412 0.3518 0.0
O206 O 0.21048 0.71618 0.38496 0.0
C207 C 0.43406 0.68018 0.30994 0.0
O208 O 0.39058 0.69044 0.27367 0.0
C209 C 0.32317 0.73033 0.53218 0.0
Zn210 Zn 0.23637 0.20918 0.93456 0.0
Zn211 Zn 0.14434 0.26141 0.89465 0.0
O212 O 0.14608 0.18323 0.84947 0.0
O213 O 0.21782 0.13618 0.89085 0.0
O214 O 0.06843 0.29457 0.86643 0.0
O215 O 0.21615 0.22038 0.02157 0.0
O216 O 0.14232 0.2705 0.98859 0.0
C217 C 0.1789 0.13939 0.85108 0.0
C218 C 0.26068 0.30095 0.8502 0.0
O219 O 0.2063 0.30726 0.8518 0.0
O220 O 0.28517 0.2652 0.88496 0.0
C221 C 0.06159 0.3012 0.80994 0.0
O222 O 0.10507 0.29095 0.77367 0.0
C223 C 0.17248 0.25106 0.03218 0.0
Zn224 Zn 0.71142 0.82318 0.87379 0.0
Zn225 Zn 0.6191 0.81877 0.82513 0.0
O226 O 0.64074 0.73649 0.85839 0.0
O227 O 0.71589 0.74769 0.91652 0.0
O228 O 0.5328 0.82363 0.82792 0.0
O229 O 0.71373 0.898 0.91782 0.0
O230 O 0.64476 0.9009 0.85104 0.0
C231 C 0.67913 0.71474 0.8927 0.0
C232 C 0.70514 0.81811 0.73616 0.0
O233 O 0.65071 0.81346 0.74075 0.0
O234 O 0.73584 0.82385 0.78341 0.0
C235 C 0.49607 0.82628 0.78559 0.0
O236 O 0.51279 0.82364 0.72905 0.0
C237 C 0.67874 0.92707 0.88681 0.0
Zn238 Zn 0.78423 0.1582 0.37379 0.0
Zn239 Zn 0.87655 0.16262 0.32513 0.0
O240 O 0.85491 0.2449 0.35839 0.0
O241 O 0.77976 0.2337 0.41652 0.0
O242 O 0.96285 0.15775 0.32792 0.0
O243 O 0.78193 0.08339 0.41782 0.0
O244 O 0.85089 0.08049 0.35104 0.0
C245 C 0.81652 0.26665 0.3927 0.0
C246 C 0.79051 0.16328 0.23616 0.0
O247 O 0.84494 0.16793 0.24075 0.0
O248 O 0.75981 0.15753 0.28341 0.0
C249 C -0.00042 0.1551 0.28559 0.0
O250 O 0.98286 0.15775 0.22905 0.0
C251 C 0.81691 0.05432 0.38681 0.0
Zn252 Zn 0.21142 0.6582 0.15709 0.0
Zn253 Zn 0.1191 0.66262 0.20575 0.0
O254 O 0.14074 0.7449 0.17249 0.0
O255 O 0.21589 0.7337 0.11436 0.0
O256 O 0.0328 0.65775 0.20296 0.0
O257 O 0.21373 0.58339 0.11306 0.0
O258 O 0.14476 0.58049 0.17983 0.0
C259 C 0.17913 0.76665 0.13818 0.0
C260 C 0.20514 0.66328 0.29472 0.0
O261 O 0.15071 0.66793 0.29013 0.0
O262 O 0.23584 0.65753 0.24747 0.0
C263 C 0.99607 0.6551 0.24529 0.0
O264 O 0.01279 0.65775 0.30183 0.0
C265 C 0.17874 0.55432 0.14407 0.0
Zn266 Zn 0.28423 0.32318 0.65709 0.0
Zn267 Zn 0.37655 0.31877 0.70575 0.0
O268 O 0.35491 0.23649 0.67249 0.0
O269 O 0.27976 0.24769 0.61436 0.0
O270 O 0.46285 0.32363 0.70296 0.0
O271 O 0.28193 0.398 0.61306 0.0
O272 O 0.35089 0.4009 0.67983 0.0
C273 C 0.31652 0.21474 0.63818 0.0
C274 C 0.29051 0.31811 0.79472 0.0
O275 O 0.34494 0.31346 0.79013 0.0
O276 O 0.25981 0.32385 0.74747 0.0
C277 C 0.49958 0.32628 0.74529 0.0
O278 O 0.48286 0.32364 0.80183 0.0
C279 C 0.31691 0.42707 0.64407 0.0
Zn280 Zn 0.71585 0.5578 0.81819 0.0
Zn281 Zn 0.81524 0.58898 0.86668 0.0
O282 O 0.74885 0.64265 0.88878 0.0
O283 O 0.66354 0.61953 0.85568 0.0
O284 O 0.86946 0.61722 0.93205 0.0
O285 O 0.72419 0.47554 0.84723 0.0
O286 O 0.81262 0.49996 0.87177 0.0
C287 C 0.6956 0.65392 0.88438 0.0
C288 C 0.80763 0.60598 0.73547 0.0
O289 O 0.83932 0.6142 0.78177 0.0
O290 O 0.75883 0.58183 0.74105 0.0
C291 C 0.87194 0.67183 0.93468 0.0
O292 O 0.85988 0.70122 0.88562 0.0
C293 C 0.77428 0.46141 0.86402 0.0
Zn294 Zn 0.21585 0.92359 0.21268 0.0
Zn295 Zn 0.31524 0.89241 0.1642 0.0
O296 O 0.24885 0.83873 0.1421 0.0
O297 O 0.16354 0.86186 0.1752 0.0
O298 O 0.36946 0.86417 0.09883 0.0
O299 O 0.22419 0.00584 0.18365 0.0
O300 O 0.31262 0.98143 0.1591 0.0
C301 C 0.1956 0.82746 0.1465 0.0
C302 C 0.30763 0.8754 0.29541 0.0
O303 O 0.33932 0.86719 0.24911 0.0
O304 O 0.25883 0.89955 0.28983 0.0
C305 C 0.37194 0.80956 0.0962 0.0
O306 O 0.35988 0.78016 0.14526 0.0
C307 C 0.27428 0.01997 0.16686 0.0
Zn308 Zn 0.2798 0.0578 0.71268 0.0
Zn309 Zn 0.18041 0.08898 0.6642 0.0
O310 O 0.2468 0.14265 0.6421 0.0
O311 O 0.33211 0.11953 0.6752 0.0
O312 O 0.12619 0.11722 0.59883 0.0
O313 O 0.27147 0.97554 0.68365 0.0
O314 O 0.18303 -4e-05 0.6591 0.0
C315 C 0.30005 0.15392 0.6465 0.0
C316 C 0.18802 0.10598 0.79541 0.0
O317 O 0.15633 0.1142 0.74911 0.0
O318 O 0.23682 0.08183 0.78983 0.0
C319 C 0.12371 0.17183 0.5962 0.0
O320 O 0.13577 0.20122 0.64526 0.0
C321 C 0.22137 0.96141 0.66686 0.0
Zn322 Zn 0.7798 0.42359 0.31819 0.0
Zn323 Zn 0.68041 0.39241 0.36668 0.0
O324 O 0.7468 0.33874 0.38878 0.0
O325 O 0.83211 0.36186 0.35567 0.0
O326 O 0.62619 0.36417 0.43205 0.0
O327 O 0.77147 0.50584 0.34723 0.0
O328 O 0.68303 0.48143 0.37177 0.0
C329 C 0.80005 0.32746 0.38438 0.0
C330 C 0.68802 0.3754 0.23547 0.0
O331 O 0.65633 0.36719 0.28177 0.0
O332 O 0.73682 0.39955 0.24105 0.0
C333 C 0.62371 0.30956 0.43468 0.0
O334 O 0.63577 0.28016 0.38562 0.0
C335 C 0.72137 0.51997 0.36402 0.0
loop_
_geom_bond_atom_site_label_1
_geom_bond_atom_site_label_2
_geom_bond_distance
_geom_bond_site_symmetry_2
_ccdc_geom_bond_type
Zn0 O3 2.031 . S
Zn0 O5 2.049 . S
Zn0 O10 2.067 . S
Zn1 O2 1.962 . S
Zn1 O4 1.986 . S
Zn1 O6 1.996 . S
Zn1 O9 1.943 . S
O2 Zn1 1.962 . S
O2 C7 1.254 . S
O3 Zn0 2.031 . S
O3 C7 1.269 . S
O4 Zn1 1.986 . S
O4 C11 1.262 1_455 S
O5 Zn0 2.049 . S
O5 C13 1.260 . S
O6 Zn1 1.996 . S
O6 C13 1.257 . S
C7 O2 1.254 . S
C7 O3 1.269 . S
C8 O9 1.249 . S
C8 O10 1.270 . S
O9 Zn1 1.943 . S
O9 C8 1.249 . S
O10 Zn0 2.067 . S
O10 C8 1.270 . S
C11 O4 1.262 1_655 S
C11 O12 1.232 1_655 S
O12 C11 1.232 1_455 S
C13 O5 1.260 . S
C13 O6 1.257 . S
Zn14 O17 2.031 . S
Zn14 O19 2.049 . S
Zn14 O24 2.067 . S
Zn15 O16 1.962 . S
Zn15 O18 1.986 . S
Zn15 O20 1.996 . S
Zn15 O23 1.943 . S
O16 Zn15 1.962 . S
O16 C21 1.254 . S
O17 Zn14 2.031 . S
O17 C21 1.269 . S
O18 Zn15 1.986 . S
O18 C25 1.262 . S
O19 Zn14 2.049 . S
O19 C27 1.260 . S
O20 Zn15 1.996 . S
O20 C27 1.257 . S
C21 O16 1.254 . S
C21 O17 1.269 . S
C22 O23 1.249 . S
C22 O24 1.270 . S
O23 Zn15 1.943 . S
O23 C22 1.249 . S
O24 Zn14 2.067 . S
O24 C22 1.270 . S
C25 O18 1.262 . S
C25 O26 1.232 . S
O26 C25 1.232 . S
C27 O19 1.260 . S
C27 O20 1.257 . S
Zn28 O31 2.031 . S
Zn28 O33 2.049 . S
Zn28 O38 2.067 . S
Zn29 O30 1.962 . S
Zn29 O32 1.986 . S
Zn29 O34 1.996 . S
Zn29 O37 1.943 . S
O30 Zn29 1.962 . S
O30 C35 1.254 . S
O31 Zn28 2.031 . S
O31 C35 1.269 . S
O32 Zn29 1.986 . S
O32 C39 1.262 . S
O33 Zn28 2.049 . S
O33 C41 1.260 . S
O34 Zn29 1.996 . S
O34 C41 1.257 . S
C35 O30 1.254 . S
C35 O31 1.269 . S
C36 O37 1.249 . S
C36 O38 1.270 . S
O37 Zn29 1.943 . S
O37 C36 1.249 . S
O38 Zn28 2.067 . S
O38 C36 1.270 . S
C39 O32 1.262 . S
C39 O40 1.232 . S
O40 C39 1.232 . S
C41 O33 1.260 . S
C41 O34 1.257 . S
Zn42 O45 2.031 . S
Zn42 O47 2.049 . S
Zn42 O52 2.067 . S
Zn43 O44 1.962 . S
Zn43 O46 1.986 . S
Zn43 O48 1.996 . S
Zn43 O51 1.943 . S
O44 Zn43 1.962 . S
O44 C49 1.254 . S
O45 Zn42 2.031 . S
O45 C49 1.269 . S
O46 Zn43 1.986 . S
O46 C53 1.262 1_655 S
O47 Zn42 2.049 . S
O47 C55 1.260 . S
O48 Zn43 1.996 . S
O48 C55 1.257 . S
C49 O44 1.254 . S
C49 O45 1.269 . S
C50 O51 1.249 . S
C50 O52 1.270 . S
O51 Zn43 1.943 . S
O51 C50 1.249 . S
O52 Zn42 2.067 . S
O52 C50 1.270 . S
C53 O46 1.262 1_455 S
C53 O54 1.232 1_455 S
O54 C53 1.232 1_655 S
C55 O47 1.260 . S
C55 O48 1.257 . S
Zn56 O59 2.031 . S
Zn56 O61 2.049 . S
Zn56 O66 2.067 . S
Zn57 O58 1.962 . S
Zn57 O60 1.986 . S
Zn57 O62 1.996 . S
Zn57 O65 1.943 . S
O58 Zn57 1.962 . S
O58 C63 1.254 . S
O59 Zn56 2.031 . S
O59 C63 1.269 . S
O60 Zn57 1.986 . S
O60 C67 1.262 1_545 S
O61 Zn56 2.049 . S
O61 C69 1.260 . S
O62 Zn57 1.996 . S
O62 C69 1.257 . S
C63 O58 1.254 . S
C63 O59 1.269 . S
C64 O65 1.249 . S
C64 O66 1.270 . S
O65 Zn57 1.943 . S
O65 C64 1.249 . S
O66 Zn56 2.067 . S
O66 C64 1.270 . S
C67 O60 1.262 1_565 S
C67 O68 1.232 1_565 S
O68 C67 1.232 1_545 S
C69 O61 1.260 . S
C69 O62 1.257 . S
Zn70 O73 2.031 . S
Zn70 O75 2.049 . S
Zn70 O80 2.067 . S
Zn71 O72 1.962 . S
Zn71 O74 1.986 . S
Zn71 O76 1.996 . S
Zn71 O79 1.943 . S
O72 Zn71 1.962 . S
O72 C77 1.254 . S
O73 Zn70 2.031 . S
O73 C77 1.269 . S
O74 Zn71 1.986 . S
O74 C81 1.262 1_565 S
O75 Zn70 2.049 . S
O75 C83 1.260 . S
O76 Zn71 1.996 . S
O76 C83 1.257 . S
C77 O72 1.254 . S
C77 O73 1.269 . S
C78 O79 1.249 . S
C78 O80 1.270 . S
O79 Zn71 1.943 . S
O79 C78 1.249 . S
O80 Zn70 2.067 . S
O80 C78 1.270 . S
C81 O74 1.262 1_545 S
C81 O82 1.232 1_545 S
O82 C81 1.232 1_565 S
C83 O75 1.260 . S
C83 O76 1.257 . S
Zn84 O87 2.031 . S
Zn84 O89 2.049 . S
Zn84 O94 2.067 . S
Zn85 O86 1.962 . S
Zn85 O88 1.986 . S
Zn85 O90 1.996 . S
Zn85 O93 1.943 . S
O86 Zn85 1.962 . S
O86 C91 1.254 . S
O87 Zn84 2.031 . S
O87 C91 1.269 . S
O88 Zn85 1.986 . S
O88 C95 1.262 . S
O89 Zn84 2.049 . S
O89 C97 1.260 . S
O90 Zn85 1.996 . S
O90 C97 1.257 . S
C91 O86 1.254 . S
C91 O87 1.269 . S
C92 O93 1.249 . S
C92 O94 1.270 . S
O93 Zn85 1.943 . S
O93 C92 1.249 . S
O94 Zn84 2.067 . S
O94 C92 1.270 . S
C95 O88 1.262 . S
C95 O96 1.232 . S
O96 C95 1.232 . S
C97 O89 1.260 . S
C97 O90 1.257 . S
Zn98 O101 2.031 . S
Zn98 O103 2.049 . S
Zn98 O108 2.067 . S
Zn99 O100 1.962 . S
Zn99 O102 1.986 . S
Zn99 O104 1.996 . S
Zn99 O107 1.943 . S
O100 Zn99 1.962 . S
O100 C105 1.254 . S
O101 Zn98 2.031 . S
O101 C105 1.269 . S
O102 Zn99 1.986 . S
O102 C109 1.262 . S
O103 Zn98 2.049 . S
O103 C111 1.260 . S
O104 Zn99 1.996 . S
O104 C111 1.257 . S
C105 O100 1.254 . S
C105 O101 1.269 . S
C106 O107 1.249 . S
C106 O108 1.270 . S
O107 Zn99 1.943 . S
O107 C106 1.249 . S
O108 Zn98 2.067 . S
O108 C106 1.270 . S
C109 O102 1.262 . S
C109 O110 1.232 . S
O110 C109 1.232 . S
C111 O103 1.260 . S
C111 O104 1.257 . S
Zn112 O115 2.031 . S
Zn112 O117 2.049 . S
Zn112 O122 2.067 . S
Zn113 O114 1.962 . S
Zn113 O116 1.986 . S
Zn113 O118 1.996 . S
Zn113 O121 1.943 . S
O114 Zn113 1.962 . S
O114 C119 1.254 . S
O115 Zn112 2.031 . S
O115 C119 1.269 . S
O116 Zn113 1.986 . S
O116 C123 1.262 1_554 S
O117 Zn112 2.049 . S
O117 C125 1.260 . S
O118 Zn113 1.996 . S
O118 C125 1.257 . S
C119 O114 1.254 . S
C119 O115 1.269 . S
C120 O121 1.249 . S
C120 O122 1.270 . S
O121 Zn113 1.943 . S
O121 C120 1.249 . S
O122 Zn112 2.067 . S
O122 C120 1.270 . S
C123 O116 1.262 1_556 S
C123 O124 1.232 . S
O124 C123 1.232 . S
C125 O117 1.260 . S
C125 O118 1.257 . S
Zn126 O129 2.031 . S
Zn126 O131 2.049 . S
Zn126 O136 2.067 . S
Zn127 O128 1.962 . S
Zn127 O130 1.986 . S
Zn127 O132 1.996 . S
Zn127 O135 1.943 . S
O128 Zn127 1.962 . S
O128 C133 1.254 . S
O129 Zn126 2.031 . S
O129 C133 1.269 . S
O130 Zn127 1.986 . S
O130 C137 1.262 1_556 S
O131 Zn126 2.049 . S
O131 C139 1.260 . S
O132 Zn127 1.996 . S
O132 C139 1.257 . S
C133 O128 1.254 . S
C133 O129 1.269 . S
C134 O135 1.249 . S
C134 O136 1.270 . S
O135 Zn127 1.943 . S
O135 C134 1.249 . S
O136 Zn126 2.067 . S
O136 C134 1.270 . S
C137 O130 1.262 1_554 S
C137 O138 1.232 . S
O138 C137 1.232 . S
C139 O131 1.260 . S
C139 O132 1.257 . S
Zn140 O143 2.031 . S
Zn140 O145 2.049 . S
Zn140 O150 2.067 . S
Zn141 O142 1.962 . S
Zn141 O144 1.986 . S
Zn141 O146 1.996 . S
Zn141 O149 1.943 . S
O142 Zn141 1.962 . S
O142 C147 1.254 . S
O143 Zn140 2.031 . S
O143 C147 1.269 . S
O144 Zn141 1.986 . S
O144 C151 1.262 . S
O145 Zn140 2.049 . S
O145 C153 1.260 . S
O146 Zn141 1.996 . S
O146 C153 1.257 . S
C147 O142 1.254 . S
C147 O143 1.269 . S
C148 O149 1.249 . S
C148 O150 1.270 . S
O149 Zn141 1.943 . S
O149 C148 1.249 . S
O150 Zn140 2.067 . S
O150 C148 1.270 . S
C151 O144 1.262 . S
C151 O152 1.232 . S
O152 C151 1.232 . S
C153 O145 1.260 . S
C153 O146 1.257 . S
Zn154 O157 2.031 . S
Zn154 O159 2.049 . S
Zn154 O164 2.067 . S
Zn155 O156 1.962 . S
Zn155 O158 1.986 . S
Zn155 O160 1.996 . S
Zn155 O163 1.943 . S
O156 Zn155 1.962 . S
O156 C161 1.254 . S
O157 Zn154 2.031 . S
O157 C161 1.269 . S
O158 Zn155 1.986 . S
O158 C165 1.262 . S
O159 Zn154 2.049 . S
O159 C167 1.260 . S
O160 Zn155 1.996 . S
O160 C167 1.257 . S
C161 O156 1.254 . S
C161 O157 1.269 . S
C162 O163 1.249 . S
C162 O164 1.270 . S
O163 Zn155 1.943 . S
O163 C162 1.249 . S
O164 Zn154 2.067 . S
O164 C162 1.270 . S
C165 O158 1.262 . S
C165 O166 1.232 . S
O166 C165 1.232 . S
C167 O159 1.260 . S
C167 O160 1.257 . S
Zn168 O171 2.031 . S
Zn168 O173 2.049 . S
Zn168 O178 2.067 . S
Zn169 O170 1.962 . S
Zn169 O172 1.986 . S
Zn169 O174 1.996 . S
Zn169 O177 1.943 . S
O170 Zn169 1.962 . S
O170 C175 1.254 . S
O171 Zn168 2.031 . S
O171 C175 1.269 . S
O172 Zn169 1.986 . S
O172 C179 1.262 1_655 S
O173 Zn168 2.049 . S
O173 C181 1.260 . S
O174 Zn169 1.996 . S
O174 C181 1.257 . S
C175 O170 1.254 . S
C175 O171 1.269 . S
C176 O177 1.249 . S
C176 O178 1.270 . S
O177 Zn169 1.943 . S
O177 C176 1.249 . S
O178 Zn168 2.067 . S
O178 C176 1.270 . S
C179 O172 1.262 1_455 S
C179 O180 1.232 1_455 S
O180 C179 1.232 1_655 S
C181 O173 1.260 . S
C181 O174 1.257 . S
Zn182 O185 2.031 . S
Zn182 O187 2.049 . S
Zn182 O192 2.067 . S
Zn183 O184 1.962 . S
Zn183 O186 1.986 . S
Zn183 O188 1.996 . S
Zn183 O191 1.943 . S
O184 Zn183 1.962 . S
O184 C189 1.254 . S
O185 Zn182 2.031 . S
O185 C189 1.269 . S
O186 Zn183 1.986 . S
O186 C193 1.262 . S
O187 Zn182 2.049 . S
O187 C195 1.260 . S
O188 Zn183 1.996 . S
O188 C195 1.257 . S
C189 O184 1.254 . S
C189 O185 1.269 . S
C190 O191 1.249 . S
C190 O192 1.270 . S
O191 Zn183 1.943 . S
O191 C190 1.249 . S
O192 Zn182 2.067 . S
O192 C190 1.270 . S
C193 O186 1.262 . S
C193 O194 1.232 . S
O194 C193 1.232 . S
C195 O187 1.260 . S
C195 O188 1.257 . S
Zn196 O199 2.031 . S
Zn196 O201 2.049 . S
Zn196 O206 2.067 . S
Zn197 O198 1.962 . S
Zn197 O200 1.986 . S
Zn197 O202 1.996 . S
Zn197 O205 1.943 . S
O198 Zn197 1.962 . S
O198 C203 1.254 . S
O199 Zn196 2.031 . S
O199 C203 1.269 . S
O200 Zn197 1.986 . S
O200 C207 1.262 . S
O201 Zn196 2.049 . S
O201 C209 1.260 . S
O202 Zn197 1.996 . S
O202 C209 1.257 . S
C203 O198 1.254 . S
C203 O199 1.269 . S
C204 O205 1.249 . S
C204 O206 1.270 . S
O205 Zn197 1.943 . S
O205 C204 1.249 . S
O206 Zn196 2.067 . S
O206 C204 1.270 . S
C207 O200 1.262 . S
C207 O208 1.232 . S
O208 C207 1.232 . S
C209 O201 1.260 . S
C209 O202 1.257 . S
Zn210 O213 2.031 . S
Zn210 O215 2.049 . S
Zn210 O220 2.067 . S
Zn211 O212 1.962 . S
Zn211 O214 1.986 . S
Zn211 O216 1.996 . S
Zn211 O219 1.943 . S
O212 Zn211 1.962 . S
O212 C217 1.254 . S
O213 Zn210 2.031 . S
O213 C217 1.269 . S
O214 Zn211 1.986 . S
O214 C221 1.262 1_455 S
O215 Zn210 2.049 . S
O215 C223 1.260 . S
O216 Zn211 1.996 . S
O216 C223 1.257 . S
C217 O212 1.254 . S
C217 O213 1.269 . S
C218 O219 1.249 . S
C218 O220 1.270 . S
O219 Zn211 1.943 . S
O219 C218 1.249 . S
O220 Zn210 2.067 . S
O220 C218 1.270 . S
C221 O214 1.262 1_655 S
C221 O222 1.232 1_655 S
O222 C221 1.232 1_455 S
C223 O215 1.260 . S
C223 O216 1.257 . S
Zn224 O227 2.031 . S
Zn224 O229 2.049 1_565 S
Zn224 O234 2.067 . S
Zn225 O226 1.962 . S
Zn225 O228 1.986 . S
Zn225 O230 1.996 . S
Zn225 O233 1.943 . S
O226 Zn225 1.962 . S
O226 C231 1.254 . S
O227 Zn224 2.031 . S
O227 C231 1.269 . S
O228 Zn225 1.986 . S
O228 C235 1.262 . S
O229 Zn224 2.049 1_545 S
O229 C237 1.260 . S
O230 Zn225 1.996 . S
O230 C237 1.257 1_565 S
C231 O226 1.254 . S
C231 O227 1.269 . S
C232 O233 1.249 . S
C232 O234 1.270 . S
O233 Zn225 1.943 . S
O233 C232 1.249 . S
O234 Zn224 2.067 . S
O234 C232 1.270 . S
C235 O228 1.262 . S
C235 O236 1.232 . S
O236 C235 1.232 . S
C237 O229 1.260 . S
C237 O230 1.257 1_545 S
Zn238 O241 2.031 . S
Zn238 O243 2.049 1_545 S
Zn238 O248 2.067 . S
Zn239 O240 1.962 . S
Zn239 O242 1.986 . S
Zn239 O244 1.996 . S
Zn239 O247 1.943 . S
O240 Zn239 1.962 . S
O240 C245 1.254 . S
O241 Zn238 2.031 . S
O241 C245 1.269 . S
O242 Zn239 1.986 . S
O242 C249 1.262 . S
O243 Zn238 2.049 1_565 S
O243 C251 1.260 . S
O244 Zn239 1.996 . S
O244 C251 1.257 1_545 S
C245 O240 1.254 . S
C245 O241 1.269 . S
C246 O247 1.249 . S
C246 O248 1.270 . S
O247 Zn239 1.943 . S
O247 C246 1.249 . S
O248 Zn238 2.067 . S
O248 C246 1.270 . S
C249 O242 1.262 . S
C249 O250 1.232 . S
O250 C249 1.232 . S
C251 O243 1.260 . S
C251 O244 1.257 1_565 S
Zn252 O255 2.031 . S
Zn252 O257 2.049 . S
Zn252 O262 2.067 . S
Zn253 O254 1.962 . S
Zn253 O256 1.986 . S
Zn253 O258 1.996 . S
Zn253 O261 1.943 . S
O254 Zn253 1.962 . S
O254 C259 1.254 . S
O255 Zn252 2.031 . S
O255 C259 1.269 . S
O256 Zn253 1.986 . S
O256 C263 1.262 . S
O257 Zn252 2.049 . S
O257 C265 1.260 . S
O258 Zn253 1.996 . S
O258 C265 1.257 . S
C259 O254 1.254 . S
C259 O255 1.269 . S
C260 O261 1.249 . S
C260 O262 1.270 . S
O261 Zn253 1.943 . S
O261 C260 1.249 . S
O262 Zn252 2.067 . S
O262 C260 1.270 . S
C263 O256 1.262 . S
C263 O264 1.232 . S
O264 C263 1.232 . S
C265 O257 1.260 . S
C265 O258 1.257 . S
Zn266 O269 2.031 . S
Zn266 O271 2.049 . S
Zn266 O276 2.067 . S
Zn267 O268 1.962 . S
Zn267 O270 1.986 . S
Zn267 O272 1.996 . S
Zn267 O275 1.943 . S
O268 Zn267 1.962 . S
O268 C273 1.254 . S
O269 Zn266 2.031 . S
O269 C273 1.269 . S
O270 Zn267 1.986 . S
O270 C277 1.262 . S
O271 Zn266 2.049 . S
O271 C279 1.260 . S
O272 Zn267 1.996 . S
O272 C279 1.257 . S
C273 O268 1.254 . S
C273 O269 1.269 . S
C274 O275 1.249 . S
C274 O276 1.270 . S
O275 Zn267 1.943 . S
O275 C274 1.249 . S
O276 Zn266 2.067 . S
O276 C274 1.270 . S
C277 O270 1.262 . S
C277 O278 1.232 . S
O278 C277 1.232 . S
C279 O271 1.260 . S
C279 O272 1.257 . S
Zn280 O283 2.031 . S
Zn280 O285 2.049 . S
Zn280 O290 2.067 . S
Zn281 O282 1.962 . S
Zn281 O284 1.986 . S
Zn281 O286 1.996 . S
Zn281 O289 1.943 . S
O282 Zn281 1.962 . S
O282 C287 1.254 . S
O283 Zn280 2.031 . S
O283 C287 1.269 . S
O284 Zn281 1.986 . S
O284 C291 1.262 1_556 S
O285 Zn280 2.049 . S
O285 C293 1.260 . S
O286 Zn281 1.996 . S
O286 C293 1.257 . S
C287 O282 1.254 . S
C287 O283 1.269 . S
C288 O289 1.249 . S
C288 O290 1.270 . S
O289 Zn281 1.943 . S
O289 C288 1.249 . S
O290 Zn280 2.067 . S
O290 C288 1.270 . S
C291 O284 1.262 1_554 S
C291 O292 1.232 . S
O292 C291 1.232 . S
C293 O285 1.260 . S
C293 O286 1.257 . S
Zn294 O297 2.031 . S
Zn294 O299 2.049 . S
Zn294 O304 2.067 . S
Zn295 O296 1.962 . S
Zn295 O298 1.986 . S
Zn295 O300 1.996 . S
Zn295 O303 1.943 . S
O296 Zn295 1.962 . S
O296 C301 1.254 . S
O297 Zn294 2.031 . S
O297 C301 1.269 . S
O298 Zn295 1.986 . S
O298 C305 1.262 1_554 S
O299 Zn294 2.049 . S
O299 C307 1.260 . S
O300 Zn295 1.996 . S
O300 C307 1.257 . S
C301 O296 1.254 . S
C301 O297 1.269 . S
C302 O303 1.249 . S
C302 O304 1.270 . S
O303 Zn295 1.943 . S
O303 C302 1.249 . S
O304 Zn294 2.067 . S
O304 C302 1.270 . S
C305 O298 1.262 1_556 S
C305 O306 1.232 . S
O306 C305 1.232 . S
C307 O299 1.260 . S
C307 O300 1.257 . S
Zn308 O311 2.031 . S
Zn308 O313 2.049 . S
Zn308 O318 2.067 . S
Zn309 O310 1.962 . S
Zn309 O312 1.986 . S
Zn309 O314 1.996 . S
Zn309 O317 1.943 . S
O310 Zn309 1.962 . S
O310 C315 1.254 . S
O311 Zn308 2.031 . S
O311 C315 1.269 . S
O312 Zn309 1.986 . S
O312 C319 1.262 . S
O313 Zn308 2.049 . S
O313 C321 1.260 . S
O314 Zn309 1.996 . S
O314 C321 1.257 . S
C315 O310 1.254 . S
C315 O311 1.269 . S
C316 O317 1.249 . S
C316 O318 1.270 . S
O317 Zn309 1.943 . S
O317 C316 1.249 . S
O318 Zn308 2.067 . S
O318 C316 1.270 . S
C319 O312 1.262 . S
C319 O320 1.232 . S
O320 C319 1.232 . S
C321 O313 1.260 . S
C321 O314 1.257 . S
Zn322 O325 2.031 . S
Zn322 O327 2.049 . S
Zn322 O332 2.067 . S
Zn323 O324 1.962 . S
Zn323 O326 1.986 . S
Zn323 O328 1.996 . S
Zn323 O331 1.943 . S
O324 Zn323 1.962 . S
O324 C329 1.254 . S
O325 Zn322 2.031 . S
O325 C329 1.269 . S
O326 Zn323 1.986 . S
O326 C333 1.262 . S
O327 Zn322 2.049 . S
O327 C335 1.260 . S
O328 Zn323 1.996 . S
O328 C335 1.257 . S
C329 O324 1.254 . S
C329 O325 1.269 . S
C330 O331 1.249 . S
C330 O332 1.270 . S
O331 Zn323 1.943 . S
O331 C330 1.249 . S
O332 Zn322 2.067 . S
O332 C330 1.270 . S
C333 O326 1.262 . S
C333 O334 1.232 . S
O334 C333 1.232 . S
C335 O327 1.260 . S
C335 O328 1.257 . S
C120 C7 1.248 . S
C21 C162 1.248 . S
C35 C134 1.248 . S
C49 C148 1.248 . S
C63 C8 1.313 . S
C22 C77 1.313 . S
C91 C36 1.313 . S
C50 C105 1.313 . S
C64 C119 1.397 . S
C92 C133 1.397 . S
C147 C106 1.397 . S
C78 C161 1.397 . S
C288 C175 1.284 . S
C189 C330 1.284 . S
C203 C302 1.284 . S
C316 C217 1.284 . S
C232 C176 1.247 . S
C190 C246 1.247 . S
C204 C260 1.247 . S
C274 C218 1.247 . S
C287 C231 1.670 . S
C259 C301 1.670 . S
C273 C315 1.670 . S
C329 C245 1.670 . S
C319 C13 1.378 . S
C305 C27 1.378 . S
C333 C41 1.378 . S
C55 C291 1.378 . S
C69 C193 1.490 . S
C179 C83 1.490 . S
C221 C97 1.490 . S
C207 C111 1.490 . S
C125 C265 1.227 . S
C237 C139 1.227 . S
C251 C153 1.227 . S
C279 C167 1.227 . S
C151 C181 1.440 . S
C137 C195 1.440 . S
C209 C165 1.440 . S
C123 C223 1.440 . S
C235 C25 1.443 . S
C249 C11 1.443 . S
C263 C53 1.443 . S
C277 C39 1.443 . S
C293 C95 1.363 . S
C307 C67 1.363 . S
C81 C321 1.363 . S
C335 C109 1.363 . S
