# Generated by pormake.
# Topology uos, (4)-cn, num edge types: 1
# Building blocks:
#     Node 0, Type 0, BuildingBlock: QUQFOY_clean_sbu_3, # of connection points: 4
#     Node 1, Type 0, BuildingBlock: QUQFOY_clean_sbu_3, # of connection points: 4
#     Node 2, Type 0, BuildingBlock: QUQFOY_clean_sbu_3, # of connection points: 4
#     Node 3, Type 0, BuildingBlock: QUQFOY_clean_sbu_3, # of connection points: 4
#     Node 4, Type 0, BuildingBlock: QUQFOY_clean_sbu_3, # of connection points: 4
#     Node 5, Type 0, BuildingBlock: QUQFOY_clean_sbu_3, # of connection points: 4
#     Node 6, Type 0, BuildingBlock: QUQFOY_clean_sbu_3, # of connection points: 4
#     Node 7, Type 0, BuildingBlock: QUQFOY_clean_sbu_3, # of connection points: 4
#     Node 8, Type 0, BuildingBlock: QUQFOY_clean_sbu_3, # of connection points: 4
#     Node 9, Type 0, BuildingBlock: QUQFOY_clean_sbu_3, # of connection points: 4
#     Node 10, Type 0, BuildingBlock: QUQFOY_clean_sbu_3, # of connection points: 4
#     Node 11, Type 0, BuildingBlock: QUQFOY_clean_sbu_3, # of connection points: 4
#     Node 12, Type 0, BuildingBlock: QUQFOY_clean_sbu_3, # of connection points: 4
#     Node 13, Type 0, BuildingBlock: QUQFOY_clean_sbu_3, # of connection points: 4
#     Node 14, Type 0, BuildingBlock: QUQFOY_clean_sbu_3, # of connection points: 4
#     Node 15, Type 0, BuildingBlock: QUQFOY_clean_sbu_3, # of connection points: 4
#     Node 16, Type 0, BuildingBlock: QUQFOY_clean_sbu_3, # of connection points: 4
#     Node 17, Type 0, BuildingBlock: QUQFOY_clean_sbu_3, # of connection points: 4
#     Node 18, Type 0, BuildingBlock: QUQFOY_clean_sbu_3, # of connection points: 4
#     Node 19, Type 0, BuildingBlock: QUQFOY_clean_sbu_3, # of connection points: 4
#     Node 20, Type 0, BuildingBlock: QUQFOY_clean_sbu_3, # of connection points: 4
#     Node 21, Type 0, BuildingBlock: QUQFOY_clean_sbu_3, # of connection points: 4
#     Node 22, Type 0, BuildingBlock: QUQFOY_clean_sbu_3, # of connection points: 4
#     Node 23, Type 0, BuildingBlock: QUQFOY_clean_sbu_3, # of connection points: 4
#     Node 24, Type 0, BuildingBlock: QUQFOY_clean_sbu_3, # of connection points: 4
#     Node 25, Type 0, BuildingBlock: QUQFOY_clean_sbu_3, # of connection points: 4
#     Node 26, Type 0, BuildingBlock: QUQFOY_clean_sbu_3, # of connection points: 4
#     Node 27, Type 0, BuildingBlock: QUQFOY_clean_sbu_3, # of connection points: 4
#     Node 28, Type 0, BuildingBlock: QUQFOY_clean_sbu_3, # of connection points: 4
#     Node 29, Type 0, BuildingBlock: QUQFOY_clean_sbu_3, # of connection points: 4
#     Node 30, Type 0, BuildingBlock: QUQFOY_clean_sbu_3, # of connection points: 4
#     Node 31, Type 0, BuildingBlock: QUQFOY_clean_sbu_3, # of connection points: 4
#     Edge 32, Type (0, 0), BuildingBlock: ZUJKAS_clean_linker_0, # of connection points: 2
#     Edge 33, Type (0, 0), BuildingBlock: ZUJKAS_clean_linker_0, # of connection points: 2
#     Edge 34, Type (0, 0), BuildingBlock: ZUJKAS_clean_linker_0, # of connection points: 2
#     Edge 35, Type (0, 0), BuildingBlock: ZUJKAS_clean_linker_0, # of connection points: 2
#     Edge 36, Type (0, 0), BuildingBlock: ZUJKAS_clean_linker_0, # of connection points: 2
#     Edge 37, Type (0, 0), BuildingBlock: ZUJKAS_clean_linker_0, # of connection points: 2
#     Edge 38, Type (0, 0), BuildingBlock: ZUJKAS_clean_linker_0, # of connection points: 2
#     Edge 39, Type (0, 0), BuildingBlock: ZUJKAS_clean_linker_0, # of connection points: 2
#     Edge 40, Type (0, 0), BuildingBlock: ZUJKAS_clean_linker_0, # of connection points: 2
#     Edge 41, Type (0, 0), BuildingBlock: ZUJKAS_clean_linker_0, # of connection points: 2
#     Edge 42, Type (0, 0), BuildingBlock: ZUJKAS_clean_linker_0, # of connection points: 2
#     Edge 43, Type (0, 0), BuildingBlock: ZUJKAS_clean_linker_0, # of connection points: 2
#     Edge 44, Type (0, 0), BuildingBlock: ZUJKAS_clean_linker_0, # of connection points: 2
#     Edge 45, Type (0, 0), BuildingBlock: ZUJKAS_clean_linker_0, # of connection points: 2
#     Edge 46, Type (0, 0), BuildingBlock: ZUJKAS_clean_linker_0, # of connection points: 2
#     Edge 47, Type (0, 0), BuildingBlock: ZUJKAS_clean_linker_0, # of connection points: 2
#     Edge 48, Type (0, 0), BuildingBlock: ZUJKAS_clean_linker_0, # of connection points: 2
#     Edge 49, Type (0, 0), BuildingBlock: ZUJKAS_clean_linker_0, # of connection points: 2
#     Edge 50, Type (0, 0), BuildingBlock: ZUJKAS_clean_linker_0, # of connection points: 2
#     Edge 51, Type (0, 0), BuildingBlock: ZUJKAS_clean_linker_0, # of connection points: 2
#     Edge 52, Type (0, 0), BuildingBlock: ZUJKAS_clean_linker_0, # of connection points: 2
#     Edge 53, Type (0, 0), BuildingBlock: ZUJKAS_clean_linker_0, # of connection points: 2
#     Edge 54, Type (0, 0), BuildingBlock: ZUJKAS_clean_linker_0, # of connection points: 2
#     Edge 55, Type (0, 0), BuildingBlock: ZUJKAS_clean_linker_0, # of connection points: 2
#     Edge 56, Type (0, 0), BuildingBlock: ZUJKAS_clean_linker_0, # of connection points: 2
#     Edge 57, Type (0, 0), BuildingBlock: ZUJKAS_clean_linker_0, # of connection points: 2
#     Edge 58, Type (0, 0), BuildingBlock: ZUJKAS_clean_linker_0, # of connection points: 2
#     Edge 59, Type (0, 0), BuildingBlock: ZUJKAS_clean_linker_0, # of connection points: 2
#     Edge 60, Type (0, 0), BuildingBlock: ZUJKAS_clean_linker_0, # of connection points: 2
#     Edge 61, Type (0, 0), BuildingBlock: ZUJKAS_clean_linker_0, # of connection points: 2
#     Edge 62, Type (0, 0), BuildingBlock: ZUJKAS_clean_linker_0, # of connection points: 2
#     Edge 63, Type (0, 0), BuildingBlock: ZUJKAS_clean_linker_0, # of connection points: 2
#     Edge 64, Type (0, 0), BuildingBlock: ZUJKAS_clean_linker_0, # of connection points: 2
#     Edge 65, Type (0, 0), BuildingBlock: ZUJKAS_clean_linker_0, # of connection points: 2
#     Edge 66, Type (0, 0), BuildingBlock: ZUJKAS_clean_linker_0, # of connection points: 2
#     Edge 67, Type (0, 0), BuildingBlock: ZUJKAS_clean_linker_0, # of connection points: 2
#     Edge 68, Type (0, 0), BuildingBlock: ZUJKAS_clean_linker_0, # of connection points: 2
#     Edge 69, Type (0, 0), BuildingBlock: ZUJKAS_clean_linker_0, # of connection points: 2
#     Edge 70, Type (0, 0), BuildingBlock: ZUJKAS_clean_linker_0, # of connection points: 2
#     Edge 71, Type (0, 0), BuildingBlock: ZUJKAS_clean_linker_0, # of connection points: 2
#     Edge 72, Type (0, 0), BuildingBlock: ZUJKAS_clean_linker_0, # of connection points: 2
#     Edge 73, Type (0, 0), BuildingBlock: ZUJKAS_clean_linker_0, # of connection points: 2
#     Edge 74, Type (0, 0), BuildingBlock: ZUJKAS_clean_linker_0, # of connection points: 2
#     Edge 75, Type (0, 0), BuildingBlock: ZUJKAS_clean_linker_0, # of connection points: 2
#     Edge 76, Type (0, 0), BuildingBlock: ZUJKAS_clean_linker_0, # of connection points: 2
#     Edge 77, Type (0, 0), BuildingBlock: ZUJKAS_clean_linker_0, # of connection points: 2
#     Edge 78, Type (0, 0), BuildingBlock: ZUJKAS_clean_linker_0, # of connection points: 2
#     Edge 79, Type (0, 0), BuildingBlock: ZUJKAS_clean_linker_0, # of connection points: 2
#     Edge 80, Type (0, 0), BuildingBlock: ZUJKAS_clean_linker_0, # of connection points: 2
#     Edge 81, Type (0, 0), BuildingBlock: ZUJKAS_clean_linker_0, # of connection points: 2
#     Edge 82, Type (0, 0), BuildingBlock: ZUJKAS_clean_linker_0, # of connection points: 2
#     Edge 83, Type (0, 0), BuildingBlock: ZUJKAS_clean_linker_0, # of connection points: 2
#     Edge 84, Type (0, 0), BuildingBlock: ZUJKAS_clean_linker_0, # of connection points: 2
#     Edge 85, Type (0, 0), BuildingBlock: ZUJKAS_clean_linker_0, # of connection points: 2
#     Edge 86, Type (0, 0), BuildingBlock: ZUJKAS_clean_linker_0, # of connection points: 2
#     Edge 87, Type (0, 0), BuildingBlock: ZUJKAS_clean_linker_0, # of connection points: 2
#     Edge 88, Type (0, 0), BuildingBlock: ZUJKAS_clean_linker_0, # of connection points: 2
#     Edge 89, Type (0, 0), BuildingBlock: ZUJKAS_clean_linker_0, # of connection points: 2
#     Edge 90, Type (0, 0), BuildingBlock: ZUJKAS_clean_linker_0, # of connection points: 2
#     Edge 91, Type (0, 0), BuildingBlock: ZUJKAS_clean_linker_0, # of connection points: 2
#     Edge 92, Type (0, 0), BuildingBlock: ZUJKAS_clean_linker_0, # of connection points: 2
#     Edge 93, Type (0, 0), BuildingBlock: ZUJKAS_clean_linker_0, # of connection points: 2
#     Edge 94, Type (0, 0), BuildingBlock: ZUJKAS_clean_linker_0, # of connection points: 2
#     Edge 95, Type (0, 0), BuildingBlock: ZUJKAS_clean_linker_0, # of connection points: 2
# Relax obj value: 0.044
# Max RMSD: 0.062
# Mean RMSD: 0.062
data_MOF--net-uos--node1-QUQFOY_clean_sbu_3--edge1-ZUJKAS_clean_linker_0
_symmetry_space_group_name_H-M    P1
_symmetry_Int_Tables_number       1
_symmetry_cell_setting            triclinic
loop_
_symmetry_equiv_pos_as_xyz
'x, y, z'
_cell_length_a     113.68909
_cell_length_b     113.79289
_cell_length_c     31.341457
_cell_angle_alpha  89.987034
_cell_angle_beta   90.02726
_cell_angle_gamma 89.954439
loop_
_atom_site_label
_atom_site_type_symbol
_atom_site_fract_x
_atom_site_fract_y
_atom_site_fract_z
_atom_type_partial_charge
C0 C 0.15892 0.1799 0.12697 0.0
O1 O 0.15791 0.17924 0.16724 0.0
Cd2 Cd 0.15683 0.16184 0.20905 0.0
O3 O 0.15924 0.17061 0.10413 0.0
Cd4 Cd 0.15838 0.14888 0.11753 0.0
C5 C 0.18311 0.14941 0.1779 0.0
O6 O 0.14356 0.14902 0.17368 0.0
O7 O 0.15291 0.13273 0.16485 0.0
O8 O 0.14552 0.14681 0.0561 0.0
C9 C 0.14485 0.13833 0.18396 0.0
O10 O 0.17674 0.15419 0.20644 0.0
C11 C 0.15129 0.13858 0.03852 0.0
O12 O 0.17895 0.14696 0.14116 0.0
O13 O 0.16075 0.13541 0.05681 0.0
C14 C 0.05102 0.90426 0.37165 0.0
O15 O 0.0521 0.90191 0.41108 0.0
Cd16 Cd 0.06979 0.90341 0.45153 0.0
O17 O 0.05996 0.90712 0.34935 0.0
Cd18 Cd 0.08168 0.90875 0.36073 0.0
C19 C 0.07774 0.93193 0.42643 0.0
O20 O 0.08407 0.89287 0.41205 0.0
O21 O 0.09872 0.90474 0.40649 0.0
O22 O 0.08404 0.89761 0.29543 0.0
C23 C 0.09449 0.89546 0.42274 0.0
O24 O 0.07456 0.92433 0.45398 0.0
C25 C 0.09189 0.90416 0.27925 0.0
O26 O 0.08013 0.92888 0.38823 0.0
O27 O 0.0947 0.91331 0.3002 0.0
C28 C 0.32905 0.79929 0.6154 0.0
O29 O 0.33117 0.79996 0.65511 0.0
Cd30 Cd 0.32919 0.81712 0.69824 0.0
O31 O 0.32618 0.80842 0.59418 0.0
Cd32 Cd 0.32429 0.82994 0.60848 0.0
C33 C 0.30076 0.82537 0.67168 0.0
O34 O 0.33961 0.83212 0.66232 0.0
O35 O 0.3274 0.84652 0.65677 0.0
O36 O 0.33647 0.83324 0.54642 0.0
C37 C 0.3366 0.84235 0.67389 0.0
O38 O 0.30826 0.82188 0.69913 0.0
C39 C 0.32999 0.84103 0.52948 0.0
O40 O 0.30393 0.82814 0.63394 0.0
O41 O 0.32035 0.84335 0.54828 0.0
C42 C 0.43316 0.07599 0.87034 0.0
O43 O 0.43243 0.07806 0.91011 0.0
Cd44 Cd 0.41503 0.07905 0.95259 0.0
O45 O 0.42393 0.0745 0.84775 0.0
Cd46 Cd 0.40219 0.07522 0.85882 0.0
C47 C 0.40324 0.05192 0.92692 0.0
O48 O 0.40258 0.09089 0.91063 0.0
O49 O 0.38557 0.08313 0.90087 0.0
O50 O 0.40106 0.08605 0.7923 0.0
C51 C 0.39177 0.09074 0.9199 0.0
O52 O 0.40754 0.059 0.9543 0.0
C53 C 0.39256 0.08022 0.77678 0.0
O54 O 0.4011 0.05525 0.88881 0.0
O55 O 0.38886 0.07156 0.79863 0.0
C56 C 0.15149 0.80171 0.86043 0.0
O57 O 0.14926 0.80229 0.82078 0.0
Cd58 Cd 0.15121 0.81935 0.7771 0.0
O59 O 0.15439 0.81088 0.88127 0.0
Cd60 Cd 0.15618 0.83237 0.86636 0.0
C61 C 0.1797 0.82736 0.80337 0.0
O62 O 0.14084 0.83447 0.81261 0.0
O63 O 0.15309 0.84884 0.81749 0.0
O64 O 0.14413 0.8359 0.92865 0.0
C65 C 0.14386 0.84467 0.80066 0.0
O66 O 0.1722 0.82386 0.77596 0.0
C67 C 0.15069 0.8437 0.94513 0.0
O68 O 0.1765 0.83032 0.8409 0.0
O69 O 0.1603 0.84591 0.92596 0.0
C70 C 0.42998 0.90306 0.10166 0.0
O71 O 0.4289 0.90119 0.06191 0.0
Cd72 Cd 0.41116 0.90263 0.02178 0.0
O73 O 0.421 0.90544 0.12455 0.0
Cd74 Cd 0.39923 0.90673 0.11327 0.0
C75 C 0.40236 0.93063 0.05044 0.0
O76 O 0.39725 0.8913 0.06003 0.0
O77 O 0.3823 0.90275 0.06688 0.0
O78 O 0.39671 0.89494 0.1771 0.0
C79 C 0.38677 0.89372 0.04964 0.0
O80 O 0.40575 0.92342 0.02185 0.0
C81 C 0.38887 0.90138 0.19392 0.0
O82 O 0.40013 0.92712 0.08823 0.0
O83 O 0.38616 0.91075 0.17408 0.0
C84 C 0.32481 0.18162 0.3524 0.0
O85 O 0.32595 0.18119 0.31209 0.0
Cd86 Cd 0.32859 0.1643 0.26803 0.0
O87 O 0.32501 0.17227 0.37489 0.0
Cd88 Cd 0.32697 0.15069 0.36109 0.0
C89 C 0.30296 0.1501 0.29549 0.0
O90 O 0.34197 0.15239 0.30648 0.0
O91 O 0.33562 0.13487 0.31805 0.0
O92 O 0.33876 0.149 0.42551 0.0
C93 C 0.34248 0.14157 0.29756 0.0
O94 O 0.30924 0.15546 0.26812 0.0
C95 C 0.33306 0.14043 0.44117 0.0
O96 O 0.30695 0.14764 0.3325 0.0
O97 O 0.32406 0.137 0.4206 0.0
C98 C 0.04813 0.08116 0.60637 0.0
O99 O 0.04956 0.08318 0.56686 0.0
Cd100 Cd 0.06748 0.08147 0.52825 0.0
O101 O 0.05686 0.0784 0.62998 0.0
Cd102 Cd 0.07866 0.07651 0.62034 0.0
C103 C 0.07528 0.05306 0.5557 0.0
O104 O 0.08139 0.0922 0.56857 0.0
O105 O 0.09589 0.08017 0.575 0.0
O106 O 0.08102 0.08816 0.68448 0.0
C107 C 0.09183 0.08951 0.55857 0.0
O108 O 0.07231 0.06058 0.52753 0.0
C109 C 0.08876 0.08165 0.70163 0.0
O110 O 0.07734 0.05621 0.59404 0.0
O111 O 0.09142 0.07225 0.68198 0.0
C112 C 0.8237 0.80033 0.85062 0.0
O113 O 0.825 0.80149 0.81056 0.0
Cd114 Cd 0.82749 0.81914 0.77043 0.0
O115 O 0.82346 0.8093 0.87507 0.0
Cd116 Cd 0.82464 0.83108 0.86547 0.0
C117 C 0.8011 0.83182 0.79766 0.0
O118 O 0.84024 0.83046 0.81315 0.0
O119 O 0.83298 0.84763 0.82446 0.0
O120 O 0.83586 0.83181 0.93141 0.0
C121 C 0.84047 0.84134 0.80513 0.0
O122 O 0.80804 0.82784 0.76922 0.0
C123 C 0.83031 0.84042 0.94751 0.0
O124 O 0.80448 0.83304 0.83627 0.0
O125 O 0.82154 0.84428 0.92654 0.0
C126 C 0.92794 0.07756 0.59864 0.0
O127 O 0.92649 0.07862 0.55864 0.0
Cd128 Cd 0.90835 0.07709 0.52077 0.0
O129 O 0.91916 0.07585 0.62317 0.0
Cd130 Cd 0.89737 0.07438 0.61459 0.0
C131 C 0.89902 0.04976 0.55464 0.0
O132 O 0.89455 0.08875 0.55817 0.0
O133 O 0.87997 0.07706 0.56979 0.0
O134 O 0.89368 0.08868 0.66967 0.0
C135 C 0.884 0.08593 0.55014 0.0
O136 O 0.90239 0.05661 0.52492 0.0
C137 C 0.88771 0.08204 0.69385 0.0
O138 O 0.89729 0.05362 0.59236 0.0
O139 O 0.88662 0.07138 0.68241 0.0
C140 C 0.64834 0.18509 0.35623 0.0
O141 O 0.64567 0.18457 0.31687 0.0
Cd142 Cd 0.64369 0.16753 0.27283 0.0
O143 O 0.65013 0.17575 0.37786 0.0
Cd144 Cd 0.64925 0.1541 0.36519 0.0
C145 C 0.67103 0.15506 0.29021 0.0
O146 O 0.63278 0.15477 0.31671 0.0
O147 O 0.64049 0.13769 0.32479 0.0
O148 O 0.63971 0.1521 0.434 0.0
C149 C 0.63275 0.14401 0.30689 0.0
O150 O 0.66351 0.15967 0.26507 0.0
C151 C 0.64617 0.14375 0.44721 0.0
O152 O 0.66844 0.15284 0.32902 0.0
O153 O 0.65455 0.14056 0.423 0.0
C154 C 0.54995 0.9096 0.10276 0.0
O155 O 0.55135 0.90941 0.06258 0.0
Cd156 Cd 0.56953 0.90831 0.02475 0.0
O157 O 0.5588 0.90923 0.12776 0.0
Cd158 Cd 0.58062 0.90848 0.11861 0.0
C159 C 0.5823 0.93371 0.06163 0.0
O160 O 0.5816 0.89442 0.06031 0.0
O161 O 0.59751 0.90413 0.07321 0.0
O162 O 0.58341 0.89351 0.17233 0.0
C163 C 0.59244 0.89598 0.05269 0.0
O164 O 0.57826 0.92765 0.03078 0.0
C165 C 0.58991 0.89956 0.19676 0.0
O166 O 0.58328 0.92929 0.09889 0.0
O167 O 0.59172 0.91019 0.18614 0.0
C168 C 0.81757 0.17952 0.12622 0.0
O169 O 0.81719 0.17855 0.16656 0.0
Cd170 Cd 0.81692 0.16079 0.20697 0.0
O171 O 0.8178 0.17041 0.10254 0.0
Cd172 Cd 0.81725 0.14875 0.11509 0.0
C173 C 0.79127 0.1491 0.16777 0.0
O174 O 0.83062 0.14775 0.17544 0.0
O175 O 0.82011 0.13227 0.16421 0.0
O176 O 0.83292 0.14448 0.06554 0.0
C177 C 0.82843 0.13713 0.18459 0.0
O178 O 0.79724 0.15296 0.19915 0.0
C179 C 0.82693 0.13812 0.04045 0.0
O180 O 0.79601 0.14761 0.13125 0.0
O181 O 0.81602 0.13709 0.04848 0.0
C182 C 0.55112 0.07025 0.87356 0.0
O183 O 0.5515 0.07184 0.91369 0.0
Cd184 Cd 0.56803 0.07728 0.95666 0.0
O185 O 0.56037 0.07116 0.85077 0.0
Cd186 Cd 0.58162 0.075 0.86445 0.0
C187 C 0.58472 0.0528 0.93712 0.0
O188 O 0.57833 0.09095 0.91417 0.0
O189 O 0.59642 0.08594 0.9057 0.0
O190 O 0.58238 0.08537 0.79683 0.0
C191 C 0.58902 0.09267 0.92343 0.0
O192 O 0.57944 0.05943 0.96363 0.0
C193 C 0.59163 0.08034 0.78336 0.0
O194 O 0.58588 0.05579 0.89809 0.0
O195 O 0.5959 0.07224 0.80665 0.0
C196 C 0.65167 0.79768 0.63035 0.0
O197 O 0.65057 0.79864 0.67051 0.0
Cd198 Cd 0.6527 0.81622 0.71116 0.0
O199 O 0.6536 0.8067 0.60724 0.0
Cd200 Cd 0.65504 0.82835 0.61963 0.0
C201 C 0.67994 0.82614 0.67764 0.0
O202 O 0.64094 0.83059 0.67732 0.0
O203 O 0.65295 0.84505 0.66803 0.0
O204 O 0.64019 0.83344 0.56808 0.0
C205 C 0.644 0.84095 0.68706 0.0
O206 O 0.67323 0.82224 0.70693 0.0
C207 C 0.64677 0.83936 0.54356 0.0
O208 O 0.67591 0.82842 0.64054 0.0
O209 O 0.65766 0.83974 0.55282 0.0
C210 C 0.93173 0.90744 0.37696 0.0
O211 O 0.9309 0.90619 0.41716 0.0
Cd212 Cd 0.91368 0.903 0.45937 0.0
O213 O 0.9226 0.90727 0.35323 0.0
Cd214 Cd 0.90091 0.90546 0.36436 0.0
C215 C 0.89979 0.92885 0.4329 0.0
O216 O 0.90218 0.89019 0.4177 0.0
O217 O 0.88475 0.89678 0.40625 0.0
O218 O 0.8998 0.89417 0.29863 0.0
C219 C 0.89134 0.88976 0.42654 0.0
O220 O 0.90426 0.92208 0.46091 0.0
C221 C 0.89119 0.89981 0.28291 0.0
O222 O 0.89842 0.92546 0.39436 0.0
O223 O 0.88745 0.90857 0.30411 0.0
C224 C 0.65873 0.67793 0.62923 0.0
O225 O 0.6584 0.67641 0.66935 0.0
Cd226 Cd 0.65895 0.65812 0.70658 0.0
O227 O 0.65933 0.66916 0.60397 0.0
Cd228 Cd 0.66039 0.64734 0.61198 0.0
C229 C 0.68565 0.64831 0.66921 0.0
O230 O 0.64647 0.64489 0.67002 0.0
O231 O 0.65757 0.62996 0.65666 0.0
O232 O 0.64578 0.64415 0.55732 0.0
C233 C 0.64903 0.63425 0.67751 0.0
O234 O 0.67913 0.65146 0.70018 0.0
C235 C 0.65216 0.63788 0.53315 0.0
O236 O 0.68142 0.64702 0.63175 0.0
O237 O 0.66281 0.63641 0.5444 0.0
C238 C 0.54921 0.39793 0.87428 0.0
O239 O 0.55033 0.39497 0.91313 0.0
Cd240 Cd 0.5679 0.39656 0.95429 0.0
O241 O 0.55807 0.4014 0.85275 0.0
Cd242 Cd 0.57976 0.40334 0.86419 0.0
C243 C 0.57509 0.42561 0.93333 0.0
O244 O 0.58278 0.38717 0.91396 0.0
O245 O 0.59694 0.39965 0.90907 0.0
O246 O 0.58255 0.39263 0.79819 0.0
C247 C 0.59309 0.39015 0.92482 0.0
O248 O 0.57187 0.41761 0.95928 0.0
C249 C 0.59006 0.39961 0.78226 0.0
O250 O 0.57786 0.42309 0.89494 0.0
O251 O 0.59246 0.40879 0.80368 0.0
C252 C 0.8318 0.29781 0.12253 0.0
O253 O 0.83429 0.29864 0.16192 0.0
Cd254 Cd 0.83396 0.31615 0.20379 0.0
O255 O 0.82931 0.30693 0.10066 0.0
Cd256 Cd 0.82873 0.32859 0.11337 0.0
C257 C 0.80584 0.32602 0.18111 0.0
O258 O 0.84478 0.3302 0.16454 0.0
O259 O 0.83338 0.34526 0.15942 0.0
O260 O 0.84013 0.33132 0.04901 0.0
C261 C 0.8425 0.34066 0.17561 0.0
O262 O 0.81342 0.32227 0.20783 0.0
C263 C 0.83364 0.33927 0.03307 0.0
O264 O 0.80873 0.32824 0.14261 0.0
O265 O 0.82433 0.34188 0.05347 0.0
C266 C 0.93198 0.57163 0.37072 0.0
O267 O 0.93126 0.57285 0.4109 0.0
Cd268 Cd 0.91375 0.57442 0.45231 0.0
O269 O 0.92273 0.57111 0.34774 0.0
Cd270 Cd 0.90109 0.57151 0.36124 0.0
C271 C 0.90226 0.54755 0.42516 0.0
O272 O 0.90095 0.5871 0.41435 0.0
O273 O 0.88493 0.57716 0.40864 0.0
O274 O 0.89897 0.58337 0.29742 0.0
C275 C 0.89034 0.58572 0.42544 0.0
O276 O 0.90603 0.55455 0.45375 0.0
C277 C 0.89054 0.57752 0.28155 0.0
O278 O 0.9006 0.55106 0.38695 0.0
O279 O 0.8873 0.56841 0.30185 0.0
C280 C 0.66134 0.30279 0.35821 0.0
O281 O 0.66056 0.3036 0.3179 0.0
Cd282 Cd 0.65901 0.32116 0.27681 0.0
O283 O 0.66139 0.31197 0.38157 0.0
Cd284 Cd 0.66069 0.33363 0.36836 0.0
C285 C 0.68534 0.33312 0.30767 0.0
O286 O 0.6456 0.3335 0.31334 0.0
O287 O 0.65515 0.3497 0.32023 0.0
O288 O 0.64809 0.33558 0.43047 0.0
C289 C 0.64682 0.34415 0.30256 0.0
O290 O 0.67872 0.32931 0.27799 0.0
C291 C 0.65367 0.34407 0.4472 0.0
O292 O 0.6814 0.33459 0.34541 0.0
O293 O 0.66298 0.34739 0.42832 0.0
C294 C 0.93429 0.40036 0.60767 0.0
O295 O 0.93328 0.39803 0.56821 0.0
Cd296 Cd 0.91557 0.39858 0.52748 0.0
O297 O 0.92526 0.4028 0.63014 0.0
Cd298 Cd 0.90351 0.40352 0.61838 0.0
C299 C 0.90603 0.42664 0.55156 0.0
O300 O 0.90179 0.38752 0.56726 0.0
O301 O 0.88667 0.39881 0.57276 0.0
O302 O 0.90095 0.39242 0.68368 0.0
C303 C 0.89128 0.38972 0.55649 0.0
O304 O 0.90959 0.41919 0.52409 0.0
C305 C 0.89305 0.39902 0.69937 0.0
O306 O 0.90394 0.42354 0.58993 0.0
O307 O 0.89036 0.40816 0.67821 0.0
C308 C 0.83193 0.68079 0.85358 0.0
O309 O 0.8347 0.67972 0.81453 0.0
Cd310 Cd 0.83472 0.662 0.77401 0.0
O311 O 0.82934 0.67179 0.87593 0.0
Cd312 Cd 0.8289 0.65008 0.8646 0.0
C313 C 0.80642 0.65252 0.7947 0.0
O314 O 0.84524 0.64802 0.81489 0.0
O315 O 0.83368 0.63313 0.81984 0.0
O316 O 0.83994 0.64762 0.93006 0.0
C317 C 0.84293 0.63756 0.80404 0.0
O318 O 0.81419 0.65606 0.76841 0.0
C319 C 0.83336 0.63978 0.94603 0.0
O320 O 0.80906 0.65044 0.83357 0.0
O321 O 0.82415 0.63711 0.92511 0.0
C322 C 0.55132 0.57856 0.10376 0.0
O323 O 0.55194 0.57952 0.06348 0.0
Cd324 Cd 0.56861 0.57479 0.02101 0.0
O325 O 0.56033 0.57563 0.12558 0.0
Cd326 Cd 0.58166 0.57194 0.11095 0.0
C327 C 0.57525 0.54688 0.05853 0.0
O328 O 0.58461 0.58512 0.05114 0.0
O329 O 0.59807 0.57195 0.06031 0.0
O330 O 0.58814 0.5869 0.15973 0.0
C331 C 0.59457 0.58104 0.04056 0.0
O332 O 0.57158 0.55371 0.02919 0.0
C333 C 0.59372 0.58021 0.18492 0.0
O334 O 0.57909 0.55101 0.09375 0.0
O335 O 0.59333 0.56924 0.17724 0.0
C336 C 0.32875 0.2999 0.36083 0.0
O337 O 0.33107 0.30079 0.32132 0.0
Cd338 Cd 0.32926 0.31819 0.2795 0.0
O339 O 0.32583 0.30892 0.38253 0.0
Cd340 Cd 0.32413 0.33056 0.36985 0.0
C341 C 0.30072 0.32618 0.3057 0.0
O342 O 0.33968 0.33288 0.31714 0.0
O343 O 0.32753 0.34733 0.32251 0.0
O344 O 0.33608 0.33323 0.433 0.0
C345 C 0.33681 0.34318 0.30592 0.0
O346 O 0.3083 0.32284 0.27831 0.0
C347 C 0.32972 0.34111 0.44999 0.0
O348 O 0.3038 0.32883 0.34365 0.0
O349 O 0.32024 0.34377 0.43068 0.0
C350 C 0.43244 0.58004 0.10402 0.0
O351 O 0.43115 0.58213 0.0645 0.0
Cd352 Cd 0.41312 0.58179 0.02577 0.0
O353 O 0.42357 0.5777 0.12745 0.0
Cd354 Cd 0.40179 0.57649 0.11741 0.0
C355 C 0.40399 0.55361 0.04904 0.0
O356 O 0.39983 0.59285 0.06797 0.0
O357 O 0.38461 0.58176 0.07395 0.0
O358 O 0.39998 0.58707 0.18419 0.0
C359 C 0.3892 0.59093 0.05827 0.0
O360 O 0.40723 0.56122 0.02164 0.0
C361 C 0.39206 0.58054 0.20001 0.0
O362 O 0.40221 0.55652 0.08781 0.0
O363 O 0.38897 0.57167 0.17813 0.0
C364 C 0.15875 0.68393 0.85695 0.0
O365 O 0.15745 0.68345 0.81674 0.0
Cd366 Cd 0.15533 0.66629 0.77406 0.0
O367 O 0.15897 0.67457 0.87937 0.0
Cd368 Cd 0.15761 0.65296 0.86514 0.0
C369 C 0.18152 0.65299 0.80008 0.0
O370 O 0.14212 0.65389 0.8117 0.0
O371 O 0.15033 0.637 0.81986 0.0
O372 O 0.14589 0.65097 0.92947 0.0
C373 C 0.14253 0.64314 0.80147 0.0
O374 O 0.17497 0.65806 0.77271 0.0
C375 C 0.15181 0.64256 0.94524 0.0
O376 O 0.17771 0.65056 0.83732 0.0
O377 O 0.16084 0.63927 0.92456 0.0
C378 C 0.05335 0.40943 0.59938 0.0
O379 O 0.05431 0.40846 0.55916 0.0
Cd380 Cd 0.07207 0.40726 0.51894 0.0
O381 O 0.06247 0.40985 0.62307 0.0
Cd382 Cd 0.08421 0.40953 0.61128 0.0
C383 C 0.08352 0.43393 0.54943 0.0
O384 O 0.08471 0.39436 0.55654 0.0
O385 O 0.10066 0.40431 0.56448 0.0
O386 O 0.08599 0.39698 0.67356 0.0
C387 C 0.09539 0.39584 0.54647 0.0
O388 O 0.07985 0.42711 0.52009 0.0
C389 C 0.09433 0.40262 0.69093 0.0
O390 O 0.08497 0.4302 0.58749 0.0
O391 O 0.09765 0.41198 0.67233 0.0
C392 C 0.32481 0.68148 0.62014 0.0
O393 O 0.32603 0.68108 0.66038 0.0
Cd394 Cd 0.32741 0.66403 0.70386 0.0
O395 O 0.32441 0.67206 0.5981 0.0
Cd396 Cd 0.32538 0.65048 0.6138 0.0
C397 C 0.30098 0.6515 0.67562 0.0
O398 O 0.34047 0.65088 0.66898 0.0
O399 O 0.33096 0.63465 0.66252 0.0
O400 O 0.33803 0.64762 0.55227 0.0
C401 C 0.33916 0.6403 0.68055 0.0
O402 O 0.3075 0.65643 0.70336 0.0
C403 C 0.33207 0.63935 0.53585 0.0
O404 O 0.30495 0.64881 0.63884 0.0
O405 O 0.32256 0.63658 0.55465 0.0
C406 C 0.04979 0.58061 0.3696 0.0
O407 O 0.0503 0.58261 0.40942 0.0
Cd408 Cd 0.06762 0.58247 0.45226 0.0
O409 O 0.05913 0.57874 0.34812 0.0
Cd410 Cd 0.08073 0.57878 0.36282 0.0
C411 C 0.07867 0.55507 0.42752 0.0
O412 O 0.08107 0.59459 0.41506 0.0
O413 O 0.09702 0.58452 0.40991 0.0
O414 O 0.08321 0.59043 0.29878 0.0
C415 C 0.09166 0.59314 0.42637 0.0
O416 O 0.07442 0.56215 0.45498 0.0
C417 C 0.09151 0.58433 0.28319 0.0
O418 O 0.08108 0.55854 0.38983 0.0
O419 O 0.09448 0.57516 0.30369 0.0
C420 C 0.15187 0.29864 0.11821 0.0
O421 O 0.14963 0.29963 0.15774 0.0
Cd422 Cd 0.1512 0.31715 0.1991 0.0
O423 O 0.15465 0.30762 0.09605 0.0
Cd424 Cd 0.15626 0.32929 0.10822 0.0
C425 C 0.17964 0.32535 0.17321 0.0
O426 O 0.14068 0.33169 0.16089 0.0
O427 O 0.15274 0.34618 0.15486 0.0
O428 O 0.14454 0.33227 0.04447 0.0
C429 C 0.14351 0.34203 0.17175 0.0
O430 O 0.17211 0.32205 0.20082 0.0
C431 C 0.1512 0.33993 0.0277 0.0
O432 O 0.17652 0.32779 0.1351 0.0
O433 O 0.16067 0.34232 0.04748 0.0
C434 C 0.42956 0.40676 0.88101 0.0
O435 O 0.4283 0.40589 0.92114 0.0
Cd436 Cd 0.41025 0.4054 0.95979 0.0
O437 O 0.42062 0.40746 0.85651 0.0
Cd438 Cd 0.39879 0.40787 0.86642 0.0
C439 C 0.39992 0.43237 0.92779 0.0
O440 O 0.39754 0.39276 0.92121 0.0
O441 O 0.38188 0.40307 0.91168 0.0
O442 O 0.3969 0.39566 0.80313 0.0
C443 C 0.38683 0.39451 0.93028 0.0
O444 O 0.40322 0.42556 0.95775 0.0
C445 C 0.38888 0.40175 0.78563 0.0
O446 O 0.39853 0.42852 0.8899 0.0
O447 O 0.38579 0.41109 0.8048 0.0
H448 H 0.28899 0.13256 0.32814 0.0
H449 H 0.26888 0.12752 0.30601 0.0
H450 H 0.26923 0.1563 0.2163 0.0
H451 H 0.28931 0.16094 0.23657 0.0
H452 H 0.24936 0.13868 0.31152 0.0
H453 H 0.25678 0.13163 0.14033 0.0
H454 H 0.26883 0.13282 0.17757 0.0
H455 H 0.2624 0.14581 0.15402 0.0
C456 C 0.28477 0.13771 0.30343 0.0
C457 C 0.29075 0.14705 0.28374 0.0
C458 C 0.27331 0.13481 0.29072 0.0
C459 C 0.26765 0.1413 0.25846 0.0
C460 C 0.27355 0.15083 0.23982 0.0
H461 H 0.19693 0.16087 0.23468 0.0
H462 H 0.21718 0.15653 0.25411 0.0
C463 C 0.28501 0.15356 0.25183 0.0
C464 C 0.25528 0.13882 0.24616 0.0
H465 H 0.23706 0.13854 0.15965 0.0
C466 C 0.2467 0.13838 0.2783 0.0
C467 C 0.25174 0.13799 0.20292 0.0
C468 C 0.26048 0.13694 0.16689 0.0
C469 C 0.23468 0.13815 0.26827 0.0
C470 C 0.23114 0.13892 0.225 0.0
C471 C 0.23972 0.13831 0.19288 0.0
C472 C 0.21877 0.14138 0.21263 0.0
C473 C 0.22593 0.13727 0.30433 0.0
C474 C 0.21308 0.13476 0.18087 0.0
C475 C 0.20155 0.13748 0.16861 0.0
C476 C 0.19551 0.1468 0.18829 0.0
C477 C 0.20129 0.15351 0.21946 0.0
C478 C 0.21284 0.15095 0.23099 0.0
H479 H 0.2296 0.13205 0.33119 0.0
H480 H 0.22401 0.1462 0.31673 0.0
H481 H 0.21757 0.13314 0.29384 0.0
H482 H 0.21753 0.12743 0.1658 0.0
H483 H 0.19727 0.13217 0.1445 0.0
H484 H 0.08037 0.95132 0.37516 0.0
H485 H 0.08092 0.97198 0.39742 0.0
H486 H 0.07736 0.96143 0.52887 0.0
H487 H 0.07677 0.94084 0.50719 0.0
H488 H 0.06216 0.98349 0.44924 0.0
H489 H 0.10638 0.98443 0.52522 0.0
H490 H 0.10225 0.9735 0.48615 0.0
H491 H 0.09693 0.97242 0.5399 0.0
C492 C 0.07979 0.95339 0.40882 0.0
C493 C 0.07851 0.94442 0.43937 0.0
C494 C 0.0801 0.96518 0.42144 0.0
C495 C 0.0793 0.96817 0.46478 0.0
C496 C 0.07814 0.95927 0.49533 0.0
H497 H 0.07792 0.03375 0.60757 0.0
H498 H 0.07879 0.01307 0.58574 0.0
C499 C 0.07774 0.94751 0.48278 0.0
C500 C 0.07909 0.98063 0.47812 0.0
H501 H 0.09445 0.00132 0.53387 0.0
C502 C 0.06924 0.98744 0.46751 0.0
C503 C 0.08828 0.98564 0.5024 0.0
C504 C 0.09912 0.97868 0.51396 0.0
C505 C 0.06824 -0.00086 0.48107 0.0
C506 C 0.07751 0.00424 0.5049 0.0
C507 C 0.08736 -0.00261 0.5156 0.0
C508 C 0.07724 0.01674 0.5182 0.0
C509 C 0.05713 0.00583 0.47064 0.0
C510 C 0.07633 0.02563 0.48745 0.0
C511 C 0.07574 0.0374 0.49977 0.0
C512 C 0.07622 0.04054 0.54316 0.0
C513 C 0.07748 0.03163 0.57393 0.0
C514 C 0.07799 0.01981 0.56151 0.0
H515 H 0.04967 -0.0002 0.46393 0.0
H516 H 0.05459 0.01177 0.49719 0.0
H517 H 0.05862 0.01124 0.4417 0.0
H518 H 0.07607 0.02348 0.4538 0.0
H519 H 0.07493 0.04403 0.47515 0.0
H520 H 0.18888 0.8253 0.72332 0.0
H521 H 0.20955 0.82577 0.70234 0.0
H522 H 0.2197 0.83112 0.8334 0.0
H523 H 0.19895 0.83074 0.85497 0.0
H524 H 0.22722 0.84521 0.72292 0.0
H525 H 0.23785 0.80068 0.78613 0.0
H526 H 0.22301 0.80504 0.77285 0.0
H527 H 0.22985 0.8106 0.82026 0.0
C528 C 0.19548 0.82659 0.74782 0.0
C529 C 0.19226 0.82792 0.79092 0.0
C530 C 0.20728 0.82689 0.73567 0.0
C531 C 0.21609 0.82841 0.76636 0.0
C532 C 0.21297 0.82987 0.80934 0.0
H533 H 0.29182 0.82405 0.7522 0.0
H534 H 0.27133 0.82544 0.77425 0.0
C535 C 0.20113 0.82967 0.82156 0.0
C536 C 0.22856 0.82829 0.75317 0.0
H537 H 0.25329 0.81133 0.75457 0.0
C538 C 0.23296 0.83784 0.72984 0.0
C539 C 0.23595 0.81864 0.76232 0.0
C540 C 0.23148 0.80809 0.78656 0.0
C541 C 0.24469 0.83806 0.71583 0.0
C542 C 0.25207 0.82831 0.72445 0.0
C543 C 0.24762 0.81878 0.74789 0.0
C544 C 0.26452 0.82788 0.71039 0.0
C545 C 0.24912 0.84883 0.69285 0.0
C546 C 0.26753 0.82874 0.66701 0.0
C547 C 0.27931 0.82804 0.65422 0.0
C548 C 0.28825 0.82629 0.68457 0.0
C549 C 0.28517 0.82536 0.72791 0.0
C550 C 0.27344 0.82616 0.74064 0.0
H551 H 0.24353 0.85663 0.69943 0.0
H552 H 0.25831 0.8509 0.70222 0.0
H553 H 0.24894 0.84721 0.65795 0.0
H554 H 0.26076 0.82978 0.64299 0.0
H555 H 0.28138 0.82871 0.62058 0.0
H556 H 0.39938 0.03278 0.87548 0.0
H557 H 0.39758 0.01222 0.8976 0.0
H558 H 0.4004 0.02266 0.02951 0.0
H559 H 0.40252 0.04311 0.00774 0.0
H560 H 0.41516 0.00503 0.011 0.0
H561 H 0.37067 -0.00582 0.95023 0.0
H562 H 0.38025 -5e-05 0.9099 0.0
H563 H 0.37595 0.0091 0.95405 0.0
C564 C 0.39947 0.0307 0.9092 0.0
C565 C 0.40113 0.03958 0.93982 0.0
C566 C 0.39836 0.01895 0.92182 0.0
C567 C 0.39871 0.01591 0.96526 0.0
C568 C 0.40009 0.0248 -0.00416 0.0
H569 H 0.3984 0.94929 0.1041 0.0
H570 H 0.39699 0.97012 0.08474 0.0
C571 C 0.40131 0.03649 0.98329 0.0
C572 C 0.39846 0.00344 0.97894 0.0
H573 H 0.38254 0.97804 0.97318 0.0
C574 C 0.40797 -0.00084 0.00307 0.0
C575 C 0.38908 -0.00421 0.96855 0.0
C576 C 0.37835 0.0 0.94462 0.0
C577 C 0.40846 0.9874 0.01633 0.0
C578 C 0.39917 0.97975 0.00539 0.0
C579 C 0.38963 0.98398 0.98149 0.0
C580 C 0.39947 0.96717 0.01716 0.0
C581 C 0.41903 0.98316 0.04106 0.0
C582 C 0.40115 0.95867 0.98545 0.0
C583 C 0.40202 0.94681 -0.00366 0.0
C584 C 0.40112 0.94321 0.03919 0.0
C585 C 0.39917 0.95176 0.07084 0.0
C586 C 0.39838 0.96366 0.05989 0.0
H587 H 0.42629 0.98969 0.041 0.0
H588 H 0.41644 0.98148 0.07465 0.0
H589 H 0.42235 0.97477 0.02752 0.0
H590 H 0.402 0.96125 0.9523 0.0
H591 H 0.40345 0.94047 0.97109 0.0
H592 H 0.78165 0.83298 0.84941 0.0
H593 H 0.76102 0.83401 0.82659 0.0
H594 H 0.77212 0.83721 0.69555 0.0
H595 H 0.79264 0.83592 0.71783 0.0
H596 H 0.7477 0.85021 0.77984 0.0
H597 H 0.75171 0.80787 0.69298 0.0
H598 H 0.76282 0.81303 0.72955 0.0
H599 H 0.76208 0.81881 0.67619 0.0
C600 C 0.77969 0.83406 0.81582 0.0
C601 C 0.78876 0.83418 0.78537 0.0
C602 C 0.76791 0.83462 0.80282 0.0
C603 C 0.76506 0.83538 0.75928 0.0
C604 C 0.77413 0.83629 0.72918 0.0
H605 H 0.69795 0.83179 0.62274 0.0
H606 H 0.7187 0.8351 0.64099 0.0
C607 C 0.78585 0.83561 0.74204 0.0
C608 C 0.75265 0.83467 0.74503 0.0
H609 H 0.73377 0.81818 0.68499 0.0
C610 C 0.74464 0.84322 0.75912 0.0
C611 C 0.7487 0.82551 0.71799 0.0
C612 C 0.75674 0.81572 0.70358 0.0
C613 C 0.73278 0.84288 0.74666 0.0
C614 C 0.72885 0.83371 0.71977 0.0
C615 C 0.73687 0.82525 0.70528 0.0
C616 C 0.71629 0.83224 0.70867 0.0
C617 C 0.72453 0.85234 0.7622 0.0
C618 C 0.70817 0.8294 0.74062 0.0
C619 C 0.69641 0.82741 0.73035 0.0
C620 C 0.6925 0.82823 0.68782 0.0
C621 C 0.70067 0.83112 0.65578 0.0
C622 C 0.7125 0.83302 0.66613 0.0
H623 H 0.72938 0.86023 0.77351 0.0
H624 H 0.71834 0.85503 0.73656 0.0
H625 H 0.71928 0.84888 0.78926 0.0
H626 H 0.71098 0.82855 0.77352 0.0
H627 H 0.69038 0.82523 0.75589 0.0
H628 H 0.89685 0.94822 0.38158 0.0
H629 H 0.8946 0.9687 0.40482 0.0
H630 H 0.89361 0.95734 0.53605 0.0
H631 H 0.8961 0.937 0.51336 0.0
H632 H 0.87779 0.98066 0.45461 0.0
H633 H 0.92144 0.97992 0.53419 0.0
H634 H 0.91672 0.96852 0.49804 0.0
H635 H 0.91158 0.96867 0.55229 0.0
C636 C 0.89602 0.95009 0.41533 0.0
C637 C 0.89685 0.94102 0.44566 0.0
C638 C 0.89475 0.96178 0.42855 0.0
C639 C 0.89423 0.96453 0.4722 0.0
C640 C 0.89431 0.95543 0.50229 0.0
H641 H 0.89524 0.03139 0.61004 0.0
H642 H 0.89283 0.01054 0.5918 0.0
C643 C 0.89569 0.9438 0.4892 0.0
C644 C 0.89414 0.97693 0.48655 0.0
H645 H 0.90985 -0.00305 0.54436 0.0
C646 C 0.88479 0.98424 0.47421 0.0
C647 C 0.90331 0.98156 0.51215 0.0
C648 C 0.91389 0.97431 0.52466 0.0
C649 C 0.88433 -0.00395 0.48705 0.0
C650 C 0.89351 0.00066 0.51248 0.0
C651 C 0.90278 -0.00667 0.52521 0.0
C652 C 0.89415 0.01327 0.52365 0.0
C653 C 0.87401 0.00351 0.47348 0.0
C654 C 0.89578 0.02162 0.49138 0.0
C655 C 0.89725 0.03345 0.50163 0.0
C656 C 0.89713 0.03719 0.54445 0.0
C657 C 0.89536 0.0288 0.57679 0.0
C658 C 0.89397 0.01691 0.56644 0.0
H659 H 0.86635 -0.00195 0.46394 0.0
H660 H 0.87127 0.00953 0.49956 0.0
H661 H 0.87661 0.00895 0.44565 0.0
H662 H 0.89618 0.01895 0.45823 0.0
H663 H 0.89857 0.03965 0.47586 0.0
H664 H 0.6908 0.14915 0.33569 0.0
H665 H 0.71069 0.14598 0.30784 0.0
H666 H 0.69801 0.15154 0.17971 0.0
H667 H 0.67823 0.15498 0.20716 0.0
H668 H 0.71966 0.12985 0.24975 0.0
H669 H 0.72435 0.17546 0.1886 0.0
H670 H 0.71261 0.17117 0.22403 0.0
H671 H 0.71181 0.16771 0.16812 0.0
C672 C 0.69225 0.14968 0.30159 0.0
C673 C 0.68296 0.15247 0.27373 0.0
C674 C 0.7036 0.14784 0.28573 0.0
C675 C 0.70585 0.14875 0.24179 0.0
C676 C 0.69652 0.15109 0.21381 0.0
H677 H 0.77373 0.14758 0.10758 0.0
H678 H 0.7525 0.14577 0.12095 0.0
C679 C 0.68521 0.15302 0.22961 0.0
C680 C 0.71801 0.14748 0.22537 0.0
H681 H 0.73989 0.16234 0.17389 0.0
C682 C 0.72407 0.13693 0.23302 0.0
C683 C 0.72372 0.15672 0.20337 0.0
C684 C 0.71785 0.16844 0.19582 0.0
C685 C 0.73576 0.13544 0.21971 0.0
C686 C 0.74153 0.14477 0.19855 0.0
C687 C 0.73538 0.15517 0.18978 0.0
C688 C 0.75429 0.14447 0.18952 0.0
C689 C 0.74191 0.12395 0.22872 0.0
C690 C 0.76226 0.14429 0.22362 0.0
C691 C 0.77428 0.14542 0.21618 0.0
C692 C 0.77861 0.14675 0.17441 0.0
C693 C 0.77066 0.14652 0.14006 0.0
C694 C 0.75855 0.14551 0.14763 0.0
H695 H 0.73551 0.11671 0.2338 0.0
H696 H 0.74789 0.12152 0.20214 0.0
H697 H 0.74726 0.12486 0.25816 0.0
H698 H 0.75914 0.1437 0.25621 0.0
H699 H 0.78018 0.14551 0.24335 0.0
H700 H 0.589 0.04609 0.01896 0.0
H701 H 0.5928 0.02628 0.04528 0.0
H702 H 0.5928 0.01321 0.91607 0.0
H703 H 0.58928 0.03313 0.88934 0.0
H704 H 0.57747 0.00876 0.03501 0.0
H705 H 0.62031 -0.00454 0.96643 0.0
H706 H 0.61548 0.01058 0.96781 0.0
H707 H 0.61029 0.00083 0.92671 0.0
C708 C 0.59005 0.03904 -0.00397 0.0
C709 C 0.58875 0.04115 0.95205 0.0
C710 C 0.59225 0.02773 0.01116 0.0
C711 C 0.59317 0.01827 0.98269 0.0
C712 C 0.59238 0.02041 0.93861 0.0
H713 H 0.58371 0.94469 0.9846 0.0
H714 H 0.58786 0.9653 0.97043 0.0
C715 C 0.5903 0.03179 0.92336 0.0
C716 C 0.59345 0.00609 -0.00062 0.0
H717 H 0.60785 0.97983 -0.0083 0.0
C718 C 0.58424 0.00249 0.02618 0.0
C719 C 0.60228 -0.00208 0.98778 0.0
C720 C 0.61271 0.00142 0.96095 0.0
C721 C 0.58329 -0.00918 0.0401 0.0
C722 C 0.59188 0.98257 0.02727 0.0
C723 C 0.6013 0.98622 0.00155 0.0
C724 C 0.59051 0.96991 0.03664 0.0
C725 C 0.5728 0.98728 0.06666 0.0
C726 C 0.59085 0.96564 0.07866 0.0
C727 C 0.58843 0.95379 0.08703 0.0
C728 C 0.58563 0.94609 0.05345 0.0
C729 C 0.58571 0.95038 0.01133 0.0
C730 C 0.58816 0.96216 0.00305 0.0
H731 H 0.56601 -0.0057 0.068 0.0
H732 H 0.5687 0.97918 0.05367 0.0
H733 H 0.57572 0.98539 0.09974 0.0
H734 H 0.59278 0.9715 0.10496 0.0
H735 H 0.58851 0.95075 0.11977 0.0
H736 H 0.70378 0.64724 0.61126 0.0
H737 H 0.72491 0.64587 0.62714 0.0
H738 H 0.71717 0.64403 0.76163 0.0
H739 H 0.69622 0.64539 0.74631 0.0
H740 H 0.73713 0.66252 0.68129 0.0
H741 H 0.74085 0.61686 0.7419 0.0
H742 H 0.72873 0.62173 0.70897 0.0
H743 H 0.729 0.62517 0.76494 0.0
C744 C 0.70659 0.64637 0.64413 0.0
C745 C 0.69833 0.64647 0.67752 0.0
C746 C 0.71864 0.6456 0.65313 0.0
C747 C 0.72255 0.64471 0.69551 0.0
C748 C 0.71431 0.64451 0.72869 0.0
H749 H 0.78659 0.6479 0.84185 0.0
H750 H 0.76641 0.64574 0.81549 0.0
C751 C 0.70234 0.64538 0.71982 0.0
C752 C 0.73524 0.64497 0.70586 0.0
H753 H 0.75682 0.62976 0.75775 0.0
C754 C 0.74152 0.65531 0.69742 0.0
C755 C 0.74084 0.63558 0.72733 0.0
C756 C 0.73455 0.62416 0.73605 0.0
C757 C 0.75317 0.65669 0.71132 0.0
C758 C 0.75874 0.64735 0.73337 0.0
C759 C 0.75252 0.63691 0.741 0.0
C760 C 0.77098 0.64832 0.74911 0.0
C761 C 0.75923 0.6683 0.70378 0.0
C762 C 0.78023 0.65027 0.72046 0.0
C763 C 0.79172 0.6516 0.73539 0.0
C764 C 0.79421 0.65085 0.77931 0.0
C765 C 0.78496 0.64857 0.80789 0.0
C766 C 0.77344 0.64732 0.79288 0.0
H767 H 0.75283 0.67544 0.69689 0.0
H768 H 0.7646 0.67089 0.73186 0.0
H769 H 0.76518 0.66749 0.67587 0.0
H770 H 0.77857 0.65079 0.68648 0.0
H771 H 0.79864 0.6532 0.71238 0.0
H772 H 0.58215 0.44525 0.88916 0.0
H773 H 0.58277 0.46555 0.91518 0.0
H774 H 0.5699 0.45413 0.03773 0.0
H775 H 0.56914 0.43392 0.01215 0.0
H776 H 0.55785 0.47348 0.00444 0.0
H777 H 0.60621 0.48021 0.00059 0.0
H778 H 0.6 0.47494 0.95145 0.0
H779 H 0.59956 0.46581 -0.00179 0.0
C780 C 0.57949 0.44705 0.92169 0.0
C781 C 0.5756 0.43794 0.94854 0.0
C782 C 0.57993 0.45864 0.93658 0.0
C783 C 0.57654 0.4613 0.97856 0.0
C784 C 0.57262 0.45225 0.00531 0.0
H785 H 0.58536 0.52931 0.10656 0.0
H786 H 0.58559 0.50817 0.09068 0.0
C787 C 0.57219 0.44069 -0.00945 0.0
C788 C 0.57658 0.47357 -0.00578 0.0
H789 H 0.5944 0.49718 0.01268 0.0
C790 C 0.56585 0.47864 0.00649 0.0
C791 C 0.58706 0.48021 -0.00254 0.0
C792 C 0.59889 0.47501 0.98662 0.0
C793 C 0.56525 0.49031 0.0207 0.0
C794 C 0.57565 0.4971 0.02224 0.0
C795 C 0.58644 0.49194 0.01125 0.0
C796 C 0.57536 0.50976 0.03274 0.0
C797 C 0.5535 0.49531 0.0338 0.0
C798 C 0.5696 0.51759 0.00527 0.0
C799 C 0.56948 0.52959 0.01409 0.0
C800 C 0.57514 0.53405 0.05063 0.0
C801 C 0.58087 0.52617 0.0783 0.0
C802 C 0.58104 0.51411 0.06924 0.0
H803 H 0.54707 0.48826 0.04136 0.0
H804 H 0.55443 0.50112 0.06206 0.0
H805 H 0.54988 0.50062 0.00717 0.0
H806 H 0.56531 0.51442 0.97663 0.0
H807 H 0.56499 0.53539 -0.00798 0.0
H808 H 0.70381 0.33482 0.36379 0.0
H809 H 0.72482 0.33585 0.34598 0.0
H810 H 0.71618 0.33683 0.21206 0.0
H811 H 0.6953 0.3358 0.22934 0.0
H812 H 0.73597 0.31825 0.29217 0.0
H813 H 0.74096 0.36339 0.22734 0.0
H814 H 0.72897 0.35923 0.26205 0.0
H815 H 0.72866 0.35528 0.20657 0.0
C816 C 0.70639 0.33549 0.33061 0.0
C817 C 0.69791 0.33517 0.29797 0.0
C818 C 0.71837 0.33605 0.32051 0.0
C819 C 0.722 0.33653 0.27774 0.0
C820 C 0.71354 0.33666 0.24526 0.0
H821 H 0.78634 0.33099 0.13253 0.0
H822 H 0.7661 0.33372 0.15751 0.0
C823 C 0.70161 0.33598 0.25524 0.0
C824 C 0.7346 0.33574 0.26651 0.0
H825 H 0.75661 0.34998 0.21359 0.0
C826 C 0.74056 0.32524 0.27549 0.0
C827 C 0.74045 0.34482 0.24425 0.0
C828 C 0.73448 0.35637 0.23471 0.0
C829 C 0.75214 0.32341 0.26166 0.0
C830 C 0.75801 0.33247 0.2392 0.0
C831 C 0.75209 0.34305 0.23073 0.0
C832 C 0.77028 0.3311 0.22421 0.0
C833 C 0.75783 0.31162 0.26987 0.0
C834 C 0.77935 0.32891 0.25349 0.0
C835 C 0.79086 0.32725 0.23936 0.0
C836 C 0.79359 0.3279 0.19562 0.0
C837 C 0.78453 0.33039 0.16639 0.0
C838 C 0.77297 0.33197 0.1806 0.0
H839 H 0.75118 0.3047 0.27645 0.0
H840 H 0.76326 0.30881 0.24226 0.0
H841 H 0.76363 0.3123 0.29823 0.0
H842 H 0.77752 0.3285 0.28737 0.0
H843 H 0.79763 0.3255 0.26284 0.0
H844 H 0.90154 0.44576 0.60233 0.0
H845 H 0.89919 0.46625 0.57975 0.0
H846 H 0.90427 0.45599 0.44865 0.0
H847 H 0.90665 0.43555 0.47067 0.0
H848 H 0.91692 0.47927 0.53053 0.0
H849 H 0.87358 0.47649 0.44869 0.0
H850 H 0.87836 0.46579 0.48769 0.0
H851 H 0.88424 0.46546 0.43457 0.0
C852 C 0.90208 0.44785 0.56867 0.0
C853 C 0.9043 0.43901 0.53833 0.0
C854 C 0.90073 0.45954 0.55586 0.0
C855 C 0.90142 0.46256 0.51254 0.0
C856 C 0.90353 0.45379 0.48217 0.0
H857 H 0.90048 0.52848 0.3718 0.0
H858 H 0.89979 0.50769 0.39265 0.0
C859 C 0.90497 0.44212 0.49491 0.0
C860 C 0.90064 0.47499 0.49921 0.0
H861 H 0.88405 0.4944 0.44182 0.0
C862 C 0.9097 0.48262 0.51137 0.0
C863 C 0.89128 0.47923 0.47377 0.0
C864 C 0.88124 0.47137 0.46055 0.0
C865 C 0.90975 0.4944 0.49832 0.0
C866 C 0.9003 0.49871 0.47339 0.0
C867 C 0.89125 0.49106 0.46102 0.0
C868 C 0.89965 0.51121 0.46051 0.0
C869 C 0.92008 0.50203 0.51054 0.0
C870 C 0.89937 0.52003 0.49171 0.0
C871 C 0.89986 0.53183 0.47999 0.0
C872 C 0.90046 0.53507 0.43673 0.0
C873 C 0.90006 0.52625 0.40536 0.0
C874 C 0.89968 0.51439 0.41721 0.0
H875 H 0.92795 0.49668 0.5187 0.0
H876 H 0.92244 0.50815 0.4843 0.0
H877 H 0.91773 0.50732 0.53902 0.0
H878 H 0.89903 0.51776 0.52526 0.0
H879 H 0.89996 0.53841 0.50494 0.0
H880 H 0.28122 0.32903 0.35659 0.0
H881 H 0.26056 0.3293 0.33399 0.0
H882 H 0.27135 0.32551 0.20283 0.0
H883 H 0.29188 0.32495 0.22498 0.0
H884 H 0.24856 0.34413 0.28004 0.0
H885 H 0.24818 0.29882 0.21521 0.0
H886 H 0.25999 0.30428 0.24813 0.0
H887 H 0.25947 0.3078 0.19217 0.0
C888 C 0.27918 0.32823 0.32296 0.0
C889 C 0.2882 0.32683 0.29267 0.0
C890 C 0.26738 0.32839 0.3101 0.0
C891 C 0.26442 0.32716 0.26681 0.0
C892 C 0.27342 0.32613 0.23649 0.0
H893 H 0.19904 0.32823 0.12197 0.0
H894 H 0.2197 0.32928 0.14443 0.0
C895 C 0.28517 0.32587 0.24927 0.0
C896 C 0.25193 0.32705 0.25306 0.0
H897 H 0.23163 0.31081 0.19845 0.0
C898 C 0.24484 0.33682 0.26244 0.0
C899 C 0.24709 0.31749 0.2301 0.0
C900 C 0.25404 0.30645 0.22116 0.0
C901 C 0.23308 0.33736 0.24879 0.0
C902 C 0.22833 0.32788 0.22535 0.0
C903 C 0.23539 0.31811 0.21604 0.0
C904 C 0.21588 0.3277 0.21178 0.0
C905 C 0.22584 0.34811 0.25901 0.0
C906 C 0.20698 0.32637 0.24226 0.0
C907 C 0.19523 0.32567 0.22961 0.0
C908 C 0.19215 0.32631 0.18616 0.0
C909 C 0.20111 0.32774 0.15566 0.0
C910 C 0.2129 0.32833 0.16839 0.0
H911 H 0.23138 0.35555 0.27007 0.0
H912 H 0.22073 0.35096 0.2306 0.0
H913 H 0.21948 0.34593 0.28467 0.0
H914 H 0.20914 0.32573 0.27586 0.0
H915 H 0.18857 0.3246 0.25399 0.0
H916 H 0.40019 0.53413 0.09889 0.0
H917 H 0.39818 0.51372 0.07512 0.0
H918 H 0.40171 0.52486 0.94423 0.0
H919 H 0.40397 0.54517 0.96755 0.0
H920 H 0.38192 0.50325 0.02109 0.0
H921 H 0.42697 0.49978 0.95397 0.0
H922 H 0.42252 0.51175 0.98809 0.0
H923 H 0.41856 0.51175 0.93252 0.0
C924 C 0.40055 0.53223 0.06506 0.0
C925 C 0.40238 0.54127 0.03518 0.0
C926 C 0.39939 0.52057 0.05153 0.0
C927 C 0.40002 0.51776 0.00797 0.0
C928 C 0.40149 0.5268 0.97806 0.0
H929 H 0.39792 0.45078 0.8715 0.0
H930 H 0.39667 0.47177 0.88888 0.0
C931 C 0.40273 0.53842 -0.0085 0.0
C932 C 0.39916 0.50538 -0.00627 0.0
H933 H 0.4141 0.48384 0.94059 0.0
C934 C 0.38895 0.499 0.00354 0.0
C935 C 0.40835 0.49987 0.97073 0.0
C936 C 0.41976 0.50609 0.96101 0.0
C937 C 0.38768 0.48724 -0.00918 0.0
C938 C 0.39688 0.48174 0.96803 0.0
C939 C 0.40702 0.48815 0.95774 0.0
C940 C 0.39658 0.4691 0.95722 0.0
C941 C 0.37648 0.48079 0.00168 0.0
C942 C 0.39693 0.46071 -0.01008 0.0
C943 C 0.39772 0.44878 0.98017 0.0
C944 C 0.39818 0.44499 0.93746 0.0
C945 C 0.39754 0.45341 0.90467 0.0
C946 C 0.39684 0.46539 0.91452 0.0
H947 H 0.3692 0.48695 0.00937 0.0
H948 H 0.3737 0.47504 0.97488 0.0
H949 H 0.37804 0.47514 0.03 0.0
H950 H 0.39693 0.46342 0.02306 0.0
H951 H 0.39817 0.44254 0.00622 0.0
H952 H 0.28758 0.66325 0.73291 0.0
H953 H 0.26737 0.65924 0.75361 0.0
H954 H 0.26627 0.62994 0.66624 0.0
H955 H 0.28649 0.63433 0.6437 0.0
H956 H 0.24686 0.64143 0.66079 0.0
H957 H 0.25504 0.63501 0.83202 0.0
H958 H 0.26075 0.64905 0.81688 0.0
H959 H 0.2669 0.63585 0.79392 0.0
C960 C 0.28306 0.65591 0.71819 0.0
C961 C 0.28863 0.64904 0.68692 0.0
C962 C 0.27154 0.65354 0.73043 0.0
C963 C 0.26541 0.64402 0.71268 0.0
C964 C 0.27088 0.63723 0.68085 0.0
H965 H 0.19575 0.63561 0.83211 0.0
H966 H 0.21578 0.63066 0.80892 0.0
C967 C 0.28239 0.63977 0.66788 0.0
C968 C 0.25308 0.64176 0.72579 0.0
H969 H 0.23527 0.6418 0.81336 0.0
C970 C 0.24435 0.64125 0.69417 0.0
C971 C 0.24974 0.64109 0.76927 0.0
C972 C 0.25865 0.64013 0.80482 0.0
C973 C 0.23237 0.64109 0.70491 0.0
C974 C 0.22905 0.64197 0.74835 0.0
C975 C 0.23777 0.64146 0.77999 0.0
C976 C 0.21674 0.64446 0.76141 0.0
C977 C 0.22346 0.64012 0.66941 0.0
C978 C 0.21072 0.65399 0.74315 0.0
C979 C 0.19929 0.65667 0.75577 0.0
C980 C 0.19372 0.65012 0.78791 0.0
C981 C 0.19984 0.6408 0.80727 0.0
C982 C 0.21126 0.63795 0.79394 0.0
H983 H 0.22699 0.63482 0.64254 0.0
H984 H 0.21514 0.63604 0.68055 0.0
H985 H 0.2215 0.64902 0.65678 0.0
H986 H 0.21491 0.65948 0.71941 0.0
H987 H 0.19486 0.66403 0.74075 0.0
H988 H 0.08668 0.4433 0.47048 0.0
H989 H 0.08802 0.46399 0.45114 0.0
H990 H 0.08582 0.47365 0.584 0.0
H991 H 0.08475 0.45283 0.60381 0.0
H992 H 0.07102 0.47999 0.46537 0.0
H993 H 0.11244 0.49447 0.5429 0.0
H994 H 0.10875 0.47916 0.53594 0.0
H995 H 0.10227 0.48749 0.57865 0.0
C996 C 0.08665 0.4498 0.49572 0.0
C997 C 0.08556 0.44643 0.53871 0.0
C998 C 0.08743 0.46163 0.48457 0.0
C999 C 0.0871 0.47037 0.51608 0.0
C1000 C 0.08633 0.46704 0.55919 0.0
H1001 H 0.07685 0.54546 0.5071 0.0
H1002 H 0.07949 0.52493 0.52758 0.0
C1003 C 0.08566 0.45515 0.57047 0.0
C1004 C 0.08658 0.48289 0.5032 0.0
H1005 H 0.10009 0.50951 0.51455 0.0
C1006 C 0.07744 0.48642 0.47587 0.0
C1007 C 0.09493 0.49127 0.51705 0.0
C1008 C 0.10522 0.48791 0.54494 0.0
C1009 C 0.07633 0.49811 0.46244 0.0
C1010 C 0.08463 0.50649 0.47643 0.0
C1011 C 0.09377 0.50302 0.50382 0.0
C1012 C 0.08371 0.51898 0.46391 0.0
C1013 C 0.06613 0.5015 0.43412 0.0
C1014 C 0.08538 0.52243 0.42135 0.0
C1015 C 0.08389 0.53418 0.40943 0.0
C1016 C 0.08068 0.54266 0.43993 0.0
C1017 C 0.07925 0.53916 0.4827 0.0
C1018 C 0.08079 0.52744 0.49457 0.0
H1019 H 0.05932 0.4945 0.43271 0.0
H1020 H 0.06196 0.50974 0.44558 0.0
H1021 H 0.06939 0.50307 0.40125 0.0
H1022 H 0.08774 0.516 0.39733 0.0
H1023 H 0.08511 0.53658 0.37628 0.0
H1024 H 0.13189 0.14431 -0.00816 0.0
H1025 H 0.12301 0.13312 0.93373 0.0
H1026 H 0.15111 0.10772 0.94103 0.0
H1027 H 0.16007 0.11886 -0.00035 0.0
H1028 H 0.13266 0.12628 0.8534 0.0
H1029 H 0.12069 0.08791 0.9548 0.0
H1030 H 0.12475 0.10195 0.97718 0.0
H1031 H 0.13584 0.09242 0.95565 0.0
C1032 C 0.13625 0.13639 0.98093 0.0
C1033 C 0.14665 0.13243 0.00049 0.0
C1034 C 0.13116 0.13001 0.94773 0.0
C1035 C 0.1363 0.11951 0.93361 0.0
C1036 C 0.1469 0.11571 0.95202 0.0
H1037 H 0.10815 0.07158 0.73888 0.0
H1038 H 0.12038 0.07999 0.79573 0.0
C1039 C 0.15204 0.12212 0.98525 0.0
C1040 C 0.13039 0.11256 0.89993 0.0
H1041 H 0.11507 0.08718 0.88248 0.0
C1042 C 0.12889 0.1177 0.85963 0.0
C1043 C 0.12553 0.10134 0.9082 0.0
C1044 C 0.12668 0.09556 0.95134 0.0
C1045 C 0.12246 0.11201 0.82752 0.0
C1046 C 0.11722 0.101 0.83627 0.0
C1047 C 0.11906 0.09565 0.87605 0.0
C1048 C 0.10932 0.09525 0.80506 0.0
C1049 C 0.12128 0.11786 0.78452 0.0
C1050 C 0.09884 0.10082 0.79285 0.0
C1051 C 0.09186 0.09605 0.76061 0.0
C1052 C 0.09519 0.08558 0.7401 0.0
C1053 C 0.10536 0.07966 0.75406 0.0
C1054 C 0.11237 0.08446 0.7864 0.0
H1055 H 0.12831 0.12448 0.77923 0.0
H1056 H 0.12162 0.1113 0.75835 0.0
H1057 H 0.11268 0.12246 0.78282 0.0
H1058 H 0.09622 0.10903 0.80754 0.0
H1059 H 0.08404 0.10079 0.75085 0.0
H1060 H 0.16101 0.86313 0.98102 0.0
H1061 H 0.15269 0.87587 0.03658 0.0
H1062 H 0.12293 0.85263 0.04824 0.0
H1063 H 0.13107 0.83996 -0.00711 0.0
H1064 H 0.11736 0.877 0.03352 0.0
H1065 H 0.14892 0.87058 0.16761 0.0
H1066 H 0.15492 0.87399 0.11594 0.0
H1067 H 0.14767 0.86019 0.12427 0.0
C1068 C 0.1528 0.86063 -0.00399 0.0
C1069 C 0.14669 0.85055 0.9825 0.0
C1070 C 0.14807 0.86791 0.02773 0.0
C1071 C 0.13721 0.86516 0.04647 0.0
C1072 C 0.13131 0.8549 0.03406 0.0
H1073 H 0.08608 0.88641 0.22511 0.0
H1074 H 0.09755 0.8789 0.1653 0.0
C1075 C 0.13601 0.84765 0.00249 0.0
C1076 C 0.1315 0.87323 0.07717 0.0
H1077 H 0.13281 0.88312 0.17986 0.0
C1078 C 0.12079 0.87844 0.0654 0.0
C1079 C 0.13608 0.87519 0.11848 0.0
C1080 C 0.1475 0.86967 0.1327 0.0
C1081 C 0.11431 0.88523 0.09436 0.0
C1082 C 0.11857 0.88669 0.13639 0.0
C1083 C 0.12956 0.88196 0.14758 0.0
C1084 C 0.11124 0.89204 0.17026 0.0
C1085 C 0.10286 0.89065 0.07991 0.0
C1086 C 0.11514 0.90192 0.193 0.0
C1087 C 0.10857 0.90626 0.22734 0.0
C1088 C 0.09809 0.90067 0.23977 0.0
C1089 C 0.09409 0.89094 0.21625 0.0
C1090 C 0.10061 0.88667 0.18191 0.0
H1091 H 0.10268 0.8919 0.04476 0.0
H1092 H 0.0955 0.88469 0.08851 0.0
H1093 H 0.10133 0.89927 0.09558 0.0
H1094 H 0.12337 0.90613 0.18463 0.0
H1095 H 0.11191 0.91372 0.24504 0.0
H1096 H 0.39403 0.88266 0.2447 0.0
H1097 H 0.38238 0.87488 0.30366 0.0
H1098 H 0.35773 0.90345 0.29 0.0
H1099 H 0.36934 0.91131 0.2305 0.0
H1100 H 0.37516 0.88572 0.38215 0.0
H1101 H 0.33741 0.87318 0.27824 0.0
H1102 H 0.35173 0.87664 0.2568 0.0
H1103 H 0.34233 0.88819 0.27574 0.0
C1104 C 0.3862 0.88737 0.25444 0.0
C1105 C 0.38257 0.89757 0.23278 0.0
C1106 C 0.37955 0.88291 0.28814 0.0
C1107 C 0.36911 0.88849 0.30068 0.0
C1108 C 0.36567 0.89892 0.28028 0.0
H1109 H 0.31988 0.86048 0.49264 0.0
H1110 H 0.32847 0.87306 0.43711 0.0
C1111 C 0.37236 0.90344 0.24656 0.0
C1112 C 0.3618 0.88309 0.33443 0.0
H1113 H 0.33632 0.86781 0.35061 0.0
C1114 C 0.36661 0.88192 0.37541 0.0
C1115 C 0.35063 0.87818 0.32549 0.0
C1116 C 0.34519 0.87901 0.28167 0.0
C1117 C 0.36069 0.87569 0.40746 0.0
C1118 C 0.34978 0.87031 0.39797 0.0
C1119 C 0.34471 0.87191 0.35759 0.0
C1120 C 0.34401 0.86232 0.42876 0.0
C1121 C 0.36624 0.87477 0.45108 0.0
C1122 C 0.3497 0.85193 0.44106 0.0
C1123 C 0.34483 0.84475 0.47247 0.0
C1124 C 0.33414 0.84779 0.49208 0.0
C1125 C 0.32813 0.85791 0.47814 0.0
C1126 C 0.33304 0.86512 0.44657 0.0
H1127 H 0.3727 0.88193 0.45666 0.0
H1128 H 0.35946 0.87508 0.47657 0.0
H1129 H 0.37098 0.86627 0.45365 0.0
H1130 H 0.35806 0.8495 0.42699 0.0
H1131 H 0.34964 0.83698 0.48224 0.0
H1132 H 0.37239 0.07141 0.74117 0.0
H1133 H 0.36133 0.0796 0.68089 0.0
H1134 H 0.38794 0.10619 0.66424 0.0
H1135 H 0.39907 0.09803 0.72379 0.0
H1136 H 0.35231 0.1023 0.67739 0.0
H1137 H 0.38287 0.09462 0.54281 0.0
H1138 H 0.38423 0.08703 0.59317 0.0
H1139 H 0.38989 0.1017 0.58716 0.0
C1140 C 0.376 0.07885 0.72407 0.0
C1141 C 0.38662 0.08406 0.73719 0.0
C1142 C 0.36965 0.08354 0.68978 0.0
C1143 C 0.37388 0.09342 0.66784 0.0
C1144 C 0.38463 0.09842 0.68015 0.0
H1145 H 0.35244 0.14554 0.48894 0.0
H1146 H 0.36122 0.13357 0.54528 0.0
C1147 C 0.39096 0.09377 0.71437 0.0
C1148 C 0.36671 0.09914 0.63425 0.0
H1149 H 0.36801 0.10933 0.53198 0.0
C1150 C 0.35563 0.10368 0.64536 0.0
C1151 C 0.37108 0.10092 0.59253 0.0
C1152 C 0.38262 0.0957 0.57803 0.0
C1153 C 0.34907 0.11045 0.6164 0.0
C1154 C 0.35368 0.11262 0.5753 0.0
C1155 C 0.36456 0.10774 0.56373 0.0
C1156 C 0.34762 0.12029 0.54416 0.0
C1157 C 0.33749 0.11565 0.63044 0.0
C1158 C 0.33695 0.11688 0.52545 0.0
C1159 C 0.33188 0.12372 0.49321 0.0
C1160 C 0.33744 0.13405 0.47912 0.0
C1161 C 0.34792 0.13764 0.49907 0.0
C1162 C 0.35298 0.1308 0.53116 0.0
H1163 H 0.33614 0.11484 0.66542 0.0
H1164 H 0.33697 0.12508 0.62146 0.0
H1165 H 0.3302 0.11099 0.61408 0.0
H1166 H 0.33276 0.10872 0.53475 0.0
H1167 H 0.32383 0.12069 0.47832 0.0
H1168 H 0.84912 0.83424 -0.00341 0.0
H1169 H 0.85822 0.84567 0.05365 0.0
H1170 H 0.83094 0.87183 0.04234 0.0
H1171 H 0.82171 0.8604 0.98515 0.0
H1172 H 0.86619 0.86943 0.04065 0.0
H1173 H 0.83377 0.86579 0.17305 0.0
H1174 H 0.83416 0.85551 0.12917 0.0
H1175 H 0.8281 0.86992 0.12158 0.0
C1176 C 0.84491 0.84231 0.00673 0.0
C1177 C 0.8347 0.84642 0.98627 0.0
C1178 C 0.85015 0.84885 0.03926 0.0
C1179 C 0.84524 0.85957 0.05222 0.0
C1180 C 0.83479 0.8635 0.03311 0.0
H1181 H 0.87119 0.90866 0.24602 0.0
H1182 H 0.86001 0.90017 0.18668 0.0
C1183 C 0.82953 0.85696 0.00043 0.0
C1184 C 0.85159 0.86698 0.08347 0.0
H1185 H 0.85035 0.87781 0.18491 0.0
C1186 C 0.86272 0.8713 0.07217 0.0
C1187 C 0.84697 0.86951 0.12428 0.0
C1188 C 0.83513 0.8649 0.1381 0.0
C1189 C 0.86945 0.87796 0.10085 0.0
C1190 C 0.86501 0.88015 0.14225 0.0
C1191 C 0.85373 0.87611 0.15314 0.0
C1192 C 0.87224 0.88591 0.1756 0.0
C1193 C 0.88122 0.88262 0.08649 0.0
C1194 C 0.88285 0.88077 0.18879 0.0
C1195 C 0.88927 0.88561 0.22246 0.0
C1196 C 0.88514 0.89565 0.2439 0.0
C1197 C 0.87464 0.90096 0.23 0.0
C1198 C 0.86822 0.8961 0.19624 0.0
H1199 H 0.88164 0.88345 0.0512 0.0
H1200 H 0.88309 0.89134 0.1009 0.0
H1201 H 0.88823 0.87642 0.09655 0.0
H1202 H 0.886 0.87277 0.17392 0.0
H1203 H 0.89728 0.88125 0.23253 0.0
H1204 H 0.8176 0.13105 0.96386 0.0
H1205 H 0.82781 0.1205 0.90646 0.0
H1206 H 0.85928 0.1192 0.98353 0.0
H1207 H 0.84939 0.13039 0.03918 0.0
H1208 H 0.86521 0.12487 0.90955 0.0
H1209 H 0.8353 0.08689 0.89217 0.0
H1210 H 0.82769 0.10047 0.88321 0.0
H1211 H 0.83382 0.09734 0.93507 0.0
C1212 C 0.82669 0.12848 0.96833 0.0
C1213 C 0.83274 0.13158 0.00572 0.0
C1214 C 0.83249 0.12233 0.93578 0.0
C1215 C 0.84428 0.11881 0.94086 0.0
C1216 C 0.85021 0.1218 0.97864 0.0
H1217 H 0.87956 0.07023 0.76439 0.0
H1218 H 0.8695 0.07874 0.82657 0.0
C1219 C 0.84455 0.12822 0.01046 0.0
C1220 C 0.85076 0.11263 0.90623 0.0
H1221 H 0.84944 0.08963 0.83632 0.0
C1222 C 0.86178 0.11709 0.89395 0.0
C1223 C 0.84646 0.10232 0.88621 0.0
C1224 C 0.83523 0.09641 0.90019 0.0
C1225 C 0.8685 0.11169 0.86205 0.0
C1226 C 0.86384 0.10188 0.83998 0.0
C1227 C 0.85295 0.09724 0.85277 0.0
C1228 C 0.86996 0.09661 0.80273 0.0
C1229 C 0.88065 0.11646 0.85312 0.0
C1230 C 0.8734 0.10376 0.76847 0.0
C1231 C 0.87938 0.09899 0.73376 0.0
C1232 C 0.88172 0.08688 0.73178 0.0
C1233 C 0.87795 0.07961 0.76531 0.0
C1234 C 0.87217 0.08446 0.80069 0.0
H1235 H 0.88444 0.12073 0.88188 0.0
H1236 H 0.88676 0.10943 0.8425 0.0
H1237 H 0.88008 0.12324 0.82775 0.0
H1238 H 0.87141 0.11307 0.7684 0.0
H1239 H 0.88195 0.10478 0.70797 0.0
H1240 H 0.58498 0.09827 0.73103 0.0
H1241 H 0.59659 0.10746 0.67464 0.0
H1242 H 0.62402 0.08178 0.69293 0.0
H1243 H 0.61246 0.07248 0.74974 0.0
H1244 H 0.62131 0.11596 0.69331 0.0
H1245 H 0.61757 0.08415 0.55869 0.0
H1246 H 0.60651 0.0851 0.59992 0.0
H1247 H 0.62053 0.07865 0.61156 0.0
C1248 C 0.59338 0.09442 0.72261 0.0
C1249 C 0.59782 0.08466 0.74496 0.0
C1250 C 0.60001 0.09971 0.69047 0.0
C1251 C 0.61113 0.09529 0.67979 0.0
C1252 C 0.6154 0.08525 0.70063 0.0
H1253 H 0.65665 0.12389 0.47895 0.0
H1254 H 0.64999 0.11195 0.53944 0.0
C1255 C 0.60879 0.07996 0.73301 0.0
C1256 C 0.61852 0.10178 0.64903 0.0
H1257 H 0.62816 0.10156 0.54603 0.0
C1258 C 0.62292 0.11279 0.6612 0.0
C1259 C 0.6207 0.0975 0.60751 0.0
C1260 C 0.61608 0.08572 0.59325 0.0
C1261 C 0.62918 0.11983 0.6324 0.0
C1262 C 0.63083 0.11585 0.59009 0.0
C1263 C 0.62686 0.1046 0.57848 0.0
C1264 C 0.6357 0.1236 0.55646 0.0
C1265 C 0.63389 0.13151 0.6475 0.0
C1266 C 0.62993 0.13414 0.54632 0.0
C1267 C 0.63372 0.14097 0.51202 0.0
C1268 C 0.64329 0.13734 0.4869 0.0
C1269 C 0.64928 0.12695 0.49784 0.0
C1270 C 0.64547 0.1201 0.53225 0.0
H1271 H 0.63542 0.13148 0.68251 0.0
H1272 H 0.64225 0.13378 0.63117 0.0
H1273 H 0.62734 0.13848 0.64042 0.0
H1274 H 0.62221 0.13688 0.56396 0.0
H1275 H 0.62887 0.14889 0.5043 0.0
H1276 H 0.65702 0.84562 0.46748 0.0
H1277 H 0.6478 0.85661 0.40883 0.0
H1278 H 0.61607 0.86015 0.48347 0.0
H1279 H 0.62493 0.84858 0.54031 0.0
H1280 H 0.61025 0.85441 0.40919 0.0
H1281 H 0.6424 0.8906 0.39263 0.0
H1282 H 0.64914 0.87653 0.38474 0.0
H1283 H 0.64302 0.88024 0.43606 0.0
C1284 C 0.64808 0.84878 0.47113 0.0
C1285 C 0.64165 0.8462 0.50816 0.0
C1286 C 0.64286 0.85517 0.43787 0.0
C1287 C 0.63128 0.85942 0.44189 0.0
C1288 C 0.62498 0.85697 0.47937 0.0
H1289 H 0.5989 0.91037 0.26794 0.0
H1290 H 0.60864 0.90089 0.32891 0.0
C1291 C 0.63006 0.85033 0.51188 0.0
C1292 C 0.62534 0.86586 0.40657 0.0
H1293 H 0.62809 0.88883 0.33708 0.0
C1294 C 0.61415 0.862 0.39377 0.0
C1295 C 0.63027 0.8759 0.38674 0.0
C1296 C 0.64181 0.88114 0.40106 0.0
C1297 C 0.60778 0.86782 0.36183 0.0
C1298 C 0.613 0.87741 0.34021 0.0
C1299 C 0.62414 0.88139 0.35324 0.0
C1300 C 0.60713 0.88325 0.30353 0.0
C1301 C 0.5954 0.86375 0.35254 0.0
C1302 C 0.60319 0.87654 0.2688 0.0
C1303 C 0.59737 0.88187 0.23478 0.0
C1304 C 0.5957 0.8941 0.23398 0.0
C1305 C 0.59999 0.90091 0.26796 0.0
C1306 C 0.60559 0.89551 0.30265 0.0
H1307 H 0.59138 0.8595 0.38094 0.0
H1308 H 0.58967 0.87115 0.34248 0.0
H1309 H 0.59561 0.85711 0.32663 0.0
H1310 H 0.60466 0.86714 0.26785 0.0
H1311 H 0.59439 0.87642 0.20858 0.0
H1312 H 0.66369 0.62841 0.46423 0.0
H1313 H 0.6548 0.61846 0.40257 0.0
H1314 H 0.62038 0.6233 0.45779 0.0
H1315 H 0.62908 0.6337 0.51782 0.0
H1316 H 0.64236 0.59903 0.39464 0.0
H1317 H 0.61454 0.6361 0.34208 0.0
H1318 H 0.62578 0.63781 0.38214 0.0
H1319 H 0.61142 0.63236 0.3964 0.0
C1320 C 0.65422 0.62746 0.4628 0.0
C1321 C 0.64706 0.63201 0.4954 0.0
C1322 C 0.64915 0.62174 0.42771 0.0
C1323 C 0.63688 0.62038 0.425 0.0
C1324 C 0.62981 0.62461 0.45829 0.0
H1325 H 0.59924 0.57041 0.26256 0.0
H1326 H 0.61027 0.57972 0.32086 0.0
C1327 C 0.63482 0.63052 0.49275 0.0
C1328 C 0.6314 0.61438 0.3879 0.0
H1329 H 0.60934 0.61717 0.31485 0.0
C1330 C 0.63523 0.60304 0.3768 0.0
C1331 C 0.62222 0.61967 0.36413 0.0
C1332 C 0.61835 0.6322 0.37152 0.0
C1333 C 0.62996 0.59676 0.3432 0.0
C1334 C 0.62031 0.60179 0.32116 0.0
C1335 C 0.61664 0.6132 0.33195 0.0
C1336 C 0.61407 0.5957 0.28577 0.0
C1337 C 0.635 0.58494 0.33119 0.0
C1338 C 0.61224 0.60165 0.2471 0.0
C1339 C 0.6056 0.59654 0.21467 0.0
C1340 C 0.60084 0.58525 0.21972 0.0
C1341 C 0.60289 0.5791 0.25786 0.0
C1342 C 0.60929 0.58438 0.29096 0.0
H1343 H 0.64435 0.58414 0.34118 0.0
H1344 H 0.62997 0.57794 0.34771 0.0
H1345 H 0.63445 0.58341 0.29627 0.0
H1346 H 0.61584 0.61035 0.2421 0.0
H1347 H 0.60427 0.60143 0.18539 0.0
H1348 H 0.60949 0.41033 0.74803 0.0
H1349 H 0.62133 0.40345 0.68749 0.0
H1350 H 0.59706 0.37485 0.66783 0.0
H1351 H 0.5852 0.38166 0.72771 0.0
H1352 H 0.63208 0.38119 0.68267 0.0
H1353 H 0.6015 0.38793 0.54739 0.0
H1354 H 0.59961 0.39517 0.59824 0.0
H1355 H 0.5948 0.38024 0.59103 0.0
C1356 C 0.60656 0.40272 0.73021 0.0
C1357 C 0.5964 0.39654 0.7426 0.0
C1358 C 0.61335 0.39878 0.69579 0.0
C1359 C 0.61 0.38872 0.67294 0.0
C1360 C 0.59969 0.38276 0.6845 0.0
H1361 H 0.63408 0.33859 0.49304 0.0
H1362 H 0.62468 0.35029 0.54868 0.0
C1363 C 0.59294 0.38664 0.7189 0.0
C1364 C 0.61765 0.3838 0.63912 0.0
H1365 H 0.61718 0.37412 0.53613 0.0
C1366 C 0.62894 0.37982 0.65037 0.0
C1367 C 0.61351 0.38205 0.59707 0.0
C1368 C 0.60173 0.38668 0.58254 0.0
C1369 C 0.63593 0.37354 0.62126 0.0
C1370 C 0.63154 0.37133 0.57984 0.0
C1371 C 0.62047 0.37575 0.56809 0.0
C1372 C 0.63795 0.3639 0.54879 0.0
C1373 C 0.6477 0.36884 0.63556 0.0
C1374 C 0.64864 0.3676 0.53093 0.0
C1375 C 0.65408 0.36089 0.49908 0.0
C1376 C 0.64886 0.35042 0.48453 0.0
C1377 C 0.63834 0.3466 0.50351 0.0
C1378 C 0.63293 0.35329 0.53522 0.0
H1379 H 0.64891 0.36958 0.67064 0.0
H1380 H 0.64868 0.35947 0.6262 0.0
H1381 H 0.65481 0.37389 0.61973 0.0
H1382 H 0.65258 0.37584 0.54062 0.0
H1383 H 0.66214 0.3641 0.48489 0.0
H1384 H 0.89806 0.38078 0.75254 0.0
H1385 H 0.88608 0.37335 0.81116 0.0
H1386 H 0.86142 0.40173 0.79297 0.0
H1387 H 0.87336 0.40922 0.73372 0.0
H1388 H 0.87826 0.3844 0.88795 0.0
H1389 H 0.84128 0.37143 0.78105 0.0
H1390 H 0.85572 0.37493 0.76077 0.0
H1391 H 0.84614 0.38646 0.77861 0.0
C1392 C 0.89016 0.38554 0.76124 0.0
C1393 C 0.88661 0.39555 0.73832 0.0
C1394 C 0.88333 0.38127 0.79475 0.0
C1395 C 0.87278 0.38688 0.80586 0.0
C1396 C 0.86944 0.39717 0.78434 0.0
H1397 H 0.82345 0.35886 -0.00233 0.0
H1398 H 0.83185 0.37155 0.9421 0.0
C1399 C 0.87631 0.40149 0.75077 0.0
C1400 C 0.86523 0.3816 0.83914 0.0
H1401 H 0.83981 0.36608 0.85332 0.0
C1402 C 0.86978 0.38053 0.88054 0.0
C1403 C 0.85416 0.37659 0.82931 0.0
C1404 C 0.84901 0.37731 0.78501 0.0
C1405 C 0.86373 0.37424 0.91209 0.0
C1406 C 0.85296 0.36874 0.9017 0.0
C1407 C 0.84811 0.37028 0.86095 0.0
C1408 C 0.84717 0.36063 0.93189 0.0
C1409 C 0.86904 0.3733 0.9561 0.0
C1410 C 0.85279 0.3501 0.94308 0.0
C1411 C 0.84802 0.34285 0.97447 0.0
C1412 C 0.83752 0.34598 -0.00478 0.0
C1413 C 0.83155 0.35622 0.98227 0.0
C1414 C 0.83635 0.36349 0.95068 0.0
H1415 H 0.87556 0.38038 0.96208 0.0
H1416 H 0.86212 0.37373 0.98105 0.0
H1417 H 0.87363 0.36473 0.95916 0.0
H1418 H 0.86105 0.34766 0.92832 0.0
H1419 H 0.85281 0.335 0.98349 0.0
H1420 H 0.89632 0.59613 0.23114 0.0
H1421 H 0.88478 0.60464 0.1732 0.0
H1422 H 0.85887 0.57725 0.18735 0.0
H1423 H 0.87035 0.56869 0.24594 0.0
H1424 H 0.87701 0.59468 0.09531 0.0
H1425 H 0.83973 0.60803 0.19997 0.0
H1426 H 0.85388 0.60376 0.22113 0.0
H1427 H 0.84393 0.59279 0.20136 0.0
C1428 C 0.88822 0.59183 0.22175 0.0
C1429 C 0.88421 0.58177 0.24329 0.0
C1430 C 0.88164 0.59672 0.18864 0.0
C1431 C 0.87089 0.59169 0.17653 0.0
C1432 C 0.86705 0.58138 0.1968 0.0
H1433 H 0.82296 0.62037 0.98178 0.0
H1434 H 0.83107 0.60787 0.03855 0.0
C1435 C 0.87366 0.57645 0.22999 0.0
C1436 C 0.86372 0.59748 0.14314 0.0
H1437 H 0.83858 0.61341 0.12753 0.0
C1438 C 0.86856 0.59868 0.10223 0.0
C1439 C 0.85268 0.60265 0.15231 0.0
C1440 C 0.84723 0.60185 0.1961 0.0
C1441 C 0.86279 0.60516 0.07047 0.0
C1442 C 0.85199 0.61073 0.08013 0.0
C1443 C 0.84689 0.60915 0.12044 0.0
C1444 C 0.84633 0.61881 0.04939 0.0
C1445 C 0.86837 0.60615 0.02694 0.0
C1446 C 0.852 0.62929 0.03812 0.0
C1447 C 0.8474 0.63643 0.00601 0.0
C1448 C 0.83702 0.63323 0.9846 0.0
C1449 C 0.83098 0.62306 -0.00234 0.0
C1450 C 0.83561 0.6159 0.02995 0.0
H1451 H 0.87492 0.59907 0.02136 0.0
H1452 H 0.8616 0.60577 0.0014 0.0
H1453 H 0.87297 0.61472 0.02442 0.0
H1454 H 0.86019 0.63177 0.05334 0.0
H1455 H 0.85223 0.64424 -0.00307 0.0
H1456 H 0.34888 0.33617 0.49887 0.0
H1457 H 0.3574 0.34821 0.55534 0.0
H1458 H 0.32888 0.37298 0.54297 0.0
H1459 H 0.32018 0.36088 0.48641 0.0
H1460 H 0.36448 0.37186 0.5424 0.0
H1461 H 0.33168 0.36774 0.67341 0.0
H1462 H 0.33236 0.35746 0.62958 0.0
H1463 H 0.32609 0.37177 0.62173 0.0
C1464 C 0.34429 0.34407 0.5086 0.0
C1465 C 0.33386 0.34758 0.4881 0.0
C1466 C 0.34919 0.35095 0.54081 0.0
C1467 C 0.34377 0.36146 0.55337 0.0
C1468 C 0.33313 0.36482 0.53411 0.0
H1469 H 0.36927 0.41102 0.7474 0.0
H1470 H 0.35811 0.40268 0.68764 0.0
C1471 C 0.32818 0.3579 0.50179 0.0
C1472 C 0.34976 0.36919 0.58454 0.0
H1473 H 0.34805 0.37996 0.686 0.0
C1474 C 0.36086 0.37369 0.57373 0.0
C1475 C 0.34495 0.37166 0.62514 0.0
C1476 C 0.33315 0.36687 0.63851 0.0
C1477 C 0.36742 0.38037 0.60281 0.0
C1478 C 0.36283 0.38245 0.64403 0.0
C1479 C 0.35154 0.37833 0.65435 0.0
C1480 C 0.36998 0.38806 0.6779 0.0
C1481 C 0.37924 0.38509 0.58924 0.0
C1482 C 0.38036 0.38262 0.69199 0.0
C1483 C 0.38673 0.38735 0.72597 0.0
C1484 C 0.38282 0.39758 0.74669 0.0
C1485 C 0.37255 0.40317 0.73191 0.0
C1486 C 0.36614 0.3984 0.69793 0.0
H1487 H 0.37987 0.38586 0.55397 0.0
H1488 H 0.38095 0.39385 0.6036 0.0
H1489 H 0.38623 0.37898 0.60008 0.0
H1490 H 0.38336 0.37452 0.67748 0.0
H1491 H 0.39456 0.38279 0.73669 0.0
H1492 H 0.35201 0.64361 0.49033 0.0
H1493 H 0.36075 0.63133 0.4349 0.0
H1494 H 0.33141 0.60745 0.44303 0.0
H1495 H 0.3225 0.61977 0.49852 0.0
H1496 H 0.36683 0.60708 0.44739 0.0
H1497 H 0.33538 0.61358 0.31309 0.0
H1498 H 0.33622 0.62362 0.35761 0.0
H1499 H 0.32925 0.6096 0.36399 0.0
C1500 C 0.34731 0.63585 0.47993 0.0
C1501 C 0.33656 0.63266 0.49883 0.0
C1502 C 0.35234 0.62882 0.44835 0.0
C1503 C 0.34671 0.61852 0.43486 0.0
C1504 C 0.33582 0.61546 0.45269 0.0
H1505 H 0.37216 0.57085 0.23449 0.0
H1506 H 0.36087 0.57823 0.2956 0.0
C1507 C 0.33076 0.6225 0.48439 0.0
C1508 C 0.35265 0.61074 0.40376 0.0
H1509 H 0.35149 0.60103 0.30086 0.0
C1510 C 0.36344 0.60567 0.41544 0.0
C1511 C 0.34812 0.60883 0.36235 0.0
C1512 C 0.33664 0.61423 0.34816 0.0
C1513 C 0.37 0.599 0.38635 0.0
C1514 C 0.36575 0.59753 0.34431 0.0
C1515 C 0.35472 0.60217 0.33316 0.0
C1516 C 0.37308 0.59222 0.31038 0.0
C1517 C 0.3815 0.59368 0.40075 0.0
C1518 C 0.38371 0.59759 0.29879 0.0
C1519 C 0.39015 0.59342 0.26406 0.0
C1520 C 0.38605 0.58383 0.24007 0.0
C1521 C 0.37558 0.57821 0.25252 0.0
C1522 C 0.3691 0.58244 0.28728 0.0
H1523 H 0.38167 0.59236 0.43588 0.0
H1524 H 0.38312 0.5851 0.3849 0.0
H1525 H 0.3888 0.59972 0.39235 0.0
H1526 H 0.38683 0.60529 0.31566 0.0
H1527 H 0.39815 0.59797 0.25519 0.0
H1528 H 0.16117 0.62274 0.98168 0.0
H1529 H 0.15302 0.61137 0.0412 0.0
H1530 H 0.12506 0.63673 0.05474 0.0
H1531 H 0.13316 0.64817 -0.00416 0.0
H1532 H 0.13534 0.62947 0.13278 0.0
H1533 H 0.12268 0.59156 0.03021 0.0
H1534 H 0.13783 0.59604 0.02823 0.0
H1535 H 0.12661 0.6057 0.0083 0.0
C1536 C 0.15336 0.62596 -0.00232 0.0
C1537 C 0.14776 0.63632 0.98392 0.0
C1538 C 0.14867 0.61941 0.03142 0.0
C1539 C 0.13833 0.62311 0.05178 0.0
C1540 C 0.13301 0.63369 0.03922 0.0
H1541 H 0.08674 0.60349 0.2341 0.0
H1542 H 0.09898 0.61191 0.17794 0.0
C1543 C 0.13767 0.64022 0.00556 0.0
C1544 C 0.13278 0.61596 0.08566 0.0
H1545 H 0.11762 0.59048 0.10294 0.0
C1546 C 0.13156 0.6209 0.12639 0.0
C1547 C 0.12789 0.60476 0.07716 0.0
C1548 C 0.12871 0.59919 0.03358 0.0
C1549 C 0.12534 0.61507 0.15865 0.0
C1550 C 0.12006 0.6041 0.14968 0.0
C1551 C 0.12166 0.59892 0.10952 0.0
C1552 C 0.11224 0.5983 0.18092 0.0
C1553 C 0.12434 0.62076 0.202 0.0
C1554 C 0.11542 0.58758 0.19979 0.0
C1555 C 0.1084 0.58269 0.23191 0.0
C1556 C 0.09809 0.58845 0.24534 0.0
C1557 C 0.09466 0.59887 0.2247 0.0
C1558 C 0.10167 0.60374 0.19276 0.0
H1559 H 0.13131 0.62745 0.20708 0.0
H1560 H 0.11568 0.62521 0.20459 0.0
H1561 H 0.12492 0.61409 0.22779 0.0
H1562 H 0.12351 0.58322 0.19072 0.0
H1563 H 0.11126 0.57464 0.24719 0.0
H1564 H 0.11424 0.41112 0.72966 0.0
H1565 H 0.12585 0.4015 0.78576 0.0
H1566 H 0.1002 0.37369 0.79288 0.0
H1567 H 0.08862 0.38314 0.73693 0.0
H1568 H 0.11976 0.39404 0.87107 0.0
H1569 H 0.13153 0.35667 0.76585 0.0
H1570 H 0.12564 0.37032 0.74557 0.0
H1571 H 0.11601 0.35951 0.76857 0.0
C1572 C 0.111 0.40304 0.74358 0.0
C1573 C 0.10056 0.39784 0.7286 0.0
C1574 C 0.11766 0.39755 0.7755 0.0
C1575 C 0.114 0.38677 0.7927 0.0
C1576 C 0.10329 0.38188 0.77932 0.0
H1577 H 0.13216 0.33551 0.97748 0.0
H1578 H 0.12463 0.34745 0.91881 0.0
C1579 C 0.09665 0.38734 0.74752 0.0
C1580 C 0.12141 0.3804 0.82395 0.0
H1581 H 0.13528 0.35416 0.84023 0.0
C1582 C 0.12331 0.3854 0.86426 0.0
C1583 C 0.12608 0.36916 0.81472 0.0
C1584 C 0.12482 0.36362 0.77119 0.0
C1585 C 0.12925 0.37915 0.89644 0.0
C1586 C 0.13352 0.36771 0.88768 0.0
C1587 C 0.13198 0.36292 0.84685 0.0
C1588 C 0.13872 0.36021 0.92137 0.0
C1589 C 0.13043 0.3846 0.94013 0.0
C1590 C 0.14933 0.36324 0.94145 0.0
C1591 C 0.1537 0.35639 0.97503 0.0
C1592 C 0.14751 0.3464 0.98898 0.0
C1593 C 0.13713 0.34316 0.96762 0.0
C1594 C 0.1328 0.34998 0.93408 0.0
H1595 H 0.12488 0.39258 0.94367 0.0
H1596 H 0.12794 0.37819 0.96527 0.0
H1597 H 0.13973 0.38714 0.94552 0.0
H1598 H 0.15412 0.371 0.93158 0.0
H1599 H 0.16172 0.3591 -0.00916 0.0
H1600 H 0.16202 0.29136 0.04311 0.0
H1601 H 0.16319 0.27113 0.01593 0.0
H1602 H 0.14239 0.25913 0.12242 0.0
H1603 H 0.14119 0.27912 0.14954 0.0
H1604 H 0.17349 0.25282 0.06153 0.0
H1605 H 0.1276 0.24142 0.02277 0.0
H1606 H 0.1326 0.25646 0.02671 0.0
H1607 H 0.12844 0.24843 0.07391 0.0
C1608 C 0.1575 0.28442 0.06017 0.0
C1609 C 0.15156 0.28682 0.0986 0.0
C1610 C 0.15817 0.27289 0.0446 0.0
C1611 C 0.15271 0.26367 0.06677 0.0
C1612 C 0.14643 0.26615 0.10422 0.0
H1613 H 0.16551 0.20017 0.1655 0.0
H1614 H 0.16542 0.21992 0.13595 0.0
C1615 C 0.14586 0.27758 0.11996 0.0
C1616 C 0.15469 0.25123 0.05477 0.0
H1617 H 0.13991 0.22521 0.04899 0.0
C1618 C 0.16619 0.2468 0.05729 0.0
C1619 C 0.14521 0.24338 0.04843 0.0
C1620 C 0.13278 0.2477 0.04232 0.0
C1621 C 0.16829 0.23466 0.0586 0.0
C1622 C 0.15864 0.22683 0.05777 0.0
C1623 C 0.1473 0.23123 0.05025 0.0
C1624 C 0.15982 0.21457 0.07289 0.0
C1625 C 0.18074 0.23032 0.06374 0.0
C1626 C 0.1566 0.20498 0.04725 0.0
C1627 C 0.15668 0.19356 0.06415 0.0
C1628 C 0.15971 0.19167 0.10716 0.0
C1629 C 0.16308 0.20131 0.13233 0.0
C1630 C 0.16315 0.21262 0.11537 0.0
H1631 H 0.18711 0.23655 0.04926 0.0
H1632 H 0.18283 0.2296 0.09824 0.0
H1633 H 0.18192 0.22153 0.04893 0.0
H1634 H 0.15386 0.20635 0.01452 0.0
H1635 H 0.154 0.18629 0.04408 0.0
H1636 H 0.95151 0.91475 0.41746 0.0
H1637 H 0.9714 0.9157 0.38924 0.0
H1638 H 0.9589 0.90439 0.26601 0.0
H1639 H 0.93872 0.90345 0.2942 0.0
H1640 H 0.97795 0.89096 0.30019 0.0
H1641 H 0.98781 0.93842 0.30592 0.0
H1642 H 0.98086 0.93354 0.35414 0.0
H1643 H 0.97295 0.93278 0.30442 0.0
C1644 C 0.95292 0.9126 0.38418 0.0
C1645 C 0.94354 0.90897 0.35809 0.0
C1646 C 0.96429 0.91327 0.36797 0.0
C1647 C 0.96659 0.9103 0.32538 0.0
C1648 C 0.95725 0.90686 0.29884 0.0
H1649 H 0.04349 0.91465 0.29729 0.0
H1650 H 0.0232 0.91557 0.27027 0.0
C1651 C 0.94576 0.90633 0.31498 0.0
C1652 C 0.97896 0.90963 0.31101 0.0
H1653 H 0.00449 0.92523 0.31736 0.0
C1654 C 0.98374 0.89851 0.30249 0.0
C1655 C 0.98648 0.9195 0.31323 0.0
C1656 C 0.98174 0.93175 0.31947 0.0
C1657 C -0.00405 0.89682 0.30095 0.0
C1658 C 0.00349 0.90647 0.30853 0.0
C1659 C -0.0013 0.91779 0.31215 0.0
C1660 C 0.01596 0.90477 0.32062 0.0
C1661 C 0.00069 0.88459 0.29382 0.0
C1662 C 0.01857 0.89841 0.35778 0.0
C1663 C 0.03002 0.89799 0.37345 0.0
C1664 C 0.03916 0.90391 0.35229 0.0
C1665 C 0.03664 0.90996 0.31419 0.0
C1666 C 0.02508 0.91049 0.29871 0.0
H1667 H -0.00544 0.87931 0.27394 0.0
H1668 H 0.00944 0.88481 0.27812 0.0
H1669 H 0.00162 0.88009 0.32507 0.0
H1670 H 0.01163 0.89416 0.37574 0.0
H1671 H 0.03166 0.89322 0.40278 0.0
H1672 H 0.34004 0.77969 0.64483 0.0
H1673 H 0.33937 0.75997 0.61513 0.0
H1674 H 0.31866 0.77256 0.5092 0.0
H1675 H 0.31929 0.79253 0.53899 0.0
H1676 H 0.30859 0.75369 0.55187 0.0
H1677 H 0.35479 0.74335 0.51439 0.0
H1678 H 0.35373 0.74998 0.56614 0.0
H1679 H 0.34951 0.75828 0.51957 0.0
C1680 C 0.33549 0.77835 0.61483 0.0
C1681 C 0.32965 0.78766 0.59439 0.0
C1682 C 0.33524 0.76707 0.5976 0.0
C1683 C 0.32915 0.76483 0.55954 0.0
C1684 C 0.32354 0.77415 0.53831 0.0
H1685 H 0.32963 0.68752 0.53686 0.0
H1686 H 0.32929 0.70744 0.50594 0.0
C1687 C 0.3239 0.78553 0.55538 0.0
C1688 C 0.32745 0.75248 0.54604 0.0
H1689 H 0.34278 0.72677 0.53991 0.0
C1690 C 0.31603 0.74783 0.54766 0.0
C1691 C 0.3371 0.74483 0.53966 0.0
C1692 C 0.34945 0.74941 0.53436 0.0
C1693 C 0.31418 0.73564 0.54841 0.0
C1694 C 0.324 0.72801 0.54794 0.0
C1695 C 0.33526 0.73264 0.54093 0.0
C1696 C 0.32306 0.7158 0.56366 0.0
C1697 C 0.30181 0.73105 0.55291 0.0
C1698 C 0.31975 0.71398 0.60622 0.0
C1699 C 0.3201 0.70278 0.62395 0.0
C1700 C 0.32374 0.6931 0.59948 0.0
C1701 C 0.32674 0.69483 0.55638 0.0
C1702 C 0.32655 0.70616 0.5387 0.0
H1703 H 0.29537 0.73714 0.53799 0.0
H1704 H 0.30089 0.72223 0.53813 0.0
H1705 H 0.2996 0.73032 0.58729 0.0
H1706 H 0.31727 0.72133 0.62629 0.0
H1707 H 0.31767 0.70174 0.65716 0.0
H1708 H 0.45352 0.08493 0.90161 0.0
H1709 H 0.47326 0.08271 0.87284 0.0
H1710 H 0.4595 0.06307 0.76631 0.0
H1711 H 0.43948 0.06535 0.79496 0.0
H1712 H 0.47846 0.05199 0.813 0.0
H1713 H 0.48968 0.09751 0.76775 0.0
H1714 H 0.48267 0.09691 0.81901 0.0
H1715 H 0.47466 0.09242 0.77221 0.0
C1716 C 0.45463 0.08025 0.87179 0.0
C1717 C 0.44494 0.07528 0.85063 0.0
C1718 C 0.46592 0.07909 0.85517 0.0
C1719 C 0.46781 0.07289 0.81713 0.0
C1720 C 0.45818 0.06801 0.79544 0.0
H1721 H 0.54455 0.07377 0.79017 0.0
H1722 H 0.52459 0.07222 0.76054 0.0
C1723 C 0.44678 0.06932 0.81184 0.0
C1724 C 0.48004 0.07067 0.80337 0.0
H1725 H 0.50598 0.08533 0.79278 0.0
C1726 C 0.48447 0.05921 0.80706 0.0
C1727 C 0.48783 0.08004 0.79478 0.0
C1728 C 0.48344 0.0924 0.78774 0.0
C1729 C 0.49663 0.05711 0.80744 0.0
C1730 C 0.50445 0.06673 0.80454 0.0
C1731 C 0.49999 0.07796 0.79563 0.0
C1732 C 0.5168 0.06581 0.81905 0.0
C1733 C 0.50099 0.04471 0.81378 0.0
C1734 C 0.51902 0.06266 0.86157 0.0
C1735 C 0.53028 0.06366 0.8786 0.0
C1736 C 0.53961 0.06784 0.85346 0.0
C1737 C 0.53753 0.07048 0.81025 0.0
C1738 C 0.52616 0.0696 0.79328 0.0
H1739 H 0.4948 0.03826 0.79955 0.0
H1740 H 0.50983 0.04345 0.79943 0.0
H1741 H 0.50158 0.04283 0.84846 0.0
H1742 H 0.51189 0.05999 0.88236 0.0
H1743 H 0.5316 0.06151 0.91194 0.0
H1744 H 0.14068 0.78191 0.83202 0.0
H1745 H 0.14202 0.7622 0.86156 0.0
H1746 H 0.163 0.77524 0.96598 0.0
H1747 H 0.16171 0.79519 0.93633 0.0
H1748 H 0.17338 0.75678 0.92257 0.0
H1749 H 0.12775 0.74497 0.96291 0.0
H1750 H 0.12833 0.75161 0.91109 0.0
H1751 H 0.13249 0.76005 0.95735 0.0
C1752 C 0.14541 0.78066 0.86169 0.0
C1753 C 0.15115 0.7901 0.88169 0.0
C1754 C 0.14606 0.76939 0.87884 0.0
C1755 C 0.15244 0.76728 0.91638 0.0
C1756 C 0.1579 0.77672 0.93728 0.0
H1757 H 0.15402 0.6901 0.94008 0.0
H1758 H 0.15405 0.71008 0.9703 0.0
C1759 C 0.15716 0.78809 0.92029 0.0
C1760 C 0.15461 0.75497 0.92953 0.0
H1761 H 0.14018 0.72879 0.93671 0.0
C1762 C 0.16617 0.75068 0.92721 0.0
C1763 C 0.14525 0.74702 0.93648 0.0
C1764 C 0.13277 0.75119 0.94258 0.0
C1765 C 0.16843 0.73857 0.92643 0.0
C1766 C 0.15888 0.73062 0.92755 0.0
C1767 C 0.14749 0.73489 0.93515 0.0
C1768 C 0.16017 0.71839 0.91232 0.0
C1769 C 0.18093 0.73438 0.92141 0.0
C1770 C 0.16355 0.71651 0.86987 0.0
C1771 C 0.16338 0.70525 0.85252 0.0
C1772 C 0.15985 0.69559 0.87729 0.0
C1773 C 0.15683 0.69739 0.92033 0.0
C1774 C 0.15685 0.70876 0.93761 0.0
H1775 H 0.18721 0.74066 0.93616 0.0
H1776 H 0.18221 0.72558 0.93603 0.0
H1777 H 0.18307 0.73377 0.88693 0.0
H1778 H 0.16589 0.72384 0.84951 0.0
H1779 H 0.16581 0.70416 0.81934 0.0
H1780 H 0.44951 0.8928 0.06848 0.0
H1781 H 0.46957 0.8938 0.09527 0.0
H1782 H 0.45773 0.91369 0.20422 0.0
H1783 H 0.43742 0.91271 0.17745 0.0
H1784 H 0.4762 0.92424 0.15823 0.0
H1785 H 0.48701 0.87801 0.1945 0.0
H1786 H 0.47992 0.87933 0.14357 0.0
H1787 H 0.47203 0.88331 0.19128 0.0
C1788 C 0.4511 0.89724 0.09849 0.0
C1789 C 0.44188 0.90273 0.12075 0.0
C1790 C 0.46257 0.8977 0.11401 0.0
C1791 C 0.46511 0.90365 0.15208 0.0
C1792 C 0.45591 0.90893 0.17503 0.0
H1793 H 0.54233 0.90416 0.18371 0.0
H1794 H 0.52189 0.90393 0.20943 0.0
C1795 C 0.44434 0.90836 0.1597 0.0
C1796 C 0.47756 0.90542 0.16427 0.0
H1797 H 0.50341 0.8903 0.17094 0.0
C1798 C 0.48214 0.91685 0.16242 0.0
C1799 C 0.48528 0.89582 0.17044 0.0
C1800 C 0.48078 0.88344 0.17553 0.0
C1801 C 0.49432 0.9188 0.16198 0.0
C1802 C 0.50204 0.90906 0.16305 0.0
C1803 C 0.49747 0.89775 0.16955 0.0
C1804 C 0.51449 0.91017 0.14999 0.0
C1805 C 0.49882 0.9312 0.15777 0.0
C1806 C 0.51703 0.91367 0.10812 0.0
C1807 C 0.52857 0.91367 0.09329 0.0
C1808 C 0.53786 0.91019 0.12006 0.0
C1809 C 0.53536 0.90693 0.16242 0.0
C1810 C 0.52371 0.9068 0.17715 0.0
H1811 H 0.49251 0.93762 0.17157 0.0
H1812 H 0.50747 0.93225 0.1738 0.0
H1813 H 0.49992 0.93334 0.12345 0.0
H1814 H 0.51001 0.91607 0.08638 0.0
H1815 H 0.53018 0.91626 0.06055 0.0
H1816 H 0.32932 0.18789 0.43561 0.0
H1817 H 0.32857 0.20782 0.46606 0.0
H1818 H 0.31638 0.22131 0.34527 0.0
H1819 H 0.31714 0.20167 0.31487 0.0
H1820 H 0.34179 0.22698 0.43327 0.0
H1821 H 0.2944 0.23736 0.43153 0.0
H1822 H 0.2999 0.22244 0.43109 0.0
H1823 H 0.29887 0.23072 0.38222 0.0
C1824 C 0.32628 0.1951 0.41589 0.0
C1825 C 0.32335 0.19324 0.37279 0.0
C1826 C 0.32586 0.20645 0.43331 0.0
C1827 C 0.32223 0.21599 0.4081 0.0
C1828 C 0.31895 0.21404 0.36557 0.0
H1829 H 0.3398 0.28042 0.33079 0.0
H1830 H 0.33885 0.26053 0.35888 0.0
C1831 C 0.31951 0.20281 0.34809 0.0
C1832 C 0.32307 0.22824 0.42356 0.0
H1833 H 0.30771 0.25394 0.41891 0.0
C1834 C 0.33429 0.23286 0.43165 0.0
C1835 C 0.31326 0.23588 0.42232 0.0
C1836 C 0.30091 0.23131 0.41678 0.0
C1837 C 0.33612 0.24504 0.43345 0.0
C1838 C 0.32651 0.2527 0.42647 0.0
C1839 C 0.31511 0.24806 0.42358 0.0
C1840 C 0.32831 0.26512 0.41394 0.0
C1841 C 0.34844 0.24959 0.44005 0.0
C1842 C 0.32263 0.27434 0.43543 0.0
C1843 C 0.32316 0.28582 0.4193 0.0
C1844 C 0.32917 0.28815 0.38098 0.0
C1845 C 0.33507 0.27892 0.36028 0.0
C1846 C 0.33464 0.26755 0.37658 0.0
H1847 H 0.35366 0.24345 0.46008 0.0
H1848 H 0.35289 0.25032 0.40867 0.0
H1849 H 0.34839 0.25839 0.45538 0.0
H1850 H 0.31757 0.2726 0.46401 0.0
H1851 H 0.31849 0.29275 0.43586 0.0
H1852 H 0.94784 0.08399 0.55656 0.0
H1853 H 0.96784 0.08483 0.58407 0.0
H1854 H 0.95568 0.07371 0.70787 0.0
H1855 H 0.93539 0.07286 0.68058 0.0
H1856 H 0.97546 0.09841 0.66894 0.0
H1857 H 0.98355 0.05013 0.65929 0.0
H1858 H 0.97288 0.05684 0.6242 0.0
H1859 H 0.96995 0.05597 0.68028 0.0
C1860 C 0.94934 0.08173 0.5897 0.0
C1861 C 0.94 0.07831 0.61633 0.0
C1862 C 0.96079 0.08226 0.60536 0.0
C1863 C 0.96318 0.07932 0.64786 0.0
C1864 C 0.95394 0.076 0.67492 0.0
H1865 H 0.03981 0.07192 0.68174 0.0
H1866 H 0.01933 0.07204 0.70715 0.0
C1867 C 0.9424 0.07553 0.65927 0.0
C1868 C 0.97551 0.07957 0.66249 0.0
H1869 H 0.00018 0.06253 0.66049 0.0
C1870 C 0.98086 0.09054 0.66854 0.0
C1871 C 0.98247 0.06929 0.6623 0.0
C1872 C 0.97699 0.05734 0.65628 0.0
C1873 C -0.00687 0.09157 0.67075 0.0
C1874 C 0.00016 0.0814 0.66583 0.0
C1875 C -0.00524 0.07032 0.66405 0.0
C1876 C 0.01273 0.08226 0.65407 0.0
C1877 C -0.00151 0.10361 0.6757 0.0
C1878 C 0.01574 0.0879 0.61584 0.0
C1879 C 0.02729 0.08775 0.60114 0.0
C1880 C 0.03613 0.08193 0.62434 0.0
C1881 C 0.03319 0.07652 0.66328 0.0
C1882 C 0.02153 0.07658 0.67783 0.0
H1883 H -0.00742 0.10952 0.69408 0.0
H1884 H 0.00716 0.10316 0.692 0.0
H1885 H -0.00022 0.10756 0.64366 0.0
H1886 H 0.00905 0.09211 0.59649 0.0
H1887 H 0.02923 0.09204 0.5711 0.0
H1888 H 0.82198 0.68764 0.92973 0.0
H1889 H 0.81965 0.70784 0.95628 0.0
H1890 H 0.83818 0.72092 0.84608 0.0
H1891 H 0.84059 0.70098 0.81959 0.0
H1892 H 0.8446 0.73163 0.92752 0.0
H1893 H 0.79635 0.73094 0.89469 0.0
H1894 H 0.80273 0.71967 0.92777 0.0
H1895 H 0.80606 0.72008 0.87187 0.0
C1896 C 0.82568 0.69482 0.91149 0.0
C1897 C 0.83136 0.69272 0.87231 0.0
C1898 C 0.82431 0.70634 0.92665 0.0
C1899 C 0.82868 0.71584 0.90293 0.0
C1900 C 0.83477 0.71369 0.86487 0.0
H1901 H 0.81945 0.78016 0.80701 0.0
H1902 H 0.81941 0.76016 0.83424 0.0
C1903 C 0.83608 0.70228 0.84966 0.0
C1904 C 0.82632 0.72818 0.91506 0.0
H1905 H 0.80533 0.74932 0.90227 0.0
C1906 C 0.83595 0.73552 0.92351 0.0
C1907 C 0.81502 0.73315 0.90969 0.0
C1908 C 0.8044 0.72562 0.9004 0.0
C1909 C 0.83477 0.74779 0.92294 0.0
C1910 C 0.82365 0.75277 0.91388 0.0
C1911 C 0.81383 0.74543 0.9093 0.0
C1912 C 0.82258 0.76513 0.89985 0.0
C1913 C 0.84558 0.75534 0.92802 0.0
C1914 C 0.82419 0.77459 0.92797 0.0
C1915 C 0.82421 0.78615 0.91241 0.0
C1916 C 0.82272 0.78834 0.86851 0.0
C1917 C 0.82074 0.77881 0.84091 0.0
C1918 C 0.82064 0.76735 0.85645 0.0
H1919 H 0.85367 0.75004 0.93319 0.0
H1920 H 0.84683 0.76087 0.89918 0.0
H1921 H 0.84443 0.76132 0.95568 0.0
H1922 H 0.82563 0.77303 0.96165 0.0
H1923 H 0.82573 0.79332 0.93447 0.0
H1924 H 0.65946 0.19082 0.43139 0.0
H1925 H 0.66232 0.21062 0.46107 0.0
H1926 H 0.64257 0.22533 0.35634 0.0
H1927 H 0.63972 0.20581 0.32668 0.0
H1928 H 0.67383 0.22903 0.41725 0.0
H1929 H 0.62872 0.24233 0.46031 0.0
H1930 H 0.63301 0.2271 0.45446 0.0
H1931 H 0.62904 0.23572 0.40838 0.0
C1932 C 0.65558 0.19828 0.41514 0.0
C1933 C 0.64941 0.19676 0.37659 0.0
C1934 C 0.65721 0.20956 0.43215 0.0
C1935 C 0.65247 0.2194 0.41131 0.0
C1936 C 0.64607 0.21783 0.37349 0.0
H1937 H 0.66792 0.28258 0.31901 0.0
H1938 H 0.66753 0.26274 0.34765 0.0
C1939 C 0.64456 0.20666 0.35631 0.0
C1940 C 0.65517 0.2315 0.42542 0.0
H1941 H 0.64171 0.25813 0.43551 0.0
C1942 C 0.66686 0.23537 0.42277 0.0
C1943 C 0.64613 0.23974 0.43353 0.0
C1944 C 0.63354 0.23598 0.43981 0.0
C1945 C 0.66954 0.24739 0.42285 0.0
C1946 C 0.66029 0.25567 0.42514 0.0
C1947 C 0.64879 0.25177 0.43307 0.0
C1948 C 0.66192 0.26796 0.41087 0.0
C1949 C 0.68217 0.25115 0.41755 0.0
C1950 C 0.65879 0.27751 0.43685 0.0
C1951 C 0.65901 0.28897 0.42042 0.0
C1952 C 0.6621 0.29096 0.37755 0.0
C1953 C 0.66545 0.28136 0.35209 0.0
C1954 C 0.66536 0.27001 0.36857 0.0
H1955 H 0.68826 0.24459 0.43184 0.0
H1956 H 0.68425 0.25178 0.38303 0.0
H1957 H 0.6838 0.25985 0.43248 0.0
H1958 H 0.65595 0.27607 0.46941 0.0
H1959 H 0.65635 0.2962 0.44073 0.0
H1960 H 0.84127 0.27765 0.15393 0.0
H1961 H 0.83909 0.25783 0.1262 0.0
H1962 H 0.81936 0.27115 0.01901 0.0
H1963 H 0.82148 0.29122 0.04686 0.0
H1964 H 0.80794 0.2534 0.06266 0.0
H1965 H 0.85334 0.23948 0.02749 0.0
H1966 H 0.85263 0.24635 0.07889 0.0
H1967 H 0.84919 0.25478 0.0318 0.0
C1968 C 0.83662 0.27643 0.12408 0.0
C1969 C 0.83148 0.28601 0.10272 0.0
C1970 C 0.8355 0.26509 0.10798 0.0
C1971 C 0.82925 0.26303 0.07013 0.0
C1972 C 0.82435 0.27258 0.04799 0.0
H1973 H 0.82411 0.18596 0.04497 0.0
H1974 H 0.82569 0.20606 0.01657 0.0
C1975 C 0.82556 0.28402 0.06396 0.0
C1976 C 0.82667 0.25075 0.05765 0.0
H1977 H 0.84001 0.22394 0.05265 0.0
C1978 C 0.81492 0.24698 0.059 0.0
C1979 C 0.83573 0.24238 0.05198 0.0
C1980 C 0.84842 0.24599 0.04697 0.0
C1981 C 0.81215 0.23498 0.05981 0.0
C1982 C 0.82135 0.22662 0.05978 0.0
C1983 C 0.83297 0.23037 0.05339 0.0
C1984 C 0.81938 0.2144 0.0742 0.0
C1985 C 0.79943 0.23136 0.06346 0.0
C1986 C 0.8154 0.2125 0.11596 0.0
C1987 C 0.81463 0.20115 0.1323 0.0
C1988 C 0.81781 0.19142 0.10723 0.0
C1989 C 0.82156 0.19329 0.06497 0.0
C1990 C 0.82246 0.20474 0.04871 0.0
H1991 H 0.79356 0.23793 0.04814 0.0
H1992 H 0.79789 0.22264 0.04858 0.0
H1993 H 0.79699 0.23081 0.09769 0.0
H1994 H 0.81324 0.21984 0.1365 0.0
H1995 H 0.81167 0.20003 0.1649 0.0
H1996 H 0.65358 0.68535 0.54772 0.0
H1997 H 0.6527 0.70577 0.5219 0.0
H1998 H 0.66276 0.71813 0.64671 0.0
H1999 H 0.66354 0.69799 0.67273 0.0
H2000 H 0.63787 0.72445 0.56196 0.0
H2001 H 0.68532 0.73523 0.56035 0.0
H2002 H 0.67987 0.72034 0.55636 0.0
H2003 H 0.68088 0.72744 0.60751 0.0
C2004 C 0.65569 0.69244 0.56947 0.0
C2005 C 0.65859 0.69007 0.6123 0.0
C2006 C 0.65519 0.70406 0.55468 0.0
C2007 C 0.65783 0.7134 0.58231 0.0
C2008 C 0.66088 0.71102 0.62476 0.0
H2009 H 0.64144 0.77827 0.66431 0.0
H2010 H 0.64201 0.75825 0.63714 0.0
C2011 C 0.66123 0.69949 0.63964 0.0
C2012 C 0.65667 0.72578 0.56873 0.0
H2013 H 0.67196 0.75151 0.57211 0.0
C2014 C 0.64534 0.73037 0.56275 0.0
C2015 C 0.66644 0.73344 0.56914 0.0
C2016 C 0.67884 0.72886 0.57326 0.0
C2017 C 0.64344 0.74255 0.56167 0.0
C2018 C 0.6531 0.75023 0.56707 0.0
C2019 C 0.66453 0.74561 0.5684 0.0
C2020 C 0.65142 0.76268 0.57931 0.0
C2021 C 0.63103 0.7471 0.55735 0.0
C2022 C 0.65657 0.77184 0.55584 0.0
C2023 C 0.65623 0.78339 0.57136 0.0
C2024 C 0.65098 0.78584 0.61102 0.0
C2025 C 0.6456 0.77667 0.63376 0.0
C2026 C 0.64581 0.76522 0.61804 0.0
H2027 H 0.62547 0.74086 0.53905 0.0
H2028 H 0.62712 0.74808 0.58958 0.0
H2029 H 0.63085 0.7558 0.54128 0.0
H2030 H 0.66108 0.77001 0.52614 0.0
H2031 H 0.66049 0.79028 0.55324 0.0
H2032 H 0.52986 0.38647 0.90366 0.0
H2033 H 0.50976 0.38803 0.87771 0.0
H2034 H 0.52129 0.41072 0.77573 0.0
H2035 H 0.54162 0.40922 0.80176 0.0
H2036 H 0.50328 0.42017 0.82441 0.0
H2037 H 0.49151 0.37509 0.77612 0.0
H2038 H 0.49864 0.37507 0.82716 0.0
H2039 H 0.5066 0.37994 0.78069 0.0
C2040 C 0.5282 0.39164 0.87525 0.0
C2041 C 0.53733 0.39778 0.85492 0.0
C2042 C 0.5167 0.39241 0.86014 0.0
C2043 C 0.51405 0.39933 0.82437 0.0
C2044 C 0.52318 0.40521 0.80309 0.0
H2045 H 0.43661 0.40279 0.7982 0.0
H2046 H 0.45692 0.40229 0.77108 0.0
C2047 C 0.53477 0.40435 0.81801 0.0
C2048 C 0.50156 0.40154 0.81354 0.0
H2049 H 0.4754 0.38709 0.80471 0.0
C2050 C 0.4972 0.413 0.81868 0.0
C2051 C 0.49363 0.39224 0.80536 0.0
C2052 C 0.49787 0.37992 0.79655 0.0
C2053 C 0.48507 0.41515 0.82047 0.0
C2054 C 0.47717 0.4056 0.81742 0.0
C2055 C 0.48149 0.39438 0.80764 0.0
C2056 C 0.46483 0.40671 0.83177 0.0
C2057 C 0.4808 0.42751 0.82833 0.0
C2058 C 0.46263 0.40924 0.87478 0.0
C2059 C 0.45117 0.40939 0.89035 0.0
C2060 C 0.44161 0.40704 0.86321 0.0
C2061 C 0.44379 0.40468 0.81983 0.0
C2062 C 0.45536 0.40439 0.8043 0.0
H2063 H 0.4872 0.43409 0.81617 0.0
H2064 H 0.47214 0.42906 0.81295 0.0
H2065 H 0.47982 0.42892 0.86319 0.0
H2066 H 0.46984 0.41083 0.89667 0.0
H2067 H 0.44981 0.41127 0.92388 0.0
H2068 H 0.93827 0.57596 0.28743 0.0
H2069 H 0.95831 0.57603 0.2577 0.0
H2070 H 0.9721 0.56554 0.38014 0.0
H2071 H 0.95236 0.56554 0.40989 0.0
H2072 H 0.97694 0.59045 0.29094 0.0
H2073 H 0.98909 0.5435 0.29534 0.0
H2074 H 0.97397 0.54845 0.2942 0.0
H2075 H 0.98197 0.54794 0.3438 0.0
C2076 C 0.94559 0.5735 0.30772 0.0
C2077 C 0.94376 0.57081 0.35104 0.0
C2078 C 0.95699 0.57353 0.2907 0.0
C2079 C 0.96664 0.57058 0.31656 0.0
C2080 C 0.96475 0.56759 0.3594 0.0
H2081 H 0.02953 0.59034 0.39868 0.0
H2082 H 0.0099 0.58851 0.36862 0.0
C2083 C 0.95346 0.56771 0.37648 0.0
C2084 C 0.97887 0.57183 0.30132 0.0
H2085 H 0.00512 0.55746 0.30784 0.0
C2086 C 0.98309 0.58318 0.29305 0.0
C2087 C 0.98686 0.56232 0.30324 0.0
C2088 C 0.98272 0.54985 0.30917 0.0
C2089 C -0.00479 0.58546 0.2919 0.0
C2090 C 0.0032 0.57617 0.29963 0.0
C2091 C -0.00102 0.56462 0.30255 0.0
C2092 C 0.01542 0.57847 0.31346 0.0
C2093 C -0.00065 0.59791 0.28545 0.0
C2094 C 0.02507 0.57336 0.29254 0.0
C2095 C 0.0364 0.57441 0.30977 0.0
C2096 C 0.03815 0.58036 0.34862 0.0
C2097 C 0.02848 0.58565 0.36883 0.0
C2098 C 0.01726 0.58473 0.35141 0.0
H2099 H -0.00692 0.60292 0.26519 0.0
H2100 H -0.00015 0.60239 0.31686 0.0
H2101 H 0.0082 0.59817 0.27047 0.0
H2102 H 0.02378 0.56835 0.26353 0.0
H2103 H 0.04369 0.5702 0.29359 0.0
H2104 H 0.95403 0.39005 0.57639 0.0
H2105 H 0.97404 0.39181 0.60298 0.0
H2106 H 0.96176 0.41286 0.70838 0.0
H2107 H 0.94148 0.4111 0.68179 0.0
H2108 H 0.9799 0.42323 0.66063 0.0
H2109 H -0.00798 0.37785 0.70435 0.0
H2110 H 0.98482 0.37826 0.65344 0.0
H2111 H 0.9769 0.38268 0.70056 0.0
C2112 C 0.95551 0.39491 0.60561 0.0
C2113 C 0.94617 0.40049 0.62687 0.0
C2114 C 0.96697 0.3958 0.62105 0.0
C2115 C 0.96936 0.4023 0.65805 0.0
C2116 C 0.96005 0.40767 0.68007 0.0
H2117 H 0.04671 0.40508 0.68232 0.0
H2118 H 0.02654 0.40481 0.71085 0.0
C2119 C 0.9485 0.40667 0.66484 0.0
C2120 C 0.98177 0.40455 0.66971 0.0
H2121 H 0.00803 0.39019 0.67721 0.0
C2122 C 0.98603 0.41607 0.66574 0.0
C2123 C 0.98977 0.39524 0.6771 0.0
C2124 C 0.98562 0.38283 0.68458 0.0
C2125 C -0.00185 0.41831 0.66412 0.0
C2126 C 0.00612 0.40878 0.66618 0.0
C2127 C 0.00189 0.39747 0.67503 0.0
C2128 C 0.01841 0.41 0.65135 0.0
C2129 C 0.00232 0.43075 0.65742 0.0
C2130 C 0.02044 0.41292 0.60854 0.0
C2131 C 0.03182 0.41293 0.59215 0.0
C2132 C 0.04145 0.41005 0.61825 0.0
C2133 C 0.03946 0.40739 0.66151 0.0
C2134 C 0.02798 0.40723 0.67784 0.0
H2135 H -0.00405 0.43717 0.67079 0.0
H2136 H 0.01106 0.4322 0.67238 0.0
H2137 H 0.0031 0.43248 0.62269 0.0
H2138 H 0.01316 0.41485 0.58734 0.0
H2139 H 0.03304 0.41507 0.55875 0.0
H2140 H 0.45238 0.58782 0.06543 0.0
H2141 H 0.47226 0.58815 0.09397 0.0
H2142 H 0.45986 0.57365 0.21278 0.0
H2143 H 0.43968 0.57328 0.18435 0.0
H2144 H 0.48041 0.59956 0.17689 0.0
H2145 H 0.48703 0.55108 0.16428 0.0
H2146 H 0.47587 0.55829 0.13269 0.0
H2147 H 0.47402 0.55701 0.18929 0.0
C2148 C 0.4538 0.58471 0.09769 0.0
C2149 C 0.44442 0.58045 0.12252 0.0
C2150 C 0.46518 0.58497 0.114 0.0
C2151 C 0.46749 0.58092 0.15536 0.0
C2152 C 0.4582 0.57679 0.1807 0.0
H2153 H 0.54376 0.5703 0.18148 0.0
H2154 H 0.52374 0.57166 0.2108 0.0
C2155 C 0.44671 0.57659 0.16442 0.0
C2156 C 0.47982 0.58074 0.17017 0.0
H2157 H 0.50392 0.56293 0.16695 0.0
C2158 C 0.48554 0.59152 0.1762 0.0
C2159 C 0.48644 0.57023 0.1697 0.0
C2160 C 0.48061 0.55845 0.16368 0.0
C2161 C 0.49785 0.59216 0.17772 0.0
C2162 C 0.50452 0.58179 0.17225 0.0
C2163 C 0.49877 0.57088 0.17089 0.0
C2164 C 0.517 0.58225 0.15892 0.0
C2165 C 0.5036 0.60403 0.18234 0.0
C2166 C 0.5198 0.58777 0.12023 0.0
C2167 C 0.53108 0.5869 0.1033 0.0
C2168 C 0.53984 0.58049 0.12473 0.0
C2169 C 0.53719 0.57534 0.1644 0.0
C2170 C 0.52578 0.5761 0.18116 0.0
H2171 H 0.49803 0.61006 0.2015 0.0
H2172 H 0.51238 0.60329 0.19767 0.0
H2173 H 0.50473 0.608 0.15027 0.0
H2174 H 0.51309 0.59232 0.10203 0.0
H2175 H 0.53285 0.59099 0.07277 0.0
H2176 H 0.12737 0.14833 0.23144 0.0
H2177 H 0.11834 0.1405 0.29646 0.0
H2178 H 0.13968 0.10929 0.28623 0.0
H2179 H 0.14873 0.11699 0.22117 0.0
H2180 H 0.10653 0.11692 0.30678 0.0
H2181 H 0.14597 0.12388 0.40895 0.0
H2182 H 0.14366 0.13177 0.35961 0.0
H2183 H 0.14833 0.11671 0.35848 0.0
C2184 C 0.13009 0.13978 0.24289 0.0
C2185 C 0.13879 0.1333 0.22137 0.0
C2186 C 0.12494 0.13533 0.27997 0.0
C2187 C 0.12849 0.12441 0.2962 0.0
C2188 C 0.13696 0.1178 0.27431 0.0
H2189 H 0.11204 0.08275 0.51821 0.0
H2190 H 0.12089 0.09169 0.4549 0.0
C2191 C 0.14206 0.1222 0.23712 0.0
C2192 C 0.12336 0.11991 0.33616 0.0
H2193 H 0.12998 0.11373 0.43993 0.0
C2194 C 0.1116 0.11626 0.33602 0.0
C2195 C 0.13008 0.11905 0.37395 0.0
C2196 C 0.1427 0.12312 0.37565 0.0
C2197 C 0.1064 0.1115 0.37272 0.0
C2198 C 0.11311 0.11069 0.41069 0.0
C2199 C 0.12487 0.11441 0.41079 0.0
C2200 C 0.10813 0.10576 0.45042 0.0
C2201 C 0.09391 0.10707 0.37009 0.0
C2202 C 0.09824 0.11093 0.46951 0.0
C2203 C 0.09313 0.10581 0.50546 0.0
C2204 C 0.0979 0.09551 0.52318 0.0
C2205 C 0.10813 0.09066 0.50517 0.0
C2206 C 0.11319 0.09575 0.46902 0.0
H2207 H 0.09117 0.10545 0.33657 0.0
H2208 H 0.09283 0.0988 0.3885 0.0
H2209 H 0.0879 0.11377 0.38375 0.0
H2210 H 0.09439 0.11884 0.45627 0.0
H2211 H 0.08532 0.10982 0.51893 0.0
H2212 H 0.11517 0.90143 0.46153 0.0
H2213 H 0.12391 0.89237 0.52497 0.0
H2214 H 0.0958 0.86696 0.52849 0.0
H2215 H 0.08702 0.87591 0.4651 0.0
H2216 H 0.11171 0.89009 0.60553 0.0
H2217 H 0.12637 0.8471 0.54007 0.0
H2218 H 0.12335 0.85967 0.50658 0.0
H2219 H 0.11145 0.85116 0.52807 0.0
C2220 C 0.11093 0.8938 0.47548 0.0
C2221 C 0.10039 0.88938 0.45841 0.0
C2222 C 0.11592 0.88867 0.5117 0.0
C2223 C 0.11053 0.87897 0.53108 0.0
C2224 C 0.10017 0.87435 0.51355 0.0
H2225 H 0.12456 0.83726 0.75645 0.0
H2226 H 0.11607 0.84608 0.69223 0.0
C2227 C 0.09515 0.8795 0.47746 0.0
C2228 C 0.11533 0.87411 0.57115 0.0
H2229 H 0.1273 0.84944 0.61511 0.0
C2230 C 0.11519 0.88122 0.60769 0.0
C2231 C 0.11974 0.86253 0.57368 0.0
C2232 C 0.12035 0.85467 0.53499 0.0
C2233 C 0.1192 0.87698 0.6471 0.0
C2234 C 0.12368 0.86541 0.64963 0.0
C2235 C 0.12382 0.8583 0.61302 0.0
C2236 C 0.12842 0.86052 0.68982 0.0
C2237 C 0.11834 0.88482 0.6858 0.0
C2238 C 0.13815 0.86575 0.70972 0.0
C2239 C 0.14297 0.86079 0.74652 0.0
C2240 C 0.13822 0.85042 0.76373 0.0
C2241 C 0.1284 0.84526 0.74397 0.0
C2242 C 0.12356 0.85026 0.70726 0.0
H2243 H 0.1118 0.89197 0.6811 0.0
H2244 H 0.11586 0.87971 0.71461 0.0
H2245 H 0.12702 0.88896 0.69174 0.0
H2246 H 0.14218 0.87353 0.69626 0.0
H2247 H 0.15058 0.86492 0.76088 0.0
H2248 H 0.39456 0.87448 0.00617 0.0
H2249 H 0.38589 0.86564 0.94244 0.0
H2250 H 0.35751 0.8908 0.94673 0.0
H2251 H 0.36601 0.89957 0.01102 0.0
H2252 H 0.35006 0.86806 0.9295 0.0
H2253 H 0.38725 0.88072 0.82439 0.0
H2254 H 0.39157 0.87231 0.87027 0.0
H2255 H 0.38534 0.88672 0.87724 0.0
C2256 C 0.38644 0.87809 -0.00629 0.0
C2257 C 0.38102 0.88779 0.01334 0.0
C2258 C 0.38154 0.87308 0.95715 0.0
C2259 C 0.37122 0.87775 0.9394 0.0
C2260 C 0.36555 0.88714 0.9598 0.0
H2261 H 0.32985 0.8627 0.71307 0.0
H2262 H 0.3383 0.87149 0.77741 0.0
C2263 C 0.37041 0.89213 -0.00349 0.0
C2264 C 0.36638 0.87288 0.89937 0.0
H2265 H 0.37286 0.86804 0.79447 0.0
C2266 C 0.35501 0.8681 0.89991 0.0
C2267 C 0.37287 0.873 0.86085 0.0
C2268 C 0.38489 0.87856 0.85788 0.0
C2269 C 0.35003 0.8632 0.86304 0.0
C2270 C 0.35657 0.86323 0.8247 0.0
C2271 C 0.36792 0.86803 0.82407 0.0
C2272 C 0.35179 0.85823 0.78491 0.0
C2273 C 0.33792 0.85784 0.86545 0.0
C2274 C 0.35682 0.84808 0.76736 0.0
C2275 C 0.35204 0.84304 0.73064 0.0
C2276 C 0.34219 0.84815 0.71078 0.0
C2277 C 0.3374 0.85854 0.72775 0.0
C2278 C 0.34217 0.86354 0.76457 0.0
H2279 H 0.33505 0.85641 0.89895 0.0
H2280 H 0.3315 0.86383 0.84991 0.0
H2281 H 0.33767 0.84931 0.84829 0.0
H2282 H 0.36431 0.84392 0.78259 0.0
H2283 H 0.35594 0.83506 0.71822 0.0
H2284 H 0.40416 0.09906 0.98764 0.0
H2285 H 0.39637 0.10824 0.05211 0.0
H2286 H 0.36138 0.10709 -0.00131 0.0
H2287 H 0.36907 0.09721 0.93515 0.0
H2288 H 0.38574 0.1276 0.06959 0.0
H2289 H 0.35539 0.09117 0.10884 0.0
H2290 H 0.36607 0.09008 0.06658 0.0
H2291 H 0.35219 0.09736 0.05758 0.0
C2292 C 0.3948 0.10078 -0.01035 0.0
C2293 C 0.38717 0.09731 0.95674 0.0
C2294 C 0.39036 0.10604 0.02649 0.0
C2295 C 0.37824 0.10809 0.03077 0.0
C2296 C 0.3707 0.1052 -0.00318 0.0
H2297 H 0.34828 0.15357 0.22552 0.0
H2298 H 0.35751 0.14568 0.16122 0.0
C2299 C 0.3751 0.09967 0.9604 0.0
C2300 C 0.37355 0.11311 0.07098 0.0
H2301 H 0.35305 0.10878 0.14874 0.0
C2302 C 0.37864 0.12344 0.08708 0.0
C2303 C 0.36447 0.10755 0.09433 0.0
C2304 C 0.35931 0.09586 0.0812 0.0
C2305 C 0.37484 0.12842 0.12563 0.0
C2306 C 0.36531 0.12321 0.1477 0.0
C2307 C 0.36029 0.11284 0.13171 0.0
C2308 C 0.36036 0.12828 0.18744 0.0
C2309 C 0.38132 0.139 0.14269 0.0
C2310 C 0.35858 0.12107 0.22328 0.0
C2311 C 0.35294 0.12546 0.25945 0.0
C2312 C 0.34919 0.1372 0.26074 0.0
C2313 C 0.35126 0.14452 0.22548 0.0
C2314 C 0.35661 0.14004 0.18884 0.0
H2315 H 0.39053 0.13927 0.13082 0.0
H2316 H 0.37687 0.14711 0.13152 0.0
H2317 H 0.38151 0.13904 0.17811 0.0
H2318 H 0.36137 0.11197 0.22299 0.0
H2319 H 0.35143 0.11966 0.28631 0.0
H2320 H 0.86906 0.88222 0.44233 0.0
H2321 H 0.86162 0.87336 0.50815 0.0
H2322 H 0.89637 0.87525 0.56333 0.0
H2323 H 0.90395 0.8834 0.4967 0.0
H2324 H 0.88673 0.85589 0.58632 0.0
H2325 H 0.85423 0.89127 0.613 0.0
H2326 H 0.85159 0.88398 0.56327 0.0
H2327 H 0.86507 0.89204 0.57119 0.0
C2328 C 0.8751 0.88063 0.46844 0.0
C2329 C 0.88704 0.88356 0.46466 0.0
C2330 C 0.87084 0.87569 0.50616 0.0
C2331 C 0.87836 0.874 0.54122 0.0
C2332 C 0.89038 0.87656 0.53688 0.0
H2333 H 0.84801 0.86384 0.79398 0.0
H2334 H 0.85873 0.87181 0.73268 0.0
C2335 C 0.8947 0.88121 0.49879 0.0
C2336 C 0.87371 0.86963 0.58248 0.0
H2337 H 0.85205 0.87406 0.65592 0.0
C2338 C 0.87921 0.85993 0.60176 0.0
C2339 C 0.86411 0.87509 0.6033 0.0
C2340 C 0.85851 0.88625 0.58685 0.0
C2341 C 0.87519 0.85536 0.64066 0.0
C2342 C 0.86504 0.86029 0.65982 0.0
C2343 C 0.85973 0.87017 0.64106 0.0
C2344 C 0.85956 0.85524 0.69866 0.0
C2345 C 0.88202 0.84546 0.66103 0.0
C2346 C 0.85653 0.84329 0.70014 0.0
C2347 C 0.85072 0.83869 0.73559 0.0
C2348 C 0.84747 0.84605 0.76955 0.0
C2349 C 0.85044 0.858 0.76813 0.0
C2350 C 0.85653 0.86254 0.73313 0.0
H2351 H 0.89144 0.84576 0.65166 0.0
H2352 H 0.88148 0.84578 0.69638 0.0
H2353 H 0.87842 0.83694 0.64989 0.0
H2354 H 0.85836 0.83755 0.6734 0.0
H2355 H 0.84837 0.82946 0.73564 0.0
H2356 H 0.84703 0.14516 0.2309 0.0
H2357 H 0.85619 0.13588 0.29299 0.0
H2358 H 0.83204 0.10681 0.2831 0.0
H2359 H 0.82282 0.11601 0.22075 0.0
H2360 H 0.83467 0.11839 0.36824 0.0
H2361 H 0.87686 0.10505 0.29248 0.0
H2362 H 0.87215 0.11992 0.28296 0.0
H2363 H 0.86368 0.10794 0.26198 0.0
C2364 C 0.84371 0.13676 0.24176 0.0
C2365 C 0.83422 0.1313 0.221 0.0
C2366 C 0.84897 0.13147 0.27709 0.0
C2367 C 0.84481 0.12066 0.29221 0.0
C2368 C 0.83536 0.11515 0.27162 0.0
H2369 H 0.86308 0.07898 0.51545 0.0
H2370 H 0.85309 0.08744 0.45353 0.0
C2371 C 0.83014 0.1204 0.23605 0.0
C2372 C 0.85015 0.11529 0.33038 0.0
H2373 H 0.87554 0.10304 0.36744 0.0
C2374 C 0.84358 0.11495 0.36818 0.0
C2375 C 0.86177 0.11091 0.32988 0.0
C2376 C 0.86904 0.11086 0.28963 0.0
C2377 C 0.84845 0.11057 0.40609 0.0
C2378 C 0.8601 0.10619 0.40567 0.0
C2379 C 0.86662 0.10644 0.36764 0.0
C2380 C 0.86578 0.10138 0.44432 0.0
C2381 C 0.84122 0.11099 0.44644 0.0
C2382 C 0.87631 0.10631 0.45921 0.0
C2383 C 0.88211 0.10142 0.4942 0.0
C2384 C 0.87747 0.0915 0.51488 0.0
C2385 C 0.86683 0.08667 0.50032 0.0
C2386 C 0.86107 0.09153 0.46511 0.0
H2387 H 0.8339 0.11742 0.44393 0.0
H2388 H 0.83734 0.1022 0.45235 0.0
H2389 H 0.84675 0.11335 0.47436 0.0
H2390 H 0.8801 0.1139 0.44348 0.0
H2391 H 0.8903 0.10534 0.50473 0.0
H2392 H 0.62657 0.12142 0.28927 0.0
H2393 H 0.61763 0.11401 0.22353 0.0
H2394 H 0.61602 0.14934 0.17369 0.0
H2395 H 0.62427 0.15684 0.24031 0.0
H2396 H 0.5974 0.13796 0.15009 0.0
H2397 H 0.6361 0.1099 0.11714 0.0
H2398 H 0.62926 0.106 0.16663 0.0
H2399 H 0.63584 0.12031 0.16042 0.0
C2400 C 0.62416 0.12759 0.26443 0.0
C2401 C 0.62621 0.13967 0.26957 0.0
C2402 C 0.61917 0.12336 0.22677 0.0
C2403 C 0.61654 0.13108 0.19311 0.0
C2404 C 0.61808 0.14321 0.19906 0.0
H2405 H 0.6101 0.10338 0.93587 0.0
H2406 H 0.6164 0.11447 -0.00128 0.0
C2407 C 0.6228 0.14748 0.23713 0.0
C2408 C 0.61252 0.12652 0.15129 0.0
H2409 H 0.61925 0.10667 0.07363 0.0
C2410 C 0.60222 0.13118 0.13316 0.0
C2411 C 0.61898 0.11792 0.12862 0.0
C2412 C 0.63072 0.11335 0.14398 0.0
C2413 C 0.59807 0.12728 0.09346 0.0
C2414 C 0.60412 0.11811 0.0722 0.0
C2415 C 0.61453 0.11363 0.09 0.0
C2416 C 0.59977 0.11278 0.03199 0.0
C2417 C 0.58741 0.13322 0.07449 0.0
C2418 C 0.58828 0.10832 0.02936 0.0
C2419 C 0.58459 0.10229 -0.00703 0.0
C2420 C 0.59245 0.10027 0.95925 0.0
C2421 C 0.60389 0.10483 0.96156 0.0
C2422 C 0.60748 0.11114 -0.00255 0.0
H2423 H 0.58659 0.14243 0.08598 0.0
H2424 H 0.58777 0.13332 0.03909 0.0
H2425 H 0.57937 0.12845 0.08461 0.0
H2426 H 0.58228 0.1091 0.05602 0.0
H2427 H 0.57576 0.09872 -0.00783 0.0
H2428 H 0.62428 0.83467 0.7307 0.0
H2429 H 0.61566 0.8445 0.79258 0.0
H2430 H 0.6429 0.87083 0.78773 0.0
H2431 H 0.65142 0.86122 0.72518 0.0
H2432 H 0.62598 0.8482 0.87007 0.0
H2433 H 0.6134 0.89073 0.79615 0.0
H2434 H 0.61739 0.87801 0.76493 0.0
H2435 H 0.62861 0.88697 0.78897 0.0
C2436 C 0.62836 0.84262 0.74255 0.0
C2437 C 0.6385 0.8472 0.72308 0.0
C2438 C 0.62344 0.84821 0.7779 0.0
C2439 C 0.62856 0.85846 0.79436 0.0
C2440 C 0.63867 0.86308 0.77492 0.0
H2441 H 0.61416 0.9005 0.0194 0.0
H2442 H 0.62338 0.89104 0.95767 0.0
C2443 C 0.64355 0.85754 0.73934 0.0
C2444 C 0.62362 0.86399 0.83305 0.0
H2445 H 0.61199 0.88951 0.87169 0.0
C2446 C 0.62288 0.85721 0.8704 0.0
C2447 C 0.6196 0.87575 0.83329 0.0
C2448 C 0.61967 0.88327 0.7936 0.0
C2449 C 0.61829 0.86194 0.90818 0.0
C2450 C 0.61432 0.87369 0.90838 0.0
C2451 C 0.61512 0.8805 0.87123 0.0
C2452 C 0.609 0.87899 0.94663 0.0
C2453 C 0.61781 0.8544 0.94775 0.0
C2454 C 0.59789 0.87529 0.96056 0.0
C2455 C 0.59258 0.88069 -0.00444 0.0
C2456 C 0.59832 0.88987 0.01715 0.0
C2457 C 0.60954 0.89343 0.00345 0.0
C2458 C 0.61481 0.88807 0.96823 0.0
H2459 H 0.62325 0.84633 0.94454 0.0
H2460 H 0.62088 0.85942 0.97601 0.0
H2461 H 0.60858 0.85171 0.95367 0.0
H2462 H 0.59325 0.86836 0.94387 0.0
H2463 H 0.58393 0.87777 0.00539 0.0
H2464 H 0.58932 0.60076 -0.00473 0.0
H2465 H 0.59982 0.60871 0.93368 0.0
H2466 H 0.62503 0.58046 0.94158 0.0
H2467 H 0.61457 0.5724 0.00343 0.0
H2468 H 0.62503 0.61514 0.93085 0.0
H2469 H 0.61202 0.58026 0.8153 0.0
H2470 H 0.60397 0.58291 0.86403 0.0
H2471 H 0.61795 0.57564 0.86586 0.0
C2472 C 0.5971 0.59623 0.98395 0.0
C2473 C 0.60111 0.58593 0.00404 0.0
C2474 C 0.60307 0.60079 0.94884 0.0
C2475 C 0.61309 0.59508 0.93304 0.0
C2476 C 0.61721 0.58488 0.95317 0.0
H2477 H 0.65502 0.61262 0.70871 0.0
H2478 H 0.64691 0.60275 0.77158 0.0
C2479 C 0.61127 0.58033 0.98851 0.0
C2480 C 0.61923 0.59997 0.89564 0.0
H2481 H 0.62402 0.59554 0.78943 0.0
C2482 C 0.62487 0.61085 0.89993 0.0
C2483 C 0.61903 0.59427 0.85562 0.0
C2484 C 0.61287 0.58265 0.84953 0.0
C2485 C 0.63028 0.61627 0.86494 0.0
C2486 C 0.62973 0.61077 0.82451 0.0
C2487 C 0.62435 0.59974 0.82047 0.0
C2488 C 0.63439 0.61653 0.78582 0.0
C2489 C 0.63656 0.62781 0.87163 0.0
C2490 C 0.62982 0.62738 0.77253 0.0
C2491 C 0.63445 0.63304 0.73683 0.0
C2492 C 0.64366 0.62788 0.71355 0.0
C2493 C 0.64796 0.61682 0.72608 0.0
C2494 C 0.64335 0.61118 0.76196 0.0
H2495 H 0.63912 0.62905 0.90555 0.0
H2496 H 0.64458 0.62838 0.85151 0.0
H2497 H 0.6306 0.63513 0.86269 0.0
H2498 H 0.6227 0.63151 0.78995 0.0
H2499 H 0.63088 0.64152 0.72771 0.0
H2500 H 0.65063 0.36513 0.26254 0.0
H2501 H 0.64111 0.3724 0.19759 0.0
H2502 H 0.61929 0.34144 0.19362 0.0
H2503 H 0.62875 0.33408 0.2585 0.0
H2504 H 0.64048 0.35893 0.11649 0.0
H2505 H 0.59629 0.37027 0.18099 0.0
H2506 H 0.60917 0.3691 0.21453 0.0
H2507 H 0.60211 0.35607 0.19499 0.0
C2508 C 0.64372 0.35993 0.24814 0.0
C2509 C 0.64044 0.34903 0.26556 0.0
C2510 C 0.63832 0.36408 0.21103 0.0
C2511 C 0.62949 0.35746 0.19114 0.0
C2512 C 0.62602 0.34671 0.20889 0.0
H2513 H 0.58654 0.37013 0.96651 0.0
H2514 H 0.59591 0.36132 0.02915 0.0
C2515 C 0.63145 0.34252 0.24584 0.0
C2516 C 0.62428 0.36156 0.15069 0.0
H2517 H 0.59889 0.37189 0.10653 0.0
C2518 C 0.6314 0.36179 0.11418 0.0
C2519 C 0.61241 0.36515 0.14801 0.0
C2520 C 0.60452 0.36524 0.18669 0.0
C2521 C 0.62692 0.36548 0.0747 0.0
C2522 C 0.61509 0.36929 0.07211 0.0
C2523 C 0.60795 0.36895 0.10864 0.0
C2524 C 0.61002 0.37404 0.03221 0.0
C2525 C 0.63483 0.36507 0.03608 0.0
C2526 C 0.61491 0.38406 0.01309 0.0
C2527 C 0.60964 0.38905 0.97718 0.0
C2528 C 0.59928 0.38421 0.96015 0.0
C2529 C 0.59451 0.37406 0.97892 0.0
C2530 C 0.59984 0.36903 0.01471 0.0
H2531 H 0.64215 0.35872 0.0405 0.0
H2532 H 0.62984 0.3626 0.00697 0.0
H2533 H 0.63874 0.37389 0.03092 0.0
H2534 H 0.62262 0.38822 0.02666 0.0
H2535 H 0.61348 0.39691 0.9636 0.0
H2536 H 0.87066 0.39528 0.51659 0.0
H2537 H 0.86259 0.38636 0.45184 0.0
H2538 H 0.89133 0.36163 0.44926 0.0
H2539 H 0.89949 0.37047 0.51397 0.0
H2540 H 0.87616 0.38464 0.37193 0.0
H2541 H 0.86067 0.34149 0.43383 0.0
H2542 H 0.86292 0.35408 0.46802 0.0
H2543 H 0.87531 0.34587 0.44872 0.0
C2544 C 0.87518 0.38784 0.5026 0.0
C2545 C 0.88573 0.38359 0.52025 0.0
C2546 C 0.87057 0.38279 0.46562 0.0
C2547 C 0.87636 0.37333 0.44609 0.0
C2548 C 0.88669 0.36884 0.46426 0.0
H2549 H 0.86171 0.33244 0.21859 0.0
H2550 H 0.87075 0.34085 0.28252 0.0
C2551 C 0.89134 0.37393 0.50111 0.0
C2552 C 0.87198 0.36864 0.40524 0.0
H2553 H 0.85979 0.34439 0.35927 0.0
C2554 C 0.87254 0.37585 0.36904 0.0
C2555 C 0.8674 0.35715 0.40182 0.0
C2556 C 0.86643 0.34918 0.44014 0.0
C2557 C 0.86871 0.37183 0.32913 0.0
C2558 C 0.86395 0.3604 0.32576 0.0
C2559 C 0.86347 0.35315 0.362 0.0
C2560 C 0.85908 0.35586 0.28527 0.0
C2561 C 0.86998 0.37979 0.29088 0.0
C2562 C 0.84959 0.36158 0.26557 0.0
C2563 C 0.84446 0.35685 0.22894 0.0
C2564 C 0.84865 0.34624 0.21175 0.0
C2565 C 0.85829 0.34064 0.23112 0.0
C2566 C 0.86345 0.3454 0.26764 0.0
H2567 H 0.87684 0.38659 0.29615 0.0
H2568 H 0.87227 0.37471 0.2618 0.0
H2569 H 0.86152 0.38438 0.28509 0.0
H2570 H 0.84592 0.36952 0.27921 0.0
H2571 H 0.837 0.36134 0.21488 0.0
H2572 H 0.86224 0.64552 0.76106 0.0
H2573 H 0.87101 0.63709 0.69649 0.0
H2574 H 0.84608 0.60858 0.70067 0.0
H2575 H 0.83729 0.61687 0.76523 0.0
H2576 H 0.8798 0.61191 0.68242 0.0
H2577 H 0.84223 0.62613 0.5807 0.0
H2578 H 0.84551 0.63292 0.63146 0.0
H2579 H 0.83866 0.61873 0.62976 0.0
C2580 C 0.85871 0.63739 0.74849 0.0
C2581 C 0.84903 0.6319 0.76798 0.0
C2582 C 0.86372 0.63261 0.71169 0.0
C2583 C 0.85905 0.62234 0.69379 0.0
C2584 C 0.84968 0.6166 0.71397 0.0
H2585 H 0.86944 0.58172 0.46577 0.0
H2586 H 0.86218 0.59114 0.53071 0.0
C2587 C 0.84472 0.62133 0.75085 0.0
C2588 C 0.86371 0.61778 0.6532 0.0
H2589 H 0.85667 0.61416 0.54826 0.0
C2590 C 0.87481 0.61244 0.65295 0.0
C2591 C 0.85711 0.61852 0.61512 0.0
C2592 C 0.84524 0.62445 0.61389 0.0
C2593 C 0.8794 0.60748 0.6155 0.0
C2594 C 0.87278 0.60818 0.5773 0.0
C2595 C 0.86172 0.61366 0.5776 0.0
C2596 C 0.877 0.60295 0.53695 0.0
C2597 C 0.89108 0.6012 0.61752 0.0
C2598 C 0.88757 0.60671 0.51837 0.0
C2599 C 0.89177 0.6013 0.48141 0.0
C2600 C 0.88539 0.59214 0.4622 0.0
C2601 C 0.87457 0.58873 0.47991 0.0
C2602 C 0.87041 0.59409 0.517 0.0
H2603 H 0.89352 0.59886 0.65079 0.0
H2604 H 0.89094 0.59306 0.59803 0.0
H2605 H 0.89804 0.60705 0.60468 0.0
H2606 H 0.89262 0.61374 0.53271 0.0
H2607 H 0.90009 0.60419 0.46826 0.0
H2608 H 0.35667 0.33619 0.26418 0.0
H2609 H 0.36554 0.34517 0.20104 0.0
H2610 H 0.33882 0.3721 0.20182 0.0
H2611 H 0.33005 0.36334 0.26547 0.0
H2612 H 0.35516 0.34809 0.1231 0.0
H2613 H 0.36861 0.39128 0.18891 0.0
H2614 H 0.3645 0.37907 0.22249 0.0
H2615 H 0.35337 0.38798 0.19757 0.0
C2616 C 0.35277 0.34412 0.25124 0.0
C2617 C 0.34267 0.34908 0.2698 0.0
C2618 C 0.35784 0.34922 0.21515 0.0
C2619 C 0.35291 0.35937 0.19708 0.0
C2620 C 0.34291 0.36442 0.21582 0.0
H2621 H 0.36553 0.39933 0.96659 0.0
H2622 H 0.35702 0.39025 0.03033 0.0
C2623 C 0.33787 0.35936 0.25206 0.0
C2624 C 0.35786 0.3643 0.15727 0.0
H2625 H 0.36921 0.38927 0.11327 0.0
C2626 C 0.35831 0.35707 0.121 0.0
C2627 C 0.36193 0.37602 0.15469 0.0
C2628 C 0.3622 0.38401 0.19308 0.0
C2629 C 0.36257 0.36131 0.08195 0.0
C2630 C 0.36652 0.37305 0.07933 0.0
C2631 C 0.36609 0.38028 0.11552 0.0
C2632 C 0.37132 0.37797 0.03944 0.0
C2633 C 0.36264 0.35331 0.04359 0.0
C2634 C 0.38213 0.37398 0.02357 0.0
C2635 C 0.38704 0.37916 0.98733 0.0
C2636 C 0.38119 0.38841 0.96645 0.0
C2637 C 0.37023 0.3922 0.98194 0.0
C2638 C 0.36537 0.38706 0.01834 0.0
H2639 H 0.35717 0.34535 0.0487 0.0
H2640 H 0.35938 0.35802 0.01489 0.0
H2641 H 0.3718 0.35043 0.03709 0.0
H2642 H 0.38691 0.36705 0.0398 0.0
H2643 H 0.39551 0.37606 0.97617 0.0
H2644 H 0.39699 0.61093 0.01964 0.0
H2645 H 0.38832 0.62094 0.95813 0.0
H2646 H 0.35995 0.59577 0.95663 0.0
H2647 H 0.3684 0.5859 0.01873 0.0
H2648 H 0.38509 0.61137 0.87994 0.0
H2649 H 0.34228 0.62639 0.94434 0.0
H2650 H 0.35413 0.62146 0.97829 0.0
H2651 H 0.34467 0.61097 0.95241 0.0
C2652 C 0.3888 0.60765 0.00665 0.0
C2653 C 0.38337 0.59763 0.02395 0.0
C2654 C 0.38387 0.61336 0.9715 0.0
C2655 C 0.37343 0.60917 0.95315 0.0
C2656 C 0.36787 0.59932 0.97091 0.0
H2657 H 0.33523 0.61934 0.72013 0.0
H2658 H 0.3442 0.61218 0.78615 0.0
C2659 C 0.37274 0.59365 0.00624 0.0
C2660 C 0.36885 0.61454 0.91349 0.0
H2661 H 0.34422 0.62632 0.8682 0.0
C2662 C 0.37621 0.61478 0.8775 0.0
C2663 C 0.35725 0.61897 0.91045 0.0
C2664 C 0.34917 0.61955 0.94856 0.0
C2665 C 0.37214 0.61901 0.83815 0.0
C2666 C 0.36046 0.62311 0.83493 0.0
C2667 C 0.35316 0.62307 0.87096 0.0
C2668 C 0.35555 0.62726 0.79412 0.0
C2669 C 0.38021 0.61878 0.79995 0.0
C2670 C 0.35908 0.63806 0.77688 0.0
C2671 C 0.35395 0.6422 0.73926 0.0
C2672 C 0.34524 0.63557 0.71841 0.0
C2673 C 0.34193 0.62463 0.73542 0.0
C2674 C 0.34701 0.62054 0.77313 0.0
H2675 H 0.38845 0.61384 0.8064 0.0
H2676 H 0.37568 0.61472 0.77221 0.0
H2677 H 0.38256 0.62791 0.79101 0.0
H2678 H 0.36562 0.64337 0.79296 0.0
H2679 H 0.35666 0.65067 0.72692 0.0
H2680 H 0.14162 0.62049 0.77341 0.0
H2681 H 0.13193 0.61314 0.70902 0.0
H2682 H 0.11874 0.64791 0.68225 0.0
H2683 H 0.12842 0.65537 0.74661 0.0
H2684 H 0.10704 0.61491 0.68392 0.0
H2685 H 0.13813 0.63757 0.57404 0.0
H2686 H 0.14144 0.63509 0.62969 0.0
H2687 H 0.13131 0.64645 0.61458 0.0
C2688 C 0.13659 0.62656 0.75401 0.0
C2689 C 0.13584 0.63852 0.76484 0.0
C2690 C 0.13106 0.62235 0.71733 0.0
C2691 C 0.12478 0.63004 0.69082 0.0
C2692 C 0.12369 0.6419 0.70218 0.0
H2693 H 0.08072 0.60957 0.47594 0.0
H2694 H 0.08857 0.61926 0.53959 0.0
C2695 C 0.12917 0.64612 0.739 0.0
C2696 C 0.11964 0.62564 0.6507 0.0
H2697 H 0.12277 0.62667 0.54248 0.0
C2698 C 0.11041 0.61752 0.65294 0.0
C2699 C 0.12419 0.62901 0.61056 0.0
C2700 C 0.13437 0.63745 0.60676 0.0
C2701 C 0.10557 0.61263 0.61583 0.0
C2702 C 0.11008 0.61605 0.57568 0.0
C2703 C 0.11931 0.62417 0.57343 0.0
C2704 C 0.10561 0.61087 0.53575 0.0
C2705 C 0.09588 0.60363 0.61977 0.0
C2706 C 0.11275 0.60324 0.51207 0.0
C2707 C 0.10832 0.59769 0.47576 0.0
C2708 C 0.09669 0.59977 0.4625 0.0
C2709 C 0.0897 0.60777 0.48547 0.0
C2710 C 0.09414 0.61327 0.52187 0.0
H2711 H 0.09485 0.60044 0.65307 0.0
H2712 H 0.08743 0.60764 0.60957 0.0
H2713 H 0.09765 0.59599 0.5987 0.0
H2714 H 0.12166 0.60135 0.52234 0.0
H2715 H 0.11392 0.59161 0.45858 0.0
H2716 H 0.15026 0.36232 0.21122 0.0
H2717 H 0.14174 0.37111 0.27533 0.0
H2718 H 0.11518 0.34407 0.27808 0.0
H2719 H 0.1238 0.33506 0.21451 0.0
H2720 H 0.11966 0.37982 0.2916 0.0
H2721 H 0.12939 0.34177 0.39689 0.0
H2722 H 0.13566 0.34326 0.34428 0.0
H2723 H 0.12081 0.33811 0.35068 0.0
C2724 C 0.14258 0.35827 0.22537 0.0
C2725 C 0.13776 0.34793 0.20811 0.0
C2726 C 0.13773 0.3633 0.26198 0.0
C2727 C 0.12799 0.35809 0.28191 0.0
C2728 C 0.12288 0.34805 0.26379 0.0
H2729 H 0.08602 0.37755 0.50163 0.0
H2730 H 0.09407 0.36822 0.43756 0.0
C2731 C 0.12776 0.34296 0.22731 0.0
C2732 C 0.12324 0.36318 0.32174 0.0
H2733 H 0.1178 0.35708 0.4266 0.0
C2734 C 0.11928 0.37487 0.32115 0.0
C2735 C 0.12281 0.35669 0.36025 0.0
C2736 C 0.12749 0.3443 0.36334 0.0
C2737 C 0.11476 0.3802 0.35798 0.0
C2738 C 0.11429 0.37368 0.39631 0.0
C2739 C 0.11819 0.362 0.39698 0.0
C2740 C 0.10978 0.37891 0.43613 0.0
C2741 C 0.11039 0.3927 0.35564 0.0
C2742 C 0.11613 0.38779 0.45685 0.0
C2743 C 0.11161 0.39308 0.49353 0.0
C2744 C 0.10064 0.38959 0.5099 0.0
C2745 C 0.09447 0.38045 0.48966 0.0
C2746 C 0.09904 0.37512 0.45312 0.0
H2747 H 0.10934 0.39575 0.32217 0.0
H2748 H 0.10181 0.39358 0.3723 0.0
H2749 H 0.11678 0.39857 0.37182 0.0
H2750 H 0.12452 0.3907 0.44434 0.0
H2751 H 0.11659 0.40007 0.50848 0.0
loop_
_geom_bond_atom_site_label_1
_geom_bond_atom_site_label_2
_geom_bond_distance
_geom_bond_site_symmetry_2
_ccdc_geom_bond_type
C0 O1 1.306 . S
C0 O3 1.160 . S
O1 C0 1.306 . S
O1 Cd2 2.228 . S
Cd2 O1 2.228 . S
Cd2 O6 2.273 . S
Cd2 O10 2.277 . S
O3 C0 1.160 . S
O3 Cd4 2.203 . S
Cd4 O3 2.203 . S
Cd4 O6 2.411 . S
Cd4 O7 2.333 . S
Cd4 O8 2.352 . S
Cd4 O12 2.277 . S
Cd4 O13 2.356 . S
C5 O10 1.209 . S
C5 O12 1.226 . S
O6 Cd2 2.273 . S
O6 Cd4 2.411 . S
O6 C9 1.320 . S
O7 Cd4 2.333 . S
O7 C9 1.214 . S
O8 Cd4 2.352 . S
O8 C11 1.258 . S
C9 O6 1.320 . S
C9 O7 1.214 . S
O10 Cd2 2.277 . S
O10 C5 1.209 . S
C11 O8 1.258 . S
C11 O13 1.282 . S
O12 Cd4 2.277 . S
O12 C5 1.226 . S
O13 Cd4 2.356 . S
O13 C11 1.282 . S
C14 O15 1.306 . S
C14 O17 1.160 . S
O15 C14 1.306 . S
O15 Cd16 2.228 . S
Cd16 O15 2.228 . S
Cd16 O20 2.273 . S
Cd16 O24 2.277 . S
O17 C14 1.160 . S
O17 Cd18 2.203 . S
Cd18 O17 2.203 . S
Cd18 O20 2.411 . S
Cd18 O21 2.333 . S
Cd18 O22 2.352 . S
Cd18 O26 2.277 . S
Cd18 O27 2.356 . S
C19 O24 1.209 . S
C19 O26 1.226 . S
O20 Cd16 2.273 . S
O20 Cd18 2.411 . S
O20 C23 1.320 . S
O21 Cd18 2.333 . S
O21 C23 1.214 . S
O22 Cd18 2.352 . S
O22 C25 1.258 . S
C23 O20 1.320 . S
C23 O21 1.214 . S
O24 Cd16 2.277 . S
O24 C19 1.209 . S
C25 O22 1.258 . S
C25 O27 1.282 . S
O26 Cd18 2.277 . S
O26 C19 1.226 . S
O27 Cd18 2.356 . S
O27 C25 1.282 . S
C28 O29 1.306 . S
C28 O31 1.160 . S
O29 C28 1.306 . S
O29 Cd30 2.228 . S
Cd30 O29 2.228 . S
Cd30 O34 2.273 . S
Cd30 O38 2.277 . S
O31 C28 1.160 . S
O31 Cd32 2.203 . S
Cd32 O31 2.203 . S
Cd32 O34 2.411 . S
Cd32 O35 2.333 . S
Cd32 O36 2.352 . S
Cd32 O40 2.277 . S
Cd32 O41 2.356 . S
C33 O38 1.209 . S
C33 O40 1.226 . S
O34 Cd30 2.273 . S
O34 Cd32 2.411 . S
O34 C37 1.320 . S
O35 Cd32 2.333 . S
O35 C37 1.214 . S
O36 Cd32 2.352 . S
O36 C39 1.258 . S
C37 O34 1.320 . S
C37 O35 1.214 . S
O38 Cd30 2.277 . S
O38 C33 1.209 . S
C39 O36 1.258 . S
C39 O41 1.282 . S
O40 Cd32 2.277 . S
O40 C33 1.226 . S
O41 Cd32 2.356 . S
O41 C39 1.282 . S
C42 O43 1.306 . S
C42 O45 1.160 . S
O43 C42 1.306 . S
O43 Cd44 2.228 . S
Cd44 O43 2.228 . S
Cd44 O48 2.273 . S
Cd44 O52 2.277 . S
O45 C42 1.160 . S
O45 Cd46 2.203 . S
Cd46 O45 2.203 . S
Cd46 O48 2.411 . S
Cd46 O49 2.333 . S
Cd46 O50 2.352 . S
Cd46 O54 2.277 . S
Cd46 O55 2.356 . S
C47 O52 1.209 . S
C47 O54 1.226 . S
O48 Cd44 2.273 . S
O48 Cd46 2.411 . S
O48 C51 1.320 . S
O49 Cd46 2.333 . S
O49 C51 1.214 . S
O50 Cd46 2.352 . S
O50 C53 1.258 . S
C51 O48 1.320 . S
C51 O49 1.214 . S
O52 Cd44 2.277 . S
O52 C47 1.209 . S
C53 O50 1.258 . S
C53 O55 1.282 . S
O54 Cd46 2.277 . S
O54 C47 1.226 . S
O55 Cd46 2.356 . S
O55 C53 1.282 . S
C56 O57 1.306 . S
C56 O59 1.160 . S
O57 C56 1.306 . S
O57 Cd58 2.228 . S
Cd58 O57 2.228 . S
Cd58 O62 2.273 . S
Cd58 O66 2.277 . S
O59 C56 1.160 . S
O59 Cd60 2.203 . S
Cd60 O59 2.203 . S
Cd60 O62 2.411 . S
Cd60 O63 2.333 . S
Cd60 O64 2.352 . S
Cd60 O68 2.277 . S
Cd60 O69 2.356 . S
C61 O66 1.209 . S
C61 O68 1.226 . S
O62 Cd58 2.273 . S
O62 Cd60 2.411 . S
O62 C65 1.320 . S
O63 Cd60 2.333 . S
O63 C65 1.214 . S
O64 Cd60 2.352 . S
O64 C67 1.258 . S
C65 O62 1.320 . S
C65 O63 1.214 . S
O66 Cd58 2.277 . S
O66 C61 1.209 . S
C67 O64 1.258 . S
C67 O69 1.282 . S
O68 Cd60 2.277 . S
O68 C61 1.226 . S
O69 Cd60 2.356 . S
O69 C67 1.282 . S
C70 O71 1.306 . S
C70 O73 1.160 . S
O71 C70 1.306 . S
O71 Cd72 2.228 . S
Cd72 O71 2.228 . S
Cd72 O76 2.273 . S
Cd72 O80 2.277 . S
O73 C70 1.160 . S
O73 Cd74 2.203 . S
Cd74 O73 2.203 . S
Cd74 O76 2.411 . S
Cd74 O77 2.333 . S
Cd74 O78 2.352 . S
Cd74 O82 2.277 . S
Cd74 O83 2.356 . S
C75 O80 1.209 . S
C75 O82 1.226 . S
O76 Cd72 2.273 . S
O76 Cd74 2.411 . S
O76 C79 1.320 . S
O77 Cd74 2.333 . S
O77 C79 1.214 . S
O78 Cd74 2.352 . S
O78 C81 1.258 . S
C79 O76 1.320 . S
C79 O77 1.214 . S
O80 Cd72 2.277 . S
O80 C75 1.209 . S
C81 O78 1.258 . S
C81 O83 1.282 . S
O82 Cd74 2.277 . S
O82 C75 1.226 . S
O83 Cd74 2.356 . S
O83 C81 1.282 . S
C84 O85 1.306 . S
C84 O87 1.160 . S
O85 C84 1.306 . S
O85 Cd86 2.228 . S
Cd86 O85 2.228 . S
Cd86 O90 2.273 . S
Cd86 O94 2.277 . S
O87 C84 1.160 . S
O87 Cd88 2.203 . S
Cd88 O87 2.203 . S
Cd88 O90 2.411 . S
Cd88 O91 2.333 . S
Cd88 O92 2.352 . S
Cd88 O96 2.277 . S
Cd88 O97 2.356 . S
C89 O94 1.209 . S
C89 O96 1.226 . S
O90 Cd86 2.273 . S
O90 Cd88 2.411 . S
O90 C93 1.320 . S
O91 Cd88 2.333 . S
O91 C93 1.214 . S
O92 Cd88 2.352 . S
O92 C95 1.258 . S
C93 O90 1.320 . S
C93 O91 1.214 . S
O94 Cd86 2.277 . S
O94 C89 1.209 . S
C95 O92 1.258 . S
C95 O97 1.282 . S
O96 Cd88 2.277 . S
O96 C89 1.226 . S
O97 Cd88 2.356 . S
O97 C95 1.282 . S
C98 O99 1.306 . S
C98 O101 1.160 . S
O99 C98 1.306 . S
O99 Cd100 2.228 . S
Cd100 O99 2.228 . S
Cd100 O104 2.273 . S
Cd100 O108 2.277 . S
O101 C98 1.160 . S
O101 Cd102 2.203 . S
Cd102 O101 2.203 . S
Cd102 O104 2.411 . S
Cd102 O105 2.333 . S
Cd102 O106 2.352 . S
Cd102 O110 2.277 . S
Cd102 O111 2.356 . S
C103 O108 1.209 . S
C103 O110 1.226 . S
O104 Cd100 2.273 . S
O104 Cd102 2.411 . S
O104 C107 1.320 . S
O105 Cd102 2.333 . S
O105 C107 1.214 . S
O106 Cd102 2.352 . S
O106 C109 1.258 . S
C107 O104 1.320 . S
C107 O105 1.214 . S
O108 Cd100 2.277 . S
O108 C103 1.209 . S
C109 O106 1.258 . S
C109 O111 1.282 . S
O110 Cd102 2.277 . S
O110 C103 1.226 . S
O111 Cd102 2.356 . S
O111 C109 1.282 . S
C112 O113 1.306 . S
C112 O115 1.160 . S
O113 C112 1.306 . S
O113 Cd114 2.228 . S
Cd114 O113 2.228 . S
Cd114 O118 2.273 . S
Cd114 O122 2.277 . S
O115 C112 1.160 . S
O115 Cd116 2.203 . S
Cd116 O115 2.203 . S
Cd116 O118 2.411 . S
Cd116 O119 2.333 . S
Cd116 O120 2.352 . S
Cd116 O124 2.277 . S
Cd116 O125 2.356 . S
C117 O122 1.209 . S
C117 O124 1.226 . S
O118 Cd114 2.273 . S
O118 Cd116 2.411 . S
O118 C121 1.320 . S
O119 Cd116 2.333 . S
O119 C121 1.214 . S
O120 Cd116 2.352 . S
O120 C123 1.258 . S
C121 O118 1.320 . S
C121 O119 1.214 . S
O122 Cd114 2.277 . S
O122 C117 1.209 . S
C123 O120 1.258 . S
C123 O125 1.282 . S
O124 Cd116 2.277 . S
O124 C117 1.226 . S
O125 Cd116 2.356 . S
O125 C123 1.282 . S
C126 O127 1.306 . S
C126 O129 1.160 . S
O127 C126 1.306 . S
O127 Cd128 2.228 . S
Cd128 O127 2.228 . S
Cd128 O132 2.273 . S
Cd128 O136 2.277 . S
O129 C126 1.160 . S
O129 Cd130 2.203 . S
Cd130 O129 2.203 . S
Cd130 O132 2.411 . S
Cd130 O133 2.333 . S
Cd130 O134 2.352 . S
Cd130 O138 2.277 . S
Cd130 O139 2.356 . S
C131 O136 1.209 . S
C131 O138 1.226 . S
O132 Cd128 2.273 . S
O132 Cd130 2.411 . S
O132 C135 1.320 . S
O133 Cd130 2.333 . S
O133 C135 1.214 . S
O134 Cd130 2.352 . S
O134 C137 1.258 . S
C135 O132 1.320 . S
C135 O133 1.214 . S
O136 Cd128 2.277 . S
O136 C131 1.209 . S
C137 O134 1.258 . S
C137 O139 1.282 . S
O138 Cd130 2.277 . S
O138 C131 1.226 . S
O139 Cd130 2.356 . S
O139 C137 1.282 . S
C140 O141 1.306 . S
C140 O143 1.160 . S
O141 C140 1.306 . S
O141 Cd142 2.228 . S
Cd142 O141 2.228 . S
Cd142 O146 2.273 . S
Cd142 O150 2.277 . S
O143 C140 1.160 . S
O143 Cd144 2.203 . S
Cd144 O143 2.203 . S
Cd144 O146 2.411 . S
Cd144 O147 2.333 . S
Cd144 O148 2.352 . S
Cd144 O152 2.277 . S
Cd144 O153 2.356 . S
C145 O150 1.209 . S
C145 O152 1.226 . S
O146 Cd142 2.273 . S
O146 Cd144 2.411 . S
O146 C149 1.320 . S
O147 Cd144 2.333 . S
O147 C149 1.214 . S
O148 Cd144 2.352 . S
O148 C151 1.258 . S
C149 O146 1.320 . S
C149 O147 1.214 . S
O150 Cd142 2.277 . S
O150 C145 1.209 . S
C151 O148 1.258 . S
C151 O153 1.282 . S
O152 Cd144 2.277 . S
O152 C145 1.226 . S
O153 Cd144 2.356 . S
O153 C151 1.282 . S
C154 O155 1.306 . S
C154 O157 1.160 . S
O155 C154 1.306 . S
O155 Cd156 2.228 . S
Cd156 O155 2.228 . S
Cd156 O160 2.273 . S
Cd156 O164 2.277 . S
O157 C154 1.160 . S
O157 Cd158 2.203 . S
Cd158 O157 2.203 . S
Cd158 O160 2.411 . S
Cd158 O161 2.333 . S
Cd158 O162 2.352 . S
Cd158 O166 2.277 . S
Cd158 O167 2.356 . S
C159 O164 1.209 . S
C159 O166 1.226 . S
O160 Cd156 2.273 . S
O160 Cd158 2.411 . S
O160 C163 1.320 . S
O161 Cd158 2.333 . S
O161 C163 1.214 . S
O162 Cd158 2.352 . S
O162 C165 1.258 . S
C163 O160 1.320 . S
C163 O161 1.214 . S
O164 Cd156 2.277 . S
O164 C159 1.209 . S
C165 O162 1.258 . S
C165 O167 1.282 . S
O166 Cd158 2.277 . S
O166 C159 1.226 . S
O167 Cd158 2.356 . S
O167 C165 1.282 . S
C168 O169 1.306 . S
C168 O171 1.160 . S
O169 C168 1.306 . S
O169 Cd170 2.228 . S
Cd170 O169 2.228 . S
Cd170 O174 2.273 . S
Cd170 O178 2.277 . S
O171 C168 1.160 . S
O171 Cd172 2.203 . S
Cd172 O171 2.203 . S
Cd172 O174 2.411 . S
Cd172 O175 2.333 . S
Cd172 O176 2.352 . S
Cd172 O180 2.277 . S
Cd172 O181 2.356 . S
C173 O178 1.209 . S
C173 O180 1.226 . S
O174 Cd170 2.273 . S
O174 Cd172 2.411 . S
O174 C177 1.320 . S
O175 Cd172 2.333 . S
O175 C177 1.214 . S
O176 Cd172 2.352 . S
O176 C179 1.258 . S
C177 O174 1.320 . S
C177 O175 1.214 . S
O178 Cd170 2.277 . S
O178 C173 1.209 . S
C179 O176 1.258 . S
C179 O181 1.282 . S
O180 Cd172 2.277 . S
O180 C173 1.226 . S
O181 Cd172 2.356 . S
O181 C179 1.282 . S
C182 O183 1.306 . S
C182 O185 1.160 . S
O183 C182 1.306 . S
O183 Cd184 2.228 . S
Cd184 O183 2.228 . S
Cd184 O188 2.273 . S
Cd184 O192 2.277 . S
O185 C182 1.160 . S
O185 Cd186 2.203 . S
Cd186 O185 2.203 . S
Cd186 O188 2.411 . S
Cd186 O189 2.333 . S
Cd186 O190 2.352 . S
Cd186 O194 2.277 . S
Cd186 O195 2.356 . S
C187 O192 1.209 . S
C187 O194 1.226 . S
O188 Cd184 2.273 . S
O188 Cd186 2.411 . S
O188 C191 1.320 . S
O189 Cd186 2.333 . S
O189 C191 1.214 . S
O190 Cd186 2.352 . S
O190 C193 1.258 . S
C191 O188 1.320 . S
C191 O189 1.214 . S
O192 Cd184 2.277 . S
O192 C187 1.209 . S
C193 O190 1.258 . S
C193 O195 1.282 . S
O194 Cd186 2.277 . S
O194 C187 1.226 . S
O195 Cd186 2.356 . S
O195 C193 1.282 . S
C196 O197 1.306 . S
C196 O199 1.160 . S
O197 C196 1.306 . S
O197 Cd198 2.228 . S
Cd198 O197 2.228 . S
Cd198 O202 2.273 . S
Cd198 O206 2.277 . S
O199 C196 1.160 . S
O199 Cd200 2.203 . S
Cd200 O199 2.203 . S
Cd200 O202 2.411 . S
Cd200 O203 2.333 . S
Cd200 O204 2.352 . S
Cd200 O208 2.277 . S
Cd200 O209 2.356 . S
C201 O206 1.209 . S
C201 O208 1.226 . S
O202 Cd198 2.273 . S
O202 Cd200 2.411 . S
O202 C205 1.320 . S
O203 Cd200 2.333 . S
O203 C205 1.214 . S
O204 Cd200 2.352 . S
O204 C207 1.258 . S
C205 O202 1.320 . S
C205 O203 1.214 . S
O206 Cd198 2.277 . S
O206 C201 1.209 . S
C207 O204 1.258 . S
C207 O209 1.282 . S
O208 Cd200 2.277 . S
O208 C201 1.226 . S
O209 Cd200 2.356 . S
O209 C207 1.282 . S
C210 O211 1.306 . S
C210 O213 1.160 . S
O211 C210 1.306 . S
O211 Cd212 2.228 . S
Cd212 O211 2.228 . S
Cd212 O216 2.273 . S
Cd212 O220 2.277 . S
O213 C210 1.160 . S
O213 Cd214 2.203 . S
Cd214 O213 2.203 . S
Cd214 O216 2.411 . S
Cd214 O217 2.333 . S
Cd214 O218 2.352 . S
Cd214 O222 2.277 . S
Cd214 O223 2.356 . S
C215 O220 1.209 . S
C215 O222 1.226 . S
O216 Cd212 2.273 . S
O216 Cd214 2.411 . S
O216 C219 1.320 . S
O217 Cd214 2.333 . S
O217 C219 1.214 . S
O218 Cd214 2.352 . S
O218 C221 1.258 . S
C219 O216 1.320 . S
C219 O217 1.214 . S
O220 Cd212 2.277 . S
O220 C215 1.209 . S
C221 O218 1.258 . S
C221 O223 1.282 . S
O222 Cd214 2.277 . S
O222 C215 1.226 . S
O223 Cd214 2.356 . S
O223 C221 1.282 . S
C224 O225 1.306 . S
C224 O227 1.160 . S
O225 C224 1.306 . S
O225 Cd226 2.228 . S
Cd226 O225 2.228 . S
Cd226 O230 2.273 . S
Cd226 O234 2.277 . S
O227 C224 1.160 . S
O227 Cd228 2.203 . S
Cd228 O227 2.203 . S
Cd228 O230 2.411 . S
Cd228 O231 2.333 . S
Cd228 O232 2.352 . S
Cd228 O236 2.277 . S
Cd228 O237 2.356 . S
C229 O234 1.209 . S
C229 O236 1.226 . S
O230 Cd226 2.273 . S
O230 Cd228 2.411 . S
O230 C233 1.320 . S
O231 Cd228 2.333 . S
O231 C233 1.214 . S
O232 Cd228 2.352 . S
O232 C235 1.258 . S
C233 O230 1.320 . S
C233 O231 1.214 . S
O234 Cd226 2.277 . S
O234 C229 1.209 . S
C235 O232 1.258 . S
C235 O237 1.282 . S
O236 Cd228 2.277 . S
O236 C229 1.226 . S
O237 Cd228 2.356 . S
O237 C235 1.282 . S
C238 O239 1.306 . S
C238 O241 1.160 . S
O239 C238 1.306 . S
O239 Cd240 2.228 . S
Cd240 O239 2.228 . S
Cd240 O244 2.273 . S
Cd240 O248 2.277 . S
O241 C238 1.160 . S
O241 Cd242 2.203 . S
Cd242 O241 2.203 . S
Cd242 O244 2.411 . S
Cd242 O245 2.333 . S
Cd242 O246 2.352 . S
Cd242 O250 2.277 . S
Cd242 O251 2.356 . S
C243 O248 1.209 . S
C243 O250 1.226 . S
O244 Cd240 2.273 . S
O244 Cd242 2.411 . S
O244 C247 1.320 . S
O245 Cd242 2.333 . S
O245 C247 1.214 . S
O246 Cd242 2.352 . S
O246 C249 1.258 . S
C247 O244 1.320 . S
C247 O245 1.214 . S
O248 Cd240 2.277 . S
O248 C243 1.209 . S
C249 O246 1.258 . S
C249 O251 1.282 . S
O250 Cd242 2.277 . S
O250 C243 1.226 . S
O251 Cd242 2.356 . S
O251 C249 1.282 . S
C252 O253 1.306 . S
C252 O255 1.160 . S
O253 C252 1.306 . S
O253 Cd254 2.228 . S
Cd254 O253 2.228 . S
Cd254 O258 2.273 . S
Cd254 O262 2.277 . S
O255 C252 1.160 . S
O255 Cd256 2.203 . S
Cd256 O255 2.203 . S
Cd256 O258 2.411 . S
Cd256 O259 2.333 . S
Cd256 O260 2.352 . S
Cd256 O264 2.277 . S
Cd256 O265 2.356 . S
C257 O262 1.209 . S
C257 O264 1.226 . S
O258 Cd254 2.273 . S
O258 Cd256 2.411 . S
O258 C261 1.320 . S
O259 Cd256 2.333 . S
O259 C261 1.214 . S
O260 Cd256 2.352 . S
O260 C263 1.258 . S
C261 O258 1.320 . S
C261 O259 1.214 . S
O262 Cd254 2.277 . S
O262 C257 1.209 . S
C263 O260 1.258 . S
C263 O265 1.282 . S
O264 Cd256 2.277 . S
O264 C257 1.226 . S
O265 Cd256 2.356 . S
O265 C263 1.282 . S
C266 O267 1.306 . S
C266 O269 1.160 . S
O267 C266 1.306 . S
O267 Cd268 2.228 . S
Cd268 O267 2.228 . S
Cd268 O272 2.273 . S
Cd268 O276 2.277 . S
O269 C266 1.160 . S
O269 Cd270 2.203 . S
Cd270 O269 2.203 . S
Cd270 O272 2.411 . S
Cd270 O273 2.333 . S
Cd270 O274 2.352 . S
Cd270 O278 2.277 . S
Cd270 O279 2.356 . S
C271 O276 1.209 . S
C271 O278 1.226 . S
O272 Cd268 2.273 . S
O272 Cd270 2.411 . S
O272 C275 1.320 . S
O273 Cd270 2.333 . S
O273 C275 1.214 . S
O274 Cd270 2.352 . S
O274 C277 1.258 . S
C275 O272 1.320 . S
C275 O273 1.214 . S
O276 Cd268 2.277 . S
O276 C271 1.209 . S
C277 O274 1.258 . S
C277 O279 1.282 . S
O278 Cd270 2.277 . S
O278 C271 1.226 . S
O279 Cd270 2.356 . S
O279 C277 1.282 . S
C280 O281 1.306 . S
C280 O283 1.160 . S
O281 C280 1.306 . S
O281 Cd282 2.228 . S
Cd282 O281 2.228 . S
Cd282 O286 2.273 . S
Cd282 O290 2.277 . S
O283 C280 1.160 . S
O283 Cd284 2.203 . S
Cd284 O283 2.203 . S
Cd284 O286 2.411 . S
Cd284 O287 2.333 . S
Cd284 O288 2.352 . S
Cd284 O292 2.277 . S
Cd284 O293 2.356 . S
C285 O290 1.209 . S
C285 O292 1.226 . S
O286 Cd282 2.273 . S
O286 Cd284 2.411 . S
O286 C289 1.320 . S
O287 Cd284 2.333 . S
O287 C289 1.214 . S
O288 Cd284 2.352 . S
O288 C291 1.258 . S
C289 O286 1.320 . S
C289 O287 1.214 . S
O290 Cd282 2.277 . S
O290 C285 1.209 . S
C291 O288 1.258 . S
C291 O293 1.282 . S
O292 Cd284 2.277 . S
O292 C285 1.226 . S
O293 Cd284 2.356 . S
O293 C291 1.282 . S
C294 O295 1.306 . S
C294 O297 1.160 . S
O295 C294 1.306 . S
O295 Cd296 2.228 . S
Cd296 O295 2.228 . S
Cd296 O300 2.273 . S
Cd296 O304 2.277 . S
O297 C294 1.160 . S
O297 Cd298 2.203 . S
Cd298 O297 2.203 . S
Cd298 O300 2.411 . S
Cd298 O301 2.333 . S
Cd298 O302 2.352 . S
Cd298 O306 2.277 . S
Cd298 O307 2.356 . S
C299 O304 1.209 . S
C299 O306 1.226 . S
O300 Cd296 2.273 . S
O300 Cd298 2.411 . S
O300 C303 1.320 . S
O301 Cd298 2.333 . S
O301 C303 1.214 . S
O302 Cd298 2.352 . S
O302 C305 1.258 . S
C303 O300 1.320 . S
C303 O301 1.214 . S
O304 Cd296 2.277 . S
O304 C299 1.209 . S
C305 O302 1.258 . S
C305 O307 1.282 . S
O306 Cd298 2.277 . S
O306 C299 1.226 . S
O307 Cd298 2.356 . S
O307 C305 1.282 . S
C308 O309 1.306 . S
C308 O311 1.160 . S
O309 C308 1.306 . S
O309 Cd310 2.228 . S
Cd310 O309 2.228 . S
Cd310 O314 2.273 . S
Cd310 O318 2.277 . S
O311 C308 1.160 . S
O311 Cd312 2.203 . S
Cd312 O311 2.203 . S
Cd312 O314 2.411 . S
Cd312 O315 2.333 . S
Cd312 O316 2.352 . S
Cd312 O320 2.277 . S
Cd312 O321 2.356 . S
C313 O318 1.209 . S
C313 O320 1.226 . S
O314 Cd310 2.273 . S
O314 Cd312 2.411 . S
O314 C317 1.320 . S
O315 Cd312 2.333 . S
O315 C317 1.214 . S
O316 Cd312 2.352 . S
O316 C319 1.258 . S
C317 O314 1.320 . S
C317 O315 1.214 . S
O318 Cd310 2.277 . S
O318 C313 1.209 . S
C319 O316 1.258 . S
C319 O321 1.282 . S
O320 Cd312 2.277 . S
O320 C313 1.226 . S
O321 Cd312 2.356 . S
O321 C319 1.282 . S
C322 O323 1.306 . S
C322 O325 1.160 . S
O323 C322 1.306 . S
O323 Cd324 2.228 . S
Cd324 O323 2.228 . S
Cd324 O328 2.273 . S
Cd324 O332 2.277 . S
O325 C322 1.160 . S
O325 Cd326 2.203 . S
Cd326 O325 2.203 . S
Cd326 O328 2.411 . S
Cd326 O329 2.333 . S
Cd326 O330 2.352 . S
Cd326 O334 2.277 . S
Cd326 O335 2.356 . S
C327 O332 1.209 . S
C327 O334 1.226 . S
O328 Cd324 2.273 . S
O328 Cd326 2.411 . S
O328 C331 1.320 . S
O329 Cd326 2.333 . S
O329 C331 1.214 . S
O330 Cd326 2.352 . S
O330 C333 1.258 . S
C331 O328 1.320 . S
C331 O329 1.214 . S
O332 Cd324 2.277 . S
O332 C327 1.209 . S
C333 O330 1.258 . S
C333 O335 1.282 . S
O334 Cd326 2.277 . S
O334 C327 1.226 . S
O335 Cd326 2.356 . S
O335 C333 1.282 . S
C336 O337 1.306 . S
C336 O339 1.160 . S
O337 C336 1.306 . S
O337 Cd338 2.228 . S
Cd338 O337 2.228 . S
Cd338 O342 2.273 . S
Cd338 O346 2.277 . S
O339 C336 1.160 . S
O339 Cd340 2.203 . S
Cd340 O339 2.203 . S
Cd340 O342 2.411 . S
Cd340 O343 2.333 . S
Cd340 O344 2.352 . S
Cd340 O348 2.277 . S
Cd340 O349 2.356 . S
C341 O346 1.209 . S
C341 O348 1.226 . S
O342 Cd338 2.273 . S
O342 Cd340 2.411 . S
O342 C345 1.320 . S
O343 Cd340 2.333 . S
O343 C345 1.214 . S
O344 Cd340 2.352 . S
O344 C347 1.258 . S
C345 O342 1.320 . S
C345 O343 1.214 . S
O346 Cd338 2.277 . S
O346 C341 1.209 . S
C347 O344 1.258 . S
C347 O349 1.282 . S
O348 Cd340 2.277 . S
O348 C341 1.226 . S
O349 Cd340 2.356 . S
O349 C347 1.282 . S
C350 O351 1.306 . S
C350 O353 1.160 . S
O351 C350 1.306 . S
O351 Cd352 2.228 . S
Cd352 O351 2.228 . S
Cd352 O356 2.273 . S
Cd352 O360 2.277 . S
O353 C350 1.160 . S
O353 Cd354 2.203 . S
Cd354 O353 2.203 . S
Cd354 O356 2.411 . S
Cd354 O357 2.333 . S
Cd354 O358 2.352 . S
Cd354 O362 2.277 . S
Cd354 O363 2.356 . S
C355 O360 1.209 . S
C355 O362 1.226 . S
O356 Cd352 2.273 . S
O356 Cd354 2.411 . S
O356 C359 1.320 . S
O357 Cd354 2.333 . S
O357 C359 1.214 . S
O358 Cd354 2.352 . S
O358 C361 1.258 . S
C359 O356 1.320 . S
C359 O357 1.214 . S
O360 Cd352 2.277 . S
O360 C355 1.209 . S
C361 O358 1.258 . S
C361 O363 1.282 . S
O362 Cd354 2.277 . S
O362 C355 1.226 . S
O363 Cd354 2.356 . S
O363 C361 1.282 . S
C364 O365 1.306 . S
C364 O367 1.160 . S
O365 C364 1.306 . S
O365 Cd366 2.228 . S
Cd366 O365 2.228 . S
Cd366 O370 2.273 . S
Cd366 O374 2.277 . S
O367 C364 1.160 . S
O367 Cd368 2.203 . S
Cd368 O367 2.203 . S
Cd368 O370 2.411 . S
Cd368 O371 2.333 . S
Cd368 O372 2.352 . S
Cd368 O376 2.277 . S
Cd368 O377 2.356 . S
C369 O374 1.209 . S
C369 O376 1.226 . S
O370 Cd366 2.273 . S
O370 Cd368 2.411 . S
O370 C373 1.320 . S
O371 Cd368 2.333 . S
O371 C373 1.214 . S
O372 Cd368 2.352 . S
O372 C375 1.258 . S
C373 O370 1.320 . S
C373 O371 1.214 . S
O374 Cd366 2.277 . S
O374 C369 1.209 . S
C375 O372 1.258 . S
C375 O377 1.282 . S
O376 Cd368 2.277 . S
O376 C369 1.226 . S
O377 Cd368 2.356 . S
O377 C375 1.282 . S
C378 O379 1.306 . S
C378 O381 1.160 . S
O379 C378 1.306 . S
O379 Cd380 2.228 . S
Cd380 O379 2.228 . S
Cd380 O384 2.273 . S
Cd380 O388 2.277 . S
O381 C378 1.160 . S
O381 Cd382 2.203 . S
Cd382 O381 2.203 . S
Cd382 O384 2.411 . S
Cd382 O385 2.333 . S
Cd382 O386 2.352 . S
Cd382 O390 2.277 . S
Cd382 O391 2.356 . S
C383 O388 1.209 . S
C383 O390 1.226 . S
O384 Cd380 2.273 . S
O384 Cd382 2.411 . S
O384 C387 1.320 . S
O385 Cd382 2.333 . S
O385 C387 1.214 . S
O386 Cd382 2.352 . S
O386 C389 1.258 . S
C387 O384 1.320 . S
C387 O385 1.214 . S
O388 Cd380 2.277 . S
O388 C383 1.209 . S
C389 O386 1.258 . S
C389 O391 1.282 . S
O390 Cd382 2.277 . S
O390 C383 1.226 . S
O391 Cd382 2.356 . S
O391 C389 1.282 . S
C392 O393 1.306 . S
C392 O395 1.160 . S
O393 C392 1.306 . S
O393 Cd394 2.228 . S
Cd394 O393 2.228 . S
Cd394 O398 2.273 . S
Cd394 O402 2.277 . S
O395 C392 1.160 . S
O395 Cd396 2.203 . S
Cd396 O395 2.203 . S
Cd396 O398 2.411 . S
Cd396 O399 2.333 . S
Cd396 O400 2.352 . S
Cd396 O404 2.277 . S
Cd396 O405 2.356 . S
C397 O402 1.209 . S
C397 O404 1.226 . S
O398 Cd394 2.273 . S
O398 Cd396 2.411 . S
O398 C401 1.320 . S
O399 Cd396 2.333 . S
O399 C401 1.214 . S
O400 Cd396 2.352 . S
O400 C403 1.258 . S
C401 O398 1.320 . S
C401 O399 1.214 . S
O402 Cd394 2.277 . S
O402 C397 1.209 . S
C403 O400 1.258 . S
C403 O405 1.282 . S
O404 Cd396 2.277 . S
O404 C397 1.226 . S
O405 Cd396 2.356 . S
O405 C403 1.282 . S
C406 O407 1.306 . S
C406 O409 1.160 . S
O407 C406 1.306 . S
O407 Cd408 2.228 . S
Cd408 O407 2.228 . S
Cd408 O412 2.273 . S
Cd408 O416 2.277 . S
O409 C406 1.160 . S
O409 Cd410 2.203 . S
Cd410 O409 2.203 . S
Cd410 O412 2.411 . S
Cd410 O413 2.333 . S
Cd410 O414 2.352 . S
Cd410 O418 2.277 . S
Cd410 O419 2.356 . S
C411 O416 1.209 . S
C411 O418 1.226 . S
O412 Cd408 2.273 . S
O412 Cd410 2.411 . S
O412 C415 1.320 . S
O413 Cd410 2.333 . S
O413 C415 1.214 . S
O414 Cd410 2.352 . S
O414 C417 1.258 . S
C415 O412 1.320 . S
C415 O413 1.214 . S
O416 Cd408 2.277 . S
O416 C411 1.209 . S
C417 O414 1.258 . S
C417 O419 1.282 . S
O418 Cd410 2.277 . S
O418 C411 1.226 . S
O419 Cd410 2.356 . S
O419 C417 1.282 . S
C420 O421 1.306 . S
C420 O423 1.160 . S
O421 C420 1.306 . S
O421 Cd422 2.228 . S
Cd422 O421 2.228 . S
Cd422 O426 2.273 . S
Cd422 O430 2.277 . S
O423 C420 1.160 . S
O423 Cd424 2.203 . S
Cd424 O423 2.203 . S
Cd424 O426 2.411 . S
Cd424 O427 2.333 . S
Cd424 O428 2.352 . S
Cd424 O432 2.277 . S
Cd424 O433 2.356 . S
C425 O430 1.209 . S
C425 O432 1.226 . S
O426 Cd422 2.273 . S
O426 Cd424 2.411 . S
O426 C429 1.320 . S
O427 Cd424 2.333 . S
O427 C429 1.214 . S
O428 Cd424 2.352 . S
O428 C431 1.258 . S
C429 O426 1.320 . S
C429 O427 1.214 . S
O430 Cd422 2.277 . S
O430 C425 1.209 . S
C431 O428 1.258 . S
C431 O433 1.282 . S
O432 Cd424 2.277 . S
O432 C425 1.226 . S
O433 Cd424 2.356 . S
O433 C431 1.282 . S
C434 O435 1.306 . S
C434 O437 1.160 . S
O435 C434 1.306 . S
O435 Cd436 2.228 . S
Cd436 O435 2.228 . S
Cd436 O440 2.273 . S
Cd436 O444 2.277 . S
O437 C434 1.160 . S
O437 Cd438 2.203 . S
Cd438 O437 2.203 . S
Cd438 O440 2.411 . S
Cd438 O441 2.333 . S
Cd438 O442 2.352 . S
Cd438 O446 2.277 . S
Cd438 O447 2.356 . S
C439 O444 1.209 . S
C439 O446 1.226 . S
O440 Cd436 2.273 . S
O440 Cd438 2.411 . S
O440 C443 1.320 . S
O441 Cd438 2.333 . S
O441 C443 1.214 . S
O442 Cd438 2.352 . S
O442 C445 1.258 . S
C443 O440 1.320 . S
C443 O441 1.214 . S
O444 Cd436 2.277 . S
O444 C439 1.209 . S
C445 O442 1.258 . S
C445 O447 1.282 . S
O446 Cd438 2.277 . S
O446 C439 1.226 . S
O447 Cd438 2.356 . S
O447 C445 1.282 . S
H448 C456 0.929 . S
H449 C458 0.930 . S
H450 C460 0.930 . S
H451 C463 0.929 . S
H452 C466 0.930 . S
H453 C468 0.960 . S
H454 C468 0.960 . S
H455 C468 0.960 . S
C456 H448 0.929 . S
C456 C457 1.377 . S
C456 C458 1.384 . S
C457 C456 1.377 . S
C457 C463 1.390 . S
C458 H449 0.930 . S
C458 C456 1.384 . S
C458 C459 1.372 . S
C459 C458 1.372 . S
C459 C460 1.400 . S
C459 C464 1.490 . S
C460 H450 0.930 . S
C460 C459 1.400 . S
C460 C463 1.386 . S
H461 C477 0.930 . S
H462 C478 0.931 . S
C463 H451 0.929 . S
C463 C457 1.390 . S
C463 C460 1.386 . S
C464 C459 1.490 . S
C464 C466 1.395 . S
C464 C467 1.403 . S
H465 C471 0.930 . S
C466 H452 0.930 . S
C466 C464 1.395 . S
C466 C469 1.403 . S
C467 C464 1.403 . S
C467 C468 1.524 . S
C467 C471 1.400 . S
C468 H453 0.960 . S
C468 H454 0.960 . S
C468 H455 0.960 . S
C468 C467 1.524 . S
C469 C466 1.403 . S
C469 C470 1.392 . S
C469 C473 1.495 . S
C470 C469 1.392 . S
C470 C471 1.385 . S
C470 C472 1.478 . S
C471 H465 0.930 . S
C471 C467 1.400 . S
C471 C470 1.385 . S
C472 C470 1.478 . S
C472 C474 1.381 . S
C472 C478 1.383 . S
C473 C469 1.495 . S
C473 H479 0.959 . S
C473 H480 0.961 . S
C473 H481 0.960 . S
C474 C472 1.381 . S
C474 C475 1.394 . S
C474 H482 0.930 . S
C475 C474 1.394 . S
C475 C476 1.383 . S
C475 H483 0.929 . S
C476 C475 1.383 . S
C476 C477 1.377 . S
C477 H461 0.930 . S
C477 C476 1.377 . S
C477 C478 1.379 . S
C478 H462 0.931 . S
C478 C472 1.383 . S
C478 C477 1.379 . S
H479 C473 0.959 . S
H480 C473 0.961 . S
H481 C473 0.960 . S
H482 C474 0.930 . S
H483 C475 0.929 . S
H484 C492 0.929 . S
H485 C494 0.930 . S
H486 C496 0.930 . S
H487 C499 0.929 . S
H488 C502 0.930 . S
H489 C504 0.960 . S
H490 C504 0.960 . S
H491 C504 0.960 . S
C492 H484 0.929 . S
C492 C493 1.377 . S
C492 C494 1.384 . S
C493 C492 1.377 . S
C493 C499 1.390 . S
C494 H485 0.930 . S
C494 C492 1.384 . S
C494 C495 1.372 . S
C495 C494 1.372 . S
C495 C496 1.400 . S
C495 C500 1.490 . S
C496 H486 0.930 . S
C496 C495 1.400 . S
C496 C499 1.386 . S
H497 C513 0.930 . S
H498 C514 0.931 . S
C499 H487 0.929 . S
C499 C493 1.390 . S
C499 C496 1.386 . S
C500 C495 1.490 . S
C500 C502 1.395 . S
C500 C503 1.403 . S
H501 C507 0.930 . S
C502 H488 0.930 . S
C502 C500 1.395 . S
C502 C505 1.403 1_565 S
C503 C500 1.403 . S
C503 C504 1.524 . S
C503 C507 1.400 1_565 S
C504 H489 0.960 . S
C504 H490 0.960 . S
C504 H491 0.960 . S
C504 C503 1.524 . S
C505 C502 1.403 1_545 S
C505 C506 1.392 . S
C505 C509 1.495 . S
C506 C505 1.392 . S
C506 C507 1.385 . S
C506 C508 1.478 . S
C507 H501 0.930 . S
C507 C503 1.400 1_545 S
C507 C506 1.385 . S
C508 C506 1.478 . S
C508 C510 1.381 . S
C508 C514 1.383 . S
C509 C505 1.495 . S
C509 H515 0.959 . S
C509 H516 0.961 . S
C509 H517 0.960 . S
C510 C508 1.381 . S
C510 C511 1.394 . S
C510 H518 0.930 . S
C511 C510 1.394 . S
C511 C512 1.383 . S
C511 H519 0.929 . S
C512 C511 1.383 . S
C512 C513 1.377 . S
C513 H497 0.930 . S
C513 C512 1.377 . S
C513 C514 1.379 . S
C514 H498 0.931 . S
C514 C508 1.383 . S
C514 C513 1.379 . S
H515 C509 0.959 . S
H516 C509 0.961 . S
H517 C509 0.960 . S
H518 C510 0.930 . S
H519 C511 0.929 . S
H520 C528 0.929 . S
H521 C530 0.930 . S
H522 C532 0.930 . S
H523 C535 0.929 . S
H524 C538 0.930 . S
H525 C540 0.960 . S
H526 C540 0.960 . S
H527 C540 0.960 . S
C528 H520 0.929 . S
C528 C529 1.377 . S
C528 C530 1.384 . S
C529 C528 1.377 . S
C529 C535 1.390 . S
C530 H521 0.930 . S
C530 C528 1.384 . S
C530 C531 1.372 . S
C531 C530 1.372 . S
C531 C532 1.400 . S
C531 C536 1.490 . S
C532 H522 0.930 . S
C532 C531 1.400 . S
C532 C535 1.386 . S
H533 C549 0.930 . S
H534 C550 0.931 . S
C535 H523 0.929 . S
C535 C529 1.390 . S
C535 C532 1.386 . S
C536 C531 1.490 . S
C536 C538 1.395 . S
C536 C539 1.403 . S
H537 C543 0.930 . S
C538 H524 0.930 . S
C538 C536 1.395 . S
C538 C541 1.403 . S
C539 C536 1.403 . S
C539 C540 1.524 . S
C539 C543 1.400 . S
C540 H525 0.960 . S
C540 H526 0.960 . S
C540 H527 0.960 . S
C540 C539 1.524 . S
C541 C538 1.403 . S
C541 C542 1.392 . S
C541 C545 1.495 . S
C542 C541 1.392 . S
C542 C543 1.385 . S
C542 C544 1.478 . S
C543 H537 0.930 . S
C543 C539 1.400 . S
C543 C542 1.385 . S
C544 C542 1.478 . S
C544 C546 1.381 . S
C544 C550 1.383 . S
C545 C541 1.495 . S
C545 H551 0.959 . S
C545 H552 0.961 . S
C545 H553 0.960 . S
C546 C544 1.381 . S
C546 C547 1.394 . S
C546 H554 0.930 . S
C547 C546 1.394 . S
C547 C548 1.383 . S
C547 H555 0.929 . S
C548 C547 1.383 . S
C548 C549 1.377 . S
C549 H533 0.930 . S
C549 C548 1.377 . S
C549 C550 1.379 . S
C550 H534 0.931 . S
C550 C544 1.383 . S
C550 C549 1.379 . S
H551 C545 0.959 . S
H552 C545 0.961 . S
H553 C545 0.960 . S
H554 C546 0.930 . S
H555 C547 0.929 . S
H556 C564 0.929 . S
H557 C566 0.930 . S
H558 C568 0.930 . S
H559 C571 0.929 . S
H560 C574 0.930 . S
H561 C576 0.918 1_565 S
H562 C576 0.960 . S
H563 C576 0.960 . S
C564 H556 0.929 . S
C564 C565 1.377 . S
C564 C566 1.384 . S
C565 C564 1.377 . S
C565 C571 1.390 . S
C566 H557 0.930 . S
C566 C564 1.384 . S
C566 C567 1.372 . S
C567 C566 1.372 . S
C567 C568 1.400 . S
C567 C572 1.490 . S
C568 H558 0.930 . S
C568 C567 1.400 . S
C568 C571 1.386 . S
H569 C585 0.930 . S
H570 C586 0.931 . S
C571 H559 0.929 . S
C571 C565 1.390 . S
C571 C568 1.386 . S
C572 C567 1.490 . S
C572 C574 1.395 1_556 S
C572 C575 1.403 . S
H573 C579 0.930 . S
C574 H560 0.930 . S
C574 C572 1.395 1_554 S
C574 C577 1.403 1_545 S
C575 C572 1.403 . S
C575 C576 1.524 . S
C575 C579 1.400 1_545 S
C576 H561 0.918 1_545 S
C576 H562 0.960 . S
C576 H563 0.960 . S
C576 C575 1.524 . S
C577 C574 1.403 1_565 S
C577 C578 1.392 . S
C577 C581 1.495 . S
C578 C577 1.392 . S
C578 C579 1.385 1_554 S
C578 C580 1.478 . S
C579 H573 0.930 . S
C579 C575 1.400 1_565 S
C579 C578 1.385 1_556 S
C580 C578 1.478 . S
C580 C582 1.381 . S
C580 C586 1.383 . S
C581 C577 1.495 . S
C581 H587 0.953 . S
C581 H588 0.961 . S
C581 H589 0.960 . S
C582 C580 1.381 . S
C582 C583 1.394 . S
C582 H590 0.930 . S
C583 C582 1.394 . S
C583 C584 1.383 . S
C583 H591 0.929 . S
C584 C583 1.383 . S
C584 C585 1.377 . S
C585 H569 0.930 . S
C585 C584 1.377 . S
C585 C586 1.379 . S
C586 H570 0.931 . S
C586 C580 1.383 . S
C586 C585 1.379 . S
H587 C581 0.953 . S
H588 C581 0.961 . S
H589 C581 0.960 . S
H590 C582 0.930 . S
H591 C583 0.929 . S
H592 C600 0.929 . S
H593 C602 0.930 . S
H594 C604 0.930 . S
H595 C607 0.929 . S
H596 C610 0.930 . S
H597 C612 0.960 . S
H598 C612 0.960 . S
H599 C612 0.960 . S
C600 H592 0.929 . S
C600 C601 1.377 . S
C600 C602 1.384 . S
C601 C600 1.377 . S
C601 C607 1.390 . S
C602 H593 0.930 . S
C602 C600 1.384 . S
C602 C603 1.372 . S
C603 C602 1.372 . S
C603 C604 1.400 . S
C603 C608 1.490 . S
C604 H594 0.930 . S
C604 C603 1.400 . S
C604 C607 1.386 . S
H605 C621 0.930 . S
H606 C622 0.931 . S
C607 H595 0.929 . S
C607 C601 1.390 . S
C607 C604 1.386 . S
C608 C603 1.490 . S
C608 C610 1.395 . S
C608 C611 1.403 . S
H609 C615 0.930 . S
C610 H596 0.930 . S
C610 C608 1.395 . S
C610 C613 1.403 . S
C611 C608 1.403 . S
C611 C612 1.524 . S
C611 C615 1.400 . S
C612 H597 0.960 . S
C612 H598 0.960 . S
C612 H599 0.960 . S
C612 C611 1.524 . S
C613 C610 1.403 . S
C613 C614 1.392 . S
C613 C617 1.495 . S
C614 C613 1.392 . S
C614 C615 1.385 . S
C614 C616 1.478 . S
C615 H609 0.930 . S
C615 C611 1.400 . S
C615 C614 1.385 . S
C616 C614 1.478 . S
C616 C618 1.381 . S
C616 C622 1.383 . S
C617 C613 1.495 . S
C617 H623 0.959 . S
C617 H624 0.961 . S
C617 H625 0.960 . S
C618 C616 1.381 . S
C618 C619 1.394 . S
C618 H626 0.930 . S
C619 C618 1.394 . S
C619 C620 1.383 . S
C619 H627 0.929 . S
C620 C619 1.383 . S
C620 C621 1.377 . S
C621 H605 0.930 . S
C621 C620 1.377 . S
C621 C622 1.379 . S
C622 H606 0.931 . S
C622 C616 1.383 . S
C622 C621 1.379 . S
H623 C617 0.959 . S
H624 C617 0.961 . S
H625 C617 0.960 . S
H626 C618 0.930 . S
H627 C619 0.929 . S
H628 C636 0.929 . S
H629 C638 0.930 . S
H630 C640 0.930 . S
H631 C643 0.929 . S
H632 C646 0.930 . S
H633 C648 0.960 . S
H634 C648 0.960 . S
H635 C648 0.960 . S
C636 H628 0.929 . S
C636 C637 1.377 . S
C636 C638 1.384 . S
C637 C636 1.377 . S
C637 C643 1.390 . S
C638 H629 0.930 . S
C638 C636 1.384 . S
C638 C639 1.372 . S
C639 C638 1.372 . S
C639 C640 1.400 . S
C639 C644 1.490 . S
C640 H630 0.930 . S
C640 C639 1.400 . S
C640 C643 1.386 . S
H641 C657 0.930 . S
H642 C658 0.931 . S
C643 H631 0.929 . S
C643 C637 1.390 . S
C643 C640 1.386 . S
C644 C639 1.490 . S
C644 C646 1.395 . S
C644 C647 1.403 . S
H645 C651 0.930 . S
C646 H632 0.930 . S
C646 C644 1.395 . S
C646 C649 1.403 1_565 S
C647 C644 1.403 . S
C647 C648 1.524 . S
C647 C651 1.400 1_565 S
C648 H633 0.960 . S
C648 H634 0.960 . S
C648 H635 0.960 . S
C648 C647 1.524 . S
C649 C646 1.403 1_545 S
C649 C650 1.392 . S
C649 C653 1.495 . S
C650 C649 1.392 . S
C650 C651 1.385 . S
C650 C652 1.478 . S
C651 H645 0.930 . S
C651 C647 1.400 1_545 S
C651 C650 1.385 . S
C652 C650 1.478 . S
C652 C654 1.381 . S
C652 C658 1.383 . S
C653 C649 1.495 . S
C653 H659 0.959 . S
C653 H660 0.961 . S
C653 H661 0.960 . S
C654 C652 1.381 . S
C654 C655 1.394 . S
C654 H662 0.930 . S
C655 C654 1.394 . S
C655 C656 1.383 . S
C655 H663 0.929 . S
C656 C655 1.383 . S
C656 C657 1.377 . S
C657 H641 0.930 . S
C657 C656 1.377 . S
C657 C658 1.379 . S
C658 H642 0.931 . S
C658 C652 1.383 . S
C658 C657 1.379 . S
H659 C653 0.959 . S
H660 C653 0.961 . S
H661 C653 0.960 . S
H662 C654 0.930 . S
H663 C655 0.929 . S
H664 C672 0.929 . S
H665 C674 0.930 . S
H666 C676 0.930 . S
H667 C679 0.929 . S
H668 C682 0.930 . S
H669 C684 0.960 . S
H670 C684 0.960 . S
H671 C684 0.960 . S
C672 H664 0.929 . S
C672 C673 1.377 . S
C672 C674 1.384 . S
C673 C672 1.377 . S
C673 C679 1.390 . S
C674 H665 0.930 . S
C674 C672 1.384 . S
C674 C675 1.372 . S
C675 C674 1.372 . S
C675 C676 1.400 . S
C675 C680 1.490 . S
C676 H666 0.930 . S
C676 C675 1.400 . S
C676 C679 1.386 . S
H677 C693 0.930 . S
H678 C694 0.931 . S
C679 H667 0.929 . S
C679 C673 1.390 . S
C679 C676 1.386 . S
C680 C675 1.490 . S
C680 C682 1.395 . S
C680 C683 1.403 . S
H681 C687 0.930 . S
C682 H668 0.930 . S
C682 C680 1.395 . S
C682 C685 1.403 . S
C683 C680 1.403 . S
C683 C684 1.524 . S
C683 C687 1.400 . S
C684 H669 0.960 . S
C684 H670 0.960 . S
C684 H671 0.960 . S
C684 C683 1.524 . S
C685 C682 1.403 . S
C685 C686 1.392 . S
C685 C689 1.495 . S
C686 C685 1.392 . S
C686 C687 1.385 . S
C686 C688 1.478 . S
C687 H681 0.930 . S
C687 C683 1.400 . S
C687 C686 1.385 . S
C688 C686 1.478 . S
C688 C690 1.381 . S
C688 C694 1.383 . S
C689 C685 1.495 . S
C689 H695 0.959 . S
C689 H696 0.961 . S
C689 H697 0.960 . S
C690 C688 1.381 . S
C690 C691 1.394 . S
C690 H698 0.930 . S
C691 C690 1.394 . S
C691 C692 1.383 . S
C691 H699 0.929 . S
C692 C691 1.383 . S
C692 C693 1.377 . S
C693 H677 0.930 . S
C693 C692 1.377 . S
C693 C694 1.379 . S
C694 H678 0.931 . S
C694 C688 1.383 . S
C694 C693 1.379 . S
H695 C689 0.959 . S
H696 C689 0.961 . S
H697 C689 0.960 . S
H698 C690 0.930 . S
H699 C691 0.929 . S
H700 C708 0.929 . S
H701 C710 0.930 1_554 S
H702 C712 0.930 . S
H703 C715 0.929 . S
H704 C718 0.930 . S
H705 C720 0.960 . S
H706 C720 0.960 . S
H707 C720 0.960 . S
C708 H700 0.929 . S
C708 C709 1.377 . S
C708 C710 1.384 . S
C709 C708 1.377 . S
C709 C715 1.390 . S
C710 H701 0.930 1_556 S
C710 C708 1.384 . S
C710 C711 1.372 . S
C711 C710 1.372 . S
C711 C712 1.400 . S
C711 C716 1.490 . S
C712 H702 0.930 . S
C712 C711 1.400 . S
C712 C715 1.386 . S
H713 C729 0.930 . S
H714 C730 0.931 1_556 S
C715 H703 0.929 . S
C715 C709 1.390 . S
C715 C712 1.386 . S
C716 C711 1.490 . S
C716 C718 1.395 1_556 S
C716 C719 1.403 . S
H717 C723 0.930 . S
C718 H704 0.930 . S
C718 C716 1.395 1_554 S
C718 C721 1.403 1_545 S
C719 C716 1.403 . S
C719 C720 1.524 . S
C719 C723 1.400 1_546 S
C720 H705 0.960 . S
C720 H706 0.960 . S
C720 H707 0.960 . S
C720 C719 1.524 . S
C721 C718 1.403 1_565 S
C721 C722 1.392 . S
C721 C725 1.495 . S
C722 C721 1.392 . S
C722 C723 1.385 . S
C722 C724 1.478 . S
C723 H717 0.930 . S
C723 C719 1.400 1_564 S
C723 C722 1.385 . S
C724 C722 1.478 . S
C724 C726 1.381 . S
C724 C730 1.383 . S
C725 C721 1.495 . S
C725 H731 0.959 . S
C725 H732 0.961 . S
C725 H733 0.960 . S
C726 C724 1.381 . S
C726 C727 1.394 . S
C726 H734 0.930 . S
C727 C726 1.394 . S
C727 C728 1.383 . S
C727 H735 0.929 . S
C728 C727 1.383 . S
C728 C729 1.377 . S
C729 H713 0.930 . S
C729 C728 1.377 . S
C729 C730 1.379 . S
C730 H714 0.931 1_554 S
C730 C724 1.383 . S
C730 C729 1.379 . S
H731 C725 0.959 . S
H732 C725 0.961 . S
H733 C725 0.960 . S
H734 C726 0.930 . S
H735 C727 0.929 . S
H736 C744 0.929 . S
H737 C746 0.930 . S
H738 C748 0.930 . S
H739 C751 0.929 . S
H740 C754 0.930 . S
H741 C756 0.960 . S
H742 C756 0.960 . S
H743 C756 0.960 . S
C744 H736 0.929 . S
C744 C745 1.377 . S
C744 C746 1.384 . S
C745 C744 1.377 . S
C745 C751 1.390 . S
C746 H737 0.930 . S
C746 C744 1.384 . S
C746 C747 1.372 . S
C747 C746 1.372 . S
C747 C748 1.400 . S
C747 C752 1.490 . S
C748 H738 0.930 . S
C748 C747 1.400 . S
C748 C751 1.386 . S
H749 C765 0.930 . S
H750 C766 0.931 . S
C751 H739 0.929 . S
C751 C745 1.390 . S
C751 C748 1.386 . S
C752 C747 1.490 . S
C752 C754 1.395 . S
C752 C755 1.403 . S
H753 C759 0.930 . S
C754 H740 0.930 . S
C754 C752 1.395 . S
C754 C757 1.403 . S
C755 C752 1.403 . S
C755 C756 1.524 . S
C755 C759 1.400 . S
C756 H741 0.960 . S
C756 H742 0.960 . S
C756 H743 0.960 . S
C756 C755 1.524 . S
C757 C754 1.403 . S
C757 C758 1.392 . S
C757 C761 1.495 . S
C758 C757 1.392 . S
C758 C759 1.385 . S
C758 C760 1.478 . S
C759 H753 0.930 . S
C759 C755 1.400 . S
C759 C758 1.385 . S
C760 C758 1.478 . S
C760 C762 1.381 . S
C760 C766 1.383 . S
C761 C757 1.495 . S
C761 H767 0.959 . S
C761 H768 0.961 . S
C761 H769 0.960 . S
C762 C760 1.381 . S
C762 C763 1.394 . S
C762 H770 0.930 . S
C763 C762 1.394 . S
C763 C764 1.383 . S
C763 H771 0.929 . S
C764 C763 1.383 . S
C764 C765 1.377 . S
C765 H749 0.930 . S
C765 C764 1.377 . S
C765 C766 1.379 . S
C766 H750 0.931 . S
C766 C760 1.383 . S
C766 C765 1.379 . S
H767 C761 0.959 . S
H768 C761 0.961 . S
H769 C761 0.960 . S
H770 C762 0.930 . S
H771 C763 0.929 . S
H772 C780 0.929 . S
H773 C782 0.930 . S
H774 C784 0.930 . S
H775 C787 0.929 . S
H776 C790 0.930 . S
H777 C792 0.960 . S
H778 C792 0.960 . S
H779 C792 0.960 . S
C780 H772 0.929 . S
C780 C781 1.377 . S
C780 C782 1.384 . S
C781 C780 1.377 . S
C781 C787 1.390 . S
C782 H773 0.930 . S
C782 C780 1.384 . S
C782 C783 1.372 . S
C783 C782 1.372 . S
C783 C784 1.400 . S
C783 C788 1.490 . S
C784 H774 0.930 . S
C784 C783 1.400 . S
C784 C787 1.386 . S
H785 C801 0.930 . S
H786 C802 0.931 . S
C787 H775 0.929 . S
C787 C781 1.390 . S
C787 C784 1.386 . S
C788 C783 1.490 . S
C788 C790 1.395 1_556 S
C788 C791 1.403 . S
H789 C795 0.930 . S
C790 H776 0.930 . S
C790 C788 1.395 1_554 S
C790 C793 1.403 . S
C791 C788 1.403 . S
C791 C792 1.524 . S
C791 C795 1.400 . S
C792 H777 0.960 . S
C792 H778 0.960 . S
C792 H779 0.960 . S
C792 C791 1.524 . S
C793 C790 1.403 . S
C793 C794 1.392 . S
C793 C797 1.495 . S
C794 C793 1.392 . S
C794 C795 1.385 1_554 S
C794 C796 1.478 . S
C795 H789 0.930 . S
C795 C791 1.400 . S
C795 C794 1.385 1_556 S
C796 C794 1.478 . S
C796 C798 1.381 . S
C796 C802 1.383 . S
C797 C793 1.495 . S
C797 H803 0.959 . S
C797 H804 0.961 . S
C797 H805 0.960 . S
C798 C796 1.381 . S
C798 C799 1.394 . S
C798 H806 0.930 1_554 S
C799 C798 1.394 . S
C799 C800 1.383 . S
C799 H807 0.929 . S
C800 C799 1.383 . S
C800 C801 1.377 . S
C801 H785 0.930 . S
C801 C800 1.377 . S
C801 C802 1.379 . S
C802 H786 0.931 . S
C802 C796 1.383 . S
C802 C801 1.379 . S
H803 C797 0.959 . S
H804 C797 0.961 . S
H805 C797 0.960 . S
H806 C798 0.930 1_556 S
H807 C799 0.929 . S
H808 C816 0.929 . S
H809 C818 0.930 . S
H810 C820 0.930 . S
H811 C823 0.929 . S
H812 C826 0.930 . S
H813 C828 0.960 . S
H814 C828 0.960 . S
H815 C828 0.960 . S
C816 H808 0.929 . S
C816 C817 1.377 . S
C816 C818 1.384 . S
C817 C816 1.377 . S
C817 C823 1.390 . S
C818 H809 0.930 . S
C818 C816 1.384 . S
C818 C819 1.372 . S
C819 C818 1.372 . S
C819 C820 1.400 . S
C819 C824 1.490 . S
C820 H810 0.930 . S
C820 C819 1.400 . S
C820 C823 1.386 . S
H821 C837 0.930 . S
H822 C838 0.931 . S
C823 H811 0.929 . S
C823 C817 1.390 . S
C823 C820 1.386 . S
C824 C819 1.490 . S
C824 C826 1.395 . S
C824 C827 1.403 . S
H825 C831 0.930 . S
C826 H812 0.930 . S
C826 C824 1.395 . S
C826 C829 1.403 . S
C827 C824 1.403 . S
C827 C828 1.524 . S
C827 C831 1.400 . S
C828 H813 0.960 . S
C828 H814 0.960 . S
C828 H815 0.960 . S
C828 C827 1.524 . S
C829 C826 1.403 . S
C829 C830 1.392 . S
C829 C833 1.495 . S
C830 C829 1.392 . S
C830 C831 1.385 . S
C830 C832 1.478 . S
C831 H825 0.930 . S
C831 C827 1.400 . S
C831 C830 1.385 . S
C832 C830 1.478 . S
C832 C834 1.381 . S
C832 C838 1.383 . S
C833 C829 1.495 . S
C833 H839 0.959 . S
C833 H840 0.961 . S
C833 H841 0.960 . S
C834 C832 1.381 . S
C834 C835 1.394 . S
C834 H842 0.930 . S
C835 C834 1.394 . S
C835 C836 1.383 . S
C835 H843 0.929 . S
C836 C835 1.383 . S
C836 C837 1.377 . S
C837 H821 0.930 . S
C837 C836 1.377 . S
C837 C838 1.379 . S
C838 H822 0.931 . S
C838 C832 1.383 . S
C838 C837 1.379 . S
H839 C833 0.959 . S
H840 C833 0.961 . S
H841 C833 0.960 . S
H842 C834 0.930 . S
H843 C835 0.929 . S
H844 C852 0.929 . S
H845 C854 0.930 . S
H846 C856 0.930 . S
H847 C859 0.929 . S
H848 C862 0.930 . S
H849 C864 0.960 . S
H850 C864 0.960 . S
H851 C864 0.960 . S
C852 H844 0.929 . S
C852 C853 1.377 . S
C852 C854 1.384 . S
C853 C852 1.377 . S
C853 C859 1.390 . S
C854 H845 0.930 . S
C854 C852 1.384 . S
C854 C855 1.372 . S
C855 C854 1.372 . S
C855 C856 1.400 . S
C855 C860 1.490 . S
C856 H846 0.930 . S
C856 C855 1.400 . S
C856 C859 1.386 . S
H857 C873 0.930 . S
H858 C874 0.931 . S
C859 H847 0.929 . S
C859 C853 1.390 . S
C859 C856 1.386 . S
C860 C855 1.490 . S
C860 C862 1.395 . S
C860 C863 1.403 . S
H861 C867 0.930 . S
C862 H848 0.930 . S
C862 C860 1.395 . S
C862 C865 1.403 . S
C863 C860 1.403 . S
C863 C864 1.524 . S
C863 C867 1.400 . S
C864 H849 0.960 . S
C864 H850 0.960 . S
C864 H851 0.960 . S
C864 C863 1.524 . S
C865 C862 1.403 . S
C865 C866 1.392 . S
C865 C869 1.495 . S
C866 C865 1.392 . S
C866 C867 1.385 . S
C866 C868 1.478 . S
C867 H861 0.930 . S
C867 C863 1.400 . S
C867 C866 1.385 . S
C868 C866 1.478 . S
C868 C870 1.381 . S
C868 C874 1.383 . S
C869 C865 1.495 . S
C869 H875 0.959 . S
C869 H876 0.961 . S
C869 H877 0.960 . S
C870 C868 1.381 . S
C870 C871 1.394 . S
C870 H878 0.930 . S
C871 C870 1.394 . S
C871 C872 1.383 . S
C871 H879 0.929 . S
C872 C871 1.383 . S
C872 C873 1.377 . S
C873 H857 0.930 . S
C873 C872 1.377 . S
C873 C874 1.379 . S
C874 H858 0.931 . S
C874 C868 1.383 . S
C874 C873 1.379 . S
H875 C869 0.959 . S
H876 C869 0.961 . S
H877 C869 0.960 . S
H878 C870 0.930 . S
H879 C871 0.929 . S
H880 C888 0.929 . S
H881 C890 0.930 . S
H882 C892 0.930 . S
H883 C895 0.929 . S
H884 C898 0.930 . S
H885 C900 0.960 . S
H886 C900 0.960 . S
H887 C900 0.960 . S
C888 H880 0.929 . S
C888 C889 1.377 . S
C888 C890 1.384 . S
C889 C888 1.377 . S
C889 C895 1.390 . S
C890 H881 0.930 . S
C890 C888 1.384 . S
C890 C891 1.372 . S
C891 C890 1.372 . S
C891 C892 1.400 . S
C891 C896 1.490 . S
C892 H882 0.930 . S
C892 C891 1.400 . S
C892 C895 1.386 . S
H893 C909 0.930 . S
H894 C910 0.931 . S
C895 H883 0.929 . S
C895 C889 1.390 . S
C895 C892 1.386 . S
C896 C891 1.490 . S
C896 C898 1.395 . S
C896 C899 1.403 . S
H897 C903 0.930 . S
C898 H884 0.930 . S
C898 C896 1.395 . S
C898 C901 1.403 . S
C899 C896 1.403 . S
C899 C900 1.524 . S
C899 C903 1.400 . S
C900 H885 0.960 . S
C900 H886 0.960 . S
C900 H887 0.960 . S
C900 C899 1.524 . S
C901 C898 1.403 . S
C901 C902 1.392 . S
C901 C905 1.495 . S
C902 C901 1.392 . S
C902 C903 1.385 . S
C902 C904 1.478 . S
C903 H897 0.930 . S
C903 C899 1.400 . S
C903 C902 1.385 . S
C904 C902 1.478 . S
C904 C906 1.381 . S
C904 C910 1.383 . S
C905 C901 1.495 . S
C905 H911 0.959 . S
C905 H912 0.961 . S
C905 H913 0.960 . S
C906 C904 1.381 . S
C906 C907 1.394 . S
C906 H914 0.930 . S
C907 C906 1.394 . S
C907 C908 1.383 . S
C907 H915 0.929 . S
C908 C907 1.383 . S
C908 C909 1.377 . S
C909 H893 0.930 . S
C909 C908 1.377 . S
C909 C910 1.379 . S
C910 H894 0.931 . S
C910 C904 1.383 . S
C910 C909 1.379 . S
H911 C905 0.959 . S
H912 C905 0.961 . S
H913 C905 0.960 . S
H914 C906 0.930 . S
H915 C907 0.929 . S
H916 C924 0.929 . S
H917 C926 0.930 . S
H918 C928 0.930 1_556 S
H919 C931 0.929 . S
H920 C934 0.930 . S
H921 C936 0.960 . S
H922 C936 0.960 . S
H923 C936 0.960 . S
C924 H916 0.929 . S
C924 C925 1.377 . S
C924 C926 1.384 . S
C925 C924 1.377 . S
C925 C931 1.390 . S
C926 H917 0.930 . S
C926 C924 1.384 . S
C926 C927 1.372 . S
C927 C926 1.372 . S
C927 C928 1.400 . S
C927 C932 1.490 . S
C928 H918 0.930 1_554 S
C928 C927 1.400 . S
C928 C931 1.386 . S
H929 C945 0.930 . S
H930 C946 0.931 . S
C931 H919 0.929 . S
C931 C925 1.390 . S
C931 C928 1.386 . S
C932 C927 1.490 . S
C932 C934 1.395 . S
C932 C935 1.403 . S
H933 C939 0.930 . S
C934 H920 0.930 . S
C934 C932 1.395 . S
C934 C937 1.403 1_554 S
C935 C932 1.403 . S
C935 C936 1.524 . S
C935 C939 1.400 1_554 S
C936 H921 0.960 . S
C936 H922 0.960 . S
C936 H923 0.960 . S
C936 C935 1.524 . S
C937 C934 1.403 1_556 S
C937 C938 1.392 . S
C937 C941 1.495 . S
C938 C937 1.392 . S
C938 C939 1.385 . S
C938 C940 1.478 . S
C939 H933 0.930 . S
C939 C935 1.400 1_556 S
C939 C938 1.385 . S
C940 C938 1.478 . S
C940 C942 1.381 . S
C940 C946 1.383 . S
C941 C937 1.495 . S
C941 H947 0.959 . S
C941 H948 0.961 . S
C941 H949 0.960 . S
C942 C940 1.381 . S
C942 C943 1.394 . S
C942 H950 0.930 1_556 S
C943 C942 1.394 . S
C943 C944 1.383 . S
C943 H951 0.929 . S
C944 C943 1.383 . S
C944 C945 1.377 . S
C945 H929 0.930 . S
C945 C944 1.377 . S
C945 C946 1.379 . S
C946 H930 0.931 . S
C946 C940 1.383 . S
C946 C945 1.379 . S
H947 C941 0.959 . S
H948 C941 0.961 . S
H949 C941 0.960 . S
H950 C942 0.930 1_554 S
H951 C943 0.929 . S
H952 C960 0.929 . S
H953 C962 0.930 . S
H954 C964 0.930 . S
H955 C967 0.929 . S
H956 C970 0.930 . S
H957 C972 0.960 . S
H958 C972 0.960 . S
H959 C972 0.960 . S
C960 H952 0.929 . S
C960 C961 1.377 . S
C960 C962 1.384 . S
C961 C960 1.377 . S
C961 C967 1.390 . S
C962 H953 0.930 . S
C962 C960 1.384 . S
C962 C963 1.372 . S
C963 C962 1.372 . S
C963 C964 1.400 . S
C963 C968 1.490 . S
C964 H954 0.930 . S
C964 C963 1.400 . S
C964 C967 1.386 . S
H965 C981 0.930 . S
H966 C982 0.931 . S
C967 H955 0.929 . S
C967 C961 1.390 . S
C967 C964 1.386 . S
C968 C963 1.490 . S
C968 C970 1.395 . S
C968 C971 1.403 . S
H969 C975 0.930 . S
C970 H956 0.930 . S
C970 C968 1.395 . S
C970 C973 1.403 . S
C971 C968 1.403 . S
C971 C972 1.524 . S
C971 C975 1.400 . S
C972 H957 0.960 . S
C972 H958 0.960 . S
C972 H959 0.960 . S
C972 C971 1.524 . S
C973 C970 1.403 . S
C973 C974 1.392 . S
C973 C977 1.495 . S
C974 C973 1.392 . S
C974 C975 1.385 . S
C974 C976 1.478 . S
C975 H969 0.930 . S
C975 C971 1.400 . S
C975 C974 1.385 . S
C976 C974 1.478 . S
C976 C978 1.381 . S
C976 C982 1.383 . S
C977 C973 1.495 . S
C977 H983 0.959 . S
C977 H984 0.961 . S
C977 H985 0.960 . S
C978 C976 1.381 . S
C978 C979 1.394 . S
C978 H986 0.930 . S
C979 C978 1.394 . S
C979 C980 1.383 . S
C979 H987 0.929 . S
C980 C979 1.383 . S
C980 C981 1.377 . S
C981 H965 0.930 . S
C981 C980 1.377 . S
C981 C982 1.379 . S
C982 H966 0.931 . S
C982 C976 1.383 . S
C982 C981 1.379 . S
H983 C977 0.959 . S
H984 C977 0.961 . S
H985 C977 0.960 . S
H986 C978 0.930 . S
H987 C979 0.929 . S
H988 C996 0.929 . S
H989 C998 0.930 . S
H990 C1000 0.930 . S
H991 C1003 0.929 . S
H992 C1006 0.930 . S
H993 C1008 0.960 . S
H994 C1008 0.960 . S
H995 C1008 0.960 . S
C996 H988 0.929 . S
C996 C997 1.377 . S
C996 C998 1.384 . S
C997 C996 1.377 . S
C997 C1003 1.390 . S
C998 H989 0.930 . S
C998 C996 1.384 . S
C998 C999 1.372 . S
C999 C998 1.372 . S
C999 C1000 1.400 . S
C999 C1004 1.490 . S
C1000 H990 0.930 . S
C1000 C999 1.400 . S
C1000 C1003 1.386 . S
H1001 C1017 0.930 . S
H1002 C1018 0.931 . S
C1003 H991 0.929 . S
C1003 C997 1.390 . S
C1003 C1000 1.386 . S
C1004 C999 1.490 . S
C1004 C1006 1.395 . S
C1004 C1007 1.403 . S
H1005 C1011 0.930 . S
C1006 H992 0.930 . S
C1006 C1004 1.395 . S
C1006 C1009 1.403 . S
C1007 C1004 1.403 . S
C1007 C1008 1.524 . S
C1007 C1011 1.400 . S
C1008 H993 0.960 . S
C1008 H994 0.960 . S
C1008 H995 0.960 . S
C1008 C1007 1.524 . S
C1009 C1006 1.403 . S
C1009 C1010 1.392 . S
C1009 C1013 1.495 . S
C1010 C1009 1.392 . S
C1010 C1011 1.385 . S
C1010 C1012 1.478 . S
C1011 H1005 0.930 . S
C1011 C1007 1.400 . S
C1011 C1010 1.385 . S
C1012 C1010 1.478 . S
C1012 C1014 1.381 . S
C1012 C1018 1.383 . S
C1013 C1009 1.495 . S
C1013 H1019 0.959 . S
C1013 H1020 0.961 . S
C1013 H1021 0.960 . S
C1014 C1012 1.381 . S
C1014 C1015 1.394 . S
C1014 H1022 0.930 . S
C1015 C1014 1.394 . S
C1015 C1016 1.383 . S
C1015 H1023 0.929 . S
C1016 C1015 1.383 . S
C1016 C1017 1.377 . S
C1017 H1001 0.930 . S
C1017 C1016 1.377 . S
C1017 C1018 1.379 . S
C1018 H1002 0.931 . S
C1018 C1012 1.383 . S
C1018 C1017 1.379 . S
H1019 C1013 0.959 . S
H1020 C1013 0.961 . S
H1021 C1013 0.960 . S
H1022 C1014 0.930 . S
H1023 C1015 0.929 . S
H1024 C1032 0.929 . S
H1025 C1034 0.930 . S
H1026 C1036 0.930 . S
H1027 C1039 0.929 . S
H1028 C1042 0.930 . S
H1029 C1044 0.960 . S
H1030 C1044 0.960 . S
H1031 C1044 0.960 . S
C1032 H1024 0.929 . S
C1032 C1033 1.377 . S
C1032 C1034 1.384 1_554 S
C1033 C1032 1.377 . S
C1033 C1039 1.390 1_554 S
C1034 H1025 0.930 . S
C1034 C1032 1.384 1_556 S
C1034 C1035 1.372 . S
C1035 C1034 1.372 . S
C1035 C1036 1.400 . S
C1035 C1040 1.490 . S
C1036 H1026 0.930 . S
C1036 C1035 1.400 . S
C1036 C1039 1.386 . S
H1037 C1053 0.930 . S
H1038 C1054 0.931 . S
C1039 H1027 0.929 . S
C1039 C1033 1.390 1_556 S
C1039 C1036 1.386 . S
C1040 C1035 1.490 . S
C1040 C1042 1.395 . S
C1040 C1043 1.403 . S
H1041 C1047 0.930 . S
C1042 H1028 0.930 . S
C1042 C1040 1.395 . S
C1042 C1045 1.403 . S
C1043 C1040 1.403 . S
C1043 C1044 1.524 . S
C1043 C1047 1.400 . S
C1044 H1029 0.960 . S
C1044 H1030 0.960 . S
C1044 H1031 0.960 . S
C1044 C1043 1.524 . S
C1045 C1042 1.403 . S
C1045 C1046 1.392 . S
C1045 C1049 1.495 . S
C1046 C1045 1.392 . S
C1046 C1047 1.385 . S
C1046 C1048 1.478 . S
C1047 H1041 0.930 . S
C1047 C1043 1.400 . S
C1047 C1046 1.385 . S
C1048 C1046 1.478 . S
C1048 C1050 1.381 . S
C1048 C1054 1.383 . S
C1049 C1045 1.495 . S
C1049 H1055 0.959 . S
C1049 H1056 0.961 . S
C1049 H1057 0.960 . S
C1050 C1048 1.381 . S
C1050 C1051 1.394 . S
C1050 H1058 0.930 . S
C1051 C1050 1.394 . S
C1051 C1052 1.383 . S
C1051 H1059 0.929 . S
C1052 C1051 1.383 . S
C1052 C1053 1.377 . S
C1053 H1037 0.930 . S
C1053 C1052 1.377 . S
C1053 C1054 1.379 . S
C1054 H1038 0.931 . S
C1054 C1048 1.383 . S
C1054 C1053 1.379 . S
H1055 C1049 0.959 . S
H1056 C1049 0.961 . S
H1057 C1049 0.960 . S
H1058 C1050 0.930 . S
H1059 C1051 0.929 . S
H1060 C1068 0.929 . S
H1061 C1070 0.930 . S
H1062 C1072 0.930 . S
H1063 C1075 0.929 . S
H1064 C1078 0.930 . S
H1065 C1080 0.960 . S
H1066 C1080 0.960 . S
H1067 C1080 0.960 . S
C1068 H1060 0.929 . S
C1068 C1069 1.377 . S
C1068 C1070 1.384 1_556 S
C1069 C1068 1.377 . S
C1069 C1075 1.390 1_556 S
C1070 H1061 0.930 . S
C1070 C1068 1.384 1_554 S
C1070 C1071 1.372 . S
C1071 C1070 1.372 . S
C1071 C1072 1.400 . S
C1071 C1076 1.490 . S
C1072 H1062 0.930 . S
C1072 C1071 1.400 . S
C1072 C1075 1.386 . S
H1073 C1089 0.930 . S
H1074 C1090 0.931 . S
C1075 H1063 0.929 . S
C1075 C1069 1.390 1_554 S
C1075 C1072 1.386 . S
C1076 C1071 1.490 . S
C1076 C1078 1.395 . S
C1076 C1079 1.403 . S
H1077 C1083 0.930 . S
C1078 H1064 0.930 . S
C1078 C1076 1.395 . S
C1078 C1081 1.403 . S
C1079 C1076 1.403 . S
C1079 C1080 1.524 . S
C1079 C1083 1.400 . S
C1080 H1065 0.960 . S
C1080 H1066 0.960 . S
C1080 H1067 0.960 . S
C1080 C1079 1.524 . S
C1081 C1078 1.403 . S
C1081 C1082 1.392 . S
C1081 C1085 1.495 . S
C1082 C1081 1.392 . S
C1082 C1083 1.385 . S
C1082 C1084 1.478 . S
C1083 H1077 0.930 . S
C1083 C1079 1.400 . S
C1083 C1082 1.385 . S
C1084 C1082 1.478 . S
C1084 C1086 1.381 . S
C1084 C1090 1.383 . S
C1085 C1081 1.495 . S
C1085 H1091 0.959 . S
C1085 H1092 0.961 . S
C1085 H1093 0.960 . S
C1086 C1084 1.381 . S
C1086 C1087 1.394 . S
C1086 H1094 0.930 . S
C1087 C1086 1.394 . S
C1087 C1088 1.383 . S
C1087 H1095 0.929 . S
C1088 C1087 1.383 . S
C1088 C1089 1.377 . S
C1089 H1073 0.930 . S
C1089 C1088 1.377 . S
C1089 C1090 1.379 . S
C1090 H1074 0.931 . S
C1090 C1084 1.383 . S
C1090 C1089 1.379 . S
H1091 C1085 0.959 . S
H1092 C1085 0.961 . S
H1093 C1085 0.960 . S
H1094 C1086 0.930 . S
H1095 C1087 0.929 . S
H1096 C1104 0.929 . S
H1097 C1106 0.930 . S
H1098 C1108 0.930 . S
H1099 C1111 0.929 . S
H1100 C1114 0.930 . S
H1101 C1116 0.960 . S
H1102 C1116 0.960 . S
H1103 C1116 0.960 . S
C1104 H1096 0.929 . S
C1104 C1105 1.377 . S
C1104 C1106 1.384 . S
C1105 C1104 1.377 . S
C1105 C1111 1.390 . S
C1106 H1097 0.930 . S
C1106 C1104 1.384 . S
C1106 C1107 1.372 . S
C1107 C1106 1.372 . S
C1107 C1108 1.400 . S
C1107 C1112 1.490 . S
C1108 H1098 0.930 . S
C1108 C1107 1.400 . S
C1108 C1111 1.386 . S
H1109 C1125 0.930 . S
H1110 C1126 0.931 . S
C1111 H1099 0.929 . S
C1111 C1105 1.390 . S
C1111 C1108 1.386 . S
C1112 C1107 1.490 . S
C1112 C1114 1.395 . S
C1112 C1115 1.403 . S
H1113 C1119 0.930 . S
C1114 H1100 0.930 . S
C1114 C1112 1.395 . S
C1114 C1117 1.403 . S
C1115 C1112 1.403 . S
C1115 C1116 1.524 . S
C1115 C1119 1.400 . S
C1116 H1101 0.960 . S
C1116 H1102 0.960 . S
C1116 H1103 0.960 . S
C1116 C1115 1.524 . S
C1117 C1114 1.403 . S
C1117 C1118 1.392 . S
C1117 C1121 1.495 . S
C1118 C1117 1.392 . S
C1118 C1119 1.385 . S
C1118 C1120 1.478 . S
C1119 H1113 0.930 . S
C1119 C1115 1.400 . S
C1119 C1118 1.385 . S
C1120 C1118 1.478 . S
C1120 C1122 1.381 . S
C1120 C1126 1.383 . S
C1121 C1117 1.495 . S
C1121 H1127 0.959 . S
C1121 H1128 0.961 . S
C1121 H1129 0.960 . S
C1122 C1120 1.381 . S
C1122 C1123 1.394 . S
C1122 H1130 0.930 . S
C1123 C1122 1.394 . S
C1123 C1124 1.383 . S
C1123 H1131 0.929 . S
C1124 C1123 1.383 . S
C1124 C1125 1.377 . S
C1125 H1109 0.930 . S
C1125 C1124 1.377 . S
C1125 C1126 1.379 . S
C1126 H1110 0.931 . S
C1126 C1120 1.383 . S
C1126 C1125 1.379 . S
H1127 C1121 0.959 . S
H1128 C1121 0.961 . S
H1129 C1121 0.960 . S
H1130 C1122 0.930 . S
H1131 C1123 0.929 . S
H1132 C1140 0.929 . S
H1133 C1142 0.930 . S
H1134 C1144 0.930 . S
H1135 C1147 0.929 . S
H1136 C1150 0.930 . S
H1137 C1152 0.960 . S
H1138 C1152 0.960 . S
H1139 C1152 0.960 . S
C1140 H1132 0.929 . S
C1140 C1141 1.377 . S
C1140 C1142 1.384 . S
C1141 C1140 1.377 . S
C1141 C1147 1.390 . S
C1142 H1133 0.930 . S
C1142 C1140 1.384 . S
C1142 C1143 1.372 . S
C1143 C1142 1.372 . S
C1143 C1144 1.400 . S
C1143 C1148 1.490 . S
C1144 H1134 0.930 . S
C1144 C1143 1.400 . S
C1144 C1147 1.386 . S
H1145 C1161 0.930 . S
H1146 C1162 0.931 . S
C1147 H1135 0.929 . S
C1147 C1141 1.390 . S
C1147 C1144 1.386 . S
C1148 C1143 1.490 . S
C1148 C1150 1.395 . S
C1148 C1151 1.403 . S
H1149 C1155 0.930 . S
C1150 H1136 0.930 . S
C1150 C1148 1.395 . S
C1150 C1153 1.403 . S
C1151 C1148 1.403 . S
C1151 C1152 1.524 . S
C1151 C1155 1.400 . S
C1152 H1137 0.960 . S
C1152 H1138 0.960 . S
C1152 H1139 0.960 . S
C1152 C1151 1.524 . S
C1153 C1150 1.403 . S
C1153 C1154 1.392 . S
C1153 C1157 1.495 . S
C1154 C1153 1.392 . S
C1154 C1155 1.385 . S
C1154 C1156 1.478 . S
C1155 H1149 0.930 . S
C1155 C1151 1.400 . S
C1155 C1154 1.385 . S
C1156 C1154 1.478 . S
C1156 C1158 1.381 . S
C1156 C1162 1.383 . S
C1157 C1153 1.495 . S
C1157 H1163 0.959 . S
C1157 H1164 0.961 . S
C1157 H1165 0.960 . S
C1158 C1156 1.381 . S
C1158 C1159 1.394 . S
C1158 H1166 0.930 . S
C1159 C1158 1.394 . S
C1159 C1160 1.383 . S
C1159 H1167 0.929 . S
C1160 C1159 1.383 . S
C1160 C1161 1.377 . S
C1161 H1145 0.930 . S
C1161 C1160 1.377 . S
C1161 C1162 1.379 . S
C1162 H1146 0.931 . S
C1162 C1156 1.383 . S
C1162 C1161 1.379 . S
H1163 C1157 0.959 . S
H1164 C1157 0.961 . S
H1165 C1157 0.960 . S
H1166 C1158 0.930 . S
H1167 C1159 0.929 . S
H1168 C1176 0.929 . S
H1169 C1178 0.930 . S
H1170 C1180 0.930 . S
H1171 C1183 0.929 . S
H1172 C1186 0.930 . S
H1173 C1188 0.960 . S
H1174 C1188 0.960 . S
H1175 C1188 0.960 . S
C1176 H1168 0.929 . S
C1176 C1177 1.377 1_554 S
C1176 C1178 1.384 . S
C1177 C1176 1.377 1_556 S
C1177 C1183 1.390 . S
C1178 H1169 0.930 . S
C1178 C1176 1.384 . S
C1178 C1179 1.372 . S
C1179 C1178 1.372 . S
C1179 C1180 1.400 . S
C1179 C1184 1.490 . S
C1180 H1170 0.930 . S
C1180 C1179 1.400 . S
C1180 C1183 1.386 1_554 S
H1181 C1197 0.930 . S
H1182 C1198 0.931 . S
C1183 H1171 0.929 . S
C1183 C1177 1.390 . S
C1183 C1180 1.386 1_556 S
C1184 C1179 1.490 . S
C1184 C1186 1.395 . S
C1184 C1187 1.403 . S
H1185 C1191 0.930 . S
C1186 H1172 0.930 . S
C1186 C1184 1.395 . S
C1186 C1189 1.403 . S
C1187 C1184 1.403 . S
C1187 C1188 1.524 . S
C1187 C1191 1.400 . S
C1188 H1173 0.960 . S
C1188 H1174 0.960 . S
C1188 H1175 0.960 . S
C1188 C1187 1.524 . S
C1189 C1186 1.403 . S
C1189 C1190 1.392 . S
C1189 C1193 1.495 . S
C1190 C1189 1.392 . S
C1190 C1191 1.385 . S
C1190 C1192 1.478 . S
C1191 H1185 0.930 . S
C1191 C1187 1.400 . S
C1191 C1190 1.385 . S
C1192 C1190 1.478 . S
C1192 C1194 1.381 . S
C1192 C1198 1.383 . S
C1193 C1189 1.495 . S
C1193 H1199 0.959 . S
C1193 H1200 0.961 . S
C1193 H1201 0.960 . S
C1194 C1192 1.381 . S
C1194 C1195 1.394 . S
C1194 H1202 0.930 . S
C1195 C1194 1.394 . S
C1195 C1196 1.383 . S
C1195 H1203 0.929 . S
C1196 C1195 1.383 . S
C1196 C1197 1.377 . S
C1197 H1181 0.930 . S
C1197 C1196 1.377 . S
C1197 C1198 1.379 . S
C1198 H1182 0.931 . S
C1198 C1192 1.383 . S
C1198 C1197 1.379 . S
H1199 C1193 0.959 . S
H1200 C1193 0.961 . S
H1201 C1193 0.960 . S
H1202 C1194 0.930 . S
H1203 C1195 0.929 . S
H1204 C1212 0.929 . S
H1205 C1214 0.930 . S
H1206 C1216 0.930 . S
H1207 C1219 0.929 . S
H1208 C1222 0.930 . S
H1209 C1224 0.960 . S
H1210 C1224 0.960 . S
H1211 C1224 0.960 . S
C1212 H1204 0.929 . S
C1212 C1213 1.377 1_556 S
C1212 C1214 1.384 . S
C1213 C1212 1.377 1_554 S
C1213 C1219 1.390 . S
C1214 H1205 0.930 . S
C1214 C1212 1.384 . S
C1214 C1215 1.372 . S
C1215 C1214 1.372 . S
C1215 C1216 1.400 . S
C1215 C1220 1.490 . S
C1216 H1206 0.930 . S
C1216 C1215 1.400 . S
C1216 C1219 1.386 1_556 S
H1217 C1233 0.930 . S
H1218 C1234 0.931 . S
C1219 H1207 0.929 . S
C1219 C1213 1.390 . S
C1219 C1216 1.386 1_554 S
C1220 C1215 1.490 . S
C1220 C1222 1.395 . S
C1220 C1223 1.403 . S
H1221 C1227 0.930 . S
C1222 H1208 0.930 . S
C1222 C1220 1.395 . S
C1222 C1225 1.403 . S
C1223 C1220 1.403 . S
C1223 C1224 1.524 . S
C1223 C1227 1.400 . S
C1224 H1209 0.960 . S
C1224 H1210 0.960 . S
C1224 H1211 0.960 . S
C1224 C1223 1.524 . S
C1225 C1222 1.403 . S
C1225 C1226 1.392 . S
C1225 C1229 1.495 . S
C1226 C1225 1.392 . S
C1226 C1227 1.385 . S
C1226 C1228 1.478 . S
C1227 H1221 0.930 . S
C1227 C1223 1.400 . S
C1227 C1226 1.385 . S
C1228 C1226 1.478 . S
C1228 C1230 1.381 . S
C1228 C1234 1.383 . S
C1229 C1225 1.495 . S
C1229 H1235 0.959 . S
C1229 H1236 0.961 . S
C1229 H1237 0.960 . S
C1230 C1228 1.381 . S
C1230 C1231 1.394 . S
C1230 H1238 0.930 . S
C1231 C1230 1.394 . S
C1231 C1232 1.383 . S
C1231 H1239 0.929 . S
C1232 C1231 1.383 . S
C1232 C1233 1.377 . S
C1233 H1217 0.930 . S
C1233 C1232 1.377 . S
C1233 C1234 1.379 . S
C1234 H1218 0.931 . S
C1234 C1228 1.383 . S
C1234 C1233 1.379 . S
H1235 C1229 0.959 . S
H1236 C1229 0.961 . S
H1237 C1229 0.960 . S
H1238 C1230 0.930 . S
H1239 C1231 0.929 . S
H1240 C1248 0.929 . S
H1241 C1250 0.930 . S
H1242 C1252 0.930 . S
H1243 C1255 0.929 . S
H1244 C1258 0.930 . S
H1245 C1260 0.960 . S
H1246 C1260 0.960 . S
H1247 C1260 0.960 . S
C1248 H1240 0.929 . S
C1248 C1249 1.377 . S
C1248 C1250 1.384 . S
C1249 C1248 1.377 . S
C1249 C1255 1.390 . S
C1250 H1241 0.930 . S
C1250 C1248 1.384 . S
C1250 C1251 1.372 . S
C1251 C1250 1.372 . S
C1251 C1252 1.400 . S
C1251 C1256 1.490 . S
C1252 H1242 0.930 . S
C1252 C1251 1.400 . S
C1252 C1255 1.386 . S
H1253 C1269 0.930 . S
H1254 C1270 0.931 . S
C1255 H1243 0.929 . S
C1255 C1249 1.390 . S
C1255 C1252 1.386 . S
C1256 C1251 1.490 . S
C1256 C1258 1.395 . S
C1256 C1259 1.403 . S
H1257 C1263 0.930 . S
C1258 H1244 0.930 . S
C1258 C1256 1.395 . S
C1258 C1261 1.403 . S
C1259 C1256 1.403 . S
C1259 C1260 1.524 . S
C1259 C1263 1.400 . S
C1260 H1245 0.960 . S
C1260 H1246 0.960 . S
C1260 H1247 0.960 . S
C1260 C1259 1.524 . S
C1261 C1258 1.403 . S
C1261 C1262 1.392 . S
C1261 C1265 1.495 . S
C1262 C1261 1.392 . S
C1262 C1263 1.385 . S
C1262 C1264 1.478 . S
C1263 H1257 0.930 . S
C1263 C1259 1.400 . S
C1263 C1262 1.385 . S
C1264 C1262 1.478 . S
C1264 C1266 1.381 . S
C1264 C1270 1.383 . S
C1265 C1261 1.495 . S
C1265 H1271 0.959 . S
C1265 H1272 0.961 . S
C1265 H1273 0.960 . S
C1266 C1264 1.381 . S
C1266 C1267 1.394 . S
C1266 H1274 0.930 . S
C1267 C1266 1.394 . S
C1267 C1268 1.383 . S
C1267 H1275 0.929 . S
C1268 C1267 1.383 . S
C1268 C1269 1.377 . S
C1269 H1253 0.930 . S
C1269 C1268 1.377 . S
C1269 C1270 1.379 . S
C1270 H1254 0.931 . S
C1270 C1264 1.383 . S
C1270 C1269 1.379 . S
H1271 C1265 0.959 . S
H1272 C1265 0.961 . S
H1273 C1265 0.960 . S
H1274 C1266 0.930 . S
H1275 C1267 0.929 . S
H1276 C1284 0.929 . S
H1277 C1286 0.930 . S
H1278 C1288 0.930 . S
H1279 C1291 0.929 . S
H1280 C1294 0.930 . S
H1281 C1296 0.960 . S
H1282 C1296 0.960 . S
H1283 C1296 0.960 . S
C1284 H1276 0.929 . S
C1284 C1285 1.377 . S
C1284 C1286 1.384 . S
C1285 C1284 1.377 . S
C1285 C1291 1.390 . S
C1286 H1277 0.930 . S
C1286 C1284 1.384 . S
C1286 C1287 1.372 . S
C1287 C1286 1.372 . S
C1287 C1288 1.400 . S
C1287 C1292 1.490 . S
C1288 H1278 0.930 . S
C1288 C1287 1.400 . S
C1288 C1291 1.386 . S
H1289 C1305 0.930 . S
H1290 C1306 0.931 . S
C1291 H1279 0.929 . S
C1291 C1285 1.390 . S
C1291 C1288 1.386 . S
C1292 C1287 1.490 . S
C1292 C1294 1.395 . S
C1292 C1295 1.403 . S
H1293 C1299 0.930 . S
C1294 H1280 0.930 . S
C1294 C1292 1.395 . S
C1294 C1297 1.403 . S
C1295 C1292 1.403 . S
C1295 C1296 1.524 . S
C1295 C1299 1.400 . S
C1296 H1281 0.960 . S
C1296 H1282 0.960 . S
C1296 H1283 0.960 . S
C1296 C1295 1.524 . S
C1297 C1294 1.403 . S
C1297 C1298 1.392 . S
C1297 C1301 1.495 . S
C1298 C1297 1.392 . S
C1298 C1299 1.385 . S
C1298 C1300 1.478 . S
C1299 H1293 0.930 . S
C1299 C1295 1.400 . S
C1299 C1298 1.385 . S
C1300 C1298 1.478 . S
C1300 C1302 1.381 . S
C1300 C1306 1.383 . S
C1301 C1297 1.495 . S
C1301 H1307 0.959 . S
C1301 H1308 0.961 . S
C1301 H1309 0.960 . S
C1302 C1300 1.381 . S
C1302 C1303 1.394 . S
C1302 H1310 0.930 . S
C1303 C1302 1.394 . S
C1303 C1304 1.383 . S
C1303 H1311 0.929 . S
C1304 C1303 1.383 . S
C1304 C1305 1.377 . S
C1305 H1289 0.930 . S
C1305 C1304 1.377 . S
C1305 C1306 1.379 . S
C1306 H1290 0.931 . S
C1306 C1300 1.383 . S
C1306 C1305 1.379 . S
H1307 C1301 0.959 . S
H1308 C1301 0.961 . S
H1309 C1301 0.960 . S
H1310 C1302 0.930 . S
H1311 C1303 0.929 . S
H1312 C1320 0.929 . S
H1313 C1322 0.930 . S
H1314 C1324 0.930 . S
H1315 C1327 0.929 . S
H1316 C1330 0.930 . S
H1317 C1332 0.960 . S
H1318 C1332 0.960 . S
H1319 C1332 0.960 . S
C1320 H1312 0.929 . S
C1320 C1321 1.377 . S
C1320 C1322 1.384 . S
C1321 C1320 1.377 . S
C1321 C1327 1.390 . S
C1322 H1313 0.930 . S
C1322 C1320 1.384 . S
C1322 C1323 1.372 . S
C1323 C1322 1.372 . S
C1323 C1324 1.400 . S
C1323 C1328 1.490 . S
C1324 H1314 0.930 . S
C1324 C1323 1.400 . S
C1324 C1327 1.386 . S
H1325 C1341 0.930 . S
H1326 C1342 0.931 . S
C1327 H1315 0.929 . S
C1327 C1321 1.390 . S
C1327 C1324 1.386 . S
C1328 C1323 1.490 . S
C1328 C1330 1.395 . S
C1328 C1331 1.403 . S
H1329 C1335 0.930 . S
C1330 H1316 0.930 . S
C1330 C1328 1.395 . S
C1330 C1333 1.403 . S
C1331 C1328 1.403 . S
C1331 C1332 1.524 . S
C1331 C1335 1.400 . S
C1332 H1317 0.960 . S
C1332 H1318 0.960 . S
C1332 H1319 0.960 . S
C1332 C1331 1.524 . S
C1333 C1330 1.403 . S
C1333 C1334 1.392 . S
C1333 C1337 1.495 . S
C1334 C1333 1.392 . S
C1334 C1335 1.385 . S
C1334 C1336 1.478 . S
C1335 H1329 0.930 . S
C1335 C1331 1.400 . S
C1335 C1334 1.385 . S
C1336 C1334 1.478 . S
C1336 C1338 1.381 . S
C1336 C1342 1.383 . S
C1337 C1333 1.495 . S
C1337 H1343 0.959 . S
C1337 H1344 0.961 . S
C1337 H1345 0.960 . S
C1338 C1336 1.381 . S
C1338 C1339 1.394 . S
C1338 H1346 0.930 . S
C1339 C1338 1.394 . S
C1339 C1340 1.383 . S
C1339 H1347 0.929 . S
C1340 C1339 1.383 . S
C1340 C1341 1.377 . S
C1341 H1325 0.930 . S
C1341 C1340 1.377 . S
C1341 C1342 1.379 . S
C1342 H1326 0.931 . S
C1342 C1336 1.383 . S
C1342 C1341 1.379 . S
H1343 C1337 0.959 . S
H1344 C1337 0.961 . S
H1345 C1337 0.960 . S
H1346 C1338 0.930 . S
H1347 C1339 0.929 . S
H1348 C1356 0.929 . S
H1349 C1358 0.930 . S
H1350 C1360 0.930 . S
H1351 C1363 0.929 . S
H1352 C1366 0.930 . S
H1353 C1368 0.960 . S
H1354 C1368 0.960 . S
H1355 C1368 0.960 . S
C1356 H1348 0.929 . S
C1356 C1357 1.377 . S
C1356 C1358 1.384 . S
C1357 C1356 1.377 . S
C1357 C1363 1.390 . S
C1358 H1349 0.930 . S
C1358 C1356 1.384 . S
C1358 C1359 1.372 . S
C1359 C1358 1.372 . S
C1359 C1360 1.400 . S
C1359 C1364 1.490 . S
C1360 H1350 0.930 . S
C1360 C1359 1.400 . S
C1360 C1363 1.386 . S
H1361 C1377 0.930 . S
H1362 C1378 0.931 . S
C1363 H1351 0.929 . S
C1363 C1357 1.390 . S
C1363 C1360 1.386 . S
C1364 C1359 1.490 . S
C1364 C1366 1.395 . S
C1364 C1367 1.403 . S
H1365 C1371 0.930 . S
C1366 H1352 0.930 . S
C1366 C1364 1.395 . S
C1366 C1369 1.403 . S
C1367 C1364 1.403 . S
C1367 C1368 1.524 . S
C1367 C1371 1.400 . S
C1368 H1353 0.960 . S
C1368 H1354 0.960 . S
C1368 H1355 0.960 . S
C1368 C1367 1.524 . S
C1369 C1366 1.403 . S
C1369 C1370 1.392 . S
C1369 C1373 1.495 . S
C1370 C1369 1.392 . S
C1370 C1371 1.385 . S
C1370 C1372 1.478 . S
C1371 H1365 0.930 . S
C1371 C1367 1.400 . S
C1371 C1370 1.385 . S
C1372 C1370 1.478 . S
C1372 C1374 1.381 . S
C1372 C1378 1.383 . S
C1373 C1369 1.495 . S
C1373 H1379 0.959 . S
C1373 H1380 0.961 . S
C1373 H1381 0.960 . S
C1374 C1372 1.381 . S
C1374 C1375 1.394 . S
C1374 H1382 0.930 . S
C1375 C1374 1.394 . S
C1375 C1376 1.383 . S
C1375 H1383 0.929 . S
C1376 C1375 1.383 . S
C1376 C1377 1.377 . S
C1377 H1361 0.930 . S
C1377 C1376 1.377 . S
C1377 C1378 1.379 . S
C1378 H1362 0.931 . S
C1378 C1372 1.383 . S
C1378 C1377 1.379 . S
H1379 C1373 0.959 . S
H1380 C1373 0.961 . S
H1381 C1373 0.960 . S
H1382 C1374 0.930 . S
H1383 C1375 0.929 . S
H1384 C1392 0.929 . S
H1385 C1394 0.930 . S
H1386 C1396 0.930 . S
H1387 C1399 0.929 . S
H1388 C1402 0.930 . S
H1389 C1404 0.960 . S
H1390 C1404 0.960 . S
H1391 C1404 0.960 . S
C1392 H1384 0.929 . S
C1392 C1393 1.377 . S
C1392 C1394 1.384 . S
C1393 C1392 1.377 . S
C1393 C1399 1.390 . S
C1394 H1385 0.930 . S
C1394 C1392 1.384 . S
C1394 C1395 1.372 . S
C1395 C1394 1.372 . S
C1395 C1396 1.400 . S
C1395 C1400 1.490 . S
C1396 H1386 0.930 . S
C1396 C1395 1.400 . S
C1396 C1399 1.386 . S
H1397 C1413 0.930 . S
H1398 C1414 0.931 . S
C1399 H1387 0.929 . S
C1399 C1393 1.390 . S
C1399 C1396 1.386 . S
C1400 C1395 1.490 . S
C1400 C1402 1.395 . S
C1400 C1403 1.403 . S
H1401 C1407 0.930 . S
C1402 H1388 0.930 . S
C1402 C1400 1.395 . S
C1402 C1405 1.403 . S
C1403 C1400 1.403 . S
C1403 C1404 1.524 . S
C1403 C1407 1.400 . S
C1404 H1389 0.960 . S
C1404 H1390 0.960 . S
C1404 H1391 0.960 . S
C1404 C1403 1.524 . S
C1405 C1402 1.403 . S
C1405 C1406 1.392 . S
C1405 C1409 1.495 . S
C1406 C1405 1.392 . S
C1406 C1407 1.385 . S
C1406 C1408 1.478 . S
C1407 H1401 0.930 . S
C1407 C1403 1.400 . S
C1407 C1406 1.385 . S
C1408 C1406 1.478 . S
C1408 C1410 1.381 . S
C1408 C1414 1.383 . S
C1409 C1405 1.495 . S
C1409 H1415 0.959 . S
C1409 H1416 0.961 . S
C1409 H1417 0.960 . S
C1410 C1408 1.381 . S
C1410 C1411 1.394 . S
C1410 H1418 0.930 . S
C1411 C1410 1.394 . S
C1411 C1412 1.383 1_556 S
C1411 H1419 0.929 . S
C1412 C1411 1.383 1_554 S
C1412 C1413 1.377 . S
C1413 H1397 0.930 . S
C1413 C1412 1.377 . S
C1413 C1414 1.379 1_554 S
C1414 H1398 0.931 . S
C1414 C1408 1.383 . S
C1414 C1413 1.379 1_556 S
H1415 C1409 0.959 . S
H1416 C1409 0.961 . S
H1417 C1409 0.960 . S
H1418 C1410 0.930 . S
H1419 C1411 0.929 . S
H1420 C1428 0.929 . S
H1421 C1430 0.930 . S
H1422 C1432 0.930 . S
H1423 C1435 0.929 . S
H1424 C1438 0.930 . S
H1425 C1440 0.960 . S
H1426 C1440 0.960 . S
H1427 C1440 0.960 . S
C1428 H1420 0.929 . S
C1428 C1429 1.377 . S
C1428 C1430 1.384 . S
C1429 C1428 1.377 . S
C1429 C1435 1.390 . S
C1430 H1421 0.930 . S
C1430 C1428 1.384 . S
C1430 C1431 1.372 . S
C1431 C1430 1.372 . S
C1431 C1432 1.400 . S
C1431 C1436 1.490 . S
C1432 H1422 0.930 . S
C1432 C1431 1.400 . S
C1432 C1435 1.386 . S
H1433 C1449 0.930 . S
H1434 C1450 0.931 . S
C1435 H1423 0.929 . S
C1435 C1429 1.390 . S
C1435 C1432 1.386 . S
C1436 C1431 1.490 . S
C1436 C1438 1.395 . S
C1436 C1439 1.403 . S
H1437 C1443 0.930 . S
C1438 H1424 0.930 . S
C1438 C1436 1.395 . S
C1438 C1441 1.403 . S
C1439 C1436 1.403 . S
C1439 C1440 1.524 . S
C1439 C1443 1.400 . S
C1440 H1425 0.960 . S
C1440 H1426 0.960 . S
C1440 H1427 0.960 . S
C1440 C1439 1.524 . S
C1441 C1438 1.403 . S
C1441 C1442 1.392 . S
C1441 C1445 1.495 . S
C1442 C1441 1.392 . S
C1442 C1443 1.385 . S
C1442 C1444 1.478 . S
C1443 H1437 0.930 . S
C1443 C1439 1.400 . S
C1443 C1442 1.385 . S
C1444 C1442 1.478 . S
C1444 C1446 1.381 . S
C1444 C1450 1.383 . S
C1445 C1441 1.495 . S
C1445 H1451 0.959 . S
C1445 H1452 0.961 . S
C1445 H1453 0.960 . S
C1446 C1444 1.381 . S
C1446 C1447 1.394 . S
C1446 H1454 0.930 . S
C1447 C1446 1.394 . S
C1447 C1448 1.383 1_554 S
C1447 H1455 0.929 . S
C1448 C1447 1.383 1_556 S
C1448 C1449 1.377 . S
C1449 H1433 0.930 . S
C1449 C1448 1.377 . S
C1449 C1450 1.379 1_556 S
C1450 H1434 0.931 . S
C1450 C1444 1.383 . S
C1450 C1449 1.379 1_554 S
H1451 C1445 0.959 . S
H1452 C1445 0.961 . S
H1453 C1445 0.960 . S
H1454 C1446 0.930 . S
H1455 C1447 0.929 . S
H1456 C1464 0.929 . S
H1457 C1466 0.930 . S
H1458 C1468 0.930 . S
H1459 C1471 0.929 . S
H1460 C1474 0.930 . S
H1461 C1476 0.960 . S
H1462 C1476 0.960 . S
H1463 C1476 0.960 . S
C1464 H1456 0.929 . S
C1464 C1465 1.377 . S
C1464 C1466 1.384 . S
C1465 C1464 1.377 . S
C1465 C1471 1.390 . S
C1466 H1457 0.930 . S
C1466 C1464 1.384 . S
C1466 C1467 1.372 . S
C1467 C1466 1.372 . S
C1467 C1468 1.400 . S
C1467 C1472 1.490 . S
C1468 H1458 0.930 . S
C1468 C1467 1.400 . S
C1468 C1471 1.386 . S
H1469 C1485 0.930 . S
H1470 C1486 0.931 . S
C1471 H1459 0.929 . S
C1471 C1465 1.390 . S
C1471 C1468 1.386 . S
C1472 C1467 1.490 . S
C1472 C1474 1.395 . S
C1472 C1475 1.403 . S
H1473 C1479 0.930 . S
C1474 H1460 0.930 . S
C1474 C1472 1.395 . S
C1474 C1477 1.403 . S
C1475 C1472 1.403 . S
C1475 C1476 1.524 . S
C1475 C1479 1.400 . S
C1476 H1461 0.960 . S
C1476 H1462 0.960 . S
C1476 H1463 0.960 . S
C1476 C1475 1.524 . S
C1477 C1474 1.403 . S
C1477 C1478 1.392 . S
C1477 C1481 1.495 . S
C1478 C1477 1.392 . S
C1478 C1479 1.385 . S
C1478 C1480 1.478 . S
C1479 H1473 0.930 . S
C1479 C1475 1.400 . S
C1479 C1478 1.385 . S
C1480 C1478 1.478 . S
C1480 C1482 1.381 . S
C1480 C1486 1.383 . S
C1481 C1477 1.495 . S
C1481 H1487 0.959 . S
C1481 H1488 0.961 . S
C1481 H1489 0.960 . S
C1482 C1480 1.381 . S
C1482 C1483 1.394 . S
C1482 H1490 0.930 . S
C1483 C1482 1.394 . S
C1483 C1484 1.383 . S
C1483 H1491 0.929 . S
C1484 C1483 1.383 . S
C1484 C1485 1.377 . S
C1485 H1469 0.930 . S
C1485 C1484 1.377 . S
C1485 C1486 1.379 . S
C1486 H1470 0.931 . S
C1486 C1480 1.383 . S
C1486 C1485 1.379 . S
H1487 C1481 0.959 . S
H1488 C1481 0.961 . S
H1489 C1481 0.960 . S
H1490 C1482 0.930 . S
H1491 C1483 0.929 . S
H1492 C1500 0.929 . S
H1493 C1502 0.930 . S
H1494 C1504 0.930 . S
H1495 C1507 0.929 . S
H1496 C1510 0.930 . S
H1497 C1512 0.960 . S
H1498 C1512 0.960 . S
H1499 C1512 0.960 . S
C1500 H1492 0.929 . S
C1500 C1501 1.377 . S
C1500 C1502 1.384 . S
C1501 C1500 1.377 . S
C1501 C1507 1.390 . S
C1502 H1493 0.930 . S
C1502 C1500 1.384 . S
C1502 C1503 1.372 . S
C1503 C1502 1.372 . S
C1503 C1504 1.400 . S
C1503 C1508 1.490 . S
C1504 H1494 0.930 . S
C1504 C1503 1.400 . S
C1504 C1507 1.386 . S
H1505 C1521 0.930 . S
H1506 C1522 0.931 . S
C1507 H1495 0.929 . S
C1507 C1501 1.390 . S
C1507 C1504 1.386 . S
C1508 C1503 1.490 . S
C1508 C1510 1.395 . S
C1508 C1511 1.403 . S
H1509 C1515 0.930 . S
C1510 H1496 0.930 . S
C1510 C1508 1.395 . S
C1510 C1513 1.403 . S
C1511 C1508 1.403 . S
C1511 C1512 1.524 . S
C1511 C1515 1.400 . S
C1512 H1497 0.960 . S
C1512 H1498 0.960 . S
C1512 H1499 0.960 . S
C1512 C1511 1.524 . S
C1513 C1510 1.403 . S
C1513 C1514 1.392 . S
C1513 C1517 1.495 . S
C1514 C1513 1.392 . S
C1514 C1515 1.385 . S
C1514 C1516 1.478 . S
C1515 H1509 0.930 . S
C1515 C1511 1.400 . S
C1515 C1514 1.385 . S
C1516 C1514 1.478 . S
C1516 C1518 1.381 . S
C1516 C1522 1.383 . S
C1517 C1513 1.495 . S
C1517 H1523 0.959 . S
C1517 H1524 0.961 . S
C1517 H1525 0.960 . S
C1518 C1516 1.381 . S
C1518 C1519 1.394 . S
C1518 H1526 0.930 . S
C1519 C1518 1.394 . S
C1519 C1520 1.383 . S
C1519 H1527 0.929 . S
C1520 C1519 1.383 . S
C1520 C1521 1.377 . S
C1521 H1505 0.930 . S
C1521 C1520 1.377 . S
C1521 C1522 1.379 . S
C1522 H1506 0.931 . S
C1522 C1516 1.383 . S
C1522 C1521 1.379 . S
H1523 C1517 0.959 . S
H1524 C1517 0.961 . S
H1525 C1517 0.960 . S
H1526 C1518 0.930 . S
H1527 C1519 0.929 . S
H1528 C1536 0.929 . S
H1529 C1538 0.930 . S
H1530 C1540 0.930 . S
H1531 C1543 0.929 . S
H1532 C1546 0.930 . S
H1533 C1548 0.960 . S
H1534 C1548 0.960 . S
H1535 C1548 0.960 . S
C1536 H1528 0.929 . S
C1536 C1537 1.377 1_554 S
C1536 C1538 1.384 . S
C1537 C1536 1.377 1_556 S
C1537 C1543 1.390 . S
C1538 H1529 0.930 . S
C1538 C1536 1.384 . S
C1538 C1539 1.372 . S
C1539 C1538 1.372 . S
C1539 C1540 1.400 . S
C1539 C1544 1.490 . S
C1540 H1530 0.930 . S
C1540 C1539 1.400 . S
C1540 C1543 1.386 1_554 S
H1541 C1557 0.930 . S
H1542 C1558 0.931 . S
C1543 H1531 0.929 . S
C1543 C1537 1.390 . S
C1543 C1540 1.386 1_556 S
C1544 C1539 1.490 . S
C1544 C1546 1.395 . S
C1544 C1547 1.403 . S
H1545 C1551 0.930 . S
C1546 H1532 0.930 . S
C1546 C1544 1.395 . S
C1546 C1549 1.403 . S
C1547 C1544 1.403 . S
C1547 C1548 1.524 . S
C1547 C1551 1.400 . S
C1548 H1533 0.960 . S
C1548 H1534 0.960 . S
C1548 H1535 0.960 . S
C1548 C1547 1.524 . S
C1549 C1546 1.403 . S
C1549 C1550 1.392 . S
C1549 C1553 1.495 . S
C1550 C1549 1.392 . S
C1550 C1551 1.385 . S
C1550 C1552 1.478 . S
C1551 H1545 0.930 . S
C1551 C1547 1.400 . S
C1551 C1550 1.385 . S
C1552 C1550 1.478 . S
C1552 C1554 1.381 . S
C1552 C1558 1.383 . S
C1553 C1549 1.495 . S
C1553 H1559 0.959 . S
C1553 H1560 0.961 . S
C1553 H1561 0.960 . S
C1554 C1552 1.381 . S
C1554 C1555 1.394 . S
C1554 H1562 0.930 . S
C1555 C1554 1.394 . S
C1555 C1556 1.383 . S
C1555 H1563 0.929 . S
C1556 C1555 1.383 . S
C1556 C1557 1.377 . S
C1557 H1541 0.930 . S
C1557 C1556 1.377 . S
C1557 C1558 1.379 . S
C1558 H1542 0.931 . S
C1558 C1552 1.383 . S
C1558 C1557 1.379 . S
H1559 C1553 0.959 . S
H1560 C1553 0.961 . S
H1561 C1553 0.960 . S
H1562 C1554 0.930 . S
H1563 C1555 0.929 . S
H1564 C1572 0.929 . S
H1565 C1574 0.930 . S
H1566 C1576 0.930 . S
H1567 C1579 0.929 . S
H1568 C1582 0.930 . S
H1569 C1584 0.960 . S
H1570 C1584 0.960 . S
H1571 C1584 0.960 . S
C1572 H1564 0.929 . S
C1572 C1573 1.377 . S
C1572 C1574 1.384 . S
C1573 C1572 1.377 . S
C1573 C1579 1.390 . S
C1574 H1565 0.930 . S
C1574 C1572 1.384 . S
C1574 C1575 1.372 . S
C1575 C1574 1.372 . S
C1575 C1576 1.400 . S
C1575 C1580 1.490 . S
C1576 H1566 0.930 . S
C1576 C1575 1.400 . S
C1576 C1579 1.386 . S
H1577 C1593 0.930 . S
H1578 C1594 0.931 . S
C1579 H1567 0.929 . S
C1579 C1573 1.390 . S
C1579 C1576 1.386 . S
C1580 C1575 1.490 . S
C1580 C1582 1.395 . S
C1580 C1583 1.403 . S
H1581 C1587 0.930 . S
C1582 H1568 0.930 . S
C1582 C1580 1.395 . S
C1582 C1585 1.403 . S
C1583 C1580 1.403 . S
C1583 C1584 1.524 . S
C1583 C1587 1.400 . S
C1584 H1569 0.960 . S
C1584 H1570 0.960 . S
C1584 H1571 0.960 . S
C1584 C1583 1.524 . S
C1585 C1582 1.403 . S
C1585 C1586 1.392 . S
C1585 C1589 1.495 . S
C1586 C1585 1.392 . S
C1586 C1587 1.385 . S
C1586 C1588 1.478 . S
C1587 H1581 0.930 . S
C1587 C1583 1.400 . S
C1587 C1586 1.385 . S
C1588 C1586 1.478 . S
C1588 C1590 1.381 . S
C1588 C1594 1.383 . S
C1589 C1585 1.495 . S
C1589 H1595 0.959 . S
C1589 H1596 0.961 . S
C1589 H1597 0.960 . S
C1590 C1588 1.381 . S
C1590 C1591 1.394 1_556 S
C1590 H1598 0.930 . S
C1591 C1590 1.394 1_554 S
C1591 C1592 1.383 . S
C1591 H1599 0.929 . S
C1592 C1591 1.383 . S
C1592 C1593 1.377 1_554 S
C1593 H1577 0.930 . S
C1593 C1592 1.377 1_556 S
C1593 C1594 1.379 . S
C1594 H1578 0.931 . S
C1594 C1588 1.383 . S
C1594 C1593 1.379 . S
H1595 C1589 0.959 . S
H1596 C1589 0.961 . S
H1597 C1589 0.960 . S
H1598 C1590 0.930 . S
H1599 C1591 0.929 . S
H1600 C1608 0.929 . S
H1601 C1610 0.930 . S
H1602 C1612 0.930 . S
H1603 C1615 0.929 . S
H1604 C1618 0.930 . S
H1605 C1620 0.960 . S
H1606 C1620 0.960 . S
H1607 C1620 0.960 . S
C1608 H1600 0.929 . S
C1608 C1609 1.377 . S
C1608 C1610 1.384 . S
C1609 C1608 1.377 . S
C1609 C1615 1.390 . S
C1610 H1601 0.930 . S
C1610 C1608 1.384 . S
C1610 C1611 1.372 . S
C1611 C1610 1.372 . S
C1611 C1612 1.400 . S
C1611 C1616 1.490 . S
C1612 H1602 0.930 . S
C1612 C1611 1.400 . S
C1612 C1615 1.386 . S
H1613 C1629 0.930 . S
H1614 C1630 0.931 . S
C1615 H1603 0.929 . S
C1615 C1609 1.390 . S
C1615 C1612 1.386 . S
C1616 C1611 1.490 . S
C1616 C1618 1.395 . S
C1616 C1619 1.403 . S
H1617 C1623 0.930 . S
C1618 H1604 0.930 . S
C1618 C1616 1.395 . S
C1618 C1621 1.403 . S
C1619 C1616 1.403 . S
C1619 C1620 1.524 . S
C1619 C1623 1.400 . S
C1620 H1605 0.960 . S
C1620 H1606 0.960 . S
C1620 H1607 0.960 . S
C1620 C1619 1.524 . S
C1621 C1618 1.403 . S
C1621 C1622 1.392 . S
C1621 C1625 1.495 . S
C1622 C1621 1.392 . S
C1622 C1623 1.385 . S
C1622 C1624 1.478 . S
C1623 H1617 0.930 . S
C1623 C1619 1.400 . S
C1623 C1622 1.385 . S
C1624 C1622 1.478 . S
C1624 C1626 1.381 . S
C1624 C1630 1.383 . S
C1625 C1621 1.495 . S
C1625 H1631 0.959 . S
C1625 H1632 0.961 . S
C1625 H1633 0.960 . S
C1626 C1624 1.381 . S
C1626 C1627 1.394 . S
C1626 H1634 0.930 . S
C1627 C1626 1.394 . S
C1627 C1628 1.383 . S
C1627 H1635 0.929 . S
C1628 C1627 1.383 . S
C1628 C1629 1.377 . S
C1629 H1613 0.930 . S
C1629 C1628 1.377 . S
C1629 C1630 1.379 . S
C1630 H1614 0.931 . S
C1630 C1624 1.383 . S
C1630 C1629 1.379 . S
H1631 C1625 0.959 . S
H1632 C1625 0.961 . S
H1633 C1625 0.960 . S
H1634 C1626 0.930 . S
H1635 C1627 0.929 . S
H1636 C1644 0.929 . S
H1637 C1646 0.930 . S
H1638 C1648 0.930 . S
H1639 C1651 0.929 . S
H1640 C1654 0.930 . S
H1641 C1656 0.960 . S
H1642 C1656 0.960 . S
H1643 C1656 0.960 . S
C1644 H1636 0.929 . S
C1644 C1645 1.377 . S
C1644 C1646 1.384 . S
C1645 C1644 1.377 . S
C1645 C1651 1.390 . S
C1646 H1637 0.930 . S
C1646 C1644 1.384 . S
C1646 C1647 1.372 . S
C1647 C1646 1.372 . S
C1647 C1648 1.400 . S
C1647 C1652 1.490 . S
C1648 H1638 0.930 . S
C1648 C1647 1.400 . S
C1648 C1651 1.386 . S
H1649 C1665 0.930 . S
H1650 C1666 0.931 . S
C1651 H1639 0.929 . S
C1651 C1645 1.390 . S
C1651 C1648 1.386 . S
C1652 C1647 1.490 . S
C1652 C1654 1.395 . S
C1652 C1655 1.403 . S
H1653 C1659 0.930 . S
C1654 H1640 0.930 . S
C1654 C1652 1.395 . S
C1654 C1657 1.403 1_655 S
C1655 C1652 1.403 . S
C1655 C1656 1.524 . S
C1655 C1659 1.400 1_655 S
C1656 H1641 0.960 . S
C1656 H1642 0.960 . S
C1656 H1643 0.960 . S
C1656 C1655 1.524 . S
C1657 C1654 1.403 1_455 S
C1657 C1658 1.392 . S
C1657 C1661 1.495 . S
C1658 C1657 1.392 . S
C1658 C1659 1.385 . S
C1658 C1660 1.478 . S
C1659 H1653 0.930 . S
C1659 C1655 1.400 1_455 S
C1659 C1658 1.385 . S
C1660 C1658 1.478 . S
C1660 C1662 1.381 . S
C1660 C1666 1.383 . S
C1661 C1657 1.495 . S
C1661 H1667 0.959 . S
C1661 H1668 0.961 . S
C1661 H1669 0.960 . S
C1662 C1660 1.381 . S
C1662 C1663 1.394 . S
C1662 H1670 0.930 . S
C1663 C1662 1.394 . S
C1663 C1664 1.383 . S
C1663 H1671 0.929 . S
C1664 C1663 1.383 . S
C1664 C1665 1.377 . S
C1665 H1649 0.930 . S
C1665 C1664 1.377 . S
C1665 C1666 1.379 . S
C1666 H1650 0.931 . S
C1666 C1660 1.383 . S
C1666 C1665 1.379 . S
H1667 C1661 0.959 . S
H1668 C1661 0.961 . S
H1669 C1661 0.960 . S
H1670 C1662 0.930 . S
H1671 C1663 0.929 . S
H1672 C1680 0.929 . S
H1673 C1682 0.930 . S
H1674 C1684 0.930 . S
H1675 C1687 0.929 . S
H1676 C1690 0.930 . S
H1677 C1692 0.960 . S
H1678 C1692 0.960 . S
H1679 C1692 0.960 . S
C1680 H1672 0.929 . S
C1680 C1681 1.377 . S
C1680 C1682 1.384 . S
C1681 C1680 1.377 . S
C1681 C1687 1.390 . S
C1682 H1673 0.930 . S
C1682 C1680 1.384 . S
C1682 C1683 1.372 . S
C1683 C1682 1.372 . S
C1683 C1684 1.400 . S
C1683 C1688 1.490 . S
C1684 H1674 0.930 . S
C1684 C1683 1.400 . S
C1684 C1687 1.386 . S
H1685 C1701 0.930 . S
H1686 C1702 0.931 . S
C1687 H1675 0.929 . S
C1687 C1681 1.390 . S
C1687 C1684 1.386 . S
C1688 C1683 1.490 . S
C1688 C1690 1.395 . S
C1688 C1691 1.403 . S
H1689 C1695 0.930 . S
C1690 H1676 0.930 . S
C1690 C1688 1.395 . S
C1690 C1693 1.403 . S
C1691 C1688 1.403 . S
C1691 C1692 1.524 . S
C1691 C1695 1.400 . S
C1692 H1677 0.960 . S
C1692 H1678 0.960 . S
C1692 H1679 0.960 . S
C1692 C1691 1.524 . S
C1693 C1690 1.403 . S
C1693 C1694 1.392 . S
C1693 C1697 1.495 . S
C1694 C1693 1.392 . S
C1694 C1695 1.385 . S
C1694 C1696 1.478 . S
C1695 H1689 0.930 . S
C1695 C1691 1.400 . S
C1695 C1694 1.385 . S
C1696 C1694 1.478 . S
C1696 C1698 1.381 . S
C1696 C1702 1.383 . S
C1697 C1693 1.495 . S
C1697 H1703 0.959 . S
C1697 H1704 0.961 . S
C1697 H1705 0.960 . S
C1698 C1696 1.381 . S
C1698 C1699 1.394 . S
C1698 H1706 0.930 . S
C1699 C1698 1.394 . S
C1699 C1700 1.383 . S
C1699 H1707 0.929 . S
C1700 C1699 1.383 . S
C1700 C1701 1.377 . S
C1701 H1685 0.930 . S
C1701 C1700 1.377 . S
C1701 C1702 1.379 . S
C1702 H1686 0.931 . S
C1702 C1696 1.383 . S
C1702 C1701 1.379 . S
H1703 C1697 0.959 . S
H1704 C1697 0.961 . S
H1705 C1697 0.960 . S
H1706 C1698 0.930 . S
H1707 C1699 0.929 . S
H1708 C1716 0.929 . S
H1709 C1718 0.930 . S
H1710 C1720 0.930 . S
H1711 C1723 0.929 . S
H1712 C1726 0.930 . S
H1713 C1728 0.960 . S
H1714 C1728 0.960 . S
H1715 C1728 0.960 . S
C1716 H1708 0.929 . S
C1716 C1717 1.377 . S
C1716 C1718 1.384 . S
C1717 C1716 1.377 . S
C1717 C1723 1.390 . S
C1718 H1709 0.930 . S
C1718 C1716 1.384 . S
C1718 C1719 1.372 . S
C1719 C1718 1.372 . S
C1719 C1720 1.400 . S
C1719 C1724 1.490 . S
C1720 H1710 0.930 . S
C1720 C1719 1.400 . S
C1720 C1723 1.386 . S
H1721 C1737 0.930 . S
H1722 C1738 0.931 . S
C1723 H1711 0.929 . S
C1723 C1717 1.390 . S
C1723 C1720 1.386 . S
C1724 C1719 1.490 . S
C1724 C1726 1.395 . S
C1724 C1727 1.403 . S
H1725 C1731 0.930 . S
C1726 H1712 0.930 . S
C1726 C1724 1.395 . S
C1726 C1729 1.403 . S
C1727 C1724 1.403 . S
C1727 C1728 1.524 . S
C1727 C1731 1.400 . S
C1728 H1713 0.960 . S
C1728 H1714 0.960 . S
C1728 H1715 0.960 . S
C1728 C1727 1.524 . S
C1729 C1726 1.403 . S
C1729 C1730 1.392 . S
C1729 C1733 1.495 . S
C1730 C1729 1.392 . S
C1730 C1731 1.385 . S
C1730 C1732 1.478 . S
C1731 H1725 0.930 . S
C1731 C1727 1.400 . S
C1731 C1730 1.385 . S
C1732 C1730 1.478 . S
C1732 C1734 1.381 . S
C1732 C1738 1.383 . S
C1733 C1729 1.495 . S
C1733 H1739 0.959 . S
C1733 H1740 0.961 . S
C1733 H1741 0.960 . S
C1734 C1732 1.381 . S
C1734 C1735 1.394 . S
C1734 H1742 0.930 . S
C1735 C1734 1.394 . S
C1735 C1736 1.383 . S
C1735 H1743 0.929 . S
C1736 C1735 1.383 . S
C1736 C1737 1.377 . S
C1737 H1721 0.930 . S
C1737 C1736 1.377 . S
C1737 C1738 1.379 . S
C1738 H1722 0.931 . S
C1738 C1732 1.383 . S
C1738 C1737 1.379 . S
H1739 C1733 0.959 . S
H1740 C1733 0.961 . S
H1741 C1733 0.960 . S
H1742 C1734 0.930 . S
H1743 C1735 0.929 . S
H1744 C1752 0.929 . S
H1745 C1754 0.930 . S
H1746 C1756 0.930 . S
H1747 C1759 0.929 . S
H1748 C1762 0.930 . S
H1749 C1764 0.960 . S
H1750 C1764 0.960 . S
H1751 C1764 0.960 . S
C1752 H1744 0.929 . S
C1752 C1753 1.377 . S
C1752 C1754 1.384 . S
C1753 C1752 1.377 . S
C1753 C1759 1.390 . S
C1754 H1745 0.930 . S
C1754 C1752 1.384 . S
C1754 C1755 1.372 . S
C1755 C1754 1.372 . S
C1755 C1756 1.400 . S
C1755 C1760 1.490 . S
C1756 H1746 0.930 . S
C1756 C1755 1.400 . S
C1756 C1759 1.386 . S
H1757 C1773 0.930 . S
H1758 C1774 0.931 . S
C1759 H1747 0.929 . S
C1759 C1753 1.390 . S
C1759 C1756 1.386 . S
C1760 C1755 1.490 . S
C1760 C1762 1.395 . S
C1760 C1763 1.403 . S
H1761 C1767 0.930 . S
C1762 H1748 0.930 . S
C1762 C1760 1.395 . S
C1762 C1765 1.403 . S
C1763 C1760 1.403 . S
C1763 C1764 1.524 . S
C1763 C1767 1.400 . S
C1764 H1749 0.960 . S
C1764 H1750 0.960 . S
C1764 H1751 0.960 . S
C1764 C1763 1.524 . S
C1765 C1762 1.403 . S
C1765 C1766 1.392 . S
C1765 C1769 1.495 . S
C1766 C1765 1.392 . S
C1766 C1767 1.385 . S
C1766 C1768 1.478 . S
C1767 H1761 0.930 . S
C1767 C1763 1.400 . S
C1767 C1766 1.385 . S
C1768 C1766 1.478 . S
C1768 C1770 1.381 . S
C1768 C1774 1.383 . S
C1769 C1765 1.495 . S
C1769 H1775 0.959 . S
C1769 H1776 0.961 . S
C1769 H1777 0.960 . S
C1770 C1768 1.381 . S
C1770 C1771 1.394 . S
C1770 H1778 0.930 . S
C1771 C1770 1.394 . S
C1771 C1772 1.383 . S
C1771 H1779 0.929 . S
C1772 C1771 1.383 . S
C1772 C1773 1.377 . S
C1773 H1757 0.930 . S
C1773 C1772 1.377 . S
C1773 C1774 1.379 . S
C1774 H1758 0.931 . S
C1774 C1768 1.383 . S
C1774 C1773 1.379 . S
H1775 C1769 0.959 . S
H1776 C1769 0.961 . S
H1777 C1769 0.960 . S
H1778 C1770 0.930 . S
H1779 C1771 0.929 . S
H1780 C1788 0.929 . S
H1781 C1790 0.930 . S
H1782 C1792 0.930 . S
H1783 C1795 0.929 . S
H1784 C1798 0.930 . S
H1785 C1800 0.960 . S
H1786 C1800 0.960 . S
H1787 C1800 0.960 . S
C1788 H1780 0.929 . S
C1788 C1789 1.377 . S
C1788 C1790 1.384 . S
C1789 C1788 1.377 . S
C1789 C1795 1.390 . S
C1790 H1781 0.930 . S
C1790 C1788 1.384 . S
C1790 C1791 1.372 . S
C1791 C1790 1.372 . S
C1791 C1792 1.400 . S
C1791 C1796 1.490 . S
C1792 H1782 0.930 . S
C1792 C1791 1.400 . S
C1792 C1795 1.386 . S
H1793 C1809 0.930 . S
H1794 C1810 0.931 . S
C1795 H1783 0.929 . S
C1795 C1789 1.390 . S
C1795 C1792 1.386 . S
C1796 C1791 1.490 . S
C1796 C1798 1.395 . S
C1796 C1799 1.403 . S
H1797 C1803 0.930 . S
C1798 H1784 0.930 . S
C1798 C1796 1.395 . S
C1798 C1801 1.403 . S
C1799 C1796 1.403 . S
C1799 C1800 1.524 . S
C1799 C1803 1.400 . S
C1800 H1785 0.960 . S
C1800 H1786 0.960 . S
C1800 H1787 0.960 . S
C1800 C1799 1.524 . S
C1801 C1798 1.403 . S
C1801 C1802 1.392 . S
C1801 C1805 1.495 . S
C1802 C1801 1.392 . S
C1802 C1803 1.385 . S
C1802 C1804 1.478 . S
C1803 H1797 0.930 . S
C1803 C1799 1.400 . S
C1803 C1802 1.385 . S
C1804 C1802 1.478 . S
C1804 C1806 1.381 . S
C1804 C1810 1.383 . S
C1805 C1801 1.495 . S
C1805 H1811 0.959 . S
C1805 H1812 0.961 . S
C1805 H1813 0.960 . S
C1806 C1804 1.381 . S
C1806 C1807 1.394 . S
C1806 H1814 0.930 . S
C1807 C1806 1.394 . S
C1807 C1808 1.383 . S
C1807 H1815 0.929 . S
C1808 C1807 1.383 . S
C1808 C1809 1.377 . S
C1809 H1793 0.930 . S
C1809 C1808 1.377 . S
C1809 C1810 1.379 . S
C1810 H1794 0.931 . S
C1810 C1804 1.383 . S
C1810 C1809 1.379 . S
H1811 C1805 0.959 . S
H1812 C1805 0.961 . S
H1813 C1805 0.960 . S
H1814 C1806 0.930 . S
H1815 C1807 0.929 . S
H1816 C1824 0.929 . S
H1817 C1826 0.930 . S
H1818 C1828 0.930 . S
H1819 C1831 0.929 . S
H1820 C1834 0.930 . S
H1821 C1836 0.960 . S
H1822 C1836 0.960 . S
H1823 C1836 0.960 . S
C1824 H1816 0.929 . S
C1824 C1825 1.377 . S
C1824 C1826 1.384 . S
C1825 C1824 1.377 . S
C1825 C1831 1.390 . S
C1826 H1817 0.930 . S
C1826 C1824 1.384 . S
C1826 C1827 1.372 . S
C1827 C1826 1.372 . S
C1827 C1828 1.400 . S
C1827 C1832 1.490 . S
C1828 H1818 0.930 . S
C1828 C1827 1.400 . S
C1828 C1831 1.386 . S
H1829 C1845 0.930 . S
H1830 C1846 0.931 . S
C1831 H1819 0.929 . S
C1831 C1825 1.390 . S
C1831 C1828 1.386 . S
C1832 C1827 1.490 . S
C1832 C1834 1.395 . S
C1832 C1835 1.403 . S
H1833 C1839 0.930 . S
C1834 H1820 0.930 . S
C1834 C1832 1.395 . S
C1834 C1837 1.403 . S
C1835 C1832 1.403 . S
C1835 C1836 1.524 . S
C1835 C1839 1.400 . S
C1836 H1821 0.960 . S
C1836 H1822 0.960 . S
C1836 H1823 0.960 . S
C1836 C1835 1.524 . S
C1837 C1834 1.403 . S
C1837 C1838 1.392 . S
C1837 C1841 1.495 . S
C1838 C1837 1.392 . S
C1838 C1839 1.385 . S
C1838 C1840 1.478 . S
C1839 H1833 0.930 . S
C1839 C1835 1.400 . S
C1839 C1838 1.385 . S
C1840 C1838 1.478 . S
C1840 C1842 1.381 . S
C1840 C1846 1.383 . S
C1841 C1837 1.495 . S
C1841 H1847 0.959 . S
C1841 H1848 0.961 . S
C1841 H1849 0.960 . S
C1842 C1840 1.381 . S
C1842 C1843 1.394 . S
C1842 H1850 0.930 . S
C1843 C1842 1.394 . S
C1843 C1844 1.383 . S
C1843 H1851 0.929 . S
C1844 C1843 1.383 . S
C1844 C1845 1.377 . S
C1845 H1829 0.930 . S
C1845 C1844 1.377 . S
C1845 C1846 1.379 . S
C1846 H1830 0.931 . S
C1846 C1840 1.383 . S
C1846 C1845 1.379 . S
H1847 C1841 0.959 . S
H1848 C1841 0.961 . S
H1849 C1841 0.960 . S
H1850 C1842 0.930 . S
H1851 C1843 0.929 . S
H1852 C1860 0.929 . S
H1853 C1862 0.930 . S
H1854 C1864 0.930 . S
H1855 C1867 0.929 . S
H1856 C1870 0.930 . S
H1857 C1872 0.960 . S
H1858 C1872 0.960 . S
H1859 C1872 0.960 . S
C1860 H1852 0.929 . S
C1860 C1861 1.377 . S
C1860 C1862 1.384 . S
C1861 C1860 1.377 . S
C1861 C1867 1.390 . S
C1862 H1853 0.930 . S
C1862 C1860 1.384 . S
C1862 C1863 1.372 . S
C1863 C1862 1.372 . S
C1863 C1864 1.400 . S
C1863 C1868 1.490 . S
C1864 H1854 0.930 . S
C1864 C1863 1.400 . S
C1864 C1867 1.386 . S
H1865 C1881 0.930 . S
H1866 C1882 0.931 . S
C1867 H1855 0.929 . S
C1867 C1861 1.390 . S
C1867 C1864 1.386 . S
C1868 C1863 1.490 . S
C1868 C1870 1.395 . S
C1868 C1871 1.403 . S
H1869 C1875 0.930 . S
C1870 H1856 0.930 . S
C1870 C1868 1.395 . S
C1870 C1873 1.403 1_655 S
C1871 C1868 1.403 . S
C1871 C1872 1.524 . S
C1871 C1875 1.400 1_655 S
C1872 H1857 0.960 . S
C1872 H1858 0.960 . S
C1872 H1859 0.960 . S
C1872 C1871 1.524 . S
C1873 C1870 1.403 1_455 S
C1873 C1874 1.392 . S
C1873 C1877 1.495 . S
C1874 C1873 1.392 . S
C1874 C1875 1.385 . S
C1874 C1876 1.478 . S
C1875 H1869 0.930 . S
C1875 C1871 1.400 1_455 S
C1875 C1874 1.385 . S
C1876 C1874 1.478 . S
C1876 C1878 1.381 . S
C1876 C1882 1.383 . S
C1877 C1873 1.495 . S
C1877 H1883 0.959 . S
C1877 H1884 0.961 . S
C1877 H1885 0.960 . S
C1878 C1876 1.381 . S
C1878 C1879 1.394 . S
C1878 H1886 0.930 . S
C1879 C1878 1.394 . S
C1879 C1880 1.383 . S
C1879 H1887 0.929 . S
C1880 C1879 1.383 . S
C1880 C1881 1.377 . S
C1881 H1865 0.930 . S
C1881 C1880 1.377 . S
C1881 C1882 1.379 . S
C1882 H1866 0.931 . S
C1882 C1876 1.383 . S
C1882 C1881 1.379 . S
H1883 C1877 0.959 . S
H1884 C1877 0.961 . S
H1885 C1877 0.960 . S
H1886 C1878 0.930 . S
H1887 C1879 0.929 . S
H1888 C1896 0.929 . S
H1889 C1898 0.930 . S
H1890 C1900 0.930 . S
H1891 C1903 0.929 . S
H1892 C1906 0.930 . S
H1893 C1908 0.960 . S
H1894 C1908 0.960 . S
H1895 C1908 0.960 . S
C1896 H1888 0.929 . S
C1896 C1897 1.377 . S
C1896 C1898 1.384 . S
C1897 C1896 1.377 . S
C1897 C1903 1.390 . S
C1898 H1889 0.930 . S
C1898 C1896 1.384 . S
C1898 C1899 1.372 . S
C1899 C1898 1.372 . S
C1899 C1900 1.400 . S
C1899 C1904 1.490 . S
C1900 H1890 0.930 . S
C1900 C1899 1.400 . S
C1900 C1903 1.386 . S
H1901 C1917 0.930 . S
H1902 C1918 0.931 . S
C1903 H1891 0.929 . S
C1903 C1897 1.390 . S
C1903 C1900 1.386 . S
C1904 C1899 1.490 . S
C1904 C1906 1.395 . S
C1904 C1907 1.403 . S
H1905 C1911 0.930 . S
C1906 H1892 0.930 . S
C1906 C1904 1.395 . S
C1906 C1909 1.403 . S
C1907 C1904 1.403 . S
C1907 C1908 1.524 . S
C1907 C1911 1.400 . S
C1908 H1893 0.960 . S
C1908 H1894 0.960 . S
C1908 H1895 0.960 . S
C1908 C1907 1.524 . S
C1909 C1906 1.403 . S
C1909 C1910 1.392 . S
C1909 C1913 1.495 . S
C1910 C1909 1.392 . S
C1910 C1911 1.385 . S
C1910 C1912 1.478 . S
C1911 H1905 0.930 . S
C1911 C1907 1.400 . S
C1911 C1910 1.385 . S
C1912 C1910 1.478 . S
C1912 C1914 1.381 . S
C1912 C1918 1.383 . S
C1913 C1909 1.495 . S
C1913 H1919 0.959 . S
C1913 H1920 0.961 . S
C1913 H1921 0.960 . S
C1914 C1912 1.381 . S
C1914 C1915 1.394 . S
C1914 H1922 0.930 . S
C1915 C1914 1.394 . S
C1915 C1916 1.383 . S
C1915 H1923 0.929 . S
C1916 C1915 1.383 . S
C1916 C1917 1.377 . S
C1917 H1901 0.930 . S
C1917 C1916 1.377 . S
C1917 C1918 1.379 . S
C1918 H1902 0.931 . S
C1918 C1912 1.383 . S
C1918 C1917 1.379 . S
H1919 C1913 0.959 . S
H1920 C1913 0.961 . S
H1921 C1913 0.960 . S
H1922 C1914 0.930 . S
H1923 C1915 0.929 . S
H1924 C1932 0.929 . S
H1925 C1934 0.930 . S
H1926 C1936 0.930 . S
H1927 C1939 0.929 . S
H1928 C1942 0.930 . S
H1929 C1944 0.960 . S
H1930 C1944 0.960 . S
H1931 C1944 0.960 . S
C1932 H1924 0.929 . S
C1932 C1933 1.377 . S
C1932 C1934 1.384 . S
C1933 C1932 1.377 . S
C1933 C1939 1.390 . S
C1934 H1925 0.930 . S
C1934 C1932 1.384 . S
C1934 C1935 1.372 . S
C1935 C1934 1.372 . S
C1935 C1936 1.400 . S
C1935 C1940 1.490 . S
C1936 H1926 0.930 . S
C1936 C1935 1.400 . S
C1936 C1939 1.386 . S
H1937 C1953 0.930 . S
H1938 C1954 0.931 . S
C1939 H1927 0.929 . S
C1939 C1933 1.390 . S
C1939 C1936 1.386 . S
C1940 C1935 1.490 . S
C1940 C1942 1.395 . S
C1940 C1943 1.403 . S
H1941 C1947 0.930 . S
C1942 H1928 0.930 . S
C1942 C1940 1.395 . S
C1942 C1945 1.403 . S
C1943 C1940 1.403 . S
C1943 C1944 1.524 . S
C1943 C1947 1.400 . S
C1944 H1929 0.960 . S
C1944 H1930 0.960 . S
C1944 H1931 0.960 . S
C1944 C1943 1.524 . S
C1945 C1942 1.403 . S
C1945 C1946 1.392 . S
C1945 C1949 1.495 . S
C1946 C1945 1.392 . S
C1946 C1947 1.385 . S
C1946 C1948 1.478 . S
C1947 H1941 0.930 . S
C1947 C1943 1.400 . S
C1947 C1946 1.385 . S
C1948 C1946 1.478 . S
C1948 C1950 1.381 . S
C1948 C1954 1.383 . S
C1949 C1945 1.495 . S
C1949 H1955 0.959 . S
C1949 H1956 0.961 . S
C1949 H1957 0.960 . S
C1950 C1948 1.381 . S
C1950 C1951 1.394 . S
C1950 H1958 0.930 . S
C1951 C1950 1.394 . S
C1951 C1952 1.383 . S
C1951 H1959 0.929 . S
C1952 C1951 1.383 . S
C1952 C1953 1.377 . S
C1953 H1937 0.930 . S
C1953 C1952 1.377 . S
C1953 C1954 1.379 . S
C1954 H1938 0.931 . S
C1954 C1948 1.383 . S
C1954 C1953 1.379 . S
H1955 C1949 0.959 . S
H1956 C1949 0.961 . S
H1957 C1949 0.960 . S
H1958 C1950 0.930 . S
H1959 C1951 0.929 . S
H1960 C1968 0.929 . S
H1961 C1970 0.930 . S
H1962 C1972 0.930 . S
H1963 C1975 0.929 . S
H1964 C1978 0.930 . S
H1965 C1980 0.960 . S
H1966 C1980 0.960 . S
H1967 C1980 0.960 . S
C1968 H1960 0.929 . S
C1968 C1969 1.377 . S
C1968 C1970 1.384 . S
C1969 C1968 1.377 . S
C1969 C1975 1.390 . S
C1970 H1961 0.930 . S
C1970 C1968 1.384 . S
C1970 C1971 1.372 . S
C1971 C1970 1.372 . S
C1971 C1972 1.400 . S
C1971 C1976 1.490 . S
C1972 H1962 0.930 . S
C1972 C1971 1.400 . S
C1972 C1975 1.386 . S
H1973 C1989 0.930 . S
H1974 C1990 0.931 . S
C1975 H1963 0.929 . S
C1975 C1969 1.390 . S
C1975 C1972 1.386 . S
C1976 C1971 1.490 . S
C1976 C1978 1.395 . S
C1976 C1979 1.403 . S
H1977 C1983 0.930 . S
C1978 H1964 0.930 . S
C1978 C1976 1.395 . S
C1978 C1981 1.403 . S
C1979 C1976 1.403 . S
C1979 C1980 1.524 . S
C1979 C1983 1.400 . S
C1980 H1965 0.960 . S
C1980 H1966 0.960 . S
C1980 H1967 0.960 . S
C1980 C1979 1.524 . S
C1981 C1978 1.403 . S
C1981 C1982 1.392 . S
C1981 C1985 1.495 . S
C1982 C1981 1.392 . S
C1982 C1983 1.385 . S
C1982 C1984 1.478 . S
C1983 H1977 0.930 . S
C1983 C1979 1.400 . S
C1983 C1982 1.385 . S
C1984 C1982 1.478 . S
C1984 C1986 1.381 . S
C1984 C1990 1.383 . S
C1985 C1981 1.495 . S
C1985 H1991 0.959 . S
C1985 H1992 0.961 . S
C1985 H1993 0.960 . S
C1986 C1984 1.381 . S
C1986 C1987 1.394 . S
C1986 H1994 0.930 . S
C1987 C1986 1.394 . S
C1987 C1988 1.383 . S
C1987 H1995 0.929 . S
C1988 C1987 1.383 . S
C1988 C1989 1.377 . S
C1989 H1973 0.930 . S
C1989 C1988 1.377 . S
C1989 C1990 1.379 . S
C1990 H1974 0.931 . S
C1990 C1984 1.383 . S
C1990 C1989 1.379 . S
H1991 C1985 0.959 . S
H1992 C1985 0.961 . S
H1993 C1985 0.960 . S
H1994 C1986 0.930 . S
H1995 C1987 0.929 . S
H1996 C2004 0.929 . S
H1997 C2006 0.930 . S
H1998 C2008 0.930 . S
H1999 C2011 0.929 . S
H2000 C2014 0.930 . S
H2001 C2016 0.960 . S
H2002 C2016 0.960 . S
H2003 C2016 0.960 . S
C2004 H1996 0.929 . S
C2004 C2005 1.377 . S
C2004 C2006 1.384 . S
C2005 C2004 1.377 . S
C2005 C2011 1.390 . S
C2006 H1997 0.930 . S
C2006 C2004 1.384 . S
C2006 C2007 1.372 . S
C2007 C2006 1.372 . S
C2007 C2008 1.400 . S
C2007 C2012 1.490 . S
C2008 H1998 0.930 . S
C2008 C2007 1.400 . S
C2008 C2011 1.386 . S
H2009 C2025 0.930 . S
H2010 C2026 0.931 . S
C2011 H1999 0.929 . S
C2011 C2005 1.390 . S
C2011 C2008 1.386 . S
C2012 C2007 1.490 . S
C2012 C2014 1.395 . S
C2012 C2015 1.403 . S
H2013 C2019 0.930 . S
C2014 H2000 0.930 . S
C2014 C2012 1.395 . S
C2014 C2017 1.403 . S
C2015 C2012 1.403 . S
C2015 C2016 1.524 . S
C2015 C2019 1.400 . S
C2016 H2001 0.960 . S
C2016 H2002 0.960 . S
C2016 H2003 0.960 . S
C2016 C2015 1.524 . S
C2017 C2014 1.403 . S
C2017 C2018 1.392 . S
C2017 C2021 1.495 . S
C2018 C2017 1.392 . S
C2018 C2019 1.385 . S
C2018 C2020 1.478 . S
C2019 H2013 0.930 . S
C2019 C2015 1.400 . S
C2019 C2018 1.385 . S
C2020 C2018 1.478 . S
C2020 C2022 1.381 . S
C2020 C2026 1.383 . S
C2021 C2017 1.495 . S
C2021 H2027 0.959 . S
C2021 H2028 0.961 . S
C2021 H2029 0.960 . S
C2022 C2020 1.381 . S
C2022 C2023 1.394 . S
C2022 H2030 0.930 . S
C2023 C2022 1.394 . S
C2023 C2024 1.383 . S
C2023 H2031 0.929 . S
C2024 C2023 1.383 . S
C2024 C2025 1.377 . S
C2025 H2009 0.930 . S
C2025 C2024 1.377 . S
C2025 C2026 1.379 . S
C2026 H2010 0.931 . S
C2026 C2020 1.383 . S
C2026 C2025 1.379 . S
H2027 C2021 0.959 . S
H2028 C2021 0.961 . S
H2029 C2021 0.960 . S
H2030 C2022 0.930 . S
H2031 C2023 0.929 . S
H2032 C2040 0.929 . S
H2033 C2042 0.930 . S
H2034 C2044 0.930 . S
H2035 C2047 0.929 . S
H2036 C2050 0.930 . S
H2037 C2052 0.960 . S
H2038 C2052 0.960 . S
H2039 C2052 0.960 . S
C2040 H2032 0.929 . S
C2040 C2041 1.377 . S
C2040 C2042 1.384 . S
C2041 C2040 1.377 . S
C2041 C2047 1.390 . S
C2042 H2033 0.930 . S
C2042 C2040 1.384 . S
C2042 C2043 1.372 . S
C2043 C2042 1.372 . S
C2043 C2044 1.400 . S
C2043 C2048 1.490 . S
C2044 H2034 0.930 . S
C2044 C2043 1.400 . S
C2044 C2047 1.386 . S
H2045 C2061 0.930 . S
H2046 C2062 0.931 . S
C2047 H2035 0.929 . S
C2047 C2041 1.390 . S
C2047 C2044 1.386 . S
C2048 C2043 1.490 . S
C2048 C2050 1.395 . S
C2048 C2051 1.403 . S
H2049 C2055 0.930 . S
C2050 H2036 0.930 . S
C2050 C2048 1.395 . S
C2050 C2053 1.403 . S
C2051 C2048 1.403 . S
C2051 C2052 1.524 . S
C2051 C2055 1.400 . S
C2052 H2037 0.960 . S
C2052 H2038 0.960 . S
C2052 H2039 0.960 . S
C2052 C2051 1.524 . S
C2053 C2050 1.403 . S
C2053 C2054 1.392 . S
C2053 C2057 1.495 . S
C2054 C2053 1.392 . S
C2054 C2055 1.385 . S
C2054 C2056 1.478 . S
C2055 H2049 0.930 . S
C2055 C2051 1.400 . S
C2055 C2054 1.385 . S
C2056 C2054 1.478 . S
C2056 C2058 1.381 . S
C2056 C2062 1.383 . S
C2057 C2053 1.495 . S
C2057 H2063 0.959 . S
C2057 H2064 0.961 . S
C2057 H2065 0.960 . S
C2058 C2056 1.381 . S
C2058 C2059 1.394 . S
C2058 H2066 0.930 . S
C2059 C2058 1.394 . S
C2059 C2060 1.383 . S
C2059 H2067 0.929 . S
C2060 C2059 1.383 . S
C2060 C2061 1.377 . S
C2061 H2045 0.930 . S
C2061 C2060 1.377 . S
C2061 C2062 1.379 . S
C2062 H2046 0.931 . S
C2062 C2056 1.383 . S
C2062 C2061 1.379 . S
H2063 C2057 0.959 . S
H2064 C2057 0.961 . S
H2065 C2057 0.960 . S
H2066 C2058 0.930 . S
H2067 C2059 0.929 . S
H2068 C2076 0.929 . S
H2069 C2078 0.930 . S
H2070 C2080 0.930 . S
H2071 C2083 0.929 . S
H2072 C2086 0.930 . S
H2073 C2088 0.960 . S
H2074 C2088 0.960 . S
H2075 C2088 0.960 . S
C2076 H2068 0.929 . S
C2076 C2077 1.377 . S
C2076 C2078 1.384 . S
C2077 C2076 1.377 . S
C2077 C2083 1.390 . S
C2078 H2069 0.930 . S
C2078 C2076 1.384 . S
C2078 C2079 1.372 . S
C2079 C2078 1.372 . S
C2079 C2080 1.400 . S
C2079 C2084 1.490 . S
C2080 H2070 0.930 . S
C2080 C2079 1.400 . S
C2080 C2083 1.386 . S
H2081 C2097 0.930 . S
H2082 C2098 0.931 . S
C2083 H2071 0.929 . S
C2083 C2077 1.390 . S
C2083 C2080 1.386 . S
C2084 C2079 1.490 . S
C2084 C2086 1.395 . S
C2084 C2087 1.403 . S
H2085 C2091 0.930 . S
C2086 H2072 0.930 . S
C2086 C2084 1.395 . S
C2086 C2089 1.403 1_655 S
C2087 C2084 1.403 . S
C2087 C2088 1.524 . S
C2087 C2091 1.400 1_655 S
C2088 H2073 0.960 . S
C2088 H2074 0.960 . S
C2088 H2075 0.960 . S
C2088 C2087 1.524 . S
C2089 C2086 1.403 1_455 S
C2089 C2090 1.392 . S
C2089 C2093 1.495 . S
C2090 C2089 1.392 . S
C2090 C2091 1.385 . S
C2090 C2092 1.478 . S
C2091 H2085 0.930 . S
C2091 C2087 1.400 1_455 S
C2091 C2090 1.385 . S
C2092 C2090 1.478 . S
C2092 C2094 1.381 . S
C2092 C2098 1.383 . S
C2093 C2089 1.495 . S
C2093 H2099 0.959 . S
C2093 H2100 0.961 . S
C2093 H2101 0.960 . S
C2094 C2092 1.381 . S
C2094 C2095 1.394 . S
C2094 H2102 0.930 . S
C2095 C2094 1.394 . S
C2095 C2096 1.383 . S
C2095 H2103 0.929 . S
C2096 C2095 1.383 . S
C2096 C2097 1.377 . S
C2097 H2081 0.930 . S
C2097 C2096 1.377 . S
C2097 C2098 1.379 . S
C2098 H2082 0.931 . S
C2098 C2092 1.383 . S
C2098 C2097 1.379 . S
H2099 C2093 0.959 . S
H2100 C2093 0.961 . S
H2101 C2093 0.960 . S
H2102 C2094 0.930 . S
H2103 C2095 0.929 . S
H2104 C2112 0.929 . S
H2105 C2114 0.930 . S
H2106 C2116 0.930 . S
H2107 C2119 0.929 . S
H2108 C2122 0.930 . S
H2109 C2124 0.960 . S
H2110 C2124 0.960 . S
H2111 C2124 0.960 . S
C2112 H2104 0.929 . S
C2112 C2113 1.377 . S
C2112 C2114 1.384 . S
C2113 C2112 1.377 . S
C2113 C2119 1.390 . S
C2114 H2105 0.930 . S
C2114 C2112 1.384 . S
C2114 C2115 1.372 . S
C2115 C2114 1.372 . S
C2115 C2116 1.400 . S
C2115 C2120 1.490 . S
C2116 H2106 0.930 . S
C2116 C2115 1.400 . S
C2116 C2119 1.386 . S
H2117 C2133 0.930 . S
H2118 C2134 0.931 . S
C2119 H2107 0.929 . S
C2119 C2113 1.390 . S
C2119 C2116 1.386 . S
C2120 C2115 1.490 . S
C2120 C2122 1.395 . S
C2120 C2123 1.403 . S
H2121 C2127 0.930 . S
C2122 H2108 0.930 . S
C2122 C2120 1.395 . S
C2122 C2125 1.403 1_655 S
C2123 C2120 1.403 . S
C2123 C2124 1.524 . S
C2123 C2127 1.400 1_655 S
C2124 H2109 0.960 . S
C2124 H2110 0.960 . S
C2124 H2111 0.960 . S
C2124 C2123 1.524 . S
C2125 C2122 1.403 1_455 S
C2125 C2126 1.392 . S
C2125 C2129 1.495 . S
C2126 C2125 1.392 . S
C2126 C2127 1.385 . S
C2126 C2128 1.478 . S
C2127 H2121 0.930 . S
C2127 C2123 1.400 1_455 S
C2127 C2126 1.385 . S
C2128 C2126 1.478 . S
C2128 C2130 1.381 . S
C2128 C2134 1.383 . S
C2129 C2125 1.495 . S
C2129 H2135 0.959 . S
C2129 H2136 0.961 . S
C2129 H2137 0.960 . S
C2130 C2128 1.381 . S
C2130 C2131 1.394 . S
C2130 H2138 0.930 . S
C2131 C2130 1.394 . S
C2131 C2132 1.383 . S
C2131 H2139 0.929 . S
C2132 C2131 1.383 . S
C2132 C2133 1.377 . S
C2133 H2117 0.930 . S
C2133 C2132 1.377 . S
C2133 C2134 1.379 . S
C2134 H2118 0.931 . S
C2134 C2128 1.383 . S
C2134 C2133 1.379 . S
H2135 C2129 0.959 . S
H2136 C2129 0.961 . S
H2137 C2129 0.960 . S
H2138 C2130 0.930 . S
H2139 C2131 0.929 . S
H2140 C2148 0.929 . S
H2141 C2150 0.930 . S
H2142 C2152 0.930 . S
H2143 C2155 0.929 . S
H2144 C2158 0.930 . S
H2145 C2160 0.960 . S
H2146 C2160 0.960 . S
H2147 C2160 0.960 . S
C2148 H2140 0.929 . S
C2148 C2149 1.377 . S
C2148 C2150 1.384 . S
C2149 C2148 1.377 . S
C2149 C2155 1.390 . S
C2150 H2141 0.930 . S
C2150 C2148 1.384 . S
C2150 C2151 1.372 . S
C2151 C2150 1.372 . S
C2151 C2152 1.400 . S
C2151 C2156 1.490 . S
C2152 H2142 0.930 . S
C2152 C2151 1.400 . S
C2152 C2155 1.386 . S
H2153 C2169 0.930 . S
H2154 C2170 0.931 . S
C2155 H2143 0.929 . S
C2155 C2149 1.390 . S
C2155 C2152 1.386 . S
C2156 C2151 1.490 . S
C2156 C2158 1.395 . S
C2156 C2159 1.403 . S
H2157 C2163 0.930 . S
C2158 H2144 0.930 . S
C2158 C2156 1.395 . S
C2158 C2161 1.403 . S
C2159 C2156 1.403 . S
C2159 C2160 1.524 . S
C2159 C2163 1.400 . S
C2160 H2145 0.960 . S
C2160 H2146 0.960 . S
C2160 H2147 0.960 . S
C2160 C2159 1.524 . S
C2161 C2158 1.403 . S
C2161 C2162 1.392 . S
C2161 C2165 1.495 . S
C2162 C2161 1.392 . S
C2162 C2163 1.385 . S
C2162 C2164 1.478 . S
C2163 H2157 0.930 . S
C2163 C2159 1.400 . S
C2163 C2162 1.385 . S
C2164 C2162 1.478 . S
C2164 C2166 1.381 . S
C2164 C2170 1.383 . S
C2165 C2161 1.495 . S
C2165 H2171 0.959 . S
C2165 H2172 0.961 . S
C2165 H2173 0.960 . S
C2166 C2164 1.381 . S
C2166 C2167 1.394 . S
C2166 H2174 0.930 . S
C2167 C2166 1.394 . S
C2167 C2168 1.383 . S
C2167 H2175 0.929 . S
C2168 C2167 1.383 . S
C2168 C2169 1.377 . S
C2169 H2153 0.930 . S
C2169 C2168 1.377 . S
C2169 C2170 1.379 . S
C2170 H2154 0.931 . S
C2170 C2164 1.383 . S
C2170 C2169 1.379 . S
H2171 C2165 0.959 . S
H2172 C2165 0.961 . S
H2173 C2165 0.960 . S
H2174 C2166 0.930 . S
H2175 C2167 0.929 . S
H2176 C2184 0.929 . S
H2177 C2186 0.930 . S
H2178 C2188 0.930 . S
H2179 C2191 0.929 . S
H2180 C2194 0.930 . S
H2181 C2196 0.960 . S
H2182 C2196 0.960 . S
H2183 C2196 0.960 . S
C2184 H2176 0.929 . S
C2184 C2185 1.377 . S
C2184 C2186 1.384 . S
C2185 C2184 1.377 . S
C2185 C2191 1.390 . S
C2186 H2177 0.930 . S
C2186 C2184 1.384 . S
C2186 C2187 1.372 . S
C2187 C2186 1.372 . S
C2187 C2188 1.400 . S
C2187 C2192 1.490 . S
C2188 H2178 0.930 . S
C2188 C2187 1.400 . S
C2188 C2191 1.386 . S
H2189 C2205 0.930 . S
H2190 C2206 0.931 . S
C2191 H2179 0.929 . S
C2191 C2185 1.390 . S
C2191 C2188 1.386 . S
C2192 C2187 1.490 . S
C2192 C2194 1.395 . S
C2192 C2195 1.403 . S
H2193 C2199 0.930 . S
C2194 H2180 0.930 . S
C2194 C2192 1.395 . S
C2194 C2197 1.403 . S
C2195 C2192 1.403 . S
C2195 C2196 1.524 . S
C2195 C2199 1.400 . S
C2196 H2181 0.960 . S
C2196 H2182 0.960 . S
C2196 H2183 0.960 . S
C2196 C2195 1.524 . S
C2197 C2194 1.403 . S
C2197 C2198 1.392 . S
C2197 C2201 1.495 . S
C2198 C2197 1.392 . S
C2198 C2199 1.385 . S
C2198 C2200 1.478 . S
C2199 H2193 0.930 . S
C2199 C2195 1.400 . S
C2199 C2198 1.385 . S
C2200 C2198 1.478 . S
C2200 C2202 1.381 . S
C2200 C2206 1.383 . S
C2201 C2197 1.495 . S
C2201 H2207 0.959 . S
C2201 H2208 0.961 . S
C2201 H2209 0.960 . S
C2202 C2200 1.381 . S
C2202 C2203 1.394 . S
C2202 H2210 0.930 . S
C2203 C2202 1.394 . S
C2203 C2204 1.383 . S
C2203 H2211 0.929 . S
C2204 C2203 1.383 . S
C2204 C2205 1.377 . S
C2205 H2189 0.930 . S
C2205 C2204 1.377 . S
C2205 C2206 1.379 . S
C2206 H2190 0.931 . S
C2206 C2200 1.383 . S
C2206 C2205 1.379 . S
H2207 C2201 0.959 . S
H2208 C2201 0.961 . S
H2209 C2201 0.960 . S
H2210 C2202 0.930 . S
H2211 C2203 0.929 . S
H2212 C2220 0.929 . S
H2213 C2222 0.930 . S
H2214 C2224 0.930 . S
H2215 C2227 0.929 . S
H2216 C2230 0.930 . S
H2217 C2232 0.960 . S
H2218 C2232 0.960 . S
H2219 C2232 0.960 . S
C2220 H2212 0.929 . S
C2220 C2221 1.377 . S
C2220 C2222 1.384 . S
C2221 C2220 1.377 . S
C2221 C2227 1.390 . S
C2222 H2213 0.930 . S
C2222 C2220 1.384 . S
C2222 C2223 1.372 . S
C2223 C2222 1.372 . S
C2223 C2224 1.400 . S
C2223 C2228 1.490 . S
C2224 H2214 0.930 . S
C2224 C2223 1.400 . S
C2224 C2227 1.386 . S
H2225 C2241 0.930 . S
H2226 C2242 0.931 . S
C2227 H2215 0.929 . S
C2227 C2221 1.390 . S
C2227 C2224 1.386 . S
C2228 C2223 1.490 . S
C2228 C2230 1.395 . S
C2228 C2231 1.403 . S
H2229 C2235 0.930 . S
C2230 H2216 0.930 . S
C2230 C2228 1.395 . S
C2230 C2233 1.403 . S
C2231 C2228 1.403 . S
C2231 C2232 1.524 . S
C2231 C2235 1.400 . S
C2232 H2217 0.960 . S
C2232 H2218 0.960 . S
C2232 H2219 0.960 . S
C2232 C2231 1.524 . S
C2233 C2230 1.403 . S
C2233 C2234 1.392 . S
C2233 C2237 1.495 . S
C2234 C2233 1.392 . S
C2234 C2235 1.385 . S
C2234 C2236 1.478 . S
C2235 H2229 0.930 . S
C2235 C2231 1.400 . S
C2235 C2234 1.385 . S
C2236 C2234 1.478 . S
C2236 C2238 1.381 . S
C2236 C2242 1.383 . S
C2237 C2233 1.495 . S
C2237 H2243 0.959 . S
C2237 H2244 0.961 . S
C2237 H2245 0.960 . S
C2238 C2236 1.381 . S
C2238 C2239 1.394 . S
C2238 H2246 0.930 . S
C2239 C2238 1.394 . S
C2239 C2240 1.383 . S
C2239 H2247 0.929 . S
C2240 C2239 1.383 . S
C2240 C2241 1.377 . S
C2241 H2225 0.930 . S
C2241 C2240 1.377 . S
C2241 C2242 1.379 . S
C2242 H2226 0.931 . S
C2242 C2236 1.383 . S
C2242 C2241 1.379 . S
H2243 C2237 0.959 . S
H2244 C2237 0.961 . S
H2245 C2237 0.960 . S
H2246 C2238 0.930 . S
H2247 C2239 0.929 . S
H2248 C2256 0.929 . S
H2249 C2258 0.930 . S
H2250 C2260 0.930 . S
H2251 C2263 0.929 . S
H2252 C2266 0.930 . S
H2253 C2268 0.960 . S
H2254 C2268 0.960 . S
H2255 C2268 0.960 . S
C2256 H2248 0.929 . S
C2256 C2257 1.377 . S
C2256 C2258 1.384 1_554 S
C2257 C2256 1.377 . S
C2257 C2263 1.390 1_554 S
C2258 H2249 0.930 . S
C2258 C2256 1.384 1_556 S
C2258 C2259 1.372 . S
C2259 C2258 1.372 . S
C2259 C2260 1.400 . S
C2259 C2264 1.490 . S
C2260 H2250 0.930 . S
C2260 C2259 1.400 . S
C2260 C2263 1.386 . S
H2261 C2277 0.930 . S
H2262 C2278 0.931 . S
C2263 H2251 0.929 . S
C2263 C2257 1.390 1_556 S
C2263 C2260 1.386 . S
C2264 C2259 1.490 . S
C2264 C2266 1.395 . S
C2264 C2267 1.403 . S
H2265 C2271 0.930 . S
C2266 H2252 0.930 . S
C2266 C2264 1.395 . S
C2266 C2269 1.403 . S
C2267 C2264 1.403 . S
C2267 C2268 1.524 . S
C2267 C2271 1.400 . S
C2268 H2253 0.960 . S
C2268 H2254 0.960 . S
C2268 H2255 0.960 . S
C2268 C2267 1.524 . S
C2269 C2266 1.403 . S
C2269 C2270 1.392 . S
C2269 C2273 1.495 . S
C2270 C2269 1.392 . S
C2270 C2271 1.385 . S
C2270 C2272 1.478 . S
C2271 H2265 0.930 . S
C2271 C2267 1.400 . S
C2271 C2270 1.385 . S
C2272 C2270 1.478 . S
C2272 C2274 1.381 . S
C2272 C2278 1.383 . S
C2273 C2269 1.495 . S
C2273 H2279 0.959 . S
C2273 H2280 0.961 . S
C2273 H2281 0.960 . S
C2274 C2272 1.381 . S
C2274 C2275 1.394 . S
C2274 H2282 0.930 . S
C2275 C2274 1.394 . S
C2275 C2276 1.383 . S
C2275 H2283 0.929 . S
C2276 C2275 1.383 . S
C2276 C2277 1.377 . S
C2277 H2261 0.930 . S
C2277 C2276 1.377 . S
C2277 C2278 1.379 . S
C2278 H2262 0.931 . S
C2278 C2272 1.383 . S
C2278 C2277 1.379 . S
H2279 C2273 0.959 . S
H2280 C2273 0.961 . S
H2281 C2273 0.960 . S
H2282 C2274 0.930 . S
H2283 C2275 0.929 . S
H2284 C2292 0.929 . S
H2285 C2294 0.930 . S
H2286 C2296 0.930 . S
H2287 C2299 0.929 . S
H2288 C2302 0.930 . S
H2289 C2304 0.960 . S
H2290 C2304 0.960 . S
H2291 C2304 0.960 . S
C2292 H2284 0.929 . S
C2292 C2293 1.377 1_554 S
C2292 C2294 1.384 . S
C2293 C2292 1.377 1_556 S
C2293 C2299 1.390 . S
C2294 H2285 0.930 . S
C2294 C2292 1.384 . S
C2294 C2295 1.372 . S
C2295 C2294 1.372 . S
C2295 C2296 1.400 . S
C2295 C2300 1.490 . S
C2296 H2286 0.930 . S
C2296 C2295 1.400 . S
C2296 C2299 1.386 1_554 S
H2297 C2313 0.930 . S
H2298 C2314 0.931 . S
C2299 H2287 0.929 . S
C2299 C2293 1.390 . S
C2299 C2296 1.386 1_556 S
C2300 C2295 1.490 . S
C2300 C2302 1.395 . S
C2300 C2303 1.403 . S
H2301 C2307 0.930 . S
C2302 H2288 0.930 . S
C2302 C2300 1.395 . S
C2302 C2305 1.403 . S
C2303 C2300 1.403 . S
C2303 C2304 1.524 . S
C2303 C2307 1.400 . S
C2304 H2289 0.960 . S
C2304 H2290 0.960 . S
C2304 H2291 0.960 . S
C2304 C2303 1.524 . S
C2305 C2302 1.403 . S
C2305 C2306 1.392 . S
C2305 C2309 1.495 . S
C2306 C2305 1.392 . S
C2306 C2307 1.385 . S
C2306 C2308 1.478 . S
C2307 H2301 0.930 . S
C2307 C2303 1.400 . S
C2307 C2306 1.385 . S
C2308 C2306 1.478 . S
C2308 C2310 1.381 . S
C2308 C2314 1.383 . S
C2309 C2305 1.495 . S
C2309 H2315 0.959 . S
C2309 H2316 0.961 . S
C2309 H2317 0.960 . S
C2310 C2308 1.381 . S
C2310 C2311 1.394 . S
C2310 H2318 0.930 . S
C2311 C2310 1.394 . S
C2311 C2312 1.383 . S
C2311 H2319 0.929 . S
C2312 C2311 1.383 . S
C2312 C2313 1.377 . S
C2313 H2297 0.930 . S
C2313 C2312 1.377 . S
C2313 C2314 1.379 . S
C2314 H2298 0.931 . S
C2314 C2308 1.383 . S
C2314 C2313 1.379 . S
H2315 C2309 0.959 . S
H2316 C2309 0.961 . S
H2317 C2309 0.960 . S
H2318 C2310 0.930 . S
H2319 C2311 0.929 . S
H2320 C2328 0.929 . S
H2321 C2330 0.930 . S
H2322 C2332 0.930 . S
H2323 C2335 0.929 . S
H2324 C2338 0.930 . S
H2325 C2340 0.960 . S
H2326 C2340 0.960 . S
H2327 C2340 0.960 . S
C2328 H2320 0.929 . S
C2328 C2329 1.377 . S
C2328 C2330 1.384 . S
C2329 C2328 1.377 . S
C2329 C2335 1.390 . S
C2330 H2321 0.930 . S
C2330 C2328 1.384 . S
C2330 C2331 1.372 . S
C2331 C2330 1.372 . S
C2331 C2332 1.400 . S
C2331 C2336 1.490 . S
C2332 H2322 0.930 . S
C2332 C2331 1.400 . S
C2332 C2335 1.386 . S
H2333 C2349 0.930 . S
H2334 C2350 0.931 . S
C2335 H2323 0.929 . S
C2335 C2329 1.390 . S
C2335 C2332 1.386 . S
C2336 C2331 1.490 . S
C2336 C2338 1.395 . S
C2336 C2339 1.403 . S
H2337 C2343 0.930 . S
C2338 H2324 0.930 . S
C2338 C2336 1.395 . S
C2338 C2341 1.403 . S
C2339 C2336 1.403 . S
C2339 C2340 1.524 . S
C2339 C2343 1.400 . S
C2340 H2325 0.960 . S
C2340 H2326 0.960 . S
C2340 H2327 0.960 . S
C2340 C2339 1.524 . S
C2341 C2338 1.403 . S
C2341 C2342 1.392 . S
C2341 C2345 1.495 . S
C2342 C2341 1.392 . S
C2342 C2343 1.385 . S
C2342 C2344 1.478 . S
C2343 H2337 0.930 . S
C2343 C2339 1.400 . S
C2343 C2342 1.385 . S
C2344 C2342 1.478 . S
C2344 C2346 1.381 . S
C2344 C2350 1.383 . S
C2345 C2341 1.495 . S
C2345 H2351 0.959 . S
C2345 H2352 0.961 . S
C2345 H2353 0.960 . S
C2346 C2344 1.381 . S
C2346 C2347 1.394 . S
C2346 H2354 0.930 . S
C2347 C2346 1.394 . S
C2347 C2348 1.383 . S
C2347 H2355 0.929 . S
C2348 C2347 1.383 . S
C2348 C2349 1.377 . S
C2349 H2333 0.930 . S
C2349 C2348 1.377 . S
C2349 C2350 1.379 . S
C2350 H2334 0.931 . S
C2350 C2344 1.383 . S
C2350 C2349 1.379 . S
H2351 C2345 0.959 . S
H2352 C2345 0.961 . S
H2353 C2345 0.960 . S
H2354 C2346 0.930 . S
H2355 C2347 0.929 . S
H2356 C2364 0.929 . S
H2357 C2366 0.930 . S
H2358 C2368 0.930 . S
H2359 C2371 0.929 . S
H2360 C2374 0.930 . S
H2361 C2376 0.960 . S
H2362 C2376 0.960 . S
H2363 C2376 0.960 . S
C2364 H2356 0.929 . S
C2364 C2365 1.377 . S
C2364 C2366 1.384 . S
C2365 C2364 1.377 . S
C2365 C2371 1.390 . S
C2366 H2357 0.930 . S
C2366 C2364 1.384 . S
C2366 C2367 1.372 . S
C2367 C2366 1.372 . S
C2367 C2368 1.400 . S
C2367 C2372 1.490 . S
C2368 H2358 0.930 . S
C2368 C2367 1.400 . S
C2368 C2371 1.386 . S
H2369 C2385 0.930 . S
H2370 C2386 0.931 . S
C2371 H2359 0.929 . S
C2371 C2365 1.390 . S
C2371 C2368 1.386 . S
C2372 C2367 1.490 . S
C2372 C2374 1.395 . S
C2372 C2375 1.403 . S
H2373 C2379 0.930 . S
C2374 H2360 0.930 . S
C2374 C2372 1.395 . S
C2374 C2377 1.403 . S
C2375 C2372 1.403 . S
C2375 C2376 1.524 . S
C2375 C2379 1.400 . S
C2376 H2361 0.960 . S
C2376 H2362 0.960 . S
C2376 H2363 0.960 . S
C2376 C2375 1.524 . S
C2377 C2374 1.403 . S
C2377 C2378 1.392 . S
C2377 C2381 1.495 . S
C2378 C2377 1.392 . S
C2378 C2379 1.385 . S
C2378 C2380 1.478 . S
C2379 H2373 0.930 . S
C2379 C2375 1.400 . S
C2379 C2378 1.385 . S
C2380 C2378 1.478 . S
C2380 C2382 1.381 . S
C2380 C2386 1.383 . S
C2381 C2377 1.495 . S
C2381 H2387 0.959 . S
C2381 H2388 0.961 . S
C2381 H2389 0.960 . S
C2382 C2380 1.381 . S
C2382 C2383 1.394 . S
C2382 H2390 0.930 . S
C2383 C2382 1.394 . S
C2383 C2384 1.383 . S
C2383 H2391 0.929 . S
C2384 C2383 1.383 . S
C2384 C2385 1.377 . S
C2385 H2369 0.930 . S
C2385 C2384 1.377 . S
C2385 C2386 1.379 . S
C2386 H2370 0.931 . S
C2386 C2380 1.383 . S
C2386 C2385 1.379 . S
H2387 C2381 0.959 . S
H2388 C2381 0.961 . S
H2389 C2381 0.960 . S
H2390 C2382 0.930 . S
H2391 C2383 0.929 . S
H2392 C2400 0.929 . S
H2393 C2402 0.930 . S
H2394 C2404 0.930 . S
H2395 C2407 0.929 . S
H2396 C2410 0.930 . S
H2397 C2412 0.960 . S
H2398 C2412 0.960 . S
H2399 C2412 0.960 . S
C2400 H2392 0.929 . S
C2400 C2401 1.377 . S
C2400 C2402 1.384 . S
C2401 C2400 1.377 . S
C2401 C2407 1.390 . S
C2402 H2393 0.930 . S
C2402 C2400 1.384 . S
C2402 C2403 1.372 . S
C2403 C2402 1.372 . S
C2403 C2404 1.400 . S
C2403 C2408 1.490 . S
C2404 H2394 0.930 . S
C2404 C2403 1.400 . S
C2404 C2407 1.386 . S
H2405 C2421 0.930 . S
H2406 C2422 0.931 . S
C2407 H2395 0.929 . S
C2407 C2401 1.390 . S
C2407 C2404 1.386 . S
C2408 C2403 1.490 . S
C2408 C2410 1.395 . S
C2408 C2411 1.403 . S
H2409 C2415 0.930 . S
C2410 H2396 0.930 . S
C2410 C2408 1.395 . S
C2410 C2413 1.403 . S
C2411 C2408 1.403 . S
C2411 C2412 1.524 . S
C2411 C2415 1.400 . S
C2412 H2397 0.960 . S
C2412 H2398 0.960 . S
C2412 H2399 0.960 . S
C2412 C2411 1.524 . S
C2413 C2410 1.403 . S
C2413 C2414 1.392 . S
C2413 C2417 1.495 . S
C2414 C2413 1.392 . S
C2414 C2415 1.385 . S
C2414 C2416 1.478 . S
C2415 H2409 0.930 . S
C2415 C2411 1.400 . S
C2415 C2414 1.385 . S
C2416 C2414 1.478 . S
C2416 C2418 1.381 . S
C2416 C2422 1.383 . S
C2417 C2413 1.495 . S
C2417 H2423 0.959 . S
C2417 H2424 0.961 . S
C2417 H2425 0.960 . S
C2418 C2416 1.381 . S
C2418 C2419 1.394 . S
C2418 H2426 0.930 . S
C2419 C2418 1.394 . S
C2419 C2420 1.383 1_554 S
C2419 H2427 0.929 . S
C2420 C2419 1.383 1_556 S
C2420 C2421 1.377 . S
C2421 H2405 0.930 . S
C2421 C2420 1.377 . S
C2421 C2422 1.379 1_556 S
C2422 H2406 0.931 . S
C2422 C2416 1.383 . S
C2422 C2421 1.379 1_554 S
H2423 C2417 0.959 . S
H2424 C2417 0.961 . S
H2425 C2417 0.960 . S
H2426 C2418 0.930 . S
H2427 C2419 0.929 . S
H2428 C2436 0.929 . S
H2429 C2438 0.930 . S
H2430 C2440 0.930 . S
H2431 C2443 0.929 . S
H2432 C2446 0.930 . S
H2433 C2448 0.960 . S
H2434 C2448 0.960 . S
H2435 C2448 0.960 . S
C2436 H2428 0.929 . S
C2436 C2437 1.377 . S
C2436 C2438 1.384 . S
C2437 C2436 1.377 . S
C2437 C2443 1.390 . S
C2438 H2429 0.930 . S
C2438 C2436 1.384 . S
C2438 C2439 1.372 . S
C2439 C2438 1.372 . S
C2439 C2440 1.400 . S
C2439 C2444 1.490 . S
C2440 H2430 0.930 . S
C2440 C2439 1.400 . S
C2440 C2443 1.386 . S
H2441 C2457 0.930 . S
H2442 C2458 0.931 . S
C2443 H2431 0.929 . S
C2443 C2437 1.390 . S
C2443 C2440 1.386 . S
C2444 C2439 1.490 . S
C2444 C2446 1.395 . S
C2444 C2447 1.403 . S
H2445 C2451 0.930 . S
C2446 H2432 0.930 . S
C2446 C2444 1.395 . S
C2446 C2449 1.403 . S
C2447 C2444 1.403 . S
C2447 C2448 1.524 . S
C2447 C2451 1.400 . S
C2448 H2433 0.960 . S
C2448 H2434 0.960 . S
C2448 H2435 0.960 . S
C2448 C2447 1.524 . S
C2449 C2446 1.403 . S
C2449 C2450 1.392 . S
C2449 C2453 1.495 . S
C2450 C2449 1.392 . S
C2450 C2451 1.385 . S
C2450 C2452 1.478 . S
C2451 H2445 0.930 . S
C2451 C2447 1.400 . S
C2451 C2450 1.385 . S
C2452 C2450 1.478 . S
C2452 C2454 1.381 . S
C2452 C2458 1.383 . S
C2453 C2449 1.495 . S
C2453 H2459 0.959 . S
C2453 H2460 0.961 . S
C2453 H2461 0.960 . S
C2454 C2452 1.381 . S
C2454 C2455 1.394 . S
C2454 H2462 0.930 . S
C2455 C2454 1.394 . S
C2455 C2456 1.383 1_556 S
C2455 H2463 0.929 . S
C2456 C2455 1.383 1_554 S
C2456 C2457 1.377 . S
C2457 H2441 0.930 . S
C2457 C2456 1.377 . S
C2457 C2458 1.379 1_554 S
C2458 H2442 0.931 . S
C2458 C2452 1.383 . S
C2458 C2457 1.379 1_556 S
H2459 C2453 0.959 . S
H2460 C2453 0.961 . S
H2461 C2453 0.960 . S
H2462 C2454 0.930 . S
H2463 C2455 0.929 . S
H2464 C2472 0.929 1_554 S
H2465 C2474 0.930 . S
H2466 C2476 0.930 . S
H2467 C2479 0.929 . S
H2468 C2482 0.930 . S
H2469 C2484 0.960 . S
H2470 C2484 0.960 . S
H2471 C2484 0.960 . S
C2472 H2464 0.929 1_556 S
C2472 C2473 1.377 1_556 S
C2472 C2474 1.384 . S
C2473 C2472 1.377 1_554 S
C2473 C2479 1.390 . S
C2474 H2465 0.930 . S
C2474 C2472 1.384 . S
C2474 C2475 1.372 . S
C2475 C2474 1.372 . S
C2475 C2476 1.400 . S
C2475 C2480 1.490 . S
C2476 H2466 0.930 . S
C2476 C2475 1.400 . S
C2476 C2479 1.386 1_556 S
H2477 C2493 0.930 . S
H2478 C2494 0.931 . S
C2479 H2467 0.929 . S
C2479 C2473 1.390 . S
C2479 C2476 1.386 1_554 S
C2480 C2475 1.490 . S
C2480 C2482 1.395 . S
C2480 C2483 1.403 . S
H2481 C2487 0.930 . S
C2482 H2468 0.930 . S
C2482 C2480 1.395 . S
C2482 C2485 1.403 . S
C2483 C2480 1.403 . S
C2483 C2484 1.524 . S
C2483 C2487 1.400 . S
C2484 H2469 0.960 . S
C2484 H2470 0.960 . S
C2484 H2471 0.960 . S
C2484 C2483 1.524 . S
C2485 C2482 1.403 . S
C2485 C2486 1.392 . S
C2485 C2489 1.495 . S
C2486 C2485 1.392 . S
C2486 C2487 1.385 . S
C2486 C2488 1.478 . S
C2487 H2481 0.930 . S
C2487 C2483 1.400 . S
C2487 C2486 1.385 . S
C2488 C2486 1.478 . S
C2488 C2490 1.381 . S
C2488 C2494 1.383 . S
C2489 C2485 1.495 . S
C2489 H2495 0.959 . S
C2489 H2496 0.961 . S
C2489 H2497 0.960 . S
C2490 C2488 1.381 . S
C2490 C2491 1.394 . S
C2490 H2498 0.930 . S
C2491 C2490 1.394 . S
C2491 C2492 1.383 . S
C2491 H2499 0.929 . S
C2492 C2491 1.383 . S
C2492 C2493 1.377 . S
C2493 H2477 0.930 . S
C2493 C2492 1.377 . S
C2493 C2494 1.379 . S
C2494 H2478 0.931 . S
C2494 C2488 1.383 . S
C2494 C2493 1.379 . S
H2495 C2489 0.959 . S
H2496 C2489 0.961 . S
H2497 C2489 0.960 . S
H2498 C2490 0.930 . S
H2499 C2491 0.929 . S
H2500 C2508 0.929 . S
H2501 C2510 0.930 . S
H2502 C2512 0.930 . S
H2503 C2515 0.929 . S
H2504 C2518 0.930 . S
H2505 C2520 0.960 . S
H2506 C2520 0.960 . S
H2507 C2520 0.960 . S
C2508 H2500 0.929 . S
C2508 C2509 1.377 . S
C2508 C2510 1.384 . S
C2509 C2508 1.377 . S
C2509 C2515 1.390 . S
C2510 H2501 0.930 . S
C2510 C2508 1.384 . S
C2510 C2511 1.372 . S
C2511 C2510 1.372 . S
C2511 C2512 1.400 . S
C2511 C2516 1.490 . S
C2512 H2502 0.930 . S
C2512 C2511 1.400 . S
C2512 C2515 1.386 . S
H2513 C2529 0.930 . S
H2514 C2530 0.931 . S
C2515 H2503 0.929 . S
C2515 C2509 1.390 . S
C2515 C2512 1.386 . S
C2516 C2511 1.490 . S
C2516 C2518 1.395 . S
C2516 C2519 1.403 . S
H2517 C2523 0.930 . S
C2518 H2504 0.930 . S
C2518 C2516 1.395 . S
C2518 C2521 1.403 . S
C2519 C2516 1.403 . S
C2519 C2520 1.524 . S
C2519 C2523 1.400 . S
C2520 H2505 0.960 . S
C2520 H2506 0.960 . S
C2520 H2507 0.960 . S
C2520 C2519 1.524 . S
C2521 C2518 1.403 . S
C2521 C2522 1.392 . S
C2521 C2525 1.495 . S
C2522 C2521 1.392 . S
C2522 C2523 1.385 . S
C2522 C2524 1.478 . S
C2523 H2517 0.930 . S
C2523 C2519 1.400 . S
C2523 C2522 1.385 . S
C2524 C2522 1.478 . S
C2524 C2526 1.381 . S
C2524 C2530 1.383 . S
C2525 C2521 1.495 . S
C2525 H2531 0.959 . S
C2525 H2532 0.961 . S
C2525 H2533 0.960 . S
C2526 C2524 1.381 . S
C2526 C2527 1.394 . S
C2526 H2534 0.930 . S
C2527 C2526 1.394 . S
C2527 C2528 1.383 1_554 S
C2527 H2535 0.929 . S
C2528 C2527 1.383 1_556 S
C2528 C2529 1.377 . S
C2529 H2513 0.930 . S
C2529 C2528 1.377 . S
C2529 C2530 1.379 1_556 S
C2530 H2514 0.931 . S
C2530 C2524 1.383 . S
C2530 C2529 1.379 1_554 S
H2531 C2525 0.959 . S
H2532 C2525 0.961 . S
H2533 C2525 0.960 . S
H2534 C2526 0.930 . S
H2535 C2527 0.929 . S
H2536 C2544 0.929 . S
H2537 C2546 0.930 . S
H2538 C2548 0.930 . S
H2539 C2551 0.929 . S
H2540 C2554 0.930 . S
H2541 C2556 0.960 . S
H2542 C2556 0.960 . S
H2543 C2556 0.960 . S
C2544 H2536 0.929 . S
C2544 C2545 1.377 . S
C2544 C2546 1.384 . S
C2545 C2544 1.377 . S
C2545 C2551 1.390 . S
C2546 H2537 0.930 . S
C2546 C2544 1.384 . S
C2546 C2547 1.372 . S
C2547 C2546 1.372 . S
C2547 C2548 1.400 . S
C2547 C2552 1.490 . S
C2548 H2538 0.930 . S
C2548 C2547 1.400 . S
C2548 C2551 1.386 . S
H2549 C2565 0.930 . S
H2550 C2566 0.931 . S
C2551 H2539 0.929 . S
C2551 C2545 1.390 . S
C2551 C2548 1.386 . S
C2552 C2547 1.490 . S
C2552 C2554 1.395 . S
C2552 C2555 1.403 . S
H2553 C2559 0.930 . S
C2554 H2540 0.930 . S
C2554 C2552 1.395 . S
C2554 C2557 1.403 . S
C2555 C2552 1.403 . S
C2555 C2556 1.524 . S
C2555 C2559 1.400 . S
C2556 H2541 0.960 . S
C2556 H2542 0.960 . S
C2556 H2543 0.960 . S
C2556 C2555 1.524 . S
C2557 C2554 1.403 . S
C2557 C2558 1.392 . S
C2557 C2561 1.495 . S
C2558 C2557 1.392 . S
C2558 C2559 1.385 . S
C2558 C2560 1.478 . S
C2559 H2553 0.930 . S
C2559 C2555 1.400 . S
C2559 C2558 1.385 . S
C2560 C2558 1.478 . S
C2560 C2562 1.381 . S
C2560 C2566 1.383 . S
C2561 C2557 1.495 . S
C2561 H2567 0.959 . S
C2561 H2568 0.961 . S
C2561 H2569 0.960 . S
C2562 C2560 1.381 . S
C2562 C2563 1.394 . S
C2562 H2570 0.930 . S
C2563 C2562 1.394 . S
C2563 C2564 1.383 . S
C2563 H2571 0.929 . S
C2564 C2563 1.383 . S
C2564 C2565 1.377 . S
C2565 H2549 0.930 . S
C2565 C2564 1.377 . S
C2565 C2566 1.379 . S
C2566 H2550 0.931 . S
C2566 C2560 1.383 . S
C2566 C2565 1.379 . S
H2567 C2561 0.959 . S
H2568 C2561 0.961 . S
H2569 C2561 0.960 . S
H2570 C2562 0.930 . S
H2571 C2563 0.929 . S
H2572 C2580 0.929 . S
H2573 C2582 0.930 . S
H2574 C2584 0.930 . S
H2575 C2587 0.929 . S
H2576 C2590 0.930 . S
H2577 C2592 0.960 . S
H2578 C2592 0.960 . S
H2579 C2592 0.960 . S
C2580 H2572 0.929 . S
C2580 C2581 1.377 . S
C2580 C2582 1.384 . S
C2581 C2580 1.377 . S
C2581 C2587 1.390 . S
C2582 H2573 0.930 . S
C2582 C2580 1.384 . S
C2582 C2583 1.372 . S
C2583 C2582 1.372 . S
C2583 C2584 1.400 . S
C2583 C2588 1.490 . S
C2584 H2574 0.930 . S
C2584 C2583 1.400 . S
C2584 C2587 1.386 . S
H2585 C2601 0.930 . S
H2586 C2602 0.931 . S
C2587 H2575 0.929 . S
C2587 C2581 1.390 . S
C2587 C2584 1.386 . S
C2588 C2583 1.490 . S
C2588 C2590 1.395 . S
C2588 C2591 1.403 . S
H2589 C2595 0.930 . S
C2590 H2576 0.930 . S
C2590 C2588 1.395 . S
C2590 C2593 1.403 . S
C2591 C2588 1.403 . S
C2591 C2592 1.524 . S
C2591 C2595 1.400 . S
C2592 H2577 0.960 . S
C2592 H2578 0.960 . S
C2592 H2579 0.960 . S
C2592 C2591 1.524 . S
C2593 C2590 1.403 . S
C2593 C2594 1.392 . S
C2593 C2597 1.495 . S
C2594 C2593 1.392 . S
C2594 C2595 1.385 . S
C2594 C2596 1.478 . S
C2595 H2589 0.930 . S
C2595 C2591 1.400 . S
C2595 C2594 1.385 . S
C2596 C2594 1.478 . S
C2596 C2598 1.381 . S
C2596 C2602 1.383 . S
C2597 C2593 1.495 . S
C2597 H2603 0.959 . S
C2597 H2604 0.961 . S
C2597 H2605 0.960 . S
C2598 C2596 1.381 . S
C2598 C2599 1.394 . S
C2598 H2606 0.930 . S
C2599 C2598 1.394 . S
C2599 C2600 1.383 . S
C2599 H2607 0.929 . S
C2600 C2599 1.383 . S
C2600 C2601 1.377 . S
C2601 H2585 0.930 . S
C2601 C2600 1.377 . S
C2601 C2602 1.379 . S
C2602 H2586 0.931 . S
C2602 C2596 1.383 . S
C2602 C2601 1.379 . S
H2603 C2597 0.959 . S
H2604 C2597 0.961 . S
H2605 C2597 0.960 . S
H2606 C2598 0.930 . S
H2607 C2599 0.929 . S
H2608 C2616 0.929 . S
H2609 C2618 0.930 . S
H2610 C2620 0.930 . S
H2611 C2623 0.929 . S
H2612 C2626 0.930 . S
H2613 C2628 0.960 . S
H2614 C2628 0.960 . S
H2615 C2628 0.960 . S
C2616 H2608 0.929 . S
C2616 C2617 1.377 . S
C2616 C2618 1.384 . S
C2617 C2616 1.377 . S
C2617 C2623 1.390 . S
C2618 H2609 0.930 . S
C2618 C2616 1.384 . S
C2618 C2619 1.372 . S
C2619 C2618 1.372 . S
C2619 C2620 1.400 . S
C2619 C2624 1.490 . S
C2620 H2610 0.930 . S
C2620 C2619 1.400 . S
C2620 C2623 1.386 . S
H2621 C2637 0.930 . S
H2622 C2638 0.931 . S
C2623 H2611 0.929 . S
C2623 C2617 1.390 . S
C2623 C2620 1.386 . S
C2624 C2619 1.490 . S
C2624 C2626 1.395 . S
C2624 C2627 1.403 . S
H2625 C2631 0.930 . S
C2626 H2612 0.930 . S
C2626 C2624 1.395 . S
C2626 C2629 1.403 . S
C2627 C2624 1.403 . S
C2627 C2628 1.524 . S
C2627 C2631 1.400 . S
C2628 H2613 0.960 . S
C2628 H2614 0.960 . S
C2628 H2615 0.960 . S
C2628 C2627 1.524 . S
C2629 C2626 1.403 . S
C2629 C2630 1.392 . S
C2629 C2633 1.495 . S
C2630 C2629 1.392 . S
C2630 C2631 1.385 . S
C2630 C2632 1.478 . S
C2631 H2625 0.930 . S
C2631 C2627 1.400 . S
C2631 C2630 1.385 . S
C2632 C2630 1.478 . S
C2632 C2634 1.381 . S
C2632 C2638 1.383 . S
C2633 C2629 1.495 . S
C2633 H2639 0.959 . S
C2633 H2640 0.961 . S
C2633 H2641 0.960 . S
C2634 C2632 1.381 . S
C2634 C2635 1.394 . S
C2634 H2642 0.930 . S
C2635 C2634 1.394 . S
C2635 C2636 1.383 1_554 S
C2635 H2643 0.929 . S
C2636 C2635 1.383 1_556 S
C2636 C2637 1.377 . S
C2637 H2621 0.930 . S
C2637 C2636 1.377 . S
C2637 C2638 1.379 1_556 S
C2638 H2622 0.931 . S
C2638 C2632 1.383 . S
C2638 C2637 1.379 1_554 S
H2639 C2633 0.959 . S
H2640 C2633 0.961 . S
H2641 C2633 0.960 . S
H2642 C2634 0.930 . S
H2643 C2635 0.929 . S
H2644 C2652 0.929 1_554 S
H2645 C2654 0.930 . S
H2646 C2656 0.930 . S
H2647 C2659 0.929 . S
H2648 C2662 0.930 . S
H2649 C2664 0.960 . S
H2650 C2664 0.960 . S
H2651 C2664 0.960 . S
C2652 H2644 0.929 1_556 S
C2652 C2653 1.377 1_556 S
C2652 C2654 1.384 . S
C2653 C2652 1.377 1_554 S
C2653 C2659 1.390 . S
C2654 H2645 0.930 . S
C2654 C2652 1.384 . S
C2654 C2655 1.372 . S
C2655 C2654 1.372 . S
C2655 C2656 1.400 . S
C2655 C2660 1.490 . S
C2656 H2646 0.930 . S
C2656 C2655 1.400 . S
C2656 C2659 1.386 1_556 S
H2657 C2673 0.930 . S
H2658 C2674 0.931 . S
C2659 H2647 0.929 . S
C2659 C2653 1.390 . S
C2659 C2656 1.386 1_554 S
C2660 C2655 1.490 . S
C2660 C2662 1.395 . S
C2660 C2663 1.403 . S
H2661 C2667 0.930 . S
C2662 H2648 0.930 . S
C2662 C2660 1.395 . S
C2662 C2665 1.403 . S
C2663 C2660 1.403 . S
C2663 C2664 1.524 . S
C2663 C2667 1.400 . S
C2664 H2649 0.960 . S
C2664 H2650 0.960 . S
C2664 H2651 0.960 . S
C2664 C2663 1.524 . S
C2665 C2662 1.403 . S
C2665 C2666 1.392 . S
C2665 C2669 1.495 . S
C2666 C2665 1.392 . S
C2666 C2667 1.385 . S
C2666 C2668 1.478 . S
C2667 H2661 0.930 . S
C2667 C2663 1.400 . S
C2667 C2666 1.385 . S
C2668 C2666 1.478 . S
C2668 C2670 1.381 . S
C2668 C2674 1.383 . S
C2669 C2665 1.495 . S
C2669 H2675 0.959 . S
C2669 H2676 0.961 . S
C2669 H2677 0.960 . S
C2670 C2668 1.381 . S
C2670 C2671 1.394 . S
C2670 H2678 0.930 . S
C2671 C2670 1.394 . S
C2671 C2672 1.383 . S
C2671 H2679 0.929 . S
C2672 C2671 1.383 . S
C2672 C2673 1.377 . S
C2673 H2657 0.930 . S
C2673 C2672 1.377 . S
C2673 C2674 1.379 . S
C2674 H2658 0.931 . S
C2674 C2668 1.383 . S
C2674 C2673 1.379 . S
H2675 C2669 0.959 . S
H2676 C2669 0.961 . S
H2677 C2669 0.960 . S
H2678 C2670 0.930 . S
H2679 C2671 0.929 . S
H2680 C2688 0.929 . S
H2681 C2690 0.930 . S
H2682 C2692 0.930 . S
H2683 C2695 0.929 . S
H2684 C2698 0.930 . S
H2685 C2700 0.960 . S
H2686 C2700 0.960 . S
H2687 C2700 0.960 . S
C2688 H2680 0.929 . S
C2688 C2689 1.377 . S
C2688 C2690 1.384 . S
C2689 C2688 1.377 . S
C2689 C2695 1.390 . S
C2690 H2681 0.930 . S
C2690 C2688 1.384 . S
C2690 C2691 1.372 . S
C2691 C2690 1.372 . S
C2691 C2692 1.400 . S
C2691 C2696 1.490 . S
C2692 H2682 0.930 . S
C2692 C2691 1.400 . S
C2692 C2695 1.386 . S
H2693 C2709 0.930 . S
H2694 C2710 0.931 . S
C2695 H2683 0.929 . S
C2695 C2689 1.390 . S
C2695 C2692 1.386 . S
C2696 C2691 1.490 . S
C2696 C2698 1.395 . S
C2696 C2699 1.403 . S
H2697 C2703 0.930 . S
C2698 H2684 0.930 . S
C2698 C2696 1.395 . S
C2698 C2701 1.403 . S
C2699 C2696 1.403 . S
C2699 C2700 1.524 . S
C2699 C2703 1.400 . S
C2700 H2685 0.960 . S
C2700 H2686 0.960 . S
C2700 H2687 0.960 . S
C2700 C2699 1.524 . S
C2701 C2698 1.403 . S
C2701 C2702 1.392 . S
C2701 C2705 1.495 . S
C2702 C2701 1.392 . S
C2702 C2703 1.385 . S
C2702 C2704 1.478 . S
C2703 H2697 0.930 . S
C2703 C2699 1.400 . S
C2703 C2702 1.385 . S
C2704 C2702 1.478 . S
C2704 C2706 1.381 . S
C2704 C2710 1.383 . S
C2705 C2701 1.495 . S
C2705 H2711 0.959 . S
C2705 H2712 0.961 . S
C2705 H2713 0.960 . S
C2706 C2704 1.381 . S
C2706 C2707 1.394 . S
C2706 H2714 0.930 . S
C2707 C2706 1.394 . S
C2707 C2708 1.383 . S
C2707 H2715 0.929 . S
C2708 C2707 1.383 . S
C2708 C2709 1.377 . S
C2709 H2693 0.930 . S
C2709 C2708 1.377 . S
C2709 C2710 1.379 . S
C2710 H2694 0.931 . S
C2710 C2704 1.383 . S
C2710 C2709 1.379 . S
H2711 C2705 0.959 . S
H2712 C2705 0.961 . S
H2713 C2705 0.960 . S
H2714 C2706 0.930 . S
H2715 C2707 0.929 . S
H2716 C2724 0.929 . S
H2717 C2726 0.930 . S
H2718 C2728 0.930 . S
H2719 C2731 0.929 . S
H2720 C2734 0.930 . S
H2721 C2736 0.960 . S
H2722 C2736 0.960 . S
H2723 C2736 0.960 . S
C2724 H2716 0.929 . S
C2724 C2725 1.377 . S
C2724 C2726 1.384 . S
C2725 C2724 1.377 . S
C2725 C2731 1.390 . S
C2726 H2717 0.930 . S
C2726 C2724 1.384 . S
C2726 C2727 1.372 . S
C2727 C2726 1.372 . S
C2727 C2728 1.400 . S
C2727 C2732 1.490 . S
C2728 H2718 0.930 . S
C2728 C2727 1.400 . S
C2728 C2731 1.386 . S
H2729 C2745 0.930 . S
H2730 C2746 0.931 . S
C2731 H2719 0.929 . S
C2731 C2725 1.390 . S
C2731 C2728 1.386 . S
C2732 C2727 1.490 . S
C2732 C2734 1.395 . S
C2732 C2735 1.403 . S
H2733 C2739 0.930 . S
C2734 H2720 0.930 . S
C2734 C2732 1.395 . S
C2734 C2737 1.403 . S
C2735 C2732 1.403 . S
C2735 C2736 1.524 . S
C2735 C2739 1.400 . S
C2736 H2721 0.960 . S
C2736 H2722 0.960 . S
C2736 H2723 0.960 . S
C2736 C2735 1.524 . S
C2737 C2734 1.403 . S
C2737 C2738 1.392 . S
C2737 C2741 1.495 . S
C2738 C2737 1.392 . S
C2738 C2739 1.385 . S
C2738 C2740 1.478 . S
C2739 H2733 0.930 . S
C2739 C2735 1.400 . S
C2739 C2738 1.385 . S
C2740 C2738 1.478 . S
C2740 C2742 1.381 . S
C2740 C2746 1.383 . S
C2741 C2737 1.495 . S
C2741 H2747 0.959 . S
C2741 H2748 0.961 . S
C2741 H2749 0.960 . S
C2742 C2740 1.381 . S
C2742 C2743 1.394 . S
C2742 H2750 0.930 . S
C2743 C2742 1.394 . S
C2743 C2744 1.383 . S
C2743 H2751 0.929 . S
C2744 C2743 1.383 . S
C2744 C2745 1.377 . S
C2745 H2729 0.930 . S
C2745 C2744 1.377 . S
C2745 C2746 1.379 . S
C2746 H2730 0.931 . S
C2746 C2740 1.383 . S
C2746 C2745 1.379 . S
H2747 C2741 0.959 . S
H2748 C2741 0.961 . S
H2749 C2741 0.960 . S
H2750 C2742 0.930 . S
H2751 C2743 0.929 . S
C457 C89 1.485 . S
C476 C5 1.478 . S
C493 C19 1.485 . S
C512 C103 1.477 . S
C529 C61 1.484 . S
C548 C33 1.487 . S
C565 C47 1.485 . S
C584 C75 1.480 . S
C601 C117 1.484 . S
C620 C201 1.478 . S
C637 C215 1.485 . S
C656 C131 1.484 . S
C673 C145 1.484 . S
C692 C173 1.480 . S
C709 C187 1.484 . S
C728 C159 1.478 . S
C745 C229 1.485 . S
C764 C313 1.477 . S
C781 C243 1.485 . S
C800 C327 1.480 . S
C817 C285 1.486 . S
C836 C257 1.477 . S
C853 C299 1.485 . S
C872 C271 1.477 . S
C889 C341 1.483 . S
C908 C425 1.477 . S
C925 C355 1.485 . S
C944 C439 1.486 . S
C961 C397 1.483 . S
C980 C369 1.476 . S
C997 C383 1.484 . S
C1016 C411 1.477 . S
C1033 C11 1.468 . S
C1052 C109 1.474 . S
C1069 C67 1.468 . S
C1088 C25 1.475 . S
C1105 C81 1.471 . S
C1124 C39 1.461 . S
C1141 C53 1.470 . S
C1160 C95 1.464 . S
C1177 C123 1.471 . S
C1196 C221 1.476 . S
C1213 C179 1.469 . S
C1232 C137 1.472 . S
C1249 C193 1.471 . S
C1268 C151 1.476 . S
C1285 C207 1.469 . S
C1304 C165 1.473 . S
C1321 C235 1.471 . S
C1340 C333 1.457 . S
C1357 C249 1.468 . S
C1376 C291 1.472 . S
C1393 C305 1.468 . S
C1412 C263 1.473 . S
C1429 C277 1.468 . S
C1448 C319 1.472 . S
C1465 C347 1.470 . S
C1484 C445 1.475 . S
C1501 C403 1.471 . S
C1520 C361 1.475 . S
C1537 C375 1.468 . S
C1556 C417 1.465 . S
C1573 C389 1.468 . S
C1592 C431 1.463 . S
C1609 C420 1.476 . S
C1628 C0 1.456 . S
C1645 C210 1.469 . S
C1664 C14 1.481 . S
C1681 C28 1.470 . S
C1700 C392 1.482 . S
C1717 C42 1.470 . S
C1736 C182 1.465 . S
C1753 C56 1.470 . S
C1772 C364 1.468 . S
C1789 C70 1.469 . S
C1808 C154 1.475 . S
C1825 C84 1.470 . S
C1844 C336 1.486 . S
C1861 C126 1.470 . S
C1880 C98 1.485 . S
C1897 C308 1.470 . S
C1916 C112 1.485 . S
C1933 C140 1.475 . S
C1952 C280 1.453 . S
C1969 C252 1.469 . S
C1988 C168 1.478 . S
C2005 C224 1.477 . S
C2024 C196 1.460 . S
C2041 C238 1.473 . S
C2060 C434 1.456 . S
C2077 C266 1.476 . S
C2096 C406 1.474 . S
C2113 C294 1.471 . S
C2132 C378 1.464 . S
C2149 C350 1.470 . S
C2168 C322 1.481 . S
C2185 C9 1.451 . S
C2204 C107 1.449 . S
C2221 C23 1.450 . S
C2240 C65 1.446 . S
C2257 C79 1.451 . S
C2276 C37 1.448 . S
C2293 C51 1.451 . S
C2312 C93 1.448 . S
C2329 C219 1.450 . S
C2348 C121 1.449 . S
C2365 C177 1.451 . S
C2384 C135 1.446 . S
C2401 C149 1.450 . S
C2420 C191 1.449 . S
C2437 C205 1.450 . S
C2456 C163 1.449 . S
C2473 C331 1.451 . S
C2492 C233 1.449 . S
C2509 C289 1.450 . S
C2528 C247 1.446 . S
C2545 C303 1.450 . S
C2564 C261 1.446 . S
C2581 C317 1.451 . S
C2600 C275 1.449 . S
C2617 C345 1.450 . S
C2636 C443 1.448 . S
C2653 C359 1.451 . S
C2672 C401 1.446 . S
C2689 C373 1.450 . S
C2708 C415 1.450 . S
C2725 C429 1.451 . S
C2744 C387 1.446 . S
