# Generated by pormake.
# Topology dia, (4)-cn, num edge types: 1
# Building blocks:
#     Node 0, Type 0, BuildingBlock: QUQFOY_clean_sbu_3, # of connection points: 4
#     Node 1, Type 0, BuildingBlock: QUQFOY_clean_sbu_3, # of connection points: 4
#     Node 2, Type 0, BuildingBlock: QUQFOY_clean_sbu_3, # of connection points: 4
#     Node 3, Type 0, BuildingBlock: QUQFOY_clean_sbu_3, # of connection points: 4
#     Node 4, Type 0, BuildingBlock: QUQFOY_clean_sbu_3, # of connection points: 4
#     Node 5, Type 0, BuildingBlock: QUQFOY_clean_sbu_3, # of connection points: 4
#     Node 6, Type 0, BuildingBlock: QUQFOY_clean_sbu_3, # of connection points: 4
#     Node 7, Type 0, BuildingBlock: QUQFOY_clean_sbu_3, # of connection points: 4
#     Edge 8, Type (0, 0), BuildingBlock: TEMPAE_clean_linker_10, # of connection points: 2
#     Edge 9, Type (0, 0), BuildingBlock: TEMPAE_clean_linker_10, # of connection points: 2
#     Edge 10, Type (0, 0), BuildingBlock: TEMPAE_clean_linker_10, # of connection points: 2
#     Edge 11, Type (0, 0), BuildingBlock: TEMPAE_clean_linker_10, # of connection points: 2
#     Edge 12, Type (0, 0), BuildingBlock: TEMPAE_clean_linker_10, # of connection points: 2
#     Edge 13, Type (0, 0), BuildingBlock: TEMPAE_clean_linker_10, # of connection points: 2
#     Edge 14, Type (0, 0), BuildingBlock: TEMPAE_clean_linker_10, # of connection points: 2
#     Edge 15, Type (0, 0), BuildingBlock: TEMPAE_clean_linker_10, # of connection points: 2
#     Edge 16, Type (0, 0), BuildingBlock: TEMPAE_clean_linker_10, # of connection points: 2
#     Edge 17, Type (0, 0), BuildingBlock: TEMPAE_clean_linker_10, # of connection points: 2
#     Edge 18, Type (0, 0), BuildingBlock: TEMPAE_clean_linker_10, # of connection points: 2
#     Edge 19, Type (0, 0), BuildingBlock: TEMPAE_clean_linker_10, # of connection points: 2
#     Edge 20, Type (0, 0), BuildingBlock: TEMPAE_clean_linker_10, # of connection points: 2
#     Edge 21, Type (0, 0), BuildingBlock: TEMPAE_clean_linker_10, # of connection points: 2
#     Edge 22, Type (0, 0), BuildingBlock: TEMPAE_clean_linker_10, # of connection points: 2
#     Edge 23, Type (0, 0), BuildingBlock: TEMPAE_clean_linker_10, # of connection points: 2
# Relax obj value: 0.120
# Max RMSD: 0.163
# Mean RMSD: 0.163
data_MOF--net-dia--node1-QUQFOY_clean_sbu_3--edge1-TEMPAE_clean_linker_10
_symmetry_space_group_name_H-M    P1
_symmetry_Int_Tables_number       1
_symmetry_cell_setting            triclinic
loop_
_symmetry_equiv_pos_as_xyz
'x, y, z'
_cell_length_a     34.379639
_cell_length_b     34.431993
_cell_length_c     40.516045
_cell_angle_alpha  90.058088
_cell_angle_beta   90.10142
_cell_angle_gamma 92.891539
loop_
_atom_site_label
_atom_site_type_symbol
_atom_site_fract_x
_atom_site_fract_y
_atom_site_fract_z
_atom_type_partial_charge
C0 C 0.03877 0.16356 0.63142 0.0
O1 O 0.02326 0.15641 0.60346 0.0
Cd2 Cd 0.05166 0.11772 0.56189 0.0
O3 O 0.07118 0.14945 0.63909 0.0
Cd4 Cd 0.11921 0.10607 0.61461 0.0
C5 C 0.1396 0.16774 0.55095 0.0
O6 O 0.07125 0.0612 0.5906 0.0
O7 O 0.13014 0.0523 0.57573 0.0
O8 O 0.12713 0.07636 0.66851 0.0
C9 C 0.09456 0.04075 0.57493 0.0
O10 O 0.1063 0.15731 0.53922 0.0
C11 C 0.16401 0.08072 0.66902 0.0
O12 O 0.15065 0.15495 0.57873 0.0
O13 O 0.18004 0.09788 0.64447 0.0
C14 C 0.81791 0.44641 0.83723 0.0
O15 O 0.82434 0.46219 0.86519 0.0
Cd16 Cd 0.86383 0.43552 0.90712 0.0
O17 O 0.83315 0.41453 0.82979 0.0
Cd18 Cd 0.87773 0.36817 0.85509 0.0
C19 C 0.81618 0.34667 0.91866 0.0
O20 O 0.92134 0.41752 0.87888 0.0
O21 O 0.93168 0.35919 0.89429 0.0
O22 O 0.90806 0.36019 0.80142 0.0
C23 C 0.94238 0.39495 0.8948 0.0
O24 O 0.82569 0.38024 0.93021 0.0
C25 C 0.90476 0.32331 0.80142 0.0
O26 O 0.82938 0.33582 0.89099 0.0
O27 O 0.88787 0.30729 0.8261 0.0
C28 C 0.54149 0.15749 0.13307 0.0
O29 O 0.5253 0.15051 0.10536 0.0
Cd30 Cd 0.55249 0.11222 0.06294 0.0
O31 O 0.57409 0.14333 0.14009 0.0
Cd32 Cd 0.62152 0.10012 0.11444 0.0
C33 C 0.6401 0.16267 0.05104 0.0
O34 O 0.57299 0.05562 0.09092 0.0
O35 O 0.6314 0.04689 0.0747 0.0
O36 O 0.63068 0.06991 0.16796 0.0
C37 C 0.59579 0.0354 0.07448 0.0
O38 O 0.60654 0.15226 0.03982 0.0
C39 C 0.66757 0.07417 0.16785 0.0
O40 O 0.6519 0.14956 0.07847 0.0
O41 O 0.68306 0.09146 0.14312 0.0
C42 C 0.82988 0.94735 0.34058 0.0
O43 O 0.83646 0.96367 0.3683 0.0
Cd44 Cd 0.87417 0.93645 0.41119 0.0
O45 O 0.84416 0.91477 0.33391 0.0
Cd46 Cd 0.88695 0.86743 0.36015 0.0
C47 C 0.82325 0.84922 0.42284 0.0
O48 O 0.93137 0.91584 0.384 0.0
O49 O 0.93981 0.85743 0.40026 0.0
O50 O 0.91769 0.85816 0.3069 0.0
C51 C 0.95139 0.89296 0.40056 0.0
O52 O 0.83354 0.88273 0.43412 0.0
C53 C 0.91322 0.82134 0.30698 0.0
O54 O 0.83684 0.83736 0.39563 0.0
O55 O 0.89563 0.80592 0.3316 0.0
C56 C 0.03759 0.66019 0.13228 0.0
O57 O 0.02128 0.65497 0.10437 0.0
Cd58 Cd 0.04812 0.61843 0.06062 0.0
O59 O 0.06989 0.64509 0.13864 0.0
Cd60 Cd 0.11637 0.60242 0.11118 0.0
C61 C 0.13638 0.6679 0.05027 0.0
O62 O 0.0673 0.5596 0.08604 0.0
O63 O 0.12571 0.55135 0.06947 0.0
O64 O 0.12506 0.56904 0.16339 0.0
C65 C 0.09006 0.54004 0.06895 0.0
O66 O 0.10272 0.65867 0.03867 0.0
C67 C 0.16196 0.57306 0.16348 0.0
O68 O 0.1478 0.65318 0.0772 0.0
O69 O 0.17768 0.5916 0.13949 0.0
C70 C 0.32404 0.44469 0.33563 0.0
O71 O 0.33021 0.46116 0.36333 0.0
Cd72 Cd 0.36892 0.43553 0.40627 0.0
O73 O 0.33921 0.41254 0.32894 0.0
Cd74 Cd 0.38331 0.36665 0.35558 0.0
C75 C 0.32051 0.34717 0.4187 0.0
O76 O 0.42661 0.41642 0.379 0.0
O77 O 0.43648 0.35854 0.39579 0.0
O78 O 0.41454 0.3573 0.3025 0.0
C79 C 0.44725 0.39428 0.39573 0.0
O80 O 0.33002 0.38097 0.42975 0.0
C81 C 0.41101 0.32043 0.30305 0.0
O82 O 0.33415 0.33551 0.39144 0.0
O83 O 0.39362 0.30504 0.32778 0.0
C84 C 0.32404 0.95074 0.84139 0.0
O85 O 0.33067 0.96633 0.86939 0.0
Cd86 Cd 0.36883 0.93801 0.91149 0.0
O87 O 0.33841 0.91841 0.83403 0.0
Cd88 Cd 0.38138 0.87054 0.85919 0.0
C89 C 0.31848 0.85037 0.92208 0.0
O90 O 0.42608 0.91836 0.88372 0.0
O91 O 0.43459 0.85944 0.89858 0.0
O92 O 0.41188 0.86243 0.80564 0.0
C93 C 0.44624 0.89494 0.89957 0.0
O94 O 0.32875 0.8836 0.93392 0.0
C95 C 0.40727 0.82563 0.80513 0.0
O96 O 0.33176 0.83934 0.8945 0.0
O97 O 0.38969 0.80972 0.82954 0.0
C98 C 0.53507 0.66602 0.63138 0.0
O99 O 0.5195 0.66064 0.60319 0.0
Cd100 Cd 0.54714 0.62339 0.56022 0.0
O101 O 0.56707 0.65075 0.6385 0.0
Cd102 Cd 0.61406 0.60761 0.61241 0.0
C103 C 0.63609 0.67199 0.55107 0.0
O104 O 0.56543 0.56479 0.5866 0.0
O105 O 0.62433 0.55587 0.57165 0.0
O106 O 0.62133 0.57466 0.66503 0.0
C107 C 0.58864 0.54483 0.57034 0.0
O108 O 0.60268 0.66284 0.53892 0.0
C109 C 0.65822 0.57864 0.66578 0.0
O110 O 0.64667 0.65763 0.5784 0.0
O111 O 0.67457 0.59701 0.64198 0.0
C112 C 0.28826 0.28161 0.42958 0.0
C113 C 0.29355 0.32108 0.43795 0.0
C114 C 0.26331 0.25646 0.44796 0.0
C115 C 0.24285 0.27123 0.47513 0.0
C116 C 0.24779 0.31107 0.48357 0.0
C117 C 0.27322 0.33547 0.46498 0.0
C118 C 0.25901 0.21405 0.43842 0.0
C119 C 0.22615 0.32791 0.5122 0.0
C120 C 0.15204 0.21394 0.50404 0.0
C121 C 0.1659 0.19464 0.53185 0.0
C122 C 0.1767 0.23918 0.4855 0.0
C123 C 0.21627 0.24496 0.49479 0.0
C124 C 0.23049 0.22558 0.52278 0.0
C125 C 0.20509 0.2008 0.54108 0.0
C126 C 0.16042 0.25967 0.45597 0.0
C127 C 0.27262 0.23079 0.53325 0.0
H128 H 0.30397 0.27019 0.40884 0.0
H129 H 0.27699 0.36596 0.47155 0.0
H130 H 0.26744 0.19566 0.45947 0.0
H131 H 0.22812 0.20601 0.43251 0.0
H132 H 0.27718 0.20712 0.41675 0.0
H133 H 0.23286 0.35962 0.51527 0.0
H134 H 0.1943 0.32297 0.50853 0.0
H135 H 0.2338 0.31301 0.53541 0.0
H136 H 0.12178 0.2095 0.4968 0.0
H137 H 0.2161 0.18589 0.56243 0.0
H138 H 0.17615 0.25151 0.43331 0.0
H139 H 0.16489 0.29162 0.45898 0.0
H140 H 0.12884 0.25249 0.45234 0.0
H141 H 0.29183 0.22195 0.51289 0.0
H142 H 0.27911 0.21348 0.55554 0.0
H143 H 0.28007 0.2619 0.53855 0.0
C144 C 0.66242 0.53776 0.71643 0.0
C145 C 0.6811 0.56121 0.69236 0.0
C146 C 0.68389 0.51919 0.74069 0.0
C147 C 0.72498 0.52436 0.74093 0.0
C148 C 0.74397 0.54857 0.71708 0.0
C149 C 0.72178 0.56665 0.69301 0.0
C150 C 0.66267 0.49353 0.76572 0.0
C151 C 0.78775 0.55497 0.71674 0.0
C152 C 0.77947 0.50267 0.81971 0.0
C153 C 0.79332 0.46585 0.81285 0.0
C154 C 0.7571 0.522 0.79655 0.0
C155 C 0.74819 0.50402 0.76587 0.0
C156 C 0.76168 0.46673 0.75889 0.0
C157 C 0.78417 0.44811 0.78244 0.0
C158 C 0.74329 0.56182 0.8048 0.0
C159 C 0.75253 0.44659 0.72646 0.0
H160 H 0.63098 0.53338 0.71604 0.0
H161 H 0.73638 0.58478 0.67449 0.0
H162 H 0.67216 0.46331 0.76354 0.0
H163 H 0.66999 0.50369 0.79108 0.0
H164 H 0.63055 0.49314 0.76253 0.0
H165 H 0.79793 0.57549 0.69707 0.0
H166 H 0.79812 0.56658 0.74093 0.0
H167 H 0.80149 0.52685 0.71285 0.0
H168 H 0.78643 0.51667 0.8431 0.0
H169 H 0.79466 0.41966 0.77695 0.0
H170 H 0.71106 0.56163 0.80327 0.0
H171 H 0.75499 0.58337 0.78655 0.0
H172 H 0.75246 0.57163 0.82988 0.0
H173 H 0.72053 0.44337 0.72284 0.0
H174 H 0.76469 0.41735 0.72507 0.0
H175 H 0.76455 0.4645 0.70576 0.0
C176 C 0.60373 0.99064 0.02648 0.0
C177 C 0.58024 0.00537 0.05134 0.0
C178 C 0.5874 0.96677 0.00142 0.0
C179 C 0.5468 0.95767 0.0014 0.0
C180 C 0.52357 0.97013 0.0278 0.0
C181 C 0.54061 -0.00619 0.05246 0.0
C182 C 0.61312 0.95353 0.97388 0.0
C183 C 0.48016 0.96081 0.02882 0.0
C184 C 0.48823 0.9491 0.92283 0.0
C185 C 0.47706 0.90941 0.92249 0.0
C186 C 0.51317 0.96473 0.94727 0.0
C187 C 0.52733 0.94001 0.97194 0.0
C188 C 0.51844 0.89947 0.9704 0.0
C189 C 0.49326 0.88458 0.94562 0.0
C190 C 0.52218 0.00814 0.94793 0.0
C191 C 0.53347 0.8722 -0.00395 0.0
H192 H 0.63449 -0.00077 0.02569 0.0
H193 H 0.52244 0.00465 0.07192 0.0
H194 H 0.60587 0.92268 0.96746 0.0
H195 H 0.60817 0.97116 0.9515 0.0
H196 H 0.64449 0.95683 0.98049 0.0
H197 H 0.46705 0.9694 0.05261 0.0
H198 H 0.46582 0.97647 0.00858 0.0
H199 H 0.47373 0.92926 0.02493 0.0
H200 H 0.47622 0.96835 0.90472 0.0
H201 H 0.48498 0.85378 0.94527 0.0
H202 H 0.55396 0.01457 0.95057 0.0
H203 H 0.50779 0.02099 0.96957 0.0
H204 H 0.51195 0.0227 0.92528 0.0
H205 H 0.56472 0.87917 0.00131 0.0
H206 H 0.52979 0.84131 -0.01181 0.0
H207 H 0.51727 0.8757 0.01944 0.0
C208 C 0.92327 0.75698 0.28053 0.0
C209 C 0.92919 0.79758 0.28031 0.0
C210 C 0.93994 0.73403 0.25623 0.0
C211 C 0.96318 0.75215 0.23127 0.0
C212 C 0.96882 0.79313 0.23067 0.0
C213 C 0.95166 0.81537 0.25516 0.0
C214 C 0.93308 0.69039 0.25748 0.0
C215 C -0.00651 0.81345 0.20445 0.0
C216 C 0.03752 0.6926 0.18765 0.0
C217 C 0.01859 0.68367 0.15769 0.0
C218 C 0.01976 0.71481 0.21186 0.0
C219 C 0.98212 0.72822 0.20602 0.0
C220 C 0.96275 0.71917 0.17595 0.0
C221 C 0.98126 0.6971 0.1521 0.0
C222 C 0.04136 0.7241 0.24362 0.0
C223 C 0.9225 0.73284 0.16896 0.0
H224 H 0.90588 0.74307 0.29987 0.0
H225 H 0.95639 0.84673 0.25487 0.0
H226 H 0.92024 0.6796 0.23384 0.0
H227 H 0.96123 0.67644 0.26069 0.0
H228 H 0.91336 0.68093 0.27795 0.0
H229 H -0.00555 0.8456 0.20716 0.0
H230 H 0.02369 0.80361 0.20572 0.0
H231 H 0.98195 0.80574 0.17958 0.0
H232 H 0.06636 0.6824 0.19217 0.0
H233 H 0.96632 0.69024 0.12909 0.0
H234 H 0.02404 0.7129 0.26497 0.0
H235 H 0.0454 0.75608 0.24668 0.0
H236 H 0.07039 0.71135 0.24437 0.0
H237 H 0.90193 0.72198 0.18831 0.0
H238 H 0.91121 0.72284 0.14452 0.0
H239 H 0.92294 0.76507 0.16965 0.0
C240 C 0.28722 0.00801 0.82353 0.0
C241 C 0.30001 0.97071 0.81693 0.0
C242 C 0.26501 0.02757 0.80038 0.0
C243 C 0.2552 0.00932 0.76999 0.0
C244 C 0.26779 0.97163 0.76321 0.0
C245 C 0.29013 0.9528 0.78674 0.0
C246 C 0.2522 0.06783 0.80838 0.0
C247 C 0.25768 0.95119 0.73109 0.0
C248 C 0.16881 0.04247 0.72107 0.0
C249 C 0.18721 0.06475 0.6961 0.0
C250 C 0.19058 0.02474 0.7456 0.0
C251 C 0.2317 0.02959 0.74521 0.0
C252 C 0.2504 0.05288 0.72058 0.0
C253 C 0.2279 0.07013 0.69625 0.0
C254 C 0.16965 7e-05 0.77148 0.0
C255 C 0.29419 0.05891 0.71955 0.0
H256 H 0.29478 0.02214 0.84674 0.0
H257 H 0.29981 0.92398 0.78143 0.0
H258 H 0.26366 0.08883 0.78959 0.0
H259 H 0.21996 0.06817 0.80756 0.0
H260 H 0.26232 0.07798 0.83312 0.0
H261 H 0.26951 0.92179 0.72974 0.0
H262 H 0.22559 0.94824 0.72806 0.0
H263 H 0.26936 0.96872 0.71004 0.0
H264 H 0.13736 0.03819 0.72109 0.0
H265 H 0.24228 0.08739 0.67705 0.0
H266 H 0.17798 0.01058 0.79653 0.0
H267 H 0.17841 0.96958 0.76949 0.0
H268 H 0.13748 0.00032 0.76899 0.0
H269 H 0.30521 0.07058 0.74353 0.0
H270 H 0.3041 0.07922 0.69963 0.0
H271 H 0.30757 0.03063 0.71554 0.0
C272 C 0.98961 0.38678 0.94107 0.0
C273 C 0.97294 0.41063 0.91743 0.0
C274 C 0.01443 0.40283 0.96562 0.0
C275 C 0.02254 0.44352 0.96637 0.0
C276 C 0.00796 0.46726 0.94118 0.0
C277 C 0.98334 0.4505 0.917 0.0
C278 C 0.02988 0.3766 -0.00812 0.0
C279 C 0.01616 0.51079 0.94099 0.0
C280 C 0.03493 0.49882 0.04632 0.0
C281 C 0.07456 0.51043 0.04541 0.0
C282 C 0.01817 0.4749 0.02169 0.0
C283 C 0.04165 0.46229 -0.00449 0.0
C284 C 0.08218 0.47176 -0.00442 0.0
C285 C 0.09824 0.49583 0.02063 0.0
C286 C 0.97482 0.46521 0.02262 0.0
C287 C 0.10813 0.45847 0.96823 0.0
H288 H 0.98192 0.35586 0.94131 0.0
H289 H 0.97097 0.46898 0.89849 0.0
H290 H 0.06109 0.38411 -0.00309 0.0
H291 H 0.01372 0.38069 0.0152 0.0
H292 H 0.02655 0.34544 0.98476 0.0
H293 H 0.00587 0.52448 0.91796 0.0
H294 H 0.00131 0.52397 0.96224 0.0
H295 H 0.04782 0.51789 0.94374 0.0
H296 H 0.0166 0.50961 0.06569 0.0
H297 H 0.12898 0.5045 0.01998 0.0
H298 H 0.96873 0.4335 0.01932 0.0
H299 H 0.96045 0.48015 0.002 0.0
H300 H 0.96142 0.47428 0.04616 0.0
H301 H 0.1016 0.42733 0.96242 0.0
H302 H 0.13949 0.4627 0.97466 0.0
H303 H 0.10261 0.47533 0.94552 0.0
C304 C 0.45012 0.31443 0.25158 0.0
C305 C 0.42791 0.2966 0.27688 0.0
C306 C 0.46827 0.29217 0.22765 0.0
C307 C 0.46393 0.25111 0.229 0.0
C308 C 0.44095 0.23294 0.25409 0.0
C309 C 0.42326 0.25592 0.2778 0.0
C310 C 0.4926 0.31255 0.20126 0.0
C311 C 0.43546 0.18921 0.25613 0.0
C312 C 0.48427 0.1941 0.15132 0.0
C313 C 0.52188 0.18174 0.15756 0.0
C314 C 0.46502 0.2166 0.17441 0.0
C315 C 0.48389 0.22717 0.20438 0.0
C316 C 0.52187 0.21498 0.21081 0.0
C317 C 0.54039 0.19231 0.18736 0.0
C318 C 0.42443 0.22895 0.16678 0.0
C319 C 0.54296 0.22591 0.24248 0.0
H320 H 0.45387 0.34586 0.25075 0.0
H321 H 0.40609 0.24197 0.29726 0.0
H322 H 0.52314 0.30375 0.20299 0.0
H323 H 0.4816 0.30381 0.17645 0.0
H324 H 0.49247 0.34472 0.20333 0.0
H325 H 0.41581 0.17967 0.27662 0.0
H326 H 0.4232 0.17742 0.23261 0.0
H327 H 0.46405 0.17628 0.25983 0.0
H328 H 0.46966 0.186 0.12843 0.0
H329 H 0.56945 0.18296 0.19238 0.0
H330 H 0.42392 0.26113 0.16699 0.0
H331 H 0.40389 0.21789 0.18608 0.0
H332 H 0.41376 0.21814 0.14238 0.0
H333 H 0.54584 0.25802 0.24492 0.0
H334 H 0.57247 0.21424 0.24364 0.0
H335 H 0.52587 0.2147 0.26396 0.0
C336 C 0.78895 0.78447 0.43296 0.0
C337 C 0.79537 0.82371 0.44172 0.0
C338 C 0.76304 0.75986 0.45091 0.0
C339 C 0.74276 0.77494 0.47806 0.0
C340 C 0.74886 0.81455 0.4869 0.0
C341 C 0.77523 0.83842 0.46872 0.0
C342 C 0.75751 0.71766 0.44093 0.0
C343 C 0.72746 0.83172 0.51552 0.0
C344 C 0.65017 0.71951 0.50537 0.0
C345 C 0.66317 0.69908 0.53289 0.0
C346 C 0.67567 0.74465 0.48752 0.0
C347 C 0.7152 0.74919 0.49724 0.0
C348 C 0.7285 0.72881 0.52504 0.0
C349 C 0.70229 0.70413 0.54263 0.0
C350 C 0.66036 0.76622 0.45818 0.0
C351 C 0.77054 0.73272 0.53598 0.0
H352 H 0.8045 0.7728 0.41223 0.0
H353 H 0.77987 0.86873 0.47559 0.0
H354 H 0.76508 0.6987 0.46188 0.0
H355 H 0.72651 0.71067 0.4347 0.0
H356 H 0.77569 0.71043 0.41936 0.0
H357 H 0.73515 0.86319 0.51895 0.0
H358 H 0.69556 0.82786 0.51154 0.0
H359 H 0.73432 0.81622 0.53864 0.0
H360 H 0.61996 0.71593 0.49775 0.0
H361 H 0.71264 0.68837 0.56379 0.0
H362 H 0.67592 0.75784 0.43549 0.0
H363 H 0.66593 0.798 0.46156 0.0
H364 H 0.62863 0.7602 0.45433 0.0
H365 H 0.78974 0.72344 0.51576 0.0
H366 H 0.77618 0.71502 0.55823 0.0
H367 H 0.77883 0.7636 0.54151 0.0
C368 C 0.16742 0.53228 0.21406 0.0
C369 C 0.1855 0.5557 0.18966 0.0
C370 C 0.18945 0.51413 0.23818 0.0
C371 C 0.23051 0.5197 0.23796 0.0
C372 C 0.24891 0.54373 0.21368 0.0
C373 C 0.22617 0.56139 0.18975 0.0
C374 C 0.16883 0.48864 0.26368 0.0
C375 C 0.29264 0.55053 0.21284 0.0
C376 C 0.28559 0.50041 0.31693 0.0
C377 C 0.29963 0.46351 0.31075 0.0
C378 C 0.26308 0.51903 0.29344 0.0
C379 C 0.25423 0.50026 0.26309 0.0
C380 C 0.26805 0.46295 0.25672 0.0
C381 C 0.29066 0.44504 0.28061 0.0
C382 C 0.24893 0.5589 0.30103 0.0
C383 C 0.25898 0.44199 0.22464 0.0
H384 H 0.13599 0.5277 0.2141 0.0
H385 H 0.24031 0.57948 0.17097 0.0
H386 H 0.17891 0.4586 0.26197 0.0
H387 H 0.17608 0.49952 0.28884 0.0
H388 H 0.13668 0.48757 0.2606 0.0
H389 H 0.30237 0.57055 0.19266 0.0
H390 H 0.30319 0.56296 0.23669 0.0
H391 H 0.30663 0.52246 0.20944 0.0
H392 H 0.2924 0.51498 0.3401 0.0
H393 H 0.30132 0.41653 0.27562 0.0
H394 H 0.21666 0.55828 0.29985 0.0
H395 H 0.26009 0.58006 0.28225 0.0
H396 H 0.25836 0.56951 0.32583 0.0
H397 H 0.22699 0.43814 0.22126 0.0
H398 H 0.27166 0.41297 0.22363 0.0
H399 H 0.27051 0.45964 0.2036 0.0
C400 C 0.76996 0.33341 0.96544 0.0
C401 C 0.78985 0.31987 0.93784 0.0
C402 C 0.74521 0.3083 0.98403 0.0
C403 C 0.74054 0.26862 0.97499 0.0
C404 C 0.76056 0.25473 0.94722 0.0
C405 C 0.78482 0.28057 0.92887 0.0
C406 C 0.72402 0.32422 0.01331 0.0
C407 C 0.75654 0.21251 0.93702 0.0
C408 C 0.70509 0.19643 0.04043 0.0
C409 C 0.66574 0.19007 0.03181 0.0
C410 C 0.72982 0.22182 0.02207 0.0
C411 C 0.71473 0.24161 -0.00536 0.0
C412 C 0.67499 0.23559 -0.01404 0.0
C413 C 0.65102 0.20974 0.00454 0.0
C414 C 0.77214 0.22728 0.03189 0.0
C415 C 0.6578 0.2565 0.95705 0.0
H416 H 0.77354 0.36376 0.97248 0.0
H417 H 0.80021 0.26981 0.90767 0.0
H418 H 0.69213 0.31896 0.01011 0.0
H419 H 0.7324 0.30892 0.03613 0.0
H420 H 0.7304 0.35592 0.01679 0.0
H421 H 0.77428 0.20631 0.91492 0.0
H422 H 0.76571 0.19378 0.9576 0.0
H423 H 0.7256 0.20422 0.93153 0.0
H424 H 0.71676 0.18123 0.06136 0.0
H425 H 0.62062 0.20515 -0.00223 0.0
H426 H 0.77935 0.25832 0.03763 0.0
H427 H 0.79098 0.21917 0.01103 0.0
H428 H 0.77936 0.20952 0.05373 0.0
H429 H 0.66191 0.28841 0.96054 0.0
H430 H 0.62622 0.24898 0.95381 0.0
H431 H 0.67314 0.24907 0.934 0.0
C432 C 0.79307 0.00415 0.32166 0.0
C433 C 0.80588 0.96671 0.31572 0.0
C434 C 0.7707 0.02307 0.29824 0.0
C435 C 0.76073 0.00402 0.26823 0.0
C436 C 0.77342 0.96622 0.26207 0.0
C437 C 0.79593 0.94804 0.28586 0.0
C438 C 0.75778 0.06346 0.30558 0.0
C439 C 0.76315 0.94496 0.23037 0.0
C440 C 0.67344 0.03603 0.21984 0.0
C441 C 0.69134 0.05813 0.19452 0.0
C442 C 0.69569 0.01858 0.24421 0.0
C443 C 0.73678 0.02352 0.24329 0.0
C444 C 0.755 0.04648 0.21821 0.0
C445 C 0.73204 0.06347 0.19406 0.0
C446 C 0.67525 -0.00575 0.27058 0.0
C447 C 0.79876 0.0526 0.21662 0.0
H448 H 0.80069 0.01888 0.34461 0.0
H449 H 0.80564 0.91911 0.28106 0.0
H450 H 0.76881 0.08399 0.28627 0.0
H451 H 0.72552 0.06359 0.30511 0.0
H452 H 0.76824 0.07435 0.33001 0.0
H453 H 0.77526 0.91566 0.22941 0.0
H454 H 0.73104 0.94163 0.22763 0.0
H455 H 0.77441 0.9621 0.20894 0.0
H456 H 0.64199 0.03176 0.22034 0.0
H457 H 0.74603 0.08057 0.17458 0.0
H458 H 0.68365 0.00545 0.29541 0.0
H459 H 0.68439 0.96385 0.26907 0.0
H460 H 0.64304 -0.00597 0.26826 0.0
H461 H 0.81009 0.06504 0.24023 0.0
H462 H 0.8083 0.07232 0.19618 0.0
H463 H 0.81219 0.02426 0.2131 0.0
C464 C -0.00324 0.88452 0.44815 0.0
C465 C 0.98163 0.90828 0.42367 0.0
C466 C 0.02105 0.90051 0.4731 0.0
C467 C 0.03015 0.94106 0.4734 0.0
C468 C 0.01721 0.96459 0.44737 0.0
C469 C -0.00687 0.94788 0.42281 0.0
C470 C 0.0348 0.87448 0.50022 0.0
C471 C 0.02649 0.00795 0.44667 0.0
C472 C 0.04008 -0.00132 0.55229 0.0
C473 C 0.0798 0.00996 0.55215 0.0
C474 C 0.02403 0.97394 0.5279 0.0
C475 C 0.04836 0.96011 0.50281 0.0
C476 C 0.08898 0.96904 0.5039 0.0
C477 C 0.1043 -0.006 0.52864 0.0
C478 C 0.98056 0.96488 0.52774 0.0
C479 C 0.11584 0.95435 0.47779 0.0
H480 H 0.98823 0.85379 0.44873 0.0
H481 H 0.98197 0.96627 0.40364 0.0
H482 H 0.06582 0.88163 0.50631 0.0
H483 H 0.01755 0.87913 0.52288 0.0
H484 H 0.03136 0.84324 0.49337 0.0
H485 H 0.01742 0.02137 0.42313 0.0
H486 H 0.01122 0.02198 0.46726 0.0
H487 H 0.05817 0.01434 0.45017 0.0
H488 H 0.02111 0.01048 0.57071 0.0
H489 H 0.13512 0.00236 0.52863 0.0
H490 H 0.97412 0.93317 0.52487 0.0
H491 H 0.96726 0.97953 0.50643 0.0
H492 H 0.9664 0.97475 0.55069 0.0
H493 H 0.10874 0.92322 0.4723 0.0
H494 H 0.1469 0.95788 0.48534 0.0
H495 H 0.11199 0.97086 0.45461 0.0
C496 C 0.91772 0.25942 0.77538 0.0
C497 C 0.9216 0.30014 0.77477 0.0
C498 C 0.93575 0.23705 0.75143 0.0
C499 C 0.95827 0.25591 0.7264 0.0
C500 C 0.96166 0.29701 0.72526 0.0
C501 C 0.9432 0.31865 0.74944 0.0
C502 C 0.93128 0.19324 0.75327 0.0
C503 C 0.98546 0.31811 0.69891 0.0
C504 C 0.03656 0.19898 0.68534 0.0
C505 C 0.0185 0.18779 0.6555 0.0
C506 C 0.01734 0.22136 0.70856 0.0
C507 C 0.97908 0.2326 0.70185 0.0
C508 C 0.9607 0.22151 0.67179 0.0
C509 C 0.98067 0.19934 0.64893 0.0
C510 C 0.03793 0.2329 0.74031 0.0
C511 C 0.91984 0.23283 0.66389 0.0
H512 H 0.90101 0.24494 0.79486 0.0
H513 H 0.94633 0.35013 0.74882 0.0
H514 H 0.91963 0.18129 0.72959 0.0
H515 H 0.96016 0.18102 0.75723 0.0
H516 H 0.91155 0.18313 0.77354 0.0
H517 H 0.98423 0.3502 0.70092 0.0
H518 H 0.01633 0.31037 0.70081 0.0
H519 H 0.97491 0.30896 0.67407 0.0
H520 H 0.06579 0.19027 0.6906 0.0
H521 H 0.96641 0.19075 0.62599 0.0
H522 H 0.02106 0.22115 0.76171 0.0
H523 H 0.0398 0.26504 0.74278 0.0
H524 H 0.06784 0.22218 0.74159 0.0
H525 H 0.89936 0.22108 0.68297 0.0
H526 H 0.90973 0.22195 0.63935 0.0
H527 H 0.91845 0.26495 0.66427 0.0
C528 C 0.53368 0.69875 0.68655 0.0
C529 C 0.51549 0.68972 0.65628 0.0
C530 C 0.51527 0.72093 0.7104 0.0
C531 C 0.47772 0.7342 0.7039 0.0
C532 C 0.45915 0.72516 0.67347 0.0
C533 C 0.47831 0.70312 0.64999 0.0
C534 C 0.53604 0.73022 0.74255 0.0
C535 C 0.41902 0.73869 0.66577 0.0
C536 C 0.41738 0.76178 0.77784 0.0
C537 C 0.42328 0.80237 0.77815 0.0
C538 C 0.4344 0.73924 0.75345 0.0
C539 C 0.45798 0.75777 0.72893 0.0
C540 C 0.46346 0.79877 0.72875 0.0
C541 C 0.44595 0.8206 0.75333 0.0
C542 C 0.42769 0.69556 0.75424 0.0
C543 C 0.48848 0.81952 0.703 0.0
H544 H 0.56241 0.68858 0.69162 0.0
H545 H 0.46395 0.6962 0.62673 0.0
H546 H 0.53965 0.7622 0.74584 0.0
H547 H 0.51835 0.71866 0.76355 0.0
H548 H 0.56521 0.7178 0.74372 0.0
H549 H 0.4085 0.72895 0.64103 0.0
H550 H 0.39796 0.72745 0.68461 0.0
H551 H 0.41923 0.7709 0.66676 0.0
H552 H 0.39982 0.74753 0.79692 0.0
H553 H 0.45065 0.85197 0.75344 0.0
H554 H 0.4558 0.68171 0.75799 0.0
H555 H 0.41563 0.68497 0.73027 0.0
H556 H 0.40738 0.68579 0.77421 0.0
H557 H 0.51879 0.81007 0.70478 0.0
H558 H 0.48895 0.85164 0.7058 0.0
H559 H 0.47765 0.81179 0.67792 0.0
C560 C 0.14866 0.71665 0.0052 0.0
C561 C 0.16269 0.69561 0.03198 0.0
C562 C 0.17339 0.74253 -0.01267 0.0
C563 C 0.21316 0.7472 -0.00376 0.0
C564 C 0.22752 0.72617 0.02328 0.0
C565 C 0.20207 0.70077 0.04093 0.0
C566 C 0.15698 0.76477 0.95883 0.0
C567 C 0.26985 0.73019 0.03333 0.0
C568 C 0.28478 0.78512 0.93126 0.0
C569 C 0.29113 0.82411 0.94081 0.0
C570 C 0.25954 0.75975 0.94913 0.0
C571 C 0.23989 0.77379 0.97704 0.0
C572 C 0.24587 0.81316 -0.01334 0.0
C573 C 0.27157 0.83781 0.96853 0.0
C574 C 0.25411 0.71784 0.9383 0.0
C575 C 0.22513 0.82924 0.01612 0.0
H576 H 0.11825 0.713 -0.00179 0.0
H577 H 0.2132 0.68454 0.0615 0.0
H578 H 0.16227 0.79648 0.96282 0.0
H579 H 0.17197 0.75727 0.93563 0.0
H580 H 0.12519 0.75849 0.95554 0.0
H581 H 0.27636 0.71188 0.05502 0.0
H582 H 0.28853 0.72177 0.01247 0.0
H583 H 0.27799 0.76096 0.03941 0.0
H584 H 0.29989 0.77423 0.90997 0.0
H585 H 0.27616 0.86792 0.97602 0.0
H586 H 0.22298 0.71072 0.93265 0.0
H587 H 0.26255 0.69834 0.9586 0.0
H588 H 0.27167 0.71147 0.91613 0.0
H589 H 0.19315 0.82509 0.01279 0.0
H590 H 0.23254 0.86069 0.02006 0.0
H591 H 0.23288 0.8132 0.03874 0.0
C592 C 0.49256 0.38762 0.4436 0.0
C593 C 0.4771 0.41061 0.41873 0.0
C594 C 0.51642 0.4045 0.46843 0.0
C595 C 0.52481 0.44516 0.4682 0.0
C596 C 0.51155 0.46795 0.44181 0.0
C597 C 0.48785 0.45037 0.41739 0.0
C598 C 0.53047 0.37927 0.49599 0.0
C599 C 0.5201 0.5114 0.44054 0.0
C600 C 0.5341 0.5035 0.54684 0.0
C601 C 0.57384 0.51469 0.54697 0.0
C602 C 0.51823 0.47882 0.52233 0.0
C603 C 0.54274 0.465 0.49736 0.0
C604 C 0.58331 0.47415 0.49853 0.0
C605 C 0.59846 0.499 0.52342 0.0
C606 C 0.4748 0.46951 0.52207 0.0
C607 C 0.61034 0.4596 0.47248 0.0
H608 H 0.48459 0.35678 0.44457 0.0
H609 H 0.47642 0.46817 0.39793 0.0
H610 H 0.56147 0.38678 0.50186 0.0
H611 H 0.51331 0.38441 0.51861 0.0
H612 H 0.52722 0.34785 0.48974 0.0
H613 H 0.511 0.52419 0.41675 0.0
H614 H 0.50439 0.52556 0.46082 0.0
H615 H 0.55166 0.5184 0.44417 0.0
H616 H 0.51503 0.51515 0.56526 0.0
H617 H 0.62929 0.50735 0.52359 0.0
H618 H 0.46858 0.43773 0.51955 0.0
H619 H 0.46153 0.48369 0.5005 0.0
H620 H 0.46043 0.47967 0.54482 0.0
H621 H 0.60386 0.42826 0.46747 0.0
H622 H 0.64141 0.46395 0.47978 0.0
H623 H 0.60589 0.47551 0.44908 0.0
loop_
_geom_bond_atom_site_label_1
_geom_bond_atom_site_label_2
_geom_bond_distance
_geom_bond_site_symmetry_2
_ccdc_geom_bond_type
C0 O1 1.306 . S
C0 O3 1.160 . S
O1 C0 1.306 . S
O1 Cd2 2.228 . S
Cd2 O1 2.228 . S
Cd2 O6 2.273 . S
Cd2 O10 2.277 . S
O3 C0 1.160 . S
O3 Cd4 2.203 . S
Cd4 O3 2.203 . S
Cd4 O6 2.411 . S
Cd4 O7 2.333 . S
Cd4 O8 2.352 . S
Cd4 O12 2.277 . S
Cd4 O13 2.356 . S
C5 O10 1.209 . S
C5 O12 1.226 . S
O6 Cd2 2.273 . S
O6 Cd4 2.411 . S
O6 C9 1.320 . S
O7 Cd4 2.333 . S
O7 C9 1.214 . S
O8 Cd4 2.352 . S
O8 C11 1.258 . S
C9 O6 1.320 . S
C9 O7 1.214 . S
O10 Cd2 2.277 . S
O10 C5 1.209 . S
C11 O8 1.258 . S
C11 O13 1.282 . S
O12 Cd4 2.277 . S
O12 C5 1.226 . S
O13 Cd4 2.356 . S
O13 C11 1.282 . S
C14 O15 1.306 . S
C14 O17 1.160 . S
O15 C14 1.306 . S
O15 Cd16 2.228 . S
Cd16 O15 2.228 . S
Cd16 O20 2.273 . S
Cd16 O24 2.277 . S
O17 C14 1.160 . S
O17 Cd18 2.203 . S
Cd18 O17 2.203 . S
Cd18 O20 2.411 . S
Cd18 O21 2.333 . S
Cd18 O22 2.352 . S
Cd18 O26 2.277 . S
Cd18 O27 2.356 . S
C19 O24 1.209 . S
C19 O26 1.226 . S
O20 Cd16 2.273 . S
O20 Cd18 2.411 . S
O20 C23 1.320 . S
O21 Cd18 2.333 . S
O21 C23 1.214 . S
O22 Cd18 2.352 . S
O22 C25 1.258 . S
C23 O20 1.320 . S
C23 O21 1.214 . S
O24 Cd16 2.277 . S
O24 C19 1.209 . S
C25 O22 1.258 . S
C25 O27 1.282 . S
O26 Cd18 2.277 . S
O26 C19 1.226 . S
O27 Cd18 2.356 . S
O27 C25 1.282 . S
C28 O29 1.306 . S
C28 O31 1.160 . S
O29 C28 1.306 . S
O29 Cd30 2.228 . S
Cd30 O29 2.228 . S
Cd30 O34 2.273 . S
Cd30 O38 2.277 . S
O31 C28 1.160 . S
O31 Cd32 2.203 . S
Cd32 O31 2.203 . S
Cd32 O34 2.411 . S
Cd32 O35 2.333 . S
Cd32 O36 2.352 . S
Cd32 O40 2.277 . S
Cd32 O41 2.356 . S
C33 O38 1.209 . S
C33 O40 1.226 . S
O34 Cd30 2.273 . S
O34 Cd32 2.411 . S
O34 C37 1.320 . S
O35 Cd32 2.333 . S
O35 C37 1.214 . S
O36 Cd32 2.352 . S
O36 C39 1.258 . S
C37 O34 1.320 . S
C37 O35 1.214 . S
O38 Cd30 2.277 . S
O38 C33 1.209 . S
C39 O36 1.258 . S
C39 O41 1.282 . S
O40 Cd32 2.277 . S
O40 C33 1.226 . S
O41 Cd32 2.356 . S
O41 C39 1.282 . S
C42 O43 1.306 . S
C42 O45 1.160 . S
O43 C42 1.306 . S
O43 Cd44 2.228 . S
Cd44 O43 2.228 . S
Cd44 O48 2.273 . S
Cd44 O52 2.277 . S
O45 C42 1.160 . S
O45 Cd46 2.203 . S
Cd46 O45 2.203 . S
Cd46 O48 2.411 . S
Cd46 O49 2.333 . S
Cd46 O50 2.352 . S
Cd46 O54 2.277 . S
Cd46 O55 2.356 . S
C47 O52 1.209 . S
C47 O54 1.226 . S
O48 Cd44 2.273 . S
O48 Cd46 2.411 . S
O48 C51 1.320 . S
O49 Cd46 2.333 . S
O49 C51 1.214 . S
O50 Cd46 2.352 . S
O50 C53 1.258 . S
C51 O48 1.320 . S
C51 O49 1.214 . S
O52 Cd44 2.277 . S
O52 C47 1.209 . S
C53 O50 1.258 . S
C53 O55 1.282 . S
O54 Cd46 2.277 . S
O54 C47 1.226 . S
O55 Cd46 2.356 . S
O55 C53 1.282 . S
C56 O57 1.306 . S
C56 O59 1.160 . S
O57 C56 1.306 . S
O57 Cd58 2.228 . S
Cd58 O57 2.228 . S
Cd58 O62 2.273 . S
Cd58 O66 2.277 . S
O59 C56 1.160 . S
O59 Cd60 2.203 . S
Cd60 O59 2.203 . S
Cd60 O62 2.411 . S
Cd60 O63 2.333 . S
Cd60 O64 2.352 . S
Cd60 O68 2.277 . S
Cd60 O69 2.356 . S
C61 O66 1.209 . S
C61 O68 1.226 . S
O62 Cd58 2.273 . S
O62 Cd60 2.411 . S
O62 C65 1.320 . S
O63 Cd60 2.333 . S
O63 C65 1.214 . S
O64 Cd60 2.352 . S
O64 C67 1.258 . S
C65 O62 1.320 . S
C65 O63 1.214 . S
O66 Cd58 2.277 . S
O66 C61 1.209 . S
C67 O64 1.258 . S
C67 O69 1.282 . S
O68 Cd60 2.277 . S
O68 C61 1.226 . S
O69 Cd60 2.356 . S
O69 C67 1.282 . S
C70 O71 1.306 . S
C70 O73 1.160 . S
O71 C70 1.306 . S
O71 Cd72 2.228 . S
Cd72 O71 2.228 . S
Cd72 O76 2.273 . S
Cd72 O80 2.277 . S
O73 C70 1.160 . S
O73 Cd74 2.203 . S
Cd74 O73 2.203 . S
Cd74 O76 2.411 . S
Cd74 O77 2.333 . S
Cd74 O78 2.352 . S
Cd74 O82 2.277 . S
Cd74 O83 2.356 . S
C75 O80 1.209 . S
C75 O82 1.226 . S
O76 Cd72 2.273 . S
O76 Cd74 2.411 . S
O76 C79 1.320 . S
O77 Cd74 2.333 . S
O77 C79 1.214 . S
O78 Cd74 2.352 . S
O78 C81 1.258 . S
C79 O76 1.320 . S
C79 O77 1.214 . S
O80 Cd72 2.277 . S
O80 C75 1.209 . S
C81 O78 1.258 . S
C81 O83 1.282 . S
O82 Cd74 2.277 . S
O82 C75 1.226 . S
O83 Cd74 2.356 . S
O83 C81 1.282 . S
C84 O85 1.306 . S
C84 O87 1.160 . S
O85 C84 1.306 . S
O85 Cd86 2.228 . S
Cd86 O85 2.228 . S
Cd86 O90 2.273 . S
Cd86 O94 2.277 . S
O87 C84 1.160 . S
O87 Cd88 2.203 . S
Cd88 O87 2.203 . S
Cd88 O90 2.411 . S
Cd88 O91 2.333 . S
Cd88 O92 2.352 . S
Cd88 O96 2.277 . S
Cd88 O97 2.356 . S
C89 O94 1.209 . S
C89 O96 1.226 . S
O90 Cd86 2.273 . S
O90 Cd88 2.411 . S
O90 C93 1.320 . S
O91 Cd88 2.333 . S
O91 C93 1.214 . S
O92 Cd88 2.352 . S
O92 C95 1.258 . S
C93 O90 1.320 . S
C93 O91 1.214 . S
O94 Cd86 2.277 . S
O94 C89 1.209 . S
C95 O92 1.258 . S
C95 O97 1.282 . S
O96 Cd88 2.277 . S
O96 C89 1.226 . S
O97 Cd88 2.356 . S
O97 C95 1.282 . S
C98 O99 1.306 . S
C98 O101 1.160 . S
O99 C98 1.306 . S
O99 Cd100 2.228 . S
Cd100 O99 2.228 . S
Cd100 O104 2.273 . S
Cd100 O108 2.277 . S
O101 C98 1.160 . S
O101 Cd102 2.203 . S
Cd102 O101 2.203 . S
Cd102 O104 2.411 . S
Cd102 O105 2.333 . S
Cd102 O106 2.352 . S
Cd102 O110 2.277 . S
Cd102 O111 2.356 . S
C103 O108 1.209 . S
C103 O110 1.226 . S
O104 Cd100 2.273 . S
O104 Cd102 2.411 . S
O104 C107 1.320 . S
O105 Cd102 2.333 . S
O105 C107 1.214 . S
O106 Cd102 2.352 . S
O106 C109 1.258 . S
C107 O104 1.320 . S
C107 O105 1.214 . S
O108 Cd100 2.277 . S
O108 C103 1.209 . S
C109 O106 1.258 . S
C109 O111 1.282 . S
O110 Cd102 2.277 . S
O110 C103 1.226 . S
O111 Cd102 2.356 . S
O111 C109 1.282 . S
C112 C113 1.391 . S
C112 C114 1.394 . S
C112 H128 0.931 . S
C113 C112 1.391 . S
C113 C117 1.376 . S
C114 C112 1.394 . S
C114 C115 1.369 . S
C114 C118 1.531 . S
C115 C114 1.369 . S
C115 C116 1.410 . S
C115 C123 1.503 . S
C116 C115 1.410 . S
C116 C117 1.392 . S
C116 C119 1.511 . S
C117 C113 1.376 . S
C117 C116 1.392 . S
C117 H129 0.929 . S
C118 C114 1.531 . S
C118 H130 0.960 . S
C118 H131 0.962 . S
C118 H132 0.960 . S
C119 C116 1.511 . S
C119 H133 0.961 . S
C119 H134 0.961 . S
C119 H135 0.961 . S
C120 C121 1.370 . S
C120 C122 1.363 . S
C120 H136 0.931 . S
C121 C120 1.370 . S
C121 C125 1.408 . S
C122 C120 1.363 . S
C122 C123 1.370 . S
C122 C126 1.524 . S
C123 C115 1.503 . S
C123 C122 1.370 . S
C123 C124 1.403 . S
C124 C123 1.403 . S
C124 C125 1.404 . S
C124 C127 1.539 . S
C125 C121 1.408 . S
C125 C124 1.404 . S
C125 H137 0.930 . S
C126 C122 1.524 . S
C126 H138 0.956 . S
C126 H139 0.961 . S
C126 H140 0.961 . S
C127 C124 1.539 . S
C127 H141 0.958 . S
C127 H142 0.961 . S
C127 H143 0.960 . S
H128 C112 0.931 . S
H129 C117 0.929 . S
H130 C118 0.960 . S
H131 C118 0.962 . S
H132 C118 0.960 . S
H133 C119 0.961 . S
H134 C119 0.961 . S
H135 C119 0.961 . S
H136 C120 0.931 . S
H137 C125 0.930 . S
H138 C126 0.956 . S
H139 C126 0.961 . S
H140 C126 0.961 . S
H141 C127 0.958 . S
H142 C127 0.961 . S
H143 C127 0.960 . S
C144 C145 1.391 . S
C144 C146 1.394 . S
C144 H160 0.931 . S
C145 C144 1.391 . S
C145 C149 1.376 . S
C146 C144 1.394 . S
C146 C147 1.369 . S
C146 C150 1.531 . S
C147 C146 1.369 . S
C147 C148 1.410 . S
C147 C155 1.503 . S
C148 C147 1.410 . S
C148 C149 1.392 . S
C148 C151 1.511 . S
C149 C145 1.376 . S
C149 C148 1.392 . S
C149 H161 0.929 . S
C150 C146 1.531 . S
C150 H162 0.960 . S
C150 H163 0.962 . S
C150 H164 0.960 . S
C151 C148 1.511 . S
C151 H165 0.961 . S
C151 H166 0.961 . S
C151 H167 0.961 . S
C152 C153 1.370 . S
C152 C154 1.363 . S
C152 H168 0.931 . S
C153 C152 1.370 . S
C153 C157 1.408 . S
C154 C152 1.363 . S
C154 C155 1.370 . S
C154 C158 1.524 . S
C155 C147 1.503 . S
C155 C154 1.370 . S
C155 C156 1.403 . S
C156 C155 1.403 . S
C156 C157 1.404 . S
C156 C159 1.539 . S
C157 C153 1.408 . S
C157 C156 1.404 . S
C157 H169 0.930 . S
C158 C154 1.524 . S
C158 H170 0.956 . S
C158 H171 0.961 . S
C158 H172 0.961 . S
C159 C156 1.539 . S
C159 H173 0.958 . S
C159 H174 0.961 . S
C159 H175 0.960 . S
H160 C144 0.931 . S
H161 C149 0.929 . S
H162 C150 0.960 . S
H163 C150 0.962 . S
H164 C150 0.960 . S
H165 C151 0.961 . S
H166 C151 0.961 . S
H167 C151 0.961 . S
H168 C152 0.931 . S
H169 C157 0.930 . S
H170 C158 0.956 . S
H171 C158 0.961 . S
H172 C158 0.961 . S
H173 C159 0.958 . S
H174 C159 0.961 . S
H175 C159 0.960 . S
C176 C177 1.391 . S
C176 C178 1.394 . S
C176 H192 0.931 . S
C177 C176 1.391 . S
C177 C181 1.376 . S
C178 C176 1.394 . S
C178 C179 1.369 1_545 S
C178 C182 1.531 1_544 S
C179 C178 1.369 1_565 S
C179 C180 1.410 1_565 S
C179 C187 1.503 1_554 S
C180 C179 1.410 1_545 S
C180 C181 1.392 . S
C180 C183 1.511 . S
C181 C177 1.376 . S
C181 C180 1.392 . S
C181 H193 0.929 . S
C182 C178 1.531 1_566 S
C182 H194 0.960 . S
C182 H195 0.962 . S
C182 H196 0.960 . S
C183 C180 1.511 . S
C183 H197 0.961 . S
C183 H198 0.961 . S
C183 H199 0.961 1_545 S
C184 C185 1.370 . S
C184 C186 1.363 . S
C184 H200 0.931 . S
C185 C184 1.370 . S
C185 C189 1.408 . S
C186 C184 1.363 . S
C186 C187 1.370 . S
C186 C190 1.524 1_565 S
C187 C179 1.503 1_556 S
C187 C186 1.370 . S
C187 C188 1.403 . S
C188 C187 1.403 . S
C188 C189 1.404 . S
C188 C191 1.539 1_556 S
C189 C185 1.408 . S
C189 C188 1.404 . S
C189 H201 0.930 . S
C190 C186 1.524 1_545 S
C190 H202 0.956 . S
C190 H203 0.961 . S
C190 H204 0.961 . S
C191 C188 1.539 1_554 S
C191 H205 0.958 . S
C191 H206 0.961 . S
C191 H207 0.960 . S
H192 C176 0.931 . S
H193 C181 0.929 . S
H194 C182 0.960 . S
H195 C182 0.962 . S
H196 C182 0.960 . S
H197 C183 0.961 . S
H198 C183 0.961 . S
H199 C183 0.961 1_565 S
H200 C184 0.931 . S
H201 C189 0.930 . S
H202 C190 0.956 . S
H203 C190 0.961 . S
H204 C190 0.961 . S
H205 C191 0.958 . S
H206 C191 0.961 . S
H207 C191 0.960 . S
C208 C209 1.391 . S
C208 C210 1.394 . S
C208 H224 0.931 . S
C209 C208 1.391 . S
C209 C213 1.376 . S
C210 C208 1.394 . S
C210 C211 1.369 . S
C210 C214 1.531 . S
C211 C210 1.369 . S
C211 C212 1.410 . S
C211 C219 1.503 1_655 S
C212 C211 1.410 . S
C212 C213 1.392 . S
C212 C215 1.511 1_655 S
C213 C209 1.376 . S
C213 C212 1.392 . S
C213 H225 0.929 . S
C214 C210 1.531 . S
C214 H226 0.960 . S
C214 H227 0.962 1_655 S
C214 H228 0.960 . S
C215 C212 1.511 1_455 S
C215 H229 0.961 . S
C215 H230 0.961 . S
C215 H231 0.961 1_455 S
C216 C217 1.370 . S
C216 C218 1.363 . S
C216 H232 0.931 . S
C217 C216 1.370 . S
C217 C221 1.408 . S
C218 C216 1.363 . S
C218 C219 1.370 . S
C218 C222 1.524 . S
C219 C211 1.503 1_455 S
C219 C218 1.370 . S
C219 C220 1.403 . S
C220 C219 1.403 . S
C220 C221 1.404 . S
C220 C223 1.539 1_455 S
C221 C217 1.408 . S
C221 C220 1.404 . S
C221 H233 0.930 . S
C222 C218 1.524 . S
C222 H234 0.956 . S
C222 H235 0.961 . S
C222 H236 0.961 . S
C223 C220 1.539 1_655 S
C223 H237 0.958 . S
C223 H238 0.961 . S
C223 H239 0.960 . S
H224 C208 0.931 . S
H225 C213 0.929 . S
H226 C214 0.960 . S
H227 C214 0.962 1_455 S
H228 C214 0.960 . S
H229 C215 0.961 . S
H230 C215 0.961 . S
H231 C215 0.961 1_655 S
H232 C216 0.931 . S
H233 C221 0.930 . S
H234 C222 0.956 . S
H235 C222 0.961 . S
H236 C222 0.961 . S
H237 C223 0.958 . S
H238 C223 0.961 . S
H239 C223 0.960 . S
C240 C241 1.391 . S
C240 C242 1.394 . S
C240 H256 0.931 . S
C241 C240 1.391 . S
C241 C245 1.376 . S
C242 C240 1.394 . S
C242 C243 1.369 . S
C242 C246 1.531 . S
C243 C242 1.369 . S
C243 C244 1.410 . S
C243 C251 1.503 1_565 S
C244 C243 1.410 . S
C244 C245 1.392 . S
C244 C247 1.511 . S
C245 C241 1.376 . S
C245 C244 1.392 . S
C245 H257 0.929 . S
C246 C242 1.531 . S
C246 H258 0.960 1_565 S
C246 H259 0.962 . S
C246 H260 0.960 . S
C247 C244 1.511 . S
C247 H261 0.961 . S
C247 H262 0.961 . S
C247 H263 0.968 . S
C248 C249 1.370 . S
C248 C250 1.363 1_545 S
C248 H264 0.931 1_545 S
C249 C248 1.370 . S
C249 C253 1.408 . S
C250 C248 1.363 1_565 S
C250 C251 1.370 1_565 S
C250 C254 1.524 . S
C251 C243 1.503 1_545 S
C251 C250 1.370 1_545 S
C251 C252 1.403 . S
C252 C251 1.403 . S
C252 C253 1.404 . S
C252 C255 1.539 . S
C253 C249 1.408 . S
C253 C252 1.404 . S
C253 H265 0.930 . S
C254 C250 1.524 . S
C254 H266 0.956 . S
C254 H267 0.961 . S
C254 H268 0.961 . S
C255 C252 1.539 . S
C255 H269 0.958 . S
C255 H270 0.961 . S
C255 H271 0.960 . S
H256 C240 0.931 . S
H257 C245 0.929 . S
H258 C246 0.960 1_545 S
H259 C246 0.962 . S
H260 C246 0.960 . S
H261 C247 0.961 . S
H262 C247 0.961 . S
H263 C247 0.968 . S
H264 C248 0.931 1_565 S
H265 C253 0.930 . S
H266 C254 0.956 . S
H267 C254 0.961 . S
H268 C254 0.961 . S
H269 C255 0.958 . S
H270 C255 0.961 . S
H271 C255 0.960 . S
C272 C273 1.391 . S
C272 C274 1.394 1_655 S
C272 H288 0.931 1_655 S
C273 C272 1.391 . S
C273 C277 1.376 . S
C274 C272 1.394 1_455 S
C274 C275 1.370 1_455 S
C274 C278 1.531 . S
C275 C274 1.370 1_655 S
C275 C276 1.407 . S
C275 C283 1.505 1_656 S
C276 C275 1.407 . S
C276 C277 1.392 . S
C276 C279 1.511 . S
C277 C273 1.376 . S
C277 C276 1.392 . S
C277 H289 0.929 . S
C278 C274 1.531 . S
C278 H290 0.960 . S
C278 H291 0.962 . S
C278 H292 0.960 . S
C279 C276 1.511 . S
C279 H293 0.961 . S
C279 H294 0.961 1_556 S
C279 H295 0.961 . S
C280 C281 1.370 . S
C280 C282 1.363 . S
C280 H296 0.931 . S
C281 C280 1.370 . S
C281 C285 1.408 . S
C282 C280 1.363 . S
C282 C283 1.370 . S
C282 C286 1.536 . S
C283 C275 1.505 1_454 S
C283 C282 1.370 . S
C283 C284 1.403 1_554 S
C284 C283 1.403 1_556 S
C284 C285 1.404 1_556 S
C284 C287 1.539 . S
C285 C281 1.408 . S
C285 C284 1.404 1_554 S
C285 H297 0.930 . S
C286 C282 1.536 . S
C286 H298 0.966 . S
C286 H299 0.938 1_455 S
C286 H300 0.962 . S
C287 C284 1.539 . S
C287 H301 0.958 . S
C287 H302 0.961 . S
C287 H303 0.960 . S
H288 C272 0.931 1_455 S
H289 C277 0.929 . S
H290 C278 0.960 . S
H291 C278 0.962 . S
H292 C278 0.960 . S
H293 C279 0.961 . S
H294 C279 0.961 1_554 S
H295 C279 0.961 . S
H296 C280 0.931 . S
H297 C285 0.930 . S
H298 C286 0.966 . S
H299 C286 0.938 1_655 S
H300 C286 0.962 . S
H301 C287 0.958 . S
H302 C287 0.961 . S
H303 C287 0.960 . S
C304 C305 1.391 . S
C304 C306 1.394 . S
C304 H320 0.931 . S
C305 C304 1.391 . S
C305 C309 1.376 . S
C306 C304 1.394 . S
C306 C307 1.369 . S
C306 C310 1.531 . S
C307 C306 1.369 . S
C307 C308 1.410 . S
C307 C315 1.503 . S
C308 C307 1.410 . S
C308 C309 1.392 . S
C308 C311 1.511 . S
C309 C305 1.376 . S
C309 C308 1.392 . S
C309 H321 0.929 . S
C310 C306 1.531 . S
C310 H322 0.960 . S
C310 H323 0.962 . S
C310 H324 0.960 . S
C311 C308 1.511 . S
C311 H325 0.961 . S
C311 H326 0.961 . S
C311 H327 0.961 . S
C312 C313 1.370 . S
C312 C314 1.363 . S
C312 H328 0.931 . S
C313 C312 1.370 . S
C313 C317 1.408 . S
C314 C312 1.363 . S
C314 C315 1.370 . S
C314 C318 1.524 . S
C315 C307 1.503 . S
C315 C314 1.370 . S
C315 C316 1.403 . S
C316 C315 1.403 . S
C316 C317 1.404 . S
C316 C319 1.539 . S
C317 C313 1.408 . S
C317 C316 1.404 . S
C317 H329 0.930 . S
C318 C314 1.524 . S
C318 H330 0.956 . S
C318 H331 0.961 . S
C318 H332 0.961 . S
C319 C316 1.539 . S
C319 H333 0.958 . S
C319 H334 0.961 . S
C319 H335 0.960 . S
H320 C304 0.931 . S
H321 C309 0.929 . S
H322 C310 0.960 . S
H323 C310 0.962 . S
H324 C310 0.960 . S
H325 C311 0.961 . S
H326 C311 0.961 . S
H327 C311 0.961 . S
H328 C312 0.931 . S
H329 C317 0.930 . S
H330 C318 0.956 . S
H331 C318 0.961 . S
H332 C318 0.961 . S
H333 C319 0.958 . S
H334 C319 0.961 . S
H335 C319 0.960 . S
C336 C337 1.391 . S
C336 C338 1.394 . S
C336 H352 0.931 . S
C337 C336 1.391 . S
C337 C341 1.376 . S
C338 C336 1.394 . S
C338 C339 1.369 . S
C338 C342 1.531 . S
C339 C338 1.369 . S
C339 C340 1.410 . S
C339 C347 1.503 . S
C340 C339 1.410 . S
C340 C341 1.392 . S
C340 C343 1.511 . S
C341 C337 1.376 . S
C341 C340 1.392 . S
C341 H353 0.929 . S
C342 C338 1.531 . S
C342 H354 0.960 . S
C342 H355 0.962 . S
C342 H356 0.960 . S
C343 C340 1.511 . S
C343 H357 0.961 . S
C343 H358 0.961 . S
C343 H359 0.961 . S
C344 C345 1.370 . S
C344 C346 1.363 . S
C344 H360 0.931 . S
C345 C344 1.370 . S
C345 C349 1.408 . S
C346 C344 1.363 . S
C346 C347 1.370 . S
C346 C350 1.524 . S
C347 C339 1.503 . S
C347 C346 1.370 . S
C347 C348 1.403 . S
C348 C347 1.403 . S
C348 C349 1.404 . S
C348 C351 1.539 . S
C349 C345 1.408 . S
C349 C348 1.404 . S
C349 H361 0.930 . S
C350 C346 1.524 . S
C350 H362 0.956 . S
C350 H363 0.961 . S
C350 H364 0.961 . S
C351 C348 1.539 . S
C351 H365 0.958 . S
C351 H366 0.961 . S
C351 H367 0.960 . S
H352 C336 0.931 . S
H353 C341 0.929 . S
H354 C342 0.960 . S
H355 C342 0.962 . S
H356 C342 0.960 . S
H357 C343 0.961 . S
H358 C343 0.961 . S
H359 C343 0.961 . S
H360 C344 0.931 . S
H361 C349 0.930 . S
H362 C350 0.956 . S
H363 C350 0.961 . S
H364 C350 0.961 . S
H365 C351 0.958 . S
H366 C351 0.961 . S
H367 C351 0.960 . S
C368 C369 1.391 . S
C368 C370 1.394 . S
C368 H384 0.931 . S
C369 C368 1.391 . S
C369 C373 1.376 . S
C370 C368 1.394 . S
C370 C371 1.369 . S
C370 C374 1.531 . S
C371 C370 1.369 . S
C371 C372 1.410 . S
C371 C379 1.503 . S
C372 C371 1.410 . S
C372 C373 1.392 . S
C372 C375 1.511 . S
C373 C369 1.376 . S
C373 C372 1.392 . S
C373 H385 0.929 . S
C374 C370 1.531 . S
C374 H386 0.960 . S
C374 H387 0.962 . S
C374 H388 0.960 . S
C375 C372 1.511 . S
C375 H389 0.961 . S
C375 H390 0.961 . S
C375 H391 0.961 . S
C376 C377 1.370 . S
C376 C378 1.363 . S
C376 H392 0.931 . S
C377 C376 1.370 . S
C377 C381 1.408 . S
C378 C376 1.363 . S
C378 C379 1.370 . S
C378 C382 1.524 . S
C379 C371 1.503 . S
C379 C378 1.370 . S
C379 C380 1.403 . S
C380 C379 1.403 . S
C380 C381 1.404 . S
C380 C383 1.539 . S
C381 C377 1.408 . S
C381 C380 1.404 . S
C381 H393 0.930 . S
C382 C378 1.524 . S
C382 H394 0.956 . S
C382 H395 0.961 . S
C382 H396 0.961 . S
C383 C380 1.539 . S
C383 H397 0.958 . S
C383 H398 0.961 . S
C383 H399 0.960 . S
H384 C368 0.931 . S
H385 C373 0.929 . S
H386 C374 0.960 . S
H387 C374 0.962 . S
H388 C374 0.960 . S
H389 C375 0.961 . S
H390 C375 0.961 . S
H391 C375 0.961 . S
H392 C376 0.931 . S
H393 C381 0.930 . S
H394 C382 0.956 . S
H395 C382 0.961 . S
H396 C382 0.961 . S
H397 C383 0.958 . S
H398 C383 0.961 . S
H399 C383 0.960 . S
C400 C401 1.391 . S
C400 C402 1.394 . S
C400 H416 0.931 . S
C401 C400 1.391 . S
C401 C405 1.376 . S
C402 C400 1.394 . S
C402 C403 1.369 . S
C402 C406 1.531 . S
C403 C402 1.369 . S
C403 C404 1.410 . S
C403 C411 1.503 1_556 S
C404 C403 1.410 . S
C404 C405 1.392 . S
C404 C407 1.511 1_556 S
C405 C401 1.376 . S
C405 C404 1.392 . S
C405 H417 0.929 . S
C406 C402 1.531 . S
C406 H418 0.960 . S
C406 H419 0.962 . S
C406 H420 0.960 . S
C407 C404 1.511 1_554 S
C407 H421 0.961 . S
C407 H422 0.961 . S
C407 H423 0.962 . S
C408 C409 1.370 . S
C408 C410 1.363 . S
C408 H424 0.931 . S
C409 C408 1.370 . S
C409 C413 1.408 . S
C410 C408 1.363 . S
C410 C411 1.370 . S
C410 C414 1.524 . S
C411 C403 1.503 1_554 S
C411 C410 1.370 . S
C411 C412 1.403 . S
C412 C411 1.403 . S
C412 C413 1.404 . S
C412 C415 1.539 1_554 S
C413 C409 1.408 . S
C413 C412 1.404 . S
C413 H425 0.930 . S
C414 C410 1.524 . S
C414 H426 0.956 . S
C414 H427 0.961 . S
C414 H428 0.961 . S
C415 C412 1.539 1_556 S
C415 H429 0.958 . S
C415 H430 0.961 . S
C415 H431 0.960 . S
H416 C400 0.931 . S
H417 C405 0.929 . S
H418 C406 0.960 . S
H419 C406 0.962 . S
H420 C406 0.960 . S
H421 C407 0.961 . S
H422 C407 0.961 . S
H423 C407 0.962 . S
H424 C408 0.931 . S
H425 C413 0.930 . S
H426 C414 0.956 . S
H427 C414 0.961 . S
H428 C414 0.961 . S
H429 C415 0.958 . S
H430 C415 0.961 . S
H431 C415 0.960 . S
C432 C433 1.391 . S
C432 C434 1.394 . S
C432 H448 0.931 . S
C433 C432 1.391 . S
C433 C437 1.376 . S
C434 C432 1.394 . S
C434 C435 1.369 . S
C434 C438 1.531 1_565 S
C435 C434 1.369 . S
C435 C436 1.410 . S
C435 C443 1.503 1_565 S
C436 C435 1.410 . S
C436 C437 1.392 . S
C436 C439 1.511 . S
C437 C433 1.376 . S
C437 C436 1.392 . S
C437 H449 0.929 . S
C438 C434 1.531 1_545 S
C438 H450 0.960 . S
C438 H451 0.962 . S
C438 H452 0.960 . S
C439 C436 1.511 . S
C439 H453 0.961 . S
C439 H454 0.961 . S
C439 H455 0.961 . S
C440 C441 1.370 . S
C440 C442 1.363 1_545 S
C440 H456 0.926 1_545 S
C441 C440 1.370 . S
C441 C445 1.408 . S
C442 C440 1.363 1_565 S
C442 C443 1.370 1_565 S
C442 C446 1.524 . S
C443 C435 1.503 1_545 S
C443 C442 1.370 1_545 S
C443 C444 1.403 . S
C444 C443 1.403 . S
C444 C445 1.404 . S
C444 C447 1.539 . S
C445 C441 1.408 . S
C445 C444 1.404 . S
C445 H457 0.930 . S
C446 C442 1.524 . S
C446 H458 0.956 . S
C446 H459 0.961 . S
C446 H460 0.961 . S
C447 C444 1.539 . S
C447 H461 0.958 . S
C447 H462 0.961 . S
C447 H463 0.960 . S
H448 C432 0.931 . S
H449 C437 0.929 . S
H450 C438 0.960 . S
H451 C438 0.962 . S
H452 C438 0.960 . S
H453 C439 0.961 . S
H454 C439 0.961 . S
H455 C439 0.961 . S
H456 C440 0.926 1_565 S
H457 C445 0.930 . S
H458 C446 0.956 . S
H459 C446 0.961 . S
H460 C446 0.961 . S
H461 C447 0.958 . S
H462 C447 0.961 . S
H463 C447 0.960 . S
C464 C465 1.391 . S
C464 C466 1.394 . S
C464 H480 0.931 . S
C465 C464 1.391 . S
C465 C469 1.376 . S
C466 C464 1.394 . S
C466 C467 1.369 . S
C466 C470 1.531 . S
C467 C466 1.369 . S
C467 C468 1.410 1_655 S
C467 C475 1.503 1_655 S
C468 C467 1.410 1_455 S
C468 C469 1.392 1_455 S
C468 C471 1.511 . S
C469 C465 1.376 . S
C469 C468 1.392 1_655 S
C469 H481 0.929 1_655 S
C470 C466 1.531 . S
C470 H482 0.960 . S
C470 H483 0.962 1_565 S
C470 H484 0.960 . S
C471 C468 1.511 . S
C471 H485 0.961 . S
C471 H486 0.961 . S
C471 H487 0.961 . S
C472 C473 1.370 . S
C472 C474 1.363 . S
C472 H488 0.931 . S
C473 C472 1.370 . S
C473 C477 1.408 . S
C474 C472 1.363 . S
C474 C475 1.370 1_545 S
C474 C478 1.524 . S
C475 C467 1.503 1_455 S
C475 C474 1.370 1_565 S
C475 C476 1.403 . S
C476 C475 1.403 . S
C476 C477 1.404 1_565 S
C476 C479 1.539 . S
C477 C473 1.408 . S
C477 C476 1.404 1_545 S
C477 H489 0.930 1_545 S
C478 C474 1.524 . S
C478 H490 0.956 1_455 S
C478 H491 0.961 . S
C478 H492 0.961 . S
C479 C476 1.539 . S
C479 H493 0.958 . S
C479 H494 0.961 . S
C479 H495 0.960 . S
H480 C464 0.931 . S
H481 C469 0.929 1_455 S
H482 C470 0.960 . S
H483 C470 0.962 1_545 S
H484 C470 0.960 . S
H485 C471 0.961 . S
H486 C471 0.961 . S
H487 C471 0.961 . S
H488 C472 0.931 . S
H489 C477 0.930 1_565 S
H490 C478 0.956 1_655 S
H491 C478 0.961 . S
H492 C478 0.961 . S
H493 C479 0.958 . S
H494 C479 0.961 . S
H495 C479 0.960 . S
C496 C497 1.391 . S
C496 C498 1.394 1_655 S
C496 H512 0.931 1_655 S
C497 C496 1.391 . S
C497 C501 1.376 . S
C498 C496 1.394 1_455 S
C498 C499 1.365 1_455 S
C498 C502 1.531 . S
C499 C498 1.365 1_655 S
C499 C500 1.420 . S
C499 C507 1.497 1_655 S
C500 C499 1.420 . S
C500 C501 1.392 . S
C500 C503 1.511 . S
C501 C497 1.376 . S
C501 C500 1.392 . S
C501 H513 0.929 . S
C502 C498 1.531 . S
C502 H514 0.960 . S
C502 H515 0.962 . S
C502 H516 0.960 . S
C503 C500 1.511 . S
C503 H517 0.961 . S
C503 H518 0.961 . S
C503 H519 0.961 . S
C504 C505 1.370 . S
C504 C506 1.363 . S
C504 H520 0.931 . S
C505 C504 1.370 . S
C505 C509 1.408 . S
C506 C504 1.363 . S
C506 C507 1.370 . S
C506 C510 1.524 . S
C507 C499 1.497 1_455 S
C507 C506 1.370 . S
C507 C508 1.403 . S
C508 C507 1.403 . S
C508 C509 1.404 . S
C508 C511 1.540 1_455 S
C509 C505 1.408 . S
C509 C508 1.404 . S
C509 H521 0.930 . S
C510 C506 1.524 . S
C510 H522 0.956 . S
C510 H523 0.961 . S
C510 H524 0.961 . S
C511 C508 1.540 1_655 S
C511 H525 0.958 1_655 S
C511 H526 0.961 . S
C511 H527 0.959 . S
H512 C496 0.931 1_455 S
H513 C501 0.929 . S
H514 C502 0.960 . S
H515 C502 0.962 . S
H516 C502 0.960 . S
H517 C503 0.961 . S
H518 C503 0.961 . S
H519 C503 0.961 . S
H520 C504 0.931 . S
H521 C509 0.930 . S
H522 C510 0.956 . S
H523 C510 0.961 . S
H524 C510 0.961 . S
H525 C511 0.958 1_455 S
H526 C511 0.961 . S
H527 C511 0.959 . S
C528 C529 1.391 . S
C528 C530 1.394 . S
C528 H544 0.931 . S
C529 C528 1.391 . S
C529 C533 1.376 . S
C530 C528 1.394 . S
C530 C531 1.369 . S
C530 C534 1.531 . S
C531 C530 1.369 . S
C531 C532 1.410 . S
C531 C539 1.503 . S
C532 C531 1.410 . S
C532 C533 1.392 . S
C532 C535 1.511 . S
C533 C529 1.376 . S
C533 C532 1.392 . S
C533 H545 0.929 . S
C534 C530 1.531 . S
C534 H546 0.960 . S
C534 H547 0.962 . S
C534 H548 0.960 . S
C535 C532 1.511 . S
C535 H549 0.961 . S
C535 H550 0.961 . S
C535 H551 0.961 . S
C536 C537 1.370 . S
C536 C538 1.363 . S
C536 H552 0.931 . S
C537 C536 1.370 . S
C537 C541 1.408 . S
C538 C536 1.363 . S
C538 C539 1.370 . S
C538 C542 1.524 . S
C539 C531 1.503 . S
C539 C538 1.370 . S
C539 C540 1.403 . S
C540 C539 1.403 . S
C540 C541 1.404 . S
C540 C543 1.539 . S
C541 C537 1.408 . S
C541 C540 1.404 . S
C541 H553 0.930 . S
C542 C538 1.524 . S
C542 H554 0.956 . S
C542 H555 0.961 . S
C542 H556 0.961 . S
C543 C540 1.539 . S
C543 H557 0.958 . S
C543 H558 0.961 . S
C543 H559 0.960 . S
H544 C528 0.931 . S
H545 C533 0.929 . S
H546 C534 0.960 . S
H547 C534 0.962 . S
H548 C534 0.960 . S
H549 C535 0.961 . S
H550 C535 0.961 . S
H551 C535 0.961 . S
H552 C536 0.931 . S
H553 C541 0.930 . S
H554 C542 0.956 . S
H555 C542 0.961 . S
H556 C542 0.961 . S
H557 C543 0.958 . S
H558 C543 0.961 . S
H559 C543 0.960 . S
C560 C561 1.391 . S
C560 C562 1.394 . S
C560 H576 0.931 . S
C561 C560 1.391 . S
C561 C565 1.376 . S
C562 C560 1.394 . S
C562 C563 1.369 . S
C562 C566 1.531 . S
C563 C562 1.369 . S
C563 C564 1.410 . S
C563 C571 1.503 1_554 S
C564 C563 1.410 . S
C564 C565 1.392 . S
C564 C567 1.511 . S
C565 C561 1.376 . S
C565 C564 1.392 . S
C565 H577 0.929 . S
C566 C562 1.531 . S
C566 H578 0.960 . S
C566 H579 0.962 1_554 S
C566 H580 0.960 . S
C567 C564 1.511 . S
C567 H581 0.961 . S
C567 H582 0.961 1_554 S
C567 H583 0.961 . S
C568 C569 1.370 . S
C568 C570 1.363 . S
C568 H584 0.931 . S
C569 C568 1.370 . S
C569 C573 1.408 . S
C570 C568 1.363 . S
C570 C571 1.370 . S
C570 C574 1.524 . S
C571 C563 1.503 1_556 S
C571 C570 1.370 . S
C571 C572 1.403 1_556 S
C572 C571 1.403 1_554 S
C572 C573 1.404 1_554 S
C572 C575 1.539 . S
C573 C569 1.408 . S
C573 C572 1.404 1_556 S
C573 H585 0.930 . S
C574 C570 1.524 . S
C574 H586 0.956 . S
C574 H587 0.961 . S
C574 H588 0.961 . S
C575 C572 1.539 . S
C575 H589 0.958 . S
C575 H590 0.961 . S
C575 H591 0.960 . S
H576 C560 0.931 . S
H577 C565 0.929 . S
H578 C566 0.960 . S
H579 C566 0.962 1_556 S
H580 C566 0.960 . S
H581 C567 0.961 . S
H582 C567 0.961 1_556 S
H583 C567 0.961 . S
H584 C568 0.931 . S
H585 C573 0.930 . S
H586 C574 0.956 . S
H587 C574 0.961 . S
H588 C574 0.961 . S
H589 C575 0.958 . S
H590 C575 0.961 . S
H591 C575 0.960 . S
C592 C593 1.391 . S
C592 C594 1.394 . S
C592 H608 0.931 . S
C593 C592 1.391 . S
C593 C597 1.376 . S
C594 C592 1.394 . S
C594 C595 1.369 . S
C594 C598 1.531 . S
C595 C594 1.369 . S
C595 C596 1.410 . S
C595 C603 1.503 . S
C596 C595 1.410 . S
C596 C597 1.392 . S
C596 C599 1.511 . S
C597 C593 1.376 . S
C597 C596 1.392 . S
C597 H609 0.929 . S
C598 C594 1.531 . S
C598 H610 0.960 . S
C598 H611 0.962 . S
C598 H612 0.960 . S
C599 C596 1.511 . S
C599 H613 0.961 . S
C599 H614 0.961 . S
C599 H615 0.961 . S
C600 C601 1.370 . S
C600 C602 1.363 . S
C600 H616 0.931 . S
C601 C600 1.370 . S
C601 C605 1.408 . S
C602 C600 1.363 . S
C602 C603 1.370 . S
C602 C606 1.524 . S
C603 C595 1.503 . S
C603 C602 1.370 . S
C603 C604 1.403 . S
C604 C603 1.403 . S
C604 C605 1.404 . S
C604 C607 1.539 . S
C605 C601 1.408 . S
C605 C604 1.404 . S
C605 H617 0.930 . S
C606 C602 1.524 . S
C606 H618 0.956 . S
C606 H619 0.961 . S
C606 H620 0.961 . S
C607 C604 1.539 . S
C607 H621 0.958 . S
C607 H622 0.961 . S
C607 H623 0.960 . S
H608 C592 0.931 . S
H609 C597 0.929 . S
H610 C598 0.960 . S
H611 C598 0.962 . S
H612 C598 0.960 . S
H613 C599 0.961 . S
H614 C599 0.961 . S
H615 C599 0.961 . S
H616 C600 0.931 . S
H617 C605 0.930 . S
H618 C606 0.956 . S
H619 C606 0.961 . S
H620 C606 0.961 . S
H621 C607 0.958 . S
H622 C607 0.961 . S
H623 C607 0.960 . S
C113 C75 1.551 . S
C121 C5 1.556 . S
C145 C109 1.537 . S
C153 C14 1.539 . S
C177 C37 1.526 . S
C185 C93 1.532 . S
C209 C53 1.525 . S
C217 C56 1.528 . S
C241 C84 1.518 . S
C249 C11 1.528 . S
C273 C23 1.526 . S
C281 C65 1.532 . S
C305 C81 1.543 . S
C313 C28 1.536 . S
C337 C47 1.556 . S
C345 C103 1.558 . S
C369 C67 1.518 . S
C377 C70 1.537 . S
C401 C19 1.546 . S
C409 C33 1.552 . S
C433 C42 1.523 . S
C441 C39 1.526 . S
C465 C51 1.528 . S
C473 C9 1.531 . S
C497 C25 1.514 . S
C505 C0 1.533 . S
C529 C98 1.520 . S
C537 C95 1.535 . S
C561 C61 1.551 . S
C569 C89 1.554 . S
C593 C79 1.526 . S
C601 C107 1.532 . S
