# Generated by pormake.
# Topology fce, (5)-cn, num edge types: 1
# Building blocks:
#     Node 0, Type 0, BuildingBlock: BEQFEK_clean_sbu_0, # of connection points: 5
#     Node 1, Type 0, BuildingBlock: BEQFEK_clean_sbu_0, # of connection points: 5
#     Node 2, Type 0, BuildingBlock: BEQFEK_clean_sbu_0, # of connection points: 5
#     Node 3, Type 0, BuildingBlock: BEQFEK_clean_sbu_0, # of connection points: 5
#     Node 4, Type 0, BuildingBlock: BEQFEK_clean_sbu_0, # of connection points: 5
#     Node 5, Type 0, BuildingBlock: BEQFEK_clean_sbu_0, # of connection points: 5
#     Node 6, Type 0, BuildingBlock: BEQFEK_clean_sbu_0, # of connection points: 5
#     Node 7, Type 0, BuildingBlock: BEQFEK_clean_sbu_0, # of connection points: 5
#     Node 8, Type 0, BuildingBlock: BEQFEK_clean_sbu_0, # of connection points: 5
#     Node 9, Type 0, BuildingBlock: BEQFEK_clean_sbu_0, # of connection points: 5
#     Node 10, Type 0, BuildingBlock: BEQFEK_clean_sbu_0, # of connection points: 5
#     Node 11, Type 0, BuildingBlock: BEQFEK_clean_sbu_0, # of connection points: 5
#     Node 12, Type 0, BuildingBlock: BEQFEK_clean_sbu_0, # of connection points: 5
#     Node 13, Type 0, BuildingBlock: BEQFEK_clean_sbu_0, # of connection points: 5
#     Node 14, Type 0, BuildingBlock: BEQFEK_clean_sbu_0, # of connection points: 5
#     Node 15, Type 0, BuildingBlock: BEQFEK_clean_sbu_0, # of connection points: 5
#     Node 16, Type 0, BuildingBlock: BEQFEK_clean_sbu_0, # of connection points: 5
#     Node 17, Type 0, BuildingBlock: BEQFEK_clean_sbu_0, # of connection points: 5
#     Node 18, Type 0, BuildingBlock: BEQFEK_clean_sbu_0, # of connection points: 5
#     Node 19, Type 0, BuildingBlock: BEQFEK_clean_sbu_0, # of connection points: 5
#     Node 20, Type 0, BuildingBlock: BEQFEK_clean_sbu_0, # of connection points: 5
#     Node 21, Type 0, BuildingBlock: BEQFEK_clean_sbu_0, # of connection points: 5
#     Node 22, Type 0, BuildingBlock: BEQFEK_clean_sbu_0, # of connection points: 5
#     Node 23, Type 0, BuildingBlock: BEQFEK_clean_sbu_0, # of connection points: 5
#     Edge 24, Type (0, 0), BuildingBlock: OJICUG_clean_linker_0, # of connection points: 2
#     Edge 25, Type (0, 0), BuildingBlock: OJICUG_clean_linker_0, # of connection points: 2
#     Edge 26, Type (0, 0), BuildingBlock: OJICUG_clean_linker_0, # of connection points: 2
#     Edge 27, Type (0, 0), BuildingBlock: OJICUG_clean_linker_0, # of connection points: 2
#     Edge 28, Type (0, 0), BuildingBlock: OJICUG_clean_linker_0, # of connection points: 2
#     Edge 29, Type (0, 0), BuildingBlock: OJICUG_clean_linker_0, # of connection points: 2
#     Edge 30, Type (0, 0), BuildingBlock: OJICUG_clean_linker_0, # of connection points: 2
#     Edge 31, Type (0, 0), BuildingBlock: OJICUG_clean_linker_0, # of connection points: 2
#     Edge 32, Type (0, 0), BuildingBlock: OJICUG_clean_linker_0, # of connection points: 2
#     Edge 33, Type (0, 0), BuildingBlock: OJICUG_clean_linker_0, # of connection points: 2
#     Edge 34, Type (0, 0), BuildingBlock: OJICUG_clean_linker_0, # of connection points: 2
#     Edge 35, Type (0, 0), BuildingBlock: OJICUG_clean_linker_0, # of connection points: 2
#     Edge 36, Type (0, 0), BuildingBlock: OJICUG_clean_linker_0, # of connection points: 2
#     Edge 37, Type (0, 0), BuildingBlock: OJICUG_clean_linker_0, # of connection points: 2
#     Edge 38, Type (0, 0), BuildingBlock: OJICUG_clean_linker_0, # of connection points: 2
#     Edge 39, Type (0, 0), BuildingBlock: OJICUG_clean_linker_0, # of connection points: 2
#     Edge 40, Type (0, 0), BuildingBlock: OJICUG_clean_linker_0, # of connection points: 2
#     Edge 41, Type (0, 0), BuildingBlock: OJICUG_clean_linker_0, # of connection points: 2
#     Edge 42, Type (0, 0), BuildingBlock: OJICUG_clean_linker_0, # of connection points: 2
#     Edge 43, Type (0, 0), BuildingBlock: OJICUG_clean_linker_0, # of connection points: 2
#     Edge 44, Type (0, 0), BuildingBlock: OJICUG_clean_linker_0, # of connection points: 2
#     Edge 45, Type (0, 0), BuildingBlock: OJICUG_clean_linker_0, # of connection points: 2
#     Edge 46, Type (0, 0), BuildingBlock: OJICUG_clean_linker_0, # of connection points: 2
#     Edge 47, Type (0, 0), BuildingBlock: OJICUG_clean_linker_0, # of connection points: 2
#     Edge 48, Type (0, 0), BuildingBlock: OJICUG_clean_linker_0, # of connection points: 2
#     Edge 49, Type (0, 0), BuildingBlock: OJICUG_clean_linker_0, # of connection points: 2
#     Edge 50, Type (0, 0), BuildingBlock: OJICUG_clean_linker_0, # of connection points: 2
#     Edge 51, Type (0, 0), BuildingBlock: OJICUG_clean_linker_0, # of connection points: 2
#     Edge 52, Type (0, 0), BuildingBlock: OJICUG_clean_linker_0, # of connection points: 2
#     Edge 53, Type (0, 0), BuildingBlock: OJICUG_clean_linker_0, # of connection points: 2
#     Edge 54, Type (0, 0), BuildingBlock: OJICUG_clean_linker_0, # of connection points: 2
#     Edge 55, Type (0, 0), BuildingBlock: OJICUG_clean_linker_0, # of connection points: 2
#     Edge 56, Type (0, 0), BuildingBlock: OJICUG_clean_linker_0, # of connection points: 2
#     Edge 57, Type (0, 0), BuildingBlock: OJICUG_clean_linker_0, # of connection points: 2
#     Edge 58, Type (0, 0), BuildingBlock: OJICUG_clean_linker_0, # of connection points: 2
#     Edge 59, Type (0, 0), BuildingBlock: OJICUG_clean_linker_0, # of connection points: 2
#     Edge 60, Type (0, 0), BuildingBlock: OJICUG_clean_linker_0, # of connection points: 2
#     Edge 61, Type (0, 0), BuildingBlock: OJICUG_clean_linker_0, # of connection points: 2
#     Edge 62, Type (0, 0), BuildingBlock: OJICUG_clean_linker_0, # of connection points: 2
#     Edge 63, Type (0, 0), BuildingBlock: OJICUG_clean_linker_0, # of connection points: 2
#     Edge 64, Type (0, 0), BuildingBlock: OJICUG_clean_linker_0, # of connection points: 2
#     Edge 65, Type (0, 0), BuildingBlock: OJICUG_clean_linker_0, # of connection points: 2
#     Edge 66, Type (0, 0), BuildingBlock: OJICUG_clean_linker_0, # of connection points: 2
#     Edge 67, Type (0, 0), BuildingBlock: OJICUG_clean_linker_0, # of connection points: 2
#     Edge 68, Type (0, 0), BuildingBlock: OJICUG_clean_linker_0, # of connection points: 2
#     Edge 69, Type (0, 0), BuildingBlock: OJICUG_clean_linker_0, # of connection points: 2
#     Edge 70, Type (0, 0), BuildingBlock: OJICUG_clean_linker_0, # of connection points: 2
#     Edge 71, Type (0, 0), BuildingBlock: OJICUG_clean_linker_0, # of connection points: 2
#     Edge 72, Type (0, 0), BuildingBlock: OJICUG_clean_linker_0, # of connection points: 2
#     Edge 73, Type (0, 0), BuildingBlock: OJICUG_clean_linker_0, # of connection points: 2
#     Edge 74, Type (0, 0), BuildingBlock: OJICUG_clean_linker_0, # of connection points: 2
#     Edge 75, Type (0, 0), BuildingBlock: OJICUG_clean_linker_0, # of connection points: 2
#     Edge 76, Type (0, 0), BuildingBlock: OJICUG_clean_linker_0, # of connection points: 2
#     Edge 77, Type (0, 0), BuildingBlock: OJICUG_clean_linker_0, # of connection points: 2
#     Edge 78, Type (0, 0), BuildingBlock: OJICUG_clean_linker_0, # of connection points: 2
#     Edge 79, Type (0, 0), BuildingBlock: OJICUG_clean_linker_0, # of connection points: 2
#     Edge 80, Type (0, 0), BuildingBlock: OJICUG_clean_linker_0, # of connection points: 2
#     Edge 81, Type (0, 0), BuildingBlock: OJICUG_clean_linker_0, # of connection points: 2
#     Edge 82, Type (0, 0), BuildingBlock: OJICUG_clean_linker_0, # of connection points: 2
#     Edge 83, Type (0, 0), BuildingBlock: OJICUG_clean_linker_0, # of connection points: 2
# Relax obj value: 0.940
# Max RMSD: 0.237
# Mean RMSD: 0.237
data_MOF--net-fce--node1-BEQFEK_clean_sbu_0--edge1-OJICUG_clean_linker_0
_symmetry_space_group_name_H-M    P1
_symmetry_Int_Tables_number       1
_symmetry_cell_setting            triclinic
loop_
_symmetry_equiv_pos_as_xyz
'x, y, z'
_cell_length_a     36.539907
_cell_length_b     36.535012
_cell_length_c     36.533737
_cell_angle_alpha  90.013384
_cell_angle_beta   89.9944
_cell_angle_gamma 90.022387
loop_
_atom_site_label
_atom_site_type_symbol
_atom_site_fract_x
_atom_site_fract_y
_atom_site_fract_z
_atom_type_partial_charge
Co0 Co 0.1167 0.43198 0.22872 0.0
Co1 Co 0.16641 0.39738 0.28948 0.0
C2 C 0.14877 0.47632 0.29067 0.0
O3 O 0.13254 0.4742 0.25976 0.0
O4 O 0.16035 0.44791 0.30724 0.0
C5 C 0.07528 0.47944 0.18141 0.0
O6 O 0.09796 0.505 0.19258 0.0
C7 C 0.17998 0.37199 0.36285 0.0
C8 C 0.21436 0.32301 0.35426 0.0
C9 C 0.19505 0.34218 0.38073 0.0
N10 N 0.18949 0.37025 0.32739 0.0
N11 N 0.21089 0.34151 0.32253 0.0
C12 C 0.1521 0.39822 0.37764 0.0
H13 H 0.1663 0.42331 0.38719 0.0
H14 H 0.1324 0.40608 0.35594 0.0
H15 H 0.13681 0.38628 0.401 0.0
C16 C 0.06201 0.38216 0.26056 0.0
N17 N 0.09633 0.39525 0.25797 0.0
N18 N 0.11808 0.37692 0.28004 0.0
C19 C 0.09786 0.35076 0.29696 0.0
C20 C 0.0616 0.35361 0.28553 0.0
C21 C 0.03039 0.39661 0.23893 0.0
H22 H 0.03549 0.39117 0.20952 0.0
H23 H 0.02835 0.42668 0.24271 0.0
H24 H 0.00418 0.38342 0.2467 0.0
O25 O 0.15907 0.40928 0.20593 0.0
O26 O 0.20117 0.407 0.24742 0.0
H27 H 0.1407 0.31759 0.31959 0.0
H28 H 0.09556 0.29971 0.32684 0.0
C29 C 0.11202 0.32512 0.32558 0.0
H30 H 0.1103 0.33839 0.35278 0.0
H31 H 0.22074 0.33296 0.29711 0.0
O32 O 0.08016 0.44675 0.19203 0.0
C33 C 0.18975 0.42053 0.21742 0.0
Co34 Co 0.5631 0.11663 0.2289 0.0
Co35 Co 0.59745 0.16867 0.28811 0.0
C36 C 0.51824 0.14968 0.28949 0.0
O37 O 0.52038 0.13232 0.2592 0.0
O38 O 0.54656 0.16254 0.30531 0.0
C39 C 0.51778 0.07338 0.18086 0.0
O40 O 0.49145 0.09593 0.19036 0.0
C41 C 0.62288 0.18108 0.36145 0.0
C42 C 0.67055 0.21747 0.35378 0.0
C43 C 0.65224 0.19661 0.37968 0.0
N44 N 0.62401 0.19184 0.32634 0.0
N45 N 0.65197 0.21439 0.32204 0.0
C46 C 0.59796 0.15159 0.37539 0.0
H47 H 0.57301 0.16446 0.38697 0.0
H48 H 0.58961 0.13312 0.35281 0.0
H49 H 0.6113 0.1352 0.39718 0.0
C50 C 0.6134 0.06345 0.26294 0.0
N51 N 0.59974 0.09747 0.25899 0.0
N52 N 0.61825 0.12051 0.27958 0.0
C53 C 0.64509 0.10158 0.29672 0.0
C54 C 0.64261 0.06484 0.28711 0.0
C55 C 0.59691 0.02999 0.24602 0.0
H56 H 0.60832 0.02648 0.21811 0.0
H57 H 0.5668 0.03311 0.24384 0.0
H58 H 0.60324 0.00513 0.26226 0.0
O59 O 0.58584 0.15894 0.20569 0.0
O60 O 0.58897 0.20263 0.2454 0.0
H61 H 0.67983 0.14641 0.31232 0.0
H62 H 0.69934 0.10166 0.31968 0.0
C63 C 0.67376 0.118 0.32091 0.0
H64 H 0.66417 0.11782 0.34967 0.0
H65 H 0.66001 0.22535 0.29691 0.0
O66 O 0.54994 0.07912 0.1926 0.0
C67 C 0.57469 0.18999 0.21626 0.0
Co68 Co 0.88557 0.56426 0.22816 0.0
Co69 Co 0.83421 0.59936 0.28752 0.0
C70 C 0.85236 0.51996 0.28896 0.0
O71 O 0.86967 0.52181 0.25863 0.0
O72 O 0.83987 0.54846 0.30473 0.0
C73 C 0.92811 0.51846 0.18 0.0
O74 O 0.9053 0.49238 0.18959 0.0
C75 C 0.82251 0.62497 0.36094 0.0
C76 C 0.78626 0.67275 0.35349 0.0
C77 C 0.8072 0.65438 0.37927 0.0
N78 N 0.81156 0.62615 0.32589 0.0
N79 N 0.78912 0.65419 0.32172 0.0
C80 C 0.85194 0.5999 0.37471 0.0
H81 H 0.83899 0.57519 0.38672 0.0
H82 H 0.87002 0.59116 0.35197 0.0
H83 H 0.86876 0.61332 0.39613 0.0
C84 C 0.9395 0.61393 0.26209 0.0
N85 N 0.90526 0.60084 0.25807 0.0
N86 N 0.88253 0.61966 0.2787 0.0
C87 C 0.90189 0.64618 0.2959 0.0
C88 C 0.93859 0.64311 0.28633 0.0
C89 C 0.97271 0.59685 0.24529 0.0
H90 H 0.97656 0.60824 0.21742 0.0
H91 H 0.96903 0.5668 0.24305 0.0
H92 H 0.99762 0.60272 0.26165 0.0
O93 O 0.84324 0.58702 0.20505 0.0
O94 O 0.79989 0.59105 0.24506 0.0
H95 H 0.90259 0.70046 0.31877 0.0
H96 H 0.88624 0.66554 0.34893 0.0
C97 C 0.88595 0.67506 0.32016 0.0
H98 H 0.85756 0.68141 0.31175 0.0
H99 H 0.77803 0.66226 0.29666 0.0
O100 O 0.92277 0.5507 0.19172 0.0
C101 C 0.81214 0.5763 0.21598 0.0
Co102 Co 0.43339 0.88321 0.22794 0.0
Co103 Co 0.39935 0.83286 0.28872 0.0
C104 C 0.47828 0.85153 0.28958 0.0
O105 O 0.47588 0.86807 0.25887 0.0
O106 O 0.45007 0.83922 0.30599 0.0
C107 C 0.48031 0.92553 0.18082 0.0
O108 O 0.50609 0.90298 0.19172 0.0
C109 C 0.37452 0.81933 0.36226 0.0
C110 C 0.32608 0.78406 0.35413 0.0
C111 C 0.34506 0.80386 0.38039 0.0
N112 N 0.37275 0.80961 0.32687 0.0
N113 N 0.34435 0.78768 0.32228 0.0
C114 C 0.40039 0.84772 0.37676 0.0
H115 H 0.42557 0.83394 0.38664 0.0
H116 H 0.40815 0.8672 0.35482 0.0
H117 H 0.38817 0.86319 0.39984 0.0
C118 C 0.38279 0.9371 0.25991 0.0
N119 N 0.39641 0.90298 0.25732 0.0
N120 N 0.37838 0.88095 0.27939 0.0
C121 C 0.35189 0.90075 0.29627 0.0
C122 C 0.3542 0.93705 0.28485 0.0
C123 C 0.39675 0.96896 0.2383 0.0
H124 H 0.39136 0.96381 0.20889 0.0
H125 H 0.42679 0.97146 0.24204 0.0
H126 H 0.38319 0.99496 0.24612 0.0
O127 O 0.41124 0.84043 0.20517 0.0
O128 O 0.40818 0.79822 0.2465 0.0
H129 H 0.31931 0.85735 0.31876 0.0
H130 H 0.3007 0.90219 0.32596 0.0
C131 C 0.32636 0.88615 0.32479 0.0
H132 H 0.3395 0.88809 0.35204 0.0
H133 H 0.33586 0.77752 0.29696 0.0
O134 O 0.44767 0.92014 0.19136 0.0
C135 C 0.42239 0.80979 0.21688 0.0
Co136 Co 0.11541 0.56449 0.77011 0.0
Co137 Co 0.16765 0.59856 0.71087 0.0
C138 C 0.14906 0.51913 0.71024 0.0
O139 O 0.13136 0.5215 0.74031 0.0
O140 O 0.16204 0.54736 0.69435 0.0
C141 C 0.07207 0.51952 0.81832 0.0
O142 O 0.09474 0.49318 0.80913 0.0
C143 C 0.18003 0.62334 0.63733 0.0
C144 C 0.21633 0.67115 0.64465 0.0
C145 C 0.19548 0.65261 0.6189 0.0
N146 N 0.1908 0.62477 0.67243 0.0
N147 N 0.21331 0.6528 0.67652 0.0
C148 C 0.15059 0.59825 0.6236 0.0
H149 H 0.16352 0.57343 0.61182 0.0
H150 H 0.13238 0.58971 0.6463 0.0
H151 H 0.13393 0.61155 0.60198 0.0
C152 C 0.06222 0.61425 0.73531 0.0
N153 N 0.09626 0.60073 0.73952 0.0
N154 N 0.11933 0.61915 0.71889 0.0
C155 C 0.10039 0.64581 0.70147 0.0
C156 C 0.06363 0.64328 0.71094 0.0
C157 C 0.02874 0.59784 0.75227 0.0
H158 H 0.02512 0.60949 0.78007 0.0
H159 H 0.03192 0.56775 0.75471 0.0
H160 H 0.00392 0.60399 0.7359 0.0
O161 O 0.15749 0.58776 0.79328 0.0
O162 O 0.20142 0.59125 0.75391 0.0
H163 H 0.14519 0.68056 0.68584 0.0
H164 H 0.10044 0.69998 0.67831 0.0
C165 C 0.11682 0.67442 0.67721 0.0
H166 H 0.1167 0.66472 0.64849 0.0
H167 H 0.22425 0.66106 0.70159 0.0
O168 O 0.07777 0.5516 0.80636 0.0
C169 C 0.18868 0.57681 0.78292 0.0
Co170 Co 0.43411 0.115 0.77018 0.0
Co171 Co 0.39867 0.16633 0.7112 0.0
C172 C 0.47808 0.14905 0.70945 0.0
O173 O 0.47635 0.13165 0.73973 0.0
O174 O 0.44948 0.16126 0.69367 0.0
C175 C 0.48066 0.07292 0.81777 0.0
O176 O 0.50641 0.09593 0.80774 0.0
C177 C 0.37284 0.17884 0.63803 0.0
C178 C 0.32442 0.21409 0.64615 0.0
C179 C 0.34316 0.19392 0.62 0.0
N180 N 0.37151 0.18919 0.67326 0.0
N181 N 0.34308 0.21107 0.67784 0.0
C182 C 0.39839 0.15006 0.62375 0.0
H183 H 0.42317 0.1636 0.61256 0.0
H184 H 0.40694 0.13139 0.64607 0.0
H185 H 0.38549 0.13376 0.60161 0.0
C186 C 0.38491 0.06071 0.73618 0.0
N187 N 0.39777 0.09505 0.74022 0.0
N188 N 0.37885 0.11767 0.71957 0.0
C189 C 0.35255 0.09811 0.70226 0.0
C190 C 0.3558 0.06141 0.71185 0.0
C191 C 0.40211 0.02766 0.75317 0.0
H192 H 0.39109 0.02419 0.78125 0.0
H193 H 0.43219 0.03134 0.75502 0.0
H194 H 0.39604 0.00256 0.73718 0.0
O195 O 0.41076 0.15678 0.79363 0.0
O196 O 0.40709 0.20039 0.75393 0.0
H197 H 0.3169 0.14209 0.6864 0.0
H198 H 0.29851 0.09689 0.67881 0.0
C199 C 0.3237 0.11385 0.67783 0.0
H200 H 0.33356 0.11394 0.64916 0.0
H201 H 0.33484 0.22159 0.70309 0.0
O202 O 0.44825 0.0779 0.80641 0.0
C203 C 0.42149 0.18799 0.78311 0.0
Co204 Co 0.8825 0.43409 0.77074 0.0
Co205 Co 0.83229 0.39978 0.71024 0.0
C206 C 0.85031 0.47866 0.70899 0.0
O207 O 0.86664 0.47642 0.73983 0.0
O208 O 0.83848 0.45032 0.69244 0.0
C209 C 0.92441 0.48148 0.81779 0.0
O210 O 0.9016 0.50706 0.80699 0.0
C211 C 0.81803 0.37428 0.63704 0.0
C212 C 0.78351 0.32545 0.64601 0.0
C213 C 0.80269 0.34449 0.61935 0.0
N214 N 0.8088 0.37268 0.67257 0.0
N215 N 0.7873 0.34403 0.67767 0.0
C216 C 0.8459 0.40038 0.62197 0.0
H217 H 0.83173 0.42551 0.61252 0.0
H218 H 0.86582 0.4082 0.64348 0.0
H219 H 0.86091 0.38835 0.59848 0.0
C220 C 0.93668 0.38379 0.73883 0.0
N221 N 0.90251 0.39727 0.74138 0.0
N222 N 0.88053 0.37908 0.7194 0.0
C223 C 0.90043 0.35264 0.70255 0.0
C224 C 0.93673 0.35513 0.71396 0.0
C225 C 0.96846 0.39789 0.76047 0.0
H226 H 0.96323 0.39267 0.7899 0.0
H227 H 0.97095 0.42791 0.75657 0.0
H228 H 0.99449 0.3843 0.75281 0.0
O229 O 0.84027 0.41143 0.79383 0.0
O230 O 0.79791 0.40931 0.75257 0.0
H231 H 0.85728 0.31961 0.68026 0.0
H232 H 0.90229 0.30161 0.67254 0.0
C233 C 0.88593 0.32706 0.67402 0.0
H234 H 0.88743 0.34037 0.64683 0.0
H235 H 0.77762 0.33559 0.70318 0.0
O236 O 0.91936 0.44881 0.80714 0.0
C237 C 0.80952 0.42268 0.78257 0.0
Co238 Co 0.56638 0.88393 0.77022 0.0
Co239 Co 0.60132 0.83322 0.71035 0.0
C240 C 0.52192 0.85047 0.70952 0.0
O241 O 0.52393 0.86747 0.74001 0.0
O242 O 0.55039 0.83855 0.69326 0.0
C243 C 0.52005 0.92572 0.81818 0.0
O244 O 0.49432 0.90273 0.80809 0.0
C245 C 0.62665 0.82185 0.63674 0.0
C246 C 0.67496 0.78625 0.64388 0.0
C247 C 0.65616 0.80697 0.61822 0.0
N248 N 0.62816 0.81087 0.67178 0.0
N249 N 0.65654 0.7888 0.67576 0.0
C250 C 0.60111 0.85096 0.62315 0.0
H251 H 0.57635 0.83771 0.6116 0.0
H252 H 0.59254 0.8691 0.64591 0.0
H253 H 0.61405 0.86778 0.60143 0.0
C254 C 0.61511 0.93858 0.73616 0.0
N255 N 0.60242 0.90417 0.74012 0.0
N256 N 0.62124 0.88173 0.71917 0.0
C257 C 0.64735 0.90146 0.70179 0.0
C258 C 0.64402 0.93809 0.71158 0.0
C259 C 0.59789 0.97149 0.75339 0.0
H260 H 0.6091 0.97493 0.7814 0.0
H261 H 0.56784 0.96767 0.75546 0.0
H262 H 0.60373 0.99668 0.73746 0.0
O263 O 0.58993 0.84195 0.79308 0.0
O264 O 0.59294 0.79875 0.75281 0.0
H265 H 0.68292 0.85761 0.68535 0.0
H266 H 0.70136 0.90288 0.67831 0.0
C267 C 0.67614 0.88595 0.67714 0.0
H268 H 0.66629 0.88625 0.64848 0.0
H269 H 0.6649 0.7778 0.70075 0.0
O270 O 0.55247 0.92077 0.80682 0.0
C271 C 0.57905 0.81084 0.78238 0.0
Co272 Co 0.22819 0.11322 0.43507 0.0
Co273 Co 0.28697 0.16556 0.40061 0.0
C274 C 0.28867 0.14676 0.47975 0.0
O275 O 0.25847 0.12923 0.47764 0.0
O276 O 0.30446 0.15959 0.4514 0.0
C277 C 0.1804 0.07003 0.48065 0.0
O278 O 0.1894 0.09309 0.50673 0.0
C279 C 0.36005 0.17909 0.37485 0.0
C280 C 0.35154 0.21518 0.32711 0.0
C281 C 0.37787 0.19485 0.34537 0.0
N282 N 0.32475 0.18922 0.37383 0.0
N283 N 0.31994 0.2116 0.34583 0.0
C284 C 0.37461 0.14997 0.39982 0.0
H285 H 0.38582 0.16313 0.42479 0.0
H286 H 0.35244 0.131 0.40814 0.0
H287 H 0.39681 0.13407 0.38654 0.0
C288 C 0.26243 0.06022 0.38465 0.0
N289 N 0.25825 0.09425 0.39824 0.0
N290 N 0.2788 0.11735 0.37978 0.0
C291 C 0.29615 0.09844 0.35304 0.0
C292 C 0.28671 0.06166 0.35553 0.0
C293 C 0.24568 0.0267 0.4012 0.0
H294 H 0.21766 0.0232 0.39006 0.0
H295 H 0.24379 0.02976 0.43135 0.0
H296 H 0.26186 0.00185 0.39467 0.0
O297 O 0.20433 0.15537 0.41284 0.0
O298 O 0.24402 0.19912 0.40945 0.0
H299 H 0.31174 0.14321 0.31824 0.0
H300 H 0.31961 0.09844 0.29898 0.0
C301 C 0.32049 0.11491 0.3245 0.0
H302 H 0.34914 0.115 0.33436 0.0
H303 H 0.2946 0.22208 0.33787 0.0
O304 O 0.19234 0.07543 0.4485 0.0
C305 C 0.21491 0.1865 0.4238 0.0
Co306 Co 0.88219 0.22963 0.43391 0.0
Co307 Co 0.83084 0.28908 0.39911 0.0
C308 C 0.84849 0.29011 0.47857 0.0
O309 O 0.86597 0.25991 0.47642 0.0
O310 O 0.83594 0.30606 0.45019 0.0
C311 C 0.92442 0.18229 0.48035 0.0
O312 O 0.90167 0.19279 0.50612 0.0
C313 C 0.81865 0.36239 0.37365 0.0
C314 C 0.78318 0.35458 0.32532 0.0
C315 C 0.80361 0.38055 0.34402 0.0
N316 N 0.80804 0.32724 0.37229 0.0
N317 N 0.78601 0.32285 0.34394 0.0
C318 C 0.84761 0.37642 0.39913 0.0
H319 H 0.83423 0.38796 0.42383 0.0
H320 H 0.86597 0.3539 0.40784 0.0
H321 H 0.86421 0.39826 0.3861 0.0
C322 C 0.9363 0.26362 0.38461 0.0
N323 N 0.90206 0.2598 0.39772 0.0
N324 N 0.87944 0.28072 0.37909 0.0
C325 C 0.89892 0.298 0.3527 0.0
C326 C 0.93555 0.28809 0.35562 0.0
C327 C 0.96934 0.24623 0.40141 0.0
H328 H 0.97238 0.21814 0.39029 0.0
H329 H 0.96596 0.24435 0.43153 0.0
H330 H 0.99456 0.26195 0.39513 0.0
O331 O 0.84021 0.20659 0.41042 0.0
O332 O 0.79669 0.24631 0.40659 0.0
H333 H 0.8548 0.3142 0.31738 0.0
H334 H 0.89991 0.32157 0.2987 0.0
C335 C 0.88313 0.32259 0.32402 0.0
H336 H 0.88329 0.35123 0.33396 0.0
H337 H 0.7753 0.29769 0.33569 0.0
O338 O 0.91923 0.19321 0.44781 0.0
C339 C 0.80906 0.21724 0.42119 0.0
Co340 Co 0.77129 0.88633 0.43252 0.0
Co341 Co 0.71054 0.836 0.39867 0.0
C342 C 0.70991 0.85427 0.47762 0.0
O343 O 0.7407 0.87067 0.47515 0.0
O344 O 0.69321 0.84234 0.4494 0.0
C345 C 0.81922 0.92851 0.47905 0.0
O346 O 0.80963 0.90534 0.50481 0.0
C347 C 0.63714 0.82195 0.37367 0.0
C348 C 0.6457 0.78705 0.32503 0.0
C349 C 0.61924 0.80655 0.34402 0.0
N350 N 0.6726 0.81248 0.37198 0.0
N351 N 0.67744 0.79077 0.34346 0.0
C352 C 0.62237 0.85008 0.39965 0.0
H353 H 0.61268 0.83611 0.42481 0.0
H354 H 0.64411 0.86977 0.40745 0.0
H355 H 0.59911 0.86534 0.38752 0.0
C356 C 0.73906 0.94023 0.38205 0.0
N357 N 0.74175 0.90609 0.39563 0.0
N358 N 0.71965 0.88406 0.37766 0.0
C359 C 0.70263 0.90386 0.35126 0.0
C360 C 0.71401 0.94017 0.35357 0.0
C361 C 0.76072 0.97211 0.39589 0.0
H362 H 0.79008 0.967 0.39026 0.0
H363 H 0.75717 0.97458 0.42596 0.0
H364 H 0.75279 0.9981 0.3824 0.0
O365 O 0.79444 0.84383 0.41038 0.0
O366 O 0.75291 0.80165 0.40777 0.0
H367 H 0.6801 0.86052 0.31863 0.0
H368 H 0.67263 0.9054 0.30025 0.0
C369 C 0.67401 0.88926 0.32585 0.0
H370 H 0.64684 0.89104 0.33915 0.0
H371 H 0.70285 0.78087 0.33498 0.0
O372 O 0.80761 0.9235 0.44671 0.0
C373 C 0.78291 0.81304 0.42134 0.0
Co374 Co 0.11759 0.76903 0.43354 0.0
Co375 Co 0.1678 0.70807 0.39977 0.0
C376 C 0.14875 0.70728 0.4786 0.0
O377 O 0.1325 0.73815 0.47621 0.0
O378 O 0.16092 0.69076 0.45039 0.0
C379 C 0.07536 0.81726 0.47972 0.0
O380 O 0.09783 0.80693 0.50581 0.0
C381 C 0.18092 0.63453 0.37491 0.0
C382 C 0.21647 0.64247 0.32664 0.0
C383 C 0.1963 0.61635 0.34544 0.0
N384 N 0.19103 0.66982 0.37332 0.0
N385 N 0.21313 0.67429 0.34503 0.0
C386 C 0.15222 0.62026 0.40056 0.0
H387 H 0.16573 0.61027 0.42585 0.0
H388 H 0.13288 0.64236 0.40817 0.0
H389 H 0.13663 0.59731 0.38822 0.0
C390 C 0.06382 0.7372 0.38269 0.0
N391 N 0.09789 0.73968 0.39647 0.0
N392 N 0.11992 0.7176 0.37848 0.0
C393 C 0.10019 0.70082 0.35186 0.0
C394 C 0.06391 0.71232 0.35406 0.0
C395 C 0.032 0.75897 0.39646 0.0
H396 H 0.03719 0.78829 0.39069 0.0
H397 H 0.02954 0.75557 0.42655 0.0
H398 H 0.00598 0.75104 0.38301 0.0
O399 O 0.16054 0.79163 0.41161 0.0
O400 O 0.20258 0.75007 0.40918 0.0
H401 H 0.14368 0.67823 0.31949 0.0
H402 H 0.09894 0.67144 0.30049 0.0
C403 C 0.11479 0.67234 0.32629 0.0
H404 H 0.11255 0.64503 0.33924 0.0
H405 H 0.22355 0.69953 0.33665 0.0
O406 O 0.08071 0.80583 0.44737 0.0
C407 C 0.19109 0.77992 0.42297 0.0
Co408 Co 0.22952 0.88094 0.56643 0.0
Co409 Co 0.2905 0.83102 0.60041 0.0
C410 C 0.29115 0.84923 0.52147 0.0
O411 O 0.26035 0.86557 0.52394 0.0
O412 O 0.3078 0.83724 0.54967 0.0
C413 C 0.18211 0.92259 0.51936 0.0
O414 O 0.19314 0.89993 0.49372 0.0
C415 C 0.36394 0.81766 0.62543 0.0
C416 C 0.35566 0.78277 0.67412 0.0
C417 C 0.38195 0.80248 0.65511 0.0
N418 N 0.32857 0.80787 0.62713 0.0
N419 N 0.3239 0.78615 0.65568 0.0
C420 C 0.37846 0.8459 0.59943 0.0
H421 H 0.3884 0.83198 0.57434 0.0
H422 H 0.35652 0.8653 0.59151 0.0
H423 H 0.4015 0.8615 0.61159 0.0
C424 C 0.26149 0.93529 0.61657 0.0
N425 N 0.25894 0.90107 0.60317 0.0
N426 N 0.28115 0.87922 0.62123 0.0
C427 C 0.29808 0.89925 0.64754 0.0
C428 C 0.28655 0.93552 0.64505 0.0
C429 C 0.23969 0.96697 0.60251 0.0
H430 H 0.21032 0.96167 0.60793 0.0
H431 H 0.24341 0.96936 0.57246 0.0
H432 H 0.24737 0.99306 0.61597 0.0
O433 O 0.20688 0.83829 0.58888 0.0
O434 O 0.24838 0.79624 0.59148 0.0
H435 H 0.32082 0.85613 0.68027 0.0
H436 H 0.32789 0.9011 0.69864 0.0
C437 C 0.32672 0.88492 0.67306 0.0
H438 H 0.35392 0.8869 0.65985 0.0
H439 H 0.29857 0.77603 0.66416 0.0
O440 O 0.19278 0.91757 0.55202 0.0
C441 C 0.21852 0.80765 0.57767 0.0
Co442 Co 0.11441 0.22817 0.56619 0.0
Co443 Co 0.16637 0.28718 0.60081 0.0
C444 C 0.14851 0.28845 0.52152 0.0
O445 O 0.13098 0.25827 0.52371 0.0
O446 O 0.16104 0.30447 0.54988 0.0
C447 C 0.07177 0.181 0.51984 0.0
O448 O 0.09495 0.1907 0.49413 0.0
C449 C 0.17972 0.36038 0.62634 0.0
C450 C 0.21497 0.35206 0.67474 0.0
C451 C 0.19501 0.37834 0.65599 0.0
N452 N 0.18975 0.32506 0.62773 0.0
N453 N 0.21164 0.32036 0.65613 0.0
C454 C 0.15104 0.37485 0.60081 0.0
H455 H 0.16462 0.38558 0.57585 0.0
H456 H 0.132 0.35271 0.59255 0.0
H457 H 0.13516 0.39736 0.61358 0.0
C458 C 0.06079 0.26268 0.6157 0.0
N459 N 0.09497 0.25846 0.60253 0.0
N460 N 0.11785 0.27919 0.62108 0.0
C461 C 0.09861 0.29674 0.64746 0.0
C462 C 0.06186 0.28723 0.64462 0.0
C463 C 0.02751 0.24567 0.59891 0.0
H464 H 0.02423 0.21757 0.60991 0.0
H465 H 0.03079 0.24388 0.56878 0.0
H466 H 0.00248 0.2616 0.60533 0.0
O467 O 0.15616 0.20447 0.58929 0.0
O468 O 0.19996 0.24409 0.59244 0.0
H469 H 0.14291 0.31258 0.68273 0.0
H470 H 0.0979 0.32071 0.7013 0.0
C471 C 0.11471 0.32132 0.67599 0.0
H472 H 0.11499 0.34989 0.66587 0.0
H473 H 0.22192 0.29504 0.66442 0.0
O474 O 0.07688 0.19227 0.55227 0.0
C475 C 0.18736 0.21482 0.57836 0.0
Co476 Co 0.76902 0.11786 0.5646 0.0
Co477 Co 0.70856 0.16828 0.59878 0.0
C478 C 0.70744 0.14992 0.51983 0.0
O479 O 0.73823 0.13349 0.52207 0.0
O480 O 0.69101 0.16195 0.54816 0.0
C481 C 0.81697 0.0758 0.51801 0.0
O482 O 0.80663 0.09846 0.4921 0.0
C483 C 0.63533 0.18205 0.6242 0.0
C484 C 0.64405 0.21691 0.67283 0.0
C485 C 0.61757 0.19728 0.654 0.0
N486 N 0.67075 0.19172 0.62565 0.0
N487 N 0.67568 0.21344 0.65416 0.0
C488 C 0.62055 0.15382 0.59831 0.0
H489 H 0.61065 0.16773 0.5732 0.0
H490 H 0.64234 0.13425 0.59039 0.0
H491 H 0.59743 0.13842 0.61057 0.0
C492 C 0.73688 0.06387 0.61495 0.0
N493 N 0.73953 0.09802 0.60142 0.0
N494 N 0.71767 0.12009 0.61963 0.0
C495 C 0.70083 0.10027 0.64615 0.0
C496 C 0.7121 0.06394 0.64367 0.0
C497 C 0.75847 0.03203 0.60094 0.0
H498 H 0.78783 0.03703 0.60671 0.0
H499 H 0.75504 0.0298 0.57084 0.0
H500 H 0.75043 0.00596 0.61421 0.0
O501 O 0.79194 0.16027 0.58722 0.0
O502 O 0.75086 0.20274 0.5895 0.0
H503 H 0.67877 0.14364 0.67905 0.0
H504 H 0.67148 0.09874 0.69754 0.0
C505 C 0.67256 0.11489 0.67193 0.0
H506 H 0.64522 0.11313 0.65897 0.0
H507 H 0.7011 0.22345 0.66249 0.0
O508 O 0.80559 0.08092 0.55042 0.0
C509 C 0.78069 0.191 0.5759 0.0
Co510 Co 0.88556 0.77112 0.56437 0.0
Co511 Co 0.83521 0.71047 0.59837 0.0
C512 C 0.85381 0.70939 0.51957 0.0
O513 O 0.87001 0.7403 0.52188 0.0
O514 O 0.84195 0.69276 0.54785 0.0
C515 C 0.92787 0.81897 0.5178 0.0
O516 O 0.90488 0.80922 0.49193 0.0
C517 C 0.82129 0.63716 0.62384 0.0
C518 C 0.78584 0.64591 0.67204 0.0
C519 C 0.80566 0.61939 0.65345 0.0
N520 N 0.81165 0.6726 0.62517 0.0
N521 N 0.78962 0.67755 0.65344 0.0
C522 C 0.84974 0.62233 0.59825 0.0
H523 H 0.83603 0.61214 0.57314 0.0
H524 H 0.86927 0.64415 0.59029 0.0
H525 H 0.86515 0.5994 0.61081 0.0
C526 C 0.93933 0.73915 0.6151 0.0
N527 N 0.90524 0.74178 0.60144 0.0
N528 N 0.88314 0.71985 0.61953 0.0
C529 C 0.90285 0.70302 0.64611 0.0
C530 C 0.93918 0.71432 0.64377 0.0
C531 C 0.97127 0.76064 0.60114 0.0
H532 H 0.96628 0.79004 0.6067 0.0
H533 H 0.97367 0.757 0.57108 0.0
H534 H 0.99726 0.75266 0.61461 0.0
O535 O 0.84301 0.79431 0.58634 0.0
O536 O 0.80086 0.7527 0.58849 0.0
H537 H 0.85933 0.68069 0.67863 0.0
H538 H 0.90407 0.67373 0.69752 0.0
C539 C 0.88816 0.67466 0.67176 0.0
H540 H 0.89022 0.64732 0.65884 0.0
H541 H 0.77951 0.70297 0.66162 0.0
O542 O 0.92273 0.80745 0.55015 0.0
C543 C 0.8123 0.7828 0.57516 0.0
Co544 Co 0.43308 0.22883 0.11565 0.0
Co545 Co 0.39857 0.28872 0.16672 0.0
C546 C 0.47811 0.28907 0.14919 0.0
O547 O 0.47587 0.25878 0.13185 0.0
O548 O 0.44977 0.3052 0.16158 0.0
C549 C 0.479 0.1809 0.07346 0.0
O550 O 0.50486 0.19099 0.09631 0.0
C551 C 0.3738 0.36244 0.17793 0.0
C552 C 0.32566 0.35566 0.21386 0.0
C553 C 0.34445 0.38112 0.19288 0.0
N554 N 0.37217 0.32747 0.18909 0.0
N555 N 0.34393 0.3237 0.21137 0.0
C556 C 0.39923 0.37577 0.14859 0.0
H557 H 0.42391 0.38772 0.16164 0.0
H558 H 0.40795 0.35283 0.13076 0.0
H559 H 0.38612 0.39717 0.13149 0.0
C560 C 0.38429 0.26321 0.06128 0.0
N561 N 0.39723 0.25925 0.09559 0.0
N562 N 0.37858 0.28021 0.11817 0.0
C563 C 0.35234 0.29759 0.09864 0.0
C564 C 0.35541 0.28778 0.06199 0.0
C565 C 0.40115 0.24582 0.02825 0.0
H566 H 0.38974 0.21787 0.02496 0.0
H567 H 0.43121 0.24359 0.03182 0.0
H568 H 0.39519 0.26174 0.00309 0.0
O569 O 0.40916 0.20621 0.15763 0.0
O570 O 0.40564 0.24607 0.2011 0.0
H571 H 0.31705 0.31387 0.1428 0.0
H572 H 0.29823 0.32085 0.09769 0.0
C573 C 0.32358 0.32212 0.1144 0.0
H574 H 0.33333 0.35082 0.11402 0.0
H575 H 0.33552 0.2988 0.22254 0.0
O576 O 0.44659 0.19217 0.07868 0.0
C577 C 0.41996 0.21681 0.18879 0.0
Co578 Co 0.43447 0.77035 0.88538 0.0
Co579 Co 0.40016 0.7107 0.83396 0.0
C580 C 0.47885 0.70859 0.85395 0.0
O581 O 0.4768 0.73931 0.87052 0.0
O582 O 0.45051 0.69259 0.84137 0.0
C583 C 0.48025 0.81839 0.92803 0.0
O584 O 0.50628 0.80887 0.90512 0.0
C585 C 0.37413 0.63749 0.82154 0.0
C586 C 0.3269 0.64541 0.78466 0.0
C587 C 0.34484 0.61941 0.8057 0.0
N588 N 0.37334 0.67261 0.81075 0.0
N589 N 0.34562 0.67706 0.78795 0.0
C590 C 0.39867 0.6234 0.85126 0.0
H591 H 0.42406 0.61249 0.83869 0.0
H592 H 0.40628 0.6458 0.87027 0.0
H593 H 0.38536 0.60113 0.86703 0.0
C594 C 0.38294 0.7377 0.93837 0.0
N595 N 0.39692 0.74121 0.90442 0.0
N596 N 0.37858 0.72037 0.88149 0.0
C597 C 0.3515 0.70356 0.90038 0.0
C598 C 0.35366 0.71358 0.93704 0.0
C599 C 0.3994 0.75472 0.9718 0.0
H600 H 0.38857 0.78292 0.9748 0.0
H601 H 0.42959 0.75624 0.96897 0.0
H602 H 0.39249 0.73898 0.99682 0.0
O603 O 0.41354 0.79369 0.84228 0.0
O604 O 0.41077 0.75265 0.7996 0.0
H605 H 0.31711 0.68735 0.85552 0.0
H606 H 0.29738 0.68022 0.90022 0.0
C607 C 0.32306 0.67902 0.88402 0.0
H608 H 0.33284 0.65034 0.88447 0.0
H609 H 0.33786 0.70222 0.77687 0.0
O610 O 0.44801 0.80668 0.9227 0.0
C611 C 0.4248 0.78223 0.81155 0.0
Co612 Co 0.22807 0.43375 0.88315 0.0
Co613 Co 0.28842 0.39974 0.83236 0.0
C614 C 0.28927 0.4788 0.85077 0.0
O615 O 0.25863 0.47644 0.86746 0.0
O616 O 0.30564 0.45055 0.83849 0.0
C617 C 0.18016 0.4801 0.92553 0.0
O618 O 0.18998 0.506 0.90261 0.0
C619 C 0.36176 0.37478 0.81826 0.0
C620 C 0.35316 0.32617 0.78332 0.0
C621 C 0.37963 0.34513 0.80285 0.0
N622 N 0.32631 0.37312 0.80877 0.0
N623 N 0.32144 0.34463 0.78701 0.0
C624 C 0.37653 0.4007 0.84645 0.0
H625 H 0.38643 0.4258 0.8325 0.0
H626 H 0.35474 0.40863 0.86603 0.0
H627 H 0.39966 0.38847 0.86183 0.0
C628 C 0.26075 0.38353 0.93694 0.0
N629 N 0.25784 0.39703 0.9028 0.0
N630 N 0.27966 0.37891 0.88061 0.0
C631 C 0.29671 0.35247 0.90033 0.0
C632 C 0.28566 0.35493 0.93673 0.0
C633 C 0.23933 0.39747 0.96893 0.0
H634 H 0.20996 0.39158 0.96415 0.0
H635 H 0.24268 0.42758 0.97112 0.0
H636 H 0.2476 0.38424 0.99495 0.0
O637 O 0.20497 0.41105 0.84086 0.0
O638 O 0.24583 0.4083 0.79817 0.0
H639 H 0.31867 0.3197 0.85681 0.0
H640 H 0.32621 0.30119 0.90164 0.0
C641 C 0.325 0.32681 0.88553 0.0
H642 H 0.35231 0.33985 0.88718 0.0
H643 H 0.29602 0.33617 0.7771 0.0
O644 O 0.19172 0.44777 0.92039 0.0
C645 C 0.21615 0.42214 0.81 0.0
Co646 Co 0.56402 0.22964 0.88363 0.0
Co647 Co 0.59898 0.28864 0.83197 0.0
C648 C 0.51974 0.29033 0.8499 0.0
O649 O 0.52169 0.26003 0.86724 0.0
O650 O 0.54822 0.30624 0.8375 0.0
C651 C 0.51769 0.18208 0.92601 0.0
O652 O 0.49182 0.19211 0.90316 0.0
C653 C 0.62498 0.36172 0.81931 0.0
C654 C 0.67324 0.35345 0.78386 0.0
C655 C 0.65474 0.37963 0.80418 0.0
N656 N 0.62607 0.32651 0.80885 0.0
N657 N 0.6544 0.32185 0.78684 0.0
C658 C 0.59964 0.37604 0.84825 0.0
H659 H 0.5748 0.38726 0.83488 0.0
H660 H 0.59116 0.35372 0.86697 0.0
H661 H 0.61267 0.39815 0.86448 0.0
C662 C 0.61371 0.26362 0.93745 0.0
N663 N 0.60052 0.25961 0.90325 0.0
N664 N 0.61924 0.28026 0.88045 0.0
C665 C 0.64575 0.29754 0.89976 0.0
C666 C 0.64283 0.28794 0.93647 0.0
C667 C 0.59684 0.24658 0.97066 0.0
H668 H 0.60779 0.21846 0.97391 0.0
H669 H 0.56672 0.24482 0.96734 0.0
H670 H 0.60326 0.26246 0.99574 0.0
O671 O 0.58702 0.20615 0.84168 0.0
O672 O 0.59009 0.2459 0.79803 0.0
H673 H 0.68108 0.31329 0.85546 0.0
H674 H 0.69987 0.32085 0.90048 0.0
C675 C 0.67453 0.32189 0.88375 0.0
H676 H 0.66476 0.35058 0.88375 0.0
H677 H 0.66248 0.29658 0.77625 0.0
O678 O 0.55008 0.19345 0.92086 0.0
C679 C 0.57599 0.21662 0.81056 0.0
Co680 Co 0.77023 0.56438 0.88531 0.0
Co681 Co 0.71073 0.59897 0.83389 0.0
C682 C 0.70997 0.51946 0.85186 0.0
O683 O 0.74023 0.52154 0.86927 0.0
O684 O 0.69407 0.54786 0.83933 0.0
C685 C 0.81889 0.51912 0.92778 0.0
O686 O 0.8096 0.49295 0.90495 0.0
C687 C 0.63716 0.62394 0.82229 0.0
C688 C 0.64425 0.67161 0.78579 0.0
C689 C 0.61864 0.65316 0.80689 0.0
N690 N 0.67217 0.62531 0.81123 0.0
N691 N 0.67612 0.65326 0.78862 0.0
C692 C 0.62362 0.59892 0.85187 0.0
H693 H 0.61139 0.57424 0.83905 0.0
H694 H 0.64649 0.59012 0.86974 0.0
H695 H 0.60238 0.6124 0.86887 0.0
C696 C 0.7359 0.6138 0.93926 0.0
N697 N 0.73991 0.60058 0.90505 0.0
N698 N 0.71918 0.61925 0.88228 0.0
C699 C 0.70191 0.64576 0.90157 0.0
C700 C 0.71156 0.64288 0.93827 0.0
C701 C 0.753 0.59705 0.97248 0.0
H702 H 0.78081 0.60867 0.97611 0.0
H703 H 0.75544 0.567 0.96897 0.0
H704 H 0.73674 0.60295 0.99744 0.0
O705 O 0.79315 0.58775 0.84317 0.0
O706 O 0.75338 0.59158 0.79964 0.0
H707 H 0.68599 0.68077 0.85708 0.0
H708 H 0.67905 0.70004 0.90203 0.0
C709 C 0.67763 0.67456 0.88553 0.0
H710 H 0.64887 0.66501 0.88592 0.0
H711 H 0.7011 0.66144 0.77742 0.0
O712 O 0.80677 0.55121 0.92249 0.0
C713 C 0.7825 0.57705 0.81198 0.0
Co714 Co 0.56608 0.77059 0.11748 0.0
Co715 Co 0.59993 0.70977 0.16775 0.0
C716 C 0.52103 0.70906 0.14926 0.0
O717 O 0.52349 0.73984 0.13287 0.0
O718 O 0.54922 0.69248 0.16135 0.0
C719 C 0.51915 0.81781 0.07546 0.0
O720 O 0.4935 0.80691 0.09817 0.0
C721 C 0.62475 0.63623 0.18093 0.0
C722 C 0.67321 0.64419 0.21619 0.0
C723 C 0.65427 0.61805 0.1962 0.0
N724 N 0.62647 0.67155 0.19095 0.0
N725 N 0.65488 0.67603 0.21288 0.0
C726 C 0.59892 0.62194 0.15241 0.0
H727 H 0.57372 0.61194 0.1661 0.0
H728 H 0.59118 0.64402 0.1331 0.0
H729 H 0.61115 0.59899 0.13675 0.0
C730 C 0.61634 0.73838 0.06342 0.0
N731 N 0.60284 0.74106 0.09758 0.0
N732 N 0.62091 0.71905 0.11961 0.0
C733 C 0.64734 0.70212 0.09977 0.0
C734 C 0.64491 0.71343 0.06343 0.0
C735 C 0.60232 0.75995 0.03157 0.0
H736 H 0.60779 0.78936 0.03664 0.0
H737 H 0.57226 0.75626 0.02921 0.0
H738 H 0.61577 0.75205 0.00554 0.0
O739 O 0.5886 0.79329 0.16007 0.0
O740 O 0.59084 0.75201 0.20237 0.0
H741 H 0.67989 0.6797 0.1432 0.0
H742 H 0.69871 0.6728 0.09841 0.0
C743 C 0.67298 0.67372 0.11436 0.0
H744 H 0.66004 0.64639 0.11225 0.0
H745 H 0.66336 0.70128 0.22319 0.0
O746 O 0.5518 0.8072 0.08061 0.0
C747 C 0.57722 0.78188 0.19073 0.0
Co748 Co 0.22749 0.56585 0.11513 0.0
Co749 Co 0.28863 0.59969 0.16511 0.0
C750 C 0.29006 0.5212 0.14531 0.0
O751 O 0.25899 0.52352 0.12945 0.0
O752 O 0.30658 0.54942 0.15744 0.0
C753 C 0.17998 0.51904 0.07293 0.0
O754 O 0.19057 0.49324 0.0956 0.0
C755 C 0.36204 0.62504 0.17845 0.0
C756 C 0.35379 0.67303 0.21429 0.0
C757 C 0.38005 0.65445 0.19414 0.0
N758 N 0.3267 0.62641 0.18842 0.0
N759 N 0.32204 0.65456 0.21066 0.0
C760 C 0.37654 0.59961 0.14967 0.0
H761 H 0.38619 0.57412 0.16304 0.0
H762 H 0.35466 0.59233 0.12995 0.0
H763 H 0.39977 0.61198 0.13453 0.0
C764 C 0.25817 0.61778 0.06172 0.0
N765 N 0.2561 0.60364 0.09567 0.0
N766 N 0.27835 0.62149 0.11765 0.0
C767 C 0.29484 0.64835 0.09801 0.0
C768 C 0.28297 0.64649 0.06184 0.0
C769 C 0.2364 0.60405 0.02988 0.0
H770 H 0.207 0.60907 0.03542 0.0
H771 H 0.24043 0.57409 0.0269 0.0
H772 H 0.24381 0.61808 0.00401 0.0
O773 O 0.20475 0.58656 0.1586 0.0
O774 O 0.24705 0.58901 0.20004 0.0
H775 H 0.31785 0.68049 0.14146 0.0
H776 H 0.32446 0.69957 0.09672 0.0
C777 C 0.32353 0.67374 0.11252 0.0
H778 H 0.35075 0.66065 0.11011 0.0
H779 H 0.29674 0.66275 0.22107 0.0
O780 O 0.19086 0.5516 0.07821 0.0
C781 C 0.21708 0.57515 0.18892 0.0
Co782 Co 0.77017 0.43322 0.11645 0.0
Co783 Co 0.70963 0.39886 0.16649 0.0
C784 C 0.70848 0.47774 0.14879 0.0
O785 O 0.73935 0.47553 0.1325 0.0
O786 O 0.69182 0.44937 0.16037 0.0
C787 C 0.81777 0.48047 0.07502 0.0
O788 O 0.80709 0.50604 0.09791 0.0
C789 C 0.63644 0.37327 0.18051 0.0
C790 C 0.64536 0.32427 0.21477 0.0
C791 C 0.61875 0.34334 0.19558 0.0
N792 N 0.67194 0.37169 0.18988 0.0
N793 N 0.67699 0.34293 0.21122 0.0
C794 C 0.62146 0.39948 0.15271 0.0
H795 H 0.61205 0.42459 0.16695 0.0
H796 H 0.64302 0.40731 0.13284 0.0
H797 H 0.59799 0.38754 0.1376 0.0
C798 C 0.73806 0.38328 0.06198 0.0
N799 N 0.74077 0.39652 0.09625 0.0
N800 N 0.71881 0.37824 0.11817 0.0
C801 C 0.70185 0.35196 0.09813 0.0
C802 C 0.71313 0.35467 0.0618 0.0
C803 C 0.75957 0.39762 0.03021 0.0
H804 H 0.789 0.39229 0.03523 0.0
H805 H 0.75575 0.42768 0.02805 0.0
H806 H 0.75173 0.38431 0.00409 0.0
O807 O 0.79321 0.41053 0.15867 0.0
O808 O 0.75187 0.40872 0.20097 0.0
H809 H 0.67954 0.31884 0.14119 0.0
H810 H 0.67195 0.30088 0.09615 0.0
C811 C 0.67334 0.32631 0.11254 0.0
H812 H 0.64613 0.33956 0.11099 0.0
H813 H 0.70248 0.33448 0.22094 0.0
O814 O 0.80671 0.4479 0.07977 0.0
C815 C 0.78197 0.42189 0.1894 0.0
C816 C 0.97125 0.34262 0.33498 0.0
C817 C 0.96722 0.30444 0.33622 0.0
H818 H 0.00467 0.3879 0.31843 0.0
C819 C 0.99414 0.28226 0.32004 0.0
H820 H 0.95119 0.36032 0.34776 0.0
C821 C 0.02465 0.29809 0.30296 0.0
C822 C 0.02889 0.3363 0.30225 0.0
H823 H 0.9915 0.25274 0.32054 0.0
H824 H 0.04486 0.28052 0.29027 0.0
C825 C 0.00185 0.35838 0.31831 0.0
C826 C 0.68095 -0.00025 0.35786 0.0
C827 C 0.69707 0.97258 0.33598 0.0
H828 H 0.6511 0.05017 0.35942 0.0
C829 C 0.69613 0.97638 0.29774 0.0
H830 H 0.68101 0.99726 0.38741 0.0
C831 C 0.67872 0.00656 0.28167 0.0
C832 C 0.66245 0.03359 0.30366 0.0
H833 H 0.70886 0.95606 0.28031 0.0
H834 H 0.67801 0.00884 0.25212 0.0
C835 C 0.66395 0.03002 0.34187 0.0
C836 C 0.00406 0.67966 0.35772 0.0
C837 C 0.03151 0.69571 0.33613 0.0
H838 H 0.95323 0.65048 0.35877 0.0
C839 C 0.02788 0.69515 0.29785 0.0
H840 H 0.00642 0.6794 0.38728 0.0
C841 C 0.99753 0.67829 0.28148 0.0
C842 C 0.97016 0.66221 0.30319 0.0
H843 H 0.04842 0.70782 0.28065 0.0
H844 H 0.99535 0.67791 0.25192 0.0
C845 C 0.97362 0.66323 0.34143 0.0
C846 C 0.29812 0.97309 0.30225 0.0
C847 C 0.33638 0.96946 0.30158 0.0
H848 H 0.25224 0.00541 0.31998 0.0
C849 C 0.35802 0.99678 0.31778 0.0
H850 H 0.28087 0.95266 0.28945 0.0
C851 C 0.34179 0.02703 0.33461 0.0
C852 C 0.30355 0.03043 0.33585 0.0
H853 H 0.38758 0.99441 0.31793 0.0
H854 H 0.35916 0.04729 0.34753 0.0
C855 C 0.2818 0.00326 0.31948 0.0
C856 C 0.99868 0.68111 0.63981 0.0
C857 C 0.97152 0.69745 0.66153 0.0
H858 H 0.04906 0.65119 0.63855 0.0
C859 C 0.97526 0.6968 0.69979 0.0
H860 H 0.99623 0.68094 0.61025 0.0
C861 C 0.00538 0.67946 0.71602 0.0
C862 C 0.03241 0.66299 0.6942 0.0
H863 H 0.95495 0.70971 0.71709 0.0
H864 H 0.00763 0.67897 0.74558 0.0
C865 C 0.0289 0.66419 0.65597 0.0
C866 C 0.33547 0.02606 0.65697 0.0
C867 C 0.33671 0.02971 0.69519 0.0
H868 H 0.3191 0.993 0.61135 0.0
C869 C 0.32076 0.00242 0.7171 0.0
H870 H 0.34807 0.04641 0.63947 0.0
C871 C 0.30388 0.97195 0.70096 0.0
C872 C 0.30314 0.96811 0.66271 0.0
H873 H 0.32127 0.00475 0.74665 0.0
H874 H 0.29133 0.95148 0.71834 0.0
C875 C 0.319 0.9955 0.64091 0.0
C876 C 0.97285 0.29894 0.69705 0.0
C877 C 0.96919 0.33721 0.69746 0.0
H878 H 0.00532 0.25296 0.67988 0.0
C879 C 0.9966 0.35876 0.6813 0.0
H880 H 0.95234 0.28176 0.70983 0.0
C881 C 0.02697 0.34243 0.66479 0.0
C882 C 0.03042 0.30418 0.66385 0.0
H883 H 0.99424 0.38832 0.68096 0.0
H884 H 0.04732 0.35972 0.65192 0.0
C885 C 0.00314 0.28252 0.68015 0.0
C886 C 0.67883 0.99726 0.71632 0.0
C887 C 0.66263 0.96992 0.69467 0.0
H888 H 0.70823 0.04824 0.71706 0.0
C889 C 0.66318 0.97357 0.65643 0.0
H890 H 0.67881 0.99493 0.74588 0.0
C891 C 0.67934 0.00413 0.64011 0.0
C892 C 0.69557 0.03151 0.66164 0.0
H893 H 0.65034 0.95319 0.63915 0.0
H894 H 0.67879 0.00659 0.61056 0.0
C895 C 0.69542 0.02774 0.6999 0.0
C896 C 0.32 0.28267 0.00323 0.0
C897 C 0.33637 0.30449 0.03033 0.0
H898 H 0.29008 0.28161 0.95258 0.0
C899 C 0.33552 0.34271 0.02661 0.0
H900 H 0.32023 0.25312 0.00562 0.0
C901 C 0.31893 0.35886 0.99621 0.0
C902 C 0.30256 0.33715 0.96905 0.0
H903 H 0.34847 0.36013 0.04682 0.0
H904 H 0.31928 0.38841 0.99366 0.0
C905 C 0.30299 0.2989 0.9729 0.0
C906 C 0.31591 0.64255 0.0022 0.0
C907 C 0.29969 0.66428 0.02942 0.0
H908 H 0.34573 0.64123 0.95177 0.0
C909 C 0.3004 0.70254 0.02569 0.0
H910 H 0.31606 0.613 0.00466 0.0
C911 C 0.31761 0.71876 0.99545 0.0
C912 C 0.33397 0.69691 0.96835 0.0
H913 H 0.28766 0.71984 0.04611 0.0
H914 H 0.31813 0.74831 0.99319 0.0
C915 C 0.33276 0.65868 0.97192 0.0
C916 C 0.66348 0.34281 0.97166 0.0
C917 C 0.66225 0.30458 0.96798 0.0
H918 H 0.68008 0.38841 0.00462 0.0
C919 C 0.67853 0.28267 0.99505 0.0
H920 H 0.65064 0.3603 0.95146 0.0
C921 C 0.69571 0.29881 0.02535 0.0
C922 C 0.69639 0.33705 0.02926 0.0
H923 H 0.67805 0.25312 0.99268 0.0
H924 H 0.70848 0.28142 0.04567 0.0
C925 C 0.68023 0.35886 0.00206 0.0
C926 C 0.64072 0.68038 0.00381 0.0
C927 C 0.66254 0.69656 0.031 0.0
H928 H 0.63924 0.65075 0.95324 0.0
C929 C 0.70079 0.69579 0.02715 0.0
H930 H 0.61117 0.6803 0.00633 0.0
C931 C 0.7169 0.67856 0.99687 0.0
C932 C 0.69496 0.66232 0.96978 0.0
H933 H 0.71818 0.70856 0.04747 0.0
H934 H 0.74644 0.67803 0.99452 0.0
C935 C 0.65675 0.66358 0.97343 0.0
C936 C 0.18361 0.51631 0.17786 0.0
C937 C 0.20984 0.53593 0.19804 0.0
H938 H 0.15855 0.46487 0.16638 0.0
C939 C 0.23062 0.5168 0.22434 0.0
H940 H 0.16693 0.52989 0.15748 0.0
C941 C 0.22516 0.47911 0.23011 0.0
C942 C 0.19897 0.4596 0.20953 0.0
H943 H 0.25122 0.53087 0.24034 0.0
H944 H 0.24117 0.46539 0.25092 0.0
C945 C 0.17881 0.47877 0.18296 0.0
C946 C 0.47839 0.23043 0.22403 0.0
C947 C 0.45914 0.20956 0.19789 0.0
H948 H 0.53 0.2413 0.25008 0.0
C949 C 0.47853 0.18305 0.17787 0.0
H950 H 0.46445 0.25118 0.23995 0.0
C951 C 0.51607 0.17821 0.18284 0.0
C952 C 0.53543 0.19871 0.20901 0.0
H953 H 0.46479 0.16627 0.15765 0.0
H954 H 0.52986 0.15781 0.16635 0.0
C955 C 0.5161 0.22504 0.22956 0.0
C956 C 0.81752 0.47953 0.17868 0.0
C957 C 0.79041 0.46085 0.19861 0.0
H958 H 0.84386 0.53026 0.16683 0.0
C959 C 0.76977 0.48079 0.22441 0.0
H960 H 0.83411 0.4653 0.15865 0.0
C961 C 0.77596 0.51844 0.22969 0.0
C962 C 0.80282 0.53706 0.20916 0.0
H963 H 0.74854 0.46746 0.24022 0.0
H964 H 0.75983 0.53286 0.24994 0.0
C965 C 0.8231 0.51702 0.18335 0.0
C966 C 0.4814 0.82111 0.18392 0.0
C967 C 0.46168 0.80082 0.20997 0.0
H968 H 0.53297 0.83278 0.15924 0.0
C969 C 0.48069 0.77447 0.23078 0.0
H970 H 0.4679 0.84151 0.1672 0.0
C971 C 0.51843 0.76884 0.22559 0.0
C972 C 0.53805 0.78955 0.19961 0.0
H973 H 0.46651 0.75837 0.25122 0.0
H974 H 0.53209 0.74803 0.24166 0.0
C975 C 0.51898 0.81611 0.17936 0.0
C976 C 0.22955 0.48072 0.77499 0.0
C977 C 0.20862 0.46127 0.80094 0.0
H978 H 0.24031 0.53246 0.74919 0.0
C979 C 0.18194 0.48048 0.82091 0.0
H980 H 0.25046 0.46694 0.75914 0.0
C981 C 0.17696 0.51801 0.81605 0.0
C982 C 0.19748 0.53755 0.79003 0.0
H983 H 0.16514 0.4666 0.84101 0.0
H984 H 0.15645 0.53167 0.83252 0.0
C985 C 0.22401 0.51842 0.76957 0.0
C986 C 0.51741 0.22947 0.77528 0.0
C987 C 0.53685 0.20894 0.80154 0.0
H988 H 0.46572 0.23963 0.74911 0.0
C989 C 0.51765 0.18247 0.82179 0.0
H990 H 0.53117 0.25022 0.75921 0.0
C991 C 0.48014 0.17723 0.81684 0.0
C992 C 0.46062 0.1973 0.79047 0.0
H993 H 0.53151 0.16598 0.84215 0.0
H994 H 0.46653 0.15681 0.83346 0.0
C995 C 0.47974 0.22369 0.76978 0.0
C996 C 0.81566 0.51813 0.82289 0.0
C997 C 0.78958 0.53789 0.80269 0.0
H998 H 0.84065 0.46661 0.83404 0.0
C999 C 0.76901 0.51903 0.77603 0.0
H1000 H 0.83223 0.53157 0.84347 0.0
C1001 C 0.7744 0.48138 0.77005 0.0
C1002 C 0.80039 0.4617 0.79067 0.0
H1003 H 0.74857 0.53325 0.75997 0.0
H1004 H 0.75849 0.46783 0.74903 0.0
C1005 C 0.82046 0.48064 0.81749 0.0
C1006 C 0.48339 0.81619 0.82242 0.0
C1007 C 0.46392 0.78981 0.80229 0.0
H1008 H 0.53466 0.84179 0.83356 0.0
C1009 C 0.48309 0.76923 0.77586 0.0
H1010 H 0.46975 0.8327 0.84292 0.0
C1011 C 0.5207 0.775 0.76992 0.0
C1012 C 0.54006 0.80138 0.79039 0.0
H1013 H 0.46914 0.74851 0.7599 0.0
H1014 H 0.53446 0.7591 0.74904 0.0
C1015 C 0.52086 0.82139 0.81706 0.0
C1016 C 0.22822 0.22196 0.48216 0.0
C1017 C 0.20758 0.19557 0.463 0.0
H1018 H 0.23872 0.24848 0.53361 0.0
C1019 C 0.18131 0.17534 0.48251 0.0
H1020 H 0.24884 0.23801 0.46816 0.0
C1021 C 0.17631 0.18054 0.52003 0.0
C1022 C 0.19647 0.20709 0.53925 0.0
H1023 H 0.16474 0.15489 0.46885 0.0
H1024 H 0.15598 0.164 0.53388 0.0
C1025 C 0.22271 0.22768 0.51984 0.0
C1026 C 0.7677 0.2258 0.51708 0.0
C1027 C 0.78847 0.19992 0.53677 0.0
H1028 H 0.75728 0.25136 0.46513 0.0
C1029 C 0.81519 0.1798 0.51778 0.0
H1030 H 0.74676 0.24176 0.53068 0.0
C1031 C 0.82034 0.18442 0.48023 0.0
C1032 C 0.80001 0.21037 0.46046 0.0
H1033 H 0.83187 0.15974 0.53183 0.0
H1034 H 0.84087 0.16782 0.46677 0.0
C1035 C 0.77345 0.23101 0.47937 0.0
C1036 C 0.82282 0.81772 0.51709 0.0
C1037 C 0.80276 0.79105 0.53626 0.0
H1038 H 0.83397 0.8438 0.46608 0.0
C1039 C 0.77632 0.77067 0.5169 0.0
H1040 H 0.84333 0.83409 0.53087 0.0
C1041 C 0.77039 0.77682 0.47936 0.0
C1042 C 0.7909 0.80334 0.46025 0.0
H1043 H 0.76042 0.74977 0.53062 0.0
H1044 H 0.74955 0.761 0.46543 0.0
C1045 C 0.81749 0.82325 0.47967 0.0
C1046 C 0.18467 0.81863 0.5191 0.0
C1047 C 0.21109 0.79851 0.53851 0.0
H1048 H 0.15949 0.83031 0.46778 0.0
C1049 C 0.23184 0.77231 0.51921 0.0
H1050 H 0.16798 0.83891 0.53283 0.0
C1051 C 0.22631 0.76672 0.48151 0.0
C1052 C 0.20007 0.78737 0.46217 0.0
H1053 H 0.25254 0.75633 0.53313 0.0
H1054 H 0.2424 0.74608 0.46761 0.0
C1055 C 0.1798 0.8137 0.48155 0.0
C1056 C 0.1731 0.33848 0.48166 0.0
C1057 C 0.15861 0.30297 0.48515 0.0
H1058 H 0.19634 0.37864 0.44565 0.0
C1059 C 0.15701 0.28032 0.45407 0.0
H1060 H 0.1749 0.35652 0.50513 0.0
C1061 C 0.17012 0.29272 0.42038 0.0
C1062 C 0.18431 0.32824 0.41699 0.0
H1063 H 0.14636 0.2527 0.45589 0.0
H1064 H 0.16846 0.2748 0.3968 0.0
C1065 C 0.1856 0.35108 0.4478 0.0
C1066 C 0.70253 0.17265 0.41895 0.0
C1067 C 0.66649 0.18547 0.4157 0.0
H1068 H 0.74335 0.14989 0.45422 0.0
C1069 C 0.64349 0.18512 0.4464 0.0
H1070 H 0.72058 0.17222 0.39542 0.0
C1071 C 0.65648 0.17255 0.48008 0.0
C1072 C 0.69257 0.15959 0.48348 0.0
H1073 H 0.61552 0.19475 0.44436 0.0
H1074 H 0.63831 0.17321 0.5035 0.0
C1075 C 0.71534 0.15941 0.45245 0.0
C1076 C 0.83207 0.65824 0.47954 0.0
C1077 C 0.84418 0.6946 0.48318 0.0
H1078 H 0.81049 0.6171 0.44363 0.0
C1079 C 0.84347 0.7177 0.45241 0.0
H1080 H 0.83205 0.63984 0.50279 0.0
C1081 C 0.8303 0.70486 0.41888 0.0
C1082 C 0.81838 0.66852 0.41534 0.0
H1083 H 0.85222 0.74595 0.4544 0.0
H1084 H 0.83006 0.72317 0.39555 0.0
C1085 C 0.81951 0.64526 0.44584 0.0
C1086 C 0.28283 0.84061 0.45407 0.0
C1087 C 0.30574 0.83967 0.48498 0.0
H1088 H 0.27719 0.82884 0.39688 0.0
C1089 C 0.3416 0.82618 0.48124 0.0
H1090 H 0.25497 0.8505 0.45608 0.0
C1091 C 0.35426 0.81392 0.44732 0.0
C1092 C 0.33116 0.81448 0.41669 0.0
H1093 H 0.35985 0.82489 0.50457 0.0
H1094 H 0.38206 0.80389 0.44499 0.0
C1095 C 0.29532 0.82775 0.42032 0.0
C1096 C 0.171 0.65634 0.51858 0.0
C1097 C 0.15821 0.69248 0.51502 0.0
H1098 H 0.19316 0.61549 0.55444 0.0
C1099 C 0.1582 0.71542 0.54593 0.0
H1100 H 0.17154 0.63805 0.49525 0.0
C1101 C 0.17148 0.70273 0.57945 0.0
C1102 C 0.18419 0.66666 0.58286 0.0
H1103 H 0.14882 0.74347 0.54404 0.0
H1104 H 0.17122 0.72092 0.60288 0.0
C1105 C 0.18363 0.64348 0.55228 0.0
C1106 C 0.35196 0.18323 0.55315 0.0
C1107 C 0.32906 0.18277 0.58393 0.0
H1108 H 0.35725 0.17179 0.49595 0.0
C1109 C 0.29333 0.16909 0.5807 0.0
H1110 H 0.3797 0.19352 0.55519 0.0
C1111 C 0.28074 0.15575 0.54716 0.0
C1112 C 0.30342 0.15667 0.51607 0.0
H1113 H 0.27537 0.16805 0.60428 0.0
H1114 H 0.25296 0.14557 0.54541 0.0
C1115 C 0.33918 0.17055 0.51943 0.0
C1116 C 0.8405 0.28236 0.54613 0.0
C1117 C 0.83853 0.30479 0.51492 0.0
H1118 H 0.8295 0.27716 0.60352 0.0
C1119 C 0.82387 0.34024 0.51829 0.0
H1120 H 0.85132 0.25482 0.54441 0.0
C1121 C 0.81155 0.35298 0.55217 0.0
C1122 C 0.81319 0.33036 0.5831 0.0
H1123 H 0.82181 0.35812 0.49474 0.0
H1124 H 0.80071 0.3805 0.55424 0.0
C1125 C 0.82756 0.2949 0.57983 0.0
C1126 C 0.71861 0.84416 0.54478 0.0
C1127 C 0.6954 0.84449 0.51409 0.0
H1128 H 0.72451 0.83088 0.60163 0.0
C1129 C 0.65922 0.83186 0.5179 0.0
H1130 H 0.74672 0.85334 0.54267 0.0
C1131 C 0.64657 0.81916 0.55167 0.0
C1132 C 0.66997 0.81839 0.58208 0.0
H1133 H 0.64073 0.83156 0.49473 0.0
H1134 H 0.61855 0.80974 0.55401 0.0
C1135 C 0.70611 0.83084 0.57837 0.0
C1136 C 0.41713 0.17109 0.29497 0.0
C1137 C 0.41396 0.18423 0.33091 0.0
H1138 H 0.45241 0.14844 0.25408 0.0
C1139 C 0.44486 0.18467 0.35364 0.0
H1140 H 0.39346 0.17006 0.27713 0.0
C1141 C 0.47863 0.17253 0.34048 0.0
C1142 C 0.48192 0.15918 0.30451 0.0
H1143 H 0.44287 0.19455 0.38154 0.0
H1144 H 0.50218 0.17374 0.35845 0.0
C1145 C 0.45072 0.15826 0.282 0.0
C1146 C 0.84276 0.45261 0.28136 0.0
C1147 C 0.84216 0.4838 0.30389 0.0
H1148 H 0.82978 0.39562 0.27623 0.0
C1149 C 0.82823 0.48077 0.33966 0.0
H1150 H 0.85301 0.4541 0.25358 0.0
C1151 C 0.81512 0.44728 0.35258 0.0
C1152 C 0.8152 0.41641 0.3298 0.0
H1153 H 0.82724 0.50435 0.35763 0.0
H1154 H 0.80477 0.44548 0.38031 0.0
C1155 C 0.82899 0.4193 0.29408 0.0
C1156 C 0.55221 0.81613 0.35286 0.0
C1157 C 0.58298 0.81711 0.32998 0.0
H1158 H 0.49487 0.82668 0.35816 0.0
C1159 C 0.57953 0.83071 0.29423 0.0
H1160 H 0.5544 0.80584 0.38059 0.0
C1161 C 0.54579 0.84347 0.28163 0.0
C1162 C 0.51474 0.84211 0.30431 0.0
H1163 H 0.60308 0.83212 0.27627 0.0
H1164 H 0.54391 0.85361 0.25384 0.0
C1165 C 0.51831 0.8283 0.34008 0.0
C1166 C 0.17238 0.51592 0.34135 0.0
C1167 C 0.15881 0.5126 0.30546 0.0
H1168 H 0.19531 0.55155 0.38202 0.0
C1169 C 0.15838 0.54364 0.28273 0.0
H1170 H 0.1733 0.49247 0.35947 0.0
C1171 C 0.17181 0.57711 0.29542 0.0
C1172 C 0.18517 0.5803 0.33128 0.0
H1173 H 0.14846 0.54194 0.25485 0.0
H1174 H 0.17109 0.60067 0.27742 0.0
C1175 C 0.18524 0.54955 0.3542 0.0
C1176 C 0.44883 0.8131 0.64638 0.0
C1177 C 0.41802 0.81358 0.66923 0.0
H1178 H 0.50594 0.82486 0.64108 0.0
C1179 C 0.42117 0.82737 0.70493 0.0
H1180 H 0.44687 0.80269 0.61868 0.0
C1181 C 0.45462 0.84087 0.71752 0.0
C1182 C 0.4857 0.8401 0.69485 0.0
H1183 H 0.39757 0.8284 0.72286 0.0
H1184 H 0.45629 0.85116 0.74528 0.0
C1185 C 0.48246 0.82603 0.65914 0.0
C1186 C 0.17294 0.4792 0.65996 0.0
C1187 C 0.15879 0.4827 0.6956 0.0
H1188 H 0.19576 0.44319 0.61956 0.0
C1189 C 0.15724 0.45159 0.71821 0.0
H1190 H 0.17464 0.50267 0.64192 0.0
C1191 C 0.17025 0.4179 0.70568 0.0
C1192 C 0.18421 0.41453 0.67006 0.0
H1193 H 0.14676 0.45342 0.74588 0.0
H1194 H 0.16873 0.3943 0.72358 0.0
C1195 C 0.18527 0.44533 0.64722 0.0
C1196 C 0.51704 0.17401 0.65894 0.0
C1197 C 0.51417 0.1595 0.6945 0.0
H1198 H 0.55225 0.19772 0.61835 0.0
C1199 C 0.54551 0.15835 0.71679 0.0
H1200 H 0.49336 0.17547 0.64117 0.0
C1201 C 0.57886 0.17193 0.70398 0.0
C1202 C 0.58163 0.18616 0.66842 0.0
H1203 H 0.54414 0.1477 0.74442 0.0
H1204 H 0.60267 0.17059 0.7216 0.0
C1205 C 0.55056 0.187 0.64595 0.0
C1206 C 0.82862 0.57975 0.70391 0.0
C1207 C 0.81603 0.58316 0.66779 0.0
H1208 H 0.85061 0.54424 0.74492 0.0
C1209 C 0.81583 0.55236 0.6449 0.0
H1210 H 0.82939 0.6033 0.72193 0.0
C1211 C 0.82787 0.51853 0.65799 0.0
C1212 C 0.84077 0.51504 0.6941 0.0
H1213 H 0.80627 0.55448 0.61691 0.0
H1214 H 0.82693 0.49509 0.63986 0.0
C1215 C 0.84124 0.54608 0.71685 0.0
C1216 C 0.35391 0.44755 0.18008 0.0
C1217 C 0.33059 0.41709 0.18112 0.0
H1218 H 0.3595 0.50446 0.16745 0.0
C1219 C 0.29446 0.42053 0.16859 0.0
H1220 H 0.38194 0.44537 0.1895 0.0
C1221 C 0.28184 0.45397 0.15509 0.0
C1222 C 0.3049 0.48479 0.15469 0.0
H1223 H 0.27615 0.3972 0.1687 0.0
H1224 H 0.25371 0.45591 0.14596 0.0
C1225 C 0.34112 0.48119 0.16722 0.0
C1226 C 0.29434 0.5799 0.82894 0.0
C1227 C 0.33047 0.58329 0.81638 0.0
H1228 H 0.25335 0.5444 0.85111 0.0
C1229 C 0.35342 0.55256 0.81649 0.0
H1230 H 0.27631 0.60344 0.82952 0.0
C1231 C 0.34032 0.51875 0.82859 0.0
C1232 C 0.30416 0.51523 0.84135 0.0
H1233 H 0.38145 0.5547 0.80705 0.0
H1234 H 0.35847 0.49533 0.82779 0.0
C1235 C 0.28141 0.54626 0.84174 0.0
C1236 C 0.41881 0.2953 0.82769 0.0
C1237 C 0.41572 0.33092 0.8137 0.0
H1238 H 0.45392 0.25494 0.85143 0.0
C1239 C 0.44665 0.35361 0.8128 0.0
H1240 H 0.39512 0.2775 0.82907 0.0
C1241 C 0.48034 0.34075 0.82548 0.0
C1242 C 0.48351 0.30513 0.83974 0.0
H1243 H 0.44473 0.38125 0.80225 0.0
H1244 H 0.50391 0.35868 0.82396 0.0
C1245 C 0.45232 0.28263 0.84097 0.0
C1246 C 0.65933 0.48007 0.82791 0.0
C1247 C 0.69511 0.48321 0.84179 0.0
H1248 H 0.61862 0.44462 0.80481 0.0
C1249 C 0.71762 0.45201 0.84258 0.0
H1250 H 0.64137 0.50362 0.82678 0.0
C1251 C 0.70484 0.41858 0.82911 0.0
C1252 C 0.66909 0.41558 0.81542 0.0
H1253 H 0.74539 0.45359 0.85281 0.0
H1254 H 0.72265 0.3949 0.83007 0.0
C1255 C 0.64637 0.44648 0.8151 0.0
C1256 C 0.51855 0.65719 0.83229 0.0
C1257 C 0.51512 0.69354 0.84449 0.0
H1258 H 0.55422 0.61597 0.81049 0.0
C1259 C 0.54601 0.71648 0.84384 0.0
H1260 H 0.49519 0.63892 0.83226 0.0
C1261 C 0.5794 0.70358 0.83051 0.0
C1262 C 0.58271 0.6673 0.81838 0.0
H1263 H 0.54417 0.74473 0.85268 0.0
H1264 H 0.60281 0.7218 0.83024 0.0
C1265 C 0.55215 0.64411 0.8196 0.0
C1266 C 0.65797 0.51754 0.17239 0.0
C1267 C 0.69385 0.51408 0.15885 0.0
H1268 H 0.61743 0.55334 0.19524 0.0
C1269 C 0.71672 0.54503 0.15846 0.0
H1270 H 0.63974 0.49417 0.17329 0.0
C1271 C 0.70416 0.57856 0.17183 0.0
C1272 C 0.66829 0.58192 0.18512 0.0
H1273 H 0.74462 0.54321 0.1486 0.0
H1274 H 0.72227 0.60205 0.17112 0.0
C1275 C 0.64525 0.55124 0.1852 0.0
C1276 C 0.41984 0.70448 0.17052 0.0
C1277 C 0.4163 0.66857 0.18364 0.0
H1278 H 0.45552 0.74506 0.14798 0.0
C1279 C 0.447 0.64558 0.18418 0.0
H1280 H 0.39634 0.72253 0.16945 0.0
C1281 C 0.4809 0.65842 0.17205 0.0
C1282 C 0.48455 0.69435 0.15869 0.0
H1283 H 0.44475 0.61773 0.19409 0.0
H1284 H 0.50428 0.64024 0.17332 0.0
C1285 C 0.45357 0.71715 0.15777 0.0
C1286 C 0.51782 0.33914 0.17391 0.0
C1287 C 0.51447 0.30369 0.15922 0.0
H1288 H 0.55366 0.37936 0.19731 0.0
C1289 C 0.54566 0.28124 0.15734 0.0
H1290 H 0.49428 0.35704 0.17591 0.0
C1291 C 0.57932 0.29377 0.17043 0.0
C1292 C 0.58255 0.32921 0.18487 0.0
H1293 H 0.54395 0.25371 0.14649 0.0
H1294 H 0.603 0.27602 0.16856 0.0
C1295 C 0.55163 0.35185 0.1864 0.0
C1296 C 0.02894 0.52662 0.1646 0.0
C1297 C 0.03904 0.48963 0.16673 0.0
H1298 H 0.98497 0.565 0.16552 0.0
C1299 C 0.01198 0.46263 0.16205 0.0
H1300 H 0.04922 0.54812 0.167 0.0
C1301 C 0.97504 0.47226 0.16203 0.0
C1302 C 0.96483 0.50906 0.16602 0.0
H1303 H 0.01903 0.43387 0.16201 0.0
H1304 H 0.9547 0.45068 0.1624 0.0
C1305 C 0.99202 0.53627 0.16393 0.0
C1306 C 0.53629 0.00971 0.16459 0.0
C1307 C 0.50879 0.03657 0.16677 0.0
H1308 H 0.54876 0.95262 0.16711 0.0
C1309 C 0.47212 0.02596 0.1626 0.0
H1310 H 0.56494 0.01709 0.16635 0.0
C1311 C 0.46289 0.9889 0.16221 0.0
C1312 C 0.49016 0.96209 0.16667 0.0
H1313 H 0.45033 0.04605 0.16306 0.0
H1314 H 0.43421 0.98152 0.16199 0.0
C1315 C 0.52704 0.97266 0.16483 0.0
C1316 C 0.00825 0.53793 0.83409 0.0
C1317 C 0.03523 0.51051 0.83227 0.0
H1318 H 0.95114 0.55016 0.83114 0.0
C1319 C 0.02474 0.47383 0.83664 0.0
H1320 H 0.01553 0.56659 0.83215 0.0
C1321 C 0.98772 0.46446 0.83686 0.0
C1322 C 0.96084 0.4916 0.83206 0.0
H1323 H 0.04491 0.45211 0.83646 0.0
H1324 H 0.98045 0.43574 0.83721 0.0
C1325 C 0.97125 0.52853 0.83369 0.0
C1326 C 0.4732 0.97232 0.83516 0.0
C1327 C 0.51014 0.96226 0.83227 0.0
H1328 H 0.43468 0.01618 0.83423 0.0
C1329 C 0.53719 0.98949 0.83551 0.0
H1330 H 0.4517 0.95194 0.83377 0.0
C1331 C 0.52745 0.0264 0.83512 0.0
C1332 C 0.49053 0.03644 0.832 0.0
H1333 H 0.56598 0.98252 0.83467 0.0
H1334 H 0.54896 0.04677 0.83372 0.0
C1335 C 0.46346 0.00923 0.83527 0.0
C1336 C 0.16293 0.9859 0.53635 0.0
C1337 C 0.16754 0.9589 0.50927 0.0
H1338 H 0.1632 0.04315 0.54843 0.0
C1339 C 0.16541 0.9691 0.47231 0.0
H1340 H 0.16295 0.97878 0.5651 0.0
C1341 C 0.16472 0.00604 0.46274 0.0
C1342 C 0.16672 0.03318 0.49001 0.0
H1343 H 0.16779 0.94887 0.45076 0.0
H1344 H 0.16629 0.01317 0.43403 0.0
C1345 C 0.16284 0.02287 0.5268 0.0
C1346 C 0.02499 0.16457 0.47292 0.0
C1347 C 0.03507 0.16736 0.50988 0.0
H1348 H 0.98114 0.16573 0.43437 0.0
C1349 C 0.00782 0.16434 0.53692 0.0
H1350 H 0.04539 0.16582 0.45143 0.0
C1351 C 0.97092 0.16492 0.52716 0.0
C1352 C 0.9609 0.16804 0.49022 0.0
H1353 H 0.01478 0.16516 0.56571 0.0
H1354 H 0.95055 0.16641 0.54865 0.0
C1355 C 0.98809 0.16466 0.46316 0.0
C1356 C 0.83531 0.02931 0.47148 0.0
C1357 C 0.83178 0.03945 0.50835 0.0
H1358 H 0.83606 0.98529 0.43311 0.0
C1359 C 0.83537 0.01238 0.5355 0.0
H1360 H 0.83385 0.04959 0.4499 0.0
C1361 C 0.83563 0.97543 0.52588 0.0
C1362 C 0.83304 0.9652 0.48895 0.0
H1363 H 0.8344 0.01945 0.56424 0.0
H1364 H 0.83435 0.95512 0.54744 0.0
C1365 C 0.83633 0.99237 0.46186 0.0
C1366 C 0.99154 0.83641 0.53532 0.0
C1367 C 0.96455 0.83294 0.50807 0.0
H1368 H 0.04869 0.83423 0.54765 0.0
C1369 C 0.97499 0.83553 0.47121 0.0
H1370 H 0.98429 0.83619 0.56403 0.0
C1371 C 0.012 0.83545 0.46181 0.0
C1372 C 0.03892 0.83201 0.48913 0.0
H1373 H 0.95481 0.83412 0.44953 0.0
H1374 H 0.01924 0.83449 0.43312 0.0
C1375 C 0.02854 0.83556 0.52594 0.0
C1376 C 0.47113 0.1645 0.97273 0.0
C1377 C 0.508 0.16774 0.96251 0.0
H1378 H 0.43281 0.16464 0.01682 0.0
C1379 C 0.5352 0.1644 0.98956 0.0
H1380 H 0.44953 0.16596 0.95247 0.0
C1381 C 0.52564 0.16427 0.02652 0.0
C1382 C 0.48874 0.16702 0.0368 0.0
H1383 H 0.56395 0.16553 0.98245 0.0
H1384 H 0.54724 0.16559 0.04679 0.0
C1385 C 0.46156 0.16388 0.00969 0.0
C1386 C 0.47213 0.8343 0.02885 0.0
C1387 C 0.50909 0.83211 0.03903 0.0
H1388 H 0.43378 0.8332 0.98483 0.0
C1389 C 0.53613 0.83639 0.01195 0.0
H1390 H 0.45059 0.83218 0.04912 0.0
C1391 C 0.52653 0.83619 0.97499 0.0
C1392 C 0.48972 0.83236 0.96475 0.0
H1393 H 0.56489 0.83632 0.01903 0.0
H1394 H 0.54813 0.83557 0.95468 0.0
C1395 C 0.46251 0.83472 0.99191 0.0
C1396 C 0.16264 0.46266 0.98922 0.0
C1397 C 0.16588 0.48981 0.9621 0.0
H1398 H 0.16444 0.4507 0.04646 0.0
C1399 C 0.1626 0.52668 0.9723 0.0
H1400 H 0.16343 0.43392 0.98213 0.0
C1401 C 0.16215 0.53629 0.00927 0.0
C1402 C 0.16576 0.50919 0.03639 0.0
H1403 H 0.16382 0.54826 0.95201 0.0
H1404 H 0.16258 0.56504 0.01635 0.0
C1405 C 0.16294 0.47227 0.02617 0.0
C1406 C 0.83448 0.52758 0.02856 0.0
C1407 C 0.83242 0.49062 0.03876 0.0
H1408 H 0.83337 0.56586 0.98448 0.0
C1409 C 0.83711 0.46356 0.01175 0.0
H1410 H 0.83205 0.54913 0.04879 0.0
C1411 C 0.83709 0.4731 0.97478 0.0
C1412 C 0.833 0.50987 0.96449 0.0
H1413 H 0.83717 0.43481 0.01888 0.0
H1414 H 0.83673 0.45147 0.9545 0.0
C1415 C 0.83506 0.53715 0.99161 0.0
loop_
_geom_bond_atom_site_label_1
_geom_bond_atom_site_label_2
_geom_bond_distance
_geom_bond_site_symmetry_2
_ccdc_geom_bond_type
Co0 O3 1.970 . S
Co0 N17 1.989 . S
Co0 O25 1.967 . S
Co0 O32 1.920 . S
Co1 O4 1.966 . S
Co1 N10 2.022 . S
Co1 N18 1.993 . S
Co1 O26 1.941 . S
C2 O3 1.258 . S
C2 O4 1.263 . S
O3 Co0 1.970 . S
O3 C2 1.258 . S
O4 Co1 1.966 . S
O4 C2 1.263 . S
C5 O6 1.235 . S
C5 O32 1.289 . S
O6 C5 1.235 . S
C7 C9 1.400 . S
C7 N10 1.351 . S
C7 C12 1.501 . S
C8 C9 1.387 . S
C8 N11 1.341 . S
C9 C7 1.400 . S
C9 C8 1.387 . S
N10 Co1 2.022 . S
N10 C7 1.351 . S
N10 N11 1.365 . S
N11 C8 1.341 . S
N11 N10 1.365 . S
N11 H31 0.862 . S
C12 C7 1.501 . S
C12 H13 0.961 . S
C12 H14 0.961 . S
C12 H15 0.960 . S
H13 C12 0.961 . S
H14 C12 0.961 . S
H15 C12 0.960 . S
C16 N17 1.342 . S
C16 C20 1.401 . S
C16 C21 1.499 . S
N17 Co0 1.989 . S
N17 C16 1.342 . S
N17 N18 1.388 . S
N18 Co1 1.993 . S
N18 N17 1.388 . S
N18 C19 1.346 . S
C19 N18 1.346 . S
C19 C20 1.396 . S
C19 C29 1.510 . S
C20 C16 1.401 . S
C20 C19 1.396 . S
C21 C16 1.499 . S
C21 H22 0.959 . S
C21 H23 0.960 . S
C21 H24 0.961 . S
H22 C21 0.959 . S
H23 C21 0.960 . S
H24 C21 0.961 . S
O25 Co0 1.967 . S
O25 C33 1.258 . S
O26 Co1 1.941 . S
O26 C33 1.266 . S
H27 C29 0.959 . S
H28 C29 0.961 . S
C29 C19 1.510 . S
C29 H27 0.959 . S
C29 H28 0.961 . S
C29 H30 0.960 . S
H30 C29 0.960 . S
H31 N11 0.862 . S
O32 Co0 1.920 . S
O32 C5 1.289 . S
C33 O25 1.258 . S
C33 O26 1.266 . S
Co34 O37 1.970 . S
Co34 N51 1.989 . S
Co34 O59 1.967 . S
Co34 O66 1.920 . S
Co35 O38 1.966 . S
Co35 N44 2.022 . S
Co35 N52 1.993 . S
Co35 O60 1.941 . S
C36 O37 1.258 . S
C36 O38 1.263 . S
O37 Co34 1.970 . S
O37 C36 1.258 . S
O38 Co35 1.966 . S
O38 C36 1.263 . S
C39 O40 1.235 . S
C39 O66 1.289 . S
O40 C39 1.235 . S
C41 C43 1.400 . S
C41 N44 1.351 . S
C41 C46 1.501 . S
C42 C43 1.387 . S
C42 N45 1.341 . S
C43 C41 1.400 . S
C43 C42 1.387 . S
N44 Co35 2.022 . S
N44 C41 1.351 . S
N44 N45 1.365 . S
N45 C42 1.341 . S
N45 N44 1.365 . S
N45 H65 0.862 . S
C46 C41 1.501 . S
C46 H47 0.961 . S
C46 H48 0.961 . S
C46 H49 0.960 . S
H47 C46 0.961 . S
H48 C46 0.961 . S
H49 C46 0.960 . S
C50 N51 1.342 . S
C50 C54 1.401 . S
C50 C55 1.499 . S
N51 Co34 1.989 . S
N51 C50 1.342 . S
N51 N52 1.388 . S
N52 Co35 1.993 . S
N52 N51 1.388 . S
N52 C53 1.346 . S
C53 N52 1.346 . S
C53 C54 1.396 . S
C53 C63 1.510 . S
C54 C50 1.401 . S
C54 C53 1.396 . S
C55 C50 1.499 . S
C55 H56 0.959 . S
C55 H57 0.960 . S
C55 H58 0.961 . S
H56 C55 0.959 . S
H57 C55 0.960 . S
H58 C55 0.961 . S
O59 Co34 1.967 . S
O59 C67 1.258 . S
O60 Co35 1.941 . S
O60 C67 1.266 . S
H61 C63 0.959 . S
H62 C63 0.961 . S
C63 C53 1.510 . S
C63 H61 0.959 . S
C63 H62 0.961 . S
C63 H64 0.960 . S
H64 C63 0.960 . S
H65 N45 0.862 . S
O66 Co34 1.920 . S
O66 C39 1.289 . S
C67 O59 1.258 . S
C67 O60 1.266 . S
Co68 O71 1.970 . S
Co68 N85 1.989 . S
Co68 O93 1.967 . S
Co68 O100 1.920 . S
Co69 O72 1.966 . S
Co69 N78 2.022 . S
Co69 N86 1.993 . S
Co69 O94 1.941 . S
C70 O71 1.258 . S
C70 O72 1.263 . S
O71 Co68 1.970 . S
O71 C70 1.258 . S
O72 Co69 1.966 . S
O72 C70 1.263 . S
C73 O74 1.235 . S
C73 O100 1.289 . S
O74 C73 1.235 . S
C75 C77 1.400 . S
C75 N78 1.351 . S
C75 C80 1.501 . S
C76 C77 1.387 . S
C76 N79 1.341 . S
C77 C75 1.400 . S
C77 C76 1.387 . S
N78 Co69 2.022 . S
N78 C75 1.351 . S
N78 N79 1.365 . S
N79 C76 1.341 . S
N79 N78 1.365 . S
N79 H99 0.862 . S
C80 C75 1.501 . S
C80 H81 0.961 . S
C80 H82 0.961 . S
C80 H83 0.960 . S
H81 C80 0.961 . S
H82 C80 0.961 . S
H83 C80 0.960 . S
C84 N85 1.342 . S
C84 C88 1.401 . S
C84 C89 1.499 . S
N85 Co68 1.989 . S
N85 C84 1.342 . S
N85 N86 1.388 . S
N86 Co69 1.993 . S
N86 N85 1.388 . S
N86 C87 1.346 . S
C87 N86 1.346 . S
C87 C88 1.396 . S
C87 C97 1.510 . S
C88 C84 1.401 . S
C88 C87 1.396 . S
C89 C84 1.499 . S
C89 H90 0.959 . S
C89 H91 0.960 . S
C89 H92 0.961 . S
H90 C89 0.959 . S
H91 C89 0.960 . S
H92 C89 0.961 . S
O93 Co68 1.967 . S
O93 C101 1.258 . S
O94 Co69 1.941 . S
O94 C101 1.266 . S
H95 C97 0.959 . S
H96 C97 0.961 . S
C97 C87 1.510 . S
C97 H95 0.959 . S
C97 H96 0.961 . S
C97 H98 0.960 . S
H98 C97 0.960 . S
H99 N79 0.862 . S
O100 Co68 1.920 . S
O100 C73 1.289 . S
C101 O93 1.258 . S
C101 O94 1.266 . S
Co102 O105 1.970 . S
Co102 N119 1.989 . S
Co102 O127 1.967 . S
Co102 O134 1.920 . S
Co103 O106 1.966 . S
Co103 N112 2.022 . S
Co103 N120 1.993 . S
Co103 O128 1.941 . S
C104 O105 1.258 . S
C104 O106 1.263 . S
O105 Co102 1.970 . S
O105 C104 1.258 . S
O106 Co103 1.966 . S
O106 C104 1.263 . S
C107 O108 1.235 . S
C107 O134 1.289 . S
O108 C107 1.235 . S
C109 C111 1.400 . S
C109 N112 1.351 . S
C109 C114 1.501 . S
C110 C111 1.387 . S
C110 N113 1.341 . S
C111 C109 1.400 . S
C111 C110 1.387 . S
N112 Co103 2.022 . S
N112 C109 1.351 . S
N112 N113 1.365 . S
N113 C110 1.341 . S
N113 N112 1.365 . S
N113 H133 0.862 . S
C114 C109 1.501 . S
C114 H115 0.961 . S
C114 H116 0.961 . S
C114 H117 0.960 . S
H115 C114 0.961 . S
H116 C114 0.961 . S
H117 C114 0.960 . S
C118 N119 1.342 . S
C118 C122 1.401 . S
C118 C123 1.499 . S
N119 Co102 1.989 . S
N119 C118 1.342 . S
N119 N120 1.388 . S
N120 Co103 1.993 . S
N120 N119 1.388 . S
N120 C121 1.346 . S
C121 N120 1.346 . S
C121 C122 1.396 . S
C121 C131 1.510 . S
C122 C118 1.401 . S
C122 C121 1.396 . S
C123 C118 1.499 . S
C123 H124 0.959 . S
C123 H125 0.960 . S
C123 H126 0.961 . S
H124 C123 0.959 . S
H125 C123 0.960 . S
H126 C123 0.961 . S
O127 Co102 1.967 . S
O127 C135 1.258 . S
O128 Co103 1.941 . S
O128 C135 1.266 . S
H129 C131 0.959 . S
H130 C131 0.961 . S
C131 C121 1.510 . S
C131 H129 0.959 . S
C131 H130 0.961 . S
C131 H132 0.960 . S
H132 C131 0.960 . S
H133 N113 0.862 . S
O134 Co102 1.920 . S
O134 C107 1.289 . S
C135 O127 1.258 . S
C135 O128 1.266 . S
Co136 O139 1.970 . S
Co136 N153 1.989 . S
Co136 O161 1.967 . S
Co136 O168 1.920 . S
Co137 O140 1.966 . S
Co137 N146 2.022 . S
Co137 N154 1.993 . S
Co137 O162 1.941 . S
C138 O139 1.258 . S
C138 O140 1.263 . S
O139 Co136 1.970 . S
O139 C138 1.258 . S
O140 Co137 1.966 . S
O140 C138 1.263 . S
C141 O142 1.235 . S
C141 O168 1.289 . S
O142 C141 1.235 . S
C143 C145 1.400 . S
C143 N146 1.351 . S
C143 C148 1.501 . S
C144 C145 1.387 . S
C144 N147 1.341 . S
C145 C143 1.400 . S
C145 C144 1.387 . S
N146 Co137 2.022 . S
N146 C143 1.351 . S
N146 N147 1.365 . S
N147 C144 1.341 . S
N147 N146 1.365 . S
N147 H167 0.862 . S
C148 C143 1.501 . S
C148 H149 0.961 . S
C148 H150 0.961 . S
C148 H151 0.960 . S
H149 C148 0.961 . S
H150 C148 0.961 . S
H151 C148 0.960 . S
C152 N153 1.342 . S
C152 C156 1.401 . S
C152 C157 1.499 . S
N153 Co136 1.989 . S
N153 C152 1.342 . S
N153 N154 1.388 . S
N154 Co137 1.993 . S
N154 N153 1.388 . S
N154 C155 1.346 . S
C155 N154 1.346 . S
C155 C156 1.396 . S
C155 C165 1.510 . S
C156 C152 1.401 . S
C156 C155 1.396 . S
C157 C152 1.499 . S
C157 H158 0.959 . S
C157 H159 0.960 . S
C157 H160 0.961 . S
H158 C157 0.959 . S
H159 C157 0.960 . S
H160 C157 0.961 . S
O161 Co136 1.967 . S
O161 C169 1.258 . S
O162 Co137 1.941 . S
O162 C169 1.266 . S
H163 C165 0.959 . S
H164 C165 0.961 . S
C165 C155 1.510 . S
C165 H163 0.959 . S
C165 H164 0.961 . S
C165 H166 0.960 . S
H166 C165 0.960 . S
H167 N147 0.862 . S
O168 Co136 1.920 . S
O168 C141 1.289 . S
C169 O161 1.258 . S
C169 O162 1.266 . S
Co170 O173 1.970 . S
Co170 N187 1.989 . S
Co170 O195 1.967 . S
Co170 O202 1.920 . S
Co171 O174 1.966 . S
Co171 N180 2.022 . S
Co171 N188 1.993 . S
Co171 O196 1.941 . S
C172 O173 1.258 . S
C172 O174 1.263 . S
O173 Co170 1.970 . S
O173 C172 1.258 . S
O174 Co171 1.966 . S
O174 C172 1.263 . S
C175 O176 1.235 . S
C175 O202 1.289 . S
O176 C175 1.235 . S
C177 C179 1.400 . S
C177 N180 1.351 . S
C177 C182 1.501 . S
C178 C179 1.387 . S
C178 N181 1.341 . S
C179 C177 1.400 . S
C179 C178 1.387 . S
N180 Co171 2.022 . S
N180 C177 1.351 . S
N180 N181 1.365 . S
N181 C178 1.341 . S
N181 N180 1.365 . S
N181 H201 0.862 . S
C182 C177 1.501 . S
C182 H183 0.961 . S
C182 H184 0.961 . S
C182 H185 0.960 . S
H183 C182 0.961 . S
H184 C182 0.961 . S
H185 C182 0.960 . S
C186 N187 1.342 . S
C186 C190 1.401 . S
C186 C191 1.499 . S
N187 Co170 1.989 . S
N187 C186 1.342 . S
N187 N188 1.388 . S
N188 Co171 1.993 . S
N188 N187 1.388 . S
N188 C189 1.346 . S
C189 N188 1.346 . S
C189 C190 1.396 . S
C189 C199 1.510 . S
C190 C186 1.401 . S
C190 C189 1.396 . S
C191 C186 1.499 . S
C191 H192 0.959 . S
C191 H193 0.960 . S
C191 H194 0.961 . S
H192 C191 0.959 . S
H193 C191 0.960 . S
H194 C191 0.961 . S
O195 Co170 1.967 . S
O195 C203 1.258 . S
O196 Co171 1.941 . S
O196 C203 1.266 . S
H197 C199 0.959 . S
H198 C199 0.961 . S
C199 C189 1.510 . S
C199 H197 0.959 . S
C199 H198 0.961 . S
C199 H200 0.960 . S
H200 C199 0.960 . S
H201 N181 0.862 . S
O202 Co170 1.920 . S
O202 C175 1.289 . S
C203 O195 1.258 . S
C203 O196 1.266 . S
Co204 O207 1.970 . S
Co204 N221 1.989 . S
Co204 O229 1.967 . S
Co204 O236 1.920 . S
Co205 O208 1.966 . S
Co205 N214 2.022 . S
Co205 N222 1.993 . S
Co205 O230 1.941 . S
C206 O207 1.258 . S
C206 O208 1.263 . S
O207 Co204 1.970 . S
O207 C206 1.258 . S
O208 Co205 1.966 . S
O208 C206 1.263 . S
C209 O210 1.235 . S
C209 O236 1.289 . S
O210 C209 1.235 . S
C211 C213 1.400 . S
C211 N214 1.351 . S
C211 C216 1.501 . S
C212 C213 1.387 . S
C212 N215 1.341 . S
C213 C211 1.400 . S
C213 C212 1.387 . S
N214 Co205 2.022 . S
N214 C211 1.351 . S
N214 N215 1.365 . S
N215 C212 1.341 . S
N215 N214 1.365 . S
N215 H235 0.862 . S
C216 C211 1.501 . S
C216 H217 0.961 . S
C216 H218 0.961 . S
C216 H219 0.960 . S
H217 C216 0.961 . S
H218 C216 0.961 . S
H219 C216 0.960 . S
C220 N221 1.342 . S
C220 C224 1.401 . S
C220 C225 1.499 . S
N221 Co204 1.989 . S
N221 C220 1.342 . S
N221 N222 1.388 . S
N222 Co205 1.993 . S
N222 N221 1.388 . S
N222 C223 1.346 . S
C223 N222 1.346 . S
C223 C224 1.396 . S
C223 C233 1.510 . S
C224 C220 1.401 . S
C224 C223 1.396 . S
C225 C220 1.499 . S
C225 H226 0.959 . S
C225 H227 0.960 . S
C225 H228 0.961 . S
H226 C225 0.959 . S
H227 C225 0.960 . S
H228 C225 0.961 . S
O229 Co204 1.967 . S
O229 C237 1.258 . S
O230 Co205 1.941 . S
O230 C237 1.266 . S
H231 C233 0.959 . S
H232 C233 0.961 . S
C233 C223 1.510 . S
C233 H231 0.959 . S
C233 H232 0.961 . S
C233 H234 0.960 . S
H234 C233 0.960 . S
H235 N215 0.862 . S
O236 Co204 1.920 . S
O236 C209 1.289 . S
C237 O229 1.258 . S
C237 O230 1.266 . S
Co238 O241 1.970 . S
Co238 N255 1.989 . S
Co238 O263 1.967 . S
Co238 O270 1.920 . S
Co239 O242 1.966 . S
Co239 N248 2.022 . S
Co239 N256 1.993 . S
Co239 O264 1.941 . S
C240 O241 1.258 . S
C240 O242 1.263 . S
O241 Co238 1.970 . S
O241 C240 1.258 . S
O242 Co239 1.966 . S
O242 C240 1.263 . S
C243 O244 1.235 . S
C243 O270 1.289 . S
O244 C243 1.235 . S
C245 C247 1.400 . S
C245 N248 1.351 . S
C245 C250 1.501 . S
C246 C247 1.387 . S
C246 N249 1.341 . S
C247 C245 1.400 . S
C247 C246 1.387 . S
N248 Co239 2.022 . S
N248 C245 1.351 . S
N248 N249 1.365 . S
N249 C246 1.341 . S
N249 N248 1.365 . S
N249 H269 0.862 . S
C250 C245 1.501 . S
C250 H251 0.961 . S
C250 H252 0.961 . S
C250 H253 0.960 . S
H251 C250 0.961 . S
H252 C250 0.961 . S
H253 C250 0.960 . S
C254 N255 1.342 . S
C254 C258 1.401 . S
C254 C259 1.499 . S
N255 Co238 1.989 . S
N255 C254 1.342 . S
N255 N256 1.388 . S
N256 Co239 1.993 . S
N256 N255 1.388 . S
N256 C257 1.346 . S
C257 N256 1.346 . S
C257 C258 1.396 . S
C257 C267 1.510 . S
C258 C254 1.401 . S
C258 C257 1.396 . S
C259 C254 1.499 . S
C259 H260 0.959 . S
C259 H261 0.960 . S
C259 H262 0.961 . S
H260 C259 0.959 . S
H261 C259 0.960 . S
H262 C259 0.961 . S
O263 Co238 1.967 . S
O263 C271 1.258 . S
O264 Co239 1.941 . S
O264 C271 1.266 . S
H265 C267 0.959 . S
H266 C267 0.961 . S
C267 C257 1.510 . S
C267 H265 0.959 . S
C267 H266 0.961 . S
C267 H268 0.960 . S
H268 C267 0.960 . S
H269 N249 0.862 . S
O270 Co238 1.920 . S
O270 C243 1.289 . S
C271 O263 1.258 . S
C271 O264 1.266 . S
Co272 O275 1.970 . S
Co272 N289 1.989 . S
Co272 O297 1.967 . S
Co272 O304 1.920 . S
Co273 O276 1.966 . S
Co273 N282 2.022 . S
Co273 N290 1.993 . S
Co273 O298 1.941 . S
C274 O275 1.258 . S
C274 O276 1.263 . S
O275 Co272 1.970 . S
O275 C274 1.258 . S
O276 Co273 1.966 . S
O276 C274 1.263 . S
C277 O278 1.235 . S
C277 O304 1.289 . S
O278 C277 1.235 . S
C279 C281 1.400 . S
C279 N282 1.351 . S
C279 C284 1.501 . S
C280 C281 1.387 . S
C280 N283 1.341 . S
C281 C279 1.400 . S
C281 C280 1.387 . S
N282 Co273 2.022 . S
N282 C279 1.351 . S
N282 N283 1.365 . S
N283 C280 1.341 . S
N283 N282 1.365 . S
N283 H303 0.862 . S
C284 C279 1.501 . S
C284 H285 0.961 . S
C284 H286 0.961 . S
C284 H287 0.960 . S
H285 C284 0.961 . S
H286 C284 0.961 . S
H287 C284 0.960 . S
C288 N289 1.342 . S
C288 C292 1.401 . S
C288 C293 1.499 . S
N289 Co272 1.989 . S
N289 C288 1.342 . S
N289 N290 1.388 . S
N290 Co273 1.993 . S
N290 N289 1.388 . S
N290 C291 1.346 . S
C291 N290 1.346 . S
C291 C292 1.396 . S
C291 C301 1.510 . S
C292 C288 1.401 . S
C292 C291 1.396 . S
C293 C288 1.499 . S
C293 H294 0.959 . S
C293 H295 0.960 . S
C293 H296 0.961 . S
H294 C293 0.959 . S
H295 C293 0.960 . S
H296 C293 0.961 . S
O297 Co272 1.967 . S
O297 C305 1.258 . S
O298 Co273 1.941 . S
O298 C305 1.266 . S
H299 C301 0.959 . S
H300 C301 0.961 . S
C301 C291 1.510 . S
C301 H299 0.959 . S
C301 H300 0.961 . S
C301 H302 0.960 . S
H302 C301 0.960 . S
H303 N283 0.862 . S
O304 Co272 1.920 . S
O304 C277 1.289 . S
C305 O297 1.258 . S
C305 O298 1.266 . S
Co306 O309 1.970 . S
Co306 N323 1.989 . S
Co306 O331 1.967 . S
Co306 O338 1.920 . S
Co307 O310 1.966 . S
Co307 N316 2.022 . S
Co307 N324 1.993 . S
Co307 O332 1.941 . S
C308 O309 1.258 . S
C308 O310 1.263 . S
O309 Co306 1.970 . S
O309 C308 1.258 . S
O310 Co307 1.966 . S
O310 C308 1.263 . S
C311 O312 1.235 . S
C311 O338 1.289 . S
O312 C311 1.235 . S
C313 C315 1.400 . S
C313 N316 1.351 . S
C313 C318 1.501 . S
C314 C315 1.387 . S
C314 N317 1.341 . S
C315 C313 1.400 . S
C315 C314 1.387 . S
N316 Co307 2.022 . S
N316 C313 1.351 . S
N316 N317 1.365 . S
N317 C314 1.341 . S
N317 N316 1.365 . S
N317 H337 0.862 . S
C318 C313 1.501 . S
C318 H319 0.961 . S
C318 H320 0.961 . S
C318 H321 0.960 . S
H319 C318 0.961 . S
H320 C318 0.961 . S
H321 C318 0.960 . S
C322 N323 1.342 . S
C322 C326 1.401 . S
C322 C327 1.499 . S
N323 Co306 1.989 . S
N323 C322 1.342 . S
N323 N324 1.388 . S
N324 Co307 1.993 . S
N324 N323 1.388 . S
N324 C325 1.346 . S
C325 N324 1.346 . S
C325 C326 1.396 . S
C325 C335 1.510 . S
C326 C322 1.401 . S
C326 C325 1.396 . S
C327 C322 1.499 . S
C327 H328 0.959 . S
C327 H329 0.960 . S
C327 H330 0.961 . S
H328 C327 0.959 . S
H329 C327 0.960 . S
H330 C327 0.961 . S
O331 Co306 1.967 . S
O331 C339 1.258 . S
O332 Co307 1.941 . S
O332 C339 1.266 . S
H333 C335 0.959 . S
H334 C335 0.961 . S
C335 C325 1.510 . S
C335 H333 0.959 . S
C335 H334 0.961 . S
C335 H336 0.960 . S
H336 C335 0.960 . S
H337 N317 0.862 . S
O338 Co306 1.920 . S
O338 C311 1.289 . S
C339 O331 1.258 . S
C339 O332 1.266 . S
Co340 O343 1.970 . S
Co340 N357 1.989 . S
Co340 O365 1.967 . S
Co340 O372 1.920 . S
Co341 O344 1.966 . S
Co341 N350 2.022 . S
Co341 N358 1.993 . S
Co341 O366 1.941 . S
C342 O343 1.258 . S
C342 O344 1.263 . S
O343 Co340 1.970 . S
O343 C342 1.258 . S
O344 Co341 1.966 . S
O344 C342 1.263 . S
C345 O346 1.235 . S
C345 O372 1.289 . S
O346 C345 1.235 . S
C347 C349 1.400 . S
C347 N350 1.351 . S
C347 C352 1.501 . S
C348 C349 1.387 . S
C348 N351 1.341 . S
C349 C347 1.400 . S
C349 C348 1.387 . S
N350 Co341 2.022 . S
N350 C347 1.351 . S
N350 N351 1.365 . S
N351 C348 1.341 . S
N351 N350 1.365 . S
N351 H371 0.862 . S
C352 C347 1.501 . S
C352 H353 0.961 . S
C352 H354 0.961 . S
C352 H355 0.960 . S
H353 C352 0.961 . S
H354 C352 0.961 . S
H355 C352 0.960 . S
C356 N357 1.342 . S
C356 C360 1.401 . S
C356 C361 1.499 . S
N357 Co340 1.989 . S
N357 C356 1.342 . S
N357 N358 1.388 . S
N358 Co341 1.993 . S
N358 N357 1.388 . S
N358 C359 1.346 . S
C359 N358 1.346 . S
C359 C360 1.396 . S
C359 C369 1.510 . S
C360 C356 1.401 . S
C360 C359 1.396 . S
C361 C356 1.499 . S
C361 H362 0.959 . S
C361 H363 0.960 . S
C361 H364 0.961 . S
H362 C361 0.959 . S
H363 C361 0.960 . S
H364 C361 0.961 . S
O365 Co340 1.967 . S
O365 C373 1.258 . S
O366 Co341 1.941 . S
O366 C373 1.266 . S
H367 C369 0.959 . S
H368 C369 0.961 . S
C369 C359 1.510 . S
C369 H367 0.959 . S
C369 H368 0.961 . S
C369 H370 0.960 . S
H370 C369 0.960 . S
H371 N351 0.862 . S
O372 Co340 1.920 . S
O372 C345 1.289 . S
C373 O365 1.258 . S
C373 O366 1.266 . S
Co374 O377 1.970 . S
Co374 N391 1.989 . S
Co374 O399 1.967 . S
Co374 O406 1.920 . S
Co375 O378 1.966 . S
Co375 N384 2.022 . S
Co375 N392 1.993 . S
Co375 O400 1.941 . S
C376 O377 1.258 . S
C376 O378 1.263 . S
O377 Co374 1.970 . S
O377 C376 1.258 . S
O378 Co375 1.966 . S
O378 C376 1.263 . S
C379 O380 1.235 . S
C379 O406 1.289 . S
O380 C379 1.235 . S
C381 C383 1.400 . S
C381 N384 1.351 . S
C381 C386 1.501 . S
C382 C383 1.387 . S
C382 N385 1.341 . S
C383 C381 1.400 . S
C383 C382 1.387 . S
N384 Co375 2.022 . S
N384 C381 1.351 . S
N384 N385 1.365 . S
N385 C382 1.341 . S
N385 N384 1.365 . S
N385 H405 0.862 . S
C386 C381 1.501 . S
C386 H387 0.961 . S
C386 H388 0.961 . S
C386 H389 0.960 . S
H387 C386 0.961 . S
H388 C386 0.961 . S
H389 C386 0.960 . S
C390 N391 1.342 . S
C390 C394 1.401 . S
C390 C395 1.499 . S
N391 Co374 1.989 . S
N391 C390 1.342 . S
N391 N392 1.388 . S
N392 Co375 1.993 . S
N392 N391 1.388 . S
N392 C393 1.346 . S
C393 N392 1.346 . S
C393 C394 1.396 . S
C393 C403 1.510 . S
C394 C390 1.401 . S
C394 C393 1.396 . S
C395 C390 1.499 . S
C395 H396 0.959 . S
C395 H397 0.960 . S
C395 H398 0.961 . S
H396 C395 0.959 . S
H397 C395 0.960 . S
H398 C395 0.961 . S
O399 Co374 1.967 . S
O399 C407 1.258 . S
O400 Co375 1.941 . S
O400 C407 1.266 . S
H401 C403 0.959 . S
H402 C403 0.961 . S
C403 C393 1.510 . S
C403 H401 0.959 . S
C403 H402 0.961 . S
C403 H404 0.960 . S
H404 C403 0.960 . S
H405 N385 0.862 . S
O406 Co374 1.920 . S
O406 C379 1.289 . S
C407 O399 1.258 . S
C407 O400 1.266 . S
Co408 O411 1.970 . S
Co408 N425 1.989 . S
Co408 O433 1.967 . S
Co408 O440 1.920 . S
Co409 O412 1.966 . S
Co409 N418 2.022 . S
Co409 N426 1.993 . S
Co409 O434 1.941 . S
C410 O411 1.258 . S
C410 O412 1.263 . S
O411 Co408 1.970 . S
O411 C410 1.258 . S
O412 Co409 1.966 . S
O412 C410 1.263 . S
C413 O414 1.235 . S
C413 O440 1.289 . S
O414 C413 1.235 . S
C415 C417 1.400 . S
C415 N418 1.351 . S
C415 C420 1.501 . S
C416 C417 1.387 . S
C416 N419 1.341 . S
C417 C415 1.400 . S
C417 C416 1.387 . S
N418 Co409 2.022 . S
N418 C415 1.351 . S
N418 N419 1.365 . S
N419 C416 1.341 . S
N419 N418 1.365 . S
N419 H439 0.862 . S
C420 C415 1.501 . S
C420 H421 0.961 . S
C420 H422 0.961 . S
C420 H423 0.960 . S
H421 C420 0.961 . S
H422 C420 0.961 . S
H423 C420 0.960 . S
C424 N425 1.342 . S
C424 C428 1.401 . S
C424 C429 1.499 . S
N425 Co408 1.989 . S
N425 C424 1.342 . S
N425 N426 1.388 . S
N426 Co409 1.993 . S
N426 N425 1.388 . S
N426 C427 1.346 . S
C427 N426 1.346 . S
C427 C428 1.396 . S
C427 C437 1.510 . S
C428 C424 1.401 . S
C428 C427 1.396 . S
C429 C424 1.499 . S
C429 H430 0.959 . S
C429 H431 0.960 . S
C429 H432 0.961 . S
H430 C429 0.959 . S
H431 C429 0.960 . S
H432 C429 0.961 . S
O433 Co408 1.967 . S
O433 C441 1.258 . S
O434 Co409 1.941 . S
O434 C441 1.266 . S
H435 C437 0.959 . S
H436 C437 0.961 . S
C437 C427 1.510 . S
C437 H435 0.959 . S
C437 H436 0.961 . S
C437 H438 0.960 . S
H438 C437 0.960 . S
H439 N419 0.862 . S
O440 Co408 1.920 . S
O440 C413 1.289 . S
C441 O433 1.258 . S
C441 O434 1.266 . S
Co442 O445 1.970 . S
Co442 N459 1.989 . S
Co442 O467 1.967 . S
Co442 O474 1.920 . S
Co443 O446 1.966 . S
Co443 N452 2.022 . S
Co443 N460 1.993 . S
Co443 O468 1.941 . S
C444 O445 1.258 . S
C444 O446 1.263 . S
O445 Co442 1.970 . S
O445 C444 1.258 . S
O446 Co443 1.966 . S
O446 C444 1.263 . S
C447 O448 1.235 . S
C447 O474 1.289 . S
O448 C447 1.235 . S
C449 C451 1.400 . S
C449 N452 1.351 . S
C449 C454 1.501 . S
C450 C451 1.387 . S
C450 N453 1.341 . S
C451 C449 1.400 . S
C451 C450 1.387 . S
N452 Co443 2.022 . S
N452 C449 1.351 . S
N452 N453 1.365 . S
N453 C450 1.341 . S
N453 N452 1.365 . S
N453 H473 0.862 . S
C454 C449 1.501 . S
C454 H455 0.961 . S
C454 H456 0.961 . S
C454 H457 0.960 . S
H455 C454 0.961 . S
H456 C454 0.961 . S
H457 C454 0.960 . S
C458 N459 1.342 . S
C458 C462 1.401 . S
C458 C463 1.499 . S
N459 Co442 1.989 . S
N459 C458 1.342 . S
N459 N460 1.388 . S
N460 Co443 1.993 . S
N460 N459 1.388 . S
N460 C461 1.346 . S
C461 N460 1.346 . S
C461 C462 1.396 . S
C461 C471 1.510 . S
C462 C458 1.401 . S
C462 C461 1.396 . S
C463 C458 1.499 . S
C463 H464 0.959 . S
C463 H465 0.960 . S
C463 H466 0.961 . S
H464 C463 0.959 . S
H465 C463 0.960 . S
H466 C463 0.961 . S
O467 Co442 1.967 . S
O467 C475 1.258 . S
O468 Co443 1.941 . S
O468 C475 1.266 . S
H469 C471 0.959 . S
H470 C471 0.961 . S
C471 C461 1.510 . S
C471 H469 0.959 . S
C471 H470 0.961 . S
C471 H472 0.960 . S
H472 C471 0.960 . S
H473 N453 0.862 . S
O474 Co442 1.920 . S
O474 C447 1.289 . S
C475 O467 1.258 . S
C475 O468 1.266 . S
Co476 O479 1.970 . S
Co476 N493 1.989 . S
Co476 O501 1.967 . S
Co476 O508 1.920 . S
Co477 O480 1.966 . S
Co477 N486 2.022 . S
Co477 N494 1.993 . S
Co477 O502 1.941 . S
C478 O479 1.258 . S
C478 O480 1.263 . S
O479 Co476 1.970 . S
O479 C478 1.258 . S
O480 Co477 1.966 . S
O480 C478 1.263 . S
C481 O482 1.235 . S
C481 O508 1.289 . S
O482 C481 1.235 . S
C483 C485 1.400 . S
C483 N486 1.351 . S
C483 C488 1.501 . S
C484 C485 1.387 . S
C484 N487 1.341 . S
C485 C483 1.400 . S
C485 C484 1.387 . S
N486 Co477 2.022 . S
N486 C483 1.351 . S
N486 N487 1.365 . S
N487 C484 1.341 . S
N487 N486 1.365 . S
N487 H507 0.862 . S
C488 C483 1.501 . S
C488 H489 0.961 . S
C488 H490 0.961 . S
C488 H491 0.960 . S
H489 C488 0.961 . S
H490 C488 0.961 . S
H491 C488 0.960 . S
C492 N493 1.342 . S
C492 C496 1.401 . S
C492 C497 1.499 . S
N493 Co476 1.989 . S
N493 C492 1.342 . S
N493 N494 1.388 . S
N494 Co477 1.993 . S
N494 N493 1.388 . S
N494 C495 1.346 . S
C495 N494 1.346 . S
C495 C496 1.396 . S
C495 C505 1.510 . S
C496 C492 1.401 . S
C496 C495 1.396 . S
C497 C492 1.499 . S
C497 H498 0.959 . S
C497 H499 0.960 . S
C497 H500 0.961 . S
H498 C497 0.959 . S
H499 C497 0.960 . S
H500 C497 0.961 . S
O501 Co476 1.967 . S
O501 C509 1.258 . S
O502 Co477 1.941 . S
O502 C509 1.266 . S
H503 C505 0.959 . S
H504 C505 0.961 . S
C505 C495 1.510 . S
C505 H503 0.959 . S
C505 H504 0.961 . S
C505 H506 0.960 . S
H506 C505 0.960 . S
H507 N487 0.862 . S
O508 Co476 1.920 . S
O508 C481 1.289 . S
C509 O501 1.258 . S
C509 O502 1.266 . S
Co510 O513 1.970 . S
Co510 N527 1.989 . S
Co510 O535 1.967 . S
Co510 O542 1.920 . S
Co511 O514 1.966 . S
Co511 N520 2.022 . S
Co511 N528 1.993 . S
Co511 O536 1.941 . S
C512 O513 1.258 . S
C512 O514 1.263 . S
O513 Co510 1.970 . S
O513 C512 1.258 . S
O514 Co511 1.966 . S
O514 C512 1.263 . S
C515 O516 1.235 . S
C515 O542 1.289 . S
O516 C515 1.235 . S
C517 C519 1.400 . S
C517 N520 1.351 . S
C517 C522 1.501 . S
C518 C519 1.387 . S
C518 N521 1.341 . S
C519 C517 1.400 . S
C519 C518 1.387 . S
N520 Co511 2.022 . S
N520 C517 1.351 . S
N520 N521 1.365 . S
N521 C518 1.341 . S
N521 N520 1.365 . S
N521 H541 0.862 . S
C522 C517 1.501 . S
C522 H523 0.961 . S
C522 H524 0.961 . S
C522 H525 0.960 . S
H523 C522 0.961 . S
H524 C522 0.961 . S
H525 C522 0.960 . S
C526 N527 1.342 . S
C526 C530 1.401 . S
C526 C531 1.499 . S
N527 Co510 1.989 . S
N527 C526 1.342 . S
N527 N528 1.388 . S
N528 Co511 1.993 . S
N528 N527 1.388 . S
N528 C529 1.346 . S
C529 N528 1.346 . S
C529 C530 1.396 . S
C529 C539 1.510 . S
C530 C526 1.401 . S
C530 C529 1.396 . S
C531 C526 1.499 . S
C531 H532 0.959 . S
C531 H533 0.960 . S
C531 H534 0.961 . S
H532 C531 0.959 . S
H533 C531 0.960 . S
H534 C531 0.961 . S
O535 Co510 1.967 . S
O535 C543 1.258 . S
O536 Co511 1.941 . S
O536 C543 1.266 . S
H537 C539 0.959 . S
H538 C539 0.961 . S
C539 C529 1.510 . S
C539 H537 0.959 . S
C539 H538 0.961 . S
C539 H540 0.960 . S
H540 C539 0.960 . S
H541 N521 0.862 . S
O542 Co510 1.920 . S
O542 C515 1.289 . S
C543 O535 1.258 . S
C543 O536 1.266 . S
Co544 O547 1.970 . S
Co544 N561 1.989 . S
Co544 O569 1.967 . S
Co544 O576 1.920 . S
Co545 O548 1.966 . S
Co545 N554 2.022 . S
Co545 N562 1.993 . S
Co545 O570 1.941 . S
C546 O547 1.258 . S
C546 O548 1.263 . S
O547 Co544 1.970 . S
O547 C546 1.258 . S
O548 Co545 1.966 . S
O548 C546 1.263 . S
C549 O550 1.235 . S
C549 O576 1.289 . S
O550 C549 1.235 . S
C551 C553 1.400 . S
C551 N554 1.351 . S
C551 C556 1.501 . S
C552 C553 1.387 . S
C552 N555 1.341 . S
C553 C551 1.400 . S
C553 C552 1.387 . S
N554 Co545 2.022 . S
N554 C551 1.351 . S
N554 N555 1.365 . S
N555 C552 1.341 . S
N555 N554 1.365 . S
N555 H575 0.862 . S
C556 C551 1.501 . S
C556 H557 0.961 . S
C556 H558 0.961 . S
C556 H559 0.960 . S
H557 C556 0.961 . S
H558 C556 0.961 . S
H559 C556 0.960 . S
C560 N561 1.342 . S
C560 C564 1.401 . S
C560 C565 1.499 . S
N561 Co544 1.989 . S
N561 C560 1.342 . S
N561 N562 1.388 . S
N562 Co545 1.993 . S
N562 N561 1.388 . S
N562 C563 1.346 . S
C563 N562 1.346 . S
C563 C564 1.396 . S
C563 C573 1.510 . S
C564 C560 1.401 . S
C564 C563 1.396 . S
C565 C560 1.499 . S
C565 H566 0.959 . S
C565 H567 0.960 . S
C565 H568 0.961 . S
H566 C565 0.959 . S
H567 C565 0.960 . S
H568 C565 0.961 . S
O569 Co544 1.967 . S
O569 C577 1.258 . S
O570 Co545 1.941 . S
O570 C577 1.266 . S
H571 C573 0.959 . S
H572 C573 0.961 . S
C573 C563 1.510 . S
C573 H571 0.959 . S
C573 H572 0.961 . S
C573 H574 0.960 . S
H574 C573 0.960 . S
H575 N555 0.862 . S
O576 Co544 1.920 . S
O576 C549 1.289 . S
C577 O569 1.258 . S
C577 O570 1.266 . S
Co578 O581 1.970 . S
Co578 N595 1.989 . S
Co578 O603 1.967 . S
Co578 O610 1.920 . S
Co579 O582 1.966 . S
Co579 N588 2.022 . S
Co579 N596 1.993 . S
Co579 O604 1.941 . S
C580 O581 1.258 . S
C580 O582 1.263 . S
O581 Co578 1.970 . S
O581 C580 1.258 . S
O582 Co579 1.966 . S
O582 C580 1.263 . S
C583 O584 1.235 . S
C583 O610 1.289 . S
O584 C583 1.235 . S
C585 C587 1.400 . S
C585 N588 1.351 . S
C585 C590 1.501 . S
C586 C587 1.387 . S
C586 N589 1.341 . S
C587 C585 1.400 . S
C587 C586 1.387 . S
N588 Co579 2.022 . S
N588 C585 1.351 . S
N588 N589 1.365 . S
N589 C586 1.341 . S
N589 N588 1.365 . S
N589 H609 0.862 . S
C590 C585 1.501 . S
C590 H591 0.961 . S
C590 H592 0.961 . S
C590 H593 0.960 . S
H591 C590 0.961 . S
H592 C590 0.961 . S
H593 C590 0.960 . S
C594 N595 1.342 . S
C594 C598 1.401 . S
C594 C599 1.499 . S
N595 Co578 1.989 . S
N595 C594 1.342 . S
N595 N596 1.388 . S
N596 Co579 1.993 . S
N596 N595 1.388 . S
N596 C597 1.346 . S
C597 N596 1.346 . S
C597 C598 1.396 . S
C597 C607 1.510 . S
C598 C594 1.401 . S
C598 C597 1.396 . S
C599 C594 1.499 . S
C599 H600 0.959 . S
C599 H601 0.960 . S
C599 H602 0.961 . S
H600 C599 0.959 . S
H601 C599 0.960 . S
H602 C599 0.961 . S
O603 Co578 1.967 . S
O603 C611 1.258 . S
O604 Co579 1.941 . S
O604 C611 1.266 . S
H605 C607 0.959 . S
H606 C607 0.961 . S
C607 C597 1.510 . S
C607 H605 0.959 . S
C607 H606 0.961 . S
C607 H608 0.960 . S
H608 C607 0.960 . S
H609 N589 0.862 . S
O610 Co578 1.920 . S
O610 C583 1.289 . S
C611 O603 1.258 . S
C611 O604 1.266 . S
Co612 O615 1.970 . S
Co612 N629 1.989 . S
Co612 O637 1.967 . S
Co612 O644 1.920 . S
Co613 O616 1.966 . S
Co613 N622 2.022 . S
Co613 N630 1.993 . S
Co613 O638 1.941 . S
C614 O615 1.258 . S
C614 O616 1.263 . S
O615 Co612 1.970 . S
O615 C614 1.258 . S
O616 Co613 1.966 . S
O616 C614 1.263 . S
C617 O618 1.235 . S
C617 O644 1.289 . S
O618 C617 1.235 . S
C619 C621 1.400 . S
C619 N622 1.351 . S
C619 C624 1.501 . S
C620 C621 1.387 . S
C620 N623 1.341 . S
C621 C619 1.400 . S
C621 C620 1.387 . S
N622 Co613 2.022 . S
N622 C619 1.351 . S
N622 N623 1.365 . S
N623 C620 1.341 . S
N623 N622 1.365 . S
N623 H643 0.862 . S
C624 C619 1.501 . S
C624 H625 0.961 . S
C624 H626 0.961 . S
C624 H627 0.960 . S
H625 C624 0.961 . S
H626 C624 0.961 . S
H627 C624 0.960 . S
C628 N629 1.342 . S
C628 C632 1.401 . S
C628 C633 1.499 . S
N629 Co612 1.989 . S
N629 C628 1.342 . S
N629 N630 1.388 . S
N630 Co613 1.993 . S
N630 N629 1.388 . S
N630 C631 1.346 . S
C631 N630 1.346 . S
C631 C632 1.396 . S
C631 C641 1.510 . S
C632 C628 1.401 . S
C632 C631 1.396 . S
C633 C628 1.499 . S
C633 H634 0.959 . S
C633 H635 0.960 . S
C633 H636 0.961 . S
H634 C633 0.959 . S
H635 C633 0.960 . S
H636 C633 0.961 . S
O637 Co612 1.967 . S
O637 C645 1.258 . S
O638 Co613 1.941 . S
O638 C645 1.266 . S
H639 C641 0.959 . S
H640 C641 0.961 . S
C641 C631 1.510 . S
C641 H639 0.959 . S
C641 H640 0.961 . S
C641 H642 0.960 . S
H642 C641 0.960 . S
H643 N623 0.862 . S
O644 Co612 1.920 . S
O644 C617 1.289 . S
C645 O637 1.258 . S
C645 O638 1.266 . S
Co646 O649 1.970 . S
Co646 N663 1.989 . S
Co646 O671 1.967 . S
Co646 O678 1.920 . S
Co647 O650 1.966 . S
Co647 N656 2.022 . S
Co647 N664 1.993 . S
Co647 O672 1.941 . S
C648 O649 1.258 . S
C648 O650 1.263 . S
O649 Co646 1.970 . S
O649 C648 1.258 . S
O650 Co647 1.966 . S
O650 C648 1.263 . S
C651 O652 1.235 . S
C651 O678 1.289 . S
O652 C651 1.235 . S
C653 C655 1.400 . S
C653 N656 1.351 . S
C653 C658 1.501 . S
C654 C655 1.387 . S
C654 N657 1.341 . S
C655 C653 1.400 . S
C655 C654 1.387 . S
N656 Co647 2.022 . S
N656 C653 1.351 . S
N656 N657 1.365 . S
N657 C654 1.341 . S
N657 N656 1.365 . S
N657 H677 0.862 . S
C658 C653 1.501 . S
C658 H659 0.961 . S
C658 H660 0.961 . S
C658 H661 0.960 . S
H659 C658 0.961 . S
H660 C658 0.961 . S
H661 C658 0.960 . S
C662 N663 1.342 . S
C662 C666 1.401 . S
C662 C667 1.499 . S
N663 Co646 1.989 . S
N663 C662 1.342 . S
N663 N664 1.388 . S
N664 Co647 1.993 . S
N664 N663 1.388 . S
N664 C665 1.346 . S
C665 N664 1.346 . S
C665 C666 1.396 . S
C665 C675 1.510 . S
C666 C662 1.401 . S
C666 C665 1.396 . S
C667 C662 1.499 . S
C667 H668 0.959 . S
C667 H669 0.960 . S
C667 H670 0.961 . S
H668 C667 0.959 . S
H669 C667 0.960 . S
H670 C667 0.961 . S
O671 Co646 1.967 . S
O671 C679 1.258 . S
O672 Co647 1.941 . S
O672 C679 1.266 . S
H673 C675 0.959 . S
H674 C675 0.961 . S
C675 C665 1.510 . S
C675 H673 0.959 . S
C675 H674 0.961 . S
C675 H676 0.960 . S
H676 C675 0.960 . S
H677 N657 0.862 . S
O678 Co646 1.920 . S
O678 C651 1.289 . S
C679 O671 1.258 . S
C679 O672 1.266 . S
Co680 O683 1.970 . S
Co680 N697 1.989 . S
Co680 O705 1.967 . S
Co680 O712 1.920 . S
Co681 O684 1.966 . S
Co681 N690 2.022 . S
Co681 N698 1.993 . S
Co681 O706 1.941 . S
C682 O683 1.258 . S
C682 O684 1.263 . S
O683 Co680 1.970 . S
O683 C682 1.258 . S
O684 Co681 1.966 . S
O684 C682 1.263 . S
C685 O686 1.235 . S
C685 O712 1.289 . S
O686 C685 1.235 . S
C687 C689 1.400 . S
C687 N690 1.351 . S
C687 C692 1.501 . S
C688 C689 1.387 . S
C688 N691 1.341 . S
C689 C687 1.400 . S
C689 C688 1.387 . S
N690 Co681 2.022 . S
N690 C687 1.351 . S
N690 N691 1.365 . S
N691 C688 1.341 . S
N691 N690 1.365 . S
N691 H711 0.862 . S
C692 C687 1.501 . S
C692 H693 0.961 . S
C692 H694 0.961 . S
C692 H695 0.960 . S
H693 C692 0.961 . S
H694 C692 0.961 . S
H695 C692 0.960 . S
C696 N697 1.342 . S
C696 C700 1.401 . S
C696 C701 1.499 . S
N697 Co680 1.989 . S
N697 C696 1.342 . S
N697 N698 1.388 . S
N698 Co681 1.993 . S
N698 N697 1.388 . S
N698 C699 1.346 . S
C699 N698 1.346 . S
C699 C700 1.396 . S
C699 C709 1.510 . S
C700 C696 1.401 . S
C700 C699 1.396 . S
C701 C696 1.499 . S
C701 H702 0.959 . S
C701 H703 0.960 . S
C701 H704 0.961 . S
H702 C701 0.959 . S
H703 C701 0.960 . S
H704 C701 0.961 . S
O705 Co680 1.967 . S
O705 C713 1.258 . S
O706 Co681 1.941 . S
O706 C713 1.266 . S
H707 C709 0.959 . S
H708 C709 0.961 . S
C709 C699 1.510 . S
C709 H707 0.959 . S
C709 H708 0.961 . S
C709 H710 0.960 . S
H710 C709 0.960 . S
H711 N691 0.862 . S
O712 Co680 1.920 . S
O712 C685 1.289 . S
C713 O705 1.258 . S
C713 O706 1.266 . S
Co714 O717 1.970 . S
Co714 N731 1.989 . S
Co714 O739 1.967 . S
Co714 O746 1.920 . S
Co715 O718 1.966 . S
Co715 N724 2.022 . S
Co715 N732 1.993 . S
Co715 O740 1.941 . S
C716 O717 1.258 . S
C716 O718 1.263 . S
O717 Co714 1.970 . S
O717 C716 1.258 . S
O718 Co715 1.966 . S
O718 C716 1.263 . S
C719 O720 1.235 . S
C719 O746 1.289 . S
O720 C719 1.235 . S
C721 C723 1.400 . S
C721 N724 1.351 . S
C721 C726 1.501 . S
C722 C723 1.387 . S
C722 N725 1.341 . S
C723 C721 1.400 . S
C723 C722 1.387 . S
N724 Co715 2.022 . S
N724 C721 1.351 . S
N724 N725 1.365 . S
N725 C722 1.341 . S
N725 N724 1.365 . S
N725 H745 0.862 . S
C726 C721 1.501 . S
C726 H727 0.961 . S
C726 H728 0.961 . S
C726 H729 0.960 . S
H727 C726 0.961 . S
H728 C726 0.961 . S
H729 C726 0.960 . S
C730 N731 1.342 . S
C730 C734 1.401 . S
C730 C735 1.499 . S
N731 Co714 1.989 . S
N731 C730 1.342 . S
N731 N732 1.388 . S
N732 Co715 1.993 . S
N732 N731 1.388 . S
N732 C733 1.346 . S
C733 N732 1.346 . S
C733 C734 1.396 . S
C733 C743 1.510 . S
C734 C730 1.401 . S
C734 C733 1.396 . S
C735 C730 1.499 . S
C735 H736 0.959 . S
C735 H737 0.960 . S
C735 H738 0.961 . S
H736 C735 0.959 . S
H737 C735 0.960 . S
H738 C735 0.961 . S
O739 Co714 1.967 . S
O739 C747 1.258 . S
O740 Co715 1.941 . S
O740 C747 1.266 . S
H741 C743 0.959 . S
H742 C743 0.961 . S
C743 C733 1.510 . S
C743 H741 0.959 . S
C743 H742 0.961 . S
C743 H744 0.960 . S
H744 C743 0.960 . S
H745 N725 0.862 . S
O746 Co714 1.920 . S
O746 C719 1.289 . S
C747 O739 1.258 . S
C747 O740 1.266 . S
Co748 O751 1.970 . S
Co748 N765 1.989 . S
Co748 O773 1.967 . S
Co748 O780 1.920 . S
Co749 O752 1.966 . S
Co749 N758 2.022 . S
Co749 N766 1.993 . S
Co749 O774 1.941 . S
C750 O751 1.258 . S
C750 O752 1.263 . S
O751 Co748 1.970 . S
O751 C750 1.258 . S
O752 Co749 1.966 . S
O752 C750 1.263 . S
C753 O754 1.235 . S
C753 O780 1.289 . S
O754 C753 1.235 . S
C755 C757 1.400 . S
C755 N758 1.351 . S
C755 C760 1.501 . S
C756 C757 1.387 . S
C756 N759 1.341 . S
C757 C755 1.400 . S
C757 C756 1.387 . S
N758 Co749 2.022 . S
N758 C755 1.351 . S
N758 N759 1.365 . S
N759 C756 1.341 . S
N759 N758 1.365 . S
N759 H779 0.862 . S
C760 C755 1.501 . S
C760 H761 0.961 . S
C760 H762 0.961 . S
C760 H763 0.960 . S
H761 C760 0.961 . S
H762 C760 0.961 . S
H763 C760 0.960 . S
C764 N765 1.342 . S
C764 C768 1.401 . S
C764 C769 1.499 . S
N765 Co748 1.989 . S
N765 C764 1.342 . S
N765 N766 1.388 . S
N766 Co749 1.993 . S
N766 N765 1.388 . S
N766 C767 1.346 . S
C767 N766 1.346 . S
C767 C768 1.396 . S
C767 C777 1.510 . S
C768 C764 1.401 . S
C768 C767 1.396 . S
C769 C764 1.499 . S
C769 H770 0.959 . S
C769 H771 0.960 . S
C769 H772 0.961 . S
H770 C769 0.959 . S
H771 C769 0.960 . S
H772 C769 0.961 . S
O773 Co748 1.967 . S
O773 C781 1.258 . S
O774 Co749 1.941 . S
O774 C781 1.266 . S
H775 C777 0.959 . S
H776 C777 0.961 . S
C777 C767 1.510 . S
C777 H775 0.959 . S
C777 H776 0.961 . S
C777 H778 0.960 . S
H778 C777 0.960 . S
H779 N759 0.862 . S
O780 Co748 1.920 . S
O780 C753 1.289 . S
C781 O773 1.258 . S
C781 O774 1.266 . S
Co782 O785 1.970 . S
Co782 N799 1.989 . S
Co782 O807 1.967 . S
Co782 O814 1.920 . S
Co783 O786 1.966 . S
Co783 N792 2.022 . S
Co783 N800 1.993 . S
Co783 O808 1.941 . S
C784 O785 1.258 . S
C784 O786 1.263 . S
O785 Co782 1.970 . S
O785 C784 1.258 . S
O786 Co783 1.966 . S
O786 C784 1.263 . S
C787 O788 1.235 . S
C787 O814 1.289 . S
O788 C787 1.235 . S
C789 C791 1.400 . S
C789 N792 1.351 . S
C789 C794 1.501 . S
C790 C791 1.387 . S
C790 N793 1.341 . S
C791 C789 1.400 . S
C791 C790 1.387 . S
N792 Co783 2.022 . S
N792 C789 1.351 . S
N792 N793 1.365 . S
N793 C790 1.341 . S
N793 N792 1.365 . S
N793 H813 0.862 . S
C794 C789 1.501 . S
C794 H795 0.961 . S
C794 H796 0.961 . S
C794 H797 0.960 . S
H795 C794 0.961 . S
H796 C794 0.961 . S
H797 C794 0.960 . S
C798 N799 1.342 . S
C798 C802 1.401 . S
C798 C803 1.499 . S
N799 Co782 1.989 . S
N799 C798 1.342 . S
N799 N800 1.388 . S
N800 Co783 1.993 . S
N800 N799 1.388 . S
N800 C801 1.346 . S
C801 N800 1.346 . S
C801 C802 1.396 . S
C801 C811 1.510 . S
C802 C798 1.401 . S
C802 C801 1.396 . S
C803 C798 1.499 . S
C803 H804 0.959 . S
C803 H805 0.960 . S
C803 H806 0.961 . S
H804 C803 0.959 . S
H805 C803 0.960 . S
H806 C803 0.961 . S
O807 Co782 1.967 . S
O807 C815 1.258 . S
O808 Co783 1.941 . S
O808 C815 1.266 . S
H809 C811 0.959 . S
H810 C811 0.961 . S
C811 C801 1.510 . S
C811 H809 0.959 . S
C811 H810 0.961 . S
C811 H812 0.960 . S
H812 C811 0.960 . S
H813 N793 0.862 . S
O814 Co782 1.920 . S
O814 C787 1.289 . S
C815 O807 1.258 . S
C815 O808 1.266 . S
C816 C817 1.387 . S
C816 H820 0.950 . S
C816 C825 1.390 1_655 S
C817 C816 1.387 . S
C817 C819 1.387 . S
H818 C825 0.950 . S
C819 C817 1.387 . S
C819 C821 1.390 1_655 S
C819 H823 0.950 . S
H820 C816 0.950 . S
C821 C819 1.390 1_455 S
C821 C822 1.387 . S
C821 H824 0.950 . S
C822 C821 1.387 . S
C822 C825 1.387 . S
H823 C819 0.950 . S
H824 C821 0.950 . S
C825 C816 1.390 1_455 S
C825 H818 0.950 . S
C825 C822 1.387 . S
C826 C827 1.387 . S
C826 H830 0.950 . S
C826 C835 1.390 1_565 S
C827 C826 1.387 . S
C827 C829 1.387 . S
H828 C835 0.950 . S
C829 C827 1.387 . S
C829 C831 1.390 1_565 S
C829 H833 0.950 . S
H830 C826 0.950 . S
C831 C829 1.390 1_545 S
C831 C832 1.387 . S
C831 H834 0.950 . S
C832 C831 1.387 . S
C832 C835 1.387 . S
H833 C829 0.950 . S
H834 C831 0.950 . S
C835 C826 1.390 1_545 S
C835 H828 0.950 . S
C835 C832 1.387 . S
C836 C837 1.387 . S
C836 H840 0.950 . S
C836 C845 1.390 1_455 S
C837 C836 1.387 . S
C837 C839 1.387 . S
H838 C845 0.950 . S
C839 C837 1.387 . S
C839 C841 1.390 1_455 S
C839 H843 0.950 . S
H840 C836 0.950 . S
C841 C839 1.390 1_655 S
C841 C842 1.387 . S
C841 H844 0.950 . S
C842 C841 1.387 . S
C842 C845 1.387 . S
H843 C839 0.950 . S
H844 C841 0.950 . S
C845 C836 1.390 1_655 S
C845 H838 0.950 . S
C845 C842 1.387 . S
C846 C847 1.387 . S
C846 H850 0.950 . S
C846 C855 1.390 1_565 S
C847 C846 1.387 . S
C847 C849 1.387 . S
H848 C855 0.950 . S
C849 C847 1.387 . S
C849 C851 1.390 1_565 S
C849 H853 0.950 . S
H850 C846 0.950 . S
C851 C849 1.390 1_545 S
C851 C852 1.387 . S
C851 H854 0.950 . S
C852 C851 1.387 . S
C852 C855 1.387 . S
H853 C849 0.950 . S
H854 C851 0.950 . S
C855 C846 1.390 1_545 S
C855 H848 0.950 . S
C855 C852 1.387 . S
C856 C857 1.387 . S
C856 H860 0.950 . S
C856 C865 1.390 1_655 S
C857 C856 1.387 . S
C857 C859 1.387 . S
H858 C865 0.950 . S
C859 C857 1.387 . S
C859 C861 1.390 1_655 S
C859 H863 0.950 . S
H860 C856 0.950 . S
C861 C859 1.390 1_455 S
C861 C862 1.387 . S
C861 H864 0.950 . S
C862 C861 1.387 . S
C862 C865 1.387 . S
H863 C859 0.950 . S
H864 C861 0.950 . S
C865 C856 1.390 1_455 S
C865 H858 0.950 . S
C865 C862 1.387 . S
C866 C867 1.387 . S
C866 H870 0.950 . S
C866 C875 1.390 1_545 S
C867 C866 1.387 . S
C867 C869 1.387 . S
H868 C875 0.950 . S
C869 C867 1.387 . S
C869 C871 1.390 1_545 S
C869 H873 0.950 . S
H870 C866 0.950 . S
C871 C869 1.390 1_565 S
C871 C872 1.387 . S
C871 H874 0.950 . S
C872 C871 1.387 . S
C872 C875 1.387 . S
H873 C869 0.950 . S
H874 C871 0.950 . S
C875 C866 1.390 1_565 S
C875 H868 0.950 . S
C875 C872 1.387 . S
C876 C877 1.387 . S
C876 H880 0.950 . S
C876 C885 1.390 1_655 S
C877 C876 1.387 . S
C877 C879 1.387 . S
H878 C885 0.950 . S
C879 C877 1.387 . S
C879 C881 1.390 1_655 S
C879 H883 0.950 . S
H880 C876 0.950 . S
C881 C879 1.390 1_455 S
C881 C882 1.387 . S
C881 H884 0.950 . S
C882 C881 1.387 . S
C882 C885 1.387 . S
H883 C879 0.950 . S
H884 C881 0.950 . S
C885 C876 1.390 1_455 S
C885 H878 0.950 . S
C885 C882 1.387 . S
C886 C887 1.387 . S
C886 H890 0.950 . S
C886 C895 1.390 1_565 S
C887 C886 1.387 . S
C887 C889 1.387 . S
H888 C895 0.950 . S
C889 C887 1.387 . S
C889 C891 1.390 1_565 S
C889 H893 0.950 . S
H890 C886 0.950 . S
C891 C889 1.390 1_545 S
C891 C892 1.387 . S
C891 H894 0.950 . S
C892 C891 1.387 . S
C892 C895 1.387 . S
H893 C889 0.950 . S
H894 C891 0.950 . S
C895 C886 1.390 1_545 S
C895 H888 0.950 . S
C895 C892 1.387 . S
C896 C897 1.387 . S
C896 H900 0.950 . S
C896 C905 1.390 1_554 S
C897 C896 1.387 . S
C897 C899 1.387 . S
H898 C905 0.950 . S
C899 C897 1.387 . S
C899 C901 1.390 1_554 S
C899 H903 0.950 . S
H900 C896 0.950 . S
C901 C899 1.390 1_556 S
C901 C902 1.387 . S
C901 H904 0.950 . S
C902 C901 1.387 . S
C902 C905 1.387 . S
H903 C899 0.950 . S
H904 C901 0.950 . S
C905 C896 1.390 1_556 S
C905 H898 0.950 . S
C905 C902 1.387 . S
C906 C907 1.387 . S
C906 H910 0.950 . S
C906 C915 1.390 1_554 S
C907 C906 1.387 . S
C907 C909 1.387 . S
H908 C915 0.950 . S
C909 C907 1.387 . S
C909 C911 1.390 1_554 S
C909 H913 0.950 . S
H910 C906 0.950 . S
C911 C909 1.390 1_556 S
C911 C912 1.387 . S
C911 H914 0.950 . S
C912 C911 1.387 . S
C912 C915 1.387 . S
H913 C909 0.950 . S
H914 C911 0.950 . S
C915 C906 1.390 1_556 S
C915 H908 0.950 . S
C915 C912 1.387 . S
C916 C917 1.387 . S
C916 H920 0.950 . S
C916 C925 1.390 1_556 S
C917 C916 1.387 . S
C917 C919 1.387 . S
H918 C925 0.950 . S
C919 C917 1.387 . S
C919 C921 1.390 1_556 S
C919 H923 0.950 . S
H920 C916 0.950 . S
C921 C919 1.390 1_554 S
C921 C922 1.387 . S
C921 H924 0.950 . S
C922 C921 1.387 . S
C922 C925 1.387 . S
H923 C919 0.950 . S
H924 C921 0.950 . S
C925 C916 1.390 1_554 S
C925 H918 0.950 . S
C925 C922 1.387 . S
C926 C927 1.387 . S
C926 H930 0.950 . S
C926 C935 1.390 1_554 S
C927 C926 1.387 . S
C927 C929 1.387 . S
H928 C935 0.950 . S
C929 C927 1.387 . S
C929 C931 1.390 1_554 S
C929 H933 0.950 . S
H930 C926 0.950 . S
C931 C929 1.390 1_556 S
C931 C932 1.387 . S
C931 H934 0.950 . S
C932 C931 1.387 . S
C932 C935 1.387 . S
H933 C929 0.950 . S
H934 C931 0.950 . S
C935 C926 1.390 1_556 S
C935 H928 0.950 . S
C935 C932 1.387 . S
C936 C937 1.387 . S
C936 H940 0.950 . S
C936 C945 1.390 . S
C937 C936 1.387 . S
C937 C939 1.387 . S
H938 C945 0.950 . S
C939 C937 1.387 . S
C939 C941 1.390 . S
C939 H943 0.950 . S
H940 C936 0.950 . S
C941 C939 1.390 . S
C941 C942 1.387 . S
C941 H944 0.950 . S
C942 C941 1.387 . S
C942 C945 1.387 . S
H943 C939 0.950 . S
H944 C941 0.950 . S
C945 C936 1.390 . S
C945 H938 0.950 . S
C945 C942 1.387 . S
C946 C947 1.387 . S
C946 H950 0.950 . S
C946 C955 1.390 . S
C947 C946 1.387 . S
C947 C949 1.387 . S
H948 C955 0.950 . S
C949 C947 1.387 . S
C949 C951 1.390 . S
C949 H953 0.950 . S
H950 C946 0.950 . S
C951 C949 1.390 . S
C951 C952 1.387 . S
C951 H954 0.950 . S
C952 C951 1.387 . S
C952 C955 1.387 . S
H953 C949 0.950 . S
H954 C951 0.950 . S
C955 C946 1.390 . S
C955 H948 0.950 . S
C955 C952 1.387 . S
C956 C957 1.387 . S
C956 H960 0.950 . S
C956 C965 1.390 . S
C957 C956 1.387 . S
C957 C959 1.387 . S
H958 C965 0.950 . S
C959 C957 1.387 . S
C959 C961 1.390 . S
C959 H963 0.950 . S
H960 C956 0.950 . S
C961 C959 1.390 . S
C961 C962 1.387 . S
C961 H964 0.950 . S
C962 C961 1.387 . S
C962 C965 1.387 . S
H963 C959 0.950 . S
H964 C961 0.950 . S
C965 C956 1.390 . S
C965 H958 0.950 . S
C965 C962 1.387 . S
C966 C967 1.387 . S
C966 H970 0.950 . S
C966 C975 1.390 . S
C967 C966 1.387 . S
C967 C969 1.387 . S
H968 C975 0.950 . S
C969 C967 1.387 . S
C969 C971 1.390 . S
C969 H973 0.950 . S
H970 C966 0.950 . S
C971 C969 1.390 . S
C971 C972 1.387 . S
C971 H974 0.950 . S
C972 C971 1.387 . S
C972 C975 1.387 . S
H973 C969 0.950 . S
H974 C971 0.950 . S
C975 C966 1.390 . S
C975 H968 0.950 . S
C975 C972 1.387 . S
C976 C977 1.387 . S
C976 H980 0.950 . S
C976 C985 1.390 . S
C977 C976 1.387 . S
C977 C979 1.387 . S
H978 C985 0.950 . S
C979 C977 1.387 . S
C979 C981 1.390 . S
C979 H983 0.950 . S
H980 C976 0.950 . S
C981 C979 1.390 . S
C981 C982 1.387 . S
C981 H984 0.950 . S
C982 C981 1.387 . S
C982 C985 1.387 . S
H983 C979 0.950 . S
H984 C981 0.950 . S
C985 C976 1.390 . S
C985 H978 0.950 . S
C985 C982 1.387 . S
C986 C987 1.387 . S
C986 H990 0.950 . S
C986 C995 1.390 . S
C987 C986 1.387 . S
C987 C989 1.387 . S
H988 C995 0.950 . S
C989 C987 1.387 . S
C989 C991 1.390 . S
C989 H993 0.950 . S
H990 C986 0.950 . S
C991 C989 1.390 . S
C991 C992 1.387 . S
C991 H994 0.950 . S
C992 C991 1.387 . S
C992 C995 1.387 . S
H993 C989 0.950 . S
H994 C991 0.950 . S
C995 C986 1.390 . S
C995 H988 0.950 . S
C995 C992 1.387 . S
C996 C997 1.387 . S
C996 H1000 0.950 . S
C996 C1005 1.390 . S
C997 C996 1.387 . S
C997 C999 1.387 . S
H998 C1005 0.950 . S
C999 C997 1.387 . S
C999 C1001 1.390 . S
C999 H1003 0.950 . S
H1000 C996 0.950 . S
C1001 C999 1.390 . S
C1001 C1002 1.387 . S
C1001 H1004 0.950 . S
C1002 C1001 1.387 . S
C1002 C1005 1.387 . S
H1003 C999 0.950 . S
H1004 C1001 0.950 . S
C1005 C996 1.390 . S
C1005 H998 0.950 . S
C1005 C1002 1.387 . S
C1006 C1007 1.387 . S
C1006 H1010 0.950 . S
C1006 C1015 1.390 . S
C1007 C1006 1.387 . S
C1007 C1009 1.387 . S
H1008 C1015 0.950 . S
C1009 C1007 1.387 . S
C1009 C1011 1.390 . S
C1009 H1013 0.950 . S
H1010 C1006 0.950 . S
C1011 C1009 1.390 . S
C1011 C1012 1.387 . S
C1011 H1014 0.950 . S
C1012 C1011 1.387 . S
C1012 C1015 1.387 . S
H1013 C1009 0.950 . S
H1014 C1011 0.950 . S
C1015 C1006 1.390 . S
C1015 H1008 0.950 . S
C1015 C1012 1.387 . S
C1016 C1017 1.387 . S
C1016 H1020 0.950 . S
C1016 C1025 1.390 . S
C1017 C1016 1.387 . S
C1017 C1019 1.387 . S
H1018 C1025 0.950 . S
C1019 C1017 1.387 . S
C1019 C1021 1.390 . S
C1019 H1023 0.950 . S
H1020 C1016 0.950 . S
C1021 C1019 1.390 . S
C1021 C1022 1.387 . S
C1021 H1024 0.950 . S
C1022 C1021 1.387 . S
C1022 C1025 1.387 . S
H1023 C1019 0.950 . S
H1024 C1021 0.950 . S
C1025 C1016 1.390 . S
C1025 H1018 0.950 . S
C1025 C1022 1.387 . S
C1026 C1027 1.387 . S
C1026 H1030 0.950 . S
C1026 C1035 1.390 . S
C1027 C1026 1.387 . S
C1027 C1029 1.387 . S
H1028 C1035 0.950 . S
C1029 C1027 1.387 . S
C1029 C1031 1.390 . S
C1029 H1033 0.950 . S
H1030 C1026 0.950 . S
C1031 C1029 1.390 . S
C1031 C1032 1.387 . S
C1031 H1034 0.950 . S
C1032 C1031 1.387 . S
C1032 C1035 1.387 . S
H1033 C1029 0.950 . S
H1034 C1031 0.950 . S
C1035 C1026 1.390 . S
C1035 H1028 0.950 . S
C1035 C1032 1.387 . S
C1036 C1037 1.387 . S
C1036 H1040 0.950 . S
C1036 C1045 1.390 . S
C1037 C1036 1.387 . S
C1037 C1039 1.387 . S
H1038 C1045 0.950 . S
C1039 C1037 1.387 . S
C1039 C1041 1.390 . S
C1039 H1043 0.950 . S
H1040 C1036 0.950 . S
C1041 C1039 1.390 . S
C1041 C1042 1.387 . S
C1041 H1044 0.950 . S
C1042 C1041 1.387 . S
C1042 C1045 1.387 . S
H1043 C1039 0.950 . S
H1044 C1041 0.950 . S
C1045 C1036 1.390 . S
C1045 H1038 0.950 . S
C1045 C1042 1.387 . S
C1046 C1047 1.387 . S
C1046 H1050 0.950 . S
C1046 C1055 1.390 . S
C1047 C1046 1.387 . S
C1047 C1049 1.387 . S
H1048 C1055 0.950 . S
C1049 C1047 1.387 . S
C1049 C1051 1.390 . S
C1049 H1053 0.950 . S
H1050 C1046 0.950 . S
C1051 C1049 1.390 . S
C1051 C1052 1.387 . S
C1051 H1054 0.950 . S
C1052 C1051 1.387 . S
C1052 C1055 1.387 . S
H1053 C1049 0.950 . S
H1054 C1051 0.950 . S
C1055 C1046 1.390 . S
C1055 H1048 0.950 . S
C1055 C1052 1.387 . S
C1056 C1057 1.387 . S
C1056 H1060 0.950 . S
C1056 C1065 1.390 . S
C1057 C1056 1.387 . S
C1057 C1059 1.387 . S
H1058 C1065 0.950 . S
C1059 C1057 1.387 . S
C1059 C1061 1.390 . S
C1059 H1063 0.950 . S
H1060 C1056 0.950 . S
C1061 C1059 1.390 . S
C1061 C1062 1.387 . S
C1061 H1064 0.950 . S
C1062 C1061 1.387 . S
C1062 C1065 1.387 . S
H1063 C1059 0.950 . S
H1064 C1061 0.950 . S
C1065 C1056 1.390 . S
C1065 H1058 0.950 . S
C1065 C1062 1.387 . S
C1066 C1067 1.387 . S
C1066 H1070 0.950 . S
C1066 C1075 1.390 . S
C1067 C1066 1.387 . S
C1067 C1069 1.387 . S
H1068 C1075 0.950 . S
C1069 C1067 1.387 . S
C1069 C1071 1.390 . S
C1069 H1073 0.950 . S
H1070 C1066 0.950 . S
C1071 C1069 1.390 . S
C1071 C1072 1.387 . S
C1071 H1074 0.950 . S
C1072 C1071 1.387 . S
C1072 C1075 1.387 . S
H1073 C1069 0.950 . S
H1074 C1071 0.950 . S
C1075 C1066 1.390 . S
C1075 H1068 0.950 . S
C1075 C1072 1.387 . S
C1076 C1077 1.387 . S
C1076 H1080 0.950 . S
C1076 C1085 1.390 . S
C1077 C1076 1.387 . S
C1077 C1079 1.387 . S
H1078 C1085 0.950 . S
C1079 C1077 1.387 . S
C1079 C1081 1.390 . S
C1079 H1083 0.950 . S
H1080 C1076 0.950 . S
C1081 C1079 1.390 . S
C1081 C1082 1.387 . S
C1081 H1084 0.950 . S
C1082 C1081 1.387 . S
C1082 C1085 1.387 . S
H1083 C1079 0.950 . S
H1084 C1081 0.950 . S
C1085 C1076 1.390 . S
C1085 H1078 0.950 . S
C1085 C1082 1.387 . S
C1086 C1087 1.387 . S
C1086 H1090 0.950 . S
C1086 C1095 1.390 . S
C1087 C1086 1.387 . S
C1087 C1089 1.387 . S
H1088 C1095 0.950 . S
C1089 C1087 1.387 . S
C1089 C1091 1.390 . S
C1089 H1093 0.950 . S
H1090 C1086 0.950 . S
C1091 C1089 1.390 . S
C1091 C1092 1.387 . S
C1091 H1094 0.950 . S
C1092 C1091 1.387 . S
C1092 C1095 1.387 . S
H1093 C1089 0.950 . S
H1094 C1091 0.950 . S
C1095 C1086 1.390 . S
C1095 H1088 0.950 . S
C1095 C1092 1.387 . S
C1096 C1097 1.387 . S
C1096 H1100 0.950 . S
C1096 C1105 1.390 . S
C1097 C1096 1.387 . S
C1097 C1099 1.387 . S
H1098 C1105 0.950 . S
C1099 C1097 1.387 . S
C1099 C1101 1.390 . S
C1099 H1103 0.950 . S
H1100 C1096 0.950 . S
C1101 C1099 1.390 . S
C1101 C1102 1.387 . S
C1101 H1104 0.950 . S
C1102 C1101 1.387 . S
C1102 C1105 1.387 . S
H1103 C1099 0.950 . S
H1104 C1101 0.950 . S
C1105 C1096 1.390 . S
C1105 H1098 0.950 . S
C1105 C1102 1.387 . S
C1106 C1107 1.387 . S
C1106 H1110 0.950 . S
C1106 C1115 1.390 . S
C1107 C1106 1.387 . S
C1107 C1109 1.387 . S
H1108 C1115 0.950 . S
C1109 C1107 1.387 . S
C1109 C1111 1.390 . S
C1109 H1113 0.950 . S
H1110 C1106 0.950 . S
C1111 C1109 1.390 . S
C1111 C1112 1.387 . S
C1111 H1114 0.950 . S
C1112 C1111 1.387 . S
C1112 C1115 1.387 . S
H1113 C1109 0.950 . S
H1114 C1111 0.950 . S
C1115 C1106 1.390 . S
C1115 H1108 0.950 . S
C1115 C1112 1.387 . S
C1116 C1117 1.387 . S
C1116 H1120 0.950 . S
C1116 C1125 1.390 . S
C1117 C1116 1.387 . S
C1117 C1119 1.387 . S
H1118 C1125 0.950 . S
C1119 C1117 1.387 . S
C1119 C1121 1.390 . S
C1119 H1123 0.950 . S
H1120 C1116 0.950 . S
C1121 C1119 1.390 . S
C1121 C1122 1.387 . S
C1121 H1124 0.950 . S
C1122 C1121 1.387 . S
C1122 C1125 1.387 . S
H1123 C1119 0.950 . S
H1124 C1121 0.950 . S
C1125 C1116 1.390 . S
C1125 H1118 0.950 . S
C1125 C1122 1.387 . S
C1126 C1127 1.387 . S
C1126 H1130 0.950 . S
C1126 C1135 1.390 . S
C1127 C1126 1.387 . S
C1127 C1129 1.387 . S
H1128 C1135 0.950 . S
C1129 C1127 1.387 . S
C1129 C1131 1.390 . S
C1129 H1133 0.950 . S
H1130 C1126 0.950 . S
C1131 C1129 1.390 . S
C1131 C1132 1.387 . S
C1131 H1134 0.950 . S
C1132 C1131 1.387 . S
C1132 C1135 1.387 . S
H1133 C1129 0.950 . S
H1134 C1131 0.950 . S
C1135 C1126 1.390 . S
C1135 H1128 0.950 . S
C1135 C1132 1.387 . S
C1136 C1137 1.387 . S
C1136 H1140 0.950 . S
C1136 C1145 1.390 . S
C1137 C1136 1.387 . S
C1137 C1139 1.387 . S
H1138 C1145 0.950 . S
C1139 C1137 1.387 . S
C1139 C1141 1.390 . S
C1139 H1143 0.950 . S
H1140 C1136 0.950 . S
C1141 C1139 1.390 . S
C1141 C1142 1.387 . S
C1141 H1144 0.950 . S
C1142 C1141 1.387 . S
C1142 C1145 1.387 . S
H1143 C1139 0.950 . S
H1144 C1141 0.950 . S
C1145 C1136 1.390 . S
C1145 H1138 0.950 . S
C1145 C1142 1.387 . S
C1146 C1147 1.387 . S
C1146 H1150 0.950 . S
C1146 C1155 1.390 . S
C1147 C1146 1.387 . S
C1147 C1149 1.387 . S
H1148 C1155 0.950 . S
C1149 C1147 1.387 . S
C1149 C1151 1.390 . S
C1149 H1153 0.950 . S
H1150 C1146 0.950 . S
C1151 C1149 1.390 . S
C1151 C1152 1.387 . S
C1151 H1154 0.950 . S
C1152 C1151 1.387 . S
C1152 C1155 1.387 . S
H1153 C1149 0.950 . S
H1154 C1151 0.950 . S
C1155 C1146 1.390 . S
C1155 H1148 0.950 . S
C1155 C1152 1.387 . S
C1156 C1157 1.387 . S
C1156 H1160 0.950 . S
C1156 C1165 1.390 . S
C1157 C1156 1.387 . S
C1157 C1159 1.387 . S
H1158 C1165 0.950 . S
C1159 C1157 1.387 . S
C1159 C1161 1.390 . S
C1159 H1163 0.950 . S
H1160 C1156 0.950 . S
C1161 C1159 1.390 . S
C1161 C1162 1.387 . S
C1161 H1164 0.950 . S
C1162 C1161 1.387 . S
C1162 C1165 1.387 . S
H1163 C1159 0.950 . S
H1164 C1161 0.950 . S
C1165 C1156 1.390 . S
C1165 H1158 0.950 . S
C1165 C1162 1.387 . S
C1166 C1167 1.387 . S
C1166 H1170 0.950 . S
C1166 C1175 1.390 . S
C1167 C1166 1.387 . S
C1167 C1169 1.387 . S
H1168 C1175 0.950 . S
C1169 C1167 1.387 . S
C1169 C1171 1.390 . S
C1169 H1173 0.950 . S
H1170 C1166 0.950 . S
C1171 C1169 1.390 . S
C1171 C1172 1.387 . S
C1171 H1174 0.950 . S
C1172 C1171 1.387 . S
C1172 C1175 1.387 . S
H1173 C1169 0.950 . S
H1174 C1171 0.950 . S
C1175 C1166 1.390 . S
C1175 H1168 0.950 . S
C1175 C1172 1.387 . S
C1176 C1177 1.387 . S
C1176 H1180 0.950 . S
C1176 C1185 1.390 . S
C1177 C1176 1.387 . S
C1177 C1179 1.387 . S
H1178 C1185 0.950 . S
C1179 C1177 1.387 . S
C1179 C1181 1.390 . S
C1179 H1183 0.950 . S
H1180 C1176 0.950 . S
C1181 C1179 1.390 . S
C1181 C1182 1.387 . S
C1181 H1184 0.950 . S
C1182 C1181 1.387 . S
C1182 C1185 1.387 . S
H1183 C1179 0.950 . S
H1184 C1181 0.950 . S
C1185 C1176 1.390 . S
C1185 H1178 0.950 . S
C1185 C1182 1.387 . S
C1186 C1187 1.387 . S
C1186 H1190 0.950 . S
C1186 C1195 1.390 . S
C1187 C1186 1.387 . S
C1187 C1189 1.387 . S
H1188 C1195 0.950 . S
C1189 C1187 1.387 . S
C1189 C1191 1.390 . S
C1189 H1193 0.950 . S
H1190 C1186 0.950 . S
C1191 C1189 1.390 . S
C1191 C1192 1.387 . S
C1191 H1194 0.950 . S
C1192 C1191 1.387 . S
C1192 C1195 1.387 . S
H1193 C1189 0.950 . S
H1194 C1191 0.950 . S
C1195 C1186 1.390 . S
C1195 H1188 0.950 . S
C1195 C1192 1.387 . S
C1196 C1197 1.387 . S
C1196 H1200 0.950 . S
C1196 C1205 1.390 . S
C1197 C1196 1.387 . S
C1197 C1199 1.387 . S
H1198 C1205 0.950 . S
C1199 C1197 1.387 . S
C1199 C1201 1.390 . S
C1199 H1203 0.950 . S
H1200 C1196 0.950 . S
C1201 C1199 1.390 . S
C1201 C1202 1.387 . S
C1201 H1204 0.950 . S
C1202 C1201 1.387 . S
C1202 C1205 1.387 . S
H1203 C1199 0.950 . S
H1204 C1201 0.950 . S
C1205 C1196 1.390 . S
C1205 H1198 0.950 . S
C1205 C1202 1.387 . S
C1206 C1207 1.387 . S
C1206 H1210 0.950 . S
C1206 C1215 1.390 . S
C1207 C1206 1.387 . S
C1207 C1209 1.387 . S
H1208 C1215 0.950 . S
C1209 C1207 1.387 . S
C1209 C1211 1.390 . S
C1209 H1213 0.950 . S
H1210 C1206 0.950 . S
C1211 C1209 1.390 . S
C1211 C1212 1.387 . S
C1211 H1214 0.950 . S
C1212 C1211 1.387 . S
C1212 C1215 1.387 . S
H1213 C1209 0.950 . S
H1214 C1211 0.950 . S
C1215 C1206 1.390 . S
C1215 H1208 0.950 . S
C1215 C1212 1.387 . S
C1216 C1217 1.387 . S
C1216 H1220 0.950 . S
C1216 C1225 1.390 . S
C1217 C1216 1.387 . S
C1217 C1219 1.387 . S
H1218 C1225 0.950 . S
C1219 C1217 1.387 . S
C1219 C1221 1.390 . S
C1219 H1223 0.950 . S
H1220 C1216 0.950 . S
C1221 C1219 1.390 . S
C1221 C1222 1.387 . S
C1221 H1224 0.950 . S
C1222 C1221 1.387 . S
C1222 C1225 1.387 . S
H1223 C1219 0.950 . S
H1224 C1221 0.950 . S
C1225 C1216 1.390 . S
C1225 H1218 0.950 . S
C1225 C1222 1.387 . S
C1226 C1227 1.387 . S
C1226 H1230 0.950 . S
C1226 C1235 1.390 . S
C1227 C1226 1.387 . S
C1227 C1229 1.387 . S
H1228 C1235 0.950 . S
C1229 C1227 1.387 . S
C1229 C1231 1.390 . S
C1229 H1233 0.950 . S
H1230 C1226 0.950 . S
C1231 C1229 1.390 . S
C1231 C1232 1.387 . S
C1231 H1234 0.950 . S
C1232 C1231 1.387 . S
C1232 C1235 1.387 . S
H1233 C1229 0.950 . S
H1234 C1231 0.950 . S
C1235 C1226 1.390 . S
C1235 H1228 0.950 . S
C1235 C1232 1.387 . S
C1236 C1237 1.387 . S
C1236 H1240 0.950 . S
C1236 C1245 1.390 . S
C1237 C1236 1.387 . S
C1237 C1239 1.387 . S
H1238 C1245 0.950 . S
C1239 C1237 1.387 . S
C1239 C1241 1.390 . S
C1239 H1243 0.950 . S
H1240 C1236 0.950 . S
C1241 C1239 1.390 . S
C1241 C1242 1.387 . S
C1241 H1244 0.950 . S
C1242 C1241 1.387 . S
C1242 C1245 1.387 . S
H1243 C1239 0.950 . S
H1244 C1241 0.950 . S
C1245 C1236 1.390 . S
C1245 H1238 0.950 . S
C1245 C1242 1.387 . S
C1246 C1247 1.387 . S
C1246 H1250 0.950 . S
C1246 C1255 1.390 . S
C1247 C1246 1.387 . S
C1247 C1249 1.387 . S
H1248 C1255 0.950 . S
C1249 C1247 1.387 . S
C1249 C1251 1.390 . S
C1249 H1253 0.950 . S
H1250 C1246 0.950 . S
C1251 C1249 1.390 . S
C1251 C1252 1.387 . S
C1251 H1254 0.950 . S
C1252 C1251 1.387 . S
C1252 C1255 1.387 . S
H1253 C1249 0.950 . S
H1254 C1251 0.950 . S
C1255 C1246 1.390 . S
C1255 H1248 0.950 . S
C1255 C1252 1.387 . S
C1256 C1257 1.387 . S
C1256 H1260 0.950 . S
C1256 C1265 1.390 . S
C1257 C1256 1.387 . S
C1257 C1259 1.387 . S
H1258 C1265 0.950 . S
C1259 C1257 1.387 . S
C1259 C1261 1.390 . S
C1259 H1263 0.950 . S
H1260 C1256 0.950 . S
C1261 C1259 1.390 . S
C1261 C1262 1.387 . S
C1261 H1264 0.950 . S
C1262 C1261 1.387 . S
C1262 C1265 1.387 . S
H1263 C1259 0.950 . S
H1264 C1261 0.950 . S
C1265 C1256 1.390 . S
C1265 H1258 0.950 . S
C1265 C1262 1.387 . S
C1266 C1267 1.387 . S
C1266 H1270 0.950 . S
C1266 C1275 1.390 . S
C1267 C1266 1.387 . S
C1267 C1269 1.387 . S
H1268 C1275 0.950 . S
C1269 C1267 1.387 . S
C1269 C1271 1.390 . S
C1269 H1273 0.950 . S
H1270 C1266 0.950 . S
C1271 C1269 1.390 . S
C1271 C1272 1.387 . S
C1271 H1274 0.950 . S
C1272 C1271 1.387 . S
C1272 C1275 1.387 . S
H1273 C1269 0.950 . S
H1274 C1271 0.950 . S
C1275 C1266 1.390 . S
C1275 H1268 0.950 . S
C1275 C1272 1.387 . S
C1276 C1277 1.387 . S
C1276 H1280 0.950 . S
C1276 C1285 1.390 . S
C1277 C1276 1.387 . S
C1277 C1279 1.387 . S
H1278 C1285 0.950 . S
C1279 C1277 1.387 . S
C1279 C1281 1.390 . S
C1279 H1283 0.950 . S
H1280 C1276 0.950 . S
C1281 C1279 1.390 . S
C1281 C1282 1.387 . S
C1281 H1284 0.950 . S
C1282 C1281 1.387 . S
C1282 C1285 1.387 . S
H1283 C1279 0.950 . S
H1284 C1281 0.950 . S
C1285 C1276 1.390 . S
C1285 H1278 0.950 . S
C1285 C1282 1.387 . S
C1286 C1287 1.387 . S
C1286 H1290 0.950 . S
C1286 C1295 1.390 . S
C1287 C1286 1.387 . S
C1287 C1289 1.387 . S
H1288 C1295 0.950 . S
C1289 C1287 1.387 . S
C1289 C1291 1.390 . S
C1289 H1293 0.950 . S
H1290 C1286 0.950 . S
C1291 C1289 1.390 . S
C1291 C1292 1.387 . S
C1291 H1294 0.950 . S
C1292 C1291 1.387 . S
C1292 C1295 1.387 . S
H1293 C1289 0.950 . S
H1294 C1291 0.950 . S
C1295 C1286 1.390 . S
C1295 H1288 0.950 . S
C1295 C1292 1.387 . S
C1296 C1297 1.387 . S
C1296 H1300 0.950 . S
C1296 C1305 1.390 1_455 S
C1297 C1296 1.387 . S
C1297 C1299 1.387 . S
H1298 C1305 0.950 . S
C1299 C1297 1.387 . S
C1299 C1301 1.390 1_455 S
C1299 H1303 0.950 . S
H1300 C1296 0.950 . S
C1301 C1299 1.390 1_655 S
C1301 C1302 1.387 . S
C1301 H1304 0.950 . S
C1302 C1301 1.387 . S
C1302 C1305 1.387 . S
H1303 C1299 0.950 . S
H1304 C1301 0.950 . S
C1305 C1296 1.390 1_655 S
C1305 H1298 0.950 . S
C1305 C1302 1.387 . S
C1306 C1307 1.387 . S
C1306 H1310 0.950 . S
C1306 C1315 1.390 1_545 S
C1307 C1306 1.387 . S
C1307 C1309 1.387 . S
H1308 C1315 0.950 . S
C1309 C1307 1.387 . S
C1309 C1311 1.390 1_545 S
C1309 H1313 0.950 . S
H1310 C1306 0.950 . S
C1311 C1309 1.390 1_565 S
C1311 C1312 1.387 . S
C1311 H1314 0.950 . S
C1312 C1311 1.387 . S
C1312 C1315 1.387 . S
H1313 C1309 0.950 . S
H1314 C1311 0.950 . S
C1315 C1306 1.390 1_565 S
C1315 H1308 0.950 . S
C1315 C1312 1.387 . S
C1316 C1317 1.387 . S
C1316 H1320 0.950 . S
C1316 C1325 1.390 1_455 S
C1317 C1316 1.387 . S
C1317 C1319 1.387 . S
H1318 C1325 0.950 . S
C1319 C1317 1.387 . S
C1319 C1321 1.390 1_455 S
C1319 H1323 0.950 . S
H1320 C1316 0.950 . S
C1321 C1319 1.390 1_655 S
C1321 C1322 1.387 . S
C1321 H1324 0.950 . S
C1322 C1321 1.387 . S
C1322 C1325 1.387 . S
H1323 C1319 0.950 . S
H1324 C1321 0.950 . S
C1325 C1316 1.390 1_655 S
C1325 H1318 0.950 . S
C1325 C1322 1.387 . S
C1326 C1327 1.387 . S
C1326 H1330 0.950 . S
C1326 C1335 1.390 1_565 S
C1327 C1326 1.387 . S
C1327 C1329 1.387 . S
H1328 C1335 0.950 . S
C1329 C1327 1.387 . S
C1329 C1331 1.390 1_565 S
C1329 H1333 0.950 . S
H1330 C1326 0.950 . S
C1331 C1329 1.390 1_545 S
C1331 C1332 1.387 . S
C1331 H1334 0.950 . S
C1332 C1331 1.387 . S
C1332 C1335 1.387 . S
H1333 C1329 0.950 . S
H1334 C1331 0.950 . S
C1335 C1326 1.390 1_545 S
C1335 H1328 0.950 . S
C1335 C1332 1.387 . S
C1336 C1337 1.387 . S
C1336 H1340 0.950 . S
C1336 C1345 1.390 1_565 S
C1337 C1336 1.387 . S
C1337 C1339 1.387 . S
H1338 C1345 0.950 . S
C1339 C1337 1.387 . S
C1339 C1341 1.390 1_565 S
C1339 H1343 0.950 . S
H1340 C1336 0.950 . S
C1341 C1339 1.390 1_545 S
C1341 C1342 1.387 . S
C1341 H1344 0.950 . S
C1342 C1341 1.387 . S
C1342 C1345 1.387 . S
H1343 C1339 0.950 . S
H1344 C1341 0.950 . S
C1345 C1336 1.390 1_545 S
C1345 H1338 0.950 . S
C1345 C1342 1.387 . S
C1346 C1347 1.387 . S
C1346 H1350 0.950 . S
C1346 C1355 1.390 1_455 S
C1347 C1346 1.387 . S
C1347 C1349 1.387 . S
H1348 C1355 0.950 . S
C1349 C1347 1.387 . S
C1349 C1351 1.390 1_455 S
C1349 H1353 0.950 . S
H1350 C1346 0.950 . S
C1351 C1349 1.390 1_655 S
C1351 C1352 1.387 . S
C1351 H1354 0.950 . S
C1352 C1351 1.387 . S
C1352 C1355 1.387 . S
H1353 C1349 0.950 . S
H1354 C1351 0.950 . S
C1355 C1346 1.390 1_655 S
C1355 H1348 0.950 . S
C1355 C1352 1.387 . S
C1356 C1357 1.387 . S
C1356 H1360 0.950 . S
C1356 C1365 1.390 1_545 S
C1357 C1356 1.387 . S
C1357 C1359 1.387 . S
H1358 C1365 0.950 . S
C1359 C1357 1.387 . S
C1359 C1361 1.390 1_545 S
C1359 H1363 0.950 . S
H1360 C1356 0.950 . S
C1361 C1359 1.390 1_565 S
C1361 C1362 1.387 . S
C1361 H1364 0.950 . S
C1362 C1361 1.387 . S
C1362 C1365 1.387 . S
H1363 C1359 0.950 . S
H1364 C1361 0.950 . S
C1365 C1356 1.390 1_565 S
C1365 H1358 0.950 . S
C1365 C1362 1.387 . S
C1366 C1367 1.387 . S
C1366 H1370 0.950 . S
C1366 C1375 1.390 1_655 S
C1367 C1366 1.387 . S
C1367 C1369 1.387 . S
H1368 C1375 0.950 . S
C1369 C1367 1.387 . S
C1369 C1371 1.390 1_655 S
C1369 H1373 0.950 . S
H1370 C1366 0.950 . S
C1371 C1369 1.390 1_455 S
C1371 C1372 1.387 . S
C1371 H1374 0.950 . S
C1372 C1371 1.387 . S
C1372 C1375 1.387 . S
H1373 C1369 0.950 . S
H1374 C1371 0.950 . S
C1375 C1366 1.390 1_455 S
C1375 H1368 0.950 . S
C1375 C1372 1.387 . S
C1376 C1377 1.387 . S
C1376 H1380 0.950 . S
C1376 C1385 1.390 1_556 S
C1377 C1376 1.387 . S
C1377 C1379 1.387 . S
H1378 C1385 0.950 . S
C1379 C1377 1.387 . S
C1379 C1381 1.390 1_556 S
C1379 H1383 0.950 . S
H1380 C1376 0.950 . S
C1381 C1379 1.390 1_554 S
C1381 C1382 1.387 . S
C1381 H1384 0.950 . S
C1382 C1381 1.387 . S
C1382 C1385 1.387 . S
H1383 C1379 0.950 . S
H1384 C1381 0.950 . S
C1385 C1376 1.390 1_554 S
C1385 H1378 0.950 . S
C1385 C1382 1.387 . S
C1386 C1387 1.387 . S
C1386 H1390 0.950 . S
C1386 C1395 1.390 1_554 S
C1387 C1386 1.387 . S
C1387 C1389 1.387 . S
H1388 C1395 0.950 . S
C1389 C1387 1.387 . S
C1389 C1391 1.390 1_554 S
C1389 H1393 0.950 . S
H1390 C1386 0.950 . S
C1391 C1389 1.390 1_556 S
C1391 C1392 1.387 . S
C1391 H1394 0.950 . S
C1392 C1391 1.387 . S
C1392 C1395 1.387 . S
H1393 C1389 0.950 . S
H1394 C1391 0.950 . S
C1395 C1386 1.390 1_556 S
C1395 H1388 0.950 . S
C1395 C1392 1.387 . S
C1396 C1397 1.387 . S
C1396 H1400 0.950 . S
C1396 C1405 1.390 1_556 S
C1397 C1396 1.387 . S
C1397 C1399 1.387 . S
H1398 C1405 0.950 . S
C1399 C1397 1.387 . S
C1399 C1401 1.390 1_556 S
C1399 H1403 0.950 . S
H1400 C1396 0.950 . S
C1401 C1399 1.390 1_554 S
C1401 C1402 1.387 . S
C1401 H1404 0.950 . S
C1402 C1401 1.387 . S
C1402 C1405 1.387 . S
H1403 C1399 0.950 . S
H1404 C1401 0.950 . S
C1405 C1396 1.390 1_554 S
C1405 H1398 0.950 . S
C1405 C1402 1.387 . S
C1406 C1407 1.387 . S
C1406 H1410 0.950 . S
C1406 C1415 1.390 1_554 S
C1407 C1406 1.387 . S
C1407 C1409 1.387 . S
H1408 C1415 0.950 . S
C1409 C1407 1.387 . S
C1409 C1411 1.390 1_554 S
C1409 H1413 0.950 . S
H1410 C1406 0.950 . S
C1411 C1409 1.390 1_556 S
C1411 C1412 1.387 . S
C1411 H1414 0.950 . S
C1412 C1411 1.387 . S
C1412 C1415 1.387 . S
H1413 C1409 0.950 . S
H1414 C1411 0.950 . S
C1415 C1406 1.390 1_556 S
C1415 H1408 0.950 . S
C1415 C1412 1.387 . S
C817 C326 1.863 . S
C822 C20 1.862 . S
C827 C360 1.863 . S
C832 C54 1.863 . S
C837 C394 1.861 . S
C842 C88 1.864 . S
C847 C122 1.861 . S
C852 C292 1.863 . S
C857 C530 1.863 . S
C862 C156 1.863 . S
C867 C190 1.863 . S
C872 C428 1.863 . S
C877 C224 1.861 . S
C882 C462 1.862 . S
C887 C258 1.861 . S
C892 C496 1.863 . S
C897 C564 1.861 . S
C902 C632 1.863 . S
C907 C768 1.862 . S
C912 C598 1.864 . S
C917 C666 1.863 . S
C922 C802 1.863 . S
C927 C734 1.862 . S
C932 C700 1.864 . S
C937 C781 2.038 . S
C942 C33 2.038 . S
C947 C577 2.034 . S
C952 C67 2.034 . S
C957 C815 2.038 . S
C962 C101 2.037 . S
C967 C135 2.038 . S
C972 C747 2.038 . S
C977 C645 2.034 . S
C982 C169 2.035 . S
C987 C679 2.034 . S
C992 C203 2.034 . S
C997 C713 2.035 . S
C1002 C237 2.036 . S
C1007 C611 2.038 . S
C1012 C271 2.038 . S
C1017 C305 2.035 . S
C1022 C475 2.035 . S
C1027 C509 2.037 . S
C1032 C339 2.036 . S
C1037 C543 2.036 . S
C1042 C373 2.037 . S
C1047 C441 2.038 . S
C1052 C407 2.038 . S
C1057 C444 2.095 . S
C1062 C9 2.042 . S
C1067 C43 2.042 . S
C1072 C478 2.093 . S
C1077 C512 2.094 . S
C1082 C77 2.044 . S
C1087 C410 2.094 . S
C1092 C111 2.042 . S
C1097 C376 2.094 . S
C1102 C145 2.044 . S
C1107 C179 2.044 . S
C1112 C274 2.094 . S
C1117 C308 2.094 . S
C1122 C213 2.044 . S
C1127 C342 2.094 . S
C1132 C247 2.042 . S
C1137 C281 2.042 . S
C1142 C36 2.094 . S
C1147 C70 2.094 . S
C1152 C315 2.044 . S
C1157 C349 2.044 . S
C1162 C104 2.094 . S
C1167 C2 2.094 . S
C1172 C383 2.044 . S
C1177 C417 2.044 . S
C1182 C240 2.094 . S
C1187 C138 2.094 . S
C1192 C451 2.044 . S
C1197 C172 2.094 . S
C1202 C485 2.044 . S
C1207 C519 2.042 . S
C1212 C206 2.094 . S
C1217 C553 2.042 . S
C1222 C750 2.095 . S
C1227 C587 2.042 . S
C1232 C614 2.094 . S
C1237 C621 2.042 . S
C1242 C648 2.094 . S
C1247 C682 2.095 . S
C1252 C655 2.044 . S
C1257 C580 2.095 . S
C1262 C689 2.042 . S
C1267 C784 2.095 . S
C1272 C723 2.044 . S
C1277 C757 2.042 . S
C1282 C716 2.094 . S
C1287 C546 2.094 . S
C1292 C791 2.042 . S
C1297 C5 1.041 . S
C1302 C73 1.041 . S
C1307 C39 1.042 . S
C1312 C107 1.042 . S
C1317 C141 1.041 . S
C1322 C209 1.041 . S
C1327 C243 1.042 . S
C1332 C175 1.042 . S
C1337 C413 1.042 . S
C1342 C277 1.042 . S
C1347 C447 1.042 . S
C1352 C311 1.042 . S
C1357 C481 1.041 . S
C1362 C345 1.041 . S
C1367 C515 1.042 . S
C1372 C379 1.042 . S
C1377 C651 1.041 . S
C1382 C549 1.041 . S
C1387 C719 1.041 . S
C1392 C583 1.041 . S
C1397 C617 1.042 . S
C1402 C753 1.042 . S
C1407 C787 1.042 . S
C1412 C685 1.042 . S
