# Generated by pormake.
# Topology umv, (4)-cn, num edge types: 1
# Building blocks:
#     Node 0, Type 0, BuildingBlock: QUQFOY_clean_sbu_3, # of connection points: 4
#     Node 1, Type 0, BuildingBlock: QUQFOY_clean_sbu_3, # of connection points: 4
#     Node 2, Type 0, BuildingBlock: QUQFOY_clean_sbu_3, # of connection points: 4
#     Node 3, Type 0, BuildingBlock: QUQFOY_clean_sbu_3, # of connection points: 4
#     Node 4, Type 0, BuildingBlock: QUQFOY_clean_sbu_3, # of connection points: 4
#     Node 5, Type 0, BuildingBlock: QUQFOY_clean_sbu_3, # of connection points: 4
#     Node 6, Type 0, BuildingBlock: QUQFOY_clean_sbu_3, # of connection points: 4
#     Node 7, Type 0, BuildingBlock: QUQFOY_clean_sbu_3, # of connection points: 4
#     Node 8, Type 0, BuildingBlock: QUQFOY_clean_sbu_3, # of connection points: 4
#     Node 9, Type 0, BuildingBlock: QUQFOY_clean_sbu_3, # of connection points: 4
#     Node 10, Type 0, BuildingBlock: QUQFOY_clean_sbu_3, # of connection points: 4
#     Node 11, Type 0, BuildingBlock: QUQFOY_clean_sbu_3, # of connection points: 4
#     Node 12, Type 0, BuildingBlock: QUQFOY_clean_sbu_3, # of connection points: 4
#     Node 13, Type 0, BuildingBlock: QUQFOY_clean_sbu_3, # of connection points: 4
#     Node 14, Type 0, BuildingBlock: QUQFOY_clean_sbu_3, # of connection points: 4
#     Node 15, Type 0, BuildingBlock: QUQFOY_clean_sbu_3, # of connection points: 4
#     Node 16, Type 0, BuildingBlock: QUQFOY_clean_sbu_3, # of connection points: 4
#     Node 17, Type 0, BuildingBlock: QUQFOY_clean_sbu_3, # of connection points: 4
#     Node 18, Type 0, BuildingBlock: QUQFOY_clean_sbu_3, # of connection points: 4
#     Node 19, Type 0, BuildingBlock: QUQFOY_clean_sbu_3, # of connection points: 4
#     Node 20, Type 0, BuildingBlock: QUQFOY_clean_sbu_3, # of connection points: 4
#     Node 21, Type 0, BuildingBlock: QUQFOY_clean_sbu_3, # of connection points: 4
#     Node 22, Type 0, BuildingBlock: QUQFOY_clean_sbu_3, # of connection points: 4
#     Node 23, Type 0, BuildingBlock: QUQFOY_clean_sbu_3, # of connection points: 4
#     Node 24, Type 0, BuildingBlock: QUQFOY_clean_sbu_3, # of connection points: 4
#     Node 25, Type 0, BuildingBlock: QUQFOY_clean_sbu_3, # of connection points: 4
#     Node 26, Type 0, BuildingBlock: QUQFOY_clean_sbu_3, # of connection points: 4
#     Node 27, Type 0, BuildingBlock: QUQFOY_clean_sbu_3, # of connection points: 4
#     Node 28, Type 0, BuildingBlock: QUQFOY_clean_sbu_3, # of connection points: 4
#     Node 29, Type 0, BuildingBlock: QUQFOY_clean_sbu_3, # of connection points: 4
#     Node 30, Type 0, BuildingBlock: QUQFOY_clean_sbu_3, # of connection points: 4
#     Node 31, Type 0, BuildingBlock: QUQFOY_clean_sbu_3, # of connection points: 4
#     Edge 32, Type (0, 0), BuildingBlock: KIFKEQ_clean_linker_1, # of connection points: 2
#     Edge 33, Type (0, 0), BuildingBlock: KIFKEQ_clean_linker_1, # of connection points: 2
#     Edge 34, Type (0, 0), BuildingBlock: KIFKEQ_clean_linker_1, # of connection points: 2
#     Edge 35, Type (0, 0), BuildingBlock: KIFKEQ_clean_linker_1, # of connection points: 2
#     Edge 36, Type (0, 0), BuildingBlock: KIFKEQ_clean_linker_1, # of connection points: 2
#     Edge 37, Type (0, 0), BuildingBlock: KIFKEQ_clean_linker_1, # of connection points: 2
#     Edge 38, Type (0, 0), BuildingBlock: KIFKEQ_clean_linker_1, # of connection points: 2
#     Edge 39, Type (0, 0), BuildingBlock: KIFKEQ_clean_linker_1, # of connection points: 2
#     Edge 40, Type (0, 0), BuildingBlock: KIFKEQ_clean_linker_1, # of connection points: 2
#     Edge 41, Type (0, 0), BuildingBlock: KIFKEQ_clean_linker_1, # of connection points: 2
#     Edge 42, Type (0, 0), BuildingBlock: KIFKEQ_clean_linker_1, # of connection points: 2
#     Edge 43, Type (0, 0), BuildingBlock: KIFKEQ_clean_linker_1, # of connection points: 2
#     Edge 44, Type (0, 0), BuildingBlock: KIFKEQ_clean_linker_1, # of connection points: 2
#     Edge 45, Type (0, 0), BuildingBlock: KIFKEQ_clean_linker_1, # of connection points: 2
#     Edge 46, Type (0, 0), BuildingBlock: KIFKEQ_clean_linker_1, # of connection points: 2
#     Edge 47, Type (0, 0), BuildingBlock: KIFKEQ_clean_linker_1, # of connection points: 2
#     Edge 48, Type (0, 0), BuildingBlock: KIFKEQ_clean_linker_1, # of connection points: 2
#     Edge 49, Type (0, 0), BuildingBlock: KIFKEQ_clean_linker_1, # of connection points: 2
#     Edge 50, Type (0, 0), BuildingBlock: KIFKEQ_clean_linker_1, # of connection points: 2
#     Edge 51, Type (0, 0), BuildingBlock: KIFKEQ_clean_linker_1, # of connection points: 2
#     Edge 52, Type (0, 0), BuildingBlock: KIFKEQ_clean_linker_1, # of connection points: 2
#     Edge 53, Type (0, 0), BuildingBlock: KIFKEQ_clean_linker_1, # of connection points: 2
#     Edge 54, Type (0, 0), BuildingBlock: KIFKEQ_clean_linker_1, # of connection points: 2
#     Edge 55, Type (0, 0), BuildingBlock: KIFKEQ_clean_linker_1, # of connection points: 2
#     Edge 56, Type (0, 0), BuildingBlock: KIFKEQ_clean_linker_1, # of connection points: 2
#     Edge 57, Type (0, 0), BuildingBlock: KIFKEQ_clean_linker_1, # of connection points: 2
#     Edge 58, Type (0, 0), BuildingBlock: KIFKEQ_clean_linker_1, # of connection points: 2
#     Edge 59, Type (0, 0), BuildingBlock: KIFKEQ_clean_linker_1, # of connection points: 2
#     Edge 60, Type (0, 0), BuildingBlock: KIFKEQ_clean_linker_1, # of connection points: 2
#     Edge 61, Type (0, 0), BuildingBlock: KIFKEQ_clean_linker_1, # of connection points: 2
#     Edge 62, Type (0, 0), BuildingBlock: KIFKEQ_clean_linker_1, # of connection points: 2
#     Edge 63, Type (0, 0), BuildingBlock: KIFKEQ_clean_linker_1, # of connection points: 2
#     Edge 64, Type (0, 0), BuildingBlock: KIFKEQ_clean_linker_1, # of connection points: 2
#     Edge 65, Type (0, 0), BuildingBlock: KIFKEQ_clean_linker_1, # of connection points: 2
#     Edge 66, Type (0, 0), BuildingBlock: KIFKEQ_clean_linker_1, # of connection points: 2
#     Edge 67, Type (0, 0), BuildingBlock: KIFKEQ_clean_linker_1, # of connection points: 2
#     Edge 68, Type (0, 0), BuildingBlock: KIFKEQ_clean_linker_1, # of connection points: 2
#     Edge 69, Type (0, 0), BuildingBlock: KIFKEQ_clean_linker_1, # of connection points: 2
#     Edge 70, Type (0, 0), BuildingBlock: KIFKEQ_clean_linker_1, # of connection points: 2
#     Edge 71, Type (0, 0), BuildingBlock: KIFKEQ_clean_linker_1, # of connection points: 2
#     Edge 72, Type (0, 0), BuildingBlock: KIFKEQ_clean_linker_1, # of connection points: 2
#     Edge 73, Type (0, 0), BuildingBlock: KIFKEQ_clean_linker_1, # of connection points: 2
#     Edge 74, Type (0, 0), BuildingBlock: KIFKEQ_clean_linker_1, # of connection points: 2
#     Edge 75, Type (0, 0), BuildingBlock: KIFKEQ_clean_linker_1, # of connection points: 2
#     Edge 76, Type (0, 0), BuildingBlock: KIFKEQ_clean_linker_1, # of connection points: 2
#     Edge 77, Type (0, 0), BuildingBlock: KIFKEQ_clean_linker_1, # of connection points: 2
#     Edge 78, Type (0, 0), BuildingBlock: KIFKEQ_clean_linker_1, # of connection points: 2
#     Edge 79, Type (0, 0), BuildingBlock: KIFKEQ_clean_linker_1, # of connection points: 2
#     Edge 80, Type (0, 0), BuildingBlock: KIFKEQ_clean_linker_1, # of connection points: 2
#     Edge 81, Type (0, 0), BuildingBlock: KIFKEQ_clean_linker_1, # of connection points: 2
#     Edge 82, Type (0, 0), BuildingBlock: KIFKEQ_clean_linker_1, # of connection points: 2
#     Edge 83, Type (0, 0), BuildingBlock: KIFKEQ_clean_linker_1, # of connection points: 2
#     Edge 84, Type (0, 0), BuildingBlock: KIFKEQ_clean_linker_1, # of connection points: 2
#     Edge 85, Type (0, 0), BuildingBlock: KIFKEQ_clean_linker_1, # of connection points: 2
#     Edge 86, Type (0, 0), BuildingBlock: KIFKEQ_clean_linker_1, # of connection points: 2
#     Edge 87, Type (0, 0), BuildingBlock: KIFKEQ_clean_linker_1, # of connection points: 2
#     Edge 88, Type (0, 0), BuildingBlock: KIFKEQ_clean_linker_1, # of connection points: 2
#     Edge 89, Type (0, 0), BuildingBlock: KIFKEQ_clean_linker_1, # of connection points: 2
#     Edge 90, Type (0, 0), BuildingBlock: KIFKEQ_clean_linker_1, # of connection points: 2
#     Edge 91, Type (0, 0), BuildingBlock: KIFKEQ_clean_linker_1, # of connection points: 2
#     Edge 92, Type (0, 0), BuildingBlock: KIFKEQ_clean_linker_1, # of connection points: 2
#     Edge 93, Type (0, 0), BuildingBlock: KIFKEQ_clean_linker_1, # of connection points: 2
#     Edge 94, Type (0, 0), BuildingBlock: KIFKEQ_clean_linker_1, # of connection points: 2
#     Edge 95, Type (0, 0), BuildingBlock: KIFKEQ_clean_linker_1, # of connection points: 2
# Relax obj value: 0.123
# Max RMSD: 0.107
# Mean RMSD: 0.107
data_MOF--net-umv--node1-QUQFOY_clean_sbu_3--edge1-KIFKEQ_clean_linker_1
_symmetry_space_group_name_H-M    P1
_symmetry_Int_Tables_number       1
_symmetry_cell_setting            triclinic
loop_
_symmetry_equiv_pos_as_xyz
'x, y, z'
_cell_length_a     109.59815
_cell_length_b     26.829082
_cell_length_c     63.300542
_cell_angle_alpha  89.984131
_cell_angle_beta   89.974551
_cell_angle_gamma 90.012141
loop_
_atom_site_label
_atom_site_type_symbol
_atom_site_fract_x
_atom_site_fract_y
_atom_site_fract_z
_atom_type_partial_charge
C0 C 0.04765 0.06593 0.36296 0.0
O1 O 0.05067 0.10206 0.37481 0.0
Cd2 Cd 0.04924 0.18853 0.36704 0.0
O3 O 0.04314 0.07378 0.34463 0.0
Cd4 Cd 0.03808 0.15014 0.32357 0.0
C5 C 0.06726 0.1894 0.32239 0.0
O6 O 0.0297 0.19892 0.35223 0.0
O7 O 0.03495 0.24018 0.3246 0.0
O8 O 0.01822 0.12031 0.31257 0.0
C9 C 0.02951 0.23974 0.34226 0.0
O10 O 0.0651 0.20509 0.34102 0.0
C11 C 0.01916 0.13578 0.29368 0.0
O12 O 0.05943 0.16316 0.31245 0.0
O13 O 0.02966 0.15049 0.28782 0.0
C14 C 0.19235 0.16675 0.36364 0.0
O15 O 0.18455 0.14841 0.37624 0.0
Cd16 Cd 0.17032 0.0882 0.36491 0.0
O17 O 0.19251 0.15396 0.34422 0.0
Cd18 Cd 0.18173 0.09457 0.32018 0.0
C19 C 0.15448 0.14805 0.32485 0.0
O20 O 0.18282 0.0302 0.34639 0.0
O21 O 0.17122 0.01364 0.31974 0.0
O22 O 0.20246 0.08889 0.30678 0.0
C23 C 0.17716 -0.00187 0.33556 0.0
O24 O 0.15518 0.13077 0.34353 0.0
C25 C 0.1996 0.07144 0.28887 0.0
O26 O 0.16327 0.14268 0.31188 0.0
O27 O 0.1883 0.06987 0.2845 0.0
C28 C 0.04779 0.16842 0.88039 0.0
O29 O 0.05332 0.13572 0.86956 0.0
Cd30 Cd 0.05974 0.05722 0.88253 0.0
O31 O 0.04509 0.16027 0.89972 0.0
Cd32 Cd 0.04711 0.08721 0.92406 0.0
C33 C 0.07725 0.08963 0.92596 0.0
O34 O 0.04231 0.02325 0.89893 0.0
O35 O 0.05295 -0.00138 0.92556 0.0
O36 O 0.0258 0.09282 0.93322 0.0
C37 C 0.04618 -0.01247 0.91005 0.0
O38 O 0.07621 0.06849 0.90803 0.0
C39 C 0.02715 0.08084 0.95245 0.0
O40 O 0.06794 0.10704 0.93551 0.0
O41 O 0.03803 0.07974 0.9594 0.0
C42 C 0.1907 0.04701 0.88301 0.0
O43 O 0.18617 0.08183 0.87195 0.0
Cd44 Cd 0.18172 0.16416 0.88297 0.0
O45 O 0.19402 0.05461 0.9021 0.0
Cd46 Cd 0.19515 0.12911 0.92592 0.0
C47 C 0.16474 0.1379 0.92817 0.0
O48 O 0.19959 0.19066 0.8996 0.0
O49 O 0.1918 0.21954 0.92815 0.0
O50 O 0.21649 0.11626 0.9337 0.0
C51 C 0.19656 0.22838 0.9103 0.0
O52 O 0.16585 0.15727 0.90987 0.0
C53 C 0.21565 0.12647 0.95322 0.0
O54 O 0.17389 0.1189 0.93771 0.0
O55 O 0.20493 0.13082 0.96072 0.0
C56 C 0.92433 0.94739 0.65492 0.0
O57 O 0.91829 0.92055 0.64214 0.0
Cd58 Cd 0.91273 0.83648 0.64844 0.0
O59 O 0.92748 0.93086 0.67303 0.0
Cd60 Cd 0.92582 0.84955 0.69201 0.0
C61 C 0.89546 0.84143 0.69386 0.0
O62 O 0.93163 0.80571 0.66045 0.0
O63 O 0.92559 0.75852 0.68588 0.0
O64 O 0.94642 0.868 0.70319 0.0
C65 C 0.93097 0.76258 0.66825 0.0
O66 O 0.89654 0.82972 0.67448 0.0
C67 C 0.94586 0.84455 0.72055 0.0
O68 O 0.90461 0.85647 0.70449 0.0
O69 O 0.93539 0.82913 0.72616 0.0
C70 C 0.78432 0.77222 0.6423 0.0
O71 O 0.78904 0.80714 0.63149 0.0
Cd72 Cd 0.79279 0.89098 0.64189 0.0
O73 O 0.78016 0.78037 0.66086 0.0
Cd74 Cd 0.77783 0.85513 0.68425 0.0
C75 C 0.80826 0.86602 0.68874 0.0
O76 O 0.77487 0.91887 0.6579 0.0
O77 O 0.78094 0.94484 0.68816 0.0
O78 O 0.75628 0.84545 0.69208 0.0
C79 C 0.77768 0.95548 0.66951 0.0
O80 O 0.80777 0.88527 0.67034 0.0
C81 C 0.75746 0.85062 0.71192 0.0
O82 O 0.79887 0.84665 0.6974 0.0
O83 O 0.76829 0.8514 0.71909 0.0
C84 C 0.94725 0.76876 0.10107 0.0
O85 O 0.94338 0.80366 0.11284 0.0
Cd86 Cd 0.94132 0.88946 0.10509 0.0
O87 O 0.95064 0.7774 0.08208 0.0
Cd88 Cd 0.95166 0.85567 0.06049 0.0
C89 C 0.92159 0.87953 0.06317 0.0
O90 O 0.95983 0.90809 0.08803 0.0
O91 O 0.95166 0.94689 0.06206 0.0
O92 O 0.97121 0.84113 0.04316 0.0
C93 C 0.95801 0.94903 0.07874 0.0
O94 O 0.9239 0.89784 0.0813 0.0
C95 C 0.96752 0.85662 0.02529 0.0
O96 O 0.92977 0.85655 0.05271 0.0
O97 O 0.95611 0.86287 0.0232 0.0
C98 C 0.80173 0.00284 0.07739 0.0
O99 O 0.80937 -0.00795 0.0917 0.0
Cd100 Cd 0.81511 0.91015 0.10171 0.0
O101 O 0.79734 0.9692 0.06539 0.0
Cd102 Cd 0.80286 0.87911 0.06223 0.0
C103 C 0.83317 0.88474 0.06054 0.0
O104 O 0.79787 0.85675 0.09871 0.0
O105 O 0.80926 0.80479 0.08192 0.0
O106 O 0.78274 0.85941 0.0476 0.0
C107 C 0.80245 0.81364 0.09765 0.0
O108 O 0.83223 0.8836 0.08053 0.0
C109 C 0.78666 0.83064 0.03321 0.0
O110 O 0.82384 0.89138 0.04893 0.0
O111 O 0.79815 0.82734 0.0313 0.0
C112 C 0.04801 0.50789 0.81597 0.0
O113 O 0.05606 0.53521 0.82451 0.0
Cd114 Cd 0.05795 0.62176 0.82038 0.0
O115 O 0.04074 0.52604 0.80219 0.0
Cd116 Cd 0.04009 0.61355 0.78793 0.0
C117 C 0.06803 0.62586 0.77013 0.0
O118 O 0.03735 0.65024 0.8223 0.0
O119 O 0.04775 0.69529 0.80077 0.0
O120 O 0.01803 0.61348 0.78022 0.0
C121 C 0.0422 0.69176 0.81828 0.0
O122 O 0.06963 0.64149 0.78887 0.0
C123 C 0.01896 0.64505 0.76535 0.0
O124 O 0.05813 0.60416 0.76509 0.0
O125 O 0.02967 0.6565 0.75956 0.0
C126 C 0.17119 0.71395 0.82163 0.0
O127 O 0.16187 0.6939 0.82999 0.0
Cd128 Cd 0.15591 0.60945 0.82617 0.0
O129 O 0.17775 0.68974 0.8085 0.0
Cd130 Cd 0.17662 0.60346 0.79402 0.0
C131 C 0.14852 0.60133 0.77409 0.0
O132 O 0.17459 0.56634 0.8288 0.0
O133 O 0.1715 0.51655 0.80266 0.0
O134 O 0.19879 0.59735 0.79414 0.0
C135 C 0.17366 0.52216 0.82218 0.0
O136 O 0.14547 0.59424 0.79322 0.0
C137 C 0.19962 0.5772 0.77608 0.0
O138 O 0.15941 0.61316 0.76924 0.0
O139 O 0.18987 0.57439 0.76533 0.0
C140 C 0.06399 0.71411 0.41091 0.0
O141 O 0.06715 0.68403 0.39643 0.0
Cd142 Cd 0.06635 0.59569 0.39813 0.0
O143 O 0.06099 0.69793 0.42918 0.0
Cd144 Cd 0.0606 0.61172 0.44422 0.0
C145 C 0.08884 0.57212 0.43314 0.0
O146 O 0.04787 0.57776 0.41605 0.0
O147 O 0.05649 0.52411 0.43635 0.0
O148 O 0.0435 0.62911 0.46775 0.0
C149 C 0.04832 0.53351 0.42278 0.0
O150 O 0.08436 0.56191 0.41513 0.0
C151 C 0.0476 0.60275 0.48283 0.0
O152 O 0.08278 0.59745 0.44652 0.0
O153 O 0.05858 0.58819 0.4812 0.0
C154 C 0.21565 0.48747 0.39231 0.0
O155 O 0.21057 0.50244 0.37549 0.0
Cd156 Cd 0.19557 0.5651 0.37382 0.0
O157 O 0.21405 0.51073 0.40966 0.0
Cd158 Cd 0.20456 0.59238 0.41921 0.0
C159 C 0.17729 0.54022 0.41798 0.0
O160 O 0.20468 0.63857 0.38596 0.0
O161 O 0.19068 0.65764 0.40854 0.0
O162 O 0.22416 0.62394 0.43085 0.0
C163 C 0.1961 0.66744 0.39137 0.0
O164 O 0.17905 0.54307 0.39809 0.0
C165 C 0.22025 0.64382 0.44773 0.0
O166 O 0.18564 0.55288 0.43094 0.0
O167 O 0.20909 0.63672 0.4523 0.0
C168 C 0.92956 0.42624 0.15647 0.0
O169 O 0.92353 0.39906 0.14381 0.0
Cd170 Cd 0.92018 0.31243 0.14701 0.0
O171 O 0.93363 0.4085 0.17385 0.0
Cd172 Cd 0.93197 0.32433 0.19078 0.0
C173 C 0.90133 0.31286 0.18942 0.0
O174 O 0.93956 0.28594 0.15907 0.0
O175 O 0.93256 0.23463 0.18214 0.0
O176 O 0.95167 0.33762 0.2082 0.0
C177 C 0.93893 0.24177 0.16571 0.0
O178 O 0.90296 0.2992 0.1704 0.0
C179 C 0.94906 0.31106 0.22419 0.0
O180 O 0.91019 0.32959 0.20034 0.0
O181 O 0.93805 0.29697 0.2259 0.0
C182 C 0.78798 0.33709 0.13111 0.0
O183 O 0.79402 0.37332 0.12359 0.0
Cd184 Cd 0.79993 0.44578 0.14261 0.0
O185 O 0.78416 0.33823 0.15017 0.0
Cd186 Cd 0.78495 0.40035 0.17969 0.0
C187 C 0.8151 0.39047 0.18442 0.0
O188 O 0.78236 0.47647 0.15983 0.0
O189 O 0.7913 0.48482 0.18989 0.0
O190 O 0.76323 0.39284 0.18574 0.0
C191 C 0.78614 0.50527 0.17422 0.0
O192 O 0.81514 0.41969 0.16855 0.0
C193 C 0.7639 0.39276 0.20574 0.0
O194 O 0.80518 0.37169 0.19131 0.0
O195 O 0.77453 0.38987 0.2137 0.0
C196 C 0.95462 0.27847 0.60462 0.0
O197 O 0.94984 0.31014 0.61699 0.0
Cd198 Cd 0.94594 0.39516 0.60946 0.0
O199 O 0.95897 0.29133 0.58672 0.0
Cd200 Cd 0.96221 0.37296 0.56844 0.0
C201 C 0.93221 0.38133 0.56021 0.0
O202 O 0.9646 0.42787 0.59839 0.0
O203 O 0.95837 0.46241 0.56975 0.0
O204 O 0.98412 0.36622 0.56363 0.0
C205 C 0.96204 0.46757 0.58861 0.0
O206 O 0.93193 0.3956 0.57942 0.0
C207 C 0.984 0.3806 0.54452 0.0
O208 O 0.94205 0.3656 0.55177 0.0
O209 O 0.97361 0.38393 0.53567 0.0
C210 C 0.81573 0.44124 0.59576 0.0
O211 O 0.82384 0.42408 0.60809 0.0
Cd212 Cd 0.83117 0.34079 0.60745 0.0
O213 O 0.81173 0.41487 0.58049 0.0
Cd214 Cd 0.81663 0.32898 0.56777 0.0
C215 C 0.84681 0.33629 0.56146 0.0
O216 O 0.81318 0.2931 0.60263 0.0
O217 O 0.82077 0.24315 0.57952 0.0
O218 O 0.79555 0.32581 0.55509 0.0
C219 C 0.81537 0.24885 0.59704 0.0
O220 O 0.84697 0.32829 0.58124 0.0
C221 C 0.79784 0.29796 0.53939 0.0
O222 O 0.83683 0.34547 0.55197 0.0
O223 O 0.809 0.28916 0.5356 0.0
C224 C 0.5413 0.01264 0.84264 0.0
O225 O 0.54563 0.04852 0.85333 0.0
Cd226 Cd 0.547 0.13336 0.84345 0.0
O227 O 0.53672 0.01995 0.82433 0.0
Cd228 Cd 0.53339 0.09569 0.80195 0.0
C229 C 0.5633 0.11801 0.79721 0.0
O230 O 0.52765 0.15197 0.82982 0.0
O231 O 0.53414 0.18726 0.80161 0.0
O232 O 0.51237 0.07723 0.79299 0.0
C233 C 0.52923 0.19188 0.81963 0.0
O234 O 0.56226 0.13739 0.81549 0.0
C235 C 0.51341 0.0897 0.77372 0.0
O236 O 0.55447 0.0945 0.7887 0.0
O237 O 0.52418 0.09705 0.76691 0.0
C238 C 0.68056 0.24023 0.82694 0.0
O239 O 0.6717 0.23072 0.83918 0.0
Cd240 Cd 0.6662 0.14811 0.84892 0.0
O241 O 0.68583 0.20527 0.81683 0.0
Cd242 Cd 0.67974 0.11565 0.81401 0.0
C243 C 0.64985 0.11796 0.80723 0.0
O244 O 0.68391 0.09652 0.85116 0.0
O245 O 0.67282 0.04303 0.83471 0.0
O246 O 0.7001 0.09411 0.80047 0.0
C247 C 0.67955 0.05301 0.85042 0.0
O248 O 0.64994 0.1154 0.82724 0.0
C249 C 0.69628 0.06292 0.78694 0.0
O250 O 0.6596 0.12791 0.79719 0.0
O251 O 0.6848 0.05922 0.78495 0.0
C252 C 0.56072 0.19609 0.4141 0.0
O253 O 0.56854 0.176 0.402 0.0
Cd254 Cd 0.57417 0.09103 0.40283 0.0
O255 O 0.55616 0.17166 0.42951 0.0
Cd256 Cd 0.55946 0.085 0.44299 0.0
C257 C 0.58972 0.08406 0.449 0.0
O258 O 0.55527 0.05043 0.4085 0.0
O259 O 0.56317 -0.00106 0.43064 0.0
O260 O 0.53829 0.08777 0.45529 0.0
C261 C 0.55747 0.00587 0.41349 0.0
O262 O 0.58965 0.07531 0.42927 0.0
C263 C 0.53994 0.05878 0.47085 0.0
O264 O 0.57995 0.09641 0.45856 0.0
O265 O 0.55088 0.04647 0.4748 0.0
C266 C 0.70063 0.04214 0.40681 0.0
O267 O 0.69594 0.07835 0.39679 0.0
Cd268 Cd 0.69234 0.15888 0.41102 0.0
O269 O 0.70447 0.04779 0.42571 0.0
Cd270 Cd 0.70643 0.11846 0.45126 0.0
C271 C 0.67622 0.12533 0.45621 0.0
O272 O 0.71076 0.18437 0.42661 0.0
O273 O 0.70276 0.20787 0.45599 0.0
O274 O 0.72787 0.10196 0.45669 0.0
C275 C 0.70788 0.21983 0.43877 0.0
O276 O 0.67693 0.14813 0.43858 0.0
C277 C 0.72776 0.10977 0.47645 0.0
O278 O 0.68558 0.10474 0.46445 0.0
O279 O 0.71735 0.11506 0.48506 0.0
C280 C 0.4325 0.92168 0.1441 0.0
O281 O 0.4265 0.89028 0.13331 0.0
Cd282 Cd 0.42047 0.81093 0.14578 0.0
O283 O 0.43564 0.91202 0.16309 0.0
Cd284 Cd 0.43376 0.83751 0.18668 0.0
C285 C 0.40364 0.83874 0.19034 0.0
O286 O 0.43872 0.77806 0.15987 0.0
O287 O 0.42906 0.74717 0.18646 0.0
O288 O 0.45511 0.84516 0.1955 0.0
C289 C 0.43577 0.74009 0.17044 0.0
O290 O 0.40436 0.81882 0.17213 0.0
C291 C 0.45399 0.83109 0.21452 0.0
O292 O 0.41311 0.85576 0.19948 0.0
O293 O 0.44318 0.82754 0.22164 0.0
C294 C 0.29096 0.80211 0.14693 0.0
O295 O 0.29601 0.83688 0.13653 0.0
Cd296 Cd 0.29984 0.91866 0.14898 0.0
O297 O 0.28722 0.80945 0.1658 0.0
Cd298 Cd 0.28643 0.88221 0.19045 0.0
C299 C 0.31671 0.89115 0.19383 0.0
O300 O 0.28133 0.94381 0.16449 0.0
O301 O 0.28969 0.97272 0.19266 0.0
O302 O 0.26515 0.86724 0.19815 0.0
C303 C 0.28401 0.98128 0.17561 0.0
O304 O 0.31571 0.91221 0.17586 0.0
C305 C 0.26589 0.87699 0.21771 0.0
O306 O 0.30752 0.87083 0.20273 0.0
O307 O 0.27656 0.8825 0.22525 0.0
C308 C 0.44235 0.82405 0.6027 0.0
O309 O 0.4362 0.85781 0.61183 0.0
Cd310 Cd 0.43012 0.93299 0.59495 0.0
O311 O 0.44574 0.82923 0.58353 0.0
Cd312 Cd 0.44457 0.89327 0.55512 0.0
C313 C 0.41435 0.88513 0.55185 0.0
O314 O 0.4477 0.96357 0.57776 0.0
O315 O 0.43907 0.98053 0.54804 0.0
O316 O 0.46615 0.87968 0.55063 0.0
C317 C 0.4443 -0.00387 0.5646 0.0
O318 O 0.41477 0.91107 0.56869 0.0
C319 C 0.46637 0.88651 0.53083 0.0
O320 O 0.42403 0.86713 0.54363 0.0
O321 O 0.4561 0.89062 0.52163 0.0
C322 C 0.30246 0.9425 0.59834 0.0
O323 O 0.30756 0.90993 0.60991 0.0
Cd324 Cd 0.3095 0.82392 0.60239 0.0
O325 O 0.29817 0.93096 0.58021 0.0
Cd326 Cd 0.29692 0.85214 0.55928 0.0
C327 C 0.3273 0.83003 0.55802 0.0
O328 O 0.28979 0.80599 0.5892 0.0
O329 O 0.2952 0.76047 0.56291 0.0
O330 O 0.27654 0.87144 0.54637 0.0
C331 C 0.28978 0.76372 0.58054 0.0
O332 O 0.32596 0.81447 0.57688 0.0
C333 C 0.27861 0.85788 0.5275 0.0
O334 O 0.31844 0.85008 0.54816 0.0
O335 O 0.2896 0.8477 0.52285 0.0
C336 C 0.53537 0.52745 0.35973 0.0
O337 O 0.53961 0.56225 0.37114 0.0
Cd338 Cd 0.54548 0.64321 0.35993 0.0
O339 O 0.53304 0.53474 0.34019 0.0
Cd340 Cd 0.53403 0.60826 0.31598 0.0
C341 C 0.56431 0.60922 0.31812 0.0
O342 O 0.52925 0.67533 0.34014 0.0
O343 O 0.53999 0.69512 0.31295 0.0
O344 O 0.51325 0.60163 0.30302 0.0
C345 C 0.53405 0.70931 0.32902 0.0
O346 O 0.56262 0.63139 0.3357 0.0
C347 C 0.51604 0.6117 0.28401 0.0
O348 O 0.55544 0.59058 0.30777 0.0
O349 O 0.52733 0.61218 0.27943 0.0
C350 C 0.681 0.7018 0.35241 0.0
O351 O 0.67483 0.67696 0.36573 0.0
Cd352 Cd 0.67141 0.59023 0.36522 0.0
O353 O 0.68514 0.68091 0.33575 0.0
Cd354 Cd 0.68294 0.59326 0.32237 0.0
C355 C 0.65264 0.58231 0.32314 0.0
O356 O 0.69054 0.5573 0.35471 0.0
O357 O 0.68068 0.50626 0.33498 0.0
O358 O 0.70272 0.59614 0.3044 0.0
C359 C 0.68796 0.5128 0.35027 0.0
O360 O 0.65428 0.57058 0.34239 0.0
C361 C 0.69928 0.57079 0.28856 0.0
O362 O 0.66139 0.59947 0.3121 0.0
O363 O 0.68799 0.56075 0.28744 0.0
C364 C 0.56218 0.67191 0.89716 0.0
O365 O 0.56869 0.64538 0.88497 0.0
Cd366 Cd 0.57233 0.55879 0.8891 0.0
O367 O 0.55756 0.65343 0.91395 0.0
Cd368 Cd 0.55768 0.56995 0.93119 0.0
C369 C 0.58818 0.55813 0.93556 0.0
O370 O 0.55268 0.52985 0.89834 0.0
O371 O 0.55751 0.47981 0.92358 0.0
O372 O 0.53663 0.58579 0.94101 0.0
C373 C 0.5528 0.48599 0.90549 0.0
O374 O 0.58773 0.54696 0.91605 0.0
C375 C 0.53719 0.56454 0.95888 0.0
O376 O 0.57871 0.57348 0.94525 0.0
O377 O 0.54771 0.5511 0.9651 0.0
C378 C 0.69927 0.57386 0.87996 0.0
O379 O 0.69336 0.61066 0.87261 0.0
Cd380 Cd 0.68809 0.68462 0.89123 0.0
O381 O 0.7035 0.57511 0.89875 0.0
Cd382 Cd 0.70369 0.63861 0.92789 0.0
C383 C 0.67354 0.63138 0.93427 0.0
O384 O 0.70578 0.71527 0.90791 0.0
O385 O 0.69743 0.72257 0.93853 0.0
O386 O 0.72554 0.63267 0.93349 0.0
C387 C 0.70204 0.74368 0.92251 0.0
O388 O 0.67334 0.66003 0.91821 0.0
C389 C 0.72495 0.63102 0.9535 0.0
O390 O 0.6835 0.61206 0.94072 0.0
O391 O 0.71437 0.62663 0.96154 0.0
C392 C 0.436 0.48244 0.65762 0.0
O393 O 0.42859 0.46211 0.64488 0.0
Cd394 Cd 0.42219 0.37877 0.6455 0.0
O395 O 0.44006 0.45859 0.6736 0.0
Cd396 Cd 0.43553 0.37025 0.68425 0.0
C397 C 0.40593 0.377 0.69075 0.0
O398 O 0.44101 0.33635 0.65042 0.0
O399 O 0.42717 0.2944 0.6665 0.0
O400 O 0.45585 0.35528 0.6993 0.0
C401 C 0.43485 0.29685 0.65153 0.0
O402 O 0.40606 0.36538 0.67129 0.0
C403 C 0.4521 0.32464 0.71316 0.0
O404 O 0.4157 0.38961 0.70011 0.0
O405 O 0.44064 0.32 0.71505 0.0
C406 C 0.29691 0.29032 0.65682 0.0
O407 O 0.30173 0.32424 0.64559 0.0
Cd408 Cd 0.30253 0.41063 0.65247 0.0
O409 O 0.29201 0.30059 0.67463 0.0
Cd410 Cd 0.28944 0.38015 0.69488 0.0
C411 C 0.31939 0.40541 0.69788 0.0
O412 O 0.28254 0.42597 0.66451 0.0
O413 O 0.28811 0.47144 0.6906 0.0
O414 O 0.26932 0.35764 0.70827 0.0
C415 C 0.28286 0.46861 0.67281 0.0
O416 O 0.31816 0.42279 0.67929 0.0
C417 C 0.27097 0.37752 0.72626 0.0
O418 O 0.31068 0.38235 0.70693 0.0
O419 O 0.28174 0.39178 0.7305 0.0
C420 C 0.44488 0.25809 0.08315 0.0
O421 O 0.44026 0.28412 0.09782 0.0
Cd422 Cd 0.43417 0.36825 0.09603 0.0
O423 O 0.4473 0.27672 0.06507 0.0
Cd424 Cd 0.44635 0.36362 0.05052 0.0
C425 C 0.41607 0.36513 0.05093 0.0
O426 O 0.45153 0.40773 0.08257 0.0
O427 O 0.4412 0.44963 0.05989 0.0
O428 O 0.46721 0.35909 0.03738 0.0
C429 C 0.44727 0.44931 0.07691 0.0
O430 O 0.41749 0.37454 0.07051 0.0
C431 C 0.46515 0.38384 0.02067 0.0
O432 O 0.42509 0.35343 0.03922 0.0
O433 O 0.45407 0.39412 0.01666 0.0
C434 C 0.30022 0.45826 0.08771 0.0
O435 O 0.30629 0.42982 0.09979 0.0
Cd436 Cd 0.30943 0.34399 0.09475 0.0
O437 O 0.29597 0.44192 0.07024 0.0
Cd438 Cd 0.29785 0.35664 0.05418 0.0
C439 C 0.32783 0.34779 0.05204 0.0
O440 O 0.28976 0.31489 0.08459 0.0
O441 O 0.30276 0.27137 0.06724 0.0
O442 O 0.27786 0.35908 0.03685 0.0
C443 C 0.29451 0.27291 0.08129 0.0
O444 O 0.32635 0.33027 0.07053 0.0
C445 C 0.28108 0.33181 0.02143 0.0
O446 O 0.31899 0.36827 0.04234 0.0
O447 O 0.29236 0.32191 0.01994 0.0
H448 H 0.08056 0.12737 0.29696 0.0
H449 H 0.08189 0.2695 0.32879 0.0
H450 H 0.10263 0.13076 0.29158 0.0
H451 H 0.10381 0.27393 0.32275 0.0
H452 H 0.13935 0.20226 0.34933 0.0
H453 H 0.11837 0.22447 0.34201 0.0
H454 H 0.12202 0.16718 0.27849 0.0
H455 H 0.14329 0.14451 0.28607 0.0
C456 C 0.0855 0.16025 0.30203 0.0
C457 C 0.0796 0.19764 0.3137 0.0
C458 C 0.09815 0.16234 0.29888 0.0
C459 C 0.10502 0.20212 0.30719 0.0
C460 C 0.09882 0.2422 0.31664 0.0
C461 C 0.08626 0.23975 0.32005 0.0
C462 C 0.13579 0.19559 0.33362 0.0
C463 C 0.14289 0.17132 0.31834 0.0
C464 C 0.12375 0.20868 0.32932 0.0
C465 C 0.11846 0.19743 0.30965 0.0
C466 C 0.12582 0.17602 0.29383 0.0
C467 C 0.138 0.16342 0.29809 0.0
H468 H 0.1549 0.06345 0.9524 0.0
H469 H 0.14666 0.20581 0.924 0.0
H470 H 0.13315 0.05133 0.9601 0.0
H471 H 0.12511 0.1941 0.93184 0.0
H472 H 0.08648 0.16625 0.94977 0.0
H473 H 0.10804 0.17983 0.95877 0.0
H474 H 0.11714 0.03711 0.93145 0.0
H475 H 0.09583 0.02406 0.92228 0.0
C476 C 0.1485 0.09281 0.94847 0.0
C477 C 0.15239 0.13519 0.93733 0.0
C478 C 0.13608 0.08586 0.95282 0.0
C479 C 0.12744 0.12166 0.94645 0.0
C480 C 0.13154 0.16607 0.93711 0.0
C481 C 0.14387 0.17257 0.93244 0.0
C482 C 0.09308 0.13738 0.94622 0.0
C483 C 0.08957 0.09449 0.93506 0.0
C484 C 0.10538 0.14512 0.95134 0.0
C485 C 0.11425 0.10953 0.94578 0.0
C486 C 0.11052 0.06494 0.93616 0.0
C487 C 0.09833 0.05771 0.9307 0.0
H488 H 0.88471 0.90922 0.72022 0.0
H489 H 0.87848 0.76997 0.68788 0.0
H490 H 0.86279 0.91519 0.72799 0.0
H491 H 0.8568 0.77529 0.6959 0.0
H492 H 0.81793 0.79099 0.7128 0.0
H493 H 0.83942 0.78231 0.72319 0.0
H494 H 0.84687 0.92935 0.69861 0.0
H495 H 0.82562 0.93752 0.68798 0.0
C496 C 0.87872 0.87906 0.71551 0.0
C497 C 0.88318 0.83947 0.70325 0.0
C498 C 0.86622 0.88248 0.7199 0.0
C499 C 0.85811 0.84578 0.71247 0.0
C500 C 0.86282 0.80386 0.70202 0.0
C501 C 0.87522 0.80101 0.69727 0.0
C502 C 0.82411 0.82192 0.71026 0.0
C503 C 0.82022 0.86462 0.69935 0.0
C504 C 0.83637 0.81697 0.71617 0.0
C505 C 0.8448 0.85513 0.71166 0.0
C506 C 0.84058 0.89957 0.70251 0.0
C507 C 0.82845 0.90406 0.69623 0.0
H508 H 0.9052 0.95333 0.07052 0.0
H509 H 0.90963 0.81358 0.03755 0.0
H510 H 0.88356 0.95384 0.06154 0.0
H511 H 0.88779 0.81358 0.02898 0.0
H512 H 0.84844 0.80694 0.06514 0.0
H513 H 0.87034 0.80623 0.05798 0.0
H514 H 0.86758 0.95258 0.03001 0.0
H515 H 0.84548 0.95246 0.03667 0.0
C516 C 0.90157 0.92318 0.06102 0.0
C517 C 0.90903 0.88315 0.05492 0.0
C518 C 0.88922 0.92373 0.05571 0.0
C519 C 0.88405 0.88379 0.04455 0.0
C520 C 0.89161 0.84489 0.03752 0.0
C521 C 0.90406 0.8449 0.04244 0.0
C522 C 0.85246 0.838 0.05669 0.0
C523 C 0.84539 0.87964 0.05135 0.0
C524 C 0.86496 0.83757 0.05253 0.0
C525 C 0.87062 0.8794 0.04349 0.0
C526 C 0.86339 0.91985 0.03693 0.0
C527 C 0.85079 0.91973 0.04064 0.0
H528 H 0.0843 0.70088 0.76649 0.0
H529 H 0.07544 0.55584 0.74143 0.0
H530 H 0.10487 0.69358 0.75292 0.0
H531 H 0.09623 0.5482 0.72758 0.0
H532 H 0.13268 0.52601 0.76856 0.0
H533 H 0.11258 0.53327 0.75303 0.0
H534 H 0.12196 0.67911 0.7289 0.0
H535 H 0.14229 0.67129 0.74468 0.0
C536 C 0.08665 0.66828 0.75723 0.0
C537 C 0.07845 0.62835 0.75548 0.0
C538 C 0.09844 0.6642 0.74921 0.0
C539 C 0.10231 0.61968 0.7396 0.0
C540 C 0.09355 0.58263 0.73522 0.0
C541 C 0.08165 0.587 0.7431 0.0
C542 C 0.13063 0.55855 0.75904 0.0
C543 C 0.13886 0.59848 0.7581 0.0
C544 C 0.11911 0.56268 0.74995 0.0
C545 C 0.11553 0.60738 0.74014 0.0
C546 C 0.1244 0.64452 0.73664 0.0
C547 C 0.13605 0.64005 0.74558 0.0
H548 H 0.10641 0.62196 0.45533 0.0
H549 H 0.09955 0.48575 0.42114 0.0
H550 H 0.12816 0.60213 0.45644 0.0
H551 H 0.12108 0.46416 0.4233 0.0
H552 H 0.15902 0.49714 0.39556 0.0
H553 H 0.1376 0.49542 0.40429 0.0
H554 H 0.14561 0.5541 0.46639 0.0
H555 H 0.16728 0.55756 0.45718 0.0
C556 C 0.10953 0.58701 0.44867 0.0
C557 C 0.10141 0.55589 0.43775 0.0
C558 C 0.12198 0.57538 0.44941 0.0
C559 C 0.12645 0.53195 0.43956 0.0
C560 C 0.11804 0.49865 0.43046 0.0
C561 C 0.10569 0.51085 0.4293 0.0
C562 C 0.15629 0.50878 0.41126 0.0
C563 C 0.16485 0.52824 0.42554 0.0
C564 C 0.14394 0.50739 0.41638 0.0
C565 C 0.13979 0.52508 0.43603 0.0
C566 C 0.14846 0.541 0.45098 0.0
C567 C 0.1609 0.5425 0.44579 0.0
H568 H 0.89179 0.37609 0.21905 0.0
H569 H 0.88233 0.25396 0.17776 0.0
H570 H 0.87009 0.39128 0.22571 0.0
H571 H 0.86076 0.26881 0.18454 0.0
H572 H 0.82203 0.30095 0.20151 0.0
H573 H 0.84291 0.27557 0.21061 0.0
H574 H 0.85559 0.42486 0.19758 0.0
H575 H 0.83494 0.44974 0.18826 0.0
C576 C 0.88511 0.35146 0.21199 0.0
C577 C 0.88871 0.31437 0.19763 0.0
C578 C 0.8727 0.36024 0.21575 0.0
C579 C 0.86375 0.33148 0.2055 0.0
C580 C 0.86744 0.29136 0.19278 0.0
C581 C 0.87979 0.28311 0.18876 0.0
C582 C 0.82925 0.3285 0.20117 0.0
C583 C 0.82694 0.37709 0.19395 0.0
C584 C 0.84117 0.314 0.20633 0.0
C585 C 0.85086 0.34824 0.20478 0.0
C586 C 0.84831 0.39779 0.19917 0.0
C587 C 0.8365 0.41193 0.19364 0.0
H588 H 0.92377 0.3068 0.53473 0.0
H589 H 0.91423 0.45024 0.56073 0.0
H590 H 0.90238 0.29332 0.52481 0.0
H591 H 0.89305 0.43742 0.55053 0.0
H592 H 0.85505 0.4061 0.53343 0.0
H593 H 0.8764 0.41834 0.52274 0.0
H594 H 0.8862 0.28092 0.55397 0.0
H595 H 0.86509 0.2696 0.56496 0.0
C596 C 0.9172 0.33628 0.53746 0.0
C597 C 0.92055 0.37925 0.54871 0.0
C598 C 0.90499 0.32856 0.53184 0.0
C599 C 0.89605 0.3642 0.53703 0.0
C600 C 0.89972 0.40949 0.54615 0.0
C601 C 0.91183 0.4167 0.55214 0.0
C602 C 0.86173 0.37777 0.53729 0.0
C603 C 0.85855 0.33723 0.55018 0.0
C604 C 0.87391 0.38475 0.53121 0.0
C605 C 0.88295 0.35064 0.53758 0.0
C606 C 0.87944 0.30754 0.54862 0.0
C607 C 0.86738 0.30122 0.55507 0.0
H608 H 0.63307 0.04683 0.81499 0.0
H609 H 0.64032 0.17392 0.77514 0.0
H610 H 0.61208 0.04429 0.80238 0.0
H611 H 0.61903 0.17241 0.76287 0.0
H612 H 0.57899 0.19577 0.79599 0.0
H613 H 0.60081 0.19172 0.7888 0.0
H614 H 0.59707 0.03768 0.7702 0.0
H615 H 0.57505 0.0422 0.77694 0.0
C616 C 0.63021 0.07339 0.80308 0.0
C617 C 0.6382 0.1108 0.79613 0.0
C618 C 0.61824 0.0717 0.79571 0.0
C619 C 0.61395 0.10816 0.78165 0.0
C620 C 0.62217 0.14375 0.77363 0.0
C621 C 0.63429 0.14463 0.78063 0.0
C622 C 0.58276 0.16168 0.78954 0.0
C623 C 0.57542 0.11916 0.7872 0.0
C624 C 0.59523 0.15944 0.78529 0.0
C625 C 0.60062 0.11429 0.77908 0.0
C626 C 0.5931 0.07292 0.77495 0.0
C627 C 0.58053 0.07552 0.77876 0.0
H628 H 0.65827 0.19443 0.45701 0.0
H629 H 0.66664 0.04408 0.47644 0.0
H630 H 0.63678 0.18034 0.46464 0.0
H631 H 0.64494 0.02953 0.48384 0.0
H632 H 0.60787 0.01752 0.44304 0.0
H633 H 0.629 0.02535 0.45438 0.0
H634 H 0.61966 0.15667 0.49036 0.0
H635 H 0.5983 0.14814 0.47918 0.0
C636 C 0.65553 0.15881 0.46355 0.0
C637 C 0.66405 0.12013 0.46591 0.0
C638 C 0.64323 0.15085 0.46809 0.0
C639 C 0.63917 0.10372 0.47471 0.0
C640 C 0.64784 0.06619 0.47872 0.0
C641 C 0.66024 0.07452 0.47454 0.0
C642 C 0.61026 0.04709 0.45394 0.0
C643 C 0.60154 0.08255 0.46007 0.0
C644 C 0.62234 0.05135 0.46059 0.0
C645 C 0.62599 0.09178 0.47317 0.0
C646 C 0.61707 0.12518 0.48064 0.0
C647 C 0.60488 0.12026 0.47431 0.0
H648 H 0.33502 0.95846 0.19051 0.0
H649 H 0.32617 0.81542 0.21777 0.0
H650 H 0.35649 0.94519 0.19849 0.0
H651 H 0.34783 0.80178 0.22563 0.0
H652 H 0.39495 0.91434 0.21527 0.0
H653 H 0.37354 0.92861 0.22502 0.0
H654 H 0.36372 0.7875 0.19693 0.0
H655 H 0.3849 0.77376 0.18703 0.0
C656 C 0.33765 0.92473 0.19875 0.0
C657 C 0.32899 0.88759 0.20322 0.0
C658 C 0.34994 0.91733 0.20351 0.0
C659 C 0.35384 0.87228 0.21253 0.0
C660 C 0.34505 0.83678 0.21859 0.0
C661 C 0.33268 0.84459 0.21413 0.0
C662 C 0.38823 0.88589 0.21175 0.0
C663 C 0.39149 0.84336 0.20013 0.0
C664 C 0.37601 0.89404 0.2173 0.0
C665 C 0.36697 0.85921 0.21168 0.0
C666 C 0.37048 0.81476 0.20168 0.0
C667 C 0.38259 0.80713 0.19581 0.0
H668 H 0.34607 0.7684 0.56849 0.0
H669 H 0.33651 0.88926 0.52655 0.0
H670 H 0.36741 0.77715 0.55855 0.0
H671 H 0.358 0.89815 0.51663 0.0
H672 H 0.39573 0.95001 0.5477 0.0
H673 H 0.3744 0.93032 0.54116 0.0
H674 H 0.38399 0.77626 0.53039 0.0
H675 H 0.40556 0.79649 0.5367 0.0
C676 C 0.34849 0.79607 0.55674 0.0
C677 C 0.33965 0.82873 0.54858 0.0
C678 C 0.36072 0.80074 0.55088 0.0
C679 C 0.36439 0.83857 0.53692 0.0
C680 C 0.35542 0.86882 0.52751 0.0
C681 C 0.34313 0.86368 0.53317 0.0
C682 C 0.39333 0.91226 0.54325 0.0
C683 C 0.40223 0.87467 0.54284 0.0
C684 C 0.38112 0.90101 0.53936 0.0
C685 C 0.37751 0.85168 0.53538 0.0
C686 C 0.38654 0.81458 0.53348 0.0
C687 C 0.39885 0.82613 0.53699 0.0
H688 H 0.64211 0.64221 0.29335 0.0
H689 H 0.63511 0.51531 0.33356 0.0
H690 H 0.62034 0.64621 0.28449 0.0
H691 H 0.61352 0.51867 0.32437 0.0
H692 H 0.57514 0.52811 0.29986 0.0
H693 H 0.59711 0.51658 0.2937 0.0
H694 H 0.60361 0.66872 0.31286 0.0
H695 H 0.58187 0.67968 0.3195 0.0
C696 C 0.63599 0.61428 0.29974 0.0
C697 C 0.64021 0.5789 0.31436 0.0
C698 C 0.62357 0.61658 0.29467 0.0
C699 C 0.6153 0.58276 0.30377 0.0
C700 C 0.61973 0.54485 0.31697 0.0
C701 C 0.63205 0.54323 0.32238 0.0
C702 C 0.58127 0.55931 0.30217 0.0
C703 C 0.57691 0.60458 0.31033 0.0
C704 C 0.59379 0.55274 0.29868 0.0
C705 C 0.60201 0.59182 0.30277 0.0
C706 C 0.59746 0.6382 0.30933 0.0
C707 C 0.58505 0.64434 0.3133 0.0
H708 H 0.6539 0.69165 0.93824 0.0
H709 H 0.66663 0.54331 0.95276 0.0
H710 H 0.63326 0.66778 0.94794 0.0
H711 H 0.64576 0.51896 0.96239 0.0
H712 H 0.60709 0.49585 0.92767 0.0
H713 H 0.6284 0.50986 0.93652 0.0
H714 H 0.61814 0.63642 0.97475 0.0
H715 H 0.59666 0.62206 0.96589 0.0
C716 C 0.65231 0.6542 0.94403 0.0
C717 C 0.6618 0.61909 0.94446 0.0
C718 C 0.64049 0.64063 0.94982 0.0
C719 C 0.63787 0.5914 0.95584 0.0
C720 C 0.64754 0.55714 0.95775 0.0
C721 C 0.65946 0.57105 0.95228 0.0
C722 C 0.60935 0.52563 0.93855 0.0
C723 C 0.60027 0.55839 0.94582 0.0
C724 C 0.62156 0.53344 0.94377 0.0
C725 C 0.62496 0.57463 0.95612 0.0
C726 C 0.61577 0.60459 0.96506 0.0
C727 C 0.60348 0.59628 0.96007 0.0
H728 H 0.32992 0.33604 0.72361 0.0
H729 H 0.33648 0.47781 0.69337 0.0
H730 H 0.35176 0.32848 0.73122 0.0
H731 H 0.35817 0.47072 0.70131 0.0
H732 H 0.39719 0.4482 0.71761 0.0
H733 H 0.37586 0.45786 0.72892 0.0
H734 H 0.36699 0.317 0.69971 0.0
H735 H 0.38806 0.30824 0.68801 0.0
C736 C 0.33595 0.36646 0.71937 0.0
C737 C 0.3316 0.40712 0.7076 0.0
C738 C 0.34842 0.36211 0.72371 0.0
C739 C 0.35662 0.39888 0.71674 0.0
C740 C 0.35204 0.44203 0.70702 0.0
C741 C 0.33965 0.4459 0.70232 0.0
C742 C 0.39072 0.41872 0.71425 0.0
C743 C 0.39414 0.37776 0.7018 0.0
C744 C 0.37857 0.42423 0.72069 0.0
C745 C 0.36982 0.38814 0.7152 0.0
C746 C 0.37357 0.34507 0.7044 0.0
C747 C 0.38558 0.34023 0.69754 0.0
H748 H 0.33879 0.41963 0.02803 0.0
H749 H 0.34478 0.27503 0.05609 0.0
H750 H 0.36064 0.42569 0.01987 0.0
H751 H 0.36644 0.28049 0.04747 0.0
H752 H 0.40503 0.29788 0.02472 0.0
H753 H 0.38306 0.29266 0.01707 0.0
H754 H 0.37728 0.43101 0.0504 0.0
H755 H 0.39901 0.43534 0.05853 0.0
C756 C 0.3447 0.38848 0.03175 0.0
C757 C 0.34019 0.34711 0.04288 0.0
C758 C 0.35716 0.39197 0.02711 0.0
C759 C 0.36518 0.35353 0.03305 0.0
C760 C 0.36044 0.31037 0.04251 0.0
C761 C 0.34808 0.30743 0.04759 0.0
C762 C 0.39907 0.32775 0.02984 0.0
C763 C 0.4036 0.36678 0.04233 0.0
C764 C 0.38655 0.32476 0.02549 0.0
C765 C 0.37853 0.36152 0.03311 0.0
C766 C 0.38328 0.40254 0.04412 0.0
C767 C 0.39568 0.40483 0.0489 0.0
H768 H 0.01788 0.17197 0.25327 0.0
H769 H -0.00447 0.13198 0.30687 0.0
H770 H 0.00049 0.21402 0.23722 0.0
H771 H 0.9784 0.17602 0.29151 0.0
H772 H 0.9732 0.33691 0.22608 0.0
H773 H 0.98969 0.28899 0.24204 0.0
H774 H 0.96337 0.18291 0.26598 0.0
H775 H 0.94695 0.23222 0.25102 0.0
C776 C 0.0092 0.17127 0.26143 0.0
C777 C 0.00812 0.14877 0.28138 0.0
C778 C -0.00074 0.19624 0.25243 0.0
C779 C 0.98808 0.19977 0.2633 0.0
C780 C 0.98681 0.17417 0.28258 0.0
C781 C -0.00333 0.14864 0.2914 0.0
C782 C 0.97095 0.30403 0.23521 0.0
C783 C 0.95877 0.28854 0.23734 0.0
C784 C 0.98041 0.27595 0.24405 0.0
C785 C 0.97794 0.23128 0.25496 0.0
C786 C 0.96569 0.21712 0.25784 0.0
C787 C 0.95623 0.2456 0.24929 0.0
H788 H 0.19573 -0.00012 0.25908 0.0
H789 H 0.22428 0.08319 0.29005 0.0
H790 H 0.21094 0.94521 0.24333 0.0
H791 H 0.23958 0.03025 0.27351 0.0
H792 H 0.2643 0.90335 0.25943 0.0
H793 H 0.24768 0.94922 0.27606 0.0
H794 H 0.22657 0.93698 0.2186 0.0
H795 H 0.24285 0.88911 0.20252 0.0
C796 C 0.20529 0.00745 0.262 0.0
C797 C 0.20882 0.04586 0.27577 0.0
C798 C 0.21404 0.97591 0.25304 0.0
C799 C 0.22653 0.98258 0.25742 0.0
C800 C 0.23005 0.02286 0.2703 0.0
C801 C 0.22129 0.05385 0.2795 0.0
C802 C 0.25596 0.90918 0.25061 0.0
C803 C 0.25494 0.89285 0.22962 0.0
C804 C 0.24649 0.93626 0.26 0.0
C805 C 0.23588 0.94815 0.24849 0.0
C806 C 0.23455 0.92863 0.22801 0.0
C807 C 0.24393 0.90099 0.21876 0.0
H808 H 0.00485 0.05544 0.9371 0.0
H809 H 0.02686 0.04899 0.99362 0.0
H810 H 0.99071 -0.00392 0.9522 0.0
H811 H 0.01222 -0.00839 0.00945 0.0
H812 H 0.99247 0.85056 0.02485 0.0
H813 H 0.00636 0.9078 0.00708 0.0
H814 H 0.97565 0.97803 0.97618 0.0
H815 H 0.96198 0.91911 0.99285 0.0
C816 C 0.00645 0.04268 0.9531 0.0
C817 C 0.01704 0.0568 0.96411 0.0
C818 C -0.00169 0.00833 0.96179 0.0
C819 C 0.0004 -0.01205 0.98193 0.0
C820 C 0.01051 0.00508 0.9936 0.0
C821 C 0.0188 0.03883 0.98472 0.0
C822 C 0.98876 0.87716 0.01369 0.0
C823 C 0.97612 0.8803 0.01033 0.0
C824 C -0.00331 0.91076 0.00383 0.0
C825 C 0.99214 0.94872 0.99062 0.0
C826 C 0.97957 0.94944 0.98615 0.0
C827 C 0.97168 0.91532 0.9957 0.0
H828 H 0.21669 0.15959 0.99412 0.0
H829 H 0.23889 0.13654 0.93855 0.0
H830 H 0.23301 0.20894 0.00987 0.0
H831 H 0.25491 0.18746 0.95378 0.0
H832 H 0.28518 0.25494 0.99421 0.0
H833 H 0.27012 0.19854 0.97934 0.0
H834 H 0.2412 0.29018 0.00482 0.0
H835 H 0.25634 0.34546 0.0205 0.0
C836 C 0.22514 0.16417 0.98544 0.0
C837 C 0.22645 0.14438 0.96503 0.0
C838 C 0.23442 0.19323 0.9943 0.0
C839 C 0.24517 0.20342 0.98288 0.0
C840 C 0.2468 0.18052 0.9631 0.0
C841 C 0.23758 0.15111 0.95435 0.0
C842 C 0.27561 0.26361 0.99632 0.0
C843 C 0.27196 0.3047 0.00857 0.0
C844 C 0.26695 0.23108 0.98783 0.0
C845 C 0.25441 0.23916 0.99117 0.0
C846 C 0.25077 0.28189 0.00245 0.0
C847 C 0.25945 0.31414 0.01114 0.0
H848 H 0.96906 0.85391 0.70606 0.0
H849 H 0.9481 0.7911 0.75737 0.0
H850 H 0.98657 0.80554 0.7166 0.0
H851 H 0.96603 0.7447 0.76902 0.0
H852 H -0.00535 0.62138 0.76849 0.0
H853 H 0.97731 0.67457 0.75962 0.0
H854 H 0.00226 0.78993 0.73907 0.0
H855 H 0.01933 0.73556 0.74644 0.0
C856 C 0.96832 0.83107 0.72011 0.0
C857 C 0.95714 0.82613 0.73077 0.0
C858 C 0.97844 0.80313 0.72624 0.0
C859 C 0.97777 0.77028 0.74355 0.0
C860 C 0.96683 0.76834 0.75522 0.0
C861 C 0.95659 0.79567 0.7488 0.0
C862 C -0.00365 0.65775 0.76165 0.0
C863 C 0.00833 0.67393 0.75783 0.0
C864 C 0.98643 0.68871 0.7569 0.0
C865 C 0.98829 0.73702 0.7487 0.0
C866 C 0.00034 0.75282 0.7449 0.0
C867 C 0.01019 0.72149 0.74913 0.0
H868 H 0.72121 0.06411 0.78713 0.0
H869 H 0.69034 0.98422 0.76159 0.0
H870 H 0.735 0.00446 0.77065 0.0
H871 H 0.7041 0.92361 0.74565 0.0
H872 H 0.7574 0.87244 0.75414 0.0
H873 H 0.74187 0.91968 0.77311 0.0
H874 H 0.71869 0.9156 0.71793 0.0
H875 H 0.734 0.86714 0.69927 0.0
C876 C 0.71737 0.03386 0.77796 0.0
C877 C 0.70469 0.02911 0.77556 0.0
C878 C 0.72527 -0.0008 0.76874 0.0
C879 C 0.72067 0.95876 0.75702 0.0
C880 C 0.70797 0.95441 0.75444 0.0
C881 C 0.70008 -0.01076 0.76356 0.0
C882 C 0.74883 0.88032 0.74629 0.0
C883 C 0.747 0.86646 0.72512 0.0
C884 C 0.74 0.90804 0.75706 0.0
C885 C 0.72916 0.92262 0.74687 0.0
C886 C 0.72692 0.90512 0.7263 0.0
C887 C 0.73572 0.87719 0.71558 0.0
H888 H 0.72595 0.6429 0.99639 0.0
H889 H 0.74799 0.65273 0.93994 0.0
H890 H 0.74171 0.68696 0.01614 0.0
H891 H 0.76356 0.69785 0.9595 0.0
H892 H 0.7926 0.75801 0.00466 0.0
H893 H 0.7788 0.70012 0.98693 0.0
H894 H 0.74798 0.77339 0.01607 0.0
H895 H 0.76177 0.83033 0.03413 0.0
C896 C 0.73428 0.65336 0.98831 0.0
C897 C 0.73565 0.64478 0.96654 0.0
C898 C 0.74324 0.67923 -0.00044 0.0
C899 C 0.75376 0.6971 0.98928 0.0
C900 C 0.75558 0.68474 0.96793 0.0
C901 C 0.74664 0.65876 0.9567 0.0
C902 C 0.78287 0.76196 0.00714 0.0
C903 C 0.77827 0.79887 0.02077 0.0
C904 C 0.77496 0.7287 0.99701 0.0
C905 C 0.76229 0.73163 0.00027 0.0
C906 C 0.75771 0.76922 0.01359 0.0
C907 C 0.7656 0.80236 0.02374 0.0
H908 H 0.20483 0.53711 0.73743 0.0
H909 H 0.2195 0.55571 0.80026 0.0
H910 H 0.22193 0.4832 0.72836 0.0
H911 H 0.23628 0.50008 0.79158 0.0
H912 H 0.27139 0.44286 0.75919 0.0
H913 H 0.25432 0.49176 0.77201 0.0
H914 H 0.2296 0.40202 0.73479 0.0
H915 H 0.24683 0.35448 0.72119 0.0
C916 C 0.21176 0.52998 0.74925 0.0
C917 C 0.21085 0.5509 0.7695 0.0
C918 C 0.22147 0.49837 0.74418 0.0
C919 C 0.2304 0.4864 0.75936 0.0
C920 C 0.22964 0.50859 0.77944 0.0
C921 C 0.22002 0.54068 0.7844 0.0
C922 C 0.26229 0.43259 0.75417 0.0
C923 C 0.26049 0.39518 0.73894 0.0
C924 C 0.25246 0.46084 0.76151 0.0
C925 C 0.24058 0.45183 0.754 0.0
C926 C 0.23867 0.41116 0.74035 0.0
C927 C 0.24853 0.38328 0.73281 0.0
H928 H 0.02318 0.61953 0.48776 0.0
H929 H 0.05276 0.52792 0.51073 0.0
H930 H 0.00851 0.562 0.5033 0.0
H931 H 0.03808 0.46975 0.52578 0.0
H932 H 0.00633 0.39496 0.56273 0.0
H933 H 0.02208 0.45283 0.55104 0.0
H934 H 0.00206 0.47865 0.4933 0.0
H935 H 0.98615 0.42178 0.50521 0.0
C936 C 0.02657 0.58786 0.4966 0.0
C937 C 0.03914 0.57809 0.49778 0.0
C938 C 0.01815 0.55437 0.50519 0.0
C939 C 0.02212 0.51037 0.51515 0.0
C940 C 0.03471 0.50304 0.51808 0.0
C941 C 0.04313 0.53665 0.50954 0.0
C942 C 0.00542 0.41204 0.54731 0.0
C943 C -0.00508 0.40399 0.53497 0.0
C944 C 0.01443 0.4455 0.54067 0.0
C945 C 0.01316 0.47146 0.52151 0.0
C946 C 0.00312 0.4605 0.50847 0.0
C947 C -0.0059 0.4272 0.51513 0.0
H948 H 0.21316 0.71781 0.47469 0.0
H949 H 0.24503 0.64738 0.44798 0.0
H950 H 0.2261 0.78025 0.4915 0.0
H951 H 0.25803 0.70776 0.46559 0.0
H952 H 0.27967 0.83689 0.48528 0.0
H953 H 0.26458 0.79046 0.46501 0.0
H954 H 0.24009 0.79372 0.51858 0.0
H955 H 0.25485 0.84249 0.53822 0.0
C956 C 0.22296 0.71513 0.47279 0.0
C957 C 0.2281 0.67766 0.4601 0.0
C958 C 0.2304 0.751 0.48237 0.0
C959 C 0.24316 0.74969 0.47974 0.0
C960 C 0.24825 0.71114 0.46749 0.0
C961 C 0.24081 0.67591 0.45764 0.0
C962 C 0.2709 0.82908 0.49242 0.0
C963 C 0.26851 0.84291 0.5134 0.0
C964 C 0.2623 0.80173 0.48095 0.0
C965 C 0.25124 0.78675 0.49036 0.0
C966 C 0.24847 0.80439 0.51073 0.0
C967 C 0.25697 0.83254 0.52204 0.0
H968 H 0.76296 0.4081 0.24845 0.0
H969 H 0.74072 0.41075 0.19211 0.0
H970 H 0.74677 0.45036 0.26789 0.0
H971 H 0.72474 0.45425 0.2113 0.0
H972 H 0.69474 0.50261 0.25754 0.0
H973 H 0.7096 0.45234 0.23846 0.0
H974 H 0.73889 0.53435 0.26813 0.0
H975 H 0.72401 0.58363 0.28769 0.0
C976 C 0.75452 0.41672 0.24033 0.0
C977 C 0.75317 0.40636 0.2187 0.0
C978 C 0.74531 0.44166 0.25137 0.0
C979 C 0.73457 0.45684 0.24102 0.0
C980 C 0.73288 0.44319 0.21979 0.0
C981 C 0.74206 0.4181 0.20878 0.0
C982 C 0.70435 0.51046 0.25974 0.0
C983 C 0.70819 0.54711 0.27415 0.0
C984 C 0.71287 0.48149 0.24884 0.0
C985 C 0.72545 0.48866 0.25203 0.0
C986 C 0.72928 0.52689 0.26573 0.0
C987 C 0.72075 0.5557 0.2767 0.0
H988 H 0.80018 0.21906 0.51252 0.0
H989 H 0.77326 0.31377 0.54205 0.0
H990 H 0.78403 0.16536 0.49919 0.0
H991 H 0.75705 0.26127 0.52801 0.0
H992 H 0.73046 0.13833 0.51774 0.0
H993 H 0.74797 0.18151 0.5329 0.0
H994 H 0.76793 0.15978 0.47472 0.0
H995 H 0.7507 0.11498 0.46001 0.0
C996 C 0.79079 0.22908 0.51575 0.0
C997 C 0.788 0.27076 0.5283 0.0
C998 C 0.78151 0.19815 0.50815 0.0
C999 C 0.7692 0.20844 0.51275 0.0
C1000 C 0.76642 0.25132 0.52463 0.0
C1001 C 0.77571 0.28195 0.53241 0.0
C1002 C 0.73872 0.14146 0.50845 0.0
C1003 C 0.73913 0.12356 0.48761 0.0
C1004 C 0.7487 0.16695 0.517 0.0
C1005 C 0.75927 0.17539 0.50485 0.0
C1006 C 0.75999 0.15408 0.4846 0.0
C1007 C 0.75007 0.12824 0.47613 0.0
H1008 H 0.47705 0.3268 0.71329 0.0
H1009 H 0.44623 0.2425 0.73641 0.0
H1010 H 0.49081 0.26236 0.72622 0.0
H1011 H 0.4599 0.17713 0.74854 0.0
H1012 H 0.49009 0.10027 0.78806 0.0
H1013 H 0.47481 0.1563 0.77379 0.0
H1014 H 0.49716 0.17951 0.71837 0.0
H1015 H 0.51274 0.12489 0.73316 0.0
C1016 C 0.47322 0.29472 0.72131 0.0
C1017 C 0.46056 0.28991 0.7239 0.0
C1018 C 0.48109 0.2573 0.72841 0.0
C1019 C 0.47647 0.21392 0.73807 0.0
C1020 C 0.46381 0.20999 0.74127 0.0
C1021 C 0.45596 0.24764 0.73436 0.0
C1022 C 0.49161 0.11612 0.77254 0.0
C1023 C 0.50273 0.10867 0.7619 0.0
C1024 C 0.48283 0.14853 0.76436 0.0
C1025 C 0.48489 0.17368 0.74519 0.0
C1026 C 0.49547 0.16215 0.73353 0.0
C1027 C 0.50431 0.1301 0.74183 0.0
H1028 H 0.46979 0.91744 0.48995 0.0
H1029 H 0.48913 0.88712 0.548 0.0
H1030 H 0.48803 0.95719 0.47557 0.0
H1031 H 0.50709 0.92844 0.5341 0.0
H1032 H 0.54061 0.97873 0.4974 0.0
H1033 H 0.52342 0.92966 0.51004 0.0
H1034 H 0.49849 0.03403 0.481 0.0
H1035 H 0.51573 0.08194 0.46764 0.0
C1036 C 0.478 0.91835 0.49948 0.0
C1037 C 0.47798 0.89937 0.52016 0.0
C1038 C 0.4884 0.94187 0.49138 0.0
C1039 C 0.49897 0.94713 0.50384 0.0
C1040 C 0.49917 0.92507 0.52398 0.0
C1041 C 0.48882 0.90128 0.53199 0.0
C1042 C 0.53145 -0.00838 0.49398 0.0
C1043 C 0.52954 0.03433 0.48156 0.0
C1044 C 0.52157 0.96335 0.50119 0.0
C1045 C 0.50953 0.9774 0.49633 0.0
C1046 C 0.50763 0.02126 0.48458 0.0
C1047 C 0.51751 0.04924 0.47719 0.0
H1048 H 0.45524 0.80048 0.25579 0.0
H1049 H 0.47597 0.80604 0.1978 0.0
H1050 H 0.47046 0.74489 0.27106 0.0
H1051 H 0.49065 0.74819 0.21231 0.0
H1052 H 0.52052 0.6733 0.25085 0.0
H1053 H 0.5063 0.73127 0.23499 0.0
H1054 H 0.47666 0.66208 0.26938 0.0
H1055 H 0.49117 0.60615 0.28636 0.0
C1056 C 0.46314 0.79044 0.24643 0.0
C1057 C 0.46439 0.80775 0.22562 0.0
C1058 C 0.47176 0.75771 0.255 0.0
C1059 C 0.48169 0.74075 0.24279 0.0
C1060 C 0.48323 0.76037 0.22235 0.0
C1061 C 0.47478 0.79385 0.21399 0.0
C1062 C 0.51092 0.66957 0.25463 0.0
C1063 C 0.50697 0.6352 0.26992 0.0
C1064 C 0.50272 0.70313 0.24556 0.0
C1065 C 0.49029 0.70239 0.25118 0.0
C1066 C 0.48621 0.66513 0.2652 0.0
C1067 C 0.49448 0.63226 0.27463 0.0
H1068 H 0.48924 0.35795 0.02096 0.0
H1069 H 0.46394 0.4645 0.99466 0.0
H1070 H 0.50626 0.40552 0.00657 0.0
H1071 H 0.48089 0.51367 0.9813 0.0
H1072 H 0.51403 0.5659 0.94347 0.0
H1073 H 0.49653 0.52076 0.95697 0.0
H1074 H 0.51727 0.47899 0.01234 0.0
H1075 H 0.53505 0.52206 -0.00192 0.0
C1076 C 0.48732 0.3913 0.0119 0.0
C1077 C 0.47526 0.40729 0.00883 0.0
C1078 C 0.49709 0.41914 0.00395 0.0
C1079 C 0.49502 0.46417 0.99307 0.0
C1080 C 0.48289 0.47909 0.98939 0.0
C1081 C 0.47314 0.45076 0.99702 0.0
C1082 C 0.5148 0.54789 0.95873 0.0
C1083 C 0.52596 0.54737 0.96965 0.0
C1084 C 0.50472 0.52185 0.96651 0.0
C1085 C 0.50547 0.49527 0.98562 0.0
C1086 C 0.51643 0.49764 0.99724 0.0
C1087 C 0.52659 0.52305 0.98926 0.0
H1088 H 0.04771 0.43581 0.43397 0.0
H1089 H 0.03239 0.54167 0.38984 0.0
H1090 H 0.03798 0.36808 0.41495 0.0
H1091 H 0.02244 0.4736 0.3709 0.0
H1092 H 0.01972 0.25026 0.38158 0.0
H1093 H 0.01939 0.32629 0.40265 0.0
H1094 H 0.0323 0.41006 0.34876 0.0
H1095 H 0.03239 0.33453 0.32764 0.0
C1096 C 0.04206 0.44464 0.42043 0.0
C1097 C 0.04105 0.49372 0.41305 0.0
C1098 C 0.03634 0.40592 0.40969 0.0
C1099 C 0.0295 0.41561 0.39137 0.0
C1100 C 0.02777 0.46514 0.38487 0.0
C1101 C 0.03348 0.50396 0.39566 0.0
C1102 C 0.02216 0.28519 0.3741 0.0
C1103 C 0.02645 0.28641 0.3532 0.0
C1104 C 0.02196 0.32862 0.38615 0.0
C1105 C 0.02606 0.37376 0.37747 0.0
C1106 C 0.02905 0.37583 0.35589 0.0
C1107 C 0.02922 0.33244 0.34383 0.0
H1108 H 0.20804 0.70792 0.35783 0.0
H1109 H 0.17452 0.71703 0.39368 0.0
H1110 H 0.20225 0.78307 0.3384 0.0
H1111 H 0.16874 0.79168 0.37406 0.0
H1112 H 0.16174 0.9207 0.32647 0.0
H1113 H 0.16525 0.83194 0.33444 0.0
H1114 H 0.20057 0.86874 0.36033 0.0
H1115 H 0.197 0.95637 0.35305 0.0
C1116 C 0.19932 0.72526 0.36117 0.0
C1117 C 0.19184 0.70761 0.37753 0.0
C1118 C 0.196 0.76785 0.34999 0.0
C1119 C 0.18509 0.7927 0.35487 0.0
C1120 C 0.17713 0.77265 0.36996 0.0
C1121 C 0.18053 0.73047 0.38134 0.0
C1122 C 0.17024 0.90943 0.33376 0.0
C1123 C 0.17903 0.945 0.33948 0.0
C1124 C 0.17226 0.85903 0.33817 0.0
C1125 C 0.18323 0.84402 0.34767 0.0
C1126 C 0.19214 0.87954 0.35266 0.0
C1127 C 0.19001 0.92963 0.34878 0.0
H1128 H 0.06332 0.91418 0.91115 0.0
H1129 H 0.0266 0.94763 0.89088 0.0
H1130 H 0.06254 0.83517 0.89162 0.0
H1131 H 0.02571 0.86838 0.87195 0.0
H1132 H 0.02727 0.7033 0.8521 0.0
H1133 H 0.02828 0.76851 0.87909 0.0
H1134 H 0.05986 0.83145 0.84824 0.0
H1135 H 0.05875 0.76701 0.82098 0.0
C1136 C 0.05498 0.90379 0.90308 0.0
C1137 C 0.04504 0.93661 0.90224 0.0
C1138 C 0.05456 0.85899 0.89192 0.0
C1139 C 0.04408 0.84633 0.88038 0.0
C1140 C 0.03384 0.8775 0.8809 0.0
C1141 C 0.03436 0.92268 0.8916 0.0
C1142 C 0.03445 0.731 0.85116 0.0
C1143 C 0.04286 0.7307 0.83443 0.0
C1144 C 0.03505 0.76789 0.8666 0.0
C1145 C 0.04422 0.80416 0.86571 0.0
C1146 C 0.05283 0.80316 0.8493 0.0
C1147 C 0.05209 0.76687 0.83363 0.0
H1148 H 0.17438 0.4235 0.8119 0.0
H1149 H 0.17847 0.5257 0.86425 0.0
H1150 H 0.18053 0.35471 0.83473 0.0
H1151 H 0.18487 0.45716 0.88687 0.0
H1152 H 0.18315 0.30776 0.92411 0.0
H1153 H 0.17711 0.38023 0.90331 0.0
H1154 H 0.19982 0.32956 0.85178 0.0
H1155 H 0.20568 0.25676 0.87235 0.0
C1156 C 0.17649 0.43116 0.8283 0.0
C1157 C 0.17601 0.47984 0.8363 0.0
C1158 C 0.18013 0.39197 0.84129 0.0
C1159 C 0.18334 0.40089 0.86246 0.0
C1160 C 0.18241 0.44929 0.87064 0.0
C1161 C 0.17877 0.48845 0.85766 0.0
C1162 C 0.18701 0.31262 0.90849 0.0
C1163 C 0.19475 0.27644 0.8997 0.0
C1164 C 0.18354 0.354 0.89659 0.0
C1165 C 0.18781 0.35979 0.87581 0.0
C1166 C 0.19615 0.3252 0.86757 0.0
C1167 C 0.19959 0.28387 0.87941 0.0
H1168 H 0.92986 0.66392 0.67912 0.0
H1169 H 0.94446 0.76546 0.63245 0.0
H1170 H 0.93897 0.59392 0.66006 0.0
H1171 H 0.95378 0.69611 0.61388 0.0
H1172 H 0.95314 0.5546 0.57286 0.0
H1173 H 0.94638 0.62678 0.59289 0.0
H1174 H 0.95897 0.5578 0.65062 0.0
H1175 H 0.96552 0.48486 0.6306 0.0
C1176 C 0.93504 0.67122 0.66488 0.0
C1177 C 0.93634 0.7199 0.65712 0.0
C1178 C 0.94035 0.63135 0.6541 0.0
C1179 C 0.94706 0.63973 0.63549 0.0
C1180 C 0.94851 0.68854 0.628 0.0
C1181 C 0.94318 0.7282 0.63867 0.0
C1182 C 0.95462 0.55511 0.58978 0.0
C1183 C 0.95974 0.514 0.60022 0.0
C1184 C 0.95078 0.59649 0.60124 0.0
C1185 C 0.95206 0.59757 0.62332 0.0
C1186 C 0.9577 0.55745 0.63365 0.0
C1187 C 0.96153 0.51598 0.62218 0.0
H1188 H 0.78836 0.03482 0.68912 0.0
H1189 H 0.77549 0.98351 0.62832 0.0
H1190 H 0.79778 0.10675 0.67221 0.0
H1191 H 0.78473 0.05598 0.61151 0.0
H1192 H 0.81612 0.15027 0.58652 0.0
H1193 H 0.80605 0.08158 0.60483 0.0
H1194 H 0.79327 0.18369 0.65276 0.0
H1195 H 0.8035 0.25211 0.63474 0.0
C1196 C 0.78733 0.03943 0.67221 0.0
C1197 C 0.78131 0.0033 0.66 0.0
C1198 C 0.79273 0.08061 0.66254 0.0
C1199 C 0.79216 0.08637 0.64052 0.0
C1200 C 0.78554 0.05175 0.62847 0.0
C1201 C 0.78015 0.0106 0.63812 0.0
C1202 C 0.81129 0.15787 0.6011 0.0
C1203 C 0.81056 0.20646 0.60919 0.0
C1204 C 0.80542 0.11872 0.61145 0.0
C1205 C 0.79874 0.12754 0.63004 0.0
C1206 C 0.79837 0.17584 0.63849 0.0
C1207 C 0.80423 0.21496 0.62815 0.0
H1208 H 0.93841 0.14249 0.17498 0.0
H1209 H 0.95216 0.24912 0.12957 0.0
H1210 H 0.94666 0.07468 0.15365 0.0
H1211 H 0.96051 0.18137 0.10845 0.0
H1212 H 0.95176 0.0421 0.06537 0.0
H1213 H 0.95 0.11631 0.08725 0.0
H1214 H 0.96594 0.03682 0.13981 0.0
H1215 H 0.96761 0.96226 0.118 0.0
C1216 C 0.9433 0.15139 0.16058 0.0
C1217 C 0.94447 0.20084 0.15373 0.0
C1218 C 0.94814 0.11272 0.14851 0.0
C1219 C 0.95421 0.123 0.12944 0.0
C1220 C 0.95579 0.17257 0.12302 0.0
C1221 C 0.95098 0.2112 0.13509 0.0
C1222 C 0.95515 0.04081 0.08144 0.0
C1223 C 0.95954 -0.00378 0.09017 0.0
C1224 C 0.95421 0.08335 0.09393 0.0
C1225 C 0.95766 0.08182 0.11528 0.0
C1226 C 0.96303 0.03851 0.12347 0.0
C1227 C 0.96401 -0.00399 0.11097 0.0
H1228 H 0.80431 0.56731 0.18732 0.0
H1229 H 0.77092 0.56278 0.15115 0.0
H1230 H 0.80844 0.65134 0.17389 0.0
H1231 H 0.77489 0.64701 0.13823 0.0
H1232 H 0.78369 0.80945 0.12573 0.0
H1233 H 0.77922 0.74181 0.1506 0.0
H1234 H 0.81254 0.66776 0.13227 0.0
H1235 H 0.81689 0.73445 0.10711 0.0
C1236 C 0.79767 0.58497 0.17709 0.0
C1237 C 0.78737 0.55875 0.17003 0.0
C1238 C 0.80005 0.6328 0.16943 0.0
C1239 C 0.79197 0.65521 0.15509 0.0
C1240 C 0.78117 0.63052 0.14944 0.0
C1241 C 0.77895 0.58238 0.1567 0.0
C1242 C 0.79015 0.77912 0.12733 0.0
C1243 C 0.80055 0.77664 0.11441 0.0
C1244 C 0.7876 0.7407 0.14154 0.0
C1245 C 0.79559 0.70008 0.14332 0.0
C1246 C 0.80635 0.69916 0.13132 0.0
C1247 C 0.80876 0.73695 0.11681 0.0
H1248 H 0.53795 0.28088 0.80527 0.0
H1249 H 0.52104 0.21071 0.85938 0.0
H1250 H 0.5421 0.35471 0.82641 0.0
H1251 H 0.52501 0.28502 0.88041 0.0
H1252 H 0.54171 0.49212 0.86726 0.0
H1253 H 0.53337 0.42438 0.84623 0.0
H1254 H 0.54436 0.31892 0.89422 0.0
H1255 H 0.5525 0.38699 0.91557 0.0
C1256 C 0.53485 0.28173 0.82152 0.0
C1257 C 0.52938 0.23983 0.83081 0.0
C1258 C 0.5372 0.32403 0.83361 0.0
C1259 C 0.53405 0.3251 0.85513 0.0
C1260 C 0.52776 0.28463 0.86397 0.0
C1261 C 0.52542 0.24233 0.8519 0.0
C1262 C 0.54233 0.45447 0.87336 0.0
C1263 C 0.54785 0.44463 0.89296 0.0
C1264 C 0.53755 0.41578 0.8613 0.0
C1265 C 0.53822 0.36654 0.86861 0.0
C1266 C 0.54357 0.35672 0.88837 0.0
C1267 C 0.54834 0.39552 0.90047 0.0
H1268 H 0.71535 0.80374 0.89697 0.0
H1269 H 0.68385 0.80243 0.93802 0.0
H1270 H 0.7099 0.88741 0.88492 0.0
H1271 H 0.67823 0.8857 0.92546 0.0
H1272 H 0.66619 0.97103 0.86047 0.0
H1273 H 0.67216 0.9031 0.88403 0.0
H1274 H 0.70529 0.98168 0.89979 0.0
H1275 H 0.69918 0.05052 0.87664 0.0
C1276 C 0.70742 0.82187 0.90372 0.0
C1277 C 0.69997 0.79678 0.91827 0.0
C1278 C 0.70436 0.86967 0.89695 0.0
C1279 C 0.69366 0.89255 0.90432 0.0
C1280 C 0.68654 0.86859 0.91968 0.0
C1281 C 0.68977 0.82118 0.92684 0.0
C1282 C 0.67461 0.97426 0.86934 0.0
C1283 C 0.68228 0.01564 0.86669 0.0
C1284 C 0.67796 0.9357 0.88289 0.0
C1285 C 0.68915 0.93756 0.89363 0.0
C1286 C 0.6966 0.97981 0.89168 0.0
C1287 C 0.69311 0.01896 0.87848 0.0
H1288 H 0.52088 0.75466 0.35985 0.0
H1289 H 0.55216 0.77471 0.31901 0.0
H1290 H 0.52641 0.8308 0.379 0.0
H1291 H 0.5577 0.85011 0.33851 0.0
H1292 H 0.56602 0.91041 0.41378 0.0
H1293 H 0.5596 0.84201 0.39059 0.0
H1294 H 0.53437 0.94031 0.35903 0.0
H1295 H 0.54087 0.00908 0.3818 0.0
C1296 C 0.52879 0.77577 0.35478 0.0
C1297 C 0.53613 0.75887 0.33808 0.0
C1298 C 0.53192 0.819 0.36569 0.0
C1299 C 0.54247 0.8453 0.36011 0.0
C1300 C 0.54952 0.82989 0.3429 0.0
C1301 C 0.54631 0.78708 0.33178 0.0
C1302 C 0.55916 0.91741 0.40183 0.0
C1303 C 0.55395 0.96483 0.39949 0.0
C1304 C 0.55554 0.87855 0.38863 0.0
C1305 C 0.54658 0.88668 0.37324 0.0
C1306 C 0.54135 0.93383 0.37084 0.0
C1307 C 0.54508 0.97286 0.38381 0.0
H1308 H 0.72254 0.26334 0.40974 0.0
H1309 H 0.6903 0.28828 0.44765 0.0
H1310 H 0.71829 0.33984 0.38992 0.0
H1311 H 0.68591 0.36391 0.42735 0.0
H1312 H 0.67635 0.42425 0.35653 0.0
H1313 H 0.68211 0.35861 0.38155 0.0
H1314 H 0.71353 0.4444 0.40063 0.0
H1315 H 0.70764 0.51084 0.37609 0.0
C1316 C 0.71472 0.28585 0.41411 0.0
C1317 C 0.70673 0.2702 0.43011 0.0
C1318 C 0.71232 0.32932 0.40282 0.0
C1319 C 0.70176 0.35689 0.40718 0.0
C1320 C 0.69409 0.34278 0.42385 0.0
C1321 C 0.69665 0.2999 0.43547 0.0
C1322 C 0.68447 0.42902 0.36607 0.0
C1323 C 0.69157 0.47234 0.36448 0.0
C1324 C 0.68769 0.39187 0.38042 0.0
C1325 C 0.69815 0.39726 0.39296 0.0
C1326 C 0.70537 0.44005 0.39114 0.0
C1327 C 0.70202 0.4777 0.37714 0.0
H1328 H 0.46216 0.46786 0.11021 0.0
H1329 H 0.42969 0.52074 0.07857 0.0
H1330 H 0.45966 0.53264 0.13717 0.0
H1331 H 0.42711 0.5845 0.10576 0.0
H1332 H 0.42062 0.65959 0.16974 0.0
H1333 H 0.42374 0.58313 0.14906 0.0
H1334 H 0.45973 0.634 0.13154 0.0
H1335 H 0.4565 0.71065 0.1516 0.0
C1336 C 0.45451 0.49331 0.10907 0.0
C1337 C 0.44618 0.48982 0.0923 0.0
C1338 C 0.45306 0.52989 0.12449 0.0
C1339 C 0.4431 0.56255 0.12355 0.0
C1340 C 0.43473 0.55892 0.10688 0.0
C1341 C 0.43631 0.52306 0.09123 0.0
C1342 C 0.42928 0.65361 0.16188 0.0
C1343 C 0.43831 0.69061 0.16197 0.0
C1344 C 0.43104 0.61029 0.15007 0.0
C1345 C 0.44194 0.60333 0.1388 0.0
C1346 C 0.45129 0.63872 0.14025 0.0
C1347 C 0.44943 0.6824 0.15159 0.0
H1348 H 0.30048 0.05603 0.18128 0.0
H1349 H 0.26761 0.01643 0.14755 0.0
H1350 H 0.30255 0.13074 0.15929 0.0
H1351 H 0.26956 0.09161 0.12597 0.0
H1352 H 0.27437 0.25832 0.10527 0.0
H1353 H 0.27093 0.19205 0.13117 0.0
H1354 H 0.30621 0.12953 0.11646 0.0
H1355 H 0.3096 0.19516 0.09022 0.0
C1356 C 0.29352 0.06416 0.16962 0.0
C1357 C 0.28391 0.03073 0.16592 0.0
C1358 C 0.29476 0.10647 0.15701 0.0
C1359 C 0.28626 0.11616 0.14098 0.0
C1360 C 0.27618 0.08464 0.13832 0.0
C1361 C 0.27508 0.04187 0.1506 0.0
C1362 C 0.28136 0.23024 0.10753 0.0
C1363 C 0.29223 0.23149 0.0958 0.0
C1364 C 0.27939 0.19266 0.12232 0.0
C1365 C 0.28839 0.15657 0.12584 0.0
C1366 C 0.29925 0.15767 0.11411 0.0
C1367 C 0.30112 0.19469 0.09901 0.0
H1368 H 0.4191 0.22027 0.64371 0.0
H1369 H 0.45272 0.28773 0.62219 0.0
H1370 H 0.4214 0.15473 0.61712 0.0
H1371 H 0.45502 0.22195 0.59586 0.0
H1372 H 0.46107 0.04572 0.58736 0.0
H1373 H 0.4585 0.12646 0.60451 0.0
H1374 H 0.42325 0.14308 0.57489 0.0
H1375 H 0.42596 0.06237 0.55722 0.0
C1376 C 0.4269 0.22125 0.63321 0.0
C1377 C 0.43579 0.25858 0.63509 0.0
C1378 C 0.42813 0.18425 0.61789 0.0
C1379 C 0.43834 0.18386 0.6045 0.0
C1380 C 0.44706 0.22186 0.60602 0.0
C1381 C 0.44575 0.25919 0.6211 0.0
C1382 C 0.45295 0.06738 0.58406 0.0
C1383 C 0.4437 0.04826 0.57112 0.0
C1384 C 0.4515 0.11345 0.59377 0.0
C1385 C 0.44066 0.14045 0.59099 0.0
C1386 C 0.43166 0.12258 0.57718 0.0
C1387 C 0.43324 0.07683 0.56704 0.0
H1388 H 0.28671 0.5659 0.68342 0.0
H1389 H 0.27338 0.47134 0.63315 0.0
H1390 H 0.2856 0.63767 0.65993 0.0
H1391 H 0.27214 0.5433 0.60977 0.0
H1392 H 0.29321 0.66541 0.57081 0.0
H1393 H 0.28853 0.59395 0.59328 0.0
H1394 H 0.27197 0.69209 0.63921 0.0
H1395 H 0.27681 0.76343 0.61699 0.0
C1396 C 0.28331 0.56066 0.66751 0.0
C1397 C 0.28034 0.51305 0.65999 0.0
C1398 C 0.28261 0.60174 0.65409 0.0
C1399 C 0.27889 0.59579 0.63298 0.0
C1400 C 0.2752 0.54866 0.62588 0.0
C1401 C 0.27589 0.50762 0.63929 0.0
C1402 C 0.28842 0.67153 0.58555 0.0
C1403 C 0.28559 0.71987 0.59237 0.0
C1404 C 0.28566 0.63069 0.59834 0.0
C1405 C 0.28 0.63773 0.61806 0.0
C1406 C 0.27652 0.68582 0.62424 0.0
C1407 C 0.27929 0.72654 0.6115 0.0
H1408 H 0.05399 0.78916 0.43485 0.0
H1409 H 0.07097 0.75982 0.37444 0.0
H1410 H 0.04976 0.87463 0.42361 0.0
H1411 H 0.06685 0.84485 0.36343 0.0
H1412 H 0.04438 0.97813 0.34147 0.0
H1413 H 0.04864 0.8939 0.35408 0.0
H1414 H 0.06009 0.9534 0.41429 0.0
H1415 H 0.05569 0.03729 0.40191 0.0
C1416 C 0.05698 0.80107 0.41934 0.0
C1417 C 0.06275 0.76754 0.40552 0.0
C1418 C 0.05454 0.84998 0.41289 0.0
C1419 C 0.05781 0.86616 0.39251 0.0
C1420 C 0.06397 0.83314 0.37904 0.0
C1421 C 0.06642 0.78449 0.38546 0.0
C1422 C 0.04774 0.97323 0.35742 0.0
C1423 C 0.04972 0.01449 0.37063 0.0
C1424 C 0.05026 0.92503 0.3646 0.0
C1425 C 0.05476 0.91712 0.38515 0.0
C1426 C 0.05653 0.95827 0.39846 0.0
C1427 C 0.05407 0.00638 0.39128 0.0
H1428 H 0.21953 0.42382 0.4256 0.0
H1429 H 0.22436 0.43779 0.35816 0.0
H1430 H 0.22027 0.33337 0.42232 0.0
H1431 H 0.22435 0.34851 0.35462 0.0
H1432 H 0.21398 0.19588 0.34582 0.0
H1433 H 0.22719 0.26383 0.35734 0.0
H1434 H 0.20329 0.28957 0.41071 0.0
H1435 H 0.19069 0.2205 0.39987 0.0
C1436 C 0.22121 0.40768 0.41019 0.0
C1437 C 0.22127 0.43756 0.39199 0.0
C1438 C 0.2215 0.35577 0.40825 0.0
C1439 C 0.22162 0.33348 0.38809 0.0
C1440 C 0.22398 0.36382 0.37042 0.0
C1441 C 0.22388 0.41545 0.37241 0.0
C1442 C 0.21173 0.2157 0.36021 0.0
C1443 C 0.20112 0.20394 0.37161 0.0
C1444 C 0.21931 0.25453 0.36687 0.0
C1445 C 0.21624 0.28315 0.38475 0.0
C1446 C 0.20613 0.26844 0.397 0.0
C1447 C 0.19872 0.22913 0.39058 0.0
H1448 H 0.0332 0.43236 0.80095 0.0
H1449 H 0.05964 0.46708 0.84953 0.0
H1450 H 0.03065 0.34875 0.81636 0.0
H1451 H 0.05695 0.38519 0.86468 0.0
H1452 H 0.04165 0.25599 0.89982 0.0
H1453 H 0.03958 0.33787 0.88326 0.0
H1454 H 0.0453 0.27181 0.82189 0.0
H1455 H 0.04739 0.18999 0.83831 0.0
C1456 C 0.03845 0.42227 0.8148 0.0
C1457 C 0.04663 0.45638 0.82395 0.0
C1458 C 0.03696 0.37468 0.82362 0.0
C1459 C 0.04345 0.36111 0.8419 0.0
C1460 C 0.05164 0.3951 0.85087 0.0
C1461 C 0.05326 0.44193 0.84197 0.0
C1462 C 0.04225 0.25879 0.88278 0.0
C1463 C 0.0449 0.21676 0.87042 0.0
C1464 C 0.04107 0.30556 0.87332 0.0
C1465 C 0.04237 0.31096 0.85134 0.0
C1466 C 0.0442 0.26853 0.83884 0.0
C1467 C 0.04551 0.22185 0.8483 0.0
H1468 H 0.19103 0.02263 0.84132 0.0
H1469 H 0.19106 0.95764 0.90381 0.0
H1470 H 0.18792 0.94038 0.82588 0.0
H1471 H 0.18793 0.87515 0.88823 0.0
H1472 H 0.1615 0.76667 0.85424 0.0
H1473 H 0.16873 0.84455 0.86912 0.0
H1474 H 0.19699 0.85203 0.82171 0.0
H1475 H 0.18981 0.77304 0.80667 0.0
C1476 C 0.1906 -0.00939 0.85173 0.0
C1477 C 0.19112 -0.00345 0.8738 0.0
C1478 C 0.1889 0.94356 0.84285 0.0
C1479 C 0.18755 0.90169 0.85589 0.0
C1480 C 0.18882 0.90711 0.87788 0.0
C1481 C 0.19068 0.95417 0.88677 0.0
C1482 C 0.16923 0.7848 0.84684 0.0
C1483 C 0.17507 0.7636 0.82921 0.0
C1484 C 0.17345 0.82915 0.85557 0.0
C1485 C 0.18353 0.85373 0.84677 0.0
C1486 C 0.18924 0.83348 0.82883 0.0
C1487 C 0.1851 0.7885 0.82021 0.0
H1488 H 0.94549 0.20464 0.58028 0.0
H1489 H 0.9602 0.23522 0.64206 0.0
H1490 H 0.93842 0.12372 0.59237 0.0
H1491 H 0.95414 0.15247 0.65396 0.0
H1492 H 0.9283 0.0328 0.6775 0.0
H1493 H 0.93706 0.11057 0.66452 0.0
H1494 H 0.94156 0.04398 0.60267 0.0
H1495 H 0.93187 0.96853 0.61533 0.0
C1496 C 0.94767 0.1929 0.59622 0.0
C1497 C 0.9534 0.22571 0.61025 0.0
C1498 C 0.94361 0.14643 0.60326 0.0
C1499 C 0.94551 0.13133 0.62435 0.0
C1500 C 0.95211 0.16315 0.63786 0.0
C1501 C 0.95581 0.21022 0.63098 0.0
C1502 C 0.93105 0.03538 0.66109 0.0
C1503 C 0.92924 -0.00481 0.64733 0.0
C1504 C 0.93625 0.07965 0.65365 0.0
C1505 C 0.94012 0.08396 0.63245 0.0
C1506 C 0.93846 0.04299 0.6189 0.0
C1507 C 0.93292 -0.0005 0.62617 0.0
H1508 H 0.82028 0.49969 0.62998 0.0
H1509 H 0.79829 0.49277 0.57332 0.0
H1510 H 0.81006 0.57603 0.64029 0.0
H1511 H 0.78804 0.57016 0.58382 0.0
H1512 H 0.7881 0.74362 0.60148 0.0
H1513 H 0.79414 0.66124 0.58908 0.0
H1514 H 0.78893 0.60222 0.65189 0.0
H1515 H 0.78292 0.68476 0.66442 0.0
C1516 C 0.8133 0.51453 0.61963 0.0
C1517 C 0.81012 0.49002 0.60078 0.0
C1518 C 0.80734 0.55803 0.62572 0.0
C1519 C 0.79811 0.57848 0.61305 0.0
C1520 C 0.79508 0.55492 0.59392 0.0
C1521 C 0.80098 0.51082 0.5879 0.0
C1522 C 0.78797 0.71285 0.61257 0.0
C1523 C 0.78521 0.72083 0.63402 0.0
C1524 C 0.79138 0.66564 0.60541 0.0
C1525 C 0.79219 0.62564 0.6196 0.0
C1526 C 0.78855 0.63273 0.6407 0.0
C1527 C 0.78502 0.67987 0.64783 0.0
H1528 H 0.94473 0.49367 0.17601 0.0
H1529 H 0.92159 0.47435 0.12127 0.0
H1530 H 0.95103 0.5753 0.16258 0.0
H1531 H 0.9278 0.55532 0.10813 0.0
H1532 H 0.94915 0.68054 0.07938 0.0
H1533 H 0.94615 0.59663 0.09357 0.0
H1534 H 0.94171 0.65797 0.1562 0.0
H1535 H 0.94488 0.74126 0.14222 0.0
C1536 C 0.94091 0.50693 0.16126 0.0
C1537 C 0.93267 0.47746 0.14973 0.0
C1538 C 0.94455 0.55351 0.15354 0.0
C1539 C 0.94005 0.57124 0.13414 0.0
C1540 C 0.93166 0.54212 0.12286 0.0
C1541 C 0.928 0.49589 0.13056 0.0
C1542 C 0.94775 0.67596 0.09621 0.0
C1543 C 0.94709 0.71753 0.10961 0.0
C1544 C 0.94595 0.62804 0.10432 0.0
C1545 C 0.94355 0.62091 0.12596 0.0
C1546 C 0.94359 0.66224 0.13949 0.0
C1547 C 0.94532 0.71002 0.13141 0.0
H1548 H 0.79547 0.32264 0.09045 0.0
H1549 H 0.77697 0.24878 0.14208 0.0
H1550 H 0.79622 0.24433 0.07111 0.0
H1551 H 0.77774 0.17033 0.12252 0.0
H1552 H 0.7783 0.03591 0.07972 0.0
H1553 H 0.77196 0.12147 0.08829 0.0
H1554 H 0.80936 0.17033 0.08232 0.0
H1555 H 0.81562 0.08525 0.07435 0.0
C1556 C 0.79134 0.28999 0.09753 0.0
C1557 C 0.78638 0.29177 0.11804 0.0
C1558 C 0.79175 0.2452 0.08637 0.0
C1559 C 0.78713 0.20132 0.09538 0.0
C1560 C 0.78129 0.20376 0.11514 0.0
C1561 C 0.78094 0.24861 0.1264 0.0
C1562 C 0.78503 0.06549 0.07949 0.0
C1563 C 0.79741 0.0545 0.07632 0.0
C1564 C 0.78144 0.11415 0.08456 0.0
C1565 C 0.79018 0.15235 0.08602 0.0
C1566 C 0.80241 0.14177 0.08109 0.0
C1567 C 0.80601 0.09316 0.07652 0.0
H1568 H 0.56918 0.71939 0.86108 0.0
H1569 H 0.54781 0.73996 0.91789 0.0
H1570 H 0.56263 0.80047 0.84835 0.0
H1571 H 0.54121 0.82144 0.90493 0.0
H1572 H 0.54614 -0.01311 0.88335 0.0
H1573 H 0.55053 0.90429 0.89718 0.0
H1574 H 0.54334 0.84053 0.83579 0.0
H1575 H 0.53903 0.92362 0.82175 0.0
C1576 C 0.56313 0.74127 0.87093 0.0
C1577 C 0.55902 0.72313 0.89053 0.0
C1578 C 0.55927 0.78751 0.86349 0.0
C1579 C 0.55128 0.81685 0.87551 0.0
C1580 C 0.54738 0.79946 0.89534 0.0
C1581 C 0.55118 0.75292 0.90277 0.0
C1582 C 0.54536 0.95524 0.87281 0.0
C1583 C 0.54236 0.9618 0.85138 0.0
C1584 C 0.54781 0.90791 0.88081 0.0
C1585 C 0.54738 0.86615 0.86752 0.0
C1586 C 0.54389 0.87232 0.8463 0.0
C1587 C 0.54134 0.91975 0.8383 0.0
H1588 H 0.70946 0.48377 0.89083 0.0
H1589 H 0.69067 0.55923 0.83999 0.0
H1590 H 0.70722 0.40472 0.872 0.0
H1591 H 0.68842 0.48039 0.82142 0.0
H1592 H 0.66743 0.32535 0.82606 0.0
H1593 H 0.6747 0.409 0.8342 0.0
H1594 H 0.71168 0.35405 0.83729 0.0
H1595 H 0.70435 0.26993 0.82858 0.0
C1596 C 0.70512 0.48377 0.87547 0.0
C1597 C 0.70004 0.52771 0.86714 0.0
C1598 C 0.7039 0.43855 0.86462 0.0
C1599 C 0.69755 0.43651 0.84536 0.0
C1600 C 0.69327 0.48093 0.83634 0.0
C1601 C 0.69455 0.52606 0.84704 0.0
C1602 C 0.67715 0.33151 0.82777 0.0
C1603 C 0.68534 0.29146 0.82666 0.0
C1604 C 0.68132 0.37934 0.8324 0.0
C1605 C 0.69375 0.38787 0.83647 0.0
C1606 C 0.70206 0.34832 0.83425 0.0
C1607 C 0.69789 0.30045 0.8291 0.0
H1608 H 0.53412 0.43874 0.33857 0.0
H1609 H 0.53583 0.50153 0.4014 0.0
H1610 H 0.53844 0.3564 0.35317 0.0
H1611 H 0.54023 0.41927 0.41586 0.0
H1612 H 0.54253 0.25028 0.43351 0.0
H1613 H 0.53338 0.32828 0.42088 0.0
H1614 H 0.55882 0.33093 0.3688 0.0
H1615 H 0.56797 0.2542 0.38124 0.0
C1616 C 0.53507 0.43481 0.35553 0.0
C1617 C 0.53487 0.47674 0.36878 0.0
C1618 C 0.53763 0.38776 0.36386 0.0
C1619 C 0.53991 0.38182 0.38558 0.0
C1620 C 0.53854 0.42286 0.39907 0.0
C1621 C 0.53607 0.46996 0.39074 0.0
C1622 C 0.54623 0.26786 0.4195 0.0
C1623 C 0.55596 0.24589 0.40837 0.0
C1624 C 0.54095 0.31223 0.41223 0.0
C1625 C 0.54522 0.33484 0.3936 0.0
C1626 C 0.55513 0.31355 0.38288 0.0
C1627 C 0.56046 0.26981 0.39019 0.0
H1628 H 0.70471 0.95214 0.42579 0.0
H1629 H 0.69619 0.01922 0.36545 0.0
H1630 H 0.70118 0.86974 0.41068 0.0
H1631 H 0.69264 0.93666 0.35046 0.0
H1632 H 0.69571 0.76741 0.33046 0.0
H1633 H 0.70252 0.85006 0.34233 0.0
H1634 H 0.68061 0.83493 0.39864 0.0
H1635 H 0.67375 0.75376 0.387 0.0
C1636 C 0.70232 0.94932 0.40923 0.0
C1637 C 0.70054 -0.00777 0.39692 0.0
C1638 C 0.70025 0.90219 0.40062 0.0
C1639 C 0.69648 0.89708 0.3795 0.0
C1640 C 0.69555 0.93965 0.36677 0.0
C1641 C 0.69751 -0.01314 0.37542 0.0
C1642 C 0.69226 0.78206 0.34525 0.0
C1643 C 0.68424 0.75379 0.35782 0.0
C1644 C 0.6962 0.82913 0.35205 0.0
C1645 C 0.69229 0.84816 0.37161 0.0
C1646 C 0.68401 0.82056 0.38376 0.0
C1647 C 0.68 0.77415 0.37693 0.0
H1648 H 0.43455 0.17949 0.06313 0.0
H1649 H 0.45888 0.21893 0.11391 0.0
H1650 H 0.43304 0.09489 0.077 0.0
H1651 H 0.45813 0.13369 0.12719 0.0
H1652 H 0.4384 0.00983 0.16317 0.0
H1653 H 0.44365 0.0882 0.14604 0.0
H1654 H 0.44109 0.01671 0.08493 0.0
H1655 H 0.43518 0.93936 0.1021 0.0
C1656 C 0.44 0.16918 0.07672 0.0
C1657 C 0.44684 0.20515 0.08749 0.0
C1658 C 0.43915 0.12077 0.08475 0.0
C1659 C 0.44529 0.10754 0.10351 0.0
C1660 C 0.45298 0.14285 0.11312 0.0
C1661 C 0.45359 0.19141 0.10536 0.0
C1662 C 0.439 0.01099 0.1461 0.0
C1663 C 0.43624 0.96877 0.13398 0.0
C1664 C 0.44213 0.05577 0.13622 0.0
C1665 C 0.44283 0.05895 0.11401 0.0
C1666 C 0.44043 0.01605 0.10199 0.0
C1667 C 0.43707 0.97163 0.11185 0.0
H1668 H 0.2963 0.77655 0.10624 0.0
H1669 H 0.28319 0.71511 0.16521 0.0
H1670 H 0.29676 0.69342 0.09092 0.0
H1671 H 0.28351 0.63186 0.14966 0.0
H1672 H 0.30556 0.49711 0.12617 0.0
H1673 H 0.30117 0.5796 0.13944 0.0
H1674 H 0.28438 0.61869 0.07999 0.0
H1675 H 0.28885 0.53497 0.06637 0.0
C1676 C 0.29335 0.7454 0.11587 0.0
C1677 C 0.28989 0.75234 0.13709 0.0
C1678 C 0.29352 0.69784 0.10698 0.0
C1679 C 0.29026 0.65623 0.11914 0.0
C1680 C 0.28621 0.66335 0.14002 0.0
C1681 C 0.28601 0.71098 0.14891 0.0
C1682 C 0.30092 0.52303 0.1158 0.0
C1683 C 0.29761 0.50943 0.09511 0.0
C1684 C 0.29828 0.57025 0.12356 0.0
C1685 C 0.2923 0.60535 0.11085 0.0
C1686 C 0.289 0.59218 0.09011 0.0
C1687 C 0.29156 0.54441 0.08233 0.0
H1688 H 0.43909 0.51886 0.61853 0.0
H1689 H 0.443 0.5587 0.68429 0.0
H1690 H 0.44402 0.60306 0.60814 0.0
H1691 H 0.44809 0.64466 0.67373 0.0
H1692 H 0.43345 0.79411 0.64101 0.0
H1693 H 0.43546 0.7122 0.65719 0.0
H1694 H 0.45975 0.66702 0.60697 0.0
H1695 H 0.4575 0.74852 0.59042 0.0
C1696 C 0.44116 0.54572 0.6308 0.0
C1697 C 0.44047 0.53258 0.65223 0.0
C1698 C 0.44416 0.59393 0.62481 0.0
C1699 C 0.44648 0.63051 0.64011 0.0
C1700 C 0.4463 0.61709 0.66163 0.0
C1701 C 0.44343 0.56812 0.66766 0.0
C1702 C 0.43938 0.76701 0.63359 0.0
C1703 C 0.44507 0.77733 0.61413 0.0
C1704 C 0.44064 0.72023 0.64301 0.0
C1705 C 0.44764 0.68304 0.6332 0.0
C1706 C 0.45412 0.69479 0.61469 0.0
C1707 C 0.4528 0.74138 0.60518 0.0
H1708 H 0.29298 0.0245 0.5783 0.0
H1709 H 0.30866 0.97589 0.63754 0.0
H1710 H 0.2905 0.10827 0.59284 0.0
H1711 H 0.30627 0.05933 0.65182 0.0
H1712 H 0.28967 0.2043 0.67686 0.0
H1713 H 0.29005 0.11956 0.66252 0.0
H1714 H 0.30454 0.176 0.60372 0.0
H1715 H 0.30407 0.26001 0.61775 0.0
C1716 C 0.29591 0.03164 0.59436 0.0
C1717 C 0.30108 -0.0064 0.60669 0.0
C1718 C 0.29449 0.07954 0.60267 0.0
C1719 C 0.29816 0.09015 0.62348 0.0
C1720 C 0.30321 0.05203 0.63585 0.0
C1721 C 0.30468 0.00434 0.62754 0.0
C1722 C 0.29289 0.19855 0.66087 0.0
C1723 C 0.29689 0.23886 0.64851 0.0
C1724 C 0.29313 0.15012 0.65269 0.0
C1725 C 0.29729 0.14135 0.63198 0.0
C1726 C 0.30113 0.18172 0.6196 0.0
C1727 C 0.30095 0.22985 0.62777 0.0
loop_
_geom_bond_atom_site_label_1
_geom_bond_atom_site_label_2
_geom_bond_distance
_geom_bond_site_symmetry_2
_ccdc_geom_bond_type
C0 O1 1.306 . S
C0 O3 1.160 . S
O1 C0 1.306 . S
O1 Cd2 2.228 . S
Cd2 O1 2.228 . S
Cd2 O6 2.273 . S
Cd2 O10 2.277 . S
O3 C0 1.160 . S
O3 Cd4 2.203 . S
Cd4 O3 2.203 . S
Cd4 O6 2.411 . S
Cd4 O7 2.333 . S
Cd4 O8 2.352 . S
Cd4 O12 2.277 . S
Cd4 O13 2.356 . S
C5 O10 1.209 . S
C5 O12 1.226 . S
O6 Cd2 2.273 . S
O6 Cd4 2.411 . S
O6 C9 1.320 . S
O7 Cd4 2.333 . S
O7 C9 1.214 . S
O8 Cd4 2.352 . S
O8 C11 1.258 . S
C9 O6 1.320 . S
C9 O7 1.214 . S
O10 Cd2 2.277 . S
O10 C5 1.209 . S
C11 O8 1.258 . S
C11 O13 1.282 . S
O12 Cd4 2.277 . S
O12 C5 1.226 . S
O13 Cd4 2.356 . S
O13 C11 1.282 . S
C14 O15 1.306 . S
C14 O17 1.160 . S
O15 C14 1.306 . S
O15 Cd16 2.228 . S
Cd16 O15 2.228 . S
Cd16 O20 2.273 . S
Cd16 O24 2.277 . S
O17 C14 1.160 . S
O17 Cd18 2.203 . S
Cd18 O17 2.203 . S
Cd18 O20 2.411 . S
Cd18 O21 2.333 . S
Cd18 O22 2.352 . S
Cd18 O26 2.277 . S
Cd18 O27 2.356 . S
C19 O24 1.209 . S
C19 O26 1.226 . S
O20 Cd16 2.273 . S
O20 Cd18 2.411 . S
O20 C23 1.320 . S
O21 Cd18 2.333 . S
O21 C23 1.214 . S
O22 Cd18 2.352 . S
O22 C25 1.258 . S
C23 O20 1.320 . S
C23 O21 1.214 . S
O24 Cd16 2.277 . S
O24 C19 1.209 . S
C25 O22 1.258 . S
C25 O27 1.282 . S
O26 Cd18 2.277 . S
O26 C19 1.226 . S
O27 Cd18 2.356 . S
O27 C25 1.282 . S
C28 O29 1.306 . S
C28 O31 1.160 . S
O29 C28 1.306 . S
O29 Cd30 2.228 . S
Cd30 O29 2.228 . S
Cd30 O34 2.273 . S
Cd30 O38 2.277 . S
O31 C28 1.160 . S
O31 Cd32 2.203 . S
Cd32 O31 2.203 . S
Cd32 O34 2.411 . S
Cd32 O35 2.333 . S
Cd32 O36 2.352 . S
Cd32 O40 2.277 . S
Cd32 O41 2.356 . S
C33 O38 1.209 . S
C33 O40 1.226 . S
O34 Cd30 2.273 . S
O34 Cd32 2.411 . S
O34 C37 1.320 . S
O35 Cd32 2.333 . S
O35 C37 1.214 . S
O36 Cd32 2.352 . S
O36 C39 1.258 . S
C37 O34 1.320 . S
C37 O35 1.214 . S
O38 Cd30 2.277 . S
O38 C33 1.209 . S
C39 O36 1.258 . S
C39 O41 1.282 . S
O40 Cd32 2.277 . S
O40 C33 1.226 . S
O41 Cd32 2.356 . S
O41 C39 1.282 . S
C42 O43 1.306 . S
C42 O45 1.160 . S
O43 C42 1.306 . S
O43 Cd44 2.228 . S
Cd44 O43 2.228 . S
Cd44 O48 2.273 . S
Cd44 O52 2.277 . S
O45 C42 1.160 . S
O45 Cd46 2.203 . S
Cd46 O45 2.203 . S
Cd46 O48 2.411 . S
Cd46 O49 2.333 . S
Cd46 O50 2.352 . S
Cd46 O54 2.277 . S
Cd46 O55 2.356 . S
C47 O52 1.209 . S
C47 O54 1.226 . S
O48 Cd44 2.273 . S
O48 Cd46 2.411 . S
O48 C51 1.320 . S
O49 Cd46 2.333 . S
O49 C51 1.214 . S
O50 Cd46 2.352 . S
O50 C53 1.258 . S
C51 O48 1.320 . S
C51 O49 1.214 . S
O52 Cd44 2.277 . S
O52 C47 1.209 . S
C53 O50 1.258 . S
C53 O55 1.282 . S
O54 Cd46 2.277 . S
O54 C47 1.226 . S
O55 Cd46 2.356 . S
O55 C53 1.282 . S
C56 O57 1.306 . S
C56 O59 1.160 . S
O57 C56 1.306 . S
O57 Cd58 2.228 . S
Cd58 O57 2.228 . S
Cd58 O62 2.273 . S
Cd58 O66 2.277 . S
O59 C56 1.160 . S
O59 Cd60 2.203 . S
Cd60 O59 2.203 . S
Cd60 O62 2.411 . S
Cd60 O63 2.333 . S
Cd60 O64 2.352 . S
Cd60 O68 2.277 . S
Cd60 O69 2.356 . S
C61 O66 1.209 . S
C61 O68 1.226 . S
O62 Cd58 2.273 . S
O62 Cd60 2.411 . S
O62 C65 1.320 . S
O63 Cd60 2.333 . S
O63 C65 1.214 . S
O64 Cd60 2.352 . S
O64 C67 1.258 . S
C65 O62 1.320 . S
C65 O63 1.214 . S
O66 Cd58 2.277 . S
O66 C61 1.209 . S
C67 O64 1.258 . S
C67 O69 1.282 . S
O68 Cd60 2.277 . S
O68 C61 1.226 . S
O69 Cd60 2.356 . S
O69 C67 1.282 . S
C70 O71 1.306 . S
C70 O73 1.160 . S
O71 C70 1.306 . S
O71 Cd72 2.228 . S
Cd72 O71 2.228 . S
Cd72 O76 2.273 . S
Cd72 O80 2.277 . S
O73 C70 1.160 . S
O73 Cd74 2.203 . S
Cd74 O73 2.203 . S
Cd74 O76 2.411 . S
Cd74 O77 2.333 . S
Cd74 O78 2.352 . S
Cd74 O82 2.277 . S
Cd74 O83 2.356 . S
C75 O80 1.209 . S
C75 O82 1.226 . S
O76 Cd72 2.273 . S
O76 Cd74 2.411 . S
O76 C79 1.320 . S
O77 Cd74 2.333 . S
O77 C79 1.214 . S
O78 Cd74 2.352 . S
O78 C81 1.258 . S
C79 O76 1.320 . S
C79 O77 1.214 . S
O80 Cd72 2.277 . S
O80 C75 1.209 . S
C81 O78 1.258 . S
C81 O83 1.282 . S
O82 Cd74 2.277 . S
O82 C75 1.226 . S
O83 Cd74 2.356 . S
O83 C81 1.282 . S
C84 O85 1.306 . S
C84 O87 1.160 . S
O85 C84 1.306 . S
O85 Cd86 2.228 . S
Cd86 O85 2.228 . S
Cd86 O90 2.273 . S
Cd86 O94 2.277 . S
O87 C84 1.160 . S
O87 Cd88 2.203 . S
Cd88 O87 2.203 . S
Cd88 O90 2.411 . S
Cd88 O91 2.333 . S
Cd88 O92 2.352 . S
Cd88 O96 2.277 . S
Cd88 O97 2.356 . S
C89 O94 1.209 . S
C89 O96 1.226 . S
O90 Cd86 2.273 . S
O90 Cd88 2.411 . S
O90 C93 1.320 . S
O91 Cd88 2.333 . S
O91 C93 1.214 . S
O92 Cd88 2.352 . S
O92 C95 1.258 . S
C93 O90 1.320 . S
C93 O91 1.214 . S
O94 Cd86 2.277 . S
O94 C89 1.209 . S
C95 O92 1.258 . S
C95 O97 1.282 . S
O96 Cd88 2.277 . S
O96 C89 1.226 . S
O97 Cd88 2.356 . S
O97 C95 1.282 . S
C98 O99 1.306 . S
C98 O101 1.160 . S
O99 C98 1.306 . S
O99 Cd100 2.228 . S
Cd100 O99 2.228 . S
Cd100 O104 2.273 . S
Cd100 O108 2.277 . S
O101 C98 1.160 . S
O101 Cd102 2.203 . S
Cd102 O101 2.203 . S
Cd102 O104 2.411 . S
Cd102 O105 2.333 . S
Cd102 O106 2.352 . S
Cd102 O110 2.277 . S
Cd102 O111 2.356 . S
C103 O108 1.209 . S
C103 O110 1.226 . S
O104 Cd100 2.273 . S
O104 Cd102 2.411 . S
O104 C107 1.320 . S
O105 Cd102 2.333 . S
O105 C107 1.214 . S
O106 Cd102 2.352 . S
O106 C109 1.258 . S
C107 O104 1.320 . S
C107 O105 1.214 . S
O108 Cd100 2.277 . S
O108 C103 1.209 . S
C109 O106 1.258 . S
C109 O111 1.282 . S
O110 Cd102 2.277 . S
O110 C103 1.226 . S
O111 Cd102 2.356 . S
O111 C109 1.282 . S
C112 O113 1.306 . S
C112 O115 1.160 . S
O113 C112 1.306 . S
O113 Cd114 2.228 . S
Cd114 O113 2.228 . S
Cd114 O118 2.273 . S
Cd114 O122 2.277 . S
O115 C112 1.160 . S
O115 Cd116 2.203 . S
Cd116 O115 2.203 . S
Cd116 O118 2.411 . S
Cd116 O119 2.333 . S
Cd116 O120 2.352 . S
Cd116 O124 2.277 . S
Cd116 O125 2.356 . S
C117 O122 1.209 . S
C117 O124 1.226 . S
O118 Cd114 2.273 . S
O118 Cd116 2.411 . S
O118 C121 1.320 . S
O119 Cd116 2.333 . S
O119 C121 1.214 . S
O120 Cd116 2.352 . S
O120 C123 1.258 . S
C121 O118 1.320 . S
C121 O119 1.214 . S
O122 Cd114 2.277 . S
O122 C117 1.209 . S
C123 O120 1.258 . S
C123 O125 1.282 . S
O124 Cd116 2.277 . S
O124 C117 1.226 . S
O125 Cd116 2.356 . S
O125 C123 1.282 . S
C126 O127 1.306 . S
C126 O129 1.160 . S
O127 C126 1.306 . S
O127 Cd128 2.228 . S
Cd128 O127 2.228 . S
Cd128 O132 2.273 . S
Cd128 O136 2.277 . S
O129 C126 1.160 . S
O129 Cd130 2.203 . S
Cd130 O129 2.203 . S
Cd130 O132 2.411 . S
Cd130 O133 2.333 . S
Cd130 O134 2.352 . S
Cd130 O138 2.277 . S
Cd130 O139 2.356 . S
C131 O136 1.209 . S
C131 O138 1.226 . S
O132 Cd128 2.273 . S
O132 Cd130 2.411 . S
O132 C135 1.320 . S
O133 Cd130 2.333 . S
O133 C135 1.214 . S
O134 Cd130 2.352 . S
O134 C137 1.258 . S
C135 O132 1.320 . S
C135 O133 1.214 . S
O136 Cd128 2.277 . S
O136 C131 1.209 . S
C137 O134 1.258 . S
C137 O139 1.282 . S
O138 Cd130 2.277 . S
O138 C131 1.226 . S
O139 Cd130 2.356 . S
O139 C137 1.282 . S
C140 O141 1.306 . S
C140 O143 1.160 . S
O141 C140 1.306 . S
O141 Cd142 2.228 . S
Cd142 O141 2.228 . S
Cd142 O146 2.273 . S
Cd142 O150 2.277 . S
O143 C140 1.160 . S
O143 Cd144 2.203 . S
Cd144 O143 2.203 . S
Cd144 O146 2.411 . S
Cd144 O147 2.333 . S
Cd144 O148 2.352 . S
Cd144 O152 2.277 . S
Cd144 O153 2.356 . S
C145 O150 1.209 . S
C145 O152 1.226 . S
O146 Cd142 2.273 . S
O146 Cd144 2.411 . S
O146 C149 1.320 . S
O147 Cd144 2.333 . S
O147 C149 1.214 . S
O148 Cd144 2.352 . S
O148 C151 1.258 . S
C149 O146 1.320 . S
C149 O147 1.214 . S
O150 Cd142 2.277 . S
O150 C145 1.209 . S
C151 O148 1.258 . S
C151 O153 1.282 . S
O152 Cd144 2.277 . S
O152 C145 1.226 . S
O153 Cd144 2.356 . S
O153 C151 1.282 . S
C154 O155 1.306 . S
C154 O157 1.160 . S
O155 C154 1.306 . S
O155 Cd156 2.228 . S
Cd156 O155 2.228 . S
Cd156 O160 2.273 . S
Cd156 O164 2.277 . S
O157 C154 1.160 . S
O157 Cd158 2.203 . S
Cd158 O157 2.203 . S
Cd158 O160 2.411 . S
Cd158 O161 2.333 . S
Cd158 O162 2.352 . S
Cd158 O166 2.277 . S
Cd158 O167 2.356 . S
C159 O164 1.209 . S
C159 O166 1.226 . S
O160 Cd156 2.273 . S
O160 Cd158 2.411 . S
O160 C163 1.320 . S
O161 Cd158 2.333 . S
O161 C163 1.214 . S
O162 Cd158 2.352 . S
O162 C165 1.258 . S
C163 O160 1.320 . S
C163 O161 1.214 . S
O164 Cd156 2.277 . S
O164 C159 1.209 . S
C165 O162 1.258 . S
C165 O167 1.282 . S
O166 Cd158 2.277 . S
O166 C159 1.226 . S
O167 Cd158 2.356 . S
O167 C165 1.282 . S
C168 O169 1.306 . S
C168 O171 1.160 . S
O169 C168 1.306 . S
O169 Cd170 2.228 . S
Cd170 O169 2.228 . S
Cd170 O174 2.273 . S
Cd170 O178 2.277 . S
O171 C168 1.160 . S
O171 Cd172 2.203 . S
Cd172 O171 2.203 . S
Cd172 O174 2.411 . S
Cd172 O175 2.333 . S
Cd172 O176 2.352 . S
Cd172 O180 2.277 . S
Cd172 O181 2.356 . S
C173 O178 1.209 . S
C173 O180 1.226 . S
O174 Cd170 2.273 . S
O174 Cd172 2.411 . S
O174 C177 1.320 . S
O175 Cd172 2.333 . S
O175 C177 1.214 . S
O176 Cd172 2.352 . S
O176 C179 1.258 . S
C177 O174 1.320 . S
C177 O175 1.214 . S
O178 Cd170 2.277 . S
O178 C173 1.209 . S
C179 O176 1.258 . S
C179 O181 1.282 . S
O180 Cd172 2.277 . S
O180 C173 1.226 . S
O181 Cd172 2.356 . S
O181 C179 1.282 . S
C182 O183 1.306 . S
C182 O185 1.160 . S
O183 C182 1.306 . S
O183 Cd184 2.228 . S
Cd184 O183 2.228 . S
Cd184 O188 2.273 . S
Cd184 O192 2.277 . S
O185 C182 1.160 . S
O185 Cd186 2.203 . S
Cd186 O185 2.203 . S
Cd186 O188 2.411 . S
Cd186 O189 2.333 . S
Cd186 O190 2.352 . S
Cd186 O194 2.277 . S
Cd186 O195 2.356 . S
C187 O192 1.209 . S
C187 O194 1.226 . S
O188 Cd184 2.273 . S
O188 Cd186 2.411 . S
O188 C191 1.320 . S
O189 Cd186 2.333 . S
O189 C191 1.214 . S
O190 Cd186 2.352 . S
O190 C193 1.258 . S
C191 O188 1.320 . S
C191 O189 1.214 . S
O192 Cd184 2.277 . S
O192 C187 1.209 . S
C193 O190 1.258 . S
C193 O195 1.282 . S
O194 Cd186 2.277 . S
O194 C187 1.226 . S
O195 Cd186 2.356 . S
O195 C193 1.282 . S
C196 O197 1.306 . S
C196 O199 1.160 . S
O197 C196 1.306 . S
O197 Cd198 2.228 . S
Cd198 O197 2.228 . S
Cd198 O202 2.273 . S
Cd198 O206 2.277 . S
O199 C196 1.160 . S
O199 Cd200 2.203 . S
Cd200 O199 2.203 . S
Cd200 O202 2.411 . S
Cd200 O203 2.333 . S
Cd200 O204 2.352 . S
Cd200 O208 2.277 . S
Cd200 O209 2.356 . S
C201 O206 1.209 . S
C201 O208 1.226 . S
O202 Cd198 2.273 . S
O202 Cd200 2.411 . S
O202 C205 1.320 . S
O203 Cd200 2.333 . S
O203 C205 1.214 . S
O204 Cd200 2.352 . S
O204 C207 1.258 . S
C205 O202 1.320 . S
C205 O203 1.214 . S
O206 Cd198 2.277 . S
O206 C201 1.209 . S
C207 O204 1.258 . S
C207 O209 1.282 . S
O208 Cd200 2.277 . S
O208 C201 1.226 . S
O209 Cd200 2.356 . S
O209 C207 1.282 . S
C210 O211 1.306 . S
C210 O213 1.160 . S
O211 C210 1.306 . S
O211 Cd212 2.228 . S
Cd212 O211 2.228 . S
Cd212 O216 2.273 . S
Cd212 O220 2.277 . S
O213 C210 1.160 . S
O213 Cd214 2.203 . S
Cd214 O213 2.203 . S
Cd214 O216 2.411 . S
Cd214 O217 2.333 . S
Cd214 O218 2.352 . S
Cd214 O222 2.277 . S
Cd214 O223 2.356 . S
C215 O220 1.209 . S
C215 O222 1.226 . S
O216 Cd212 2.273 . S
O216 Cd214 2.411 . S
O216 C219 1.320 . S
O217 Cd214 2.333 . S
O217 C219 1.214 . S
O218 Cd214 2.352 . S
O218 C221 1.258 . S
C219 O216 1.320 . S
C219 O217 1.214 . S
O220 Cd212 2.277 . S
O220 C215 1.209 . S
C221 O218 1.258 . S
C221 O223 1.282 . S
O222 Cd214 2.277 . S
O222 C215 1.226 . S
O223 Cd214 2.356 . S
O223 C221 1.282 . S
C224 O225 1.306 . S
C224 O227 1.160 . S
O225 C224 1.306 . S
O225 Cd226 2.228 . S
Cd226 O225 2.228 . S
Cd226 O230 2.273 . S
Cd226 O234 2.277 . S
O227 C224 1.160 . S
O227 Cd228 2.203 . S
Cd228 O227 2.203 . S
Cd228 O230 2.411 . S
Cd228 O231 2.333 . S
Cd228 O232 2.352 . S
Cd228 O236 2.277 . S
Cd228 O237 2.356 . S
C229 O234 1.209 . S
C229 O236 1.226 . S
O230 Cd226 2.273 . S
O230 Cd228 2.411 . S
O230 C233 1.320 . S
O231 Cd228 2.333 . S
O231 C233 1.214 . S
O232 Cd228 2.352 . S
O232 C235 1.258 . S
C233 O230 1.320 . S
C233 O231 1.214 . S
O234 Cd226 2.277 . S
O234 C229 1.209 . S
C235 O232 1.258 . S
C235 O237 1.282 . S
O236 Cd228 2.277 . S
O236 C229 1.226 . S
O237 Cd228 2.356 . S
O237 C235 1.282 . S
C238 O239 1.306 . S
C238 O241 1.160 . S
O239 C238 1.306 . S
O239 Cd240 2.228 . S
Cd240 O239 2.228 . S
Cd240 O244 2.273 . S
Cd240 O248 2.277 . S
O241 C238 1.160 . S
O241 Cd242 2.203 . S
Cd242 O241 2.203 . S
Cd242 O244 2.411 . S
Cd242 O245 2.333 . S
Cd242 O246 2.352 . S
Cd242 O250 2.277 . S
Cd242 O251 2.356 . S
C243 O248 1.209 . S
C243 O250 1.226 . S
O244 Cd240 2.273 . S
O244 Cd242 2.411 . S
O244 C247 1.320 . S
O245 Cd242 2.333 . S
O245 C247 1.214 . S
O246 Cd242 2.352 . S
O246 C249 1.258 . S
C247 O244 1.320 . S
C247 O245 1.214 . S
O248 Cd240 2.277 . S
O248 C243 1.209 . S
C249 O246 1.258 . S
C249 O251 1.282 . S
O250 Cd242 2.277 . S
O250 C243 1.226 . S
O251 Cd242 2.356 . S
O251 C249 1.282 . S
C252 O253 1.306 . S
C252 O255 1.160 . S
O253 C252 1.306 . S
O253 Cd254 2.228 . S
Cd254 O253 2.228 . S
Cd254 O258 2.273 . S
Cd254 O262 2.277 . S
O255 C252 1.160 . S
O255 Cd256 2.203 . S
Cd256 O255 2.203 . S
Cd256 O258 2.411 . S
Cd256 O259 2.333 . S
Cd256 O260 2.352 . S
Cd256 O264 2.277 . S
Cd256 O265 2.356 . S
C257 O262 1.209 . S
C257 O264 1.226 . S
O258 Cd254 2.273 . S
O258 Cd256 2.411 . S
O258 C261 1.320 . S
O259 Cd256 2.333 . S
O259 C261 1.214 . S
O260 Cd256 2.352 . S
O260 C263 1.258 . S
C261 O258 1.320 . S
C261 O259 1.214 . S
O262 Cd254 2.277 . S
O262 C257 1.209 . S
C263 O260 1.258 . S
C263 O265 1.282 . S
O264 Cd256 2.277 . S
O264 C257 1.226 . S
O265 Cd256 2.356 . S
O265 C263 1.282 . S
C266 O267 1.306 . S
C266 O269 1.160 . S
O267 C266 1.306 . S
O267 Cd268 2.228 . S
Cd268 O267 2.228 . S
Cd268 O272 2.273 . S
Cd268 O276 2.277 . S
O269 C266 1.160 . S
O269 Cd270 2.203 . S
Cd270 O269 2.203 . S
Cd270 O272 2.411 . S
Cd270 O273 2.333 . S
Cd270 O274 2.352 . S
Cd270 O278 2.277 . S
Cd270 O279 2.356 . S
C271 O276 1.209 . S
C271 O278 1.226 . S
O272 Cd268 2.273 . S
O272 Cd270 2.411 . S
O272 C275 1.320 . S
O273 Cd270 2.333 . S
O273 C275 1.214 . S
O274 Cd270 2.352 . S
O274 C277 1.258 . S
C275 O272 1.320 . S
C275 O273 1.214 . S
O276 Cd268 2.277 . S
O276 C271 1.209 . S
C277 O274 1.258 . S
C277 O279 1.282 . S
O278 Cd270 2.277 . S
O278 C271 1.226 . S
O279 Cd270 2.356 . S
O279 C277 1.282 . S
C280 O281 1.306 . S
C280 O283 1.160 . S
O281 C280 1.306 . S
O281 Cd282 2.228 . S
Cd282 O281 2.228 . S
Cd282 O286 2.273 . S
Cd282 O290 2.277 . S
O283 C280 1.160 . S
O283 Cd284 2.203 . S
Cd284 O283 2.203 . S
Cd284 O286 2.411 . S
Cd284 O287 2.333 . S
Cd284 O288 2.352 . S
Cd284 O292 2.277 . S
Cd284 O293 2.356 . S
C285 O290 1.209 . S
C285 O292 1.226 . S
O286 Cd282 2.273 . S
O286 Cd284 2.411 . S
O286 C289 1.320 . S
O287 Cd284 2.333 . S
O287 C289 1.214 . S
O288 Cd284 2.352 . S
O288 C291 1.258 . S
C289 O286 1.320 . S
C289 O287 1.214 . S
O290 Cd282 2.277 . S
O290 C285 1.209 . S
C291 O288 1.258 . S
C291 O293 1.282 . S
O292 Cd284 2.277 . S
O292 C285 1.226 . S
O293 Cd284 2.356 . S
O293 C291 1.282 . S
C294 O295 1.306 . S
C294 O297 1.160 . S
O295 C294 1.306 . S
O295 Cd296 2.228 . S
Cd296 O295 2.228 . S
Cd296 O300 2.273 . S
Cd296 O304 2.277 . S
O297 C294 1.160 . S
O297 Cd298 2.203 . S
Cd298 O297 2.203 . S
Cd298 O300 2.411 . S
Cd298 O301 2.333 . S
Cd298 O302 2.352 . S
Cd298 O306 2.277 . S
Cd298 O307 2.356 . S
C299 O304 1.209 . S
C299 O306 1.226 . S
O300 Cd296 2.273 . S
O300 Cd298 2.411 . S
O300 C303 1.320 . S
O301 Cd298 2.333 . S
O301 C303 1.214 . S
O302 Cd298 2.352 . S
O302 C305 1.258 . S
C303 O300 1.320 . S
C303 O301 1.214 . S
O304 Cd296 2.277 . S
O304 C299 1.209 . S
C305 O302 1.258 . S
C305 O307 1.282 . S
O306 Cd298 2.277 . S
O306 C299 1.226 . S
O307 Cd298 2.356 . S
O307 C305 1.282 . S
C308 O309 1.306 . S
C308 O311 1.160 . S
O309 C308 1.306 . S
O309 Cd310 2.228 . S
Cd310 O309 2.228 . S
Cd310 O314 2.273 . S
Cd310 O318 2.277 . S
O311 C308 1.160 . S
O311 Cd312 2.203 . S
Cd312 O311 2.203 . S
Cd312 O314 2.411 . S
Cd312 O315 2.333 . S
Cd312 O316 2.352 . S
Cd312 O320 2.277 . S
Cd312 O321 2.356 . S
C313 O318 1.209 . S
C313 O320 1.226 . S
O314 Cd310 2.273 . S
O314 Cd312 2.411 . S
O314 C317 1.320 . S
O315 Cd312 2.333 . S
O315 C317 1.214 . S
O316 Cd312 2.352 . S
O316 C319 1.258 . S
C317 O314 1.320 . S
C317 O315 1.214 . S
O318 Cd310 2.277 . S
O318 C313 1.209 . S
C319 O316 1.258 . S
C319 O321 1.282 . S
O320 Cd312 2.277 . S
O320 C313 1.226 . S
O321 Cd312 2.356 . S
O321 C319 1.282 . S
C322 O323 1.306 . S
C322 O325 1.160 . S
O323 C322 1.306 . S
O323 Cd324 2.228 . S
Cd324 O323 2.228 . S
Cd324 O328 2.273 . S
Cd324 O332 2.277 . S
O325 C322 1.160 . S
O325 Cd326 2.203 . S
Cd326 O325 2.203 . S
Cd326 O328 2.411 . S
Cd326 O329 2.333 . S
Cd326 O330 2.352 . S
Cd326 O334 2.277 . S
Cd326 O335 2.356 . S
C327 O332 1.209 . S
C327 O334 1.226 . S
O328 Cd324 2.273 . S
O328 Cd326 2.411 . S
O328 C331 1.320 . S
O329 Cd326 2.333 . S
O329 C331 1.214 . S
O330 Cd326 2.352 . S
O330 C333 1.258 . S
C331 O328 1.320 . S
C331 O329 1.214 . S
O332 Cd324 2.277 . S
O332 C327 1.209 . S
C333 O330 1.258 . S
C333 O335 1.282 . S
O334 Cd326 2.277 . S
O334 C327 1.226 . S
O335 Cd326 2.356 . S
O335 C333 1.282 . S
C336 O337 1.306 . S
C336 O339 1.160 . S
O337 C336 1.306 . S
O337 Cd338 2.228 . S
Cd338 O337 2.228 . S
Cd338 O342 2.273 . S
Cd338 O346 2.277 . S
O339 C336 1.160 . S
O339 Cd340 2.203 . S
Cd340 O339 2.203 . S
Cd340 O342 2.411 . S
Cd340 O343 2.333 . S
Cd340 O344 2.352 . S
Cd340 O348 2.277 . S
Cd340 O349 2.356 . S
C341 O346 1.209 . S
C341 O348 1.226 . S
O342 Cd338 2.273 . S
O342 Cd340 2.411 . S
O342 C345 1.320 . S
O343 Cd340 2.333 . S
O343 C345 1.214 . S
O344 Cd340 2.352 . S
O344 C347 1.258 . S
C345 O342 1.320 . S
C345 O343 1.214 . S
O346 Cd338 2.277 . S
O346 C341 1.209 . S
C347 O344 1.258 . S
C347 O349 1.282 . S
O348 Cd340 2.277 . S
O348 C341 1.226 . S
O349 Cd340 2.356 . S
O349 C347 1.282 . S
C350 O351 1.306 . S
C350 O353 1.160 . S
O351 C350 1.306 . S
O351 Cd352 2.228 . S
Cd352 O351 2.228 . S
Cd352 O356 2.273 . S
Cd352 O360 2.277 . S
O353 C350 1.160 . S
O353 Cd354 2.203 . S
Cd354 O353 2.203 . S
Cd354 O356 2.411 . S
Cd354 O357 2.333 . S
Cd354 O358 2.352 . S
Cd354 O362 2.277 . S
Cd354 O363 2.356 . S
C355 O360 1.209 . S
C355 O362 1.226 . S
O356 Cd352 2.273 . S
O356 Cd354 2.411 . S
O356 C359 1.320 . S
O357 Cd354 2.333 . S
O357 C359 1.214 . S
O358 Cd354 2.352 . S
O358 C361 1.258 . S
C359 O356 1.320 . S
C359 O357 1.214 . S
O360 Cd352 2.277 . S
O360 C355 1.209 . S
C361 O358 1.258 . S
C361 O363 1.282 . S
O362 Cd354 2.277 . S
O362 C355 1.226 . S
O363 Cd354 2.356 . S
O363 C361 1.282 . S
C364 O365 1.306 . S
C364 O367 1.160 . S
O365 C364 1.306 . S
O365 Cd366 2.228 . S
Cd366 O365 2.228 . S
Cd366 O370 2.273 . S
Cd366 O374 2.277 . S
O367 C364 1.160 . S
O367 Cd368 2.203 . S
Cd368 O367 2.203 . S
Cd368 O370 2.411 . S
Cd368 O371 2.333 . S
Cd368 O372 2.352 . S
Cd368 O376 2.277 . S
Cd368 O377 2.356 . S
C369 O374 1.209 . S
C369 O376 1.226 . S
O370 Cd366 2.273 . S
O370 Cd368 2.411 . S
O370 C373 1.320 . S
O371 Cd368 2.333 . S
O371 C373 1.214 . S
O372 Cd368 2.352 . S
O372 C375 1.258 . S
C373 O370 1.320 . S
C373 O371 1.214 . S
O374 Cd366 2.277 . S
O374 C369 1.209 . S
C375 O372 1.258 . S
C375 O377 1.282 . S
O376 Cd368 2.277 . S
O376 C369 1.226 . S
O377 Cd368 2.356 . S
O377 C375 1.282 . S
C378 O379 1.306 . S
C378 O381 1.160 . S
O379 C378 1.306 . S
O379 Cd380 2.228 . S
Cd380 O379 2.228 . S
Cd380 O384 2.273 . S
Cd380 O388 2.277 . S
O381 C378 1.160 . S
O381 Cd382 2.203 . S
Cd382 O381 2.203 . S
Cd382 O384 2.411 . S
Cd382 O385 2.333 . S
Cd382 O386 2.352 . S
Cd382 O390 2.277 . S
Cd382 O391 2.356 . S
C383 O388 1.209 . S
C383 O390 1.226 . S
O384 Cd380 2.273 . S
O384 Cd382 2.411 . S
O384 C387 1.320 . S
O385 Cd382 2.333 . S
O385 C387 1.214 . S
O386 Cd382 2.352 . S
O386 C389 1.258 . S
C387 O384 1.320 . S
C387 O385 1.214 . S
O388 Cd380 2.277 . S
O388 C383 1.209 . S
C389 O386 1.258 . S
C389 O391 1.282 . S
O390 Cd382 2.277 . S
O390 C383 1.226 . S
O391 Cd382 2.356 . S
O391 C389 1.282 . S
C392 O393 1.306 . S
C392 O395 1.160 . S
O393 C392 1.306 . S
O393 Cd394 2.228 . S
Cd394 O393 2.228 . S
Cd394 O398 2.273 . S
Cd394 O402 2.277 . S
O395 C392 1.160 . S
O395 Cd396 2.203 . S
Cd396 O395 2.203 . S
Cd396 O398 2.411 . S
Cd396 O399 2.333 . S
Cd396 O400 2.352 . S
Cd396 O404 2.277 . S
Cd396 O405 2.356 . S
C397 O402 1.209 . S
C397 O404 1.226 . S
O398 Cd394 2.273 . S
O398 Cd396 2.411 . S
O398 C401 1.320 . S
O399 Cd396 2.333 . S
O399 C401 1.214 . S
O400 Cd396 2.352 . S
O400 C403 1.258 . S
C401 O398 1.320 . S
C401 O399 1.214 . S
O402 Cd394 2.277 . S
O402 C397 1.209 . S
C403 O400 1.258 . S
C403 O405 1.282 . S
O404 Cd396 2.277 . S
O404 C397 1.226 . S
O405 Cd396 2.356 . S
O405 C403 1.282 . S
C406 O407 1.306 . S
C406 O409 1.160 . S
O407 C406 1.306 . S
O407 Cd408 2.228 . S
Cd408 O407 2.228 . S
Cd408 O412 2.273 . S
Cd408 O416 2.277 . S
O409 C406 1.160 . S
O409 Cd410 2.203 . S
Cd410 O409 2.203 . S
Cd410 O412 2.411 . S
Cd410 O413 2.333 . S
Cd410 O414 2.352 . S
Cd410 O418 2.277 . S
Cd410 O419 2.356 . S
C411 O416 1.209 . S
C411 O418 1.226 . S
O412 Cd408 2.273 . S
O412 Cd410 2.411 . S
O412 C415 1.320 . S
O413 Cd410 2.333 . S
O413 C415 1.214 . S
O414 Cd410 2.352 . S
O414 C417 1.258 . S
C415 O412 1.320 . S
C415 O413 1.214 . S
O416 Cd408 2.277 . S
O416 C411 1.209 . S
C417 O414 1.258 . S
C417 O419 1.282 . S
O418 Cd410 2.277 . S
O418 C411 1.226 . S
O419 Cd410 2.356 . S
O419 C417 1.282 . S
C420 O421 1.306 . S
C420 O423 1.160 . S
O421 C420 1.306 . S
O421 Cd422 2.228 . S
Cd422 O421 2.228 . S
Cd422 O426 2.273 . S
Cd422 O430 2.277 . S
O423 C420 1.160 . S
O423 Cd424 2.203 . S
Cd424 O423 2.203 . S
Cd424 O426 2.411 . S
Cd424 O427 2.333 . S
Cd424 O428 2.352 . S
Cd424 O432 2.277 . S
Cd424 O433 2.356 . S
C425 O430 1.209 . S
C425 O432 1.226 . S
O426 Cd422 2.273 . S
O426 Cd424 2.411 . S
O426 C429 1.320 . S
O427 Cd424 2.333 . S
O427 C429 1.214 . S
O428 Cd424 2.352 . S
O428 C431 1.258 . S
C429 O426 1.320 . S
C429 O427 1.214 . S
O430 Cd422 2.277 . S
O430 C425 1.209 . S
C431 O428 1.258 . S
C431 O433 1.282 . S
O432 Cd424 2.277 . S
O432 C425 1.226 . S
O433 Cd424 2.356 . S
O433 C431 1.282 . S
C434 O435 1.306 . S
C434 O437 1.160 . S
O435 C434 1.306 . S
O435 Cd436 2.228 . S
Cd436 O435 2.228 . S
Cd436 O440 2.273 . S
Cd436 O444 2.277 . S
O437 C434 1.160 . S
O437 Cd438 2.203 . S
Cd438 O437 2.203 . S
Cd438 O440 2.411 . S
Cd438 O441 2.333 . S
Cd438 O442 2.352 . S
Cd438 O446 2.277 . S
Cd438 O447 2.356 . S
C439 O444 1.209 . S
C439 O446 1.226 . S
O440 Cd436 2.273 . S
O440 Cd438 2.411 . S
O440 C443 1.320 . S
O441 Cd438 2.333 . S
O441 C443 1.214 . S
O442 Cd438 2.352 . S
O442 C445 1.258 . S
C443 O440 1.320 . S
C443 O441 1.214 . S
O444 Cd436 2.277 . S
O444 C439 1.209 . S
C445 O442 1.258 . S
C445 O447 1.282 . S
O446 Cd438 2.277 . S
O446 C439 1.226 . S
O447 Cd438 2.356 . S
O447 C445 1.282 . S
H448 C456 0.950 . S
H449 C461 0.950 . S
H450 C458 0.950 . S
H451 C460 0.950 . S
H452 C462 0.950 . S
H453 C464 0.950 . S
H454 C466 0.950 . S
H455 C467 0.950 . S
C456 H448 0.950 . S
C456 C457 1.386 . S
C456 C458 1.391 . S
C457 C456 1.386 . S
C457 C461 1.393 . S
C458 H450 0.950 . S
C458 C456 1.391 . S
C458 C459 1.400 . S
C459 C458 1.400 . S
C459 C460 1.398 . S
C459 C465 1.491 . S
C460 H451 0.950 . S
C460 C459 1.398 . S
C460 C461 1.391 . S
C461 H449 0.950 . S
C461 C457 1.393 . S
C461 C460 1.391 . S
C462 H452 0.950 . S
C462 C463 1.386 . S
C462 C464 1.391 . S
C463 C462 1.386 . S
C463 C467 1.393 . S
C464 H453 0.950 . S
C464 C462 1.391 . S
C464 C465 1.400 . S
C465 C459 1.491 . S
C465 C464 1.400 . S
C465 C466 1.398 . S
C466 H454 0.950 . S
C466 C465 1.398 . S
C466 C467 1.391 . S
C467 H455 0.950 . S
C467 C463 1.393 . S
C467 C466 1.391 . S
H468 C476 0.950 . S
H469 C481 0.950 . S
H470 C478 0.950 . S
H471 C480 0.950 . S
H472 C482 0.950 . S
H473 C484 0.950 . S
H474 C486 0.950 . S
H475 C487 0.950 . S
C476 H468 0.950 . S
C476 C477 1.386 . S
C476 C478 1.391 . S
C477 C476 1.386 . S
C477 C481 1.393 . S
C478 H470 0.950 . S
C478 C476 1.391 . S
C478 C479 1.400 . S
C479 C478 1.400 . S
C479 C480 1.398 . S
C479 C485 1.491 . S
C480 H471 0.950 . S
C480 C479 1.398 . S
C480 C481 1.391 . S
C481 H469 0.950 . S
C481 C477 1.393 . S
C481 C480 1.391 . S
C482 H472 0.950 . S
C482 C483 1.386 . S
C482 C484 1.391 . S
C483 C482 1.386 . S
C483 C487 1.393 . S
C484 H473 0.950 . S
C484 C482 1.391 . S
C484 C485 1.400 . S
C485 C479 1.491 . S
C485 C484 1.400 . S
C485 C486 1.398 . S
C486 H474 0.950 . S
C486 C485 1.398 . S
C486 C487 1.391 . S
C487 H475 0.950 . S
C487 C483 1.393 . S
C487 C486 1.391 . S
H488 C496 0.950 . S
H489 C501 0.950 . S
H490 C498 0.950 . S
H491 C500 0.950 . S
H492 C502 0.950 . S
H493 C504 0.950 . S
H494 C506 0.950 . S
H495 C507 0.950 . S
C496 H488 0.950 . S
C496 C497 1.386 . S
C496 C498 1.391 . S
C497 C496 1.386 . S
C497 C501 1.393 . S
C498 H490 0.950 . S
C498 C496 1.391 . S
C498 C499 1.400 . S
C499 C498 1.400 . S
C499 C500 1.398 . S
C499 C505 1.491 . S
C500 H491 0.950 . S
C500 C499 1.398 . S
C500 C501 1.391 . S
C501 H489 0.950 . S
C501 C497 1.393 . S
C501 C500 1.391 . S
C502 H492 0.950 . S
C502 C503 1.386 . S
C502 C504 1.391 . S
C503 C502 1.386 . S
C503 C507 1.393 . S
C504 H493 0.950 . S
C504 C502 1.391 . S
C504 C505 1.400 . S
C505 C499 1.491 . S
C505 C504 1.400 . S
C505 C506 1.398 . S
C506 H494 0.950 . S
C506 C505 1.398 . S
C506 C507 1.391 . S
C507 H495 0.950 . S
C507 C503 1.393 . S
C507 C506 1.391 . S
H508 C516 0.950 . S
H509 C521 0.950 . S
H510 C518 0.950 . S
H511 C520 0.950 . S
H512 C522 0.950 . S
H513 C524 0.950 . S
H514 C526 0.950 . S
H515 C527 0.950 . S
C516 H508 0.950 . S
C516 C517 1.386 . S
C516 C518 1.391 . S
C517 C516 1.386 . S
C517 C521 1.393 . S
C518 H510 0.950 . S
C518 C516 1.391 . S
C518 C519 1.400 . S
C519 C518 1.400 . S
C519 C520 1.398 . S
C519 C525 1.491 . S
C520 H511 0.950 . S
C520 C519 1.398 . S
C520 C521 1.391 . S
C521 H509 0.950 . S
C521 C517 1.393 . S
C521 C520 1.391 . S
C522 H512 0.950 . S
C522 C523 1.386 . S
C522 C524 1.391 . S
C523 C522 1.386 . S
C523 C527 1.393 . S
C524 H513 0.950 . S
C524 C522 1.391 . S
C524 C525 1.400 . S
C525 C519 1.491 . S
C525 C524 1.400 . S
C525 C526 1.398 . S
C526 H514 0.950 . S
C526 C525 1.398 . S
C526 C527 1.391 . S
C527 H515 0.950 . S
C527 C523 1.393 . S
C527 C526 1.391 . S
H528 C536 0.950 . S
H529 C541 0.950 . S
H530 C538 0.950 . S
H531 C540 0.950 . S
H532 C542 0.950 . S
H533 C544 0.950 . S
H534 C546 0.950 . S
H535 C547 0.950 . S
C536 H528 0.950 . S
C536 C537 1.386 . S
C536 C538 1.391 . S
C537 C536 1.386 . S
C537 C541 1.393 . S
C538 H530 0.950 . S
C538 C536 1.391 . S
C538 C539 1.400 . S
C539 C538 1.400 . S
C539 C540 1.398 . S
C539 C545 1.491 . S
C540 H531 0.950 . S
C540 C539 1.398 . S
C540 C541 1.391 . S
C541 H529 0.950 . S
C541 C537 1.393 . S
C541 C540 1.391 . S
C542 H532 0.950 . S
C542 C543 1.386 . S
C542 C544 1.391 . S
C543 C542 1.386 . S
C543 C547 1.393 . S
C544 H533 0.950 . S
C544 C542 1.391 . S
C544 C545 1.400 . S
C545 C539 1.491 . S
C545 C544 1.400 . S
C545 C546 1.398 . S
C546 H534 0.950 . S
C546 C545 1.398 . S
C546 C547 1.391 . S
C547 H535 0.950 . S
C547 C543 1.393 . S
C547 C546 1.391 . S
H548 C556 0.950 . S
H549 C561 0.950 . S
H550 C558 0.950 . S
H551 C560 0.950 . S
H552 C562 0.950 . S
H553 C564 0.950 . S
H554 C566 0.950 . S
H555 C567 0.950 . S
C556 H548 0.950 . S
C556 C557 1.386 . S
C556 C558 1.391 . S
C557 C556 1.386 . S
C557 C561 1.393 . S
C558 H550 0.950 . S
C558 C556 1.391 . S
C558 C559 1.400 . S
C559 C558 1.400 . S
C559 C560 1.398 . S
C559 C565 1.491 . S
C560 H551 0.950 . S
C560 C559 1.398 . S
C560 C561 1.391 . S
C561 H549 0.950 . S
C561 C557 1.393 . S
C561 C560 1.391 . S
C562 H552 0.950 . S
C562 C563 1.386 . S
C562 C564 1.391 . S
C563 C562 1.386 . S
C563 C567 1.393 . S
C564 H553 0.950 . S
C564 C562 1.391 . S
C564 C565 1.400 . S
C565 C559 1.491 . S
C565 C564 1.400 . S
C565 C566 1.398 . S
C566 H554 0.950 . S
C566 C565 1.398 . S
C566 C567 1.391 . S
C567 H555 0.950 . S
C567 C563 1.393 . S
C567 C566 1.391 . S
H568 C576 0.950 . S
H569 C581 0.950 . S
H570 C578 0.950 . S
H571 C580 0.950 . S
H572 C582 0.950 . S
H573 C584 0.950 . S
H574 C586 0.950 . S
H575 C587 0.950 . S
C576 H568 0.950 . S
C576 C577 1.386 . S
C576 C578 1.391 . S
C577 C576 1.386 . S
C577 C581 1.393 . S
C578 H570 0.950 . S
C578 C576 1.391 . S
C578 C579 1.400 . S
C579 C578 1.400 . S
C579 C580 1.398 . S
C579 C585 1.491 . S
C580 H571 0.950 . S
C580 C579 1.398 . S
C580 C581 1.391 . S
C581 H569 0.950 . S
C581 C577 1.393 . S
C581 C580 1.391 . S
C582 H572 0.950 . S
C582 C583 1.386 . S
C582 C584 1.391 . S
C583 C582 1.386 . S
C583 C587 1.393 . S
C584 H573 0.950 . S
C584 C582 1.391 . S
C584 C585 1.400 . S
C585 C579 1.491 . S
C585 C584 1.400 . S
C585 C586 1.398 . S
C586 H574 0.950 . S
C586 C585 1.398 . S
C586 C587 1.391 . S
C587 H575 0.950 . S
C587 C583 1.393 . S
C587 C586 1.391 . S
H588 C596 0.950 . S
H589 C601 0.950 . S
H590 C598 0.950 . S
H591 C600 0.950 . S
H592 C602 0.950 . S
H593 C604 0.950 . S
H594 C606 0.950 . S
H595 C607 0.950 . S
C596 H588 0.950 . S
C596 C597 1.386 . S
C596 C598 1.391 . S
C597 C596 1.386 . S
C597 C601 1.393 . S
C598 H590 0.950 . S
C598 C596 1.391 . S
C598 C599 1.400 . S
C599 C598 1.400 . S
C599 C600 1.398 . S
C599 C605 1.491 . S
C600 H591 0.950 . S
C600 C599 1.398 . S
C600 C601 1.391 . S
C601 H589 0.950 . S
C601 C597 1.393 . S
C601 C600 1.391 . S
C602 H592 0.950 . S
C602 C603 1.386 . S
C602 C604 1.391 . S
C603 C602 1.386 . S
C603 C607 1.393 . S
C604 H593 0.950 . S
C604 C602 1.391 . S
C604 C605 1.400 . S
C605 C599 1.491 . S
C605 C604 1.400 . S
C605 C606 1.398 . S
C606 H594 0.950 . S
C606 C605 1.398 . S
C606 C607 1.391 . S
C607 H595 0.950 . S
C607 C603 1.393 . S
C607 C606 1.391 . S
H608 C616 0.950 . S
H609 C621 0.950 . S
H610 C618 0.950 . S
H611 C620 0.950 . S
H612 C622 0.950 . S
H613 C624 0.950 . S
H614 C626 0.950 . S
H615 C627 0.950 . S
C616 H608 0.950 . S
C616 C617 1.386 . S
C616 C618 1.391 . S
C617 C616 1.386 . S
C617 C621 1.393 . S
C618 H610 0.950 . S
C618 C616 1.391 . S
C618 C619 1.400 . S
C619 C618 1.400 . S
C619 C620 1.398 . S
C619 C625 1.491 . S
C620 H611 0.950 . S
C620 C619 1.398 . S
C620 C621 1.391 . S
C621 H609 0.950 . S
C621 C617 1.393 . S
C621 C620 1.391 . S
C622 H612 0.950 . S
C622 C623 1.386 . S
C622 C624 1.391 . S
C623 C622 1.386 . S
C623 C627 1.393 . S
C624 H613 0.950 . S
C624 C622 1.391 . S
C624 C625 1.400 . S
C625 C619 1.491 . S
C625 C624 1.400 . S
C625 C626 1.398 . S
C626 H614 0.950 . S
C626 C625 1.398 . S
C626 C627 1.391 . S
C627 H615 0.950 . S
C627 C623 1.393 . S
C627 C626 1.391 . S
H628 C636 0.950 . S
H629 C641 0.950 . S
H630 C638 0.950 . S
H631 C640 0.950 . S
H632 C642 0.950 . S
H633 C644 0.950 . S
H634 C646 0.950 . S
H635 C647 0.950 . S
C636 H628 0.950 . S
C636 C637 1.386 . S
C636 C638 1.391 . S
C637 C636 1.386 . S
C637 C641 1.393 . S
C638 H630 0.950 . S
C638 C636 1.391 . S
C638 C639 1.400 . S
C639 C638 1.400 . S
C639 C640 1.398 . S
C639 C645 1.491 . S
C640 H631 0.950 . S
C640 C639 1.398 . S
C640 C641 1.391 . S
C641 H629 0.950 . S
C641 C637 1.393 . S
C641 C640 1.391 . S
C642 H632 0.950 . S
C642 C643 1.386 . S
C642 C644 1.391 . S
C643 C642 1.386 . S
C643 C647 1.393 . S
C644 H633 0.950 . S
C644 C642 1.391 . S
C644 C645 1.400 . S
C645 C639 1.491 . S
C645 C644 1.400 . S
C645 C646 1.398 . S
C646 H634 0.950 . S
C646 C645 1.398 . S
C646 C647 1.391 . S
C647 H635 0.950 . S
C647 C643 1.393 . S
C647 C646 1.391 . S
H648 C656 0.950 . S
H649 C661 0.950 . S
H650 C658 0.950 . S
H651 C660 0.950 . S
H652 C662 0.950 . S
H653 C664 0.950 . S
H654 C666 0.950 . S
H655 C667 0.950 . S
C656 H648 0.950 . S
C656 C657 1.386 . S
C656 C658 1.391 . S
C657 C656 1.386 . S
C657 C661 1.393 . S
C658 H650 0.950 . S
C658 C656 1.391 . S
C658 C659 1.400 . S
C659 C658 1.400 . S
C659 C660 1.398 . S
C659 C665 1.491 . S
C660 H651 0.950 . S
C660 C659 1.398 . S
C660 C661 1.391 . S
C661 H649 0.950 . S
C661 C657 1.393 . S
C661 C660 1.391 . S
C662 H652 0.950 . S
C662 C663 1.386 . S
C662 C664 1.391 . S
C663 C662 1.386 . S
C663 C667 1.393 . S
C664 H653 0.950 . S
C664 C662 1.391 . S
C664 C665 1.400 . S
C665 C659 1.491 . S
C665 C664 1.400 . S
C665 C666 1.398 . S
C666 H654 0.950 . S
C666 C665 1.398 . S
C666 C667 1.391 . S
C667 H655 0.950 . S
C667 C663 1.393 . S
C667 C666 1.391 . S
H668 C676 0.950 . S
H669 C681 0.950 . S
H670 C678 0.950 . S
H671 C680 0.950 . S
H672 C682 0.950 . S
H673 C684 0.950 . S
H674 C686 0.950 . S
H675 C687 0.950 . S
C676 H668 0.950 . S
C676 C677 1.386 . S
C676 C678 1.391 . S
C677 C676 1.386 . S
C677 C681 1.393 . S
C678 H670 0.950 . S
C678 C676 1.391 . S
C678 C679 1.400 . S
C679 C678 1.400 . S
C679 C680 1.398 . S
C679 C685 1.491 . S
C680 H671 0.950 . S
C680 C679 1.398 . S
C680 C681 1.391 . S
C681 H669 0.950 . S
C681 C677 1.393 . S
C681 C680 1.391 . S
C682 H672 0.950 . S
C682 C683 1.386 . S
C682 C684 1.391 . S
C683 C682 1.386 . S
C683 C687 1.393 . S
C684 H673 0.950 . S
C684 C682 1.391 . S
C684 C685 1.400 . S
C685 C679 1.491 . S
C685 C684 1.400 . S
C685 C686 1.398 . S
C686 H674 0.950 . S
C686 C685 1.398 . S
C686 C687 1.391 . S
C687 H675 0.950 . S
C687 C683 1.393 . S
C687 C686 1.391 . S
H688 C696 0.950 . S
H689 C701 0.950 . S
H690 C698 0.950 . S
H691 C700 0.950 . S
H692 C702 0.950 . S
H693 C704 0.950 . S
H694 C706 0.950 . S
H695 C707 0.950 . S
C696 H688 0.950 . S
C696 C697 1.386 . S
C696 C698 1.391 . S
C697 C696 1.386 . S
C697 C701 1.393 . S
C698 H690 0.950 . S
C698 C696 1.391 . S
C698 C699 1.400 . S
C699 C698 1.400 . S
C699 C700 1.398 . S
C699 C705 1.491 . S
C700 H691 0.950 . S
C700 C699 1.398 . S
C700 C701 1.391 . S
C701 H689 0.950 . S
C701 C697 1.393 . S
C701 C700 1.391 . S
C702 H692 0.950 . S
C702 C703 1.386 . S
C702 C704 1.391 . S
C703 C702 1.386 . S
C703 C707 1.393 . S
C704 H693 0.950 . S
C704 C702 1.391 . S
C704 C705 1.400 . S
C705 C699 1.491 . S
C705 C704 1.400 . S
C705 C706 1.398 . S
C706 H694 0.950 . S
C706 C705 1.398 . S
C706 C707 1.391 . S
C707 H695 0.950 . S
C707 C703 1.393 . S
C707 C706 1.391 . S
H708 C716 0.950 . S
H709 C721 0.950 . S
H710 C718 0.950 . S
H711 C720 0.950 . S
H712 C722 0.950 . S
H713 C724 0.950 . S
H714 C726 0.950 . S
H715 C727 0.950 . S
C716 H708 0.950 . S
C716 C717 1.386 . S
C716 C718 1.391 . S
C717 C716 1.386 . S
C717 C721 1.393 . S
C718 H710 0.950 . S
C718 C716 1.391 . S
C718 C719 1.400 . S
C719 C718 1.400 . S
C719 C720 1.398 . S
C719 C725 1.491 . S
C720 H711 0.950 . S
C720 C719 1.398 . S
C720 C721 1.391 . S
C721 H709 0.950 . S
C721 C717 1.393 . S
C721 C720 1.391 . S
C722 H712 0.950 . S
C722 C723 1.386 . S
C722 C724 1.391 . S
C723 C722 1.386 . S
C723 C727 1.393 . S
C724 H713 0.950 . S
C724 C722 1.391 . S
C724 C725 1.400 . S
C725 C719 1.491 . S
C725 C724 1.400 . S
C725 C726 1.398 . S
C726 H714 0.950 . S
C726 C725 1.398 . S
C726 C727 1.391 . S
C727 H715 0.950 . S
C727 C723 1.393 . S
C727 C726 1.391 . S
H728 C736 0.950 . S
H729 C741 0.950 . S
H730 C738 0.950 . S
H731 C740 0.950 . S
H732 C742 0.950 . S
H733 C744 0.950 . S
H734 C746 0.950 . S
H735 C747 0.950 . S
C736 H728 0.950 . S
C736 C737 1.386 . S
C736 C738 1.391 . S
C737 C736 1.386 . S
C737 C741 1.393 . S
C738 H730 0.950 . S
C738 C736 1.391 . S
C738 C739 1.400 . S
C739 C738 1.400 . S
C739 C740 1.398 . S
C739 C745 1.491 . S
C740 H731 0.950 . S
C740 C739 1.398 . S
C740 C741 1.391 . S
C741 H729 0.950 . S
C741 C737 1.393 . S
C741 C740 1.391 . S
C742 H732 0.950 . S
C742 C743 1.386 . S
C742 C744 1.391 . S
C743 C742 1.386 . S
C743 C747 1.393 . S
C744 H733 0.950 . S
C744 C742 1.391 . S
C744 C745 1.400 . S
C745 C739 1.491 . S
C745 C744 1.400 . S
C745 C746 1.398 . S
C746 H734 0.950 . S
C746 C745 1.398 . S
C746 C747 1.391 . S
C747 H735 0.950 . S
C747 C743 1.393 . S
C747 C746 1.391 . S
H748 C756 0.950 . S
H749 C761 0.950 . S
H750 C758 0.950 . S
H751 C760 0.950 . S
H752 C762 0.950 . S
H753 C764 0.950 . S
H754 C766 0.950 . S
H755 C767 0.950 . S
C756 H748 0.950 . S
C756 C757 1.386 . S
C756 C758 1.391 . S
C757 C756 1.386 . S
C757 C761 1.393 . S
C758 H750 0.950 . S
C758 C756 1.391 . S
C758 C759 1.400 . S
C759 C758 1.400 . S
C759 C760 1.398 . S
C759 C765 1.491 . S
C760 H751 0.950 . S
C760 C759 1.398 . S
C760 C761 1.391 . S
C761 H749 0.950 . S
C761 C757 1.393 . S
C761 C760 1.391 . S
C762 H752 0.950 . S
C762 C763 1.386 . S
C762 C764 1.391 . S
C763 C762 1.386 . S
C763 C767 1.393 . S
C764 H753 0.950 . S
C764 C762 1.391 . S
C764 C765 1.400 . S
C765 C759 1.491 . S
C765 C764 1.400 . S
C765 C766 1.398 . S
C766 H754 0.950 . S
C766 C765 1.398 . S
C766 C767 1.391 . S
C767 H755 0.950 . S
C767 C763 1.393 . S
C767 C766 1.391 . S
H768 C776 0.950 . S
H769 C781 0.950 . S
H770 C778 0.950 . S
H771 C780 0.950 . S
H772 C782 0.950 . S
H773 C784 0.950 . S
H774 C786 0.950 . S
H775 C787 0.950 . S
C776 H768 0.950 . S
C776 C777 1.386 . S
C776 C778 1.391 . S
C777 C776 1.386 . S
C777 C781 1.393 . S
C778 H770 0.950 . S
C778 C776 1.391 . S
C778 C779 1.400 . S
C779 C778 1.400 . S
C779 C780 1.398 . S
C779 C785 1.491 1_455 S
C780 H771 0.950 . S
C780 C779 1.398 . S
C780 C781 1.391 . S
C781 H769 0.950 . S
C781 C777 1.393 . S
C781 C780 1.391 . S
C782 H772 0.950 . S
C782 C783 1.386 . S
C782 C784 1.391 . S
C783 C782 1.386 . S
C783 C787 1.393 . S
C784 H773 0.950 . S
C784 C782 1.391 . S
C784 C785 1.400 . S
C785 C779 1.491 1_655 S
C785 C784 1.400 . S
C785 C786 1.398 . S
C786 H774 0.950 . S
C786 C785 1.398 . S
C786 C787 1.391 . S
C787 H775 0.950 . S
C787 C783 1.393 . S
C787 C786 1.391 . S
H788 C796 0.950 . S
H789 C801 0.950 . S
H790 C798 0.950 . S
H791 C800 0.950 . S
H792 C802 0.950 . S
H793 C804 0.950 . S
H794 C806 0.950 . S
H795 C807 0.950 . S
C796 H788 0.950 . S
C796 C797 1.386 . S
C796 C798 1.391 . S
C797 C796 1.386 . S
C797 C801 1.393 . S
C798 H790 0.950 . S
C798 C796 1.391 . S
C798 C799 1.400 . S
C799 C798 1.400 . S
C799 C800 1.398 1_545 S
C799 C805 1.491 1_545 S
C800 H791 0.950 . S
C800 C799 1.398 1_565 S
C800 C801 1.391 1_565 S
C801 H789 0.950 . S
C801 C797 1.393 . S
C801 C800 1.391 1_545 S
C802 H792 0.950 . S
C802 C803 1.386 . S
C802 C804 1.391 . S
C803 C802 1.386 . S
C803 C807 1.393 . S
C804 H793 0.950 . S
C804 C802 1.391 . S
C804 C805 1.400 . S
C805 C799 1.491 1_565 S
C805 C804 1.400 . S
C805 C806 1.398 1_565 S
C806 H794 0.950 . S
C806 C805 1.398 1_545 S
C806 C807 1.391 1_545 S
C807 H795 0.950 . S
C807 C803 1.393 . S
C807 C806 1.391 1_565 S
H808 C816 0.950 . S
H809 C821 0.950 1_554 S
H810 C818 0.880 1_665 S
H811 C820 0.950 . S
H812 C822 0.950 . S
H813 C824 0.880 1_445 S
H814 C826 0.950 . S
H815 C827 0.950 1_556 S
C816 H808 0.950 . S
C816 C817 1.386 . S
C816 C818 1.391 . S
C817 C816 1.386 . S
C817 C821 1.393 . S
C818 H810 0.880 1_445 S
C818 C816 1.391 . S
C818 C819 1.400 . S
C819 C818 1.400 . S
C819 C820 1.398 1_556 S
C819 C825 1.491 1_446 S
C820 H811 0.950 . S
C820 C819 1.398 1_554 S
C820 C821 1.391 1_554 S
C821 H809 0.950 1_556 S
C821 C817 1.393 . S
C821 C820 1.391 1_556 S
C822 H812 0.950 . S
C822 C823 1.386 . S
C822 C824 1.391 . S
C823 C822 1.386 . S
C823 C827 1.393 . S
C824 H813 0.880 1_665 S
C824 C822 1.391 . S
C824 C825 1.400 . S
C825 C819 1.491 1_664 S
C825 C824 1.400 . S
C825 C826 1.398 1_554 S
C826 H814 0.950 . S
C826 C825 1.398 1_556 S
C826 C827 1.391 1_556 S
C827 H815 0.950 1_554 S
C827 C823 1.393 . S
C827 C826 1.391 1_554 S
H828 C836 0.950 . S
H829 C841 0.950 . S
H830 C838 0.950 . S
H831 C840 0.950 1_554 S
H832 C842 0.950 . S
H833 C844 0.950 . S
H834 C846 0.950 1_556 S
H835 C847 0.950 . S
C836 H828 0.950 . S
C836 C837 1.386 . S
C836 C838 1.391 . S
C837 C836 1.386 . S
C837 C841 1.393 . S
C838 H830 0.950 . S
C838 C836 1.391 . S
C838 C839 1.400 . S
C839 C838 1.400 . S
C839 C840 1.398 . S
C839 C845 1.491 1_556 S
C840 H831 0.950 1_556 S
C840 C839 1.398 . S
C840 C841 1.391 . S
C841 H829 0.950 . S
C841 C837 1.393 . S
C841 C840 1.391 . S
C842 H832 0.950 . S
C842 C843 1.386 . S
C842 C844 1.391 . S
C843 C842 1.386 . S
C843 C847 1.393 . S
C844 H833 0.950 . S
C844 C842 1.391 . S
C844 C845 1.400 . S
C845 C839 1.491 1_554 S
C845 C844 1.400 . S
C845 C846 1.398 . S
C846 H834 0.950 1_554 S
C846 C845 1.398 . S
C846 C847 1.391 . S
C847 H835 0.950 . S
C847 C843 1.393 . S
C847 C846 1.391 . S
H848 C856 0.950 . S
H849 C861 0.950 . S
H850 C858 0.950 . S
H851 C860 0.950 . S
H852 C862 0.950 . S
H853 C864 0.950 . S
H854 C866 0.950 . S
H855 C867 0.950 . S
C856 H848 0.950 . S
C856 C857 1.386 . S
C856 C858 1.391 . S
C857 C856 1.386 . S
C857 C861 1.393 . S
C858 H850 0.950 . S
C858 C856 1.391 . S
C858 C859 1.400 . S
C859 C858 1.400 . S
C859 C860 1.398 . S
C859 C865 1.491 1_655 S
C860 H851 0.950 . S
C860 C859 1.398 . S
C860 C861 1.391 . S
C861 H849 0.950 . S
C861 C857 1.393 . S
C861 C860 1.391 . S
C862 H852 0.950 . S
C862 C863 1.386 . S
C862 C864 1.391 . S
C863 C862 1.386 . S
C863 C867 1.393 . S
C864 H853 0.950 . S
C864 C862 1.391 . S
C864 C865 1.400 . S
C865 C859 1.491 1_455 S
C865 C864 1.400 . S
C865 C866 1.398 . S
C866 H854 0.950 . S
C866 C865 1.398 . S
C866 C867 1.391 . S
C867 H855 0.950 . S
C867 C863 1.393 . S
C867 C866 1.391 . S
H868 C876 0.950 . S
H869 C881 0.950 . S
H870 C878 0.950 . S
H871 C880 0.950 . S
H872 C882 0.950 . S
H873 C884 0.950 . S
H874 C886 0.950 . S
H875 C887 0.950 . S
C876 H868 0.950 . S
C876 C877 1.386 . S
C876 C878 1.391 . S
C877 C876 1.386 . S
C877 C881 1.393 . S
C878 H870 0.950 . S
C878 C876 1.391 . S
C878 C879 1.400 . S
C879 C878 1.400 . S
C879 C880 1.398 1_545 S
C879 C885 1.491 1_545 S
C880 H871 0.950 . S
C880 C879 1.398 1_565 S
C880 C881 1.391 1_565 S
C881 H869 0.950 . S
C881 C877 1.393 . S
C881 C880 1.391 1_545 S
C882 H872 0.950 . S
C882 C883 1.386 . S
C882 C884 1.391 . S
C883 C882 1.386 . S
C883 C887 1.393 . S
C884 H873 0.950 . S
C884 C882 1.391 . S
C884 C885 1.400 . S
C885 C879 1.491 1_565 S
C885 C884 1.400 . S
C885 C886 1.398 1_565 S
C886 H874 0.950 . S
C886 C885 1.398 1_545 S
C886 C887 1.391 1_545 S
C887 H875 0.950 . S
C887 C883 1.393 . S
C887 C886 1.391 1_565 S
H888 C896 0.950 1_554 S
H889 C901 0.950 . S
H890 C898 0.950 . S
H891 C900 0.950 . S
H892 C902 0.950 1_556 S
H893 C904 0.950 . S
H894 C906 0.950 . S
H895 C907 0.950 . S
C896 H888 0.950 1_556 S
C896 C897 1.386 . S
C896 C898 1.391 1_556 S
C897 C896 1.386 . S
C897 C901 1.393 . S
C898 H890 0.950 . S
C898 C896 1.391 1_554 S
C898 C899 1.400 1_554 S
C899 C898 1.400 1_556 S
C899 C900 1.398 . S
C899 C905 1.491 1_556 S
C900 H891 0.950 . S
C900 C899 1.398 . S
C900 C901 1.391 . S
C901 H889 0.950 . S
C901 C897 1.393 . S
C901 C900 1.391 . S
C902 H892 0.950 1_554 S
C902 C903 1.386 . S
C902 C904 1.391 1_554 S
C903 C902 1.386 . S
C903 C907 1.393 . S
C904 H893 0.950 . S
C904 C902 1.391 1_556 S
C904 C905 1.400 1_556 S
C905 C899 1.491 1_554 S
C905 C904 1.400 1_554 S
C905 C906 1.398 . S
C906 H894 0.950 . S
C906 C905 1.398 . S
C906 C907 1.391 . S
C907 H895 0.950 . S
C907 C903 1.393 . S
C907 C906 1.391 . S
H908 C916 0.950 . S
H909 C921 0.950 . S
H910 C918 0.950 . S
H911 C920 0.950 . S
H912 C922 0.950 . S
H913 C924 0.950 . S
H914 C926 0.950 . S
H915 C927 0.950 . S
C916 H908 0.950 . S
C916 C917 1.386 . S
C916 C918 1.391 . S
C917 C916 1.386 . S
C917 C921 1.393 . S
C918 H910 0.950 . S
C918 C916 1.391 . S
C918 C919 1.400 . S
C919 C918 1.400 . S
C919 C920 1.398 . S
C919 C925 1.491 . S
C920 H911 0.950 . S
C920 C919 1.398 . S
C920 C921 1.391 . S
C921 H909 0.950 . S
C921 C917 1.393 . S
C921 C920 1.391 . S
C922 H912 0.950 . S
C922 C923 1.386 . S
C922 C924 1.391 . S
C923 C922 1.386 . S
C923 C927 1.393 . S
C924 H913 0.950 . S
C924 C922 1.391 . S
C924 C925 1.400 . S
C925 C919 1.491 . S
C925 C924 1.400 . S
C925 C926 1.398 . S
C926 H914 0.950 . S
C926 C925 1.398 . S
C926 C927 1.391 . S
C927 H915 0.950 . S
C927 C923 1.393 . S
C927 C926 1.391 . S
H928 C936 0.950 . S
H929 C941 0.950 . S
H930 C938 0.950 1_655 S
H931 C940 0.950 . S
H932 C942 0.950 . S
H933 C944 0.950 1_455 S
H934 C946 0.950 . S
H935 C947 0.950 . S
C936 H928 0.950 . S
C936 C937 1.386 . S
C936 C938 1.391 . S
C937 C936 1.386 . S
C937 C941 1.393 . S
C938 H930 0.950 1_455 S
C938 C936 1.391 . S
C938 C939 1.400 . S
C939 C938 1.400 . S
C939 C940 1.398 . S
C939 C945 1.491 1_455 S
C940 H931 0.950 . S
C940 C939 1.398 . S
C940 C941 1.391 . S
C941 H929 0.950 . S
C941 C937 1.393 . S
C941 C940 1.391 . S
C942 H932 0.950 . S
C942 C943 1.386 . S
C942 C944 1.391 . S
C943 C942 1.386 . S
C943 C947 1.393 . S
C944 H933 0.950 1_655 S
C944 C942 1.391 . S
C944 C945 1.400 . S
C945 C939 1.491 1_655 S
C945 C944 1.400 . S
C945 C946 1.398 . S
C946 H934 0.950 . S
C946 C945 1.398 . S
C946 C947 1.391 . S
C947 H935 0.950 . S
C947 C943 1.393 . S
C947 C946 1.391 . S
H948 C956 0.950 . S
H949 C961 0.950 . S
H950 C958 0.950 . S
H951 C960 0.950 . S
H952 C962 0.950 . S
H953 C964 0.950 . S
H954 C966 0.950 . S
H955 C967 0.950 . S
C956 H948 0.950 . S
C956 C957 1.386 . S
C956 C958 1.391 . S
C957 C956 1.386 . S
C957 C961 1.393 . S
C958 H950 0.950 . S
C958 C956 1.391 . S
C958 C959 1.400 . S
C959 C958 1.400 . S
C959 C960 1.398 . S
C959 C965 1.491 . S
C960 H951 0.950 . S
C960 C959 1.398 . S
C960 C961 1.391 . S
C961 H949 0.950 . S
C961 C957 1.393 . S
C961 C960 1.391 . S
C962 H952 0.950 . S
C962 C963 1.386 . S
C962 C964 1.391 . S
C963 C962 1.386 . S
C963 C967 1.393 . S
C964 H953 0.950 . S
C964 C962 1.391 . S
C964 C965 1.400 . S
C965 C959 1.491 . S
C965 C964 1.400 . S
C965 C966 1.398 . S
C966 H954 0.950 . S
C966 C965 1.398 . S
C966 C967 1.391 . S
C967 H955 0.950 . S
C967 C963 1.393 . S
C967 C966 1.391 . S
H968 C976 0.950 . S
H969 C981 0.950 . S
H970 C978 0.950 . S
H971 C980 0.950 . S
H972 C982 0.950 . S
H973 C984 0.950 . S
H974 C986 0.950 . S
H975 C987 0.950 . S
C976 H968 0.950 . S
C976 C977 1.386 . S
C976 C978 1.391 . S
C977 C976 1.386 . S
C977 C981 1.393 . S
C978 H970 0.950 . S
C978 C976 1.391 . S
C978 C979 1.400 . S
C979 C978 1.400 . S
C979 C980 1.398 . S
C979 C985 1.491 . S
C980 H971 0.950 . S
C980 C979 1.398 . S
C980 C981 1.391 . S
C981 H969 0.950 . S
C981 C977 1.393 . S
C981 C980 1.391 . S
C982 H972 0.950 . S
C982 C983 1.386 . S
C982 C984 1.391 . S
C983 C982 1.386 . S
C983 C987 1.393 . S
C984 H973 0.950 . S
C984 C982 1.391 . S
C984 C985 1.400 . S
C985 C979 1.491 . S
C985 C984 1.400 . S
C985 C986 1.398 . S
C986 H974 0.950 . S
C986 C985 1.398 . S
C986 C987 1.391 . S
C987 H975 0.950 . S
C987 C983 1.393 . S
C987 C986 1.391 . S
H988 C996 0.950 . S
H989 C1001 0.950 . S
H990 C998 0.950 . S
H991 C1000 0.950 . S
H992 C1002 0.950 . S
H993 C1004 0.950 . S
H994 C1006 0.950 . S
H995 C1007 0.950 . S
C996 H988 0.950 . S
C996 C997 1.386 . S
C996 C998 1.391 . S
C997 C996 1.386 . S
C997 C1001 1.393 . S
C998 H990 0.950 . S
C998 C996 1.391 . S
C998 C999 1.400 . S
C999 C998 1.400 . S
C999 C1000 1.398 . S
C999 C1005 1.491 . S
C1000 H991 0.950 . S
C1000 C999 1.398 . S
C1000 C1001 1.391 . S
C1001 H989 0.950 . S
C1001 C997 1.393 . S
C1001 C1000 1.391 . S
C1002 H992 0.950 . S
C1002 C1003 1.386 . S
C1002 C1004 1.391 . S
C1003 C1002 1.386 . S
C1003 C1007 1.393 . S
C1004 H993 0.950 . S
C1004 C1002 1.391 . S
C1004 C1005 1.400 . S
C1005 C999 1.491 . S
C1005 C1004 1.400 . S
C1005 C1006 1.398 . S
C1006 H994 0.950 . S
C1006 C1005 1.398 . S
C1006 C1007 1.391 . S
C1007 H995 0.950 . S
C1007 C1003 1.393 . S
C1007 C1006 1.391 . S
H1008 C1016 0.950 . S
H1009 C1021 0.950 . S
H1010 C1018 0.950 . S
H1011 C1020 0.950 . S
H1012 C1022 0.950 . S
H1013 C1024 0.950 . S
H1014 C1026 0.950 . S
H1015 C1027 0.950 . S
C1016 H1008 0.950 . S
C1016 C1017 1.386 . S
C1016 C1018 1.391 . S
C1017 C1016 1.386 . S
C1017 C1021 1.393 . S
C1018 H1010 0.950 . S
C1018 C1016 1.391 . S
C1018 C1019 1.400 . S
C1019 C1018 1.400 . S
C1019 C1020 1.398 . S
C1019 C1025 1.491 . S
C1020 H1011 0.950 . S
C1020 C1019 1.398 . S
C1020 C1021 1.391 . S
C1021 H1009 0.950 . S
C1021 C1017 1.393 . S
C1021 C1020 1.391 . S
C1022 H1012 0.950 . S
C1022 C1023 1.386 . S
C1022 C1024 1.391 . S
C1023 C1022 1.386 . S
C1023 C1027 1.393 . S
C1024 H1013 0.950 . S
C1024 C1022 1.391 . S
C1024 C1025 1.400 . S
C1025 C1019 1.491 . S
C1025 C1024 1.400 . S
C1025 C1026 1.398 . S
C1026 H1014 0.950 . S
C1026 C1025 1.398 . S
C1026 C1027 1.391 . S
C1027 H1015 0.950 . S
C1027 C1023 1.393 . S
C1027 C1026 1.391 . S
H1028 C1036 0.950 . S
H1029 C1041 0.950 . S
H1030 C1038 0.950 . S
H1031 C1040 0.950 . S
H1032 C1042 0.950 . S
H1033 C1044 0.950 . S
H1034 C1046 0.950 . S
H1035 C1047 0.950 . S
C1036 H1028 0.950 . S
C1036 C1037 1.386 . S
C1036 C1038 1.391 . S
C1037 C1036 1.386 . S
C1037 C1041 1.393 . S
C1038 H1030 0.950 . S
C1038 C1036 1.391 . S
C1038 C1039 1.400 . S
C1039 C1038 1.400 . S
C1039 C1040 1.398 . S
C1039 C1045 1.491 1_565 S
C1040 H1031 0.950 . S
C1040 C1039 1.398 . S
C1040 C1041 1.391 . S
C1041 H1029 0.950 . S
C1041 C1037 1.393 . S
C1041 C1040 1.391 . S
C1042 H1032 0.950 . S
C1042 C1043 1.386 . S
C1042 C1044 1.391 . S
C1043 C1042 1.386 . S
C1043 C1047 1.393 . S
C1044 H1033 0.950 . S
C1044 C1042 1.391 . S
C1044 C1045 1.400 . S
C1045 C1039 1.491 1_545 S
C1045 C1044 1.400 . S
C1045 C1046 1.398 . S
C1046 H1034 0.950 . S
C1046 C1045 1.398 . S
C1046 C1047 1.391 . S
C1047 H1035 0.950 . S
C1047 C1043 1.393 . S
C1047 C1046 1.391 . S
H1048 C1056 0.950 . S
H1049 C1061 0.950 . S
H1050 C1058 0.950 . S
H1051 C1060 0.950 . S
H1052 C1062 0.950 . S
H1053 C1064 0.950 . S
H1054 C1066 0.950 . S
H1055 C1067 0.950 . S
C1056 H1048 0.950 . S
C1056 C1057 1.386 . S
C1056 C1058 1.391 . S
C1057 C1056 1.386 . S
C1057 C1061 1.393 . S
C1058 H1050 0.950 . S
C1058 C1056 1.391 . S
C1058 C1059 1.400 . S
C1059 C1058 1.400 . S
C1059 C1060 1.398 . S
C1059 C1065 1.491 . S
C1060 H1051 0.950 . S
C1060 C1059 1.398 . S
C1060 C1061 1.391 . S
C1061 H1049 0.950 . S
C1061 C1057 1.393 . S
C1061 C1060 1.391 . S
C1062 H1052 0.950 . S
C1062 C1063 1.386 . S
C1062 C1064 1.391 . S
C1063 C1062 1.386 . S
C1063 C1067 1.393 . S
C1064 H1053 0.950 . S
C1064 C1062 1.391 . S
C1064 C1065 1.400 . S
C1065 C1059 1.491 . S
C1065 C1064 1.400 . S
C1065 C1066 1.398 . S
C1066 H1054 0.950 . S
C1066 C1065 1.398 . S
C1066 C1067 1.391 . S
C1067 H1055 0.950 . S
C1067 C1063 1.393 . S
C1067 C1066 1.391 . S
H1068 C1076 0.950 . S
H1069 C1081 0.949 . S
H1070 C1078 0.950 . S
H1071 C1080 0.950 . S
H1072 C1082 0.950 . S
H1073 C1084 0.950 . S
H1074 C1086 0.950 . S
H1075 C1087 0.949 . S
C1076 H1068 0.950 . S
C1076 C1077 1.386 . S
C1076 C1078 1.391 . S
C1077 C1076 1.386 . S
C1077 C1081 1.393 . S
C1078 H1070 0.950 . S
C1078 C1076 1.391 . S
C1078 C1079 1.400 . S
C1079 C1078 1.400 . S
C1079 C1080 1.398 1_554 S
C1079 C1085 1.491 1_554 S
C1080 H1071 0.950 . S
C1080 C1079 1.398 1_556 S
C1080 C1081 1.391 1_556 S
C1081 H1069 0.949 . S
C1081 C1077 1.393 . S
C1081 C1080 1.391 1_554 S
C1082 H1072 0.950 . S
C1082 C1083 1.386 . S
C1082 C1084 1.391 . S
C1083 C1082 1.386 . S
C1083 C1087 1.393 . S
C1084 H1073 0.950 . S
C1084 C1082 1.391 . S
C1084 C1085 1.400 . S
C1085 C1079 1.491 1_556 S
C1085 C1084 1.400 . S
C1085 C1086 1.398 1_556 S
C1086 H1074 0.950 . S
C1086 C1085 1.398 1_554 S
C1086 C1087 1.391 1_554 S
C1087 H1075 0.949 . S
C1087 C1083 1.393 . S
C1087 C1086 1.391 1_556 S
H1088 C1096 0.950 . S
H1089 C1101 0.950 . S
H1090 C1098 0.950 . S
H1091 C1100 0.950 . S
H1092 C1102 0.950 . S
H1093 C1104 0.950 . S
H1094 C1106 0.950 . S
H1095 C1107 0.950 . S
C1096 H1088 0.950 . S
C1096 C1097 1.386 . S
C1096 C1098 1.391 . S
C1097 C1096 1.386 . S
C1097 C1101 1.393 . S
C1098 H1090 0.950 . S
C1098 C1096 1.391 . S
C1098 C1099 1.400 . S
C1099 C1098 1.400 . S
C1099 C1100 1.398 . S
C1099 C1105 1.491 . S
C1100 H1091 0.950 . S
C1100 C1099 1.398 . S
C1100 C1101 1.391 . S
C1101 H1089 0.950 . S
C1101 C1097 1.393 . S
C1101 C1100 1.391 . S
C1102 H1092 0.950 . S
C1102 C1103 1.386 . S
C1102 C1104 1.391 . S
C1103 C1102 1.386 . S
C1103 C1107 1.393 . S
C1104 H1093 0.950 . S
C1104 C1102 1.391 . S
C1104 C1105 1.400 . S
C1105 C1099 1.491 . S
C1105 C1104 1.400 . S
C1105 C1106 1.398 . S
C1106 H1094 0.950 . S
C1106 C1105 1.398 . S
C1106 C1107 1.391 . S
C1107 H1095 0.950 . S
C1107 C1103 1.393 . S
C1107 C1106 1.391 . S
H1108 C1116 0.950 . S
H1109 C1121 0.950 . S
H1110 C1118 0.950 . S
H1111 C1120 0.950 . S
H1112 C1122 0.950 1_545 S
H1113 C1124 0.950 . S
H1114 C1126 0.950 . S
H1115 C1127 0.950 . S
C1116 H1108 0.950 . S
C1116 C1117 1.386 . S
C1116 C1118 1.391 . S
C1117 C1116 1.386 . S
C1117 C1121 1.393 . S
C1118 H1110 0.950 . S
C1118 C1116 1.391 . S
C1118 C1119 1.400 . S
C1119 C1118 1.400 . S
C1119 C1120 1.398 . S
C1119 C1125 1.491 . S
C1120 H1111 0.950 . S
C1120 C1119 1.398 . S
C1120 C1121 1.391 . S
C1121 H1109 0.950 . S
C1121 C1117 1.393 . S
C1121 C1120 1.391 . S
C1122 H1112 0.950 1_565 S
C1122 C1123 1.386 . S
C1122 C1124 1.391 . S
C1123 C1122 1.386 . S
C1123 C1127 1.393 . S
C1124 H1113 0.950 . S
C1124 C1122 1.391 . S
C1124 C1125 1.400 . S
C1125 C1119 1.491 . S
C1125 C1124 1.400 . S
C1125 C1126 1.398 . S
C1126 H1114 0.950 . S
C1126 C1125 1.398 . S
C1126 C1127 1.391 . S
C1127 H1115 0.950 . S
C1127 C1123 1.393 . S
C1127 C1126 1.391 . S
H1128 C1136 0.950 . S
H1129 C1141 0.950 1_545 S
H1130 C1138 0.950 . S
H1131 C1140 0.950 . S
H1132 C1142 0.950 . S
H1133 C1144 0.950 . S
H1134 C1146 0.950 . S
H1135 C1147 0.950 . S
C1136 H1128 0.950 . S
C1136 C1137 1.386 . S
C1136 C1138 1.391 . S
C1137 C1136 1.386 . S
C1137 C1141 1.393 . S
C1138 H1130 0.950 . S
C1138 C1136 1.391 . S
C1138 C1139 1.400 . S
C1139 C1138 1.400 . S
C1139 C1140 1.398 . S
C1139 C1145 1.491 . S
C1140 H1131 0.950 . S
C1140 C1139 1.398 . S
C1140 C1141 1.391 . S
C1141 H1129 0.950 1_565 S
C1141 C1137 1.393 . S
C1141 C1140 1.391 . S
C1142 H1132 0.950 . S
C1142 C1143 1.386 . S
C1142 C1144 1.391 . S
C1143 C1142 1.386 . S
C1143 C1147 1.393 . S
C1144 H1133 0.950 . S
C1144 C1142 1.391 . S
C1144 C1145 1.400 . S
C1145 C1139 1.491 . S
C1145 C1144 1.400 . S
C1145 C1146 1.398 . S
C1146 H1134 0.950 . S
C1146 C1145 1.398 . S
C1146 C1147 1.391 . S
C1147 H1135 0.950 . S
C1147 C1143 1.393 . S
C1147 C1146 1.391 . S
H1148 C1156 0.950 . S
H1149 C1161 0.950 . S
H1150 C1158 0.950 . S
H1151 C1160 0.950 . S
H1152 C1162 0.950 . S
H1153 C1164 0.950 . S
H1154 C1166 0.950 . S
H1155 C1167 0.950 . S
C1156 H1148 0.950 . S
C1156 C1157 1.386 . S
C1156 C1158 1.391 . S
C1157 C1156 1.386 . S
C1157 C1161 1.393 . S
C1158 H1150 0.950 . S
C1158 C1156 1.391 . S
C1158 C1159 1.400 . S
C1159 C1158 1.400 . S
C1159 C1160 1.398 . S
C1159 C1165 1.491 . S
C1160 H1151 0.950 . S
C1160 C1159 1.398 . S
C1160 C1161 1.391 . S
C1161 H1149 0.950 . S
C1161 C1157 1.393 . S
C1161 C1160 1.391 . S
C1162 H1152 0.950 . S
C1162 C1163 1.386 . S
C1162 C1164 1.391 . S
C1163 C1162 1.386 . S
C1163 C1167 1.393 . S
C1164 H1153 0.950 . S
C1164 C1162 1.391 . S
C1164 C1165 1.400 . S
C1165 C1159 1.491 . S
C1165 C1164 1.400 . S
C1165 C1166 1.398 . S
C1166 H1154 0.950 . S
C1166 C1165 1.398 . S
C1166 C1167 1.391 . S
C1167 H1155 0.950 . S
C1167 C1163 1.393 . S
C1167 C1166 1.391 . S
H1168 C1176 0.950 . S
H1169 C1181 0.950 . S
H1170 C1178 0.950 . S
H1171 C1180 0.950 . S
H1172 C1182 0.950 . S
H1173 C1184 0.950 . S
H1174 C1186 0.950 . S
H1175 C1187 0.950 . S
C1176 H1168 0.950 . S
C1176 C1177 1.386 . S
C1176 C1178 1.391 . S
C1177 C1176 1.386 . S
C1177 C1181 1.393 . S
C1178 H1170 0.950 . S
C1178 C1176 1.391 . S
C1178 C1179 1.400 . S
C1179 C1178 1.400 . S
C1179 C1180 1.398 . S
C1179 C1185 1.491 . S
C1180 H1171 0.950 . S
C1180 C1179 1.398 . S
C1180 C1181 1.391 . S
C1181 H1169 0.950 . S
C1181 C1177 1.393 . S
C1181 C1180 1.391 . S
C1182 H1172 0.950 . S
C1182 C1183 1.386 . S
C1182 C1184 1.391 . S
C1183 C1182 1.386 . S
C1183 C1187 1.393 . S
C1184 H1173 0.950 . S
C1184 C1182 1.391 . S
C1184 C1185 1.400 . S
C1185 C1179 1.491 . S
C1185 C1184 1.400 . S
C1185 C1186 1.398 . S
C1186 H1174 0.950 . S
C1186 C1185 1.398 . S
C1186 C1187 1.391 . S
C1187 H1175 0.950 . S
C1187 C1183 1.393 . S
C1187 C1186 1.391 . S
H1188 C1196 0.950 . S
H1189 C1201 0.950 1_565 S
H1190 C1198 0.950 . S
H1191 C1200 0.950 . S
H1192 C1202 0.950 . S
H1193 C1204 0.950 . S
H1194 C1206 0.950 . S
H1195 C1207 0.950 . S
C1196 H1188 0.950 . S
C1196 C1197 1.386 . S
C1196 C1198 1.391 . S
C1197 C1196 1.386 . S
C1197 C1201 1.393 . S
C1198 H1190 0.950 . S
C1198 C1196 1.391 . S
C1198 C1199 1.400 . S
C1199 C1198 1.400 . S
C1199 C1200 1.398 . S
C1199 C1205 1.491 . S
C1200 H1191 0.950 . S
C1200 C1199 1.398 . S
C1200 C1201 1.391 . S
C1201 H1189 0.950 1_545 S
C1201 C1197 1.393 . S
C1201 C1200 1.391 . S
C1202 H1192 0.950 . S
C1202 C1203 1.386 . S
C1202 C1204 1.391 . S
C1203 C1202 1.386 . S
C1203 C1207 1.393 . S
C1204 H1193 0.950 . S
C1204 C1202 1.391 . S
C1204 C1205 1.400 . S
C1205 C1199 1.491 . S
C1205 C1204 1.400 . S
C1205 C1206 1.398 . S
C1206 H1194 0.950 . S
C1206 C1205 1.398 . S
C1206 C1207 1.391 . S
C1207 H1195 0.950 . S
C1207 C1203 1.393 . S
C1207 C1206 1.391 . S
H1208 C1216 0.950 . S
H1209 C1221 0.950 . S
H1210 C1218 0.950 . S
H1211 C1220 0.950 . S
H1212 C1222 0.950 . S
H1213 C1224 0.950 . S
H1214 C1226 0.950 . S
H1215 C1227 0.950 1_565 S
C1216 H1208 0.950 . S
C1216 C1217 1.386 . S
C1216 C1218 1.391 . S
C1217 C1216 1.386 . S
C1217 C1221 1.393 . S
C1218 H1210 0.950 . S
C1218 C1216 1.391 . S
C1218 C1219 1.400 . S
C1219 C1218 1.400 . S
C1219 C1220 1.398 . S
C1219 C1225 1.491 . S
C1220 H1211 0.950 . S
C1220 C1219 1.398 . S
C1220 C1221 1.391 . S
C1221 H1209 0.950 . S
C1221 C1217 1.393 . S
C1221 C1220 1.391 . S
C1222 H1212 0.950 . S
C1222 C1223 1.386 . S
C1222 C1224 1.391 . S
C1223 C1222 1.386 . S
C1223 C1227 1.393 . S
C1224 H1213 0.950 . S
C1224 C1222 1.391 . S
C1224 C1225 1.400 . S
C1225 C1219 1.491 . S
C1225 C1224 1.400 . S
C1225 C1226 1.398 . S
C1226 H1214 0.950 . S
C1226 C1225 1.398 . S
C1226 C1227 1.391 . S
C1227 H1215 0.950 1_545 S
C1227 C1223 1.393 . S
C1227 C1226 1.391 . S
H1228 C1236 0.950 . S
H1229 C1241 0.950 . S
H1230 C1238 0.950 . S
H1231 C1240 0.950 . S
H1232 C1242 0.950 . S
H1233 C1244 0.950 . S
H1234 C1246 0.950 . S
H1235 C1247 0.950 . S
C1236 H1228 0.950 . S
C1236 C1237 1.386 . S
C1236 C1238 1.391 . S
C1237 C1236 1.386 . S
C1237 C1241 1.393 . S
C1238 H1230 0.950 . S
C1238 C1236 1.391 . S
C1238 C1239 1.400 . S
C1239 C1238 1.400 . S
C1239 C1240 1.398 . S
C1239 C1245 1.491 . S
C1240 H1231 0.950 . S
C1240 C1239 1.398 . S
C1240 C1241 1.391 . S
C1241 H1229 0.950 . S
C1241 C1237 1.393 . S
C1241 C1240 1.391 . S
C1242 H1232 0.950 . S
C1242 C1243 1.386 . S
C1242 C1244 1.391 . S
C1243 C1242 1.386 . S
C1243 C1247 1.393 . S
C1244 H1233 0.950 . S
C1244 C1242 1.391 . S
C1244 C1245 1.400 . S
C1245 C1239 1.491 . S
C1245 C1244 1.400 . S
C1245 C1246 1.398 . S
C1246 H1234 0.950 . S
C1246 C1245 1.398 . S
C1246 C1247 1.391 . S
C1247 H1235 0.950 . S
C1247 C1243 1.393 . S
C1247 C1246 1.391 . S
H1248 C1256 0.950 . S
H1249 C1261 0.950 . S
H1250 C1258 0.950 . S
H1251 C1260 0.950 . S
H1252 C1262 0.950 . S
H1253 C1264 0.950 . S
H1254 C1266 0.950 . S
H1255 C1267 0.950 . S
C1256 H1248 0.950 . S
C1256 C1257 1.386 . S
C1256 C1258 1.391 . S
C1257 C1256 1.386 . S
C1257 C1261 1.393 . S
C1258 H1250 0.950 . S
C1258 C1256 1.391 . S
C1258 C1259 1.400 . S
C1259 C1258 1.400 . S
C1259 C1260 1.398 . S
C1259 C1265 1.491 . S
C1260 H1251 0.950 . S
C1260 C1259 1.398 . S
C1260 C1261 1.391 . S
C1261 H1249 0.950 . S
C1261 C1257 1.393 . S
C1261 C1260 1.391 . S
C1262 H1252 0.950 . S
C1262 C1263 1.386 . S
C1262 C1264 1.391 . S
C1263 C1262 1.386 . S
C1263 C1267 1.393 . S
C1264 H1253 0.950 . S
C1264 C1262 1.391 . S
C1264 C1265 1.400 . S
C1265 C1259 1.491 . S
C1265 C1264 1.400 . S
C1265 C1266 1.398 . S
C1266 H1254 0.950 . S
C1266 C1265 1.398 . S
C1266 C1267 1.391 . S
C1267 H1255 0.950 . S
C1267 C1263 1.393 . S
C1267 C1266 1.391 . S
H1268 C1276 0.950 . S
H1269 C1281 0.950 . S
H1270 C1278 0.950 . S
H1271 C1280 0.950 . S
H1272 C1282 0.948 1_545 S
H1273 C1284 0.950 . S
H1274 C1286 0.950 . S
H1275 C1287 0.950 . S
C1276 H1268 0.950 . S
C1276 C1277 1.386 . S
C1276 C1278 1.391 . S
C1277 C1276 1.386 . S
C1277 C1281 1.393 . S
C1278 H1270 0.950 . S
C1278 C1276 1.391 . S
C1278 C1279 1.400 . S
C1279 C1278 1.400 . S
C1279 C1280 1.398 . S
C1279 C1285 1.491 . S
C1280 H1271 0.950 . S
C1280 C1279 1.398 . S
C1280 C1281 1.391 . S
C1281 H1269 0.950 . S
C1281 C1277 1.393 . S
C1281 C1280 1.391 . S
C1282 H1272 0.948 1_565 S
C1282 C1283 1.386 . S
C1282 C1284 1.391 . S
C1283 C1282 1.386 . S
C1283 C1287 1.393 . S
C1284 H1273 0.950 . S
C1284 C1282 1.391 . S
C1284 C1285 1.400 . S
C1285 C1279 1.491 . S
C1285 C1284 1.400 . S
C1285 C1286 1.398 . S
C1286 H1274 0.950 . S
C1286 C1285 1.398 . S
C1286 C1287 1.391 . S
C1287 H1275 0.950 . S
C1287 C1283 1.393 . S
C1287 C1286 1.391 . S
H1288 C1296 0.950 . S
H1289 C1301 0.950 . S
H1290 C1298 0.950 . S
H1291 C1300 0.950 . S
H1292 C1302 0.950 . S
H1293 C1304 0.950 . S
H1294 C1306 0.950 . S
H1295 C1307 0.950 1_545 S
C1296 H1288 0.950 . S
C1296 C1297 1.386 . S
C1296 C1298 1.391 . S
C1297 C1296 1.386 . S
C1297 C1301 1.393 . S
C1298 H1290 0.950 . S
C1298 C1296 1.391 . S
C1298 C1299 1.400 . S
C1299 C1298 1.400 . S
C1299 C1300 1.398 . S
C1299 C1305 1.491 . S
C1300 H1291 0.950 . S
C1300 C1299 1.398 . S
C1300 C1301 1.391 . S
C1301 H1289 0.950 . S
C1301 C1297 1.393 . S
C1301 C1300 1.391 . S
C1302 H1292 0.950 . S
C1302 C1303 1.386 . S
C1302 C1304 1.391 . S
C1303 C1302 1.386 . S
C1303 C1307 1.393 . S
C1304 H1293 0.950 . S
C1304 C1302 1.391 . S
C1304 C1305 1.400 . S
C1305 C1299 1.491 . S
C1305 C1304 1.400 . S
C1305 C1306 1.398 . S
C1306 H1294 0.950 . S
C1306 C1305 1.398 . S
C1306 C1307 1.391 . S
C1307 H1295 0.950 1_565 S
C1307 C1303 1.393 . S
C1307 C1306 1.391 . S
H1308 C1316 0.950 . S
H1309 C1321 0.950 . S
H1310 C1318 0.950 . S
H1311 C1320 0.950 . S
H1312 C1322 0.950 . S
H1313 C1324 0.950 . S
H1314 C1326 0.950 . S
H1315 C1327 0.950 . S
C1316 H1308 0.950 . S
C1316 C1317 1.386 . S
C1316 C1318 1.391 . S
C1317 C1316 1.386 . S
C1317 C1321 1.393 . S
C1318 H1310 0.950 . S
C1318 C1316 1.391 . S
C1318 C1319 1.400 . S
C1319 C1318 1.400 . S
C1319 C1320 1.398 . S
C1319 C1325 1.491 . S
C1320 H1311 0.950 . S
C1320 C1319 1.398 . S
C1320 C1321 1.391 . S
C1321 H1309 0.950 . S
C1321 C1317 1.393 . S
C1321 C1320 1.391 . S
C1322 H1312 0.950 . S
C1322 C1323 1.386 . S
C1322 C1324 1.391 . S
C1323 C1322 1.386 . S
C1323 C1327 1.393 . S
C1324 H1313 0.950 . S
C1324 C1322 1.391 . S
C1324 C1325 1.400 . S
C1325 C1319 1.491 . S
C1325 C1324 1.400 . S
C1325 C1326 1.398 . S
C1326 H1314 0.950 . S
C1326 C1325 1.398 . S
C1326 C1327 1.391 . S
C1327 H1315 0.950 . S
C1327 C1323 1.393 . S
C1327 C1326 1.391 . S
H1328 C1336 0.950 . S
H1329 C1341 0.950 . S
H1330 C1338 0.950 . S
H1331 C1340 0.950 . S
H1332 C1342 0.950 . S
H1333 C1344 0.950 . S
H1334 C1346 0.950 . S
H1335 C1347 0.950 . S
C1336 H1328 0.950 . S
C1336 C1337 1.386 . S
C1336 C1338 1.391 . S
C1337 C1336 1.386 . S
C1337 C1341 1.393 . S
C1338 H1330 0.950 . S
C1338 C1336 1.391 . S
C1338 C1339 1.400 . S
C1339 C1338 1.400 . S
C1339 C1340 1.398 . S
C1339 C1345 1.491 . S
C1340 H1331 0.950 . S
C1340 C1339 1.398 . S
C1340 C1341 1.391 . S
C1341 H1329 0.950 . S
C1341 C1337 1.393 . S
C1341 C1340 1.391 . S
C1342 H1332 0.950 . S
C1342 C1343 1.386 . S
C1342 C1344 1.391 . S
C1343 C1342 1.386 . S
C1343 C1347 1.393 . S
C1344 H1333 0.950 . S
C1344 C1342 1.391 . S
C1344 C1345 1.400 . S
C1345 C1339 1.491 . S
C1345 C1344 1.400 . S
C1345 C1346 1.398 . S
C1346 H1334 0.950 . S
C1346 C1345 1.398 . S
C1346 C1347 1.391 . S
C1347 H1335 0.950 . S
C1347 C1343 1.393 . S
C1347 C1346 1.391 . S
H1348 C1356 0.950 . S
H1349 C1361 0.950 1_565 S
H1350 C1358 0.950 . S
H1351 C1360 0.950 . S
H1352 C1362 0.950 . S
H1353 C1364 0.950 . S
H1354 C1366 0.950 . S
H1355 C1367 0.950 . S
C1356 H1348 0.950 . S
C1356 C1357 1.386 . S
C1356 C1358 1.391 . S
C1357 C1356 1.386 . S
C1357 C1361 1.393 . S
C1358 H1350 0.950 . S
C1358 C1356 1.391 . S
C1358 C1359 1.400 . S
C1359 C1358 1.400 . S
C1359 C1360 1.398 . S
C1359 C1365 1.491 . S
C1360 H1351 0.950 . S
C1360 C1359 1.398 . S
C1360 C1361 1.391 . S
C1361 H1349 0.950 1_545 S
C1361 C1357 1.393 . S
C1361 C1360 1.391 . S
C1362 H1352 0.950 . S
C1362 C1363 1.386 . S
C1362 C1364 1.391 . S
C1363 C1362 1.386 . S
C1363 C1367 1.393 . S
C1364 H1353 0.950 . S
C1364 C1362 1.391 . S
C1364 C1365 1.400 . S
C1365 C1359 1.491 . S
C1365 C1364 1.400 . S
C1365 C1366 1.398 . S
C1366 H1354 0.950 . S
C1366 C1365 1.398 . S
C1366 C1367 1.391 . S
C1367 H1355 0.950 . S
C1367 C1363 1.393 . S
C1367 C1366 1.391 . S
H1368 C1376 0.950 . S
H1369 C1381 0.950 . S
H1370 C1378 0.950 . S
H1371 C1380 0.950 . S
H1372 C1382 0.950 . S
H1373 C1384 0.950 . S
H1374 C1386 0.950 . S
H1375 C1387 0.950 1_565 S
C1376 H1368 0.950 . S
C1376 C1377 1.386 . S
C1376 C1378 1.391 . S
C1377 C1376 1.386 . S
C1377 C1381 1.393 . S
C1378 H1370 0.950 . S
C1378 C1376 1.391 . S
C1378 C1379 1.400 . S
C1379 C1378 1.400 . S
C1379 C1380 1.398 . S
C1379 C1385 1.491 . S
C1380 H1371 0.950 . S
C1380 C1379 1.398 . S
C1380 C1381 1.391 . S
C1381 H1369 0.950 . S
C1381 C1377 1.393 . S
C1381 C1380 1.391 . S
C1382 H1372 0.950 . S
C1382 C1383 1.386 . S
C1382 C1384 1.391 . S
C1383 C1382 1.386 . S
C1383 C1387 1.393 . S
C1384 H1373 0.950 . S
C1384 C1382 1.391 . S
C1384 C1385 1.400 . S
C1385 C1379 1.491 . S
C1385 C1384 1.400 . S
C1385 C1386 1.398 . S
C1386 H1374 0.950 . S
C1386 C1385 1.398 . S
C1386 C1387 1.391 . S
C1387 H1375 0.950 1_545 S
C1387 C1383 1.393 . S
C1387 C1386 1.391 . S
H1388 C1396 0.950 . S
H1389 C1401 0.950 . S
H1390 C1398 0.950 . S
H1391 C1400 0.950 . S
H1392 C1402 0.950 . S
H1393 C1404 0.950 . S
H1394 C1406 0.950 . S
H1395 C1407 0.950 . S
C1396 H1388 0.950 . S
C1396 C1397 1.386 . S
C1396 C1398 1.391 . S
C1397 C1396 1.386 . S
C1397 C1401 1.393 . S
C1398 H1390 0.950 . S
C1398 C1396 1.391 . S
C1398 C1399 1.400 . S
C1399 C1398 1.400 . S
C1399 C1400 1.398 . S
C1399 C1405 1.491 . S
C1400 H1391 0.950 . S
C1400 C1399 1.398 . S
C1400 C1401 1.391 . S
C1401 H1389 0.950 . S
C1401 C1397 1.393 . S
C1401 C1400 1.391 . S
C1402 H1392 0.950 . S
C1402 C1403 1.386 . S
C1402 C1404 1.391 . S
C1403 C1402 1.386 . S
C1403 C1407 1.393 . S
C1404 H1393 0.950 . S
C1404 C1402 1.391 . S
C1404 C1405 1.400 . S
C1405 C1399 1.491 . S
C1405 C1404 1.400 . S
C1405 C1406 1.398 . S
C1406 H1394 0.950 . S
C1406 C1405 1.398 . S
C1406 C1407 1.391 . S
C1407 H1395 0.950 . S
C1407 C1403 1.393 . S
C1407 C1406 1.391 . S
H1408 C1416 0.950 . S
H1409 C1421 0.950 . S
H1410 C1418 0.950 . S
H1411 C1420 0.950 . S
H1412 C1422 0.950 . S
H1413 C1424 0.950 . S
H1414 C1426 0.950 . S
H1415 C1427 0.950 1_545 S
C1416 H1408 0.950 . S
C1416 C1417 1.386 . S
C1416 C1418 1.391 . S
C1417 C1416 1.386 . S
C1417 C1421 1.393 . S
C1418 H1410 0.950 . S
C1418 C1416 1.391 . S
C1418 C1419 1.400 . S
C1419 C1418 1.400 . S
C1419 C1420 1.398 . S
C1419 C1425 1.491 . S
C1420 H1411 0.950 . S
C1420 C1419 1.398 . S
C1420 C1421 1.391 . S
C1421 H1409 0.950 . S
C1421 C1417 1.393 . S
C1421 C1420 1.391 . S
C1422 H1412 0.950 . S
C1422 C1423 1.386 . S
C1422 C1424 1.391 . S
C1423 C1422 1.386 . S
C1423 C1427 1.393 . S
C1424 H1413 0.950 . S
C1424 C1422 1.391 . S
C1424 C1425 1.400 . S
C1425 C1419 1.491 . S
C1425 C1424 1.400 . S
C1425 C1426 1.398 . S
C1426 H1414 0.950 . S
C1426 C1425 1.398 . S
C1426 C1427 1.391 . S
C1427 H1415 0.950 1_565 S
C1427 C1423 1.393 . S
C1427 C1426 1.391 . S
H1428 C1436 0.950 . S
H1429 C1441 0.950 . S
H1430 C1438 0.950 . S
H1431 C1440 0.950 . S
H1432 C1442 0.950 . S
H1433 C1444 0.950 . S
H1434 C1446 0.950 . S
H1435 C1447 0.950 . S
C1436 H1428 0.950 . S
C1436 C1437 1.386 . S
C1436 C1438 1.391 . S
C1437 C1436 1.386 . S
C1437 C1441 1.393 . S
C1438 H1430 0.950 . S
C1438 C1436 1.391 . S
C1438 C1439 1.400 . S
C1439 C1438 1.400 . S
C1439 C1440 1.398 . S
C1439 C1445 1.491 . S
C1440 H1431 0.950 . S
C1440 C1439 1.398 . S
C1440 C1441 1.391 . S
C1441 H1429 0.950 . S
C1441 C1437 1.393 . S
C1441 C1440 1.391 . S
C1442 H1432 0.950 . S
C1442 C1443 1.386 . S
C1442 C1444 1.391 . S
C1443 C1442 1.386 . S
C1443 C1447 1.393 . S
C1444 H1433 0.950 . S
C1444 C1442 1.391 . S
C1444 C1445 1.400 . S
C1445 C1439 1.491 . S
C1445 C1444 1.400 . S
C1445 C1446 1.398 . S
C1446 H1434 0.950 . S
C1446 C1445 1.398 . S
C1446 C1447 1.391 . S
C1447 H1435 0.950 . S
C1447 C1443 1.393 . S
C1447 C1446 1.391 . S
H1448 C1456 0.950 . S
H1449 C1461 0.950 . S
H1450 C1458 0.950 . S
H1451 C1460 0.950 . S
H1452 C1462 0.950 . S
H1453 C1464 0.950 . S
H1454 C1466 0.950 . S
H1455 C1467 0.950 . S
C1456 H1448 0.950 . S
C1456 C1457 1.386 . S
C1456 C1458 1.391 . S
C1457 C1456 1.386 . S
C1457 C1461 1.393 . S
C1458 H1450 0.950 . S
C1458 C1456 1.391 . S
C1458 C1459 1.400 . S
C1459 C1458 1.400 . S
C1459 C1460 1.398 . S
C1459 C1465 1.491 . S
C1460 H1451 0.950 . S
C1460 C1459 1.398 . S
C1460 C1461 1.391 . S
C1461 H1449 0.950 . S
C1461 C1457 1.393 . S
C1461 C1460 1.391 . S
C1462 H1452 0.950 . S
C1462 C1463 1.386 . S
C1462 C1464 1.391 . S
C1463 C1462 1.386 . S
C1463 C1467 1.393 . S
C1464 H1453 0.950 . S
C1464 C1462 1.391 . S
C1464 C1465 1.400 . S
C1465 C1459 1.491 . S
C1465 C1464 1.400 . S
C1465 C1466 1.398 . S
C1466 H1454 0.950 . S
C1466 C1465 1.398 . S
C1466 C1467 1.391 . S
C1467 H1455 0.950 . S
C1467 C1463 1.393 . S
C1467 C1466 1.391 . S
H1468 C1476 0.950 . S
H1469 C1481 0.950 . S
H1470 C1478 0.950 . S
H1471 C1480 0.950 . S
H1472 C1482 0.950 . S
H1473 C1484 0.950 . S
H1474 C1486 0.950 . S
H1475 C1487 0.950 . S
C1476 H1468 0.950 . S
C1476 C1477 1.386 . S
C1476 C1478 1.391 . S
C1477 C1476 1.386 . S
C1477 C1481 1.393 . S
C1478 H1470 0.950 . S
C1478 C1476 1.391 . S
C1478 C1479 1.400 . S
C1479 C1478 1.400 . S
C1479 C1480 1.398 . S
C1479 C1485 1.491 . S
C1480 H1471 0.950 . S
C1480 C1479 1.398 . S
C1480 C1481 1.391 . S
C1481 H1469 0.950 . S
C1481 C1477 1.393 . S
C1481 C1480 1.391 . S
C1482 H1472 0.950 . S
C1482 C1483 1.386 . S
C1482 C1484 1.391 . S
C1483 C1482 1.386 . S
C1483 C1487 1.393 . S
C1484 H1473 0.950 . S
C1484 C1482 1.391 . S
C1484 C1485 1.400 . S
C1485 C1479 1.491 . S
C1485 C1484 1.400 . S
C1485 C1486 1.398 . S
C1486 H1474 0.950 . S
C1486 C1485 1.398 . S
C1486 C1487 1.391 . S
C1487 H1475 0.950 . S
C1487 C1483 1.393 . S
C1487 C1486 1.391 . S
H1488 C1496 0.950 . S
H1489 C1501 0.950 . S
H1490 C1498 0.950 . S
H1491 C1500 0.950 . S
H1492 C1502 0.950 . S
H1493 C1504 0.950 . S
H1494 C1506 0.950 . S
H1495 C1507 0.950 1_565 S
C1496 H1488 0.950 . S
C1496 C1497 1.386 . S
C1496 C1498 1.391 . S
C1497 C1496 1.386 . S
C1497 C1501 1.393 . S
C1498 H1490 0.950 . S
C1498 C1496 1.391 . S
C1498 C1499 1.400 . S
C1499 C1498 1.400 . S
C1499 C1500 1.398 . S
C1499 C1505 1.491 . S
C1500 H1491 0.950 . S
C1500 C1499 1.398 . S
C1500 C1501 1.391 . S
C1501 H1489 0.950 . S
C1501 C1497 1.393 . S
C1501 C1500 1.391 . S
C1502 H1492 0.950 . S
C1502 C1503 1.386 . S
C1502 C1504 1.391 . S
C1503 C1502 1.386 . S
C1503 C1507 1.393 . S
C1504 H1493 0.950 . S
C1504 C1502 1.391 . S
C1504 C1505 1.400 . S
C1505 C1499 1.491 . S
C1505 C1504 1.400 . S
C1505 C1506 1.398 . S
C1506 H1494 0.950 . S
C1506 C1505 1.398 . S
C1506 C1507 1.391 . S
C1507 H1495 0.950 1_545 S
C1507 C1503 1.393 . S
C1507 C1506 1.391 . S
H1508 C1516 0.950 . S
H1509 C1521 0.950 . S
H1510 C1518 0.950 . S
H1511 C1520 0.950 . S
H1512 C1522 0.950 . S
H1513 C1524 0.950 . S
H1514 C1526 0.950 . S
H1515 C1527 0.950 . S
C1516 H1508 0.950 . S
C1516 C1517 1.386 . S
C1516 C1518 1.391 . S
C1517 C1516 1.386 . S
C1517 C1521 1.393 . S
C1518 H1510 0.950 . S
C1518 C1516 1.391 . S
C1518 C1519 1.400 . S
C1519 C1518 1.400 . S
C1519 C1520 1.398 . S
C1519 C1525 1.491 . S
C1520 H1511 0.950 . S
C1520 C1519 1.398 . S
C1520 C1521 1.391 . S
C1521 H1509 0.950 . S
C1521 C1517 1.393 . S
C1521 C1520 1.391 . S
C1522 H1512 0.950 . S
C1522 C1523 1.386 . S
C1522 C1524 1.391 . S
C1523 C1522 1.386 . S
C1523 C1527 1.393 . S
C1524 H1513 0.950 . S
C1524 C1522 1.391 . S
C1524 C1525 1.400 . S
C1525 C1519 1.491 . S
C1525 C1524 1.400 . S
C1525 C1526 1.398 . S
C1526 H1514 0.950 . S
C1526 C1525 1.398 . S
C1526 C1527 1.391 . S
C1527 H1515 0.950 . S
C1527 C1523 1.393 . S
C1527 C1526 1.391 . S
H1528 C1536 0.950 . S
H1529 C1541 0.950 . S
H1530 C1538 0.950 . S
H1531 C1540 0.950 . S
H1532 C1542 0.950 . S
H1533 C1544 0.950 . S
H1534 C1546 0.950 . S
H1535 C1547 0.950 . S
C1536 H1528 0.950 . S
C1536 C1537 1.386 . S
C1536 C1538 1.391 . S
C1537 C1536 1.386 . S
C1537 C1541 1.393 . S
C1538 H1530 0.950 . S
C1538 C1536 1.391 . S
C1538 C1539 1.400 . S
C1539 C1538 1.400 . S
C1539 C1540 1.398 . S
C1539 C1545 1.491 . S
C1540 H1531 0.950 . S
C1540 C1539 1.398 . S
C1540 C1541 1.391 . S
C1541 H1529 0.950 . S
C1541 C1537 1.393 . S
C1541 C1540 1.391 . S
C1542 H1532 0.950 . S
C1542 C1543 1.386 . S
C1542 C1544 1.391 . S
C1543 C1542 1.386 . S
C1543 C1547 1.393 . S
C1544 H1533 0.950 . S
C1544 C1542 1.391 . S
C1544 C1545 1.400 . S
C1545 C1539 1.491 . S
C1545 C1544 1.400 . S
C1545 C1546 1.398 . S
C1546 H1534 0.950 . S
C1546 C1545 1.398 . S
C1546 C1547 1.391 . S
C1547 H1535 0.950 . S
C1547 C1543 1.393 . S
C1547 C1546 1.391 . S
H1548 C1556 0.950 . S
H1549 C1561 0.950 . S
H1550 C1558 0.950 . S
H1551 C1560 0.950 . S
H1552 C1562 0.950 1_565 S
H1553 C1564 0.950 . S
H1554 C1566 0.950 . S
H1555 C1567 0.950 . S
C1556 H1548 0.950 . S
C1556 C1557 1.386 . S
C1556 C1558 1.391 . S
C1557 C1556 1.386 . S
C1557 C1561 1.393 . S
C1558 H1550 0.950 . S
C1558 C1556 1.391 . S
C1558 C1559 1.400 . S
C1559 C1558 1.400 . S
C1559 C1560 1.398 . S
C1559 C1565 1.491 . S
C1560 H1551 0.950 . S
C1560 C1559 1.398 . S
C1560 C1561 1.391 . S
C1561 H1549 0.950 . S
C1561 C1557 1.393 . S
C1561 C1560 1.391 . S
C1562 H1552 0.950 1_545 S
C1562 C1563 1.386 . S
C1562 C1564 1.391 . S
C1563 C1562 1.386 . S
C1563 C1567 1.393 . S
C1564 H1553 0.950 . S
C1564 C1562 1.391 . S
C1564 C1565 1.400 . S
C1565 C1559 1.491 . S
C1565 C1564 1.400 . S
C1565 C1566 1.398 . S
C1566 H1554 0.950 . S
C1566 C1565 1.398 . S
C1566 C1567 1.391 . S
C1567 H1555 0.950 . S
C1567 C1563 1.393 . S
C1567 C1566 1.391 . S
H1568 C1576 0.950 . S
H1569 C1581 0.950 . S
H1570 C1578 0.950 . S
H1571 C1580 0.950 . S
H1572 C1582 0.950 1_545 S
H1573 C1584 0.950 . S
H1574 C1586 0.950 . S
H1575 C1587 0.950 . S
C1576 H1568 0.950 . S
C1576 C1577 1.386 . S
C1576 C1578 1.391 . S
C1577 C1576 1.386 . S
C1577 C1581 1.393 . S
C1578 H1570 0.950 . S
C1578 C1576 1.391 . S
C1578 C1579 1.400 . S
C1579 C1578 1.400 . S
C1579 C1580 1.398 . S
C1579 C1585 1.491 . S
C1580 H1571 0.950 . S
C1580 C1579 1.398 . S
C1580 C1581 1.391 . S
C1581 H1569 0.950 . S
C1581 C1577 1.393 . S
C1581 C1580 1.391 . S
C1582 H1572 0.950 1_565 S
C1582 C1583 1.386 . S
C1582 C1584 1.391 . S
C1583 C1582 1.386 . S
C1583 C1587 1.393 . S
C1584 H1573 0.950 . S
C1584 C1582 1.391 . S
C1584 C1585 1.400 . S
C1585 C1579 1.491 . S
C1585 C1584 1.400 . S
C1585 C1586 1.398 . S
C1586 H1574 0.950 . S
C1586 C1585 1.398 . S
C1586 C1587 1.391 . S
C1587 H1575 0.950 . S
C1587 C1583 1.393 . S
C1587 C1586 1.391 . S
H1588 C1596 0.950 . S
H1589 C1601 0.950 . S
H1590 C1598 0.950 . S
H1591 C1600 0.950 . S
H1592 C1602 0.950 . S
H1593 C1604 0.950 . S
H1594 C1606 0.950 . S
H1595 C1607 0.950 . S
C1596 H1588 0.950 . S
C1596 C1597 1.386 . S
C1596 C1598 1.391 . S
C1597 C1596 1.386 . S
C1597 C1601 1.393 . S
C1598 H1590 0.950 . S
C1598 C1596 1.391 . S
C1598 C1599 1.400 . S
C1599 C1598 1.400 . S
C1599 C1600 1.398 . S
C1599 C1605 1.491 . S
C1600 H1591 0.950 . S
C1600 C1599 1.398 . S
C1600 C1601 1.391 . S
C1601 H1589 0.950 . S
C1601 C1597 1.393 . S
C1601 C1600 1.391 . S
C1602 H1592 0.950 . S
C1602 C1603 1.386 . S
C1602 C1604 1.391 . S
C1603 C1602 1.386 . S
C1603 C1607 1.393 . S
C1604 H1593 0.950 . S
C1604 C1602 1.391 . S
C1604 C1605 1.400 . S
C1605 C1599 1.491 . S
C1605 C1604 1.400 . S
C1605 C1606 1.398 . S
C1606 H1594 0.950 . S
C1606 C1605 1.398 . S
C1606 C1607 1.391 . S
C1607 H1595 0.950 . S
C1607 C1603 1.393 . S
C1607 C1606 1.391 . S
H1608 C1616 0.950 . S
H1609 C1621 0.950 . S
H1610 C1618 0.950 . S
H1611 C1620 0.950 . S
H1612 C1622 0.950 . S
H1613 C1624 0.950 . S
H1614 C1626 0.950 . S
H1615 C1627 0.950 . S
C1616 H1608 0.950 . S
C1616 C1617 1.386 . S
C1616 C1618 1.391 . S
C1617 C1616 1.386 . S
C1617 C1621 1.393 . S
C1618 H1610 0.950 . S
C1618 C1616 1.391 . S
C1618 C1619 1.400 . S
C1619 C1618 1.400 . S
C1619 C1620 1.398 . S
C1619 C1625 1.491 . S
C1620 H1611 0.950 . S
C1620 C1619 1.398 . S
C1620 C1621 1.391 . S
C1621 H1609 0.950 . S
C1621 C1617 1.393 . S
C1621 C1620 1.391 . S
C1622 H1612 0.950 . S
C1622 C1623 1.386 . S
C1622 C1624 1.391 . S
C1623 C1622 1.386 . S
C1623 C1627 1.393 . S
C1624 H1613 0.950 . S
C1624 C1622 1.391 . S
C1624 C1625 1.400 . S
C1625 C1619 1.491 . S
C1625 C1624 1.400 . S
C1625 C1626 1.398 . S
C1626 H1614 0.950 . S
C1626 C1625 1.398 . S
C1626 C1627 1.391 . S
C1627 H1615 0.950 . S
C1627 C1623 1.393 . S
C1627 C1626 1.391 . S
H1628 C1636 0.950 . S
H1629 C1641 0.950 . S
H1630 C1638 0.950 . S
H1631 C1640 0.950 . S
H1632 C1642 0.950 . S
H1633 C1644 0.950 . S
H1634 C1646 0.950 . S
H1635 C1647 0.950 . S
C1636 H1628 0.950 . S
C1636 C1637 1.386 . S
C1636 C1638 1.391 . S
C1637 C1636 1.386 . S
C1637 C1641 1.393 . S
C1638 H1630 0.950 . S
C1638 C1636 1.391 . S
C1638 C1639 1.400 . S
C1639 C1638 1.400 . S
C1639 C1640 1.398 . S
C1639 C1645 1.491 . S
C1640 H1631 0.950 . S
C1640 C1639 1.398 . S
C1640 C1641 1.391 . S
C1641 H1629 0.950 . S
C1641 C1637 1.393 . S
C1641 C1640 1.391 . S
C1642 H1632 0.950 . S
C1642 C1643 1.386 . S
C1642 C1644 1.391 . S
C1643 C1642 1.386 . S
C1643 C1647 1.393 . S
C1644 H1633 0.950 . S
C1644 C1642 1.391 . S
C1644 C1645 1.400 . S
C1645 C1639 1.491 . S
C1645 C1644 1.400 . S
C1645 C1646 1.398 . S
C1646 H1634 0.950 . S
C1646 C1645 1.398 . S
C1646 C1647 1.391 . S
C1647 H1635 0.950 . S
C1647 C1643 1.393 . S
C1647 C1646 1.391 . S
H1648 C1656 0.950 . S
H1649 C1661 0.950 . S
H1650 C1658 0.950 . S
H1651 C1660 0.950 . S
H1652 C1662 0.950 . S
H1653 C1664 0.950 . S
H1654 C1666 0.950 . S
H1655 C1667 0.950 1_565 S
C1656 H1648 0.950 . S
C1656 C1657 1.386 . S
C1656 C1658 1.391 . S
C1657 C1656 1.386 . S
C1657 C1661 1.393 . S
C1658 H1650 0.950 . S
C1658 C1656 1.391 . S
C1658 C1659 1.400 . S
C1659 C1658 1.400 . S
C1659 C1660 1.398 . S
C1659 C1665 1.491 . S
C1660 H1651 0.950 . S
C1660 C1659 1.398 . S
C1660 C1661 1.391 . S
C1661 H1649 0.950 . S
C1661 C1657 1.393 . S
C1661 C1660 1.391 . S
C1662 H1652 0.950 . S
C1662 C1663 1.386 . S
C1662 C1664 1.391 . S
C1663 C1662 1.386 . S
C1663 C1667 1.393 . S
C1664 H1653 0.950 . S
C1664 C1662 1.391 . S
C1664 C1665 1.400 . S
C1665 C1659 1.491 . S
C1665 C1664 1.400 . S
C1665 C1666 1.398 . S
C1666 H1654 0.950 . S
C1666 C1665 1.398 . S
C1666 C1667 1.391 . S
C1667 H1655 0.950 1_545 S
C1667 C1663 1.393 . S
C1667 C1666 1.391 . S
H1668 C1676 0.950 . S
H1669 C1681 0.950 . S
H1670 C1678 0.950 . S
H1671 C1680 0.950 . S
H1672 C1682 0.950 . S
H1673 C1684 0.950 . S
H1674 C1686 0.950 . S
H1675 C1687 0.950 . S
C1676 H1668 0.950 . S
C1676 C1677 1.386 . S
C1676 C1678 1.391 . S
C1677 C1676 1.386 . S
C1677 C1681 1.393 . S
C1678 H1670 0.950 . S
C1678 C1676 1.391 . S
C1678 C1679 1.400 . S
C1679 C1678 1.400 . S
C1679 C1680 1.398 . S
C1679 C1685 1.491 . S
C1680 H1671 0.950 . S
C1680 C1679 1.398 . S
C1680 C1681 1.391 . S
C1681 H1669 0.950 . S
C1681 C1677 1.393 . S
C1681 C1680 1.391 . S
C1682 H1672 0.950 . S
C1682 C1683 1.386 . S
C1682 C1684 1.391 . S
C1683 C1682 1.386 . S
C1683 C1687 1.393 . S
C1684 H1673 0.950 . S
C1684 C1682 1.391 . S
C1684 C1685 1.400 . S
C1685 C1679 1.491 . S
C1685 C1684 1.400 . S
C1685 C1686 1.398 . S
C1686 H1674 0.950 . S
C1686 C1685 1.398 . S
C1686 C1687 1.391 . S
C1687 H1675 0.950 . S
C1687 C1683 1.393 . S
C1687 C1686 1.391 . S
H1688 C1696 0.950 . S
H1689 C1701 0.950 . S
H1690 C1698 0.950 . S
H1691 C1700 0.950 . S
H1692 C1702 0.950 . S
H1693 C1704 0.950 . S
H1694 C1706 0.950 . S
H1695 C1707 0.950 . S
C1696 H1688 0.950 . S
C1696 C1697 1.386 . S
C1696 C1698 1.391 . S
C1697 C1696 1.386 . S
C1697 C1701 1.393 . S
C1698 H1690 0.950 . S
C1698 C1696 1.391 . S
C1698 C1699 1.400 . S
C1699 C1698 1.400 . S
C1699 C1700 1.398 . S
C1699 C1705 1.491 . S
C1700 H1691 0.950 . S
C1700 C1699 1.398 . S
C1700 C1701 1.391 . S
C1701 H1689 0.950 . S
C1701 C1697 1.393 . S
C1701 C1700 1.391 . S
C1702 H1692 0.950 . S
C1702 C1703 1.386 . S
C1702 C1704 1.391 . S
C1703 C1702 1.386 . S
C1703 C1707 1.393 . S
C1704 H1693 0.950 . S
C1704 C1702 1.391 . S
C1704 C1705 1.400 . S
C1705 C1699 1.491 . S
C1705 C1704 1.400 . S
C1705 C1706 1.398 . S
C1706 H1694 0.950 . S
C1706 C1705 1.398 . S
C1706 C1707 1.391 . S
C1707 H1695 0.950 . S
C1707 C1703 1.393 . S
C1707 C1706 1.391 . S
H1708 C1716 0.950 . S
H1709 C1721 0.950 1_565 S
H1710 C1718 0.950 . S
H1711 C1720 0.950 . S
H1712 C1722 0.950 . S
H1713 C1724 0.950 . S
H1714 C1726 0.950 . S
H1715 C1727 0.950 . S
C1716 H1708 0.950 . S
C1716 C1717 1.386 . S
C1716 C1718 1.391 . S
C1717 C1716 1.386 . S
C1717 C1721 1.393 . S
C1718 H1710 0.950 . S
C1718 C1716 1.391 . S
C1718 C1719 1.400 . S
C1719 C1718 1.400 . S
C1719 C1720 1.398 . S
C1719 C1725 1.491 . S
C1720 H1711 0.950 . S
C1720 C1719 1.398 . S
C1720 C1721 1.391 . S
C1721 H1709 0.950 1_545 S
C1721 C1717 1.393 . S
C1721 C1720 1.391 . S
C1722 H1712 0.950 . S
C1722 C1723 1.386 . S
C1722 C1724 1.391 . S
C1723 C1722 1.386 . S
C1723 C1727 1.393 . S
C1724 H1713 0.950 . S
C1724 C1722 1.391 . S
C1724 C1725 1.400 . S
C1725 C1719 1.491 . S
C1725 C1724 1.400 . S
C1725 C1726 1.398 . S
C1726 H1714 0.950 . S
C1726 C1725 1.398 . S
C1726 C1727 1.391 . S
C1727 H1715 0.950 . S
C1727 C1723 1.393 . S
C1727 C1726 1.391 . S
C457 C5 1.427 . S
C463 C19 1.421 . S
C477 C47 1.427 . S
C483 C33 1.424 . S
C497 C61 1.423 . S
C503 C75 1.428 . S
C517 C89 1.429 . S
C523 C103 1.421 . S
C537 C117 1.422 . S
C543 C131 1.429 . S
C557 C145 1.426 . S
C563 C159 1.422 . S
C577 C173 1.422 . S
C583 C187 1.429 . S
C597 C201 1.421 . S
C603 C215 1.429 . S
C617 C243 1.423 . S
C623 C229 1.428 . S
C637 C271 1.421 . S
C643 C257 1.429 . S
C657 C299 1.421 . S
C663 C285 1.427 . S
C677 C327 1.427 . S
C683 C313 1.425 . S
C697 C355 1.429 . S
C703 C341 1.420 . S
C717 C383 1.422 . S
C723 C369 1.429 . S
C737 C411 1.421 . S
C743 C397 1.429 . S
C757 C439 1.421 . S
C763 C425 1.429 . S
C777 C11 1.468 . S
C783 C179 1.468 . S
C797 C25 1.469 . S
C803 C305 1.469 . S
C817 C39 1.455 . S
C823 C95 1.455 . S
C837 C53 1.468 . S
C843 C445 1.468 . S
C857 C67 1.461 . S
C863 C123 1.461 . S
C877 C249 1.469 . S
C883 C81 1.469 . S
C897 C389 1.476 . S
C903 C109 1.476 . S
C917 C137 1.476 . S
C923 C417 1.476 . S
C937 C151 1.459 . S
C943 C207 1.459 . S
C957 C165 1.470 . S
C963 C333 1.470 . S
C977 C193 1.461 . S
C983 C361 1.461 . S
C997 C221 1.468 . S
C1003 C277 1.468 . S
C1017 C403 1.463 . S
C1023 C235 1.463 . S
C1037 C319 1.454 . S
C1043 C263 1.454 . S
C1057 C291 1.460 . S
C1063 C347 1.460 . S
C1077 C431 1.476 . S
C1083 C375 1.476 . S
C1097 C149 0.784 . S
C1103 C9 0.783 . S
C1117 C163 0.798 . S
C1123 C23 0.796 1_565 S
C1137 C37 0.783 1_565 S
C1143 C121 0.784 . S
C1157 C135 0.794 . S
C1163 C51 0.796 . S
C1177 C65 0.795 . S
C1183 C205 0.794 . S
C1197 C79 0.796 1_545 S
C1203 C219 0.795 . S
C1217 C177 0.798 . S
C1223 C93 0.796 1_545 S
C1237 C191 0.800 . S
C1243 C107 0.800 . S
C1257 C233 0.785 . S
C1263 C373 0.786 . S
C1277 C387 0.800 . S
C1283 C247 0.799 1_565 S
C1297 C345 0.798 . S
C1303 C261 0.799 1_565 S
C1317 C275 0.799 . S
C1323 C359 0.798 . S
C1337 C429 0.785 . S
C1343 C289 0.784 . S
C1357 C303 0.800 1_545 S
C1363 C443 0.799 . S
C1377 C401 0.800 . S
C1383 C317 0.799 1_545 S
C1397 C415 0.788 . S
C1403 C331 0.787 . S
C1417 C140 1.537 . S
C1423 C0 1.549 1_565 S
C1437 C154 1.530 . S
C1443 C14 1.536 . S
C1457 C112 1.542 . S
C1463 C28 1.549 . S
C1477 C42 1.546 1_565 S
C1483 C126 1.546 . S
C1497 C196 1.546 . S
C1503 C56 1.532 1_545 S
C1517 C210 1.543 . S
C1523 C70 1.548 . S
C1537 C168 1.539 . S
C1543 C84 1.530 . S
C1557 C182 1.530 . S
C1563 C98 1.543 1_545 S
C1577 C364 1.549 . S
C1583 C224 1.542 1_565 S
C1597 C378 1.530 . S
C1603 C238 1.543 . S
C1617 C336 1.531 . S
C1623 C252 1.535 . S
C1637 C266 1.532 1_565 S
C1643 C350 1.534 . S
C1657 C420 1.541 . S
C1663 C280 1.530 1_545 S
C1677 C294 1.544 . S
C1683 C434 1.548 . S
C1697 C392 1.530 . S
C1703 C308 1.541 . S
C1717 C322 1.538 1_545 S
C1723 C406 1.530 . S
