# Generated by pormake.
# Topology uow, (4)-cn, num edge types: 1
# Building blocks:
#     Node 0, Type 0, BuildingBlock: TATPOV_clean_sbu_0, # of connection points: 4
#     Node 1, Type 0, BuildingBlock: TATPOV_clean_sbu_0, # of connection points: 4
#     Node 2, Type 0, BuildingBlock: TATPOV_clean_sbu_0, # of connection points: 4
#     Node 3, Type 0, BuildingBlock: TATPOV_clean_sbu_0, # of connection points: 4
#     Node 4, Type 0, BuildingBlock: TATPOV_clean_sbu_0, # of connection points: 4
#     Node 5, Type 0, BuildingBlock: TATPOV_clean_sbu_0, # of connection points: 4
#     Node 6, Type 0, BuildingBlock: TATPOV_clean_sbu_0, # of connection points: 4
#     Node 7, Type 0, BuildingBlock: TATPOV_clean_sbu_0, # of connection points: 4
#     Node 8, Type 0, BuildingBlock: TATPOV_clean_sbu_0, # of connection points: 4
#     Node 9, Type 0, BuildingBlock: TATPOV_clean_sbu_0, # of connection points: 4
#     Node 10, Type 0, BuildingBlock: TATPOV_clean_sbu_0, # of connection points: 4
#     Node 11, Type 0, BuildingBlock: TATPOV_clean_sbu_0, # of connection points: 4
#     Node 12, Type 0, BuildingBlock: TATPOV_clean_sbu_0, # of connection points: 4
#     Node 13, Type 0, BuildingBlock: TATPOV_clean_sbu_0, # of connection points: 4
#     Node 14, Type 0, BuildingBlock: TATPOV_clean_sbu_0, # of connection points: 4
#     Node 15, Type 0, BuildingBlock: TATPOV_clean_sbu_0, # of connection points: 4
#     Node 16, Type 0, BuildingBlock: TATPOV_clean_sbu_0, # of connection points: 4
#     Node 17, Type 0, BuildingBlock: TATPOV_clean_sbu_0, # of connection points: 4
#     Node 18, Type 0, BuildingBlock: TATPOV_clean_sbu_0, # of connection points: 4
#     Node 19, Type 0, BuildingBlock: TATPOV_clean_sbu_0, # of connection points: 4
#     Node 20, Type 0, BuildingBlock: TATPOV_clean_sbu_0, # of connection points: 4
#     Node 21, Type 0, BuildingBlock: TATPOV_clean_sbu_0, # of connection points: 4
#     Node 22, Type 0, BuildingBlock: TATPOV_clean_sbu_0, # of connection points: 4
#     Node 23, Type 0, BuildingBlock: TATPOV_clean_sbu_0, # of connection points: 4
#     Node 24, Type 0, BuildingBlock: TATPOV_clean_sbu_0, # of connection points: 4
#     Node 25, Type 0, BuildingBlock: TATPOV_clean_sbu_0, # of connection points: 4
#     Node 26, Type 0, BuildingBlock: TATPOV_clean_sbu_0, # of connection points: 4
#     Node 27, Type 0, BuildingBlock: TATPOV_clean_sbu_0, # of connection points: 4
#     Node 28, Type 0, BuildingBlock: TATPOV_clean_sbu_0, # of connection points: 4
#     Node 29, Type 0, BuildingBlock: TATPOV_clean_sbu_0, # of connection points: 4
#     Node 30, Type 0, BuildingBlock: TATPOV_clean_sbu_0, # of connection points: 4
#     Node 31, Type 0, BuildingBlock: TATPOV_clean_sbu_0, # of connection points: 4
#     Edge 32, Type (0, 0), BuildingBlock: AJUNOK_clean_linker_0, # of connection points: 2
#     Edge 33, Type (0, 0), BuildingBlock: AJUNOK_clean_linker_0, # of connection points: 2
#     Edge 34, Type (0, 0), BuildingBlock: AJUNOK_clean_linker_0, # of connection points: 2
#     Edge 35, Type (0, 0), BuildingBlock: AJUNOK_clean_linker_0, # of connection points: 2
#     Edge 36, Type (0, 0), BuildingBlock: AJUNOK_clean_linker_0, # of connection points: 2
#     Edge 37, Type (0, 0), BuildingBlock: AJUNOK_clean_linker_0, # of connection points: 2
#     Edge 38, Type (0, 0), BuildingBlock: AJUNOK_clean_linker_0, # of connection points: 2
#     Edge 39, Type (0, 0), BuildingBlock: AJUNOK_clean_linker_0, # of connection points: 2
#     Edge 40, Type (0, 0), BuildingBlock: AJUNOK_clean_linker_0, # of connection points: 2
#     Edge 41, Type (0, 0), BuildingBlock: AJUNOK_clean_linker_0, # of connection points: 2
#     Edge 42, Type (0, 0), BuildingBlock: AJUNOK_clean_linker_0, # of connection points: 2
#     Edge 43, Type (0, 0), BuildingBlock: AJUNOK_clean_linker_0, # of connection points: 2
#     Edge 44, Type (0, 0), BuildingBlock: AJUNOK_clean_linker_0, # of connection points: 2
#     Edge 45, Type (0, 0), BuildingBlock: AJUNOK_clean_linker_0, # of connection points: 2
#     Edge 46, Type (0, 0), BuildingBlock: AJUNOK_clean_linker_0, # of connection points: 2
#     Edge 47, Type (0, 0), BuildingBlock: AJUNOK_clean_linker_0, # of connection points: 2
#     Edge 48, Type (0, 0), BuildingBlock: AJUNOK_clean_linker_0, # of connection points: 2
#     Edge 49, Type (0, 0), BuildingBlock: AJUNOK_clean_linker_0, # of connection points: 2
#     Edge 50, Type (0, 0), BuildingBlock: AJUNOK_clean_linker_0, # of connection points: 2
#     Edge 51, Type (0, 0), BuildingBlock: AJUNOK_clean_linker_0, # of connection points: 2
#     Edge 52, Type (0, 0), BuildingBlock: AJUNOK_clean_linker_0, # of connection points: 2
#     Edge 53, Type (0, 0), BuildingBlock: AJUNOK_clean_linker_0, # of connection points: 2
#     Edge 54, Type (0, 0), BuildingBlock: AJUNOK_clean_linker_0, # of connection points: 2
#     Edge 55, Type (0, 0), BuildingBlock: AJUNOK_clean_linker_0, # of connection points: 2
#     Edge 56, Type (0, 0), BuildingBlock: AJUNOK_clean_linker_0, # of connection points: 2
#     Edge 57, Type (0, 0), BuildingBlock: AJUNOK_clean_linker_0, # of connection points: 2
#     Edge 58, Type (0, 0), BuildingBlock: AJUNOK_clean_linker_0, # of connection points: 2
#     Edge 59, Type (0, 0), BuildingBlock: AJUNOK_clean_linker_0, # of connection points: 2
#     Edge 60, Type (0, 0), BuildingBlock: AJUNOK_clean_linker_0, # of connection points: 2
#     Edge 61, Type (0, 0), BuildingBlock: AJUNOK_clean_linker_0, # of connection points: 2
#     Edge 62, Type (0, 0), BuildingBlock: AJUNOK_clean_linker_0, # of connection points: 2
#     Edge 63, Type (0, 0), BuildingBlock: AJUNOK_clean_linker_0, # of connection points: 2
#     Edge 64, Type (0, 0), BuildingBlock: AJUNOK_clean_linker_0, # of connection points: 2
#     Edge 65, Type (0, 0), BuildingBlock: AJUNOK_clean_linker_0, # of connection points: 2
#     Edge 66, Type (0, 0), BuildingBlock: AJUNOK_clean_linker_0, # of connection points: 2
#     Edge 67, Type (0, 0), BuildingBlock: AJUNOK_clean_linker_0, # of connection points: 2
#     Edge 68, Type (0, 0), BuildingBlock: AJUNOK_clean_linker_0, # of connection points: 2
#     Edge 69, Type (0, 0), BuildingBlock: AJUNOK_clean_linker_0, # of connection points: 2
#     Edge 70, Type (0, 0), BuildingBlock: AJUNOK_clean_linker_0, # of connection points: 2
#     Edge 71, Type (0, 0), BuildingBlock: AJUNOK_clean_linker_0, # of connection points: 2
#     Edge 72, Type (0, 0), BuildingBlock: AJUNOK_clean_linker_0, # of connection points: 2
#     Edge 73, Type (0, 0), BuildingBlock: AJUNOK_clean_linker_0, # of connection points: 2
#     Edge 74, Type (0, 0), BuildingBlock: AJUNOK_clean_linker_0, # of connection points: 2
#     Edge 75, Type (0, 0), BuildingBlock: AJUNOK_clean_linker_0, # of connection points: 2
#     Edge 76, Type (0, 0), BuildingBlock: AJUNOK_clean_linker_0, # of connection points: 2
#     Edge 77, Type (0, 0), BuildingBlock: AJUNOK_clean_linker_0, # of connection points: 2
#     Edge 78, Type (0, 0), BuildingBlock: AJUNOK_clean_linker_0, # of connection points: 2
#     Edge 79, Type (0, 0), BuildingBlock: AJUNOK_clean_linker_0, # of connection points: 2
#     Edge 80, Type (0, 0), BuildingBlock: AJUNOK_clean_linker_0, # of connection points: 2
#     Edge 81, Type (0, 0), BuildingBlock: AJUNOK_clean_linker_0, # of connection points: 2
#     Edge 82, Type (0, 0), BuildingBlock: AJUNOK_clean_linker_0, # of connection points: 2
#     Edge 83, Type (0, 0), BuildingBlock: AJUNOK_clean_linker_0, # of connection points: 2
#     Edge 84, Type (0, 0), BuildingBlock: AJUNOK_clean_linker_0, # of connection points: 2
#     Edge 85, Type (0, 0), BuildingBlock: AJUNOK_clean_linker_0, # of connection points: 2
#     Edge 86, Type (0, 0), BuildingBlock: AJUNOK_clean_linker_0, # of connection points: 2
#     Edge 87, Type (0, 0), BuildingBlock: AJUNOK_clean_linker_0, # of connection points: 2
#     Edge 88, Type (0, 0), BuildingBlock: AJUNOK_clean_linker_0, # of connection points: 2
#     Edge 89, Type (0, 0), BuildingBlock: AJUNOK_clean_linker_0, # of connection points: 2
#     Edge 90, Type (0, 0), BuildingBlock: AJUNOK_clean_linker_0, # of connection points: 2
#     Edge 91, Type (0, 0), BuildingBlock: AJUNOK_clean_linker_0, # of connection points: 2
#     Edge 92, Type (0, 0), BuildingBlock: AJUNOK_clean_linker_0, # of connection points: 2
#     Edge 93, Type (0, 0), BuildingBlock: AJUNOK_clean_linker_0, # of connection points: 2
#     Edge 94, Type (0, 0), BuildingBlock: AJUNOK_clean_linker_0, # of connection points: 2
#     Edge 95, Type (0, 0), BuildingBlock: AJUNOK_clean_linker_0, # of connection points: 2
# Relax obj value: 0.170
# Max RMSD: 0.205
# Mean RMSD: 0.205
data_MOF--net-uow--node1-TATPOV_clean_sbu_0--edge1-AJUNOK_clean_linker_0
_symmetry_space_group_name_H-M    P1
_symmetry_Int_Tables_number       1
_symmetry_cell_setting            triclinic
loop_
_symmetry_equiv_pos_as_xyz
'x, y, z'
_cell_length_a     44.359538
_cell_length_b     44.306575
_cell_length_c     31.930687
_cell_angle_alpha  90.065678
_cell_angle_beta   90.216362
_cell_angle_gamma 89.590125
loop_
_atom_site_label
_atom_site_type_symbol
_atom_site_fract_x
_atom_site_fract_y
_atom_site_fract_z
_atom_type_partial_charge
Zn0 Zn 0.00468 0.31874 0.20036 0.0
Zn1 Zn 0.03437 0.36608 0.22677 0.0
O2 O 0.98844 0.37447 0.23563 0.0
O3 O 0.96409 0.33735 0.20553 0.0
O4 O 0.05343 0.4069 0.2367 0.0
O5 O 0.02369 0.3189 0.14479 0.0
O6 O 0.04871 0.35881 0.16641 0.0
C7 C 0.96358 0.36222 0.22487 0.0
C8 C 0.04343 0.30766 0.27366 0.0
O9 O 0.05183 0.335 0.26935 0.0
O10 O 0.02373 0.29674 0.24919 0.0
C11 C 0.04159 0.42717 0.25966 0.0
O12 O 0.01879 0.42001 0.28364 0.0
C13 C 0.04238 0.33966 0.13812 0.0
Zn14 Zn 0.92822 0.8492 0.52728 0.0
Zn15 Zn 0.87432 0.82615 0.52579 0.0
O16 O 0.89774 0.79099 0.55409 0.0
O17 O 0.94244 0.8118 0.55822 0.0
O18 O 0.83237 0.81028 0.51639 0.0
O19 O 0.93297 0.85301 0.46599 0.0
O20 O 0.88647 0.83616 0.46496 0.0
C21 C 0.92529 0.78968 0.56557 0.0
C22 C 0.88641 0.88454 0.57426 0.0
O23 O 0.86911 0.86247 0.56585 0.0
O24 O 0.91259 0.88509 0.55861 0.0
C25 C 0.80996 0.81498 0.54024 0.0
O26 O 0.81392 0.83024 0.5751 0.0
C27 C 0.90946 0.84626 0.44579 0.0
Zn28 Zn 0.44781 0.68517 0.77834 0.0
Zn29 Zn 0.44105 0.62796 0.79946 0.0
O30 O 0.48654 0.63547 0.80373 0.0
O31 O 0.49316 0.68075 0.77775 0.0
O32 O 0.43974 0.58281 0.80797 0.0
O33 O 0.42362 0.68095 0.72647 0.0
O34 O 0.42401 0.63224 0.73969 0.0
C35 C 0.50415 0.6566 0.7927 0.0
C36 C 0.41481 0.67721 0.85504 0.0
O37 O 0.41726 0.64896 0.84769 0.0
O38 O 0.4266 0.69637 0.83093 0.0
C39 C 0.42175 0.56595 0.78764 0.0
O40 O 0.4002 0.57848 0.76517 0.0
C41 C 0.41719 0.65428 0.71597 0.0
Zn42 Zn 0.60638 0.24941 0.02019 0.0
Zn43 Zn 0.64718 0.21354 0.02645 0.0
O44 O 0.6564 0.25479 0.0555 0.0
O45 O 0.62959 0.28777 0.02116 0.0
O46 O 0.6888 0.19516 0.01932 0.0
O47 O 0.58849 0.23724 0.96715 0.0
O48 O 0.62962 0.20945 0.96601 0.0
C49 C 0.64918 0.28229 0.04885 0.0
C50 C 0.59819 0.20353 0.08492 0.0
O51 O 0.62012 0.18992 0.06702 0.0
O52 O 0.59066 0.22992 0.07328 0.0
C53 C 0.71049 0.20194 0.04366 0.0
O54 O 0.70446 0.21673 0.07835 0.0
C55 C 0.60557 0.21897 0.94825 0.0
Zn56 Zn 0.07651 0.67185 0.19461 0.0
Zn57 Zn 0.06134 0.61415 0.19879 0.0
O58 O 0.02025 0.63442 0.18458 0.0
O59 O 0.03238 0.68254 0.1864 0.0
O60 O 0.05114 0.57062 0.21055 0.0
O61 O 0.09488 0.67367 0.25063 0.0
O62 O 0.08 0.62653 0.25552 0.0
C63 C 0.01266 0.6622 0.18226 0.0
C64 C 0.10601 0.6345 0.13279 0.0
O65 O 0.09035 0.61323 0.14821 0.0
O66 O 0.10362 0.66101 0.14724 0.0
C67 C 0.07179 0.55125 0.21792 0.0
O68 O 0.10012 0.55933 0.21473 0.0
C69 C 0.09278 0.64958 0.27138 0.0
Zn70 Zn 0.57755 0.73451 0.49921 0.0
Zn71 Zn 0.62629 0.76471 0.50758 0.0
O72 O 0.63715 0.72007 0.49388 0.0
O73 O 0.5964 0.69343 0.50292 0.0
O74 O 0.66704 0.78231 0.51977 0.0
O75 O 0.55816 0.7533 0.54921 0.0
O76 O 0.60127 0.77633 0.55952 0.0
C77 C 0.6242 0.69446 0.49458 0.0
C78 C 0.58876 0.77795 0.43233 0.0
O79 O 0.61004 0.78698 0.45597 0.0
O80 O 0.57329 0.75515 0.44247 0.0
C81 C 0.68829 0.77802 0.49383 0.0
O82 O 0.68235 0.76392 0.45858 0.0
C83 C 0.57424 0.77107 0.57059 0.0
Zn84 Zn 0.51048 0.35424 0.68035 0.0
Zn85 Zn 0.47913 0.39651 0.69365 0.0
O86 O 0.52315 0.41218 0.68496 0.0
O87 O 0.54853 0.37189 0.70255 0.0
O88 O 0.45652 0.43426 0.71028 0.0
O89 O 0.48893 0.32545 0.71601 0.0
O90 O 0.47008 0.36708 0.74241 0.0
C91 C 0.5484 0.3996 0.69352 0.0
C92 C 0.47318 0.36375 0.61173 0.0
O93 O 0.45977 0.37966 0.63941 0.0
O94 O 0.49975 0.35443 0.61896 0.0
C95 C 0.46321 0.44494 0.74612 0.0
O96 O 0.48328 0.4305 0.76904 0.0
C97 C 0.47352 0.33849 0.74383 0.0
Zn98 Zn 0.93972 0.27482 0.96929 0.0
Zn99 Zn 0.88948 0.24658 0.9743 0.0
O100 O 0.88062 0.29092 0.95585 0.0
O101 O 0.922 0.31619 0.96783 0.0
O102 O 0.84865 0.23094 -0.00837 0.0
O103 O 0.95785 0.25917 0.02175 0.0
O104 O 0.91399 0.23695 0.02735 0.0
C105 C 0.89471 0.31597 0.95642 0.0
C106 C 0.92938 0.22867 0.90437 0.0
O107 O 0.90605 0.22147 0.9252 0.0
O108 O 0.94539 0.25091 0.91551 0.0
C109 C 0.83051 0.21314 0.97336 0.0
O110 O 0.83717 0.20262 0.93601 0.0
C111 C 0.94026 0.24217 0.04167 0.0
Zn112 Zn 0.01727 0.68627 0.7472 0.0
Zn113 Zn 0.98424 0.64018 0.7235 0.0
O114 O 0.02942 0.62941 0.71238 0.0
O115 O 0.05665 0.66556 0.73979 0.0
O116 O 0.96283 0.60044 0.71558 0.0
O117 O 0.99986 0.68733 0.80398 0.0
O118 O 0.9708 0.65004 0.78334 0.0
C119 C 0.05524 0.6405 0.72104 0.0
C120 C 0.97633 0.69811 0.67586 0.0
O121 O 0.96724 0.67112 0.68115 0.0
O122 O 0.99719 0.70861 0.69884 0.0
C123 C 0.97213 0.57988 0.69097 0.0
O124 O 0.9941 0.58596 0.66498 0.0
C125 C 0.97918 0.66868 0.81123 0.0
Zn126 Zn 0.08222 0.15574 0.42538 0.0
Zn127 Zn 0.13626 0.17612 0.42856 0.0
O128 O 0.11686 0.21362 0.40031 0.0
O129 O 0.07174 0.19401 0.39351 0.0
O130 O 0.18043 0.18419 0.43672 0.0
O131 O 0.07529 0.15279 0.48612 0.0
O132 O 0.12227 0.16815 0.48951 0.0
C133 C 0.08969 0.21569 0.38726 0.0
C134 C 0.12023 0.11863 0.37848 0.0
O135 O 0.13802 0.14028 0.38697 0.0
O136 O 0.0944 0.11827 0.39504 0.0
C137 C 0.1921 0.20167 0.46379 0.0
O138 O 0.17454 0.21898 0.4867 0.0
C139 C 0.09825 0.15942 0.50758 0.0
Zn140 Zn 0.53585 0.31302 0.21471 0.0
Zn141 Zn 0.53456 0.37087 0.19973 0.0
O142 O 0.49685 0.35602 0.16641 0.0
O143 O 0.4999 0.3071 0.17796 0.0
O144 O 0.53425 0.41642 0.19864 0.0
O145 O 0.53059 0.31556 0.27602 0.0
O146 O 0.53723 0.36384 0.26356 0.0
C147 C 0.4867 0.32937 0.16101 0.0
C148 C 0.58915 0.3352 0.17278 0.0
O149 O 0.57398 0.35961 0.17052 0.0
O150 O 0.57826 0.31256 0.19146 0.0
C151 C 0.5571 0.42762 0.21701 0.0
O152 O 0.57811 0.40912 0.23091 0.0
C153 C 0.53471 0.34206 0.28923 0.0
Zn154 Zn 0.40776 0.82737 -0.01436 0.0
Zn155 Zn 0.34867 0.82557 -0.01086 0.0
O156 O 0.3599 0.78243 0.97042 0.0
O157 O 0.40942 0.7827 0.97261 0.0
O158 O 0.30386 0.82219 -0.00208 0.0
O159 O 0.41314 0.84226 0.04325 0.0
O160 O 0.36384 0.8382 0.0483 0.0
C161 C 0.38504 0.76871 0.96616 0.0
C162 C 0.37878 0.86686 0.92599 0.0
O163 O 0.35434 0.85634 0.94079 0.0
O164 O 0.40397 0.85794 0.94018 0.0
C165 C 0.28588 0.8169 0.96777 0.0
O166 O 0.29671 0.81505 0.92961 0.0
C167 C 0.38935 0.8445 0.06459 0.0
Zn168 Zn 0.92741 0.33621 0.74629 0.0
Zn169 Zn 0.94284 0.3935 0.74531 0.0
O170 O 0.98405 0.37297 0.75678 0.0
O171 O 0.97154 0.32512 0.75317 0.0
O172 O 0.95382 0.43699 0.73562 0.0
O173 O 0.90846 0.33583 0.69047 0.0
O174 O 0.92327 0.38303 0.68826 0.0
C175 C 0.99151 0.34514 0.75776 0.0
C176 C 0.89973 0.37098 0.81216 0.0
O177 O 0.91524 0.3927 0.79761 0.0
O178 O 0.90115 0.34516 0.79529 0.0
C179 C 0.93419 0.45762 0.72981 0.0
O180 O 0.90547 0.45118 0.73368 0.0
C181 C 0.91053 0.36048 0.67098 0.0
Zn182 Zn 0.439 0.20713 0.49698 0.0
Zn183 Zn 0.38075 0.21646 0.50731 0.0
O184 O 0.39765 0.25923 0.51781 0.0
O185 O 0.44587 0.25174 0.50538 0.0
O186 O 0.33544 0.22114 0.50749 0.0
O187 O 0.43545 0.1891 0.44082 0.0
O188 O 0.38692 0.19853 0.4478 0.0
C189 C 0.42442 0.2694 0.51518 0.0
C190 C 0.41457 0.17366 0.56578 0.0
O191 O 0.39007 0.18736 0.55656 0.0
O192 O 0.43828 0.17852 0.54506 0.0
C193 C 0.32137 0.1972 0.49787 0.0
O194 O 0.33702 0.17222 0.49255 0.0
C195 C 0.40891 0.18804 0.4266 0.0
Zn196 Zn 0.59465 0.6706 0.29067 0.0
Zn197 Zn 0.5843 0.61269 0.2861 0.0
O198 O 0.54175 0.6273 0.30141 0.0
O199 O 0.54981 0.67622 0.30198 0.0
O200 O 0.58031 0.56795 0.27737 0.0
O201 O 0.61084 0.67482 0.23364 0.0
O202 O 0.59859 0.62697 0.22757 0.0
C203 C 0.53195 0.6542 0.30583 0.0
C204 C 0.62712 0.63836 0.35304 0.0
O205 O 0.61292 0.61605 0.33749 0.0
O206 O 0.62378 0.66438 0.33743 0.0
C207 C 0.56293 0.55712 0.2495 0.0
O208 O 0.54625 0.57566 0.227 0.0
C209 C 0.60893 0.65119 0.21174 0.0
Zn210 Zn 0.05882 0.72069 0.97721 0.0
Zn211 Zn 0.10374 0.75557 0.98112 0.0
O212 O 0.11849 0.71204 -0.00512 0.0
O213 O 0.08187 0.68194 0.97677 0.0
O214 O 0.14271 0.77825 0.97551 0.0
O215 O 0.04234 0.73731 0.92459 0.0
O216 O 0.08276 0.76549 0.9251 0.0
C217 C 0.10839 0.68533 -0.00967 0.0
C218 C 0.05595 0.7637 0.04612 0.0
O219 O 0.07964 0.77455 0.02956 0.0
O220 O 0.0445 0.73977 0.03131 0.0
C221 C 0.16332 0.7782 0.00323 0.0
O222 O 0.15841 0.76452 0.03903 0.0
C223 C 0.05812 0.75751 0.90785 0.0
Zn224 Zn 0.48157 0.8374 0.78086 0.0
Zn225 Zn 0.50814 0.88626 0.77007 0.0
O226 O 0.46347 0.89491 0.78798 0.0
O227 O 0.43941 0.8527 0.77713 0.0
O228 O 0.52235 0.92742 0.75152 0.0
O229 O 0.49929 0.8153 0.73297 0.0
O230 O 0.51917 0.85936 0.7189 0.0
C231 C 0.43877 0.88024 0.78727 0.0
C232 C 0.52549 0.85169 0.84581 0.0
O233 O 0.53332 0.87274 0.82104 0.0
O234 O 0.50287 0.83548 0.83713 0.0
C235 C 0.53863 0.94574 0.77211 0.0
O236 O 0.54831 0.93797 0.80952 0.0
C237 C 0.51529 0.83163 0.70966 0.0
Zn238 Zn 0.43471 0.23926 0.95776 0.0
Zn239 Zn 0.38036 0.26317 0.95466 0.0
O240 O 0.37652 0.21799 0.9697 0.0
O241 O 0.42089 0.19666 0.96279 0.0
O242 O 0.33708 0.27341 0.94185 0.0
O243 O 0.44649 0.25509 0.9024 0.0
O244 O 0.40161 0.2766 0.90079 0.0
C245 C 0.39313 0.1944 0.97088 0.0
C246 C 0.42022 0.28431 0.02346 0.0
O247 O 0.39465 0.28754 0.00562 0.0
O248 O 0.43946 0.26549 0.00968 0.0
C249 C 0.32363 0.29881 0.9411 0.0
O250 O 0.33827 0.32332 0.95183 0.0
C251 C 0.42722 0.27165 0.88422 0.0
Zn252 Zn 0.02662 0.17105 0.25569 0.0
Zn253 Zn 0.99262 0.12528 0.24478 0.0
O254 O 0.03638 0.10905 0.25394 0.0
O255 O 0.06529 0.14858 0.24792 0.0
O256 O 0.96989 0.087 0.23155 0.0
O257 O 0.00904 0.19331 0.20742 0.0
O258 O 0.98418 0.15174 0.19328 0.0
C259 C 0.0627 0.12034 0.25186 0.0
C260 C 0.98271 0.16503 0.32083 0.0
O261 O 0.97226 0.14486 0.29633 0.0
O262 O 0.00774 0.17731 0.31278 0.0
C263 C 0.97661 0.06263 0.25048 0.0
O264 O 0.99643 0.06339 0.28109 0.0
C265 C 0.99109 0.17883 0.18422 0.0
Zn266 Zn 0.07719 0.68512 0.52205 0.0
Zn267 Zn 0.13482 0.70126 0.52397 0.0
O268 O 0.11348 0.74151 0.53933 0.0
O269 O 0.06575 0.7287 0.53317 0.0
O270 O 0.17872 0.71183 0.51855 0.0
O271 O 0.07828 0.66917 0.4646 0.0
O272 O 0.1255 0.684 0.46535 0.0
C273 C 0.08555 0.74853 0.54032 0.0
C274 C 0.11274 0.65359 0.58433 0.0
O275 O 0.13409 0.67046 0.57213 0.0
O276 O 0.08682 0.65595 0.56791 0.0
C277 C 0.19632 0.69416 0.49869 0.0
O278 O 0.18546 0.66903 0.48302 0.0
C279 C 0.10337 0.67175 0.44652 0.0
Zn280 Zn 0.52733 0.18379 0.71548 0.0
Zn281 Zn 0.54915 0.13308 0.71774 0.0
O282 O 0.50412 0.13108 0.69758 0.0
O283 O 0.48385 0.17378 0.71758 0.0
O284 O 0.55944 0.0893 0.72887 0.0
O285 O 0.54705 0.19996 0.76549 0.0
O286 O 0.56025 0.15267 0.77478 0.0
C287 C 0.4808 0.14793 0.70158 0.0
C288 C 0.57021 0.17311 0.64994 0.0
O289 O 0.57679 0.14951 0.67099 0.0
O290 O 0.54806 0.18959 0.66043 0.0
C291 C 0.54969 0.06786 0.70623 0.0
O292 O 0.53508 0.07444 0.67153 0.0
C293 C 0.55947 0.17989 0.7877 0.0
Zn294 Zn 0.08845 0.26468 0.92015 0.0
Zn295 Zn 0.13564 0.29031 0.91621 0.0
O296 O 0.14372 0.24375 0.91414 0.0
O297 O 0.10323 0.2251 0.94236 0.0
O298 O 0.17782 0.30688 0.91578 0.0
O299 O 0.07128 0.29469 0.95944 0.0
O300 O 0.11822 0.30743 0.97103 0.0
C301 C 0.12964 0.22107 0.92876 0.0
C302 C 0.09099 0.29487 0.84476 0.0
O303 O 0.11202 0.30791 0.86516 0.0
O304 O 0.07992 0.27071 0.85889 0.0
C305 C 0.19743 0.29465 0.89222 0.0
O306 O 0.18866 0.27418 0.86506 0.0
C307 C 0.09039 0.30946 0.98027 0.0
Zn308 Zn 0.90946 0.82998 0.18522 0.0
Zn309 Zn 0.93637 0.88138 0.18293 0.0
O310 O 0.97143 0.85511 0.16067 0.0
O311 O 0.94719 0.812 0.15919 0.0
O312 O 0.95259 0.92351 0.1903 0.0
O313 O 0.90299 0.82731 0.24613 0.0
O314 O 0.92421 0.8719 0.24404 0.0
C315 C 0.97087 0.827 0.15207 0.0
C316 C 0.88056 0.86921 0.12837 0.0
O317 O 0.90364 0.88511 0.13686 0.0
O318 O 0.87594 0.84533 0.14898 0.0
C319 C 0.9342 0.94561 0.19276 0.0
O320 O 0.90526 0.94065 0.18767 0.0
C321 C 0.91207 0.85066 0.2648 0.0
Zn322 Zn 0.44114 0.71749 0.49397 0.0
Zn323 Zn 0.38549 0.70677 0.4672 0.0
O324 O 0.38968 0.75279 0.47077 0.0
O325 O 0.43251 0.762 0.50261 0.0
O326 O 0.34102 0.70209 0.45627 0.0
O327 O 0.43688 0.68759 0.54036 0.0
O328 O 0.38912 0.68387 0.52245 0.0
C329 C 0.40811 0.77157 0.48663 0.0
C330 C 0.4377 0.68993 0.41143 0.0
O331 O 0.40941 0.68796 0.41793 0.0
O332 O 0.45485 0.70255 0.43781 0.0
C333 C 0.32513 0.71544 0.48389 0.0
O334 O 0.33897 0.7304 0.51377 0.0
C335 C 0.41092 0.67694 0.54655 0.0
Zn336 Zn 0.42885 0.1752 0.17473 0.0
Zn337 Zn 0.44161 0.11741 0.18213 0.0
O338 O 0.48444 0.13237 0.16918 0.0
O339 O 0.47373 0.18095 0.16538 0.0
O340 O 0.44513 0.07318 0.195 0.0
O341 O 0.41158 0.18097 0.23104 0.0
O342 O 0.4243 0.13324 0.23827 0.0
C343 C 0.49288 0.15956 0.16411 0.0
C344 C 0.39905 0.13963 0.11302 0.0
O345 O 0.41443 0.1183 0.12941 0.0
O346 O 0.40075 0.16609 0.12767 0.0
C347 C 0.45962 0.06343 0.22669 0.0
O348 O 0.47541 0.08248 0.24925 0.0
C349 C 0.41325 0.15755 0.2534 0.0
Zn350 Zn 0.57084 0.71092 0.97601 0.0
Zn351 Zn 0.62734 0.71868 0.96054 0.0
O352 O 0.60915 0.76127 0.95071 0.0
O353 O 0.56221 0.7553 0.97045 0.0
O354 O 0.67214 0.72494 0.96223 0.0
O355 O 0.57441 0.69057 0.03058 0.0
O356 O 0.6225 0.69793 0.01834 0.0
C357 C 0.58275 0.77212 0.9563 0.0
C358 C 0.59224 0.68029 0.90126 0.0
O359 O 0.61775 0.69204 0.9093 0.0
O360 O 0.56992 0.68501 0.92501 0.0
C361 C 0.68909 0.70226 0.96952 0.0
O362 O 0.67713 0.67523 0.9705 0.0
C363 C 0.60162 0.68771 0.04154 0.0
Zn364 Zn 0.98004 0.83365 0.69094 0.0
Zn365 Zn 0.01335 0.87856 0.70683 0.0
O366 O 0.96942 0.89464 0.69747 0.0
O367 O 0.94077 0.85467 0.69807 0.0
O368 O 0.03488 0.91742 0.72048 0.0
O369 O 0.99622 0.81065 0.73918 0.0
O370 O 0.0205 0.85162 0.75834 0.0
C371 C 0.94319 0.88304 0.69745 0.0
C372 C 0.0254 0.84062 0.62915 0.0
O373 O 0.03522 0.85974 0.65569 0.0
O374 O 0.99988 0.82864 0.63454 0.0
C375 C 0.02753 0.94051 0.69903 0.0
O376 O 0.0094 0.9371 0.66678 0.0
C377 C 0.01276 0.82441 0.76509 0.0
Zn378 Zn 0.93027 0.32179 0.42412 0.0
Zn379 Zn 0.87333 0.30573 0.41884 0.0
O380 O 0.89496 0.26484 0.40806 0.0
O381 O 0.94239 0.27803 0.41634 0.0
O382 O 0.82907 0.29633 0.42188 0.0
O383 O 0.9272 0.34006 0.48001 0.0
O384 O 0.87989 0.32555 0.47704 0.0
C385 C 0.92292 0.25788 0.40909 0.0
C386 C 0.8983 0.35083 0.35676 0.0
O387 O 0.87649 0.33428 0.36816 0.0
O388 O 0.92333 0.3494 0.3758 0.0
C389 C 0.81168 0.31914 0.42508 0.0
O390 O 0.82362 0.34618 0.42418 0.0
C391 C 0.90138 0.33866 0.49627 0.0
Zn392 Zn 0.4466 0.82457 0.30654 0.0
Zn393 Zn 0.45918 0.88146 0.31078 0.0
O394 O 0.50079 0.8618 0.32207 0.0
O395 O 0.49064 0.81391 0.31121 0.0
O396 O 0.46705 0.92582 0.30226 0.0
O397 O 0.42463 0.82373 0.25302 0.0
O398 O 0.43724 0.87161 0.25446 0.0
C399 C 0.5094 0.8343 0.32037 0.0
C400 C 0.42049 0.855 0.37802 0.0
O401 O 0.4338 0.87842 0.36458 0.0
O402 O 0.42256 0.83026 0.35837 0.0
C403 C 0.4446 0.94077 0.2883 0.0
O404 O 0.41835 0.92736 0.28546 0.0
C405 C 0.42426 0.84952 0.23638 0.0
Zn406 Zn 0.92393 0.75256 0.02552 0.0
Zn407 Zn 0.87509 0.72606 0.02092 0.0
O408 O 0.86621 0.77237 0.0234 0.0
O409 O 0.90912 0.79333 0.00764 0.0
O410 O 0.8334 0.70879 0.01412 0.0
O411 O 0.94218 0.72469 0.98357 0.0
O412 O 0.89612 0.71048 0.96821 0.0
C413 C 0.88119 0.79596 0.01443 0.0
C414 C 0.91597 0.71728 0.09677 0.0
O415 O 0.89543 0.7064 0.07317 0.0
O416 O 0.92883 0.74155 0.0864 0.0
C417 C 0.81095 0.72175 0.03121 0.0
O418 O 0.81573 0.74392 0.05766 0.0
C419 C 0.92428 0.70966 0.96099 0.0
Zn420 Zn 0.07132 0.18226 0.76428 0.0
Zn421 Zn 0.057 0.12497 0.76649 0.0
O422 O 0.01806 0.14533 0.78929 0.0
O423 O 0.02965 0.19337 0.78393 0.0
O424 O 0.04505 0.08166 0.75762 0.0
O425 O 0.08194 0.1844 0.70472 0.0
O426 O 0.07035 0.13618 0.70612 0.0
C427 C 0.01089 0.17311 0.79331 0.0
C428 C 0.10844 0.1462 0.82048 0.0
O429 O 0.09098 0.12452 0.81097 0.0
O430 O 0.10441 0.17203 0.8044 0.0
C431 C 0.0639 0.05997 0.75532 0.0
O432 O 0.09256 0.06515 0.76262 0.0
C433 C 0.07972 0.1593 0.68635 0.0
Zn434 Zn 0.57477 0.32387 0.54397 0.0
Zn435 Zn 0.63123 0.32516 0.51679 0.0
O436 O 0.62798 0.28146 0.54064 0.0
O437 O 0.58033 0.28075 0.55997 0.0
O438 O 0.67263 0.32687 0.49125 0.0
O439 O 0.55647 0.33289 0.48912 0.0
O440 O 0.60327 0.33475 0.46621 0.0
C441 C 0.6054 0.26743 0.55543 0.0
C442 C 0.61135 0.36992 0.58293 0.0
O443 O 0.6328 0.35939 0.56087 0.0
O444 O 0.58543 0.35822 0.58144 0.0
C445 C 0.68706 0.30429 0.47676 0.0
O446 O 0.67496 0.27736 0.4786 0.0
C447 C 0.57491 0.3371 0.45974 0.0
C448 C 0.08722 0.33587 0.09226 0.0
C449 C 0.05619 0.34122 0.09687 0.0
C450 C 0.09911 0.3282 0.05301 0.0
C451 C 0.08011 0.32574 0.01779 0.0
H452 H 0.10181 0.33507 0.11953 0.0
H453 H 0.12266 0.32175 0.05103 0.0
S454 S 0.99843 0.34429 0.01306 0.0
N455 N 0.00768 0.34828 0.06289 0.0
N456 N 0.0299 0.33462 -0.0111 0.0
C457 C 0.04969 0.33444 0.02155 0.0
C458 C 0.0377 0.34194 0.06132 0.0
C459 C 0.89028 0.83269 0.33198 0.0
C460 C 0.90995 0.85222 0.31085 0.0
C461 C 0.88963 0.83156 0.37571 0.0
C462 C 0.90895 0.84958 0.39988 0.0
H463 H 0.87553 0.81779 0.31464 0.0
H464 H 0.87453 0.81576 0.39059 0.0
S465 S 0.96312 0.90613 0.36 0.0
N466 N 0.94796 0.89131 0.31748 0.0
N467 N 0.94697 0.88894 0.3998 0.0
C468 C 0.92807 0.8699 0.37926 0.0
C469 C 0.92847 0.87133 0.33469 0.0
C470 C 0.38464 0.66754 0.65598 0.0
C471 C 0.40765 0.64922 0.67273 0.0
C472 C 0.38316 0.67318 0.61295 0.0
C473 C 0.40529 0.66138 0.58607 0.0
H474 H 0.36958 0.67984 0.67661 0.0
H475 H 0.36691 0.68965 0.60158 0.0
S476 S 0.46632 0.60753 0.61371 0.0
N477 N 0.44955 0.61514 0.65865 0.0
N478 N 0.44762 0.6269 0.57772 0.0
C479 C 0.42616 0.64032 0.60178 0.0
C480 C 0.42709 0.63388 0.64536 0.0
C481 C 0.56531 0.21737 0.84462 0.0
C482 C 0.57265 0.18876 0.82831 0.0
C483 C 0.57694 0.22705 0.88277 0.0
C484 C 0.59659 0.20867 0.90625 0.0
H485 H 0.55006 0.23245 0.82812 0.0
H486 H 0.57018 0.24913 0.89413 0.0
S487 S 0.62386 0.13219 0.87714 0.0
N488 N 0.60149 0.1423 0.83804 0.0
N489 N 0.62357 0.16077 0.91042 0.0
C490 C 0.60479 0.18026 0.89014 0.0
C491 C 0.59267 0.17019 0.85109 0.0
C492 C 0.0837 0.63399 0.34459 0.0
C493 C 0.10122 0.65001 0.31582 0.0
C494 C 0.08588 0.63998 0.3874 0.0
C495 C 0.10598 0.66181 0.40277 0.0
H496 H 0.0666 0.6184 0.33387 0.0
H497 H 0.07069 0.62844 0.40839 0.0
S498 S 0.16103 0.70539 0.34062 0.0
N499 N 0.14227 0.68536 0.30566 0.0
N500 N 0.14676 0.69629 0.38655 0.0
C501 C 0.12577 0.67574 0.3747 0.0
C502 C 0.12326 0.66993 0.331 0.0
C503 C 0.53446 0.77496 0.62507 0.0
C504 C 0.56063 0.78679 0.60683 0.0
C505 C 0.51982 0.78995 0.65776 0.0
C506 C 0.5305 0.81761 0.67331 0.0
H507 H 0.52514 0.75382 0.6141 0.0
H508 H 0.49987 0.7797 0.67088 0.0
S509 S 0.59805 0.85849 0.63618 0.0
N510 N 0.59667 0.82796 0.60655 0.0
N511 N 0.56894 0.85632 0.66808 0.0
C512 C 0.55657 0.82988 0.65527 0.0
C513 C 0.57174 0.81438 0.62213 0.0
C514 C 0.42777 0.3175 0.83941 0.0
C515 C 0.43585 0.28712 0.84559 0.0
C516 C 0.43983 0.33398 0.80612 0.0
C517 C 0.45999 0.32044 0.77769 0.0
H518 H 0.41313 0.32897 0.86148 0.0
H519 H 0.43365 0.35758 0.80308 0.0
S520 S 0.48512 0.24015 0.77813 0.0
N521 N 0.46309 0.24338 0.8194 0.0
N522 N 0.48549 0.27389 0.75636 0.0
C523 C 0.46698 0.28953 0.78257 0.0
C524 C 0.45496 0.27298 0.81667 0.0
C525 C 0.97794 0.23651 0.09899 0.0
C526 C 0.9514 0.22646 0.07944 0.0
C527 C 0.99061 0.22077 0.13261 0.0
C528 C 0.97742 0.19419 0.14781 0.0
H529 H 0.98922 0.25663 0.08811 0.0
H530 H 0.01111 0.22946 0.14653 0.0
S531 S 0.90721 0.15876 0.10843 0.0
N532 N 0.91183 0.18861 0.0783 0.0
N533 N 0.93583 0.15889 0.14162 0.0
C534 C 0.95068 0.18399 0.1289 0.0
C535 C 0.93757 0.20021 0.09478 0.0
C536 C 0.93268 0.67851 0.85166 0.0
C537 C 0.96343 0.67081 0.85109 0.0
C538 C 0.91927 0.68932 0.88845 0.0
C539 C 0.93641 0.69262 0.92529 0.0
H540 H 0.91962 0.67849 0.82291 0.0
H541 H 0.89606 0.69707 0.88723 0.0
S542 S 0.01574 0.66829 0.94137 0.0
N543 N 0.00922 0.66234 0.89112 0.0
N544 N 0.98402 0.68203 0.96069 0.0
C545 C 0.96633 0.682 0.92583 0.0
C546 C 0.97989 0.67124 0.88848 0.0
C547 C 0.07532 0.13817 0.57203 0.0
C548 C 0.09646 0.15758 0.55356 0.0
C549 C 0.07098 0.13782 0.61538 0.0
C550 C 0.08718 0.15733 0.64159 0.0
H551 H 0.06165 0.12342 0.55279 0.0
H552 H 0.05395 0.12308 0.6282 0.0
S553 S 0.14684 0.21074 0.60933 0.0
N554 N 0.1352 0.19527 0.56512 0.0
N555 N 0.12663 0.19507 0.64668 0.0
C556 C 0.10916 0.17607 0.62377 0.0
C557 C 0.11394 0.17605 0.5797 0.0
C558 C 0.53633 0.32784 0.40501 0.0
C559 C 0.56306 0.34231 0.41736 0.0
C560 C 0.5261 0.32943 0.36366 0.0
C561 C 0.54174 0.34628 0.33372 0.0
H562 H 0.52407 0.31389 0.42688 0.0
H563 H 0.50646 0.31649 0.35469 0.0
S564 S 0.61088 0.39117 0.35146 0.0
N565 N 0.60371 0.37578 0.39743 0.0
N566 N 0.58386 0.37961 0.31967 0.0
C567 C 0.56733 0.36254 0.34629 0.0
C568 C 0.57821 0.36027 0.38819 0.0
C569 C 0.42439 0.87169 0.16496 0.0
C570 C 0.41052 0.85317 0.19471 0.0
C571 C 0.41571 0.87048 0.12284 0.0
C572 C 0.39243 0.85128 0.10945 0.0
H573 H 0.44347 0.88553 0.17365 0.0
H574 H 0.42836 0.88345 0.10025 0.0
S575 S 0.34555 0.80248 0.1767 0.0
N576 N 0.37001 0.818 0.20919 0.0
N577 N 0.35322 0.8163 0.12995 0.0
C578 C 0.37646 0.83492 0.13957 0.0
C579 C 0.3857 0.83568 0.18231 0.0
C580 C 0.88246 0.33883 0.61063 0.0
C581 C 0.90195 0.36115 0.62638 0.0
C582 C 0.8801 0.33341 0.56761 0.0
C583 C 0.89748 0.34988 0.53919 0.0
H584 H 0.87041 0.32415 0.63179 0.0
H585 H 0.86654 0.31464 0.55695 0.0
S586 S 0.94684 0.41484 0.56356 0.0
N587 N 0.93497 0.40307 0.60964 0.0
N588 N 0.93083 0.3925 0.52866 0.0
C589 C 0.91458 0.37424 0.55411 0.0
C590 C 0.91669 0.38005 0.59785 0.0
C591 C 0.38823 0.18435 0.31258 0.0
C592 C 0.40625 0.1601 0.29838 0.0
C593 C 0.38702 0.19188 0.35513 0.0
C594 C 0.40421 0.17569 0.38451 0.0
H595 H 0.37631 0.19865 0.29045 0.0
H596 H 0.37443 0.21179 0.36457 0.0
S597 S 0.45055 0.10724 0.36485 0.0
N598 N 0.43802 0.11736 0.31814 0.0
N599 N 0.43629 0.1321 0.39801 0.0
C600 C 0.42017 0.14993 0.37136 0.0
C601 C 0.42098 0.14191 0.32823 0.0
C602 C 0.59147 0.64163 0.13939 0.0
C603 C 0.61321 0.65394 0.16636 0.0
C604 C 0.589 0.65153 0.09797 0.0
C605 C 0.60861 0.6735 0.08205 0.0
H606 H 0.57463 0.62626 0.15125 0.0
H607 H 0.57068 0.64299 0.0789 0.0
S608 S 0.6729 0.70831 0.13807 0.0
N609 N 0.65707 0.68617 0.17318 0.0
N610 N 0.65304 0.70409 0.09462 0.0
C611 C 0.63239 0.6836 0.10744 0.0
C612 C 0.63452 0.67397 0.14989 0.0
C613 C 0.05238 0.81373 0.81868 0.0
C614 C 0.02356 0.80812 0.8023 0.0
C615 C 0.06374 0.79671 0.8522 0.0
C616 C 0.04652 0.77372 0.87065 0.0
H617 H 0.06648 0.83095 0.80499 0.0
H618 H 0.08612 0.80177 0.86381 0.0
S619 S 0.96841 0.75224 0.84086 0.0
N620 N 0.97737 0.77928 0.80783 0.0
N621 N 0.99836 0.74739 0.87094 0.0
C622 C 0.01735 0.7683 0.85476 0.0
C623 C 0.00595 0.78551 0.82058 0.0
C624 C 0.03718 0.2645 0.32202 0.0
C625 C 0.05564 0.28772 0.30706 0.0
C626 C 0.04831 0.24239 0.34912 0.0
C627 C 0.07858 0.24212 0.36257 0.0
H628 H 0.01389 0.26288 0.3119 0.0
H629 H 0.03301 0.22479 0.35841 0.0
S630 S 0.13591 0.29944 0.33515 0.0
N631 N 0.10527 0.31053 0.30969 0.0
N632 N 0.12651 0.26856 0.36082 0.0
C633 C 0.09709 0.26606 0.34948 0.0
C634 C 0.08555 0.28895 0.32178 0.0
C635 C 0.90274 0.92614 0.61929 0.0
C636 C 0.88113 0.90352 0.6118 0.0
C637 C 0.92118 0.92421 0.65501 0.0
C638 C 0.91656 0.90088 0.68409 0.0
H639 H 0.91034 0.9401 0.59362 0.0
H640 H 0.94191 0.93699 0.6554 0.0
S641 S 0.84778 0.85458 0.69266 0.0
N642 N 0.84517 0.87075 0.64615 0.0
N643 N 0.87902 0.86764 0.71421 0.0
C644 C 0.88824 0.88684 0.68376 0.0
C645 C 0.86995 0.88856 0.64712 0.0
C646 C 0.41272 0.72039 0.95364 0.0
C647 C 0.38656 0.73807 0.94761 0.0
C648 C 0.41955 0.69625 0.92682 0.0
C649 C 0.40056 0.68917 0.89301 0.0
H650 H 0.42931 0.72683 0.97691 0.0
H651 H 0.44146 0.68544 0.92961 0.0
S652 S 0.32691 0.72474 0.86812 0.0
N653 N 0.3393 0.74362 0.90929 0.0
N654 N 0.35277 0.69869 0.85828 0.0
C655 C 0.37278 0.7043 0.88962 0.0
C656 C 0.36557 0.72868 0.91718 0.0
C657 C 0.56736 0.15906 0.10637 0.0
C658 C 0.57805 0.18829 0.11487 0.0
C659 C 0.5409 0.14843 0.12544 0.0
C660 C 0.52443 0.16683 0.15331 0.0
H661 H 0.57783 0.14548 0.08216 0.0
H662 H 0.53198 0.12685 0.11562 0.0
S663 S 0.54698 0.24212 0.1928 0.0
N664 N 0.57314 0.23312 0.15824 0.0
N665 N 0.52359 0.21331 0.19376 0.0
C666 C 0.53679 0.19465 0.16528 0.0
C667 C 0.56361 0.20532 0.14615 0.0
C668 C 0.10435 0.61952 0.05877 0.0
C669 C 0.12128 0.63124 0.09217 0.0
C670 C 0.10513 0.63361 0.01951 0.0
C671 C 0.12246 0.65988 0.01362 0.0
H672 H 0.08669 0.60331 0.06463 0.0
H673 H 0.08822 0.62722 -0.00336 0.0
S674 S 0.1826 0.68714 0.08458 0.0
N675 N 0.16474 0.66116 0.11185 0.0
N676 N 0.16617 0.68781 0.03807 0.0
C677 C 0.14534 0.66577 0.04298 0.0
C678 C 0.14466 0.65131 0.08273 0.0
C679 C 0.5499 0.84041 0.37397 0.0
C680 C 0.5386 0.82481 0.33885 0.0
C681 C 0.56963 0.82614 0.40232 0.0
C682 C 0.57853 0.79596 0.39623 0.0
H683 H 0.54098 0.86247 0.38213 0.0
H684 H 0.57531 0.83768 0.4312 0.0
S685 S 0.56263 0.74874 0.3032 0.0
N686 N 0.54332 0.7802 0.29488 0.0
N687 N 0.57991 0.75328 0.34865 0.0
C688 C 0.57065 0.78168 0.35861 0.0
C689 C 0.55085 0.79622 0.32965 0.0
C690 C 0.46089 0.31175 0.52108 0.0
C691 C 0.43199 0.30036 0.52956 0.0
C692 C 0.47283 0.33563 0.54441 0.0
C693 C 0.45634 0.34905 0.57715 0.0
H694 H 0.47545 0.30057 0.49864 0.0
H695 H 0.49618 0.34165 0.53938 0.0
S696 S 0.37686 0.33287 0.60453 0.0
N697 N 0.385 0.30834 0.5672 0.0
N698 N 0.40751 0.35329 0.61117 0.0
C699 C 0.42595 0.34082 0.58188 0.0
C700 C 0.41374 0.31636 0.55807 0.0
C701 C 0.97227 0.16711 0.84962 0.0
C702 C 0.98249 0.18248 0.81386 0.0
C703 C 0.95155 0.18082 0.87711 0.0
C704 C 0.9405 0.21012 0.86937 0.0
H705 H 0.98242 0.14573 0.85851 0.0
H706 H 0.94652 0.1697 0.90645 0.0
S707 S 0.95461 0.25647 0.77527 0.0
N708 N 0.97566 0.22599 0.76846 0.0
N709 N 0.93719 0.25175 0.82037 0.0
C710 C 0.94792 0.22408 0.83148 0.0
C711 C 0.96881 0.21022 0.80358 0.0
C712 C 0.98079 0.74109 0.62647 0.0
C713 C 0.9629 0.71818 0.64354 0.0
C714 C 0.96851 0.76301 0.59993 0.0
C715 C 0.93762 0.76347 0.58956 0.0
H716 H 0.00453 0.74252 0.63431 0.0
H717 H 0.98341 0.78025 0.58845 0.0
S718 S 0.88128 0.70707 0.62377 0.0
N719 N 0.91305 0.69589 0.64626 0.0
N720 N 0.88966 0.7376 0.59664 0.0
C721 C 0.91961 0.73986 0.60493 0.0
C722 C 0.93232 0.71713 0.63181 0.0
C723 C 0.11718 0.11846 0.26844 0.0
C724 C 0.08948 0.10308 0.26656 0.0
C725 C 0.13484 0.11705 0.3049 0.0
C726 C 0.1243 0.10083 0.33969 0.0
H727 H 0.12226 0.13582 0.2457 0.0
H728 H 0.15245 0.13366 0.30873 0.0
S729 S 0.06676 0.04094 0.33675 0.0
N730 N 0.0625 0.05913 0.29194 0.0
N731 N 0.09551 0.05704 0.36084 0.0
C732 C 0.10345 0.0778 0.33169 0.0
C733 C 0.08551 0.07909 0.29467 0.0
C734 C 0.65288 0.29261 0.12448 0.0
C735 C 0.65164 0.30431 0.08355 0.0
C736 C 0.63523 0.30542 0.15615 0.0
C737 C 0.61693 0.33085 0.14801 0.0
H738 H 0.66316 0.27077 0.13051 0.0
H739 H 0.63319 0.29328 0.18543 0.0
S740 S 0.61882 0.37807 0.05236 0.0
N741 N 0.64025 0.34852 0.0412 0.0
N742 N 0.60745 0.37314 0.10106 0.0
C743 C 0.62162 0.34672 0.11055 0.0
C744 C 0.63939 0.33344 0.07821 0.0
C745 C 0.40181 0.90662 0.8834 0.0
C746 C 0.37952 0.88432 0.88684 0.0
C747 C 0.41796 0.91016 0.84611 0.0
C748 C 0.41245 0.89103 0.81175 0.0
H749 H 0.41 0.91793 0.91128 0.0
H750 H 0.43782 0.92424 0.84688 0.0
S751 S 0.34791 0.83895 0.80011 0.0
N752 N 0.34624 0.85046 0.84929 0.0
N753 N 0.37658 0.85696 0.77902 0.0
C754 C 0.38576 0.87397 0.81207 0.0
C755 C 0.36921 0.87057 0.84998 0.0
C756 C 0.90281 0.36692 0.92607 0.0
C757 C 0.88346 0.34207 0.93157 0.0
C758 C 0.90412 0.38191 0.88748 0.0
C759 C 0.8859 0.3725 0.85397 0.0
H760 H 0.92022 0.37169 0.94898 0.0
H761 H 0.9227 0.39715 0.88205 0.0
S762 S 0.8216 0.31991 0.85979 0.0
N763 N 0.83818 0.3172 0.90605 0.0
N764 N 0.84084 0.34539 0.83351 0.0
C765 C 0.86166 0.35332 0.86277 0.0
C766 C 0.86032 0.33801 0.90192 0.0
C767 C 0.4295 0.16377 0.67835 0.0
C768 C 0.45327 0.14244 0.67624 0.0
C769 C 0.41214 0.17067 0.6428 0.0
C770 C 0.41799 0.15616 0.60461 0.0
H771 H 0.42712 0.1782 0.70558 0.0
H772 H 0.3974 0.19027 0.6438 0.0
S773 S 0.46827 0.09025 0.58778 0.0
N774 N 0.47453 0.10035 0.63683 0.0
N775 N 0.44211 0.1137 0.56997 0.0
C776 C 0.43701 0.13071 0.60471 0.0
C777 C 0.45457 0.12357 0.64084 0.0
C778 C 0.62008 0.64247 0.46586 0.0
C779 C 0.63795 0.66828 0.47242 0.0
C780 C 0.62118 0.6269 0.42763 0.0
C781 C 0.64016 0.63692 0.39547 0.0
H782 H 0.60189 0.63726 0.48716 0.0
H783 H 0.60355 0.61077 0.42091 0.0
S784 S 0.70192 0.69211 0.40617 0.0
N785 N 0.68339 0.69449 0.45084 0.0
N786 N 0.68477 0.66572 0.37853 0.0
C787 C 0.66316 0.65717 0.40604 0.0
C788 C 0.66225 0.67283 0.44501 0.0
C789 C 0.01647 0.76461 0.10109 0.0
C790 C 0.03914 0.78005 0.07938 0.0
C791 C 0.99568 0.78 0.12604 0.0
C792 C 0.99658 0.81154 0.13095 0.0
H793 H 0.01374 0.74047 0.09728 0.0
H794 H 0.9779 0.767 0.14002 0.0
S795 S 0.05383 0.86234 0.08502 0.0
N796 N 0.06311 0.82849 0.06735 0.0
N797 N 0.02399 0.85749 0.11499 0.0
C798 C 0.02047 0.82713 0.11192 0.0
C799 C 0.04177 0.81136 0.08608 0.0
C800 C 0.54448 0.81278 0.94604 0.0
C801 C 0.57365 0.80157 0.93773 0.0
C802 C 0.53001 0.83255 0.91824 0.0
C803 C 0.54439 0.84235 0.88165 0.0
H804 H 0.5315 0.80388 0.97186 0.0
H805 H 0.50645 0.83797 0.92343 0.0
S806 S 0.62322 0.82597 0.85083 0.0
N807 N 0.6184 0.80643 0.8943 0.0
N808 N 0.59108 0.84406 0.8424 0.0
C809 C 0.57494 0.83496 0.87614 0.0
C810 C 0.58969 0.81448 0.90425 0.0
C811 C 0.45954 0.33971 0.09354 0.0
C812 C 0.46204 0.32302 0.13091 0.0
C813 C 0.4429 0.32858 0.05934 0.0
C814 C 0.42793 0.30079 0.0619 0.0
H815 H 0.47267 0.36 0.08932 0.0
H816 H 0.44378 0.34051 0.02977 0.0
S817 S 0.42325 0.25107 0.15465 0.0
N818 N 0.44477 0.2793 0.16999 0.0
N819 N 0.41372 0.25864 0.1057 0.0
C820 C 0.4279 0.28544 0.10019 0.0
C821 C 0.44485 0.29657 0.13481 0.0
C822 C 0.91932 0.21259 0.36251 0.0
C823 C 0.93361 0.22758 0.39594 0.0
C824 C 0.93401 0.18903 0.34103 0.0
C825 C 0.96332 0.17975 0.35249 0.0
H826 H 0.89802 0.22094 0.35032 0.0
H827 H 0.92363 0.18025 0.31281 0.0
S828 S 0.00643 0.20579 0.44514 0.0
N829 N 0.97584 0.22728 0.44468 0.0
N830 N 0.00311 0.18278 0.40465 0.0
C831 C 0.97598 0.19187 0.38911 0.0
C832 C 0.9612 0.2159 0.41076 0.0
C833 C 0.12355 0.65278 0.6596 0.0
C834 C 0.11489 0.63664 0.62374 0.0
C835 C 0.10755 0.6492 0.69698 0.0
C836 C 0.0825 0.62975 0.69857 0.0
H837 H 0.13867 0.67178 0.65698 0.0
H838 H 0.11153 0.6654 0.72181 0.0
S839 S 0.06417 0.5708 0.62049 0.0
N840 N 0.08966 0.59202 0.59741 0.0
N841 N 0.05975 0.58501 0.66796 0.0
C842 C 0.07992 0.6079 0.6669 0.0
C843 C 0.09621 0.61152 0.62898 0.0
C844 C 0.58479 0.21602 0.55429 0.0
C845 C 0.60728 0.23569 0.56875 0.0
C846 C 0.57619 0.19099 0.57799 0.0
C847 C 0.58975 0.18501 0.61693 0.0
H848 H 0.57137 0.22197 0.52704 0.0
H849 H 0.55621 0.17875 0.56853 0.0
S850 S 0.65393 0.22599 0.66409 0.0
N851 N 0.64642 0.24464 0.62043 0.0
N852 N 0.63012 0.19749 0.6653 0.0
C853 C 0.61514 0.20187 0.62859 0.0
C854 C 0.62394 0.22743 0.60437 0.0
C855 C 0.0396 0.35323 0.79755 0.0
C856 C 0.0225 0.3356 0.76962 0.0
C857 C 0.06486 0.341 0.81834 0.0
C858 C 0.07371 0.31079 0.81179 0.0
H859 H 0.03193 0.37564 0.80626 0.0
H860 H 0.07552 0.35426 0.8427 0.0
S861 S 0.04167 0.25825 0.73335 0.0
N862 N 0.02012 0.28871 0.73007 0.0
N863 N 0.06719 0.26569 0.76964 0.0
C864 C 0.05906 0.29432 0.78025 0.0
C865 C 0.03351 0.30673 0.75904 0.0
C866 C 0.88866 0.85122 0.02237 0.0
C867 C 0.86885 0.82647 0.02372 0.0
C868 C 0.88703 0.87383 0.05306 0.0
C869 C 0.86657 0.87086 0.08634 0.0
H870 H 0.90827 0.85066 0.00226 0.0
H871 H 0.90587 0.88917 0.05571 0.0
S872 S 0.79867 0.82299 0.08589 0.0
N873 N 0.81939 0.80997 0.04685 0.0
N874 N 0.81727 0.85201 0.10543 0.0
C875 C 0.84126 0.85267 0.07915 0.0
C876 C 0.84259 0.82979 0.04782 0.0
C877 C 0.4638 0.64792 0.3754 0.0
C878 C 0.45199 0.6774 0.37384 0.0
C879 C 0.48791 0.63925 0.34957 0.0
C880 C 0.50119 0.66004 0.322 0.0
H881 H 0.45636 0.63246 0.39946 0.0
H882 H 0.49801 0.61717 0.35427 0.0
S883 S 0.47416 0.738 0.3008 0.0
N884 N 0.45209 0.72581 0.33863 0.0
N885 N 0.49717 0.70964 0.28971 0.0
C886 C 0.48726 0.68847 0.31706 0.0
C887 C 0.46272 0.69715 0.34321 0.0
C888 C 0.40513 0.12824 0.0385 0.0
C889 C 0.38563 0.13656 0.07112 0.0
C890 C 0.4038 0.1435 0.0001 0.0
C891 C 0.38295 0.16728 -0.00608 0.0
H892 H 0.42461 0.11403 0.04485 0.0
H893 H 0.42213 0.14 0.97824 0.0
S894 S 0.31799 0.18544 0.06234 0.0
N895 N 0.33842 0.16099 0.08949 0.0
N896 N 0.33531 0.18926 0.01697 0.0
C897 C 0.35877 0.1697 0.02214 0.0
C898 C 0.36031 0.15434 0.06122 0.0
C899 C 0.54566 0.63345 0.83479 0.0
C900 C 0.53625 0.65569 0.80599 0.0
C901 C 0.56989 0.63876 0.86197 0.0
C902 C 0.5854 0.66627 0.86083 0.0
H903 H 0.53205 0.61365 0.84026 0.0
H904 H 0.57342 0.62339 0.88794 0.0
S905 S 0.57705 0.72622 0.78103 0.0
N906 N 0.55003 0.702 0.76989 0.0
N907 N 0.59549 0.7118 0.82144 0.0
C908 C 0.58025 0.68558 0.82678 0.0
C909 C 0.55544 0.6804 0.79922 0.0
C910 C 0.0741 0.8156 0.61155 0.0
C911 C 0.04572 0.82641 0.5982 0.0
C912 C 0.0888 0.79209 0.58994 0.0
C913 C 0.07541 0.7787 0.55457 0.0
H914 H 0.08351 0.82308 0.64112 0.0
H915 H 0.1092 0.78251 0.6033 0.0
S916 S 0.00569 0.80467 0.50086 0.0
N917 N 0.0082 0.8265 0.5427 0.0
N918 N 0.03534 0.78193 0.50263 0.0
C919 C 0.04896 0.79185 0.53823 0.0
C920 C 0.03426 0.8159 0.55989 0.0
C921 C 0.89262 0.34815 0.28064 0.0
C922 C 0.89811 0.3661 0.31602 0.0
C923 C 0.91086 0.35099 0.24519 0.0
C924 C 0.93493 0.37169 0.24496 0.0
H925 H 0.87819 0.32858 0.2829 0.0
H926 H 0.90916 0.33373 0.22126 0.0
S927 S 0.94581 0.43411 0.32055 0.0
N928 N 0.91978 0.41264 0.34196 0.0
N929 N 0.95387 0.4184 0.27495 0.0
C930 C 0.93468 0.39467 0.27527 0.0
C931 C 0.91611 0.39175 0.31123 0.0
C932 C 0.38146 0.83773 0.42523 0.0
C933 C 0.40892 0.85299 0.42084 0.0
C934 C 0.3792 0.81334 0.45287 0.0
C935 C 0.40426 0.80415 0.47706 0.0
H936 H 0.36386 0.84075 0.40195 0.0
H937 H 0.3594 0.79924 0.45066 0.0
S938 S 0.47502 0.84714 0.49126 0.0
N939 N 0.45678 0.86502 0.45341 0.0
N940 N 0.45272 0.81945 0.50606 0.0
C941 C 0.42863 0.82422 0.48043 0.0
C942 C 0.43073 0.84908 0.45229 0.0
C943 C 0.96691 0.6563 0.13707 0.0
C944 C 0.98173 0.67137 0.16993 0.0
C945 C 0.9421 0.66967 0.11656 0.0
C946 C 0.93138 0.69841 0.12848 0.0
H947 H 0.97623 0.63552 0.12453 0.0
H948 H 0.93346 0.65894 0.08851 0.0
S949 S 0.95672 0.74266 0.22041 0.0
N950 N 0.97999 0.71339 0.21891 0.0
N951 N 0.93316 0.73819 0.18069 0.0
C952 C 0.94349 0.71165 0.16468 0.0
C953 C 0.96881 0.69824 0.1853 0.0
C954 C 0.11867 0.16624 0.92589 0.0
C955 C 0.13897 0.18986 0.91751 0.0
C956 C 0.11363 0.14366 0.8959 0.0
C957 C 0.12847 0.14493 0.8572 0.0
H958 H 0.10302 0.16803 0.95175 0.0
H959 H 0.09389 0.12962 0.89944 0.0
S960 S 0.19595 0.19008 0.83313 0.0
N961 N 0.18344 0.20403 0.87786 0.0
N962 N 0.17334 0.16181 0.82128 0.0
C963 C 0.15482 0.16221 0.85507 0.0
C964 C 0.16008 0.18517 0.88542 0.0
C965 C 0.62243 0.38634 0.65375 0.0
C966 C 0.61544 0.39492 0.61253 0.0
C967 C 0.60353 0.39539 0.68668 0.0
C968 C 0.57712 0.41228 0.67804 0.0
H969 H 0.63826 0.36803 0.65939 0.0
H970 H 0.60593 0.3838 0.71639 0.0
S971 S 0.5619 0.45493 0.58067 0.0
N972 N 0.59053 0.4324 0.56908 0.0
N973 N 0.55455 0.44905 0.63068 0.0
C974 C 0.57636 0.42849 0.64029 0.0
C975 C 0.59587 0.41962 0.60707 0.0
C976 C 0.07763 0.46644 0.23444 0.0
C977 C 0.04995 0.45926 0.2533 0.0
C978 C 0.08471 0.49629 0.22381 0.0
C979 C 0.06413 0.52007 0.23079 0.0
H980 H 0.09385 0.4488 0.22729 0.0
H981 H 0.10618 0.50061 0.209 0.0
S982 S 0.98914 0.51374 0.28109 0.0
N983 N 1.00238 0.47884 0.28017 0.0
N984 N 0.01547 0.53468 0.25948 0.0
C985 C 0.03664 0.51335 0.25038 0.0
C986 C 0.02964 0.48305 0.26188 0.0
C987 C 0.75441 0.81193 0.5531 0.0
C988 C 0.77935 0.80479 0.52776 0.0
C989 C 0.72514 0.8034 0.54168 0.0
C990 C 0.71952 0.78737 0.5044 0.0
H991 H 0.75737 0.82435 0.58204 0.0
H992 H 0.7068 0.80948 0.56241 0.0
S993 S 0.77703 0.76256 0.42712 0.0
N994 N 0.79646 0.78032 0.46365 0.0
N995 N 0.74155 0.76434 0.44227 0.0
C996 C 0.74425 0.77997 0.47874 0.0
C997 C 0.77411 0.78863 0.4904 0.0
C998 C 0.42809 0.48896 0.73631 0.0
C999 C 0.45036 0.47426 0.76044 0.0
C1000 C 0.41763 0.51791 0.74686 0.0
C1001 C 0.4292 0.5335 0.78179 0.0
H1002 H 0.41917 0.47841 0.7083 0.0
H1003 H 0.40133 0.52861 0.72625 0.0
S1004 S 0.4853 0.50382 0.85812 0.0
N1005 N 0.48171 0.47658 0.8232 0.0
N1006 N 0.46221 0.53101 0.84266 0.0
C1007 C 0.45032 0.51848 0.80746 0.0
C1008 C 0.46085 0.48889 0.79689 0.0
C1009 C 0.77672 0.1961 0.96873 0.0
C1010 C 0.80108 0.20622 -0.00679 0.0
C1011 C 0.74782 0.19294 -0.01408 0.0
C1012 C 0.7421 0.19971 0.02835 0.0
H1013 H 0.77963 0.19183 0.93558 0.0
H1014 H 0.72958 0.1865 0.96519 0.0
S1015 S 0.79938 0.22193 0.10751 0.0
N1016 N 0.81838 0.21932 0.0633 0.0
N1017 N 0.76424 0.21336 0.09552 0.0
C1018 C 0.76675 0.20777 0.05381 0.0
C1019 C 0.79614 0.21107 0.03628 0.0
C1020 C 0.92534 0.51348 0.72766 0.0
C1021 C 0.94357 0.48842 0.71763 0.0
C1022 C 0.93433 0.54293 0.71783 0.0
C1023 C 0.96159 0.54842 0.69677 0.0
H1024 H 0.90433 0.51041 0.74425 0.0
H1025 H 0.91996 0.56157 0.72731 0.0
S1026 S 0.01628 0.49021 0.66055 0.0
N1027 N 0.9894 0.47082 0.68361 0.0
N1028 N 0.00605 0.52598 0.66448 0.0
C1029 C 0.97946 0.52341 0.68513 0.0
C1030 C 0.97054 0.49348 0.69579 0.0
C1031 C 0.2708 0.22312 0.50082 0.0
C1032 C 0.28836 0.19775 0.48969 0.0
C1033 C 0.2397 0.22428 0.49239 0.0
C1034 C 0.22506 0.20034 0.47187 0.0
H1035 H 0.2811 0.24223 0.51631 0.0
H1036 H 0.2271 0.2442 0.5017 0.0
S1037 S 0.26058 0.12849 0.43672 0.0
N1038 N 0.28849 0.14786 0.45756 0.0
N1039 N 0.23042 0.15021 0.44144 0.0
C1040 C 0.24234 0.17484 0.46061 0.0
C1041 C 0.27386 0.17349 0.46962 0.0
C1042 C 0.53953 0.51185 0.21549 0.0
C1043 C 0.56199 0.52407 0.24168 0.0
C1044 C 0.53818 0.48074 0.20746 0.0
C1045 C 0.55938 0.46058 0.225 0.0
H1046 H 0.52266 0.52638 0.20122 0.0
H1047 H 0.52034 0.47247 0.18733 0.0
S1048 S 0.62308 0.48106 0.29531 0.0
N1049 N 0.60614 0.51346 0.28484 0.0
N1050 N 0.60373 0.45524 0.26971 0.0
C1051 C 0.58211 0.47254 0.25103 0.0
C1052 C 0.58336 0.50417 0.2594 0.0
C1053 C 0.21532 0.79297 0.02579 0.0
C1054 C 0.19353 0.79081 -0.00619 0.0
C1055 C 0.24477 0.80241 0.01728 0.0
C1056 C 0.2538 0.80979 0.97633 0.0
H1057 H 0.2098 0.78684 0.05767 0.0
H1058 H 0.2608 0.80304 0.04294 0.0
S1059 S 0.20497 0.80988 0.88165 0.0
N1060 N 0.18271 0.79847 0.91968 0.0
N1061 N 0.23807 0.81589 0.90378 0.0
C1062 C 0.23204 0.80862 0.94422 0.0
C1063 C 0.20193 0.79925 0.95293 0.0
C1064 C 0.53318 0.98411 0.71492 0.0
C1065 C 0.54463 0.9763 0.75471 0.0
C1066 C 0.5361 0.01336 0.69887 0.0
C1067 C 0.5506 0.0362 0.72185 0.0
H1068 H 0.52115 0.96769 0.6962 0.0
H1069 H 0.52607 0.01822 0.66863 0.0
S1070 S 0.58707 0.02701 0.82611 0.0
N1071 N 0.57294 0.99347 0.81558 0.0
N1072 N 0.57846 0.0484 0.78545 0.0
C1073 C 0.56337 0.02843 0.76092 0.0
C1074 C 0.56037 0.99854 0.77732 0.0
C1075 C 0.2807 0.27668 0.90127 0.0
C1076 C 0.29189 0.30019 0.92647 0.0
C1077 C 0.25049 0.27602 0.88861 0.0
C1078 C 0.23 0.29862 0.90114 0.0
H1079 H 0.29533 0.25831 0.89151 0.0
H1080 H 0.24298 0.25694 0.87018 0.0
S1081 S 0.24818 0.36626 0.9649 0.0
N1082 N 0.28047 0.34764 0.96152 0.0
N1083 N 0.22338 0.34616 0.93833 0.0
C1084 C 0.24103 0.32283 0.92523 0.0
C1085 C 0.27203 0.3237 0.93769 0.0
C1086 C 0.98091 0.00652 0.24489 0.0
C1087 C 0.9649 0.03324 0.23552 0.0
C1088 C 0.97123 0.97843 0.23 0.0
C1089 C 0.94485 0.97584 0.20573 0.0
H1090 H 1.00136 0.00726 0.26351 0.0
H1091 H 0.98426 0.95853 0.23828 0.0
S1092 S 0.89474 0.03884 0.17221 0.0
N1093 N 0.92149 0.05532 0.19993 0.0
N1094 N 0.90295 1.00243 0.17266 0.0
C1095 C 0.92854 1.00233 0.19618 0.0
C1096 C 0.93866 0.03104 0.21084 0.0
C1097 C 0.27802 0.68804 0.464 0.0
C1098 C 0.29194 0.71206 0.48518 0.0
C1099 C 0.24707 0.68271 0.46822 0.0
C1100 C 0.22874 0.70132 0.49352 0.0
H1101 H 0.29124 0.67267 0.44496 0.0
H1102 H 0.23757 0.66357 0.45183 0.0
S1103 S 0.25384 0.76889 0.55274 0.0
N1104 N 0.28475 0.75579 0.53035 0.0
N1105 N 0.22667 0.74585 0.53817 0.0
C1106 C 0.24222 0.72608 0.51368 0.0
C1107 C 0.27377 0.73141 0.50955 0.0
C1108 C 0.47572 0.01955 0.27126 0.0
C1109 C 0.45623 0.03166 0.24055 0.0
C1110 C 0.47201 0.99007 0.28641 0.0
C1111 C 0.44833 0.97181 0.272 0.0
H1112 H 0.49399 0.03293 0.28382 0.0
H1113 H 0.48754 0.98171 0.31003 0.0
S1114 S 0.39154 0.99232 0.19093 0.0
N1115 N 0.41277 0.02258 0.19555 0.0
N1116 N 0.40564 0.96755 0.22433 0.0
C1117 C 0.42882 0.98352 0.2411 0.0
C1118 C 0.43283 0.01332 0.22526 0.0
C1119 C 0.75776 0.73827 0.01917 0.0
C1120 C 0.77996 0.71552 0.01628 0.0
C1121 C 0.72876 0.73406 0.00279 0.0
C1122 C 0.7206 0.70672 0.98352 0.0
H1123 H 0.76291 0.75979 0.03354 0.0
H1124 H 0.71245 0.75222 0.00601 0.0
S1125 S 0.77023 0.63985 0.96837 0.0
N1126 N 0.79184 0.66466 -0.0075 0.0
N1127 N 0.73703 0.65647 0.96258 0.0
C1128 C 0.74247 0.68367 0.9807 0.0
C1129 C 0.77221 0.68814 -0.00319 0.0
C1130 C 0.07146 0.00392 0.75081 0.0
C1131 C 0.05398 0.02969 0.74133 0.0
C1132 C 0.0628 0.97512 0.73709 0.0
C1133 C 0.03671 0.97111 0.71257 0.0
H1134 H 0.09188 0.00596 0.76928 0.0
H1135 H 0.0768 0.9559 0.74544 0.0
S1136 S 0.98321 0.03128 0.67881 0.0
N1137 N 0.00926 0.04923 0.70593 0.0
N1138 N 0.99331 0.99537 0.67967 0.0
C1139 C 0.01913 0.99672 0.70265 0.0
C1140 C 0.02766 0.02592 0.71718 0.0
C1141 C 0.73782 0.28335 0.45788 0.0
C1142 C 0.71793 0.30818 0.46008 0.0
C1143 C 0.76784 0.2869 0.44525 0.0
C1144 C 0.77911 0.31541 0.43415 0.0
H1145 H 0.73045 0.26109 0.4672 0.0
H1146 H 0.78248 0.26723 0.44534 0.0
S1147 S 0.73508 0.38699 0.42934 0.0
N1148 N 0.71087 0.36178 0.44649 0.0
N1149 N 0.7671 0.36847 0.42257 0.0
C1150 C 0.75904 0.34019 0.43434 0.0
C1151 C 0.72853 0.33658 0.44736 0.0
loop_
_geom_bond_atom_site_label_1
_geom_bond_atom_site_label_2
_geom_bond_distance
_geom_bond_site_symmetry_2
_ccdc_geom_bond_type
Zn0 O3 2.031 1_455 S
Zn0 O5 2.049 . S
Zn0 O10 2.067 . S
Zn1 O2 1.962 1_455 S
Zn1 O4 1.986 . S
Zn1 O6 1.996 . S
Zn1 O9 1.943 . S
O2 Zn1 1.962 1_655 S
O2 C7 1.254 . S
O3 Zn0 2.031 1_655 S
O3 C7 1.269 . S
O4 Zn1 1.986 . S
O4 C11 1.262 . S
O5 Zn0 2.049 . S
O5 C13 1.260 . S
O6 Zn1 1.996 . S
O6 C13 1.257 . S
C7 O2 1.254 . S
C7 O3 1.269 . S
C8 O9 1.249 . S
C8 O10 1.270 . S
O9 Zn1 1.943 . S
O9 C8 1.249 . S
O10 Zn0 2.067 . S
O10 C8 1.270 . S
C11 O4 1.262 . S
C11 O12 1.232 . S
O12 C11 1.232 . S
C13 O5 1.260 . S
C13 O6 1.257 . S
Zn14 O17 2.031 . S
Zn14 O19 2.049 . S
Zn14 O24 2.067 . S
Zn15 O16 1.962 . S
Zn15 O18 1.986 . S
Zn15 O20 1.996 . S
Zn15 O23 1.943 . S
O16 Zn15 1.962 . S
O16 C21 1.254 . S
O17 Zn14 2.031 . S
O17 C21 1.269 . S
O18 Zn15 1.986 . S
O18 C25 1.262 . S
O19 Zn14 2.049 . S
O19 C27 1.260 . S
O20 Zn15 1.996 . S
O20 C27 1.257 . S
C21 O16 1.254 . S
C21 O17 1.269 . S
C22 O23 1.249 . S
C22 O24 1.270 . S
O23 Zn15 1.943 . S
O23 C22 1.249 . S
O24 Zn14 2.067 . S
O24 C22 1.270 . S
C25 O18 1.262 . S
C25 O26 1.232 . S
O26 C25 1.232 . S
C27 O19 1.260 . S
C27 O20 1.257 . S
Zn28 O31 2.031 . S
Zn28 O33 2.049 . S
Zn28 O38 2.067 . S
Zn29 O30 1.962 . S
Zn29 O32 1.986 . S
Zn29 O34 1.996 . S
Zn29 O37 1.943 . S
O30 Zn29 1.962 . S
O30 C35 1.254 . S
O31 Zn28 2.031 . S
O31 C35 1.269 . S
O32 Zn29 1.986 . S
O32 C39 1.262 . S
O33 Zn28 2.049 . S
O33 C41 1.260 . S
O34 Zn29 1.996 . S
O34 C41 1.257 . S
C35 O30 1.254 . S
C35 O31 1.269 . S
C36 O37 1.249 . S
C36 O38 1.270 . S
O37 Zn29 1.943 . S
O37 C36 1.249 . S
O38 Zn28 2.067 . S
O38 C36 1.270 . S
C39 O32 1.262 . S
C39 O40 1.232 . S
O40 C39 1.232 . S
C41 O33 1.260 . S
C41 O34 1.257 . S
Zn42 O45 2.031 . S
Zn42 O47 2.049 1_554 S
Zn42 O52 2.067 . S
Zn43 O44 1.962 . S
Zn43 O46 1.986 1_554 S
Zn43 O48 1.996 1_554 S
Zn43 O51 1.943 . S
O44 Zn43 1.962 . S
O44 C49 1.254 . S
O45 Zn42 2.031 . S
O45 C49 1.269 . S
O46 Zn43 1.986 1_556 S
O46 C53 1.262 1_556 S
O47 Zn42 2.049 1_556 S
O47 C55 1.260 . S
O48 Zn43 1.996 1_556 S
O48 C55 1.257 . S
C49 O44 1.254 . S
C49 O45 1.269 . S
C50 O51 1.249 . S
C50 O52 1.270 . S
O51 Zn43 1.943 . S
O51 C50 1.249 . S
O52 Zn42 2.067 . S
O52 C50 1.270 . S
C53 O46 1.262 1_554 S
C53 O54 1.232 . S
O54 C53 1.232 . S
C55 O47 1.260 . S
C55 O48 1.257 . S
Zn56 O59 2.031 1_455 S
Zn56 O61 2.049 . S
Zn56 O66 2.067 . S
Zn57 O58 1.962 1_455 S
Zn57 O60 1.986 . S
Zn57 O62 1.996 . S
Zn57 O65 1.943 . S
O58 Zn57 1.962 1_655 S
O58 C63 1.254 . S
O59 Zn56 2.031 1_655 S
O59 C63 1.269 . S
O60 Zn57 1.986 . S
O60 C67 1.262 . S
O61 Zn56 2.049 . S
O61 C69 1.260 . S
O62 Zn57 1.996 . S
O62 C69 1.257 . S
C63 O58 1.254 . S
C63 O59 1.269 . S
C64 O65 1.249 . S
C64 O66 1.270 . S
O65 Zn57 1.943 . S
O65 C64 1.249 . S
O66 Zn56 2.067 . S
O66 C64 1.270 . S
C67 O60 1.262 . S
C67 O68 1.232 . S
O68 C67 1.232 . S
C69 O61 1.260 . S
C69 O62 1.257 . S
Zn70 O73 2.031 . S
Zn70 O75 2.049 . S
Zn70 O80 2.067 . S
Zn71 O72 1.962 . S
Zn71 O74 1.986 . S
Zn71 O76 1.996 . S
Zn71 O79 1.943 . S
O72 Zn71 1.962 . S
O72 C77 1.254 . S
O73 Zn70 2.031 . S
O73 C77 1.269 . S
O74 Zn71 1.986 . S
O74 C81 1.262 . S
O75 Zn70 2.049 . S
O75 C83 1.260 . S
O76 Zn71 1.996 . S
O76 C83 1.257 . S
C77 O72 1.254 . S
C77 O73 1.269 . S
C78 O79 1.249 . S
C78 O80 1.270 . S
O79 Zn71 1.943 . S
O79 C78 1.249 . S
O80 Zn70 2.067 . S
O80 C78 1.270 . S
C81 O74 1.262 . S
C81 O82 1.232 . S
O82 C81 1.232 . S
C83 O75 1.260 . S
C83 O76 1.257 . S
Zn84 O87 2.031 . S
Zn84 O89 2.049 . S
Zn84 O94 2.067 . S
Zn85 O86 1.962 . S
Zn85 O88 1.986 . S
Zn85 O90 1.996 . S
Zn85 O93 1.943 . S
O86 Zn85 1.962 . S
O86 C91 1.254 . S
O87 Zn84 2.031 . S
O87 C91 1.269 . S
O88 Zn85 1.986 . S
O88 C95 1.262 . S
O89 Zn84 2.049 . S
O89 C97 1.260 . S
O90 Zn85 1.996 . S
O90 C97 1.257 . S
C91 O86 1.254 . S
C91 O87 1.269 . S
C92 O93 1.249 . S
C92 O94 1.270 . S
O93 Zn85 1.943 . S
O93 C92 1.249 . S
O94 Zn84 2.067 . S
O94 C92 1.270 . S
C95 O88 1.262 . S
C95 O96 1.232 . S
O96 C95 1.232 . S
C97 O89 1.260 . S
C97 O90 1.257 . S
Zn98 O101 2.031 . S
Zn98 O103 2.049 1_556 S
Zn98 O108 2.067 . S
Zn99 O100 1.962 . S
Zn99 O102 1.986 1_556 S
Zn99 O104 1.996 1_556 S
Zn99 O107 1.943 . S
O100 Zn99 1.962 . S
O100 C105 1.254 . S
O101 Zn98 2.031 . S
O101 C105 1.269 . S
O102 Zn99 1.986 1_554 S
O102 C109 1.262 1_554 S
O103 Zn98 2.049 1_554 S
O103 C111 1.260 . S
O104 Zn99 1.996 1_554 S
O104 C111 1.257 . S
C105 O100 1.254 . S
C105 O101 1.269 . S
C106 O107 1.249 . S
C106 O108 1.270 . S
O107 Zn99 1.943 . S
O107 C106 1.249 . S
O108 Zn98 2.067 . S
O108 C106 1.270 . S
C109 O102 1.262 1_556 S
C109 O110 1.232 . S
O110 C109 1.232 . S
C111 O103 1.260 . S
C111 O104 1.257 . S
Zn112 O115 2.031 1_655 S
Zn112 O117 2.049 . S
Zn112 O122 2.067 . S
Zn113 O114 1.962 1_655 S
Zn113 O116 1.986 . S
Zn113 O118 1.996 . S
Zn113 O121 1.943 . S
O114 Zn113 1.962 1_455 S
O114 C119 1.254 . S
O115 Zn112 2.031 1_455 S
O115 C119 1.269 . S
O116 Zn113 1.986 . S
O116 C123 1.262 . S
O117 Zn112 2.049 . S
O117 C125 1.260 . S
O118 Zn113 1.996 . S
O118 C125 1.257 . S
C119 O114 1.254 . S
C119 O115 1.269 . S
C120 O121 1.249 . S
C120 O122 1.270 . S
O121 Zn113 1.943 . S
O121 C120 1.249 . S
O122 Zn112 2.067 . S
O122 C120 1.270 . S
C123 O116 1.262 . S
C123 O124 1.232 . S
O124 C123 1.232 . S
C125 O117 1.260 . S
C125 O118 1.257 . S
Zn126 O129 2.031 . S
Zn126 O131 2.049 . S
Zn126 O136 2.067 . S
Zn127 O128 1.962 . S
Zn127 O130 1.986 . S
Zn127 O132 1.996 . S
Zn127 O135 1.943 . S
O128 Zn127 1.962 . S
O128 C133 1.254 . S
O129 Zn126 2.031 . S
O129 C133 1.269 . S
O130 Zn127 1.986 . S
O130 C137 1.262 . S
O131 Zn126 2.049 . S
O131 C139 1.260 . S
O132 Zn127 1.996 . S
O132 C139 1.257 . S
C133 O128 1.254 . S
C133 O129 1.269 . S
C134 O135 1.249 . S
C134 O136 1.270 . S
O135 Zn127 1.943 . S
O135 C134 1.249 . S
O136 Zn126 2.067 . S
O136 C134 1.270 . S
C137 O130 1.262 . S
C137 O138 1.232 . S
O138 C137 1.232 . S
C139 O131 1.260 . S
C139 O132 1.257 . S
Zn140 O143 2.031 . S
Zn140 O145 2.049 . S
Zn140 O150 2.067 . S
Zn141 O142 1.962 . S
Zn141 O144 1.986 . S
Zn141 O146 1.996 . S
Zn141 O149 1.943 . S
O142 Zn141 1.962 . S
O142 C147 1.254 . S
O143 Zn140 2.031 . S
O143 C147 1.269 . S
O144 Zn141 1.986 . S
O144 C151 1.262 . S
O145 Zn140 2.049 . S
O145 C153 1.260 . S
O146 Zn141 1.996 . S
O146 C153 1.257 . S
C147 O142 1.254 . S
C147 O143 1.269 . S
C148 O149 1.249 . S
C148 O150 1.270 . S
O149 Zn141 1.943 . S
O149 C148 1.249 . S
O150 Zn140 2.067 . S
O150 C148 1.270 . S
C151 O144 1.262 . S
C151 O152 1.232 . S
O152 C151 1.232 . S
C153 O145 1.260 . S
C153 O146 1.257 . S
Zn154 O157 2.031 . S
Zn154 O159 2.049 1_556 S
Zn154 O164 2.067 . S
Zn155 O156 1.962 . S
Zn155 O158 1.986 1_556 S
Zn155 O160 1.996 1_556 S
Zn155 O163 1.943 . S
O156 Zn155 1.962 . S
O156 C161 1.254 . S
O157 Zn154 2.031 . S
O157 C161 1.269 . S
O158 Zn155 1.986 1_554 S
O158 C165 1.262 1_554 S
O159 Zn154 2.049 1_554 S
O159 C167 1.260 . S
O160 Zn155 1.996 1_554 S
O160 C167 1.257 . S
C161 O156 1.254 . S
C161 O157 1.269 . S
C162 O163 1.249 . S
C162 O164 1.270 . S
O163 Zn155 1.943 . S
O163 C162 1.249 . S
O164 Zn154 2.067 . S
O164 C162 1.270 . S
C165 O158 1.262 1_556 S
C165 O166 1.232 . S
O166 C165 1.232 . S
C167 O159 1.260 . S
C167 O160 1.257 . S
Zn168 O171 2.031 1_655 S
Zn168 O173 2.049 . S
Zn168 O178 2.067 . S
Zn169 O170 1.962 1_655 S
Zn169 O172 1.986 . S
Zn169 O174 1.996 . S
Zn169 O177 1.943 . S
O170 Zn169 1.962 1_455 S
O170 C175 1.254 . S
O171 Zn168 2.031 1_455 S
O171 C175 1.269 . S
O172 Zn169 1.986 . S
O172 C179 1.262 . S
O173 Zn168 2.049 . S
O173 C181 1.260 . S
O174 Zn169 1.996 . S
O174 C181 1.257 . S
C175 O170 1.254 . S
C175 O171 1.269 . S
C176 O177 1.249 . S
C176 O178 1.270 . S
O177 Zn169 1.943 . S
O177 C176 1.249 . S
O178 Zn168 2.067 . S
O178 C176 1.270 . S
C179 O172 1.262 . S
C179 O180 1.232 . S
O180 C179 1.232 . S
C181 O173 1.260 . S
C181 O174 1.257 . S
Zn182 O185 2.031 . S
Zn182 O187 2.049 . S
Zn182 O192 2.067 . S
Zn183 O184 1.962 . S
Zn183 O186 1.986 . S
Zn183 O188 1.996 . S
Zn183 O191 1.943 . S
O184 Zn183 1.962 . S
O184 C189 1.254 . S
O185 Zn182 2.031 . S
O185 C189 1.269 . S
O186 Zn183 1.986 . S
O186 C193 1.262 . S
O187 Zn182 2.049 . S
O187 C195 1.260 . S
O188 Zn183 1.996 . S
O188 C195 1.257 . S
C189 O184 1.254 . S
C189 O185 1.269 . S
C190 O191 1.249 . S
C190 O192 1.270 . S
O191 Zn183 1.943 . S
O191 C190 1.249 . S
O192 Zn182 2.067 . S
O192 C190 1.270 . S
C193 O186 1.262 . S
C193 O194 1.232 . S
O194 C193 1.232 . S
C195 O187 1.260 . S
C195 O188 1.257 . S
Zn196 O199 2.031 . S
Zn196 O201 2.049 . S
Zn196 O206 2.067 . S
Zn197 O198 1.962 . S
Zn197 O200 1.986 . S
Zn197 O202 1.996 . S
Zn197 O205 1.943 . S
O198 Zn197 1.962 . S
O198 C203 1.254 . S
O199 Zn196 2.031 . S
O199 C203 1.269 . S
O200 Zn197 1.986 . S
O200 C207 1.262 . S
O201 Zn196 2.049 . S
O201 C209 1.260 . S
O202 Zn197 1.996 . S
O202 C209 1.257 . S
C203 O198 1.254 . S
C203 O199 1.269 . S
C204 O205 1.249 . S
C204 O206 1.270 . S
O205 Zn197 1.943 . S
O205 C204 1.249 . S
O206 Zn196 2.067 . S
O206 C204 1.270 . S
C207 O200 1.262 . S
C207 O208 1.232 . S
O208 C207 1.232 . S
C209 O201 1.260 . S
C209 O202 1.257 . S
Zn210 O213 2.031 . S
Zn210 O215 2.049 1_554 S
Zn210 O220 2.067 . S
Zn211 O212 1.962 . S
Zn211 O214 1.986 1_554 S
Zn211 O216 1.996 1_554 S
Zn211 O219 1.943 . S
O212 Zn211 1.962 . S
O212 C217 1.254 . S
O213 Zn210 2.031 . S
O213 C217 1.269 . S
O214 Zn211 1.986 1_556 S
O214 C221 1.262 1_556 S
O215 Zn210 2.049 1_556 S
O215 C223 1.260 . S
O216 Zn211 1.996 1_556 S
O216 C223 1.257 . S
C217 O212 1.254 . S
C217 O213 1.269 . S
C218 O219 1.249 . S
C218 O220 1.270 . S
O219 Zn211 1.943 . S
O219 C218 1.249 . S
O220 Zn210 2.067 . S
O220 C218 1.270 . S
C221 O214 1.262 1_554 S
C221 O222 1.232 . S
O222 C221 1.232 . S
C223 O215 1.260 . S
C223 O216 1.257 . S
Zn224 O227 2.031 . S
Zn224 O229 2.049 . S
Zn224 O234 2.067 . S
Zn225 O226 1.962 . S
Zn225 O228 1.986 . S
Zn225 O230 1.996 . S
Zn225 O233 1.943 . S
O226 Zn225 1.962 . S
O226 C231 1.254 . S
O227 Zn224 2.031 . S
O227 C231 1.269 . S
O228 Zn225 1.986 . S
O228 C235 1.262 . S
O229 Zn224 2.049 . S
O229 C237 1.260 . S
O230 Zn225 1.996 . S
O230 C237 1.257 . S
C231 O226 1.254 . S
C231 O227 1.269 . S
C232 O233 1.249 . S
C232 O234 1.270 . S
O233 Zn225 1.943 . S
O233 C232 1.249 . S
O234 Zn224 2.067 . S
O234 C232 1.270 . S
C235 O228 1.262 . S
C235 O236 1.232 . S
O236 C235 1.232 . S
C237 O229 1.260 . S
C237 O230 1.257 . S
Zn238 O241 2.031 . S
Zn238 O243 2.049 1_554 S
Zn238 O248 2.067 . S
Zn239 O240 1.962 . S
Zn239 O242 1.986 1_554 S
Zn239 O244 1.996 1_554 S
Zn239 O247 1.943 . S
O240 Zn239 1.962 . S
O240 C245 1.254 . S
O241 Zn238 2.031 . S
O241 C245 1.269 . S
O242 Zn239 1.986 1_556 S
O242 C249 1.262 1_556 S
O243 Zn238 2.049 1_556 S
O243 C251 1.260 . S
O244 Zn239 1.996 1_556 S
O244 C251 1.257 . S
C245 O240 1.254 . S
C245 O241 1.269 . S
C246 O247 1.249 . S
C246 O248 1.270 . S
O247 Zn239 1.943 . S
O247 C246 1.249 . S
O248 Zn238 2.067 . S
O248 C246 1.270 . S
C249 O242 1.262 1_554 S
C249 O250 1.232 . S
O250 C249 1.232 . S
C251 O243 1.260 . S
C251 O244 1.257 . S
Zn252 O255 2.031 1_655 S
Zn252 O257 2.049 . S
Zn252 O262 2.067 . S
Zn253 O254 1.962 1_655 S
Zn253 O256 1.986 . S
Zn253 O258 1.996 . S
Zn253 O261 1.943 . S
O254 Zn253 1.962 1_455 S
O254 C259 1.254 . S
O255 Zn252 2.031 1_455 S
O255 C259 1.269 . S
O256 Zn253 1.986 . S
O256 C263 1.262 . S
O257 Zn252 2.049 . S
O257 C265 1.260 . S
O258 Zn253 1.996 . S
O258 C265 1.257 . S
C259 O254 1.254 . S
C259 O255 1.269 . S
C260 O261 1.249 . S
C260 O262 1.270 . S
O261 Zn253 1.943 . S
O261 C260 1.249 . S
O262 Zn252 2.067 . S
O262 C260 1.270 . S
C263 O256 1.262 . S
C263 O264 1.232 . S
O264 C263 1.232 . S
C265 O257 1.260 . S
C265 O258 1.257 . S
Zn266 O269 2.031 . S
Zn266 O271 2.049 . S
Zn266 O276 2.067 . S
Zn267 O268 1.962 . S
Zn267 O270 1.986 . S
Zn267 O272 1.996 . S
Zn267 O275 1.943 . S
O268 Zn267 1.962 . S
O268 C273 1.254 . S
O269 Zn266 2.031 . S
O269 C273 1.269 . S
O270 Zn267 1.986 . S
O270 C277 1.262 . S
O271 Zn266 2.049 . S
O271 C279 1.260 . S
O272 Zn267 1.996 . S
O272 C279 1.257 . S
C273 O268 1.254 . S
C273 O269 1.269 . S
C274 O275 1.249 . S
C274 O276 1.270 . S
O275 Zn267 1.943 . S
O275 C274 1.249 . S
O276 Zn266 2.067 . S
O276 C274 1.270 . S
C277 O270 1.262 . S
C277 O278 1.232 . S
O278 C277 1.232 . S
C279 O271 1.260 . S
C279 O272 1.257 . S
Zn280 O283 2.031 . S
Zn280 O285 2.049 . S
Zn280 O290 2.067 . S
Zn281 O282 1.962 . S
Zn281 O284 1.986 . S
Zn281 O286 1.996 . S
Zn281 O289 1.943 . S
O282 Zn281 1.962 . S
O282 C287 1.254 . S
O283 Zn280 2.031 . S
O283 C287 1.269 . S
O284 Zn281 1.986 . S
O284 C291 1.262 . S
O285 Zn280 2.049 . S
O285 C293 1.260 . S
O286 Zn281 1.996 . S
O286 C293 1.257 . S
C287 O282 1.254 . S
C287 O283 1.269 . S
C288 O289 1.249 . S
C288 O290 1.270 . S
O289 Zn281 1.943 . S
O289 C288 1.249 . S
O290 Zn280 2.067 . S
O290 C288 1.270 . S
C291 O284 1.262 . S
C291 O292 1.232 . S
O292 C291 1.232 . S
C293 O285 1.260 . S
C293 O286 1.257 . S
Zn294 O297 2.031 . S
Zn294 O299 2.049 1_556 S
Zn294 O304 2.067 . S
Zn295 O296 1.962 . S
Zn295 O298 1.986 1_556 S
Zn295 O300 1.996 1_556 S
Zn295 O303 1.943 . S
O296 Zn295 1.962 . S
O296 C301 1.254 . S
O297 Zn294 2.031 . S
O297 C301 1.269 . S
O298 Zn295 1.986 1_554 S
O298 C305 1.262 1_554 S
O299 Zn294 2.049 1_554 S
O299 C307 1.260 . S
O300 Zn295 1.996 1_554 S
O300 C307 1.257 . S
C301 O296 1.254 . S
C301 O297 1.269 . S
C302 O303 1.249 . S
C302 O304 1.270 . S
O303 Zn295 1.943 . S
O303 C302 1.249 . S
O304 Zn294 2.067 . S
O304 C302 1.270 . S
C305 O298 1.262 1_556 S
C305 O306 1.232 . S
O306 C305 1.232 . S
C307 O299 1.260 . S
C307 O300 1.257 . S
Zn308 O311 2.031 1_655 S
Zn308 O313 2.049 . S
Zn308 O318 2.067 . S
Zn309 O310 1.962 1_655 S
Zn309 O312 1.986 . S
Zn309 O314 1.996 . S
Zn309 O317 1.943 . S
O310 Zn309 1.962 1_455 S
O310 C315 1.254 . S
O311 Zn308 2.031 1_455 S
O311 C315 1.269 . S
O312 Zn309 1.986 . S
O312 C319 1.262 . S
O313 Zn308 2.049 . S
O313 C321 1.260 . S
O314 Zn309 1.996 . S
O314 C321 1.257 . S
C315 O310 1.254 . S
C315 O311 1.269 . S
C316 O317 1.249 . S
C316 O318 1.270 . S
O317 Zn309 1.943 . S
O317 C316 1.249 . S
O318 Zn308 2.067 . S
O318 C316 1.270 . S
C319 O312 1.262 . S
C319 O320 1.232 . S
O320 C319 1.232 . S
C321 O313 1.260 . S
C321 O314 1.257 . S
Zn322 O325 2.031 . S
Zn322 O327 2.049 . S
Zn322 O332 2.067 . S
Zn323 O324 1.962 . S
Zn323 O326 1.986 . S
Zn323 O328 1.996 . S
Zn323 O331 1.943 . S
O324 Zn323 1.962 . S
O324 C329 1.254 . S
O325 Zn322 2.031 . S
O325 C329 1.269 . S
O326 Zn323 1.986 . S
O326 C333 1.262 . S
O327 Zn322 2.049 . S
O327 C335 1.260 . S
O328 Zn323 1.996 . S
O328 C335 1.257 . S
C329 O324 1.254 . S
C329 O325 1.269 . S
C330 O331 1.249 . S
C330 O332 1.270 . S
O331 Zn323 1.943 . S
O331 C330 1.249 . S
O332 Zn322 2.067 . S
O332 C330 1.270 . S
C333 O326 1.262 . S
C333 O334 1.232 . S
O334 C333 1.232 . S
C335 O327 1.260 . S
C335 O328 1.257 . S
Zn336 O339 2.031 . S
Zn336 O341 2.049 . S
Zn336 O346 2.067 . S
Zn337 O338 1.962 . S
Zn337 O340 1.986 . S
Zn337 O342 1.996 . S
Zn337 O345 1.943 . S
O338 Zn337 1.962 . S
O338 C343 1.254 . S
O339 Zn336 2.031 . S
O339 C343 1.269 . S
O340 Zn337 1.986 . S
O340 C347 1.262 . S
O341 Zn336 2.049 . S
O341 C349 1.260 . S
O342 Zn337 1.996 . S
O342 C349 1.257 . S
C343 O338 1.254 . S
C343 O339 1.269 . S
C344 O345 1.249 . S
C344 O346 1.270 . S
O345 Zn337 1.943 . S
O345 C344 1.249 . S
O346 Zn336 2.067 . S
O346 C344 1.270 . S
C347 O340 1.262 . S
C347 O348 1.232 . S
O348 C347 1.232 . S
C349 O341 1.260 . S
C349 O342 1.257 . S
Zn350 O353 2.031 . S
Zn350 O355 2.049 1_556 S
Zn350 O360 2.067 . S
Zn351 O352 1.962 . S
Zn351 O354 1.986 1_556 S
Zn351 O356 1.996 1_556 S
Zn351 O359 1.943 . S
O352 Zn351 1.962 . S
O352 C357 1.254 . S
O353 Zn350 2.031 . S
O353 C357 1.269 . S
O354 Zn351 1.986 1_554 S
O354 C361 1.262 1_554 S
O355 Zn350 2.049 1_554 S
O355 C363 1.260 . S
O356 Zn351 1.996 1_554 S
O356 C363 1.257 . S
C357 O352 1.254 . S
C357 O353 1.269 . S
C358 O359 1.249 . S
C358 O360 1.270 . S
O359 Zn351 1.943 . S
O359 C358 1.249 . S
O360 Zn350 2.067 . S
O360 C358 1.270 . S
C361 O354 1.262 1_556 S
C361 O362 1.232 . S
O362 C361 1.232 . S
C363 O355 1.260 . S
C363 O356 1.257 . S
Zn364 O367 2.031 1_455 S
Zn364 O369 2.049 . S
Zn364 O374 2.067 . S
Zn365 O366 1.962 1_455 S
Zn365 O368 1.986 . S
Zn365 O370 1.996 . S
Zn365 O373 1.943 . S
O366 Zn365 1.962 1_655 S
O366 C371 1.254 . S
O367 Zn364 2.031 1_655 S
O367 C371 1.269 . S
O368 Zn365 1.986 . S
O368 C375 1.262 . S
O369 Zn364 2.049 . S
O369 C377 1.260 . S
O370 Zn365 1.996 . S
O370 C377 1.257 . S
C371 O366 1.254 . S
C371 O367 1.269 . S
C372 O373 1.249 . S
C372 O374 1.270 . S
O373 Zn365 1.943 . S
O373 C372 1.249 . S
O374 Zn364 2.067 . S
O374 C372 1.270 . S
C375 O368 1.262 . S
C375 O376 1.232 . S
O376 C375 1.232 . S
C377 O369 1.260 . S
C377 O370 1.257 . S
Zn378 O381 2.031 . S
Zn378 O383 2.049 . S
Zn378 O388 2.067 . S
Zn379 O380 1.962 . S
Zn379 O382 1.986 . S
Zn379 O384 1.996 . S
Zn379 O387 1.943 . S
O380 Zn379 1.962 . S
O380 C385 1.254 . S
O381 Zn378 2.031 . S
O381 C385 1.269 . S
O382 Zn379 1.986 . S
O382 C389 1.262 . S
O383 Zn378 2.049 . S
O383 C391 1.260 . S
O384 Zn379 1.996 . S
O384 C391 1.257 . S
C385 O380 1.254 . S
C385 O381 1.269 . S
C386 O387 1.249 . S
C386 O388 1.270 . S
O387 Zn379 1.943 . S
O387 C386 1.249 . S
O388 Zn378 2.067 . S
O388 C386 1.270 . S
C389 O382 1.262 . S
C389 O390 1.232 . S
O390 C389 1.232 . S
C391 O383 1.260 . S
C391 O384 1.257 . S
Zn392 O395 2.031 . S
Zn392 O397 2.049 . S
Zn392 O402 2.067 . S
Zn393 O394 1.962 . S
Zn393 O396 1.986 . S
Zn393 O398 1.996 . S
Zn393 O401 1.943 . S
O394 Zn393 1.962 . S
O394 C399 1.254 . S
O395 Zn392 2.031 . S
O395 C399 1.269 . S
O396 Zn393 1.986 . S
O396 C403 1.262 . S
O397 Zn392 2.049 . S
O397 C405 1.260 . S
O398 Zn393 1.996 . S
O398 C405 1.257 . S
C399 O394 1.254 . S
C399 O395 1.269 . S
C400 O401 1.249 . S
C400 O402 1.270 . S
O401 Zn393 1.943 . S
O401 C400 1.249 . S
O402 Zn392 2.067 . S
O402 C400 1.270 . S
C403 O396 1.262 . S
C403 O404 1.232 . S
O404 C403 1.232 . S
C405 O397 1.260 . S
C405 O398 1.257 . S
Zn406 O409 2.031 . S
Zn406 O411 2.049 1_554 S
Zn406 O416 2.067 . S
Zn407 O408 1.962 . S
Zn407 O410 1.986 1_554 S
Zn407 O412 1.996 1_554 S
Zn407 O415 1.943 . S
O408 Zn407 1.962 . S
O408 C413 1.254 . S
O409 Zn406 2.031 . S
O409 C413 1.269 . S
O410 Zn407 1.986 1_556 S
O410 C417 1.262 1_556 S
O411 Zn406 2.049 1_556 S
O411 C419 1.260 . S
O412 Zn407 1.996 1_556 S
O412 C419 1.257 . S
C413 O408 1.254 . S
C413 O409 1.269 . S
C414 O415 1.249 . S
C414 O416 1.270 . S
O415 Zn407 1.943 . S
O415 C414 1.249 . S
O416 Zn406 2.067 . S
O416 C414 1.270 . S
C417 O410 1.262 1_554 S
C417 O418 1.232 . S
O418 C417 1.232 . S
C419 O411 1.260 . S
C419 O412 1.257 . S
Zn420 O423 2.031 1_455 S
Zn420 O425 2.049 . S
Zn420 O430 2.067 . S
Zn421 O422 1.962 1_455 S
Zn421 O424 1.986 . S
Zn421 O426 1.996 . S
Zn421 O429 1.943 . S
O422 Zn421 1.962 1_655 S
O422 C427 1.254 . S
O423 Zn420 2.031 1_655 S
O423 C427 1.269 . S
O424 Zn421 1.986 . S
O424 C431 1.262 . S
O425 Zn420 2.049 . S
O425 C433 1.260 . S
O426 Zn421 1.996 . S
O426 C433 1.257 . S
C427 O422 1.254 . S
C427 O423 1.269 . S
C428 O429 1.249 . S
C428 O430 1.270 . S
O429 Zn421 1.943 . S
O429 C428 1.249 . S
O430 Zn420 2.067 . S
O430 C428 1.270 . S
C431 O424 1.262 . S
C431 O432 1.232 . S
O432 C431 1.232 . S
C433 O425 1.260 . S
C433 O426 1.257 . S
Zn434 O437 2.031 . S
Zn434 O439 2.049 . S
Zn434 O444 2.067 . S
Zn435 O436 1.962 . S
Zn435 O438 1.986 . S
Zn435 O440 1.996 . S
Zn435 O443 1.943 . S
O436 Zn435 1.962 . S
O436 C441 1.254 . S
O437 Zn434 2.031 . S
O437 C441 1.269 . S
O438 Zn435 1.986 . S
O438 C445 1.262 . S
O439 Zn434 2.049 . S
O439 C447 1.260 . S
O440 Zn435 1.996 . S
O440 C447 1.257 . S
C441 O436 1.254 . S
C441 O437 1.269 . S
C442 O443 1.249 . S
C442 O444 1.270 . S
O443 Zn435 1.943 . S
O443 C442 1.249 . S
O444 Zn434 2.067 . S
O444 C442 1.270 . S
C445 O438 1.262 . S
C445 O446 1.232 . S
O446 C445 1.232 . S
C447 O439 1.260 . S
C447 O440 1.257 . S
C448 C449 1.369 . S
C448 C450 1.419 . S
C448 H452 0.930 . S
C449 C448 1.369 . S
C449 C458 1.429 . S
C450 C448 1.419 . S
C450 C451 1.363 . S
C450 H453 0.929 . S
C451 C450 1.363 . S
C451 C457 1.428 . S
H452 C448 0.930 . S
H453 C450 0.929 . S
S454 N455 1.613 . S
S454 N456 1.610 . S
N455 S454 1.613 . S
N455 C458 1.350 . S
N456 S454 1.610 . S
N456 C457 1.351 . S
C457 C451 1.428 . S
C457 N456 1.351 . S
C457 C458 1.434 . S
C458 C449 1.429 . S
C458 N455 1.350 . S
C458 C457 1.434 . S
C459 C460 1.369 . S
C459 C461 1.419 . S
C459 H463 0.930 . S
C460 C459 1.369 . S
C460 C469 1.429 . S
C461 C459 1.419 . S
C461 C462 1.363 . S
C461 H464 0.929 . S
C462 C461 1.363 . S
C462 C468 1.428 . S
H463 C459 0.930 . S
H464 C461 0.929 . S
S465 N466 1.613 . S
S465 N467 1.610 . S
N466 S465 1.613 . S
N466 C469 1.350 . S
N467 S465 1.610 . S
N467 C468 1.351 . S
C468 C462 1.428 . S
C468 N467 1.351 . S
C468 C469 1.434 . S
C469 C460 1.429 . S
C469 N466 1.350 . S
C469 C468 1.434 . S
C470 C471 1.369 . S
C470 C472 1.419 . S
C470 H474 0.930 . S
C471 C470 1.369 . S
C471 C480 1.429 . S
C472 C470 1.419 . S
C472 C473 1.363 . S
C472 H475 0.929 . S
C473 C472 1.363 . S
C473 C479 1.428 . S
H474 C470 0.930 . S
H475 C472 0.929 . S
S476 N477 1.613 . S
S476 N478 1.610 . S
N477 S476 1.613 . S
N477 C480 1.350 . S
N478 S476 1.610 . S
N478 C479 1.351 . S
C479 C473 1.428 . S
C479 N478 1.351 . S
C479 C480 1.434 . S
C480 C471 1.429 . S
C480 N477 1.350 . S
C480 C479 1.434 . S
C481 C482 1.369 . S
C481 C483 1.419 . S
C481 H485 0.930 . S
C482 C481 1.369 . S
C482 C491 1.429 . S
C483 C481 1.419 . S
C483 C484 1.363 . S
C483 H486 0.929 . S
C484 C483 1.363 . S
C484 C490 1.428 . S
H485 C481 0.930 . S
H486 C483 0.929 . S
S487 N488 1.613 . S
S487 N489 1.610 . S
N488 S487 1.613 . S
N488 C491 1.350 . S
N489 S487 1.610 . S
N489 C490 1.351 . S
C490 C484 1.428 . S
C490 N489 1.351 . S
C490 C491 1.434 . S
C491 C482 1.429 . S
C491 N488 1.350 . S
C491 C490 1.434 . S
C492 C493 1.369 . S
C492 C494 1.419 . S
C492 H496 0.930 . S
C493 C492 1.369 . S
C493 C502 1.429 . S
C494 C492 1.419 . S
C494 C495 1.363 . S
C494 H497 0.929 . S
C495 C494 1.363 . S
C495 C501 1.428 . S
H496 C492 0.930 . S
H497 C494 0.929 . S
S498 N499 1.613 . S
S498 N500 1.610 . S
N499 S498 1.613 . S
N499 C502 1.350 . S
N500 S498 1.610 . S
N500 C501 1.351 . S
C501 C495 1.428 . S
C501 N500 1.351 . S
C501 C502 1.434 . S
C502 C493 1.429 . S
C502 N499 1.350 . S
C502 C501 1.434 . S
C503 C504 1.369 . S
C503 C505 1.419 . S
C503 H507 0.930 . S
C504 C503 1.369 . S
C504 C513 1.429 . S
C505 C503 1.419 . S
C505 C506 1.363 . S
C505 H508 0.929 . S
C506 C505 1.363 . S
C506 C512 1.428 . S
H507 C503 0.930 . S
H508 C505 0.929 . S
S509 N510 1.613 . S
S509 N511 1.610 . S
N510 S509 1.613 . S
N510 C513 1.350 . S
N511 S509 1.610 . S
N511 C512 1.351 . S
C512 C506 1.428 . S
C512 N511 1.351 . S
C512 C513 1.434 . S
C513 C504 1.429 . S
C513 N510 1.350 . S
C513 C512 1.434 . S
C514 C515 1.369 . S
C514 C516 1.419 . S
C514 H518 0.930 . S
C515 C514 1.369 . S
C515 C524 1.429 . S
C516 C514 1.419 . S
C516 C517 1.363 . S
C516 H519 0.929 . S
C517 C516 1.363 . S
C517 C523 1.428 . S
H518 C514 0.930 . S
H519 C516 0.929 . S
S520 N521 1.613 . S
S520 N522 1.610 . S
N521 S520 1.613 . S
N521 C524 1.350 . S
N522 S520 1.610 . S
N522 C523 1.351 . S
C523 C517 1.428 . S
C523 N522 1.351 . S
C523 C524 1.434 . S
C524 C515 1.429 . S
C524 N521 1.350 . S
C524 C523 1.434 . S
C525 C526 1.369 . S
C525 C527 1.419 . S
C525 H529 0.930 . S
C526 C525 1.369 . S
C526 C535 1.429 . S
C527 C525 1.419 . S
C527 C528 1.363 . S
C527 H530 0.929 . S
C528 C527 1.363 . S
C528 C534 1.428 . S
H529 C525 0.930 . S
H530 C527 0.929 . S
S531 N532 1.613 . S
S531 N533 1.610 . S
N532 S531 1.613 . S
N532 C535 1.350 . S
N533 S531 1.610 . S
N533 C534 1.351 . S
C534 C528 1.428 . S
C534 N533 1.351 . S
C534 C535 1.434 . S
C535 C526 1.429 . S
C535 N532 1.350 . S
C535 C534 1.434 . S
C536 C537 1.369 . S
C536 C538 1.419 . S
C536 H540 0.930 . S
C537 C536 1.369 . S
C537 C546 1.429 . S
C538 C536 1.419 . S
C538 C539 1.363 . S
C538 H541 0.929 . S
C539 C538 1.363 . S
C539 C545 1.428 . S
H540 C536 0.930 . S
H541 C538 0.929 . S
S542 N543 1.613 . S
S542 N544 1.610 . S
N543 S542 1.613 . S
N543 C546 1.350 . S
N544 S542 1.610 . S
N544 C545 1.351 . S
C545 C539 1.428 . S
C545 N544 1.351 . S
C545 C546 1.434 . S
C546 C537 1.429 . S
C546 N543 1.350 . S
C546 C545 1.434 . S
C547 C548 1.369 . S
C547 C549 1.419 . S
C547 H551 0.930 . S
C548 C547 1.369 . S
C548 C557 1.429 . S
C549 C547 1.419 . S
C549 C550 1.363 . S
C549 H552 0.929 . S
C550 C549 1.363 . S
C550 C556 1.428 . S
H551 C547 0.930 . S
H552 C549 0.929 . S
S553 N554 1.613 . S
S553 N555 1.610 . S
N554 S553 1.613 . S
N554 C557 1.350 . S
N555 S553 1.610 . S
N555 C556 1.351 . S
C556 C550 1.428 . S
C556 N555 1.351 . S
C556 C557 1.434 . S
C557 C548 1.429 . S
C557 N554 1.350 . S
C557 C556 1.434 . S
C558 C559 1.369 . S
C558 C560 1.419 . S
C558 H562 0.930 . S
C559 C558 1.369 . S
C559 C568 1.429 . S
C560 C558 1.419 . S
C560 C561 1.363 . S
C560 H563 0.929 . S
C561 C560 1.363 . S
C561 C567 1.428 . S
H562 C558 0.930 . S
H563 C560 0.929 . S
S564 N565 1.613 . S
S564 N566 1.610 . S
N565 S564 1.613 . S
N565 C568 1.350 . S
N566 S564 1.610 . S
N566 C567 1.351 . S
C567 C561 1.428 . S
C567 N566 1.351 . S
C567 C568 1.434 . S
C568 C559 1.429 . S
C568 N565 1.350 . S
C568 C567 1.434 . S
C569 C570 1.369 . S
C569 C571 1.419 . S
C569 H573 0.930 . S
C570 C569 1.369 . S
C570 C579 1.429 . S
C571 C569 1.419 . S
C571 C572 1.363 . S
C571 H574 0.929 . S
C572 C571 1.363 . S
C572 C578 1.428 . S
H573 C569 0.930 . S
H574 C571 0.929 . S
S575 N576 1.613 . S
S575 N577 1.610 . S
N576 S575 1.613 . S
N576 C579 1.350 . S
N577 S575 1.610 . S
N577 C578 1.351 . S
C578 C572 1.428 . S
C578 N577 1.351 . S
C578 C579 1.434 . S
C579 C570 1.429 . S
C579 N576 1.350 . S
C579 C578 1.434 . S
C580 C581 1.369 . S
C580 C582 1.419 . S
C580 H584 0.930 . S
C581 C580 1.369 . S
C581 C590 1.429 . S
C582 C580 1.419 . S
C582 C583 1.363 . S
C582 H585 0.929 . S
C583 C582 1.363 . S
C583 C589 1.428 . S
H584 C580 0.930 . S
H585 C582 0.929 . S
S586 N587 1.613 . S
S586 N588 1.610 . S
N587 S586 1.613 . S
N587 C590 1.350 . S
N588 S586 1.610 . S
N588 C589 1.351 . S
C589 C583 1.428 . S
C589 N588 1.351 . S
C589 C590 1.434 . S
C590 C581 1.429 . S
C590 N587 1.350 . S
C590 C589 1.434 . S
C591 C592 1.369 . S
C591 C593 1.419 . S
C591 H595 0.930 . S
C592 C591 1.369 . S
C592 C601 1.429 . S
C593 C591 1.419 . S
C593 C594 1.363 . S
C593 H596 0.929 . S
C594 C593 1.363 . S
C594 C600 1.428 . S
H595 C591 0.930 . S
H596 C593 0.929 . S
S597 N598 1.613 . S
S597 N599 1.610 . S
N598 S597 1.613 . S
N598 C601 1.350 . S
N599 S597 1.610 . S
N599 C600 1.351 . S
C600 C594 1.428 . S
C600 N599 1.351 . S
C600 C601 1.434 . S
C601 C592 1.429 . S
C601 N598 1.350 . S
C601 C600 1.434 . S
C602 C603 1.369 . S
C602 C604 1.419 . S
C602 H606 0.930 . S
C603 C602 1.369 . S
C603 C612 1.429 . S
C604 C602 1.419 . S
C604 C605 1.363 . S
C604 H607 0.929 . S
C605 C604 1.363 . S
C605 C611 1.428 . S
H606 C602 0.930 . S
H607 C604 0.929 . S
S608 N609 1.613 . S
S608 N610 1.610 . S
N609 S608 1.613 . S
N609 C612 1.350 . S
N610 S608 1.610 . S
N610 C611 1.351 . S
C611 C605 1.428 . S
C611 N610 1.351 . S
C611 C612 1.434 . S
C612 C603 1.429 . S
C612 N609 1.350 . S
C612 C611 1.434 . S
C613 C614 1.369 . S
C613 C615 1.419 . S
C613 H617 0.930 . S
C614 C613 1.369 . S
C614 C623 1.429 . S
C615 C613 1.419 . S
C615 C616 1.363 . S
C615 H618 0.929 . S
C616 C615 1.363 . S
C616 C622 1.428 . S
H617 C613 0.930 . S
H618 C615 0.929 . S
S619 N620 1.613 . S
S619 N621 1.610 . S
N620 S619 1.613 . S
N620 C623 1.350 . S
N621 S619 1.610 . S
N621 C622 1.351 . S
C622 C616 1.428 . S
C622 N621 1.351 . S
C622 C623 1.434 . S
C623 C614 1.429 . S
C623 N620 1.350 . S
C623 C622 1.434 . S
C624 C625 1.369 . S
C624 C626 1.419 . S
C624 H628 0.930 . S
C625 C624 1.369 . S
C625 C634 1.429 . S
C626 C624 1.419 . S
C626 C627 1.363 . S
C626 H629 0.929 . S
C627 C626 1.363 . S
C627 C633 1.428 . S
H628 C624 0.930 . S
H629 C626 0.929 . S
S630 N631 1.613 . S
S630 N632 1.610 . S
N631 S630 1.613 . S
N631 C634 1.350 . S
N632 S630 1.610 . S
N632 C633 1.351 . S
C633 C627 1.428 . S
C633 N632 1.351 . S
C633 C634 1.434 . S
C634 C625 1.429 . S
C634 N631 1.350 . S
C634 C633 1.434 . S
C635 C636 1.369 . S
C635 C637 1.419 . S
C635 H639 0.930 . S
C636 C635 1.369 . S
C636 C645 1.429 . S
C637 C635 1.419 . S
C637 C638 1.363 . S
C637 H640 0.929 . S
C638 C637 1.363 . S
C638 C644 1.428 . S
H639 C635 0.930 . S
H640 C637 0.929 . S
S641 N642 1.613 . S
S641 N643 1.610 . S
N642 S641 1.613 . S
N642 C645 1.350 . S
N643 S641 1.610 . S
N643 C644 1.351 . S
C644 C638 1.428 . S
C644 N643 1.351 . S
C644 C645 1.434 . S
C645 C636 1.429 . S
C645 N642 1.350 . S
C645 C644 1.434 . S
C646 C647 1.369 . S
C646 C648 1.419 . S
C646 H650 0.930 . S
C647 C646 1.369 . S
C647 C656 1.429 . S
C648 C646 1.419 . S
C648 C649 1.363 . S
C648 H651 0.929 . S
C649 C648 1.363 . S
C649 C655 1.428 . S
H650 C646 0.930 . S
H651 C648 0.929 . S
S652 N653 1.613 . S
S652 N654 1.610 . S
N653 S652 1.613 . S
N653 C656 1.350 . S
N654 S652 1.610 . S
N654 C655 1.351 . S
C655 C649 1.428 . S
C655 N654 1.351 . S
C655 C656 1.434 . S
C656 C647 1.429 . S
C656 N653 1.350 . S
C656 C655 1.434 . S
C657 C658 1.369 . S
C657 C659 1.419 . S
C657 H661 0.930 . S
C658 C657 1.369 . S
C658 C667 1.429 . S
C659 C657 1.419 . S
C659 C660 1.363 . S
C659 H662 0.929 . S
C660 C659 1.363 . S
C660 C666 1.428 . S
H661 C657 0.930 . S
H662 C659 0.929 . S
S663 N664 1.613 . S
S663 N665 1.610 . S
N664 S663 1.613 . S
N664 C667 1.350 . S
N665 S663 1.610 . S
N665 C666 1.351 . S
C666 C660 1.428 . S
C666 N665 1.351 . S
C666 C667 1.434 . S
C667 C658 1.429 . S
C667 N664 1.350 . S
C667 C666 1.434 . S
C668 C669 1.369 . S
C668 C670 1.419 . S
C668 H672 0.930 . S
C669 C668 1.369 . S
C669 C678 1.429 . S
C670 C668 1.419 . S
C670 C671 1.363 . S
C670 H673 0.929 . S
C671 C670 1.363 . S
C671 C677 1.428 . S
H672 C668 0.930 . S
H673 C670 0.929 . S
S674 N675 1.613 . S
S674 N676 1.610 . S
N675 S674 1.613 . S
N675 C678 1.350 . S
N676 S674 1.610 . S
N676 C677 1.351 . S
C677 C671 1.428 . S
C677 N676 1.351 . S
C677 C678 1.434 . S
C678 C669 1.429 . S
C678 N675 1.350 . S
C678 C677 1.434 . S
C679 C680 1.369 . S
C679 C681 1.419 . S
C679 H683 0.930 . S
C680 C679 1.369 . S
C680 C689 1.429 . S
C681 C679 1.419 . S
C681 C682 1.363 . S
C681 H684 0.929 . S
C682 C681 1.363 . S
C682 C688 1.428 . S
H683 C679 0.930 . S
H684 C681 0.929 . S
S685 N686 1.613 . S
S685 N687 1.610 . S
N686 S685 1.613 . S
N686 C689 1.350 . S
N687 S685 1.610 . S
N687 C688 1.351 . S
C688 C682 1.428 . S
C688 N687 1.351 . S
C688 C689 1.434 . S
C689 C680 1.429 . S
C689 N686 1.350 . S
C689 C688 1.434 . S
C690 C691 1.369 . S
C690 C692 1.419 . S
C690 H694 0.930 . S
C691 C690 1.369 . S
C691 C700 1.429 . S
C692 C690 1.419 . S
C692 C693 1.363 . S
C692 H695 0.929 . S
C693 C692 1.363 . S
C693 C699 1.428 . S
H694 C690 0.930 . S
H695 C692 0.929 . S
S696 N697 1.613 . S
S696 N698 1.610 . S
N697 S696 1.613 . S
N697 C700 1.350 . S
N698 S696 1.610 . S
N698 C699 1.351 . S
C699 C693 1.428 . S
C699 N698 1.351 . S
C699 C700 1.434 . S
C700 C691 1.429 . S
C700 N697 1.350 . S
C700 C699 1.434 . S
C701 C702 1.369 . S
C701 C703 1.419 . S
C701 H705 0.930 . S
C702 C701 1.369 . S
C702 C711 1.429 . S
C703 C701 1.419 . S
C703 C704 1.363 . S
C703 H706 0.929 . S
C704 C703 1.363 . S
C704 C710 1.428 . S
H705 C701 0.930 . S
H706 C703 0.929 . S
S707 N708 1.613 . S
S707 N709 1.610 . S
N708 S707 1.613 . S
N708 C711 1.350 . S
N709 S707 1.610 . S
N709 C710 1.351 . S
C710 C704 1.428 . S
C710 N709 1.351 . S
C710 C711 1.434 . S
C711 C702 1.429 . S
C711 N708 1.350 . S
C711 C710 1.434 . S
C712 C713 1.369 . S
C712 C714 1.419 . S
C712 H716 0.930 . S
C713 C712 1.369 . S
C713 C722 1.429 . S
C714 C712 1.419 . S
C714 C715 1.363 . S
C714 H717 0.929 . S
C715 C714 1.363 . S
C715 C721 1.428 . S
H716 C712 0.930 . S
H717 C714 0.929 . S
S718 N719 1.613 . S
S718 N720 1.610 . S
N719 S718 1.613 . S
N719 C722 1.350 . S
N720 S718 1.610 . S
N720 C721 1.351 . S
C721 C715 1.428 . S
C721 N720 1.351 . S
C721 C722 1.434 . S
C722 C713 1.429 . S
C722 N719 1.350 . S
C722 C721 1.434 . S
C723 C724 1.369 . S
C723 C725 1.419 . S
C723 H727 0.930 . S
C724 C723 1.369 . S
C724 C733 1.429 . S
C725 C723 1.419 . S
C725 C726 1.363 . S
C725 H728 0.929 . S
C726 C725 1.363 . S
C726 C732 1.428 . S
H727 C723 0.930 . S
H728 C725 0.929 . S
S729 N730 1.613 . S
S729 N731 1.610 . S
N730 S729 1.613 . S
N730 C733 1.350 . S
N731 S729 1.610 . S
N731 C732 1.351 . S
C732 C726 1.428 . S
C732 N731 1.351 . S
C732 C733 1.434 . S
C733 C724 1.429 . S
C733 N730 1.350 . S
C733 C732 1.434 . S
C734 C735 1.369 . S
C734 C736 1.419 . S
C734 H738 0.930 . S
C735 C734 1.369 . S
C735 C744 1.429 . S
C736 C734 1.419 . S
C736 C737 1.363 . S
C736 H739 0.929 . S
C737 C736 1.363 . S
C737 C743 1.428 . S
H738 C734 0.930 . S
H739 C736 0.929 . S
S740 N741 1.613 . S
S740 N742 1.610 . S
N741 S740 1.613 . S
N741 C744 1.350 . S
N742 S740 1.610 . S
N742 C743 1.351 . S
C743 C737 1.428 . S
C743 N742 1.351 . S
C743 C744 1.434 . S
C744 C735 1.429 . S
C744 N741 1.350 . S
C744 C743 1.434 . S
C745 C746 1.369 . S
C745 C747 1.419 . S
C745 H749 0.930 . S
C746 C745 1.369 . S
C746 C755 1.429 . S
C747 C745 1.419 . S
C747 C748 1.363 . S
C747 H750 0.929 . S
C748 C747 1.363 . S
C748 C754 1.428 . S
H749 C745 0.930 . S
H750 C747 0.929 . S
S751 N752 1.613 . S
S751 N753 1.610 . S
N752 S751 1.613 . S
N752 C755 1.350 . S
N753 S751 1.610 . S
N753 C754 1.351 . S
C754 C748 1.428 . S
C754 N753 1.351 . S
C754 C755 1.434 . S
C755 C746 1.429 . S
C755 N752 1.350 . S
C755 C754 1.434 . S
C756 C757 1.369 . S
C756 C758 1.419 . S
C756 H760 0.930 . S
C757 C756 1.369 . S
C757 C766 1.429 . S
C758 C756 1.419 . S
C758 C759 1.363 . S
C758 H761 0.929 . S
C759 C758 1.363 . S
C759 C765 1.428 . S
H760 C756 0.930 . S
H761 C758 0.929 . S
S762 N763 1.613 . S
S762 N764 1.610 . S
N763 S762 1.613 . S
N763 C766 1.350 . S
N764 S762 1.610 . S
N764 C765 1.351 . S
C765 C759 1.428 . S
C765 N764 1.351 . S
C765 C766 1.434 . S
C766 C757 1.429 . S
C766 N763 1.350 . S
C766 C765 1.434 . S
C767 C768 1.369 . S
C767 C769 1.419 . S
C767 H771 0.930 . S
C768 C767 1.369 . S
C768 C777 1.429 . S
C769 C767 1.419 . S
C769 C770 1.363 . S
C769 H772 0.929 . S
C770 C769 1.363 . S
C770 C776 1.428 . S
H771 C767 0.930 . S
H772 C769 0.929 . S
S773 N774 1.613 . S
S773 N775 1.610 . S
N774 S773 1.613 . S
N774 C777 1.350 . S
N775 S773 1.610 . S
N775 C776 1.351 . S
C776 C770 1.428 . S
C776 N775 1.351 . S
C776 C777 1.434 . S
C777 C768 1.429 . S
C777 N774 1.350 . S
C777 C776 1.434 . S
C778 C779 1.369 . S
C778 C780 1.419 . S
C778 H782 0.930 . S
C779 C778 1.369 . S
C779 C788 1.429 . S
C780 C778 1.419 . S
C780 C781 1.363 . S
C780 H783 0.929 . S
C781 C780 1.363 . S
C781 C787 1.428 . S
H782 C778 0.930 . S
H783 C780 0.929 . S
S784 N785 1.613 . S
S784 N786 1.610 . S
N785 S784 1.613 . S
N785 C788 1.350 . S
N786 S784 1.610 . S
N786 C787 1.351 . S
C787 C781 1.428 . S
C787 N786 1.351 . S
C787 C788 1.434 . S
C788 C779 1.429 . S
C788 N785 1.350 . S
C788 C787 1.434 . S
C789 C790 1.369 . S
C789 C791 1.419 . S
C789 H793 0.930 . S
C790 C789 1.369 . S
C790 C799 1.429 . S
C791 C789 1.419 . S
C791 C792 1.363 . S
C791 H794 0.929 . S
C792 C791 1.363 . S
C792 C798 1.428 . S
H793 C789 0.930 . S
H794 C791 0.929 . S
S795 N796 1.613 . S
S795 N797 1.610 . S
N796 S795 1.613 . S
N796 C799 1.350 . S
N797 S795 1.610 . S
N797 C798 1.351 . S
C798 C792 1.428 . S
C798 N797 1.351 . S
C798 C799 1.434 . S
C799 C790 1.429 . S
C799 N796 1.350 . S
C799 C798 1.434 . S
C800 C801 1.369 . S
C800 C802 1.419 . S
C800 H804 0.930 . S
C801 C800 1.369 . S
C801 C810 1.429 . S
C802 C800 1.419 . S
C802 C803 1.363 . S
C802 H805 0.929 . S
C803 C802 1.363 . S
C803 C809 1.428 . S
H804 C800 0.930 . S
H805 C802 0.929 . S
S806 N807 1.613 . S
S806 N808 1.610 . S
N807 S806 1.613 . S
N807 C810 1.350 . S
N808 S806 1.610 . S
N808 C809 1.351 . S
C809 C803 1.428 . S
C809 N808 1.351 . S
C809 C810 1.434 . S
C810 C801 1.429 . S
C810 N807 1.350 . S
C810 C809 1.434 . S
C811 C812 1.369 . S
C811 C813 1.419 . S
C811 H815 0.930 . S
C812 C811 1.369 . S
C812 C821 1.429 . S
C813 C811 1.419 . S
C813 C814 1.363 . S
C813 H816 0.929 . S
C814 C813 1.363 . S
C814 C820 1.428 . S
H815 C811 0.930 . S
H816 C813 0.929 . S
S817 N818 1.613 . S
S817 N819 1.610 . S
N818 S817 1.613 . S
N818 C821 1.350 . S
N819 S817 1.610 . S
N819 C820 1.351 . S
C820 C814 1.428 . S
C820 N819 1.351 . S
C820 C821 1.434 . S
C821 C812 1.429 . S
C821 N818 1.350 . S
C821 C820 1.434 . S
C822 C823 1.369 . S
C822 C824 1.419 . S
C822 H826 0.930 . S
C823 C822 1.369 . S
C823 C832 1.429 . S
C824 C822 1.419 . S
C824 C825 1.363 . S
C824 H827 0.929 . S
C825 C824 1.363 . S
C825 C831 1.428 . S
H826 C822 0.930 . S
H827 C824 0.929 . S
S828 N829 1.613 . S
S828 N830 1.610 . S
N829 S828 1.613 . S
N829 C832 1.350 . S
N830 S828 1.610 . S
N830 C831 1.351 . S
C831 C825 1.428 . S
C831 N830 1.351 . S
C831 C832 1.434 . S
C832 C823 1.429 . S
C832 N829 1.350 . S
C832 C831 1.434 . S
C833 C834 1.369 . S
C833 C835 1.419 . S
C833 H837 0.930 . S
C834 C833 1.369 . S
C834 C843 1.429 . S
C835 C833 1.419 . S
C835 C836 1.363 . S
C835 H838 0.929 . S
C836 C835 1.363 . S
C836 C842 1.428 . S
H837 C833 0.930 . S
H838 C835 0.929 . S
S839 N840 1.613 . S
S839 N841 1.610 . S
N840 S839 1.613 . S
N840 C843 1.350 . S
N841 S839 1.610 . S
N841 C842 1.351 . S
C842 C836 1.428 . S
C842 N841 1.351 . S
C842 C843 1.434 . S
C843 C834 1.429 . S
C843 N840 1.350 . S
C843 C842 1.434 . S
C844 C845 1.369 . S
C844 C846 1.419 . S
C844 H848 0.930 . S
C845 C844 1.369 . S
C845 C854 1.429 . S
C846 C844 1.419 . S
C846 C847 1.363 . S
C846 H849 0.929 . S
C847 C846 1.363 . S
C847 C853 1.428 . S
H848 C844 0.930 . S
H849 C846 0.929 . S
S850 N851 1.613 . S
S850 N852 1.610 . S
N851 S850 1.613 . S
N851 C854 1.350 . S
N852 S850 1.610 . S
N852 C853 1.351 . S
C853 C847 1.428 . S
C853 N852 1.351 . S
C853 C854 1.434 . S
C854 C845 1.429 . S
C854 N851 1.350 . S
C854 C853 1.434 . S
C855 C856 1.369 . S
C855 C857 1.419 . S
C855 H859 0.930 . S
C856 C855 1.369 . S
C856 C865 1.429 . S
C857 C855 1.419 . S
C857 C858 1.363 . S
C857 H860 0.929 . S
C858 C857 1.363 . S
C858 C864 1.428 . S
H859 C855 0.930 . S
H860 C857 0.929 . S
S861 N862 1.613 . S
S861 N863 1.610 . S
N862 S861 1.613 . S
N862 C865 1.350 . S
N863 S861 1.610 . S
N863 C864 1.351 . S
C864 C858 1.428 . S
C864 N863 1.351 . S
C864 C865 1.434 . S
C865 C856 1.429 . S
C865 N862 1.350 . S
C865 C864 1.434 . S
C866 C867 1.369 . S
C866 C868 1.419 . S
C866 H870 0.930 . S
C867 C866 1.369 . S
C867 C876 1.429 . S
C868 C866 1.419 . S
C868 C869 1.363 . S
C868 H871 0.929 . S
C869 C868 1.363 . S
C869 C875 1.428 . S
H870 C866 0.930 . S
H871 C868 0.929 . S
S872 N873 1.613 . S
S872 N874 1.610 . S
N873 S872 1.613 . S
N873 C876 1.350 . S
N874 S872 1.610 . S
N874 C875 1.351 . S
C875 C869 1.428 . S
C875 N874 1.351 . S
C875 C876 1.434 . S
C876 C867 1.429 . S
C876 N873 1.350 . S
C876 C875 1.434 . S
C877 C878 1.369 . S
C877 C879 1.419 . S
C877 H881 0.930 . S
C878 C877 1.369 . S
C878 C887 1.429 . S
C879 C877 1.419 . S
C879 C880 1.363 . S
C879 H882 0.929 . S
C880 C879 1.363 . S
C880 C886 1.428 . S
H881 C877 0.930 . S
H882 C879 0.929 . S
S883 N884 1.613 . S
S883 N885 1.610 . S
N884 S883 1.613 . S
N884 C887 1.350 . S
N885 S883 1.610 . S
N885 C886 1.351 . S
C886 C880 1.428 . S
C886 N885 1.351 . S
C886 C887 1.434 . S
C887 C878 1.429 . S
C887 N884 1.350 . S
C887 C886 1.434 . S
C888 C889 1.369 . S
C888 C890 1.419 . S
C888 H892 0.930 . S
C889 C888 1.369 . S
C889 C898 1.429 . S
C890 C888 1.419 . S
C890 C891 1.363 . S
C890 H893 0.929 . S
C891 C890 1.363 . S
C891 C897 1.428 . S
H892 C888 0.930 . S
H893 C890 0.929 . S
S894 N895 1.613 . S
S894 N896 1.610 . S
N895 S894 1.613 . S
N895 C898 1.350 . S
N896 S894 1.610 . S
N896 C897 1.351 . S
C897 C891 1.428 . S
C897 N896 1.351 . S
C897 C898 1.434 . S
C898 C889 1.429 . S
C898 N895 1.350 . S
C898 C897 1.434 . S
C899 C900 1.369 . S
C899 C901 1.419 . S
C899 H903 0.930 . S
C900 C899 1.369 . S
C900 C909 1.429 . S
C901 C899 1.419 . S
C901 C902 1.363 . S
C901 H904 0.929 . S
C902 C901 1.363 . S
C902 C908 1.428 . S
H903 C899 0.930 . S
H904 C901 0.929 . S
S905 N906 1.613 . S
S905 N907 1.610 . S
N906 S905 1.613 . S
N906 C909 1.350 . S
N907 S905 1.610 . S
N907 C908 1.351 . S
C908 C902 1.428 . S
C908 N907 1.351 . S
C908 C909 1.434 . S
C909 C900 1.429 . S
C909 N906 1.350 . S
C909 C908 1.434 . S
C910 C911 1.369 . S
C910 C912 1.419 . S
C910 H914 0.930 . S
C911 C910 1.369 . S
C911 C920 1.429 . S
C912 C910 1.419 . S
C912 C913 1.363 . S
C912 H915 0.929 . S
C913 C912 1.363 . S
C913 C919 1.428 . S
H914 C910 0.930 . S
H915 C912 0.929 . S
S916 N917 1.613 . S
S916 N918 1.610 . S
N917 S916 1.613 . S
N917 C920 1.350 . S
N918 S916 1.610 . S
N918 C919 1.351 . S
C919 C913 1.428 . S
C919 N918 1.351 . S
C919 C920 1.434 . S
C920 C911 1.429 . S
C920 N917 1.350 . S
C920 C919 1.434 . S
C921 C922 1.369 . S
C921 C923 1.419 . S
C921 H925 0.930 . S
C922 C921 1.369 . S
C922 C931 1.429 . S
C923 C921 1.419 . S
C923 C924 1.363 . S
C923 H926 0.929 . S
C924 C923 1.363 . S
C924 C930 1.428 . S
H925 C921 0.930 . S
H926 C923 0.929 . S
S927 N928 1.613 . S
S927 N929 1.610 . S
N928 S927 1.613 . S
N928 C931 1.350 . S
N929 S927 1.610 . S
N929 C930 1.351 . S
C930 C924 1.428 . S
C930 N929 1.351 . S
C930 C931 1.434 . S
C931 C922 1.429 . S
C931 N928 1.350 . S
C931 C930 1.434 . S
C932 C933 1.369 . S
C932 C934 1.419 . S
C932 H936 0.930 . S
C933 C932 1.369 . S
C933 C942 1.429 . S
C934 C932 1.419 . S
C934 C935 1.363 . S
C934 H937 0.929 . S
C935 C934 1.363 . S
C935 C941 1.428 . S
H936 C932 0.930 . S
H937 C934 0.929 . S
S938 N939 1.613 . S
S938 N940 1.610 . S
N939 S938 1.613 . S
N939 C942 1.350 . S
N940 S938 1.610 . S
N940 C941 1.351 . S
C941 C935 1.428 . S
C941 N940 1.351 . S
C941 C942 1.434 . S
C942 C933 1.429 . S
C942 N939 1.350 . S
C942 C941 1.434 . S
C943 C944 1.369 . S
C943 C945 1.419 . S
C943 H947 0.930 . S
C944 C943 1.369 . S
C944 C953 1.429 . S
C945 C943 1.419 . S
C945 C946 1.363 . S
C945 H948 0.929 . S
C946 C945 1.363 . S
C946 C952 1.428 . S
H947 C943 0.930 . S
H948 C945 0.929 . S
S949 N950 1.613 . S
S949 N951 1.610 . S
N950 S949 1.613 . S
N950 C953 1.350 . S
N951 S949 1.610 . S
N951 C952 1.351 . S
C952 C946 1.428 . S
C952 N951 1.351 . S
C952 C953 1.434 . S
C953 C944 1.429 . S
C953 N950 1.350 . S
C953 C952 1.434 . S
C954 C955 1.369 . S
C954 C956 1.419 . S
C954 H958 0.930 . S
C955 C954 1.369 . S
C955 C964 1.429 . S
C956 C954 1.419 . S
C956 C957 1.363 . S
C956 H959 0.929 . S
C957 C956 1.363 . S
C957 C963 1.428 . S
H958 C954 0.930 . S
H959 C956 0.929 . S
S960 N961 1.613 . S
S960 N962 1.610 . S
N961 S960 1.613 . S
N961 C964 1.350 . S
N962 S960 1.610 . S
N962 C963 1.351 . S
C963 C957 1.428 . S
C963 N962 1.351 . S
C963 C964 1.434 . S
C964 C955 1.429 . S
C964 N961 1.350 . S
C964 C963 1.434 . S
C965 C966 1.369 . S
C965 C967 1.419 . S
C965 H969 0.930 . S
C966 C965 1.369 . S
C966 C975 1.429 . S
C967 C965 1.419 . S
C967 C968 1.363 . S
C967 H970 0.929 . S
C968 C967 1.363 . S
C968 C974 1.428 . S
H969 C965 0.930 . S
H970 C967 0.929 . S
S971 N972 1.613 . S
S971 N973 1.610 . S
N972 S971 1.613 . S
N972 C975 1.350 . S
N973 S971 1.610 . S
N973 C974 1.351 . S
C974 C968 1.428 . S
C974 N973 1.351 . S
C974 C975 1.434 . S
C975 C966 1.429 . S
C975 N972 1.350 . S
C975 C974 1.434 . S
C976 C977 1.369 . S
C976 C978 1.419 . S
C976 H980 0.930 . S
C977 C976 1.369 . S
C977 C986 1.429 . S
C978 C976 1.419 . S
C978 C979 1.363 . S
C978 H981 0.929 . S
C979 C978 1.363 . S
C979 C985 1.428 . S
H980 C976 0.930 . S
H981 C978 0.929 . S
S982 N983 1.613 . S
S982 N984 1.610 . S
N983 S982 1.613 . S
N983 C986 1.350 . S
N984 S982 1.610 . S
N984 C985 1.351 . S
C985 C979 1.428 . S
C985 N984 1.351 . S
C985 C986 1.434 . S
C986 C977 1.429 . S
C986 N983 1.350 . S
C986 C985 1.434 . S
C987 C988 1.369 . S
C987 C989 1.419 . S
C987 H991 0.930 . S
C988 C987 1.369 . S
C988 C997 1.429 . S
C989 C987 1.419 . S
C989 C990 1.363 . S
C989 H992 0.929 . S
C990 C989 1.363 . S
C990 C996 1.428 . S
H991 C987 0.930 . S
H992 C989 0.929 . S
S993 N994 1.613 . S
S993 N995 1.610 . S
N994 S993 1.613 . S
N994 C997 1.350 . S
N995 S993 1.610 . S
N995 C996 1.351 . S
C996 C990 1.428 . S
C996 N995 1.351 . S
C996 C997 1.434 . S
C997 C988 1.429 . S
C997 N994 1.350 . S
C997 C996 1.434 . S
C998 C999 1.369 . S
C998 C1000 1.419 . S
C998 H1002 0.930 . S
C999 C998 1.369 . S
C999 C1008 1.429 . S
C1000 C998 1.419 . S
C1000 C1001 1.363 . S
C1000 H1003 0.929 . S
C1001 C1000 1.363 . S
C1001 C1007 1.428 . S
H1002 C998 0.930 . S
H1003 C1000 0.929 . S
S1004 N1005 1.613 . S
S1004 N1006 1.610 . S
N1005 S1004 1.613 . S
N1005 C1008 1.350 . S
N1006 S1004 1.610 . S
N1006 C1007 1.351 . S
C1007 C1001 1.428 . S
C1007 N1006 1.351 . S
C1007 C1008 1.434 . S
C1008 C999 1.429 . S
C1008 N1005 1.350 . S
C1008 C1007 1.434 . S
C1009 C1010 1.369 . S
C1009 C1011 1.419 . S
C1009 H1013 0.930 . S
C1010 C1009 1.369 . S
C1010 C1019 1.429 1_556 S
C1011 C1009 1.419 . S
C1011 C1012 1.363 1_556 S
C1011 H1014 0.929 . S
C1012 C1011 1.363 1_554 S
C1012 C1018 1.428 . S
H1013 C1009 0.930 . S
H1014 C1011 0.929 . S
S1015 N1016 1.613 . S
S1015 N1017 1.610 . S
N1016 S1015 1.613 . S
N1016 C1019 1.350 . S
N1017 S1015 1.610 . S
N1017 C1018 1.351 . S
C1018 C1012 1.428 . S
C1018 N1017 1.351 . S
C1018 C1019 1.434 . S
C1019 C1010 1.429 1_554 S
C1019 N1016 1.350 . S
C1019 C1018 1.434 . S
C1020 C1021 1.369 . S
C1020 C1022 1.419 . S
C1020 H1024 0.930 1_655 S
C1021 C1020 1.369 . S
C1021 C1030 1.429 . S
C1022 C1020 1.419 . S
C1022 C1023 1.363 . S
C1022 H1025 0.929 1_655 S
C1023 C1022 1.363 . S
C1023 C1029 1.428 . S
H1024 C1020 0.930 1_455 S
H1025 C1022 0.929 1_455 S
S1026 N1027 1.613 . S
S1026 N1028 1.610 . S
N1027 S1026 1.613 . S
N1027 C1030 1.350 . S
N1028 S1026 1.610 . S
N1028 C1029 1.351 . S
C1029 C1023 1.428 . S
C1029 N1028 1.351 . S
C1029 C1030 1.434 . S
C1030 C1021 1.429 . S
C1030 N1027 1.350 . S
C1030 C1029 1.434 . S
C1031 C1032 1.369 . S
C1031 C1033 1.419 . S
C1031 H1035 0.930 . S
C1032 C1031 1.369 . S
C1032 C1041 1.429 . S
C1033 C1031 1.419 . S
C1033 C1034 1.363 . S
C1033 H1036 0.929 . S
C1034 C1033 1.363 . S
C1034 C1040 1.428 . S
H1035 C1031 0.930 . S
H1036 C1033 0.929 . S
S1037 N1038 1.613 . S
S1037 N1039 1.610 . S
N1038 S1037 1.613 . S
N1038 C1041 1.350 . S
N1039 S1037 1.610 . S
N1039 C1040 1.351 . S
C1040 C1034 1.428 . S
C1040 N1039 1.351 . S
C1040 C1041 1.434 . S
C1041 C1032 1.429 . S
C1041 N1038 1.350 . S
C1041 C1040 1.434 . S
C1042 C1043 1.369 . S
C1042 C1044 1.419 . S
C1042 H1046 0.930 . S
C1043 C1042 1.369 . S
C1043 C1052 1.429 . S
C1044 C1042 1.419 . S
C1044 C1045 1.363 . S
C1044 H1047 0.929 . S
C1045 C1044 1.363 . S
C1045 C1051 1.428 . S
H1046 C1042 0.930 . S
H1047 C1044 0.929 . S
S1048 N1049 1.613 . S
S1048 N1050 1.610 . S
N1049 S1048 1.613 . S
N1049 C1052 1.350 . S
N1050 S1048 1.610 . S
N1050 C1051 1.351 . S
C1051 C1045 1.428 . S
C1051 N1050 1.351 . S
C1051 C1052 1.434 . S
C1052 C1043 1.429 . S
C1052 N1049 1.350 . S
C1052 C1051 1.434 . S
C1053 C1054 1.369 . S
C1053 C1055 1.419 1_554 S
C1053 H1057 0.930 . S
C1054 C1053 1.369 . S
C1054 C1063 1.429 . S
C1055 C1053 1.419 1_556 S
C1055 C1056 1.363 . S
C1055 H1058 0.929 . S
C1056 C1055 1.363 . S
C1056 C1062 1.428 . S
H1057 C1053 0.930 . S
H1058 C1055 0.929 . S
S1059 N1060 1.613 1_556 S
S1059 N1061 1.610 . S
N1060 S1059 1.613 1_554 S
N1060 C1063 1.350 . S
N1061 S1059 1.610 . S
N1061 C1062 1.351 . S
C1062 C1056 1.428 . S
C1062 N1061 1.351 . S
C1062 C1063 1.434 1_556 S
C1063 C1054 1.429 . S
C1063 N1060 1.350 . S
C1063 C1062 1.434 1_554 S
C1064 C1065 1.369 . S
C1064 C1066 1.419 1_565 S
C1064 H1068 0.930 . S
C1065 C1064 1.369 . S
C1065 C1074 1.429 . S
C1066 C1064 1.419 1_545 S
C1066 C1067 1.363 . S
C1066 H1069 0.929 . S
C1067 C1066 1.363 . S
C1067 C1073 1.428 . S
H1068 C1064 0.930 . S
H1069 C1066 0.929 . S
S1070 N1071 1.613 1_545 S
S1070 N1072 1.610 . S
N1071 S1070 1.613 1_565 S
N1071 C1074 1.350 . S
N1072 S1070 1.610 . S
N1072 C1073 1.351 . S
C1073 C1067 1.428 . S
C1073 N1072 1.351 . S
C1073 C1074 1.434 1_545 S
C1074 C1065 1.429 . S
C1074 N1071 1.350 . S
C1074 C1073 1.434 1_565 S
C1075 C1076 1.369 1_556 S
C1075 C1077 1.419 . S
C1075 H1079 0.930 . S
C1076 C1075 1.369 1_554 S
C1076 C1085 1.429 . S
C1077 C1075 1.419 . S
C1077 C1078 1.363 . S
C1077 H1080 0.929 . S
C1078 C1077 1.363 . S
C1078 C1084 1.428 1_556 S
H1079 C1075 0.930 . S
H1080 C1077 0.929 . S
S1081 N1082 1.613 . S
S1081 N1083 1.610 . S
N1082 S1081 1.613 . S
N1082 C1085 1.350 . S
N1083 S1081 1.610 . S
N1083 C1084 1.351 . S
C1084 C1078 1.428 1_554 S
C1084 N1083 1.351 . S
C1084 C1085 1.434 . S
C1085 C1076 1.429 . S
C1085 N1082 1.350 . S
C1085 C1084 1.434 . S
C1086 C1087 1.369 . S
C1086 C1088 1.419 1_545 S
C1086 H1090 0.930 . S
C1087 C1086 1.369 . S
C1087 C1096 1.429 . S
C1088 C1086 1.419 1_565 S
C1088 C1089 1.363 . S
C1088 H1091 0.929 . S
C1089 C1088 1.363 . S
C1089 C1095 1.428 . S
H1090 C1086 0.930 . S
H1091 C1088 0.929 . S
S1092 N1093 1.613 . S
S1092 N1094 1.610 1_545 S
N1093 S1092 1.613 . S
N1093 C1096 1.350 1_455 S
N1094 S1092 1.610 1_565 S
N1094 C1095 1.351 1_455 S
C1095 C1089 1.428 . S
C1095 N1094 1.351 1_655 S
C1095 C1096 1.434 1_565 S
C1096 C1087 1.429 . S
C1096 N1093 1.350 1_655 S
C1096 C1095 1.434 1_545 S
C1097 C1098 1.369 . S
C1097 C1099 1.419 . S
C1097 H1101 0.930 . S
C1098 C1097 1.369 . S
C1098 C1107 1.429 . S
C1099 C1097 1.419 . S
C1099 C1100 1.363 . S
C1099 H1102 0.929 . S
C1100 C1099 1.363 . S
C1100 C1106 1.428 . S
H1101 C1097 0.930 . S
H1102 C1099 0.929 . S
S1103 N1104 1.613 . S
S1103 N1105 1.610 . S
N1104 S1103 1.613 . S
N1104 C1107 1.350 . S
N1105 S1103 1.610 . S
N1105 C1106 1.351 . S
C1106 C1100 1.428 . S
C1106 N1105 1.351 . S
C1106 C1107 1.434 . S
C1107 C1098 1.429 . S
C1107 N1104 1.350 . S
C1107 C1106 1.434 . S
C1108 C1109 1.369 . S
C1108 C1110 1.419 1_545 S
C1108 H1112 0.930 . S
C1109 C1108 1.369 . S
C1109 C1118 1.429 . S
C1110 C1108 1.419 1_565 S
C1110 C1111 1.363 . S
C1110 H1113 0.929 . S
C1111 C1110 1.363 . S
C1111 C1117 1.428 . S
H1112 C1108 0.930 . S
H1113 C1110 0.929 . S
S1114 N1115 1.613 . S
S1114 N1116 1.610 1_545 S
N1115 S1114 1.613 . S
N1115 C1118 1.350 . S
N1116 S1114 1.610 1_565 S
N1116 C1117 1.351 . S
C1117 C1111 1.428 . S
C1117 N1116 1.351 . S
C1117 C1118 1.434 1_565 S
C1118 C1109 1.429 . S
C1118 N1115 1.350 . S
C1118 C1117 1.434 1_545 S
C1119 C1120 1.369 . S
C1119 C1121 1.419 . S
C1119 H1123 0.930 . S
C1120 C1119 1.369 . S
C1120 C1129 1.429 1_554 S
C1121 C1119 1.419 . S
C1121 C1122 1.363 1_554 S
C1121 H1124 0.929 . S
C1122 C1121 1.363 1_556 S
C1122 C1128 1.428 . S
H1123 C1119 0.930 . S
H1124 C1121 0.929 . S
S1125 N1126 1.613 . S
S1125 N1127 1.610 . S
N1126 S1125 1.613 . S
N1126 C1129 1.350 . S
N1127 S1125 1.610 . S
N1127 C1128 1.351 . S
C1128 C1122 1.428 . S
C1128 N1127 1.351 . S
C1128 C1129 1.434 . S
C1129 C1120 1.429 1_556 S
C1129 N1126 1.350 . S
C1129 C1128 1.434 . S
C1130 C1131 1.369 . S
C1130 C1132 1.419 1_545 S
C1130 H1134 0.930 . S
C1131 C1130 1.369 . S
C1131 C1140 1.429 . S
C1132 C1130 1.419 1_565 S
C1132 C1133 1.363 . S
C1132 H1135 0.929 . S
C1133 C1132 1.363 . S
C1133 C1139 1.428 . S
H1134 C1130 0.930 . S
H1135 C1132 0.929 . S
S1136 N1137 1.613 . S
S1136 N1138 1.610 1_545 S
N1137 S1136 1.613 . S
N1137 C1140 1.350 . S
N1138 S1136 1.610 1_565 S
N1138 C1139 1.351 . S
C1139 C1133 1.428 . S
C1139 N1138 1.351 . S
C1139 C1140 1.434 1_565 S
C1140 C1131 1.429 . S
C1140 N1137 1.350 . S
C1140 C1139 1.434 1_545 S
C1141 C1142 1.369 . S
C1141 C1143 1.419 . S
C1141 H1145 0.930 . S
C1142 C1141 1.369 . S
C1142 C1151 1.429 . S
C1143 C1141 1.419 . S
C1143 C1144 1.363 . S
C1143 H1146 0.929 . S
C1144 C1143 1.363 . S
C1144 C1150 1.428 . S
H1145 C1141 0.930 . S
H1146 C1143 0.929 . S
S1147 N1148 1.613 . S
S1147 N1149 1.610 . S
N1148 S1147 1.613 . S
N1148 C1151 1.350 . S
N1149 S1147 1.610 . S
N1149 C1150 1.351 . S
C1150 C1144 1.428 . S
C1150 N1149 1.351 . S
C1150 C1151 1.434 . S
C1151 C1142 1.429 . S
C1151 N1148 1.350 . S
C1151 C1150 1.434 . S
C449 C13 1.373 . S
C451 C307 1.365 . S
C460 C321 1.377 . S
C462 C27 1.371 . S
C471 C41 1.363 . S
C473 C335 1.367 . S
C482 C293 1.377 . S
C484 C55 1.369 . S
C493 C69 1.363 . S
C495 C279 1.367 . S
C504 C83 1.376 . S
C506 C237 1.366 . S
C515 C251 1.368 . S
C517 C97 1.364 . S
C526 C111 1.377 . S
C528 C265 1.367 . S
C537 C125 1.377 . S
C539 C419 1.367 . S
C548 C139 1.377 . S
C550 C433 1.368 . S
C559 C447 1.376 . S
C561 C153 1.371 . S
C570 C405 1.363 . S
C572 C167 1.374 . S
C581 C181 1.370 . S
C583 C391 1.375 . S
C592 C349 1.377 . S
C594 C195 1.370 . S
C603 C209 1.367 . S
C605 C363 1.375 . S
C614 C377 1.365 . S
C616 C223 1.366 . S
C625 C8 1.183 . S
C627 C133 1.203 . S
C636 C22 1.182 . S
C638 C371 1.201 . S
C647 C161 1.197 . S
C649 C36 1.175 . S
C658 C50 1.184 . S
C660 C343 1.203 . S
C669 C64 1.180 . S
C671 C217 1.201 . S
C680 C399 1.200 . S
C682 C78 1.180 . S
C691 C189 1.200 . S
C693 C92 1.178 . S
C702 C427 1.202 . S
C704 C106 1.182 . S
C713 C120 1.182 . S
C715 C21 1.202 . S
C724 C259 1.198 . S
C726 C134 1.177 . S
C735 C49 1.205 . S
C737 C148 1.184 . S
C746 C162 1.177 . S
C748 C231 1.199 . S
C757 C105 1.201 . S
C759 C176 1.180 . S
C768 C287 1.196 . S
C770 C190 1.175 . S
C779 C77 1.203 . S
C781 C204 1.182 . S
C790 C218 1.184 . S
C792 C315 1.203 . S
C801 C357 1.198 . S
C803 C232 1.176 . S
C812 C147 1.196 . S
C814 C246 1.175 . S
C823 C385 1.196 . S
C825 C260 1.175 . S
C834 C274 1.176 . S
C836 C119 1.199 . S
C845 C441 1.204 . S
C847 C288 1.183 . S
C856 C175 1.204 . S
C858 C302 1.183 . S
C867 C413 1.204 . S
C869 C316 1.183 . S
C878 C330 1.177 . S
C880 C203 1.198 . S
C889 C344 1.185 . S
C891 C245 1.204 . S
C900 C35 1.196 . S
C902 C358 1.175 . S
C911 C372 1.174 . S
C913 C273 1.197 . S
C922 C386 1.181 . S
C924 C7 1.202 . S
C933 C400 1.185 . S
C935 C329 1.203 . S
C944 C63 1.204 . S
C946 C414 1.183 . S
C955 C301 1.197 . S
C957 C428 1.176 . S
C966 C442 1.176 . S
C968 C91 1.199 . S
C977 C11 1.354 . S
C979 C67 1.351 . S
C988 C25 1.350 . S
C990 C81 1.353 . S
C999 C95 1.353 . S
C1001 C39 1.351 . S
C1010 C109 1.352 . S
C1012 C53 1.354 . S
C1021 C179 1.352 . S
C1023 C123 1.354 . S
C1032 C193 1.354 . S
C1034 C137 1.353 . S
C1043 C207 1.350 . S
C1045 C151 1.353 . S
C1054 C221 1.353 . S
C1056 C165 1.354 . S
C1065 C235 1.352 . S
C1067 C291 1.350 . S
C1076 C249 1.354 . S
C1078 C305 1.352 . S
C1087 C263 1.350 . S
C1089 C319 1.352 . S
C1098 C333 1.350 . S
C1100 C277 1.351 . S
C1109 C347 1.350 . S
C1111 C403 1.354 . S
C1120 C417 1.352 . S
C1122 C361 1.354 . S
C1131 C431 1.350 . S
C1133 C375 1.353 . S
C1142 C445 1.353 . S
C1144 C389 1.354 . S
