# Generated by pormake.
# Topology vby, (6)-cn, num edge types: 1
# Building blocks:
#     Node 0, Type 0, BuildingBlock: HISSIN_clean_sbu_0, # of connection points: 6
#     Node 1, Type 0, BuildingBlock: HISSIN_clean_sbu_0, # of connection points: 6
#     Node 2, Type 0, BuildingBlock: HISSIN_clean_sbu_0, # of connection points: 6
#     Node 3, Type 0, BuildingBlock: HISSIN_clean_sbu_0, # of connection points: 6
#     Node 4, Type 0, BuildingBlock: HISSIN_clean_sbu_0, # of connection points: 6
#     Node 5, Type 0, BuildingBlock: HISSIN_clean_sbu_0, # of connection points: 6
#     Node 6, Type 0, BuildingBlock: HISSIN_clean_sbu_0, # of connection points: 6
#     Node 7, Type 0, BuildingBlock: HISSIN_clean_sbu_0, # of connection points: 6
#     Edge 8, Type (0, 0), BuildingBlock: AJUNOK_clean_linker_0, # of connection points: 2
#     Edge 9, Type (0, 0), BuildingBlock: AJUNOK_clean_linker_0, # of connection points: 2
#     Edge 10, Type (0, 0), BuildingBlock: AJUNOK_clean_linker_0, # of connection points: 2
#     Edge 11, Type (0, 0), BuildingBlock: AJUNOK_clean_linker_0, # of connection points: 2
#     Edge 12, Type (0, 0), BuildingBlock: AJUNOK_clean_linker_0, # of connection points: 2
#     Edge 13, Type (0, 0), BuildingBlock: AJUNOK_clean_linker_0, # of connection points: 2
#     Edge 14, Type (0, 0), BuildingBlock: AJUNOK_clean_linker_0, # of connection points: 2
#     Edge 15, Type (0, 0), BuildingBlock: AJUNOK_clean_linker_0, # of connection points: 2
#     Edge 16, Type (0, 0), BuildingBlock: AJUNOK_clean_linker_0, # of connection points: 2
#     Edge 17, Type (0, 0), BuildingBlock: AJUNOK_clean_linker_0, # of connection points: 2
#     Edge 18, Type (0, 0), BuildingBlock: AJUNOK_clean_linker_0, # of connection points: 2
#     Edge 19, Type (0, 0), BuildingBlock: AJUNOK_clean_linker_0, # of connection points: 2
#     Edge 20, Type (0, 0), BuildingBlock: AJUNOK_clean_linker_0, # of connection points: 2
#     Edge 21, Type (0, 0), BuildingBlock: AJUNOK_clean_linker_0, # of connection points: 2
#     Edge 22, Type (0, 0), BuildingBlock: AJUNOK_clean_linker_0, # of connection points: 2
#     Edge 23, Type (0, 0), BuildingBlock: AJUNOK_clean_linker_0, # of connection points: 2
#     Edge 24, Type (0, 0), BuildingBlock: AJUNOK_clean_linker_0, # of connection points: 2
#     Edge 25, Type (0, 0), BuildingBlock: AJUNOK_clean_linker_0, # of connection points: 2
#     Edge 26, Type (0, 0), BuildingBlock: AJUNOK_clean_linker_0, # of connection points: 2
#     Edge 27, Type (0, 0), BuildingBlock: AJUNOK_clean_linker_0, # of connection points: 2
#     Edge 28, Type (0, 0), BuildingBlock: AJUNOK_clean_linker_0, # of connection points: 2
#     Edge 29, Type (0, 0), BuildingBlock: AJUNOK_clean_linker_0, # of connection points: 2
#     Edge 30, Type (0, 0), BuildingBlock: AJUNOK_clean_linker_0, # of connection points: 2
#     Edge 31, Type (0, 0), BuildingBlock: AJUNOK_clean_linker_0, # of connection points: 2
# Relax obj value: 0.200
# Max RMSD: 0.225
# Mean RMSD: 0.225
data_MOF--net-vby--node1-HISSIN_clean_sbu_0--edge1-AJUNOK_clean_linker_0
_symmetry_space_group_name_H-M    P1
_symmetry_Int_Tables_number       1
_symmetry_cell_setting            triclinic
loop_
_symmetry_equiv_pos_as_xyz
'x, y, z'
_cell_length_a     11.393132
_cell_length_b     89.837981
_cell_length_c     22.288715
_cell_angle_alpha  90.030557
_cell_angle_beta   92.288504
_cell_angle_gamma 89.96403
loop_
_atom_site_label
_atom_site_type_symbol
_atom_site_fract_x
_atom_site_fract_y
_atom_site_fract_z
_atom_type_partial_charge
Eu0 Eu 0.10097 0.36413 0.00298 0.0
Eu1 Eu 0.10681 0.4014 -0.00279 0.0
C2 C 0.08777 0.38179 0.8805 0.0
C3 C 0.15724 0.32062 0.00979 0.0
C4 C 0.23955 0.31596 0.96826 0.0
C5 C 0.16492 0.29593 0.05484 0.0
C6 C 0.28227 0.30134 0.96938 0.0
C7 C 0.12198 0.31053 0.05364 0.0
C8 C 0.24393 0.2911 0.01205 0.0
C9 C 0.09408 0.33497 0.00257 0.0
O10 O 0.91398 0.39572 0.98661 0.0
O11 O 0.91327 0.37096 0.01498 0.0
C12 C 0.85826 0.38346 0.00113 0.0
O13 O 0.13654 0.37253 0.09757 0.0
O14 O 0.07175 0.42179 0.94608 0.0
O15 O 0.16947 0.42283 0.03192 0.0
O16 O 1.04994 0.39563 0.08947 0.0
C17 C 0.08877 0.38433 0.12196 0.0
O18 O 0.28986 0.37017 0.98677 0.0
O19 O 0.28955 0.39398 0.02393 0.0
O20 O 0.15178 0.39201 0.90776 0.0
O21 O 0.07484 0.34298 0.05003 0.0
O22 O 0.11433 0.34308 0.9556 0.0
O23 O 1.03573 0.3715 0.91126 0.0
C24 C 0.08946 0.44591 -0.00704 0.0
C25 C 0.11998 0.45387 0.04567 0.0
C26 C 1.0283 0.46918 0.94514 0.0
C27 C 0.10711 0.46936 0.04758 0.0
C28 C 1.04104 0.45371 0.94322 0.0
C29 C 0.06471 0.47722 -0.00333 0.0
C30 C 0.12707 0.43025 0.98558 0.0
C31 C 0.34582 0.38225 0.00514 0.0
H32 H 0.26783 0.32341 0.93351 0.0
H33 H 0.13213 0.28824 0.08761 0.0
H34 H 0.34352 0.29794 0.93603 0.0
H35 H 0.05707 0.31373 0.08546 0.0
H36 H 0.15896 0.44824 0.08454 0.0
H37 H 0.99292 0.47491 0.90567 0.0
H38 H 0.13568 0.47527 0.08795 0.0
H39 H 1.01797 0.44794 0.90171 0.0
Eu40 Eu 1.00595 0.61781 0.00546 0.0
Eu41 Eu 1.01064 0.65509 -0.0033 0.0
C42 C 1.01477 0.63448 0.87925 0.0
C43 C 1.02783 0.5734 0.00846 0.0
C44 C 1.00063 0.56582 0.95443 0.0
C45 C 0.09034 0.54988 0.05378 0.0
C46 C 1.01615 0.55039 0.95054 0.0
C47 C 0.07483 0.56529 0.05769 0.0
C48 C 0.05894 0.54222 0.00058 0.0
C49 C 0.98853 0.58893 0.01754 0.0
O50 O 0.8235 0.64933 0.01533 0.0
O51 O 0.81943 0.62498 0.98369 0.0
C52 C 0.76553 0.63723 -0.00066 0.0
O53 O 0.96479 0.62736 0.09526 0.0
O54 O 1.03548 0.67601 0.94768 0.0
O55 O 1.00094 0.67636 0.04276 0.0
O56 O 0.07796 0.6481 0.08848 0.0
C57 C 1.02609 0.6381 0.12079 0.0
O58 O 0.19918 0.62378 0.01568 0.0
O59 O 0.19565 0.64805 0.98143 0.0
O60 O 0.96698 0.64625 0.90369 0.0
O61 O 1.0462 0.59743 0.05604 0.0
O62 O 0.94179 0.59635 0.97223 0.0
O63 O 0.05691 0.62338 0.91188 0.0
C64 C 0.95889 0.69871 0.98791 0.0
C65 C 0.87226 0.70323 0.02735 0.0
C66 C 0.96062 0.72377 0.94642 0.0
C67 C 0.83243 0.71799 0.02723 0.0
C68 C 1.0005 0.70904 0.94659 0.0
C69 C 0.87893 0.72852 0.98801 0.0
C70 C 1.01975 0.68423 -0.00503 0.0
C71 C 0.25289 0.63603 -0.00107 0.0
H72 H 0.96225 0.57168 0.91597 0.0
H73 H 0.12402 0.54389 0.09297 0.0
H74 H 0.98928 0.54478 0.90924 0.0
H75 H 0.0947 0.57076 0.10023 0.0
H76 H 0.83872 0.69555 0.05994 0.0
H77 H 0.99584 0.73154 0.91466 0.0
H78 H 0.76904 0.72131 0.05962 0.0
H79 H 0.06769 0.70588 0.91595 0.0
Eu80 Eu 0.09851 0.61796 0.49573 0.0
Eu81 Eu 0.09258 0.6552 0.50423 0.0
C82 C 0.07802 0.6345 0.6216 0.0
C83 C 0.08263 0.57345 0.49119 0.0
C84 C 0.11831 0.56545 0.54304 0.0
C85 C 1.01755 0.55018 0.44455 0.0
C86 C 0.10603 0.54995 0.54505 0.0
C87 C 1.02973 0.56566 0.44252 0.0
C88 C 0.05901 0.54211 0.49508 0.0
C89 C 0.11927 0.58913 0.4832 0.0
O90 O 0.28124 0.64936 0.48645 0.0
O91 O 0.28121 0.62546 0.52259 0.0
C92 C 0.3374 0.63722 0.50413 0.0
O93 O 0.14381 0.62746 0.40644 0.0
O94 O 0.08113 0.67614 0.55471 0.0
O95 O 0.08857 0.67646 0.45769 0.0
O96 O 1.03019 0.64821 0.4117 0.0
C97 C 0.08373 0.6382 0.38012 0.0
O98 O 0.90588 0.62383 0.48461 0.0
O99 O 0.90547 0.64827 0.51727 0.0
O100 O 0.12625 0.64635 0.59811 0.0
O101 O 0.06157 0.59759 0.44458 0.0
O102 O 0.16394 0.59654 0.52904 0.0
O103 O 1.04053 0.62325 0.58838 0.0
C104 C 0.14743 0.69871 0.50923 0.0
C105 C 0.22178 0.70307 0.46351 0.0
C106 C 0.16289 0.72363 0.55166 0.0
C107 C 0.26412 0.71768 0.46126 0.0
C108 C 0.12044 0.70905 0.55386 0.0
C109 C 0.2325 0.72822 0.50443 0.0
C110 C 0.08372 0.68436 0.50656 0.0
C111 C 0.8502 0.63595 0.50117 0.0
H112 H 0.16085 0.57106 0.58104 0.0
H113 H 0.97856 0.54447 0.40587 0.0
H114 H 0.13858 0.54403 0.58465 0.0
H115 H 1.00256 0.57145 0.40166 0.0
H116 H 0.24409 0.69537 0.42833 0.0
H117 H 0.13707 0.7315 0.58555 0.0
H118 H 0.31978 0.72082 0.42509 0.0
H119 H 0.06227 0.70602 0.58916 0.0
Eu120 Eu 1.01134 0.36421 0.49878 0.0
Eu121 Eu 1.00516 0.40148 0.50448 0.0
C122 C 1.02331 0.38193 0.62138 0.0
C123 C 0.95384 0.32074 0.49575 0.0
C124 C 0.89242 0.31546 0.54498 0.0
C125 C 0.92463 0.29667 0.44698 0.0
C126 C 0.84939 0.30088 0.54558 0.0
C127 C 0.96788 0.31125 0.44643 0.0
C128 C 0.86665 0.29124 0.49699 0.0
C129 C 1.01875 0.33503 0.4991 0.0
O130 O 0.19795 0.3957 0.51543 0.0
O131 O 0.19867 0.37103 0.48573 0.0
C132 C 0.25373 0.38348 0.50027 0.0
O133 O 0.97788 0.37259 0.40403 0.0
O134 O 1.04235 0.42201 0.55454 0.0
O135 O 0.93975 0.42279 0.47016 0.0
O136 O 0.06284 0.39577 0.41228 0.0
C137 C 1.02528 0.38441 0.37975 0.0
O138 O 0.82259 0.37021 0.51566 0.0
O139 O 0.82257 0.39395 0.47782 0.0
O140 O 0.96015 0.39224 0.59413 0.0
O141 O 1.02721 0.34302 0.45059 0.0
O142 O 1.00954 0.34319 0.54704 0.0
O143 O 0.0754 0.37162 0.59064 0.0
C144 C 1.02369 0.4459 0.50604 0.0
C145 C 0.99139 0.45357 0.4529 0.0
C146 C 0.09068 0.46935 0.55045 0.0
C147 C 1.00667 0.469 0.44902 0.0
C148 C 0.07539 0.45393 0.55436 0.0
C149 C 1.05435 0.4771 0.4982 0.0
C150 C 0.98492 0.43037 0.51546 0.0
C151 C 0.76641 0.38226 0.497 0.0
H152 H 0.88164 0.32237 0.58421 0.0
H153 H 0.93878 0.28953 0.40877 0.0
H154 H 0.80708 0.29695 0.58524 0.0
H155 H 1.01634 0.31491 0.40828 0.0
H156 H 0.94918 0.44779 0.41525 0.0
H157 H 0.12814 0.47528 0.58897 0.0
H158 H 0.97586 0.47468 0.40852 0.0
H159 H 0.09926 0.44841 0.59629 0.0
Eu160 Eu 0.59458 0.86382 -0.001 0.0
Eu161 Eu 0.5995 0.90117 -0.0029 0.0
C162 C 0.57746 0.8822 0.87831 0.0
C163 C 0.65081 0.82036 0.00372 0.0
C164 C 0.74052 0.81628 0.96536 0.0
C165 C 0.65377 0.79524 0.04469 0.0
C166 C 0.78462 0.80172 0.96588 0.0
C167 C 0.60953 0.80977 0.04407 0.0
C168 C 0.74023 0.79097 0.00483 0.0
C169 C 0.58737 0.83467 -0.0035 0.0
O170 O 0.40608 0.89535 0.98607 0.0
O171 O 0.40924 0.87063 0.01467 0.0
C172 C 0.35221 0.88289 6e-05 0.0
O173 O 0.63819 0.8717 0.09332 0.0
O174 O 0.56239 0.92186 0.9483 0.0
O175 O 0.66062 0.92243 0.03415 0.0
O176 O 0.54777 0.89459 0.08959 0.0
C177 C 0.58814 0.883 0.11992 0.0
O178 O 0.78159 0.8699 0.9816 0.0
O179 O 0.78579 0.89381 0.01826 0.0
O180 O 0.64081 0.89242 0.90601 0.0
O181 O 0.56589 0.84248 0.0442 0.0
O182 O 0.60971 0.84296 0.95034 0.0
O183 O 0.52682 0.87167 0.90847 0.0
C184 C 0.58224 0.9458 -0.00318 0.0
C185 C 0.61057 0.9534 0.05064 0.0
C186 C 0.52752 0.96947 0.9502 0.0
C187 C 0.59986 0.96891 0.05373 0.0
C188 C 0.53817 0.95398 0.94709 0.0
C189 C 0.56172 0.97715 0.00295 0.0
C190 C 0.6179 0.9301 0.98852 0.0
C191 C 0.83962 0.88178 0.00021 0.0
H192 H 0.77345 0.82414 0.93327 0.0
H193 H 0.61842 0.78723 0.07548 0.0
H194 H 0.84982 0.79873 0.93393 0.0
H195 H 0.53956 0.81257 0.07363 0.0
H196 H 0.64576 0.94747 0.08964 0.0
H197 H 0.49796 0.9755 0.91033 0.0
H198 H 0.62441 0.97451 0.09542 0.0
H199 H 0.51747 0.94849 0.90468 0.0
Eu200 Eu 0.51033 0.11799 0.00073 0.0
Eu201 Eu 0.51554 0.15531 -0.00178 0.0
C202 C 0.52459 0.136 0.87758 0.0
C203 C 0.53099 0.07344 0.0036 0.0
C204 C 0.50269 0.06541 0.9508 0.0
C205 C 0.59279 0.05026 0.05211 0.0
C206 C 0.51754 0.04995 0.94904 0.0
C207 C 0.57805 0.06571 0.05386 0.0
C208 C 0.56068 0.04217 4e-05 0.0
C209 C 0.49221 0.08907 0.01043 0.0
O210 O 0.32835 0.14925 0.01545 0.0
O211 O 0.32429 0.12534 0.97874 0.0
C212 C 0.27034 0.13737 -0.00322 0.0
O213 O 0.46712 0.12689 0.0913 0.0
O214 O 0.53969 0.17663 0.95211 0.0
O215 O 0.50567 0.17618 0.04718 0.0
O216 O 0.58216 0.14752 0.08909 0.0
C217 C 0.53056 0.13707 0.11918 0.0
O218 O 0.70373 0.12383 0.01234 0.0
O219 O 0.70075 0.14846 0.98248 0.0
O220 O 0.47437 0.14735 0.90374 0.0
O221 O 0.54429 0.0975 0.05113 0.0
O222 O 0.45232 0.09656 0.96368 0.0
O223 O 0.56354 0.12439 0.90826 0.0
C224 C 0.46034 0.19884 -0.00498 0.0
C225 C 0.37706 0.2031 0.03669 0.0
C226 C 0.4544 0.22395 0.95388 0.0
C227 C 0.33526 0.21776 0.03784 0.0
C228 C 0.49648 0.20932 0.95284 0.0
C229 C 0.37612 0.22843 -0.00244 0.0
C230 C 0.52343 0.18446 0.0004 0.0
C231 C 0.75774 0.13624 -0.00224 0.0
H232 H 0.46441 0.07098 0.91159 0.0
H233 H 0.62393 0.04458 0.09253 0.0
H234 H 0.49241 0.044 0.90823 0.0
H235 H 0.59803 0.0715 0.09569 0.0
H236 H 0.34738 0.1953 0.06985 0.0
H237 H 0.48729 0.23192 0.92224 0.0
H238 H 0.27293 0.22083 0.07115 0.0
H239 H 0.56146 0.20637 0.92067 0.0
Eu240 Eu 0.60691 0.11773 0.49734 0.0
Eu241 Eu 0.60152 0.15506 0.49963 0.0
C242 C 0.59344 0.13587 0.62031 0.0
C243 C 0.58889 0.07311 0.49622 0.0
C244 C 0.63635 0.06461 0.54427 0.0
C245 C 0.51031 0.05035 0.45069 0.0
C246 C 0.62305 0.04912 0.54488 0.0
C247 C 0.52352 0.06584 0.45007 0.0
C248 C 0.56309 0.04179 0.49713 0.0
C249 C 0.62585 0.0888 0.48873 0.0
O250 O 0.78865 0.14898 0.48231 0.0
O251 O 0.79301 0.12508 0.51893 0.0
C252 C 0.84679 0.1371 0.50088 0.0
O253 O 0.64883 0.12652 0.40638 0.0
O254 O 0.57373 0.17638 0.54497 0.0
O255 O 0.61526 0.17592 0.45086 0.0
O256 O 0.53463 0.14726 0.40888 0.0
C257 C 0.58596 0.13679 0.37867 0.0
O258 O 0.41345 0.12353 0.48583 0.0
O259 O 0.41618 0.14822 0.51498 0.0
O260 O 0.64401 0.14716 0.59401 0.0
O261 O 0.57259 0.0971 0.44799 0.0
O262 O 0.66641 0.0964 0.53501 0.0
O263 O 0.55374 0.12429 0.5897 0.0
C264 C 0.65709 0.1986 0.50395 0.0
C265 C 0.71811 0.2046 0.45592 0.0
C266 C 0.68159 0.22219 0.55696 0.0
C267 C 0.75807 0.21932 0.45789 0.0
C268 C 0.64135 0.20747 0.55497 0.0
C269 C 0.73721 0.22841 0.50768 0.0
C270 C 0.59407 0.18422 0.49721 0.0
C271 C 0.35934 0.13597 0.50003 0.0
H272 H 0.68883 0.06982 0.58001 0.0
H273 H 0.46142 0.04503 0.41393 0.0
H274 H 0.66464 0.04281 0.58128 0.0
H275 H 0.48691 0.07201 0.41202 0.0
H276 H 0.73067 0.19816 0.41559 0.0
H277 H 0.66666 0.22882 0.59653 0.0
H278 H 0.80064 0.22379 0.41923 0.0
H279 H 0.59381 0.20323 0.59246 0.0
Eu280 Eu 0.50908 0.86381 0.49832 0.0
Eu281 Eu 0.50287 0.90112 0.49972 0.0
C282 C 0.52171 0.88223 0.61887 0.0
C283 C 0.45209 0.82035 0.49381 0.0
C284 C 0.37576 0.81534 0.53759 0.0
C285 C 0.4383 0.79601 0.44579 0.0
C286 C 0.33311 0.80074 0.53608 0.0
C287 C 0.48126 0.8106 0.44738 0.0
C288 C 0.36559 0.79084 0.49079 0.0
C289 C 0.51579 0.83466 0.50111 0.0
O290 O 0.69569 0.89553 0.51121 0.0
O291 O 0.69687 0.87055 0.486 0.0
C292 C 0.75164 0.88315 0.49834 0.0
O293 O 0.47141 0.87162 0.40335 0.0
O294 O 0.53664 0.92189 0.54835 0.0
O295 O 0.44049 0.92229 0.46204 0.0
O296 O 0.56025 0.89459 0.40813 0.0
C297 C 0.52229 0.88294 0.37739 0.0
O298 O 0.32029 0.86997 0.51417 0.0
O299 O 0.32002 0.89351 0.47435 0.0
O300 O 0.45908 0.89244 0.59062 0.0
O301 O 0.53815 0.84244 0.45348 0.0
O302 O 0.49315 0.843 0.54712 0.0
O303 O 0.57383 0.87174 0.58918 0.0
C304 C 0.52134 0.94559 0.49807 0.0
C305 C 0.47616 0.95377 0.44855 0.0
C306 C 0.60263 0.96855 0.54061 0.0
C307 C 0.49232 0.96919 0.4456 0.0
C308 C 0.58657 0.95313 0.54356 0.0
C309 C 0.5537 0.97679 0.4922 0.0
C310 C 0.48225 0.93007 0.50757 0.0
C311 C 0.26407 0.88192 0.49456 0.0
H312 H 0.35235 0.82249 0.57437 0.0
H313 H 0.4664 0.78858 0.41088 0.0
H314 H 0.27674 0.79707 0.57117 0.0
H315 H 0.54157 0.81406 0.41369 0.0
H316 H 0.42323 0.94838 0.41342 0.0
H317 H 0.65069 0.97411 0.57707 0.0
H318 H 0.45165 0.97525 0.40827 0.0
H319 H 0.62079 0.94723 0.58287 0.0
C320 C 0.54219 0.36965 0.00105 0.0
C321 C 0.47627 0.38284 0.00435 0.0
C322 C 0.66528 0.36999 0.00025 0.0
C323 C 0.72773 0.38354 0.00192 0.0
H324 H 0.49861 0.35894 -0.00042 0.0
H325 H 0.71164 0.35949 -0.00219 0.0
S326 S 0.59675 0.42132 0.00949 0.0
N327 N 0.48307 0.40994 0.00849 0.0
N328 N 0.71363 0.41053 0.00681 0.0
C329 C 0.66287 0.39683 0.00474 0.0
C330 C 0.53756 0.3965 0.00607 0.0
C331 C 0.44932 0.62333 -0.00279 0.0
C332 C 0.38336 0.63653 -0.00019 0.0
C333 C 0.57251 0.62368 -0.00336 0.0
C334 C 0.63492 0.63724 -0.00058 0.0
H335 H 0.40556 0.61264 -0.00517 0.0
H336 H 0.61903 0.61319 -0.00557 0.0
S337 S 0.50365 0.67499 0.00885 0.0
N338 N 0.39008 0.6636 0.00665 0.0
N339 N 0.62054 0.66422 0.00561 0.0
C340 C 0.56993 0.65052 0.0027 0.0
C341 C 0.44461 0.65018 0.00284 0.0
C342 C 0.65721 0.64947 0.5009 0.0
C343 C 0.71959 0.6359 0.50164 0.0
C344 C 0.53402 0.64982 0.50132 0.0
C345 C 0.46794 0.63663 0.50335 0.0
H346 H 0.70373 0.65997 0.49946 0.0
H347 H 0.49048 0.66055 0.50061 0.0
S348 S 0.58829 0.59811 0.50573 0.0
N349 N 0.70528 0.6089 0.50427 0.0
N350 N 0.47463 0.60951 0.50531 0.0
C351 C 0.52921 0.62296 0.50413 0.0
C352 C 0.65458 0.62261 0.50315 0.0
C353 C 0.57004 0.36966 0.50078 0.0
C354 C 0.6359 0.38285 0.4977 0.0
C355 C 0.44688 0.36999 0.50131 0.0
C356 C 0.38431 0.38355 0.49962 0.0
H357 H 0.61372 0.35894 0.50227 0.0
H358 H 0.40055 0.3595 0.50361 0.0
S359 S 0.51506 0.42133 0.49252 0.0
N360 N 0.62886 0.40995 0.49368 0.0
N361 N 0.39823 0.41053 0.49491 0.0
C362 C 0.44911 0.39684 0.49701 0.0
C363 C 0.57447 0.3965 0.49592 0.0
C364 C 1.03286 0.89527 0.00448 0.0
C365 C 0.97018 0.88176 0.00018 0.0
C366 C 0.15604 0.8956 0.00373 0.0
C367 C 0.2217 0.88241 -0.00059 0.0
H368 H 0.98654 0.90575 0.00796 0.0
H369 H 0.20001 0.90627 0.00727 0.0
S370 S 0.10034 0.84404 0.98644 0.0
N371 N 0.98381 0.85482 -0.00894 0.0
N372 N 0.21419 0.85539 0.98963 0.0
C373 C 0.16008 0.8688 -0.00503 0.0
C374 C 1.03479 0.86849 -0.00468 0.0
C375 C 0.07712 0.12386 -0.00705 0.0
C376 C 0.13976 0.13738 -0.00306 0.0
C377 C 0.95395 0.12352 -0.006 0.0
C378 C 0.88826 0.13671 -0.00168 0.0
H379 H 0.12349 0.11338 0.98949 0.0
H380 H 0.90998 0.11285 -0.00934 0.0
S381 S 1.00947 0.17509 0.01063 0.0
N382 N 0.12602 0.16432 0.00583 0.0
N383 N 0.89569 0.16373 0.00783 0.0
C384 C 0.94983 0.15032 0.00249 0.0
C385 C 0.0751 0.15065 0.00182 0.0
C386 C 0.16329 0.12325 0.50384 0.0
C387 C 0.22884 0.13644 0.4994 0.0
C388 C 1.04012 0.12359 0.50483 0.0
C389 C 0.97734 0.13711 0.50068 0.0
H390 H 0.20736 0.11258 0.50732 0.0
H391 H 0.99387 0.11312 0.5084 0.0
S392 S 0.10723 0.17481 0.48662 0.0
N393 N 0.22113 0.16345 0.48958 0.0
N394 N 0.99079 0.16404 0.49149 0.0
C395 C 1.04186 0.15037 0.49567 0.0
C396 C 0.16712 0.15005 0.49505 0.0
C397 C 0.94487 0.86968 0.50053 0.0
C398 C 0.88219 0.88323 0.49767 0.0
C399 C 0.06797 0.86935 0.49981 0.0
C400 C 0.13366 0.88252 0.4954 0.0
H401 H 0.89869 0.8592 0.50383 0.0
H402 H 0.11174 0.85864 0.50219 0.0
S403 S 1.01261 0.92096 0.48706 0.0
N404 N 0.8959 0.91019 0.49057 0.0
N405 N 0.12646 0.90959 0.48903 0.0
C406 C 0.07216 0.89616 0.49253 0.0
C407 C 0.94685 0.8965 0.49377 0.0
C408 C 1.01437 0.51729 0.04508 0.0
C409 C 0.06331 0.52565 -0.00119 0.0
C410 C 1.01474 0.50167 0.04401 0.0
C411 C 0.06366 0.49379 -0.00348 0.0
H412 H 0.97383 0.52288 0.08205 0.0
H413 H 0.97521 0.49572 0.08031 0.0
S414 S 0.21167 0.51037 0.86707 0.0
N415 N 0.16772 0.52485 0.90593 0.0
N416 N 0.16848 0.49552 0.90384 0.0
C417 C 0.11435 0.50201 0.95041 0.0
C418 C 0.11409 0.51791 0.95155 0.0
C419 C 1.01462 0.502 0.54439 0.0
C420 C 0.05873 0.49367 0.49667 0.0
C421 C 1.01461 0.51762 0.54351 0.0
C422 C 0.05829 0.52554 0.49476 0.0
H423 H 0.97808 0.49639 0.5824 0.0
H424 H 0.97884 0.52355 0.58097 0.0
S425 S 0.19282 0.50905 0.36105 0.0
N426 N 0.15326 0.49454 0.40094 0.0
N427 N 0.15329 0.52387 0.39919 0.0
C428 C 0.10425 0.51735 0.44717 0.0
C429 C 0.10439 0.50145 0.44812 0.0
C430 C 0.46486 1.00178 0.98099 0.0
C431 C 0.56287 0.99373 0.00366 0.0
C432 C 0.46549 0.0174 0.97944 0.0
C433 C 0.56428 0.02559 0.00033 0.0
H434 H 0.38658 0.99596 0.96479 0.0
H435 H 0.38719 0.02311 0.96257 0.0
S436 S 0.84685 1.00981 0.05933 0.0
N437 N 0.7638 0.99511 0.04438 0.0
N438 N 0.76482 0.02444 0.04149 0.0
C439 C 0.6634 0.01767 0.02237 0.0
C440 C 0.66274 1.00177 0.02402 0.0
C441 C 0.52967 0.01694 0.54517 0.0
C442 C 0.56056 0.02522 0.49463 0.0
C443 C 0.52888 1.00132 0.54412 0.0
C444 C 0.55932 0.99335 0.49254 0.0
H445 H 0.50462 0.02259 0.58568 0.0
H446 H 0.50237 0.99543 0.58376 0.0
S447 S 0.65703 1.00973 0.35021 0.0
N448 N 0.62911 0.02426 0.39275 0.0
N449 N 0.62745 0.99493 0.39083 0.0
C450 C 0.59214 1.00149 0.44203 0.0
C451 C 0.59285 0.0174 0.44307 0.0
C452 C 0.27137 0.2674 0.95466 0.0
C453 C 0.28031 0.2752 0.00948 0.0
C454 C 0.30162 0.25228 0.95121 0.0
C455 C 0.34164 0.24436 0.00249 0.0
H456 H 0.23902 0.27297 0.91419 0.0
H457 H 0.29252 0.24671 0.90817 0.0
S458 S 0.39039 0.25993 0.15573 0.0
N459 N 0.33832 0.27406 0.11547 0.0
N460 N 0.39514 0.24568 0.10906 0.0
C461 C 0.35254 0.25207 0.05741 0.0
C462 C 0.32189 0.26747 0.06089 0.0
C463 C 0.69384 0.76368 -0.00143 0.0
C464 C 0.77837 0.77513 0.0015 0.0
C465 C 0.72685 0.74867 -0.0059 0.0
C466 C 0.84569 0.74451 -0.00785 0.0
H467 H 0.60113 0.76634 -0.00117 0.0
H468 H 0.65868 0.74027 -0.0086 0.0
S469 S 0.10166 0.77006 0.0035 0.0
N470 N 0.98638 0.78118 0.00551 0.0
N471 N 1.0485 0.75302 -0.00293 0.0
C472 C 0.9312 0.75583 -0.00409 0.0
C473 C 0.89757 0.7711 0.00055 0.0
C474 C 0.31665 0.75168 0.54971 0.0
C475 C 0.26795 0.7441 0.49936 0.0
C476 C 0.34719 0.76677 0.54654 0.0
C477 C 0.33008 0.77491 0.49292 0.0
H478 H 0.33208 0.74585 0.59183 0.0
H479 H 0.38592 0.77208 0.58625 0.0
S480 S 0.19721 0.76062 0.34962 0.0
N481 N 0.19848 0.74611 0.39507 0.0
N482 N 0.25632 0.77446 0.38915 0.0
C483 C 0.2805 0.76753 0.4424 0.0
C484 C 0.24934 0.75215 0.44561 0.0
C485 C 0.91092 0.26405 0.48532 0.0
C486 C 0.83089 0.27532 0.49988 0.0
C487 C 0.88052 0.24894 0.48858 0.0
C488 C 0.76896 0.24449 0.50668 0.0
H489 H 0.99845 0.26692 0.47197 0.0
H490 H 0.94525 0.24067 0.47725 0.0
S491 S 0.52447 0.26963 0.54537 0.0
N492 N 0.63339 0.28098 0.5304 0.0
N493 N 0.57611 0.25262 0.53646 0.0
C494 C 0.68772 0.25565 0.52087 0.0
C495 C 0.71868 0.27103 0.5175 0.0
C496 C 0.06649 0.3713 0.21999 0.0
C497 C 0.0748 0.38469 0.18773 0.0
C498 C 1.0484 0.37132 0.28185 0.0
C499 C 1.03995 0.38473 0.31403 0.0
H500 H 0.07217 0.36069 0.19716 0.0
H501 H 1.04265 0.36072 0.30472 0.0
S502 S 0.05752 0.42286 0.25077 0.0
N503 N 0.07375 0.41175 0.19268 0.0
N504 N 1.04122 0.41179 0.30892 0.0
C505 C 1.04899 0.39821 0.2824 0.0
C506 C 0.06591 0.39819 0.21928 0.0
C507 C 1.04764 0.62509 0.2192 0.0
C508 C 1.04099 0.63849 0.18673 0.0
C509 C 0.06402 0.62511 0.28179 0.0
C510 C 0.07117 0.63853 0.31411 0.0
H511 H 1.04181 0.61449 0.19601 0.0
H512 H 0.06887 0.61453 0.30511 0.0
S513 S 0.05759 0.67663 0.25022 0.0
N514 N 1.04362 0.66553 0.19126 0.0
N515 N 0.07075 0.66557 0.30929 0.0
C516 C 0.06374 0.65202 0.28227 0.0
C517 C 1.04974 0.65199 0.21841 0.0
C518 C 1.0349 0.64749 0.78119 0.0
C519 C 1.02722 0.63409 0.81342 0.0
C520 C 1.05303 0.64749 0.71938 0.0
C521 C 0.06212 0.63409 0.68718 0.0
H522 H 1.0291 0.6581 0.80404 0.0
H523 H 0.0586 0.6581 0.69659 0.0
S524 S 1.04535 0.59594 0.75028 0.0
N525 N 1.02894 0.60703 0.80845 0.0
N526 N 0.06124 0.60703 0.69211 0.0
C527 C 1.05315 0.62059 0.7187 0.0
C528 C 1.03631 0.6206 0.78184 0.0
C529 C 1.0475 0.3687 0.71945 0.0
C530 C 1.03854 0.38214 0.68732 0.0
C531 C 0.06219 0.36866 0.7822 0.0
C532 C 0.07193 0.38207 0.81459 0.0
H533 H 1.04154 0.35814 0.69602 0.0
H534 H 0.06769 0.35808 0.80541 0.0
S535 S 0.05613 0.42024 0.75134 0.0
N536 N 1.04024 0.40918 0.69236 0.0
N537 N 0.07147 0.40911 0.81009 0.0
C538 C 0.0644 0.39558 0.78291 0.0
C539 C 1.04663 0.39561 0.71927 0.0
C540 C 0.5648 0.89601 0.21786 0.0
C541 C 0.5743 0.88261 0.18567 0.0
C542 C 0.54831 0.89599 0.27983 0.0
C543 C 0.53825 0.88259 0.3118 0.0
H544 H 0.57095 0.90662 0.19512 0.0
H545 H 0.54207 0.90659 0.30267 0.0
S546 S 0.5561 0.84445 0.24847 0.0
N547 N 0.57249 0.85556 0.19041 0.0
N548 N 0.53991 0.85553 0.30669 0.0
C549 C 0.54704 0.8691 0.28014 0.0
C550 C 0.56567 0.86911 0.21717 0.0
C551 C 0.55289 0.15011 0.21775 0.0
C552 C 0.54443 0.13673 0.18517 0.0
C553 C 0.56505 0.15004 0.28057 0.0
C554 C 0.57257 0.13659 0.31266 0.0
H555 H 0.5483 0.16072 0.19461 0.0
H556 H 0.57026 0.1606 0.3041 0.0
S557 S 0.55736 0.09853 0.2482 0.0
N558 N 0.54448 0.10968 0.18943 0.0
N559 N 0.57093 0.10955 0.30739 0.0
C560 C 0.5657 0.12313 0.28055 0.0
C561 C 0.55055 0.1232 0.21677 0.0
C562 C 0.54965 0.12292 0.77991 0.0
C563 C 0.54011 0.13634 0.81195 0.0
C564 C 0.56709 0.12289 0.71802 0.0
C565 C 0.57811 0.13627 0.68596 0.0
H566 H 0.54256 0.11233 0.80268 0.0
H567 H 0.57297 0.11227 0.69526 0.0
S568 S 0.56139 0.17445 0.74896 0.0
N569 N 0.54354 0.16339 0.80702 0.0
N570 N 0.5779 0.16333 0.6909 0.0
C571 C 0.56972 0.14978 0.71751 0.0
C572 C 0.5501 0.14981 0.7804 0.0
C573 C 0.54223 0.8691 0.71718 0.0
C574 C 0.53426 0.88253 0.68489 0.0
C575 C 0.55469 0.86909 0.77997 0.0
C576 C 0.563 0.8825 0.81235 0.0
H577 H 0.53736 0.85853 0.69382 0.0
H578 H 0.55978 0.85851 0.80323 0.0
S579 S 0.54856 0.92064 0.74878 0.0
N580 N 0.53503 0.90957 0.68975 0.0
N581 N 0.56204 0.90955 0.80771 0.0
C582 C 0.55621 0.896 0.78056 0.0
C583 C 0.54075 0.89601 0.71679 0.0
loop_
_geom_bond_atom_site_label_1
_geom_bond_atom_site_label_2
_geom_bond_distance
_geom_bond_site_symmetry_2
_ccdc_geom_bond_type
Eu0 C9 2.828 . S
Eu0 O11 2.392 1_455 S
Eu0 O13 2.418 . S
Eu0 O18 2.373 . S
Eu0 O21 2.488 . S
Eu0 O22 2.471 1_554 S
Eu0 O23 2.349 1_554 S
Eu1 O10 2.373 1_455 S
Eu1 O14 2.488 . S
Eu1 O15 2.471 1_556 S
Eu1 O16 2.349 1_556 S
Eu1 O19 2.392 . S
Eu1 O20 2.418 . S
Eu1 C30 2.828 1_456 S
C2 O20 1.244 . S
C2 O23 1.265 . S
C3 C4 1.388 . S
C3 C7 1.365 1_556 S
C3 C9 1.504 1_556 S
C4 C3 1.388 . S
C4 C6 1.369 . S
C4 H32 0.930 . S
C5 C7 1.383 . S
C5 C8 1.382 1_554 S
C5 H33 0.930 . S
C6 C4 1.369 . S
C6 C8 1.392 . S
C6 H34 0.930 . S
C7 C3 1.365 1_554 S
C7 C5 1.383 . S
C7 H35 0.931 . S
C8 C5 1.382 1_556 S
C8 C6 1.392 . S
C9 Eu0 2.828 . S
C9 C3 1.504 1_554 S
C9 O21 1.249 . S
C9 O22 1.244 1_554 S
O10 Eu1 2.373 1_655 S
O10 C12 1.258 1_556 S
O11 Eu0 2.392 1_655 S
O11 C12 1.242 . S
C12 O10 1.258 1_554 S
C12 O11 1.242 . S
O13 Eu0 2.418 . S
O13 C17 1.244 . S
O14 Eu1 2.488 . S
O14 C30 1.249 1_456 S
O15 Eu1 2.471 1_554 S
O15 C30 1.244 1_455 S
O16 Eu1 2.349 1_554 S
O16 C17 1.265 . S
C17 O13 1.244 . S
C17 O16 1.265 . S
O18 Eu0 2.373 . S
O18 C31 1.258 . S
O19 Eu1 2.392 . S
O19 C31 1.242 1_556 S
O20 Eu1 2.418 . S
O20 C2 1.244 . S
O21 Eu0 2.488 . S
O21 C9 1.249 . S
O22 Eu0 2.471 1_556 S
O22 C9 1.244 1_556 S
O23 Eu0 2.349 1_556 S
O23 C2 1.265 . S
C24 C25 1.379 . S
C24 C28 1.373 1_554 S
C24 C30 1.505 . S
C25 C24 1.379 . S
C25 C27 1.369 . S
C25 H36 0.930 . S
C26 C28 1.383 . S
C26 C29 1.382 1_556 S
C26 H37 0.930 . S
C27 C25 1.369 . S
C27 C29 1.392 . S
C27 H38 0.930 . S
C28 C24 1.373 1_556 S
C28 C26 1.383 . S
C28 H39 0.931 . S
C29 C26 1.382 1_554 S
C29 C27 1.392 . S
C30 Eu1 2.828 1_654 S
C30 O14 1.249 1_654 S
C30 O15 1.244 1_655 S
C30 C24 1.505 . S
C31 O18 1.258 . S
C31 O19 1.242 1_554 S
H32 C4 0.930 . S
H33 C5 0.930 . S
H34 C6 0.930 . S
H35 C7 0.931 . S
H36 C25 0.930 . S
H37 C26 0.930 . S
H38 C27 0.930 . S
H39 C28 0.931 . S
Eu40 C49 2.828 1_655 S
Eu40 O51 2.392 . S
Eu40 O53 2.418 . S
Eu40 O58 2.373 1_655 S
Eu40 O61 2.488 . S
Eu40 O62 2.471 1_554 S
Eu40 O63 2.349 1_554 S
Eu41 O50 2.373 . S
Eu41 O54 2.488 . S
Eu41 O55 2.471 1_556 S
Eu41 O56 2.349 1_556 S
Eu41 O59 2.392 1_655 S
Eu41 O60 2.418 . S
Eu41 C70 2.828 1_556 S
C42 O60 1.244 . S
C42 O63 1.265 . S
C43 C44 1.379 . S
C43 C47 1.373 1_556 S
C43 C49 1.505 1_556 S
C44 C43 1.379 . S
C44 C46 1.369 . S
C44 H72 0.930 . S
C45 C47 1.383 . S
C45 C48 1.382 1_554 S
C45 H73 0.930 . S
C46 C44 1.369 . S
C46 C48 1.392 . S
C46 H74 0.930 . S
C47 C43 1.373 1_554 S
C47 C45 1.383 . S
C47 H75 0.931 . S
C48 C45 1.382 1_556 S
C48 C46 1.392 . S
C49 Eu40 2.828 1_455 S
C49 C43 1.505 1_554 S
C49 O61 1.249 1_455 S
C49 O62 1.244 1_454 S
O50 Eu41 2.373 . S
O50 C52 1.258 1_556 S
O51 Eu40 2.392 . S
O51 C52 1.242 . S
C52 O50 1.258 1_554 S
C52 O51 1.242 . S
O53 Eu40 2.418 . S
O53 C57 1.244 . S
O54 Eu41 2.488 . S
O54 C70 1.249 1_556 S
O55 Eu41 2.471 1_554 S
O55 C70 1.244 . S
O56 Eu41 2.349 1_554 S
O56 C57 1.265 . S
C57 O53 1.244 . S
C57 O56 1.265 . S
O58 Eu40 2.373 1_455 S
O58 C71 1.258 . S
O59 Eu41 2.392 1_455 S
O59 C71 1.242 1_556 S
O60 Eu41 2.418 . S
O60 C42 1.244 . S
O61 Eu40 2.488 . S
O61 C49 1.249 1_655 S
O62 Eu40 2.471 1_556 S
O62 C49 1.244 1_656 S
O63 Eu40 2.349 1_556 S
O63 C42 1.265 . S
C64 C65 1.379 . S
C64 C68 1.373 1_554 S
C64 C70 1.505 . S
C65 C64 1.379 . S
C65 C67 1.369 . S
C65 H76 0.930 . S
C66 C68 1.383 . S
C66 C69 1.382 1_556 S
C66 H77 0.930 . S
C67 C65 1.369 . S
C67 C69 1.392 . S
C67 H78 0.930 . S
C68 C64 1.373 1_556 S
C68 C66 1.383 . S
C68 H79 0.931 . S
C69 C66 1.382 1_554 S
C69 C67 1.392 . S
C70 Eu41 2.828 1_554 S
C70 O54 1.249 1_554 S
C70 O55 1.244 . S
C70 C64 1.505 . S
C71 O58 1.258 . S
C71 O59 1.242 1_554 S
H72 C44 0.930 . S
H73 C45 0.930 . S
H74 C46 0.930 . S
H75 C47 0.931 . S
H76 C65 0.930 . S
H77 C66 0.930 . S
H78 C67 0.930 . S
H79 C68 0.931 . S
Eu80 C89 2.828 1_455 S
Eu80 O91 2.392 . S
Eu80 O93 2.418 . S
Eu80 O98 2.373 1_455 S
Eu80 O101 2.488 . S
Eu80 O102 2.471 . S
Eu80 O103 2.349 . S
Eu81 O90 2.373 . S
Eu81 O94 2.488 . S
Eu81 O95 2.471 . S
Eu81 O96 2.349 . S
Eu81 O99 2.392 1_455 S
Eu81 O100 2.418 . S
Eu81 C110 2.828 . S
C82 O100 1.244 . S
C82 O103 1.265 . S
C83 C84 1.379 . S
C83 C87 1.373 . S
C83 C89 1.505 . S
C84 C83 1.379 . S
C84 C86 1.369 . S
C84 H112 0.930 . S
C85 C87 1.383 . S
C85 C88 1.382 . S
C85 H113 0.930 . S
C86 C84 1.369 . S
C86 C88 1.392 . S
C86 H114 0.930 . S
C87 C83 1.373 . S
C87 C85 1.383 . S
C87 H115 0.931 . S
C88 C85 1.382 . S
C88 C86 1.392 . S
C89 Eu80 2.828 1_655 S
C89 C83 1.505 . S
C89 O101 1.249 1_655 S
C89 O102 1.244 1_655 S
O90 Eu81 2.373 . S
O90 C92 1.258 . S
O91 Eu80 2.392 . S
O91 C92 1.242 . S
C92 O90 1.258 . S
C92 O91 1.242 . S
O93 Eu80 2.418 . S
O93 C97 1.244 . S
O94 Eu81 2.488 . S
O94 C110 1.249 . S
O95 Eu81 2.471 . S
O95 C110 1.244 . S
O96 Eu81 2.349 . S
O96 C97 1.265 . S
C97 O93 1.244 . S
C97 O96 1.265 . S
O98 Eu80 2.373 1_655 S
O98 C111 1.258 . S
O99 Eu81 2.392 1_655 S
O99 C111 1.242 . S
O100 Eu81 2.418 . S
O100 C82 1.244 . S
O101 Eu80 2.488 . S
O101 C89 1.249 1_455 S
O102 Eu80 2.471 . S
O102 C89 1.244 1_455 S
O103 Eu80 2.349 . S
O103 C82 1.265 . S
C104 C105 1.379 . S
C104 C108 1.373 . S
C104 C110 1.505 . S
C105 C104 1.379 . S
C105 C107 1.369 . S
C105 H116 0.930 . S
C106 C108 1.383 . S
C106 C109 1.382 . S
C106 H117 0.930 . S
C107 C105 1.369 . S
C107 C109 1.392 . S
C107 H118 0.930 . S
C108 C104 1.373 . S
C108 C106 1.383 . S
C108 H119 0.931 . S
C109 C106 1.382 . S
C109 C107 1.392 . S
C110 Eu81 2.828 . S
C110 O94 1.249 . S
C110 O95 1.244 . S
C110 C104 1.505 . S
C111 O98 1.258 . S
C111 O99 1.242 . S
H112 C84 0.930 . S
H113 C85 0.930 . S
H114 C86 0.930 . S
H115 C87 0.931 . S
H116 C105 0.930 . S
H117 C106 0.930 . S
H118 C107 0.930 . S
H119 C108 0.931 . S
Eu120 C129 2.828 . S
Eu120 O131 2.392 1_655 S
Eu120 O133 2.418 . S
Eu120 O138 2.373 . S
Eu120 O141 2.488 . S
Eu120 O142 2.471 . S
Eu120 O143 2.349 . S
Eu121 O130 2.373 1_655 S
Eu121 O134 2.488 . S
Eu121 O135 2.471 . S
Eu121 O136 2.349 . S
Eu121 O139 2.392 . S
Eu121 O140 2.418 . S
Eu121 C150 2.828 1_655 S
C122 O140 1.244 . S
C122 O143 1.265 . S
C123 C124 1.379 . S
C123 C127 1.373 . S
C123 C129 1.505 . S
C124 C123 1.379 . S
C124 C126 1.369 . S
C124 H152 0.930 . S
C125 C127 1.383 . S
C125 C128 1.382 . S
C125 H153 0.930 . S
C126 C124 1.369 . S
C126 C128 1.392 . S
C126 H154 0.930 . S
C127 C123 1.373 . S
C127 C125 1.383 . S
C127 H155 0.931 . S
C128 C125 1.382 . S
C128 C126 1.392 . S
C129 Eu120 2.828 . S
C129 C123 1.505 . S
C129 O141 1.249 . S
C129 O142 1.244 . S
O130 Eu121 2.373 1_455 S
O130 C132 1.258 . S
O131 Eu120 2.392 1_455 S
O131 C132 1.242 . S
C132 O130 1.258 . S
C132 O131 1.242 . S
O133 Eu120 2.418 . S
O133 C137 1.244 . S
O134 Eu121 2.488 . S
O134 C150 1.249 1_655 S
O135 Eu121 2.471 . S
O135 C150 1.244 1_655 S
O136 Eu121 2.349 . S
O136 C137 1.265 . S
C137 O133 1.244 . S
C137 O136 1.265 . S
O138 Eu120 2.373 . S
O138 C151 1.258 . S
O139 Eu121 2.392 . S
O139 C151 1.242 . S
O140 Eu121 2.418 . S
O140 C122 1.244 . S
O141 Eu120 2.488 . S
O141 C129 1.249 . S
O142 Eu120 2.471 . S
O142 C129 1.244 . S
O143 Eu120 2.349 . S
O143 C122 1.265 . S
C144 C145 1.379 . S
C144 C148 1.373 . S
C144 C150 1.505 . S
C145 C144 1.379 . S
C145 C147 1.369 . S
C145 H156 0.930 . S
C146 C148 1.383 . S
C146 C149 1.382 . S
C146 H157 0.930 . S
C147 C145 1.369 . S
C147 C149 1.392 . S
C147 H158 0.930 . S
C148 C144 1.373 . S
C148 C146 1.383 . S
C148 H159 0.931 . S
C149 C146 1.382 . S
C149 C147 1.392 . S
C150 Eu121 2.828 1_455 S
C150 O134 1.249 1_455 S
C150 O135 1.244 1_455 S
C150 C144 1.505 . S
C151 O138 1.258 . S
C151 O139 1.242 . S
H152 C124 0.930 . S
H153 C125 0.930 . S
H154 C126 0.930 . S
H155 C127 0.931 . S
H156 C145 0.930 . S
H157 C146 0.930 . S
H158 C147 0.930 . S
H159 C148 0.931 . S
Eu160 C169 2.828 . S
Eu160 O171 2.392 . S
Eu160 O173 2.418 . S
Eu160 O178 2.373 . S
Eu160 O181 2.488 . S
Eu160 O182 2.471 1_554 S
Eu160 O183 2.349 1_554 S
Eu161 O170 2.373 . S
Eu161 O174 2.488 . S
Eu161 O175 2.471 1_556 S
Eu161 O176 2.349 1_556 S
Eu161 O179 2.392 . S
Eu161 O180 2.418 . S
Eu161 C190 2.828 1_556 S
C162 O180 1.244 . S
C162 O183 1.265 . S
C163 C164 1.389 . S
C163 C167 1.364 1_556 S
C163 C169 1.504 1_556 S
C164 C163 1.389 . S
C164 C166 1.369 . S
C164 H192 0.930 . S
C165 C167 1.383 . S
C165 C168 1.382 1_554 S
C165 H193 0.930 . S
C166 C164 1.369 . S
C166 C168 1.392 . S
C166 H194 0.930 . S
C167 C163 1.364 1_554 S
C167 C165 1.383 . S
C167 H195 0.931 . S
C168 C165 1.382 1_556 S
C168 C166 1.392 . S
C169 Eu160 2.828 . S
C169 C163 1.504 1_554 S
C169 O181 1.249 . S
C169 O182 1.244 1_554 S
O170 Eu161 2.373 . S
O170 C172 1.258 1_556 S
O171 Eu160 2.392 . S
O171 C172 1.242 . S
C172 O170 1.258 1_554 S
C172 O171 1.242 . S
O173 Eu160 2.418 . S
O173 C177 1.244 . S
O174 Eu161 2.488 . S
O174 C190 1.249 1_556 S
O175 Eu161 2.471 1_554 S
O175 C190 1.244 . S
O176 Eu161 2.349 1_554 S
O176 C177 1.265 . S
C177 O173 1.244 . S
C177 O176 1.265 . S
O178 Eu160 2.373 . S
O178 C191 1.258 . S
O179 Eu161 2.392 . S
O179 C191 1.242 1_556 S
O180 Eu161 2.418 . S
O180 C162 1.244 . S
O181 Eu160 2.488 . S
O181 C169 1.249 . S
O182 Eu160 2.471 1_556 S
O182 C169 1.244 1_556 S
O183 Eu160 2.349 1_556 S
O183 C162 1.265 . S
C184 C185 1.379 . S
C184 C188 1.373 1_554 S
C184 C190 1.505 . S
C185 C184 1.379 . S
C185 C187 1.369 . S
C185 H196 0.930 . S
C186 C188 1.383 . S
C186 C189 1.382 1_556 S
C186 H197 0.930 . S
C187 C185 1.369 . S
C187 C189 1.392 . S
C187 H198 0.930 . S
C188 C184 1.373 1_556 S
C188 C186 1.383 . S
C188 H199 0.931 . S
C189 C186 1.382 1_554 S
C189 C187 1.392 . S
C190 Eu161 2.828 1_554 S
C190 O174 1.249 1_554 S
C190 O175 1.244 . S
C190 C184 1.505 . S
C191 O178 1.258 . S
C191 O179 1.242 1_554 S
H192 C164 0.930 . S
H193 C165 0.930 . S
H194 C166 0.930 . S
H195 C167 0.931 . S
H196 C185 0.930 . S
H197 C186 0.930 . S
H198 C187 0.930 . S
H199 C188 0.931 . S
Eu200 C209 2.828 . S
Eu200 O211 2.392 . S
Eu200 O213 2.418 . S
Eu200 O218 2.373 . S
Eu200 O221 2.488 . S
Eu200 O222 2.471 1_554 S
Eu200 O223 2.349 1_554 S
Eu201 O210 2.373 . S
Eu201 O214 2.488 . S
Eu201 O215 2.471 1_556 S
Eu201 O216 2.349 1_556 S
Eu201 O219 2.392 . S
Eu201 O220 2.418 . S
Eu201 C230 2.828 1_556 S
C202 O220 1.244 . S
C202 O223 1.265 . S
C203 C204 1.379 . S
C203 C207 1.373 1_556 S
C203 C209 1.505 1_556 S
C204 C203 1.379 . S
C204 C206 1.369 . S
C204 H232 0.930 . S
C205 C207 1.383 . S
C205 C208 1.382 1_554 S
C205 H233 0.930 . S
C206 C204 1.369 . S
C206 C208 1.392 . S
C206 H234 0.930 . S
C207 C203 1.373 1_554 S
C207 C205 1.383 . S
C207 H235 0.931 . S
C208 C205 1.382 1_556 S
C208 C206 1.392 . S
C209 Eu200 2.828 . S
C209 C203 1.505 1_554 S
C209 O221 1.249 . S
C209 O222 1.244 1_554 S
O210 Eu201 2.373 . S
O210 C212 1.258 1_556 S
O211 Eu200 2.392 . S
O211 C212 1.242 . S
C212 O210 1.258 1_554 S
C212 O211 1.242 . S
O213 Eu200 2.418 . S
O213 C217 1.244 . S
O214 Eu201 2.488 . S
O214 C230 1.249 1_556 S
O215 Eu201 2.471 1_554 S
O215 C230 1.244 . S
O216 Eu201 2.349 1_554 S
O216 C217 1.265 . S
C217 O213 1.244 . S
C217 O216 1.265 . S
O218 Eu200 2.373 . S
O218 C231 1.258 . S
O219 Eu201 2.392 . S
O219 C231 1.242 1_556 S
O220 Eu201 2.418 . S
O220 C202 1.244 . S
O221 Eu200 2.488 . S
O221 C209 1.249 . S
O222 Eu200 2.471 1_556 S
O222 C209 1.244 1_556 S
O223 Eu200 2.349 1_556 S
O223 C202 1.265 . S
C224 C225 1.379 . S
C224 C228 1.373 1_554 S
C224 C230 1.505 . S
C225 C224 1.379 . S
C225 C227 1.369 . S
C225 H236 0.930 . S
C226 C228 1.383 . S
C226 C229 1.382 1_556 S
C226 H237 0.930 . S
C227 C225 1.369 . S
C227 C229 1.392 . S
C227 H238 0.930 . S
C228 C224 1.373 1_556 S
C228 C226 1.383 . S
C228 H239 0.931 . S
C229 C226 1.382 1_554 S
C229 C227 1.392 . S
C230 Eu201 2.828 1_554 S
C230 O214 1.249 1_554 S
C230 O215 1.244 . S
C230 C224 1.505 . S
C231 O218 1.258 . S
C231 O219 1.242 1_554 S
H232 C204 0.930 . S
H233 C205 0.930 . S
H234 C206 0.930 . S
H235 C207 0.931 . S
H236 C225 0.930 . S
H237 C226 0.930 . S
H238 C227 0.930 . S
H239 C228 0.931 . S
Eu240 C249 2.828 . S
Eu240 O251 2.392 . S
Eu240 O253 2.418 . S
Eu240 O258 2.373 . S
Eu240 O261 2.488 . S
Eu240 O262 2.471 . S
Eu240 O263 2.349 . S
Eu241 O250 2.373 . S
Eu241 O254 2.488 . S
Eu241 O255 2.471 . S
Eu241 O256 2.349 . S
Eu241 O259 2.392 . S
Eu241 O260 2.418 . S
Eu241 C270 2.828 . S
C242 O260 1.244 . S
C242 O263 1.265 . S
C243 C244 1.379 . S
C243 C247 1.373 . S
C243 C249 1.505 . S
C244 C243 1.379 . S
C244 C246 1.369 . S
C244 H272 0.930 . S
C245 C247 1.383 . S
C245 C248 1.382 . S
C245 H273 0.930 . S
C246 C244 1.369 . S
C246 C248 1.392 . S
C246 H274 0.930 . S
C247 C243 1.373 . S
C247 C245 1.383 . S
C247 H275 0.931 . S
C248 C245 1.382 . S
C248 C246 1.392 . S
C249 Eu240 2.828 . S
C249 C243 1.505 . S
C249 O261 1.249 . S
C249 O262 1.244 . S
O250 Eu241 2.373 . S
O250 C252 1.258 . S
O251 Eu240 2.392 . S
O251 C252 1.242 . S
C252 O250 1.258 . S
C252 O251 1.242 . S
O253 Eu240 2.418 . S
O253 C257 1.244 . S
O254 Eu241 2.488 . S
O254 C270 1.249 . S
O255 Eu241 2.471 . S
O255 C270 1.244 . S
O256 Eu241 2.349 . S
O256 C257 1.265 . S
C257 O253 1.244 . S
C257 O256 1.265 . S
O258 Eu240 2.373 . S
O258 C271 1.258 . S
O259 Eu241 2.392 . S
O259 C271 1.242 . S
O260 Eu241 2.418 . S
O260 C242 1.244 . S
O261 Eu240 2.488 . S
O261 C249 1.249 . S
O262 Eu240 2.471 . S
O262 C249 1.244 . S
O263 Eu240 2.349 . S
O263 C242 1.265 . S
C264 C265 1.379 . S
C264 C268 1.373 . S
C264 C270 1.505 . S
C265 C264 1.379 . S
C265 C267 1.369 . S
C265 H276 0.930 . S
C266 C268 1.383 . S
C266 C269 1.382 . S
C266 H277 0.930 . S
C267 C265 1.369 . S
C267 C269 1.392 . S
C267 H278 0.930 . S
C268 C264 1.373 . S
C268 C266 1.383 . S
C268 H279 0.931 . S
C269 C266 1.382 . S
C269 C267 1.392 . S
C270 Eu241 2.828 . S
C270 O254 1.249 . S
C270 O255 1.244 . S
C270 C264 1.505 . S
C271 O258 1.258 . S
C271 O259 1.242 . S
H272 C244 0.930 . S
H273 C245 0.930 . S
H274 C246 0.930 . S
H275 C247 0.931 . S
H276 C265 0.930 . S
H277 C266 0.930 . S
H278 C267 0.930 . S
H279 C268 0.931 . S
Eu280 C289 2.828 . S
Eu280 O291 2.392 . S
Eu280 O293 2.418 . S
Eu280 O298 2.373 . S
Eu280 O301 2.488 . S
Eu280 O302 2.471 . S
Eu280 O303 2.349 . S
Eu281 O290 2.373 . S
Eu281 O294 2.488 . S
Eu281 O295 2.471 . S
Eu281 O296 2.349 . S
Eu281 O299 2.392 . S
Eu281 O300 2.418 . S
Eu281 C310 2.828 . S
C282 O300 1.244 . S
C282 O303 1.265 . S
C283 C284 1.379 . S
C283 C287 1.373 . S
C283 C289 1.505 . S
C284 C283 1.379 . S
C284 C286 1.369 . S
C284 H312 0.930 . S
C285 C287 1.383 . S
C285 C288 1.382 . S
C285 H313 0.930 . S
C286 C284 1.369 . S
C286 C288 1.392 . S
C286 H314 0.930 . S
C287 C283 1.373 . S
C287 C285 1.383 . S
C287 H315 0.931 . S
C288 C285 1.382 . S
C288 C286 1.392 . S
C289 Eu280 2.828 . S
C289 C283 1.505 . S
C289 O301 1.249 . S
C289 O302 1.244 . S
O290 Eu281 2.373 . S
O290 C292 1.258 . S
O291 Eu280 2.392 . S
O291 C292 1.242 . S
C292 O290 1.258 . S
C292 O291 1.242 . S
O293 Eu280 2.418 . S
O293 C297 1.244 . S
O294 Eu281 2.488 . S
O294 C310 1.249 . S
O295 Eu281 2.471 . S
O295 C310 1.244 . S
O296 Eu281 2.349 . S
O296 C297 1.265 . S
C297 O293 1.244 . S
C297 O296 1.265 . S
O298 Eu280 2.373 . S
O298 C311 1.258 . S
O299 Eu281 2.392 . S
O299 C311 1.242 . S
O300 Eu281 2.418 . S
O300 C282 1.244 . S
O301 Eu280 2.488 . S
O301 C289 1.249 . S
O302 Eu280 2.471 . S
O302 C289 1.244 . S
O303 Eu280 2.349 . S
O303 C282 1.265 . S
C304 C305 1.379 . S
C304 C308 1.373 . S
C304 C310 1.505 . S
C305 C304 1.379 . S
C305 C307 1.369 . S
C305 H316 0.930 . S
C306 C308 1.383 . S
C306 C309 1.382 . S
C306 H317 0.930 . S
C307 C305 1.369 . S
C307 C309 1.392 . S
C307 H318 0.930 . S
C308 C304 1.373 . S
C308 C306 1.383 . S
C308 H319 0.931 . S
C309 C306 1.382 . S
C309 C307 1.392 . S
C310 Eu281 2.828 . S
C310 O294 1.249 . S
C310 O295 1.244 . S
C310 C304 1.505 . S
C311 O298 1.258 . S
C311 O299 1.242 . S
H312 C284 0.930 . S
H313 C285 0.930 . S
H314 C286 0.930 . S
H315 C287 0.931 . S
H316 C305 0.930 . S
H317 C306 0.930 . S
H318 C307 0.930 . S
H319 C308 0.931 . S
C320 C321 1.369 . S
C320 C322 1.419 . S
C320 H324 0.930 . S
C321 C320 1.369 . S
C321 C330 1.429 1_554 S
C322 C320 1.419 . S
C322 C323 1.363 . S
C322 H325 0.929 . S
C323 C322 1.363 . S
C323 C329 1.428 1_554 S
H324 C320 0.930 . S
H325 C322 0.929 . S
S326 N327 1.613 . S
S326 N328 1.610 . S
N327 S326 1.613 . S
N327 C330 1.350 . S
N328 S326 1.610 . S
N328 C329 1.351 . S
C329 C323 1.428 1_556 S
C329 N328 1.351 . S
C329 C330 1.434 . S
C330 C321 1.429 1_556 S
C330 N327 1.350 . S
C330 C329 1.434 . S
C331 C332 1.369 1_556 S
C331 C333 1.419 . S
C331 H335 0.930 . S
C332 C331 1.369 1_554 S
C332 C341 1.429 . S
C333 C331 1.419 . S
C333 C334 1.363 1_556 S
C333 H336 0.929 . S
C334 C333 1.363 1_554 S
C334 C340 1.428 . S
H335 C331 0.930 . S
H336 C333 0.929 . S
S337 N338 1.613 . S
S337 N339 1.610 . S
N338 S337 1.613 . S
N338 C341 1.350 . S
N339 S337 1.610 . S
N339 C340 1.351 . S
C340 C334 1.428 . S
C340 N339 1.351 . S
C340 C341 1.434 . S
C341 C332 1.429 . S
C341 N338 1.350 . S
C341 C340 1.434 . S
C342 C343 1.369 . S
C342 C344 1.419 . S
C342 H346 0.930 . S
C343 C342 1.369 . S
C343 C352 1.429 . S
C344 C342 1.419 . S
C344 C345 1.363 . S
C344 H347 0.929 . S
C345 C344 1.363 . S
C345 C351 1.428 . S
H346 C342 0.930 . S
H347 C344 0.929 . S
S348 N349 1.613 . S
S348 N350 1.610 . S
N349 S348 1.613 . S
N349 C352 1.350 . S
N350 S348 1.610 . S
N350 C351 1.351 . S
C351 C345 1.428 . S
C351 N350 1.351 . S
C351 C352 1.434 . S
C352 C343 1.429 . S
C352 N349 1.350 . S
C352 C351 1.434 . S
C353 C354 1.369 . S
C353 C355 1.419 . S
C353 H357 0.930 . S
C354 C353 1.369 . S
C354 C363 1.429 . S
C355 C353 1.419 . S
C355 C356 1.363 . S
C355 H358 0.929 . S
C356 C355 1.363 . S
C356 C362 1.428 . S
H357 C353 0.930 . S
H358 C355 0.929 . S
S359 N360 1.613 . S
S359 N361 1.610 . S
N360 S359 1.613 . S
N360 C363 1.350 . S
N361 S359 1.610 . S
N361 C362 1.351 . S
C362 C356 1.428 . S
C362 N361 1.351 . S
C362 C363 1.434 . S
C363 C354 1.429 . S
C363 N360 1.350 . S
C363 C362 1.434 . S
C364 C365 1.369 . S
C364 C366 1.419 1_655 S
C364 H368 0.930 . S
C365 C364 1.369 . S
C365 C374 1.429 1_655 S
C366 C364 1.419 1_455 S
C366 C367 1.363 . S
C366 H369 0.929 . S
C367 C366 1.363 . S
C367 C373 1.428 . S
H368 C364 0.930 . S
H369 C366 0.929 . S
S370 N371 1.615 . S
S370 N372 1.609 1_554 S
N371 S370 1.615 . S
N371 C374 1.350 . S
N372 S370 1.609 1_556 S
N372 C373 1.350 1_556 S
C373 C367 1.428 . S
C373 N372 1.350 1_554 S
C373 C374 1.434 . S
C374 C365 1.429 1_455 S
C374 N371 1.350 . S
C374 C373 1.434 . S
C375 C376 1.369 1_556 S
C375 C377 1.419 1_456 S
C375 H379 0.930 . S
C376 C375 1.369 1_554 S
C376 C385 1.429 1_455 S
C377 C375 1.419 1_654 S
C377 C378 1.363 . S
C377 H380 0.929 1_554 S
C378 C377 1.363 . S
C378 C384 1.428 . S
H379 C375 0.930 . S
H380 C377 0.929 1_556 S
S381 N382 1.613 . S
S381 N383 1.610 . S
N382 S381 1.613 . S
N382 C385 1.350 . S
N383 S381 1.610 . S
N383 C384 1.351 . S
C384 C378 1.428 . S
C384 N383 1.351 . S
C384 C385 1.434 . S
C385 C376 1.429 1_655 S
C385 N382 1.350 . S
C385 C384 1.434 . S
C386 C387 1.369 . S
C386 C388 1.419 . S
C386 H390 0.930 . S
C387 C386 1.369 . S
C387 C396 1.429 . S
C388 C386 1.419 . S
C388 C389 1.363 1_455 S
C388 H391 0.929 1_455 S
C389 C388 1.363 1_655 S
C389 C395 1.428 1_655 S
H390 C386 0.930 . S
H391 C388 0.929 1_655 S
S392 N393 1.613 . S
S392 N394 1.610 1_455 S
N393 S392 1.613 . S
N393 C396 1.350 . S
N394 S392 1.610 1_655 S
N394 C395 1.351 1_655 S
C395 C389 1.428 1_455 S
C395 N394 1.351 1_455 S
C395 C396 1.434 . S
C396 C387 1.429 . S
C396 N393 1.350 . S
C396 C395 1.434 . S
C397 C398 1.369 . S
C397 C399 1.419 . S
C397 H401 0.930 . S
C398 C397 1.369 . S
C398 C407 1.429 . S
C399 C397 1.419 . S
C399 C400 1.363 1_655 S
C399 H402 0.929 1_655 S
C400 C399 1.363 1_455 S
C400 C406 1.428 . S
H401 C397 0.930 . S
H402 C399 0.929 1_455 S
S403 N404 1.613 . S
S403 N405 1.610 1_655 S
N404 S403 1.613 . S
N404 C407 1.350 . S
N405 S403 1.610 1_455 S
N405 C406 1.351 . S
C406 C400 1.428 . S
C406 N405 1.351 . S
C406 C407 1.434 1_455 S
C407 C398 1.429 . S
C407 N404 1.350 . S
C407 C406 1.434 1_655 S
C408 C409 1.369 1_654 S
C408 C410 1.419 . S
C408 H412 0.930 . S
C409 C408 1.369 1_456 S
C409 C418 1.429 . S
C410 C408 1.419 . S
C410 C411 1.363 . S
C410 H413 0.929 . S
C411 C410 1.363 . S
C411 C417 1.426 1_654 S
H412 C408 0.930 . S
H413 C410 0.929 . S
S414 N415 1.613 . S
S414 N416 1.610 . S
N415 S414 1.613 . S
N415 C418 1.350 . S
N416 S414 1.610 . S
N416 C417 1.353 . S
C417 C411 1.426 1_456 S
C417 N416 1.353 . S
C417 C418 1.435 . S
C418 C409 1.429 . S
C418 N415 1.350 . S
C418 C417 1.435 . S
C419 C420 1.369 1_655 S
C419 C421 1.419 . S
C419 H423 0.930 . S
C420 C419 1.369 1_455 S
C420 C429 1.429 . S
C421 C419 1.419 . S
C421 C422 1.363 . S
C421 H424 0.929 . S
C422 C421 1.363 . S
C422 C428 1.428 1_655 S
H423 C419 0.930 . S
H424 C421 0.929 . S
S425 N426 1.613 . S
S425 N427 1.610 . S
N426 S425 1.613 . S
N426 C429 1.350 . S
N427 S425 1.610 . S
N427 C428 1.351 . S
C428 C422 1.428 1_455 S
C428 N427 1.351 . S
C428 C429 1.434 . S
C429 C420 1.429 . S
C429 N426 1.350 . S
C429 C428 1.434 . S
C430 C431 1.309 1_546 S
C430 C432 1.473 . S
C430 H434 0.941 . S
C431 C430 1.309 1_564 S
C431 C440 1.429 . S
C432 C430 1.473 . S
C432 C433 1.363 . S
C432 H435 0.929 . S
C433 C432 1.363 . S
C433 C439 1.428 1_546 S
H434 C430 0.941 . S
H435 C432 0.929 . S
S436 N437 1.613 . S
S436 N438 1.610 . S
N437 S436 1.613 . S
N437 C440 1.350 . S
N438 S436 1.610 . S
N438 C439 1.351 . S
C439 C433 1.428 1_564 S
C439 N438 1.351 . S
C439 C440 1.434 . S
C440 C431 1.429 . S
C440 N437 1.350 . S
C440 C439 1.434 . S
C441 C442 1.346 1_565 S
C441 C443 1.440 . S
C441 H445 0.933 . S
C442 C441 1.346 1_545 S
C442 C451 1.429 . S
C443 C441 1.440 . S
C443 C444 1.363 . S
C443 H446 0.929 . S
C444 C443 1.363 . S
C444 C450 1.381 1_565 S
H445 C441 0.933 . S
H446 C443 0.929 . S
S447 N448 1.613 . S
S447 N449 1.610 . S
N448 S447 1.613 . S
N448 C451 1.350 . S
N449 S447 1.610 . S
N449 C450 1.361 . S
C450 C444 1.381 1_545 S
C450 N449 1.361 . S
C450 C451 1.479 . S
C451 C442 1.429 . S
C451 N448 1.350 . S
C451 C450 1.479 . S
C452 C453 1.369 . S
C452 C454 1.419 . S
C452 H456 0.930 . S
C453 C452 1.369 . S
C453 C462 1.429 1_556 S
C454 C452 1.419 . S
C454 C455 1.363 1_556 S
C454 H457 0.929 . S
C455 C454 1.363 1_554 S
C455 C461 1.428 . S
H456 C452 0.930 . S
H457 C454 0.929 . S
S458 N459 1.613 . S
S458 N460 1.610 . S
N459 S458 1.613 . S
N459 C462 1.350 . S
N460 S458 1.610 . S
N460 C461 1.351 . S
C461 C455 1.428 . S
C461 N460 1.351 . S
C461 C462 1.434 . S
C462 C453 1.429 1_554 S
C462 N459 1.350 . S
C462 C461 1.434 . S
C463 C464 1.369 . S
C463 C465 1.419 1_556 S
C463 H467 0.930 . S
C464 C463 1.369 . S
C464 C473 1.429 1_556 S
C465 C463 1.419 1_554 S
C465 C466 1.363 . S
C465 H468 0.929 . S
C466 C465 1.363 . S
C466 C472 1.428 . S
H467 C463 0.930 . S
H468 C465 0.929 . S
S469 N470 1.613 1_455 S
S469 N471 1.610 1_455 S
N470 S469 1.613 1_655 S
N470 C473 1.350 . S
N471 S469 1.610 1_655 S
N471 C472 1.351 . S
C472 C466 1.428 . S
C472 N471 1.351 . S
C472 C473 1.434 . S
C473 C464 1.429 1_554 S
C473 N470 1.350 . S
C473 C472 1.434 . S
C474 C475 1.369 . S
C474 C476 1.419 . S
C474 H478 0.930 . S
C475 C474 1.369 . S
C475 C484 1.429 . S
C476 C474 1.419 . S
C476 C477 1.363 . S
C476 H479 0.929 . S
C477 C476 1.363 . S
C477 C483 1.428 . S
H478 C474 0.930 . S
H479 C476 0.929 . S
S480 N481 1.613 . S
S480 N482 1.610 . S
N481 S480 1.613 . S
N481 C484 1.350 . S
N482 S480 1.610 . S
N482 C483 1.351 . S
C483 C477 1.428 . S
C483 N482 1.351 . S
C483 C484 1.434 . S
C484 C475 1.429 . S
C484 N481 1.350 . S
C484 C483 1.434 . S
C485 C486 1.369 . S
C485 C487 1.419 . S
C485 H489 0.930 . S
C486 C485 1.369 . S
C486 C495 1.429 . S
C487 C485 1.419 . S
C487 C488 1.363 . S
C487 H490 0.929 . S
C488 C487 1.363 . S
C488 C494 1.428 . S
H489 C485 0.930 . S
H490 C487 0.929 . S
S491 N492 1.613 . S
S491 N493 1.610 . S
N492 S491 1.613 . S
N492 C495 1.350 . S
N493 S491 1.610 . S
N493 C494 1.351 . S
C494 C488 1.428 . S
C494 N493 1.351 . S
C494 C495 1.434 . S
C495 C486 1.429 . S
C495 N492 1.350 . S
C495 C494 1.434 . S
C496 C497 1.369 1_655 S
C496 C498 1.419 . S
C496 H500 0.930 . S
C497 C496 1.369 1_455 S
C497 C506 1.429 . S
C498 C496 1.419 . S
C498 C499 1.363 . S
C498 H501 0.929 . S
C499 C498 1.363 . S
C499 C505 1.428 1_655 S
H500 C496 0.930 . S
H501 C498 0.929 . S
S502 N503 1.613 . S
S502 N504 1.610 . S
N503 S502 1.613 . S
N503 C506 1.350 . S
N504 S502 1.610 . S
N504 C505 1.351 . S
C505 C499 1.428 1_455 S
C505 N504 1.351 . S
C505 C506 1.434 . S
C506 C497 1.429 . S
C506 N503 1.350 . S
C506 C505 1.434 . S
C507 C508 1.369 1_455 S
C507 C509 1.419 . S
C507 H511 0.930 . S
C508 C507 1.369 1_655 S
C508 C517 1.429 . S
C509 C507 1.419 . S
C509 C510 1.363 . S
C509 H512 0.929 . S
C510 C509 1.363 . S
C510 C516 1.428 1_455 S
H511 C507 0.930 . S
H512 C509 0.929 . S
S513 N514 1.613 . S
S513 N515 1.610 . S
N514 S513 1.613 . S
N514 C517 1.350 . S
N515 S513 1.610 . S
N515 C516 1.351 . S
C516 C510 1.428 1_655 S
C516 N515 1.351 . S
C516 C517 1.434 . S
C517 C508 1.429 . S
C517 N514 1.350 . S
C517 C516 1.434 . S
C518 C519 1.369 1_455 S
C518 C520 1.419 . S
C518 H522 0.930 . S
C519 C518 1.369 1_655 S
C519 C528 1.429 . S
C520 C518 1.419 . S
C520 C521 1.363 . S
C520 H523 0.929 . S
C521 C520 1.363 . S
C521 C527 1.428 1_455 S
H522 C518 0.930 . S
H523 C520 0.929 . S
S524 N525 1.613 . S
S524 N526 1.610 . S
N525 S524 1.613 . S
N525 C528 1.350 . S
N526 S524 1.610 . S
N526 C527 1.351 . S
C527 C521 1.428 1_655 S
C527 N526 1.351 . S
C527 C528 1.434 . S
C528 C519 1.429 . S
C528 N525 1.350 . S
C528 C527 1.434 . S
C529 C530 1.369 1_455 S
C529 C531 1.419 . S
C529 H533 0.930 . S
C530 C529 1.369 1_655 S
C530 C539 1.429 . S
C531 C529 1.419 . S
C531 C532 1.363 . S
C531 H534 0.929 . S
C532 C531 1.363 . S
C532 C538 1.428 1_455 S
H533 C529 0.930 . S
H534 C531 0.929 . S
S535 N536 1.613 . S
S535 N537 1.610 . S
N536 S535 1.613 . S
N536 C539 1.350 . S
N537 S535 1.610 . S
N537 C538 1.351 . S
C538 C532 1.428 1_655 S
C538 N537 1.351 . S
C538 C539 1.434 . S
C539 C530 1.429 . S
C539 N536 1.350 . S
C539 C538 1.434 . S
C540 C541 1.369 . S
C540 C542 1.419 . S
C540 H544 0.930 . S
C541 C540 1.369 . S
C541 C550 1.429 . S
C542 C540 1.419 . S
C542 C543 1.363 . S
C542 H545 0.929 . S
C543 C542 1.363 . S
C543 C549 1.428 . S
H544 C540 0.930 . S
H545 C542 0.929 . S
S546 N547 1.613 . S
S546 N548 1.610 . S
N547 S546 1.613 . S
N547 C550 1.350 . S
N548 S546 1.610 . S
N548 C549 1.351 . S
C549 C543 1.428 . S
C549 N548 1.351 . S
C549 C550 1.434 . S
C550 C541 1.429 . S
C550 N547 1.350 . S
C550 C549 1.434 . S
C551 C552 1.369 . S
C551 C553 1.419 . S
C551 H555 0.930 . S
C552 C551 1.369 . S
C552 C561 1.429 . S
C553 C551 1.419 . S
C553 C554 1.363 . S
C553 H556 0.929 . S
C554 C553 1.363 . S
C554 C560 1.428 . S
H555 C551 0.930 . S
H556 C553 0.929 . S
S557 N558 1.613 . S
S557 N559 1.610 . S
N558 S557 1.613 . S
N558 C561 1.350 . S
N559 S557 1.610 . S
N559 C560 1.351 . S
C560 C554 1.428 . S
C560 N559 1.351 . S
C560 C561 1.434 . S
C561 C552 1.429 . S
C561 N558 1.350 . S
C561 C560 1.434 . S
C562 C563 1.369 . S
C562 C564 1.419 . S
C562 H566 0.930 . S
C563 C562 1.369 . S
C563 C572 1.429 . S
C564 C562 1.419 . S
C564 C565 1.363 . S
C564 H567 0.929 . S
C565 C564 1.363 . S
C565 C571 1.428 . S
H566 C562 0.930 . S
H567 C564 0.929 . S
S568 N569 1.613 . S
S568 N570 1.610 . S
N569 S568 1.613 . S
N569 C572 1.350 . S
N570 S568 1.610 . S
N570 C571 1.351 . S
C571 C565 1.428 . S
C571 N570 1.351 . S
C571 C572 1.434 . S
C572 C563 1.429 . S
C572 N569 1.350 . S
C572 C571 1.434 . S
C573 C574 1.369 . S
C573 C575 1.419 . S
C573 H577 0.930 . S
C574 C573 1.369 . S
C574 C583 1.429 . S
C575 C573 1.419 . S
C575 C576 1.363 . S
C575 H578 0.929 . S
C576 C575 1.363 . S
C576 C582 1.428 . S
H577 C573 0.930 . S
H578 C575 0.929 . S
S579 N580 1.613 . S
S579 N581 1.610 . S
N580 S579 1.613 . S
N580 C583 1.350 . S
N581 S579 1.610 . S
N581 C582 1.351 . S
C582 C576 1.428 . S
C582 N581 1.351 . S
C582 C583 1.434 . S
C583 C574 1.429 . S
C583 N580 1.350 . S
C583 C582 1.434 . S
C321 C31 2.261 . S
C323 C12 2.266 . S
C332 C71 2.263 . S
C334 C52 2.265 . S
C343 C111 2.265 . S
C345 C92 2.263 . S
C354 C151 2.263 . S
C356 C132 2.265 . S
C365 C191 2.267 . S
C367 C172 2.262 . S
C376 C212 2.266 . S
C378 C231 2.262 . S
C387 C271 2.262 . S
C389 C252 2.265 . S
C398 C292 2.264 . S
C400 C311 2.264 . S
C409 C48 2.810 . S
C411 C29 2.803 . S
C420 C149 2.811 . S
C422 C88 2.803 . S
C431 C189 2.804 . S
C433 C208 2.808 . S
C442 C248 2.805 . S
C444 C309 2.808 . S
C453 C8 1.989 . S
C455 C229 1.984 . S
C464 C168 1.992 . S
C466 C69 1.982 . S
C475 C109 1.985 . S
C477 C288 1.986 . S
C486 C128 1.989 . S
C488 C269 1.983 . S
C497 C17 1.592 . S
C499 C137 1.587 . S
C508 C57 1.518 . S
C510 C97 1.517 . S
C519 C42 1.591 . S
C521 C82 1.590 . S
C530 C122 1.510 . S
C532 C2 1.511 . S
C541 C177 1.582 . S
C543 C297 1.587 . S
C552 C217 1.511 . S
C554 C257 1.510 . S
C563 C202 1.583 . S
C565 C242 1.586 . S
C574 C282 1.509 . S
C576 C162 1.511 . S
