# Generated by pormake.
# Topology msp, (4)-cn, num edge types: 1
# Building blocks:
#     Node 0, Type 0, BuildingBlock: GALJAG_clean_sbu_0, # of connection points: 4
#     Node 1, Type 0, BuildingBlock: GALJAG_clean_sbu_0, # of connection points: 4
#     Node 2, Type 0, BuildingBlock: GALJAG_clean_sbu_0, # of connection points: 4
#     Node 3, Type 0, BuildingBlock: GALJAG_clean_sbu_0, # of connection points: 4
#     Node 4, Type 0, BuildingBlock: GALJAG_clean_sbu_0, # of connection points: 4
#     Node 5, Type 0, BuildingBlock: GALJAG_clean_sbu_0, # of connection points: 4
#     Node 6, Type 0, BuildingBlock: GALJAG_clean_sbu_0, # of connection points: 4
#     Node 7, Type 0, BuildingBlock: GALJAG_clean_sbu_0, # of connection points: 4
#     Edge 8, Type (0, 0), BuildingBlock: CIFDUS_clean_linker_0, # of connection points: 2
#     Edge 9, Type (0, 0), BuildingBlock: CIFDUS_clean_linker_0, # of connection points: 2
#     Edge 10, Type (0, 0), BuildingBlock: CIFDUS_clean_linker_0, # of connection points: 2
#     Edge 11, Type (0, 0), BuildingBlock: CIFDUS_clean_linker_0, # of connection points: 2
#     Edge 12, Type (0, 0), BuildingBlock: CIFDUS_clean_linker_0, # of connection points: 2
#     Edge 13, Type (0, 0), BuildingBlock: CIFDUS_clean_linker_0, # of connection points: 2
#     Edge 14, Type (0, 0), BuildingBlock: CIFDUS_clean_linker_0, # of connection points: 2
#     Edge 15, Type (0, 0), BuildingBlock: CIFDUS_clean_linker_0, # of connection points: 2
#     Edge 16, Type (0, 0), BuildingBlock: CIFDUS_clean_linker_0, # of connection points: 2
#     Edge 17, Type (0, 0), BuildingBlock: CIFDUS_clean_linker_0, # of connection points: 2
#     Edge 18, Type (0, 0), BuildingBlock: CIFDUS_clean_linker_0, # of connection points: 2
#     Edge 19, Type (0, 0), BuildingBlock: CIFDUS_clean_linker_0, # of connection points: 2
#     Edge 20, Type (0, 0), BuildingBlock: CIFDUS_clean_linker_0, # of connection points: 2
#     Edge 21, Type (0, 0), BuildingBlock: CIFDUS_clean_linker_0, # of connection points: 2
#     Edge 22, Type (0, 0), BuildingBlock: CIFDUS_clean_linker_0, # of connection points: 2
#     Edge 23, Type (0, 0), BuildingBlock: CIFDUS_clean_linker_0, # of connection points: 2
# Relax obj value: 0.108
# Max RMSD: 0.183
# Mean RMSD: 0.183
data_MOF--net-msp--node1-GALJAG_clean_sbu_0--edge1-CIFDUS_clean_linker_0
_symmetry_space_group_name_H-M    P1
_symmetry_Int_Tables_number       1
_symmetry_cell_setting            triclinic
loop_
_symmetry_equiv_pos_as_xyz
'x, y, z'
_cell_length_a     19.043361
_cell_length_b     18.629871
_cell_length_c     38.271725
_cell_angle_alpha  90.140161
_cell_angle_beta   99.648278
_cell_angle_gamma 89.911169
loop_
_atom_site_label
_atom_site_type_symbol
_atom_site_fract_x
_atom_site_fract_y
_atom_site_fract_z
_atom_type_partial_charge
In0 In 0.03458 0.27271 0.37285 0.0
O1 O 0.94088 0.20479 0.34602 0.0
O2 O 0.9421 0.31564 0.33317 0.0
C3 C 0.10586 0.17712 0.41839 0.0
C4 C 0.12124 0.28046 0.32435 0.0
C5 C 0.01619 0.37687 0.42012 0.0
O6 O 0.03863 0.18006 0.41275 0.0
O7 O 0.13581 0.22094 0.4007 0.0
O8 O 0.05658 0.38462 0.39737 0.0
O9 O 0.98423 0.31745 0.41849 0.0
C10 C 0.9108 0.25609 0.32781 0.0
O11 O 0.1105 0.33358 0.34348 0.0
O12 O 0.0877 0.2241 0.32956 0.0
In13 In 0.4679 0.26653 0.62354 0.0
O14 O 0.56081 0.1978 0.65062 0.0
O15 O 0.56025 0.30869 0.66361 0.0
C16 C 0.39847 0.17143 0.57689 0.0
C17 C 0.37989 0.27446 0.67131 0.0
C18 C 0.48451 0.37233 0.5772 0.0
O19 O 0.46552 0.17682 0.58197 0.0
O20 O 0.36785 0.21225 0.59585 0.0
O21 O 0.44434 0.3788 0.60014 0.0
O22 O 0.51745 0.31342 0.57827 0.0
C23 C 0.59092 0.24882 0.66908 0.0
O24 O 0.39099 0.32756 0.6524 0.0
O25 O 0.41369 0.21804 0.66619 0.0
In26 In 0.93886 0.72695 0.63127 0.0
O27 O 0.86344 0.68397 0.66658 0.0
O28 O 0.90847 0.78857 0.67716 0.0
C29 C 0.94853 0.62513 0.58209 0.0
C30 C 0.06741 0.72257 0.67256 0.0
C31 C 0.85796 0.81978 0.58848 0.0
O32 O 0.91221 0.616 0.60661 0.0
O33 O 0.98017 0.6848 0.5829 0.0
O34 O 0.92542 0.82362 0.59321 0.0
O35 O 0.83329 0.77052 0.60537 0.0
C36 C 0.86775 0.74036 0.68552 0.0
O37 O 0.04439 0.77916 0.6561 0.0
O38 O 0.02691 0.66877 0.66676 0.0
In39 In 0.54599 0.72639 0.36622 0.0
O40 O 0.44054 0.7795 0.34194 0.0
O41 O 0.45695 0.66897 0.33088 0.0
C42 C 0.62654 0.8195 0.40919 0.0
C43 C 0.61606 0.73971 0.31171 0.0
C44 C 0.53918 0.62335 0.41482 0.0
O45 O 0.55907 0.82212 0.40506 0.0
O46 O 0.6514 0.77137 0.39156 0.0
O47 O 0.57455 0.61521 0.38983 0.0
O48 O 0.5068 0.68259 0.41469 0.0
C49 C 0.41694 0.72324 0.3253 0.0
O50 O 0.62075 0.68329 0.33049 0.0
O51 O 0.57556 0.788 0.32039 0.0
In52 In 0.51975 0.76804 0.87519 0.0
O53 O 0.60047 0.81077 0.84253 0.0
O54 O 0.5581 0.70484 0.83219 0.0
C55 C 0.49533 0.86364 0.92464 0.0
C56 C 0.3978 0.77307 0.82881 0.0
C57 C 0.59709 0.67747 0.92046 0.0
O58 O 0.53862 0.87685 0.90361 0.0
O59 O 0.4643 0.80366 0.91993 0.0
O60 O 0.53024 0.66941 0.9118 0.0
O61 O 0.62305 0.72979 0.90613 0.0
C62 C 0.59945 0.7532 0.82453 0.0
O63 O 0.41756 0.71657 0.84623 0.0
O64 O 0.43819 0.82673 0.83601 0.0
In65 In 0.96495 0.7756 0.12312 0.0
O66 O 0.06852 0.72374 0.15068 0.0
O67 O 0.04837 0.83326 0.16207 0.0
C68 C 0.89643 0.68186 0.07589 0.0
C69 C 0.88478 0.75651 0.17334 0.0
C70 C 0.97579 0.88232 0.07688 0.0
O71 O 0.96389 0.68322 0.0829 0.0
O72 O 0.86542 0.72628 0.09298 0.0
O73 O 0.93574 0.88738 0.10009 0.0
O74 O 0.01066 0.82448 0.07771 0.0
C75 C 0.0889 0.77957 0.16849 0.0
O76 O 0.88189 0.81402 0.15545 0.0
O77 O 0.92831 0.70997 0.1659 0.0
In78 In 0.45209 0.248 0.12787 0.0
O79 O 0.38399 0.18096 0.15935 0.0
O80 O 0.40415 0.29086 0.17368 0.0
C81 C 0.47829 0.15558 0.07684 0.0
C82 C 0.57691 0.26614 0.17146 0.0
C83 C 0.36567 0.34031 0.08714 0.0
O84 O 0.43712 0.13995 0.09841 0.0
O85 O 0.50674 0.21665 0.08156 0.0
O86 O 0.43262 0.34779 0.09207 0.0
O87 O 0.34381 0.28748 0.10268 0.0
C88 C 0.37388 0.23281 0.17948 0.0
O89 O 0.5454 0.3175 0.15372 0.0
O90 O 0.54644 0.20606 0.1662 0.0
In91 In 0.05047 0.23904 0.86814 0.0
O92 O 0.12019 0.17461 0.8365 0.0
O93 O 0.09554 0.28329 0.82162 0.0
C94 C 0.03758 0.13666 0.91682 0.0
C95 C 0.92282 0.25643 0.82647 0.0
C96 C 0.1308 0.33544 0.90978 0.0
O97 O 0.07514 0.12822 0.89288 0.0
O98 O 0.00571 0.19619 0.91585 0.0
O99 O 0.06394 0.33312 0.90784 0.0
O100 O 0.15573 0.29036 0.89062 0.0
C101 C 0.12776 0.22618 0.81596 0.0
O102 O 0.95493 0.30778 0.84392 0.0
O103 O 0.9539 0.19662 0.83121 0.0
H104 H 0.93847 0.36742 0.47345 0.0
H105 H 0.07807 0.5092 0.42825 0.0
H106 H 0.06929 0.59824 0.47433 0.0
H107 H 0.02315 0.63531 0.52779 0.0
H108 H 0.88418 0.49359 0.57342 0.0
H109 H 0.89159 0.40498 0.52686 0.0
C110 C 0.96675 0.41793 0.4736 0.0
C111 C 0.0088 0.43169 0.44739 0.0
C112 C 0.96178 0.46875 0.50032 0.0
C113 C 0.04528 0.4973 0.44805 0.0
C114 C 0.04037 0.54821 0.47444 0.0
C115 C 0.99449 0.58501 0.52759 0.0
C116 C 0.95329 0.57102 0.55412 0.0
C117 C -0.00098 0.53439 0.50077 0.0
C118 C 0.91641 0.50563 0.55339 0.0
C119 C 0.92057 0.45498 0.52675 0.0
H120 H 0.46865 0.63229 0.47065 0.0
H121 H 0.60454 0.49209 0.42164 0.0
H122 H 0.60117 0.40283 0.46813 0.0
H123 H 0.55863 0.36428 0.52244 0.0
H124 H 0.42199 0.50452 0.57098 0.0
H125 H 0.42694 0.59429 0.525 0.0
C126 C 0.49749 0.58216 0.47009 0.0
C127 C 0.53664 0.56876 0.44265 0.0
C128 C 0.49534 0.53122 0.49689 0.0
C129 C 0.57385 0.50364 0.4424 0.0
C130 C 0.57202 0.45263 0.46901 0.0
C131 C 0.53023 0.41465 0.52305 0.0
C132 C 0.49009 0.42776 0.55014 0.0
C133 C 0.5329 0.46583 0.49637 0.0
C134 C 0.45334 0.49314 0.55047 0.0
C135 C 0.45604 0.54445 0.52415 0.0
H136 H 0.41103 0.0301 0.05566 0.0
H137 H 0.57336 0.17441 0.03177 0.0
H138 H 0.59247 0.09813 0.98221 0.0
H139 H 0.56297 0.98994 0.94536 0.0
H140 H 0.39989 0.84649 0.96935 0.0
H141 H 0.38099 0.92286 0.01872 0.0
C142 C 0.45076 0.04466 0.03969 0.0
C143 C 0.49081 0.1077 0.0475 0.0
C144 C 0.46114 1.00082 0.01101 0.0
C145 C 0.5418 0.12608 0.02638 0.0
C146 C 0.55274 0.08254 0.99796 0.0
C147 C 0.52312 0.97566 0.96132 0.0
C148 C 0.48294 0.91261 0.9536 0.0
C149 C 0.5126 0.01981 0.98993 0.0
C150 C 0.43164 0.89471 0.97464 0.0
C151 C 0.4208 0.93831 0.00299 0.0
H152 H 0.05244 0.87692 0.02337 0.0
H153 H 0.90901 0.01307 0.06968 0.0
H154 H 0.91513 0.1038 0.0241 0.0
H155 H 0.96101 0.14399 0.97082 0.0
H156 H 0.10374 0.00655 0.92467 0.0
H157 H 0.09795 0.91669 0.97044 0.0
C158 C 0.02263 0.92654 0.02359 0.0
C159 C 0.98043 0.9383 0.04994 0.0
C160 C 0.02611 0.97811 0.99725 0.0
C161 C 0.94197 1.00276 0.04974 0.0
C162 C 0.94539 0.05459 0.02365 0.0
C163 C 0.99072 0.0943 0.97076 0.0
C164 C 0.03266 0.08194 0.94431 0.0
C165 C 0.98718 0.04276 0.99722 0.0
C166 C 0.07095 0.01735 0.94464 0.0
C167 C 0.06775 0.96596 0.97084 0.0
H168 H 0.64325 0.16583 0.21631 0.0
H169 H 0.6551 0.38846 0.18695 0.0
H170 H 0.75886 0.40525 0.23343 0.0
H171 H 0.8453 0.3567 0.2826 0.0
H172 H 0.8328 0.13411 0.31197 0.0
H173 H 0.72948 0.11736 0.26535 0.0
C174 C 0.66876 0.21796 0.21994 0.0
C175 C 0.64175 0.27579 0.19818 0.0
C176 C 0.72778 0.2273 0.24684 0.0
C177 C 0.67508 0.34308 0.20332 0.0
C178 C 0.73421 0.35273 0.22993 0.0
C179 C 0.81975 0.3046 0.27891 0.0
C180 C 0.84645 0.24674 0.30075 0.0
C181 C 0.76075 0.29529 0.25194 0.0
C182 C 0.81307 0.1795 0.29556 0.0
C183 C 0.75417 0.16985 0.26886 0.0
H184 H 0.65552 0.3486 0.71519 0.0
H185 H 0.66777 0.12609 0.68507 0.0
H186 H 0.76982 0.10832 0.73228 0.0
H187 H 0.85566 0.15615 0.78172 0.0
H188 H 0.84424 0.37879 0.81172 0.0
H189 H 0.74092 0.39624 0.76509 0.0
C190 C 0.68074 0.29629 0.71885 0.0
C191 C 0.65443 0.23879 0.69658 0.0
C192 C 0.739 0.2864 0.74615 0.0
C193 C 0.68728 0.17124 0.70178 0.0
C194 C 0.74544 0.161 0.72883 0.0
C195 C 0.83025 0.2084 0.77824 0.0
C196 C 0.85737 0.26609 0.80017 0.0
C197 C 0.77161 0.21817 0.75118 0.0
C198 C 0.82417 0.33352 0.79522 0.0
C199 C 0.76533 0.34357 0.7685 0.0
H200 H 0.147 0.83523 0.70226 0.0
H201 H 0.13271 0.60419 0.70421 0.0
H202 H 0.2321 0.59925 0.75346 0.0
H203 H 0.32128 0.66061 0.79717 0.0
H204 H 0.33608 0.89158 0.79529 0.0
H205 H 0.23802 0.89655 0.74527 0.0
C206 C 0.16628 0.78384 0.7132 0.0
C207 C 0.13266 0.72025 0.69956 0.0
C208 C 0.22292 0.78138 0.74193 0.0
C209 C 0.15776 0.654 0.71422 0.0
C210 C 0.2144 0.65107 0.74252 0.0
C211 C 0.30261 0.712 0.78598 0.0
C212 C 0.33546 0.77558 0.80008 0.0
C213 C 0.2468 0.71445 0.7569 0.0
C214 C 0.31139 0.8418 0.785 0.0
C215 C 0.2555 0.84472 0.7563 0.0
H216 H 0.33924 0.83717 0.29585 0.0
H217 H 0.35049 0.60595 0.2929 0.0
H218 H 0.25192 0.60282 0.24317 0.0
H219 H 0.16414 0.66583 0.19945 0.0
H220 H 0.15232 0.89697 0.20244 0.0
H221 H 0.24988 0.90014 0.25275 0.0
C222 C 0.31945 0.78613 0.2846 0.0
C223 C 0.35196 0.72195 0.2981 0.0
C224 C 0.26335 0.78472 0.2556 0.0
C225 C 0.32626 0.65618 0.28302 0.0
C226 C 0.27012 0.6543 0.25444 0.0
C227 C 0.18342 0.71686 0.21093 0.0
C228 C 0.15152 0.78103 0.19707 0.0
C229 C 0.23884 0.71826 0.24022 0.0
C230 C 0.17632 0.84677 0.21252 0.0
C231 C 0.23188 0.84866 0.24141 0.0
H232 H 0.34098 0.3398 0.22176 0.0
H233 H 0.30079 0.1158 0.19735 0.0
H234 H 0.21871 0.11092 0.24015 0.0
H235 H 0.15706 0.17116 0.28369 0.0
H236 H 0.19733 0.39544 0.30753 0.0
H237 H 0.28066 0.39947 0.2655 0.0
C238 C 0.31454 0.28976 0.22589 0.0
C239 C 0.32693 0.2282 0.20645 0.0
C240 C 0.26721 0.28758 0.25025 0.0
C241 C 0.29217 0.16387 0.21205 0.0
C242 C 0.24515 0.16112 0.23644 0.0
C243 C 0.18402 0.22094 0.27964 0.0
C244 C 0.17092 0.28301 0.2986 0.0
C245 C 0.23197 0.22279 0.25551 0.0
C246 C 0.20639 0.34702 0.2932 0.0
C247 C 0.2541 0.34932 0.26922 0.0
H248 H 0.34461 0.16549 0.71177 0.0
H249 H 0.30223 0.3892 0.68767 0.0
H250 H 0.21845 0.39307 0.72954 0.0
H251 H 0.15875 0.33335 0.77346 0.0
H252 H 0.20173 0.10992 0.798 0.0
H253 H 0.28358 0.10527 0.75516 0.0
C254 C 0.31708 0.21511 0.71571 0.0
C255 C 0.32972 0.27705 0.69678 0.0
C256 C 0.26902 0.21688 0.73974 0.0
C257 C 0.29351 0.34087 0.70202 0.0
C258 C 0.24556 0.34309 0.7259 0.0
C259 C 0.18574 0.28351 0.7693 0.0
C260 C 0.17427 0.22204 0.78883 0.0
C261 C 0.23305 0.28146 0.74493 0.0
C262 C 0.2097 0.15793 0.78325 0.0
C263 C 0.25659 0.1553 0.75884 0.0
H264 H 0.70244 0.84074 0.80686 0.0
H265 H 0.59754 0.63759 0.78107 0.0
H266 H 0.67265 0.61442 0.73664 0.0
H267 H 0.76752 0.65199 0.7046 0.0
H268 H 0.87266 0.85504 0.73005 0.0
H269 H 0.7986 0.87778 0.77514 0.0
C270 C 0.69598 0.79157 0.79142 0.0
C271 C 0.64443 0.74116 0.79718 0.0
C272 C 0.73963 0.77831 0.76593 0.0
C273 C 0.63683 0.67742 0.77713 0.0
C274 C 0.67981 0.66398 0.75171 0.0
C275 C 0.77446 0.70098 0.72017 0.0
C276 C 0.82541 0.75165 0.71402 0.0
C277 C 0.7314 0.71399 0.74589 0.0
C278 C 0.83371 0.81508 0.7343 0.0
C279 C 0.7913 0.82826 0.76005 0.0
H280 H 0.7807 0.84226 0.19112 0.0
H281 H 0.88682 0.63923 0.21562 0.0
H282 H 0.8112 0.61455 0.25967 0.0
H283 H 0.71611 0.65139 0.29198 0.0
H284 H 0.61025 0.85459 0.26765 0.0
H285 H 0.68414 0.87814 0.2227 0.0
C286 C 0.78729 0.79273 0.20617 0.0
C287 C 0.83936 0.74287 0.20025 0.0
C288 C 0.74351 0.77871 0.23141 0.0
C289 C 0.84715 0.67866 0.21978 0.0
C290 C 0.8039 0.66439 0.24494 0.0
C291 C 0.70896 0.70055 0.27666 0.0
C292 C 0.65794 0.75111 0.28312 0.0
C293 C 0.75198 0.71407 0.25103 0.0
C294 C 0.64929 0.81475 0.26317 0.0
C295 C 0.69159 0.8284 0.2375 0.0
H296 H 0.26186 0.12747 0.56963 0.0
H297 H 0.4423 0.13444 0.51507 0.0
H298 H 0.36351 0.11804 0.45834 0.0
H299 H 0.2429 0.13495 0.4247 0.0
H300 H 0.06242 0.13406 0.4793 0.0
H301 H 0.14133 0.1128 0.53558 0.0
C302 C 0.28404 0.12265 0.54539 0.0
C303 C 0.35723 0.13413 0.54622 0.0
C304 C 0.2382 0.11559 0.51288 0.0
C305 C 0.38591 0.12645 0.51495 0.0
C306 C 0.34077 0.11786 0.48247 0.0
C307 C 0.22078 0.1274 0.44878 0.0
C308 C 0.14751 0.13794 0.44823 0.0
C309 C 0.26664 0.11744 0.48107 0.0
C310 C 0.11886 0.12679 0.47925 0.0
C311 C 0.16406 0.11539 0.51148 0.0
H312 H 0.88643 0.86475 0.52507 0.0
H313 H 0.72132 0.8585 0.58941 0.0
H314 H 0.63076 0.87876 0.53722 0.0
H315 H 0.59812 0.86464 0.47273 0.0
H316 H 0.76325 0.85793 0.40838 0.0
H317 H 0.85375 0.87843 0.46058 0.0
C318 C 0.83094 0.87112 0.52777 0.0
C319 C 0.81019 0.85899 0.56072 0.0
C320 C 0.77882 0.87891 0.49734 0.0
C321 C 0.73819 0.8669 0.56405 0.0
C322 C 0.68633 0.87789 0.53418 0.0
C323 C 0.65359 0.87092 0.47003 0.0
C324 C 0.67436 0.85855 0.43706 0.0
C325 C 0.70569 0.87894 0.50046 0.0
C326 C 0.74634 0.86643 0.43374 0.0
C327 C 0.79818 0.87759 0.46361 0.0
H328 H 0.7621 0.63243 0.07015 0.0
H329 H 0.93849 0.64853 0.01324 0.0
H330 H 0.8578 0.63 0.95715 0.0
H331 H 0.73521 0.6418 0.9249 0.0
H332 H 0.55855 0.63044 0.9818 0.0
H333 H 0.64098 0.61243 0.03741 0.0
C334 C 0.78308 0.62895 0.04553 0.0
C335 C 0.85558 0.6433 0.04552 0.0
C336 C 0.73607 0.62034 0.01344 0.0
C337 C 0.88276 0.63786 0.01375 0.0
C338 C 0.83646 0.62814 0.98167 0.0
C339 C 0.71485 0.63238 0.94933 0.0
C340 C 0.64137 0.63876 0.94962 0.0
C341 C 0.76265 0.62415 0.98117 0.0
C342 C 0.61502 0.62582 0.9811 0.0
C343 C 0.66223 0.61644 0.01292 0.0
H344 H 0.39154 0.3885 0.02407 0.0
H345 H 0.22851 0.37508 0.08938 0.0
H346 H 0.1364 0.39419 0.03767 0.0
H347 H 0.10299 0.38002 0.97336 0.0
H348 H 0.26647 0.37739 0.90795 0.0
H349 H 0.35725 0.40128 0.95967 0.0
C350 C 0.33606 0.39315 0.02708 0.0
C351 C 0.31636 0.37941 0.06012 0.0
C352 C 0.28325 0.39959 0.9969 0.0
C353 C 0.24447 0.3849 0.06393 0.0
C354 C 0.19181 0.39516 0.03434 0.0
C355 C 0.15809 0.38775 0.9703 0.0
C356 C 0.17849 0.37553 0.93724 0.0
C357 C 0.2104 0.39732 0.00046 0.0
C358 C 0.24993 0.38558 0.93342 0.0
C359 C 0.3019 0.39873 0.96301 0.0
loop_
_geom_bond_atom_site_label_1
_geom_bond_atom_site_label_2
_geom_bond_distance
_geom_bond_site_symmetry_2
_ccdc_geom_bond_type
In0 O1 2.294 1_455 S
In0 O2 2.326 1_455 S
In0 O6 2.266 . S
In0 O7 2.326 . S
In0 O8 2.266 . S
In0 O9 2.326 1_455 S
In0 O11 2.294 . S
In0 O12 2.326 . S
O1 In0 2.294 1_655 S
O1 C10 1.240 . S
O2 In0 2.326 1_655 S
O2 C10 1.252 . S
C3 O6 1.252 . S
C3 O7 1.260 . S
C4 O11 1.240 . S
C4 O12 1.252 . S
C5 O8 1.252 . S
C5 O9 1.260 1_455 S
O6 In0 2.266 . S
O6 C3 1.252 . S
O7 In0 2.326 . S
O7 C3 1.260 . S
O8 In0 2.266 . S
O8 C5 1.252 . S
O9 In0 2.326 1_655 S
O9 C5 1.260 1_655 S
C10 O1 1.240 . S
C10 O2 1.252 . S
O11 In0 2.294 . S
O11 C4 1.240 . S
O12 In0 2.326 . S
O12 C4 1.252 . S
In13 O14 2.294 . S
In13 O15 2.326 . S
In13 O19 2.266 . S
In13 O20 2.326 . S
In13 O21 2.266 . S
In13 O22 2.326 . S
In13 O24 2.294 . S
In13 O25 2.326 . S
O14 In13 2.294 . S
O14 C23 1.240 . S
O15 In13 2.326 . S
O15 C23 1.252 . S
C16 O19 1.252 . S
C16 O20 1.260 . S
C17 O24 1.240 . S
C17 O25 1.252 . S
C18 O21 1.252 . S
C18 O22 1.260 . S
O19 In13 2.266 . S
O19 C16 1.252 . S
O20 In13 2.326 . S
O20 C16 1.260 . S
O21 In13 2.266 . S
O21 C18 1.252 . S
O22 In13 2.326 . S
O22 C18 1.260 . S
C23 O14 1.240 . S
C23 O15 1.252 . S
O24 In13 2.294 . S
O24 C17 1.240 . S
O25 In13 2.326 . S
O25 C17 1.252 . S
In26 O27 2.294 . S
In26 O28 2.326 . S
In26 O32 2.266 . S
In26 O33 2.326 1_655 S
In26 O34 2.266 . S
In26 O35 2.326 . S
In26 O37 2.294 1_655 S
In26 O38 2.326 1_655 S
O27 In26 2.294 . S
O27 C36 1.240 . S
O28 In26 2.326 . S
O28 C36 1.252 . S
C29 O32 1.252 . S
C29 O33 1.260 1_655 S
C30 O37 1.240 . S
C30 O38 1.252 . S
C31 O34 1.252 . S
C31 O35 1.260 . S
O32 In26 2.266 . S
O32 C29 1.252 . S
O33 In26 2.326 1_455 S
O33 C29 1.260 1_455 S
O34 In26 2.266 . S
O34 C31 1.252 . S
O35 In26 2.326 . S
O35 C31 1.260 . S
C36 O27 1.240 . S
C36 O28 1.252 . S
O37 In26 2.294 1_455 S
O37 C30 1.240 . S
O38 In26 2.326 1_455 S
O38 C30 1.252 . S
In39 O40 2.294 . S
In39 O41 2.326 . S
In39 O45 2.266 . S
In39 O46 2.326 . S
In39 O47 2.266 . S
In39 O48 2.326 . S
In39 O50 2.294 . S
In39 O51 2.326 . S
O40 In39 2.294 . S
O40 C49 1.240 . S
O41 In39 2.326 . S
O41 C49 1.252 . S
C42 O45 1.252 . S
C42 O46 1.260 . S
C43 O50 1.240 . S
C43 O51 1.252 . S
C44 O47 1.252 . S
C44 O48 1.260 . S
O45 In39 2.266 . S
O45 C42 1.252 . S
O46 In39 2.326 . S
O46 C42 1.260 . S
O47 In39 2.266 . S
O47 C44 1.252 . S
O48 In39 2.326 . S
O48 C44 1.260 . S
C49 O40 1.240 . S
C49 O41 1.252 . S
O50 In39 2.294 . S
O50 C43 1.240 . S
O51 In39 2.326 . S
O51 C43 1.252 . S
In52 O53 2.294 . S
In52 O54 2.326 . S
In52 O58 2.266 . S
In52 O59 2.326 . S
In52 O60 2.266 . S
In52 O61 2.326 . S
In52 O63 2.294 . S
In52 O64 2.326 . S
O53 In52 2.294 . S
O53 C62 1.240 . S
O54 In52 2.326 . S
O54 C62 1.252 . S
C55 O58 1.252 . S
C55 O59 1.260 . S
C56 O63 1.240 . S
C56 O64 1.252 . S
C57 O60 1.252 . S
C57 O61 1.260 . S
O58 In52 2.266 . S
O58 C55 1.252 . S
O59 In52 2.326 . S
O59 C55 1.260 . S
O60 In52 2.266 . S
O60 C57 1.252 . S
O61 In52 2.326 . S
O61 C57 1.260 . S
C62 O53 1.240 . S
C62 O54 1.252 . S
O63 In52 2.294 . S
O63 C56 1.240 . S
O64 In52 2.326 . S
O64 C56 1.252 . S
In65 O66 2.294 1_655 S
In65 O67 2.326 1_655 S
In65 O71 2.266 . S
In65 O72 2.326 . S
In65 O73 2.266 . S
In65 O74 2.326 1_655 S
In65 O76 2.294 . S
In65 O77 2.326 . S
O66 In65 2.294 1_455 S
O66 C75 1.240 . S
O67 In65 2.326 1_455 S
O67 C75 1.252 . S
C68 O71 1.252 . S
C68 O72 1.260 . S
C69 O76 1.240 . S
C69 O77 1.252 . S
C70 O73 1.252 . S
C70 O74 1.260 1_655 S
O71 In65 2.266 . S
O71 C68 1.252 . S
O72 In65 2.326 . S
O72 C68 1.260 . S
O73 In65 2.266 . S
O73 C70 1.252 . S
O74 In65 2.326 1_455 S
O74 C70 1.260 1_455 S
C75 O66 1.240 . S
C75 O67 1.252 . S
O76 In65 2.294 . S
O76 C69 1.240 . S
O77 In65 2.326 . S
O77 C69 1.252 . S
In78 O79 2.294 . S
In78 O80 2.326 . S
In78 O84 2.266 . S
In78 O85 2.326 . S
In78 O86 2.266 . S
In78 O87 2.326 . S
In78 O89 2.294 . S
In78 O90 2.326 . S
O79 In78 2.294 . S
O79 C88 1.240 . S
O80 In78 2.326 . S
O80 C88 1.252 . S
C81 O84 1.252 . S
C81 O85 1.260 . S
C82 O89 1.240 . S
C82 O90 1.252 . S
C83 O86 1.252 . S
C83 O87 1.260 . S
O84 In78 2.266 . S
O84 C81 1.252 . S
O85 In78 2.326 . S
O85 C81 1.260 . S
O86 In78 2.266 . S
O86 C83 1.252 . S
O87 In78 2.326 . S
O87 C83 1.260 . S
C88 O79 1.240 . S
C88 O80 1.252 . S
O89 In78 2.294 . S
O89 C82 1.240 . S
O90 In78 2.326 . S
O90 C82 1.252 . S
In91 O92 2.294 . S
In91 O93 2.326 . S
In91 O97 2.266 . S
In91 O98 2.326 1_455 S
In91 O99 2.266 . S
In91 O100 2.326 . S
In91 O102 2.294 1_455 S
In91 O103 2.326 1_455 S
O92 In91 2.294 . S
O92 C101 1.240 . S
O93 In91 2.326 . S
O93 C101 1.252 . S
C94 O97 1.252 . S
C94 O98 1.260 1_455 S
C95 O102 1.240 . S
C95 O103 1.252 . S
C96 O99 1.252 . S
C96 O100 1.260 . S
O97 In91 2.266 . S
O97 C94 1.252 . S
O98 In91 2.326 1_655 S
O98 C94 1.260 1_655 S
O99 In91 2.266 . S
O99 C96 1.252 . S
O100 In91 2.326 . S
O100 C96 1.260 . S
C101 O92 1.240 . S
C101 O93 1.252 . S
O102 In91 2.294 1_655 S
O102 C95 1.240 . S
O103 In91 2.326 1_655 S
O103 C95 1.252 . S
H104 C110 0.930 . S
H105 C113 0.930 . S
H106 C114 0.930 . S
H107 C115 0.930 . S
H108 C118 0.930 . S
H109 C119 0.930 . S
C110 H104 0.930 . S
C110 C111 1.355 1_655 S
C110 C112 1.415 . S
C111 C110 1.355 1_455 S
C111 C113 1.419 . S
C112 C110 1.415 . S
C112 C117 1.425 1_655 S
C112 C119 1.409 . S
C113 H105 0.930 . S
C113 C111 1.419 . S
C113 C114 1.362 . S
C114 H106 0.930 . S
C114 C113 1.362 . S
C114 C117 1.409 . S
C115 H107 0.930 . S
C115 C116 1.355 1_455 S
C115 C117 1.415 . S
C116 C115 1.355 1_655 S
C116 C118 1.419 . S
C117 C112 1.425 1_455 S
C117 C114 1.409 . S
C117 C115 1.415 . S
C118 H108 0.930 . S
C118 C116 1.419 . S
C118 C119 1.362 . S
C119 H109 0.930 . S
C119 C112 1.409 . S
C119 C118 1.362 . S
H120 C126 0.930 . S
H121 C129 0.930 . S
H122 C130 0.930 . S
H123 C131 0.930 . S
H124 C134 0.930 . S
H125 C135 0.930 . S
C126 H120 0.930 . S
C126 C127 1.355 . S
C126 C128 1.415 . S
C127 C126 1.355 . S
C127 C129 1.419 . S
C128 C126 1.415 . S
C128 C133 1.425 . S
C128 C135 1.409 . S
C129 H121 0.930 . S
C129 C127 1.419 . S
C129 C130 1.362 . S
C130 H122 0.930 . S
C130 C129 1.362 . S
C130 C133 1.409 . S
C131 H123 0.930 . S
C131 C132 1.355 . S
C131 C133 1.415 . S
C132 C131 1.355 . S
C132 C134 1.419 . S
C133 C128 1.425 . S
C133 C130 1.409 . S
C133 C131 1.415 . S
C134 H124 0.930 . S
C134 C132 1.419 . S
C134 C135 1.362 . S
C135 H125 0.930 . S
C135 C128 1.409 . S
C135 C134 1.362 . S
H136 C142 0.930 . S
H137 C145 0.930 . S
H138 C146 0.930 . S
H139 C147 0.930 . S
H140 C150 0.930 . S
H141 C151 0.930 . S
C142 H136 0.930 . S
C142 C143 1.355 . S
C142 C144 1.415 1_554 S
C143 C142 1.355 . S
C143 C145 1.419 . S
C144 C142 1.415 1_556 S
C144 C149 1.425 1_546 S
C144 C151 1.409 . S
C145 H137 0.930 . S
C145 C143 1.419 . S
C145 C146 1.362 1_545 S
C146 H138 0.930 . S
C146 C145 1.362 1_565 S
C146 C149 1.409 . S
C147 H139 0.930 . S
C147 C148 1.355 . S
C147 C149 1.415 1_556 S
C148 C147 1.355 . S
C148 C150 1.419 . S
C149 C144 1.425 1_564 S
C149 C146 1.409 . S
C149 C147 1.415 1_554 S
C150 H140 0.930 . S
C150 C148 1.419 . S
C150 C151 1.362 1_565 S
C151 H141 0.930 . S
C151 C144 1.409 . S
C151 C150 1.362 1_545 S
H152 C158 0.930 . S
H153 C161 0.930 . S
H154 C162 0.930 . S
H155 C163 0.930 . S
H156 C166 0.930 . S
H157 C167 0.930 . S
C158 H152 0.930 . S
C158 C159 1.355 1_455 S
C158 C160 1.415 1_554 S
C159 C158 1.355 1_655 S
C159 C161 1.419 . S
C160 C158 1.415 1_556 S
C160 C165 1.425 1_466 S
C160 C167 1.409 . S
C161 H153 0.930 . S
C161 C159 1.419 . S
C161 C162 1.362 1_565 S
C162 H154 0.930 . S
C162 C161 1.362 1_545 S
C162 C165 1.409 . S
C163 H155 0.930 . S
C163 C164 1.355 1_655 S
C163 C165 1.415 1_556 S
C164 C163 1.355 1_455 S
C164 C166 1.419 . S
C165 C160 1.425 1_644 S
C165 C162 1.409 . S
C165 C163 1.415 1_554 S
C166 H156 0.930 . S
C166 C164 1.419 . S
C166 C167 1.362 1_545 S
C167 H157 0.930 . S
C167 C160 1.409 . S
C167 C166 1.362 1_565 S
H168 C174 0.930 . S
H169 C177 0.930 . S
H170 C178 0.930 . S
H171 C179 0.930 . S
H172 C182 0.930 . S
H173 C183 0.930 . S
C174 H168 0.930 . S
C174 C175 1.355 . S
C174 C176 1.415 . S
C175 C174 1.355 . S
C175 C177 1.419 . S
C176 C174 1.415 . S
C176 C181 1.425 . S
C176 C183 1.409 . S
C177 H169 0.930 . S
C177 C175 1.419 . S
C177 C178 1.362 . S
C178 H170 0.930 . S
C178 C177 1.362 . S
C178 C181 1.409 . S
C179 H171 0.930 . S
C179 C180 1.355 . S
C179 C181 1.415 . S
C180 C179 1.355 . S
C180 C182 1.419 . S
C181 C176 1.425 . S
C181 C178 1.409 . S
C181 C179 1.415 . S
C182 H172 0.930 . S
C182 C180 1.419 . S
C182 C183 1.362 . S
C183 H173 0.930 . S
C183 C176 1.409 . S
C183 C182 1.362 . S
H184 C190 0.930 . S
H185 C193 0.930 . S
H186 C194 0.930 . S
H187 C195 0.930 . S
H188 C198 0.930 . S
H189 C199 0.930 . S
C190 H184 0.930 . S
C190 C191 1.355 . S
C190 C192 1.415 . S
C191 C190 1.355 . S
C191 C193 1.419 . S
C192 C190 1.415 . S
C192 C197 1.425 . S
C192 C199 1.409 . S
C193 H185 0.930 . S
C193 C191 1.419 . S
C193 C194 1.362 . S
C194 H186 0.930 . S
C194 C193 1.362 . S
C194 C197 1.409 . S
C195 H187 0.930 . S
C195 C196 1.355 . S
C195 C197 1.415 . S
C196 C195 1.355 . S
C196 C198 1.419 . S
C197 C192 1.425 . S
C197 C194 1.409 . S
C197 C195 1.415 . S
C198 H188 0.930 . S
C198 C196 1.419 . S
C198 C199 1.362 . S
C199 H189 0.930 . S
C199 C192 1.409 . S
C199 C198 1.362 . S
H200 C206 0.930 . S
H201 C209 0.930 . S
H202 C210 0.930 . S
H203 C211 0.930 . S
H204 C214 0.930 . S
H205 C215 0.930 . S
C206 H200 0.930 . S
C206 C207 1.355 . S
C206 C208 1.415 . S
C207 C206 1.355 . S
C207 C209 1.419 . S
C208 C206 1.415 . S
C208 C213 1.425 . S
C208 C215 1.409 . S
C209 H201 0.930 . S
C209 C207 1.419 . S
C209 C210 1.362 . S
C210 H202 0.930 . S
C210 C209 1.362 . S
C210 C213 1.409 . S
C211 H203 0.930 . S
C211 C212 1.355 . S
C211 C213 1.415 . S
C212 C211 1.355 . S
C212 C214 1.419 . S
C213 C208 1.425 . S
C213 C210 1.409 . S
C213 C211 1.415 . S
C214 H204 0.930 . S
C214 C212 1.419 . S
C214 C215 1.362 . S
C215 H205 0.930 . S
C215 C208 1.409 . S
C215 C214 1.362 . S
H216 C222 0.930 . S
H217 C225 0.930 . S
H218 C226 0.930 . S
H219 C227 0.930 . S
H220 C230 0.930 . S
H221 C231 0.930 . S
C222 H216 0.930 . S
C222 C223 1.355 . S
C222 C224 1.415 . S
C223 C222 1.355 . S
C223 C225 1.419 . S
C224 C222 1.415 . S
C224 C229 1.425 . S
C224 C231 1.409 . S
C225 H217 0.930 . S
C225 C223 1.419 . S
C225 C226 1.362 . S
C226 H218 0.930 . S
C226 C225 1.362 . S
C226 C229 1.409 . S
C227 H219 0.930 . S
C227 C228 1.355 . S
C227 C229 1.415 . S
C228 C227 1.355 . S
C228 C230 1.419 . S
C229 C224 1.425 . S
C229 C226 1.409 . S
C229 C227 1.415 . S
C230 H220 0.930 . S
C230 C228 1.419 . S
C230 C231 1.362 . S
C231 H221 0.930 . S
C231 C224 1.409 . S
C231 C230 1.362 . S
H232 C238 0.930 . S
H233 C241 0.930 . S
H234 C242 0.930 . S
H235 C243 0.930 . S
H236 C246 0.930 . S
H237 C247 0.930 . S
C238 H232 0.930 . S
C238 C239 1.355 . S
C238 C240 1.415 . S
C239 C238 1.355 . S
C239 C241 1.419 . S
C240 C238 1.415 . S
C240 C245 1.425 . S
C240 C247 1.409 . S
C241 H233 0.930 . S
C241 C239 1.419 . S
C241 C242 1.362 . S
C242 H234 0.930 . S
C242 C241 1.362 . S
C242 C245 1.409 . S
C243 H235 0.930 . S
C243 C244 1.355 . S
C243 C245 1.415 . S
C244 C243 1.355 . S
C244 C246 1.419 . S
C245 C240 1.425 . S
C245 C242 1.409 . S
C245 C243 1.415 . S
C246 H236 0.930 . S
C246 C244 1.419 . S
C246 C247 1.362 . S
C247 H237 0.930 . S
C247 C240 1.409 . S
C247 C246 1.362 . S
H248 C254 0.930 . S
H249 C257 0.930 . S
H250 C258 0.930 . S
H251 C259 0.930 . S
H252 C262 0.930 . S
H253 C263 0.930 . S
C254 H248 0.930 . S
C254 C255 1.355 . S
C254 C256 1.415 . S
C255 C254 1.355 . S
C255 C257 1.419 . S
C256 C254 1.415 . S
C256 C261 1.425 . S
C256 C263 1.409 . S
C257 H249 0.930 . S
C257 C255 1.419 . S
C257 C258 1.362 . S
C258 H250 0.930 . S
C258 C257 1.362 . S
C258 C261 1.409 . S
C259 H251 0.930 . S
C259 C260 1.355 . S
C259 C261 1.415 . S
C260 C259 1.355 . S
C260 C262 1.419 . S
C261 C256 1.425 . S
C261 C258 1.409 . S
C261 C259 1.415 . S
C262 H252 0.930 . S
C262 C260 1.419 . S
C262 C263 1.362 . S
C263 H253 0.930 . S
C263 C256 1.409 . S
C263 C262 1.362 . S
H264 C270 0.930 . S
H265 C273 0.930 . S
H266 C274 0.930 . S
H267 C275 0.930 . S
H268 C278 0.930 . S
H269 C279 0.930 . S
C270 H264 0.930 . S
C270 C271 1.355 . S
C270 C272 1.415 . S
C271 C270 1.355 . S
C271 C273 1.419 . S
C272 C270 1.415 . S
C272 C277 1.425 . S
C272 C279 1.409 . S
C273 H265 0.930 . S
C273 C271 1.419 . S
C273 C274 1.362 . S
C274 H266 0.930 . S
C274 C273 1.362 . S
C274 C277 1.409 . S
C275 H267 0.930 . S
C275 C276 1.355 . S
C275 C277 1.415 . S
C276 C275 1.355 . S
C276 C278 1.419 . S
C277 C272 1.425 . S
C277 C274 1.409 . S
C277 C275 1.415 . S
C278 H268 0.930 . S
C278 C276 1.419 . S
C278 C279 1.362 . S
C279 H269 0.930 . S
C279 C272 1.409 . S
C279 C278 1.362 . S
H280 C286 0.930 . S
H281 C289 0.930 . S
H282 C290 0.930 . S
H283 C291 0.930 . S
H284 C294 0.930 . S
H285 C295 0.930 . S
C286 H280 0.930 . S
C286 C287 1.355 . S
C286 C288 1.415 . S
C287 C286 1.355 . S
C287 C289 1.419 . S
C288 C286 1.415 . S
C288 C293 1.425 . S
C288 C295 1.409 . S
C289 H281 0.930 . S
C289 C287 1.419 . S
C289 C290 1.362 . S
C290 H282 0.930 . S
C290 C289 1.362 . S
C290 C293 1.409 . S
C291 H283 0.930 . S
C291 C292 1.355 . S
C291 C293 1.415 . S
C292 C291 1.355 . S
C292 C294 1.419 . S
C293 C288 1.425 . S
C293 C290 1.409 . S
C293 C291 1.415 . S
C294 H284 0.930 . S
C294 C292 1.419 . S
C294 C295 1.362 . S
C295 H285 0.930 . S
C295 C288 1.409 . S
C295 C294 1.362 . S
H296 C302 0.930 . S
H297 C305 0.930 . S
H298 C306 0.930 . S
H299 C307 0.930 . S
H300 C310 0.930 . S
H301 C311 0.930 . S
C302 H296 0.930 . S
C302 C303 1.355 . S
C302 C304 1.415 . S
C303 C302 1.355 . S
C303 C305 1.419 . S
C304 C302 1.415 . S
C304 C309 1.425 . S
C304 C311 1.409 . S
C305 H297 0.930 . S
C305 C303 1.419 . S
C305 C306 1.362 . S
C306 H298 0.930 . S
C306 C305 1.362 . S
C306 C309 1.409 . S
C307 H299 0.930 . S
C307 C308 1.355 . S
C307 C309 1.415 . S
C308 C307 1.355 . S
C308 C310 1.419 . S
C309 C304 1.425 . S
C309 C306 1.409 . S
C309 C307 1.415 . S
C310 H300 0.930 . S
C310 C308 1.419 . S
C310 C311 1.362 . S
C311 H301 0.930 . S
C311 C304 1.409 . S
C311 C310 1.362 . S
H312 C318 0.930 . S
H313 C321 0.930 . S
H314 C322 0.930 . S
H315 C323 0.930 . S
H316 C326 0.930 . S
H317 C327 0.930 . S
C318 H312 0.930 . S
C318 C319 1.355 . S
C318 C320 1.415 . S
C319 C318 1.355 . S
C319 C321 1.419 . S
C320 C318 1.415 . S
C320 C325 1.425 . S
C320 C327 1.409 . S
C321 H313 0.930 . S
C321 C319 1.419 . S
C321 C322 1.362 . S
C322 H314 0.930 . S
C322 C321 1.362 . S
C322 C325 1.409 . S
C323 H315 0.930 . S
C323 C324 1.355 . S
C323 C325 1.415 . S
C324 C323 1.355 . S
C324 C326 1.419 . S
C325 C320 1.425 . S
C325 C322 1.409 . S
C325 C323 1.415 . S
C326 H316 0.930 . S
C326 C324 1.419 . S
C326 C327 1.362 . S
C327 H317 0.930 . S
C327 C320 1.409 . S
C327 C326 1.362 . S
H328 C334 0.930 . S
H329 C337 0.930 . S
H330 C338 0.930 . S
H331 C339 0.930 . S
H332 C342 0.930 . S
H333 C343 0.930 . S
C334 H328 0.930 . S
C334 C335 1.355 . S
C334 C336 1.415 . S
C335 C334 1.355 . S
C335 C337 1.419 . S
C336 C334 1.415 . S
C336 C341 1.425 1_554 S
C336 C343 1.409 . S
C337 H329 0.930 . S
C337 C335 1.419 . S
C337 C338 1.362 1_554 S
C338 H330 0.930 . S
C338 C337 1.362 1_556 S
C338 C341 1.409 . S
C339 H331 0.930 . S
C339 C340 1.355 . S
C339 C341 1.415 . S
C340 C339 1.355 . S
C340 C342 1.419 . S
C341 C336 1.425 1_556 S
C341 C338 1.409 . S
C341 C339 1.415 . S
C342 H332 0.930 . S
C342 C340 1.419 . S
C342 C343 1.362 1_556 S
C343 H333 0.930 . S
C343 C336 1.409 . S
C343 C342 1.362 1_554 S
H344 C350 0.930 . S
H345 C353 0.930 . S
H346 C354 0.930 . S
H347 C355 0.930 . S
H348 C358 0.930 . S
H349 C359 0.930 . S
C350 H344 0.930 . S
C350 C351 1.355 . S
C350 C352 1.415 1_554 S
C351 C350 1.355 . S
C351 C353 1.419 . S
C352 C350 1.415 1_556 S
C352 C357 1.425 1_556 S
C352 C359 1.409 . S
C353 H345 0.930 . S
C353 C351 1.419 . S
C353 C354 1.362 . S
C354 H346 0.930 . S
C354 C353 1.362 . S
C354 C357 1.409 . S
C355 H347 0.930 . S
C355 C356 1.355 . S
C355 C357 1.415 1_556 S
C356 C355 1.355 . S
C356 C358 1.419 . S
C357 C352 1.425 1_554 S
C357 C354 1.409 . S
C357 C355 1.415 1_554 S
C358 H348 0.930 . S
C358 C356 1.419 . S
C358 C359 1.362 . S
C359 H349 0.930 . S
C359 C352 1.409 . S
C359 C358 1.362 . S
C111 C5 1.537 . S
C116 C29 1.537 . S
C127 C44 1.559 . S
C132 C18 1.559 . S
C143 C81 1.568 . S
C148 C55 1.568 . S
C159 C70 1.557 . S
C164 C94 1.557 . S
C175 C82 1.758 . S
C180 C10 1.758 . S
C191 C23 1.757 . S
C196 C95 1.757 . S
C207 C30 1.714 . S
C212 C56 1.714 . S
C223 C49 1.716 . S
C228 C75 1.716 . S
C239 C88 1.557 . S
C244 C4 1.557 . S
C255 C17 1.558 . S
C260 C101 1.558 . S
C271 C62 1.569 . S
C276 C36 1.569 . S
C287 C69 1.558 . S
C292 C43 1.558 . S
C303 C16 0.746 . S
C308 C3 0.705 . S
C319 C31 0.717 . S
C324 C42 0.644 . S
C335 C68 0.760 . S
C340 C57 0.681 . S
C351 C83 0.708 . S
C356 C96 0.650 . S
