# Generated by pormake.
# Topology wne, (6)-cn, num edge types: 1
# Building blocks:
#     Node 0, Type 0, BuildingBlock: OJICUG_clean_sbu_0, # of connection points: 6
#     Node 1, Type 0, BuildingBlock: OJICUG_clean_sbu_0, # of connection points: 6
#     Node 2, Type 0, BuildingBlock: OJICUG_clean_sbu_0, # of connection points: 6
#     Node 3, Type 0, BuildingBlock: OJICUG_clean_sbu_0, # of connection points: 6
#     Node 4, Type 0, BuildingBlock: OJICUG_clean_sbu_0, # of connection points: 6
#     Node 5, Type 0, BuildingBlock: OJICUG_clean_sbu_0, # of connection points: 6
#     Node 6, Type 0, BuildingBlock: OJICUG_clean_sbu_0, # of connection points: 6
#     Node 7, Type 0, BuildingBlock: OJICUG_clean_sbu_0, # of connection points: 6
#     Node 8, Type 0, BuildingBlock: OJICUG_clean_sbu_0, # of connection points: 6
#     Node 9, Type 0, BuildingBlock: OJICUG_clean_sbu_0, # of connection points: 6
#     Node 10, Type 0, BuildingBlock: OJICUG_clean_sbu_0, # of connection points: 6
#     Node 11, Type 0, BuildingBlock: OJICUG_clean_sbu_0, # of connection points: 6
#     Node 12, Type 0, BuildingBlock: OJICUG_clean_sbu_0, # of connection points: 6
#     Node 13, Type 0, BuildingBlock: OJICUG_clean_sbu_0, # of connection points: 6
#     Node 14, Type 0, BuildingBlock: OJICUG_clean_sbu_0, # of connection points: 6
#     Node 15, Type 0, BuildingBlock: OJICUG_clean_sbu_0, # of connection points: 6
#     Node 16, Type 0, BuildingBlock: OJICUG_clean_sbu_0, # of connection points: 6
#     Node 17, Type 0, BuildingBlock: OJICUG_clean_sbu_0, # of connection points: 6
#     Node 18, Type 0, BuildingBlock: OJICUG_clean_sbu_0, # of connection points: 6
#     Node 19, Type 0, BuildingBlock: OJICUG_clean_sbu_0, # of connection points: 6
#     Node 20, Type 0, BuildingBlock: OJICUG_clean_sbu_0, # of connection points: 6
#     Node 21, Type 0, BuildingBlock: OJICUG_clean_sbu_0, # of connection points: 6
#     Node 22, Type 0, BuildingBlock: OJICUG_clean_sbu_0, # of connection points: 6
#     Node 23, Type 0, BuildingBlock: OJICUG_clean_sbu_0, # of connection points: 6
#     Node 24, Type 0, BuildingBlock: OJICUG_clean_sbu_0, # of connection points: 6
#     Node 25, Type 0, BuildingBlock: OJICUG_clean_sbu_0, # of connection points: 6
#     Node 26, Type 0, BuildingBlock: OJICUG_clean_sbu_0, # of connection points: 6
#     Node 27, Type 0, BuildingBlock: OJICUG_clean_sbu_0, # of connection points: 6
#     Node 28, Type 0, BuildingBlock: OJICUG_clean_sbu_0, # of connection points: 6
#     Node 29, Type 0, BuildingBlock: OJICUG_clean_sbu_0, # of connection points: 6
#     Node 30, Type 0, BuildingBlock: OJICUG_clean_sbu_0, # of connection points: 6
#     Node 31, Type 0, BuildingBlock: OJICUG_clean_sbu_0, # of connection points: 6
#     Node 32, Type 0, BuildingBlock: OJICUG_clean_sbu_0, # of connection points: 6
#     Node 33, Type 0, BuildingBlock: OJICUG_clean_sbu_0, # of connection points: 6
#     Node 34, Type 0, BuildingBlock: OJICUG_clean_sbu_0, # of connection points: 6
#     Node 35, Type 0, BuildingBlock: OJICUG_clean_sbu_0, # of connection points: 6
#     Edge 36, Type (0, 0), None
#     Edge 37, Type (0, 0), None
#     Edge 38, Type (0, 0), None
#     Edge 39, Type (0, 0), None
#     Edge 40, Type (0, 0), None
#     Edge 41, Type (0, 0), None
#     Edge 42, Type (0, 0), None
#     Edge 43, Type (0, 0), None
#     Edge 44, Type (0, 0), None
#     Edge 45, Type (0, 0), None
#     Edge 46, Type (0, 0), None
#     Edge 47, Type (0, 0), None
#     Edge 48, Type (0, 0), None
#     Edge 49, Type (0, 0), None
#     Edge 50, Type (0, 0), None
#     Edge 51, Type (0, 0), None
#     Edge 52, Type (0, 0), None
#     Edge 53, Type (0, 0), None
#     Edge 54, Type (0, 0), None
#     Edge 55, Type (0, 0), None
#     Edge 56, Type (0, 0), None
#     Edge 57, Type (0, 0), None
#     Edge 58, Type (0, 0), None
#     Edge 59, Type (0, 0), None
#     Edge 60, Type (0, 0), None
#     Edge 61, Type (0, 0), None
#     Edge 62, Type (0, 0), None
#     Edge 63, Type (0, 0), None
#     Edge 64, Type (0, 0), None
#     Edge 65, Type (0, 0), None
#     Edge 66, Type (0, 0), None
#     Edge 67, Type (0, 0), None
#     Edge 68, Type (0, 0), None
#     Edge 69, Type (0, 0), None
#     Edge 70, Type (0, 0), None
#     Edge 71, Type (0, 0), None
#     Edge 72, Type (0, 0), None
#     Edge 73, Type (0, 0), None
#     Edge 74, Type (0, 0), None
#     Edge 75, Type (0, 0), None
#     Edge 76, Type (0, 0), None
#     Edge 77, Type (0, 0), None
#     Edge 78, Type (0, 0), None
#     Edge 79, Type (0, 0), None
#     Edge 80, Type (0, 0), None
#     Edge 81, Type (0, 0), None
#     Edge 82, Type (0, 0), None
#     Edge 83, Type (0, 0), None
#     Edge 84, Type (0, 0), None
#     Edge 85, Type (0, 0), None
#     Edge 86, Type (0, 0), None
#     Edge 87, Type (0, 0), None
#     Edge 88, Type (0, 0), None
#     Edge 89, Type (0, 0), None
#     Edge 90, Type (0, 0), None
#     Edge 91, Type (0, 0), None
#     Edge 92, Type (0, 0), None
#     Edge 93, Type (0, 0), None
#     Edge 94, Type (0, 0), None
#     Edge 95, Type (0, 0), None
#     Edge 96, Type (0, 0), None
#     Edge 97, Type (0, 0), None
#     Edge 98, Type (0, 0), None
#     Edge 99, Type (0, 0), None
#     Edge 100, Type (0, 0), None
#     Edge 101, Type (0, 0), None
#     Edge 102, Type (0, 0), None
#     Edge 103, Type (0, 0), None
#     Edge 104, Type (0, 0), None
#     Edge 105, Type (0, 0), None
#     Edge 106, Type (0, 0), None
#     Edge 107, Type (0, 0), None
#     Edge 108, Type (0, 0), None
#     Edge 109, Type (0, 0), None
#     Edge 110, Type (0, 0), None
#     Edge 111, Type (0, 0), None
#     Edge 112, Type (0, 0), None
#     Edge 113, Type (0, 0), None
#     Edge 114, Type (0, 0), None
#     Edge 115, Type (0, 0), None
#     Edge 116, Type (0, 0), None
#     Edge 117, Type (0, 0), None
#     Edge 118, Type (0, 0), None
#     Edge 119, Type (0, 0), None
#     Edge 120, Type (0, 0), None
#     Edge 121, Type (0, 0), None
#     Edge 122, Type (0, 0), None
#     Edge 123, Type (0, 0), None
#     Edge 124, Type (0, 0), None
#     Edge 125, Type (0, 0), None
#     Edge 126, Type (0, 0), None
#     Edge 127, Type (0, 0), None
#     Edge 128, Type (0, 0), None
#     Edge 129, Type (0, 0), None
#     Edge 130, Type (0, 0), None
#     Edge 131, Type (0, 0), None
#     Edge 132, Type (0, 0), None
#     Edge 133, Type (0, 0), None
#     Edge 134, Type (0, 0), None
#     Edge 135, Type (0, 0), None
#     Edge 136, Type (0, 0), None
#     Edge 137, Type (0, 0), None
#     Edge 138, Type (0, 0), None
#     Edge 139, Type (0, 0), None
#     Edge 140, Type (0, 0), None
#     Edge 141, Type (0, 0), None
#     Edge 142, Type (0, 0), None
#     Edge 143, Type (0, 0), None
# Relax obj value: 0.236
# Max RMSD: 0.266
# Mean RMSD: 0.266
data_MOF--net-wne--node1-OJICUG_clean_sbu_0--edge1-none
_symmetry_space_group_name_H-M    P1
_symmetry_Int_Tables_number       1
_symmetry_cell_setting            triclinic
loop_
_symmetry_equiv_pos_as_xyz
'x, y, z'
_cell_length_a     31.530691
_cell_length_b     31.54078
_cell_length_c     20.479135
_cell_angle_alpha  89.998206
_cell_angle_beta   90.007485
_cell_angle_gamma 120.01112
loop_
_atom_site_label
_atom_site_type_symbol
_atom_site_fract_x
_atom_site_fract_y
_atom_site_fract_z
_atom_type_partial_charge
Sc0 Sc 0.24655 0.23692 0.96281 0.0
Sc1 Sc 0.33809 0.26633 0.07408 0.0
Sc2 Sc 0.22767 0.15832 0.08426 0.0
O3 O 0.27441 0.21757 0.03426 0.0
C4 C 0.15287 0.19259 0.03204 0.0
C5 C 0.29387 0.33167 0.05459 0.0
C6 C 0.26638 0.23661 0.18847 0.0
C7 C 0.35351 0.28156 0.91563 0.0
C8 C 0.20652 0.11479 0.94853 0.0
C9 C 0.34482 0.1829 0.11536 0.0
O10 O 0.19251 0.23146 0.03023 0.0
O11 O 0.31554 0.31659 0.08994 0.0
O12 O 0.22945 0.20488 0.15774 0.0
O13 O 0.30833 0.25549 0.90058 0.0
O14 O 0.22076 0.11236 0.00602 0.0
O15 O 0.36252 0.21584 0.07234 0.0
O16 O 0.21095 0.15592 0.92641 0.0
O17 O 0.36875 0.29115 -0.02488 0.0
O18 O 0.29739 0.15934 0.1274 0.0
O19 O 0.27888 0.31381 -0.00289 0.0
O20 O 0.15683 0.15442 0.04291 0.0
O21 O 0.31 0.24775 0.17312 0.0
Sc22 Sc 0.81931 1.02081 0.96442 0.0
Sc23 Sc 0.7889 0.08202 0.07638 0.0
Sc24 Sc 0.89667 0.07945 0.0871 0.0
O25 O 0.83812 0.06777 0.03631 0.0
C26 C 0.86244 0.9706 0.03424 0.0
C27 C 0.72479 0.97274 0.05504 0.0
C28 C 0.81566 0.0361 0.18952 0.0
C29 C 0.77529 0.08374 0.9172 0.0
C30 C 0.94158 0.10265 0.95169 0.0
C31 C 0.8725 0.17266 0.11903 0.0
O32 O 0.82376 0.97166 0.03187 0.0
O33 O 0.7392 1.00943 0.09008 0.0
O34 O 0.84869 0.03294 0.15896 0.0
O35 O 0.80119 0.06441 0.90236 0.0
O36 O 0.94361 0.11908 0.00934 0.0
O37 O 0.83883 0.15716 0.07707 0.0
O38 O 0.90054 0.06613 0.92909 0.0
O39 O 0.76549 0.08934 -0.02329 0.0
O40 O 0.89583 0.14844 0.13073 0.0
O41 O 0.74234 0.9759 -0.00262 0.0
O42 O 0.90068 1.01265 0.04531 0.0
O43 O 0.80528 0.06952 0.17607 0.0
Sc44 Sc 0.03829 0.81211 0.96117 0.0
Sc45 Sc 0.98017 0.72098 0.07262 0.0
Sc46 Sc 0.9782 0.82829 0.08371 0.0
O47 O 0.99142 0.78305 0.03242 0.0
C48 C 0.08659 0.90478 0.03159 0.0
C49 C 0.08876 0.76795 0.05209 0.0
C50 C 1.01817 0.79144 0.18863 0.0
C51 C 0.97897 0.7058 0.91413 0.0
C52 C 0.95466 0.85071 0.94991 0.0
C53 C 0.8888 0.70862 0.1127 0.0
O54 O 0.0863 0.86542 0.02974 0.0
O55 O 0.05389 0.75009 0.09067 0.0
O56 O 1.02401 0.82802 0.15665 0.0
O57 O 0.99496 0.75055 0.8991 0.0
O58 O 0.93796 0.83463 0.00683 0.0
O59 O 0.90464 0.69218 0.06889 0.0
O60 O 0.99192 0.84759 0.92676 0.0
O61 O 0.97657 0.69114 -0.0265 0.0
O62 O 0.91139 0.75603 0.12558 0.0
O63 O 0.08332 0.77942 -0.00653 0.0
O64 O 0.04416 0.90019 0.04256 0.0
O65 O 0.98693 0.74764 0.17229 0.0
Sc66 Sc 0.17503 0.21941 0.35416 0.0
Sc67 Sc 0.28898 0.31782 0.36783 0.0
Sc68 Sc 0.24548 0.23058 0.48168 0.0
O69 O 0.2313 0.26258 0.40882 0.0
C70 C 0.12485 0.19524 0.48659 0.0
C71 C 0.21568 0.34202 0.31982 0.0
C72 C 0.29027 0.33413 0.52844 0.0
C73 C 0.25535 0.25026 0.25034 0.0
C74 C 0.20511 0.14148 0.40425 0.0
C75 C 0.34258 0.27091 0.40499 0.0
O76 O 0.12743 0.21481 0.43092 0.0
O77 O 0.25373 0.35924 0.35544 0.0
O78 O 0.25867 0.29004 0.54271 0.0
O79 O 0.22014 0.21632 0.28102 0.0
O80 O 0.24395 0.1808 0.40926 0.0
O81 O 0.31392 0.26671 0.36174 0.0
O82 O 0.16735 0.14654 0.39435 0.0
O83 O 0.27455 0.29474 0.26737 0.0
O84 O 0.32617 0.26711 0.46311 0.0
O85 O 0.18596 0.29416 0.31322 0.0
O86 O 0.16271 0.19348 0.50958 0.0
O87 O 0.3089 0.34731 0.47044 0.0
Sc88 Sc 0.84065 0.96577 0.35249 0.0
Sc89 Sc 0.73051 0.9635 0.36546 0.0
Sc90 Sc 0.82372 0.02536 0.4746 0.0
O91 O 0.79439 0.97789 0.40367 0.0
C92 C 0.86294 0.9426 0.48782 0.0
C93 C 0.72352 0.87385 0.31919 0.0
C94 C 0.71831 0.95984 0.5252 0.0
C95 C 0.80284 1.01021 0.25142 0.0
C96 C 0.91537 0.0753 0.40214 0.0
C97 C 0.77373 0.07254 0.38854 0.0
O98 O 0.84717 0.92523 0.43083 0.0
O99 O 0.70574 0.88849 0.36279 0.0
O100 O 0.76396 0.98073 0.53807 0.0
O101 O 0.83908 1.01239 0.28082 0.0
O102 O 0.87542 0.07386 0.4041 0.0
O103 O 0.75223 0.03604 0.353 0.0
O104 O 0.91136 0.03286 0.39382 0.0
O105 O 0.75884 0.97742 0.26539 0.0
O106 O 0.7898 0.06961 0.4451 0.0
O107 O 0.77102 0.89774 0.30774 0.0
O108 O 0.86059 0.98065 0.50902 0.0
O109 O 0.70132 0.95472 0.46652 0.0
Sc110 Sc 0.09097 0.88324 0.355 0.0
Sc111 Sc 0.07529 0.76945 0.36913 0.0
Sc112 Sc 1.03118 0.81296 0.4828 0.0
O113 O 0.07756 0.82707 0.40995 0.0
C114 C 0.11686 0.93305 0.48796 0.0
C115 C 0.17297 0.84242 0.32139 0.0
C116 C 0.08993 0.76805 0.52952 0.0
C117 C 0.04212 0.80278 0.25096 0.0
C118 C 0.98308 0.85425 0.40541 0.0
C119 C 0.9745 0.71651 0.40554 0.0
O120 O 0.13377 0.93053 0.43218 0.0
O121 O 0.15204 0.80438 0.35702 0.0
O122 O 0.07724 0.79945 0.54403 0.0
O123 O 0.04302 0.83803 0.28123 0.0
O124 O 0.983 0.81512 0.41069 0.0
O125 O 0.99938 0.74543 0.36278 0.0
O126 O 1.02607 0.89159 0.39483 0.0
O127 O 0.06739 0.78381 0.2687 0.0
O128 O 0.98678 0.73246 0.46387 0.0
O129 O 0.15483 0.87213 0.31464 0.0
O130 O 0.07705 0.89544 0.51086 0.0
O131 O 0.08448 0.74951 0.47155 0.0
Sc132 Sc 0.82576 0.80994 -0.01569 0.0
Sc133 Sc 0.74011 0.76702 0.86755 0.0
Sc134 Sc 0.83768 0.88158 0.85715 0.0
O135 O 0.7943 0.82448 0.9108 0.0
C136 C 0.8599 0.93017 -0.00912 0.0
C137 C 0.72035 0.76026 0.02765 0.0
C138 C 0.71483 0.84018 0.82224 0.0
C139 C 0.78917 0.71528 0.90424 0.0
C140 C 0.9163 0.85239 0.9071 0.0
C141 C 0.80815 0.80292 0.7512 0.0
O142 O 0.86097 0.89205 0.01415 0.0
O143 O 0.70903 0.7439 0.96849 0.0
O144 O 0.76269 0.87033 0.81632 0.0
O145 O 0.79214 0.73047 0.96287 0.0
O146 O 0.91099 0.88998 0.89711 0.0
O147 O 0.76361 0.78353 0.76771 0.0
O148 O 0.87717 0.81344 0.9129 0.0
O149 O 0.79303 0.74433 0.86173 0.0
O150 O 0.84182 0.83769 0.78285 0.0
O151 O 0.76379 0.79266 0.04429 0.0
O152 O 0.84139 0.92822 0.93461 0.0
O153 O 0.69768 0.80135 0.85629 0.0
Sc154 Sc 0.2468 0.02802 -0.01792 0.0
Sc155 Sc 0.29004 0.98393 0.8683 0.0
Sc156 Sc 0.176 0.96802 0.85459 0.0
O157 O 0.23243 0.98157 0.90928 0.0
C158 C 0.12649 0.94259 -0.01244 0.0
C159 C 0.29141 0.96913 0.0293 0.0
C160 C 0.2168 0.88618 0.82043 0.0
C161 C 0.34353 0.08442 0.9048 0.0
C162 C 0.20549 0.07592 0.90434 0.0
C163 C 0.25628 1.01764 0.75048 0.0
O164 O 0.16425 0.98239 0.01027 0.0
O165 O 0.3097 0.9742 -0.02889 0.0
O166 O 0.18699 0.90421 0.81401 0.0
O167 O 0.32749 0.07214 0.96311 0.0
O168 O 0.16797 0.033 0.89418 0.0
O169 O 0.27587 0.99276 0.76776 0.0
O170 O 0.24464 0.07601 0.90971 0.0
O171 O 0.31441 0.05987 0.86208 0.0
O172 O 0.22078 1.01595 0.78095 0.0
O173 O 0.26016 0.98205 0.04367 0.0
O174 O 0.12888 0.92545 0.9319 0.0
O175 O 0.25502 0.90721 0.85573 0.0
Sc176 Sc 1.02994 0.23035 -0.01636 0.0
Sc177 Sc 0.0734 0.31671 0.86849 0.0
Sc178 Sc 0.08865 0.21824 0.85559 0.0
O179 O 0.07566 0.26158 0.90992 0.0
C180 C 0.11496 0.19502 -0.01141 0.0
C181 C 0.08917 0.33408 0.02887 0.0
C182 C 0.17097 0.34073 0.82076 0.0
C183 C 0.97331 0.27038 0.90627 0.0
C184 C 0.98073 0.14054 0.90759 0.0
C185 C 0.03974 0.24898 0.7507 0.0
O186 O 0.07542 0.19328 0.01175 0.0
O187 O 0.08333 0.34679 0.97077 0.0
O188 O 0.15271 0.29284 0.81438 0.0
O189 O 0.98603 0.26701 0.9645 0.0
O190 O 1.02344 0.1456 0.89642 0.0
O191 O 0.06469 0.29339 0.76815 0.0
O192 O 0.98084 0.17965 0.91294 0.0
O193 O 0.99735 0.26531 0.8632 0.0
O194 O 0.04065 0.21493 0.78166 0.0
O195 O 0.07681 0.29014 0.04366 0.0
O196 O 0.13168 0.21411 0.93263 0.0
O197 O 0.15008 0.35809 0.85596 0.0
Sc198 Sc 0.82214 0.81327 0.46493 0.0
Sc199 Sc 0.79279 0.7206 0.57418 0.0
Sc200 Sc 0.90066 0.8314 0.58558 0.0
O201 O 0.8414 0.7848 0.5356 0.0
C202 C 0.9444 0.85327 0.45022 0.0
C203 C 0.7803 0.7073 0.41537 0.0
C204 C 0.8766 0.71436 0.61664 0.0
C205 C 0.72583 0.76337 0.55478 0.0
C206 C 0.86574 0.90606 0.53371 0.0
C207 C 0.82211 0.79223 0.68937 0.0
O208 O 0.90341 0.84956 0.42868 0.0
O209 O 0.76939 0.69071 0.47422 0.0
O210 O 0.89997 0.76177 0.62881 0.0
O211 O 0.74453 0.77983 0.49803 0.0
O212 O 0.90398 0.90198 0.54374 0.0
O213 O 0.81054 0.74856 0.67347 0.0
O214 O 0.82688 0.86644 0.53346 0.0
O215 O 0.74119 0.74172 0.58971 0.0
O216 O 0.85408 0.82931 0.65914 0.0
O217 O 0.80558 0.75279 0.40207 0.0
O218 O 0.94669 0.83842 0.50736 0.0
O219 O 0.84386 0.69673 0.57332 0.0
Sc220 Sc 0.24816 1.02287 0.4626 0.0
Sc221 Sc 0.33924 0.08437 0.57443 0.0
Sc222 Sc 0.22916 0.08244 0.58422 0.0
O223 O 0.2759 0.07004 0.53422 0.0
C224 C 0.20707 0.10417 0.44871 0.0
C225 C 0.3547 0.08507 0.41569 0.0
C226 C 0.34665 0.175 0.61576 0.0
C227 C 0.2962 0.97545 0.55316 0.0
C228 C 0.15471 0.97328 0.5316 0.0
C229 C 0.26754 0.04266 0.68879 0.0
O230 O 0.21151 0.06746 0.42666 0.0
O231 O 0.36989 0.09008 0.47521 0.0
O232 O 0.2991 0.15125 0.62724 0.0
O233 O 0.28185 0.97906 0.49557 0.0
O234 O 0.15845 1.01529 0.54285 0.0
O235 O 0.31124 0.07496 0.67352 0.0
O236 O 0.19435 0.97402 0.52997 0.0
O237 O 0.31554 1.01126 0.59036 0.0
O238 O 0.23077 0.03765 0.65789 0.0
O239 O 0.30961 0.06668 0.40065 0.0
O240 O 0.222 0.12133 0.50586 0.0
O241 O 0.36459 0.15956 0.57331 0.0
Sc242 Sc 0.0352 0.2373 0.46223 0.0
Sc243 Sc 0.97391 0.26699 0.57431 0.0
Sc244 Sc 0.97523 0.15839 0.58293 0.0
O245 O 0.98826 0.21809 0.53387 0.0
C246 C 0.95206 0.11526 0.44691 0.0
C247 C 0.97336 0.28261 0.41595 0.0
C248 C 0.88409 0.18437 0.61638 0.0
C249 C 0.08337 0.33206 0.55446 0.0
C250 C 0.08431 0.19249 0.53013 0.0
C251 C 1.01524 0.23569 0.68859 0.0
O252 O 0.98939 0.15622 0.42532 0.0
O253 O 0.96806 0.29237 0.47552 0.0
O254 O 0.90749 0.16027 0.62757 0.0
O255 O 0.0802 0.31423 0.49685 0.0
O256 O 0.042 0.15432 0.54051 0.0
O257 O 0.98349 0.24781 0.67309 0.0
O258 O 0.08382 0.23149 0.52918 0.0
O259 O 0.04684 0.31681 0.59024 0.0
O260 O 1.02035 0.20413 0.65719 0.0
O261 O 0.992 0.25617 0.40073 0.0
O262 O 0.93504 0.11296 0.50415 0.0
O263 O 0.89893 0.21685 0.57277 0.0
Sc264 Sc 0.91473 0.57252 0.29563 0.0
Sc265 Sc 1.00645 0.60149 0.40683 0.0
Sc266 Sc 0.89577 0.4935 0.41644 0.0
O267 O 0.94265 0.55295 0.36684 0.0
C268 C 0.82073 0.52796 0.36463 0.0
C269 C 0.96189 0.66678 0.38835 0.0
C270 C 0.93424 0.57117 0.52136 0.0
C271 C 1.02213 0.61748 0.2483 0.0
C272 C 0.87461 0.45028 0.28052 0.0
C273 C 1.01298 0.5178 0.44798 0.0
O274 O 0.86037 0.56686 0.36306 0.0
O275 O 0.98423 0.65198 0.42288 0.0
O276 O 0.89737 0.53963 0.49038 0.0
O277 O 0.97685 0.59167 0.23339 0.0
O278 O 0.88889 0.44778 0.33795 0.0
O279 O 1.03089 0.55092 0.4052 0.0
O280 O 0.87919 0.49154 0.25855 0.0
O281 O 0.03743 0.62661 0.30783 0.0
O282 O 0.96548 0.49429 0.45967 0.0
O283 O 0.94667 0.64916 0.33083 0.0
O284 O 0.82497 0.48986 0.37493 0.0
O285 O 0.97795 0.58267 0.50583 0.0
Sc286 Sc 0.48737 0.35606 0.29611 0.0
Sc287 Sc 0.45783 0.41762 0.40791 0.0
Sc288 Sc 0.56635 0.41593 0.4168 0.0
O289 O 0.50665 0.40305 0.36765 0.0
C290 C 0.53218 0.30708 0.36386 0.0
C291 C 0.39252 0.30806 0.38835 0.0
C292 C 0.48886 0.3759 0.52224 0.0
C293 C 0.44228 0.41811 0.24946 0.0
C294 C 0.6096 0.43903 0.28088 0.0
C295 C 0.54059 0.50706 0.45044 0.0
O296 O 0.49325 0.3077 0.36333 0.0
O297 O 0.40747 0.34481 0.42365 0.0
O298 O 0.52045 0.37078 0.49088 0.0
O299 O 0.46843 0.39912 0.23439 0.0
O300 O 0.61194 0.45606 0.33813 0.0
O301 O 0.50838 0.49247 0.40649 0.0
O302 O 0.56851 0.40186 0.25926 0.0
O303 O 0.4327 0.42373 0.30901 0.0
O304 O 0.56458 0.48357 0.46173 0.0
O305 O 0.41046 0.31098 0.33087 0.0
O306 O 0.5704 0.34934 0.37412 0.0
O307 O 0.47676 0.40767 0.50674 0.0
Sc308 Sc 0.70342 0.14755 0.28958 0.0
Sc309 Sc 0.65571 0.06205 0.40686 0.0
Sc310 Sc 0.64448 0.16351 0.4157 0.0
O311 O 0.65697 0.11848 0.36316 0.0
C312 C 0.75281 0.23954 0.36263 0.0
C313 C 0.75865 0.10804 0.37305 0.0
C314 C 0.68789 0.12984 0.52302 0.0
C315 C 0.64599 0.04204 0.24695 0.0
C316 C 0.62112 0.18646 0.28098 0.0
C317 C 0.55801 0.04223 0.44979 0.0
O318 O 0.75233 0.20013 0.35829 0.0
O319 O 0.73254 0.10992 0.41624 0.0
O320 O 0.69041 0.16517 0.49119 0.0
O321 O 0.65791 0.0856 0.23005 0.0
O322 O 0.60421 0.16948 0.33765 0.0
O323 O 0.5785 0.02384 0.41552 0.0
O324 O 0.65879 0.18451 0.25778 0.0
O325 O 0.64925 0.03044 0.30664 0.0
O326 O 0.57768 0.09029 0.45607 0.0
O327 O 0.7472 0.11211 0.3143 0.0
O328 O 0.71069 0.23533 0.3751 0.0
O329 O 0.66078 0.08578 0.50582 0.0
Sc330 Sc 0.84355 0.55435 0.68845 0.0
Sc331 Sc 0.9579 0.65214 0.70068 0.0
Sc332 Sc 0.91466 0.56493 0.81523 0.0
O333 O 0.9004 0.59716 0.74249 0.0
C334 C 0.79454 0.53096 0.82194 0.0
C335 C 0.88458 0.67718 0.65447 0.0
C336 C 0.96136 0.66891 0.86116 0.0
C337 C 0.92313 0.58471 0.58331 0.0
C338 C 0.8727 0.47545 0.73814 0.0
C339 C 1.01082 0.60421 0.73716 0.0
O340 O 0.79688 0.55032 0.76618 0.0
O341 O 0.92309 0.69421 0.6892 0.0
O342 O 0.92954 0.62503 0.87616 0.0
O343 O 0.88787 0.55085 0.61413 0.0
O344 O 0.91188 0.51447 0.74294 0.0
O345 O 0.98203 0.60038 0.69427 0.0
O346 O 0.8353 0.48115 0.72836 0.0
O347 O 0.94257 0.62916 0.60042 0.0
O348 O 0.99487 0.60034 0.7955 0.0
O349 O 0.85464 0.62934 0.64801 0.0
O350 O 0.83229 0.5288 0.84446 0.0
O351 O 0.97906 0.68173 0.80273 0.0
Sc352 Sc 0.50612 0.30214 0.68915 0.0
Sc353 Sc 0.4077 0.31752 0.70206 0.0
Sc354 Sc 0.49405 0.36072 0.81739 0.0
O355 O 0.46282 0.31517 0.74347 0.0
C356 C 0.52951 0.27588 0.82221 0.0
C357 C 0.38359 0.22 0.65393 0.0
C358 C 0.39022 0.30134 0.86236 0.0
C359 C 0.4755 0.35132 0.58432 0.0
C360 C 0.58398 0.41004 0.74127 0.0
C361 C 0.45414 0.41752 0.74031 0.0
O362 O 0.51027 0.25911 0.7663 0.0
O363 O 0.36619 0.24089 0.68906 0.0
O364 O 0.43417 0.31368 0.87718 0.0
O365 O 0.50947 0.35016 0.61518 0.0
O366 O 0.5449 0.41 0.74703 0.0
O367 O 0.4592 0.39354 0.69715 0.0
O368 O 0.57878 0.36729 0.73 0.0
O369 O 0.43106 0.32649 0.60174 0.0
O370 O 0.45739 0.40463 0.79847 0.0
O371 O 0.43151 0.23818 0.6478 0.0
O372 O 0.53125 0.31539 0.84536 0.0
O373 O 0.37754 0.30734 0.80432 0.0
Sc374 Sc 0.75882 0.21848 0.69064 0.0
Sc375 Sc 0.74335 0.10441 0.70259 0.0
Sc376 Sc 0.6976 0.14597 0.81587 0.0
O377 O 0.74461 0.16122 0.74404 0.0
C378 C 0.78336 0.26649 0.82366 0.0
C379 C 0.84055 0.17794 0.65633 0.0
C380 C 0.75596 0.10086 0.86341 0.0
C381 C 0.71245 0.1414 0.58458 0.0
C382 C 0.65029 0.18783 0.73868 0.0
C383 C 0.64185 0.04889 0.73683 0.0
O384 O 0.80107 0.26445 0.76842 0.0
O385 O 0.82016 0.14051 0.69301 0.0
O386 O 0.74304 0.1321 0.87782 0.0
O387 O 0.71193 0.17529 0.61607 0.0
O388 O 0.65047 0.14875 0.74266 0.0
O389 O 0.66693 0.07741 0.69367 0.0
O390 O 0.69334 0.22564 0.73032 0.0
O391 O 0.73682 0.1214 0.6026 0.0
O392 O 0.65375 0.06533 0.79515 0.0
O393 O 0.8225 0.20765 0.64947 0.0
O394 O 0.74327 0.22851 0.84558 0.0
O395 O 0.75128 0.08292 0.80506 0.0
Sc396 Sc 0.4945 0.14649 0.31495 0.0
Sc397 Sc 0.40691 0.10241 0.2014 0.0
Sc398 Sc 0.50469 0.2167 0.18724 0.0
O399 O 0.46207 0.16033 0.24212 0.0
C400 C 0.52919 0.26671 0.31992 0.0
C401 C 0.39118 0.10166 0.36219 0.0
C402 C 0.38196 0.1753 0.15352 0.0
C403 C 0.45464 0.04952 0.23846 0.0
C404 C 0.58318 0.18773 0.23729 0.0
C405 C 0.47401 0.13592 0.08336 0.0
O406 O 0.53139 0.22907 0.34267 0.0
O407 O 0.37791 0.08306 0.3042 0.0
O408 O 0.42974 0.20526 0.14686 0.0
O409 O 0.45839 0.06588 0.29658 0.0
O410 O 0.57791 0.22525 0.22683 0.0
O411 O 0.42955 0.11624 0.10073 0.0
O412 O 0.54416 0.14861 0.24229 0.0
O413 O 0.45847 0.07803 0.19523 0.0
O414 O 0.50777 0.17167 0.11366 0.0
O415 O 0.43529 0.13312 0.37652 0.0
O416 O 0.50923 0.26403 0.26448 0.0
O417 O 0.36498 0.13717 0.18892 0.0
Sc418 Sc 0.91309 0.3622 0.3149 0.0
Sc419 Sc 0.956 0.31701 0.20169 0.0
Sc420 Sc 0.84277 0.30273 0.18696 0.0
O421 O 0.89864 0.31557 0.24226 0.0
C422 C 0.79265 0.2778 0.31933 0.0
C423 C 0.95697 0.30275 0.36247 0.0
C424 C 0.88179 0.21885 0.15542 0.0
C425 C 1.00973 0.41797 0.23814 0.0
C426 C 0.8732 0.41112 0.23633 0.0
C427 C 0.92352 0.35106 0.08342 0.0
O428 O 0.83052 0.31718 0.34261 0.0
O429 O 0.97542 0.30771 0.30447 0.0
O430 O 0.85267 0.23766 0.14808 0.0
O431 O 0.9936 0.40585 0.2964 0.0
O432 O 0.83542 0.36844 0.22576 0.0
O433 O 0.94219 0.32539 0.10086 0.0
O434 O 0.91196 0.41056 0.24221 0.0
O435 O 0.98102 0.39308 0.19515 0.0
O436 O 0.88842 0.35024 0.11377 0.0
O437 O 0.92585 0.31589 0.37668 0.0
O438 O 0.79503 0.26088 0.26356 0.0
O439 O 0.92036 0.24006 0.19004 0.0
Sc440 Sc 0.6982 0.56703 0.30901 0.0
Sc441 Sc 0.7582 0.66059 0.2005 0.0
Sc442 Sc 0.75793 0.55204 0.18613 0.0
O443 O 0.74528 0.59727 0.23833 0.0
C444 C 0.78322 0.53038 0.32015 0.0
C445 C 0.76199 0.67254 0.35988 0.0
C446 C 0.84727 0.67049 0.15425 0.0
C447 C 0.64904 0.61437 0.22205 0.0
C448 C 0.64936 0.47586 0.23607 0.0
C449 C 0.71329 0.58871 0.08525 0.0
O450 O 0.74475 0.53163 0.34235 0.0
O451 O 0.76579 0.68935 0.30137 0.0
O452 O 0.82399 0.62319 0.14135 0.0
O453 O 0.65264 0.59956 0.27929 0.0
O454 O 0.69204 0.48043 0.22773 0.0
O455 O 0.74569 0.63274 0.09992 0.0
O456 O 0.6503 0.51552 0.23793 0.0
O457 O 0.68545 0.63637 0.1866 0.0
O458 O 0.71027 0.5525 0.11552 0.0
O459 O 0.74222 0.62698 0.37272 0.0
O460 O 0.79991 0.54658 0.26309 0.0
O461 O 0.83325 0.68685 0.2002 0.0
Sc462 Sc 0.48838 0.1448 0.79632 0.0
Sc463 Sc 0.45909 0.05261 0.90664 0.0
Sc464 Sc 0.56673 0.16364 0.91807 0.0
O465 O 0.50766 0.11677 0.86767 0.0
C466 C 0.61082 0.18558 0.78289 0.0
C467 C 0.44551 0.03805 0.74756 0.0
C468 C 0.54283 0.04686 0.94977 0.0
C469 C 0.39319 0.09654 0.88759 0.0
C470 C 0.53212 0.23807 0.86566 0.0
C471 C 0.48777 0.12462 0.02158 0.0
O472 O 0.56964 0.18097 0.76059 0.0
O473 O 0.43582 1.02225 0.80688 0.0
O474 O 0.56605 0.09426 0.96175 0.0
O475 O 0.41134 0.11252 0.83048 0.0
O476 O 0.57043 0.23437 0.87662 0.0
O477 O 0.4763 0.08089 0.0061 0.0
O478 O 0.49334 0.19838 0.86408 0.0
O479 O 0.40754 0.07356 0.92157 0.0
O480 O 0.51974 0.16152 -0.00893 0.0
O481 O 0.47051 0.08346 0.73332 0.0
O482 O 0.61312 0.1709 0.84015 0.0
O483 O 0.51031 0.02905 0.90622 0.0
Sc484 Sc 0.91372 0.35522 0.79742 0.0
Sc485 Sc 1.00648 0.41815 0.90702 0.0
Sc486 Sc 0.89594 0.41587 0.91819 0.0
O487 O 0.9425 0.40313 0.86788 0.0
C488 C 0.87411 0.43788 0.78273 0.0
C489 C 1.02067 0.41746 0.74835 0.0
C490 C 1.01324 0.5082 0.94911 0.0
C491 C 0.96146 0.30805 0.88902 0.0
C492 C 0.82069 0.30676 0.86775 0.0
C493 C 0.93484 0.37568 0.02149 0.0
O494 O 0.8784 0.40101 0.76085 0.0
O495 O 0.03649 0.42408 0.80763 0.0
O496 O 0.96584 0.4844 0.96125 0.0
O497 O 0.94525 0.31002 0.83201 0.0
O498 O 0.82472 0.34901 0.8774 0.0
O499 O 0.97852 0.40814 0.00626 0.0
O500 O 0.86042 0.30773 0.86671 0.0
O501 O 0.98479 0.34551 0.92267 0.0
O502 O 0.89795 0.37095 -0.00886 0.0
O503 O 0.97526 0.39747 0.73397 0.0
O504 O 0.88872 0.45488 0.84003 0.0
O505 O 1.03077 0.49309 0.90571 0.0
Sc506 Sc 0.70366 0.57148 0.79683 0.0
Sc507 Sc 0.64292 0.60212 0.90927 0.0
Sc508 Sc 0.64588 0.4947 0.92043 0.0
O509 O 0.6571 0.55285 0.86921 0.0
C510 C 0.62209 0.44925 0.78507 0.0
C511 C 0.64084 0.61563 0.75054 0.0
C512 C 0.55248 0.51877 0.95205 0.0
C513 C 0.75212 0.66585 0.88718 0.0
C514 C 0.75443 0.5287 0.86586 0.0
C515 C 0.68841 0.5759 0.02275 0.0
O516 O 0.65836 0.49023 0.76201 0.0
O517 O 0.63583 0.62581 0.81001 0.0
O518 O 0.57682 0.49557 0.96393 0.0
O519 O 0.74851 0.64847 0.82933 0.0
O520 O 0.71261 0.49053 0.87826 0.0
O521 O 0.65461 0.58557 0.00888 0.0
O522 O 0.75336 0.56736 0.86354 0.0
O523 O 0.71572 0.65136 0.92286 0.0
O524 O 0.69241 0.54328 -0.00775 0.0
O525 O 0.65957 0.58925 0.73544 0.0
O526 O 0.60605 0.44731 0.84296 0.0
O527 O 0.5678 0.55226 0.90984 0.0
Sc528 Sc 0.57817 0.90162 0.63187 0.0
Sc529 Sc 0.67152 0.9317 0.74035 0.0
Sc530 Sc 0.5608 0.82367 0.75294 0.0
O531 O 0.60711 0.88283 0.7025 0.0
C532 C 0.48589 0.85785 0.70093 0.0
C533 C 0.62837 0.99848 0.72075 0.0
C534 C 0.5999 0.90299 0.85612 0.0
C535 C 0.68382 0.94232 0.58108 0.0
C536 C 0.53823 0.77944 0.61801 0.0
C537 C 0.67774 0.84813 0.7843 0.0
O538 O 0.52545 0.89676 0.70094 0.0
O539 O 0.65099 0.98382 0.75496 0.0
O540 O 0.56292 0.87052 0.82618 0.0
O541 O 0.63819 0.91772 0.56828 0.0
O542 O 0.55379 0.77749 0.67483 0.0
O543 O 0.69532 0.88058 0.74065 0.0
O544 O 0.54169 0.82027 0.5964 0.0
O545 O 0.70081 0.95362 0.63976 0.0
O546 O 0.63036 0.82472 0.79643 0.0
O547 O 0.61133 0.97939 0.66434 0.0
O548 O 0.49003 0.81972 0.71116 0.0
O549 O 0.64373 0.91513 0.84003 0.0
Sc550 Sc 0.1551 0.68935 0.62878 0.0
Sc551 Sc 0.12551 0.75071 0.74099 0.0
Sc552 Sc 0.23386 0.74896 0.74995 0.0
O553 O 0.17446 0.73642 0.70042 0.0
C554 C 0.1993 0.63981 0.69732 0.0
C555 C 0.06067 0.64124 0.72055 0.0
C556 C 0.15583 0.70863 0.85458 0.0
C557 C 0.11002 0.75141 0.58271 0.0
C558 C 0.27725 0.77132 0.61432 0.0
C559 C 0.20887 0.84126 0.78225 0.0
O560 O 0.16046 0.64062 0.696 0.0
O561 O 0.07586 0.67767 0.7565 0.0
O562 O 0.1877 0.70387 0.82357 0.0
O563 O 0.13648 0.73281 0.56733 0.0
O564 O 0.27956 0.7883 0.67157 0.0
O565 O 0.17549 0.82583 0.73979 0.0
O566 O 0.23614 0.73454 0.59229 0.0
O567 O 0.10025 0.75663 0.64229 0.0
O568 O 0.23271 0.81755 0.79362 0.0
O569 O 0.0782 0.64465 0.66277 0.0
O570 O 0.23756 0.68198 0.70796 0.0
O571 O 0.14447 0.74101 0.83973 0.0
Sc572 Sc 0.36957 0.47734 0.63133 0.0
Sc573 Sc 0.30639 0.38455 0.74095 0.0
Sc574 Sc 0.30852 0.495 0.75164 0.0
O575 O 0.32144 0.44849 0.70162 0.0
C576 C 0.41783 0.57033 0.70152 0.0
C577 C 0.41655 0.4295 0.72301 0.0
C578 C 0.34898 0.45638 0.85512 0.0
C579 C 0.30716 0.37044 0.58229 0.0
C580 C 0.28723 0.51724 0.61609 0.0
C581 C 0.21601 0.37772 0.78273 0.0
O582 O 0.41698 0.53067 0.70061 0.0
O583 O 0.37906 0.40624 0.75663 0.0
O584 O 0.35335 0.49313 0.82484 0.0
O585 O 0.32729 0.41585 0.56792 0.0
O586 O 0.26981 0.50222 0.67312 0.0
O587 O 0.23131 0.36 0.73983 0.0
O588 O 0.32418 0.51298 0.59449 0.0
O589 O 0.30044 0.35457 0.64155 0.0
O590 O 0.23983 0.42516 0.79457 0.0
O591 O 0.41462 0.44567 0.66599 0.0
O592 O 0.37546 0.56614 0.71093 0.0
O593 O 0.31653 0.41265 0.84012 0.0
Sc594 Sc 0.50922 0.88716 0.02294 0.0
Sc595 Sc 0.62364 0.98475 0.03502 0.0
Sc596 Sc 0.58015 0.89873 0.151 0.0
O597 O 0.56589 0.93035 0.07735 0.0
C598 C 0.45986 0.86366 0.15605 0.0
C599 C 0.55069 1.00991 -0.0119 0.0
C600 C 0.62792 1.00355 0.19554 0.0
C601 C 0.58892 0.91704 0.91786 0.0
C602 C 0.53832 0.80882 0.07343 0.0
C603 C 0.67531 0.93579 0.0723 0.0
O604 O 0.46216 0.88291 0.10021 0.0
O605 O 0.58932 0.0271 0.02257 0.0
O606 O 0.596 0.95986 0.21161 0.0
O607 O 0.55366 0.88343 0.94898 0.0
O608 O 0.57722 0.84794 0.07943 0.0
O609 O 0.64639 0.93187 0.02961 0.0
O610 O 0.50071 0.81391 0.06275 0.0
O611 O 0.60862 0.96154 0.93475 0.0
O612 O 0.65997 0.93306 0.13079 0.0
O613 O 0.52058 0.96207 -0.01786 0.0
O614 O 0.49791 0.86258 0.17948 0.0
O615 O 0.645 1.01532 0.13669 0.0
Sc616 Sc 0.17319 0.63484 0.02086 0.0
Sc617 Sc 0.0749 0.65063 0.03385 0.0
Sc618 Sc 0.16269 0.69537 0.1472 0.0
O619 O 0.13025 0.64858 0.07512 0.0
C620 C 0.19668 0.60921 0.15388 0.0
C621 C 0.05046 0.5529 -0.01261 0.0
C622 C 0.0588 0.63731 0.19467 0.0
C623 C 0.1423 0.68359 0.91622 0.0
C624 C 0.25167 0.74294 0.06986 0.0
C625 C 0.12393 0.75252 0.0684 0.0
O626 O 0.17734 0.5921 0.09816 0.0
O627 O 1.03344 0.57382 0.02313 0.0
O628 O 0.10299 0.65019 0.20911 0.0
O629 O 0.17639 0.68265 0.94702 0.0
O630 O 0.21238 0.74253 0.07385 0.0
O631 O 0.12598 0.72657 0.02548 0.0
O632 O 0.24634 0.69994 0.06082 0.0
O633 O 0.09782 0.65821 0.93338 0.0
O634 O 0.12768 0.74044 0.12688 0.0
O635 O 0.09829 0.57103 -0.01965 0.0
O636 O 0.19879 0.6491 0.17635 0.0
O637 O 0.0456 0.64219 0.13641 0.0
Sc638 Sc 0.42277 0.54887 0.02014 0.0
Sc639 Sc 0.40822 0.43547 0.03491 0.0
Sc640 Sc 0.36281 0.47837 0.14775 0.0
O641 O 0.40968 0.49287 0.07541 0.0
C642 C 0.447 0.59892 0.15253 0.0
C643 C 0.50644 0.50967 -0.01133 0.0
C644 C 0.42221 0.43449 0.19583 0.0
C645 C 0.37408 0.46795 0.91675 0.0
C646 C 0.31453 0.51871 0.06914 0.0
C647 C 0.30705 0.38166 0.07102 0.0
O648 O 0.46429 0.59657 0.09698 0.0
O649 O 0.48521 0.47115 0.02336 0.0
O650 O 0.4089 0.4655 0.20993 0.0
O651 O 0.3753 0.50331 0.94689 0.0
O652 O 0.31497 0.47987 0.07455 0.0
O653 O 0.33207 0.41018 0.02796 0.0
O654 O 0.35728 0.55638 0.05879 0.0
O655 O 0.39973 0.44922 0.93406 0.0
O656 O 0.31912 0.39786 0.12926 0.0
O657 O 0.48774 0.53886 -0.01865 0.0
O658 O 0.40766 0.56088 0.17557 0.0
O659 O 0.41747 0.41614 0.1378 0.0
Sc660 Sc 0.16077 0.47883 0.64813 0.0
Sc661 Sc 0.07364 0.43597 0.53393 0.0
Sc662 Sc 0.17245 0.54971 0.5208 0.0
O663 O 0.12905 0.49335 0.57518 0.0
C664 C 0.19645 0.5994 0.65355 0.0
C665 C 0.05706 0.43434 0.69454 0.0
C666 C 0.04991 0.50972 0.4862 0.0
C667 C 0.12035 0.38204 0.571 0.0
C668 C 0.25006 0.5192 0.5713 0.0
C669 C 0.14148 0.4696 0.4166 0.0
O670 O 0.19807 0.56145 0.6764 0.0
O671 O 0.04391 0.41589 0.63644 0.0
O672 O 0.09784 0.53925 0.47973 0.0
O673 O 0.12414 0.39829 0.6292 0.0
O674 O 0.24518 0.55705 0.56119 0.0
O675 O 0.09698 0.45053 0.43356 0.0
O676 O 0.21069 0.48037 0.57594 0.0
O677 O 0.12447 0.41066 0.52775 0.0
O678 O 0.17547 0.50472 0.44737 0.0
O679 O 0.1012 0.46571 0.70898 0.0
O680 O 0.17705 0.59709 0.59783 0.0
O681 O 1.0325 0.47157 0.52162 0.0
Sc682 Sc 0.57847 0.69333 0.64981 0.0
Sc683 Sc 0.62019 0.6474 0.53677 0.0
Sc684 Sc 0.50628 0.6322 0.52421 0.0
O685 O 0.56336 0.64634 0.57797 0.0
C686 C 0.45804 0.60759 0.65735 0.0
C687 C 0.62377 0.63511 0.69711 0.0
C688 C 0.54681 0.55036 0.49067 0.0
C689 C 0.67526 0.74915 0.57067 0.0
C690 C 0.53639 0.74044 0.57314 0.0
C691 C 0.58369 0.67769 0.41817 0.0
O692 O 0.49601 0.6476 0.6794 0.0
O693 O 0.6419 0.64002 0.63895 0.0
O694 O 0.51721 0.56852 0.48343 0.0
O695 O 0.65897 0.73739 0.62905 0.0
O696 O 0.4987 0.69747 0.56394 0.0
O697 O 0.6032 0.65307 0.43678 0.0
O698 O 0.57558 0.74046 0.57682 0.0
O699 O 0.64696 0.72373 0.52745 0.0
O700 O 0.55004 0.67898 0.44947 0.0
O701 O 0.59245 0.64791 0.7116 0.0
O702 O 0.46003 0.58998 0.60197 0.0
O703 O 0.58404 0.5706 0.52774 0.0
Sc704 Sc 0.36617 0.89811 0.64677 0.0
Sc705 Sc 0.41328 0.9853 0.53224 0.0
Sc706 Sc 0.42584 0.88461 0.5207 0.0
O707 O 0.41302 0.92882 0.57394 0.0
C708 C 0.44932 0.86059 0.65524 0.0
C709 C 0.42669 1.00181 0.69339 0.0
C710 C 0.51098 1.00577 0.48528 0.0
C711 C 0.31139 0.93997 0.56867 0.0
C712 C 0.31676 0.80854 0.57007 0.0
C713 C 0.37731 0.91679 0.41603 0.0
O714 O 0.40988 0.85981 0.67675 0.0
O715 O 0.42309 1.01536 0.63474 0.0
O716 O 0.49188 0.95778 0.47976 0.0
O717 O 0.3234 0.93558 0.62684 0.0
O718 O 0.35926 0.8128 0.56041 0.0
O719 O 0.40367 0.96133 0.43228 0.0
O720 O 0.31768 0.84814 0.57467 0.0
O721 O 0.33654 0.93717 0.52508 0.0
O722 O 0.37891 0.88275 0.44613 0.0
O723 O 0.41277 0.95744 0.70802 0.0
O724 O 0.46715 0.87922 0.5994 0.0
O725 O 0.49033 0.02404 0.51944 0.0
Sc726 Sc 0.15392 0.47781 0.12923 0.0
Sc727 Sc 0.12463 0.3863 0.2406 0.0
Sc728 Sc 0.23301 0.49641 0.24997 0.0
O729 O 0.17342 0.44982 0.20046 0.0
C730 C 0.27578 0.51736 0.11388 0.0
C731 C 0.10897 0.37079 0.08214 0.0
C732 C 0.20795 0.37909 0.28154 0.0
C733 C 0.0596 0.43094 0.22152 0.0
C734 C 0.19901 0.5715 0.19787 0.0
C735 C 0.15512 0.45835 0.35483 0.0
O736 O 0.23469 0.51326 0.09221 0.0
O737 O 0.09953 0.35558 0.14167 0.0
O738 O 0.23177 0.42657 0.29319 0.0
O739 O 0.07722 0.44577 0.16393 0.0
O740 O 0.23711 0.56734 0.20852 0.0
O741 O 0.14356 0.41462 0.33953 0.0
O742 O 0.15996 0.53203 0.19677 0.0
O743 O 0.07466 0.4092 0.25673 0.0
O744 O 0.18701 0.49512 0.324 0.0
O745 O 0.13496 0.41595 0.06704 0.0
O746 O 0.27836 0.50286 0.17116 0.0
O747 O 0.17477 0.36134 0.23883 0.0
Sc748 Sc 0.57612 0.68566 0.12222 0.0
Sc749 Sc 0.66218 0.7307 0.2384 0.0
Sc750 Sc 0.5634 0.74563 0.24886 0.0
O751 O 0.60703 0.73214 0.19517 0.0
C752 C 0.53999 0.77035 0.11576 0.0
C753 C 0.68155 0.74106 0.07865 0.0
C754 C 0.68645 0.82887 0.28108 0.0
C755 C 0.6129 0.62832 0.20553 0.0
C756 C 0.48516 0.63832 0.19633 0.0
C757 C 0.59551 0.70144 0.35609 0.0
O758 O 0.54057 0.73215 0.09169 0.0
O759 O 0.69286 0.73629 0.13788 0.0
O760 O 0.63852 0.81031 0.28839 0.0
O761 O 0.60962 0.63996 0.14652 0.0
O762 O 0.49025 0.68082 0.20848 0.0
O763 O 0.6396 0.72696 0.33795 0.0
O764 O 0.52417 0.63811 0.19244 0.0
O765 O 0.61071 0.65469 0.24792 0.0
O766 O 0.56041 0.69885 0.32373 0.0
O767 O 0.63815 0.73011 0.06207 0.0
O768 O 0.55828 0.78702 0.17198 0.0
O769 O 0.70364 0.80772 0.24603 0.0
Sc770 Sc 0.37032 0.90457 0.13025 0.0
Sc771 Sc 0.30847 0.93376 0.24184 0.0
Sc772 Sc 0.30994 0.82514 0.25049 0.0
O773 O 0.32275 0.88485 0.20128 0.0
C774 C 0.28854 0.78214 0.11489 0.0
C775 C 0.30806 0.94921 0.08294 0.0
C776 C 0.21786 0.85025 0.28316 0.0
C777 C 0.41792 0.9994 0.22201 0.0
C778 C 0.41918 0.86032 0.19938 0.0
C779 C 0.35113 0.90311 0.35506 0.0
O780 O 0.32541 0.82346 0.09341 0.0
O781 O 0.30231 0.95867 0.14257 0.0
O782 O 0.24141 0.82626 0.29435 0.0
O783 O 0.41486 0.98161 0.16444 0.0
O784 O 0.37705 0.82181 0.20891 0.0
O785 O 0.31902 0.91506 0.3407 0.0
O786 O 0.41824 0.89906 0.19867 0.0
O787 O 0.38136 0.98394 0.25771 0.0
O788 O 0.35501 0.87077 0.32409 0.0
O789 O 0.32724 0.92319 0.06789 0.0
O790 O 0.27094 0.77964 0.1718 0.0
O791 O 0.23334 0.88361 0.24072 0.0
loop_
_geom_bond_atom_site_label_1
_geom_bond_atom_site_label_2
_geom_bond_distance
_geom_bond_site_symmetry_2
_ccdc_geom_bond_type
Sc0 O3 2.025 1_556 S
Sc0 O10 2.105 . S
Sc0 O13 2.105 . S
Sc0 O16 2.105 . S
Sc0 O19 2.105 . S
Sc1 O3 2.025 . S
Sc1 O11 2.105 . S
Sc1 O15 2.105 . S
Sc1 O17 2.105 . S
Sc1 O21 2.105 . S
Sc2 O3 2.025 . S
Sc2 O12 2.105 . S
Sc2 O14 2.105 . S
Sc2 O18 2.105 . S
Sc2 O20 2.105 . S
O3 Sc0 2.025 1_554 S
O3 Sc1 2.025 . S
O3 Sc2 2.025 . S
C4 O10 1.268 1_554 S
C4 O20 1.268 . S
C5 O11 1.268 . S
C5 O19 1.268 1_554 S
C6 O12 1.268 . S
C6 O21 1.268 . S
C7 O13 1.268 . S
C7 O17 1.268 1_556 S
C8 O14 1.268 1_556 S
C8 O16 1.268 . S
C9 O15 1.268 . S
C9 O18 1.268 . S
O10 Sc0 2.105 . S
O10 C4 1.268 1_556 S
O11 Sc1 2.105 . S
O11 C5 1.268 . S
O12 Sc2 2.105 . S
O12 C6 1.268 . S
O13 Sc0 2.105 . S
O13 C7 1.268 . S
O14 Sc2 2.105 . S
O14 C8 1.268 1_554 S
O15 Sc1 2.105 . S
O15 C9 1.268 . S
O16 Sc0 2.105 . S
O16 C8 1.268 . S
O17 Sc1 2.105 . S
O17 C7 1.268 1_554 S
O18 Sc2 2.105 . S
O18 C9 1.268 . S
O19 Sc0 2.105 . S
O19 C5 1.268 1_556 S
O20 Sc2 2.105 . S
O20 C4 1.268 . S
O21 Sc1 2.105 . S
O21 C6 1.268 . S
Sc22 O25 2.025 1_556 S
Sc22 O32 2.105 1_545 S
Sc22 O35 2.105 . S
Sc22 O38 2.105 . S
Sc22 O41 2.105 1_545 S
Sc23 O25 2.025 . S
Sc23 O33 2.104 1_545 S
Sc23 O37 2.105 . S
Sc23 O39 2.105 . S
Sc23 O43 2.105 . S
Sc24 O25 2.025 . S
Sc24 O34 2.105 . S
Sc24 O36 2.105 . S
Sc24 O40 2.105 . S
Sc24 O42 2.105 1_545 S
O25 Sc22 2.025 1_554 S
O25 Sc23 2.025 . S
O25 Sc24 2.025 . S
C26 O32 1.268 1_554 S
C26 O42 1.268 . S
C27 O33 1.270 . S
C27 O41 1.268 1_554 S
C28 O34 1.268 . S
C28 O43 1.268 . S
C29 O35 1.268 . S
C29 O39 1.268 1_556 S
C30 O36 1.268 1_556 S
C30 O38 1.268 . S
C31 O37 1.268 . S
C31 O40 1.268 . S
O32 Sc22 2.105 1_565 S
O32 C26 1.268 1_556 S
O33 Sc23 2.104 1_565 S
O33 C27 1.270 . S
O34 Sc24 2.105 . S
O34 C28 1.268 . S
O35 Sc22 2.105 . S
O35 C29 1.268 . S
O36 Sc24 2.105 . S
O36 C30 1.268 1_554 S
O37 Sc23 2.105 . S
O37 C31 1.268 . S
O38 Sc22 2.105 . S
O38 C30 1.268 . S
O39 Sc23 2.105 . S
O39 C29 1.268 1_554 S
O40 Sc24 2.105 . S
O40 C31 1.268 . S
O41 Sc22 2.105 1_565 S
O41 C27 1.268 1_556 S
O42 Sc24 2.105 1_565 S
O42 C26 1.268 . S
O43 Sc23 2.105 . S
O43 C28 1.268 . S
Sc44 O47 2.025 1_556 S
Sc44 O54 2.105 1_655 S
Sc44 O57 2.105 . S
Sc44 O60 2.105 . S
Sc44 O63 2.105 1_655 S
Sc45 O47 2.025 . S
Sc45 O55 2.102 1_655 S
Sc45 O59 2.105 . S
Sc45 O61 2.105 . S
Sc45 O65 2.105 . S
Sc46 O47 2.025 . S
Sc46 O56 2.105 . S
Sc46 O58 2.105 . S
Sc46 O62 2.105 . S
Sc46 O64 2.105 1_655 S
O47 Sc44 2.025 1_554 S
O47 Sc45 2.025 . S
O47 Sc46 2.025 . S
C48 O54 1.268 1_554 S
C48 O64 1.268 . S
C49 O55 1.269 . S
C49 O63 1.268 1_554 S
C50 O56 1.268 . S
C50 O65 1.268 . S
C51 O57 1.268 . S
C51 O61 1.268 1_556 S
C52 O58 1.268 1_556 S
C52 O60 1.268 . S
C53 O59 1.268 . S
C53 O62 1.268 . S
O54 Sc44 2.105 1_455 S
O54 C48 1.268 1_556 S
O55 Sc45 2.102 1_455 S
O55 C49 1.269 . S
O56 Sc46 2.105 . S
O56 C50 1.268 . S
O57 Sc44 2.105 . S
O57 C51 1.268 . S
O58 Sc46 2.105 . S
O58 C52 1.268 1_554 S
O59 Sc45 2.105 . S
O59 C53 1.268 . S
O60 Sc44 2.105 . S
O60 C52 1.268 . S
O61 Sc45 2.105 . S
O61 C51 1.268 1_554 S
O62 Sc46 2.105 . S
O62 C53 1.268 . S
O63 Sc44 2.105 1_455 S
O63 C49 1.268 1_556 S
O64 Sc46 2.105 1_455 S
O64 C48 1.268 . S
O65 Sc45 2.105 . S
O65 C50 1.268 . S
Sc66 O69 2.025 . S
Sc66 O76 2.105 . S
Sc66 O79 2.105 . S
Sc66 O82 2.105 . S
Sc66 O85 2.105 . S
Sc67 O69 2.025 . S
Sc67 O77 2.105 . S
Sc67 O81 2.105 . S
Sc67 O83 2.105 . S
Sc67 O87 2.105 . S
Sc68 O69 2.025 . S
Sc68 O78 2.105 . S
Sc68 O80 2.105 . S
Sc68 O84 2.105 . S
Sc68 O86 2.105 . S
O69 Sc66 2.025 . S
O69 Sc67 2.025 . S
O69 Sc68 2.025 . S
C70 O76 1.268 . S
C70 O86 1.268 . S
C71 O77 1.268 . S
C71 O85 1.268 . S
C72 O78 1.268 . S
C72 O87 1.268 . S
C73 O79 1.268 . S
C73 O83 1.268 . S
C74 O80 1.268 . S
C74 O82 1.268 . S
C75 O81 1.268 . S
C75 O84 1.268 . S
O76 Sc66 2.105 . S
O76 C70 1.268 . S
O77 Sc67 2.105 . S
O77 C71 1.268 . S
O78 Sc68 2.105 . S
O78 C72 1.268 . S
O79 Sc66 2.105 . S
O79 C73 1.268 . S
O80 Sc68 2.105 . S
O80 C74 1.268 . S
O81 Sc67 2.105 . S
O81 C75 1.268 . S
O82 Sc66 2.105 . S
O82 C74 1.268 . S
O83 Sc67 2.105 . S
O83 C73 1.268 . S
O84 Sc68 2.105 . S
O84 C75 1.268 . S
O85 Sc66 2.105 . S
O85 C71 1.268 . S
O86 Sc68 2.105 . S
O86 C70 1.268 . S
O87 Sc67 2.105 . S
O87 C72 1.268 . S
Sc88 O91 2.025 . S
Sc88 O98 2.105 . S
Sc88 O101 2.105 . S
Sc88 O104 2.105 1_565 S
Sc88 O107 2.105 . S
Sc89 O91 2.025 . S
Sc89 O99 2.105 . S
Sc89 O103 2.102 1_565 S
Sc89 O105 2.105 . S
Sc89 O109 2.105 . S
Sc90 O91 2.025 . S
Sc90 O100 2.105 . S
Sc90 O102 2.105 1_565 S
Sc90 O106 2.105 1_565 S
Sc90 O108 2.105 . S
O91 Sc88 2.025 . S
O91 Sc89 2.025 . S
O91 Sc90 2.025 . S
C92 O98 1.268 . S
C92 O108 1.268 . S
C93 O99 1.268 . S
C93 O107 1.268 . S
C94 O100 1.268 . S
C94 O109 1.268 . S
C95 O101 1.268 . S
C95 O105 1.268 . S
C96 O102 1.268 . S
C96 O104 1.268 . S
C97 O103 1.269 . S
C97 O106 1.268 . S
O98 Sc88 2.105 . S
O98 C92 1.268 . S
O99 Sc89 2.105 . S
O99 C93 1.268 . S
O100 Sc90 2.105 . S
O100 C94 1.268 . S
O101 Sc88 2.105 . S
O101 C95 1.268 . S
O102 Sc90 2.105 1_545 S
O102 C96 1.268 . S
O103 Sc89 2.102 1_545 S
O103 C97 1.269 . S
O104 Sc88 2.105 1_545 S
O104 C96 1.268 . S
O105 Sc89 2.105 . S
O105 C95 1.268 . S
O106 Sc90 2.105 1_545 S
O106 C97 1.268 . S
O107 Sc88 2.105 . S
O107 C93 1.268 . S
O108 Sc90 2.105 . S
O108 C92 1.268 . S
O109 Sc89 2.105 . S
O109 C94 1.268 . S
Sc110 O113 2.025 . S
Sc110 O120 2.105 . S
Sc110 O123 2.105 . S
Sc110 O126 2.105 1_455 S
Sc110 O129 2.105 . S
Sc111 O113 2.025 . S
Sc111 O121 2.105 . S
Sc111 O125 2.104 1_455 S
Sc111 O127 2.105 . S
Sc111 O131 2.105 . S
Sc112 O113 2.025 . S
Sc112 O122 2.105 . S
Sc112 O124 2.105 1_455 S
Sc112 O128 2.105 1_455 S
Sc112 O130 2.105 . S
O113 Sc110 2.025 . S
O113 Sc111 2.025 . S
O113 Sc112 2.025 . S
C114 O120 1.268 . S
C114 O130 1.268 . S
C115 O121 1.268 . S
C115 O129 1.268 . S
C116 O122 1.268 . S
C116 O131 1.268 . S
C117 O123 1.268 . S
C117 O127 1.268 . S
C118 O124 1.268 . S
C118 O126 1.268 . S
C119 O125 1.270 . S
C119 O128 1.268 . S
O120 Sc110 2.105 . S
O120 C114 1.268 . S
O121 Sc111 2.105 . S
O121 C115 1.268 . S
O122 Sc112 2.105 . S
O122 C116 1.268 . S
O123 Sc110 2.105 . S
O123 C117 1.268 . S
O124 Sc112 2.105 1_655 S
O124 C118 1.268 . S
O125 Sc111 2.104 1_655 S
O125 C119 1.270 . S
O126 Sc110 2.105 1_655 S
O126 C118 1.268 . S
O127 Sc111 2.105 . S
O127 C117 1.268 . S
O128 Sc112 2.105 1_655 S
O128 C119 1.268 . S
O129 Sc110 2.105 . S
O129 C115 1.268 . S
O130 Sc112 2.105 . S
O130 C114 1.268 . S
O131 Sc111 2.105 . S
O131 C116 1.268 . S
Sc132 O135 2.025 1_554 S
Sc132 O142 2.105 . S
Sc132 O145 2.105 . S
Sc132 O148 2.105 . S
Sc132 O151 2.105 . S
Sc133 O135 2.025 . S
Sc133 O143 2.105 . S
Sc133 O147 2.105 . S
Sc133 O149 2.105 . S
Sc133 O153 2.105 . S
Sc134 O135 2.025 . S
Sc134 O144 2.105 . S
Sc134 O146 2.105 . S
Sc134 O150 2.105 . S
Sc134 O152 2.105 . S
O135 Sc132 2.025 1_556 S
O135 Sc133 2.025 . S
O135 Sc134 2.025 . S
C136 O142 1.268 . S
C136 O152 1.268 1_554 S
C137 O143 1.268 1_554 S
C137 O151 1.268 . S
C138 O144 1.268 . S
C138 O153 1.268 . S
C139 O145 1.268 1_556 S
C139 O149 1.268 . S
C140 O146 1.268 . S
C140 O148 1.268 1_556 S
C141 O147 1.268 . S
C141 O150 1.268 . S
O142 Sc132 2.105 . S
O142 C136 1.268 . S
O143 Sc133 2.105 . S
O143 C137 1.268 1_556 S
O144 Sc134 2.105 . S
O144 C138 1.268 . S
O145 Sc132 2.105 . S
O145 C139 1.268 1_554 S
O146 Sc134 2.105 . S
O146 C140 1.268 . S
O147 Sc133 2.105 . S
O147 C141 1.268 . S
O148 Sc132 2.105 . S
O148 C140 1.268 1_554 S
O149 Sc133 2.105 . S
O149 C139 1.268 . S
O150 Sc134 2.105 . S
O150 C141 1.268 . S
O151 Sc132 2.105 . S
O151 C137 1.268 . S
O152 Sc134 2.105 . S
O152 C136 1.268 1_556 S
O153 Sc133 2.105 . S
O153 C138 1.268 . S
Sc154 O157 2.025 1_554 S
Sc154 O164 2.105 . S
Sc154 O167 2.105 1_565 S
Sc154 O170 2.105 1_565 S
Sc154 O173 2.105 . S
Sc155 O157 2.025 . S
Sc155 O165 2.105 . S
Sc155 O169 2.105 . S
Sc155 O171 2.104 1_565 S
Sc155 O175 2.105 . S
Sc156 O157 2.025 . S
Sc156 O166 2.105 . S
Sc156 O168 2.105 1_565 S
Sc156 O172 2.105 . S
Sc156 O174 2.105 . S
O157 Sc154 2.025 1_556 S
O157 Sc155 2.025 . S
O157 Sc156 2.025 . S
C158 O164 1.268 . S
C158 O174 1.268 1_554 S
C159 O165 1.268 1_554 S
C159 O173 1.268 . S
C160 O166 1.268 . S
C160 O175 1.268 . S
C161 O167 1.268 1_556 S
C161 O171 1.270 . S
C162 O168 1.268 . S
C162 O170 1.268 1_556 S
C163 O169 1.268 . S
C163 O172 1.268 . S
O164 Sc154 2.105 . S
O164 C158 1.268 . S
O165 Sc155 2.105 . S
O165 C159 1.268 1_556 S
O166 Sc156 2.105 . S
O166 C160 1.268 . S
O167 Sc154 2.105 1_545 S
O167 C161 1.268 1_554 S
O168 Sc156 2.105 1_545 S
O168 C162 1.268 . S
O169 Sc155 2.105 . S
O169 C163 1.268 . S
O170 Sc154 2.105 1_545 S
O170 C162 1.268 1_554 S
O171 Sc155 2.104 1_545 S
O171 C161 1.270 . S
O172 Sc156 2.105 . S
O172 C163 1.268 . S
O173 Sc154 2.105 . S
O173 C159 1.268 . S
O174 Sc156 2.105 . S
O174 C158 1.268 1_556 S
O175 Sc155 2.105 . S
O175 C160 1.268 . S
Sc176 O179 2.025 1_554 S
Sc176 O186 2.105 . S
Sc176 O189 2.105 1_455 S
Sc176 O192 2.105 1_455 S
Sc176 O195 2.105 . S
Sc177 O179 2.025 . S
Sc177 O187 2.105 . S
Sc177 O191 2.105 . S
Sc177 O193 2.102 1_455 S
Sc177 O197 2.105 . S
Sc178 O179 2.025 . S
Sc178 O188 2.105 . S
Sc178 O190 2.105 1_455 S
Sc178 O194 2.105 . S
Sc178 O196 2.105 . S
O179 Sc176 2.025 1_556 S
O179 Sc177 2.025 . S
O179 Sc178 2.025 . S
C180 O186 1.268 . S
C180 O196 1.268 1_554 S
C181 O187 1.268 1_554 S
C181 O195 1.268 . S
C182 O188 1.268 . S
C182 O197 1.268 . S
C183 O189 1.268 1_556 S
C183 O193 1.269 . S
C184 O190 1.268 . S
C184 O192 1.268 1_556 S
C185 O191 1.268 . S
C185 O194 1.268 . S
O186 Sc176 2.105 . S
O186 C180 1.268 . S
O187 Sc177 2.105 . S
O187 C181 1.268 1_556 S
O188 Sc178 2.105 . S
O188 C182 1.268 . S
O189 Sc176 2.105 1_655 S
O189 C183 1.268 1_554 S
O190 Sc178 2.105 1_655 S
O190 C184 1.268 . S
O191 Sc177 2.105 . S
O191 C185 1.268 . S
O192 Sc176 2.105 1_655 S
O192 C184 1.268 1_554 S
O193 Sc177 2.102 1_655 S
O193 C183 1.269 . S
O194 Sc178 2.105 . S
O194 C185 1.268 . S
O195 Sc176 2.105 . S
O195 C181 1.268 . S
O196 Sc178 2.105 . S
O196 C180 1.268 1_556 S
O197 Sc177 2.105 . S
O197 C182 1.268 . S
Sc198 O201 2.025 . S
Sc198 O208 2.105 . S
Sc198 O211 2.105 . S
Sc198 O214 2.105 . S
Sc198 O217 2.105 . S
Sc199 O201 2.025 . S
Sc199 O209 2.105 . S
Sc199 O213 2.105 . S
Sc199 O215 2.105 . S
Sc199 O219 2.105 . S
Sc200 O201 2.025 . S
Sc200 O210 2.105 . S
Sc200 O212 2.105 . S
Sc200 O216 2.105 . S
Sc200 O218 2.105 . S
O201 Sc198 2.025 . S
O201 Sc199 2.025 . S
O201 Sc200 2.025 . S
C202 O208 1.268 . S
C202 O218 1.268 . S
C203 O209 1.268 . S
C203 O217 1.268 . S
C204 O210 1.268 . S
C204 O219 1.268 . S
C205 O211 1.268 . S
C205 O215 1.268 . S
C206 O212 1.268 . S
C206 O214 1.268 . S
C207 O213 1.268 . S
C207 O216 1.268 . S
O208 Sc198 2.105 . S
O208 C202 1.268 . S
O209 Sc199 2.105 . S
O209 C203 1.268 . S
O210 Sc200 2.105 . S
O210 C204 1.268 . S
O211 Sc198 2.105 . S
O211 C205 1.268 . S
O212 Sc200 2.105 . S
O212 C206 1.268 . S
O213 Sc199 2.105 . S
O213 C207 1.268 . S
O214 Sc198 2.105 . S
O214 C206 1.268 . S
O215 Sc199 2.105 . S
O215 C205 1.268 . S
O216 Sc200 2.105 . S
O216 C207 1.268 . S
O217 Sc198 2.105 . S
O217 C203 1.268 . S
O218 Sc200 2.105 . S
O218 C202 1.268 . S
O219 Sc199 2.105 . S
O219 C204 1.268 . S
Sc220 O223 2.025 . S
Sc220 O230 2.105 . S
Sc220 O233 2.105 1_545 S
Sc220 O236 2.105 1_545 S
Sc220 O239 2.105 . S
Sc221 O223 2.025 . S
Sc221 O231 2.105 . S
Sc221 O235 2.105 . S
Sc221 O237 2.102 1_545 S
Sc221 O241 2.105 . S
Sc222 O223 2.025 . S
Sc222 O232 2.105 . S
Sc222 O234 2.105 1_545 S
Sc222 O238 2.105 . S
Sc222 O240 2.105 . S
O223 Sc220 2.025 . S
O223 Sc221 2.025 . S
O223 Sc222 2.025 . S
C224 O230 1.268 . S
C224 O240 1.268 . S
C225 O231 1.268 . S
C225 O239 1.268 . S
C226 O232 1.268 . S
C226 O241 1.268 . S
C227 O233 1.268 . S
C227 O237 1.269 . S
C228 O234 1.268 . S
C228 O236 1.268 . S
C229 O235 1.268 . S
C229 O238 1.268 . S
O230 Sc220 2.105 . S
O230 C224 1.268 . S
O231 Sc221 2.105 . S
O231 C225 1.268 . S
O232 Sc222 2.105 . S
O232 C226 1.268 . S
O233 Sc220 2.105 1_565 S
O233 C227 1.268 . S
O234 Sc222 2.105 1_565 S
O234 C228 1.268 . S
O235 Sc221 2.105 . S
O235 C229 1.268 . S
O236 Sc220 2.105 1_565 S
O236 C228 1.268 . S
O237 Sc221 2.102 1_565 S
O237 C227 1.269 . S
O238 Sc222 2.105 . S
O238 C229 1.268 . S
O239 Sc220 2.105 . S
O239 C225 1.268 . S
O240 Sc222 2.105 . S
O240 C224 1.268 . S
O241 Sc221 2.105 . S
O241 C226 1.268 . S
Sc242 O245 2.025 . S
Sc242 O252 2.105 . S
Sc242 O255 2.105 1_655 S
Sc242 O258 2.105 1_655 S
Sc242 O261 2.105 . S
Sc243 O245 2.025 . S
Sc243 O253 2.105 . S
Sc243 O257 2.105 . S
Sc243 O259 2.104 1_655 S
Sc243 O263 2.105 . S
Sc244 O245 2.025 . S
Sc244 O254 2.105 . S
Sc244 O256 2.105 1_655 S
Sc244 O260 2.105 . S
Sc244 O262 2.105 . S
O245 Sc242 2.025 . S
O245 Sc243 2.025 . S
O245 Sc244 2.025 . S
C246 O252 1.268 . S
C246 O262 1.268 . S
C247 O253 1.268 . S
C247 O261 1.268 . S
C248 O254 1.268 . S
C248 O263 1.268 . S
C249 O255 1.268 . S
C249 O259 1.270 . S
C250 O256 1.268 . S
C250 O258 1.268 . S
C251 O257 1.268 . S
C251 O260 1.268 . S
O252 Sc242 2.105 . S
O252 C246 1.268 . S
O253 Sc243 2.105 . S
O253 C247 1.268 . S
O254 Sc244 2.105 . S
O254 C248 1.268 . S
O255 Sc242 2.105 1_455 S
O255 C249 1.268 . S
O256 Sc244 2.105 1_455 S
O256 C250 1.268 . S
O257 Sc243 2.105 . S
O257 C251 1.268 . S
O258 Sc242 2.105 1_455 S
O258 C250 1.268 . S
O259 Sc243 2.104 1_455 S
O259 C249 1.270 . S
O260 Sc244 2.105 . S
O260 C251 1.268 . S
O261 Sc242 2.105 . S
O261 C247 1.268 . S
O262 Sc244 2.105 . S
O262 C246 1.268 . S
O263 Sc243 2.105 . S
O263 C248 1.268 . S
Sc264 O267 2.025 . S
Sc264 O274 2.105 . S
Sc264 O277 2.105 . S
Sc264 O280 2.105 . S
Sc264 O283 2.105 . S
Sc265 O267 2.025 . S
Sc265 O275 2.105 . S
Sc265 O279 2.105 . S
Sc265 O281 2.105 1_655 S
Sc265 O285 2.105 . S
Sc266 O267 2.025 . S
Sc266 O276 2.105 . S
Sc266 O278 2.105 . S
Sc266 O282 2.105 . S
Sc266 O284 2.105 . S
O267 Sc264 2.025 . S
O267 Sc265 2.025 . S
O267 Sc266 2.025 . S
C268 O274 1.268 . S
C268 O284 1.268 . S
C269 O275 1.268 . S
C269 O283 1.268 . S
C270 O276 1.268 . S
C270 O285 1.268 . S
C271 O277 1.268 1_455 S
C271 O281 1.268 . S
C272 O278 1.268 . S
C272 O280 1.268 . S
C273 O279 1.268 . S
C273 O282 1.268 . S
O274 Sc264 2.105 . S
O274 C268 1.268 . S
O275 Sc265 2.105 . S
O275 C269 1.268 . S
O276 Sc266 2.105 . S
O276 C270 1.268 . S
O277 Sc264 2.105 . S
O277 C271 1.268 1_655 S
O278 Sc266 2.105 . S
O278 C272 1.268 . S
O279 Sc265 2.105 . S
O279 C273 1.268 . S
O280 Sc264 2.105 . S
O280 C272 1.268 . S
O281 Sc265 2.105 1_455 S
O281 C271 1.268 . S
O282 Sc266 2.105 . S
O282 C273 1.268 . S
O283 Sc264 2.105 . S
O283 C269 1.268 . S
O284 Sc266 2.105 . S
O284 C268 1.268 . S
O285 Sc265 2.105 . S
O285 C270 1.268 . S
Sc286 O289 2.025 . S
Sc286 O296 2.105 . S
Sc286 O299 2.105 . S
Sc286 O302 2.105 . S
Sc286 O305 2.105 . S
Sc287 O289 2.025 . S
Sc287 O297 2.105 . S
Sc287 O301 2.105 . S
Sc287 O303 2.105 . S
Sc287 O307 2.105 . S
Sc288 O289 2.025 . S
Sc288 O298 2.105 . S
Sc288 O300 2.105 . S
Sc288 O304 2.105 . S
Sc288 O306 2.105 . S
O289 Sc286 2.025 . S
O289 Sc287 2.025 . S
O289 Sc288 2.025 . S
C290 O296 1.268 . S
C290 O306 1.268 . S
C291 O297 1.268 . S
C291 O305 1.268 . S
C292 O298 1.268 . S
C292 O307 1.268 . S
C293 O299 1.268 . S
C293 O303 1.268 . S
C294 O300 1.268 . S
C294 O302 1.268 . S
C295 O301 1.268 . S
C295 O304 1.268 . S
O296 Sc286 2.105 . S
O296 C290 1.268 . S
O297 Sc287 2.105 . S
O297 C291 1.268 . S
O298 Sc288 2.105 . S
O298 C292 1.268 . S
O299 Sc286 2.105 . S
O299 C293 1.268 . S
O300 Sc288 2.105 . S
O300 C294 1.268 . S
O301 Sc287 2.105 . S
O301 C295 1.268 . S
O302 Sc286 2.105 . S
O302 C294 1.268 . S
O303 Sc287 2.105 . S
O303 C293 1.268 . S
O304 Sc288 2.105 . S
O304 C295 1.268 . S
O305 Sc286 2.105 . S
O305 C291 1.268 . S
O306 Sc288 2.105 . S
O306 C290 1.268 . S
O307 Sc287 2.105 . S
O307 C292 1.268 . S
Sc308 O311 2.025 . S
Sc308 O318 2.105 . S
Sc308 O321 2.105 . S
Sc308 O324 2.105 . S
Sc308 O327 2.105 . S
Sc309 O311 2.025 . S
Sc309 O319 2.105 . S
Sc309 O323 2.105 . S
Sc309 O325 2.105 1_545 S
Sc309 O329 2.105 . S
Sc310 O311 2.025 . S
Sc310 O320 2.105 . S
Sc310 O322 2.105 . S
Sc310 O326 2.105 . S
Sc310 O328 2.105 . S
O311 Sc308 2.025 . S
O311 Sc309 2.025 . S
O311 Sc310 2.025 . S
C312 O318 1.268 . S
C312 O328 1.268 . S
C313 O319 1.268 . S
C313 O327 1.268 . S
C314 O320 1.268 . S
C314 O329 1.268 . S
C315 O321 1.268 1_565 S
C315 O325 1.268 . S
C316 O322 1.268 . S
C316 O324 1.268 . S
C317 O323 1.268 . S
C317 O326 1.268 . S
O318 Sc308 2.105 . S
O318 C312 1.268 . S
O319 Sc309 2.105 . S
O319 C313 1.268 . S
O320 Sc310 2.105 . S
O320 C314 1.268 . S
O321 Sc308 2.105 . S
O321 C315 1.268 1_545 S
O322 Sc310 2.105 . S
O322 C316 1.268 . S
O323 Sc309 2.105 . S
O323 C317 1.268 . S
O324 Sc308 2.105 . S
O324 C316 1.268 . S
O325 Sc309 2.105 1_565 S
O325 C315 1.268 . S
O326 Sc310 2.105 . S
O326 C317 1.268 . S
O327 Sc308 2.105 . S
O327 C313 1.268 . S
O328 Sc310 2.105 . S
O328 C312 1.268 . S
O329 Sc309 2.105 . S
O329 C314 1.268 . S
Sc330 O333 2.025 . S
Sc330 O340 2.105 . S
Sc330 O343 2.105 . S
Sc330 O346 2.105 . S
Sc330 O349 2.105 . S
Sc331 O333 2.025 . S
Sc331 O341 2.105 . S
Sc331 O345 2.105 . S
Sc331 O347 2.105 . S
Sc331 O351 2.105 . S
Sc332 O333 2.025 . S
Sc332 O342 2.105 . S
Sc332 O344 2.105 . S
Sc332 O348 2.105 . S
Sc332 O350 2.105 . S
O333 Sc330 2.025 . S
O333 Sc331 2.025 . S
O333 Sc332 2.025 . S
C334 O340 1.268 . S
C334 O350 1.268 . S
C335 O341 1.268 . S
C335 O349 1.268 . S
C336 O342 1.268 . S
C336 O351 1.268 . S
C337 O343 1.268 . S
C337 O347 1.268 . S
C338 O344 1.268 . S
C338 O346 1.268 . S
C339 O345 1.268 . S
C339 O348 1.268 . S
O340 Sc330 2.105 . S
O340 C334 1.268 . S
O341 Sc331 2.105 . S
O341 C335 1.268 . S
O342 Sc332 2.105 . S
O342 C336 1.268 . S
O343 Sc330 2.105 . S
O343 C337 1.268 . S
O344 Sc332 2.105 . S
O344 C338 1.268 . S
O345 Sc331 2.105 . S
O345 C339 1.268 . S
O346 Sc330 2.105 . S
O346 C338 1.268 . S
O347 Sc331 2.105 . S
O347 C337 1.268 . S
O348 Sc332 2.105 . S
O348 C339 1.268 . S
O349 Sc330 2.105 . S
O349 C335 1.268 . S
O350 Sc332 2.105 . S
O350 C334 1.268 . S
O351 Sc331 2.105 . S
O351 C336 1.268 . S
Sc352 O355 2.025 . S
Sc352 O362 2.105 . S
Sc352 O365 2.105 . S
Sc352 O368 2.105 . S
Sc352 O371 2.105 . S
Sc353 O355 2.025 . S
Sc353 O363 2.105 . S
Sc353 O367 2.105 . S
Sc353 O369 2.105 . S
Sc353 O373 2.105 . S
Sc354 O355 2.025 . S
Sc354 O364 2.105 . S
Sc354 O366 2.105 . S
Sc354 O370 2.105 . S
Sc354 O372 2.105 . S
O355 Sc352 2.025 . S
O355 Sc353 2.025 . S
O355 Sc354 2.025 . S
C356 O362 1.268 . S
C356 O372 1.268 . S
C357 O363 1.268 . S
C357 O371 1.268 . S
C358 O364 1.268 . S
C358 O373 1.268 . S
C359 O365 1.268 . S
C359 O369 1.268 . S
C360 O366 1.268 . S
C360 O368 1.268 . S
C361 O367 1.268 . S
C361 O370 1.268 . S
O362 Sc352 2.105 . S
O362 C356 1.268 . S
O363 Sc353 2.105 . S
O363 C357 1.268 . S
O364 Sc354 2.105 . S
O364 C358 1.268 . S
O365 Sc352 2.105 . S
O365 C359 1.268 . S
O366 Sc354 2.105 . S
O366 C360 1.268 . S
O367 Sc353 2.105 . S
O367 C361 1.268 . S
O368 Sc352 2.105 . S
O368 C360 1.268 . S
O369 Sc353 2.105 . S
O369 C359 1.268 . S
O370 Sc354 2.105 . S
O370 C361 1.268 . S
O371 Sc352 2.105 . S
O371 C357 1.268 . S
O372 Sc354 2.105 . S
O372 C356 1.268 . S
O373 Sc353 2.105 . S
O373 C358 1.268 . S
Sc374 O377 2.025 . S
Sc374 O384 2.105 . S
Sc374 O387 2.105 . S
Sc374 O390 2.105 . S
Sc374 O393 2.105 . S
Sc375 O377 2.025 . S
Sc375 O385 2.105 . S
Sc375 O389 2.105 . S
Sc375 O391 2.105 . S
Sc375 O395 2.105 . S
Sc376 O377 2.025 . S
Sc376 O386 2.105 . S
Sc376 O388 2.105 . S
Sc376 O392 2.105 . S
Sc376 O394 2.105 . S
O377 Sc374 2.025 . S
O377 Sc375 2.025 . S
O377 Sc376 2.025 . S
C378 O384 1.268 . S
C378 O394 1.268 . S
C379 O385 1.268 . S
C379 O393 1.268 . S
C380 O386 1.268 . S
C380 O395 1.268 . S
C381 O387 1.268 . S
C381 O391 1.268 . S
C382 O388 1.268 . S
C382 O390 1.268 . S
C383 O389 1.268 . S
C383 O392 1.268 . S
O384 Sc374 2.105 . S
O384 C378 1.268 . S
O385 Sc375 2.105 . S
O385 C379 1.268 . S
O386 Sc376 2.105 . S
O386 C380 1.268 . S
O387 Sc374 2.105 . S
O387 C381 1.268 . S
O388 Sc376 2.105 . S
O388 C382 1.268 . S
O389 Sc375 2.105 . S
O389 C383 1.268 . S
O390 Sc374 2.105 . S
O390 C382 1.268 . S
O391 Sc375 2.105 . S
O391 C381 1.268 . S
O392 Sc376 2.105 . S
O392 C383 1.268 . S
O393 Sc374 2.105 . S
O393 C379 1.268 . S
O394 Sc376 2.105 . S
O394 C378 1.268 . S
O395 Sc375 2.105 . S
O395 C380 1.268 . S
Sc396 O399 2.025 . S
Sc396 O406 2.105 . S
Sc396 O409 2.105 . S
Sc396 O412 2.105 . S
Sc396 O415 2.105 . S
Sc397 O399 2.025 . S
Sc397 O407 2.105 . S
Sc397 O411 2.105 . S
Sc397 O413 2.105 . S
Sc397 O417 2.105 . S
Sc398 O399 2.025 . S
Sc398 O408 2.105 . S
Sc398 O410 2.105 . S
Sc398 O414 2.105 . S
Sc398 O416 2.105 . S
O399 Sc396 2.025 . S
O399 Sc397 2.025 . S
O399 Sc398 2.025 . S
C400 O406 1.268 . S
C400 O416 1.268 . S
C401 O407 1.268 . S
C401 O415 1.268 . S
C402 O408 1.268 . S
C402 O417 1.268 . S
C403 O409 1.268 . S
C403 O413 1.268 . S
C404 O410 1.268 . S
C404 O412 1.268 . S
C405 O411 1.268 . S
C405 O414 1.268 . S
O406 Sc396 2.105 . S
O406 C400 1.268 . S
O407 Sc397 2.105 . S
O407 C401 1.268 . S
O408 Sc398 2.105 . S
O408 C402 1.268 . S
O409 Sc396 2.105 . S
O409 C403 1.268 . S
O410 Sc398 2.105 . S
O410 C404 1.268 . S
O411 Sc397 2.105 . S
O411 C405 1.268 . S
O412 Sc396 2.105 . S
O412 C404 1.268 . S
O413 Sc397 2.105 . S
O413 C403 1.268 . S
O414 Sc398 2.105 . S
O414 C405 1.268 . S
O415 Sc396 2.105 . S
O415 C401 1.268 . S
O416 Sc398 2.105 . S
O416 C400 1.268 . S
O417 Sc397 2.105 . S
O417 C402 1.268 . S
Sc418 O421 2.025 . S
Sc418 O428 2.105 . S
Sc418 O431 2.105 . S
Sc418 O434 2.105 . S
Sc418 O437 2.105 . S
Sc419 O421 2.025 . S
Sc419 O429 2.105 . S
Sc419 O433 2.105 . S
Sc419 O435 2.105 . S
Sc419 O439 2.105 . S
Sc420 O421 2.025 . S
Sc420 O430 2.105 . S
Sc420 O432 2.105 . S
Sc420 O436 2.105 . S
Sc420 O438 2.105 . S
O421 Sc418 2.025 . S
O421 Sc419 2.025 . S
O421 Sc420 2.025 . S
C422 O428 1.268 . S
C422 O438 1.268 . S
C423 O429 1.268 . S
C423 O437 1.268 . S
C424 O430 1.268 . S
C424 O439 1.268 . S
C425 O431 1.268 . S
C425 O435 1.268 . S
C426 O432 1.268 . S
C426 O434 1.268 . S
C427 O433 1.268 . S
C427 O436 1.268 . S
O428 Sc418 2.105 . S
O428 C422 1.268 . S
O429 Sc419 2.105 . S
O429 C423 1.268 . S
O430 Sc420 2.105 . S
O430 C424 1.268 . S
O431 Sc418 2.105 . S
O431 C425 1.268 . S
O432 Sc420 2.105 . S
O432 C426 1.268 . S
O433 Sc419 2.105 . S
O433 C427 1.268 . S
O434 Sc418 2.105 . S
O434 C426 1.268 . S
O435 Sc419 2.105 . S
O435 C425 1.268 . S
O436 Sc420 2.105 . S
O436 C427 1.268 . S
O437 Sc418 2.105 . S
O437 C423 1.268 . S
O438 Sc420 2.105 . S
O438 C422 1.268 . S
O439 Sc419 2.105 . S
O439 C424 1.268 . S
Sc440 O443 2.025 . S
Sc440 O450 2.105 . S
Sc440 O453 2.105 . S
Sc440 O456 2.105 . S
Sc440 O459 2.105 . S
Sc441 O443 2.025 . S
Sc441 O451 2.105 . S
Sc441 O455 2.105 . S
Sc441 O457 2.105 . S
Sc441 O461 2.105 . S
Sc442 O443 2.025 . S
Sc442 O452 2.105 . S
Sc442 O454 2.105 . S
Sc442 O458 2.105 . S
Sc442 O460 2.105 . S
O443 Sc440 2.025 . S
O443 Sc441 2.025 . S
O443 Sc442 2.025 . S
C444 O450 1.268 . S
C444 O460 1.268 . S
C445 O451 1.268 . S
C445 O459 1.268 . S
C446 O452 1.268 . S
C446 O461 1.268 . S
C447 O453 1.268 . S
C447 O457 1.268 . S
C448 O454 1.268 . S
C448 O456 1.268 . S
C449 O455 1.268 . S
C449 O458 1.268 . S
O450 Sc440 2.105 . S
O450 C444 1.268 . S
O451 Sc441 2.105 . S
O451 C445 1.268 . S
O452 Sc442 2.105 . S
O452 C446 1.268 . S
O453 Sc440 2.105 . S
O453 C447 1.268 . S
O454 Sc442 2.105 . S
O454 C448 1.268 . S
O455 Sc441 2.105 . S
O455 C449 1.268 . S
O456 Sc440 2.105 . S
O456 C448 1.268 . S
O457 Sc441 2.105 . S
O457 C447 1.268 . S
O458 Sc442 2.105 . S
O458 C449 1.268 . S
O459 Sc440 2.105 . S
O459 C445 1.268 . S
O460 Sc442 2.105 . S
O460 C444 1.268 . S
O461 Sc441 2.105 . S
O461 C446 1.268 . S
Sc462 O465 2.025 . S
Sc462 O472 2.105 . S
Sc462 O475 2.105 . S
Sc462 O478 2.105 . S
Sc462 O481 2.105 . S
Sc463 O465 2.025 . S
Sc463 O473 2.105 1_545 S
Sc463 O477 2.105 1_556 S
Sc463 O479 2.105 . S
Sc463 O483 2.105 . S
Sc464 O465 2.025 . S
Sc464 O474 2.105 . S
Sc464 O476 2.105 . S
Sc464 O480 2.105 1_556 S
Sc464 O482 2.105 . S
O465 Sc462 2.025 . S
O465 Sc463 2.025 . S
O465 Sc464 2.025 . S
C466 O472 1.268 . S
C466 O482 1.268 . S
C467 O473 1.268 . S
C467 O481 1.268 1_565 S
C468 O474 1.268 . S
C468 O483 1.268 . S
C469 O475 1.268 . S
C469 O479 1.268 . S
C470 O476 1.268 . S
C470 O478 1.268 . S
C471 O477 1.268 . S
C471 O480 1.268 . S
O472 Sc462 2.105 . S
O472 C466 1.268 . S
O473 Sc463 2.105 1_565 S
O473 C467 1.268 . S
O474 Sc464 2.105 . S
O474 C468 1.268 . S
O475 Sc462 2.105 . S
O475 C469 1.268 . S
O476 Sc464 2.105 . S
O476 C470 1.268 . S
O477 Sc463 2.105 1_554 S
O477 C471 1.268 . S
O478 Sc462 2.105 . S
O478 C470 1.268 . S
O479 Sc463 2.105 . S
O479 C469 1.268 . S
O480 Sc464 2.105 1_554 S
O480 C471 1.268 . S
O481 Sc462 2.105 . S
O481 C467 1.268 1_545 S
O482 Sc464 2.105 . S
O482 C466 1.268 . S
O483 Sc463 2.105 . S
O483 C468 1.268 . S
Sc484 O487 2.025 . S
Sc484 O494 2.105 . S
Sc484 O497 2.105 . S
Sc484 O500 2.105 . S
Sc484 O503 2.105 . S
Sc485 O487 2.025 . S
Sc485 O495 2.105 1_655 S
Sc485 O499 2.105 1_556 S
Sc485 O501 2.105 . S
Sc485 O505 2.105 . S
Sc486 O487 2.025 . S
Sc486 O496 2.105 . S
Sc486 O498 2.105 . S
Sc486 O502 2.105 1_556 S
Sc486 O504 2.105 . S
O487 Sc484 2.025 . S
O487 Sc485 2.025 . S
O487 Sc486 2.025 . S
C488 O494 1.268 . S
C488 O504 1.268 . S
C489 O495 1.268 . S
C489 O503 1.268 1_455 S
C490 O496 1.268 . S
C490 O505 1.268 . S
C491 O497 1.268 . S
C491 O501 1.268 . S
C492 O498 1.268 . S
C492 O500 1.268 . S
C493 O499 1.268 . S
C493 O502 1.268 . S
O494 Sc484 2.105 . S
O494 C488 1.268 . S
O495 Sc485 2.105 1_455 S
O495 C489 1.268 . S
O496 Sc486 2.105 . S
O496 C490 1.268 . S
O497 Sc484 2.105 . S
O497 C491 1.268 . S
O498 Sc486 2.105 . S
O498 C492 1.268 . S
O499 Sc485 2.105 1_554 S
O499 C493 1.268 . S
O500 Sc484 2.105 . S
O500 C492 1.268 . S
O501 Sc485 2.105 . S
O501 C491 1.268 . S
O502 Sc486 2.105 1_554 S
O502 C493 1.268 . S
O503 Sc484 2.105 . S
O503 C489 1.268 1_655 S
O504 Sc486 2.105 . S
O504 C488 1.268 . S
O505 Sc485 2.105 . S
O505 C490 1.268 . S
Sc506 O509 2.025 . S
Sc506 O516 2.105 . S
Sc506 O519 2.105 . S
Sc506 O522 2.105 . S
Sc506 O525 2.105 . S
Sc507 O509 2.025 . S
Sc507 O517 2.105 . S
Sc507 O521 2.105 1_556 S
Sc507 O523 2.105 . S
Sc507 O527 2.105 . S
Sc508 O509 2.025 . S
Sc508 O518 2.105 . S
Sc508 O520 2.105 . S
Sc508 O524 2.105 1_556 S
Sc508 O526 2.105 . S
O509 Sc506 2.025 . S
O509 Sc507 2.025 . S
O509 Sc508 2.025 . S
C510 O516 1.268 . S
C510 O526 1.268 . S
C511 O517 1.268 . S
C511 O525 1.268 . S
C512 O518 1.268 . S
C512 O527 1.268 . S
C513 O519 1.268 . S
C513 O523 1.268 . S
C514 O520 1.268 . S
C514 O522 1.268 . S
C515 O521 1.268 . S
C515 O524 1.268 . S
O516 Sc506 2.105 . S
O516 C510 1.268 . S
O517 Sc507 2.105 . S
O517 C511 1.268 . S
O518 Sc508 2.105 . S
O518 C512 1.268 . S
O519 Sc506 2.105 . S
O519 C513 1.268 . S
O520 Sc508 2.105 . S
O520 C514 1.268 . S
O521 Sc507 2.105 1_554 S
O521 C515 1.268 . S
O522 Sc506 2.105 . S
O522 C514 1.268 . S
O523 Sc507 2.105 . S
O523 C513 1.268 . S
O524 Sc508 2.105 1_554 S
O524 C515 1.268 . S
O525 Sc506 2.105 . S
O525 C511 1.268 . S
O526 Sc508 2.105 . S
O526 C510 1.268 . S
O527 Sc507 2.105 . S
O527 C512 1.268 . S
Sc528 O531 2.025 . S
Sc528 O538 2.105 . S
Sc528 O541 2.105 . S
Sc528 O544 2.105 . S
Sc528 O547 2.105 . S
Sc529 O531 2.025 . S
Sc529 O539 2.105 . S
Sc529 O543 2.105 . S
Sc529 O545 2.105 . S
Sc529 O549 2.105 . S
Sc530 O531 2.025 . S
Sc530 O540 2.105 . S
Sc530 O542 2.105 . S
Sc530 O546 2.105 . S
Sc530 O548 2.105 . S
O531 Sc528 2.025 . S
O531 Sc529 2.025 . S
O531 Sc530 2.025 . S
C532 O538 1.268 . S
C532 O548 1.268 . S
C533 O539 1.268 . S
C533 O547 1.268 . S
C534 O540 1.268 . S
C534 O549 1.268 . S
C535 O541 1.268 . S
C535 O545 1.268 . S
C536 O542 1.268 . S
C536 O544 1.268 . S
C537 O543 1.268 . S
C537 O546 1.268 . S
O538 Sc528 2.105 . S
O538 C532 1.268 . S
O539 Sc529 2.105 . S
O539 C533 1.268 . S
O540 Sc530 2.105 . S
O540 C534 1.268 . S
O541 Sc528 2.105 . S
O541 C535 1.268 . S
O542 Sc530 2.105 . S
O542 C536 1.268 . S
O543 Sc529 2.105 . S
O543 C537 1.268 . S
O544 Sc528 2.105 . S
O544 C536 1.268 . S
O545 Sc529 2.105 . S
O545 C535 1.268 . S
O546 Sc530 2.105 . S
O546 C537 1.268 . S
O547 Sc528 2.105 . S
O547 C533 1.268 . S
O548 Sc530 2.105 . S
O548 C532 1.268 . S
O549 Sc529 2.105 . S
O549 C534 1.268 . S
Sc550 O553 2.025 . S
Sc550 O560 2.105 . S
Sc550 O563 2.105 . S
Sc550 O566 2.105 . S
Sc550 O569 2.105 . S
Sc551 O553 2.025 . S
Sc551 O561 2.105 . S
Sc551 O565 2.105 . S
Sc551 O567 2.105 . S
Sc551 O571 2.105 . S
Sc552 O553 2.025 . S
Sc552 O562 2.105 . S
Sc552 O564 2.105 . S
Sc552 O568 2.105 . S
Sc552 O570 2.105 . S
O553 Sc550 2.025 . S
O553 Sc551 2.025 . S
O553 Sc552 2.025 . S
C554 O560 1.268 . S
C554 O570 1.268 . S
C555 O561 1.268 . S
C555 O569 1.268 . S
C556 O562 1.268 . S
C556 O571 1.268 . S
C557 O563 1.268 . S
C557 O567 1.268 . S
C558 O564 1.268 . S
C558 O566 1.268 . S
C559 O565 1.268 . S
C559 O568 1.268 . S
O560 Sc550 2.105 . S
O560 C554 1.268 . S
O561 Sc551 2.105 . S
O561 C555 1.268 . S
O562 Sc552 2.105 . S
O562 C556 1.268 . S
O563 Sc550 2.105 . S
O563 C557 1.268 . S
O564 Sc552 2.105 . S
O564 C558 1.268 . S
O565 Sc551 2.105 . S
O565 C559 1.268 . S
O566 Sc550 2.105 . S
O566 C558 1.268 . S
O567 Sc551 2.105 . S
O567 C557 1.268 . S
O568 Sc552 2.105 . S
O568 C559 1.268 . S
O569 Sc550 2.105 . S
O569 C555 1.268 . S
O570 Sc552 2.105 . S
O570 C554 1.268 . S
O571 Sc551 2.105 . S
O571 C556 1.268 . S
Sc572 O575 2.025 . S
Sc572 O582 2.105 . S
Sc572 O585 2.105 . S
Sc572 O588 2.105 . S
Sc572 O591 2.105 . S
Sc573 O575 2.025 . S
Sc573 O583 2.105 . S
Sc573 O587 2.105 . S
Sc573 O589 2.105 . S
Sc573 O593 2.105 . S
Sc574 O575 2.025 . S
Sc574 O584 2.105 . S
Sc574 O586 2.105 . S
Sc574 O590 2.105 . S
Sc574 O592 2.105 . S
O575 Sc572 2.025 . S
O575 Sc573 2.025 . S
O575 Sc574 2.025 . S
C576 O582 1.268 . S
C576 O592 1.268 . S
C577 O583 1.268 . S
C577 O591 1.268 . S
C578 O584 1.268 . S
C578 O593 1.268 . S
C579 O585 1.268 . S
C579 O589 1.268 . S
C580 O586 1.268 . S
C580 O588 1.268 . S
C581 O587 1.268 . S
C581 O590 1.268 . S
O582 Sc572 2.105 . S
O582 C576 1.268 . S
O583 Sc573 2.105 . S
O583 C577 1.268 . S
O584 Sc574 2.105 . S
O584 C578 1.268 . S
O585 Sc572 2.105 . S
O585 C579 1.268 . S
O586 Sc574 2.105 . S
O586 C580 1.268 . S
O587 Sc573 2.105 . S
O587 C581 1.268 . S
O588 Sc572 2.105 . S
O588 C580 1.268 . S
O589 Sc573 2.105 . S
O589 C579 1.268 . S
O590 Sc574 2.105 . S
O590 C581 1.268 . S
O591 Sc572 2.105 . S
O591 C577 1.268 . S
O592 Sc574 2.105 . S
O592 C576 1.268 . S
O593 Sc573 2.105 . S
O593 C578 1.268 . S
Sc594 O597 2.025 . S
Sc594 O604 2.105 . S
Sc594 O607 2.105 1_554 S
Sc594 O610 2.105 . S
Sc594 O613 2.105 . S
Sc595 O597 2.025 . S
Sc595 O605 2.105 . S
Sc595 O609 2.105 . S
Sc595 O611 2.105 1_554 S
Sc595 O615 2.105 1_565 S
Sc596 O597 2.025 . S
Sc596 O606 2.105 . S
Sc596 O608 2.105 . S
Sc596 O612 2.105 . S
Sc596 O614 2.105 . S
O597 Sc594 2.025 . S
O597 Sc595 2.025 . S
O597 Sc596 2.025 . S
C598 O604 1.268 . S
C598 O614 1.268 . S
C599 O605 1.268 . S
C599 O613 1.268 . S
C600 O606 1.268 1_545 S
C600 O615 1.268 . S
C601 O607 1.268 . S
C601 O611 1.268 . S
C602 O608 1.268 . S
C602 O610 1.268 . S
C603 O609 1.268 . S
C603 O612 1.268 . S
O604 Sc594 2.105 . S
O604 C598 1.268 . S
O605 Sc595 2.105 . S
O605 C599 1.268 . S
O606 Sc596 2.105 . S
O606 C600 1.268 1_565 S
O607 Sc594 2.105 1_556 S
O607 C601 1.268 . S
O608 Sc596 2.105 . S
O608 C602 1.268 . S
O609 Sc595 2.105 . S
O609 C603 1.268 . S
O610 Sc594 2.105 . S
O610 C602 1.268 . S
O611 Sc595 2.105 1_556 S
O611 C601 1.268 . S
O612 Sc596 2.105 . S
O612 C603 1.268 . S
O613 Sc594 2.105 . S
O613 C599 1.268 . S
O614 Sc596 2.105 . S
O614 C598 1.268 . S
O615 Sc595 2.105 1_545 S
O615 C600 1.268 . S
Sc616 O619 2.025 . S
Sc616 O626 2.105 . S
Sc616 O629 2.105 1_554 S
Sc616 O632 2.105 . S
Sc616 O635 2.105 . S
Sc617 O619 2.025 . S
Sc617 O627 2.105 . S
Sc617 O631 2.105 . S
Sc617 O633 2.105 1_554 S
Sc617 O637 2.105 1_455 S
Sc618 O619 2.025 . S
Sc618 O628 2.105 . S
Sc618 O630 2.105 . S
Sc618 O634 2.105 . S
Sc618 O636 2.105 . S
O619 Sc616 2.025 . S
O619 Sc617 2.025 . S
O619 Sc618 2.025 . S
C620 O626 1.268 . S
C620 O636 1.268 . S
C621 O627 1.268 . S
C621 O635 1.268 . S
C622 O628 1.268 1_655 S
C622 O637 1.268 . S
C623 O629 1.268 . S
C623 O633 1.268 . S
C624 O630 1.268 . S
C624 O632 1.268 . S
C625 O631 1.268 . S
C625 O634 1.268 . S
O626 Sc616 2.105 . S
O626 C620 1.268 . S
O627 Sc617 2.105 . S
O627 C621 1.268 . S
O628 Sc618 2.105 . S
O628 C622 1.268 1_455 S
O629 Sc616 2.105 1_556 S
O629 C623 1.268 . S
O630 Sc618 2.105 . S
O630 C624 1.268 . S
O631 Sc617 2.105 . S
O631 C625 1.268 . S
O632 Sc616 2.105 . S
O632 C624 1.268 . S
O633 Sc617 2.105 1_556 S
O633 C623 1.268 . S
O634 Sc618 2.105 . S
O634 C625 1.268 . S
O635 Sc616 2.105 . S
O635 C621 1.268 . S
O636 Sc618 2.105 . S
O636 C620 1.268 . S
O637 Sc617 2.105 1_655 S
O637 C622 1.268 . S
Sc638 O641 2.025 . S
Sc638 O648 2.105 . S
Sc638 O651 2.105 1_554 S
Sc638 O654 2.105 . S
Sc638 O657 2.105 . S
Sc639 O641 2.025 . S
Sc639 O649 2.105 . S
Sc639 O653 2.105 . S
Sc639 O655 2.105 1_554 S
Sc639 O659 2.105 . S
Sc640 O641 2.025 . S
Sc640 O650 2.105 . S
Sc640 O652 2.105 . S
Sc640 O656 2.105 . S
Sc640 O658 2.105 . S
O641 Sc638 2.025 . S
O641 Sc639 2.025 . S
O641 Sc640 2.025 . S
C642 O648 1.268 . S
C642 O658 1.268 . S
C643 O649 1.268 . S
C643 O657 1.268 . S
C644 O650 1.268 . S
C644 O659 1.268 . S
C645 O651 1.268 . S
C645 O655 1.268 . S
C646 O652 1.268 . S
C646 O654 1.268 . S
C647 O653 1.268 . S
C647 O656 1.268 . S
O648 Sc638 2.105 . S
O648 C642 1.268 . S
O649 Sc639 2.105 . S
O649 C643 1.268 . S
O650 Sc640 2.105 . S
O650 C644 1.268 . S
O651 Sc638 2.105 1_556 S
O651 C645 1.268 . S
O652 Sc640 2.105 . S
O652 C646 1.268 . S
O653 Sc639 2.105 . S
O653 C647 1.268 . S
O654 Sc638 2.105 . S
O654 C646 1.268 . S
O655 Sc639 2.105 1_556 S
O655 C645 1.268 . S
O656 Sc640 2.105 . S
O656 C647 1.268 . S
O657 Sc638 2.105 . S
O657 C643 1.268 . S
O658 Sc640 2.105 . S
O658 C642 1.268 . S
O659 Sc639 2.105 . S
O659 C644 1.268 . S
Sc660 O663 2.025 . S
Sc660 O670 2.105 . S
Sc660 O673 2.105 . S
Sc660 O676 2.105 . S
Sc660 O679 2.105 . S
Sc661 O663 2.025 . S
Sc661 O671 2.105 1_455 S
Sc661 O675 2.105 . S
Sc661 O677 2.105 . S
Sc661 O681 2.105 . S
Sc662 O663 2.025 . S
Sc662 O672 2.105 . S
Sc662 O674 2.105 . S
Sc662 O678 2.105 . S
Sc662 O680 2.105 . S
O663 Sc660 2.025 . S
O663 Sc661 2.025 . S
O663 Sc662 2.025 . S
C664 O670 1.268 . S
C664 O680 1.268 . S
C665 O671 1.268 . S
C665 O679 1.268 1_655 S
C666 O672 1.268 . S
C666 O681 1.268 . S
C667 O673 1.268 . S
C667 O677 1.268 . S
C668 O674 1.268 . S
C668 O676 1.268 . S
C669 O675 1.268 . S
C669 O678 1.268 . S
O670 Sc660 2.105 . S
O670 C664 1.268 . S
O671 Sc661 2.105 1_655 S
O671 C665 1.268 . S
O672 Sc662 2.105 . S
O672 C666 1.268 . S
O673 Sc660 2.105 . S
O673 C667 1.268 . S
O674 Sc662 2.105 . S
O674 C668 1.268 . S
O675 Sc661 2.105 . S
O675 C669 1.268 . S
O676 Sc660 2.105 . S
O676 C668 1.268 . S
O677 Sc661 2.105 . S
O677 C667 1.268 . S
O678 Sc662 2.105 . S
O678 C669 1.268 . S
O679 Sc660 2.105 . S
O679 C665 1.268 1_455 S
O680 Sc662 2.105 . S
O680 C664 1.268 . S
O681 Sc661 2.105 . S
O681 C666 1.268 . S
Sc682 O685 2.025 . S
Sc682 O692 2.105 . S
Sc682 O695 2.105 . S
Sc682 O698 2.105 . S
Sc682 O701 2.105 . S
Sc683 O685 2.025 . S
Sc683 O693 2.105 . S
Sc683 O697 2.105 . S
Sc683 O699 2.105 . S
Sc683 O703 2.105 . S
Sc684 O685 2.025 . S
Sc684 O694 2.105 . S
Sc684 O696 2.105 . S
Sc684 O700 2.105 . S
Sc684 O702 2.105 . S
O685 Sc682 2.025 . S
O685 Sc683 2.025 . S
O685 Sc684 2.025 . S
C686 O692 1.268 . S
C686 O702 1.268 . S
C687 O693 1.268 . S
C687 O701 1.268 . S
C688 O694 1.268 . S
C688 O703 1.268 . S
C689 O695 1.268 . S
C689 O699 1.268 . S
C690 O696 1.268 . S
C690 O698 1.268 . S
C691 O697 1.268 . S
C691 O700 1.268 . S
O692 Sc682 2.105 . S
O692 C686 1.268 . S
O693 Sc683 2.105 . S
O693 C687 1.268 . S
O694 Sc684 2.105 . S
O694 C688 1.268 . S
O695 Sc682 2.105 . S
O695 C689 1.268 . S
O696 Sc684 2.105 . S
O696 C690 1.268 . S
O697 Sc683 2.105 . S
O697 C691 1.268 . S
O698 Sc682 2.105 . S
O698 C690 1.268 . S
O699 Sc683 2.105 . S
O699 C689 1.268 . S
O700 Sc684 2.105 . S
O700 C691 1.268 . S
O701 Sc682 2.105 . S
O701 C687 1.268 . S
O702 Sc684 2.105 . S
O702 C686 1.268 . S
O703 Sc683 2.105 . S
O703 C688 1.268 . S
Sc704 O707 2.025 . S
Sc704 O714 2.105 . S
Sc704 O717 2.105 . S
Sc704 O720 2.105 . S
Sc704 O723 2.105 . S
Sc705 O707 2.025 . S
Sc705 O715 2.105 1_565 S
Sc705 O719 2.105 . S
Sc705 O721 2.105 . S
Sc705 O725 2.105 . S
Sc706 O707 2.025 . S
Sc706 O716 2.105 . S
Sc706 O718 2.105 . S
Sc706 O722 2.105 . S
Sc706 O724 2.105 . S
O707 Sc704 2.025 . S
O707 Sc705 2.025 . S
O707 Sc706 2.025 . S
C708 O714 1.268 . S
C708 O724 1.268 . S
C709 O715 1.268 . S
C709 O723 1.268 1_545 S
C710 O716 1.268 . S
C710 O725 1.268 . S
C711 O717 1.268 . S
C711 O721 1.268 . S
C712 O718 1.268 . S
C712 O720 1.268 . S
C713 O719 1.268 . S
C713 O722 1.268 . S
O714 Sc704 2.105 . S
O714 C708 1.268 . S
O715 Sc705 2.105 1_545 S
O715 C709 1.268 . S
O716 Sc706 2.105 . S
O716 C710 1.268 . S
O717 Sc704 2.105 . S
O717 C711 1.268 . S
O718 Sc706 2.105 . S
O718 C712 1.268 . S
O719 Sc705 2.105 . S
O719 C713 1.268 . S
O720 Sc704 2.105 . S
O720 C712 1.268 . S
O721 Sc705 2.105 . S
O721 C711 1.268 . S
O722 Sc706 2.105 . S
O722 C713 1.268 . S
O723 Sc704 2.105 . S
O723 C709 1.268 1_565 S
O724 Sc706 2.105 . S
O724 C708 1.268 . S
O725 Sc705 2.105 . S
O725 C710 1.268 . S
Sc726 O729 2.025 . S
Sc726 O736 2.105 . S
Sc726 O739 2.105 . S
Sc726 O742 2.105 . S
Sc726 O745 2.105 . S
Sc727 O729 2.025 . S
Sc727 O737 2.105 . S
Sc727 O741 2.105 . S
Sc727 O743 2.105 . S
Sc727 O747 2.105 . S
Sc728 O729 2.025 . S
Sc728 O738 2.105 . S
Sc728 O740 2.105 . S
Sc728 O744 2.105 . S
Sc728 O746 2.105 . S
O729 Sc726 2.025 . S
O729 Sc727 2.025 . S
O729 Sc728 2.025 . S
C730 O736 1.268 . S
C730 O746 1.268 . S
C731 O737 1.268 . S
C731 O745 1.268 . S
C732 O738 1.268 . S
C732 O747 1.268 . S
C733 O739 1.268 . S
C733 O743 1.268 . S
C734 O740 1.268 . S
C734 O742 1.268 . S
C735 O741 1.268 . S
C735 O744 1.268 . S
O736 Sc726 2.105 . S
O736 C730 1.268 . S
O737 Sc727 2.105 . S
O737 C731 1.268 . S
O738 Sc728 2.105 . S
O738 C732 1.268 . S
O739 Sc726 2.105 . S
O739 C733 1.268 . S
O740 Sc728 2.105 . S
O740 C734 1.268 . S
O741 Sc727 2.105 . S
O741 C735 1.268 . S
O742 Sc726 2.105 . S
O742 C734 1.268 . S
O743 Sc727 2.105 . S
O743 C733 1.268 . S
O744 Sc728 2.105 . S
O744 C735 1.268 . S
O745 Sc726 2.105 . S
O745 C731 1.268 . S
O746 Sc728 2.105 . S
O746 C730 1.268 . S
O747 Sc727 2.105 . S
O747 C732 1.268 . S
Sc748 O751 2.025 . S
Sc748 O758 2.105 . S
Sc748 O761 2.105 . S
Sc748 O764 2.105 . S
Sc748 O767 2.105 . S
Sc749 O751 2.025 . S
Sc749 O759 2.105 . S
Sc749 O763 2.105 . S
Sc749 O765 2.105 . S
Sc749 O769 2.105 . S
Sc750 O751 2.025 . S
Sc750 O760 2.105 . S
Sc750 O762 2.105 . S
Sc750 O766 2.105 . S
Sc750 O768 2.105 . S
O751 Sc748 2.025 . S
O751 Sc749 2.025 . S
O751 Sc750 2.025 . S
C752 O758 1.268 . S
C752 O768 1.268 . S
C753 O759 1.268 . S
C753 O767 1.268 . S
C754 O760 1.268 . S
C754 O769 1.268 . S
C755 O761 1.268 . S
C755 O765 1.268 . S
C756 O762 1.268 . S
C756 O764 1.268 . S
C757 O763 1.268 . S
C757 O766 1.268 . S
O758 Sc748 2.105 . S
O758 C752 1.268 . S
O759 Sc749 2.105 . S
O759 C753 1.268 . S
O760 Sc750 2.105 . S
O760 C754 1.268 . S
O761 Sc748 2.105 . S
O761 C755 1.268 . S
O762 Sc750 2.105 . S
O762 C756 1.268 . S
O763 Sc749 2.105 . S
O763 C757 1.268 . S
O764 Sc748 2.105 . S
O764 C756 1.268 . S
O765 Sc749 2.105 . S
O765 C755 1.268 . S
O766 Sc750 2.105 . S
O766 C757 1.268 . S
O767 Sc748 2.105 . S
O767 C753 1.268 . S
O768 Sc750 2.105 . S
O768 C752 1.268 . S
O769 Sc749 2.105 . S
O769 C754 1.268 . S
Sc770 O773 2.025 . S
Sc770 O780 2.105 . S
Sc770 O783 2.105 . S
Sc770 O786 2.105 . S
Sc770 O789 2.105 . S
Sc771 O773 2.025 . S
Sc771 O781 2.105 . S
Sc771 O785 2.105 . S
Sc771 O787 2.105 . S
Sc771 O791 2.105 . S
Sc772 O773 2.025 . S
Sc772 O782 2.105 . S
Sc772 O784 2.105 . S
Sc772 O788 2.105 . S
Sc772 O790 2.105 . S
O773 Sc770 2.025 . S
O773 Sc771 2.025 . S
O773 Sc772 2.025 . S
C774 O780 1.268 . S
C774 O790 1.268 . S
C775 O781 1.268 . S
C775 O789 1.268 . S
C776 O782 1.268 . S
C776 O791 1.268 . S
C777 O783 1.268 . S
C777 O787 1.268 . S
C778 O784 1.268 . S
C778 O786 1.268 . S
C779 O785 1.268 . S
C779 O788 1.268 . S
O780 Sc770 2.105 . S
O780 C774 1.268 . S
O781 Sc771 2.105 . S
O781 C775 1.268 . S
O782 Sc772 2.105 . S
O782 C776 1.268 . S
O783 Sc770 2.105 . S
O783 C777 1.268 . S
O784 Sc772 2.105 . S
O784 C778 1.268 . S
O785 Sc771 2.105 . S
O785 C779 1.268 . S
O786 Sc770 2.105 . S
O786 C778 1.268 . S
O787 Sc771 2.105 . S
O787 C777 1.268 . S
O788 Sc772 2.105 . S
O788 C779 1.268 . S
O789 Sc770 2.105 . S
O789 C775 1.268 . S
O790 Sc772 2.105 . S
O790 C774 1.268 . S
O791 Sc771 2.105 . S
O791 C776 1.268 . S
C8 C162 1.782 . S
C184 C30 1.782 . S
C140 C52 1.782 . S
C250 C70 1.782 . S
C92 C206 1.782 . S
C114 C228 1.782 . S
C26 C136 1.782 . S
C158 C48 1.782 . S
C4 C180 1.781 . S
C118 C202 1.782 . S
C224 C74 1.781 . S
C246 C96 1.782 . S
C272 C426 1.782 . S
C448 C294 1.782 . S
C404 C316 1.782 . S
C334 C514 1.782 . S
C470 C356 1.782 . S
C378 C492 1.782 . S
C400 C290 1.782 . S
C312 C422 1.782 . S
C444 C268 1.781 . S
C382 C466 1.782 . S
C338 C488 1.781 . S
C510 C360 1.782 . S
C536 C690 1.782 . S
C558 C712 1.782 . S
C668 C580 1.781 . S
C778 C598 1.782 . S
C620 C734 1.781 . S
C756 C642 1.782 . S
C554 C664 1.782 . S
C686 C576 1.782 . S
C532 C708 1.782 . S
C730 C646 1.782 . S
C752 C602 1.782 . S
C774 C624 1.782 . S
C9 C402 2.614 . S
C31 C424 2.615 . S
C446 C53 2.615 . S
C732 C71 2.615 . S
C754 C93 2.615 . S
C776 C115 2.615 . S
C138 C537 2.614 . S
C559 C160 2.615 . S
C182 C581 2.615 . S
C204 C335 2.614 . S
C226 C357 2.615 . S
C248 C379 2.615 . S
C273 C666 2.615 1_655 S
C688 C295 2.615 . S
C317 C710 2.615 1_545 S
C599 C468 2.614 1_564 S
C490 C621 2.615 1_656 S
C643 C512 2.615 1_554 S
C7 C358 1.974 . S
C29 C380 1.974 . S
C336 C51 1.974 . S
C72 C579 1.974 . S
C535 C94 1.974 . S
C116 C557 1.974 . S
C753 C137 1.974 . S
C159 C775 1.974 . S
C731 C181 1.974 . S
C203 C445 1.974 . S
C225 C401 1.974 . S
C247 C423 1.974 . S
C622 C271 1.974 1_655 S
C293 C644 1.974 . S
C315 C600 1.974 1_565 S
C709 C467 1.974 1_545 S
C665 C489 1.974 1_655 S
C687 C511 1.974 . S
C73 C6 0.939 . S
C28 C95 0.939 1_545 S
C50 C117 0.939 1_655 S
C207 C141 0.939 . S
C163 C229 0.939 1_565 S
C251 C185 0.939 1_655 S
C337 C270 0.939 . S
C292 C359 0.939 . S
C314 C381 0.939 . S
C405 C471 0.939 . S
C427 C493 0.939 . S
C449 C515 0.939 . S
C534 C601 0.939 . S
C623 C556 0.939 . S
C645 C578 0.939 . S
C669 C735 0.938 . S
C757 C691 0.939 . S
C713 C779 0.939 . S
C5 C647 2.360 . S
C603 C27 2.360 . S
C49 C625 2.360 . S
C291 C75 2.360 . S
C97 C313 2.360 . S
C119 C269 2.360 . S
C513 C139 2.360 . S
C161 C469 2.360 . S
C491 C183 2.360 . S
C205 C689 2.360 . S
C711 C227 2.360 . S
C667 C249 2.360 . S
C339 C555 2.360 1_655 S
C361 C577 2.360 . S
C383 C533 2.360 1_545 S
C403 C777 2.360 1_545 S
C425 C733 2.360 1_655 S
C755 C447 2.360 . S
