# Generated by pormake.
# Topology crs, (6)-cn, num edge types: 1
# Building blocks:
#     Node 0, Type 0, BuildingBlock: CIFDUS_clean_sbu_1, # of connection points: 6
#     Node 1, Type 0, BuildingBlock: CIFDUS_clean_sbu_1, # of connection points: 6
#     Node 2, Type 0, BuildingBlock: CIFDUS_clean_sbu_1, # of connection points: 6
#     Node 3, Type 0, BuildingBlock: CIFDUS_clean_sbu_1, # of connection points: 6
#     Node 4, Type 0, BuildingBlock: CIFDUS_clean_sbu_1, # of connection points: 6
#     Node 5, Type 0, BuildingBlock: CIFDUS_clean_sbu_1, # of connection points: 6
#     Node 6, Type 0, BuildingBlock: CIFDUS_clean_sbu_1, # of connection points: 6
#     Node 7, Type 0, BuildingBlock: CIFDUS_clean_sbu_1, # of connection points: 6
#     Node 8, Type 0, BuildingBlock: CIFDUS_clean_sbu_1, # of connection points: 6
#     Node 9, Type 0, BuildingBlock: CIFDUS_clean_sbu_1, # of connection points: 6
#     Node 10, Type 0, BuildingBlock: CIFDUS_clean_sbu_1, # of connection points: 6
#     Node 11, Type 0, BuildingBlock: CIFDUS_clean_sbu_1, # of connection points: 6
#     Node 12, Type 0, BuildingBlock: CIFDUS_clean_sbu_1, # of connection points: 6
#     Node 13, Type 0, BuildingBlock: CIFDUS_clean_sbu_1, # of connection points: 6
#     Node 14, Type 0, BuildingBlock: CIFDUS_clean_sbu_1, # of connection points: 6
#     Node 15, Type 0, BuildingBlock: CIFDUS_clean_sbu_1, # of connection points: 6
#     Edge 16, Type (0, 0), BuildingBlock: CIFDUS_clean_linker_0, # of connection points: 2
#     Edge 17, Type (0, 0), BuildingBlock: CIFDUS_clean_linker_0, # of connection points: 2
#     Edge 18, Type (0, 0), BuildingBlock: CIFDUS_clean_linker_0, # of connection points: 2
#     Edge 19, Type (0, 0), BuildingBlock: CIFDUS_clean_linker_0, # of connection points: 2
#     Edge 20, Type (0, 0), BuildingBlock: CIFDUS_clean_linker_0, # of connection points: 2
#     Edge 21, Type (0, 0), BuildingBlock: CIFDUS_clean_linker_0, # of connection points: 2
#     Edge 22, Type (0, 0), BuildingBlock: CIFDUS_clean_linker_0, # of connection points: 2
#     Edge 23, Type (0, 0), BuildingBlock: CIFDUS_clean_linker_0, # of connection points: 2
#     Edge 24, Type (0, 0), BuildingBlock: CIFDUS_clean_linker_0, # of connection points: 2
#     Edge 25, Type (0, 0), BuildingBlock: CIFDUS_clean_linker_0, # of connection points: 2
#     Edge 26, Type (0, 0), BuildingBlock: CIFDUS_clean_linker_0, # of connection points: 2
#     Edge 27, Type (0, 0), BuildingBlock: CIFDUS_clean_linker_0, # of connection points: 2
#     Edge 28, Type (0, 0), BuildingBlock: CIFDUS_clean_linker_0, # of connection points: 2
#     Edge 29, Type (0, 0), BuildingBlock: CIFDUS_clean_linker_0, # of connection points: 2
#     Edge 30, Type (0, 0), BuildingBlock: CIFDUS_clean_linker_0, # of connection points: 2
#     Edge 31, Type (0, 0), BuildingBlock: CIFDUS_clean_linker_0, # of connection points: 2
#     Edge 32, Type (0, 0), BuildingBlock: CIFDUS_clean_linker_0, # of connection points: 2
#     Edge 33, Type (0, 0), BuildingBlock: CIFDUS_clean_linker_0, # of connection points: 2
#     Edge 34, Type (0, 0), BuildingBlock: CIFDUS_clean_linker_0, # of connection points: 2
#     Edge 35, Type (0, 0), BuildingBlock: CIFDUS_clean_linker_0, # of connection points: 2
#     Edge 36, Type (0, 0), BuildingBlock: CIFDUS_clean_linker_0, # of connection points: 2
#     Edge 37, Type (0, 0), BuildingBlock: CIFDUS_clean_linker_0, # of connection points: 2
#     Edge 38, Type (0, 0), BuildingBlock: CIFDUS_clean_linker_0, # of connection points: 2
#     Edge 39, Type (0, 0), BuildingBlock: CIFDUS_clean_linker_0, # of connection points: 2
#     Edge 40, Type (0, 0), BuildingBlock: CIFDUS_clean_linker_0, # of connection points: 2
#     Edge 41, Type (0, 0), BuildingBlock: CIFDUS_clean_linker_0, # of connection points: 2
#     Edge 42, Type (0, 0), BuildingBlock: CIFDUS_clean_linker_0, # of connection points: 2
#     Edge 43, Type (0, 0), BuildingBlock: CIFDUS_clean_linker_0, # of connection points: 2
#     Edge 44, Type (0, 0), BuildingBlock: CIFDUS_clean_linker_0, # of connection points: 2
#     Edge 45, Type (0, 0), BuildingBlock: CIFDUS_clean_linker_0, # of connection points: 2
#     Edge 46, Type (0, 0), BuildingBlock: CIFDUS_clean_linker_0, # of connection points: 2
#     Edge 47, Type (0, 0), BuildingBlock: CIFDUS_clean_linker_0, # of connection points: 2
#     Edge 48, Type (0, 0), BuildingBlock: CIFDUS_clean_linker_0, # of connection points: 2
#     Edge 49, Type (0, 0), BuildingBlock: CIFDUS_clean_linker_0, # of connection points: 2
#     Edge 50, Type (0, 0), BuildingBlock: CIFDUS_clean_linker_0, # of connection points: 2
#     Edge 51, Type (0, 0), BuildingBlock: CIFDUS_clean_linker_0, # of connection points: 2
#     Edge 52, Type (0, 0), BuildingBlock: CIFDUS_clean_linker_0, # of connection points: 2
#     Edge 53, Type (0, 0), BuildingBlock: CIFDUS_clean_linker_0, # of connection points: 2
#     Edge 54, Type (0, 0), BuildingBlock: CIFDUS_clean_linker_0, # of connection points: 2
#     Edge 55, Type (0, 0), BuildingBlock: CIFDUS_clean_linker_0, # of connection points: 2
#     Edge 56, Type (0, 0), BuildingBlock: CIFDUS_clean_linker_0, # of connection points: 2
#     Edge 57, Type (0, 0), BuildingBlock: CIFDUS_clean_linker_0, # of connection points: 2
#     Edge 58, Type (0, 0), BuildingBlock: CIFDUS_clean_linker_0, # of connection points: 2
#     Edge 59, Type (0, 0), BuildingBlock: CIFDUS_clean_linker_0, # of connection points: 2
#     Edge 60, Type (0, 0), BuildingBlock: CIFDUS_clean_linker_0, # of connection points: 2
#     Edge 61, Type (0, 0), BuildingBlock: CIFDUS_clean_linker_0, # of connection points: 2
#     Edge 62, Type (0, 0), BuildingBlock: CIFDUS_clean_linker_0, # of connection points: 2
#     Edge 63, Type (0, 0), BuildingBlock: CIFDUS_clean_linker_0, # of connection points: 2
# Relax obj value: 0.276
# Max RMSD: 0.233
# Mean RMSD: 0.228
data_MOF--net-crs--node1-CIFDUS_clean_sbu_1--edge1-CIFDUS_clean_linker_0
_symmetry_space_group_name_H-M    P1
_symmetry_Int_Tables_number       1
_symmetry_cell_setting            triclinic
loop_
_symmetry_equiv_pos_as_xyz
'x, y, z'
_cell_length_a     35.845409
_cell_length_b     36.580714
_cell_length_c     36.654386
_cell_angle_alpha  90.132061
_cell_angle_beta   89.165014
_cell_angle_gamma 88.052251
loop_
_atom_site_label
_atom_site_type_symbol
_atom_site_fract_x
_atom_site_fract_y
_atom_site_fract_z
_atom_type_partial_charge
O0 O 0.95898 0.01481 0.9782 0.0
Mn1 Mn 0.00581 0.00291 0.00988 0.0
O2 O 0.90835 0.01267 0.01461 0.0
Mn3 Mn 0.93287 0.98846 0.05177 0.0
O4 O 0.05263 0.9911 0.04125 0.0
O5 O 0.03522 -0.00332 0.96247 0.0
Mn6 Mn 0.07762 0.01916 0.96686 0.0
O7 O 0.01726 0.05967 0.01189 0.0
O8 O 0.10314 -0.00261 0.0052 0.0
O9 O 0.99482 0.94617 0.00863 0.0
O10 O 0.94344 0.93957 0.04397 0.0
O11 O 0.07908 -0.00037 0.92085 0.0
O12 O 0.06498 0.06807 0.97256 0.0
C13 C 0.96528 0.01633 0.09042 0.0
C14 C 0.92366 0.01905 0.98385 0.0
C15 C 0.08806 0.98917 0.03569 0.0
C16 C 0.04626 0.98832 0.9295 0.0
C17 C 0.03981 0.08056 0.99449 0.0
C18 C 0.97022 0.92632 0.02439 0.0
O19 O 0.9763 0.00877 0.05727 0.0
O20 O 0.93191 0.00607 0.09846 0.0
O21 O 0.04428 0.25982 0.20545 0.0
Mn22 Mn 0.00902 0.2499 0.24991 0.0
O23 O 0.00895 0.25483 0.15518 0.0
Mn24 Mn 0.96544 0.23992 0.17782 0.0
O25 O 0.97344 0.24069 0.29331 0.0
O26 O 0.05282 0.23524 0.28065 0.0
Mn27 Mn 0.0521 0.25939 0.32221 0.0
O28 O 0.01077 0.30479 0.26727 0.0
O29 O 0.00612 0.2491 0.34456 0.0
O30 O 0.00707 0.19514 0.23412 0.0
O31 O 0.96544 0.19096 0.1892 0.0
O32 O 0.09298 0.22671 0.32324 0.0
O33 O 0.05614 0.30767 0.30859 0.0
C34 C 0.93354 0.27906 0.21009 0.0
C35 C 0.03994 0.26086 0.17059 0.0
C36 C 0.97565 0.24271 0.32814 0.0
C37 C 0.0815 0.21639 0.2917 0.0
C38 C 0.03163 0.32309 0.28849 0.0
C39 C 0.98768 0.17653 0.21216 0.0
O40 O 0.96443 0.26321 0.21976 0.0
O41 O 0.92198 0.26872 0.17856 0.0
O42 O 0.74471 0.23531 0.54958 0.0
Mn43 Mn 0.74434 0.25343 0.49579 0.0
O44 O 0.77134 0.1785 0.54864 0.0
Mn45 Mn 0.77311 0.17225 0.4984 0.0
O46 O 0.74451 0.27199 0.44178 0.0
O47 O 0.70571 0.29149 0.511 0.0
Mn48 Mn 0.71481 0.33424 0.49167 0.0
O49 O 0.7861 0.28798 0.50889 0.0
O50 O 0.71172 0.32572 0.44198 0.0
O51 O 0.70227 0.21852 0.48233 0.0
O52 O 0.72856 0.16204 0.47632 0.0
O53 O 0.67339 0.34113 0.52218 0.0
O54 O 0.76167 0.34546 0.50881 0.0
C55 C 0.81406 0.20157 0.46805 0.0
C56 C 0.75763 0.20652 0.56552 0.0
C57 C 0.72825 0.29895 0.42533 0.0
C58 C 0.67851 0.30674 0.52937 0.0
C59 C 0.78859 0.3224 0.51414 0.0
C60 C 0.70084 0.18464 0.47344 0.0
O61 O 0.78354 0.21563 0.48159 0.0
O62 O 0.81856 0.16688 0.47381 0.0
O63 O 0.74991 0.9551 0.77069 0.0
Mn64 Mn 0.75124 0.01108 0.7573 0.0
O65 O 0.69376 0.94639 0.79597 0.0
Mn66 Mn 0.69112 0.99287 0.81542 0.0
O67 O 0.75134 0.06633 0.74322 0.0
O68 O 0.80347 0.00189 0.73732 0.0
Mn69 Mn 0.81008 0.02856 0.69789 0.0
O70 O 0.7292 0.00096 0.70662 0.0
O71 O 0.80387 0.0769 0.71207 0.0
O72 O 0.77285 0.02149 0.80785 0.0
O73 O 0.72854 0.00451 0.8483 0.0
O74 O 0.85445 0.00259 0.70468 0.0
O75 O 0.77437 0.01297 0.66516 0.0
C76 C 0.66837 0.03808 0.78505 0.0
C77 C 0.72434 0.93386 0.78222 0.0
C78 C 0.77338 0.08817 0.72705 0.0
C79 C 0.83707 0.98864 0.73223 0.0
C80 C 0.74128 0.0035 0.67357 0.0
C81 C 0.76088 0.01665 0.8406 0.0
O82 O 0.69977 0.02112 0.778 0.0
O83 O 0.6493 0.02346 0.81108 0.0
O84 O 0.55681 0.76995 0.21658 0.0
Mn85 Mn 0.5108 0.74858 0.24383 0.0
O86 O 0.53383 0.80908 0.17432 0.0
Mn87 Mn 0.4878 0.78793 0.17137 0.0
O88 O 0.46346 0.7289 0.27089 0.0
O89 O 0.54659 0.71523 0.27143 0.0
Mn90 Mn 0.52873 0.71191 0.31649 0.0
O91 O 0.51302 0.78865 0.2835 0.0
O92 O 0.48354 0.68957 0.31337 0.0
O93 O 0.50751 0.7096 0.2028 0.0
O94 O 0.48963 0.74091 0.15241 0.0
O95 O 0.57243 0.6844 0.31595 0.0
O96 O 0.52425 0.75883 0.33608 0.0
C97 C 0.44636 0.80088 0.21339 0.0
C98 C 0.5608 0.79505 0.19245 0.0
C99 C 0.45728 0.70497 0.29559 0.0
C100 C 0.57372 0.69353 0.28186 0.0
C101 C 0.51647 0.78792 0.31816 0.0
C102 C 0.49932 0.71127 0.16871 0.0
O103 O 0.47604 0.78111 0.21709 0.0
O104 O 0.44265 0.8135 0.18071 0.0
O105 O 0.26495 0.72798 0.55591 0.0
Mn106 Mn 0.26334 0.74315 0.5004 0.0
O107 O 0.31918 0.69651 0.56275 0.0
Mn108 Mn 0.31791 0.6776 0.51612 0.0
O109 O 0.26244 0.75936 0.44541 0.0
O110 O 0.21364 0.76867 0.51119 0.0
Mn111 Mn 0.21148 0.81146 0.48914 0.0
O112 O 0.2904 0.78975 0.51396 0.0
O113 O 0.21571 0.80144 0.43978 0.0
O114 O 0.23717 0.69599 0.48802 0.0
O115 O 0.27651 0.64992 0.50543 0.0
O116 O 0.16691 0.8081 0.51427 0.0
O117 O 0.2497 0.83768 0.50935 0.0
C118 C 0.34059 0.70571 0.46974 0.0
C119 C 0.29096 0.71424 0.57607 0.0
C120 C 0.24138 0.78057 0.426 0.0
C121 C 0.18105 0.77701 0.52497 0.0
C122 C 0.2815 0.82376 0.51792 0.0
C123 C 0.24543 0.66192 0.49256 0.0
O124 O 0.31227 0.71699 0.48924 0.0
O125 O 0.35726 0.6768 0.48279 0.0
O126 O 0.24917 0.45451 0.77672 0.0
Mn127 Mn 0.25164 0.50986 0.76076 0.0
O128 O 0.19221 0.44719 0.80052 0.0
Mn129 Mn 0.18988 0.49445 0.81809 0.0
O130 O 0.2536 0.56484 0.74461 0.0
O131 O 0.30394 0.49875 0.74223 0.0
Mn132 Mn 0.3126 0.52405 0.70238 0.0
O133 O 0.23056 0.49836 0.70981 0.0
O134 O 0.30798 0.57271 0.71557 0.0
O135 O 0.27234 0.52145 0.81157 0.0
O136 O 0.22689 0.50598 0.85147 0.0
O137 O 0.35573 0.4966 0.71088 0.0
O138 O 0.2771 0.5088 0.66927 0.0
C139 C 0.16859 0.53894 0.78568 0.0
C140 C 0.22343 0.4339 0.78908 0.0
C141 C 0.27751 0.58551 0.72935 0.0
C142 C 0.33702 0.48399 0.73826 0.0
C143 C 0.24364 0.49997 0.67702 0.0
C144 C 0.25974 0.51711 0.84422 0.0
O145 O 0.19994 0.52143 0.78 0.0
O146 O 0.14871 0.52552 0.81182 0.0
O147 O 0.01169 0.5215 0.5659 0.0
Mn148 Mn 0.01276 0.50134 0.5123 0.0
O149 O 0.97941 0.57559 0.56484 0.0
Mn150 Mn 0.97826 0.58094 0.51474 0.0
O151 O 0.01406 0.48183 0.45815 0.0
O152 O 0.05354 0.4655 0.52653 0.0
Mn153 Mn 0.04587 0.42173 0.50871 0.0
O154 O 0.97302 0.4647 0.52675 0.0
O155 O 0.04667 0.42799 0.45868 0.0
O156 O 0.05229 0.53845 0.49762 0.0
O157 O 0.02265 0.59355 0.49229 0.0
O158 O 0.08987 0.41776 0.53444 0.0
O159 O 0.00042 0.40853 0.52889 0.0
C160 C 0.94103 0.54816 0.48453 0.0
C161 C 0.99621 0.5496 0.5818 0.0
C162 C 0.03016 0.45421 0.44188 0.0
C163 C 0.08337 0.4521 0.5413 0.0
C164 C 0.97212 0.43037 0.53322 0.0
C165 C 0.05159 0.5724 0.48889 0.0
O166 O 0.97166 0.53657 0.49878 0.0
O167 O 0.93354 0.58257 0.48989 0.0
O168 O 0.25561 0.2279 0.06374 0.0
Mn169 Mn 0.25399 0.25601 0.01428 0.0
O170 O 0.24994 0.16791 0.05026 0.0
Mn171 Mn 0.24287 0.1719 0.00024 0.0
O172 O 0.25321 0.28523 0.96517 0.0
O173 O 0.24069 0.30156 0.04154 0.0
Mn174 Mn 0.26917 0.33813 0.03174 0.0
O175 O 0.31133 0.26679 0.01663 0.0
O176 O 0.26331 0.344 0.9816 0.0
O177 O 0.19656 0.24442 0.00959 0.0
O178 O 0.19482 0.18624 0.98835 0.0
O179 O 0.23528 0.35374 0.06837 0.0
O180 O 0.31677 0.32144 0.04362 0.0
C181 C 0.28835 0.19084 0.96668 0.0
C182 C 0.25341 0.19416 0.07294 0.0
C183 C 0.25864 0.3191 0.95754 0.0
C184 C 0.22353 0.32084 0.06605 0.0
C185 C 0.3312 0.29218 0.02983 0.0
C186 C 0.17891 0.21676 0.99729 0.0
O187 O 0.2676 0.2103 0.98807 0.0
O188 O 0.27937 0.15699 0.96557 0.0
O189 O 0.25965 0.94017 0.27183 0.0
Mn190 Mn 0.26851 0.99542 0.25894 0.0
O191 O 0.20606 0.93923 0.30385 0.0
Mn192 Mn 0.21195 0.98566 0.32191 0.0
O193 O 0.27761 0.0499 0.24452 0.0
O194 O 0.31724 0.97976 0.23724 0.0
Mn195 Mn 0.32774 0.0003 0.19562 0.0
O196 O 0.24249 0.9882 0.20912 0.0
O197 O 0.32745 0.04974 0.2063 0.0
O198 O 0.2954 0.0013 0.30758 0.0
O199 O 0.25345 0.99043 0.35215 0.0
O200 O 0.36844 0.96967 0.20739 0.0
O201 O 0.28877 0.98568 0.16645 0.0
C202 C 0.19024 0.03168 0.29155 0.0
C203 C 0.23237 0.9229 0.28604 0.0
C204 C 0.30197 0.06652 0.22507 0.0
C205 C 0.34892 0.96264 0.23629 0.0
C206 C 0.25437 0.98357 0.17602 0.0
C207 C 0.28679 -0.00357 0.34121 0.0
O208 O 0.22014 0.01268 0.28293 0.0
O209 O 0.1731 0.02011 0.32037 0.0
O210 O 0.52725 0.26785 0.71496 0.0
Mn211 Mn 0.4893 0.25877 0.75709 0.0
O212 O 0.49546 0.26312 0.66243 0.0
Mn213 Mn 0.44898 0.25271 0.68305 0.0
O214 O 0.45127 0.24981 0.7987 0.0
O215 O 0.53141 0.24164 0.78904 0.0
Mn216 Mn 0.52835 0.26199 0.83248 0.0
O217 O 0.49387 0.31263 0.77467 0.0
O218 O 0.4828 0.24754 0.85143 0.0
O219 O 0.48427 0.20479 0.74016 0.0
O220 O 0.44279 0.2043 0.69493 0.0
O221 O 0.57018 0.23073 0.83264 0.0
O222 O 0.53034 0.31153 0.82428 0.0
C223 C 0.41733 0.29315 0.71476 0.0
C224 C 0.52549 0.26816 0.67996 0.0
C225 C 0.45272 0.24535 0.83335 0.0
C226 C 0.56005 0.22263 0.79997 0.0
C227 C 0.51129 0.32852 0.80022 0.0
C228 C 0.46278 0.18797 0.71864 0.0
O229 O 0.44711 0.27581 0.72536 0.0
O230 O 0.40765 0.2846 0.68206 0.0
O231 O 0.03295 0.76735 0.71375 0.0
Mn232 Mn 0.99448 0.76237 0.75646 0.0
O233 O 0.00059 0.76313 0.66164 0.0
Mn234 Mn 0.95358 0.75685 0.68294 0.0
O235 O 0.95645 0.75694 0.79914 0.0
O236 O 0.03619 0.74414 0.78811 0.0
Mn237 Mn 0.0354 0.76528 0.83107 0.0
O238 O 0.00184 0.81655 0.77297 0.0
O239 O 0.98963 0.75307 0.85104 0.0
O240 O 0.98651 0.70807 0.7404 0.0
O241 O 0.94464 0.70916 0.69548 0.0
O242 O 0.07591 0.73233 0.83062 0.0
O243 O 0.03934 0.81449 0.82191 0.0
C244 C 0.92368 0.79893 0.71363 0.0
C245 C 0.03126 0.76576 0.67876 0.0
C246 C 0.95889 0.75285 0.83383 0.0
C247 C 0.06446 0.72431 0.79838 0.0
C248 C 0.02035 0.83201 0.79816 0.0
C249 C 0.96449 0.69195 0.71867 0.0
O250 O 0.95288 0.78087 0.72471 0.0
O251 O 0.91389 0.7904 0.68094 0.0
O252 O 0.77692 0.44856 0.26062 0.0
Mn253 Mn 0.78137 0.50369 0.24561 0.0
O254 O 0.72789 0.44616 0.29949 0.0
Mn255 Mn 0.72826 0.49493 0.31241 0.0
O256 O 0.78503 0.55886 0.23181 0.0
O257 O 0.83051 0.49088 0.22117 0.0
Mn258 Mn 0.83596 0.51632 0.18105 0.0
O259 O 0.75373 0.49417 0.19741 0.0
O260 O 0.83546 0.56459 0.19583 0.0
O261 O 0.80981 0.51249 0.29297 0.0
O262 O 0.76949 0.50721 0.34011 0.0
O263 O 0.8788 0.48721 0.18486 0.0
O264 O 0.79626 0.50235 0.15233 0.0
C265 C 0.70108 0.53409 0.27679 0.0
C266 C 0.75349 0.43061 0.27991 0.0
C267 C 0.80866 0.57853 0.2149 0.0
C268 C 0.8626 0.47535 0.21407 0.0
C269 C 0.76354 0.49426 0.16353 0.0
C270 C 0.80229 0.51218 0.32722 0.0
O271 O 0.73285 0.51765 0.27039 0.0
O272 O 0.68595 0.52512 0.30757 0.0
O273 O 0.75915 0.72605 0.05016 0.0
Mn274 Mn 0.75609 0.75281 0.00057 0.0
O275 O 0.74682 0.66698 0.03859 0.0
Mn276 Mn 0.74443 0.66873 0.98788 0.0
O277 O 0.75434 0.78016 0.95072 0.0
O278 O 0.74147 0.79866 0.02771 0.0
Mn279 Mn 0.76858 0.83543 0.01468 0.0
O280 O 0.81336 0.76462 0.0026 0.0
O281 O 0.762 0.83978 0.96467 0.0
O282 O 0.69888 0.74015 0.99637 0.0
O283 O 0.69779 0.68339 0.97179 0.0
O284 O 0.73532 0.85281 0.05058 0.0
O285 O 0.8168 0.82102 0.02652 0.0
C286 C 0.79352 0.68613 0.95828 0.0
C287 C 0.75288 0.69336 0.06042 0.0
C288 C 0.75848 0.81376 0.94171 0.0
C289 C 0.72464 0.81939 0.05164 0.0
C290 C 0.8322 0.79128 0.01484 0.0
C291 C 0.68147 0.71324 0.98228 0.0
O292 O 0.76977 0.70669 0.97525 0.0
O293 O 0.78506 0.6521 0.95867 0.0
O294 O 0.50346 0.01173 0.57494 0.0
Mn295 Mn 0.50009 0.98987 0.52253 0.0
O296 O 0.46553 0.06216 0.57654 0.0
Mn297 Mn 0.45898 0.06607 0.52687 0.0
O298 O 0.49648 0.96815 0.46991 0.0
O299 O 0.54594 0.95886 0.53337 0.0
Mn300 Mn 0.54165 0.91425 0.51674 0.0
O301 O 0.46664 0.94984 0.54251 0.0
O302 O 0.53738 0.92012 0.46703 0.0
O303 O 0.53341 0.02974 0.50173 0.0
O304 O 0.49933 0.08253 0.49981 0.0
O305 O 0.58774 0.91488 0.53842 0.0
O306 O 0.49997 0.89654 0.54085 0.0
C307 C 0.42138 0.03011 0.50114 0.0
C308 C 0.48671 0.03835 0.59197 0.0
C309 C 0.51493 0.94308 0.45212 0.0
C310 C 0.57815 0.94856 0.54562 0.0
C311 C 0.47018 0.91541 0.54844 0.0
C312 C 0.52906 0.06343 0.49272 0.0
O313 O 0.45417 0.02072 0.51236 0.0
O314 O 0.41193 0.06404 0.5071 0.0
O315 O 0.46057 0.50925 0.97875 0.0
Mn316 Mn 0.50882 0.49782 0.00788 0.0
O317 O 0.41149 0.50177 0.01687 0.0
Mn318 Mn 0.43805 0.48224 0.05597 0.0
O319 O 0.55691 0.48658 0.03781 0.0
O320 O 0.53658 0.49171 0.95995 0.0
Mn321 Mn 0.57988 0.51265 0.96206 0.0
O322 O 0.52104 0.55412 0.00906 0.0
O323 O 0.60599 0.48971 -0.00076 0.0
O324 O 0.49736 0.44106 0.00805 0.0
O325 O 0.45258 0.43383 0.05133 0.0
O326 O 0.57756 0.49367 0.91579 0.0
O327 O 0.56885 0.56167 0.96945 0.0
C328 C 0.47303 0.51722 0.0866 0.0
C329 C 0.42531 0.5102 0.98575 0.0
C330 C 0.59208 0.48337 0.03073 0.0
C331 C 0.54485 0.4836 0.92636 0.0
C332 C 0.54425 0.57442 0.99188 0.0
C333 C 0.47651 0.4209 0.02826 0.0
O334 O 0.48048 0.50434 0.05469 0.0
O335 O 0.44173 0.50671 0.10022 0.0
H336 H 0.94578 0.02756 0.16058 0.0
H337 H 0.03305 0.04951 0.08234 0.0
H338 H 0.05692 0.09634 0.12325 0.0
H339 H 0.03988 0.1424 0.17058 0.0
H340 H 0.94758 0.1238 0.24389 0.0
H341 H 0.93869 0.06409 0.21587 0.0
C342 C 0.97038 0.0422 0.15251 0.0
C343 C 0.98647 0.03668 0.11759 0.0
C344 C 0.98245 0.07012 0.17508 0.0
C345 C 0.01926 0.05452 0.10837 0.0
C346 C 0.03276 0.08129 0.13168 0.0
C347 C 0.01917 0.12426 0.18152 0.0
C348 C 0.99421 0.13707 0.20894 0.0
C349 C 0.01273 0.0912 0.16361 0.0
C350 C 0.9671 0.11406 0.2229 0.0
C351 C 0.96171 0.08026 0.20648 0.0
H352 H 0.81588 0.21773 0.39671 0.0
H353 H 0.87778 0.2256 0.49593 0.0
H354 H 0.93364 0.24185 0.46126 0.0
H355 H 0.96668 0.2456 0.4023 0.0
H356 H 0.90537 0.23299 0.30265 0.0
H357 H 0.84783 0.2264 0.33767 0.0
C358 C 0.84133 0.22435 0.4106 0.0
C359 C 0.84274 0.22172 0.44867 0.0
C360 C 0.87377 0.23157 0.39031 0.0
C361 C 0.87598 0.22887 0.46663 0.0
C362 C 0.90804 0.23744 0.44677 0.0
C363 C 0.94077 0.24147 0.38819 0.0
C364 C 0.94071 0.23906 0.34987 0.0
C365 C 0.90762 0.23747 0.4085 0.0
C366 C 0.9066 0.23427 0.33214 0.0
C367 C 0.87349 0.23072 0.35212 0.0
H368 H 0.81093 0.14955 0.71182 0.0
H369 H 0.7017 0.10393 0.70867 0.0
H370 H 0.68243 0.14786 0.66285 0.0
H371 H 0.70339 0.18409 0.61063 0.0
H372 H 0.81513 0.22348 0.60801 0.0
H373 H 0.82676 0.1978 0.66848 0.0
C374 C 0.78238 0.15053 0.70233 0.0
C375 C 0.75788 0.12354 0.71383 0.0
C376 C 0.77236 0.1741 0.67367 0.0
C377 C 0.72093 0.12494 0.70128 0.0
C378 C 0.7101 0.14956 0.67415 0.0
C379 C 0.72953 0.18851 0.62429 0.0
C380 C 0.75848 0.20527 0.60533 0.0
C381 C 0.73651 0.17213 0.65819 0.0
C382 C 0.79253 0.21066 0.62256 0.0
C383 C 0.79926 0.19566 0.65691 0.0
H384 H 0.84867 0.0308 0.9864 0.0
H385 H 0.94264 0.02423 0.91121 0.0
H386 H 0.90001 0.02635 0.85977 0.0
H387 H 0.83618 0.02328 0.83663 0.0
H388 H 0.74284 0.02584 0.91265 0.0
H389 H 0.78539 0.0319 0.9634 0.0
C390 C 0.86001 0.03031 0.95879 0.0
C391 C 0.89884 0.027 0.95275 0.0
C392 C 0.83545 0.03035 0.9295 0.0
C393 C 0.91289 0.02675 0.91672 0.0
C394 C 0.88852 0.0277 0.88727 0.0
C395 C 0.82508 0.02569 0.86426 0.0
C396 C 0.78639 0.02382 0.87087 0.0
C397 C 0.84975 0.02845 0.89341 0.0
C398 C 0.77251 0.02681 0.90683 0.0
C399 C 0.7968 0.03036 0.93587 0.0
H400 H 0.16205 0.97184 0.03246 0.0
H401 H 0.07007 0.9882 0.10873 0.0
H402 H 0.11336 0.98525 0.1596 0.0
H403 H 0.17805 0.98426 0.18177 0.0
H404 H 0.26936 0.96856 0.10431 0.0
H405 H 0.22546 0.96491 0.05475 0.0
C406 C 0.15132 0.97434 0.06021 0.0
C407 C 0.11294 0.98087 0.06667 0.0
C408 C 0.17631 0.97307 0.08921 0.0
C409 C 0.09953 0.98342 0.10289 0.0
C410 C 0.1243 0.98191 0.13203 0.0
C411 C 0.18836 0.97961 0.15413 0.0
C412 C 0.22707 0.97727 0.14688 0.0
C413 C 0.16289 0.97775 0.12543 0.0
C414 C 0.23981 0.97096 0.11082 0.0
C415 C 0.21471 0.96881 0.08233 0.0
H416 H 0.97264 0.43451 0.40005 0.0
H417 H 0.08821 0.46271 0.39573 0.0
H418 H 0.09672 0.43062 0.33757 0.0
H419 H 0.07585 0.38054 0.29902 0.0
H420 H 0.96194 0.34745 0.3073 0.0
H421 H 0.94761 0.39611 0.35125 0.0
C422 C 0.99905 0.43523 0.38525 0.0
C423 C 0.0298 0.4508 0.40192 0.0
C424 C 0.00414 0.41511 0.35264 0.0
C425 C 0.06416 0.45107 0.38309 0.0
C426 C 0.06913 0.43229 0.35008 0.0
C427 C 0.04747 0.38534 0.30904 0.0
C428 C 0.01998 0.36062 0.29969 0.0
C429 C 0.04003 0.41207 0.33604 0.0
C430 C 0.98339 0.36664 0.31325 0.0
C431 C 0.97537 0.39405 0.33914 0.0
H432 H 0.65779 0.33665 0.59341 0.0
H433 H 0.64986 0.2381 0.53013 0.0
H434 H 0.60179 0.21621 0.57234 0.0
H435 H 0.55704 0.22918 0.6237 0.0
H436 H 0.5695 0.32578 0.68938 0.0
H437 H 0.62109 0.34458 0.64998 0.0
C438 C 0.64597 0.31006 0.58928 0.0
C439 C 0.65652 0.28925 0.55834 0.0
C440 C 0.61897 0.29769 0.6139 0.0
C441 C 0.64176 0.25462 0.55354 0.0
C442 C 0.61418 0.24228 0.57759 0.0
C443 C 0.57147 0.25408 0.62946 0.0
C444 C 0.55932 0.27654 0.65882 0.0
C445 C 0.60169 0.26422 0.6072 0.0
C446 C 0.57842 0.30834 0.66673 0.0
C447 C 0.60778 0.31908 0.64421 0.0
H448 H 0.78982 0.90776 0.80787 0.0
H449 H 0.679 0.87549 0.78144 0.0
H450 H 0.68306 0.82643 0.82643 0.0
H451 H 0.71084 0.80624 0.88489 0.0
H452 H 0.81952 0.84328 0.91315 0.0
H453 H 0.82429 0.87592 0.85549 0.0
C454 C 0.76755 0.88854 0.81013 0.0
C455 C 0.73397 0.8956 0.79187 0.0
C456 C 0.76929 0.86187 0.83752 0.0
C457 C 0.70505 0.87074 0.79559 0.0
C458 C 0.70713 0.84305 0.82177 0.0
C459 C 0.73599 0.82038 0.87761 0.0
C460 C 0.76441 0.82326 0.90322 0.0
C461 C 0.73789 0.84039 0.8449 0.0
C462 C 0.79706 0.84143 0.89383 0.0
C463 C 0.79978 0.86013 0.86094 0.0
H464 H 0.15806 0.29346 0.04674 0.0
H465 H 0.224 0.32008 0.13969 0.0
H466 H 0.17349 0.30212 0.18107 0.0
H467 H 0.1094 0.28161 0.19032 0.0
H468 H 0.04289 0.25786 0.09625 0.0
H469 H 0.09454 0.27232 0.0559 0.0
C470 C 0.16155 0.29437 0.07606 0.0
C471 C 0.19458 0.30717 0.09044 0.0
C472 C 0.13213 0.28503 0.09943 0.0
C473 C 0.19861 0.30988 0.12834 0.0
C474 C 0.1698 0.29973 0.15188 0.0
C475 C 0.10628 0.27933 0.16102 0.0
C476 C 0.07214 0.26886 0.14652 0.0
C477 C 0.1362 0.28771 0.1377 0.0
C478 C 0.06867 0.26611 0.10837 0.0
C479 C 0.09831 0.27415 0.08512 0.0
H480 H 0.70334 0.37763 0.28257 0.0
H481 H 0.81927 0.39837 0.29949 0.0
H482 H 0.82458 0.34646 0.3407 0.0
H483 H 0.79095 0.31046 0.3865 0.0
H484 H 0.67251 0.29824 0.37666 0.0
H485 H 0.67314 0.33042 0.31837 0.0
C486 C 0.73018 0.36941 0.29384 0.0
C487 C 0.76087 0.39163 0.28792 0.0
C488 C 0.73206 0.34156 0.32004 0.0
C489 C 0.7955 0.38117 0.3028 0.0
C490 C 0.79825 0.35196 0.32724 0.0
C491 C 0.76578 0.31326 0.37049 0.0
C492 C 0.7317 0.30238 0.38559 0.0
C493 C 0.766 0.33404 0.33828 0.0
C494 C 0.69899 0.30647 0.36526 0.0
C495 C 0.69932 0.32523 0.33218 0.0
H496 H 0.65088 0.95887 0.53547 0.0
H497 H 0.55864 0.98302 0.60905 0.0
H498 H 0.6015 0.00473 0.65502 0.0
H499 H 0.66573 0.00941 0.67662 0.0
H500 H 0.75832 0.98284 0.60355 0.0
H501 H 0.71492 0.9691 0.555 0.0
C502 C 0.64025 0.97004 0.56119 0.0
C503 C 0.60176 0.97055 0.56866 0.0
C504 C 0.6652 0.98096 0.58783 0.0
C505 C 0.58802 0.98409 0.6022 0.0
C506 C 0.61264 0.99563 0.62876 0.0
C507 C 0.6764 0.0006 0.65006 0.0
C508 C 0.71514 -0.00362 0.64386 0.0
C509 C 0.65134 0.993 0.62226 0.0
C510 C 0.72861 0.9859 0.60908 0.0
C511 C 0.70384 0.97813 0.58131 0.0
H512 H 0.06347 0.97906 0.85851 0.0
H513 H 0.98194 0.94963 0.94003 0.0
H514 H 0.95864 0.90296 0.89882 0.0
H515 H 0.9723 0.86187 0.84647 0.0
H516 H 0.05873 0.88793 0.76897 0.0
H517 H 0.06869 0.94549 0.80106 0.0
C518 C 0.04018 0.96285 0.86721 0.0
C519 C 0.02552 0.96659 0.90296 0.0
C520 C 0.02795 0.93552 0.84392 0.0
C521 C 0.99455 0.94637 0.91322 0.0
C522 C 0.98124 0.91975 0.88962 0.0
C523 C 0.99202 0.88115 0.83576 0.0
C524 C 0.01475 0.87114 0.80549 0.0
C525 C 0.99923 0.91276 0.85583 0.0
C526 C 0.0407 0.89557 0.79192 0.0
C527 C 0.04677 0.92807 0.81067 0.0
H528 H 0.04701 0.13735 0.94796 0.0
H529 H 0.04278 0.11118 0.06203 0.0
H530 H 0.08093 0.16336 0.07597 0.0
H531 H 0.13104 0.20227 0.05227 0.0
H532 H 0.13662 0.22652 0.93757 0.0
H533 H 0.08167 0.19054 0.92714 0.0
C534 C 0.05273 0.1443 0.97608 0.0
C535 C 0.04302 0.11977 0.00398 0.0
C536 C 0.07573 0.17378 0.9835 0.0
C537 C 0.05029 0.12926 0.04021 0.0
C538 C 0.07263 0.15893 0.04803 0.0
C539 C 0.11863 0.20171 0.02545 0.0
C540 C 0.13788 0.21694 0.99568 0.0
C541 C 0.08789 0.17951 0.0195 0.0
C542 C 0.12205 0.21538 0.96093 0.0
C543 C 0.09101 0.19414 0.95487 0.0
H544 H 0.71726 0.60545 0.2724 0.0
H545 H 0.64186 0.52563 0.2334 0.0
H546 H 0.59547 0.57402 0.21972 0.0
H547 H 0.57084 0.6356 0.23662 0.0
H548 H 0.6451 0.71441 0.27953 0.0
H549 H 0.69783 0.67081 0.27236 0.0
C550 C 0.69149 0.59899 0.25901 0.0
C551 C 0.68292 0.56219 0.25374 0.0
C552 C 0.66444 0.62696 0.25248 0.0
C553 C 0.64913 0.55388 0.23726 0.0
C554 C 0.62241 0.58155 0.22986 0.0
C555 C 0.59898 0.64391 0.24214 0.0
C556 C 0.60416 0.67809 0.25858 0.0
C557 C 0.62881 0.61786 0.23979 0.0
C558 C 0.64056 0.68835 0.26648 0.0
C559 C 0.67063 0.66311 0.26305 0.0
H560 H 0.34583 0.80253 0.55021 0.0
H561 H 0.28091 0.89865 0.51842 0.0
H562 H 0.33257 0.93716 0.53416 0.0
H563 H 0.39893 0.94186 0.54602 0.0
H564 H 0.46536 0.84488 0.57217 0.0
H565 H 0.40972 0.80837 0.57044 0.0
C566 C 0.3428 0.83195 0.54693 0.0
C567 C 0.31008 0.84766 0.53213 0.0
C568 C 0.37284 0.8537 0.55495 0.0
C569 C 0.30613 0.88586 0.52915 0.0
C570 C 0.33565 0.90788 0.53807 0.0
C571 C 0.4012 0.9129 0.5523 0.0
C572 C 0.43634 0.89586 0.55827 0.0
C573 C 0.3696 0.89187 0.54946 0.0
C574 C 0.43867 0.85846 0.56684 0.0
C575 C 0.40696 0.83755 0.56562 0.0
H576 H 0.13647 0.70605 0.78484 0.0
H577 H 0.02525 0.66671 0.77678 0.0
H578 H 0.04983 0.60601 0.76039 0.0
H579 H 0.10223 0.5618 0.76102 0.0
H580 H 0.21152 0.59852 0.78658 0.0
H581 H 0.18968 0.66202 0.78177 0.0
C582 C 0.11783 0.68442 0.77783 0.0
C583 C 0.07909 0.6913 0.77958 0.0
C584 C 0.13232 0.6488 0.77156 0.0
C585 C 0.055 0.66286 0.77255 0.0
C586 C 0.06917 0.62779 0.76425 0.0
C587 C 0.12146 0.58388 0.76391 0.0
C588 C 0.15894 0.57559 0.77186 0.0
C589 C 0.10769 0.62018 0.76503 0.0
C590 C 0.18337 0.60415 0.77751 0.0
C591 C 0.17047 0.64057 0.77599 0.0
H592 H 0.80449 0.39196 0.5326 0.0
H593 H 0.85381 0.28298 0.52246 0.0
H594 H 0.91538 0.30646 0.53329 0.0
H595 H 0.95558 0.35871 0.53761 0.0
H596 H 0.90628 0.46784 0.54703 0.0
H597 H 0.8441 0.44325 0.54543 0.0
C598 C 0.82862 0.37326 0.53308 0.0
C599 C 0.82478 0.33598 0.52552 0.0
C600 C 0.8639 0.38693 0.53926 0.0
C601 C 0.85619 0.31198 0.52722 0.0
C602 C 0.89139 0.32534 0.53359 0.0
C603 C 0.93129 0.3771 0.54009 0.0
C604 C 0.93553 0.41506 0.54134 0.0
C605 C 0.89566 0.36291 0.53843 0.0
C606 C 0.90375 0.43848 0.54518 0.0
C607 C 0.86816 0.42449 0.5442 0.0
H608 H 0.31869 0.89758 0.24447 0.0
H609 H 0.40839 0.96299 0.28091 0.0
H610 H 0.44674 0.90792 0.29255 0.0
H611 H 0.46131 0.84667 0.2679 0.0
H612 H 0.37395 0.78413 0.2221 0.0
H613 H 0.32749 0.83105 0.24061 0.0
C614 C 0.34562 0.89951 0.25736 0.0
C615 C 0.36103 0.93389 0.26156 0.0
C616 C 0.36829 0.86783 0.2614 0.0
C617 C 0.3962 0.93652 0.27747 0.0
C618 C 0.41829 0.90502 0.28363 0.0
C619 C 0.43179 0.84234 0.2643 0.0
C620 C 0.42087 0.81285 0.24291 0.0
C621 C 0.40586 0.871 0.27211 0.0
C622 C 0.38277 0.80711 0.23817 0.0
C623 C 0.35632 0.83428 0.24816 0.0
H624 H 0.30365 0.41935 0.74412 0.0
H625 H 0.40414 0.47443 0.76986 0.0
H626 H 0.43868 0.41585 0.77295 0.0
H627 H 0.44284 0.35228 0.75078 0.0
H628 H 0.34262 0.29771 0.72294 0.0
H629 H 0.30502 0.3525 0.73885 0.0
C630 C 0.3324 0.41834 0.75288 0.0
C631 C 0.35128 0.45101 0.75704 0.0
C632 C 0.35238 0.38459 0.75305 0.0
C633 C 0.38904 0.44945 0.76683 0.0
C634 C 0.40892 0.41597 0.76808 0.0
C635 C 0.41274 0.35159 0.75046 0.0
C636 C 0.39553 0.321 0.73595 0.0
C637 C 0.3914 0.38363 0.75871 0.0
C638 C 0.35642 0.32112 0.73398 0.0
C639 C 0.33492 0.3525 0.74289 0.0
H640 H 0.18339 0.79129 0.59637 0.0
H641 H 0.13299 0.72207 0.51724 0.0
H642 H 0.08164 0.7105 0.56008 0.0
H643 H 0.04607 0.72924 0.61549 0.0
H644 H 0.09599 0.79959 0.69432 0.0
H645 H 0.15255 0.80187 0.65621 0.0
C646 C 0.16204 0.77227 0.58932 0.0
C647 C 0.16203 0.75709 0.55406 0.0
C648 C 0.13188 0.76721 0.61349 0.0
C649 C 0.13386 0.73333 0.54458 0.0
C650 C 0.10415 0.72736 0.56881 0.0
C651 C 0.06942 0.74497 0.62436 0.0
C652 C 0.06648 0.76518 0.65711 0.0
C653 C 0.10193 0.74577 0.60251 0.0
C654 C 0.09736 0.78438 0.66891 0.0
C655 C 0.12972 0.78557 0.6472 0.0
H656 H 0.29227 0.88344 0.30871 0.0
H657 H 0.17745 0.87438 0.27824 0.0
H658 H 0.17306 0.81833 0.31383 0.0
H659 H 0.1964 0.78489 0.36745 0.0
H660 H 0.30912 0.79921 0.40171 0.0
H661 H 0.32098 0.83815 0.34948 0.0
C662 C 0.2672 0.86778 0.30766 0.0
C663 C 0.23525 0.88296 0.291 0.0
C664 C 0.26446 0.83654 0.3296 0.0
C665 C 0.20237 0.86312 0.29101 0.0
C666 C 0.19974 0.83131 0.31174 0.0
C667 C 0.22408 0.795 0.3622 0.0
C668 C 0.25213 0.78873 0.38804 0.0
C669 C 0.22974 0.81954 0.33337 0.0
C670 C 0.28773 0.80231 0.38145 0.0
C671 C 0.29412 0.82557 0.35204 0.0
H672 H 0.02714 0.65308 0.7025 0.0
H673 H 0.90867 0.64381 0.7183 0.0
H674 H 0.91043 0.58698 0.68306 0.0
H675 H 0.94266 0.55255 0.63368 0.0
H676 H 0.06043 0.56459 0.61543 0.0
H677 H 0.06288 0.60602 0.66764 0.0
C678 C 0.00231 0.63711 0.70067 0.0
C679 C 0.96795 0.65216 0.71333 0.0
C680 C 0.00348 0.60517 0.67935 0.0
C681 C 0.93544 0.63239 0.70899 0.0
C682 C 0.93642 0.60012 0.68853 0.0
C683 C 0.96917 0.5626 0.64263 0.0
C684 C 0.00125 0.55591 0.6209 0.0
C685 C 0.96982 0.58788 0.67142 0.0
C686 C 0.03552 0.56914 0.63214 0.0
C687 C 0.03672 0.59345 0.66154 0.0
H688 H 0.34203 0.66234 0.41142 0.0
H689 H 0.36045 0.77301 0.44495 0.0
H690 H 0.39001 0.78546 0.38549 0.0
H691 H 0.42144 0.76063 0.32983 0.0
H692 H 0.41302 0.6465 0.30354 0.0
H693 H 0.36711 0.63963 0.35292 0.0
C694 C 0.35151 0.68951 0.40513 0.0
C695 C 0.34883 0.71694 0.43205 0.0
C696 C 0.37021 0.69558 0.37197 0.0
C697 C 0.36177 0.75178 0.42426 0.0
C698 C 0.37895 0.75868 0.39044 0.0
C699 C 0.40834 0.73468 0.33421 0.0
C700 C 0.42019 0.70411 0.31311 0.0
C701 C 0.38476 0.73029 0.36477 0.0
C702 C 0.40377 0.6704 0.31914 0.0
C703 C 0.37806 0.66642 0.34774 0.0
H704 H 0.23618 0.09795 0.20771 0.0
H705 H 0.35309 0.11939 0.21596 0.0
H706 H 0.34606 0.16983 0.1727 0.0
H707 H 0.3102 0.19531 0.12094 0.0
H708 H 0.19462 0.16925 0.11023 0.0
H709 H 0.19691 0.13423 0.16688 0.0
C710 C 0.25951 0.11528 0.20212 0.0
C711 C 0.295 0.10512 0.2151 0.0
C712 C 0.25558 0.14285 0.17581 0.0
C713 C 0.32544 0.12686 0.20631 0.0
C714 C 0.32152 0.15536 0.18115 0.0
C715 C 0.28527 0.18318 0.13202 0.0
C716 C 0.25242 0.18433 0.11168 0.0
C717 C 0.2873 0.16179 0.16382 0.0
C718 C 0.22021 0.16835 0.12567 0.0
C719 C 0.22158 0.14821 0.15787 0.0
H720 H 0.7998 0.73674 0.90575 0.0
H721 H 0.86332 0.66283 0.97413 0.0
H722 H 0.92123 0.67981 0.94332 0.0
H723 H 0.95266 0.7119 0.8941 0.0
H724 H 0.8888 0.78094 0.82103 0.0
H725 H 0.83176 0.76977 0.85639 0.0
C726 C 0.8265 0.72494 0.91407 0.0
C727 C 0.82793 0.69892 0.94201 0.0
C728 C 0.85923 0.7336 0.89515 0.0
C729 C 0.86213 0.68297 0.95251 0.0
C730 C 0.89502 0.6926 0.93493 0.0
C731 C 0.92627 0.72469 0.88611 0.0
C732 C 0.92465 0.74698 0.8551 0.0
C733 C 0.89376 0.71726 0.90575 0.0
C734 C 0.8904 0.76326 0.84468 0.0
C735 C 0.85794 0.75703 0.86491 0.0
H736 H 0.31985 0.64504 0.72348 0.0
H737 H 0.2094 0.60713 0.70407 0.0
H738 H 0.19901 0.65501 0.65897 0.0
H739 H 0.2289 0.69358 0.61261 0.0
H740 H 0.34207 0.72587 0.62796 0.0
H741 H 0.34364 0.69548 0.6871 0.0
C742 C 0.29288 0.64849 0.71062 0.0
C743 C 0.26562 0.62244 0.71691 0.0
C744 C 0.288 0.67468 0.68301 0.0
C745 C 0.23072 0.62708 0.70016 0.0
C746 C 0.22503 0.65409 0.67368 0.0
C747 C 0.25313 0.69549 0.62982 0.0
C748 C 0.28556 0.71127 0.61587 0.0
C749 C 0.25453 0.67612 0.66296 0.0
C750 C 0.31694 0.7135 0.63817 0.0
C751 C 0.31797 0.69579 0.67182 0.0
H752 H 0.28221 0.98992 0.41555 0.0
H753 H 0.36131 0.0007 0.32643 0.0
H754 H 0.41236 0.00199 0.36921 0.0
H755 H 0.43357 0.00931 0.43198 0.0
H756 H 0.35436 0.0047 0.52098 0.0
H757 H 0.30478 0.99013 0.47862 0.0
C758 C 0.3106 0.99239 0.40546 0.0
C759 C 0.3176 0.99612 0.36781 0.0
C760 C 0.34004 0.99366 0.43031 0.0
C761 C 0.35478 -0.00138 0.35528 0.0
C762 C 0.38419 -0.0009 0.37972 0.0
C763 C 0.40579 0.00343 0.44206 0.0
C764 C 0.39748 0.00731 0.47933 0.0
C765 C 0.37705 -0.0023 0.41731 0.0
C766 C 0.36128 0.001 0.4923 0.0
C767 C 0.33286 0.9934 0.46803 0.0
H768 H 0.89029 0.79242 0.06153 0.0
H769 H 0.86244 0.79948 0.94797 0.0
H770 H 0.91487 0.83902 0.93662 0.0
H771 H 0.95382 0.88639 0.96429 0.0
H772 H 0.98288 0.87722 0.07744 0.0
H773 H 0.94626 0.82265 0.08349 0.0
C774 C 0.89724 0.80063 0.0339 0.0
C775 C 0.87224 0.79368 0.00578 0.0
C776 C 0.92729 0.82376 0.02771 0.0
C777 C 0.88135 0.80456 0.97007 0.0
C778 C 0.91103 0.82775 0.96368 0.0
C779 C 0.95429 0.87095 0.98948 0.0
C780 C 0.97047 0.88616 0.02053 0.0
C781 C 0.93227 0.83983 0.99296 0.0
C782 C 0.97055 0.86605 0.05318 0.0
C783 C 0.94898 0.83515 0.05685 0.0
H784 H 0.68748 0.1152 0.45343 0.0
H785 H 0.63239 0.22078 0.47082 0.0
H786 H 0.57191 0.19214 0.47264 0.0
H787 H 0.53691 0.13622 0.48121 0.0
H788 H 0.59342 0.03081 0.46643 0.0
H789 H 0.65116 0.06056 0.45109 0.0
C790 C 0.66226 0.13215 0.45701 0.0
C791 C 0.66453 0.16976 0.46398 0.0
C792 C 0.62788 0.1155 0.45889 0.0
C793 C 0.6315 0.19147 0.467 0.0
C794 C 0.59689 0.17514 0.46798 0.0
C795 C 0.56164 0.11975 0.47393 0.0
C796 C 0.56121 0.08142 0.47613 0.0
C797 C 0.59504 0.13697 0.46602 0.0
C798 C 0.59327 0.06043 0.46589 0.0
C799 C 0.62631 0.07738 0.45705 0.0
H800 H 0.82839 0.41278 0.22875 0.0
H801 H 0.9333 0.46574 0.23676 0.0
H802 H 0.96578 0.40656 0.24417 0.0
H803 H 0.96472 0.34073 0.23234 0.0
H804 H 0.85993 0.28751 0.22519 0.0
H805 H 0.82625 0.34608 0.23425 0.0
C806 C 0.85784 0.41154 0.23491 0.0
C807 C 0.87839 0.44338 0.233 0.0
C808 C 0.87627 0.37735 0.23853 0.0
C809 C 0.91702 0.44136 0.23864 0.0
C810 C 0.93559 0.40754 0.24255 0.0
C811 C 0.93469 0.34148 0.23573 0.0
C812 C 0.91481 0.30991 0.22913 0.0
C813 C 0.91568 0.3753 0.24047 0.0
C814 C 0.87566 0.31163 0.23076 0.0
C815 C 0.85645 0.34511 0.23566 0.0
H816 H 0.12162 0.54674 0.50245 0.0
H817 H 0.05977 0.63478 0.44987 0.0
H818 H 0.11709 0.66772 0.4407 0.0
H819 H 0.18193 0.67541 0.45583 0.0
H820 H 0.24317 0.58998 0.51298 0.0
H821 H 0.18886 0.55151 0.51129 0.0
C822 C 0.12084 0.57275 0.48825 0.0
C823 C 0.0866 0.58872 0.47741 0.0
C824 C 0.15361 0.59203 0.48415 0.0
C825 C 0.08585 0.62234 0.459 0.0
C826 C 0.11854 0.64114 0.45374 0.0
C827 C 0.18366 0.64818 0.46752 0.0
C828 C 0.21612 0.63588 0.48528 0.0
C829 C 0.15218 0.6269 0.46757 0.0
C830 C 0.21826 0.60022 0.49949 0.0
C831 C 0.1872 0.5783 0.49869 0.0
H832 H 0.6019 0.06089 0.76063 0.0
H833 H 0.70999 0.09838 0.7896 0.0
H834 H 0.68687 0.16182 0.78714 0.0
H835 H 0.63287 0.20519 0.78932 0.0
H836 H 0.52277 0.16433 0.77691 0.0
H837 H 0.54882 0.10426 0.76028 0.0
C838 C 0.62061 0.08319 0.76483 0.0
C839 C 0.65807 0.07524 0.7731 0.0
C840 C 0.60619 0.11924 0.76681 0.0
C841 C 0.68176 0.10397 0.78064 0.0
C842 C 0.6682 0.14025 0.78022 0.0
C843 C 0.61484 0.18341 0.78133 0.0
C844 C 0.57597 0.18981 0.78164 0.0
C845 C 0.63009 0.14806 0.77486 0.0
C846 C 0.55264 0.16104 0.77347 0.0
C847 C 0.56763 0.12629 0.76508 0.0
H848 H 0.74035 0.60528 0.20065 0.0
H849 H 0.85488 0.63602 0.20759 0.0
H850 H 0.84362 0.68478 0.16325 0.0
H851 H 0.807 0.70353 0.10957 0.0
H852 H 0.6957 0.66475 0.09768 0.0
H853 H 0.69911 0.63505 0.15722 0.0
C854 C 0.76215 0.6242 0.19436 0.0
C855 C 0.79844 0.61685 0.20678 0.0
C856 C 0.75619 0.64991 0.1667 0.0
C857 C 0.82675 0.64109 0.19794 0.0
C858 C 0.82045 0.66854 0.17211 0.0
C859 C 0.78318 0.68965 0.12083 0.0
C860 C 0.75157 0.68529 0.09944 0.0
C861 C 0.78623 0.67091 0.15407 0.0
C862 C 0.72058 0.66752 0.11379 0.0
C863 C 0.72254 0.65061 0.14771 0.0
H864 H 0.94996 0.538 0.41307 0.0
H865 H 0.87776 0.51486 0.50428 0.0
H866 H 0.82776 0.49923 0.46274 0.0
H867 H 0.80217 0.50128 0.40086 0.0
H868 H 0.87393 0.52914 0.31002 0.0
H869 H 0.92629 0.53434 0.3509 0.0
C870 C 0.9237 0.5281 0.42359 0.0
C871 C 0.91745 0.52666 0.4613 0.0
C872 C 0.89462 0.5214 0.39965 0.0
C873 C 0.8832 0.51505 0.47514 0.0
C874 C 0.85448 0.50686 0.45143 0.0
C875 C 0.82922 0.50855 0.39 0.0
C876 C 0.83377 0.51559 0.35251 0.0
C877 C 0.85937 0.5116 0.41369 0.0
C878 C 0.86932 0.52417 0.33883 0.0
C879 C 0.89945 0.52692 0.36214 0.0
H880 H 0.16836 0.51062 0.67595 0.0
H881 H 0.26273 0.47393 0.60939 0.0
H882 H 0.22114 0.4606 0.55922 0.0
H883 H 0.15765 0.45452 0.53629 0.0
H884 H 0.06329 0.49029 0.60268 0.0
H885 H 0.10507 0.51 0.65058 0.0
C886 C 0.17976 0.49963 0.65047 0.0
C887 C 0.21845 0.49253 0.64658 0.0
C888 C 0.15574 0.4925 0.62158 0.0
C889 C 0.233 0.47925 0.61313 0.0
C890 C 0.20927 0.47171 0.58443 0.0
C891 C 0.14643 0.46758 0.5609 0.0
C892 C 0.10765 0.4719 0.56578 0.0
C893 C 0.1706 0.47771 0.58857 0.0
C894 C 0.0931 0.48818 0.59782 0.0
C895 C 0.117 0.49866 0.6255 0.0
H896 H 0.606 0.74829 0.15597 0.0
H897 H 0.59612 0.85942 0.19475 0.0
H898 H 0.64907 0.87604 0.1558 0.0
H899 H 0.69214 0.86049 0.10521 0.0
H900 H 0.69609 0.75098 0.06148 0.0
H901 H 0.65151 0.73199 0.10744 0.0
C902 C 0.61649 0.77578 0.15674 0.0
C903 C 0.59814 0.80253 0.17854 0.0
C904 C 0.64514 0.78551 0.13263 0.0
C905 C 0.61065 0.8384 0.17862 0.0
C906 C 0.64046 0.84792 0.15601 0.0
C907 C 0.68342 0.83239 0.10578 0.0
C908 C 0.69766 0.80714 0.07964 0.0
C909 C 0.6569 0.822 0.13189 0.0
C910 C 0.68602 0.77093 0.08101 0.0
C911 C 0.66035 0.76004 0.10747 0.0
H912 H 0.68792 0.49092 0.17259 0.0
H913 H 0.77655 0.47759 0.09195 0.0
H914 H 0.73096 0.46791 0.04473 0.0
H915 H 0.66646 0.46873 0.02526 0.0
H916 H 0.57702 0.48508 0.10444 0.0
H917 H 0.62251 0.48704 0.15341 0.0
C918 C 0.69728 0.48546 0.14477 0.0
C919 C 0.73563 0.48541 0.13581 0.0
C920 C 0.67082 0.48036 0.11747 0.0
C921 C 0.74723 0.47827 0.0996 0.0
C922 C 0.72118 0.4726 0.07253 0.0
C923 C 0.65675 0.47219 0.05326 0.0
C924 C 0.61838 0.47711 0.06104 0.0
C925 C 0.68296 0.4744 0.08102 0.0
C926 C 0.60639 0.48117 0.0976 0.0
C927 C 0.63241 0.48262 0.12561 0.0
H928 H 0.45413 0.38257 0.96939 0.0
H929 H 0.49303 0.37035 0.0793 0.0
H930 H 0.45346 0.31827 0.08856 0.0
H931 H 0.3934 0.29194 0.07174 0.0
H932 H 0.3556 0.3023 0.96124 0.0
H933 H 0.40935 0.33861 0.94545 0.0
C934 C 0.45595 0.36688 0.9944 0.0
C935 C 0.4757 0.38083 0.02393 0.0
C936 C 0.4321 0.33741 -0.00013 0.0
C937 C 0.47778 0.36024 0.05625 0.0
C938 C 0.45448 0.33086 0.06184 0.0
C939 C 0.39824 0.30024 0.04372 0.0
C940 C 0.37044 0.29493 0.01783 0.0
C941 C 0.42923 0.32137 0.03488 0.0
C942 C 0.37675 0.30606 0.98163 0.0
C943 C 0.40729 0.32728 0.97268 0.0
H944 H 0.15356 0.19783 0.27726 0.0
H945 H 0.04276 0.15625 0.27559 0.0
H946 H 0.06805 0.09464 0.26455 0.0
H947 H 0.12143 0.05132 0.26984 0.0
H948 H 0.23189 0.09174 0.28201 0.0
H949 H 0.2078 0.1545 0.27414 0.0
C950 C 0.13509 0.17536 0.27296 0.0
C951 C 0.09623 0.1819 0.27527 0.0
C952 C 0.15011 0.13947 0.26936 0.0
C953 C 0.0725 0.15251 0.27113 0.0
C954 C 0.08713 0.11695 0.266 0.0
C955 C 0.14032 0.07388 0.26922 0.0
C956 C 0.17852 0.06695 0.27536 0.0
C957 C 0.12583 0.10994 0.26683 0.0
C958 C 0.20269 0.09628 0.27578 0.0
C959 C 0.18872 0.13226 0.27205 0.0
H960 H 0.21177 0.31013 0.89995 0.0
H961 H 0.31711 0.35408 0.92991 0.0
H962 H 0.32128 0.38585 0.87172 0.0
H963 H 0.28805 0.41252 0.82025 0.0
H964 H 0.17963 0.37436 0.79274 0.0
H965 H 0.18409 0.32813 0.84068 0.0
C966 C 0.23605 0.32579 0.89309 0.0
C967 C 0.26375 0.33039 0.91923 0.0
C968 C 0.23758 0.34529 0.85995 0.0
C969 C 0.29517 0.3507 0.91026 0.0
C970 C 0.29759 0.36888 0.877 0.0
C971 C 0.26631 0.3928 0.82336 0.0
C972 C 0.23344 0.39708 0.80321 0.0
C973 C 0.26801 0.36801 0.85254 0.0
C974 C 0.20522 0.37163 0.80803 0.0
C975 C 0.20749 0.34558 0.83589 0.0
H976 H 0.2946 0.20429 0.89516 0.0
H977 H 0.35442 0.20613 0.99612 0.0
H978 H 0.41091 0.22467 0.96367 0.0
H979 H 0.44335 0.23784 0.90649 0.0
H980 H 0.38368 0.23525 0.8049 0.0
H981 H 0.32675 0.21988 0.83776 0.0
C982 C 0.32005 0.20916 0.90982 0.0
C983 C 0.32087 0.20441 0.94763 0.0
C984 C 0.35221 0.21952 0.89098 0.0
C985 C 0.35357 0.21029 0.96688 0.0
C986 C 0.38574 0.2206 0.94837 0.0
C987 C 0.41795 0.23394 0.89144 0.0
C988 C 0.41795 0.23726 0.85326 0.0
C989 C 0.38542 0.22497 0.91038 0.0
C990 C 0.38459 0.23255 0.83431 0.0
C991 C 0.35198 0.22378 0.85302 0.0
H992 H 0.34964 0.51743 0.99009 0.0
H993 H 0.44223 0.52114 0.91351 0.0
H994 H 0.39878 0.52707 0.86311 0.0
H995 H 0.33484 0.52571 0.84046 0.0
H996 H 0.24254 0.51959 0.91713 0.0
H997 H 0.28577 0.52034 0.96781 0.0
C998 C 0.36044 0.51994 0.96245 0.0
C999 C 0.39922 0.51855 0.9557 0.0
C1000 C 0.33537 0.52273 0.93354 0.0
C1001 C 0.41256 0.52208 0.91962 0.0
C1002 C 0.38772 0.52534 0.89071 0.0
C1003 C 0.32404 0.52512 0.86825 0.0
C1004 C 0.28545 0.52236 0.87489 0.0
C1005 C 0.34909 0.52491 0.89731 0.0
C1006 C 0.27209 0.52148 0.91114 0.0
C1007 C 0.2968 0.52186 0.94018 0.0
H1008 H 0.64067 0.69674 0.04129 0.0
H1009 H 0.63251 0.72166 0.92699 0.0
H1010 H 0.57646 0.68581 0.92287 0.0
H1011 H 0.54418 0.63269 0.94706 0.0
H1012 H 0.56016 0.60056 0.0587 0.0
H1013 H 0.59706 0.6542 0.06936 0.0
C1014 C 0.62514 0.69614 0.01609 0.0
C1015 C 0.64053 0.71182 0.98447 0.0
C1016 C 0.59462 0.67308 0.01343 0.0
C1017 C 0.62089 0.71018 0.95172 0.0
C1018 C 0.58922 0.68903 0.94926 0.0
C1019 C 0.55402 0.63871 0.97421 0.0
C1020 C 0.54888 0.61302 0.00223 0.0
C1021 C 0.57777 0.66809 0.97921 0.0
C1022 C 0.56249 0.6205 0.03709 0.0
C1023 C 0.58452 0.6508 0.04288 0.0
H1024 H 0.94836 0.85954 0.74814 0.0
H1025 H 0.84938 0.80124 0.7237 0.0
H1026 H 0.81043 0.8556 0.73754 0.0
H1027 H 0.80701 0.92257 0.73956 0.0
H1028 H 0.90582 0.98195 0.76131 0.0
H1029 H 0.94237 0.92455 0.76641 0.0
C1030 C 0.91823 0.85828 0.74778 0.0
C1031 C 0.9017 0.82663 0.73478 0.0
C1032 C 0.89602 0.8902 0.75451 0.0
C1033 C 0.86261 0.82552 0.73348 0.0
C1034 C 0.84034 0.85668 0.74113 0.0
C1035 C 0.8359 0.92285 0.74782 0.0
C1036 C 0.85359 0.9563 0.75054 0.0
C1037 C 0.85694 0.88975 0.7493 0.0
C1038 C 0.89159 0.95636 0.75947 0.0
C1039 C 0.9126 0.92354 0.76193 0.0
H1040 H 0.5248 0.14891 0.70183 0.0
H1041 H 0.40744 0.13973 0.72485 0.0
H1042 H 0.40833 0.07955 0.69566 0.0
H1043 H 0.43811 0.04148 0.6479 0.0
H1044 H 0.55347 0.05571 0.61914 0.0
H1045 H 0.55906 0.10001 0.6684 0.0
C1046 C 0.50012 0.13254 0.70261 0.0
C1047 C 0.4662 0.14818 0.71551 0.0
C1048 C 0.50066 0.09885 0.68439 0.0
C1049 C 0.43381 0.12779 0.71508 0.0
C1050 C 0.43433 0.09358 0.6982 0.0
C1051 C 0.46494 0.05276 0.65402 0.0
C1052 C 0.49522 0.04588 0.63007 0.0
C1053 C 0.46694 0.08031 0.68038 0.0
C1054 C 0.52997 0.0604 0.63767 0.0
C1055 C 0.53286 0.08645 0.66527 0.0
H1056 H 0.46537 0.35823 0.85024 0.0
H1057 H 0.5456 0.38461 0.76667 0.0
H1058 H 0.55604 0.44328 0.7965 0.0
H1059 H 0.55513 0.4768 0.85407 0.0
H1060 H 0.48074 0.44635 0.9415 0.0
H1061 H 0.45426 0.39992 0.90232 0.0
C1062 C 0.48376 0.37779 0.8378 0.0
C1063 C 0.50499 0.36757 0.80669 0.0
C1064 C 0.49141 0.40999 0.8565 0.0
C1065 C 0.52897 0.39239 0.79054 0.0
C1066 C 0.53529 0.42555 0.80793 0.0
C1067 C 0.53259 0.4605 0.86441 0.0
C1068 C 0.52114 0.46357 0.90121 0.0
C1069 C 0.51877 0.43312 0.84225 0.0
C1070 C 0.49096 0.44347 0.91378 0.0
C1071 C 0.47585 0.41696 0.89133 0.0
H1072 H 0.54295 0.85675 0.31307 0.0
H1073 H 0.46258 0.79146 0.36928 0.0
H1074 H 0.4436 0.84321 0.40794 0.0
H1075 H 0.45984 0.90117 0.43451 0.0
H1076 H 0.55037 0.96092 0.38866 0.0
H1077 H 0.55437 0.91909 0.33627 0.0
C1078 C 0.52103 0.85431 0.33354 0.0
C1079 C 0.50451 0.82052 0.33899 0.0
C1080 C 0.51196 0.88361 0.3573 0.0
C1081 C 0.47592 0.81727 0.3652 0.0
C1082 C 0.46498 0.84685 0.38716 0.0
C1083 C 0.47905 0.90599 0.41196 0.0
C1084 C 0.50462 0.93383 0.41498 0.0
C1085 C 0.48402 0.87952 0.38461 0.0
C1086 C 0.5301 0.93977 0.38637 0.0
C1087 C 0.53294 0.91532 0.35695 0.0
H1088 H 0.47676 0.58344 0.05863 0.0
H1089 H 0.50712 0.51887 0.1522 0.0
H1090 H 0.52202 0.57448 0.18593 0.0
H1091 H 0.51743 0.64167 0.19079 0.0
H1092 H 0.48417 0.70506 0.09647 0.0
H1093 H 0.47962 0.64962 0.06087 0.0
C1094 C 0.48834 0.58156 0.08578 0.0
C1095 C 0.49205 0.54759 0.10277 0.0
C1096 C 0.49515 0.61343 0.10516 0.0
C1097 C 0.50503 0.54511 0.1386 0.0
C1098 C 0.51306 0.5768 0.15789 0.0
C1099 C 0.50961 0.64337 0.16236 0.0
C1100 C 0.50032 0.67745 0.1467 0.0
C1101 C 0.50678 0.61122 0.14184 0.0
C1102 C 0.49075 0.67919 0.10961 0.0
C1103 C 0.48819 0.6475 0.08906 0.0
loop_
_geom_bond_atom_site_label_1
_geom_bond_atom_site_label_2
_geom_bond_distance
_geom_bond_site_symmetry_2
_ccdc_geom_bond_type
O0 Mn1 2.163 1_656 S
O0 C14 1.244 . S
Mn1 O0 2.163 1_454 S
Mn1 O4 2.160 1_545 S
Mn1 O5 2.221 1_544 S
Mn1 O7 2.164 . S
Mn1 O9 2.160 1_445 S
Mn1 O19 2.221 1_455 S
O2 Mn3 2.087 1_556 S
O2 C14 1.256 . S
Mn3 O2 2.087 1_554 S
Mn3 O10 2.089 1_545 S
Mn3 O19 2.290 . S
Mn3 O20 2.251 . S
O4 Mn1 2.160 1_565 S
O4 C15 1.239 . S
O5 Mn1 2.221 1_566 S
O5 Mn6 2.290 . S
O5 C16 1.278 . S
Mn6 O5 2.290 . S
Mn6 O8 2.089 1_556 S
Mn6 O11 2.251 . S
Mn6 O12 2.087 1_565 S
O7 Mn1 2.164 . S
O7 C17 1.242 1_554 S
O8 Mn6 2.089 1_554 S
O8 C15 1.256 . S
O9 Mn1 2.160 1_665 S
O9 C18 1.239 . S
O10 Mn3 2.089 1_565 S
O10 C18 1.256 . S
O11 Mn6 2.251 . S
O11 C16 1.241 . S
O12 Mn6 2.087 1_545 S
O12 C17 1.256 . S
C13 O19 1.278 . S
C13 O20 1.241 . S
C14 O0 1.244 . S
C14 O2 1.256 . S
C15 O4 1.239 . S
C15 O8 1.256 . S
C16 O5 1.278 . S
C16 O11 1.241 . S
C17 O7 1.242 1_556 S
C17 O12 1.256 . S
C18 O9 1.239 . S
C18 O10 1.256 . S
O19 Mn1 2.221 1_655 S
O19 Mn3 2.290 . S
O19 C13 1.278 . S
O20 Mn3 2.251 . S
O20 C13 1.241 . S
O21 Mn22 2.163 . S
O21 C35 1.244 . S
Mn22 O21 2.163 . S
Mn22 O25 2.160 1_455 S
Mn22 O26 2.221 . S
Mn22 O28 2.163 . S
Mn22 O30 2.160 1_455 S
Mn22 O40 2.221 1_455 S
O23 Mn24 2.087 1_455 S
O23 C35 1.256 . S
Mn24 O23 2.087 1_655 S
Mn24 O31 2.089 . S
Mn24 O40 2.290 . S
Mn24 O41 2.251 . S
O25 Mn22 2.160 1_655 S
O25 C36 1.239 . S
O26 Mn22 2.221 . S
O26 Mn27 2.290 . S
O26 C37 1.278 . S
Mn27 O26 2.290 . S
Mn27 O29 2.089 1_455 S
Mn27 O32 2.251 . S
Mn27 O33 2.087 . S
O28 Mn22 2.163 . S
O28 C38 1.244 . S
O29 Mn27 2.089 1_655 S
O29 C36 1.256 . S
O30 Mn22 2.160 1_655 S
O30 C39 1.239 . S
O31 Mn24 2.089 . S
O31 C39 1.256 . S
O32 Mn27 2.251 . S
O32 C37 1.241 . S
O33 Mn27 2.087 . S
O33 C38 1.256 . S
C34 O40 1.278 . S
C34 O41 1.241 . S
C35 O21 1.244 . S
C35 O23 1.256 . S
C36 O25 1.239 . S
C36 O29 1.256 . S
C37 O26 1.278 . S
C37 O32 1.241 . S
C38 O28 1.244 . S
C38 O33 1.256 . S
C39 O30 1.239 . S
C39 O31 1.256 . S
O40 Mn22 2.221 1_655 S
O40 Mn24 2.290 . S
O40 C34 1.278 . S
O41 Mn24 2.251 . S
O41 C34 1.241 . S
O42 Mn43 2.163 . S
O42 C56 1.244 . S
Mn43 O42 2.163 . S
Mn43 O46 2.160 . S
Mn43 O47 2.221 . S
Mn43 O49 2.163 . S
Mn43 O51 2.160 . S
Mn43 O61 2.221 . S
O44 Mn45 2.087 . S
O44 C56 1.256 . S
Mn45 O44 2.087 . S
Mn45 O52 2.089 . S
Mn45 O61 2.290 . S
Mn45 O62 2.251 . S
O46 Mn43 2.160 . S
O46 C57 1.239 . S
O47 Mn43 2.221 . S
O47 Mn48 2.290 . S
O47 C58 1.278 . S
Mn48 O47 2.290 . S
Mn48 O50 2.089 . S
Mn48 O53 2.251 . S
Mn48 O54 2.087 . S
O49 Mn43 2.163 . S
O49 C59 1.244 . S
O50 Mn48 2.089 . S
O50 C57 1.256 . S
O51 Mn43 2.160 . S
O51 C60 1.239 . S
O52 Mn45 2.089 . S
O52 C60 1.256 . S
O53 Mn48 2.251 . S
O53 C58 1.241 . S
O54 Mn48 2.087 . S
O54 C59 1.256 . S
C55 O61 1.278 . S
C55 O62 1.241 . S
C56 O42 1.244 . S
C56 O44 1.256 . S
C57 O46 1.239 . S
C57 O50 1.256 . S
C58 O47 1.278 . S
C58 O53 1.241 . S
C59 O49 1.244 . S
C59 O54 1.256 . S
C60 O51 1.239 . S
C60 O52 1.256 . S
O61 Mn43 2.221 . S
O61 Mn45 2.290 . S
O61 C55 1.278 . S
O62 Mn45 2.251 . S
O62 C55 1.241 . S
O63 Mn64 2.163 1_565 S
O63 C77 1.244 . S
Mn64 O63 2.163 1_545 S
Mn64 O67 2.160 . S
Mn64 O68 2.221 1_545 S
Mn64 O70 2.163 1_545 S
Mn64 O72 2.160 . S
Mn64 O82 2.221 . S
O65 Mn66 2.087 1_565 S
O65 C77 1.256 . S
Mn66 O65 2.087 1_545 S
Mn66 O73 2.089 . S
Mn66 O82 2.290 . S
Mn66 O83 2.251 . S
O67 Mn64 2.160 . S
O67 C78 1.239 . S
O68 Mn64 2.221 1_565 S
O68 Mn69 2.290 . S
O68 C79 1.278 . S
Mn69 O68 2.290 . S
Mn69 O71 2.089 1_565 S
Mn69 O74 2.251 . S
Mn69 O75 2.087 . S
O70 Mn64 2.163 1_565 S
O70 C80 1.243 . S
O71 Mn69 2.089 1_545 S
O71 C78 1.256 . S
O72 Mn64 2.160 . S
O72 C81 1.239 . S
O73 Mn66 2.089 . S
O73 C81 1.256 . S
O74 Mn69 2.251 . S
O74 C79 1.241 . S
O75 Mn69 2.087 . S
O75 C80 1.256 . S
C76 O82 1.278 . S
C76 O83 1.241 . S
C77 O63 1.244 . S
C77 O65 1.256 . S
C78 O67 1.239 . S
C78 O71 1.256 . S
C79 O68 1.278 . S
C79 O74 1.241 . S
C80 O70 1.243 . S
C80 O75 1.256 . S
C81 O72 1.239 . S
C81 O73 1.256 . S
O82 Mn64 2.221 . S
O82 Mn66 2.290 . S
O82 C76 1.278 . S
O83 Mn66 2.251 . S
O83 C76 1.241 . S
O84 Mn85 2.163 . S
O84 C98 1.244 . S
Mn85 O84 2.163 . S
Mn85 O88 2.160 . S
Mn85 O89 2.221 . S
Mn85 O91 2.163 . S
Mn85 O93 2.160 . S
Mn85 O103 2.221 . S
O86 Mn87 2.087 . S
O86 C98 1.256 . S
Mn87 O86 2.087 . S
Mn87 O94 2.089 . S
Mn87 O103 2.290 . S
Mn87 O104 2.251 . S
O88 Mn85 2.160 . S
O88 C99 1.239 . S
O89 Mn85 2.221 . S
O89 Mn90 2.290 . S
O89 C100 1.278 . S
Mn90 O89 2.290 . S
Mn90 O92 2.089 . S
Mn90 O95 2.251 . S
Mn90 O96 2.087 . S
O91 Mn85 2.163 . S
O91 C101 1.244 . S
O92 Mn90 2.089 . S
O92 C99 1.256 . S
O93 Mn85 2.160 . S
O93 C102 1.239 . S
O94 Mn87 2.089 . S
O94 C102 1.256 . S
O95 Mn90 2.251 . S
O95 C100 1.241 . S
O96 Mn90 2.087 . S
O96 C101 1.256 . S
C97 O103 1.278 . S
C97 O104 1.241 . S
C98 O84 1.244 . S
C98 O86 1.256 . S
C99 O88 1.239 . S
C99 O92 1.256 . S
C100 O89 1.278 . S
C100 O95 1.241 . S
C101 O91 1.244 . S
C101 O96 1.256 . S
C102 O93 1.239 . S
C102 O94 1.256 . S
O103 Mn85 2.221 . S
O103 Mn87 2.290 . S
O103 C97 1.278 . S
O104 Mn87 2.251 . S
O104 C97 1.241 . S
O105 Mn106 2.163 . S
O105 C119 1.244 . S
Mn106 O105 2.163 . S
Mn106 O109 2.160 . S
Mn106 O110 2.221 . S
Mn106 O112 2.163 . S
Mn106 O114 2.160 . S
Mn106 O124 2.221 . S
O107 Mn108 2.087 . S
O107 C119 1.256 . S
Mn108 O107 2.087 . S
Mn108 O115 2.089 . S
Mn108 O124 2.290 . S
Mn108 O125 2.251 . S
O109 Mn106 2.160 . S
O109 C120 1.239 . S
O110 Mn106 2.221 . S
O110 Mn111 2.290 . S
O110 C121 1.278 . S
Mn111 O110 2.290 . S
Mn111 O113 2.089 . S
Mn111 O116 2.251 . S
Mn111 O117 2.087 . S
O112 Mn106 2.163 . S
O112 C122 1.244 . S
O113 Mn111 2.089 . S
O113 C120 1.256 . S
O114 Mn106 2.160 . S
O114 C123 1.239 . S
O115 Mn108 2.089 . S
O115 C123 1.256 . S
O116 Mn111 2.251 . S
O116 C121 1.241 . S
O117 Mn111 2.087 . S
O117 C122 1.256 . S
C118 O124 1.278 . S
C118 O125 1.241 . S
C119 O105 1.244 . S
C119 O107 1.256 . S
C120 O109 1.239 . S
C120 O113 1.256 . S
C121 O110 1.278 . S
C121 O116 1.241 . S
C122 O112 1.244 . S
C122 O117 1.256 . S
C123 O114 1.239 . S
C123 O115 1.256 . S
O124 Mn106 2.221 . S
O124 Mn108 2.290 . S
O124 C118 1.278 . S
O125 Mn108 2.251 . S
O125 C118 1.241 . S
O126 Mn127 2.163 . S
O126 C140 1.244 . S
Mn127 O126 2.163 . S
Mn127 O130 2.160 . S
Mn127 O131 2.221 . S
Mn127 O133 2.163 . S
Mn127 O135 2.160 . S
Mn127 O145 2.221 . S
O128 Mn129 2.087 . S
O128 C140 1.256 . S
Mn129 O128 2.087 . S
Mn129 O136 2.089 . S
Mn129 O145 2.290 . S
Mn129 O146 2.251 . S
O130 Mn127 2.160 . S
O130 C141 1.239 . S
O131 Mn127 2.221 . S
O131 Mn132 2.290 . S
O131 C142 1.278 . S
Mn132 O131 2.290 . S
Mn132 O134 2.089 . S
Mn132 O137 2.251 . S
Mn132 O138 2.087 . S
O133 Mn127 2.163 . S
O133 C143 1.244 . S
O134 Mn132 2.089 . S
O134 C141 1.256 . S
O135 Mn127 2.160 . S
O135 C144 1.239 . S
O136 Mn129 2.089 . S
O136 C144 1.256 . S
O137 Mn132 2.251 . S
O137 C142 1.241 . S
O138 Mn132 2.087 . S
O138 C143 1.256 . S
C139 O145 1.278 . S
C139 O146 1.241 . S
C140 O126 1.244 . S
C140 O128 1.256 . S
C141 O130 1.239 . S
C141 O134 1.256 . S
C142 O131 1.278 . S
C142 O137 1.241 . S
C143 O133 1.244 . S
C143 O138 1.256 . S
C144 O135 1.239 . S
C144 O136 1.256 . S
O145 Mn127 2.221 . S
O145 Mn129 2.290 . S
O145 C139 1.278 . S
O146 Mn129 2.251 . S
O146 C139 1.241 . S
O147 Mn148 2.163 1_655 S
O147 C161 1.244 . S
Mn148 O147 2.163 1_455 S
Mn148 O151 2.160 . S
Mn148 O152 2.221 . S
Mn148 O154 2.163 1_455 S
Mn148 O156 2.160 . S
Mn148 O166 2.221 1_455 S
O149 Mn150 2.087 . S
O149 C161 1.256 . S
Mn150 O149 2.087 . S
Mn150 O157 2.089 1_655 S
Mn150 O166 2.290 . S
Mn150 O167 2.251 . S
O151 Mn148 2.160 . S
O151 C162 1.239 . S
O152 Mn148 2.221 . S
O152 Mn153 2.290 . S
O152 C163 1.278 . S
Mn153 O152 2.290 . S
Mn153 O155 2.089 . S
Mn153 O158 2.251 . S
Mn153 O159 2.087 1_455 S
O154 Mn148 2.163 1_655 S
O154 C164 1.244 . S
O155 Mn153 2.089 . S
O155 C162 1.256 . S
O156 Mn148 2.160 . S
O156 C165 1.239 . S
O157 Mn150 2.089 1_455 S
O157 C165 1.256 . S
O158 Mn153 2.251 . S
O158 C163 1.241 . S
O159 Mn153 2.087 1_655 S
O159 C164 1.256 . S
C160 O166 1.278 . S
C160 O167 1.241 . S
C161 O147 1.244 . S
C161 O149 1.256 . S
C162 O151 1.239 . S
C162 O155 1.256 . S
C163 O152 1.278 . S
C163 O158 1.241 . S
C164 O154 1.244 . S
C164 O159 1.256 . S
C165 O156 1.239 . S
C165 O157 1.256 . S
O166 Mn148 2.221 1_655 S
O166 Mn150 2.290 . S
O166 C160 1.278 . S
O167 Mn150 2.251 . S
O167 C160 1.241 . S
O168 Mn169 2.163 . S
O168 C182 1.244 . S
Mn169 O168 2.163 . S
Mn169 O172 2.160 1_554 S
Mn169 O173 2.221 . S
Mn169 O175 2.163 . S
Mn169 O177 2.160 1_554 S
Mn169 O187 2.221 1_554 S
O170 Mn171 2.087 1_554 S
O170 C182 1.256 . S
Mn171 O170 2.087 1_556 S
Mn171 O178 2.089 . S
Mn171 O187 2.290 . S
Mn171 O188 2.251 . S
O172 Mn169 2.160 1_556 S
O172 C183 1.239 . S
O173 Mn169 2.221 . S
O173 Mn174 2.290 . S
O173 C184 1.278 . S
Mn174 O173 2.290 . S
Mn174 O176 2.089 1_554 S
Mn174 O179 2.251 . S
Mn174 O180 2.087 . S
O175 Mn169 2.163 . S
O175 C185 1.244 . S
O176 Mn174 2.089 1_556 S
O176 C183 1.256 . S
O177 Mn169 2.160 1_556 S
O177 C186 1.239 . S
O178 Mn171 2.089 . S
O178 C186 1.256 . S
O179 Mn174 2.251 . S
O179 C184 1.241 . S
O180 Mn174 2.087 . S
O180 C185 1.256 . S
C181 O187 1.278 . S
C181 O188 1.241 . S
C182 O168 1.244 . S
C182 O170 1.256 . S
C183 O172 1.239 . S
C183 O176 1.256 . S
C184 O173 1.278 . S
C184 O179 1.241 . S
C185 O175 1.244 . S
C185 O180 1.256 . S
C186 O177 1.239 . S
C186 O178 1.256 . S
O187 Mn169 2.221 1_556 S
O187 Mn171 2.290 . S
O187 C181 1.278 . S
O188 Mn171 2.251 . S
O188 C181 1.241 . S
O189 Mn190 2.163 1_565 S
O189 C203 1.244 . S
Mn190 O189 2.163 1_545 S
Mn190 O193 2.160 . S
Mn190 O194 2.221 1_545 S
Mn190 O196 2.163 . S
Mn190 O198 2.160 . S
Mn190 O208 2.221 . S
O191 Mn192 2.087 1_565 S
O191 C203 1.256 . S
Mn192 O191 2.087 1_545 S
Mn192 O199 2.089 . S
Mn192 O208 2.290 . S
Mn192 O209 2.251 . S
O193 Mn190 2.160 . S
O193 C204 1.239 . S
O194 Mn190 2.221 1_565 S
O194 Mn195 2.290 . S
O194 C205 1.278 . S
Mn195 O194 2.290 . S
Mn195 O197 2.089 1_565 S
Mn195 O200 2.251 . S
Mn195 O201 2.087 . S
O196 Mn190 2.163 . S
O196 C206 1.244 1_545 S
O197 Mn195 2.089 1_545 S
O197 C204 1.256 . S
O198 Mn190 2.160 . S
O198 C207 1.239 . S
O199 Mn192 2.089 . S
O199 C207 1.256 . S
O200 Mn195 2.251 . S
O200 C205 1.241 . S
O201 Mn195 2.087 . S
O201 C206 1.256 . S
C202 O208 1.278 . S
C202 O209 1.241 . S
C203 O189 1.244 . S
C203 O191 1.256 . S
C204 O193 1.239 . S
C204 O197 1.256 . S
C205 O194 1.278 . S
C205 O200 1.241 . S
C206 O196 1.244 1_565 S
C206 O201 1.256 . S
C207 O198 1.239 . S
C207 O199 1.256 . S
O208 Mn190 2.221 . S
O208 Mn192 2.290 . S
O208 C202 1.278 . S
O209 Mn192 2.251 . S
O209 C202 1.241 . S
O210 Mn211 2.163 . S
O210 C224 1.244 . S
Mn211 O210 2.163 . S
Mn211 O214 2.160 . S
Mn211 O215 2.221 . S
Mn211 O217 2.163 . S
Mn211 O219 2.160 . S
Mn211 O229 2.221 . S
O212 Mn213 2.087 . S
O212 C224 1.256 . S
Mn213 O212 2.087 . S
Mn213 O220 2.089 . S
Mn213 O229 2.290 . S
Mn213 O230 2.251 . S
O214 Mn211 2.160 . S
O214 C225 1.239 . S
O215 Mn211 2.221 . S
O215 Mn216 2.290 . S
O215 C226 1.278 . S
Mn216 O215 2.290 . S
Mn216 O218 2.089 . S
Mn216 O221 2.251 . S
Mn216 O222 2.087 . S
O217 Mn211 2.163 . S
O217 C227 1.244 . S
O218 Mn216 2.089 . S
O218 C225 1.256 . S
O219 Mn211 2.160 . S
O219 C228 1.239 . S
O220 Mn213 2.089 . S
O220 C228 1.256 . S
O221 Mn216 2.251 . S
O221 C226 1.241 . S
O222 Mn216 2.087 . S
O222 C227 1.256 . S
C223 O229 1.278 . S
C223 O230 1.241 . S
C224 O210 1.244 . S
C224 O212 1.256 . S
C225 O214 1.239 . S
C225 O218 1.256 . S
C226 O215 1.278 . S
C226 O221 1.241 . S
C227 O217 1.244 . S
C227 O222 1.256 . S
C228 O219 1.239 . S
C228 O220 1.256 . S
O229 Mn211 2.221 . S
O229 Mn213 2.290 . S
O229 C223 1.278 . S
O230 Mn213 2.251 . S
O230 C223 1.241 . S
O231 Mn232 2.163 . S
O231 C245 1.244 . S
Mn232 O231 2.163 . S
Mn232 O235 2.160 1_455 S
Mn232 O236 2.221 . S
Mn232 O238 2.163 . S
Mn232 O240 2.160 1_455 S
Mn232 O250 2.221 1_455 S
O233 Mn234 2.087 1_455 S
O233 C245 1.256 . S
Mn234 O233 2.087 1_655 S
Mn234 O241 2.089 . S
Mn234 O250 2.290 . S
Mn234 O251 2.251 . S
O235 Mn232 2.160 1_655 S
O235 C246 1.239 . S
O236 Mn232 2.221 . S
O236 Mn237 2.290 . S
O236 C247 1.278 . S
Mn237 O236 2.290 . S
Mn237 O239 2.089 1_455 S
Mn237 O242 2.251 . S
Mn237 O243 2.087 . S
O238 Mn232 2.163 . S
O238 C248 1.244 . S
O239 Mn237 2.089 1_655 S
O239 C246 1.256 . S
O240 Mn232 2.160 1_655 S
O240 C249 1.239 . S
O241 Mn234 2.089 . S
O241 C249 1.256 . S
O242 Mn237 2.251 . S
O242 C247 1.241 . S
O243 Mn237 2.087 . S
O243 C248 1.256 . S
C244 O250 1.278 . S
C244 O251 1.241 . S
C245 O231 1.244 . S
C245 O233 1.256 . S
C246 O235 1.239 . S
C246 O239 1.256 . S
C247 O236 1.278 . S
C247 O242 1.241 . S
C248 O238 1.244 . S
C248 O243 1.256 . S
C249 O240 1.239 . S
C249 O241 1.256 . S
O250 Mn232 2.221 1_655 S
O250 Mn234 2.290 . S
O250 C244 1.278 . S
O251 Mn234 2.251 . S
O251 C244 1.241 . S
O252 Mn253 2.163 . S
O252 C266 1.244 . S
Mn253 O252 2.163 . S
Mn253 O256 2.160 . S
Mn253 O257 2.221 . S
Mn253 O259 2.163 . S
Mn253 O261 2.160 . S
Mn253 O271 2.221 . S
O254 Mn255 2.087 . S
O254 C266 1.256 . S
Mn255 O254 2.087 . S
Mn255 O262 2.089 . S
Mn255 O271 2.290 . S
Mn255 O272 2.251 . S
O256 Mn253 2.160 . S
O256 C267 1.239 . S
O257 Mn253 2.221 . S
O257 Mn258 2.290 . S
O257 C268 1.278 . S
Mn258 O257 2.290 . S
Mn258 O260 2.089 . S
Mn258 O263 2.251 . S
Mn258 O264 2.087 . S
O259 Mn253 2.163 . S
O259 C269 1.244 . S
O260 Mn258 2.089 . S
O260 C267 1.256 . S
O261 Mn253 2.160 . S
O261 C270 1.239 . S
O262 Mn255 2.089 . S
O262 C270 1.256 . S
O263 Mn258 2.251 . S
O263 C268 1.241 . S
O264 Mn258 2.087 . S
O264 C269 1.256 . S
C265 O271 1.278 . S
C265 O272 1.241 . S
C266 O252 1.244 . S
C266 O254 1.256 . S
C267 O256 1.239 . S
C267 O260 1.256 . S
C268 O257 1.278 . S
C268 O263 1.241 . S
C269 O259 1.244 . S
C269 O264 1.256 . S
C270 O261 1.239 . S
C270 O262 1.256 . S
O271 Mn253 2.221 . S
O271 Mn255 2.290 . S
O271 C265 1.278 . S
O272 Mn255 2.251 . S
O272 C265 1.241 . S
O273 Mn274 2.163 . S
O273 C287 1.244 . S
Mn274 O273 2.163 . S
Mn274 O277 2.160 1_554 S
Mn274 O278 2.221 . S
Mn274 O280 2.163 . S
Mn274 O282 2.160 1_554 S
Mn274 O292 2.221 1_554 S
O275 Mn276 2.087 1_554 S
O275 C287 1.256 . S
Mn276 O275 2.087 1_556 S
Mn276 O283 2.089 . S
Mn276 O292 2.290 . S
Mn276 O293 2.251 . S
O277 Mn274 2.160 1_556 S
O277 C288 1.239 . S
O278 Mn274 2.221 . S
O278 Mn279 2.290 . S
O278 C289 1.278 . S
Mn279 O278 2.290 . S
Mn279 O281 2.089 1_554 S
Mn279 O284 2.251 . S
Mn279 O285 2.087 . S
O280 Mn274 2.163 . S
O280 C290 1.244 . S
O281 Mn279 2.089 1_556 S
O281 C288 1.256 . S
O282 Mn274 2.160 1_556 S
O282 C291 1.239 . S
O283 Mn276 2.089 . S
O283 C291 1.256 . S
O284 Mn279 2.251 . S
O284 C289 1.241 . S
O285 Mn279 2.087 . S
O285 C290 1.256 . S
C286 O292 1.278 . S
C286 O293 1.241 . S
C287 O273 1.244 . S
C287 O275 1.256 . S
C288 O277 1.239 . S
C288 O281 1.256 . S
C289 O278 1.278 . S
C289 O284 1.241 . S
C290 O280 1.244 . S
C290 O285 1.256 . S
C291 O282 1.239 . S
C291 O283 1.256 . S
O292 Mn274 2.221 1_556 S
O292 Mn276 2.290 . S
O292 C286 1.278 . S
O293 Mn276 2.251 . S
O293 C286 1.241 . S
O294 Mn295 2.163 . S
O294 C308 1.244 . S
Mn295 O294 2.163 . S
Mn295 O298 2.160 1_545 S
Mn295 O299 2.221 1_545 S
Mn295 O301 2.163 1_545 S
Mn295 O303 2.160 . S
Mn295 O313 2.221 . S
O296 Mn297 2.087 . S
O296 C308 1.256 . S
Mn297 O296 2.087 . S
Mn297 O304 2.089 . S
Mn297 O313 2.290 . S
Mn297 O314 2.251 . S
O298 Mn295 2.160 1_565 S
O298 C309 1.239 . S
O299 Mn295 2.221 1_565 S
O299 Mn300 2.290 . S
O299 C310 1.278 . S
Mn300 O299 2.290 . S
Mn300 O302 2.089 . S
Mn300 O305 2.251 . S
Mn300 O306 2.087 . S
O301 Mn295 2.163 1_565 S
O301 C311 1.244 . S
O302 Mn300 2.089 . S
O302 C309 1.256 . S
O303 Mn295 2.160 . S
O303 C312 1.239 . S
O304 Mn297 2.089 . S
O304 C312 1.256 . S
O305 Mn300 2.251 . S
O305 C310 1.241 . S
O306 Mn300 2.087 . S
O306 C311 1.256 . S
C307 O313 1.278 . S
C307 O314 1.241 . S
C308 O294 1.244 . S
C308 O296 1.256 . S
C309 O298 1.239 . S
C309 O302 1.256 . S
C310 O299 1.278 . S
C310 O305 1.241 . S
C311 O301 1.244 . S
C311 O306 1.256 . S
C312 O303 1.239 . S
C312 O304 1.256 . S
O313 Mn295 2.221 . S
O313 Mn297 2.290 . S
O313 C307 1.278 . S
O314 Mn297 2.251 . S
O314 C307 1.241 . S
O315 Mn316 2.163 1_556 S
O315 C329 1.244 . S
Mn316 O315 2.163 1_554 S
Mn316 O319 2.160 . S
Mn316 O320 2.221 1_554 S
Mn316 O322 2.164 . S
Mn316 O324 2.160 . S
Mn316 O334 2.221 . S
O317 Mn318 2.087 1_556 S
O317 C329 1.256 . S
Mn318 O317 2.087 1_554 S
Mn318 O325 2.089 . S
Mn318 O334 2.290 . S
Mn318 O335 2.251 . S
O319 Mn316 2.160 . S
O319 C330 1.239 . S
O320 Mn316 2.221 1_556 S
O320 Mn321 2.290 . S
O320 C331 1.278 . S
Mn321 O320 2.290 . S
Mn321 O323 2.089 1_556 S
Mn321 O326 2.251 . S
Mn321 O327 2.087 . S
O322 Mn316 2.164 . S
O322 C332 1.242 1_554 S
O323 Mn321 2.089 1_554 S
O323 C330 1.256 . S
O324 Mn316 2.160 . S
O324 C333 1.239 . S
O325 Mn318 2.089 . S
O325 C333 1.256 . S
O326 Mn321 2.251 . S
O326 C331 1.241 . S
O327 Mn321 2.087 . S
O327 C332 1.256 . S
C328 O334 1.278 . S
C328 O335 1.241 . S
C329 O315 1.244 . S
C329 O317 1.256 . S
C330 O319 1.239 . S
C330 O323 1.256 . S
C331 O320 1.278 . S
C331 O326 1.241 . S
C332 O322 1.242 1_556 S
C332 O327 1.256 . S
C333 O324 1.239 . S
C333 O325 1.256 . S
O334 Mn316 2.221 . S
O334 Mn318 2.290 . S
O334 C328 1.278 . S
O335 Mn318 2.251 . S
O335 C328 1.241 . S
H336 C342 0.930 . S
H337 C345 0.930 . S
H338 C346 0.930 . S
H339 C347 0.930 1_455 S
H340 C350 0.930 . S
H341 C351 0.930 . S
C342 H336 0.930 . S
C342 C343 1.355 . S
C342 C344 1.415 . S
C343 C342 1.355 . S
C343 C345 1.419 1_655 S
C344 C342 1.415 . S
C344 C349 1.425 . S
C344 C351 1.409 . S
C345 H337 0.930 . S
C345 C343 1.419 1_455 S
C345 C346 1.362 . S
C346 H338 0.930 . S
C346 C345 1.362 . S
C346 C349 1.409 1_455 S
C347 H339 0.930 1_655 S
C347 C348 1.355 . S
C347 C349 1.415 . S
C348 C347 1.355 . S
C348 C350 1.419 . S
C349 C344 1.425 . S
C349 C346 1.409 1_655 S
C349 C347 1.415 . S
C350 H340 0.930 . S
C350 C348 1.419 . S
C350 C351 1.362 . S
C351 H341 0.930 . S
C351 C344 1.409 . S
C351 C350 1.362 . S
H352 C358 0.930 . S
H353 C361 0.930 . S
H354 C362 0.930 . S
H355 C363 0.930 . S
H356 C366 0.930 . S
H357 C367 0.930 . S
C358 H352 0.930 . S
C358 C359 1.355 . S
C358 C360 1.415 . S
C359 C358 1.355 . S
C359 C361 1.419 . S
C360 C358 1.415 . S
C360 C365 1.425 . S
C360 C367 1.409 . S
C361 H353 0.930 . S
C361 C359 1.419 . S
C361 C362 1.362 . S
C362 H354 0.930 . S
C362 C361 1.362 . S
C362 C365 1.409 . S
C363 H355 0.930 . S
C363 C364 1.355 . S
C363 C365 1.415 . S
C364 C363 1.355 . S
C364 C366 1.419 . S
C365 C360 1.425 . S
C365 C362 1.409 . S
C365 C363 1.415 . S
C366 H356 0.930 . S
C366 C364 1.419 . S
C366 C367 1.362 . S
C367 H357 0.930 . S
C367 C360 1.409 . S
C367 C366 1.362 . S
H368 C374 0.930 . S
H369 C377 0.930 . S
H370 C378 0.930 . S
H371 C379 0.930 . S
H372 C382 0.930 . S
H373 C383 0.930 . S
C374 H368 0.930 . S
C374 C375 1.355 . S
C374 C376 1.415 . S
C375 C374 1.355 . S
C375 C377 1.419 . S
C376 C374 1.415 . S
C376 C381 1.425 . S
C376 C383 1.409 . S
C377 H369 0.930 . S
C377 C375 1.419 . S
C377 C378 1.362 . S
C378 H370 0.930 . S
C378 C377 1.362 . S
C378 C381 1.409 . S
C379 H371 0.930 . S
C379 C380 1.355 . S
C379 C381 1.415 . S
C380 C379 1.355 . S
C380 C382 1.419 . S
C381 C376 1.425 . S
C381 C378 1.409 . S
C381 C379 1.415 . S
C382 H372 0.930 . S
C382 C380 1.419 . S
C382 C383 1.362 . S
C383 H373 0.930 . S
C383 C376 1.409 . S
C383 C382 1.362 . S
H384 C390 0.930 . S
H385 C393 0.930 . S
H386 C394 0.930 . S
H387 C395 0.930 . S
H388 C398 0.930 . S
H389 C399 0.930 . S
C390 H384 0.930 . S
C390 C391 1.355 . S
C390 C392 1.415 . S
C391 C390 1.355 . S
C391 C393 1.419 . S
C392 C390 1.415 . S
C392 C397 1.425 . S
C392 C399 1.409 . S
C393 H385 0.930 . S
C393 C391 1.419 . S
C393 C394 1.362 . S
C394 H386 0.930 . S
C394 C393 1.362 . S
C394 C397 1.409 . S
C395 H387 0.930 . S
C395 C396 1.355 . S
C395 C397 1.415 . S
C396 C395 1.355 . S
C396 C398 1.419 . S
C397 C392 1.425 . S
C397 C394 1.409 . S
C397 C395 1.415 . S
C398 H388 0.930 . S
C398 C396 1.419 . S
C398 C399 1.362 . S
C399 H389 0.930 . S
C399 C392 1.409 . S
C399 C398 1.362 . S
H400 C406 0.930 . S
H401 C409 0.930 . S
H402 C410 0.930 1_545 S
H403 C411 0.930 . S
H404 C414 0.930 . S
H405 C415 0.930 . S
C406 H400 0.930 . S
C406 C407 1.355 . S
C406 C408 1.415 . S
C407 C406 1.355 . S
C407 C409 1.419 . S
C408 C406 1.415 . S
C408 C413 1.425 . S
C408 C415 1.409 . S
C409 H401 0.930 . S
C409 C407 1.419 . S
C409 C410 1.362 . S
C410 H402 0.930 1_565 S
C410 C409 1.362 . S
C410 C413 1.409 . S
C411 H403 0.930 . S
C411 C412 1.355 . S
C411 C413 1.415 . S
C412 C411 1.355 . S
C412 C414 1.419 . S
C413 C408 1.425 . S
C413 C410 1.409 . S
C413 C411 1.415 . S
C414 H404 0.930 . S
C414 C412 1.419 . S
C414 C415 1.362 . S
C415 H405 0.930 . S
C415 C408 1.409 . S
C415 C414 1.362 . S
H416 C422 0.930 . S
H417 C425 0.930 . S
H418 C426 0.930 . S
H419 C427 0.930 . S
H420 C430 0.930 . S
H421 C431 0.930 . S
C422 H416 0.930 . S
C422 C423 1.355 . S
C422 C424 1.415 . S
C423 C422 1.355 . S
C423 C425 1.419 . S
C424 C422 1.415 . S
C424 C429 1.425 . S
C424 C431 1.409 . S
C425 H417 0.930 . S
C425 C423 1.419 . S
C425 C426 1.362 . S
C426 H418 0.930 . S
C426 C425 1.362 . S
C426 C429 1.409 . S
C427 H419 0.930 . S
C427 C428 1.355 . S
C427 C429 1.415 . S
C428 C427 1.355 . S
C428 C430 1.419 . S
C429 C424 1.425 . S
C429 C426 1.409 . S
C429 C427 1.415 . S
C430 H420 0.930 . S
C430 C428 1.419 . S
C430 C431 1.362 . S
C431 H421 0.930 . S
C431 C424 1.409 . S
C431 C430 1.362 . S
H432 C438 0.930 . S
H433 C441 0.930 . S
H434 C442 0.930 . S
H435 C443 0.930 . S
H436 C446 0.930 . S
H437 C447 0.930 . S
C438 H432 0.930 . S
C438 C439 1.355 . S
C438 C440 1.415 . S
C439 C438 1.355 . S
C439 C441 1.419 . S
C440 C438 1.415 . S
C440 C445 1.425 . S
C440 C447 1.409 . S
C441 H433 0.930 . S
C441 C439 1.419 . S
C441 C442 1.362 . S
C442 H434 0.930 . S
C442 C441 1.362 . S
C442 C445 1.409 . S
C443 H435 0.930 . S
C443 C444 1.355 . S
C443 C445 1.415 . S
C444 C443 1.355 . S
C444 C446 1.419 . S
C445 C440 1.425 . S
C445 C442 1.409 . S
C445 C443 1.415 . S
C446 H436 0.930 . S
C446 C444 1.419 . S
C446 C447 1.362 . S
C447 H437 0.930 . S
C447 C440 1.409 . S
C447 C446 1.362 . S
H448 C454 0.930 . S
H449 C457 0.930 . S
H450 C458 0.930 . S
H451 C459 0.930 . S
H452 C462 0.930 . S
H453 C463 0.930 . S
C454 H448 0.930 . S
C454 C455 1.355 . S
C454 C456 1.415 . S
C455 C454 1.355 . S
C455 C457 1.419 . S
C456 C454 1.415 . S
C456 C461 1.425 . S
C456 C463 1.409 . S
C457 H449 0.930 . S
C457 C455 1.419 . S
C457 C458 1.362 . S
C458 H450 0.930 . S
C458 C457 1.362 . S
C458 C461 1.409 . S
C459 H451 0.930 . S
C459 C460 1.355 . S
C459 C461 1.415 . S
C460 C459 1.355 . S
C460 C462 1.419 . S
C461 C456 1.425 . S
C461 C458 1.409 . S
C461 C459 1.415 . S
C462 H452 0.930 . S
C462 C460 1.419 . S
C462 C463 1.362 . S
C463 H453 0.930 . S
C463 C456 1.409 . S
C463 C462 1.362 . S
H464 C470 0.930 . S
H465 C473 0.930 . S
H466 C474 0.930 . S
H467 C475 0.930 . S
H468 C478 0.930 . S
H469 C479 0.930 . S
C470 H464 0.930 . S
C470 C471 1.355 . S
C470 C472 1.415 . S
C471 C470 1.355 . S
C471 C473 1.419 . S
C472 C470 1.415 . S
C472 C477 1.425 . S
C472 C479 1.409 . S
C473 H465 0.930 . S
C473 C471 1.419 . S
C473 C474 1.362 . S
C474 H466 0.930 . S
C474 C473 1.362 . S
C474 C477 1.409 . S
C475 H467 0.930 . S
C475 C476 1.355 . S
C475 C477 1.415 . S
C476 C475 1.355 . S
C476 C478 1.419 . S
C477 C472 1.425 . S
C477 C474 1.409 . S
C477 C475 1.415 . S
C478 H468 0.930 . S
C478 C476 1.419 . S
C478 C479 1.362 . S
C479 H469 0.930 . S
C479 C472 1.409 . S
C479 C478 1.362 . S
H480 C486 0.930 . S
H481 C489 0.930 . S
H482 C490 0.930 . S
H483 C491 0.930 . S
H484 C494 0.930 . S
H485 C495 0.930 . S
C486 H480 0.930 . S
C486 C487 1.355 . S
C486 C488 1.415 . S
C487 C486 1.355 . S
C487 C489 1.419 . S
C488 C486 1.415 . S
C488 C493 1.425 . S
C488 C495 1.409 . S
C489 H481 0.930 . S
C489 C487 1.419 . S
C489 C490 1.362 . S
C490 H482 0.930 . S
C490 C489 1.362 . S
C490 C493 1.409 . S
C491 H483 0.930 . S
C491 C492 1.355 . S
C491 C493 1.415 . S
C492 C491 1.355 . S
C492 C494 1.419 . S
C493 C488 1.425 . S
C493 C490 1.409 . S
C493 C491 1.415 . S
C494 H484 0.930 . S
C494 C492 1.419 . S
C494 C495 1.362 . S
C495 H485 0.930 . S
C495 C488 1.409 . S
C495 C494 1.362 . S
H496 C502 0.930 . S
H497 C505 0.930 . S
H498 C506 0.935 . S
H499 C507 0.934 . S
H500 C510 0.930 . S
H501 C511 0.930 . S
C502 H496 0.930 . S
C502 C503 1.355 . S
C502 C504 1.415 . S
C503 C502 1.355 . S
C503 C505 1.419 . S
C504 C502 1.415 . S
C504 C509 1.425 . S
C504 C511 1.409 . S
C505 H497 0.930 . S
C505 C503 1.419 . S
C505 C506 1.362 . S
C506 H498 0.935 . S
C506 C505 1.362 . S
C506 C509 1.409 . S
C507 H499 0.934 . S
C507 C508 1.355 . S
C507 C509 1.415 . S
C508 C507 1.355 . S
C508 C510 1.419 . S
C509 C504 1.425 . S
C509 C506 1.409 . S
C509 C507 1.415 . S
C510 H500 0.930 . S
C510 C508 1.419 . S
C510 C511 1.362 . S
C511 H501 0.930 . S
C511 C504 1.409 . S
C511 C510 1.362 . S
H512 C518 0.930 . S
H513 C521 0.930 . S
H514 C522 0.930 . S
H515 C523 0.930 1_655 S
H516 C526 0.930 . S
H517 C527 0.930 . S
C518 H512 0.930 . S
C518 C519 1.355 . S
C518 C520 1.415 . S
C519 C518 1.355 . S
C519 C521 1.419 1_455 S
C520 C518 1.415 . S
C520 C525 1.425 . S
C520 C527 1.409 . S
C521 H513 0.930 . S
C521 C519 1.419 1_655 S
C521 C522 1.362 . S
C522 H514 0.930 . S
C522 C521 1.362 . S
C522 C525 1.409 1_655 S
C523 H515 0.930 1_455 S
C523 C524 1.355 . S
C523 C525 1.415 . S
C524 C523 1.355 . S
C524 C526 1.419 . S
C525 C520 1.425 . S
C525 C522 1.409 1_455 S
C525 C523 1.415 . S
C526 H516 0.930 . S
C526 C524 1.419 . S
C526 C527 1.362 . S
C527 H517 0.930 . S
C527 C520 1.409 . S
C527 C526 1.362 . S
H528 C534 0.930 . S
H529 C537 0.930 . S
H530 C538 0.930 . S
H531 C539 0.930 . S
H532 C542 0.930 . S
H533 C543 0.930 . S
C534 H528 0.930 . S
C534 C535 1.355 . S
C534 C536 1.415 . S
C535 C534 1.355 . S
C535 C537 1.419 1_556 S
C536 C534 1.415 . S
C536 C541 1.425 1_556 S
C536 C543 1.409 . S
C537 H529 0.930 . S
C537 C535 1.419 1_554 S
C537 C538 1.362 . S
C538 H530 0.930 . S
C538 C537 1.362 . S
C538 C541 1.409 . S
C539 H531 0.930 . S
C539 C540 1.355 1_554 S
C539 C541 1.415 . S
C540 C539 1.355 1_556 S
C540 C542 1.419 . S
C541 C536 1.425 1_554 S
C541 C538 1.409 . S
C541 C539 1.415 . S
C542 H532 0.930 . S
C542 C540 1.419 . S
C542 C543 1.362 . S
C543 H533 0.930 . S
C543 C536 1.409 . S
C543 C542 1.362 . S
H544 C550 0.930 . S
H545 C553 0.930 . S
H546 C554 0.930 . S
H547 C555 0.930 . S
H548 C558 0.930 . S
H549 C559 0.930 . S
C550 H544 0.930 . S
C550 C551 1.355 . S
C550 C552 1.415 . S
C551 C550 1.355 . S
C551 C553 1.419 . S
C552 C550 1.415 . S
C552 C557 1.425 . S
C552 C559 1.409 . S
C553 H545 0.930 . S
C553 C551 1.419 . S
C553 C554 1.362 . S
C554 H546 0.930 . S
C554 C553 1.362 . S
C554 C557 1.409 . S
C555 H547 0.930 . S
C555 C556 1.355 . S
C555 C557 1.415 . S
C556 C555 1.355 . S
C556 C558 1.419 . S
C557 C552 1.425 . S
C557 C554 1.409 . S
C557 C555 1.415 . S
C558 H548 0.930 . S
C558 C556 1.419 . S
C558 C559 1.362 . S
C559 H549 0.930 . S
C559 C552 1.409 . S
C559 C558 1.362 . S
H560 C566 0.930 . S
H561 C569 0.930 . S
H562 C570 0.930 . S
H563 C571 0.930 . S
H564 C574 0.930 . S
H565 C575 0.930 . S
C566 H560 0.930 . S
C566 C567 1.355 . S
C566 C568 1.415 . S
C567 C566 1.355 . S
C567 C569 1.419 . S
C568 C566 1.415 . S
C568 C573 1.425 . S
C568 C575 1.409 . S
C569 H561 0.930 . S
C569 C567 1.419 . S
C569 C570 1.362 . S
C570 H562 0.930 . S
C570 C569 1.362 . S
C570 C573 1.409 . S
C571 H563 0.930 . S
C571 C572 1.355 . S
C571 C573 1.415 . S
C572 C571 1.355 . S
C572 C574 1.419 . S
C573 C568 1.425 . S
C573 C570 1.409 . S
C573 C571 1.415 . S
C574 H564 0.930 . S
C574 C572 1.419 . S
C574 C575 1.362 . S
C575 H565 0.930 . S
C575 C568 1.409 . S
C575 C574 1.362 . S
H576 C582 0.930 . S
H577 C585 0.930 . S
H578 C586 0.930 . S
H579 C587 0.930 . S
H580 C590 0.930 . S
H581 C591 0.930 . S
C582 H576 0.930 . S
C582 C583 1.355 . S
C582 C584 1.415 . S
C583 C582 1.355 . S
C583 C585 1.419 . S
C584 C582 1.415 . S
C584 C589 1.425 . S
C584 C591 1.409 . S
C585 H577 0.930 . S
C585 C583 1.419 . S
C585 C586 1.362 . S
C586 H578 0.930 . S
C586 C585 1.362 . S
C586 C589 1.409 . S
C587 H579 0.930 . S
C587 C588 1.355 . S
C587 C589 1.415 . S
C588 C587 1.355 . S
C588 C590 1.419 . S
C589 C584 1.425 . S
C589 C586 1.409 . S
C589 C587 1.415 . S
C590 H580 0.930 . S
C590 C588 1.419 . S
C590 C591 1.362 . S
C591 H581 0.930 . S
C591 C584 1.409 . S
C591 C590 1.362 . S
H592 C598 0.930 . S
H593 C601 0.930 . S
H594 C602 0.930 . S
H595 C603 0.930 . S
H596 C606 0.930 . S
H597 C607 0.930 . S
C598 H592 0.930 . S
C598 C599 1.355 . S
C598 C600 1.415 . S
C599 C598 1.355 . S
C599 C601 1.419 . S
C600 C598 1.415 . S
C600 C605 1.425 . S
C600 C607 1.409 . S
C601 H593 0.930 . S
C601 C599 1.419 . S
C601 C602 1.362 . S
C602 H594 0.930 . S
C602 C601 1.362 . S
C602 C605 1.409 . S
C603 H595 0.930 . S
C603 C604 1.355 . S
C603 C605 1.415 . S
C604 C603 1.355 . S
C604 C606 1.419 . S
C605 C600 1.425 . S
C605 C602 1.409 . S
C605 C603 1.415 . S
C606 H596 0.930 . S
C606 C604 1.419 . S
C606 C607 1.362 . S
C607 H597 0.930 . S
C607 C600 1.409 . S
C607 C606 1.362 . S
H608 C614 0.930 . S
H609 C617 0.930 . S
H610 C618 0.930 . S
H611 C619 0.930 . S
H612 C622 0.930 . S
H613 C623 0.930 . S
C614 H608 0.930 . S
C614 C615 1.355 . S
C614 C616 1.415 . S
C615 C614 1.355 . S
C615 C617 1.419 . S
C616 C614 1.415 . S
C616 C621 1.425 . S
C616 C623 1.409 . S
C617 H609 0.930 . S
C617 C615 1.419 . S
C617 C618 1.362 . S
C618 H610 0.930 . S
C618 C617 1.362 . S
C618 C621 1.409 . S
C619 H611 0.930 . S
C619 C620 1.355 . S
C619 C621 1.415 . S
C620 C619 1.355 . S
C620 C622 1.419 . S
C621 C616 1.425 . S
C621 C618 1.409 . S
C621 C619 1.415 . S
C622 H612 0.930 . S
C622 C620 1.419 . S
C622 C623 1.362 . S
C623 H613 0.930 . S
C623 C616 1.409 . S
C623 C622 1.362 . S
H624 C630 0.930 . S
H625 C633 0.930 . S
H626 C634 0.930 . S
H627 C635 0.930 . S
H628 C638 0.930 . S
H629 C639 0.930 . S
C630 H624 0.930 . S
C630 C631 1.355 . S
C630 C632 1.415 . S
C631 C630 1.355 . S
C631 C633 1.419 . S
C632 C630 1.415 . S
C632 C637 1.425 . S
C632 C639 1.409 . S
C633 H625 0.930 . S
C633 C631 1.419 . S
C633 C634 1.362 . S
C634 H626 0.930 . S
C634 C633 1.362 . S
C634 C637 1.409 . S
C635 H627 0.930 . S
C635 C636 1.355 . S
C635 C637 1.415 . S
C636 C635 1.355 . S
C636 C638 1.419 . S
C637 C632 1.425 . S
C637 C634 1.409 . S
C637 C635 1.415 . S
C638 H628 0.930 . S
C638 C636 1.419 . S
C638 C639 1.362 . S
C639 H629 0.930 . S
C639 C632 1.409 . S
C639 C638 1.362 . S
H640 C646 0.930 . S
H641 C649 0.930 . S
H642 C650 0.930 . S
H643 C651 0.930 . S
H644 C654 0.930 . S
H645 C655 0.930 . S
C646 H640 0.930 . S
C646 C647 1.355 . S
C646 C648 1.415 . S
C647 C646 1.355 . S
C647 C649 1.419 . S
C648 C646 1.415 . S
C648 C653 1.425 . S
C648 C655 1.409 . S
C649 H641 0.930 . S
C649 C647 1.419 . S
C649 C650 1.362 . S
C650 H642 0.930 . S
C650 C649 1.362 . S
C650 C653 1.409 . S
C651 H643 0.930 . S
C651 C652 1.355 . S
C651 C653 1.415 . S
C652 C651 1.355 . S
C652 C654 1.419 . S
C653 C648 1.425 . S
C653 C650 1.409 . S
C653 C651 1.415 . S
C654 H644 0.930 . S
C654 C652 1.419 . S
C654 C655 1.362 . S
C655 H645 0.930 . S
C655 C648 1.409 . S
C655 C654 1.362 . S
H656 C662 0.930 . S
H657 C665 0.930 . S
H658 C666 0.930 . S
H659 C667 0.930 . S
H660 C670 0.930 . S
H661 C671 0.930 . S
C662 H656 0.930 . S
C662 C663 1.355 . S
C662 C664 1.415 . S
C663 C662 1.355 . S
C663 C665 1.419 . S
C664 C662 1.415 . S
C664 C669 1.425 . S
C664 C671 1.409 . S
C665 H657 0.930 . S
C665 C663 1.419 . S
C665 C666 1.362 . S
C666 H658 0.930 . S
C666 C665 1.362 . S
C666 C669 1.409 . S
C667 H659 0.930 . S
C667 C668 1.355 . S
C667 C669 1.415 . S
C668 C667 1.355 . S
C668 C670 1.419 . S
C669 C664 1.425 . S
C669 C666 1.409 . S
C669 C667 1.415 . S
C670 H660 0.930 . S
C670 C668 1.419 . S
C670 C671 1.362 . S
C671 H661 0.930 . S
C671 C664 1.409 . S
C671 C670 1.362 . S
H672 C678 0.930 . S
H673 C681 0.930 . S
H674 C682 0.930 . S
H675 C683 0.930 . S
H676 C686 0.930 . S
H677 C687 0.930 . S
C678 H672 0.930 . S
C678 C679 1.355 1_455 S
C678 C680 1.415 . S
C679 C678 1.355 1_655 S
C679 C681 1.419 . S
C680 C678 1.415 . S
C680 C685 1.425 1_455 S
C680 C687 1.409 . S
C681 H673 0.930 . S
C681 C679 1.419 . S
C681 C682 1.362 . S
C682 H674 0.930 . S
C682 C681 1.362 . S
C682 C685 1.409 . S
C683 H675 0.930 . S
C683 C684 1.355 . S
C683 C685 1.415 . S
C684 C683 1.355 . S
C684 C686 1.419 1_655 S
C685 C680 1.425 1_655 S
C685 C682 1.409 . S
C685 C683 1.415 . S
C686 H676 0.930 . S
C686 C684 1.419 1_455 S
C686 C687 1.362 . S
C687 H677 0.930 . S
C687 C680 1.409 . S
C687 C686 1.362 . S
H688 C694 0.930 . S
H689 C697 0.930 . S
H690 C698 0.930 . S
H691 C699 0.930 . S
H692 C702 0.930 . S
H693 C703 0.930 . S
C694 H688 0.930 . S
C694 C695 1.355 . S
C694 C696 1.415 . S
C695 C694 1.355 . S
C695 C697 1.419 . S
C696 C694 1.415 . S
C696 C701 1.425 . S
C696 C703 1.409 . S
C697 H689 0.930 . S
C697 C695 1.419 . S
C697 C698 1.362 . S
C698 H690 0.930 . S
C698 C697 1.362 . S
C698 C701 1.409 . S
C699 H691 0.930 . S
C699 C700 1.355 . S
C699 C701 1.415 . S
C700 C699 1.355 . S
C700 C702 1.419 . S
C701 C696 1.425 . S
C701 C698 1.409 . S
C701 C699 1.415 . S
C702 H692 0.930 . S
C702 C700 1.419 . S
C702 C703 1.362 . S
C703 H693 0.930 . S
C703 C696 1.409 . S
C703 C702 1.362 . S
H704 C710 0.930 . S
H705 C713 0.930 . S
H706 C714 0.930 . S
H707 C715 0.930 . S
H708 C718 0.930 . S
H709 C719 0.930 . S
C710 H704 0.930 . S
C710 C711 1.355 . S
C710 C712 1.415 . S
C711 C710 1.355 . S
C711 C713 1.419 . S
C712 C710 1.415 . S
C712 C717 1.425 . S
C712 C719 1.409 . S
C713 H705 0.930 . S
C713 C711 1.419 . S
C713 C714 1.362 . S
C714 H706 0.930 . S
C714 C713 1.362 . S
C714 C717 1.409 . S
C715 H707 0.930 . S
C715 C716 1.355 . S
C715 C717 1.415 . S
C716 C715 1.355 . S
C716 C718 1.419 . S
C717 C712 1.425 . S
C717 C714 1.409 . S
C717 C715 1.415 . S
C718 H708 0.930 . S
C718 C716 1.419 . S
C718 C719 1.362 . S
C719 H709 0.930 . S
C719 C712 1.409 . S
C719 C718 1.362 . S
H720 C726 0.930 . S
H721 C729 0.930 . S
H722 C730 0.930 . S
H723 C731 0.930 . S
H724 C734 0.930 . S
H725 C735 0.930 . S
C726 H720 0.930 . S
C726 C727 1.355 . S
C726 C728 1.415 . S
C727 C726 1.355 . S
C727 C729 1.419 . S
C728 C726 1.415 . S
C728 C733 1.425 . S
C728 C735 1.409 . S
C729 H721 0.930 . S
C729 C727 1.419 . S
C729 C730 1.362 . S
C730 H722 0.930 . S
C730 C729 1.362 . S
C730 C733 1.409 . S
C731 H723 0.930 . S
C731 C732 1.355 . S
C731 C733 1.415 . S
C732 C731 1.355 . S
C732 C734 1.419 . S
C733 C728 1.425 . S
C733 C730 1.409 . S
C733 C731 1.415 . S
C734 H724 0.930 . S
C734 C732 1.419 . S
C734 C735 1.362 . S
C735 H725 0.930 . S
C735 C728 1.409 . S
C735 C734 1.362 . S
H736 C742 0.930 . S
H737 C745 0.930 . S
H738 C746 0.930 . S
H739 C747 0.930 . S
H740 C750 0.930 . S
H741 C751 0.930 . S
C742 H736 0.930 . S
C742 C743 1.355 . S
C742 C744 1.415 . S
C743 C742 1.355 . S
C743 C745 1.419 . S
C744 C742 1.415 . S
C744 C749 1.425 . S
C744 C751 1.409 . S
C745 H737 0.930 . S
C745 C743 1.419 . S
C745 C746 1.362 . S
C746 H738 0.930 . S
C746 C745 1.362 . S
C746 C749 1.409 . S
C747 H739 0.930 . S
C747 C748 1.355 . S
C747 C749 1.415 . S
C748 C747 1.355 . S
C748 C750 1.419 . S
C749 C744 1.425 . S
C749 C746 1.409 . S
C749 C747 1.415 . S
C750 H740 0.930 . S
C750 C748 1.419 . S
C750 C751 1.362 . S
C751 H741 0.930 . S
C751 C744 1.409 . S
C751 C750 1.362 . S
H752 C758 0.930 . S
H753 C761 0.930 . S
H754 C762 0.930 . S
H755 C763 0.930 . S
H756 C766 0.930 . S
H757 C767 0.930 . S
C758 H752 0.930 . S
C758 C759 1.355 . S
C758 C760 1.415 . S
C759 C758 1.355 . S
C759 C761 1.419 . S
C760 C758 1.415 . S
C760 C765 1.425 . S
C760 C767 1.409 . S
C761 H753 0.930 . S
C761 C759 1.419 . S
C761 C762 1.362 . S
C762 H754 0.930 . S
C762 C761 1.362 . S
C762 C765 1.409 . S
C763 H755 0.930 . S
C763 C764 1.355 . S
C763 C765 1.415 . S
C764 C763 1.355 . S
C764 C766 1.419 . S
C765 C760 1.425 . S
C765 C762 1.409 . S
C765 C763 1.415 . S
C766 H756 0.930 . S
C766 C764 1.419 . S
C766 C767 1.362 . S
C767 H757 0.930 . S
C767 C760 1.409 . S
C767 C766 1.362 . S
H768 C774 0.930 . S
H769 C777 0.930 . S
H770 C778 0.930 . S
H771 C779 0.930 . S
H772 C782 0.930 . S
H773 C783 0.930 . S
C774 H768 0.930 . S
C774 C775 1.355 . S
C774 C776 1.415 . S
C775 C774 1.355 . S
C775 C777 1.419 . S
C776 C774 1.415 . S
C776 C781 1.425 . S
C776 C783 1.409 . S
C777 H769 0.930 . S
C777 C775 1.419 . S
C777 C778 1.362 . S
C778 H770 0.930 . S
C778 C777 1.362 . S
C778 C781 1.409 . S
C779 H771 0.930 . S
C779 C780 1.355 . S
C779 C781 1.415 . S
C780 C779 1.355 . S
C780 C782 1.419 . S
C781 C776 1.425 . S
C781 C778 1.409 . S
C781 C779 1.415 . S
C782 H772 0.930 . S
C782 C780 1.419 . S
C782 C783 1.362 . S
C783 H773 0.930 . S
C783 C776 1.409 . S
C783 C782 1.362 . S
H784 C790 0.930 . S
H785 C793 0.930 . S
H786 C794 0.930 . S
H787 C795 0.930 . S
H788 C798 0.930 . S
H789 C799 0.930 . S
C790 H784 0.930 . S
C790 C791 1.355 . S
C790 C792 1.415 . S
C791 C790 1.355 . S
C791 C793 1.419 . S
C792 C790 1.415 . S
C792 C797 1.425 . S
C792 C799 1.409 . S
C793 H785 0.930 . S
C793 C791 1.419 . S
C793 C794 1.362 . S
C794 H786 0.930 . S
C794 C793 1.362 . S
C794 C797 1.409 . S
C795 H787 0.930 . S
C795 C796 1.355 . S
C795 C797 1.415 . S
C796 C795 1.355 . S
C796 C798 1.419 . S
C797 C792 1.425 . S
C797 C794 1.409 . S
C797 C795 1.415 . S
C798 H788 0.930 . S
C798 C796 1.419 . S
C798 C799 1.362 . S
C799 H789 0.930 . S
C799 C792 1.409 . S
C799 C798 1.362 . S
H800 C806 0.930 . S
H801 C809 0.930 . S
H802 C810 0.930 . S
H803 C811 0.930 . S
H804 C814 0.930 . S
H805 C815 0.930 . S
C806 H800 0.930 . S
C806 C807 1.355 . S
C806 C808 1.415 . S
C807 C806 1.355 . S
C807 C809 1.419 . S
C808 C806 1.415 . S
C808 C813 1.425 . S
C808 C815 1.409 . S
C809 H801 0.930 . S
C809 C807 1.419 . S
C809 C810 1.362 . S
C810 H802 0.930 . S
C810 C809 1.362 . S
C810 C813 1.409 . S
C811 H803 0.930 . S
C811 C812 1.355 . S
C811 C813 1.415 . S
C812 C811 1.355 . S
C812 C814 1.419 . S
C813 C808 1.425 . S
C813 C810 1.409 . S
C813 C811 1.415 . S
C814 H804 0.930 . S
C814 C812 1.419 . S
C814 C815 1.362 . S
C815 H805 0.930 . S
C815 C808 1.409 . S
C815 C814 1.362 . S
H816 C822 0.930 . S
H817 C825 0.930 . S
H818 C826 0.930 . S
H819 C827 0.930 . S
H820 C830 0.930 . S
H821 C831 0.930 . S
C822 H816 0.930 . S
C822 C823 1.355 . S
C822 C824 1.415 . S
C823 C822 1.355 . S
C823 C825 1.419 . S
C824 C822 1.415 . S
C824 C829 1.425 . S
C824 C831 1.409 . S
C825 H817 0.930 . S
C825 C823 1.419 . S
C825 C826 1.362 . S
C826 H818 0.930 . S
C826 C825 1.362 . S
C826 C829 1.409 . S
C827 H819 0.930 . S
C827 C828 1.355 . S
C827 C829 1.415 . S
C828 C827 1.355 . S
C828 C830 1.419 . S
C829 C824 1.425 . S
C829 C826 1.409 . S
C829 C827 1.415 . S
C830 H820 0.930 . S
C830 C828 1.419 . S
C830 C831 1.362 . S
C831 H821 0.930 . S
C831 C824 1.409 . S
C831 C830 1.362 . S
H832 C838 0.930 . S
H833 C841 0.930 . S
H834 C842 0.930 . S
H835 C843 0.930 . S
H836 C846 0.930 . S
H837 C847 0.930 . S
C838 H832 0.930 . S
C838 C839 1.355 . S
C838 C840 1.415 . S
C839 C838 1.355 . S
C839 C841 1.419 . S
C840 C838 1.415 . S
C840 C845 1.425 . S
C840 C847 1.409 . S
C841 H833 0.930 . S
C841 C839 1.419 . S
C841 C842 1.362 . S
C842 H834 0.930 . S
C842 C841 1.362 . S
C842 C845 1.409 . S
C843 H835 0.930 . S
C843 C844 1.355 . S
C843 C845 1.415 . S
C844 C843 1.355 . S
C844 C846 1.419 . S
C845 C840 1.425 . S
C845 C842 1.409 . S
C845 C843 1.415 . S
C846 H836 0.930 . S
C846 C844 1.419 . S
C846 C847 1.362 . S
C847 H837 0.930 . S
C847 C840 1.409 . S
C847 C846 1.362 . S
H848 C854 0.930 . S
H849 C857 0.930 . S
H850 C858 0.930 . S
H851 C859 0.930 . S
H852 C862 0.930 . S
H853 C863 0.930 . S
C854 H848 0.930 . S
C854 C855 1.355 . S
C854 C856 1.415 . S
C855 C854 1.355 . S
C855 C857 1.419 . S
C856 C854 1.415 . S
C856 C861 1.425 . S
C856 C863 1.409 . S
C857 H849 0.930 . S
C857 C855 1.419 . S
C857 C858 1.362 . S
C858 H850 0.930 . S
C858 C857 1.362 . S
C858 C861 1.409 . S
C859 H851 0.930 . S
C859 C860 1.355 . S
C859 C861 1.415 . S
C860 C859 1.355 . S
C860 C862 1.419 . S
C861 C856 1.425 . S
C861 C858 1.409 . S
C861 C859 1.415 . S
C862 H852 0.930 . S
C862 C860 1.419 . S
C862 C863 1.362 . S
C863 H853 0.930 . S
C863 C856 1.409 . S
C863 C862 1.362 . S
H864 C870 0.930 . S
H865 C873 0.930 . S
H866 C874 0.930 . S
H867 C875 0.930 . S
H868 C878 0.930 . S
H869 C879 0.930 . S
C870 H864 0.930 . S
C870 C871 1.355 . S
C870 C872 1.415 . S
C871 C870 1.355 . S
C871 C873 1.419 . S
C872 C870 1.415 . S
C872 C877 1.425 . S
C872 C879 1.409 . S
C873 H865 0.930 . S
C873 C871 1.419 . S
C873 C874 1.362 . S
C874 H866 0.930 . S
C874 C873 1.362 . S
C874 C877 1.409 . S
C875 H867 0.930 . S
C875 C876 1.355 . S
C875 C877 1.415 . S
C876 C875 1.355 . S
C876 C878 1.419 . S
C877 C872 1.425 . S
C877 C874 1.409 . S
C877 C875 1.415 . S
C878 H868 0.930 . S
C878 C876 1.419 . S
C878 C879 1.362 . S
C879 H869 0.930 . S
C879 C872 1.409 . S
C879 C878 1.362 . S
H880 C886 0.930 . S
H881 C889 0.930 . S
H882 C890 0.930 . S
H883 C891 0.930 . S
H884 C894 0.930 . S
H885 C895 0.930 . S
C886 H880 0.930 . S
C886 C887 1.355 . S
C886 C888 1.415 . S
C887 C886 1.355 . S
C887 C889 1.419 . S
C888 C886 1.415 . S
C888 C893 1.425 . S
C888 C895 1.409 . S
C889 H881 0.930 . S
C889 C887 1.419 . S
C889 C890 1.362 . S
C890 H882 0.930 . S
C890 C889 1.362 . S
C890 C893 1.409 . S
C891 H883 0.930 . S
C891 C892 1.355 . S
C891 C893 1.415 . S
C892 C891 1.355 . S
C892 C894 1.419 . S
C893 C888 1.425 . S
C893 C890 1.409 . S
C893 C891 1.415 . S
C894 H884 0.930 . S
C894 C892 1.419 . S
C894 C895 1.362 . S
C895 H885 0.930 . S
C895 C888 1.409 . S
C895 C894 1.362 . S
H896 C902 0.930 . S
H897 C905 0.930 . S
H898 C906 0.930 . S
H899 C907 0.930 . S
H900 C910 0.930 . S
H901 C911 0.930 . S
C902 H896 0.930 . S
C902 C903 1.355 . S
C902 C904 1.415 . S
C903 C902 1.355 . S
C903 C905 1.419 . S
C904 C902 1.415 . S
C904 C909 1.425 . S
C904 C911 1.409 . S
C905 H897 0.930 . S
C905 C903 1.419 . S
C905 C906 1.362 . S
C906 H898 0.930 . S
C906 C905 1.362 . S
C906 C909 1.409 . S
C907 H899 0.930 . S
C907 C908 1.355 . S
C907 C909 1.415 . S
C908 C907 1.355 . S
C908 C910 1.419 . S
C909 C904 1.425 . S
C909 C906 1.409 . S
C909 C907 1.415 . S
C910 H900 0.930 . S
C910 C908 1.419 . S
C910 C911 1.362 . S
C911 H901 0.930 . S
C911 C904 1.409 . S
C911 C910 1.362 . S
H912 C918 0.930 . S
H913 C921 0.930 . S
H914 C922 0.930 . S
H915 C923 0.930 . S
H916 C926 0.930 . S
H917 C927 0.930 . S
C918 H912 0.930 . S
C918 C919 1.355 . S
C918 C920 1.415 . S
C919 C918 1.355 . S
C919 C921 1.419 . S
C920 C918 1.415 . S
C920 C925 1.425 . S
C920 C927 1.409 . S
C921 H913 0.930 . S
C921 C919 1.419 . S
C921 C922 1.362 . S
C922 H914 0.930 . S
C922 C921 1.362 . S
C922 C925 1.409 . S
C923 H915 0.930 . S
C923 C924 1.355 . S
C923 C925 1.415 . S
C924 C923 1.355 . S
C924 C926 1.419 . S
C925 C920 1.425 . S
C925 C922 1.409 . S
C925 C923 1.415 . S
C926 H916 0.930 . S
C926 C924 1.419 . S
C926 C927 1.362 . S
C927 H917 0.930 . S
C927 C920 1.409 . S
C927 C926 1.362 . S
H928 C934 0.930 . S
H929 C937 0.930 . S
H930 C938 0.930 . S
H931 C939 0.930 . S
H932 C942 0.930 . S
H933 C943 0.930 1_556 S
C934 H928 0.930 . S
C934 C935 1.355 . S
C934 C936 1.415 . S
C935 C934 1.355 . S
C935 C937 1.419 . S
C936 C934 1.415 . S
C936 C941 1.425 . S
C936 C943 1.409 . S
C937 H929 0.930 . S
C937 C935 1.419 . S
C937 C938 1.362 . S
C938 H930 0.930 . S
C938 C937 1.362 . S
C938 C941 1.409 . S
C939 H931 0.930 . S
C939 C940 1.355 . S
C939 C941 1.415 . S
C940 C939 1.355 . S
C940 C942 1.419 . S
C941 C936 1.425 . S
C941 C938 1.409 . S
C941 C939 1.415 . S
C942 H932 0.930 . S
C942 C940 1.419 . S
C942 C943 1.362 . S
C943 H933 0.930 1_554 S
C943 C936 1.409 . S
C943 C942 1.362 . S
H944 C950 0.930 . S
H945 C953 0.930 . S
H946 C954 0.930 . S
H947 C955 0.930 . S
H948 C958 0.930 . S
H949 C959 0.930 . S
C950 H944 0.930 . S
C950 C951 1.355 . S
C950 C952 1.415 . S
C951 C950 1.355 . S
C951 C953 1.419 . S
C952 C950 1.415 . S
C952 C957 1.425 . S
C952 C959 1.409 . S
C953 H945 0.930 . S
C953 C951 1.419 . S
C953 C954 1.362 . S
C954 H946 0.930 . S
C954 C953 1.362 . S
C954 C957 1.409 . S
C955 H947 0.930 . S
C955 C956 1.355 . S
C955 C957 1.415 . S
C956 C955 1.355 . S
C956 C958 1.419 . S
C957 C952 1.425 . S
C957 C954 1.409 . S
C957 C955 1.415 . S
C958 H948 0.930 . S
C958 C956 1.419 . S
C958 C959 1.362 . S
C959 H949 0.930 . S
C959 C952 1.409 . S
C959 C958 1.362 . S
H960 C966 0.930 . S
H961 C969 0.930 . S
H962 C970 0.930 . S
H963 C971 0.930 . S
H964 C974 0.930 . S
H965 C975 0.930 . S
C966 H960 0.930 . S
C966 C967 1.355 . S
C966 C968 1.415 . S
C967 C966 1.355 . S
C967 C969 1.419 . S
C968 C966 1.415 . S
C968 C973 1.425 . S
C968 C975 1.409 . S
C969 H961 0.930 . S
C969 C967 1.419 . S
C969 C970 1.362 . S
C970 H962 0.930 . S
C970 C969 1.362 . S
C970 C973 1.409 . S
C971 H963 0.930 . S
C971 C972 1.355 . S
C971 C973 1.415 . S
C972 C971 1.355 . S
C972 C974 1.419 . S
C973 C968 1.425 . S
C973 C970 1.409 . S
C973 C971 1.415 . S
C974 H964 0.930 . S
C974 C972 1.419 . S
C974 C975 1.362 . S
C975 H965 0.930 . S
C975 C968 1.409 . S
C975 C974 1.362 . S
H976 C982 0.930 . S
H977 C985 0.930 . S
H978 C986 0.930 . S
H979 C987 0.930 . S
H980 C990 0.930 . S
H981 C991 0.930 . S
C982 H976 0.930 . S
C982 C983 1.355 . S
C982 C984 1.415 . S
C983 C982 1.355 . S
C983 C985 1.419 . S
C984 C982 1.415 . S
C984 C989 1.425 . S
C984 C991 1.409 . S
C985 H977 0.930 . S
C985 C983 1.419 . S
C985 C986 1.362 . S
C986 H978 0.930 . S
C986 C985 1.362 . S
C986 C989 1.409 . S
C987 H979 0.930 . S
C987 C988 1.355 . S
C987 C989 1.415 . S
C988 C987 1.355 . S
C988 C990 1.419 . S
C989 C984 1.425 . S
C989 C986 1.409 . S
C989 C987 1.415 . S
C990 H980 0.930 . S
C990 C988 1.419 . S
C990 C991 1.362 . S
C991 H981 0.930 . S
C991 C984 1.409 . S
C991 C990 1.362 . S
H992 C998 0.930 . S
H993 C1001 0.930 . S
H994 C1002 0.930 . S
H995 C1003 0.930 . S
H996 C1006 0.930 . S
H997 C1007 0.930 . S
C998 H992 0.930 . S
C998 C999 1.355 . S
C998 C1000 1.415 . S
C999 C998 1.355 . S
C999 C1001 1.419 . S
C1000 C998 1.415 . S
C1000 C1005 1.425 . S
C1000 C1007 1.409 . S
C1001 H993 0.930 . S
C1001 C999 1.419 . S
C1001 C1002 1.362 . S
C1002 H994 0.930 . S
C1002 C1001 1.362 . S
C1002 C1005 1.409 . S
C1003 H995 0.930 . S
C1003 C1004 1.355 . S
C1003 C1005 1.415 . S
C1004 C1003 1.355 . S
C1004 C1006 1.419 . S
C1005 C1000 1.425 . S
C1005 C1002 1.409 . S
C1005 C1003 1.415 . S
C1006 H996 0.930 . S
C1006 C1004 1.419 . S
C1006 C1007 1.362 . S
C1007 H997 0.930 . S
C1007 C1000 1.409 . S
C1007 C1006 1.362 . S
H1008 C1014 0.924 1_554 S
H1009 C1017 0.930 . S
H1010 C1018 0.930 . S
H1011 C1019 0.930 . S
H1012 C1022 0.930 . S
H1013 C1023 0.930 . S
C1014 H1008 0.924 1_556 S
C1014 C1015 1.360 . S
C1014 C1016 1.415 . S
C1015 C1014 1.360 . S
C1015 C1017 1.419 . S
C1016 C1014 1.415 . S
C1016 C1021 1.425 . S
C1016 C1023 1.409 1_556 S
C1017 H1009 0.930 . S
C1017 C1015 1.419 . S
C1017 C1018 1.362 . S
C1018 H1010 0.930 . S
C1018 C1017 1.362 . S
C1018 C1021 1.409 . S
C1019 H1011 0.930 . S
C1019 C1020 1.355 . S
C1019 C1021 1.415 . S
C1020 C1019 1.355 . S
C1020 C1022 1.419 1_556 S
C1021 C1016 1.425 . S
C1021 C1018 1.409 . S
C1021 C1019 1.415 . S
C1022 H1012 0.930 . S
C1022 C1020 1.419 1_554 S
C1022 C1023 1.362 . S
C1023 H1013 0.930 . S
C1023 C1016 1.409 1_554 S
C1023 C1022 1.362 . S
H1024 C1030 0.930 . S
H1025 C1033 0.930 . S
H1026 C1034 0.930 . S
H1027 C1035 0.930 . S
H1028 C1038 0.930 . S
H1029 C1039 0.930 . S
C1030 H1024 0.930 . S
C1030 C1031 1.355 . S
C1030 C1032 1.415 . S
C1031 C1030 1.355 . S
C1031 C1033 1.419 . S
C1032 C1030 1.415 . S
C1032 C1037 1.425 . S
C1032 C1039 1.409 . S
C1033 H1025 0.930 . S
C1033 C1031 1.419 . S
C1033 C1034 1.362 . S
C1034 H1026 0.930 . S
C1034 C1033 1.362 . S
C1034 C1037 1.409 . S
C1035 H1027 0.930 . S
C1035 C1036 1.355 . S
C1035 C1037 1.415 . S
C1036 C1035 1.355 . S
C1036 C1038 1.419 . S
C1037 C1032 1.425 . S
C1037 C1034 1.409 . S
C1037 C1035 1.415 . S
C1038 H1028 0.930 . S
C1038 C1036 1.419 . S
C1038 C1039 1.362 . S
C1039 H1029 0.930 . S
C1039 C1032 1.409 . S
C1039 C1038 1.362 . S
H1040 C1046 0.930 . S
H1041 C1049 0.930 . S
H1042 C1050 0.930 . S
H1043 C1051 0.930 . S
H1044 C1054 0.930 . S
H1045 C1055 0.930 . S
C1046 H1040 0.930 . S
C1046 C1047 1.355 . S
C1046 C1048 1.415 . S
C1047 C1046 1.355 . S
C1047 C1049 1.419 . S
C1048 C1046 1.415 . S
C1048 C1053 1.425 . S
C1048 C1055 1.409 . S
C1049 H1041 0.930 . S
C1049 C1047 1.419 . S
C1049 C1050 1.362 . S
C1050 H1042 0.930 . S
C1050 C1049 1.362 . S
C1050 C1053 1.409 . S
C1051 H1043 0.930 . S
C1051 C1052 1.355 . S
C1051 C1053 1.415 . S
C1052 C1051 1.355 . S
C1052 C1054 1.419 . S
C1053 C1048 1.425 . S
C1053 C1050 1.409 . S
C1053 C1051 1.415 . S
C1054 H1044 0.930 . S
C1054 C1052 1.419 . S
C1054 C1055 1.362 . S
C1055 H1045 0.930 . S
C1055 C1048 1.409 . S
C1055 C1054 1.362 . S
H1056 C1062 0.930 . S
H1057 C1065 0.930 . S
H1058 C1066 0.930 . S
H1059 C1067 0.930 . S
H1060 C1070 0.930 . S
H1061 C1071 0.930 . S
C1062 H1056 0.930 . S
C1062 C1063 1.355 . S
C1062 C1064 1.415 . S
C1063 C1062 1.355 . S
C1063 C1065 1.419 . S
C1064 C1062 1.415 . S
C1064 C1069 1.425 . S
C1064 C1071 1.409 . S
C1065 H1057 0.930 . S
C1065 C1063 1.419 . S
C1065 C1066 1.362 . S
C1066 H1058 0.930 . S
C1066 C1065 1.362 . S
C1066 C1069 1.409 . S
C1067 H1059 0.930 . S
C1067 C1068 1.355 . S
C1067 C1069 1.415 . S
C1068 C1067 1.355 . S
C1068 C1070 1.419 . S
C1069 C1064 1.425 . S
C1069 C1066 1.409 . S
C1069 C1067 1.415 . S
C1070 H1060 0.930 . S
C1070 C1068 1.419 . S
C1070 C1071 1.362 . S
C1071 H1061 0.930 . S
C1071 C1064 1.409 . S
C1071 C1070 1.362 . S
H1072 C1078 0.930 . S
H1073 C1081 0.930 . S
H1074 C1082 0.930 . S
H1075 C1083 0.930 . S
H1076 C1086 0.930 . S
H1077 C1087 0.930 . S
C1078 H1072 0.930 . S
C1078 C1079 1.355 . S
C1078 C1080 1.415 . S
C1079 C1078 1.355 . S
C1079 C1081 1.419 . S
C1080 C1078 1.415 . S
C1080 C1085 1.425 . S
C1080 C1087 1.409 . S
C1081 H1073 0.930 . S
C1081 C1079 1.419 . S
C1081 C1082 1.362 . S
C1082 H1074 0.930 . S
C1082 C1081 1.362 . S
C1082 C1085 1.409 . S
C1083 H1075 0.930 . S
C1083 C1084 1.355 . S
C1083 C1085 1.415 . S
C1084 C1083 1.355 . S
C1084 C1086 1.419 . S
C1085 C1080 1.425 . S
C1085 C1082 1.409 . S
C1085 C1083 1.415 . S
C1086 H1076 0.930 . S
C1086 C1084 1.419 . S
C1086 C1087 1.362 . S
C1087 H1077 0.930 . S
C1087 C1080 1.409 . S
C1087 C1086 1.362 . S
H1088 C1094 0.930 . S
H1089 C1097 0.930 . S
H1090 C1098 0.930 . S
H1091 C1099 0.930 . S
H1092 C1102 0.930 . S
H1093 C1103 0.930 . S
C1094 H1088 0.930 . S
C1094 C1095 1.355 . S
C1094 C1096 1.415 . S
C1095 C1094 1.355 . S
C1095 C1097 1.419 . S
C1096 C1094 1.415 . S
C1096 C1101 1.425 . S
C1096 C1103 1.409 . S
C1097 H1089 0.930 . S
C1097 C1095 1.419 . S
C1097 C1098 1.362 . S
C1098 H1090 0.930 . S
C1098 C1097 1.362 . S
C1098 C1101 1.409 . S
C1099 H1091 0.930 . S
C1099 C1100 1.355 . S
C1099 C1101 1.415 . S
C1100 C1099 1.355 . S
C1100 C1102 1.419 . S
C1101 C1096 1.425 . S
C1101 C1098 1.409 . S
C1101 C1099 1.415 . S
C1102 H1092 0.930 . S
C1102 C1100 1.419 . S
C1102 C1103 1.362 . S
C1103 H1093 0.930 . S
C1103 C1096 1.409 . S
C1103 C1102 1.362 . S
C343 C13 0.959 . S
C348 C39 0.999 . S
C359 C55 0.904 . S
C364 C36 0.962 . S
C375 C78 0.969 . S
C380 C56 0.939 . S
C391 C14 0.964 . S
C396 C81 0.860 . S
C407 C15 0.946 . S
C412 C206 1.031 . S
C423 C162 1.020 . S
C428 C38 0.941 . S
C439 C58 1.066 . S
C444 C224 1.092 . S
C455 C77 1.031 . S
C460 C288 0.935 . S
C471 C184 0.983 . S
C476 C35 1.015 . S
C487 C266 0.927 . S
C492 C57 1.008 . S
C503 C310 1.007 . S
C508 C80 1.024 . S
C519 C16 1.041 . S
C524 C248 1.011 . S
C535 C17 0.924 . S
C540 C186 0.971 . S
C551 C265 0.939 . S
C556 C100 0.974 . S
C567 C122 0.991 . S
C572 C311 0.986 . S
C583 C247 0.971 . S
C588 C139 0.939 . S
C599 C59 1.052 . S
C604 C164 1.045 . S
C615 C205 1.009 . S
C620 C97 1.005 . S
C631 C142 1.092 . S
C636 C223 0.953 . S
C647 C121 1.024 . S
C652 C245 1.105 . S
C663 C203 0.960 . S
C668 C120 0.933 . S
C679 C249 0.961 . S
C684 C161 0.987 . S
C695 C118 0.831 . S
C700 C99 0.937 . S
C711 C204 0.897 . S
C716 C182 0.959 . S
C727 C286 0.907 . S
C732 C246 0.879 . S
C743 C141 0.918 . S
C748 C119 0.979 . S
C759 C207 0.954 . S
C764 C307 0.886 . S
C775 C290 0.983 . S
C780 C18 0.901 . S
C791 C60 0.897 . S
C796 C312 0.907 . S
C807 C268 1.046 . S
C812 C34 0.970 . S
C823 C165 0.791 . S
C828 C123 0.795 . S
C839 C76 1.021 . S
C844 C226 0.896 . S
C855 C267 0.949 . S
C860 C287 0.925 . S
C871 C160 0.894 . S
C876 C270 0.955 . S
C887 C143 1.023 . S
C892 C163 1.012 . S
C903 C98 1.078 . S
C908 C289 0.996 . S
C919 C269 0.958 . S
C924 C330 1.036 . S
C935 C333 0.982 . S
C940 C185 0.916 . S
C951 C37 1.022 . S
C956 C202 0.874 . S
C967 C183 0.941 . S
C972 C140 1.019 . S
C983 C181 0.844 . S
C988 C225 0.953 . S
C999 C329 0.963 . S
C1004 C144 0.873 . S
C1015 C291 0.971 . S
C1020 C332 0.924 . S
C1031 C244 1.067 . S
C1036 C79 0.977 . S
C1047 C228 0.968 . S
C1052 C308 0.981 . S
C1063 C227 1.070 . S
C1068 C331 1.012 . S
C1079 C101 0.941 . S
C1084 C309 1.020 . S
C1095 C328 0.986 . S
C1100 C102 0.930 . S
