# Generated by pormake.
# Topology whw, (6)-cn, num edge types: 1
# Building blocks:
#     Node 0, Type 0, BuildingBlock: KUMJIN_clean_sbu_0, # of connection points: 6
#     Node 1, Type 0, BuildingBlock: KUMJIN_clean_sbu_0, # of connection points: 6
#     Node 2, Type 0, BuildingBlock: KUMJIN_clean_sbu_0, # of connection points: 6
#     Node 3, Type 0, BuildingBlock: KUMJIN_clean_sbu_0, # of connection points: 6
#     Node 4, Type 0, BuildingBlock: KUMJIN_clean_sbu_0, # of connection points: 6
#     Node 5, Type 0, BuildingBlock: KUMJIN_clean_sbu_0, # of connection points: 6
#     Node 6, Type 0, BuildingBlock: KUMJIN_clean_sbu_0, # of connection points: 6
#     Node 7, Type 0, BuildingBlock: KUMJIN_clean_sbu_0, # of connection points: 6
#     Node 8, Type 0, BuildingBlock: KUMJIN_clean_sbu_0, # of connection points: 6
#     Node 9, Type 0, BuildingBlock: KUMJIN_clean_sbu_0, # of connection points: 6
#     Node 10, Type 0, BuildingBlock: KUMJIN_clean_sbu_0, # of connection points: 6
#     Node 11, Type 0, BuildingBlock: KUMJIN_clean_sbu_0, # of connection points: 6
#     Node 12, Type 0, BuildingBlock: KUMJIN_clean_sbu_0, # of connection points: 6
#     Node 13, Type 0, BuildingBlock: KUMJIN_clean_sbu_0, # of connection points: 6
#     Node 14, Type 0, BuildingBlock: KUMJIN_clean_sbu_0, # of connection points: 6
#     Node 15, Type 0, BuildingBlock: KUMJIN_clean_sbu_0, # of connection points: 6
#     Edge 16, Type (0, 0), BuildingBlock: XIVTED_clean_linker_0, # of connection points: 2
#     Edge 17, Type (0, 0), BuildingBlock: XIVTED_clean_linker_0, # of connection points: 2
#     Edge 18, Type (0, 0), BuildingBlock: XIVTED_clean_linker_0, # of connection points: 2
#     Edge 19, Type (0, 0), BuildingBlock: XIVTED_clean_linker_0, # of connection points: 2
#     Edge 20, Type (0, 0), BuildingBlock: XIVTED_clean_linker_0, # of connection points: 2
#     Edge 21, Type (0, 0), BuildingBlock: XIVTED_clean_linker_0, # of connection points: 2
#     Edge 22, Type (0, 0), BuildingBlock: XIVTED_clean_linker_0, # of connection points: 2
#     Edge 23, Type (0, 0), BuildingBlock: XIVTED_clean_linker_0, # of connection points: 2
#     Edge 24, Type (0, 0), BuildingBlock: XIVTED_clean_linker_0, # of connection points: 2
#     Edge 25, Type (0, 0), BuildingBlock: XIVTED_clean_linker_0, # of connection points: 2
#     Edge 26, Type (0, 0), BuildingBlock: XIVTED_clean_linker_0, # of connection points: 2
#     Edge 27, Type (0, 0), BuildingBlock: XIVTED_clean_linker_0, # of connection points: 2
#     Edge 28, Type (0, 0), BuildingBlock: XIVTED_clean_linker_0, # of connection points: 2
#     Edge 29, Type (0, 0), BuildingBlock: XIVTED_clean_linker_0, # of connection points: 2
#     Edge 30, Type (0, 0), BuildingBlock: XIVTED_clean_linker_0, # of connection points: 2
#     Edge 31, Type (0, 0), BuildingBlock: XIVTED_clean_linker_0, # of connection points: 2
#     Edge 32, Type (0, 0), BuildingBlock: XIVTED_clean_linker_0, # of connection points: 2
#     Edge 33, Type (0, 0), BuildingBlock: XIVTED_clean_linker_0, # of connection points: 2
#     Edge 34, Type (0, 0), BuildingBlock: XIVTED_clean_linker_0, # of connection points: 2
#     Edge 35, Type (0, 0), BuildingBlock: XIVTED_clean_linker_0, # of connection points: 2
#     Edge 36, Type (0, 0), BuildingBlock: XIVTED_clean_linker_0, # of connection points: 2
#     Edge 37, Type (0, 0), BuildingBlock: XIVTED_clean_linker_0, # of connection points: 2
#     Edge 38, Type (0, 0), BuildingBlock: XIVTED_clean_linker_0, # of connection points: 2
#     Edge 39, Type (0, 0), BuildingBlock: XIVTED_clean_linker_0, # of connection points: 2
#     Edge 40, Type (0, 0), BuildingBlock: XIVTED_clean_linker_0, # of connection points: 2
#     Edge 41, Type (0, 0), BuildingBlock: XIVTED_clean_linker_0, # of connection points: 2
#     Edge 42, Type (0, 0), BuildingBlock: XIVTED_clean_linker_0, # of connection points: 2
#     Edge 43, Type (0, 0), BuildingBlock: XIVTED_clean_linker_0, # of connection points: 2
#     Edge 44, Type (0, 0), BuildingBlock: XIVTED_clean_linker_0, # of connection points: 2
#     Edge 45, Type (0, 0), BuildingBlock: XIVTED_clean_linker_0, # of connection points: 2
#     Edge 46, Type (0, 0), BuildingBlock: XIVTED_clean_linker_0, # of connection points: 2
#     Edge 47, Type (0, 0), BuildingBlock: XIVTED_clean_linker_0, # of connection points: 2
#     Edge 48, Type (0, 0), BuildingBlock: XIVTED_clean_linker_0, # of connection points: 2
#     Edge 49, Type (0, 0), BuildingBlock: XIVTED_clean_linker_0, # of connection points: 2
#     Edge 50, Type (0, 0), BuildingBlock: XIVTED_clean_linker_0, # of connection points: 2
#     Edge 51, Type (0, 0), BuildingBlock: XIVTED_clean_linker_0, # of connection points: 2
#     Edge 52, Type (0, 0), BuildingBlock: XIVTED_clean_linker_0, # of connection points: 2
#     Edge 53, Type (0, 0), BuildingBlock: XIVTED_clean_linker_0, # of connection points: 2
#     Edge 54, Type (0, 0), BuildingBlock: XIVTED_clean_linker_0, # of connection points: 2
#     Edge 55, Type (0, 0), BuildingBlock: XIVTED_clean_linker_0, # of connection points: 2
#     Edge 56, Type (0, 0), BuildingBlock: XIVTED_clean_linker_0, # of connection points: 2
#     Edge 57, Type (0, 0), BuildingBlock: XIVTED_clean_linker_0, # of connection points: 2
#     Edge 58, Type (0, 0), BuildingBlock: XIVTED_clean_linker_0, # of connection points: 2
#     Edge 59, Type (0, 0), BuildingBlock: XIVTED_clean_linker_0, # of connection points: 2
#     Edge 60, Type (0, 0), BuildingBlock: XIVTED_clean_linker_0, # of connection points: 2
#     Edge 61, Type (0, 0), BuildingBlock: XIVTED_clean_linker_0, # of connection points: 2
#     Edge 62, Type (0, 0), BuildingBlock: XIVTED_clean_linker_0, # of connection points: 2
#     Edge 63, Type (0, 0), BuildingBlock: XIVTED_clean_linker_0, # of connection points: 2
# Relax obj value: 0.291
# Max RMSD: 0.267
# Mean RMSD: 0.221
data_MOF--net-whw--node1-KUMJIN_clean_sbu_0--edge1-XIVTED_clean_linker_0
_symmetry_space_group_name_H-M    P1
_symmetry_Int_Tables_number       1
_symmetry_cell_setting            triclinic
loop_
_symmetry_equiv_pos_as_xyz
'x, y, z'
_cell_length_a     47.354037
_cell_length_b     47.585347
_cell_length_c     33.222691
_cell_angle_alpha  100.61218
_cell_angle_beta   94.875522
_cell_angle_gamma 101.28549
loop_
_atom_site_label
_atom_site_type_symbol
_atom_site_fract_x
_atom_site_fract_y
_atom_site_fract_z
_atom_type_partial_charge
Eu0 Eu 0.08949 0.17025 0.21179 0.0
C1 C 0.96345 0.11278 0.1392 0.0
C2 C 0.94176 0.15443 0.13586 0.0
C3 C 0.91995 0.10759 0.09107 0.0
C4 C 0.96346 0.14198 0.15331 0.0
C5 C 0.94169 0.09532 0.10775 0.0
C6 C 0.91991 0.13706 0.10523 0.0
C7 C 0.96346 0.05421 0.11231 0.0
N8 N 0.98477 0.10143 0.15571 0.0
C9 C 0.98417 0.07212 0.14371 0.0
C10 C 0.94218 0.06588 0.09406 0.0
Eu11 Eu 0.01719 0.13212 0.21312 0.0
N12 N 0.98538 0.15856 0.18228 0.0
C13 C 0.98791 0.18829 0.19143 0.0
C14 C 0.9429 0.1842 0.14895 0.0
C15 C 0.96635 0.20129 0.17623 0.0
H16 H -0.00082 0.06191 0.1589 0.0
H17 H 0.96795 0.22463 0.18495 0.0
H18 H 0.90315 0.14635 0.09178 0.0
H19 H 0.96359 0.03122 0.10284 0.0
H20 H 0.00688 0.20257 0.20918 0.0
H21 H 0.12133 0.07074 0.24365 0.0
H22 H 0.92633 0.19435 0.13713 0.0
H23 H 0.11308 0.24043 0.26404 0.0
H24 H 0.09481 0.09911 0.20623 0.0
H25 H 0.14704 0.26796 0.32516 0.0
H26 H 0.90309 0.09447 0.06711 0.0
H27 H 0.15563 0.09544 0.30602 0.0
H28 H 0.17938 0.14163 0.35608 0.0
H29 H 0.92592 0.05187 0.06999 0.0
H30 H 0.18591 0.19487 0.37859 0.0
N31 N 0.11339 0.14011 0.24634 0.0
C32 C 0.10965 0.11053 0.23295 0.0
C33 C 0.14409 0.10821 0.28942 0.0
C34 C 0.1483 0.13851 0.30279 0.0
C35 C 0.12472 0.0942 0.25431 0.0
C36 C 0.13263 0.15419 0.28019 0.0
H37 H 0.17393 0.24192 0.36748 0.0
N38 N 0.11993 0.19871 0.27203 0.0
C39 C 0.14382 0.24439 0.31694 0.0
C40 C 0.13603 0.18423 0.29327 0.0
C41 C 0.12446 0.22862 0.28247 0.0
C42 C 0.15913 0.22963 0.34055 0.0
C43 C 0.1556 0.19928 0.32868 0.0
O44 O 0.12003 0.20655 0.19833 0.0
O45 O 0.04565 0.15529 0.17127 0.0
O46 O 0.04012 0.10221 0.17111 0.0
O47 O 0.08122 0.13199 0.15665 0.0
O48 O 0.06603 0.19824 0.17762 0.0
O49 O 0.12463 0.16243 0.17521 0.0
O50 O 0.00925 0.08964 0.23049 0.0
O51 O 0.06318 0.14039 0.24546 0.0
O52 O 0.06843 0.19973 0.25654 0.0
O53 O 0.02009 0.17584 0.25633 0.0
O54 O 0.03068 0.1417 0.28301 0.0
O55 O 0.97707 0.11651 0.23829 0.0
C56 C 0.04453 0.17831 0.15664 0.0
C57 C 0.1376 0.19771 0.13412 0.0
C58 C 0.15122 0.18574 0.06501 0.0
C59 C 0.14853 0.17923 0.10421 0.0
C60 C 0.14287 0.2109 0.05597 0.0
C61 C 0.12983 0.22303 0.12462 0.0
C62 C 0.1319 0.22912 0.0855 0.0
C63 C 0.06166 0.10709 0.14862 0.0
C64 C 0.13336 0.19009 0.17452 0.0
C65 C 0.17105 0.18368 0.35116 0.0
C66 C 0.16737 0.15339 0.3383 0.0
C67 C 0.05826 0.14403 0.28344 0.0
C68 C 0.98028 0.08324 0.28417 0.0
C69 C 0.97081 0.10054 0.31754 0.0
C70 C 0.96703 0.09039 0.35456 0.0
C71 C 0.97246 0.06276 0.35743 0.0
C72 C 0.98531 0.05568 0.28805 0.0
C73 C 0.98145 0.04558 0.32439 0.0
C74 C 0.04261 0.19814 0.27006 0.0
C75 C 0.98484 0.0926 0.24462 0.0
H76 H 0.15419 0.15944 0.11096 0.0
H77 H 0.14342 0.21569 1.02536 0.0
H78 H 0.12122 0.23772 0.14686 0.0
H79 H 0.12399 0.24744 0.07765 0.0
H80 H 0.96694 0.1219 0.3151 0.0
H81 H 0.96945 0.05426 0.38522 0.0
H82 H 0.99227 0.04186 0.26278 0.0
H83 H 0.98542 0.0243 0.32696 0.0
Eu84 Eu 0.15016 0.79995 0.31253 0.0
C85 C 0.21377 0.69756 0.32832 0.0
C86 C 0.1847 0.65335 0.284 0.0
C87 C 0.23704 0.65918 0.29706 0.0
C88 C 0.18699 0.68131 0.3089 0.0
C89 C 0.23908 0.68662 0.32286 0.0
C90 C 0.2099 0.64257 0.27771 0.0
C91 C 0.26642 0.73033 0.3698 0.0
N92 N 0.21499 0.72408 0.35291 0.0
C93 C 0.24072 0.74024 0.37437 0.0
C94 C 0.26564 0.70349 0.34375 0.0
Eu95 Eu 0.17051 0.73955 0.35782 0.0
N96 N 0.16304 0.69229 0.31574 0.0
C97 C 0.13601 0.67559 0.30121 0.0
C98 C 0.15707 0.6368 0.26696 0.0
C99 C 0.1326 0.64783 0.27606 0.0
H100 H 0.2416 0.76111 0.39432 0.0
H101 H 0.11109 0.63494 0.26386 0.0
H102 H 0.20859 0.62122 0.25846 0.0
H103 H 0.28682 0.74341 0.38635 0.0
H104 H 0.11699 0.68377 0.30867 0.0
H105 H 0.24183 0.88352 0.4005 0.0
H106 H 0.15437 0.61523 0.24763 0.0
H107 H 0.0801 0.80306 0.29842 0.0
H108 H 0.21823 0.83863 0.35034 0.0
H109 H 0.04713 0.83364 0.32778 0.0
H110 H 0.25626 0.65046 0.2923 0.0
H111 H 0.21216 0.91473 0.43727 0.0
H112 H 0.16285 0.92446 0.44811 0.0
H113 H 0.28559 0.69587 0.34029 0.0
H114 H 0.10991 0.9108 0.42866 0.0
N115 N 0.17524 0.84396 0.35815 0.0
C116 C 0.20484 0.85204 0.36557 0.0
C117 C 0.20158 0.89504 0.41502 0.0
C118 C 0.17132 0.8872 0.40632 0.0
C119 C 0.2184 0.87751 0.39425 0.0
C120 C 0.15863 0.86127 0.37719 0.0
H121 H 0.06662 0.87722 0.3835 0.0
N122 N 0.11752 0.8288 0.33781 0.0
C123 C 0.07004 0.83937 0.3392 0.0
C124 C 0.12885 0.85341 0.36673 0.0
C125 C 0.08873 0.8222 0.32259 0.0
C126 C 0.08112 0.86391 0.37069 0.0
C127 C 0.11092 0.87148 0.38442 0.0
O128 O 0.12651 0.80584 0.25612 0.0
O129 O 0.15451 0.75339 0.30032 0.0
O130 O 0.20172 0.74951 0.31256 0.0
O131 O 0.19655 0.79532 0.30065 0.0
O132 O 0.11876 0.76254 0.26905 0.0
O133 O 0.17232 0.82502 0.27099 0.0
O134 O 0.18179 0.73713 0.42212 0.0
O135 O 0.1627 0.78482 0.3697 0.0
O136 O 0.11466 0.78199 0.34872 0.0
O137 O 0.12179 0.73484 0.3497 0.0
O138 O 0.19693 0.77865 0.40584 0.0
O139 O 0.14252 0.70912 0.38727 0.0
C140 C 0.13229 0.74217 0.27412 0.0
C141 C 0.14368 0.84976 0.23367 0.0
C142 C 0.13402 0.8775 0.18025 0.0
C143 C 0.13896 0.8514 0.19159 0.0
C144 C 0.13337 0.90148 0.21194 0.0
C145 C 0.1433 0.87423 0.26422 0.0
C146 C 0.13806 0.89982 0.25338 0.0
C147 C 0.21026 0.77327 0.29775 0.0
C148 C 0.1488 0.82259 0.24583 0.0
C149 C 0.12335 0.89681 0.41439 0.0
C150 C 0.1535 0.90462 0.42539 0.0
C151 C 0.18143 0.79734 0.40017 0.0
C152 C 0.16539 0.69179 0.44113 0.0
C153 C 0.15409 0.68688 0.47786 0.0
C154 C 0.15997 0.66365 0.49606 0.0
C155 C 0.17764 0.64588 0.47698 0.0
C156 C 0.18267 0.67354 0.42283 0.0
C157 C 0.18877 0.65078 0.44072 0.0
C158 C 0.10636 0.75524 0.35587 0.0
C159 C 0.15948 0.71615 0.42229 0.0
H160 H 0.13953 0.83258 0.16794 0.0
H161 H 0.12883 0.92157 0.2048 0.0
H162 H 0.14705 0.87356 0.29652 0.0
H163 H 0.13754 0.91849 0.27727 0.0
H164 H 0.14054 0.70087 0.49184 0.0
H165 H 0.18327 0.6283 0.49038 0.0
H166 H 0.1916 0.677 0.39486 0.0
H167 H 0.20233 0.63693 0.42651 0.0
Eu168 Eu 0.49833 0.82967 0.56345 0.0
C169 C 0.62099 0.82844 0.52584 0.0
C170 C 0.61651 0.77649 0.5017 0.0
C171 C 0.65339 0.81074 0.47864 0.0
C172 C 0.60795 0.79998 0.52686 0.0
C173 C 0.64356 0.83408 0.50115 0.0
C174 C 0.63983 0.78198 0.47883 0.0
C175 C 0.64393 0.88549 0.52014 0.0
N176 N 0.61029 0.85056 0.54646 0.0
C177 C 0.62158 0.87892 0.54398 0.0
C178 C 0.65511 0.86299 0.4988 0.0
Eu179 Eu 0.5758 0.83842 0.5921 0.0
N180 N 0.58487 0.79529 0.5485 0.0
C181 C 0.56729 0.76778 0.54095 0.0
C182 C 0.60021 0.74823 0.49785 0.0
C183 C 0.57494 0.74403 0.51639 0.0
H184 H 0.61405 0.89697 0.56108 0.0
H185 H 0.56086 0.72259 0.51084 0.0
H186 H 0.64676 0.76412 0.45983 0.0
H187 H 0.6527 0.90799 0.51856 0.0
H188 H 0.54637 0.76366 0.55141 0.0
H189 H 0.44738 0.88315 0.68855 0.0
H190 H 0.60599 0.72987 0.47846 0.0
H191 H 0.48228 0.75701 0.51375 0.0
H192 H 0.4845 0.87883 0.64137 0.0
H193 H 0.44415 0.71345 0.50906 0.0
H194 H 0.67078 0.8147 0.45983 0.0
H195 H 0.40642 0.84131 0.68534 0.0
H196 H 0.3816 0.78948 0.65376 0.0
H197 H 0.67238 0.86814 0.4802 0.0
H198 H 0.38069 0.74364 0.60498 0.0
N199 N 0.4646 0.83503 0.61129 0.0
C200 C 0.46667 0.86044 0.63954 0.0
C201 C 0.42255 0.83935 0.66432 0.0
C202 C 0.42072 0.81329 0.63568 0.0
C203 C 0.44566 0.863 0.66629 0.0
C204 C 0.44228 0.81177 0.60898 0.0
H205 H 0.40395 0.71512 0.55145 0.0
N206 N 0.46371 0.78473 0.55745 0.0
C207 C 0.44308 0.73376 0.52922 0.0
C208 C 0.44178 0.78593 0.58131 0.0
C209 C 0.4646 0.75894 0.53166 0.0
C210 C 0.42044 0.73478 0.55322 0.0
C211 C 0.41966 0.76094 0.57989 0.0
O212 O 0.46686 0.85694 0.55667 0.0
O213 O 0.54206 0.83243 0.53769 0.0
O214 O 0.56445 0.87707 0.56782 0.0
O215 O 0.52058 0.8766 0.59165 0.0
O216 O 0.50755 0.80148 0.50462 0.0
O217 O 0.48349 0.83753 0.50283 0.0
O218 O 0.60562 0.87823 0.62417 0.0
O219 O 0.53364 0.84404 0.61695 0.0
O220 O 0.50377 0.79418 0.59842 0.0
O221 O 0.5541 0.7974 0.61303 0.0
O222 O 0.56735 0.84615 0.65971 0.0
O223 O 0.61467 0.83651 0.63231 0.0
C224 C 0.53479 0.81218 0.50496 0.0
C225 C 0.47202 0.88442 0.50426 0.0
C226 C 0.48335 0.913 0.45141 0.0
C227 C 0.48217 0.88704 0.46639 0.0
C228 C 0.47497 0.9368 0.47526 0.0
C229 C 0.46334 0.90841 0.52748 0.0
C230 C 0.46513 0.93449 0.5132 0.0
C231 C 0.54335 0.89037 0.57779 0.0
C232 C 0.4683 0.85608 0.5178 0.0
C233 C 0.39784 0.76259 0.60577 0.0
C234 C 0.39836 0.78869 0.63357 0.0
C235 C 0.54042 0.84737 0.65646 0.0
C236 C 0.62916 0.87831 0.68958 0.0
C237 C 0.63013 0.86172 0.72085 0.0
C238 C 0.63559 0.87602 0.76303 0.0
C239 C 0.64027 0.90672 0.77321 0.0
C240 C 0.63464 0.90903 0.7012 0.0
C241 C 0.63995 0.92301 0.74256 0.0
C242 C 0.52636 0.78594 0.61547 0.0
C243 C 0.62182 0.86505 0.64468 0.0
H244 H 0.48756 0.86821 0.44735 0.0
H245 H 0.47539 0.95685 0.46409 0.0
H246 H 0.455 0.90701 0.55658 0.0
H247 H 0.45845 0.95282 0.53135 0.0
H248 H 0.62627 0.83806 0.71264 0.0
H249 H 0.64492 0.91828 0.80514 0.0
H250 H 0.63451 0.92239 0.67809 0.0
H251 H 0.64393 0.94666 0.7509 0.0
Eu252 Eu 0.37133 0.21394 1.00487 0.0
C253 C 0.41844 0.3431 1.02431 0.0
C254 C 0.37987 0.36176 0.05634 0.0
C255 C 0.42936 0.39002 0.07302 0.0
C256 C 0.38915 0.33991 0.0288 0.0
C257 C 0.43874 0.36834 0.04623 0.0
C258 C 0.40002 0.38674 0.07806 0.0
C259 C 0.47648 0.34961 1.01293 0.0
N260 N 0.4273 0.32162 0.99895 0.0
C261 C 0.45574 0.32514 0.99184 0.0
C262 C 0.468 0.37121 0.04056 0.0
Eu263 Eu 0.39093 0.28103 0.96284 0.0
N264 N 0.37005 0.31502 1.00822 0.0
C265 C 0.3417 0.31049 1.01631 0.0
C266 C 0.3507 0.35758 0.06246 0.0
C267 C 0.33165 0.33172 0.04271 0.0
H268 H 0.46265 0.30922 0.96943 0.0
H269 H 0.3092 0.32779 0.04845 0.0
H270 H 0.39316 0.40355 0.09926 0.0
H271 H 0.49895 0.35194 1.00749 0.0
H272 H 0.32626 0.29037 1.00431 0.0
H273 H 0.38529 0.12221 0.88885 0.0
H274 H 0.34284 0.37379 0.08336 0.0
H275 H 0.31312 0.22249 0.05385 0.0
H276 H 0.40043 0.16936 0.93877 0.0
H277 H 0.26232 0.19671 0.05212 0.0
H278 H 0.44466 0.4094 0.09014 0.0
H279 H 0.33442 0.09446 0.88004 0.0
H280 H 0.2844 0.09016 0.90175 0.0
H281 H 0.48414 0.39023 0.05685 0.0
H282 H 0.2511 0.11024 0.94635 0.0
N283 N 0.3584 0.16882 0.95684 0.0
C284 C 0.37813 0.15755 0.93491 0.0
C285 C 0.34092 0.11521 0.90184 0.0
C286 C 0.32108 0.12631 0.92574 0.0
C287 C 0.36966 0.13079 0.90674 0.0
C288 C 0.33066 0.15345 0.95355 0.0
H289 H 0.24267 0.14991 1.00251 0.0
N290 N 0.32208 0.19086 1.0052 0.0
C291 C 0.27604 0.1875 0.03125 0.0
C292 C 0.31198 0.1646 0.97883 0.0
C293 C 0.30487 0.20204 0.03219 0.0
C294 C 0.26503 0.16106 1.00322 0.0
C295 C 0.2831 0.14915 0.97677 0.0
O296 O 0.37675 0.20974 0.06968 0.0
O297 O 0.39082 0.26178 1.01828 0.0
O298 O 0.43172 0.26765 0.98728 0.0
O299 O 0.41735 0.21804 0.98769 0.0
O300 O 0.36413 0.24833 0.05919 0.0
O301 O 0.3954 0.18285 1.02488 0.0
O302 O 0.41937 0.2877 0.91485 0.0
O303 O 0.38705 0.23217 0.95087 0.0
O304 O 0.33076 0.21977 0.96681 0.0
O305 O 0.34208 0.26597 0.94913 0.0
O306 O 0.37024 0.24876 0.90383 0.0
O307 O 0.3838 0.31013 0.92129 0.0
C308 C 0.38137 0.27062 0.05139 0.0
C309 C 0.38151 0.16357 0.08316 0.0
C310 C 0.38864 0.136 0.13785 0.0
C311 C 0.39753 0.16047 0.11955 0.0
C312 C 0.36324 0.11526 0.11942 0.0
C313 C 0.35643 0.14237 0.06574 0.0
C314 C 0.34735 0.11849 0.08383 0.0
C315 C 0.43773 0.24202 0.9905 0.0
C316 C 0.39084 0.18879 0.06333 0.0
C317 C 0.27325 0.12239 0.94854 0.0
C318 C 0.29221 0.11098 0.92309 0.0
C319 C 0.37519 0.22513 0.91375 0.0
C320 C 0.42197 0.33083 0.88659 0.0
C321 C 0.42408 0.32893 0.84408 0.0
C322 C 0.43701 0.3537 0.82922 0.0
C323 C 0.44885 0.38002 0.85771 0.0
C324 C 0.43336 0.35755 0.91418 0.0
C325 C 0.44717 0.38182 0.89985 0.0
C326 C 0.3237 0.24118 0.95006 0.0
C327 C 0.40534 0.3056 0.90068 0.0
H328 H 0.41703 0.17671 0.13305 0.0
H329 H 0.35538 0.09656 0.13282 0.0
H330 H 0.34383 0.14427 0.03807 0.0
H331 H 0.32786 0.10232 0.07016 0.0
H332 H 0.41443 0.3086 0.82245 0.0
H333 H 0.45914 0.39935 0.8473 0.0
H334 H 0.43102 0.35996 0.9466 0.0
H335 H 0.45599 0.40233 0.92139 0.0
Eu336 Eu 0.06192 0.91477 0.82082 0.0
C337 C 0.93762 0.86234 0.80556 0.0
C338 C 0.91198 0.90177 0.81144 0.0
C339 C 0.89321 0.85731 0.75967 0.0
C340 C 0.936 0.89032 0.82354 0.0
C341 C 0.91564 0.84504 0.77447 0.0
C342 C 0.89139 0.8857 0.77814 0.0
C343 C 0.93704 0.80368 0.77951 0.0
N344 N 0.95925 0.85108 0.82122 0.0
C345 C 0.95802 0.82166 0.81063 0.0
C346 C 0.91615 0.81561 0.76053 0.0
Eu347 Eu 0.9976 0.88414 0.86837 0.0
N348 N 0.95584 0.90474 0.85636 0.0
C349 C 0.9498 0.92808 0.88244 0.0
C350 C 0.90825 0.928 0.835 0.0
C351 C 0.92672 0.94068 0.87149 0.0
H352 H 0.97328 0.81183 0.82613 0.0
H353 H 0.92293 0.95987 0.89156 0.0
H354 H 0.87315 0.89439 0.76793 0.0
H355 H 0.93686 0.78059 0.77048 0.0
H356 H 0.96285 0.93729 0.91175 0.0
H357 H 0.15565 0.90738 0.92265 0.0
H358 H 0.8901 0.9375 0.82686 0.0
H359 H 0.04886 0.97199 0.78135 0.0
H360 H 0.10926 0.8891 0.8772 0.0
H361 H 0.07252 0.02326 0.78338 0.0
H362 H 0.87644 0.84455 0.73534 0.0
H363 H 0.18021 0.95961 0.93394 0.0
H364 H 0.18136 0.0092 0.91723 0.0
H365 H 0.89978 0.80164 0.7366 0.0
H366 H 0.15913 0.04046 0.87853 0.0
N367 N 0.10653 0.93078 0.86471 0.0
C368 C 0.11941 0.91202 0.88243 0.0
C369 C 0.1596 0.95177 0.91438 0.0
C370 C 0.14698 0.97061 0.89452 0.0
C371 C 0.14584 0.92228 0.90805 0.0
C372 C 0.12005 0.95932 0.86958 0.0
H373 H 0.11951 0.04526 0.82683 0.0
N374 N 0.08146 0.96525 0.82456 0.0
C375 C 0.08242 0.01054 0.80208 0.0
C376 C 0.10738 0.97701 0.84836 0.0
C377 C 0.06903 0.98144 0.80108 0.0
C378 C 0.10881 0.02299 0.82688 0.0
C379 C 0.12151 0.00634 0.85073 0.0
O380 O 0.06402 0.9096 0.75413 0.0
O381 O 0.01546 0.89089 0.81109 0.0
O382 O 0.01444 0.84964 0.82507 0.0
O383 O 0.06345 0.86946 0.83141 0.0
O384 O 0.02488 0.92149 0.77662 0.0
O385 O 0.09514 0.89499 0.79129 0.0
O386 O 0.00058 0.84779 0.8996 0.0
O387 O 0.04638 0.89569 0.8747 0.0
O388 O 0.05335 0.9528 0.86704 0.0
O389 O 0.00619 0.93451 0.8802 0.0
O390 O 0.02709 0.90949 0.92586 0.0
O391 O 0.97448 0.87835 0.92175 0.0
C392 C 0.0043 0.90147 0.78335 0.0
C393 C 0.1101 0.91056 0.73103 0.0
C394 C 0.13695 0.90609 0.67059 0.0
C395 C 0.11457 0.89451 0.6926 0.0
C396 C 0.15421 0.93413 0.68756 0.0
C397 C 0.12788 0.93829 0.74696 0.0
C398 C 0.14968 0.94998 0.7253 0.0
C399 C 0.04147 0.84665 0.82247 0.0
C400 C 0.08698 0.89848 0.75447 0.0
C401 C 0.14807 0.01789 0.87607 0.0
C402 C 0.16071 1.0001 0.89811 0.0
C403 C 0.05168 0.90798 0.91266 0.0
C404 C 0.96575 0.8329 0.94401 0.0
C405 C 0.96618 0.83592 0.98713 0.0
C406 C 0.94908 0.81437 1.00421 0.0
C407 C 0.93149 0.78971 0.9771 0.0
C408 C 0.948 0.80815 0.91782 0.0
C409 C 0.93102 0.78669 0.93436 0.0
C410 C 0.02988 0.95579 0.88493 0.0
C411 C 0.98451 0.85569 0.92767 0.0
H412 H 0.101 0.87296 0.6803 0.0
H413 H 0.17114 0.94406 0.67139 0.0
H414 H 0.12492 0.95093 0.77619 0.0
H415 H 0.16316 0.97151 0.73784 0.0
H416 H 0.98022 0.85492 1.00733 0.0
H417 H 0.91769 0.77291 0.98885 0.0
H418 H 0.94724 0.80535 0.88473 0.0
H419 H 0.9173 0.76766 0.91392 0.0
Eu420 Eu 0.44011 0.78203 0.10776 0.0
C421 C 0.42338 0.65993 0.14893 0.0
C422 C 0.37463 0.64509 0.16527 0.0
C423 C 0.39721 0.60928 0.12581 0.0
C424 C 0.39947 0.66711 0.16557 0.0
C425 C 0.42297 0.63065 0.13037 0.0
C426 C 0.37304 0.61648 0.14341 0.0
C427 C 0.47464 0.64467 0.12945 0.0
N428 N 0.44819 0.68086 0.15565 0.0
C429 C 0.47406 0.67323 0.14876 0.0
C430 C 0.44889 0.62342 0.11932 0.0
Eu431 Eu 0.44473 0.72981 0.18242 0.0
N432 N 0.40221 0.6947 0.1874 0.0
C433 C 0.38331 0.70025 0.21542 0.0
C434 C 0.35327 0.65193 0.18967 0.0
C435 C 0.35813 0.67936 0.21597 0.0
H436 H 0.49429 0.6892 0.15694 0.0
H437 H 0.34252 0.68444 0.23665 0.0
H438 H 0.35391 0.59941 0.14206 0.0
H439 H 0.49494 0.63906 0.12238 0.0
H440 H 0.387 0.7215 0.23585 0.0
H441 H 0.51382 0.88531 0.18212 0.0
H442 H 0.33392 0.63565 0.19042 0.0
H443 H 0.37128 0.77179 0.05978 0.0
H444 H 0.5002 0.83306 0.1487 0.0
H445 H 0.33233 0.79906 0.05703 0.0
H446 H 0.39631 0.5868 0.11096 0.0
H447 H 0.47622 0.91481 0.18869 0.0
H448 H 0.42426 0.91789 0.17288 0.0
H449 H 0.4495 0.60123 0.10484 0.0
H450 H 0.3749 0.89441 0.13888 0.0
N451 N 0.45518 0.83252 0.13769 0.0
C452 C 0.48355 0.84557 0.15151 0.0
C453 C 0.4701 0.89181 0.17407 0.0
C454 C 0.44133 0.87871 0.15768 0.0
C455 C 0.49139 0.87526 0.17035 0.0
C456 C 0.43448 0.84864 0.13909 0.0
H457 H 0.34057 0.85028 0.09527 0.0
N458 N 0.40123 0.80671 0.101 0.0
C459 C 0.35306 0.80946 0.07519 0.0
C460 C 0.40671 0.83542 0.12002 0.0
C461 C 0.37525 0.79404 0.07694 0.0
C462 C 0.35779 0.83837 0.09682 0.0
C463 C 0.38501 0.85189 0.11896 0.0
O464 O 0.44338 0.76541 0.04137 0.0
O465 O 0.43798 0.73439 0.11411 0.0
O466 O 0.48231 0.73325 0.1419 0.0
O467 O 0.48293 0.78023 0.14143 0.0
O468 O 0.40598 0.7432 0.07472 0.0
O469 O 0.46581 0.80826 0.06923 0.0
O470 O 0.48296 0.72362 0.22134 0.0
O471 O 0.45571 0.7763 0.17151 0.0
O472 O 0.40137 0.78039 0.14339 0.0
O473 O 0.39827 0.73616 0.16693 0.0
O474 O 0.43987 0.77043 0.22632 0.0
O475 O 0.44702 0.73318 0.25026 0.0
C476 C 0.41606 0.72241 0.08687 0.0
C477 C 0.4505 0.80008 0.99579 0.0
C478 C 0.45712 0.81152 0.92534 0.0
C479 C 0.46725 0.80126 0.96123 0.0
C480 C 0.43066 0.82072 0.92592 0.0
C481 C 0.42449 0.80983 0.99364 0.0
C482 C 0.41479 0.81998 0.95937 0.0
C483 C 0.49399 0.75743 0.12962 0.0
C484 C 0.45915 0.78925 0.03459 0.0
C485 C 0.39138 0.88149 0.13902 0.0
C486 C 0.41948 0.89486 0.15837 0.0
C487 C 0.44884 0.7893 0.20464 0.0
C488 C 0.47314 0.70234 0.28212 0.0
C489 C 0.48326 0.70748 0.32623 0.0
C490 C 0.48293 0.68336 0.34784 0.0
C491 C 0.47131 0.65506 0.32399 0.0
C492 C 0.46253 0.67325 0.26153 0.0
C493 C 0.46154 0.65018 0.28204 0.0
C494 C 0.38762 0.75898 0.15968 0.0
C495 C 0.47186 0.72593 0.25623 0.0
H496 H 0.48748 0.7939 0.96196 0.0
H497 H 0.4221 0.82885 0.90011 0.0
H498 H 0.41149 0.80966 1.01884 0.0
H499 H 0.39457 0.82738 0.95868 0.0
H500 H 0.49138 0.72973 0.34316 0.0
H501 H 0.46928 0.63603 0.33793 0.0
H502 H 0.4544 0.66815 0.22913 0.0
H503 H 0.45286 0.628 0.26508 0.0
Eu504 Eu 0.49222 0.13255 0.4873 0.0
C505 C 0.60575 0.08787 0.45025 0.0
C506 C 0.64537 0.12216 0.49562 0.0
C507 C 0.64858 0.07137 0.47362 0.0
C508 C 0.61748 0.11578 0.47305 0.0
C509 C 0.6213 0.06542 0.44989 0.0
C510 C 0.6606 0.09969 0.49643 0.0
C511 C 0.5823 0.03319 0.40128 0.0
N512 N 0.57928 0.08282 0.42774 0.0
C513 C 0.56776 0.05618 0.40246 0.0
C514 C 0.60908 0.03775 0.42534 0.0
Eu515 Eu 0.55584 0.12279 0.43223 0.0
N516 N 0.60239 0.13709 0.47112 0.0
C517 C 0.61495 0.16563 0.48808 0.0
C518 C 0.65749 0.15112 0.5156 0.0
C519 C 0.64238 0.17302 0.51127 0.0
H520 H 0.54702 0.05244 0.38389 0.0
H521 H 0.65189 0.19562 0.52562 0.0
H522 H 0.68195 0.10412 0.51387 0.0
H523 H 0.57284 0.01198 0.38183 0.0
H524 H 0.60363 0.18277 0.48435 0.0
H525 H 0.42493 0.02921 0.39729 0.0
H526 H 0.67883 0.15693 0.53332 0.0
H527 H 0.47628 0.19874 0.50789 0.0
H528 H 0.46644 0.06023 0.44452 0.0
H529 H 0.43844 0.22389 0.48575 0.0
H530 H 0.66078 0.05436 0.47398 0.0
H531 H 0.38653 0.05112 0.36874 0.0
H532 H 0.36654 0.09579 0.36542 0.0
H533 H 0.62031 0.01991 0.42431 0.0
H534 H 0.37031 0.14866 0.38903 0.0
N535 N 0.45207 0.09996 0.44375 0.0
C536 C 0.44985 0.07037 0.43316 0.0
C537 C 0.40471 0.065 0.38985 0.0
C538 C 0.40668 0.09516 0.40149 0.0
C539 C 0.42631 0.05255 0.40597 0.0
C540 C 0.43087 0.11228 0.42896 0.0
H541 H 0.39685 0.19649 0.43407 0.0
N542 N 0.45653 0.15786 0.46841 0.0
C543 C 0.43677 0.20092 0.47291 0.0
C544 C 0.43318 0.1421 0.44169 0.0
C545 C 0.45808 0.18664 0.48541 0.0
C546 C 0.41336 0.18539 0.44372 0.0
C547 C 0.41112 0.15553 0.42811 0.0
O548 O 0.48346 0.1556 0.54685 0.0
O549 O 0.54 0.13466 0.49393 0.0
O550 O 0.54938 0.08791 0.46978 0.0
O551 O 0.50447 0.08886 0.49412 0.0
O552 O 0.52572 0.16841 0.52987 0.0
O553 O 0.47027 0.10849 0.53007 0.0
O554 O 0.55873 0.11378 0.36587 0.0
O555 O 0.50886 0.12401 0.42639 0.0
O556 O 0.50427 0.16985 0.45341 0.0
O557 O 0.55309 0.17046 0.44754 0.0
O558 O 0.51998 0.09216 0.38484 0.0
O559 O 0.58321 0.15444 0.40401 0.0
C560 C 0.5481 0.15777 0.52162 0.0
C561 C 0.44207 0.13357 0.57412 0.0
C562 C 0.4143 0.14165 0.63312 0.0
C563 C 0.44096 0.14008 0.61725 0.0
C564 C 0.38912 0.1371 0.60476 0.0
C565 C 0.41646 0.12877 0.54703 0.0
C566 C 0.39025 0.13065 0.5623 0.0
C567 C 0.52749 0.07706 0.48849 0.0
C568 C 0.46985 0.13199 0.55733 0.0
C569 C 0.38734 0.13869 0.4001 0.0
C570 C 0.38516 0.10858 0.38673 0.0
C571 C 0.49887 0.10449 0.39448 0.0
C572 C 0.60275 0.1349 0.34436 0.0
C573 C 0.60294 0.14075 0.30426 0.0
C574 C 0.62609 0.13621 0.28154 0.0
C575 C 0.64912 0.12621 0.29972 0.0
C576 C 0.62612 0.12519 0.36187 0.0
C577 C 0.64917 0.12094 0.33967 0.0
C578 C 0.52996 0.18192 0.44401 0.0
C579 C 0.57772 0.13789 0.3671 0.0
H580 H 0.46071 0.14351 0.63821 0.0
H581 H 0.36842 0.13893 0.6153 0.0
H582 H 0.41672 0.12356 0.51402 0.0
H583 H 0.37066 0.12717 0.54106 0.0
H584 H 0.58487 0.1481 0.29044 0.0
H585 H 0.66723 0.12268 0.28305 0.0
H586 H 0.6265 0.12074 0.39258 0.0
H587 H 0.66707 0.11336 0.35341 0.0
Eu588 Eu 0.1065 0.17107 0.65629 0.0
C589 C 0.15738 0.29785 0.72971 0.0
C590 C 0.11542 0.31437 0.75458 0.0
C591 C 0.1634 0.3358 0.79194 0.0
C592 C 0.12751 0.2959 0.72567 0.0
C593 C 0.17563 0.31862 0.76214 0.0
C594 C 0.13338 0.3336 0.78826 0.0
C595 C 0.21713 0.3059 0.73161 0.0
N596 N 0.16882 0.28077 0.70085 0.0
C597 C 0.19833 0.28544 0.70034 0.0
C598 C 0.20574 0.3222 0.76305 0.0
Eu599 Eu 0.13473 0.24637 0.64954 0.0
N600 N 0.11047 0.27721 0.69262 0.0
C601 C 0.08164 0.27771 0.68537 0.0
C602 C 0.08572 0.31369 0.74824 0.0
C603 C 0.06893 0.29572 0.71308 0.0
H604 H 0.20725 0.27252 0.67632 0.0
H605 H 0.04608 0.2956 0.70731 0.0
H606 H 0.12435 0.34755 0.81097 0.0
H607 H 0.24039 0.30892 0.7316 0.0
H608 H 0.06778 0.26426 0.6587 0.0
H609 H 0.21796 0.1593 0.63102 0.0
H610 H 0.0757 0.32753 0.76971 0.0
H611 H 0.04339 0.13325 0.59898 0.0
H612 H 0.18165 0.1847 0.6576 0.0
H613 H 0.02584 0.0893 0.54436 0.0
H614 H 0.17706 0.35146 0.81737 0.0
H615 H 0.20306 0.11202 0.58156 0.0
H616 H 0.16342 0.07358 0.53785 0.0
H617 H 0.22038 0.33797 0.78737 0.0
H618 H 0.11156 0.05517 0.51331 0.0
N619 N 0.14513 0.15098 0.62844 0.0
C620 C 0.17412 0.16335 0.63864 0.0
C621 C 0.18666 0.12272 0.59436 0.0
C622 C 0.15717 0.11093 0.58174 0.0
C623 C 0.19515 0.14929 0.62241 0.0
C624 C 0.13657 0.12578 0.59923 0.0
H625 H 0.0605 0.06118 0.5148 0.0
N626 N 0.08788 0.13094 0.60026 0.0
C627 C 0.04878 0.0964 0.55538 0.0
C628 C 0.10724 0.11547 0.58495 0.0
C629 C 0.05887 0.12141 0.58636 0.0
C630 C 0.06839 0.08057 0.53889 0.0
C631 C 0.09795 0.08998 0.55353 0.0
O632 O 0.06813 0.14457 0.6727 0.0
O633 O 0.11435 0.2182 0.69169 0.0
O634 O 0.1648 0.23438 0.69924 0.0
O635 O 0.1455 0.18655 0.70623 0.0
O636 O 0.07593 0.19226 0.69667 0.0
O637 O 0.11072 0.13617 0.68927 0.0
O638 O 0.16449 0.27798 0.62538 0.0
O639 O 0.12444 0.19986 0.61411 0.0
O640 O 0.07904 0.1806 0.60307 0.0
O641 O 0.08784 0.23116 0.61883 0.0
O642 O 0.16068 0.22412 0.60159 0.0
O643 O 0.11877 0.2715 0.60584 0.0
C644 C 0.09172 0.21819 0.70992 0.0
C645 C 0.07294 0.12184 0.72972 0.0
C646 C 0.08307 0.11134 0.79806 0.0
C647 C 0.09273 0.11884 0.76177 0.0
C648 C 0.05312 0.10607 0.80131 0.0
C649 C 0.04314 0.11619 0.73352 0.0
C650 C 0.03335 0.10825 0.76908 0.0
C651 C 0.16477 0.21176 0.71774 0.0
C652 C 0.08277 0.129 0.69119 0.0
C653 C 0.11835 0.0748 0.53726 0.0
C654 C 0.14787 0.08525 0.5513 0.0
C655 C 0.14284 0.19909 0.58855 0.0
C656 C 0.15201 0.28215 0.55654 0.0
C657 C 0.13513 0.29169 0.52653 0.0
C658 C 0.14243 0.28966 0.48566 0.0
C659 C 0.16704 0.27867 0.47583 0.0
C660 C 0.17699 0.27224 0.54547 0.0
C661 C 0.18423 0.27037 0.50554 0.0
C662 C 0.07429 0.20564 0.59546 0.0
C663 C 0.14494 0.28348 0.59978 0.0
H664 H 0.11563 0.12229 0.75844 0.0
H665 H 0.0449 0.10094 0.82913 0.0
H666 H 0.02735 0.11775 0.70887 0.0
H667 H 0.01038 0.10396 0.77184 0.0
H668 H 0.11666 0.30066 0.53495 0.0
H669 H 0.17368 0.27737 0.44524 0.0
H670 H 0.19113 0.26563 0.56759 0.0
H671 H 0.20337 0.26244 0.49758 0.0
Eu672 Eu 0.94063 0.28997 0.60252 0.0
C673 C 0.95462 0.17608 0.65042 0.0
C674 C 0.90405 0.15094 0.64097 0.0
C675 C 0.94096 0.12315 0.62556 0.0
C676 C 0.9257 0.17711 0.65247 0.0
C677 C 0.96242 0.149 0.63697 0.0
C678 C 0.91184 0.12413 0.62752 0.0
C679 C 0.0123 0.17478 0.64602 0.0
N680 N 0.97517 0.20142 0.66065 0.0
C681 C 0.00387 0.20095 0.66017 0.0
C682 C 0.99161 0.14867 0.63471 0.0
Eu683 Eu 0.95893 0.24493 0.68274 0.0
N684 N 0.91864 0.20346 0.66524 0.0
C685 C 0.89013 0.20445 0.66844 0.0
C686 C 0.87507 0.15232 0.64328 0.0
C687 C 0.86814 0.17917 0.65728 0.0
H688 H 0.0203 0.22094 0.66962 0.0
H689 H 0.84576 0.18044 0.65976 0.0
H690 H 0.89547 0.10396 0.61857 0.0
H691 H 0.0347 0.17479 0.6434 0.0
H692 H 0.88334 0.2242 0.67985 0.0
H693 H 0.00652 0.4001 0.662 0.0
H694 H 0.85792 0.13276 0.6347 0.0
H695 H 0.87088 0.26986 0.55979 0.0
H696 H 0.99729 0.34669 0.63741 0.0
H697 H 0.82848 0.29201 0.55091 0.0
H698 H 0.94665 0.10228 0.61504 0.0
H699 H 0.96573 0.4256 0.66206 0.0
H700 H 0.91252 0.42293 0.64405 0.0
H701 H -0.0017 0.12834 0.62423 0.0
H702 H 0.86414 0.39358 0.61351 0.0
N703 N 0.95149 0.34154 0.62529 0.0
C704 C 0.97921 0.35739 0.6375 0.0
C705 C 0.9615 0.40205 0.65145 0.0
C706 C 0.93336 0.38591 0.63661 0.0
C707 C 0.98458 0.38776 0.6514 0.0
C708 C 0.92903 0.35529 0.6233 0.0
H709 H 0.83271 0.34487 0.57818 0.0
N710 N 0.89881 0.30958 0.59272 0.0
C711 C 0.84895 0.30541 0.56678 0.0
C712 C 0.90187 0.33883 0.60629 0.0
C713 C 0.87306 0.29291 0.57193 0.0
C714 C 0.85142 0.33524 0.58224 0.0
C715 C 0.87818 0.35243 0.60187 0.0
O716 O 0.93337 0.27491 0.5345 0.0
O717 O 0.94441 0.24552 0.61597 0.0
O718 O 0.99137 0.24858 0.63449 0.0
O719 O 0.98812 0.2935 0.62112 0.0
O720 O 0.91083 0.24618 0.57332 0.0
O721 O 0.96934 0.30966 0.56076 0.0
O722 O 0.9916 0.24506 0.73488 0.0
O723 O 0.95687 0.28888 0.66881 0.0
O724 O 0.90522 0.2897 0.64503 0.0
O725 O 0.91954 0.26488 0.69635 0.0
O726 O 0.98924 0.28815 0.71397 0.0
O727 O 0.94681 0.23525 0.74288 0.0
C728 C 0.92356 0.22909 0.59071 0.0
C729 C 0.95036 0.30772 0.48966 0.0
C730 C 0.95871 0.31733 0.41892 0.0
C731 C 0.96569 0.30451 0.4537 0.0
C732 C 0.9367 0.33332 0.4218 0.0
C733 C 0.92894 0.32428 0.49015 0.0
C734 C 0.92228 0.33687 0.45677 0.0
C735 C -0.00019 0.27065 0.61551 0.0
C736 C 0.95523 0.2934 0.52629 0.0
C737 C 0.88212 0.38276 0.61633 0.0
C738 C 0.90966 0.39947 0.63373 0.0
C739 C 0.97684 0.30511 0.6957 0.0
C740 C 0.97909 0.21488 0.78595 0.0
C741 C 0.98447 0.2197 0.831 0.0
C742 C 0.98947 0.19638 0.85195 0.0
C743 C 0.9895 0.16929 0.82645 0.0
C744 C 0.97948 0.187 0.76377 0.0
C745 C 0.98465 0.16478 0.78352 0.0
C746 C 0.90175 0.27936 0.6794 0.0
C747 C 0.97326 0.23774 0.76054 0.0
H748 H 0.98234 0.29179 0.45251 0.0
H749 H 0.93068 0.34349 0.39668 0.0
H750 H 0.91703 0.32731 0.51648 0.0
H751 H 0.90554 0.34946 0.45792 0.0
H752 H 0.9844 0.24099 0.8493 0.0
H753 H 0.99348 0.15113 0.83991 0.0
H754 H 0.97572 0.18215 0.73056 0.0
H755 H 0.98474 0.14355 0.7651 0.0
Eu756 Eu 0.59572 0.69885 0.15343 0.0
C757 C 0.6458 0.81962 0.23897 0.0
C758 C 0.60071 0.83662 0.23607 0.0
C759 C 0.63866 0.85892 0.29306 0.0
C760 C 0.61844 0.81808 0.21851 0.0
C761 C 0.65614 0.84031 0.27629 0.0
C762 C 0.61102 0.85702 0.27309 0.0
C763 C 0.70084 0.82329 0.27817 0.0
N764 N 0.6621 0.80068 0.22323 0.0
C765 C 0.6898 0.80314 0.24141 0.0
C766 C 0.68384 0.84176 0.29593 0.0
Eu767 Eu 0.64266 0.76897 0.15891 0.0
N768 N 0.60859 0.79781 0.18277 0.0
C769 C 0.58057 0.79435 0.16482 0.0
C770 C 0.57272 0.83373 0.21663 0.0
C771 C 0.56253 0.81227 0.18127 0.0
H772 H 0.7037 0.78952 0.22783 0.0
H773 H 0.54047 0.80916 0.16713 0.0
H774 H 0.59762 0.87131 0.28677 0.0
H775 H 0.72254 0.82461 0.29268 0.0
H776 H 0.57093 0.77704 0.13897 0.0
H777 H 0.67577 0.63126 0.12324 0.0
H778 H 0.55852 0.84746 0.22927 0.0
H779 H 0.52973 0.6937 0.1012 0.0
H780 H 0.65918 0.67495 0.1547 0.0
H781 H 0.49797 0.66118 0.04114 0.0
H782 H 0.64627 0.87477 0.32169 0.0
H783 H 0.64337 0.59316 0.06925 0.0
H784 H 0.59634 0.57656 1.02271 0.0
H785 H 0.69244 0.85732 0.32454 0.0
H786 H 0.54915 0.58568 0.99851 0.0
N787 N 0.61712 0.66167 0.12009 0.0
C788 C 0.6445 0.65852 0.1317 0.0
C789 C 0.63571 0.61222 0.08334 0.0
C790 C 0.60804 0.61602 0.07044 0.0
C791 C 0.65411 0.63373 0.11371 0.0
C792 C 0.5991 0.64132 0.08966 0.0
H793 H 0.51281 0.61751 1.00406 0.0
N794 N 0.56413 0.67106 0.09446 0.0
C795 C 0.51866 0.65667 0.05056 0.0
C796 C 0.57238 0.64656 0.07573 0.0
C797 C 0.53688 0.67528 0.08411 0.0
C798 C 0.52725 0.63216 0.02969 0.0
C799 C 0.55409 0.62649 0.0427 0.0
O800 O 0.55381 0.68054 0.17142 0.0
O801 O 0.61349 0.7429 0.19751 0.0
O802 O 0.66695 0.74559 0.19944 0.0
O803 O 0.63424 0.70244 0.2027 0.0
O804 O 0.56918 0.72789 0.18894 0.0
O805 O 0.59115 0.66095 0.18256 0.0
O806 O 0.68755 0.78821 0.15378 0.0
O807 O 0.63098 0.722 0.12361 0.0
O808 O 0.58347 0.71653 0.09633 0.0
O809 O 0.60881 0.76492 0.10519 0.0
O810 O 0.65983 0.74858 0.09992 0.0
O811 O 0.65299 0.80888 0.13439 0.0
C812 C 0.59009 0.74731 0.21196 0.0
C813 C 0.54944 0.64631 0.21589 0.0
C814 C 0.5484 0.63942 0.28637 0.0
C815 C 0.56137 0.65427 0.2575 0.0
C816 C 0.52307 0.61744 0.27369 0.0
C817 C 0.52427 0.62412 0.2036 0.0
C818 C 0.51096 0.61001 0.23246 0.0
C819 C 0.65947 0.72157 0.21436 0.0
C820 C 0.56331 0.6592 0.18385 0.0
C821 C 0.56293 0.60128 1.02389 0.0
C822 C 0.58974 0.59599 0.03784 0.0
C823 C 0.6444 0.72231 0.09136 0.0
C824 C 0.69548 0.81374 0.09935 0.0
C825 C 0.68053 0.81498 0.0611 0.0
C826 C 0.69607 0.82033 0.02767 0.0
C827 C 0.72653 0.82453 0.03341 0.0
C828 C 0.72584 0.81805 0.10372 0.0
C829 C 0.74118 0.82332 0.071 0.0
C830 C 0.58999 0.74166 0.08386 0.0
C831 C 0.68065 0.8086 0.13576 0.0
H832 H 0.58109 0.67107 0.26705 0.0
H833 H 0.5128 0.60596 0.29572 0.0
H834 H 0.51525 0.61719 0.17146 0.0
H835 H 0.49153 0.59294 0.22272 0.0
H836 H 0.65709 0.8116 0.05728 0.0
H837 H 0.73928 0.82941 1.00902 0.0
H838 H 0.7378 0.81745 0.13275 0.0
H839 H 0.76461 0.82675 0.07491 0.0
Eu840 Eu 0.66131 0.31509 0.82458 0.0
C841 C 0.7227 0.21084 0.83758 0.0
C842 C 0.69509 0.17043 0.78497 0.0
C843 C 0.74644 0.17352 0.80429 0.0
C844 C 0.69691 0.19697 0.81322 0.0
C845 C 0.74755 0.19879 0.8344 0.0
C846 C 0.72023 0.15936 0.77956 0.0
C847 C 0.77141 0.23528 0.8944 0.0
N848 N 0.72278 0.23485 0.86684 0.0
C849 C 0.74622 0.24645 0.89623 0.0
C850 C 0.7723 0.21172 0.86283 0.0
Eu851 Eu 0.67963 0.25309 0.86753 0.0
N852 N 0.67294 0.20781 0.82024 0.0
C853 C 0.64609 0.19146 0.80381 0.0
C854 C 0.66779 0.15503 0.7648 0.0
C855 C 0.6431 0.16525 0.77504 0.0
H856 H 0.74576 0.26478 0.92054 0.0
H857 H 0.62175 0.15289 0.76098 0.0
H858 H 0.71935 0.1392 0.75762 0.0
H859 H 0.79017 0.24494 0.9172 0.0
H860 H 0.62688 0.19894 0.81222 0.0
H861 H 0.74912 0.39835 0.92174 0.0
H862 H 0.66543 0.13457 0.74285 0.0
H863 H 0.59153 0.31707 0.8038 0.0
H864 H 0.72784 0.35379 0.86942 0.0
H865 H 0.55684 0.34682 0.82954 0.0
H866 H 0.7654 0.16412 0.80099 0.0
H867 H 0.71741 0.42874 0.95508 0.0
H868 H 0.66724 0.43777 0.96057 0.0
H869 H 0.79181 0.20307 0.86153 0.0
H870 H 0.61496 0.42368 0.93579 0.0
N871 N 0.68425 0.35857 0.87276 0.0
C872 C 0.71365 0.36689 0.88319 0.0
C873 C 0.70789 0.40921 0.93189 0.0
C874 C 0.67788 0.40113 0.92006 0.0
C875 C 0.72586 0.39215 0.91307 0.0
C876 C 0.66658 0.37544 0.88984 0.0
H877 H 0.57366 0.39003 0.88665 0.0
N878 N 0.62716 0.3429 0.84659 0.0
C879 C 0.57932 0.35274 0.84316 0.0
C880 C 0.63713 0.36732 0.87637 0.0
C881 C 0.59896 0.33603 0.82861 0.0
C882 C 0.58889 0.37708 0.87544 0.0
C883 C 0.6182 0.38491 0.89207 0.0
O884 O 0.64071 0.31972 0.76537 0.0
O885 O 0.6667 0.26858 0.80945 0.0
O886 O 0.71824 0.26965 0.83658 0.0
O887 O 0.70797 0.31149 0.81563 0.0
O888 O 0.63029 0.27874 0.78002 0.0
O889 O 0.68456 0.34377 0.78813 0.0
O890 O 0.68624 0.24964 0.93234 0.0
O891 O 0.67197 0.29833 0.8809 0.0
O892 O 0.62499 0.29717 0.85908 0.0
O893 O 0.63091 0.24938 0.85681 0.0
O894 O 0.70461 0.29075 0.91875 0.0
O895 O 0.65015 0.22061 0.89175 0.0
C896 C 0.64432 0.2584 0.78291 0.0
C897 C 0.65561 0.36478 0.74504 0.0
C898 C 0.643 0.38839 0.68809 0.0
C899 C 0.65101 0.36446 0.70244 0.0
C900 C 0.63989 0.41263 0.71761 0.0
C901 C 0.65259 0.38933 0.77354 0.0
C902 C 0.64481 0.41308 0.75982 0.0
C903 C 0.72511 0.293 0.82017 0.0
C904 C 0.66265 0.33904 0.75924 0.0
C905 C 0.6292 0.41004 0.92304 0.0
C906 C 0.65898 0.41809 0.93708 0.0
C907 C 0.68988 0.30998 0.91266 0.0
C908 C 0.67027 0.20292 0.94713 0.0
C909 C 0.65974 0.19861 0.98447 0.0
C910 C 0.66541 0.17531 1.00258 0.0
C911 C 0.68207 0.15674 0.98265 0.0
C912 C 0.68645 0.18386 0.92782 0.0
C913 C 0.69236 0.16097 0.94559 0.0
C914 C 0.61588 0.27006 0.8643 0.0
C915 C 0.66452 0.22743 0.92866 0.0
H916 H 0.65379 0.34554 0.68067 0.0
H917 H 0.63303 0.43111 0.70826 0.0
H918 H 0.6561 0.39007 0.80635 0.0
H919 H 0.64225 0.43185 0.78204 0.0
H920 H 0.64692 0.21318 0.99902 0.0
H921 H 0.68757 0.13908 0.99594 0.0
H922 H 0.69458 0.18672 0.89909 0.0
H923 H 0.70509 0.14649 0.93066 0.0
Eu924 Eu 0.8633 0.70768 0.49601 0.0
C925 C 0.91636 0.83514 0.51047 0.0
C926 C 0.87942 0.85713 0.54197 0.0
C927 C 0.92991 0.88261 0.55789 0.0
C928 C 0.88728 0.83393 0.5151 0.0
C929 C 0.93787 0.85966 0.5316 0.0
C930 C 0.90078 0.88135 0.56304 0.0
C931 C 0.97394 0.83784 0.49833 0.0
N932 N 0.92382 0.81249 0.48558 0.0
C933 C 0.95203 0.81413 0.47801 0.0
C934 C 0.96688 0.86059 0.52559 0.0
Eu935 Eu 0.88562 0.77303 0.45139 0.0
N936 N 0.86693 0.80978 0.49512 0.0
C937 C 0.83862 0.80742 0.50303 0.0
C938 C 0.85037 0.85509 0.54801 0.0
C939 C 0.82999 0.83003 0.52877 0.0
H940 H 0.95785 0.79719 0.45594 0.0
H941 H 0.80755 0.8278 0.5344 0.0
H942 H 0.89501 0.89915 0.58377 0.0
H943 H 0.99622 0.83865 0.49261 0.0
H944 H 0.8221 0.78806 0.49137 0.0
H945 H 0.87429 0.61393 0.38113 0.0
H946 H 0.84358 0.87238 0.5684 0.0
H947 H 0.80596 0.71853 0.54558 0.0
H948 H 0.89083 0.66116 0.43054 0.0
H949 H 0.75479 0.69422 0.54479 0.0
H950 H 0.94615 0.90145 0.57443 0.0
H951 H 0.82289 0.58774 0.37281 0.0
H952 H 0.7731 0.58531 0.39489 0.0
H953 H 0.98391 0.87902 0.54128 0.0
H954 H 0.74073 0.60695 0.43963 0.0
N955 N 0.84904 0.66233 0.44862 0.0
C956 C 0.8683 0.65009 0.42681 0.0
C957 C 0.83 0.60857 0.39431 0.0
C958 C 0.81064 0.62063 0.41816 0.0
C959 C 0.85903 0.62326 0.39894 0.0
C960 C 0.821 0.64784 0.44558 0.0
H961 H 0.73374 0.64748 0.49571 0.0
N962 N 0.8137 0.68617 0.49687 0.0
C963 C 0.76804 0.68442 0.52369 0.0
C964 C 0.80282 0.65992 0.4708 0.0
C965 C 0.79706 0.69813 0.52408 0.0
C966 C 0.75623 0.65801 0.49595 0.0
C967 C 0.7737 0.64531 0.46925 0.0
O968 O 0.86871 0.70472 0.5613 0.0
O969 O 0.88425 0.75509 0.50784 0.0
O970 O 0.92503 0.75893 0.47904 0.0
O971 O 0.90915 0.70959 0.47931 0.0
O972 O 0.85714 0.74359 0.54915 0.0
O973 O 0.88551 0.67559 0.51703 0.0
O974 O 0.91373 0.77496 0.40219 0.0
O975 O 0.88001 0.72403 0.44112 0.0
O976 O 0.82331 0.71458 0.45806 0.0
O977 O 0.83644 0.75997 0.43843 0.0
O978 O 0.86273 0.74041 0.39402 0.0
O979 O 0.88203 0.80227 0.4086 0.0
C980 C 0.87504 0.76513 0.5406 0.0
C981 C 0.871 0.65845 0.5765 0.0
C982 C 0.87713 0.63135 0.63198 0.0
C983 C 0.88718 0.65485 0.61238 0.0
C984 C 0.85044 0.6121 0.61533 0.0
C985 C 0.84464 0.63872 0.56078 0.0
C986 C 0.83443 0.6158 0.58016 0.0
C987 C 0.93015 0.73309 0.48285 0.0
C988 C 0.88148 0.68274 0.55553 0.0
C989 C 0.76308 0.61848 0.44141 0.0
C990 C 0.7815 0.60617 0.4159 0.0
C991 C 0.86752 0.71681 0.40432 0.0
C992 C 0.92121 0.81689 0.37108 0.0
C993 C 0.92405 0.81211 0.32853 0.0
C994 C 0.94083 0.83396 0.31153 0.0
C995 C 0.95554 0.86021 0.33838 0.0
C996 C 0.93517 0.84373 0.39663 0.0
C997 C 0.95263 0.865 0.38044 0.0
C998 C 0.81718 0.736 0.44057 0.0
C999 C 0.90217 0.79427 0.3874 0.0
H1000 H 0.90767 0.66994 0.62449 0.0
H1001 H 0.84167 0.59423 0.6298 0.0
H1002 H 0.83192 0.64102 0.53349 0.0
H1003 H 0.81395 0.60079 0.56784 0.0
H1004 H 0.91234 0.79178 0.30856 0.0
H1005 H 0.96924 0.87721 0.32688 0.0
H1006 H 0.93231 0.84849 0.4289 0.0
H1007 H 0.96366 0.88552 0.40051 0.0
Eu1008 Eu 0.58572 0.67989 0.71817 0.0
C1009 C 0.49046 0.5993 0.61589 0.0
C1010 C 0.46222 0.63341 0.59705 0.0
C1011 C 0.46469 0.59047 0.54644 0.0
C1012 C 0.48047 0.62493 0.62654 0.0
C1013 C 0.48182 0.58141 0.57601 0.0
C1014 C 0.45492 0.61639 0.55693 0.0
C1015 C 0.50418 0.54481 0.5987 0.0
N1016 N 0.50717 0.59093 0.64488 0.0
C1017 C 0.51223 0.56318 0.63762 0.0
C1018 C 0.48964 0.5543 0.56737 0.0
Eu1019 Eu 0.52037 0.62409 0.70997 0.0
N1020 N 0.48836 0.64153 0.66542 0.0
C1021 C 0.4778 0.66627 0.67663 0.0
C1022 C 0.4518 0.65882 0.6086 0.0
C1023 C 0.45943 0.67514 0.64864 0.0
H1024 H 0.52265 0.55497 0.66181 0.0
H1025 H 0.45131 0.69476 0.65789 0.0
H1026 H 0.44131 0.62286 0.53393 0.0
H1027 H 0.509 0.52322 0.59306 0.0
H1028 H 0.4837 0.67993 0.70663 0.0
H1029 H 0.64929 0.61213 0.78619 0.0
H1030 H 0.43782 0.66602 0.58687 0.0
H1031 H 0.58434 0.75097 0.74906 0.0
H1032 H 0.61515 0.62296 0.73388 0.0
H1033 H 0.60291 0.79066 0.8106 0.0
H1034 H 0.45824 0.57717 0.51562 0.0
H1035 H 0.6708 0.6499 0.84858 0.0
H1036 H 0.67484 0.70051 0.88998 0.0
H1037 H 0.48338 0.53998 0.53723 0.0
H1038 H 0.66112 0.74825 0.8975 0.0
N1039 N 0.61714 0.66629 0.76632 0.0
C1040 C 0.62437 0.63958 0.76087 0.0
C1041 C 0.65598 0.65485 0.82553 0.0
C1042 C 0.64883 0.68237 0.8306 0.0
C1043 C 0.6438 0.63343 0.79042 0.0
C1044 C 0.62937 0.68773 0.79973 0.0
H1045 H 0.63266 0.78091 0.86937 0.0
N1046 N 0.60289 0.71966 0.77399 0.0
C1047 C 0.60832 0.76945 0.8091 0.0
C1048 C 0.62178 0.7149 0.80388 0.0
C1049 C 0.59778 0.74702 0.77454 0.0
C1050 C 0.62541 0.76405 0.84199 0.0
C1051 C 0.63332 0.73702 0.83904 0.0
O1052 O 0.60792 0.71519 0.69094 0.0
O1053 O 0.54688 0.65404 0.67199 0.0
O1054 O 0.55651 0.6014 0.69067 0.0
O1055 O 0.58737 0.63897 0.6705 0.0
O1056 O 0.55773 0.69925 0.67652 0.0
O1057 O 0.62941 0.68052 0.70236 0.0
O1058 O 0.50154 0.58097 0.7208 0.0
O1059 O 0.56186 0.64782 0.7501 0.0
O1060 O 0.55576 0.699 0.76086 0.0
O1061 O 0.51265 0.66356 0.75252 0.0
O1062 O 0.53582 0.61974 0.77664 0.0
O1063 O 0.47707 0.61533 0.7295 0.0
C1064 C 0.54123 0.67513 0.6553 0.0
C1065 C 0.64474 0.70478 0.65026 0.0
C1066 C 0.64319 0.69007 0.57589 0.0
C1067 C 0.62937 0.69033 0.61174 0.0
C1068 C 0.67258 0.70428 0.5793 0.0
C1069 C 0.67395 0.71884 0.65315 0.0
C1070 C 0.68781 0.71854 0.61774 0.0
C1071 C 0.57652 0.61074 0.66789 0.0
C1072 C 0.63125 0.7045 0.68814 0.0
C1073 C 0.65227 0.73154 0.87011 0.0
C1074 C 0.66014 0.70437 0.86578 0.0
C1075 C 0.55962 0.63933 0.78434 0.0
C1076 C 0.46835 0.57848 0.77034 0.0
C1077 C 0.46079 0.59719 0.80412 0.0
C1078 C 0.45134 0.58606 0.83852 0.0
C1079 C 0.44927 0.55613 0.83828 0.0
C1080 C 0.46588 0.54872 0.77116 0.0
C1081 C 0.45644 0.53769 0.80487 0.0
C1082 C 0.52924 0.6893 0.76996 0.0
C1083 C 0.47822 0.58868 0.73326 0.0
H1084 H 0.60684 0.67925 0.60983 0.0
H1085 H 0.68363 0.70498 0.55214 0.0
H1086 H 0.68607 0.72993 0.68284 0.0
H1087 H 0.71035 0.72953 0.62007 0.0
H1088 H 0.46265 0.62023 0.804 0.0
H1089 H 0.44172 0.54684 0.86385 0.0
H1090 H 0.47121 0.53387 0.74549 0.0
H1091 H 0.4546 0.51467 0.80506 0.0
Eu1092 Eu 0.00083 0.31113 0.04821 0.0
C1093 C 0.10942 0.34803 1.00335 0.0
C1094 C 0.14839 0.32216 1.00936 0.0
C1095 C 0.14209 0.34474 0.95046 0.0
C1096 C 0.12404 0.33162 1.02449 0.0
C1097 C 0.11812 0.35434 0.96565 0.0
C1098 C 0.15728 0.32882 0.97237 0.0
C1099 C 0.07787 0.37778 0.95889 0.0
N1100 N 0.08596 0.35665 1.01844 0.0
C1101 C 0.07001 0.37106 0.99613 0.0
C1102 C 0.10214 0.36958 0.94369 0.0
Eu1103 Eu 0.07484 0.34445 0.0834 0.0
N1104 N 0.11436 0.3245 0.05941 0.0
C1105 C 0.12913 0.30916 0.08157 0.0
C1106 C 0.16328 0.30636 0.03191 0.0
C1107 C 0.15388 0.30028 0.06852 0.0
H1108 H 0.05035 0.3765 1.00536 0.0
H1109 H 0.16578 0.28881 0.08685 0.0
H1110 H 0.1758 0.3216 0.96031 0.0
H1111 H 0.06487 0.38897 0.94163 0.0
H1112 H 0.12256 0.30469 0.11037 0.0
H1113 H 0.9513 0.37236 0.17014 0.0
H1114 H 0.18224 0.29907 1.02159 0.0
H1115 H 0.98362 0.23895 1.00494 0.0
H1116 H 0.98633 0.36626 0.12152 0.0
H1117 H 0.94945 0.19449 1.01179 0.0
H1118 H 0.14896 0.34939 0.92163 0.0
H1119 H 0.91488 0.32978 0.17865 0.0
H1120 H 0.89393 0.27611 0.15904 0.0
H1121 H 0.10803 0.37463 0.9146 0.0
H1122 H 0.89393 0.22793 0.11708 0.0
N1123 N 0.96986 0.32018 0.0999 0.0
C1124 C 0.97029 0.34725 0.1232 0.0
C1125 C 0.93004 0.32684 0.15637 0.0
C1126 C 0.92956 0.29919 0.13274 0.0
C1127 C 0.95052 0.35092 0.1516 0.0
C1128 C 0.94986 0.29644 0.10418 0.0
H1129 H 0.91464 0.19736 0.06256 0.0
N1130 N 0.96975 0.26683 0.05354 0.0
C1131 C 0.94968 0.21527 0.03166 0.0
C1132 C 0.95015 0.26904 0.08095 0.0
C1133 C 0.96923 0.24057 0.0282 0.0
C1134 C 0.92999 0.21698 0.06037 0.0
C1135 C 0.92983 0.24406 0.08521 0.0
O1136 O 0.95705 0.30343 1.01521 0.0
O1137 O 0.04476 0.32156 0.02555 0.0
O1138 O 0.05315 0.38208 0.07898 0.0
O1139 O 0.0044 0.36032 0.05847 0.0
O1140 O 0.02085 0.27994 1.00401 0.0
O1141 O 0.99371 0.32391 0.98901 0.0
O1142 O 0.09283 0.39052 0.11294 0.0
O1143 O 0.02997 0.33782 0.10535 0.0
O1144 O 0.01838 0.27924 0.0803 0.0
O1145 O 0.06857 0.29621 0.08648 0.0
O1146 O 0.06397 0.33354 0.14486 0.0
O1147 O 0.11456 0.35716 0.12697 0.0
C1148 C 0.04506 0.29717 1.00147 0.0
C1149 C 0.9509 0.34129 0.97959 0.0
C1150 C 0.94647 0.37938 0.94066 0.0
C1151 C 0.95931 0.35642 0.9487 0.0
C1152 C 0.92479 0.38713 0.964 0.0
C1153 C 0.92926 0.34938 1.00291 0.0
C1154 C 0.91638 0.37226 0.99513 0.0
C1155 C 0.02597 0.38357 0.06918 0.0
C1156 C 0.9656 0.31773 0.98714 0.0
C1157 C 0.90968 0.24687 0.1135 0.0
C1158 C 0.90959 0.27432 0.13725 0.0
C1159 C 0.03647 0.33225 0.14116 0.0
C1160 C 0.11422 0.39644 0.18239 0.0
C1161 C 0.11133 0.37837 0.21195 0.0
C1162 C 0.11248 0.39055 0.25449 0.0
C1163 C 0.11726 0.42125 0.26669 0.0
C1164 C 0.11865 0.42682 0.19582 0.0
C1165 C 0.12021 0.43908 0.23764 0.0
C1166 C 0.04528 0.27803 0.09334 0.0
C1167 C 0.11261 0.38426 0.1375 0.0
H1168 H 0.97545 0.34966 0.93 0.0
H1169 H 0.91428 0.40447 0.95795 0.0
H1170 H 0.92245 0.33827 0.02727 0.0
H1171 H 0.89974 0.37839 1.01318 0.0
H1172 H 0.10768 0.35487 0.20177 0.0
H1173 H 0.11932 0.43178 0.29889 0.0
H1174 H 0.12099 0.44113 0.17387 0.0
H1175 H 0.12389 0.46261 0.24767 0.0
Eu1176 Eu 0.56475 0.41891 0.33041 0.0
C1177 C 0.43855 0.35888 0.32666 0.0
C1178 C 0.41618 0.39905 0.3163 0.0
C1179 C 0.38994 0.34888 0.28948 0.0
C1180 C 0.43994 0.38867 0.33198 0.0
C1181 C 0.41335 0.33865 0.30593 0.0
C1182 C 0.39133 0.37902 0.29474 0.0
C1183 C 0.43523 0.29967 0.32226 0.0
N1184 N 0.46136 0.34962 0.34317 0.0
C1185 C 0.45958 0.32059 0.34285 0.0
C1186 C 0.41213 0.30872 0.30326 0.0
Eu1187 Eu 0.50166 0.386 0.37818 0.0
N1188 N 0.46445 0.4075 0.35244 0.0
C1189 C 0.46661 0.43706 0.35796 0.0
C1190 C 0.41821 0.42928 0.32235 0.0
C1191 C 0.44358 0.44835 0.34316 0.0
H1192 H 0.47719 0.31357 0.35828 0.0
H1193 H 0.44548 0.47178 0.34763 0.0
H1194 H 0.373 0.38661 0.28219 0.0
H1195 H 0.43423 0.27664 0.32135 0.0
H1196 H 0.48608 0.45226 0.37329 0.0
H1197 H 0.65959 0.39494 0.4108 0.0
H1198 H 0.40046 0.43812 0.31075 0.0
H1199 H 0.55442 0.48217 0.30701 0.0
H1200 H 0.61151 0.38345 0.36888 0.0
H1201 H 0.57994 0.53422 0.3209 0.0
H1202 H 0.3705 0.33368 0.2732 0.0
H1203 H 0.68662 0.44641 0.4329 0.0
H1204 H 0.68972 0.49948 0.4307 0.0
H1205 H 0.39317 0.29251 0.28756 0.0
H1206 H 0.66835 0.53722 0.40564 0.0
N1207 N 0.61067 0.42797 0.36968 0.0
C1208 C 0.62293 0.40599 0.37915 0.0
C1209 C 0.66539 0.4415 0.41499 0.0
C1210 C 0.65338 0.46381 0.40305 0.0
C1211 C 0.65022 0.41242 0.40257 0.0
C1212 C 0.62566 0.45623 0.37987 0.0
H1213 H 0.62759 0.55033 0.36433 0.0
N1214 N 0.58716 0.46924 0.3427 0.0
C1215 C 0.58962 0.51848 0.33375 0.0
C1216 C 0.61372 0.47749 0.36562 0.0
C1217 C 0.57524 0.48903 0.3259 0.0
C1218 C 0.61653 0.5275 0.3583 0.0
C1219 C 0.62901 0.5069 0.37437 0.0
O1220 O 0.5701 0.4245 0.26736 0.0
O1221 O 0.51792 0.3993 0.32294 0.0
O1222 O 0.51099 0.35214 0.32624 0.0
O1223 O 0.56025 0.36963 0.32346 0.0
O1224 O 0.52849 0.42897 0.2881 0.0
O1225 O 0.59304 0.39596 0.29398 0.0
O1226 O 0.49129 0.35793 0.42257 0.0
O1227 O 0.5499 0.40238 0.38685 0.0
O1228 O 0.55993 0.45475 0.38396 0.0
O1229 O 0.51949 0.43335 0.41236 0.0
O1230 O 0.53401 0.36281 0.40351 0.0
O1231 O 0.48406 0.40211 0.43449 0.0
C1232 C 0.507 0.41001 0.29514 0.0
C1233 C 0.61444 0.41842 0.24234 0.0
C1234 C 0.64368 0.41404 0.18451 0.0
C1235 C 0.61903 0.40351 0.20326 0.0
C1236 C 0.6632 0.43991 0.2055 0.0
C1237 C 0.63446 0.44395 0.26233 0.0
C1238 C 0.65861 0.45461 0.24397 0.0
C1239 C 0.53683 0.34806 0.31709 0.0
C1240 C 0.58865 0.40756 0.26194 0.0
C1241 C 0.65631 0.5147 0.3984 0.0
C1242 C 0.66845 0.49321 0.41273 0.0
C1243 C 0.55713 0.38252 0.40389 0.0
C1244 C 0.45543 0.3675 0.46569 0.0
C1245 C 0.45735 0.36573 0.50772 0.0
C1246 C 0.43206 0.35757 0.52614 0.0
C1247 C 0.40494 0.35063 0.50162 0.0
C1248 C 0.42816 0.36042 0.4419 0.0
C1249 C 0.40309 0.35189 0.4598 0.0
C1250 C 0.54139 0.45546 0.41172 0.0
C1251 C 0.48196 0.37761 0.44759 0.0
H1252 H 0.60367 0.38363 0.18787 0.0
H1253 H 0.68196 0.4491 0.19194 0.0
H1254 H 0.63137 0.45577 0.29204 0.0
H1255 H 0.67383 0.47448 0.2596 0.0
H1256 H 0.4784 0.37151 0.52629 0.0
H1257 H 0.38514 0.34413 0.51482 0.0
H1258 H 0.42625 0.36173 0.40966 0.0
H1259 H 0.38208 0.34648 0.44127 0.0
Eu1260 Eu 0.98306 0.62833 0.97801 0.0
C1261 C 0.08839 0.56916 0.94274 0.0
C1262 C 0.13114 0.60022 0.98551 0.0
C1263 C 0.12742 0.54764 0.96715 0.0
C1264 C 0.10345 0.59665 0.96347 0.0
C1265 C 0.10026 0.54435 0.94413 0.0
C1266 C 0.14285 0.57553 0.98773 0.0
C1267 C 0.058 0.515 0.89881 0.0
N1268 N 0.06216 0.56673 0.92086 0.0
C1269 C 0.04716 0.54025 0.89823 0.0
C1270 C 0.08458 0.51701 0.92206 0.0
Eu1271 Eu 0.04475 0.61041 0.92327 0.0
N1272 N 0.09158 0.62007 0.96058 0.0
C1273 C 0.10714 0.64781 0.97634 0.0
C1274 C 0.14652 0.62858 1.00382 0.0
C1275 C 0.13461 0.6525 0.99873 0.0
H1276 H 0.02648 0.5384 0.88048 0.0
H1277 H 0.14658 0.67456 1.01195 0.0
H1278 H 0.16402 0.57782 1.00476 0.0
H1279 H 0.04582 0.49399 0.88139 0.0
H1280 H 0.09826 0.66644 0.97211 0.0
H1281 H 0.89891 0.53948 0.8838 0.0
H1282 H 0.16786 0.63226 1.02104 0.0
H1283 H 0.98178 0.69909 1.00767 0.0
H1284 H 0.9435 0.56113 0.93188 0.0
H1285 H 0.95281 0.7342 0.99021 0.0
H1286 H 0.13685 0.52882 0.96875 0.0
H1287 H 0.86904 0.57139 0.85858 0.0
H1288 H 0.86061 0.62208 0.8603 0.0
H1289 H 0.09292 0.49741 0.92243 0.0
H1290 H 0.87527 0.67503 0.88909 0.0
N1291 N 0.93935 0.60514 0.93403 0.0
C1292 C 0.93068 0.57544 0.92161 0.0
C1293 C 0.88861 0.58109 0.87991 0.0
C1294 C 0.89698 0.61143 0.89398 0.0
C1295 C 0.90538 0.56301 0.89413 0.0
C1296 C 0.92271 0.62293 0.9216 0.0
H1297 H 0.90938 0.71698 0.93792 0.0
N1298 N 0.95545 0.6628 0.96479 0.0
C1299 C 0.94645 0.71136 0.97508 0.0
C1300 C 0.93105 0.6527 0.93744 0.0
C1301 C 0.96273 0.69147 0.98495 0.0
C1302 C 0.92204 0.70157 0.94543 0.0
C1303 C 0.9138 0.67184 0.92662 0.0
O1304 O 0.97681 0.6494 0.04008 0.0
O1305 O 0.02963 0.62549 0.98432 0.0
O1306 O 0.03513 0.57913 0.96564 0.0
O1307 O 0.98754 0.58083 0.97784 0.0
O1308 O 0.01898 0.66054 1.02224 0.0
O1309 O 0.9578 0.60352 1.01713 0.0
O1310 O 0.04794 0.59908 0.8572 0.0
O1311 O -0.00086 0.61622 0.91752 0.0
O1312 O -0.00022 0.66415 0.94392 0.0
O1313 O 0.04748 0.65923 0.93826 0.0
O1314 O 0.00704 0.58214 0.87652 0.0
O1315 O 0.07372 0.63983 0.89367 0.0
C1316 C 0.03984 0.64782 1.01264 0.0
C1317 C 0.93282 0.6305 0.06395 0.0
C1318 C 0.90492 0.63867 0.12263 0.0
C1319 C 0.93106 0.63462 0.1069 0.0
C1320 C 0.88102 0.63907 0.09456 0.0
C1321 C 0.90848 0.63076 0.03702 0.0
C1322 C 0.88284 0.63512 0.05227 0.0
C1323 C 0.01046 0.56854 0.97868 0.0
C1324 C 0.95996 0.62616 0.04715 0.0
C1325 C 0.88866 0.66064 0.89812 0.0
C1326 C 0.88029 0.63049 0.88178 0.0
C1327 C 0.98759 0.59682 0.88621 0.0
C1328 C 0.09221 0.61819 0.83425 0.0
C1329 C 0.09377 0.62604 0.79539 0.0
C1330 C 0.11649 0.62051 0.77225 0.0
C1331 C 0.1378 0.60759 0.78901 0.0
C1332 C 0.11378 0.60541 0.8502 0.0
C1333 C 0.13649 0.60027 0.82773 0.0
C1334 C 0.02645 0.67364 0.93548 0.0
C1335 C 0.0676 0.62252 0.85729 0.0
H1336 H 0.94979 0.63426 0.12777 0.0
H1337 H 0.86086 0.64286 0.1053 0.0
H1338 H 0.90929 0.62758 1.00412 0.0
H1339 H 0.86424 0.63549 0.0312 0.0
H1340 H 0.07698 0.63569 0.78278 0.0
H1341 H 0.15564 0.60329 0.77218 0.0
H1342 H 0.11296 0.59924 0.87989 0.0
H1343 H 0.15306 0.59037 0.84025 0.0
H1344 H 0.18964 0.19546 1.00945 0.0
H1345 H 0.07772 0.07513 0.85406 0.0
H1346 H 0.1273 0.1274 0.04282 0.0
H1347 H 0.13698 0.14723 0.82349 0.0
H1348 H 0.10832 0.08201 0.91942 0.0
H1349 H 0.18532 0.16541 0.9403 0.0
C1350 C 0.17576 0.17374 1.00253 0.0
C1351 C 0.15785 0.1643 0.03105 0.0
C1352 C 0.11497 0.09588 0.89796 0.0
C1353 C 0.15197 0.13041 0.95208 0.0
C1354 C 0.09729 0.09222 0.86081 0.0
C1355 C 0.10421 0.1112 0.83366 0.0
C1356 C 0.13937 0.11917 0.90846 0.0
C1357 C 0.1305 0.13212 0.84337 0.0
C1358 C 0.1732 0.1566 0.96306 0.0
C1359 C 0.14086 0.13576 1.0212 0.0
N1360 N 0.14675 0.13594 0.88035 0.0
N1361 N 0.13755 0.12014 0.98197 0.0
H1362 H 0.15294 0.92536 0.14638 0.0
H1363 H 0.06377 0.85582 0.92241 0.0
H1364 H 0.10379 0.83616 0.11249 0.0
H1365 H 0.08761 0.94837 0.9734 0.0
H1366 H 0.08918 0.84662 0.98472 0.0
H1367 H 0.13935 0.9321 0.07688 0.0
C1368 C 0.13932 0.90709 0.12439 0.0
C1369 C 0.129 0.88028 0.136 0.0
C1370 C 0.08953 0.86898 0.98182 0.0
C1371 C 0.11384 0.88785 0.05538 0.0
C1372 C 0.07548 0.87425 0.94596 0.0
C1373 C 0.07424 0.90295 0.9424 0.0
C1374 C 0.10246 0.8926 1.01435 0.0
C1375 C 0.08861 0.92599 0.97464 0.0
C1376 C 0.13171 0.91097 0.08452 0.0
C1377 C 0.11227 0.85723 0.10529 0.0
N1378 N 0.10202 0.92033 1.00928 0.0
N1379 N 0.10501 0.86162 0.06658 0.0
H1380 H 0.50493 0.81556 0.23034 0.0
H1381 H 0.45046 0.92893 0.39175 0.0
H1382 H 0.41821 0.83091 0.22658 0.0
H1383 H 0.52764 0.89561 0.41256 0.0
H1384 H 0.4489 0.91127 0.3176 0.0
H1385 H 0.52216 0.86123 0.28178 0.0
C1386 C 0.48981 0.82928 0.23923 0.0
C1387 C 0.46024 0.81991 0.22439 0.0
C1388 C 0.46675 0.90871 0.33827 0.0
C1389 C 0.4794 0.87128 0.28363 0.0
C1390 C 0.46779 0.91898 0.38059 0.0
C1391 C 0.48869 0.91281 0.40821 0.0
C1392 C 0.48661 0.89204 0.32385 0.0
C1393 C 0.51068 0.89997 0.39215 0.0
C1394 C 0.49957 0.8552 0.26858 0.0
C1395 C 0.4412 0.83773 0.23737 0.0
N1396 N 0.50865 0.88928 0.35098 0.0
N1397 N 0.45105 0.86249 0.26674 0.0
H1398 H 0.33836 0.18253 0.85684 0.0
H1399 H 0.45327 0.17965 0.6962 0.0
H1400 H 0.42902 0.2218 0.8928 0.0
H1401 H 0.37011 0.11919 0.67475 0.0
H1402 H 0.44597 0.19409 0.76875 0.0
H1403 H 0.35008 0.1574 0.79103 0.0
C1404 C 0.36087 0.18501 0.85137 0.0
C1405 C 0.38284 0.20356 0.88071 0.0
C1406 C 0.42946 0.17745 0.74819 0.0
C1407 C 0.39639 0.17626 0.80444 0.0
C1408 C 0.43367 0.16908 0.70667 0.0
C1409 C 0.41209 0.14847 0.67868 0.0
C1410 C 0.40338 0.16534 0.76199 0.0
C1411 C 0.38706 0.13579 0.69451 0.0
C1412 C 0.36758 0.17091 0.81365 0.0
C1413 C 0.41158 0.20691 0.87151 0.0
N1414 N 0.38328 0.14465 0.73468 0.0
N1415 N 0.41749 0.1938 0.83399 0.0
H1416 H 0.94333 0.78403 0.25518 0.0
H1417 H 0.95102 0.86434 0.06237 0.0
H1418 H 0.94145 0.87522 0.26337 0.0
H1419 H 0.94716 0.7718 0.05088 0.0
H1420 H 0.94969 0.86889 0.13662 0.0
H1421 H 0.94593 0.77905 0.18088 0.0
C1422 C 0.94335 0.80299 0.24148 0.0
C1423 C 0.94232 0.83015 0.26598 0.0
C1424 C 0.94916 0.84757 0.11789 0.0
C1425 C 0.9456 0.82463 0.18065 0.0
C1426 C 0.95014 0.84498 0.0754 0.0
C1427 C 0.94917 0.81762 0.04997 0.0
C1428 C 0.94725 0.82264 0.13549 0.0
C1429 C 0.94756 0.79329 0.06892 0.0
C1430 C 0.945 0.80016 0.199 0.0
C1431 C 0.94277 0.85396 0.24621 0.0
N1432 N 0.94665 0.79637 0.11037 0.0
N1433 N 0.94438 0.85064 0.20496 0.0
H1434 H 0.95995 0.15957 0.89754 0.0
H1435 H 0.07004 0.21698 0.11118 0.0
H1436 H 0.03205 0.23276 0.91474 0.0
H1437 H -0.00016 0.14195 0.09369 0.0
H1438 H 0.05649 0.22291 0.04107 0.0
H1439 H 0.97295 0.15369 0.96826 0.0
C1440 C 0.97823 0.17505 0.91637 0.0
C1441 C 0.99431 0.19742 0.89919 0.0
C1442 C 0.04359 0.2053 0.05241 0.0
C1443 C 0.01017 0.19008 0.98259 0.0
C1444 C 0.05135 0.2018 0.09315 0.0
C1445 C 0.03552 0.17966 0.11085 0.0
C1446 C 0.01945 0.18636 0.0271 0.0
C1447 C 0.0122 0.16028 0.08359 0.0
C1448 C 0.98588 0.17137 0.95712 0.0
C1449 C 0.01821 0.21594 0.9261 0.0
N1450 N 0.00486 0.16423 0.04397 0.0
N1451 N 0.0253 0.21188 0.96568 0.0
H1452 H 0.59458 0.21826 0.75872 0.0
H1453 H 0.57258 0.12203 0.56342 0.0
H1454 H 0.68091 0.24323 0.72683 0.0
H1455 H 0.58067 0.21186 0.55183 0.0
H1456 H 0.60479 0.13899 0.62964 0.0
H1457 H 0.58031 0.18535 0.69104 0.0
C1458 C 0.61083 0.21585 0.73799 0.0
C1459 C 0.63916 0.23274 0.74871 0.0
C1460 C 0.60051 0.15473 0.61143 0.0
C1461 C 0.6225 0.19654 0.67058 0.0
C1462 C 0.58229 0.14513 0.57377 0.0
C1463 C 0.57419 0.16568 0.5523 0.0
C1464 C 0.61099 0.18488 0.62677 0.0
C1465 C 0.58659 0.19543 0.56752 0.0
C1466 C 0.60268 0.19714 0.6995 0.0
C1467 C 0.65912 0.22982 0.72008 0.0
N1468 N 0.60417 0.20418 0.60402 0.0
N1469 N 0.65012 0.21279 0.68156 0.0
H1470 H 0.52406 0.75999 0.45157 0.0
H1471 H 0.63117 0.77697 0.2823 0.0
H1472 H 0.57827 0.84579 0.4666 0.0
H1473 H 0.53936 0.74612 0.24702 0.0
H1474 H 0.62188 0.79524 0.35372 0.0
H1475 H 0.53941 0.74621 0.38333 0.0
C1476 C 0.53957 0.77596 0.44092 0.0
C1477 C 0.5498 0.8041 0.46621 0.0
C1478 C 0.60372 0.78473 0.33024 0.0
C1479 C 0.56781 0.78815 0.38559 0.0
C1480 C 0.60906 0.77439 0.28894 0.0
C1481 C 0.58616 0.76043 0.25698 0.0
C1482 C 0.57515 0.78003 0.34103 0.0
C1483 C 0.55799 0.7569 0.26947 0.0
C1484 C 0.5482 0.76803 0.40144 0.0
C1485 C 0.57002 0.82361 0.44953 0.0
N1486 N 0.55347 0.76603 0.30975 0.0
N1487 N 0.57832 0.81531 0.41075 0.0
H1488 H 0.55912 0.69118 0.34213 0.0
H1489 H 0.66076 0.65675 0.51014 0.0
H1490 H 0.56799 0.60147 0.3276 0.0
H1491 H 0.58816 0.69302 0.54795 0.0
H1492 H 0.63597 0.642 0.43917 0.0
H1493 H 0.57973 0.69992 0.415 0.0
C1494 C 0.56574 0.67352 0.35431 0.0
C1495 C 0.56192 0.64561 0.32938 0.0
C1496 C 0.62549 0.65292 0.4633 0.0
C1497 C 0.58562 0.65545 0.41137 0.0
C1498 C 0.63957 0.66144 0.50357 0.0
C1499 C 0.62675 0.67677 0.53469 0.0
C1500 C 0.59885 0.66037 0.45422 0.0
C1501 C 0.59892 0.68155 0.52477 0.0
C1502 C 0.57723 0.67842 0.39566 0.0
C1503 C 0.5705 0.62322 0.34629 0.0
N1504 N 0.58608 0.67392 0.48507 0.0
N1505 N 0.58233 0.6287 0.38635 0.0
H1506 H 0.61946 0.34097 0.62472 0.0
H1507 H 0.58575 0.43353 0.45826 0.0
H1508 H 0.65194 0.4346 0.64717 0.0
H1509 H 0.58009 0.34039 0.42915 0.0
H1510 H 0.61245 0.43573 0.52603 0.0
H1511 H 0.60652 0.341 0.5523 0.0
C1512 C 0.62433 0.36154 0.61458 0.0
C1513 C 0.63675 0.38784 0.64279 0.0
C1514 C 0.60595 0.41493 0.5044 0.0
C1515 C 0.62107 0.38807 0.5591 0.0
C1516 C 0.59095 0.41375 0.46557 0.0
C1517 C 0.58064 0.3867 0.43816 0.0
C1518 C 0.61021 0.38884 0.51588 0.0
C1519 C 0.58764 0.36166 0.44946 0.0
C1520 C 0.61673 0.36154 0.57298 0.0
C1521 C 0.64179 0.41379 0.62717 0.0
N1522 N 0.6015 0.36324 0.48757 0.0
N1523 N 0.63364 0.4133 0.58664 0.0
H1524 H 0.90901 0.38673 0.87822 0.0
H1525 H 0.02256 0.34403 0.74244 0.0
H1526 H 0.00024 0.40013 0.92004 0.0
H1527 H 0.932 0.33438 0.70021 0.0
H1528 H 0.0189 0.38355 0.79876 0.0
H1529 H 0.92052 0.38804 0.80835 0.0
C1530 C 0.93158 0.39116 0.873 0.0
C1531 C 0.95366 0.39209 0.90442 0.0
C1532 C -3e-05 0.37345 0.77641 0.0
C1533 C 0.96692 0.39247 0.82448 0.0
C1534 C 0.00211 0.35092 0.74415 0.0
C1535 C 0.97728 0.33516 0.71748 0.0
C1536 C 0.97258 0.37954 0.78257 0.0
C1537 C 0.95146 0.34516 0.72072 0.0
C1538 C 0.93819 0.39169 0.83295 0.0
C1539 C 0.98253 0.39819 0.89611 0.0
N1540 N 0.94955 0.36617 0.75342 0.0
N1541 N 0.98831 0.3972 0.85663 0.0
H1542 H 0.92133 0.71027 0.38656 0.0
H1543 H 0.85827 0.61633 0.1596 0.0
H1544 H 0.83033 0.67706 0.3444 0.0
H1545 H 0.94461 0.67069 0.18934 0.0
H1546 H 0.85066 0.6288 0.23186 0.0
H1547 H 0.93284 0.68578 0.32004 0.0
C1548 C 0.90385 0.69673 0.36394 0.0
C1549 C 0.87485 0.69509 0.37124 0.0
C1550 C 0.87137 0.63784 0.22271 0.0
C1551 C 0.88775 0.66791 0.29458 0.0
C1552 C 0.87574 0.63083 0.18131 0.0
C1553 C 0.90196 0.64294 0.16786 0.0
C1554 C 0.89338 0.65701 0.25147 0.0
C1555 C 0.92402 0.66086 0.19802 0.0
C1556 C 0.91039 0.68319 0.32572 0.0
C1557 C 0.85295 0.6784 0.3402 0.0
N1558 N 0.91914 0.66759 0.23826 0.0
N1559 N 0.85982 0.66558 0.30323 0.0
H1560 H 0.40103 0.383 0.58235 0.0
H1561 H 0.45355 0.31377 0.76949 0.0
H1562 H 0.4662 0.33113 0.57202 0.0
H1563 H 0.41936 0.39213 0.7863 0.0
H1564 H 0.45329 0.31447 0.69542 0.0
H1565 H 0.40235 0.38138 0.65565 0.0
C1566 C 0.41559 0.37121 0.59555 0.0
C1567 C 0.43353 0.35719 0.57103 0.0
C1568 C 0.44592 0.3315 0.71544 0.0
C1569 C 0.43498 0.35501 0.65507 0.0
C1570 C 0.4459 0.33101 0.75756 0.0
C1571 C 0.4366 0.35301 0.78411 0.0
C1572 C 0.43596 0.35378 0.69967 0.0
C1573 C 0.427 0.37492 0.76707 0.0
C1574 C 0.41642 0.37038 0.63743 0.0
C1575 C 0.45215 0.3424 0.5899 0.0
N1576 N 0.42676 0.37464 0.72604 0.0
N1577 N 0.45224 0.34148 0.63074 0.0
H1578 H 0.5169 0.71504 0.62428 0.0
H1579 H 0.51237 0.6462 0.38133 0.0
H1580 H 0.5411 0.63387 0.58078 0.0
H1581 H 0.47785 0.72235 0.42233 0.0
H1582 H 0.52406 0.64281 0.45284 0.0
H1583 H 0.50349 0.71898 0.55257 0.0
C1584 C 0.51924 0.69793 0.59962 0.0
C1585 C 0.52998 0.67415 0.6098 0.0
C1586 C 0.51409 0.66044 0.44664 0.0
C1587 C 0.51482 0.67839 0.52505 0.0
C1588 C 0.50732 0.66263 0.40512 0.0
C1589 C 0.49399 0.6849 0.39401 0.0
C1590 C 0.50782 0.68066 0.47935 0.0
C1591 C 0.48847 0.70504 0.428 0.0
C1592 C 0.51149 0.7001 0.55827 0.0
C1593 C 0.53262 0.65257 0.57557 0.0
N1594 N 0.49535 0.70245 0.46842 0.0
N1595 N 0.52527 0.65527 0.5354 0.0
H1596 H 0.08479 0.69835 0.25141 0.0
H1597 H 0.08125 0.69736 0.03659 0.0
H1598 H 0.16953 0.72978 0.21851 0.0
H1599 H 0.05469 0.61068 0.06015 0.0
H1600 H 0.11399 0.71136 0.10158 0.0
H1601 H 0.07169 0.66565 0.18337 0.0
C1602 C 0.10105 0.69736 0.23043 0.0
C1603 C 0.1285 0.71614 0.24083 0.0
C1604 C 0.10189 0.68893 0.09173 0.0
C1605 C 0.11299 0.68046 0.16218 0.0
C1606 C 0.08331 0.68094 0.05469 0.0
C1607 C 0.06589 0.65266 0.04265 0.0
C1608 C 0.10163 0.66907 0.11812 0.0
C1609 C 0.0684 0.63247 0.06796 0.0
C1610 C 0.09355 0.6788 0.19165 0.0
C1611 C 0.14842 0.715 0.21193 0.0
N1612 N 0.08516 0.64137 0.10536 0.0
N1613 N 0.13992 0.69823 0.17323 0.0
H1614 H 0.04276 0.23279 0.73795 0.0
H1615 H 0.09267 0.27319 0.98091 0.0
H1616 H 0.13267 0.24192 0.78161 0.0
H1617 H 0.02468 0.30727 0.9259 0.0
H1618 H 0.10729 0.25857 0.91163 0.0
H1619 H 0.03491 0.25646 0.80709 0.0
C1620 C 0.06103 0.24007 0.76184 0.0
C1621 C 0.08862 0.23587 0.75251 0.0
C1622 C 0.08953 0.26977 0.91467 0.0
C1623 C 0.0791 0.26149 0.83474 0.0
C1624 C 0.08131 0.27851 0.95461 0.0
C1625 C 0.058 0.29285 0.96041 0.0
C1626 C 0.07351 0.27379 0.87906 0.0
C1627 C 0.04329 0.29726 0.92395 0.0
C1628 C 0.05641 0.2534 0.80179 0.0
C1629 C 0.11111 0.24512 0.78621 0.0
N1630 N 0.05094 0.28759 0.88553 0.0
N1631 N 0.1058 0.25694 0.82544 0.0
H1632 H 0.09282 0.28871 0.15291 0.0
H1633 H 0.99122 0.21649 0.28734 0.0
H1634 H 0.00367 0.24143 0.12266 0.0
H1635 H 0.0817 0.24614 0.32541 0.0
H1636 H 0.9922 0.25601 0.25013 0.0
H1637 H 0.08864 0.29027 0.22563 0.0
C1638 C 0.07252 0.2781 0.16117 0.0
C1639 C 0.04803 0.26634 0.13141 0.0
C1640 C 0.01218 0.25441 0.26705 0.0
C1641 C 0.04299 0.26906 0.21491 0.0
C1642 C 0.01157 0.232 0.28904 0.0
C1643 C 0.03801 0.22431 0.29871 0.0
C1644 C 0.03947 0.26831 0.25836 0.0
C1645 C 0.06196 0.248 0.30833 0.0
C1646 C 0.06995 0.27994 0.203 0.0
C1647 C 0.02285 0.25188 0.1444 0.0
N1648 N 0.06348 0.26796 0.28381 0.0
N1649 N 0.02089 0.25416 0.1852 0.0
H1650 H 0.97894 0.77302 0.51768 0.0
H1651 H 0.07673 0.70149 0.36356 0.0
H1652 H 0.94892 0.6864 0.44203 0.0
H1653 H 0.07772 0.79394 0.39651 0.0
H1654 H 0.03783 0.69176 0.4065 0.0
H1655 H 0.02587 0.77566 0.49182 0.0
C1656 C 0.98262 0.75421 0.49657 0.0
C1657 C 0.96001 0.72989 0.48071 0.0
C1658 C 0.04678 0.7141 0.40428 0.0
C1659 C 0.01298 0.73288 0.4509 0.0
C1660 C 0.06871 0.71971 0.37962 0.0
C1661 C 0.08046 0.74861 0.37653 0.0
C1662 C 0.03706 0.73762 0.42635 0.0
C1663 C 0.0693 0.77135 0.3979 0.0
C1664 C 0.00923 0.7558 0.48167 0.0
C1665 C 0.96585 0.70572 0.45435 0.0
N1666 N 0.0483 0.76536 0.42217 0.0
N1667 N 0.99176 0.70808 0.43926 0.0
H1668 H 0.55432 0.74068 0.82887 0.0
H1669 H 0.47464 0.75375 0.62945 0.0
H1670 H 0.47068 0.68816 0.77822 0.0
H1671 H 0.56423 0.78727 0.68241 0.0
H1672 H 0.46251 0.74562 0.69717 0.0
H1673 H 0.5414 0.78164 0.80267 0.0
C1674 C 0.53272 0.73795 0.81311 0.0
C1675 C 0.5157 0.70994 0.79677 0.0
C1676 C 0.48476 0.75476 0.6937 0.0
C1677 C 0.50122 0.75491 0.76742 0.0
C1678 C 0.49183 0.75884 0.65499 0.0
C1679 C 0.5205 0.77137 0.65017 0.0
C1680 C 0.50652 0.76301 0.72761 0.0
C1681 C 0.54188 0.77744 0.6843 0.0
C1682 C 0.52532 0.76133 0.79803 0.0
C1683 C 0.48641 0.70876 0.78426 0.0
N1684 N 0.53438 0.77341 0.72151 0.0
N1685 N 0.48028 0.73051 0.76605 0.0
H1686 H 0.58627 0.30879 0.90245 0.0
H1687 H 0.45661 0.19606 0.94759 0.0
H1688 H 0.58611 0.21638 0.87266 0.0
H1689 H 0.48646 0.28283 1.02285 0.0
H1690 H 0.50343 0.20043 0.92044 0.0
H1691 H 0.54699 0.29834 0.94347 0.0
C1692 C 0.57785 0.28625 0.90421 0.0
C1693 C 0.58958 0.26343 0.88425 0.0
C1694 C 0.49997 0.21813 0.9438 0.0
C1695 C 0.54477 0.2514 0.93155 0.0
C1696 C 0.47343 0.21555 0.95956 0.0
C1697 C 0.46764 0.23953 0.98643 0.0
C1698 C 0.52028 0.24489 0.95503 0.0
C1699 C 0.48999 0.26426 1.00112 0.0
C1700 C 0.55569 0.28036 0.92817 0.0
C1701 C 0.57772 0.23464 0.88773 0.0
N1702 N 0.51518 0.26664 0.98441 0.0
N1703 N 0.55573 0.22936 0.91086 0.0
H1704 H 0.00675 0.79482 0.78279 0.0
H1705 H 0.07924 0.70522 0.92581 0.0
H1706 H 0.08852 0.83203 0.85954 0.0
H1707 H 0.987 0.69983 0.90087 0.0
H1708 H 0.0881 0.74313 0.8848 0.0
H1709 H 0.00619 0.74849 0.8049 0.0
C1710 C 0.0249 0.79294 0.80351 0.0
C1711 C 0.04691 0.8174 0.82123 0.0
C1712 C 0.066 0.73337 0.88825 0.0
C1713 C 0.04662 0.76509 0.84592 0.0
C1714 C 0.06088 0.71205 0.91187 0.0
C1715 C 0.0323 0.6993 0.91656 0.0
C1716 C 0.04237 0.74147 0.8688 0.0
C1717 C 0.00935 0.70897 0.898 0.0
C1718 C 0.02456 0.76665 0.81606 0.0
C1719 C 0.07074 0.81373 0.84617 0.0
N1720 N 0.0149 0.7294 0.87461 0.0
N1721 N 0.06965 0.78808 0.85881 0.0
H1722 H 0.59817 0.78835 0.04319 0.0
H1723 H 0.52105 0.80187 0.09676 0.0
H1724 H 0.56453 0.69527 1.01819 0.0
H1725 H 0.48599 0.70918 0.06739 0.0
H1726 H 0.53179 0.79991 0.02653 0.0
H1727 H 0.56675 0.79004 0.9806 0.0
C1728 C 0.58329 0.76862 0.02631 0.0
C1729 C 0.57851 0.74249 0.04163 0.0
C1730 C 0.52156 0.77978 0.03502 0.0
C1731 C 0.54063 0.74695 0.98002 0.0
C1732 C 0.51618 0.78082 0.07571 0.0
C1733 C 0.50382 0.75524 0.08859 0.0
C1734 C 0.51807 0.75232 1.00815 0.0
C1735 C 0.49621 0.72913 0.05918 0.0
C1736 C 0.56587 0.7694 0.99028 0.0
C1737 C 0.56331 0.71689 1.01344 0.0
N1738 N 0.50349 0.72827 1.02047 0.0
N1739 N 0.54624 0.7199 0.97993 0.0
H1740 H 0.48589 0.2041 0.41166 0.0
H1741 H 0.58626 0.33036 0.33916 0.0
H1742 H 0.5792 0.21463 0.42509 0.0
H1743 H 0.49667 0.29716 0.28708 0.0
H1744 H 0.58595 0.28539 0.36404 0.0
H1745 H 0.48995 0.23814 0.36484 0.0
C1746 C 0.50723 0.21365 0.40503 0.0
C1747 C 0.53221 0.20626 0.42204 0.0
C1748 C 0.56654 0.28756 0.34621 0.0
C1749 C 0.53695 0.24494 0.36821 0.0
C1750 C 0.56681 0.31313 0.33147 0.0
C1751 C 0.54094 0.31796 0.31298 0.0
C1752 C 0.54021 0.26712 0.34242 0.0
C1753 C 0.51664 0.29468 0.30309 0.0
C1754 C 0.50949 0.23274 0.37778 0.0
C1755 C 0.55932 0.21954 0.41249 0.0
N1756 N 0.51646 0.27054 0.31933 0.0
N1757 N 0.56097 0.23833 0.38629 0.0
H1758 H 0.02556 0.1722 0.54444 0.0
H1759 H 0.05161 0.29378 0.59122 0.0
H1760 H 0.10582 0.23117 0.54138 0.0
H1761 H 0.96766 0.24029 0.54412 0.0
H1762 H 0.06761 0.27873 0.52394 0.0
H1763 H 0.00696 0.18351 0.47863 0.0
C1764 C 0.03871 0.18834 0.53086 0.0
C1765 C 0.06484 0.20573 0.55236 0.0
C1766 C 0.04562 0.26967 0.52844 0.0
C1767 C 0.04282 0.22089 0.48361 0.0
C1768 C 0.03689 0.27783 0.5672 0.0
C1769 C 0.00975 0.264 0.57505 0.0
C1770 C 0.02833 0.24511 0.50018 0.0
C1771 C 0.99023 0.24692 0.54142 0.0
C1772 C 0.0288 0.19416 0.49283 0.0
C1773 C 0.08327 0.22216 0.52992 0.0
N1774 N -0.00013 0.23729 0.50531 0.0
N1775 N 0.07213 0.22786 0.49393 0.0
H1776 H 0.08298 0.11655 0.07678 0.0
H1777 H 0.00337 0.95628 0.95447 0.0
H1778 H 0.03954 0.04797 0.13262 0.0
H1779 H 0.06599 0.01127 0.89957 0.0
H1780 H 0.01268 0.99328 1.01697 0.0
H1781 H 0.07583 0.08128 1.01051 0.0
C1782 C 0.07234 0.09399 0.07528 0.0
C1783 C 0.06151 0.08527 0.11027 0.0
C1784 C 0.02421 0.99761 0.99122 0.0
C1785 C 0.05256 0.04514 0.03443 0.0
C1786 C 0.01828 0.97662 0.95471 0.0
C1787 C 0.03299 0.98085 0.92059 0.0
C1788 C 0.0453 0.02336 0.99447 0.0
C1789 C 0.05371 0.00719 0.92471 0.0
C1790 C 0.06804 0.07398 0.03737 0.0
C1791 C 0.04756 0.05591 0.10637 0.0
N1792 N 0.05923 0.02751 0.96097 0.0
N1793 N 0.04329 0.03708 0.06922 0.0
H1794 H 0.24774 0.82002 0.27851 0.0
H1795 H 0.34141 0.7148 0.16066 0.0
H1796 H 0.22842 0.7257 0.25984 0.0
H1797 H 0.36828 0.80891 0.18659 0.0
H1798 H 0.29682 0.71916 0.19072 0.0
H1799 H 0.28936 0.81738 0.23917 0.0
C1800 C 0.25219 0.79885 0.26615 0.0
C1801 C 0.23493 0.77311 0.27322 0.0
C1802 C 0.3124 0.73894 0.18987 0.0
C1803 C 0.282 0.76988 0.22812 0.0
C1804 C 0.33796 0.73638 0.17299 0.0
C1805 C 0.35894 0.76143 0.17249 0.0
C1806 C 0.30768 0.76684 0.20628 0.0
C1807 C 0.35278 0.78898 0.18697 0.0
C1808 C 0.27589 0.79733 0.24377 0.0
C1809 C 0.24151 0.74621 0.25624 0.0
N1810 N 0.32782 0.79098 0.20376 0.0
N1811 N 0.26445 0.74534 0.23471 0.0
H1812 H 0.57726 0.05898 0.506 0.0
H1813 H 0.57532 0.91729 0.52568 0.0
H1814 H 0.48525 0.03673 0.51312 0.0
H1815 H 0.51072 0.92943 0.60759 0.0
H1816 H 0.57226 0.96358 0.50603 0.0
H1817 H 0.58294 0.01503 0.5297 0.0
C1818 C 0.55808 0.04462 0.51187 0.0
C1819 C 0.53053 0.05114 0.50601 0.0
C1820 C 0.5592 0.95646 0.52899 0.0
C1821 C 0.5371 1.00058 0.5341 0.0
C1822 C 0.56095 0.93 0.54024 0.0
C1823 C 0.54346 0.91962 0.56863 0.0
C1824 C 0.53993 0.97281 0.54637 0.0
C1825 C 0.52468 0.93675 0.5857 0.0
C1826 C 0.56142 0.01948 0.5256 0.0
C1827 C 0.50681 0.03234 0.51654 0.0
N1828 N 0.52327 0.9625 0.57413 0.0
N1829 N 0.51062 0.00777 0.53007 0.0
H1830 H 0.28866 0.18808 0.91146 0.0
H1831 H 0.18984 0.26209 0.77303 0.0
H1832 H 0.29474 0.28119 0.92699 0.0
H1833 H 0.18727 0.16953 0.74827 0.0
H1834 H 0.22513 0.26863 0.8335 0.0
H1835 H 0.24756 0.17984 0.8575 0.0
C1836 C 0.28091 0.20677 0.90442 0.0
C1837 C 0.29526 0.23541 0.92397 0.0
C1838 C 0.21708 0.24685 0.81482 0.0
C1839 C 0.24863 0.22612 0.86131 0.0
C1840 C 0.19726 0.24322 0.77973 0.0
C1841 C 0.1864 0.21547 0.75451 0.0
C1842 C 0.22617 0.22244 0.82527 0.0
C1843 C 0.19543 0.19144 0.76645 0.0
C1844 C 0.25764 0.20204 0.87314 0.0
C1845 C 0.28451 0.25875 0.91272 0.0
N1846 N 0.21494 0.19549 0.8008 0.0
N1847 N 0.26208 0.25359 0.88205 0.0
H1848 H 0.73843 0.31661 0.75285 0.0
H1849 H 0.89097 0.26808 0.75501 0.0
H1850 H 0.77535 0.27909 0.84778 0.0
H1851 H 0.85668 0.30476 0.65672 0.0
H1852 H 0.85013 0.27599 0.7915 0.0
H1853 H 0.78298 0.31707 0.71977 0.0
C1854 C 0.75603 0.3088 0.76702 0.0
C1855 C 0.753 0.29724 0.80277 0.0
C1856 C 0.85146 0.28242 0.76198 0.0
C1857 C 0.80374 0.29751 0.76511 0.0
C1858 C 0.87487 0.27783 0.74093 0.0
C1859 C 0.87723 0.28539 0.70224 0.0
C1860 C 0.82994 0.29459 0.7444 0.0
C1861 C 0.85568 0.2983 0.68616 0.0
C1862 C 0.78134 0.3089 0.74801 0.0
C1863 C 0.77638 0.28735 0.81973 0.0
N1864 N 0.83281 0.30231 0.70717 0.0
N1865 N 0.80061 0.28755 0.80069 0.0
H1866 H 0.78333 0.68366 0.39743 0.0
H1867 H 0.67411 0.76199 0.28493 0.0
H1868 H 0.78715 0.77662 0.42285 0.0
H1869 H 0.68643 0.67684 0.22957 0.0
H1870 H 0.70865 0.76352 0.34399 0.0
H1871 H 0.74145 0.67691 0.34476 0.0
C1872 C 0.77489 0.70255 0.39281 0.0
C1873 C 0.7887 0.73079 0.41484 0.0
C1874 C 0.70394 0.74441 0.31908 0.0
C1875 C 0.74107 0.72318 0.35433 0.0
C1876 C 0.68432 0.74365 0.28508 0.0
C1877 C 0.67811 0.71978 0.25163 0.0
C1878 C 0.7176 0.72091 0.32017 0.0
C1879 C 0.69095 0.69589 0.25453 0.0
C1880 C 0.75123 0.69868 0.36235 0.0
C1881 C 0.77722 0.75449 0.40676 0.0
N1882 N 0.7104 0.69715 0.28811 0.0
N1883 N 0.7542 0.75015 0.37725 0.0
H1884 H 0.58901 0.62057 0.59188 0.0
H1885 H 0.52447 0.45477 0.48796 0.0
H1886 H 0.57494 0.55209 0.66142 0.0
H1887 H 0.57496 0.51153 0.42063 0.0
H1888 H 0.5394 0.4924 0.55053 0.0
H1889 H 0.58319 0.58327 0.52828 0.0
C1890 C 0.58541 0.59772 0.59397 0.0
C1891 C 0.58164 0.58938 0.63199 0.0
C1892 C 0.54721 0.49673 0.5221 0.0
C1893 C 0.57453 0.54666 0.55921 0.0
C1894 C 0.53837 0.47533 0.48605 0.0
C1895 C 0.54824 0.47995 0.44857 0.0
C1896 C 0.56571 0.5234 0.52099 0.0
C1897 C 0.56674 0.50699 0.44867 0.0
C1898 C 0.5819 0.57645 0.55755 0.0
C1899 C 0.57734 0.55948 0.63272 0.0
N1900 N 0.57469 0.52783 0.48423 0.0
N1901 N 0.5733 0.53921 0.59685 0.0
H1902 H 0.0569 0.55397 1.01586 0.0
H1903 H 0.97475 0.39696 0.04131 0.0
H1904 H 0.96393 0.52511 0.98621 0.0
H1905 H 0.0643 0.43652 0.08785 0.0
H1906 H 0.96855 0.44339 1.02369 0.0
H1907 H 0.05849 0.51097 0.04421 0.0
C1908 C 0.03669 0.53849 1.01529 0.0
C1909 C 0.01024 0.54297 0.99811 0.0
C1910 C 0.98941 0.44194 0.03826 0.0
C1911 C 0.01193 0.49322 0.03103 0.0
C1912 C 0.99298 0.41542 0.04825 0.0
C1913 C 0.02022 0.41254 0.06526 0.0
C1914 C 0.01329 0.46574 0.04552 0.0
C1915 C 0.04297 0.43741 0.07426 0.0
C1916 C 0.03761 0.51392 0.03182 0.0
C1917 C 0.98477 0.52239 0.99907 0.0
N1918 N 0.03905 0.46276 0.06392 0.0
N1919 N 0.98626 0.49811 1.01486 0.0
H1920 H 0.07597 0.10572 0.32796 0.0
H1921 H 0.17251 0.21351 0.52407 0.0
H1922 H 0.0823 0.19792 0.336 0.0
H1923 H 0.09562 0.15528 0.5426 0.0
H1924 H 0.1555 0.20164 0.44933 0.0
H1925 H 0.09881 0.11633 0.40047 0.0
C1926 C 0.0831 0.1283 0.34419 0.0
C1927 C 0.07825 0.15096 0.32418 0.0
C1928 C 0.14256 0.19115 0.46997 0.0
C1929 C 0.10442 0.16338 0.40851 0.0
C1930 C 0.15216 0.19812 0.51302 0.0
C1931 C 0.13539 0.18627 0.54165 0.0
C1932 C 0.1165 0.17062 0.45415 0.0
C1933 C 0.10991 0.16512 0.52369 0.0
C1934 C 0.09591 0.13431 0.3859 0.0
C1935 C 0.08649 0.17966 0.3486 0.0
N1936 N 0.10142 0.15804 0.48184 0.0
N1937 N 0.09943 0.18503 0.38871 0.0
H1938 H 0.22032 0.83148 0.46444 0.0
H1939 H 0.09776 0.87294 0.60428 0.0
H1940 H 0.12892 0.80813 0.4213 0.0
H1941 H 0.1897 0.90174 0.64419 0.0
H1942 H 0.10855 0.84898 0.53704 0.0
H1943 H 0.20968 0.85858 0.52973 0.0
C1944 C 0.19804 0.83246 0.46836 0.0
C1945 C 0.17553 0.81776 0.43684 0.0
C1946 C 0.12636 0.86058 0.56053 0.0
C1947 C 0.16294 0.84807 0.51218 0.0
C1948 C 0.12019 0.87406 0.59912 0.0
C1949 C 0.14279 0.88958 0.63016 0.0
C1950 C 0.15539 0.86237 0.55278 0.0
C1951 C 0.17148 0.89045 0.62121 0.0
C1952 C 0.19192 0.8478 0.50576 0.0
C1953 C 0.14701 0.81941 0.44406 0.0
N1954 N 0.1769 0.87711 0.5836 0.0
N1955 N 0.14153 0.83407 0.48084 0.0
H1956 H 0.43448 0.78645 0.84462 0.0
H1957 H 0.56187 0.87274 0.73601 0.0
H1958 H 0.51243 0.8423 0.91443 0.0
H1959 H 0.48481 0.81474 0.6682 0.0
H1960 H 0.54419 0.86331 0.80051 0.0
H1961 H 0.45247 0.79688 0.78063 0.0
C1962 C 0.45575 0.80049 0.84668 0.0
C1963 C 0.4719 0.81301 0.88593 0.0
C1964 C 0.53058 0.85322 0.7716 0.0
C1965 C 0.49274 0.8261 0.81084 0.0
C1966 C 0.54056 0.85881 0.7342 0.0
C1967 C 0.52444 0.84574 0.69495 0.0
C1968 C 0.50374 0.83413 0.7711 0.0
C1969 C 0.49748 0.82718 0.69626 0.0
C1970 C 0.46591 0.80676 0.80974 0.0
C1971 C 0.49917 0.83148 0.88552 0.0
N1972 N 0.48809 0.82217 0.73305 0.0
N1973 N 0.50851 0.83746 0.84905 0.0
H1974 H 0.47619 0.1527 0.38571 0.0
H1975 H 0.4016 0.08488 0.15321 0.0
H1976 H 0.47441 0.06453 0.32389 0.0
H1977 H 0.41342 0.17625 0.20958 0.0
H1978 H 0.42511 0.07631 0.21681 0.0
H1979 H 0.44925 0.1605 0.32451 0.0
C1980 C 0.46976 0.13476 0.35968 0.0
C1981 C 0.47764 0.10787 0.36053 0.0
C1982 C 0.42263 0.09827 0.21539 0.0
C1983 C 0.44698 0.11684 0.28889 0.0
C1984 C 0.40912 0.10322 0.17898 0.0
C1985 C 0.40529 0.13138 0.17581 0.0
C1986 C 0.43246 0.12156 0.24946 0.0
C1987 C 0.41601 0.15424 0.21029 0.0
C1988 C 0.45448 0.13932 0.32431 0.0
C1989 C 0.46874 0.08559 0.32497 0.0
N1990 N 0.42892 0.14881 0.24562 0.0
N1991 N 0.45405 0.09058 0.29071 0.0
H1992 H 0.85691 0.80347 0.60055 0.0
H1993 H 0.00594 0.84673 0.74374 0.0
H1994 H 0.93407 0.77943 0.55824 0.0
H1995 H 0.95692 0.9138 0.74066 0.0
H1996 H 0.97403 0.81601 0.6835 0.0
H1997 H 0.88762 0.83939 0.65891 0.0
C1998 C 0.88026 0.80598 0.60324 0.0
C1999 C 0.89296 0.78881 0.57393 0.0
C2000 C 0.97014 0.83739 0.69607 0.0
C2001 C 0.9279 0.82874 0.64126 0.0
C2002 C 0.98814 0.85483 0.73079 0.0
C2003 C 0.9837 0.88263 0.74791 0.0
C2004 C 0.94712 0.84749 0.6783 0.0
C2005 C 0.96085 0.89235 0.7287 0.0
C2006 C 0.8977 0.82645 0.63643 0.0
C2007 C 0.92331 0.79259 0.57933 0.0
N2008 N 0.94309 0.87463 0.69518 0.0
N2009 N 0.93962 0.81176 0.6125 0.0
H2010 H 0.96956 0.20156 0.58644 0.0
H2011 H 0.92234 0.11989 0.3569 0.0
H2012 H 0.88256 0.19381 0.52987 0.0
H2013 H 0.99085 0.1012 0.43504 0.0
H2014 H 0.90702 0.14743 0.4185 0.0
H2015 H 0.9756 0.16221 0.53369 0.0
C2016 C 0.95095 0.19043 0.5647 0.0
C2017 C 0.92499 0.20037 0.56465 0.0
C2018 C 0.9252 0.13701 0.42207 0.0
C2019 C 0.93362 0.15774 0.49893 0.0
C2020 C 0.93418 0.12167 0.38694 0.0
C2021 C 0.95794 0.10828 0.39083 0.0
C2022 C 0.94037 0.13931 0.46121 0.0
C2023 C 0.97231 0.11097 0.43056 0.0
C2024 C 0.95494 0.1686 0.53303 0.0
C2025 C 0.90292 0.18672 0.53177 0.0
N2026 N 0.96344 0.12628 0.46401 0.0
N2027 N 0.90799 0.16669 0.49962 0.0
H2028 H 0.66068 0.21604 0.07147 0.0
H2029 H 0.63319 0.09804 0.21329 0.0
H2030 H 0.64511 0.1228 1.02454 0.0
H2031 H 0.62053 0.18571 0.25252 0.0
H2032 H 0.63876 0.1075 0.14425 0.0
H2033 H 0.64669 0.2065 0.13793 0.0
C2034 C 0.65403 0.19358 0.07483 0.0
C2035 C 0.65456 0.17022 0.04225 0.0
C2036 C 0.6345 0.12465 0.16773 0.0
C2037 C 0.63898 0.15921 0.11865 0.0
C2038 C 0.63138 0.11925 0.20718 0.0
C2039 C 0.62647 0.14114 0.23864 0.0
C2040 C 0.63324 0.15237 0.15963 0.0
C2041 C 0.62418 0.16821 0.22902 0.0
C2042 C 0.64616 0.18817 0.11292 0.0
C2043 C 0.64589 0.1416 0.04887 0.0
N2044 N 0.62795 0.17322 0.19047 0.0
N2045 N 0.63879 0.13696 0.08626 0.0
H2046 H 0.66903 0.83605 0.77231 0.0
H2047 H 0.65026 0.84666 1.01242 0.0
H2048 H 0.6087 0.881 0.83289 0.0
H2049 H 0.70862 0.79971 0.94992 0.0
H2050 H 0.63167 0.85604 0.94607 0.0
H2051 H 0.68077 0.81902 0.83582 0.0
C2052 C 0.65777 0.84175 0.79867 0.0
C2053 C 0.63803 0.86011 0.7974 0.0
C2054 C 0.64852 0.84363 0.94691 0.0
C2055 C 0.65175 0.8413 0.87059 0.0
C2056 C 0.65894 0.838 0.98478 0.0
C2057 C 0.68143 0.82276 0.98709 0.0
C2058 C 0.66068 0.83403 0.91101 0.0
C2059 C 0.69183 0.81223 0.95003 0.0
C2060 C 0.66474 0.83239 0.83514 0.0
C2061 C 0.62428 0.86709 0.8327 0.0
N2062 N 0.68164 0.8183 0.91381 0.0
N2063 N 0.63156 0.85792 0.86787 0.0
H2064 H 0.58468 0.61007 0.83752 0.0
H2065 H 0.63933 0.74993 0.02657 0.0
H2066 H 0.56844 0.69548 0.83538 0.0
H2067 H 0.63489 0.66305 0.04547 0.0
H2068 H 0.62062 0.73035 0.95391 0.0
H2069 H 0.60664 0.62797 0.9103 0.0
C2070 C 0.58612 0.63276 0.85177 0.0
C2071 C 0.57568 0.65145 0.82832 0.0
C2072 C 0.62248 0.71517 0.97409 0.0
C2073 C 0.6006 0.6723 0.91359 0.0
C2074 C 0.63318 0.72637 1.01624 0.0
C2075 C 0.63432 0.70801 0.04519 0.0
C2076 C 0.614 0.68478 0.95878 0.0
C2077 C 0.62899 0.67784 0.02733 0.0
C2078 C 0.5986 0.64295 0.89373 0.0
C2079 C 0.5771 0.68024 0.85023 0.0
N2080 N 0.61866 0.66719 0.98601 0.0
N2081 N 0.58948 0.68968 0.89069 0.0
H2082 H 0.60495 0.38732 0.11437 0.0
H2083 H 0.72811 0.3421 0.97854 0.0
H2084 H 0.69604 0.40566 0.16034 0.0
H2085 H 0.63737 0.32253 0.93178 0.0
H2086 H 0.71698 0.36837 0.04393 0.0
H2087 H 0.61616 0.36491 0.04656 0.0
C2088 C 0.62725 0.38649 0.11041 0.0
C2089 C 0.64954 0.39864 0.14337 0.0
C2090 C 0.69947 0.35863 1.01916 0.0
C2091 C 0.66264 0.37327 0.06536 0.0
C2092 C 0.70589 0.3438 0.98169 0.0
C2093 C 0.68373 0.33034 0.94915 0.0
C2094 C 0.67052 0.35973 1.02461 0.0
C2095 C 0.65524 0.33286 0.95537 0.0
C2096 C 0.63369 0.3739 0.07151 0.0
C2097 C 0.6781 0.39711 0.13592 0.0
N2098 N 0.64945 0.34706 0.99226 0.0
N2099 N 0.68377 0.38476 0.09796 0.0
H2100 H 0.05073 0.37181 0.2146 0.0
H2101 H 0.0155 0.34033 0.40587 0.0
H2102 H 0.98942 0.29221 0.15955 0.0
H2103 H 0.9334 0.29201 0.33897 0.0
H2104 H 0.03365 0.34586 0.33971 0.0
H2105 H 0.0352 0.36747 0.28214 0.0
C2106 C 0.03331 0.35374 0.21621 0.0
C2107 C 0.02071 0.33307 0.17978 0.0
C2108 C 0.01164 0.33395 0.33921 0.0
C2109 C 0.00277 0.32722 0.2593 0.0
C2110 C 0.00142 0.33023 0.37735 0.0
C2111 C 0.97284 0.31518 0.37879 0.0
C2112 C 0.99332 0.32264 0.30131 0.0
C2113 C 0.95568 0.30342 0.34 0.0
C2114 C 0.02465 0.35101 0.25535 0.0
C2115 C -0.00136 0.30988 0.18524 0.0
N2116 N 0.96607 0.30726 0.30347 0.0
N2117 N 0.99028 0.30779 0.22355 0.0
H2118 H 0.97269 0.64828 0.8746 0.0
H2119 H 0.88579 0.57914 0.64911 0.0
H2120 H 0.95753 0.55672 0.81893 0.0
H2121 H 0.90654 0.67182 0.70095 0.0
H2122 H 0.90975 0.57039 0.71221 0.0
H2123 H 0.94559 0.65689 0.81408 0.0
C2124 C 0.96323 0.62983 0.8501 0.0
C2125 C 0.96719 0.60166 0.8525 0.0
C2126 C 0.90913 0.59266 0.70991 0.0
C2127 C 0.93657 0.61149 0.78158 0.0
C2128 C 0.89534 0.59773 0.67379 0.0
C2129 C 0.89387 0.62632 0.66951 0.0
C2130 C 0.92168 0.6163 0.74252 0.0
C2131 C 0.90723 0.64945 0.70253 0.0
C2132 C 0.9479 0.63483 0.81511 0.0
C2133 C 0.95482 0.57877 0.81878 0.0
N2134 N 0.92041 0.64393 0.73759 0.0
N2135 N 0.94018 0.58417 0.7848 0.0
H2136 H 0.51582 0.36111 0.2466 0.0
H2137 H 0.36147 0.30513 0.114 0.0
H2138 H 0.45455 0.41705 0.2584 0.0
H2139 H 0.44024 0.28935 0.06715 0.0
H2140 H 0.39102 0.34157 0.17282 0.0
H2141 H 0.48442 0.32912 0.18714 0.0
C2142 C 0.49521 0.36614 0.23756 0.0
C2143 C 0.48695 0.39081 0.25928 0.0
C2144 C 0.4017 0.33036 0.14925 0.0
C2145 C 0.4511 0.35465 0.18966 0.0
C2146 C 0.38491 0.30957 0.11583 0.0
C2147 C 0.39839 0.29454 0.08517 0.0
C2148 C 0.43215 0.33524 0.15278 0.0
C2149 C 0.42885 0.30077 0.0894 0.0
C2150 C 0.47751 0.34812 0.20306 0.0
C2151 C 0.46099 0.39743 0.24389 0.0
N2152 N 0.44461 0.32031 0.12265 0.0
N2153 N 0.44365 0.37918 0.2104 0.0
H2154 H 0.44793 0.67969 0.08319 0.0
H2155 H 0.41761 0.62739 0.84058 0.0
H2156 H 0.38155 0.70562 1.01216 0.0
H2157 H 0.4674 0.58771 0.91999 0.0
H2158 H 0.40321 0.65589 0.90209 0.0
H2159 H 0.45037 0.64163 1.02527 0.0
C2160 C 0.43307 0.67671 0.05637 0.0
C2161 C 0.41422 0.69561 0.05413 0.0
C2162 C 0.41712 0.64077 0.90594 0.0
C2163 C 0.42019 0.65503 0.98382 0.0
C2164 C 0.42563 0.62479 0.8709 0.0
C2165 C 0.4437 0.60508 0.87509 0.0
C2166 C 0.42701 0.63723 0.94547 0.0
C2167 C 0.4532 0.60238 0.91516 0.0
C2168 C 0.43539 0.65578 1.02217 0.0
C2169 C 0.39681 0.6918 1.01596 0.0
N2170 N 0.44486 0.61829 0.9486 0.0
N2171 N 0.40082 0.67263 0.98207 0.0
H2172 H 0.13893 0.61033 0.51483 0.0
H2173 H 0.11266 0.67195 0.74708 0.0
H2174 H 0.15396 0.70294 0.56602 0.0
H2175 H 0.1242 0.58455 0.70192 0.0
H2176 H 0.11962 0.68319 0.67857 0.0
H2177 H 0.12511 0.60016 0.58048 0.0
C2178 C 0.13936 0.62862 0.53987 0.0
C2179 C 0.14824 0.6576 0.53485 0.0
C2180 C 0.12045 0.66153 0.68369 0.0
C2181 C 0.13187 0.64593 0.61062 0.0
C2182 C 0.11631 0.65506 0.72264 0.0
C2183 C 0.11805 0.62732 0.73029 0.0
C2184 C 0.12587 0.63994 0.65201 0.0
C2185 C 0.123 0.6063 0.69757 0.0
C2186 C 0.13133 0.62274 0.57743 0.0
C2187 C 0.14734 0.68025 0.5683 0.0
N2188 N 0.12671 0.61303 0.66006 0.0
N2189 N 0.13953 0.67396 0.60484 0.0
H2190 H 0.12862 0.33757 0.25424 0.0
H2191 H 0.12412 0.34172 0.49143 0.0
H2192 H 0.08917 0.40012 0.32836 0.0
H2193 H 0.12522 0.26258 0.40475 0.0
H2194 H 0.10999 0.36365 0.43339 0.0
H2195 H 0.12694 0.30973 0.3089 0.0
C2196 C 0.11927 0.34543 0.2816 0.0
C2197 C 0.10946 0.37177 0.2864 0.0
C2198 C 0.11284 0.34129 0.42718 0.0
C2199 C 0.10849 0.34012 0.35037 0.0
C2200 C 0.12065 0.32868 0.46036 0.0
C2201 C 0.12646 0.30047 0.45296 0.0
C2202 C 0.11122 0.3257 0.38638 0.0
C2203 C 0.12173 0.28468 0.41188 0.0
C2204 C 0.11851 0.32949 0.31311 0.0
C2205 C 0.09801 0.38064 0.32339 0.0
N2206 N 0.11504 0.29769 0.38023 0.0
N2207 N 0.0983 0.3652 0.35407 0.0
loop_
_geom_bond_atom_site_label_1
_geom_bond_atom_site_label_2
_geom_bond_distance
_geom_bond_site_symmetry_2
_ccdc_geom_bond_type
Eu0 N31 2.657 . S
Eu0 N38 2.609 . S
Eu0 O44 2.558 . S
Eu0 O45 2.612 1_455 S
Eu0 O47 2.339 . S
Eu0 O48 2.563 . S
Eu0 O49 2.419 . S
Eu0 O51 2.380 . S
Eu0 O52 2.432 . S
Eu0 C64 2.848 . S
C1 C4 1.429 . S
C1 C5 1.411 . S
C1 N8 1.377 . S
C2 C4 1.420 . S
C2 C6 1.423 . S
C2 C14 1.392 . S
C3 C5 1.420 . S
C3 C6 1.351 . S
C3 H26 0.931 . S
C4 C1 1.429 . S
C4 C2 1.420 . S
C4 N12 1.362 . S
C5 C1 1.411 . S
C5 C3 1.420 . S
C5 C10 1.395 . S
C6 C2 1.423 . S
C6 C3 1.351 . S
C6 H18 0.930 . S
C7 C9 1.400 . S
C7 C10 1.386 . S
C7 H19 0.930 . S
N8 C1 1.377 . S
N8 C9 1.321 . S
N8 Eu11 2.609 . S
C9 C7 1.400 . S
C9 N8 1.321 . S
C9 H16 0.930 . S
C10 C5 1.395 . S
C10 C7 1.386 . S
C10 H29 0.930 . S
Eu11 N8 2.609 . S
Eu11 N12 2.657 . S
Eu11 O45 2.380 . S
Eu11 O46 2.432 . S
Eu11 O50 2.558 . S
Eu11 O51 2.612 1_655 S
Eu11 O53 2.339 . S
Eu11 O54 2.563 1_655 S
Eu11 O55 2.419 . S
Eu11 C75 2.848 . S
N12 C4 1.362 . S
N12 Eu11 2.657 . S
N12 C13 1.334 . S
C13 N12 1.334 . S
C13 C15 1.413 . S
C13 H20 0.929 . S
C14 C2 1.392 . S
C14 C15 1.367 . S
C14 H22 0.930 . S
C15 C13 1.413 . S
C15 C14 1.367 . S
C15 H17 0.930 . S
H16 C9 0.930 . S
H17 C15 0.930 . S
H18 C6 0.930 . S
H19 C7 0.930 . S
H20 C13 0.929 . S
H21 C35 0.930 . S
H22 C14 0.930 . S
H23 C41 0.930 . S
H24 C32 0.929 . S
H25 C39 0.930 . S
H26 C3 0.931 . S
H27 C33 0.930 . S
H28 C66 0.930 . S
H29 C10 0.930 . S
H30 C65 0.931 . S
N31 Eu0 2.657 . S
N31 C32 1.334 . S
N31 C36 1.362 . S
C32 H24 0.929 . S
C32 N31 1.334 . S
C32 C35 1.413 . S
C33 H27 0.930 . S
C33 C34 1.392 . S
C33 C35 1.367 . S
C34 C33 1.392 . S
C34 C36 1.420 . S
C34 C66 1.423 . S
C35 H21 0.930 . S
C35 C32 1.413 . S
C35 C33 1.367 . S
C36 N31 1.362 . S
C36 C34 1.420 . S
C36 C40 1.429 . S
H37 C42 0.930 . S
N38 Eu0 2.609 . S
N38 C40 1.377 . S
N38 C41 1.321 . S
C39 H25 0.930 . S
C39 C41 1.400 . S
C39 C42 1.386 . S
C40 C36 1.429 . S
C40 N38 1.377 . S
C40 C43 1.411 . S
C41 H23 0.930 . S
C41 N38 1.321 . S
C41 C39 1.400 . S
C42 H37 0.930 . S
C42 C39 1.386 . S
C42 C43 1.395 . S
C43 C40 1.411 . S
C43 C42 1.395 . S
C43 C65 1.420 . S
O44 Eu0 2.558 . S
O44 C64 1.257 . S
O45 Eu0 2.612 1_655 S
O45 Eu11 2.380 . S
O45 C56 1.276 . S
O46 Eu11 2.432 . S
O46 C63 1.264 1_655 S
O47 Eu0 2.339 . S
O47 C63 1.254 . S
O48 Eu0 2.563 . S
O48 C56 1.235 1_455 S
O49 Eu0 2.419 . S
O49 C64 1.249 . S
O50 Eu11 2.558 . S
O50 C75 1.257 . S
O51 Eu0 2.380 . S
O51 Eu11 2.612 1_455 S
O51 C67 1.276 . S
O52 Eu0 2.432 . S
O52 C74 1.264 . S
O53 Eu11 2.339 . S
O53 C74 1.254 1_655 S
O54 Eu11 2.563 1_455 S
O54 C67 1.235 . S
O55 Eu11 2.419 . S
O55 C75 1.249 . S
C56 O45 1.276 . S
C56 O48 1.235 1_655 S
C57 C59 1.398 . S
C57 C61 1.395 . S
C57 C64 1.492 . S
C58 C59 1.385 1_556 S
C58 C60 1.386 . S
C59 C57 1.398 . S
C59 C58 1.385 1_554 S
C59 H76 0.933 . S
C60 C58 1.386 . S
C60 C62 1.395 . S
C60 H77 0.930 . S
C61 C57 1.395 . S
C61 C62 1.379 1_554 S
C61 H78 0.930 . S
C62 C60 1.395 . S
C62 C61 1.379 1_556 S
C62 H79 0.930 . S
C63 O46 1.264 1_455 S
C63 O47 1.254 . S
C64 Eu0 2.848 . S
C64 O44 1.257 . S
C64 O49 1.249 . S
C64 C57 1.492 . S
C65 H30 0.931 . S
C65 C43 1.420 . S
C65 C66 1.351 . S
C66 H28 0.930 . S
C66 C34 1.423 . S
C66 C65 1.351 . S
C67 O51 1.276 . S
C67 O54 1.235 . S
C68 C69 1.393 . S
C68 C72 1.395 . S
C68 C75 1.492 . S
C69 C68 1.393 . S
C69 C70 1.392 . S
C69 H80 0.930 . S
C70 C69 1.392 . S
C70 C71 1.386 . S
C71 C70 1.386 . S
C71 C73 1.395 . S
C71 H81 0.930 . S
C72 C68 1.395 . S
C72 C73 1.379 . S
C72 H82 0.930 . S
C73 C71 1.395 . S
C73 C72 1.379 . S
C73 H83 0.930 . S
C74 O52 1.264 . S
C74 O53 1.254 1_455 S
C75 Eu11 2.848 . S
C75 O50 1.257 . S
C75 O55 1.249 . S
C75 C68 1.492 . S
H76 C59 0.933 . S
H77 C60 0.930 . S
H78 C61 0.930 . S
H79 C62 0.930 . S
H80 C69 0.930 . S
H81 C71 0.930 . S
H82 C72 0.930 . S
H83 C73 0.930 . S
Eu84 N115 2.657 . S
Eu84 N122 2.609 . S
Eu84 O128 2.558 . S
Eu84 O129 2.612 . S
Eu84 O131 2.339 . S
Eu84 O132 2.563 . S
Eu84 O133 2.419 . S
Eu84 O135 2.380 . S
Eu84 O136 2.432 . S
Eu84 C148 2.848 . S
C85 C88 1.429 . S
C85 C89 1.411 . S
C85 N92 1.377 . S
C86 C88 1.420 . S
C86 C90 1.423 . S
C86 C98 1.392 . S
C87 C89 1.420 . S
C87 C90 1.351 . S
C87 H110 0.931 . S
C88 C85 1.429 . S
C88 C86 1.420 . S
C88 N96 1.362 . S
C89 C85 1.411 . S
C89 C87 1.420 . S
C89 C94 1.395 . S
C90 C86 1.423 . S
C90 C87 1.351 . S
C90 H102 0.930 . S
C91 C93 1.400 . S
C91 C94 1.386 . S
C91 H103 0.930 . S
N92 C85 1.377 . S
N92 C93 1.321 . S
N92 Eu95 2.609 . S
C93 C91 1.400 . S
C93 N92 1.321 . S
C93 H100 0.930 . S
C94 C89 1.395 . S
C94 C91 1.386 . S
C94 H113 0.930 . S
Eu95 N92 2.609 . S
Eu95 N96 2.657 . S
Eu95 O129 2.380 . S
Eu95 O130 2.432 . S
Eu95 O134 2.558 . S
Eu95 O135 2.612 . S
Eu95 O137 2.339 . S
Eu95 O138 2.563 . S
Eu95 O139 2.419 . S
Eu95 C159 2.848 . S
N96 C88 1.362 . S
N96 Eu95 2.657 . S
N96 C97 1.334 . S
C97 N96 1.334 . S
C97 C99 1.413 . S
C97 H104 0.929 . S
C98 C86 1.392 . S
C98 C99 1.367 . S
C98 H106 0.930 . S
C99 C97 1.413 . S
C99 C98 1.367 . S
C99 H101 0.930 . S
H100 C93 0.930 . S
H101 C99 0.930 . S
H102 C90 0.930 . S
H103 C91 0.930 . S
H104 C97 0.929 . S
H105 C119 0.930 . S
H106 C98 0.930 . S
H107 C125 0.930 . S
H108 C116 0.929 . S
H109 C123 0.930 . S
H110 C87 0.931 . S
H111 C117 0.930 . S
H112 C150 0.930 . S
H113 C94 0.930 . S
H114 C149 0.931 . S
N115 Eu84 2.657 . S
N115 C116 1.334 . S
N115 C120 1.362 . S
C116 H108 0.929 . S
C116 N115 1.334 . S
C116 C119 1.413 . S
C117 H111 0.930 . S
C117 C118 1.392 . S
C117 C119 1.367 . S
C118 C117 1.392 . S
C118 C120 1.420 . S
C118 C150 1.423 . S
C119 H105 0.930 . S
C119 C116 1.413 . S
C119 C117 1.367 . S
C120 N115 1.362 . S
C120 C118 1.420 . S
C120 C124 1.429 . S
H121 C126 0.930 . S
N122 Eu84 2.609 . S
N122 C124 1.377 . S
N122 C125 1.321 . S
C123 H109 0.930 . S
C123 C125 1.400 . S
C123 C126 1.386 . S
C124 C120 1.429 . S
C124 N122 1.377 . S
C124 C127 1.411 . S
C125 H107 0.930 . S
C125 N122 1.321 . S
C125 C123 1.400 . S
C126 H121 0.930 . S
C126 C123 1.386 . S
C126 C127 1.395 . S
C127 C124 1.411 . S
C127 C126 1.395 . S
C127 C149 1.420 . S
O128 Eu84 2.558 . S
O128 C148 1.257 . S
O129 Eu84 2.612 . S
O129 Eu95 2.380 . S
O129 C140 1.276 . S
O130 Eu95 2.432 . S
O130 C147 1.264 . S
O131 Eu84 2.339 . S
O131 C147 1.254 . S
O132 Eu84 2.563 . S
O132 C140 1.235 . S
O133 Eu84 2.419 . S
O133 C148 1.249 . S
O134 Eu95 2.558 . S
O134 C159 1.257 . S
O135 Eu84 2.380 . S
O135 Eu95 2.612 . S
O135 C151 1.276 . S
O136 Eu84 2.432 . S
O136 C158 1.264 . S
O137 Eu95 2.339 . S
O137 C158 1.254 . S
O138 Eu95 2.563 . S
O138 C151 1.235 . S
O139 Eu95 2.419 . S
O139 C159 1.249 . S
C140 O129 1.276 . S
C140 O132 1.235 . S
C141 C143 1.393 . S
C141 C145 1.395 . S
C141 C148 1.492 . S
C142 C143 1.392 . S
C142 C144 1.386 . S
C143 C141 1.393 . S
C143 C142 1.392 . S
C143 H160 0.930 . S
C144 C142 1.386 . S
C144 C146 1.395 . S
C144 H161 0.930 . S
C145 C141 1.395 . S
C145 C146 1.379 . S
C145 H162 0.930 . S
C146 C144 1.395 . S
C146 C145 1.379 . S
C146 H163 0.930 . S
C147 O130 1.264 . S
C147 O131 1.254 . S
C148 Eu84 2.848 . S
C148 O128 1.257 . S
C148 O133 1.249 . S
C148 C141 1.492 . S
C149 H114 0.931 . S
C149 C127 1.420 . S
C149 C150 1.351 . S
C150 H112 0.930 . S
C150 C118 1.423 . S
C150 C149 1.351 . S
C151 O135 1.276 . S
C151 O138 1.235 . S
C152 C153 1.393 . S
C152 C156 1.395 . S
C152 C159 1.492 . S
C153 C152 1.393 . S
C153 C154 1.392 . S
C153 H164 0.930 . S
C154 C153 1.392 . S
C154 C155 1.386 . S
C155 C154 1.386 . S
C155 C157 1.395 . S
C155 H165 0.930 . S
C156 C152 1.395 . S
C156 C157 1.379 . S
C156 H166 0.930 . S
C157 C155 1.395 . S
C157 C156 1.379 . S
C157 H167 0.930 . S
C158 O136 1.264 . S
C158 O137 1.254 . S
C159 Eu95 2.848 . S
C159 O134 1.257 . S
C159 O139 1.249 . S
C159 C152 1.492 . S
H160 C143 0.930 . S
H161 C144 0.930 . S
H162 C145 0.930 . S
H163 C146 0.930 . S
H164 C153 0.930 . S
H165 C155 0.930 . S
H166 C156 0.930 . S
H167 C157 0.930 . S
Eu168 N199 2.657 . S
Eu168 N206 2.609 . S
Eu168 O212 2.558 . S
Eu168 O213 2.612 . S
Eu168 O215 2.339 . S
Eu168 O216 2.563 . S
Eu168 O217 2.419 . S
Eu168 O219 2.380 . S
Eu168 O220 2.432 . S
Eu168 C232 2.848 . S
C169 C172 1.429 . S
C169 C173 1.411 . S
C169 N176 1.377 . S
C170 C172 1.420 . S
C170 C174 1.423 . S
C170 C182 1.392 . S
C171 C173 1.420 . S
C171 C174 1.351 . S
C171 H194 0.931 . S
C172 C169 1.429 . S
C172 C170 1.420 . S
C172 N180 1.362 . S
C173 C169 1.411 . S
C173 C171 1.420 . S
C173 C178 1.395 . S
C174 C170 1.423 . S
C174 C171 1.351 . S
C174 H186 0.930 . S
C175 C177 1.400 . S
C175 C178 1.386 . S
C175 H187 0.930 1_565 S
N176 C169 1.377 . S
N176 C177 1.321 . S
N176 Eu179 2.609 . S
C177 C175 1.400 . S
C177 N176 1.321 . S
C177 H184 0.930 . S
C178 C173 1.395 . S
C178 C175 1.386 . S
C178 H197 0.930 . S
Eu179 N176 2.609 . S
Eu179 N180 2.657 . S
Eu179 O213 2.380 . S
Eu179 O214 2.432 . S
Eu179 O218 2.558 . S
Eu179 O219 2.612 . S
Eu179 O221 2.339 . S
Eu179 O222 2.563 . S
Eu179 O223 2.419 . S
Eu179 C243 2.848 . S
N180 C172 1.362 . S
N180 Eu179 2.657 . S
N180 C181 1.334 . S
C181 N180 1.334 . S
C181 C183 1.413 . S
C181 H188 0.929 . S
C182 C170 1.392 . S
C182 C183 1.367 . S
C182 H190 0.930 . S
C183 C181 1.413 . S
C183 C182 1.367 . S
C183 H185 0.930 . S
H184 C177 0.930 . S
H185 C183 0.930 . S
H186 C174 0.930 . S
H187 C175 0.930 1_545 S
H188 C181 0.929 . S
H189 C203 0.930 . S
H190 C182 0.930 . S
H191 C209 0.930 . S
H192 C200 0.929 . S
H193 C207 0.930 . S
H194 C171 0.931 . S
H195 C201 0.930 . S
H196 C234 0.930 . S
H197 C178 0.930 . S
H198 C233 0.931 . S
N199 Eu168 2.657 . S
N199 C200 1.334 . S
N199 C204 1.362 . S
C200 H192 0.929 . S
C200 N199 1.334 . S
C200 C203 1.413 . S
C201 H195 0.930 . S
C201 C202 1.392 . S
C201 C203 1.367 . S
C202 C201 1.392 . S
C202 C204 1.420 . S
C202 C234 1.423 . S
C203 H189 0.930 . S
C203 C200 1.413 . S
C203 C201 1.367 . S
C204 N199 1.362 . S
C204 C202 1.420 . S
C204 C208 1.429 . S
H205 C210 0.930 . S
N206 Eu168 2.609 . S
N206 C208 1.377 . S
N206 C209 1.321 . S
C207 H193 0.930 . S
C207 C209 1.400 . S
C207 C210 1.386 . S
C208 C204 1.429 . S
C208 N206 1.377 . S
C208 C211 1.411 . S
C209 H191 0.930 . S
C209 N206 1.321 . S
C209 C207 1.400 . S
C210 H205 0.930 . S
C210 C207 1.386 . S
C210 C211 1.395 . S
C211 C208 1.411 . S
C211 C210 1.395 . S
C211 C233 1.420 . S
O212 Eu168 2.558 . S
O212 C232 1.257 . S
O213 Eu168 2.612 . S
O213 Eu179 2.380 . S
O213 C224 1.276 . S
O214 Eu179 2.432 . S
O214 C231 1.264 . S
O215 Eu168 2.339 . S
O215 C231 1.254 . S
O216 Eu168 2.563 . S
O216 C224 1.235 . S
O217 Eu168 2.419 . S
O217 C232 1.249 . S
O218 Eu179 2.558 . S
O218 C243 1.257 . S
O219 Eu168 2.380 . S
O219 Eu179 2.612 . S
O219 C235 1.276 . S
O220 Eu168 2.432 . S
O220 C242 1.264 . S
O221 Eu179 2.339 . S
O221 C242 1.254 . S
O222 Eu179 2.563 . S
O222 C235 1.235 . S
O223 Eu179 2.419 . S
O223 C243 1.249 . S
C224 O213 1.276 . S
C224 O216 1.235 . S
C225 C227 1.393 . S
C225 C229 1.395 . S
C225 C232 1.492 . S
C226 C227 1.392 . S
C226 C228 1.386 . S
C227 C225 1.393 . S
C227 C226 1.392 . S
C227 H244 0.930 . S
C228 C226 1.386 . S
C228 C230 1.395 . S
C228 H245 0.930 . S
C229 C225 1.395 . S
C229 C230 1.379 . S
C229 H246 0.930 . S
C230 C228 1.395 . S
C230 C229 1.379 . S
C230 H247 0.930 . S
C231 O214 1.264 . S
C231 O215 1.254 . S
C232 Eu168 2.848 . S
C232 O212 1.257 . S
C232 O217 1.249 . S
C232 C225 1.492 . S
C233 H198 0.931 . S
C233 C211 1.420 . S
C233 C234 1.351 . S
C234 H196 0.930 . S
C234 C202 1.423 . S
C234 C233 1.351 . S
C235 O219 1.276 . S
C235 O222 1.235 . S
C236 C237 1.393 . S
C236 C240 1.395 . S
C236 C243 1.492 . S
C237 C236 1.393 . S
C237 C238 1.392 . S
C237 H248 0.930 . S
C238 C237 1.392 . S
C238 C239 1.386 . S
C239 C238 1.386 . S
C239 C241 1.395 . S
C239 H249 0.930 . S
C240 C236 1.395 . S
C240 C241 1.379 . S
C240 H250 0.930 . S
C241 C239 1.395 . S
C241 C240 1.379 . S
C241 H251 0.930 . S
C242 O220 1.264 . S
C242 O221 1.254 . S
C243 Eu179 2.848 . S
C243 O218 1.257 . S
C243 O223 1.249 . S
C243 C236 1.492 . S
H244 C227 0.930 . S
H245 C228 0.930 . S
H246 C229 0.930 . S
H247 C230 0.930 . S
H248 C237 0.930 . S
H249 C239 0.930 . S
H250 C240 0.930 . S
H251 C241 0.930 . S
Eu252 N283 2.657 . S
Eu252 N290 2.609 . S
Eu252 O296 2.558 . S
Eu252 O297 2.612 . S
Eu252 O299 2.339 . S
Eu252 O300 2.569 . S
Eu252 O301 2.419 . S
Eu252 O303 2.380 . S
Eu252 O304 2.432 . S
Eu252 C316 2.848 . S
C253 C256 1.429 . S
C253 C257 1.411 . S
C253 N260 1.377 . S
C254 C256 1.420 . S
C254 C258 1.423 . S
C254 C266 1.392 . S
C255 C257 1.420 . S
C255 C258 1.351 . S
C255 H278 0.931 . S
C256 C253 1.429 . S
C256 C254 1.420 . S
C256 N264 1.362 . S
C257 C253 1.411 . S
C257 C255 1.420 . S
C257 C262 1.395 . S
C258 C254 1.423 . S
C258 C255 1.351 . S
C258 H270 0.930 1_556 S
C259 C261 1.400 . S
C259 C262 1.386 . S
C259 H271 0.930 . S
N260 C253 1.377 . S
N260 C261 1.321 . S
N260 Eu263 2.609 . S
C261 C259 1.400 . S
C261 N260 1.321 . S
C261 H268 0.930 . S
C262 C257 1.395 . S
C262 C259 1.386 . S
C262 H281 0.930 . S
Eu263 N260 2.609 . S
Eu263 N264 2.657 . S
Eu263 O297 2.380 . S
Eu263 O298 2.432 . S
Eu263 O302 2.558 . S
Eu263 O303 2.612 . S
Eu263 O305 2.339 . S
Eu263 O306 2.563 . S
Eu263 O307 2.419 . S
Eu263 C327 2.848 . S
N264 C256 1.362 . S
N264 Eu263 2.657 . S
N264 C265 1.334 . S
C265 N264 1.334 . S
C265 C267 1.413 . S
C265 H272 0.929 . S
C266 C254 1.392 . S
C266 C267 1.367 . S
C266 H274 0.927 1_556 S
C267 C265 1.413 . S
C267 C266 1.367 . S
C267 H269 0.930 . S
H268 C261 0.930 . S
H269 C267 0.930 . S
H270 C258 0.930 1_554 S
H271 C259 0.930 . S
H272 C265 0.929 . S
H273 C287 0.930 . S
H274 C266 0.927 1_554 S
H275 C293 0.930 . S
H276 C284 0.929 . S
H277 C291 0.930 . S
H278 C255 0.931 . S
H279 C285 0.930 . S
H280 C318 0.930 . S
H281 C262 0.930 . S
H282 C317 0.931 . S
N283 Eu252 2.657 . S
N283 C284 1.334 . S
N283 C288 1.362 . S
C284 H276 0.929 . S
C284 N283 1.334 . S
C284 C287 1.413 . S
C285 H279 0.930 . S
C285 C286 1.392 . S
C285 C287 1.367 . S
C286 C285 1.392 . S
C286 C288 1.420 . S
C286 C318 1.423 . S
C287 H273 0.930 . S
C287 C284 1.413 . S
C287 C285 1.367 . S
C288 N283 1.362 . S
C288 C286 1.420 . S
C288 C292 1.429 . S
H289 C294 0.930 . S
N290 Eu252 2.609 . S
N290 C292 1.377 . S
N290 C293 1.321 . S
C291 H277 0.930 . S
C291 C293 1.400 . S
C291 C294 1.386 . S
C292 C288 1.429 . S
C292 N290 1.377 . S
C292 C295 1.411 . S
C293 H275 0.930 . S
C293 N290 1.321 . S
C293 C291 1.400 . S
C294 H289 0.930 . S
C294 C291 1.386 . S
C294 C295 1.395 . S
C295 C292 1.411 . S
C295 C294 1.395 . S
C295 C317 1.420 . S
O296 Eu252 2.558 . S
O296 C316 1.257 . S
O297 Eu252 2.612 . S
O297 Eu263 2.380 . S
O297 C308 1.276 . S
O298 Eu263 2.432 . S
O298 C315 1.264 . S
O299 Eu252 2.339 . S
O299 C315 1.254 . S
O300 Eu252 2.569 . S
O300 C308 1.239 . S
O301 Eu252 2.419 . S
O301 C316 1.249 . S
O302 Eu263 2.558 . S
O302 C327 1.257 . S
O303 Eu252 2.380 . S
O303 Eu263 2.612 . S
O303 C319 1.276 . S
O304 Eu252 2.432 . S
O304 C326 1.264 . S
O305 Eu263 2.339 . S
O305 C326 1.254 . S
O306 Eu263 2.563 . S
O306 C319 1.235 . S
O307 Eu263 2.419 . S
O307 C327 1.249 . S
C308 O297 1.276 . S
C308 O300 1.239 . S
C309 C311 1.393 . S
C309 C313 1.395 . S
C309 C316 1.492 1_554 S
C310 C311 1.392 . S
C310 C312 1.386 . S
C311 C309 1.393 . S
C311 C310 1.392 . S
C311 H328 0.930 . S
C312 C310 1.386 . S
C312 C314 1.395 . S
C312 H329 0.930 . S
C313 C309 1.395 . S
C313 C314 1.379 . S
C313 H330 0.930 . S
C314 C312 1.395 . S
C314 C313 1.379 . S
C314 H331 0.930 . S
C315 O298 1.264 . S
C315 O299 1.254 . S
C316 Eu252 2.848 . S
C316 O296 1.257 . S
C316 O301 1.249 . S
C316 C309 1.492 1_556 S
C317 H282 0.931 . S
C317 C295 1.420 . S
C317 C318 1.351 . S
C318 H280 0.930 . S
C318 C286 1.423 . S
C318 C317 1.351 . S
C319 O303 1.276 . S
C319 O306 1.235 . S
C320 C321 1.393 . S
C320 C324 1.395 . S
C320 C327 1.492 . S
C321 C320 1.393 . S
C321 C322 1.392 . S
C321 H332 0.930 . S
C322 C321 1.392 . S
C322 C323 1.386 . S
C323 C322 1.386 . S
C323 C325 1.395 . S
C323 H333 0.930 . S
C324 C320 1.395 . S
C324 C325 1.379 . S
C324 H334 0.930 . S
C325 C323 1.395 . S
C325 C324 1.379 . S
C325 H335 0.930 . S
C326 O304 1.264 . S
C326 O305 1.254 . S
C327 Eu263 2.848 . S
C327 O302 1.257 . S
C327 O307 1.249 . S
C327 C320 1.492 . S
H328 C311 0.930 . S
H329 C312 0.930 . S
H330 C313 0.930 . S
H331 C314 0.930 . S
H332 C321 0.930 . S
H333 C323 0.930 . S
H334 C324 0.930 . S
H335 C325 0.930 . S
Eu336 N367 2.657 . S
Eu336 N374 2.609 . S
Eu336 O380 2.558 . S
Eu336 O381 2.612 . S
Eu336 O383 2.339 . S
Eu336 O384 2.563 . S
Eu336 O385 2.419 . S
Eu336 O387 2.380 . S
Eu336 O388 2.432 . S
Eu336 C400 2.848 . S
C337 C340 1.429 . S
C337 C341 1.411 . S
C337 N344 1.377 . S
C338 C340 1.420 . S
C338 C342 1.423 . S
C338 C350 1.392 . S
C339 C341 1.420 . S
C339 C342 1.351 . S
C339 H362 0.931 . S
C340 C337 1.429 . S
C340 C338 1.420 . S
C340 N348 1.362 . S
C341 C337 1.411 . S
C341 C339 1.420 . S
C341 C346 1.395 . S
C342 C338 1.423 . S
C342 C339 1.351 . S
C342 H354 0.930 . S
C343 C345 1.400 . S
C343 C346 1.386 . S
C343 H355 0.930 . S
N344 C337 1.377 . S
N344 C345 1.321 . S
N344 Eu347 2.609 1_655 S
C345 C343 1.400 . S
C345 N344 1.321 . S
C345 H352 0.930 . S
C346 C341 1.395 . S
C346 C343 1.386 . S
C346 H365 0.930 . S
Eu347 N344 2.609 1_455 S
Eu347 N348 2.657 1_455 S
Eu347 O381 2.380 . S
Eu347 O382 2.432 . S
Eu347 O386 2.558 1_455 S
Eu347 O387 2.612 . S
Eu347 O389 2.339 . S
Eu347 O390 2.563 . S
Eu347 O391 2.419 1_455 S
Eu347 C411 2.848 1_455 S
N348 C340 1.362 . S
N348 Eu347 2.657 1_655 S
N348 C349 1.334 . S
C349 N348 1.334 . S
C349 C351 1.413 . S
C349 H356 0.929 . S
C350 C338 1.392 . S
C350 C351 1.367 . S
C350 H358 0.930 . S
C351 C349 1.413 . S
C351 C350 1.367 . S
C351 H353 0.930 . S
H352 C345 0.930 . S
H353 C351 0.930 . S
H354 C342 0.930 . S
H355 C343 0.930 . S
H356 C349 0.929 . S
H357 C371 0.930 . S
H358 C350 0.930 . S
H359 C377 0.930 . S
H360 C368 0.929 . S
H361 C375 0.930 . S
H362 C339 0.931 . S
H363 C369 0.930 . S
H364 C402 0.930 . S
H365 C346 0.930 . S
H366 C401 0.931 . S
N367 Eu336 2.657 . S
N367 C368 1.334 . S
N367 C372 1.362 . S
C368 H360 0.929 . S
C368 N367 1.334 . S
C368 C371 1.413 . S
C369 H363 0.930 . S
C369 C370 1.392 . S
C369 C371 1.367 . S
C370 C369 1.392 . S
C370 C372 1.420 . S
C370 C402 1.423 . S
C371 H357 0.930 . S
C371 C368 1.413 . S
C371 C369 1.367 . S
C372 N367 1.362 . S
C372 C370 1.420 . S
C372 C376 1.429 . S
H373 C378 0.930 . S
N374 Eu336 2.609 . S
N374 C376 1.377 . S
N374 C377 1.321 . S
C375 H361 0.930 . S
C375 C377 1.400 . S
C375 C378 1.386 . S
C376 C372 1.429 . S
C376 N374 1.377 . S
C376 C379 1.411 . S
C377 H359 0.930 . S
C377 N374 1.321 . S
C377 C375 1.400 . S
C378 H373 0.930 . S
C378 C375 1.386 . S
C378 C379 1.395 . S
C379 C376 1.411 . S
C379 C378 1.395 . S
C379 C401 1.420 . S
O380 Eu336 2.558 . S
O380 C400 1.257 . S
O381 Eu336 2.612 . S
O381 Eu347 2.380 . S
O381 C392 1.276 . S
O382 Eu347 2.432 . S
O382 C399 1.264 . S
O383 Eu336 2.339 . S
O383 C399 1.254 . S
O384 Eu336 2.563 . S
O384 C392 1.235 . S
O385 Eu336 2.419 . S
O385 C400 1.249 . S
O386 Eu347 2.558 1_655 S
O386 C411 1.257 . S
O387 Eu336 2.380 . S
O387 Eu347 2.612 . S
O387 C403 1.276 . S
O388 Eu336 2.432 . S
O388 C410 1.264 . S
O389 Eu347 2.339 . S
O389 C410 1.254 . S
O390 Eu347 2.563 . S
O390 C403 1.235 . S
O391 Eu347 2.419 1_655 S
O391 C411 1.249 . S
C392 O381 1.276 . S
C392 O384 1.235 . S
C393 C395 1.393 . S
C393 C397 1.395 . S
C393 C400 1.492 . S
C394 C395 1.392 . S
C394 C396 1.386 . S
C395 C393 1.393 . S
C395 C394 1.392 . S
C395 H412 0.930 . S
C396 C394 1.386 . S
C396 C398 1.395 . S
C396 H413 0.930 . S
C397 C393 1.395 . S
C397 C398 1.379 . S
C397 H414 0.930 . S
C398 C396 1.395 . S
C398 C397 1.379 . S
C398 H415 0.930 . S
C399 O382 1.264 . S
C399 O383 1.254 . S
C400 Eu336 2.848 . S
C400 O380 1.257 . S
C400 O385 1.249 . S
C400 C393 1.492 . S
C401 H366 0.931 . S
C401 C379 1.420 . S
C401 C402 1.351 . S
C402 H364 0.930 . S
C402 C370 1.423 . S
C402 C401 1.351 . S
C403 O387 1.276 . S
C403 O390 1.235 . S
C404 C405 1.393 1_556 S
C404 C408 1.395 . S
C404 C411 1.492 . S
C405 C404 1.393 1_554 S
C405 C406 1.392 . S
C405 H416 0.930 1_554 S
C406 C405 1.392 . S
C406 C407 1.386 . S
C407 C406 1.386 . S
C407 C409 1.395 . S
C407 H417 0.930 . S
C408 C404 1.395 . S
C408 C409 1.379 1_556 S
C408 H418 0.930 . S
C409 C407 1.395 . S
C409 C408 1.379 1_554 S
C409 H419 0.930 . S
C410 O388 1.264 . S
C410 O389 1.254 . S
C411 Eu347 2.848 1_655 S
C411 O386 1.257 . S
C411 O391 1.249 . S
C411 C404 1.492 . S
H412 C395 0.930 . S
H413 C396 0.930 . S
H414 C397 0.930 . S
H415 C398 0.930 . S
H416 C405 0.930 1_556 S
H417 C407 0.930 . S
H418 C408 0.930 . S
H419 C409 0.930 . S
Eu420 N451 2.657 . S
Eu420 N458 2.609 . S
Eu420 O464 2.558 . S
Eu420 O465 2.612 . S
Eu420 O467 2.339 . S
Eu420 O468 2.563 . S
Eu420 O469 2.419 . S
Eu420 O471 2.380 . S
Eu420 O472 2.432 . S
Eu420 C484 2.848 . S
C421 C424 1.429 . S
C421 C425 1.411 . S
C421 N428 1.377 . S
C422 C424 1.420 . S
C422 C426 1.423 . S
C422 C434 1.392 . S
C423 C425 1.420 . S
C423 C426 1.351 . S
C423 H446 0.931 . S
C424 C421 1.429 . S
C424 C422 1.420 . S
C424 N432 1.362 . S
C425 C421 1.411 . S
C425 C423 1.420 . S
C425 C430 1.395 . S
C426 C422 1.423 . S
C426 C423 1.351 . S
C426 H438 0.930 . S
C427 C429 1.400 . S
C427 C430 1.386 . S
C427 H439 0.930 . S
N428 C421 1.377 . S
N428 C429 1.321 . S
N428 Eu431 2.609 . S
C429 C427 1.400 . S
C429 N428 1.321 . S
C429 H436 0.930 . S
C430 C425 1.395 . S
C430 C427 1.386 . S
C430 H449 0.930 . S
Eu431 N428 2.609 . S
Eu431 N432 2.657 . S
Eu431 O465 2.380 . S
Eu431 O466 2.432 . S
Eu431 O470 2.558 . S
Eu431 O471 2.612 . S
Eu431 O473 2.339 . S
Eu431 O474 2.563 . S
Eu431 O475 2.419 . S
Eu431 C495 2.848 . S
N432 C424 1.362 . S
N432 Eu431 2.657 . S
N432 C433 1.334 . S
C433 N432 1.334 . S
C433 C435 1.413 . S
C433 H440 0.929 . S
C434 C422 1.392 . S
C434 C435 1.367 . S
C434 H442 0.930 . S
C435 C433 1.413 . S
C435 C434 1.367 . S
C435 H437 0.930 . S
H436 C429 0.930 . S
H437 C435 0.930 . S
H438 C426 0.930 . S
H439 C427 0.930 . S
H440 C433 0.929 . S
H441 C455 0.930 . S
H442 C434 0.930 . S
H443 C461 0.930 . S
H444 C452 0.929 . S
H445 C459 0.930 . S
H446 C423 0.931 . S
H447 C453 0.930 . S
H448 C486 0.930 . S
H449 C430 0.930 . S
H450 C485 0.931 . S
N451 Eu420 2.657 . S
N451 C452 1.334 . S
N451 C456 1.362 . S
C452 H444 0.929 . S
C452 N451 1.334 . S
C452 C455 1.413 . S
C453 H447 0.930 . S
C453 C454 1.392 . S
C453 C455 1.367 . S
C454 C453 1.392 . S
C454 C456 1.420 . S
C454 C486 1.423 . S
C455 H441 0.930 . S
C455 C452 1.413 . S
C455 C453 1.367 . S
C456 N451 1.362 . S
C456 C454 1.420 . S
C456 C460 1.429 . S
H457 C462 0.930 . S
N458 Eu420 2.609 . S
N458 C460 1.377 . S
N458 C461 1.321 . S
C459 H445 0.930 . S
C459 C461 1.400 . S
C459 C462 1.386 . S
C460 C456 1.429 . S
C460 N458 1.377 . S
C460 C463 1.411 . S
C461 H443 0.930 . S
C461 N458 1.321 . S
C461 C459 1.400 . S
C462 H457 0.930 . S
C462 C459 1.386 . S
C462 C463 1.395 . S
C463 C460 1.411 . S
C463 C462 1.395 . S
C463 C485 1.420 . S
O464 Eu420 2.558 . S
O464 C484 1.257 . S
O465 Eu420 2.612 . S
O465 Eu431 2.380 . S
O465 C476 1.276 . S
O466 Eu431 2.432 . S
O466 C483 1.264 . S
O467 Eu420 2.339 . S
O467 C483 1.254 . S
O468 Eu420 2.563 . S
O468 C476 1.235 . S
O469 Eu420 2.419 . S
O469 C484 1.249 . S
O470 Eu431 2.558 . S
O470 C495 1.257 . S
O471 Eu420 2.380 . S
O471 Eu431 2.612 . S
O471 C487 1.276 . S
O472 Eu420 2.432 . S
O472 C494 1.264 . S
O473 Eu431 2.339 . S
O473 C494 1.254 . S
O474 Eu431 2.563 . S
O474 C487 1.235 . S
O475 Eu431 2.419 . S
O475 C495 1.249 . S
C476 O465 1.276 . S
C476 O468 1.235 . S
C477 C479 1.393 . S
C477 C481 1.395 . S
C477 C484 1.492 1_556 S
C478 C479 1.392 . S
C478 C480 1.386 . S
C479 C477 1.393 . S
C479 C478 1.392 . S
C479 H496 0.930 . S
C480 C478 1.386 . S
C480 C482 1.395 . S
C480 H497 0.930 . S
C481 C477 1.395 . S
C481 C482 1.379 . S
C481 H498 0.913 1_556 S
C482 C480 1.395 . S
C482 C481 1.379 . S
C482 H499 0.930 . S
C483 O466 1.264 . S
C483 O467 1.254 . S
C484 Eu420 2.848 . S
C484 O464 1.257 . S
C484 O469 1.249 . S
C484 C477 1.492 1_554 S
C485 H450 0.931 . S
C485 C463 1.420 . S
C485 C486 1.351 . S
C486 H448 0.930 . S
C486 C454 1.423 . S
C486 C485 1.351 . S
C487 O471 1.276 . S
C487 O474 1.235 . S
C488 C489 1.393 . S
C488 C492 1.395 . S
C488 C495 1.492 . S
C489 C488 1.393 . S
C489 C490 1.392 . S
C489 H500 0.930 . S
C490 C489 1.392 . S
C490 C491 1.386 . S
C491 C490 1.386 . S
C491 C493 1.395 . S
C491 H501 0.930 . S
C492 C488 1.395 . S
C492 C493 1.379 . S
C492 H502 0.930 . S
C493 C491 1.395 . S
C493 C492 1.379 . S
C493 H503 0.930 . S
C494 O472 1.264 . S
C494 O473 1.254 . S
C495 Eu431 2.848 . S
C495 O470 1.257 . S
C495 O475 1.249 . S
C495 C488 1.492 . S
H496 C479 0.930 . S
H497 C480 0.930 . S
H498 C481 0.913 1_554 S
H499 C482 0.930 . S
H500 C489 0.930 . S
H501 C491 0.930 . S
H502 C492 0.930 . S
H503 C493 0.930 . S
Eu504 N535 2.657 . S
Eu504 N542 2.609 . S
Eu504 O548 2.558 . S
Eu504 O549 2.612 . S
Eu504 O551 2.339 . S
Eu504 O552 2.563 . S
Eu504 O553 2.419 . S
Eu504 O555 2.380 . S
Eu504 O556 2.432 . S
Eu504 C568 2.848 . S
C505 C508 1.429 . S
C505 C509 1.411 . S
C505 N512 1.377 . S
C506 C508 1.420 . S
C506 C510 1.423 . S
C506 C518 1.392 . S
C507 C509 1.420 . S
C507 C510 1.351 . S
C507 H530 0.931 . S
C508 C505 1.429 . S
C508 C506 1.420 . S
C508 N516 1.362 . S
C509 C505 1.411 . S
C509 C507 1.420 . S
C509 C514 1.395 . S
C510 C506 1.423 . S
C510 C507 1.351 . S
C510 H522 0.930 . S
C511 C513 1.400 . S
C511 C514 1.386 . S
C511 H523 0.930 . S
N512 C505 1.377 . S
N512 C513 1.321 . S
N512 Eu515 2.609 . S
C513 C511 1.400 . S
C513 N512 1.321 . S
C513 H520 0.930 . S
C514 C509 1.395 . S
C514 C511 1.386 . S
C514 H533 0.930 . S
Eu515 N512 2.609 . S
Eu515 N516 2.657 . S
Eu515 O549 2.380 . S
Eu515 O550 2.432 . S
Eu515 O554 2.558 . S
Eu515 O555 2.612 . S
Eu515 O557 2.339 . S
Eu515 O558 2.563 . S
Eu515 O559 2.419 . S
Eu515 C579 2.848 . S
N516 C508 1.362 . S
N516 Eu515 2.657 . S
N516 C517 1.334 . S
C517 N516 1.334 . S
C517 C519 1.413 . S
C517 H524 0.929 . S
C518 C506 1.392 . S
C518 C519 1.367 . S
C518 H526 0.930 . S
C519 C517 1.413 . S
C519 C518 1.367 . S
C519 H521 0.930 . S
H520 C513 0.930 . S
H521 C519 0.930 . S
H522 C510 0.930 . S
H523 C511 0.930 . S
H524 C517 0.929 . S
H525 C539 0.930 . S
H526 C518 0.930 . S
H527 C545 0.930 . S
H528 C536 0.929 . S
H529 C543 0.930 . S
H530 C507 0.931 . S
H531 C537 0.930 . S
H532 C570 0.930 . S
H533 C514 0.930 . S
H534 C569 0.931 . S
N535 Eu504 2.657 . S
N535 C536 1.334 . S
N535 C540 1.362 . S
C536 H528 0.929 . S
C536 N535 1.334 . S
C536 C539 1.413 . S
C537 H531 0.930 . S
C537 C538 1.392 . S
C537 C539 1.367 . S
C538 C537 1.392 . S
C538 C540 1.420 . S
C538 C570 1.423 . S
C539 H525 0.930 . S
C539 C536 1.413 . S
C539 C537 1.367 . S
C540 N535 1.362 . S
C540 C538 1.420 . S
C540 C544 1.429 . S
H541 C546 0.930 . S
N542 Eu504 2.609 . S
N542 C544 1.377 . S
N542 C545 1.321 . S
C543 H529 0.930 . S
C543 C545 1.400 . S
C543 C546 1.386 . S
C544 C540 1.429 . S
C544 N542 1.377 . S
C544 C547 1.411 . S
C545 H527 0.930 . S
C545 N542 1.321 . S
C545 C543 1.400 . S
C546 H541 0.930 . S
C546 C543 1.386 . S
C546 C547 1.395 . S
C547 C544 1.411 . S
C547 C546 1.395 . S
C547 C569 1.420 . S
O548 Eu504 2.558 . S
O548 C568 1.257 . S
O549 Eu504 2.612 . S
O549 Eu515 2.380 . S
O549 C560 1.276 . S
O550 Eu515 2.432 . S
O550 C567 1.264 . S
O551 Eu504 2.339 . S
O551 C567 1.254 . S
O552 Eu504 2.563 . S
O552 C560 1.235 . S
O553 Eu504 2.419 . S
O553 C568 1.249 . S
O554 Eu515 2.558 . S
O554 C579 1.257 . S
O555 Eu504 2.380 . S
O555 Eu515 2.612 . S
O555 C571 1.276 . S
O556 Eu504 2.432 . S
O556 C578 1.264 . S
O557 Eu515 2.339 . S
O557 C578 1.254 . S
O558 Eu515 2.563 . S
O558 C571 1.235 . S
O559 Eu515 2.419 . S
O559 C579 1.249 . S
C560 O549 1.276 . S
C560 O552 1.235 . S
C561 C563 1.393 . S
C561 C565 1.395 . S
C561 C568 1.492 . S
C562 C563 1.392 . S
C562 C564 1.386 . S
C563 C561 1.393 . S
C563 C562 1.392 . S
C563 H580 0.930 . S
C564 C562 1.386 . S
C564 C566 1.395 . S
C564 H581 0.930 . S
C565 C561 1.395 . S
C565 C566 1.379 . S
C565 H582 0.930 . S
C566 C564 1.395 . S
C566 C565 1.379 . S
C566 H583 0.930 . S
C567 O550 1.264 . S
C567 O551 1.254 . S
C568 Eu504 2.848 . S
C568 O548 1.257 . S
C568 O553 1.249 . S
C568 C561 1.492 . S
C569 H534 0.931 . S
C569 C547 1.420 . S
C569 C570 1.351 . S
C570 H532 0.930 . S
C570 C538 1.423 . S
C570 C569 1.351 . S
C571 O555 1.276 . S
C571 O558 1.235 . S
C572 C573 1.393 . S
C572 C576 1.395 . S
C572 C579 1.492 . S
C573 C572 1.393 . S
C573 C574 1.392 . S
C573 H584 0.930 . S
C574 C573 1.392 . S
C574 C575 1.386 . S
C575 C574 1.386 . S
C575 C577 1.395 . S
C575 H585 0.930 . S
C576 C572 1.395 . S
C576 C577 1.379 . S
C576 H586 0.930 . S
C577 C575 1.395 . S
C577 C576 1.379 . S
C577 H587 0.930 . S
C578 O556 1.264 . S
C578 O557 1.254 . S
C579 Eu515 2.848 . S
C579 O554 1.257 . S
C579 O559 1.249 . S
C579 C572 1.492 . S
H580 C563 0.930 . S
H581 C564 0.930 . S
H582 C565 0.930 . S
H583 C566 0.930 . S
H584 C573 0.930 . S
H585 C575 0.930 . S
H586 C576 0.930 . S
H587 C577 0.930 . S
Eu588 N619 2.657 . S
Eu588 N626 2.609 . S
Eu588 O632 2.558 . S
Eu588 O633 2.612 . S
Eu588 O635 2.339 . S
Eu588 O636 2.563 . S
Eu588 O637 2.419 . S
Eu588 O639 2.380 . S
Eu588 O640 2.432 . S
Eu588 C652 2.848 . S
C589 C592 1.429 . S
C589 C593 1.411 . S
C589 N596 1.377 . S
C590 C592 1.420 . S
C590 C594 1.423 . S
C590 C602 1.392 . S
C591 C593 1.420 . S
C591 C594 1.351 . S
C591 H614 0.931 . S
C592 C589 1.429 . S
C592 C590 1.420 . S
C592 N600 1.362 . S
C593 C589 1.411 . S
C593 C591 1.420 . S
C593 C598 1.395 . S
C594 C590 1.423 . S
C594 C591 1.351 . S
C594 H606 0.930 . S
C595 C597 1.400 . S
C595 C598 1.386 . S
C595 H607 0.930 . S
N596 C589 1.377 . S
N596 C597 1.321 . S
N596 Eu599 2.609 . S
C597 C595 1.400 . S
C597 N596 1.321 . S
C597 H604 0.930 . S
C598 C593 1.395 . S
C598 C595 1.386 . S
C598 H617 0.930 . S
Eu599 N596 2.609 . S
Eu599 N600 2.657 . S
Eu599 O633 2.380 . S
Eu599 O634 2.432 . S
Eu599 O638 2.558 . S
Eu599 O639 2.612 . S
Eu599 O641 2.339 . S
Eu599 O642 2.563 . S
Eu599 O643 2.419 . S
Eu599 C663 2.848 . S
N600 C592 1.362 . S
N600 Eu599 2.657 . S
N600 C601 1.334 . S
C601 N600 1.334 . S
C601 C603 1.413 . S
C601 H608 0.929 . S
C602 C590 1.392 . S
C602 C603 1.367 . S
C602 H610 0.930 . S
C603 C601 1.413 . S
C603 C602 1.367 . S
C603 H605 0.930 . S
H604 C597 0.930 . S
H605 C603 0.930 . S
H606 C594 0.930 . S
H607 C595 0.930 . S
H608 C601 0.929 . S
H609 C623 0.930 . S
H610 C602 0.930 . S
H611 C629 0.930 . S
H612 C620 0.929 . S
H613 C627 0.930 . S
H614 C591 0.931 . S
H615 C621 0.930 . S
H616 C654 0.930 . S
H617 C598 0.930 . S
H618 C653 0.931 . S
N619 Eu588 2.657 . S
N619 C620 1.334 . S
N619 C624 1.362 . S
C620 H612 0.929 . S
C620 N619 1.334 . S
C620 C623 1.413 . S
C621 H615 0.930 . S
C621 C622 1.392 . S
C621 C623 1.367 . S
C622 C621 1.392 . S
C622 C624 1.420 . S
C622 C654 1.423 . S
C623 H609 0.930 . S
C623 C620 1.413 . S
C623 C621 1.367 . S
C624 N619 1.362 . S
C624 C622 1.420 . S
C624 C628 1.429 . S
H625 C630 0.930 . S
N626 Eu588 2.609 . S
N626 C628 1.377 . S
N626 C629 1.321 . S
C627 H613 0.930 . S
C627 C629 1.400 . S
C627 C630 1.386 . S
C628 C624 1.429 . S
C628 N626 1.377 . S
C628 C631 1.411 . S
C629 H611 0.930 . S
C629 N626 1.321 . S
C629 C627 1.400 . S
C630 H625 0.930 . S
C630 C627 1.386 . S
C630 C631 1.395 . S
C631 C628 1.411 . S
C631 C630 1.395 . S
C631 C653 1.420 . S
O632 Eu588 2.558 . S
O632 C652 1.257 . S
O633 Eu588 2.612 . S
O633 Eu599 2.380 . S
O633 C644 1.276 . S
O634 Eu599 2.432 . S
O634 C651 1.264 . S
O635 Eu588 2.339 . S
O635 C651 1.254 . S
O636 Eu588 2.563 . S
O636 C644 1.235 . S
O637 Eu588 2.419 . S
O637 C652 1.249 . S
O638 Eu599 2.558 . S
O638 C663 1.257 . S
O639 Eu588 2.380 . S
O639 Eu599 2.612 . S
O639 C655 1.276 . S
O640 Eu588 2.432 . S
O640 C662 1.264 . S
O641 Eu599 2.339 . S
O641 C662 1.254 . S
O642 Eu599 2.563 . S
O642 C655 1.235 . S
O643 Eu599 2.419 . S
O643 C663 1.249 . S
C644 O633 1.276 . S
C644 O636 1.235 . S
C645 C647 1.393 . S
C645 C649 1.395 . S
C645 C652 1.492 . S
C646 C647 1.392 . S
C646 C648 1.386 . S
C647 C645 1.393 . S
C647 C646 1.392 . S
C647 H664 0.930 . S
C648 C646 1.386 . S
C648 C650 1.395 . S
C648 H665 0.930 . S
C649 C645 1.395 . S
C649 C650 1.379 . S
C649 H666 0.930 . S
C650 C648 1.395 . S
C650 C649 1.379 . S
C650 H667 0.930 . S
C651 O634 1.264 . S
C651 O635 1.254 . S
C652 Eu588 2.848 . S
C652 O632 1.257 . S
C652 O637 1.249 . S
C652 C645 1.492 . S
C653 H618 0.931 . S
C653 C631 1.420 . S
C653 C654 1.351 . S
C654 H616 0.930 . S
C654 C622 1.423 . S
C654 C653 1.351 . S
C655 O639 1.276 . S
C655 O642 1.235 . S
C656 C657 1.393 . S
C656 C660 1.395 . S
C656 C663 1.492 . S
C657 C656 1.393 . S
C657 C658 1.392 . S
C657 H668 0.930 . S
C658 C657 1.392 . S
C658 C659 1.386 . S
C659 C658 1.386 . S
C659 C661 1.395 . S
C659 H669 0.930 . S
C660 C656 1.395 . S
C660 C661 1.379 . S
C660 H670 0.930 . S
C661 C659 1.395 . S
C661 C660 1.379 . S
C661 H671 0.930 . S
C662 O640 1.264 . S
C662 O641 1.254 . S
C663 Eu599 2.848 . S
C663 O638 1.257 . S
C663 O643 1.249 . S
C663 C656 1.492 . S
H664 C647 0.930 . S
H665 C648 0.930 . S
H666 C649 0.930 . S
H667 C650 0.930 . S
H668 C657 0.930 . S
H669 C659 0.930 . S
H670 C660 0.930 . S
H671 C661 0.930 . S
Eu672 N703 2.657 . S
Eu672 N710 2.609 . S
Eu672 O716 2.558 . S
Eu672 O717 2.612 . S
Eu672 O719 2.339 . S
Eu672 O720 2.563 . S
Eu672 O721 2.419 . S
Eu672 O723 2.380 . S
Eu672 O724 2.432 . S
Eu672 C736 2.848 . S
C673 C676 1.429 . S
C673 C677 1.411 . S
C673 N680 1.377 . S
C674 C676 1.420 . S
C674 C678 1.423 . S
C674 C686 1.392 . S
C675 C677 1.420 . S
C675 C678 1.351 . S
C675 H698 0.931 . S
C676 C673 1.429 . S
C676 C674 1.420 . S
C676 N684 1.362 . S
C677 C673 1.411 . S
C677 C675 1.420 . S
C677 C682 1.395 . S
C678 C674 1.423 . S
C678 C675 1.351 . S
C678 H690 0.930 . S
C679 C681 1.400 . S
C679 C682 1.386 . S
C679 H691 0.930 . S
N680 C673 1.377 . S
N680 C681 1.321 . S
N680 Eu683 2.609 . S
C681 C679 1.400 . S
C681 N680 1.321 . S
C681 H688 0.930 . S
C682 C677 1.395 . S
C682 C679 1.386 . S
C682 H701 0.930 . S
Eu683 N680 2.609 . S
Eu683 N684 2.657 . S
Eu683 O717 2.380 . S
Eu683 O718 2.432 . S
Eu683 O722 2.558 . S
Eu683 O723 2.612 . S
Eu683 O725 2.339 . S
Eu683 O726 2.563 . S
Eu683 O727 2.419 . S
Eu683 C747 2.848 . S
N684 C676 1.362 . S
N684 Eu683 2.657 . S
N684 C685 1.334 . S
C685 N684 1.334 . S
C685 C687 1.413 . S
C685 H692 0.929 . S
C686 C674 1.392 . S
C686 C687 1.367 . S
C686 H694 0.930 . S
C687 C685 1.413 . S
C687 C686 1.367 . S
C687 H689 0.930 . S
H688 C681 0.930 . S
H689 C687 0.930 . S
H690 C678 0.930 . S
H691 C679 0.930 . S
H692 C685 0.929 . S
H693 C707 0.930 1_455 S
H694 C686 0.930 . S
H695 C713 0.930 . S
H696 C704 0.929 . S
H697 C711 0.930 . S
H698 C675 0.931 . S
H699 C705 0.930 . S
H700 C738 0.930 . S
H701 C682 0.930 . S
H702 C737 0.931 . S
N703 Eu672 2.657 . S
N703 C704 1.334 . S
N703 C708 1.362 . S
C704 H696 0.929 . S
C704 N703 1.334 . S
C704 C707 1.413 . S
C705 H699 0.930 . S
C705 C706 1.392 . S
C705 C707 1.367 . S
C706 C705 1.392 . S
C706 C708 1.420 . S
C706 C738 1.423 . S
C707 H693 0.930 1_655 S
C707 C704 1.413 . S
C707 C705 1.367 . S
C708 N703 1.362 . S
C708 C706 1.420 . S
C708 C712 1.429 . S
H709 C714 0.930 . S
N710 Eu672 2.609 . S
N710 C712 1.377 . S
N710 C713 1.321 . S
C711 H697 0.930 . S
C711 C713 1.400 . S
C711 C714 1.386 . S
C712 C708 1.429 . S
C712 N710 1.377 . S
C712 C715 1.411 . S
C713 H695 0.930 . S
C713 N710 1.321 . S
C713 C711 1.400 . S
C714 H709 0.930 . S
C714 C711 1.386 . S
C714 C715 1.395 . S
C715 C712 1.411 . S
C715 C714 1.395 . S
C715 C737 1.420 . S
O716 Eu672 2.558 . S
O716 C736 1.257 . S
O717 Eu672 2.612 . S
O717 Eu683 2.380 . S
O717 C728 1.276 . S
O718 Eu683 2.432 . S
O718 C735 1.264 . S
O719 Eu672 2.339 . S
O719 C735 1.254 . S
O720 Eu672 2.563 . S
O720 C728 1.235 . S
O721 Eu672 2.419 . S
O721 C736 1.249 . S
O722 Eu683 2.558 . S
O722 C747 1.257 . S
O723 Eu672 2.380 . S
O723 Eu683 2.612 . S
O723 C739 1.276 . S
O724 Eu672 2.432 . S
O724 C746 1.264 . S
O725 Eu683 2.339 . S
O725 C746 1.254 . S
O726 Eu683 2.563 . S
O726 C739 1.235 . S
O727 Eu683 2.419 . S
O727 C747 1.249 . S
C728 O717 1.276 . S
C728 O720 1.235 . S
C729 C731 1.393 . S
C729 C733 1.395 . S
C729 C736 1.492 . S
C730 C731 1.392 . S
C730 C732 1.386 . S
C731 C729 1.393 . S
C731 C730 1.392 . S
C731 H748 0.930 . S
C732 C730 1.386 . S
C732 C734 1.395 . S
C732 H749 0.930 . S
C733 C729 1.395 . S
C733 C734 1.379 . S
C733 H750 0.930 . S
C734 C732 1.395 . S
C734 C733 1.379 . S
C734 H751 0.930 . S
C735 O718 1.264 . S
C735 O719 1.254 . S
C736 Eu672 2.848 . S
C736 O716 1.257 . S
C736 O721 1.249 . S
C736 C729 1.492 . S
C737 H702 0.931 . S
C737 C715 1.420 . S
C737 C738 1.351 . S
C738 H700 0.930 . S
C738 C706 1.423 . S
C738 C737 1.351 . S
C739 O723 1.276 . S
C739 O726 1.235 . S
C740 C741 1.393 . S
C740 C744 1.395 . S
C740 C747 1.492 . S
C741 C740 1.393 . S
C741 C742 1.392 . S
C741 H752 0.930 . S
C742 C741 1.392 . S
C742 C743 1.386 . S
C743 C742 1.386 . S
C743 C745 1.395 . S
C743 H753 0.930 . S
C744 C740 1.395 . S
C744 C745 1.379 . S
C744 H754 0.930 . S
C745 C743 1.395 . S
C745 C744 1.379 . S
C745 H755 0.930 . S
C746 O724 1.264 . S
C746 O725 1.254 . S
C747 Eu683 2.848 . S
C747 O722 1.257 . S
C747 O727 1.249 . S
C747 C740 1.492 . S
H748 C731 0.930 . S
H749 C732 0.930 . S
H750 C733 0.930 . S
H751 C734 0.930 . S
H752 C741 0.930 . S
H753 C743 0.930 . S
H754 C744 0.930 . S
H755 C745 0.930 . S
Eu756 N787 2.657 . S
Eu756 N794 2.609 . S
Eu756 O800 2.558 . S
Eu756 O801 2.612 . S
Eu756 O803 2.339 . S
Eu756 O804 2.563 . S
Eu756 O805 2.419 . S
Eu756 O807 2.380 . S
Eu756 O808 2.432 . S
Eu756 C820 2.848 . S
C757 C760 1.429 . S
C757 C761 1.411 . S
C757 N764 1.377 . S
C758 C760 1.420 . S
C758 C762 1.423 . S
C758 C770 1.392 . S
C759 C761 1.420 . S
C759 C762 1.351 . S
C759 H782 0.931 . S
C760 C757 1.429 . S
C760 C758 1.420 . S
C760 N768 1.362 . S
C761 C757 1.411 . S
C761 C759 1.420 . S
C761 C766 1.395 . S
C762 C758 1.423 . S
C762 C759 1.351 . S
C762 H774 0.930 . S
C763 C765 1.400 . S
C763 C766 1.386 . S
C763 H775 0.930 . S
N764 C757 1.377 . S
N764 C765 1.321 . S
N764 Eu767 2.609 . S
C765 C763 1.400 . S
C765 N764 1.321 . S
C765 H772 0.930 . S
C766 C761 1.395 . S
C766 C763 1.386 . S
C766 H785 0.930 . S
Eu767 N764 2.609 . S
Eu767 N768 2.657 . S
Eu767 O801 2.380 . S
Eu767 O802 2.432 . S
Eu767 O806 2.558 . S
Eu767 O807 2.612 . S
Eu767 O809 2.339 . S
Eu767 O810 2.563 . S
Eu767 O811 2.419 . S
Eu767 C831 2.848 . S
N768 C760 1.362 . S
N768 Eu767 2.657 . S
N768 C769 1.334 . S
C769 N768 1.334 . S
C769 C771 1.413 . S
C769 H776 0.929 . S
C770 C758 1.392 . S
C770 C771 1.367 . S
C770 H778 0.930 . S
C771 C769 1.413 . S
C771 C770 1.367 . S
C771 H773 0.930 . S
H772 C765 0.930 . S
H773 C771 0.930 . S
H774 C762 0.930 . S
H775 C763 0.930 . S
H776 C769 0.929 . S
H777 C791 0.930 . S
H778 C770 0.930 . S
H779 C797 0.930 . S
H780 C788 0.929 . S
H781 C795 0.930 . S
H782 C759 0.931 . S
H783 C789 0.930 . S
H784 C822 0.930 . S
H785 C766 0.930 . S
H786 C821 0.931 . S
N787 Eu756 2.657 . S
N787 C788 1.334 . S
N787 C792 1.362 . S
C788 H780 0.929 . S
C788 N787 1.334 . S
C788 C791 1.413 . S
C789 H783 0.930 . S
C789 C790 1.392 . S
C789 C791 1.367 . S
C790 C789 1.392 . S
C790 C792 1.420 . S
C790 C822 1.423 . S
C791 H777 0.930 . S
C791 C788 1.413 . S
C791 C789 1.367 . S
C792 N787 1.362 . S
C792 C790 1.420 . S
C792 C796 1.429 . S
H793 C798 0.930 . S
N794 Eu756 2.609 . S
N794 C796 1.377 . S
N794 C797 1.321 . S
C795 H781 0.930 . S
C795 C797 1.400 . S
C795 C798 1.386 . S
C796 C792 1.429 . S
C796 N794 1.377 . S
C796 C799 1.411 . S
C797 H779 0.930 . S
C797 N794 1.321 . S
C797 C795 1.400 . S
C798 H793 0.930 . S
C798 C795 1.386 . S
C798 C799 1.395 . S
C799 C796 1.411 . S
C799 C798 1.395 . S
C799 C821 1.420 . S
O800 Eu756 2.558 . S
O800 C820 1.257 . S
O801 Eu756 2.612 . S
O801 Eu767 2.380 . S
O801 C812 1.276 . S
O802 Eu767 2.432 . S
O802 C819 1.264 . S
O803 Eu756 2.339 . S
O803 C819 1.254 . S
O804 Eu756 2.563 . S
O804 C812 1.235 . S
O805 Eu756 2.419 . S
O805 C820 1.249 . S
O806 Eu767 2.558 . S
O806 C831 1.257 . S
O807 Eu756 2.380 . S
O807 Eu767 2.612 . S
O807 C823 1.276 . S
O808 Eu756 2.432 . S
O808 C830 1.264 . S
O809 Eu767 2.339 . S
O809 C830 1.254 . S
O810 Eu767 2.563 . S
O810 C823 1.235 . S
O811 Eu767 2.419 . S
O811 C831 1.249 . S
C812 O801 1.276 . S
C812 O804 1.235 . S
C813 C815 1.393 . S
C813 C817 1.395 . S
C813 C820 1.492 . S
C814 C815 1.392 . S
C814 C816 1.386 . S
C815 C813 1.393 . S
C815 C814 1.392 . S
C815 H832 0.930 . S
C816 C814 1.386 . S
C816 C818 1.395 . S
C816 H833 0.930 . S
C817 C813 1.395 . S
C817 C818 1.379 . S
C817 H834 0.930 . S
C818 C816 1.395 . S
C818 C817 1.379 . S
C818 H835 0.930 . S
C819 O802 1.264 . S
C819 O803 1.254 . S
C820 Eu756 2.848 . S
C820 O800 1.257 . S
C820 O805 1.249 . S
C820 C813 1.492 . S
C821 H786 0.931 . S
C821 C799 1.420 . S
C821 C822 1.351 . S
C822 H784 0.930 . S
C822 C790 1.423 . S
C822 C821 1.351 . S
C823 O807 1.276 . S
C823 O810 1.235 . S
C824 C825 1.393 1_554 S
C824 C828 1.395 . S
C824 C831 1.492 . S
C825 C824 1.393 1_556 S
C825 C826 1.392 . S
C825 H836 0.928 1_556 S
C826 C825 1.392 . S
C826 C827 1.386 . S
C827 C826 1.386 . S
C827 C829 1.395 . S
C827 H837 0.930 . S
C828 C824 1.395 . S
C828 C829 1.379 1_554 S
C828 H838 0.930 . S
C829 C827 1.395 . S
C829 C828 1.379 1_556 S
C829 H839 0.930 . S
C830 O808 1.264 . S
C830 O809 1.254 . S
C831 Eu767 2.848 . S
C831 O806 1.257 . S
C831 O811 1.249 . S
C831 C824 1.492 . S
H832 C815 0.930 . S
H833 C816 0.930 . S
H834 C817 0.930 . S
H835 C818 0.930 . S
H836 C825 0.928 1_554 S
H837 C827 0.930 . S
H838 C828 0.930 . S
H839 C829 0.930 . S
Eu840 N871 2.657 . S
Eu840 N878 2.609 . S
Eu840 O884 2.558 . S
Eu840 O885 2.612 . S
Eu840 O887 2.339 . S
Eu840 O888 2.563 . S
Eu840 O889 2.419 . S
Eu840 O891 2.380 . S
Eu840 O892 2.432 . S
Eu840 C904 2.848 . S
C841 C844 1.429 . S
C841 C845 1.411 . S
C841 N848 1.377 . S
C842 C844 1.420 . S
C842 C846 1.423 . S
C842 C854 1.392 . S
C843 C845 1.420 . S
C843 C846 1.351 . S
C843 H866 0.931 . S
C844 C841 1.429 . S
C844 C842 1.420 . S
C844 N852 1.362 . S
C845 C841 1.411 . S
C845 C843 1.420 . S
C845 C850 1.395 . S
C846 C842 1.423 . S
C846 C843 1.351 . S
C846 H858 0.930 . S
C847 C849 1.400 . S
C847 C850 1.386 . S
C847 H859 0.930 . S
N848 C841 1.377 . S
N848 C849 1.321 . S
N848 Eu851 2.609 . S
C849 C847 1.400 . S
C849 N848 1.321 . S
C849 H856 0.930 . S
C850 C845 1.395 . S
C850 C847 1.386 . S
C850 H869 0.930 . S
Eu851 N848 2.609 . S
Eu851 N852 2.657 . S
Eu851 O885 2.380 . S
Eu851 O886 2.432 . S
Eu851 O890 2.558 . S
Eu851 O891 2.612 . S
Eu851 O893 2.339 . S
Eu851 O894 2.563 . S
Eu851 O895 2.419 . S
Eu851 C915 2.848 . S
N852 C844 1.362 . S
N852 Eu851 2.657 . S
N852 C853 1.334 . S
C853 N852 1.334 . S
C853 C855 1.413 . S
C853 H860 0.929 . S
C854 C842 1.392 . S
C854 C855 1.367 . S
C854 H862 0.930 . S
C855 C853 1.413 . S
C855 C854 1.367 . S
C855 H857 0.930 . S
H856 C849 0.930 . S
H857 C855 0.930 . S
H858 C846 0.930 . S
H859 C847 0.930 . S
H860 C853 0.929 . S
H861 C875 0.930 . S
H862 C854 0.930 . S
H863 C881 0.930 . S
H864 C872 0.929 . S
H865 C879 0.930 . S
H866 C843 0.931 . S
H867 C873 0.930 . S
H868 C906 0.930 . S
H869 C850 0.930 . S
H870 C905 0.931 . S
N871 Eu840 2.657 . S
N871 C872 1.334 . S
N871 C876 1.362 . S
C872 H864 0.929 . S
C872 N871 1.334 . S
C872 C875 1.413 . S
C873 H867 0.930 . S
C873 C874 1.392 . S
C873 C875 1.367 . S
C874 C873 1.392 . S
C874 C876 1.420 . S
C874 C906 1.423 . S
C875 H861 0.930 . S
C875 C872 1.413 . S
C875 C873 1.367 . S
C876 N871 1.362 . S
C876 C874 1.420 . S
C876 C880 1.429 . S
H877 C882 0.930 . S
N878 Eu840 2.609 . S
N878 C880 1.377 . S
N878 C881 1.321 . S
C879 H865 0.930 . S
C879 C881 1.400 . S
C879 C882 1.386 . S
C880 C876 1.429 . S
C880 N878 1.377 . S
C880 C883 1.411 . S
C881 H863 0.930 . S
C881 N878 1.321 . S
C881 C879 1.400 . S
C882 H877 0.930 . S
C882 C879 1.386 . S
C882 C883 1.395 . S
C883 C880 1.411 . S
C883 C882 1.395 . S
C883 C905 1.420 . S
O884 Eu840 2.558 . S
O884 C904 1.257 . S
O885 Eu840 2.612 . S
O885 Eu851 2.380 . S
O885 C896 1.276 . S
O886 Eu851 2.432 . S
O886 C903 1.264 . S
O887 Eu840 2.339 . S
O887 C903 1.254 . S
O888 Eu840 2.563 . S
O888 C896 1.235 . S
O889 Eu840 2.419 . S
O889 C904 1.249 . S
O890 Eu851 2.558 . S
O890 C915 1.257 . S
O891 Eu840 2.380 . S
O891 Eu851 2.612 . S
O891 C907 1.276 . S
O892 Eu840 2.432 . S
O892 C914 1.264 . S
O893 Eu851 2.339 . S
O893 C914 1.254 . S
O894 Eu851 2.563 . S
O894 C907 1.235 . S
O895 Eu851 2.419 . S
O895 C915 1.249 . S
C896 O885 1.276 . S
C896 O888 1.235 . S
C897 C899 1.393 . S
C897 C901 1.395 . S
C897 C904 1.492 . S
C898 C899 1.392 . S
C898 C900 1.386 . S
C899 C897 1.393 . S
C899 C898 1.392 . S
C899 H916 0.930 . S
C900 C898 1.386 . S
C900 C902 1.395 . S
C900 H917 0.930 . S
C901 C897 1.395 . S
C901 C902 1.379 . S
C901 H918 0.930 . S
C902 C900 1.395 . S
C902 C901 1.379 . S
C902 H919 0.930 . S
C903 O886 1.264 . S
C903 O887 1.254 . S
C904 Eu840 2.848 . S
C904 O884 1.257 . S
C904 O889 1.249 . S
C904 C897 1.492 . S
C905 H870 0.931 . S
C905 C883 1.420 . S
C905 C906 1.351 . S
C906 H868 0.930 . S
C906 C874 1.423 . S
C906 C905 1.351 . S
C907 O891 1.276 . S
C907 O894 1.235 . S
C908 C909 1.393 . S
C908 C912 1.395 . S
C908 C915 1.492 . S
C909 C908 1.393 . S
C909 C910 1.392 1_556 S
C909 H920 0.930 . S
C910 C909 1.392 1_554 S
C910 C911 1.386 . S
C911 C910 1.386 . S
C911 C913 1.395 1_554 S
C911 H921 0.930 . S
C912 C908 1.395 . S
C912 C913 1.379 . S
C912 H922 0.930 . S
C913 C911 1.395 1_556 S
C913 C912 1.379 . S
C913 H923 0.935 . S
C914 O892 1.264 . S
C914 O893 1.254 . S
C915 Eu851 2.848 . S
C915 O890 1.257 . S
C915 O895 1.249 . S
C915 C908 1.492 . S
H916 C899 0.930 . S
H917 C900 0.930 . S
H918 C901 0.930 . S
H919 C902 0.930 . S
H920 C909 0.930 . S
H921 C911 0.930 . S
H922 C912 0.930 . S
H923 C913 0.935 . S
Eu924 N955 2.657 . S
Eu924 N962 2.609 . S
Eu924 O968 2.558 . S
Eu924 O969 2.612 . S
Eu924 O971 2.339 . S
Eu924 O972 2.563 . S
Eu924 O973 2.419 . S
Eu924 O975 2.380 . S
Eu924 O976 2.432 . S
Eu924 C988 2.848 . S
C925 C928 1.429 . S
C925 C929 1.411 . S
C925 N932 1.377 . S
C926 C928 1.420 . S
C926 C930 1.423 . S
C926 C938 1.392 . S
C927 C929 1.420 . S
C927 C930 1.351 . S
C927 H950 0.931 . S
C928 C925 1.429 . S
C928 C926 1.420 . S
C928 N936 1.362 . S
C929 C925 1.411 . S
C929 C927 1.420 . S
C929 C934 1.395 1_655 S
C930 C926 1.423 . S
C930 C927 1.351 . S
C930 H942 0.930 . S
C931 C933 1.400 1_455 S
C931 C934 1.386 . S
C931 H943 0.930 . S
N932 C925 1.377 . S
N932 C933 1.321 . S
N932 Eu935 2.609 . S
C933 C931 1.400 1_655 S
C933 N932 1.321 . S
C933 H940 0.930 . S
C934 C929 1.395 1_455 S
C934 C931 1.386 . S
C934 H953 0.930 . S
Eu935 N932 2.609 . S
Eu935 N936 2.657 . S
Eu935 O969 2.380 . S
Eu935 O970 2.432 . S
Eu935 O974 2.558 . S
Eu935 O975 2.612 . S
Eu935 O977 2.339 . S
Eu935 O978 2.563 . S
Eu935 O979 2.419 . S
Eu935 C999 2.848 . S
N936 C928 1.362 . S
N936 Eu935 2.657 . S
N936 C937 1.334 . S
C937 N936 1.334 . S
C937 C939 1.413 . S
C937 H944 0.929 . S
C938 C926 1.392 . S
C938 C939 1.367 . S
C938 H946 0.930 . S
C939 C937 1.413 . S
C939 C938 1.367 . S
C939 H941 0.930 . S
H940 C933 0.930 . S
H941 C939 0.930 . S
H942 C930 0.930 . S
H943 C931 0.930 . S
H944 C937 0.929 . S
H945 C959 0.930 . S
H946 C938 0.930 . S
H947 C965 0.930 . S
H948 C956 0.929 . S
H949 C963 0.930 . S
H950 C927 0.931 . S
H951 C957 0.930 . S
H952 C990 0.930 . S
H953 C934 0.930 . S
H954 C989 0.931 . S
N955 Eu924 2.657 . S
N955 C956 1.334 . S
N955 C960 1.362 . S
C956 H948 0.929 . S
C956 N955 1.334 . S
C956 C959 1.413 . S
C957 H951 0.930 . S
C957 C958 1.392 . S
C957 C959 1.367 . S
C958 C957 1.392 . S
C958 C960 1.420 . S
C958 C990 1.423 . S
C959 H945 0.930 . S
C959 C956 1.413 . S
C959 C957 1.367 . S
C960 N955 1.362 . S
C960 C958 1.420 . S
C960 C964 1.429 . S
H961 C966 0.930 . S
N962 Eu924 2.609 . S
N962 C964 1.377 . S
N962 C965 1.321 . S
C963 H949 0.930 . S
C963 C965 1.400 . S
C963 C966 1.386 . S
C964 C960 1.429 . S
C964 N962 1.377 . S
C964 C967 1.411 . S
C965 H947 0.930 . S
C965 N962 1.321 . S
C965 C963 1.400 . S
C966 H961 0.930 . S
C966 C963 1.386 . S
C966 C967 1.395 . S
C967 C964 1.411 . S
C967 C966 1.395 . S
C967 C989 1.420 . S
O968 Eu924 2.558 . S
O968 C988 1.257 . S
O969 Eu924 2.612 . S
O969 Eu935 2.380 . S
O969 C980 1.276 . S
O970 Eu935 2.432 . S
O970 C987 1.264 . S
O971 Eu924 2.339 . S
O971 C987 1.254 . S
O972 Eu924 2.563 . S
O972 C980 1.235 . S
O973 Eu924 2.419 . S
O973 C988 1.249 . S
O974 Eu935 2.558 . S
O974 C999 1.257 . S
O975 Eu924 2.380 . S
O975 Eu935 2.612 . S
O975 C991 1.276 . S
O976 Eu924 2.432 . S
O976 C998 1.264 . S
O977 Eu935 2.339 . S
O977 C998 1.254 . S
O978 Eu935 2.563 . S
O978 C991 1.235 . S
O979 Eu935 2.419 . S
O979 C999 1.249 . S
C980 O969 1.276 . S
C980 O972 1.235 . S
C981 C983 1.393 . S
C981 C985 1.395 . S
C981 C988 1.492 . S
C982 C983 1.392 . S
C982 C984 1.386 . S
C983 C981 1.393 . S
C983 C982 1.392 . S
C983 H1000 0.930 . S
C984 C982 1.386 . S
C984 C986 1.395 . S
C984 H1001 0.930 . S
C985 C981 1.395 . S
C985 C986 1.379 . S
C985 H1002 0.930 . S
C986 C984 1.395 . S
C986 C985 1.379 . S
C986 H1003 0.930 . S
C987 O970 1.264 . S
C987 O971 1.254 . S
C988 Eu924 2.848 . S
C988 O968 1.257 . S
C988 O973 1.249 . S
C988 C981 1.492 . S
C989 H954 0.931 . S
C989 C967 1.420 . S
C989 C990 1.351 . S
C990 H952 0.930 . S
C990 C958 1.423 . S
C990 C989 1.351 . S
C991 O975 1.276 . S
C991 O978 1.235 . S
C992 C993 1.393 . S
C992 C996 1.395 . S
C992 C999 1.492 . S
C993 C992 1.393 . S
C993 C994 1.392 . S
C993 H1004 0.930 . S
C994 C993 1.392 . S
C994 C995 1.386 . S
C995 C994 1.386 . S
C995 C997 1.395 . S
C995 H1005 0.930 . S
C996 C992 1.395 . S
C996 C997 1.379 . S
C996 H1006 0.930 . S
C997 C995 1.395 . S
C997 C996 1.379 . S
C997 H1007 0.930 . S
C998 O976 1.264 . S
C998 O977 1.254 . S
C999 Eu935 2.848 . S
C999 O974 1.257 . S
C999 O979 1.249 . S
C999 C992 1.492 . S
H1000 C983 0.930 . S
H1001 C984 0.930 . S
H1002 C985 0.930 . S
H1003 C986 0.930 . S
H1004 C993 0.930 . S
H1005 C995 0.930 . S
H1006 C996 0.930 . S
H1007 C997 0.930 . S
Eu1008 N1039 2.657 . S
Eu1008 N1046 2.609 . S
Eu1008 O1052 2.558 . S
Eu1008 O1053 2.612 . S
Eu1008 O1055 2.339 . S
Eu1008 O1056 2.563 . S
Eu1008 O1057 2.419 . S
Eu1008 O1059 2.380 . S
Eu1008 O1060 2.432 . S
Eu1008 C1072 2.848 . S
C1009 C1012 1.429 . S
C1009 C1013 1.411 . S
C1009 N1016 1.377 . S
C1010 C1012 1.420 . S
C1010 C1014 1.423 . S
C1010 C1022 1.392 . S
C1011 C1013 1.420 . S
C1011 C1014 1.351 . S
C1011 H1034 0.931 . S
C1012 C1009 1.429 . S
C1012 C1010 1.420 . S
C1012 N1020 1.362 . S
C1013 C1009 1.411 . S
C1013 C1011 1.420 . S
C1013 C1018 1.395 . S
C1014 C1010 1.423 . S
C1014 C1011 1.351 . S
C1014 H1026 0.930 . S
C1015 C1017 1.400 . S
C1015 C1018 1.386 . S
C1015 H1027 0.930 . S
N1016 C1009 1.377 . S
N1016 C1017 1.321 . S
N1016 Eu1019 2.609 . S
C1017 C1015 1.400 . S
C1017 N1016 1.321 . S
C1017 H1024 0.930 . S
C1018 C1013 1.395 . S
C1018 C1015 1.386 . S
C1018 H1037 0.930 . S
Eu1019 N1016 2.609 . S
Eu1019 N1020 2.657 . S
Eu1019 O1053 2.380 . S
Eu1019 O1054 2.432 . S
Eu1019 O1058 2.558 . S
Eu1019 O1059 2.612 . S
Eu1019 O1061 2.339 . S
Eu1019 O1062 2.563 . S
Eu1019 O1063 2.419 . S
Eu1019 C1083 2.848 . S
N1020 C1012 1.362 . S
N1020 Eu1019 2.657 . S
N1020 C1021 1.334 . S
C1021 N1020 1.334 . S
C1021 C1023 1.413 . S
C1021 H1028 0.929 . S
C1022 C1010 1.392 . S
C1022 C1023 1.367 . S
C1022 H1030 0.930 . S
C1023 C1021 1.413 . S
C1023 C1022 1.367 . S
C1023 H1025 0.930 . S
H1024 C1017 0.930 . S
H1025 C1023 0.930 . S
H1026 C1014 0.930 . S
H1027 C1015 0.930 . S
H1028 C1021 0.929 . S
H1029 C1043 0.930 . S
H1030 C1022 0.930 . S
H1031 C1049 0.930 . S
H1032 C1040 0.929 . S
H1033 C1047 0.930 . S
H1034 C1011 0.931 . S
H1035 C1041 0.930 . S
H1036 C1074 0.930 . S
H1037 C1018 0.930 . S
H1038 C1073 0.931 . S
N1039 Eu1008 2.657 . S
N1039 C1040 1.334 . S
N1039 C1044 1.362 . S
C1040 H1032 0.929 . S
C1040 N1039 1.334 . S
C1040 C1043 1.413 . S
C1041 H1035 0.930 . S
C1041 C1042 1.392 . S
C1041 C1043 1.367 . S
C1042 C1041 1.392 . S
C1042 C1044 1.420 . S
C1042 C1074 1.423 . S
C1043 H1029 0.930 . S
C1043 C1040 1.413 . S
C1043 C1041 1.367 . S
C1044 N1039 1.362 . S
C1044 C1042 1.420 . S
C1044 C1048 1.429 . S
H1045 C1050 0.930 . S
N1046 Eu1008 2.609 . S
N1046 C1048 1.377 . S
N1046 C1049 1.321 . S
C1047 H1033 0.930 . S
C1047 C1049 1.400 . S
C1047 C1050 1.386 . S
C1048 C1044 1.429 . S
C1048 N1046 1.377 . S
C1048 C1051 1.411 . S
C1049 H1031 0.930 . S
C1049 N1046 1.321 . S
C1049 C1047 1.400 . S
C1050 H1045 0.930 . S
C1050 C1047 1.386 . S
C1050 C1051 1.395 . S
C1051 C1048 1.411 . S
C1051 C1050 1.395 . S
C1051 C1073 1.420 . S
O1052 Eu1008 2.558 . S
O1052 C1072 1.257 . S
O1053 Eu1008 2.612 . S
O1053 Eu1019 2.380 . S
O1053 C1064 1.276 . S
O1054 Eu1019 2.432 . S
O1054 C1071 1.264 . S
O1055 Eu1008 2.339 . S
O1055 C1071 1.254 . S
O1056 Eu1008 2.563 . S
O1056 C1064 1.235 . S
O1057 Eu1008 2.419 . S
O1057 C1072 1.249 . S
O1058 Eu1019 2.558 . S
O1058 C1083 1.257 . S
O1059 Eu1008 2.380 . S
O1059 Eu1019 2.612 . S
O1059 C1075 1.276 . S
O1060 Eu1008 2.432 . S
O1060 C1082 1.264 . S
O1061 Eu1019 2.339 . S
O1061 C1082 1.254 . S
O1062 Eu1019 2.563 . S
O1062 C1075 1.235 . S
O1063 Eu1019 2.419 . S
O1063 C1083 1.249 . S
C1064 O1053 1.276 . S
C1064 O1056 1.235 . S
C1065 C1067 1.393 . S
C1065 C1069 1.395 . S
C1065 C1072 1.492 . S
C1066 C1067 1.392 . S
C1066 C1068 1.386 . S
C1067 C1065 1.393 . S
C1067 C1066 1.392 . S
C1067 H1084 0.930 . S
C1068 C1066 1.386 . S
C1068 C1070 1.395 . S
C1068 H1085 0.930 . S
C1069 C1065 1.395 . S
C1069 C1070 1.379 . S
C1069 H1086 0.930 . S
C1070 C1068 1.395 . S
C1070 C1069 1.379 . S
C1070 H1087 0.930 . S
C1071 O1054 1.264 . S
C1071 O1055 1.254 . S
C1072 Eu1008 2.848 . S
C1072 O1052 1.257 . S
C1072 O1057 1.249 . S
C1072 C1065 1.492 . S
C1073 H1038 0.931 . S
C1073 C1051 1.420 . S
C1073 C1074 1.351 . S
C1074 H1036 0.930 . S
C1074 C1042 1.423 . S
C1074 C1073 1.351 . S
C1075 O1059 1.276 . S
C1075 O1062 1.235 . S
C1076 C1077 1.393 . S
C1076 C1080 1.395 . S
C1076 C1083 1.492 . S
C1077 C1076 1.393 . S
C1077 C1078 1.392 . S
C1077 H1088 0.930 . S
C1078 C1077 1.392 . S
C1078 C1079 1.386 . S
C1079 C1078 1.386 . S
C1079 C1081 1.395 . S
C1079 H1089 0.930 . S
C1080 C1076 1.395 . S
C1080 C1081 1.379 . S
C1080 H1090 0.930 . S
C1081 C1079 1.395 . S
C1081 C1080 1.379 . S
C1081 H1091 0.930 . S
C1082 O1060 1.264 . S
C1082 O1061 1.254 . S
C1083 Eu1019 2.848 . S
C1083 O1058 1.257 . S
C1083 O1063 1.249 . S
C1083 C1076 1.492 . S
H1084 C1067 0.930 . S
H1085 C1068 0.930 . S
H1086 C1069 0.930 . S
H1087 C1070 0.930 . S
H1088 C1077 0.930 . S
H1089 C1079 0.930 . S
H1090 C1080 0.930 . S
H1091 C1081 0.930 . S
Eu1092 N1123 2.657 1_455 S
Eu1092 N1130 2.609 1_455 S
Eu1092 O1136 2.558 1_455 S
Eu1092 O1137 2.612 . S
Eu1092 O1139 2.339 . S
Eu1092 O1140 2.563 . S
Eu1092 O1141 2.419 1_455 S
Eu1092 O1143 2.380 . S
Eu1092 O1144 2.432 . S
Eu1092 C1156 2.848 1_454 S
C1093 C1096 1.429 . S
C1093 C1097 1.411 . S
C1093 N1100 1.377 . S
C1094 C1096 1.420 . S
C1094 C1098 1.423 . S
C1094 C1106 1.392 . S
C1095 C1097 1.420 . S
C1095 C1098 1.351 . S
C1095 H1118 0.931 . S
C1096 C1093 1.429 . S
C1096 C1094 1.420 . S
C1096 N1104 1.362 . S
C1097 C1093 1.411 . S
C1097 C1095 1.420 . S
C1097 C1102 1.395 . S
C1098 C1094 1.423 . S
C1098 C1095 1.351 . S
C1098 H1110 0.930 . S
C1099 C1101 1.400 . S
C1099 C1102 1.386 . S
C1099 H1111 0.930 . S
N1100 C1093 1.377 . S
N1100 C1101 1.321 . S
N1100 Eu1103 2.609 . S
C1101 C1099 1.400 . S
C1101 N1100 1.321 . S
C1101 H1108 0.930 . S
C1102 C1097 1.395 . S
C1102 C1099 1.386 . S
C1102 H1121 0.930 . S
Eu1103 N1100 2.609 . S
Eu1103 N1104 2.657 . S
Eu1103 O1137 2.380 . S
Eu1103 O1138 2.432 . S
Eu1103 O1142 2.558 . S
Eu1103 O1143 2.612 . S
Eu1103 O1145 2.339 . S
Eu1103 O1146 2.563 . S
Eu1103 O1147 2.419 . S
Eu1103 C1167 2.848 . S
N1104 C1096 1.362 . S
N1104 Eu1103 2.657 . S
N1104 C1105 1.334 . S
C1105 N1104 1.334 . S
C1105 C1107 1.413 . S
C1105 H1112 0.929 . S
C1106 C1094 1.392 . S
C1106 C1107 1.367 . S
C1106 H1114 0.930 . S
C1107 C1105 1.413 . S
C1107 C1106 1.367 . S
C1107 H1109 0.930 . S
H1108 C1101 0.930 . S
H1109 C1107 0.930 . S
H1110 C1098 0.930 . S
H1111 C1099 0.930 . S
H1112 C1105 0.929 . S
H1113 C1127 0.930 . S
H1114 C1106 0.930 . S
H1115 C1133 0.930 . S
H1116 C1124 0.929 . S
H1117 C1131 0.930 . S
H1118 C1095 0.931 . S
H1119 C1125 0.930 . S
H1120 C1158 0.930 . S
H1121 C1102 0.930 . S
H1122 C1157 0.931 . S
N1123 Eu1092 2.657 1_655 S
N1123 C1124 1.334 . S
N1123 C1128 1.362 . S
C1124 H1116 0.929 . S
C1124 N1123 1.334 . S
C1124 C1127 1.413 . S
C1125 H1119 0.930 . S
C1125 C1126 1.392 . S
C1125 C1127 1.367 . S
C1126 C1125 1.392 . S
C1126 C1128 1.420 . S
C1126 C1158 1.423 . S
C1127 H1113 0.930 . S
C1127 C1124 1.413 . S
C1127 C1125 1.367 . S
C1128 N1123 1.362 . S
C1128 C1126 1.420 . S
C1128 C1132 1.429 . S
H1129 C1134 0.930 . S
N1130 Eu1092 2.609 1_655 S
N1130 C1132 1.377 . S
N1130 C1133 1.321 . S
C1131 H1117 0.930 . S
C1131 C1133 1.400 . S
C1131 C1134 1.386 . S
C1132 C1128 1.429 . S
C1132 N1130 1.377 . S
C1132 C1135 1.411 . S
C1133 H1115 0.930 . S
C1133 N1130 1.321 . S
C1133 C1131 1.400 . S
C1134 H1129 0.930 . S
C1134 C1131 1.386 . S
C1134 C1135 1.395 . S
C1135 C1132 1.411 . S
C1135 C1134 1.395 . S
C1135 C1157 1.420 . S
O1136 Eu1092 2.558 1_655 S
O1136 C1156 1.257 1_554 S
O1137 Eu1092 2.612 . S
O1137 Eu1103 2.380 . S
O1137 C1148 1.276 . S
O1138 Eu1103 2.432 . S
O1138 C1155 1.264 . S
O1139 Eu1092 2.339 . S
O1139 C1155 1.254 . S
O1140 Eu1092 2.563 . S
O1140 C1148 1.235 . S
O1141 Eu1092 2.419 1_655 S
O1141 C1156 1.249 1_554 S
O1142 Eu1103 2.558 . S
O1142 C1167 1.257 . S
O1143 Eu1092 2.380 . S
O1143 Eu1103 2.612 . S
O1143 C1159 1.276 . S
O1144 Eu1092 2.432 . S
O1144 C1166 1.264 . S
O1145 Eu1103 2.339 . S
O1145 C1166 1.254 . S
O1146 Eu1103 2.563 . S
O1146 C1159 1.235 . S
O1147 Eu1103 2.419 . S
O1147 C1167 1.249 . S
C1148 O1137 1.276 . S
C1148 O1140 1.235 . S
C1149 C1151 1.393 . S
C1149 C1153 1.395 . S
C1149 C1156 1.492 . S
C1150 C1151 1.392 . S
C1150 C1152 1.386 . S
C1151 C1149 1.393 . S
C1151 C1150 1.392 . S
C1151 H1168 0.930 . S
C1152 C1150 1.386 . S
C1152 C1154 1.395 . S
C1152 H1169 0.930 . S
C1153 C1149 1.395 . S
C1153 C1154 1.379 . S
C1153 H1170 0.930 . S
C1154 C1152 1.395 . S
C1154 C1153 1.379 . S
C1154 H1171 0.930 . S
C1155 O1138 1.264 . S
C1155 O1139 1.254 . S
C1156 Eu1092 2.848 1_656 S
C1156 O1136 1.257 1_556 S
C1156 O1141 1.249 1_556 S
C1156 C1149 1.492 . S
C1157 H1122 0.931 . S
C1157 C1135 1.420 . S
C1157 C1158 1.351 . S
C1158 H1120 0.930 . S
C1158 C1126 1.423 . S
C1158 C1157 1.351 . S
C1159 O1143 1.276 . S
C1159 O1146 1.235 . S
C1160 C1161 1.393 . S
C1160 C1164 1.395 . S
C1160 C1167 1.492 . S
C1161 C1160 1.393 . S
C1161 C1162 1.392 . S
C1161 H1172 0.930 . S
C1162 C1161 1.392 . S
C1162 C1163 1.386 . S
C1163 C1162 1.386 . S
C1163 C1165 1.395 . S
C1163 H1173 0.930 . S
C1164 C1160 1.395 . S
C1164 C1165 1.379 . S
C1164 H1174 0.930 . S
C1165 C1163 1.395 . S
C1165 C1164 1.379 . S
C1165 H1175 0.930 . S
C1166 O1144 1.264 . S
C1166 O1145 1.254 . S
C1167 Eu1103 2.848 . S
C1167 O1142 1.257 . S
C1167 O1147 1.249 . S
C1167 C1160 1.492 . S
H1168 C1151 0.930 . S
H1169 C1152 0.930 . S
H1170 C1153 0.930 . S
H1171 C1154 0.930 . S
H1172 C1161 0.930 . S
H1173 C1163 0.930 . S
H1174 C1164 0.930 . S
H1175 C1165 0.930 . S
Eu1176 N1207 2.657 . S
Eu1176 N1214 2.609 . S
Eu1176 O1220 2.558 . S
Eu1176 O1221 2.612 . S
Eu1176 O1223 2.339 . S
Eu1176 O1224 2.563 . S
Eu1176 O1225 2.419 . S
Eu1176 O1227 2.380 . S
Eu1176 O1228 2.432 . S
Eu1176 C1240 2.848 . S
C1177 C1180 1.429 . S
C1177 C1181 1.411 . S
C1177 N1184 1.377 . S
C1178 C1180 1.420 . S
C1178 C1182 1.423 . S
C1178 C1190 1.392 . S
C1179 C1181 1.420 . S
C1179 C1182 1.351 . S
C1179 H1202 0.931 . S
C1180 C1177 1.429 . S
C1180 C1178 1.420 . S
C1180 N1188 1.362 . S
C1181 C1177 1.411 . S
C1181 C1179 1.420 . S
C1181 C1186 1.395 . S
C1182 C1178 1.423 . S
C1182 C1179 1.351 . S
C1182 H1194 0.930 . S
C1183 C1185 1.400 . S
C1183 C1186 1.386 . S
C1183 H1195 0.930 . S
N1184 C1177 1.377 . S
N1184 C1185 1.321 . S
N1184 Eu1187 2.609 . S
C1185 C1183 1.400 . S
C1185 N1184 1.321 . S
C1185 H1192 0.930 . S
C1186 C1181 1.395 . S
C1186 C1183 1.386 . S
C1186 H1205 0.930 . S
Eu1187 N1184 2.609 . S
Eu1187 N1188 2.657 . S
Eu1187 O1221 2.380 . S
Eu1187 O1222 2.432 . S
Eu1187 O1226 2.558 . S
Eu1187 O1227 2.612 . S
Eu1187 O1229 2.339 . S
Eu1187 O1230 2.563 . S
Eu1187 O1231 2.419 . S
Eu1187 C1251 2.848 . S
N1188 C1180 1.362 . S
N1188 Eu1187 2.657 . S
N1188 C1189 1.334 . S
C1189 N1188 1.334 . S
C1189 C1191 1.413 . S
C1189 H1196 0.929 . S
C1190 C1178 1.392 . S
C1190 C1191 1.367 . S
C1190 H1198 0.930 . S
C1191 C1189 1.413 . S
C1191 C1190 1.367 . S
C1191 H1193 0.930 . S
H1192 C1185 0.930 . S
H1193 C1191 0.930 . S
H1194 C1182 0.930 . S
H1195 C1183 0.930 . S
H1196 C1189 0.929 . S
H1197 C1211 0.930 . S
H1198 C1190 0.930 . S
H1199 C1217 0.930 . S
H1200 C1208 0.929 . S
H1201 C1215 0.930 . S
H1202 C1179 0.931 . S
H1203 C1209 0.930 . S
H1204 C1242 0.930 . S
H1205 C1186 0.930 . S
H1206 C1241 0.931 . S
N1207 Eu1176 2.657 . S
N1207 C1208 1.334 . S
N1207 C1212 1.362 . S
C1208 H1200 0.929 . S
C1208 N1207 1.334 . S
C1208 C1211 1.413 . S
C1209 H1203 0.930 . S
C1209 C1210 1.392 . S
C1209 C1211 1.367 . S
C1210 C1209 1.392 . S
C1210 C1212 1.420 . S
C1210 C1242 1.423 . S
C1211 H1197 0.930 . S
C1211 C1208 1.413 . S
C1211 C1209 1.367 . S
C1212 N1207 1.362 . S
C1212 C1210 1.420 . S
C1212 C1216 1.429 . S
H1213 C1218 0.930 . S
N1214 Eu1176 2.609 . S
N1214 C1216 1.377 . S
N1214 C1217 1.321 . S
C1215 H1201 0.930 . S
C1215 C1217 1.400 . S
C1215 C1218 1.386 . S
C1216 C1212 1.429 . S
C1216 N1214 1.377 . S
C1216 C1219 1.411 . S
C1217 H1199 0.930 . S
C1217 N1214 1.321 . S
C1217 C1215 1.400 . S
C1218 H1213 0.930 . S
C1218 C1215 1.386 . S
C1218 C1219 1.395 . S
C1219 C1216 1.411 . S
C1219 C1218 1.395 . S
C1219 C1241 1.420 . S
O1220 Eu1176 2.558 . S
O1220 C1240 1.257 . S
O1221 Eu1176 2.612 . S
O1221 Eu1187 2.380 . S
O1221 C1232 1.276 . S
O1222 Eu1187 2.432 . S
O1222 C1239 1.264 . S
O1223 Eu1176 2.339 . S
O1223 C1239 1.254 . S
O1224 Eu1176 2.563 . S
O1224 C1232 1.235 . S
O1225 Eu1176 2.419 . S
O1225 C1240 1.249 . S
O1226 Eu1187 2.558 . S
O1226 C1251 1.257 . S
O1227 Eu1176 2.380 . S
O1227 Eu1187 2.612 . S
O1227 C1243 1.276 . S
O1228 Eu1176 2.432 . S
O1228 C1250 1.264 . S
O1229 Eu1187 2.339 . S
O1229 C1250 1.254 . S
O1230 Eu1187 2.563 . S
O1230 C1243 1.235 . S
O1231 Eu1187 2.419 . S
O1231 C1251 1.249 . S
C1232 O1221 1.276 . S
C1232 O1224 1.235 . S
C1233 C1235 1.393 . S
C1233 C1237 1.395 . S
C1233 C1240 1.492 . S
C1234 C1235 1.392 . S
C1234 C1236 1.386 . S
C1235 C1233 1.393 . S
C1235 C1234 1.392 . S
C1235 H1252 0.930 . S
C1236 C1234 1.386 . S
C1236 C1238 1.395 . S
C1236 H1253 0.930 . S
C1237 C1233 1.395 . S
C1237 C1238 1.379 . S
C1237 H1254 0.930 . S
C1238 C1236 1.395 . S
C1238 C1237 1.379 . S
C1238 H1255 0.930 . S
C1239 O1222 1.264 . S
C1239 O1223 1.254 . S
C1240 Eu1176 2.848 . S
C1240 O1220 1.257 . S
C1240 O1225 1.249 . S
C1240 C1233 1.492 . S
C1241 H1206 0.931 . S
C1241 C1219 1.420 . S
C1241 C1242 1.351 . S
C1242 H1204 0.930 . S
C1242 C1210 1.423 . S
C1242 C1241 1.351 . S
C1243 O1227 1.276 . S
C1243 O1230 1.235 . S
C1244 C1245 1.393 . S
C1244 C1248 1.395 . S
C1244 C1251 1.492 . S
C1245 C1244 1.393 . S
C1245 C1246 1.392 . S
C1245 H1256 0.930 . S
C1246 C1245 1.392 . S
C1246 C1247 1.386 . S
C1247 C1246 1.386 . S
C1247 C1249 1.395 . S
C1247 H1257 0.930 . S
C1248 C1244 1.395 . S
C1248 C1249 1.379 . S
C1248 H1258 0.930 . S
C1249 C1247 1.395 . S
C1249 C1248 1.379 . S
C1249 H1259 0.930 . S
C1250 O1228 1.264 . S
C1250 O1229 1.254 . S
C1251 Eu1187 2.848 . S
C1251 O1226 1.257 . S
C1251 O1231 1.249 . S
C1251 C1244 1.492 . S
H1252 C1235 0.930 . S
H1253 C1236 0.930 . S
H1254 C1237 0.930 . S
H1255 C1238 0.930 . S
H1256 C1245 0.930 . S
H1257 C1247 0.930 . S
H1258 C1248 0.930 . S
H1259 C1249 0.930 . S
Eu1260 N1291 2.657 . S
Eu1260 N1298 2.609 . S
Eu1260 O1304 2.558 . S
Eu1260 O1305 2.612 1_655 S
Eu1260 O1307 2.339 . S
Eu1260 O1308 2.563 1_655 S
Eu1260 O1309 2.419 . S
Eu1260 O1311 2.373 1_655 S
Eu1260 O1312 2.432 1_655 S
Eu1260 C1324 2.848 . S
C1261 C1264 1.429 . S
C1261 C1265 1.411 . S
C1261 N1268 1.377 . S
C1262 C1264 1.420 . S
C1262 C1266 1.423 . S
C1262 C1274 1.392 . S
C1263 C1265 1.420 . S
C1263 C1266 1.351 . S
C1263 H1286 0.931 . S
C1264 C1261 1.429 . S
C1264 C1262 1.420 . S
C1264 N1272 1.362 . S
C1265 C1261 1.411 . S
C1265 C1263 1.420 . S
C1265 C1270 1.395 . S
C1266 C1262 1.423 . S
C1266 C1263 1.351 . S
C1266 H1278 0.930 . S
C1267 C1269 1.400 . S
C1267 C1270 1.386 . S
C1267 H1279 0.930 . S
N1268 C1261 1.377 . S
N1268 C1269 1.321 . S
N1268 Eu1271 2.609 . S
C1269 C1267 1.400 . S
C1269 N1268 1.321 . S
C1269 H1276 0.930 . S
C1270 C1265 1.395 . S
C1270 C1267 1.386 . S
C1270 H1289 0.930 . S
Eu1271 N1268 2.609 . S
Eu1271 N1272 2.657 . S
Eu1271 O1305 2.380 . S
Eu1271 O1306 2.432 . S
Eu1271 O1310 2.558 . S
Eu1271 O1311 2.632 . S
Eu1271 O1313 2.339 . S
Eu1271 O1314 2.563 . S
Eu1271 O1315 2.419 . S
Eu1271 C1335 2.848 . S
N1272 C1264 1.362 . S
N1272 Eu1271 2.657 . S
N1272 C1273 1.334 . S
C1273 N1272 1.334 . S
C1273 C1275 1.413 . S
C1273 H1280 0.929 . S
C1274 C1262 1.392 . S
C1274 C1275 1.367 . S
C1274 H1282 0.930 . S
C1275 C1273 1.413 . S
C1275 C1274 1.367 . S
C1275 H1277 0.930 . S
H1276 C1269 0.930 . S
H1277 C1275 0.930 . S
H1278 C1266 0.930 . S
H1279 C1267 0.930 . S
H1280 C1273 0.929 . S
H1281 C1295 0.930 . S
H1282 C1274 0.930 . S
H1283 C1301 0.930 . S
H1284 C1292 0.929 . S
H1285 C1299 0.930 . S
H1286 C1263 0.931 . S
H1287 C1293 0.930 . S
H1288 C1326 0.930 . S
H1289 C1270 0.930 . S
H1290 C1325 0.931 . S
N1291 Eu1260 2.657 . S
N1291 C1292 1.334 . S
N1291 C1296 1.362 . S
C1292 H1284 0.929 . S
C1292 N1291 1.334 . S
C1292 C1295 1.413 . S
C1293 H1287 0.930 . S
C1293 C1294 1.392 . S
C1293 C1295 1.367 . S
C1294 C1293 1.392 . S
C1294 C1296 1.420 . S
C1294 C1326 1.423 . S
C1295 H1281 0.930 . S
C1295 C1292 1.413 . S
C1295 C1293 1.367 . S
C1296 N1291 1.362 . S
C1296 C1294 1.420 . S
C1296 C1300 1.429 . S
H1297 C1302 0.930 . S
N1298 Eu1260 2.609 . S
N1298 C1300 1.377 . S
N1298 C1301 1.321 . S
C1299 H1285 0.930 . S
C1299 C1301 1.400 . S
C1299 C1302 1.386 . S
C1300 C1296 1.429 . S
C1300 N1298 1.377 . S
C1300 C1303 1.411 . S
C1301 H1283 0.930 . S
C1301 N1298 1.321 . S
C1301 C1299 1.400 . S
C1302 H1297 0.930 . S
C1302 C1299 1.386 . S
C1302 C1303 1.395 . S
C1303 C1300 1.411 . S
C1303 C1302 1.395 . S
C1303 C1325 1.420 . S
O1304 Eu1260 2.558 . S
O1304 C1324 1.257 . S
O1305 Eu1260 2.612 1_455 S
O1305 Eu1271 2.380 . S
O1305 C1316 1.276 . S
O1306 Eu1271 2.432 . S
O1306 C1323 1.264 . S
O1307 Eu1260 2.339 . S
O1307 C1323 1.254 1_655 S
O1308 Eu1260 2.563 1_455 S
O1308 C1316 1.235 . S
O1309 Eu1260 2.419 . S
O1309 C1324 1.249 . S
O1310 Eu1271 2.558 . S
O1310 C1335 1.257 . S
O1311 Eu1260 2.373 1_455 S
O1311 Eu1271 2.632 . S
O1311 C1327 1.277 1_455 S
O1312 Eu1260 2.432 1_455 S
O1312 C1334 1.264 . S
O1313 Eu1271 2.339 . S
O1313 C1334 1.254 . S
O1314 Eu1271 2.563 . S
O1314 C1327 1.235 1_455 S
O1315 Eu1271 2.419 . S
O1315 C1335 1.249 . S
C1316 O1305 1.276 . S
C1316 O1308 1.235 . S
C1317 C1319 1.393 . S
C1317 C1321 1.395 . S
C1317 C1324 1.492 1_554 S
C1318 C1319 1.392 . S
C1318 C1320 1.386 . S
C1319 C1317 1.393 . S
C1319 C1318 1.392 . S
C1319 H1336 0.930 . S
C1320 C1318 1.386 . S
C1320 C1322 1.395 . S
C1320 H1337 0.930 . S
C1321 C1317 1.395 . S
C1321 C1322 1.379 . S
C1321 H1338 0.930 . S
C1322 C1320 1.395 . S
C1322 C1321 1.379 . S
C1322 H1339 0.930 . S
C1323 O1306 1.264 . S
C1323 O1307 1.254 1_455 S
C1324 Eu1260 2.848 . S
C1324 O1304 1.257 . S
C1324 O1309 1.249 . S
C1324 C1317 1.492 1_556 S
C1325 H1290 0.931 . S
C1325 C1303 1.420 . S
C1325 C1326 1.351 . S
C1326 H1288 0.930 . S
C1326 C1294 1.423 . S
C1326 C1325 1.351 . S
C1327 O1311 1.277 1_655 S
C1327 O1314 1.235 1_655 S
C1328 C1329 1.393 . S
C1328 C1332 1.395 . S
C1328 C1335 1.492 . S
C1329 C1328 1.393 . S
C1329 C1330 1.392 . S
C1329 H1340 0.930 . S
C1330 C1329 1.392 . S
C1330 C1331 1.386 . S
C1331 C1330 1.386 . S
C1331 C1333 1.395 . S
C1331 H1341 0.930 . S
C1332 C1328 1.395 . S
C1332 C1333 1.379 . S
C1332 H1342 0.930 . S
C1333 C1331 1.395 . S
C1333 C1332 1.379 . S
C1333 H1343 0.930 . S
C1334 O1312 1.264 . S
C1334 O1313 1.254 . S
C1335 Eu1271 2.848 . S
C1335 O1310 1.257 . S
C1335 O1315 1.249 . S
C1335 C1328 1.492 . S
H1336 C1319 0.930 . S
H1337 C1320 0.930 . S
H1338 C1321 0.930 . S
H1339 C1322 0.930 . S
H1340 C1329 0.930 . S
H1341 C1331 0.930 . S
H1342 C1332 0.930 . S
H1343 C1333 0.930 . S
H1344 C1350 0.930 . S
H1345 C1354 0.930 . S
H1346 C1359 0.929 . S
H1347 C1357 0.929 . S
H1348 C1352 0.929 . S
H1349 C1358 0.929 . S
C1350 H1344 0.930 . S
C1350 C1351 1.367 . S
C1350 C1358 1.378 . S
C1351 C1350 1.367 . S
C1351 C1359 1.433 . S
C1352 H1348 0.929 . S
C1352 C1354 1.378 . S
C1352 C1356 1.350 . S
C1353 C1356 1.463 . S
C1353 C1358 1.350 . S
C1353 N1361 1.427 . S
C1354 H1345 0.930 . S
C1354 C1352 1.378 . S
C1354 C1355 1.367 . S
C1355 C1354 1.367 . S
C1355 C1357 1.433 . S
C1356 C1352 1.350 . S
C1356 C1353 1.463 . S
C1356 N1360 1.427 . S
C1357 H1347 0.929 . S
C1357 C1355 1.433 . S
C1357 N1360 1.384 . S
C1358 H1349 0.929 . S
C1358 C1350 1.378 . S
C1358 C1353 1.350 . S
C1359 H1346 0.929 . S
C1359 C1351 1.433 . S
C1359 N1361 1.384 . S
N1360 C1356 1.427 . S
N1360 C1357 1.384 . S
N1361 C1353 1.427 . S
N1361 C1359 1.384 . S
H1362 C1368 0.930 . S
H1363 C1372 0.930 . S
H1364 C1377 0.929 . S
H1365 C1375 0.929 . S
H1366 C1370 0.929 . S
H1367 C1376 0.929 . S
C1368 H1362 0.930 . S
C1368 C1369 1.367 . S
C1368 C1376 1.378 . S
C1369 C1368 1.367 . S
C1369 C1377 1.433 . S
C1370 H1366 0.929 . S
C1370 C1372 1.378 . S
C1370 C1374 1.350 1_556 S
C1371 C1374 1.463 . S
C1371 C1376 1.350 . S
C1371 N1379 1.427 . S
C1372 H1363 0.930 . S
C1372 C1370 1.378 . S
C1372 C1373 1.367 . S
C1373 C1372 1.367 . S
C1373 C1375 1.433 . S
C1374 C1370 1.350 1_554 S
C1374 C1371 1.463 . S
C1374 N1378 1.427 . S
C1375 H1365 0.929 . S
C1375 C1373 1.433 . S
C1375 N1378 1.384 1_556 S
C1376 H1367 0.929 . S
C1376 C1368 1.378 . S
C1376 C1371 1.350 . S
C1377 H1364 0.929 . S
C1377 C1369 1.433 . S
C1377 N1379 1.384 . S
N1378 C1374 1.427 . S
N1378 C1375 1.384 1_554 S
N1379 C1371 1.427 . S
N1379 C1377 1.384 . S
H1380 C1386 0.930 . S
H1381 C1390 0.930 . S
H1382 C1395 0.929 . S
H1383 C1393 0.929 . S
H1384 C1388 0.929 . S
H1385 C1394 0.929 . S
C1386 H1380 0.930 . S
C1386 C1387 1.367 . S
C1386 C1394 1.378 . S
C1387 C1386 1.367 . S
C1387 C1395 1.433 . S
C1388 H1384 0.929 . S
C1388 C1390 1.378 . S
C1388 C1392 1.350 . S
C1389 C1392 1.463 . S
C1389 C1394 1.350 . S
C1389 N1397 1.427 . S
C1390 H1381 0.930 . S
C1390 C1388 1.378 . S
C1390 C1391 1.367 . S
C1391 C1390 1.367 . S
C1391 C1393 1.433 . S
C1392 C1388 1.350 . S
C1392 C1389 1.463 . S
C1392 N1396 1.427 . S
C1393 H1383 0.929 . S
C1393 C1391 1.433 . S
C1393 N1396 1.384 . S
C1394 H1385 0.929 . S
C1394 C1386 1.378 . S
C1394 C1389 1.350 . S
C1395 H1382 0.929 . S
C1395 C1387 1.433 . S
C1395 N1397 1.384 . S
N1396 C1392 1.427 . S
N1396 C1393 1.384 . S
N1397 C1389 1.427 . S
N1397 C1395 1.384 . S
H1398 C1404 0.930 . S
H1399 C1408 0.930 . S
H1400 C1413 0.929 . S
H1401 C1411 0.929 . S
H1402 C1406 0.929 . S
H1403 C1412 0.929 . S
C1404 H1398 0.930 . S
C1404 C1405 1.367 . S
C1404 C1412 1.378 . S
C1405 C1404 1.367 . S
C1405 C1413 1.433 . S
C1406 H1402 0.929 . S
C1406 C1408 1.378 . S
C1406 C1410 1.350 . S
C1407 C1410 1.463 . S
C1407 C1412 1.350 . S
C1407 N1415 1.427 . S
C1408 H1399 0.930 . S
C1408 C1406 1.378 . S
C1408 C1409 1.367 . S
C1409 C1408 1.367 . S
C1409 C1411 1.433 . S
C1410 C1406 1.350 . S
C1410 C1407 1.463 . S
C1410 N1414 1.427 . S
C1411 H1401 0.929 . S
C1411 C1409 1.433 . S
C1411 N1414 1.384 . S
C1412 H1403 0.929 . S
C1412 C1404 1.378 . S
C1412 C1407 1.350 . S
C1413 H1400 0.929 . S
C1413 C1405 1.433 . S
C1413 N1415 1.384 . S
N1414 C1410 1.427 . S
N1414 C1411 1.384 . S
N1415 C1407 1.427 . S
N1415 C1413 1.384 . S
H1416 C1422 0.930 . S
H1417 C1426 0.930 . S
H1418 C1431 0.929 . S
H1419 C1429 0.929 . S
H1420 C1424 0.929 . S
H1421 C1430 0.929 . S
C1422 H1416 0.930 . S
C1422 C1423 1.367 . S
C1422 C1430 1.378 . S
C1423 C1422 1.367 . S
C1423 C1431 1.433 . S
C1424 H1420 0.929 . S
C1424 C1426 1.378 . S
C1424 C1428 1.350 . S
C1425 C1428 1.463 . S
C1425 C1430 1.350 . S
C1425 N1433 1.427 . S
C1426 H1417 0.930 . S
C1426 C1424 1.378 . S
C1426 C1427 1.367 . S
C1427 C1426 1.367 . S
C1427 C1429 1.433 . S
C1428 C1424 1.350 . S
C1428 C1425 1.463 . S
C1428 N1432 1.427 . S
C1429 H1419 0.929 . S
C1429 C1427 1.433 . S
C1429 N1432 1.384 . S
C1430 H1421 0.929 . S
C1430 C1422 1.378 . S
C1430 C1425 1.350 . S
C1431 H1418 0.929 . S
C1431 C1423 1.433 . S
C1431 N1433 1.384 . S
N1432 C1428 1.427 . S
N1432 C1429 1.384 . S
N1433 C1425 1.427 . S
N1433 C1431 1.384 . S
H1434 C1440 0.930 . S
H1435 C1444 0.930 . S
H1436 C1449 0.929 . S
H1437 C1447 0.929 . S
H1438 C1442 0.929 . S
H1439 C1448 0.929 . S
C1440 H1434 0.930 . S
C1440 C1441 1.367 . S
C1440 C1448 1.378 . S
C1441 C1440 1.367 . S
C1441 C1449 1.433 . S
C1442 H1438 0.929 . S
C1442 C1444 1.378 1_556 S
C1442 C1446 1.350 . S
C1443 C1446 1.463 . S
C1443 C1448 1.350 . S
C1443 N1451 1.427 . S
C1444 H1435 0.930 . S
C1444 C1442 1.378 1_554 S
C1444 C1445 1.367 . S
C1445 C1444 1.367 . S
C1445 C1447 1.433 1_554 S
C1446 C1442 1.350 . S
C1446 C1443 1.463 . S
C1446 N1450 1.427 . S
C1447 H1437 0.929 . S
C1447 C1445 1.433 1_556 S
C1447 N1450 1.384 . S
C1448 H1439 0.929 . S
C1448 C1440 1.378 . S
C1448 C1443 1.350 . S
C1449 H1436 0.929 . S
C1449 C1441 1.433 . S
C1449 N1451 1.384 . S
N1450 C1446 1.427 . S
N1450 C1447 1.384 . S
N1451 C1443 1.427 . S
N1451 C1449 1.384 . S
H1452 C1458 0.930 . S
H1453 C1462 0.930 . S
H1454 C1467 0.929 . S
H1455 C1465 0.929 . S
H1456 C1460 0.929 . S
H1457 C1466 0.929 . S
C1458 H1452 0.930 . S
C1458 C1459 1.367 . S
C1458 C1466 1.378 . S
C1459 C1458 1.367 . S
C1459 C1467 1.433 . S
C1460 H1456 0.929 . S
C1460 C1462 1.378 . S
C1460 C1464 1.350 . S
C1461 C1464 1.463 . S
C1461 C1466 1.350 . S
C1461 N1469 1.427 . S
C1462 H1453 0.930 . S
C1462 C1460 1.378 . S
C1462 C1463 1.367 . S
C1463 C1462 1.367 . S
C1463 C1465 1.433 . S
C1464 C1460 1.350 . S
C1464 C1461 1.463 . S
C1464 N1468 1.427 . S
C1465 H1455 0.929 . S
C1465 C1463 1.433 . S
C1465 N1468 1.384 . S
C1466 H1457 0.929 . S
C1466 C1458 1.378 . S
C1466 C1461 1.350 . S
C1467 H1454 0.929 . S
C1467 C1459 1.433 . S
C1467 N1469 1.384 . S
N1468 C1464 1.427 . S
N1468 C1465 1.384 . S
N1469 C1461 1.427 . S
N1469 C1467 1.384 . S
H1470 C1476 0.930 . S
H1471 C1480 0.930 . S
H1472 C1485 0.929 . S
H1473 C1483 0.929 . S
H1474 C1478 0.929 . S
H1475 C1484 0.929 . S
C1476 H1470 0.930 . S
C1476 C1477 1.367 . S
C1476 C1484 1.378 . S
C1477 C1476 1.367 . S
C1477 C1485 1.433 . S
C1478 H1474 0.929 . S
C1478 C1480 1.378 . S
C1478 C1482 1.350 . S
C1479 C1482 1.463 . S
C1479 C1484 1.350 . S
C1479 N1487 1.427 . S
C1480 H1471 0.930 . S
C1480 C1478 1.378 . S
C1480 C1481 1.367 . S
C1481 C1480 1.367 . S
C1481 C1483 1.433 . S
C1482 C1478 1.350 . S
C1482 C1479 1.463 . S
C1482 N1486 1.427 . S
C1483 H1473 0.929 . S
C1483 C1481 1.433 . S
C1483 N1486 1.384 . S
C1484 H1475 0.929 . S
C1484 C1476 1.378 . S
C1484 C1479 1.350 . S
C1485 H1472 0.929 . S
C1485 C1477 1.433 . S
C1485 N1487 1.384 . S
N1486 C1482 1.427 . S
N1486 C1483 1.384 . S
N1487 C1479 1.427 . S
N1487 C1485 1.384 . S
H1488 C1494 0.930 . S
H1489 C1498 0.930 . S
H1490 C1503 0.929 . S
H1491 C1501 0.929 . S
H1492 C1496 0.929 . S
H1493 C1502 0.929 . S
C1494 H1488 0.930 . S
C1494 C1495 1.367 . S
C1494 C1502 1.378 . S
C1495 C1494 1.367 . S
C1495 C1503 1.433 . S
C1496 H1492 0.929 . S
C1496 C1498 1.378 . S
C1496 C1500 1.350 . S
C1497 C1500 1.463 . S
C1497 C1502 1.350 . S
C1497 N1505 1.427 . S
C1498 H1489 0.930 . S
C1498 C1496 1.378 . S
C1498 C1499 1.367 . S
C1499 C1498 1.367 . S
C1499 C1501 1.433 . S
C1500 C1496 1.350 . S
C1500 C1497 1.463 . S
C1500 N1504 1.427 . S
C1501 H1491 0.929 . S
C1501 C1499 1.433 . S
C1501 N1504 1.384 . S
C1502 H1493 0.929 . S
C1502 C1494 1.378 . S
C1502 C1497 1.350 . S
C1503 H1490 0.929 . S
C1503 C1495 1.433 . S
C1503 N1505 1.384 . S
N1504 C1500 1.427 . S
N1504 C1501 1.384 . S
N1505 C1497 1.427 . S
N1505 C1503 1.384 . S
H1506 C1512 0.930 . S
H1507 C1516 0.930 . S
H1508 C1521 0.929 . S
H1509 C1519 0.929 . S
H1510 C1514 0.929 . S
H1511 C1520 0.929 . S
C1512 H1506 0.930 . S
C1512 C1513 1.367 . S
C1512 C1520 1.378 . S
C1513 C1512 1.367 . S
C1513 C1521 1.433 . S
C1514 H1510 0.929 . S
C1514 C1516 1.378 . S
C1514 C1518 1.350 . S
C1515 C1518 1.463 . S
C1515 C1520 1.350 . S
C1515 N1523 1.427 . S
C1516 H1507 0.930 . S
C1516 C1514 1.378 . S
C1516 C1517 1.367 . S
C1517 C1516 1.367 . S
C1517 C1519 1.433 . S
C1518 C1514 1.350 . S
C1518 C1515 1.463 . S
C1518 N1522 1.427 . S
C1519 H1509 0.929 . S
C1519 C1517 1.433 . S
C1519 N1522 1.384 . S
C1520 H1511 0.929 . S
C1520 C1512 1.378 . S
C1520 C1515 1.350 . S
C1521 H1508 0.929 . S
C1521 C1513 1.433 . S
C1521 N1523 1.384 . S
N1522 C1518 1.427 . S
N1522 C1519 1.384 . S
N1523 C1515 1.427 . S
N1523 C1521 1.384 . S
H1524 C1530 0.930 . S
H1525 C1534 0.930 . S
H1526 C1539 0.929 . S
H1527 C1537 0.929 . S
H1528 C1532 0.929 . S
H1529 C1538 0.929 . S
C1530 H1524 0.930 . S
C1530 C1531 1.367 . S
C1530 C1538 1.378 . S
C1531 C1530 1.367 . S
C1531 C1539 1.433 . S
C1532 H1528 0.929 . S
C1532 C1534 1.378 . S
C1532 C1536 1.350 . S
C1533 C1536 1.463 . S
C1533 C1538 1.350 . S
C1533 N1541 1.427 . S
C1534 H1525 0.930 . S
C1534 C1532 1.378 . S
C1534 C1535 1.367 . S
C1535 C1534 1.367 . S
C1535 C1537 1.433 . S
C1536 C1532 1.350 . S
C1536 C1533 1.463 . S
C1536 N1540 1.427 . S
C1537 H1527 0.929 . S
C1537 C1535 1.433 . S
C1537 N1540 1.384 . S
C1538 H1529 0.929 . S
C1538 C1530 1.378 . S
C1538 C1533 1.350 . S
C1539 H1526 0.929 . S
C1539 C1531 1.433 . S
C1539 N1541 1.384 . S
N1540 C1536 1.427 . S
N1540 C1537 1.384 . S
N1541 C1533 1.427 . S
N1541 C1539 1.384 . S
H1542 C1548 0.930 . S
H1543 C1552 0.930 . S
H1544 C1557 0.929 . S
H1545 C1555 0.929 . S
H1546 C1550 0.929 . S
H1547 C1556 0.929 . S
C1548 H1542 0.930 . S
C1548 C1549 1.367 . S
C1548 C1556 1.378 . S
C1549 C1548 1.367 . S
C1549 C1557 1.433 . S
C1550 H1546 0.929 . S
C1550 C1552 1.378 . S
C1550 C1554 1.350 . S
C1551 C1554 1.463 . S
C1551 C1556 1.350 . S
C1551 N1559 1.427 . S
C1552 H1543 0.930 . S
C1552 C1550 1.378 . S
C1552 C1553 1.367 . S
C1553 C1552 1.367 . S
C1553 C1555 1.433 . S
C1554 C1550 1.350 . S
C1554 C1551 1.463 . S
C1554 N1558 1.427 . S
C1555 H1545 0.929 . S
C1555 C1553 1.433 . S
C1555 N1558 1.384 . S
C1556 H1547 0.929 . S
C1556 C1548 1.378 . S
C1556 C1551 1.350 . S
C1557 H1544 0.929 . S
C1557 C1549 1.433 . S
C1557 N1559 1.384 . S
N1558 C1554 1.427 . S
N1558 C1555 1.384 . S
N1559 C1551 1.427 . S
N1559 C1557 1.384 . S
H1560 C1566 0.930 . S
H1561 C1570 0.930 . S
H1562 C1575 0.929 . S
H1563 C1573 0.929 . S
H1564 C1568 0.929 . S
H1565 C1574 0.929 . S
C1566 H1560 0.930 . S
C1566 C1567 1.367 . S
C1566 C1574 1.378 . S
C1567 C1566 1.367 . S
C1567 C1575 1.433 . S
C1568 H1564 0.929 . S
C1568 C1570 1.378 . S
C1568 C1572 1.350 . S
C1569 C1572 1.463 . S
C1569 C1574 1.350 . S
C1569 N1577 1.427 . S
C1570 H1561 0.930 . S
C1570 C1568 1.378 . S
C1570 C1571 1.367 . S
C1571 C1570 1.367 . S
C1571 C1573 1.433 . S
C1572 C1568 1.350 . S
C1572 C1569 1.463 . S
C1572 N1576 1.427 . S
C1573 H1563 0.929 . S
C1573 C1571 1.433 . S
C1573 N1576 1.384 . S
C1574 H1565 0.929 . S
C1574 C1566 1.378 . S
C1574 C1569 1.350 . S
C1575 H1562 0.929 . S
C1575 C1567 1.433 . S
C1575 N1577 1.384 . S
N1576 C1572 1.427 . S
N1576 C1573 1.384 . S
N1577 C1569 1.427 . S
N1577 C1575 1.384 . S
H1578 C1584 0.930 . S
H1579 C1588 0.930 . S
H1580 C1593 0.929 . S
H1581 C1591 0.929 . S
H1582 C1586 0.929 . S
H1583 C1592 0.929 . S
C1584 H1578 0.930 . S
C1584 C1585 1.367 . S
C1584 C1592 1.378 . S
C1585 C1584 1.367 . S
C1585 C1593 1.433 . S
C1586 H1582 0.929 . S
C1586 C1588 1.378 . S
C1586 C1590 1.350 . S
C1587 C1590 1.463 . S
C1587 C1592 1.350 . S
C1587 N1595 1.427 . S
C1588 H1579 0.930 . S
C1588 C1586 1.378 . S
C1588 C1589 1.367 . S
C1589 C1588 1.367 . S
C1589 C1591 1.433 . S
C1590 C1586 1.350 . S
C1590 C1587 1.463 . S
C1590 N1594 1.427 . S
C1591 H1581 0.929 . S
C1591 C1589 1.433 . S
C1591 N1594 1.384 . S
C1592 H1583 0.929 . S
C1592 C1584 1.378 . S
C1592 C1587 1.350 . S
C1593 H1580 0.929 . S
C1593 C1585 1.433 . S
C1593 N1595 1.384 . S
N1594 C1590 1.427 . S
N1594 C1591 1.384 . S
N1595 C1587 1.427 . S
N1595 C1593 1.384 . S
H1596 C1602 0.930 . S
H1597 C1606 0.930 . S
H1598 C1611 0.929 . S
H1599 C1609 0.929 . S
H1600 C1604 0.929 . S
H1601 C1610 0.929 . S
C1602 H1596 0.930 . S
C1602 C1603 1.367 . S
C1602 C1610 1.378 . S
C1603 C1602 1.367 . S
C1603 C1611 1.433 . S
C1604 H1600 0.929 . S
C1604 C1606 1.378 . S
C1604 C1608 1.350 . S
C1605 C1608 1.463 . S
C1605 C1610 1.350 . S
C1605 N1613 1.427 . S
C1606 H1597 0.930 . S
C1606 C1604 1.378 . S
C1606 C1607 1.367 . S
C1607 C1606 1.367 . S
C1607 C1609 1.433 . S
C1608 C1604 1.350 . S
C1608 C1605 1.463 . S
C1608 N1612 1.427 . S
C1609 H1599 0.929 . S
C1609 C1607 1.433 . S
C1609 N1612 1.384 . S
C1610 H1601 0.929 . S
C1610 C1602 1.378 . S
C1610 C1605 1.350 . S
C1611 H1598 0.929 . S
C1611 C1603 1.433 . S
C1611 N1613 1.384 . S
N1612 C1608 1.427 . S
N1612 C1609 1.384 . S
N1613 C1605 1.427 . S
N1613 C1611 1.384 . S
H1614 C1620 0.930 . S
H1615 C1624 0.930 . S
H1616 C1629 0.929 . S
H1617 C1627 0.929 . S
H1618 C1622 0.929 . S
H1619 C1628 0.929 . S
C1620 H1614 0.930 . S
C1620 C1621 1.367 . S
C1620 C1628 1.378 . S
C1621 C1620 1.367 . S
C1621 C1629 1.433 . S
C1622 H1618 0.929 . S
C1622 C1624 1.378 . S
C1622 C1626 1.350 . S
C1623 C1626 1.463 . S
C1623 C1628 1.350 . S
C1623 N1631 1.427 . S
C1624 H1615 0.930 . S
C1624 C1622 1.378 . S
C1624 C1625 1.367 . S
C1625 C1624 1.367 . S
C1625 C1627 1.433 . S
C1626 C1622 1.350 . S
C1626 C1623 1.463 . S
C1626 N1630 1.427 . S
C1627 H1617 0.929 . S
C1627 C1625 1.433 . S
C1627 N1630 1.384 . S
C1628 H1619 0.929 . S
C1628 C1620 1.378 . S
C1628 C1623 1.350 . S
C1629 H1616 0.929 . S
C1629 C1621 1.433 . S
C1629 N1631 1.384 . S
N1630 C1626 1.427 . S
N1630 C1627 1.384 . S
N1631 C1623 1.427 . S
N1631 C1629 1.384 . S
H1632 C1638 0.930 . S
H1633 C1642 0.930 . S
H1634 C1647 0.929 . S
H1635 C1645 0.929 . S
H1636 C1640 0.929 . S
H1637 C1646 0.929 . S
C1638 H1632 0.930 . S
C1638 C1639 1.367 . S
C1638 C1646 1.378 . S
C1639 C1638 1.367 . S
C1639 C1647 1.433 . S
C1640 H1636 0.929 . S
C1640 C1642 1.378 . S
C1640 C1644 1.350 1_655 S
C1641 C1644 1.463 . S
C1641 C1646 1.350 . S
C1641 N1649 1.427 . S
C1642 H1633 0.930 . S
C1642 C1640 1.378 . S
C1642 C1643 1.367 1_655 S
C1643 C1642 1.367 1_455 S
C1643 C1645 1.433 . S
C1644 C1640 1.350 1_455 S
C1644 C1641 1.463 . S
C1644 N1648 1.427 . S
C1645 H1635 0.929 . S
C1645 C1643 1.433 . S
C1645 N1648 1.384 . S
C1646 H1637 0.929 . S
C1646 C1638 1.378 . S
C1646 C1641 1.350 . S
C1647 H1634 0.929 . S
C1647 C1639 1.433 . S
C1647 N1649 1.384 . S
N1648 C1644 1.427 . S
N1648 C1645 1.384 . S
N1649 C1641 1.427 . S
N1649 C1647 1.384 . S
H1650 C1656 0.930 . S
H1651 C1660 0.930 . S
H1652 C1665 0.929 . S
H1653 C1663 0.929 . S
H1654 C1658 0.929 . S
H1655 C1664 0.929 . S
C1656 H1650 0.930 . S
C1656 C1657 1.367 1_455 S
C1656 C1664 1.378 . S
C1657 C1656 1.367 1_655 S
C1657 C1665 1.433 . S
C1658 H1654 0.929 . S
C1658 C1660 1.378 . S
C1658 C1662 1.350 . S
C1659 C1662 1.463 . S
C1659 C1664 1.350 . S
C1659 N1667 1.427 1_455 S
C1660 H1651 0.930 . S
C1660 C1658 1.378 . S
C1660 C1661 1.367 . S
C1661 C1660 1.367 . S
C1661 C1663 1.433 . S
C1662 C1658 1.350 . S
C1662 C1659 1.463 . S
C1662 N1666 1.427 . S
C1663 H1653 0.929 . S
C1663 C1661 1.433 . S
C1663 N1666 1.384 . S
C1664 H1655 0.929 . S
C1664 C1656 1.378 . S
C1664 C1659 1.350 . S
C1665 H1652 0.929 . S
C1665 C1657 1.433 . S
C1665 N1667 1.384 . S
N1666 C1662 1.427 . S
N1666 C1663 1.384 . S
N1667 C1659 1.427 1_655 S
N1667 C1665 1.384 . S
H1668 C1674 0.930 . S
H1669 C1678 0.930 . S
H1670 C1683 0.929 . S
H1671 C1681 0.929 . S
H1672 C1676 0.929 . S
H1673 C1682 0.929 . S
C1674 H1668 0.930 . S
C1674 C1675 1.367 . S
C1674 C1682 1.378 . S
C1675 C1674 1.367 . S
C1675 C1683 1.433 . S
C1676 H1672 0.929 . S
C1676 C1678 1.378 . S
C1676 C1680 1.350 . S
C1677 C1680 1.463 . S
C1677 C1682 1.350 . S
C1677 N1685 1.427 . S
C1678 H1669 0.930 . S
C1678 C1676 1.378 . S
C1678 C1679 1.367 . S
C1679 C1678 1.367 . S
C1679 C1681 1.433 . S
C1680 C1676 1.350 . S
C1680 C1677 1.463 . S
C1680 N1684 1.427 . S
C1681 H1671 0.929 . S
C1681 C1679 1.433 . S
C1681 N1684 1.384 . S
C1682 H1673 0.929 . S
C1682 C1674 1.378 . S
C1682 C1677 1.350 . S
C1683 H1670 0.929 . S
C1683 C1675 1.433 . S
C1683 N1685 1.384 . S
N1684 C1680 1.427 . S
N1684 C1681 1.384 . S
N1685 C1677 1.427 . S
N1685 C1683 1.384 . S
H1686 C1692 0.930 . S
H1687 C1696 0.930 . S
H1688 C1701 0.929 . S
H1689 C1699 0.929 . S
H1690 C1694 0.929 . S
H1691 C1700 0.929 . S
C1692 H1686 0.930 . S
C1692 C1693 1.367 . S
C1692 C1700 1.378 . S
C1693 C1692 1.367 . S
C1693 C1701 1.433 . S
C1694 H1690 0.929 . S
C1694 C1696 1.378 . S
C1694 C1698 1.350 . S
C1695 C1698 1.463 . S
C1695 C1700 1.350 . S
C1695 N1703 1.427 . S
C1696 H1687 0.930 . S
C1696 C1694 1.378 . S
C1696 C1697 1.367 . S
C1697 C1696 1.367 . S
C1697 C1699 1.433 . S
C1698 C1694 1.350 . S
C1698 C1695 1.463 . S
C1698 N1702 1.427 . S
C1699 H1689 0.929 . S
C1699 C1697 1.433 . S
C1699 N1702 1.384 . S
C1700 H1691 0.929 . S
C1700 C1692 1.378 . S
C1700 C1695 1.350 . S
C1701 H1688 0.929 . S
C1701 C1693 1.433 . S
C1701 N1703 1.384 . S
N1702 C1698 1.427 . S
N1702 C1699 1.384 . S
N1703 C1695 1.427 . S
N1703 C1701 1.384 . S
H1704 C1710 0.930 . S
H1705 C1714 0.930 . S
H1706 C1719 0.929 . S
H1707 C1717 0.929 1_655 S
H1708 C1712 0.929 . S
H1709 C1718 0.929 . S
C1710 H1704 0.930 . S
C1710 C1711 1.367 . S
C1710 C1718 1.378 . S
C1711 C1710 1.367 . S
C1711 C1719 1.433 . S
C1712 H1708 0.929 . S
C1712 C1714 1.378 . S
C1712 C1716 1.350 . S
C1713 C1716 1.463 . S
C1713 C1718 1.350 . S
C1713 N1721 1.427 . S
C1714 H1705 0.930 . S
C1714 C1712 1.378 . S
C1714 C1715 1.367 . S
C1715 C1714 1.367 . S
C1715 C1717 1.433 . S
C1716 C1712 1.350 . S
C1716 C1713 1.463 . S
C1716 N1720 1.427 . S
C1717 H1707 0.929 1_455 S
C1717 C1715 1.433 . S
C1717 N1720 1.384 . S
C1718 H1709 0.929 . S
C1718 C1710 1.378 . S
C1718 C1713 1.350 . S
C1719 H1706 0.929 . S
C1719 C1711 1.433 . S
C1719 N1721 1.384 . S
N1720 C1716 1.427 . S
N1720 C1717 1.384 . S
N1721 C1713 1.427 . S
N1721 C1719 1.384 . S
H1722 C1728 0.930 . S
H1723 C1732 0.930 . S
H1724 C1737 0.929 . S
H1725 C1735 0.929 . S
H1726 C1730 0.929 . S
H1727 C1736 0.929 . S
C1728 H1722 0.930 . S
C1728 C1729 1.367 . S
C1728 C1736 1.378 . S
C1729 C1728 1.367 . S
C1729 C1737 1.433 . S
C1730 H1726 0.929 . S
C1730 C1732 1.378 . S
C1730 C1734 1.350 . S
C1731 C1734 1.463 . S
C1731 C1736 1.350 . S
C1731 N1739 1.427 . S
C1732 H1723 0.930 . S
C1732 C1730 1.378 . S
C1732 C1733 1.367 . S
C1733 C1732 1.367 . S
C1733 C1735 1.433 . S
C1734 C1730 1.350 . S
C1734 C1731 1.463 . S
C1734 N1738 1.427 . S
C1735 H1725 0.929 . S
C1735 C1733 1.433 . S
C1735 N1738 1.384 . S
C1736 H1727 0.929 . S
C1736 C1728 1.378 . S
C1736 C1731 1.350 . S
C1737 H1724 0.929 . S
C1737 C1729 1.433 . S
C1737 N1739 1.384 . S
N1738 C1734 1.427 . S
N1738 C1735 1.384 . S
N1739 C1731 1.427 . S
N1739 C1737 1.384 . S
H1740 C1746 0.930 . S
H1741 C1750 0.930 . S
H1742 C1755 0.929 . S
H1743 C1753 0.929 . S
H1744 C1748 0.929 . S
H1745 C1754 0.929 . S
C1746 H1740 0.930 . S
C1746 C1747 1.367 . S
C1746 C1754 1.378 . S
C1747 C1746 1.367 . S
C1747 C1755 1.433 . S
C1748 H1744 0.929 . S
C1748 C1750 1.378 . S
C1748 C1752 1.350 . S
C1749 C1752 1.463 . S
C1749 C1754 1.350 . S
C1749 N1757 1.427 . S
C1750 H1741 0.930 . S
C1750 C1748 1.378 . S
C1750 C1751 1.367 . S
C1751 C1750 1.367 . S
C1751 C1753 1.433 . S
C1752 C1748 1.350 . S
C1752 C1749 1.463 . S
C1752 N1756 1.427 . S
C1753 H1743 0.929 . S
C1753 C1751 1.433 . S
C1753 N1756 1.384 . S
C1754 H1745 0.929 . S
C1754 C1746 1.378 . S
C1754 C1749 1.350 . S
C1755 H1742 0.929 . S
C1755 C1747 1.433 . S
C1755 N1757 1.384 . S
N1756 C1752 1.427 . S
N1756 C1753 1.384 . S
N1757 C1749 1.427 . S
N1757 C1755 1.384 . S
H1758 C1764 0.930 . S
H1759 C1768 0.930 . S
H1760 C1773 0.929 . S
H1761 C1771 0.929 . S
H1762 C1766 0.929 . S
H1763 C1772 0.929 . S
C1764 H1758 0.930 . S
C1764 C1765 1.367 . S
C1764 C1772 1.378 . S
C1765 C1764 1.367 . S
C1765 C1773 1.433 . S
C1766 H1762 0.929 . S
C1766 C1768 1.378 1_455 S
C1766 C1770 1.350 . S
C1767 C1770 1.463 . S
C1767 C1772 1.350 . S
C1767 N1775 1.427 . S
C1768 H1759 0.930 . S
C1768 C1766 1.378 1_655 S
C1768 C1769 1.367 . S
C1769 C1768 1.367 . S
C1769 C1771 1.433 . S
C1770 C1766 1.350 . S
C1770 C1767 1.463 . S
C1770 N1774 1.427 1_455 S
C1771 H1761 0.929 . S
C1771 C1769 1.433 . S
C1771 N1774 1.384 . S
C1772 H1763 0.929 . S
C1772 C1764 1.378 . S
C1772 C1767 1.350 . S
C1773 H1760 0.929 . S
C1773 C1765 1.433 . S
C1773 N1775 1.384 . S
N1774 C1770 1.427 1_655 S
N1774 C1771 1.384 . S
N1775 C1767 1.427 . S
N1775 C1773 1.384 . S
H1776 C1782 0.930 . S
H1777 C1786 0.930 . S
H1778 C1791 0.929 . S
H1779 C1789 0.929 . S
H1780 C1784 0.929 1_554 S
H1781 C1790 0.929 1_556 S
C1782 H1776 0.930 . S
C1782 C1783 1.367 . S
C1782 C1790 1.378 . S
C1783 C1782 1.367 . S
C1783 C1791 1.433 . S
C1784 H1780 0.929 1_556 S
C1784 C1786 1.378 . S
C1784 C1788 1.350 . S
C1785 C1788 1.463 1_544 S
C1785 C1790 1.350 . S
C1785 N1793 1.427 1_545 S
C1786 H1777 0.930 . S
C1786 C1784 1.378 . S
C1786 C1787 1.367 . S
C1787 C1786 1.367 . S
C1787 C1789 1.433 . S
C1788 C1784 1.350 . S
C1788 C1785 1.463 1_566 S
C1788 N1792 1.427 . S
C1789 H1779 0.929 . S
C1789 C1787 1.433 . S
C1789 N1792 1.384 . S
C1790 H1781 0.929 1_554 S
C1790 C1782 1.378 . S
C1790 C1785 1.350 . S
C1791 H1778 0.929 . S
C1791 C1783 1.433 . S
C1791 N1793 1.384 1_545 S
N1792 C1788 1.427 . S
N1792 C1789 1.384 . S
N1793 C1785 1.427 1_565 S
N1793 C1791 1.384 1_565 S
H1794 C1800 0.930 . S
H1795 C1804 0.930 . S
H1796 C1809 0.929 . S
H1797 C1807 0.929 . S
H1798 C1802 0.929 . S
H1799 C1808 0.929 . S
C1800 H1794 0.930 . S
C1800 C1801 1.367 . S
C1800 C1808 1.378 . S
C1801 C1800 1.367 . S
C1801 C1809 1.433 . S
C1802 H1798 0.929 . S
C1802 C1804 1.378 . S
C1802 C1806 1.350 . S
C1803 C1806 1.463 . S
C1803 C1808 1.350 . S
C1803 N1811 1.427 . S
C1804 H1795 0.930 . S
C1804 C1802 1.378 . S
C1804 C1805 1.367 . S
C1805 C1804 1.367 . S
C1805 C1807 1.433 . S
C1806 C1802 1.350 . S
C1806 C1803 1.463 . S
C1806 N1810 1.427 . S
C1807 H1797 0.929 . S
C1807 C1805 1.433 . S
C1807 N1810 1.384 . S
C1808 H1799 0.929 . S
C1808 C1800 1.378 . S
C1808 C1803 1.350 . S
C1809 H1796 0.929 . S
C1809 C1801 1.433 . S
C1809 N1811 1.384 . S
N1810 C1806 1.427 . S
N1810 C1807 1.384 . S
N1811 C1803 1.427 . S
N1811 C1809 1.384 . S
H1812 C1818 0.930 . S
H1813 C1822 0.930 . S
H1814 C1827 0.929 1_565 S
H1815 C1825 0.929 1_545 S
H1816 C1820 0.929 . S
H1817 C1826 0.929 . S
C1818 H1812 0.930 . S
C1818 C1819 1.367 . S
C1818 C1826 1.378 . S
C1819 C1818 1.367 . S
C1819 C1827 1.433 . S
C1820 H1816 0.929 . S
C1820 C1822 1.378 . S
C1820 C1824 1.350 . S
C1821 C1824 1.463 1_545 S
C1821 C1826 1.350 . S
C1821 N1829 1.427 1_545 S
C1822 H1813 0.930 . S
C1822 C1820 1.378 . S
C1822 C1823 1.367 . S
C1823 C1822 1.367 . S
C1823 C1825 1.433 . S
C1824 C1820 1.350 . S
C1824 C1821 1.463 1_565 S
C1824 N1828 1.427 1_565 S
C1825 H1815 0.929 1_565 S
C1825 C1823 1.433 . S
C1825 N1828 1.384 1_565 S
C1826 H1817 0.929 . S
C1826 C1818 1.378 . S
C1826 C1821 1.350 . S
C1827 H1814 0.929 1_545 S
C1827 C1819 1.433 . S
C1827 N1829 1.384 1_545 S
N1828 C1824 1.427 1_545 S
N1828 C1825 1.384 1_545 S
N1829 C1821 1.427 1_565 S
N1829 C1827 1.384 1_565 S
H1830 C1836 0.930 . S
H1831 C1840 0.930 . S
H1832 C1845 0.929 . S
H1833 C1843 0.929 . S
H1834 C1838 0.929 . S
H1835 C1844 0.929 . S
C1836 H1830 0.930 . S
C1836 C1837 1.367 . S
C1836 C1844 1.378 . S
C1837 C1836 1.367 . S
C1837 C1845 1.433 . S
C1838 H1834 0.929 . S
C1838 C1840 1.378 . S
C1838 C1842 1.350 . S
C1839 C1842 1.463 . S
C1839 C1844 1.350 . S
C1839 N1847 1.427 . S
C1840 H1831 0.930 . S
C1840 C1838 1.378 . S
C1840 C1841 1.367 . S
C1841 C1840 1.367 . S
C1841 C1843 1.433 . S
C1842 C1838 1.350 . S
C1842 C1839 1.463 . S
C1842 N1846 1.427 . S
C1843 H1833 0.929 . S
C1843 C1841 1.433 . S
C1843 N1846 1.384 . S
C1844 H1835 0.929 . S
C1844 C1836 1.378 . S
C1844 C1839 1.350 . S
C1845 H1832 0.929 . S
C1845 C1837 1.433 . S
C1845 N1847 1.384 . S
N1846 C1842 1.427 . S
N1846 C1843 1.384 . S
N1847 C1839 1.427 . S
N1847 C1845 1.384 . S
H1848 C1854 0.930 . S
H1849 C1858 0.930 . S
H1850 C1863 0.929 . S
H1851 C1861 0.929 . S
H1852 C1856 0.929 . S
H1853 C1862 0.929 . S
C1854 H1848 0.930 . S
C1854 C1855 1.367 . S
C1854 C1862 1.378 . S
C1855 C1854 1.367 . S
C1855 C1863 1.433 . S
C1856 H1852 0.929 . S
C1856 C1858 1.378 . S
C1856 C1860 1.350 . S
C1857 C1860 1.463 . S
C1857 C1862 1.350 . S
C1857 N1865 1.427 . S
C1858 H1849 0.930 . S
C1858 C1856 1.378 . S
C1858 C1859 1.367 . S
C1859 C1858 1.367 . S
C1859 C1861 1.433 . S
C1860 C1856 1.350 . S
C1860 C1857 1.463 . S
C1860 N1864 1.427 . S
C1861 H1851 0.929 . S
C1861 C1859 1.433 . S
C1861 N1864 1.384 . S
C1862 H1853 0.929 . S
C1862 C1854 1.378 . S
C1862 C1857 1.350 . S
C1863 H1850 0.929 . S
C1863 C1855 1.433 . S
C1863 N1865 1.384 . S
N1864 C1860 1.427 . S
N1864 C1861 1.384 . S
N1865 C1857 1.427 . S
N1865 C1863 1.384 . S
H1866 C1872 0.930 . S
H1867 C1876 0.930 . S
H1868 C1881 0.929 . S
H1869 C1879 0.929 . S
H1870 C1874 0.929 . S
H1871 C1880 0.929 . S
C1872 H1866 0.930 . S
C1872 C1873 1.367 . S
C1872 C1880 1.378 . S
C1873 C1872 1.367 . S
C1873 C1881 1.433 . S
C1874 H1870 0.929 . S
C1874 C1876 1.378 . S
C1874 C1878 1.350 . S
C1875 C1878 1.463 . S
C1875 C1880 1.350 . S
C1875 N1883 1.427 . S
C1876 H1867 0.930 . S
C1876 C1874 1.378 . S
C1876 C1877 1.367 . S
C1877 C1876 1.367 . S
C1877 C1879 1.433 . S
C1878 C1874 1.350 . S
C1878 C1875 1.463 . S
C1878 N1882 1.427 . S
C1879 H1869 0.929 . S
C1879 C1877 1.433 . S
C1879 N1882 1.384 . S
C1880 H1871 0.929 . S
C1880 C1872 1.378 . S
C1880 C1875 1.350 . S
C1881 H1868 0.929 . S
C1881 C1873 1.433 . S
C1881 N1883 1.384 . S
N1882 C1878 1.427 . S
N1882 C1879 1.384 . S
N1883 C1875 1.427 . S
N1883 C1881 1.384 . S
H1884 C1890 0.930 . S
H1885 C1894 0.930 . S
H1886 C1899 0.929 . S
H1887 C1897 0.929 . S
H1888 C1892 0.929 . S
H1889 C1898 0.929 . S
C1890 H1884 0.930 . S
C1890 C1891 1.367 . S
C1890 C1898 1.378 . S
C1891 C1890 1.367 . S
C1891 C1899 1.433 . S
C1892 H1888 0.929 . S
C1892 C1894 1.378 . S
C1892 C1896 1.350 . S
C1893 C1896 1.463 . S
C1893 C1898 1.350 . S
C1893 N1901 1.427 . S
C1894 H1885 0.930 . S
C1894 C1892 1.378 . S
C1894 C1895 1.367 . S
C1895 C1894 1.367 . S
C1895 C1897 1.433 . S
C1896 C1892 1.350 . S
C1896 C1893 1.463 . S
C1896 N1900 1.427 . S
C1897 H1887 0.929 . S
C1897 C1895 1.433 . S
C1897 N1900 1.384 . S
C1898 H1889 0.929 . S
C1898 C1890 1.378 . S
C1898 C1893 1.350 . S
C1899 H1886 0.929 . S
C1899 C1891 1.433 . S
C1899 N1901 1.384 . S
N1900 C1896 1.427 . S
N1900 C1897 1.384 . S
N1901 C1893 1.427 . S
N1901 C1899 1.384 . S
H1902 C1908 0.930 . S
H1903 C1912 0.930 . S
H1904 C1917 0.929 . S
H1905 C1915 0.929 . S
H1906 C1910 0.917 1_655 S
H1907 C1916 0.929 . S
C1908 H1902 0.930 . S
C1908 C1909 1.367 . S
C1908 C1916 1.378 . S
C1909 C1908 1.367 . S
C1909 C1917 1.433 1_455 S
C1910 H1906 0.917 1_455 S
C1910 C1912 1.378 . S
C1910 C1914 1.350 . S
C1911 C1914 1.463 1_556 S
C1911 C1916 1.350 . S
C1911 N1919 1.427 . S
C1912 H1903 0.930 . S
C1912 C1910 1.378 . S
C1912 C1913 1.367 . S
C1913 C1912 1.367 . S
C1913 C1915 1.433 . S
C1914 C1910 1.350 . S
C1914 C1911 1.463 1_554 S
C1914 N1918 1.427 . S
C1915 H1905 0.929 . S
C1915 C1913 1.433 . S
C1915 N1918 1.384 . S
C1916 H1907 0.929 . S
C1916 C1908 1.378 . S
C1916 C1911 1.350 . S
C1917 H1904 0.929 . S
C1917 C1909 1.433 1_655 S
C1917 N1919 1.384 1_655 S
N1918 C1914 1.427 . S
N1918 C1915 1.384 . S
N1919 C1911 1.427 . S
N1919 C1917 1.384 1_455 S
H1920 C1926 0.930 . S
H1921 C1930 0.930 . S
H1922 C1935 0.929 . S
H1923 C1933 0.929 . S
H1924 C1928 0.929 . S
H1925 C1934 0.929 . S
C1926 H1920 0.930 . S
C1926 C1927 1.367 . S
C1926 C1934 1.378 . S
C1927 C1926 1.367 . S
C1927 C1935 1.433 . S
C1928 H1924 0.929 . S
C1928 C1930 1.378 . S
C1928 C1932 1.350 . S
C1929 C1932 1.463 . S
C1929 C1934 1.350 . S
C1929 N1937 1.427 . S
C1930 H1921 0.930 . S
C1930 C1928 1.378 . S
C1930 C1931 1.367 . S
C1931 C1930 1.367 . S
C1931 C1933 1.433 . S
C1932 C1928 1.350 . S
C1932 C1929 1.463 . S
C1932 N1936 1.427 . S
C1933 H1923 0.929 . S
C1933 C1931 1.433 . S
C1933 N1936 1.384 . S
C1934 H1925 0.929 . S
C1934 C1926 1.378 . S
C1934 C1929 1.350 . S
C1935 H1922 0.929 . S
C1935 C1927 1.433 . S
C1935 N1937 1.384 . S
N1936 C1932 1.427 . S
N1936 C1933 1.384 . S
N1937 C1929 1.427 . S
N1937 C1935 1.384 . S
H1938 C1944 0.930 . S
H1939 C1948 0.930 . S
H1940 C1953 0.929 . S
H1941 C1951 0.929 . S
H1942 C1946 0.929 . S
H1943 C1952 0.929 . S
C1944 H1938 0.930 . S
C1944 C1945 1.367 . S
C1944 C1952 1.378 . S
C1945 C1944 1.367 . S
C1945 C1953 1.433 . S
C1946 H1942 0.929 . S
C1946 C1948 1.378 . S
C1946 C1950 1.350 . S
C1947 C1950 1.463 . S
C1947 C1952 1.350 . S
C1947 N1955 1.427 . S
C1948 H1939 0.930 . S
C1948 C1946 1.378 . S
C1948 C1949 1.367 . S
C1949 C1948 1.367 . S
C1949 C1951 1.433 . S
C1950 C1946 1.350 . S
C1950 C1947 1.463 . S
C1950 N1954 1.427 . S
C1951 H1941 0.929 . S
C1951 C1949 1.433 . S
C1951 N1954 1.384 . S
C1952 H1943 0.929 . S
C1952 C1944 1.378 . S
C1952 C1947 1.350 . S
C1953 H1940 0.929 . S
C1953 C1945 1.433 . S
C1953 N1955 1.384 . S
N1954 C1950 1.427 . S
N1954 C1951 1.384 . S
N1955 C1947 1.427 . S
N1955 C1953 1.384 . S
H1956 C1962 0.930 . S
H1957 C1966 0.930 . S
H1958 C1971 0.929 . S
H1959 C1969 0.929 . S
H1960 C1964 0.929 . S
H1961 C1970 0.929 . S
C1962 H1956 0.930 . S
C1962 C1963 1.367 . S
C1962 C1970 1.378 . S
C1963 C1962 1.367 . S
C1963 C1971 1.433 . S
C1964 H1960 0.929 . S
C1964 C1966 1.378 . S
C1964 C1968 1.350 . S
C1965 C1968 1.463 . S
C1965 C1970 1.350 . S
C1965 N1973 1.427 . S
C1966 H1957 0.930 . S
C1966 C1964 1.378 . S
C1966 C1967 1.367 . S
C1967 C1966 1.367 . S
C1967 C1969 1.433 . S
C1968 C1964 1.350 . S
C1968 C1965 1.463 . S
C1968 N1972 1.427 . S
C1969 H1959 0.929 . S
C1969 C1967 1.433 . S
C1969 N1972 1.384 . S
C1970 H1961 0.929 . S
C1970 C1962 1.378 . S
C1970 C1965 1.350 . S
C1971 H1958 0.929 . S
C1971 C1963 1.433 . S
C1971 N1973 1.384 . S
N1972 C1968 1.427 . S
N1972 C1969 1.384 . S
N1973 C1965 1.427 . S
N1973 C1971 1.384 . S
H1974 C1980 0.930 . S
H1975 C1984 0.930 . S
H1976 C1989 0.929 . S
H1977 C1987 0.929 . S
H1978 C1982 0.929 . S
H1979 C1988 0.929 . S
C1980 H1974 0.930 . S
C1980 C1981 1.367 . S
C1980 C1988 1.378 . S
C1981 C1980 1.367 . S
C1981 C1989 1.433 . S
C1982 H1978 0.929 . S
C1982 C1984 1.378 . S
C1982 C1986 1.350 . S
C1983 C1986 1.463 . S
C1983 C1988 1.350 . S
C1983 N1991 1.427 . S
C1984 H1975 0.930 . S
C1984 C1982 1.378 . S
C1984 C1985 1.367 . S
C1985 C1984 1.367 . S
C1985 C1987 1.433 . S
C1986 C1982 1.350 . S
C1986 C1983 1.463 . S
C1986 N1990 1.427 . S
C1987 H1977 0.929 . S
C1987 C1985 1.433 . S
C1987 N1990 1.384 . S
C1988 H1979 0.929 . S
C1988 C1980 1.378 . S
C1988 C1983 1.350 . S
C1989 H1976 0.929 . S
C1989 C1981 1.433 . S
C1989 N1991 1.384 . S
N1990 C1986 1.427 . S
N1990 C1987 1.384 . S
N1991 C1983 1.427 . S
N1991 C1989 1.384 . S
H1992 C1998 0.930 . S
H1993 C2002 0.930 . S
H1994 C2007 0.929 . S
H1995 C2005 0.929 . S
H1996 C2000 0.929 . S
H1997 C2006 0.929 . S
C1998 H1992 0.930 . S
C1998 C1999 1.367 . S
C1998 C2006 1.378 . S
C1999 C1998 1.367 . S
C1999 C2007 1.433 . S
C2000 H1996 0.929 . S
C2000 C2002 1.378 1_655 S
C2000 C2004 1.350 . S
C2001 C2004 1.463 . S
C2001 C2006 1.350 . S
C2001 N2009 1.427 . S
C2002 H1993 0.930 . S
C2002 C2000 1.378 1_455 S
C2002 C2003 1.367 1_455 S
C2003 C2002 1.367 1_655 S
C2003 C2005 1.433 . S
C2004 C2000 1.350 . S
C2004 C2001 1.463 . S
C2004 N2008 1.427 . S
C2005 H1995 0.929 . S
C2005 C2003 1.433 . S
C2005 N2008 1.384 . S
C2006 H1997 0.929 . S
C2006 C1998 1.378 . S
C2006 C2001 1.350 . S
C2007 H1994 0.929 . S
C2007 C1999 1.433 . S
C2007 N2009 1.384 . S
N2008 C2004 1.427 . S
N2008 C2005 1.384 . S
N2009 C2001 1.427 . S
N2009 C2007 1.384 . S
H2010 C2016 0.930 . S
H2011 C2020 0.930 . S
H2012 C2025 0.929 . S
H2013 C2023 0.929 . S
H2014 C2018 0.929 . S
H2015 C2024 0.929 . S
C2016 H2010 0.930 . S
C2016 C2017 1.367 . S
C2016 C2024 1.378 . S
C2017 C2016 1.367 . S
C2017 C2025 1.433 . S
C2018 H2014 0.929 . S
C2018 C2020 1.378 . S
C2018 C2022 1.350 . S
C2019 C2022 1.463 . S
C2019 C2024 1.350 . S
C2019 N2027 1.427 . S
C2020 H2011 0.930 . S
C2020 C2018 1.378 . S
C2020 C2021 1.367 . S
C2021 C2020 1.367 . S
C2021 C2023 1.433 . S
C2022 C2018 1.350 . S
C2022 C2019 1.463 . S
C2022 N2026 1.427 . S
C2023 H2013 0.929 . S
C2023 C2021 1.433 . S
C2023 N2026 1.384 . S
C2024 H2015 0.929 . S
C2024 C2016 1.378 . S
C2024 C2019 1.350 . S
C2025 H2012 0.929 . S
C2025 C2017 1.433 . S
C2025 N2027 1.384 . S
N2026 C2022 1.427 . S
N2026 C2023 1.384 . S
N2027 C2019 1.427 . S
N2027 C2025 1.384 . S
H2028 C2034 0.930 . S
H2029 C2038 0.930 . S
H2030 C2043 0.929 . S
H2031 C2041 0.929 . S
H2032 C2036 0.929 . S
H2033 C2042 0.929 . S
C2034 H2028 0.930 . S
C2034 C2035 1.367 . S
C2034 C2042 1.378 . S
C2035 C2034 1.367 . S
C2035 C2043 1.433 . S
C2036 H2032 0.929 . S
C2036 C2038 1.378 . S
C2036 C2040 1.350 . S
C2037 C2040 1.463 . S
C2037 C2042 1.350 . S
C2037 N2045 1.427 . S
C2038 H2029 0.930 . S
C2038 C2036 1.378 . S
C2038 C2039 1.367 . S
C2039 C2038 1.367 . S
C2039 C2041 1.433 . S
C2040 C2036 1.350 . S
C2040 C2037 1.463 . S
C2040 N2044 1.427 . S
C2041 H2031 0.929 . S
C2041 C2039 1.433 . S
C2041 N2044 1.384 . S
C2042 H2033 0.929 . S
C2042 C2034 1.378 . S
C2042 C2037 1.350 . S
C2043 H2030 0.929 . S
C2043 C2035 1.433 . S
C2043 N2045 1.384 . S
N2044 C2040 1.427 . S
N2044 C2041 1.384 . S
N2045 C2037 1.427 . S
N2045 C2043 1.384 . S
H2046 C2052 0.930 . S
H2047 C2056 0.930 . S
H2048 C2061 0.929 . S
H2049 C2059 0.929 . S
H2050 C2054 0.929 . S
H2051 C2060 0.929 . S
C2052 H2046 0.930 . S
C2052 C2053 1.367 . S
C2052 C2060 1.378 . S
C2053 C2052 1.367 . S
C2053 C2061 1.433 . S
C2054 H2050 0.929 . S
C2054 C2056 1.378 . S
C2054 C2058 1.350 . S
C2055 C2058 1.463 . S
C2055 C2060 1.350 . S
C2055 N2063 1.427 . S
C2056 H2047 0.930 . S
C2056 C2054 1.378 . S
C2056 C2057 1.367 . S
C2057 C2056 1.367 . S
C2057 C2059 1.433 . S
C2058 C2054 1.350 . S
C2058 C2055 1.463 . S
C2058 N2062 1.427 . S
C2059 H2049 0.929 . S
C2059 C2057 1.433 . S
C2059 N2062 1.384 . S
C2060 H2051 0.929 . S
C2060 C2052 1.378 . S
C2060 C2055 1.350 . S
C2061 H2048 0.929 . S
C2061 C2053 1.433 . S
C2061 N2063 1.384 . S
N2062 C2058 1.427 . S
N2062 C2059 1.384 . S
N2063 C2055 1.427 . S
N2063 C2061 1.384 . S
H2064 C2070 0.930 . S
H2065 C2074 0.930 . S
H2066 C2079 0.929 . S
H2067 C2077 0.929 . S
H2068 C2072 0.929 . S
H2069 C2078 0.929 . S
C2070 H2064 0.930 . S
C2070 C2071 1.367 . S
C2070 C2078 1.378 . S
C2071 C2070 1.367 . S
C2071 C2079 1.433 . S
C2072 H2068 0.929 . S
C2072 C2074 1.378 . S
C2072 C2076 1.350 . S
C2073 C2076 1.463 . S
C2073 C2078 1.350 . S
C2073 N2081 1.427 . S
C2074 H2065 0.930 . S
C2074 C2072 1.378 . S
C2074 C2075 1.367 . S
C2075 C2074 1.367 . S
C2075 C2077 1.433 . S
C2076 C2072 1.350 . S
C2076 C2073 1.463 . S
C2076 N2080 1.427 . S
C2077 H2067 0.929 . S
C2077 C2075 1.433 . S
C2077 N2080 1.384 . S
C2078 H2069 0.929 . S
C2078 C2070 1.378 . S
C2078 C2073 1.350 . S
C2079 H2066 0.929 . S
C2079 C2071 1.433 . S
C2079 N2081 1.384 . S
N2080 C2076 1.427 . S
N2080 C2077 1.384 . S
N2081 C2073 1.427 . S
N2081 C2079 1.384 . S
H2082 C2088 0.930 . S
H2083 C2092 0.930 . S
H2084 C2097 0.929 . S
H2085 C2095 0.929 . S
H2086 C2090 0.929 1_554 S
H2087 C2096 0.929 . S
C2088 H2082 0.930 . S
C2088 C2089 1.367 . S
C2088 C2096 1.378 . S
C2089 C2088 1.367 . S
C2089 C2097 1.433 . S
C2090 H2086 0.929 1_556 S
C2090 C2092 1.378 . S
C2090 C2094 1.350 1_556 S
C2091 C2094 1.463 . S
C2091 C2096 1.350 . S
C2091 N2099 1.427 . S
C2092 H2083 0.930 . S
C2092 C2090 1.378 . S
C2092 C2093 1.367 . S
C2093 C2092 1.367 . S
C2093 C2095 1.433 . S
C2094 C2090 1.350 1_554 S
C2094 C2091 1.463 . S
C2094 N2098 1.427 1_554 S
C2095 H2085 0.929 . S
C2095 C2093 1.433 . S
C2095 N2098 1.384 . S
C2096 H2087 0.929 . S
C2096 C2088 1.378 . S
C2096 C2091 1.350 . S
C2097 H2084 0.929 . S
C2097 C2089 1.433 . S
C2097 N2099 1.384 . S
N2098 C2094 1.427 1_556 S
N2098 C2095 1.384 . S
N2099 C2091 1.427 . S
N2099 C2097 1.384 . S
H2100 C2106 0.930 . S
H2101 C2110 0.930 . S
H2102 C2115 0.929 . S
H2103 C2113 0.929 . S
H2104 C2108 0.929 . S
H2105 C2114 0.929 . S
C2106 H2100 0.930 . S
C2106 C2107 1.367 . S
C2106 C2114 1.378 . S
C2107 C2106 1.367 . S
C2107 C2115 1.433 1_455 S
C2108 H2104 0.929 . S
C2108 C2110 1.378 . S
C2108 C2112 1.350 . S
C2109 C2112 1.463 . S
C2109 C2114 1.350 1_655 S
C2109 N2117 1.427 . S
C2110 H2101 0.930 . S
C2110 C2108 1.378 . S
C2110 C2111 1.367 . S
C2111 C2110 1.367 . S
C2111 C2113 1.433 . S
C2112 C2108 1.350 . S
C2112 C2109 1.463 . S
C2112 N2116 1.427 . S
C2113 H2103 0.929 . S
C2113 C2111 1.433 . S
C2113 N2116 1.384 . S
C2114 H2105 0.929 . S
C2114 C2106 1.378 . S
C2114 C2109 1.350 1_455 S
C2115 H2102 0.929 . S
C2115 C2107 1.433 1_655 S
C2115 N2117 1.384 . S
N2116 C2112 1.427 . S
N2116 C2113 1.384 . S
N2117 C2109 1.427 . S
N2117 C2115 1.384 . S
H2118 C2124 0.930 . S
H2119 C2128 0.930 . S
H2120 C2133 0.929 . S
H2121 C2131 0.929 . S
H2122 C2126 0.929 . S
H2123 C2132 0.929 . S
C2124 H2118 0.930 . S
C2124 C2125 1.367 . S
C2124 C2132 1.378 . S
C2125 C2124 1.367 . S
C2125 C2133 1.433 . S
C2126 H2122 0.929 . S
C2126 C2128 1.378 . S
C2126 C2130 1.350 . S
C2127 C2130 1.463 . S
C2127 C2132 1.350 . S
C2127 N2135 1.427 . S
C2128 H2119 0.930 . S
C2128 C2126 1.378 . S
C2128 C2129 1.367 . S
C2129 C2128 1.367 . S
C2129 C2131 1.433 . S
C2130 C2126 1.350 . S
C2130 C2127 1.463 . S
C2130 N2134 1.427 . S
C2131 H2121 0.929 . S
C2131 C2129 1.433 . S
C2131 N2134 1.384 . S
C2132 H2123 0.929 . S
C2132 C2124 1.378 . S
C2132 C2127 1.350 . S
C2133 H2120 0.929 . S
C2133 C2125 1.433 . S
C2133 N2135 1.384 . S
N2134 C2130 1.427 . S
N2134 C2131 1.384 . S
N2135 C2127 1.427 . S
N2135 C2133 1.384 . S
H2136 C2142 0.930 . S
H2137 C2146 0.930 . S
H2138 C2151 0.929 . S
H2139 C2149 0.929 . S
H2140 C2144 0.929 . S
H2141 C2150 0.929 . S
C2142 H2136 0.930 . S
C2142 C2143 1.367 . S
C2142 C2150 1.378 . S
C2143 C2142 1.367 . S
C2143 C2151 1.433 . S
C2144 H2140 0.929 . S
C2144 C2146 1.378 . S
C2144 C2148 1.350 . S
C2145 C2148 1.463 . S
C2145 C2150 1.350 . S
C2145 N2153 1.427 . S
C2146 H2137 0.930 . S
C2146 C2144 1.378 . S
C2146 C2147 1.367 . S
C2147 C2146 1.367 . S
C2147 C2149 1.433 . S
C2148 C2144 1.350 . S
C2148 C2145 1.463 . S
C2148 N2152 1.427 . S
C2149 H2139 0.929 . S
C2149 C2147 1.433 . S
C2149 N2152 1.384 . S
C2150 H2141 0.929 . S
C2150 C2142 1.378 . S
C2150 C2145 1.350 . S
C2151 H2138 0.929 . S
C2151 C2143 1.433 . S
C2151 N2153 1.384 . S
N2152 C2148 1.427 . S
N2152 C2149 1.384 . S
N2153 C2145 1.427 . S
N2153 C2151 1.384 . S
H2154 C2160 0.930 . S
H2155 C2164 0.930 . S
H2156 C2169 0.929 . S
H2157 C2167 0.929 . S
H2158 C2162 0.929 . S
H2159 C2168 0.929 . S
C2160 H2154 0.930 . S
C2160 C2161 1.367 . S
C2160 C2168 1.378 1_554 S
C2161 C2160 1.367 . S
C2161 C2169 1.433 1_554 S
C2162 H2158 0.929 . S
C2162 C2164 1.378 . S
C2162 C2166 1.350 . S
C2163 C2166 1.463 . S
C2163 C2168 1.350 . S
C2163 N2171 1.427 . S
C2164 H2155 0.930 . S
C2164 C2162 1.378 . S
C2164 C2165 1.367 . S
C2165 C2164 1.367 . S
C2165 C2167 1.433 . S
C2166 C2162 1.350 . S
C2166 C2163 1.463 . S
C2166 N2170 1.427 . S
C2167 H2157 0.929 . S
C2167 C2165 1.433 . S
C2167 N2170 1.384 . S
C2168 H2159 0.929 . S
C2168 C2160 1.378 1_556 S
C2168 C2163 1.350 . S
C2169 H2156 0.929 . S
C2169 C2161 1.433 1_556 S
C2169 N2171 1.384 . S
N2170 C2166 1.427 . S
N2170 C2167 1.384 . S
N2171 C2163 1.427 . S
N2171 C2169 1.384 . S
H2172 C2178 0.930 . S
H2173 C2182 0.930 . S
H2174 C2187 0.929 . S
H2175 C2185 0.929 . S
H2176 C2180 0.929 . S
H2177 C2186 0.929 . S
C2178 H2172 0.930 . S
C2178 C2179 1.367 . S
C2178 C2186 1.378 . S
C2179 C2178 1.367 . S
C2179 C2187 1.433 . S
C2180 H2176 0.929 . S
C2180 C2182 1.378 . S
C2180 C2184 1.350 . S
C2181 C2184 1.463 . S
C2181 C2186 1.350 . S
C2181 N2189 1.427 . S
C2182 H2173 0.930 . S
C2182 C2180 1.378 . S
C2182 C2183 1.367 . S
C2183 C2182 1.367 . S
C2183 C2185 1.433 . S
C2184 C2180 1.350 . S
C2184 C2181 1.463 . S
C2184 N2188 1.427 . S
C2185 H2175 0.929 . S
C2185 C2183 1.433 . S
C2185 N2188 1.384 . S
C2186 H2177 0.929 . S
C2186 C2178 1.378 . S
C2186 C2181 1.350 . S
C2187 H2174 0.929 . S
C2187 C2179 1.433 . S
C2187 N2189 1.384 . S
N2188 C2184 1.427 . S
N2188 C2185 1.384 . S
N2189 C2181 1.427 . S
N2189 C2187 1.384 . S
H2190 C2196 0.930 . S
H2191 C2200 0.930 . S
H2192 C2205 0.929 . S
H2193 C2203 0.929 . S
H2194 C2198 0.929 . S
H2195 C2204 0.929 . S
C2196 H2190 0.930 . S
C2196 C2197 1.367 . S
C2196 C2204 1.378 . S
C2197 C2196 1.367 . S
C2197 C2205 1.433 . S
C2198 H2194 0.929 . S
C2198 C2200 1.378 . S
C2198 C2202 1.350 . S
C2199 C2202 1.463 . S
C2199 C2204 1.350 . S
C2199 N2207 1.427 . S
C2200 H2191 0.930 . S
C2200 C2198 1.378 . S
C2200 C2201 1.367 . S
C2201 C2200 1.367 . S
C2201 C2203 1.433 . S
C2202 C2198 1.350 . S
C2202 C2199 1.463 . S
C2202 N2206 1.427 . S
C2203 H2193 0.929 . S
C2203 C2201 1.433 . S
C2203 N2206 1.384 . S
C2204 H2195 0.929 . S
C2204 C2196 1.378 . S
C2204 C2199 1.350 . S
C2205 H2192 0.929 . S
C2205 C2197 1.433 . S
C2205 N2207 1.384 . S
N2206 C2202 1.427 . S
N2206 C2203 1.384 . S
N2207 C2199 1.427 . S
N2207 C2205 1.384 . S
C1351 C58 0.841 . S
C1355 C646 0.837 . S
C1369 C142 1.282 . S
C1373 C403 1.555 . S
C1387 C487 0.574 . S
C1391 C226 0.764 . S
C1405 C319 1.590 . S
C1409 C562 1.292 . S
C1423 C994 0.982 . S
C1427 C406 0.988 . S
C1441 C742 2.332 . S
C1445 C56 2.693 . S
C1459 C896 1.961 . S
C1463 C560 1.991 . S
C1477 C224 3.163 . S
C1481 C812 3.126 . S
C1495 C814 0.847 . S
C1499 C1066 0.883 . S
C1513 C898 1.273 . S
C1517 C1243 1.565 . S
C1531 C1150 0.769 . S
C1535 C739 0.577 . S
C1549 C991 1.572 . S
C1553 C1318 1.305 . S
C1567 C1246 0.986 . S
C1571 C322 0.974 . S
C1585 C1064 2.690 . S
C1589 C490 2.340 . S
C1603 C140 1.972 . S
C1607 C1316 1.985 1_554 S
C1621 C644 3.126 . S
C1625 C1148 3.163 1_556 S
C1639 C1166 0.768 . S
C1643 C74 0.749 . S
C1657 C987 0.755 . S
C1661 C158 0.666 . S
C1675 C1082 0.781 . S
C1679 C242 0.760 . S
C1693 C914 0.681 . S
C1697 C315 0.726 . S
C1711 C399 0.713 . S
C1715 C1334 0.686 . S
C1729 C830 0.573 . S
C1733 C483 0.506 . S
C1747 C578 0.696 . S
C1751 C1239 0.718 . S
C1765 C662 0.567 . S
C1769 C735 0.515 . S
C1783 C63 1.791 . S
C1787 C410 1.798 . S
C1801 C147 1.154 . S
C1805 C494 1.147 . S
C1819 C567 1.006 . S
C1823 C231 0.986 . S
C1837 C326 1.482 . S
C1841 C651 1.493 . S
C1855 C903 1.154 . S
C1859 C746 1.148 . S
C1873 C998 1.483 . S
C1877 C819 1.494 . S
C1891 C1071 1.791 . S
C1895 C1250 1.797 . S
C1909 C1323 1.008 . S
C1913 C1155 0.984 . S
C1927 C67 2.883 . S
C1931 C655 2.827 . S
C1945 C151 1.341 . S
C1949 C394 1.351 . S
C1963 C478 2.186 . S
C1967 C235 2.165 . S
C1981 C571 1.369 . S
C1985 C310 1.374 . S
C1999 C980 2.020 . S
C2003 C392 2.013 1_655 S
C2017 C728 0.785 . S
C2021 C70 0.777 . S
C2035 C910 0.819 . S
C2039 C574 0.787 . S
C2053 C238 0.357 . S
C2057 C826 0.541 . S
C2071 C1075 2.879 . S
C2075 C823 2.824 1_556 S
C2089 C1234 1.360 . S
C2093 C907 1.353 . S
C2107 C1159 2.161 . S
C2111 C730 2.176 . S
C2125 C1327 1.373 . S
C2129 C982 1.377 . S
C2143 C1232 2.011 . S
C2147 C308 2.016 1_554 S
C2161 C476 0.787 . S
C2165 C1078 0.780 . S
C2179 C154 0.797 . S
C2183 C1330 0.815 . S
C2197 C1162 0.374 . S
C2201 C658 0.522 . S
