# Generated by pormake.
# Topology mok, (4)-cn, num edge types: 1
# Building blocks:
#     Node 0, Type 0, BuildingBlock: KUFVIS_clean_sbu_0, # of connection points: 4
#     Node 1, Type 0, BuildingBlock: KUFVIS_clean_sbu_0, # of connection points: 4
#     Node 2, Type 0, BuildingBlock: KUFVIS_clean_sbu_0, # of connection points: 4
#     Node 3, Type 0, BuildingBlock: KUFVIS_clean_sbu_0, # of connection points: 4
#     Node 4, Type 0, BuildingBlock: KUFVIS_clean_sbu_0, # of connection points: 4
#     Node 5, Type 0, BuildingBlock: KUFVIS_clean_sbu_0, # of connection points: 4
#     Node 6, Type 0, BuildingBlock: KUFVIS_clean_sbu_0, # of connection points: 4
#     Node 7, Type 0, BuildingBlock: KUFVIS_clean_sbu_0, # of connection points: 4
#     Edge 8, Type (0, 0), BuildingBlock: XIVTED_clean_linker_0, # of connection points: 2
#     Edge 9, Type (0, 0), BuildingBlock: XIVTED_clean_linker_0, # of connection points: 2
#     Edge 10, Type (0, 0), BuildingBlock: XIVTED_clean_linker_0, # of connection points: 2
#     Edge 11, Type (0, 0), BuildingBlock: XIVTED_clean_linker_0, # of connection points: 2
#     Edge 12, Type (0, 0), BuildingBlock: XIVTED_clean_linker_0, # of connection points: 2
#     Edge 13, Type (0, 0), BuildingBlock: XIVTED_clean_linker_0, # of connection points: 2
#     Edge 14, Type (0, 0), BuildingBlock: XIVTED_clean_linker_0, # of connection points: 2
#     Edge 15, Type (0, 0), BuildingBlock: XIVTED_clean_linker_0, # of connection points: 2
#     Edge 16, Type (0, 0), BuildingBlock: XIVTED_clean_linker_0, # of connection points: 2
#     Edge 17, Type (0, 0), BuildingBlock: XIVTED_clean_linker_0, # of connection points: 2
#     Edge 18, Type (0, 0), BuildingBlock: XIVTED_clean_linker_0, # of connection points: 2
#     Edge 19, Type (0, 0), BuildingBlock: XIVTED_clean_linker_0, # of connection points: 2
#     Edge 20, Type (0, 0), BuildingBlock: XIVTED_clean_linker_0, # of connection points: 2
#     Edge 21, Type (0, 0), BuildingBlock: XIVTED_clean_linker_0, # of connection points: 2
#     Edge 22, Type (0, 0), BuildingBlock: XIVTED_clean_linker_0, # of connection points: 2
#     Edge 23, Type (0, 0), BuildingBlock: XIVTED_clean_linker_0, # of connection points: 2
# Relax obj value: 0.032
# Max RMSD: 0.055
# Mean RMSD: 0.055
data_MOF--net-mok--node1-KUFVIS_clean_sbu_0--edge1-XIVTED_clean_linker_0
_symmetry_space_group_name_H-M    P1
_symmetry_Int_Tables_number       1
_symmetry_cell_setting            triclinic
loop_
_symmetry_equiv_pos_as_xyz
'x, y, z'
_cell_length_a     53.147826
_cell_length_b     16.584198
_cell_length_c     26.769787
_cell_angle_alpha  90.011585
_cell_angle_beta   89.990644
_cell_angle_gamma 89.973523
loop_
_atom_site_label
_atom_site_type_symbol
_atom_site_fract_x
_atom_site_fract_y
_atom_site_fract_z
_atom_type_partial_charge
Mn0 Mn 0.62411 0.30053 -0.00243 0.0
Mn1 Mn 0.57196 0.41619 0.98696 0.0
C2 C 0.61208 0.35034 0.92038 0.0
C3 C 0.66729 0.28592 0.01228 0.0
C4 C 0.57031 0.23507 0.00222 0.0
O5 O 0.61765 0.33766 0.06907 0.0
O6 O 0.58481 0.42186 0.05626 0.0
C7 C 0.59351 0.57869 0.0033 0.0
N8 N 0.58051 0.52608 0.97401 0.0
C9 C 0.57309 0.62837 0.91198 0.0
C10 C 0.58631 0.68379 0.94158 0.0
C11 C 0.59662 0.65876 0.98737 0.0
C12 C 0.57048 0.54954 0.92993 0.0
H13 H 0.6014 0.55967 0.03857 0.0
C14 C 0.60152 0.38934 0.08431 0.0
O15 O 0.65169 0.22676 0.01909 0.0
O16 O 0.65775 0.35414 -0.00211 0.0
N17 N 0.55796 0.41587 0.92126 0.0
C18 C 0.5471 0.35367 0.89596 0.0
C19 C 0.53673 0.36763 0.84861 0.0
C20 C 0.53753 0.44529 0.82797 0.0
C21 C 0.54865 0.50859 0.85479 0.0
C22 C 0.55856 0.49111 0.90196 0.0
H23 H 0.54639 0.29382 0.9117 0.0
O24 O 0.62647 0.28722 0.92334 0.0
O25 O 0.6051 0.38193 0.96252 0.0
O26 O 0.594 0.22299 0.00062 0.0
O27 O 0.5605 0.30504 -0.00078 0.0
C28 C 0.55061 0.58798 0.83642 0.0
C29 C 0.56281 0.64781 0.86498 0.0
H30 H 0.58885 0.7455 0.92932 0.0
H31 H 0.60692 0.70111 0.01033 0.0
H32 H 0.52807 0.31873 0.82808 0.0
H33 H 0.52942 0.4553 0.79161 0.0
H34 H 0.54303 0.60373 0.80023 0.0
H35 H 0.56447 0.70834 0.85015 0.0
Mn36 Mn 0.39851 0.69748 0.99485 0.0
Mn37 Mn 0.45013 0.57966 0.98317 0.0
C38 C 0.41028 0.64866 0.91725 0.0
C39 C 0.35544 0.71492 0.00971 0.0
C40 C 0.45264 0.76021 -3e-05 0.0
O41 O 0.40474 0.65827 0.06597 0.0
O42 O 0.43731 0.57326 0.05249 0.0
C43 C 0.42786 0.41786 -0.00165 0.0
N44 N 0.44107 0.47045 0.96941 0.0
C45 C 0.44795 0.36908 0.90653 0.0
C46 C 0.43451 0.3137 0.93574 0.0
C47 C 0.42437 0.33828 0.98179 0.0
C48 C 0.45094 0.4474 0.92509 0.0
H49 H 0.4201 0.43653 0.0338 0.0
C50 C 0.42071 0.60576 0.0808 0.0
O51 O 0.37151 0.77253 0.01722 0.0
O52 O 0.36445 0.64634 0.99454 0.0
N53 N 0.46403 0.58065 0.9174 0.0
C54 C 0.47504 0.64295 0.89244 0.0
C55 C 0.48518 0.62958 0.84483 0.0
C56 C 0.48402 0.55236 0.8236 0.0
C57 C 0.47278 0.48894 0.85008 0.0
C58 C 0.46308 0.50585 0.8975 0.0
H59 H 0.476 0.70247 0.90863 0.0
O60 O 0.39626 0.71259 0.92072 0.0
O61 O 0.4171 0.61587 0.95914 0.0
O62 O 0.429 0.7732 -0.00134 0.0
O63 O 0.46218 0.68997 -0.00377 0.0
C64 C 0.47047 0.41001 0.8311 0.0
C65 C 0.45807 0.35014 0.8593 0.0
H66 H 0.43167 0.25238 0.923 0.0
H67 H 0.4139 0.29595 0.00446 0.0
H68 H 0.49393 0.67857 0.82456 0.0
H69 H 0.49198 0.54278 0.78707 0.0
H70 H 0.4779 0.3947 0.79471 0.0
H71 H 0.45612 0.29001 0.84399 0.0
Mn72 Mn 0.62401 0.69648 0.51874 0.0
Mn73 Mn 0.57197 0.58049 0.52981 0.0
C74 C 0.61213 0.64668 0.59603 0.0
C75 C 0.66727 0.71066 0.50418 0.0
C76 C 0.57006 0.76158 0.51474 0.0
O77 O 0.61749 0.65932 0.44726 0.0
O78 O 0.58454 0.57573 0.46029 0.0
C79 C 0.59373 0.41844 0.51261 0.0
N80 N 0.58073 0.47059 0.54225 0.0
C81 C 0.57375 0.36772 0.60411 0.0
C82 C 0.58697 0.31275 0.57415 0.0
C83 C 0.59705 0.3383 0.52826 0.0
C84 C 0.57091 0.44662 0.58641 0.0
H85 H 0.60145 0.43787 0.47729 0.0
C86 C 0.60117 0.60825 0.4321 0.0
O87 O 0.65173 0.77003 0.49725 0.0
O88 O 0.65761 0.64259 0.51842 0.0
N89 N 0.55821 0.58004 0.5957 0.0
C90 C 0.5474 0.64194 0.6214 0.0
C91 C 0.53734 0.62755 0.66896 0.0
C92 C 0.53837 0.54973 0.68934 0.0
C93 C 0.54938 0.48674 0.66208 0.0
C94 C 0.559 0.50466 0.61475 0.0
H95 H 0.54655 0.70191 0.60586 0.0
O96 O 0.62645 0.7099 0.59295 0.0
O97 O 0.60511 0.61501 0.55394 0.0
O98 O 0.59376 0.77395 0.51574 0.0
O99 O 0.56036 0.69154 0.51815 0.0
C100 C 0.55155 0.40727 0.68022 0.0
C101 C 0.56371 0.3478 0.65125 0.0
H102 H 0.58968 0.25101 0.58619 0.0
H103 H 0.60735 0.2963 0.50503 0.0
H104 H 0.52876 0.67621 0.68985 0.0
H105 H 0.53051 0.5393 0.72584 0.0
H106 H 0.54419 0.39129 0.71658 0.0
H107 H 0.56556 0.28721 0.6659 0.0
Mn108 Mn 0.39773 0.30129 0.51588 0.0
Mn109 Mn 0.44999 0.4165 0.52614 0.0
C110 C 0.40973 0.35209 0.59287 0.0
C111 C 0.35445 0.28778 0.50127 0.0
C112 C 0.45155 0.23513 0.51209 0.0
O113 O 0.40434 0.33708 0.44417 0.0
O114 O 0.43734 0.4207 0.45668 0.0
C115 C 0.42854 0.57881 0.50841 0.0
N116 N 0.44148 0.52672 0.53817 0.0
C117 C 0.44886 0.63022 0.59946 0.0
C118 C 0.4357 0.68513 0.56937 0.0
C119 C 0.42545 0.65923 0.52371 0.0
C120 C 0.45145 0.55102 0.58213 0.0
H121 H 0.42069 0.55911 0.47325 0.0
C122 C 0.42069 0.38782 0.42871 0.0
O123 O 0.36988 0.22797 0.49479 0.0
O124 O 0.36424 0.35586 0.51517 0.0
N125 N 0.46385 0.41742 0.59192 0.0
C126 C 0.47465 0.35564 0.61774 0.0
C127 C 0.48497 0.37047 0.66502 0.0
C128 C 0.48419 0.44858 0.68503 0.0
C129 C 0.47316 0.51142 0.65768 0.0
C130 C 0.46329 0.49306 0.61061 0.0
H131 H 0.47533 0.29546 0.60247 0.0
O132 O 0.39526 0.28917 0.59016 0.0
O133 O 0.4168 0.38296 0.55059 0.0
O134 O 0.42783 0.22313 0.51341 0.0
O135 O 0.46135 0.30509 0.51487 0.0
C136 C 0.47122 0.59118 0.67546 0.0
C137 C 0.45909 0.65053 0.64637 0.0
H138 H 0.43318 0.74711 0.58113 0.0
H139 H 0.4152 0.70119 0.50037 0.0
H140 H 0.49357 0.32193 0.68597 0.0
H141 H 0.49227 0.45929 0.72131 0.0
H142 H 0.47875 0.60751 0.71161 0.0
H143 H 0.45744 0.71137 0.66074 0.0
Mn144 Mn 0.12489 0.80481 0.99373 0.0
Mn145 Mn 0.07225 0.91814 0.98315 0.0
C146 C 0.11227 0.85217 0.91635 0.0
C147 C 0.16825 0.79373 0.00757 0.0
C148 C 0.07133 0.73715 -0.00077 0.0
O149 O 0.11862 0.84281 0.06507 0.0
O150 O 0.08515 0.92433 0.05243 0.0
C151 C 0.09353 0.08106 -0.00073 0.0
N152 N 0.08056 0.02819 0.9701 0.0
C153 C 0.07311 0.13004 0.90783 0.0
C154 C 0.08627 0.18574 0.93732 0.0
C155 C 0.09658 0.16106 0.98318 0.0
C156 C 0.07053 0.05131 0.92596 0.0
H157 H 0.10145 0.06229 0.03456 0.0
C158 C 0.10215 0.89326 0.08039 0.0
O159 O 0.15318 0.73338 0.01524 0.0
O160 O 0.15806 0.86073 0.99283 0.0
N161 N 0.05813 0.91747 0.91755 0.0
C162 C 0.04732 0.85505 0.89237 0.0
C163 C 0.03702 0.86863 0.84491 0.0
C164 C 0.03781 0.94619 0.82409 0.0
C165 C 0.0488 0.00973 0.85085 0.0
C166 C 0.05866 0.99262 0.89811 0.0
H167 H 0.04667 0.79527 0.90824 0.0
O168 O 0.12698 0.78986 0.91962 0.0
O169 O 0.10536 0.88453 0.95834 0.0
O170 O 0.09509 0.72598 -0.00199 0.0
O171 O 0.06122 0.80662 -0.00453 0.0
C172 C 0.05072 0.08902 0.8323 0.0
C173 C 0.06285 0.14912 0.86076 0.0
H174 H 0.08877 0.2474 0.92492 0.0
H175 H 0.10685 0.20362 0.00605 0.0
H176 H 0.02846 0.81954 0.82442 0.0
H177 H 0.02978 0.95601 0.78766 0.0
H178 H 0.04317 0.10446 0.79603 0.0
H179 H 0.06448 0.20956 0.84578 0.0
Mn180 Mn 0.89809 0.2005 0.00021 0.0
Mn181 Mn 0.95042 0.08554 0.98982 0.0
C182 C 0.91009 0.14983 0.92321 0.0
C183 C 0.85489 0.21497 0.01478 0.0
C184 C 0.95186 0.26685 0.00376 0.0
O185 O 0.90465 0.16449 0.07188 0.0
O186 O 0.93788 0.08173 0.05939 0.0
C187 C 0.92898 0.92343 0.0081 0.0
N188 N 0.94189 0.97526 0.97813 0.0
C189 C 0.94907 0.87141 0.91697 0.0
C190 C 0.93595 0.81676 0.94727 0.0
C191 C 0.92581 0.84297 0.99297 0.0
C192 C 0.95175 0.95067 0.93413 0.0
H193 H 0.9212 0.94337 0.04328 0.0
C194 C 0.92112 0.11414 0.08736 0.0
O195 O 0.87044 0.27432 0.02138 0.0
O196 O 0.8645 0.14659 0.00084 0.0
N197 N 0.96418 0.08414 0.92394 0.0
C198 C 0.97493 0.14571 0.89788 0.0
C199 C 0.98515 0.13054 0.85054 0.0
C200 C 0.9843 0.05232 0.8307 0.0
C201 C 0.9733 0.98971 0.85829 0.0
C202 C 0.96356 0.00839 0.90542 0.0
H203 H 0.97566 0.20598 0.91301 0.0
O204 O 0.89565 0.21286 0.92597 0.0
O205 O 0.91716 0.1188 0.96546 0.0
O206 O 0.92814 0.2784 0.00277 0.0
O207 O 0.96181 0.19709 0.00073 0.0
C208 C 0.97128 0.90988 0.84068 0.0
C209 C 0.95918 0.85078 0.86999 0.0
H210 H 0.93335 0.75476 0.93564 0.0
H211 H 0.91557 0.80123 0.01647 0.0
H212 H 0.99371 0.17891 0.8294 0.0
H213 H 0.99232 0.04133 0.79438 0.0
H214 H 0.97871 0.89329 0.80449 0.0
H215 H 0.95746 0.78989 0.85576 0.0
Mn216 Mn 0.12361 0.19846 0.51541 0.0
Mn217 Mn 0.07133 0.0835 0.52639 0.0
C218 C 0.11147 0.14964 0.59276 0.0
C219 C 0.16691 0.21159 0.50091 0.0
C220 C 0.06977 0.26468 0.51137 0.0
O221 O 0.11713 0.1612 0.44397 0.0
O222 O 0.08394 0.07863 0.45687 0.0
C223 C 0.09293 0.92127 0.50906 0.0
N224 N 0.07996 0.97347 0.53873 0.0
C225 C 0.07284 0.87045 0.60041 0.0
C226 C 0.08602 0.81544 0.57042 0.0
C227 C 0.09616 0.84104 0.5246 0.0
C228 C 0.0701 0.94945 0.58283 0.0
H229 H 0.10071 0.94073 0.47378 0.0
C230 C 0.1007 0.11055 0.42874 0.0
O231 O 0.1515 0.27127 0.49385 0.0
O232 O 0.1571 0.14384 0.51533 0.0
N233 N 0.05745 0.08292 0.5922 0.0
C234 C 0.0465 0.14468 0.61782 0.0
C235 C 0.03625 0.13007 0.66521 0.0
C236 C 0.03722 0.05218 0.68551 0.0
C237 C 0.04837 0.98934 0.65833 0.0
C238 C 0.05817 0.00746 0.61116 0.0
H239 H 0.04567 0.20469 0.60233 0.0
O240 O 0.12598 0.21239 0.58954 0.0
O241 O 0.10448 0.11758 0.55075 0.0
O242 O 0.0935 0.27652 0.51221 0.0
O243 O 0.05991 0.19485 0.51485 0.0
C244 C 0.05047 0.90979 0.67635 0.0
C245 C 0.06269 0.8504 0.64743 0.0
H246 H 0.08864 0.7536 0.58237 0.0
H247 H 0.10643 0.79901 0.50133 0.0
H248 H 0.02756 0.17862 0.68602 0.0
H249 H 0.02921 0.04158 0.72189 0.0
H250 H 0.04301 0.8936 0.71257 0.0
H251 H 0.06446 0.78974 0.662 0.0
Mn252 Mn 0.89785 0.80465 0.5212 0.0
Mn253 Mn 0.94991 0.9204 0.53256 0.0
C254 C 0.90981 0.85348 0.5987 0.0
C255 C 0.85461 0.79078 0.50651 0.0
C256 C 0.95176 0.7395 0.51629 0.0
O257 O 0.90432 0.84278 0.44992 0.0
O258 O 0.93713 0.9268 0.46323 0.0
C259 C 0.92826 0.08297 0.51686 0.0
N260 N 0.94124 0.03008 0.54599 0.0
C261 C 0.94835 0.13155 0.60868 0.0
C262 C 0.93515 0.18726 0.57926 0.0
C263 C 0.92501 0.16279 0.53321 0.0
C264 C 0.95113 0.05303 0.5903 0.0
H265 H 0.92048 0.06438 0.48141 0.0
C266 C 0.92046 0.89463 0.43497 0.0
O267 O 0.87014 0.73146 0.49933 0.0
O268 O 0.86426 0.85861 0.52122 0.0
N269 N 0.9638 0.91937 0.59834 0.0
C270 C 0.97458 0.85683 0.62348 0.0
C271 C 0.98464 0.87008 0.67116 0.0
C272 C 0.98364 0.94742 0.69226 0.0
C273 C 0.97267 0.0111 0.66555 0.0
C274 C 0.96304 0.9943 0.61807 0.0
H275 H 0.97539 0.79721 0.60741 0.0
O276 O 0.89547 0.79034 0.59538 0.0
O277 O 0.91681 0.88557 0.55672 0.0
O278 O 0.92806 0.72716 0.51767 0.0
O279 O 0.96148 0.8095 0.51983 0.0
C280 C 0.97055 0.09019 0.68438 0.0
C281 C 0.95843 0.15037 0.65596 0.0
H282 H 0.93248 0.24875 0.59186 0.0
H283 H 0.91471 0.20536 0.51038 0.0
H284 H 0.99319 0.8209 0.69161 0.0
H285 H 0.99149 0.95691 0.72887 0.0
H286 H 0.97794 0.1054 0.72082 0.0
H287 H 0.95663 0.21065 0.67114 0.0
H288 H 0.82893 0.35564 0.02974 0.0
H289 H 0.69315 0.14548 0.02861 0.0
H290 H 0.81803 0.09939 0.01212 0.0
H291 H 0.70419 0.40137 0.00952 0.0
H292 H 0.73879 0.12772 0.0337 0.0
H293 H 0.78325 0.37345 0.03351 0.0
C294 C 0.81694 0.30301 0.02704 0.0
C295 C 0.82734 0.22589 0.02041 0.0
C296 C 0.73122 0.18779 0.02858 0.0
C297 C 0.77498 0.24593 0.02474 0.0
C298 C 0.70515 0.19804 0.02584 0.0
C299 C 0.69481 0.27503 0.01843 0.0
C300 C 0.74713 0.25507 0.0243 0.0
C301 C 0.71132 0.34089 0.01505 0.0
C302 C 0.79085 0.31329 0.02902 0.0
C303 C 0.81085 0.15996 0.01707 0.0
N304 N 0.73664 0.32941 0.01798 0.0
N305 N 0.78552 0.17148 0.01923 0.0
H306 H 0.20366 0.91255 0.00032 0.0
H307 H 0.33153 0.85332 0.03863 0.0
H308 H 0.19589 0.65711 0.02659 0.0
H309 H 0.31683 0.60742 0.99482 0.0
H310 H 0.28637 0.87741 0.0437 0.0
H311 H 0.24921 0.89814 0.00462 0.0
C312 C 0.21155 0.8535 0.00771 0.0
C313 C 0.19589 0.78602 0.01333 0.0
C314 C 0.2929 0.81845 0.03227 0.0
C315 C 0.24832 0.76899 0.01928 0.0
C316 C 0.31878 0.80437 0.02991 0.0
C317 C 0.32802 0.72845 0.01574 0.0
C318 C 0.27601 0.75625 0.02007 0.0
C319 C 0.31056 0.66708 0.00552 0.0
C320 C 0.23765 0.84536 0.01065 0.0
C321 C 0.20723 0.71087 0.02232 0.0
N322 N 0.2854 0.68236 0.00781 0.0
N323 N 0.23275 0.70428 0.02462 0.0
H324 H 0.81806 0.90732 0.50926 0.0
H325 H 0.70381 0.59414 0.50625 0.0
H326 H 0.82828 0.65096 0.49067 0.0
H327 H 0.69364 0.85095 0.4902 0.0
H328 H 0.74941 0.61353 0.50235 0.0
H329 H 0.77247 0.88813 0.50415 0.0
C330 C 0.81073 0.84702 0.50384 0.0
C331 C 0.82704 0.78062 0.50048 0.0
C332 C 0.73721 0.66561 0.49934 0.0
C333 C 0.77479 0.7581 0.49504 0.0
C334 C 0.71116 0.65459 0.50162 0.0
C335 C 0.69485 0.72104 0.49863 0.0
C336 C 0.74713 0.74379 0.49462 0.0
C337 C 0.70548 0.79797 0.4926 0.0
C338 C 0.78469 0.83611 0.50085 0.0
C339 C 0.81644 0.7039 0.49341 0.0
N340 N 0.73091 0.80728 0.49118 0.0
N341 N 0.79102 0.69468 0.4913 0.0
H342 H 0.20321 0.09428 0.50378 0.0
H343 H 0.31814 0.40511 0.5027 0.0
H344 H 0.19358 0.35096 0.48569 0.0
H345 H 0.32782 0.14799 0.48728 0.0
H346 H 0.27251 0.38671 0.49812 0.0
H347 H 0.24885 0.11253 0.4994 0.0
C348 C 0.21068 0.15446 0.49861 0.0
C349 C 0.19452 0.22122 0.49519 0.0
C350 C 0.28461 0.33434 0.49541 0.0
C351 C 0.24684 0.24266 0.49059 0.0
C352 C 0.31068 0.34479 0.49808 0.0
C353 C 0.32686 0.27797 0.49546 0.0
C354 C 0.27454 0.25637 0.49064 0.0
C355 C 0.31609 0.20125 0.48942 0.0
C356 C 0.23676 0.16483 0.49605 0.0
C357 C 0.20531 0.29775 0.48846 0.0
N358 N 0.29064 0.1925 0.48759 0.0
N359 N 0.23076 0.30644 0.48675 0.0
H360 H 0.64197 0.39299 0.14837 0.0
H361 H 0.56135 0.5589 0.37681 0.0
H362 H 0.56279 0.4494 0.13898 0.0
H363 H 0.64163 0.59591 0.36855 0.0
H364 H 0.56201 0.50327 0.29267 0.0
H365 H 0.6427 0.45029 0.23315 0.0
C366 C 0.62473 0.41654 0.16433 0.0
C367 C 0.60228 0.41649 0.13673 0.0
C368 C 0.57948 0.52399 0.30905 0.0
C369 C 0.60304 0.48182 0.23284 0.0
C370 C 0.57913 0.55572 0.35706 0.0
C371 C 0.60147 0.58214 0.37953 0.0
C372 C 0.6024 0.51732 0.28342 0.0
C373 C 0.62397 0.57679 0.35225 0.0
C374 C 0.62523 0.44985 0.21234 0.0
C375 C 0.58054 0.44852 0.15885 0.0
N376 N 0.62393 0.54414 0.30558 0.0
N377 N 0.58145 0.4796 0.2056 0.0
H378 H 0.3804 0.604 0.14528 0.0
H379 H 0.46063 0.43417 0.37282 0.0
H380 H 0.45914 0.54207 0.1347 0.0
H381 H 0.38016 0.40121 0.36549 0.0
H382 H 0.46006 0.48881 0.28843 0.0
H383 H 0.37954 0.54633 0.22994 0.0
C384 C 0.39751 0.57909 0.16093 0.0
C385 C 0.41988 0.5778 0.13305 0.0
C386 C 0.44252 0.46916 0.30506 0.0
C387 C 0.41899 0.51207 0.22903 0.0
C388 C 0.44283 0.43801 0.35321 0.0
C389 C 0.42041 0.41307 0.376 0.0
C390 C 0.41958 0.47678 0.27965 0.0
C391 C 0.39788 0.4192 0.34892 0.0
C392 C 0.39694 0.54559 0.20887 0.0
C393 C 0.44147 0.54405 0.15479 0.0
N394 N 0.39797 0.45133 0.30212 0.0
N395 N 0.44049 0.51286 0.20149 0.0
H396 H 0.39964 0.49149 0.9012 0.0
H397 H 0.40039 0.51059 0.60796 0.0
H398 H 0.4226 0.70808 0.82502 0.0
H399 H 0.42169 0.29325 0.68525 0.0
H400 H 0.40279 0.58503 0.6869 0.0
H401 H 0.40179 0.41773 0.82206 0.0
C402 C 0.40557 0.52304 0.86778 0.0
C403 C 0.412 0.60487 0.86964 0.0
C404 C 0.40725 0.5213 0.68646 0.0
C405 C 0.41326 0.5223 0.77899 0.0
C406 C 0.40605 0.47903 0.64155 0.0
C407 C 0.41191 0.3967 0.6401 0.0
C408 C 0.41334 0.48002 0.73049 0.0
C409 C 0.41765 0.35724 0.68491 0.0
C410 C 0.40665 0.48115 0.82276 0.0
C411 C 0.41812 0.6444 0.82505 0.0
N412 N 0.4182 0.39933 0.72851 0.0
N413 N 0.4186 0.60265 0.78128 0.0
H414 H 0.62172 0.50842 0.90493 0.0
H415 H 0.62205 0.48878 0.61163 0.0
H416 H 0.60001 0.29111 0.82806 0.0
H417 H 0.59999 0.70599 0.68829 0.0
H418 H 0.61971 0.4148 0.69069 0.0
H419 H 0.61941 0.58248 0.82591 0.0
C420 C 0.616 0.47678 0.8714 0.0
C421 C 0.61 0.3946 0.87301 0.0
C422 C 0.61508 0.4784 0.6901 0.0
C423 C 0.60864 0.4775 0.7825 0.0
C424 C 0.61626 0.52041 0.64512 0.0
C425 C 0.61015 0.60252 0.64344 0.0
C426 C 0.60871 0.51971 0.73398 0.0
C427 C 0.60422 0.64212 0.68812 0.0
C428 C 0.61484 0.51884 0.82644 0.0
C429 C 0.60416 0.35502 0.82828 0.0
N430 N 0.60365 0.60026 0.73181 0.0
N431 N 0.60365 0.39691 0.7846 0.0
H432 H 0.14262 0.89934 0.14433 0.0
H433 H 0.06116 0.05797 0.37363 0.0
H434 H 0.06309 0.95061 0.13531 0.0
H435 H 0.14115 0.10067 0.36498 0.0
H436 H 0.06209 0.00263 0.28942 0.0
H437 H 0.14303 0.95581 0.22933 0.0
C438 C 0.12525 0.92163 0.1604 0.0
C439 C 0.10278 0.92038 0.13284 0.0
C440 C 0.07944 0.02452 0.30574 0.0
C441 C 0.10317 0.98468 0.22923 0.0
C442 C 0.07893 0.05608 0.35381 0.0
C443 C 0.10111 0.08409 0.37619 0.0
C444 C 0.10236 0.01966 0.27996 0.0
C445 C 0.1236 0.08032 0.34878 0.0
C446 C 0.12556 0.95444 0.20855 0.0
C447 C 0.08085 0.95074 0.15513 0.0
N448 N 0.12372 0.04788 0.30206 0.0
N449 N 0.08159 0.98135 0.20202 0.0
H450 H 0.88015 0.89806 0.37054 0.0
H451 H 0.96096 0.06651 0.14321 0.0
H452 H 0.95917 0.95606 0.38088 0.0
H453 H 0.88055 0.10108 0.15054 0.0
H454 H 0.96025 0.01109 0.2274 0.0
H455 H 0.8795 0.95587 0.28591 0.0
C456 C 0.89737 0.9221 0.35482 0.0
C457 C 0.91975 0.92231 0.38265 0.0
C458 C 0.94276 0.03126 0.21082 0.0
C459 C 0.91909 0.98823 0.2867 0.0
C460 C 0.94315 0.06288 0.16278 0.0
C461 C 0.92078 0.08851 0.14002 0.0
C462 C 0.91978 0.02389 0.23617 0.0
C463 C 0.89823 0.08258 0.16706 0.0
C464 C 0.89692 0.95569 0.3069 0.0
C465 C 0.94148 0.95496 0.36084 0.0
N466 N 0.89824 0.05003 0.21375 0.0
N467 N 0.94061 0.9863 0.31416 0.0
H468 H 0.89973 0.01112 0.6147 0.0
H469 H 0.90078 0.99133 0.9081 0.0
H470 H 0.92205 0.7938 0.69087 0.0
H471 H 0.92189 0.20875 0.83075 0.0
H472 H 0.903 0.91703 0.8291 0.0
H473 H 0.9021 0.08481 0.69385 0.0
C474 C 0.90557 0.97939 0.64811 0.0
C475 C 0.91176 0.89735 0.64625 0.0
C476 C 0.90746 0.98075 0.82953 0.0
C477 C 0.91326 0.97987 0.73692 0.0
C478 C 0.90637 0.02294 0.87448 0.0
C479 C 0.91221 0.10525 0.87593 0.0
C480 C 0.91345 0.02209 0.78546 0.0
C481 C 0.91786 0.14477 0.8311 0.0
C482 C 0.90678 0.02125 0.69315 0.0
C483 C 0.91777 0.85762 0.69084 0.0
N484 N 0.91832 0.10275 0.78745 0.0
N485 N 0.91837 0.89936 0.7346 0.0
H486 H 0.09935 0.78929 0.82553 0.0
H487 H 0.09877 0.21194 0.6838 0.0
H488 H 0.12132 0.00997 0.89836 0.0
H489 H 0.1207 0.99171 0.61033 0.0
H490 H 0.09693 0.13844 0.76368 0.0
H491 H 0.09708 0.86255 0.74557 0.0
C492 C 0.10337 0.8533 0.82463 0.0
C493 C 0.10962 0.89467 0.86849 0.0
C494 C 0.10183 0.10625 0.72985 0.0
C495 C 0.10727 0.97792 0.77817 0.0
C496 C 0.10286 0.14795 0.68455 0.0
C497 C 0.109 0.1068 0.64054 0.0
C498 C 0.10711 0.02325 0.73079 0.0
C499 C 0.11487 0.02454 0.64332 0.0
C500 C 0.1021 0.89487 0.77928 0.0
C501 C 0.1154 0.97696 0.86551 0.0
N502 N 0.11354 0.98507 0.68765 0.0
N503 N 0.11384 0.01627 0.82115 0.0
H504 H 0.50425 0.7572 0.002 0.0
H505 H 0.5188 0.23708 0.00676 0.0
H506 H 0.44129 0.9219 0.00717 0.0
H507 H 0.58198 0.07309 0.00564 0.0
H508 H 0.49032 0.12231 0.00921 0.0
H509 H 0.53292 0.87163 0.00558 0.0
C510 C 0.49637 0.81736 0.00414 0.0
C511 C 0.47018 0.82963 0.00423 0.0
C512 C 0.5104 0.1113 0.00864 0.0
C513 C 0.50317 0.96147 0.00817 0.0
C514 C 0.52677 0.17697 0.00727 0.0
C515 C 0.55297 0.16506 0.00593 0.0
C516 C 0.52016 0.03268 0.00856 0.0
C517 C 0.56199 0.08543 0.00662 0.0
C518 C 0.51284 0.88279 0.00614 0.0
C519 C 0.46127 0.90926 0.00696 0.0
N520 N 0.54562 0.02235 0.00773 0.0
N521 N 0.47772 0.97204 0.00868 0.0
H522 H 0.51851 0.75844 0.51297 0.0
H523 H 0.50305 0.23788 0.50817 0.0
H524 H 0.58128 0.92375 0.50855 0.0
H525 H 0.44021 0.07274 0.50929 0.0
H526 H 0.53178 0.12372 0.50636 0.0
H527 H 0.48971 0.8724 0.50976 0.0
C528 C 0.52633 0.81867 0.5111 0.0
C529 C 0.55252 0.83117 0.51104 0.0
C530 C 0.51172 0.11231 0.50681 0.0
C531 C 0.51931 0.96264 0.5075 0.0
C532 C 0.4952 0.17763 0.50781 0.0
C533 C 0.46901 0.16525 0.50892 0.0
C534 C 0.50215 0.03352 0.507 0.0
C535 C 0.46017 0.08546 0.50845 0.0
C536 C 0.50976 0.88386 0.5093 0.0
C537 C 0.56131 0.91093 0.50868 0.0
N538 N 0.4767 0.02271 0.50766 0.0
N539 N 0.54475 0.97354 0.50712 0.0
H540 H 0.08359 0.57585 0.00566 0.0
H541 H 0.93977 0.42836 0.00756 0.0
H542 H 0.01979 0.73734 0.00233 0.0
H543 H 1.00343 0.26625 0.00658 0.0
H544 H 0.96888 0.5425 0.00927 0.0
H545 H 0.05454 0.46156 0.00962 0.0
C546 C 0.06353 0.58745 0.00597 0.0
C547 C 0.05422 0.66662 0.0036 0.0
C548 C 0.97645 0.48189 0.00886 0.0
C549 C 0.02082 0.53585 0.00801 0.0
C550 C 0.95982 0.4166 0.00793 0.0
C551 C 0.96907 0.3373 0.00686 0.0
C552 C 1.00256 0.46797 0.0087 0.0
C553 C 0.99532 0.32612 0.00735 0.0
C554 C 0.04694 0.5221 0.00818 0.0
C555 C 0.02796 0.67761 0.00409 0.0
N556 N 0.01109 0.39058 0.00813 0.0
N557 N 0.01225 0.61313 0.00613 0.0
H558 H 0.01825 0.26253 0.50747 0.0
H559 H 1.00333 0.7422 0.51386 0.0
H560 H 0.08128 0.42691 0.50835 0.0
H561 H 0.94039 0.57755 0.50937 0.0
H562 H 0.03201 0.62793 0.50977 0.0
H563 H 0.98965 0.37708 0.50595 0.0
C564 C 0.02617 0.32269 0.5071 0.0
C565 C 0.05237 0.33473 0.5081 0.0
C566 C 0.01194 0.6167 0.50948 0.0
C567 C 0.01939 0.46692 0.50654 0.0
C568 C 0.99545 0.68206 0.51178 0.0
C569 C 0.96925 0.66982 0.51199 0.0
C570 C 1.00231 0.53803 0.50744 0.0
C571 C 0.96037 0.59018 0.50934 0.0
C572 C 1.00972 0.38823 0.50627 0.0
C573 C 0.0613 0.41444 0.5076 0.0
N574 N 0.97686 0.52742 0.5073 0.0
N575 N 0.04485 0.4774 0.50702 0.0
loop_
_geom_bond_atom_site_label_1
_geom_bond_atom_site_label_2
_geom_bond_distance
_geom_bond_site_symmetry_2
_ccdc_geom_bond_type
Mn0 O5 2.095 . S
Mn0 O15 2.162 . S
Mn0 O16 2.297 . S
Mn0 O24 2.385 1_554 S
Mn0 O25 2.209 1_554 S
Mn0 O26 2.094 . S
Mn1 O6 2.121 . S
Mn1 N8 2.257 1_554 S
Mn1 N17 2.282 1_554 S
Mn1 O25 2.215 1_554 S
Mn1 O27 2.117 . S
C2 O24 1.234 . S
C2 O25 1.283 . S
C3 O15 1.281 . S
C3 O16 1.236 . S
C4 O26 1.240 . S
C4 O27 1.264 . S
O5 Mn0 2.095 . S
O5 C14 1.250 . S
O6 Mn1 2.121 . S
O6 C14 1.258 . S
C7 N8 1.326 1_554 S
C7 C11 1.460 1_554 S
C7 H13 0.929 . S
N8 Mn1 2.257 1_556 S
N8 C7 1.326 1_556 S
N8 C12 1.362 . S
C9 C10 1.258 . S
C9 C12 1.431 . S
C9 C29 1.449 . S
C10 C9 1.258 . S
C10 C11 1.477 . S
C10 H30 0.931 . S
C11 C7 1.460 1_556 S
C11 C10 1.477 . S
C11 H31 0.930 1_556 S
C12 N8 1.362 . S
C12 C9 1.431 . S
C12 C22 1.476 . S
H13 C7 0.929 . S
C14 O5 1.250 . S
C14 O6 1.258 . S
O15 Mn0 2.162 . S
O15 C3 1.281 . S
O16 Mn0 2.297 . S
O16 C3 1.236 . S
N17 Mn1 2.282 1_556 S
N17 C18 1.328 . S
N17 C22 1.318 . S
C18 N17 1.328 . S
C18 C19 1.457 . S
C18 H23 0.929 . S
C19 C18 1.457 . S
C19 C20 1.291 . S
C19 H32 0.931 . S
C20 C19 1.291 . S
C20 C21 1.373 . S
C20 H33 0.929 . S
C21 C20 1.373 . S
C21 C22 1.396 . S
C21 C28 1.403 . S
C22 C12 1.476 . S
C22 N17 1.318 . S
C22 C21 1.396 . S
H23 C18 0.929 . S
O24 Mn0 2.385 1_556 S
O24 C2 1.234 . S
O25 Mn0 2.209 1_556 S
O25 Mn1 2.215 1_556 S
O25 C2 1.283 . S
O26 Mn0 2.094 . S
O26 C4 1.240 . S
O27 Mn1 2.117 . S
O27 C4 1.264 . S
C28 C21 1.403 . S
C28 C29 1.399 . S
C28 H34 0.929 . S
C29 C9 1.449 . S
C29 C28 1.399 . S
C29 H35 0.930 . S
H30 C10 0.931 . S
H31 C11 0.930 1_554 S
H32 C19 0.931 . S
H33 C20 0.929 . S
H34 C28 0.929 . S
H35 C29 0.930 . S
Mn36 O41 2.095 . S
Mn36 O51 2.162 . S
Mn36 O52 2.297 . S
Mn36 O60 2.385 1_554 S
Mn36 O61 2.209 1_554 S
Mn36 O62 2.094 . S
Mn37 O42 2.121 . S
Mn37 N44 2.257 1_554 S
Mn37 N53 2.282 1_554 S
Mn37 O61 2.215 1_554 S
Mn37 O63 2.117 . S
C38 O60 1.234 . S
C38 O61 1.283 . S
C39 O51 1.281 . S
C39 O52 1.236 . S
C40 O62 1.240 . S
C40 O63 1.264 . S
O41 Mn36 2.095 . S
O41 C50 1.250 . S
O42 Mn37 2.121 . S
O42 C50 1.258 . S
C43 N44 1.326 1_554 S
C43 C47 1.460 1_554 S
C43 H49 0.929 . S
N44 Mn37 2.257 1_556 S
N44 C43 1.326 1_556 S
N44 C48 1.362 . S
C45 C46 1.258 . S
C45 C48 1.431 . S
C45 C65 1.449 . S
C46 C45 1.258 . S
C46 C47 1.477 . S
C46 H66 0.931 . S
C47 C43 1.460 1_556 S
C47 C46 1.477 . S
C47 H67 0.930 1_556 S
C48 N44 1.362 . S
C48 C45 1.431 . S
C48 C58 1.476 . S
H49 C43 0.929 . S
C50 O41 1.250 . S
C50 O42 1.258 . S
O51 Mn36 2.162 . S
O51 C39 1.281 . S
O52 Mn36 2.297 . S
O52 C39 1.236 . S
N53 Mn37 2.282 1_556 S
N53 C54 1.328 . S
N53 C58 1.318 . S
C54 N53 1.328 . S
C54 C55 1.457 . S
C54 H59 0.929 . S
C55 C54 1.457 . S
C55 C56 1.291 . S
C55 H68 0.931 . S
C56 C55 1.291 . S
C56 C57 1.373 . S
C56 H69 0.929 . S
C57 C56 1.373 . S
C57 C58 1.396 . S
C57 C64 1.403 . S
C58 C48 1.476 . S
C58 N53 1.318 . S
C58 C57 1.396 . S
H59 C54 0.929 . S
O60 Mn36 2.385 1_556 S
O60 C38 1.234 . S
O61 Mn36 2.209 1_556 S
O61 Mn37 2.215 1_556 S
O61 C38 1.283 . S
O62 Mn36 2.094 . S
O62 C40 1.240 . S
O63 Mn37 2.117 . S
O63 C40 1.264 . S
C64 C57 1.403 . S
C64 C65 1.399 . S
C64 H70 0.929 . S
C65 C45 1.449 . S
C65 C64 1.399 . S
C65 H71 0.930 . S
H66 C46 0.931 . S
H67 C47 0.930 1_554 S
H68 C55 0.931 . S
H69 C56 0.929 . S
H70 C64 0.929 . S
H71 C65 0.930 . S
Mn72 O77 2.095 . S
Mn72 O87 2.162 . S
Mn72 O88 2.297 . S
Mn72 O96 2.385 . S
Mn72 O97 2.209 . S
Mn72 O98 2.094 . S
Mn73 O78 2.121 . S
Mn73 N80 2.257 . S
Mn73 N89 2.282 . S
Mn73 O97 2.215 . S
Mn73 O99 2.117 . S
C74 O96 1.234 . S
C74 O97 1.283 . S
C75 O87 1.281 . S
C75 O88 1.236 . S
C76 O98 1.240 . S
C76 O99 1.264 . S
O77 Mn72 2.095 . S
O77 C86 1.250 . S
O78 Mn73 2.121 . S
O78 C86 1.258 . S
C79 N80 1.326 . S
C79 C83 1.460 . S
C79 H85 0.929 . S
N80 Mn73 2.257 . S
N80 C79 1.326 . S
N80 C84 1.362 . S
C81 C82 1.258 . S
C81 C84 1.431 . S
C81 C101 1.449 . S
C82 C81 1.258 . S
C82 C83 1.477 . S
C82 H102 0.931 . S
C83 C79 1.460 . S
C83 C82 1.477 . S
C83 H103 0.930 . S
C84 N80 1.362 . S
C84 C81 1.431 . S
C84 C94 1.476 . S
H85 C79 0.929 . S
C86 O77 1.250 . S
C86 O78 1.258 . S
O87 Mn72 2.162 . S
O87 C75 1.281 . S
O88 Mn72 2.297 . S
O88 C75 1.236 . S
N89 Mn73 2.282 . S
N89 C90 1.328 . S
N89 C94 1.318 . S
C90 N89 1.328 . S
C90 C91 1.457 . S
C90 H95 0.929 . S
C91 C90 1.457 . S
C91 C92 1.291 . S
C91 H104 0.931 . S
C92 C91 1.291 . S
C92 C93 1.373 . S
C92 H105 0.929 . S
C93 C92 1.373 . S
C93 C94 1.396 . S
C93 C100 1.403 . S
C94 C84 1.476 . S
C94 N89 1.318 . S
C94 C93 1.396 . S
H95 C90 0.929 . S
O96 Mn72 2.385 . S
O96 C74 1.234 . S
O97 Mn72 2.209 . S
O97 Mn73 2.215 . S
O97 C74 1.283 . S
O98 Mn72 2.094 . S
O98 C76 1.240 . S
O99 Mn73 2.117 . S
O99 C76 1.264 . S
C100 C93 1.403 . S
C100 C101 1.399 . S
C100 H106 0.929 . S
C101 C81 1.449 . S
C101 C100 1.399 . S
C101 H107 0.930 . S
H102 C82 0.931 . S
H103 C83 0.930 . S
H104 C91 0.931 . S
H105 C92 0.929 . S
H106 C100 0.929 . S
H107 C101 0.930 . S
Mn108 O113 2.095 . S
Mn108 O123 2.162 . S
Mn108 O124 2.297 . S
Mn108 O132 2.385 . S
Mn108 O133 2.209 . S
Mn108 O134 2.094 . S
Mn109 O114 2.121 . S
Mn109 N116 2.257 . S
Mn109 N125 2.282 . S
Mn109 O133 2.215 . S
Mn109 O135 2.117 . S
C110 O132 1.234 . S
C110 O133 1.283 . S
C111 O123 1.281 . S
C111 O124 1.236 . S
C112 O134 1.240 . S
C112 O135 1.264 . S
O113 Mn108 2.095 . S
O113 C122 1.250 . S
O114 Mn109 2.121 . S
O114 C122 1.258 . S
C115 N116 1.326 . S
C115 C119 1.460 . S
C115 H121 0.929 . S
N116 Mn109 2.257 . S
N116 C115 1.326 . S
N116 C120 1.362 . S
C117 C118 1.258 . S
C117 C120 1.431 . S
C117 C137 1.449 . S
C118 C117 1.258 . S
C118 C119 1.477 . S
C118 H138 0.931 . S
C119 C115 1.460 . S
C119 C118 1.477 . S
C119 H139 0.930 . S
C120 N116 1.362 . S
C120 C117 1.431 . S
C120 C130 1.476 . S
H121 C115 0.929 . S
C122 O113 1.250 . S
C122 O114 1.258 . S
O123 Mn108 2.162 . S
O123 C111 1.281 . S
O124 Mn108 2.297 . S
O124 C111 1.236 . S
N125 Mn109 2.282 . S
N125 C126 1.328 . S
N125 C130 1.318 . S
C126 N125 1.328 . S
C126 C127 1.457 . S
C126 H131 0.929 . S
C127 C126 1.457 . S
C127 C128 1.291 . S
C127 H140 0.931 . S
C128 C127 1.291 . S
C128 C129 1.373 . S
C128 H141 0.929 . S
C129 C128 1.373 . S
C129 C130 1.396 . S
C129 C136 1.403 . S
C130 C120 1.476 . S
C130 N125 1.318 . S
C130 C129 1.396 . S
H131 C126 0.929 . S
O132 Mn108 2.385 . S
O132 C110 1.234 . S
O133 Mn108 2.209 . S
O133 Mn109 2.215 . S
O133 C110 1.283 . S
O134 Mn108 2.094 . S
O134 C112 1.240 . S
O135 Mn109 2.117 . S
O135 C112 1.264 . S
C136 C129 1.403 . S
C136 C137 1.399 . S
C136 H142 0.929 . S
C137 C117 1.449 . S
C137 C136 1.399 . S
C137 H143 0.930 . S
H138 C118 0.931 . S
H139 C119 0.930 . S
H140 C127 0.931 . S
H141 C128 0.929 . S
H142 C136 0.929 . S
H143 C137 0.930 . S
Mn144 O149 2.095 . S
Mn144 O159 2.162 . S
Mn144 O160 2.297 . S
Mn144 O168 2.385 1_554 S
Mn144 O169 2.209 1_554 S
Mn144 O170 2.094 . S
Mn145 O150 2.121 . S
Mn145 N152 2.257 1_564 S
Mn145 N161 2.282 1_554 S
Mn145 O169 2.215 1_554 S
Mn145 O171 2.117 . S
C146 O168 1.234 . S
C146 O169 1.283 . S
C147 O159 1.281 . S
C147 O160 1.236 . S
C148 O170 1.240 . S
C148 O171 1.264 . S
O149 Mn144 2.095 . S
O149 C158 1.250 . S
O150 Mn145 2.121 . S
O150 C158 1.258 . S
C151 N152 1.326 1_554 S
C151 C155 1.460 1_554 S
C151 H157 0.929 . S
N152 Mn145 2.257 1_546 S
N152 C151 1.326 1_556 S
N152 C156 1.362 . S
C153 C154 1.258 . S
C153 C156 1.431 . S
C153 C173 1.449 . S
C154 C153 1.258 . S
C154 C155 1.477 . S
C154 H174 0.931 . S
C155 C151 1.460 1_556 S
C155 C154 1.477 . S
C155 H175 0.930 1_556 S
C156 N152 1.362 . S
C156 C153 1.431 . S
C156 C166 1.476 1_545 S
H157 C151 0.929 . S
C158 O149 1.250 . S
C158 O150 1.258 . S
O159 Mn144 2.162 . S
O159 C147 1.281 . S
O160 Mn144 2.297 . S
O160 C147 1.236 . S
N161 Mn145 2.282 1_556 S
N161 C162 1.328 . S
N161 C166 1.318 . S
C162 N161 1.328 . S
C162 C163 1.457 . S
C162 H167 0.929 . S
C163 C162 1.457 . S
C163 C164 1.291 . S
C163 H176 0.931 . S
C164 C163 1.291 . S
C164 C165 1.373 . S
C164 H177 0.929 . S
C165 C164 1.373 . S
C165 C166 1.396 . S
C165 C172 1.403 1_565 S
C166 C156 1.476 1_565 S
C166 N161 1.318 . S
C166 C165 1.396 . S
H167 C162 0.929 . S
O168 Mn144 2.385 1_556 S
O168 C146 1.234 . S
O169 Mn144 2.209 1_556 S
O169 Mn145 2.215 1_556 S
O169 C146 1.283 . S
O170 Mn144 2.094 . S
O170 C148 1.240 . S
O171 Mn145 2.117 . S
O171 C148 1.264 . S
C172 C165 1.403 1_545 S
C172 C173 1.399 . S
C172 H178 0.929 . S
C173 C153 1.449 . S
C173 C172 1.399 . S
C173 H179 0.930 . S
H174 C154 0.931 . S
H175 C155 0.930 1_554 S
H176 C163 0.931 . S
H177 C164 0.929 . S
H178 C172 0.929 . S
H179 C173 0.930 . S
Mn180 O185 2.095 . S
Mn180 O195 2.162 . S
Mn180 O196 2.297 . S
Mn180 O204 2.385 1_554 S
Mn180 O205 2.209 1_554 S
Mn180 O206 2.094 . S
Mn181 O186 2.121 . S
Mn181 N188 2.257 1_544 S
Mn181 N197 2.282 1_554 S
Mn181 O205 2.215 1_554 S
Mn181 O207 2.117 . S
C182 O204 1.234 . S
C182 O205 1.283 . S
C183 O195 1.281 . S
C183 O196 1.236 . S
C184 O206 1.240 . S
C184 O207 1.264 . S
O185 Mn180 2.095 . S
O185 C194 1.250 . S
O186 Mn181 2.121 . S
O186 C194 1.258 . S
C187 N188 1.326 1_554 S
C187 C191 1.460 1_554 S
C187 H193 0.929 . S
N188 Mn181 2.257 1_566 S
N188 C187 1.326 1_556 S
N188 C192 1.362 . S
C189 C190 1.258 . S
C189 C192 1.431 . S
C189 C209 1.449 . S
C190 C189 1.258 . S
C190 C191 1.477 . S
C190 H210 0.931 . S
C191 C187 1.460 1_556 S
C191 C190 1.477 . S
C191 H211 0.930 1_556 S
C192 N188 1.362 . S
C192 C189 1.431 . S
C192 C202 1.476 1_565 S
H193 C187 0.929 . S
C194 O185 1.250 . S
C194 O186 1.258 . S
O195 Mn180 2.162 . S
O195 C183 1.281 . S
O196 Mn180 2.297 . S
O196 C183 1.236 . S
N197 Mn181 2.282 1_556 S
N197 C198 1.328 . S
N197 C202 1.318 . S
C198 N197 1.328 . S
C198 C199 1.457 . S
C198 H203 0.929 . S
C199 C198 1.457 . S
C199 C200 1.291 . S
C199 H212 0.931 . S
C200 C199 1.291 . S
C200 C201 1.373 . S
C200 H213 0.929 . S
C201 C200 1.373 . S
C201 C202 1.396 . S
C201 C208 1.403 1_545 S
C202 C192 1.476 1_545 S
C202 N197 1.318 . S
C202 C201 1.396 . S
H203 C198 0.929 . S
O204 Mn180 2.385 1_556 S
O204 C182 1.234 . S
O205 Mn180 2.209 1_556 S
O205 Mn181 2.215 1_556 S
O205 C182 1.283 . S
O206 Mn180 2.094 . S
O206 C184 1.240 . S
O207 Mn181 2.117 . S
O207 C184 1.264 . S
C208 C201 1.403 1_565 S
C208 C209 1.399 . S
C208 H214 0.929 . S
C209 C189 1.449 . S
C209 C208 1.399 . S
C209 H215 0.930 . S
H210 C190 0.931 . S
H211 C191 0.930 1_554 S
H212 C199 0.931 . S
H213 C200 0.929 . S
H214 C208 0.929 . S
H215 C209 0.930 . S
Mn216 O221 2.095 . S
Mn216 O231 2.162 . S
Mn216 O232 2.297 . S
Mn216 O240 2.385 . S
Mn216 O241 2.209 . S
Mn216 O242 2.094 . S
Mn217 O222 2.121 . S
Mn217 N224 2.257 1_545 S
Mn217 N233 2.282 . S
Mn217 O241 2.215 . S
Mn217 O243 2.117 . S
C218 O240 1.234 . S
C218 O241 1.283 . S
C219 O231 1.281 . S
C219 O232 1.236 . S
C220 O242 1.240 . S
C220 O243 1.264 . S
O221 Mn216 2.095 . S
O221 C230 1.250 . S
O222 Mn217 2.121 . S
O222 C230 1.258 . S
C223 N224 1.326 . S
C223 C227 1.460 . S
C223 H229 0.929 . S
N224 Mn217 2.257 1_565 S
N224 C223 1.326 . S
N224 C228 1.362 . S
C225 C226 1.258 . S
C225 C228 1.431 . S
C225 C245 1.449 . S
C226 C225 1.258 . S
C226 C227 1.477 . S
C226 H246 0.931 . S
C227 C223 1.460 . S
C227 C226 1.477 . S
C227 H247 0.930 . S
C228 N224 1.362 . S
C228 C225 1.431 . S
C228 C238 1.476 1_565 S
H229 C223 0.929 . S
C230 O221 1.250 . S
C230 O222 1.258 . S
O231 Mn216 2.162 . S
O231 C219 1.281 . S
O232 Mn216 2.297 . S
O232 C219 1.236 . S
N233 Mn217 2.282 . S
N233 C234 1.328 . S
N233 C238 1.318 . S
C234 N233 1.328 . S
C234 C235 1.457 . S
C234 H239 0.929 . S
C235 C234 1.457 . S
C235 C236 1.291 . S
C235 H248 0.931 . S
C236 C235 1.291 . S
C236 C237 1.373 . S
C236 H249 0.929 . S
C237 C236 1.373 . S
C237 C238 1.396 . S
C237 C244 1.403 1_545 S
C238 C228 1.476 1_545 S
C238 N233 1.318 . S
C238 C237 1.396 . S
H239 C234 0.929 . S
O240 Mn216 2.385 . S
O240 C218 1.234 . S
O241 Mn216 2.209 . S
O241 Mn217 2.215 . S
O241 C218 1.283 . S
O242 Mn216 2.094 . S
O242 C220 1.240 . S
O243 Mn217 2.117 . S
O243 C220 1.264 . S
C244 C237 1.403 1_565 S
C244 C245 1.399 . S
C244 H250 0.929 . S
C245 C225 1.449 . S
C245 C244 1.399 . S
C245 H251 0.930 . S
H246 C226 0.931 . S
H247 C227 0.930 . S
H248 C235 0.931 . S
H249 C236 0.929 . S
H250 C244 0.929 . S
H251 C245 0.930 . S
Mn252 O257 2.095 . S
Mn252 O267 2.162 . S
Mn252 O268 2.297 . S
Mn252 O276 2.385 . S
Mn252 O277 2.209 . S
Mn252 O278 2.094 . S
Mn253 O258 2.121 . S
Mn253 N260 2.257 1_565 S
Mn253 N269 2.282 . S
Mn253 O277 2.215 . S
Mn253 O279 2.117 . S
C254 O276 1.234 . S
C254 O277 1.283 . S
C255 O267 1.281 . S
C255 O268 1.236 . S
C256 O278 1.240 . S
C256 O279 1.264 . S
O257 Mn252 2.095 . S
O257 C266 1.250 . S
O258 Mn253 2.121 . S
O258 C266 1.258 . S
C259 N260 1.326 . S
C259 C263 1.460 . S
C259 H265 0.929 . S
N260 Mn253 2.257 1_545 S
N260 C259 1.326 . S
N260 C264 1.362 . S
C261 C262 1.258 . S
C261 C264 1.431 . S
C261 C281 1.449 . S
C262 C261 1.258 . S
C262 C263 1.477 . S
C262 H282 0.931 . S
C263 C259 1.460 . S
C263 C262 1.477 . S
C263 H283 0.930 . S
C264 N260 1.362 . S
C264 C261 1.431 . S
C264 C274 1.476 1_545 S
H265 C259 0.929 . S
C266 O257 1.250 . S
C266 O258 1.258 . S
O267 Mn252 2.162 . S
O267 C255 1.281 . S
O268 Mn252 2.297 . S
O268 C255 1.236 . S
N269 Mn253 2.282 . S
N269 C270 1.328 . S
N269 C274 1.318 . S
C270 N269 1.328 . S
C270 C271 1.457 . S
C270 H275 0.929 . S
C271 C270 1.457 . S
C271 C272 1.291 . S
C271 H284 0.931 . S
C272 C271 1.291 . S
C272 C273 1.373 . S
C272 H285 0.929 . S
C273 C272 1.373 . S
C273 C274 1.396 . S
C273 C280 1.403 1_565 S
C274 C264 1.476 1_565 S
C274 N269 1.318 . S
C274 C273 1.396 . S
H275 C270 0.929 . S
O276 Mn252 2.385 . S
O276 C254 1.234 . S
O277 Mn252 2.209 . S
O277 Mn253 2.215 . S
O277 C254 1.283 . S
O278 Mn252 2.094 . S
O278 C256 1.240 . S
O279 Mn253 2.117 . S
O279 C256 1.264 . S
C280 C273 1.403 1_545 S
C280 C281 1.399 . S
C280 H286 0.929 . S
C281 C261 1.449 . S
C281 C280 1.399 . S
C281 H287 0.930 . S
H282 C262 0.931 . S
H283 C263 0.930 . S
H284 C271 0.931 . S
H285 C272 0.929 . S
H286 C280 0.929 . S
H287 C281 0.930 . S
H288 C294 0.930 . S
H289 C298 0.930 . S
H290 C303 0.929 . S
H291 C301 0.929 . S
H292 C296 0.929 . S
H293 C302 0.929 . S
C294 H288 0.930 . S
C294 C295 1.367 1_556 S
C294 C302 1.378 . S
C295 C294 1.367 1_554 S
C295 C303 1.433 . S
C296 H292 0.929 . S
C296 C298 1.378 . S
C296 C300 1.350 . S
C297 C300 1.463 . S
C297 C302 1.350 1_554 S
C297 N305 1.427 . S
C298 H289 0.930 . S
C298 C296 1.378 . S
C298 C299 1.367 . S
C299 C298 1.367 . S
C299 C301 1.433 1_554 S
C300 C296 1.350 . S
C300 C297 1.463 . S
C300 N304 1.427 1_554 S
C301 H291 0.929 . S
C301 C299 1.433 1_556 S
C301 N304 1.384 . S
C302 H293 0.929 . S
C302 C294 1.378 . S
C302 C297 1.350 1_556 S
C303 H290 0.929 . S
C303 C295 1.433 . S
C303 N305 1.384 . S
N304 C300 1.427 1_556 S
N304 C301 1.384 . S
N305 C297 1.427 . S
N305 C303 1.384 . S
H306 C312 0.930 . S
H307 C316 0.930 . S
H308 C321 0.929 . S
H309 C319 0.929 . S
H310 C314 0.929 . S
H311 C320 0.929 . S
C312 H306 0.930 . S
C312 C313 1.367 1_556 S
C312 C320 1.378 . S
C313 C312 1.367 1_554 S
C313 C321 1.433 . S
C314 H310 0.929 . S
C314 C316 1.378 . S
C314 C318 1.350 . S
C315 C318 1.463 . S
C315 C320 1.350 1_554 S
C315 N323 1.427 . S
C316 H307 0.930 . S
C316 C314 1.378 . S
C316 C317 1.367 . S
C317 C316 1.367 . S
C317 C319 1.433 1_554 S
C318 C314 1.350 . S
C318 C315 1.463 . S
C318 N322 1.427 1_554 S
C319 H309 0.929 . S
C319 C317 1.433 1_556 S
C319 N322 1.384 . S
C320 H311 0.929 . S
C320 C312 1.378 . S
C320 C315 1.350 1_556 S
C321 H308 0.929 . S
C321 C313 1.433 . S
C321 N323 1.384 . S
N322 C318 1.427 1_556 S
N322 C319 1.384 . S
N323 C315 1.427 . S
N323 C321 1.384 . S
H324 C330 0.930 . S
H325 C334 0.930 . S
H326 C339 0.929 . S
H327 C337 0.929 . S
H328 C332 0.929 . S
H329 C338 0.929 . S
C330 H324 0.930 . S
C330 C331 1.367 . S
C330 C338 1.378 . S
C331 C330 1.367 . S
C331 C339 1.433 . S
C332 H328 0.929 . S
C332 C334 1.378 . S
C332 C336 1.350 . S
C333 C336 1.463 . S
C333 C338 1.350 . S
C333 N341 1.427 . S
C334 H325 0.930 . S
C334 C332 1.378 . S
C334 C335 1.367 . S
C335 C334 1.367 . S
C335 C337 1.433 . S
C336 C332 1.350 . S
C336 C333 1.463 . S
C336 N340 1.427 . S
C337 H327 0.929 . S
C337 C335 1.433 . S
C337 N340 1.384 . S
C338 H329 0.929 . S
C338 C330 1.378 . S
C338 C333 1.350 . S
C339 H326 0.929 . S
C339 C331 1.433 . S
C339 N341 1.384 . S
N340 C336 1.427 . S
N340 C337 1.384 . S
N341 C333 1.427 . S
N341 C339 1.384 . S
H342 C348 0.930 . S
H343 C352 0.930 . S
H344 C357 0.929 . S
H345 C355 0.929 . S
H346 C350 0.929 . S
H347 C356 0.929 . S
C348 H342 0.930 . S
C348 C349 1.367 . S
C348 C356 1.378 . S
C349 C348 1.367 . S
C349 C357 1.433 . S
C350 H346 0.929 . S
C350 C352 1.378 . S
C350 C354 1.350 . S
C351 C354 1.463 . S
C351 C356 1.350 . S
C351 N359 1.427 . S
C352 H343 0.930 . S
C352 C350 1.378 . S
C352 C353 1.367 . S
C353 C352 1.367 . S
C353 C355 1.433 . S
C354 C350 1.350 . S
C354 C351 1.463 . S
C354 N358 1.427 . S
C355 H345 0.929 . S
C355 C353 1.433 . S
C355 N358 1.384 . S
C356 H347 0.929 . S
C356 C348 1.378 . S
C356 C351 1.350 . S
C357 H344 0.929 . S
C357 C349 1.433 . S
C357 N359 1.384 . S
N358 C354 1.427 . S
N358 C355 1.384 . S
N359 C351 1.427 . S
N359 C357 1.384 . S
H360 C366 0.930 . S
H361 C370 0.930 . S
H362 C375 0.929 . S
H363 C373 0.929 . S
H364 C368 0.929 . S
H365 C374 0.929 . S
C366 H360 0.930 . S
C366 C367 1.367 . S
C366 C374 1.378 . S
C367 C366 1.367 . S
C367 C375 1.433 . S
C368 H364 0.929 . S
C368 C370 1.378 . S
C368 C372 1.350 . S
C369 C372 1.463 . S
C369 C374 1.350 . S
C369 N377 1.427 . S
C370 H361 0.930 . S
C370 C368 1.378 . S
C370 C371 1.367 . S
C371 C370 1.367 . S
C371 C373 1.433 . S
C372 C368 1.350 . S
C372 C369 1.463 . S
C372 N376 1.427 . S
C373 H363 0.929 . S
C373 C371 1.433 . S
C373 N376 1.384 . S
C374 H365 0.929 . S
C374 C366 1.378 . S
C374 C369 1.350 . S
C375 H362 0.929 . S
C375 C367 1.433 . S
C375 N377 1.384 . S
N376 C372 1.427 . S
N376 C373 1.384 . S
N377 C369 1.427 . S
N377 C375 1.384 . S
H378 C384 0.930 . S
H379 C388 0.930 . S
H380 C393 0.929 . S
H381 C391 0.929 . S
H382 C386 0.929 . S
H383 C392 0.929 . S
C384 H378 0.930 . S
C384 C385 1.367 . S
C384 C392 1.378 . S
C385 C384 1.367 . S
C385 C393 1.433 . S
C386 H382 0.929 . S
C386 C388 1.378 . S
C386 C390 1.350 . S
C387 C390 1.463 . S
C387 C392 1.350 . S
C387 N395 1.427 . S
C388 H379 0.930 . S
C388 C386 1.378 . S
C388 C389 1.367 . S
C389 C388 1.367 . S
C389 C391 1.433 . S
C390 C386 1.350 . S
C390 C387 1.463 . S
C390 N394 1.427 . S
C391 H381 0.929 . S
C391 C389 1.433 . S
C391 N394 1.384 . S
C392 H383 0.929 . S
C392 C384 1.378 . S
C392 C387 1.350 . S
C393 H380 0.929 . S
C393 C385 1.433 . S
C393 N395 1.384 . S
N394 C390 1.427 . S
N394 C391 1.384 . S
N395 C387 1.427 . S
N395 C393 1.384 . S
H396 C402 0.930 . S
H397 C406 0.930 . S
H398 C411 0.929 . S
H399 C409 0.929 . S
H400 C404 0.929 . S
H401 C410 0.929 . S
C402 H396 0.930 . S
C402 C403 1.367 . S
C402 C410 1.378 . S
C403 C402 1.367 . S
C403 C411 1.433 . S
C404 H400 0.929 . S
C404 C406 1.378 . S
C404 C408 1.350 . S
C405 C408 1.463 . S
C405 C410 1.350 . S
C405 N413 1.427 . S
C406 H397 0.930 . S
C406 C404 1.378 . S
C406 C407 1.367 . S
C407 C406 1.367 . S
C407 C409 1.433 . S
C408 C404 1.350 . S
C408 C405 1.463 . S
C408 N412 1.427 . S
C409 H399 0.929 . S
C409 C407 1.433 . S
C409 N412 1.384 . S
C410 H401 0.929 . S
C410 C402 1.378 . S
C410 C405 1.350 . S
C411 H398 0.929 . S
C411 C403 1.433 . S
C411 N413 1.384 . S
N412 C408 1.427 . S
N412 C409 1.384 . S
N413 C405 1.427 . S
N413 C411 1.384 . S
H414 C420 0.930 . S
H415 C424 0.930 . S
H416 C429 0.929 . S
H417 C427 0.929 . S
H418 C422 0.929 . S
H419 C428 0.929 . S
C420 H414 0.930 . S
C420 C421 1.367 . S
C420 C428 1.378 . S
C421 C420 1.367 . S
C421 C429 1.433 . S
C422 H418 0.929 . S
C422 C424 1.378 . S
C422 C426 1.350 . S
C423 C426 1.463 . S
C423 C428 1.350 . S
C423 N431 1.427 . S
C424 H415 0.930 . S
C424 C422 1.378 . S
C424 C425 1.367 . S
C425 C424 1.367 . S
C425 C427 1.433 . S
C426 C422 1.350 . S
C426 C423 1.463 . S
C426 N430 1.427 . S
C427 H417 0.929 . S
C427 C425 1.433 . S
C427 N430 1.384 . S
C428 H419 0.929 . S
C428 C420 1.378 . S
C428 C423 1.350 . S
C429 H416 0.929 . S
C429 C421 1.433 . S
C429 N431 1.384 . S
N430 C426 1.427 . S
N430 C427 1.384 . S
N431 C423 1.427 . S
N431 C429 1.384 . S
H432 C438 0.930 . S
H433 C442 0.930 . S
H434 C447 0.929 1_545 S
H435 C445 0.929 1_565 S
H436 C440 0.929 . S
H437 C446 0.929 . S
C438 H432 0.930 . S
C438 C439 1.367 . S
C438 C446 1.378 . S
C439 C438 1.367 . S
C439 C447 1.433 . S
C440 H436 0.929 . S
C440 C442 1.378 . S
C440 C444 1.350 . S
C441 C444 1.463 1_565 S
C441 C446 1.350 . S
C441 N449 1.427 1_565 S
C442 H433 0.930 . S
C442 C440 1.378 . S
C442 C443 1.367 . S
C443 C442 1.367 . S
C443 C445 1.433 . S
C444 C440 1.350 . S
C444 C441 1.463 1_545 S
C444 N448 1.427 1_545 S
C445 H435 0.929 1_545 S
C445 C443 1.433 . S
C445 N448 1.384 1_545 S
C446 H437 0.929 . S
C446 C438 1.378 . S
C446 C441 1.350 . S
C447 H434 0.929 1_565 S
C447 C439 1.433 . S
C447 N449 1.384 1_565 S
N448 C444 1.427 1_565 S
N448 C445 1.384 1_565 S
N449 C441 1.427 1_545 S
N449 C447 1.384 1_545 S
H450 C456 0.930 . S
H451 C460 0.930 . S
H452 C465 0.929 . S
H453 C463 0.929 . S
H454 C458 0.929 . S
H455 C464 0.929 . S
C456 H450 0.930 . S
C456 C457 1.367 . S
C456 C464 1.378 . S
C457 C456 1.367 . S
C457 C465 1.433 . S
C458 H454 0.929 . S
C458 C460 1.378 . S
C458 C462 1.350 . S
C459 C462 1.463 1_565 S
C459 C464 1.350 . S
C459 N467 1.427 1_565 S
C460 H451 0.930 . S
C460 C458 1.378 . S
C460 C461 1.367 . S
C461 C460 1.367 . S
C461 C463 1.433 . S
C462 C458 1.350 . S
C462 C459 1.463 1_545 S
C462 N466 1.427 1_545 S
C463 H453 0.929 . S
C463 C461 1.433 . S
C463 N466 1.384 1_545 S
C464 H455 0.929 . S
C464 C456 1.378 . S
C464 C459 1.350 . S
C465 H452 0.929 . S
C465 C457 1.433 . S
C465 N467 1.384 1_565 S
N466 C462 1.427 1_565 S
N466 C463 1.384 1_565 S
N467 C459 1.427 1_545 S
N467 C465 1.384 1_545 S
H468 C474 0.930 . S
H469 C478 0.930 . S
H470 C483 0.929 . S
H471 C481 0.929 . S
H472 C476 0.929 . S
H473 C482 0.929 . S
C474 H468 0.930 . S
C474 C475 1.367 . S
C474 C482 1.378 1_565 S
C475 C474 1.367 . S
C475 C483 1.433 . S
C476 H472 0.929 . S
C476 C478 1.378 1_565 S
C476 C480 1.350 1_565 S
C477 C480 1.463 1_565 S
C477 C482 1.350 1_565 S
C477 N485 1.427 . S
C478 H469 0.930 . S
C478 C476 1.378 1_545 S
C478 C479 1.367 . S
C479 C478 1.367 . S
C479 C481 1.433 . S
C480 C476 1.350 1_545 S
C480 C477 1.463 1_545 S
C480 N484 1.427 . S
C481 H471 0.929 . S
C481 C479 1.433 . S
C481 N484 1.384 . S
C482 H473 0.929 . S
C482 C474 1.378 1_545 S
C482 C477 1.350 1_545 S
C483 H470 0.929 . S
C483 C475 1.433 . S
C483 N485 1.384 . S
N484 C480 1.427 . S
N484 C481 1.384 . S
N485 C477 1.427 . S
N485 C483 1.384 . S
H486 C492 0.930 . S
H487 C496 0.930 . S
H488 C501 0.929 1_545 S
H489 C499 0.929 1_565 S
H490 C494 0.929 . S
H491 C500 0.929 . S
C492 H486 0.930 . S
C492 C493 1.367 . S
C492 C500 1.378 . S
C493 C492 1.367 . S
C493 C501 1.433 . S
C494 H490 0.929 . S
C494 C496 1.378 . S
C494 C498 1.350 . S
C495 C498 1.463 1_565 S
C495 C500 1.350 . S
C495 N503 1.427 1_565 S
C496 H487 0.930 . S
C496 C494 1.378 . S
C496 C497 1.367 . S
C497 C496 1.367 . S
C497 C499 1.433 . S
C498 C494 1.350 . S
C498 C495 1.463 1_545 S
C498 N502 1.427 1_545 S
C499 H489 0.929 1_545 S
C499 C497 1.433 . S
C499 N502 1.384 1_545 S
C500 H491 0.929 . S
C500 C492 1.378 . S
C500 C495 1.350 . S
C501 H488 0.929 1_565 S
C501 C493 1.433 . S
C501 N503 1.384 1_565 S
N502 C498 1.427 1_565 S
N502 C499 1.384 1_565 S
N503 C495 1.427 1_545 S
N503 C501 1.384 1_545 S
H504 C510 0.930 . S
H505 C514 0.930 . S
H506 C519 0.929 . S
H507 C517 0.929 . S
H508 C512 0.929 . S
H509 C518 0.929 . S
C510 H504 0.930 . S
C510 C511 1.367 . S
C510 C518 1.378 . S
C511 C510 1.367 . S
C511 C519 1.433 1_554 S
C512 H508 0.929 . S
C512 C514 1.378 . S
C512 C516 1.350 1_556 S
C513 C516 1.463 1_565 S
C513 C518 1.350 . S
C513 N521 1.427 1_554 S
C514 H505 0.930 . S
C514 C512 1.378 . S
C514 C515 1.367 1_556 S
C515 C514 1.367 1_554 S
C515 C517 1.433 . S
C516 C512 1.350 1_554 S
C516 C513 1.463 1_545 S
C516 N520 1.427 . S
C517 H507 0.929 . S
C517 C515 1.433 . S
C517 N520 1.384 . S
C518 H509 0.929 . S
C518 C510 1.378 . S
C518 C513 1.350 . S
C519 H506 0.929 . S
C519 C511 1.433 1_556 S
C519 N521 1.384 . S
N520 C516 1.427 . S
N520 C517 1.384 . S
N521 C513 1.427 1_556 S
N521 C519 1.384 . S
H522 C528 0.930 . S
H523 C532 0.930 . S
H524 C537 0.929 . S
H525 C535 0.929 . S
H526 C530 0.929 . S
H527 C536 0.929 . S
C528 H522 0.930 . S
C528 C529 1.367 . S
C528 C536 1.378 . S
C529 C528 1.367 . S
C529 C537 1.433 . S
C530 H526 0.929 . S
C530 C532 1.378 . S
C530 C534 1.350 . S
C531 C534 1.463 1_565 S
C531 C536 1.350 . S
C531 N539 1.427 . S
C532 H523 0.930 . S
C532 C530 1.378 . S
C532 C533 1.367 . S
C533 C532 1.367 . S
C533 C535 1.433 . S
C534 C530 1.350 . S
C534 C531 1.463 1_545 S
C534 N538 1.427 . S
C535 H525 0.929 . S
C535 C533 1.433 . S
C535 N538 1.384 . S
C536 H527 0.929 . S
C536 C528 1.378 . S
C536 C531 1.350 . S
C537 H524 0.929 . S
C537 C529 1.433 . S
C537 N539 1.384 . S
N538 C534 1.427 . S
N538 C535 1.384 . S
N539 C531 1.427 . S
N539 C537 1.384 . S
H540 C546 0.930 . S
H541 C550 0.930 . S
H542 C555 0.929 . S
H543 C553 0.929 . S
H544 C548 0.929 . S
H545 C554 0.929 . S
C546 H540 0.930 . S
C546 C547 1.367 . S
C546 C554 1.378 . S
C547 C546 1.367 . S
C547 C555 1.433 1_554 S
C548 H544 0.929 . S
C548 C550 1.378 . S
C548 C552 1.350 1_556 S
C549 C552 1.463 1_455 S
C549 C554 1.350 . S
C549 N557 1.427 1_554 S
C550 H541 0.930 . S
C550 C548 1.378 . S
C550 C551 1.367 1_556 S
C551 C550 1.367 1_554 S
C551 C553 1.433 . S
C552 C548 1.350 1_554 S
C552 C549 1.463 1_655 S
C552 N556 1.427 . S
C553 H543 0.929 . S
C553 C551 1.433 . S
C553 N556 1.384 . S
C554 H545 0.929 . S
C554 C546 1.378 . S
C554 C549 1.350 . S
C555 H542 0.929 . S
C555 C547 1.433 1_556 S
C555 N557 1.384 . S
N556 C552 1.427 . S
N556 C553 1.384 . S
N557 C549 1.427 1_556 S
N557 C555 1.384 . S
H558 C564 0.930 . S
H559 C568 0.930 . S
H560 C573 0.929 . S
H561 C571 0.929 . S
H562 C566 0.929 . S
H563 C572 0.929 . S
C564 H558 0.930 . S
C564 C565 1.367 . S
C564 C572 1.378 . S
C565 C564 1.367 . S
C565 C573 1.433 . S
C566 H562 0.929 . S
C566 C568 1.378 . S
C566 C570 1.350 . S
C567 C570 1.463 1_455 S
C567 C572 1.350 . S
C567 N575 1.427 . S
C568 H559 0.930 . S
C568 C566 1.378 . S
C568 C569 1.367 . S
C569 C568 1.367 . S
C569 C571 1.433 . S
C570 C566 1.350 . S
C570 C567 1.463 1_655 S
C570 N574 1.427 . S
C571 H561 0.929 . S
C571 C569 1.433 . S
C571 N574 1.384 . S
C572 H563 0.929 . S
C572 C564 1.378 . S
C572 C567 1.350 . S
C573 H560 0.929 . S
C573 C565 1.433 . S
C573 N575 1.384 . S
N574 C570 1.427 . S
N574 C571 1.384 . S
N575 C567 1.427 . S
N575 C573 1.384 . S
C295 C183 1.507 . S
C299 C3 1.504 . S
C313 C147 1.507 . S
C317 C39 1.504 . S
C331 C255 1.506 . S
C335 C75 1.504 . S
C349 C219 1.506 . S
C353 C111 1.504 . S
C367 C14 1.379 . S
C371 C86 1.371 . S
C385 C50 1.379 . S
C389 C122 1.372 . S
C403 C38 1.356 . S
C407 C110 1.359 . S
C421 C2 1.357 . S
C425 C74 1.360 . S
C439 C158 1.379 . S
C443 C230 1.372 . S
C457 C266 1.379 . S
C461 C194 1.371 . S
C475 C254 1.359 . S
C479 C182 1.356 . S
C493 C146 1.352 . S
C497 C218 1.349 . S
C511 C40 1.501 . S
C515 C4 1.500 . S
C529 C76 1.501 . S
C533 C112 1.502 . S
C547 C148 1.502 . S
C551 C184 1.501 . S
C565 C220 1.502 . S
C569 C256 1.501 . S
