# Generated by pormake.
# Topology wme, (6)-cn, num edge types: 1
# Building blocks:
#     Node 0, Type 0, BuildingBlock: HISSIN_clean_sbu_0, # of connection points: 6
#     Node 1, Type 0, BuildingBlock: HISSIN_clean_sbu_0, # of connection points: 6
#     Node 2, Type 0, BuildingBlock: HISSIN_clean_sbu_0, # of connection points: 6
#     Node 3, Type 0, BuildingBlock: HISSIN_clean_sbu_0, # of connection points: 6
#     Node 4, Type 0, BuildingBlock: HISSIN_clean_sbu_0, # of connection points: 6
#     Node 5, Type 0, BuildingBlock: HISSIN_clean_sbu_0, # of connection points: 6
#     Node 6, Type 0, BuildingBlock: HISSIN_clean_sbu_0, # of connection points: 6
#     Node 7, Type 0, BuildingBlock: HISSIN_clean_sbu_0, # of connection points: 6
#     Node 8, Type 0, BuildingBlock: HISSIN_clean_sbu_0, # of connection points: 6
#     Node 9, Type 0, BuildingBlock: HISSIN_clean_sbu_0, # of connection points: 6
#     Node 10, Type 0, BuildingBlock: HISSIN_clean_sbu_0, # of connection points: 6
#     Node 11, Type 0, BuildingBlock: HISSIN_clean_sbu_0, # of connection points: 6
#     Edge 12, Type (0, 0), BuildingBlock: OJICUG_clean_linker_0, # of connection points: 2
#     Edge 13, Type (0, 0), BuildingBlock: OJICUG_clean_linker_0, # of connection points: 2
#     Edge 14, Type (0, 0), BuildingBlock: OJICUG_clean_linker_0, # of connection points: 2
#     Edge 15, Type (0, 0), BuildingBlock: OJICUG_clean_linker_0, # of connection points: 2
#     Edge 16, Type (0, 0), BuildingBlock: OJICUG_clean_linker_0, # of connection points: 2
#     Edge 17, Type (0, 0), BuildingBlock: OJICUG_clean_linker_0, # of connection points: 2
#     Edge 18, Type (0, 0), BuildingBlock: OJICUG_clean_linker_0, # of connection points: 2
#     Edge 19, Type (0, 0), BuildingBlock: OJICUG_clean_linker_0, # of connection points: 2
#     Edge 20, Type (0, 0), BuildingBlock: OJICUG_clean_linker_0, # of connection points: 2
#     Edge 21, Type (0, 0), BuildingBlock: OJICUG_clean_linker_0, # of connection points: 2
#     Edge 22, Type (0, 0), BuildingBlock: OJICUG_clean_linker_0, # of connection points: 2
#     Edge 23, Type (0, 0), BuildingBlock: OJICUG_clean_linker_0, # of connection points: 2
#     Edge 24, Type (0, 0), BuildingBlock: OJICUG_clean_linker_0, # of connection points: 2
#     Edge 25, Type (0, 0), BuildingBlock: OJICUG_clean_linker_0, # of connection points: 2
#     Edge 26, Type (0, 0), BuildingBlock: OJICUG_clean_linker_0, # of connection points: 2
#     Edge 27, Type (0, 0), BuildingBlock: OJICUG_clean_linker_0, # of connection points: 2
#     Edge 28, Type (0, 0), BuildingBlock: OJICUG_clean_linker_0, # of connection points: 2
#     Edge 29, Type (0, 0), BuildingBlock: OJICUG_clean_linker_0, # of connection points: 2
#     Edge 30, Type (0, 0), BuildingBlock: OJICUG_clean_linker_0, # of connection points: 2
#     Edge 31, Type (0, 0), BuildingBlock: OJICUG_clean_linker_0, # of connection points: 2
#     Edge 32, Type (0, 0), BuildingBlock: OJICUG_clean_linker_0, # of connection points: 2
#     Edge 33, Type (0, 0), BuildingBlock: OJICUG_clean_linker_0, # of connection points: 2
#     Edge 34, Type (0, 0), BuildingBlock: OJICUG_clean_linker_0, # of connection points: 2
#     Edge 35, Type (0, 0), BuildingBlock: OJICUG_clean_linker_0, # of connection points: 2
#     Edge 36, Type (0, 0), BuildingBlock: OJICUG_clean_linker_0, # of connection points: 2
#     Edge 37, Type (0, 0), BuildingBlock: OJICUG_clean_linker_0, # of connection points: 2
#     Edge 38, Type (0, 0), BuildingBlock: OJICUG_clean_linker_0, # of connection points: 2
#     Edge 39, Type (0, 0), BuildingBlock: OJICUG_clean_linker_0, # of connection points: 2
#     Edge 40, Type (0, 0), BuildingBlock: OJICUG_clean_linker_0, # of connection points: 2
#     Edge 41, Type (0, 0), BuildingBlock: OJICUG_clean_linker_0, # of connection points: 2
#     Edge 42, Type (0, 0), BuildingBlock: OJICUG_clean_linker_0, # of connection points: 2
#     Edge 43, Type (0, 0), BuildingBlock: OJICUG_clean_linker_0, # of connection points: 2
#     Edge 44, Type (0, 0), BuildingBlock: OJICUG_clean_linker_0, # of connection points: 2
#     Edge 45, Type (0, 0), BuildingBlock: OJICUG_clean_linker_0, # of connection points: 2
#     Edge 46, Type (0, 0), BuildingBlock: OJICUG_clean_linker_0, # of connection points: 2
#     Edge 47, Type (0, 0), BuildingBlock: OJICUG_clean_linker_0, # of connection points: 2
# Relax obj value: 0.096
# Max RMSD: 0.209
# Mean RMSD: 0.209
data_MOF--net-wme--node1-HISSIN_clean_sbu_0--edge1-OJICUG_clean_linker_0
_symmetry_space_group_name_H-M    P1
_symmetry_Int_Tables_number       1
_symmetry_cell_setting            triclinic
loop_
_symmetry_equiv_pos_as_xyz
'x, y, z'
_cell_length_a     31.745769
_cell_length_b     31.733542
_cell_length_c     38.11998
_cell_angle_alpha  90.184552
_cell_angle_beta   89.789558
_cell_angle_gamma 120.15631
loop_
_atom_site_label
_atom_site_type_symbol
_atom_site_fract_x
_atom_site_fract_y
_atom_site_fract_z
_atom_type_partial_charge
Eu0 Eu 0.24022 0.3903 0.09521 0.0
Eu1 Eu 0.28589 0.33052 0.13522 0.0
C2 C 0.25948 0.39849 0.17937 0.0
C3 C 0.1939 0.47841 0.07171 0.0
C4 C 0.15675 0.47454 0.09418 0.0
C5 C 0.2177 0.56299 0.06075 0.0
C6 C 0.15057 0.51471 0.10015 0.0
C7 C 0.22372 0.52289 0.05465 0.0
C8 C 0.18144 0.55957 0.08386 0.0
C9 C 0.20077 0.43614 0.06496 0.0
O10 O 0.20443 0.28996 0.1455 0.0
O11 O 0.18243 0.31136 0.09469 0.0
C12 C 0.17099 0.28338 0.12241 0.0
O13 O 0.27876 0.3682 0.05503 0.0
O14 O 0.28955 0.28812 0.17881 0.0
O15 O 0.33338 0.29922 0.13225 0.0
O16 O 0.25916 0.29733 0.08243 0.0
C17 C 0.27364 0.32449 0.05446 0.0
O18 O 0.31271 0.44806 0.11485 0.0
O19 O 0.35024 0.40228 0.1156 0.0
O20 O 0.29189 0.38486 0.17508 0.0
O21 O 0.24494 0.44516 0.05825 0.0
O22 O 0.17696 0.39807 0.08504 0.0
O23 O 0.23023 0.39547 0.15375 0.0
C24 C 0.2981 0.2219 0.1589 0.0
C25 C 0.33085 0.20523 0.15278 0.0
C26 C 0.23076 0.13826 0.15488 0.0
C27 C 0.31374 0.15562 0.14723 0.0
C28 C 0.24786 0.18795 0.16009 0.0
C29 C 0.26347 0.12163 0.14786 0.0
C30 C 0.31645 0.27479 0.16137 0.0
C31 C 0.35236 0.44496 0.11462 0.0
H32 H 0.1326 0.4406 0.1074 0.0
H33 H 0.24155 0.59686 0.04731 0.0
H34 H 0.12246 0.51101 0.11818 0.0
H35 H 0.25195 0.52681 0.03664 0.0
H36 H 0.36967 0.23076 0.15157 0.0
H37 H 0.19184 0.11306 0.15518 0.0
H38 H 0.33986 0.14384 0.14223 0.0
H39 H 0.22169 0.19989 0.16429 0.0
Eu40 Eu 0.87018 0.2221 0.5945 0.0
Eu41 Eu 0.97808 0.26556 0.63159 0.0
C42 C 0.88662 0.24195 0.67831 0.0
C43 C 0.73285 0.17154 0.57572 0.0
C44 C 0.72274 0.19267 0.60461 0.0
C45 C 0.64617 0.12487 0.56285 0.0
C46 C 0.67452 0.18033 0.61229 0.0
C47 C 0.69415 0.13721 0.55523 0.0
C48 C 0.63562 0.14667 0.59119 0.0
C49 C 0.78296 0.18344 0.5667 0.0
O50 O 0.93553 0.1841 0.64196 0.0
O51 O 0.88874 0.16252 0.59264 0.0
C52 C 0.90642 0.1507 0.61944 0.0
O53 O 0.92956 0.26029 0.55301 0.0
O54 O 1.02544 0.26802 0.67392 0.0
O55 O 0.05713 0.3104 0.62678 0.0
O56 O 0.97993 0.23791 0.57811 0.0
C57 C 0.96766 0.25437 0.55112 0.0
O58 O 0.88829 0.29492 0.61566 0.0
O59 O 0.97168 0.33096 0.6133 0.0
O60 O 0.93271 0.27373 0.67288 0.0
O61 O 0.81619 0.22932 0.56347 0.0
O62 O 0.79934 0.15855 0.58295 0.0
O63 O 0.85863 0.21226 0.65335 0.0
C64 C 0.09887 0.27498 0.65356 0.0
C65 C 0.08813 0.23509 0.63173 0.0
C66 C 0.17416 0.27843 0.67081 0.0
C67 C 0.12041 0.21721 0.62925 0.0
C68 C 0.14187 0.29627 0.67324 0.0
C69 C 0.16409 0.2389 0.64857 0.0
C70 C 0.06532 0.29432 0.65598 0.0
C71 C 0.93161 0.33399 0.61439 0.0
H72 H 0.7521 0.21894 0.62099 0.0
H73 H 0.61724 0.09826 0.54636 0.0
H74 H 0.66787 0.19816 0.63412 0.0
H75 H 0.70107 0.11997 0.53312 0.0
H76 H 0.05494 0.21804 0.6164 0.0
H77 H 0.20698 0.29555 0.68651 0.0
H78 H 0.11166 0.18712 0.6116 0.0
H79 H 0.15059 0.32682 0.69044 0.0
Eu80 Eu 0.69781 0.85661 0.09354 0.0
Eu81 Eu 0.75696 0.96315 0.13304 0.0
C82 C 0.68657 0.87039 0.17677 0.0
C83 C 0.60989 0.72189 0.07409 0.0
C84 C 0.58399 0.71564 0.10536 0.0
C85 C 0.55688 0.63589 0.06075 0.0
C86 C 0.54457 0.66991 0.11416 0.0
C87 C 0.5963 0.6817 0.05198 0.0
C88 C 0.53025 0.62946 0.09185 0.0
C89 C 0.65183 0.76974 0.06485 0.0
O90 O 0.7966 0.92154 0.14404 0.0
O91 O 0.77693 0.87912 0.09267 0.0
C92 C 0.80451 0.8958 0.12055 0.0
O93 O 0.72104 0.91661 0.0527 0.0
O94 O 0.79783 1.00879 0.17741 0.0
O95 O 0.78958 0.04225 0.13034 0.0
O96 O 0.79075 0.96965 0.08064 0.0
C97 C 0.76373 0.95705 0.05265 0.0
O98 O 0.63987 0.87253 0.11065 0.0
O99 O 0.68617 0.95611 0.11181 0.0
O100 O 0.69948 0.91596 0.1712 0.0
O101 O 0.64251 0.8044 0.05754 0.0
O102 O 0.68993 0.78504 0.08494 0.0
O103 O 0.69194 0.84378 0.15244 0.0
C104 C 0.8657 0.08318 0.15864 0.0
C105 C 0.88364 0.13305 0.15345 0.0
C106 C 0.94868 0.09785 0.15561 0.0
C107 C 0.93359 0.165 0.14885 0.0
C108 C 0.89866 0.06582 0.15987 0.0
C109 C 0.96661 0.14767 0.14951 0.0
C110 C 0.8126 0.04929 0.16004 0.0
C111 C 0.64338 0.9155 0.10999 0.0
H112 H 0.59429 0.74617 0.12296 0.0
H113 H 0.54654 0.60579 0.04276 0.0
H114 H 0.52533 0.66622 0.1385 0.0
H115 H 0.61605 0.68581 0.0278 0.0
H116 H 0.85887 0.14714 0.15221 0.0
H117 H 0.97314 0.08335 0.15589 0.0
H118 H 0.94639 0.20329 0.14453 0.0
H119 H 0.8857 1.02734 0.16334 0.0
Eu120 Eu 0.84902 0.67011 0.59534 0.0
Eu121 Eu 0.80534 0.73274 0.63471 0.0
C122 C 0.83127 0.66558 0.67989 0.0
C123 C 0.89501 0.58067 0.57471 0.0
C124 C 0.94301 0.5898 0.57798 0.0
C125 C 0.86543 0.49517 0.58758 0.0
C126 C 0.95217 0.55213 0.58627 0.0
C127 C 0.8563 0.53284 0.57948 0.0
C128 C 0.91349 0.50427 0.59134 0.0
C129 C 0.88635 0.62128 0.56594 0.0
O130 O 0.88645 0.77199 0.64583 0.0
O131 O 0.91007 0.748 0.59654 0.0
C132 C 0.92068 0.77677 0.62389 0.0
O133 O 0.81267 0.69429 0.55485 0.0
O134 O 0.80126 0.77655 0.67739 0.0
O135 O 0.76025 0.76653 0.62968 0.0
O136 O 0.83627 0.76567 0.58267 0.0
C137 C 0.81998 0.7389 0.55461 0.0
O138 O 0.77636 0.61426 0.6165 0.0
O139 O 0.74019 0.66122 0.61524 0.0
O140 O 0.79944 0.67999 0.67572 0.0
O141 O 0.84154 0.61127 0.56101 0.0
O142 O 0.91172 0.66164 0.58348 0.0
O143 O 0.85927 0.66637 0.65391 0.0
C144 C 0.79671 0.84432 0.65605 0.0
C145 C 0.84733 0.87671 0.65637 0.0
C146 C 0.78426 0.91286 0.6456 0.0
C147 C 0.86621 0.92677 0.65143 0.0
C148 C 0.7654 0.86289 0.65085 0.0
C149 C 0.83491 0.94538 0.64557 0.0
C150 C 0.77639 0.79109 0.65886 0.0
C151 C 0.73715 0.61811 0.61559 0.0
H152 H 0.9736 0.62628 0.57424 0.0
H153 H 0.83463 0.45867 0.59048 0.0
H154 H 0.98958 0.56072 0.58916 0.0
H155 H 0.81888 0.52436 0.5769 0.0
H156 H 0.87238 0.86326 0.65982 0.0
H157 H 0.75914 0.92608 0.64152 0.0
H158 H 0.90536 0.95074 0.65118 0.0
H159 H 0.7263 0.83859 0.65032 0.0
Eu160 Eu 0.23293 0.84905 0.08764 0.0
Eu161 Eu 0.12739 0.80331 0.12887 0.0
C162 C 0.22166 0.82697 0.17172 0.0
C163 C 0.36687 0.89452 0.06712 0.0
C164 C 0.37308 0.87567 0.09866 0.0
C165 C 0.45296 0.92778 0.05403 0.0
C166 C 0.4188 0.88245 0.10769 0.0
C167 C 0.40714 0.92091 0.04502 0.0
C168 C 0.45932 0.90828 0.08537 0.0
C169 C 0.31896 0.8881 0.0577 0.0
O170 O 0.17024 0.88443 0.14024 0.0
O171 O 0.21338 0.90786 0.08908 0.0
C172 C 0.19708 0.91851 0.11741 0.0
O173 O 0.1716 0.81064 0.04784 0.0
O174 O 0.0815 0.80303 0.17191 0.0
O175 O 1.04861 0.75513 0.12729 0.0
O176 O 0.12215 0.83143 0.0765 0.0
C177 C 0.13292 0.81562 0.04828 0.0
O178 O 0.21739 0.77649 0.10689 0.0
O179 O 0.13393 0.73851 0.10914 0.0
O180 O 0.17512 0.79553 0.16794 0.0
O181 O 0.28395 0.8436 0.0517 0.0
O182 O 0.30425 0.91233 0.07688 0.0
O183 O 0.24796 0.85685 0.14623 0.0
C184 C 1.00766 0.79375 0.15075 0.0
C185 C 1.0094 0.81895 0.12005 0.0
C186 C 0.94391 0.80774 0.17342 0.0
C187 C 0.9783 0.83778 0.11586 0.0
C188 C 0.97498 0.78862 0.17752 0.0
C189 C 0.94494 0.83219 0.14237 0.0
C190 C 1.04115 0.77459 0.15518 0.0
C191 C 0.17461 0.7367 0.10711 0.0
H192 H 0.34253 0.85567 0.11629 0.0
H193 H 0.48311 0.94732 0.03603 0.0
H194 H 0.42242 0.86747 0.13223 0.0
H195 H 0.40309 0.93601 0.02066 0.0
H196 H 1.03485 0.8241 0.09922 0.0
H197 H 0.91841 0.8025 0.19423 0.0
H198 H 0.9806 0.85703 0.09187 0.0
H199 H 0.97341 0.76972 0.20155 0.0
Eu200 Eu 0.40578 0.19928 0.59685 0.0
Eu201 Eu 0.33873 0.09513 0.641 0.0
C202 C 0.4205 0.19156 0.681 0.0
C203 C 0.4924 0.33385 0.57533 0.0
C204 C 0.50789 0.34602 0.61024 0.0
C205 C 0.54506 0.41897 0.55904 0.0
C206 C 0.54263 0.39397 0.61929 0.0
C207 C 0.51048 0.37087 0.54997 0.0
C208 C 0.56252 0.43089 0.59366 0.0
C209 C 0.46084 0.28237 0.56473 0.0
O210 O 0.29158 0.12796 0.62739 0.0
O211 O 0.35113 0.20773 0.62879 0.0
C212 C 0.30511 0.17427 0.63096 0.0
O213 O 0.34986 0.1454 0.55787 0.0
O214 O 0.28898 0.05696 0.68421 0.0
O215 O 0.30538 1.016 0.64648 0.0
O216 O 0.33224 0.07377 0.58515 0.0
C217 C 0.33044 0.09746 0.55782 0.0
O218 O 0.4359 0.14982 0.58664 0.0
O219 O 0.41618 0.10783 0.63846 0.0
O220 O 0.38199 0.14795 0.68269 0.0
O221 O 0.47567 0.25261 0.57446 0.0
O222 O 0.41388 0.26333 0.56887 0.0
O223 O 0.43756 0.21623 0.65164 0.0
C224 C 0.22397 0.97956 0.667 0.0
C225 C 0.20677 0.92957 0.66288 0.0
C226 C 0.14116 0.9639 0.65882 0.0
C227 C 0.15734 0.89709 0.6564 0.0
C228 C 0.19063 0.99642 0.66496 0.0
C229 C 0.12399 0.91391 0.65414 0.0
C230 C 0.27673 1.01385 0.67193 0.0
C231 C 0.44489 0.12615 0.61084 0.0
H232 H 0.4943 0.31811 0.63031 0.0
H233 H 0.55986 0.4463 0.53859 0.0
H234 H 0.55482 0.40194 0.64625 0.0
H235 H 0.49914 0.36226 0.52287 0.0
H236 H 0.23171 0.9157 0.66428 0.0
H237 H 0.11654 0.97809 0.65684 0.0
H238 H 0.14516 0.85872 0.65326 0.0
H239 H 0.20278 0.03485 0.66763 0.0
Eu240 Eu 0.68739 0.8506 0.40444 0.0
Eu241 Eu 0.75106 0.80549 0.36938 0.0
C242 C 0.68331 0.82609 0.32131 0.0
C243 C 0.6007 0.90065 0.41693 0.0
C244 C 0.57103 0.87476 0.38841 0.0
C245 C 0.55809 0.94631 0.42156 0.0
C246 C 0.53458 0.88403 0.37692 0.0
C247 C 0.59436 0.93684 0.43312 0.0
C248 C 0.52732 0.91961 0.39358 0.0
C249 C 0.63949 0.89166 0.42925 0.0
O250 O 0.78991 0.88658 0.35731 0.0
O251 O 0.76613 0.90886 0.407 0.0
C252 C 0.79539 0.92032 0.37995 0.0
O253 O 0.7069 0.81328 0.44728 0.0
O254 O 0.79417 0.80001 0.32691 0.0
O255 O 0.78725 0.76282 0.37611 0.0
O256 O 0.7799 0.83409 0.42273 0.0
C257 C 0.75066 0.81863 0.44964 0.0
O258 O 0.63172 0.77663 0.38565 0.0
O259 O 0.67875 0.74039 0.38806 0.0
O260 O 0.69703 0.7944 0.32817 0.0
O261 O 0.62742 0.84653 0.43561 0.0
O262 O 0.68079 0.91513 0.41253 0.0
O263 O 0.68563 0.85737 0.34521 0.0
C264 C 0.86362 0.7979 0.34728 0.0
C265 C 0.88264 0.76775 0.35549 0.0
C266 C 0.94643 0.86678 0.34242 0.0
C267 C 0.93301 0.78679 0.35713 0.0
C268 C 0.89595 0.84773 0.34103 0.0
C269 C 0.96567 0.8365 0.35032 0.0
C270 C 0.81023 0.77709 0.34615 0.0
C271 C 0.63565 0.73748 0.38735 0.0
H272 H 0.57589 0.84722 0.37516 0.0
H273 H 0.55314 0.97347 0.43526 0.0
H274 H 0.51186 0.86312 0.35509 0.0
H275 H 0.61725 0.95755 0.45496 0.0
H276 H 0.85845 0.72939 0.36083 0.0
H277 H 0.97032 0.90507 0.33678 0.0
H278 H 0.94632 0.7625 0.36409 0.0
H279 H 0.88226 0.87201 0.33498 0.0
Eu280 Eu 0.87954 0.67084 0.9061 0.0
Eu281 Eu 0.98459 0.73206 0.86489 0.0
C282 C 0.88952 0.66576 0.82138 0.0
C283 C 0.74458 0.58172 0.92752 0.0
C284 C 0.73613 0.53417 0.92282 0.0
C285 C 0.6587 0.55188 0.91523 0.0
C286 C 0.68957 0.49599 0.91437 0.0
C287 C 0.70528 0.59005 0.9239 0.0
C288 C 0.65022 0.50431 0.91013 0.0
C289 C 0.79374 0.62292 0.93615 0.0
O290 O 0.94297 0.7721 0.85659 0.0
O291 O 0.9001 0.74955 0.90788 0.0
C292 C 0.9164 0.77815 0.88043 0.0
O293 O 0.9411 0.69328 0.94562 0.0
O294 O 1.03024 0.77888 0.82226 0.0
O295 O 0.0631 0.76117 0.86523 0.0
O296 O 0.99157 0.76444 0.91801 0.0
C297 C 0.97984 0.73713 0.94583 0.0
O298 O 0.89439 0.6142 0.88427 0.0
O299 O 0.97778 0.66035 0.88355 0.0
O300 O 0.93554 0.67874 0.82486 0.0
O301 O 0.8288 0.61345 0.94153 0.0
O302 O 0.80848 0.66267 0.91799 0.0
O303 O 0.86386 0.66824 0.84779 0.0
C304 C 0.10527 0.84172 0.84362 0.0
C305 C 0.10535 0.8642 0.87544 0.0
C306 C 0.16879 0.92012 0.82162 0.0
C307 C 0.13715 0.91401 0.88046 0.0
C308 C 0.13701 0.87005 0.81668 0.0
C309 C 0.1694 0.94261 0.85368 0.0
C310 C 0.07067 0.78935 0.83819 0.0
C311 C 0.93723 0.61751 0.88418 0.0
H312 H 0.76544 0.52631 0.92562 0.0
H313 H 0.62955 0.55986 0.91199 0.0
H314 H 0.6844 0.45973 0.9115 0.0
H315 H 0.7107 0.62632 0.92753 0.0
H316 H 0.08064 0.84328 0.89646 0.0
H317 H 0.19339 0.94105 0.80057 0.0
H318 H 0.1361 0.93026 0.90524 0.0
H319 H 0.13718 0.85348 0.79183 0.0
Eu320 Eu 0.24179 0.87339 0.39534 0.0
Eu321 Eu 0.28563 0.97954 0.35367 0.0
C322 C 0.26821 0.88269 0.31192 0.0
C323 C 0.19558 0.73894 0.41908 0.0
C324 C 0.14862 0.70114 0.41005 0.0
C325 C 0.22471 0.68121 0.41402 0.0
C326 C 0.13993 0.654 0.40275 0.0
C327 C 0.23337 0.72815 0.42125 0.0
C328 C 0.17799 0.64348 0.40438 0.0
C329 C 0.20472 0.78882 0.42725 0.0
O330 O 0.20593 0.94903 0.36868 0.0
O331 O 0.18379 0.87001 0.36059 0.0
C332 C 0.17234 0.90408 0.36124 0.0
O333 O 0.24217 0.92942 0.4337 0.0
O334 O 0.27362 1.02056 0.31288 0.0
O335 O 0.33313 0.05835 0.34944 0.0
O336 O 0.30631 0.99672 0.40928 0.0
C337 C 0.27628 0.97588 0.43525 0.0
O338 O 0.32275 0.9061 0.39573 0.0
O339 O 0.35005 0.96662 0.35345 0.0
O340 O 0.27609 0.92743 0.31107 0.0
O341 O 0.24995 0.82357 0.43028 0.0
O342 O 0.17858 0.80363 0.41081 0.0
O343 O 0.25735 0.85629 0.34073 0.0
C344 C 0.28887 0.09684 0.33338 0.0
C345 C 0.26786 0.09539 0.36617 0.0
C346 C 0.2721 0.16024 0.3149 0.0
C347 C 0.24952 0.1264 0.37339 0.0
C348 C 0.29073 0.12934 0.30777 0.0
C349 C 0.25135 0.15921 0.34785 0.0
C350 C 0.30636 0.06271 0.32542 0.0
C351 C 0.35664 0.93732 0.37443 0.0
H352 H 0.11854 0.70803 0.40855 0.0
H353 H 0.25476 0.67441 0.41643 0.0
H354 H 0.10355 0.62601 0.39534 0.0
H355 H 0.26984 0.75595 0.42868 0.0
H356 H 0.26525 0.06992 0.38611 0.0
H357 H 0.27447 0.18535 0.29477 0.0
H358 H 0.23318 0.12412 0.39882 0.0
H359 H 0.30638 0.13066 0.28221 0.0
Eu360 Eu 0.41251 0.21993 0.90459 0.0
Eu361 Eu 0.34929 0.26165 0.86564 0.0
C362 C 0.42215 0.24298 0.82083 0.0
C363 C 0.50103 0.17479 0.92061 0.0
C364 C 0.5298 0.20078 0.89172 0.0
C365 C 0.54687 0.13263 0.9255 0.0
C366 C 0.56737 0.19327 0.88012 0.0
C367 C 0.50945 0.14036 0.93718 0.0
C368 C 0.57656 0.15934 0.89703 0.0
C369 C 0.46063 0.18148 0.93238 0.0
O370 O 0.31385 0.18085 0.8539 0.0
O371 O 0.33424 0.16016 0.90542 0.0
C372 C 0.30697 0.14777 0.87733 0.0
O373 O 0.39028 0.25732 0.94557 0.0
O374 O 0.29959 0.25747 0.82438 0.0
O375 O 0.3172 0.30834 0.86745 0.0
O376 O 0.31831 0.23476 0.91899 0.0
C377 C 0.34612 0.25099 0.94656 0.0
O378 O 0.46833 0.29357 0.88542 0.0
O379 O 0.41993 0.32834 0.88446 0.0
O380 O 0.40483 0.27246 0.82519 0.0
O381 O 0.4708 0.22615 0.93846 0.0
O382 O 0.42027 0.15668 0.91486 0.0
O383 O 0.41965 0.21315 0.84587 0.0
C384 C 0.23476 0.26512 0.84829 0.0
C385 C 0.21745 0.26501 0.88235 0.0
C386 C 0.1508 0.22229 0.82747 0.0
C387 C 0.16758 0.24447 0.88875 0.0
C388 C 0.20087 0.24331 0.82096 0.0
C389 C 0.13369 0.22312 0.86139 0.0
C390 C 0.28756 0.28562 0.84145 0.0
C391 C 0.46334 0.33212 0.8853 0.0
H392 H 0.52321 0.2269 0.87818 0.0
H393 H 0.55343 0.10675 0.93937 0.0
H394 H 0.58933 0.2141 0.85796 0.0
H395 H 0.48719 0.11959 0.95927 0.0
H396 H 0.24235 0.28075 0.9042 0.0
H397 H 0.12556 0.20658 0.8058 0.0
H398 H 0.15546 0.24534 0.91521 0.0
H399 H 0.21316 0.24256 0.79453 0.0
Eu400 Eu 0.21823 0.4003 0.4061 0.0
Eu401 Eu 0.11261 0.33904 0.36604 0.0
C402 C 0.20664 0.40554 0.32143 0.0
C403 C 0.35333 0.48748 0.4267 0.0
C404 C 0.36319 0.5083 0.39312 0.0
C405 C 0.43838 0.54096 0.44239 0.0
C406 C 0.41023 0.54548 0.38433 0.0
C407 C 0.39128 0.50377 0.45115 0.0
C408 C 0.44843 0.56264 0.40895 0.0
C409 C 0.30409 0.44785 0.43613 0.0
O410 O 0.1553 0.30072 0.35486 0.0
O411 O 0.19908 0.32177 0.40558 0.0
C412 C 0.18248 0.29413 0.37759 0.0
O413 O 0.15703 0.37747 0.44633 0.0
O414 O 0.06595 0.292 0.32388 0.0
O415 O 1.03386 0.3082 0.36844 0.0
O416 O 0.10815 0.30632 0.41851 0.0
C417 C 0.11882 0.33327 0.4465 0.0
O418 O 0.20331 0.45697 0.38472 0.0
O419 O 0.11979 0.41132 0.38434 0.0
O420 O 0.16056 0.39213 0.32555 0.0
O421 O 0.27027 0.45944 0.43997 0.0
O422 O 0.28842 0.40731 0.41872 0.0
O423 O 0.23309 0.40376 0.34745 0.0
C424 C 0.99271 0.2275 0.34654 0.0
C425 C 0.99314 0.20559 0.37841 0.0
C426 C 0.93175 0.14788 0.32436 0.0
C427 C 0.96282 0.15549 0.38336 0.0
C428 C 0.96202 0.19823 0.31948 0.0
C429 C 0.93158 0.12597 0.35648 0.0
C430 C 1.02593 0.28025 0.34109 0.0
C431 C 0.1606 0.45401 0.38456 0.0
H432 H 0.33448 0.49582 0.37373 0.0
H433 H 0.46659 0.5536 0.46215 0.0
H434 H 0.41667 0.56084 0.35821 0.0
H435 H 0.38443 0.48792 0.47714 0.0
H436 H 1.01708 0.22718 0.39954 0.0
H437 H 0.90788 0.12627 0.30322 0.0
H438 H 0.96419 0.13977 0.40821 0.0
H439 H 0.9615 0.2143 0.29457 0.0
Eu440 Eu 0.86321 0.2048 0.90561 0.0
Eu441 Eu 0.81536 0.09544 0.86822 0.0
C442 C 0.84459 0.19079 0.82105 0.0
C443 C 0.91174 0.33919 0.92604 0.0
C444 C 0.89527 0.34628 0.8937 0.0
C445 C 0.94564 0.42535 0.93926 0.0
C446 C 0.90344 0.39244 0.88437 0.0
C447 C 0.93737 0.37908 0.94858 0.0
C448 C 0.92828 0.43252 0.90719 0.0
C449 C 0.90263 0.2905 0.9362 0.0
O450 O 0.894 0.12058 0.88331 0.0
O451 O 0.92372 0.20225 0.87813 0.0
C452 C 0.93077 0.1652 0.87926 0.0
O453 O 0.85371 0.14708 0.9457 0.0
O454 O 0.80532 0.04362 0.82662 0.0
O455 O 0.77549 1.01722 0.87832 0.0
O456 O 0.78357 0.09213 0.92064 0.0
C457 C 0.81227 0.10561 0.94753 0.0
O458 O 0.78449 0.18126 0.89773 0.0
O459 O 0.75377 0.11177 0.86295 0.0
O460 O 0.83406 0.1452 0.82267 0.0
O461 O 0.85716 0.25669 0.94019 0.0
O462 O 0.92731 0.27451 0.91901 0.0
O463 O 0.85437 0.21932 0.84873 0.0
C464 C 0.80589 0.97367 0.848 0.0
C465 C 0.85635 0.99231 0.84491 0.0
C466 C 0.79459 0.89322 0.85869 0.0
C467 C 0.87578 0.96152 0.84879 0.0
C468 C 0.7752 0.92387 0.85452 0.0
C469 C 0.84515 0.91178 0.85632 0.0
C470 C 0.78511 1.00606 0.84757 0.0
C471 C 0.74971 0.14681 0.87864 0.0
H472 H 0.87579 0.31601 0.87577 0.0
H473 H 0.96436 0.45516 0.95764 0.0
H474 H 0.89009 0.39669 0.8593 0.0
H475 H 0.95054 0.37434 0.9736 0.0
H476 H 0.88082 1.03081 0.84036 0.0
H477 H 0.77001 0.85496 0.86406 0.0
H478 H 0.91487 0.97694 0.84711 0.0
H479 H 0.73625 0.90885 0.85721 0.0
C480 C 0.19225 0.98307 0.15287 0.0
C481 C 0.21204 0.97017 0.12454 0.0
H482 H 0.19299 0.04108 0.18252 0.0
C483 C 0.24812 1.00745 0.10373 0.0
H484 H 0.16445 0.95528 0.16945 0.0
C485 C 0.26466 0.05639 0.11139 0.0
C486 C 0.24528 0.06937 0.13987 0.0
H487 H 0.26429 0.99897 0.08174 0.0
H488 H 0.29249 0.08415 0.09481 0.0
C489 C 0.20851 1.03218 0.16033 0.0
C490 C 0.28382 0.23975 0.63932 0.0
C491 C 0.26847 0.18988 0.63619 0.0
H492 H 0.26337 0.29411 0.64508 0.0
C493 C 0.21827 0.15591 0.63759 0.0
H494 H 0.32212 0.2671 0.63826 0.0
C495 C 0.18431 0.17159 0.64176 0.0
C496 C 0.1998 0.22158 0.64472 0.0
H497 H 0.20515 0.11723 0.63536 0.0
H498 H 0.14594 0.14451 0.64295 0.0
C499 C 0.25003 0.25534 0.64349 0.0
C500 C 0.05544 0.18048 0.16304 0.0
C501 C 1.01923 0.18119 0.1423 0.0
H502 H 0.13196 0.21229 0.17318 0.0
C503 C 1.0335 0.21423 0.11429 0.0
H504 H 1.04549 0.15544 0.18486 0.0
C505 C 0.08274 0.24633 0.10742 0.0
C506 C 0.11907 0.24655 0.12858 0.0
H507 H 1.00651 0.21512 0.09749 0.0
H508 H 0.09218 0.2716 0.0858 0.0
C509 C 0.10491 0.21306 0.15638 0.0
C510 C 0.89313 0.03428 0.65854 0.0
C511 C 0.85482 0.99821 0.63839 0.0
H512 H 0.9395 0.11076 0.66854 0.0
C513 C 0.83529 1.01289 0.61121 0.0
H514 H 0.90885 1.02413 0.67976 0.0
C515 C 0.85299 0.0623 0.60462 0.0
C516 C 0.89051 0.09847 0.62523 0.0
H517 H 0.80631 0.98609 0.59484 0.0
H518 H 0.83654 0.07202 0.58366 0.0
C519 C 0.91061 0.0839 0.65216 0.0
C520 C 0.88691 0.8433 0.10443 0.0
C521 C 0.91033 0.85036 0.13691 0.0
H522 H 0.83576 0.85222 0.07381 0.0
C523 C 0.89998 0.87429 0.16385 0.0
H524 H 0.89353 0.82451 0.08324 0.0
C525 C 0.86667 0.89044 0.15842 0.0
C526 C 0.84269 0.88252 0.12604 0.0
H527 H 0.91778 0.8807 0.18909 0.0
H528 H 0.85907 0.90827 0.17976 0.0
C529 C 0.85353 0.85906 0.09909 0.0
C530 C 1.00983 0.81191 0.61192 0.0
C531 C 0.97248 0.81344 0.63083 0.0
H532 H 0.08659 0.84219 0.60446 0.0
C533 C 0.98536 0.84889 0.65723 0.0
H534 H 1.00136 0.78505 0.59147 0.0
C535 C 1.03446 0.8818 0.66463 0.0
C536 C 0.07173 0.87961 0.64608 0.0
H537 H 0.95754 0.85108 0.67232 0.0
H538 H 1.04327 0.90838 0.68534 0.0
C539 C 0.05879 0.84441 0.61955 0.0
C540 C 0.10191 0.91943 0.36727 0.0
C541 C 0.12054 0.88976 0.35604 0.0
H542 H 1.03825 0.92564 0.375 0.0
C543 C 0.08841 0.84401 0.34125 0.0
H544 H 0.12573 0.95481 0.37883 0.0
C545 C 1.0387 0.82755 0.3387 0.0
C546 C 1.01941 0.85611 0.35118 0.0
H547 H 0.10158 0.82044 0.33185 0.0
H548 H 1.01532 0.79216 0.32701 0.0
C549 C 0.05178 0.90269 0.36498 0.0
C550 C 0.22871 1.01157 0.89173 0.0
C551 C 0.20397 0.99545 0.85962 0.0
H552 H 0.28021 0.07186 0.92249 0.0
C553 C 0.21255 1.03013 0.83351 0.0
H554 H 0.22343 0.98581 0.91225 0.0
C555 C 0.24523 0.07977 0.83941 0.0
C556 C 0.27028 0.09571 0.87145 0.0
H557 H 0.19369 1.01896 0.80862 0.0
H558 H 0.25124 0.10552 0.81871 0.0
C559 C 0.26147 0.06099 0.89754 0.0
C560 C 0.18747 0.23301 0.33816 0.0
C561 C 0.19748 0.25744 0.37059 0.0
H562 H 0.19645 0.18286 0.30556 0.0
C563 C 0.22435 0.24839 0.39568 0.0
H564 H 0.16698 0.23916 0.31819 0.0
C565 C 0.24132 0.21625 0.3884 0.0
C566 C 0.2321 0.19247 0.35576 0.0
H567 H 0.2329 0.26662 0.4209 0.0
H568 H 0.26267 0.21089 0.40811 0.0
C569 C 0.20473 0.20104 0.33079 0.0
C570 C 0.06763 0.23484 0.88652 0.0
C571 C 0.08116 0.20526 0.8679 0.0
H572 H 1.0097 0.24499 0.90472 0.0
C573 C 1.04435 0.16003 0.85487 0.0
H574 H 0.09502 0.26998 0.89665 0.0
C575 C 0.99492 0.14522 0.85995 0.0
C576 C 0.98179 0.17599 0.87742 0.0
H577 H 0.05382 0.13638 0.84059 0.0
H578 H 0.96719 0.11082 0.84907 0.0
C579 C 1.01868 0.22056 0.891 0.0
C580 C 0.89058 0.03812 0.33654 0.0
C581 C 0.89808 0.07286 0.3625 0.0
H582 H 0.85294 0.96254 0.32179 0.0
C583 C 0.8729 0.0566 0.39449 0.0
H584 H 0.90979 0.0494 0.31173 0.0
C585 C 0.84058 1.00709 0.40026 0.0
C586 C 0.83257 0.97232 0.37426 0.0
H587 H 0.87732 0.08232 0.41491 0.0
H588 H 0.82135 0.99621 0.42509 0.0
C589 C 0.85833 0.98833 0.34242 0.0
C590 C 0.91889 0.84776 0.84695 0.0
C591 C 0.90119 0.81494 0.87526 0.0
H592 H 0.91511 0.90424 0.81872 0.0
C593 C 0.8664 0.81566 0.89783 0.0
H594 H 0.94567 0.84816 0.82906 0.0
C595 C 0.84875 0.84737 0.89175 0.0
C596 C 0.86563 0.87949 0.8631 0.0
H597 H 0.8519 0.791 0.91993 0.0
H598 H 0.82175 0.84672 0.90956 0.0
C599 C 0.90148 0.87993 0.84105 0.0
C600 C 0.13094 0.64506 0.09852 0.0
C601 C 0.17409 0.68976 0.10391 0.0
H602 H 0.09926 0.56841 0.08781 0.0
C603 C 0.21872 0.69028 0.10441 0.0
H604 H 0.09602 0.64337 0.09798 0.0
C605 C 0.22055 0.64794 0.09847 0.0
C606 C 0.17787 0.60356 0.09195 0.0
H607 H 0.25282 0.72373 0.10887 0.0
H608 H 0.25569 0.65005 0.09886 0.0
C609 C 0.13281 0.60222 0.09272 0.0
C610 C 0.56481 0.13131 0.63095 0.0
C611 C 0.5847 0.13651 0.59701 0.0
H612 H 0.50416 0.12254 0.66214 0.0
C613 C 0.55597 0.13358 0.56811 0.0
H614 H 0.58576 0.13296 0.6538 0.0
C615 C 0.5096 0.12745 0.57289 0.0
C616 C 0.49022 0.12378 0.6067 0.0
H617 H 0.57004 0.13797 0.54163 0.0
H618 H 0.4894 0.12707 0.54992 0.0
C619 C 0.51784 0.12466 0.63574 0.0
C620 C 0.4849 0.53714 0.09376 0.0
C621 C 0.48617 0.58158 0.10006 0.0
H622 H 0.44188 0.45884 0.09392 0.0
C623 C 0.44405 0.58011 0.11316 0.0
H624 H 0.51688 0.53695 0.08399 0.0
C625 C 0.40148 0.53569 0.11888 0.0
C626 C 0.39966 0.49125 0.11179 0.0
H627 H 0.44336 0.61343 0.11793 0.0
H628 H 0.36957 0.53633 0.1283 0.0
C629 C 0.44212 0.49238 0.09975 0.0
C630 C 0.96162 0.46044 0.58527 0.0
C631 C 0.9227 0.46373 0.6004 0.0
H632 H 0.99567 0.41693 0.57823 0.0
C633 C 0.89106 0.42663 0.6234 0.0
H634 H 0.98667 0.48818 0.56732 0.0
C635 C 0.89604 0.38597 0.62928 0.0
C636 C 0.93323 0.38142 0.6128 0.0
H637 H 0.86163 0.42842 0.63643 0.0
H638 H 0.86976 0.35725 0.64612 0.0
C639 C 0.96696 0.41971 0.59155 0.0
C640 C 0.55267 0.87393 0.11358 0.0
C641 C 0.59726 0.91652 0.10647 0.0
H642 H 0.47499 0.8379 0.11229 0.0
C643 C 0.59639 0.95765 0.09387 0.0
H644 H 0.55178 0.84151 0.12343 0.0
C645 C 0.55174 0.95549 0.08742 0.0
C646 C 0.50715 0.91234 0.09384 0.0
H647 H 0.63004 0.99093 0.088 0.0
H648 H 0.55211 0.9875 0.07725 0.0
C649 C 0.50839 0.8719 0.10742 0.0
C650 C 0.64995 0.56882 0.59481 0.0
C651 C 0.6895 0.57206 0.61362 0.0
H652 H 0.57866 0.52151 0.57343 0.0
C653 C 0.68525 0.52923 0.62778 0.0
H654 H 0.65231 0.60112 0.58334 0.0
C655 C 0.64335 0.48405 0.62238 0.0
C656 C 0.60454 0.48017 0.60227 0.0
H657 H 0.71503 0.53042 0.64243 0.0
H658 H 0.64232 0.45181 0.63275 0.0
C659 C 0.60803 0.52321 0.5889 0.0
C660 C 0.44827 0.97696 0.37675 0.0
C661 C 0.4021 0.93521 0.37342 0.0
H662 H 0.52461 1.00492 0.38599 0.0
C663 C 0.3983 0.88914 0.37362 0.0
H664 H 0.45205 1.01284 0.37698 0.0
C665 C 0.43929 0.88452 0.37855 0.0
C666 C 0.48529 0.92587 0.38387 0.0
H667 H 0.36306 0.85631 0.37111 0.0
H668 H 0.43442 0.84824 0.37997 0.0
C669 C 0.48956 0.97231 0.38225 0.0
C670 C 0.55796 0.45918 0.91506 0.0
C671 C 0.60083 0.46328 0.90051 0.0
H672 H 0.4802 0.41452 0.92122 0.0
C673 C 0.59638 0.4265 0.87756 0.0
H674 H 0.55988 0.48665 0.93295 0.0
C675 C 0.55108 0.38533 0.87125 0.0
C676 C 0.50871 0.38 0.88718 0.0
H677 H 0.62814 0.42893 0.86494 0.0
H678 H 0.54938 0.35681 0.85454 0.0
C679 C 0.51224 0.41796 0.90831 0.0
C680 C 0.20585 0.58893 0.37798 0.0
C681 C 0.16982 0.59376 0.39604 0.0
H682 H 0.23068 0.54138 0.35989 0.0
C683 C 0.12751 0.55098 0.40712 0.0
H684 H 0.23822 0.6207 0.3681 0.0
C685 C 0.12277 0.50484 0.40185 0.0
C686 C 0.16036 0.50072 0.38558 0.0
H687 H 0.09901 0.55324 0.42117 0.0
H688 H 0.0909 0.47279 0.41198 0.0
C689 C 0.20131 0.54324 0.37302 0.0
C690 C 0.65837 0.10557 0.87994 0.0
C691 C 0.70397 0.1481 0.87665 0.0
H692 H 0.58177 0.0757 0.8892 0.0
C693 C 0.70645 0.19356 0.87649 0.0
H694 H 0.6556 0.07014 0.88043 0.0
C695 C 0.66464 0.19681 0.88138 0.0
C696 C 0.61932 0.15465 0.88693 0.0
H697 H 0.74121 0.22695 0.87395 0.0
H698 H 0.66834 0.23262 0.8827 0.0
C699 C 0.61635 0.10885 0.88534 0.0
C700 C 0.54083 0.60736 0.41208 0.0
C701 C 0.49752 0.60509 0.40056 0.0
H702 H 0.61894 0.65069 0.41641 0.0
C703 C 0.50115 0.64512 0.38226 0.0
H704 H 0.53942 0.57696 0.42597 0.0
C705 C 0.54633 0.68687 0.37678 0.0
C706 C 0.58945 0.68998 0.38929 0.0
H707 H 0.4688 0.64511 0.37332 0.0
H708 H 0.54726 0.71741 0.36341 0.0
C709 C 0.58643 0.64933 0.40631 0.0
C710 C 0.89601 0.52706 0.87812 0.0
C711 C 0.93821 0.57129 0.88659 0.0
H712 H 0.85977 0.44931 0.87815 0.0
C713 C 0.97865 0.56985 0.9 0.0
H714 H 0.86415 0.52671 0.86765 0.0
C715 C 0.97604 0.52493 0.90613 0.0
C716 C 0.93316 0.48066 0.89856 0.0
H717 H 1.01158 0.60325 0.90695 0.0
H718 H 1.0074 0.52483 0.91711 0.0
C719 C 0.89356 0.48249 0.88394 0.0
C720 C 0.26977 0.41586 0.27754 0.0
C721 C 0.22634 0.41543 0.28537 0.0
H722 H 0.31471 0.41138 0.23761 0.0
C723 C 0.19835 0.41776 0.2577 0.0
H724 H 0.29239 0.41457 0.29823 0.0
C725 C 0.21104 0.41581 0.2229 0.0
C726 C 0.25193 0.41145 0.21515 0.0
H727 H 0.16503 0.41826 0.26286 0.0
H728 H 0.18714 0.41472 0.20227 0.0
C729 C 0.28243 0.41384 0.24273 0.0
C730 C 0.89658 0.26849 0.74104 0.0
C731 C 0.86849 0.23488 0.71468 0.0
H732 H 0.91025 0.28102 0.79627 0.0
C733 C 0.82677 0.19117 0.72423 0.0
H734 H 0.92858 0.30288 0.73439 0.0
C735 C 0.81662 0.17879 0.75949 0.0
C736 C 0.8476 0.21017 0.7857 0.0
H737 H 0.80412 0.16478 0.7046 0.0
H738 H 0.78629 0.14321 0.76619 0.0
C739 C 0.88601 0.25626 0.77643 0.0
C740 C 0.67298 0.8096 0.22327 0.0
C741 C 0.67331 0.85212 0.21295 0.0
H742 H 0.67512 0.76749 0.266 0.0
C743 C 0.66767 0.88094 0.2386 0.0
H744 H 0.67662 0.78633 0.20411 0.0
C745 C 0.66708 0.87037 0.27413 0.0
C746 C 0.672 0.83075 0.28455 0.0
H747 H 0.6668 0.91349 0.23142 0.0
H748 H 0.66596 0.89506 0.2933 0.0
C749 C 0.6723 0.79898 0.2588 0.0
C750 C 0.81113 0.65457 0.74389 0.0
C751 C 0.84014 0.65469 0.71584 0.0
H752 H 0.80369 0.65737 0.7995 0.0
C753 C 0.88112 0.65037 0.7231 0.0
H754 H 0.77888 0.65717 0.73919 0.0
C755 C 0.8953 0.65049 0.75771 0.0
C756 C 0.8687 0.65478 0.78571 0.0
H757 H 0.90396 0.64984 0.70212 0.0
H758 H 0.9286 0.64982 0.76239 0.0
C759 C 0.82525 0.65454 0.77853 0.0
C760 C 0.28535 0.87708 0.21571 0.0
C761 C 0.24232 0.83389 0.20728 0.0
H762 H 0.32793 0.92617 0.2566 0.0
C763 C 0.21514 0.80124 0.23435 0.0
H764 H 0.30748 0.90264 0.19548 0.0
C765 C 0.22728 0.81455 0.26943 0.0
C766 C 0.26645 0.86071 0.27766 0.0
H767 H 0.18226 0.76716 0.2286 0.0
H768 H 0.20312 0.791 0.28983 0.0
C769 C 0.29714 0.89052 0.2507 0.0
C770 C 0.44256 0.19784 0.77672 0.0
C771 C 0.43811 0.23845 0.78532 0.0
H772 H 0.44168 0.15154 0.73552 0.0
C773 C 0.44185 0.27059 0.75849 0.0
H774 H 0.44068 0.17284 0.79678 0.0
C775 C 0.44337 0.25874 0.72335 0.0
C776 C 0.44075 0.21454 0.71487 0.0
H777 H 0.43956 0.3028 0.7644 0.0
H778 H 0.44098 0.28126 0.70303 0.0
C779 C 0.44354 0.18581 0.74167 0.0
C780 C 0.35882 0.31594 0.98942 0.0
C781 C 0.32914 0.26884 0.97589 0.0
H782 H 0.36335 0.37165 0.0241 0.0
C783 C 0.28046 0.24148 0.98696 0.0
H784 H 0.39615 0.33809 0.98057 0.0
C785 C 0.26201 0.26035 0.01188 0.0
C786 C 0.29132 0.30767 0.02499 0.0
H787 H 0.25673 0.20539 0.97638 0.0
H788 H 0.22479 0.23801 0.02091 0.0
C789 C 0.33982 0.33548 0.01357 0.0
C790 C 0.05979 0.26534 0.4841 0.0
C791 C 0.08267 0.31492 0.47517 0.0
H792 H 1.00507 0.20736 0.51518 0.0
C793 C 0.06514 0.34394 0.48972 0.0
H794 H 0.07209 0.24203 0.47272 0.0
C795 C 1.02515 0.32343 0.51278 0.0
C796 C 1.00288 0.27394 0.52199 0.0
H797 H 0.08142 0.38197 0.48253 0.0
H798 H 1.01267 0.34652 0.52428 0.0
C799 C 1.02094 0.2453 0.50778 0.0
C800 C 0.74405 0.98804 0.99863 0.0
C801 C 0.77772 0.99373 0.02447 0.0
H802 H 0.72803 1.01935 0.95507 0.0
C803 C 0.82313 0.03746 0.02546 0.0
H804 H 0.70859 0.9553 0.99741 0.0
C805 C 0.83443 0.07472 0.00116 0.0
C806 C 0.80048 0.06899 0.97547 0.0
H807 H 0.84986 0.0432 0.0453 0.0
H808 H 0.86973 0.10765 0.0023 0.0
C809 C 0.75519 1.02521 0.97457 0.0
C810 C 0.75622 0.72887 0.51145 0.0
C811 C 0.80277 0.75761 0.52605 0.0
H812 H 0.70188 0.72673 0.4767 0.0
C813 C 0.83011 0.80717 0.51719 0.0
H814 H 0.734 0.69084 0.51859 0.0
C815 C 0.81192 0.82748 0.49348 0.0
C816 C 0.76526 0.7991 0.47915 0.0
H817 H 0.86577 0.83024 0.52858 0.0
H818 H 0.83451 0.86537 0.48604 0.0
C819 C 0.73738 0.74964 0.48834 0.0
C820 C 1.03331 0.80174 0.98771 0.0
C821 C 1.01556 0.7545 0.9745 0.0
H822 H 0.08466 0.85805 0.02157 0.0
C823 C 1.03853 0.72828 0.98414 0.0
H824 H 1.01686 0.82304 0.9799 0.0
C825 C 0.07894 0.74927 0.00663 0.0
C826 C 0.09615 0.79633 0.02021 0.0
H827 H 1.02628 0.69231 0.97338 0.0
H828 H 0.09582 0.72829 0.01416 0.0
C829 C 0.07257 0.82206 0.01091 0.0
C830 C 0.31088 0.05811 0.46295 0.0
C831 C 0.28293 1.00687 0.46622 0.0
H832 H 0.34734 0.12728 0.48925 0.0
C833 C 0.26509 0.98669 0.49929 0.0
H834 H 0.32447 0.07501 0.43762 0.0
C835 C 0.27819 1.01692 0.52882 0.0
C836 C 0.30912 0.06788 0.52581 0.0
H837 H 0.24316 0.94758 0.5026 0.0
H838 H 0.26566 1.00005 0.55429 0.0
C839 C 0.32373 0.08833 0.49243 0.0
loop_
_geom_bond_atom_site_label_1
_geom_bond_atom_site_label_2
_geom_bond_distance
_geom_bond_site_symmetry_2
_ccdc_geom_bond_type
Eu0 C9 2.828 . S
Eu0 O11 2.392 . S
Eu0 O13 2.418 . S
Eu0 O18 2.373 . S
Eu0 O21 2.488 . S
Eu0 O22 2.471 . S
Eu0 O23 2.349 . S
Eu1 O10 2.373 . S
Eu1 O14 2.488 . S
Eu1 O15 2.471 . S
Eu1 O16 2.349 . S
Eu1 O19 2.392 . S
Eu1 O20 2.418 . S
Eu1 C30 2.828 . S
C2 O20 1.244 . S
C2 O23 1.265 . S
C3 C4 1.379 . S
C3 C7 1.373 . S
C3 C9 1.505 . S
C4 C3 1.379 . S
C4 C6 1.369 . S
C4 H32 0.930 . S
C5 C7 1.383 . S
C5 C8 1.382 . S
C5 H33 0.930 . S
C6 C4 1.369 . S
C6 C8 1.392 . S
C6 H34 0.930 . S
C7 C3 1.373 . S
C7 C5 1.383 . S
C7 H35 0.931 . S
C8 C5 1.382 . S
C8 C6 1.392 . S
C9 Eu0 2.828 . S
C9 C3 1.505 . S
C9 O21 1.249 . S
C9 O22 1.244 . S
O10 Eu1 2.373 . S
O10 C12 1.258 . S
O11 Eu0 2.392 . S
O11 C12 1.242 . S
C12 O10 1.258 . S
C12 O11 1.242 . S
O13 Eu0 2.418 . S
O13 C17 1.244 . S
O14 Eu1 2.488 . S
O14 C30 1.249 . S
O15 Eu1 2.471 . S
O15 C30 1.244 . S
O16 Eu1 2.349 . S
O16 C17 1.265 . S
C17 O13 1.244 . S
C17 O16 1.265 . S
O18 Eu0 2.373 . S
O18 C31 1.258 . S
O19 Eu1 2.392 . S
O19 C31 1.242 . S
O20 Eu1 2.418 . S
O20 C2 1.244 . S
O21 Eu0 2.488 . S
O21 C9 1.249 . S
O22 Eu0 2.471 . S
O22 C9 1.244 . S
O23 Eu0 2.349 . S
O23 C2 1.265 . S
C24 C25 1.379 . S
C24 C28 1.373 . S
C24 C30 1.505 . S
C25 C24 1.379 . S
C25 C27 1.369 . S
C25 H36 0.930 . S
C26 C28 1.383 . S
C26 C29 1.382 . S
C26 H37 0.930 . S
C27 C25 1.369 . S
C27 C29 1.392 . S
C27 H38 0.930 . S
C28 C24 1.373 . S
C28 C26 1.383 . S
C28 H39 0.931 . S
C29 C26 1.382 . S
C29 C27 1.392 . S
C30 Eu1 2.828 . S
C30 O14 1.249 . S
C30 O15 1.244 . S
C30 C24 1.505 . S
C31 O18 1.258 . S
C31 O19 1.242 . S
H32 C4 0.930 . S
H33 C5 0.930 . S
H34 C6 0.930 . S
H35 C7 0.931 . S
H36 C25 0.930 . S
H37 C26 0.930 . S
H38 C27 0.930 . S
H39 C28 0.931 . S
Eu40 C49 2.828 . S
Eu40 O51 2.392 . S
Eu40 O53 2.418 . S
Eu40 O58 2.373 . S
Eu40 O61 2.488 . S
Eu40 O62 2.471 . S
Eu40 O63 2.349 . S
Eu41 O50 2.373 . S
Eu41 O54 2.488 . S
Eu41 O55 2.471 . S
Eu41 O56 2.349 . S
Eu41 O59 2.392 . S
Eu41 O60 2.418 . S
Eu41 C70 2.824 1_655 S
C42 O60 1.244 . S
C42 O63 1.265 . S
C43 C44 1.379 . S
C43 C47 1.373 . S
C43 C49 1.505 . S
C44 C43 1.379 . S
C44 C46 1.369 . S
C44 H72 0.930 . S
C45 C47 1.383 . S
C45 C48 1.382 . S
C45 H73 0.930 . S
C46 C44 1.369 . S
C46 C48 1.392 . S
C46 H74 0.930 . S
C47 C43 1.373 . S
C47 C45 1.383 . S
C47 H75 0.931 . S
C48 C45 1.382 . S
C48 C46 1.392 . S
C49 Eu40 2.828 . S
C49 C43 1.505 . S
C49 O61 1.249 . S
C49 O62 1.244 . S
O50 Eu41 2.373 . S
O50 C52 1.258 . S
O51 Eu40 2.392 . S
O51 C52 1.242 . S
C52 O50 1.258 . S
C52 O51 1.242 . S
O53 Eu40 2.418 . S
O53 C57 1.244 . S
O54 Eu41 2.488 . S
O54 C70 1.247 1_655 S
O55 Eu41 2.471 . S
O55 C70 1.243 1_655 S
O56 Eu41 2.349 . S
O56 C57 1.265 . S
C57 O53 1.244 . S
C57 O56 1.265 . S
O58 Eu40 2.373 . S
O58 C71 1.258 . S
O59 Eu41 2.392 . S
O59 C71 1.242 . S
O60 Eu41 2.418 . S
O60 C42 1.244 . S
O61 Eu40 2.488 . S
O61 C49 1.249 . S
O62 Eu40 2.471 . S
O62 C49 1.244 . S
O63 Eu40 2.349 . S
O63 C42 1.265 . S
C64 C65 1.379 . S
C64 C68 1.373 . S
C64 C70 1.509 . S
C65 C64 1.379 . S
C65 C67 1.369 . S
C65 H76 0.930 . S
C66 C68 1.383 . S
C66 C69 1.382 . S
C66 H77 0.930 . S
C67 C65 1.369 . S
C67 C69 1.392 . S
C67 H78 0.930 . S
C68 C64 1.373 . S
C68 C66 1.383 . S
C68 H79 0.931 . S
C69 C66 1.382 . S
C69 C67 1.392 . S
C70 Eu41 2.824 1_455 S
C70 O54 1.247 1_455 S
C70 O55 1.243 1_455 S
C70 C64 1.509 . S
C71 O58 1.258 . S
C71 O59 1.242 . S
H72 C44 0.930 . S
H73 C45 0.930 . S
H74 C46 0.930 . S
H75 C47 0.931 . S
H76 C65 0.930 . S
H77 C66 0.930 . S
H78 C67 0.930 . S
H79 C68 0.931 . S
Eu80 C89 2.828 . S
Eu80 O91 2.392 . S
Eu80 O93 2.418 . S
Eu80 O98 2.373 . S
Eu80 O101 2.488 . S
Eu80 O102 2.471 . S
Eu80 O103 2.349 . S
Eu81 O90 2.373 . S
Eu81 O94 2.488 . S
Eu81 O95 2.471 . S
Eu81 O96 2.349 . S
Eu81 O99 2.392 . S
Eu81 O100 2.418 . S
Eu81 C110 2.826 1_565 S
C82 O100 1.244 . S
C82 O103 1.265 . S
C83 C84 1.379 . S
C83 C87 1.373 . S
C83 C89 1.505 . S
C84 C83 1.379 . S
C84 C86 1.369 . S
C84 H112 0.930 . S
C85 C87 1.383 . S
C85 C88 1.382 . S
C85 H113 0.930 . S
C86 C84 1.369 . S
C86 C88 1.392 . S
C86 H114 0.930 . S
C87 C83 1.373 . S
C87 C85 1.383 . S
C87 H115 0.931 . S
C88 C85 1.382 . S
C88 C86 1.392 . S
C89 Eu80 2.828 . S
C89 C83 1.505 . S
C89 O101 1.249 . S
C89 O102 1.244 . S
O90 Eu81 2.373 . S
O90 C92 1.258 . S
O91 Eu80 2.392 . S
O91 C92 1.242 . S
C92 O90 1.258 . S
C92 O91 1.242 . S
O93 Eu80 2.418 . S
O93 C97 1.244 . S
O94 Eu81 2.488 . S
O94 C110 1.248 1_565 S
O95 Eu81 2.471 . S
O95 C110 1.244 1_565 S
O96 Eu81 2.349 . S
O96 C97 1.265 . S
C97 O93 1.244 . S
C97 O96 1.265 . S
O98 Eu80 2.373 . S
O98 C111 1.258 . S
O99 Eu81 2.392 . S
O99 C111 1.242 . S
O100 Eu81 2.418 . S
O100 C82 1.244 . S
O101 Eu80 2.488 . S
O101 C89 1.249 . S
O102 Eu80 2.471 . S
O102 C89 1.244 . S
O103 Eu80 2.349 . S
O103 C82 1.265 . S
C104 C105 1.379 . S
C104 C108 1.373 . S
C104 C110 1.506 . S
C105 C104 1.379 . S
C105 C107 1.369 . S
C105 H116 0.930 . S
C106 C108 1.383 . S
C106 C109 1.382 . S
C106 H117 0.930 . S
C107 C105 1.369 . S
C107 C109 1.392 . S
C107 H118 0.930 . S
C108 C104 1.373 . S
C108 C106 1.383 . S
C108 H119 0.931 . S
C109 C106 1.382 . S
C109 C107 1.392 . S
C110 Eu81 2.826 1_545 S
C110 O94 1.248 1_545 S
C110 O95 1.244 1_545 S
C110 C104 1.506 . S
C111 O98 1.258 . S
C111 O99 1.242 . S
H112 C84 0.930 . S
H113 C85 0.930 . S
H114 C86 0.930 . S
H115 C87 0.931 . S
H116 C105 0.930 . S
H117 C106 0.930 . S
H118 C107 0.930 . S
H119 C108 0.931 . S
Eu120 C129 2.828 . S
Eu120 O131 2.392 . S
Eu120 O133 2.418 . S
Eu120 O138 2.373 . S
Eu120 O141 2.488 . S
Eu120 O142 2.471 . S
Eu120 O143 2.349 . S
Eu121 O130 2.373 . S
Eu121 O134 2.488 . S
Eu121 O135 2.471 . S
Eu121 O136 2.349 . S
Eu121 O139 2.392 . S
Eu121 O140 2.418 . S
Eu121 C150 2.828 . S
C122 O140 1.244 . S
C122 O143 1.265 . S
C123 C124 1.379 . S
C123 C127 1.373 . S
C123 C129 1.505 . S
C124 C123 1.379 . S
C124 C126 1.369 . S
C124 H152 0.930 . S
C125 C127 1.383 . S
C125 C128 1.382 . S
C125 H153 0.930 . S
C126 C124 1.369 . S
C126 C128 1.392 . S
C126 H154 0.930 . S
C127 C123 1.373 . S
C127 C125 1.383 . S
C127 H155 0.931 . S
C128 C125 1.382 . S
C128 C126 1.392 . S
C129 Eu120 2.828 . S
C129 C123 1.505 . S
C129 O141 1.249 . S
C129 O142 1.244 . S
O130 Eu121 2.373 . S
O130 C132 1.258 . S
O131 Eu120 2.392 . S
O131 C132 1.242 . S
C132 O130 1.258 . S
C132 O131 1.242 . S
O133 Eu120 2.418 . S
O133 C137 1.244 . S
O134 Eu121 2.488 . S
O134 C150 1.249 . S
O135 Eu121 2.471 . S
O135 C150 1.244 . S
O136 Eu121 2.349 . S
O136 C137 1.265 . S
C137 O133 1.244 . S
C137 O136 1.265 . S
O138 Eu120 2.373 . S
O138 C151 1.258 . S
O139 Eu121 2.392 . S
O139 C151 1.242 . S
O140 Eu121 2.418 . S
O140 C122 1.244 . S
O141 Eu120 2.488 . S
O141 C129 1.249 . S
O142 Eu120 2.471 . S
O142 C129 1.244 . S
O143 Eu120 2.349 . S
O143 C122 1.265 . S
C144 C145 1.379 . S
C144 C148 1.373 . S
C144 C150 1.505 . S
C145 C144 1.379 . S
C145 C147 1.369 . S
C145 H156 0.930 . S
C146 C148 1.383 . S
C146 C149 1.382 . S
C146 H157 0.930 . S
C147 C145 1.369 . S
C147 C149 1.392 . S
C147 H158 0.930 . S
C148 C144 1.373 . S
C148 C146 1.383 . S
C148 H159 0.931 . S
C149 C146 1.382 . S
C149 C147 1.392 . S
C150 Eu121 2.828 . S
C150 O134 1.249 . S
C150 O135 1.244 . S
C150 C144 1.505 . S
C151 O138 1.258 . S
C151 O139 1.242 . S
H152 C124 0.930 . S
H153 C125 0.930 . S
H154 C126 0.930 . S
H155 C127 0.931 . S
H156 C145 0.930 . S
H157 C146 0.930 . S
H158 C147 0.930 . S
H159 C148 0.931 . S
Eu160 C169 2.828 . S
Eu160 O171 2.392 . S
Eu160 O173 2.418 . S
Eu160 O178 2.373 . S
Eu160 O181 2.488 . S
Eu160 O182 2.471 . S
Eu160 O183 2.349 . S
Eu161 O170 2.373 . S
Eu161 O174 2.488 . S
Eu161 O175 2.471 . S
Eu161 O176 2.349 . S
Eu161 O179 2.392 . S
Eu161 O180 2.418 . S
Eu161 C190 2.824 1_455 S
C162 O180 1.244 . S
C162 O183 1.265 . S
C163 C164 1.379 . S
C163 C167 1.373 . S
C163 C169 1.505 . S
C164 C163 1.379 . S
C164 C166 1.369 . S
C164 H192 0.930 . S
C165 C167 1.383 . S
C165 C168 1.382 . S
C165 H193 0.930 . S
C166 C164 1.369 . S
C166 C168 1.392 . S
C166 H194 0.930 . S
C167 C163 1.373 . S
C167 C165 1.383 . S
C167 H195 0.931 . S
C168 C165 1.382 . S
C168 C166 1.392 . S
C169 Eu160 2.828 . S
C169 C163 1.505 . S
C169 O181 1.249 . S
C169 O182 1.244 . S
O170 Eu161 2.373 . S
O170 C172 1.258 . S
O171 Eu160 2.392 . S
O171 C172 1.242 . S
C172 O170 1.258 . S
C172 O171 1.242 . S
O173 Eu160 2.418 . S
O173 C177 1.244 . S
O174 Eu161 2.488 . S
O174 C190 1.247 1_455 S
O175 Eu161 2.471 . S
O175 C190 1.243 1_455 S
O176 Eu161 2.349 . S
O176 C177 1.265 . S
C177 O173 1.244 . S
C177 O176 1.265 . S
O178 Eu160 2.373 . S
O178 C191 1.258 . S
O179 Eu161 2.392 . S
O179 C191 1.242 . S
O180 Eu161 2.418 . S
O180 C162 1.244 . S
O181 Eu160 2.488 . S
O181 C169 1.249 . S
O182 Eu160 2.471 . S
O182 C169 1.244 . S
O183 Eu160 2.349 . S
O183 C162 1.265 . S
C184 C185 1.379 . S
C184 C188 1.373 . S
C184 C190 1.509 . S
C185 C184 1.379 . S
C185 C187 1.369 . S
C185 H196 0.930 . S
C186 C188 1.383 . S
C186 C189 1.382 . S
C186 H197 0.930 . S
C187 C185 1.369 . S
C187 C189 1.392 . S
C187 H198 0.930 . S
C188 C184 1.373 . S
C188 C186 1.383 . S
C188 H199 0.931 . S
C189 C186 1.382 . S
C189 C187 1.392 . S
C190 Eu161 2.824 1_655 S
C190 O174 1.247 1_655 S
C190 O175 1.243 1_655 S
C190 C184 1.509 . S
C191 O178 1.258 . S
C191 O179 1.242 . S
H192 C164 0.930 . S
H193 C165 0.930 . S
H194 C166 0.930 . S
H195 C167 0.931 . S
H196 C185 0.930 . S
H197 C186 0.930 . S
H198 C187 0.930 . S
H199 C188 0.931 . S
Eu200 C209 2.828 . S
Eu200 O211 2.392 . S
Eu200 O213 2.418 . S
Eu200 O218 2.373 . S
Eu200 O221 2.488 . S
Eu200 O222 2.471 . S
Eu200 O223 2.349 . S
Eu201 O210 2.373 . S
Eu201 O214 2.488 . S
Eu201 O215 2.471 . S
Eu201 O216 2.349 . S
Eu201 O219 2.392 . S
Eu201 O220 2.418 . S
Eu201 C230 2.826 1_545 S
C202 O220 1.244 . S
C202 O223 1.265 . S
C203 C204 1.379 . S
C203 C207 1.373 . S
C203 C209 1.505 . S
C204 C203 1.379 . S
C204 C206 1.369 . S
C204 H232 0.930 . S
C205 C207 1.383 . S
C205 C208 1.382 . S
C205 H233 0.930 . S
C206 C204 1.369 . S
C206 C208 1.392 . S
C206 H234 0.930 . S
C207 C203 1.373 . S
C207 C205 1.383 . S
C207 H235 0.931 . S
C208 C205 1.382 . S
C208 C206 1.392 . S
C209 Eu200 2.828 . S
C209 C203 1.505 . S
C209 O221 1.249 . S
C209 O222 1.244 . S
O210 Eu201 2.373 . S
O210 C212 1.258 . S
O211 Eu200 2.392 . S
O211 C212 1.242 . S
C212 O210 1.258 . S
C212 O211 1.242 . S
O213 Eu200 2.418 . S
O213 C217 1.244 . S
O214 Eu201 2.488 . S
O214 C230 1.248 1_545 S
O215 Eu201 2.471 . S
O215 C230 1.244 1_545 S
O216 Eu201 2.349 . S
O216 C217 1.265 . S
C217 O213 1.244 . S
C217 O216 1.265 . S
O218 Eu200 2.373 . S
O218 C231 1.258 . S
O219 Eu201 2.392 . S
O219 C231 1.242 . S
O220 Eu201 2.418 . S
O220 C202 1.244 . S
O221 Eu200 2.488 . S
O221 C209 1.249 . S
O222 Eu200 2.471 . S
O222 C209 1.244 . S
O223 Eu200 2.349 . S
O223 C202 1.265 . S
C224 C225 1.379 . S
C224 C228 1.373 . S
C224 C230 1.506 . S
C225 C224 1.379 . S
C225 C227 1.369 . S
C225 H236 0.930 . S
C226 C228 1.383 . S
C226 C229 1.382 . S
C226 H237 0.930 . S
C227 C225 1.369 . S
C227 C229 1.392 . S
C227 H238 0.930 . S
C228 C224 1.373 . S
C228 C226 1.383 . S
C228 H239 0.931 . S
C229 C226 1.382 . S
C229 C227 1.392 . S
C230 Eu201 2.826 1_565 S
C230 O214 1.248 1_565 S
C230 O215 1.244 1_565 S
C230 C224 1.506 . S
C231 O218 1.258 . S
C231 O219 1.242 . S
H232 C204 0.930 . S
H233 C205 0.930 . S
H234 C206 0.930 . S
H235 C207 0.931 . S
H236 C225 0.930 . S
H237 C226 0.930 . S
H238 C227 0.930 . S
H239 C228 0.931 . S
Eu240 C249 2.828 . S
Eu240 O251 2.392 . S
Eu240 O253 2.418 . S
Eu240 O258 2.373 . S
Eu240 O261 2.488 . S
Eu240 O262 2.471 . S
Eu240 O263 2.349 . S
Eu241 O250 2.373 . S
Eu241 O254 2.488 . S
Eu241 O255 2.471 . S
Eu241 O256 2.349 . S
Eu241 O259 2.392 . S
Eu241 O260 2.418 . S
Eu241 C270 2.828 . S
C242 O260 1.244 . S
C242 O263 1.265 . S
C243 C244 1.379 . S
C243 C247 1.373 . S
C243 C249 1.505 . S
C244 C243 1.379 . S
C244 C246 1.369 . S
C244 H272 0.930 . S
C245 C247 1.383 . S
C245 C248 1.382 . S
C245 H273 0.930 . S
C246 C244 1.369 . S
C246 C248 1.392 . S
C246 H274 0.930 . S
C247 C243 1.373 . S
C247 C245 1.383 . S
C247 H275 0.931 . S
C248 C245 1.382 . S
C248 C246 1.392 . S
C249 Eu240 2.828 . S
C249 C243 1.505 . S
C249 O261 1.249 . S
C249 O262 1.244 . S
O250 Eu241 2.373 . S
O250 C252 1.258 . S
O251 Eu240 2.392 . S
O251 C252 1.242 . S
C252 O250 1.258 . S
C252 O251 1.242 . S
O253 Eu240 2.418 . S
O253 C257 1.244 . S
O254 Eu241 2.488 . S
O254 C270 1.249 . S
O255 Eu241 2.471 . S
O255 C270 1.244 . S
O256 Eu241 2.349 . S
O256 C257 1.265 . S
C257 O253 1.244 . S
C257 O256 1.265 . S
O258 Eu240 2.373 . S
O258 C271 1.258 . S
O259 Eu241 2.392 . S
O259 C271 1.242 . S
O260 Eu241 2.418 . S
O260 C242 1.244 . S
O261 Eu240 2.488 . S
O261 C249 1.249 . S
O262 Eu240 2.471 . S
O262 C249 1.244 . S
O263 Eu240 2.349 . S
O263 C242 1.265 . S
C264 C265 1.379 . S
C264 C268 1.373 . S
C264 C270 1.505 . S
C265 C264 1.379 . S
C265 C267 1.369 . S
C265 H276 0.930 . S
C266 C268 1.383 . S
C266 C269 1.382 . S
C266 H277 0.930 . S
C267 C265 1.369 . S
C267 C269 1.392 . S
C267 H278 0.930 . S
C268 C264 1.373 . S
C268 C266 1.383 . S
C268 H279 0.931 . S
C269 C266 1.382 . S
C269 C267 1.392 . S
C270 Eu241 2.828 . S
C270 O254 1.249 . S
C270 O255 1.244 . S
C270 C264 1.505 . S
C271 O258 1.258 . S
C271 O259 1.242 . S
H272 C244 0.930 . S
H273 C245 0.930 . S
H274 C246 0.930 . S
H275 C247 0.931 . S
H276 C265 0.930 . S
H277 C266 0.930 . S
H278 C267 0.930 . S
H279 C268 0.931 . S
Eu280 C289 2.828 . S
Eu280 O291 2.392 . S
Eu280 O293 2.418 . S
Eu280 O298 2.373 . S
Eu280 O301 2.488 . S
Eu280 O302 2.471 . S
Eu280 O303 2.349 . S
Eu281 O290 2.373 . S
Eu281 O294 2.488 . S
Eu281 O295 2.471 . S
Eu281 O296 2.349 . S
Eu281 O299 2.392 . S
Eu281 O300 2.418 . S
Eu281 C310 2.826 1_655 S
C282 O300 1.244 . S
C282 O303 1.265 . S
C283 C284 1.379 . S
C283 C287 1.373 . S
C283 C289 1.505 . S
C284 C283 1.379 . S
C284 C286 1.369 . S
C284 H312 0.930 . S
C285 C287 1.383 . S
C285 C288 1.382 . S
C285 H313 0.930 . S
C286 C284 1.369 . S
C286 C288 1.392 . S
C286 H314 0.930 . S
C287 C283 1.373 . S
C287 C285 1.383 . S
C287 H315 0.931 . S
C288 C285 1.382 . S
C288 C286 1.392 . S
C289 Eu280 2.828 . S
C289 C283 1.505 . S
C289 O301 1.249 . S
C289 O302 1.244 . S
O290 Eu281 2.373 . S
O290 C292 1.258 . S
O291 Eu280 2.392 . S
O291 C292 1.242 . S
C292 O290 1.258 . S
C292 O291 1.242 . S
O293 Eu280 2.418 . S
O293 C297 1.244 . S
O294 Eu281 2.488 . S
O294 C310 1.248 1_655 S
O295 Eu281 2.471 . S
O295 C310 1.244 1_655 S
O296 Eu281 2.349 . S
O296 C297 1.265 . S
C297 O293 1.244 . S
C297 O296 1.265 . S
O298 Eu280 2.373 . S
O298 C311 1.258 . S
O299 Eu281 2.392 . S
O299 C311 1.242 . S
O300 Eu281 2.418 . S
O300 C282 1.244 . S
O301 Eu280 2.488 . S
O301 C289 1.249 . S
O302 Eu280 2.471 . S
O302 C289 1.244 . S
O303 Eu280 2.349 . S
O303 C282 1.265 . S
C304 C305 1.379 . S
C304 C308 1.373 . S
C304 C310 1.506 . S
C305 C304 1.379 . S
C305 C307 1.369 . S
C305 H316 0.930 . S
C306 C308 1.383 . S
C306 C309 1.382 . S
C306 H317 0.930 . S
C307 C305 1.369 . S
C307 C309 1.392 . S
C307 H318 0.930 . S
C308 C304 1.373 . S
C308 C306 1.383 . S
C308 H319 0.931 . S
C309 C306 1.382 . S
C309 C307 1.392 . S
C310 Eu281 2.826 1_455 S
C310 O294 1.248 1_455 S
C310 O295 1.244 1_455 S
C310 C304 1.506 . S
C311 O298 1.258 . S
C311 O299 1.242 . S
H312 C284 0.930 . S
H313 C285 0.930 . S
H314 C286 0.930 . S
H315 C287 0.931 . S
H316 C305 0.930 . S
H317 C306 0.930 . S
H318 C307 0.930 . S
H319 C308 0.931 . S
Eu320 C329 2.828 . S
Eu320 O331 2.392 . S
Eu320 O333 2.418 . S
Eu320 O338 2.373 . S
Eu320 O341 2.488 . S
Eu320 O342 2.471 . S
Eu320 O343 2.349 . S
Eu321 O330 2.373 . S
Eu321 O334 2.488 . S
Eu321 O335 2.471 . S
Eu321 O336 2.349 . S
Eu321 O339 2.392 . S
Eu321 O340 2.418 . S
Eu321 C350 2.824 1_565 S
C322 O340 1.244 . S
C322 O343 1.265 . S
C323 C324 1.379 . S
C323 C327 1.373 . S
C323 C329 1.505 . S
C324 C323 1.379 . S
C324 C326 1.369 . S
C324 H352 0.930 . S
C325 C327 1.383 . S
C325 C328 1.382 . S
C325 H353 0.930 . S
C326 C324 1.369 . S
C326 C328 1.392 . S
C326 H354 0.930 . S
C327 C323 1.373 . S
C327 C325 1.383 . S
C327 H355 0.931 . S
C328 C325 1.382 . S
C328 C326 1.392 . S
C329 Eu320 2.828 . S
C329 C323 1.505 . S
C329 O341 1.249 . S
C329 O342 1.244 . S
O330 Eu321 2.373 . S
O330 C332 1.258 . S
O331 Eu320 2.392 . S
O331 C332 1.242 . S
C332 O330 1.258 . S
C332 O331 1.242 . S
O333 Eu320 2.418 . S
O333 C337 1.244 . S
O334 Eu321 2.488 . S
O334 C350 1.247 1_565 S
O335 Eu321 2.471 . S
O335 C350 1.243 1_565 S
O336 Eu321 2.349 . S
O336 C337 1.265 . S
C337 O333 1.244 . S
C337 O336 1.265 . S
O338 Eu320 2.373 . S
O338 C351 1.258 . S
O339 Eu321 2.392 . S
O339 C351 1.242 . S
O340 Eu321 2.418 . S
O340 C322 1.244 . S
O341 Eu320 2.488 . S
O341 C329 1.249 . S
O342 Eu320 2.471 . S
O342 C329 1.244 . S
O343 Eu320 2.349 . S
O343 C322 1.265 . S
C344 C345 1.379 . S
C344 C348 1.373 . S
C344 C350 1.509 . S
C345 C344 1.379 . S
C345 C347 1.369 . S
C345 H356 0.930 . S
C346 C348 1.383 . S
C346 C349 1.382 . S
C346 H357 0.930 . S
C347 C345 1.369 . S
C347 C349 1.392 . S
C347 H358 0.930 . S
C348 C344 1.373 . S
C348 C346 1.383 . S
C348 H359 0.931 . S
C349 C346 1.382 . S
C349 C347 1.392 . S
C350 Eu321 2.824 1_545 S
C350 O334 1.247 1_545 S
C350 O335 1.243 1_545 S
C350 C344 1.509 . S
C351 O338 1.258 . S
C351 O339 1.242 . S
H352 C324 0.930 . S
H353 C325 0.930 . S
H354 C326 0.930 . S
H355 C327 0.931 . S
H356 C345 0.930 . S
H357 C346 0.930 . S
H358 C347 0.930 . S
H359 C348 0.931 . S
Eu360 C369 2.828 . S
Eu360 O371 2.392 . S
Eu360 O373 2.418 . S
Eu360 O378 2.373 . S
Eu360 O381 2.488 . S
Eu360 O382 2.471 . S
Eu360 O383 2.349 . S
Eu361 O370 2.373 . S
Eu361 O374 2.488 . S
Eu361 O375 2.471 . S
Eu361 O376 2.349 . S
Eu361 O379 2.392 . S
Eu361 O380 2.418 . S
Eu361 C390 2.828 . S
C362 O380 1.244 . S
C362 O383 1.265 . S
C363 C364 1.379 . S
C363 C367 1.373 . S
C363 C369 1.505 . S
C364 C363 1.379 . S
C364 C366 1.369 . S
C364 H392 0.930 . S
C365 C367 1.383 . S
C365 C368 1.382 . S
C365 H393 0.930 . S
C366 C364 1.369 . S
C366 C368 1.392 . S
C366 H394 0.930 . S
C367 C363 1.373 . S
C367 C365 1.383 . S
C367 H395 0.931 . S
C368 C365 1.382 . S
C368 C366 1.392 . S
C369 Eu360 2.828 . S
C369 C363 1.505 . S
C369 O381 1.249 . S
C369 O382 1.244 . S
O370 Eu361 2.373 . S
O370 C372 1.258 . S
O371 Eu360 2.392 . S
O371 C372 1.242 . S
C372 O370 1.258 . S
C372 O371 1.242 . S
O373 Eu360 2.418 . S
O373 C377 1.244 . S
O374 Eu361 2.488 . S
O374 C390 1.249 . S
O375 Eu361 2.471 . S
O375 C390 1.244 . S
O376 Eu361 2.349 . S
O376 C377 1.265 . S
C377 O373 1.244 . S
C377 O376 1.265 . S
O378 Eu360 2.373 . S
O378 C391 1.258 . S
O379 Eu361 2.392 . S
O379 C391 1.242 . S
O380 Eu361 2.418 . S
O380 C362 1.244 . S
O381 Eu360 2.488 . S
O381 C369 1.249 . S
O382 Eu360 2.471 . S
O382 C369 1.244 . S
O383 Eu360 2.349 . S
O383 C362 1.265 . S
C384 C385 1.379 . S
C384 C388 1.373 . S
C384 C390 1.505 . S
C385 C384 1.379 . S
C385 C387 1.369 . S
C385 H396 0.930 . S
C386 C388 1.383 . S
C386 C389 1.382 . S
C386 H397 0.930 . S
C387 C385 1.369 . S
C387 C389 1.392 . S
C387 H398 0.930 . S
C388 C384 1.373 . S
C388 C386 1.383 . S
C388 H399 0.931 . S
C389 C386 1.382 . S
C389 C387 1.392 . S
C390 Eu361 2.828 . S
C390 O374 1.249 . S
C390 O375 1.244 . S
C390 C384 1.505 . S
C391 O378 1.258 . S
C391 O379 1.242 . S
H392 C364 0.930 . S
H393 C365 0.930 . S
H394 C366 0.930 . S
H395 C367 0.931 . S
H396 C385 0.930 . S
H397 C386 0.930 . S
H398 C387 0.930 . S
H399 C388 0.931 . S
Eu400 C409 2.828 . S
Eu400 O411 2.392 . S
Eu400 O413 2.418 . S
Eu400 O418 2.373 . S
Eu400 O421 2.488 . S
Eu400 O422 2.471 . S
Eu400 O423 2.349 . S
Eu401 O410 2.373 . S
Eu401 O414 2.488 . S
Eu401 O415 2.471 . S
Eu401 O416 2.349 . S
Eu401 O419 2.392 . S
Eu401 O420 2.418 . S
Eu401 C430 2.826 1_455 S
C402 O420 1.244 . S
C402 O423 1.265 . S
C403 C404 1.379 . S
C403 C407 1.373 . S
C403 C409 1.505 . S
C404 C403 1.379 . S
C404 C406 1.369 . S
C404 H432 0.930 . S
C405 C407 1.383 . S
C405 C408 1.382 . S
C405 H433 0.930 . S
C406 C404 1.369 . S
C406 C408 1.392 . S
C406 H434 0.930 . S
C407 C403 1.373 . S
C407 C405 1.383 . S
C407 H435 0.931 . S
C408 C405 1.382 . S
C408 C406 1.392 . S
C409 Eu400 2.828 . S
C409 C403 1.505 . S
C409 O421 1.249 . S
C409 O422 1.244 . S
O410 Eu401 2.373 . S
O410 C412 1.258 . S
O411 Eu400 2.392 . S
O411 C412 1.242 . S
C412 O410 1.258 . S
C412 O411 1.242 . S
O413 Eu400 2.418 . S
O413 C417 1.244 . S
O414 Eu401 2.488 . S
O414 C430 1.248 1_455 S
O415 Eu401 2.471 . S
O415 C430 1.244 1_455 S
O416 Eu401 2.349 . S
O416 C417 1.265 . S
C417 O413 1.244 . S
C417 O416 1.265 . S
O418 Eu400 2.373 . S
O418 C431 1.258 . S
O419 Eu401 2.392 . S
O419 C431 1.242 . S
O420 Eu401 2.418 . S
O420 C402 1.244 . S
O421 Eu400 2.488 . S
O421 C409 1.249 . S
O422 Eu400 2.471 . S
O422 C409 1.244 . S
O423 Eu400 2.349 . S
O423 C402 1.265 . S
C424 C425 1.379 . S
C424 C428 1.373 . S
C424 C430 1.506 . S
C425 C424 1.379 . S
C425 C427 1.369 . S
C425 H436 0.930 . S
C426 C428 1.383 . S
C426 C429 1.382 . S
C426 H437 0.930 . S
C427 C425 1.369 . S
C427 C429 1.392 . S
C427 H438 0.930 . S
C428 C424 1.373 . S
C428 C426 1.383 . S
C428 H439 0.931 . S
C429 C426 1.382 . S
C429 C427 1.392 . S
C430 Eu401 2.826 1_655 S
C430 O414 1.248 1_655 S
C430 O415 1.244 1_655 S
C430 C424 1.506 . S
C431 O418 1.258 . S
C431 O419 1.242 . S
H432 C404 0.930 . S
H433 C405 0.930 . S
H434 C406 0.930 . S
H435 C407 0.931 . S
H436 C425 0.930 . S
H437 C426 0.930 . S
H438 C427 0.930 . S
H439 C428 0.931 . S
Eu440 C449 2.828 . S
Eu440 O451 2.392 . S
Eu440 O453 2.418 . S
Eu440 O458 2.373 . S
Eu440 O461 2.488 . S
Eu440 O462 2.471 . S
Eu440 O463 2.349 . S
Eu441 O450 2.373 . S
Eu441 O454 2.488 . S
Eu441 O455 2.471 . S
Eu441 O456 2.349 . S
Eu441 O459 2.392 . S
Eu441 O460 2.418 . S
Eu441 C470 2.824 1_545 S
C442 O460 1.244 . S
C442 O463 1.265 . S
C443 C444 1.379 . S
C443 C447 1.373 . S
C443 C449 1.505 . S
C444 C443 1.379 . S
C444 C446 1.369 . S
C444 H472 0.930 . S
C445 C447 1.383 . S
C445 C448 1.382 . S
C445 H473 0.930 . S
C446 C444 1.369 . S
C446 C448 1.392 . S
C446 H474 0.930 . S
C447 C443 1.373 . S
C447 C445 1.383 . S
C447 H475 0.931 . S
C448 C445 1.382 . S
C448 C446 1.392 . S
C449 Eu440 2.828 . S
C449 C443 1.505 . S
C449 O461 1.249 . S
C449 O462 1.244 . S
O450 Eu441 2.373 . S
O450 C452 1.258 . S
O451 Eu440 2.392 . S
O451 C452 1.242 . S
C452 O450 1.258 . S
C452 O451 1.242 . S
O453 Eu440 2.418 . S
O453 C457 1.244 . S
O454 Eu441 2.488 . S
O454 C470 1.247 1_545 S
O455 Eu441 2.471 . S
O455 C470 1.243 1_545 S
O456 Eu441 2.349 . S
O456 C457 1.265 . S
C457 O453 1.244 . S
C457 O456 1.265 . S
O458 Eu440 2.373 . S
O458 C471 1.258 . S
O459 Eu441 2.392 . S
O459 C471 1.242 . S
O460 Eu441 2.418 . S
O460 C442 1.244 . S
O461 Eu440 2.488 . S
O461 C449 1.249 . S
O462 Eu440 2.471 . S
O462 C449 1.244 . S
O463 Eu440 2.349 . S
O463 C442 1.265 . S
C464 C465 1.379 . S
C464 C468 1.373 . S
C464 C470 1.509 . S
C465 C464 1.379 . S
C465 C467 1.369 . S
C465 H476 0.930 . S
C466 C468 1.383 . S
C466 C469 1.382 . S
C466 H477 0.930 . S
C467 C465 1.369 . S
C467 C469 1.392 . S
C467 H478 0.930 . S
C468 C464 1.373 . S
C468 C466 1.383 . S
C468 H479 0.931 . S
C469 C466 1.382 . S
C469 C467 1.392 . S
C470 Eu441 2.824 1_565 S
C470 O454 1.247 1_565 S
C470 O455 1.243 1_565 S
C470 C464 1.509 . S
C471 O458 1.258 . S
C471 O459 1.242 . S
H472 C444 0.930 . S
H473 C445 0.930 . S
H474 C446 0.930 . S
H475 C447 0.931 . S
H476 C465 0.930 . S
H477 C466 0.930 . S
H478 C467 0.930 . S
H479 C468 0.931 . S
C480 C481 1.387 . S
C480 H484 0.950 . S
C480 C489 1.390 . S
C481 C480 1.387 . S
C481 C483 1.387 . S
H482 C489 0.950 1_545 S
C483 C481 1.387 . S
C483 C485 1.390 1_565 S
C483 H487 0.950 . S
H484 C480 0.950 . S
C485 C483 1.390 1_545 S
C485 C486 1.387 . S
C485 H488 0.950 . S
C486 C485 1.387 . S
C486 C489 1.387 1_545 S
H487 C483 0.950 . S
H488 C485 0.950 . S
C489 C480 1.390 . S
C489 H482 0.950 1_565 S
C489 C486 1.387 1_565 S
C490 C491 1.387 . S
C490 H494 0.950 . S
C490 C499 1.390 . S
C491 C490 1.387 . S
C491 C493 1.387 . S
H492 C499 0.950 . S
C493 C491 1.387 . S
C493 C495 1.390 . S
C493 H497 0.950 . S
H494 C490 0.950 . S
C495 C493 1.390 . S
C495 C496 1.387 . S
C495 H498 0.950 . S
C496 C495 1.387 . S
C496 C499 1.387 . S
H497 C493 0.950 . S
H498 C495 0.950 . S
C499 C490 1.390 . S
C499 H492 0.950 . S
C499 C496 1.387 . S
C500 C501 1.387 1_455 S
C500 H504 0.954 . S
C500 C509 1.390 . S
C501 C500 1.387 1_655 S
C501 C503 1.387 . S
H502 C509 0.950 . S
C503 C501 1.387 . S
C503 C505 1.390 1_655 S
C503 H507 0.950 . S
H504 C500 0.954 . S
C505 C503 1.390 1_455 S
C505 C506 1.387 . S
C505 H508 0.950 . S
C506 C505 1.387 . S
C506 C509 1.387 . S
H507 C503 0.950 . S
H508 C505 0.950 . S
C509 C500 1.390 . S
C509 H502 0.950 . S
C509 C506 1.387 . S
C510 C511 1.387 1_545 S
C510 H514 0.950 1_545 S
C510 C519 1.390 . S
C511 C510 1.387 1_565 S
C511 C513 1.402 . S
H512 C519 0.950 . S
C513 C511 1.402 . S
C513 C515 1.373 1_565 S
C513 H517 0.952 . S
H514 C510 0.950 1_565 S
C515 C513 1.373 1_545 S
C515 C516 1.387 . S
C515 H518 0.950 . S
C516 C515 1.387 . S
C516 C519 1.387 . S
H517 C513 0.952 . S
H518 C515 0.950 . S
C519 C510 1.390 . S
C519 H512 0.950 . S
C519 C516 1.387 . S
C520 C521 1.387 . S
C520 H524 0.950 . S
C520 C529 1.390 . S
C521 C520 1.387 . S
C521 C523 1.387 . S
H522 C529 0.950 . S
C523 C521 1.387 . S
C523 C525 1.390 . S
C523 H527 0.950 . S
H524 C520 0.950 . S
C525 C523 1.390 . S
C525 C526 1.387 . S
C525 H528 0.950 . S
C526 C525 1.387 . S
C526 C529 1.387 . S
H527 C523 0.950 . S
H528 C525 0.950 . S
C529 C520 1.390 . S
C529 H522 0.950 . S
C529 C526 1.387 . S
C530 C531 1.387 . S
C530 H534 0.950 . S
C530 C539 1.390 1_655 S
C531 C530 1.387 . S
C531 C533 1.387 . S
H532 C539 0.950 . S
C533 C531 1.387 . S
C533 C535 1.390 . S
C533 H537 0.950 . S
H534 C530 0.950 . S
C535 C533 1.390 . S
C535 C536 1.387 1_655 S
C535 H538 0.950 1_655 S
C536 C535 1.387 1_455 S
C536 C539 1.387 . S
H537 C533 0.950 . S
H538 C535 0.950 1_455 S
C539 C530 1.390 1_455 S
C539 H532 0.950 . S
C539 C536 1.387 . S
C540 C541 1.387 . S
C540 H544 0.950 . S
C540 C549 1.390 . S
C541 C540 1.387 . S
C541 C543 1.387 . S
H542 C549 0.950 . S
C543 C541 1.387 . S
C543 C545 1.390 1_455 S
C543 H547 0.950 . S
H544 C540 0.950 . S
C545 C543 1.390 1_655 S
C545 C546 1.387 . S
C545 H548 0.950 . S
C546 C545 1.387 . S
C546 C549 1.387 1_655 S
H547 C543 0.950 . S
H548 C545 0.950 . S
C549 C540 1.390 . S
C549 H542 0.950 . S
C549 C546 1.387 1_455 S
C550 C551 1.387 . S
C550 H554 0.950 . S
C550 C559 1.390 1_565 S
C551 C550 1.387 . S
C551 C553 1.387 1_565 S
H552 C559 0.950 . S
C553 C551 1.387 1_545 S
C553 C555 1.390 . S
C553 H557 0.950 . S
H554 C550 0.950 . S
C555 C553 1.390 . S
C555 C556 1.387 . S
C555 H558 0.950 . S
C556 C555 1.387 . S
C556 C559 1.387 . S
H557 C553 0.950 . S
H558 C555 0.950 . S
C559 C550 1.390 1_545 S
C559 H552 0.950 . S
C559 C556 1.387 . S
C560 C561 1.387 . S
C560 H564 0.950 . S
C560 C569 1.390 . S
C561 C560 1.387 . S
C561 C563 1.387 . S
H562 C569 0.950 . S
C563 C561 1.387 . S
C563 C565 1.390 . S
C563 H567 0.950 . S
H564 C560 0.950 . S
C565 C563 1.390 . S
C565 C566 1.387 . S
C565 H568 0.950 . S
C566 C565 1.387 . S
C566 C569 1.387 . S
H567 C563 0.950 . S
H568 C565 0.950 . S
C569 C560 1.390 . S
C569 H562 0.950 . S
C569 C566 1.387 . S
C570 C571 1.387 . S
C570 H574 0.950 . S
C570 C579 1.390 1_455 S
C571 C570 1.387 . S
C571 C573 1.387 1_455 S
H572 C579 0.950 . S
C573 C571 1.387 1_655 S
C573 C575 1.390 . S
C573 H577 0.950 . S
H574 C570 0.950 . S
C575 C573 1.390 . S
C575 C576 1.387 . S
C575 H578 0.950 . S
C576 C575 1.387 . S
C576 C579 1.387 . S
H577 C573 0.950 . S
H578 C575 0.950 . S
C579 C570 1.390 1_655 S
C579 H572 0.950 . S
C579 C576 1.387 . S
C580 C581 1.387 1_565 S
C580 H584 0.950 . S
C580 C589 1.390 . S
C581 C580 1.387 1_545 S
C581 C583 1.387 . S
H582 C589 0.950 . S
C583 C581 1.387 . S
C583 C585 1.390 1_545 S
C583 H587 0.950 . S
H584 C580 0.950 . S
C585 C583 1.390 1_565 S
C585 C586 1.387 . S
C585 H588 0.950 . S
C586 C585 1.387 . S
C586 C589 1.387 . S
H587 C583 0.950 . S
H588 C585 0.950 . S
C589 C580 1.390 . S
C589 H582 0.950 . S
C589 C586 1.387 . S
C590 C591 1.387 . S
C590 H594 0.950 . S
C590 C599 1.390 . S
C591 C590 1.387 . S
C591 C593 1.387 . S
H592 C599 0.950 . S
C593 C591 1.387 . S
C593 C595 1.390 . S
C593 H597 0.950 . S
H594 C590 0.950 . S
C595 C593 1.390 . S
C595 C596 1.387 . S
C595 H598 0.950 . S
C596 C595 1.387 . S
C596 C599 1.387 . S
H597 C593 0.950 . S
H598 C595 0.950 . S
C599 C590 1.390 . S
C599 H592 0.950 . S
C599 C596 1.387 . S
C600 C601 1.387 . S
C600 H604 0.950 . S
C600 C609 1.390 . S
C601 C600 1.387 . S
C601 C603 1.387 . S
H602 C609 0.950 . S
C603 C601 1.387 . S
C603 C605 1.390 . S
C603 H607 0.950 . S
H604 C600 0.950 . S
C605 C603 1.390 . S
C605 C606 1.387 . S
C605 H608 0.950 . S
C606 C605 1.387 . S
C606 C609 1.387 . S
H607 C603 0.950 . S
H608 C605 0.950 . S
C609 C600 1.390 . S
C609 H602 0.950 . S
C609 C606 1.387 . S
C610 C611 1.387 . S
C610 H614 0.950 . S
C610 C619 1.390 . S
C611 C610 1.387 . S
C611 C613 1.387 . S
H612 C619 0.950 . S
C613 C611 1.387 . S
C613 C615 1.390 . S
C613 H617 0.950 . S
H614 C610 0.950 . S
C615 C613 1.390 . S
C615 C616 1.387 . S
C615 H618 0.950 . S
C616 C615 1.387 . S
C616 C619 1.387 . S
H617 C613 0.950 . S
H618 C615 0.950 . S
C619 C610 1.390 . S
C619 H612 0.950 . S
C619 C616 1.387 . S
C620 C621 1.387 . S
C620 H624 0.950 . S
C620 C629 1.390 . S
C621 C620 1.387 . S
C621 C623 1.387 . S
H622 C629 0.950 . S
C623 C621 1.387 . S
C623 C625 1.390 . S
C623 H627 0.950 . S
H624 C620 0.950 . S
C625 C623 1.390 . S
C625 C626 1.387 . S
C625 H628 0.950 . S
C626 C625 1.387 . S
C626 C629 1.387 . S
H627 C623 0.950 . S
H628 C625 0.950 . S
C629 C620 1.390 . S
C629 H622 0.950 . S
C629 C626 1.387 . S
C630 C631 1.387 . S
C630 H634 0.950 . S
C630 C639 1.390 . S
C631 C630 1.387 . S
C631 C633 1.387 . S
H632 C639 0.950 . S
C633 C631 1.387 . S
C633 C635 1.390 . S
C633 H637 0.950 . S
H634 C630 0.950 . S
C635 C633 1.390 . S
C635 C636 1.387 . S
C635 H638 0.950 . S
C636 C635 1.387 . S
C636 C639 1.387 . S
H637 C633 0.950 . S
H638 C635 0.950 . S
C639 C630 1.390 . S
C639 H632 0.950 . S
C639 C636 1.387 . S
C640 C641 1.387 . S
C640 H644 0.950 . S
C640 C649 1.390 . S
C641 C640 1.387 . S
C641 C643 1.387 . S
H642 C649 0.950 . S
C643 C641 1.387 . S
C643 C645 1.390 . S
C643 H647 0.950 . S
H644 C640 0.950 . S
C645 C643 1.390 . S
C645 C646 1.387 . S
C645 H648 0.950 . S
C646 C645 1.387 . S
C646 C649 1.387 . S
H647 C643 0.950 . S
H648 C645 0.950 . S
C649 C640 1.390 . S
C649 H642 0.950 . S
C649 C646 1.387 . S
C650 C651 1.387 . S
C650 H654 0.950 . S
C650 C659 1.390 . S
C651 C650 1.387 . S
C651 C653 1.387 . S
H652 C659 0.950 . S
C653 C651 1.387 . S
C653 C655 1.390 . S
C653 H657 0.950 . S
H654 C650 0.950 . S
C655 C653 1.390 . S
C655 C656 1.387 . S
C655 H658 0.950 . S
C656 C655 1.387 . S
C656 C659 1.387 . S
H657 C653 0.950 . S
H658 C655 0.950 . S
C659 C650 1.390 . S
C659 H652 0.950 . S
C659 C656 1.387 . S
C660 C661 1.387 . S
C660 H664 0.950 . S
C660 C669 1.390 . S
C661 C660 1.387 . S
C661 C663 1.387 . S
H662 C669 0.950 . S
C663 C661 1.387 . S
C663 C665 1.390 . S
C663 H667 0.950 . S
H664 C660 0.950 . S
C665 C663 1.390 . S
C665 C666 1.387 . S
C665 H668 0.950 . S
C666 C665 1.387 . S
C666 C669 1.387 . S
H667 C663 0.950 . S
H668 C665 0.950 . S
C669 C660 1.390 . S
C669 H662 0.950 . S
C669 C666 1.387 . S
C670 C671 1.387 . S
C670 H674 0.950 . S
C670 C679 1.390 . S
C671 C670 1.387 . S
C671 C673 1.387 . S
H672 C679 0.950 . S
C673 C671 1.387 . S
C673 C675 1.390 . S
C673 H677 0.950 . S
H674 C670 0.950 . S
C675 C673 1.390 . S
C675 C676 1.387 . S
C675 H678 0.950 . S
C676 C675 1.387 . S
C676 C679 1.387 . S
H677 C673 0.950 . S
H678 C675 0.950 . S
C679 C670 1.390 . S
C679 H672 0.950 . S
C679 C676 1.387 . S
C680 C681 1.387 . S
C680 H684 0.950 . S
C680 C689 1.390 . S
C681 C680 1.387 . S
C681 C683 1.387 . S
H682 C689 0.950 . S
C683 C681 1.387 . S
C683 C685 1.390 . S
C683 H687 0.950 . S
H684 C680 0.950 . S
C685 C683 1.390 . S
C685 C686 1.387 . S
C685 H688 0.950 . S
C686 C685 1.387 . S
C686 C689 1.387 . S
H687 C683 0.950 . S
H688 C685 0.950 . S
C689 C680 1.390 . S
C689 H682 0.950 . S
C689 C686 1.387 . S
C690 C691 1.387 . S
C690 H694 0.950 . S
C690 C699 1.390 . S
C691 C690 1.387 . S
C691 C693 1.387 . S
H692 C699 0.950 . S
C693 C691 1.387 . S
C693 C695 1.390 . S
C693 H697 0.950 . S
H694 C690 0.950 . S
C695 C693 1.390 . S
C695 C696 1.387 . S
C695 H698 0.950 . S
C696 C695 1.387 . S
C696 C699 1.387 . S
H697 C693 0.950 . S
H698 C695 0.950 . S
C699 C690 1.390 . S
C699 H692 0.950 . S
C699 C696 1.387 . S
C700 C701 1.387 . S
C700 H704 0.950 . S
C700 C709 1.390 . S
C701 C700 1.387 . S
C701 C703 1.387 . S
H702 C709 0.950 . S
C703 C701 1.387 . S
C703 C705 1.390 . S
C703 H707 0.950 . S
H704 C700 0.950 . S
C705 C703 1.390 . S
C705 C706 1.387 . S
C705 H708 0.950 . S
C706 C705 1.387 . S
C706 C709 1.387 . S
H707 C703 0.950 . S
H708 C705 0.950 . S
C709 C700 1.390 . S
C709 H702 0.950 . S
C709 C706 1.387 . S
C710 C711 1.387 . S
C710 H714 0.950 . S
C710 C719 1.390 . S
C711 C710 1.387 . S
C711 C713 1.387 . S
H712 C719 0.950 . S
C713 C711 1.387 . S
C713 C715 1.390 . S
C713 H717 0.950 . S
H714 C710 0.950 . S
C715 C713 1.390 . S
C715 C716 1.387 . S
C715 H718 0.950 . S
C716 C715 1.387 . S
C716 C719 1.387 . S
H717 C713 0.950 . S
H718 C715 0.950 . S
C719 C710 1.390 . S
C719 H712 0.950 . S
C719 C716 1.387 . S
C720 C721 1.387 . S
C720 H724 0.950 . S
C720 C729 1.390 . S
C721 C720 1.387 . S
C721 C723 1.387 . S
H722 C729 0.950 . S
C723 C721 1.387 . S
C723 C725 1.390 . S
C723 H727 0.950 . S
H724 C720 0.950 . S
C725 C723 1.390 . S
C725 C726 1.387 . S
C725 H728 0.950 . S
C726 C725 1.387 . S
C726 C729 1.387 . S
H727 C723 0.950 . S
H728 C725 0.950 . S
C729 C720 1.390 . S
C729 H722 0.950 . S
C729 C726 1.387 . S
C730 C731 1.387 . S
C730 H734 0.950 . S
C730 C739 1.390 . S
C731 C730 1.387 . S
C731 C733 1.387 . S
H732 C739 0.950 . S
C733 C731 1.387 . S
C733 C735 1.390 . S
C733 H737 0.950 . S
H734 C730 0.950 . S
C735 C733 1.390 . S
C735 C736 1.387 . S
C735 H738 0.950 . S
C736 C735 1.387 . S
C736 C739 1.387 . S
H737 C733 0.950 . S
H738 C735 0.950 . S
C739 C730 1.390 . S
C739 H732 0.950 . S
C739 C736 1.387 . S
C740 C741 1.387 . S
C740 H744 0.950 . S
C740 C749 1.390 . S
C741 C740 1.387 . S
C741 C743 1.387 . S
H742 C749 0.950 . S
C743 C741 1.387 . S
C743 C745 1.390 . S
C743 H747 0.950 . S
H744 C740 0.950 . S
C745 C743 1.390 . S
C745 C746 1.387 . S
C745 H748 0.950 . S
C746 C745 1.387 . S
C746 C749 1.387 . S
H747 C743 0.950 . S
H748 C745 0.950 . S
C749 C740 1.390 . S
C749 H742 0.950 . S
C749 C746 1.387 . S
C750 C751 1.387 . S
C750 H754 0.950 . S
C750 C759 1.390 . S
C751 C750 1.387 . S
C751 C753 1.387 . S
H752 C759 0.950 . S
C753 C751 1.387 . S
C753 C755 1.390 . S
C753 H757 0.950 . S
H754 C750 0.950 . S
C755 C753 1.390 . S
C755 C756 1.387 . S
C755 H758 0.950 . S
C756 C755 1.387 . S
C756 C759 1.387 . S
H757 C753 0.950 . S
H758 C755 0.950 . S
C759 C750 1.390 . S
C759 H752 0.950 . S
C759 C756 1.387 . S
C760 C761 1.387 . S
C760 H764 0.950 . S
C760 C769 1.390 . S
C761 C760 1.387 . S
C761 C763 1.387 . S
H762 C769 0.950 . S
C763 C761 1.387 . S
C763 C765 1.390 . S
C763 H767 0.950 . S
H764 C760 0.950 . S
C765 C763 1.390 . S
C765 C766 1.387 . S
C765 H768 0.950 . S
C766 C765 1.387 . S
C766 C769 1.387 . S
H767 C763 0.950 . S
H768 C765 0.950 . S
C769 C760 1.390 . S
C769 H762 0.950 . S
C769 C766 1.387 . S
C770 C771 1.387 . S
C770 H774 0.950 . S
C770 C779 1.390 . S
C771 C770 1.387 . S
C771 C773 1.387 . S
H772 C779 0.950 . S
C773 C771 1.387 . S
C773 C775 1.390 . S
C773 H777 0.950 . S
H774 C770 0.950 . S
C775 C773 1.390 . S
C775 C776 1.387 . S
C775 H778 0.950 . S
C776 C775 1.387 . S
C776 C779 1.387 . S
H777 C773 0.950 . S
H778 C775 0.950 . S
C779 C770 1.390 . S
C779 H772 0.950 . S
C779 C776 1.387 . S
C780 C781 1.387 . S
C780 H784 0.950 . S
C780 C789 1.390 . S
C781 C780 1.387 . S
C781 C783 1.387 1_556 S
H782 C789 0.950 . S
C783 C781 1.387 1_554 S
C783 C785 1.390 . S
C783 H787 0.950 . S
H784 C780 0.950 . S
C785 C783 1.390 . S
C785 C786 1.387 . S
C785 H788 0.950 . S
C786 C785 1.387 . S
C786 C789 1.387 1_554 S
H787 C783 0.950 . S
H788 C785 0.950 . S
C789 C780 1.390 . S
C789 H782 0.950 . S
C789 C786 1.387 1_556 S
C790 C791 1.387 . S
C790 H794 0.950 . S
C790 C799 1.390 1_455 S
C791 C790 1.387 . S
C791 C793 1.387 . S
H792 C799 0.950 . S
C793 C791 1.387 . S
C793 C795 1.390 1_455 S
C793 H797 0.950 . S
H794 C790 0.950 . S
C795 C793 1.390 1_655 S
C795 C796 1.387 . S
C795 H798 0.950 . S
C796 C795 1.387 . S
C796 C799 1.387 . S
H797 C793 0.950 . S
H798 C795 0.950 . S
C799 C790 1.390 1_655 S
C799 H792 0.950 . S
C799 C796 1.387 . S
C800 C801 1.387 . S
C800 H804 0.950 . S
C800 C809 1.390 1_564 S
C801 C800 1.387 . S
C801 C803 1.387 . S
H802 C809 0.950 . S
C803 C801 1.387 . S
C803 C805 1.390 1_564 S
C803 H807 0.950 . S
H804 C800 0.950 . S
C805 C803 1.390 1_546 S
C805 C806 1.387 . S
C805 H808 0.950 . S
C806 C805 1.387 . S
C806 C809 1.387 . S
H807 C803 0.950 . S
H808 C805 0.950 . S
C809 C800 1.390 1_546 S
C809 H802 0.950 . S
C809 C806 1.387 . S
C810 C811 1.387 . S
C810 H814 0.950 . S
C810 C819 1.390 . S
C811 C810 1.387 . S
C811 C813 1.387 . S
H812 C819 0.950 . S
C813 C811 1.387 . S
C813 C815 1.390 . S
C813 H817 0.950 . S
H814 C810 0.950 . S
C815 C813 1.390 . S
C815 C816 1.387 . S
C815 H818 0.950 . S
C816 C815 1.387 . S
C816 C819 1.387 . S
H817 C813 0.950 . S
H818 C815 0.950 . S
C819 C810 1.390 . S
C819 H812 0.950 . S
C819 C816 1.387 . S
C820 C821 1.387 . S
C820 H824 0.950 . S
C820 C829 1.390 1_655 S
C821 C820 1.387 . S
C821 C823 1.387 1_556 S
H822 C829 0.950 . S
C823 C821 1.387 1_554 S
C823 C825 1.390 1_655 S
C823 H827 0.950 . S
H824 C820 0.950 . S
C825 C823 1.390 1_455 S
C825 C826 1.387 . S
C825 H828 0.950 . S
C826 C825 1.387 . S
C826 C829 1.387 1_554 S
H827 C823 0.950 . S
H828 C825 0.950 . S
C829 C820 1.390 1_455 S
C829 H822 0.950 . S
C829 C826 1.387 1_556 S
C830 C831 1.387 . S
C830 H834 0.950 . S
C830 C839 1.390 1_565 S
C831 C830 1.387 . S
C831 C833 1.387 . S
H832 C839 0.950 . S
C833 C831 1.387 . S
C833 C835 1.390 1_565 S
C833 H837 0.950 . S
H834 C830 0.950 . S
C835 C833 1.390 1_545 S
C835 C836 1.387 . S
C835 H838 0.950 . S
C836 C835 1.387 . S
C836 C839 1.387 . S
H837 C833 0.950 . S
H838 C835 0.950 . S
C839 C830 1.390 1_545 S
C839 H832 0.950 . S
C839 C836 1.387 . S
C481 C172 1.400 . S
C486 C29 1.424 . S
C491 C212 1.399 . S
C496 C69 1.423 . S
C501 C109 1.424 . S
C506 C12 1.400 . S
C511 C149 1.425 . S
C516 C52 1.400 . S
C521 C189 1.423 . S
C526 C92 1.398 . S
C531 C132 1.399 . S
C536 C229 1.424 . S
C541 C332 1.401 . S
C546 C269 1.425 . S
C551 C309 1.424 . S
C556 C372 1.398 . S
C561 C412 1.401 . S
C566 C349 1.424 . S
C571 C389 1.424 . S
C576 C452 1.398 . S
C581 C429 1.425 . S
C586 C252 1.401 . S
C591 C292 1.400 . S
C596 C469 1.425 . S
C601 C191 1.816 . S
C606 C8 1.753 . S
C611 C48 1.753 . S
C616 C231 1.816 . S
C621 C88 1.756 . S
C626 C31 1.818 . S
C631 C128 1.754 . S
C636 C71 1.817 . S
C641 C111 1.816 . S
C646 C168 1.753 . S
C651 C151 1.817 . S
C656 C208 1.755 . S
C661 C351 1.818 . S
C666 C248 1.756 . S
C671 C288 1.756 . S
C676 C391 1.817 . S
C681 C328 1.755 . S
C686 C431 1.817 . S
C691 C471 1.818 . S
C696 C368 1.756 . S
C701 C408 1.755 . S
C706 C271 1.817 . S
C711 C311 1.816 . S
C716 C448 1.753 . S
C721 C402 1.624 . S
C726 C2 1.624 . S
C731 C42 1.628 . S
C736 C442 1.628 . S
C741 C82 1.626 . S
C746 C242 1.624 . S
C751 C122 1.624 . S
C756 C282 1.624 . S
C761 C162 1.627 . S
C766 C322 1.626 . S
C771 C362 1.625 . S
C776 C202 1.624 . S
C781 C377 2.343 . S
C786 C17 2.343 . S
C791 C417 2.341 . S
C796 C57 2.341 . S
C801 C97 2.343 . S
C806 C457 2.343 . S
C811 C137 2.343 . S
C816 C257 2.343 . S
C821 C297 2.342 . S
C826 C177 2.341 . S
C831 C337 2.343 . S
C836 C217 2.343 . S
