# Generated by pormake.
# Topology vme, (6)-cn, num edge types: 1
# Building blocks:
#     Node 0, Type 0, BuildingBlock: IZENUY_clean_sbu_0, # of connection points: 6
#     Node 1, Type 0, BuildingBlock: IZENUY_clean_sbu_0, # of connection points: 6
#     Node 2, Type 0, BuildingBlock: IZENUY_clean_sbu_0, # of connection points: 6
#     Node 3, Type 0, BuildingBlock: IZENUY_clean_sbu_0, # of connection points: 6
#     Edge 4, Type (0, 0), BuildingBlock: FUNLAD_clean_linker_0, # of connection points: 2
#     Edge 5, Type (0, 0), BuildingBlock: FUNLAD_clean_linker_0, # of connection points: 2
#     Edge 6, Type (0, 0), BuildingBlock: FUNLAD_clean_linker_0, # of connection points: 2
#     Edge 7, Type (0, 0), BuildingBlock: FUNLAD_clean_linker_0, # of connection points: 2
#     Edge 8, Type (0, 0), BuildingBlock: FUNLAD_clean_linker_0, # of connection points: 2
#     Edge 9, Type (0, 0), BuildingBlock: FUNLAD_clean_linker_0, # of connection points: 2
#     Edge 10, Type (0, 0), BuildingBlock: FUNLAD_clean_linker_0, # of connection points: 2
#     Edge 11, Type (0, 0), BuildingBlock: FUNLAD_clean_linker_0, # of connection points: 2
#     Edge 12, Type (0, 0), BuildingBlock: FUNLAD_clean_linker_0, # of connection points: 2
#     Edge 13, Type (0, 0), BuildingBlock: FUNLAD_clean_linker_0, # of connection points: 2
#     Edge 14, Type (0, 0), BuildingBlock: FUNLAD_clean_linker_0, # of connection points: 2
#     Edge 15, Type (0, 0), BuildingBlock: FUNLAD_clean_linker_0, # of connection points: 2
# Relax obj value: 0.240
# Max RMSD: 0.243
# Mean RMSD: 0.243
data_MOF--net-vme--node1-IZENUY_clean_sbu_0--edge1-FUNLAD_clean_linker_0
_symmetry_space_group_name_H-M    P1
_symmetry_Int_Tables_number       1
_symmetry_cell_setting            triclinic
loop_
_symmetry_equiv_pos_as_xyz
'x, y, z'
_cell_length_a     29.763101
_cell_length_b     29.62338
_cell_length_c     32.49214
_cell_angle_alpha  90.063317
_cell_angle_beta   116.81326
_cell_angle_gamma 89.625987
loop_
_atom_site_label
_atom_site_type_symbol
_atom_site_fract_x
_atom_site_fract_y
_atom_site_fract_z
_atom_type_partial_charge
Fe0 Fe 0.1418 0.38669 0.34211 0.0
Fe1 Fe 0.24041 0.33498 0.39634 0.0
O2 O 0.19879 0.37917 0.3927 0.0
Fe3 Fe 0.21376 0.4157 0.43992 0.0
O4 O 0.15877 0.39832 0.44516 0.0
O5 O 0.10631 0.40935 0.37233 0.0
O6 O 0.12032 0.33164 0.34818 0.0
C7 C 0.14326 0.29533 0.34973 0.0
C8 C 0.16635 0.474 0.36148 0.0
O9 O 0.18985 0.29552 0.35975 0.0
C10 C 0.30511 0.40896 0.44044 0.0
O11 O 0.16668 0.36496 0.30286 0.0
O12 O 0.24752 0.35695 0.34802 0.0
O13 O 0.18055 0.46529 0.40391 0.0
O14 O 0.16041 0.44236 0.3336 0.0
C15 C 0.24297 0.33012 0.48104 0.0
O16 O 0.29809 0.36668 0.43381 0.0
O17 O 0.26976 0.43464 0.43722 0.0
C18 C 0.21147 0.36021 0.30821 0.0
O19 O 0.23501 0.31031 0.44425 0.0
O20 O 0.24852 0.37262 0.48433 0.0
C21 C 0.11467 0.40428 0.41402 0.0
Fe22 Fe 0.78573 0.83528 0.12626 0.0
Fe23 Fe 0.81054 0.92053 0.08786 0.0
O24 O 0.82806 0.87913 0.13136 0.0
Fe25 Fe 0.88823 0.88113 0.17905 0.0
O26 O 0.90451 0.82672 0.16479 0.0
O27 O 0.83563 0.79226 0.15614 0.0
O28 O 0.78513 0.81594 0.07318 0.0
C29 C 0.77512 0.8403 0.03836 0.0
C30 C 0.82375 0.85244 0.2179 0.0
O31 O 0.77046 0.88266 0.04069 0.0
C32 C 0.86691 0.97036 0.17047 0.0
O33 O 0.72834 0.871 0.09571 0.0
O34 O 0.75911 0.93889 0.09859 0.0
O35 O 0.86724 0.85652 0.21989 0.0
O36 O 0.78493 0.85157 0.1795 0.0
C37 C 0.90662 0.90522 0.1035 0.0
O38 O 0.84822 0.96603 0.127 0.0
O39 O 0.87573 0.93605 0.19588 0.0
C40 C 0.72355 0.91382 0.095 0.0
O41 O 0.86093 0.90394 0.07491 0.0
O42 O 0.91981 0.90597 0.14652 0.0
C43 C 0.8809 0.79095 0.1622 0.0
Fe44 Fe 0.8073 0.59171 0.58617 0.0
Fe45 Fe 0.88446 0.62664 0.67975 0.0
O46 O 0.8253 0.63166 0.63101 0.0
Fe47 Fe 0.78436 0.67695 0.6264 0.0
O48 O 0.78635 0.69734 0.57481 0.0
O49 O 0.76961 0.63192 0.53979 0.0
O50 O 0.8595 0.60677 0.57545 0.0
C51 C 0.90479 0.60339 0.60489 0.0
C52 C 0.71901 0.60159 0.59061 0.0
O53 O 0.91669 0.60151 0.64766 0.0
C54 C 0.81875 0.65617 0.71703 0.0
O55 O 0.84271 0.54415 0.62424 0.0
O56 O 0.86887 0.57192 0.69376 0.0
O57 O 0.72601 0.64408 0.59346 0.0
O58 O 0.75388 0.57496 0.59446 0.0
C59 C 0.88153 0.71732 0.66735 0.0
O60 O 0.8627 0.65117 0.72024 0.0
O61 O 0.78089 0.65935 0.67814 0.0
C62 C 0.86061 0.53841 0.66754 0.0
O63 O 0.90377 0.68074 0.66863 0.0
O64 O 0.83539 0.71764 0.65868 0.0
C65 C 0.77542 0.67424 0.53904 0.0
Fe66 Fe 0.23942 0.17117 0.89593 0.0
Fe67 Fe 0.21035 0.09096 0.93779 0.0
O68 O 0.19652 0.12833 0.89141 0.0
Fe69 Fe 0.13934 0.12299 0.84073 0.0
O70 O 0.1195 0.17845 0.84825 0.0
O71 O 0.18975 0.21258 0.86016 0.0
O72 O 0.23487 0.19558 0.9444 0.0
C73 C 0.24199 0.17527 0.98072 0.0
C74 C 0.20957 0.14754 0.80727 0.0
O75 O 0.24618 0.13257 0.98314 0.0
C76 C 0.16249 0.03485 0.85817 0.0
O77 O 0.29637 0.13718 0.93267 0.0
O78 O 0.26551 0.07036 0.9345 0.0
O79 O 0.1647 0.14445 0.80193 0.0
O80 O 0.24576 0.14943 0.84708 0.0
C81 C 0.11166 0.10538 0.91211 0.0
O82 O 0.17625 0.04261 0.90069 0.0
O83 O 0.15635 0.06703 0.83081 0.0
C84 C 0.30153 0.09452 0.9377 0.0
O85 O 0.15584 0.10989 0.94337 0.0
O86 O 0.10331 0.10086 0.87039 0.0
C87 C 0.1431 0.21409 0.85003 0.0
C88 C 0.92405 0.0157 0.23921 0.0
C89 C 0.88967 0.01394 0.19207 0.0
C90 C 0.95151 0.05484 0.25833 0.0
C91 C 0.94493 0.09326 0.23082 0.0
C92 C 0.90853 0.09245 0.18446 0.0
C93 C 0.88149 0.05307 0.16511 0.0
C94 C 0.97512 0.13467 0.24963 0.0
C95 C 0.0233 0.13367 0.28272 0.0
C96 C 0.05387 0.17511 0.30066 0.0
C97 C 0.10641 0.17286 0.31745 0.0
C98 C 0.13587 0.21168 0.3338 0.0
C99 C 0.1133 0.25338 0.33423 0.0
H100 H 0.99144 0.21936 0.29109 0.0
C101 C 0.06085 0.25515 0.31872 0.0
C102 C 0.03153 0.21658 0.30218 0.0
H103 H 0.04209 0.28652 0.31901 0.0
H104 H 0.93116 0.98631 0.26114 0.0
H105 H 0.97803 0.05483 0.2946 0.0
H106 H 0.90221 0.12189 0.16272 0.0
H107 H 0.85516 0.05296 0.12877 0.0
H108 H 0.95813 0.16658 0.23348 0.0
H109 H 0.04193 0.10136 0.29536 0.0
H110 H 0.12462 0.14114 0.31721 0.0
H111 H 0.17616 0.20905 0.34579 0.0
C112 C 0.12409 0.5266 0.2946 0.0
C113 C 0.14133 0.51772 0.34184 0.0
C114 C 0.09053 0.5621 0.2731 0.0
C115 C 0.07373 0.5901 0.2985 0.0
C116 C 0.09324 0.58276 0.34623 0.0
C117 C 0.12678 0.54711 0.36775 0.0
C118 C 0.03378 0.62519 0.27627 0.0
C119 C 0.0192 0.64131 0.23329 0.0
C120 C 0.97991 0.67681 0.21219 0.0
C121 C 0.98436 0.70744 0.1814 0.0
C122 C 0.9504 0.74327 0.16333 0.0
C123 C 0.91044 0.74862 0.17476 0.0
H124 H 0.93311 0.65688 0.2445 0.0
C125 C 0.90383 0.71637 0.20316 0.0
C126 C 0.9385 0.68081 0.22199 0.0
H127 H 0.87346 0.71989 0.21266 0.0
H128 H 0.1344 0.50456 0.27354 0.0
H129 H 0.07623 0.56569 0.23624 0.0
H130 H 0.08115 0.60375 0.36678 0.0
H131 H 0.13892 0.54109 0.40412 0.0
H132 H 0.01649 0.63904 0.29674 0.0
H133 H 0.03898 0.63098 0.2138 0.0
H134 H 0.01542 0.70473 0.17273 0.0
H135 H 0.95621 0.76765 0.14137 0.0
C136 C 0.11334 0.98598 0.78988 0.0
C137 C 0.14047 0.9906 0.83808 0.0
C138 C 0.08504 0.94741 0.77051 0.0
C139 C 0.08364 0.91228 0.79883 0.0
C140 C 0.11328 0.91538 0.84674 0.0
C141 C 0.14107 0.9544 0.8663 0.0
C142 C 0.05177 0.87209 0.77892 0.0
C143 C 1.00596 0.87485 0.74221 0.0
C144 C 0.97408 0.83471 0.72185 0.0
C145 C 0.92138 0.83874 0.70196 0.0
C146 C 0.89081 0.80089 0.68343 0.0
C147 C 0.91253 0.75856 0.68367 0.0
H148 H 0.03603 0.78873 0.73461 0.0
C149 C 0.96528 0.75518 0.70201 0.0
C150 C 0.99565 0.79269 0.72097 0.0
H151 H 0.98347 0.72325 0.70252 0.0
H152 H 0.11227 0.01293 0.76694 0.0
H153 H 0.06393 0.94531 0.73334 0.0
H154 H 0.11341 0.8883 0.86918 0.0
H155 H 0.16168 0.95677 0.90349 0.0
H156 H 0.06519 0.83998 0.79647 0.0
H157 H 0.99033 0.90772 0.72785 0.0
H158 H 0.9039 0.87101 0.70168 0.0
H159 H 0.85036 0.8047 0.66938 0.0
C160 C 0.91827 0.49218 0.73573 0.0
C161 C 0.88451 0.49463 0.68841 0.0
C162 C 0.9474 0.45346 0.75443 0.0
C163 C 0.9431 0.41603 0.72635 0.0
C164 C 0.90735 0.41735 0.67974 0.0
C165 C 0.87869 0.45642 0.66079 0.0
C166 C 0.97463 0.37495 0.74512 0.0
C167 C 0.02251 0.3763 0.77878 0.0
C168 C 0.05355 0.33493 0.79785 0.0
C169 C 0.10613 0.33658 0.81475 0.0
C170 C 0.13579 0.29763 0.83229 0.0
C171 C 0.11336 0.2565 0.83389 0.0
H172 H 0.99131 0.29186 0.78952 0.0
C173 C 0.06088 0.2555 0.8184 0.0
C174 C 0.03142 0.29409 0.80061 0.0
H175 H 0.04214 0.22465 0.81955 0.0
H176 H 0.92369 0.52082 0.75821 0.0
H177 H 0.97337 0.45298 0.79084 0.0
H178 H 0.90275 0.3886 0.65758 0.0
H179 H 0.853 0.45709 0.62429 0.0
H180 H 0.95866 0.34294 0.72897 0.0
H181 H 0.04027 0.40871 0.7915 0.0
H182 H 0.12417 0.36788 0.81361 0.0
H183 H 0.17607 0.29967 0.84418 0.0
C184 C 0.97205 0.55246 0.60551 0.0
C185 C 0.94062 0.59027 0.5873 0.0
C186 C 0.99537 0.53249 0.581 0.0
C187 C 0.98788 0.55043 0.53821 0.0
C188 C 0.96009 0.59051 0.52229 0.0
C189 C 0.93608 0.60993 0.54627 0.0
C190 C 1.00701 0.5275 0.50865 0.0
C191 C 1.00894 0.48223 0.5059 0.0
C192 C 0.02841 0.45896 0.47672 0.0
C193 C 0.05361 0.41758 0.49198 0.0
C194 C 0.07833 0.39755 0.46893 0.0
C195 C 0.07723 0.41801 0.42951 0.0
H196 H 1.00324 0.50875 0.42156 0.0
C197 C 0.04815 0.45721 0.41167 0.0
C198 C 0.02401 0.47768 0.4352 0.0
H199 H 0.04712 0.47382 0.38155 0.0
H200 H 0.9757 0.5365 0.63687 0.0
H201 H 0.01804 0.50241 0.59493 0.0
H202 H 0.95446 0.60533 0.48981 0.0
H203 H 0.91182 0.63904 0.53155 0.0
H204 H 0.01752 0.54862 0.48712 0.0
H205 H 0.99825 0.46131 0.52746 0.0
H206 H 0.05682 0.4021 0.52341 0.0
H207 H 0.10071 0.36736 0.48337 0.0
C208 C 0.97449 0.95412 0.10383 0.0
C209 C 0.94168 0.91766 0.08501 0.0
C210 C 0.99684 0.97427 0.07877 0.0
C211 C 0.98699 0.95784 0.03483 0.0
C212 C 0.95792 0.91887 0.01816 0.0
C213 C 0.93487 0.8993 0.04273 0.0
C214 C 1.00487 0.98142 1.00489 0.0
C215 C 1.00687 0.02674 1.00332 0.0
C216 C 0.02554 0.05078 0.97415 0.0
C217 C 0.05127 0.09148 0.99032 0.0
C218 C 0.07579 0.11177 0.96742 0.0
C219 C 0.07399 0.09221 0.92732 0.0
H220 H 0.99895 1.00276 0.91755 0.0
C221 C 0.04416 0.05395 0.90851 0.0
C222 C 0.02018 0.03322 0.93187 0.0
H223 H 0.04253 0.03807 0.87781 0.0
H224 H 0.9799 0.96908 0.13618 0.0
H225 H 0.02052 1.00345 0.09318 0.0
H226 H 0.95048 0.90522 0.98475 0.0
H227 H 0.90948 0.87126 0.02752 0.0
H228 H 0.01441 0.96085 0.98222 0.0
H229 H 0.9971 0.04704 0.02604 0.0
H230 H 0.05518 0.10608 0.02236 0.0
H231 H 0.09872 0.14126 0.98257 0.0
C232 C 0.25298 0.18273 0.06203 0.0
C233 C 0.24167 0.20216 0.019 0.0
C234 C 0.24754 0.2081 0.09597 0.0
C235 C 0.23014 0.25311 0.08709 0.0
C236 C 0.21931 0.27243 0.04436 0.0
C237 C 0.2255 0.24751 0.01091 0.0
C238 C 0.22014 0.28011 0.12048 0.0
C239 C 0.24834 0.27666 0.16626 0.0
C240 C 0.2383 0.30369 0.19969 0.0
C241 C 0.27857 0.31383 0.24248 0.0
C242 C 0.27009 0.33536 0.27655 0.0
C243 C 0.22084 0.34644 0.26891 0.0
H244 H 0.15714 0.30888 0.15859 0.0
C245 C 0.18064 0.33811 0.22528 0.0
C246 C 0.18924 0.31689 0.19097 0.0
H247 H 0.14225 0.34591 0.21833 0.0
H248 H 0.265 0.1478 0.06912 0.0
H249 H 0.25522 0.19199 0.12839 0.0
H250 H 0.20563 0.30691 0.03665 0.0
H251 H 0.21591 0.26357 0.97802 0.0
H252 H 0.19037 0.30539 0.10666 0.0
H253 H 0.28122 0.25461 0.17979 0.0
H254 H 0.31668 0.30415 0.24999 0.0
H255 H 0.30206 0.34137 0.30967 0.0
C256 C 0.77175 0.82699 0.25647 0.0
C257 C 0.81866 0.84045 0.26001 0.0
C258 C 0.76751 0.8111 0.29505 0.0
C259 C 0.81007 0.8084 0.33826 0.0
C260 C 0.85645 0.8238 0.34232 0.0
C261 C 0.86084 0.83932 0.30358 0.0
C262 C 0.80716 0.79008 0.37964 0.0
C263 C 0.77421 0.75781 0.37721 0.0
C264 C 0.77278 0.73769 0.41856 0.0
C265 C 0.75617 0.69307 0.4165 0.0
C266 C 0.7558 0.67263 0.45519 0.0
C267 C 0.77121 0.69671 0.49661 0.0
H268 H 0.79844 0.79707 0.46209 0.0
C269 C 0.78607 0.74195 0.4981 0.0
C270 C 0.78691 0.76219 0.45959 0.0
H271 H 0.79814 0.76159 0.5294 0.0
H272 H 0.73829 0.82771 0.2236 0.0
H273 H 0.73079 0.80102 0.29086 0.0
H274 H 0.88972 0.82267 0.37534 0.0
H275 H 0.89747 0.84964 0.30767 0.0
H276 H 0.83534 0.80132 0.41317 0.0
H277 H 0.74951 0.74331 0.34393 0.0
H278 H 0.74455 0.67356 0.38516 0.0
H279 H 0.74412 0.63777 0.45279 0.0
C280 C 0.77183 0.77242 0.9908 0.0
C281 C 0.77374 0.81962 0.9962 0.0
C282 C 0.77812 0.7524 0.95468 0.0
C283 C 0.7868 0.77918 0.92326 0.0
C284 C 0.78756 0.82634 0.92807 0.0
C285 C 0.78066 0.84639 0.96384 0.0
C286 C 0.79856 0.75912 0.88716 0.0
C287 C 0.78219 0.71833 0.86802 0.0
C288 C 0.79376 0.69977 0.83132 0.0
C289 C 0.75686 0.67512 0.79507 0.0
C290 C 0.76561 0.65965 0.75861 0.0
C291 C 0.81204 0.66738 0.75834 0.0
H292 H 0.87053 0.72415 0.86001 0.0
C293 C 0.85002 0.68989 0.79591 0.0
C294 C 0.84085 0.70625 0.8319 0.0
H295 H 0.8861 0.69651 0.79659 0.0
H296 H 0.76706 0.75079 0.01539 0.0
H297 H 0.77835 0.71594 0.95277 0.0
H298 H 0.79446 0.84778 0.90455 0.0
H299 H 0.78308 0.88278 0.96732 0.0
H300 H 0.8199 0.77966 0.87456 0.0
H301 H 0.7566 0.69941 0.87685 0.0
H302 H 0.72052 0.66921 0.79412 0.0
H303 H 0.73569 0.64227 0.73017 0.0
C304 C 0.17925 0.17004 0.7245 0.0
C305 C 0.21926 0.16074 0.76808 0.0
C306 C 0.18834 0.19053 0.69024 0.0
C307 C 0.23769 0.202 0.69898 0.0
C308 C 0.27773 0.1909 0.74173 0.0
C309 C 0.26875 0.1701 0.77575 0.0
C310 C 0.24833 0.22832 0.66564 0.0
C311 C 0.21989 0.2256 0.61987 0.0
C312 C 0.2302 0.2523 0.58664 0.0
C313 C 0.21837 0.23348 0.5435 0.0
C314 C 0.22481 0.25831 0.51022 0.0
C315 C 0.24227 0.30307 0.51896 0.0
H316 H 0.25726 0.31245 0.62884 0.0
C317 C 0.25457 0.32195 0.56239 0.0
C318 C 0.24883 0.29668 0.59611 0.0
H319 H 0.2676 0.35644 0.56997 0.0
H320 H 0.1407 0.16354 0.71754 0.0
H321 H 0.15642 0.19935 0.65791 0.0
H322 H 0.31606 0.19928 0.74924 0.0
H323 H 0.30058 0.1633 0.80885 0.0
H324 H 0.28175 0.2493 0.67925 0.0
H325 H 0.1895 0.20127 0.60593 0.0
H326 H 0.20371 0.1995 0.53534 0.0
H327 H 0.21444 0.24273 0.477 0.0
C328 C 0.36291 0.47545 0.46273 0.0
C329 C 0.35612 0.42849 0.45659 0.0
C330 C 0.41075 0.4944 0.47911 0.0
C331 C 0.45335 0.46682 0.49018 0.0
C332 C 0.44643 0.41999 0.48307 0.0
C333 C 0.39843 0.40098 0.46657 0.0
C334 C 0.5052 0.4855 0.50793 0.0
C335 C 0.51893 0.5266 0.5277 0.0
C336 C 0.57082 0.54503 0.54511 0.0
C337 C 0.57779 0.59204 0.54944 0.0
C338 C 0.62586 0.61067 0.56491 0.0
C339 C 0.66813 0.58258 0.57671 0.0
H340 H 0.61024 0.48057 0.55743 0.0
C341 C 0.66129 0.53549 0.57378 0.0
C342 C 0.61339 0.51694 0.55835 0.0
H343 H 0.69304 0.51269 0.58324 0.0
H344 H 0.33113 0.49785 0.45479 0.0
H345 H 0.41368 0.53071 0.48229 0.0
H346 H 0.47839 0.39789 0.49075 0.0
H347 H 0.3946 0.36475 0.46203 0.0
H348 H 0.53303 0.464 0.50463 0.0
H349 H 0.49125 0.54837 0.53089 0.0
H350 H 0.5458 0.61453 0.5401 0.0
H351 H 0.62973 0.64704 0.56698 0.0
C352 C 0.39656 0.09517 0.97379 0.0
C353 C 0.35085 0.07189 0.95144 0.0
C354 C 0.44259 0.07177 0.98973 0.0
C355 C 0.44357 0.02474 0.98317 0.0
C356 C 0.39785 1.00212 0.95915 0.0
C357 C 0.35215 0.02523 0.94384 0.0
C358 C 0.49109 0.99794 0.99987 0.0
C359 C 0.53401 0.0093 0.03697 0.0
C360 C 0.58159 0.98253 0.05361 0.0
C361 C 0.62728 0.00488 0.07874 0.0
C362 C 0.67304 0.98199 0.09325 0.0
C363 C 0.67441 0.93582 0.0836 0.0
H364 H 0.54824 0.91693 0.02764 0.0
C365 C 0.62872 0.91267 0.06046 0.0
C366 C 0.58268 0.9358 0.04547 0.0
H367 H 0.62853 0.87707 0.05274 0.0
H368 H 0.39677 0.13113 0.9799 0.0
H369 H 0.47713 0.09068 1.0068 0.0
H370 H 0.39739 0.96612 0.95301 0.0
H371 H 0.31762 0.0063 0.92621 0.0
H372 H 0.48984 0.96703 0.98143 0.0
H373 H 0.53514 0.04024 0.05537 0.0
H374 H 0.62769 0.0406 0.08615 0.0
H375 H 0.70755 1.0008 0.11151 0.0
loop_
_geom_bond_atom_site_label_1
_geom_bond_atom_site_label_2
_geom_bond_distance
_geom_bond_site_symmetry_2
_ccdc_geom_bond_type
Fe0 O2 1.918 . S
Fe0 O5 1.997 . S
Fe0 O6 2.002 . S
Fe0 O11 1.976 . S
Fe0 O14 1.996 . S
Fe1 O2 1.918 . S
Fe1 O9 1.997 . S
Fe1 O12 1.996 . S
Fe1 O16 1.976 . S
Fe1 O19 2.002 . S
O2 Fe0 1.918 . S
O2 Fe1 1.918 . S
O2 Fe3 1.918 . S
Fe3 O2 1.918 . S
Fe3 O4 2.002 . S
Fe3 O13 1.976 . S
Fe3 O17 1.996 . S
Fe3 O20 1.997 . S
O4 Fe3 2.002 . S
O4 C21 1.295 . S
O5 Fe0 1.997 . S
O5 C21 1.235 . S
O6 Fe0 2.002 . S
O6 C7 1.295 . S
C7 O6 1.295 . S
C7 O9 1.235 . S
C8 O13 1.287 . S
C8 O14 1.255 . S
O9 Fe1 1.997 . S
O9 C7 1.235 . S
C10 O16 1.287 . S
C10 O17 1.255 . S
O11 Fe0 1.976 . S
O11 C18 1.287 . S
O12 Fe1 1.996 . S
O12 C18 1.255 . S
O13 Fe3 1.976 . S
O13 C8 1.287 . S
O14 Fe0 1.996 . S
O14 C8 1.255 . S
C15 O19 1.295 . S
C15 O20 1.235 . S
O16 Fe1 1.976 . S
O16 C10 1.287 . S
O17 Fe3 1.996 . S
O17 C10 1.255 . S
C18 O11 1.287 . S
C18 O12 1.255 . S
O19 Fe1 2.002 . S
O19 C15 1.295 . S
O20 Fe3 1.997 . S
O20 C15 1.235 . S
C21 O4 1.295 . S
C21 O5 1.235 . S
Fe22 O24 1.918 . S
Fe22 O27 1.997 . S
Fe22 O28 2.002 . S
Fe22 O33 1.976 . S
Fe22 O36 1.996 . S
Fe23 O24 1.918 . S
Fe23 O31 1.997 . S
Fe23 O34 1.996 . S
Fe23 O38 1.976 . S
Fe23 O41 2.002 . S
O24 Fe22 1.918 . S
O24 Fe23 1.918 . S
O24 Fe25 1.918 . S
Fe25 O24 1.918 . S
Fe25 O26 2.002 . S
Fe25 O35 1.976 . S
Fe25 O39 1.996 . S
Fe25 O42 1.997 . S
O26 Fe25 2.002 . S
O26 C43 1.295 . S
O27 Fe22 1.997 . S
O27 C43 1.235 . S
O28 Fe22 2.002 . S
O28 C29 1.295 . S
C29 O28 1.295 . S
C29 O31 1.235 . S
C30 O35 1.287 . S
C30 O36 1.255 . S
O31 Fe23 1.997 . S
O31 C29 1.235 . S
C32 O38 1.287 . S
C32 O39 1.255 . S
O33 Fe22 1.976 . S
O33 C40 1.287 . S
O34 Fe23 1.996 . S
O34 C40 1.255 . S
O35 Fe25 1.976 . S
O35 C30 1.287 . S
O36 Fe22 1.996 . S
O36 C30 1.255 . S
C37 O41 1.295 . S
C37 O42 1.235 . S
O38 Fe23 1.976 . S
O38 C32 1.287 . S
O39 Fe25 1.996 . S
O39 C32 1.255 . S
C40 O33 1.287 . S
C40 O34 1.255 . S
O41 Fe23 2.002 . S
O41 C37 1.295 . S
O42 Fe25 1.997 . S
O42 C37 1.235 . S
C43 O26 1.295 . S
C43 O27 1.235 . S
Fe44 O46 1.918 . S
Fe44 O49 1.997 . S
Fe44 O50 2.002 . S
Fe44 O55 1.976 . S
Fe44 O58 1.996 . S
Fe45 O46 1.918 . S
Fe45 O53 1.997 . S
Fe45 O56 1.996 . S
Fe45 O60 1.976 . S
Fe45 O63 2.002 . S
O46 Fe44 1.918 . S
O46 Fe45 1.918 . S
O46 Fe47 1.918 . S
Fe47 O46 1.918 . S
Fe47 O48 2.002 . S
Fe47 O57 1.976 . S
Fe47 O61 1.996 . S
Fe47 O64 1.997 . S
O48 Fe47 2.002 . S
O48 C65 1.295 . S
O49 Fe44 1.997 . S
O49 C65 1.235 . S
O50 Fe44 2.002 . S
O50 C51 1.295 . S
C51 O50 1.295 . S
C51 O53 1.235 . S
C52 O57 1.287 . S
C52 O58 1.255 . S
O53 Fe45 1.997 . S
O53 C51 1.235 . S
C54 O60 1.287 . S
C54 O61 1.255 . S
O55 Fe44 1.976 . S
O55 C62 1.287 . S
O56 Fe45 1.996 . S
O56 C62 1.255 . S
O57 Fe47 1.976 . S
O57 C52 1.287 . S
O58 Fe44 1.996 . S
O58 C52 1.255 . S
C59 O63 1.295 . S
C59 O64 1.235 . S
O60 Fe45 1.976 . S
O60 C54 1.287 . S
O61 Fe47 1.996 . S
O61 C54 1.255 . S
C62 O55 1.287 . S
C62 O56 1.255 . S
O63 Fe45 2.002 . S
O63 C59 1.295 . S
O64 Fe47 1.997 . S
O64 C59 1.235 . S
C65 O48 1.295 . S
C65 O49 1.235 . S
Fe66 O68 1.918 . S
Fe66 O71 1.997 . S
Fe66 O72 2.002 . S
Fe66 O77 1.976 . S
Fe66 O80 1.996 . S
Fe67 O68 1.918 . S
Fe67 O75 1.997 . S
Fe67 O78 1.996 . S
Fe67 O82 1.976 . S
Fe67 O85 2.002 . S
O68 Fe66 1.918 . S
O68 Fe67 1.918 . S
O68 Fe69 1.918 . S
Fe69 O68 1.918 . S
Fe69 O70 2.002 . S
Fe69 O79 1.976 . S
Fe69 O83 1.996 . S
Fe69 O86 1.997 . S
O70 Fe69 2.002 . S
O70 C87 1.295 . S
O71 Fe66 1.997 . S
O71 C87 1.235 . S
O72 Fe66 2.002 . S
O72 C73 1.295 . S
C73 O72 1.295 . S
C73 O75 1.235 . S
C74 O79 1.287 . S
C74 O80 1.255 . S
O75 Fe67 1.997 . S
O75 C73 1.235 . S
C76 O82 1.287 . S
C76 O83 1.255 . S
O77 Fe66 1.976 . S
O77 C84 1.287 . S
O78 Fe67 1.996 . S
O78 C84 1.255 . S
O79 Fe69 1.976 . S
O79 C74 1.287 . S
O80 Fe66 1.996 . S
O80 C74 1.255 . S
C81 O85 1.295 . S
C81 O86 1.235 . S
O82 Fe67 1.976 . S
O82 C76 1.287 . S
O83 Fe69 1.996 . S
O83 C76 1.255 . S
C84 O77 1.287 . S
C84 O78 1.255 . S
O85 Fe67 2.002 . S
O85 C81 1.295 . S
O86 Fe69 1.997 . S
O86 C81 1.235 . S
C87 O70 1.295 . S
C87 O71 1.235 . S
C88 C89 1.386 . S
C88 C90 1.383 . S
C88 H104 0.951 1_545 S
C89 C88 1.386 . S
C89 C93 1.383 . S
C90 C88 1.383 . S
C90 C91 1.402 . S
C90 H105 0.951 . S
C91 C90 1.402 . S
C91 C92 1.375 . S
C91 C94 1.481 . S
C92 C91 1.375 . S
C92 C93 1.367 . S
C92 H106 0.951 . S
C93 C89 1.383 . S
C93 C92 1.367 . S
C93 H107 0.950 . S
C94 C91 1.481 . S
C94 C95 1.297 1_655 S
C94 H108 0.950 . S
C95 C94 1.297 1_455 S
C95 C96 1.479 . S
C95 H109 0.950 . S
C96 C95 1.479 . S
C96 C97 1.375 . S
C96 C102 1.404 . S
C97 C96 1.375 . S
C97 C98 1.369 . S
C97 H110 0.950 . S
C98 C97 1.369 . S
C98 C99 1.392 . S
C98 H111 0.951 . S
C99 C98 1.392 . S
C99 C101 1.384 . S
H100 C102 0.949 . S
C101 C99 1.384 . S
C101 C102 1.385 . S
C101 H103 0.950 . S
C102 C96 1.404 . S
C102 H100 0.949 . S
C102 C101 1.385 . S
H103 C101 0.950 . S
H104 C88 0.951 1_565 S
H105 C90 0.951 . S
H106 C92 0.951 . S
H107 C93 0.950 . S
H108 C94 0.950 . S
H109 C95 0.950 . S
H110 C97 0.950 . S
H111 C98 0.951 . S
C112 C113 1.386 . S
C112 C114 1.383 . S
C112 H128 0.951 . S
C113 C112 1.386 . S
C113 C117 1.383 . S
C114 C112 1.383 . S
C114 C115 1.402 . S
C114 H129 0.951 . S
C115 C114 1.402 . S
C115 C116 1.375 . S
C115 C118 1.481 . S
C116 C115 1.375 . S
C116 C117 1.367 . S
C116 H130 0.951 . S
C117 C113 1.383 . S
C117 C116 1.367 . S
C117 H131 0.950 . S
C118 C115 1.481 . S
C118 C119 1.297 1_455 S
C118 H132 0.950 . S
C119 C118 1.297 1_655 S
C119 C120 1.479 . S
C119 H133 0.950 1_655 S
C120 C119 1.479 . S
C120 C121 1.375 . S
C120 C126 1.404 . S
C121 C120 1.375 . S
C121 C122 1.369 . S
C121 H134 0.950 . S
C122 C121 1.369 . S
C122 C123 1.392 . S
C122 H135 0.951 . S
C123 C122 1.392 . S
C123 C125 1.384 . S
H124 C126 0.949 . S
C125 C123 1.384 . S
C125 C126 1.385 . S
C125 H127 0.950 . S
C126 C120 1.404 . S
C126 H124 0.949 . S
C126 C125 1.385 . S
H127 C125 0.950 . S
H128 C112 0.951 . S
H129 C114 0.951 . S
H130 C116 0.951 . S
H131 C117 0.950 . S
H132 C118 0.950 . S
H133 C119 0.950 1_455 S
H134 C121 0.950 . S
H135 C122 0.951 . S
C136 C137 1.386 . S
C136 C138 1.383 . S
C136 H152 0.951 . S
C137 C136 1.386 . S
C137 C141 1.383 . S
C138 C136 1.383 . S
C138 C139 1.402 . S
C138 H153 0.951 . S
C139 C138 1.402 . S
C139 C140 1.375 . S
C139 C142 1.481 . S
C140 C139 1.375 . S
C140 C141 1.367 . S
C140 H154 0.951 . S
C141 C137 1.383 . S
C141 C140 1.367 . S
C141 H155 0.950 . S
C142 C139 1.481 . S
C142 C143 1.297 . S
C142 H156 0.950 . S
C143 C142 1.297 . S
C143 C144 1.479 1_455 S
C143 H157 0.950 . S
C144 C143 1.479 1_655 S
C144 C145 1.375 . S
C144 C150 1.404 . S
C145 C144 1.375 . S
C145 C146 1.369 . S
C145 H158 0.950 . S
C146 C145 1.369 . S
C146 C147 1.392 . S
C146 H159 0.951 . S
C147 C146 1.392 . S
C147 C149 1.384 . S
H148 C150 0.949 1_455 S
C149 C147 1.384 . S
C149 C150 1.385 . S
C149 H151 0.950 . S
C150 C144 1.404 . S
C150 H148 0.949 1_655 S
C150 C149 1.385 . S
H151 C149 0.950 . S
H152 C136 0.951 . S
H153 C138 0.951 . S
H154 C140 0.951 . S
H155 C141 0.950 . S
H156 C142 0.950 . S
H157 C143 0.950 . S
H158 C145 0.950 . S
H159 C146 0.951 . S
C160 C161 1.386 . S
C160 C162 1.383 . S
C160 H176 0.951 . S
C161 C160 1.386 . S
C161 C165 1.383 . S
C162 C160 1.383 . S
C162 C163 1.402 . S
C162 H177 0.951 . S
C163 C162 1.402 . S
C163 C164 1.375 . S
C163 C166 1.481 . S
C164 C163 1.375 . S
C164 C165 1.367 . S
C164 H178 0.951 . S
C165 C161 1.383 . S
C165 C164 1.367 . S
C165 H179 0.950 . S
C166 C163 1.481 . S
C166 C167 1.297 1_655 S
C166 H180 0.950 . S
C167 C166 1.297 1_455 S
C167 C168 1.479 . S
C167 H181 0.950 . S
C168 C167 1.479 . S
C168 C169 1.375 . S
C168 C174 1.404 . S
C169 C168 1.375 . S
C169 C170 1.369 . S
C169 H182 0.950 . S
C170 C169 1.369 . S
C170 C171 1.392 . S
C170 H183 0.951 . S
C171 C170 1.392 . S
C171 C173 1.384 . S
H172 C174 0.949 1_655 S
C173 C171 1.384 . S
C173 C174 1.385 . S
C173 H175 0.950 . S
C174 C168 1.404 . S
C174 H172 0.949 1_455 S
C174 C173 1.385 . S
H175 C173 0.950 . S
H176 C160 0.951 . S
H177 C162 0.951 . S
H178 C164 0.951 . S
H179 C165 0.950 . S
H180 C166 0.950 . S
H181 C167 0.950 . S
H182 C169 0.950 . S
H183 C170 0.951 . S
C184 C185 1.386 . S
C184 C186 1.383 . S
C184 H200 0.951 . S
C185 C184 1.386 . S
C185 C189 1.383 . S
C186 C184 1.383 . S
C186 C187 1.402 . S
C186 H201 0.951 . S
C187 C186 1.402 . S
C187 C188 1.375 . S
C187 C190 1.481 . S
C188 C187 1.375 . S
C188 C189 1.367 . S
C188 H202 0.951 . S
C189 C185 1.383 . S
C189 C188 1.367 . S
C189 H203 0.950 . S
C190 C187 1.481 . S
C190 C191 1.297 . S
C190 H204 0.950 . S
C191 C190 1.297 . S
C191 C192 1.479 1_655 S
C191 H205 0.950 . S
C192 C191 1.479 1_455 S
C192 C193 1.375 . S
C192 C198 1.404 . S
C193 C192 1.375 . S
C193 C194 1.369 . S
C193 H206 0.950 . S
C194 C193 1.369 . S
C194 C195 1.392 . S
C194 H207 0.951 . S
C195 C194 1.392 . S
C195 C197 1.384 . S
H196 C198 0.949 . S
C197 C195 1.384 . S
C197 C198 1.385 . S
C197 H199 0.950 . S
C198 C192 1.404 . S
C198 H196 0.949 . S
C198 C197 1.385 . S
H199 C197 0.950 . S
H200 C184 0.951 . S
H201 C186 0.951 . S
H202 C188 0.951 . S
H203 C189 0.950 . S
H204 C190 0.950 . S
H205 C191 0.950 . S
H206 C193 0.950 . S
H207 C194 0.951 . S
C208 C209 1.386 . S
C208 C210 1.383 . S
C208 H224 0.951 . S
C209 C208 1.386 . S
C209 C213 1.383 . S
C210 C208 1.383 . S
C210 C211 1.402 . S
C210 H225 0.951 1_565 S
C211 C210 1.402 . S
C211 C212 1.374 1_655 S
C211 C214 1.481 1_655 S
C212 C211 1.374 1_455 S
C212 C213 1.353 1_455 S
C212 H226 0.966 . S
C213 C209 1.383 . S
C213 C212 1.353 1_655 S
C213 H227 0.950 . S
C214 C211 1.481 1_455 S
C214 C215 1.297 1_565 S
C214 H228 0.950 . S
C215 C214 1.297 1_545 S
C215 C216 1.479 1_554 S
C215 H229 0.950 1_455 S
C216 C215 1.479 1_556 S
C216 C217 1.375 . S
C216 C222 1.404 . S
C217 C216 1.375 . S
C217 C218 1.369 . S
C217 H230 0.950 1_455 S
C218 C217 1.369 . S
C218 C219 1.392 . S
C218 H231 0.951 . S
C219 C218 1.392 . S
C219 C221 1.384 . S
H220 C222 0.949 1_565 S
C221 C219 1.384 . S
C221 C222 1.385 . S
C221 H223 0.950 . S
C222 C216 1.404 . S
C222 H220 0.949 1_545 S
C222 C221 1.385 . S
H223 C221 0.950 . S
H224 C208 0.951 . S
H225 C210 0.951 1_545 S
H226 C212 0.966 . S
H227 C213 0.950 . S
H228 C214 0.950 . S
H229 C215 0.950 1_655 S
H230 C217 0.950 1_655 S
H231 C218 0.951 . S
C232 C233 1.386 . S
C232 C234 1.383 . S
C232 H248 0.951 . S
C233 C232 1.386 . S
C233 C237 1.383 . S
C234 C232 1.383 . S
C234 C235 1.402 . S
C234 H249 0.951 . S
C235 C234 1.402 . S
C235 C236 1.375 . S
C235 C238 1.481 . S
C236 C235 1.375 . S
C236 C237 1.367 . S
C236 H250 0.951 . S
C237 C233 1.383 . S
C237 C236 1.367 . S
C237 H251 0.950 1_554 S
C238 C235 1.481 . S
C238 C239 1.297 . S
C238 H252 0.950 . S
C239 C238 1.297 . S
C239 C240 1.479 . S
C239 H253 0.950 . S
C240 C239 1.479 . S
C240 C241 1.375 . S
C240 C246 1.404 . S
C241 C240 1.375 . S
C241 C242 1.369 . S
C241 H254 0.950 . S
C242 C241 1.369 . S
C242 C243 1.392 . S
C242 H255 0.951 . S
C243 C242 1.392 . S
C243 C245 1.384 . S
H244 C246 0.949 . S
C245 C243 1.384 . S
C245 C246 1.385 . S
C245 H247 0.950 . S
C246 C240 1.404 . S
C246 H244 0.949 . S
C246 C245 1.385 . S
H247 C245 0.950 . S
H248 C232 0.951 . S
H249 C234 0.951 . S
H250 C236 0.951 . S
H251 C237 0.950 1_556 S
H252 C238 0.950 . S
H253 C239 0.950 . S
H254 C241 0.950 . S
H255 C242 0.951 . S
C256 C257 1.386 . S
C256 C258 1.383 . S
C256 H272 0.951 . S
C257 C256 1.386 . S
C257 C261 1.383 . S
C258 C256 1.383 . S
C258 C259 1.402 . S
C258 H273 0.951 . S
C259 C258 1.402 . S
C259 C260 1.375 . S
C259 C262 1.481 . S
C260 C259 1.375 . S
C260 C261 1.367 . S
C260 H274 0.951 . S
C261 C257 1.383 . S
C261 C260 1.367 . S
C261 H275 0.950 . S
C262 C259 1.481 . S
C262 C263 1.297 . S
C262 H276 0.950 . S
C263 C262 1.297 . S
C263 C264 1.479 . S
C263 H277 0.950 . S
C264 C263 1.479 . S
C264 C265 1.375 . S
C264 C270 1.404 . S
C265 C264 1.375 . S
C265 C266 1.369 . S
C265 H278 0.950 . S
C266 C265 1.369 . S
C266 C267 1.392 . S
C266 H279 0.951 . S
C267 C266 1.392 . S
C267 C269 1.384 . S
H268 C270 0.949 . S
C269 C267 1.384 . S
C269 C270 1.385 . S
C269 H271 0.950 . S
C270 C264 1.404 . S
C270 H268 0.949 . S
C270 C269 1.385 . S
H271 C269 0.950 . S
H272 C256 0.951 . S
H273 C258 0.951 . S
H274 C260 0.951 . S
H275 C261 0.950 . S
H276 C262 0.950 . S
H277 C263 0.950 . S
H278 C265 0.950 . S
H279 C266 0.951 . S
C280 C281 1.386 . S
C280 C282 1.383 . S
C280 H296 0.951 . S
C281 C280 1.386 . S
C281 C285 1.383 . S
C282 C280 1.383 . S
C282 C283 1.402 . S
C282 H297 0.951 . S
C283 C282 1.402 . S
C283 C284 1.375 . S
C283 C286 1.481 . S
C284 C283 1.375 . S
C284 C285 1.367 . S
C284 H298 0.951 . S
C285 C281 1.383 . S
C285 C284 1.367 . S
C285 H299 0.950 . S
C286 C283 1.481 . S
C286 C287 1.297 . S
C286 H300 0.950 . S
C287 C286 1.297 . S
C287 C288 1.479 . S
C287 H301 0.950 . S
C288 C287 1.479 . S
C288 C289 1.375 . S
C288 C294 1.404 . S
C289 C288 1.375 . S
C289 C290 1.369 . S
C289 H302 0.950 . S
C290 C289 1.369 . S
C290 C291 1.392 . S
C290 H303 0.951 . S
C291 C290 1.392 . S
C291 C293 1.384 . S
H292 C294 0.949 . S
C293 C291 1.384 . S
C293 C294 1.385 . S
C293 H295 0.950 . S
C294 C288 1.404 . S
C294 H292 0.949 . S
C294 C293 1.385 . S
H295 C293 0.950 . S
H296 C280 0.951 . S
H297 C282 0.951 . S
H298 C284 0.951 . S
H299 C285 0.950 . S
H300 C286 0.950 . S
H301 C287 0.950 . S
H302 C289 0.950 . S
H303 C290 0.951 . S
C304 C305 1.386 . S
C304 C306 1.383 . S
C304 H320 0.951 . S
C305 C304 1.386 . S
C305 C309 1.383 . S
C306 C304 1.383 . S
C306 C307 1.402 . S
C306 H321 0.951 . S
C307 C306 1.402 . S
C307 C308 1.375 . S
C307 C310 1.481 . S
C308 C307 1.375 . S
C308 C309 1.367 . S
C308 H322 0.951 . S
C309 C305 1.383 . S
C309 C308 1.367 . S
C309 H323 0.950 . S
C310 C307 1.481 . S
C310 C311 1.297 . S
C310 H324 0.950 . S
C311 C310 1.297 . S
C311 C312 1.479 . S
C311 H325 0.950 . S
C312 C311 1.479 . S
C312 C313 1.375 . S
C312 C318 1.404 . S
C313 C312 1.375 . S
C313 C314 1.369 . S
C313 H326 0.950 . S
C314 C313 1.369 . S
C314 C315 1.392 . S
C314 H327 0.951 . S
C315 C314 1.392 . S
C315 C317 1.384 . S
H316 C318 0.949 . S
C317 C315 1.384 . S
C317 C318 1.385 . S
C317 H319 0.950 . S
C318 C312 1.404 . S
C318 H316 0.949 . S
C318 C317 1.385 . S
H319 C317 0.950 . S
H320 C304 0.951 . S
H321 C306 0.951 . S
H322 C308 0.951 . S
H323 C309 0.950 . S
H324 C310 0.950 . S
H325 C311 0.950 . S
H326 C313 0.950 . S
H327 C314 0.951 . S
C328 C329 1.386 . S
C328 C330 1.383 . S
C328 H344 0.951 . S
C329 C328 1.386 . S
C329 C333 1.383 . S
C330 C328 1.383 . S
C330 C331 1.402 . S
C330 H345 0.951 . S
C331 C330 1.402 . S
C331 C332 1.375 . S
C331 C334 1.481 . S
C332 C331 1.375 . S
C332 C333 1.367 . S
C332 H346 0.951 . S
C333 C329 1.383 . S
C333 C332 1.367 . S
C333 H347 0.950 . S
C334 C331 1.481 . S
C334 C335 1.297 . S
C334 H348 0.950 . S
C335 C334 1.297 . S
C335 C336 1.479 . S
C335 H349 0.950 . S
C336 C335 1.479 . S
C336 C337 1.375 . S
C336 C342 1.404 . S
C337 C336 1.375 . S
C337 C338 1.369 . S
C337 H350 0.950 . S
C338 C337 1.369 . S
C338 C339 1.392 . S
C338 H351 0.951 . S
C339 C338 1.392 . S
C339 C341 1.384 . S
H340 C342 0.949 . S
C341 C339 1.384 . S
C341 C342 1.385 . S
C341 H343 0.950 . S
C342 C336 1.404 . S
C342 H340 0.949 . S
C342 C341 1.385 . S
H343 C341 0.950 . S
H344 C328 0.951 . S
H345 C330 0.951 . S
H346 C332 0.951 . S
H347 C333 0.950 . S
H348 C334 0.950 . S
H349 C335 0.950 . S
H350 C337 0.950 . S
H351 C338 0.951 . S
C352 C353 1.386 . S
C352 C354 1.383 . S
C352 H368 0.951 . S
C353 C352 1.386 . S
C353 C357 1.383 . S
C354 C352 1.383 . S
C354 C355 1.402 . S
C354 H369 0.951 1_556 S
C355 C354 1.402 . S
C355 C356 1.375 1_545 S
C355 C358 1.481 1_545 S
C356 C355 1.375 1_565 S
C356 C357 1.367 1_565 S
C356 H370 0.951 . S
C357 C353 1.383 . S
C357 C356 1.367 1_545 S
C357 H371 0.950 . S
C358 C355 1.481 1_565 S
C358 C359 1.297 1_556 S
C358 H372 0.950 . S
C359 C358 1.297 1_554 S
C359 C360 1.479 . S
C359 H373 0.950 1_565 S
C360 C359 1.479 . S
C360 C361 1.375 . S
C360 C366 1.404 . S
C361 C360 1.375 . S
C361 C362 1.369 . S
C361 H374 0.950 1_565 S
C362 C361 1.369 . S
C362 C363 1.392 . S
C362 H375 0.951 . S
C363 C362 1.392 . S
C363 C365 1.384 . S
H364 C366 0.949 . S
C365 C363 1.384 . S
C365 C366 1.385 . S
C365 H367 0.950 . S
C366 C360 1.404 . S
C366 H364 0.949 . S
C366 C365 1.385 . S
H367 C365 0.950 . S
H368 C352 0.951 . S
H369 C354 0.951 1_554 S
H370 C356 0.951 . S
H371 C357 0.950 . S
H372 C358 0.950 . S
H373 C359 0.950 1_545 S
H374 C361 0.950 1_545 S
H375 C362 0.951 . S
C89 C32 1.450 1_545 S
C99 C7 1.439 . S
C113 C8 1.422 . S
C123 C43 1.481 . S
C137 C76 1.470 1_565 S
C147 C59 1.464 . S
C161 C62 1.462 . S
C171 C87 1.502 . S
C185 C51 0.858 . S
C195 C21 0.939 . S
C209 C37 0.911 . S
C219 C81 0.845 . S
C233 C73 1.507 1_554 S
C243 C18 1.528 . S
C257 C30 1.495 . S
C267 C65 1.517 . S
C281 C29 1.520 1_556 S
C291 C54 1.472 . S
C305 C74 1.491 . S
C315 C15 1.515 . S
C329 C10 1.561 . S
C339 C52 1.529 . S
C353 C84 1.541 . S
C363 C40 1.554 . S
