# Generated by pormake.
# Topology whz, (6)-cn, num edge types: 1
# Building blocks:
#     Node 0, Type 0, BuildingBlock: CIFDUS_clean_sbu_1, # of connection points: 6
#     Node 1, Type 0, BuildingBlock: CIFDUS_clean_sbu_1, # of connection points: 6
#     Node 2, Type 0, BuildingBlock: CIFDUS_clean_sbu_1, # of connection points: 6
#     Node 3, Type 0, BuildingBlock: CIFDUS_clean_sbu_1, # of connection points: 6
#     Node 4, Type 0, BuildingBlock: CIFDUS_clean_sbu_1, # of connection points: 6
#     Node 5, Type 0, BuildingBlock: CIFDUS_clean_sbu_1, # of connection points: 6
#     Node 6, Type 0, BuildingBlock: CIFDUS_clean_sbu_1, # of connection points: 6
#     Node 7, Type 0, BuildingBlock: CIFDUS_clean_sbu_1, # of connection points: 6
#     Node 8, Type 0, BuildingBlock: CIFDUS_clean_sbu_1, # of connection points: 6
#     Node 9, Type 0, BuildingBlock: CIFDUS_clean_sbu_1, # of connection points: 6
#     Node 10, Type 0, BuildingBlock: CIFDUS_clean_sbu_1, # of connection points: 6
#     Node 11, Type 0, BuildingBlock: CIFDUS_clean_sbu_1, # of connection points: 6
#     Node 12, Type 0, BuildingBlock: CIFDUS_clean_sbu_1, # of connection points: 6
#     Node 13, Type 0, BuildingBlock: CIFDUS_clean_sbu_1, # of connection points: 6
#     Node 14, Type 0, BuildingBlock: CIFDUS_clean_sbu_1, # of connection points: 6
#     Node 15, Type 0, BuildingBlock: CIFDUS_clean_sbu_1, # of connection points: 6
#     Edge 16, Type (0, 0), BuildingBlock: ZUJKAS_clean_linker_0, # of connection points: 2
#     Edge 17, Type (0, 0), BuildingBlock: ZUJKAS_clean_linker_0, # of connection points: 2
#     Edge 18, Type (0, 0), BuildingBlock: ZUJKAS_clean_linker_0, # of connection points: 2
#     Edge 19, Type (0, 0), BuildingBlock: ZUJKAS_clean_linker_0, # of connection points: 2
#     Edge 20, Type (0, 0), BuildingBlock: ZUJKAS_clean_linker_0, # of connection points: 2
#     Edge 21, Type (0, 0), BuildingBlock: ZUJKAS_clean_linker_0, # of connection points: 2
#     Edge 22, Type (0, 0), BuildingBlock: ZUJKAS_clean_linker_0, # of connection points: 2
#     Edge 23, Type (0, 0), BuildingBlock: ZUJKAS_clean_linker_0, # of connection points: 2
#     Edge 24, Type (0, 0), BuildingBlock: ZUJKAS_clean_linker_0, # of connection points: 2
#     Edge 25, Type (0, 0), BuildingBlock: ZUJKAS_clean_linker_0, # of connection points: 2
#     Edge 26, Type (0, 0), BuildingBlock: ZUJKAS_clean_linker_0, # of connection points: 2
#     Edge 27, Type (0, 0), BuildingBlock: ZUJKAS_clean_linker_0, # of connection points: 2
#     Edge 28, Type (0, 0), BuildingBlock: ZUJKAS_clean_linker_0, # of connection points: 2
#     Edge 29, Type (0, 0), BuildingBlock: ZUJKAS_clean_linker_0, # of connection points: 2
#     Edge 30, Type (0, 0), BuildingBlock: ZUJKAS_clean_linker_0, # of connection points: 2
#     Edge 31, Type (0, 0), BuildingBlock: ZUJKAS_clean_linker_0, # of connection points: 2
#     Edge 32, Type (0, 0), BuildingBlock: ZUJKAS_clean_linker_0, # of connection points: 2
#     Edge 33, Type (0, 0), BuildingBlock: ZUJKAS_clean_linker_0, # of connection points: 2
#     Edge 34, Type (0, 0), BuildingBlock: ZUJKAS_clean_linker_0, # of connection points: 2
#     Edge 35, Type (0, 0), BuildingBlock: ZUJKAS_clean_linker_0, # of connection points: 2
#     Edge 36, Type (0, 0), BuildingBlock: ZUJKAS_clean_linker_0, # of connection points: 2
#     Edge 37, Type (0, 0), BuildingBlock: ZUJKAS_clean_linker_0, # of connection points: 2
#     Edge 38, Type (0, 0), BuildingBlock: ZUJKAS_clean_linker_0, # of connection points: 2
#     Edge 39, Type (0, 0), BuildingBlock: ZUJKAS_clean_linker_0, # of connection points: 2
#     Edge 40, Type (0, 0), BuildingBlock: ZUJKAS_clean_linker_0, # of connection points: 2
#     Edge 41, Type (0, 0), BuildingBlock: ZUJKAS_clean_linker_0, # of connection points: 2
#     Edge 42, Type (0, 0), BuildingBlock: ZUJKAS_clean_linker_0, # of connection points: 2
#     Edge 43, Type (0, 0), BuildingBlock: ZUJKAS_clean_linker_0, # of connection points: 2
#     Edge 44, Type (0, 0), BuildingBlock: ZUJKAS_clean_linker_0, # of connection points: 2
#     Edge 45, Type (0, 0), BuildingBlock: ZUJKAS_clean_linker_0, # of connection points: 2
#     Edge 46, Type (0, 0), BuildingBlock: ZUJKAS_clean_linker_0, # of connection points: 2
#     Edge 47, Type (0, 0), BuildingBlock: ZUJKAS_clean_linker_0, # of connection points: 2
#     Edge 48, Type (0, 0), BuildingBlock: ZUJKAS_clean_linker_0, # of connection points: 2
#     Edge 49, Type (0, 0), BuildingBlock: ZUJKAS_clean_linker_0, # of connection points: 2
#     Edge 50, Type (0, 0), BuildingBlock: ZUJKAS_clean_linker_0, # of connection points: 2
#     Edge 51, Type (0, 0), BuildingBlock: ZUJKAS_clean_linker_0, # of connection points: 2
#     Edge 52, Type (0, 0), BuildingBlock: ZUJKAS_clean_linker_0, # of connection points: 2
#     Edge 53, Type (0, 0), BuildingBlock: ZUJKAS_clean_linker_0, # of connection points: 2
#     Edge 54, Type (0, 0), BuildingBlock: ZUJKAS_clean_linker_0, # of connection points: 2
#     Edge 55, Type (0, 0), BuildingBlock: ZUJKAS_clean_linker_0, # of connection points: 2
#     Edge 56, Type (0, 0), BuildingBlock: ZUJKAS_clean_linker_0, # of connection points: 2
#     Edge 57, Type (0, 0), BuildingBlock: ZUJKAS_clean_linker_0, # of connection points: 2
#     Edge 58, Type (0, 0), BuildingBlock: ZUJKAS_clean_linker_0, # of connection points: 2
#     Edge 59, Type (0, 0), BuildingBlock: ZUJKAS_clean_linker_0, # of connection points: 2
#     Edge 60, Type (0, 0), BuildingBlock: ZUJKAS_clean_linker_0, # of connection points: 2
#     Edge 61, Type (0, 0), BuildingBlock: ZUJKAS_clean_linker_0, # of connection points: 2
#     Edge 62, Type (0, 0), BuildingBlock: ZUJKAS_clean_linker_0, # of connection points: 2
#     Edge 63, Type (0, 0), BuildingBlock: ZUJKAS_clean_linker_0, # of connection points: 2
# Relax obj value: 0.352
# Max RMSD: 0.238
# Mean RMSD: 0.238
data_MOF--net-whz--node1-CIFDUS_clean_sbu_1--edge1-ZUJKAS_clean_linker_0
_symmetry_space_group_name_H-M    P1
_symmetry_Int_Tables_number       1
_symmetry_cell_setting            triclinic
loop_
_symmetry_equiv_pos_as_xyz
'x, y, z'
_cell_length_a     44.930524
_cell_length_b     44.946225
_cell_length_c     68.56493
_cell_angle_alpha  90.068766
_cell_angle_beta   89.96397
_cell_angle_gamma 90.052906
loop_
_atom_site_label
_atom_site_type_symbol
_atom_site_fract_x
_atom_site_fract_y
_atom_site_fract_z
_atom_type_partial_charge
O0 O 0.32708 0.11924 0.14378 0.0
Mn1 Mn 0.29945 0.15305 0.13001 0.0
O2 O 0.29229 0.0875 0.14897 0.0
Mn3 Mn 0.27131 0.11669 0.16151 0.0
O4 O 0.27272 0.18811 0.12014 0.0
O5 O 0.33834 0.17307 0.11969 0.0
Mn6 Mn 0.32611 0.18385 0.09599 0.0
O7 O 0.28974 0.129 0.10398 0.0
O8 O 0.29914 0.21456 0.09876 0.0
O9 O 0.30505 0.17687 0.15472 0.0
O10 O 0.29108 0.14382 0.1775 0.0
O11 O 0.36457 0.19382 0.09559 0.0
O12 O 0.31364 0.15333 0.0803 0.0
C13 C 0.23347 0.12712 0.14609 0.0
C14 C 0.31876 0.0946 0.15176 0.0
C15 C 0.27636 0.21113 0.10943 0.0
C16 C 0.36326 0.18578 0.11375 0.0
C17 C 0.29516 0.13378 0.08577 0.0
C18 C 0.30067 0.16938 0.17235 0.0
O19 O 0.25976 0.13668 0.1409 0.0
O20 O 0.23148 0.11341 0.16264 0.0
O21 O 0.61921 0.53312 0.35474 0.0
Mn22 Mn 0.59538 0.54548 0.38036 0.0
O23 O 0.59502 0.55573 0.33081 0.0
Mn24 Mn 0.5659 0.56927 0.34694 0.0
O25 O 0.57231 0.55731 0.4049 0.0
O26 O 0.61213 0.50628 0.39102 0.0
Mn27 Mn 0.61156 0.51164 0.4162 0.0
O28 O 0.63109 0.56966 0.39374 0.0
O29 O 0.57225 0.51604 0.42206 0.0
O30 O 0.55892 0.5191 0.37166 0.0
O31 O 0.53384 0.54408 0.34932 0.0
O32 O 0.62712 0.47514 0.4143 0.0
O33 O 0.63569 0.5434 0.42187 0.0
C34 C 0.56426 0.60915 0.36119 0.0
C35 C 0.61522 0.53843 0.33649 0.0
C36 C 0.56243 0.54185 0.41882 0.0
C37 C 0.62265 0.48027 0.39592 0.0
C38 C 0.64174 0.56585 0.4113 0.0
C39 C 0.53628 0.52186 0.36048 0.0
O40 O 0.57622 0.58558 0.36993 0.0
O41 O 0.5573 0.60683 0.34289 0.0
O42 O 0.17673 0.87812 0.64439 0.0
Mn43 Mn 0.20347 0.84404 0.63005 0.0
O44 O 0.20865 0.90288 0.66368 0.0
Mn45 Mn 0.23391 0.87153 0.66557 0.0
O46 O 0.23117 0.80919 0.62006 0.0
O47 O 0.1643 0.82537 0.61896 0.0
Mn48 Mn 0.17846 0.8104 0.59666 0.0
O49 O 0.2134 0.86829 0.60436 0.0
O50 O 0.2033 0.77888 0.60214 0.0
O51 O 0.19475 0.81854 0.6536 0.0
O52 O 0.21886 0.83939 0.6788 0.0
O53 O 0.13941 0.80222 0.59524 0.0
O54 O 0.19514 0.83896 0.58062 0.0
C55 C 0.26909 0.86937 0.64603 0.0
C56 C 0.18259 0.89867 0.65734 0.0
C57 C 0.22695 0.78419 0.6115 0.0
C58 C 0.13908 0.8138 0.61257 0.0
C59 C 0.21035 0.86128 0.58617 0.0
C60 C 0.2014 0.82008 0.67148 0.0
O61 O 0.24228 0.8603 0.64167 0.0
O62 O 0.2733 0.87861 0.66374 0.0
O63 O 0.87182 0.42451 0.8941 0.0
Mn64 Mn 0.90468 0.45293 0.88033 0.0
O65 O 0.83731 0.45494 0.90507 0.0
Mn66 Mn 0.8661 0.48263 0.91041 0.0
O67 O 0.93941 0.48023 0.8703 0.0
O68 O 0.92627 0.41417 0.87118 0.0
Mn69 Mn 0.93818 0.42505 0.84726 0.0
O70 O 0.8816 0.45897 0.85384 0.0
O71 O 0.96716 0.45391 0.84946 0.0
O72 O 0.92711 0.44968 0.90613 0.0
O73 O 0.89612 0.47221 0.92736 0.0
O74 O 0.9502 0.38703 0.84887 0.0
O75 O 0.90773 0.43565 0.83067 0.0
C76 C 0.87379 0.51877 0.89267 0.0
C77 C 0.84718 0.42886 0.90351 0.0
C78 C 0.96262 0.47706 0.8596 0.0
C79 C 0.93976 0.38908 0.86646 0.0
C80 C 0.88656 0.45254 0.83585 0.0
C81 C 0.91997 0.45804 0.92332 0.0
O82 O 0.88479 0.49237 0.88885 0.0
O83 O 0.85695 0.52119 0.90795 0.0
O84 O 0.67871 0.88069 0.85292 0.0
Mn85 Mn 0.70363 0.84452 0.86558 0.0
O86 O 0.70205 0.8835 0.8241 0.0
Mn87 Mn 0.73645 0.86523 0.83063 0.0
O88 O 0.72892 0.80773 0.87455 0.0
O89 O 0.66303 0.82435 0.87468 0.0
Mn90 Mn 0.67662 0.81466 0.89854 0.0
O91 O 0.71358 0.86773 0.89246 0.0
O92 O 0.704 0.78396 0.89769 0.0
O93 O 0.69576 0.82088 0.84025 0.0
O94 O 0.73655 0.82695 0.82201 0.0
O95 O 0.63889 0.8038 0.90006 0.0
O96 O 0.68609 0.84518 0.91491 0.0
C97 C 0.76434 0.88079 0.85318 0.0
C98 C 0.68057 0.89007 0.83501 0.0
C99 C 0.72601 0.78572 0.88621 0.0
C100 C 0.63853 0.81173 0.88188 0.0
C101 C 0.7051 0.86462 0.91041 0.0
C102 C 0.71337 0.8124 0.82677 0.0
O103 O 0.74477 0.85954 0.85567 0.0
O104 O 0.76431 0.89263 0.83601 0.0
O105 O 0.37113 0.42155 0.60202 0.0
Mn106 Mn 0.40401 0.45052 0.61591 0.0
O107 O 0.33533 0.45285 0.59909 0.0
Mn108 Mn 0.3629 0.47703 0.58764 0.0
O109 O 0.43786 0.47998 0.62542 0.0
O110 O 0.42574 0.41047 0.62506 0.0
Mn111 Mn 0.43844 0.42928 0.64693 0.0
O112 O 0.37943 0.45724 0.64187 0.0
O113 O 0.47018 0.45349 0.64217 0.0
O114 O 0.42661 0.44776 0.59022 0.0
O115 O 0.38934 0.46028 0.57 0.0
O116 O 0.44867 0.39286 0.65222 0.0
O117 O 0.41227 0.44532 0.66459 0.0
C118 C 0.37363 0.51576 0.60161 0.0
C119 C 0.34498 0.42748 0.59521 0.0
C120 C 0.46348 0.47696 0.6333 0.0
C121 C 0.43965 0.38847 0.63447 0.0
C122 C 0.388 0.45713 0.65972 0.0
C123 C 0.41604 0.45203 0.57316 0.0
O124 O 0.38508 0.49018 0.60682 0.0
O125 O 0.35596 0.51617 0.58668 0.0
O126 O 0.82367 0.12002 0.35242 0.0
Mn127 Mn 0.79574 0.15315 0.36657 0.0
O128 O 0.79191 0.08925 0.33794 0.0
Mn129 Mn 0.76691 0.12009 0.33257 0.0
O130 O 0.76718 0.18723 0.37647 0.0
O131 O 0.83496 0.17332 0.37704 0.0
Mn132 Mn 0.81999 0.18719 0.39941 0.0
O133 O 0.78732 0.12873 0.39251 0.0
O134 O 0.79426 0.21788 0.39462 0.0
O135 O 0.80212 0.17786 0.34226 0.0
O136 O 0.78283 0.15058 0.3178 0.0
O137 O 0.85801 0.19743 0.40151 0.0
O138 O 0.80589 0.15825 0.41589 0.0
C139 C 0.73052 0.12618 0.3511 0.0
C140 C 0.81833 0.0968 0.3416 0.0
C141 C 0.77084 0.21212 0.38523 0.0
C142 C 0.85927 0.18615 0.3841 0.0
C143 C 0.7914 0.13538 0.41066 0.0
C144 C 0.79704 0.1731 0.3243 0.0
O145 O 0.75727 0.13549 0.35533 0.0
O146 O 0.72718 0.11389 0.33415 0.0
O147 O 0.13008 0.56987 0.10209 0.0
Mn148 Mn 0.09462 0.54565 0.11559 0.0
O149 O 0.13498 0.54229 0.07464 0.0
Mn150 Mn 0.11188 0.51038 0.08152 0.0
O151 O 0.0588 0.51881 0.12466 0.0
O152 O 0.07463 0.58656 0.12448 0.0
Mn153 Mn 0.06166 0.57062 0.14699 0.0
O154 O 0.11786 0.53631 0.14189 0.0
O155 O 0.02901 0.54725 0.14228 0.0
O156 O 0.07147 0.55466 0.09023 0.0
O157 O 0.07275 0.51225 0.0745 0.0
O158 O 0.0537 0.60835 0.1509 0.0
O159 O 0.08813 0.5552 0.16458 0.0
C160 C 0.12451 0.47984 0.10158 0.0
C161 C 0.14075 0.56539 0.08464 0.0
C162 C 0.03377 0.52357 0.13293 0.0
C163 C 0.062 0.61024 0.13282 0.0
C164 C 0.11061 0.53999 0.15989 0.0
C165 C 0.06187 0.53783 0.0768 0.0
O166 O 0.11293 0.50545 0.10686 0.0
O167 O 0.12909 0.47492 0.08316 0.0
O168 O 0.82007 0.61613 0.64433 0.0
Mn169 Mn 0.79607 0.65225 0.63124 0.0
O170 O 0.79481 0.61134 0.67285 0.0
Mn171 Mn 0.76293 0.635 0.66761 0.0
O172 O 0.77039 0.68889 0.6221 0.0
O173 O 0.8359 0.67064 0.62023 0.0
Mn174 Mn 0.82143 0.68088 0.59682 0.0
O175 O 0.78344 0.62842 0.60582 0.0
O176 O 0.797 0.71355 0.6 0.0
O177 O 0.80699 0.67701 0.6554 0.0
O178 O 0.76712 0.67404 0.67446 0.0
O179 O 0.86 0.68836 0.5941 0.0
O180 O 0.80651 0.65122 0.58128 0.0
C181 C 0.73116 0.6248 0.64674 0.0
C182 C 0.81651 0.60494 0.66175 0.0
C183 C 0.77478 0.71174 0.61131 0.0
C184 C 0.86052 0.68206 0.61256 0.0
C185 C 0.78857 0.63179 0.58749 0.0
C186 C 0.79021 0.68747 0.66859 0.0
O187 O 0.75738 0.63523 0.64228 0.0
O188 O 0.72645 0.61892 0.665 0.0
O189 O 0.11934 0.03931 0.85383 0.0
Mn190 Mn 0.09682 0.04848 0.88029 0.0
O191 O 0.09379 0.06215 0.83004 0.0
Mn192 Mn 0.06274 0.07398 0.84598 0.0
O193 O 0.07432 0.05398 0.90532 0.0
O194 O 0.11503 0.00922 0.8911 0.0
Mn195 Mn 0.13685 0.02418 0.90999 0.0
O196 O 0.13 0.07825 0.89304 0.0
O197 O 0.11005 0.0428 0.9269 0.0
O198 O 0.06202 0.02053 0.87145 0.0
O199 O 0.03422 0.04469 0.84958 0.0
O200 O 0.14302 0.98465 0.91282 0.0
O201 O 0.16437 0.04602 0.89648 0.0
C202 C 0.06265 0.11086 0.86528 0.0
C203 C 0.11443 0.04482 0.83565 0.0
C204 C 0.08326 0.04968 0.92264 0.0
C205 C 0.12593 0.98361 0.89762 0.0
C206 C 0.15581 0.07178 0.90005 0.0
C207 C 0.03878 0.02258 0.86071 0.0
O208 O 0.07568 0.08557 0.86941 0.0
O209 O 0.05118 0.11264 0.84799 0.0
O210 O 0.67529 0.37764 0.14403 0.0
Mn211 Mn 0.70259 0.34363 0.13059 0.0
O212 O 0.70696 0.40649 0.16039 0.0
Mn213 Mn 0.73171 0.37517 0.165 0.0
O214 O 0.7295 0.30831 0.121 0.0
O215 O 0.6641 0.32411 0.12009 0.0
Mn216 Mn 0.67525 0.3101 0.09706 0.0
O217 O 0.71191 0.3668 0.10406 0.0
O218 O 0.70326 0.28061 0.10009 0.0
O219 O 0.69484 0.31931 0.15498 0.0
O220 O 0.71575 0.34469 0.17964 0.0
O221 O 0.63645 0.30014 0.09829 0.0
O222 O 0.68707 0.34069 0.08135 0.0
C223 C 0.76773 0.37063 0.14625 0.0
C224 C 0.68066 0.40007 0.1555 0.0
C225 C 0.72622 0.28501 0.11041 0.0
C226 C 0.63828 0.31241 0.11536 0.0
C227 C 0.70495 0.36139 0.08606 0.0
C228 C 0.70024 0.32326 0.17294 0.0
O229 O 0.74117 0.3609 0.14189 0.0
O230 O 0.7713 0.3816 0.16358 0.0
O231 O 0.3691 0.92241 0.39294 0.0
Mn232 Mn 0.40242 0.95104 0.37935 0.0
O233 O 0.33425 0.95436 0.39892 0.0
Mn234 Mn 0.36326 0.97786 0.40915 0.0
O235 O 0.43717 0.97991 0.36977 0.0
O236 O 0.42325 0.91095 0.37067 0.0
Mn237 Mn 0.43994 0.9261 0.34925 0.0
O238 O 0.37989 0.95753 0.35259 0.0
O239 O 0.47056 0.95123 0.35537 0.0
O240 O 0.42442 0.94714 0.40461 0.0
O241 O 0.39014 0.96124 0.42662 0.0
O242 O 0.45029 0.8884 0.34706 0.0
O243 O 0.41363 0.94082 0.33126 0.0
C244 C 0.37331 0.01719 0.39481 0.0
C245 C 0.34327 0.92817 0.40035 0.0
C246 C 0.4635 0.97567 0.36305 0.0
C247 C 0.43697 0.88692 0.36384 0.0
C248 C 0.38992 0.95497 0.33504 0.0
C249 C 0.41552 0.95065 0.42202 0.0
O250 O 0.38416 0.99101 0.38907 0.0
O251 O 0.3565 0.01741 0.41019 0.0
O252 O 0.17211 0.37764 0.3527 0.0
Mn253 Mn 0.20218 0.34654 0.3665 0.0
O254 O 0.19931 0.41014 0.3362 0.0
Mn255 Mn 0.23301 0.38848 0.33717 0.0
O256 O 0.23139 0.31176 0.37562 0.0
O257 O 0.16166 0.32416 0.37476 0.0
Mn258 Mn 0.17954 0.31216 0.39699 0.0
O259 O 0.20886 0.37038 0.39294 0.0
O260 O 0.20434 0.28074 0.39321 0.0
O261 O 0.20086 0.32574 0.34037 0.0
O262 O 0.23175 0.35433 0.32165 0.0
O263 O 0.14335 0.30101 0.40174 0.0
O264 O 0.19355 0.33832 0.41513 0.0
C265 C 0.26038 0.38628 0.36323 0.0
C266 C 0.17453 0.39952 0.34053 0.0
C267 C 0.22787 0.28645 0.38404 0.0
C268 C 0.13949 0.30994 0.38393 0.0
C269 C 0.20797 0.36133 0.41067 0.0
C270 C 0.21615 0.33074 0.32496 0.0
O271 O 0.24138 0.36623 0.35782 0.0
O272 O 0.25768 0.41002 0.35311 0.0
O273 O 0.87146 0.92117 0.10293 0.0
Mn274 Mn 0.90362 0.95092 0.11655 0.0
O275 O 0.83488 0.95028 0.09496 0.0
Mn276 Mn 0.86419 0.97518 0.08661 0.0
O277 O 0.93852 0.97922 0.12669 0.0
O278 O 0.92426 0.91213 0.12596 0.0
Mn279 Mn 0.93858 0.92362 0.14896 0.0
O280 O 0.88049 0.95743 0.14333 0.0
O281 O 0.96844 0.95056 0.14455 0.0
O282 O 0.92681 0.94787 0.09127 0.0
O283 O 0.89213 0.96084 0.06927 0.0
O284 O 0.94884 0.88503 0.14784 0.0
O285 O 0.90945 0.93621 0.16602 0.0
C286 C 0.87175 0.01519 0.10024 0.0
C287 C 0.84544 0.92457 0.09521 0.0
C288 C 0.96349 0.97449 0.13539 0.0
C289 C 0.93685 0.88667 0.13068 0.0
C290 C 0.88717 0.95204 0.16134 0.0
C291 C 0.91845 0.95294 0.07387 0.0
O292 O 0.88403 0.99009 0.10668 0.0
O293 O 0.85508 0.01393 0.08481 0.0
O294 O 0.31945 0.61686 0.85273 0.0
Mn295 Mn 0.29655 0.65435 0.86516 0.0
O296 O 0.29772 0.61718 0.82318 0.0
Mn297 Mn 0.26339 0.6369 0.82902 0.0
O298 O 0.27259 0.69222 0.87396 0.0
O299 O 0.33631 0.67194 0.87557 0.0
Mn300 Mn 0.32519 0.68545 0.89904 0.0
O301 O 0.28532 0.6324 0.89155 0.0
O302 O 0.29814 0.7165 0.8968 0.0
O303 O 0.30741 0.67715 0.84048 0.0
O304 O 0.26583 0.67635 0.82294 0.0
O305 O 0.36444 0.69395 0.89789 0.0
O306 O 0.31266 0.65476 0.91469 0.0
C307 C 0.23589 0.62045 0.85221 0.0
C308 C 0.31778 0.60821 0.83463 0.0
C309 C 0.27597 0.71449 0.88543 0.0
C310 C 0.36253 0.68268 0.88053 0.0
C311 C 0.29352 0.63553 0.90949 0.0
C312 C 0.29036 0.68847 0.82782 0.0
O313 O 0.25604 0.64099 0.85425 0.0
O314 O 0.23342 0.61113 0.83445 0.0
O315 O 0.62757 0.0762 0.60225 0.0
Mn316 Mn 0.59592 0.04663 0.6164 0.0
O317 O 0.66025 0.04551 0.58925 0.0
Mn318 Mn 0.62966 0.02114 0.58229 0.0
O319 O 0.56308 0.01664 0.62652 0.0
O320 O 0.57552 0.08477 0.6279 0.0
Mn321 Mn 0.56151 0.0686 0.6499 0.0
O322 O 0.62153 0.03848 0.64144 0.0
O323 O 0.53087 0.04315 0.64377 0.0
O324 O 0.56995 0.05238 0.5929 0.0
O325 O 0.59901 0.03775 0.56801 0.0
O326 O 0.55161 0.10688 0.65262 0.0
O327 O 0.59078 0.05243 0.66558 0.0
C328 C 0.62434 0.98243 0.59887 0.0
C329 C 0.65173 0.0717 0.59228 0.0
C330 C 0.53743 0.01988 0.6344 0.0
C331 C 0.56264 0.1088 0.63518 0.0
C332 C 0.61443 0.03988 0.65962 0.0
C333 C 0.57524 0.04914 0.5749 0.0
O334 O 0.61415 0.00879 0.60442 0.0
O335 O 0.63641 0.98113 0.58173 0.0
H336 H 0.24566 0.18087 0.18181 0.0
H337 H 0.22821 0.21531 0.20629 0.0
H338 H 0.31818 0.24628 0.21558 0.0
H339 H 0.33597 0.21184 0.18987 0.0
H340 H 0.28327 0.20329 0.24439 0.0
H341 H 0.22286 0.30644 0.22301 0.0
H342 H 0.22147 0.27557 0.20624 0.0
H343 H 0.25627 0.29389 0.21076 0.0
C344 C 0.26161 0.1957 0.18868 0.0
C345 C 0.29213 0.19321 0.18503 0.0
C346 C 0.25155 0.21575 0.20222 0.0
C347 C 0.27206 0.23296 0.21249 0.0
C348 C 0.30235 0.23292 0.20748 0.0
H349 H 0.26784 0.31121 0.3113 0.0
H350 H 0.27542 0.27132 0.28809 0.0
C351 C 0.31247 0.21309 0.1933 0.0
C352 C 0.26249 0.242 0.23164 0.0
H353 H 0.21126 0.28556 0.25381 0.0
C354 C 0.26797 0.22164 0.2467 0.0
C355 C 0.24134 0.26471 0.23382 0.0
C356 C 0.23511 0.28658 0.21766 0.0
C357 C 0.25298 0.22399 0.26436 0.0
C358 C 0.23292 0.2476 0.26688 0.0
C359 C 0.22628 0.26699 0.25146 0.0
C360 C 0.22859 0.25993 0.28609 0.0
C361 C 0.25955 0.20237 0.28059 0.0
C362 C 0.19984 0.26551 0.29303 0.0
C363 C 0.19555 0.28834 0.30643 0.0
C364 C 0.21991 0.30587 0.31206 0.0
C365 C 0.24878 0.29845 0.30638 0.0
C366 C 0.25316 0.27515 0.29369 0.0
H367 H 0.26895 0.18121 0.27491 0.0
H368 H 0.27605 0.21242 0.29069 0.0
H369 H 0.23904 0.1975 0.28907 0.0
H370 H 0.18079 0.25401 0.28693 0.0
H371 H 0.17324 0.2935 0.3114 0.0
H372 H 0.40711 0.48832 0.54311 0.0
H373 H 0.44263 0.50404 0.51942 0.0
H374 H 0.50793 0.44332 0.54276 0.0
H375 H 0.47138 0.42672 0.56754 0.0
H376 H 0.5019 0.52715 0.53459 0.0
H377 H 0.497 0.43826 0.47762 0.0
H378 H 0.4675 0.44176 0.49532 0.0
H379 H 0.50348 0.42943 0.50303 0.0
C380 C 0.4285 0.47719 0.54299 0.0
C381 C 0.43641 0.45583 0.55696 0.0
C382 C 0.44887 0.48657 0.52953 0.0
C383 C 0.47753 0.47482 0.52968 0.0
C384 C 0.48564 0.45247 0.54283 0.0
H385 H 0.5932 0.55349 0.45095 0.0
H386 H 0.57023 0.54047 0.4817 0.0
C387 C 0.46493 0.44302 0.55671 0.0
C388 C 0.49816 0.48829 0.51622 0.0
H389 H 0.51086 0.48697 0.46744 0.0
C390 C 0.50503 0.51821 0.52002 0.0
C391 C 0.50042 0.47651 0.49727 0.0
C392 C 0.49178 0.44471 0.49289 0.0
C393 C 0.51158 0.53748 0.5048 0.0
C394 C 0.51356 0.52585 0.48593 0.0
C395 C 0.50866 0.49554 0.48217 0.0
C396 C 0.52537 0.54398 0.47046 0.0
C397 C 0.51476 0.57042 0.50852 0.0
C398 C 0.50722 0.55285 0.45495 0.0
C399 C 0.52041 0.56004 0.43726 0.0
C400 C 0.55119 0.55725 0.43558 0.0
C401 C 0.5692 0.5553 0.45223 0.0
C402 C 0.5562 0.54741 0.46967 0.0
H403 H 0.50774 0.5767 0.52349 0.0
H404 H 0.53833 0.5771 0.50639 0.0
H405 H 0.50116 0.5831 0.49784 0.0
H406 H 0.48323 0.55084 0.45584 0.0
H407 H 0.50662 0.56254 0.42441 0.0
H408 H 0.16859 0.82448 0.70387 0.0
H409 H 0.18639 0.79831 0.73274 0.0
H410 H 0.23461 0.73695 0.69591 0.0
H411 H 0.21719 0.7634 0.66711 0.0
H412 H 0.19121 0.73807 0.74605 0.0
H413 H 0.29907 0.78965 0.72437 0.0
H414 H 0.26357 0.80281 0.7156 0.0
H415 H 0.28025 0.77013 0.70511 0.0
C416 C 0.18119 0.8041 0.70205 0.0
C417 C 0.19261 0.79611 0.68382 0.0
C418 C 0.19176 0.78967 0.7184 0.0
C419 C 0.21252 0.76684 0.716 0.0
C420 C 0.21899 0.75514 0.69761 0.0
H421 H 0.3225 0.6727 0.7968 0.0
H422 H 0.30089 0.69032 0.76622 0.0
C423 C 0.20846 0.76965 0.68128 0.0
C424 C 0.22981 0.75734 0.73242 0.0
H425 H 0.30039 0.7552 0.74989 0.0
C426 C 0.21506 0.74168 0.74704 0.0
C427 C 0.2607 0.76313 0.73339 0.0
C428 C 0.27685 0.78261 0.71889 0.0
C429 C 0.23092 0.73046 0.76271 0.0
C430 C 0.26191 0.73547 0.76327 0.0
C431 C 0.27661 0.75122 0.74874 0.0
C432 C 0.27918 0.72788 0.78 0.0
C433 C 0.21462 0.71341 0.77838 0.0
C434 C 0.27697 0.74579 0.79657 0.0
C435 C 0.29022 0.7364 0.81362 0.0
C436 C 0.30319 0.70828 0.81395 0.0
C437 C 0.31149 0.69417 0.79655 0.0
C438 C 0.29828 0.70343 0.77939 0.0
H439 H 0.19098 0.70919 0.77445 0.0
H440 H 0.22581 0.69177 0.78101 0.0
H441 H 0.21511 0.72623 0.79221 0.0
H442 H 0.26327 0.76564 0.79664 0.0
H443 H 0.28551 0.74824 0.82697 0.0
H444 H 0.97951 0.4454 0.92146 0.0
H445 H 0.01517 0.45272 0.94843 0.0
H446 H 0.94003 0.46723 0.9874 0.0
H447 H 0.90593 0.45783 0.96142 0.0
H448 H 0.01483 0.50661 0.9598 0.0
H449 H 0.99576 0.44173 0.02649 0.0
H450 H 0.98274 0.42853 0.00311 0.0
H451 H 0.95967 0.45224 0.01817 0.0
C452 C 0.97083 0.44848 0.93607 0.0
C453 C 0.94027 0.45233 0.93938 0.0
C454 C 0.9907 0.45255 0.95143 0.0
C455 C 0.97985 0.46076 0.96987 0.0
C456 C 0.94916 0.46025 0.97352 0.0
H457 H 0.00571 0.55728 0.06913 0.0
H458 H 0.98409 0.55444 0.03622 0.0
C459 C 0.92951 0.45558 0.95843 0.0
C460 C 0.99831 0.47831 0.98318 0.0
H461 H 0.00276 0.49621 0.03171 0.0
C462 C 0.01295 0.50383 0.97546 0.0
C463 C 0.99552 0.4755 0.00401 0.0
C464 C 0.98281 0.44777 0.01328 0.0
C465 C 0.02205 0.52709 0.98759 0.0
C466 C 0.01667 0.52534 0.00827 0.0
C467 C 0.00495 0.49886 0.01604 0.0
C468 C 0.02759 0.54729 0.02231 0.0
C469 C 0.03638 0.55424 0.97867 0.0
C470 C 0.05847 0.549 0.02453 0.0
C471 C 0.07021 0.55141 0.0431 0.0
C472 C 0.05099 0.55171 0.05922 0.0
C473 C 0.0206 0.5566 0.0567 0.0
C474 C 0.00886 0.55519 0.03794 0.0
H475 H 0.02887 0.55762 0.9634 0.0
H476 H 0.03152 0.57464 0.98723 0.0
H477 H 0.06086 0.55099 0.97834 0.0
H478 H 0.07334 0.54292 0.01275 0.0
H479 H 0.09391 0.54792 0.04498 0.0
H480 H 0.67545 0.82077 0.79728 0.0
H481 H 0.68261 0.79536 0.76616 0.0
H482 H 0.73951 0.73135 0.79473 0.0
H483 H 0.73142 0.75604 0.82559 0.0
H484 H 0.74094 0.80357 0.75883 0.0
H485 H 0.71398 0.68435 0.74887 0.0
H486 H 0.69402 0.7078 0.76583 0.0
H487 H 0.7291 0.69144 0.77258 0.0
C488 C 0.68734 0.79978 0.79702 0.0
C489 C 0.70335 0.79013 0.81333 0.0
C490 C 0.69154 0.78543 0.77931 0.0
C491 C 0.71182 0.7618 0.77823 0.0
C492 C 0.72337 0.74921 0.79532 0.0
H493 H 0.82957 0.68608 0.69776 0.0
H494 H 0.81927 0.71422 0.72743 0.0
C495 C 0.71894 0.76339 0.81298 0.0
C496 C 0.72845 0.75708 0.76025 0.0
H497 H 0.75794 0.70253 0.73212 0.0
C498 C 0.74422 0.78156 0.75268 0.0
C499 C 0.73329 0.72831 0.75285 0.0
C500 C 0.71646 0.70157 0.76038 0.0
C501 C 0.76523 0.77781 0.73794 0.0
C502 C 0.77034 0.74901 0.73076 0.0
C503 C 0.75442 0.72456 0.73819 0.0
C504 C 0.78819 0.74402 0.71336 0.0
C505 C 0.7819 0.80445 0.73016 0.0
C506 C 0.77646 0.75389 0.69558 0.0
C507 C 0.78253 0.73806 0.67872 0.0
C508 C 0.79997 0.71245 0.67992 0.0
C509 C 0.81628 0.70615 0.69679 0.0
C510 C 0.81023 0.72201 0.7137 0.0
H511 H 0.78231 0.82296 0.7409 0.0
H512 H 0.80514 0.79852 0.72623 0.0
H513 H 0.77061 0.81258 0.7168 0.0
H514 H 0.75907 0.77056 0.69518 0.0
H515 H 0.76965 0.74274 0.66571 0.0
H516 H 0.67344 0.32965 0.20765 0.0
H517 H 0.68973 0.30034 0.23532 0.0
H518 H 0.7284 0.23554 0.19626 0.0
H519 H 0.71192 0.26509 0.16839 0.0
H520 H 0.69172 0.24181 0.24954 0.0
H521 H 0.80068 0.28127 0.21964 0.0
H522 H 0.766 0.29777 0.21198 0.0
H523 H 0.77603 0.26114 0.20381 0.0
C524 C 0.68361 0.30817 0.20501 0.0
C525 C 0.69266 0.29983 0.1863 0.0
C526 C 0.69315 0.29163 0.22074 0.0
C527 C 0.71116 0.26676 0.21751 0.0
C528 C 0.71503 0.25524 0.19872 0.0
H529 H 0.81754 0.16778 0.2877 0.0
H530 H 0.79892 0.19951 0.26182 0.0
C531 C 0.70529 0.27181 0.18292 0.0
C532 C 0.72982 0.25698 0.23342 0.0
H533 H 0.8006 0.26093 0.25072 0.0
C534 C 0.71555 0.24575 0.2499 0.0
C535 C 0.76069 0.26326 0.23359 0.0
C536 C 0.77687 0.27666 0.21638 0.0
C537 C 0.7316 0.23973 0.26674 0.0
C538 C 0.76258 0.24538 0.26675 0.0
C539 C 0.77672 0.25728 0.25043 0.0
C540 C 0.78155 0.23288 0.28163 0.0
C541 C 0.71555 0.22601 0.28388 0.0
C542 C 0.78038 0.24319 0.30084 0.0
C543 C 0.79132 0.22519 0.3156 0.0
C544 C 0.80251 0.19697 0.31081 0.0
C545 C 0.80852 0.1894 0.29145 0.0
C546 C 0.79768 0.20731 0.27677 0.0
H547 H 0.69113 0.22453 0.28145 0.0
H548 H 0.72425 0.20326 0.28652 0.0
H549 H 0.7194 0.23941 0.29723 0.0
H550 H 0.7684 0.26335 0.30451 0.0
H551 H 0.78686 0.23132 0.33061 0.0
H552 H 0.9684 0.92129 0.06399 0.0
H553 H 0.00632 0.93708 0.03947 0.0
H554 H 0.95694 0.01959 0.03113 0.0
H555 H 0.92099 0.00426 0.05491 0.0
H556 H 0.98198 0.94353 0.00349 0.0
H557 H 0.03956 0.04855 0.02265 0.0
H558 H 0.02373 0.02467 0.04115 0.0
H559 H 0.00125 0.05247 0.02914 0.0
C560 C 0.9662 0.94269 0.05687 0.0
C561 C 0.94131 0.9607 0.06018 0.0
C562 C 0.98748 0.9519 0.04339 0.0
C563 C 0.98387 0.97929 0.03386 0.0
C564 C 0.96031 0.99816 0.03869 0.0
H565 H 0.02955 0.07437 0.93223 0.0
H566 H 0.99105 0.05084 0.95339 0.0
C567 C 0.93917 0.98891 0.05173 0.0
C568 C 0.99818 0.9851 0.01534 0.0
H569 H 0.02192 0.04421 0.98827 0.0
C570 C 0.99122 0.96528 0.0002 0.0
C571 C 0.01047 0.01426 0.01126 0.0
C572 C 0.01935 0.03597 0.02705 0.0
C573 C 0.99401 0.97327 0.98034 0.0
C574 C 0.00519 0.00287 0.97631 0.0
C575 C 0.01278 0.02238 0.99149 0.0
C576 C 0.01744 0.01044 0.95745 0.0
C577 C 0.98624 0.95136 0.96444 0.0
C578 C 0.0428 0.99419 0.95237 0.0
C579 C 0.06483 0.00866 0.94169 0.0
C580 C 0.0608 0.03801 0.93541 0.0
C581 C 0.03346 0.05236 0.93811 0.0
C582 C 0.0117 0.03858 0.94939 0.0
H583 H 0.96758 0.93671 0.96904 0.0
H584 H 0.98007 0.96273 0.95066 0.0
H585 H 0.00655 0.93685 0.96159 0.0
H586 H 0.04778 0.97263 0.95863 0.0
H587 H 0.08477 0.99584 0.93852 0.0
H588 H 0.44101 0.90898 0.44563 0.0
H589 H 0.47723 0.92069 0.47176 0.0
H590 H 0.47876 0.01308 0.45305 0.0
H591 H 0.44226 0.00191 0.42805 0.0
H592 H 0.53723 0.96886 0.47295 0.0
H593 H 0.42887 0.99421 0.50846 0.0
H594 H 0.43246 0.96677 0.48937 0.0
H595 H 0.43116 0.00632 0.48344 0.0
C596 C 0.44959 0.93139 0.44722 0.0
C597 C 0.43865 0.95469 0.43585 0.0
C598 C 0.47041 0.93784 0.46161 0.0
C599 C 0.47999 0.96727 0.4639 0.0
C600 C 0.47128 0.98964 0.45104 0.0
H601 H 0.55753 0.08855 0.54728 0.0
H602 H 0.53406 0.07064 0.51688 0.0
C603 C 0.45022 0.98343 0.43718 0.0
C604 C 0.49214 0.97731 0.48204 0.0
H605 H 0.47106 0.02252 0.51936 0.0
C606 C 0.523 0.97986 0.48352 0.0
C607 C 0.4729 0.99187 0.49523 0.0
C608 C 0.43941 0.98932 0.49414 0.0
C609 C 0.53532 0.9976 0.49805 0.0
C610 C 0.51616 0.0137 0.5106 0.0
C611 C 0.48544 0.011 0.5091 0.0
C612 C 0.52659 0.02642 0.5284 0.0
C613 C 0.56898 -0.00018 0.50022 0.0
C614 C 0.52644 0.00802 0.54474 0.0
C615 C 0.53739 0.0187 0.56205 0.0
C616 C 0.55011 0.04707 0.56249 0.0
C617 C 0.54751 0.06663 0.54678 0.0
C618 C 0.53516 0.05626 0.52953 0.0
H619 H 0.58041 0.99042 0.48716 0.0
H620 H 0.5762 0.02313 0.5028 0.0
H621 H 0.57552 0.98587 0.51307 0.0
H622 H 0.51894 0.98444 0.54379 0.0
H623 H 0.53994 0.00334 0.57415 0.0
H624 H 0.1753 0.03604 0.92969 0.0
H625 H 0.19005 0.04777 0.96219 0.0
H626 H 0.17263 0.14062 0.95183 0.0
H627 H 0.15512 0.12859 0.91841 0.0
H628 H 0.23767 0.07972 0.97081 0.0
H629 H 0.13926 0.13149 0.00798 0.0
H630 H 0.1357 0.10638 0.98665 0.0
H631 H 0.14879 0.14377 0.98343 0.0
C632 C 0.17393 0.0592 0.9339 0.0
C633 C 0.16392 0.08138 0.9207 0.0
C634 C 0.18258 0.06579 0.95291 0.0
C635 C 0.18278 0.09503 0.95979 0.0
C636 C 0.17236 0.11764 0.94711 0.0
H637 H 0.26714 0.17066 0.06151 0.0
H638 H 0.23782 0.15933 0.0327 0.0
C639 C 0.16262 0.11082 0.92784 0.0
C640 C 0.19668 0.10078 0.97948 0.0
H641 H 0.18329 0.12736 0.0263 0.0
C642 C 0.22568 0.08993 0.98281 0.0
C643 C 0.18121 0.11377 0.99537 0.0
C644 C 0.14953 0.12422 0.99327 0.0
C645 C 0.23926 0.09271 0.00168 0.0
C646 C 0.22392 0.10588 0.0175 0.0
C647 C 0.19499 0.1169 0.01428 0.0
C648 C 0.23902 0.11169 0.03665 0.0
C649 C 0.27078 0.08165 0.00389 0.0
C650 C 0.24895 0.08866 0.04911 0.0
C651 C 0.26606 0.09514 0.06592 0.0
C652 C 0.27363 0.12473 0.07032 0.0
C653 C 0.26216 0.14754 0.05837 0.0
C654 C 0.24518 0.14114 0.04187 0.0
H655 H 0.28084 0.07353 0.9893 0.0
H656 H 0.28505 0.09947 0.01012 0.0
H657 H 0.27121 0.06254 0.01411 0.0
H658 H 0.24408 0.06568 0.04558 0.0
H659 H 0.27432 0.07715 0.07489 0.0
H660 H 0.62998 0.47868 0.33546 0.0
H661 H 0.63924 0.4492 0.30563 0.0
H662 H 0.63701 0.52969 0.27151 0.0
H663 H 0.6296 0.5588 0.30088 0.0
H664 H 0.60353 0.44358 0.27219 0.0
H665 H 0.71134 0.49291 0.25088 0.0
H666 H 0.6964 0.49648 0.27521 0.0
H667 H 0.68409 0.5209 0.25603 0.0
C668 C 0.63311 0.4901 0.3217 0.0
C669 C 0.63001 0.52125 0.32068 0.0
C670 C 0.63769 0.47319 0.30457 0.0
C671 C 0.63931 0.48717 0.28618 0.0
C672 C 0.63684 0.51826 0.28541 0.0
H673 H 0.66207 0.45662 0.16323 0.0
H674 H 0.64849 0.47499 0.19562 0.0
C675 C 0.63274 0.535 0.30233 0.0
C676 C 0.64282 0.47003 0.26751 0.0
H677 H 0.68358 0.46939 0.22537 0.0
C678 C 0.62126 0.44887 0.26203 0.0
C679 C 0.66593 0.47673 0.25416 0.0
C680 C 0.69091 0.49776 0.25944 0.0
C681 C 0.62135 0.43555 0.24328 0.0
C682 C 0.64377 0.44339 0.22955 0.0
C683 C 0.66592 0.46366 0.23548 0.0
C684 C 0.64505 0.43148 0.20893 0.0
C685 C 0.59674 0.41409 0.23818 0.0
C686 C 0.64591 0.40074 0.20492 0.0
C687 C 0.65221 0.39021 0.18597 0.0
C688 C 0.65883 0.41001 0.17059 0.0
C689 C 0.65605 0.44066 0.17438 0.0
C690 C 0.64897 0.45119 0.19316 0.0
H691 H 0.57705 0.41706 0.24779 0.0
H692 H 0.58961 0.41677 0.22278 0.0
H693 H 0.60491 0.391 0.24016 0.0
H694 H 0.6439 0.38478 0.21666 0.0
H695 H 0.6552 0.36654 0.18388 0.0
H696 H 0.25971 0.83423 0.57373 0.0
H697 H 0.28739 0.8434 0.54358 0.0
H698 H 0.23422 0.92146 0.53294 0.0
H699 H 0.20583 0.91177 0.56314 0.0
H700 H 0.2602 0.8459 0.50528 0.0
H701 H 0.32267 0.94906 0.52314 0.0
H702 H 0.30933 0.92363 0.54159 0.0
H703 H 0.28388 0.94849 0.52981 0.0
C704 C 0.25462 0.85401 0.56532 0.0
C705 C 0.23122 0.87285 0.57116 0.0
C706 C 0.27026 0.859 0.54793 0.0
C707 C 0.26322 0.88325 0.53591 0.0
C708 C 0.24049 0.90283 0.54205 0.0
H709 H 0.29076 0.93808 0.41882 0.0
H710 H 0.2765 0.92599 0.45201 0.0
C711 C 0.22442 0.89752 0.55942 0.0
C712 C 0.27843 0.88677 0.51648 0.0
H713 H 0.32336 0.93334 0.48993 0.0
C714 C 0.27425 0.86489 0.50202 0.0
C715 C 0.29715 0.91125 0.51217 0.0
C716 C 0.30386 0.93443 0.52747 0.0
C717 C 0.28711 0.86754 0.48327 0.0
C718 C 0.30494 0.89255 0.47866 0.0
C719 C 0.30989 0.914 0.49333 0.0
C720 C 0.31481 0.8987 0.45802 0.0
C721 C 0.28076 0.84409 0.46811 0.0
C722 C 0.34122 0.88699 0.44984 0.0
C723 C 0.34995 0.89427 0.43048 0.0
C724 C 0.33213 0.913 0.41873 0.0
C725 C 0.30511 0.92329 0.42698 0.0
C726 C 0.2969 0.91665 0.44622 0.0
H727 H 0.26692 0.82563 0.47393 0.0
H728 H 0.269 0.85432 0.45556 0.0
H729 H 0.30204 0.83482 0.46256 0.0
H730 H 0.35546 0.87288 0.45858 0.0
H731 H 0.37118 0.88637 0.42509 0.0
H732 H 0.80737 0.5469 0.66827 0.0
H733 H 0.81864 0.52462 0.69967 0.0
H734 H 0.88157 0.59485 0.71147 0.0
H735 H 0.86835 0.61846 0.68043 0.0
H736 H 0.8609 0.50174 0.71766 0.0
H737 H 0.83515 0.60405 0.75983 0.0
H738 H 0.82758 0.60109 0.73407 0.0
H739 H 0.8647 0.60886 0.74259 0.0
C740 C 0.82494 0.55673 0.67698 0.0
C741 C 0.8373 0.58427 0.67147 0.0
C742 C 0.83081 0.54436 0.69534 0.0
C743 C 0.85017 0.55848 0.70857 0.0
C744 C 0.86552 0.584 0.7021 0.0
H745 H 0.91527 0.49967 0.82142 0.0
H746 H 0.90411 0.5276 0.79169 0.0
C747 C 0.85897 0.59686 0.68384 0.0
C748 C 0.85395 0.54598 0.72882 0.0
H749 H 0.8527 0.56267 0.77774 0.0
C750 C 0.85878 0.5152 0.73072 0.0
C751 C 0.85126 0.56329 0.74615 0.0
C752 C 0.8441 0.59608 0.74564 0.0
C753 C 0.86116 0.50136 0.74905 0.0
C754 C 0.85873 0.51857 0.76625 0.0
C755 C 0.8543 0.54941 0.76455 0.0
C756 C 0.86262 0.50485 0.78595 0.0
C757 C 0.86712 0.46836 0.74987 0.0
C758 C 0.8425 0.48334 0.79311 0.0
C759 C 0.84892 0.46718 0.81019 0.0
C760 C 0.87534 0.47267 0.82046 0.0
C761 C 0.89451 0.49533 0.81388 0.0
C762 C 0.8882 0.51129 0.79687 0.0
H763 H 0.87232 0.45891 0.73528 0.0
H764 H 0.88599 0.46367 0.75985 0.0
H765 H 0.84718 0.45673 0.75564 0.0
H766 H 0.82243 0.47821 0.78504 0.0
H767 H 0.834 0.44963 0.81484 0.0
H768 H 0.78922 0.9076 0.08538 0.0
H769 H 0.77074 0.89789 0.05249 0.0
H770 H 0.86081 0.89786 0.03082 0.0
H771 H 0.87933 0.90477 0.06405 0.0
H772 H 0.77247 0.93368 0.02377 0.0
H773 H 0.83207 0.83238 0.99693 0.0
H774 H 0.83206 0.84397 0.02275 0.0
H775 H 0.85616 0.86221 0.00549 0.0
C776 C 0.80522 0.90376 0.07383 0.0
C777 C 0.83588 0.9066 0.07773 0.0
C778 C 0.79458 0.89887 0.05477 0.0
C779 C 0.81408 0.89716 0.0387 0.0
C780 C 0.8449 0.89832 0.04266 0.0
H781 H 0.75815 0.8967 0.91211 0.0
H782 H 0.78865 0.90638 0.94144 0.0
C783 C 0.85561 0.90235 0.0619 0.0
C784 C 0.80166 0.89661 0.01806 0.0
H785 H 0.80284 0.85826 0.9738 0.0
C786 C 0.77924 0.91724 0.01308 0.0
C787 C 0.81049 0.8757 0.00355 0.0
C788 C 0.83374 0.85234 0.00757 0.0
C789 C 0.76533 0.91614 0.99422 0.0
C790 C 0.77343 0.89471 0.98007 0.0
C791 C 0.79664 0.87485 0.98455 0.0
C792 C 0.75541 0.89044 0.96177 0.0
C793 C 0.74114 0.93852 0.9901 0.0
C794 C 0.72636 0.87927 0.96321 0.0
C795 C 0.70932 0.87369 0.94651 0.0
C796 C 0.72073 0.87876 0.92757 0.0
C797 C 0.74912 0.89176 0.92619 0.0
C798 C 0.76649 0.89721 0.94304 0.0
H799 H 0.74153 0.95833 0.00093 0.0
H800 H 0.74305 0.94714 0.97497 0.0
H801 H 0.71912 0.92752 0.99153 0.0
H802 H 0.71704 0.87396 0.97737 0.0
H803 H 0.68749 0.86393 0.94853 0.0
H804 H 0.36985 0.62111 0.81623 0.0
H805 H 0.38298 0.59835 0.78478 0.0
H806 H 0.31973 0.52823 0.79526 0.0
H807 H 0.3072 0.55041 0.8268 0.0
H808 H 0.39893 0.53177 0.77337 0.0
H809 H 0.29357 0.57638 0.74245 0.0
H810 H 0.31305 0.59454 0.76221 0.0
H811 H 0.29218 0.56124 0.76677 0.0
C812 C 0.36035 0.59966 0.81254 0.0
C813 C 0.33816 0.58717 0.82461 0.0
C814 C 0.3672 0.58712 0.79419 0.0
C815 C 0.35188 0.56186 0.78737 0.0
C816 C 0.33174 0.54783 0.80005 0.0
H817 H 0.34056 0.44839 0.6847 0.0
H818 H 0.3314 0.4765 0.71506 0.0
C819 C 0.32528 0.56007 0.81846 0.0
C820 C 0.35606 0.55044 0.76694 0.0
H821 H 0.32072 0.54305 0.72281 0.0
C822 C 0.38193 0.53443 0.76229 0.0
C823 C 0.33403 0.5541 0.75231 0.0
C824 C 0.30664 0.57263 0.75598 0.0
C825 C 0.3858 0.52105 0.74381 0.0
C826 C 0.36327 0.5238 0.72943 0.0
C827 C 0.33777 0.54052 0.73387 0.0
C828 C 0.36585 0.50923 0.70983 0.0
C829 C 0.41361 0.50321 0.73995 0.0
C830 C 0.38712 0.5191 0.6963 0.0
C831 C 0.3917 0.50359 0.67881 0.0
C832 C 0.37525 0.47774 0.6744 0.0
C833 C 0.35293 0.46865 0.68743 0.0
C834 C 0.34803 0.4845 0.7049 0.0
H835 H 0.42703 0.49989 0.75337 0.0
H836 H 0.40775 0.48111 0.73378 0.0
H837 H 0.4276 0.51498 0.72907 0.0
H838 H 0.40102 0.53815 0.6996 0.0
H839 H 0.40963 0.51065 0.66927 0.0
H840 H 0.81289 0.12301 0.44657 0.0
H841 H 0.78388 0.11466 0.47617 0.0
H842 H 0.70379 0.10846 0.44186 0.0
H843 H 0.73298 0.11724 0.41201 0.0
H844 H 0.73659 0.15378 0.48846 0.0
H845 H 0.69846 0.03657 0.48055 0.0
H846 H 0.7306 0.05087 0.46776 0.0
H847 H 0.69393 0.06088 0.45989 0.0
C848 C 0.78926 0.11864 0.4452 0.0
C849 C 0.77544 0.11997 0.42678 0.0
C850 C 0.77259 0.11429 0.46222 0.0
C851 C 0.74157 0.11088 0.4614 0.0
C852 C 0.72773 0.11059 0.44294 0.0
H853 H 0.61799 0.09267 0.56193 0.0
H854 H 0.63721 0.10292 0.52909 0.0
C855 C 0.74451 0.1151 0.42579 0.0
C856 C 0.72405 0.10936 0.48004 0.0
H857 H 0.6831 0.06243 0.50891 0.0
C858 C 0.72473 0.13385 0.49284 0.0
C859 C 0.70845 0.08347 0.48584 0.0
C860 C 0.7078 0.05628 0.47293 0.0
C861 C 0.71074 0.13296 0.51128 0.0
C862 C 0.69583 0.10682 0.51738 0.0
C863 C 0.6944 0.08257 0.50434 0.0
C864 C 0.68347 0.10373 0.5377 0.0
C865 C 0.71204 0.16001 0.52426 0.0
C866 C 0.70278 0.10171 0.55378 0.0
C867 C 0.69181 0.09564 0.5726 0.0
C868 C 0.66112 0.09191 0.57607 0.0
C869 C 0.64164 0.09616 0.56013 0.0
C870 C 0.65268 0.10152 0.54116 0.0
H871 H 0.71948 0.18013 0.5162 0.0
H872 H 0.68986 0.16444 0.5308 0.0
H873 H 0.72793 0.15589 0.53634 0.0
H874 H 0.72662 0.10309 0.55159 0.0
H875 H 0.7076 0.09136 0.58419 0.0
H876 H 0.15945 0.36429 0.30994 0.0
H877 H 0.1514 0.38372 0.27697 0.0
H878 H 0.13702 0.47118 0.30083 0.0
H879 H 0.14607 0.45198 0.33366 0.0
H880 H 0.10889 0.41388 0.25588 0.0
H881 H 0.20639 0.48811 0.26505 0.0
H882 H 0.19906 0.45729 0.28123 0.0
H883 H 0.17947 0.49194 0.28419 0.0
C884 C 0.15268 0.38729 0.30835 0.0
C885 C 0.15252 0.40627 0.32484 0.0
C886 C 0.14888 0.39862 0.28929 0.0
C887 C 0.14452 0.42926 0.28611 0.0
C888 C 0.14123 0.44763 0.30263 0.0
H889 H 0.11595 0.55811 0.19735 0.0
H890 H 0.12547 0.52763 0.22595 0.0
C891 C 0.14532 0.43638 0.32162 0.0
C892 C 0.14439 0.44228 0.26577 0.0
H893 H 0.1758 0.49715 0.23771 0.0
C894 C 0.12377 0.43186 0.25186 0.0
C895 C 0.16415 0.46544 0.2601 0.0
C896 C 0.18875 0.47619 0.27332 0.0
C897 C 0.12107 0.44515 0.2332 0.0
C898 C 0.13977 0.46938 0.22806 0.0
C899 C 0.16126 0.4788 0.24159 0.0
C900 C 0.1355 0.48751 0.20984 0.0
C901 C 0.09713 0.43426 0.21953 0.0
C902 C 0.1389 0.47562 0.19089 0.0
C903 C 0.13359 0.49336 0.17424 0.0
C904 C 0.12492 0.52333 0.17622 0.0
C905 C 0.12301 0.5353 0.19518 0.0
C906 C 0.12819 0.51773 0.21165 0.0
H907 H 0.0826 0.41722 0.22641 0.0
H908 H 0.08312 0.45318 0.21466 0.0
H909 H 0.10753 0.42425 0.20639 0.0
H910 H 0.14512 0.45255 0.18896 0.0
H911 H 0.13452 0.48318 0.15994 0.0
H912 H 0.72816 0.6352 0.58406 0.0
H913 H 0.69958 0.62832 0.55373 0.0
H914 H 0.7784 0.59517 0.52522 0.0
H915 H 0.80676 0.60209 0.55531 0.0
H916 H 0.71297 0.65611 0.51627 0.0
H917 H 0.71463 0.53309 0.51091 0.0
H918 H 0.71995 0.55272 0.53365 0.0
H919 H 0.75011 0.54941 0.51656 0.0
C920 C 0.73894 0.62501 0.57159 0.0
C921 C 0.7695 0.618 0.57231 0.0
C922 C 0.72275 0.62172 0.55412 0.0
C923 C 0.7367 0.61098 0.53712 0.0
C924 C 0.76689 0.60297 0.53813 0.0
H925 H 0.70168 0.5717 0.41601 0.0
H926 H 0.72401 0.58628 0.4472 0.0
C927 C 0.78306 0.60654 0.55544 0.0
C928 C 0.7205 0.60889 0.51805 0.0
H929 H 0.70256 0.55953 0.48187 0.0
C930 C 0.71035 0.63496 0.50884 0.0
C931 C 0.71694 0.58137 0.50829 0.0
C932 C 0.72569 0.55248 0.51789 0.0
C933 C 0.69793 0.63426 0.48987 0.0
C934 C 0.69552 0.60681 0.47979 0.0
C935 C 0.70486 0.58071 0.48932 0.0
C936 C 0.68347 0.60435 0.45938 0.0
C937 C 0.68839 0.66302 0.48047 0.0
C938 C 0.65363 0.61119 0.45521 0.0
C939 C 0.64116 0.6039 0.43699 0.0
C940 C 0.65793 0.58892 0.42258 0.0
C941 C 0.68838 0.58431 0.42628 0.0
C942 C 0.70097 0.59193 0.44441 0.0
H943 H 0.69689 0.68276 0.48849 0.0
H944 H 0.6963 0.66407 0.46514 0.0
H945 H 0.66372 0.66416 0.48029 0.0
H946 H 0.63929 0.62002 0.46652 0.0
H947 H 0.61733 0.60641 0.43517 0.0
H948 H 0.10935 0.98415 0.83269 0.0
H949 H 0.11733 0.95368 0.80331 0.0
H950 H 0.15282 0.03094 0.77347 0.0
H951 H 0.14407 0.06149 0.80261 0.0
H952 H 0.09133 0.96556 0.7646 0.0
H953 H 0.21458 0.96309 0.76247 0.0
H954 H 0.19366 0.96878 0.78467 0.0
H955 H 0.19915 -0.00046 0.76789 0.0
C956 C 0.11996 0.99419 0.82011 0.0
C957 C 0.12732 0.02535 0.82023 0.0
C958 C 0.12402 0.97684 0.80318 0.0
C959 C 0.1358 0.98953 0.78607 0.0
C960 C 0.1441 0.0204 0.78647 0.0
H961 H 0.17375 0.957 0.66553 0.0
H962 H 0.16011 0.97599 0.69773 0.0
C963 C 0.13941 0.03786 0.80322 0.0
C964 C 0.1386 0.97191 0.76748 0.0
H965 H 0.18943 0.9506 0.73292 0.0
C966 C 0.11281 0.96193 0.75779 0.0
C967 C 0.16655 0.96667 0.7586 0.0
C968 C 0.19509 0.97462 0.76896 0.0
C969 C 0.11422 0.94851 0.73909 0.0
C970 C 0.14209 0.94493 0.72968 0.0
C971 C 0.16793 0.95371 0.73981 0.0
C972 C 0.145 0.93374 0.70898 0.0
C973 C 0.0858 0.93928 0.72912 0.0
C974 C 0.13969 0.90379 0.70392 0.0
C975 C 0.14704 0.89291 0.68514 0.0
C976 C 0.15994 0.91166 0.6709 0.0
C977 C 0.16281 0.94207 0.67565 0.0
C978 C 0.15567 0.95286 0.69435 0.0
H979 H 0.06573 0.94654 0.73731 0.0
H980 H 0.08491 0.94874 0.71418 0.0
H981 H 0.08524 0.91468 0.72774 0.0
H982 H 0.13183 0.88833 0.71488 0.0
H983 H 0.14573 0.86916 0.68254 0.0
H984 H 0.68887 0.35795 0.04809 0.0
H985 H 0.71883 0.36659 0.01964 0.0
H986 H 0.78811 0.40459 0.05536 0.0
H987 H 0.75858 0.39335 0.0849 0.0
H988 H 0.73731 0.41648 0.00433 0.0
H989 H 0.83725 0.34842 0.02185 0.0
H990 H 0.80236 0.34335 0.03453 0.0
H991 H 0.82519 0.37517 0.03967 0.0
C992 C 0.71036 0.3684 0.05022 0.0
C993 C 0.72107 0.37493 0.06911 0.0
C994 C 0.72765 0.37325 0.03369 0.0
C995 C 0.75608 0.38582 0.0351 0.0
C996 C 0.76658 0.39405 0.05378 0.0
H997 H 0.8761 0.42637 0.93827 0.0
H998 H 0.85378 0.41714 0.96976 0.0
C999 C 0.74935 0.38835 0.07069 0.0
C1000 C 0.77313 0.39086 0.01652 0.0
H1001 H 0.83555 0.36951 0.99026 0.0
C1002 C 0.75876 0.40635 0.00141 0.0
C1003 C 0.80121 0.37779 0.01259 0.0
C1004 C 0.81749 0.36007 0.0279 0.0
C1005 C 0.77143 0.40797 0.98211 0.0
C1006 C 0.79915 0.39431 0.97792 0.0
C1007 C 0.81409 0.37958 0.99321 0.0
C1008 C 0.81382 0.39704 0.95822 0.0
C1009 C 0.75496 0.42602 0.96705 0.0
C1010 C 0.79965 0.38812 0.94076 0.0
C1011 C 0.81189 0.39537 0.92234 0.0
C1012 C 0.83945 0.41011 0.92091 0.0
C1013 C 0.85484 0.41571 0.93847 0.0
C1014 C 0.84204 0.41008 0.95674 0.0
H1015 H 0.73589 0.43838 0.97344 0.0
H1016 H 0.77029 0.44218 0.96003 0.0
H1017 H 0.74603 0.41109 0.95558 0.0
H1018 H 0.77843 0.37674 0.94133 0.0
H1019 H 0.79911 0.3908 0.90929 0.0
H1020 H 0.28367 0.07695 0.18221 0.0
H1021 H 0.29669 0.06098 0.21428 0.0
H1022 H 0.38939 0.07659 0.20201 0.0
H1023 H 0.37628 0.09433 0.16883 0.0
H1024 H 0.33103 0.01135 0.22068 0.0
H1025 H 0.37884 0.11003 0.25866 0.0
H1026 H 0.35329 0.11383 0.23847 0.0
H1027 H 0.39092 0.10235 0.2341 0.0
C1028 C 0.30709 0.07743 0.18588 0.0
C1029 C 0.32899 0.08663 0.17219 0.0
C1030 C 0.31439 0.06822 0.20463 0.0
C1031 C 0.34396 0.06722 0.21075 0.0
C1032 C 0.36623 0.07731 0.19771 0.0
H1033 H 0.4242 0.98221 0.30865 0.0
H1034 H 0.41046 0.01135 0.28029 0.0
C1035 C 0.35878 0.08723 0.17864 0.0
C1036 C 0.3504 0.05281 0.23005 0.0
H1037 H 0.37571 0.06543 0.27646 0.0
C1038 C 0.34079 0.02327 0.23286 0.0
C1039 C 0.36273 0.06833 0.24612 0.0
C1040 C 0.37197 0.10045 0.2444 0.0
C1041 C 0.34354 0.0088 0.25097 0.0
C1042 C 0.35601 0.02422 0.26697 0.0
C1043 C 0.36567 0.05375 0.26427 0.0
C1044 C 0.36318 0.00863 0.28561 0.0
C1045 C 0.33384 0.9761 0.25272 0.0
C1046 C 0.34089 0.99721 0.29854 0.0
C1047 C 0.34892 0.98049 0.31519 0.0
C1048 C 0.37902 0.97404 0.3188 0.0
C1049 C 0.4007 0.98597 0.30612 0.0
C1050 C 0.39307 0.00326 0.28988 0.0
H1051 H 0.32657 0.9666 0.23854 0.0
H1052 H 0.35255 0.96254 0.25844 0.0
H1053 H 0.31512 0.97426 0.26322 0.0
H1054 H 0.31786 0.00195 0.29562 0.0
H1055 H 0.33177 0.97196 0.32477 0.0
H1056 H 0.33118 0.46336 0.56423 0.0
H1057 H 0.3173 0.45096 0.53137 0.0
H1058 H 0.32286 0.35774 0.54503 0.0
H1059 H 0.33956 0.37007 0.57859 0.0
H1060 H 0.34572 0.4106 0.50023 0.0
H1061 H 0.23263 0.38001 0.52693 0.0
H1062 H 0.2571 0.40375 0.54087 0.0
H1063 H 0.26452 0.36463 0.53928 0.0
C1064 C 0.33035 0.43998 0.56054 0.0
C1065 C 0.33711 0.41774 0.57458 0.0
C1066 C 0.32227 0.43303 0.54141 0.0
C1067 C 0.31901 0.40351 0.53549 0.0
C1068 C 0.32551 0.38084 0.54916 0.0
H1069 H 0.23776 0.32596 0.43516 0.0
H1070 H 0.26783 0.33882 0.46316 0.0
C1071 C 0.33497 0.38788 0.56842 0.0
C1072 C 0.30601 0.39746 0.51566 0.0
H1073 H 0.24021 0.3801 0.49317 0.0
C1074 C 0.32272 0.40368 0.49869 0.0
C1075 C 0.27575 0.38934 0.51348 0.0
C1076 C 0.2562 0.38414 0.53102 0.0
C1077 C 0.31012 0.40112 0.4798 0.0
C1078 C 0.27994 0.39271 0.47779 0.0
C1079 C 0.26328 0.38683 0.4947 0.0
C1080 C 0.26579 0.38622 0.45847 0.0
C1081 C 0.32913 0.4067 0.46205 0.0
C1082 C 0.25525 0.40868 0.4458 0.0
C1083 C 0.23743 0.40133 0.42942 0.0
C1084 C 0.22965 0.37149 0.42582 0.0
C1085 C 0.24222 0.34932 0.43782 0.0
C1086 C 0.25979 0.35655 0.45385 0.0
H1087 H 0.3524 0.41258 0.46593 0.0
H1088 H 0.32935 0.38654 0.45266 0.0
H1089 H 0.3194 0.42507 0.45332 0.0
H1090 H 0.25973 0.43184 0.44902 0.0
H1091 H 0.22869 0.41886 0.42026 0.0
H1092 H 0.87863 0.93229 0.1984 0.0
H1093 H 0.86979 0.96227 0.22756 0.0
H1094 H 0.8581 0.04066 0.19179 0.0
H1095 H 0.86735 0.01052 0.16241 0.0
H1096 H 0.90629 0.0133 0.23873 0.0
H1097 H 0.78686 0.04383 0.23109 0.0
H1098 H 0.80272 0.01202 0.21876 0.0
H1099 H 0.81067 0.04884 0.2102 0.0
C1100 C 0.87309 0.95558 0.19662 0.0
C1101 C 0.87282 0.96844 0.17788 0.0
C1102 C 0.86839 0.97285 0.2134 0.0
C1103 C 0.86334 0.00414 0.21208 0.0
C1104 C 0.8617 0.01696 0.19334 0.0
H1105 H 0.84126 0.1299 0.31171 0.0
H1106 H 0.85366 0.11054 0.27917 0.0
C1107 C 0.86625 0.99901 0.17644 0.0
C1108 C 0.86102 0.02245 0.23044 0.0
H1109 H 0.81193 0.06129 0.25914 0.0
C1110 C 0.88568 0.02394 0.24309 0.0
C1111 C 0.83429 0.03664 0.23623 0.0
C1112 C 0.80696 0.03528 0.2235 0.0
C1113 C 0.8841 0.03852 0.26135 0.0
C1114 C 0.85711 0.05179 0.26748 0.0
C1115 C 0.8327 0.05118 0.25457 0.0
C1116 C 0.85329 0.06428 0.28776 0.0
C1117 C 0.91131 0.0396 0.27416 0.0
C1118 C 0.84994 0.04506 0.30379 0.0
C1119 C 0.84269 0.05613 0.32244 0.0
C1120 C 0.83922 0.08686 0.32584 0.0
C1121 C 0.84474 0.10623 0.31 0.0
C1122 C 0.8513 0.0951 0.29119 0.0
H1123 H 0.93157 0.03171 0.26643 0.0
H1124 H 0.91515 0.06269 0.27937 0.0
H1125 H 0.90768 0.02538 0.28717 0.0
H1126 H 0.85119 0.02121 0.30164 0.0
H1127 H 0.83743 0.04042 0.33391 0.0
H1128 H 0.20051 0.57746 0.08268 0.0
H1129 H 0.22538 0.59166 0.05221 0.0
H1130 H 0.13991 0.61011 0.02638 0.0
H1131 H 0.11579 0.59913 0.0572 0.0
H1132 H 0.22227 0.56277 0.02041 0.0
H1133 H 0.18125 0.67498 0.001 0.0
H1134 H 0.17583 0.65964 0.02501 0.0
H1135 H 0.1513 0.64957 0.00523 0.0
C1136 C 0.18734 0.58695 0.07102 0.0
C1137 C 0.1562 0.58825 0.07279 0.0
C1138 C 0.20147 0.59422 0.05329 0.0
C1139 C 0.18479 0.60231 0.03668 0.0
C1140 C 0.15381 0.60526 0.03885 0.0
H1141 H 0.23412 0.62175 0.91186 0.0
H1142 H 0.20609 0.61028 0.94175 0.0
C1143 C 0.13991 0.5992 0.05674 0.0
C1144 C 0.19932 0.60456 0.01688 0.0
H1145 H 0.20472 0.64655 0.97509 0.0
C1146 C 0.21849 0.58151 0.01079 0.0
C1147 C 0.19408 0.62851 0.00379 0.0
C1148 C 0.17471 0.65467 0.00917 0.0
C1149 C 0.23294 0.58114 0.99193 0.0
C1150 C 0.22808 0.6053 0.97911 0.0
C1151 C 0.20841 0.62795 0.98486 0.0
C1152 C 0.24493 0.60856 0.96039 0.0
C1153 C 0.25274 0.55543 0.98625 0.0
C1154 C 0.27608 0.61081 0.96072 0.0
C1155 C 0.29206 0.61664 0.94364 0.0
C1156 C 0.27735 0.6207 0.92572 0.0
C1157 C 0.24622 0.61749 0.9252 0.0
C1158 C 0.23014 0.61155 0.9424 0.0
H1159 H 0.24777 0.53521 0.99497 0.0
H1160 H 0.25026 0.54997 0.97053 0.0
H1161 H 0.27631 0.56158 0.98892 0.0
H1162 H 0.28805 0.60945 0.9744 0.0
H1163 H 0.31593 0.61972 0.94469 0.0
H1164 H 0.60874 0.97992 0.66377 0.0
H1165 H 0.61716 0.95176 0.69393 0.0
H1166 H 0.65965 0.02923 0.71951 0.0
H1167 H 0.64989 0.05772 0.68968 0.0
H1168 H 0.66525 0.93619 0.71799 0.0
H1169 H 0.59082 0.01516 0.75667 0.0
H1170 H 0.5924 0.01266 0.73042 0.0
H1171 H 0.62039 0.03309 0.74359 0.0
C1172 C 0.62097 0.99037 0.67557 0.0
C1173 C 0.62955 0.02109 0.67423 0.0
C1174 C 0.62543 0.97436 0.69291 0.0
C1175 C 0.63833 0.98819 0.70927 0.0
C1176 C 0.649 0.0182 0.70733 0.0
H1177 H 0.6799 0.94982 0.82964 0.0
H1178 H 0.66927 0.97126 0.79763 0.0
C1179 C 0.64404 0.03434 0.69013 0.0
C1180 C 0.63919 0.97283 0.72869 0.0
H1181 H 0.61748 0.98093 0.7763 0.0
C1182 C 0.65464 0.94582 0.73073 0.0
C1183 C 0.62491 0.98501 0.74532 0.0
C1184 C 0.60599 0.01304 0.74394 0.0
C1185 C 0.65744 0.9316 0.74906 0.0
C1186 C 0.64412 0.94456 0.76589 0.0
C1187 C 0.62799 0.97106 0.7636 0.0
C1188 C 0.6475 0.93208 0.78616 0.0
C1189 C 0.67576 0.90357 0.75037 0.0
C1190 C 0.6368 0.90368 0.79117 0.0
C1191 C 0.6418 0.89182 0.80992 0.0
C1192 C 0.65815 0.9077 0.82415 0.0
C1193 C 0.66619 0.93723 0.81959 0.0
C1194 C 0.66101 0.94918 0.80091 0.0
H1195 H 0.68757 0.89857 0.7365 0.0
H1196 H 0.69241 0.9056 0.76226 0.0
H1197 H 0.66107 0.88444 0.75381 0.0
H1198 H 0.62557 0.89015 0.78036 0.0
H1199 H 0.6362 0.86868 0.81244 0.0
H1200 H 0.37715 0.24327 0.1145 0.0
H1201 H 0.42398 0.26507 0.12435 0.0
H1202 H 0.4483 0.18291 0.15271 0.0
H1203 H 0.40169 0.15987 0.14097 0.0
H1204 H 0.45384 0.27976 0.15285 0.0
H1205 H 0.51762 0.18789 0.11825 0.0
H1206 H 0.47776 0.19043 0.11641 0.0
H1207 H 0.49482 0.17631 0.1383 0.0
C1208 C 0.39218 0.22988 0.1232 0.0
C1209 C 0.38587 0.19966 0.12668 0.0
C1210 C 0.41919 0.24246 0.12885 0.0
C1211 C 0.44067 0.2255 0.13867 0.0
C1212 C 0.43292 0.1962 0.1443 0.0
H1213 H 0.63064 0.27691 0.14737 0.0
H1214 H 0.58229 0.25599 0.15733 0.0
C1215 C 0.4059 0.18317 0.13805 0.0
C1216 C 0.47129 0.23853 0.14151 0.0
H1217 H 0.54508 0.22782 0.13075 0.0
C1218 C 0.47374 0.26812 0.14817 0.0
C1219 C 0.49763 0.22382 0.13526 0.0
C1220 C 0.49693 0.193 0.12648 0.0
C1221 C 0.50108 0.28351 0.14817 0.0
C1222 C 0.52722 0.26891 0.14175 0.0
C1223 C 0.52518 0.23896 0.13594 0.0
C1224 C 0.55612 0.28507 0.13896 0.0
C1225 C 0.50154 0.31562 0.1546 0.0
C1226 C 0.55764 0.30918 0.12597 0.0
C1227 C 0.58508 0.32155 0.12073 0.0
C1228 C 0.61184 0.30999 0.12808 0.0
C1229 C 0.61038 0.28713 0.14206 0.0
C1230 C 0.58274 0.27473 0.14742 0.0
H1231 H 0.48252 0.32082 0.16439 0.0
H1232 H 0.52261 0.32117 0.16224 0.0
H1233 H 0.49961 0.33016 0.14159 0.0
H1234 H 0.53778 0.31707 0.11871 0.0
H1235 H 0.58555 0.33823 0.10933 0.0
H1236 H 0.51692 0.63986 0.34886 0.0
H1237 H 0.49585 0.68504 0.36065 0.0
H1238 H 0.55636 0.68466 0.40948 0.0
H1239 H 0.57955 0.63834 0.39673 0.0
H1240 H 0.4665 0.69897 0.39131 0.0
H1241 H 0.56923 0.76844 0.38967 0.0
H1242 H 0.56824 0.73166 0.37913 0.0
H1243 H 0.56914 0.73614 0.40514 0.0
C1244 C 0.52649 0.64915 0.36202 0.0
C1245 C 0.55094 0.63557 0.37137 0.0
C1246 C 0.51388 0.67523 0.36894 0.0
C1247 C 0.52457 0.68903 0.38581 0.0
C1248 C 0.54808 0.67502 0.39608 0.0
H1249 H 0.45871 0.87529 0.40092 0.0
H1250 H 0.47938 0.82697 0.4116 0.0
C1251 C 0.56119 0.64836 0.38891 0.0
C1252 C 0.51046 0.71817 0.39147 0.0
H1253 H 0.52354 0.79336 0.39172 0.0
C1254 C 0.47914 0.71953 0.39188 0.0
C1255 C 0.52662 0.74528 0.39219 0.0
C1256 C 0.56016 0.7456 0.39142 0.0
C1257 C 0.46372 0.74674 0.39127 0.0
C1258 C 0.47982 0.77383 0.39077 0.0
C1259 C 0.51109 0.7727 0.39213 0.0
C1260 C 0.4648 0.80274 0.386 0.0
C1261 C 0.43018 0.74603 0.39003 0.0
C1262 C 0.44915 0.80525 0.36838 0.0
C1263 C 0.43661 0.83226 0.36269 0.0
C1264 C 0.43983 0.85803 0.37414 0.0
C1265 C 0.45473 0.85562 0.39214 0.0
C1266 C 0.46714 0.82815 0.39802 0.0
H1267 H 0.42098 0.72564 0.39692 0.0
H1268 H 0.42007 0.76583 0.3971 0.0
H1269 H 0.42343 0.74572 0.37446 0.0
H1270 H 0.4478 0.78655 0.35845 0.0
H1271 H 0.4263 0.83356 0.34843 0.0
H1272 H 0.88192 0.73625 0.60541 0.0
H1273 H 0.92822 0.75815 0.61548 0.0
H1274 H 0.94185 0.68631 0.65621 0.0
H1275 H 0.89533 0.66243 0.64462 0.0
H1276 H 0.95104 0.7811 0.64475 0.0
H1277 H 0.02048 0.68063 0.62978 0.0
H1278 H 0.98087 0.68238 0.62328 0.0
H1279 H 0.99167 0.67665 0.64826 0.0
C1280 C 0.89457 0.72482 0.61658 0.0
C1281 C 0.88506 0.69698 0.62373 0.0
C1282 C 0.9213 0.73768 0.62247 0.0
C1283 C 0.93965 0.72377 0.63624 0.0
C1284 C 0.92903 0.69712 0.64492 0.0
H1285 H 0.12972 0.7842 0.64752 0.0
H1286 H 0.08166 0.76279 0.6581 0.0
C1287 C 0.90204 0.68367 0.63859 0.0
C1288 C 0.96984 0.7375 0.6403 0.0
H1289 H 0.04582 0.72505 0.63616 0.0
C1290 C 0.9715 0.76856 0.64311 0.0
C1291 C 0.99703 0.72162 0.63831 0.0
C1292 C 0.99744 0.68854 0.6346 0.0
C1293 C 0.99879 0.78414 0.64279 0.0
C1294 C 0.0266 0.76849 0.63983 0.0
C1295 C 0.0253 0.73723 0.63844 0.0
C1296 C 0.05553 0.7844 0.63568 0.0
C1297 C 0.99819 0.81753 0.64505 0.0
C1298 C 0.05716 0.80436 0.61995 0.0
C1299 C 0.08428 0.81707 0.61429 0.0
C1300 C 0.11099 0.81011 0.62392 0.0
C1301 C 0.10947 0.79108 0.64024 0.0
C1302 C 0.08201 0.77831 0.64603 0.0
H1303 H 0.97846 0.82488 0.65356 0.0
H1304 H 0.01942 0.82588 0.65235 0.0
H1305 H 0.99664 0.82794 0.63042 0.0
H1306 H 0.03763 0.80885 0.6112 0.0
H1307 H 0.08473 0.83062 0.60123 0.0
H1308 H 0.99384 0.38026 0.88215 0.0
H1309 H 0.01566 0.33169 0.89032 0.0
H1310 H 0.92722 0.29286 0.88763 0.0
H1311 H 0.90636 0.34146 0.87861 0.0
H1312 H 0.01136 0.28622 0.91631 0.0
H1313 H 0.96868 0.24869 0.84428 0.0
H1314 H 0.9684 0.28719 0.85163 0.0
H1315 H 0.93993 0.26217 0.86014 0.0
C1316 C 0.97881 0.36166 0.88427 0.0
C1317 C 0.94828 0.36494 0.88011 0.0
C1318 C 0.99096 0.33369 0.8887 0.0
C1319 C 0.97289 0.30817 0.88905 0.0
C1320 C 0.94189 0.31195 0.88693 0.0
H1321 H 0.01107 0.11827 0.88473 0.0
H1322 H 0.9893 0.16643 0.8942 0.0
C1323 C 0.92977 0.33995 0.88225 0.0
C1324 C 0.98679 0.27771 0.8896 0.0
H1325 H 0.99218 0.21262 0.86374 0.0
C1326 C 0.00722 0.27013 0.90483 0.0
C1327 C 0.98217 0.2567 0.87442 0.0
C1328 C 0.96394 0.26409 0.85658 0.0
C1329 C 0.02157 0.24211 0.90549 0.0
C1330 C 0.01618 0.22096 0.8906 0.0
C1331 C 0.99596 0.22858 0.87536 0.0
C1332 C 0.03093 0.19104 0.88993 0.0
C1333 C 0.04212 0.23503 0.9222 0.0
C1334 C 0.06133 0.18833 0.88525 0.0
C1335 C 0.07343 0.1606 0.87988 0.0
C1336 C 0.05547 0.13498 0.87929 0.0
C1337 C 0.02577 0.13735 0.88566 0.0
C1338 C 0.01361 0.16503 0.89082 0.0
H1339 H 0.04133 0.25229 0.9338 0.0
H1340 H 0.03618 0.21315 0.92864 0.0
H1341 H 0.06531 0.23344 0.91673 0.0
H1342 H 0.07512 0.20803 0.88413 0.0
H1343 H 0.09603 0.15974 0.8744 0.0
H1344 H 0.60361 0.8356 0.85127 0.0
H1345 H 0.55502 0.81526 0.84015 0.0
H1346 H 0.56797 0.73807 0.87629 0.0
H1347 H 0.61561 0.75733 0.88686 0.0
H1348 H 0.53541 0.74111 0.82814 0.0
H1349 H 0.49059 0.79537 0.89494 0.0
H1350 H 0.52191 0.81052 0.88168 0.0
H1351 H 0.52667 0.77817 0.89664 0.0
C1352 C 0.59646 0.81391 0.8563 0.0
C1353 C 0.61351 0.79844 0.87022 0.0
C1354 C 0.5686 0.80232 0.85004 0.0
C1355 C 0.55757 0.77516 0.85758 0.0
C1356 C 0.57575 0.75893 0.87021 0.0
H1357 H 0.41745 0.66091 0.88614 0.0
H1358 H 0.46367 0.68481 0.87585 0.0
C1359 C 0.60316 0.77022 0.8763 0.0
C1360 C 0.52606 0.76472 0.85477 0.0
H1361 H 0.46116 0.75745 0.88063 0.0
C1362 C 0.51884 0.74539 0.83928 0.0
C1363 C 0.50447 0.76965 0.86949 0.0
C1364 C 0.51105 0.78966 0.88664 0.0
C1365 C 0.49114 0.73023 0.83863 0.0
C1366 C 0.47018 0.73427 0.85383 0.0
C1367 C 0.47701 0.75444 0.86885 0.0
C1368 C 0.4427 0.71545 0.85591 0.0
C1369 C 0.48479 0.70886 0.82221 0.0
C1370 C 0.41531 0.72358 0.84744 0.0
C1371 C 0.38855 0.70944 0.85318 0.0
C1372 C 0.38875 0.68697 0.86753 0.0
C1373 C 0.4165 0.6774 0.87464 0.0
C1374 C 0.44302 0.6914 0.86895 0.0
H1375 H 0.50313 0.70815 0.81135 0.0
H1376 H 0.48133 0.68616 0.82819 0.0
H1377 H 0.4639 0.71546 0.81474 0.0
H1378 H 0.41434 0.7422 0.83745 0.0
H1379 H 0.36757 0.71813 0.84789 0.0
H1380 H 0.47135 0.34551 0.65245 0.0
H1381 H 0.49083 0.29977 0.64006 0.0
H1382 H 0.45182 0.31721 0.58387 0.0
H1383 H 0.43222 0.36544 0.59626 0.0
H1384 H 0.44856 0.25401 0.62252 0.0
H1385 H 0.54715 0.28707 0.57831 0.0
H1386 H 0.53445 0.31086 0.59783 0.0
H1387 H 0.51221 0.3068 0.57631 0.0
C1388 C 0.46651 0.34027 0.63736 0.0
C1389 C 0.44946 0.35954 0.62552 0.0
C1390 C 0.47807 0.31376 0.63028 0.0
C1391 C 0.47287 0.30481 0.6111 0.0
C1392 C 0.45622 0.32373 0.5988 0.0
H1393 H 0.54021 0.11793 0.59787 0.0
H1394 H 0.51625 0.16432 0.58642 0.0
C1395 C 0.44472 0.35111 0.60593 0.0
C1396 C 0.48327 0.27435 0.60556 0.0
H1397 H 0.54588 0.23764 0.59017 0.0
C1398 C 0.46922 0.25017 0.61472 0.0
C1399 C 0.51074 0.26945 0.59594 0.0
C1400 C 0.52722 0.2948 0.58646 0.0
C1401 C 0.48277 0.22199 0.61576 0.0
C1402 C 0.51092 0.21738 0.60699 0.0
C1403 C 0.5241 0.24096 0.59663 0.0
C1404 C 0.52894 0.19032 0.61168 0.0
C1405 C 0.46807 0.19797 0.62772 0.0
C1406 C 0.54489 0.18978 0.62922 0.0
C1407 C 0.55874 0.1637 0.63557 0.0
C1408 C 0.55721 0.13724 0.6246 0.0
C1409 C 0.54268 0.13809 0.60639 0.0
C1410 C 0.5286 0.16449 0.59998 0.0
H1411 H 0.44493 0.20392 0.63191 0.0
H1412 H 0.46773 0.17671 0.61946 0.0
H1413 H 0.48112 0.1943 0.64125 0.0
H1414 H 0.54531 0.20923 0.63857 0.0
H1415 H 0.56906 0.1637 0.64985 0.0
H1416 H 0.09493 0.28111 0.40239 0.0
H1417 H 0.04926 0.2615 0.39009 0.0
H1418 H 0.06946 0.29531 0.33284 0.0
H1419 H 0.11774 0.31499 0.34518 0.0
H1420 H 0.00443 0.30121 0.37131 0.0
H1421 H 0.039 0.20112 0.32907 0.0
H1422 H 0.0622 0.21501 0.34854 0.0
H1423 H 0.05865 0.23604 0.32647 0.0
C1424 C 0.09037 0.28477 0.38708 0.0
C1425 C 0.11051 0.30032 0.37491 0.0
C1426 C 0.06383 0.27318 0.38006 0.0
C1427 C 0.05565 0.27688 0.36061 0.0
C1428 C 0.07537 0.29211 0.348 0.0
H1429 H 0.86809 0.20889 0.34683 0.0
H1430 H 0.91443 0.23325 0.3355 0.0
C1431 C 0.10278 0.30365 0.35509 0.0
C1432 C 0.02532 0.26614 0.35496 0.0
H1433 H 0.98835 0.20298 0.33994 0.0
C1434 C 0.00084 0.28033 0.36371 0.0
C1435 C 0.02075 0.23835 0.34567 0.0
C1436 C 0.04642 0.22153 0.33684 0.0
C1437 C 0.97185 0.26671 0.3646 0.0
C1438 C 0.96753 0.23836 0.35604 0.0
C1439 C 0.99145 0.22496 0.34615 0.0
C1440 C 0.94047 0.22028 0.36064 0.0
C1441 C 0.94751 0.2815 0.37625 0.0
C1442 C 0.94002 0.20398 0.37802 0.0
C1443 C 0.91405 0.18973 0.38422 0.0
C1444 C 0.88756 0.19138 0.37332 0.0
C1445 C 0.8883 0.20631 0.35526 0.0
C1446 C 0.91464 0.22066 0.34896 0.0
H1447 H 0.95334 0.30471 0.38038 0.0
H1448 H 0.92645 0.28166 0.3678 0.0
H1449 H 0.94351 0.26863 0.38982 0.0
H1450 H 0.95945 0.20354 0.38737 0.0
H1451 H 0.91411 0.17917 0.39843 0.0
H1452 H 0.08293 0.64197 0.09975 0.0
H1453 H 0.06286 0.69025 0.08788 0.0
H1454 H 0.99117 0.68496 0.13004 0.0
H1455 H 0.01095 0.6381 0.14156 0.0
H1456 H 0.98725 0.71087 0.08031 0.0
H1457 H 0.05335 0.76154 0.14077 0.0
H1458 H 0.06568 0.72841 0.12815 0.0
H1459 H 0.03574 0.72628 0.14542 0.0
C1460 C 0.06284 0.65096 0.10619 0.0
C1461 C 0.0493 0.63642 0.12209 0.0
C1462 C 0.05133 0.6785 0.09941 0.0
C1463 C 0.02603 0.69146 0.10829 0.0
C1464 C 0.01148 0.67568 0.12299 0.0
H1465 H 0.91554 0.83229 0.13836 0.0
H1466 H 0.9381 0.78562 0.12774 0.0
C1467 C 0.02277 0.64877 0.1297 0.0
C1468 C 0.01604 0.72271 0.10458 0.0
H1469 H 0.01321 0.78985 0.12814 0.0
C1470 C 0.9935 0.7285 0.0903 0.0
C1471 C 0.02347 0.74557 0.11795 0.0
C1472 C 0.04594 0.74038 0.13393 0.0
C1473 C 0.97834 0.7561 0.08964 0.0
C1474 C 0.98498 0.77837 0.10358 0.0
C1475 C 0.00833 0.77297 0.11728 0.0
C1476 C 0.96647 0.80578 0.10601 0.0
C1477 C 0.95422 0.76099 0.07475 0.0
C1478 C 0.97381 0.83272 0.0967 0.0
C1479 C 0.96046 0.85969 0.10264 0.0
C1480 C 0.93966 0.86004 0.11802 0.0
C1481 C 0.93071 0.83269 0.12606 0.0
C1482 C 0.94393 0.80596 0.12017 0.0
H1483 H 0.95199 0.7419 0.06455 0.0
H1484 H 0.93262 0.76452 0.08228 0.0
H1485 H 0.95912 0.78144 0.06625 0.0
H1486 H 0.99133 0.8332 0.08584 0.0
H1487 H 0.96862 0.88042 0.09661 0.0
H1488 H 0.28159 0.25863 0.13302 0.0
H1489 H 0.24934 0.30256 0.1344 0.0
H1490 H 0.19222 0.26382 0.09063 0.0
H1491 H 0.22448 0.21948 0.08945 0.0
H1492 H 0.23674 0.33938 0.10065 0.0
H1493 H 0.13343 0.29235 0.13352 0.0
H1494 H 0.16907 0.2743 0.13652 0.0
H1495 H 0.15052 0.2732 0.11338 0.0
C1496 C 0.2619 0.25942 0.12391 0.0
C1497 C 0.25529 0.23592 0.11117 0.0
C1498 C 0.24357 0.28443 0.12467 0.0
C1499 C 0.21831 0.28634 0.11272 0.0
C1500 C 0.21135 0.26257 0.10018 0.0
H1501 H 0.09207 0.43048 0.10121 0.0
H1502 H 0.11468 0.3817 0.10451 0.0
C1503 C 0.22974 0.23739 0.09946 0.0
C1504 C 0.20057 0.3141 0.11282 0.0
H1505 H 0.13453 0.3437 0.12782 0.0
C1506 C 0.21437 0.34042 0.10658 0.0
C1507 C 0.17114 0.31514 0.12002 0.0
C1508 C 0.15501 0.28734 0.12633 0.0
C1509 C 0.19976 0.36793 0.1077 0.0
C1510 C 0.17105 0.36937 0.1163 0.0
C1511 C 0.15684 0.3428 0.12182 0.0
C1512 C 0.15472 0.39797 0.11854 0.0
C1513 C 0.21495 0.39485 0.09902 0.0
C1514 C 0.16833 0.42318 0.12691 0.0
C1515 C 0.15562 0.4514 0.12454 0.0
C1516 C 0.12865 0.45437 0.11449 0.0
C1517 C 0.11278 0.42865 0.10924 0.0
C1518 C 0.12595 0.40072 0.11084 0.0
H1519 H 0.23224 0.3884 0.08822 0.0
H1520 H 0.19866 0.40965 0.09169 0.0
H1521 H 0.22619 0.4076 0.11076 0.0
H1522 H 0.18987 0.42139 0.13386 0.0
H1523 H 0.16839 0.47092 0.12856 0.0
H1524 H 0.29658 0.37327 0.39494 0.0
H1525 H 0.35034 0.38492 0.3955 0.0
H1526 H 0.34881 0.39957 0.33342 0.0
H1527 H 0.29696 0.38471 0.3324 0.0
H1528 H 0.40754 0.37027 0.35931 0.0
H1529 H 0.35974 0.48214 0.37512 0.0
H1530 H 0.34062 0.44842 0.38202 0.0
H1531 H 0.34192 0.45938 0.35689 0.0
C1532 C 0.30822 0.37716 0.38134 0.0
C1533 C 0.29243 0.37861 0.36375 0.0
C1534 C 0.33875 0.38424 0.38167 0.0
C1535 C 0.35321 0.39373 0.36454 0.0
C1536 C 0.33823 0.39202 0.34674 0.0
H1537 H 0.49146 0.51571 0.33403 0.0
H1538 H 0.44995 0.4808 0.33472 0.0
C1539 C 0.30853 0.38331 0.34625 0.0
C1540 C 0.38202 0.40968 0.36527 0.0
H1541 H 0.41083 0.47988 0.36784 0.0
C1542 C 0.40848 0.39413 0.36156 0.0
C1543 C 0.38286 0.44094 0.36758 0.0
C1544 C 0.35485 0.45886 0.37069 0.0
C1545 C 0.43593 0.40917 0.36017 0.0
C1546 C 0.43674 0.44042 0.3626 0.0
C1547 C 0.41019 0.45587 0.36624 0.0
C1548 C 0.46452 0.4581 0.3608 0.0
C1549 C 0.46366 0.39183 0.35532 0.0
C1550 C 0.48685 0.45663 0.3751 0.0
C1551 C 0.51077 0.47675 0.3748 0.0
C1552 C 0.51255 0.4988 0.36026 0.0
C1553 C 0.49066 0.49933 0.34559 0.0
C1554 C 0.46696 0.47925 0.34587 0.0
H1555 H 0.45866 0.36832 0.35151 0.0
H1556 H 0.47551 0.4024 0.34291 0.0
H1557 H 0.47888 0.39207 0.36806 0.0
H1558 H 0.48515 0.44074 0.38691 0.0
H1559 H 0.52725 0.47567 0.3863 0.0
H1560 H 0.28122 0.78028 0.59338 0.0
H1561 H 0.31476 0.73678 0.59304 0.0
H1562 H 0.256 0.69119 0.63282 0.0
H1563 H 0.22235 0.73404 0.63273 0.0
H1564 H 0.34471 0.70573 0.62372 0.0
H1565 H 0.2622 0.63283 0.587 0.0
H1566 H 0.26023 0.67295 0.58618 0.0
H1567 H 0.24731 0.65316 0.60732 0.0
C1568 C 0.27581 0.76102 0.60219 0.0
C1569 C 0.24929 0.76029 0.61306 0.0
C1570 C 0.29484 0.73622 0.60194 0.0
C1571 C 0.28755 0.71049 0.61259 0.0
C1572 C 0.2617 0.71047 0.62411 0.0
H1573 H 0.34646 0.53332 0.63451 0.0
H1574 H 0.32907 0.58451 0.6386 0.0
C1575 C 0.24263 0.735 0.62419 0.0
C1576 C 0.30647 0.68336 0.61172 0.0
H1577 H 0.30331 0.60886 0.60199 0.0
C1578 C 0.33579 0.68459 0.61881 0.0
C1579 C 0.29497 0.65585 0.60502 0.0
C1580 C 0.26457 0.65352 0.59575 0.0
C1581 C 0.35331 0.65871 0.62033 0.0
C1582 C 0.34115 0.63107 0.61465 0.0
C1583 C 0.3123 0.63003 0.60682 0.0
C1584 C 0.35786 0.60274 0.61632 0.0
C1585 C 0.38436 0.6608 0.62851 0.0
C1586 C 0.38123 0.59644 0.60339 0.0
C1587 C 0.39135 0.56719 0.6012 0.0
C1588 C 0.37811 0.54395 0.61184 0.0
C1589 C 0.35756 0.55094 0.62653 0.0
C1590 C 0.3472 0.58011 0.62859 0.0
H1591 H 0.38896 0.68299 0.63499 0.0
H1592 H 0.38783 0.64346 0.6398 0.0
H1593 H 0.4007 0.65677 0.61665 0.0
H1594 H 0.38958 0.61347 0.59364 0.0
H1595 H 0.40666 0.56221 0.58941 0.0
H1596 H 0.98298 0.51069 0.82944 0.0
H1597 H 0.02762 0.54368 0.82954 0.0
H1598 H 0.04091 0.52531 0.89065 0.0
H1599 H 0.99596 0.49305 0.89067 0.0
H1600 H 0.04263 0.59574 0.85624 0.0
H1601 H 0.11957 0.4994 0.86038 0.0
H1602 H 0.08183 0.49627 0.85155 0.0
H1603 H 0.08894 0.49853 0.87727 0.0
C1604 C 0.99503 0.51427 0.84292 0.0
C1605 C 0.98614 0.49978 0.8601 0.0
C1606 C 0.02079 0.53297 0.84297 0.0
C1607 C 0.03753 0.53669 0.86007 0.0
C1608 C 0.02823 0.52266 0.87732 0.0
H1609 H 0.21511 0.59222 0.88509 0.0
H1610 H 0.16266 0.57927 0.88987 0.0
C1611 C 0.00299 0.50448 0.87736 0.0
C1612 C 0.06548 0.55416 0.85993 0.0
H1613 H 0.1403 0.54665 0.86553 0.0
C1614 C 0.0641 0.58522 0.85838 0.0
C1615 C 0.09334 0.54019 0.86223 0.0
C1616 C 0.09624 0.50675 0.86278 0.0
C1617 C 0.08981 0.60295 0.86028 0.0
C1618 C 0.1178 0.58901 0.86352 0.0
C1619 C 0.11899 0.5577 0.86397 0.0
C1620 C 0.14661 0.60549 0.86547 0.0
C1621 C 0.08615 0.63628 0.85925 0.0
C1622 C 0.15479 0.62722 0.8518 0.0
C1623 C 0.18419 0.63697 0.8506 0.0
C1624 C 0.20663 0.62317 0.86171 0.0
C1625 C 0.19832 0.60361 0.87659 0.0
C1626 C 0.16834 0.59563 0.87889 0.0
H1627 H 0.06349 0.64317 0.8639 0.0
H1628 H 0.10269 0.64803 0.86848 0.0
H1629 H 0.0889 0.64357 0.84389 0.0
H1630 H 0.1394 0.63467 0.84073 0.0
H1631 H 0.19012 0.65183 0.83876 0.0
H1632 H 0.75823 0.76572 0.855 0.0
H1633 H 0.79022 0.72162 0.85341 0.0
H1634 H 0.77734 0.70743 0.91506 0.0
H1635 H 0.74362 0.75015 0.91633 0.0
H1636 H 0.84147 0.70688 0.87029 0.0
H1637 H 0.75552 0.62688 0.89598 0.0
H1638 H 0.74628 0.6643 0.88868 0.0
H1639 H 0.76217 0.65727 0.91232 0.0
C1640 C 0.76211 0.75306 0.86817 0.0
C1641 C 0.74796 0.76105 0.8857 0.0
C1642 C 0.78047 0.72789 0.86728 0.0
C1643 C 0.78563 0.71055 0.884 0.0
C1644 C 0.77282 0.71957 0.90176 0.0
H1645 H 0.90412 0.56475 0.90731 0.0
H1646 H 0.88532 0.6152 0.9032 0.0
C1647 C 0.75378 0.74421 0.90253 0.0
C1648 C 0.80434 0.68315 0.88276 0.0
H1649 H 0.80422 0.60822 0.89158 0.0
C1650 C 0.83321 0.68532 0.87488 0.0
C1651 C 0.79369 0.65487 0.88877 0.0
C1652 C 0.76265 0.65053 0.89675 0.0
C1653 C 0.85164 0.66016 0.87297 0.0
C1654 C 0.8409 0.63212 0.87887 0.0
C1655 C 0.81221 0.62983 0.88684 0.0
C1656 C 0.85931 0.60479 0.87758 0.0
C1657 C 0.88244 0.66342 0.86456 0.0
C1658 C 0.85276 0.58276 0.86366 0.0
C1659 C 0.86369 0.55373 0.86596 0.0
C1660 C 0.88079 0.54653 0.8824 0.0
C1661 C 0.89124 0.56979 0.89436 0.0
C1662 C 0.88004 0.59859 0.89226 0.0
H1663 H 0.88711 0.68652 0.85971 0.0
H1664 H 0.89917 0.65703 0.87571 0.0
H1665 H 0.88515 0.64807 0.85198 0.0
H1666 H 0.83703 0.58729 0.85208 0.0
H1667 H 0.85523 0.53626 0.85657 0.0
H1668 H 0.68349 0.65779 0.65191 0.0
H1669 H 0.63428 0.63707 0.64836 0.0
H1670 H 0.6685 0.57203 0.6077 0.0
H1671 H 0.71934 0.58986 0.61424 0.0
H1672 H 0.5926 0.62519 0.62864 0.0
H1673 H 0.6403 0.51508 0.64606 0.0
H1674 H 0.6626 0.54833 0.64579 0.0
H1675 H 0.65501 0.52835 0.62346 0.0
C1676 C 0.6804 0.63969 0.64162 0.0
C1677 C 0.70515 0.62476 0.63392 0.0
C1678 C 0.65209 0.6276 0.63972 0.0
C1679 C 0.64769 0.60166 0.62871 0.0
C1680 C 0.67166 0.59068 0.61747 0.0
H1681 H 0.49871 0.49147 0.60287 0.0
H1682 H 0.54215 0.52466 0.6035 0.0
C1683 C 0.70059 0.60155 0.62057 0.0
C1684 C 0.61899 0.58513 0.63058 0.0
H1685 H 0.58933 0.51567 0.63675 0.0
C1686 C 0.5921 0.60126 0.63051 0.0
C1687 C 0.61794 0.55398 0.63407 0.0
C1688 C 0.64551 0.53554 0.63763 0.0
C1689 C 0.56447 0.58697 0.63267 0.0
C1690 C 0.56359 0.55571 0.63406 0.0
C1691 C 0.59023 0.53965 0.63503 0.0
C1692 C 0.53534 0.53888 0.63332 0.0
C1693 C 0.53632 0.60518 0.63309 0.0
C1694 C 0.51707 0.53628 0.64983 0.0
C1695 C 0.49238 0.51725 0.64949 0.0
C1696 C 0.48557 0.50098 0.63257 0.0
C1697 C 0.50324 0.5044 0.61588 0.0
C1698 C 0.52805 0.52314 0.61629 0.0
H1699 H 0.5408 0.62941 0.63177 0.0
H1700 H 0.5214 0.59815 0.62103 0.0
H1701 H 0.52433 0.60117 0.64701 0.0
H1702 H 0.52258 0.54801 0.66317 0.0
H1703 H 0.47921 0.51441 0.66261 0.0
H1704 H 0.71643 0.21678 0.40297 0.0
H1705 H 0.68378 0.261 0.40288 0.0
H1706 H 0.74479 0.30539 0.36394 0.0
H1707 H 0.77708 0.26164 0.36404 0.0
H1708 H 0.70122 0.32263 0.41352 0.0
H1709 H 0.66278 0.31208 0.33692 0.0
H1710 H 0.67798 0.28114 0.35042 0.0
H1711 H 0.70233 0.30852 0.33983 0.0
C1712 C 0.72233 0.23584 0.39411 0.0
C1713 C 0.74882 0.23593 0.38324 0.0
C1714 C 0.70396 0.26105 0.39422 0.0
C1715 C 0.71185 0.28625 0.38326 0.0
C1716 C 0.73816 0.28601 0.37227 0.0
H1717 H 0.66823 0.47 0.37092 0.0
H1718 H 0.68897 0.41963 0.368 0.0
C1719 C 0.75648 0.26106 0.37226 0.0
C1720 C 0.69312 0.31322 0.38315 0.0
H1721 H 0.6564 0.35939 0.3519 0.0
C1722 C 0.69094 0.33049 0.40018 0.0
C1723 C 0.6799 0.32338 0.36568 0.0
C1724 C 0.68058 0.3052 0.3472 0.0
C1725 C 0.67675 0.35835 0.39987 0.0
C1726 C 0.66459 0.36878 0.38212 0.0
C1727 C 0.66604 0.3512 0.36537 0.0
C1728 C 0.65037 0.39808 0.38053 0.0
C1729 C 0.67558 0.37687 0.41824 0.0
C1730 C 0.62091 0.40181 0.38662 0.0
C1731 C 0.60864 0.43023 0.38733 0.0
C1732 C 0.62619 0.45517 0.38277 0.0
C1733 C 0.65426 0.45103 0.3743 0.0
C1734 C 0.66637 0.42245 0.37319 0.0
H1735 H 0.6875 0.36618 0.43058 0.0
H1736 H 0.68558 0.39909 0.41552 0.0
H1737 H 0.65203 0.38045 0.42256 0.0
H1738 H 0.60815 0.38306 0.39199 0.0
H1739 H 0.58706 0.43304 0.39418 0.0
H1740 H 0.81524 0.33401 0.14481 0.0
H1741 H 0.8655 0.35418 0.14063 0.0
H1742 H 0.82842 0.4346 0.11663 0.0
H1743 H 0.77828 0.41433 0.12066 0.0
H1744 H 0.90098 0.38273 0.11031 0.0
H1745 H 0.86716 0.4599 0.16973 0.0
H1746 H 0.84751 0.4257 0.16455 0.0
H1747 H 0.84186 0.45786 0.14948 0.0
C1748 C 0.81797 0.3551 0.13738 0.0
C1749 C 0.79297 0.37254 0.1329 0.0
C1750 C 0.84664 0.36689 0.13542 0.0
C1751 C 0.85049 0.39622 0.12894 0.0
C1752 C 0.8258 0.41209 0.12199 0.0
H1753 H 0.97706 0.53357 0.12077 0.0
H1754 H 0.9352 0.49877 0.12071 0.0
C1755 C 0.7972 0.40017 0.1238 0.0
C1756 C 0.87961 0.41126 0.13123 0.0
H1757 H 0.91325 0.4696 0.15432 0.0
C1758 C 0.90384 0.40157 0.12002 0.0
C1759 C 0.88335 0.43533 0.14435 0.0
C1760 C 0.85873 0.44523 0.15789 0.0
C1761 C 0.93124 0.41667 0.12057 0.0
C1762 C 0.93437 0.44187 0.13276 0.0
C1763 C 0.91062 0.45048 0.1448 0.0
C1764 C 0.96072 0.46163 0.13178 0.0
C1765 C 0.95613 0.40652 0.1074 0.0
C1766 C 0.9891 0.45208 0.13769 0.0
C1767 C 0.01404 0.47187 0.13733 0.0
C1768 C 0.00975 0.50152 0.13153 0.0
C1769 C 0.98071 0.51084 0.12543 0.0
C1770 C 0.95687 0.49102 0.12543 0.0
H1771 H 0.94899 0.38848 0.09735 0.0
H1772 H 0.96457 0.4255 0.09864 0.0
H1773 H 0.97482 0.39807 0.11639 0.0
H1774 H 0.99242 0.42963 0.14298 0.0
H1775 H 0.03568 0.46442 0.14227 0.0
H1776 H 0.78764 0.76605 0.62592 0.0
H1777 H 0.75568 0.81025 0.62658 0.0
H1778 H 0.68523 0.76011 0.59916 0.0
H1779 H 0.71693 0.71547 0.59928 0.0
H1780 H 0.73129 0.83966 0.5954 0.0
H1781 H 0.64071 0.79864 0.64383 0.0
H1782 H 0.67648 0.78047 0.64241 0.0
H1783 H 0.64959 0.7755 0.62328 0.0
C1784 C 0.76517 0.76447 0.62028 0.0
C1785 C 0.75454 0.73747 0.61269 0.0
C1786 C 0.74697 0.78969 0.6206 0.0
C1787 C 0.71787 0.7885 0.61315 0.0
C1788 C 0.70727 0.76144 0.60548 0.0
H1789 H 0.59188 0.93258 0.59368 0.0
H1790 H 0.61349 0.88306 0.59815 0.0
C1791 C 0.72537 0.736 0.60546 0.0
C1792 C 0.69931 0.81596 0.61291 0.0
H1793 H 0.63507 0.84663 0.63067 0.0
C1794 C 0.71032 0.84119 0.60319 0.0
C1795 C 0.67167 0.81786 0.62279 0.0
C1796 C 0.6589 0.79179 0.6338 0.0
C1797 C 0.69472 0.86827 0.60333 0.0
C1798 C 0.66762 0.87037 0.6138 0.0
C1799 C 0.65609 0.845 0.62296 0.0
C1800 C 0.65091 0.89876 0.61512 0.0
C1801 C 0.70704 0.89431 0.59199 0.0
C1802 C 0.66334 0.9235 0.62465 0.0
C1803 C 0.65046 0.95167 0.6226 0.0
C1804 C 0.62532 0.95544 0.61075 0.0
C1805 C 0.61091 0.93013 0.60325 0.0
C1806 C 0.6236 0.90192 0.60544 0.0
H1807 H 0.72529 0.88754 0.58198 0.0
H1808 H 0.68917 0.90505 0.58331 0.0
H1809 H 0.716 0.91114 0.60228 0.0
H1810 H 0.68417 0.9214 0.63247 0.0
H1811 H 0.66238 0.97089 0.62812 0.0
H1812 H 0.78837 0.89625 0.88865 0.0
H1813 H 0.84068 0.90961 0.89376 0.0
H1814 H 0.86173 0.87593 0.83654 0.0
H1815 H 0.81047 0.85955 0.83254 0.0
H1816 H 0.90664 0.87693 0.88054 0.0
H1817 H 0.86247 0.97681 0.84203 0.0
H1818 H 0.83888 0.95362 0.85699 0.0
H1819 H 0.85134 0.9404 0.83372 0.0
C1820 C 0.80444 0.88971 0.87795 0.0
C1821 C 0.79516 0.87715 0.86031 0.0
C1822 C 0.83428 0.89787 0.8806 0.0
C1823 C 0.85473 0.89437 0.86529 0.0
C1824 C 0.84629 0.87875 0.84855 0.0
H1825 H 0.01003 0.9954 0.83046 0.0
H1826 H 0.96691 0.96102 0.83207 0.0
C1827 C 0.81694 0.86937 0.84636 0.0
C1828 C 0.88294 0.91119 0.86526 0.0
H1829 H 0.91362 0.97599 0.84892 0.0
C1830 C 0.90829 0.89866 0.87378 0.0
C1831 C 0.8848 0.93933 0.85615 0.0
C1832 C 0.85799 0.95357 0.84672 0.0
C1833 C 0.93578 0.91363 0.87335 0.0
C1834 C 0.93767 0.94194 0.86438 0.0
C1835 C 0.91216 0.95432 0.85581 0.0
C1836 C 0.96576 0.95934 0.86361 0.0
C1837 C 0.96273 0.89869 0.88198 0.0
C1838 C 0.97957 0.96933 0.8808 0.0
C1839 C 0.00493 0.98852 0.87987 0.0
C1840 C 0.01553 0.99856 0.86174 0.0
C1841 C 0.00214 0.98803 0.84459 0.0
C1842 C 0.97721 0.96844 0.84551 0.0
H1843 H 0.95888 0.87459 0.88456 0.0
H1844 H 0.98229 0.90134 0.87223 0.0
H1845 H 0.96812 0.90923 0.89619 0.0
H1846 H 0.97064 0.96329 0.89493 0.0
H1847 H 0.01462 0.99673 0.89331 0.0
H1848 H 0.89879 0.06121 0.08298 0.0
H1849 H 0.88074 0.11223 0.08651 0.0
H1850 H 0.83276 0.0869 0.13836 0.0
H1851 H 0.84995 0.03555 0.13438 0.0
H1852 H 0.80857 0.11374 0.08983 0.0
H1853 H 0.87554 0.176 0.14475 0.0
H1854 H 0.89192 0.14781 0.12927 0.0
H1855 H 0.86747 0.1371 0.14867 0.0
C1856 C 0.88602 0.06701 0.09586 0.0
C1857 C 0.87617 0.04467 0.10868 0.0
C1858 C 0.8753 0.096 0.09764 0.0
C1859 C 0.85527 0.10308 0.11257 0.0
C1860 C 0.84836 0.08172 0.12679 0.0
H1861 H 0.74226 0.25133 0.14132 0.0
H1862 H 0.7738 0.20682 0.14092 0.0
C1863 C 0.85878 0.05256 0.12483 0.0
C1864 C 0.83829 0.13109 0.11169 0.0
H1865 H 0.83316 0.20008 0.13199 0.0
C1866 C 0.81396 0.13278 0.09891 0.0
C1867 C 0.84539 0.1555 0.12368 0.0
C1868 C 0.87154 0.15434 0.13739 0.0
C1869 C 0.7961 0.15837 0.09809 0.0
C1870 C 0.80329 0.18301 0.1101 0.0
C1871 C 0.82779 0.18122 0.12276 0.0
C1872 C 0.78507 0.21047 0.11031 0.0
C1873 C 0.7691 0.15837 0.08498 0.0
C1874 C 0.7815 0.22761 0.09335 0.0
C1875 C 0.76315 0.25273 0.09355 0.0
C1876 C 0.74885 0.26148 0.11082 0.0
C1877 C 0.75347 0.24516 0.12795 0.0
C1878 C 0.77131 0.21972 0.12768 0.0
H1879 H 0.76347 0.13566 0.0797 0.0
H1880 H 0.7495 0.16767 0.09275 0.0
H1881 H 0.77351 0.17251 0.07204 0.0
H1882 H 0.79258 0.22137 0.07993 0.0
H1883 H 0.75979 0.2651 0.08018 0.0
H1884 H 0.46504 0.03271 0.34726 0.0
H1885 H 0.50862 0.0663 0.34592 0.0
H1886 H 0.55885 0.00392 0.38048 0.0
H1887 H 0.51577 0.96986 0.38139 0.0
H1888 H 0.54271 0.09301 0.37638 0.0
H1889 H 0.61303 0.01584 0.33335 0.0
H1890 H 0.57289 0.01343 0.3338 0.0
H1891 H 0.59426 0.99748 0.3534 0.0
C1892 C 0.48529 0.0266 0.35482 0.0
C1893 C 0.48697 0.99859 0.36459 0.0
C1894 C 0.5102 0.04559 0.35391 0.0
C1895 C 0.53723 0.0373 0.36275 0.0
C1896 C 0.53856 0.01045 0.37311 0.0
H1897 H 0.71732 0.08947 0.38082 0.0
H1898 H 0.66659 0.07117 0.38554 0.0
C1899 C 0.51371 0.99093 0.37384 0.0
C1900 C 0.56421 0.05649 0.36176 0.0
H1901 H 0.63836 0.05403 0.35084 0.0
C1902 C 0.56357 0.0847 0.37059 0.0
C1903 C 0.59137 0.04578 0.35397 0.0
C1904 C 0.59306 0.01677 0.3429 0.0
C1905 C 0.58974 0.10163 0.37296 0.0
C1906 C 0.61716 0.09007 0.36624 0.0
C1907 C 0.61748 0.06252 0.35652 0.0
C1908 C 0.64591 0.10613 0.36864 0.0
C1909 C 0.58805 0.1312 0.38328 0.0
C1910 C 0.65094 0.13317 0.35895 0.0
C1911 C 0.67995 0.14403 0.35672 0.0
C1912 C 0.70434 0.12771 0.36379 0.0
C1913 C 0.69892 0.10291 0.37567 0.0
C1914 C 0.66993 0.09205 0.37796 0.0
H1915 H 0.56686 0.13378 0.39147 0.0
H1916 H 0.60696 0.13392 0.39355 0.0
H1917 H 0.58935 0.14933 0.37234 0.0
H1918 H 0.63294 0.14428 0.35141 0.0
H1919 H 0.68358 0.16281 0.3471 0.0
H1920 H 0.25579 0.2629 0.35217 0.0
H1921 H 0.28707 0.21803 0.35133 0.0
H1922 H 0.28246 0.21223 0.41407 0.0
H1923 H 0.25017 0.25607 0.4148 0.0
H1924 H 0.34092 0.20513 0.36698 0.0
H1925 H 0.25649 0.12978 0.39979 0.0
H1926 H 0.24708 0.16634 0.39087 0.0
H1927 H 0.26473 0.162 0.41424 0.0
C1928 C 0.26201 0.25232 0.36576 0.0
C1929 C 0.251 0.26313 0.38357 0.0
C1930 C 0.27962 0.22655 0.36529 0.0
C1931 C 0.28669 0.21132 0.38261 0.0
C1932 C 0.27666 0.22295 0.40046 0.0
H1933 H 0.39883 0.06415 0.41212 0.0
H1934 H 0.38113 0.11481 0.40675 0.0
C1935 C 0.25862 0.24829 0.4009 0.0
C1936 C 0.30472 0.1835 0.38195 0.0
H1937 H 0.30479 0.11005 0.39502 0.0
C1938 C 0.33289 0.18432 0.373 0.0
C1939 C 0.29431 0.15624 0.38987 0.0
C1940 C 0.26391 0.15335 0.39908 0.0
C1941 C 0.35097 0.15883 0.37194 0.0
C1942 C 0.3406 0.13187 0.37987 0.0
C1943 C 0.31253 0.13088 0.38882 0.0
C1944 C 0.35879 0.10441 0.37969 0.0
C1945 C 0.38117 0.16066 0.36247 0.0
C1946 C 0.35391 0.08236 0.3655 0.0
C1947 C 0.36434 0.0533 0.36845 0.0
C1948 C 0.37929 0.04614 0.38576 0.0
C1949 C 0.38771 0.06924 0.3985 0.0
C1950 C 0.37721 0.09812 0.39562 0.0
H1951 H 0.386 0.18325 0.35671 0.0
H1952 H 0.39857 0.15462 0.37325 0.0
H1953 H 0.38249 0.14435 0.35033 0.0
H1954 H 0.33979 0.08694 0.35306 0.0
H1955 H 0.35722 0.03584 0.35858 0.0
H1956 H 0.02224 0.96039 0.13265 0.0
H1957 H 0.06529 0.99316 0.13183 0.0
H1958 H 0.00794 0.07026 0.13459 0.0
H1959 H 0.96319 0.03705 0.13532 0.0
H1960 H 0.07547 0.03783 0.10248 0.0
H1961 H 0.07495 0.08373 0.17795 0.0
H1962 H 0.05702 0.04902 0.17172 0.0
H1963 H 0.0402 0.08358 0.16481 0.0
C1964 C 0.01856 0.9842 0.13318 0.0
C1965 C 0.98871 0.99582 0.13407 0.0
C1966 C 0.04356 0.00348 0.13274 0.0
C1967 C 0.04005 0.03439 0.13336 0.0
C1968 C 0.01112 0.04638 0.1343 0.0
H1969 H 0.1851 0.16315 0.14197 0.0
H1970 H 0.13528 0.14284 0.13554 0.0
C1971 C 0.98526 0.02747 0.1345 0.0
C1972 C 0.06695 0.05347 0.13161 0.0
H1973 H 0.11338 0.09942 0.15711 0.0
C1974 C 0.08355 0.05171 0.11431 0.0
C1975 C 0.07777 0.07095 0.14723 0.0
C1976 C 0.06181 0.07196 0.16658 0.0
C1977 C 0.11057 0.06703 0.11207 0.0
C1978 C 0.12149 0.08462 0.12764 0.0
C1979 C 0.10474 0.08655 0.14498 0.0
C1980 C 0.15121 0.09929 0.1269 0.0
C1981 C 0.12711 0.0639 0.09301 0.0
C1982 C 0.17676 0.08237 0.12292 0.0
C1983 C 0.20502 0.09464 0.12529 0.0
C1984 C 0.20838 0.12345 0.13284 0.0
C1985 C 0.18306 0.14122 0.13552 0.0
C1986 C 0.15462 0.12931 0.13235 0.0
H1987 H 0.11171 0.05855 0.08083 0.0
H1988 H 0.13954 0.08448 0.0893 0.0
H1989 H 0.14315 0.04522 0.09416 0.0
H1990 H 0.17506 0.05891 0.11953 0.0
H1991 H 0.22417 0.0801 0.12395 0.0
H1992 H 0.14539 0.96629 0.86202 0.0
H1993 H 0.16412 0.91593 0.85587 0.0
H1994 H 0.12159 0.88557 0.90869 0.0
H1995 H 0.1021 0.93528 0.91425 0.0
H1996 H 0.20372 0.89323 0.88028 0.0
H1997 H 0.10996 0.81364 0.87645 0.0
H1998 H 0.10471 0.85319 0.8735 0.0
H1999 H 0.10746 0.83713 0.8975 0.0
C2000 C 0.13823 0.94831 0.87144 0.0
C2001 C 0.122 0.95446 0.88843 0.0
C2002 C 0.1495 0.91965 0.8682 0.0
C2003 C 0.14442 0.89679 0.88184 0.0
C2004 C 0.12539 0.90238 0.89767 0.0
H2005 H 0.24537 0.73942 0.9158 0.0
H2006 H 0.21245 0.78323 0.91481 0.0
C2007 C 0.11397 0.93087 0.90078 0.0
C2008 C 0.16236 0.86889 0.88128 0.0
H2009 H 0.15777 0.79308 0.8847 0.0
C2010 C 0.19358 0.87134 0.8809 0.0
C2011 C 0.1493 0.84025 0.88253 0.0
C2012 C 0.11601 0.83587 0.88234 0.0
C2013 C 0.21195 0.84607 0.88188 0.0
C2014 C 0.19884 0.81756 0.88323 0.0
C2015 C 0.16773 0.81501 0.88368 0.0
C2016 C 0.21725 0.79012 0.88375 0.0
C2017 C 0.2453 0.84993 0.8818 0.0
C2018 C 0.22995 0.77894 0.86654 0.0
C2019 C 0.24784 0.75343 0.86703 0.0
C2020 C 0.25426 0.7393 0.88478 0.0
C2021 C 0.24111 0.7502 0.90196 0.0
C2022 C 0.22238 0.77517 0.90141 0.0
H2023 H 0.25201 0.87367 0.88295 0.0
H2024 H 0.25535 0.83742 0.89411 0.0
H2025 H 0.25455 0.84065 0.86807 0.0
H2026 H 0.22614 0.79005 0.85276 0.0
H2027 H 0.25739 0.74521 0.85364 0.0
H2028 H 0.31736 0.83452 0.64764 0.0
H2029 H 0.36699 0.8557 0.64371 0.0
H2030 H 0.32942 0.93013 0.61266 0.0
H2031 H 0.27948 0.90934 0.61733 0.0
H2032 H 0.40518 0.87525 0.61739 0.0
H2033 H 0.3635 0.97157 0.65994 0.0
H2034 H 0.34263 0.93751 0.65725 0.0
H2035 H 0.34245 0.96493 0.63815 0.0
C2036 C 0.31989 0.85448 0.63892 0.0
C2037 C 0.29465 0.87036 0.63284 0.0
C2038 C 0.34825 0.86693 0.63706 0.0
C2039 C 0.35178 0.89519 0.62871 0.0
C2040 C 0.32706 0.90883 0.61987 0.0
H2041 H 0.48984 0.02267 0.61075 0.0
H2042 H 0.44624 0.98891 0.61039 0.0
C2043 C 0.2986 0.89646 0.62194 0.0
C2044 C 0.38068 0.91113 0.6306 0.0
H2045 H 0.41206 0.97604 0.64661 0.0
C2046 C 0.4067 0.89724 0.62384 0.0
C2047 C 0.38285 0.93939 0.63973 0.0
C2048 C 0.35647 0.95412 0.6494 0.0
C2049 C 0.4345 0.91154 0.62488 0.0
C2050 C 0.43625 0.94058 0.63269 0.0
C2051 C 0.41051 0.95397 0.64026 0.0
C2052 C 0.46399 0.95847 0.63183 0.0
C2053 C 0.4617 0.89598 0.61705 0.0
C2054 C 0.48863 0.95195 0.64372 0.0
C2055 C 0.51358 0.97081 0.64378 0.0
C2056 C 0.51398 0.9964 0.63206 0.0
C2057 C 0.49002 0.00291 0.6198 0.0
C2058 C 0.465 0.98351 0.61966 0.0
H2059 H 0.4562 0.87426 0.61018 0.0
H2060 H 0.47301 0.91029 0.60613 0.0
H2061 H 0.4776 0.89195 0.62913 0.0
H2062 H 0.48814 0.93294 0.65341 0.0
H2063 H 0.53191 0.96616 0.65357 0.0
loop_
_geom_bond_atom_site_label_1
_geom_bond_atom_site_label_2
_geom_bond_distance
_geom_bond_site_symmetry_2
_ccdc_geom_bond_type
O0 Mn1 2.163 . S
O0 C14 1.244 . S
Mn1 O0 2.163 . S
Mn1 O4 2.160 . S
Mn1 O5 2.221 . S
Mn1 O7 2.163 . S
Mn1 O9 2.160 . S
Mn1 O19 2.221 . S
O2 Mn3 2.087 . S
O2 C14 1.256 . S
Mn3 O2 2.087 . S
Mn3 O10 2.089 . S
Mn3 O19 2.290 . S
Mn3 O20 2.251 . S
O4 Mn1 2.160 . S
O4 C15 1.239 . S
O5 Mn1 2.221 . S
O5 Mn6 2.290 . S
O5 C16 1.278 . S
Mn6 O5 2.290 . S
Mn6 O8 2.089 . S
Mn6 O11 2.251 . S
Mn6 O12 2.087 . S
O7 Mn1 2.163 . S
O7 C17 1.244 . S
O8 Mn6 2.089 . S
O8 C15 1.256 . S
O9 Mn1 2.160 . S
O9 C18 1.239 . S
O10 Mn3 2.089 . S
O10 C18 1.256 . S
O11 Mn6 2.251 . S
O11 C16 1.241 . S
O12 Mn6 2.087 . S
O12 C17 1.256 . S
C13 O19 1.278 . S
C13 O20 1.241 . S
C14 O0 1.244 . S
C14 O2 1.256 . S
C15 O4 1.239 . S
C15 O8 1.256 . S
C16 O5 1.278 . S
C16 O11 1.241 . S
C17 O7 1.244 . S
C17 O12 1.256 . S
C18 O9 1.239 . S
C18 O10 1.256 . S
O19 Mn1 2.221 . S
O19 Mn3 2.290 . S
O19 C13 1.278 . S
O20 Mn3 2.251 . S
O20 C13 1.241 . S
O21 Mn22 2.163 . S
O21 C35 1.244 . S
Mn22 O21 2.163 . S
Mn22 O25 2.160 . S
Mn22 O26 2.221 . S
Mn22 O28 2.163 . S
Mn22 O30 2.160 . S
Mn22 O40 2.221 . S
O23 Mn24 2.087 . S
O23 C35 1.256 . S
Mn24 O23 2.087 . S
Mn24 O31 2.089 . S
Mn24 O40 2.290 . S
Mn24 O41 2.251 . S
O25 Mn22 2.160 . S
O25 C36 1.239 . S
O26 Mn22 2.221 . S
O26 Mn27 2.290 . S
O26 C37 1.278 . S
Mn27 O26 2.290 . S
Mn27 O29 2.089 . S
Mn27 O32 2.251 . S
Mn27 O33 2.087 . S
O28 Mn22 2.163 . S
O28 C38 1.244 . S
O29 Mn27 2.089 . S
O29 C36 1.256 . S
O30 Mn22 2.160 . S
O30 C39 1.239 . S
O31 Mn24 2.089 . S
O31 C39 1.256 . S
O32 Mn27 2.251 . S
O32 C37 1.241 . S
O33 Mn27 2.087 . S
O33 C38 1.256 . S
C34 O40 1.278 . S
C34 O41 1.241 . S
C35 O21 1.244 . S
C35 O23 1.256 . S
C36 O25 1.239 . S
C36 O29 1.256 . S
C37 O26 1.278 . S
C37 O32 1.241 . S
C38 O28 1.244 . S
C38 O33 1.256 . S
C39 O30 1.239 . S
C39 O31 1.256 . S
O40 Mn22 2.221 . S
O40 Mn24 2.290 . S
O40 C34 1.278 . S
O41 Mn24 2.251 . S
O41 C34 1.241 . S
O42 Mn43 2.163 . S
O42 C56 1.244 . S
Mn43 O42 2.163 . S
Mn43 O46 2.160 . S
Mn43 O47 2.221 . S
Mn43 O49 2.163 . S
Mn43 O51 2.160 . S
Mn43 O61 2.221 . S
O44 Mn45 2.087 . S
O44 C56 1.256 . S
Mn45 O44 2.087 . S
Mn45 O52 2.089 . S
Mn45 O61 2.290 . S
Mn45 O62 2.251 . S
O46 Mn43 2.160 . S
O46 C57 1.239 . S
O47 Mn43 2.221 . S
O47 Mn48 2.290 . S
O47 C58 1.278 . S
Mn48 O47 2.290 . S
Mn48 O50 2.089 . S
Mn48 O53 2.251 . S
Mn48 O54 2.087 . S
O49 Mn43 2.163 . S
O49 C59 1.244 . S
O50 Mn48 2.089 . S
O50 C57 1.256 . S
O51 Mn43 2.160 . S
O51 C60 1.239 . S
O52 Mn45 2.089 . S
O52 C60 1.256 . S
O53 Mn48 2.251 . S
O53 C58 1.241 . S
O54 Mn48 2.087 . S
O54 C59 1.256 . S
C55 O61 1.278 . S
C55 O62 1.241 . S
C56 O42 1.244 . S
C56 O44 1.256 . S
C57 O46 1.239 . S
C57 O50 1.256 . S
C58 O47 1.278 . S
C58 O53 1.241 . S
C59 O49 1.244 . S
C59 O54 1.256 . S
C60 O51 1.239 . S
C60 O52 1.256 . S
O61 Mn43 2.221 . S
O61 Mn45 2.290 . S
O61 C55 1.278 . S
O62 Mn45 2.251 . S
O62 C55 1.241 . S
O63 Mn64 2.163 . S
O63 C77 1.244 . S
Mn64 O63 2.163 . S
Mn64 O67 2.160 . S
Mn64 O68 2.221 . S
Mn64 O70 2.163 . S
Mn64 O72 2.160 . S
Mn64 O82 2.221 . S
O65 Mn66 2.087 . S
O65 C77 1.256 . S
Mn66 O65 2.087 . S
Mn66 O73 2.089 . S
Mn66 O82 2.290 . S
Mn66 O83 2.251 . S
O67 Mn64 2.160 . S
O67 C78 1.239 . S
O68 Mn64 2.221 . S
O68 Mn69 2.290 . S
O68 C79 1.278 . S
Mn69 O68 2.290 . S
Mn69 O71 2.089 . S
Mn69 O74 2.251 . S
Mn69 O75 2.087 . S
O70 Mn64 2.163 . S
O70 C80 1.244 . S
O71 Mn69 2.089 . S
O71 C78 1.256 . S
O72 Mn64 2.160 . S
O72 C81 1.239 . S
O73 Mn66 2.089 . S
O73 C81 1.256 . S
O74 Mn69 2.251 . S
O74 C79 1.241 . S
O75 Mn69 2.087 . S
O75 C80 1.256 . S
C76 O82 1.278 . S
C76 O83 1.241 . S
C77 O63 1.244 . S
C77 O65 1.256 . S
C78 O67 1.239 . S
C78 O71 1.256 . S
C79 O68 1.278 . S
C79 O74 1.241 . S
C80 O70 1.244 . S
C80 O75 1.256 . S
C81 O72 1.239 . S
C81 O73 1.256 . S
O82 Mn64 2.221 . S
O82 Mn66 2.290 . S
O82 C76 1.278 . S
O83 Mn66 2.251 . S
O83 C76 1.241 . S
O84 Mn85 2.163 . S
O84 C98 1.244 . S
Mn85 O84 2.163 . S
Mn85 O88 2.160 . S
Mn85 O89 2.221 . S
Mn85 O91 2.163 . S
Mn85 O93 2.160 . S
Mn85 O103 2.221 . S
O86 Mn87 2.087 . S
O86 C98 1.256 . S
Mn87 O86 2.087 . S
Mn87 O94 2.089 . S
Mn87 O103 2.290 . S
Mn87 O104 2.251 . S
O88 Mn85 2.160 . S
O88 C99 1.239 . S
O89 Mn85 2.221 . S
O89 Mn90 2.290 . S
O89 C100 1.278 . S
Mn90 O89 2.290 . S
Mn90 O92 2.089 . S
Mn90 O95 2.251 . S
Mn90 O96 2.087 . S
O91 Mn85 2.163 . S
O91 C101 1.244 . S
O92 Mn90 2.089 . S
O92 C99 1.256 . S
O93 Mn85 2.160 . S
O93 C102 1.239 . S
O94 Mn87 2.089 . S
O94 C102 1.256 . S
O95 Mn90 2.251 . S
O95 C100 1.241 . S
O96 Mn90 2.087 . S
O96 C101 1.256 . S
C97 O103 1.278 . S
C97 O104 1.241 . S
C98 O84 1.244 . S
C98 O86 1.256 . S
C99 O88 1.239 . S
C99 O92 1.256 . S
C100 O89 1.278 . S
C100 O95 1.241 . S
C101 O91 1.244 . S
C101 O96 1.256 . S
C102 O93 1.239 . S
C102 O94 1.256 . S
O103 Mn85 2.221 . S
O103 Mn87 2.290 . S
O103 C97 1.278 . S
O104 Mn87 2.251 . S
O104 C97 1.241 . S
O105 Mn106 2.163 . S
O105 C119 1.244 . S
Mn106 O105 2.163 . S
Mn106 O109 2.160 . S
Mn106 O110 2.221 . S
Mn106 O112 2.163 . S
Mn106 O114 2.160 . S
Mn106 O124 2.221 . S
O107 Mn108 2.087 . S
O107 C119 1.256 . S
Mn108 O107 2.087 . S
Mn108 O115 2.089 . S
Mn108 O124 2.290 . S
Mn108 O125 2.251 . S
O109 Mn106 2.160 . S
O109 C120 1.239 . S
O110 Mn106 2.221 . S
O110 Mn111 2.290 . S
O110 C121 1.278 . S
Mn111 O110 2.290 . S
Mn111 O113 2.089 . S
Mn111 O116 2.251 . S
Mn111 O117 2.087 . S
O112 Mn106 2.163 . S
O112 C122 1.244 . S
O113 Mn111 2.089 . S
O113 C120 1.256 . S
O114 Mn106 2.160 . S
O114 C123 1.239 . S
O115 Mn108 2.089 . S
O115 C123 1.256 . S
O116 Mn111 2.251 . S
O116 C121 1.241 . S
O117 Mn111 2.087 . S
O117 C122 1.256 . S
C118 O124 1.278 . S
C118 O125 1.241 . S
C119 O105 1.244 . S
C119 O107 1.256 . S
C120 O109 1.239 . S
C120 O113 1.256 . S
C121 O110 1.278 . S
C121 O116 1.241 . S
C122 O112 1.244 . S
C122 O117 1.256 . S
C123 O114 1.239 . S
C123 O115 1.256 . S
O124 Mn106 2.221 . S
O124 Mn108 2.290 . S
O124 C118 1.278 . S
O125 Mn108 2.251 . S
O125 C118 1.241 . S
O126 Mn127 2.163 . S
O126 C140 1.244 . S
Mn127 O126 2.163 . S
Mn127 O130 2.160 . S
Mn127 O131 2.221 . S
Mn127 O133 2.163 . S
Mn127 O135 2.160 . S
Mn127 O145 2.221 . S
O128 Mn129 2.087 . S
O128 C140 1.256 . S
Mn129 O128 2.087 . S
Mn129 O136 2.089 . S
Mn129 O145 2.290 . S
Mn129 O146 2.251 . S
O130 Mn127 2.160 . S
O130 C141 1.239 . S
O131 Mn127 2.221 . S
O131 Mn132 2.290 . S
O131 C142 1.278 . S
Mn132 O131 2.290 . S
Mn132 O134 2.089 . S
Mn132 O137 2.251 . S
Mn132 O138 2.087 . S
O133 Mn127 2.163 . S
O133 C143 1.244 . S
O134 Mn132 2.089 . S
O134 C141 1.256 . S
O135 Mn127 2.160 . S
O135 C144 1.239 . S
O136 Mn129 2.089 . S
O136 C144 1.256 . S
O137 Mn132 2.251 . S
O137 C142 1.241 . S
O138 Mn132 2.087 . S
O138 C143 1.256 . S
C139 O145 1.278 . S
C139 O146 1.241 . S
C140 O126 1.244 . S
C140 O128 1.256 . S
C141 O130 1.239 . S
C141 O134 1.256 . S
C142 O131 1.278 . S
C142 O137 1.241 . S
C143 O133 1.244 . S
C143 O138 1.256 . S
C144 O135 1.239 . S
C144 O136 1.256 . S
O145 Mn127 2.221 . S
O145 Mn129 2.290 . S
O145 C139 1.278 . S
O146 Mn129 2.251 . S
O146 C139 1.241 . S
O147 Mn148 2.163 . S
O147 C161 1.244 . S
Mn148 O147 2.163 . S
Mn148 O151 2.160 . S
Mn148 O152 2.221 . S
Mn148 O154 2.163 . S
Mn148 O156 2.160 . S
Mn148 O166 2.221 . S
O149 Mn150 2.087 . S
O149 C161 1.256 . S
Mn150 O149 2.087 . S
Mn150 O157 2.089 . S
Mn150 O166 2.290 . S
Mn150 O167 2.251 . S
O151 Mn148 2.160 . S
O151 C162 1.239 . S
O152 Mn148 2.221 . S
O152 Mn153 2.290 . S
O152 C163 1.278 . S
Mn153 O152 2.290 . S
Mn153 O155 2.089 . S
Mn153 O158 2.251 . S
Mn153 O159 2.087 . S
O154 Mn148 2.163 . S
O154 C164 1.244 . S
O155 Mn153 2.089 . S
O155 C162 1.256 . S
O156 Mn148 2.160 . S
O156 C165 1.239 . S
O157 Mn150 2.089 . S
O157 C165 1.256 . S
O158 Mn153 2.251 . S
O158 C163 1.241 . S
O159 Mn153 2.087 . S
O159 C164 1.256 . S
C160 O166 1.278 . S
C160 O167 1.241 . S
C161 O147 1.244 . S
C161 O149 1.256 . S
C162 O151 1.239 . S
C162 O155 1.256 . S
C163 O152 1.278 . S
C163 O158 1.241 . S
C164 O154 1.244 . S
C164 O159 1.256 . S
C165 O156 1.239 . S
C165 O157 1.256 . S
O166 Mn148 2.221 . S
O166 Mn150 2.290 . S
O166 C160 1.278 . S
O167 Mn150 2.251 . S
O167 C160 1.241 . S
O168 Mn169 2.163 . S
O168 C182 1.244 . S
Mn169 O168 2.163 . S
Mn169 O172 2.160 . S
Mn169 O173 2.221 . S
Mn169 O175 2.163 . S
Mn169 O177 2.160 . S
Mn169 O187 2.221 . S
O170 Mn171 2.087 . S
O170 C182 1.256 . S
Mn171 O170 2.087 . S
Mn171 O178 2.089 . S
Mn171 O187 2.290 . S
Mn171 O188 2.251 . S
O172 Mn169 2.160 . S
O172 C183 1.239 . S
O173 Mn169 2.221 . S
O173 Mn174 2.290 . S
O173 C184 1.278 . S
Mn174 O173 2.290 . S
Mn174 O176 2.089 . S
Mn174 O179 2.251 . S
Mn174 O180 2.087 . S
O175 Mn169 2.163 . S
O175 C185 1.244 . S
O176 Mn174 2.089 . S
O176 C183 1.256 . S
O177 Mn169 2.160 . S
O177 C186 1.239 . S
O178 Mn171 2.089 . S
O178 C186 1.256 . S
O179 Mn174 2.251 . S
O179 C184 1.241 . S
O180 Mn174 2.087 . S
O180 C185 1.256 . S
C181 O187 1.278 . S
C181 O188 1.241 . S
C182 O168 1.244 . S
C182 O170 1.256 . S
C183 O172 1.239 . S
C183 O176 1.256 . S
C184 O173 1.278 . S
C184 O179 1.241 . S
C185 O175 1.244 . S
C185 O180 1.256 . S
C186 O177 1.239 . S
C186 O178 1.256 . S
O187 Mn169 2.221 . S
O187 Mn171 2.290 . S
O187 C181 1.278 . S
O188 Mn171 2.251 . S
O188 C181 1.241 . S
O189 Mn190 2.163 . S
O189 C203 1.244 . S
Mn190 O189 2.163 . S
Mn190 O193 2.160 . S
Mn190 O194 2.221 1_545 S
Mn190 O196 2.163 . S
Mn190 O198 2.160 . S
Mn190 O208 2.221 . S
O191 Mn192 2.087 . S
O191 C203 1.256 . S
Mn192 O191 2.087 . S
Mn192 O199 2.089 . S
Mn192 O208 2.290 . S
Mn192 O209 2.251 . S
O193 Mn190 2.160 . S
O193 C204 1.239 . S
O194 Mn190 2.221 1_565 S
O194 Mn195 2.290 . S
O194 C205 1.278 . S
Mn195 O194 2.290 . S
Mn195 O197 2.089 1_565 S
Mn195 O200 2.251 . S
Mn195 O201 2.087 1_565 S
O196 Mn190 2.163 . S
O196 C206 1.244 . S
O197 Mn195 2.089 1_545 S
O197 C204 1.256 . S
O198 Mn190 2.160 . S
O198 C207 1.239 . S
O199 Mn192 2.089 . S
O199 C207 1.256 . S
O200 Mn195 2.251 . S
O200 C205 1.241 . S
O201 Mn195 2.087 1_545 S
O201 C206 1.256 . S
C202 O208 1.278 . S
C202 O209 1.241 . S
C203 O189 1.244 . S
C203 O191 1.256 . S
C204 O193 1.239 . S
C204 O197 1.256 . S
C205 O194 1.278 . S
C205 O200 1.241 . S
C206 O196 1.244 . S
C206 O201 1.256 . S
C207 O198 1.239 . S
C207 O199 1.256 . S
O208 Mn190 2.221 . S
O208 Mn192 2.290 . S
O208 C202 1.278 . S
O209 Mn192 2.251 . S
O209 C202 1.241 . S
O210 Mn211 2.163 . S
O210 C224 1.244 . S
Mn211 O210 2.163 . S
Mn211 O214 2.160 . S
Mn211 O215 2.221 . S
Mn211 O217 2.163 . S
Mn211 O219 2.160 . S
Mn211 O229 2.221 . S
O212 Mn213 2.087 . S
O212 C224 1.256 . S
Mn213 O212 2.087 . S
Mn213 O220 2.089 . S
Mn213 O229 2.290 . S
Mn213 O230 2.251 . S
O214 Mn211 2.160 . S
O214 C225 1.239 . S
O215 Mn211 2.221 . S
O215 Mn216 2.290 . S
O215 C226 1.278 . S
Mn216 O215 2.290 . S
Mn216 O218 2.089 . S
Mn216 O221 2.251 . S
Mn216 O222 2.087 . S
O217 Mn211 2.163 . S
O217 C227 1.244 . S
O218 Mn216 2.089 . S
O218 C225 1.256 . S
O219 Mn211 2.160 . S
O219 C228 1.239 . S
O220 Mn213 2.089 . S
O220 C228 1.256 . S
O221 Mn216 2.251 . S
O221 C226 1.241 . S
O222 Mn216 2.087 . S
O222 C227 1.256 . S
C223 O229 1.278 . S
C223 O230 1.241 . S
C224 O210 1.244 . S
C224 O212 1.256 . S
C225 O214 1.239 . S
C225 O218 1.256 . S
C226 O215 1.278 . S
C226 O221 1.241 . S
C227 O217 1.244 . S
C227 O222 1.256 . S
C228 O219 1.239 . S
C228 O220 1.256 . S
O229 Mn211 2.221 . S
O229 Mn213 2.290 . S
O229 C223 1.278 . S
O230 Mn213 2.251 . S
O230 C223 1.241 . S
O231 Mn232 2.163 . S
O231 C245 1.244 . S
Mn232 O231 2.163 . S
Mn232 O235 2.160 . S
Mn232 O236 2.221 . S
Mn232 O238 2.163 . S
Mn232 O240 2.160 . S
Mn232 O250 2.221 1_565 S
O233 Mn234 2.087 1_565 S
O233 C245 1.256 . S
Mn234 O233 2.087 1_545 S
Mn234 O241 2.089 1_545 S
Mn234 O250 2.290 . S
Mn234 O251 2.251 . S
O235 Mn232 2.160 . S
O235 C246 1.239 . S
O236 Mn232 2.221 . S
O236 Mn237 2.290 . S
O236 C247 1.278 . S
Mn237 O236 2.290 . S
Mn237 O239 2.089 . S
Mn237 O242 2.251 . S
Mn237 O243 2.087 . S
O238 Mn232 2.163 . S
O238 C248 1.244 . S
O239 Mn237 2.089 . S
O239 C246 1.256 . S
O240 Mn232 2.160 . S
O240 C249 1.239 . S
O241 Mn234 2.089 1_565 S
O241 C249 1.256 . S
O242 Mn237 2.251 . S
O242 C247 1.241 . S
O243 Mn237 2.087 . S
O243 C248 1.256 . S
C244 O250 1.278 . S
C244 O251 1.241 . S
C245 O231 1.244 . S
C245 O233 1.256 . S
C246 O235 1.239 . S
C246 O239 1.256 . S
C247 O236 1.278 . S
C247 O242 1.241 . S
C248 O238 1.244 . S
C248 O243 1.256 . S
C249 O240 1.239 . S
C249 O241 1.256 . S
O250 Mn232 2.221 1_545 S
O250 Mn234 2.290 . S
O250 C244 1.278 . S
O251 Mn234 2.251 . S
O251 C244 1.241 . S
O252 Mn253 2.163 . S
O252 C266 1.244 . S
Mn253 O252 2.163 . S
Mn253 O256 2.160 . S
Mn253 O257 2.221 . S
Mn253 O259 2.163 . S
Mn253 O261 2.160 . S
Mn253 O271 2.221 . S
O254 Mn255 2.087 . S
O254 C266 1.256 . S
Mn255 O254 2.087 . S
Mn255 O262 2.089 . S
Mn255 O271 2.290 . S
Mn255 O272 2.251 . S
O256 Mn253 2.160 . S
O256 C267 1.239 . S
O257 Mn253 2.221 . S
O257 Mn258 2.290 . S
O257 C268 1.278 . S
Mn258 O257 2.290 . S
Mn258 O260 2.089 . S
Mn258 O263 2.251 . S
Mn258 O264 2.087 . S
O259 Mn253 2.163 . S
O259 C269 1.244 . S
O260 Mn258 2.089 . S
O260 C267 1.256 . S
O261 Mn253 2.160 . S
O261 C270 1.239 . S
O262 Mn255 2.089 . S
O262 C270 1.256 . S
O263 Mn258 2.251 . S
O263 C268 1.241 . S
O264 Mn258 2.087 . S
O264 C269 1.256 . S
C265 O271 1.278 . S
C265 O272 1.241 . S
C266 O252 1.244 . S
C266 O254 1.256 . S
C267 O256 1.239 . S
C267 O260 1.256 . S
C268 O257 1.278 . S
C268 O263 1.241 . S
C269 O259 1.244 . S
C269 O264 1.256 . S
C270 O261 1.239 . S
C270 O262 1.256 . S
O271 Mn253 2.221 . S
O271 Mn255 2.290 . S
O271 C265 1.278 . S
O272 Mn255 2.251 . S
O272 C265 1.241 . S
O273 Mn274 2.163 . S
O273 C287 1.244 . S
Mn274 O273 2.163 . S
Mn274 O277 2.160 . S
Mn274 O278 2.221 . S
Mn274 O280 2.163 . S
Mn274 O282 2.160 . S
Mn274 O292 2.221 1_565 S
O275 Mn276 2.087 1_565 S
O275 C287 1.256 . S
Mn276 O275 2.087 1_545 S
Mn276 O283 2.089 1_545 S
Mn276 O292 2.290 . S
Mn276 O293 2.251 . S
O277 Mn274 2.160 . S
O277 C288 1.239 . S
O278 Mn274 2.221 . S
O278 Mn279 2.290 . S
O278 C289 1.278 . S
Mn279 O278 2.290 . S
Mn279 O281 2.089 . S
Mn279 O284 2.251 . S
Mn279 O285 2.087 . S
O280 Mn274 2.163 . S
O280 C290 1.244 . S
O281 Mn279 2.089 . S
O281 C288 1.256 . S
O282 Mn274 2.160 . S
O282 C291 1.239 . S
O283 Mn276 2.089 1_565 S
O283 C291 1.256 . S
O284 Mn279 2.251 . S
O284 C289 1.241 . S
O285 Mn279 2.087 . S
O285 C290 1.256 . S
C286 O292 1.278 . S
C286 O293 1.241 . S
C287 O273 1.244 . S
C287 O275 1.256 . S
C288 O277 1.239 . S
C288 O281 1.256 . S
C289 O278 1.278 . S
C289 O284 1.241 . S
C290 O280 1.244 . S
C290 O285 1.256 . S
C291 O282 1.239 . S
C291 O283 1.256 . S
O292 Mn274 2.221 1_545 S
O292 Mn276 2.290 . S
O292 C286 1.278 . S
O293 Mn276 2.251 . S
O293 C286 1.241 . S
O294 Mn295 2.163 . S
O294 C308 1.244 . S
Mn295 O294 2.163 . S
Mn295 O298 2.160 . S
Mn295 O299 2.221 . S
Mn295 O301 2.163 . S
Mn295 O303 2.160 . S
Mn295 O313 2.221 . S
O296 Mn297 2.087 . S
O296 C308 1.256 . S
Mn297 O296 2.087 . S
Mn297 O304 2.089 . S
Mn297 O313 2.290 . S
Mn297 O314 2.251 . S
O298 Mn295 2.160 . S
O298 C309 1.239 . S
O299 Mn295 2.221 . S
O299 Mn300 2.290 . S
O299 C310 1.278 . S
Mn300 O299 2.290 . S
Mn300 O302 2.089 . S
Mn300 O305 2.251 . S
Mn300 O306 2.087 . S
O301 Mn295 2.163 . S
O301 C311 1.244 . S
O302 Mn300 2.089 . S
O302 C309 1.256 . S
O303 Mn295 2.160 . S
O303 C312 1.239 . S
O304 Mn297 2.089 . S
O304 C312 1.256 . S
O305 Mn300 2.251 . S
O305 C310 1.241 . S
O306 Mn300 2.087 . S
O306 C311 1.256 . S
C307 O313 1.278 . S
C307 O314 1.241 . S
C308 O294 1.244 . S
C308 O296 1.256 . S
C309 O298 1.239 . S
C309 O302 1.256 . S
C310 O299 1.278 . S
C310 O305 1.241 . S
C311 O301 1.244 . S
C311 O306 1.256 . S
C312 O303 1.239 . S
C312 O304 1.256 . S
O313 Mn295 2.221 . S
O313 Mn297 2.290 . S
O313 C307 1.278 . S
O314 Mn297 2.251 . S
O314 C307 1.241 . S
O315 Mn316 2.163 . S
O315 C329 1.244 . S
Mn316 O315 2.163 . S
Mn316 O319 2.160 . S
Mn316 O320 2.221 . S
Mn316 O322 2.163 . S
Mn316 O324 2.160 . S
Mn316 O334 2.221 1_545 S
O317 Mn318 2.087 1_545 S
O317 C329 1.256 . S
Mn318 O317 2.087 1_565 S
Mn318 O325 2.089 1_565 S
Mn318 O334 2.290 . S
Mn318 O335 2.251 . S
O319 Mn316 2.160 . S
O319 C330 1.239 . S
O320 Mn316 2.221 . S
O320 Mn321 2.290 . S
O320 C331 1.278 . S
Mn321 O320 2.290 . S
Mn321 O323 2.089 . S
Mn321 O326 2.251 . S
Mn321 O327 2.087 . S
O322 Mn316 2.163 . S
O322 C332 1.244 . S
O323 Mn321 2.089 . S
O323 C330 1.256 . S
O324 Mn316 2.160 . S
O324 C333 1.239 . S
O325 Mn318 2.089 1_545 S
O325 C333 1.256 . S
O326 Mn321 2.251 . S
O326 C331 1.241 . S
O327 Mn321 2.087 . S
O327 C332 1.256 . S
C328 O334 1.278 . S
C328 O335 1.241 . S
C329 O315 1.244 . S
C329 O317 1.256 . S
C330 O319 1.239 . S
C330 O323 1.256 . S
C331 O320 1.278 . S
C331 O326 1.241 . S
C332 O322 1.244 . S
C332 O327 1.256 . S
C333 O324 1.239 . S
C333 O325 1.256 . S
O334 Mn316 2.221 1_565 S
O334 Mn318 2.290 . S
O334 C328 1.278 . S
O335 Mn318 2.251 . S
O335 C328 1.241 . S
H336 C344 0.929 . S
H337 C346 0.930 . S
H338 C348 0.930 . S
H339 C351 0.929 . S
H340 C354 0.930 . S
H341 C356 0.960 . S
H342 C356 0.960 . S
H343 C356 0.960 . S
C344 H336 0.929 . S
C344 C345 1.377 . S
C344 C346 1.384 . S
C345 C344 1.377 . S
C345 C351 1.390 . S
C346 H337 0.930 . S
C346 C344 1.384 . S
C346 C347 1.372 . S
C347 C346 1.372 . S
C347 C348 1.400 . S
C347 C352 1.490 . S
C348 H338 0.930 . S
C348 C347 1.400 . S
C348 C351 1.386 . S
H349 C365 0.930 . S
H350 C366 0.931 . S
C351 H339 0.929 . S
C351 C345 1.390 . S
C351 C348 1.386 . S
C352 C347 1.490 . S
C352 C354 1.395 . S
C352 C355 1.403 . S
H353 C359 0.930 . S
C354 H340 0.930 . S
C354 C352 1.395 . S
C354 C357 1.403 . S
C355 C352 1.403 . S
C355 C356 1.524 . S
C355 C359 1.400 . S
C356 H341 0.960 . S
C356 H342 0.960 . S
C356 H343 0.960 . S
C356 C355 1.524 . S
C357 C354 1.403 . S
C357 C358 1.392 . S
C357 C361 1.495 . S
C358 C357 1.392 . S
C358 C359 1.385 . S
C358 C360 1.478 . S
C359 H353 0.930 . S
C359 C355 1.400 . S
C359 C358 1.385 . S
C360 C358 1.478 . S
C360 C362 1.381 . S
C360 C366 1.383 . S
C361 C357 1.495 . S
C361 H367 0.959 . S
C361 H368 0.961 . S
C361 H369 0.960 . S
C362 C360 1.381 . S
C362 C363 1.394 . S
C362 H370 0.930 . S
C363 C362 1.394 . S
C363 C364 1.383 . S
C363 H371 0.929 . S
C364 C363 1.383 . S
C364 C365 1.377 . S
C365 H349 0.930 . S
C365 C364 1.377 . S
C365 C366 1.379 . S
C366 H350 0.931 . S
C366 C360 1.383 . S
C366 C365 1.379 . S
H367 C361 0.959 . S
H368 C361 0.961 . S
H369 C361 0.960 . S
H370 C362 0.930 . S
H371 C363 0.929 . S
H372 C380 0.929 . S
H373 C382 0.930 . S
H374 C384 0.930 . S
H375 C387 0.929 . S
H376 C390 0.930 . S
H377 C392 0.960 . S
H378 C392 0.960 . S
H379 C392 0.960 . S
C380 H372 0.929 . S
C380 C381 1.377 . S
C380 C382 1.384 . S
C381 C380 1.377 . S
C381 C387 1.390 . S
C382 H373 0.930 . S
C382 C380 1.384 . S
C382 C383 1.372 . S
C383 C382 1.372 . S
C383 C384 1.400 . S
C383 C388 1.490 . S
C384 H374 0.930 . S
C384 C383 1.400 . S
C384 C387 1.386 . S
H385 C401 0.930 . S
H386 C402 0.931 . S
C387 H375 0.929 . S
C387 C381 1.390 . S
C387 C384 1.386 . S
C388 C383 1.490 . S
C388 C390 1.395 . S
C388 C391 1.403 . S
H389 C395 0.930 . S
C390 H376 0.930 . S
C390 C388 1.395 . S
C390 C393 1.403 . S
C391 C388 1.403 . S
C391 C392 1.524 . S
C391 C395 1.400 . S
C392 H377 0.960 . S
C392 H378 0.960 . S
C392 H379 0.960 . S
C392 C391 1.524 . S
C393 C390 1.403 . S
C393 C394 1.392 . S
C393 C397 1.495 . S
C394 C393 1.392 . S
C394 C395 1.385 . S
C394 C396 1.478 . S
C395 H389 0.930 . S
C395 C391 1.400 . S
C395 C394 1.385 . S
C396 C394 1.478 . S
C396 C398 1.381 . S
C396 C402 1.383 . S
C397 C393 1.495 . S
C397 H403 0.959 . S
C397 H404 0.961 . S
C397 H405 0.960 . S
C398 C396 1.381 . S
C398 C399 1.394 . S
C398 H406 0.930 . S
C399 C398 1.394 . S
C399 C400 1.383 . S
C399 H407 0.929 . S
C400 C399 1.383 . S
C400 C401 1.377 . S
C401 H385 0.930 . S
C401 C400 1.377 . S
C401 C402 1.379 . S
C402 H386 0.931 . S
C402 C396 1.383 . S
C402 C401 1.379 . S
H403 C397 0.959 . S
H404 C397 0.961 . S
H405 C397 0.960 . S
H406 C398 0.930 . S
H407 C399 0.929 . S
H408 C416 0.929 . S
H409 C418 0.930 . S
H410 C420 0.930 . S
H411 C423 0.929 . S
H412 C426 0.930 . S
H413 C428 0.960 . S
H414 C428 0.960 . S
H415 C428 0.960 . S
C416 H408 0.929 . S
C416 C417 1.377 . S
C416 C418 1.384 . S
C417 C416 1.377 . S
C417 C423 1.390 . S
C418 H409 0.930 . S
C418 C416 1.384 . S
C418 C419 1.372 . S
C419 C418 1.372 . S
C419 C420 1.400 . S
C419 C424 1.490 . S
C420 H410 0.930 . S
C420 C419 1.400 . S
C420 C423 1.386 . S
H421 C437 0.930 . S
H422 C438 0.931 . S
C423 H411 0.929 . S
C423 C417 1.390 . S
C423 C420 1.386 . S
C424 C419 1.490 . S
C424 C426 1.395 . S
C424 C427 1.403 . S
H425 C431 0.930 . S
C426 H412 0.930 . S
C426 C424 1.395 . S
C426 C429 1.403 . S
C427 C424 1.403 . S
C427 C428 1.524 . S
C427 C431 1.400 . S
C428 H413 0.960 . S
C428 H414 0.960 . S
C428 H415 0.960 . S
C428 C427 1.524 . S
C429 C426 1.403 . S
C429 C430 1.392 . S
C429 C433 1.495 . S
C430 C429 1.392 . S
C430 C431 1.385 . S
C430 C432 1.478 . S
C431 H425 0.930 . S
C431 C427 1.400 . S
C431 C430 1.385 . S
C432 C430 1.478 . S
C432 C434 1.381 . S
C432 C438 1.383 . S
C433 C429 1.495 . S
C433 H439 0.959 . S
C433 H440 0.961 . S
C433 H441 0.960 . S
C434 C432 1.381 . S
C434 C435 1.394 . S
C434 H442 0.930 . S
C435 C434 1.394 . S
C435 C436 1.383 . S
C435 H443 0.929 . S
C436 C435 1.383 . S
C436 C437 1.377 . S
C437 H421 0.930 . S
C437 C436 1.377 . S
C437 C438 1.379 . S
C438 H422 0.931 . S
C438 C432 1.383 . S
C438 C437 1.379 . S
H439 C433 0.959 . S
H440 C433 0.961 . S
H441 C433 0.960 . S
H442 C434 0.930 . S
H443 C435 0.929 . S
H444 C452 0.929 . S
H445 C454 0.930 1_455 S
H446 C456 0.930 . S
H447 C459 0.929 . S
H448 C462 0.930 . S
H449 C464 0.960 . S
H450 C464 0.960 1_556 S
H451 C464 0.981 . S
C452 H444 0.929 . S
C452 C453 1.377 . S
C452 C454 1.384 . S
C453 C452 1.377 . S
C453 C459 1.390 . S
C454 H445 0.930 1_655 S
C454 C452 1.384 . S
C454 C455 1.372 . S
C455 C454 1.372 . S
C455 C456 1.400 . S
C455 C460 1.490 . S
C456 H446 0.930 . S
C456 C455 1.400 . S
C456 C459 1.386 . S
H457 C473 0.930 . S
H458 C474 0.931 1_655 S
C459 H447 0.929 . S
C459 C453 1.390 . S
C459 C456 1.386 . S
C460 C455 1.490 . S
C460 C462 1.395 1_655 S
C460 C463 1.403 1_556 S
H461 C467 0.930 . S
C462 H448 0.930 . S
C462 C460 1.395 1_455 S
C462 C465 1.403 . S
C463 C460 1.403 1_554 S
C463 C464 1.524 . S
C463 C467 1.400 . S
C464 H449 0.960 . S
C464 H450 0.960 1_554 S
C464 H451 0.981 . S
C464 C463 1.524 . S
C465 C462 1.403 . S
C465 C466 1.392 1_556 S
C465 C469 1.495 . S
C466 C465 1.392 1_554 S
C466 C467 1.385 1_455 S
C466 C468 1.478 . S
C467 H461 0.930 . S
C467 C463 1.400 . S
C467 C466 1.385 1_655 S
C468 C466 1.478 . S
C468 C470 1.381 . S
C468 C474 1.383 . S
C469 C465 1.495 . S
C469 H475 0.959 . S
C469 H476 0.977 . S
C469 H477 0.960 . S
C470 C468 1.381 . S
C470 C471 1.394 . S
C470 H478 0.930 . S
C471 C470 1.394 . S
C471 C472 1.383 . S
C471 H479 0.929 . S
C472 C471 1.383 . S
C472 C473 1.377 . S
C473 H457 0.930 . S
C473 C472 1.377 . S
C473 C474 1.379 . S
C474 H458 0.931 1_455 S
C474 C468 1.383 . S
C474 C473 1.379 . S
H475 C469 0.959 . S
H476 C469 0.977 . S
H477 C469 0.960 . S
H478 C470 0.930 . S
H479 C471 0.929 . S
H480 C488 0.929 . S
H481 C490 0.930 . S
H482 C492 0.930 . S
H483 C495 0.929 . S
H484 C498 0.930 . S
H485 C500 0.960 . S
H486 C500 0.960 . S
H487 C500 0.960 . S
C488 H480 0.929 . S
C488 C489 1.377 . S
C488 C490 1.384 . S
C489 C488 1.377 . S
C489 C495 1.390 . S
C490 H481 0.930 . S
C490 C488 1.384 . S
C490 C491 1.372 . S
C491 C490 1.372 . S
C491 C492 1.400 . S
C491 C496 1.490 . S
C492 H482 0.930 . S
C492 C491 1.400 . S
C492 C495 1.386 . S
H493 C509 0.930 . S
H494 C510 0.931 . S
C495 H483 0.929 . S
C495 C489 1.390 . S
C495 C492 1.386 . S
C496 C491 1.490 . S
C496 C498 1.395 . S
C496 C499 1.403 . S
H497 C503 0.930 . S
C498 H484 0.930 . S
C498 C496 1.395 . S
C498 C501 1.403 . S
C499 C496 1.403 . S
C499 C500 1.524 . S
C499 C503 1.400 . S
C500 H485 0.960 . S
C500 H486 0.960 . S
C500 H487 0.960 . S
C500 C499 1.524 . S
C501 C498 1.403 . S
C501 C502 1.392 . S
C501 C505 1.495 . S
C502 C501 1.392 . S
C502 C503 1.385 . S
C502 C504 1.478 . S
C503 H497 0.930 . S
C503 C499 1.400 . S
C503 C502 1.385 . S
C504 C502 1.478 . S
C504 C506 1.381 . S
C504 C510 1.383 . S
C505 C501 1.495 . S
C505 H511 0.959 . S
C505 H512 0.961 . S
C505 H513 0.960 . S
C506 C504 1.381 . S
C506 C507 1.394 . S
C506 H514 0.930 . S
C507 C506 1.394 . S
C507 C508 1.383 . S
C507 H515 0.929 . S
C508 C507 1.383 . S
C508 C509 1.377 . S
C509 H493 0.930 . S
C509 C508 1.377 . S
C509 C510 1.379 . S
C510 H494 0.931 . S
C510 C504 1.383 . S
C510 C509 1.379 . S
H511 C505 0.959 . S
H512 C505 0.961 . S
H513 C505 0.960 . S
H514 C506 0.930 . S
H515 C507 0.929 . S
H516 C524 0.929 . S
H517 C526 0.930 . S
H518 C528 0.930 . S
H519 C531 0.929 . S
H520 C534 0.930 . S
H521 C536 0.960 . S
H522 C536 0.960 . S
H523 C536 0.960 . S
C524 H516 0.929 . S
C524 C525 1.377 . S
C524 C526 1.384 . S
C525 C524 1.377 . S
C525 C531 1.390 . S
C526 H517 0.930 . S
C526 C524 1.384 . S
C526 C527 1.372 . S
C527 C526 1.372 . S
C527 C528 1.400 . S
C527 C532 1.490 . S
C528 H518 0.930 . S
C528 C527 1.400 . S
C528 C531 1.386 . S
H529 C545 0.930 . S
H530 C546 0.931 . S
C531 H519 0.929 . S
C531 C525 1.390 . S
C531 C528 1.386 . S
C532 C527 1.490 . S
C532 C534 1.395 . S
C532 C535 1.403 . S
H533 C539 0.930 . S
C534 H520 0.930 . S
C534 C532 1.395 . S
C534 C537 1.403 . S
C535 C532 1.403 . S
C535 C536 1.524 . S
C535 C539 1.400 . S
C536 H521 0.960 . S
C536 H522 0.960 . S
C536 H523 0.960 . S
C536 C535 1.524 . S
C537 C534 1.403 . S
C537 C538 1.392 . S
C537 C541 1.495 . S
C538 C537 1.392 . S
C538 C539 1.385 . S
C538 C540 1.478 . S
C539 H533 0.930 . S
C539 C535 1.400 . S
C539 C538 1.385 . S
C540 C538 1.478 . S
C540 C542 1.381 . S
C540 C546 1.383 . S
C541 C537 1.495 . S
C541 H547 0.959 . S
C541 H548 0.961 . S
C541 H549 0.960 . S
C542 C540 1.381 . S
C542 C543 1.394 . S
C542 H550 0.930 . S
C543 C542 1.394 . S
C543 C544 1.383 . S
C543 H551 0.929 . S
C544 C543 1.383 . S
C544 C545 1.377 . S
C545 H529 0.930 . S
C545 C544 1.377 . S
C545 C546 1.379 . S
C546 H530 0.931 . S
C546 C540 1.383 . S
C546 C545 1.379 . S
H547 C541 0.959 . S
H548 C541 0.961 . S
H549 C541 0.960 . S
H550 C542 0.930 . S
H551 C543 0.929 . S
H552 C560 0.929 . S
H553 C562 0.930 . S
H554 C564 0.930 1_545 S
H555 C567 0.929 . S
H556 C570 0.931 . S
H557 C572 0.960 . S
H558 C572 0.960 . S
H559 C572 0.960 1_655 S
C560 H552 0.929 . S
C560 C561 1.377 . S
C560 C562 1.384 . S
C561 C560 1.377 . S
C561 C567 1.390 . S
C562 H553 0.930 . S
C562 C560 1.384 . S
C562 C563 1.372 . S
C563 C562 1.372 . S
C563 C564 1.400 . S
C563 C568 1.490 . S
C564 H554 0.930 1_565 S
C564 C563 1.400 . S
C564 C567 1.386 . S
H565 C581 0.930 . S
H566 C582 0.931 1_655 S
C567 H555 0.929 . S
C567 C561 1.390 . S
C567 C564 1.386 . S
C568 C563 1.490 . S
C568 C570 1.406 . S
C568 C571 1.402 1_565 S
H569 C575 0.930 . S
C570 H556 0.931 . S
C570 C568 1.406 . S
C570 C573 1.391 1_654 S
C571 C568 1.402 1_545 S
C571 C572 1.524 1_655 S
C571 C575 1.400 1_654 S
C572 H557 0.960 . S
C572 H558 0.960 . S
C572 H559 0.960 1_455 S
C572 C571 1.524 1_455 S
C573 C570 1.391 1_456 S
C573 C574 1.392 1_565 S
C573 C577 1.495 . S
C574 C573 1.392 1_545 S
C574 C575 1.385 . S
C574 C576 1.478 . S
C575 H569 0.930 . S
C575 C571 1.400 1_456 S
C575 C574 1.385 . S
C576 C574 1.478 . S
C576 C578 1.381 . S
C576 C582 1.383 . S
C577 C573 1.495 . S
C577 H583 0.959 1_455 S
C577 H584 0.961 1_455 S
C577 H585 0.960 . S
C578 C576 1.381 . S
C578 C579 1.394 . S
C578 H586 0.930 1_545 S
C579 C578 1.394 . S
C579 C580 1.383 . S
C579 H587 0.929 . S
C580 C579 1.383 . S
C580 C581 1.377 . S
C581 H565 0.930 . S
C581 C580 1.377 . S
C581 C582 1.379 . S
C582 H566 0.931 1_455 S
C582 C576 1.383 . S
C582 C581 1.379 . S
H583 C577 0.959 1_655 S
H584 C577 0.961 1_655 S
H585 C577 0.960 . S
H586 C578 0.930 1_565 S
H587 C579 0.929 . S
H588 C596 0.929 . S
H589 C598 0.930 . S
H590 C600 0.930 1_545 S
H591 C603 0.946 . S
H592 C606 0.930 . S
H593 C608 0.960 . S
H594 C608 0.960 1_565 S
H595 C608 0.960 . S
C596 H588 0.929 . S
C596 C597 1.377 . S
C596 C598 1.384 . S
C597 C596 1.377 . S
C597 C603 1.390 . S
C598 H589 0.930 . S
C598 C596 1.384 . S
C598 C599 1.372 . S
C599 C598 1.372 . S
C599 C600 1.400 . S
C599 C604 1.490 . S
C600 H590 0.930 1_565 S
C600 C599 1.400 . S
C600 C603 1.386 . S
H601 C617 0.930 . S
H602 C618 0.931 . S
C603 H591 0.946 . S
C603 C597 1.390 . S
C603 C600 1.386 . S
C604 C599 1.490 . S
C604 C606 1.395 . S
C604 C607 1.406 . S
H605 C611 0.930 . S
C606 H592 0.930 . S
C606 C604 1.395 . S
C606 C609 1.403 . S
C607 C604 1.406 . S
C607 C608 1.523 1_565 S
C607 C611 1.397 1_565 S
C608 H593 0.960 . S
C608 H594 0.960 1_545 S
C608 H595 0.960 . S
C608 C607 1.523 1_545 S
C609 C606 1.403 . S
C609 C610 1.392 1_565 S
C609 C613 1.495 . S
C610 C609 1.392 1_545 S
C610 C611 1.385 . S
C610 C612 1.478 . S
C611 H605 0.930 . S
C611 C607 1.397 1_545 S
C611 C610 1.385 . S
C612 C610 1.478 . S
C612 C614 1.381 . S
C612 C618 1.383 . S
C613 C609 1.495 . S
C613 H619 0.959 . S
C613 H620 0.961 1_565 S
C613 H621 0.960 . S
C614 C612 1.381 . S
C614 C615 1.394 . S
C614 H622 0.930 1_545 S
C615 C614 1.394 . S
C615 C616 1.383 . S
C615 H623 0.924 1_545 S
C616 C615 1.383 . S
C616 C617 1.377 . S
C617 H601 0.930 . S
C617 C616 1.377 . S
C617 C618 1.379 . S
C618 H602 0.931 . S
C618 C612 1.383 . S
C618 C617 1.379 . S
H619 C613 0.959 . S
H620 C613 0.961 1_545 S
H621 C613 0.960 . S
H622 C614 0.930 1_565 S
H623 C615 0.924 1_565 S
H624 C632 0.929 . S
H625 C634 0.930 . S
H626 C636 0.930 . S
H627 C639 0.929 . S
H628 C642 0.930 . S
H629 C644 0.979 . S
H630 C644 0.956 1_556 S
H631 C644 0.943 1_556 S
C632 H624 0.929 . S
C632 C633 1.377 . S
C632 C634 1.384 . S
C633 C632 1.377 . S
C633 C639 1.390 . S
C634 H625 0.930 . S
C634 C632 1.384 . S
C634 C635 1.372 . S
C635 C634 1.372 . S
C635 C636 1.400 . S
C635 C640 1.490 . S
C636 H626 0.930 . S
C636 C635 1.400 . S
C636 C639 1.386 . S
H637 C653 0.930 . S
H638 C654 0.931 . S
C639 H627 0.929 . S
C639 C633 1.390 . S
C639 C636 1.386 . S
C640 C635 1.490 . S
C640 C642 1.395 . S
C640 C643 1.403 1_556 S
H641 C647 0.930 . S
C642 H628 0.930 . S
C642 C640 1.395 . S
C642 C645 1.403 1_556 S
C643 C640 1.403 1_554 S
C643 C644 1.525 . S
C643 C647 1.400 . S
C644 H629 0.979 . S
C644 H630 0.956 1_554 S
C644 H631 0.943 1_554 S
C644 C643 1.525 . S
C645 C642 1.403 1_554 S
C645 C646 1.392 . S
C645 C649 1.495 . S
C646 C645 1.392 . S
C646 C647 1.385 . S
C646 C648 1.478 . S
C647 H641 0.930 . S
C647 C643 1.400 . S
C647 C646 1.385 . S
C648 C646 1.478 . S
C648 C650 1.381 . S
C648 C654 1.383 . S
C649 C645 1.495 . S
C649 H655 0.959 1_554 S
C649 H656 0.961 . S
C649 H657 0.960 . S
C650 C648 1.381 . S
C650 C651 1.394 . S
C650 H658 0.930 . S
C651 C650 1.394 . S
C651 C652 1.383 . S
C651 H659 0.929 . S
C652 C651 1.383 . S
C652 C653 1.377 . S
C653 H637 0.930 . S
C653 C652 1.377 . S
C653 C654 1.379 . S
C654 H638 0.931 . S
C654 C648 1.383 . S
C654 C653 1.379 . S
H655 C649 0.959 1_556 S
H656 C649 0.961 . S
H657 C649 0.960 . S
H658 C650 0.930 . S
H659 C651 0.929 . S
H660 C668 0.929 . S
H661 C670 0.930 . S
H662 C672 0.930 . S
H663 C675 0.929 . S
H664 C678 0.930 . S
H665 C680 0.960 . S
H666 C680 0.960 . S
H667 C680 0.960 . S
C668 H660 0.929 . S
C668 C669 1.377 . S
C668 C670 1.384 . S
C669 C668 1.377 . S
C669 C675 1.390 . S
C670 H661 0.930 . S
C670 C668 1.384 . S
C670 C671 1.372 . S
C671 C670 1.372 . S
C671 C672 1.400 . S
C671 C676 1.490 . S
C672 H662 0.930 . S
C672 C671 1.400 . S
C672 C675 1.386 . S
H673 C689 0.930 . S
H674 C690 0.931 . S
C675 H663 0.929 . S
C675 C669 1.390 . S
C675 C672 1.386 . S
C676 C671 1.490 . S
C676 C678 1.395 . S
C676 C679 1.403 . S
H677 C683 0.930 . S
C678 H664 0.930 . S
C678 C676 1.395 . S
C678 C681 1.403 . S
C679 C676 1.403 . S
C679 C680 1.524 . S
C679 C683 1.400 . S
C680 H665 0.960 . S
C680 H666 0.960 . S
C680 H667 0.960 . S
C680 C679 1.524 . S
C681 C678 1.403 . S
C681 C682 1.392 . S
C681 C685 1.495 . S
C682 C681 1.392 . S
C682 C683 1.385 . S
C682 C684 1.478 . S
C683 H677 0.930 . S
C683 C679 1.400 . S
C683 C682 1.385 . S
C684 C682 1.478 . S
C684 C686 1.381 . S
C684 C690 1.383 . S
C685 C681 1.495 . S
C685 H691 0.959 . S
C685 H692 0.961 . S
C685 H693 0.960 . S
C686 C684 1.381 . S
C686 C687 1.394 . S
C686 H694 0.930 . S
C687 C686 1.394 . S
C687 C688 1.383 . S
C687 H695 0.929 . S
C688 C687 1.383 . S
C688 C689 1.377 . S
C689 H673 0.930 . S
C689 C688 1.377 . S
C689 C690 1.379 . S
C690 H674 0.931 . S
C690 C684 1.383 . S
C690 C689 1.379 . S
H691 C685 0.959 . S
H692 C685 0.961 . S
H693 C685 0.960 . S
H694 C686 0.930 . S
H695 C687 0.929 . S
H696 C704 0.929 . S
H697 C706 0.930 . S
H698 C708 0.930 . S
H699 C711 0.929 . S
H700 C714 0.930 . S
H701 C716 0.960 . S
H702 C716 0.960 . S
H703 C716 0.960 . S
C704 H696 0.929 . S
C704 C705 1.377 . S
C704 C706 1.384 . S
C705 C704 1.377 . S
C705 C711 1.390 . S
C706 H697 0.930 . S
C706 C704 1.384 . S
C706 C707 1.372 . S
C707 C706 1.372 . S
C707 C708 1.400 . S
C707 C712 1.490 . S
C708 H698 0.930 . S
C708 C707 1.400 . S
C708 C711 1.386 . S
H709 C725 0.930 . S
H710 C726 0.931 . S
C711 H699 0.929 . S
C711 C705 1.390 . S
C711 C708 1.386 . S
C712 C707 1.490 . S
C712 C714 1.395 . S
C712 C715 1.403 . S
H713 C719 0.930 . S
C714 H700 0.930 . S
C714 C712 1.395 . S
C714 C717 1.403 . S
C715 C712 1.403 . S
C715 C716 1.524 . S
C715 C719 1.400 . S
C716 H701 0.960 . S
C716 H702 0.960 . S
C716 H703 0.960 . S
C716 C715 1.524 . S
C717 C714 1.403 . S
C717 C718 1.392 . S
C717 C721 1.495 . S
C718 C717 1.392 . S
C718 C719 1.385 . S
C718 C720 1.478 . S
C719 H713 0.930 . S
C719 C715 1.400 . S
C719 C718 1.385 . S
C720 C718 1.478 . S
C720 C722 1.381 . S
C720 C726 1.383 . S
C721 C717 1.495 . S
C721 H727 0.959 . S
C721 H728 0.961 . S
C721 H729 0.960 . S
C722 C720 1.381 . S
C722 C723 1.394 . S
C722 H730 0.930 . S
C723 C722 1.394 . S
C723 C724 1.383 . S
C723 H731 0.929 . S
C724 C723 1.383 . S
C724 C725 1.377 . S
C725 H709 0.930 . S
C725 C724 1.377 . S
C725 C726 1.379 . S
C726 H710 0.931 . S
C726 C720 1.383 . S
C726 C725 1.379 . S
H727 C721 0.959 . S
H728 C721 0.961 . S
H729 C721 0.960 . S
H730 C722 0.930 . S
H731 C723 0.929 . S
H732 C740 0.929 . S
H733 C742 0.930 . S
H734 C744 0.930 . S
H735 C747 0.929 . S
H736 C750 0.930 . S
H737 C752 0.960 . S
H738 C752 0.960 . S
H739 C752 0.960 . S
C740 H732 0.929 . S
C740 C741 1.377 . S
C740 C742 1.384 . S
C741 C740 1.377 . S
C741 C747 1.390 . S
C742 H733 0.930 . S
C742 C740 1.384 . S
C742 C743 1.372 . S
C743 C742 1.372 . S
C743 C744 1.400 . S
C743 C748 1.490 . S
C744 H734 0.930 . S
C744 C743 1.400 . S
C744 C747 1.386 . S
H745 C761 0.930 . S
H746 C762 0.931 . S
C747 H735 0.929 . S
C747 C741 1.390 . S
C747 C744 1.386 . S
C748 C743 1.490 . S
C748 C750 1.395 . S
C748 C751 1.403 . S
H749 C755 0.930 . S
C750 H736 0.930 . S
C750 C748 1.395 . S
C750 C753 1.403 . S
C751 C748 1.403 . S
C751 C752 1.524 . S
C751 C755 1.400 . S
C752 H737 0.960 . S
C752 H738 0.960 . S
C752 H739 0.960 . S
C752 C751 1.524 . S
C753 C750 1.403 . S
C753 C754 1.392 . S
C753 C757 1.495 . S
C754 C753 1.392 . S
C754 C755 1.385 . S
C754 C756 1.478 . S
C755 H749 0.930 . S
C755 C751 1.400 . S
C755 C754 1.385 . S
C756 C754 1.478 . S
C756 C758 1.381 . S
C756 C762 1.383 . S
C757 C753 1.495 . S
C757 H763 0.959 . S
C757 H764 0.961 . S
C757 H765 0.960 . S
C758 C756 1.381 . S
C758 C759 1.394 . S
C758 H766 0.930 . S
C759 C758 1.394 . S
C759 C760 1.383 . S
C759 H767 0.929 . S
C760 C759 1.383 . S
C760 C761 1.377 . S
C761 H745 0.930 . S
C761 C760 1.377 . S
C761 C762 1.379 . S
C762 H746 0.931 . S
C762 C756 1.383 . S
C762 C761 1.379 . S
H763 C757 0.959 . S
H764 C757 0.961 . S
H765 C757 0.960 . S
H766 C758 0.930 . S
H767 C759 0.929 . S
H768 C776 0.929 . S
H769 C778 0.930 . S
H770 C780 0.930 . S
H771 C783 0.929 . S
H772 C786 0.930 . S
H773 C788 0.960 1_556 S
H774 C788 0.960 . S
H775 C788 0.960 . S
C776 H768 0.929 . S
C776 C777 1.377 . S
C776 C778 1.384 . S
C777 C776 1.377 . S
C777 C783 1.390 . S
C778 H769 0.930 . S
C778 C776 1.384 . S
C778 C779 1.372 . S
C779 C778 1.372 . S
C779 C780 1.400 . S
C779 C784 1.490 . S
C780 H770 0.930 . S
C780 C779 1.400 . S
C780 C783 1.386 . S
H781 C797 0.930 . S
H782 C798 0.931 . S
C783 H771 0.929 . S
C783 C777 1.390 . S
C783 C780 1.386 . S
C784 C779 1.490 . S
C784 C786 1.395 . S
C784 C787 1.403 . S
H785 C791 0.930 . S
C786 H772 0.930 . S
C786 C784 1.395 . S
C786 C789 1.403 1_554 S
C787 C784 1.403 . S
C787 C788 1.524 . S
C787 C791 1.400 1_554 S
C788 H773 0.960 1_554 S
C788 H774 0.960 . S
C788 H775 0.960 . S
C788 C787 1.524 . S
C789 C786 1.403 1_556 S
C789 C790 1.392 . S
C789 C793 1.495 . S
C790 C789 1.392 . S
C790 C791 1.385 . S
C790 C792 1.478 . S
C791 H785 0.930 . S
C791 C787 1.400 1_556 S
C791 C790 1.385 . S
C792 C790 1.478 . S
C792 C794 1.381 . S
C792 C798 1.383 . S
C793 C789 1.495 . S
C793 H799 0.959 . S
C793 H800 0.961 . S
C793 H801 0.960 . S
C794 C792 1.381 . S
C794 C795 1.394 . S
C794 H802 0.930 . S
C795 C794 1.394 . S
C795 C796 1.383 . S
C795 H803 0.929 . S
C796 C795 1.383 . S
C796 C797 1.377 . S
C797 H781 0.930 . S
C797 C796 1.377 . S
C797 C798 1.379 . S
C798 H782 0.931 . S
C798 C792 1.383 . S
C798 C797 1.379 . S
H799 C793 0.959 . S
H800 C793 0.961 . S
H801 C793 0.960 . S
H802 C794 0.930 . S
H803 C795 0.929 . S
H804 C812 0.929 . S
H805 C814 0.930 . S
H806 C816 0.930 . S
H807 C819 0.929 . S
H808 C822 0.930 . S
H809 C824 0.960 . S
H810 C824 0.960 . S
H811 C824 0.960 . S
C812 H804 0.929 . S
C812 C813 1.377 . S
C812 C814 1.384 . S
C813 C812 1.377 . S
C813 C819 1.390 . S
C814 H805 0.930 . S
C814 C812 1.384 . S
C814 C815 1.372 . S
C815 C814 1.372 . S
C815 C816 1.400 . S
C815 C820 1.490 . S
C816 H806 0.930 . S
C816 C815 1.400 . S
C816 C819 1.386 . S
H817 C833 0.930 . S
H818 C834 0.931 . S
C819 H807 0.929 . S
C819 C813 1.390 . S
C819 C816 1.386 . S
C820 C815 1.490 . S
C820 C822 1.395 . S
C820 C823 1.403 . S
H821 C827 0.930 . S
C822 H808 0.930 . S
C822 C820 1.395 . S
C822 C825 1.403 . S
C823 C820 1.403 . S
C823 C824 1.524 . S
C823 C827 1.400 . S
C824 H809 0.960 . S
C824 H810 0.960 . S
C824 H811 0.960 . S
C824 C823 1.524 . S
C825 C822 1.403 . S
C825 C826 1.392 . S
C825 C829 1.495 . S
C826 C825 1.392 . S
C826 C827 1.385 . S
C826 C828 1.478 . S
C827 H821 0.930 . S
C827 C823 1.400 . S
C827 C826 1.385 . S
C828 C826 1.478 . S
C828 C830 1.381 . S
C828 C834 1.383 . S
C829 C825 1.495 . S
C829 H835 0.959 . S
C829 H836 0.961 . S
C829 H837 0.960 . S
C830 C828 1.381 . S
C830 C831 1.394 . S
C830 H838 0.930 . S
C831 C830 1.394 . S
C831 C832 1.383 . S
C831 H839 0.929 . S
C832 C831 1.383 . S
C832 C833 1.377 . S
C833 H817 0.930 . S
C833 C832 1.377 . S
C833 C834 1.379 . S
C834 H818 0.931 . S
C834 C828 1.383 . S
C834 C833 1.379 . S
H835 C829 0.959 . S
H836 C829 0.961 . S
H837 C829 0.960 . S
H838 C830 0.930 . S
H839 C831 0.929 . S
H840 C848 0.929 . S
H841 C850 0.930 . S
H842 C852 0.930 . S
H843 C855 0.929 . S
H844 C858 0.930 . S
H845 C860 0.960 . S
H846 C860 0.960 . S
H847 C860 0.960 . S
C848 H840 0.929 . S
C848 C849 1.377 . S
C848 C850 1.384 . S
C849 C848 1.377 . S
C849 C855 1.390 . S
C850 H841 0.930 . S
C850 C848 1.384 . S
C850 C851 1.372 . S
C851 C850 1.372 . S
C851 C852 1.400 . S
C851 C856 1.490 . S
C852 H842 0.930 . S
C852 C851 1.400 . S
C852 C855 1.386 . S
H853 C869 0.930 . S
H854 C870 0.931 . S
C855 H843 0.929 . S
C855 C849 1.390 . S
C855 C852 1.386 . S
C856 C851 1.490 . S
C856 C858 1.395 . S
C856 C859 1.403 . S
H857 C863 0.930 . S
C858 H844 0.930 . S
C858 C856 1.395 . S
C858 C861 1.403 . S
C859 C856 1.403 . S
C859 C860 1.524 . S
C859 C863 1.400 . S
C860 H845 0.960 . S
C860 H846 0.960 . S
C860 H847 0.960 . S
C860 C859 1.524 . S
C861 C858 1.403 . S
C861 C862 1.392 . S
C861 C865 1.495 . S
C862 C861 1.392 . S
C862 C863 1.385 . S
C862 C864 1.478 . S
C863 H857 0.930 . S
C863 C859 1.400 . S
C863 C862 1.385 . S
C864 C862 1.478 . S
C864 C866 1.381 . S
C864 C870 1.383 . S
C865 C861 1.495 . S
C865 H871 0.959 . S
C865 H872 0.961 . S
C865 H873 0.960 . S
C866 C864 1.381 . S
C866 C867 1.394 . S
C866 H874 0.930 . S
C867 C866 1.394 . S
C867 C868 1.383 . S
C867 H875 0.929 . S
C868 C867 1.383 . S
C868 C869 1.377 . S
C869 H853 0.930 . S
C869 C868 1.377 . S
C869 C870 1.379 . S
C870 H854 0.931 . S
C870 C864 1.383 . S
C870 C869 1.379 . S
H871 C865 0.959 . S
H872 C865 0.961 . S
H873 C865 0.960 . S
H874 C866 0.930 . S
H875 C867 0.929 . S
H876 C884 0.929 . S
H877 C886 0.930 . S
H878 C888 0.930 . S
H879 C891 0.929 . S
H880 C894 0.930 . S
H881 C896 0.960 . S
H882 C896 0.960 . S
H883 C896 0.960 . S
C884 H876 0.929 . S
C884 C885 1.377 . S
C884 C886 1.384 . S
C885 C884 1.377 . S
C885 C891 1.390 . S
C886 H877 0.930 . S
C886 C884 1.384 . S
C886 C887 1.372 . S
C887 C886 1.372 . S
C887 C888 1.400 . S
C887 C892 1.490 . S
C888 H878 0.930 . S
C888 C887 1.400 . S
C888 C891 1.386 . S
H889 C905 0.930 . S
H890 C906 0.931 . S
C891 H879 0.929 . S
C891 C885 1.390 . S
C891 C888 1.386 . S
C892 C887 1.490 . S
C892 C894 1.395 . S
C892 C895 1.403 . S
H893 C899 0.930 . S
C894 H880 0.930 . S
C894 C892 1.395 . S
C894 C897 1.403 . S
C895 C892 1.403 . S
C895 C896 1.524 . S
C895 C899 1.400 . S
C896 H881 0.960 . S
C896 H882 0.960 . S
C896 H883 0.960 . S
C896 C895 1.524 . S
C897 C894 1.403 . S
C897 C898 1.392 . S
C897 C901 1.495 . S
C898 C897 1.392 . S
C898 C899 1.385 . S
C898 C900 1.478 . S
C899 H893 0.930 . S
C899 C895 1.400 . S
C899 C898 1.385 . S
C900 C898 1.478 . S
C900 C902 1.381 . S
C900 C906 1.383 . S
C901 C897 1.495 . S
C901 H907 0.959 . S
C901 H908 0.961 . S
C901 H909 0.960 . S
C902 C900 1.381 . S
C902 C903 1.394 . S
C902 H910 0.930 . S
C903 C902 1.394 . S
C903 C904 1.383 . S
C903 H911 0.929 . S
C904 C903 1.383 . S
C904 C905 1.377 . S
C905 H889 0.930 . S
C905 C904 1.377 . S
C905 C906 1.379 . S
C906 H890 0.931 . S
C906 C900 1.383 . S
C906 C905 1.379 . S
H907 C901 0.959 . S
H908 C901 0.961 . S
H909 C901 0.960 . S
H910 C902 0.930 . S
H911 C903 0.929 . S
H912 C920 0.929 . S
H913 C922 0.930 . S
H914 C924 0.930 . S
H915 C927 0.929 . S
H916 C930 0.930 . S
H917 C932 0.960 . S
H918 C932 0.960 . S
H919 C932 0.960 . S
C920 H912 0.929 . S
C920 C921 1.377 . S
C920 C922 1.384 . S
C921 C920 1.377 . S
C921 C927 1.390 . S
C922 H913 0.930 . S
C922 C920 1.384 . S
C922 C923 1.372 . S
C923 C922 1.372 . S
C923 C924 1.400 . S
C923 C928 1.490 . S
C924 H914 0.930 . S
C924 C923 1.400 . S
C924 C927 1.386 . S
H925 C941 0.930 . S
H926 C942 0.931 . S
C927 H915 0.929 . S
C927 C921 1.390 . S
C927 C924 1.386 . S
C928 C923 1.490 . S
C928 C930 1.395 . S
C928 C931 1.403 . S
H929 C935 0.930 . S
C930 H916 0.930 . S
C930 C928 1.395 . S
C930 C933 1.403 . S
C931 C928 1.403 . S
C931 C932 1.524 . S
C931 C935 1.400 . S
C932 H917 0.960 . S
C932 H918 0.960 . S
C932 H919 0.960 . S
C932 C931 1.524 . S
C933 C930 1.403 . S
C933 C934 1.392 . S
C933 C937 1.495 . S
C934 C933 1.392 . S
C934 C935 1.385 . S
C934 C936 1.478 . S
C935 H929 0.930 . S
C935 C931 1.400 . S
C935 C934 1.385 . S
C936 C934 1.478 . S
C936 C938 1.381 . S
C936 C942 1.383 . S
C937 C933 1.495 . S
C937 H943 0.959 . S
C937 H944 0.961 . S
C937 H945 0.960 . S
C938 C936 1.381 . S
C938 C939 1.394 . S
C938 H946 0.930 . S
C939 C938 1.394 . S
C939 C940 1.383 . S
C939 H947 0.929 . S
C940 C939 1.383 . S
C940 C941 1.377 . S
C941 H925 0.930 . S
C941 C940 1.377 . S
C941 C942 1.379 . S
C942 H926 0.931 . S
C942 C936 1.383 . S
C942 C941 1.379 . S
H943 C937 0.959 . S
H944 C937 0.961 . S
H945 C937 0.960 . S
H946 C938 0.930 . S
H947 C939 0.929 . S
H948 C956 0.929 . S
H949 C958 0.930 . S
H950 C960 0.930 . S
H951 C963 0.929 . S
H952 C966 0.930 . S
H953 C968 0.960 . S
H954 C968 0.960 . S
H955 C968 0.970 . S
C956 H948 0.929 . S
C956 C957 1.377 1_565 S
C956 C958 1.384 . S
C957 C956 1.377 1_545 S
C957 C963 1.390 . S
C958 H949 0.930 . S
C958 C956 1.384 . S
C958 C959 1.372 . S
C959 C958 1.372 . S
C959 C960 1.400 1_565 S
C959 C964 1.490 . S
C960 H950 0.930 . S
C960 C959 1.400 1_545 S
C960 C963 1.386 . S
H961 C977 0.930 . S
H962 C978 0.931 . S
C963 H951 0.929 . S
C963 C957 1.390 . S
C963 C960 1.386 . S
C964 C959 1.490 . S
C964 C966 1.395 . S
C964 C967 1.403 . S
H965 C971 0.930 . S
C966 H952 0.930 . S
C966 C964 1.395 . S
C966 C969 1.403 . S
C967 C964 1.403 . S
C967 C968 1.524 . S
C967 C971 1.400 . S
C968 H953 0.960 . S
C968 H954 0.960 . S
C968 H955 0.970 . S
C968 C967 1.524 . S
C969 C966 1.403 . S
C969 C970 1.392 . S
C969 C973 1.495 . S
C970 C969 1.392 . S
C970 C971 1.385 . S
C970 C972 1.478 . S
C971 H965 0.930 . S
C971 C967 1.400 . S
C971 C970 1.385 . S
C972 C970 1.478 . S
C972 C974 1.381 . S
C972 C978 1.383 . S
C973 C969 1.495 . S
C973 H979 0.959 . S
C973 H980 0.961 . S
C973 H981 0.960 . S
C974 C972 1.381 . S
C974 C975 1.394 . S
C974 H982 0.930 . S
C975 C974 1.394 . S
C975 C976 1.383 . S
C975 H983 0.929 . S
C976 C975 1.383 . S
C976 C977 1.377 . S
C977 H961 0.930 . S
C977 C976 1.377 . S
C977 C978 1.379 . S
C978 H962 0.931 . S
C978 C972 1.383 . S
C978 C977 1.379 . S
H979 C973 0.959 . S
H980 C973 0.961 . S
H981 C973 0.960 . S
H982 C974 0.930 . S
H983 C975 0.929 . S
H984 C992 0.929 . S
H985 C994 0.930 . S
H986 C996 0.930 . S
H987 C999 0.929 . S
H988 C1002 0.930 . S
H989 C1004 0.960 . S
H990 C1004 0.960 . S
H991 C1004 0.960 . S
C992 H984 0.929 . S
C992 C993 1.377 . S
C992 C994 1.384 . S
C993 C992 1.377 . S
C993 C999 1.390 . S
C994 H985 0.930 . S
C994 C992 1.384 . S
C994 C995 1.372 . S
C995 C994 1.372 . S
C995 C996 1.400 . S
C995 C1000 1.490 . S
C996 H986 0.930 . S
C996 C995 1.400 . S
C996 C999 1.386 . S
H997 C1013 0.930 . S
H998 C1014 0.931 . S
C999 H987 0.929 . S
C999 C993 1.390 . S
C999 C996 1.386 . S
C1000 C995 1.490 . S
C1000 C1002 1.395 . S
C1000 C1003 1.403 . S
H1001 C1007 0.930 . S
C1002 H988 0.930 . S
C1002 C1000 1.395 . S
C1002 C1005 1.403 1_554 S
C1003 C1000 1.403 . S
C1003 C1004 1.524 . S
C1003 C1007 1.400 1_554 S
C1004 H989 0.960 . S
C1004 H990 0.960 . S
C1004 H991 0.960 . S
C1004 C1003 1.524 . S
C1005 C1002 1.403 1_556 S
C1005 C1006 1.392 . S
C1005 C1009 1.495 . S
C1006 C1005 1.392 . S
C1006 C1007 1.385 . S
C1006 C1008 1.478 . S
C1007 H1001 0.930 . S
C1007 C1003 1.400 1_556 S
C1007 C1006 1.385 . S
C1008 C1006 1.478 . S
C1008 C1010 1.381 . S
C1008 C1014 1.383 . S
C1009 C1005 1.495 . S
C1009 H1015 0.959 . S
C1009 H1016 0.961 . S
C1009 H1017 0.960 . S
C1010 C1008 1.381 . S
C1010 C1011 1.394 . S
C1010 H1018 0.930 . S
C1011 C1010 1.394 . S
C1011 C1012 1.383 . S
C1011 H1019 0.929 . S
C1012 C1011 1.383 . S
C1012 C1013 1.377 . S
C1013 H997 0.930 . S
C1013 C1012 1.377 . S
C1013 C1014 1.379 . S
C1014 H998 0.931 . S
C1014 C1008 1.383 . S
C1014 C1013 1.379 . S
H1015 C1009 0.959 . S
H1016 C1009 0.961 . S
H1017 C1009 0.960 . S
H1018 C1010 0.930 . S
H1019 C1011 0.929 . S
H1020 C1028 0.929 . S
H1021 C1030 0.930 . S
H1022 C1032 0.930 . S
H1023 C1035 0.929 . S
H1024 C1038 0.930 . S
H1025 C1040 0.960 . S
H1026 C1040 0.960 . S
H1027 C1040 0.960 . S
C1028 H1020 0.929 . S
C1028 C1029 1.377 . S
C1028 C1030 1.384 . S
C1029 C1028 1.377 . S
C1029 C1035 1.390 . S
C1030 H1021 0.930 . S
C1030 C1028 1.384 . S
C1030 C1031 1.372 . S
C1031 C1030 1.372 . S
C1031 C1032 1.400 . S
C1031 C1036 1.490 . S
C1032 H1022 0.930 . S
C1032 C1031 1.400 . S
C1032 C1035 1.386 . S
H1033 C1049 0.930 . S
H1034 C1050 0.931 1_545 S
C1035 H1023 0.929 . S
C1035 C1029 1.390 . S
C1035 C1032 1.386 . S
C1036 C1031 1.490 . S
C1036 C1038 1.395 . S
C1036 C1039 1.403 . S
H1037 C1043 0.930 . S
C1038 H1024 0.930 . S
C1038 C1036 1.395 . S
C1038 C1041 1.403 . S
C1039 C1036 1.403 . S
C1039 C1040 1.524 . S
C1039 C1043 1.400 . S
C1040 H1025 0.960 . S
C1040 H1026 0.960 . S
C1040 H1027 0.960 . S
C1040 C1039 1.524 . S
C1041 C1038 1.403 . S
C1041 C1042 1.392 . S
C1041 C1045 1.495 1_545 S
C1042 C1041 1.392 . S
C1042 C1043 1.385 . S
C1042 C1044 1.478 . S
C1043 H1037 0.930 . S
C1043 C1039 1.400 . S
C1043 C1042 1.385 . S
C1044 C1042 1.478 . S
C1044 C1046 1.381 1_545 S
C1044 C1050 1.383 1_545 S
C1045 C1041 1.495 1_565 S
C1045 H1051 0.959 . S
C1045 H1052 0.961 . S
C1045 H1053 0.960 . S
C1046 C1044 1.381 1_565 S
C1046 C1047 1.394 . S
C1046 H1054 0.930 . S
C1047 C1046 1.394 . S
C1047 C1048 1.383 . S
C1047 H1055 0.929 . S
C1048 C1047 1.383 . S
C1048 C1049 1.377 . S
C1049 H1033 0.930 . S
C1049 C1048 1.377 . S
C1049 C1050 1.379 . S
C1050 H1034 0.931 1_565 S
C1050 C1044 1.383 1_565 S
C1050 C1049 1.379 . S
H1051 C1045 0.959 . S
H1052 C1045 0.961 . S
H1053 C1045 0.960 . S
H1054 C1046 0.930 . S
H1055 C1047 0.929 . S
H1056 C1064 0.929 . S
H1057 C1066 0.930 . S
H1058 C1068 0.930 . S
H1059 C1071 0.929 . S
H1060 C1074 0.930 . S
H1061 C1076 0.960 . S
H1062 C1076 0.960 . S
H1063 C1076 0.960 . S
C1064 H1056 0.929 . S
C1064 C1065 1.377 . S
C1064 C1066 1.384 . S
C1065 C1064 1.377 . S
C1065 C1071 1.390 . S
C1066 H1057 0.930 . S
C1066 C1064 1.384 . S
C1066 C1067 1.372 . S
C1067 C1066 1.372 . S
C1067 C1068 1.400 . S
C1067 C1072 1.490 . S
C1068 H1058 0.930 . S
C1068 C1067 1.400 . S
C1068 C1071 1.386 . S
H1069 C1085 0.930 . S
H1070 C1086 0.931 . S
C1071 H1059 0.929 . S
C1071 C1065 1.390 . S
C1071 C1068 1.386 . S
C1072 C1067 1.490 . S
C1072 C1074 1.395 . S
C1072 C1075 1.403 . S
H1073 C1079 0.930 . S
C1074 H1060 0.930 . S
C1074 C1072 1.395 . S
C1074 C1077 1.403 . S
C1075 C1072 1.403 . S
C1075 C1076 1.524 . S
C1075 C1079 1.400 . S
C1076 H1061 0.960 . S
C1076 H1062 0.960 . S
C1076 H1063 0.960 . S
C1076 C1075 1.524 . S
C1077 C1074 1.403 . S
C1077 C1078 1.392 . S
C1077 C1081 1.495 . S
C1078 C1077 1.392 . S
C1078 C1079 1.385 . S
C1078 C1080 1.478 . S
C1079 H1073 0.930 . S
C1079 C1075 1.400 . S
C1079 C1078 1.385 . S
C1080 C1078 1.478 . S
C1080 C1082 1.381 . S
C1080 C1086 1.383 . S
C1081 C1077 1.495 . S
C1081 H1087 0.959 . S
C1081 H1088 0.961 . S
C1081 H1089 0.960 . S
C1082 C1080 1.381 . S
C1082 C1083 1.394 . S
C1082 H1090 0.930 . S
C1083 C1082 1.394 . S
C1083 C1084 1.383 . S
C1083 H1091 0.929 . S
C1084 C1083 1.383 . S
C1084 C1085 1.377 . S
C1085 H1069 0.930 . S
C1085 C1084 1.377 . S
C1085 C1086 1.379 . S
C1086 H1070 0.931 . S
C1086 C1080 1.383 . S
C1086 C1085 1.379 . S
H1087 C1081 0.959 . S
H1088 C1081 0.961 . S
H1089 C1081 0.960 . S
H1090 C1082 0.930 . S
H1091 C1083 0.929 . S
H1092 C1100 0.929 . S
H1093 C1102 0.930 . S
H1094 C1104 0.930 . S
H1095 C1107 0.929 . S
H1096 C1110 0.930 . S
H1097 C1112 0.960 . S
H1098 C1112 0.960 . S
H1099 C1112 0.960 . S
C1100 H1092 0.929 . S
C1100 C1101 1.377 . S
C1100 C1102 1.384 . S
C1101 C1100 1.377 . S
C1101 C1107 1.390 1_565 S
C1102 H1093 0.930 . S
C1102 C1100 1.384 . S
C1102 C1103 1.372 1_565 S
C1103 C1102 1.372 1_545 S
C1103 C1104 1.400 . S
C1103 C1108 1.490 . S
C1104 H1094 0.930 . S
C1104 C1103 1.400 . S
C1104 C1107 1.386 . S
H1105 C1121 0.930 . S
H1106 C1122 0.931 . S
C1107 H1095 0.929 . S
C1107 C1101 1.390 1_545 S
C1107 C1104 1.386 . S
C1108 C1103 1.490 . S
C1108 C1110 1.395 . S
C1108 C1111 1.403 . S
H1109 C1115 0.930 . S
C1110 H1096 0.930 . S
C1110 C1108 1.395 . S
C1110 C1113 1.403 . S
C1111 C1108 1.403 . S
C1111 C1112 1.524 . S
C1111 C1115 1.400 . S
C1112 H1097 0.960 . S
C1112 H1098 0.960 . S
C1112 H1099 0.960 . S
C1112 C1111 1.524 . S
C1113 C1110 1.403 . S
C1113 C1114 1.392 . S
C1113 C1117 1.495 . S
C1114 C1113 1.392 . S
C1114 C1115 1.385 . S
C1114 C1116 1.478 . S
C1115 H1109 0.930 . S
C1115 C1111 1.400 . S
C1115 C1114 1.385 . S
C1116 C1114 1.478 . S
C1116 C1118 1.381 . S
C1116 C1122 1.383 . S
C1117 C1113 1.495 . S
C1117 H1123 0.959 . S
C1117 H1124 0.961 . S
C1117 H1125 0.960 . S
C1118 C1116 1.381 . S
C1118 C1119 1.394 . S
C1118 H1126 0.930 . S
C1119 C1118 1.394 . S
C1119 C1120 1.383 . S
C1119 H1127 0.929 . S
C1120 C1119 1.383 . S
C1120 C1121 1.377 . S
C1121 H1105 0.930 . S
C1121 C1120 1.377 . S
C1121 C1122 1.379 . S
C1122 H1106 0.931 . S
C1122 C1116 1.383 . S
C1122 C1121 1.379 . S
H1123 C1117 0.959 . S
H1124 C1117 0.961 . S
H1125 C1117 0.960 . S
H1126 C1118 0.930 . S
H1127 C1119 0.929 . S
H1128 C1136 0.929 . S
H1129 C1138 0.930 . S
H1130 C1140 0.930 . S
H1131 C1143 0.929 . S
H1132 C1146 0.930 . S
H1133 C1148 0.999 . S
H1134 C1148 0.960 . S
H1135 C1148 0.960 . S
C1136 H1128 0.929 . S
C1136 C1137 1.377 . S
C1136 C1138 1.384 . S
C1137 C1136 1.377 . S
C1137 C1143 1.390 . S
C1138 H1129 0.930 . S
C1138 C1136 1.384 . S
C1138 C1139 1.372 . S
C1139 C1138 1.372 . S
C1139 C1140 1.400 . S
C1139 C1144 1.490 . S
C1140 H1130 0.930 . S
C1140 C1139 1.400 . S
C1140 C1143 1.386 . S
H1141 C1157 0.930 . S
H1142 C1158 0.931 . S
C1143 H1131 0.929 . S
C1143 C1137 1.390 . S
C1143 C1140 1.386 . S
C1144 C1139 1.490 . S
C1144 C1146 1.395 . S
C1144 C1147 1.403 . S
H1145 C1151 0.930 . S
C1146 H1132 0.930 . S
C1146 C1144 1.395 . S
C1146 C1149 1.403 1_554 S
C1147 C1144 1.403 . S
C1147 C1148 1.524 . S
C1147 C1151 1.400 1_554 S
C1148 H1133 0.999 . S
C1148 H1134 0.960 . S
C1148 H1135 0.960 . S
C1148 C1147 1.524 . S
C1149 C1146 1.403 1_556 S
C1149 C1150 1.392 . S
C1149 C1153 1.495 . S
C1150 C1149 1.392 . S
C1150 C1151 1.385 . S
C1150 C1152 1.478 . S
C1151 H1145 0.930 . S
C1151 C1147 1.400 1_556 S
C1151 C1150 1.385 . S
C1152 C1150 1.478 . S
C1152 C1154 1.381 . S
C1152 C1158 1.383 . S
C1153 C1149 1.495 . S
C1153 H1159 0.959 . S
C1153 H1160 0.961 . S
C1153 H1161 0.960 . S
C1154 C1152 1.381 . S
C1154 C1155 1.394 . S
C1154 H1162 0.930 . S
C1155 C1154 1.394 . S
C1155 C1156 1.383 . S
C1155 H1163 0.929 . S
C1156 C1155 1.383 . S
C1156 C1157 1.377 . S
C1157 H1141 0.930 . S
C1157 C1156 1.377 . S
C1157 C1158 1.379 . S
C1158 H1142 0.931 . S
C1158 C1152 1.383 . S
C1158 C1157 1.379 . S
H1159 C1153 0.959 . S
H1160 C1153 0.961 . S
H1161 C1153 0.960 . S
H1162 C1154 0.930 . S
H1163 C1155 0.929 . S
H1164 C1172 0.929 . S
H1165 C1174 0.930 . S
H1166 C1176 0.930 . S
H1167 C1179 0.929 . S
H1168 C1182 0.930 . S
H1169 C1184 0.960 . S
H1170 C1184 0.960 . S
H1171 C1184 0.960 . S
C1172 H1164 0.929 . S
C1172 C1173 1.377 1_565 S
C1172 C1174 1.384 . S
C1173 C1172 1.377 1_545 S
C1173 C1179 1.390 . S
C1174 H1165 0.930 . S
C1174 C1172 1.384 . S
C1174 C1175 1.372 . S
C1175 C1174 1.372 . S
C1175 C1176 1.400 1_565 S
C1175 C1180 1.490 . S
C1176 H1166 0.930 . S
C1176 C1175 1.400 1_545 S
C1176 C1179 1.386 . S
H1177 C1193 0.930 . S
H1178 C1194 0.931 . S
C1179 H1167 0.929 . S
C1179 C1173 1.390 . S
C1179 C1176 1.386 . S
C1180 C1175 1.490 . S
C1180 C1182 1.395 . S
C1180 C1183 1.403 . S
H1181 C1187 0.930 . S
C1182 H1168 0.930 . S
C1182 C1180 1.395 . S
C1182 C1185 1.403 . S
C1183 C1180 1.403 . S
C1183 C1184 1.524 1_565 S
C1183 C1187 1.400 . S
C1184 H1169 0.960 . S
C1184 H1170 0.960 . S
C1184 H1171 0.960 . S
C1184 C1183 1.524 1_545 S
C1185 C1182 1.403 . S
C1185 C1186 1.392 . S
C1185 C1189 1.495 . S
C1186 C1185 1.392 . S
C1186 C1187 1.385 . S
C1186 C1188 1.478 . S
C1187 H1181 0.930 . S
C1187 C1183 1.400 . S
C1187 C1186 1.385 . S
C1188 C1186 1.478 . S
C1188 C1190 1.381 . S
C1188 C1194 1.383 . S
C1189 C1185 1.495 . S
C1189 H1195 0.959 . S
C1189 H1196 0.961 . S
C1189 H1197 0.960 . S
C1190 C1188 1.381 . S
C1190 C1191 1.394 . S
C1190 H1198 0.930 . S
C1191 C1190 1.394 . S
C1191 C1192 1.383 . S
C1191 H1199 0.929 . S
C1192 C1191 1.383 . S
C1192 C1193 1.377 . S
C1193 H1177 0.930 . S
C1193 C1192 1.377 . S
C1193 C1194 1.379 . S
C1194 H1178 0.931 . S
C1194 C1188 1.383 . S
C1194 C1193 1.379 . S
H1195 C1189 0.959 . S
H1196 C1189 0.961 . S
H1197 C1189 0.960 . S
H1198 C1190 0.930 . S
H1199 C1191 0.929 . S
H1200 C1208 0.929 . S
H1201 C1210 0.930 . S
H1202 C1212 0.930 . S
H1203 C1215 0.929 . S
H1204 C1218 0.930 . S
H1205 C1220 0.960 . S
H1206 C1220 0.960 . S
H1207 C1220 0.960 . S
C1208 H1200 0.929 . S
C1208 C1209 1.377 . S
C1208 C1210 1.384 . S
C1209 C1208 1.377 . S
C1209 C1215 1.390 . S
C1210 H1201 0.930 . S
C1210 C1208 1.384 . S
C1210 C1211 1.372 . S
C1211 C1210 1.372 . S
C1211 C1212 1.400 . S
C1211 C1216 1.490 . S
C1212 H1202 0.930 . S
C1212 C1211 1.400 . S
C1212 C1215 1.386 . S
H1213 C1229 0.930 . S
H1214 C1230 0.931 . S
C1215 H1203 0.929 . S
C1215 C1209 1.390 . S
C1215 C1212 1.386 . S
C1216 C1211 1.490 . S
C1216 C1218 1.395 . S
C1216 C1219 1.403 . S
H1217 C1223 0.930 . S
C1218 H1204 0.930 . S
C1218 C1216 1.395 . S
C1218 C1221 1.403 . S
C1219 C1216 1.403 . S
C1219 C1220 1.524 . S
C1219 C1223 1.400 . S
C1220 H1205 0.960 . S
C1220 H1206 0.960 . S
C1220 H1207 0.960 . S
C1220 C1219 1.524 . S
C1221 C1218 1.403 . S
C1221 C1222 1.392 . S
C1221 C1225 1.495 . S
C1222 C1221 1.392 . S
C1222 C1223 1.385 . S
C1222 C1224 1.478 . S
C1223 H1217 0.930 . S
C1223 C1219 1.400 . S
C1223 C1222 1.385 . S
C1224 C1222 1.478 . S
C1224 C1226 1.381 . S
C1224 C1230 1.383 . S
C1225 C1221 1.495 . S
C1225 H1231 0.959 . S
C1225 H1232 0.961 . S
C1225 H1233 0.960 . S
C1226 C1224 1.381 . S
C1226 C1227 1.394 . S
C1226 H1234 0.930 . S
C1227 C1226 1.394 . S
C1227 C1228 1.383 . S
C1227 H1235 0.929 . S
C1228 C1227 1.383 . S
C1228 C1229 1.377 . S
C1229 H1213 0.930 . S
C1229 C1228 1.377 . S
C1229 C1230 1.379 . S
C1230 H1214 0.931 . S
C1230 C1224 1.383 . S
C1230 C1229 1.379 . S
H1231 C1225 0.959 . S
H1232 C1225 0.961 . S
H1233 C1225 0.960 . S
H1234 C1226 0.930 . S
H1235 C1227 0.929 . S
H1236 C1244 0.929 . S
H1237 C1246 0.930 . S
H1238 C1248 0.930 . S
H1239 C1251 0.929 . S
H1240 C1254 0.930 . S
H1241 C1256 0.960 . S
H1242 C1256 0.960 . S
H1243 C1256 0.960 . S
C1244 H1236 0.929 . S
C1244 C1245 1.377 . S
C1244 C1246 1.384 . S
C1245 C1244 1.377 . S
C1245 C1251 1.390 . S
C1246 H1237 0.930 . S
C1246 C1244 1.384 . S
C1246 C1247 1.372 . S
C1247 C1246 1.372 . S
C1247 C1248 1.400 . S
C1247 C1252 1.490 . S
C1248 H1238 0.930 . S
C1248 C1247 1.400 . S
C1248 C1251 1.386 . S
H1249 C1265 0.930 . S
H1250 C1266 0.931 . S
C1251 H1239 0.929 . S
C1251 C1245 1.390 . S
C1251 C1248 1.386 . S
C1252 C1247 1.490 . S
C1252 C1254 1.395 . S
C1252 C1255 1.403 . S
H1253 C1259 0.930 . S
C1254 H1240 0.930 . S
C1254 C1252 1.395 . S
C1254 C1257 1.403 . S
C1255 C1252 1.403 . S
C1255 C1256 1.524 . S
C1255 C1259 1.400 . S
C1256 H1241 0.960 . S
C1256 H1242 0.960 . S
C1256 H1243 0.960 . S
C1256 C1255 1.524 . S
C1257 C1254 1.403 . S
C1257 C1258 1.392 . S
C1257 C1261 1.495 . S
C1258 C1257 1.392 . S
C1258 C1259 1.385 . S
C1258 C1260 1.478 . S
C1259 H1253 0.930 . S
C1259 C1255 1.400 . S
C1259 C1258 1.385 . S
C1260 C1258 1.478 . S
C1260 C1262 1.381 . S
C1260 C1266 1.383 . S
C1261 C1257 1.495 . S
C1261 H1267 0.959 . S
C1261 H1268 0.961 . S
C1261 H1269 0.960 . S
C1262 C1260 1.381 . S
C1262 C1263 1.394 . S
C1262 H1270 0.930 . S
C1263 C1262 1.394 . S
C1263 C1264 1.383 . S
C1263 H1271 0.929 . S
C1264 C1263 1.383 . S
C1264 C1265 1.377 . S
C1265 H1249 0.930 . S
C1265 C1264 1.377 . S
C1265 C1266 1.379 . S
C1266 H1250 0.931 . S
C1266 C1260 1.383 . S
C1266 C1265 1.379 . S
H1267 C1261 0.959 . S
H1268 C1261 0.961 . S
H1269 C1261 0.960 . S
H1270 C1262 0.930 . S
H1271 C1263 0.929 . S
H1272 C1280 0.929 . S
H1273 C1282 0.930 . S
H1274 C1284 0.930 . S
H1275 C1287 0.929 . S
H1276 C1290 0.930 . S
H1277 C1292 0.960 1_455 S
H1278 C1292 0.960 . S
H1279 C1292 0.960 . S
C1280 H1272 0.929 . S
C1280 C1281 1.377 . S
C1280 C1282 1.384 . S
C1281 C1280 1.377 . S
C1281 C1287 1.390 . S
C1282 H1273 0.930 . S
C1282 C1280 1.384 . S
C1282 C1283 1.372 . S
C1283 C1282 1.372 . S
C1283 C1284 1.400 . S
C1283 C1288 1.490 . S
C1284 H1274 0.930 . S
C1284 C1283 1.400 . S
C1284 C1287 1.386 . S
H1285 C1301 0.930 . S
H1286 C1302 0.931 . S
C1287 H1275 0.929 . S
C1287 C1281 1.390 . S
C1287 C1284 1.386 . S
C1288 C1283 1.490 . S
C1288 C1290 1.395 . S
C1288 C1291 1.403 . S
H1289 C1295 0.930 . S
C1290 H1276 0.930 . S
C1290 C1288 1.395 . S
C1290 C1293 1.386 1_655 S
C1291 C1288 1.403 . S
C1291 C1292 1.524 . S
C1291 C1295 1.400 1_655 S
C1292 H1277 0.960 1_655 S
C1292 H1278 0.960 . S
C1292 H1279 0.960 . S
C1292 C1291 1.524 . S
C1293 C1290 1.386 1_455 S
C1293 C1294 1.409 . S
C1293 C1297 1.496 . S
C1294 C1293 1.409 . S
C1294 C1295 1.385 . S
C1294 C1296 1.478 . S
C1295 H1289 0.930 . S
C1295 C1291 1.400 1_455 S
C1295 C1294 1.385 . S
C1296 C1294 1.478 . S
C1296 C1298 1.381 . S
C1296 C1302 1.383 . S
C1297 C1293 1.496 . S
C1297 H1303 0.959 1_455 S
C1297 H1304 0.961 . S
C1297 H1305 0.960 . S
C1298 C1296 1.381 . S
C1298 C1299 1.394 . S
C1298 H1306 0.930 . S
C1299 C1298 1.394 . S
C1299 C1300 1.383 . S
C1299 H1307 0.929 . S
C1300 C1299 1.383 . S
C1300 C1301 1.377 . S
C1301 H1285 0.930 . S
C1301 C1300 1.377 . S
C1301 C1302 1.379 . S
C1302 H1286 0.931 . S
C1302 C1296 1.383 . S
C1302 C1301 1.379 . S
H1303 C1297 0.959 1_655 S
H1304 C1297 0.961 . S
H1305 C1297 0.960 . S
H1306 C1298 0.930 . S
H1307 C1299 0.929 . S
H1308 C1316 0.929 . S
H1309 C1318 0.930 1_455 S
H1310 C1320 0.930 . S
H1311 C1323 0.929 . S
H1312 C1326 0.930 . S
H1313 C1328 0.960 . S
H1314 C1328 0.960 . S
H1315 C1328 0.960 . S
C1316 H1308 0.929 . S
C1316 C1317 1.377 . S
C1316 C1318 1.384 . S
C1317 C1316 1.377 . S
C1317 C1323 1.390 . S
C1318 H1309 0.930 1_655 S
C1318 C1316 1.384 . S
C1318 C1319 1.372 . S
C1319 C1318 1.372 . S
C1319 C1320 1.400 . S
C1319 C1324 1.490 . S
C1320 H1310 0.930 . S
C1320 C1319 1.400 . S
C1320 C1323 1.386 . S
H1321 C1337 0.930 . S
H1322 C1338 0.931 1_655 S
C1323 H1311 0.929 . S
C1323 C1317 1.390 . S
C1323 C1320 1.386 . S
C1324 C1319 1.490 . S
C1324 C1326 1.395 1_655 S
C1324 C1327 1.403 . S
H1325 C1331 0.930 . S
C1326 H1312 0.930 . S
C1326 C1324 1.395 1_455 S
C1326 C1329 1.403 . S
C1327 C1324 1.403 . S
C1327 C1328 1.524 . S
C1327 C1331 1.400 . S
C1328 H1313 0.960 . S
C1328 H1314 0.960 . S
C1328 H1315 0.960 . S
C1328 C1327 1.524 . S
C1329 C1326 1.403 . S
C1329 C1330 1.392 . S
C1329 C1333 1.495 . S
C1330 C1329 1.392 . S
C1330 C1331 1.385 1_455 S
C1330 C1332 1.478 . S
C1331 H1325 0.930 . S
C1331 C1327 1.400 . S
C1331 C1330 1.385 1_655 S
C1332 C1330 1.478 . S
C1332 C1334 1.381 . S
C1332 C1338 1.383 . S
C1333 C1329 1.495 . S
C1333 H1339 0.959 . S
C1333 H1340 0.961 . S
C1333 H1341 0.960 . S
C1334 C1332 1.381 . S
C1334 C1335 1.394 . S
C1334 H1342 0.930 . S
C1335 C1334 1.394 . S
C1335 C1336 1.383 . S
C1335 H1343 0.929 . S
C1336 C1335 1.383 . S
C1336 C1337 1.377 . S
C1337 H1321 0.930 . S
C1337 C1336 1.377 . S
C1337 C1338 1.379 . S
C1338 H1322 0.931 1_455 S
C1338 C1332 1.383 . S
C1338 C1337 1.379 . S
H1339 C1333 0.959 . S
H1340 C1333 0.961 . S
H1341 C1333 0.960 . S
H1342 C1334 0.930 . S
H1343 C1335 0.929 . S
H1344 C1352 0.929 . S
H1345 C1354 0.930 . S
H1346 C1356 0.930 . S
H1347 C1359 0.929 . S
H1348 C1362 0.930 . S
H1349 C1364 0.960 . S
H1350 C1364 0.960 . S
H1351 C1364 0.960 . S
C1352 H1344 0.929 . S
C1352 C1353 1.377 . S
C1352 C1354 1.384 . S
C1353 C1352 1.377 . S
C1353 C1359 1.390 . S
C1354 H1345 0.930 . S
C1354 C1352 1.384 . S
C1354 C1355 1.372 . S
C1355 C1354 1.372 . S
C1355 C1356 1.400 . S
C1355 C1360 1.490 . S
C1356 H1346 0.930 . S
C1356 C1355 1.400 . S
C1356 C1359 1.386 . S
H1357 C1373 0.930 . S
H1358 C1374 0.931 . S
C1359 H1347 0.929 . S
C1359 C1353 1.390 . S
C1359 C1356 1.386 . S
C1360 C1355 1.490 . S
C1360 C1362 1.395 . S
C1360 C1363 1.403 . S
H1361 C1367 0.930 . S
C1362 H1348 0.930 . S
C1362 C1360 1.395 . S
C1362 C1365 1.403 . S
C1363 C1360 1.403 . S
C1363 C1364 1.524 . S
C1363 C1367 1.400 . S
C1364 H1349 0.960 . S
C1364 H1350 0.960 . S
C1364 H1351 0.960 . S
C1364 C1363 1.524 . S
C1365 C1362 1.403 . S
C1365 C1366 1.392 . S
C1365 C1369 1.495 . S
C1366 C1365 1.392 . S
C1366 C1367 1.385 . S
C1366 C1368 1.478 . S
C1367 H1361 0.930 . S
C1367 C1363 1.400 . S
C1367 C1366 1.385 . S
C1368 C1366 1.478 . S
C1368 C1370 1.381 . S
C1368 C1374 1.383 . S
C1369 C1365 1.495 . S
C1369 H1375 0.959 . S
C1369 H1376 0.961 . S
C1369 H1377 0.960 . S
C1370 C1368 1.381 . S
C1370 C1371 1.394 . S
C1370 H1378 0.930 . S
C1371 C1370 1.394 . S
C1371 C1372 1.383 . S
C1371 H1379 0.929 . S
C1372 C1371 1.383 . S
C1372 C1373 1.377 . S
C1373 H1357 0.930 . S
C1373 C1372 1.377 . S
C1373 C1374 1.379 . S
C1374 H1358 0.931 . S
C1374 C1368 1.383 . S
C1374 C1373 1.379 . S
H1375 C1369 0.959 . S
H1376 C1369 0.961 . S
H1377 C1369 0.960 . S
H1378 C1370 0.930 . S
H1379 C1371 0.929 . S
H1380 C1388 0.929 . S
H1381 C1390 0.930 . S
H1382 C1392 0.930 . S
H1383 C1395 0.929 . S
H1384 C1398 0.930 . S
H1385 C1400 0.960 . S
H1386 C1400 0.960 . S
H1387 C1400 0.960 . S
C1388 H1380 0.929 . S
C1388 C1389 1.377 . S
C1388 C1390 1.384 . S
C1389 C1388 1.377 . S
C1389 C1395 1.390 . S
C1390 H1381 0.930 . S
C1390 C1388 1.384 . S
C1390 C1391 1.372 . S
C1391 C1390 1.372 . S
C1391 C1392 1.400 . S
C1391 C1396 1.490 . S
C1392 H1382 0.930 . S
C1392 C1391 1.400 . S
C1392 C1395 1.386 . S
H1393 C1409 0.930 . S
H1394 C1410 0.931 . S
C1395 H1383 0.929 . S
C1395 C1389 1.390 . S
C1395 C1392 1.386 . S
C1396 C1391 1.490 . S
C1396 C1398 1.395 . S
C1396 C1399 1.403 . S
H1397 C1403 0.930 . S
C1398 H1384 0.930 . S
C1398 C1396 1.395 . S
C1398 C1401 1.403 . S
C1399 C1396 1.403 . S
C1399 C1400 1.524 . S
C1399 C1403 1.400 . S
C1400 H1385 0.960 . S
C1400 H1386 0.960 . S
C1400 H1387 0.960 . S
C1400 C1399 1.524 . S
C1401 C1398 1.403 . S
C1401 C1402 1.392 . S
C1401 C1405 1.495 . S
C1402 C1401 1.392 . S
C1402 C1403 1.385 . S
C1402 C1404 1.478 . S
C1403 H1397 0.930 . S
C1403 C1399 1.400 . S
C1403 C1402 1.385 . S
C1404 C1402 1.478 . S
C1404 C1406 1.381 . S
C1404 C1410 1.383 . S
C1405 C1401 1.495 . S
C1405 H1411 0.959 . S
C1405 H1412 0.961 . S
C1405 H1413 0.960 . S
C1406 C1404 1.381 . S
C1406 C1407 1.394 . S
C1406 H1414 0.930 . S
C1407 C1406 1.394 . S
C1407 C1408 1.383 . S
C1407 H1415 0.929 . S
C1408 C1407 1.383 . S
C1408 C1409 1.377 . S
C1409 H1393 0.930 . S
C1409 C1408 1.377 . S
C1409 C1410 1.379 . S
C1410 H1394 0.931 . S
C1410 C1404 1.383 . S
C1410 C1409 1.379 . S
H1411 C1405 0.959 . S
H1412 C1405 0.961 . S
H1413 C1405 0.960 . S
H1414 C1406 0.930 . S
H1415 C1407 0.929 . S
H1416 C1424 0.929 . S
H1417 C1426 0.930 . S
H1418 C1428 0.930 . S
H1419 C1431 0.929 . S
H1420 C1434 0.930 . S
H1421 C1436 0.960 . S
H1422 C1436 0.960 . S
H1423 C1436 0.960 . S
C1424 H1416 0.929 . S
C1424 C1425 1.377 . S
C1424 C1426 1.384 . S
C1425 C1424 1.377 . S
C1425 C1431 1.390 . S
C1426 H1417 0.930 . S
C1426 C1424 1.384 . S
C1426 C1427 1.372 . S
C1427 C1426 1.372 . S
C1427 C1428 1.400 . S
C1427 C1432 1.490 . S
C1428 H1418 0.930 . S
C1428 C1427 1.400 . S
C1428 C1431 1.386 . S
H1429 C1445 0.930 . S
H1430 C1446 0.931 . S
C1431 H1419 0.929 . S
C1431 C1425 1.390 . S
C1431 C1428 1.386 . S
C1432 C1427 1.490 . S
C1432 C1434 1.395 . S
C1432 C1435 1.403 . S
H1433 C1439 0.930 . S
C1434 H1420 0.930 . S
C1434 C1432 1.395 . S
C1434 C1437 1.403 1_455 S
C1435 C1432 1.403 . S
C1435 C1436 1.524 . S
C1435 C1439 1.400 1_455 S
C1436 H1421 0.960 . S
C1436 H1422 0.960 . S
C1436 H1423 0.960 . S
C1436 C1435 1.524 . S
C1437 C1434 1.403 1_655 S
C1437 C1438 1.392 . S
C1437 C1441 1.495 . S
C1438 C1437 1.392 . S
C1438 C1439 1.385 . S
C1438 C1440 1.478 . S
C1439 H1433 0.930 . S
C1439 C1435 1.400 1_655 S
C1439 C1438 1.385 . S
C1440 C1438 1.478 . S
C1440 C1442 1.381 . S
C1440 C1446 1.383 . S
C1441 C1437 1.495 . S
C1441 H1447 0.959 . S
C1441 H1448 0.961 . S
C1441 H1449 0.960 . S
C1442 C1440 1.381 . S
C1442 C1443 1.394 . S
C1442 H1450 0.930 . S
C1443 C1442 1.394 . S
C1443 C1444 1.383 . S
C1443 H1451 0.929 . S
C1444 C1443 1.383 . S
C1444 C1445 1.377 . S
C1445 H1429 0.930 . S
C1445 C1444 1.377 . S
C1445 C1446 1.379 . S
C1446 H1430 0.931 . S
C1446 C1440 1.383 . S
C1446 C1445 1.379 . S
H1447 C1441 0.959 . S
H1448 C1441 0.961 . S
H1449 C1441 0.960 . S
H1450 C1442 0.930 . S
H1451 C1443 0.929 . S
H1452 C1460 0.929 . S
H1453 C1462 0.930 . S
H1454 C1464 0.930 . S
H1455 C1467 0.929 . S
H1456 C1470 0.930 . S
H1457 C1472 0.960 . S
H1458 C1472 0.960 . S
H1459 C1472 0.960 . S
C1460 H1452 0.929 . S
C1460 C1461 1.377 . S
C1460 C1462 1.384 . S
C1461 C1460 1.377 . S
C1461 C1467 1.390 . S
C1462 H1453 0.930 . S
C1462 C1460 1.384 . S
C1462 C1463 1.372 . S
C1463 C1462 1.372 . S
C1463 C1464 1.400 . S
C1463 C1468 1.490 . S
C1464 H1454 0.930 . S
C1464 C1463 1.400 . S
C1464 C1467 1.386 . S
H1465 C1481 0.930 . S
H1466 C1482 0.931 . S
C1467 H1455 0.929 . S
C1467 C1461 1.390 . S
C1467 C1464 1.386 . S
C1468 C1463 1.490 . S
C1468 C1470 1.395 1_455 S
C1468 C1471 1.403 . S
H1469 C1475 0.930 . S
C1470 H1456 0.930 . S
C1470 C1468 1.395 1_655 S
C1470 C1473 1.403 . S
C1471 C1468 1.403 . S
C1471 C1472 1.524 . S
C1471 C1475 1.400 . S
C1472 H1457 0.960 . S
C1472 H1458 0.960 . S
C1472 H1459 0.960 . S
C1472 C1471 1.524 . S
C1473 C1470 1.403 . S
C1473 C1474 1.392 . S
C1473 C1477 1.495 . S
C1474 C1473 1.392 . S
C1474 C1475 1.385 1_655 S
C1474 C1476 1.478 . S
C1475 H1469 0.930 . S
C1475 C1471 1.400 . S
C1475 C1474 1.385 1_455 S
C1476 C1474 1.478 . S
C1476 C1478 1.381 . S
C1476 C1482 1.383 . S
C1477 C1473 1.495 . S
C1477 H1483 0.959 . S
C1477 H1484 0.961 . S
C1477 H1485 0.960 . S
C1478 C1476 1.381 . S
C1478 C1479 1.394 . S
C1478 H1486 0.930 . S
C1479 C1478 1.394 . S
C1479 C1480 1.383 . S
C1479 H1487 0.929 . S
C1480 C1479 1.383 . S
C1480 C1481 1.377 . S
C1481 H1465 0.930 . S
C1481 C1480 1.377 . S
C1481 C1482 1.379 . S
C1482 H1466 0.931 . S
C1482 C1476 1.383 . S
C1482 C1481 1.379 . S
H1483 C1477 0.959 . S
H1484 C1477 0.961 . S
H1485 C1477 0.960 . S
H1486 C1478 0.930 . S
H1487 C1479 0.929 . S
H1488 C1496 0.929 . S
H1489 C1498 0.930 . S
H1490 C1500 0.930 . S
H1491 C1503 0.929 . S
H1492 C1506 0.930 . S
H1493 C1508 0.960 . S
H1494 C1508 0.960 . S
H1495 C1508 0.960 . S
C1496 H1488 0.929 . S
C1496 C1497 1.377 . S
C1496 C1498 1.384 . S
C1497 C1496 1.377 . S
C1497 C1503 1.390 . S
C1498 H1489 0.930 . S
C1498 C1496 1.384 . S
C1498 C1499 1.372 . S
C1499 C1498 1.372 . S
C1499 C1500 1.400 . S
C1499 C1504 1.490 . S
C1500 H1490 0.930 . S
C1500 C1499 1.400 . S
C1500 C1503 1.386 . S
H1501 C1517 0.930 . S
H1502 C1518 0.931 . S
C1503 H1491 0.929 . S
C1503 C1497 1.390 . S
C1503 C1500 1.386 . S
C1504 C1499 1.490 . S
C1504 C1506 1.395 . S
C1504 C1507 1.403 . S
H1505 C1511 0.930 . S
C1506 H1492 0.930 . S
C1506 C1504 1.395 . S
C1506 C1509 1.403 . S
C1507 C1504 1.403 . S
C1507 C1508 1.524 . S
C1507 C1511 1.400 . S
C1508 H1493 0.960 . S
C1508 H1494 0.960 . S
C1508 H1495 0.960 . S
C1508 C1507 1.524 . S
C1509 C1506 1.403 . S
C1509 C1510 1.392 . S
C1509 C1513 1.495 . S
C1510 C1509 1.392 . S
C1510 C1511 1.385 . S
C1510 C1512 1.478 . S
C1511 H1505 0.930 . S
C1511 C1507 1.400 . S
C1511 C1510 1.385 . S
C1512 C1510 1.478 . S
C1512 C1514 1.381 . S
C1512 C1518 1.383 . S
C1513 C1509 1.495 . S
C1513 H1519 0.959 . S
C1513 H1520 0.961 . S
C1513 H1521 0.960 . S
C1514 C1512 1.381 . S
C1514 C1515 1.394 . S
C1514 H1522 0.930 . S
C1515 C1514 1.394 . S
C1515 C1516 1.383 . S
C1515 H1523 0.929 . S
C1516 C1515 1.383 . S
C1516 C1517 1.377 . S
C1517 H1501 0.930 . S
C1517 C1516 1.377 . S
C1517 C1518 1.379 . S
C1518 H1502 0.931 . S
C1518 C1512 1.383 . S
C1518 C1517 1.379 . S
H1519 C1513 0.959 . S
H1520 C1513 0.961 . S
H1521 C1513 0.960 . S
H1522 C1514 0.930 . S
H1523 C1515 0.929 . S
H1524 C1532 0.929 . S
H1525 C1534 0.930 . S
H1526 C1536 0.930 . S
H1527 C1539 0.929 . S
H1528 C1542 0.930 . S
H1529 C1544 0.960 . S
H1530 C1544 0.960 . S
H1531 C1544 0.960 . S
C1532 H1524 0.929 . S
C1532 C1533 1.377 . S
C1532 C1534 1.384 . S
C1533 C1532 1.377 . S
C1533 C1539 1.390 . S
C1534 H1525 0.930 . S
C1534 C1532 1.384 . S
C1534 C1535 1.372 . S
C1535 C1534 1.372 . S
C1535 C1536 1.400 . S
C1535 C1540 1.490 . S
C1536 H1526 0.930 . S
C1536 C1535 1.400 . S
C1536 C1539 1.386 . S
H1537 C1553 0.930 . S
H1538 C1554 0.931 . S
C1539 H1527 0.929 . S
C1539 C1533 1.390 . S
C1539 C1536 1.386 . S
C1540 C1535 1.490 . S
C1540 C1542 1.395 . S
C1540 C1543 1.403 . S
H1541 C1547 0.930 . S
C1542 H1528 0.930 . S
C1542 C1540 1.395 . S
C1542 C1545 1.403 . S
C1543 C1540 1.403 . S
C1543 C1544 1.524 . S
C1543 C1547 1.400 . S
C1544 H1529 0.960 . S
C1544 H1530 0.960 . S
C1544 H1531 0.960 . S
C1544 C1543 1.524 . S
C1545 C1542 1.403 . S
C1545 C1546 1.392 . S
C1545 C1549 1.495 . S
C1546 C1545 1.392 . S
C1546 C1547 1.385 . S
C1546 C1548 1.478 . S
C1547 H1541 0.930 . S
C1547 C1543 1.400 . S
C1547 C1546 1.385 . S
C1548 C1546 1.478 . S
C1548 C1550 1.381 . S
C1548 C1554 1.383 . S
C1549 C1545 1.495 . S
C1549 H1555 0.959 . S
C1549 H1556 0.961 . S
C1549 H1557 0.960 . S
C1550 C1548 1.381 . S
C1550 C1551 1.394 . S
C1550 H1558 0.930 . S
C1551 C1550 1.394 . S
C1551 C1552 1.383 . S
C1551 H1559 0.929 . S
C1552 C1551 1.383 . S
C1552 C1553 1.377 . S
C1553 H1537 0.930 . S
C1553 C1552 1.377 . S
C1553 C1554 1.379 . S
C1554 H1538 0.931 . S
C1554 C1548 1.383 . S
C1554 C1553 1.379 . S
H1555 C1549 0.959 . S
H1556 C1549 0.961 . S
H1557 C1549 0.960 . S
H1558 C1550 0.930 . S
H1559 C1551 0.929 . S
H1560 C1568 0.929 . S
H1561 C1570 0.930 . S
H1562 C1572 0.930 . S
H1563 C1575 0.929 . S
H1564 C1578 0.930 . S
H1565 C1580 0.960 . S
H1566 C1580 0.960 . S
H1567 C1580 0.960 . S
C1568 H1560 0.929 . S
C1568 C1569 1.377 . S
C1568 C1570 1.384 . S
C1569 C1568 1.377 . S
C1569 C1575 1.390 . S
C1570 H1561 0.930 . S
C1570 C1568 1.384 . S
C1570 C1571 1.372 . S
C1571 C1570 1.372 . S
C1571 C1572 1.400 . S
C1571 C1576 1.490 . S
C1572 H1562 0.930 . S
C1572 C1571 1.400 . S
C1572 C1575 1.386 . S
H1573 C1589 0.930 . S
H1574 C1590 0.931 . S
C1575 H1563 0.929 . S
C1575 C1569 1.390 . S
C1575 C1572 1.386 . S
C1576 C1571 1.490 . S
C1576 C1578 1.395 . S
C1576 C1579 1.403 . S
H1577 C1583 0.930 . S
C1578 H1564 0.930 . S
C1578 C1576 1.395 . S
C1578 C1581 1.403 . S
C1579 C1576 1.403 . S
C1579 C1580 1.524 . S
C1579 C1583 1.400 . S
C1580 H1565 0.960 . S
C1580 H1566 0.960 . S
C1580 H1567 0.960 . S
C1580 C1579 1.524 . S
C1581 C1578 1.403 . S
C1581 C1582 1.392 . S
C1581 C1585 1.495 . S
C1582 C1581 1.392 . S
C1582 C1583 1.385 . S
C1582 C1584 1.478 . S
C1583 H1577 0.930 . S
C1583 C1579 1.400 . S
C1583 C1582 1.385 . S
C1584 C1582 1.478 . S
C1584 C1586 1.381 . S
C1584 C1590 1.383 . S
C1585 C1581 1.495 . S
C1585 H1591 0.959 . S
C1585 H1592 0.961 . S
C1585 H1593 0.960 . S
C1586 C1584 1.381 . S
C1586 C1587 1.394 . S
C1586 H1594 0.930 . S
C1587 C1586 1.394 . S
C1587 C1588 1.383 . S
C1587 H1595 0.929 . S
C1588 C1587 1.383 . S
C1588 C1589 1.377 . S
C1589 H1573 0.930 . S
C1589 C1588 1.377 . S
C1589 C1590 1.379 . S
C1590 H1574 0.931 . S
C1590 C1584 1.383 . S
C1590 C1589 1.379 . S
H1591 C1585 0.959 . S
H1592 C1585 0.961 . S
H1593 C1585 0.960 . S
H1594 C1586 0.930 . S
H1595 C1587 0.929 . S
H1596 C1604 0.929 . S
H1597 C1606 0.930 . S
H1598 C1608 0.930 . S
H1599 C1611 0.938 . S
H1600 C1614 0.930 . S
H1601 C1616 0.960 . S
H1602 C1616 0.960 . S
H1603 C1616 0.960 . S
C1604 H1596 0.929 . S
C1604 C1605 1.377 . S
C1604 C1606 1.384 1_655 S
C1605 C1604 1.377 . S
C1605 C1611 1.390 1_655 S
C1606 H1597 0.930 . S
C1606 C1604 1.384 1_455 S
C1606 C1607 1.372 . S
C1607 C1606 1.372 . S
C1607 C1608 1.400 . S
C1607 C1612 1.490 . S
C1608 H1598 0.930 . S
C1608 C1607 1.400 . S
C1608 C1611 1.386 . S
H1609 C1625 0.930 . S
H1610 C1626 0.931 . S
C1611 H1599 0.938 . S
C1611 C1605 1.390 1_455 S
C1611 C1608 1.386 . S
C1612 C1607 1.490 . S
C1612 C1614 1.395 . S
C1612 C1615 1.403 . S
H1613 C1619 0.930 . S
C1614 H1600 0.930 . S
C1614 C1612 1.395 . S
C1614 C1617 1.403 . S
C1615 C1612 1.403 . S
C1615 C1616 1.524 . S
C1615 C1619 1.400 . S
C1616 H1601 0.960 . S
C1616 H1602 0.960 . S
C1616 H1603 0.960 . S
C1616 C1615 1.524 . S
C1617 C1614 1.403 . S
C1617 C1618 1.392 . S
C1617 C1621 1.495 . S
C1618 C1617 1.392 . S
C1618 C1619 1.385 . S
C1618 C1620 1.478 . S
C1619 H1613 0.930 . S
C1619 C1615 1.400 . S
C1619 C1618 1.385 . S
C1620 C1618 1.478 . S
C1620 C1622 1.381 . S
C1620 C1626 1.383 . S
C1621 C1617 1.495 . S
C1621 H1627 0.959 . S
C1621 H1628 0.961 . S
C1621 H1629 0.960 . S
C1622 C1620 1.381 . S
C1622 C1623 1.394 . S
C1622 H1630 0.930 . S
C1623 C1622 1.394 . S
C1623 C1624 1.383 . S
C1623 H1631 0.929 . S
C1624 C1623 1.383 . S
C1624 C1625 1.377 . S
C1625 H1609 0.930 . S
C1625 C1624 1.377 . S
C1625 C1626 1.379 . S
C1626 H1610 0.931 . S
C1626 C1620 1.383 . S
C1626 C1625 1.379 . S
H1627 C1621 0.959 . S
H1628 C1621 0.961 . S
H1629 C1621 0.960 . S
H1630 C1622 0.930 . S
H1631 C1623 0.929 . S
H1632 C1640 0.929 . S
H1633 C1642 0.930 . S
H1634 C1644 0.930 . S
H1635 C1647 0.929 . S
H1636 C1650 0.930 . S
H1637 C1652 0.960 . S
H1638 C1652 0.960 . S
H1639 C1652 0.960 . S
C1640 H1632 0.929 . S
C1640 C1641 1.377 . S
C1640 C1642 1.384 . S
C1641 C1640 1.377 . S
C1641 C1647 1.390 . S
C1642 H1633 0.930 . S
C1642 C1640 1.384 . S
C1642 C1643 1.372 . S
C1643 C1642 1.372 . S
C1643 C1644 1.400 . S
C1643 C1648 1.490 . S
C1644 H1634 0.930 . S
C1644 C1643 1.400 . S
C1644 C1647 1.386 . S
H1645 C1661 0.930 . S
H1646 C1662 0.931 . S
C1647 H1635 0.929 . S
C1647 C1641 1.390 . S
C1647 C1644 1.386 . S
C1648 C1643 1.490 . S
C1648 C1650 1.395 . S
C1648 C1651 1.403 . S
H1649 C1655 0.930 . S
C1650 H1636 0.930 . S
C1650 C1648 1.395 . S
C1650 C1653 1.403 . S
C1651 C1648 1.403 . S
C1651 C1652 1.524 . S
C1651 C1655 1.400 . S
C1652 H1637 0.960 . S
C1652 H1638 0.960 . S
C1652 H1639 0.960 . S
C1652 C1651 1.524 . S
C1653 C1650 1.403 . S
C1653 C1654 1.392 . S
C1653 C1657 1.495 . S
C1654 C1653 1.392 . S
C1654 C1655 1.385 . S
C1654 C1656 1.478 . S
C1655 H1649 0.930 . S
C1655 C1651 1.400 . S
C1655 C1654 1.385 . S
C1656 C1654 1.478 . S
C1656 C1658 1.381 . S
C1656 C1662 1.383 . S
C1657 C1653 1.495 . S
C1657 H1663 0.959 . S
C1657 H1664 0.961 . S
C1657 H1665 0.960 . S
C1658 C1656 1.381 . S
C1658 C1659 1.394 . S
C1658 H1666 0.930 . S
C1659 C1658 1.394 . S
C1659 C1660 1.383 . S
C1659 H1667 0.929 . S
C1660 C1659 1.383 . S
C1660 C1661 1.377 . S
C1661 H1645 0.930 . S
C1661 C1660 1.377 . S
C1661 C1662 1.379 . S
C1662 H1646 0.931 . S
C1662 C1656 1.383 . S
C1662 C1661 1.379 . S
H1663 C1657 0.959 . S
H1664 C1657 0.961 . S
H1665 C1657 0.960 . S
H1666 C1658 0.930 . S
H1667 C1659 0.929 . S
H1668 C1676 0.929 . S
H1669 C1678 0.930 . S
H1670 C1680 0.930 . S
H1671 C1683 0.929 . S
H1672 C1686 0.930 . S
H1673 C1688 0.960 . S
H1674 C1688 0.960 . S
H1675 C1688 0.960 . S
C1676 H1668 0.929 . S
C1676 C1677 1.377 . S
C1676 C1678 1.384 . S
C1677 C1676 1.377 . S
C1677 C1683 1.390 . S
C1678 H1669 0.930 . S
C1678 C1676 1.384 . S
C1678 C1679 1.372 . S
C1679 C1678 1.372 . S
C1679 C1680 1.400 . S
C1679 C1684 1.490 . S
C1680 H1670 0.930 . S
C1680 C1679 1.400 . S
C1680 C1683 1.386 . S
H1681 C1697 0.930 . S
H1682 C1698 0.931 . S
C1683 H1671 0.929 . S
C1683 C1677 1.390 . S
C1683 C1680 1.386 . S
C1684 C1679 1.490 . S
C1684 C1686 1.395 . S
C1684 C1687 1.403 . S
H1685 C1691 0.930 . S
C1686 H1672 0.930 . S
C1686 C1684 1.395 . S
C1686 C1689 1.403 . S
C1687 C1684 1.403 . S
C1687 C1688 1.524 . S
C1687 C1691 1.400 . S
C1688 H1673 0.960 . S
C1688 H1674 0.960 . S
C1688 H1675 0.960 . S
C1688 C1687 1.524 . S
C1689 C1686 1.403 . S
C1689 C1690 1.392 . S
C1689 C1693 1.495 . S
C1690 C1689 1.392 . S
C1690 C1691 1.385 . S
C1690 C1692 1.478 . S
C1691 H1685 0.930 . S
C1691 C1687 1.400 . S
C1691 C1690 1.385 . S
C1692 C1690 1.478 . S
C1692 C1694 1.381 . S
C1692 C1698 1.383 . S
C1693 C1689 1.495 . S
C1693 H1699 0.959 . S
C1693 H1700 0.961 . S
C1693 H1701 0.960 . S
C1694 C1692 1.381 . S
C1694 C1695 1.394 . S
C1694 H1702 0.930 . S
C1695 C1694 1.394 . S
C1695 C1696 1.383 . S
C1695 H1703 0.929 . S
C1696 C1695 1.383 . S
C1696 C1697 1.377 . S
C1697 H1681 0.930 . S
C1697 C1696 1.377 . S
C1697 C1698 1.379 . S
C1698 H1682 0.931 . S
C1698 C1692 1.383 . S
C1698 C1697 1.379 . S
H1699 C1693 0.959 . S
H1700 C1693 0.961 . S
H1701 C1693 0.960 . S
H1702 C1694 0.930 . S
H1703 C1695 0.929 . S
H1704 C1712 0.929 . S
H1705 C1714 0.930 . S
H1706 C1716 0.930 . S
H1707 C1719 0.929 . S
H1708 C1722 0.930 . S
H1709 C1724 0.960 . S
H1710 C1724 0.960 . S
H1711 C1724 0.960 . S
C1712 H1704 0.929 . S
C1712 C1713 1.377 . S
C1712 C1714 1.384 . S
C1713 C1712 1.377 . S
C1713 C1719 1.390 . S
C1714 H1705 0.930 . S
C1714 C1712 1.384 . S
C1714 C1715 1.372 . S
C1715 C1714 1.372 . S
C1715 C1716 1.400 . S
C1715 C1720 1.490 . S
C1716 H1706 0.930 . S
C1716 C1715 1.400 . S
C1716 C1719 1.386 . S
H1717 C1733 0.930 . S
H1718 C1734 0.931 . S
C1719 H1707 0.929 . S
C1719 C1713 1.390 . S
C1719 C1716 1.386 . S
C1720 C1715 1.490 . S
C1720 C1722 1.395 . S
C1720 C1723 1.403 . S
H1721 C1727 0.930 . S
C1722 H1708 0.930 . S
C1722 C1720 1.395 . S
C1722 C1725 1.403 . S
C1723 C1720 1.403 . S
C1723 C1724 1.524 . S
C1723 C1727 1.400 . S
C1724 H1709 0.960 . S
C1724 H1710 0.960 . S
C1724 H1711 0.960 . S
C1724 C1723 1.524 . S
C1725 C1722 1.403 . S
C1725 C1726 1.392 . S
C1725 C1729 1.495 . S
C1726 C1725 1.392 . S
C1726 C1727 1.385 . S
C1726 C1728 1.478 . S
C1727 H1721 0.930 . S
C1727 C1723 1.400 . S
C1727 C1726 1.385 . S
C1728 C1726 1.478 . S
C1728 C1730 1.381 . S
C1728 C1734 1.383 . S
C1729 C1725 1.495 . S
C1729 H1735 0.959 . S
C1729 H1736 0.961 . S
C1729 H1737 0.960 . S
C1730 C1728 1.381 . S
C1730 C1731 1.394 . S
C1730 H1738 0.930 . S
C1731 C1730 1.394 . S
C1731 C1732 1.383 . S
C1731 H1739 0.929 . S
C1732 C1731 1.383 . S
C1732 C1733 1.377 . S
C1733 H1717 0.930 . S
C1733 C1732 1.377 . S
C1733 C1734 1.379 . S
C1734 H1718 0.931 . S
C1734 C1728 1.383 . S
C1734 C1733 1.379 . S
H1735 C1729 0.959 . S
H1736 C1729 0.961 . S
H1737 C1729 0.960 . S
H1738 C1730 0.930 . S
H1739 C1731 0.929 . S
H1740 C1748 0.929 . S
H1741 C1750 0.930 . S
H1742 C1752 0.930 . S
H1743 C1755 0.929 . S
H1744 C1758 0.930 . S
H1745 C1760 0.960 . S
H1746 C1760 0.960 . S
H1747 C1760 0.960 . S
C1748 H1740 0.929 . S
C1748 C1749 1.377 . S
C1748 C1750 1.384 . S
C1749 C1748 1.377 . S
C1749 C1755 1.390 . S
C1750 H1741 0.930 . S
C1750 C1748 1.384 . S
C1750 C1751 1.372 . S
C1751 C1750 1.372 . S
C1751 C1752 1.400 . S
C1751 C1756 1.490 . S
C1752 H1742 0.930 . S
C1752 C1751 1.400 . S
C1752 C1755 1.386 . S
H1753 C1769 0.930 . S
H1754 C1770 0.931 . S
C1755 H1743 0.929 . S
C1755 C1749 1.390 . S
C1755 C1752 1.386 . S
C1756 C1751 1.490 . S
C1756 C1758 1.395 . S
C1756 C1759 1.403 . S
H1757 C1763 0.930 . S
C1758 H1744 0.930 . S
C1758 C1756 1.395 . S
C1758 C1761 1.403 . S
C1759 C1756 1.403 . S
C1759 C1760 1.524 . S
C1759 C1763 1.400 . S
C1760 H1745 0.960 . S
C1760 H1746 0.960 . S
C1760 H1747 0.960 . S
C1760 C1759 1.524 . S
C1761 C1758 1.403 . S
C1761 C1762 1.392 . S
C1761 C1765 1.495 . S
C1762 C1761 1.392 . S
C1762 C1763 1.385 . S
C1762 C1764 1.478 . S
C1763 H1757 0.930 . S
C1763 C1759 1.400 . S
C1763 C1762 1.385 . S
C1764 C1762 1.478 . S
C1764 C1766 1.381 . S
C1764 C1770 1.383 . S
C1765 C1761 1.495 . S
C1765 H1771 0.959 . S
C1765 H1772 0.961 . S
C1765 H1773 0.960 . S
C1766 C1764 1.381 . S
C1766 C1767 1.394 1_655 S
C1766 H1774 0.930 . S
C1767 C1766 1.394 1_455 S
C1767 C1768 1.383 . S
C1767 H1775 0.929 . S
C1768 C1767 1.383 . S
C1768 C1769 1.377 1_455 S
C1769 H1753 0.930 . S
C1769 C1768 1.377 1_655 S
C1769 C1770 1.379 . S
C1770 H1754 0.931 . S
C1770 C1764 1.383 . S
C1770 C1769 1.379 . S
H1771 C1765 0.959 . S
H1772 C1765 0.961 . S
H1773 C1765 0.960 . S
H1774 C1766 0.930 . S
H1775 C1767 0.929 . S
H1776 C1784 0.929 . S
H1777 C1786 0.930 . S
H1778 C1788 0.930 . S
H1779 C1791 0.929 . S
H1780 C1794 0.930 . S
H1781 C1796 0.960 . S
H1782 C1796 0.960 . S
H1783 C1796 0.960 . S
C1784 H1776 0.929 . S
C1784 C1785 1.377 . S
C1784 C1786 1.384 . S
C1785 C1784 1.377 . S
C1785 C1791 1.390 . S
C1786 H1777 0.930 . S
C1786 C1784 1.384 . S
C1786 C1787 1.372 . S
C1787 C1786 1.372 . S
C1787 C1788 1.400 . S
C1787 C1792 1.490 . S
C1788 H1778 0.930 . S
C1788 C1787 1.400 . S
C1788 C1791 1.386 . S
H1789 C1805 0.930 . S
H1790 C1806 0.931 . S
C1791 H1779 0.929 . S
C1791 C1785 1.390 . S
C1791 C1788 1.386 . S
C1792 C1787 1.490 . S
C1792 C1794 1.395 . S
C1792 C1795 1.403 . S
H1793 C1799 0.930 . S
C1794 H1780 0.930 . S
C1794 C1792 1.395 . S
C1794 C1797 1.403 . S
C1795 C1792 1.403 . S
C1795 C1796 1.524 . S
C1795 C1799 1.400 . S
C1796 H1781 0.960 . S
C1796 H1782 0.960 . S
C1796 H1783 0.960 . S
C1796 C1795 1.524 . S
C1797 C1794 1.403 . S
C1797 C1798 1.392 . S
C1797 C1801 1.495 . S
C1798 C1797 1.392 . S
C1798 C1799 1.385 . S
C1798 C1800 1.478 . S
C1799 H1793 0.930 . S
C1799 C1795 1.400 . S
C1799 C1798 1.385 . S
C1800 C1798 1.478 . S
C1800 C1802 1.381 . S
C1800 C1806 1.383 . S
C1801 C1797 1.495 . S
C1801 H1807 0.959 . S
C1801 H1808 0.961 . S
C1801 H1809 0.960 . S
C1802 C1800 1.381 . S
C1802 C1803 1.394 . S
C1802 H1810 0.930 . S
C1803 C1802 1.394 . S
C1803 C1804 1.383 . S
C1803 H1811 0.929 . S
C1804 C1803 1.383 . S
C1804 C1805 1.377 . S
C1805 H1789 0.930 . S
C1805 C1804 1.377 . S
C1805 C1806 1.379 . S
C1806 H1790 0.931 . S
C1806 C1800 1.383 . S
C1806 C1805 1.379 . S
H1807 C1801 0.959 . S
H1808 C1801 0.961 . S
H1809 C1801 0.960 . S
H1810 C1802 0.930 . S
H1811 C1803 0.929 . S
H1812 C1820 0.929 . S
H1813 C1822 0.930 . S
H1814 C1824 0.930 . S
H1815 C1827 0.929 . S
H1816 C1830 0.930 . S
H1817 C1832 0.960 . S
H1818 C1832 0.960 . S
H1819 C1832 0.960 . S
C1820 H1812 0.929 . S
C1820 C1821 1.377 . S
C1820 C1822 1.384 . S
C1821 C1820 1.377 . S
C1821 C1827 1.390 . S
C1822 H1813 0.930 . S
C1822 C1820 1.384 . S
C1822 C1823 1.372 . S
C1823 C1822 1.372 . S
C1823 C1824 1.400 . S
C1823 C1828 1.490 . S
C1824 H1814 0.930 . S
C1824 C1823 1.400 . S
C1824 C1827 1.386 . S
H1825 C1841 0.930 . S
H1826 C1842 0.931 . S
C1827 H1815 0.929 . S
C1827 C1821 1.390 . S
C1827 C1824 1.386 . S
C1828 C1823 1.490 . S
C1828 C1830 1.395 . S
C1828 C1831 1.403 . S
H1829 C1835 0.930 . S
C1830 H1816 0.930 . S
C1830 C1828 1.395 . S
C1830 C1833 1.403 . S
C1831 C1828 1.403 . S
C1831 C1832 1.524 . S
C1831 C1835 1.400 . S
C1832 H1817 0.960 . S
C1832 H1818 0.960 . S
C1832 H1819 0.960 . S
C1832 C1831 1.524 . S
C1833 C1830 1.403 . S
C1833 C1834 1.392 . S
C1833 C1837 1.495 . S
C1834 C1833 1.392 . S
C1834 C1835 1.385 . S
C1834 C1836 1.478 . S
C1835 H1829 0.930 . S
C1835 C1831 1.400 . S
C1835 C1834 1.385 . S
C1836 C1834 1.478 . S
C1836 C1838 1.381 . S
C1836 C1842 1.383 . S
C1837 C1833 1.495 . S
C1837 H1843 0.959 . S
C1837 H1844 0.961 . S
C1837 H1845 0.960 . S
C1838 C1836 1.381 . S
C1838 C1839 1.399 . S
C1838 H1846 0.930 . S
C1839 C1838 1.399 . S
C1839 C1840 1.381 1_655 S
C1839 H1847 0.927 1_655 S
C1840 C1839 1.381 1_455 S
C1840 C1841 1.377 . S
C1841 H1825 0.930 . S
C1841 C1840 1.377 . S
C1841 C1842 1.379 1_455 S
C1842 H1826 0.931 . S
C1842 C1836 1.383 . S
C1842 C1841 1.379 1_655 S
H1843 C1837 0.959 . S
H1844 C1837 0.961 . S
H1845 C1837 0.960 . S
H1846 C1838 0.930 . S
H1847 C1839 0.927 1_455 S
H1848 C1856 0.929 . S
H1849 C1858 0.930 . S
H1850 C1860 0.930 . S
H1851 C1863 0.929 . S
H1852 C1866 0.930 . S
H1853 C1868 0.960 . S
H1854 C1868 0.960 . S
H1855 C1868 0.960 . S
C1856 H1848 0.929 . S
C1856 C1857 1.377 . S
C1856 C1858 1.384 . S
C1857 C1856 1.377 . S
C1857 C1863 1.390 . S
C1858 H1849 0.930 . S
C1858 C1856 1.384 . S
C1858 C1859 1.372 . S
C1859 C1858 1.372 . S
C1859 C1860 1.400 . S
C1859 C1864 1.490 . S
C1860 H1850 0.930 . S
C1860 C1859 1.400 . S
C1860 C1863 1.386 . S
H1861 C1877 0.930 . S
H1862 C1878 0.931 . S
C1863 H1851 0.929 . S
C1863 C1857 1.390 . S
C1863 C1860 1.386 . S
C1864 C1859 1.490 . S
C1864 C1866 1.395 . S
C1864 C1867 1.403 . S
H1865 C1871 0.930 . S
C1866 H1852 0.930 . S
C1866 C1864 1.395 . S
C1866 C1869 1.403 . S
C1867 C1864 1.403 . S
C1867 C1868 1.524 . S
C1867 C1871 1.400 . S
C1868 H1853 0.960 . S
C1868 H1854 0.960 . S
C1868 H1855 0.960 . S
C1868 C1867 1.524 . S
C1869 C1866 1.403 . S
C1869 C1870 1.392 . S
C1869 C1873 1.495 . S
C1870 C1869 1.392 . S
C1870 C1871 1.385 . S
C1870 C1872 1.478 . S
C1871 H1865 0.930 . S
C1871 C1867 1.400 . S
C1871 C1870 1.385 . S
C1872 C1870 1.478 . S
C1872 C1874 1.381 . S
C1872 C1878 1.383 . S
C1873 C1869 1.495 . S
C1873 H1879 0.959 . S
C1873 H1880 0.961 . S
C1873 H1881 0.960 . S
C1874 C1872 1.381 . S
C1874 C1875 1.394 . S
C1874 H1882 0.930 . S
C1875 C1874 1.394 . S
C1875 C1876 1.383 . S
C1875 H1883 0.929 . S
C1876 C1875 1.383 . S
C1876 C1877 1.377 . S
C1877 H1861 0.930 . S
C1877 C1876 1.377 . S
C1877 C1878 1.379 . S
C1878 H1862 0.931 . S
C1878 C1872 1.383 . S
C1878 C1877 1.379 . S
H1879 C1873 0.959 . S
H1880 C1873 0.961 . S
H1881 C1873 0.960 . S
H1882 C1874 0.930 . S
H1883 C1875 0.929 . S
H1884 C1892 0.929 . S
H1885 C1894 0.930 . S
H1886 C1896 0.930 . S
H1887 C1899 0.929 . S
H1888 C1902 0.930 . S
H1889 C1904 0.960 . S
H1890 C1904 0.960 . S
H1891 C1904 0.960 1_565 S
C1892 H1884 0.929 . S
C1892 C1893 1.377 . S
C1892 C1894 1.384 . S
C1893 C1892 1.377 . S
C1893 C1899 1.390 1_545 S
C1894 H1885 0.930 . S
C1894 C1892 1.384 . S
C1894 C1895 1.372 . S
C1895 C1894 1.372 . S
C1895 C1896 1.400 . S
C1895 C1900 1.490 . S
C1896 H1886 0.930 . S
C1896 C1895 1.400 . S
C1896 C1899 1.386 1_545 S
H1897 C1913 0.930 . S
H1898 C1914 0.931 . S
C1899 H1887 0.929 . S
C1899 C1893 1.390 1_565 S
C1899 C1896 1.386 1_565 S
C1900 C1895 1.490 . S
C1900 C1902 1.395 . S
C1900 C1903 1.403 . S
H1901 C1907 0.930 . S
C1902 H1888 0.930 . S
C1902 C1900 1.395 . S
C1902 C1905 1.403 . S
C1903 C1900 1.403 . S
C1903 C1904 1.524 . S
C1903 C1907 1.400 . S
C1904 H1889 0.960 . S
C1904 H1890 0.960 . S
C1904 H1891 0.960 1_545 S
C1904 C1903 1.524 . S
C1905 C1902 1.403 . S
C1905 C1906 1.392 . S
C1905 C1909 1.495 . S
C1906 C1905 1.392 . S
C1906 C1907 1.385 . S
C1906 C1908 1.478 . S
C1907 H1901 0.930 . S
C1907 C1903 1.400 . S
C1907 C1906 1.385 . S
C1908 C1906 1.478 . S
C1908 C1910 1.381 . S
C1908 C1914 1.383 . S
C1909 C1905 1.495 . S
C1909 H1915 0.959 . S
C1909 H1916 0.961 . S
C1909 H1917 0.960 . S
C1910 C1908 1.381 . S
C1910 C1911 1.394 . S
C1910 H1918 0.930 . S
C1911 C1910 1.394 . S
C1911 C1912 1.383 . S
C1911 H1919 0.929 . S
C1912 C1911 1.383 . S
C1912 C1913 1.377 . S
C1913 H1897 0.930 . S
C1913 C1912 1.377 . S
C1913 C1914 1.379 . S
C1914 H1898 0.931 . S
C1914 C1908 1.383 . S
C1914 C1913 1.379 . S
H1915 C1909 0.959 . S
H1916 C1909 0.961 . S
H1917 C1909 0.960 . S
H1918 C1910 0.930 . S
H1919 C1911 0.929 . S
H1920 C1928 0.929 . S
H1921 C1930 0.930 . S
H1922 C1932 0.930 . S
H1923 C1935 0.929 . S
H1924 C1938 0.930 . S
H1925 C1940 0.960 . S
H1926 C1940 0.960 . S
H1927 C1940 0.960 . S
C1928 H1920 0.929 . S
C1928 C1929 1.377 . S
C1928 C1930 1.384 . S
C1929 C1928 1.377 . S
C1929 C1935 1.390 . S
C1930 H1921 0.930 . S
C1930 C1928 1.384 . S
C1930 C1931 1.372 . S
C1931 C1930 1.372 . S
C1931 C1932 1.400 . S
C1931 C1936 1.490 . S
C1932 H1922 0.930 . S
C1932 C1931 1.400 . S
C1932 C1935 1.386 . S
H1933 C1949 0.930 . S
H1934 C1950 0.931 . S
C1935 H1923 0.929 . S
C1935 C1929 1.390 . S
C1935 C1932 1.386 . S
C1936 C1931 1.490 . S
C1936 C1938 1.395 . S
C1936 C1939 1.403 . S
H1937 C1943 0.930 . S
C1938 H1924 0.930 . S
C1938 C1936 1.395 . S
C1938 C1941 1.403 . S
C1939 C1936 1.403 . S
C1939 C1940 1.524 . S
C1939 C1943 1.400 . S
C1940 H1925 0.960 . S
C1940 H1926 0.960 . S
C1940 H1927 0.960 . S
C1940 C1939 1.524 . S
C1941 C1938 1.403 . S
C1941 C1942 1.392 . S
C1941 C1945 1.495 . S
C1942 C1941 1.392 . S
C1942 C1943 1.385 . S
C1942 C1944 1.478 . S
C1943 H1937 0.930 . S
C1943 C1939 1.400 . S
C1943 C1942 1.385 . S
C1944 C1942 1.478 . S
C1944 C1946 1.381 . S
C1944 C1950 1.383 . S
C1945 C1941 1.495 . S
C1945 H1951 0.959 . S
C1945 H1952 0.961 . S
C1945 H1953 0.960 . S
C1946 C1944 1.381 . S
C1946 C1947 1.394 . S
C1946 H1954 0.930 . S
C1947 C1946 1.394 . S
C1947 C1948 1.383 . S
C1947 H1955 0.929 . S
C1948 C1947 1.383 . S
C1948 C1949 1.377 . S
C1949 H1933 0.930 . S
C1949 C1948 1.377 . S
C1949 C1950 1.379 . S
C1950 H1934 0.931 . S
C1950 C1944 1.383 . S
C1950 C1949 1.379 . S
H1951 C1945 0.959 . S
H1952 C1945 0.961 . S
H1953 C1945 0.960 . S
H1954 C1946 0.930 . S
H1955 C1947 0.929 . S
H1956 C1964 0.929 . S
H1957 C1966 0.930 1_565 S
H1958 C1968 0.930 . S
H1959 C1971 0.929 . S
H1960 C1974 0.930 . S
H1961 C1976 0.960 . S
H1962 C1976 0.960 . S
H1963 C1976 0.960 . S
C1964 H1956 0.929 . S
C1964 C1965 1.377 1_465 S
C1964 C1966 1.384 1_565 S
C1965 C1964 1.377 1_645 S
C1965 C1971 1.390 . S
C1966 H1957 0.930 1_545 S
C1966 C1964 1.384 1_545 S
C1966 C1967 1.372 . S
C1967 C1966 1.372 . S
C1967 C1968 1.400 . S
C1967 C1972 1.490 . S
C1968 H1958 0.930 . S
C1968 C1967 1.400 . S
C1968 C1971 1.386 1_455 S
H1969 C1985 0.930 . S
H1970 C1986 0.931 . S
C1971 H1959 0.929 . S
C1971 C1965 1.390 . S
C1971 C1968 1.386 1_655 S
C1972 C1967 1.490 . S
C1972 C1974 1.395 . S
C1972 C1975 1.403 . S
H1973 C1979 0.930 . S
C1974 H1960 0.930 . S
C1974 C1972 1.395 . S
C1974 C1977 1.403 . S
C1975 C1972 1.403 . S
C1975 C1976 1.524 . S
C1975 C1979 1.400 . S
C1976 H1961 0.960 . S
C1976 H1962 0.960 . S
C1976 H1963 0.960 . S
C1976 C1975 1.524 . S
C1977 C1974 1.403 . S
C1977 C1978 1.392 . S
C1977 C1981 1.495 . S
C1978 C1977 1.392 . S
C1978 C1979 1.385 . S
C1978 C1980 1.478 . S
C1979 H1973 0.930 . S
C1979 C1975 1.400 . S
C1979 C1978 1.385 . S
C1980 C1978 1.478 . S
C1980 C1982 1.381 . S
C1980 C1986 1.383 . S
C1981 C1977 1.495 . S
C1981 H1987 0.959 . S
C1981 H1988 0.961 . S
C1981 H1989 0.960 . S
C1982 C1980 1.381 . S
C1982 C1983 1.394 . S
C1982 H1990 0.930 . S
C1983 C1982 1.394 . S
C1983 C1984 1.383 . S
C1983 H1991 0.929 . S
C1984 C1983 1.383 . S
C1984 C1985 1.377 . S
C1985 H1969 0.930 . S
C1985 C1984 1.377 . S
C1985 C1986 1.379 . S
C1986 H1970 0.931 . S
C1986 C1980 1.383 . S
C1986 C1985 1.379 . S
H1987 C1981 0.959 . S
H1988 C1981 0.961 . S
H1989 C1981 0.960 . S
H1990 C1982 0.930 . S
H1991 C1983 0.929 . S
H1992 C2000 0.929 . S
H1993 C2002 0.930 . S
H1994 C2004 0.930 . S
H1995 C2007 0.929 . S
H1996 C2010 0.930 . S
H1997 C2012 0.960 . S
H1998 C2012 0.960 . S
H1999 C2012 0.960 . S
C2000 H1992 0.929 . S
C2000 C2001 1.377 . S
C2000 C2002 1.384 . S
C2001 C2000 1.377 . S
C2001 C2007 1.390 . S
C2002 H1993 0.930 . S
C2002 C2000 1.384 . S
C2002 C2003 1.372 . S
C2003 C2002 1.372 . S
C2003 C2004 1.400 . S
C2003 C2008 1.490 . S
C2004 H1994 0.930 . S
C2004 C2003 1.400 . S
C2004 C2007 1.386 . S
H2005 C2021 0.930 . S
H2006 C2022 0.931 . S
C2007 H1995 0.929 . S
C2007 C2001 1.390 . S
C2007 C2004 1.386 . S
C2008 C2003 1.490 . S
C2008 C2010 1.395 . S
C2008 C2011 1.403 . S
H2009 C2015 0.930 . S
C2010 H1996 0.930 . S
C2010 C2008 1.395 . S
C2010 C2013 1.403 . S
C2011 C2008 1.403 . S
C2011 C2012 1.524 . S
C2011 C2015 1.400 . S
C2012 H1997 0.960 . S
C2012 H1998 0.960 . S
C2012 H1999 0.960 . S
C2012 C2011 1.524 . S
C2013 C2010 1.403 . S
C2013 C2014 1.392 . S
C2013 C2017 1.495 . S
C2014 C2013 1.392 . S
C2014 C2015 1.385 . S
C2014 C2016 1.478 . S
C2015 H2009 0.930 . S
C2015 C2011 1.400 . S
C2015 C2014 1.385 . S
C2016 C2014 1.478 . S
C2016 C2018 1.381 . S
C2016 C2022 1.383 . S
C2017 C2013 1.495 . S
C2017 H2023 0.959 . S
C2017 H2024 0.961 . S
C2017 H2025 0.960 . S
C2018 C2016 1.381 . S
C2018 C2019 1.394 . S
C2018 H2026 0.930 . S
C2019 C2018 1.394 . S
C2019 C2020 1.383 . S
C2019 H2027 0.929 . S
C2020 C2019 1.383 . S
C2020 C2021 1.377 . S
C2021 H2005 0.930 . S
C2021 C2020 1.377 . S
C2021 C2022 1.379 . S
C2022 H2006 0.931 . S
C2022 C2016 1.383 . S
C2022 C2021 1.379 . S
H2023 C2017 0.959 . S
H2024 C2017 0.961 . S
H2025 C2017 0.960 . S
H2026 C2018 0.930 . S
H2027 C2019 0.929 . S
H2028 C2036 0.929 . S
H2029 C2038 0.930 . S
H2030 C2040 0.930 . S
H2031 C2043 0.929 . S
H2032 C2046 0.930 . S
H2033 C2048 0.960 . S
H2034 C2048 0.960 . S
H2035 C2048 0.960 . S
C2036 H2028 0.929 . S
C2036 C2037 1.377 . S
C2036 C2038 1.384 . S
C2037 C2036 1.377 . S
C2037 C2043 1.390 . S
C2038 H2029 0.930 . S
C2038 C2036 1.384 . S
C2038 C2039 1.372 . S
C2039 C2038 1.372 . S
C2039 C2040 1.400 . S
C2039 C2044 1.490 . S
C2040 H2030 0.930 . S
C2040 C2039 1.400 . S
C2040 C2043 1.386 . S
H2041 C2057 0.905 1_545 S
H2042 C2058 0.931 . S
C2043 H2031 0.929 . S
C2043 C2037 1.390 . S
C2043 C2040 1.386 . S
C2044 C2039 1.490 . S
C2044 C2046 1.395 . S
C2044 C2047 1.403 . S
H2045 C2051 0.930 . S
C2046 H2032 0.930 . S
C2046 C2044 1.395 . S
C2046 C2049 1.403 . S
C2047 C2044 1.403 . S
C2047 C2048 1.524 . S
C2047 C2051 1.400 . S
C2048 H2033 0.960 . S
C2048 H2034 0.960 . S
C2048 H2035 0.960 . S
C2048 C2047 1.524 . S
C2049 C2046 1.403 . S
C2049 C2050 1.392 . S
C2049 C2053 1.495 . S
C2050 C2049 1.392 . S
C2050 C2051 1.385 . S
C2050 C2052 1.478 . S
C2051 H2045 0.930 . S
C2051 C2047 1.400 . S
C2051 C2050 1.385 . S
C2052 C2050 1.478 . S
C2052 C2054 1.381 . S
C2052 C2058 1.383 . S
C2053 C2049 1.495 . S
C2053 H2059 0.959 . S
C2053 H2060 0.961 . S
C2053 H2061 0.960 . S
C2054 C2052 1.381 . S
C2054 C2055 1.394 . S
C2054 H2062 0.930 . S
C2055 C2054 1.394 . S
C2055 C2056 1.383 . S
C2055 H2063 0.929 . S
C2056 C2055 1.383 . S
C2056 C2057 1.386 . S
C2057 H2041 0.905 1_565 S
C2057 C2056 1.386 . S
C2057 C2058 1.396 . S
C2058 H2042 0.931 . S
C2058 C2052 1.383 . S
C2058 C2057 1.396 . S
H2059 C2053 0.959 . S
H2060 C2053 0.961 . S
H2061 C2053 0.960 . S
H2062 C2054 0.930 . S
H2063 C2055 0.929 . S
C345 C18 0.573 . S
C364 C270 0.610 . S
C381 C123 0.582 . S
C400 C36 0.654 . S
C417 C60 0.575 . S
C436 C312 0.517 . S
C453 C81 0.604 . S
C472 C165 0.628 . S
C489 C102 0.602 . S
C508 C186 0.663 . S
C525 C228 0.573 . S
C544 C144 0.524 . S
C561 C291 0.595 . S
C580 C204 0.554 . S
C597 C249 0.594 . S
C616 C333 0.547 . S
C633 C206 1.704 . S
C652 C17 1.850 . S
C669 C35 1.850 . S
C688 C224 1.729 . S
C705 C59 1.847 . S
C724 C245 1.741 . S
C741 C182 1.703 . S
C760 C80 1.840 . S
C777 C287 1.718 . S
C796 C101 1.858 . S
C813 C308 1.708 . S
C832 C122 1.828 . S
C849 C143 1.850 . S
C868 C329 1.741 . S
C885 C266 1.703 . S
C904 C164 1.830 . S
C921 C185 1.849 . S
C940 C38 1.739 . S
C957 C203 1.849 . S
C976 C56 1.739 . S
C993 C227 1.844 . S
C1012 C77 1.700 . S
C1029 C14 1.704 . S
C1048 C248 1.849 . S
C1065 C119 1.707 . S
C1084 C269 1.848 . S
C1101 C290 1.849 . S
C1120 C140 1.741 . S
C1137 C161 1.717 . S
C1156 C311 1.859 . S
C1173 C332 1.844 . S
C1192 C98 1.676 . S
C1209 C16 1.574 . S
C1228 C226 1.607 . S
C1245 C34 1.576 . S
C1264 C247 1.593 . S
C1281 C184 1.575 . S
C1300 C58 1.599 . S
C1317 C79 1.573 . S
C1336 C202 1.619 . S
C1353 C100 1.586 . S
C1372 C310 1.618 . S
C1389 C121 1.575 . S
C1408 C331 1.546 . S
C1425 C268 1.575 . S
C1444 C142 1.546 . S
C1461 C163 1.586 . S
C1480 C289 1.617 . S
C1497 C15 0.952 . S
C1516 C160 0.822 . S
C1533 C265 0.891 . S
C1552 C39 0.986 . S
C1569 C57 0.956 . S
C1588 C118 0.936 . S
C1605 C78 0.952 . S
C1624 C307 0.906 . S
C1641 C99 0.947 . S
C1660 C76 0.930 . S
C1677 C181 0.862 . S
C1696 C120 0.983 . S
C1713 C141 0.960 . S
C1732 C37 0.801 . S
C1749 C223 0.867 . S
C1768 C162 0.967 . S
C1785 C183 0.951 . S
C1804 C328 0.811 . S
C1821 C97 0.882 . S
C1840 C207 0.978 1_565 S
C1857 C286 0.878 . S
C1876 C225 0.934 . S
C1893 C246 0.957 1_545 S
C1912 C139 0.940 . S
C1929 C267 0.947 . S
C1948 C244 0.933 . S
C1965 C288 0.951 1_545 S
C1984 C13 0.935 . S
C2001 C205 0.894 . S
C2020 C309 0.920 . S
C2037 C55 0.864 . S
C2056 C330 0.975 1_565 S
