# Generated by pormake.
# Topology dia, (4)-cn, num edge types: 1
# Building blocks:
#     Node 0, Type 0, BuildingBlock: AZAVOO_clean_sbu_0, # of connection points: 4
#     Node 1, Type 0, BuildingBlock: AZAVOO_clean_sbu_0, # of connection points: 4
#     Node 2, Type 0, BuildingBlock: AZAVOO_clean_sbu_0, # of connection points: 4
#     Node 3, Type 0, BuildingBlock: AZAVOO_clean_sbu_0, # of connection points: 4
#     Node 4, Type 0, BuildingBlock: AZAVOO_clean_sbu_0, # of connection points: 4
#     Node 5, Type 0, BuildingBlock: AZAVOO_clean_sbu_0, # of connection points: 4
#     Node 6, Type 0, BuildingBlock: AZAVOO_clean_sbu_0, # of connection points: 4
#     Node 7, Type 0, BuildingBlock: AZAVOO_clean_sbu_0, # of connection points: 4
#     Edge 8, Type (0, 0), BuildingBlock: UVAHIK_clean_linker_0, # of connection points: 2
#     Edge 9, Type (0, 0), BuildingBlock: UVAHIK_clean_linker_0, # of connection points: 2
#     Edge 10, Type (0, 0), BuildingBlock: UVAHIK_clean_linker_0, # of connection points: 2
#     Edge 11, Type (0, 0), BuildingBlock: UVAHIK_clean_linker_0, # of connection points: 2
#     Edge 12, Type (0, 0), BuildingBlock: UVAHIK_clean_linker_0, # of connection points: 2
#     Edge 13, Type (0, 0), BuildingBlock: UVAHIK_clean_linker_0, # of connection points: 2
#     Edge 14, Type (0, 0), BuildingBlock: UVAHIK_clean_linker_0, # of connection points: 2
#     Edge 15, Type (0, 0), BuildingBlock: UVAHIK_clean_linker_0, # of connection points: 2
#     Edge 16, Type (0, 0), BuildingBlock: UVAHIK_clean_linker_0, # of connection points: 2
#     Edge 17, Type (0, 0), BuildingBlock: UVAHIK_clean_linker_0, # of connection points: 2
#     Edge 18, Type (0, 0), BuildingBlock: UVAHIK_clean_linker_0, # of connection points: 2
#     Edge 19, Type (0, 0), BuildingBlock: UVAHIK_clean_linker_0, # of connection points: 2
#     Edge 20, Type (0, 0), BuildingBlock: UVAHIK_clean_linker_0, # of connection points: 2
#     Edge 21, Type (0, 0), BuildingBlock: UVAHIK_clean_linker_0, # of connection points: 2
#     Edge 22, Type (0, 0), BuildingBlock: UVAHIK_clean_linker_0, # of connection points: 2
#     Edge 23, Type (0, 0), BuildingBlock: UVAHIK_clean_linker_0, # of connection points: 2
# Relax obj value: 0.001
# Max RMSD: 0.029
# Mean RMSD: 0.029
data_MOF--net-dia--node1-AZAVOO_clean_sbu_0--edge1-UVAHIK_clean_linker_0
_symmetry_space_group_name_H-M    P1
_symmetry_Int_Tables_number       1
_symmetry_cell_setting            triclinic
loop_
_symmetry_equiv_pos_as_xyz
'x, y, z'
_cell_length_a     45.317637
_cell_length_b     46.267039
_cell_length_c     45.187562
_cell_angle_alpha  94.649175
_cell_angle_beta   95.074067
_cell_angle_gamma 95.218741
loop_
_atom_site_label
_atom_site_type_symbol
_atom_site_fract_x
_atom_site_fract_y
_atom_site_fract_z
_atom_type_partial_charge
Mg0 Mg 0.12177 0.14171 0.63229 0.0
O1 O 0.08853 0.1102 0.6003 0.0
O2 O 0.05481 0.1376 0.58082 0.0
Mg3 Mg 0.06446 0.18471 0.60043 0.0
C4 C 0.06525 0.11305 0.58295 0.0
C5 C 0.17017 0.11145 0.66259 0.0
O6 O 0.16497 0.13319 0.68137 0.0
O7 O 0.14242 0.16048 0.59266 0.0
O8 O 0.10696 0.18792 0.5771 0.0
O9 O 0.09424 0.13561 0.67061 0.0
O10 O 0.08858 0.16894 0.63888 0.0
C11 C 0.13248 0.17865 0.57534 0.0
C12 C 0.07984 0.15663 0.66149 0.0
O13 O 0.15542 0.108 0.63705 0.0
Mg14 Mg 0.84331 0.35441 0.85733 0.0
O15 O 0.87685 0.38263 0.89186 0.0
O16 O 0.89628 0.35263 0.923 0.0
Mg17 Mg 0.87606 0.30617 0.90928 0.0
C18 C 0.89437 0.37807 0.91444 0.0
C19 C 0.82619 0.38584 0.80191 0.0
O20 O 0.81845 0.35827 0.79279 0.0
O21 O 0.8816 0.33752 0.83328 0.0
O22 O 0.89831 0.30764 0.86613 0.0
O23 O 0.80704 0.35792 0.88795 0.0
O24 O 0.83735 0.32325 0.88726 0.0
C25 C 0.89931 0.319 0.84137 0.0
C26 C 0.81607 0.33495 0.89904 0.0
O27 O 0.83897 0.3922 0.82814 0.0
Mg28 Mg 0.6302 0.14755 0.15571 0.0
O29 O 0.60128 0.1222 0.11554 0.0
O30 O 0.5713 0.15377 0.09721 0.0
Mg31 Mg 0.57894 0.19745 0.1255 0.0
C32 C 0.58077 0.12855 0.09647 0.0
C33 C 0.68248 0.11923 0.18136 0.0
O34 O 0.6821 0.1441 0.19754 0.0
O35 O 0.65726 0.17275 0.12398 0.0
O36 O 0.62537 0.20447 0.11022 0.0
O37 O 0.59632 0.13473 0.18695 0.0
O38 O 0.59622 0.17367 0.16178 0.0
C39 C 0.65084 0.19476 0.11019 0.0
C40 C 0.58337 0.15717 0.17931 0.0
O41 O 0.66307 0.11304 0.1591 0.0
Mg42 Mg 0.84023 0.84711 0.35328 0.0
O43 O 0.87241 0.87536 0.38902 0.0
O44 O 0.89063 0.84539 0.4209 0.0
Mg45 Mg 0.87039 0.79893 0.40681 0.0
C46 C 0.88915 0.87081 0.41216 0.0
C47 C 0.83321 0.91005 0.33354 0.0
O48 O 0.83308 0.91573 0.36249 0.0
O49 O 0.88 0.83043 0.33166 0.0
O50 O 0.89466 0.80002 0.36483 0.0
O51 O 0.80205 0.85051 0.38156 0.0
O52 O 0.83269 0.81618 0.38311 0.0
C53 C 0.89704 0.81156 0.34032 0.0
C54 C 0.81048 0.82763 0.39332 0.0
O55 O 0.83724 0.88446 0.32324 0.0
Mg56 Mg 0.1324 0.64752 0.13032 0.0
O57 O 0.09745 0.61639 0.09984 0.0
O58 O 0.06505 0.64467 0.07966 0.0
Mg59 Mg 0.07732 0.69206 0.09716 0.0
C60 C 0.07423 0.61969 0.08263 0.0
C61 C 0.18573 0.62101 0.15582 0.0
O62 O 0.18815 0.64832 0.16708 0.0
O63 O 0.15348 0.66329 0.08966 0.0
O64 O 0.11948 0.69186 0.0731 0.0
O65 O 0.1051 0.64476 0.16907 0.0
O66 O 0.10139 0.67732 0.13626 0.0
C67 C 0.14434 0.68114 0.07155 0.0
C68 C 0.09226 0.66658 0.15955 0.0
O69 O 0.16394 0.61219 0.13653 0.0
Mg70 Mg 0.33695 0.36017 0.35133 0.0
O71 O 0.37284 0.38752 0.38432 0.0
O72 O 0.38868 0.35752 0.41748 0.0
Mg73 Mg 0.36297 0.31263 0.40764 0.0
C74 C 0.38968 0.38248 0.40723 0.0
C75 C 0.33562 0.42153 0.32681 0.0
O76 O 0.33818 0.42942 0.35559 0.0
O77 O 0.37297 0.3367 0.32944 0.0
O78 O 0.38479 0.30701 0.36439 0.0
O79 O 0.30058 0.37056 0.38003 0.0
O80 O 0.32751 0.33347 0.38453 0.0
C81 C 0.38749 0.31626 0.33882 0.0
C82 C 0.30718 0.34837 0.39408 0.0
O83 O 0.3364 0.39483 0.31801 0.0
Mg84 Mg 0.35365 0.87012 0.85636 0.0
O85 O 0.38685 0.9009 0.88919 0.0
O86 O 0.40533 0.87285 0.92299 0.0
Mg87 Mg 0.38388 0.82622 0.91403 0.0
C88 C 0.4042 0.8975 0.91234 0.0
C89 C 0.32414 0.89981 0.80733 0.0
O90 O 0.30597 0.87725 0.81216 0.0
O91 O 0.39228 0.85023 0.83545 0.0
O92 O 0.4067 0.82232 0.87122 0.0
O93 O 0.31563 0.87681 0.88408 0.0
O94 O 0.34631 0.8429 0.88973 0.0
C95 C 0.40877 0.83151 0.84553 0.0
C96 C 0.32397 0.85535 0.89836 0.0
O97 O 0.34943 0.90401 0.82249 0.0
Mg98 Mg 0.6215 0.63666 0.64604 0.0
O99 O 0.58875 0.60883 0.61059 0.0
O100 O 0.55653 0.63868 0.59297 0.0
Mg101 Mg 0.56632 0.68392 0.61798 0.0
C102 C 0.56637 0.61367 0.59298 0.0
C103 C 0.67519 0.60724 0.66842 0.0
O104 O 0.67707 0.6322 0.68491 0.0
O105 O 0.6438 0.65919 0.60932 0.0
O106 O 0.61009 0.68968 0.59697 0.0
O107 O 0.59248 0.62729 0.68272 0.0
O108 O 0.58876 0.6637 0.65441 0.0
C109 C 0.63537 0.68001 0.5947 0.0
C110 C 0.57892 0.64945 0.6753 0.0
O111 O 0.65406 0.60178 0.64767 0.0
C112 C 0.2598 0.34021 0.41748 0.0
C113 C 0.29064 0.33869 0.41865 0.0
C114 C 0.24294 0.32475 0.43653 0.0
C115 C 0.24678 0.28412 0.50379 0.0
H116 H 0.18004 0.23535 0.46064 0.0
C117 C 0.18271 0.19211 0.55817 0.0
C118 C 0.15158 0.19176 0.55414 0.0
C119 C 0.20061 0.20896 0.54103 0.0
C120 C 0.19845 0.24896 0.47308 0.0
H121 H 0.32851 0.32292 0.44278 0.0
H122 H 0.29921 0.29587 0.47584 0.0
H123 H 0.20835 0.27108 0.43488 0.0
H124 H 0.11477 0.20714 0.52771 0.0
H125 H 0.14577 0.23641 0.49823 0.0
H126 H 0.23674 0.26206 0.54207 0.0
C127 C 0.28792 0.30857 0.46006 0.0
C128 C 0.21454 0.26956 0.45837 0.0
C129 C 0.30468 0.3238 0.44089 0.0
C130 C 0.1387 0.2071 0.53153 0.0
C131 C 0.1565 0.22378 0.51446 0.0
C132 C 0.23057 0.26358 0.51858 0.0
C133 C 0.25677 0.30788 0.45721 0.0
C134 C 0.2388 0.2874 0.47359 0.0
C135 C 0.18764 0.22551 0.51949 0.0
C136 C 0.20616 0.24586 0.50338 0.0
H137 H 0.24848 0.35161 0.40052 0.0
H138 H 0.21897 0.32499 0.43426 0.0
H139 H 0.26538 0.29764 0.51605 0.0
H140 H 0.19326 0.18053 0.57543 0.0
H141 H 0.22458 0.20954 0.54507 0.0
C142 C 0.71751 0.59118 0.70036 0.0
C143 C 0.69558 0.58506 0.67609 0.0
C144 C 0.73506 0.56968 0.70965 0.0
C145 C 0.73386 0.48981 0.70758 0.0
H146 H 0.81579 0.50778 0.74144 0.0
C147 C 0.80121 0.40143 0.75496 0.0
C148 C 0.81693 0.40895 0.78319 0.0
C149 C 0.78953 0.42279 0.73852 0.0
C150 C 0.79289 0.50245 0.73216 0.0
H151 H 0.67576 0.55179 0.64173 0.0
H152 H 0.70673 0.51427 0.65771 0.0
H153 H 0.78979 0.5452 0.71795 0.0
H154 H 0.8338 0.44507 0.81568 0.0
H155 H 0.81329 0.48236 0.78703 0.0
H156 H 0.73678 0.44724 0.72215 0.0
C157 C 0.70998 0.53563 0.6699 0.0
C158 C 0.77796 0.5239 0.71871 0.0
C159 C 0.69235 0.55718 0.66061 0.0
C160 C 0.82179 0.43851 0.79403 0.0
C161 C 0.81014 0.45992 0.77754 0.0
C162 C 0.7488 0.46837 0.72093 0.0
C163 C 0.73122 0.54148 0.69486 0.0
C164 C 0.74809 0.51798 0.70665 0.0
C165 C 0.79334 0.45223 0.74986 0.0
C166 C 0.77837 0.47453 0.73375 0.0
H167 H 0.72064 0.61241 0.71282 0.0
H168 H 0.75087 0.57492 0.72918 0.0
H169 H 0.71074 0.48457 0.69901 0.0
H170 H 0.79722 0.3789 0.74581 0.0
H171 H 0.77714 0.41619 0.71707 0.0
C172 C 0.57098 0.07633 0.07495 0.0
C173 C 0.56634 0.10581 0.07337 0.0
C174 C 0.55537 0.05483 0.05438 0.0
C175 C 0.4864 0.042 0.00301 0.0
H176 H 0.52177 0.97322 0.97412 0.0
C177 C 0.42139 0.9512 0.9199 0.0
C178 C 0.42406 0.92261 0.92751 0.0
C179 C 0.44004 0.97463 0.93496 0.0
C180 C 0.51156 0.99228 0.98209 0.0
H181 H 0.54263 0.13589 0.04799 0.0
H182 H 0.51596 0.09858 0.012 0.0
H183 H 0.55253 0.01205 0.00542 0.0
H184 H 0.44888 0.89631 0.95663 0.0
H185 H 0.48101 0.93692 0.98269 0.0
H186 H 0.44537 0.02205 0.97992 0.0
C187 C 0.53108 0.09194 0.02954 0.0
C188 C 0.52916 0.01448 8e-05 0.0
C189 C 0.54653 0.11337 0.05013 0.0
C190 C 0.44605 0.91799 0.95017 0.0
C191 C 0.46473 0.94129 0.965 0.0
C192 C 0.46883 0.01984 0.98493 0.0
C193 C 0.5349 0.06237 0.03168 0.0
C194 C 0.51671 0.03945 0.01109 0.0
C195 C 0.46189 0.96988 0.9577 0.0
C196 C 0.48111 0.99454 0.97464 0.0
H197 H 0.58601 0.06972 0.09258 0.0
H198 H 0.55865 0.03223 0.05687 0.0
H199 H 0.47594 0.06072 0.01143 0.0
H200 H 0.40474 0.95554 0.90254 0.0
H201 H 0.43746 0.99645 0.92874 0.0
C202 C 0.93845 0.78103 0.33148 0.0
C203 C 0.91934 0.8011 0.32109 0.0
C204 C 0.95764 0.76861 0.31294 0.0
C205 C 0.9671 0.75154 0.23382 0.0
H206 H 0.04433 0.73234 0.26625 0.0
C207 C 0.05488 0.70284 0.16396 0.0
C208 C 0.06898 0.67972 0.17546 0.0
C209 C 0.0354 0.71759 0.18044 0.0
C210 C 0.0227 0.73735 0.25701 0.0
H211 H 0.90634 0.82473 0.28326 0.0
H212 H 0.9406 0.80328 0.25079 0.0
H213 H 0.01492 0.76156 0.29735 0.0
H214 H 0.07305 0.65343 0.21296 0.0
H215 H 0.0392 0.67959 0.24201 0.0
H216 H 0.97537 0.72759 0.19324 0.0
C217 C 0.94015 0.79684 0.27327 0.0
C218 C 0.00587 0.75412 0.27475 0.0
C219 C 0.92072 0.80928 0.29192 0.0
C220 C 0.0625 0.6711 0.20346 0.0
C221 C 0.0433 0.68614 0.22014 0.0
C222 C 0.98415 0.73501 0.21594 0.0
C223 C 0.95853 0.77607 0.28352 0.0
C224 C 0.97765 0.76098 0.26355 0.0
C225 C 0.02998 0.7098 0.20894 0.0
C226 C 0.01187 0.72742 0.22757 0.0
H227 H 0.93811 0.7742 0.35383 0.0
H228 H 0.97108 0.75236 0.32145 0.0
H229 H 0.94531 0.75612 0.22464 0.0
H230 H 0.05953 0.7103 0.14267 0.0
H231 H 0.02559 0.7359 0.17143 0.0
C232 C 0.33263 0.94504 0.78034 0.0
C233 C 0.31395 0.92069 0.78632 0.0
C234 C 0.32181 0.96544 0.76186 0.0
C235 C 0.28737 0.01451 0.74025 0.0
H236 H 0.2242 0.99126 0.67691 0.0
C237 C 0.2045 0.09346 0.70177 0.0
C238 C 0.19161 0.09082 0.67211 0.0
C239 C 0.22352 0.07345 0.71172 0.0
C240 C 0.24216 0.99826 0.69412 0.0
H241 H 0.26941 0.89842 0.77705 0.0
H242 H 0.25049 0.93401 0.7459 0.0
H243 H 0.25078 0.95432 0.69999 0.0
H244 H 0.18937 0.0655 0.62933 0.0
H245 H 0.22323 0.03074 0.64654 0.0
H246 H 0.2791 0.05847 0.73404 0.0
C247 C 0.27368 0.93724 0.75471 0.0
C248 C 0.25716 0.97697 0.70773 0.0
C249 C 0.28451 0.91685 0.7729 0.0
C250 C 0.19881 0.06804 0.65237 0.0
C251 C 0.21811 0.04804 0.6623 0.0
C252 C 0.2726 0.03581 0.72641 0.0
C253 C 0.29203 0.96198 0.74911 0.0
C254 C 0.2793 0.98474 0.73164 0.0
C255 C 0.23048 0.05033 0.69223 0.0
C256 C 0.24912 0.02795 0.70383 0.0
H257 H 0.35547 0.94855 0.79022 0.0
H258 H 0.33672 0.98401 0.75776 0.0
H259 H 0.30419 0.02143 0.7586 0.0
H260 H 0.19939 0.11066 0.71767 0.0
H261 H 0.23199 0.07568 0.73504 0.0
C262 C 0.93502 0.39763 0.95409 0.0
C263 C 0.91342 0.40283 0.93131 0.0
C264 C 0.95313 0.42069 0.97013 0.0
C265 C 0.98076 0.49801 0.96702 0.0
H266 H -0.0005 0.49591 0.05223 0.0
C267 C 0.03434 0.59812 0.04318 0.0
C268 C 0.05721 0.59404 0.06517 0.0
C269 C 0.01794 0.57433 0.02662 0.0
C270 C -0.00523 0.49663 0.0284 0.0
H271 H 0.89394 0.43653 0.90765 0.0
H272 H 0.92528 0.47688 0.93605 0.0
H273 H 0.96793 0.45574 0.02389 0.0
H274 H 0.08072 0.56154 0.0869 0.0
H275 H 0.05181 0.51978 0.05787 0.0
H276 H 0.00726 0.53913 0.97169 0.0
C277 C 0.9285 0.45485 0.94115 0.0
C278 C 0.97666 0.47363 0.01213 0.0
C279 C 0.91041 0.43172 0.92497 0.0
C280 C 0.06328 0.56547 0.07015 0.0
C281 C 0.04665 0.54156 0.05365 0.0
C282 C -0.00127 0.52106 0.98333 0.0
C283 C 0.95008 0.44959 0.96394 0.0
C284 C 0.96937 0.47407 0.98124 0.0
C285 C 0.02384 0.54579 0.03167 0.0
C286 C 0.00583 0.52068 0.01421 0.0
H287 H 0.93816 0.37568 0.9595 0.0
H288 H 0.96984 0.41578 0.98716 0.0
H289 H 0.97606 0.49882 0.94321 0.0
H290 H 0.029 0.61978 0.03865 0.0
H291 H 0.00026 0.5783 0.01014 0.0
C292 C 0.42615 0.28217 0.3315 0.0
C293 C 0.4066 0.30093 0.31923 0.0
C294 C 0.44148 0.26447 0.31318 0.0
C295 C 0.4681 0.25512 0.23944 0.0
H296 H 0.47237 0.17541 0.25927 0.0
C297 C 0.53494 0.17837 0.17317 0.0
C298 C 0.55543 0.16457 0.19086 0.0
C299 C 0.51167 0.19101 0.18574 0.0
C300 C 0.47139 0.19759 0.25348 0.0
H301 H 0.38883 0.31676 0.27809 0.0
H302 H 0.41602 0.28569 0.24583 0.0
H303 H 0.4425 0.20728 0.28711 0.0
H304 H 0.5664 0.15081 0.2348 0.0
H305 H 0.52582 0.17319 0.25707 0.0
H306 H 0.49764 0.24576 0.2064 0.0
C307 C 0.41924 0.28475 0.26976 0.0
C308 C 0.45435 0.21584 0.26941 0.0
C309 C 0.40378 0.30257 0.2882 0.0
C310 C 0.55085 0.16139 0.22074 0.0
C311 C 0.52761 0.1742 0.23343 0.0
C312 C 0.48517 0.23687 0.22351 0.0
C313 C 0.43769 0.26505 0.28211 0.0
C314 C 0.45311 0.24498 0.26301 0.0
C315 C 0.50851 0.19012 0.21628 0.0
C316 C 0.48747 0.20809 0.23078 0.0
H317 H 0.42919 0.28063 0.35535 0.0
H318 H 0.4562 0.25013 0.3234 0.0
H319 H 0.46772 0.27752 0.23417 0.0
H320 H 0.53734 0.18016 0.1498 0.0
H321 H 0.49678 0.2024 0.17178 0.0
C322 C 0.80449 0.78886 0.42812 0.0
C323 C 0.79546 0.81472 0.41754 0.0
C324 C 0.7895 0.77527 0.44958 0.0
C325 C 0.73612 0.7861 0.5058 0.0
H326 H 0.72138 0.70182 0.4934 0.0
C327 C 0.64799 0.72043 0.56331 0.0
C328 C 0.65561 0.6947 0.5754 0.0
C329 C 0.66705 0.73526 0.54591 0.0
C330 C 0.72571 0.72529 0.49739 0.0
H331 H 0.76364 0.84676 0.42141 0.0
H332 H 0.73676 0.82249 0.45857 0.0
H333 H 0.75041 0.7281 0.45946 0.0
H334 H 0.68928 0.66432 0.57846 0.0
H335 H 0.72264 0.6903 0.54747 0.0
H336 H 0.71059 0.78318 0.5433 0.0
C337 C 0.75596 0.81311 0.45063 0.0
C338 C 0.74233 0.74039 0.47798 0.0
C339 C 0.77122 0.82693 0.42924 0.0
C340 C 0.68275 0.68403 0.56944 0.0
C341 C 0.70179 0.69884 0.55171 0.0
C342 C 0.71932 0.77099 0.5251 0.0
C343 C 0.76475 0.7869 0.46072 0.0
C344 C 0.74761 0.77098 0.48187 0.0
C345 C 0.69413 0.7247 0.53998 0.0
C346 C 0.71377 0.74047 0.52091 0.0
H347 H 0.82277 0.77856 0.4194 0.0
H348 H 0.79718 0.7554 0.45721 0.0
H349 H 0.74019 0.80959 0.50968 0.0
H350 H 0.62732 0.72938 0.56742 0.0
H351 H 0.66037 0.75486 0.53675 0.0
C352 C 0.22798 0.61095 0.19161 0.0
C353 C 0.20601 0.60065 0.16826 0.0
C354 C 0.24511 0.59172 0.20597 0.0
C355 C 0.271 0.51867 0.20063 0.0
H356 H 0.27373 0.52798 0.28692 0.0
C357 C 0.3138 0.43284 0.27657 0.0
C358 C 0.32724 0.44261 0.30531 0.0
C359 C 0.30191 0.45246 0.25787 0.0
C360 C 0.2738 0.52532 0.2629 0.0
H361 H 0.18587 0.56212 0.14072 0.0
H362 H 0.2162 0.52837 0.16584 0.0
H363 H 0.24778 0.56118 0.25752 0.0
H364 H 0.3406 0.48083 0.33617 0.0
H365 H 0.32099 0.51514 0.30327 0.0
H366 H 0.29731 0.48291 0.20606 0.0
C367 C 0.21996 0.55144 0.17297 0.0
C368 C 0.25872 0.54432 0.24603 0.0
C369 C 0.20256 0.57074 0.15867 0.0
C370 C 0.33007 0.47258 0.31429 0.0
C371 C 0.31856 0.49222 0.29548 0.0
C372 C 0.28643 0.49976 0.21758 0.0
C373 C 0.2409 0.5617 0.19725 0.0
C374 C 0.25715 0.54125 0.21474 0.0
C375 C 0.3035 0.48234 0.26737 0.0
C376 C 0.28802 0.50285 0.24898 0.0
H377 H 0.23144 0.63386 0.19948 0.0
H378 H 0.2614 0.60032 0.22429 0.0
H379 H 0.27027 0.51591 0.17654 0.0
H380 H 0.31116 0.40985 0.269 0.0
H381 H 0.29032 0.44394 0.23654 0.0
C382 C 0.81193 0.29596 0.93375 0.0
C383 C 0.80321 0.32252 0.92469 0.0
C384 C 0.79933 0.28319 0.9571 0.0
C385 C 0.75578 0.29746 0.02109 0.0
H386 H 0.73314 0.21412 0.00865 0.0
C387 C 0.66868 0.23797 0.0849 0.0
C388 C 0.67318 0.21004 0.09353 0.0
C389 C 0.68846 0.25226 0.06781 0.0
C390 C 0.73984 0.23728 0.01273 0.0
H391 H 0.77446 0.35662 0.93313 0.0
H392 H 0.75176 0.33386 0.97377 0.0
H393 H 0.75937 0.23849 0.9715 0.0
H394 H 0.70253 0.17559 0.09176 0.0
H395 H 0.73724 0.20068 0.06139 0.0
H396 H 0.73534 0.29623 0.06198 0.0
C397 C 0.76889 0.32326 0.96308 0.0
C398 C 0.75481 0.25129 0.99142 0.0
C399 C 0.7817 0.3362 0.9397 0.0
C400 C 0.69844 0.19704 0.08536 0.0
C401 C 0.71821 0.21133 0.06794 0.0
C402 C 0.7407 0.28343 0.04238 0.0
C403 C 0.77739 0.29645 0.97179 0.0
C404 C 0.76265 0.28158 -0.0048 0.0
C405 C 0.71318 0.23896 0.05879 0.0
C406 C 0.73223 0.25327 0.03818 0.0
H407 H 0.82813 0.28457 0.92247 0.0
H408 H 0.80666 0.26275 0.96351 0.0
H409 H 0.76197 0.32072 0.02486 0.0
H410 H 0.64959 0.24876 0.09101 0.0
H411 H 0.68378 0.27335 0.06079 0.0
C412 C 0.8237 0.96118 0.32412 0.0
C413 C 0.82498 0.93209 0.31305 0.0
C414 C 0.81295 0.98135 0.30547 0.0
C415 C 0.76127 0.98498 0.23966 0.0
H416 H 0.79648 0.06483 0.24259 0.0
C417 C 0.70348 0.07072 0.17508 0.0
C418 C 0.70343 0.09817 0.19088 0.0
C419 C 0.72182 0.05029 0.18583 0.0
C420 C 0.78621 0.04267 0.24164 0.0
H421 H 0.81684 0.90161 0.27343 0.0
H422 H 0.79772 0.93683 0.24099 0.0
H423 H 0.82245 0.02957 0.26957 0.0
H424 H 0.72326 0.1259 0.22994 0.0
H425 H 0.75441 0.09039 0.24887 0.0
H426 H 0.72441 0.9982 0.21291 0.0
C427 C 0.80505 0.94395 0.26412 0.0
C428 C 0.80118 0.02246 0.25703 0.0
C429 C 0.81616 0.92385 0.28267 0.0
C430 C 0.7227 0.105 0.21713 0.0
C431 C 0.74084 0.08462 0.22791 0.0
C432 C 0.74613 0.00525 0.22451 0.0
C433 C 0.80293 0.97281 0.27543 0.0
C434 C 0.78863 0.99353 0.25664 0.0
C435 C 0.74044 0.05685 0.21265 0.0
C436 C 0.75812 0.03453 0.22579 0.0
H437 H 0.83037 0.96825 0.34738 0.0
H438 H 0.81138 0.00338 0.3149 0.0
H439 H 0.75089 0.96289 0.23918 0.0
H440 H 0.68898 0.06482 0.15471 0.0
H441 H 0.72121 0.02927 0.17325 0.0
C442 C 0.90538 0.92442 0.42264 0.0
C443 C 0.90799 0.89556 0.42929 0.0
C444 C 0.92344 0.94753 0.43888 0.0
C445 C 0.97077 0.96647 0.51038 0.0
H446 H 0.00215 0.03167 0.46997 0.0
C447 C 0.05593 0.05885 0.5696 0.0
C448 C 0.04947 0.08731 0.56459 0.0
C449 C 0.04004 0.0348 0.55264 0.0
C450 C -0.00657 0.01366 0.48158 0.0
H451 H 0.93196 0.86842 0.45815 0.0
H452 H 0.96362 0.90847 0.48592 0.0
H453 H 0.97126 0.99123 0.44132 0.0
H454 H 0.02158 0.11272 0.53736 0.0
H455 H -0.00587 0.07098 0.50801 0.0
H456 H -0.00692 0.98897 0.55063 0.0
C457 C 0.94724 0.91339 0.46859 0.0
C458 C 0.97562 0.99055 0.4652 0.0
C459 C 0.92913 0.89036 0.4525 0.0
C460 C 0.02715 0.09115 0.54195 0.0
C461 C 0.01151 0.06721 0.52492 0.0
C462 C 0.98872 0.98953 0.52673 0.0
C463 C 0.94462 0.94227 0.46206 0.0
C464 C 0.96389 0.96674 0.47942 0.0
C465 C 0.01762 0.03877 0.53015 0.0
C466 C 4e-05 0.01348 0.51255 0.0
H467 H 0.88928 0.92924 0.40498 0.0
H468 H 0.92053 0.96954 0.43351 0.0
H469 H 0.96178 0.94871 0.52215 0.0
H470 H 0.07297 0.05512 0.58684 0.0
H471 H 0.04537 0.0131 0.55701 0.0
C472 C 0.91429 0.30802 0.78978 0.0
C473 C 0.92 0.30773 0.82083 0.0
C474 C 0.93062 0.29197 0.77056 0.0
C475 C 0.97067 0.22686 0.77016 0.0
H476 H 0.00385 0.25365 0.69995 0.0
C477 C 0.05592 0.1663 0.7084 0.0
C478 C 0.05564 0.16769 0.67748 0.0
C479 C 0.03642 0.18156 0.72449 0.0
C480 C -0.00576 0.24565 0.71919 0.0
H481 H 0.94896 0.29275 0.85609 0.0
H482 H 0.97739 0.26519 0.82269 0.0
H483 H 0.97697 0.28636 0.73041 0.0
H484 H 0.03279 0.18358 0.63879 0.0
H485 H -0.00148 0.2097 0.66664 0.0
H486 H 0.9878 0.18622 0.75912 0.0
C487 C 0.95987 0.27706 0.81317 0.0
C488 C 0.97899 0.26445 0.73665 0.0
C489 C 0.94368 0.29299 0.83226 0.0
C490 C 0.03413 0.18277 0.66267 0.0
C491 C 0.01449 0.1978 0.67866 0.0
C492 C 0.98572 0.20803 0.75265 0.0
C493 C 0.9528 0.2755 0.78221 0.0
C494 C 0.96753 0.25537 0.76257 0.0
C495 C 0.01609 0.1982 0.70986 0.0
C496 C -0.00196 0.21733 0.72719 0.0
H497 H 0.89615 0.31915 0.78036 0.0
H498 H 0.92487 0.2912 0.74671 0.0
H499 H 0.96148 0.21912 0.78974 0.0
H500 H 0.07236 0.1549 0.72039 0.0
H501 H 0.03835 0.18152 0.74855 0.0
C502 C 0.53298 0.67487 0.67706 0.0
C503 C 0.55485 0.66006 0.69168 0.0
C504 C 0.51474 0.69137 0.69341 0.0
C505 C 0.5197 0.73396 0.7649 0.0
H506 H 0.43643 0.74324 0.74415 0.0
C507 C 0.45168 0.80243 0.83961 0.0
C508 C 0.42918 0.81755 0.82642 0.0
C509 C 0.46764 0.78456 0.82212 0.0
C510 C 0.45983 0.74123 0.74987 0.0
H511 H 0.57314 0.64857 0.73457 0.0
H512 H 0.54107 0.67743 0.76335 0.0
H513 H 0.46005 0.70534 0.71678 0.0
H514 H 0.40701 0.82724 0.78439 0.0
H515 H 0.43544 0.79616 0.75355 0.0
H516 H 0.51977 0.77 0.79761 0.0
C517 C 0.53835 0.67659 0.73923 0.0
C518 C 0.47323 0.71936 0.73441 0.0
C519 C 0.55644 0.65985 0.7228 0.0
C520 C 0.42424 0.81586 0.79517 0.0
C521 C 0.44025 0.79782 0.77757 0.0
C522 C 0.50639 0.75589 0.7802 0.0
C523 C 0.5182 0.69344 0.7247 0.0
C524 C 0.50325 0.71541 0.74193 0.0
C525 C 0.46157 0.7814 0.79097 0.0
C526 C 0.47626 0.75966 0.77302 0.0
H527 H 0.53082 0.6748 0.65304 0.0
H528 H 0.49933 0.70401 0.68159 0.0
H529 H 0.54309 0.73192 0.77065 0.0
H530 H 0.45617 0.80341 0.86364 0.0
H531 H 0.48372 0.77209 0.8332 0.0
C532 C 0.15198 0.70757 0.02662 0.0
C533 C 0.16401 0.69257 0.04994 0.0
C534 C 0.17055 0.7235 0.00958 0.0
C535 C 0.24503 0.76257 0.01617 0.0
H536 H 0.22504 0.77205 0.93251 0.0
C537 C 0.3207 0.82725 0.94292 0.0
C538 C 0.30689 0.84331 0.92154 0.0
C539 C 0.30368 0.81036 0.96059 0.0
C540 C 0.23064 0.7699 0.95598 0.0
H541 H 0.20494 0.68074 0.07228 0.0
H542 H 0.23757 0.70836 0.04203 0.0
H543 H 0.19597 0.73546 0.95661 0.0
H544 H 0.26468 0.85615 0.90337 0.0
H545 H 0.23478 0.82659 0.93443 0.0
H546 H 0.2799 0.79694 0.01534 0.0
C547 C 0.21369 0.70819 0.03741 0.0
C548 C 0.21413 0.74883 0.96974 0.0
C549 C 0.19503 0.69213 0.0545 0.0
C550 C 0.27589 0.84395 0.91969 0.0
C551 C 0.25879 0.82681 0.93719 0.0
C552 C 0.26168 0.78355 0.00234 0.0
C553 C 0.20161 0.72475 0.01539 0.0
C554 C 0.22094 0.74511 6e-05 0.0
C555 C 0.27251 0.80909 0.95706 0.0
C556 C 0.25445 0.78758 0.97218 0.0
H557 H 0.12815 0.70816 0.02237 0.0
H558 H 0.16047 0.73611 0.99295 0.0
H559 H 0.25051 0.76061 0.03969 0.0
H560 H 0.34457 0.82679 0.94527 0.0
H561 H 0.31487 0.797 0.97578 0.0
C562 C 0.40812 0.43559 0.41819 0.0
C563 C 0.41071 0.40628 0.42315 0.0
C564 C 0.42692 0.4579 0.43491 0.0
C565 C 0.47477 0.47204 0.50642 0.0
H566 H 0.50405 0.54221 0.47254 0.0
C567 C 0.55784 0.56073 0.57368 0.0
C568 C 0.55099 0.58961 0.57191 0.0
C569 C 0.54247 0.5381 0.5543 0.0
C570 C 0.4959 0.52278 0.48233 0.0
H571 H 0.43604 0.37743 0.44859 0.0
H572 H 0.46902 0.41608 0.47705 0.0
H573 H 0.47399 0.50331 0.44058 0.0
H574 H 0.52297 0.61734 0.54783 0.0
H575 H 0.49629 0.57796 0.51425 0.0
H576 H 0.49665 0.4915 0.54814 0.0
C577 C 0.45198 0.42199 0.46093 0.0
C578 C 0.47861 0.50054 0.46405 0.0
C579 C 0.43312 0.39977 0.44444 0.0
C580 C 0.52881 0.59537 0.54995 0.0
C581 C 0.51362 0.57282 0.5305 0.0
C582 C 0.49217 0.49419 0.52462 0.0
C583 C 0.44882 0.45135 0.45678 0.0
C584 C 0.46773 0.47492 0.4759 0.0
C585 C 0.52009 0.54391 0.5326 0.0
C586 C 0.50279 0.51987 0.51284 0.0
H587 H 0.39107 0.44136 0.402 0.0
H588 H 0.42369 0.4803 0.43129 0.0
H589 H 0.4663 0.45289 0.51647 0.0
H590 H 0.57483 0.5555 0.59026 0.0
H591 H 0.54813 0.51605 0.55627 0.0
loop_
_geom_bond_atom_site_label_1
_geom_bond_atom_site_label_2
_geom_bond_distance
_geom_bond_site_symmetry_2
_ccdc_geom_bond_type
Mg0 O1 2.028 . S
Mg0 O7 1.986 . S
Mg0 O9 2.114 . S
Mg0 O10 2.251 . S
Mg0 O13 2.010 . S
O1 Mg0 2.028 . S
O1 C4 1.250 . S
O2 Mg3 2.028 . S
O2 C4 1.248 . S
Mg3 O2 2.028 . S
Mg3 O8 2.032 . S
Mg3 O10 2.079 . S
C4 O1 1.250 . S
C4 O2 1.248 . S
C5 O6 1.264 . S
C5 O13 1.249 . S
O6 C5 1.264 . S
O7 Mg0 1.986 . S
O7 C11 1.246 . S
O8 Mg3 2.032 . S
O8 C11 1.259 . S
O9 Mg0 2.114 . S
O9 C12 1.252 . S
O10 Mg0 2.251 . S
O10 Mg3 2.079 . S
O10 C12 1.273 . S
C11 O7 1.246 . S
C11 O8 1.259 . S
C12 O9 1.252 . S
C12 O10 1.273 . S
O13 Mg0 2.010 . S
O13 C5 1.249 . S
Mg14 O15 2.028 . S
Mg14 O21 1.986 . S
Mg14 O23 2.114 . S
Mg14 O24 2.251 . S
Mg14 O27 2.010 . S
O15 Mg14 2.028 . S
O15 C18 1.250 . S
O16 Mg17 2.028 . S
O16 C18 1.248 . S
Mg17 O16 2.028 . S
Mg17 O22 2.032 . S
Mg17 O24 2.079 . S
C18 O15 1.250 . S
C18 O16 1.248 . S
C19 O20 1.264 . S
C19 O27 1.249 . S
O20 C19 1.264 . S
O21 Mg14 1.986 . S
O21 C25 1.246 . S
O22 Mg17 2.032 . S
O22 C25 1.259 . S
O23 Mg14 2.114 . S
O23 C26 1.252 . S
O24 Mg14 2.251 . S
O24 Mg17 2.079 . S
O24 C26 1.273 . S
C25 O21 1.246 . S
C25 O22 1.259 . S
C26 O23 1.252 . S
C26 O24 1.273 . S
O27 Mg14 2.010 . S
O27 C19 1.249 . S
Mg28 O29 2.028 . S
Mg28 O35 1.986 . S
Mg28 O37 2.114 . S
Mg28 O38 2.251 . S
Mg28 O41 2.010 . S
O29 Mg28 2.028 . S
O29 C32 1.250 . S
O30 Mg31 2.028 . S
O30 C32 1.248 . S
Mg31 O30 2.028 . S
Mg31 O36 2.032 . S
Mg31 O38 2.079 . S
C32 O29 1.250 . S
C32 O30 1.248 . S
C33 O34 1.264 . S
C33 O41 1.249 . S
O34 C33 1.264 . S
O35 Mg28 1.986 . S
O35 C39 1.246 . S
O36 Mg31 2.032 . S
O36 C39 1.259 . S
O37 Mg28 2.114 . S
O37 C40 1.252 . S
O38 Mg28 2.251 . S
O38 Mg31 2.079 . S
O38 C40 1.273 . S
C39 O35 1.246 . S
C39 O36 1.259 . S
C40 O37 1.252 . S
C40 O38 1.273 . S
O41 Mg28 2.010 . S
O41 C33 1.249 . S
Mg42 O43 2.028 . S
Mg42 O49 1.986 . S
Mg42 O51 2.114 . S
Mg42 O52 2.251 . S
Mg42 O55 2.010 . S
O43 Mg42 2.028 . S
O43 C46 1.250 . S
O44 Mg45 2.028 . S
O44 C46 1.248 . S
Mg45 O44 2.028 . S
Mg45 O50 2.032 . S
Mg45 O52 2.079 . S
C46 O43 1.250 . S
C46 O44 1.248 . S
C47 O48 1.264 . S
C47 O55 1.249 . S
O48 C47 1.264 . S
O49 Mg42 1.986 . S
O49 C53 1.246 . S
O50 Mg45 2.032 . S
O50 C53 1.259 . S
O51 Mg42 2.114 . S
O51 C54 1.252 . S
O52 Mg42 2.251 . S
O52 Mg45 2.079 . S
O52 C54 1.273 . S
C53 O49 1.246 . S
C53 O50 1.259 . S
C54 O51 1.252 . S
C54 O52 1.273 . S
O55 Mg42 2.010 . S
O55 C47 1.249 . S
Mg56 O57 2.028 . S
Mg56 O63 1.986 . S
Mg56 O65 2.114 . S
Mg56 O66 2.251 . S
Mg56 O69 2.010 . S
O57 Mg56 2.028 . S
O57 C60 1.250 . S
O58 Mg59 2.028 . S
O58 C60 1.248 . S
Mg59 O58 2.028 . S
Mg59 O64 2.032 . S
Mg59 O66 2.079 . S
C60 O57 1.250 . S
C60 O58 1.248 . S
C61 O62 1.264 . S
C61 O69 1.249 . S
O62 C61 1.264 . S
O63 Mg56 1.986 . S
O63 C67 1.246 . S
O64 Mg59 2.032 . S
O64 C67 1.259 . S
O65 Mg56 2.114 . S
O65 C68 1.252 . S
O66 Mg56 2.251 . S
O66 Mg59 2.079 . S
O66 C68 1.273 . S
C67 O63 1.246 . S
C67 O64 1.259 . S
C68 O65 1.252 . S
C68 O66 1.273 . S
O69 Mg56 2.010 . S
O69 C61 1.249 . S
Mg70 O71 2.028 . S
Mg70 O77 1.986 . S
Mg70 O79 2.114 . S
Mg70 O80 2.251 . S
Mg70 O83 2.010 . S
O71 Mg70 2.028 . S
O71 C74 1.250 . S
O72 Mg73 2.028 . S
O72 C74 1.248 . S
Mg73 O72 2.028 . S
Mg73 O78 2.032 . S
Mg73 O80 2.079 . S
C74 O71 1.250 . S
C74 O72 1.248 . S
C75 O76 1.264 . S
C75 O83 1.249 . S
O76 C75 1.264 . S
O77 Mg70 1.986 . S
O77 C81 1.246 . S
O78 Mg73 2.032 . S
O78 C81 1.259 . S
O79 Mg70 2.114 . S
O79 C82 1.252 . S
O80 Mg70 2.251 . S
O80 Mg73 2.079 . S
O80 C82 1.273 . S
C81 O77 1.246 . S
C81 O78 1.259 . S
C82 O79 1.252 . S
C82 O80 1.273 . S
O83 Mg70 2.010 . S
O83 C75 1.249 . S
Mg84 O85 2.028 . S
Mg84 O91 1.986 . S
Mg84 O93 2.114 . S
Mg84 O94 2.251 . S
Mg84 O97 2.010 . S
O85 Mg84 2.028 . S
O85 C88 1.250 . S
O86 Mg87 2.028 . S
O86 C88 1.248 . S
Mg87 O86 2.028 . S
Mg87 O92 2.032 . S
Mg87 O94 2.079 . S
C88 O85 1.250 . S
C88 O86 1.248 . S
C89 O90 1.264 . S
C89 O97 1.249 . S
O90 C89 1.264 . S
O91 Mg84 1.986 . S
O91 C95 1.246 . S
O92 Mg87 2.032 . S
O92 C95 1.259 . S
O93 Mg84 2.114 . S
O93 C96 1.252 . S
O94 Mg84 2.251 . S
O94 Mg87 2.079 . S
O94 C96 1.273 . S
C95 O91 1.246 . S
C95 O92 1.259 . S
C96 O93 1.252 . S
C96 O94 1.273 . S
O97 Mg84 2.010 . S
O97 C89 1.249 . S
Mg98 O99 2.028 . S
Mg98 O105 1.986 . S
Mg98 O107 2.114 . S
Mg98 O108 2.251 . S
Mg98 O111 2.010 . S
O99 Mg98 2.028 . S
O99 C102 1.250 . S
O100 Mg101 2.028 . S
O100 C102 1.248 . S
Mg101 O100 2.028 . S
Mg101 O106 2.032 . S
Mg101 O108 2.079 . S
C102 O99 1.250 . S
C102 O100 1.248 . S
C103 O104 1.264 . S
C103 O111 1.249 . S
O104 C103 1.264 . S
O105 Mg98 1.986 . S
O105 C109 1.246 . S
O106 Mg101 2.032 . S
O106 C109 1.259 . S
O107 Mg98 2.114 . S
O107 C110 1.252 . S
O108 Mg98 2.251 . S
O108 Mg101 2.079 . S
O108 C110 1.273 . S
C109 O105 1.246 . S
C109 O106 1.259 . S
C110 O107 1.252 . S
C110 O108 1.273 . S
O111 Mg98 2.010 . S
O111 C103 1.249 . S
C112 C113 1.349 . S
C112 C114 1.327 . S
C112 H137 0.950 . S
C113 C112 1.349 . S
C113 C129 1.349 . S
C114 C112 1.327 . S
C114 C133 1.429 . S
C114 H138 0.950 . S
C115 C132 1.574 . S
C115 C134 1.368 . S
C115 H139 0.949 . S
H116 C120 0.949 . S
C117 C118 1.349 . S
C117 C119 1.327 . S
C117 H140 0.950 . S
C118 C117 1.349 . S
C118 C130 1.349 . S
C119 C117 1.327 . S
C119 C135 1.429 . S
C119 H141 0.950 . S
C120 H116 0.949 . S
C120 C128 1.574 . S
C120 C136 1.368 . S
H121 C129 0.950 . S
H122 C127 0.950 . S
H123 C128 0.949 . S
H124 C130 0.950 . S
H125 C131 0.950 . S
H126 C132 0.949 . S
C127 H122 0.950 . S
C127 C129 1.327 . S
C127 C133 1.429 . S
C128 C120 1.574 . S
C128 H123 0.949 . S
C128 C134 1.368 . S
C129 C113 1.349 . S
C129 H121 0.950 . S
C129 C127 1.327 . S
C130 C118 1.349 . S
C130 H124 0.950 . S
C130 C131 1.327 . S
C131 H125 0.950 . S
C131 C130 1.327 . S
C131 C135 1.429 . S
C132 C115 1.574 . S
C132 H126 0.949 . S
C132 C136 1.368 . S
C133 C114 1.429 . S
C133 C127 1.429 . S
C133 C134 1.523 . S
C134 C115 1.368 . S
C134 C128 1.368 . S
C134 C133 1.523 . S
C135 C119 1.429 . S
C135 C131 1.429 . S
C135 C136 1.523 . S
C136 C120 1.368 . S
C136 C132 1.368 . S
C136 C135 1.523 . S
H137 C112 0.950 . S
H138 C114 0.950 . S
H139 C115 0.949 . S
H140 C117 0.950 . S
H141 C119 0.950 . S
C142 C143 1.349 . S
C142 C144 1.327 . S
C142 H167 0.950 . S
C143 C142 1.349 . S
C143 C159 1.349 . S
C144 C142 1.327 . S
C144 C163 1.429 . S
C144 H168 0.950 . S
C145 C162 1.574 . S
C145 C164 1.368 . S
C145 H169 0.949 . S
H146 C150 0.949 . S
C147 C148 1.349 . S
C147 C149 1.327 . S
C147 H170 0.950 . S
C148 C147 1.349 . S
C148 C160 1.349 . S
C149 C147 1.327 . S
C149 C165 1.429 . S
C149 H171 0.950 . S
C150 H146 0.949 . S
C150 C158 1.574 . S
C150 C166 1.368 . S
H151 C159 0.950 . S
H152 C157 0.950 . S
H153 C158 0.949 . S
H154 C160 0.950 . S
H155 C161 0.950 . S
H156 C162 0.949 . S
C157 H152 0.950 . S
C157 C159 1.327 . S
C157 C163 1.429 . S
C158 C150 1.574 . S
C158 H153 0.949 . S
C158 C164 1.368 . S
C159 C143 1.349 . S
C159 H151 0.950 . S
C159 C157 1.327 . S
C160 C148 1.349 . S
C160 H154 0.950 . S
C160 C161 1.327 . S
C161 H155 0.950 . S
C161 C160 1.327 . S
C161 C165 1.429 . S
C162 C145 1.574 . S
C162 H156 0.949 . S
C162 C166 1.368 . S
C163 C144 1.429 . S
C163 C157 1.429 . S
C163 C164 1.523 . S
C164 C145 1.368 . S
C164 C158 1.368 . S
C164 C163 1.523 . S
C165 C149 1.429 . S
C165 C161 1.429 . S
C165 C166 1.523 . S
C166 C150 1.368 . S
C166 C162 1.368 . S
C166 C165 1.523 . S
H167 C142 0.950 . S
H168 C144 0.950 . S
H169 C145 0.949 . S
H170 C147 0.950 . S
H171 C149 0.950 . S
C172 C173 1.349 . S
C172 C174 1.327 . S
C172 H197 0.950 . S
C173 C172 1.349 . S
C173 C189 1.349 . S
C174 C172 1.327 . S
C174 C193 1.429 . S
C174 H198 0.950 . S
C175 C192 1.574 1_545 S
C175 C194 1.368 . S
C175 H199 0.949 . S
H176 C180 0.949 . S
C177 C178 1.349 . S
C177 C179 1.327 . S
C177 H200 0.950 . S
C178 C177 1.349 . S
C178 C190 1.349 . S
C179 C177 1.327 . S
C179 C195 1.429 . S
C179 H201 0.950 . S
C180 H176 0.949 . S
C180 C188 1.574 1_565 S
C180 C196 1.368 . S
H181 C189 0.950 . S
H182 C187 0.950 . S
H183 C188 0.949 . S
H184 C190 0.950 . S
H185 C191 0.950 . S
H186 C192 0.949 . S
C187 H182 0.950 . S
C187 C189 1.327 . S
C187 C193 1.429 . S
C188 C180 1.574 1_545 S
C188 H183 0.949 . S
C188 C194 1.368 1_556 S
C189 C173 1.349 . S
C189 H181 0.950 . S
C189 C187 1.327 . S
C190 C178 1.349 . S
C190 H184 0.950 . S
C190 C191 1.327 . S
C191 H185 0.950 . S
C191 C190 1.327 . S
C191 C195 1.429 . S
C192 C175 1.574 1_565 S
C192 H186 0.949 . S
C192 C196 1.368 1_554 S
C193 C174 1.429 . S
C193 C187 1.429 . S
C193 C194 1.523 . S
C194 C175 1.368 . S
C194 C188 1.368 1_554 S
C194 C193 1.523 . S
C195 C179 1.429 . S
C195 C191 1.429 . S
C195 C196 1.523 . S
C196 C180 1.368 . S
C196 C192 1.368 1_556 S
C196 C195 1.523 . S
H197 C172 0.950 . S
H198 C174 0.950 . S
H199 C175 0.949 . S
H200 C177 0.950 . S
H201 C179 0.950 . S
C202 C203 1.349 . S
C202 C204 1.327 . S
C202 H227 0.950 . S
C203 C202 1.349 . S
C203 C219 1.349 . S
C204 C202 1.327 . S
C204 C223 1.429 . S
C204 H228 0.950 . S
C205 C222 1.574 1_655 S
C205 C224 1.368 . S
C205 H229 0.949 . S
H206 C210 0.949 . S
C207 C208 1.349 . S
C207 C209 1.327 . S
C207 H230 0.950 . S
C208 C207 1.349 . S
C208 C220 1.349 . S
C209 C207 1.327 . S
C209 C225 1.429 . S
C209 H231 0.950 . S
C210 H206 0.949 . S
C210 C218 1.574 1_455 S
C210 C226 1.368 . S
H211 C219 0.950 . S
H212 C217 0.950 . S
H213 C218 0.949 . S
H214 C220 0.950 . S
H215 C221 0.950 . S
H216 C222 0.949 . S
C217 H212 0.950 . S
C217 C219 1.327 . S
C217 C223 1.429 . S
C218 C210 1.574 1_655 S
C218 H213 0.949 . S
C218 C224 1.368 . S
C219 C203 1.349 . S
C219 H211 0.950 . S
C219 C217 1.327 . S
C220 C208 1.349 . S
C220 H214 0.950 . S
C220 C221 1.327 . S
C221 H215 0.950 . S
C221 C220 1.327 . S
C221 C225 1.429 . S
C222 C205 1.574 1_455 S
C222 H216 0.949 . S
C222 C226 1.368 . S
C223 C204 1.429 . S
C223 C217 1.429 . S
C223 C224 1.523 . S
C224 C205 1.368 . S
C224 C218 1.368 . S
C224 C223 1.523 . S
C225 C209 1.429 . S
C225 C221 1.429 . S
C225 C226 1.523 . S
C226 C210 1.368 . S
C226 C222 1.368 . S
C226 C225 1.523 . S
H227 C202 0.950 . S
H228 C204 0.950 . S
H229 C205 0.949 . S
H230 C207 0.950 . S
H231 C209 0.950 . S
C232 C233 1.349 . S
C232 C234 1.327 . S
C232 H257 0.950 . S
C233 C232 1.349 . S
C233 C249 1.349 . S
C234 C232 1.327 . S
C234 C253 1.429 . S
C234 H258 0.950 . S
C235 C252 1.574 1_565 S
C235 C254 1.368 . S
C235 H259 0.949 . S
H236 C240 0.949 . S
C237 C238 1.349 . S
C237 C239 1.327 . S
C237 H260 0.950 . S
C238 C237 1.349 . S
C238 C250 1.349 . S
C239 C237 1.327 . S
C239 C255 1.429 . S
C239 H261 0.950 . S
C240 H236 0.949 . S
C240 C248 1.574 1_545 S
C240 C256 1.368 . S
H241 C249 0.950 . S
H242 C247 0.950 . S
H243 C248 0.949 . S
H244 C250 0.950 . S
H245 C251 0.950 . S
H246 C252 0.949 . S
C247 H242 0.950 . S
C247 C249 1.327 . S
C247 C253 1.429 . S
C248 C240 1.574 1_565 S
C248 H243 0.949 . S
C248 C254 1.368 . S
C249 C233 1.349 . S
C249 H241 0.950 . S
C249 C247 1.327 . S
C250 C238 1.349 . S
C250 H244 0.950 . S
C250 C251 1.327 . S
C251 H245 0.950 . S
C251 C250 1.327 . S
C251 C255 1.429 . S
C252 C235 1.574 1_545 S
C252 H246 0.949 . S
C252 C256 1.368 . S
C253 C234 1.429 . S
C253 C247 1.429 . S
C253 C254 1.523 . S
C254 C235 1.368 . S
C254 C248 1.368 . S
C254 C253 1.523 . S
C255 C239 1.429 . S
C255 C251 1.429 . S
C255 C256 1.523 . S
C256 C240 1.368 . S
C256 C252 1.368 . S
C256 C255 1.523 . S
H257 C232 0.950 . S
H258 C234 0.950 . S
H259 C235 0.949 . S
H260 C237 0.950 . S
H261 C239 0.950 . S
C262 C263 1.349 . S
C262 C264 1.327 . S
C262 H287 0.950 . S
C263 C262 1.349 . S
C263 C279 1.349 . S
C264 C262 1.327 . S
C264 C283 1.429 . S
C264 H288 0.950 . S
C265 C282 1.574 1_556 S
C265 C284 1.368 . S
C265 H289 0.949 . S
H266 C270 0.949 . S
C267 C268 1.349 . S
C267 C269 1.327 . S
C267 H290 0.950 . S
C268 C267 1.349 . S
C268 C280 1.349 . S
C269 C267 1.327 . S
C269 C285 1.429 . S
C269 H291 0.950 . S
C270 H266 0.949 . S
C270 C278 1.563 1_454 S
C270 C286 1.368 . S
H271 C279 0.950 . S
H272 C277 0.950 . S
H273 C278 0.949 . S
H274 C280 0.950 . S
H275 C281 0.950 . S
H276 C282 0.949 . S
C277 H272 0.950 . S
C277 C279 1.327 . S
C277 C283 1.429 . S
C278 C270 1.563 1_656 S
C278 H273 0.949 . S
C278 C284 1.380 . S
C279 C263 1.349 . S
C279 H271 0.950 . S
C279 C277 1.327 . S
C280 C268 1.349 . S
C280 H274 0.950 . S
C280 C281 1.327 . S
C281 H275 0.950 . S
C281 C280 1.327 . S
C281 C285 1.429 . S
C282 C265 1.574 1_554 S
C282 H276 0.949 . S
C282 C286 1.368 1_655 S
C283 C264 1.429 . S
C283 C277 1.429 . S
C283 C284 1.523 . S
C284 C265 1.368 . S
C284 C278 1.380 . S
C284 C283 1.523 . S
C285 C269 1.429 . S
C285 C281 1.429 . S
C285 C286 1.523 . S
C286 C270 1.368 . S
C286 C282 1.368 1_455 S
C286 C285 1.523 . S
H287 C262 0.950 . S
H288 C264 0.950 . S
H289 C265 0.949 . S
H290 C267 0.950 . S
H291 C269 0.950 . S
C292 C293 1.349 . S
C292 C294 1.327 . S
C292 H317 0.950 . S
C293 C292 1.349 . S
C293 C309 1.349 . S
C294 C292 1.327 . S
C294 C313 1.429 . S
C294 H318 0.950 . S
C295 C312 1.574 . S
C295 C314 1.368 . S
C295 H319 0.949 . S
H296 C300 0.949 . S
C297 C298 1.349 . S
C297 C299 1.327 . S
C297 H320 0.950 . S
C298 C297 1.349 . S
C298 C310 1.349 . S
C299 C297 1.327 . S
C299 C315 1.429 . S
C299 H321 0.950 . S
C300 H296 0.949 . S
C300 C308 1.574 . S
C300 C316 1.368 . S
H301 C309 0.950 . S
H302 C307 0.950 . S
H303 C308 0.949 . S
H304 C310 0.950 . S
H305 C311 0.950 . S
H306 C312 0.949 . S
C307 H302 0.950 . S
C307 C309 1.327 . S
C307 C313 1.429 . S
C308 C300 1.574 . S
C308 H303 0.949 . S
C308 C314 1.368 . S
C309 C293 1.349 . S
C309 H301 0.950 . S
C309 C307 1.327 . S
C310 C298 1.349 . S
C310 H304 0.950 . S
C310 C311 1.327 . S
C311 H305 0.950 . S
C311 C310 1.327 . S
C311 C315 1.429 . S
C312 C295 1.574 . S
C312 H306 0.949 . S
C312 C316 1.368 . S
C313 C294 1.429 . S
C313 C307 1.429 . S
C313 C314 1.523 . S
C314 C295 1.368 . S
C314 C308 1.368 . S
C314 C313 1.523 . S
C315 C299 1.429 . S
C315 C311 1.429 . S
C315 C316 1.523 . S
C316 C300 1.368 . S
C316 C312 1.368 . S
C316 C315 1.523 . S
H317 C292 0.950 . S
H318 C294 0.950 . S
H319 C295 0.949 . S
H320 C297 0.950 . S
H321 C299 0.950 . S
C322 C323 1.349 . S
C322 C324 1.327 . S
C322 H347 0.950 . S
C323 C322 1.349 . S
C323 C339 1.349 . S
C324 C322 1.327 . S
C324 C343 1.429 . S
C324 H348 0.950 . S
C325 C342 1.574 . S
C325 C344 1.368 . S
C325 H349 0.949 . S
H326 C330 0.949 . S
C327 C328 1.349 . S
C327 C329 1.327 . S
C327 H350 0.950 . S
C328 C327 1.349 . S
C328 C340 1.349 . S
C329 C327 1.327 . S
C329 C345 1.429 . S
C329 H351 0.950 . S
C330 H326 0.949 . S
C330 C338 1.574 . S
C330 C346 1.368 . S
H331 C339 0.950 . S
H332 C337 0.950 . S
H333 C338 0.949 . S
H334 C340 0.950 . S
H335 C341 0.950 . S
H336 C342 0.949 . S
C337 H332 0.950 . S
C337 C339 1.327 . S
C337 C343 1.429 . S
C338 C330 1.574 . S
C338 H333 0.949 . S
C338 C344 1.368 . S
C339 C323 1.349 . S
C339 H331 0.950 . S
C339 C337 1.327 . S
C340 C328 1.349 . S
C340 H334 0.950 . S
C340 C341 1.327 . S
C341 H335 0.950 . S
C341 C340 1.327 . S
C341 C345 1.429 . S
C342 C325 1.574 . S
C342 H336 0.949 . S
C342 C346 1.368 . S
C343 C324 1.429 . S
C343 C337 1.429 . S
C343 C344 1.523 . S
C344 C325 1.368 . S
C344 C338 1.368 . S
C344 C343 1.523 . S
C345 C329 1.429 . S
C345 C341 1.429 . S
C345 C346 1.523 . S
C346 C330 1.368 . S
C346 C342 1.368 . S
C346 C345 1.523 . S
H347 C322 0.950 . S
H348 C324 0.950 . S
H349 C325 0.949 . S
H350 C327 0.950 . S
H351 C329 0.950 . S
C352 C353 1.349 . S
C352 C354 1.327 . S
C352 H377 0.950 . S
C353 C352 1.349 . S
C353 C369 1.349 . S
C354 C352 1.327 . S
C354 C373 1.429 . S
C354 H378 0.950 . S
C355 C372 1.574 . S
C355 C374 1.368 . S
C355 H379 0.949 . S
H356 C360 0.949 . S
C357 C358 1.349 . S
C357 C359 1.327 . S
C357 H380 0.950 . S
C358 C357 1.349 . S
C358 C370 1.349 . S
C359 C357 1.327 . S
C359 C375 1.429 . S
C359 H381 0.950 . S
C360 H356 0.949 . S
C360 C368 1.574 . S
C360 C376 1.368 . S
H361 C369 0.950 . S
H362 C367 0.950 . S
H363 C368 0.949 . S
H364 C370 0.950 . S
H365 C371 0.950 . S
H366 C372 0.949 . S
C367 H362 0.950 . S
C367 C369 1.327 . S
C367 C373 1.429 . S
C368 C360 1.574 . S
C368 H363 0.949 . S
C368 C374 1.368 . S
C369 C353 1.349 . S
C369 H361 0.950 . S
C369 C367 1.327 . S
C370 C358 1.349 . S
C370 H364 0.950 . S
C370 C371 1.327 . S
C371 H365 0.950 . S
C371 C370 1.327 . S
C371 C375 1.429 . S
C372 C355 1.574 . S
C372 H366 0.949 . S
C372 C376 1.368 . S
C373 C354 1.429 . S
C373 C367 1.429 . S
C373 C374 1.523 . S
C374 C355 1.368 . S
C374 C368 1.368 . S
C374 C373 1.523 . S
C375 C359 1.429 . S
C375 C371 1.429 . S
C375 C376 1.523 . S
C376 C360 1.368 . S
C376 C372 1.368 . S
C376 C375 1.523 . S
H377 C352 0.950 . S
H378 C354 0.950 . S
H379 C355 0.949 . S
H380 C357 0.950 . S
H381 C359 0.950 . S
C382 C383 1.349 . S
C382 C384 1.327 . S
C382 H407 0.950 . S
C383 C382 1.349 . S
C383 C399 1.349 . S
C384 C382 1.327 . S
C384 C403 1.429 . S
C384 H408 0.950 . S
C385 C402 1.574 . S
C385 C404 1.368 1_554 S
C385 H409 0.949 . S
H386 C390 0.949 . S
C387 C388 1.349 . S
C387 C389 1.327 . S
C387 H410 0.950 . S
C388 C387 1.349 . S
C388 C400 1.349 . S
C389 C387 1.327 . S
C389 C405 1.429 . S
C389 H411 0.950 . S
C390 H386 0.949 . S
C390 C398 1.574 . S
C390 C406 1.368 1_556 S
H391 C399 0.950 . S
H392 C397 0.950 . S
H393 C398 0.949 . S
H394 C400 0.950 . S
H395 C401 0.950 . S
H396 C402 0.949 . S
C397 H392 0.950 . S
C397 C399 1.327 . S
C397 C403 1.429 . S
C398 C390 1.574 . S
C398 H393 0.949 . S
C398 C404 1.368 . S
C399 C383 1.349 . S
C399 H391 0.950 . S
C399 C397 1.327 . S
C400 C388 1.349 . S
C400 H394 0.950 . S
C400 C401 1.327 . S
C401 H395 0.950 . S
C401 C400 1.327 . S
C401 C405 1.429 . S
C402 C385 1.574 . S
C402 H396 0.949 . S
C402 C406 1.368 . S
C403 C384 1.429 . S
C403 C397 1.429 . S
C403 C404 1.523 . S
C404 C385 1.368 1_556 S
C404 C398 1.368 . S
C404 C403 1.523 . S
C405 C389 1.429 . S
C405 C401 1.429 . S
C405 C406 1.523 . S
C406 C390 1.368 1_554 S
C406 C402 1.368 . S
C406 C405 1.523 . S
H407 C382 0.950 . S
H408 C384 0.950 . S
H409 C385 0.949 . S
H410 C387 0.950 . S
H411 C389 0.950 . S
C412 C413 1.349 . S
C412 C414 1.327 . S
C412 H437 0.950 . S
C413 C412 1.349 . S
C413 C429 1.349 . S
C414 C412 1.327 . S
C414 C433 1.429 . S
C414 H438 0.950 . S
C415 C432 1.574 . S
C415 C434 1.368 . S
C415 H439 0.949 . S
H416 C420 0.949 . S
C417 C418 1.349 . S
C417 C419 1.327 . S
C417 H440 0.950 . S
C418 C417 1.349 . S
C418 C430 1.349 . S
C419 C417 1.327 . S
C419 C435 1.429 . S
C419 H441 0.950 . S
C420 H416 0.949 . S
C420 C428 1.574 . S
C420 C436 1.368 . S
H421 C429 0.950 . S
H422 C427 0.950 . S
H423 C428 0.949 . S
H424 C430 0.950 . S
H425 C431 0.950 . S
H426 C432 0.949 . S
C427 H422 0.950 . S
C427 C429 1.327 . S
C427 C433 1.429 . S
C428 C420 1.574 . S
C428 H423 0.949 . S
C428 C434 1.368 1_545 S
C429 C413 1.349 . S
C429 H421 0.950 . S
C429 C427 1.327 . S
C430 C418 1.349 . S
C430 H424 0.950 . S
C430 C431 1.327 . S
C431 H425 0.950 . S
C431 C430 1.327 . S
C431 C435 1.429 . S
C432 C415 1.574 . S
C432 H426 0.949 . S
C432 C436 1.368 1_565 S
C433 C414 1.429 . S
C433 C427 1.429 . S
C433 C434 1.523 . S
C434 C415 1.368 . S
C434 C428 1.368 1_565 S
C434 C433 1.523 . S
C435 C419 1.429 . S
C435 C431 1.429 . S
C435 C436 1.523 . S
C436 C420 1.368 . S
C436 C432 1.368 1_545 S
C436 C435 1.523 . S
H437 C412 0.950 . S
H438 C414 0.950 . S
H439 C415 0.949 . S
H440 C417 0.950 . S
H441 C419 0.950 . S
C442 C443 1.349 . S
C442 C444 1.327 . S
C442 H467 0.950 . S
C443 C442 1.349 . S
C443 C459 1.349 . S
C444 C442 1.327 . S
C444 C463 1.429 . S
C444 H468 0.950 . S
C445 C462 1.574 . S
C445 C464 1.368 1_455 S
C445 H469 0.949 . S
H446 C450 0.949 . S
C447 C448 1.349 . S
C447 C449 1.327 . S
C447 H470 0.950 . S
C448 C447 1.349 . S
C448 C460 1.349 . S
C449 C447 1.327 . S
C449 C465 1.429 . S
C449 H471 0.950 . S
C450 H446 0.949 . S
C450 C458 1.574 . S
C450 C466 1.368 1_655 S
H451 C459 0.950 . S
H452 C457 0.950 . S
H453 C458 0.949 . S
H454 C460 0.950 . S
H455 C461 0.950 . S
H456 C462 0.949 . S
C457 H452 0.950 . S
C457 C459 1.327 . S
C457 C463 1.429 . S
C458 C450 1.574 . S
C458 H453 0.949 . S
C458 C464 1.368 1_545 S
C459 C443 1.349 . S
C459 H451 0.950 . S
C459 C457 1.327 . S
C460 C448 1.349 . S
C460 H454 0.950 . S
C460 C461 1.327 . S
C461 H455 0.950 . S
C461 C460 1.327 . S
C461 C465 1.429 . S
C462 C445 1.574 . S
C462 H456 0.949 . S
C462 C466 1.368 1_565 S
C463 C444 1.429 . S
C463 C457 1.429 . S
C463 C464 1.523 . S
C464 C445 1.368 1_655 S
C464 C458 1.368 1_565 S
C464 C463 1.523 . S
C465 C449 1.429 . S
C465 C461 1.429 . S
C465 C466 1.523 . S
C466 C450 1.368 1_455 S
C466 C462 1.368 1_545 S
C466 C465 1.523 . S
H467 C442 0.950 . S
H468 C444 0.950 . S
H469 C445 0.949 . S
H470 C447 0.950 . S
H471 C449 0.950 . S
C472 C473 1.349 . S
C472 C474 1.327 . S
C472 H497 0.950 . S
C473 C472 1.349 . S
C473 C489 1.349 . S
C474 C472 1.327 . S
C474 C493 1.429 . S
C474 H498 0.950 . S
C475 C492 1.574 . S
C475 C494 1.368 1_455 S
C475 H499 0.949 . S
H476 C480 0.949 . S
C477 C478 1.349 . S
C477 C479 1.327 . S
C477 H500 0.950 . S
C478 C477 1.349 . S
C478 C490 1.349 . S
C479 C477 1.327 . S
C479 C495 1.429 . S
C479 H501 0.950 . S
C480 H476 0.949 . S
C480 C488 1.574 . S
C480 C496 1.368 1_655 S
H481 C489 0.950 . S
H482 C487 0.950 . S
H483 C488 0.949 . S
H484 C490 0.950 . S
H485 C491 0.950 . S
H486 C492 0.949 . S
C487 H482 0.950 . S
C487 C489 1.327 . S
C487 C493 1.429 . S
C488 C480 1.574 . S
C488 H483 0.949 . S
C488 C494 1.368 . S
C489 C473 1.349 . S
C489 H481 0.950 . S
C489 C487 1.327 . S
C490 C478 1.349 . S
C490 H484 0.950 . S
C490 C491 1.327 . S
C491 H485 0.950 . S
C491 C490 1.327 . S
C491 C495 1.429 . S
C492 C475 1.574 . S
C492 H486 0.949 . S
C492 C496 1.368 . S
C493 C474 1.429 . S
C493 C487 1.429 . S
C493 C494 1.523 . S
C494 C475 1.368 1_655 S
C494 C488 1.368 . S
C494 C493 1.523 . S
C495 C479 1.429 . S
C495 C491 1.429 . S
C495 C496 1.523 . S
C496 C480 1.368 1_455 S
C496 C492 1.368 . S
C496 C495 1.523 . S
H497 C472 0.950 . S
H498 C474 0.950 . S
H499 C475 0.949 . S
H500 C477 0.950 . S
H501 C479 0.950 . S
C502 C503 1.349 . S
C502 C504 1.327 . S
C502 H527 0.950 . S
C503 C502 1.349 . S
C503 C519 1.349 . S
C504 C502 1.327 . S
C504 C523 1.429 . S
C504 H528 0.950 . S
C505 C522 1.574 . S
C505 C524 1.368 . S
C505 H529 0.949 . S
H506 C510 0.949 . S
C507 C508 1.349 . S
C507 C509 1.327 . S
C507 H530 0.950 . S
C508 C507 1.349 . S
C508 C520 1.349 . S
C509 C507 1.327 . S
C509 C525 1.429 . S
C509 H531 0.950 . S
C510 H506 0.949 . S
C510 C518 1.574 . S
C510 C526 1.368 . S
H511 C519 0.950 . S
H512 C517 0.950 . S
H513 C518 0.949 . S
H514 C520 0.950 . S
H515 C521 0.950 . S
H516 C522 0.949 . S
C517 H512 0.950 . S
C517 C519 1.327 . S
C517 C523 1.429 . S
C518 C510 1.574 . S
C518 H513 0.949 . S
C518 C524 1.368 . S
C519 C503 1.349 . S
C519 H511 0.950 . S
C519 C517 1.327 . S
C520 C508 1.349 . S
C520 H514 0.950 . S
C520 C521 1.327 . S
C521 H515 0.950 . S
C521 C520 1.327 . S
C521 C525 1.429 . S
C522 C505 1.574 . S
C522 H516 0.949 . S
C522 C526 1.368 . S
C523 C504 1.429 . S
C523 C517 1.429 . S
C523 C524 1.523 . S
C524 C505 1.368 . S
C524 C518 1.368 . S
C524 C523 1.523 . S
C525 C509 1.429 . S
C525 C521 1.429 . S
C525 C526 1.523 . S
C526 C510 1.368 . S
C526 C522 1.368 . S
C526 C525 1.523 . S
H527 C502 0.950 . S
H528 C504 0.950 . S
H529 C505 0.949 . S
H530 C507 0.950 . S
H531 C509 0.950 . S
C532 C533 1.349 . S
C532 C534 1.327 . S
C532 H557 0.950 . S
C533 C532 1.349 . S
C533 C549 1.349 . S
C534 C532 1.327 . S
C534 C553 1.429 . S
C534 H558 0.950 . S
C535 C552 1.574 1_554 S
C535 C554 1.368 . S
C535 H559 0.949 . S
H536 C540 0.949 . S
C537 C538 1.349 . S
C537 C539 1.327 . S
C537 H560 0.950 . S
C538 C537 1.349 . S
C538 C550 1.349 . S
C539 C537 1.327 . S
C539 C555 1.429 . S
C539 H561 0.950 . S
C540 H536 0.949 . S
C540 C548 1.574 1_556 S
C540 C556 1.368 . S
H541 C549 0.950 . S
H542 C547 0.950 . S
H543 C548 0.949 . S
H544 C550 0.950 . S
H545 C551 0.950 . S
H546 C552 0.949 . S
C547 H542 0.950 . S
C547 C549 1.327 . S
C547 C553 1.429 . S
C548 C540 1.574 1_554 S
C548 H543 0.949 . S
C548 C554 1.368 . S
C549 C533 1.349 . S
C549 H541 0.950 . S
C549 C547 1.327 . S
C550 C538 1.349 . S
C550 H544 0.950 . S
C550 C551 1.327 . S
C551 H545 0.950 . S
C551 C550 1.327 . S
C551 C555 1.429 . S
C552 C535 1.574 1_556 S
C552 H546 0.949 . S
C552 C556 1.368 . S
C553 C534 1.429 . S
C553 C547 1.429 . S
C553 C554 1.523 . S
C554 C535 1.368 . S
C554 C548 1.368 . S
C554 C553 1.523 . S
C555 C539 1.429 . S
C555 C551 1.429 . S
C555 C556 1.523 . S
C556 C540 1.368 . S
C556 C552 1.368 . S
C556 C555 1.523 . S
H557 C532 0.950 . S
H558 C534 0.950 . S
H559 C535 0.949 . S
H560 C537 0.950 . S
H561 C539 0.950 . S
C562 C563 1.349 . S
C562 C564 1.327 . S
C562 H587 0.950 . S
C563 C562 1.349 . S
C563 C579 1.349 . S
C564 C562 1.327 . S
C564 C583 1.429 . S
C564 H588 0.950 . S
C565 C582 1.574 . S
C565 C584 1.368 . S
C565 H589 0.949 . S
H566 C570 0.949 . S
C567 C568 1.349 . S
C567 C569 1.327 . S
C567 H590 0.950 . S
C568 C567 1.349 . S
C568 C580 1.349 . S
C569 C567 1.327 . S
C569 C585 1.429 . S
C569 H591 0.950 . S
C570 H566 0.949 . S
C570 C578 1.574 . S
C570 C586 1.368 . S
H571 C579 0.950 . S
H572 C577 0.950 . S
H573 C578 0.949 . S
H574 C580 0.950 . S
H575 C581 0.950 . S
H576 C582 0.949 . S
C577 H572 0.950 . S
C577 C579 1.327 . S
C577 C583 1.429 . S
C578 C570 1.574 . S
C578 H573 0.949 . S
C578 C584 1.368 . S
C579 C563 1.349 . S
C579 H571 0.950 . S
C579 C577 1.327 . S
C580 C568 1.349 . S
C580 H574 0.950 . S
C580 C581 1.327 . S
C581 H575 0.950 . S
C581 C580 1.327 . S
C581 C585 1.429 . S
C582 C565 1.574 . S
C582 H576 0.949 . S
C582 C586 1.368 . S
C583 C564 1.429 . S
C583 C577 1.429 . S
C583 C584 1.523 . S
C584 C565 1.368 . S
C584 C578 1.368 . S
C584 C583 1.523 . S
C585 C569 1.429 . S
C585 C581 1.429 . S
C585 C586 1.523 . S
C586 C570 1.368 . S
C586 C582 1.368 . S
C586 C585 1.523 . S
H587 C562 0.950 . S
H588 C564 0.950 . S
H589 C565 0.949 . S
H590 C567 0.950 . S
H591 C569 0.950 . S
C113 C82 1.500 . S
C118 C11 1.474 . S
C143 C103 1.263 . S
C148 C19 1.263 . S
C173 C32 1.461 . S
C178 C88 1.461 . S
C203 C53 1.474 . S
C208 C68 1.500 . S
C233 C89 1.263 . S
C238 C5 1.263 . S
C263 C18 1.461 . S
C268 C60 1.461 . S
C293 C81 1.474 . S
C298 C40 1.500 . S
C323 C54 1.500 . S
C328 C109 1.474 . S
C353 C61 1.263 . S
C358 C75 1.263 . S
C383 C26 1.500 . S
C388 C39 1.474 . S
C413 C47 1.263 . S
C418 C33 1.263 . S
C443 C46 1.461 . S
C448 C4 1.461 . S
C473 C25 1.474 . S
C478 C12 1.500 . S
C503 C110 1.500 . S
C508 C95 1.474 . S
C533 C67 1.474 . S
C538 C96 1.500 . S
C563 C74 1.461 . S
C568 C102 1.461 . S
