# Generated by pormake.
# Topology uoi, (4)-cn, num edge types: 1
# Building blocks:
#     Node 0, Type 0, BuildingBlock: QUQFOY_clean_sbu_3, # of connection points: 4
#     Node 1, Type 0, BuildingBlock: QUQFOY_clean_sbu_3, # of connection points: 4
#     Node 2, Type 0, BuildingBlock: QUQFOY_clean_sbu_3, # of connection points: 4
#     Node 3, Type 0, BuildingBlock: QUQFOY_clean_sbu_3, # of connection points: 4
#     Node 4, Type 0, BuildingBlock: QUQFOY_clean_sbu_3, # of connection points: 4
#     Node 5, Type 0, BuildingBlock: QUQFOY_clean_sbu_3, # of connection points: 4
#     Node 6, Type 0, BuildingBlock: QUQFOY_clean_sbu_3, # of connection points: 4
#     Node 7, Type 0, BuildingBlock: QUQFOY_clean_sbu_3, # of connection points: 4
#     Node 8, Type 0, BuildingBlock: QUQFOY_clean_sbu_3, # of connection points: 4
#     Node 9, Type 0, BuildingBlock: QUQFOY_clean_sbu_3, # of connection points: 4
#     Node 10, Type 0, BuildingBlock: QUQFOY_clean_sbu_3, # of connection points: 4
#     Node 11, Type 0, BuildingBlock: QUQFOY_clean_sbu_3, # of connection points: 4
#     Node 12, Type 0, BuildingBlock: QUQFOY_clean_sbu_3, # of connection points: 4
#     Node 13, Type 0, BuildingBlock: QUQFOY_clean_sbu_3, # of connection points: 4
#     Node 14, Type 0, BuildingBlock: QUQFOY_clean_sbu_3, # of connection points: 4
#     Node 15, Type 0, BuildingBlock: QUQFOY_clean_sbu_3, # of connection points: 4
#     Node 16, Type 0, BuildingBlock: QUQFOY_clean_sbu_3, # of connection points: 4
#     Node 17, Type 0, BuildingBlock: QUQFOY_clean_sbu_3, # of connection points: 4
#     Node 18, Type 0, BuildingBlock: QUQFOY_clean_sbu_3, # of connection points: 4
#     Node 19, Type 0, BuildingBlock: QUQFOY_clean_sbu_3, # of connection points: 4
#     Node 20, Type 0, BuildingBlock: QUQFOY_clean_sbu_3, # of connection points: 4
#     Node 21, Type 0, BuildingBlock: QUQFOY_clean_sbu_3, # of connection points: 4
#     Node 22, Type 0, BuildingBlock: QUQFOY_clean_sbu_3, # of connection points: 4
#     Node 23, Type 0, BuildingBlock: QUQFOY_clean_sbu_3, # of connection points: 4
#     Node 24, Type 0, BuildingBlock: QUQFOY_clean_sbu_3, # of connection points: 4
#     Node 25, Type 0, BuildingBlock: QUQFOY_clean_sbu_3, # of connection points: 4
#     Node 26, Type 0, BuildingBlock: QUQFOY_clean_sbu_3, # of connection points: 4
#     Node 27, Type 0, BuildingBlock: QUQFOY_clean_sbu_3, # of connection points: 4
#     Node 28, Type 0, BuildingBlock: QUQFOY_clean_sbu_3, # of connection points: 4
#     Node 29, Type 0, BuildingBlock: QUQFOY_clean_sbu_3, # of connection points: 4
#     Node 30, Type 0, BuildingBlock: QUQFOY_clean_sbu_3, # of connection points: 4
#     Node 31, Type 0, BuildingBlock: QUQFOY_clean_sbu_3, # of connection points: 4
#     Edge 32, Type (0, 0), BuildingBlock: AJUNOK_clean_linker_0, # of connection points: 2
#     Edge 33, Type (0, 0), BuildingBlock: AJUNOK_clean_linker_0, # of connection points: 2
#     Edge 34, Type (0, 0), BuildingBlock: AJUNOK_clean_linker_0, # of connection points: 2
#     Edge 35, Type (0, 0), BuildingBlock: AJUNOK_clean_linker_0, # of connection points: 2
#     Edge 36, Type (0, 0), BuildingBlock: AJUNOK_clean_linker_0, # of connection points: 2
#     Edge 37, Type (0, 0), BuildingBlock: AJUNOK_clean_linker_0, # of connection points: 2
#     Edge 38, Type (0, 0), BuildingBlock: AJUNOK_clean_linker_0, # of connection points: 2
#     Edge 39, Type (0, 0), BuildingBlock: AJUNOK_clean_linker_0, # of connection points: 2
#     Edge 40, Type (0, 0), BuildingBlock: AJUNOK_clean_linker_0, # of connection points: 2
#     Edge 41, Type (0, 0), BuildingBlock: AJUNOK_clean_linker_0, # of connection points: 2
#     Edge 42, Type (0, 0), BuildingBlock: AJUNOK_clean_linker_0, # of connection points: 2
#     Edge 43, Type (0, 0), BuildingBlock: AJUNOK_clean_linker_0, # of connection points: 2
#     Edge 44, Type (0, 0), BuildingBlock: AJUNOK_clean_linker_0, # of connection points: 2
#     Edge 45, Type (0, 0), BuildingBlock: AJUNOK_clean_linker_0, # of connection points: 2
#     Edge 46, Type (0, 0), BuildingBlock: AJUNOK_clean_linker_0, # of connection points: 2
#     Edge 47, Type (0, 0), BuildingBlock: AJUNOK_clean_linker_0, # of connection points: 2
#     Edge 48, Type (0, 0), BuildingBlock: AJUNOK_clean_linker_0, # of connection points: 2
#     Edge 49, Type (0, 0), BuildingBlock: AJUNOK_clean_linker_0, # of connection points: 2
#     Edge 50, Type (0, 0), BuildingBlock: AJUNOK_clean_linker_0, # of connection points: 2
#     Edge 51, Type (0, 0), BuildingBlock: AJUNOK_clean_linker_0, # of connection points: 2
#     Edge 52, Type (0, 0), BuildingBlock: AJUNOK_clean_linker_0, # of connection points: 2
#     Edge 53, Type (0, 0), BuildingBlock: AJUNOK_clean_linker_0, # of connection points: 2
#     Edge 54, Type (0, 0), BuildingBlock: AJUNOK_clean_linker_0, # of connection points: 2
#     Edge 55, Type (0, 0), BuildingBlock: AJUNOK_clean_linker_0, # of connection points: 2
#     Edge 56, Type (0, 0), BuildingBlock: AJUNOK_clean_linker_0, # of connection points: 2
#     Edge 57, Type (0, 0), BuildingBlock: AJUNOK_clean_linker_0, # of connection points: 2
#     Edge 58, Type (0, 0), BuildingBlock: AJUNOK_clean_linker_0, # of connection points: 2
#     Edge 59, Type (0, 0), BuildingBlock: AJUNOK_clean_linker_0, # of connection points: 2
#     Edge 60, Type (0, 0), BuildingBlock: AJUNOK_clean_linker_0, # of connection points: 2
#     Edge 61, Type (0, 0), BuildingBlock: AJUNOK_clean_linker_0, # of connection points: 2
#     Edge 62, Type (0, 0), BuildingBlock: AJUNOK_clean_linker_0, # of connection points: 2
#     Edge 63, Type (0, 0), BuildingBlock: AJUNOK_clean_linker_0, # of connection points: 2
#     Edge 64, Type (0, 0), BuildingBlock: AJUNOK_clean_linker_0, # of connection points: 2
#     Edge 65, Type (0, 0), BuildingBlock: AJUNOK_clean_linker_0, # of connection points: 2
#     Edge 66, Type (0, 0), BuildingBlock: AJUNOK_clean_linker_0, # of connection points: 2
#     Edge 67, Type (0, 0), BuildingBlock: AJUNOK_clean_linker_0, # of connection points: 2
#     Edge 68, Type (0, 0), BuildingBlock: AJUNOK_clean_linker_0, # of connection points: 2
#     Edge 69, Type (0, 0), BuildingBlock: AJUNOK_clean_linker_0, # of connection points: 2
#     Edge 70, Type (0, 0), BuildingBlock: AJUNOK_clean_linker_0, # of connection points: 2
#     Edge 71, Type (0, 0), BuildingBlock: AJUNOK_clean_linker_0, # of connection points: 2
#     Edge 72, Type (0, 0), BuildingBlock: AJUNOK_clean_linker_0, # of connection points: 2
#     Edge 73, Type (0, 0), BuildingBlock: AJUNOK_clean_linker_0, # of connection points: 2
#     Edge 74, Type (0, 0), BuildingBlock: AJUNOK_clean_linker_0, # of connection points: 2
#     Edge 75, Type (0, 0), BuildingBlock: AJUNOK_clean_linker_0, # of connection points: 2
#     Edge 76, Type (0, 0), BuildingBlock: AJUNOK_clean_linker_0, # of connection points: 2
#     Edge 77, Type (0, 0), BuildingBlock: AJUNOK_clean_linker_0, # of connection points: 2
#     Edge 78, Type (0, 0), BuildingBlock: AJUNOK_clean_linker_0, # of connection points: 2
#     Edge 79, Type (0, 0), BuildingBlock: AJUNOK_clean_linker_0, # of connection points: 2
#     Edge 80, Type (0, 0), BuildingBlock: AJUNOK_clean_linker_0, # of connection points: 2
#     Edge 81, Type (0, 0), BuildingBlock: AJUNOK_clean_linker_0, # of connection points: 2
#     Edge 82, Type (0, 0), BuildingBlock: AJUNOK_clean_linker_0, # of connection points: 2
#     Edge 83, Type (0, 0), BuildingBlock: AJUNOK_clean_linker_0, # of connection points: 2
#     Edge 84, Type (0, 0), BuildingBlock: AJUNOK_clean_linker_0, # of connection points: 2
#     Edge 85, Type (0, 0), BuildingBlock: AJUNOK_clean_linker_0, # of connection points: 2
#     Edge 86, Type (0, 0), BuildingBlock: AJUNOK_clean_linker_0, # of connection points: 2
#     Edge 87, Type (0, 0), BuildingBlock: AJUNOK_clean_linker_0, # of connection points: 2
#     Edge 88, Type (0, 0), BuildingBlock: AJUNOK_clean_linker_0, # of connection points: 2
#     Edge 89, Type (0, 0), BuildingBlock: AJUNOK_clean_linker_0, # of connection points: 2
#     Edge 90, Type (0, 0), BuildingBlock: AJUNOK_clean_linker_0, # of connection points: 2
#     Edge 91, Type (0, 0), BuildingBlock: AJUNOK_clean_linker_0, # of connection points: 2
#     Edge 92, Type (0, 0), BuildingBlock: AJUNOK_clean_linker_0, # of connection points: 2
#     Edge 93, Type (0, 0), BuildingBlock: AJUNOK_clean_linker_0, # of connection points: 2
#     Edge 94, Type (0, 0), BuildingBlock: AJUNOK_clean_linker_0, # of connection points: 2
#     Edge 95, Type (0, 0), BuildingBlock: AJUNOK_clean_linker_0, # of connection points: 2
# Relax obj value: 0.253
# Max RMSD: 0.451
# Mean RMSD: 0.282
data_MOF--net-uoi--node1-QUQFOY_clean_sbu_3--edge1-AJUNOK_clean_linker_0
_symmetry_space_group_name_H-M    P1
_symmetry_Int_Tables_number       1
_symmetry_cell_setting            triclinic
loop_
_symmetry_equiv_pos_as_xyz
'x, y, z'
_cell_length_a     39.714057
_cell_length_b     58.316133
_cell_length_c     15.863969
_cell_angle_alpha  90.313497
_cell_angle_beta   89.77302
_cell_angle_gamma 89.813176
loop_
_atom_site_label
_atom_site_type_symbol
_atom_site_fract_x
_atom_site_fract_y
_atom_site_fract_z
_atom_type_partial_charge
C0 C 0.29188 0.14049 0.37873 0.0
O1 O 0.32374 0.13842 0.37573 0.0
Cd2 Cd 0.34991 0.16586 0.27076 0.0
O3 O 0.27777 0.15446 0.33047 0.0
Cd4 Cd 0.2905 0.17473 0.20981 0.0
C5 C 0.31833 0.21796 0.32541 0.0
O6 O 0.34359 0.17419 0.11859 0.0
O7 O 0.30013 0.19749 0.09932 0.0
O8 O 0.27262 0.13576 0.17869 0.0
C9 C 0.32889 0.19021 0.07632 0.0
O10 O 0.34318 0.20421 0.32252 0.0
C11 C 0.24684 0.14179 0.13707 0.0
O12 O 0.28989 0.21178 0.29534 0.0
O13 O 0.23868 0.16312 0.13864 0.0
C14 C 0.09955 0.9441 0.70366 0.0
O15 O 0.07023 0.94356 0.67277 0.0
Cd16 Cd 0.02283 0.92614 0.62045 0.0
O17 O 0.1161 0.92584 0.7167 0.0
Cd18 Cd 0.09463 0.88978 0.65608 0.0
C19 C 0.0391 0.88598 0.78234 0.0
O20 O 0.05918 0.90481 0.53993 0.0
O21 O 0.05278 0.86912 0.5648 0.0
O22 O 0.14439 0.89268 0.57226 0.0
C23 C 0.04524 0.88625 0.51963 0.0
O24 O 0.03462 0.90002 0.72392 0.0
C25 C 0.15207 0.87177 0.58183 0.0
O26 O 0.06765 0.87631 0.78831 0.0
O27 O 0.13573 0.86051 0.63708 0.0
C28 C 0.18047 0.83557 0.883 0.0
O29 O 0.14987 0.84103 0.89457 0.0
Cd30 Cd 0.1237 0.81571 0.77132 0.0
O31 O 0.18618 0.82334 0.81918 0.0
Cd32 Cd 0.18509 0.80138 0.69598 0.0
C33 C 0.15539 0.7626 0.82929 0.0
O34 O 0.13293 0.80608 0.61191 0.0
O35 O 0.14947 0.77179 0.64029 0.0
O36 O 0.21264 0.836 0.63975 0.0
C37 C 0.13271 0.7846 0.59207 0.0
O38 O 0.13032 0.77629 0.82448 0.0
C39 C 0.23899 0.82696 0.60849 0.0
O40 O 0.18392 0.76821 0.79681 0.0
O41 O 0.24111 0.80509 0.61414 0.0
C42 C 0.37973 0.03206 0.20477 0.0
O43 O 0.40893 0.02879 0.17356 0.0
Cd44 Cd 0.4529 0.05159 0.12369 0.0
O45 O 0.36686 0.05194 0.21209 0.0
Cd46 Cd 0.38674 0.08826 0.15204 0.0
C47 C 0.43562 0.09261 0.28585 0.0
O48 O 0.42044 0.0736 0.03578 0.0
O49 O 0.42394 0.10983 0.0619 0.0
O50 O 0.33815 0.08486 0.07917 0.0
C51 C 0.43231 0.09292 0.01613 0.0
O52 O 0.44384 0.07769 0.23186 0.0
C53 C 0.33181 0.10613 0.08245 0.0
O54 O 0.40857 0.10381 0.27876 0.0
O55 O 0.34867 0.11873 0.13207 0.0
C56 C 0.29648 0.83543 0.10423 0.0
O57 O 0.32802 0.83809 0.09691 0.0
Cd58 Cd 0.35562 0.80988 0.2004 0.0
O59 O 0.28659 0.82165 0.15945 0.0
Cd60 Cd 0.29142 0.79546 0.27516 0.0
C61 C 0.32185 0.75822 0.14157 0.0
O62 O 0.34946 0.78542 0.33128 0.0
O63 O 0.32147 0.8052 0.41731 0.0
O64 O 0.22879 0.80312 0.3014 0.0
C65 C 0.34382 0.79021 0.40807 0.0
O66 O 0.3426 0.77451 0.12947 0.0
C67 C 0.19966 0.81094 0.32123 0.0
O68 O 0.29843 0.75966 0.19668 0.0
O69 O 0.22876 0.80306 0.30131 0.0
C70 C 0.37699 0.94673 0.28837 0.0
O71 O 0.40512 0.95217 0.32104 0.0
Cd72 Cd 0.45274 0.92906 0.34857 0.0
O73 O 0.36867 0.92618 0.27343 0.0
Cd74 Cd 0.38872 0.89216 0.33897 0.0
C75 C 0.43321 0.88636 0.19401 0.0
O76 O 0.42549 0.90588 0.44314 0.0
O77 O 0.42795 0.86946 0.41052 0.0
O78 O 0.34381 0.90381 0.4349 0.0
C79 C 0.43615 0.88587 0.45875 0.0
O80 O 0.4382 0.90107 0.25059 0.0
C81 C 0.33921 0.88279 0.45085 0.0
O82 O 0.40618 0.87484 0.19811 0.0
O83 O 0.35551 0.868 0.40705 0.0
C84 C 0.17993 0.13935 0.60581 0.0
O85 O 0.15077 0.14494 0.58107 0.0
Cd86 Cd 0.122 0.16696 0.70611 0.0
O87 O 0.18753 0.14578 0.67912 0.0
Cd88 Cd 0.1651 0.17851 0.7577 0.0
C89 C 0.14995 0.21804 0.6452 0.0
O90 O 0.1212 0.17707 0.86491 0.0
O91 O 0.15337 0.20747 0.85015 0.0
O92 O 0.18375 0.15526 0.85833 0.0
C93 C 0.13379 0.19571 0.8959 0.0
O94 O 0.12425 0.20537 0.65368 0.0
C95 C 0.21358 0.16268 0.85639 0.0
O96 O 0.17817 0.21125 0.67201 0.0
O97 O 0.22055 0.18025 0.81272 0.0
C98 C 0.1008 0.03236 0.79777 0.0
O99 O 0.07484 0.0273 0.84084 0.0
Cd100 Cd 0.02929 0.0517 0.87314 0.0
O101 O 0.10715 0.05275 0.77545 0.0
Cd102 Cd 0.09195 0.08981 0.83354 0.0
C103 C 0.03946 0.0905 0.69652 0.0
O104 O 0.05908 0.07768 0.94965 0.0
O105 O 0.0493 0.11228 0.90734 0.0
O106 O 0.13889 0.08378 0.91644 0.0
C107 C 0.04284 0.09614 0.95791 0.0
O108 O 0.03032 0.07571 0.75047 0.0
C109 C 0.15256 0.10273 0.89892 0.0
O110 O 0.06664 0.10164 0.7049 0.0
O111 O 0.13839 0.11583 0.84562 0.0
C112 C 0.68121 0.83682 0.59986 0.0
O113 O 0.65 0.84005 0.58832 0.0
Cd114 Cd 0.62591 0.81339 0.7093 0.0
O115 O 0.68873 0.82399 0.66016 0.0
Cd116 Cd 0.6776 0.8011 0.7761 0.0
C117 C 0.65356 0.76102 0.64868 0.0
O118 O 0.62398 0.79954 0.86401 0.0
O119 O 0.67195 0.78254 0.89755 0.0
O120 O 0.70341 0.83773 0.804 0.0
C121 C 0.64167 0.78726 0.91597 0.0
O122 O 0.62945 0.77537 0.65084 0.0
C123 C 0.72642 0.82939 0.84999 0.0
O124 O 0.68109 0.76563 0.68632 0.0
O125 O 0.72914 0.80757 0.85304 0.0
C126 C 0.87114 0.03175 0.29594 0.0
O127 O 0.89254 0.02664 0.35188 0.0
Cd128 Cd 0.94208 0.04822 0.36111 0.0
O129 O 0.87063 0.05159 0.26367 0.0
Cd130 Cd 0.88306 0.08781 0.32902 0.0
C131 C 0.93402 0.08959 0.19189 0.0
O132 O 0.91571 0.07416 0.44647 0.0
O133 O 0.92282 0.10985 0.42019 0.0
O134 O 0.83221 0.07934 0.39853 0.0
C135 C 0.93119 0.0924 0.46294 0.0
O136 O 0.94035 0.07452 0.24683 0.0
C137 C 0.81919 0.09845 0.38002 0.0
O138 O 0.90713 0.10127 0.19726 0.0
O139 O 0.83573 0.11201 0.33292 0.0
C140 C 0.79384 0.14214 0.10193 0.0
O141 O 0.82528 0.14002 0.08943 0.0
Cd142 Cd 0.85528 0.1661 0.19662 0.0
O143 O 0.78445 0.15492 0.1616 0.0
Cd144 Cd 0.79984 0.17835 0.27742 0.0
C145 C 0.82225 0.21854 0.14935 0.0
O146 O 0.85841 0.1852 0.33963 0.0
O147 O 0.815 0.17925 0.41714 0.0
O148 O 0.7715 0.14426 0.31583 0.0
C149 C 0.84446 0.18676 0.41244 0.0
O150 O 0.84489 0.20334 0.13829 0.0
C151 C 0.75038 0.15429 0.36419 0.0
O152 O 0.79725 0.21493 0.19849 0.0
O153 O 0.74852 0.17624 0.36152 0.0
C154 C 0.59615 0.94562 0.77435 0.0
O155 O 0.56702 0.94807 0.80654 0.0
Cd156 Cd 0.52462 0.92498 0.86155 0.0
O157 O 0.60996 0.92609 0.76711 0.0
Cd158 Cd 0.59085 0.88988 0.82797 0.0
C159 C 0.53688 0.88495 0.69681 0.0
O160 O 0.5573 0.90224 0.94604 0.0
O161 O 0.54985 0.86713 0.9062 0.0
O162 O 0.6395 0.89425 0.89892 0.0
C163 C 0.54274 0.88326 0.95702 0.0
O164 O 0.52369 0.89957 0.74634 0.0
C165 C 0.65152 0.87473 0.88085 0.0
O166 O 0.56693 0.87802 0.70331 0.0
O167 O 0.63442 0.86123 0.83467 0.0
C168 C 0.68027 0.14363 0.88512 0.0
O169 O 0.64909 0.13878 0.88528 0.0
Cd170 Cd 0.62294 0.16486 0.76751 0.0
O171 O 0.69012 0.15784 0.83153 0.0
Cd172 Cd 0.67354 0.17862 0.71295 0.0
C173 C 0.65172 0.21783 0.82763 0.0
O174 O 0.62769 0.17364 0.60827 0.0
O175 O 0.65085 0.20705 0.62961 0.0
O176 O 0.69757 0.1451 0.66273 0.0
C177 C 0.63394 0.1941 0.58155 0.0
O178 O 0.62755 0.20362 0.82211 0.0
C179 C 0.72613 0.15364 0.64611 0.0
O180 O 0.6803 0.21286 0.79641 0.0
O181 O 0.7295 0.17539 0.65075 0.0
C182 C 0.60103 0.03179 0.68968 0.0
O183 O 0.57302 0.02634 0.65692 0.0
Cd184 Cd 0.52715 0.04967 0.62466 0.0
O185 O 0.60966 0.05247 0.7026 0.0
Cd186 Cd 0.59078 0.08855 0.6418 0.0
C187 C 0.53946 0.09254 0.78419 0.0
O188 O 0.55645 0.07282 0.53585 0.0
O189 O 0.55023 0.10908 0.55921 0.0
O190 O 0.63652 0.08226 0.55439 0.0
C191 C 0.54209 0.09138 0.51744 0.0
O192 O 0.5293 0.07649 0.73672 0.0
C193 C 0.64456 0.10323 0.55354 0.0
O194 O 0.56697 0.10289 0.77055 0.0
O195 O 0.63045 0.117 0.60554 0.0
C196 C 0.79536 0.8378 0.37071 0.0
O197 O 0.82711 0.83914 0.37777 0.0
Cd198 Cd 0.85538 0.81068 0.27424 0.0
O199 O 0.78445 0.82361 0.3178 0.0
Cd200 Cd 0.8028 0.79868 0.20546 0.0
C201 C 0.82239 0.75938 0.33192 0.0
O202 O 0.85672 0.79046 0.13227 0.0
O203 O 0.81729 0.80602 0.06018 0.0
O204 O 0.77458 0.83171 0.19443 0.0
C205 C 0.84262 0.79298 0.06056 0.0
O206 O 0.8451 0.77445 0.34218 0.0
C207 C 0.75038 0.82357 0.15185 0.0
O208 O 0.79822 0.76262 0.28079 0.0
O209 O 0.74955 0.80177 0.13898 0.0
C210 C 0.87828 0.94198 0.19678 0.0
O211 O 0.90779 0.93853 0.1707 0.0
Cd212 Cd 0.95732 0.92271 0.12442 0.0
O213 O 0.85873 0.92512 0.20872 0.0
Cd214 Cd 0.88204 0.88796 0.15323 0.0
C215 C 0.93478 0.88431 0.28229 0.0
O216 O 0.9189 0.9039 0.03972 0.0
O217 O 0.9237 0.86789 0.06688 0.0
O218 O 0.83822 0.88873 0.05533 0.0
C219 C 0.93071 0.88461 0.01946 0.0
O220 O 0.93769 0.89661 0.21858 0.0
C221 C 0.82948 0.86827 0.06941 0.0
O222 O 0.90787 0.87279 0.28824 0.0
O223 O 0.84239 0.85776 0.13152 0.0
C224 C 0.79341 0.63988 0.87919 0.0
O225 O 0.825 0.64196 0.88826 0.0
Cd226 Cd 0.8528 0.6659 0.77479 0.0
O227 O 0.7799 0.64957 0.81771 0.0
Cd228 Cd 0.79742 0.67347 0.70706 0.0
C229 C 0.82058 0.71614 0.8343 0.0
O230 O 0.85273 0.68043 0.62639 0.0
O231 O 0.80251 0.68478 0.57248 0.0
O232 O 0.76903 0.63843 0.66741 0.0
C233 C 0.83395 0.68741 0.56564 0.0
O234 O 0.84671 0.70355 0.83459 0.0
C235 C 0.74349 0.6487 0.63696 0.0
O236 O 0.79403 0.70947 0.79595 0.0
O237 O 0.74305 0.67065 0.64118 0.0
C238 C 0.60524 0.44483 0.17592 0.0
O239 O 0.58556 0.44781 0.1144 0.0
Cd240 Cd 0.53436 0.42753 0.10841 0.0
O241 O 0.6059 0.42574 0.21373 0.0
Cd242 Cd 0.59378 0.38978 0.14259 0.0
C243 C 0.53816 0.38824 0.28255 0.0
O244 O 0.56099 0.40118 0.0269 0.0
O245 O 0.54981 0.36692 0.06752 0.0
O246 O 0.64268 0.39639 0.05624 0.0
C247 C 0.54423 0.38317 0.01648 0.0
O248 O 0.52759 0.40355 0.23215 0.0
C249 C 0.65683 0.37781 0.07758 0.0
O250 O 0.56651 0.37837 0.27197 0.0
O251 O 0.64142 0.36528 0.13064 0.0
C252 C 0.67812 0.33994 0.37328 0.0
O253 O 0.64767 0.33637 0.39339 0.0
Cd254 Cd 0.62147 0.31167 0.27238 0.0
O255 O 0.68733 0.33096 0.30452 0.0
Cd256 Cd 0.65789 0.30052 0.22383 0.0
C257 C 0.6478 0.2603 0.33467 0.0
O258 O 0.61384 0.29924 0.11562 0.0
O259 O 0.66167 0.28036 0.10351 0.0
O260 O 0.67996 0.33134 0.16922 0.0
C261 C 0.6344 0.2869 0.07035 0.0
O262 O 0.62272 0.27386 0.33356 0.0
C263 C 0.70541 0.32164 0.13271 0.0
O264 O 0.6751 0.2668 0.30169 0.0
O265 O 0.70604 0.29961 0.14171 0.0
C266 C 0.86863 0.5346 0.67891 0.0
O267 O 0.88171 0.53538 0.60651 0.0
Cd268 Cd 0.93852 0.5474 0.61202 0.0
O269 O 0.86885 0.55243 0.72466 0.0
Cd270 Cd 0.88112 0.58727 0.64524 0.0
C271 C 0.93566 0.58845 0.78269 0.0
O272 O 0.91701 0.57488 0.52885 0.0
O273 O 0.92243 0.61021 0.56746 0.0
O274 O 0.83353 0.58112 0.55751 0.0
C275 C 0.93154 0.59383 0.51971 0.0
O276 O 0.94374 0.57262 0.73111 0.0
C277 C 0.8228 0.60144 0.56813 0.0
O278 O 0.90837 0.59971 0.77432 0.0
O279 O 0.83688 0.61376 0.62463 0.0
C280 C 0.79154 0.33947 0.60746 0.0
O281 O 0.82215 0.3344 0.59276 0.0
Cd282 Cd 0.85095 0.3102 0.70376 0.0
O283 O 0.77844 0.33121 0.6732 0.0
Cd284 Cd 0.7927 0.30055 0.77405 0.0
C285 C 0.82011 0.25879 0.64646 0.0
O286 O 0.84957 0.29746 0.85434 0.0
O287 O 0.80138 0.29439 0.91695 0.0
O288 O 0.7507 0.32931 0.8007 0.0
C289 C 0.83282 0.29264 0.92142 0.0
O290 O 0.8454 0.27209 0.64607 0.0
C291 C 0.73319 0.3175 0.85163 0.0
O292 O 0.79287 0.26483 0.68388 0.0
O293 O 0.74139 0.29648 0.86024 0.0
C294 C 0.87155 0.44401 0.79433 0.0
O295 O 0.88687 0.44629 0.86347 0.0
Cd296 Cd 0.94087 0.42872 0.86142 0.0
O297 O 0.87646 0.42601 0.7511 0.0
Cd298 Cd 0.88975 0.39254 0.83008 0.0
C299 C 0.93689 0.38754 0.69172 0.0
O300 O 0.92014 0.4025 0.9525 0.0
O301 O 0.92838 0.36813 0.90225 0.0
O302 O 0.84726 0.40588 0.91401 0.0
C303 C 0.93328 0.38296 0.95953 0.0
O304 O 0.94677 0.40351 0.74054 0.0
C305 C 0.83391 0.38631 0.90921 0.0
O306 O 0.90952 0.37698 0.70377 0.0
O307 O 0.84556 0.37097 0.8587 0.0
C308 C 0.67864 0.63868 0.10291 0.0
O309 O 0.654 0.65063 0.0786 0.0
Cd310 Cd 0.62303 0.66728 0.2049 0.0
O311 O 0.68295 0.63784 0.18141 0.0
Cd312 Cd 0.67813 0.67301 0.26656 0.0
C313 C 0.654 0.71695 0.14916 0.0
O314 O 0.6251 0.67781 0.35938 0.0
O315 O 0.67423 0.69289 0.38943 0.0
O316 O 0.70672 0.63807 0.30847 0.0
C317 C 0.64372 0.68998 0.40881 0.0
O318 O 0.62705 0.70574 0.16 0.0
C319 C 0.7324 0.64785 0.33901 0.0
O320 O 0.68215 0.70811 0.17137 0.0
O321 O 0.7335 0.66969 0.33327 0.0
C322 C 0.60959 0.53536 0.29792 0.0
O323 O 0.59536 0.53624 0.36892 0.0
Cd324 Cd 0.53872 0.54848 0.35588 0.0
O325 O 0.60815 0.55291 0.2513 0.0
Cd326 Cd 0.59433 0.58847 0.33096 0.0
C327 C 0.53911 0.59065 0.19324 0.0
O328 O 0.55971 0.57583 0.44344 0.0
O329 O 0.55168 0.61116 0.41174 0.0
O330 O 0.64112 0.58284 0.41952 0.0
C331 C 0.54356 0.59408 0.45645 0.0
O332 O 0.52971 0.57374 0.23773 0.0
C333 C 0.65146 0.60322 0.41002 0.0
O334 O 0.56613 0.60156 0.20794 0.0
O335 O 0.63768 0.61542 0.35304 0.0
C336 C 0.1809 0.33583 0.1007 0.0
O337 O 0.15005 0.3409 0.09226 0.0
Cd338 Cd 0.12474 0.31491 0.20855 0.0
O339 O 0.18824 0.32244 0.15967 0.0
Cd340 Cd 0.18123 0.29888 0.27697 0.0
C341 C 0.15513 0.2609 0.15085 0.0
O342 O 0.12587 0.30085 0.36113 0.0
O343 O 0.17137 0.28075 0.39247 0.0
O344 O 0.21155 0.33002 0.33855 0.0
C345 C 0.14205 0.28729 0.4113 0.0
O346 O 0.13413 0.27734 0.15217 0.0
C347 C 0.23576 0.3176 0.36407 0.0
O348 O 0.18253 0.26293 0.19163 0.0
O349 O 0.23584 0.29646 0.34408 0.0
C350 C 0.37569 0.53083 0.79223 0.0
O351 O 0.40251 0.52605 0.83191 0.0
Cd352 Cd 0.44811 0.55005 0.865 0.0
O353 O 0.36742 0.55127 0.77438 0.0
Cd354 Cd 0.38359 0.58726 0.83967 0.0
C355 C 0.43686 0.59096 0.69718 0.0
O356 O 0.41909 0.57458 0.94883 0.0
O357 O 0.42275 0.61066 0.91842 0.0
O358 O 0.34123 0.58028 0.94199 0.0
C359 C 0.43195 0.59392 0.96351 0.0
O360 O 0.44649 0.57548 0.74758 0.0
C361 C 0.32888 0.60008 0.93132 0.0
O362 O 0.40939 0.60175 0.70972 0.0
O363 O 0.33899 0.61195 0.86867 0.0
C364 C 0.29532 0.6397 0.59781 0.0
O365 O 0.32577 0.63534 0.58024 0.0
Cd366 Cd 0.35336 0.66333 0.69245 0.0
O367 O 0.2912 0.65279 0.66002 0.0
Cd368 Cd 0.2874 0.67684 0.77627 0.0
C369 C 0.32007 0.7167 0.64596 0.0
O370 O 0.34677 0.67976 0.84086 0.0
O371 O 0.30251 0.67885 0.91848 0.0
O372 O 0.24841 0.64419 0.78343 0.0
C373 C 0.33319 0.6834 0.91309 0.0
O374 O 0.34374 0.70197 0.63902 0.0
C375 C 0.22546 0.65457 0.82472 0.0
O376 O 0.29327 0.71232 0.68852 0.0
O377 O 0.23064 0.67578 0.84107 0.0
C378 C 0.09834 0.44687 0.29252 0.0
O379 O 0.07286 0.45245 0.33683 0.0
Cd380 Cd 0.0263 0.42859 0.36524 0.0
O381 O 0.10239 0.42682 0.26413 0.0
Cd382 Cd 0.08609 0.39191 0.32342 0.0
C383 C 0.03706 0.38827 0.19338 0.0
O384 O 0.05561 0.40337 0.44745 0.0
O385 O 0.05218 0.3675 0.4128 0.0
O386 O 0.13606 0.39992 0.38345 0.0
C387 C 0.044 0.38369 0.46234 0.0
O388 O 0.02775 0.40302 0.24764 0.0
C389 C 0.14761 0.38033 0.36405 0.0
O390 O 0.06538 0.37852 0.19688 0.0
O391 O 0.13015 0.36668 0.31929 0.0
C392 C 0.18091 0.63882 0.37023 0.0
O393 O 0.14917 0.63976 0.37946 0.0
Cd394 Cd 0.12188 0.666 0.26948 0.0
O395 O 0.19344 0.65099 0.31307 0.0
Cd396 Cd 0.18481 0.67742 0.19833 0.0
C397 C 0.15367 0.71785 0.33303 0.0
O398 O 0.12746 0.68857 0.13396 0.0
O399 O 0.16114 0.67029 0.05604 0.0
O400 O 0.22583 0.64577 0.1925 0.0
C401 C 0.13742 0.68456 0.05905 0.0
O402 O 0.13086 0.70256 0.3364 0.0
C403 C 0.24819 0.65619 0.15027 0.0
O404 O 0.18014 0.71431 0.28761 0.0
O405 O 0.24142 0.67704 0.13035 0.0
C406 C 0.09737 0.53287 0.20484 0.0
O407 O 0.06799 0.53141 0.17407 0.0
Cd408 Cd 0.02328 0.55209 0.11912 0.0
O409 O 0.11271 0.55178 0.21026 0.0
Cd410 Cd 0.09226 0.58581 0.14045 0.0
C411 C 0.03652 0.5917 0.28251 0.0
O412 O 0.05582 0.57319 0.03029 0.0
O413 O 0.05064 0.60883 0.06734 0.0
O414 O 0.13404 0.5794 0.03573 0.0
C415 C 0.04302 0.59267 0.01723 0.0
O416 O 0.02276 0.57716 0.23435 0.0
C417 C 0.14586 0.59936 0.04615 0.0
O418 O 0.06626 0.5991 0.27022 0.0
O419 O 0.13557 0.61135 0.10895 0.0
C420 C 0.29234 0.33476 0.87721 0.0
O421 O 0.32379 0.33873 0.87329 0.0
Cd422 Cd 0.35128 0.3098 0.76908 0.0
O423 O 0.2813 0.31853 0.83248 0.0
Cd424 Cd 0.31308 0.29693 0.72525 0.0
C425 C 0.3261 0.25754 0.83253 0.0
O426 O 0.3591 0.29674 0.617 0.0
O427 O 0.30836 0.28345 0.59301 0.0
O428 O 0.29512 0.33028 0.67742 0.0
C429 C 0.33764 0.28763 0.56565 0.0
O430 O 0.3488 0.27282 0.83447 0.0
C431 C 0.26804 0.32226 0.64289 0.0
O432 O 0.30022 0.26058 0.78805 0.0
O433 O 0.26304 0.3007 0.65768 0.0
C434 C 0.37545 0.44175 0.70629 0.0
O435 O 0.40505 0.44009 0.67748 0.0
Cd436 Cd 0.45491 0.42518 0.62519 0.0
O437 O 0.35749 0.42408 0.71582 0.0
Cd438 Cd 0.38131 0.38914 0.6502 0.0
C439 C 0.43477 0.38491 0.77798 0.0
O440 O 0.42006 0.40419 0.53845 0.0
O441 O 0.42072 0.36772 0.56117 0.0
O442 O 0.33642 0.39301 0.55152 0.0
C443 C 0.43097 0.38456 0.51812 0.0
O444 O 0.43665 0.39813 0.71671 0.0
C445 C 0.32471 0.37356 0.57055 0.0
O446 O 0.40785 0.37338 0.78403 0.0
O447 O 0.33851 0.36239 0.62994 0.0
C448 C 0.2383 0.14842 0.56445 0.0
C449 C 0.20947 0.13502 0.54768 0.0
C450 C 0.26785 0.14674 0.51707 0.0
C451 C 0.27026 0.13209 0.44753 0.0
H452 H 0.23779 0.16139 0.61361 0.0
H453 H 0.28778 0.15893 0.52983 0.0
S454 S 0.20428 0.09154 0.37489 0.0
N455 N 0.18666 0.10474 0.45685 0.0
N456 N 0.24231 0.10266 0.36442 0.0
C457 C 0.24239 0.11779 0.42995 0.0
C458 C 0.2119 0.11911 0.47994 0.0
C459 C 0.09904 0.98376 0.65983 0.0
C460 C 0.11379 0.96703 0.712 0.0
C461 C 0.10021 0.00668 0.6809 0.0
C462 C 0.11681 0.01361 0.75371 0.0
H463 H 0.08306 0.97904 0.60726 0.0
H464 H 0.08407 0.01846 0.64687 0.0
S465 S 0.17134 0.97845 0.89073 0.0
N466 N 0.15378 0.95973 0.82555 0.0
N467 N 0.15673 0.00395 0.86357 0.0
C468 C 0.13706 -0.00207 0.79728 0.0
C469 C 0.13548 0.97416 0.77667 0.0
C470 C 0.27138 0.83394 0.96051 0.0
C471 C 0.27078 0.84347 0.04166 0.0
C472 C 0.24231 0.8331 0.91041 0.0
C473 C 0.21053 0.84152 0.93803 0.0
H474 H 0.29382 0.82522 0.93793 0.0
H475 H 0.2448 0.82439 0.85023 0.0
S476 S 0.19766 0.87347 0.13985 0.0
N477 N 0.23752 0.86528 0.143 0.0
N478 N 0.18248 0.8637 0.0494 0.0
C479 C 0.21024 0.85323 0.01658 0.0
C480 C 0.24036 0.85413 0.06788 0.0
C481 C 0.36341 -0.00533 0.15376 0.0
C482 C 0.35951 0.01154 0.21682 0.0
C483 C 0.36247 0.9716 0.17425 0.0
C484 C 0.3564 0.96517 0.25747 0.0
H485 H 0.37273 -0.00075 0.09173 0.0
H486 H 0.37198 0.95924 0.1286 0.0
S487 S 0.33046 0.00204 0.43607 0.0
N488 N 0.33971 0.02015 0.35939 0.0
N489 N 0.33586 0.97607 0.396 0.0
C490 C 0.34481 0.98148 0.31579 0.0
C491 C 0.34687 0.00514 0.29598 0.0
C492 C 0.76511 0.82587 0.49501 0.0
C493 C 0.77113 0.84382 0.43944 0.0
C494 C 0.73532 0.82425 0.54044 0.0
C495 C 0.70972 0.84114 0.53852 0.0
H496 H 0.78256 0.81156 0.49818 0.0
H497 H 0.73243 0.8088 0.57733 0.0
S498 S 0.71459 0.8942 0.40851 0.0
N499 N 0.74962 0.88004 0.38472 0.0
N500 N 0.69412 0.87834 0.47832 0.0
C501 C 0.71567 0.8603 0.48551 0.0
C502 C 0.74623 0.86136 0.4348 0.0
C503 C 0.83799 -0.00328 0.27551 0.0
C504 C 0.86119 0.0127 0.24408 0.0
C505 C 0.84112 0.97344 0.25424 0.0
C506 C 0.86795 0.9661 0.20262 0.0
H507 H 0.81988 0.00185 0.32337 0.0
H508 H 0.82473 0.96112 0.28443 0.0
S509 S 0.93305 0.00266 0.09974 0.0
N510 N 0.90902 0.02054 0.15375 0.0
N511 N 0.91543 0.97744 0.11267 0.0
C512 C 0.88871 0.9827 0.16357 0.0
C513 C 0.88505 0.00603 0.18418 0.0
C514 C 0.74061 0.13315 0.90677 0.0
C515 C 0.70742 0.13382 0.94067 0.0
C516 C 0.76952 0.13303 0.95821 0.0
C517 C 0.76654 0.1328 0.04632 0.0
H518 H 0.74441 0.13499 0.83943 0.0
H519 H 0.79396 0.13534 0.92892 0.0
S520 S 0.68675 0.12707 0.16766 0.0
N521 N 0.67416 0.12962 0.06881 0.0
N522 N 0.72828 0.12748 0.16454 0.0
C523 C 0.73384 0.12964 0.08036 0.0
C524 C 0.70429 0.13057 0.02814 0.0
C525 C 0.6095 0.98361 0.82554 0.0
C526 C 0.61538 0.96669 0.76366 0.0
C527 C 0.61151 0.00667 0.8056 0.0
C528 C 0.62059 0.0132 0.72418 0.0
H529 H 0.59839 0.97911 0.88579 0.0
H530 H 0.60071 0.01904 0.84938 0.0
S531 S 0.65286 0.97607 0.55233 0.0
N532 N 0.64056 0.95798 0.62641 0.0
N533 N 0.64585 0.00208 0.59062 0.0
C534 C 0.63373 -0.00326 0.66825 0.0
C535 C 0.63081 0.97303 0.68753 0.0
C536 C 0.74132 0.62004 0.92963 0.0
C537 C 0.76991 0.6336 0.94824 0.0
C538 C 0.71164 0.62123 0.97935 0.0
C539 C 0.70938 0.63633 0.04875 0.0
H540 H 0.74125 0.60947 0.87323 0.0
H541 H 0.69023 0.61076 0.96215 0.0
S542 S 0.77601 0.6763 0.12108 0.0
N543 N 0.79344 0.66249 0.0409 0.0
N544 N 0.73781 0.66559 0.13097 0.0
C545 C 0.73788 0.64966 0.06809 0.0
C546 C 0.76813 0.64799 0.01922 0.0
C547 C 0.58212 0.49911 0.27197 0.0
C548 C 0.61102 0.51256 0.26114 0.0
C549 C 0.58292 0.47584 0.25658 0.0
C550 C 0.61178 0.46551 0.22283 0.0
H551 H 0.5587 0.50659 0.2945 0.0
H552 H 0.5598 0.46618 0.26427 0.0
S553 S 0.69443 0.49282 0.18436 0.0
N554 N 0.67012 0.51386 0.2202 0.0
N555 N 0.67055 0.46961 0.18162 0.0
C556 C 0.64112 0.47848 0.21139 0.0
C557 C 0.64082 0.50232 0.23147 0.0
C558 C 0.71614 0.36271 0.47946 0.0
C559 C 0.70585 0.34237 0.43755 0.0
C560 C 0.74579 0.36296 0.53088 0.0
C561 C 0.76721 0.34348 0.53678 0.0
H562 H 0.70131 0.37821 0.47347 0.0
H563 H 0.75171 0.37826 0.56681 0.0
S564 S 0.7522 0.28796 0.43367 0.0
N565 N 0.71889 0.30289 0.40913 0.0
N566 N 0.77647 0.30457 0.49085 0.0
C567 C 0.75776 0.32405 0.49096 0.0
C568 C 0.72675 0.32319 0.44589 0.0
C569 C 0.83816 0.47855 0.76298 0.0
C570 C 0.86718 0.46515 0.75039 0.0
C571 C 0.83871 0.50197 0.74412 0.0
C572 C 0.86878 0.51219 0.71717 0.0
H573 H 0.8155 0.47104 0.78908 0.0
H574 H 0.8158 0.51201 0.74989 0.0
S575 S 0.95223 0.4843 0.68813 0.0
N576 N 0.9262 0.46326 0.71093 0.0
N577 N 0.9289 0.50776 0.69008 0.0
C578 C 0.89818 0.49893 0.70941 0.0
C579 C 0.89683 0.47513 0.72117 0.0
C580 C 0.27119 0.33932 0.02401 0.0
C581 C 0.26852 0.34556 0.93927 0.0
C582 C 0.2427 0.33873 0.07652 0.0
C583 C 0.20986 0.34372 0.04674 0.0
H584 H 0.29472 0.33259 0.04792 0.0
H585 H 0.24641 0.33245 0.13997 0.0
S586 S 0.19244 0.37113 0.84064 0.0
N587 N 0.23307 0.36478 0.83675 0.0
N588 N 0.17859 0.36176 0.93273 0.0
C589 C 0.20763 0.35337 0.96569 0.0
C590 C 0.23723 0.35471 0.91289 0.0
C591 C 0.34136 0.47287 0.77561 0.0
C592 C 0.36182 0.46501 0.70915 0.0
C593 C 0.34042 0.49639 0.79481 0.0
C594 C 0.36021 0.51187 0.74847 0.0
H595 H 0.32942 0.46087 0.8181 0.0
H596 H 0.32793 0.50201 0.85221 0.0
S597 S 0.4129 0.49948 0.56106 0.0
N598 N 0.39617 0.47478 0.58695 0.0
N599 N 0.39713 0.51819 0.62897 0.0
C600 C 0.37669 0.50444 0.67552 0.0
C601 C 0.37673 0.481 0.65435 0.0
C602 C 0.20931 0.65004 0.50051 0.0
C603 C 0.20452 0.6328 0.44014 0.0
C604 C 0.23864 0.65138 0.54869 0.0
C605 C 0.26516 0.63526 0.54187 0.0
H606 H 0.19132 0.664 0.50576 0.0
H607 H 0.24088 0.66613 0.59006 0.0
S608 S 0.26337 0.58409 0.39982 0.0
N609 N 0.22768 0.59766 0.37931 0.0
N610 N 0.28279 0.5995 0.47294 0.0
C611 C 0.26023 0.61683 0.48439 0.0
C612 C 0.22997 0.61574 0.43336 0.0
C613 C 0.10743 0.47143 0.17524 0.0
C614 C 0.11752 0.46507 0.25576 0.0
C615 C 0.10656 0.49435 0.15439 0.0
C616 C 0.11494 0.51121 0.21447 0.0
H617 H 0.09506 0.45927 0.13372 0.0
H618 H 0.09451 0.49898 0.09558 0.0
S619 S 0.157 0.50123 0.41919 0.0
N620 N 0.14723 0.47539 0.38369 0.0
N621 N 0.14386 0.51954 0.34681 0.0
C622 C 0.13155 0.50467 0.28849 0.0
C623 C 0.13327 0.48102 0.30853 0.0
C624 C 0.17449 0.11296 0.03705 0.0
C625 C 0.18004 0.11049 0.95101 0.0
C626 C 0.19889 0.12083 0.09292 0.0
C627 C 0.23263 0.12617 0.07158 0.0
H628 H 0.14935 0.11004 0.06195 0.0
H629 H 0.18979 0.1243 0.15648 0.0
S630 S 0.26344 0.12903 0.77828 0.0
N631 N 0.21828 0.11852 0.81949 0.0
N632 N 0.28434 0.13125 0.89569 0.0
C633 C 0.24501 0.12178 0.98369 0.0
C634 C 0.21107 0.11547 0.91769 0.0
C635 C 0.20807 0.85246 0.39965 0.0
C636 C 0.19028 0.83269 0.37049 0.0
C637 C 0.19703 0.86488 0.47188 0.0
C638 C 0.16612 0.85937 0.50942 0.0
H639 H 0.22796 0.86012 0.36433 0.0
H640 H 0.21194 0.87895 0.49656 0.0
S641 S 0.09903 0.82639 0.40338 0.0
N642 N 0.13327 0.8206 0.34847 0.0
N643 N 0.11119 0.84315 0.4815 0.0
C644 C 0.14459 0.84496 0.46424 0.0
C645 C 0.15651 0.83254 0.3931 0.0
C646 C 0.30214 0.87616 0.57927 0.0
C647 C 0.30883 0.87475 0.49272 0.0
C648 C 0.27893 0.86073 0.6163 0.0
C649 C 0.26553 0.84198 0.56979 0.0
H650 H 0.31509 0.88867 0.6179 0.0
H651 H 0.2725 0.86288 0.68224 0.0
S652 S 0.27805 0.83513 0.33947 0.0
N653 N 0.29517 0.85936 0.35974 0.0
N654 N 0.26379 0.82436 0.43009 0.0
C655 C 0.27363 0.84109 0.48326 0.0
C656 C 0.29147 0.8593 0.44481 0.0
C657 C 0.26438 0.16135 0.97149 0.0
C658 C 0.23999 0.14925 0.89579 0.0
C659 C 0.2947 0.14663 0.02519 0.0
C660 C 0.30577 0.11681 0.02134 0.0
H661 H 0.26063 0.17931 0.98576 0.0
H662 H 0.30064 0.13075 0.02326 0.0
S663 S 0.29132 0.06625 0.8489 0.0
N664 N 0.25913 0.08321 0.82236 0.0
N665 N 0.31042 0.07671 0.93462 0.0
C666 C 0.2924 0.09588 0.95279 0.0
C667 C 0.26213 0.09981 0.88283 0.0
C668 C 0.808 0.85022 0.93889 0.0
C669 C 0.80271 0.8584 0.02035 0.0
C670 C 0.78173 0.84271 0.88661 0.0
C671 C 0.74685 0.8441 0.90601 0.0
H672 H 0.8336 0.84886 0.91535 0.0
H673 H 0.78951 0.83481 0.82752 0.0
S674 S 0.71442 0.87398 0.17771 0.0
N675 N 0.76188 0.86989 0.14171 0.0
N676 N 0.69432 0.86382 0.06625 0.0
C677 C 0.73654 0.85504 0.98558 0.0
C678 C 0.77087 0.86064 0.05 0.0
C679 C 0.78038 0.14922 0.54376 0.0
C680 C 0.75144 0.1386 0.60974 0.0
C681 C 0.79994 0.13475 0.46529 0.0
C682 C 0.79347 0.10761 0.4345 0.0
H683 H 0.78682 0.16707 0.55217 0.0
H684 H 0.82204 0.14214 0.438 0.0
S685 S 0.74352 0.05344 0.51112 0.0
N686 N 0.75379 0.08679 0.51934 0.0
N687 N 0.76299 0.07023 0.45964 0.0
C688 C 0.76449 0.08951 0.49191 0.0
C689 C 0.7397 0.11005 0.6007 0.0
C690 C 0.6679 0.1314 0.45371 0.0
C691 C 0.67114 0.11074 0.49832 0.0
C692 C 0.69399 0.14384 0.41375 0.0
C693 C 0.72925 0.14063 0.42196 0.0
H694 H 0.64273 0.1385 0.448 0.0
H695 H 0.68544 0.15794 0.37484 0.0
S696 S 0.76662 0.07964 0.65688 0.0
N697 N 0.70993 0.08039 0.5959 0.0
N698 N 0.78908 0.11135 0.5749 0.0
C699 C 0.74079 0.12275 0.47737 0.0
C700 C 0.70174 0.1006 0.5082 0.0
C701 C 0.67816 0.83959 0.96243 0.0
C702 C 0.68053 0.86729 0.92727 0.0
C703 C 0.69961 0.82573 0.03931 0.0
C704 C 0.72749 0.83905 0.10457 0.0
H705 H 0.65939 0.82948 0.9316 0.0
H706 H 0.69756 0.80733 0.04206 0.0
S707 S 0.7359 0.92349 0.97714 0.0
N708 N 0.7061 0.91001 0.92105 0.0
N709 N 0.74991 0.90675 0.0552 0.0
C710 C 0.72995 0.88821 0.04223 0.0
C711 C 0.70419 0.88961 0.96046 0.0
C712 C 0.67596 0.63744 0.47671 0.0
C713 C 0.67453 0.61355 0.47146 0.0
C714 C 0.69739 0.64849 0.53274 0.0
C715 C 0.71776 0.63604 0.58817 0.0
H716 H 0.66112 0.6477 0.43473 0.0
H717 H 0.69923 0.66696 0.5293 0.0
S718 S 0.71933 0.57249 0.60944 0.0
N719 N 0.69226 0.57733 0.53278 0.0
N720 N 0.73277 0.598 0.64019 0.0
C721 C 0.71505 0.61187 0.58785 0.0
C722 C 0.69317 0.60062 0.52951 0.0
C723 C 0.67597 0.36465 0.93839 0.0
C724 C 0.68345 0.36789 0.02489 0.0
C725 C 0.69101 0.34778 0.88555 0.0
C726 C 0.71201 0.32982 0.91407 0.0
H727 H 0.6567 0.3753 0.91 0.0
H728 H 0.68513 0.34853 0.81891 0.0
S729 S 0.76072 0.32605 0.17464 0.0
N730 N 0.72728 0.35534 0.15434 0.0
N731 N 0.74854 0.31361 0.05065 0.0
C732 C 0.72077 0.33008 -0.00027 0.0
C733 C 0.70892 0.35456 0.05892 0.0
C734 C 0.77857 0.34673 0.97285 0.0
C735 C 0.76527 0.34944 0.05691 0.0
C736 C 0.78476 0.36556 0.92573 0.0
C737 C 0.80651 0.38061 0.96268 0.0
H738 H 0.77921 0.3309 0.93996 0.0
H739 H 0.78377 0.36389 0.8576 0.0
S740 S 0.82641 0.38396 0.19022 0.0
N741 N 0.79201 0.36823 0.18411 0.0
N742 N 0.8356 0.39091 0.09221 0.0
C743 C 0.80983 0.38053 0.05062 0.0
C744 C 0.78681 0.36694 0.09915 0.0
C745 C 0.77938 0.64693 0.44128 0.0
C746 C 0.75731 0.63474 0.38918 0.0
C747 C 0.80017 0.63561 0.49817 0.0
C748 C 0.79948 0.61182 0.50732 0.0
H749 H 0.78005 0.66546 0.43949 0.0
H750 H 0.81724 0.64544 0.53607 0.0
S751 S 0.75077 0.57108 0.37612 0.0
N752 N 0.73897 0.59671 0.34296 0.0
N753 N 0.77857 0.57572 0.45141 0.0
C754 C 0.77931 0.59902 0.45207 0.0
C755 C 0.75794 0.61047 0.39311 0.0
C756 C 0.30534 0.358 0.43273 0.0
C757 C 0.2995 0.36263 0.51876 0.0
C758 C 0.28509 0.34287 0.38429 0.0
C759 C 0.26125 0.32745 0.41899 0.0
H760 H 0.32573 0.36679 0.40094 0.0
H761 H 0.28864 0.34307 0.31653 0.0
S762 S 0.21447 0.3345 0.67924 0.0
N763 N 0.25332 0.35841 0.64822 0.0
N764 N 0.22478 0.3164 0.5611 0.0
C765 C 0.25543 0.32837 0.50547 0.0
C766 C 0.27248 0.35232 0.55622 0.0
C767 C 0.2849 0.627 0.96356 0.0
C768 C 0.30689 0.61067 -0.00592 0.0
C769 C 0.27271 0.64408 0.01607 0.0
C770 C 0.27376 0.64245 0.10316 0.0
H771 H 0.28065 0.62827 0.89673 0.0
H772 H 0.2619 0.65886 0.98778 0.0
S773 S 0.33473 0.6057 0.2164 0.0
N774 N 0.33842 0.59761 0.11663 0.0
N775 N 0.30377 0.62481 0.21988 0.0
C776 C 0.29533 0.6256 0.13714 0.0
C777 C 0.31363 0.61046 0.08142 0.0
C778 C 0.2026 0.64265 0.96118 0.0
C779 C 0.20081 0.641 0.87397 0.0
C780 C 0.19056 0.62563 0.01363 0.0
C781 C 0.16776 0.60976 0.98331 0.0
H782 H 0.21188 0.65799 -0.01019 0.0
H783 H 0.19506 0.62689 0.08049 0.0
S784 S 0.13769 0.60593 0.76245 0.0
N785 N 0.16919 0.62441 0.75838 0.0
N786 N 0.13475 0.59759 0.86174 0.0
C787 C 0.1603 0.60983 0.89633 0.0
C788 C 0.1785 0.62469 0.84053 0.0
C789 C 0.18101 0.34516 0.53115 0.0
C790 C 0.21533 0.35332 0.55007 0.0
C791 C 0.16142 0.35311 0.46747 0.0
C792 C 0.17222 0.37102 0.41858 0.0
H793 H 0.16965 0.33058 0.56194 0.0
H794 H 0.13705 0.34513 0.45745 0.0
S795 S 0.24047 0.41166 0.46171 0.0
N796 N 0.24366 0.39197 0.53535 0.0
N797 N 0.2091 0.40314 0.40221 0.0
C798 C 0.20025 0.3834 0.44188 0.0
C799 C 0.21977 0.37638 0.51238 0.0
C800 C 0.33048 0.1977 0.92442 0.0
C801 C 0.34389 0.20238 0.00509 0.0
C802 C 0.323 0.21556 0.86797 0.0
C803 C 0.32941 0.23842 0.89097 0.0
H804 H 0.32309 0.18043 0.90782 0.0
H805 H 0.31203 0.21152 0.80724 0.0
S806 S 0.36541 0.25958 0.09142 0.0
N807 N 0.36652 0.23136 0.09923 0.0
N808 N 0.34853 0.26481 -0.00113 0.0
C809 C 0.34368 0.24308 0.96958 0.0
C810 C 0.35304 0.22503 0.02397 0.0
C811 C 0.96762 0.86667 0.39934 0.0
C812 C 0.96088 0.8855 0.34748 0.0
C813 C -0.00477 0.8669 0.45436 0.0
C814 C 0.01673 0.88604 0.45963 0.0
H815 H 0.95212 0.85145 0.39563 0.0
H816 H -0.00026 0.85195 0.49292 0.0
S817 S 0.0086 0.94025 0.33824 0.0
N818 N 0.9768 0.92428 0.30677 0.0
N819 N 0.02881 0.92454 0.4081 0.0
C820 C 0.00976 0.90517 0.40853 0.0
C821 C 0.98173 0.90496 0.35311 0.0
C822 C 0.11446 0.74338 0.41611 0.0
C823 C 0.14728 0.73949 0.38326 0.0
C824 C 0.10761 0.76068 0.47639 0.0
C825 C 0.1329 0.7758 0.50371 0.0
H826 H 0.09412 0.73183 0.40009 0.0
H827 H 0.08318 0.76085 0.50699 0.0
S828 S 0.22309 0.77121 0.45238 0.0
N829 N 0.20564 0.75134 0.39217 0.0
N830 N 0.19174 0.78497 0.49802 0.0
C831 C 0.16498 0.77325 0.46702 0.0
C832 C 0.17254 0.75485 0.40914 0.0
C833 C 0.51386 0.07826 0.91062 0.0
C834 C 0.51883 0.09699 0.85715 0.0
C835 C 0.48524 0.07689 0.96055 0.0
C836 C 0.46129 0.09459 0.96053 0.0
H837 H 0.53091 0.06369 0.90865 0.0
H838 H 0.48179 0.06169 -0.00174 0.0
S839 S 0.46155 0.14641 0.82666 0.0
N840 N 0.49683 0.13278 0.80191 0.0
N841 N 0.44338 0.13098 0.90108 0.0
C842 C 0.46622 0.11371 0.90871 0.0
C843 C 0.49511 0.1148 0.8559 0.0
C844 C 0.34893 0.75361 0.60825 0.0
C845 C 0.32308 0.73748 0.59327 0.0
C846 C 0.35719 0.77053 0.54779 0.0
C847 C 0.341 0.77091 0.46872 0.0
H848 H 0.36311 0.75288 0.66643 0.0
H849 H 0.37641 0.78305 0.56252 0.0
S850 S 0.27747 0.72944 0.39276 0.0
N851 N 0.28376 0.72209 0.49178 0.0
N852 N 0.30148 0.75198 0.37636 0.0
C853 C 0.31657 0.75415 0.45257 0.0
C854 C 0.30693 0.73797 0.51514 0.0
C855 C 0.49163 0.89673 0.50479 0.0
C856 C 0.46326 0.88298 0.51603 0.0
C857 C 0.51861 0.89474 0.55884 0.0
C858 C 0.51725 0.87922 0.62559 0.0
H859 H 0.49267 0.90938 0.45501 0.0
H860 H 0.53935 0.90669 0.55276 0.0
S861 S 0.44646 0.84195 0.68826 0.0
N862 N 0.43375 0.85463 0.60088 0.0
N863 N 0.48499 0.85144 0.7055 0.0
C864 C 0.48894 0.86546 0.63797 0.0
C865 C 0.4615 0.86728 0.58229 0.0
C866 C 0.1596 0.20303 0.03453 0.0
C867 C 0.13029 0.20377 0.98394 0.0
C868 C 0.16749 0.22093 0.09155 0.0
C869 C 0.14601 0.24009 0.10036 0.0
H870 H 0.17843 0.18986 0.02288 0.0
H871 H 0.19131 0.22037 0.12458 0.0
S872 S 0.06381 0.24823 -0.00825 0.0
N873 N 0.07818 0.22356 0.95499 0.0
N874 N 0.0921 0.25695 0.06021 0.0
C875 C 0.11506 0.23961 0.05633 0.0
C876 C 0.10721 0.2214 -0.00056 0.0
C877 C 0.02001 0.08972 0.09772 0.0
C878 C 0.01452 0.09699 0.01536 0.0
C879 C -0.0064 0.08871 0.1545 0.0
C880 C 0.9605 0.09421 0.13025 0.0
H881 H 0.04494 0.08467 0.11837 0.0
H882 H -0.00075 0.08306 0.21791 0.0
S883 S 0.93298 0.11238 0.91769 0.0
N884 N 0.97416 0.10874 0.90886 0.0
N885 N 0.92347 0.10673 0.01708 0.0
C886 C 0.95452 0.10159 0.04749 0.0
C887 C 0.98186 0.10281 -0.01074 0.0
C888 C 0.62283 0.75085 0.9656 0.0
C889 C 0.62817 0.77389 0.98742 0.0
C890 C 0.63477 0.733 0.01595 0.0
C891 C 0.65089 0.73709 0.09327 0.0
H892 H 0.61324 0.74649 0.90369 0.0
H893 H 0.63116 0.71555 -0.00602 0.0
S894 S 0.65966 0.7942 0.19538 0.0
N895 N 0.64155 0.79965 0.10376 0.0
N896 N 0.66621 0.76616 0.19715 0.0
C897 C 0.65331 0.76001 0.12108 0.0
C898 C 0.64054 0.77828 0.06949 0.0
C899 C 0.0022 0.11286 0.60273 0.0
C900 C 0.01869 0.09228 0.62198 0.0
C901 C 0.97414 0.11279 0.54941 0.0
C902 C 0.96144 0.0921 0.51648 0.0
H903 H 0.00966 0.12875 0.63295 0.0
H904 H 0.96141 0.12888 0.53705 0.0
S905 S -0.00234 0.0337 0.54971 0.0
N906 N 0.02294 0.05122 0.6008 0.0
N907 N 0.96833 0.05035 0.50877 0.0
C908 C 0.9785 0.07143 0.53506 0.0
C909 C 0.00782 0.07178 0.58535 0.0
C910 C 0.85107 0.22283 0.60898 0.0
C911 C 0.82325 0.23752 0.59577 0.0
C912 C 0.86164 0.20701 0.54632 0.0
C913 C 0.84762 0.20767 0.46487 0.0
H914 H 0.86434 0.22343 0.66851 0.0
H915 H 0.88022 0.1941 0.56192 0.0
S916 S 0.76938 0.23632 0.40603 0.0
N917 N 0.77518 0.2441 0.50546 0.0
N918 N 0.80406 0.22323 0.37691 0.0
C919 C 0.82157 0.22354 0.45037 0.0
C920 C 0.80654 0.23571 0.51873 0.0
C921 C 0.49235 0.89128 0.15333 0.0
C922 C 0.46019 0.88296 0.13151 0.0
C923 C 0.51882 0.89099 0.09623 0.0
C924 C 0.51455 0.88182 0.01564 0.0
H925 H 0.49723 0.89851 0.21517 0.0
H926 H 0.54286 0.89804 0.11534 0.0
S927 S 0.43565 0.859 0.92389 0.0
N928 N 0.42532 0.86603 0.02184 0.0
N929 N 0.47606 0.86514 0.91348 0.0
C930 C 0.48287 0.87325 -0.00798 0.0
C931 C 0.45542 0.87378 0.05045 0.0
C932 C 0.67186 0.2254 0.40559 0.0
C933 C 0.64413 0.23761 0.37466 0.0
C934 C 0.66711 0.20695 0.46083 0.0
C935 C 0.63471 0.20116 0.49161 0.0
H936 H 0.69718 0.23118 0.39262 0.0
H937 H 0.68929 0.19942 0.48938 0.0
S938 S 0.5542 0.22369 0.40559 0.0
N939 N 0.58365 0.23809 0.35549 0.0
N940 N 0.57431 0.20628 0.47055 0.0
C941 C 0.60682 0.21139 0.45185 0.0
C942 C 0.6118 0.229 0.39082 0.0
C943 C 0.47462 0.11354 0.37543 0.0
C944 C 0.45604 0.09372 0.35965 0.0
C945 C 0.50265 0.11254 0.42754 0.0
C946 C 0.51292 0.09162 0.46279 0.0
H947 H 0.46877 0.12941 0.3433 0.0
H948 H 0.5171 0.12804 0.43768 0.0
S949 S 0.472 0.03472 0.43496 0.0
N950 N 0.44814 0.05294 0.38292 0.0
N951 N 0.5028 0.05034 0.47436 0.0
C952 C 0.49429 0.07159 0.44649 0.0
C953 C 0.46503 0.0729 0.39696 0.0
C954 C 0.85696 0.77062 0.9273 0.0
C955 C 0.83918 0.77277 0.00376 0.0
C956 C 0.84895 0.75306 0.86914 0.0
C957 C 0.82215 0.73769 0.88385 0.0
H958 H 0.87707 0.78245 0.91245 0.0
H959 H 0.86422 0.75118 0.81274 0.0
S960 S 0.76667 0.73726 0.07216 0.0
N961 N 0.79365 0.75815 0.09054 0.0
N962 N 0.77691 0.7267 0.97858 0.0
C963 C 0.80338 0.74035 0.95823 0.0
C964 C 0.81247 0.75742 0.01886 0.0
C965 C 0.01765 0.87934 0.92763 0.0
C966 C 0.01144 0.88276 0.84167 0.0
C967 C -0.00902 0.8795 0.9855 0.0
C968 C 0.95781 0.88318 0.95836 0.0
H969 H 0.04317 0.87743 0.95047 0.0
H970 H -0.00365 0.87742 0.05196 0.0
S971 S 0.92855 0.89344 0.74046 0.0
N972 N 0.96963 0.88966 0.73199 0.0
N973 N 0.91996 0.89096 0.84198 0.0
C974 C 0.95128 0.8868 0.87301 0.0
C975 C 0.97809 0.88623 0.8141 0.0
C976 C 0.84375 0.72033 0.36568 0.0
C977 C 0.82375 0.7395 0.3873 0.0
C978 C 0.85208 0.70372 0.42667 0.0
C979 C 0.84274 0.70695 0.51174 0.0
H980 H 0.85259 0.71811 0.30141 0.0
H981 H 0.86451 0.68803 0.40679 0.0
S982 S 0.79054 0.75424 0.59893 0.0
N983 N 0.79271 0.75956 0.49692 0.0
N984 N 0.81465 0.73156 0.61396 0.0
C985 C 0.82551 0.72725 0.53392 0.0
C986 C 0.8138 0.74246 0.47105 0.0
C987 C 0.46073 0.37069 0.91159 0.0
C988 C 0.46241 0.38458 0.83962 0.0
C989 C 0.48758 0.3699 0.96868 0.0
C990 C 0.51666 0.3831 0.95544 0.0
H991 H 0.43866 0.36035 0.92374 0.0
H992 H 0.48537 0.35919 0.02397 0.0
S993 S 0.53313 0.42326 0.77916 0.0
N994 N 0.49559 0.41249 0.75999 0.0
N995 N 0.54529 0.4111 0.86753 0.0
C996 C 0.51832 0.3975 0.88494 0.0
C997 C 0.49137 0.39821 0.82683 0.0
C998 C 0.61767 0.25121 0.01005 0.0
C999 C 0.62567 0.27412 -0.0068 0.0
C1000 C 0.62883 0.23348 0.95805 0.0
C1001 C 0.64639 0.23772 0.8831 0.0
H1002 H 0.60622 0.24662 0.06973 0.0
H1003 H 0.62369 0.21602 0.97732 0.0
S1004 S 0.66381 0.29488 0.79283 0.0
N1005 N 0.64701 0.30047 0.88657 0.0
N1006 N 0.66632 0.26665 0.78505 0.0
C1007 C 0.65238 0.26057 0.86006 0.0
C1008 C 0.64185 0.27888 0.91529 0.0
C1009 C -0.01113 0.58195 0.47758 0.0
C1010 C 0.96044 0.59579 0.46404 0.0
C1011 C 0.01665 0.58325 0.42359 0.0
C1012 C 0.01635 0.59819 0.35446 0.0
H1013 H -0.01069 0.56976 0.52892 0.0
H1014 H 0.03727 0.57124 0.4319 0.0
S1015 S 0.94486 0.63385 0.28266 0.0
N1016 N 0.9317 0.62247 0.37204 0.0
N1017 N 0.98384 0.62453 0.26904 0.0
C1018 C -0.01233 0.6116 0.33947 0.0
C1019 C 0.95955 0.6104 0.39457 0.0
C1020 C 0.83548 0.25227 0.95272 0.0
C1021 C 0.84351 0.27453 0.98074 0.0
C1022 C 0.82548 0.23518 0.00867 0.0
C1023 C 0.82489 0.23898 0.09589 0.0
H1024 H 0.83345 0.24867 0.88579 0.0
H1025 H 0.81834 0.2186 0.98324 0.0
S1026 S 0.85261 0.29198 0.20533 0.0
N1027 N 0.85529 0.29833 0.10388 0.0
N1028 N 0.83866 0.26531 0.21001 0.0
C1029 C 0.83571 0.26041 0.1265 0.0
C1030 C 0.8449 0.27828 0.06879 0.0
C1031 C -0.00721 0.38577 -0.01003 0.0
C1032 C 0.96019 0.38046 0.01762 0.0
C1033 C 0.01917 0.38634 0.04705 0.0
C1034 C 0.01287 0.38173 0.13196 0.0
H1035 H -0.00252 0.39046 0.92491 0.0
H1036 H 0.04389 0.39178 0.02601 0.0
S1037 S 0.93125 0.36972 0.23569 0.0
N1038 N 0.9222 0.37282 0.13474 0.0
N1039 N 0.97248 0.37264 0.24243 0.0
C1040 C 0.98039 0.37636 0.16005 0.0
C1041 C 0.95356 0.37627 0.10253 0.0
C1042 C 0.64369 0.70025 0.56038 0.0
C1043 C 0.6313 0.70462 0.47851 0.0
C1044 C 0.65276 0.7183 0.61568 0.0
C1045 C 0.64943 0.74131 0.59047 0.0
H1046 H 0.64851 0.68278 0.57955 0.0
H1047 H 0.66243 0.71424 0.67762 0.0
S1048 S 0.61596 0.76201 0.38692 0.0
N1049 N 0.6128 0.73382 0.38062 0.0
N1050 N 0.63246 0.76736 0.48008 0.0
C1051 C 0.63571 0.74574 0.51087 0.0
C1052 C 0.62519 0.72756 0.45693 0.0
C1053 C 0.50166 0.61449 0.54823 0.0
C1054 C 0.5138 0.59404 0.5115 0.0
C1055 C 0.47397 0.6142 0.60369 0.0
C1056 C 0.45737 0.59353 0.62132 0.0
H1057 H 0.51458 0.63053 0.53722 0.0
H1058 H 0.4669 0.62982 0.6366 0.0
S1059 S 0.47962 0.53546 0.54315 0.0
N1060 N 0.50776 0.55253 0.50056 0.0
N1061 N 0.45423 0.55249 0.59718 0.0
C1062 C 0.46841 0.57329 0.58191 0.0
C1063 C 0.4972 0.57336 0.52935 0.0
C1064 C 0.14991 0.2602 0.61479 0.0
C1065 C 0.14669 0.23735 0.588 0.0
C1066 C 0.14012 0.27821 0.56122 0.0
C1067 C 0.12725 0.27384 0.47966 0.0
H1068 H 0.16003 0.26413 0.67655 0.0
H1069 H 0.14549 0.2956 0.58062 0.0
S1070 S 0.11401 0.21634 0.38438 0.0
N1071 N 0.13084 0.21109 0.47705 0.0
N1072 N 0.10945 0.24448 0.38017 0.0
C1073 C 0.12148 0.25082 0.45696 0.0
C1074 C 0.13308 0.23275 0.5089 0.0
C1075 C 0.51745 0.58339 0.05299 0.0
C1076 C 0.51678 0.59709 0.12576 0.0
C1077 C 0.48972 0.58263 -0.00033 0.0
C1078 C 0.46091 0.59574 0.01774 0.0
H1079 H 0.53858 0.57204 0.04046 0.0
H1080 H 0.49062 0.5714 0.94514 0.0
S1081 S 0.44508 0.63192 0.20556 0.0
N1082 N 0.48419 0.62263 0.21673 0.0
N1083 N 0.43183 0.62124 0.11497 0.0
C1084 C 0.4598 0.6095 0.08992 0.0
C1085 C 0.48799 0.61024 0.14444 0.0
C1086 C 0.33815 0.71742 0.11335 0.0
C1087 C 0.32488 0.7384 0.08525 0.0
C1088 C 0.34628 0.69979 0.05528 0.0
C1089 C 0.3426 0.70305 0.96748 0.0
H1090 H 0.34192 0.71459 0.18015 0.0
H1091 H 0.35364 0.68316 0.07927 0.0
S1092 S 0.308 0.7551 0.86509 0.0
N1093 N 0.30669 0.76112 0.96679 0.0
N1094 N 0.3255 0.72944 0.85755 0.0
C1095 C 0.33121 0.72466 0.94003 0.0
C1096 C 0.32103 0.74184 -0.00112 0.0
C1097 C 0.98409 0.3899 0.49194 0.0
C1098 C 0.01545 0.38133 0.51773 0.0
C1099 C 0.95656 0.38939 0.54656 0.0
C1100 C 0.96021 0.3804 0.62755 0.0
H1101 H 0.98121 0.39772 0.43053 0.0
H1102 H 0.93317 0.39751 0.5278 0.0
S1103 S 0.03773 0.3576 0.72582 0.0
N1104 N 0.04916 0.36457 0.629 0.0
N1105 N -0.00292 0.36349 0.73242 0.0
C1106 C -0.00872 0.37142 0.65327 0.0
C1107 C 0.01922 0.37201 0.59796 0.0
C1108 C 0.17091 0.71502 0.98826 0.0
C1109 C 0.1395 0.7039 -0.00394 0.0
C1110 C 0.17654 0.7329 0.93074 0.0
C1111 C 0.1508 0.74094 0.87831 0.0
H1112 H 0.19159 0.71 0.02856 0.0
H1113 H 0.20095 0.74113 0.93009 0.0
S1114 S 0.0645 0.71668 0.86297 0.0
N1115 N 0.08236 0.70163 0.93917 0.0
N1116 N 0.09335 0.73498 0.8303 0.0
C1117 C 0.11945 0.72948 0.88177 0.0
C1118 C 0.11355 0.71116 0.94096 0.0
C1119 C 0.95519 0.5948 0.93007 0.0
C1120 C 0.96159 0.59491 0.84304 0.0
C1121 C 0.98203 0.59489 0.98727 0.0
C1122 C 0.0155 0.59492 0.95814 0.0
H1123 H 0.92967 0.59322 0.95368 0.0
H1124 H 0.97672 0.59387 0.05422 0.0
S1125 S 0.04496 0.59456 0.73658 0.0
N1126 N 0.00352 0.59571 0.73069 0.0
N1127 N 0.05368 0.59422 0.83831 0.0
C1128 C 0.0221 0.59517 0.87168 0.0
C1129 C -0.00492 0.59578 0.81396 0.0
C1130 C 0.34931 0.25029 0.51293 0.0
C1131 C 0.34671 0.27354 0.49198 0.0
C1132 C 0.33635 0.23323 0.46082 0.0
C1133 C 0.3229 0.23812 0.38127 0.0
H1134 H 0.35743 0.24534 0.57548 0.0
H1135 H 0.3373 0.2157 0.48304 0.0
S1136 S 0.31881 0.29595 0.28452 0.0
N1137 N 0.3337 0.30069 0.38042 0.0
N1138 N 0.31251 0.26797 0.27719 0.0
C1139 C 0.32286 0.26119 0.35474 0.0
C1140 C 0.33457 0.27896 0.41072 0.0
C1141 C 0.4918 0.38873 0.48727 0.0
C1142 C 0.4595 0.38211 0.46087 0.0
C1143 C 0.51908 0.38815 0.43101 0.0
C1144 C 0.51443 0.38104 0.34728 0.0
H1145 H 0.49568 0.39513 0.55074 0.0
H1146 H 0.54319 0.39482 0.45124 0.0
S1147 S 0.43461 0.36266 0.24762 0.0
N1148 N 0.42421 0.36857 0.3464 0.0
N1149 N 0.47559 0.36707 0.24084 0.0
C1150 C 0.48246 0.37361 0.3214 0.0
C1151 C 0.45479 0.37436 0.37819 0.0
loop_
_geom_bond_atom_site_label_1
_geom_bond_atom_site_label_2
_geom_bond_distance
_geom_bond_site_symmetry_2
_ccdc_geom_bond_type
C0 O1 1.306 . S
C0 O3 1.160 . S
O1 C0 1.306 . S
O1 Cd2 2.228 . S
Cd2 O1 2.228 . S
Cd2 O6 2.273 . S
Cd2 O10 2.277 . S
O3 C0 1.160 . S
O3 Cd4 2.203 . S
Cd4 O3 2.203 . S
Cd4 O6 2.411 . S
Cd4 O7 2.333 . S
Cd4 O8 2.352 . S
Cd4 O12 2.277 . S
Cd4 O13 2.356 . S
C5 O10 1.209 . S
C5 O12 1.226 . S
O6 Cd2 2.273 . S
O6 Cd4 2.411 . S
O6 C9 1.320 . S
O7 Cd4 2.333 . S
O7 C9 1.214 . S
O8 Cd4 2.352 . S
O8 C11 1.258 . S
C9 O6 1.320 . S
C9 O7 1.214 . S
O10 Cd2 2.277 . S
O10 C5 1.209 . S
C11 O8 1.258 . S
C11 O13 1.282 . S
O12 Cd4 2.277 . S
O12 C5 1.226 . S
O13 Cd4 2.356 . S
O13 C11 1.282 . S
C14 O15 1.306 . S
C14 O17 1.160 . S
O15 C14 1.306 . S
O15 Cd16 2.228 . S
Cd16 O15 2.228 . S
Cd16 O20 2.273 . S
Cd16 O24 2.277 . S
O17 C14 1.160 . S
O17 Cd18 2.203 . S
Cd18 O17 2.203 . S
Cd18 O20 2.411 . S
Cd18 O21 2.333 . S
Cd18 O22 2.352 . S
Cd18 O26 2.277 . S
Cd18 O27 2.356 . S
C19 O24 1.209 . S
C19 O26 1.226 . S
O20 Cd16 2.273 . S
O20 Cd18 2.411 . S
O20 C23 1.320 . S
O21 Cd18 2.333 . S
O21 C23 1.214 . S
O22 Cd18 2.352 . S
O22 C25 1.258 . S
C23 O20 1.320 . S
C23 O21 1.214 . S
O24 Cd16 2.277 . S
O24 C19 1.209 . S
C25 O22 1.258 . S
C25 O27 1.282 . S
O26 Cd18 2.277 . S
O26 C19 1.226 . S
O27 Cd18 2.356 . S
O27 C25 1.282 . S
C28 O29 1.306 . S
C28 O31 1.160 . S
O29 C28 1.306 . S
O29 Cd30 2.228 . S
Cd30 O29 2.228 . S
Cd30 O34 2.273 . S
Cd30 O38 2.277 . S
O31 C28 1.160 . S
O31 Cd32 2.203 . S
Cd32 O31 2.203 . S
Cd32 O34 2.411 . S
Cd32 O35 2.333 . S
Cd32 O36 2.352 . S
Cd32 O40 2.277 . S
Cd32 O41 2.356 . S
C33 O38 1.209 . S
C33 O40 1.226 . S
O34 Cd30 2.273 . S
O34 Cd32 2.411 . S
O34 C37 1.320 . S
O35 Cd32 2.333 . S
O35 C37 1.214 . S
O36 Cd32 2.352 . S
O36 C39 1.258 . S
C37 O34 1.320 . S
C37 O35 1.214 . S
O38 Cd30 2.277 . S
O38 C33 1.209 . S
C39 O36 1.258 . S
C39 O41 1.282 . S
O40 Cd32 2.277 . S
O40 C33 1.226 . S
O41 Cd32 2.356 . S
O41 C39 1.282 . S
C42 O43 1.306 . S
C42 O45 1.160 . S
O43 C42 1.306 . S
O43 Cd44 2.228 . S
Cd44 O43 2.228 . S
Cd44 O48 2.273 . S
Cd44 O52 2.277 . S
O45 C42 1.160 . S
O45 Cd46 2.203 . S
Cd46 O45 2.203 . S
Cd46 O48 2.411 . S
Cd46 O49 2.333 . S
Cd46 O50 2.352 . S
Cd46 O54 2.277 . S
Cd46 O55 2.356 . S
C47 O52 1.209 . S
C47 O54 1.226 . S
O48 Cd44 2.273 . S
O48 Cd46 2.411 . S
O48 C51 1.320 . S
O49 Cd46 2.333 . S
O49 C51 1.214 . S
O50 Cd46 2.352 . S
O50 C53 1.258 . S
C51 O48 1.320 . S
C51 O49 1.214 . S
O52 Cd44 2.277 . S
O52 C47 1.209 . S
C53 O50 1.258 . S
C53 O55 1.282 . S
O54 Cd46 2.277 . S
O54 C47 1.226 . S
O55 Cd46 2.356 . S
O55 C53 1.282 . S
C56 O57 1.306 . S
C56 O59 1.160 . S
O57 C56 1.306 . S
O57 Cd58 2.228 . S
Cd58 O57 2.228 . S
Cd58 O62 2.273 . S
Cd58 O66 2.277 . S
O59 C56 1.160 . S
O59 Cd60 2.203 . S
Cd60 O59 2.203 . S
Cd60 O62 2.411 . S
Cd60 O63 2.333 . S
Cd60 O64 2.352 . S
Cd60 O68 2.277 . S
Cd60 O69 2.356 . S
C61 O66 1.209 . S
C61 O68 1.226 . S
O62 Cd58 2.273 . S
O62 Cd60 2.411 . S
O62 C65 1.320 . S
O63 Cd60 2.333 . S
O63 C65 1.214 . S
O64 Cd60 2.352 . S
O64 C67 1.258 . S
C65 O62 1.320 . S
C65 O63 1.214 . S
O66 Cd58 2.277 . S
O66 C61 1.209 . S
C67 O64 1.258 . S
C67 O69 1.282 . S
O68 Cd60 2.277 . S
O68 C61 1.226 . S
O69 Cd60 2.356 . S
O69 C67 1.282 . S
C70 O71 1.306 . S
C70 O73 1.160 . S
O71 C70 1.306 . S
O71 Cd72 2.228 . S
Cd72 O71 2.228 . S
Cd72 O76 2.273 . S
Cd72 O80 2.277 . S
O73 C70 1.160 . S
O73 Cd74 2.203 . S
Cd74 O73 2.203 . S
Cd74 O76 2.411 . S
Cd74 O77 2.333 . S
Cd74 O78 2.352 . S
Cd74 O82 2.277 . S
Cd74 O83 2.356 . S
C75 O80 1.209 . S
C75 O82 1.226 . S
O76 Cd72 2.273 . S
O76 Cd74 2.411 . S
O76 C79 1.320 . S
O77 Cd74 2.333 . S
O77 C79 1.214 . S
O78 Cd74 2.352 . S
O78 C81 1.258 . S
C79 O76 1.320 . S
C79 O77 1.214 . S
O80 Cd72 2.277 . S
O80 C75 1.209 . S
C81 O78 1.258 . S
C81 O83 1.282 . S
O82 Cd74 2.277 . S
O82 C75 1.226 . S
O83 Cd74 2.356 . S
O83 C81 1.282 . S
C84 O85 1.306 . S
C84 O87 1.160 . S
O85 C84 1.306 . S
O85 Cd86 2.228 . S
Cd86 O85 2.228 . S
Cd86 O90 2.273 . S
Cd86 O94 2.277 . S
O87 C84 1.160 . S
O87 Cd88 2.203 . S
Cd88 O87 2.203 . S
Cd88 O90 2.411 . S
Cd88 O91 2.333 . S
Cd88 O92 2.352 . S
Cd88 O96 2.277 . S
Cd88 O97 2.356 . S
C89 O94 1.209 . S
C89 O96 1.226 . S
O90 Cd86 2.273 . S
O90 Cd88 2.411 . S
O90 C93 1.320 . S
O91 Cd88 2.333 . S
O91 C93 1.214 . S
O92 Cd88 2.352 . S
O92 C95 1.258 . S
C93 O90 1.320 . S
C93 O91 1.214 . S
O94 Cd86 2.277 . S
O94 C89 1.209 . S
C95 O92 1.258 . S
C95 O97 1.282 . S
O96 Cd88 2.277 . S
O96 C89 1.226 . S
O97 Cd88 2.356 . S
O97 C95 1.282 . S
C98 O99 1.306 . S
C98 O101 1.160 . S
O99 C98 1.306 . S
O99 Cd100 2.228 . S
Cd100 O99 2.228 . S
Cd100 O104 2.273 . S
Cd100 O108 2.277 . S
O101 C98 1.160 . S
O101 Cd102 2.203 . S
Cd102 O101 2.203 . S
Cd102 O104 2.411 . S
Cd102 O105 2.333 . S
Cd102 O106 2.352 . S
Cd102 O110 2.277 . S
Cd102 O111 2.356 . S
C103 O108 1.209 . S
C103 O110 1.226 . S
O104 Cd100 2.273 . S
O104 Cd102 2.411 . S
O104 C107 1.320 . S
O105 Cd102 2.333 . S
O105 C107 1.214 . S
O106 Cd102 2.352 . S
O106 C109 1.258 . S
C107 O104 1.320 . S
C107 O105 1.214 . S
O108 Cd100 2.277 . S
O108 C103 1.209 . S
C109 O106 1.258 . S
C109 O111 1.282 . S
O110 Cd102 2.277 . S
O110 C103 1.226 . S
O111 Cd102 2.356 . S
O111 C109 1.282 . S
C112 O113 1.306 . S
C112 O115 1.160 . S
O113 C112 1.306 . S
O113 Cd114 2.228 . S
Cd114 O113 2.228 . S
Cd114 O118 2.273 . S
Cd114 O122 2.277 . S
O115 C112 1.160 . S
O115 Cd116 2.203 . S
Cd116 O115 2.203 . S
Cd116 O118 2.411 . S
Cd116 O119 2.333 . S
Cd116 O120 2.352 . S
Cd116 O124 2.277 . S
Cd116 O125 2.356 . S
C117 O122 1.209 . S
C117 O124 1.226 . S
O118 Cd114 2.273 . S
O118 Cd116 2.411 . S
O118 C121 1.320 . S
O119 Cd116 2.333 . S
O119 C121 1.214 . S
O120 Cd116 2.352 . S
O120 C123 1.258 . S
C121 O118 1.320 . S
C121 O119 1.214 . S
O122 Cd114 2.277 . S
O122 C117 1.209 . S
C123 O120 1.258 . S
C123 O125 1.282 . S
O124 Cd116 2.277 . S
O124 C117 1.226 . S
O125 Cd116 2.356 . S
O125 C123 1.282 . S
C126 O127 1.306 . S
C126 O129 1.160 . S
O127 C126 1.306 . S
O127 Cd128 2.228 . S
Cd128 O127 2.228 . S
Cd128 O132 2.273 . S
Cd128 O136 2.277 . S
O129 C126 1.160 . S
O129 Cd130 2.203 . S
Cd130 O129 2.203 . S
Cd130 O132 2.411 . S
Cd130 O133 2.333 . S
Cd130 O134 2.352 . S
Cd130 O138 2.277 . S
Cd130 O139 2.356 . S
C131 O136 1.209 . S
C131 O138 1.226 . S
O132 Cd128 2.273 . S
O132 Cd130 2.411 . S
O132 C135 1.320 . S
O133 Cd130 2.333 . S
O133 C135 1.214 . S
O134 Cd130 2.352 . S
O134 C137 1.258 . S
C135 O132 1.320 . S
C135 O133 1.214 . S
O136 Cd128 2.277 . S
O136 C131 1.209 . S
C137 O134 1.258 . S
C137 O139 1.282 . S
O138 Cd130 2.277 . S
O138 C131 1.226 . S
O139 Cd130 2.356 . S
O139 C137 1.282 . S
C140 O141 1.306 . S
C140 O143 1.160 . S
O141 C140 1.306 . S
O141 Cd142 2.228 . S
Cd142 O141 2.228 . S
Cd142 O146 2.273 . S
Cd142 O150 2.277 . S
O143 C140 1.160 . S
O143 Cd144 2.203 . S
Cd144 O143 2.203 . S
Cd144 O146 2.411 . S
Cd144 O147 2.333 . S
Cd144 O148 2.352 . S
Cd144 O152 2.277 . S
Cd144 O153 2.356 . S
C145 O150 1.209 . S
C145 O152 1.226 . S
O146 Cd142 2.273 . S
O146 Cd144 2.411 . S
O146 C149 1.320 . S
O147 Cd144 2.333 . S
O147 C149 1.214 . S
O148 Cd144 2.352 . S
O148 C151 1.258 . S
C149 O146 1.320 . S
C149 O147 1.214 . S
O150 Cd142 2.277 . S
O150 C145 1.209 . S
C151 O148 1.258 . S
C151 O153 1.282 . S
O152 Cd144 2.277 . S
O152 C145 1.226 . S
O153 Cd144 2.356 . S
O153 C151 1.282 . S
C154 O155 1.306 . S
C154 O157 1.160 . S
O155 C154 1.306 . S
O155 Cd156 2.228 . S
Cd156 O155 2.228 . S
Cd156 O160 2.273 . S
Cd156 O164 2.277 . S
O157 C154 1.160 . S
O157 Cd158 2.203 . S
Cd158 O157 2.203 . S
Cd158 O160 2.411 . S
Cd158 O161 2.333 . S
Cd158 O162 2.352 . S
Cd158 O166 2.277 . S
Cd158 O167 2.356 . S
C159 O164 1.209 . S
C159 O166 1.226 . S
O160 Cd156 2.273 . S
O160 Cd158 2.411 . S
O160 C163 1.320 . S
O161 Cd158 2.333 . S
O161 C163 1.214 . S
O162 Cd158 2.352 . S
O162 C165 1.258 . S
C163 O160 1.320 . S
C163 O161 1.214 . S
O164 Cd156 2.277 . S
O164 C159 1.209 . S
C165 O162 1.258 . S
C165 O167 1.282 . S
O166 Cd158 2.277 . S
O166 C159 1.226 . S
O167 Cd158 2.356 . S
O167 C165 1.282 . S
C168 O169 1.306 . S
C168 O171 1.160 . S
O169 C168 1.306 . S
O169 Cd170 2.228 . S
Cd170 O169 2.228 . S
Cd170 O174 2.273 . S
Cd170 O178 2.277 . S
O171 C168 1.160 . S
O171 Cd172 2.203 . S
Cd172 O171 2.203 . S
Cd172 O174 2.411 . S
Cd172 O175 2.333 . S
Cd172 O176 2.352 . S
Cd172 O180 2.277 . S
Cd172 O181 2.356 . S
C173 O178 1.209 . S
C173 O180 1.226 . S
O174 Cd170 2.273 . S
O174 Cd172 2.411 . S
O174 C177 1.320 . S
O175 Cd172 2.333 . S
O175 C177 1.214 . S
O176 Cd172 2.352 . S
O176 C179 1.258 . S
C177 O174 1.320 . S
C177 O175 1.214 . S
O178 Cd170 2.277 . S
O178 C173 1.209 . S
C179 O176 1.258 . S
C179 O181 1.282 . S
O180 Cd172 2.277 . S
O180 C173 1.226 . S
O181 Cd172 2.356 . S
O181 C179 1.282 . S
C182 O183 1.306 . S
C182 O185 1.160 . S
O183 C182 1.306 . S
O183 Cd184 2.228 . S
Cd184 O183 2.228 . S
Cd184 O188 2.273 . S
Cd184 O192 2.277 . S
O185 C182 1.160 . S
O185 Cd186 2.203 . S
Cd186 O185 2.203 . S
Cd186 O188 2.411 . S
Cd186 O189 2.333 . S
Cd186 O190 2.352 . S
Cd186 O194 2.277 . S
Cd186 O195 2.356 . S
C187 O192 1.209 . S
C187 O194 1.226 . S
O188 Cd184 2.273 . S
O188 Cd186 2.411 . S
O188 C191 1.320 . S
O189 Cd186 2.333 . S
O189 C191 1.214 . S
O190 Cd186 2.352 . S
O190 C193 1.258 . S
C191 O188 1.320 . S
C191 O189 1.214 . S
O192 Cd184 2.277 . S
O192 C187 1.209 . S
C193 O190 1.258 . S
C193 O195 1.282 . S
O194 Cd186 2.277 . S
O194 C187 1.226 . S
O195 Cd186 2.356 . S
O195 C193 1.282 . S
C196 O197 1.306 . S
C196 O199 1.160 . S
O197 C196 1.306 . S
O197 Cd198 2.228 . S
Cd198 O197 2.228 . S
Cd198 O202 2.273 . S
Cd198 O206 2.277 . S
O199 C196 1.160 . S
O199 Cd200 2.203 . S
Cd200 O199 2.203 . S
Cd200 O202 2.411 . S
Cd200 O203 2.333 . S
Cd200 O204 2.352 . S
Cd200 O208 2.277 . S
Cd200 O209 2.356 . S
C201 O206 1.209 . S
C201 O208 1.226 . S
O202 Cd198 2.273 . S
O202 Cd200 2.411 . S
O202 C205 1.320 . S
O203 Cd200 2.333 . S
O203 C205 1.214 . S
O204 Cd200 2.352 . S
O204 C207 1.258 . S
C205 O202 1.320 . S
C205 O203 1.214 . S
O206 Cd198 2.277 . S
O206 C201 1.209 . S
C207 O204 1.258 . S
C207 O209 1.282 . S
O208 Cd200 2.277 . S
O208 C201 1.226 . S
O209 Cd200 2.356 . S
O209 C207 1.282 . S
C210 O211 1.306 . S
C210 O213 1.160 . S
O211 C210 1.306 . S
O211 Cd212 2.228 . S
Cd212 O211 2.228 . S
Cd212 O216 2.273 . S
Cd212 O220 2.277 . S
O213 C210 1.160 . S
O213 Cd214 2.203 . S
Cd214 O213 2.203 . S
Cd214 O216 2.411 . S
Cd214 O217 2.333 . S
Cd214 O218 2.352 . S
Cd214 O222 2.277 . S
Cd214 O223 2.356 . S
C215 O220 1.209 . S
C215 O222 1.226 . S
O216 Cd212 2.273 . S
O216 Cd214 2.411 . S
O216 C219 1.320 . S
O217 Cd214 2.333 . S
O217 C219 1.214 . S
O218 Cd214 2.352 . S
O218 C221 1.258 . S
C219 O216 1.320 . S
C219 O217 1.214 . S
O220 Cd212 2.277 . S
O220 C215 1.209 . S
C221 O218 1.258 . S
C221 O223 1.282 . S
O222 Cd214 2.277 . S
O222 C215 1.226 . S
O223 Cd214 2.356 . S
O223 C221 1.282 . S
C224 O225 1.306 . S
C224 O227 1.160 . S
O225 C224 1.306 . S
O225 Cd226 2.228 . S
Cd226 O225 2.228 . S
Cd226 O230 2.273 . S
Cd226 O234 2.277 . S
O227 C224 1.160 . S
O227 Cd228 2.203 . S
Cd228 O227 2.203 . S
Cd228 O230 2.411 . S
Cd228 O231 2.333 . S
Cd228 O232 2.352 . S
Cd228 O236 2.277 . S
Cd228 O237 2.356 . S
C229 O234 1.209 . S
C229 O236 1.226 . S
O230 Cd226 2.273 . S
O230 Cd228 2.411 . S
O230 C233 1.320 . S
O231 Cd228 2.333 . S
O231 C233 1.214 . S
O232 Cd228 2.352 . S
O232 C235 1.258 . S
C233 O230 1.320 . S
C233 O231 1.214 . S
O234 Cd226 2.277 . S
O234 C229 1.209 . S
C235 O232 1.258 . S
C235 O237 1.282 . S
O236 Cd228 2.277 . S
O236 C229 1.226 . S
O237 Cd228 2.356 . S
O237 C235 1.282 . S
C238 O239 1.306 . S
C238 O241 1.160 . S
O239 C238 1.306 . S
O239 Cd240 2.228 . S
Cd240 O239 2.228 . S
Cd240 O244 2.273 . S
Cd240 O248 2.277 . S
O241 C238 1.160 . S
O241 Cd242 2.203 . S
Cd242 O241 2.203 . S
Cd242 O244 2.411 . S
Cd242 O245 2.333 . S
Cd242 O246 2.352 . S
Cd242 O250 2.277 . S
Cd242 O251 2.356 . S
C243 O248 1.209 . S
C243 O250 1.226 . S
O244 Cd240 2.273 . S
O244 Cd242 2.411 . S
O244 C247 1.320 . S
O245 Cd242 2.333 . S
O245 C247 1.214 . S
O246 Cd242 2.352 . S
O246 C249 1.258 . S
C247 O244 1.320 . S
C247 O245 1.214 . S
O248 Cd240 2.277 . S
O248 C243 1.209 . S
C249 O246 1.258 . S
C249 O251 1.282 . S
O250 Cd242 2.277 . S
O250 C243 1.226 . S
O251 Cd242 2.356 . S
O251 C249 1.282 . S
C252 O253 1.306 . S
C252 O255 1.160 . S
O253 C252 1.306 . S
O253 Cd254 2.228 . S
Cd254 O253 2.228 . S
Cd254 O258 2.273 . S
Cd254 O262 2.277 . S
O255 C252 1.160 . S
O255 Cd256 2.203 . S
Cd256 O255 2.203 . S
Cd256 O258 2.411 . S
Cd256 O259 2.333 . S
Cd256 O260 2.352 . S
Cd256 O264 2.277 . S
Cd256 O265 2.356 . S
C257 O262 1.209 . S
C257 O264 1.226 . S
O258 Cd254 2.273 . S
O258 Cd256 2.411 . S
O258 C261 1.320 . S
O259 Cd256 2.333 . S
O259 C261 1.214 . S
O260 Cd256 2.352 . S
O260 C263 1.258 . S
C261 O258 1.320 . S
C261 O259 1.214 . S
O262 Cd254 2.277 . S
O262 C257 1.209 . S
C263 O260 1.258 . S
C263 O265 1.282 . S
O264 Cd256 2.277 . S
O264 C257 1.226 . S
O265 Cd256 2.356 . S
O265 C263 1.282 . S
C266 O267 1.306 . S
C266 O269 1.160 . S
O267 C266 1.306 . S
O267 Cd268 2.228 . S
Cd268 O267 2.228 . S
Cd268 O272 2.273 . S
Cd268 O276 2.277 . S
O269 C266 1.160 . S
O269 Cd270 2.203 . S
Cd270 O269 2.203 . S
Cd270 O272 2.411 . S
Cd270 O273 2.333 . S
Cd270 O274 2.352 . S
Cd270 O278 2.277 . S
Cd270 O279 2.356 . S
C271 O276 1.209 . S
C271 O278 1.226 . S
O272 Cd268 2.273 . S
O272 Cd270 2.411 . S
O272 C275 1.320 . S
O273 Cd270 2.333 . S
O273 C275 1.214 . S
O274 Cd270 2.352 . S
O274 C277 1.258 . S
C275 O272 1.320 . S
C275 O273 1.214 . S
O276 Cd268 2.277 . S
O276 C271 1.209 . S
C277 O274 1.258 . S
C277 O279 1.282 . S
O278 Cd270 2.277 . S
O278 C271 1.226 . S
O279 Cd270 2.356 . S
O279 C277 1.282 . S
C280 O281 1.306 . S
C280 O283 1.160 . S
O281 C280 1.306 . S
O281 Cd282 2.228 . S
Cd282 O281 2.228 . S
Cd282 O286 2.273 . S
Cd282 O290 2.277 . S
O283 C280 1.160 . S
O283 Cd284 2.203 . S
Cd284 O283 2.203 . S
Cd284 O286 2.411 . S
Cd284 O287 2.333 . S
Cd284 O288 2.352 . S
Cd284 O292 2.277 . S
Cd284 O293 2.356 . S
C285 O290 1.209 . S
C285 O292 1.226 . S
O286 Cd282 2.273 . S
O286 Cd284 2.411 . S
O286 C289 1.320 . S
O287 Cd284 2.333 . S
O287 C289 1.214 . S
O288 Cd284 2.352 . S
O288 C291 1.258 . S
C289 O286 1.320 . S
C289 O287 1.214 . S
O290 Cd282 2.277 . S
O290 C285 1.209 . S
C291 O288 1.258 . S
C291 O293 1.282 . S
O292 Cd284 2.277 . S
O292 C285 1.226 . S
O293 Cd284 2.356 . S
O293 C291 1.282 . S
C294 O295 1.306 . S
C294 O297 1.160 . S
O295 C294 1.306 . S
O295 Cd296 2.228 . S
Cd296 O295 2.228 . S
Cd296 O300 2.273 . S
Cd296 O304 2.277 . S
O297 C294 1.160 . S
O297 Cd298 2.203 . S
Cd298 O297 2.203 . S
Cd298 O300 2.411 . S
Cd298 O301 2.333 . S
Cd298 O302 2.352 . S
Cd298 O306 2.277 . S
Cd298 O307 2.356 . S
C299 O304 1.209 . S
C299 O306 1.226 . S
O300 Cd296 2.273 . S
O300 Cd298 2.411 . S
O300 C303 1.320 . S
O301 Cd298 2.333 . S
O301 C303 1.214 . S
O302 Cd298 2.352 . S
O302 C305 1.258 . S
C303 O300 1.320 . S
C303 O301 1.214 . S
O304 Cd296 2.277 . S
O304 C299 1.209 . S
C305 O302 1.258 . S
C305 O307 1.282 . S
O306 Cd298 2.277 . S
O306 C299 1.226 . S
O307 Cd298 2.356 . S
O307 C305 1.282 . S
C308 O309 1.306 . S
C308 O311 1.160 . S
O309 C308 1.306 . S
O309 Cd310 2.228 . S
Cd310 O309 2.228 . S
Cd310 O314 2.273 . S
Cd310 O318 2.277 . S
O311 C308 1.160 . S
O311 Cd312 2.203 . S
Cd312 O311 2.203 . S
Cd312 O314 2.411 . S
Cd312 O315 2.333 . S
Cd312 O316 2.352 . S
Cd312 O320 2.277 . S
Cd312 O321 2.356 . S
C313 O318 1.209 . S
C313 O320 1.226 . S
O314 Cd310 2.273 . S
O314 Cd312 2.411 . S
O314 C317 1.320 . S
O315 Cd312 2.333 . S
O315 C317 1.214 . S
O316 Cd312 2.352 . S
O316 C319 1.258 . S
C317 O314 1.320 . S
C317 O315 1.214 . S
O318 Cd310 2.277 . S
O318 C313 1.209 . S
C319 O316 1.258 . S
C319 O321 1.282 . S
O320 Cd312 2.277 . S
O320 C313 1.226 . S
O321 Cd312 2.356 . S
O321 C319 1.282 . S
C322 O323 1.306 . S
C322 O325 1.160 . S
O323 C322 1.306 . S
O323 Cd324 2.228 . S
Cd324 O323 2.228 . S
Cd324 O328 2.273 . S
Cd324 O332 2.277 . S
O325 C322 1.160 . S
O325 Cd326 2.203 . S
Cd326 O325 2.203 . S
Cd326 O328 2.411 . S
Cd326 O329 2.333 . S
Cd326 O330 2.352 . S
Cd326 O334 2.277 . S
Cd326 O335 2.356 . S
C327 O332 1.209 . S
C327 O334 1.226 . S
O328 Cd324 2.273 . S
O328 Cd326 2.411 . S
O328 C331 1.320 . S
O329 Cd326 2.333 . S
O329 C331 1.214 . S
O330 Cd326 2.352 . S
O330 C333 1.258 . S
C331 O328 1.320 . S
C331 O329 1.214 . S
O332 Cd324 2.277 . S
O332 C327 1.209 . S
C333 O330 1.258 . S
C333 O335 1.282 . S
O334 Cd326 2.277 . S
O334 C327 1.226 . S
O335 Cd326 2.356 . S
O335 C333 1.282 . S
C336 O337 1.306 . S
C336 O339 1.160 . S
O337 C336 1.306 . S
O337 Cd338 2.228 . S
Cd338 O337 2.228 . S
Cd338 O342 2.273 . S
Cd338 O346 2.277 . S
O339 C336 1.160 . S
O339 Cd340 2.203 . S
Cd340 O339 2.203 . S
Cd340 O342 2.411 . S
Cd340 O343 2.333 . S
Cd340 O344 2.352 . S
Cd340 O348 2.277 . S
Cd340 O349 2.356 . S
C341 O346 1.209 . S
C341 O348 1.226 . S
O342 Cd338 2.273 . S
O342 Cd340 2.411 . S
O342 C345 1.320 . S
O343 Cd340 2.333 . S
O343 C345 1.214 . S
O344 Cd340 2.352 . S
O344 C347 1.258 . S
C345 O342 1.320 . S
C345 O343 1.214 . S
O346 Cd338 2.277 . S
O346 C341 1.209 . S
C347 O344 1.258 . S
C347 O349 1.282 . S
O348 Cd340 2.277 . S
O348 C341 1.226 . S
O349 Cd340 2.356 . S
O349 C347 1.282 . S
C350 O351 1.306 . S
C350 O353 1.160 . S
O351 C350 1.306 . S
O351 Cd352 2.228 . S
Cd352 O351 2.228 . S
Cd352 O356 2.273 . S
Cd352 O360 2.277 . S
O353 C350 1.160 . S
O353 Cd354 2.203 . S
Cd354 O353 2.203 . S
Cd354 O356 2.411 . S
Cd354 O357 2.333 . S
Cd354 O358 2.352 . S
Cd354 O362 2.277 . S
Cd354 O363 2.356 . S
C355 O360 1.209 . S
C355 O362 1.226 . S
O356 Cd352 2.273 . S
O356 Cd354 2.411 . S
O356 C359 1.320 . S
O357 Cd354 2.333 . S
O357 C359 1.214 . S
O358 Cd354 2.352 . S
O358 C361 1.258 . S
C359 O356 1.320 . S
C359 O357 1.214 . S
O360 Cd352 2.277 . S
O360 C355 1.209 . S
C361 O358 1.258 . S
C361 O363 1.282 . S
O362 Cd354 2.277 . S
O362 C355 1.226 . S
O363 Cd354 2.356 . S
O363 C361 1.282 . S
C364 O365 1.306 . S
C364 O367 1.160 . S
O365 C364 1.306 . S
O365 Cd366 2.228 . S
Cd366 O365 2.228 . S
Cd366 O370 2.273 . S
Cd366 O374 2.277 . S
O367 C364 1.160 . S
O367 Cd368 2.203 . S
Cd368 O367 2.203 . S
Cd368 O370 2.411 . S
Cd368 O371 2.333 . S
Cd368 O372 2.352 . S
Cd368 O376 2.277 . S
Cd368 O377 2.356 . S
C369 O374 1.209 . S
C369 O376 1.226 . S
O370 Cd366 2.273 . S
O370 Cd368 2.411 . S
O370 C373 1.320 . S
O371 Cd368 2.333 . S
O371 C373 1.214 . S
O372 Cd368 2.352 . S
O372 C375 1.258 . S
C373 O370 1.320 . S
C373 O371 1.214 . S
O374 Cd366 2.277 . S
O374 C369 1.209 . S
C375 O372 1.258 . S
C375 O377 1.282 . S
O376 Cd368 2.277 . S
O376 C369 1.226 . S
O377 Cd368 2.356 . S
O377 C375 1.282 . S
C378 O379 1.306 . S
C378 O381 1.160 . S
O379 C378 1.306 . S
O379 Cd380 2.228 . S
Cd380 O379 2.228 . S
Cd380 O384 2.273 . S
Cd380 O388 2.277 . S
O381 C378 1.160 . S
O381 Cd382 2.203 . S
Cd382 O381 2.203 . S
Cd382 O384 2.411 . S
Cd382 O385 2.333 . S
Cd382 O386 2.352 . S
Cd382 O390 2.277 . S
Cd382 O391 2.356 . S
C383 O388 1.209 . S
C383 O390 1.226 . S
O384 Cd380 2.273 . S
O384 Cd382 2.411 . S
O384 C387 1.320 . S
O385 Cd382 2.333 . S
O385 C387 1.214 . S
O386 Cd382 2.352 . S
O386 C389 1.258 . S
C387 O384 1.320 . S
C387 O385 1.214 . S
O388 Cd380 2.277 . S
O388 C383 1.209 . S
C389 O386 1.258 . S
C389 O391 1.282 . S
O390 Cd382 2.277 . S
O390 C383 1.226 . S
O391 Cd382 2.356 . S
O391 C389 1.282 . S
C392 O393 1.306 . S
C392 O395 1.160 . S
O393 C392 1.306 . S
O393 Cd394 2.228 . S
Cd394 O393 2.228 . S
Cd394 O398 2.273 . S
Cd394 O402 2.277 . S
O395 C392 1.160 . S
O395 Cd396 2.203 . S
Cd396 O395 2.203 . S
Cd396 O398 2.411 . S
Cd396 O399 2.333 . S
Cd396 O400 2.352 . S
Cd396 O404 2.277 . S
Cd396 O405 2.356 . S
C397 O402 1.209 . S
C397 O404 1.226 . S
O398 Cd394 2.273 . S
O398 Cd396 2.411 . S
O398 C401 1.320 . S
O399 Cd396 2.333 . S
O399 C401 1.214 . S
O400 Cd396 2.352 . S
O400 C403 1.258 . S
C401 O398 1.320 . S
C401 O399 1.214 . S
O402 Cd394 2.277 . S
O402 C397 1.209 . S
C403 O400 1.258 . S
C403 O405 1.282 . S
O404 Cd396 2.277 . S
O404 C397 1.226 . S
O405 Cd396 2.356 . S
O405 C403 1.282 . S
C406 O407 1.306 . S
C406 O409 1.160 . S
O407 C406 1.306 . S
O407 Cd408 2.228 . S
Cd408 O407 2.228 . S
Cd408 O412 2.273 . S
Cd408 O416 2.277 . S
O409 C406 1.160 . S
O409 Cd410 2.203 . S
Cd410 O409 2.203 . S
Cd410 O412 2.411 . S
Cd410 O413 2.333 . S
Cd410 O414 2.352 . S
Cd410 O418 2.277 . S
Cd410 O419 2.356 . S
C411 O416 1.209 . S
C411 O418 1.226 . S
O412 Cd408 2.273 . S
O412 Cd410 2.411 . S
O412 C415 1.320 . S
O413 Cd410 2.333 . S
O413 C415 1.214 . S
O414 Cd410 2.352 . S
O414 C417 1.258 . S
C415 O412 1.320 . S
C415 O413 1.214 . S
O416 Cd408 2.277 . S
O416 C411 1.209 . S
C417 O414 1.258 . S
C417 O419 1.282 . S
O418 Cd410 2.277 . S
O418 C411 1.226 . S
O419 Cd410 2.356 . S
O419 C417 1.282 . S
C420 O421 1.306 . S
C420 O423 1.160 . S
O421 C420 1.306 . S
O421 Cd422 2.228 . S
Cd422 O421 2.228 . S
Cd422 O426 2.273 . S
Cd422 O430 2.277 . S
O423 C420 1.160 . S
O423 Cd424 2.203 . S
Cd424 O423 2.203 . S
Cd424 O426 2.411 . S
Cd424 O427 2.333 . S
Cd424 O428 2.352 . S
Cd424 O432 2.277 . S
Cd424 O433 2.356 . S
C425 O430 1.209 . S
C425 O432 1.226 . S
O426 Cd422 2.273 . S
O426 Cd424 2.411 . S
O426 C429 1.320 . S
O427 Cd424 2.333 . S
O427 C429 1.214 . S
O428 Cd424 2.352 . S
O428 C431 1.258 . S
C429 O426 1.320 . S
C429 O427 1.214 . S
O430 Cd422 2.277 . S
O430 C425 1.209 . S
C431 O428 1.258 . S
C431 O433 1.282 . S
O432 Cd424 2.277 . S
O432 C425 1.226 . S
O433 Cd424 2.356 . S
O433 C431 1.282 . S
C434 O435 1.306 . S
C434 O437 1.160 . S
O435 C434 1.306 . S
O435 Cd436 2.228 . S
Cd436 O435 2.228 . S
Cd436 O440 2.273 . S
Cd436 O444 2.277 . S
O437 C434 1.160 . S
O437 Cd438 2.203 . S
Cd438 O437 2.203 . S
Cd438 O440 2.411 . S
Cd438 O441 2.333 . S
Cd438 O442 2.352 . S
Cd438 O446 2.277 . S
Cd438 O447 2.356 . S
C439 O444 1.209 . S
C439 O446 1.226 . S
O440 Cd436 2.273 . S
O440 Cd438 2.411 . S
O440 C443 1.320 . S
O441 Cd438 2.333 . S
O441 C443 1.214 . S
O442 Cd438 2.352 . S
O442 C445 1.258 . S
C443 O440 1.320 . S
C443 O441 1.214 . S
O444 Cd436 2.277 . S
O444 C439 1.209 . S
C445 O442 1.258 . S
C445 O447 1.282 . S
O446 Cd438 2.277 . S
O446 C439 1.226 . S
O447 Cd438 2.356 . S
O447 C445 1.282 . S
C448 C449 1.369 . S
C448 C450 1.419 . S
C448 H452 0.930 . S
C449 C448 1.369 . S
C449 C458 1.429 . S
C450 C448 1.419 . S
C450 C451 1.363 . S
C450 H453 0.929 . S
C451 C450 1.363 . S
C451 C457 1.428 . S
H452 C448 0.930 . S
H453 C450 0.929 . S
S454 N455 1.613 . S
S454 N456 1.610 . S
N455 S454 1.613 . S
N455 C458 1.350 . S
N456 S454 1.610 . S
N456 C457 1.351 . S
C457 C451 1.428 . S
C457 N456 1.351 . S
C457 C458 1.434 . S
C458 C449 1.429 . S
C458 N455 1.350 . S
C458 C457 1.434 . S
C459 C460 1.369 . S
C459 C461 1.419 1_565 S
C459 H463 0.930 . S
C460 C459 1.369 . S
C460 C469 1.429 . S
C461 C459 1.419 1_545 S
C461 C462 1.363 . S
C461 H464 0.929 . S
C462 C461 1.363 . S
C462 C468 1.428 . S
H463 C459 0.930 . S
H464 C461 0.929 . S
S465 N466 1.613 . S
S465 N467 1.610 1_565 S
N466 S465 1.613 . S
N466 C469 1.350 . S
N467 S465 1.610 1_545 S
N467 C468 1.351 . S
C468 C462 1.428 . S
C468 N467 1.351 . S
C468 C469 1.434 1_545 S
C469 C460 1.429 . S
C469 N466 1.350 . S
C469 C468 1.434 1_565 S
C470 C471 1.369 1_556 S
C470 C472 1.419 . S
C470 H474 0.930 . S
C471 C470 1.369 1_554 S
C471 C480 1.429 . S
C472 C470 1.419 . S
C472 C473 1.363 . S
C472 H475 0.929 . S
C473 C472 1.363 . S
C473 C479 1.428 1_556 S
H474 C470 0.930 . S
H475 C472 0.929 . S
S476 N477 1.613 . S
S476 N478 1.610 . S
N477 S476 1.613 . S
N477 C480 1.350 . S
N478 S476 1.610 . S
N478 C479 1.351 . S
C479 C473 1.428 1_554 S
C479 N478 1.351 . S
C479 C480 1.434 . S
C480 C471 1.429 . S
C480 N477 1.350 . S
C480 C479 1.434 . S
C481 C482 1.369 . S
C481 C483 1.419 1_545 S
C481 H485 0.930 . S
C482 C481 1.369 . S
C482 C491 1.429 . S
C483 C481 1.419 1_565 S
C483 C484 1.363 . S
C483 H486 0.929 . S
C484 C483 1.363 . S
C484 C490 1.428 . S
H485 C481 0.930 . S
H486 C483 0.929 . S
S487 N488 1.613 . S
S487 N489 1.610 1_545 S
N488 S487 1.613 . S
N488 C491 1.350 . S
N489 S487 1.610 1_565 S
N489 C490 1.351 . S
C490 C484 1.428 . S
C490 N489 1.351 . S
C490 C491 1.434 1_565 S
C491 C482 1.429 . S
C491 N488 1.350 . S
C491 C490 1.434 1_545 S
C492 C493 1.369 . S
C492 C494 1.419 . S
C492 H496 0.930 . S
C493 C492 1.369 . S
C493 C502 1.429 . S
C494 C492 1.419 . S
C494 C495 1.363 . S
C494 H497 0.929 . S
C495 C494 1.363 . S
C495 C501 1.428 . S
H496 C492 0.930 . S
H497 C494 0.929 . S
S498 N499 1.613 . S
S498 N500 1.610 . S
N499 S498 1.613 . S
N499 C502 1.350 . S
N500 S498 1.610 . S
N500 C501 1.351 . S
C501 C495 1.428 . S
C501 N500 1.351 . S
C501 C502 1.434 . S
C502 C493 1.429 . S
C502 N499 1.350 . S
C502 C501 1.434 . S
C503 C504 1.369 . S
C503 C505 1.419 1_545 S
C503 H507 0.930 . S
C504 C503 1.369 . S
C504 C513 1.429 . S
C505 C503 1.419 1_565 S
C505 C506 1.363 . S
C505 H508 0.929 . S
C506 C505 1.363 . S
C506 C512 1.428 . S
H507 C503 0.930 . S
H508 C505 0.929 . S
S509 N510 1.613 . S
S509 N511 1.610 1_545 S
N510 S509 1.613 . S
N510 C513 1.350 . S
N511 S509 1.610 1_565 S
N511 C512 1.351 . S
C512 C506 1.428 . S
C512 N511 1.351 . S
C512 C513 1.434 1_565 S
C513 C504 1.429 . S
C513 N510 1.350 . S
C513 C512 1.434 1_545 S
C514 C515 1.369 . S
C514 C516 1.419 . S
C514 H518 0.930 . S
C515 C514 1.369 . S
C515 C524 1.429 1_556 S
C516 C514 1.419 . S
C516 C517 1.363 1_556 S
C516 H519 0.929 . S
C517 C516 1.363 1_554 S
C517 C523 1.428 . S
H518 C514 0.930 . S
H519 C516 0.929 . S
S520 N521 1.613 . S
S520 N522 1.610 . S
N521 S520 1.613 . S
N521 C524 1.350 . S
N522 S520 1.610 . S
N522 C523 1.351 . S
C523 C517 1.428 . S
C523 N522 1.351 . S
C523 C524 1.434 . S
C524 C515 1.429 1_554 S
C524 N521 1.350 . S
C524 C523 1.434 . S
C525 C526 1.369 . S
C525 C527 1.419 1_565 S
C525 H529 0.930 . S
C526 C525 1.369 . S
C526 C535 1.429 . S
C527 C525 1.419 1_545 S
C527 C528 1.363 . S
C527 H530 0.929 . S
C528 C527 1.363 . S
C528 C534 1.428 . S
H529 C525 0.930 . S
H530 C527 0.929 . S
S531 N532 1.613 . S
S531 N533 1.610 1_565 S
N532 S531 1.613 . S
N532 C535 1.350 . S
N533 S531 1.610 1_545 S
N533 C534 1.351 . S
C534 C528 1.428 . S
C534 N533 1.351 . S
C534 C535 1.434 1_545 S
C535 C526 1.429 . S
C535 N532 1.350 . S
C535 C534 1.434 1_565 S
C536 C537 1.369 . S
C536 C538 1.419 . S
C536 H540 0.930 . S
C537 C536 1.369 . S
C537 C546 1.429 1_556 S
C538 C536 1.419 . S
C538 C539 1.363 1_556 S
C538 H541 0.929 . S
C539 C538 1.363 1_554 S
C539 C545 1.428 . S
H540 C536 0.930 . S
H541 C538 0.929 . S
S542 N543 1.613 . S
S542 N544 1.610 . S
N543 S542 1.613 . S
N543 C546 1.350 . S
N544 S542 1.610 . S
N544 C545 1.351 . S
C545 C539 1.428 . S
C545 N544 1.351 . S
C545 C546 1.434 . S
C546 C537 1.429 1_554 S
C546 N543 1.350 . S
C546 C545 1.434 . S
C547 C548 1.369 . S
C547 C549 1.419 . S
C547 H551 0.930 . S
C548 C547 1.369 . S
C548 C557 1.429 . S
C549 C547 1.419 . S
C549 C550 1.363 . S
C549 H552 0.929 . S
C550 C549 1.363 . S
C550 C556 1.428 . S
H551 C547 0.930 . S
H552 C549 0.929 . S
S553 N554 1.613 . S
S553 N555 1.610 . S
N554 S553 1.613 . S
N554 C557 1.350 . S
N555 S553 1.610 . S
N555 C556 1.351 . S
C556 C550 1.428 . S
C556 N555 1.351 . S
C556 C557 1.434 . S
C557 C548 1.429 . S
C557 N554 1.350 . S
C557 C556 1.434 . S
C558 C559 1.369 . S
C558 C560 1.419 . S
C558 H562 0.930 . S
C559 C558 1.369 . S
C559 C568 1.429 . S
C560 C558 1.419 . S
C560 C561 1.363 . S
C560 H563 0.929 . S
C561 C560 1.363 . S
C561 C567 1.428 . S
H562 C558 0.930 . S
H563 C560 0.929 . S
S564 N565 1.613 . S
S564 N566 1.610 . S
N565 S564 1.613 . S
N565 C568 1.350 . S
N566 S564 1.610 . S
N566 C567 1.351 . S
C567 C561 1.428 . S
C567 N566 1.351 . S
C567 C568 1.434 . S
C568 C559 1.429 . S
C568 N565 1.350 . S
C568 C567 1.434 . S
C569 C570 1.369 . S
C569 C571 1.419 . S
C569 H573 0.930 . S
C570 C569 1.369 . S
C570 C579 1.429 . S
C571 C569 1.419 . S
C571 C572 1.363 . S
C571 H574 0.929 . S
C572 C571 1.363 . S
C572 C578 1.428 . S
H573 C569 0.930 . S
H574 C571 0.929 . S
S575 N576 1.613 . S
S575 N577 1.610 . S
N576 S575 1.613 . S
N576 C579 1.350 . S
N577 S575 1.610 . S
N577 C578 1.351 . S
C578 C572 1.428 . S
C578 N577 1.351 . S
C578 C579 1.434 . S
C579 C570 1.429 . S
C579 N576 1.350 . S
C579 C578 1.434 . S
C580 C581 1.369 1_554 S
C580 C582 1.419 . S
C580 H584 0.930 . S
C581 C580 1.369 1_556 S
C581 C590 1.429 . S
C582 C580 1.419 . S
C582 C583 1.363 . S
C582 H585 0.929 . S
C583 C582 1.363 . S
C583 C589 1.428 1_554 S
H584 C580 0.930 . S
H585 C582 0.929 . S
S586 N587 1.613 . S
S586 N588 1.610 . S
N587 S586 1.613 . S
N587 C590 1.350 . S
N588 S586 1.610 . S
N588 C589 1.351 . S
C589 C583 1.428 1_556 S
C589 N588 1.351 . S
C589 C590 1.434 . S
C590 C581 1.429 . S
C590 N587 1.350 . S
C590 C589 1.434 . S
C591 C592 1.369 . S
C591 C593 1.419 . S
C591 H595 0.930 . S
C592 C591 1.369 . S
C592 C601 1.429 . S
C593 C591 1.419 . S
C593 C594 1.363 . S
C593 H596 0.929 . S
C594 C593 1.363 . S
C594 C600 1.428 . S
H595 C591 0.930 . S
H596 C593 0.929 . S
S597 N598 1.613 . S
S597 N599 1.610 . S
N598 S597 1.613 . S
N598 C601 1.350 . S
N599 S597 1.610 . S
N599 C600 1.351 . S
C600 C594 1.428 . S
C600 N599 1.351 . S
C600 C601 1.434 . S
C601 C592 1.429 . S
C601 N598 1.350 . S
C601 C600 1.434 . S
C602 C603 1.369 . S
C602 C604 1.419 . S
C602 H606 0.930 . S
C603 C602 1.369 . S
C603 C612 1.429 . S
C604 C602 1.419 . S
C604 C605 1.363 . S
C604 H607 0.929 . S
C605 C604 1.363 . S
C605 C611 1.428 . S
H606 C602 0.930 . S
H607 C604 0.929 . S
S608 N609 1.613 . S
S608 N610 1.610 . S
N609 S608 1.613 . S
N609 C612 1.350 . S
N610 S608 1.610 . S
N610 C611 1.351 . S
C611 C605 1.428 . S
C611 N610 1.351 . S
C611 C612 1.434 . S
C612 C603 1.429 . S
C612 N609 1.350 . S
C612 C611 1.434 . S
C613 C614 1.369 . S
C613 C615 1.419 . S
C613 H617 0.930 . S
C614 C613 1.369 . S
C614 C623 1.429 . S
C615 C613 1.419 . S
C615 C616 1.363 . S
C615 H618 0.929 . S
C616 C615 1.363 . S
C616 C622 1.428 . S
H617 C613 0.930 . S
H618 C615 0.929 . S
S619 N620 1.613 . S
S619 N621 1.610 . S
N620 S619 1.613 . S
N620 C623 1.350 . S
N621 S619 1.610 . S
N621 C622 1.351 . S
C622 C616 1.428 . S
C622 N621 1.351 . S
C622 C623 1.434 . S
C623 C614 1.429 . S
C623 N620 1.350 . S
C623 C622 1.434 . S
C624 C625 1.369 1_554 S
C624 C626 1.419 . S
C624 H628 0.930 . S
C625 C624 1.369 1_556 S
C625 C634 1.429 . S
C626 C624 1.419 . S
C626 C627 1.363 . S
C626 H629 0.929 . S
C627 C626 1.363 . S
C627 C633 1.428 1_554 S
H628 C624 0.930 . S
H629 C626 0.929 . S
S630 N631 1.613 . S
S630 N632 1.610 . S
N631 S630 1.613 . S
N631 C634 1.350 . S
N632 S630 1.610 . S
N632 C633 1.351 . S
C633 C627 1.428 1_556 S
C633 N632 1.351 . S
C633 C634 1.434 . S
C634 C625 1.429 . S
C634 N631 1.350 . S
C634 C633 1.434 . S
C635 C636 1.369 . S
C635 C637 1.419 . S
C635 H639 0.930 . S
C636 C635 1.369 . S
C636 C645 1.429 . S
C637 C635 1.419 . S
C637 C638 1.363 . S
C637 H640 0.929 . S
C638 C637 1.363 . S
C638 C644 1.428 . S
H639 C635 0.930 . S
H640 C637 0.929 . S
S641 N642 1.613 . S
S641 N643 1.610 . S
N642 S641 1.613 . S
N642 C645 1.350 . S
N643 S641 1.610 . S
N643 C644 1.351 . S
C644 C638 1.428 . S
C644 N643 1.351 . S
C644 C645 1.434 . S
C645 C636 1.429 . S
C645 N642 1.350 . S
C645 C644 1.434 . S
C646 C647 1.369 . S
C646 C648 1.419 . S
C646 H650 0.930 . S
C647 C646 1.369 . S
C647 C656 1.429 . S
C648 C646 1.419 . S
C648 C649 1.363 . S
C648 H651 0.929 . S
C649 C648 1.363 . S
C649 C655 1.428 . S
H650 C646 0.930 . S
H651 C648 0.929 . S
S652 N653 1.613 . S
S652 N654 1.610 . S
N653 S652 1.613 . S
N653 C656 1.350 . S
N654 S652 1.610 . S
N654 C655 1.351 . S
C655 C649 1.428 . S
C655 N654 1.351 . S
C655 C656 1.434 . S
C656 C647 1.429 . S
C656 N653 1.350 . S
C656 C655 1.434 . S
C657 C658 1.369 1_554 S
C657 C659 1.419 . S
C657 H661 0.930 . S
C658 C657 1.369 1_556 S
C658 C667 1.429 . S
C659 C657 1.419 . S
C659 C660 1.363 . S
C659 H662 0.929 . S
C660 C659 1.363 . S
C660 C666 1.428 1_554 S
H661 C657 0.930 . S
H662 C659 0.929 . S
S663 N664 1.613 . S
S663 N665 1.610 . S
N664 S663 1.613 . S
N664 C667 1.350 . S
N665 S663 1.610 . S
N665 C666 1.351 . S
C666 C660 1.428 1_556 S
C666 N665 1.351 . S
C666 C667 1.434 . S
C667 C658 1.429 . S
C667 N664 1.350 . S
C667 C666 1.434 . S
C668 C669 1.369 1_556 S
C668 C670 1.419 . S
C668 H672 0.930 . S
C669 C668 1.369 1_554 S
C669 C678 1.429 . S
C670 C668 1.419 . S
C670 C671 1.363 . S
C670 H673 0.929 . S
C671 C670 1.363 . S
C671 C677 1.428 1_556 S
H672 C668 0.930 . S
H673 C670 0.929 . S
S674 N675 1.613 . S
S674 N676 1.610 . S
N675 S674 1.613 . S
N675 C678 1.350 . S
N676 S674 1.610 . S
N676 C677 1.351 . S
C677 C671 1.428 1_554 S
C677 N676 1.351 . S
C677 C678 1.434 . S
C678 C669 1.429 . S
C678 N675 1.350 . S
C678 C677 1.434 . S
C679 C680 1.369 . S
C679 C681 1.419 . S
C679 H683 0.930 . S
C680 C679 1.369 . S
C680 C689 1.429 . S
C681 C679 1.419 . S
C681 C682 1.363 . S
C681 H684 0.929 . S
C682 C681 1.363 . S
C682 C688 1.428 . S
H683 C679 0.930 . S
H684 C681 0.929 . S
S685 N686 1.613 . S
S685 N687 1.610 . S
N686 S685 1.613 . S
N686 C689 1.350 . S
N687 S685 1.610 . S
N687 C688 1.351 . S
C688 C682 1.428 . S
C688 N687 1.351 . S
C688 C689 1.434 . S
C689 C680 1.429 . S
C689 N686 1.350 . S
C689 C688 1.434 . S
C690 C691 1.369 . S
C690 C692 1.419 . S
C690 H694 0.930 . S
C691 C690 1.369 . S
C691 C700 1.429 . S
C692 C690 1.419 . S
C692 C693 1.363 . S
C692 H695 0.929 . S
C693 C692 1.363 . S
C693 C699 1.428 . S
H694 C690 0.930 . S
H695 C692 0.929 . S
S696 N697 1.613 . S
S696 N698 1.610 . S
N697 S696 1.613 . S
N697 C700 1.350 . S
N698 S696 1.610 . S
N698 C699 1.351 . S
C699 C693 1.428 . S
C699 N698 1.351 . S
C699 C700 1.434 . S
C700 C691 1.429 . S
C700 N697 1.350 . S
C700 C699 1.434 . S
C701 C702 1.369 . S
C701 C703 1.419 1_556 S
C701 H705 0.930 . S
C702 C701 1.369 . S
C702 C711 1.429 . S
C703 C701 1.419 1_554 S
C703 C704 1.363 . S
C703 H706 0.929 . S
C704 C703 1.363 . S
C704 C710 1.428 . S
H705 C701 0.930 . S
H706 C703 0.929 . S
S707 N708 1.613 1_554 S
S707 N709 1.610 . S
N708 S707 1.613 1_556 S
N708 C711 1.350 . S
N709 S707 1.610 . S
N709 C710 1.351 . S
C710 C704 1.428 . S
C710 N709 1.351 . S
C710 C711 1.434 1_554 S
C711 C702 1.429 . S
C711 N708 1.350 . S
C711 C710 1.434 1_556 S
C712 C713 1.369 . S
C712 C714 1.419 . S
C712 H716 0.930 . S
C713 C712 1.369 . S
C713 C722 1.429 . S
C714 C712 1.419 . S
C714 C715 1.363 . S
C714 H717 0.929 . S
C715 C714 1.363 . S
C715 C721 1.428 . S
H716 C712 0.930 . S
H717 C714 0.929 . S
S718 N719 1.613 . S
S718 N720 1.610 . S
N719 S718 1.613 . S
N719 C722 1.350 . S
N720 S718 1.610 . S
N720 C721 1.351 . S
C721 C715 1.428 . S
C721 N720 1.351 . S
C721 C722 1.434 . S
C722 C713 1.429 . S
C722 N719 1.350 . S
C722 C721 1.434 . S
C723 C724 1.369 1_556 S
C723 C725 1.419 . S
C723 H727 0.930 . S
C724 C723 1.369 1_554 S
C724 C733 1.429 . S
C725 C723 1.419 . S
C725 C726 1.363 . S
C725 H728 0.929 . S
C726 C725 1.363 . S
C726 C732 1.428 1_556 S
H727 C723 0.930 . S
H728 C725 0.929 . S
S729 N730 1.613 . S
S729 N731 1.610 . S
N730 S729 1.613 . S
N730 C733 1.350 . S
N731 S729 1.610 . S
N731 C732 1.351 . S
C732 C726 1.428 1_554 S
C732 N731 1.351 . S
C732 C733 1.434 . S
C733 C724 1.429 . S
C733 N730 1.350 . S
C733 C732 1.434 . S
C734 C735 1.369 1_556 S
C734 C736 1.419 . S
C734 H738 0.930 . S
C735 C734 1.369 1_554 S
C735 C744 1.429 . S
C736 C734 1.419 . S
C736 C737 1.363 . S
C736 H739 0.929 . S
C737 C736 1.363 . S
C737 C743 1.428 1_556 S
H738 C734 0.930 . S
H739 C736 0.929 . S
S740 N741 1.613 . S
S740 N742 1.610 . S
N741 S740 1.613 . S
N741 C744 1.350 . S
N742 S740 1.610 . S
N742 C743 1.351 . S
C743 C737 1.428 1_554 S
C743 N742 1.351 . S
C743 C744 1.434 . S
C744 C735 1.429 . S
C744 N741 1.350 . S
C744 C743 1.434 . S
C745 C746 1.369 . S
C745 C747 1.419 . S
C745 H749 0.930 . S
C746 C745 1.369 . S
C746 C755 1.429 . S
C747 C745 1.419 . S
C747 C748 1.363 . S
C747 H750 0.929 . S
C748 C747 1.363 . S
C748 C754 1.428 . S
H749 C745 0.930 . S
H750 C747 0.929 . S
S751 N752 1.613 . S
S751 N753 1.610 . S
N752 S751 1.613 . S
N752 C755 1.350 . S
N753 S751 1.610 . S
N753 C754 1.351 . S
C754 C748 1.428 . S
C754 N753 1.351 . S
C754 C755 1.434 . S
C755 C746 1.429 . S
C755 N752 1.350 . S
C755 C754 1.434 . S
C756 C757 1.369 . S
C756 C758 1.419 . S
C756 H760 0.930 . S
C757 C756 1.369 . S
C757 C766 1.429 . S
C758 C756 1.419 . S
C758 C759 1.363 . S
C758 H761 0.929 . S
C759 C758 1.363 . S
C759 C765 1.428 . S
H760 C756 0.930 . S
H761 C758 0.929 . S
S762 N763 1.613 . S
S762 N764 1.610 . S
N763 S762 1.613 . S
N763 C766 1.350 . S
N764 S762 1.610 . S
N764 C765 1.351 . S
C765 C759 1.428 . S
C765 N764 1.351 . S
C765 C766 1.434 . S
C766 C757 1.429 . S
C766 N763 1.350 . S
C766 C765 1.434 . S
C767 C768 1.369 . S
C767 C769 1.419 . S
C767 H771 0.930 . S
C768 C767 1.369 . S
C768 C777 1.429 1_556 S
C769 C767 1.419 . S
C769 C770 1.363 1_556 S
C769 H772 0.929 . S
C770 C769 1.363 1_554 S
C770 C776 1.428 . S
H771 C767 0.930 . S
H772 C769 0.929 . S
S773 N774 1.613 . S
S773 N775 1.610 . S
N774 S773 1.613 . S
N774 C777 1.350 . S
N775 S773 1.610 . S
N775 C776 1.351 . S
C776 C770 1.428 . S
C776 N775 1.351 . S
C776 C777 1.434 . S
C777 C768 1.429 1_554 S
C777 N774 1.350 . S
C777 C776 1.434 . S
C778 C779 1.369 1_554 S
C778 C780 1.419 . S
C778 H782 0.930 . S
C779 C778 1.369 1_556 S
C779 C788 1.429 . S
C780 C778 1.419 . S
C780 C781 1.363 . S
C780 H783 0.929 . S
C781 C780 1.363 . S
C781 C787 1.428 1_554 S
H782 C778 0.930 . S
H783 C780 0.929 . S
S784 N785 1.613 . S
S784 N786 1.610 . S
N785 S784 1.613 . S
N785 C788 1.350 . S
N786 S784 1.610 . S
N786 C787 1.351 . S
C787 C781 1.428 1_556 S
C787 N786 1.351 . S
C787 C788 1.434 . S
C788 C779 1.429 . S
C788 N785 1.350 . S
C788 C787 1.434 . S
C789 C790 1.369 . S
C789 C791 1.419 . S
C789 H793 0.930 . S
C790 C789 1.369 . S
C790 C799 1.429 . S
C791 C789 1.419 . S
C791 C792 1.363 . S
C791 H794 0.929 . S
C792 C791 1.363 . S
C792 C798 1.428 . S
H793 C789 0.930 . S
H794 C791 0.929 . S
S795 N796 1.613 . S
S795 N797 1.610 . S
N796 S795 1.613 . S
N796 C799 1.350 . S
N797 S795 1.610 . S
N797 C798 1.351 . S
C798 C792 1.428 . S
C798 N797 1.351 . S
C798 C799 1.434 . S
C799 C790 1.429 . S
C799 N796 1.350 . S
C799 C798 1.434 . S
C800 C801 1.369 1_556 S
C800 C802 1.419 . S
C800 H804 0.930 . S
C801 C800 1.369 1_554 S
C801 C810 1.429 . S
C802 C800 1.419 . S
C802 C803 1.363 . S
C802 H805 0.929 . S
C803 C802 1.363 . S
C803 C809 1.428 . S
H804 C800 0.930 . S
H805 C802 0.929 . S
S806 N807 1.613 . S
S806 N808 1.610 1_554 S
N807 S806 1.613 . S
N807 C810 1.350 . S
N808 S806 1.610 1_556 S
N808 C809 1.351 . S
C809 C803 1.428 . S
C809 N808 1.351 . S
C809 C810 1.434 1_556 S
C810 C801 1.429 . S
C810 N807 1.350 . S
C810 C809 1.434 1_554 S
C811 C812 1.369 . S
C811 C813 1.419 1_655 S
C811 H815 0.930 . S
C812 C811 1.369 . S
C812 C821 1.429 . S
C813 C811 1.419 1_455 S
C813 C814 1.363 . S
C813 H816 0.929 . S
C814 C813 1.363 . S
C814 C820 1.428 . S
H815 C811 0.930 . S
H816 C813 0.929 . S
S817 N818 1.613 1_455 S
S817 N819 1.610 . S
N818 S817 1.613 1_655 S
N818 C821 1.350 . S
N819 S817 1.610 . S
N819 C820 1.351 . S
C820 C814 1.428 . S
C820 N819 1.351 . S
C820 C821 1.434 1_455 S
C821 C812 1.429 . S
C821 N818 1.350 . S
C821 C820 1.434 1_655 S
C822 C823 1.369 . S
C822 C824 1.419 . S
C822 H826 0.930 . S
C823 C822 1.369 . S
C823 C832 1.429 . S
C824 C822 1.419 . S
C824 C825 1.363 . S
C824 H827 0.929 . S
C825 C824 1.363 . S
C825 C831 1.428 . S
H826 C822 0.930 . S
H827 C824 0.929 . S
S828 N829 1.613 . S
S828 N830 1.610 . S
N829 S828 1.613 . S
N829 C832 1.350 . S
N830 S828 1.610 . S
N830 C831 1.351 . S
C831 C825 1.428 . S
C831 N830 1.351 . S
C831 C832 1.434 . S
C832 C823 1.429 . S
C832 N829 1.350 . S
C832 C831 1.434 . S
C833 C834 1.369 . S
C833 C835 1.419 . S
C833 H837 0.930 . S
C834 C833 1.369 . S
C834 C843 1.429 . S
C835 C833 1.419 . S
C835 C836 1.363 . S
C835 H838 0.929 1_556 S
C836 C835 1.363 . S
C836 C842 1.428 . S
H837 C833 0.930 . S
H838 C835 0.929 1_554 S
S839 N840 1.613 . S
S839 N841 1.610 . S
N840 S839 1.613 . S
N840 C843 1.350 . S
N841 S839 1.610 . S
N841 C842 1.351 . S
C842 C836 1.428 . S
C842 N841 1.351 . S
C842 C843 1.434 . S
C843 C834 1.429 . S
C843 N840 1.350 . S
C843 C842 1.434 . S
C844 C845 1.369 . S
C844 C846 1.419 . S
C844 H848 0.930 . S
C845 C844 1.369 . S
C845 C854 1.429 . S
C846 C844 1.419 . S
C846 C847 1.363 . S
C846 H849 0.929 . S
C847 C846 1.363 . S
C847 C853 1.428 . S
H848 C844 0.930 . S
H849 C846 0.929 . S
S850 N851 1.613 . S
S850 N852 1.610 . S
N851 S850 1.613 . S
N851 C854 1.350 . S
N852 S850 1.610 . S
N852 C853 1.351 . S
C853 C847 1.428 . S
C853 N852 1.351 . S
C853 C854 1.434 . S
C854 C845 1.429 . S
C854 N851 1.350 . S
C854 C853 1.434 . S
C855 C856 1.369 . S
C855 C857 1.419 . S
C855 H859 0.930 . S
C856 C855 1.369 . S
C856 C865 1.429 . S
C857 C855 1.419 . S
C857 C858 1.363 . S
C857 H860 0.929 . S
C858 C857 1.363 . S
C858 C864 1.428 . S
H859 C855 0.930 . S
H860 C857 0.929 . S
S861 N862 1.613 . S
S861 N863 1.610 . S
N862 S861 1.613 . S
N862 C865 1.350 . S
N863 S861 1.610 . S
N863 C864 1.351 . S
C864 C858 1.428 . S
C864 N863 1.351 . S
C864 C865 1.434 . S
C865 C856 1.429 . S
C865 N862 1.350 . S
C865 C864 1.434 . S
C866 C867 1.369 1_554 S
C866 C868 1.419 . S
C866 H870 0.930 . S
C867 C866 1.369 1_556 S
C867 C876 1.429 1_556 S
C868 C866 1.419 . S
C868 C869 1.363 . S
C868 H871 0.929 . S
C869 C868 1.363 . S
C869 C875 1.428 . S
H870 C866 0.930 . S
H871 C868 0.929 . S
S872 N873 1.613 1_554 S
S872 N874 1.610 . S
N873 S872 1.613 1_556 S
N873 C876 1.350 1_556 S
N874 S872 1.610 . S
N874 C875 1.351 . S
C875 C869 1.428 . S
C875 N874 1.351 . S
C875 C876 1.434 . S
C876 C867 1.429 1_554 S
C876 N873 1.350 1_554 S
C876 C875 1.434 . S
C877 C878 1.369 . S
C877 C879 1.419 . S
C877 H881 0.930 . S
C878 C877 1.369 . S
C878 C887 1.425 1_454 S
C879 C877 1.419 . S
C879 C880 1.363 1_455 S
C879 H882 0.929 . S
C880 C879 1.363 1_655 S
C880 C886 1.428 . S
H881 C877 0.930 . S
H882 C879 0.929 . S
S883 N884 1.613 . S
S883 N885 1.610 1_556 S
N884 S883 1.613 . S
N884 C887 1.361 . S
N885 S883 1.610 1_554 S
N885 C886 1.351 . S
C886 C880 1.428 . S
C886 N885 1.351 . S
C886 C887 1.427 1_554 S
C887 C878 1.425 1_656 S
C887 N884 1.361 . S
C887 C886 1.427 1_556 S
C888 C889 1.369 . S
C888 C890 1.419 1_556 S
C888 H892 0.930 . S
C889 C888 1.369 . S
C889 C898 1.429 1_556 S
C890 C888 1.419 1_554 S
C890 C891 1.363 . S
C890 H893 0.929 . S
C891 C890 1.363 . S
C891 C897 1.428 . S
H892 C888 0.930 . S
H893 C890 0.929 . S
S894 N895 1.613 . S
S894 N896 1.610 . S
N895 S894 1.613 . S
N895 C898 1.350 . S
N896 S894 1.610 . S
N896 C897 1.351 . S
C897 C891 1.428 . S
C897 N896 1.351 . S
C897 C898 1.434 . S
C898 C889 1.429 1_554 S
C898 N895 1.350 . S
C898 C897 1.434 . S
C899 C900 1.369 . S
C899 C901 1.419 1_455 S
C899 H903 0.930 . S
C900 C899 1.369 . S
C900 C909 1.429 . S
C901 C899 1.419 1_655 S
C901 C902 1.363 . S
C901 H904 0.929 . S
C902 C901 1.363 . S
C902 C908 1.428 . S
H903 C899 0.930 . S
H904 C901 0.929 . S
S905 N906 1.613 . S
S905 N907 1.610 1_455 S
N906 S905 1.613 . S
N906 C909 1.350 . S
N907 S905 1.610 1_655 S
N907 C908 1.351 . S
C908 C902 1.428 . S
C908 N907 1.351 . S
C908 C909 1.434 1_655 S
C909 C900 1.429 . S
C909 N906 1.350 . S
C909 C908 1.434 1_455 S
C910 C911 1.369 . S
C910 C912 1.419 . S
C910 H914 0.930 . S
C911 C910 1.369 . S
C911 C920 1.429 . S
C912 C910 1.419 . S
C912 C913 1.363 . S
C912 H915 0.929 . S
C913 C912 1.363 . S
C913 C919 1.428 . S
H914 C910 0.930 . S
H915 C912 0.929 . S
S916 N917 1.613 . S
S916 N918 1.610 . S
N917 S916 1.613 . S
N917 C920 1.350 . S
N918 S916 1.610 . S
N918 C919 1.351 . S
C919 C913 1.428 . S
C919 N918 1.351 . S
C919 C920 1.434 . S
C920 C911 1.429 . S
C920 N917 1.350 . S
C920 C919 1.434 . S
C921 C922 1.369 . S
C921 C923 1.419 . S
C921 H925 0.930 . S
C922 C921 1.369 . S
C922 C931 1.429 . S
C923 C921 1.419 . S
C923 C924 1.363 . S
C923 H926 0.929 . S
C924 C923 1.363 . S
C924 C930 1.428 . S
H925 C921 0.930 . S
H926 C923 0.929 . S
S927 N928 1.613 1_556 S
S927 N929 1.610 . S
N928 S927 1.613 1_554 S
N928 C931 1.350 . S
N929 S927 1.610 . S
N929 C930 1.351 1_556 S
C930 C924 1.428 . S
C930 N929 1.351 1_554 S
C930 C931 1.434 . S
C931 C922 1.429 . S
C931 N928 1.350 . S
C931 C930 1.434 . S
C932 C933 1.369 . S
C932 C934 1.419 . S
C932 H936 0.930 . S
C933 C932 1.369 . S
C933 C942 1.429 . S
C934 C932 1.419 . S
C934 C935 1.363 . S
C934 H937 0.929 . S
C935 C934 1.363 . S
C935 C941 1.428 . S
H936 C932 0.930 . S
H937 C934 0.929 . S
S938 N939 1.613 . S
S938 N940 1.610 . S
N939 S938 1.613 . S
N939 C942 1.350 . S
N940 S938 1.610 . S
N940 C941 1.351 . S
C941 C935 1.428 . S
C941 N940 1.351 . S
C941 C942 1.434 . S
C942 C933 1.429 . S
C942 N939 1.350 . S
C942 C941 1.434 . S
C943 C944 1.369 . S
C943 C945 1.419 . S
C943 H947 0.930 . S
C944 C943 1.369 . S
C944 C953 1.429 . S
C945 C943 1.419 . S
C945 C946 1.363 . S
C945 H948 0.929 . S
C946 C945 1.363 . S
C946 C952 1.428 . S
H947 C943 0.930 . S
H948 C945 0.929 . S
S949 N950 1.613 . S
S949 N951 1.610 . S
N950 S949 1.613 . S
N950 C953 1.350 . S
N951 S949 1.610 . S
N951 C952 1.351 . S
C952 C946 1.428 . S
C952 N951 1.351 . S
C952 C953 1.434 . S
C953 C944 1.429 . S
C953 N950 1.350 . S
C953 C952 1.434 . S
C954 C955 1.369 1_556 S
C954 C956 1.419 . S
C954 H958 0.930 . S
C955 C954 1.369 1_554 S
C955 C964 1.429 . S
C956 C954 1.419 . S
C956 C957 1.363 . S
C956 H959 0.929 . S
C957 C956 1.363 . S
C957 C963 1.428 . S
H958 C954 0.930 . S
H959 C956 0.929 . S
S960 N961 1.613 . S
S960 N962 1.610 . S
N961 S960 1.613 . S
N961 C964 1.350 . S
N962 S960 1.610 . S
N962 C963 1.351 1_554 S
C963 C957 1.428 . S
C963 N962 1.351 1_556 S
C963 C964 1.434 1_556 S
C964 C955 1.429 . S
C964 N961 1.350 . S
C964 C963 1.434 1_554 S
C965 C966 1.369 . S
C965 C967 1.419 . S
C965 H969 0.930 . S
C966 C965 1.369 . S
C966 C975 1.429 1_455 S
C967 C965 1.419 . S
C967 C968 1.363 1_455 S
C967 H970 0.929 1_556 S
C968 C967 1.363 1_655 S
C968 C974 1.428 . S
H969 C965 0.930 . S
H970 C967 0.929 1_554 S
S971 N972 1.613 . S
S971 N973 1.610 . S
N972 S971 1.613 . S
N972 C975 1.350 . S
N973 S971 1.610 . S
N973 C974 1.351 . S
C974 C968 1.428 . S
C974 N973 1.351 . S
C974 C975 1.434 . S
C975 C966 1.429 1_655 S
C975 N972 1.350 . S
C975 C974 1.434 . S
C976 C977 1.369 . S
C976 C978 1.419 . S
C976 H980 0.930 . S
C977 C976 1.369 . S
C977 C986 1.429 . S
C978 C976 1.419 . S
C978 C979 1.363 . S
C978 H981 0.929 . S
C979 C978 1.363 . S
C979 C985 1.428 . S
H980 C976 0.930 . S
H981 C978 0.929 . S
S982 N983 1.613 . S
S982 N984 1.610 . S
N983 S982 1.613 . S
N983 C986 1.350 . S
N984 S982 1.610 . S
N984 C985 1.351 . S
C985 C979 1.428 . S
C985 N984 1.351 . S
C985 C986 1.434 . S
C986 C977 1.429 . S
C986 N983 1.350 . S
C986 C985 1.434 . S
C987 C988 1.369 . S
C987 C989 1.419 . S
C987 H991 0.930 . S
C988 C987 1.369 . S
C988 C997 1.429 . S
C989 C987 1.419 . S
C989 C990 1.363 . S
C989 H992 0.929 1_556 S
C990 C989 1.363 . S
C990 C996 1.428 . S
H991 C987 0.930 . S
H992 C989 0.929 1_554 S
S993 N994 1.613 . S
S993 N995 1.610 . S
N994 S993 1.613 . S
N994 C997 1.350 . S
N995 S993 1.610 . S
N995 C996 1.351 . S
C996 C990 1.428 . S
C996 N995 1.351 . S
C996 C997 1.434 . S
C997 C988 1.429 . S
C997 N994 1.350 . S
C997 C996 1.434 . S
C998 C999 1.369 . S
C998 C1000 1.419 1_554 S
C998 H1002 0.930 . S
C999 C998 1.369 . S
C999 C1008 1.429 1_554 S
C1000 C998 1.419 1_556 S
C1000 C1001 1.363 . S
C1000 H1003 0.929 . S
C1001 C1000 1.363 . S
C1001 C1007 1.428 . S
H1002 C998 0.930 . S
H1003 C1000 0.929 . S
S1004 N1005 1.613 . S
S1004 N1006 1.610 . S
N1005 S1004 1.613 . S
N1005 C1008 1.350 . S
N1006 S1004 1.610 . S
N1006 C1007 1.351 . S
C1007 C1001 1.428 . S
C1007 N1006 1.351 . S
C1007 C1008 1.434 . S
C1008 C999 1.429 1_556 S
C1008 N1005 1.350 . S
C1008 C1007 1.434 . S
C1009 C1010 1.369 1_455 S
C1009 C1011 1.418 . S
C1009 H1013 0.930 . S
C1010 C1009 1.369 1_655 S
C1010 C1019 1.429 . S
C1011 C1009 1.418 . S
C1011 C1012 1.363 . S
C1011 H1014 0.929 . S
C1012 C1011 1.363 . S
C1012 C1018 1.451 . S
H1013 C1009 0.930 . S
H1014 C1011 0.929 . S
S1015 N1016 1.613 . S
S1015 N1017 1.610 . S
N1016 S1015 1.613 . S
N1016 C1019 1.350 . S
N1017 S1015 1.610 . S
N1017 C1018 1.348 1_655 S
C1018 C1012 1.451 . S
C1018 N1017 1.348 1_455 S
C1018 C1019 1.412 1_455 S
C1019 C1010 1.429 . S
C1019 N1016 1.350 . S
C1019 C1018 1.412 1_655 S
C1020 C1021 1.369 . S
C1020 C1022 1.419 1_556 S
C1020 H1024 0.930 . S
C1021 C1020 1.369 . S
C1021 C1030 1.429 1_556 S
C1022 C1020 1.419 1_554 S
C1022 C1023 1.363 . S
C1022 H1025 0.929 1_554 S
C1023 C1022 1.363 . S
C1023 C1029 1.428 . S
H1024 C1020 0.930 . S
H1025 C1022 0.929 1_556 S
S1026 N1027 1.613 . S
S1026 N1028 1.610 . S
N1027 S1026 1.613 . S
N1027 C1030 1.350 . S
N1028 S1026 1.610 . S
N1028 C1029 1.351 . S
C1029 C1023 1.428 . S
C1029 N1028 1.351 . S
C1029 C1030 1.434 . S
C1030 C1021 1.429 1_554 S
C1030 N1027 1.350 . S
C1030 C1029 1.434 . S
C1031 C1032 1.369 1_455 S
C1031 C1033 1.419 . S
C1031 H1035 0.930 1_554 S
C1032 C1031 1.369 1_655 S
C1032 C1041 1.429 . S
C1033 C1031 1.419 . S
C1033 C1034 1.363 . S
C1033 H1036 0.929 . S
C1034 C1033 1.363 . S
C1034 C1040 1.428 1_455 S
H1035 C1031 0.930 1_556 S
H1036 C1033 0.929 . S
S1037 N1038 1.613 . S
S1037 N1039 1.610 . S
N1038 S1037 1.613 . S
N1038 C1041 1.350 . S
N1039 S1037 1.610 . S
N1039 C1040 1.351 . S
C1040 C1034 1.428 1_655 S
C1040 N1039 1.351 . S
C1040 C1041 1.434 . S
C1041 C1032 1.429 . S
C1041 N1038 1.350 . S
C1041 C1040 1.434 . S
C1042 C1043 1.369 . S
C1042 C1044 1.419 . S
C1042 H1046 0.930 . S
C1043 C1042 1.369 . S
C1043 C1052 1.429 . S
C1044 C1042 1.419 . S
C1044 C1045 1.363 . S
C1044 H1047 0.929 . S
C1045 C1044 1.363 . S
C1045 C1051 1.428 . S
H1046 C1042 0.930 . S
H1047 C1044 0.929 . S
S1048 N1049 1.613 . S
S1048 N1050 1.610 . S
N1049 S1048 1.613 . S
N1049 C1052 1.350 . S
N1050 S1048 1.610 . S
N1050 C1051 1.351 . S
C1051 C1045 1.428 . S
C1051 N1050 1.351 . S
C1051 C1052 1.434 . S
C1052 C1043 1.429 . S
C1052 N1049 1.350 . S
C1052 C1051 1.434 . S
C1053 C1054 1.369 . S
C1053 C1055 1.419 . S
C1053 H1057 0.930 . S
C1054 C1053 1.369 . S
C1054 C1063 1.429 . S
C1055 C1053 1.419 . S
C1055 C1056 1.363 . S
C1055 H1058 0.929 . S
C1056 C1055 1.363 . S
C1056 C1062 1.428 . S
H1057 C1053 0.930 . S
H1058 C1055 0.929 . S
S1059 N1060 1.613 . S
S1059 N1061 1.610 . S
N1060 S1059 1.613 . S
N1060 C1063 1.350 . S
N1061 S1059 1.610 . S
N1061 C1062 1.351 . S
C1062 C1056 1.428 . S
C1062 N1061 1.351 . S
C1062 C1063 1.434 . S
C1063 C1054 1.429 . S
C1063 N1060 1.350 . S
C1063 C1062 1.434 . S
C1064 C1065 1.369 . S
C1064 C1066 1.419 . S
C1064 H1068 0.930 . S
C1065 C1064 1.369 . S
C1065 C1074 1.429 . S
C1066 C1064 1.419 . S
C1066 C1067 1.363 . S
C1066 H1069 0.929 . S
C1067 C1066 1.363 . S
C1067 C1073 1.428 . S
H1068 C1064 0.930 . S
H1069 C1066 0.929 . S
S1070 N1071 1.613 . S
S1070 N1072 1.610 . S
N1071 S1070 1.613 . S
N1071 C1074 1.350 . S
N1072 S1070 1.610 . S
N1072 C1073 1.351 . S
C1073 C1067 1.428 . S
C1073 N1072 1.351 . S
C1073 C1074 1.434 . S
C1074 C1065 1.429 . S
C1074 N1071 1.350 . S
C1074 C1073 1.434 . S
C1075 C1076 1.369 . S
C1075 C1077 1.419 . S
C1075 H1079 0.930 . S
C1076 C1075 1.369 . S
C1076 C1085 1.429 . S
C1077 C1075 1.419 . S
C1077 C1078 1.363 . S
C1077 H1080 0.929 1_554 S
C1078 C1077 1.363 . S
C1078 C1084 1.428 . S
H1079 C1075 0.930 . S
H1080 C1077 0.929 1_556 S
S1081 N1082 1.613 . S
S1081 N1083 1.610 . S
N1082 S1081 1.613 . S
N1082 C1085 1.350 . S
N1083 S1081 1.610 . S
N1083 C1084 1.351 . S
C1084 C1078 1.428 . S
C1084 N1083 1.351 . S
C1084 C1085 1.434 . S
C1085 C1076 1.429 . S
C1085 N1082 1.350 . S
C1085 C1084 1.434 . S
C1086 C1087 1.369 . S
C1086 C1088 1.419 . S
C1086 H1090 0.930 . S
C1087 C1086 1.369 . S
C1087 C1096 1.429 . S
C1088 C1086 1.419 . S
C1088 C1089 1.363 1_554 S
C1088 H1091 0.929 . S
C1089 C1088 1.363 1_556 S
C1089 C1095 1.428 . S
H1090 C1086 0.930 . S
H1091 C1088 0.929 . S
S1092 N1093 1.613 . S
S1092 N1094 1.610 . S
N1093 S1092 1.613 . S
N1093 C1096 1.350 1_556 S
N1094 S1092 1.610 . S
N1094 C1095 1.351 . S
C1095 C1089 1.428 . S
C1095 N1094 1.351 . S
C1095 C1096 1.434 1_556 S
C1096 C1087 1.429 . S
C1096 N1093 1.350 1_554 S
C1096 C1095 1.434 1_554 S
C1097 C1098 1.369 1_655 S
C1097 C1099 1.419 . S
C1097 H1101 0.930 . S
C1098 C1097 1.369 1_455 S
C1098 C1107 1.429 . S
C1099 C1097 1.419 . S
C1099 C1100 1.363 . S
C1099 H1102 0.929 . S
C1100 C1099 1.363 . S
C1100 C1106 1.428 1_655 S
H1101 C1097 0.930 . S
H1102 C1099 0.929 . S
S1103 N1104 1.613 . S
S1103 N1105 1.610 . S
N1104 S1103 1.613 . S
N1104 C1107 1.350 . S
N1105 S1103 1.610 . S
N1105 C1106 1.351 . S
C1106 C1100 1.428 1_455 S
C1106 N1105 1.351 . S
C1106 C1107 1.434 . S
C1107 C1098 1.429 . S
C1107 N1104 1.350 . S
C1107 C1106 1.434 . S
C1108 C1109 1.369 . S
C1108 C1110 1.419 1_554 S
C1108 H1112 0.930 . S
C1109 C1108 1.369 . S
C1109 C1118 1.429 1_554 S
C1110 C1108 1.419 1_556 S
C1110 C1111 1.363 . S
C1110 H1113 0.929 . S
C1111 C1110 1.363 . S
C1111 C1117 1.428 . S
H1112 C1108 0.930 . S
H1113 C1110 0.929 . S
S1114 N1115 1.613 . S
S1114 N1116 1.610 . S
N1115 S1114 1.613 . S
N1115 C1118 1.350 . S
N1116 S1114 1.610 . S
N1116 C1117 1.351 . S
C1117 C1111 1.428 . S
C1117 N1116 1.351 . S
C1117 C1118 1.434 . S
C1118 C1109 1.429 1_556 S
C1118 N1115 1.350 . S
C1118 C1117 1.434 . S
C1119 C1120 1.369 . S
C1119 C1121 1.419 . S
C1119 H1123 0.930 . S
C1120 C1119 1.369 . S
C1120 C1129 1.429 1_655 S
C1121 C1119 1.419 . S
C1121 C1122 1.363 1_655 S
C1121 H1124 0.929 1_556 S
C1122 C1121 1.363 1_455 S
C1122 C1128 1.428 . S
H1123 C1119 0.930 . S
H1124 C1121 0.929 1_554 S
S1125 N1126 1.613 . S
S1125 N1127 1.610 . S
N1126 S1125 1.613 . S
N1126 C1129 1.350 . S
N1127 S1125 1.610 . S
N1127 C1128 1.351 . S
C1128 C1122 1.428 . S
C1128 N1127 1.351 . S
C1128 C1129 1.434 . S
C1129 C1120 1.429 1_455 S
C1129 N1126 1.350 . S
C1129 C1128 1.434 . S
C1130 C1131 1.369 . S
C1130 C1132 1.419 . S
C1130 H1134 0.930 . S
C1131 C1130 1.369 . S
C1131 C1140 1.429 . S
C1132 C1130 1.419 . S
C1132 C1133 1.363 . S
C1132 H1135 0.929 . S
C1133 C1132 1.363 . S
C1133 C1139 1.428 . S
H1134 C1130 0.930 . S
H1135 C1132 0.929 . S
S1136 N1137 1.613 . S
S1136 N1138 1.610 . S
N1137 S1136 1.613 . S
N1137 C1140 1.350 . S
N1138 S1136 1.610 . S
N1138 C1139 1.351 . S
C1139 C1133 1.428 . S
C1139 N1138 1.351 . S
C1139 C1140 1.434 . S
C1140 C1131 1.429 . S
C1140 N1137 1.350 . S
C1140 C1139 1.434 . S
C1141 C1142 1.369 . S
C1141 C1143 1.419 . S
C1141 H1145 0.930 . S
C1142 C1141 1.369 . S
C1142 C1151 1.429 . S
C1143 C1141 1.419 . S
C1143 C1144 1.363 . S
C1143 H1146 0.929 . S
C1144 C1143 1.363 . S
C1144 C1150 1.428 . S
H1145 C1141 0.930 . S
H1146 C1143 0.929 . S
S1147 N1148 1.613 . S
S1147 N1149 1.610 . S
N1148 S1147 1.613 . S
N1148 C1151 1.350 . S
N1149 S1147 1.610 . S
N1149 C1150 1.351 . S
C1150 C1144 1.428 . S
C1150 N1149 1.351 . S
C1150 C1151 1.434 . S
C1151 C1142 1.429 . S
C1151 N1148 1.350 . S
C1151 C1150 1.434 . S
C449 C84 2.571 . S
C451 C0 2.568 . S
C460 C14 1.430 . S
C462 C98 1.428 . S
C471 C56 2.564 . S
C473 C28 2.570 . S
C482 C42 1.429 . S
C484 C70 1.427 . S
C493 C196 2.570 . S
C495 C112 2.570 . S
C504 C126 1.426 . S
C506 C210 1.424 . S
C515 C168 2.568 . S
C517 C140 2.564 . S
C526 C154 1.432 . S
C528 C182 1.429 . S
C537 C224 2.568 . S
C539 C308 2.563 . S
C548 C322 1.432 . S
C550 C238 1.430 . S
C559 C252 2.563 . S
C561 C280 2.564 . S
C570 C294 1.423 . S
C572 C266 1.424 . S
C581 C420 2.566 . S
C583 C336 2.570 . S
C592 C434 1.423 . S
C594 C350 1.425 . S
C603 C392 2.570 . S
C605 C364 2.570 . S
C614 C378 1.427 . S
C616 C406 1.429 . S
C625 C109 1.377 . S
C627 C11 1.385 . S
C636 C67 1.385 . S
C638 C25 1.372 . S
C647 C81 1.377 . S
C649 C39 1.384 . S
C658 C95 1.386 . S
C660 C53 1.374 . S
C669 C221 1.377 . S
C671 C123 1.385 . S
C680 C179 1.386 . S
C682 C137 1.375 . S
C691 C193 1.377 . S
C693 C151 1.385 . S
C702 C165 1.377 . S
C704 C207 1.385 . S
C713 C333 1.374 . S
C715 C235 1.386 . S
C724 C249 1.377 . S
C726 C291 1.385 . S
C735 C263 1.386 . S
C737 C305 1.373 . S
C746 C319 1.386 . S
C748 C277 1.376 . S
C757 C445 1.376 . S
C759 C347 1.384 . S
C768 C361 1.373 . S
C770 C403 1.386 . S
C779 C375 1.385 . S
C781 C417 1.373 . S
C790 C431 1.386 . S
C792 C389 1.376 . S
C801 C9 1.747 . S
C803 C425 2.084 . S
C812 C215 1.322 . S
C814 C23 1.349 . S
C823 C397 2.087 . S
C825 C37 1.744 . S
C834 C187 1.329 . S
C836 C51 1.350 1_556 S
C845 C369 2.085 . S
C847 C65 1.745 . S
C856 C79 1.350 . S
C858 C159 1.325 . S
C867 C93 1.752 . S
C869 C341 2.083 . S
C878 C107 1.349 1_554 S
C880 C131 1.329 . S
C889 C121 1.746 . S
C891 C313 2.087 . S
C900 C103 1.325 . S
C902 C135 1.349 . S
C911 C285 2.087 . S
C913 C149 1.744 . S
C922 C75 1.330 . S
C924 C163 1.349 1_554 S
C933 C257 2.082 . S
C935 C177 1.754 . S
C944 C47 1.326 . S
C946 C191 1.349 . S
C955 C205 1.744 . S
C957 C229 2.085 . S
C966 C19 1.323 . S
C968 C219 1.350 1_556 S
C977 C201 2.084 . S
C979 C233 1.746 . S
C988 C439 1.323 . S
C990 C247 1.350 1_556 S
C999 C261 1.751 . S
C1001 C173 2.086 . S
C1010 C275 1.350 . S
C1012 C411 1.325 . S
C1021 C289 1.755 . S
C1023 C145 2.084 . S
C1032 C303 1.350 1_554 S
C1034 C383 1.324 . S
C1043 C317 1.746 . S
C1045 C117 2.084 . S
C1054 C331 1.348 . S
C1056 C355 1.326 . S
C1065 C89 2.084 . S
C1067 C345 1.747 . S
C1076 C327 1.324 . S
C1078 C359 1.350 1_554 S
C1087 C61 2.086 . S
C1089 C373 1.745 . S
C1098 C387 1.350 . S
C1100 C299 1.326 . S
C1109 C401 1.756 . S
C1111 C33 2.084 . S
C1120 C271 1.323 . S
C1122 C415 1.350 1_556 S
C1131 C429 1.747 . S
C1133 C5 2.086 . S
C1142 C443 1.350 . S
C1144 C243 1.326 . S
