# Generated by pormake.
# Topology wln, (5)-cn, num edge types: 1
# Building blocks:
#     Node 0, Type 0, BuildingBlock: XOMCOT_clean_sbu_1, # of connection points: 5
#     Node 1, Type 0, BuildingBlock: XOMCOT_clean_sbu_1, # of connection points: 5
#     Node 2, Type 0, BuildingBlock: XOMCOT_clean_sbu_1, # of connection points: 5
#     Node 3, Type 0, BuildingBlock: XOMCOT_clean_sbu_1, # of connection points: 5
#     Node 4, Type 0, BuildingBlock: XOMCOT_clean_sbu_1, # of connection points: 5
#     Node 5, Type 0, BuildingBlock: XOMCOT_clean_sbu_1, # of connection points: 5
#     Node 6, Type 0, BuildingBlock: XOMCOT_clean_sbu_1, # of connection points: 5
#     Node 7, Type 0, BuildingBlock: XOMCOT_clean_sbu_1, # of connection points: 5
#     Node 8, Type 0, BuildingBlock: XOMCOT_clean_sbu_1, # of connection points: 5
#     Node 9, Type 0, BuildingBlock: XOMCOT_clean_sbu_1, # of connection points: 5
#     Node 10, Type 0, BuildingBlock: XOMCOT_clean_sbu_1, # of connection points: 5
#     Node 11, Type 0, BuildingBlock: XOMCOT_clean_sbu_1, # of connection points: 5
#     Node 12, Type 0, BuildingBlock: XOMCOT_clean_sbu_1, # of connection points: 5
#     Node 13, Type 0, BuildingBlock: XOMCOT_clean_sbu_1, # of connection points: 5
#     Node 14, Type 0, BuildingBlock: XOMCOT_clean_sbu_1, # of connection points: 5
#     Node 15, Type 0, BuildingBlock: XOMCOT_clean_sbu_1, # of connection points: 5
#     Node 16, Type 0, BuildingBlock: XOMCOT_clean_sbu_1, # of connection points: 5
#     Node 17, Type 0, BuildingBlock: XOMCOT_clean_sbu_1, # of connection points: 5
#     Node 18, Type 0, BuildingBlock: XOMCOT_clean_sbu_1, # of connection points: 5
#     Node 19, Type 0, BuildingBlock: XOMCOT_clean_sbu_1, # of connection points: 5
#     Node 20, Type 0, BuildingBlock: XOMCOT_clean_sbu_1, # of connection points: 5
#     Node 21, Type 0, BuildingBlock: XOMCOT_clean_sbu_1, # of connection points: 5
#     Node 22, Type 0, BuildingBlock: XOMCOT_clean_sbu_1, # of connection points: 5
#     Node 23, Type 0, BuildingBlock: XOMCOT_clean_sbu_1, # of connection points: 5
#     Node 24, Type 0, BuildingBlock: XOMCOT_clean_sbu_1, # of connection points: 5
#     Node 25, Type 0, BuildingBlock: XOMCOT_clean_sbu_1, # of connection points: 5
#     Node 26, Type 0, BuildingBlock: XOMCOT_clean_sbu_1, # of connection points: 5
#     Node 27, Type 0, BuildingBlock: XOMCOT_clean_sbu_1, # of connection points: 5
#     Node 28, Type 0, BuildingBlock: XOMCOT_clean_sbu_1, # of connection points: 5
#     Node 29, Type 0, BuildingBlock: XOMCOT_clean_sbu_1, # of connection points: 5
#     Node 30, Type 0, BuildingBlock: XOMCOT_clean_sbu_1, # of connection points: 5
#     Node 31, Type 0, BuildingBlock: XOMCOT_clean_sbu_1, # of connection points: 5
#     Node 32, Type 0, BuildingBlock: XOMCOT_clean_sbu_1, # of connection points: 5
#     Node 33, Type 0, BuildingBlock: XOMCOT_clean_sbu_1, # of connection points: 5
#     Node 34, Type 0, BuildingBlock: XOMCOT_clean_sbu_1, # of connection points: 5
#     Node 35, Type 0, BuildingBlock: XOMCOT_clean_sbu_1, # of connection points: 5
#     Edge 36, Type (0, 0), BuildingBlock: CIFDUS_clean_linker_0, # of connection points: 2
#     Edge 37, Type (0, 0), BuildingBlock: CIFDUS_clean_linker_0, # of connection points: 2
#     Edge 38, Type (0, 0), BuildingBlock: CIFDUS_clean_linker_0, # of connection points: 2
#     Edge 39, Type (0, 0), BuildingBlock: CIFDUS_clean_linker_0, # of connection points: 2
#     Edge 40, Type (0, 0), BuildingBlock: CIFDUS_clean_linker_0, # of connection points: 2
#     Edge 41, Type (0, 0), BuildingBlock: CIFDUS_clean_linker_0, # of connection points: 2
#     Edge 42, Type (0, 0), BuildingBlock: CIFDUS_clean_linker_0, # of connection points: 2
#     Edge 43, Type (0, 0), BuildingBlock: CIFDUS_clean_linker_0, # of connection points: 2
#     Edge 44, Type (0, 0), BuildingBlock: CIFDUS_clean_linker_0, # of connection points: 2
#     Edge 45, Type (0, 0), BuildingBlock: CIFDUS_clean_linker_0, # of connection points: 2
#     Edge 46, Type (0, 0), BuildingBlock: CIFDUS_clean_linker_0, # of connection points: 2
#     Edge 47, Type (0, 0), BuildingBlock: CIFDUS_clean_linker_0, # of connection points: 2
#     Edge 48, Type (0, 0), BuildingBlock: CIFDUS_clean_linker_0, # of connection points: 2
#     Edge 49, Type (0, 0), BuildingBlock: CIFDUS_clean_linker_0, # of connection points: 2
#     Edge 50, Type (0, 0), BuildingBlock: CIFDUS_clean_linker_0, # of connection points: 2
#     Edge 51, Type (0, 0), BuildingBlock: CIFDUS_clean_linker_0, # of connection points: 2
#     Edge 52, Type (0, 0), BuildingBlock: CIFDUS_clean_linker_0, # of connection points: 2
#     Edge 53, Type (0, 0), BuildingBlock: CIFDUS_clean_linker_0, # of connection points: 2
#     Edge 54, Type (0, 0), BuildingBlock: CIFDUS_clean_linker_0, # of connection points: 2
#     Edge 55, Type (0, 0), BuildingBlock: CIFDUS_clean_linker_0, # of connection points: 2
#     Edge 56, Type (0, 0), BuildingBlock: CIFDUS_clean_linker_0, # of connection points: 2
#     Edge 57, Type (0, 0), BuildingBlock: CIFDUS_clean_linker_0, # of connection points: 2
#     Edge 58, Type (0, 0), BuildingBlock: CIFDUS_clean_linker_0, # of connection points: 2
#     Edge 59, Type (0, 0), BuildingBlock: CIFDUS_clean_linker_0, # of connection points: 2
#     Edge 60, Type (0, 0), BuildingBlock: CIFDUS_clean_linker_0, # of connection points: 2
#     Edge 61, Type (0, 0), BuildingBlock: CIFDUS_clean_linker_0, # of connection points: 2
#     Edge 62, Type (0, 0), BuildingBlock: CIFDUS_clean_linker_0, # of connection points: 2
#     Edge 63, Type (0, 0), BuildingBlock: CIFDUS_clean_linker_0, # of connection points: 2
#     Edge 64, Type (0, 0), BuildingBlock: CIFDUS_clean_linker_0, # of connection points: 2
#     Edge 65, Type (0, 0), BuildingBlock: CIFDUS_clean_linker_0, # of connection points: 2
#     Edge 66, Type (0, 0), BuildingBlock: CIFDUS_clean_linker_0, # of connection points: 2
#     Edge 67, Type (0, 0), BuildingBlock: CIFDUS_clean_linker_0, # of connection points: 2
#     Edge 68, Type (0, 0), BuildingBlock: CIFDUS_clean_linker_0, # of connection points: 2
#     Edge 69, Type (0, 0), BuildingBlock: CIFDUS_clean_linker_0, # of connection points: 2
#     Edge 70, Type (0, 0), BuildingBlock: CIFDUS_clean_linker_0, # of connection points: 2
#     Edge 71, Type (0, 0), BuildingBlock: CIFDUS_clean_linker_0, # of connection points: 2
#     Edge 72, Type (0, 0), BuildingBlock: CIFDUS_clean_linker_0, # of connection points: 2
#     Edge 73, Type (0, 0), BuildingBlock: CIFDUS_clean_linker_0, # of connection points: 2
#     Edge 74, Type (0, 0), BuildingBlock: CIFDUS_clean_linker_0, # of connection points: 2
#     Edge 75, Type (0, 0), BuildingBlock: CIFDUS_clean_linker_0, # of connection points: 2
#     Edge 76, Type (0, 0), BuildingBlock: CIFDUS_clean_linker_0, # of connection points: 2
#     Edge 77, Type (0, 0), BuildingBlock: CIFDUS_clean_linker_0, # of connection points: 2
#     Edge 78, Type (0, 0), BuildingBlock: CIFDUS_clean_linker_0, # of connection points: 2
#     Edge 79, Type (0, 0), BuildingBlock: CIFDUS_clean_linker_0, # of connection points: 2
#     Edge 80, Type (0, 0), BuildingBlock: CIFDUS_clean_linker_0, # of connection points: 2
#     Edge 81, Type (0, 0), BuildingBlock: CIFDUS_clean_linker_0, # of connection points: 2
#     Edge 82, Type (0, 0), BuildingBlock: CIFDUS_clean_linker_0, # of connection points: 2
#     Edge 83, Type (0, 0), BuildingBlock: CIFDUS_clean_linker_0, # of connection points: 2
#     Edge 84, Type (0, 0), BuildingBlock: CIFDUS_clean_linker_0, # of connection points: 2
#     Edge 85, Type (0, 0), BuildingBlock: CIFDUS_clean_linker_0, # of connection points: 2
#     Edge 86, Type (0, 0), BuildingBlock: CIFDUS_clean_linker_0, # of connection points: 2
#     Edge 87, Type (0, 0), BuildingBlock: CIFDUS_clean_linker_0, # of connection points: 2
#     Edge 88, Type (0, 0), BuildingBlock: CIFDUS_clean_linker_0, # of connection points: 2
#     Edge 89, Type (0, 0), BuildingBlock: CIFDUS_clean_linker_0, # of connection points: 2
#     Edge 90, Type (0, 0), BuildingBlock: CIFDUS_clean_linker_0, # of connection points: 2
#     Edge 91, Type (0, 0), BuildingBlock: CIFDUS_clean_linker_0, # of connection points: 2
#     Edge 92, Type (0, 0), BuildingBlock: CIFDUS_clean_linker_0, # of connection points: 2
#     Edge 93, Type (0, 0), BuildingBlock: CIFDUS_clean_linker_0, # of connection points: 2
#     Edge 94, Type (0, 0), BuildingBlock: CIFDUS_clean_linker_0, # of connection points: 2
#     Edge 95, Type (0, 0), BuildingBlock: CIFDUS_clean_linker_0, # of connection points: 2
#     Edge 96, Type (0, 0), BuildingBlock: CIFDUS_clean_linker_0, # of connection points: 2
#     Edge 97, Type (0, 0), BuildingBlock: CIFDUS_clean_linker_0, # of connection points: 2
#     Edge 98, Type (0, 0), BuildingBlock: CIFDUS_clean_linker_0, # of connection points: 2
#     Edge 99, Type (0, 0), BuildingBlock: CIFDUS_clean_linker_0, # of connection points: 2
#     Edge 100, Type (0, 0), BuildingBlock: CIFDUS_clean_linker_0, # of connection points: 2
#     Edge 101, Type (0, 0), BuildingBlock: CIFDUS_clean_linker_0, # of connection points: 2
#     Edge 102, Type (0, 0), BuildingBlock: CIFDUS_clean_linker_0, # of connection points: 2
#     Edge 103, Type (0, 0), BuildingBlock: CIFDUS_clean_linker_0, # of connection points: 2
#     Edge 104, Type (0, 0), BuildingBlock: CIFDUS_clean_linker_0, # of connection points: 2
#     Edge 105, Type (0, 0), BuildingBlock: CIFDUS_clean_linker_0, # of connection points: 2
#     Edge 106, Type (0, 0), BuildingBlock: CIFDUS_clean_linker_0, # of connection points: 2
#     Edge 107, Type (0, 0), BuildingBlock: CIFDUS_clean_linker_0, # of connection points: 2
#     Edge 108, Type (0, 0), BuildingBlock: CIFDUS_clean_linker_0, # of connection points: 2
#     Edge 109, Type (0, 0), BuildingBlock: CIFDUS_clean_linker_0, # of connection points: 2
#     Edge 110, Type (0, 0), BuildingBlock: CIFDUS_clean_linker_0, # of connection points: 2
#     Edge 111, Type (0, 0), BuildingBlock: CIFDUS_clean_linker_0, # of connection points: 2
#     Edge 112, Type (0, 0), BuildingBlock: CIFDUS_clean_linker_0, # of connection points: 2
#     Edge 113, Type (0, 0), BuildingBlock: CIFDUS_clean_linker_0, # of connection points: 2
#     Edge 114, Type (0, 0), BuildingBlock: CIFDUS_clean_linker_0, # of connection points: 2
#     Edge 115, Type (0, 0), BuildingBlock: CIFDUS_clean_linker_0, # of connection points: 2
#     Edge 116, Type (0, 0), BuildingBlock: CIFDUS_clean_linker_0, # of connection points: 2
#     Edge 117, Type (0, 0), BuildingBlock: CIFDUS_clean_linker_0, # of connection points: 2
#     Edge 118, Type (0, 0), BuildingBlock: CIFDUS_clean_linker_0, # of connection points: 2
#     Edge 119, Type (0, 0), BuildingBlock: CIFDUS_clean_linker_0, # of connection points: 2
#     Edge 120, Type (0, 0), BuildingBlock: CIFDUS_clean_linker_0, # of connection points: 2
#     Edge 121, Type (0, 0), BuildingBlock: CIFDUS_clean_linker_0, # of connection points: 2
#     Edge 122, Type (0, 0), BuildingBlock: CIFDUS_clean_linker_0, # of connection points: 2
#     Edge 123, Type (0, 0), BuildingBlock: CIFDUS_clean_linker_0, # of connection points: 2
#     Edge 124, Type (0, 0), BuildingBlock: CIFDUS_clean_linker_0, # of connection points: 2
#     Edge 125, Type (0, 0), BuildingBlock: CIFDUS_clean_linker_0, # of connection points: 2
# Relax obj value: 0.168
# Max RMSD: 0.183
# Mean RMSD: 0.179
data_MOF--net-wln--node1-XOMCOT_clean_sbu_1--edge1-CIFDUS_clean_linker_0
_symmetry_space_group_name_H-M    P1
_symmetry_Int_Tables_number       1
_symmetry_cell_setting            triclinic
loop_
_symmetry_equiv_pos_as_xyz
'x, y, z'
_cell_length_a     112.12382
_cell_length_b     112.10914
_cell_length_c     15.633582
_cell_angle_alpha  89.967521
_cell_angle_beta   89.995902
_cell_angle_gamma 119.97254
loop_
_atom_site_label
_atom_site_type_symbol
_atom_site_fract_x
_atom_site_fract_y
_atom_site_fract_z
_atom_type_partial_charge
C0 C 0.13688 0.41298 0.88548 0.0
C1 C 0.13802 0.41538 0.79864 0.0
N2 N 0.12627 0.40593 0.76043 0.0
N3 N 0.12448 0.40204 0.90349 0.0
C4 C 0.11816 0.39807 0.8259 0.0
H5 H 0.14488 0.4185 0.93236 0.0
Co6 Co 0.11966 0.39384 0.01417 0.0
C7 C 0.09388 0.36734 0.96578 0.0
O8 O 0.08589 0.36714 0.02786 0.0
N9 N 0.11513 0.38576 0.12573 0.0
C10 C 0.10997 0.3708 0.23245 0.0
C11 C 0.11145 0.37265 0.14526 0.0
C12 C 0.11605 0.39174 0.20319 0.0
N13 N 0.11283 0.3828 0.26966 0.0
O14 O 0.10652 0.39964 0.02786 0.0
H15 H 0.11033 0.36496 0.0992 0.0
H16 H 0.11919 0.4025 0.21083 0.0
O17 O 0.10632 0.37702 0.961 0.0
C18 C 0.11278 0.41177 0.05848 0.0
O19 O 0.1263 0.41813 0.06255 0.0
N20 N 0.13315 0.38892 1.00449 0.0
C21 C 0.15526 0.38424 1.00363 0.0
C22 C 0.14393 0.37664 0.94994 0.0
C23 C 0.13297 0.37924 0.95068 0.0
C24 C 0.1441 0.39642 0.05674 0.0
C25 C 0.15526 0.39423 0.05754 0.0
H26 H 0.1245 0.37356 0.9074 0.0
H27 H 0.14411 0.40416 0.09805 0.0
H28 H 0.10786 0.38953 0.81729 0.0
H29 H 0.14712 0.42312 0.76589 0.0
H30 H 0.10744 0.36137 0.26586 0.0
H31 H 0.14368 0.36899 0.90654 0.0
H32 H 0.16379 0.40025 0.10034 0.0
C33 C 0.59879 0.73895 0.96655 0.0
C34 C 0.59779 0.73828 0.87863 0.0
N35 N 0.60566 0.7332 0.84939 0.0
N36 N 0.60732 0.73439 0.99168 0.0
C37 C 0.61101 0.73063 0.91926 0.0
H38 H 0.59426 0.74321 0.00906 0.0
Co39 Co 0.614 0.73507 0.10057 0.0
C40 C 0.64343 0.74439 0.07138 0.0
O41 O 0.6465 0.75323 0.13436 0.0
N42 N 0.61994 0.73496 0.21194 0.0
C43 C 0.62742 0.72888 0.32669 0.0
C44 C 0.62828 0.73025 0.23945 0.0
C45 C 0.61342 0.73538 0.28347 0.0
N46 N 0.61802 0.73209 0.35416 0.0
O47 O 0.60505 0.7156 0.10356 0.0
H48 H 0.63378 0.72683 0.19887 0.0
H49 H 0.60473 0.73704 0.28325 0.0
O50 O 0.63079 0.73617 0.05252 0.0
C51 C 0.59234 0.71003 0.12212 0.0
O52 O 0.58677 0.71787 0.12984 0.0
N53 N 0.62223 0.75459 0.09775 0.0
C54 C 0.62975 0.78226 0.07832 0.0
C55 C 0.63403 0.77587 0.0188 0.0
C56 C 0.63012 0.76203 0.02941 0.0
C57 C 0.6179 0.76074 0.15551 0.0
C58 C 0.62181 0.77462 0.14818 0.0
H59 H 0.63278 0.75712 0.9795 0.0
H60 H 0.61059 0.7548 0.2042 0.0
H61 H 0.6179 0.72651 0.91731 0.0
H62 H 0.59246 0.74207 0.8392 0.0
H63 H 0.63258 0.72488 0.36607 0.0
H64 H 0.6399 0.78137 0.9628 0.0
H65 H 0.61783 0.77907 0.19354 0.0
C66 C 0.26792 0.86043 0.87053 0.0
C67 C 0.26918 0.86027 0.78303 0.0
N68 N 0.2736 0.87309 0.75339 0.0
N69 N 0.27129 0.87325 0.89562 0.0
C70 C 0.27503 0.88078 0.82307 0.0
H71 H 0.26439 0.85167 0.9127 0.0
Co72 Co 0.26978 0.87893 0.0051 0.0
C73 C 0.25716 0.89663 0.97378 0.0
O74 O 0.2498 0.89232 0.0442 0.0
N75 N 0.26877 0.88478 0.11622 0.0
C76 C 0.27386 0.89857 0.22943 0.0
C77 C 0.27405 0.898 0.14161 0.0
C78 C 0.26583 0.8776 0.19021 0.0
N79 N 0.2687 0.88569 0.25987 0.0
O80 O 0.28875 0.89236 1.00448 0.0
H81 H 0.27845 0.90679 0.09912 0.0
H82 H 0.26271 0.86685 0.19412 0.0
O83 O 0.26522 0.89209 0.95403 0.0
C84 C 0.29595 0.88684 0.02235 0.0
O85 O 0.2898 0.87337 0.02937 0.0
N86 N 0.25129 0.86478 0.00792 0.0
C87 C 0.2261 0.84021 0.00796 0.0
C88 C 0.22778 0.85162 0.96103 0.0
C89 C 0.24058 0.86376 0.96033 0.0
C90 C 0.24987 0.85362 0.05149 0.0
C91 C 0.23735 0.84139 0.05405 0.0
H92 H 0.24196 0.87189 0.91763 0.0
H93 H 0.25878 0.85397 0.08057 0.0
H94 H 0.27833 0.89161 0.82101 0.0
H95 H 0.26681 0.85137 0.74417 0.0
H96 H 0.27766 0.9078 0.26771 0.0
H97 H 0.21949 0.85094 0.92185 0.0
H98 H 0.23661 0.83279 0.09012 0.0
C99 C 0.39974 0.13053 0.09686 0.0
C100 C 0.40181 0.13237 0.18378 0.0
N101 N 0.3935 0.12032 0.22356 0.0
N102 N 0.39007 0.11739 0.08064 0.0
C103 C 0.38662 0.11137 0.15913 0.0
H104 H 0.40478 0.13839 0.04852 0.0
Co105 Co 0.38303 0.11037 0.97037 0.0
C106 C 0.35292 0.0911 0.00739 0.0
O107 O 0.3487 0.09298 0.93287 0.0
N108 N 0.37632 0.10319 0.85808 0.0
C109 C 0.36722 0.08766 0.75318 0.0
C110 C 0.36889 0.0896 0.84016 0.0
C111 C 0.37953 0.10924 0.7793 0.0
N112 N 0.37395 0.10001 0.71445 0.0
O113 O 0.38963 0.0978 0.97915 0.0
H114 H 0.36532 0.08149 0.88743 0.0
H115 H 0.38616 0.12012 0.76868 0.0
O116 O 0.36576 0.09715 0.02454 0.0
C117 C 0.40204 0.10348 0.95357 0.0
O118 O 0.40834 0.11664 0.93407 0.0
N119 N 0.37748 0.12357 0.95994 0.0
C120 C 0.37486 0.14704 0.95276 0.0
C121 C 0.36603 0.13583 1.00432 0.0
C122 C 0.36767 0.12427 0.00826 0.0
C123 C 0.3862 0.13445 0.91038 0.0
C124 C 0.38492 0.14615 0.90444 0.0
H125 H 0.36164 0.11642 0.05445 0.0
H126 H 0.39478 0.13441 0.87924 0.0
H127 H 0.37927 0.10058 0.16879 0.0
H128 H 0.40866 0.14202 0.21515 0.0
H129 H 0.36199 0.07782 0.72078 0.0
H130 H 0.35847 0.13631 0.04511 0.0
H131 H 0.39208 0.15463 0.86458 0.0
C132 C 0.86336 0.27049 0.08711 0.0
C133 C 0.86217 0.27165 0.17397 0.0
N134 N 0.8738 0.27367 0.21252 0.0
N135 N 0.87569 0.27174 0.06943 0.0
C136 C 0.88189 0.27382 0.14725 0.0
H137 H 0.85546 0.26826 0.03995 0.0
Co138 Co 0.88066 0.26857 0.95862 0.0
C139 C 0.90613 0.2676 0.01022 0.0
O140 O 0.91445 0.27624 0.95227 0.0
N141 N 0.88537 0.26523 0.8474 0.0
C142 C 0.89059 0.25549 0.74074 0.0
C143 C 0.88905 0.2558 0.82788 0.0
C144 C 0.88452 0.27037 0.77007 0.0
N145 N 0.88775 0.26466 0.7036 0.0
O146 O 0.89411 0.28751 0.94831 0.0
H147 H 0.8901 0.24917 0.87385 0.0
H148 H 0.8814 0.27802 0.76266 0.0
O149 O 0.89355 0.26444 0.0125 0.0
C150 C 0.888 0.29394 0.92491 0.0
O151 O 0.87455 0.28694 0.91553 0.0
N152 N 0.86677 0.25029 0.96591 0.0
C153 C 0.84297 0.22475 0.97785 0.0
C154 C 0.85432 0.22794 0.03026 0.0
C155 C 0.86615 0.24087 0.0238 0.0
C156 C 0.856 0.24722 0.91287 0.0
C157 C 0.84399 0.23448 0.9175 0.0
H158 H 0.87448 0.24341 0.0677 0.0
H159 H 0.8566 0.25492 0.86858 0.0
H160 H 0.89209 0.27528 0.15612 0.0
H161 H 0.8531 0.27044 0.20637 0.0
H162 H 0.89309 0.24858 0.70725 0.0
H163 H 0.85382 0.22075 0.07845 0.0
H164 H 0.83548 0.23236 0.87549 0.0
C165 C 0.71954 0.58338 0.15248 0.0
C166 C 0.71999 0.58276 0.24036 0.0
N167 N 0.72514 0.59561 0.27084 0.0
N168 N 0.72413 0.59653 0.12824 0.0
C169 C 0.72757 0.60371 0.20208 0.0
H170 H 0.71645 0.57479 0.10955 0.0
Co171 Co 0.72657 0.60368 0.018 0.0
C172 C 0.72147 0.62681 0.04432 0.0
O173 O 0.71318 0.62329 0.97812 0.0
N174 N 0.72923 0.61075 0.90802 0.0
C175 C 0.73688 0.62421 0.79343 0.0
C176 C 0.73718 0.62387 0.88129 0.0
C177 C 0.72447 0.60332 0.83581 0.0
N178 N 0.72886 0.61123 0.76503 0.0
O179 O 0.70717 0.59552 1.00417 0.0
H180 H 0.74307 0.6326 0.92283 0.0
H181 H 0.7184 0.59222 0.83492 0.0
O182 O 0.72746 0.62007 0.06343 0.0
C183 C 0.70111 0.5831 0.97844 0.0
O184 O 0.70838 0.57698 0.96694 0.0
N185 N 0.74539 0.61089 0.02841 0.0
C186 C 0.77313 0.61895 0.02337 0.0
C187 C 0.76862 0.62652 0.07122 0.0
C188 C 0.75459 0.62236 0.07237 0.0
C189 C 0.74959 0.60325 0.98379 0.0
C190 C 0.76345 0.60716 0.97969 0.0
H191 H 0.75122 0.62838 0.10817 0.0
H192 H 0.74208 0.59414 0.95016 0.0
H193 H 0.73195 0.61474 0.20604 0.0
H194 H 0.7172 0.57368 0.27861 0.0
H195 H 0.74225 0.6333 0.7538 0.0
H196 H 0.77586 0.63564 0.10607 0.0
H197 H 0.76656 0.60094 0.94336 0.0
C198 C 0.8577 0.59374 0.06012 0.0
C199 C 0.85547 0.59233 0.14706 0.0
N200 N 0.8672 0.60136 0.18716 0.0
N201 N 0.87078 0.60365 0.04457 0.0
C202 C 0.87637 0.60802 0.12341 0.0
H203 H 0.85014 0.58817 0.01101 0.0
Co204 Co 0.87783 0.61015 0.93384 0.0
C205 C 0.89667 0.63986 0.96595 0.0
O206 O 0.89194 0.64289 0.89731 0.0
N207 N 0.88512 0.61629 0.82115 0.0
C208 C 0.90095 0.62527 0.71788 0.0
C209 C 0.89869 0.62437 0.80445 0.0
C210 C 0.87947 0.61188 0.74216 0.0
N211 N 0.88887 0.61734 0.67801 0.0
O212 O 0.88911 0.60207 0.94163 0.0
H213 H 0.90669 0.62882 0.85232 0.0
H214 H 0.86892 0.60401 0.73155 0.0
O215 O 0.89231 0.62726 0.98506 0.0
C216 C 0.8823 0.58928 0.92448 0.0
O217 O 0.869 0.58354 0.91043 0.0
N218 N 0.86571 0.61718 0.92535 0.0
C219 C 0.84433 0.6232 0.92368 0.0
C220 C 0.85491 0.62925 0.98429 0.0
C221 C 0.86522 0.62575 0.98575 0.0
C222 C 0.85527 0.6109 0.86776 0.0
C223 C 0.84463 0.61392 0.86474 0.0
H224 H 0.87232 0.62934 0.03869 0.0
H225 H 0.85455 0.6027 0.8283 0.0
H226 H 0.88679 0.61631 0.13398 0.0
H227 H 0.84588 0.58526 0.17825 0.0
H228 H 0.91089 0.63107 0.68717 0.0
H229 H 0.85498 0.63621 0.0325 0.0
H230 H 0.83628 0.60836 0.81998 0.0
C231 C 0.41393 0.26736 0.09277 0.0
C232 C 0.41566 0.26674 0.17969 0.0
N233 N 0.40571 0.26789 0.22076 0.0
N234 N 0.40288 0.26882 0.07823 0.0
C235 C 0.39817 0.26923 0.15763 0.0
H236 H 0.42012 0.26644 0.04305 0.0
Co237 Co 0.39568 0.26851 0.96814 0.0
C238 C 0.36582 0.25761 0.00563 0.0
O239 O 0.36204 0.24944 0.93867 0.0
N240 N 0.38883 0.26867 0.85548 0.0
C241 C 0.37932 0.27483 0.75176 0.0
C242 C 0.38043 0.27378 0.83838 0.0
C243 C 0.39316 0.2673 0.7764 0.0
N244 N 0.38745 0.27091 0.71181 0.0
O245 O 0.40275 0.28774 0.97197 0.0
H246 H 0.376 0.27741 0.88587 0.0
H247 H 0.40114 0.26474 0.76616 0.0
O248 O 0.37861 0.26541 0.02171 0.0
C249 C 0.41433 0.2936 0.93402 0.0
O250 O 0.41992 0.28608 0.91391 0.0
N251 N 0.38975 0.24969 0.96166 0.0
C252 C 0.38709 0.2236 0.95797 0.0
C253 C 0.37885 0.22635 0.01272 0.0
C254 C 0.38056 0.23961 0.01505 0.0
C255 C 0.39793 0.24716 0.90929 0.0
C256 C 0.39661 0.23417 0.90516 0.0
H257 H 0.37512 0.24187 0.06338 0.0
H258 H 0.40619 0.25552 0.87466 0.0
H259 H 0.38911 0.26998 0.16932 0.0
H260 H 0.42362 0.26546 0.21016 0.0
H261 H 0.37328 0.27871 0.72131 0.0
H262 H 0.37175 0.21859 0.05683 0.0
H263 H 0.40336 0.23255 0.86315 0.0
C264 C 0.72145 0.13919 0.16294 0.0
C265 C 0.71984 0.13848 0.25038 0.0
N266 N 0.71695 0.12584 0.27648 0.0
N267 N 0.71967 0.12708 0.13418 0.0
C268 C 0.71665 0.11909 0.20435 0.0
H269 H 0.72445 0.14817 0.12338 0.0
Co270 Co 0.72292 0.12323 0.02398 0.0
C271 C 0.72614 0.09894 0.06522 0.0
O272 O 0.71694 0.09068 0.00958 0.0
N273 N 0.72611 0.11952 0.9143 0.0
C274 C 0.73455 0.11579 0.79558 0.0
C275 C 0.73554 0.11653 0.88342 0.0
C276 C 0.71964 0.12068 0.84504 0.0
N277 N 0.72456 0.11847 0.77175 0.0
O278 O 0.70457 0.10833 0.0157 0.0
H279 H 0.74299 0.11548 0.92181 0.0
H280 H 0.71167 0.12341 0.84855 0.0
O281 O 0.72907 0.11143 0.07127 0.0
C282 C 0.69567 0.11214 0.00864 0.0
O283 O 0.69961 0.12525 0.01743 0.0
N284 N 0.74062 0.13832 0.02832 0.0
C285 C 0.76597 0.16249 0.0235 0.0
C286 C 0.76382 0.15171 0.07861 0.0
C287 C 0.75099 0.13969 0.08052 0.0
C288 C 0.74246 0.14875 0.97544 0.0
C289 C 0.75507 0.1609 0.97156 0.0
H290 H 0.74939 0.13164 0.12477 0.0
H291 H 0.73402 0.14759 0.93596 0.0
H292 H 0.71472 0.10863 0.20278 0.0
H293 H 0.72158 0.14694 0.29176 0.0
H294 H 0.74111 0.11409 0.75252 0.0
H295 H 0.7719 0.15266 0.1209 0.0
H296 H 0.75631 0.16892 0.92765 0.0
C297 C 0.5858 0.87374 0.89737 0.0
C298 C 0.58635 0.87479 0.80927 0.0
N299 N 0.59872 0.87687 0.78347 0.0
N300 N 0.5978 0.87525 0.92635 0.0
C301 C 0.60537 0.87709 0.85556 0.0
H302 H 0.57715 0.87183 0.9373 0.0
Co303 Co 0.60361 0.87476 0.03679 0.0
C304 C 0.63014 0.903 0.03491 0.0
O305 O 0.63094 0.90687 0.11491 0.0
N306 N 0.60929 0.87406 0.14892 0.0
C307 C 0.61193 0.8652 0.26991 0.0
C308 C 0.61007 0.86341 0.1834 0.0
C309 C 0.61051 0.88209 0.21675 0.0
N310 N 0.61204 0.87688 0.29106 0.0
O311 O 0.59558 0.88521 0.07592 0.0
H312 H 0.6083 0.85427 0.14955 0.0
H313 H 0.60937 0.8911 0.21283 0.0
O314 O 0.62036 0.8914 0.01007 0.0
C315 C 0.58413 0.87867 0.11496 0.0
O316 O 0.57828 0.86522 0.12185 0.0
N317 N 0.61112 0.86407 0.99852 0.0
C318 C 0.61973 0.8452 0.96496 0.0
C319 C 0.62928 0.85872 0.98886 0.0
C320 C 0.62478 0.86808 0.00494 0.0
C321 C 0.6018 0.85115 0.9716 0.0
C322 C 0.60592 0.84156 0.95362 0.0
H323 H 0.63212 0.8782 0.02829 0.0
H324 H 0.59102 0.8481 0.96794 0.0
H325 H 0.61565 0.87854 0.85711 0.0
H326 H 0.57816 0.8737 0.76756 0.0
H327 H 0.61186 0.85779 0.31465 0.0
H328 H 0.64002 0.86185 0.99863 0.0
H329 H 0.59822 0.83115 0.93646 0.0
C330 C 0.13453 0.73042 0.91751 0.0
C331 C 0.13412 0.72874 0.83021 0.0
N332 N 0.12095 0.7233 0.80402 0.0
N333 N 0.1217 0.72619 0.94618 0.0
C334 C 0.11364 0.7216 0.87615 0.0
H335 H 0.14367 0.7351 0.95697 0.0
Co336 Co 0.11676 0.72819 0.05631 0.0
C337 C 0.08963 0.72618 0.01879 0.0
O338 O 0.08278 0.71708 0.07876 0.0
N339 N 0.11207 0.73018 0.16626 0.0
C340 C 0.10642 0.73693 0.28527 0.0
C341 C 0.10691 0.7379 0.19738 0.0
C342 C 0.11481 0.72483 0.23553 0.0
N343 N 0.11147 0.72876 0.30889 0.0
O344 O 0.10454 0.70887 0.0634 0.0
H345 H 0.10422 0.74424 0.15911 0.0
H346 H 0.11954 0.71846 0.2321 0.0
O347 O 0.10249 0.7309 0.00927 0.0
C348 C 0.11078 0.70208 0.07212 0.0
O349 O 0.12431 0.70877 0.07253 0.0
N350 N 0.12935 0.74698 0.05139 0.0
C351 C 0.15149 0.77369 0.04129 0.0
C352 C 0.13959 0.76977 0.99265 0.0
C353 C 0.12861 0.75624 0.99798 0.0
C354 C 0.14065 0.75077 0.10098 0.0
C355 C 0.15184 0.76409 0.0971 0.0
H356 H 0.11984 0.75315 0.95659 0.0
H357 H 0.14116 0.74321 0.14157 0.0
H358 H 0.10263 0.71747 0.87799 0.0
H359 H 0.14299 0.73212 0.78903 0.0
H360 H 0.10325 0.74237 0.32852 0.0
H361 H 0.13904 0.77688 0.94804 0.0
H362 H 0.16083 0.76677 0.13601 0.0
C363 C 0.2683 0.40735 0.9109 0.0
C364 C 0.26936 0.40848 0.82321 0.0
N365 N 0.27399 0.4002 0.79455 0.0
N366 N 0.27203 0.39821 0.93711 0.0
C367 C 0.27581 0.39435 0.86502 0.0
H368 H 0.26458 0.41249 0.95238 0.0
Co369 Co 0.2706 0.39106 0.04683 0.0
C370 C 0.25824 0.36078 0.01478 0.0
O371 O 0.25118 0.35751 0.0865 0.0
N372 N 0.26964 0.38414 0.15788 0.0
C373 C 0.27486 0.37535 0.27021 0.0
C374 C 0.27527 0.37647 0.18254 0.0
C375 C 0.26624 0.38784 0.23226 0.0
N376 N 0.26919 0.38257 0.3014 0.0
O377 O 0.2897 0.39701 0.04622 0.0
H378 H 0.27999 0.37246 0.13965 0.0
H379 H 0.26267 0.39512 0.23701 0.0
O380 O 0.26617 0.37343 0.9955 0.0
C381 C 0.29626 0.4098 0.06371 0.0
O382 O 0.28934 0.41633 0.07274 0.0
N383 N 0.25208 0.38652 0.04916 0.0
C384 C 0.22749 0.38697 0.03718 0.0
C385 C 0.2292 0.37709 0.99236 0.0
C386 C 0.24171 0.37719 0.99796 0.0
C387 C 0.25051 0.39616 0.09256 0.0
C388 C 0.23824 0.39638 0.08927 0.0
H389 H 0.24328 0.37051 0.95576 0.0
H390 H 0.25925 0.4045 0.12436 0.0
H391 H 0.27931 0.38695 0.86385 0.0
H392 H 0.26664 0.41468 0.78354 0.0
H393 H 0.27883 0.37001 0.30794 0.0
H394 H 0.22133 0.36996 0.94902 0.0
H395 H 0.23744 0.40429 0.12418 0.0
C396 C 0.78773 0.74936 0.12979 0.0
C397 C 0.78769 0.75113 0.04262 0.0
N398 N 0.7834 0.73891 1.00406 0.0
N399 N 0.78335 0.73603 0.14743 0.0
C400 C 0.78093 0.72994 0.06911 0.0
H401 H 0.79093 0.75742 0.17694 0.0
Co402 Co 0.78168 0.72838 0.25834 0.0
C403 C 0.75609 0.7019 0.23888 0.0
O404 O 0.7512 0.70374 0.31096 0.0
N405 N 0.78021 0.72068 0.37006 0.0
C406 C 0.77842 0.70612 0.47306 0.0
C407 C 0.77839 0.70805 0.38621 0.0
C408 C 0.78157 0.7263 0.44919 0.0
N409 N 0.78045 0.71762 0.51333 0.0
O410 O 0.7676 0.7325 0.2872 0.0
H411 H 0.77724 0.70067 0.33773 0.0
H412 H 0.78377 0.73671 0.45998 0.0
O413 O 0.76809 0.71077 0.21337 0.0
C414 C 0.77254 0.74391 0.3266 0.0
O415 O 0.78599 0.75155 0.33331 0.0
N416 N 0.79604 0.72523 0.23404 0.0
C417 C 0.81897 0.72195 0.23275 0.0
C418 C 0.80721 0.71298 0.18569 0.0
C419 C 0.7957 0.71474 0.18757 0.0
C420 C 0.80767 0.73448 0.27557 0.0
C421 C 0.81924 0.73297 0.27649 0.0
H422 H 0.78647 0.70746 0.15419 0.0
H423 H 0.8077 0.74273 0.31154 0.0
H424 H 0.77736 0.71912 0.05976 0.0
H425 H 0.79086 0.76079 0.0101 0.0
H426 H 0.77699 0.69685 0.50381 0.0
H427 H 0.80672 0.70437 0.15116 0.0
H428 H 0.82822 0.74016 0.31274 0.0
C429 C 0.2468 0.0633 0.21127 0.0
C430 C 0.24605 0.06286 0.12331 0.0
N431 N 0.2528 0.0565 0.09482 0.0
N432 N 0.25407 0.05735 0.2373 0.0
C433 C 0.25723 0.05301 0.16528 0.0
H434 H 0.24286 0.0682 0.25323 0.0
Co435 Co 0.26003 0.05685 0.34629 0.0
C436 C 0.28906 0.06322 0.32102 0.0
O437 O 0.29298 0.07079 0.39072 0.0
N438 N 0.26545 0.05578 0.45726 0.0
C439 C 0.27064 0.04719 0.57049 0.0
C440 C 0.27126 0.04831 0.48301 0.0
C441 C 0.26086 0.05853 0.53016 0.0
N442 N 0.26399 0.05355 0.59969 0.0
O443 O 0.25039 0.03742 0.34443 0.0
H444 H 0.27476 0.04307 0.44071 0.0
H445 H 0.25451 0.06321 0.53261 0.0
O446 O 0.2764 0.05718 0.2987 0.0
C447 C 0.23772 0.03201 0.36372 0.0
O448 O 0.23224 0.03995 0.36984 0.0
N449 N 0.26885 0.07622 0.34957 0.0
C450 C 0.27792 0.10439 0.35043 0.0
C451 C 0.28445 0.09911 0.29903 0.0
C452 C 0.27955 0.08495 0.29799 0.0
C453 C 0.26194 0.08114 0.39576 0.0
C454 C 0.26646 0.09517 0.39873 0.0
H455 H 0.28396 0.08108 0.2522 0.0
H456 H 0.25231 0.07408 0.426 0.0
H457 H 0.26294 0.0476 0.16434 0.0
H458 H 0.24159 0.06752 0.08349 0.0
H459 H 0.27389 0.0413 0.60895 0.0
H460 H 0.29302 0.10581 0.25821 0.0
H461 H 0.26056 0.09868 0.43505 0.0
C462 C 0.93251 0.19263 0.28249 0.0
C463 C 0.9338 0.1925 0.19494 0.0
N464 N 0.93598 0.20465 0.16409 0.0
N465 N 0.93366 0.20472 0.30619 0.0
C466 C 0.936 0.2119 0.23284 0.0
H467 H 0.93041 0.18428 0.32581 0.0
Co468 Co 0.93102 0.20947 0.41532 0.0
C469 C 0.91684 0.22549 0.38481 0.0
O470 O 0.9085 0.21923 0.44933 0.0
N471 N 0.92887 0.21445 0.52696 0.0
C472 C 0.93236 0.2277 0.64105 0.0
C473 C 0.93276 0.22737 0.55337 0.0
C474 C 0.92667 0.20727 0.60046 0.0
N475 N 0.9286 0.21503 0.67068 0.0
O476 O 0.94979 0.22331 0.42099 0.0
H477 H 0.9365 0.23624 0.51188 0.0
H478 H 0.92492 0.19692 0.60352 0.0
O479 O 0.92615 0.22254 0.36598 0.0
C480 C 0.95617 0.21779 0.45493 0.0
O481 O 0.94927 0.20447 0.46996 0.0
N482 N 0.91281 0.1948 0.41158 0.0
C483 C 0.88836 0.16961 0.4012 0.0
C484 C 0.89013 0.18092 0.35284 0.0
C485 C 0.90261 0.19337 0.35728 0.0
C486 C 0.91136 0.18373 0.45619 0.0
C487 C 0.89916 0.17117 0.45364 0.0
H488 H 0.90424 0.20147 0.31338 0.0
H489 H 0.92006 0.18435 0.48965 0.0
H490 H 0.93714 0.22204 0.22916 0.0
H491 H 0.93298 0.18405 0.15688 0.0
H492 H 0.9352 0.23673 0.67977 0.0
H493 H 0.88224 0.17994 0.30869 0.0
H494 H 0.89838 0.16263 0.49055 0.0
C495 C 0.0859 0.47394 0.51798 0.0
C496 C 0.08662 0.47342 0.60545 0.0
N497 N 0.07573 0.46157 0.63288 0.0
N498 N 0.07463 0.46248 0.49035 0.0
C499 C 0.06877 0.45505 0.56153 0.0
H500 H 0.09264 0.48254 0.47763 0.0
Co501 Co 0.06771 0.46001 0.38059 0.0
C502 C 0.04229 0.4331 0.39189 0.0
O503 O 0.04513 0.42874 0.32101 0.0
N504 N 0.06105 0.45796 0.27064 0.0
C505 C 0.04874 0.45543 0.15407 0.0
C506 C 0.04868 0.45554 0.24211 0.0
C507 C 0.06848 0.45952 0.19978 0.0
N508 N 0.06125 0.45796 0.12785 0.0
O509 O 0.07392 0.44734 0.35659 0.0
H510 H 0.04024 0.45411 0.28261 0.0
H511 H 0.07904 0.4618 0.20103 0.0
O512 O 0.05028 0.44522 0.41943 0.0
C513 C 0.08681 0.45306 0.34312 0.0
O514 O 0.09439 0.46646 0.35258 0.0
N515 N 0.06249 0.47302 0.40183 0.0
C516 C 0.05856 0.49535 0.42538 0.0
C517 C 0.04898 0.48236 0.45781 0.0
C518 C 0.05123 0.47127 0.44621 0.0
C519 C 0.0718 0.48553 0.36947 0.0
C520 C 0.07007 0.49686 0.38082 0.0
H521 H 0.04397 0.4614 0.47328 0.0
H522 H 0.08068 0.48666 0.33501 0.0
H523 H 0.05922 0.44537 0.56161 0.0
H524 H 0.09401 0.48163 0.64579 0.0
H525 H 0.04037 0.45397 0.1128 0.0
H526 H 0.04001 0.48089 0.49282 0.0
H527 H 0.0776 0.50671 0.35404 0.0
C528 C 0.5307 0.60253 0.42535 0.0
C529 C 0.52859 0.60244 0.51206 0.0
N530 N 0.54039 0.60552 0.55299 0.0
N531 N 0.54373 0.60552 0.41047 0.0
C532 C 0.54944 0.60742 0.48947 0.0
H533 H 0.52312 0.60035 0.37604 0.0
Co534 Co 0.55072 0.60608 0.30005 0.0
C535 C 0.57069 0.59624 0.32374 0.0
O536 O 0.56689 0.58954 0.25078 0.0
N537 N 0.5578 0.60716 0.18692 0.0
C538 C 0.57324 0.61445 0.08104 0.0
C539 C 0.57138 0.61431 0.16795 0.0
C540 C 0.55161 0.60357 0.10882 0.0
N541 N 0.5608 0.60774 0.04358 0.0
O542 O 0.5626 0.62531 0.30982 0.0
H543 H 0.57951 0.61948 0.21455 0.0
H544 H 0.54063 0.59832 0.09887 0.0
O545 O 0.56495 0.60297 0.3496 0.0
C546 C 0.55737 0.6321 0.27802 0.0
O547 O 0.54449 0.62532 0.25224 0.0
N548 N 0.53819 0.58716 0.28934 0.0
C549 C 0.51568 0.56049 0.28173 0.0
C550 C 0.52715 0.5634 0.33216 0.0
C551 C 0.53819 0.5769 0.33677 0.0
C552 C 0.52699 0.5845 0.2415 0.0
C553 C 0.51573 0.57123 0.2356 0.0
H554 H 0.54625 0.57911 0.38232 0.0
H555 H 0.52646 0.5929 0.21137 0.0
H556 H 0.56006 0.61035 0.50013 0.0
H557 H 0.51896 0.59999 0.54235 0.0
H558 H 0.58301 0.61962 0.04767 0.0
H559 H 0.52725 0.55549 0.37142 0.0
H560 H 0.50695 0.56948 0.19724 0.0
C561 C 0.39252 0.92948 0.40286 0.0
C562 C 0.39209 0.92724 0.48968 0.0
N563 N 0.39148 0.93752 0.53053 0.0
N564 N 0.39222 0.94116 0.38781 0.0
C565 C 0.39148 0.94576 0.46692 0.0
H566 H 0.39336 0.92317 0.35364 0.0
Co567 Co 0.39395 0.94884 0.27746 0.0
C568 C 0.40801 0.97893 0.31143 0.0
O569 O 0.41587 0.98127 0.24392 0.0
N570 N 0.39522 0.95625 0.16439 0.0
C571 C 0.39139 0.96724 0.05797 0.0
C572 C 0.39097 0.96529 0.14494 0.0
C573 C 0.39753 0.95237 0.08628 0.0
N574 N 0.39545 0.95906 0.02071 0.0
O575 O 0.375 0.94357 0.27751 0.0
H576 H 0.38716 0.96979 0.19095 0.0
H577 H 0.40017 0.94445 0.07649 0.0
O578 O 0.39894 0.96658 0.33054 0.0
C579 C 0.36913 0.93193 0.24009 0.0
O580 O 0.3766 0.92619 0.22254 0.0
N581 N 0.41216 0.95257 0.27448 0.0
C582 C 0.43576 0.95026 0.28182 0.0
C583 C 0.43466 0.96 0.3324 0.0
C584 C 0.42259 0.9608 0.32917 0.0
C585 C 0.41318 0.94312 0.22522 0.0
C586 C 0.42495 0.94198 0.22644 0.0
H587 H 0.42131 0.96725 0.37508 0.0
H588 H 0.40434 0.93559 0.19002 0.0
H589 H 0.3909 0.95494 0.47782 0.0
H590 H 0.39263 0.91885 0.52016 0.0
H591 H 0.38822 0.97365 0.02438 0.0
H592 H 0.44262 0.96624 0.37812 0.0
H593 H 0.42529 0.93417 0.18746 0.0
C594 C 0.51389 0.91498 0.45562 0.0
C595 C 0.5118 0.91314 0.54245 0.0
N596 N 0.52409 0.92 0.58237 0.0
N597 N 0.52743 0.92308 0.4397 0.0
C598 C 0.53341 0.92586 0.51818 0.0
H599 H 0.50598 0.91082 0.40701 0.0
Co600 Co 0.53488 0.92886 0.32914 0.0
C601 C 0.55704 0.95798 0.35443 0.0
O602 O 0.55446 0.96158 0.27969 0.0
N603 N 0.54242 0.93421 0.2162 0.0
C604 C 0.55806 0.94087 0.11166 0.0
C605 C 0.55593 0.9394 0.19851 0.0
C606 C 0.5365 0.9321 0.13739 0.0
N607 N 0.54583 0.93624 0.07287 0.0
O608 O 0.54514 0.91974 0.34095 0.0
H609 H 0.5638 0.94168 0.246 0.0
H610 H 0.52558 0.92732 0.12641 0.0
O611 O 0.55008 0.94546 0.37908 0.0
C612 C 0.53872 0.9068 0.32887 0.0
O613 O 0.52526 0.90034 0.32081 0.0
N614 N 0.52404 0.93723 0.31654 0.0
C615 C 0.50425 0.94531 0.30437 0.0
C616 C 0.51566 0.95237 0.35816 0.0
C617 C 0.52528 0.94796 0.36492 0.0
C618 C 0.51276 0.93002 0.2661 0.0
C619 C 0.50289 0.93402 0.25768 0.0
H620 H 0.53319 0.95272 0.41285 0.0
H621 H 0.51104 0.92064 0.23566 0.0
H622 H 0.5444 0.93188 0.52795 0.0
H623 H 0.5019 0.90741 0.57359 0.0
H624 H 0.56783 0.94455 0.07937 0.0
H625 H 0.51675 0.96074 0.3982 0.0
H626 H 0.49407 0.92808 0.21678 0.0
C627 C 0.07117 0.61524 0.42485 0.0
C628 C 0.0731 0.61672 0.51199 0.0
N629 N 0.06128 0.60774 0.55168 0.0
N630 N 0.05812 0.6054 0.40782 0.0
C631 C 0.05246 0.60081 0.48662 0.0
H632 H 0.07891 0.62105 0.37735 0.0
Co633 Co 0.0499 0.59966 0.29743 0.0
C634 C 0.02388 0.60014 0.33268 0.0
O635 O 0.02411 0.60666 0.26232 0.0
N636 N 0.04166 0.59372 0.18674 0.0
C637 C 0.02651 0.58238 0.08305 0.0
C638 C 0.02844 0.58424 0.1701 0.0
C639 C 0.04757 0.59731 0.10777 0.0
N640 N 0.03856 0.5906 0.04317 0.0
O641 O 0.05497 0.61812 0.26904 0.0
H642 H 0.02062 0.57886 0.21816 0.0
H643 H 0.05838 0.60444 0.09753 0.0
O644 O 0.03311 0.59695 0.34704 0.0
C645 C 0.0665 0.62458 0.23087 0.0
O646 O 0.07355 0.61824 0.21843 0.0
N647 N 0.04569 0.58184 0.32314 0.0
C648 C 0.04379 0.55675 0.36161 0.0
C649 C 0.0326 0.55879 0.37687 0.0
C650 C 0.03377 0.5715 0.35732 0.0
C651 C 0.0565 0.57994 0.30617 0.0
C652 C 0.05579 0.56747 0.32489 0.0
H653 H 0.02514 0.57297 0.37062 0.0
H654 H 0.0658 0.58827 0.27874 0.0
H655 H 0.04205 0.59252 0.49594 0.0
H656 H 0.08264 0.62388 0.54328 0.0
H657 H 0.01686 0.5755 0.05183 0.0
H658 H 0.02318 0.55075 0.40517 0.0
H659 H 0.06455 0.56623 0.31042 0.0
C660 C 0.39925 0.47185 0.42092 0.0
C661 C 0.39816 0.4716 0.50868 0.0
N662 N 0.39415 0.45871 0.53608 0.0
N663 N 0.39615 0.45924 0.39334 0.0
C664 C 0.39267 0.45142 0.4644 0.0
H665 H 0.4027 0.48081 0.38056 0.0
Co666 Co 0.39792 0.4537 0.28475 0.0
C667 C 0.40961 0.43484 0.32036 0.0
O668 O 0.41559 0.43633 0.24577 0.0
N669 N 0.39914 0.44793 0.17491 0.0
C670 C 0.39264 0.43417 0.06129 0.0
C671 C 0.3934 0.4347 0.14893 0.0
C672 C 0.4015 0.45518 0.10183 0.0
N673 N 0.39761 0.44708 0.03185 0.0
O674 O 0.37903 0.4399 0.28586 0.0
H675 H 0.38889 0.42587 0.19115 0.0
H676 H 0.405 0.46603 0.09976 0.0
O677 O 0.403 0.4411 0.33678 0.0
C678 C 0.37222 0.44477 0.24986 0.0
O679 O 0.37876 0.4579 0.2292 0.0
N680 N 0.41629 0.46814 0.28141 0.0
C681 C 0.44127 0.49296 0.28297 0.0
C682 C 0.44004 0.48122 0.32356 0.0
C683 C 0.42738 0.46893 0.323 0.0
C684 C 0.41735 0.47949 0.24228 0.0
C685 C 0.42974 0.49189 0.24095 0.0
H686 H 0.42651 0.46042 0.35984 0.0
H687 H 0.40828 0.47909 0.21538 0.0
H688 H 0.38947 0.44059 0.46339 0.0
H689 H 0.40088 0.48043 0.54899 0.0
H690 H 0.3877 0.42489 0.023 0.0
H691 H 0.44858 0.4817 0.35887 0.0
H692 H 0.43016 0.50066 0.20893 0.0
C693 C 0.2572 0.19136 0.23842 0.0
C694 C 0.25526 0.18951 0.15143 0.0
N695 N 0.26297 0.20174 0.11202 0.0
N696 N 0.2662 0.2047 0.2551 0.0
C697 C 0.26939 0.2108 0.17675 0.0
H698 H 0.25249 0.1834 0.28648 0.0
Co699 Co 0.27282 0.21211 0.36554 0.0
C700 C 0.30291 0.23225 0.32764 0.0
O701 O 0.3075 0.23178 0.40416 0.0
N702 N 0.27914 0.21967 0.47752 0.0
C703 C 0.28764 0.23537 0.58183 0.0
C704 C 0.28606 0.2333 0.49485 0.0
C705 C 0.27616 0.2137 0.55653 0.0
N706 N 0.28138 0.22303 0.62107 0.0
O707 O 0.26592 0.22436 0.35245 0.0
H708 H 0.28938 0.24132 0.4471 0.0
H709 H 0.26999 0.20278 0.56753 0.0
O710 O 0.29005 0.22534 0.31151 0.0
C711 C 0.25304 0.21854 0.36577 0.0
O712 O 0.24609 0.20515 0.37777 0.0
N713 N 0.27875 0.1993 0.38058 0.0
C714 C 0.28314 0.17711 0.40249 0.0
C715 C 0.29176 0.18813 0.34902 0.0
C716 C 0.28927 0.19905 0.33792 0.0
C717 C 0.27002 0.18843 0.43027 0.0
C718 C 0.27216 0.17736 0.44346 0.0
H719 H 0.29543 0.20684 0.29181 0.0
H720 H 0.26096 0.18809 0.45695 0.0
H721 H 0.27624 0.22172 0.16743 0.0
H722 H 0.24889 0.17976 0.11977 0.0
H723 H 0.29253 0.24525 0.61382 0.0
H724 H 0.30013 0.18814 0.3144 0.0
H725 H 0.26488 0.16877 0.48215 0.0
C726 C 0.80107 0.05982 0.23828 0.0
C727 C 0.80328 0.06089 0.15134 0.0
N728 N 0.79145 0.05801 0.11192 0.0
N729 N 0.78793 0.05636 0.25437 0.0
C730 C 0.78225 0.05519 0.17593 0.0
H731 H 0.80867 0.06173 0.28704 0.0
Co732 Co 0.78082 0.05509 0.36522 0.0
C733 C 0.76171 0.06578 0.3446 0.0
O734 O 0.76635 0.07258 0.41677 0.0
N735 N 0.77347 0.05325 0.47824 0.0
C736 C 0.75742 0.04493 0.58035 0.0
C737 C 0.75979 0.04642 0.49397 0.0
C738 C 0.77917 0.05532 0.55766 0.0
N739 N 0.76961 0.05044 0.62112 0.0
O740 O 0.76929 0.03585 0.35288 0.0
H741 H 0.75189 0.04222 0.44531 0.0
H742 H 0.79001 0.0595 0.56924 0.0
O743 O 0.76645 0.05821 0.31764 0.0
C744 C 0.77549 0.02918 0.36765 0.0
O745 O 0.78893 0.03601 0.37685 0.0
N746 N 0.79309 0.07405 0.37871 0.0
C747 C 0.81506 0.10098 0.38924 0.0
C748 C 0.8041 0.09769 0.33326 0.0
C749 C 0.79338 0.08407 0.32722 0.0
C750 C 0.8039 0.07705 0.43135 0.0
C751 C 0.81485 0.09047 0.43898 0.0
H752 H 0.78583 0.08156 0.27749 0.0
H753 H 0.80451 0.06885 0.46332 0.0
H754 H 0.77173 0.05276 0.16586 0.0
H755 H 0.81289 0.06361 0.11959 0.0
H756 H 0.74738 0.03986 0.61027 0.0
H757 H 0.80421 0.10539 0.29087 0.0
H758 H 0.82331 0.09251 0.48124 0.0
C759 C 0.93215 0.73815 0.27401 0.0
C760 C 0.93303 0.73896 0.18602 0.0
N761 N 0.93338 0.72782 0.1568 0.0
N762 N 0.93186 0.72652 0.29951 0.0
C763 C 0.93309 0.72073 0.22701 0.0
H764 H 0.93067 0.74496 0.31606 0.0
Co765 Co 0.92718 0.71864 0.40754 0.0
C766 C 0.90991 0.6891 0.36208 0.0
O767 O 0.90039 0.68774 0.41665 0.0
N768 N 0.92314 0.71113 0.51804 0.0
C769 C 0.92294 0.69963 0.63466 0.0
C770 C 0.92233 0.69938 0.54696 0.0
C771 C 0.92486 0.71856 0.58965 0.0
N772 N 0.92464 0.71178 0.66146 0.0
O773 O 0.9453 0.7217 0.42239 0.0
H774 H 0.92269 0.69165 0.5077 0.0
H775 H 0.92734 0.72919 0.58874 0.0
O776 O 0.92121 0.70052 0.35694 0.0
C777 C 0.9528 0.73347 0.45603 0.0
O778 O 0.94748 0.74147 0.46748 0.0
N779 N 0.90937 0.71654 0.39339 0.0
C780 C 0.8844 0.71611 0.3689 0.0
C781 C 0.889 0.70993 0.30954 0.0
C782 C 0.90165 0.71061 0.3217 0.0
C783 C 0.90535 0.72315 0.44957 0.0
C784 C 0.89288 0.72294 0.43914 0.0
H785 H 0.90529 0.70653 0.27224 0.0
H786 H 0.91202 0.72917 0.50085 0.0
H787 H 0.93288 0.71099 0.2249 0.0
H788 H 0.93228 0.74649 0.14656 0.0
H789 H 0.92331 0.69195 0.67485 0.0
H790 H 0.88297 0.70468 0.25358 0.0
H791 H 0.89018 0.7285 0.48445 0.0
C792 C 0.46416 0.07709 0.61219 0.0
C793 C 0.46486 0.07909 0.52504 0.0
N794 N 0.4607 0.06695 0.48544 0.0
N795 N 0.45947 0.06368 0.62938 0.0
C796 C 0.45779 0.05786 0.55055 0.0
H797 H 0.46692 0.08504 0.65949 0.0
Co798 Co 0.45583 0.05521 0.73998 0.0
C799 C 0.42815 0.03065 0.70113 0.0
O800 O 0.42201 0.03146 0.77065 0.0
N801 N 0.4524 0.04676 0.85052 0.0
C802 C 0.44719 0.03125 0.95412 0.0
C803 C 0.44753 0.03329 0.86704 0.0
C804 C 0.45514 0.05269 0.92948 0.0
N805 N 0.45202 0.04347 0.99409 0.0
O806 O 0.44374 0.06206 0.76645 0.0
H807 H 0.4446 0.02541 0.8188 0.0
H808 H 0.45975 0.06364 0.93959 0.0
O809 O 0.44088 0.03906 0.68853 0.0
C810 C 0.44994 0.07374 0.80331 0.0
O811 O 0.46329 0.07955 0.8158 0.0
N812 N 0.46828 0.04935 0.7174 0.0
C813 C 0.49026 0.04486 0.69175 0.0
C814 C 0.47707 0.03535 0.66153 0.0
C815 C 0.46613 0.03779 0.6751 0.0
C816 C 0.48091 0.05852 0.74843 0.0
C817 C 0.49203 0.05646 0.73675 0.0
H818 H 0.45608 0.03047 0.65061 0.0
H819 H 0.48231 0.06755 0.78226 0.0
H820 H 0.45448 0.04712 0.54116 0.0
H821 H 0.46828 0.08888 0.49369 0.0
H822 H 0.44363 0.02142 0.98523 0.0
H823 H 0.47529 0.02629 0.62632 0.0
H824 H 0.50194 0.06391 0.76301 0.0
C825 C 0.93451 0.39576 0.59069 0.0
C826 C 0.9335 0.39418 0.50332 0.0
N827 N 0.94317 0.39122 0.47652 0.0
N828 N 0.94482 0.3939 0.61866 0.0
C829 C 0.94968 0.39085 0.54821 0.0
H830 H 0.92864 0.39882 0.63074 0.0
Co831 Co 0.95183 0.3972 0.72849 0.0
C832 C 0.97807 0.39756 0.70451 0.0
O833 O 0.97539 0.38904 0.76884 0.0
N834 N 0.95857 0.40053 0.83896 0.0
C835 C 0.97076 0.40948 0.95711 0.0
C836 C 0.97099 0.41011 0.86916 0.0
C837 C 0.95094 0.39444 0.90892 0.0
N838 N 0.95809 0.39964 0.98166 0.0
O839 O 0.9466 0.37828 0.74051 0.0
H840 H 0.97948 0.41738 0.83 0.0
H841 H 0.94021 0.38655 0.90662 0.0
O842 O 0.96962 0.40156 0.68435 0.0
C843 C 0.93385 0.37097 0.75777 0.0
O844 O 0.92635 0.37699 0.75878 0.0
N845 N 0.95604 0.41542 0.71916 0.0
C846 C 0.95854 0.44138 0.71267 0.0
C847 C 0.96701 0.43833 0.66184 0.0
C848 C 0.96552 0.42517 0.66556 0.0
C849 C 0.9478 0.41823 0.76897 0.0
C850 C 0.94895 0.43116 0.76731 0.0
H851 H 0.97174 0.42276 0.62408 0.0
H852 H 0.94018 0.41028 0.80974 0.0
H853 H 0.95814 0.38883 0.54925 0.0
H854 H 0.92679 0.39601 0.46248 0.0
H855 H 0.97905 0.41616 0.99964 0.0
H856 H 0.97441 0.44589 0.61803 0.0
H857 H 0.94234 0.4331 0.80844 0.0
C858 C 0.61619 0.54147 0.57799 0.0
C859 C 0.61574 0.54085 0.48991 0.0
N860 N 0.60597 0.54365 0.46312 0.0
N861 N 0.60681 0.54473 0.60642 0.0
C862 C 0.60074 0.54586 0.53489 0.0
H863 H 0.62296 0.53961 0.61776 0.0
Co864 Co 0.60171 0.54684 0.71647 0.0
C865 C 0.60302 0.57387 0.6947 0.0
O866 O 0.60959 0.57906 0.76681 0.0
N867 N 0.59632 0.54864 0.82554 0.0
C868 C 0.58543 0.55075 0.93808 0.0
C869 C 0.58699 0.55218 0.8507 0.0
C870 C 0.60006 0.54489 0.89797 0.0
N871 N 0.59368 0.54612 0.96759 0.0
O872 O 0.6204 0.55968 0.74418 0.0
H873 H 0.58141 0.55529 0.8083 0.0
H874 H 0.60728 0.54121 0.89967 0.0
O875 O 0.59932 0.56156 0.67339 0.0
C876 C 0.62678 0.55382 0.77344 0.0
O877 O 0.62031 0.54029 0.77566 0.0
N878 N 0.58368 0.53364 0.6927 0.0
C879 C 0.55774 0.51079 0.66848 0.0
C880 C 0.56 0.52411 0.65289 0.0
C881 C 0.57313 0.53549 0.66574 0.0
C882 C 0.58165 0.52086 0.70879 0.0
C883 C 0.56877 0.5093 0.69746 0.0
H884 H 0.57474 0.54568 0.65397 0.0
H885 H 0.59014 0.51971 0.7314 0.0
H886 H 0.59239 0.54805 0.53571 0.0
H887 H 0.62225 0.53873 0.44909 0.0
H888 H 0.5785 0.55265 0.97626 0.0
H889 H 0.55177 0.5257 0.63045 0.0
H890 H 0.56744 0.49928 0.71267 0.0
C891 C 0.74201 0.79191 0.7986 0.0
C892 C 0.74241 0.79284 0.88644 0.0
N893 N 0.73011 0.79064 0.914 0.0
N894 N 0.72942 0.78898 0.77068 0.0
C895 C 0.72256 0.78853 0.84275 0.0
H896 H 0.75044 0.79319 0.75897 0.0
Co897 Co 0.72177 0.78563 0.66031 0.0
C898 C 0.69585 0.75891 0.6952 0.0
O899 O 0.69642 0.75251 0.6263 0.0
N900 N 0.71409 0.78245 0.55125 0.0
C901 C 0.7004 0.77786 0.4383 0.0
C902 C 0.70113 0.7786 0.52634 0.0
C903 C 0.72104 0.78416 0.4777 0.0
N904 N 0.71297 0.78128 0.40823 0.0
O905 O 0.72768 0.77263 0.63866 0.0
H906 H 0.69272 0.77647 0.56916 0.0
H907 H 0.73194 0.78779 0.47451 0.0
O908 O 0.7049 0.77141 0.70899 0.0
C909 C 0.74 0.77853 0.61106 0.0
O910 O 0.74687 0.79202 0.60412 0.0
N911 N 0.71691 0.79901 0.67781 0.0
C912 C 0.71392 0.82205 0.69667 0.0
C913 C 0.70288 0.80883 0.7146 0.0
C914 C 0.70457 0.79736 0.70463 0.0
C915 C 0.72763 0.8117 0.65923 0.0
C916 C 0.72638 0.82335 0.66809 0.0
H917 H 0.69602 0.78725 0.71883 0.0
H918 H 0.73725 0.81271 0.63724 0.0
H919 H 0.71202 0.78635 0.84311 0.0
H920 H 0.7511 0.79495 0.92671 0.0
H921 H 0.69134 0.7749 0.39964 0.0
H922 H 0.6931 0.80738 0.73695 0.0
H923 H 0.73507 0.8333 0.65153 0.0
C924 C 0.18122 0.92849 0.76019 0.0
C925 C 0.1814 0.92973 0.84787 0.0
N926 N 0.19463 0.93629 0.87423 0.0
N927 N 0.19427 0.93408 0.73173 0.0
C928 C 0.20216 0.93907 0.8021 0.0
H929 H 0.17214 0.92332 0.7205 0.0
Co930 Co 0.20068 0.93391 0.623 0.0
C931 C 0.22235 0.92575 0.65678 0.0
O932 O 0.22144 0.92021 0.58134 0.0
N933 N 0.2073 0.93433 0.51288 0.0
C934 C 0.22121 0.94286 0.40031 0.0
C935 C 0.2206 0.94162 0.48784 0.0
C936 C 0.20007 0.93156 0.43947 0.0
N937 N 0.20824 0.93663 0.37012 0.0
O938 O 0.21236 0.95323 0.62723 0.0
H939 H 0.22927 0.94675 0.53082 0.0
H940 H 0.18904 0.92684 0.43685 0.0
O941 O 0.21494 0.93112 0.6745 0.0
C942 C 0.20639 0.95924 0.5944 0.0
O943 O 0.19322 0.9518 0.57608 0.0
N944 N 0.18832 0.91486 0.61607 0.0
C945 C 0.16744 0.88761 0.5966 0.0
C946 C 0.17914 0.89081 0.64549 0.0
C947 C 0.18942 0.90456 0.65543 0.0
C948 C 0.17659 0.91192 0.57322 0.0
C949 C 0.16615 0.89837 0.56114 0.0
H950 H 0.1979 0.90674 0.69703 0.0
H951 H 0.17519 0.92021 0.54991 0.0
H952 H 0.21328 0.94433 0.80027 0.0
H953 H 0.17244 0.92543 0.88896 0.0
H954 H 0.23044 0.94885 0.36279 0.0
H955 H 0.1803 0.88279 0.67622 0.0
H956 H 0.15697 0.89638 0.5265 0.0
C957 C 0.06159 0.25555 0.79601 0.0
C958 C 0.06058 0.25413 0.88355 0.0
N959 N 0.05514 0.26166 0.91333 0.0
N960 N 0.05703 0.2641 0.77147 0.0
C961 C 0.05298 0.26748 0.84419 0.0
H962 H 0.0656 0.25083 0.75317 0.0
Co963 Co 0.05692 0.27016 0.66182 0.0
C964 C 0.06576 0.2997 0.68172 0.0
O965 O 0.07306 0.30251 0.61113 0.0
N966 N 0.05626 0.27584 0.54996 0.0
C967 C 0.04898 0.28255 0.43707 0.0
C968 C 0.04885 0.28172 0.52471 0.0
C969 C 0.06038 0.27279 0.47609 0.0
N970 N 0.05623 0.27688 0.40666 0.0
O971 O 0.03756 0.26203 0.66604 0.0
H972 H 0.04324 0.28477 0.56731 0.0
H973 H 0.06543 0.26679 0.47205 0.0
O974 O 0.05894 0.28728 0.70814 0.0
C975 C 0.03132 0.2492 0.65054 0.0
O976 O 0.03854 0.24295 0.64323 0.0
N977 N 0.07608 0.2773 0.65654 0.0
C978 C 0.10346 0.28349 0.64868 0.0
C979 C 0.09974 0.29156 0.69813 0.0
C980 C 0.08591 0.28806 0.70305 0.0
C981 C 0.07947 0.26893 0.61259 0.0
C982 C 0.09308 0.27201 0.60591 0.0
H983 H 0.08318 0.29367 0.74726 0.0
H984 H 0.07144 0.25947 0.58511 0.0
H985 H 0.0489 0.27441 0.84685 0.0
H986 H 0.06365 0.24812 0.9223 0.0
H987 H 0.04381 0.28667 0.39891 0.0
H988 H 0.10736 0.30012 0.73546 0.0
H989 H 0.0954 0.26529 0.56848 0.0
C990 C 0.19701 0.26468 0.70201 0.0
C991 C 0.19691 0.26335 0.78961 0.0
N992 N 0.20955 0.27236 0.81938 0.0
N993 N 0.20959 0.27465 0.67683 0.0
C994 C 0.21709 0.27881 0.74944 0.0
H995 H 0.18828 0.25915 0.65992 0.0
Co996 Co 0.21466 0.2824 0.56795 0.0
C997 C 0.23174 0.31265 0.60431 0.0
O998 O 0.22707 0.31593 0.53643 0.0
N999 N 0.21992 0.28984 0.45685 0.0
C1000 C 0.2334 0.29929 0.34301 0.0
C1001 C 0.23296 0.29848 0.43079 0.0
C1002 C 0.21274 0.28522 0.38304 0.0
N1003 N 0.22064 0.29085 0.31291 0.0
O1004 O 0.22833 0.27716 0.56216 0.0
H1005 H 0.24182 0.30324 0.47261 0.0
H1006 H 0.20222 0.27696 0.37966 0.0
O1007 O 0.22768 0.30002 0.62063 0.0
C1008 C 0.22285 0.26541 0.52626 0.0
O1009 O 0.20965 0.25931 0.50783 0.0
N1010 N 0.20021 0.28631 0.57194 0.0
C1011 C 0.17484 0.28494 0.59266 0.0
C1012 C 0.18647 0.29481 0.63704 0.0
C1013 C 0.19903 0.29513 0.62722 0.0
C1014 C 0.18896 0.27672 0.52848 0.0
C1015 C 0.17628 0.27602 0.53658 0.0
H1016 H 0.20734 0.30171 0.66932 0.0
H1017 H 0.18949 0.26874 0.49322 0.0
H1018 H 0.22776 0.28684 0.75142 0.0
H1019 H 0.18812 0.25654 0.82848 0.0
H1020 H 0.24253 0.30519 0.30452 0.0
H1021 H 0.18563 0.30154 0.68331 0.0
H1022 H 0.16749 0.26806 0.50241 0.0
C1023 C 0.72866 0.92908 0.76177 0.0
C1024 C 0.72928 0.92898 0.84974 0.0
N1025 N 0.7201 0.93229 0.88073 0.0
N1026 N 0.71905 0.9323 0.73812 0.0
C1027 C 0.71436 0.93461 0.81176 0.0
H1028 H 0.73427 0.92621 0.71806 0.0
Co1029 Co 0.71215 0.9311 0.62942 0.0
C1030 C 0.68229 0.92175 0.65392 0.0
O1031 O 0.67912 0.91377 0.58626 0.0
N1032 N 0.70582 0.93038 0.51824 0.0
C1033 C 0.69899 0.9368 0.40201 0.0
C1034 C 0.69891 0.93663 0.48973 0.0
C1035 C 0.71048 0.92739 0.4465 0.0
N1036 N 0.7064 0.9311 0.37531 0.0
O1037 O 0.7198 0.95045 0.62545 0.0
H1038 H 0.69498 0.94173 0.53 0.0
H1039 H 0.71759 0.92357 0.44571 0.0
O1040 O 0.69488 0.92894 0.67705 0.0
C1041 C 0.7315 0.95601 0.58891 0.0
O1042 O 0.73691 0.94825 0.57127 0.0
N1043 N 0.70556 0.91203 0.63198 0.0
C1044 C 0.70164 0.88555 0.64725 0.0
C1045 C 0.6928 0.88906 0.68908 0.0
C1046 C 0.69519 0.90253 0.68265 0.0
C1047 C 0.71431 0.9087 0.59221 0.0
C1048 C 0.71247 0.8955 0.59816 0.0
H1049 H 0.68924 0.90538 0.72311 0.0
H1050 H 0.72343 0.91662 0.56097 0.0
H1051 H 0.70664 0.93762 0.81508 0.0
H1052 H 0.73536 0.92589 0.88765 0.0
H1053 H 0.69494 0.94176 0.3613 0.0
H1054 H 0.68471 0.88175 0.73062 0.0
H1055 H 0.71978 0.89324 0.56743 0.0
C1056 C 0.05921 0.79667 0.76931 0.0
C1057 C 0.05829 0.79692 0.85691 0.0
N1058 N 0.05354 0.78402 0.88605 0.0
N1059 N 0.05526 0.78371 0.74419 0.0
C1060 C 0.05168 0.77621 0.81658 0.0
H1061 H 0.06272 0.8054 0.72675 0.0
Co1062 Co 0.05522 0.7778 0.63423 0.0
C1063 C 0.06658 0.75916 0.64855 0.0
O1064 O 0.07312 0.76423 0.57602 0.0
N1065 N 0.05463 0.77166 0.52227 0.0
C1066 C 0.04787 0.75751 0.41036 0.0
C1067 C 0.04756 0.75832 0.49781 0.0
C1068 C 0.05874 0.77875 0.44814 0.0
N1069 N 0.0549 0.77041 0.37931 0.0
O1070 O 0.03589 0.76571 0.64065 0.0
H1071 H 0.04221 0.74969 0.54096 0.0
H1072 H 0.06365 0.78978 0.44337 0.0
O1073 O 0.05876 0.76344 0.67839 0.0
C1074 C 0.02952 0.77232 0.62923 0.0
O1075 O 0.03671 0.78578 0.62097 0.0
N1076 N 0.0742 0.79076 0.62779 0.0
C1077 C 0.10082 0.81349 0.63021 0.0
C1078 C 0.09757 0.8017 0.67834 0.0
C1079 C 0.08412 0.7906 0.67813 0.0
C1080 C 0.07709 0.80241 0.58407 0.0
C1081 C 0.09035 0.81376 0.58277 0.0
H1082 H 0.08164 0.78236 0.72274 0.0
H1083 H 0.06883 0.80327 0.55462 0.0
H1084 H 0.04814 0.76529 0.81868 0.0
H1085 H 0.06095 0.80586 0.89614 0.0
H1086 H 0.04304 0.74816 0.37274 0.0
H1087 H 0.10521 0.80122 0.71822 0.0
H1088 H 0.09217 0.82294 0.54876 0.0
C1089 C 0.92314 0.52603 0.61889 0.0
C1090 C 0.92093 0.52398 0.5322 0.0
N1091 N 0.93093 0.535 0.49056 0.0
N1092 N 0.93453 0.53826 0.63305 0.0
C1093 C 0.93899 0.54354 0.55365 0.0
H1094 H 0.91701 0.51888 0.66872 0.0
Co1095 Co 0.94187 0.54455 0.74316 0.0
C1096 C 0.9718 0.56274 0.71257 0.0
O1097 O 0.97468 0.55769 0.78034 0.0
N1098 N 0.94882 0.55096 0.85639 0.0
C1099 C 0.95867 0.56602 0.96315 0.0
C1100 C 0.95677 0.56445 0.87623 0.0
C1101 C 0.94549 0.54463 0.93425 0.0
N1102 N 0.95153 0.55356 1.00002 0.0
O1103 O 0.93559 0.55737 0.74082 0.0
H1104 H 0.96053 0.57279 0.83048 0.0
H1105 H 0.93842 0.5338 0.94367 0.0
O1106 O 0.95926 0.55828 0.69168 0.0
C1107 C 0.92404 0.55267 0.7782 0.0
O1108 O 0.91781 0.53985 0.80519 0.0
N1109 N 0.94712 0.53108 0.74617 0.0
C1110 C 0.94869 0.50704 0.7375 0.0
C1111 C 0.95726 0.51845 0.68657 0.0
C1112 C 0.95611 0.53029 0.69046 0.0
C1113 C 0.93861 0.52 0.79506 0.0
C1114 C 0.9394 0.508 0.79311 0.0
H1115 H 0.96177 0.53833 0.64437 0.0
H1116 H 0.93047 0.5201 0.83132 0.0
H1117 H 0.94795 0.55344 0.54226 0.0
H1118 H 0.91274 0.51483 0.50248 0.0
H1119 H 0.96429 0.5757 0.99701 0.0
H1120 H 0.96418 0.51792 0.64032 0.0
H1121 H 0.93241 0.49936 0.83252 0.0
C1122 C 0.47693 0.39345 0.52879 0.0
C1123 C 0.47716 0.39301 0.44088 0.0
N1124 N 0.46425 0.38839 0.41227 0.0
N1125 N 0.46396 0.38926 0.55478 0.0
C1126 C 0.45645 0.38588 0.4827 0.0
H1127 H 0.48575 0.39721 0.57071 0.0
Co1128 Co 0.45808 0.3899 0.66395 0.0
C1129 C 0.43797 0.39972 0.63885 0.0
O1130 O 0.44239 0.40722 0.70866 0.0
N1131 N 0.45212 0.39 0.77469 0.0
C1132 C 0.43836 0.38279 0.88847 0.0
C1133 C 0.43885 0.38359 0.80091 0.0
C1134 C 0.45944 0.39252 0.84744 0.0
N1135 N 0.45134 0.38832 0.91729 0.0
O1136 O 0.44651 0.37054 0.66461 0.0
H1137 H 0.43001 0.3788 0.75893 0.0
H1138 H 0.47038 0.39644 0.84967 0.0
O1139 O 0.44323 0.39237 0.61641 0.0
C1140 C 0.45334 0.36462 0.68286 0.0
O1141 O 0.46683 0.37206 0.68682 0.0
N1142 N 0.47052 0.40897 0.66495 0.0
C1143 C 0.4932 0.43538 0.65217 0.0
C1144 C 0.48102 0.43199 0.60871 0.0
C1145 C 0.4699 0.41857 0.61381 0.0
C1146 C 0.48244 0.41217 0.70646 0.0
C1147 C 0.49385 0.42534 0.70182 0.0
H1148 H 0.46134 0.41581 0.57148 0.0
H1149 H 0.48352 0.40416 0.73742 0.0
H1150 H 0.44549 0.38193 0.48171 0.0
H1151 H 0.48623 0.39655 0.40125 0.0
H1152 H 0.42916 0.37759 0.92737 0.0
H1153 H 0.48045 0.43938 0.56671 0.0
H1154 H 0.50329 0.4275 0.7338 0.0
C1155 C 0.6072 0.07457 0.53559 0.0
C1156 C 0.60771 0.07688 0.44886 0.0
N1157 N 0.60968 0.06737 0.4084 0.0
N1158 N 0.60876 0.0636 0.55091 0.0
C1159 C 0.61041 0.05953 0.47212 0.0
H1160 H 0.60543 0.08032 0.58452 0.0
Co1161 Co 0.60741 0.05609 0.66121 0.0
C1162 C 0.59474 0.02607 0.63023 0.0
O1163 O 0.58731 0.02352 0.70001 0.0
N1164 N 0.60659 0.04896 0.77445 0.0
C1165 C 0.61179 0.03903 0.88089 0.0
C1166 C 0.61189 0.04078 0.79395 0.0
C1167 C 0.60398 0.05258 0.85254 0.0
N1168 N 0.60687 0.04649 0.91813 0.0
O1169 O 0.62651 0.06217 0.6615 0.0
H1170 H 0.6162 0.0368 0.74786 0.0
H1171 H 0.60057 0.05993 0.86214 0.0
O1172 O 0.60317 0.03853 0.60884 0.0
C1173 C 0.63183 0.07361 0.70088 0.0
O1174 O 0.62418 0.07932 0.71292 0.0
N1175 N 0.58885 0.05131 0.66383 0.0
C1176 C 0.56365 0.05051 0.65931 0.0
C1177 C 0.56588 0.04157 0.60815 0.0
C1178 C 0.57874 0.04239 0.60959 0.0
C1179 C 0.58681 0.06015 0.71297 0.0
C1180 C 0.57424 0.05982 0.7126 0.0
H1181 H 0.58073 0.03648 0.5632 0.0
H1182 H 0.5953 0.06818 0.74822 0.0
H1183 H 0.61222 0.05106 0.46163 0.0
H1184 H 0.60628 0.08472 0.41805 0.0
H1185 H 0.61573 0.03327 0.91447 0.0
H1186 H 0.55807 0.03462 0.56381 0.0
H1187 H 0.57299 0.06712 0.75146 0.0
H1188 H 0.12394 0.43344 0.16497 0.0
H1189 H 0.08499 0.40286 0.05894 0.0
H1190 H 0.07315 0.41228 0.14354 0.0
H1191 H 0.07417 0.42974 0.24566 0.0
H1192 H 0.11351 0.45991 0.34967 0.0
H1193 H 0.12489 0.44988 0.26884 0.0
C1194 C 0.11285 0.42884 0.15961 0.0
C1195 C 0.10537 0.41758 0.10488 0.0
C1196 C 0.10618 0.43412 0.20906 0.0
C1197 C 0.09099 0.41163 0.10007 0.0
C1198 C 0.08423 0.41697 0.14873 0.0
C1199 C 0.08519 0.43392 0.25162 0.0
C1200 C 0.09301 0.44553 0.30357 0.0
C1201 C 0.09174 0.42823 0.20355 0.0
C1202 C 0.10729 0.45099 0.30997 0.0
C1203 C 0.11382 0.44531 0.26351 0.0
H1204 H 0.54872 0.64901 0.2166 0.0
H1205 H 0.58538 0.64832 0.29257 0.0
H1206 H 0.5996 0.67227 0.2466 0.0
H1207 H 0.60156 0.69336 0.18313 0.0
H1208 H 0.56466 0.69386 0.11109 0.0
H1209 H 0.55059 0.66992 0.15596 0.0
C1210 C 0.55982 0.6541 0.22359 0.0
C1211 C 0.56598 0.6469 0.258 0.0
C1212 C 0.5679 0.66778 0.19668 0.0
C1213 C 0.58037 0.65366 0.26676 0.0
C1214 C 0.58852 0.66733 0.23995 0.0
C1215 C 0.59046 0.68814 0.1764 0.0
C1216 C 0.58414 0.69528 0.1432 0.0
C1217 C 0.58239 0.67445 0.20415 0.0
C1218 C 0.56974 0.68854 0.13629 0.0
C1219 C 0.56169 0.67488 0.16216 0.0
H1220 H 0.30859 0.91144 0.10635 0.0
H1221 H 0.31566 0.88026 0.99555 0.0
H1222 H 0.33892 0.8916 0.05379 0.0
H1223 H 0.35656 0.90932 0.14189 0.0
H1224 H 0.35017 0.94065 0.25734 0.0
H1225 H 0.32715 0.93016 0.19252 0.0
C1226 C 0.31538 0.90735 0.09368 0.0
C1227 C 0.31053 0.8951 0.0464 0.0
C1228 C 0.32866 0.91374 0.12955 0.0
C1229 C 0.31923 0.88969 0.03164 0.0
C1230 C 0.33248 0.89612 0.06528 0.0
C1231 C 0.35018 0.91391 0.15339 0.0
C1232 C 0.35502 0.92568 0.20512 0.0
C1233 C 0.33717 0.90795 0.11566 0.0
C1234 C 0.34662 0.93151 0.21838 0.0
C1235 C 0.33351 0.92556 0.18096 0.0
H1236 H 0.42254 0.06262 0.83953 0.0
H1237 H 0.46115 0.10097 0.83293 0.0
H1238 H 0.44982 0.11331 0.88355 0.0
H1239 H 0.42906 0.11343 0.92679 0.0
H1240 H 0.39023 0.07543 0.93698 0.0
H1241 H 0.40154 0.06268 0.88948 0.0
C1242 C 0.42841 0.07368 0.84888 0.0
C1243 C 0.44263 0.08089 0.83197 0.0
C1244 C 0.42183 0.08075 0.87941 0.0
C1245 C 0.45019 0.09518 0.84548 0.0
C1246 C 0.44373 0.10226 0.87452 0.0
C1247 C 0.42306 0.10234 0.91919 0.0
C1248 C 0.40884 0.09539 0.93505 0.0
C1249 C 0.42958 0.09517 0.89151 0.0
C1250 C 0.40123 0.08101 0.9256 0.0
C1251 C 0.40767 0.07374 0.89782 0.0
H1252 H 0.90807 0.35481 0.81558 0.0
H1253 H 0.94588 0.35473 0.76567 0.0
H1254 H 0.93534 0.33095 0.81817 0.0
H1255 H 0.91498 0.30998 0.87625 0.0
H1256 H 0.87753 0.31094 0.92385 0.0
H1257 H 0.88844 0.33469 0.87536 0.0
C1258 C 0.91406 0.34963 0.81578 0.0
C1259 C 0.9277 0.3565 0.78621 0.0
C1260 C 0.90801 0.33614 0.84641 0.0
C1261 C 0.9353 0.34963 0.78767 0.0
C1262 C 0.9293 0.33606 0.81796 0.0
C1263 C 0.90932 0.31549 0.8769 0.0
C1264 C 0.89547 0.30872 0.90345 0.0
C1265 C 0.91563 0.32919 0.84754 0.0
C1266 C 0.88818 0.3159 0.90328 0.0
C1267 C 0.89439 0.32947 0.87542 0.0
H1268 H 0.6861 0.59452 0.9207 0.0
H1269 H 0.68379 0.55566 0.97492 0.0
H1270 H 0.66055 0.5433 0.91674 0.0
H1271 H 0.64144 0.54344 0.84534 0.0
H1272 H 0.6433 0.58194 0.78611 0.0
H1273 H 0.66627 0.59458 0.85086 0.0
C1274 C 0.68038 0.58335 0.92083 0.0
C1275 C 0.68658 0.57597 0.95212 0.0
C1276 C 0.66708 0.57627 0.88541 0.0
C1277 C 0.67921 0.56153 0.95095 0.0
C1278 C 0.66595 0.55446 0.91752 0.0
C1279 C 0.64683 0.55461 0.84635 0.0
C1280 C 0.64071 0.56174 0.81049 0.0
C1281 C 0.6599 0.56172 0.88344 0.0
C1282 C 0.64784 0.57621 0.81287 0.0
C1283 C 0.66093 0.58343 0.85012 0.0
H1284 H 0.90792 0.59803 0.86085 0.0
H1285 H 0.87152 0.56213 0.95506 0.0
H1286 H 0.88129 0.54765 0.91776 0.0
H1287 H 0.89961 0.54503 0.85341 0.0
H1288 H 0.93584 0.58054 0.75336 0.0
H1289 H 0.92662 0.59535 0.79673 0.0
C1290 C 0.90228 0.58708 0.87439 0.0
C1291 C 0.8891 0.58112 0.91116 0.0
C1292 C 0.9078 0.57874 0.85041 0.0
C1293 C 0.88171 0.5669 0.92694 0.0
C1294 C 0.88726 0.55862 0.90532 0.0
C1295 C 0.90551 0.55601 0.84087 0.0
C1296 C 0.91836 0.56166 0.79993 0.0
C1297 C 0.90019 0.5644 0.8659 0.0
C1298 C 0.92586 0.57591 0.78425 0.0
C1299 C 0.92064 0.58439 0.80946 0.0
H1300 H 0.42954 0.3513 0.77386 0.0
H1301 H 0.46248 0.34657 0.66812 0.0
H1302 H 0.45352 0.32437 0.73972 0.0
H1303 H 0.43703 0.30688 0.8359 0.0
H1304 H 0.40407 0.31128 0.94507 0.0
H1305 H 0.41254 0.33326 0.87009 0.0
C1306 C 0.43455 0.34524 0.76525 0.0
C1307 C 0.44654 0.35041 0.71515 0.0
C1308 C 0.42955 0.33265 0.8087 0.0
C1309 C 0.45317 0.34269 0.70598 0.0
C1310 C 0.44812 0.33007 0.74734 0.0
C1311 C 0.4317 0.31265 0.84393 0.0
C1312 C 0.41998 0.30749 0.89645 0.0
C1313 C 0.43647 0.32508 0.79988 0.0
C1314 C 0.4132 0.3151 0.9056 0.0
C1315 C 0.41796 0.3276 0.8622 0.0
H1316 H 0.68903 0.09321 0.8824 0.0
H1317 H 0.67204 0.1113 0.05169 0.0
H1318 H 0.65043 0.10026 0.97216 0.0
H1319 H 0.63746 0.08769 0.84742 0.0
H1320 H 0.654 0.06985 0.67285 0.0
H1321 H 0.67488 0.07869 0.76126 0.0
C1322 C 0.68042 0.09437 0.90299 0.0
C1323 C 0.68199 0.10295 0.97283 0.0
C1324 C 0.66819 0.0884 0.85487 0.0
C1325 C 0.67096 0.10468 0.99826 0.0
C1326 C 0.65868 0.09848 0.95245 0.0
C1327 C 0.64565 0.08577 0.82814 0.0
C1328 C 0.64441 0.07847 0.75256 0.0
C1329 C 0.65739 0.09074 0.87914 0.0
C1330 C 0.65488 0.07566 0.73016 0.0
C1331 C 0.66675 0.08066 0.78081 0.0
H1332 H 0.56489 0.91827 0.26925 0.0
H1333 H 0.52934 0.87927 0.33448 0.0
H1334 H 0.54056 0.86711 0.27663 0.0
H1335 H 0.5597 0.86754 0.19853 0.0
H1336 H 0.5948 0.9065 0.12693 0.0
H1337 H 0.58445 0.91872 0.19579 0.0
C1338 C 0.5597 0.90712 0.27222 0.0
C1339 C 0.54632 0.89966 0.3062 0.0
C1340 C 0.56602 0.9002 0.23642 0.0
C1341 C 0.53965 0.88522 0.30858 0.0
C1342 C 0.54603 0.87827 0.27517 0.0
C1343 C 0.56511 0.87871 0.19809 0.0
C1344 C 0.57794 0.88609 0.15693 0.0
C1345 C 0.55907 0.88565 0.23722 0.0
C1346 C 0.58484 0.90056 0.1574 0.0
C1347 C 0.57896 0.90756 0.19707 0.0
H1348 H 0.08497 0.68636 0.13834 0.0
H1349 H 0.11996 0.68437 0.04095 0.0
H1350 H 0.10897 0.66006 0.07832 0.0
H1351 H 0.09025 0.63986 0.14543 0.0
H1352 H 0.05536 0.64143 0.2487 0.0
H1353 H 0.06549 0.66545 0.20219 0.0
C1354 C 0.09006 0.68052 0.12436 0.0
C1355 C 0.10325 0.68712 0.08718 0.0
C1356 C 0.08379 0.66656 0.1478 0.0
C1357 C 0.10983 0.67951 0.07004 0.0
C1358 C 0.10357 0.66563 0.09143 0.0
C1359 C 0.0848 0.6454 0.15775 0.0
C1360 C 0.07213 0.6389 0.20105 0.0
C1361 C 0.0907 0.65913 0.13165 0.0
C1362 C 0.06518 0.64624 0.21584 0.0
C1363 C 0.07096 0.65996 0.18922 0.0
H1364 H 0.35727 0.45243 0.15407 0.0
H1365 H 0.35517 0.41701 0.27769 0.0
H1366 H 0.33169 0.4025 0.22333 0.0
H1367 H 0.31141 0.40025 0.14436 0.0
H1368 H 0.31407 0.43624 0.02545 0.0
H1369 H 0.33786 0.45014 0.07269 0.0
C1370 C 0.35171 0.44154 0.16954 0.0
C1371 C 0.35791 0.43584 0.22058 0.0
C1372 C 0.33838 0.43335 0.13785 0.0
C1373 C 0.35057 0.42167 0.23911 0.0
C1374 C 0.33718 0.41338 0.20768 0.0
C1375 C 0.31735 0.41107 0.12752 0.0
C1376 C 0.31111 0.41725 0.08121 0.0
C1377 C 0.33096 0.41912 0.15713 0.0
C1378 C 0.31873 0.43131 0.06097 0.0
C1379 C 0.33228 0.43927 0.08831 0.0
H1380 H 0.78021 0.76076 0.46219 0.0
H1381 H 0.74499 0.73499 0.30488 0.0
H1382 H 0.73096 0.74211 0.38769 0.0
H1383 H 0.72944 0.75724 0.49844 0.0
H1384 H 0.76529 0.78331 0.64998 0.0
H1385 H 0.77832 0.77422 0.57724 0.0
C1386 C 0.76946 0.7567 0.44569 0.0
C1387 C 0.76369 0.74761 0.37649 0.0
C1388 C 0.76156 0.76076 0.49343 0.0
C1389 C 0.74967 0.74215 0.35741 0.0
C1390 C 0.74167 0.74618 0.40482 0.0
C1391 C 0.73998 0.76058 0.51676 0.0
C1392 C 0.74645 0.77079 0.57967 0.0
C1393 C 0.74757 0.75565 0.47234 0.0
C1394 C 0.76017 0.77538 0.60197 0.0
C1395 C 0.76763 0.77027 0.56003 0.0
H1396 H 0.24816 0.01745 0.43989 0.0
H1397 H 0.21005 0.01509 0.36372 0.0
H1398 H 0.19699 0.99257 0.43225 0.0
H1399 H 0.19641 0.97389 0.51566 0.0
H1400 H 0.2344 0.97626 0.59539 0.0
H1401 H 0.24754 -0.00133 0.52517 0.0
C1402 C 0.237 0.01189 0.43717 0.0
C1403 C 0.23004 0.01779 0.39599 0.0
C1404 C 0.22957 -0.00087 0.47872 0.0
C1405 C 0.21559 0.01066 0.39458 0.0
C1406 C 0.20814 0.99785 0.43414 0.0
C1407 C 0.20757 0.97932 0.51831 0.0
C1408 C 0.21441 0.97343 0.56089 0.0
C1409 C 0.21502 0.99207 0.47712 0.0
C1410 C 0.22888 0.98062 0.56358 0.0
C1411 C 0.2364 0.99338 0.52284 0.0
H1412 H 0.01632 0.25987 0.58258 0.0
H1413 H 0.0137 0.22183 0.66391 0.0
H1414 H 0.99021 0.20885 0.60953 0.0
H1415 H 0.97097 0.20819 0.53417 0.0
H1416 H 0.97324 0.24588 0.44852 0.0
H1417 H 0.9965 0.25917 0.50835 0.0
C1418 C 0.01049 0.24876 0.58959 0.0
C1419 C 0.01665 0.24178 0.62754 0.0
C1420 C 0.9971 0.24133 0.55617 0.0
C1421 C 0.00913 0.22739 0.63499 0.0
C1422 C 0.99575 0.21997 0.60361 0.0
C1423 C 0.97652 0.21932 0.52825 0.0
C1424 C 0.97042 0.22604 0.48655 0.0
C1425 C 0.98974 0.22681 0.56296 0.0
C1426 C 0.97777 0.24046 0.47983 0.0
C1427 C 0.99102 0.24806 0.5144 0.0
H1428 H 0.21328 0.24116 0.44517 0.0
H1429 H 0.25065 0.27531 0.54489 0.0
H1430 H 0.2637 0.26436 0.49632 0.0
H1431 H 0.26416 0.24451 0.42999 0.0
H1432 H 0.22631 0.2103 0.33601 0.0
H1433 H 0.21378 0.22201 0.37652 0.0
C1434 C 0.22429 0.24626 0.45646 0.0
C1435 C 0.23097 0.25899 0.49912 0.0
C1436 C 0.23164 0.23995 0.42858 0.0
C1437 C 0.24525 0.26545 0.51272 0.0
C1438 C 0.25271 0.25922 0.48466 0.0
C1439 C 0.25322 0.23978 0.41706 0.0
C1440 C 0.24614 0.22661 0.37971 0.0
C1441 C 0.24599 0.24643 0.4428 0.0
C1442 C 0.23194 0.22044 0.36461 0.0
C1443 C 0.22477 0.22709 0.38807 0.0
H1444 H 0.7549 0.96909 0.49635 0.0
H1445 H 0.72219 0.97443 0.60011 0.0
H1446 H 0.73223 0.99716 0.5329 0.0
H1447 H 0.75066 0.0157 0.44711 0.0
H1448 H 0.78358 0.0103 0.34828 0.0
H1449 H 0.77286 0.98717 0.4094 0.0
C1450 C 0.74996 0.97522 0.50472 0.0
C1451 C 0.73787 0.97011 0.55371 0.0
C1452 C 0.7557 0.98816 0.46557 0.0
C1453 C 0.73158 0.97818 0.56332 0.0
C1454 C 0.73726 0.99113 0.52444 0.0
C1455 C 0.75531 0.00933 0.43757 0.0
C1456 C 0.7678 0.01458 0.39263 0.0
C1457 C 0.74931 0.99621 0.47529 0.0
C1458 C 0.77391 0.00639 0.38225 0.0
C1459 C 0.76785 0.99323 0.41764 0.0
H1460 H 0.96845 0.75564 0.55362 0.0
H1461 H 0.96853 0.7212 0.43117 0.0
H1462 H 0.99204 0.72938 0.48254 0.0
H1463 H 0.01312 0.74733 0.555 0.0
H1464 H 0.01261 0.78194 0.67163 0.0
H1465 H 0.98857 0.77254 0.63102 0.0
C1466 C 0.97357 0.74988 0.53795 0.0
C1467 C 0.96683 0.73793 0.48766 0.0
C1468 C 0.98697 0.75464 0.56732 0.0
C1469 C 0.97356 0.7305 0.46923 0.0
C1470 C 0.98698 0.73516 0.49872 0.0
C1471 C 0.00761 0.75261 0.57289 0.0
C1472 C 0.01454 0.76528 0.61624 0.0
C1473 C 0.99385 0.74732 0.54706 0.0
C1474 C 0.00744 0.77218 0.63808 0.0
C1475 C 0.99373 0.76685 0.61461 0.0
H1476 H 0.18202 0.40382 0.99538 0.0
H1477 H 0.15527 0.35984 0.00923 0.0
H1478 H 0.17532 0.35662 0.01758 0.0
H1479 H 0.20054 0.36658 0.0291 0.0
H1480 H 0.22691 0.41069 0.01326 0.0
H1481 H 0.20692 0.4136 0.99894 0.0
C1482 C 0.18059 0.39354 1.00044 0.0
C1483 C 0.16725 0.3821 1.00272 0.0
C1484 C 0.19209 0.3918 0.00571 0.0
C1485 C 0.16549 0.3688 0.00727 0.0
C1486 C 0.17694 0.36697 0.01249 0.0
C1487 C 0.20188 0.3768 0.02175 0.0
C1488 C 0.21517 0.3884 0.02403 0.0
C1489 C 0.1903 0.37843 0.01288 0.0
C1490 C 0.21677 0.4016 0.01419 0.0
C1491 C 0.20536 0.40329 0.0053 0.0
H1492 H 0.6234 0.79129 0.9348 0.0
H1493 H 0.6403 0.80405 0.18778 0.0
H1494 H 0.64043 0.82581 0.16945 0.0
H1495 H 0.63317 0.83981 0.0882 0.0
H1496 H 0.61448 0.82618 0.8401 0.0
H1497 H 0.61773 0.80616 0.84894 0.0
C1498 C 0.62742 0.799 0.98494 0.0
C1499 C 0.63188 0.79617 0.06239 0.0
C1500 C 0.62701 0.81123 0.97496 0.0
C1501 C 0.63682 0.80608 0.12773 0.0
C1502 C 0.63686 0.81846 0.1173 0.0
C1503 C 0.63014 0.83263 0.03521 0.0
C1504 C 0.62365 0.83442 0.96348 0.0
C1505 C 0.63162 0.82097 0.04216 0.0
C1506 C 0.61948 0.82493 0.89591 0.0
C1507 C 0.62131 0.81351 0.9011 0.0
H1508 H 0.19976 0.83552 0.01892 0.0
H1509 H 0.22324 0.8148 0.98902 0.0
H1510 H 0.2022 0.79254 0.99518 0.0
H1511 H 0.17733 0.77889 0.0141 0.0
H1512 H 0.15336 0.79904 0.04159 0.0
H1513 H 0.17436 0.82161 0.02958 0.0
C1514 C 0.20022 0.82612 0.0128 0.0
C1515 C 0.21307 0.82682 0.00512 0.0
C1516 C 0.18803 0.81327 0.01604 0.0
C1517 C 0.21352 0.81456 0.9972 0.0
C1518 C 0.20149 0.80181 1.00019 0.0
C1519 C 0.17672 0.78824 0.01781 0.0
C1520 C 0.16391 0.78737 0.02999 0.0
C1521 C 0.18874 0.80105 0.0109 0.0
C1522 C 0.16317 0.7995 0.03247 0.0
C1523 C 0.17515 0.81238 0.02588 0.0
H1524 H 0.36459 0.19772 0.95662 0.0
H1525 H 0.40899 0.21961 0.96735 0.0
H1526 H 0.40903 0.1979 0.96717 0.0
H1527 H 0.39663 0.17286 0.96294 0.0
H1528 H 0.35227 0.15048 0.95034 0.0
H1529 H 0.352 0.17221 0.95404 0.0
C1530 C 0.37424 0.19768 0.95942 0.0
C1531 C 0.38677 0.21024 0.96093 0.0
C1532 C 0.3742 0.18512 0.95908 0.0
C1533 C 0.39922 0.21008 0.96445 0.0
C1534 C 0.39926 0.19768 0.96479 0.0
C1535 C 0.38689 0.17272 0.95982 0.0
C1536 C 0.3745 0.16009 0.95518 0.0
C1537 C 0.38683 0.18517 0.96138 0.0
C1538 C 0.36196 0.16008 0.95394 0.0
C1539 C 0.3618 0.17249 0.95578 0.0
H1540 H 0.79148 0.16519 0.02174 0.0
H1541 H 0.77062 0.18877 0.01728 0.0
H1542 H 0.79263 0.21003 1.00272 0.0
H1543 H 0.81766 0.22188 0.9891 0.0
H1544 H 0.83882 0.19865 0.99491 0.0
H1545 H 0.81681 0.17725 0.01292 0.0
C1546 C 0.79178 0.175 0.01864 0.0
C1547 C 0.77944 0.17539 0.01988 0.0
C1548 C 0.80449 0.18721 0.01048 0.0
C1549 C 0.77997 0.18817 0.01498 0.0
C1550 C 0.79254 0.20033 0.00705 0.0
C1551 C 0.81744 0.21212 0.99357 0.0
C1552 C 0.82978 0.21178 0.98967 0.0
C1553 C 0.80483 0.19995 1.00387 0.0
C1554 C 0.82941 0.19912 0.99776 0.0
C1555 C 0.81685 0.18691 0.0078 0.0
H1556 H 0.78834 0.62282 0.88154 0.0
H1557 H 0.79055 0.6237 0.15685 0.0
H1558 H 0.81361 0.6264 0.15023 0.0
H1559 H 0.83164 0.6256 0.06623 0.0
H1560 H 0.82963 0.62521 0.7902 0.0
H1561 H 0.80781 0.62507 0.79705 0.0
C1562 C 0.794 0.62381 0.93991 0.0
C1563 C 0.78781 0.62293 0.01953 0.0
C1564 C 0.80712 0.62523 0.93547 0.0
C1565 C 0.79519 0.62438 0.09493 0.0
C1566 C 0.8083 0.62582 0.0911 0.0
C1567 C 0.82668 0.62588 0.00736 0.0
C1568 C 0.83222 0.62523 0.92774 0.0
C1569 C 0.81418 0.62587 0.01171 0.0
C1570 C 0.82546 0.6254 0.85235 0.0
C1571 C 0.81301 0.62538 0.85616 0.0
H1572 H 0.82925 0.71836 0.37935 0.0
H1573 H 0.83478 0.72015 0.10605 0.0
H1574 H 0.85551 0.71821 0.12366 0.0
H1575 H 0.8727 0.71749 0.21795 0.0
H1576 H 0.86614 0.71429 0.49145 0.0
H1577 H 0.84526 0.71559 0.4726 0.0
C1578 C 0.83499 0.71824 0.32377 0.0
C1579 C 0.83068 0.71952 0.24167 0.0
C1580 C 0.84675 0.71705 0.33451 0.0
C1581 C 0.83799 0.71917 0.16979 0.0
C1582 C 0.84984 0.71813 0.17996 0.0
C1583 C 0.8666 0.7168 0.2735 0.0
C1584 C 0.87116 0.71596 0.3562 0.0
C1585 C 0.85441 0.71725 0.26219 0.0
C1586 C 0.86313 0.71529 0.4272 0.0
C1587 C 0.85111 0.71591 0.41653 0.0
H1588 H 0.2877 0.16365 0.27375 0.0
H1589 H 0.28169 0.16275 0.54678 0.0
H1590 H 0.28095 0.14063 0.55581 0.0
H1591 H 0.27992 0.12068 0.48427 0.0
H1592 H 0.28493 0.12119 0.21036 0.0
H1593 H 0.28863 0.14455 0.20386 0.0
C1594 C 0.28655 0.15877 0.33547 0.0
C1595 C 0.28466 0.16476 0.40943 0.0
C1596 C 0.28594 0.14598 0.33996 0.0
C1597 C 0.28299 0.15823 0.48884 0.0
C1598 C 0.28259 0.14561 0.49404 0.0
C1599 C 0.28191 0.12595 0.42325 0.0
C1600 C 0.28204 0.11917 0.34792 0.0
C1601 C 0.28368 0.13923 0.4197 0.0
C1602 C 0.28488 0.12621 0.26943 0.0
C1603 C 0.28687 0.13952 0.26554 0.0
H1604 H 0.8616 0.16365 0.39998 0.0
H1605 H 0.88704 0.14488 0.38269 0.0
H1606 H 0.86662 0.1221 0.37766 0.0
H1607 H 0.84165 0.10748 0.38064 0.0
H1608 H 0.81581 0.12575 0.3964 0.0
H1609 H 0.83626 0.1488 0.39807 0.0
C1610 C 0.86263 0.15456 0.39434 0.0
C1611 C 0.8758 0.15593 0.39297 0.0
C1612 C 0.8508 0.14144 0.39132 0.0
C1613 C 0.87702 0.14408 0.38575 0.0
C1614 C 0.86535 0.13106 0.38244 0.0
C1615 C 0.8405 0.1165 0.38532 0.0
C1616 C 0.8273 0.11496 0.38967 0.0
C1617 C 0.85222 0.12961 0.38617 0.0
C1618 C 0.82592 0.12673 0.3932 0.0
C1619 C 0.83758 0.13988 0.39432 0.0
H1620 H 0.03595 0.49714 0.38537 0.0
H1621 H 0.07708 0.52049 0.48716 0.0
H1622 H 0.0755 0.54144 0.48462 0.0
H1623 H 0.06337 0.55342 0.44047 0.0
H1624 H 0.02272 0.53055 0.33113 0.0
H1625 H 0.02298 0.50903 0.35146 0.0
C1626 C 0.04442 0.50678 0.40855 0.0
C1627 C 0.05665 0.50737 0.43579 0.0
C1628 C 0.04355 0.51884 0.40499 0.0
C1629 C 0.06763 0.51989 0.46514 0.0
C1630 C 0.06674 0.53184 0.46363 0.0
C1631 C 0.05455 0.54371 0.42128 0.0
C1632 C 0.04314 0.54357 0.38313 0.0
C1633 C 0.05492 0.5315 0.43135 0.0
C1634 C 0.03163 0.53091 0.36063 0.0
C1635 C 0.03182 0.51862 0.37174 0.0
H1636 H 0.48942 0.5546 0.30359 0.0
H1637 H 0.51407 0.53541 0.26422 0.0
H1638 H 0.49322 0.51265 0.26317 0.0
H1639 H 0.46784 0.49835 0.26864 0.0
H1640 H 0.44363 0.518 0.31157 0.0
H1641 H 0.46445 0.54045 0.31456 0.0
C1642 C 0.49022 0.54543 0.29405 0.0
C1643 C 0.50321 0.54666 0.28281 0.0
C1644 C 0.47827 0.53248 0.29369 0.0
C1645 C 0.50415 0.53469 0.27287 0.0
C1646 C 0.49224 0.52171 0.27203 0.0
C1647 C 0.46715 0.50754 0.2794 0.0
C1648 C 0.45416 0.50649 0.28847 0.0
C1649 C 0.47922 0.52049 0.28187 0.0
C1650 C 0.45345 0.51852 0.30221 0.0
C1651 C 0.46536 0.53137 0.30457 0.0
H1652 H 0.46337 0.96882 0.28503 0.0
H1653 H 0.43385 0.92542 0.30424 0.0
H1654 H 0.45242 0.92017 0.31373 0.0
H1655 H 0.47687 0.9277 0.31343 0.0
H1656 H 0.50683 0.97092 0.29351 0.0
H1657 H 0.4883 0.97649 0.28886 0.0
C1658 C 0.46106 0.95825 0.29192 0.0
C1659 C 0.44729 0.94751 0.29262 0.0
C1660 C 0.47184 0.95527 0.29709 0.0
C1661 C 0.44439 0.93384 0.30175 0.0
C1662 C 0.45498 0.93082 0.30755 0.0
C1663 C 0.47936 0.93834 0.30713 0.0
C1664 C 0.49317 0.94886 0.30254 0.0
C1665 C 0.46872 0.94142 0.3042 0.0
C1666 C 0.49624 0.96263 0.29702 0.0
C1667 C 0.48566 0.96581 0.29414 0.0
H1668 H 0.51595 0.06439 0.64593 0.0
H1669 H 0.49149 0.02104 0.70292 0.0
H1670 H 0.51197 0.01865 0.69054 0.0
H1671 H 0.53727 0.02942 0.67527 0.0
H1672 H 0.5615 0.07306 0.6271 0.0
H1673 H 0.54069 0.07486 0.62549 0.0
C1674 C 0.51509 0.05442 0.65607 0.0
C1675 C 0.50227 0.04296 0.67657 0.0
C1676 C 0.5269 0.05321 0.65114 0.0
C1677 C 0.50125 0.03003 0.68691 0.0
C1678 C 0.51297 0.02867 0.68045 0.0
C1679 C 0.5379 0.03925 0.66359 0.0
C1680 C 0.55083 0.05112 0.65224 0.0
C1681 C 0.5259 0.04026 0.66427 0.0
C1682 C 0.55163 0.06384 0.63724 0.0
C1683 C 0.53976 0.06487 0.63607 0.0
H1684 H 0.97062 0.50283 0.72444 0.0
H1685 H 0.92618 0.48147 0.72589 0.0
H1686 H 0.92542 0.45945 0.71395 0.0
H1687 H 0.93722 0.44619 0.70705 0.0
H1688 H 0.9816 0.46705 0.70787 0.0
H1689 H 0.98256 0.48937 0.71208 0.0
C1690 C 0.96079 0.49335 0.72152 0.0
C1691 C 0.94848 0.49378 0.72748 0.0
C1692 C 0.96041 0.48066 0.7145 0.0
C1693 C 0.93581 0.48141 0.72358 0.0
C1694 C 0.93535 0.46881 0.71607 0.0
C1695 C 0.94712 0.45562 0.70862 0.0
C1696 C 0.95931 0.45497 0.7083 0.0
C1697 C 0.94757 0.46831 0.7125 0.0
C1698 C 0.97205 0.46728 0.70788 0.0
C1699 C 0.9726 0.48003 0.71089 0.0
H1700 H 0.49688 0.46075 0.68609 0.0
H1701 H 0.51741 0.43978 0.58825 0.0
H1702 H 0.53892 0.46167 0.57499 0.0
H1703 H 0.55216 0.48635 0.60065 0.0
H1704 H 0.53244 0.50741 0.71033 0.0
H1705 H 0.51023 0.48603 0.70696 0.0
C1706 C 0.50607 0.46109 0.66112 0.0
C1707 C 0.50572 0.44879 0.63882 0.0
C1708 C 0.51848 0.47368 0.65567 0.0
C1709 C 0.51759 0.44919 0.60662 0.0
C1710 C 0.52984 0.46167 0.59889 0.0
C1711 C 0.54301 0.48628 0.62411 0.0
C1712 C 0.54399 0.4984 0.6569 0.0
C1713 C 0.53046 0.47391 0.62495 0.0
C1714 C 0.53197 0.49823 0.68451 0.0
C1715 C 0.51929 0.48598 0.68332 0.0
H1716 H 0.72094 0.88123 0.71767 0.0
H1717 H 0.68018 0.85999 0.60964 0.0
H1718 H 0.67985 0.83796 0.62121 0.0
H1719 H 0.69217 0.82526 0.65096 0.0
H1720 H 0.73276 0.84686 0.76311 0.0
H1721 H 0.73218 0.86828 0.76106 0.0
C1722 C 0.71196 0.87172 0.69732 0.0
C1723 C 0.70068 0.87211 0.66184 0.0
C1724 C 0.71188 0.85924 0.70437 0.0
C1725 C 0.68898 0.85982 0.63681 0.0
C1726 C 0.68883 0.84729 0.64321 0.0
C1727 C 0.70076 0.8346 0.67648 0.0
C1728 C 0.7126 0.83451 0.70563 0.0
C1729 C 0.70035 0.84692 0.6754 0.0
C1730 C 0.72367 0.84671 0.73831 0.0
C1731 C 0.72333 0.85896 0.73753 0.0
H1732 H 0.15574 0.86807 0.72003 0.0
H1733 H 0.15378 0.87504 0.45031 0.0
H1734 H 0.13358 0.85212 0.4355 0.0
H1735 H 0.11561 0.83082 0.50111 0.0
H1736 H 0.11695 0.82434 0.77232 0.0
H1737 H 0.1385 0.84615 0.78412 0.0
C1738 C 0.15103 0.86445 0.65778 0.0
C1739 C 0.15616 0.87322 0.58645 0.0
C1740 C 0.13932 0.85136 0.65 0.0
C1741 C 0.14988 0.8685 0.5063 0.0
C1742 C 0.13837 0.85541 0.49777 0.0
C1743 C 0.12064 0.83417 0.56276 0.0
C1744 C 0.11464 0.82599 0.63566 0.0
C1745 C 0.13283 0.84688 0.56954 0.0
C1746 C 0.12141 0.83035 0.71488 0.0
C1747 C 0.13367 0.84289 0.7219 0.0
H1748 H 0.11241 0.26519 0.66026 0.0
H1749 H 0.12695 0.30855 0.6296 0.0
H1750 H 0.1506 0.31307 0.61409 0.0
H1751 H 0.16693 0.30434 0.60066 0.0
H1752 H 0.15174 0.26077 0.62771 0.0
H1753 H 0.12852 0.25665 0.65168 0.0
C1754 C 0.12073 0.27563 0.64952 0.0
C1755 C 0.11791 0.28649 0.64482 0.0
C1756 C 0.13417 0.27809 0.63929 0.0
C1757 C 0.12887 0.30001 0.63354 0.0
C1758 C 0.14237 0.30258 0.62418 0.0
C1759 C 0.15852 0.29399 0.61241 0.0
C1760 C 0.16098 0.28285 0.61107 0.0
C1761 C 0.14512 0.29166 0.62574 0.0
C1762 C 0.15003 0.26947 0.62656 0.0
C1763 C 0.13677 0.26711 0.64076 0.0
H1764 H 0.08448 0.32662 0.66401 0.0
H1765 H 0.05133 0.2983 0.82727 0.0
H1766 H 0.05633 0.317 0.92763 0.0
H1767 H 0.07135 0.34127 0.97352 0.0
H1768 H 0.10559 0.36832 0.81212 0.0
H1769 H 0.0988 0.35038 0.7067 0.0
C1770 C 0.0782 0.32452 0.72094 0.0
C1771 C 0.06759 0.31108 0.73816 0.0
C1772 C 0.08136 0.33516 0.77915 0.0
C1773 C 0.05963 0.30857 0.81263 0.0
C1774 C 0.06249 0.31925 0.87014 0.0
C1775 C 0.07721 0.34325 0.91486 0.0
C1776 C 0.0889 0.35625 0.90085 0.0
C1777 C 0.07353 0.33258 0.85486 0.0
C1778 C 0.09647 0.35856 0.82482 0.0
C1779 C 0.09265 0.34823 0.76419 0.0
H1780 H 0.6414 0.73319 0.9127 0.0
H1781 H 0.6708 0.75799 0.10656 0.0
H1782 H 0.68968 0.76309 0.00901 0.0
H1783 H 0.69773 0.76267 0.8651 0.0
H1784 H 0.66877 0.73958 0.66597 0.0
H1785 H 0.64977 0.73133 0.76947 0.0
C1786 C 0.65192 0.73961 0.93373 0.0
C1787 C 0.65464 0.74543 0.01625 0.0
C1788 C 0.66277 0.74287 0.8762 0.0
C1789 C 0.66838 0.75354 0.04306 0.0
C1790 C 0.6792 0.7565 0.98727 0.0
C1791 C 0.68726 0.7559 0.84419 0.0
C1792 C 0.68458 0.75203 0.75785 0.0
C1793 C 0.67649 0.75161 0.90303 0.0
C1794 C 0.67104 0.74275 0.7322 0.0
C1795 C 0.6602 0.73814 0.79118 0.0
H1796 H 0.23945 0.90646 0.98953 0.0
H1797 H 0.26791 0.90446 0.81245 0.0
H1798 H 0.26026 0.91403 0.69963 0.0
H1799 H 0.24398 0.92115 0.64748 0.0
H1800 H 0.21547 0.9229 0.825 0.0
H1801 H 0.22479 0.91558 0.94114 0.0
C1802 C 0.24412 0.90827 0.92662 0.0
C1803 C 0.25406 0.90444 0.9094 0.0
C1804 C 0.23964 0.91378 0.86172 0.0
C1805 C 0.26009 0.90705 0.82757 0.0
C1806 C 0.25571 0.91255 0.7627 0.0
C1807 C 0.23996 0.92009 0.71185 0.0
C1808 C 0.22917 0.92274 0.72772 0.0
C1809 C 0.24524 0.91563 0.77843 0.0
C1810 C 0.22403 0.92131 0.81143 0.0
C1811 C 0.22923 0.91693 0.87782 0.0
H1812 H 0.31686 0.07796 0.33856 0.0
H1813 H 0.28502 0.05078 0.16429 0.0
H1814 H 0.30208 0.05647 0.05152 0.0
H1815 H 0.3259 0.07108 0.99851 0.0
H1816 H 0.35744 0.09789 0.17558 0.0
H1817 H 0.34079 0.09019 0.29118 0.0
C1818 C 0.31364 0.0731 0.2764 0.0
C1819 C 0.29959 0.06434 0.25908 0.0
C1820 C 0.32352 0.07635 0.21209 0.0
C1821 C 0.29569 0.05793 0.17857 0.0
C1822 C 0.30547 0.06114 0.11403 0.0
C1823 C 0.32912 0.07505 0.06273 0.0
C1824 C 0.34294 0.08495 0.0784 0.0
C1825 C 0.31937 0.07068 0.12928 0.0
C1826 C 0.34699 0.09001 0.16196 0.0
C1827 C 0.3374 0.08574 0.22815 0.0
H1828 H 0.89357 0.25539 0.1584 0.0
H1829 H 0.92971 0.2657 0.00794 0.0
H1830 H 0.9367 0.2541 0.11325 0.0
H1831 H 0.93186 0.24026 0.24564 0.0
H1832 H 0.89559 0.23061 0.39386 0.0
H1833 H 0.88946 0.24302 0.2919 0.0
C1834 C 0.90303 0.25523 0.14828 0.0
C1835 C 0.91104 0.26136 0.07485 0.0
C1836 C 0.90697 0.2487 0.20894 0.0
C1837 C 0.92334 0.26107 0.06384 0.0
C1838 C 0.92732 0.25442 0.12399 0.0
C1839 C 0.92265 0.24091 0.25579 0.0
C1840 C 0.91411 0.23432 0.32691 0.0
C1841 C 0.91912 0.24809 0.19647 0.0
C1842 C 0.90233 0.23548 0.33968 0.0
C1843 C 0.89877 0.24256 0.28123 0.0
H1844 H 0.73078 0.65228 0.98002 0.0
H1845 H 0.72091 0.62943 0.21597 0.0
H1846 H 0.7295 0.65076 0.29812 0.0
H1847 H 0.74148 0.67609 0.3025 0.0
H1848 H 0.75372 0.69904 0.06659 0.0
H1849 H 0.74256 0.67762 0.98441 0.0
C1850 C 0.73031 0.65203 0.04937 0.0
C1851 C 0.72514 0.63943 0.09233 0.0
C1852 C 0.7358 0.66437 0.09594 0.0
C1853 C 0.72484 0.63911 0.18205 0.0
C1854 C 0.72976 0.65127 0.22886 0.0
C1855 C 0.74148 0.67634 0.23312 0.0
C1856 C 0.74831 0.68903 0.19034 0.0
C1857 C 0.7355 0.66399 0.18652 0.0
C1858 C 0.74854 0.68933 0.10056 0.0
C1859 C 0.74216 0.67711 0.05366 0.0
H1860 H 0.92361 0.67705 0.29202 0.0
H1861 H 0.88722 0.68061 0.26635 0.0
H1862 H 0.88128 0.66754 0.13351 0.0
H1863 H 0.8861 0.65483 0.02616 0.0
H1864 H 0.91958 0.64692 0.06328 0.0
H1865 H 0.92726 0.66215 0.18919 0.0
C1866 C 0.91432 0.67477 0.25749 0.0
C1867 C 0.90584 0.67973 0.28847 0.0
C1868 C 0.91061 0.66668 0.18285 0.0
C1869 C 0.89381 0.67677 0.24385 0.0
C1870 C 0.89047 0.6694 0.16763 0.0
C1871 C 0.89516 0.65655 0.06143 0.0
C1872 C 0.90246 0.65006 0.03517 0.0
C1873 C 0.89879 0.66434 0.13657 0.0
C1874 C 0.91398 0.65205 0.08213 0.0
C1875 C 0.91827 0.66063 0.15424 0.0
H1876 H 0.33805 0.24113 0.99607 0.0
H1877 H 0.36998 0.27181 0.15609 0.0
H1878 H 0.3533 0.2671 0.26958 0.0
H1879 H 0.3298 0.2528 0.32799 0.0
H1880 H 0.29797 0.22294 0.16373 0.0
H1881 H 0.31428 0.22908 0.04721 0.0
C1882 C 0.34137 0.24691 0.05534 0.0
C1883 C 0.35538 0.25641 0.0686 0.0
C1884 C 0.33166 0.24435 0.1198 0.0
C1885 C 0.35938 0.26403 0.14519 0.0
C1886 C 0.34981 0.26142 0.21011 0.0
C1887 C 0.32643 0.2478 0.26627 0.0
C1888 C 0.31264 0.23749 0.25474 0.0
C1889 C 0.33596 0.25133 0.199 0.0
C1890 C 0.30841 0.23113 0.17422 0.0
C1891 C 0.3178 0.23451 0.10752 0.0
H1892 H 0.75708 0.08709 0.35914 0.0
H1893 H 0.74752 0.05194 0.20062 0.0
H1894 H 0.7351 0.05871 0.1007 0.0
H1895 H 0.7278 0.07535 0.05573 0.0
H1896 H 0.73917 0.11114 0.21285 0.0
H1897 H 0.74997 0.10336 0.31561 0.0
C1898 C 0.75216 0.08078 0.30333 0.0
C1899 C 0.75317 0.069 0.28762 0.0
C1900 C 0.74542 0.08493 0.24534 0.0
C1901 C 0.74686 0.06107 0.21426 0.0
C1902 C 0.7398 0.06496 0.157 0.0
C1903 C 0.73262 0.08139 0.11258 0.0
C1904 C 0.73265 0.09382 0.12627 0.0
C1905 C 0.73915 0.07699 0.17134 0.0
C1906 C 0.73902 0.10159 0.20008 0.0
C1907 C 0.7452 0.09713 0.25932 0.0
H1908 H 0.68434 0.93137 0.8173 0.0
H1909 H 0.65489 0.90924 0.61772 0.0
H1910 H 0.63605 0.90365 0.71693 0.0
H1911 H 0.62807 0.90269 0.86319 0.0
H1912 H 0.65729 0.92194 0.06769 0.0
H1913 H 0.67614 0.93167 0.96328 0.0
C1914 C 0.67385 0.92537 0.79535 0.0
C1915 C 0.6711 0.92044 0.71066 0.0
C1916 C 0.66304 0.92169 0.8538 0.0
C1917 C 0.65735 0.91299 0.68283 0.0
C1918 C 0.64655 0.90976 0.73957 0.0
C1919 C 0.63856 0.90882 0.88519 0.0
C1920 C 0.64131 0.91112 0.97321 0.0
C1921 C 0.6493 0.91362 0.82576 0.0
C1922 C 0.65491 0.91985 1.00032 0.0
C1923 C 0.66569 0.92527 0.94074 0.0
H1924 H 0.05518 0.74597 0.80001 0.0
H1925 H 0.08849 0.75553 0.62374 0.0
H1926 H 0.09845 0.74641 0.72366 0.0
H1927 H 0.09866 0.73716 0.86321 0.0
H1928 H 0.06488 0.72554 0.03815 0.0
H1929 H 0.0542 0.7342 0.93691 0.0
C1930 C 0.06449 0.74585 0.78309 0.0
C1931 C 0.07112 0.75156 0.70467 0.0
C1932 C 0.07016 0.74038 0.84078 0.0
C1933 C 0.08314 0.75124 0.68343 0.0
C1934 C 0.08892 0.74607 0.74076 0.0
C1935 C 0.08885 0.7363 0.87904 0.0
C1936 C 0.08258 0.73072 0.95807 0.0
C1937 C 0.08265 0.74085 0.81995 0.0
C1938 C 0.06991 0.72978 0.97755 0.0
C1939 C 0.06381 0.73473 0.9197 0.0
H1940 H 0.23277 0.30884 0.77522 0.0
H1941 H 0.2476 0.34041 0.58118 0.0
H1942 H 0.25833 0.35814 0.69148 0.0
H1943 H 0.26173 0.36454 0.84284 0.0
H1944 H 0.24609 0.33297 0.03713 0.0
H1945 H 0.23753 0.3152 0.92627 0.0
C1946 C 0.23866 0.31954 0.75663 0.0
C1947 C 0.2395 0.32326 0.6699 0.0
C1948 C 0.24455 0.32964 0.82044 0.0
C1949 C 0.24681 0.33727 0.64746 0.0
C1950 C 0.25293 0.3474 0.71048 0.0
C1951 C 0.25679 0.35381 0.86124 0.0
C1952 C 0.25466 0.35011 0.94834 0.0
C1953 C 0.25164 0.3437 0.79724 0.0
C1954 C 0.24786 0.3361 0.97063 0.0
C1955 C 0.24295 0.32594 0.90727 0.0
H1956 H 0.03803 0.42293 0.55227 0.0
H1957 H 0.01712 0.42533 0.32746 0.0
H1958 H 0.99521 0.41458 0.40539 0.0
H1959 H 0.98249 0.40594 0.54013 0.0
H1960 H 0.00281 0.40151 0.76167 0.0
H1961 H 0.02466 0.41185 0.68312 0.0
C1962 C 0.0286 0.42089 0.52042 0.0
C1963 C 0.02902 0.42483 0.43475 0.0
C1964 C 0.01608 0.41453 0.56525 0.0
C1965 C 0.01687 0.42219 0.3933 0.0
C1966 C 0.00442 0.41616 0.43795 0.0
C1967 C 0.99164 0.40701 0.57063 0.0
C1968 C 0.99107 0.40296 0.65628 0.0
C1969 C 0.00396 0.41249 0.52426 0.0
C1970 C 0.00302 0.4045 0.69555 0.0
C1971 C 0.01548 0.41042 0.65075 0.0
H1972 H 0.60545 0.57558 0.52377 0.0
H1973 H 0.59207 0.58999 0.73853 0.0
H1974 H 0.582 0.5997 0.6404 0.0
H1975 H 0.57454 0.6013 0.4952 0.0
H1976 H 0.58802 0.58678 0.28087 0.0
H1977 H 0.60118 0.58062 0.37717 0.0
C1978 C 0.60046 0.581 0.54888 0.0
C1979 C 0.59925 0.58191 0.63774 0.0
C1980 C 0.59467 0.58643 0.49253 0.0
C1981 C 0.59306 0.58917 0.67015 0.0
C1982 C 0.58722 0.5946 0.61427 0.0
C1983 C 0.5804 0.59686 0.4694 0.0
C1984 C 0.58002 0.59421 0.38111 0.0
C1985 C 0.58756 0.59286 0.52549 0.0
C1986 C 0.58786 0.58863 0.34877 0.0
C1987 C 0.59529 0.58496 0.40388 0.0
H1988 H 0.39795 0.97743 0.47325 0.0
H1989 H 0.42471 0.00639 0.28303 0.0
H1990 H 0.43184 0.02515 0.38516 0.0
H1991 H 0.4319 0.033 0.53078 0.0
H1992 H 0.40721 0.00407 0.72612 0.0
H1993 H 0.3974 0.98557 0.61891 0.0
C1994 C 0.40532 0.9878 0.45394 0.0
C1995 C 0.41096 0.99039 0.37083 0.0
C1996 C 0.40973 -0.00148 0.51398 0.0
C1997 C 0.42031 0.00403 0.34671 0.0
C1998 C 0.42442 0.01478 0.40513 0.0
C1999 C 0.42459 0.02262 0.55031 0.0
C2000 C 0.42065 0.01981 0.63655 0.0
C2001 C 0.41949 0.01207 0.48941 0.0
C2002 C 0.41048 0.00646 0.66009 0.0
C2003 C 0.40498 0.99589 0.59901 0.0
H2004 H 0.5758 0.98474 0.32151 0.0
H2005 H 0.55753 0.95559 0.52815 0.0
H2006 H 0.56878 0.97401 0.63234 0.0
H2007 H 0.58167 -0.00128 0.66456 0.0
H2008 H 0.60001 0.0279 0.45832 0.0
H2009 H 0.59105 0.00924 0.35469 0.0
C2010 C 0.57445 0.9824 0.38935 0.0
C2011 C 0.56569 0.9688 0.41679 0.0
C2012 C 0.58089 0.9931 0.4492 0.0
C2013 C 0.56418 0.96592 0.50497 0.0
C2014 C 0.57056 0.97649 0.56483 0.0
C2015 C 0.58387 0.00098 0.59703 0.0
C2016 C 0.59136 0.01473 0.56927 0.0
C2017 C 0.57861 0.99016 0.53761 0.0
C2018 C 0.59428 0.01747 0.48167 0.0
C2019 C 0.58908 0.00677 0.42212 0.0
H2020 H 0.02594 0.59883 0.50291 0.0
H2021 H 0.99662 0.59162 0.30338 0.0
H2022 H 0.97773 0.58064 0.4074 0.0
H2023 H 0.9697 0.571 0.55139 0.0
H2024 H -0.00067 0.57622 0.74549 0.0
H2025 H 0.01808 0.59001 0.64683 0.0
C2026 C 0.01542 0.59471 0.48196 0.0
C2027 C 0.01262 0.59565 0.39546 0.0
C2028 C 0.00472 0.588 0.54098 0.0
C2029 C -0.001 0.59096 0.36976 0.0
C2030 C 0.98822 0.58459 0.42903 0.0
C2031 C 0.98022 0.57514 0.57229 0.0
C2032 C 0.98306 0.57233 0.65537 0.0
C2033 C 0.99097 0.5827 0.51426 0.0
C2034 C 0.99683 0.57806 0.68169 0.0
C2035 C 0.00757 0.58595 0.62532 0.0
H2036 H 0.41324 0.4126 0.31347 0.0
H2037 H 0.41363 0.44275 0.48629 0.0
H2038 H 0.42078 0.4334 0.60349 0.0
H2039 H 0.42906 0.41816 0.65342 0.0
H2040 H 0.42814 0.38745 0.48316 0.0
H2041 H 0.41904 0.39544 0.36875 0.0
C2042 C 0.41478 0.417 0.37706 0.0
C2043 C 0.41286 0.42829 0.39145 0.0
C2044 C 0.41893 0.41156 0.44438 0.0
C2045 C 0.41481 0.43389 0.47407 0.0
C2046 C 0.41901 0.42863 0.541 0.0
C2047 C 0.42668 0.41304 0.59179 0.0
C2048 C 0.42974 0.40252 0.57611 0.0
C2049 C 0.42136 0.41764 0.52651 0.0
C2050 C 0.42633 0.39587 0.4962 0.0
C2051 C 0.42107 0.40041 0.43071 0.0
H2052 H 0.12697 0.40722 0.35575 0.0
H2053 H 0.09859 0.36389 0.39317 0.0
H2054 H 0.09974 0.36721 0.54735 0.0
H2055 H 0.10959 0.38217 0.67397 0.0
H2056 H 0.13763 0.42556 0.63724 0.0
H2057 H 0.13568 0.42246 0.48247 0.0
C2058 C 0.1209 0.39852 0.39729 0.0
C2059 C 0.11286 0.38526 0.36141 0.0
C2060 C 0.12157 0.40049 0.48722 0.0
C2061 C 0.10514 0.37417 0.4177 0.0
C2062 C 0.10571 0.37606 0.50656 0.0
C2063 C 0.11513 0.391 0.63236 0.0
C2064 C 0.12386 0.40409 0.66846 0.0
C2065 C 0.11402 0.38914 0.54241 0.0
C2066 C 0.13101 0.41532 0.61228 0.0
C2067 C 0.12987 0.41356 0.52322 0.0
H2068 H 0.63296 0.73641 0.49564 0.0
H2069 H 0.59255 0.7262 0.40669 0.0
H2070 H 0.585 0.72559 0.55401 0.0
H2071 H 0.59002 0.72803 0.70882 0.0
H2072 H 0.63062 0.73848 0.79501 0.0
H2073 H 0.63789 0.7386 0.64834 0.0
C2074 C 0.62246 0.73389 0.50857 0.0
C2075 C 0.61336 0.73138 0.44055 0.0
C2076 C 0.6182 0.7335 0.59301 0.0
C2077 C 0.59983 0.72837 0.45799 0.0
C2078 C 0.59548 0.72793 0.5422 0.0
C2079 C 0.60043 0.73033 0.69509 0.0
C2080 C 0.60969 0.73301 0.76253 0.0
C2081 C 0.6046 0.73054 0.61024 0.0
C2082 C 0.62318 0.73598 0.74436 0.0
C2083 C 0.6274 0.73619 0.66045 0.0
H2084 H 0.2844 0.90102 0.39218 0.0
H2085 H 0.25098 0.8607 0.32609 0.0
H2086 H 0.24998 0.85301 0.4732 0.0
H2087 H 0.25837 0.8578 0.62096 0.0
H2088 H 0.29135 0.8982 0.68865 0.0
H2089 H 0.29263 0.90589 0.54072 0.0
C2090 C 0.27679 0.8906 0.41006 0.0
C2091 C 0.2678 0.88144 0.34787 0.0
C2092 C 0.27621 0.88626 0.49503 0.0
C2093 C 0.25814 0.86791 0.37222 0.0
C2094 C 0.25752 0.86351 0.45646 0.0
C2095 C 0.26597 0.86822 0.60306 0.0
C2096 C 0.27482 0.87739 0.66548 0.0
C2097 C 0.26654 0.87258 0.51827 0.0
C2098 C 0.28439 0.89097 0.64175 0.0
C2099 C 0.28513 0.89536 0.55724 0.0
H2100 H 0.37131 0.10064 0.31089 0.0
H2101 H 0.41246 0.13482 0.34605 0.0
H2102 H 0.40987 0.13207 0.50062 0.0
H2103 H 0.39601 0.11986 0.6279 0.0
H2104 H 0.3551 0.08537 0.59296 0.0
H2105 H 0.35753 0.08829 0.43786 0.0
C2106 C 0.37977 0.10742 0.35206 0.0
C2107 C 0.39204 0.118 0.31559 0.0
C2108 C 0.37825 0.10575 0.44192 0.0
C2109 C 0.4028 0.12672 0.37123 0.0
C2110 C 0.40136 0.12512 0.4602 0.0
C2111 C 0.38758 0.11308 0.58641 0.0
C2112 C 0.37538 0.1024 0.62267 0.0
C2113 C 0.38911 0.11472 0.49655 0.0
C2114 C 0.36466 0.09359 0.56725 0.0
C2115 C 0.36603 0.09527 0.47827 0.0
H2116 H 0.8732 0.27444 0.61726 0.0
H2117 H 0.90223 0.26028 0.58047 0.0
H2118 H 0.90095 0.26227 0.42618 0.0
H2119 H 0.89081 0.26701 0.2993 0.0
H2120 H 0.86214 0.28162 0.33572 0.0
H2121 H 0.86417 0.28057 0.49036 0.0
C2122 C 0.87938 0.27194 0.57577 0.0
C2123 C 0.88766 0.26702 0.61184 0.0
C2124 C 0.87862 0.27312 0.48582 0.0
C2125 C 0.89551 0.2638 0.55572 0.0
C2126 C 0.89485 0.26501 0.4668 0.0
C2127 C 0.88513 0.27013 0.34078 0.0
C2128 C 0.87618 0.27423 0.30455 0.0
C2129 C 0.88631 0.26948 0.43076 0.0
C2130 C 0.8689 0.27816 0.36065 0.0
C2131 C 0.8701 0.27762 0.4497 0.0
H2132 H 0.70971 0.58241 0.40739 0.0
H2133 H 0.74684 0.61895 0.32919 0.0
H2134 H 0.7513 0.62718 0.4768 0.0
H2135 H 0.74464 0.62391 0.62754 0.0
H2136 H 0.70691 0.58786 0.70554 0.0
H2137 H 0.70276 0.57939 0.55882 0.0
C2138 C 0.71882 0.5921 0.42322 0.0
C2139 C 0.72794 0.60007 0.35814 0.0
C2140 C 0.7212 0.59683 0.50792 0.0
C2141 C 0.73963 0.61272 0.37854 0.0
C2142 C 0.74219 0.6174 0.46276 0.0
C2143 C 0.73543 0.6143 0.61249 0.0
C2144 C 0.72616 0.60653 0.67775 0.0
C2145 C 0.733 0.60958 0.52786 0.0
C2146 C 0.71436 0.59395 0.65695 0.0
C2147 C 0.71193 0.58912 0.57292 0.0
H2148 H 0.86527 0.60851 0.58672 0.0
H2149 H 0.90802 0.61999 0.561 0.0
H2150 H 0.90524 0.61659 0.40732 0.0
H2151 H 0.89071 0.61019 0.27817 0.0
H2152 H 0.84785 0.5981 0.30334 0.0
H2153 H 0.8506 0.60169 0.45764 0.0
C2154 C 0.87395 0.61015 0.54778 0.0
C2155 C 0.88687 0.61466 0.5866 0.0
C2156 C 0.87228 0.60803 0.45838 0.0
C2157 C 0.898 0.61681 0.53396 0.0
C2158 C 0.89642 0.61478 0.44546 0.0
C2159 C 0.882 0.60843 0.31732 0.0
C2160 C 0.86908 0.60382 0.2786 0.0
C2161 C 0.88363 0.61045 0.40671 0.0
C2162 C 0.85787 0.60145 0.331 0.0
C2163 C 0.85945 0.60357 0.41954 0.0
H2164 H 0.39412 0.28006 0.31152 0.0
H2165 H 0.4118 0.25383 0.33791 0.0
H2166 H 0.40788 0.25246 0.49225 0.0
H2167 H 0.39911 0.25849 0.62094 0.0
H2168 H 0.38233 0.28559 0.59262 0.0
H2169 H 0.38599 0.28657 0.43976 0.0
C2170 C 0.39704 0.27397 0.35088 0.0
C2171 C 0.40327 0.26708 0.31243 0.0
C2172 C 0.39484 0.2733 0.44018 0.0
C2173 C 0.40714 0.2594 0.36526 0.0
C2174 C 0.40484 0.25854 0.45385 0.0
C2175 C 0.39634 0.2647 0.58176 0.0
C2176 C 0.39023 0.27177 0.62015 0.0
C2177 C 0.3987 0.26547 0.49234 0.0
C2178 C 0.38672 0.27971 0.56666 0.0
C2179 C 0.38891 0.28039 0.4783 0.0
H2180 H 0.71118 0.13556 0.41901 0.0
H2181 H 0.72256 0.1061 0.33093 0.0
H2182 H 0.72511 0.10063 0.47747 0.0
H2183 H 0.72581 0.1054 0.63104 0.0
H2184 H 0.71522 0.13537 0.71949 0.0
H2185 H 0.71063 0.13939 0.57302 0.0
C2186 C 0.71422 0.12795 0.43176 0.0
C2187 C 0.71686 0.12145 0.36338 0.0
C2188 C 0.71587 0.12495 0.51662 0.0
C2189 C 0.72043 0.11132 0.38153 0.0
C2190 C 0.72199 0.10822 0.46572 0.0
C2191 C 0.72251 0.11281 0.61813 0.0
C2192 C 0.72097 0.12013 0.68598 0.0
C2193 C 0.72003 0.11519 0.53366 0.0
C2194 C 0.71639 0.1295 0.66858 0.0
C2195 C 0.71385 0.13188 0.5847 0.0
H2196 H 0.62353 0.87366 0.43199 0.0
H2197 H 0.59675 0.88823 0.34197 0.0
H2198 H 0.59082 0.89044 0.48936 0.0
H2199 H 0.59151 0.88591 0.64341 0.0
H2200 H 0.61727 0.86978 0.7297 0.0
H2201 H 0.62533 0.87052 0.58481 0.0
C2202 C 0.61651 0.87745 0.44489 0.0
C2203 C 0.61052 0.88065 0.37648 0.0
C2204 C 0.61283 0.87826 0.52924 0.0
C2205 C 0.6016 0.8858 0.39363 0.0
C2206 C 0.59808 0.8869 0.47788 0.0
C2207 C 0.59885 0.88253 0.63032 0.0
C2208 C 0.6037 0.87775 0.69751 0.0
C2209 C 0.60331 0.88275 0.54607 0.0
C2210 C 0.61344 0.87365 0.67974 0.0
C2211 C 0.61802 0.87399 0.59662 0.0
H2212 H 0.09651 0.72607 0.44902 0.0
H2213 H 0.1326 0.7254 0.36099 0.0
H2214 H 0.1381 0.72233 0.50749 0.0
H2215 H 0.13346 0.72136 0.66122 0.0
H2216 H 0.0974 0.72229 0.74878 0.0
H2217 H 0.09102 0.72353 0.60239 0.0
C2218 C 0.10556 0.72524 0.46214 0.0
C2219 C 0.11417 0.72606 0.39452 0.0
C2220 C 0.10869 0.72353 0.54651 0.0
C2221 C 0.12575 0.7247 0.41191 0.0
C2222 C 0.12894 0.72302 0.49572 0.0
C2223 C 0.12421 0.72184 0.64853 0.0
C2224 C 0.11618 0.72209 0.71691 0.0
C2225 C 0.1206 0.72265 0.56366 0.0
C2226 C 0.10395 0.72224 0.69844 0.0
C2227 C 0.10027 0.723 0.61425 0.0
H2228 H 0.2582 0.39939 0.66285 0.0
H2229 H 0.29184 0.39295 0.7301 0.0
H2230 H 0.29304 0.38634 0.58265 0.0
H2231 H 0.28484 0.38293 0.43412 0.0
H2232 H 0.25082 0.38892 0.3682 0.0
H2233 H 0.24958 0.39537 0.51551 0.0
C2234 C 0.26591 0.39672 0.64496 0.0
C2235 C 0.27502 0.3968 0.70707 0.0
C2236 C 0.26647 0.39285 0.56038 0.0
C2237 C 0.28471 0.39295 0.68343 0.0
C2238 C 0.28541 0.38918 0.59917 0.0
C2239 C 0.27703 0.38546 0.45205 0.0
C2240 C 0.26799 0.38552 0.38977 0.0
C2241 C 0.27633 0.3891 0.53709 0.0
C2242 C 0.25805 0.38901 0.41434 0.0
C2243 C 0.2573 0.39265 0.49869 0.0
H2244 H 0.78649 0.71971 0.91631 0.0
H2245 H 0.77703 0.75228 0.88412 0.0
H2246 H 0.7754 0.74876 0.72951 0.0
H2247 H 0.77666 0.73643 0.60206 0.0
H2248 H 0.78681 0.70428 0.63469 0.0
H2249 H 0.78796 0.70753 0.78874 0.0
C2250 C 0.78395 0.72596 0.8756 0.0
C2251 C 0.78193 0.73629 0.91253 0.0
C2252 C 0.78313 0.72395 0.78597 0.0
C2253 C 0.77882 0.74438 0.858 0.0
C2254 C 0.77783 0.74234 0.76923 0.0
C2255 C 0.77924 0.73019 0.64251 0.0
C2256 C 0.78152 0.72002 0.60533 0.0
C2257 C 0.78004 0.7322 0.73219 0.0
C2258 C 0.78472 0.71201 0.6602 0.0
C2259 C 0.78547 0.71391 0.74898 0.0
H2260 H 0.23823 0.05446 0.95347 0.0
H2261 H 0.2758 0.05672 0.04092 0.0
H2262 H 0.28234 0.05549 0.89455 0.0
H2263 H 0.27779 0.05453 0.74107 0.0
H2264 H 0.24057 0.05279 0.6519 0.0
H2265 H 0.23363 0.05339 0.79908 0.0
C2266 C 0.24785 0.05472 0.94025 0.0
C2267 C 0.25641 0.0555 0.00806 0.0
C2268 C 0.25168 0.05425 0.85555 0.0
C2269 C 0.26883 0.05575 0.99019 0.0
C2270 C 0.27267 0.0552 0.90633 0.0
C2271 C 0.26812 0.05416 0.75412 0.0
C2272 C 0.25977 0.0537 0.6861 0.0
C2273 C 0.2642 0.05449 0.83858 0.0
C2274 C 0.24731 0.0534 0.70335 0.0
C2275 C 0.24328 0.05364 0.78743 0.0
H2276 H 0.94292 0.23148 0.80293 0.0
H2277 H 0.91393 0.18933 0.73659 0.0
H2278 H 0.91423 0.18222 0.88371 0.0
H2279 H 0.92241 0.18804 0.03191 0.0
H2280 H 0.95072 0.23027 0.09893 0.0
H2281 H 0.95084 0.23735 0.95087 0.0
C2282 C 0.93652 0.22077 0.8206 0.0
C2283 C 0.92842 0.21097 0.75843 0.0
C2284 C 0.93664 0.21677 0.90547 0.0
C2285 C 0.9204 0.19707 0.7827 0.0
C2286 C 0.92052 0.193 0.86695 0.0
C2287 C 0.92874 0.19875 0.01373 0.0
C2288 C 0.93661 0.20862 0.076 0.0
C2289 C 0.92863 0.20275 0.9288 0.0
C2290 C 0.94454 0.22252 0.05207 0.0
C2291 C 0.94462 0.22655 0.96751 0.0
H2292 H 0.09134 0.47046 0.77465 0.0
H2293 H 0.04946 0.44471 0.68824 0.0
H2294 H 0.0414 0.44075 0.83519 0.0
H2295 H 0.04599 0.4458 0.98808 0.0
H2296 H 0.08763 0.47287 0.07319 0.0
H2297 H 0.09597 0.47518 0.9271 0.0
C2298 C 0.08045 0.46402 0.78778 0.0
C2299 C 0.07109 0.45803 0.71997 0.0
C2300 C 0.07578 0.46209 0.87242 0.0
C2301 C 0.05701 0.44941 0.73859 0.0
C2302 C 0.05233 0.44722 0.82289 0.0
C2303 C 0.05686 0.45227 0.97456 0.0
C2304 C 0.06613 0.45917 0.04151 0.0
C2305 C 0.06159 0.45374 0.89013 0.0
C2306 C 0.08026 0.46731 0.02316 0.0
C2307 C 0.08505 0.46871 0.93947 0.0
H2308 H 0.55991 0.60296 0.64167 0.0
H2309 H 0.52563 0.6099 0.67432 0.0
H2310 H 0.52829 0.61028 0.82878 0.0
H2311 H 0.54062 0.60911 0.9567 0.0
H2312 H 0.57547 0.60321 0.92451 0.0
H2313 H 0.57238 0.60204 0.7696 0.0
C2314 C 0.55309 0.60468 0.68226 0.0
C2315 C 0.5425 0.60629 0.64509 0.0
C2316 C 0.55476 0.60505 0.77206 0.0
C2317 C 0.53372 0.60837 0.69996 0.0
C2318 C 0.53527 0.60867 0.78891 0.0
C2319 C 0.54742 0.60741 0.91565 0.0
C2320 C 0.55825 0.60622 0.95235 0.0
C2321 C 0.54573 0.60699 0.8259 0.0
C2322 C 0.56712 0.60425 0.89799 0.0
C2323 C 0.56535 0.60357 0.80916 0.0
H2324 H 0.38841 0.93542 0.93483 0.0
H2325 H 0.40412 0.97887 0.90005 0.0
H2326 H 0.40428 0.97618 0.74501 0.0
H2327 H 0.39959 0.96139 0.618 0.0
H2328 H 0.3831 0.91773 0.65303 0.0
H2329 H 0.38365 0.9206 0.80758 0.0
C2330 C 0.392 0.9443 0.89326 0.0
C2331 C 0.39627 0.95734 0.92934 0.0
C2332 C 0.39183 0.94263 0.80349 0.0
C2333 C 0.40069 0.96871 0.87415 0.0
C2334 C 0.40077 0.96717 0.78528 0.0
C2335 C 0.396 0.95247 0.65913 0.0
C2336 C 0.39137 0.93935 0.62265 0.0
C2337 C 0.39623 0.95415 0.74892 0.0
C2338 C 0.38692 0.92799 0.67822 0.0
C2339 C 0.38717 0.9296 0.76717 0.0
H2340 H 0.54581 0.94014 0.67014 0.0
H2341 H 0.50754 0.90203 0.70395 0.0
H2342 H 0.51047 0.90403 0.85842 0.0
H2343 H 0.52398 0.91644 0.98588 0.0
H2344 H 0.56258 0.95407 0.95267 0.0
H2345 H 0.55951 0.95236 0.79748 0.0
C2346 C 0.53817 0.93219 0.71103 0.0
C2347 C 0.5264 0.921 0.67428 0.0
C2348 C 0.53996 0.93332 0.8008 0.0
C2349 C 0.51658 0.9109 0.72942 0.0
C2350 C 0.51828 0.91199 0.81832 0.0
C2351 C 0.53163 0.92432 0.9447 0.0
C2352 C 0.54349 0.93538 0.98127 0.0
C2353 C 0.52988 0.92318 0.85497 0.0
C2354 C 0.55342 0.9454 0.92648 0.0
C2355 C 0.55165 0.94443 0.83754 0.0
H2356 H 0.05912 0.61196 0.9548 0.0
H2357 H 0.02364 0.57155 0.9212 0.0
H2358 H 0.02723 0.57333 0.76705 0.0
H2359 H 0.04067 0.58615 0.63987 0.0
H2360 H 0.076 0.62668 0.67445 0.0
H2361 H 0.07238 0.62483 0.82797 0.0
C2362 C 0.05223 0.60346 0.91416 0.0
C2363 C 0.04108 0.59165 0.95112 0.0
C2364 C 0.05438 0.60449 0.8245 0.0
C2365 C 0.03221 0.58088 0.89588 0.0
C2366 C 0.0343 0.58184 0.80704 0.0
C2367 C 0.04756 0.59463 0.68057 0.0
C2368 C 0.05874 0.60648 0.6438 0.0
C2369 C 0.04536 0.59359 0.7703 0.0
C2370 C 0.0675 0.61727 0.69929 0.0
C2371 C 0.06538 0.61628 0.78794 0.0
H2372 H 0.39779 0.43406 0.88838 0.0
H2373 H 0.39515 0.46894 0.98065 0.0
H2374 H 0.3934 0.4754 0.83455 0.0
H2375 H 0.39258 0.47113 0.68055 0.0
H2376 H 0.39487 0.43591 0.58969 0.0
H2377 H 0.39627 0.4294 0.735 0.0
C2378 C 0.39673 0.44301 0.8766 0.0
C2379 C 0.39675 0.45104 0.94549 0.0
C2380 C 0.39551 0.44657 0.7925 0.0
C2381 C 0.3955 0.46271 0.929 0.0
C2382 C 0.39434 0.46635 0.84534 0.0
C2383 C 0.39345 0.46207 0.69216 0.0
C2384 C 0.39379 0.45421 0.62308 0.0
C2385 C 0.39438 0.45837 0.77656 0.0
C2386 C 0.39458 0.44228 0.6404 0.0
C2387 C 0.39546 0.43853 0.72404 0.0
H2388 H 0.28444 0.22241 0.02477 0.0
H2389 H 0.24438 0.1865 0.98959 0.0
H2390 H 0.24674 0.18948 0.83512 0.0
H2391 H 0.26007 0.20234 0.70794 0.0
H2392 H 0.29985 0.23853 0.74255 0.0
H2393 H 0.29766 0.23544 0.89762 0.0
C2394 C 0.27616 0.2153 0.98359 0.0
C2395 C 0.26427 0.20416 0.02005 0.0
C2396 C 0.27753 0.2171 0.89373 0.0
C2397 C 0.25375 0.19503 0.96443 0.0
C2398 C 0.25506 0.19676 0.8755 0.0
C2399 C 0.26831 0.20947 0.74931 0.0
C2400 C 0.28012 0.22067 0.71293 0.0
C2401 C 0.26692 0.20771 0.83915 0.0
C2402 C 0.29058 0.22991 0.76828 0.0
C2403 C 0.28935 0.22813 0.85728 0.0
H2404 H 0.76825 0.04213 0.02141 0.0
H2405 H 0.81024 0.07502 0.99628 0.0
H2406 H 0.80733 0.0756 0.84179 0.0
H2407 H 0.79278 0.06681 0.71282 0.0
H2408 H 0.75103 0.03319 0.73854 0.0
H2409 H 0.75389 0.03303 0.89224 0.0
C2410 C 0.77672 0.04949 0.98214 0.0
C2411 C 0.78945 0.05849 0.02072 0.0
C2412 C 0.77502 0.04968 0.89278 0.0
C2413 C 0.80037 0.06785 0.96846 0.0
C2414 C 0.7987 0.06822 0.87991 0.0
C2415 C 0.78433 0.05937 0.75169 0.0
C2416 C 0.77166 0.05015 0.71279 0.0
C2417 C 0.78608 0.05915 0.8411 0.0
C2418 C 0.76084 0.04066 0.76549 0.0
C2419 C 0.76247 0.04047 0.85406 0.0
H2420 H 0.94202 0.74303 0.01308 0.0
H2421 H 0.91926 0.70121 0.10577 0.0
H2422 H 0.91461 0.6926 0.95995 0.0
H2423 H 0.9164 0.69688 0.80601 0.0
H2424 H 0.93937 0.73858 0.71152 0.0
H2425 H 0.94417 0.74728 0.8576 0.0
C2426 C 0.93606 0.73205 1.00106 0.0
C2427 C 0.93116 0.72282 0.07021 0.0
C2428 C 0.93328 0.72713 0.91667 0.0
C2429 C 0.92346 0.70858 0.05393 0.0
C2430 C 0.92065 0.70362 0.9704 0.0
C2431 C 0.92256 0.70786 0.81725 0.0
C2432 C 0.92743 0.71701 0.74767 0.0
C2433 C 0.92548 0.7128 0.90135 0.0
C2434 C 0.93524 0.73126 0.76358 0.0
C2435 C 0.93811 0.73627 0.84727 0.0
H2436 H 0.45896 0.04503 0.39713 0.0
H2437 H 0.45846 0.08301 0.36293 0.0
H2438 H 0.45611 0.07932 0.2095 0.0
H2439 H 0.45388 0.0653 0.08268 0.0
H2440 H 0.45414 0.02722 0.11603 0.0
H2441 H 0.45651 0.03085 0.26997 0.0
C2442 C 0.45828 0.0525 0.35652 0.0
C2443 C 0.45909 0.0644 0.39336 0.0
C2444 C 0.45676 0.05027 0.26686 0.0
C2445 C 0.4582 0.07389 0.338 0.0
C2446 C 0.45674 0.07175 0.24942 0.0
C2447 C 0.45459 0.05783 0.12319 0.0
C2448 C 0.45377 0.04596 0.08615 0.0
C2449 C 0.45605 0.06001 0.21279 0.0
C2450 C 0.45453 0.03637 0.14131 0.0
C2451 C 0.45598 0.03848 0.23007 0.0
H2452 H 0.92771 0.38604 0.33437 0.0
H2453 H 0.96834 0.39648 0.42107 0.0
H2454 H 0.97635 0.39934 0.27456 0.0
H2455 H 0.97235 0.40057 0.12153 0.0
H2456 H 0.93203 0.39095 0.03433 0.0
H2457 H 0.92341 0.38613 0.18081 0.0
C2458 C 0.93832 0.38895 0.32136 0.0
C2459 C 0.94741 0.39123 0.3894 0.0
C2460 C 0.94296 0.39082 0.23652 0.0
C2461 C 0.96104 0.39463 0.3708 0.0
C2462 C 0.9657 0.39638 0.28662 0.0
C2463 C 0.9617 0.39745 0.13481 0.0
C2464 C 0.95289 0.3962 0.06745 0.0
C2465 C 0.95684 0.3948 0.21915 0.0
C2466 C 0.93901 0.39187 0.08506 0.0
C2467 C 0.93408 0.38919 0.16885 0.0
H2468 H 0.58824 0.55609 0.11002 0.0
H2469 H 0.60353 0.52965 0.02295 0.0
H2470 H 0.60878 0.52659 0.16933 0.0
H2471 H 0.60958 0.53186 0.32218 0.0
H2472 H 0.59315 0.55731 0.40866 0.0
H2473 H 0.58748 0.55996 0.26285 0.0
C2474 C 0.59252 0.54949 0.1228 0.0
C2475 C 0.59567 0.54334 0.05487 0.0
C2476 C 0.59534 0.54757 0.20736 0.0
C2477 C 0.60131 0.53486 0.0733 0.0
C2478 C 0.60424 0.533 0.15731 0.0
C2479 C 0.60486 0.53806 0.30916 0.0
C2480 C 0.6021 0.54462 0.3766 0.0
C2481 C 0.60148 0.53946 0.22477 0.0
C2482 C 0.59556 0.55226 0.35843 0.0
C2483 C 0.59229 0.5538 0.27477 0.0
H2484 H 0.70308 0.788 0.27064 0.0
H2485 H 0.73235 0.77585 0.34914 0.0
H2486 H 0.74047 0.77792 0.20218 0.0
H2487 H 0.73932 0.78325 0.05168 0.0
H2488 H 0.71027 0.79568 0.97243 0.0
H2489 H 0.70182 0.79319 0.11889 0.0
C2490 C 0.71114 0.78569 0.25524 0.0
C2491 C 0.71717 0.78188 0.32066 0.0
C2492 C 0.7158 0.78695 0.17054 0.0
C2493 C 0.7277 0.77903 0.30009 0.0
C2494 C 0.73231 0.78015 0.21605 0.0
C2495 C 0.73127 0.7856 0.06654 0.0
C2496 C 0.7255 0.78969 1.00108 0.0
C2497 C 0.72652 0.78422 0.15092 0.0
C2498 C 0.71485 0.7924 0.02134 0.0
C2499 C 0.71003 0.79103 0.10521 0.0
H2500 H 0.22247 0.93905 0.22661 0.0
H2501 H 0.18441 0.93524 0.31846 0.0
H2502 H 0.17703 0.93528 0.17233 0.0
H2503 H 0.1812 0.93606 0.0182 0.0
H2504 H 0.21958 0.94042 0.92738 0.0
H2505 H 0.22712 0.94099 0.07297 0.0
C2506 C 0.21263 0.93837 0.21479 0.0
C2507 C 0.20398 0.93695 0.28366 0.0
C2508 C 0.2085 0.9386 0.13053 0.0
C2509 C 0.19118 0.93598 0.26697 0.0
C2510 C 0.18698 0.93614 0.18322 0.0
C2511 C 0.19119 0.93708 0.02999 0.0
C2512 C 0.19962 0.93794 0.96097 0.0
C2513 C 0.19551 0.93734 0.11447 0.0
C2514 C 0.21273 0.93965 0.97821 0.0
C2515 C 0.21709 0.93993 0.06197 0.0
H2516 H 0.03965 0.274 0.27384 0.0
H2517 H 0.07696 0.27396 0.34125 0.0
H2518 H 0.07955 0.26851 0.19393 0.0
H2519 H 0.07135 0.264 0.04559 0.0
H2520 H 0.03463 0.26497 0.97673 0.0
H2521 H 0.03174 0.27002 0.12506 0.0
C2522 C 0.04844 0.27298 0.25625 0.0
C2523 C 0.05805 0.27433 0.31874 0.0
C2524 C 0.04995 0.26999 0.17125 0.0
C2525 C 0.06928 0.27276 0.29479 0.0
C2526 C 0.07081 0.2697 0.21047 0.0
C2527 C 0.06264 0.26517 0.0635 0.0
C2528 C 0.05316 0.26404 1.00095 0.0
C2529 C 0.06118 0.26824 0.14832 0.0
C2530 C 0.04207 0.26585 0.02414 0.0
C2531 C 0.04042 0.26872 0.10873 0.0
H2532 H 0.23683 0.29214 0.18056 0.0
H2533 H 0.19516 0.28107 0.24617 0.0
H2534 H 0.1879 0.2738 0.0991 0.0
H2535 H 0.1934 0.2708 0.95158 0.0
H2536 H 0.23511 0.28227 0.88509 0.0
H2537 H 0.2424 0.28943 0.03257 0.0
C2538 C 0.22619 0.28831 0.16273 0.0
C2539 C 0.21656 0.28714 0.22486 0.0
C2540 C 0.22209 0.2842 0.0778 0.0
C2541 C 0.20277 0.28192 0.20024 0.0
C2542 C 0.19861 0.2778 0.11597 0.0
C2543 C 0.20404 0.27467 0.96956 0.0
C2544 C 0.21367 0.27589 0.90739 0.0
C2545 C 0.20817 0.27883 0.05433 0.0
C2546 C 0.2275 0.28127 0.93152 0.0
C2547 C 0.23167 0.28534 0.01589 0.0
H2548 H 0.69138 0.9261 0.23415 0.0
H2549 H 0.73167 0.93644 0.32514 0.0
H2550 H 0.73966 0.93769 0.17801 0.0
H2551 H 0.73524 0.93654 0.02297 0.0
H2552 H 0.6945 0.92515 0.93414 0.0
H2553 H 0.68667 0.92383 0.08061 0.0
C2554 C 0.70189 0.92862 0.22132 0.0
C2555 C 0.71092 0.93116 0.28957 0.0
C2556 C 0.70636 0.9293 0.13708 0.0
C2557 C 0.7245 0.93427 0.27313 0.0
C2558 C 0.72909 0.93508 0.1892 0.0
C2559 C 0.72466 0.93372 0.0359 0.0
C2560 C 0.71558 0.93132 0.96774 0.0
C2561 C 0.72012 0.9327 0.1206 0.0
C2562 C 0.70185 0.9276 0.98527 0.0
C2563 C 0.69729 0.92667 0.06905 0.0
H2564 H 0.06962 0.79814 0.01771 0.0
H2565 H 0.0337 0.75981 0.94901 0.0
H2566 H 0.03105 0.75191 0.0974 0.0
H2567 H 0.03878 0.75619 0.2463 0.0
H2568 H 0.07535 0.79422 0.31369 0.0
H2569 H 0.07784 0.80209 0.16598 0.0
C2570 C 0.06115 0.78813 0.03571 0.0
C2571 C 0.05179 0.77959 0.97336 0.0
C2572 C 0.05982 0.78364 0.1205 0.0
C2573 C 0.04102 0.7665 0.99643 0.0
C2574 C 0.0395 0.76201 0.081 0.0
C2575 C 0.04741 0.76611 0.22862 0.0
C2576 C 0.0568 0.77463 0.29117 0.0
C2577 C 0.04886 0.7705 0.1435 0.0
C2578 C 0.06782 0.78755 0.26712 0.0
C2579 C 0.0693 0.79204 0.18262 0.0
H2580 H 0.92859 0.53532 0.08617 0.0
H2581 H 0.97118 0.56618 0.12017 0.0
H2582 H 0.9687 0.56327 0.27535 0.0
H2583 H 0.95432 0.5522 0.40236 0.0
H2584 H 0.91138 0.52201 0.36809 0.0
H2585 H 0.91415 0.52434 0.21367 0.0
C2586 C 0.93735 0.54127 0.12759 0.0
C2587 C 0.95007 0.55093 0.09131 0.0
C2588 C 0.93578 0.53971 0.21737 0.0
C2589 C 0.96126 0.55873 0.14627 0.0
C2590 C 0.95985 0.55707 0.23518 0.0
C2591 C 0.94551 0.54619 0.36151 0.0
C2592 C 0.93266 0.53686 0.3983 0.0
C2593 C 0.94711 0.54768 0.27172 0.0
C2594 C 0.92147 0.52911 0.34289 0.0
C2595 C 0.92301 0.53048 0.25392 0.0
H2596 H 0.43951 0.3909 0.05868 0.0
H2597 H 0.47247 0.38486 0.96893 0.0
H2598 H 0.47936 0.38413 0.11608 0.0
H2599 H 0.47583 0.38505 0.27043 0.0
H2600 H 0.44317 0.39174 0.35864 0.0
H2601 H 0.43609 0.39197 0.21229 0.0
C2602 C 0.44814 0.38935 0.07163 0.0
C2603 C 0.45551 0.38802 1.00354 0.0
C2604 C 0.452 0.3889 0.15604 0.0
C2605 C 0.46679 0.38616 0.02055 0.0
C2606 C 0.47066 0.38563 0.10457 0.0
C2607 C 0.46721 0.3866 0.25747 0.0
C2608 C 0.45996 0.38819 0.32549 0.0
C2609 C 0.46334 0.38701 0.17282 0.0
C2610 C 0.44873 0.39012 0.3078 0.0
C2611 C 0.44474 0.39041 0.22394 0.0
H2612 H 0.60325 0.04396 0.32075 0.0
H2613 H 0.61705 0.08712 0.28664 0.0
H2614 H 0.61665 0.0844 0.13185 0.0
H2615 H 0.61261 0.06978 1.00414 0.0
H2616 H 0.59953 0.02685 0.03855 0.0
H2617 H 0.59948 0.02945 0.19378 0.0
C2618 C 0.60631 0.05281 0.27971 0.0
C2619 C 0.61011 0.06573 0.31637 0.0
C2620 C 0.60612 0.0512 0.18994 0.0
C2621 C 0.61387 0.077 0.26111 0.0
C2622 C 0.6137 0.07547 0.17209 0.0
C2623 C 0.60958 0.06099 0.04569 0.0
C2624 C 0.60601 0.04812 0.00952 0.0
C2625 C 0.60977 0.06261 0.13552 0.0
C2626 C 0.60237 0.03687 0.06459 0.0
C2627 C 0.60235 0.03836 0.1535 0.0
loop_
_geom_bond_atom_site_label_1
_geom_bond_atom_site_label_2
_geom_bond_distance
_geom_bond_site_symmetry_2
_ccdc_geom_bond_type
C0 C1 1.351 . S
C0 N3 1.368 . S
C0 H5 0.931 . S
C1 C0 1.351 . S
C1 N2 1.373 . S
C1 H29 0.930 . S
N2 C1 1.373 . S
N2 C4 1.340 . S
N3 C0 1.368 . S
N3 C4 1.321 . S
N3 Co6 2.127 1_556 S
C4 N2 1.340 . S
C4 N3 1.321 . S
C4 H28 0.930 . S
H5 C0 0.931 . S
Co6 N3 2.127 1_554 S
Co6 N9 2.128 . S
Co6 O14 2.056 . S
Co6 O17 2.037 1_554 S
Co6 N20 2.140 1_554 S
C7 O8 1.227 . S
C7 O17 1.265 . S
O8 C7 1.227 . S
N9 Co6 2.128 . S
N9 C11 1.375 . S
N9 C12 1.313 . S
C10 C11 1.338 . S
C10 N13 1.377 . S
C10 H30 0.930 . S
C11 N9 1.375 . S
C11 C10 1.338 . S
C11 H15 0.931 . S
C12 N9 1.313 . S
C12 N13 1.344 . S
C12 H16 0.930 . S
N13 C10 1.377 . S
N13 C12 1.344 . S
O14 Co6 2.056 . S
O14 C18 1.253 . S
H15 C11 0.931 . S
H16 C12 0.930 . S
O17 Co6 2.037 1_556 S
O17 C7 1.265 . S
C18 O14 1.253 . S
C18 O19 1.227 . S
O19 C18 1.227 . S
N20 Co6 2.140 1_556 S
N20 C23 1.346 . S
N20 C24 1.345 1_556 S
C21 C22 1.387 . S
C21 C25 1.391 1_556 S
C22 C21 1.387 . S
C22 C23 1.369 . S
C22 H31 0.929 . S
C23 N20 1.346 . S
C23 C22 1.369 . S
C23 H26 0.928 . S
C24 N20 1.345 1_554 S
C24 C25 1.371 . S
C24 H27 0.931 . S
C25 C21 1.391 1_554 S
C25 C24 1.371 . S
C25 H32 0.930 . S
H26 C23 0.928 . S
H27 C24 0.931 . S
H28 C4 0.930 . S
H29 C1 0.930 . S
H30 C10 0.930 . S
H31 C22 0.929 . S
H32 C25 0.930 . S
C33 C34 1.351 . S
C33 N36 1.368 . S
C33 H38 0.931 . S
C34 C33 1.351 . S
C34 N35 1.373 . S
C34 H62 0.930 . S
N35 C34 1.373 . S
N35 C37 1.340 . S
N36 C33 1.368 . S
N36 C37 1.321 . S
N36 Co39 2.127 1_556 S
C37 N35 1.340 . S
C37 N36 1.321 . S
C37 H61 0.930 . S
H38 C33 0.931 . S
Co39 N36 2.127 1_554 S
Co39 N42 2.128 . S
Co39 O47 2.056 . S
Co39 O50 2.037 1_554 S
Co39 N53 2.140 1_554 S
C40 O41 1.227 . S
C40 O50 1.265 . S
O41 C40 1.227 . S
N42 Co39 2.128 . S
N42 C44 1.375 . S
N42 C45 1.313 . S
C43 C44 1.338 . S
C43 N46 1.377 . S
C43 H63 0.930 . S
C44 N42 1.375 . S
C44 C43 1.338 . S
C44 H48 0.931 . S
C45 N42 1.313 . S
C45 N46 1.344 . S
C45 H49 0.930 . S
N46 C43 1.377 . S
N46 C45 1.344 . S
O47 Co39 2.056 . S
O47 C51 1.253 . S
H48 C44 0.931 . S
H49 C45 0.930 . S
O50 Co39 2.037 1_556 S
O50 C40 1.265 . S
C51 O47 1.253 . S
C51 O52 1.227 . S
O52 C51 1.227 . S
N53 Co39 2.140 1_556 S
N53 C56 1.346 . S
N53 C57 1.345 1_556 S
C54 C55 1.387 . S
C54 C58 1.391 1_556 S
C55 C54 1.387 . S
C55 C56 1.369 . S
C55 H64 0.929 . S
C56 N53 1.346 . S
C56 C55 1.369 . S
C56 H59 0.928 . S
C57 N53 1.345 1_554 S
C57 C58 1.371 . S
C57 H60 0.931 . S
C58 C54 1.391 1_554 S
C58 C57 1.371 . S
C58 H65 0.930 . S
H59 C56 0.928 . S
H60 C57 0.931 . S
H61 C37 0.930 . S
H62 C34 0.930 . S
H63 C43 0.930 . S
H64 C55 0.929 . S
H65 C58 0.930 . S
C66 C67 1.351 . S
C66 N69 1.368 . S
C66 H71 0.931 . S
C67 C66 1.351 . S
C67 N68 1.373 . S
C67 H95 0.930 . S
N68 C67 1.373 . S
N68 C70 1.340 . S
N69 C66 1.368 . S
N69 C70 1.321 . S
N69 Co72 2.127 1_556 S
C70 N68 1.340 . S
C70 N69 1.321 . S
C70 H94 0.930 . S
H71 C66 0.931 . S
Co72 N69 2.127 1_554 S
Co72 N75 2.128 . S
Co72 O80 2.056 . S
Co72 O83 2.037 1_554 S
Co72 N86 2.140 1_554 S
C73 O74 1.227 . S
C73 O83 1.265 . S
O74 C73 1.227 . S
N75 Co72 2.128 . S
N75 C77 1.375 . S
N75 C78 1.313 . S
C76 C77 1.338 . S
C76 N79 1.377 . S
C76 H96 0.930 . S
C77 N75 1.375 . S
C77 C76 1.338 . S
C77 H81 0.931 . S
C78 N75 1.313 . S
C78 N79 1.344 . S
C78 H82 0.930 . S
N79 C76 1.377 . S
N79 C78 1.344 . S
O80 Co72 2.056 . S
O80 C84 1.253 . S
H81 C77 0.931 . S
H82 C78 0.930 . S
O83 Co72 2.037 1_556 S
O83 C73 1.265 . S
C84 O80 1.253 . S
C84 O85 1.227 . S
O85 C84 1.227 . S
N86 Co72 2.140 1_556 S
N86 C89 1.346 . S
N86 C90 1.345 1_556 S
C87 C88 1.387 . S
C87 C91 1.391 1_556 S
C88 C87 1.387 . S
C88 C89 1.369 . S
C88 H97 0.929 . S
C89 N86 1.346 . S
C89 C88 1.369 . S
C89 H92 0.928 . S
C90 N86 1.345 1_554 S
C90 C91 1.371 . S
C90 H93 0.931 . S
C91 C87 1.391 1_554 S
C91 C90 1.371 . S
C91 H98 0.930 . S
H92 C89 0.928 . S
H93 C90 0.931 . S
H94 C70 0.930 . S
H95 C67 0.930 . S
H96 C76 0.930 . S
H97 C88 0.929 . S
H98 C91 0.930 . S
C99 C100 1.351 . S
C99 N102 1.368 . S
C99 H104 0.931 . S
C100 C99 1.351 . S
C100 N101 1.373 . S
C100 H128 0.930 . S
N101 C100 1.373 . S
N101 C103 1.340 . S
N102 C99 1.368 . S
N102 C103 1.321 . S
N102 Co105 2.127 1_554 S
C103 N101 1.340 . S
C103 N102 1.321 . S
C103 H127 0.930 . S
H104 C99 0.931 . S
Co105 N102 2.127 1_556 S
Co105 N108 2.128 . S
Co105 O113 2.056 . S
Co105 O116 2.037 1_556 S
Co105 N119 2.140 1_556 S
C106 O107 1.227 . S
C106 O116 1.265 . S
O107 C106 1.227 . S
N108 Co105 2.128 . S
N108 C110 1.375 . S
N108 C111 1.313 . S
C109 C110 1.338 . S
C109 N112 1.377 . S
C109 H129 0.930 . S
C110 N108 1.375 . S
C110 C109 1.338 . S
C110 H114 0.931 . S
C111 N108 1.313 . S
C111 N112 1.344 . S
C111 H115 0.930 . S
N112 C109 1.377 . S
N112 C111 1.344 . S
O113 Co105 2.056 . S
O113 C117 1.253 . S
H114 C110 0.931 . S
H115 C111 0.930 . S
O116 Co105 2.037 1_554 S
O116 C106 1.265 . S
C117 O113 1.253 . S
C117 O118 1.227 . S
O118 C117 1.227 . S
N119 Co105 2.140 1_554 S
N119 C122 1.346 . S
N119 C123 1.345 1_554 S
C120 C121 1.387 . S
C120 C124 1.391 1_554 S
C121 C120 1.387 . S
C121 C122 1.369 . S
C121 H130 0.929 . S
C122 N119 1.346 . S
C122 C121 1.369 . S
C122 H125 0.928 . S
C123 N119 1.345 1_556 S
C123 C124 1.371 . S
C123 H126 0.931 . S
C124 C120 1.391 1_556 S
C124 C123 1.371 . S
C124 H131 0.930 . S
H125 C122 0.928 . S
H126 C123 0.931 . S
H127 C103 0.930 . S
H128 C100 0.930 . S
H129 C109 0.930 . S
H130 C121 0.929 . S
H131 C124 0.930 . S
C132 C133 1.351 . S
C132 N135 1.368 . S
C132 H137 0.931 . S
C133 C132 1.351 . S
C133 N134 1.373 . S
C133 H161 0.930 . S
N134 C133 1.373 . S
N134 C136 1.340 . S
N135 C132 1.368 . S
N135 C136 1.321 . S
N135 Co138 2.127 1_554 S
C136 N134 1.340 . S
C136 N135 1.321 . S
C136 H160 0.930 . S
H137 C132 0.931 . S
Co138 N135 2.127 1_556 S
Co138 N141 2.128 . S
Co138 O146 2.056 . S
Co138 O149 2.037 1_556 S
Co138 N152 2.140 1_556 S
C139 O140 1.227 . S
C139 O149 1.265 . S
O140 C139 1.227 . S
N141 Co138 2.128 . S
N141 C143 1.375 . S
N141 C144 1.313 . S
C142 C143 1.338 . S
C142 N145 1.377 . S
C142 H162 0.930 . S
C143 N141 1.375 . S
C143 C142 1.338 . S
C143 H147 0.931 . S
C144 N141 1.313 . S
C144 N145 1.344 . S
C144 H148 0.930 . S
N145 C142 1.377 . S
N145 C144 1.344 . S
O146 Co138 2.056 . S
O146 C150 1.253 . S
H147 C143 0.931 . S
H148 C144 0.930 . S
O149 Co138 2.037 1_554 S
O149 C139 1.265 . S
C150 O146 1.253 . S
C150 O151 1.227 . S
O151 C150 1.227 . S
N152 Co138 2.140 1_554 S
N152 C155 1.346 . S
N152 C156 1.345 1_554 S
C153 C154 1.387 . S
C153 C157 1.391 1_554 S
C154 C153 1.387 . S
C154 C155 1.369 . S
C154 H163 0.929 . S
C155 N152 1.346 . S
C155 C154 1.369 . S
C155 H158 0.928 . S
C156 N152 1.345 1_556 S
C156 C157 1.371 . S
C156 H159 0.931 . S
C157 C153 1.391 1_556 S
C157 C156 1.371 . S
C157 H164 0.930 . S
H158 C155 0.928 . S
H159 C156 0.931 . S
H160 C136 0.930 . S
H161 C133 0.930 . S
H162 C142 0.930 . S
H163 C154 0.929 . S
H164 C157 0.930 . S
C165 C166 1.351 . S
C165 N168 1.368 . S
C165 H170 0.931 . S
C166 C165 1.351 . S
C166 N167 1.373 . S
C166 H194 0.930 . S
N167 C166 1.373 . S
N167 C169 1.340 . S
N168 C165 1.368 . S
N168 C169 1.321 . S
N168 Co171 2.127 1_554 S
C169 N167 1.340 . S
C169 N168 1.321 . S
C169 H193 0.930 . S
H170 C165 0.931 . S
Co171 N168 2.127 1_556 S
Co171 N174 2.128 . S
Co171 O179 2.056 . S
Co171 O182 2.037 1_556 S
Co171 N185 2.140 1_556 S
C172 O173 1.227 . S
C172 O182 1.265 . S
O173 C172 1.227 . S
N174 Co171 2.128 . S
N174 C176 1.375 . S
N174 C177 1.313 . S
C175 C176 1.338 . S
C175 N178 1.377 . S
C175 H195 0.930 . S
C176 N174 1.375 . S
C176 C175 1.338 . S
C176 H180 0.931 . S
C177 N174 1.313 . S
C177 N178 1.344 . S
C177 H181 0.930 . S
N178 C175 1.377 . S
N178 C177 1.344 . S
O179 Co171 2.056 . S
O179 C183 1.253 . S
H180 C176 0.931 . S
H181 C177 0.930 . S
O182 Co171 2.037 1_554 S
O182 C172 1.265 . S
C183 O179 1.253 . S
C183 O184 1.227 . S
O184 C183 1.227 . S
N185 Co171 2.140 1_554 S
N185 C188 1.346 . S
N185 C189 1.345 1_554 S
C186 C187 1.387 . S
C186 C190 1.391 1_554 S
C187 C186 1.387 . S
C187 C188 1.369 . S
C187 H196 0.929 . S
C188 N185 1.346 . S
C188 C187 1.369 . S
C188 H191 0.928 . S
C189 N185 1.345 1_556 S
C189 C190 1.371 . S
C189 H192 0.931 . S
C190 C186 1.391 1_556 S
C190 C189 1.371 . S
C190 H197 0.930 . S
H191 C188 0.928 . S
H192 C189 0.931 . S
H193 C169 0.930 . S
H194 C166 0.930 . S
H195 C175 0.930 . S
H196 C187 0.929 . S
H197 C190 0.930 . S
C198 C199 1.351 . S
C198 N201 1.368 . S
C198 H203 0.931 . S
C199 C198 1.351 . S
C199 N200 1.373 . S
C199 H227 0.930 . S
N200 C199 1.373 . S
N200 C202 1.340 . S
N201 C198 1.368 . S
N201 C202 1.321 . S
N201 Co204 2.127 1_554 S
C202 N200 1.340 . S
C202 N201 1.321 . S
C202 H226 0.930 . S
H203 C198 0.931 . S
Co204 N201 2.127 1_556 S
Co204 N207 2.128 . S
Co204 O212 2.056 . S
Co204 O215 2.037 1_556 S
Co204 N218 2.140 1_556 S
C205 O206 1.227 . S
C205 O215 1.265 . S
O206 C205 1.227 . S
N207 Co204 2.128 . S
N207 C209 1.375 . S
N207 C210 1.313 . S
C208 C209 1.338 . S
C208 N211 1.377 . S
C208 H228 0.930 . S
C209 N207 1.375 . S
C209 C208 1.338 . S
C209 H213 0.931 . S
C210 N207 1.313 . S
C210 N211 1.344 . S
C210 H214 0.930 . S
N211 C208 1.377 . S
N211 C210 1.344 . S
O212 Co204 2.056 . S
O212 C216 1.253 . S
H213 C209 0.931 . S
H214 C210 0.930 . S
O215 Co204 2.037 1_554 S
O215 C205 1.265 . S
C216 O212 1.253 . S
C216 O217 1.227 . S
O217 C216 1.227 . S
N218 Co204 2.140 1_554 S
N218 C221 1.346 . S
N218 C222 1.345 1_554 S
C219 C220 1.387 . S
C219 C223 1.391 1_554 S
C220 C219 1.387 . S
C220 C221 1.369 . S
C220 H229 0.929 . S
C221 N218 1.346 . S
C221 C220 1.369 . S
C221 H224 0.928 . S
C222 N218 1.345 1_556 S
C222 C223 1.371 . S
C222 H225 0.931 . S
C223 C219 1.391 1_556 S
C223 C222 1.371 . S
C223 H230 0.930 . S
H224 C221 0.928 . S
H225 C222 0.931 . S
H226 C202 0.930 . S
H227 C199 0.930 . S
H228 C208 0.930 . S
H229 C220 0.929 . S
H230 C223 0.930 . S
C231 C232 1.351 . S
C231 N234 1.368 . S
C231 H236 0.931 . S
C232 C231 1.351 . S
C232 N233 1.373 . S
C232 H260 0.930 . S
N233 C232 1.373 . S
N233 C235 1.340 . S
N234 C231 1.368 . S
N234 C235 1.321 . S
N234 Co237 2.127 1_554 S
C235 N233 1.340 . S
C235 N234 1.321 . S
C235 H259 0.930 . S
H236 C231 0.931 . S
Co237 N234 2.127 1_556 S
Co237 N240 2.128 . S
Co237 O245 2.056 . S
Co237 O248 2.037 1_556 S
Co237 N251 2.140 1_556 S
C238 O239 1.227 . S
C238 O248 1.265 . S
O239 C238 1.227 . S
N240 Co237 2.128 . S
N240 C242 1.375 . S
N240 C243 1.313 . S
C241 C242 1.338 . S
C241 N244 1.377 . S
C241 H261 0.930 . S
C242 N240 1.375 . S
C242 C241 1.338 . S
C242 H246 0.931 . S
C243 N240 1.313 . S
C243 N244 1.344 . S
C243 H247 0.930 . S
N244 C241 1.377 . S
N244 C243 1.344 . S
O245 Co237 2.056 . S
O245 C249 1.253 . S
H246 C242 0.931 . S
H247 C243 0.930 . S
O248 Co237 2.037 1_554 S
O248 C238 1.265 . S
C249 O245 1.253 . S
C249 O250 1.227 . S
O250 C249 1.227 . S
N251 Co237 2.140 1_554 S
N251 C254 1.346 . S
N251 C255 1.345 1_554 S
C252 C253 1.387 . S
C252 C256 1.391 1_554 S
C253 C252 1.387 . S
C253 C254 1.369 . S
C253 H262 0.929 . S
C254 N251 1.346 . S
C254 C253 1.369 . S
C254 H257 0.928 . S
C255 N251 1.345 1_556 S
C255 C256 1.371 . S
C255 H258 0.931 . S
C256 C252 1.391 1_556 S
C256 C255 1.371 . S
C256 H263 0.930 . S
H257 C254 0.928 . S
H258 C255 0.931 . S
H259 C235 0.930 . S
H260 C232 0.930 . S
H261 C241 0.930 . S
H262 C253 0.929 . S
H263 C256 0.930 . S
C264 C265 1.351 . S
C264 N267 1.368 . S
C264 H269 0.931 . S
C265 C264 1.351 . S
C265 N266 1.373 . S
C265 H293 0.930 . S
N266 C265 1.373 . S
N266 C268 1.340 . S
N267 C264 1.368 . S
N267 C268 1.321 . S
N267 Co270 2.127 1_554 S
C268 N266 1.340 . S
C268 N267 1.321 . S
C268 H292 0.930 . S
H269 C264 0.931 . S
Co270 N267 2.127 1_556 S
Co270 N273 2.128 . S
Co270 O278 2.056 . S
Co270 O281 2.037 1_556 S
Co270 N284 2.140 1_556 S
C271 O272 1.227 . S
C271 O281 1.265 . S
O272 C271 1.227 . S
N273 Co270 2.128 . S
N273 C275 1.375 . S
N273 C276 1.313 . S
C274 C275 1.338 . S
C274 N277 1.377 . S
C274 H294 0.930 . S
C275 N273 1.375 . S
C275 C274 1.338 . S
C275 H279 0.931 . S
C276 N273 1.313 . S
C276 N277 1.344 . S
C276 H280 0.930 . S
N277 C274 1.377 . S
N277 C276 1.344 . S
O278 Co270 2.056 . S
O278 C282 1.253 . S
H279 C275 0.931 . S
H280 C276 0.930 . S
O281 Co270 2.037 1_554 S
O281 C271 1.265 . S
C282 O278 1.253 . S
C282 O283 1.227 . S
O283 C282 1.227 . S
N284 Co270 2.140 1_554 S
N284 C287 1.346 . S
N284 C288 1.345 1_554 S
C285 C286 1.387 . S
C285 C289 1.391 1_554 S
C286 C285 1.387 . S
C286 C287 1.369 . S
C286 H295 0.929 . S
C287 N284 1.346 . S
C287 C286 1.369 . S
C287 H290 0.928 . S
C288 N284 1.345 1_556 S
C288 C289 1.371 . S
C288 H291 0.931 . S
C289 C285 1.391 1_556 S
C289 C288 1.371 . S
C289 H296 0.930 . S
H290 C287 0.928 . S
H291 C288 0.931 . S
H292 C268 0.930 . S
H293 C265 0.930 . S
H294 C274 0.930 . S
H295 C286 0.929 . S
H296 C289 0.930 . S
C297 C298 1.351 . S
C297 N300 1.368 . S
C297 H302 0.931 . S
C298 C297 1.351 . S
C298 N299 1.373 . S
C298 H326 0.930 . S
N299 C298 1.373 . S
N299 C301 1.340 . S
N300 C297 1.368 . S
N300 C301 1.321 . S
N300 Co303 2.127 1_556 S
C301 N299 1.340 . S
C301 N300 1.321 . S
C301 H325 0.930 . S
H302 C297 0.931 . S
Co303 N300 2.127 1_554 S
Co303 N306 2.128 . S
Co303 O311 2.056 . S
Co303 O314 2.037 1_554 S
Co303 N317 2.140 1_554 S
C304 O305 1.227 . S
C304 O314 1.265 . S
O305 C304 1.227 . S
N306 Co303 2.128 . S
N306 C308 1.375 . S
N306 C309 1.313 . S
C307 C308 1.338 . S
C307 N310 1.377 . S
C307 H327 0.930 . S
C308 N306 1.375 . S
C308 C307 1.338 . S
C308 H312 0.931 . S
C309 N306 1.313 . S
C309 N310 1.344 . S
C309 H313 0.930 . S
N310 C307 1.377 . S
N310 C309 1.344 . S
O311 Co303 2.056 . S
O311 C315 1.253 . S
H312 C308 0.931 . S
H313 C309 0.930 . S
O314 Co303 2.037 1_556 S
O314 C304 1.265 . S
C315 O311 1.253 . S
C315 O316 1.227 . S
O316 C315 1.227 . S
N317 Co303 2.140 1_556 S
N317 C320 1.346 . S
N317 C321 1.345 1_556 S
C318 C319 1.387 . S
C318 C322 1.391 1_556 S
C319 C318 1.387 . S
C319 C320 1.369 . S
C319 H328 0.929 . S
C320 N317 1.346 . S
C320 C319 1.369 . S
C320 H323 0.928 . S
C321 N317 1.345 1_554 S
C321 C322 1.371 . S
C321 H324 0.931 . S
C322 C318 1.391 1_554 S
C322 C321 1.371 . S
C322 H329 0.930 . S
H323 C320 0.928 . S
H324 C321 0.931 . S
H325 C301 0.930 . S
H326 C298 0.930 . S
H327 C307 0.930 . S
H328 C319 0.929 . S
H329 C322 0.930 . S
C330 C331 1.351 . S
C330 N333 1.368 . S
C330 H335 0.931 . S
C331 C330 1.351 . S
C331 N332 1.373 . S
C331 H359 0.930 . S
N332 C331 1.373 . S
N332 C334 1.340 . S
N333 C330 1.368 . S
N333 C334 1.321 . S
N333 Co336 2.127 1_556 S
C334 N332 1.340 . S
C334 N333 1.321 . S
C334 H358 0.930 . S
H335 C330 0.931 . S
Co336 N333 2.127 1_554 S
Co336 N339 2.128 . S
Co336 O344 2.056 . S
Co336 O347 2.037 1_554 S
Co336 N350 2.140 1_554 S
C337 O338 1.227 . S
C337 O347 1.265 . S
O338 C337 1.227 . S
N339 Co336 2.128 . S
N339 C341 1.375 . S
N339 C342 1.313 . S
C340 C341 1.338 . S
C340 N343 1.377 . S
C340 H360 0.930 . S
C341 N339 1.375 . S
C341 C340 1.338 . S
C341 H345 0.931 . S
C342 N339 1.313 . S
C342 N343 1.344 . S
C342 H346 0.930 . S
N343 C340 1.377 . S
N343 C342 1.344 . S
O344 Co336 2.056 . S
O344 C348 1.253 . S
H345 C341 0.931 . S
H346 C342 0.930 . S
O347 Co336 2.037 1_556 S
O347 C337 1.265 . S
C348 O344 1.253 . S
C348 O349 1.227 . S
O349 C348 1.227 . S
N350 Co336 2.140 1_556 S
N350 C353 1.346 . S
N350 C354 1.345 1_556 S
C351 C352 1.387 . S
C351 C355 1.391 1_556 S
C352 C351 1.387 . S
C352 C353 1.369 . S
C352 H361 0.929 . S
C353 N350 1.346 . S
C353 C352 1.369 . S
C353 H356 0.928 . S
C354 N350 1.345 1_554 S
C354 C355 1.371 . S
C354 H357 0.931 . S
C355 C351 1.391 1_554 S
C355 C354 1.371 . S
C355 H362 0.930 . S
H356 C353 0.928 . S
H357 C354 0.931 . S
H358 C334 0.930 . S
H359 C331 0.930 . S
H360 C340 0.930 . S
H361 C352 0.929 . S
H362 C355 0.930 . S
C363 C364 1.351 . S
C363 N366 1.368 . S
C363 H368 0.931 . S
C364 C363 1.351 . S
C364 N365 1.373 . S
C364 H392 0.930 . S
N365 C364 1.373 . S
N365 C367 1.340 . S
N366 C363 1.368 . S
N366 C367 1.321 . S
N366 Co369 2.127 1_556 S
C367 N365 1.340 . S
C367 N366 1.321 . S
C367 H391 0.930 . S
H368 C363 0.931 . S
Co369 N366 2.127 1_554 S
Co369 N372 2.128 . S
Co369 O377 2.056 . S
Co369 O380 2.037 1_554 S
Co369 N383 2.140 1_554 S
C370 O371 1.227 . S
C370 O380 1.265 . S
O371 C370 1.227 . S
N372 Co369 2.128 . S
N372 C374 1.375 . S
N372 C375 1.313 . S
C373 C374 1.338 . S
C373 N376 1.377 . S
C373 H393 0.930 . S
C374 N372 1.375 . S
C374 C373 1.338 . S
C374 H378 0.931 . S
C375 N372 1.313 . S
C375 N376 1.344 . S
C375 H379 0.930 . S
N376 C373 1.377 . S
N376 C375 1.344 . S
O377 Co369 2.056 . S
O377 C381 1.253 . S
H378 C374 0.931 . S
H379 C375 0.930 . S
O380 Co369 2.037 1_556 S
O380 C370 1.265 . S
C381 O377 1.253 . S
C381 O382 1.227 . S
O382 C381 1.227 . S
N383 Co369 2.140 1_556 S
N383 C386 1.346 . S
N383 C387 1.345 1_556 S
C384 C385 1.387 . S
C384 C388 1.391 1_556 S
C385 C384 1.387 . S
C385 C386 1.369 . S
C385 H394 0.929 . S
C386 N383 1.346 . S
C386 C385 1.369 . S
C386 H389 0.928 . S
C387 N383 1.345 1_554 S
C387 C388 1.371 . S
C387 H390 0.931 . S
C388 C384 1.391 1_554 S
C388 C387 1.371 . S
C388 H395 0.930 . S
H389 C386 0.928 . S
H390 C387 0.931 . S
H391 C367 0.930 . S
H392 C364 0.930 . S
H393 C373 0.930 . S
H394 C385 0.929 . S
H395 C388 0.930 . S
C396 C397 1.351 . S
C396 N399 1.368 . S
C396 H401 0.931 . S
C397 C396 1.351 . S
C397 N398 1.373 . S
C397 H425 0.930 . S
N398 C397 1.373 . S
N398 C400 1.340 . S
N399 C396 1.368 . S
N399 C400 1.321 . S
N399 Co402 2.135 . S
C400 N398 1.340 . S
C400 N399 1.321 . S
C400 H424 0.930 . S
H401 C396 0.931 . S
Co402 N399 2.135 . S
Co402 N405 2.121 . S
Co402 O410 2.055 . S
Co402 O413 2.039 . S
Co402 N416 2.140 . S
C403 O404 1.227 . S
C403 O413 1.265 . S
O404 C403 1.227 . S
N405 Co402 2.121 . S
N405 C407 1.375 . S
N405 C408 1.313 . S
C406 C407 1.338 . S
C406 N409 1.377 . S
C406 H426 0.930 . S
C407 N405 1.375 . S
C407 C406 1.338 . S
C407 H411 0.931 . S
C408 N405 1.313 . S
C408 N409 1.344 . S
C408 H412 0.930 . S
N409 C406 1.377 . S
N409 C408 1.344 . S
O410 Co402 2.055 . S
O410 C414 1.253 . S
H411 C407 0.931 . S
H412 C408 0.930 . S
O413 Co402 2.039 . S
O413 C403 1.265 . S
C414 O410 1.253 . S
C414 O415 1.227 . S
O415 C414 1.227 . S
N416 Co402 2.140 . S
N416 C419 1.346 . S
N416 C420 1.345 . S
C417 C418 1.387 . S
C417 C421 1.391 . S
C418 C417 1.387 . S
C418 C419 1.369 . S
C418 H427 0.929 . S
C419 N416 1.346 . S
C419 C418 1.369 . S
C419 H422 0.928 . S
C420 N416 1.345 . S
C420 C421 1.371 . S
C420 H423 0.931 . S
C421 C417 1.391 . S
C421 C420 1.371 . S
C421 H428 0.930 . S
H422 C419 0.928 . S
H423 C420 0.931 . S
H424 C400 0.930 . S
H425 C397 0.930 . S
H426 C406 0.930 . S
H427 C418 0.929 . S
H428 C421 0.930 . S
C429 C430 1.351 . S
C429 N432 1.368 . S
C429 H434 0.931 . S
C430 C429 1.351 . S
C430 N431 1.373 . S
C430 H458 0.930 . S
N431 C430 1.373 . S
N431 C433 1.340 . S
N432 C429 1.368 . S
N432 C433 1.321 . S
N432 Co435 2.135 . S
C433 N431 1.340 . S
C433 N432 1.321 . S
C433 H457 0.930 . S
H434 C429 0.931 . S
Co435 N432 2.135 . S
Co435 N438 2.121 . S
Co435 O443 2.055 . S
Co435 O446 2.039 . S
Co435 N449 2.140 . S
C436 O437 1.227 . S
C436 O446 1.265 . S
O437 C436 1.227 . S
N438 Co435 2.121 . S
N438 C440 1.375 . S
N438 C441 1.313 . S
C439 C440 1.338 . S
C439 N442 1.377 . S
C439 H459 0.930 . S
C440 N438 1.375 . S
C440 C439 1.338 . S
C440 H444 0.931 . S
C441 N438 1.313 . S
C441 N442 1.344 . S
C441 H445 0.930 . S
N442 C439 1.377 . S
N442 C441 1.344 . S
O443 Co435 2.055 . S
O443 C447 1.253 . S
H444 C440 0.931 . S
H445 C441 0.930 . S
O446 Co435 2.039 . S
O446 C436 1.265 . S
C447 O443 1.253 . S
C447 O448 1.227 . S
O448 C447 1.227 . S
N449 Co435 2.140 . S
N449 C452 1.346 . S
N449 C453 1.345 . S
C450 C451 1.387 . S
C450 C454 1.391 . S
C451 C450 1.387 . S
C451 C452 1.369 . S
C451 H460 0.929 . S
C452 N449 1.346 . S
C452 C451 1.369 . S
C452 H455 0.928 . S
C453 N449 1.345 . S
C453 C454 1.371 . S
C453 H456 0.931 . S
C454 C450 1.391 . S
C454 C453 1.371 . S
C454 H461 0.930 . S
H455 C452 0.928 . S
H456 C453 0.931 . S
H457 C433 0.930 . S
H458 C430 0.930 . S
H459 C439 0.930 . S
H460 C451 0.929 . S
H461 C454 0.930 . S
C462 C463 1.351 . S
C462 N465 1.368 . S
C462 H467 0.931 . S
C463 C462 1.351 . S
C463 N464 1.373 . S
C463 H491 0.930 . S
N464 C463 1.373 . S
N464 C466 1.340 . S
N465 C462 1.368 . S
N465 C466 1.321 . S
N465 Co468 2.135 . S
C466 N464 1.340 . S
C466 N465 1.321 . S
C466 H490 0.930 . S
H467 C462 0.931 . S
Co468 N465 2.135 . S
Co468 N471 2.121 . S
Co468 O476 2.055 . S
Co468 O479 2.039 . S
Co468 N482 2.140 . S
C469 O470 1.227 . S
C469 O479 1.265 . S
O470 C469 1.227 . S
N471 Co468 2.121 . S
N471 C473 1.375 . S
N471 C474 1.313 . S
C472 C473 1.338 . S
C472 N475 1.377 . S
C472 H492 0.930 . S
C473 N471 1.375 . S
C473 C472 1.338 . S
C473 H477 0.931 . S
C474 N471 1.313 . S
C474 N475 1.344 . S
C474 H478 0.930 . S
N475 C472 1.377 . S
N475 C474 1.344 . S
O476 Co468 2.055 . S
O476 C480 1.253 . S
H477 C473 0.931 . S
H478 C474 0.930 . S
O479 Co468 2.039 . S
O479 C469 1.265 . S
C480 O476 1.253 . S
C480 O481 1.227 . S
O481 C480 1.227 . S
N482 Co468 2.140 . S
N482 C485 1.346 . S
N482 C486 1.345 . S
C483 C484 1.387 . S
C483 C487 1.391 . S
C484 C483 1.387 . S
C484 C485 1.369 . S
C484 H493 0.929 . S
C485 N482 1.346 . S
C485 C484 1.369 . S
C485 H488 0.928 . S
C486 N482 1.345 . S
C486 C487 1.371 . S
C486 H489 0.931 . S
C487 C483 1.391 . S
C487 C486 1.371 . S
C487 H494 0.930 . S
H488 C485 0.928 . S
H489 C486 0.931 . S
H490 C466 0.930 . S
H491 C463 0.930 . S
H492 C472 0.930 . S
H493 C484 0.929 . S
H494 C487 0.930 . S
C495 C496 1.351 . S
C495 N498 1.368 . S
C495 H500 0.931 . S
C496 C495 1.351 . S
C496 N497 1.373 . S
C496 H524 0.930 . S
N497 C496 1.373 . S
N497 C499 1.340 . S
N498 C495 1.368 . S
N498 C499 1.321 . S
N498 Co501 2.135 . S
C499 N497 1.340 . S
C499 N498 1.321 . S
C499 H523 0.930 . S
H500 C495 0.931 . S
Co501 N498 2.135 . S
Co501 N504 2.121 . S
Co501 O509 2.055 . S
Co501 O512 2.039 . S
Co501 N515 2.140 . S
C502 O503 1.227 . S
C502 O512 1.265 . S
O503 C502 1.227 . S
N504 Co501 2.121 . S
N504 C506 1.375 . S
N504 C507 1.313 . S
C505 C506 1.338 . S
C505 N508 1.377 . S
C505 H525 0.930 . S
C506 N504 1.375 . S
C506 C505 1.338 . S
C506 H510 0.931 . S
C507 N504 1.313 . S
C507 N508 1.344 . S
C507 H511 0.930 . S
N508 C505 1.377 . S
N508 C507 1.344 . S
O509 Co501 2.055 . S
O509 C513 1.253 . S
H510 C506 0.931 . S
H511 C507 0.930 . S
O512 Co501 2.039 . S
O512 C502 1.265 . S
C513 O509 1.253 . S
C513 O514 1.227 . S
O514 C513 1.227 . S
N515 Co501 2.140 . S
N515 C518 1.346 . S
N515 C519 1.345 . S
C516 C517 1.387 . S
C516 C520 1.391 . S
C517 C516 1.387 . S
C517 C518 1.369 . S
C517 H526 0.929 . S
C518 N515 1.346 . S
C518 C517 1.369 . S
C518 H521 0.928 . S
C519 N515 1.345 . S
C519 C520 1.371 . S
C519 H522 0.931 . S
C520 C516 1.391 . S
C520 C519 1.371 . S
C520 H527 0.930 . S
H521 C518 0.928 . S
H522 C519 0.931 . S
H523 C499 0.930 . S
H524 C496 0.930 . S
H525 C505 0.930 . S
H526 C517 0.929 . S
H527 C520 0.930 . S
C528 C529 1.351 . S
C528 N531 1.368 . S
C528 H533 0.931 . S
C529 C528 1.351 . S
C529 N530 1.373 . S
C529 H557 0.930 . S
N530 C529 1.373 . S
N530 C532 1.340 . S
N531 C528 1.368 . S
N531 C532 1.321 . S
N531 Co534 2.135 . S
C532 N530 1.340 . S
C532 N531 1.321 . S
C532 H556 0.930 . S
H533 C528 0.931 . S
Co534 N531 2.135 . S
Co534 N537 2.121 . S
Co534 O542 2.055 . S
Co534 O545 2.039 . S
Co534 N548 2.140 . S
C535 O536 1.227 . S
C535 O545 1.265 . S
O536 C535 1.227 . S
N537 Co534 2.121 . S
N537 C539 1.375 . S
N537 C540 1.313 . S
C538 C539 1.338 . S
C538 N541 1.377 . S
C538 H558 0.930 . S
C539 N537 1.375 . S
C539 C538 1.338 . S
C539 H543 0.931 . S
C540 N537 1.313 . S
C540 N541 1.344 . S
C540 H544 0.930 . S
N541 C538 1.377 . S
N541 C540 1.344 . S
O542 Co534 2.055 . S
O542 C546 1.253 . S
H543 C539 0.931 . S
H544 C540 0.930 . S
O545 Co534 2.039 . S
O545 C535 1.265 . S
C546 O542 1.253 . S
C546 O547 1.227 . S
O547 C546 1.227 . S
N548 Co534 2.140 . S
N548 C551 1.346 . S
N548 C552 1.345 . S
C549 C550 1.387 . S
C549 C553 1.391 . S
C550 C549 1.387 . S
C550 C551 1.369 . S
C550 H559 0.929 . S
C551 N548 1.346 . S
C551 C550 1.369 . S
C551 H554 0.928 . S
C552 N548 1.345 . S
C552 C553 1.371 . S
C552 H555 0.931 . S
C553 C549 1.391 . S
C553 C552 1.371 . S
C553 H560 0.930 . S
H554 C551 0.928 . S
H555 C552 0.931 . S
H556 C532 0.930 . S
H557 C529 0.930 . S
H558 C538 0.930 . S
H559 C550 0.929 . S
H560 C553 0.930 . S
C561 C562 1.351 . S
C561 N564 1.368 . S
C561 H566 0.931 . S
C562 C561 1.351 . S
C562 N563 1.373 . S
C562 H590 0.930 . S
N563 C562 1.373 . S
N563 C565 1.340 . S
N564 C561 1.368 . S
N564 C565 1.321 . S
N564 Co567 2.135 . S
C565 N563 1.340 . S
C565 N564 1.321 . S
C565 H589 0.930 . S
H566 C561 0.931 . S
Co567 N564 2.135 . S
Co567 N570 2.121 . S
Co567 O575 2.055 . S
Co567 O578 2.039 . S
Co567 N581 2.140 . S
C568 O569 1.227 . S
C568 O578 1.265 . S
O569 C568 1.227 . S
N570 Co567 2.121 . S
N570 C572 1.375 . S
N570 C573 1.313 . S
C571 C572 1.338 . S
C571 N574 1.377 . S
C571 H591 0.930 . S
C572 N570 1.375 . S
C572 C571 1.338 . S
C572 H576 0.931 . S
C573 N570 1.313 . S
C573 N574 1.344 . S
C573 H577 0.930 . S
N574 C571 1.377 . S
N574 C573 1.344 . S
O575 Co567 2.055 . S
O575 C579 1.253 . S
H576 C572 0.931 . S
H577 C573 0.930 . S
O578 Co567 2.039 . S
O578 C568 1.265 . S
C579 O575 1.253 . S
C579 O580 1.227 . S
O580 C579 1.227 . S
N581 Co567 2.140 . S
N581 C584 1.346 . S
N581 C585 1.345 . S
C582 C583 1.387 . S
C582 C586 1.391 . S
C583 C582 1.387 . S
C583 C584 1.369 . S
C583 H592 0.929 . S
C584 N581 1.346 . S
C584 C583 1.369 . S
C584 H587 0.928 . S
C585 N581 1.345 . S
C585 C586 1.371 . S
C585 H588 0.931 . S
C586 C582 1.391 . S
C586 C585 1.371 . S
C586 H593 0.930 . S
H587 C584 0.928 . S
H588 C585 0.931 . S
H589 C565 0.930 . S
H590 C562 0.930 . S
H591 C571 0.930 . S
H592 C583 0.929 . S
H593 C586 0.930 . S
C594 C595 1.351 . S
C594 N597 1.368 . S
C594 H599 0.931 . S
C595 C594 1.351 . S
C595 N596 1.373 . S
C595 H623 0.930 . S
N596 C595 1.373 . S
N596 C598 1.340 . S
N597 C594 1.368 . S
N597 C598 1.321 . S
N597 Co600 2.135 . S
C598 N596 1.340 . S
C598 N597 1.321 . S
C598 H622 0.930 . S
H599 C594 0.931 . S
Co600 N597 2.135 . S
Co600 N603 2.121 . S
Co600 O608 2.055 . S
Co600 O611 2.039 . S
Co600 N614 2.140 . S
C601 O602 1.227 . S
C601 O611 1.265 . S
O602 C601 1.227 . S
N603 Co600 2.121 . S
N603 C605 1.375 . S
N603 C606 1.313 . S
C604 C605 1.338 . S
C604 N607 1.377 . S
C604 H624 0.930 . S
C605 N603 1.375 . S
C605 C604 1.338 . S
C605 H609 0.931 . S
C606 N603 1.313 . S
C606 N607 1.344 . S
C606 H610 0.930 . S
N607 C604 1.377 . S
N607 C606 1.344 . S
O608 Co600 2.055 . S
O608 C612 1.253 . S
H609 C605 0.931 . S
H610 C606 0.930 . S
O611 Co600 2.039 . S
O611 C601 1.265 . S
C612 O608 1.253 . S
C612 O613 1.227 . S
O613 C612 1.227 . S
N614 Co600 2.140 . S
N614 C617 1.346 . S
N614 C618 1.345 . S
C615 C616 1.387 . S
C615 C619 1.391 . S
C616 C615 1.387 . S
C616 C617 1.369 . S
C616 H625 0.929 . S
C617 N614 1.346 . S
C617 C616 1.369 . S
C617 H620 0.928 . S
C618 N614 1.345 . S
C618 C619 1.371 . S
C618 H621 0.931 . S
C619 C615 1.391 . S
C619 C618 1.371 . S
C619 H626 0.930 . S
H620 C617 0.928 . S
H621 C618 0.931 . S
H622 C598 0.930 . S
H623 C595 0.930 . S
H624 C604 0.930 . S
H625 C616 0.929 . S
H626 C619 0.930 . S
C627 C628 1.351 . S
C627 N630 1.368 . S
C627 H632 0.931 . S
C628 C627 1.351 . S
C628 N629 1.373 . S
C628 H656 0.930 . S
N629 C628 1.373 . S
N629 C631 1.340 . S
N630 C627 1.368 . S
N630 C631 1.321 . S
N630 Co633 2.135 . S
C631 N629 1.340 . S
C631 N630 1.321 . S
C631 H655 0.930 . S
H632 C627 0.931 . S
Co633 N630 2.135 . S
Co633 N636 2.121 . S
Co633 O641 2.055 . S
Co633 O644 2.039 . S
Co633 N647 2.140 . S
C634 O635 1.227 . S
C634 O644 1.265 . S
O635 C634 1.227 . S
N636 Co633 2.121 . S
N636 C638 1.375 . S
N636 C639 1.313 . S
C637 C638 1.338 . S
C637 N640 1.377 . S
C637 H657 0.930 . S
C638 N636 1.375 . S
C638 C637 1.338 . S
C638 H642 0.931 . S
C639 N636 1.313 . S
C639 N640 1.344 . S
C639 H643 0.930 . S
N640 C637 1.377 . S
N640 C639 1.344 . S
O641 Co633 2.055 . S
O641 C645 1.253 . S
H642 C638 0.931 . S
H643 C639 0.930 . S
O644 Co633 2.039 . S
O644 C634 1.265 . S
C645 O641 1.253 . S
C645 O646 1.227 . S
O646 C645 1.227 . S
N647 Co633 2.140 . S
N647 C650 1.346 . S
N647 C651 1.345 . S
C648 C649 1.387 . S
C648 C652 1.391 . S
C649 C648 1.387 . S
C649 C650 1.369 . S
C649 H658 0.929 . S
C650 N647 1.346 . S
C650 C649 1.369 . S
C650 H653 0.928 . S
C651 N647 1.345 . S
C651 C652 1.371 . S
C651 H654 0.931 . S
C652 C648 1.391 . S
C652 C651 1.371 . S
C652 H659 0.930 . S
H653 C650 0.928 . S
H654 C651 0.931 . S
H655 C631 0.930 . S
H656 C628 0.930 . S
H657 C637 0.930 . S
H658 C649 0.929 . S
H659 C652 0.930 . S
C660 C661 1.351 . S
C660 N663 1.368 . S
C660 H665 0.931 . S
C661 C660 1.351 . S
C661 N662 1.373 . S
C661 H689 0.930 . S
N662 C661 1.373 . S
N662 C664 1.340 . S
N663 C660 1.368 . S
N663 C664 1.321 . S
N663 Co666 2.135 . S
C664 N662 1.340 . S
C664 N663 1.321 . S
C664 H688 0.930 . S
H665 C660 0.931 . S
Co666 N663 2.135 . S
Co666 N669 2.121 . S
Co666 O674 2.055 . S
Co666 O677 2.039 . S
Co666 N680 2.140 . S
C667 O668 1.227 . S
C667 O677 1.265 . S
O668 C667 1.227 . S
N669 Co666 2.121 . S
N669 C671 1.375 . S
N669 C672 1.313 . S
C670 C671 1.338 . S
C670 N673 1.377 . S
C670 H690 0.930 . S
C671 N669 1.375 . S
C671 C670 1.338 . S
C671 H675 0.931 . S
C672 N669 1.313 . S
C672 N673 1.344 . S
C672 H676 0.930 . S
N673 C670 1.377 . S
N673 C672 1.344 . S
O674 Co666 2.055 . S
O674 C678 1.253 . S
H675 C671 0.931 . S
H676 C672 0.930 . S
O677 Co666 2.039 . S
O677 C667 1.265 . S
C678 O674 1.253 . S
C678 O679 1.227 . S
O679 C678 1.227 . S
N680 Co666 2.140 . S
N680 C683 1.346 . S
N680 C684 1.345 . S
C681 C682 1.387 . S
C681 C685 1.391 . S
C682 C681 1.387 . S
C682 C683 1.369 . S
C682 H691 0.929 . S
C683 N680 1.346 . S
C683 C682 1.369 . S
C683 H686 0.928 . S
C684 N680 1.345 . S
C684 C685 1.371 . S
C684 H687 0.931 . S
C685 C681 1.391 . S
C685 C684 1.371 . S
C685 H692 0.930 . S
H686 C683 0.928 . S
H687 C684 0.931 . S
H688 C664 0.930 . S
H689 C661 0.930 . S
H690 C670 0.930 . S
H691 C682 0.929 . S
H692 C685 0.930 . S
C693 C694 1.351 . S
C693 N696 1.368 . S
C693 H698 0.931 . S
C694 C693 1.351 . S
C694 N695 1.373 . S
C694 H722 0.930 . S
N695 C694 1.373 . S
N695 C697 1.340 . S
N696 C693 1.368 . S
N696 C697 1.321 . S
N696 Co699 2.135 . S
C697 N695 1.340 . S
C697 N696 1.321 . S
C697 H721 0.930 . S
H698 C693 0.931 . S
Co699 N696 2.135 . S
Co699 N702 2.121 . S
Co699 O707 2.055 . S
Co699 O710 2.039 . S
Co699 N713 2.140 . S
C700 O701 1.227 . S
C700 O710 1.265 . S
O701 C700 1.227 . S
N702 Co699 2.121 . S
N702 C704 1.375 . S
N702 C705 1.313 . S
C703 C704 1.338 . S
C703 N706 1.377 . S
C703 H723 0.930 . S
C704 N702 1.375 . S
C704 C703 1.338 . S
C704 H708 0.931 . S
C705 N702 1.313 . S
C705 N706 1.344 . S
C705 H709 0.930 . S
N706 C703 1.377 . S
N706 C705 1.344 . S
O707 Co699 2.055 . S
O707 C711 1.253 . S
H708 C704 0.931 . S
H709 C705 0.930 . S
O710 Co699 2.039 . S
O710 C700 1.265 . S
C711 O707 1.253 . S
C711 O712 1.227 . S
O712 C711 1.227 . S
N713 Co699 2.140 . S
N713 C716 1.346 . S
N713 C717 1.345 . S
C714 C715 1.387 . S
C714 C718 1.391 . S
C715 C714 1.387 . S
C715 C716 1.369 . S
C715 H724 0.929 . S
C716 N713 1.346 . S
C716 C715 1.369 . S
C716 H719 0.928 . S
C717 N713 1.345 . S
C717 C718 1.371 . S
C717 H720 0.931 . S
C718 C714 1.391 . S
C718 C717 1.371 . S
C718 H725 0.930 . S
H719 C716 0.928 . S
H720 C717 0.931 . S
H721 C697 0.930 . S
H722 C694 0.930 . S
H723 C703 0.930 . S
H724 C715 0.929 . S
H725 C718 0.930 . S
C726 C727 1.351 . S
C726 N729 1.368 . S
C726 H731 0.931 . S
C727 C726 1.351 . S
C727 N728 1.373 . S
C727 H755 0.930 . S
N728 C727 1.373 . S
N728 C730 1.340 . S
N729 C726 1.368 . S
N729 C730 1.321 . S
N729 Co732 2.135 . S
C730 N728 1.340 . S
C730 N729 1.321 . S
C730 H754 0.930 . S
H731 C726 0.931 . S
Co732 N729 2.135 . S
Co732 N735 2.121 . S
Co732 O740 2.055 . S
Co732 O743 2.039 . S
Co732 N746 2.140 . S
C733 O734 1.227 . S
C733 O743 1.265 . S
O734 C733 1.227 . S
N735 Co732 2.121 . S
N735 C737 1.375 . S
N735 C738 1.313 . S
C736 C737 1.338 . S
C736 N739 1.377 . S
C736 H756 0.930 . S
C737 N735 1.375 . S
C737 C736 1.338 . S
C737 H741 0.931 . S
C738 N735 1.313 . S
C738 N739 1.344 . S
C738 H742 0.930 . S
N739 C736 1.377 . S
N739 C738 1.344 . S
O740 Co732 2.055 . S
O740 C744 1.253 . S
H741 C737 0.931 . S
H742 C738 0.930 . S
O743 Co732 2.039 . S
O743 C733 1.265 . S
C744 O740 1.253 . S
C744 O745 1.227 . S
O745 C744 1.227 . S
N746 Co732 2.140 . S
N746 C749 1.346 . S
N746 C750 1.345 . S
C747 C748 1.387 . S
C747 C751 1.391 . S
C748 C747 1.387 . S
C748 C749 1.369 . S
C748 H757 0.929 . S
C749 N746 1.346 . S
C749 C748 1.369 . S
C749 H752 0.928 . S
C750 N746 1.345 . S
C750 C751 1.371 . S
C750 H753 0.931 . S
C751 C747 1.391 . S
C751 C750 1.371 . S
C751 H758 0.930 . S
H752 C749 0.928 . S
H753 C750 0.931 . S
H754 C730 0.930 . S
H755 C727 0.930 . S
H756 C736 0.930 . S
H757 C748 0.929 . S
H758 C751 0.930 . S
C759 C760 1.351 . S
C759 N762 1.368 . S
C759 H764 0.931 . S
C760 C759 1.351 . S
C760 N761 1.373 . S
C760 H788 0.930 . S
N761 C760 1.373 . S
N761 C763 1.340 . S
N762 C759 1.368 . S
N762 C763 1.321 . S
N762 Co765 2.135 . S
C763 N761 1.340 . S
C763 N762 1.321 . S
C763 H787 0.930 . S
H764 C759 0.931 . S
Co765 N762 2.135 . S
Co765 N768 2.121 . S
Co765 O773 2.055 . S
Co765 O776 2.039 . S
Co765 N779 2.140 . S
C766 O767 1.227 . S
C766 O776 1.265 . S
O767 C766 1.227 . S
N768 Co765 2.121 . S
N768 C770 1.375 . S
N768 C771 1.313 . S
C769 C770 1.338 . S
C769 N772 1.377 . S
C769 H789 0.930 . S
C770 N768 1.375 . S
C770 C769 1.338 . S
C770 H774 0.931 . S
C771 N768 1.313 . S
C771 N772 1.344 . S
C771 H775 0.930 . S
N772 C769 1.377 . S
N772 C771 1.344 . S
O773 Co765 2.055 . S
O773 C777 1.253 . S
H774 C770 0.931 . S
H775 C771 0.930 . S
O776 Co765 2.039 . S
O776 C766 1.265 . S
C777 O773 1.253 . S
C777 O778 1.227 . S
O778 C777 1.227 . S
N779 Co765 2.140 . S
N779 C782 1.346 . S
N779 C783 1.345 . S
C780 C781 1.387 . S
C780 C784 1.391 . S
C781 C780 1.387 . S
C781 C782 1.369 . S
C781 H790 0.929 . S
C782 N779 1.346 . S
C782 C781 1.369 . S
C782 H785 0.928 . S
C783 N779 1.345 . S
C783 C784 1.371 . S
C783 H786 0.931 . S
C784 C780 1.391 . S
C784 C783 1.371 . S
C784 H791 0.930 . S
H785 C782 0.928 . S
H786 C783 0.931 . S
H787 C763 0.930 . S
H788 C760 0.930 . S
H789 C769 0.930 . S
H790 C781 0.929 . S
H791 C784 0.930 . S
C792 C793 1.351 . S
C792 N795 1.368 . S
C792 H797 0.931 . S
C793 C792 1.351 . S
C793 N794 1.373 . S
C793 H821 0.930 . S
N794 C793 1.373 . S
N794 C796 1.340 . S
N795 C792 1.368 . S
N795 C796 1.321 . S
N795 Co798 2.135 . S
C796 N794 1.340 . S
C796 N795 1.321 . S
C796 H820 0.930 . S
H797 C792 0.931 . S
Co798 N795 2.135 . S
Co798 N801 2.121 . S
Co798 O806 2.055 . S
Co798 O809 2.039 . S
Co798 N812 2.140 . S
C799 O800 1.227 . S
C799 O809 1.265 . S
O800 C799 1.227 . S
N801 Co798 2.121 . S
N801 C803 1.375 . S
N801 C804 1.313 . S
C802 C803 1.338 . S
C802 N805 1.377 . S
C802 H822 0.930 . S
C803 N801 1.375 . S
C803 C802 1.338 . S
C803 H807 0.931 . S
C804 N801 1.313 . S
C804 N805 1.344 . S
C804 H808 0.930 . S
N805 C802 1.377 . S
N805 C804 1.344 . S
O806 Co798 2.055 . S
O806 C810 1.253 . S
H807 C803 0.931 . S
H808 C804 0.930 . S
O809 Co798 2.039 . S
O809 C799 1.265 . S
C810 O806 1.253 . S
C810 O811 1.227 . S
O811 C810 1.227 . S
N812 Co798 2.140 . S
N812 C815 1.346 . S
N812 C816 1.345 . S
C813 C814 1.387 . S
C813 C817 1.391 . S
C814 C813 1.387 . S
C814 C815 1.369 . S
C814 H823 0.929 . S
C815 N812 1.346 . S
C815 C814 1.369 . S
C815 H818 0.928 . S
C816 N812 1.345 . S
C816 C817 1.371 . S
C816 H819 0.931 . S
C817 C813 1.391 . S
C817 C816 1.371 . S
C817 H824 0.930 . S
H818 C815 0.928 . S
H819 C816 0.931 . S
H820 C796 0.930 . S
H821 C793 0.930 . S
H822 C802 0.930 . S
H823 C814 0.929 . S
H824 C817 0.930 . S
C825 C826 1.351 . S
C825 N828 1.368 . S
C825 H830 0.931 . S
C826 C825 1.351 . S
C826 N827 1.373 . S
C826 H854 0.930 . S
N827 C826 1.373 . S
N827 C829 1.340 . S
N828 C825 1.368 . S
N828 C829 1.321 . S
N828 Co831 2.135 . S
C829 N827 1.340 . S
C829 N828 1.321 . S
C829 H853 0.930 . S
H830 C825 0.931 . S
Co831 N828 2.135 . S
Co831 N834 2.121 . S
Co831 O839 2.055 . S
Co831 O842 2.039 . S
Co831 N845 2.140 . S
C832 O833 1.227 . S
C832 O842 1.265 . S
O833 C832 1.227 . S
N834 Co831 2.121 . S
N834 C836 1.375 . S
N834 C837 1.313 . S
C835 C836 1.338 . S
C835 N838 1.377 . S
C835 H855 0.930 . S
C836 N834 1.375 . S
C836 C835 1.338 . S
C836 H840 0.931 . S
C837 N834 1.313 . S
C837 N838 1.344 . S
C837 H841 0.930 . S
N838 C835 1.377 . S
N838 C837 1.344 . S
O839 Co831 2.055 . S
O839 C843 1.253 . S
H840 C836 0.931 . S
H841 C837 0.930 . S
O842 Co831 2.039 . S
O842 C832 1.265 . S
C843 O839 1.253 . S
C843 O844 1.227 . S
O844 C843 1.227 . S
N845 Co831 2.140 . S
N845 C848 1.346 . S
N845 C849 1.345 . S
C846 C847 1.387 . S
C846 C850 1.391 . S
C847 C846 1.387 . S
C847 C848 1.369 . S
C847 H856 0.929 . S
C848 N845 1.346 . S
C848 C847 1.369 . S
C848 H851 0.928 . S
C849 N845 1.345 . S
C849 C850 1.371 . S
C849 H852 0.931 . S
C850 C846 1.391 . S
C850 C849 1.371 . S
C850 H857 0.930 . S
H851 C848 0.928 . S
H852 C849 0.931 . S
H853 C829 0.930 . S
H854 C826 0.930 . S
H855 C835 0.930 . S
H856 C847 0.929 . S
H857 C850 0.930 . S
C858 C859 1.351 . S
C858 N861 1.368 . S
C858 H863 0.931 . S
C859 C858 1.351 . S
C859 N860 1.373 . S
C859 H887 0.930 . S
N860 C859 1.373 . S
N860 C862 1.340 . S
N861 C858 1.368 . S
N861 C862 1.321 . S
N861 Co864 2.135 . S
C862 N860 1.340 . S
C862 N861 1.321 . S
C862 H886 0.930 . S
H863 C858 0.931 . S
Co864 N861 2.135 . S
Co864 N867 2.121 . S
Co864 O872 2.055 . S
Co864 O875 2.039 . S
Co864 N878 2.140 . S
C865 O866 1.227 . S
C865 O875 1.265 . S
O866 C865 1.227 . S
N867 Co864 2.121 . S
N867 C869 1.375 . S
N867 C870 1.313 . S
C868 C869 1.338 . S
C868 N871 1.377 . S
C868 H888 0.930 . S
C869 N867 1.375 . S
C869 C868 1.338 . S
C869 H873 0.931 . S
C870 N867 1.313 . S
C870 N871 1.344 . S
C870 H874 0.930 . S
N871 C868 1.377 . S
N871 C870 1.344 . S
O872 Co864 2.055 . S
O872 C876 1.253 . S
H873 C869 0.931 . S
H874 C870 0.930 . S
O875 Co864 2.039 . S
O875 C865 1.265 . S
C876 O872 1.253 . S
C876 O877 1.227 . S
O877 C876 1.227 . S
N878 Co864 2.140 . S
N878 C881 1.346 . S
N878 C882 1.345 . S
C879 C880 1.387 . S
C879 C883 1.391 . S
C880 C879 1.387 . S
C880 C881 1.369 . S
C880 H889 0.929 . S
C881 N878 1.346 . S
C881 C880 1.369 . S
C881 H884 0.928 . S
C882 N878 1.345 . S
C882 C883 1.371 . S
C882 H885 0.931 . S
C883 C879 1.391 . S
C883 C882 1.371 . S
C883 H890 0.930 . S
H884 C881 0.928 . S
H885 C882 0.931 . S
H886 C862 0.930 . S
H887 C859 0.930 . S
H888 C868 0.930 . S
H889 C880 0.929 . S
H890 C883 0.930 . S
C891 C892 1.351 . S
C891 N894 1.368 . S
C891 H896 0.931 . S
C892 C891 1.351 . S
C892 N893 1.373 . S
C892 H920 0.930 . S
N893 C892 1.373 . S
N893 C895 1.340 . S
N894 C891 1.368 . S
N894 C895 1.321 . S
N894 Co897 2.135 . S
C895 N893 1.340 . S
C895 N894 1.321 . S
C895 H919 0.930 . S
H896 C891 0.931 . S
Co897 N894 2.135 . S
Co897 N900 2.121 . S
Co897 O905 2.055 . S
Co897 O908 2.039 . S
Co897 N911 2.140 . S
C898 O899 1.227 . S
C898 O908 1.265 . S
O899 C898 1.227 . S
N900 Co897 2.121 . S
N900 C902 1.375 . S
N900 C903 1.313 . S
C901 C902 1.338 . S
C901 N904 1.377 . S
C901 H921 0.930 . S
C902 N900 1.375 . S
C902 C901 1.338 . S
C902 H906 0.931 . S
C903 N900 1.313 . S
C903 N904 1.344 . S
C903 H907 0.930 . S
N904 C901 1.377 . S
N904 C903 1.344 . S
O905 Co897 2.055 . S
O905 C909 1.253 . S
H906 C902 0.931 . S
H907 C903 0.930 . S
O908 Co897 2.039 . S
O908 C898 1.265 . S
C909 O905 1.253 . S
C909 O910 1.227 . S
O910 C909 1.227 . S
N911 Co897 2.140 . S
N911 C914 1.346 . S
N911 C915 1.345 . S
C912 C913 1.387 . S
C912 C916 1.391 . S
C913 C912 1.387 . S
C913 C914 1.369 . S
C913 H922 0.929 . S
C914 N911 1.346 . S
C914 C913 1.369 . S
C914 H917 0.928 . S
C915 N911 1.345 . S
C915 C916 1.371 . S
C915 H918 0.931 . S
C916 C912 1.391 . S
C916 C915 1.371 . S
C916 H923 0.930 . S
H917 C914 0.928 . S
H918 C915 0.931 . S
H919 C895 0.930 . S
H920 C892 0.930 . S
H921 C901 0.930 . S
H922 C913 0.929 . S
H923 C916 0.930 . S
C924 C925 1.351 . S
C924 N927 1.368 . S
C924 H929 0.931 . S
C925 C924 1.351 . S
C925 N926 1.373 . S
C925 H953 0.930 . S
N926 C925 1.373 . S
N926 C928 1.340 . S
N927 C924 1.368 . S
N927 C928 1.321 . S
N927 Co930 2.135 . S
C928 N926 1.340 . S
C928 N927 1.321 . S
C928 H952 0.930 . S
H929 C924 0.931 . S
Co930 N927 2.135 . S
Co930 N933 2.121 . S
Co930 O938 2.055 . S
Co930 O941 2.039 . S
Co930 N944 2.140 . S
C931 O932 1.227 . S
C931 O941 1.265 . S
O932 C931 1.227 . S
N933 Co930 2.121 . S
N933 C935 1.375 . S
N933 C936 1.313 . S
C934 C935 1.338 . S
C934 N937 1.377 . S
C934 H954 0.930 . S
C935 N933 1.375 . S
C935 C934 1.338 . S
C935 H939 0.931 . S
C936 N933 1.313 . S
C936 N937 1.344 . S
C936 H940 0.930 . S
N937 C934 1.377 . S
N937 C936 1.344 . S
O938 Co930 2.055 . S
O938 C942 1.253 . S
H939 C935 0.931 . S
H940 C936 0.930 . S
O941 Co930 2.039 . S
O941 C931 1.265 . S
C942 O938 1.253 . S
C942 O943 1.227 . S
O943 C942 1.227 . S
N944 Co930 2.140 . S
N944 C947 1.346 . S
N944 C948 1.345 . S
C945 C946 1.387 . S
C945 C949 1.391 . S
C946 C945 1.387 . S
C946 C947 1.369 . S
C946 H955 0.929 . S
C947 N944 1.346 . S
C947 C946 1.369 . S
C947 H950 0.928 . S
C948 N944 1.345 . S
C948 C949 1.371 . S
C948 H951 0.931 . S
C949 C945 1.391 . S
C949 C948 1.371 . S
C949 H956 0.930 . S
H950 C947 0.928 . S
H951 C948 0.931 . S
H952 C928 0.930 . S
H953 C925 0.930 . S
H954 C934 0.930 . S
H955 C946 0.929 . S
H956 C949 0.930 . S
C957 C958 1.351 . S
C957 N960 1.368 . S
C957 H962 0.931 . S
C958 C957 1.351 . S
C958 N959 1.373 . S
C958 H986 0.930 . S
N959 C958 1.373 . S
N959 C961 1.340 . S
N960 C957 1.368 . S
N960 C961 1.321 . S
N960 Co963 2.135 . S
C961 N959 1.340 . S
C961 N960 1.321 . S
C961 H985 0.930 . S
H962 C957 0.931 . S
Co963 N960 2.135 . S
Co963 N966 2.121 . S
Co963 O971 2.055 . S
Co963 O974 2.039 . S
Co963 N977 2.140 . S
C964 O965 1.227 . S
C964 O974 1.265 . S
O965 C964 1.227 . S
N966 Co963 2.121 . S
N966 C968 1.375 . S
N966 C969 1.313 . S
C967 C968 1.338 . S
C967 N970 1.377 . S
C967 H987 0.930 . S
C968 N966 1.375 . S
C968 C967 1.338 . S
C968 H972 0.931 . S
C969 N966 1.313 . S
C969 N970 1.344 . S
C969 H973 0.930 . S
N970 C967 1.377 . S
N970 C969 1.344 . S
O971 Co963 2.055 . S
O971 C975 1.253 . S
H972 C968 0.931 . S
H973 C969 0.930 . S
O974 Co963 2.039 . S
O974 C964 1.265 . S
C975 O971 1.253 . S
C975 O976 1.227 . S
O976 C975 1.227 . S
N977 Co963 2.140 . S
N977 C980 1.346 . S
N977 C981 1.345 . S
C978 C979 1.387 . S
C978 C982 1.391 . S
C979 C978 1.387 . S
C979 C980 1.369 . S
C979 H988 0.929 . S
C980 N977 1.346 . S
C980 C979 1.369 . S
C980 H983 0.928 . S
C981 N977 1.345 . S
C981 C982 1.371 . S
C981 H984 0.931 . S
C982 C978 1.391 . S
C982 C981 1.371 . S
C982 H989 0.930 . S
H983 C980 0.928 . S
H984 C981 0.931 . S
H985 C961 0.930 . S
H986 C958 0.930 . S
H987 C967 0.930 . S
H988 C979 0.929 . S
H989 C982 0.930 . S
C990 C991 1.351 . S
C990 N993 1.368 . S
C990 H995 0.931 . S
C991 C990 1.351 . S
C991 N992 1.373 . S
C991 H1019 0.930 . S
N992 C991 1.373 . S
N992 C994 1.340 . S
N993 C990 1.368 . S
N993 C994 1.321 . S
N993 Co996 2.135 . S
C994 N992 1.340 . S
C994 N993 1.321 . S
C994 H1018 0.930 . S
H995 C990 0.931 . S
Co996 N993 2.135 . S
Co996 N999 2.121 . S
Co996 O1004 2.055 . S
Co996 O1007 2.039 . S
Co996 N1010 2.140 . S
C997 O998 1.227 . S
C997 O1007 1.265 . S
O998 C997 1.227 . S
N999 Co996 2.121 . S
N999 C1001 1.375 . S
N999 C1002 1.313 . S
C1000 C1001 1.338 . S
C1000 N1003 1.377 . S
C1000 H1020 0.930 . S
C1001 N999 1.375 . S
C1001 C1000 1.338 . S
C1001 H1005 0.931 . S
C1002 N999 1.313 . S
C1002 N1003 1.344 . S
C1002 H1006 0.930 . S
N1003 C1000 1.377 . S
N1003 C1002 1.344 . S
O1004 Co996 2.055 . S
O1004 C1008 1.253 . S
H1005 C1001 0.931 . S
H1006 C1002 0.930 . S
O1007 Co996 2.039 . S
O1007 C997 1.265 . S
C1008 O1004 1.253 . S
C1008 O1009 1.227 . S
O1009 C1008 1.227 . S
N1010 Co996 2.140 . S
N1010 C1013 1.346 . S
N1010 C1014 1.345 . S
C1011 C1012 1.387 . S
C1011 C1015 1.391 . S
C1012 C1011 1.387 . S
C1012 C1013 1.369 . S
C1012 H1021 0.929 . S
C1013 N1010 1.346 . S
C1013 C1012 1.369 . S
C1013 H1016 0.928 . S
C1014 N1010 1.345 . S
C1014 C1015 1.371 . S
C1014 H1017 0.931 . S
C1015 C1011 1.391 . S
C1015 C1014 1.371 . S
C1015 H1022 0.930 . S
H1016 C1013 0.928 . S
H1017 C1014 0.931 . S
H1018 C994 0.930 . S
H1019 C991 0.930 . S
H1020 C1000 0.930 . S
H1021 C1012 0.929 . S
H1022 C1015 0.930 . S
C1023 C1024 1.351 . S
C1023 N1026 1.368 . S
C1023 H1028 0.931 . S
C1024 C1023 1.351 . S
C1024 N1025 1.373 . S
C1024 H1052 0.930 . S
N1025 C1024 1.373 . S
N1025 C1027 1.340 . S
N1026 C1023 1.368 . S
N1026 C1027 1.321 . S
N1026 Co1029 2.135 . S
C1027 N1025 1.340 . S
C1027 N1026 1.321 . S
C1027 H1051 0.930 . S
H1028 C1023 0.931 . S
Co1029 N1026 2.135 . S
Co1029 N1032 2.121 . S
Co1029 O1037 2.055 . S
Co1029 O1040 2.039 . S
Co1029 N1043 2.140 . S
C1030 O1031 1.227 . S
C1030 O1040 1.265 . S
O1031 C1030 1.227 . S
N1032 Co1029 2.121 . S
N1032 C1034 1.375 . S
N1032 C1035 1.313 . S
C1033 C1034 1.338 . S
C1033 N1036 1.377 . S
C1033 H1053 0.930 . S
C1034 N1032 1.375 . S
C1034 C1033 1.338 . S
C1034 H1038 0.931 . S
C1035 N1032 1.313 . S
C1035 N1036 1.344 . S
C1035 H1039 0.930 . S
N1036 C1033 1.377 . S
N1036 C1035 1.344 . S
O1037 Co1029 2.055 . S
O1037 C1041 1.253 . S
H1038 C1034 0.931 . S
H1039 C1035 0.930 . S
O1040 Co1029 2.039 . S
O1040 C1030 1.265 . S
C1041 O1037 1.253 . S
C1041 O1042 1.227 . S
O1042 C1041 1.227 . S
N1043 Co1029 2.140 . S
N1043 C1046 1.346 . S
N1043 C1047 1.345 . S
C1044 C1045 1.387 . S
C1044 C1048 1.391 . S
C1045 C1044 1.387 . S
C1045 C1046 1.369 . S
C1045 H1054 0.929 . S
C1046 N1043 1.346 . S
C1046 C1045 1.369 . S
C1046 H1049 0.928 . S
C1047 N1043 1.345 . S
C1047 C1048 1.371 . S
C1047 H1050 0.931 . S
C1048 C1044 1.391 . S
C1048 C1047 1.371 . S
C1048 H1055 0.930 . S
H1049 C1046 0.928 . S
H1050 C1047 0.931 . S
H1051 C1027 0.930 . S
H1052 C1024 0.930 . S
H1053 C1033 0.930 . S
H1054 C1045 0.929 . S
H1055 C1048 0.930 . S
C1056 C1057 1.351 . S
C1056 N1059 1.368 . S
C1056 H1061 0.931 . S
C1057 C1056 1.351 . S
C1057 N1058 1.373 . S
C1057 H1085 0.930 . S
N1058 C1057 1.373 . S
N1058 C1060 1.340 . S
N1059 C1056 1.368 . S
N1059 C1060 1.321 . S
N1059 Co1062 2.135 . S
C1060 N1058 1.340 . S
C1060 N1059 1.321 . S
C1060 H1084 0.930 . S
H1061 C1056 0.931 . S
Co1062 N1059 2.135 . S
Co1062 N1065 2.121 . S
Co1062 O1070 2.055 . S
Co1062 O1073 2.039 . S
Co1062 N1076 2.140 . S
C1063 O1064 1.227 . S
C1063 O1073 1.265 . S
O1064 C1063 1.227 . S
N1065 Co1062 2.121 . S
N1065 C1067 1.375 . S
N1065 C1068 1.313 . S
C1066 C1067 1.338 . S
C1066 N1069 1.377 . S
C1066 H1086 0.930 . S
C1067 N1065 1.375 . S
C1067 C1066 1.338 . S
C1067 H1071 0.931 . S
C1068 N1065 1.313 . S
C1068 N1069 1.344 . S
C1068 H1072 0.930 . S
N1069 C1066 1.377 . S
N1069 C1068 1.344 . S
O1070 Co1062 2.055 . S
O1070 C1074 1.253 . S
H1071 C1067 0.931 . S
H1072 C1068 0.930 . S
O1073 Co1062 2.039 . S
O1073 C1063 1.265 . S
C1074 O1070 1.253 . S
C1074 O1075 1.227 . S
O1075 C1074 1.227 . S
N1076 Co1062 2.140 . S
N1076 C1079 1.346 . S
N1076 C1080 1.345 . S
C1077 C1078 1.387 . S
C1077 C1081 1.391 . S
C1078 C1077 1.387 . S
C1078 C1079 1.369 . S
C1078 H1087 0.929 . S
C1079 N1076 1.346 . S
C1079 C1078 1.369 . S
C1079 H1082 0.928 . S
C1080 N1076 1.345 . S
C1080 C1081 1.371 . S
C1080 H1083 0.931 . S
C1081 C1077 1.391 . S
C1081 C1080 1.371 . S
C1081 H1088 0.930 . S
H1082 C1079 0.928 . S
H1083 C1080 0.931 . S
H1084 C1060 0.930 . S
H1085 C1057 0.930 . S
H1086 C1066 0.930 . S
H1087 C1078 0.929 . S
H1088 C1081 0.930 . S
C1089 C1090 1.351 . S
C1089 N1092 1.368 . S
C1089 H1094 0.931 . S
C1090 C1089 1.351 . S
C1090 N1091 1.373 . S
C1090 H1118 0.930 . S
N1091 C1090 1.373 . S
N1091 C1093 1.340 . S
N1092 C1089 1.368 . S
N1092 C1093 1.321 . S
N1092 Co1095 2.135 . S
C1093 N1091 1.340 . S
C1093 N1092 1.321 . S
C1093 H1117 0.930 . S
H1094 C1089 0.931 . S
Co1095 N1092 2.135 . S
Co1095 N1098 2.121 . S
Co1095 O1103 2.055 . S
Co1095 O1106 2.039 . S
Co1095 N1109 2.140 . S
C1096 O1097 1.227 . S
C1096 O1106 1.265 . S
O1097 C1096 1.227 . S
N1098 Co1095 2.121 . S
N1098 C1100 1.375 . S
N1098 C1101 1.313 . S
C1099 C1100 1.338 . S
C1099 N1102 1.377 . S
C1099 H1119 0.930 . S
C1100 N1098 1.375 . S
C1100 C1099 1.338 . S
C1100 H1104 0.931 . S
C1101 N1098 1.313 . S
C1101 N1102 1.344 . S
C1101 H1105 0.930 . S
N1102 C1099 1.377 . S
N1102 C1101 1.344 . S
O1103 Co1095 2.055 . S
O1103 C1107 1.253 . S
H1104 C1100 0.931 . S
H1105 C1101 0.930 . S
O1106 Co1095 2.039 . S
O1106 C1096 1.265 . S
C1107 O1103 1.253 . S
C1107 O1108 1.227 . S
O1108 C1107 1.227 . S
N1109 Co1095 2.140 . S
N1109 C1112 1.346 . S
N1109 C1113 1.345 . S
C1110 C1111 1.387 . S
C1110 C1114 1.391 . S
C1111 C1110 1.387 . S
C1111 C1112 1.369 . S
C1111 H1120 0.929 . S
C1112 N1109 1.346 . S
C1112 C1111 1.369 . S
C1112 H1115 0.928 . S
C1113 N1109 1.345 . S
C1113 C1114 1.371 . S
C1113 H1116 0.931 . S
C1114 C1110 1.391 . S
C1114 C1113 1.371 . S
C1114 H1121 0.930 . S
H1115 C1112 0.928 . S
H1116 C1113 0.931 . S
H1117 C1093 0.930 . S
H1118 C1090 0.930 . S
H1119 C1099 0.930 . S
H1120 C1111 0.929 . S
H1121 C1114 0.930 . S
C1122 C1123 1.351 . S
C1122 N1125 1.368 . S
C1122 H1127 0.931 . S
C1123 C1122 1.351 . S
C1123 N1124 1.373 . S
C1123 H1151 0.930 . S
N1124 C1123 1.373 . S
N1124 C1126 1.340 . S
N1125 C1122 1.368 . S
N1125 C1126 1.321 . S
N1125 Co1128 2.135 . S
C1126 N1124 1.340 . S
C1126 N1125 1.321 . S
C1126 H1150 0.930 . S
H1127 C1122 0.931 . S
Co1128 N1125 2.135 . S
Co1128 N1131 2.121 . S
Co1128 O1136 2.055 . S
Co1128 O1139 2.039 . S
Co1128 N1142 2.140 . S
C1129 O1130 1.227 . S
C1129 O1139 1.265 . S
O1130 C1129 1.227 . S
N1131 Co1128 2.121 . S
N1131 C1133 1.375 . S
N1131 C1134 1.313 . S
C1132 C1133 1.338 . S
C1132 N1135 1.377 . S
C1132 H1152 0.930 . S
C1133 N1131 1.375 . S
C1133 C1132 1.338 . S
C1133 H1137 0.931 . S
C1134 N1131 1.313 . S
C1134 N1135 1.344 . S
C1134 H1138 0.930 . S
N1135 C1132 1.377 . S
N1135 C1134 1.344 . S
O1136 Co1128 2.055 . S
O1136 C1140 1.253 . S
H1137 C1133 0.931 . S
H1138 C1134 0.930 . S
O1139 Co1128 2.039 . S
O1139 C1129 1.265 . S
C1140 O1136 1.253 . S
C1140 O1141 1.227 . S
O1141 C1140 1.227 . S
N1142 Co1128 2.140 . S
N1142 C1145 1.346 . S
N1142 C1146 1.345 . S
C1143 C1144 1.387 . S
C1143 C1147 1.391 . S
C1144 C1143 1.387 . S
C1144 C1145 1.369 . S
C1144 H1153 0.929 . S
C1145 N1142 1.346 . S
C1145 C1144 1.369 . S
C1145 H1148 0.928 . S
C1146 N1142 1.345 . S
C1146 C1147 1.371 . S
C1146 H1149 0.931 . S
C1147 C1143 1.391 . S
C1147 C1146 1.371 . S
C1147 H1154 0.930 . S
H1148 C1145 0.928 . S
H1149 C1146 0.931 . S
H1150 C1126 0.930 . S
H1151 C1123 0.930 . S
H1152 C1132 0.930 . S
H1153 C1144 0.929 . S
H1154 C1147 0.930 . S
C1155 C1156 1.351 . S
C1155 N1158 1.368 . S
C1155 H1160 0.931 . S
C1156 C1155 1.351 . S
C1156 N1157 1.373 . S
C1156 H1184 0.930 . S
N1157 C1156 1.373 . S
N1157 C1159 1.340 . S
N1158 C1155 1.368 . S
N1158 C1159 1.321 . S
N1158 Co1161 2.135 . S
C1159 N1157 1.340 . S
C1159 N1158 1.321 . S
C1159 H1183 0.930 . S
H1160 C1155 0.931 . S
Co1161 N1158 2.135 . S
Co1161 N1164 2.121 . S
Co1161 O1169 2.055 . S
Co1161 O1172 2.039 . S
Co1161 N1175 2.140 . S
C1162 O1163 1.227 . S
C1162 O1172 1.265 . S
O1163 C1162 1.227 . S
N1164 Co1161 2.121 . S
N1164 C1166 1.375 . S
N1164 C1167 1.313 . S
C1165 C1166 1.338 . S
C1165 N1168 1.377 . S
C1165 H1185 0.930 . S
C1166 N1164 1.375 . S
C1166 C1165 1.338 . S
C1166 H1170 0.931 . S
C1167 N1164 1.313 . S
C1167 N1168 1.344 . S
C1167 H1171 0.930 . S
N1168 C1165 1.377 . S
N1168 C1167 1.344 . S
O1169 Co1161 2.055 . S
O1169 C1173 1.253 . S
H1170 C1166 0.931 . S
H1171 C1167 0.930 . S
O1172 Co1161 2.039 . S
O1172 C1162 1.265 . S
C1173 O1169 1.253 . S
C1173 O1174 1.227 . S
O1174 C1173 1.227 . S
N1175 Co1161 2.140 . S
N1175 C1178 1.346 . S
N1175 C1179 1.345 . S
C1176 C1177 1.387 . S
C1176 C1180 1.391 . S
C1177 C1176 1.387 . S
C1177 C1178 1.369 . S
C1177 H1186 0.929 . S
C1178 N1175 1.346 . S
C1178 C1177 1.369 . S
C1178 H1181 0.928 . S
C1179 N1175 1.345 . S
C1179 C1180 1.371 . S
C1179 H1182 0.931 . S
C1180 C1176 1.391 . S
C1180 C1179 1.371 . S
C1180 H1187 0.930 . S
H1181 C1178 0.928 . S
H1182 C1179 0.931 . S
H1183 C1159 0.930 . S
H1184 C1156 0.930 . S
H1185 C1165 0.930 . S
H1186 C1177 0.929 . S
H1187 C1180 0.930 . S
H1188 C1194 0.930 . S
H1189 C1197 0.930 . S
H1190 C1198 0.930 . S
H1191 C1199 0.930 . S
H1192 C1202 0.930 . S
H1193 C1203 0.930 . S
C1194 H1188 0.930 . S
C1194 C1195 1.355 . S
C1194 C1196 1.415 . S
C1195 C1194 1.355 . S
C1195 C1197 1.419 . S
C1196 C1194 1.415 . S
C1196 C1201 1.425 . S
C1196 C1203 1.409 . S
C1197 H1189 0.930 . S
C1197 C1195 1.419 . S
C1197 C1198 1.362 . S
C1198 H1190 0.930 . S
C1198 C1197 1.362 . S
C1198 C1201 1.409 . S
C1199 H1191 0.930 . S
C1199 C1200 1.355 . S
C1199 C1201 1.415 . S
C1200 C1199 1.355 . S
C1200 C1202 1.419 . S
C1201 C1196 1.425 . S
C1201 C1198 1.409 . S
C1201 C1199 1.415 . S
C1202 H1192 0.930 . S
C1202 C1200 1.419 . S
C1202 C1203 1.362 . S
C1203 H1193 0.930 . S
C1203 C1196 1.409 . S
C1203 C1202 1.362 . S
H1204 C1210 0.930 . S
H1205 C1213 0.930 . S
H1206 C1214 0.930 . S
H1207 C1215 0.930 . S
H1208 C1218 0.930 . S
H1209 C1219 0.930 . S
C1210 H1204 0.930 . S
C1210 C1211 1.355 . S
C1210 C1212 1.415 . S
C1211 C1210 1.355 . S
C1211 C1213 1.419 . S
C1212 C1210 1.415 . S
C1212 C1217 1.425 . S
C1212 C1219 1.409 . S
C1213 H1205 0.930 . S
C1213 C1211 1.419 . S
C1213 C1214 1.362 . S
C1214 H1206 0.930 . S
C1214 C1213 1.362 . S
C1214 C1217 1.409 . S
C1215 H1207 0.930 . S
C1215 C1216 1.355 . S
C1215 C1217 1.415 . S
C1216 C1215 1.355 . S
C1216 C1218 1.419 . S
C1217 C1212 1.425 . S
C1217 C1214 1.409 . S
C1217 C1215 1.415 . S
C1218 H1208 0.930 . S
C1218 C1216 1.419 . S
C1218 C1219 1.362 . S
C1219 H1209 0.930 . S
C1219 C1212 1.409 . S
C1219 C1218 1.362 . S
H1220 C1226 0.930 . S
H1221 C1229 0.930 1_556 S
H1222 C1230 0.930 . S
H1223 C1231 0.930 . S
H1224 C1234 0.930 . S
H1225 C1235 0.930 . S
C1226 H1220 0.930 . S
C1226 C1227 1.355 . S
C1226 C1228 1.415 . S
C1227 C1226 1.355 . S
C1227 C1229 1.419 . S
C1228 C1226 1.415 . S
C1228 C1233 1.425 . S
C1228 C1235 1.409 . S
C1229 H1221 0.930 1_554 S
C1229 C1227 1.419 . S
C1229 C1230 1.362 . S
C1230 H1222 0.930 . S
C1230 C1229 1.362 . S
C1230 C1233 1.409 . S
C1231 H1223 0.930 . S
C1231 C1232 1.355 . S
C1231 C1233 1.415 . S
C1232 C1231 1.355 . S
C1232 C1234 1.419 . S
C1233 C1228 1.425 . S
C1233 C1230 1.409 . S
C1233 C1231 1.415 . S
C1234 H1224 0.930 . S
C1234 C1232 1.419 . S
C1234 C1235 1.362 . S
C1235 H1225 0.930 . S
C1235 C1228 1.409 . S
C1235 C1234 1.362 . S
H1236 C1242 0.930 . S
H1237 C1245 0.930 . S
H1238 C1246 0.930 . S
H1239 C1247 0.930 . S
H1240 C1250 0.930 . S
H1241 C1251 0.930 . S
C1242 H1236 0.930 . S
C1242 C1243 1.355 . S
C1242 C1244 1.415 . S
C1243 C1242 1.355 . S
C1243 C1245 1.419 . S
C1244 C1242 1.415 . S
C1244 C1249 1.425 . S
C1244 C1251 1.409 . S
C1245 H1237 0.930 . S
C1245 C1243 1.419 . S
C1245 C1246 1.362 . S
C1246 H1238 0.930 . S
C1246 C1245 1.362 . S
C1246 C1249 1.409 . S
C1247 H1239 0.930 . S
C1247 C1248 1.355 . S
C1247 C1249 1.415 . S
C1248 C1247 1.355 . S
C1248 C1250 1.419 . S
C1249 C1244 1.425 . S
C1249 C1246 1.409 . S
C1249 C1247 1.415 . S
C1250 H1240 0.930 . S
C1250 C1248 1.419 . S
C1250 C1251 1.362 . S
C1251 H1241 0.930 . S
C1251 C1244 1.409 . S
C1251 C1250 1.362 . S
H1252 C1258 0.930 . S
H1253 C1261 0.930 . S
H1254 C1262 0.930 . S
H1255 C1263 0.930 . S
H1256 C1266 0.930 . S
H1257 C1267 0.930 . S
C1258 H1252 0.930 . S
C1258 C1259 1.355 . S
C1258 C1260 1.415 . S
C1259 C1258 1.355 . S
C1259 C1261 1.419 . S
C1260 C1258 1.415 . S
C1260 C1265 1.425 . S
C1260 C1267 1.409 . S
C1261 H1253 0.930 . S
C1261 C1259 1.419 . S
C1261 C1262 1.362 . S
C1262 H1254 0.930 . S
C1262 C1261 1.362 . S
C1262 C1265 1.409 . S
C1263 H1255 0.930 . S
C1263 C1264 1.355 . S
C1263 C1265 1.415 . S
C1264 C1263 1.355 . S
C1264 C1266 1.419 . S
C1265 C1260 1.425 . S
C1265 C1262 1.409 . S
C1265 C1263 1.415 . S
C1266 H1256 0.930 . S
C1266 C1264 1.419 . S
C1266 C1267 1.362 . S
C1267 H1257 0.930 . S
C1267 C1260 1.409 . S
C1267 C1266 1.362 . S
H1268 C1274 0.930 . S
H1269 C1277 0.930 . S
H1270 C1278 0.930 . S
H1271 C1279 0.930 . S
H1272 C1282 0.930 . S
H1273 C1283 0.930 . S
C1274 H1268 0.930 . S
C1274 C1275 1.355 . S
C1274 C1276 1.415 . S
C1275 C1274 1.355 . S
C1275 C1277 1.419 . S
C1276 C1274 1.415 . S
C1276 C1281 1.425 . S
C1276 C1283 1.409 . S
C1277 H1269 0.930 . S
C1277 C1275 1.419 . S
C1277 C1278 1.362 . S
C1278 H1270 0.930 . S
C1278 C1277 1.362 . S
C1278 C1281 1.409 . S
C1279 H1271 0.930 . S
C1279 C1280 1.355 . S
C1279 C1281 1.415 . S
C1280 C1279 1.355 . S
C1280 C1282 1.419 . S
C1281 C1276 1.425 . S
C1281 C1278 1.409 . S
C1281 C1279 1.415 . S
C1282 H1272 0.930 . S
C1282 C1280 1.419 . S
C1282 C1283 1.362 . S
C1283 H1273 0.930 . S
C1283 C1276 1.409 . S
C1283 C1282 1.362 . S
H1284 C1290 0.930 . S
H1285 C1293 0.930 1_554 S
H1286 C1294 0.930 . S
H1287 C1295 0.930 . S
H1288 C1298 0.930 . S
H1289 C1299 0.930 . S
C1290 H1284 0.930 . S
C1290 C1291 1.355 . S
C1290 C1292 1.415 . S
C1291 C1290 1.355 . S
C1291 C1293 1.419 . S
C1292 C1290 1.415 . S
C1292 C1297 1.425 . S
C1292 C1299 1.409 . S
C1293 H1285 0.930 1_556 S
C1293 C1291 1.419 . S
C1293 C1294 1.362 . S
C1294 H1286 0.930 . S
C1294 C1293 1.362 . S
C1294 C1297 1.409 . S
C1295 H1287 0.930 . S
C1295 C1296 1.355 . S
C1295 C1297 1.415 . S
C1296 C1295 1.355 . S
C1296 C1298 1.419 . S
C1297 C1292 1.425 . S
C1297 C1294 1.409 . S
C1297 C1295 1.415 . S
C1298 H1288 0.930 . S
C1298 C1296 1.419 . S
C1298 C1299 1.362 . S
C1299 H1289 0.930 . S
C1299 C1292 1.409 . S
C1299 C1298 1.362 . S
H1300 C1306 0.930 . S
H1301 C1309 0.930 . S
H1302 C1310 0.930 . S
H1303 C1311 0.930 . S
H1304 C1314 0.930 . S
H1305 C1315 0.930 . S
C1306 H1300 0.930 . S
C1306 C1307 1.355 . S
C1306 C1308 1.415 . S
C1307 C1306 1.355 . S
C1307 C1309 1.419 . S
C1308 C1306 1.415 . S
C1308 C1313 1.425 . S
C1308 C1315 1.409 . S
C1309 H1301 0.930 . S
C1309 C1307 1.419 . S
C1309 C1310 1.362 . S
C1310 H1302 0.930 . S
C1310 C1309 1.362 . S
C1310 C1313 1.409 . S
C1311 H1303 0.930 . S
C1311 C1312 1.355 . S
C1311 C1313 1.415 . S
C1312 C1311 1.355 . S
C1312 C1314 1.419 . S
C1313 C1308 1.425 . S
C1313 C1310 1.409 . S
C1313 C1311 1.415 . S
C1314 H1304 0.930 . S
C1314 C1312 1.419 . S
C1314 C1315 1.362 . S
C1315 H1305 0.930 . S
C1315 C1308 1.409 . S
C1315 C1314 1.362 . S
H1316 C1322 0.930 . S
H1317 C1325 0.930 . S
H1318 C1326 0.930 . S
H1319 C1327 0.930 . S
H1320 C1330 0.930 . S
H1321 C1331 0.930 . S
C1322 H1316 0.930 . S
C1322 C1323 1.355 . S
C1322 C1324 1.415 . S
C1323 C1322 1.355 . S
C1323 C1325 1.419 . S
C1324 C1322 1.415 . S
C1324 C1329 1.425 . S
C1324 C1331 1.409 . S
C1325 H1317 0.930 . S
C1325 C1323 1.419 . S
C1325 C1326 1.362 . S
C1326 H1318 0.930 . S
C1326 C1325 1.362 . S
C1326 C1329 1.409 . S
C1327 H1319 0.930 . S
C1327 C1328 1.355 . S
C1327 C1329 1.415 . S
C1328 C1327 1.355 . S
C1328 C1330 1.419 . S
C1329 C1324 1.425 . S
C1329 C1326 1.409 . S
C1329 C1327 1.415 . S
C1330 H1320 0.930 . S
C1330 C1328 1.419 . S
C1330 C1331 1.362 . S
C1331 H1321 0.930 . S
C1331 C1324 1.409 . S
C1331 C1330 1.362 . S
H1332 C1338 0.930 . S
H1333 C1341 0.930 . S
H1334 C1342 0.930 . S
H1335 C1343 0.930 . S
H1336 C1346 0.930 . S
H1337 C1347 0.930 . S
C1338 H1332 0.930 . S
C1338 C1339 1.355 . S
C1338 C1340 1.415 . S
C1339 C1338 1.355 . S
C1339 C1341 1.419 . S
C1340 C1338 1.415 . S
C1340 C1345 1.425 . S
C1340 C1347 1.409 . S
C1341 H1333 0.930 . S
C1341 C1339 1.419 . S
C1341 C1342 1.362 . S
C1342 H1334 0.930 . S
C1342 C1341 1.362 . S
C1342 C1345 1.409 . S
C1343 H1335 0.930 . S
C1343 C1344 1.355 . S
C1343 C1345 1.415 . S
C1344 C1343 1.355 . S
C1344 C1346 1.419 . S
C1345 C1340 1.425 . S
C1345 C1342 1.409 . S
C1345 C1343 1.415 . S
C1346 H1336 0.930 . S
C1346 C1344 1.419 . S
C1346 C1347 1.362 . S
C1347 H1337 0.930 . S
C1347 C1340 1.409 . S
C1347 C1346 1.362 . S
H1348 C1354 0.930 . S
H1349 C1357 0.930 . S
H1350 C1358 0.930 . S
H1351 C1359 0.930 . S
H1352 C1362 0.930 . S
H1353 C1363 0.930 . S
C1354 H1348 0.930 . S
C1354 C1355 1.355 . S
C1354 C1356 1.415 . S
C1355 C1354 1.355 . S
C1355 C1357 1.419 . S
C1356 C1354 1.415 . S
C1356 C1361 1.425 . S
C1356 C1363 1.409 . S
C1357 H1349 0.930 . S
C1357 C1355 1.419 . S
C1357 C1358 1.362 . S
C1358 H1350 0.930 . S
C1358 C1357 1.362 . S
C1358 C1361 1.409 . S
C1359 H1351 0.930 . S
C1359 C1360 1.355 . S
C1359 C1361 1.415 . S
C1360 C1359 1.355 . S
C1360 C1362 1.419 . S
C1361 C1356 1.425 . S
C1361 C1358 1.409 . S
C1361 C1359 1.415 . S
C1362 H1352 0.930 . S
C1362 C1360 1.419 . S
C1362 C1363 1.362 . S
C1363 H1353 0.930 . S
C1363 C1356 1.409 . S
C1363 C1362 1.362 . S
H1364 C1370 0.930 . S
H1365 C1373 0.930 . S
H1366 C1374 0.930 . S
H1367 C1375 0.930 . S
H1368 C1378 0.930 . S
H1369 C1379 0.930 . S
C1370 H1364 0.930 . S
C1370 C1371 1.355 . S
C1370 C1372 1.415 . S
C1371 C1370 1.355 . S
C1371 C1373 1.419 . S
C1372 C1370 1.415 . S
C1372 C1377 1.425 . S
C1372 C1379 1.409 . S
C1373 H1365 0.930 . S
C1373 C1371 1.419 . S
C1373 C1374 1.362 . S
C1374 H1366 0.930 . S
C1374 C1373 1.362 . S
C1374 C1377 1.409 . S
C1375 H1367 0.930 . S
C1375 C1376 1.355 . S
C1375 C1377 1.415 . S
C1376 C1375 1.355 . S
C1376 C1378 1.419 . S
C1377 C1372 1.425 . S
C1377 C1374 1.409 . S
C1377 C1375 1.415 . S
C1378 H1368 0.930 . S
C1378 C1376 1.419 . S
C1378 C1379 1.362 . S
C1379 H1369 0.930 . S
C1379 C1372 1.409 . S
C1379 C1378 1.362 . S
H1380 C1386 0.930 . S
H1381 C1389 0.930 . S
H1382 C1390 0.930 . S
H1383 C1391 0.930 . S
H1384 C1394 0.930 . S
H1385 C1395 0.930 . S
C1386 H1380 0.930 . S
C1386 C1387 1.355 . S
C1386 C1388 1.415 . S
C1387 C1386 1.355 . S
C1387 C1389 1.419 . S
C1388 C1386 1.415 . S
C1388 C1393 1.425 . S
C1388 C1395 1.409 . S
C1389 H1381 0.930 . S
C1389 C1387 1.419 . S
C1389 C1390 1.362 . S
C1390 H1382 0.930 . S
C1390 C1389 1.362 . S
C1390 C1393 1.409 . S
C1391 H1383 0.930 . S
C1391 C1392 1.355 . S
C1391 C1393 1.415 . S
C1392 C1391 1.355 . S
C1392 C1394 1.419 . S
C1393 C1388 1.425 . S
C1393 C1390 1.409 . S
C1393 C1391 1.415 . S
C1394 H1384 0.930 . S
C1394 C1392 1.419 . S
C1394 C1395 1.362 . S
C1395 H1385 0.930 . S
C1395 C1388 1.409 . S
C1395 C1394 1.362 . S
H1396 C1402 0.930 . S
H1397 C1405 0.930 . S
H1398 C1406 0.932 1_565 S
H1399 C1407 0.930 . S
H1400 C1410 0.930 . S
H1401 C1411 0.932 1_545 S
C1402 H1396 0.930 . S
C1402 C1403 1.355 . S
C1402 C1404 1.415 . S
C1403 C1402 1.355 . S
C1403 C1405 1.419 . S
C1404 C1402 1.415 . S
C1404 C1409 1.425 1_545 S
C1404 C1411 1.373 1_545 S
C1405 H1397 0.930 . S
C1405 C1403 1.419 . S
C1405 C1406 1.400 . S
C1406 H1398 0.932 1_545 S
C1406 C1405 1.400 . S
C1406 C1409 1.373 1_545 S
C1407 H1399 0.930 . S
C1407 C1408 1.355 . S
C1407 C1409 1.415 . S
C1408 C1407 1.355 . S
C1408 C1410 1.419 . S
C1409 C1404 1.425 1_565 S
C1409 C1406 1.373 1_565 S
C1409 C1407 1.415 . S
C1410 H1400 0.930 . S
C1410 C1408 1.419 . S
C1410 C1411 1.400 . S
C1411 H1401 0.932 1_565 S
C1411 C1404 1.373 1_565 S
C1411 C1410 1.400 . S
H1412 C1418 0.930 . S
H1413 C1421 0.930 . S
H1414 C1422 0.930 . S
H1415 C1423 0.930 . S
H1416 C1426 0.930 . S
H1417 C1427 0.930 . S
C1418 H1412 0.930 . S
C1418 C1419 1.355 . S
C1418 C1420 1.415 . S
C1419 C1418 1.355 . S
C1419 C1421 1.419 . S
C1420 C1418 1.415 . S
C1420 C1425 1.425 1_455 S
C1420 C1427 1.409 . S
C1421 H1413 0.930 . S
C1421 C1419 1.419 . S
C1421 C1422 1.362 1_455 S
C1422 H1414 0.930 . S
C1422 C1421 1.362 1_655 S
C1422 C1425 1.409 . S
C1423 H1415 0.930 . S
C1423 C1424 1.355 . S
C1423 C1425 1.415 . S
C1424 C1423 1.355 . S
C1424 C1426 1.419 . S
C1425 C1420 1.425 1_655 S
C1425 C1422 1.409 . S
C1425 C1423 1.415 . S
C1426 H1416 0.930 . S
C1426 C1424 1.419 . S
C1426 C1427 1.362 1_655 S
C1427 H1417 0.930 . S
C1427 C1420 1.409 . S
C1427 C1426 1.362 1_455 S
H1428 C1434 0.930 . S
H1429 C1437 0.930 . S
H1430 C1438 0.930 . S
H1431 C1439 0.930 . S
H1432 C1442 0.930 . S
H1433 C1443 0.930 . S
C1434 H1428 0.930 . S
C1434 C1435 1.355 . S
C1434 C1436 1.415 . S
C1435 C1434 1.355 . S
C1435 C1437 1.419 . S
C1436 C1434 1.415 . S
C1436 C1441 1.425 . S
C1436 C1443 1.409 . S
C1437 H1429 0.930 . S
C1437 C1435 1.419 . S
C1437 C1438 1.362 . S
C1438 H1430 0.930 . S
C1438 C1437 1.362 . S
C1438 C1441 1.409 . S
C1439 H1431 0.930 . S
C1439 C1440 1.355 . S
C1439 C1441 1.415 . S
C1440 C1439 1.355 . S
C1440 C1442 1.419 . S
C1441 C1436 1.425 . S
C1441 C1438 1.409 . S
C1441 C1439 1.415 . S
C1442 H1432 0.930 . S
C1442 C1440 1.419 . S
C1442 C1443 1.362 . S
C1443 H1433 0.930 . S
C1443 C1436 1.409 . S
C1443 C1442 1.362 . S
H1444 C1450 0.930 . S
H1445 C1453 0.930 . S
H1446 C1454 0.930 . S
H1447 C1455 0.930 . S
H1448 C1458 0.930 . S
H1449 C1459 0.930 . S
C1450 H1444 0.930 . S
C1450 C1451 1.355 . S
C1450 C1452 1.408 . S
C1451 C1450 1.355 . S
C1451 C1453 1.419 . S
C1452 C1450 1.408 . S
C1452 C1457 1.434 1_565 S
C1452 C1459 1.412 1_565 S
C1453 H1445 0.930 . S
C1453 C1451 1.419 . S
C1453 C1454 1.362 . S
C1454 H1446 0.930 . S
C1454 C1453 1.362 . S
C1454 C1457 1.411 1_565 S
C1455 H1447 0.930 . S
C1455 C1456 1.355 . S
C1455 C1457 1.408 . S
C1456 C1455 1.355 . S
C1456 C1458 1.419 . S
C1457 C1452 1.434 1_545 S
C1457 C1454 1.411 1_545 S
C1457 C1455 1.408 . S
C1458 H1448 0.930 . S
C1458 C1456 1.419 . S
C1458 C1459 1.362 . S
C1459 H1449 0.930 . S
C1459 C1452 1.412 1_545 S
C1459 C1458 1.362 . S
H1460 C1466 0.930 . S
H1461 C1469 0.930 . S
H1462 C1470 0.930 1_455 S
H1463 C1471 0.930 . S
H1464 C1474 0.930 . S
H1465 C1475 0.930 1_655 S
C1466 H1460 0.930 . S
C1466 C1467 1.355 . S
C1466 C1468 1.415 . S
C1467 C1466 1.355 . S
C1467 C1469 1.419 . S
C1468 C1466 1.415 . S
C1468 C1473 1.425 1_655 S
C1468 C1475 1.409 1_655 S
C1469 H1461 0.930 . S
C1469 C1467 1.419 . S
C1469 C1470 1.362 . S
C1470 H1462 0.930 1_655 S
C1470 C1469 1.362 . S
C1470 C1473 1.409 1_655 S
C1471 H1463 0.930 . S
C1471 C1472 1.355 . S
C1471 C1473 1.415 . S
C1472 C1471 1.355 . S
C1472 C1474 1.419 . S
C1473 C1468 1.425 1_455 S
C1473 C1470 1.409 1_455 S
C1473 C1471 1.415 . S
C1474 H1464 0.930 . S
C1474 C1472 1.419 . S
C1474 C1475 1.362 . S
C1475 H1465 0.930 1_455 S
C1475 C1468 1.409 1_455 S
C1475 C1474 1.362 . S
H1476 C1482 0.930 . S
H1477 C1485 0.930 . S
H1478 C1486 0.930 . S
H1479 C1487 0.930 . S
H1480 C1490 0.930 . S
H1481 C1491 0.930 . S
C1482 H1476 0.930 . S
C1482 C1483 1.355 1_554 S
C1482 C1484 1.415 . S
C1483 C1482 1.355 1_556 S
C1483 C1485 1.419 . S
C1484 C1482 1.415 . S
C1484 C1489 1.425 1_554 S
C1484 C1491 1.409 . S
C1485 H1477 0.930 . S
C1485 C1483 1.419 . S
C1485 C1486 1.362 . S
C1486 H1478 0.930 . S
C1486 C1485 1.362 . S
C1486 C1489 1.409 . S
C1487 H1479 0.930 . S
C1487 C1488 1.355 1_556 S
C1487 C1489 1.415 . S
C1488 C1487 1.355 1_554 S
C1488 C1490 1.419 . S
C1489 C1484 1.425 1_556 S
C1489 C1486 1.409 . S
C1489 C1487 1.415 . S
C1490 H1480 0.930 . S
C1490 C1488 1.419 . S
C1490 C1491 1.362 . S
C1491 H1481 0.930 . S
C1491 C1484 1.409 . S
C1491 C1490 1.362 . S
H1492 C1498 0.930 . S
H1493 C1501 0.930 . S
H1494 C1502 0.930 . S
H1495 C1503 0.930 . S
H1496 C1506 0.930 . S
H1497 C1507 0.930 . S
C1498 H1492 0.930 . S
C1498 C1499 1.355 1_554 S
C1498 C1500 1.415 . S
C1499 C1498 1.355 1_556 S
C1499 C1501 1.419 . S
C1500 C1498 1.415 . S
C1500 C1505 1.425 1_554 S
C1500 C1507 1.409 . S
C1501 H1493 0.930 . S
C1501 C1499 1.419 . S
C1501 C1502 1.362 . S
C1502 H1494 0.930 . S
C1502 C1501 1.362 . S
C1502 C1505 1.409 . S
C1503 H1495 0.930 . S
C1503 C1504 1.355 1_556 S
C1503 C1505 1.415 . S
C1504 C1503 1.355 1_554 S
C1504 C1506 1.419 . S
C1505 C1500 1.425 1_556 S
C1505 C1502 1.409 . S
C1505 C1503 1.415 . S
C1506 H1496 0.930 . S
C1506 C1504 1.419 . S
C1506 C1507 1.362 . S
C1507 H1497 0.930 . S
C1507 C1500 1.409 . S
C1507 C1506 1.362 . S
H1508 C1514 0.930 . S
H1509 C1517 0.930 . S
H1510 C1518 0.930 . S
H1511 C1519 0.930 . S
H1512 C1522 0.930 . S
H1513 C1523 0.930 . S
C1514 H1508 0.930 . S
C1514 C1515 1.355 1_554 S
C1514 C1516 1.415 . S
C1515 C1514 1.355 1_556 S
C1515 C1517 1.419 . S
C1516 C1514 1.415 . S
C1516 C1521 1.425 1_554 S
C1516 C1523 1.409 . S
C1517 H1509 0.930 . S
C1517 C1515 1.419 . S
C1517 C1518 1.362 . S
C1518 H1510 0.930 . S
C1518 C1517 1.362 . S
C1518 C1521 1.409 . S
C1519 H1511 0.930 . S
C1519 C1520 1.355 . S
C1519 C1521 1.415 . S
C1520 C1519 1.355 . S
C1520 C1522 1.419 1_556 S
C1521 C1516 1.425 1_556 S
C1521 C1518 1.409 . S
C1521 C1519 1.415 . S
C1522 H1512 0.930 . S
C1522 C1520 1.419 1_554 S
C1522 C1523 1.362 . S
C1523 H1513 0.930 . S
C1523 C1516 1.409 . S
C1523 C1522 1.362 . S
H1524 C1530 0.930 . S
H1525 C1533 0.930 . S
H1526 C1534 0.930 . S
H1527 C1535 0.930 . S
H1528 C1538 0.930 . S
H1529 C1539 0.930 . S
C1530 H1524 0.930 . S
C1530 C1531 1.355 1_554 S
C1530 C1532 1.415 . S
C1531 C1530 1.355 1_556 S
C1531 C1533 1.419 . S
C1532 C1530 1.415 . S
C1532 C1537 1.425 1_554 S
C1532 C1539 1.409 . S
C1533 H1525 0.930 . S
C1533 C1531 1.419 . S
C1533 C1534 1.362 . S
C1534 H1526 0.930 . S
C1534 C1533 1.362 . S
C1534 C1537 1.409 . S
C1535 H1527 0.930 . S
C1535 C1536 1.355 1_556 S
C1535 C1537 1.415 . S
C1536 C1535 1.355 1_554 S
C1536 C1538 1.419 . S
C1537 C1532 1.425 1_556 S
C1537 C1534 1.409 . S
C1537 C1535 1.415 . S
C1538 H1528 0.930 . S
C1538 C1536 1.419 . S
C1538 C1539 1.362 . S
C1539 H1529 0.930 . S
C1539 C1532 1.409 . S
C1539 C1538 1.362 . S
H1540 C1546 0.929 1_556 S
H1541 C1549 0.930 . S
H1542 C1550 0.930 . S
H1543 C1551 0.930 . S
H1544 C1554 0.930 . S
H1545 C1555 0.930 . S
C1546 H1540 0.929 1_554 S
C1546 C1547 1.356 . S
C1546 C1548 1.414 1_554 S
C1547 C1546 1.356 . S
C1547 C1549 1.419 . S
C1548 C1546 1.414 1_556 S
C1548 C1553 1.425 1_556 S
C1548 C1555 1.410 . S
C1549 H1541 0.930 . S
C1549 C1547 1.419 . S
C1549 C1550 1.362 . S
C1550 H1542 0.930 . S
C1550 C1549 1.362 . S
C1550 C1553 1.409 . S
C1551 H1543 0.930 . S
C1551 C1552 1.354 1_554 S
C1551 C1553 1.415 . S
C1552 C1551 1.354 1_556 S
C1552 C1554 1.420 . S
C1553 C1548 1.425 1_554 S
C1553 C1550 1.409 . S
C1553 C1551 1.415 . S
C1554 H1544 0.930 . S
C1554 C1552 1.420 . S
C1554 C1555 1.362 . S
C1555 H1545 0.930 . S
C1555 C1548 1.410 . S
C1555 C1554 1.362 . S
H1556 C1562 0.930 . S
H1557 C1565 0.930 . S
H1558 C1566 0.930 . S
H1559 C1567 0.930 . S
H1560 C1570 0.930 . S
H1561 C1571 0.930 . S
C1562 H1556 0.930 . S
C1562 C1563 1.355 1_556 S
C1562 C1564 1.415 . S
C1563 C1562 1.355 1_554 S
C1563 C1565 1.419 . S
C1564 C1562 1.415 . S
C1564 C1569 1.425 1_556 S
C1564 C1571 1.409 . S
C1565 H1557 0.930 . S
C1565 C1563 1.419 . S
C1565 C1566 1.362 . S
C1566 H1558 0.930 . S
C1566 C1565 1.362 . S
C1566 C1569 1.409 . S
C1567 H1559 0.930 . S
C1567 C1568 1.355 1_554 S
C1567 C1569 1.415 . S
C1568 C1567 1.355 1_556 S
C1568 C1570 1.419 . S
C1569 C1564 1.425 1_554 S
C1569 C1566 1.409 . S
C1569 C1567 1.415 . S
C1570 H1560 0.930 . S
C1570 C1568 1.419 . S
C1570 C1571 1.362 . S
C1571 H1561 0.930 . S
C1571 C1564 1.409 . S
C1571 C1570 1.362 . S
H1572 C1578 0.930 . S
H1573 C1581 0.930 . S
H1574 C1582 0.930 . S
H1575 C1583 0.930 . S
H1576 C1586 0.930 . S
H1577 C1587 0.930 . S
C1578 H1572 0.930 . S
C1578 C1579 1.355 . S
C1578 C1580 1.415 . S
C1579 C1578 1.355 . S
C1579 C1581 1.419 . S
C1580 C1578 1.415 . S
C1580 C1585 1.425 . S
C1580 C1587 1.409 . S
C1581 H1573 0.930 . S
C1581 C1579 1.419 . S
C1581 C1582 1.362 . S
C1582 H1574 0.930 . S
C1582 C1581 1.362 . S
C1582 C1585 1.409 . S
C1583 H1575 0.930 . S
C1583 C1584 1.355 . S
C1583 C1585 1.415 . S
C1584 C1583 1.355 . S
C1584 C1586 1.419 . S
C1585 C1580 1.425 . S
C1585 C1582 1.409 . S
C1585 C1583 1.415 . S
C1586 H1576 0.930 . S
C1586 C1584 1.419 . S
C1586 C1587 1.362 . S
C1587 H1577 0.930 . S
C1587 C1580 1.409 . S
C1587 C1586 1.362 . S
H1588 C1594 0.930 . S
H1589 C1597 0.930 . S
H1590 C1598 0.930 . S
H1591 C1599 0.930 . S
H1592 C1602 0.930 . S
H1593 C1603 0.930 . S
C1594 H1588 0.930 . S
C1594 C1595 1.355 . S
C1594 C1596 1.415 . S
C1595 C1594 1.355 . S
C1595 C1597 1.419 . S
C1596 C1594 1.415 . S
C1596 C1601 1.425 . S
C1596 C1603 1.409 . S
C1597 H1589 0.930 . S
C1597 C1595 1.419 . S
C1597 C1598 1.362 . S
C1598 H1590 0.930 . S
C1598 C1597 1.362 . S
C1598 C1601 1.409 . S
C1599 H1591 0.930 . S
C1599 C1600 1.355 . S
C1599 C1601 1.415 . S
C1600 C1599 1.355 . S
C1600 C1602 1.419 . S
C1601 C1596 1.425 . S
C1601 C1598 1.409 . S
C1601 C1599 1.415 . S
C1602 H1592 0.930 . S
C1602 C1600 1.419 . S
C1602 C1603 1.362 . S
C1603 H1593 0.930 . S
C1603 C1596 1.409 . S
C1603 C1602 1.362 . S
H1604 C1610 0.930 . S
H1605 C1613 0.930 . S
H1606 C1614 0.930 . S
H1607 C1615 0.930 . S
H1608 C1618 0.930 . S
H1609 C1619 0.930 . S
C1610 H1604 0.930 . S
C1610 C1611 1.355 . S
C1610 C1612 1.415 . S
C1611 C1610 1.355 . S
C1611 C1613 1.419 . S
C1612 C1610 1.415 . S
C1612 C1617 1.425 . S
C1612 C1619 1.409 . S
C1613 H1605 0.930 . S
C1613 C1611 1.419 . S
C1613 C1614 1.362 . S
C1614 H1606 0.930 . S
C1614 C1613 1.362 . S
C1614 C1617 1.409 . S
C1615 H1607 0.930 . S
C1615 C1616 1.355 . S
C1615 C1617 1.415 . S
C1616 C1615 1.355 . S
C1616 C1618 1.419 . S
C1617 C1612 1.425 . S
C1617 C1614 1.409 . S
C1617 C1615 1.415 . S
C1618 H1608 0.930 . S
C1618 C1616 1.419 . S
C1618 C1619 1.362 . S
C1619 H1609 0.930 . S
C1619 C1612 1.409 . S
C1619 C1618 1.362 . S
H1620 C1626 0.930 . S
H1621 C1629 0.930 . S
H1622 C1630 0.930 . S
H1623 C1631 0.930 . S
H1624 C1634 0.930 . S
H1625 C1635 0.930 . S
C1626 H1620 0.930 . S
C1626 C1627 1.355 . S
C1626 C1628 1.415 . S
C1627 C1626 1.355 . S
C1627 C1629 1.419 . S
C1628 C1626 1.415 . S
C1628 C1633 1.425 . S
C1628 C1635 1.409 . S
C1629 H1621 0.930 . S
C1629 C1627 1.419 . S
C1629 C1630 1.362 . S
C1630 H1622 0.930 . S
C1630 C1629 1.362 . S
C1630 C1633 1.409 . S
C1631 H1623 0.930 . S
C1631 C1632 1.355 . S
C1631 C1633 1.415 . S
C1632 C1631 1.355 . S
C1632 C1634 1.419 . S
C1633 C1628 1.425 . S
C1633 C1630 1.409 . S
C1633 C1631 1.415 . S
C1634 H1624 0.930 . S
C1634 C1632 1.419 . S
C1634 C1635 1.362 . S
C1635 H1625 0.930 . S
C1635 C1628 1.409 . S
C1635 C1634 1.362 . S
H1636 C1642 0.930 . S
H1637 C1645 0.930 . S
H1638 C1646 0.930 . S
H1639 C1647 0.930 . S
H1640 C1650 0.930 . S
H1641 C1651 0.930 . S
C1642 H1636 0.930 . S
C1642 C1643 1.355 . S
C1642 C1644 1.415 . S
C1643 C1642 1.355 . S
C1643 C1645 1.419 . S
C1644 C1642 1.415 . S
C1644 C1649 1.425 . S
C1644 C1651 1.409 . S
C1645 H1637 0.930 . S
C1645 C1643 1.419 . S
C1645 C1646 1.362 . S
C1646 H1638 0.930 . S
C1646 C1645 1.362 . S
C1646 C1649 1.409 . S
C1647 H1639 0.930 . S
C1647 C1648 1.355 . S
C1647 C1649 1.415 . S
C1648 C1647 1.355 . S
C1648 C1650 1.419 . S
C1649 C1644 1.425 . S
C1649 C1646 1.409 . S
C1649 C1647 1.415 . S
C1650 H1640 0.930 . S
C1650 C1648 1.419 . S
C1650 C1651 1.362 . S
C1651 H1641 0.930 . S
C1651 C1644 1.409 . S
C1651 C1650 1.362 . S
H1652 C1658 0.930 . S
H1653 C1661 0.930 . S
H1654 C1662 0.930 . S
H1655 C1663 0.930 . S
H1656 C1666 0.930 . S
H1657 C1667 0.930 . S
C1658 H1652 0.930 . S
C1658 C1659 1.355 . S
C1658 C1660 1.415 . S
C1659 C1658 1.355 . S
C1659 C1661 1.419 . S
C1660 C1658 1.415 . S
C1660 C1665 1.425 . S
C1660 C1667 1.409 . S
C1661 H1653 0.930 . S
C1661 C1659 1.419 . S
C1661 C1662 1.362 . S
C1662 H1654 0.930 . S
C1662 C1661 1.362 . S
C1662 C1665 1.409 . S
C1663 H1655 0.930 . S
C1663 C1664 1.355 . S
C1663 C1665 1.415 . S
C1664 C1663 1.355 . S
C1664 C1666 1.419 . S
C1665 C1660 1.425 . S
C1665 C1662 1.409 . S
C1665 C1663 1.415 . S
C1666 H1656 0.930 . S
C1666 C1664 1.419 . S
C1666 C1667 1.362 . S
C1667 H1657 0.930 . S
C1667 C1660 1.409 . S
C1667 C1666 1.362 . S
H1668 C1674 0.930 . S
H1669 C1677 0.930 . S
H1670 C1678 0.930 . S
H1671 C1679 0.930 . S
H1672 C1682 0.930 . S
H1673 C1683 0.930 . S
C1674 H1668 0.930 . S
C1674 C1675 1.355 . S
C1674 C1676 1.415 . S
C1675 C1674 1.355 . S
C1675 C1677 1.419 . S
C1676 C1674 1.415 . S
C1676 C1681 1.425 . S
C1676 C1683 1.409 . S
C1677 H1669 0.930 . S
C1677 C1675 1.419 . S
C1677 C1678 1.362 . S
C1678 H1670 0.930 . S
C1678 C1677 1.362 . S
C1678 C1681 1.409 . S
C1679 H1671 0.930 . S
C1679 C1680 1.355 . S
C1679 C1681 1.415 . S
C1680 C1679 1.355 . S
C1680 C1682 1.419 . S
C1681 C1676 1.425 . S
C1681 C1678 1.409 . S
C1681 C1679 1.415 . S
C1682 H1672 0.930 . S
C1682 C1680 1.419 . S
C1682 C1683 1.362 . S
C1683 H1673 0.930 . S
C1683 C1676 1.409 . S
C1683 C1682 1.362 . S
H1684 C1690 0.930 . S
H1685 C1693 0.930 . S
H1686 C1694 0.930 . S
H1687 C1695 0.930 . S
H1688 C1698 0.930 . S
H1689 C1699 0.930 . S
C1690 H1684 0.930 . S
C1690 C1691 1.355 . S
C1690 C1692 1.415 . S
C1691 C1690 1.355 . S
C1691 C1693 1.419 . S
C1692 C1690 1.415 . S
C1692 C1697 1.425 . S
C1692 C1699 1.409 . S
C1693 H1685 0.930 . S
C1693 C1691 1.419 . S
C1693 C1694 1.362 . S
C1694 H1686 0.930 . S
C1694 C1693 1.362 . S
C1694 C1697 1.409 . S
C1695 H1687 0.930 . S
C1695 C1696 1.355 . S
C1695 C1697 1.415 . S
C1696 C1695 1.355 . S
C1696 C1698 1.419 . S
C1697 C1692 1.425 . S
C1697 C1694 1.409 . S
C1697 C1695 1.415 . S
C1698 H1688 0.930 . S
C1698 C1696 1.419 . S
C1698 C1699 1.362 . S
C1699 H1689 0.930 . S
C1699 C1692 1.409 . S
C1699 C1698 1.362 . S
H1700 C1706 0.930 . S
H1701 C1709 0.930 . S
H1702 C1710 0.930 . S
H1703 C1711 0.930 . S
H1704 C1714 0.930 . S
H1705 C1715 0.930 . S
C1706 H1700 0.930 . S
C1706 C1707 1.355 . S
C1706 C1708 1.415 . S
C1707 C1706 1.355 . S
C1707 C1709 1.419 . S
C1708 C1706 1.415 . S
C1708 C1713 1.425 . S
C1708 C1715 1.409 . S
C1709 H1701 0.930 . S
C1709 C1707 1.419 . S
C1709 C1710 1.362 . S
C1710 H1702 0.930 . S
C1710 C1709 1.362 . S
C1710 C1713 1.409 . S
C1711 H1703 0.930 . S
C1711 C1712 1.355 . S
C1711 C1713 1.415 . S
C1712 C1711 1.355 . S
C1712 C1714 1.419 . S
C1713 C1708 1.425 . S
C1713 C1710 1.409 . S
C1713 C1711 1.415 . S
C1714 H1704 0.930 . S
C1714 C1712 1.419 . S
C1714 C1715 1.362 . S
C1715 H1705 0.930 . S
C1715 C1708 1.409 . S
C1715 C1714 1.362 . S
H1716 C1722 0.930 . S
H1717 C1725 0.930 . S
H1718 C1726 0.930 . S
H1719 C1727 0.930 . S
H1720 C1730 0.930 . S
H1721 C1731 0.930 . S
C1722 H1716 0.930 . S
C1722 C1723 1.355 . S
C1722 C1724 1.415 . S
C1723 C1722 1.355 . S
C1723 C1725 1.419 . S
C1724 C1722 1.415 . S
C1724 C1729 1.425 . S
C1724 C1731 1.409 . S
C1725 H1717 0.930 . S
C1725 C1723 1.419 . S
C1725 C1726 1.362 . S
C1726 H1718 0.930 . S
C1726 C1725 1.362 . S
C1726 C1729 1.409 . S
C1727 H1719 0.930 . S
C1727 C1728 1.355 . S
C1727 C1729 1.415 . S
C1728 C1727 1.355 . S
C1728 C1730 1.419 . S
C1729 C1724 1.425 . S
C1729 C1726 1.409 . S
C1729 C1727 1.415 . S
C1730 H1720 0.930 . S
C1730 C1728 1.419 . S
C1730 C1731 1.362 . S
C1731 H1721 0.930 . S
C1731 C1724 1.409 . S
C1731 C1730 1.362 . S
H1732 C1738 0.930 . S
H1733 C1741 0.930 . S
H1734 C1742 0.930 . S
H1735 C1743 0.930 . S
H1736 C1746 0.930 . S
H1737 C1747 0.930 . S
C1738 H1732 0.930 . S
C1738 C1739 1.355 . S
C1738 C1740 1.415 . S
C1739 C1738 1.355 . S
C1739 C1741 1.419 . S
C1740 C1738 1.415 . S
C1740 C1745 1.425 . S
C1740 C1747 1.409 . S
C1741 H1733 0.930 . S
C1741 C1739 1.419 . S
C1741 C1742 1.362 . S
C1742 H1734 0.930 . S
C1742 C1741 1.362 . S
C1742 C1745 1.409 . S
C1743 H1735 0.930 . S
C1743 C1744 1.355 . S
C1743 C1745 1.415 . S
C1744 C1743 1.355 . S
C1744 C1746 1.419 . S
C1745 C1740 1.425 . S
C1745 C1742 1.409 . S
C1745 C1743 1.415 . S
C1746 H1736 0.930 . S
C1746 C1744 1.419 . S
C1746 C1747 1.362 . S
C1747 H1737 0.930 . S
C1747 C1740 1.409 . S
C1747 C1746 1.362 . S
H1748 C1754 0.930 . S
H1749 C1757 0.930 . S
H1750 C1758 0.930 . S
H1751 C1759 0.930 . S
H1752 C1762 0.930 . S
H1753 C1763 0.930 . S
C1754 H1748 0.930 . S
C1754 C1755 1.355 . S
C1754 C1756 1.415 . S
C1755 C1754 1.355 . S
C1755 C1757 1.419 . S
C1756 C1754 1.415 . S
C1756 C1761 1.425 . S
C1756 C1763 1.409 . S
C1757 H1749 0.930 . S
C1757 C1755 1.419 . S
C1757 C1758 1.362 . S
C1758 H1750 0.930 . S
C1758 C1757 1.362 . S
C1758 C1761 1.409 . S
C1759 H1751 0.930 . S
C1759 C1760 1.355 . S
C1759 C1761 1.415 . S
C1760 C1759 1.355 . S
C1760 C1762 1.419 . S
C1761 C1756 1.425 . S
C1761 C1758 1.409 . S
C1761 C1759 1.415 . S
C1762 H1752 0.930 . S
C1762 C1760 1.419 . S
C1762 C1763 1.362 . S
C1763 H1753 0.930 . S
C1763 C1756 1.409 . S
C1763 C1762 1.362 . S
H1764 C1770 0.930 . S
H1765 C1773 0.930 . S
H1766 C1774 0.930 . S
H1767 C1775 0.930 . S
H1768 C1778 0.930 . S
H1769 C1779 0.930 . S
C1770 H1764 0.930 . S
C1770 C1771 1.355 . S
C1770 C1772 1.415 . S
C1771 C1770 1.355 . S
C1771 C1773 1.419 . S
C1772 C1770 1.415 . S
C1772 C1777 1.425 . S
C1772 C1779 1.409 . S
C1773 H1765 0.930 . S
C1773 C1771 1.419 . S
C1773 C1774 1.362 . S
C1774 H1766 0.930 . S
C1774 C1773 1.362 . S
C1774 C1777 1.409 . S
C1775 H1767 0.930 . S
C1775 C1776 1.355 . S
C1775 C1777 1.415 . S
C1776 C1775 1.355 . S
C1776 C1778 1.419 . S
C1777 C1772 1.425 . S
C1777 C1774 1.409 . S
C1777 C1775 1.415 . S
C1778 H1768 0.930 . S
C1778 C1776 1.419 . S
C1778 C1779 1.362 . S
C1779 H1769 0.930 . S
C1779 C1772 1.409 . S
C1779 C1778 1.362 . S
H1780 C1786 0.930 . S
H1781 C1789 0.930 1_554 S
H1782 C1790 0.930 . S
H1783 C1791 0.930 . S
H1784 C1794 0.930 . S
H1785 C1795 0.930 . S
C1786 H1780 0.930 . S
C1786 C1787 1.355 . S
C1786 C1788 1.415 . S
C1787 C1786 1.355 . S
C1787 C1789 1.419 . S
C1788 C1786 1.415 . S
C1788 C1793 1.425 . S
C1788 C1795 1.409 . S
C1789 H1781 0.930 1_556 S
C1789 C1787 1.419 . S
C1789 C1790 1.362 . S
C1790 H1782 0.930 . S
C1790 C1789 1.362 . S
C1790 C1793 1.409 . S
C1791 H1783 0.930 . S
C1791 C1792 1.355 . S
C1791 C1793 1.415 . S
C1792 C1791 1.355 . S
C1792 C1794 1.419 . S
C1793 C1788 1.425 . S
C1793 C1790 1.409 . S
C1793 C1791 1.415 . S
C1794 H1784 0.930 . S
C1794 C1792 1.419 . S
C1794 C1795 1.362 . S
C1795 H1785 0.930 . S
C1795 C1788 1.409 . S
C1795 C1794 1.362 . S
H1796 C1802 0.930 . S
H1797 C1805 0.930 . S
H1798 C1806 0.930 . S
H1799 C1807 0.930 . S
H1800 C1810 0.930 . S
H1801 C1811 0.930 . S
C1802 H1796 0.930 . S
C1802 C1803 1.355 . S
C1802 C1804 1.415 . S
C1803 C1802 1.355 . S
C1803 C1805 1.419 . S
C1804 C1802 1.415 . S
C1804 C1809 1.425 . S
C1804 C1811 1.409 . S
C1805 H1797 0.930 . S
C1805 C1803 1.419 . S
C1805 C1806 1.362 . S
C1806 H1798 0.930 . S
C1806 C1805 1.362 . S
C1806 C1809 1.409 . S
C1807 H1799 0.930 . S
C1807 C1808 1.355 . S
C1807 C1809 1.415 . S
C1808 C1807 1.355 . S
C1808 C1810 1.419 . S
C1809 C1804 1.425 . S
C1809 C1806 1.409 . S
C1809 C1807 1.415 . S
C1810 H1800 0.930 . S
C1810 C1808 1.419 . S
C1810 C1811 1.362 . S
C1811 H1801 0.930 . S
C1811 C1804 1.409 . S
C1811 C1810 1.362 . S
H1812 C1818 0.930 . S
H1813 C1821 0.930 . S
H1814 C1822 0.930 . S
H1815 C1823 0.930 . S
H1816 C1826 0.930 . S
H1817 C1827 0.930 . S
C1818 H1812 0.930 . S
C1818 C1819 1.355 . S
C1818 C1820 1.415 . S
C1819 C1818 1.355 . S
C1819 C1821 1.419 . S
C1820 C1818 1.415 . S
C1820 C1825 1.425 . S
C1820 C1827 1.409 . S
C1821 H1813 0.930 . S
C1821 C1819 1.419 . S
C1821 C1822 1.362 . S
C1822 H1814 0.930 . S
C1822 C1821 1.362 . S
C1822 C1825 1.409 . S
C1823 H1815 0.930 . S
C1823 C1824 1.355 . S
C1823 C1825 1.415 . S
C1824 C1823 1.355 . S
C1824 C1826 1.419 . S
C1825 C1820 1.425 . S
C1825 C1822 1.409 . S
C1825 C1823 1.415 . S
C1826 H1816 0.930 . S
C1826 C1824 1.419 . S
C1826 C1827 1.362 . S
C1827 H1817 0.930 . S
C1827 C1820 1.409 . S
C1827 C1826 1.362 . S
H1828 C1834 0.930 . S
H1829 C1837 0.930 1_556 S
H1830 C1838 0.930 . S
H1831 C1839 0.930 . S
H1832 C1842 0.930 . S
H1833 C1843 0.930 . S
C1834 H1828 0.930 . S
C1834 C1835 1.355 . S
C1834 C1836 1.415 . S
C1835 C1834 1.355 . S
C1835 C1837 1.419 . S
C1836 C1834 1.415 . S
C1836 C1841 1.425 . S
C1836 C1843 1.409 . S
C1837 H1829 0.930 1_554 S
C1837 C1835 1.419 . S
C1837 C1838 1.362 . S
C1838 H1830 0.930 . S
C1838 C1837 1.362 . S
C1838 C1841 1.409 . S
C1839 H1831 0.930 . S
C1839 C1840 1.355 . S
C1839 C1841 1.415 . S
C1840 C1839 1.355 . S
C1840 C1842 1.419 . S
C1841 C1836 1.425 . S
C1841 C1838 1.409 . S
C1841 C1839 1.415 . S
C1842 H1832 0.930 . S
C1842 C1840 1.419 . S
C1842 C1843 1.362 . S
C1843 H1833 0.930 . S
C1843 C1836 1.409 . S
C1843 C1842 1.362 . S
H1844 C1850 0.930 . S
H1845 C1853 0.930 . S
H1846 C1854 0.930 . S
H1847 C1855 0.930 . S
H1848 C1858 0.930 . S
H1849 C1859 0.930 . S
C1850 H1844 0.930 . S
C1850 C1851 1.355 . S
C1850 C1852 1.415 . S
C1851 C1850 1.355 . S
C1851 C1853 1.419 . S
C1852 C1850 1.415 . S
C1852 C1857 1.425 . S
C1852 C1859 1.409 . S
C1853 H1845 0.930 . S
C1853 C1851 1.419 . S
C1853 C1854 1.362 . S
C1854 H1846 0.930 . S
C1854 C1853 1.362 . S
C1854 C1857 1.409 . S
C1855 H1847 0.930 . S
C1855 C1856 1.355 . S
C1855 C1857 1.415 . S
C1856 C1855 1.355 . S
C1856 C1858 1.419 . S
C1857 C1852 1.425 . S
C1857 C1854 1.409 . S
C1857 C1855 1.415 . S
C1858 H1848 0.930 . S
C1858 C1856 1.419 . S
C1858 C1859 1.362 . S
C1859 H1849 0.930 . S
C1859 C1852 1.409 . S
C1859 C1858 1.362 . S
H1860 C1866 0.930 . S
H1861 C1869 0.930 . S
H1862 C1870 0.930 . S
H1863 C1871 0.930 . S
H1864 C1874 0.930 . S
H1865 C1875 0.930 . S
C1866 H1860 0.930 . S
C1866 C1867 1.355 . S
C1866 C1868 1.415 . S
C1867 C1866 1.355 . S
C1867 C1869 1.419 . S
C1868 C1866 1.415 . S
C1868 C1873 1.425 . S
C1868 C1875 1.409 . S
C1869 H1861 0.930 . S
C1869 C1867 1.419 . S
C1869 C1870 1.362 . S
C1870 H1862 0.930 . S
C1870 C1869 1.362 . S
C1870 C1873 1.409 . S
C1871 H1863 0.930 . S
C1871 C1872 1.355 . S
C1871 C1873 1.415 . S
C1872 C1871 1.355 . S
C1872 C1874 1.419 . S
C1873 C1868 1.425 . S
C1873 C1870 1.409 . S
C1873 C1871 1.415 . S
C1874 H1864 0.930 . S
C1874 C1872 1.419 . S
C1874 C1875 1.362 . S
C1875 H1865 0.930 . S
C1875 C1868 1.409 . S
C1875 C1874 1.362 . S
H1876 C1882 0.930 . S
H1877 C1885 0.930 . S
H1878 C1886 0.930 . S
H1879 C1887 0.930 . S
H1880 C1890 0.930 . S
H1881 C1891 0.930 . S
C1882 H1876 0.930 . S
C1882 C1883 1.355 . S
C1882 C1884 1.415 . S
C1883 C1882 1.355 . S
C1883 C1885 1.419 . S
C1884 C1882 1.415 . S
C1884 C1889 1.425 . S
C1884 C1891 1.409 . S
C1885 H1877 0.930 . S
C1885 C1883 1.419 . S
C1885 C1886 1.362 . S
C1886 H1878 0.930 . S
C1886 C1885 1.362 . S
C1886 C1889 1.409 . S
C1887 H1879 0.930 . S
C1887 C1888 1.355 . S
C1887 C1889 1.415 . S
C1888 C1887 1.355 . S
C1888 C1890 1.419 . S
C1889 C1884 1.425 . S
C1889 C1886 1.409 . S
C1889 C1887 1.415 . S
C1890 H1880 0.930 . S
C1890 C1888 1.419 . S
C1890 C1891 1.362 . S
C1891 H1881 0.930 . S
C1891 C1884 1.409 . S
C1891 C1890 1.362 . S
H1892 C1898 0.930 . S
H1893 C1901 0.930 . S
H1894 C1902 0.930 . S
H1895 C1903 0.930 . S
H1896 C1906 0.930 . S
H1897 C1907 0.930 . S
C1898 H1892 0.930 . S
C1898 C1899 1.355 . S
C1898 C1900 1.415 . S
C1899 C1898 1.355 . S
C1899 C1901 1.419 . S
C1900 C1898 1.415 . S
C1900 C1905 1.425 . S
C1900 C1907 1.409 . S
C1901 H1893 0.930 . S
C1901 C1899 1.419 . S
C1901 C1902 1.362 . S
C1902 H1894 0.930 . S
C1902 C1901 1.362 . S
C1902 C1905 1.409 . S
C1903 H1895 0.930 . S
C1903 C1904 1.355 . S
C1903 C1905 1.415 . S
C1904 C1903 1.355 . S
C1904 C1906 1.419 . S
C1905 C1900 1.425 . S
C1905 C1902 1.409 . S
C1905 C1903 1.415 . S
C1906 H1896 0.930 . S
C1906 C1904 1.419 . S
C1906 C1907 1.362 . S
C1907 H1897 0.930 . S
C1907 C1900 1.409 . S
C1907 C1906 1.362 . S
H1908 C1914 0.930 . S
H1909 C1917 0.930 . S
H1910 C1918 0.930 . S
H1911 C1919 0.930 . S
H1912 C1922 0.930 . S
H1913 C1923 0.930 . S
C1914 H1908 0.930 . S
C1914 C1915 1.355 . S
C1914 C1916 1.415 . S
C1915 C1914 1.355 . S
C1915 C1917 1.419 . S
C1916 C1914 1.415 . S
C1916 C1921 1.425 . S
C1916 C1923 1.409 . S
C1917 H1909 0.930 . S
C1917 C1915 1.419 . S
C1917 C1918 1.362 . S
C1918 H1910 0.930 . S
C1918 C1917 1.362 . S
C1918 C1921 1.409 . S
C1919 H1911 0.930 . S
C1919 C1920 1.355 . S
C1919 C1921 1.415 . S
C1920 C1919 1.355 . S
C1920 C1922 1.419 . S
C1921 C1916 1.425 . S
C1921 C1918 1.409 . S
C1921 C1919 1.415 . S
C1922 H1912 0.930 . S
C1922 C1920 1.419 . S
C1922 C1923 1.362 . S
C1923 H1913 0.930 . S
C1923 C1916 1.409 . S
C1923 C1922 1.362 . S
H1924 C1930 0.930 . S
H1925 C1933 0.930 . S
H1926 C1934 0.930 . S
H1927 C1935 0.930 . S
H1928 C1938 0.930 1_554 S
H1929 C1939 0.930 . S
C1930 H1924 0.930 . S
C1930 C1931 1.355 . S
C1930 C1932 1.415 . S
C1931 C1930 1.355 . S
C1931 C1933 1.419 . S
C1932 C1930 1.415 . S
C1932 C1937 1.425 . S
C1932 C1939 1.409 . S
C1933 H1925 0.930 . S
C1933 C1931 1.419 . S
C1933 C1934 1.362 . S
C1934 H1926 0.930 . S
C1934 C1933 1.362 . S
C1934 C1937 1.409 . S
C1935 H1927 0.930 . S
C1935 C1936 1.355 . S
C1935 C1937 1.415 . S
C1936 C1935 1.355 . S
C1936 C1938 1.419 . S
C1937 C1932 1.425 . S
C1937 C1934 1.409 . S
C1937 C1935 1.415 . S
C1938 H1928 0.930 1_556 S
C1938 C1936 1.419 . S
C1938 C1939 1.362 . S
C1939 H1929 0.930 . S
C1939 C1932 1.409 . S
C1939 C1938 1.362 . S
H1940 C1946 0.930 . S
H1941 C1949 0.930 . S
H1942 C1950 0.930 . S
H1943 C1951 0.930 . S
H1944 C1954 0.930 1_554 S
H1945 C1955 0.930 . S
C1946 H1940 0.930 . S
C1946 C1947 1.355 . S
C1946 C1948 1.415 . S
C1947 C1946 1.355 . S
C1947 C1949 1.419 . S
C1948 C1946 1.415 . S
C1948 C1953 1.425 . S
C1948 C1955 1.409 . S
C1949 H1941 0.930 . S
C1949 C1947 1.419 . S
C1949 C1950 1.362 . S
C1950 H1942 0.930 . S
C1950 C1949 1.362 . S
C1950 C1953 1.409 . S
C1951 H1943 0.930 . S
C1951 C1952 1.355 . S
C1951 C1953 1.415 . S
C1952 C1951 1.355 . S
C1952 C1954 1.419 . S
C1953 C1948 1.425 . S
C1953 C1950 1.409 . S
C1953 C1951 1.415 . S
C1954 H1944 0.930 1_556 S
C1954 C1952 1.419 . S
C1954 C1955 1.362 . S
C1955 H1945 0.930 . S
C1955 C1948 1.409 . S
C1955 C1954 1.362 . S
H1956 C1962 0.930 . S
H1957 C1965 0.930 . S
H1958 C1966 0.933 . S
H1959 C1967 0.930 . S
H1960 C1970 0.930 . S
H1961 C1971 0.935 . S
C1962 H1956 0.930 . S
C1962 C1963 1.355 . S
C1962 C1964 1.415 . S
C1963 C1962 1.355 . S
C1963 C1965 1.419 . S
C1964 C1962 1.415 . S
C1964 C1969 1.425 1_455 S
C1964 C1971 1.410 . S
C1965 H1957 0.930 . S
C1965 C1963 1.419 . S
C1965 C1966 1.359 1_455 S
C1966 H1958 0.933 . S
C1966 C1965 1.359 1_655 S
C1966 C1969 1.410 . S
C1967 H1959 0.930 . S
C1967 C1968 1.355 . S
C1967 C1969 1.415 . S
C1968 C1967 1.355 . S
C1968 C1970 1.419 . S
C1969 C1964 1.425 1_655 S
C1969 C1966 1.410 . S
C1969 C1967 1.415 . S
C1970 H1960 0.930 . S
C1970 C1968 1.419 . S
C1970 C1971 1.357 1_655 S
C1971 H1961 0.935 . S
C1971 C1964 1.410 . S
C1971 C1970 1.357 1_455 S
H1972 C1978 0.930 . S
H1973 C1981 0.930 . S
H1974 C1982 0.930 . S
H1975 C1983 0.930 . S
H1976 C1986 0.930 . S
H1977 C1987 0.930 . S
C1978 H1972 0.930 . S
C1978 C1979 1.355 . S
C1978 C1980 1.415 . S
C1979 C1978 1.355 . S
C1979 C1981 1.419 . S
C1980 C1978 1.415 . S
C1980 C1985 1.425 . S
C1980 C1987 1.409 . S
C1981 H1973 0.930 . S
C1981 C1979 1.419 . S
C1981 C1982 1.362 . S
C1982 H1974 0.930 . S
C1982 C1981 1.362 . S
C1982 C1985 1.409 . S
C1983 H1975 0.930 . S
C1983 C1984 1.355 . S
C1983 C1985 1.415 . S
C1984 C1983 1.355 . S
C1984 C1986 1.419 . S
C1985 C1980 1.425 . S
C1985 C1982 1.409 . S
C1985 C1983 1.415 . S
C1986 H1976 0.930 . S
C1986 C1984 1.419 . S
C1986 C1987 1.362 . S
C1987 H1977 0.930 . S
C1987 C1980 1.409 . S
C1987 C1986 1.362 . S
H1988 C1994 0.930 . S
H1989 C1997 0.930 . S
H1990 C1998 0.919 1_545 S
H1991 C1999 0.930 . S
H1992 C2002 0.930 . S
H1993 C2003 0.918 1_565 S
C1994 H1988 0.930 . S
C1994 C1995 1.355 . S
C1994 C1996 1.415 . S
C1995 C1994 1.355 . S
C1995 C1997 1.419 . S
C1996 C1994 1.415 . S
C1996 C2001 1.425 1_565 S
C1996 C2003 1.388 1_565 S
C1997 H1989 0.930 . S
C1997 C1995 1.419 . S
C1997 C1998 1.394 . S
C1998 H1990 0.919 1_565 S
C1998 C1997 1.394 . S
C1998 C2001 1.390 1_565 S
C1999 H1991 0.930 . S
C1999 C2000 1.355 . S
C1999 C2001 1.415 . S
C2000 C1999 1.355 . S
C2000 C2002 1.419 . S
C2001 C1996 1.425 1_545 S
C2001 C1998 1.390 1_545 S
C2001 C1999 1.415 . S
C2002 H1992 0.930 . S
C2002 C2000 1.419 . S
C2002 C2003 1.397 . S
C2003 H1993 0.918 1_545 S
C2003 C1996 1.388 1_545 S
C2003 C2002 1.397 . S
H2004 C2010 0.930 . S
H2005 C2013 0.930 . S
H2006 C2014 0.930 . S
H2007 C2015 0.930 . S
H2008 C2018 0.930 . S
H2009 C2019 0.930 . S
C2010 H2004 0.930 . S
C2010 C2011 1.355 . S
C2010 C2012 1.411 . S
C2011 C2010 1.355 . S
C2011 C2013 1.419 . S
C2012 C2010 1.411 . S
C2012 C2017 1.421 1_565 S
C2012 C2019 1.414 1_565 S
C2013 H2005 0.930 . S
C2013 C2011 1.419 . S
C2013 C2014 1.362 . S
C2014 H2006 0.930 . S
C2014 C2013 1.362 . S
C2014 C2017 1.418 1_565 S
C2015 H2007 0.930 . S
C2015 C2016 1.355 . S
C2015 C2017 1.408 . S
C2016 C2015 1.355 . S
C2016 C2018 1.419 . S
C2017 C2012 1.421 1_545 S
C2017 C2014 1.418 1_545 S
C2017 C2015 1.408 . S
C2018 H2008 0.930 . S
C2018 C2016 1.419 . S
C2018 C2019 1.362 . S
C2019 H2009 0.930 . S
C2019 C2012 1.414 1_545 S
C2019 C2018 1.362 . S
H2020 C2026 0.930 . S
H2021 C2029 0.930 . S
H2022 C2030 0.960 . S
H2023 C2031 0.930 . S
H2024 C2034 0.930 . S
H2025 C2035 0.958 . S
C2026 H2020 0.930 . S
C2026 C2027 1.355 . S
C2026 C2028 1.415 . S
C2027 C2026 1.355 . S
C2027 C2029 1.419 . S
C2028 C2026 1.415 . S
C2028 C2033 1.425 1_455 S
C2028 C2035 1.425 . S
C2029 H2021 0.930 . S
C2029 C2027 1.419 . S
C2029 C2030 1.319 1_455 S
C2030 H2022 0.960 . S
C2030 C2029 1.319 1_655 S
C2030 C2033 1.426 . S
C2031 H2023 0.930 . S
C2031 C2032 1.355 . S
C2031 C2033 1.415 . S
C2032 C2031 1.355 . S
C2032 C2034 1.419 . S
C2033 C2028 1.425 1_655 S
C2033 C2030 1.426 . S
C2033 C2031 1.415 . S
C2034 H2024 0.930 . S
C2034 C2032 1.419 . S
C2034 C2035 1.321 1_655 S
C2035 H2025 0.958 . S
C2035 C2028 1.425 . S
C2035 C2034 1.321 1_455 S
H2036 C2042 0.930 . S
H2037 C2045 0.930 . S
H2038 C2046 0.930 . S
H2039 C2047 0.930 . S
H2040 C2050 0.930 . S
H2041 C2051 0.930 . S
C2042 H2036 0.930 . S
C2042 C2043 1.355 . S
C2042 C2044 1.415 . S
C2043 C2042 1.355 . S
C2043 C2045 1.419 . S
C2044 C2042 1.415 . S
C2044 C2049 1.425 . S
C2044 C2051 1.409 . S
C2045 H2037 0.930 . S
C2045 C2043 1.419 . S
C2045 C2046 1.362 . S
C2046 H2038 0.930 . S
C2046 C2045 1.362 . S
C2046 C2049 1.409 . S
C2047 H2039 0.930 . S
C2047 C2048 1.355 . S
C2047 C2049 1.415 . S
C2048 C2047 1.355 . S
C2048 C2050 1.419 . S
C2049 C2044 1.425 . S
C2049 C2046 1.409 . S
C2049 C2047 1.415 . S
C2050 H2040 0.930 . S
C2050 C2048 1.419 . S
C2050 C2051 1.362 . S
C2051 H2041 0.930 . S
C2051 C2044 1.409 . S
C2051 C2050 1.362 . S
H2052 C2058 0.930 . S
H2053 C2061 0.930 . S
H2054 C2062 0.930 . S
H2055 C2063 0.930 . S
H2056 C2066 0.930 . S
H2057 C2067 0.930 . S
C2058 H2052 0.930 . S
C2058 C2059 1.355 . S
C2058 C2060 1.415 . S
C2059 C2058 1.355 . S
C2059 C2061 1.419 . S
C2060 C2058 1.415 . S
C2060 C2065 1.425 . S
C2060 C2067 1.409 . S
C2061 H2053 0.930 . S
C2061 C2059 1.419 . S
C2061 C2062 1.362 . S
C2062 H2054 0.930 . S
C2062 C2061 1.362 . S
C2062 C2065 1.409 . S
C2063 H2055 0.930 . S
C2063 C2064 1.355 . S
C2063 C2065 1.415 . S
C2064 C2063 1.355 . S
C2064 C2066 1.419 . S
C2065 C2060 1.425 . S
C2065 C2062 1.409 . S
C2065 C2063 1.415 . S
C2066 H2056 0.930 . S
C2066 C2064 1.419 . S
C2066 C2067 1.362 . S
C2067 H2057 0.930 . S
C2067 C2060 1.409 . S
C2067 C2066 1.362 . S
H2068 C2074 0.930 . S
H2069 C2077 0.930 . S
H2070 C2078 0.930 . S
H2071 C2079 0.930 . S
H2072 C2082 0.930 . S
H2073 C2083 0.930 . S
C2074 H2068 0.930 . S
C2074 C2075 1.355 . S
C2074 C2076 1.415 . S
C2075 C2074 1.355 . S
C2075 C2077 1.419 . S
C2076 C2074 1.415 . S
C2076 C2081 1.425 . S
C2076 C2083 1.409 . S
C2077 H2069 0.930 . S
C2077 C2075 1.419 . S
C2077 C2078 1.362 . S
C2078 H2070 0.930 . S
C2078 C2077 1.362 . S
C2078 C2081 1.409 . S
C2079 H2071 0.930 . S
C2079 C2080 1.355 . S
C2079 C2081 1.415 . S
C2080 C2079 1.355 . S
C2080 C2082 1.419 . S
C2081 C2076 1.425 . S
C2081 C2078 1.409 . S
C2081 C2079 1.415 . S
C2082 H2072 0.930 . S
C2082 C2080 1.419 . S
C2082 C2083 1.362 . S
C2083 H2073 0.930 . S
C2083 C2076 1.409 . S
C2083 C2082 1.362 . S
H2084 C2090 0.930 . S
H2085 C2093 0.930 . S
H2086 C2094 0.930 . S
H2087 C2095 0.930 . S
H2088 C2098 0.930 . S
H2089 C2099 0.930 . S
C2090 H2084 0.930 . S
C2090 C2091 1.355 . S
C2090 C2092 1.415 . S
C2091 C2090 1.355 . S
C2091 C2093 1.419 . S
C2092 C2090 1.415 . S
C2092 C2097 1.425 . S
C2092 C2099 1.409 . S
C2093 H2085 0.930 . S
C2093 C2091 1.419 . S
C2093 C2094 1.362 . S
C2094 H2086 0.930 . S
C2094 C2093 1.362 . S
C2094 C2097 1.409 . S
C2095 H2087 0.930 . S
C2095 C2096 1.355 . S
C2095 C2097 1.415 . S
C2096 C2095 1.355 . S
C2096 C2098 1.419 . S
C2097 C2092 1.425 . S
C2097 C2094 1.409 . S
C2097 C2095 1.415 . S
C2098 H2088 0.930 . S
C2098 C2096 1.419 . S
C2098 C2099 1.362 . S
C2099 H2089 0.930 . S
C2099 C2092 1.409 . S
C2099 C2098 1.362 . S
H2100 C2106 0.930 . S
H2101 C2109 0.930 . S
H2102 C2110 0.930 . S
H2103 C2111 0.930 . S
H2104 C2114 0.930 . S
H2105 C2115 0.930 . S
C2106 H2100 0.930 . S
C2106 C2107 1.355 . S
C2106 C2108 1.415 . S
C2107 C2106 1.355 . S
C2107 C2109 1.419 . S
C2108 C2106 1.415 . S
C2108 C2113 1.425 . S
C2108 C2115 1.409 . S
C2109 H2101 0.930 . S
C2109 C2107 1.419 . S
C2109 C2110 1.362 . S
C2110 H2102 0.930 . S
C2110 C2109 1.362 . S
C2110 C2113 1.409 . S
C2111 H2103 0.930 . S
C2111 C2112 1.355 . S
C2111 C2113 1.415 . S
C2112 C2111 1.355 . S
C2112 C2114 1.419 . S
C2113 C2108 1.425 . S
C2113 C2110 1.409 . S
C2113 C2111 1.415 . S
C2114 H2104 0.930 . S
C2114 C2112 1.419 . S
C2114 C2115 1.362 . S
C2115 H2105 0.930 . S
C2115 C2108 1.409 . S
C2115 C2114 1.362 . S
H2116 C2122 0.930 . S
H2117 C2125 0.930 . S
H2118 C2126 0.930 . S
H2119 C2127 0.930 . S
H2120 C2130 0.930 . S
H2121 C2131 0.930 . S
C2122 H2116 0.930 . S
C2122 C2123 1.355 . S
C2122 C2124 1.415 . S
C2123 C2122 1.355 . S
C2123 C2125 1.419 . S
C2124 C2122 1.415 . S
C2124 C2129 1.425 . S
C2124 C2131 1.409 . S
C2125 H2117 0.930 . S
C2125 C2123 1.419 . S
C2125 C2126 1.362 . S
C2126 H2118 0.930 . S
C2126 C2125 1.362 . S
C2126 C2129 1.409 . S
C2127 H2119 0.930 . S
C2127 C2128 1.355 . S
C2127 C2129 1.415 . S
C2128 C2127 1.355 . S
C2128 C2130 1.419 . S
C2129 C2124 1.425 . S
C2129 C2126 1.409 . S
C2129 C2127 1.415 . S
C2130 H2120 0.930 . S
C2130 C2128 1.419 . S
C2130 C2131 1.362 . S
C2131 H2121 0.930 . S
C2131 C2124 1.409 . S
C2131 C2130 1.362 . S
H2132 C2138 0.930 . S
H2133 C2141 0.930 . S
H2134 C2142 0.930 . S
H2135 C2143 0.930 . S
H2136 C2146 0.930 . S
H2137 C2147 0.930 . S
C2138 H2132 0.930 . S
C2138 C2139 1.355 . S
C2138 C2140 1.415 . S
C2139 C2138 1.355 . S
C2139 C2141 1.419 . S
C2140 C2138 1.415 . S
C2140 C2145 1.425 . S
C2140 C2147 1.409 . S
C2141 H2133 0.930 . S
C2141 C2139 1.419 . S
C2141 C2142 1.362 . S
C2142 H2134 0.930 . S
C2142 C2141 1.362 . S
C2142 C2145 1.409 . S
C2143 H2135 0.930 . S
C2143 C2144 1.355 . S
C2143 C2145 1.415 . S
C2144 C2143 1.355 . S
C2144 C2146 1.419 . S
C2145 C2140 1.425 . S
C2145 C2142 1.409 . S
C2145 C2143 1.415 . S
C2146 H2136 0.930 . S
C2146 C2144 1.419 . S
C2146 C2147 1.362 . S
C2147 H2137 0.930 . S
C2147 C2140 1.409 . S
C2147 C2146 1.362 . S
H2148 C2154 0.930 . S
H2149 C2157 0.930 . S
H2150 C2158 0.930 . S
H2151 C2159 0.930 . S
H2152 C2162 0.930 . S
H2153 C2163 0.930 . S
C2154 H2148 0.930 . S
C2154 C2155 1.355 . S
C2154 C2156 1.415 . S
C2155 C2154 1.355 . S
C2155 C2157 1.419 . S
C2156 C2154 1.415 . S
C2156 C2161 1.425 . S
C2156 C2163 1.409 . S
C2157 H2149 0.930 . S
C2157 C2155 1.419 . S
C2157 C2158 1.362 . S
C2158 H2150 0.930 . S
C2158 C2157 1.362 . S
C2158 C2161 1.409 . S
C2159 H2151 0.930 . S
C2159 C2160 1.355 . S
C2159 C2161 1.415 . S
C2160 C2159 1.355 . S
C2160 C2162 1.419 . S
C2161 C2156 1.425 . S
C2161 C2158 1.409 . S
C2161 C2159 1.415 . S
C2162 H2152 0.930 . S
C2162 C2160 1.419 . S
C2162 C2163 1.362 . S
C2163 H2153 0.930 . S
C2163 C2156 1.409 . S
C2163 C2162 1.362 . S
H2164 C2170 0.930 . S
H2165 C2173 0.930 . S
H2166 C2174 0.930 . S
H2167 C2175 0.930 . S
H2168 C2178 0.930 . S
H2169 C2179 0.930 . S
C2170 H2164 0.930 . S
C2170 C2171 1.355 . S
C2170 C2172 1.415 . S
C2171 C2170 1.355 . S
C2171 C2173 1.419 . S
C2172 C2170 1.415 . S
C2172 C2177 1.425 . S
C2172 C2179 1.409 . S
C2173 H2165 0.930 . S
C2173 C2171 1.419 . S
C2173 C2174 1.362 . S
C2174 H2166 0.930 . S
C2174 C2173 1.362 . S
C2174 C2177 1.409 . S
C2175 H2167 0.930 . S
C2175 C2176 1.355 . S
C2175 C2177 1.415 . S
C2176 C2175 1.355 . S
C2176 C2178 1.419 . S
C2177 C2172 1.425 . S
C2177 C2174 1.409 . S
C2177 C2175 1.415 . S
C2178 H2168 0.930 . S
C2178 C2176 1.419 . S
C2178 C2179 1.362 . S
C2179 H2169 0.930 . S
C2179 C2172 1.409 . S
C2179 C2178 1.362 . S
H2180 C2186 0.930 . S
H2181 C2189 0.930 . S
H2182 C2190 0.930 . S
H2183 C2191 0.930 . S
H2184 C2194 0.930 . S
H2185 C2195 0.930 . S
C2186 H2180 0.930 . S
C2186 C2187 1.355 . S
C2186 C2188 1.415 . S
C2187 C2186 1.355 . S
C2187 C2189 1.419 . S
C2188 C2186 1.415 . S
C2188 C2193 1.425 . S
C2188 C2195 1.409 . S
C2189 H2181 0.930 . S
C2189 C2187 1.419 . S
C2189 C2190 1.362 . S
C2190 H2182 0.930 . S
C2190 C2189 1.362 . S
C2190 C2193 1.409 . S
C2191 H2183 0.930 . S
C2191 C2192 1.355 . S
C2191 C2193 1.415 . S
C2192 C2191 1.355 . S
C2192 C2194 1.419 . S
C2193 C2188 1.425 . S
C2193 C2190 1.409 . S
C2193 C2191 1.415 . S
C2194 H2184 0.930 . S
C2194 C2192 1.419 . S
C2194 C2195 1.362 . S
C2195 H2185 0.930 . S
C2195 C2188 1.409 . S
C2195 C2194 1.362 . S
H2196 C2202 0.930 . S
H2197 C2205 0.930 . S
H2198 C2206 0.930 . S
H2199 C2207 0.930 . S
H2200 C2210 0.930 . S
H2201 C2211 0.930 . S
C2202 H2196 0.930 . S
C2202 C2203 1.355 . S
C2202 C2204 1.415 . S
C2203 C2202 1.355 . S
C2203 C2205 1.419 . S
C2204 C2202 1.415 . S
C2204 C2209 1.425 . S
C2204 C2211 1.409 . S
C2205 H2197 0.930 . S
C2205 C2203 1.419 . S
C2205 C2206 1.362 . S
C2206 H2198 0.930 . S
C2206 C2205 1.362 . S
C2206 C2209 1.409 . S
C2207 H2199 0.930 . S
C2207 C2208 1.355 . S
C2207 C2209 1.415 . S
C2208 C2207 1.355 . S
C2208 C2210 1.419 . S
C2209 C2204 1.425 . S
C2209 C2206 1.409 . S
C2209 C2207 1.415 . S
C2210 H2200 0.930 . S
C2210 C2208 1.419 . S
C2210 C2211 1.362 . S
C2211 H2201 0.930 . S
C2211 C2204 1.409 . S
C2211 C2210 1.362 . S
H2212 C2218 0.930 . S
H2213 C2221 0.930 . S
H2214 C2222 0.930 . S
H2215 C2223 0.930 . S
H2216 C2226 0.930 . S
H2217 C2227 0.930 . S
C2218 H2212 0.930 . S
C2218 C2219 1.355 . S
C2218 C2220 1.415 . S
C2219 C2218 1.355 . S
C2219 C2221 1.419 . S
C2220 C2218 1.415 . S
C2220 C2225 1.425 . S
C2220 C2227 1.409 . S
C2221 H2213 0.930 . S
C2221 C2219 1.419 . S
C2221 C2222 1.362 . S
C2222 H2214 0.930 . S
C2222 C2221 1.362 . S
C2222 C2225 1.409 . S
C2223 H2215 0.930 . S
C2223 C2224 1.355 . S
C2223 C2225 1.415 . S
C2224 C2223 1.355 . S
C2224 C2226 1.419 . S
C2225 C2220 1.425 . S
C2225 C2222 1.409 . S
C2225 C2223 1.415 . S
C2226 H2216 0.930 . S
C2226 C2224 1.419 . S
C2226 C2227 1.362 . S
C2227 H2217 0.930 . S
C2227 C2220 1.409 . S
C2227 C2226 1.362 . S
H2228 C2234 0.930 . S
H2229 C2237 0.930 . S
H2230 C2238 0.930 . S
H2231 C2239 0.930 . S
H2232 C2242 0.930 . S
H2233 C2243 0.930 . S
C2234 H2228 0.930 . S
C2234 C2235 1.355 . S
C2234 C2236 1.415 . S
C2235 C2234 1.355 . S
C2235 C2237 1.419 . S
C2236 C2234 1.415 . S
C2236 C2241 1.425 . S
C2236 C2243 1.409 . S
C2237 H2229 0.930 . S
C2237 C2235 1.419 . S
C2237 C2238 1.362 . S
C2238 H2230 0.930 . S
C2238 C2237 1.362 . S
C2238 C2241 1.409 . S
C2239 H2231 0.930 . S
C2239 C2240 1.355 . S
C2239 C2241 1.415 . S
C2240 C2239 1.355 . S
C2240 C2242 1.419 . S
C2241 C2236 1.425 . S
C2241 C2238 1.409 . S
C2241 C2239 1.415 . S
C2242 H2232 0.930 . S
C2242 C2240 1.419 . S
C2242 C2243 1.362 . S
C2243 H2233 0.930 . S
C2243 C2236 1.409 . S
C2243 C2242 1.362 . S
H2244 C2250 0.930 . S
H2245 C2253 0.930 . S
H2246 C2254 0.930 . S
H2247 C2255 0.930 . S
H2248 C2258 0.930 . S
H2249 C2259 0.930 . S
C2250 H2244 0.930 . S
C2250 C2251 1.355 . S
C2250 C2252 1.415 . S
C2251 C2250 1.355 . S
C2251 C2253 1.419 . S
C2252 C2250 1.415 . S
C2252 C2257 1.425 . S
C2252 C2259 1.409 . S
C2253 H2245 0.930 . S
C2253 C2251 1.419 . S
C2253 C2254 1.362 . S
C2254 H2246 0.930 . S
C2254 C2253 1.362 . S
C2254 C2257 1.409 . S
C2255 H2247 0.930 . S
C2255 C2256 1.355 . S
C2255 C2257 1.415 . S
C2256 C2255 1.355 . S
C2256 C2258 1.419 . S
C2257 C2252 1.425 . S
C2257 C2254 1.409 . S
C2257 C2255 1.415 . S
C2258 H2248 0.930 . S
C2258 C2256 1.419 . S
C2258 C2259 1.362 . S
C2259 H2249 0.930 . S
C2259 C2252 1.409 . S
C2259 C2258 1.362 . S
H2260 C2266 0.930 . S
H2261 C2269 0.930 1_554 S
H2262 C2270 0.930 . S
H2263 C2271 0.930 . S
H2264 C2274 0.930 . S
H2265 C2275 0.930 . S
C2266 H2260 0.930 . S
C2266 C2267 1.355 . S
C2266 C2268 1.415 . S
C2267 C2266 1.355 . S
C2267 C2269 1.419 . S
C2268 C2266 1.415 . S
C2268 C2273 1.425 . S
C2268 C2275 1.409 . S
C2269 H2261 0.930 1_556 S
C2269 C2267 1.419 . S
C2269 C2270 1.362 . S
C2270 H2262 0.930 . S
C2270 C2269 1.362 . S
C2270 C2273 1.409 . S
C2271 H2263 0.930 . S
C2271 C2272 1.355 . S
C2271 C2273 1.415 . S
C2272 C2271 1.355 . S
C2272 C2274 1.419 . S
C2273 C2268 1.425 . S
C2273 C2270 1.409 . S
C2273 C2271 1.415 . S
C2274 H2264 0.930 . S
C2274 C2272 1.419 . S
C2274 C2275 1.362 . S
C2275 H2265 0.930 . S
C2275 C2268 1.409 . S
C2275 C2274 1.362 . S
H2276 C2282 0.930 . S
H2277 C2285 0.930 . S
H2278 C2286 0.930 . S
H2279 C2287 0.930 . S
H2280 C2290 0.930 . S
H2281 C2291 0.930 . S
C2282 H2276 0.930 . S
C2282 C2283 1.355 . S
C2282 C2284 1.415 . S
C2283 C2282 1.355 . S
C2283 C2285 1.419 . S
C2284 C2282 1.415 . S
C2284 C2289 1.425 . S
C2284 C2291 1.409 . S
C2285 H2277 0.930 . S
C2285 C2283 1.419 . S
C2285 C2286 1.362 . S
C2286 H2278 0.930 . S
C2286 C2285 1.362 . S
C2286 C2289 1.409 . S
C2287 H2279 0.930 . S
C2287 C2288 1.355 . S
C2287 C2289 1.415 . S
C2288 C2287 1.355 . S
C2288 C2290 1.419 . S
C2289 C2284 1.425 . S
C2289 C2286 1.409 . S
C2289 C2287 1.415 . S
C2290 H2280 0.930 . S
C2290 C2288 1.419 . S
C2290 C2291 1.362 . S
C2291 H2281 0.930 . S
C2291 C2284 1.409 . S
C2291 C2290 1.362 . S
H2292 C2298 0.930 . S
H2293 C2301 0.930 . S
H2294 C2302 0.930 . S
H2295 C2303 0.930 . S
H2296 C2306 0.926 1_554 S
H2297 C2307 0.930 . S
C2298 H2292 0.930 . S
C2298 C2299 1.355 . S
C2298 C2300 1.415 . S
C2299 C2298 1.355 . S
C2299 C2301 1.419 . S
C2300 C2298 1.415 . S
C2300 C2305 1.425 . S
C2300 C2307 1.409 . S
C2301 H2293 0.930 . S
C2301 C2299 1.419 . S
C2301 C2302 1.362 . S
C2302 H2294 0.930 . S
C2302 C2301 1.362 . S
C2302 C2305 1.409 . S
C2303 H2295 0.930 . S
C2303 C2304 1.355 1_556 S
C2303 C2305 1.415 . S
C2304 C2303 1.355 1_554 S
C2304 C2306 1.418 1_554 S
C2305 C2300 1.425 . S
C2305 C2302 1.409 . S
C2305 C2303 1.415 . S
C2306 H2296 0.926 1_556 S
C2306 C2304 1.418 1_556 S
C2306 C2307 1.367 . S
C2307 H2297 0.930 . S
C2307 C2300 1.409 . S
C2307 C2306 1.367 . S
H2308 C2314 0.930 . S
H2309 C2317 0.930 . S
H2310 C2318 0.930 . S
H2311 C2319 0.930 . S
H2312 C2322 0.930 . S
H2313 C2323 0.930 . S
C2314 H2308 0.930 . S
C2314 C2315 1.355 . S
C2314 C2316 1.415 . S
C2315 C2314 1.355 . S
C2315 C2317 1.419 . S
C2316 C2314 1.415 . S
C2316 C2321 1.425 . S
C2316 C2323 1.409 . S
C2317 H2309 0.930 . S
C2317 C2315 1.419 . S
C2317 C2318 1.362 . S
C2318 H2310 0.930 . S
C2318 C2317 1.362 . S
C2318 C2321 1.409 . S
C2319 H2311 0.930 . S
C2319 C2320 1.355 1_556 S
C2319 C2321 1.415 . S
C2320 C2319 1.355 1_554 S
C2320 C2322 1.419 1_554 S
C2321 C2316 1.425 . S
C2321 C2318 1.409 . S
C2321 C2319 1.415 . S
C2322 H2312 0.930 . S
C2322 C2320 1.419 1_556 S
C2322 C2323 1.362 . S
C2323 H2313 0.930 . S
C2323 C2316 1.409 . S
C2323 C2322 1.362 . S
H2324 C2330 0.930 . S
H2325 C2333 0.930 1_554 S
H2326 C2334 0.930 . S
H2327 C2335 0.930 . S
H2328 C2338 0.930 . S
H2329 C2339 0.930 . S
C2330 H2324 0.930 . S
C2330 C2331 1.355 1_556 S
C2330 C2332 1.415 . S
C2331 C2330 1.355 1_554 S
C2331 C2333 1.419 1_554 S
C2332 C2330 1.415 . S
C2332 C2337 1.425 . S
C2332 C2339 1.409 . S
C2333 H2325 0.930 1_556 S
C2333 C2331 1.419 1_556 S
C2333 C2334 1.362 . S
C2334 H2326 0.930 . S
C2334 C2333 1.362 . S
C2334 C2337 1.409 . S
C2335 H2327 0.930 . S
C2335 C2336 1.355 . S
C2335 C2337 1.415 . S
C2336 C2335 1.355 . S
C2336 C2338 1.419 . S
C2337 C2332 1.425 . S
C2337 C2334 1.409 . S
C2337 C2335 1.415 . S
C2338 H2328 0.930 . S
C2338 C2336 1.419 . S
C2338 C2339 1.362 . S
C2339 H2329 0.930 . S
C2339 C2332 1.409 . S
C2339 C2338 1.362 . S
H2340 C2346 0.930 . S
H2341 C2349 0.930 . S
H2342 C2350 0.930 . S
H2343 C2351 0.930 . S
H2344 C2354 0.925 1_554 S
H2345 C2355 0.930 . S
C2346 H2340 0.930 . S
C2346 C2347 1.355 . S
C2346 C2348 1.415 . S
C2347 C2346 1.355 . S
C2347 C2349 1.419 . S
C2348 C2346 1.415 . S
C2348 C2353 1.425 . S
C2348 C2355 1.409 . S
C2349 H2341 0.930 . S
C2349 C2347 1.419 . S
C2349 C2350 1.362 . S
C2350 H2342 0.930 . S
C2350 C2349 1.362 . S
C2350 C2353 1.409 . S
C2351 H2343 0.930 . S
C2351 C2352 1.355 1_556 S
C2351 C2353 1.415 . S
C2352 C2351 1.355 1_554 S
C2352 C2354 1.419 1_554 S
C2353 C2348 1.425 . S
C2353 C2350 1.409 . S
C2353 C2351 1.415 . S
C2354 H2344 0.925 1_556 S
C2354 C2352 1.419 1_556 S
C2354 C2355 1.362 . S
C2355 H2345 0.930 . S
C2355 C2348 1.409 . S
C2355 C2354 1.362 . S
H2356 C2362 0.930 . S
H2357 C2365 0.930 . S
H2358 C2366 0.930 . S
H2359 C2367 0.930 . S
H2360 C2370 0.930 . S
H2361 C2371 0.930 . S
C2362 H2356 0.930 . S
C2362 C2363 1.355 1_556 S
C2362 C2364 1.415 . S
C2363 C2362 1.355 1_554 S
C2363 C2365 1.419 1_554 S
C2364 C2362 1.415 . S
C2364 C2369 1.425 . S
C2364 C2371 1.409 . S
C2365 H2357 0.930 . S
C2365 C2363 1.419 1_556 S
C2365 C2366 1.362 . S
C2366 H2358 0.930 . S
C2366 C2365 1.362 . S
C2366 C2369 1.409 . S
C2367 H2359 0.930 . S
C2367 C2368 1.355 . S
C2367 C2369 1.415 . S
C2368 C2367 1.355 . S
C2368 C2370 1.419 . S
C2369 C2364 1.425 . S
C2369 C2366 1.409 . S
C2369 C2367 1.415 . S
C2370 H2360 0.930 . S
C2370 C2368 1.419 . S
C2370 C2371 1.362 . S
C2371 H2361 0.930 . S
C2371 C2364 1.409 . S
C2371 C2370 1.362 . S
H2372 C2378 0.930 . S
H2373 C2381 0.930 1_554 S
H2374 C2382 0.930 . S
H2375 C2383 0.930 . S
H2376 C2386 0.930 . S
H2377 C2387 0.930 . S
C2378 H2372 0.930 . S
C2378 C2379 1.355 1_556 S
C2378 C2380 1.415 . S
C2379 C2378 1.355 1_554 S
C2379 C2381 1.419 1_554 S
C2380 C2378 1.415 . S
C2380 C2385 1.425 . S
C2380 C2387 1.409 . S
C2381 H2373 0.930 1_556 S
C2381 C2379 1.419 1_556 S
C2381 C2382 1.362 . S
C2382 H2374 0.930 . S
C2382 C2381 1.362 . S
C2382 C2385 1.409 . S
C2383 H2375 0.930 . S
C2383 C2384 1.355 . S
C2383 C2385 1.415 . S
C2384 C2383 1.355 . S
C2384 C2386 1.419 . S
C2385 C2380 1.425 . S
C2385 C2382 1.409 . S
C2385 C2383 1.415 . S
C2386 H2376 0.930 . S
C2386 C2384 1.419 . S
C2386 C2387 1.362 . S
C2387 H2377 0.930 . S
C2387 C2380 1.409 . S
C2387 C2386 1.362 . S
H2388 C2394 0.930 . S
H2389 C2397 0.930 . S
H2390 C2398 0.930 . S
H2391 C2399 0.930 . S
H2392 C2402 0.930 . S
H2393 C2403 0.930 . S
C2394 H2388 0.930 . S
C2394 C2395 1.355 . S
C2394 C2396 1.415 . S
C2395 C2394 1.355 . S
C2395 C2397 1.419 . S
C2396 C2394 1.415 . S
C2396 C2401 1.425 . S
C2396 C2403 1.409 . S
C2397 H2389 0.930 . S
C2397 C2395 1.419 . S
C2397 C2398 1.362 . S
C2398 H2390 0.930 . S
C2398 C2397 1.362 . S
C2398 C2401 1.409 . S
C2399 H2391 0.930 . S
C2399 C2400 1.355 . S
C2399 C2401 1.415 . S
C2400 C2399 1.355 . S
C2400 C2402 1.419 . S
C2401 C2396 1.425 . S
C2401 C2398 1.409 . S
C2401 C2399 1.415 . S
C2402 H2392 0.930 . S
C2402 C2400 1.419 . S
C2402 C2403 1.362 . S
C2403 H2393 0.930 . S
C2403 C2396 1.409 . S
C2403 C2402 1.362 . S
H2404 C2410 0.930 . S
H2405 C2413 0.930 . S
H2406 C2414 0.930 . S
H2407 C2415 0.930 . S
H2408 C2418 0.930 . S
H2409 C2419 0.930 . S
C2410 H2404 0.930 . S
C2410 C2411 1.355 . S
C2410 C2412 1.415 . S
C2411 C2410 1.355 . S
C2411 C2413 1.419 . S
C2412 C2410 1.415 . S
C2412 C2417 1.425 . S
C2412 C2419 1.409 . S
C2413 H2405 0.930 . S
C2413 C2411 1.419 . S
C2413 C2414 1.362 . S
C2414 H2406 0.930 . S
C2414 C2413 1.362 . S
C2414 C2417 1.409 . S
C2415 H2407 0.930 . S
C2415 C2416 1.355 . S
C2415 C2417 1.415 . S
C2416 C2415 1.355 . S
C2416 C2418 1.419 . S
C2417 C2412 1.425 . S
C2417 C2414 1.409 . S
C2417 C2415 1.415 . S
C2418 H2408 0.930 . S
C2418 C2416 1.419 . S
C2418 C2419 1.362 . S
C2419 H2409 0.930 . S
C2419 C2412 1.409 . S
C2419 C2418 1.362 . S
H2420 C2426 0.930 . S
H2421 C2429 0.930 . S
H2422 C2430 0.930 . S
H2423 C2431 0.930 . S
H2424 C2434 0.930 . S
H2425 C2435 0.930 . S
C2426 H2420 0.930 . S
C2426 C2427 1.355 . S
C2426 C2428 1.415 . S
C2427 C2426 1.355 . S
C2427 C2429 1.419 . S
C2428 C2426 1.415 . S
C2428 C2433 1.425 . S
C2428 C2435 1.409 . S
C2429 H2421 0.930 . S
C2429 C2427 1.419 . S
C2429 C2430 1.362 . S
C2430 H2422 0.930 . S
C2430 C2429 1.362 . S
C2430 C2433 1.409 . S
C2431 H2423 0.930 . S
C2431 C2432 1.355 . S
C2431 C2433 1.415 . S
C2432 C2431 1.355 . S
C2432 C2434 1.419 . S
C2433 C2428 1.425 . S
C2433 C2430 1.409 . S
C2433 C2431 1.415 . S
C2434 H2424 0.930 . S
C2434 C2432 1.419 . S
C2434 C2435 1.362 . S
C2435 H2425 0.930 . S
C2435 C2428 1.409 . S
C2435 C2434 1.362 . S
H2436 C2442 0.930 . S
H2437 C2445 0.930 . S
H2438 C2446 0.930 . S
H2439 C2447 0.930 . S
H2440 C2450 0.930 . S
H2441 C2451 0.930 . S
C2442 H2436 0.930 . S
C2442 C2443 1.355 . S
C2442 C2444 1.415 . S
C2443 C2442 1.355 . S
C2443 C2445 1.419 . S
C2444 C2442 1.415 . S
C2444 C2449 1.425 . S
C2444 C2451 1.409 . S
C2445 H2437 0.930 . S
C2445 C2443 1.419 . S
C2445 C2446 1.362 . S
C2446 H2438 0.930 . S
C2446 C2445 1.362 . S
C2446 C2449 1.409 . S
C2447 H2439 0.930 . S
C2447 C2448 1.355 1_554 S
C2447 C2449 1.415 . S
C2448 C2447 1.355 1_556 S
C2448 C2450 1.419 1_556 S
C2449 C2444 1.425 . S
C2449 C2446 1.409 . S
C2449 C2447 1.415 . S
C2450 H2440 0.930 . S
C2450 C2448 1.419 1_554 S
C2450 C2451 1.362 . S
C2451 H2441 0.930 . S
C2451 C2444 1.409 . S
C2451 C2450 1.362 . S
H2452 C2458 0.930 . S
H2453 C2461 0.930 . S
H2454 C2462 0.930 . S
H2455 C2463 0.930 . S
H2456 C2466 0.930 1_556 S
H2457 C2467 0.930 . S
C2458 H2452 0.930 . S
C2458 C2459 1.355 . S
C2458 C2460 1.415 . S
C2459 C2458 1.355 . S
C2459 C2461 1.419 . S
C2460 C2458 1.415 . S
C2460 C2465 1.425 . S
C2460 C2467 1.409 . S
C2461 H2453 0.930 . S
C2461 C2459 1.419 . S
C2461 C2462 1.362 . S
C2462 H2454 0.930 . S
C2462 C2461 1.362 . S
C2462 C2465 1.409 . S
C2463 H2455 0.930 . S
C2463 C2464 1.355 1_554 S
C2463 C2465 1.415 . S
C2464 C2463 1.355 1_556 S
C2464 C2466 1.419 1_556 S
C2465 C2460 1.425 . S
C2465 C2462 1.409 . S
C2465 C2463 1.415 . S
C2466 H2456 0.930 1_554 S
C2466 C2464 1.419 1_554 S
C2466 C2467 1.362 . S
C2467 H2457 0.930 . S
C2467 C2460 1.409 . S
C2467 C2466 1.362 . S
H2468 C2474 0.930 . S
H2469 C2477 0.934 . S
H2470 C2478 0.930 . S
H2471 C2479 0.930 . S
H2472 C2482 0.930 . S
H2473 C2483 0.930 . S
C2474 H2468 0.930 . S
C2474 C2475 1.355 1_554 S
C2474 C2476 1.415 . S
C2475 C2474 1.355 1_556 S
C2475 C2477 1.420 . S
C2476 C2474 1.415 . S
C2476 C2481 1.425 . S
C2476 C2483 1.409 . S
C2477 H2469 0.934 . S
C2477 C2475 1.420 . S
C2477 C2478 1.358 1_556 S
C2478 H2470 0.930 . S
C2478 C2477 1.358 1_554 S
C2478 C2481 1.409 . S
C2479 H2471 0.930 . S
C2479 C2480 1.355 . S
C2479 C2481 1.415 . S
C2480 C2479 1.355 . S
C2480 C2482 1.419 . S
C2481 C2476 1.425 . S
C2481 C2478 1.409 . S
C2481 C2479 1.415 . S
C2482 H2472 0.930 . S
C2482 C2480 1.419 . S
C2482 C2483 1.362 . S
C2483 H2473 0.930 . S
C2483 C2476 1.409 . S
C2483 C2482 1.362 . S
H2484 C2490 0.930 . S
H2485 C2493 0.930 . S
H2486 C2494 0.930 . S
H2487 C2495 0.930 . S
H2488 C2498 0.930 1_556 S
H2489 C2499 0.930 . S
C2490 H2484 0.930 . S
C2490 C2491 1.355 . S
C2490 C2492 1.415 . S
C2491 C2490 1.355 . S
C2491 C2493 1.419 . S
C2492 C2490 1.415 . S
C2492 C2497 1.425 . S
C2492 C2499 1.409 . S
C2493 H2485 0.930 . S
C2493 C2491 1.419 . S
C2493 C2494 1.362 . S
C2494 H2486 0.930 . S
C2494 C2493 1.362 . S
C2494 C2497 1.409 . S
C2495 H2487 0.930 . S
C2495 C2496 1.355 . S
C2495 C2497 1.415 . S
C2496 C2495 1.355 . S
C2496 C2498 1.419 . S
C2497 C2492 1.425 . S
C2497 C2494 1.409 . S
C2497 C2495 1.415 . S
C2498 H2488 0.930 1_554 S
C2498 C2496 1.419 . S
C2498 C2499 1.362 . S
C2499 H2489 0.930 . S
C2499 C2492 1.409 . S
C2499 C2498 1.362 . S
H2500 C2506 0.930 . S
H2501 C2509 0.930 . S
H2502 C2510 0.930 . S
H2503 C2511 0.930 . S
H2504 C2514 0.930 1_556 S
H2505 C2515 0.930 . S
C2506 H2500 0.930 . S
C2506 C2507 1.355 . S
C2506 C2508 1.415 . S
C2507 C2506 1.355 . S
C2507 C2509 1.419 . S
C2508 C2506 1.415 . S
C2508 C2513 1.425 . S
C2508 C2515 1.409 . S
C2509 H2501 0.930 . S
C2509 C2507 1.419 . S
C2509 C2510 1.362 . S
C2510 H2502 0.930 . S
C2510 C2509 1.362 . S
C2510 C2513 1.409 . S
C2511 H2503 0.930 . S
C2511 C2512 1.355 . S
C2511 C2513 1.415 . S
C2512 C2511 1.355 . S
C2512 C2514 1.419 . S
C2513 C2508 1.425 . S
C2513 C2510 1.409 . S
C2513 C2511 1.415 . S
C2514 H2504 0.930 1_554 S
C2514 C2512 1.419 . S
C2514 C2515 1.362 . S
C2515 H2505 0.930 . S
C2515 C2508 1.409 . S
C2515 C2514 1.362 . S
H2516 C2522 0.930 . S
H2517 C2525 0.930 . S
H2518 C2526 0.930 . S
H2519 C2527 0.930 . S
H2520 C2530 0.930 . S
H2521 C2531 0.930 . S
C2522 H2516 0.930 . S
C2522 C2523 1.355 . S
C2522 C2524 1.415 . S
C2523 C2522 1.355 . S
C2523 C2525 1.419 . S
C2524 C2522 1.415 . S
C2524 C2529 1.425 . S
C2524 C2531 1.409 . S
C2525 H2517 0.930 . S
C2525 C2523 1.419 . S
C2525 C2526 1.362 . S
C2526 H2518 0.930 . S
C2526 C2525 1.362 . S
C2526 C2529 1.409 . S
C2527 H2519 0.930 . S
C2527 C2528 1.355 . S
C2527 C2529 1.415 . S
C2528 C2527 1.355 . S
C2528 C2530 1.419 . S
C2529 C2524 1.425 . S
C2529 C2526 1.409 . S
C2529 C2527 1.415 . S
C2530 H2520 0.930 . S
C2530 C2528 1.419 . S
C2530 C2531 1.362 . S
C2531 H2521 0.930 . S
C2531 C2524 1.409 . S
C2531 C2530 1.362 . S
H2532 C2538 0.930 . S
H2533 C2541 0.930 . S
H2534 C2542 0.930 . S
H2535 C2543 0.930 . S
H2536 C2546 0.930 . S
H2537 C2547 0.930 . S
C2538 H2532 0.930 . S
C2538 C2539 1.355 . S
C2538 C2540 1.415 . S
C2539 C2538 1.355 . S
C2539 C2541 1.419 . S
C2540 C2538 1.415 . S
C2540 C2545 1.425 . S
C2540 C2547 1.409 . S
C2541 H2533 0.930 . S
C2541 C2539 1.419 . S
C2541 C2542 1.362 . S
C2542 H2534 0.930 . S
C2542 C2541 1.362 . S
C2542 C2545 1.409 . S
C2543 H2535 0.930 . S
C2543 C2544 1.355 . S
C2543 C2545 1.415 . S
C2544 C2543 1.355 . S
C2544 C2546 1.419 . S
C2545 C2540 1.425 . S
C2545 C2542 1.409 . S
C2545 C2543 1.415 . S
C2546 H2536 0.930 . S
C2546 C2544 1.419 . S
C2546 C2547 1.362 . S
C2547 H2537 0.930 . S
C2547 C2540 1.409 . S
C2547 C2546 1.362 . S
H2548 C2554 0.930 . S
H2549 C2557 0.930 . S
H2550 C2558 0.930 . S
H2551 C2559 0.930 . S
H2552 C2562 0.930 . S
H2553 C2563 0.930 . S
C2554 H2548 0.930 . S
C2554 C2555 1.355 . S
C2554 C2556 1.415 . S
C2555 C2554 1.355 . S
C2555 C2557 1.419 . S
C2556 C2554 1.415 . S
C2556 C2561 1.425 . S
C2556 C2563 1.409 . S
C2557 H2549 0.930 . S
C2557 C2555 1.419 . S
C2557 C2558 1.362 . S
C2558 H2550 0.930 . S
C2558 C2557 1.362 . S
C2558 C2561 1.409 . S
C2559 H2551 0.930 . S
C2559 C2560 1.355 . S
C2559 C2561 1.415 . S
C2560 C2559 1.355 . S
C2560 C2562 1.419 . S
C2561 C2556 1.425 . S
C2561 C2558 1.409 . S
C2561 C2559 1.415 . S
C2562 H2552 0.930 . S
C2562 C2560 1.419 . S
C2562 C2563 1.362 . S
C2563 H2553 0.930 . S
C2563 C2556 1.409 . S
C2563 C2562 1.362 . S
H2564 C2570 0.930 . S
H2565 C2573 0.930 . S
H2566 C2574 0.930 . S
H2567 C2575 0.930 . S
H2568 C2578 0.930 . S
H2569 C2579 0.930 . S
C2570 H2564 0.930 . S
C2570 C2571 1.355 . S
C2570 C2572 1.415 . S
C2571 C2570 1.355 . S
C2571 C2573 1.419 . S
C2572 C2570 1.415 . S
C2572 C2577 1.425 . S
C2572 C2579 1.409 . S
C2573 H2565 0.930 . S
C2573 C2571 1.419 . S
C2573 C2574 1.362 . S
C2574 H2566 0.930 . S
C2574 C2573 1.362 . S
C2574 C2577 1.409 . S
C2575 H2567 0.930 . S
C2575 C2576 1.355 . S
C2575 C2577 1.415 . S
C2576 C2575 1.355 . S
C2576 C2578 1.419 . S
C2577 C2572 1.425 . S
C2577 C2574 1.409 . S
C2577 C2575 1.415 . S
C2578 H2568 0.930 . S
C2578 C2576 1.419 . S
C2578 C2579 1.362 . S
C2579 H2569 0.930 . S
C2579 C2572 1.409 . S
C2579 C2578 1.362 . S
H2580 C2586 0.930 . S
H2581 C2589 0.930 1_556 S
H2582 C2590 0.930 . S
H2583 C2591 0.930 . S
H2584 C2594 0.930 . S
H2585 C2595 0.930 . S
C2586 H2580 0.930 . S
C2586 C2587 1.355 1_554 S
C2586 C2588 1.415 . S
C2587 C2586 1.355 1_556 S
C2587 C2589 1.419 1_556 S
C2588 C2586 1.415 . S
C2588 C2593 1.425 . S
C2588 C2595 1.409 . S
C2589 H2581 0.930 1_554 S
C2589 C2587 1.419 1_554 S
C2589 C2590 1.362 . S
C2590 H2582 0.930 . S
C2590 C2589 1.362 . S
C2590 C2593 1.409 . S
C2591 H2583 0.930 . S
C2591 C2592 1.355 . S
C2591 C2593 1.415 . S
C2592 C2591 1.355 . S
C2592 C2594 1.419 . S
C2593 C2588 1.425 . S
C2593 C2590 1.409 . S
C2593 C2591 1.415 . S
C2594 H2584 0.930 . S
C2594 C2592 1.419 . S
C2594 C2595 1.362 . S
C2595 H2585 0.930 . S
C2595 C2588 1.409 . S
C2595 C2594 1.362 . S
H2596 C2602 0.930 . S
H2597 C2605 0.930 1_556 S
H2598 C2606 0.930 . S
H2599 C2607 0.930 . S
H2600 C2610 0.930 . S
H2601 C2611 0.930 . S
C2602 H2596 0.930 . S
C2602 C2603 1.355 1_554 S
C2602 C2604 1.415 . S
C2603 C2602 1.355 1_556 S
C2603 C2605 1.419 1_556 S
C2604 C2602 1.415 . S
C2604 C2609 1.425 . S
C2604 C2611 1.409 . S
C2605 H2597 0.930 1_554 S
C2605 C2603 1.419 1_554 S
C2605 C2606 1.362 . S
C2606 H2598 0.930 . S
C2606 C2605 1.362 . S
C2606 C2609 1.409 . S
C2607 H2599 0.930 . S
C2607 C2608 1.355 . S
C2607 C2609 1.415 . S
C2608 C2607 1.355 . S
C2608 C2610 1.419 . S
C2609 C2604 1.425 . S
C2609 C2606 1.409 . S
C2609 C2607 1.415 . S
C2610 H2600 0.930 . S
C2610 C2608 1.419 . S
C2610 C2611 1.362 . S
C2611 H2601 0.930 . S
C2611 C2604 1.409 . S
C2611 C2610 1.362 . S
H2612 C2618 0.930 . S
H2613 C2621 0.930 . S
H2614 C2622 0.930 . S
H2615 C2623 0.930 . S
H2616 C2626 0.929 1_556 S
H2617 C2627 0.930 . S
C2618 H2612 0.930 . S
C2618 C2619 1.355 . S
C2618 C2620 1.415 . S
C2619 C2618 1.355 . S
C2619 C2621 1.419 . S
C2620 C2618 1.415 . S
C2620 C2625 1.425 . S
C2620 C2627 1.409 . S
C2621 H2613 0.930 . S
C2621 C2619 1.419 . S
C2621 C2622 1.362 . S
C2622 H2614 0.930 . S
C2622 C2621 1.362 . S
C2622 C2625 1.409 . S
C2623 H2615 0.930 . S
C2623 C2624 1.355 1_554 S
C2623 C2625 1.415 . S
C2624 C2623 1.355 1_556 S
C2624 C2626 1.419 1_556 S
C2625 C2620 1.425 . S
C2625 C2622 1.409 . S
C2625 C2623 1.415 . S
C2626 H2616 0.929 1_554 S
C2626 C2624 1.419 1_554 S
C2626 C2627 1.362 . S
C2627 H2617 0.930 . S
C2627 C2620 1.409 . S
C2627 C2626 1.362 . S
C1195 C18 1.199 . S
C1200 C513 1.226 . S
C1211 C546 1.157 . S
C1216 C51 1.168 . S
C1227 C84 1.237 . S
C1232 C579 1.227 . S
C1243 C810 1.183 . S
C1248 C117 1.162 . S
C1259 C843 1.156 . S
C1264 C150 1.173 . S
C1275 C183 1.177 . S
C1280 C876 1.156 . S
C1291 C216 1.231 . S
C1296 C1107 1.201 . S
C1307 C1140 1.223 . S
C1312 C249 1.193 . S
C1323 C282 1.162 . S
C1328 C1173 1.161 . S
C1339 C612 1.187 . S
C1344 C315 1.164 . S
C1355 C348 1.209 . S
C1360 C645 1.174 . S
C1371 C678 1.217 . S
C1376 C381 1.236 . S
C1387 C414 1.214 . S
C1392 C909 1.208 . S
C1403 C447 1.285 . S
C1408 C942 1.263 . S
C1419 C975 1.284 . S
C1424 C480 1.287 . S
C1435 C1008 1.246 . S
C1440 C711 1.275 . S
C1451 C1041 1.230 . S
C1456 C744 1.261 . S
C1467 C777 1.256 . S
C1472 C1074 1.282 . S
C1483 C21 1.444 . S
C1488 C384 1.458 1_554 S
C1499 C54 1.439 . S
C1504 C318 1.463 1_554 S
C1515 C87 1.470 . S
C1520 C351 1.432 . S
C1531 C252 1.467 1_556 S
C1536 C120 1.435 . S
C1547 C285 1.469 . S
C1552 C153 1.433 1_556 S
C1563 C186 1.455 . S
C1568 C219 1.447 1_556 S
C1579 C417 1.487 . S
C1584 C780 1.456 . S
C1595 C714 1.476 . S
C1600 C450 1.467 . S
C1611 C483 1.491 . S
C1616 C747 1.452 . S
C1627 C516 1.467 . S
C1632 C648 1.443 . S
C1643 C549 1.440 . S
C1648 C681 1.471 . S
C1659 C582 1.464 . S
C1664 C615 1.447 . S
C1675 C813 1.437 . S
C1680 C1176 1.474 . S
C1691 C1110 1.474 . S
C1696 C846 1.437 . S
C1707 C1143 1.475 . S
C1712 C879 1.436 . S
C1723 C1044 1.453 . S
C1728 C912 1.490 . S
C1739 C945 1.453 . S
C1744 C1077 1.490 . S
C1755 C978 1.459 . S
C1760 C1011 1.484 . S
C1771 C964 1.568 . S
C1776 C7 1.536 . S
C1787 C40 1.584 . S
C1792 C898 1.562 . S
C1803 C73 1.546 . S
C1808 C931 1.530 . S
C1819 C436 1.551 . S
C1824 C106 1.530 . S
C1835 C139 1.579 . S
C1840 C469 1.580 . S
C1851 C172 1.531 . S
C1856 C403 1.560 . S
C1867 C766 1.536 . S
C1872 C205 1.569 . S
C1883 C238 1.529 . S
C1888 C700 1.550 . S
C1899 C733 1.569 . S
C1904 C271 1.537 . S
C1915 C1030 1.583 . S
C1920 C304 1.554 . S
C1931 C1063 1.560 . S
C1936 C337 1.584 . S
C1947 C997 1.583 . S
C1952 C370 1.574 . S
C1963 C502 1.558 . S
C1968 C832 1.559 . S
C1979 C865 1.552 . S
C1984 C535 1.562 . S
C1995 C568 1.554 . S
C2000 C799 1.561 . S
C2011 C601 1.540 . S
C2016 C1162 1.513 . S
C2027 C634 1.550 . S
C2032 C1096 1.563 . S
C2043 C667 1.535 . S
C2048 C1129 1.511 . S
C2059 N13 1.261 . S
C2064 N2 1.259 . S
C2075 N46 1.286 . S
C2080 N35 1.286 . S
C2091 N79 1.273 . S
C2096 N68 1.273 . S
C2107 N101 1.269 . S
C2112 N112 1.271 . S
C2123 N145 1.268 . S
C2128 N134 1.266 . S
C2139 N167 1.282 . S
C2144 N178 1.282 . S
C2155 N211 1.280 . S
C2160 N200 1.279 . S
C2171 N233 1.275 . S
C2176 N244 1.276 . S
C2187 N266 1.266 . S
C2192 N277 1.266 . S
C2203 N310 1.286 . S
C2208 N299 1.286 . S
C2219 N343 1.274 . S
C2224 N332 1.274 . S
C2235 N365 1.277 . S
C2240 N376 1.276 . S
C2251 N398 1.274 1_556 S
C2256 N409 1.276 . S
C2267 N431 1.288 1_556 S
C2272 N442 1.288 . S
C2283 N475 1.280 . S
C2288 N464 1.279 1_556 S
C2299 N497 1.270 . S
C2304 N508 1.269 . S
C2315 N530 1.264 . S
C2320 N541 1.265 . S
C2331 N574 1.249 . S
C2336 N563 1.247 . S
C2347 N596 1.259 . S
C2352 N607 1.261 . S
C2363 N640 1.255 . S
C2368 N629 1.254 . S
C2379 N673 1.275 . S
C2384 N662 1.276 . S
C2395 N695 1.282 1_556 S
C2400 N706 1.283 . S
C2411 N728 1.287 1_556 S
C2416 N739 1.288 . S
C2427 N761 1.290 1_556 S
C2432 N772 1.290 . S
C2443 N794 1.256 . S
C2448 N805 1.258 . S
C2459 N827 1.275 . S
C2464 N838 1.275 . S
C2475 N871 1.270 . S
C2480 N860 1.270 . S
C2491 N904 1.293 . S
C2496 N893 1.294 1_554 S
C2507 N937 1.291 . S
C2512 N926 1.291 1_554 S
C2523 N970 1.274 . S
C2528 N959 1.273 1_554 S
C2539 N1003 1.273 . S
C2544 N992 1.271 1_554 S
C2555 N1036 1.293 . S
C2560 N1025 1.294 1_554 S
C2571 N1058 1.279 1_554 S
C2576 N1069 1.279 . S
C2587 N1102 1.249 . S
C2592 N1091 1.247 . S
C2603 N1135 1.273 . S
C2608 N1124 1.273 . S
C2619 N1157 1.247 . S
C2624 N1168 1.249 . S
