# Generated by pormake.
# Topology whw, (6)-cn, num edge types: 1
# Building blocks:
#     Node 0, Type 0, BuildingBlock: GEDQOX_clean_sbu_0, # of connection points: 6
#     Node 1, Type 0, BuildingBlock: GEDQOX_clean_sbu_0, # of connection points: 6
#     Node 2, Type 0, BuildingBlock: GEDQOX_clean_sbu_0, # of connection points: 6
#     Node 3, Type 0, BuildingBlock: GEDQOX_clean_sbu_0, # of connection points: 6
#     Node 4, Type 0, BuildingBlock: GEDQOX_clean_sbu_0, # of connection points: 6
#     Node 5, Type 0, BuildingBlock: GEDQOX_clean_sbu_0, # of connection points: 6
#     Node 6, Type 0, BuildingBlock: GEDQOX_clean_sbu_0, # of connection points: 6
#     Node 7, Type 0, BuildingBlock: GEDQOX_clean_sbu_0, # of connection points: 6
#     Node 8, Type 0, BuildingBlock: GEDQOX_clean_sbu_0, # of connection points: 6
#     Node 9, Type 0, BuildingBlock: GEDQOX_clean_sbu_0, # of connection points: 6
#     Node 10, Type 0, BuildingBlock: GEDQOX_clean_sbu_0, # of connection points: 6
#     Node 11, Type 0, BuildingBlock: GEDQOX_clean_sbu_0, # of connection points: 6
#     Node 12, Type 0, BuildingBlock: GEDQOX_clean_sbu_0, # of connection points: 6
#     Node 13, Type 0, BuildingBlock: GEDQOX_clean_sbu_0, # of connection points: 6
#     Node 14, Type 0, BuildingBlock: GEDQOX_clean_sbu_0, # of connection points: 6
#     Node 15, Type 0, BuildingBlock: GEDQOX_clean_sbu_0, # of connection points: 6
#     Edge 16, Type (0, 0), BuildingBlock: XUDNAN_clean_linker_2, # of connection points: 2
#     Edge 17, Type (0, 0), BuildingBlock: XUDNAN_clean_linker_2, # of connection points: 2
#     Edge 18, Type (0, 0), BuildingBlock: XUDNAN_clean_linker_2, # of connection points: 2
#     Edge 19, Type (0, 0), BuildingBlock: XUDNAN_clean_linker_2, # of connection points: 2
#     Edge 20, Type (0, 0), BuildingBlock: XUDNAN_clean_linker_2, # of connection points: 2
#     Edge 21, Type (0, 0), BuildingBlock: XUDNAN_clean_linker_2, # of connection points: 2
#     Edge 22, Type (0, 0), BuildingBlock: XUDNAN_clean_linker_2, # of connection points: 2
#     Edge 23, Type (0, 0), BuildingBlock: XUDNAN_clean_linker_2, # of connection points: 2
#     Edge 24, Type (0, 0), BuildingBlock: XUDNAN_clean_linker_2, # of connection points: 2
#     Edge 25, Type (0, 0), BuildingBlock: XUDNAN_clean_linker_2, # of connection points: 2
#     Edge 26, Type (0, 0), BuildingBlock: XUDNAN_clean_linker_2, # of connection points: 2
#     Edge 27, Type (0, 0), BuildingBlock: XUDNAN_clean_linker_2, # of connection points: 2
#     Edge 28, Type (0, 0), BuildingBlock: XUDNAN_clean_linker_2, # of connection points: 2
#     Edge 29, Type (0, 0), BuildingBlock: XUDNAN_clean_linker_2, # of connection points: 2
#     Edge 30, Type (0, 0), BuildingBlock: XUDNAN_clean_linker_2, # of connection points: 2
#     Edge 31, Type (0, 0), BuildingBlock: XUDNAN_clean_linker_2, # of connection points: 2
#     Edge 32, Type (0, 0), BuildingBlock: XUDNAN_clean_linker_2, # of connection points: 2
#     Edge 33, Type (0, 0), BuildingBlock: XUDNAN_clean_linker_2, # of connection points: 2
#     Edge 34, Type (0, 0), BuildingBlock: XUDNAN_clean_linker_2, # of connection points: 2
#     Edge 35, Type (0, 0), BuildingBlock: XUDNAN_clean_linker_2, # of connection points: 2
#     Edge 36, Type (0, 0), BuildingBlock: XUDNAN_clean_linker_2, # of connection points: 2
#     Edge 37, Type (0, 0), BuildingBlock: XUDNAN_clean_linker_2, # of connection points: 2
#     Edge 38, Type (0, 0), BuildingBlock: XUDNAN_clean_linker_2, # of connection points: 2
#     Edge 39, Type (0, 0), BuildingBlock: XUDNAN_clean_linker_2, # of connection points: 2
#     Edge 40, Type (0, 0), BuildingBlock: XUDNAN_clean_linker_2, # of connection points: 2
#     Edge 41, Type (0, 0), BuildingBlock: XUDNAN_clean_linker_2, # of connection points: 2
#     Edge 42, Type (0, 0), BuildingBlock: XUDNAN_clean_linker_2, # of connection points: 2
#     Edge 43, Type (0, 0), BuildingBlock: XUDNAN_clean_linker_2, # of connection points: 2
#     Edge 44, Type (0, 0), BuildingBlock: XUDNAN_clean_linker_2, # of connection points: 2
#     Edge 45, Type (0, 0), BuildingBlock: XUDNAN_clean_linker_2, # of connection points: 2
#     Edge 46, Type (0, 0), BuildingBlock: XUDNAN_clean_linker_2, # of connection points: 2
#     Edge 47, Type (0, 0), BuildingBlock: XUDNAN_clean_linker_2, # of connection points: 2
#     Edge 48, Type (0, 0), BuildingBlock: XUDNAN_clean_linker_2, # of connection points: 2
#     Edge 49, Type (0, 0), BuildingBlock: XUDNAN_clean_linker_2, # of connection points: 2
#     Edge 50, Type (0, 0), BuildingBlock: XUDNAN_clean_linker_2, # of connection points: 2
#     Edge 51, Type (0, 0), BuildingBlock: XUDNAN_clean_linker_2, # of connection points: 2
#     Edge 52, Type (0, 0), BuildingBlock: XUDNAN_clean_linker_2, # of connection points: 2
#     Edge 53, Type (0, 0), BuildingBlock: XUDNAN_clean_linker_2, # of connection points: 2
#     Edge 54, Type (0, 0), BuildingBlock: XUDNAN_clean_linker_2, # of connection points: 2
#     Edge 55, Type (0, 0), BuildingBlock: XUDNAN_clean_linker_2, # of connection points: 2
#     Edge 56, Type (0, 0), BuildingBlock: XUDNAN_clean_linker_2, # of connection points: 2
#     Edge 57, Type (0, 0), BuildingBlock: XUDNAN_clean_linker_2, # of connection points: 2
#     Edge 58, Type (0, 0), BuildingBlock: XUDNAN_clean_linker_2, # of connection points: 2
#     Edge 59, Type (0, 0), BuildingBlock: XUDNAN_clean_linker_2, # of connection points: 2
#     Edge 60, Type (0, 0), BuildingBlock: XUDNAN_clean_linker_2, # of connection points: 2
#     Edge 61, Type (0, 0), BuildingBlock: XUDNAN_clean_linker_2, # of connection points: 2
#     Edge 62, Type (0, 0), BuildingBlock: XUDNAN_clean_linker_2, # of connection points: 2
#     Edge 63, Type (0, 0), BuildingBlock: XUDNAN_clean_linker_2, # of connection points: 2
# Relax obj value: 0.230
# Max RMSD: 0.193
# Mean RMSD: 0.193
data_MOF--net-whw--node1-GEDQOX_clean_sbu_0--edge1-XUDNAN_clean_linker_2
_symmetry_space_group_name_H-M    P1
_symmetry_Int_Tables_number       1
_symmetry_cell_setting            triclinic
loop_
_symmetry_equiv_pos_as_xyz
'x, y, z'
_cell_length_a     46.794692
_cell_length_b     46.349995
_cell_length_c     35.197397
_cell_angle_alpha  89.890093
_cell_angle_beta   89.936279
_cell_angle_gamma 90.087336
loop_
_atom_site_label
_atom_site_type_symbol
_atom_site_fract_x
_atom_site_fract_y
_atom_site_fract_z
_atom_type_partial_charge
Nd0 Nd 0.97909 0.08878 0.1262 0.0
Nd1 Nd 0.03374 0.09243 0.1753 0.0
C2 C 0.94408 0.07785 0.06898 0.0
C3 C 0.94083 0.09103 0.03074 0.0
C4 C 0.93709 0.07367 0.99843 0.0
C5 C 0.93509 0.08616 0.96209 0.0
C6 C 0.93685 0.11631 0.9573 0.0
C7 C 0.94029 0.13354 0.98992 0.0
C8 C 0.94246 0.12109 0.02602 0.0
C9 C 0.98452 0.13926 0.16383 0.0
C10 C 0.04125 0.11108 0.08819 0.0
C11 C 0.07471 0.09936 0.22658 0.0
C12 C 0.08157 0.10586 0.26664 0.0
C13 C 0.10655 0.09419 0.28226 0.0
C14 C 0.11512 0.10141 0.31908 0.0
C15 C 0.09886 0.12053 0.34131 0.0
C16 C 0.07344 0.13186 0.32578 0.0
C17 C 0.06485 0.12457 0.28877 0.0
C18 C 0.02319 0.04132 0.13818 0.0
C19 C 0.97103 0.08158 0.21559 0.0
O20 O 0.96759 0.06321 0.07486 0.0
O21 O 0.93712 0.09405 0.09801 0.0
O22 O 0.96002 0.12799 0.15495 0.0
O23 O 0.00518 0.12597 0.1486 0.0
O24 O 0.01463 0.10207 0.08318 0.0
O25 O 0.0532 0.11177 0.12204 0.0
O26 O 0.06473 0.12034 0.20549 0.0
O27 O 0.06314 0.07432 0.21892 0.0
O28 O 0.04818 0.05354 0.13842 0.0
O29 O 0.00553 0.05616 0.15627 0.0
O30 O -0.00324 0.09329 0.21806 0.0
O31 O 0.96081 0.07202 0.18278 0.0
H32 H 0.93604 0.05041 1.00126 0.0
H33 H 0.93279 0.07214 0.93771 0.0
H34 H 0.94123 0.15682 0.9877 0.0
H35 H 0.94557 0.1351 0.05028 0.0
H36 H 0.11987 0.07987 0.26558 0.0
H37 H 0.13499 0.09259 0.32968 0.0
H38 H 0.06017 0.14635 0.34221 0.0
H39 H 0.04542 0.13381 0.27732 0.0
Nd40 Nd 0.14092 0.72607 0.37681 0.0
Nd41 Nd 0.13332 0.78246 0.42417 0.0
C42 C 0.15185 0.68723 0.32369 0.0
C43 C 0.14571 0.68383 0.28276 0.0
C44 C 0.14869 0.70688 0.25702 0.0
C45 C 0.14109 0.70339 0.21878 0.0
C46 C 0.13016 0.67689 0.20564 0.0
C47 C 0.12738 0.6539 0.23153 0.0
C48 C 0.13513 0.65735 0.26962 0.0
C49 C 0.0939 0.72717 0.42207 0.0
C50 C 0.11109 0.78421 0.33758 0.0
C51 C 0.12275 0.82441 0.47301 0.0
C52 C 0.11424 0.83157 0.51227 0.0
C53 C 0.09085 0.84996 0.51787 0.0
C54 C 0.08385 0.85969 0.55422 0.0
C55 C 0.1002 0.85131 0.58586 0.0
C56 C 0.12323 0.83226 0.58037 0.0
C57 C 0.13018 0.82243 0.5439 0.0
C58 C 0.1804 0.78029 0.3778 0.0
C59 C 0.15424 0.7221 0.46591 0.0
O60 O 0.1701 0.70726 0.33371 0.0
O61 O 0.12966 0.68591 0.34618 0.0
O62 O 0.1078 0.70371 0.41434 0.0
O63 O 0.10316 0.74843 0.40321 0.0
O64 O 0.1242 0.75918 0.33262 0.0
O65 O 0.10866 0.79623 0.37141 0.0
O66 O 0.1032 0.81337 0.45073 0.0
O67 O 0.14829 0.81368 0.4673 0.0
O68 O 0.16589 0.80359 0.38409 0.0
O69 O 0.17099 0.75985 0.39784 0.0
O70 O 0.14066 0.74703 0.46883 0.0
O71 O 0.16209 0.71148 0.4325 0.0
H72 H 0.15655 0.72766 0.26649 0.0
H73 H 0.14328 0.72157 0.19964 0.0
H74 H 0.11944 0.63311 0.22228 0.0
H75 H 0.13257 0.63932 0.28899 0.0
H76 H 0.07837 0.85746 0.49389 0.0
H77 H 0.06617 0.87455 0.55735 0.0
H78 H 0.13595 0.82503 0.60424 0.0
H79 H 0.1483 0.80815 0.54044 0.0
Nd80 Nd 0.52128 0.90296 0.63236 0.0
Nd81 Nd 0.46275 0.89205 0.67551 0.0
C82 C 0.55972 0.91818 0.58048 0.0
C83 C 0.56811 0.90869 0.54183 0.0
C84 C 0.54846 0.89577 0.51679 0.0
C85 C 0.55758 0.88482 0.48157 0.0
C86 C 0.58655 0.88638 0.47089 0.0
C87 C 0.60583 0.90033 0.49552 0.0
C88 C 0.59671 0.91131 0.53052 0.0
C89 C 0.51735 0.85242 0.67055 0.0
C90 C 0.46562 0.8725 0.58706 0.0
C91 C 0.42033 0.87791 0.72181 0.0
C92 C 0.41233 0.8706 0.76123 0.0
C93 C 0.43144 0.85753 0.78675 0.0
C94 C 0.42261 0.85083 0.82393 0.0
C95 C 0.39462 0.85727 0.83615 0.0
C96 C 0.37574 0.87033 0.81027 0.0
C97 C 0.38452 0.87691 0.77333 0.0
C98 C 0.46643 0.94206 0.63392 0.0
C99 C 0.52154 0.91019 0.72324 0.0
O100 O 0.53487 0.93073 0.58415 0.0
O101 O 0.56511 0.90016 0.60818 0.0
O102 O 0.54152 0.86573 0.6655 0.0
O103 O 0.49738 0.864 0.65204 0.0
O104 O 0.49202 0.88289 0.58634 0.0
O105 O 0.44988 0.87189 0.61834 0.0
O106 O 0.43495 0.85892 0.70225 0.0
O107 O 0.42808 0.9046 0.7151 0.0
O108 O 0.44289 0.9279 0.63978 0.0
O109 O 0.48626 0.93134 0.65374 0.0
O110 O 0.49639 0.89704 0.72285 0.0
O111 O 0.53358 0.92026 0.69161 0.0
H112 H 0.52622 0.8935 0.5248 0.0
H113 H 0.54221 0.87408 0.46346 0.0
H114 H 0.6282 0.9023 0.48802 0.0
H115 H 0.61221 0.9213 0.54919 0.0
H116 H 0.45309 0.85257 0.77799 0.0
H117 H 0.43777 0.84099 0.84322 0.0
H118 H 0.35394 0.87516 0.81839 0.0
H119 H 0.36942 0.88688 0.75403 0.0
Nd120 Nd 0.35231 0.2767 0.88169 0.0
Nd121 Nd 0.35682 0.21675 0.92147 0.0
C122 C 0.34194 0.31692 0.83 0.0
C123 C 0.35105 0.32177 0.79019 0.0
C124 C 0.33372 0.33783 0.76558 0.0
C125 C 0.3418 0.34213 0.72764 0.0
C126 C 0.36742 0.33039 0.71335 0.0
C127 C 0.3849 0.31448 0.73827 0.0
C128 C 0.37675 0.31016 0.77625 0.0
C129 C 0.39949 0.27035 0.92504 0.0
C130 C 0.37906 0.21955 0.835 0.0
C131 C 0.3652 0.17257 0.96817 0.0
C132 C 0.37048 0.16487 1.0086 0.0
C133 C 0.39806 0.15692 1.02034 0.0
C134 C 0.40301 0.14729 0.05746 0.0
C135 C 0.38048 0.1452 0.08389 0.0
C136 C 0.35289 0.15337 0.07222 0.0
C137 C 0.34794 0.16305 0.03503 0.0
C138 C 0.30803 0.22721 0.88088 0.0
C139 C 0.33818 0.27523 0.97037 0.0
O140 O 0.32487 0.29494 0.83602 0.0
O141 O 0.3618 0.31931 0.85596 0.0
O142 O 0.38686 0.29498 0.91965 0.0
O143 O 0.38909 0.25058 0.90433 0.0
O144 O 0.3705 0.24675 0.83505 0.0
O145 O 0.37749 0.20296 0.86545 0.0
O146 O 0.38585 0.18538 0.94941 0.0
O147 O 0.33984 0.18218 0.95886 0.0
O148 O 0.32086 0.20239 0.8805 0.0
O149 O 0.32053 0.24455 0.90256 0.0
O150 O 0.34989 0.24923 0.97038 0.0
O151 O 0.33251 0.28959 0.93869 0.0
H152 H 0.31384 0.34701 0.77569 0.0
H153 H 0.32797 0.35481 0.7095 0.0
H154 H 0.40457 0.30483 0.72823 0.0
H155 H 0.39045 0.29757 0.79469 0.0
H156 H 0.41581 0.15758 1.00056 0.0
H157 H 0.42446 0.14077 0.06513 0.0
H158 H 0.33509 0.15237 0.09186 0.0
H159 H 0.32635 0.16874 0.02692 0.0
Nd160 Nd 0.96014 0.87784 0.87351 0.0
Nd161 Nd 0.01732 0.88592 0.91796 0.0
C162 C 0.91823 0.86823 0.82458 0.0
C163 C 0.91178 0.86256 0.78422 0.0
C164 C 0.92822 0.8435 0.76221 0.0
C165 C 0.92005 0.83694 0.72487 0.0
C166 C 0.89536 0.84938 0.70886 0.0
C167 C 0.87944 0.86895 0.73083 0.0
C168 C 0.88757 0.87541 0.76805 0.0
C169 C 0.96224 0.92353 0.92294 0.0
C170 C 0.01811 0.90342 0.83063 0.0
C171 C 0.0557 0.89528 0.97174 0.0
C172 C 0.05835 0.88598 1.01176 0.0
C173 C 0.07323 0.90319 0.0378 0.0
C174 C 0.07574 0.89459 0.07581 0.0
C175 C 0.06387 0.86832 0.08826 0.0
C176 C 0.04911 0.85098 0.0621 0.0
C177 C 0.04613 0.85987 1.02426 0.0
C178 C 0.01585 0.83968 0.87035 0.0
C179 C 0.9623 0.85142 0.95757 0.0
O180 O 0.9309 0.84779 0.84396 0.0
O181 O 0.92711 0.89414 0.83353 0.0
O182 O 0.93958 0.90795 0.91733 0.0
O183 O 0.98211 0.91575 0.90106 0.0
O184 O -0.00617 0.88882 0.82823 0.0
O185 O 0.02964 0.9103 0.86378 0.0
O186 O 0.0351 0.91344 0.96403 0.0
O187 O 0.05806 0.87493 0.94628 0.0
O188 O 0.03899 0.8542 0.87736 0.0
O189 O -0.00461 0.84797 0.891 0.0
O190 O 0.98607 0.8665 0.96208 0.0
O191 O 0.94947 0.84911 0.92433 0.0
H192 H 0.9471 0.83337 0.77401 0.0
H193 H 0.93302 0.82209 0.70859 0.0
H194 H 0.86014 0.87865 0.71968 0.0
H195 H 0.8745 0.89005 0.78459 0.0
H196 H 0.08307 0.92321 0.02873 0.0
H197 H 0.08733 0.90827 0.09541 0.0
H198 H 0.03952 0.8308 0.07109 0.0
H199 H 0.03438 0.84628 1.00472 0.0
Nd200 Nd 0.36122 0.71858 0.13823 0.0
Nd201 Nd 0.35091 0.77861 0.17702 0.0
C202 C 0.37423 0.67584 0.09127 0.0
C203 C 0.38272 0.67029 0.05136 0.0
C204 C 0.3695 0.68449 1.02074 0.0
C205 C 0.37611 0.67687 0.98319 0.0
C206 C 0.3962 0.65503 0.97541 0.0
C207 C 0.41011 0.64166 1.00619 0.0
C208 C 0.40339 0.64918 0.04369 0.0
C209 C 0.30893 0.72729 0.17138 0.0
C210 C 0.34509 0.77711 0.08738 0.0
C211 C 0.33694 0.8161 0.23013 0.0
C212 C 0.35121 0.82171 0.26711 0.0
C213 C 0.33524 0.82545 0.30058 0.0
C214 C 0.349 0.82821 0.33594 0.0
C215 C 0.37905 0.82711 0.33856 0.0
C216 C 0.39486 0.82395 0.30474 0.0
C217 C 0.38117 0.82108 0.26966 0.0
C218 C 0.4017 0.77401 0.14145 0.0
C219 C 0.37826 0.72275 0.22661 0.0
O220 O 0.39303 0.68826 0.11338 0.0
O221 O 0.34811 0.6848 0.0974 0.0
O222 O 0.32258 0.70297 0.17394 0.0
O223 O 0.3226 0.74513 0.15166 0.0
O224 O 0.35891 0.7522 0.08971 0.0
O225 O 0.33391 0.78967 0.11781 0.0
O226 O 0.32434 0.79094 0.22693 0.0
O227 O 0.3514 0.82324 0.19955 0.0
O228 O 0.38878 0.79856 0.14609 0.0
O229 O 0.38985 0.75388 0.16003 0.0
O230 O 0.3685 0.74949 0.22482 0.0
O231 O 0.37905 0.70565 0.19661 0.0
H232 H 0.35368 0.70109 0.0258 0.0
H233 H 0.36534 0.68798 0.96022 0.0
H234 H 0.42552 0.62464 1.00138 0.0
H235 H 0.41388 0.63795 0.06681 0.0
H236 H 0.3121 0.82561 0.29948 0.0
H237 H 0.33606 0.83033 0.36129 0.0
H238 H 0.41799 0.82354 0.30526 0.0
H239 H 0.39415 0.81786 0.24452 0.0
Nd240 Nd 0.51784 0.11206 0.37806 0.0
Nd241 Nd 0.46389 0.09828 0.42609 0.0
C242 C 0.55682 0.12566 0.32638 0.0
C243 C 0.56045 0.1352 0.2865 0.0
C244 C 0.55007 0.1187 0.25598 0.0
C245 C 0.55747 0.12585 0.21857 0.0
C246 C 0.57525 0.14968 0.21089 0.0
C247 C 0.58416 0.16711 0.24132 0.0
C248 C 0.57692 0.15986 0.27873 0.0
C249 C 0.51544 0.05907 0.41314 0.0
C250 C 0.45761 0.09481 0.33557 0.0
C251 C 0.43211 0.08119 0.48386 0.0
C252 C 0.42742 0.09602 0.52068 0.0
C253 C 0.42828 0.08078 0.55523 0.0
C254 C 0.42628 0.09552 0.59005 0.0
C255 C 0.42361 0.1258 0.59093 0.0
C256 C 0.42232 0.14079 0.55616 0.0
C257 C 0.42438 0.12617 0.52162 0.0
C258 C 0.46032 0.1496 0.39067 0.0
C259 C 0.52159 0.13021 0.46536 0.0
O260 O 0.54659 0.14429 0.35071 0.0
O261 O 0.54775 0.09931 0.33242 0.0
O262 O 0.53814 0.07519 0.41348 0.0
O263 O 0.4956 0.07124 0.39548 0.0
O264 O 0.48174 0.10958 0.33508 0.0
O265 O 0.44791 0.08249 0.36728 0.0
O266 O 0.45798 0.0714 0.47806 0.0
O267 O 0.42152 0.09395 0.45377 0.0
O268 O 0.43804 0.13498 0.40131 0.0
O269 O 0.48328 0.13952 0.40457 0.0
O270 O 0.49674 0.1168 0.46983 0.0
O271 O 0.53338 0.1336 0.43168 0.0
H272 H 0.53704 0.09974 0.261 0.0
H273 H 0.54981 0.11231 0.19568 0.0
H274 H 0.59795 0.18554 0.23642 0.0
H275 H 0.58516 0.17293 0.30176 0.0
H276 H 0.43108 0.05758 0.55529 0.0
H277 H 0.42761 0.0833 0.61624 0.0
H278 H 0.4198 0.16401 0.55554 0.0
H279 H 0.42406 0.13865 0.49557 0.0
Nd280 Nd 0.13236 0.27485 0.62466 0.0
Nd281 Nd 0.13965 0.21835 0.67242 0.0
C282 C 0.12214 0.31619 0.57476 0.0
C283 C 0.11312 0.32137 0.53525 0.0
C284 C 0.1272 0.3085 0.50433 0.0
C285 C 0.11999 0.31622 0.4671 0.0
C286 C 0.09849 0.33675 0.46022 0.0
C287 C 0.08374 0.34868 0.49122 0.0
C288 C 0.09107 0.34112 0.52835 0.0
C289 C 0.17966 0.27275 0.67023 0.0
C290 C 0.15079 0.21393 0.5827 0.0
C291 C 0.15115 0.17961 0.72562 0.0
C292 C 0.14292 0.17517 0.76566 0.0
C293 C 0.16081 0.15937 0.78984 0.0
C294 C 0.15289 0.15434 0.82762 0.0
C295 C 0.12672 0.16472 0.84176 0.0
C296 C 0.10884 0.18064 0.81749 0.0
C297 C 0.11698 0.18602 0.77984 0.0
C298 C 0.09179 0.22061 0.62888 0.0
C299 C 0.10986 0.27676 0.71126 0.0
O300 O 0.10275 0.30643 0.59836 0.0
O301 O 0.14753 0.30506 0.58035 0.0
O302 O 0.16543 0.29609 0.66309 0.0
O303 O 0.1701 0.2519 0.65099 0.0
O304 O 0.13781 0.23918 0.58026 0.0
O305 O 0.15937 0.20326 0.61583 0.0
O306 O 0.16786 0.20158 0.71828 0.0
O307 O 0.13066 0.1767 0.70071 0.0
O308 O 0.10484 0.19666 0.63673 0.0
O309 O 0.10218 0.24149 0.64716 0.0
O310 O 0.12255 0.25149 0.71639 0.0
O311 O 0.10781 0.28891 0.67739 0.0
H312 H 0.14413 0.29297 0.50887 0.0
H313 H 0.13139 0.30633 0.44372 0.0
H314 H 0.06722 0.36469 0.48685 0.0
H315 H 0.07996 0.35131 0.55178 0.0
H316 H 0.18082 0.1507 0.7794 0.0
H317 H 0.16701 0.14188 0.84564 0.0
H318 H 0.08875 0.1892 0.82777 0.0
H319 H 0.10291 0.19847 0.7617 0.0
Nd320 Nd 0.86163 0.19556 0.62273 0.0
Nd321 Nd 0.86363 0.25528 0.66295 0.0
C322 C 0.86275 0.15083 0.57614 0.0
C323 C 0.86872 0.14352 0.53627 0.0
C324 C 0.88275 0.16291 0.51189 0.0
C325 C 0.88896 0.15493 0.4744 0.0
C326 C 0.88106 0.12751 0.46067 0.0
C327 C 0.86656 0.10845 0.48516 0.0
C328 C 0.8605 0.11639 0.52259 0.0
C329 C 0.81948 0.20462 0.67515 0.0
C330 C 0.84502 0.25569 0.57607 0.0
C331 C 0.86067 0.29814 0.71231 0.0
C332 C 0.86734 0.30238 0.75308 0.0
C333 C 0.85182 0.28819 0.78172 0.0
C334 C 0.85835 0.29267 0.82004 0.0
C335 C 0.88134 0.31063 0.83082 0.0
C336 C 0.89716 0.32435 0.80183 0.0
C337 C 0.88999 0.32057 0.76358 0.0
C338 C 0.90675 0.24579 0.61242 0.0
C339 C 0.88995 0.19728 0.70643 0.0
O340 O 0.88458 0.15872 0.59695 0.0
O341 O 0.83972 0.16604 0.58268 0.0
O342 O 0.83076 0.17968 0.66832 0.0
O343 O 0.82861 0.22338 0.65205 0.0
O344 O 0.8556 0.22921 0.57473 0.0
O345 O 0.84027 0.26886 0.60879 0.0
O346 O 0.83873 0.28183 0.70361 0.0
O347 O 0.88258 0.29395 0.68993 0.0
O348 O 0.8962 0.27118 0.61904 0.0
O349 O 0.89668 0.22711 0.63494 0.0
O350 O 0.88077 0.22418 0.70859 0.0
O351 O 0.88763 0.18167 0.67513 0.0
H352 H 0.88904 0.18408 0.52189 0.0
H353 H 0.89986 0.17024 0.45612 0.0
H354 H 0.8605 0.08709 0.4757 0.0
H355 H 0.84965 0.10117 0.54105 0.0
H356 H 0.83466 0.2735 0.77457 0.0
H357 H 0.84513 0.28205 0.84108 0.0
H358 H 0.91545 0.33773 0.80839 0.0
H359 H 0.90251 0.3316 0.74207 0.0
Nd360 Nd 0.64022 0.78823 0.13463 0.0
Nd361 Nd 0.64116 0.72967 0.18023 0.0
C362 C 0.63496 0.83012 0.08316 0.0
C363 C 0.62441 0.83667 0.04397 0.0
C364 C 0.64352 0.83676 1.01308 0.0
C365 C 0.63483 0.84615 0.977 0.0
C366 C 0.60676 0.856 0.97061 0.0
C367 C 0.58735 0.85505 1.00124 0.0
C368 C 0.59607 0.84563 0.03744 0.0
C369 C 0.69113 0.772 0.16724 0.0
C370 C 0.64485 0.72523 0.0906 0.0
C371 C 0.65122 0.68907 0.23158 0.0
C372 C 0.64272 0.68309 0.27142 0.0
C373 C 0.66315 0.67306 0.29739 0.0
C374 C 0.65554 0.66718 0.33515 0.0
C375 C 0.62726 0.67117 0.34784 0.0
C376 C 0.60681 0.68125 0.3217 0.0
C377 C 0.61448 0.68726 0.28397 0.0
C378 C 0.59034 0.74234 0.14739 0.0
C379 C 0.62978 0.79235 0.22519 0.0
O380 O 0.61628 0.82547 0.11022 0.0
O381 O 0.65773 0.81394 0.08659 0.0
O382 O 0.68208 0.79849 0.16725 0.0
O383 O 0.67398 0.75593 0.1499 0.0
O384 O 0.63391 0.75164 0.09034 0.0
O385 O 0.65555 0.71378 0.122 0.0
O386 O 0.66835 0.71104 0.22596 0.0
O387 O 0.63122 0.68711 0.20572 0.0
O388 O 0.59869 0.71612 0.15395 0.0
O389 O 0.60673 0.76064 0.16256 0.0
O390 O 0.63675 0.76468 0.22621 0.0
O391 O 0.62661 0.80669 0.19283 0.0
H392 H 0.66554 0.83022 1.01694 0.0
H393 H 0.65031 0.84597 0.95412 0.0
H394 H 0.56563 0.86262 0.99767 0.0
H395 H 0.58077 0.84614 0.06054 0.0
H396 H 0.68506 0.6697 0.28843 0.0
H397 H 0.67181 0.65919 0.35432 0.0
H398 H 0.58496 0.68497 0.33055 0.0
H399 H 0.5983 0.69527 0.26466 0.0
Nd400 Nd 0.64194 0.22339 0.87427 0.0
Nd401 Nd 0.64379 0.28277 0.91523 0.0
C402 C 0.64753 0.18119 0.82433 0.0
C403 C 0.63805 0.17801 0.78445 0.0
C404 C 0.63939 0.20138 0.75904 0.0
C405 C 0.62824 0.19894 0.72235 0.0
C406 C 0.61551 0.17303 0.71004 0.0
C407 C 0.61423 0.14963 0.73555 0.0
C408 C 0.62538 0.15213 0.77237 0.0
C409 C 0.59159 0.23918 0.90619 0.0
C410 C 0.63284 0.28484 0.82575 0.0
C411 C 0.64 0.32543 0.96489 0.0
C412 C 0.62688 0.32953 1.0029 0.0
C413 C 0.59705 0.3303 1.00736 0.0
C414 C 0.58488 0.33274 0.04343 0.0
C415 C 0.60216 0.33461 0.07602 0.0
C416 C 0.632 0.33477 0.07157 0.0
C417 C 0.64423 0.33221 0.03534 0.0
C418 C 0.69374 0.26465 0.88243 0.0
C419 C 0.64429 0.22168 0.96394 0.0
O420 O 0.66774 0.20011 0.83111 0.0
O421 O 0.62704 0.18203 0.84953 0.0
O422 O 0.59946 0.21255 0.9024 0.0
O423 O 0.60849 0.25636 0.88962 0.0
O424 O 0.63968 0.25717 0.82622 0.0
O425 O 0.62954 0.30001 0.85719 0.0
O426 O 0.62271 0.32257 0.93588 0.0
O427 O 0.66187 0.30792 0.96318 0.0
O428 O 0.68527 0.29129 0.88166 0.0
O429 O 0.67672 0.24919 0.90123 0.0
O430 O 0.63523 0.24868 0.96171 0.0
O431 O 0.65432 0.208 0.93375 0.0
H432 H 0.64871 0.22174 0.76762 0.0
H433 H 0.62923 0.21758 0.7038 0.0
H434 H 0.6049 0.12928 0.72695 0.0
H435 H 0.62386 0.1339 0.79159 0.0
H436 H 0.58298 0.3288 0.98308 0.0
H437 H 0.5618 0.33313 0.04579 0.0
H438 H 0.64587 0.3361 0.09612 0.0
H439 H 0.6673 0.33191 0.03273 0.0
Nd440 Nd 0.85841 0.7522 0.37825 0.0
Nd441 Nd 0.85625 0.69529 0.42496 0.0
C442 C 0.85495 0.79062 0.32292 0.0
C443 C 0.86589 0.79177 0.28329 0.0
C444 C 0.84994 0.78029 0.25306 0.0
C445 C 0.86031 0.7816 0.21579 0.0
C446 C 0.88722 0.7939 0.20775 0.0
C447 C 0.90341 0.80477 0.23827 0.0
C448 C 0.89276 0.80402 0.27539 0.0
C449 C 0.90418 0.74367 0.42441 0.0
C450 C 0.88189 0.69091 0.34006 0.0
C451 C 0.85935 0.65373 0.47657 0.0
C452 C 0.86991 0.64792 0.51562 0.0
C453 C 0.89769 0.63724 0.52142 0.0
C454 C 0.90684 0.62918 0.55774 0.0
C455 C 0.88842 0.63146 0.5892 0.0
C456 C 0.86084 0.64273 0.58351 0.0
C457 C 0.85167 0.65077 0.54716 0.0
C458 C 0.81097 0.70462 0.37694 0.0
C459 C 0.84424 0.75836 0.46608 0.0
O460 O 0.83459 0.77202 0.33034 0.0
O461 O 0.87405 0.79191 0.34995 0.0
O462 O 0.8945 0.76908 0.41579 0.0
O463 O 0.89185 0.72411 0.40561 0.0
O464 O 0.87267 0.7176 0.33508 0.0
O465 O 0.88082 0.678 0.37355 0.0
O466 O 0.87847 0.65764 0.44988 0.0
O467 O 0.83702 0.6705 0.47265 0.0
O468 O 0.82154 0.67934 0.38405 0.0
O469 O 0.82285 0.72341 0.39736 0.0
O470 O 0.85458 0.73188 0.46906 0.0
O471 O 0.83794 0.76982 0.43261 0.0
H472 H 0.82939 0.77026 0.25809 0.0
H473 H 0.84685 0.77335 0.1933 0.0
H474 H 0.92449 0.81376 0.2337 0.0
H475 H 0.90575 0.81291 0.29798 0.0
H476 H 0.91222 0.63442 0.49775 0.0
H477 H 0.92809 0.62027 0.56091 0.0
H478 H 0.84622 0.64519 0.60716 0.0
H479 H 0.83007 0.65873 0.5437 0.0
Nd480 Nd 0.48061 0.60374 0.63346 0.0
Nd481 Nd 0.53557 0.59846 0.68421 0.0
C482 C 0.43589 0.60057 0.58765 0.0
C483 C 0.43259 0.61219 0.54877 0.0
C484 C 0.40735 0.60808 0.52794 0.0
C485 C 0.40409 0.62094 0.49198 0.0
C486 C 0.42597 0.63829 0.47649 0.0
C487 C 0.45155 0.64141 0.49709 0.0
C488 C 0.45482 0.6285 0.5327 0.0
C489 C 0.50333 0.65454 0.6586 0.0
C490 C 0.54278 0.61798 0.59603 0.0
C491 C 0.57701 0.60123 0.73508 0.0
C492 C 0.58385 0.61124 0.77371 0.0
C493 C 0.56451 0.62751 0.79541 0.0
C494 C 0.57206 0.63687 0.83201 0.0
C495 C 0.599 0.62998 0.84745 0.0
C496 C 0.61821 0.61385 0.82523 0.0
C497 C 0.61068 0.60459 0.78886 0.0
C498 C 0.52511 0.55236 0.63763 0.0
C499 C 0.47187 0.59636 0.72567 0.0
O500 O 0.45441 0.57969 0.59144 0.0
O501 O 0.43833 0.61995 0.61446 0.0
O502 O 0.49141 0.65158 0.62558 0.0
O503 O 0.5016 0.63171 0.67749 0.0
O504 O 0.51726 0.60661 0.5899 0.0
O505 O 0.55278 0.62169 0.63091 0.0
O506 O 0.57272 0.62112 0.70917 0.0
O507 O 0.5597 0.57906 0.73203 0.0
O508 O 0.55051 0.56055 0.64721 0.0
O509 O 0.50628 0.56643 0.65524 0.0
O510 O 0.49998 0.59786 0.72928 0.0
O511 O 0.45923 0.59583 0.69191 0.0
H512 H 0.38998 0.59547 0.53979 0.0
H513 H 0.38408 0.61821 0.47697 0.0
H514 H 0.46896 0.6543 0.48592 0.0
H515 H 0.47456 0.63182 0.54812 0.0
H516 H 0.54366 0.6329 0.7841 0.0
H517 H 0.55671 0.64911 0.8484 0.0
H518 H 0.63931 0.60861 0.83577 0.0
H519 H 0.62596 0.59225 0.77242 0.0
Nd520 Nd 0.01292 0.3869 0.12556 0.0
Nd521 Nd 0.95612 0.38548 0.1714 0.0
C522 C 0.05212 0.39606 0.07266 0.0
C523 C 0.05541 0.387 0.03259 0.0
C524 C 0.03199 0.38677 1.00766 0.0
C525 C 0.03508 0.37661 0.97047 0.0
C526 C 0.06161 0.36636 0.95729 0.0
C527 C 0.08501 0.36658 0.98238 0.0
C528 C 0.08192 0.37683 1.01961 0.0
C529 C 0.0039 0.33671 0.16351 0.0
C530 C 0.95221 0.36688 0.08384 0.0
C531 C 0.91328 0.38032 0.22052 0.0
C532 C 0.90565 0.37031 0.25905 0.0
C533 C 0.92454 0.35414 0.2816 0.0
C534 C 0.91608 0.34454 0.31785 0.0
C535 C 0.88865 0.35106 0.3321 0.0
C536 C 0.86996 0.36721 0.30909 0.0
C537 C 0.8784 0.37672 0.27309 0.0
C538 C 0.96941 0.43588 0.13399 0.0
C539 C 0.0178 0.394 0.21501 0.0
O540 O 0.03169 0.41449 0.08032 0.0
O541 O 0.05398 0.37542 0.0979 0.0
O542 O 0.02917 0.34685 0.15616 0.0
O543 O 0.98455 0.35104 0.14706 0.0
O544 O 0.97837 0.37736 0.08003 0.0
O545 O 0.93953 0.36458 0.11719 0.0
O546 O 0.91982 0.36062 0.19547 0.0
O547 O 0.92915 0.40348 0.21768 0.0
O548 O 0.94389 0.42482 0.13378 0.0
O549 O 0.98607 0.42054 0.15309 0.0
O550 O -0.00826 0.38283 0.2162 0.0
O551 O 0.0294 0.40311 0.1828 0.0
H552 H 0.01117 0.39415 1.01695 0.0
H553 H 0.01655 0.37639 0.95216 0.0
H554 H 0.10581 0.35917 0.97312 0.0
H555 H 0.10024 0.37661 0.03841 0.0
H556 H 0.94572 0.34894 0.27121 0.0
H557 H 0.93111 0.33237 0.33486 0.0
H558 H 0.84854 0.37222 0.31869 0.0
H559 H 0.86345 0.38899 0.25602 0.0
Nd560 Nd 0.45503 0.39062 0.37243 0.0
Nd561 Nd 0.51273 0.37393 0.41334 0.0
C562 C 0.41171 0.39493 0.32441 0.0
C563 C 0.40208 0.38149 0.28828 0.0
C564 C 0.39431 0.35218 0.28666 0.0
C565 C 0.38383 0.34016 0.253 0.0
C566 C 0.38074 0.3571 0.22002 0.0
C567 C 0.38911 0.38626 0.2214 0.0
C568 C 0.39954 0.39832 0.25519 0.0
C569 C 0.47833 0.4331 0.41733 0.0
C570 C 0.51479 0.38216 0.32239 0.0
C571 C 0.55733 0.36888 0.45895 0.0
C572 C 0.56521 0.37107 0.49948 0.0
C573 C 0.59278 0.38027 0.50905 0.0
C574 C 0.60295 0.3769 0.54612 0.0
C575 C 0.5858 0.36399 0.57436 0.0
C576 C 0.55731 0.35702 0.56544 0.0
C577 C 0.54709 0.36053 0.52829 0.0
C578 C 0.49029 0.33185 0.3688 0.0
C579 C 0.45014 0.36699 0.45869 0.0
O580 O 0.41116 0.3788 0.35503 0.0
O581 O 0.43417 0.41183 0.32291 0.0
O582 O 0.45115 0.43084 0.41078 0.0
O583 O 0.49197 0.41548 0.39704 0.0
O584 O 0.48658 0.38232 0.3239 0.0
O585 O 0.53073 0.38385 0.35345 0.0
O586 O 0.55202 0.39268 0.44004 0.0
O587 O 0.5404 0.3475 0.44985 0.0
O588 O 0.51749 0.33478 0.37496 0.0
O589 O 0.4758 0.34878 0.38924 0.0
O590 O 0.47831 0.36967 0.46104 0.0
O591 O 0.43629 0.37059 0.42629 0.0
H592 H 0.39594 0.33849 0.31151 0.0
H593 H 0.37806 0.31752 0.25285 0.0
H594 H 0.38683 0.39998 0.19665 0.0
H595 H 0.40522 0.42099 0.25561 0.0
H596 H 0.60704 0.38863 0.48737 0.0
H597 H 0.62478 0.38313 0.55225 0.0
H598 H 0.54351 0.34705 0.58643 0.0
H599 H 0.52559 0.35349 0.52166 0.0
Nd600 Nd 0.04647 0.59685 0.87128 0.0
Nd601 Nd -0.01011 0.59893 0.91853 0.0
C602 C 0.08881 0.59896 0.82125 0.0
C603 C 0.09594 0.60731 0.78197 0.0
C604 C 0.07804 0.62522 0.76033 0.0
C605 C 0.08621 0.63375 0.7236 0.0
C606 C 0.11237 0.62444 0.70793 0.0
C607 C 0.12995 0.60624 0.72978 0.0
C608 C 0.12179 0.5978 0.76635 0.0
C609 C 0.03694 0.55127 0.91966 0.0
C610 C 0.98404 0.58484 0.83027 0.0
C611 C 0.94999 0.59399 0.9716 0.0
C612 C 0.94678 0.60058 1.01246 0.0
C613 C 0.9684 0.59429 0.03891 0.0
C614 C 0.96496 0.60164 0.07728 0.0
C615 C 0.93994 0.61558 0.08988 0.0
C616 C 0.91845 0.62181 0.0632 0.0
C617 C 0.92183 0.61435 0.02499 0.0
C618 C -0.0011 0.6453 0.8722 0.0
C619 C 0.05093 0.62152 0.95676 0.0
O620 O 0.08303 0.61982 0.84504 0.0
O621 O 0.07245 0.57629 0.82595 0.0
O622 O 0.062 0.56199 0.9127 0.0
O623 O 0.01843 0.56333 0.89915 0.0
O624 O 0.01033 0.59515 0.82701 0.0
O625 O 0.97266 0.57869 0.8638 0.0
O626 O 0.96712 0.57288 0.9621 0.0
O627 O 0.95214 0.61626 0.94897 0.0
O628 O 0.97363 0.63552 0.88052 0.0
O629 O 0.01799 0.6326 0.89117 0.0
O630 O 0.02466 0.61164 0.96209 0.0
O631 O 0.06327 0.62147 0.92293 0.0
H632 H 0.05792 0.63273 0.77192 0.0
H633 H 0.072 0.64749 0.70743 0.0
H634 H 0.15039 0.59901 0.71898 0.0
H635 H 0.13593 0.58409 0.78272 0.0
H636 H 0.988 0.58389 0.02994 0.0
H637 H 0.98205 0.59674 0.09698 0.0
H638 H 0.89874 0.63208 0.07195 0.0
H639 H 0.90491 0.61943 1.00509 0.0
H640 H 0.0257 0.11159 1.01242 0.0
H641 H 0.09551 0.13308 0.08869 0.0
H642 H 0.12433 0.14934 0.0342 0.0
H643 H 0.06968 0.08496 0.93607 0.0
H644 H 0.04738 0.09964 0.89907 0.0
H645 H 0.03192 0.08967 0.94412 0.0
H646 H 0.01165 0.14111 0.95219 0.0
H647 H 0.02649 0.15111 0.90675 0.0
H648 H 0.03518 0.17182 0.9485 0.0
H649 H 0.14618 0.16248 0.97184 0.0
H650 H 0.15925 0.17264 0.9051 0.0
H651 H 0.07538 0.14387 0.86871 0.0
C652 C 0.04702 0.11977 1.01771 0.0
C653 C 0.05826 0.12103 0.05501 0.0
C654 C 0.08632 0.13183 0.06052 0.0
C655 C 0.10293 0.14115 0.0297 0.0
C656 C 0.09126 0.13961 0.99341 0.0
C657 C 0.06397 0.12923 0.98719 0.0
C658 C 0.05666 0.12988 0.94521 0.0
C659 C 0.05109 0.09921 0.93024 0.0
C660 C 0.03098 0.14969 0.93769 0.0
C661 C 0.08406 0.14241 0.9289 0.0
C662 C 0.10378 0.14766 0.95727 0.0
C663 C 0.13092 0.15855 0.94935 0.0
C664 C 0.13819 0.16415 0.9114 0.0
C665 C 0.11834 0.15909 0.88182 0.0
C666 C 0.09086 0.14824 0.89082 0.0
H667 H 0.11354 0.76835 0.26196 0.0
H668 H 0.08295 0.83594 0.33703 0.0
H669 H 0.06613 0.86358 0.28164 0.0
H670 H 0.139 0.815 0.18867 0.0
H671 H 0.12834 0.79156 0.15041 0.0
H672 H 0.13699 0.7766 0.19622 0.0
H673 H 0.08743 0.75163 0.19846 0.0
H674 H 0.07857 0.76684 0.15284 0.0
H675 H 0.05554 0.77305 0.19308 0.0
H676 H 0.05525 0.8855 0.21839 0.0
H677 H 0.04931 0.89931 0.15094 0.0
H678 H 0.08523 0.81728 0.11629 0.0
C679 C 0.10303 0.78881 0.26683 0.0
C680 C 0.09957 0.79988 0.30404 0.0
C681 C 0.08588 0.82689 0.30896 0.0
C682 C 0.07621 0.84281 0.27762 0.0
C683 C 0.0802 0.83145 0.24141 0.0
C684 C 0.09311 0.805 0.23579 0.0
C685 C 0.09534 0.79811 0.19373 0.0
C686 C 0.12678 0.79515 0.18154 0.0
C687 C 0.07819 0.77079 0.18397 0.0
C688 C 0.08177 0.82491 0.17665 0.0
C689 C 0.07332 0.84389 0.20474 0.0
C690 C 0.06151 0.87071 0.19614 0.0
C691 C 0.05832 0.87843 0.15783 0.0
C692 C 0.06666 0.85932 0.12857 0.0
C693 C 0.07831 0.83211 0.13818 0.0
H694 H 0.36606 0.86016 0.40231 0.0
H695 H 0.42634 0.79647 0.36047 0.0
H696 H 0.45343 0.79998 0.42007 0.0
H697 H 0.41672 0.90427 0.45087 0.0
H698 H 0.39386 0.91202 0.49078 0.0
H699 H 0.37844 0.90427 0.44505 0.0
H700 H 0.34846 0.86298 0.47486 0.0
H701 H 0.36375 0.87067 0.52072 0.0
H702 H 0.36621 0.83483 0.50118 0.0
H703 H 0.47653 0.81314 0.4816 0.0
H704 H 0.49204 0.83258 0.54362 0.0
H705 H 0.41532 0.88465 0.54945 0.0
C706 C 0.38471 0.84663 0.40585 0.0
C707 C 0.39415 0.8283 0.37612 0.0
C708 C 0.4189 0.81121 0.38213 0.0
C709 C 0.43439 0.81287 0.41613 0.0
C710 C 0.42484 0.83148 0.44441 0.0
C711 C 0.40042 0.84786 0.43994 0.0
C712 C 0.39514 0.86635 0.47493 0.0
C713 C 0.3961 0.89864 0.46479 0.0
C714 C 0.3667 0.85821 0.49405 0.0
C715 C 0.42047 0.85788 0.49955 0.0
C716 C 0.43744 0.83792 0.48111 0.0
C717 C 0.46313 0.82834 0.49663 0.0
C718 C 0.47178 0.83948 0.53183 0.0
C719 C 0.45459 0.85957 0.55157 0.0
C720 C 0.42845 0.86869 0.53537 0.0
H721 H 0.37065 0.16618 0.80209 0.0
H722 H 0.41455 0.24783 0.78675 0.0
H723 H 0.43331 0.23113 0.72504 0.0
H724 H 0.42368 0.11967 0.75538 0.0
H725 H 0.39706 0.09749 0.73267 0.0
H726 H 0.38925 0.11457 0.77746 0.0
H727 H 0.34458 0.13867 0.74786 0.0
H728 H 0.35224 0.12171 0.70302 0.0
H729 H 0.34848 0.16036 0.70561 0.0
H730 H 0.4464 0.20647 0.66466 0.0
H731 H 0.45023 0.17698 0.60686 0.0
H732 H 0.39543 0.11191 0.65807 0.0
C733 C 0.3847 0.18021 0.786 0.0
C734 C 0.39154 0.20815 0.79938 0.0
C735 C 0.40921 0.22632 0.77707 0.0
C736 C 0.42005 0.21697 0.74206 0.0
C737 C 0.41273 0.18948 0.72939 0.0
C738 C 0.39527 0.1714 0.75042 0.0
C739 C 0.38886 0.14386 0.72858 0.0
C740 C 0.40041 0.11733 0.74979 0.0
C741 C 0.35663 0.14099 0.72081 0.0
C742 C 0.40545 0.14933 0.69209 0.0
C743 C 0.41927 0.17567 0.69348 0.0
C744 C 0.43557 0.18586 0.66318 0.0
C745 C 0.43744 0.16897 0.63029 0.0
C746 C 0.42288 0.14218 0.62751 0.0
C747 C 0.40701 0.13213 0.65925 0.0
H748 H 0.92169 0.83622 0.17612 0.0
H749 H 0.87763 0.75638 0.14807 0.0
H750 H 0.8923 0.7621 0.0813 0.0
H751 H 0.90695 0.875 0.09343 0.0
H752 H 0.94177 0.89145 0.08958 0.0
H753 H 0.92816 0.88101 0.13543 0.0
H754 H 0.97325 0.84966 0.14704 0.0
H755 H 0.98698 0.86035 0.1013 0.0
H756 H 0.98304 0.82263 0.11267 0.0
H757 H 0.90846 0.77883 1.01621 0.0
H758 H 0.92925 0.8026 0.95944 0.0
H759 H 0.96677 0.86832 0.03154 0.0
C760 C 0.91555 0.81947 0.15638 0.0
C761 C 0.898 0.79603 0.16777 0.0
C762 C 0.89026 0.77505 0.14027 0.0
C763 C 0.89876 0.77792 0.10218 0.0
C764 C 0.91559 0.80153 0.09201 0.0
C765 C 0.92441 0.82161 0.11848 0.0
C766 C 0.94271 0.84487 0.10029 0.0
C767 C 0.92906 0.87485 0.10496 0.0
C768 C 0.9733 0.84433 0.11627 0.0
C769 C 0.9421 0.83516 0.05927 0.0
C770 C 0.92624 0.8102 0.05499 0.0
C771 C 0.92129 0.79812 1.01931 0.0
C772 C 0.93301 0.81183 0.98724 0.0
C773 C 0.94977 0.8371 0.9912 0.0
C774 C 0.95441 0.84874 0.02774 0.0
H775 H 0.87757 0.14725 0.74601 0.0
H776 H 0.93296 0.22226 0.74509 0.0
H777 H 0.95331 0.2075 0.8068 0.0
H778 H 0.86082 0.15162 0.84349 0.0
H779 H 0.85966 0.11327 0.852 0.0
H780 H 0.85196 0.12728 0.80538 0.0
H781 H 0.89151 0.09495 0.77657 0.0
H782 H 0.89924 0.0807 0.82313 0.0
H783 H 0.92733 0.09694 0.79522 0.0
H784 H 0.96515 0.18718 0.87002 0.0
H785 H 0.96763 0.16292 0.93193 0.0
H786 H 0.90345 0.10127 0.89497 0.0
C787 C 0.89464 0.15993 0.75838 0.0
C788 C 0.90428 0.18552 0.74049 0.0
C789 C 0.92571 0.20236 0.75814 0.0
C790 C 0.93736 0.19415 0.79317 0.0
C791 C 0.92712 0.16916 0.81054 0.0
C792 C 0.90624 0.15224 0.7939 0.0
C793 C 0.89742 0.12784 0.82044 0.0
C794 C 0.86558 0.13015 0.83095 0.0
C795 C 0.90429 0.09836 0.80278 0.0
C796 C 0.91642 0.13391 0.85457 0.0
C797 C 0.93347 0.15774 0.84796 0.0
C798 C 0.95204 0.16836 0.87545 0.0
C799 C 0.95318 0.15442 0.91076 0.0
C800 C 0.93585 0.12999 0.9187 0.0
C801 C 0.91737 0.11955 0.88984 0.0
H802 H 0.56623 0.14549 0.68513 0.0
H803 H 0.63967 0.19432 0.64502 0.0
H804 H 0.62177 0.19079 0.57953 0.0
H805 H 0.56317 0.09585 0.60629 0.0
H806 H 0.52464 0.09484 0.60573 0.0
H807 H 0.54324 0.10212 0.64938 0.0
H808 H 0.5135 0.1493 0.65581 0.0
H809 H 0.49602 0.14184 0.61131 0.0
H810 H 0.51453 0.17558 0.618 0.0
H811 H 0.59747 0.18121 0.51865 0.0
H812 H 0.56867 0.16482 0.4646 0.0
H813 H 0.51065 0.12088 0.54209 0.0
C814 C 0.57858 0.15537 0.66255 0.0
C815 C 0.60432 0.17044 0.67047 0.0
C816 C 0.61967 0.18318 0.64 0.0
C817 C 0.60974 0.18118 0.60259 0.0
C818 C 0.58436 0.16635 0.59584 0.0
C819 C 0.56893 0.15359 0.62482 0.0
C820 C 0.54263 0.13831 0.60924 0.0
C821 C 0.54352 0.10584 0.61818 0.0
C822 C 0.51505 0.1521 0.62451 0.0
C823 C 0.54615 0.14401 0.56694 0.0
C824 C 0.57026 0.16049 0.56012 0.0
C825 C 0.5785 0.16834 0.52357 0.0
C826 C 0.56194 0.15883 0.49299 0.0
C827 C 0.53732 0.14148 0.49889 0.0
C828 C 0.5292 0.13425 0.53655 0.0
H829 H 0.56365 0.88595 0.39767 0.0
H830 H 0.6338 0.85258 0.46531 0.0
H831 H 0.65273 0.82746 0.40924 0.0
H832 H 0.55358 0.822 0.34052 0.0
H833 H 0.54595 0.84133 0.29723 0.0
H834 H 0.5377 0.85738 0.34251 0.0
H835 H 0.56819 0.90207 0.32477 0.0
H836 H 0.57663 0.8861 0.27948 0.0
H837 H 0.60497 0.89731 0.31083 0.0
H838 H 0.66293 0.80372 0.34828 0.0
H839 H 0.66506 0.78356 0.28375 0.0
H840 H 0.59044 0.83324 0.25164 0.0
C841 C 0.583 0.87335 0.40057 0.0
C842 C 0.59739 0.87153 0.43602 0.0
C843 C 0.62265 0.85481 0.43852 0.0
C844 C 0.63353 0.84031 0.40681 0.0
C845 C 0.61907 0.8427 0.37241 0.0
C846 C 0.59444 0.85884 0.36882 0.0
C847 C 0.58328 0.85744 0.32815 0.0
C848 C 0.55335 0.84372 0.32705 0.0
C849 C 0.58327 0.88753 0.30973 0.0
C850 C 0.60544 0.83787 0.3097 0.0
C851 C 0.6257 0.8296 0.33612 0.0
C852 C 0.64747 0.81039 0.32719 0.0
C853 C 0.64855 0.79909 0.29041 0.0
C854 C 0.62836 0.80724 0.26248 0.0
C855 C 0.6066 0.82718 0.27214 0.0
H856 H 0.57847 0.64467 0.3756 0.0
H857 H 0.65794 0.68439 0.41185 0.0
H858 H 0.64534 0.67451 0.47873 0.0
H859 H 0.53455 0.6713 0.45267 0.0
H860 H 0.51395 0.63849 0.45605 0.0
H861 H 0.52946 0.64899 0.4113 0.0
H862 H 0.5548 0.59922 0.40779 0.0
H863 H 0.53946 0.58926 0.45289 0.0
H864 H 0.57763 0.58804 0.44632 0.0
H865 H 0.624 0.66073 0.54195 0.0
H866 H 0.59545 0.64411 0.5968 0.0
H867 H 0.52958 0.61348 0.51983 0.0
C868 C 0.59315 0.65149 0.3976 0.0
C869 C 0.61931 0.66526 0.38828 0.0
C870 C 0.638 0.67346 0.41807 0.0
C871 C 0.63095 0.66808 0.45622 0.0
C872 C 0.60511 0.6544 0.46436 0.0
C873 C 0.58648 0.64619 0.43592 0.0
C874 C 0.56012 0.63167 0.45243 0.0
C875 C 0.53292 0.64866 0.44253 0.0
C876 C 0.55789 0.60018 0.43906 0.0
C877 C 0.56672 0.6333 0.4946 0.0
C878 C 0.59282 0.64642 0.50083 0.0
C879 C 0.60353 0.65041 0.5374 0.0
C880 C 0.58713 0.64085 0.56843 0.0
C881 C 0.56022 0.62744 0.56285 0.0
C882 C 0.55004 0.62362 0.52526 0.0
H883 H 0.59139 0.32136 0.79637 0.0
H884 H 0.671 0.27821 0.76985 0.0
H885 H 0.66934 0.29753 0.70458 0.0
H886 H 0.55883 0.30467 0.70783 0.0
H887 H 0.53933 0.33801 0.70345 0.0
H888 H 0.54826 0.3242 0.74979 0.0
H889 H 0.57364 0.37228 0.76617 0.0
H890 H 0.5647 0.38629 0.71987 0.0
H891 H 0.60141 0.38575 0.73531 0.0
H892 H 0.65867 0.31906 0.6424 0.0
H893 H 0.6377 0.33867 0.58391 0.0
H894 H 0.5629 0.36626 0.64731 0.0
C895 C 0.60874 0.31672 0.77695 0.0
C896 C 0.63179 0.29896 0.78819 0.0
C897 C 0.65356 0.29227 0.76178 0.0
C898 C 0.65278 0.30313 0.72473 0.0
C899 C 0.62976 0.32032 0.71422 0.0
C900 C 0.60791 0.3269 0.73924 0.0
C901 C 0.58434 0.34347 0.71904 0.0
C902 C 0.55602 0.32658 0.72009 0.0
C903 C 0.58082 0.37375 0.73612 0.0
C904 C 0.59639 0.34497 0.67893 0.0
C905 C 0.62281 0.3318 0.67717 0.0
C906 C 0.63812 0.32971 0.6434 0.0
C907 C 0.62606 0.34114 0.61032 0.0
C908 C 0.59879 0.35442 0.61093 0.0
C909 C 0.58382 0.35639 0.64589 0.0
H910 H 0.95083 0.38964 1.0118 0.0
H911 H 0.92138 0.31738 0.07985 0.0
H912 H 0.89999 0.29516 1.02271 0.0
H913 H 0.88596 0.39247 0.95262 0.0
H914 H 0.90537 0.40324 0.91064 0.0
H915 H 0.91836 0.41329 0.95693 0.0
H916 H 0.96668 0.38981 0.94121 0.0
H917 H 0.95404 0.37857 0.89529 0.0
H918 H 0.96812 0.35222 0.928 0.0
H919 H 0.88581 0.27889 0.9575 0.0
H920 H 0.87419 0.27207 0.89017 0.0
H921 H 0.90689 0.35806 0.86547 0.0
C922 C 0.9397 0.36923 1.01455 0.0
C923 C 0.93778 0.35506 0.05004 0.0
C924 C 0.92289 0.32856 0.05287 0.0
C925 C 0.91082 0.31574 1.02058 0.0
C926 C 0.91324 0.33009 0.9859 0.0
C927 C 0.92671 0.35656 0.98279 0.0
C928 C 0.92524 0.36789 0.94237 0.0
C929 C 0.90768 0.39588 0.94055 0.0
C930 C 0.95532 0.37235 0.92574 0.0
C931 C 0.90973 0.34316 0.92306 0.0
C932 C 0.90319 0.32155 0.94866 0.0
C933 C 0.89018 0.29597 0.93729 0.0
C934 C 0.88339 0.29245 0.89879 0.0
C935 C 0.88901 0.31464 0.87187 0.0
C936 C 0.90237 0.34038 0.88465 0.0
H937 H 0.88265 0.70862 0.26544 0.0
H938 H 0.90821 0.63794 0.3391 0.0
H939 H 0.92776 0.61209 0.28355 0.0
H940 H 0.86011 0.66556 0.18773 0.0
H941 H 0.87312 0.69008 0.15182 0.0
H942 H 0.86245 0.70367 0.19754 0.0
H943 H 0.91202 0.72742 0.20604 0.0
H944 H 0.92291 0.714 0.16027 0.0
H945 H 0.94381 0.70572 0.20186 0.0
H946 H 0.94377 0.59347 0.21969 0.0
H947 H 0.95312 0.58254 0.15216 0.0
H948 H 0.91696 0.66527 0.12015 0.0
C949 C 0.89251 0.68778 0.27006 0.0
C950 C 0.89394 0.67537 0.30682 0.0
C951 C 0.90684 0.64794 0.31133 0.0
C952 C 0.91809 0.63311 0.27993 0.0
C953 C 0.91629 0.64596 0.24415 0.0
C954 C 0.90376 0.67266 0.23904 0.0
C955 C 0.90372 0.68133 0.19746 0.0
C956 C 0.87302 0.68538 0.18279 0.0
C957 C 0.92169 0.70874 0.19104 0.0
C958 C 0.91782 0.65509 0.17987 0.0
C959 C 0.92518 0.63509 0.20733 0.0
C960 C 0.93822 0.60902 0.19796 0.0
C961 C 0.9436 0.60307 0.15951 0.0
C962 C 0.93579 0.62299 0.13074 0.0
C963 C 0.92295 0.64945 0.14134 0.0
H964 H 0.469 0.36307 0.53322 0.0
H965 H 0.39306 0.35459 0.46317 0.0
H966 H 0.36454 0.34351 0.52014 0.0
H967 H 0.45159 0.30536 0.59953 0.0
H968 H 0.46544 0.32419 0.64033 0.0
H969 H 0.48038 0.33093 0.59394 0.0
H970 H 0.4702 0.38544 0.60146 0.0
H971 H 0.45523 0.37895 0.64787 0.0
H972 H 0.43442 0.39731 0.6122 0.0
H973 H 0.34374 0.33412 0.58426 0.0
H974 H 0.33189 0.32703 0.65184 0.0
H975 H 0.4207 0.34186 0.6818 0.0
C976 C 0.44641 0.3587 0.5298 0.0
C977 C 0.43337 0.35969 0.49345 0.0
C978 C 0.40367 0.35403 0.49049 0.0
C979 C 0.38722 0.34765 0.52276 0.0
C980 C 0.40065 0.34697 0.55804 0.0
C981 C 0.42955 0.35231 0.56187 0.0
C982 C 0.43845 0.35066 0.60337 0.0
C983 C 0.46026 0.32633 0.60965 0.0
C984 C 0.45027 0.37983 0.61702 0.0
C985 C 0.40997 0.34367 0.62217 0.0
C986 C 0.38852 0.34163 0.59536 0.0
C987 C 0.36034 0.33572 0.60554 0.0
C988 C 0.35378 0.33192 0.64411 0.0
C989 C 0.37524 0.33407 0.67238 0.0
C990 C 0.40379 0.33984 0.66099 0.0
H991 H 0.40162 0.6199 0.40863 0.0
H992 H 0.44039 0.69434 0.46289 0.0
H993 H 0.43431 0.72246 0.40413 0.0
H994 H 0.43245 0.6319 0.31502 0.0
H995 H 0.40089 0.62073 0.28962 0.0
H996 H 0.40847 0.6058 0.33584 0.0
H997 H 0.3588 0.62233 0.35993 0.0
H998 H 0.35103 0.63715 0.31373 0.0
H999 H 0.34874 0.6597 0.35527 0.0
H1000 H 0.42261 0.74335 0.34148 0.0
H1001 H 0.40622 0.75613 0.27725 0.0
H1002 H 0.37585 0.66854 0.26052 0.0
C1003 C 0.40877 0.64212 0.40809 0.0
C1004 C 0.42177 0.65478 0.44043 0.0
C1005 C 0.4309 0.68393 0.43844 0.0
C1006 C 0.42741 0.70017 0.40518 0.0
C1007 C 0.41481 0.68704 0.37385 0.0
C1008 C 0.40562 0.65872 0.3748 0.0
C1009 C 0.39251 0.65019 0.33687 0.0
C1010 C 0.40961 0.6257 0.31824 0.0
C1011 C 0.3609 0.64185 0.34175 0.0
C1012 C 0.39565 0.67822 0.31467 0.0
C1013 C 0.40851 0.69912 0.33683 0.0
C1014 C 0.41273 0.72714 0.32373 0.0
C1015 C 0.40331 0.73417 0.28717 0.0
C1016 C 0.39 0.71328 0.26372 0.0
C1017 C 0.38645 0.68478 0.27753 0.0
H1018 H 0.08254 0.64952 0.17702 0.0
H1019 H 0.15935 0.69518 0.14244 0.0
H1020 H 0.14698 0.68692 0.07508 0.0
H1021 H 0.08473 0.59491 0.10565 0.0
H1022 H 0.04659 0.59401 0.09859 0.0
H1023 H 0.06097 0.60429 0.14403 0.0
H1024 H 0.03277 0.65226 0.14093 0.0
H1025 H 0.01842 0.64221 0.09537 0.0
H1026 H 0.03738 0.67584 0.10058 0.0
H1027 H 0.12753 0.67145 1.01147 0.0
H1028 H 0.1012 0.65212 0.95631 0.0
H1029 H 0.03669 0.61711 0.03237 0.0
C1030 C 0.09679 0.65776 0.15528 0.0
C1031 C 0.12199 0.67297 0.16506 0.0
C1032 C 0.13982 0.68373 0.13569 0.0
C1033 C 0.13304 0.67901 0.09735 0.0
C1034 C 0.10823 0.66367 0.08874 0.0
C1035 C 0.09024 0.6534 0.11686 0.0
C1036 C 0.06488 0.63755 0.09996 0.0
C1037 C 0.06428 0.60581 0.11283 0.0
C1038 C 0.0367 0.65289 0.1098 0.0
C1039 C 0.07168 0.64011 0.05798 0.0
C1040 C 0.09677 0.65524 0.0521 0.0
C1041 C 0.10775 0.65975 1.01573 0.0
C1042 C 0.09267 0.64859 0.98456 0.0
C1043 C 0.06679 0.63318 0.98987 0.0
C1044 C 0.05626 0.62899 0.0272 0.0
H1045 H 0.11953 0.26641 0.78749 0.0
H1046 H 0.07346 0.32281 0.71028 0.0
H1047 H 0.05537 0.35064 0.76474 0.0
H1048 H 0.06611 0.26613 0.8633 0.0
H1049 H 0.0924 0.26652 0.90068 0.0
H1050 H 0.10066 0.24998 0.85571 0.0
H1051 H 0.14526 0.28274 0.84912 0.0
H1052 H 0.13711 0.2995 0.89396 0.0
H1053 H 0.14123 0.32135 0.85188 0.0
H1054 H 0.04338 0.37346 0.8269 0.0
H1055 H 0.03844 0.39006 0.89303 0.0
H1056 H 0.09221 0.31935 0.9309 0.0
C1057 C 0.10536 0.2844 0.78206 0.0
C1058 C 0.09788 0.29233 0.74448 0.0
C1059 C 0.07957 0.31627 0.73869 0.0
C1060 C 0.06911 0.33223 0.76948 0.0
C1061 C 0.07715 0.32409 0.80604 0.0
C1062 C 0.09482 0.30075 0.81256 0.0
C1063 C 0.10089 0.29726 0.8547 0.0
C1064 C 0.08932 0.26825 0.86946 0.0
C1065 C 0.13303 0.30041 0.86288 0.0
C1066 C 0.08405 0.32248 0.87073 0.0
C1067 C 0.0704 0.33751 0.84211 0.0
C1068 C 0.0538 0.36176 0.84961 0.0
C1069 C 0.05102 0.37095 0.88736 0.0
C1070 C 0.0648 0.35602 0.91736 0.0
C1071 C 0.08157 0.33142 0.90869 0.0
H1072 H 0.04231 0.29386 0.17124 0.0
H1073 H 0.95494 0.31731 0.19685 0.0
H1074 H 0.94567 0.26803 0.22032 0.0
H1075 H 0.02726 0.23501 0.1272 0.0
H1076 H 0.05684 0.21295 0.14241 0.0
H1077 H 0.06029 0.25139 0.1425 0.0
H1078 H 0.07353 0.25031 0.21396 0.0
H1079 H 0.07015 0.21152 0.21405 0.0
H1080 H 0.05004 0.23281 0.24747 0.0
H1081 H 0.94204 0.21607 0.22451 0.0
H1082 H 0.94233 0.16575 0.20282 0.0
H1083 H 0.03131 0.174 0.17037 0.0
C1084 C 0.02163 0.28879 0.18337 0.0
C1085 C -0.00072 0.30907 0.18257 0.0
C1086 C 0.97222 0.30186 0.19742 0.0
C1087 C 0.96696 0.27406 0.21125 0.0
C1088 C 0.98903 0.25385 0.20977 0.0
C1089 C 0.01594 0.2609 0.19622 0.0
C1090 C 0.03378 0.23423 0.18904 0.0
C1091 C 0.04515 0.23336 0.14786 0.0
C1092 C 0.05832 0.2321 0.21786 0.0
C1093 C 0.01162 0.21112 0.19632 0.0
C1094 C 0.98654 0.22284 0.21044 0.0
C1095 C 0.96171 0.20654 0.21438 0.0
C1096 C 0.962 0.17807 0.20161 0.0
C1097 C 0.98679 0.16647 0.18454 0.0
C1098 C 0.01227 0.18256 0.18371 0.0
H1099 H 0.94379 0.78342 0.44252 0.0
H1100 H 0.92207 0.69334 0.45655 0.0
H1101 H 0.96981 0.68383 0.48283 0.0
H1102 H 0.00094 0.77405 0.39952 0.0
H1103 H 0.02295 0.80246 0.4188 0.0
H1104 H 0.98499 0.80577 0.4203 0.0
H1105 H 0.98677 0.81253 0.49324 0.0
H1106 H 0.02519 0.80931 0.4919 0.0
H1107 H 0.00447 0.78611 0.52252 0.0
H1108 H 0.02098 0.68028 0.48536 0.0
H1109 H 0.06958 0.68186 0.45897 0.0
H1110 H 0.06078 0.77347 0.43815 0.0
C1111 C 0.94883 0.76206 0.45301 0.0
C1112 C 0.92967 0.73904 0.44761 0.0
C1113 C 0.9367 0.71116 0.46054 0.0
C1114 C 0.96367 0.70572 0.47596 0.0
C1115 C 0.9833 0.7284 0.47792 0.0
C1116 C 0.97607 0.75626 0.46716 0.0
C1117 C 0.00237 0.77495 0.46199 0.0
C1118 C 0.00282 0.7901 0.42283 0.0
C1119 C 0.00484 0.79702 0.49435 0.0
C1120 C 0.02532 0.7522 0.46542 0.0
C1121 C 0.01408 0.72605 0.47748 0.0
C1122 C 0.03017 0.70076 0.47696 0.0
C1123 C 0.05765 0.70178 0.46152 0.0
C1124 C 0.06839 0.72778 0.44612 0.0
C1125 C 0.05282 0.75349 0.45011 0.0
H1126 H 0.4659 0.69808 0.6545 0.0
H1127 H 0.54647 0.67262 0.70435 0.0
H1128 H 0.55262 0.72176 0.73061 0.0
H1129 H 0.48423 0.76003 0.62036 0.0
H1130 H 0.45215 0.78 0.6309 0.0
H1131 H 0.45051 0.74164 0.62631 0.0
H1132 H 0.42827 0.7378 0.6937 0.0
H1133 H 0.43014 0.7765 0.69859 0.0
H1134 H 0.44653 0.75354 0.73369 0.0
H1135 H 0.55636 0.77449 0.734 0.0
H1136 H 0.55707 0.82575 0.71495 0.0
H1137 H 0.47198 0.81693 0.66818 0.0
C1138 C 0.48442 0.70287 0.67182 0.0
C1139 C 0.50605 0.68236 0.67706 0.0
C1140 C 0.52992 0.68857 0.70001 0.0
C1141 C 0.53332 0.71619 0.71538 0.0
C1142 C 0.51203 0.7366 0.70855 0.0
C1143 C 0.48764 0.73 0.68802 0.0
C1144 C 0.46998 0.75644 0.67976 0.0
C1145 C 0.46394 0.75971 0.63682 0.0
C1146 C 0.44208 0.75604 0.70283 0.0
C1147 C 0.49005 0.77936 0.69431 0.0
C1148 C 0.51367 0.76753 0.71225 0.0
C1149 C 0.53756 0.78413 0.72139 0.0
C1150 C 0.53793 0.8131 0.71019 0.0
C1151 C 0.51458 0.82479 0.69004 0.0
C1152 C 0.48982 0.80832 0.68414 0.0
H1153 H 0.54821 0.2042 0.92615 0.0
H1154 H 0.57666 0.29292 0.93055 0.0
H1155 H 0.5309 0.30704 0.95982 0.0
H1156 H 0.48761 0.21799 0.88774 0.0
H1157 H 0.46595 0.19102 0.91107 0.0
H1158 H 0.50363 0.18568 0.90681 0.0
H1159 H 0.50744 0.17955 0.97987 0.0
H1160 H 0.46943 0.18514 0.98429 0.0
H1161 H 0.49396 0.20734 1.01079 0.0
H1162 H 0.48047 0.31363 0.97269 0.0
H1163 H 0.42945 0.31434 0.95659 0.0
H1164 H 0.43136 0.2222 0.93649 0.0
C1165 C 0.54508 0.22639 0.93477 0.0
C1166 C 0.56582 0.24755 0.92682 0.0
C1167 C 0.56102 0.27649 0.9371 0.0
C1168 C 0.53522 0.28454 0.95412 0.0
C1169 C 0.51445 0.26335 0.96011 0.0
C1170 C 0.51906 0.23477 0.95046 0.0
C1171 C 0.49149 0.2177 0.95 0.0
C1172 C 0.48692 0.20226 0.91163 0.0
C1173 C 0.49053 0.19616 0.98323 0.0
C1174 C 0.47037 0.24186 0.95607 0.0
C1175 C 0.4841 0.26754 0.96467 0.0
C1176 C 0.46945 0.29361 0.96672 0.0
C1177 C 0.44052 0.29383 0.95719 0.0
C1178 C 0.42696 0.26831 0.94461 0.0
C1179 C 0.44149 0.24184 0.94619 0.0
H1180 H 0.97024 0.80529 0.85655 0.0
H1181 H 0.06086 0.81431 0.83479 0.0
H1182 H 0.06265 0.76429 0.81177 0.0
H1183 H 0.97088 0.74611 0.89876 0.0
H1184 H 0.93942 0.72886 0.87982 0.0
H1185 H 0.94216 0.76729 0.87903 0.0
H1186 H 0.93459 0.76788 0.80619 0.0
H1187 H 0.93125 0.72909 0.80675 0.0
H1188 H 0.95705 0.7462 0.77602 0.0
H1189 H 0.059 0.71232 0.81585 0.0
H1190 H 0.04902 0.66381 0.8412 0.0
H1191 H 0.96003 0.68636 0.8557 0.0
C1192 C -0.00996 0.79705 0.84503 0.0
C1193 C 0.01541 0.81319 0.84776 0.0
C1194 C 0.04119 0.80202 0.83307 0.0
C1195 C 0.04233 0.7737 0.81958 0.0
C1196 C 0.01736 0.75726 0.82017 0.0
C1197 C -0.00862 0.76882 0.83136 0.0
C1198 C 0.96897 0.74557 0.83633 0.0
C1199 C 0.95459 0.74705 0.87582 0.0
C1200 C 0.94665 0.74728 0.80441 0.0
C1201 C 0.98745 0.71903 0.83198 0.0
C1202 C 0.01502 0.72618 0.821 0.0
C1203 C 0.03728 0.70622 0.82277 0.0
C1204 C 0.03155 0.67879 0.83757 0.0
C1205 C 0.0038 0.67163 0.85011 0.0
C1206 C 0.98128 0.69137 0.8454 0.0
H1207 H 0.54768 0.70588 0.12947 0.0
H1208 H 0.57516 0.79439 0.11805 0.0
H1209 H 0.52956 0.80703 0.08825 0.0
H1210 H 0.48917 0.70727 0.04667 0.0
H1211 H 0.46593 0.68585 0.07632 0.0
H1212 H 0.50401 0.67972 0.07695 0.0
H1213 H 0.50436 0.68676 0.14994 0.0
H1214 H 0.46671 0.69267 0.14939 0.0
H1215 H 0.49 0.71959 0.16973 0.0
H1216 H 0.47941 0.81392 0.08032 0.0
H1217 H 0.43027 0.81651 0.10445 0.0
H1218 H 0.43207 0.72518 0.12977 0.0
C1219 C 0.54432 0.72759 0.11899 0.0
C1220 C 0.56483 0.74923 0.12531 0.0
C1221 C 0.55984 0.77757 0.11263 0.0
C1222 C 0.53401 0.78476 0.09531 0.0
C1223 C 0.51316 0.7634 0.09171 0.0
C1224 C 0.51804 0.73519 0.10328 0.0
C1225 C 0.49036 0.71852 0.10724 0.0
C1226 C 0.48719 0.69655 0.07486 0.0
C1227 C 0.48773 0.7036 0.14641 0.0
C1228 C 0.4693 0.74293 0.10248 0.0
C1229 C 0.48271 0.76794 0.09015 0.0
C1230 C 0.46857 0.79437 0.08907 0.0
C1231 C 0.44079 0.79573 0.10331 0.0
C1232 C 0.42791 0.77097 0.11931 0.0
C1233 C 0.44161 0.74411 0.11707 0.0
H1234 H 0.50335 0.17738 0.35396 0.0
H1235 H 0.41176 0.1765 0.36912 0.0
H1236 H 0.40797 0.22267 0.33565 0.0
H1237 H 0.51964 0.23644 0.37748 0.0
H1238 H 0.54466 0.24883 0.3419 0.0
H1239 H 0.53903 0.21114 0.34822 0.0
H1240 H 0.52581 0.20589 0.27751 0.0
H1241 H 0.53151 0.24407 0.27075 0.0
H1242 H 0.49801 0.22788 0.25721 0.0
H1243 H 0.4156 0.27325 0.33192 0.0
H1244 H 0.43412 0.31969 0.35486 0.0
H1245 H 0.52041 0.29119 0.33273 0.0
C1246 C 0.48258 0.18649 0.34839 0.0
C1247 C 0.45809 0.17413 0.36466 0.0
C1248 C 0.43093 0.18609 0.35729 0.0
C1249 C 0.42852 0.2121 0.33763 0.0
C1250 C 0.45339 0.22542 0.32462 0.0
C1251 C 0.47995 0.21232 0.32808 0.0
C1252 C 0.50373 0.23325 0.31878 0.0
C1253 C 0.52809 0.23238 0.34844 0.0
C1254 C 0.51543 0.22743 0.27868 0.0
C1255 C 0.48696 0.26117 0.3195 0.0
C1256 C 0.45771 0.25611 0.31986 0.0
C1257 C 0.43827 0.27767 0.33008 0.0
C1258 C 0.44888 0.30394 0.34349 0.0
C1259 C 0.47857 0.30837 0.34596 0.0
C1260 C 0.49756 0.28787 0.33091 0.0
H1261 H 0.06224 0.26866 0.61049 0.0
H1262 H 0.06767 0.17714 0.58832 0.0
H1263 H 0.02133 0.17874 0.55571 0.0
H1264 H 0.00214 0.27332 0.64128 0.0
H1265 H 0.98848 0.30565 0.6192 0.0
H1266 H 0.0261 0.30077 0.62343 0.0
H1267 H 0.03226 0.30706 0.55094 0.0
H1268 H -0.00579 0.31236 0.54637 0.0
H1269 H 0.01189 0.285 0.51869 0.0
H1270 H 0.9707 0.18482 0.55373 0.0
H1271 H 0.92288 0.19581 0.57852 0.0
H1272 H 0.94743 0.28471 0.59524 0.0
C1273 C 0.05422 0.24944 0.5968 0.0
C1274 C 0.06795 0.22282 0.60219 0.0
C1275 C 0.05709 0.19773 0.58475 0.0
C1276 C 0.03096 0.19856 0.56567 0.0
C1277 C 0.0164 0.22477 0.56361 0.0
C1278 C 0.02818 0.25014 0.57746 0.0
C1279 C 0.00621 0.27402 0.57898 0.0
C1280 C 0.0057 0.28922 0.61805 0.0
C1281 C 0.01145 0.29589 0.54682 0.0
C1282 C 0.97939 0.25664 0.57156 0.0
C1283 C 0.98585 0.22868 0.5604 0.0
C1284 C 0.96525 0.20685 0.56075 0.0
C1285 C 0.93819 0.21311 0.57529 0.0
C1286 C 0.93192 0.24099 0.58867 0.0
C1287 C 0.95193 0.26339 0.58427 0.0
H1288 H 0.04185 0.03119 0.06545 0.0
H1289 H 0.98205 0.00209 0.1516 0.0
H1290 H 0.96016 0.96859 0.10557 0.0
H1291 H -0.0088 0.03189 0.99053 0.0
H1292 H 0.01569 0.02 0.95425 0.0
H1293 H 0.02879 0.03975 0.99468 0.0
H1294 H 0.06409 -0.00158 1.01013 0.0
H1295 H 0.05135 0.9784 0.96968 0.0
H1296 H 0.05063 0.96228 1.0163 0.0
H1297 H 0.94293 0.94079 0.05033 0.0
H1298 H 0.93281 0.91752 0.98891 0.0
H1299 H 0.00274 0.96502 0.93703 0.0
C1300 C 0.02475 0.01706 0.07474 0.0
C1301 C 0.01392 0.01856 0.1121 0.0
C1302 C -0.0092 0.00074 0.12313 0.0
C1303 C 0.97817 0.98183 0.0972 0.0
C1304 C 0.98872 0.98135 0.06025 0.0
C1305 C 0.01151 -0.00164 0.04891 0.0
C1306 C 0.0175 -0.0053 1.00685 0.0
C1307 C 0.01302 0.02328 0.98532 0.0
C1308 C 0.0477 0.98274 1.00034 0.0
C1309 C -0.00525 0.97272 0.99658 0.0
C1310 C 0.97832 0.96553 0.02785 0.0
C1311 C 0.9557 0.94609 0.02563 0.0
C1312 C 0.94999 0.93316 0.99058 0.0
C1313 C 0.96701 0.93955 0.95839 0.0
C1314 C -0.01052 0.9598 0.96134 0.0
H1315 H 0.21841 0.73697 0.3624 0.0
H1316 H 0.18026 0.81438 0.3151 0.0
H1317 H 0.20611 0.80644 0.25501 0.0
H1318 H 0.28737 0.74608 0.32009 0.0
H1319 H 0.29267 0.70819 0.31116 0.0
H1320 H 0.27042 0.71951 0.35011 0.0
H1321 H 0.22879 0.68878 0.32322 0.0
H1322 H 0.2507 0.6778 0.2837 0.0
H1323 H 0.21672 0.6949 0.27524 0.0
H1324 H 0.23684 0.79158 0.20158 0.0
H1325 H 0.27323 0.77181 0.15816 0.0
H1326 H 0.29115 0.70319 0.23865 0.0
C1327 C 0.21559 0.75217 0.3393 0.0
C1328 C 0.19741 0.77623 0.34317 0.0
C1329 C 0.19426 0.79589 0.31267 0.0
C1330 C 0.20862 0.79143 0.27835 0.0
C1331 C 0.22605 0.76726 0.27514 0.0
C1332 C 0.22979 0.74802 0.30475 0.0
C1333 C 0.25059 0.72435 0.29406 0.0
C1334 C 0.27682 0.72456 0.32042 0.0
C1335 C 0.2358 0.69471 0.29405 0.0
C1336 C 0.25838 0.73371 0.25412 0.0
C1337 C 0.24371 0.75837 0.24376 0.0
C1338 C 0.24826 0.7721 0.20911 0.0
C1339 C 0.26889 0.76073 0.18469 0.0
C1340 C 0.28463 0.73591 0.19508 0.0
C1341 C 0.27892 0.72186 0.22983 0.0
H1342 H 0.53896 0.04932 0.48347 0.0
H1343 H 0.4775 0.01636 0.40219 0.0
H1344 H 0.4601 0.98135 0.44966 0.0
H1345 H 0.55326 0.97895 0.53268 0.0
H1346 H 0.55537 -0.00426 0.57875 0.0
H1347 H 0.56614 0.01547 0.53692 0.0
H1348 H 0.53079 0.05631 0.55395 0.0
H1349 H 0.51961 0.03685 0.59574 0.0
H1350 H 0.49353 0.04791 0.56098 0.0
H1351 H 0.44547 0.95459 0.50634 0.0
H1352 H 0.43653 0.93366 0.5693 0.0
H1353 H 0.50684 0.98339 0.61609 0.0
C1354 C 0.52264 0.03392 0.47539 0.0
C1355 C 0.50978 0.03503 0.43917 0.0
C1356 C 0.48774 0.01543 0.42976 0.0
C1357 C 0.4777 -0.00442 0.4565 0.0
C1358 C 0.48995 -0.0043 0.49248 0.0
C1359 C 0.51215 0.01401 0.502 0.0
C1360 C 0.51983 0.011 0.5437 0.0
C1361 C 0.55047 -0.00039 0.54828 0.0
C1362 C 0.51568 0.03972 0.56483 0.0
C1363 C 0.49799 0.9887 0.55616 0.0
C1364 C 0.48115 0.98018 0.52594 0.0
C1365 C 0.45874 0.96074 0.53016 0.0
C1366 C 0.45371 0.94915 0.56615 0.0
C1367 C 0.47116 0.9568 0.59741 0.0
C1368 C 0.49338 0.9771 0.5925 0.0
H1369 H 0.29082 0.20102 0.81479 0.0
H1370 H 0.27399 0.27379 0.88889 0.0
H1371 H 0.23851 0.29234 0.84333 0.0
H1372 H 0.28749 0.23958 0.72861 0.0
H1373 H 0.26989 0.2116 0.70187 0.0
H1374 H 0.29226 0.20225 0.74161 0.0
H1375 H 0.25029 0.17433 0.77274 0.0
H1376 H 0.22773 0.18333 0.73299 0.0
H1377 H 0.21677 0.19248 0.78058 0.0
H1378 H 0.20776 0.30476 0.78924 0.0
H1379 H 0.18094 0.30965 0.72958 0.0
H1380 H 0.21722 0.22925 0.68888 0.0
C1381 C 0.27918 0.22052 0.82163 0.0
C1382 C 0.28492 0.23601 0.85525 0.0
C1383 C 0.26975 0.26167 0.86321 0.0
C1384 C 0.24962 0.27236 0.83756 0.0
C1385 C 0.24491 0.25706 0.80419 0.0
C1386 C 0.25901 0.23161 0.79615 0.0
C1387 C 0.25057 0.22015 0.75742 0.0
C1388 C 0.2766 0.2183 0.73082 0.0
C1389 C 0.23544 0.19082 0.76115 0.0
C1390 C 0.22998 0.24348 0.74477 0.0
C1391 C 0.22702 0.26442 0.77241 0.0
C1392 C 0.20972 0.28846 0.76741 0.0
C1393 C 0.19474 0.29112 0.73332 0.0
C1394 C 0.19705 0.26978 0.70475 0.0
C1395 C 0.21502 0.24574 0.71044 0.0
H1396 H 0.7158 0.28887 0.81771 0.0
H1397 H 0.72066 0.21334 0.89043 0.0
H1398 H 0.7555 0.19132 0.84647 0.0
H1399 H 0.71713 0.25118 0.73121 0.0
H1400 H 0.7393 0.2762 0.70513 0.0
H1401 H 0.71713 0.28904 0.74313 0.0
H1402 H 0.75891 0.31172 0.77596 0.0
H1403 H 0.78411 0.29946 0.74077 0.0
H1404 H 0.78904 0.29049 0.79031 0.0
H1405 H 0.78703 0.1764 0.79411 0.0
H1406 H 0.81402 0.16863 0.73512 0.0
H1407 H 0.78858 0.25325 0.69437 0.0
C1408 C 0.72464 0.26793 0.82461 0.0
C1409 C 0.71597 0.25281 0.85755 0.0
C1410 C 0.72733 0.22522 0.8654 0.0
C1411 C 0.74706 0.2126 0.84066 0.0
C1412 C 0.75497 0.22784 0.80816 0.0
C1413 C 0.74408 0.25482 0.79988 0.0
C1414 C 0.75523 0.26583 0.76203 0.0
C1415 C 0.73071 0.27079 0.73371 0.0
C1416 C 0.77292 0.29348 0.76753 0.0
C1417 C 0.77375 0.24058 0.75015 0.0
C1418 C 0.77333 0.21906 0.77742 0.0
C1419 C 0.78769 0.19311 0.7726 0.0
C1420 C 0.8028 0.18886 0.73887 0.0
C1421 C 0.80339 0.2104 0.71028 0.0
C1422 C 0.78876 0.23665 0.71604 0.0
H1423 H 0.78039 0.75356 0.35934 0.0
H1424 H 0.80547 0.66983 0.31566 0.0
H1425 H 0.78063 0.68021 0.25558 0.0
H1426 H 0.70972 0.75417 0.31762 0.0
H1427 H 0.71133 0.79256 0.30895 0.0
H1428 H 0.73145 0.7771 0.34726 0.0
H1429 H 0.77725 0.80139 0.31727 0.0
H1430 H 0.75517 0.81526 0.2795 0.0
H1431 H 0.78588 0.79367 0.26839 0.0
H1432 H 0.75249 0.69825 0.20165 0.0
H1433 H 0.71957 0.72219 0.15707 0.0
H1434 H 0.71196 0.79478 0.23407 0.0
C1435 C 0.78067 0.73755 0.33697 0.0
C1436 C 0.79487 0.71095 0.34198 0.0
C1437 C 0.79462 0.69031 0.31242 0.0
C1438 C 0.78078 0.69609 0.27808 0.0
C1439 C 0.76723 0.72259 0.27378 0.0
C1440 C 0.76687 0.743 0.30234 0.0
C1441 C 0.74942 0.76915 0.29072 0.0
C1442 C 0.72394 0.77342 0.31773 0.0
C1443 C 0.76808 0.79645 0.2889 0.0
C1444 C 0.73979 0.75998 0.25136 0.0
C1445 C 0.75063 0.73314 0.24221 0.0
C1446 C 0.74406 0.71938 0.20823 0.0
C1447 C 0.72542 0.73315 0.18309 0.0
C1448 C 0.71362 0.76037 0.19201 0.0
C1449 C 0.72124 0.77422 0.22629 0.0
H1450 H 0.49769 0.55824 0.56981 0.0
H1451 H 0.54336 0.49698 0.6398 0.0
H1452 H 0.53733 0.45981 0.58984 0.0
H1453 H 0.44461 0.50787 0.53331 0.0
H1454 H 0.44386 0.52404 0.4867 0.0
H1455 H 0.45169 0.54588 0.52757 0.0
H1456 H 0.49902 0.56263 0.49718 0.0
H1457 H 0.49172 0.54108 0.45579 0.0
H1458 H 0.52466 0.5362 0.48149 0.0
H1459 H 0.52667 0.43013 0.53265 0.0
H1460 H 0.51046 0.40866 0.47298 0.0
H1461 H 0.4697 0.48863 0.44063 0.0
C1462 C 0.50505 0.5367 0.5755 0.0
C1463 C 0.51966 0.52993 0.60929 0.0
C1464 C 0.53149 0.50218 0.61428 0.0
C1465 C 0.52822 0.48108 0.58612 0.0
C1466 C 0.51324 0.48837 0.55326 0.0
C1467 C 0.50166 0.51544 0.54788 0.0
C1468 C 0.4869 0.51789 0.50971 0.0
C1469 C 0.45487 0.52428 0.51466 0.0
C1470 C 0.50145 0.5408 0.48456 0.0
C1471 C 0.4918 0.48778 0.49451 0.0
C1472 C 0.50732 0.47131 0.51998 0.0
C1473 C 0.51471 0.4429 0.5124 0.0
C1474 C 0.50576 0.43091 0.47804 0.0
C1475 C 0.48962 0.44709 0.45169 0.0
C1476 C 0.48238 0.47589 0.46015 0.0
H1477 H -0.00948 0.51714 0.93606 0.0
H1478 H 0.06823 0.55269 0.98436 0.0
H1479 H 0.0565 0.53054 0.04611 0.0
H1480 H 0.94619 0.52544 1.0204 0.0
H1481 H 0.92743 0.49183 1.0137 0.0
H1482 H 0.94109 0.51134 0.9732 0.0
H1483 H 0.96953 0.46611 0.95194 0.0
H1484 H 0.95576 0.44643 0.99213 0.0
H1485 H -0.00622 0.44916 0.98489 0.0
H1486 H 0.03812 0.50331 0.10111 0.0
H1487 H 0.01503 0.46996 0.14639 0.0
H1488 H 0.94851 0.45188 0.06405 0.0
C1489 C 0.00498 0.52014 0.95974 0.0
C1490 C 0.03026 0.53652 0.95561 0.0
C1491 C 0.04886 0.54 0.98694 0.0
C1492 C 0.04227 0.52773 1.02218 0.0
C1493 C 0.0171 0.51189 0.02551 0.0
C1494 C -0.00118 0.5078 0.99519 0.0
C1495 C 0.97377 0.48875 1.00632 0.0
C1496 C 0.94544 0.50534 1.00323 0.0
C1497 C 0.9732 0.46098 0.9824 0.0
C1498 C 0.98117 0.48241 0.04742 0.0
C1499 C 0.00616 0.49626 0.05784 0.0
C1500 C 0.01838 0.4926 0.09353 0.0
C1501 C 0.00511 0.47371 0.11902 0.0
C1502 C 0.97988 0.45883 0.10875 0.0
C1503 C 0.9674 0.46364 0.07281 0.0
H1504 H 0.09683 0.1743 0.37476 0.0
H1505 H 0.12411 0.08622 0.39561 0.0
H1506 H 0.1435 0.10085 0.4579 0.0
H1507 H 0.15641 0.2097 0.41798 0.0
H1508 H 0.13533 0.23826 0.43847 0.0
H1509 H 0.12367 0.22093 0.39542 0.0
H1510 H 0.07508 0.20826 0.42698 0.0
H1511 H 0.08656 0.22599 0.46981 0.0
H1512 H 0.07473 0.189 0.47153 0.0
H1513 H 0.15944 0.12537 0.51927 0.0
H1514 H 0.16802 0.15714 0.57469 0.0
H1515 H 0.13084 0.22878 0.51237 0.0
C1516 C 0.10658 0.15797 0.39253 0.0
C1517 C 0.10902 0.12909 0.37997 0.0
C1518 C 0.12232 0.10857 0.40416 0.0
C1519 C 0.13335 0.11665 0.43972 0.0
C1520 C 0.13097 0.14537 0.45092 0.0
C1521 C 0.11772 0.16566 0.42809 0.0
C1522 C 0.11747 0.19501 0.44693 0.0
C1523 C 0.13423 0.21728 0.42329 0.0
C1524 C 0.08663 0.20515 0.45425 0.0
C1525 C 0.13272 0.1881 0.48378 0.0
C1526 C 0.14035 0.15939 0.48573 0.0
C1527 C 0.1537 0.14796 0.51791 0.0
C1528 C 0.15868 0.16621 0.54921 0.0
C1529 C 0.15039 0.19558 0.54804 0.0
C1530 C 0.13781 0.20656 0.51438 0.0
H1531 H 0.0474 0.85853 0.61835 0.0
H1532 H 0.13788 0.87065 0.64001 0.0
H1533 H 0.12652 0.89103 0.70314 0.0
H1534 H 0.02275 0.92397 0.66523 0.0
H1535 H -0.00888 0.90682 0.68397 0.0
H1536 H 0.0064 0.8945 0.63988 0.0
H1537 H 0.01012 0.84253 0.66701 0.0
H1538 H -0.00556 0.8547 0.71079 0.0
H1539 H 0.02855 0.83668 0.71132 0.0
H1540 H 0.10496 0.90803 0.76555 0.0
H1541 H 0.07546 0.91603 0.82295 0.0
H1542 H -0.0006 0.89451 0.75835 0.0
C1543 C 0.06484 0.86584 0.63611 0.0
C1544 C 0.09353 0.86308 0.62414 0.0
C1545 C 0.11574 0.87229 0.64869 0.0
C1546 C 0.10948 0.88419 0.68443 0.0
C1547 C 0.08092 0.88683 0.69517 0.0
C1548 C 0.05899 0.87774 0.67174 0.0
C1549 C 0.03018 0.88138 0.69061 0.0
C1550 C 0.01152 0.90296 0.66861 0.0
C1551 C 0.01495 0.85209 0.69522 0.0
C1552 C 0.03931 0.89354 0.72856 0.0
C1553 C 0.06861 0.89681 0.73067 0.0
C1554 C 0.08196 0.90589 0.76404 0.0
C1555 C 0.065 0.91061 0.79647 0.0
C1556 C 0.03508 0.90607 0.79522 0.0
C1557 C 0.02217 0.89848 0.76032 0.0
H1558 H 0.37306 0.76063 1.02255 0.0
H1559 H 0.32106 0.82965 0.06906 0.0
H1560 H 0.32817 0.85766 1.00984 0.0
H1561 H 0.42448 0.80564 0.97856 0.0
H1562 H 0.42936 0.78272 0.93774 0.0
H1563 H 0.41864 0.7673 0.98256 0.0
H1564 H 0.37417 0.74439 0.951 0.0
H1565 H 0.38487 0.75934 0.90591 0.0
H1566 H 0.34981 0.7669 0.92465 0.0
H1567 H 0.34282 0.87891 0.9464 0.0
H1568 H 0.36197 0.89103 0.88299 0.0
H1569 H 0.40477 0.80809 0.87848 0.0
C1570 C 0.36271 0.78144 1.02025 0.0
C1571 C 0.34627 0.79282 0.05055 0.0
C1572 C 0.33354 0.82034 0.04625 0.0
C1573 C 0.33757 0.83646 1.01275 0.0
C1574 C 0.35444 0.8248 0.98387 0.0
C1575 C 0.36667 0.79784 0.98726 0.0
C1576 C 0.38456 0.79048 0.95265 0.0
C1577 C 0.41613 0.7863 0.96354 0.0
C1578 C 0.37263 0.7637 0.93235 0.0
C1579 C 0.38047 0.81753 0.92906 0.0
C1580 C 0.36305 0.83706 0.9476 0.0
C1581 C 0.35629 0.86367 0.93155 0.0
C1582 C 0.36721 0.87032 0.89542 0.0
C1583 C 0.38475 0.85047 0.87551 0.0
C1584 C 0.39164 0.82385 0.89296 0.0
H1585 H 0.47129 0.12494 0.27196 0.0
H1586 H 0.40511 0.06907 0.318 0.0
H1587 H 0.37725 0.07572 0.25831 0.0
H1588 H 0.42454 0.17537 0.22926 0.0
H1589 H 0.44813 0.18205 0.18968 0.0
H1590 H 0.46261 0.17153 0.23499 0.0
H1591 H 0.48856 0.12844 0.20343 0.0
H1592 H 0.47434 0.13879 0.15793 0.0
H1593 H 0.46831 0.10283 0.17587 0.0
H1594 H 0.357 0.08982 0.19175 0.0
H1595 H 0.34683 0.10883 0.12736 0.0
H1596 H 0.42648 0.15681 0.12969 0.0
C1597 C 0.45107 0.11367 0.26989 0.0
C1598 C 0.44057 0.09614 0.29987 0.0
C1599 C 0.41375 0.08237 0.29542 0.0
C1600 C 0.39779 0.08615 0.26166 0.0
C1601 C 0.40889 0.10395 0.23296 0.0
C1602 C 0.43497 0.11747 0.23711 0.0
C1603 C 0.44234 0.13625 0.20333 0.0
C1604 C 0.44452 0.16818 0.21502 0.0
C1605 C 0.47002 0.12594 0.18401 0.0
C1606 C 0.41653 0.1309 0.17866 0.0
C1607 C 0.39732 0.11235 0.19605 0.0
C1608 C 0.37193 0.1044 0.17812 0.0
C1609 C 0.36625 0.11547 0.14158 0.0
C1610 C 0.38588 0.13431 0.12323 0.0
C1611 C 0.41119 0.14215 0.14247 0.0
H1612 H 0.86155 0.74251 0.53727 0.0
H1613 H 0.83044 0.81607 0.47295 0.0
H1614 H 0.83925 0.84747 0.52859 0.0
H1615 H 0.83395 0.76383 0.63003 0.0
H1616 H 0.86506 0.75046 0.65453 0.0
H1617 H 0.8537 0.7338 0.61087 0.0
H1618 H 0.90401 0.74245 0.58229 0.0
H1619 H 0.91546 0.75956 0.62555 0.0
H1620 H 0.91843 0.77852 0.58095 0.0
H1621 H 0.85472 0.87125 0.59047 0.0
H1622 H 0.87334 0.88499 0.6536 0.0
H1623 H 0.89483 0.79553 0.67613 0.0
C1624 C 0.85598 0.76511 0.53489 0.0
C1625 C 0.84507 0.77674 0.50062 0.0
C1626 C 0.83854 0.80655 0.4989 0.0
C1627 C 0.84361 0.82458 0.53034 0.0
C1628 C 0.85524 0.81246 0.56323 0.0
C1629 C 0.86111 0.78334 0.56571 0.0
C1630 C 0.87474 0.7757 0.60343 0.0
C1631 C 0.85572 0.75471 0.62605 0.0
C1632 C 0.90495 0.76334 0.59769 0.0
C1633 C 0.87579 0.80513 0.6219 0.0
C1634 C 0.8644 0.82607 0.59836 0.0
C1635 C 0.86344 0.85496 0.60921 0.0
C1636 C 0.87402 0.86254 0.64519 0.0
C1637 C 0.88552 0.84136 0.66998 0.0
C1638 C 0.8865 0.81232 0.65782 0.0
H1639 H 0.93186 0.13592 0.42334 0.0
H1640 H 0.84776 0.09787 0.40955 0.0
H1641 H 0.86154 0.08046 0.3457 0.0
H1642 H 0.94029 0.15975 0.32592 0.0
H1643 H 0.97799 0.15183 0.32503 0.0
H1644 H 0.96094 0.16154 0.36907 0.0
H1645 H 0.97952 0.1142 0.39972 0.0
H1646 H -0.00367 0.10431 0.3556 0.0
H1647 H 0.97116 0.08009 0.37782 0.0
H1648 H 0.88507 0.06742 0.28228 0.0
H1649 H 0.91602 0.06071 0.22567 0.0
H1650 H 0.9843 0.10665 0.28327 0.0
C1651 C 0.91618 0.12426 0.40674 0.0
C1652 C 0.88871 0.1183 0.42147 0.0
C1653 C 0.86903 0.10249 0.39899 0.0
C1654 C 0.87663 0.09258 0.36265 0.0
C1655 C 0.90403 0.09857 0.34918 0.0
C1656 C 0.92344 0.11412 0.37058 0.0
C1657 C 0.9516 0.11754 0.34994 0.0
C1658 C 0.95807 0.14956 0.34202 0.0
C1659 C 0.97609 0.10317 0.3721 0.0
C1660 C 0.94506 0.10141 0.31366 0.0
C1661 C 0.91754 0.09068 0.31347 0.0
C1662 C 0.90673 0.07563 0.28224 0.0
C1663 C 0.92446 0.07183 0.25026 0.0
C1664 C 0.95269 0.08289 0.24997 0.0
C1665 C 0.96297 0.09757 0.28242 0.0
H1666 H 0.62315 0.2434 0.03064 0.0
H1667 H 0.65205 0.1638 0.9783 0.0
H1668 H 0.63738 0.13685 0.03581 0.0
H1669 H 0.6447 0.22627 0.12718 0.0
H1670 H 0.61378 0.24323 0.14796 0.0
H1671 H 0.62784 0.25627 0.10347 0.0
H1672 H 0.57833 0.24931 0.07231 0.0
H1673 H 0.56407 0.23607 0.11656 0.0
H1674 H 0.56125 0.21444 0.0742 0.0
H1675 H 0.61703 0.11829 0.09757 0.0
H1676 H 0.59592 0.10978 0.16091 0.0
H1677 H 0.58024 0.20158 0.17282 0.0
C1678 C 0.62682 0.22034 0.03133 0.0
C1679 C 0.63889 0.20573 0.99985 0.0
C1680 C 0.64307 0.17552 1.00205 0.0
C1681 C 0.63466 0.16001 0.03455 0.0
C1682 C 0.62221 0.17503 0.06463 0.0
C1683 C 0.61857 0.20458 0.06345 0.0
C1684 C 0.60418 0.21556 0.09923 0.0
C1685 C 0.62381 0.23656 0.12073 0.0
C1686 C 0.57524 0.22966 0.09 0.0
C1687 C 0.60027 0.18751 0.12085 0.0
C1688 C 0.61065 0.16439 0.10026 0.0
C1689 C 0.60893 0.13623 0.11398 0.0
C1690 C 0.59667 0.13159 0.14987 0.0
C1691 C 0.58634 0.15498 0.17183 0.0
C1692 C 0.58813 0.18329 0.15688 0.0
H1693 H 0.50565 0.88402 0.79012 0.0
H1694 H 0.57515 0.93261 0.73885 0.0
H1695 H 0.60387 0.92533 0.79719 0.0
H1696 H 0.51539 0.90848 0.88756 0.0
H1697 H 0.50688 0.87363 0.90743 0.0
H1698 H 0.49128 0.8846 0.86292 0.0
H1699 H 0.51099 0.83859 0.83095 0.0
H1700 H 0.5269 0.82744 0.87515 0.0
H1701 H 0.54873 0.831 0.83317 0.0
H1702 H 0.62588 0.91036 0.86058 0.0
H1703 H 0.63897 0.89026 0.92309 0.0
H1704 H 0.55537 0.85005 0.93183 0.0
C1705 C 0.5267 0.8937 0.79118 0.0
C1706 C 0.53794 0.90925 0.75969 0.0
C1707 C 0.56585 0.92093 0.76251 0.0
C1708 C 0.58237 0.91679 0.79557 0.0
C1709 C 0.57078 0.90084 0.82565 0.0
C1710 C 0.54349 0.8896 0.82373 0.0
C1711 C 0.53634 0.87215 0.85909 0.0
C1712 C 0.51097 0.88553 0.88052 0.0
C1713 C 0.5304 0.84042 0.84897 0.0
C1714 C 0.56391 0.87525 0.88141 0.0
C1715 C 0.58349 0.8919 0.86163 0.0
C1716 C 0.61065 0.89733 0.8762 0.0
C1717 C 0.61798 0.88555 0.91174 0.0
C1718 C 0.59835 0.86831 0.93267 0.0
C1719 C 0.57087 0.86331 0.91702 0.0
H1720 H 0.58892 0.68232 0.88284 0.0
H1721 H 0.62793 0.59846 0.9008 0.0
H1722 H 0.64476 0.61415 0.96375 0.0
H1723 H 0.64309 0.72435 0.92783 0.0
H1724 H 0.6187 0.74947 0.94956 0.0
H1725 H 0.60906 0.73173 0.90592 0.0
H1726 H 0.56272 0.71226 0.93723 0.0
H1727 H 0.5721 0.7302 0.98085 0.0
H1728 H 0.56504 0.69197 0.98086 0.0
H1729 H 0.65835 0.63898 1.02423 0.0
H1730 H 0.66571 0.67062 0.07963 0.0
H1731 H 0.61743 0.73834 1.02346 0.0
C1732 C 0.6007 0.66714 0.90019 0.0
C1733 C 0.60733 0.6392 0.88653 0.0
C1734 C 0.62303 0.62014 0.91016 0.0
C1735 C 0.63259 0.6288 0.94611 0.0
C1736 C 0.62619 0.65659 0.95835 0.0
C1737 C 0.61041 0.67543 0.93632 0.0
C1738 C 0.60651 0.70412 0.95643 0.0
C1739 C 0.62016 0.72887 0.93356 0.0
C1740 C 0.57471 0.70997 0.96431 0.0
C1741 C 0.62277 0.69846 0.99298 0.0
C1742 C 0.63393 0.6709 0.99347 0.0
C1743 C 0.64968 0.66061 1.02422 0.0
C1744 C 0.65382 0.67881 0.05556 0.0
C1745 C 0.64228 0.70706 0.05602 0.0
C1746 C 0.62674 0.71697 1.02402 0.0
H1747 H 0.56528 0.39758 0.2839 0.0
H1748 H 0.49139 0.34082 0.27941 0.0
H1749 H 0.50895 0.31958 0.22051 0.0
H1750 H 0.56491 0.4127 0.18424 0.0
H1751 H 0.6032 0.41391 0.17876 0.0
H1752 H 0.58721 0.42278 0.22381 0.0
H1753 H 0.61827 0.38388 0.25671 0.0
H1754 H 0.63426 0.37483 0.21167 0.0
H1755 H 0.61714 0.34722 0.23977 0.0
H1756 H 0.53209 0.30516 0.1617 0.0
H1757 H 0.55805 0.30149 0.10117 0.0
H1758 H 0.61588 0.36941 0.13751 0.0
C1759 C 0.55312 0.38047 0.2706 0.0
C1760 C 0.52708 0.3707 0.28663 0.0
C1761 C 0.51144 0.34864 0.26799 0.0
C1762 C 0.52129 0.33624 0.23444 0.0
C1763 C 0.54669 0.34638 0.21908 0.0
C1764 C 0.56233 0.36821 0.23598 0.0
C1765 C 0.58754 0.37655 0.21085 0.0
C1766 C 0.58558 0.40838 0.19869 0.0
C1767 C 0.61599 0.37024 0.23096 0.0
C1768 C 0.58303 0.35638 0.17724 0.0
C1769 C 0.55961 0.33884 0.18325 0.0
C1770 C 0.55046 0.31881 0.15647 0.0
C1771 C 0.56522 0.31703 0.12205 0.0
C1772 C 0.58871 0.33542 0.11432 0.0
C1773 C 0.59808 0.35498 0.14269 0.0
H1774 H 0.89825 0.29851 0.36746 0.0
H1775 H 0.85774 0.38171 0.38444 0.0
H1776 H 0.83959 0.36533 0.44661 0.0
H1777 H 0.8435 0.25515 0.41093 0.0
H1778 H 0.86807 0.23045 0.4332 0.0
H1779 H 0.87793 0.24846 0.38971 0.0
H1780 H 0.92353 0.26871 0.42192 0.0
H1781 H 0.9139 0.25043 0.46529 0.0
H1782 H 0.92026 0.28879 0.46553 0.0
H1783 H 0.82621 0.34024 0.50769 0.0
H1784 H 0.82075 0.30895 0.56422 0.0
H1785 H 0.86955 0.242 0.50755 0.0
C1786 C 0.88578 0.31338 0.38437 0.0
C1787 C 0.87923 0.34137 0.37068 0.0
C1788 C 0.86263 0.36 0.3938 0.0
C1789 C 0.85228 0.35093 0.4293 0.0
C1790 C 0.85867 0.32311 0.44159 0.0
C1791 C 0.87521 0.30465 0.41999 0.0
C1792 C 0.87933 0.276 0.4402 0.0
C1793 C 0.86643 0.25105 0.41713 0.0
C1794 C 0.91114 0.27068 0.44874 0.0
C1795 C 0.8625 0.28128 0.4764 0.0
C1796 C 0.85075 0.30858 0.47666 0.0
C1797 C 0.83517 0.31873 0.5077 0.0
C1798 C 0.83207 0.30075 0.53966 0.0
C1799 C 0.84436 0.27285 0.54034 0.0
C1800 C 0.85935 0.26296 0.50785 0.0
H1801 H -0.00279 0.60756 0.76071 0.0
H1802 H 0.92906 0.56411 0.8222 0.0
H1803 H 0.89727 0.57032 0.76658 0.0
H1804 H 0.95376 0.66067 0.71898 0.0
H1805 H 0.97321 0.6618 0.67477 0.0
H1806 H -0.00878 0.65165 0.71793 0.0
H1807 H 0.00733 0.60365 0.68718 0.0
H1808 H -0.01038 0.61368 0.64371 0.0
H1809 H 0.98097 0.57996 0.66662 0.0
H1810 H 0.87232 0.58366 0.70484 0.0
H1811 H 0.85674 0.60156 0.64206 0.0
H1812 H 0.94111 0.6379 0.62296 0.0
C1813 C 0.9758 0.59876 0.76242 0.0
C1814 C 0.96575 0.58504 0.79584 0.0
C1815 C 0.93734 0.57446 0.79687 0.0
C1816 C 0.91911 0.57797 0.76543 0.0
C1817 C 0.92959 0.59221 0.73331 0.0
C1818 C 0.95733 0.60232 0.73161 0.0
C1819 C 0.96312 0.61812 0.69469 0.0
C1820 C 0.97077 0.64994 0.70205 0.0
C1821 C 0.98665 0.60293 0.6717 0.0
C1822 C 0.93428 0.61531 0.67566 0.0
C1823 C 0.9152 0.6003 0.69833 0.0
C1824 C 0.88712 0.59539 0.68688 0.0
C1825 C 0.8784 0.60588 0.65127 0.0
C1826 C 0.89765 0.6212 0.62745 0.0
C1827 C 0.92593 0.62596 0.64013 0.0
H1828 H 0.39778 0.36485 0.14539 0.0
H1829 H 0.33477 0.3207 0.21507 0.0
H1830 H 0.3142 0.29841 0.1577 0.0
H1831 H 0.35091 0.37905 0.06411 0.0
H1832 H 0.37863 0.37253 0.02958 0.0
H1833 H 0.38771 0.38627 0.07591 0.0
H1834 H 0.42257 0.34356 0.0861 0.0
H1835 H 0.41372 0.32984 0.03977 0.0
H1836 H 0.40961 0.30713 0.08103 0.0
H1837 H 0.30279 0.27781 0.09366 0.0
H1838 H 0.30168 0.26043 0.02713 0.0
H1839 H 0.37008 0.31949 0.99805 0.0
C1840 C 0.37938 0.35085 0.14852 0.0
C1841 C 0.36798 0.34449 0.18489 0.0
C1842 C 0.34418 0.32562 0.18769 0.0
C1843 C 0.33217 0.31303 0.15519 0.0
C1844 C 0.34402 0.31957 0.11988 0.0
C1845 C 0.36708 0.33805 0.11628 0.0
C1846 C 0.37655 0.34037 0.07511 0.0
C1847 C 0.37324 0.3714 0.06031 0.0
C1848 C 0.40743 0.32958 0.07023 0.0
C1849 C 0.35535 0.32016 0.05624 0.0
C1850 C 0.33675 0.3084 0.08262 0.0
C1851 C 0.31678 0.28736 0.0726 0.0
C1852 C 0.31616 0.27771 0.03481 0.0
C1853 C 0.33501 0.28946 1.00747 0.0
C1854 C 0.35459 0.31116 1.01821 0.0
H1855 H 0.4479 0.64107 0.94232 0.0
H1856 H 0.35718 0.64692 0.91815 0.0
H1857 H 0.36604 0.62981 0.85276 0.0
H1858 H 0.47203 0.66559 0.85124 0.0
H1859 H 0.50224 0.64157 0.84955 0.0
H1860 H 0.48875 0.65373 0.89467 0.0
H1861 H 0.48247 0.60074 0.91657 0.0
H1862 H 0.49602 0.58839 0.87152 0.0
H1863 H 0.46156 0.57627 0.88811 0.0
H1864 H 0.38512 0.61234 0.78909 0.0
H1865 H 0.41312 0.59896 0.73213 0.0
H1866 H 0.49107 0.60376 0.79872 0.0
C1867 C 0.42984 0.63854 0.92341 0.0
C1868 C 0.4018 0.64539 0.93556 0.0
C1869 C 0.37889 0.6422 0.90953 0.0
C1870 C 0.38368 0.63223 0.87236 0.0
C1871 C 0.41153 0.62551 0.86144 0.0
C1872 C 0.43425 0.6287 0.88617 0.0
C1873 C 0.46223 0.62084 0.86708 0.0
C1874 C 0.4825 0.64699 0.86555 0.0
C1875 C 0.47639 0.59502 0.88702 0.0
C1876 C 0.45172 0.61274 0.82778 0.0
C1877 C 0.42242 0.61544 0.82504 0.0
C1878 C 0.40808 0.61001 0.79102 0.0
C1879 C 0.42417 0.60227 0.75879 0.0
C1880 C 0.45435 0.60005 0.76072 0.0
C1881 C 0.46804 0.60489 0.79607 0.0
H1882 H 0.13493 0.73561 0.53705 0.0
H1883 H 0.17507 0.66661 0.47308 0.0
H1884 H 0.1698 0.63424 0.52871 0.0
H1885 H 0.1642 0.71754 0.63026 0.0
H1886 H 0.13149 0.72689 0.65434 0.0
H1887 H 0.14115 0.74498 0.61084 0.0
H1888 H 0.09251 0.73034 0.58161 0.0
H1889 H 0.08281 0.71175 0.6247 0.0
H1890 H 0.08256 0.69278 0.58004 0.0
H1891 H 0.15667 0.6085 0.59023 0.0
H1892 H 0.13908 0.59221 0.65288 0.0
H1893 H 0.10707 0.67834 0.67553 0.0
C1894 C 0.14325 0.7139 0.53476 0.0
C1895 C 0.15565 0.70377 0.50057 0.0
C1896 C 0.16577 0.67501 0.49897 0.0
C1897 C 0.16273 0.65642 0.5304 0.0
C1898 C 0.14952 0.66692 0.56317 0.0
C1899 C 0.14017 0.6951 0.56558 0.0
C1900 C 0.12538 0.70085 0.60313 0.0
C1901 C 0.14153 0.72393 0.62599 0.0
C1902 C 0.09396 0.70943 0.59698 0.0
C1903 C 0.12771 0.67143 0.6216 0.0
C1904 C 0.14174 0.65216 0.59816 0.0
C1905 C 0.14595 0.62353 0.60891 0.0
C1906 C 0.13593 0.6145 0.64465 0.0
C1907 C 0.12178 0.63399 0.66937 0.0
C1908 C 0.11755 0.66279 0.65732 0.0
H1909 H -0.00085 0.38217 0.28681 0.0
H1910 H 0.0761 0.39981 0.22168 0.0
H1911 H 0.10541 0.38811 0.27809 0.0
H1912 H 0.02508 0.41013 0.3781 0.0
H1913 H 0.00687 0.38235 0.40466 0.0
H1914 H -0.00771 0.39485 0.36024 0.0
H1915 H -0.00806 0.3424 0.33513 0.0
H1916 H 0.00691 0.32969 0.37914 0.0
H1917 H 0.02468 0.32194 0.33487 0.0
H1918 H 0.12619 0.36992 0.34006 0.0
H1919 H 0.13676 0.35105 0.4043 0.0
H1920 H 0.0459 0.34515 0.42783 0.0
C1921 C 0.02216 0.38417 0.28449 0.0
C1922 C 0.03535 0.39199 0.24982 0.0
C1923 C 0.06551 0.39416 0.24804 0.0
C1924 C 0.08233 0.38739 0.27987 0.0
C1925 C 0.06859 0.37875 0.31322 0.0
C1926 C 0.03916 0.37756 0.31585 0.0
C1927 C 0.02954 0.36664 0.35434 0.0
C1928 C 0.01244 0.38989 0.37559 0.0
C1929 C 0.01226 0.3385 0.35062 0.0
C1930 C 0.0582 0.36138 0.37287 0.0
C1931 C 0.08048 0.36847 0.34875 0.0
C1932 C 0.10891 0.36456 0.35929 0.0
C1933 C 0.1147 0.35359 0.39567 0.0
C1934 C 0.09215 0.3467 0.42104 0.0
C1935 C 0.06358 0.35056 0.40924 0.0
loop_
_geom_bond_atom_site_label_1
_geom_bond_atom_site_label_2
_geom_bond_distance
_geom_bond_site_symmetry_2
_ccdc_geom_bond_type
Nd0 C2 2.836 . S
Nd0 O20 2.500 . S
Nd0 O21 2.492 . S
Nd0 O22 2.487 . S
Nd0 O23 2.682 1_655 S
Nd0 O24 2.410 1_655 S
Nd0 O29 2.414 . S
Nd0 O31 2.424 . S
Nd1 C11 2.836 . S
Nd1 O23 2.414 . S
Nd1 O25 2.424 . S
Nd1 O26 2.500 . S
Nd1 O27 2.492 . S
Nd1 O28 2.487 . S
Nd1 O29 2.682 1_455 S
Nd1 O30 2.410 1_455 S
C2 Nd0 2.836 . S
C2 C3 1.498 1_554 S
C2 O20 1.258 . S
C2 O21 1.239 . S
C3 C2 1.498 1_556 S
C3 C4 1.366 . S
C3 C8 1.407 . S
C4 C3 1.366 . S
C4 C5 1.392 . S
C4 H32 0.930 . S
C5 C4 1.392 . S
C5 C6 1.398 . S
C5 H33 0.929 . S
C6 C5 1.398 . S
C6 C7 1.352 . S
C7 C6 1.352 . S
C7 C8 1.384 . S
C7 H34 0.930 . S
C8 C3 1.407 . S
C8 C7 1.384 . S
C8 H35 0.929 . S
C9 O22 1.241 . S
C9 O23 1.273 1_655 S
C10 O24 1.251 . S
C10 O25 1.268 . S
C11 Nd1 2.836 . S
C11 C12 1.498 . S
C11 O26 1.258 . S
C11 O27 1.239 . S
C12 C11 1.498 . S
C12 C13 1.366 . S
C12 C17 1.407 . S
C13 C12 1.366 . S
C13 C14 1.392 . S
C13 H36 0.930 . S
C14 C13 1.392 . S
C14 C15 1.398 . S
C14 H37 0.929 . S
C15 C14 1.398 . S
C15 C16 1.352 . S
C16 C15 1.352 . S
C16 C17 1.384 . S
C16 H38 0.930 . S
C17 C12 1.407 . S
C17 C16 1.384 . S
C17 H39 0.929 . S
C18 O28 1.241 . S
C18 O29 1.273 1_455 S
C19 O30 1.251 . S
C19 O31 1.268 . S
O20 Nd0 2.500 . S
O20 C2 1.258 . S
O21 Nd0 2.492 . S
O21 C2 1.239 . S
O22 Nd0 2.487 . S
O22 C9 1.241 . S
O23 Nd0 2.682 1_455 S
O23 Nd1 2.414 . S
O23 C9 1.273 1_455 S
O24 Nd0 2.410 1_455 S
O24 C10 1.251 . S
O25 Nd1 2.424 . S
O25 C10 1.268 . S
O26 Nd1 2.500 . S
O26 C11 1.258 . S
O27 Nd1 2.492 . S
O27 C11 1.239 . S
O28 Nd1 2.487 . S
O28 C18 1.241 . S
O29 Nd0 2.414 . S
O29 Nd1 2.682 1_655 S
O29 C18 1.273 1_655 S
O30 Nd1 2.410 1_655 S
O30 C19 1.251 . S
O31 Nd0 2.424 . S
O31 C19 1.268 . S
H32 C4 0.930 . S
H33 C5 0.929 . S
H34 C7 0.930 . S
H35 C8 0.929 . S
H36 C13 0.930 . S
H37 C14 0.929 . S
H38 C16 0.930 . S
H39 C17 0.929 . S
Nd40 C42 2.836 . S
Nd40 O60 2.500 . S
Nd40 O61 2.492 . S
Nd40 O62 2.487 . S
Nd40 O63 2.682 . S
Nd40 O64 2.410 . S
Nd40 O69 2.414 . S
Nd40 O71 2.424 . S
Nd41 C51 2.836 . S
Nd41 O63 2.414 . S
Nd41 O65 2.424 . S
Nd41 O66 2.500 . S
Nd41 O67 2.492 . S
Nd41 O68 2.487 . S
Nd41 O69 2.682 . S
Nd41 O70 2.410 . S
C42 Nd40 2.836 . S
C42 C43 1.498 . S
C42 O60 1.258 . S
C42 O61 1.239 . S
C43 C42 1.498 . S
C43 C44 1.366 . S
C43 C48 1.407 . S
C44 C43 1.366 . S
C44 C45 1.392 . S
C44 H72 0.930 . S
C45 C44 1.392 . S
C45 C46 1.398 . S
C45 H73 0.929 . S
C46 C45 1.398 . S
C46 C47 1.352 . S
C47 C46 1.352 . S
C47 C48 1.384 . S
C47 H74 0.930 . S
C48 C43 1.407 . S
C48 C47 1.384 . S
C48 H75 0.929 . S
C49 O62 1.241 . S
C49 O63 1.273 . S
C50 O64 1.251 . S
C50 O65 1.268 . S
C51 Nd41 2.836 . S
C51 C52 1.498 . S
C51 O66 1.258 . S
C51 O67 1.239 . S
C52 C51 1.498 . S
C52 C53 1.366 . S
C52 C57 1.407 . S
C53 C52 1.366 . S
C53 C54 1.392 . S
C53 H76 0.930 . S
C54 C53 1.392 . S
C54 C55 1.398 . S
C54 H77 0.929 . S
C55 C54 1.398 . S
C55 C56 1.352 . S
C56 C55 1.352 . S
C56 C57 1.384 . S
C56 H78 0.930 . S
C57 C52 1.407 . S
C57 C56 1.384 . S
C57 H79 0.929 . S
C58 O68 1.241 . S
C58 O69 1.273 . S
C59 O70 1.251 . S
C59 O71 1.268 . S
O60 Nd40 2.500 . S
O60 C42 1.258 . S
O61 Nd40 2.492 . S
O61 C42 1.239 . S
O62 Nd40 2.487 . S
O62 C49 1.241 . S
O63 Nd40 2.682 . S
O63 Nd41 2.414 . S
O63 C49 1.273 . S
O64 Nd40 2.410 . S
O64 C50 1.251 . S
O65 Nd41 2.424 . S
O65 C50 1.268 . S
O66 Nd41 2.500 . S
O66 C51 1.258 . S
O67 Nd41 2.492 . S
O67 C51 1.239 . S
O68 Nd41 2.487 . S
O68 C58 1.241 . S
O69 Nd40 2.414 . S
O69 Nd41 2.682 . S
O69 C58 1.273 . S
O70 Nd41 2.410 . S
O70 C59 1.251 . S
O71 Nd40 2.424 . S
O71 C59 1.268 . S
H72 C44 0.930 . S
H73 C45 0.929 . S
H74 C47 0.930 . S
H75 C48 0.929 . S
H76 C53 0.930 . S
H77 C54 0.929 . S
H78 C56 0.930 . S
H79 C57 0.929 . S
Nd80 C82 2.836 . S
Nd80 O100 2.500 . S
Nd80 O101 2.492 . S
Nd80 O102 2.487 . S
Nd80 O103 2.682 . S
Nd80 O104 2.410 . S
Nd80 O109 2.414 . S
Nd80 O111 2.424 . S
Nd81 C91 2.836 . S
Nd81 O103 2.414 . S
Nd81 O105 2.424 . S
Nd81 O106 2.500 . S
Nd81 O107 2.492 . S
Nd81 O108 2.487 . S
Nd81 O109 2.682 . S
Nd81 O110 2.410 . S
C82 Nd80 2.836 . S
C82 C83 1.498 . S
C82 O100 1.258 . S
C82 O101 1.239 . S
C83 C82 1.498 . S
C83 C84 1.366 . S
C83 C88 1.407 . S
C84 C83 1.366 . S
C84 C85 1.392 . S
C84 H112 0.930 . S
C85 C84 1.392 . S
C85 C86 1.398 . S
C85 H113 0.929 . S
C86 C85 1.398 . S
C86 C87 1.352 . S
C87 C86 1.352 . S
C87 C88 1.384 . S
C87 H114 0.930 . S
C88 C83 1.407 . S
C88 C87 1.384 . S
C88 H115 0.929 . S
C89 O102 1.241 . S
C89 O103 1.273 . S
C90 O104 1.251 . S
C90 O105 1.268 . S
C91 Nd81 2.836 . S
C91 C92 1.498 . S
C91 O106 1.258 . S
C91 O107 1.239 . S
C92 C91 1.498 . S
C92 C93 1.366 . S
C92 C97 1.407 . S
C93 C92 1.366 . S
C93 C94 1.392 . S
C93 H116 0.930 . S
C94 C93 1.392 . S
C94 C95 1.398 . S
C94 H117 0.929 . S
C95 C94 1.398 . S
C95 C96 1.352 . S
C96 C95 1.352 . S
C96 C97 1.384 . S
C96 H118 0.930 . S
C97 C92 1.407 . S
C97 C96 1.384 . S
C97 H119 0.929 . S
C98 O108 1.241 . S
C98 O109 1.273 . S
C99 O110 1.251 . S
C99 O111 1.268 . S
O100 Nd80 2.500 . S
O100 C82 1.258 . S
O101 Nd80 2.492 . S
O101 C82 1.239 . S
O102 Nd80 2.487 . S
O102 C89 1.241 . S
O103 Nd80 2.682 . S
O103 Nd81 2.414 . S
O103 C89 1.273 . S
O104 Nd80 2.410 . S
O104 C90 1.251 . S
O105 Nd81 2.424 . S
O105 C90 1.268 . S
O106 Nd81 2.500 . S
O106 C91 1.258 . S
O107 Nd81 2.492 . S
O107 C91 1.239 . S
O108 Nd81 2.487 . S
O108 C98 1.241 . S
O109 Nd80 2.414 . S
O109 Nd81 2.682 . S
O109 C98 1.273 . S
O110 Nd81 2.410 . S
O110 C99 1.251 . S
O111 Nd80 2.424 . S
O111 C99 1.268 . S
H112 C84 0.930 . S
H113 C85 0.929 . S
H114 C87 0.930 . S
H115 C88 0.929 . S
H116 C93 0.930 . S
H117 C94 0.929 . S
H118 C96 0.930 . S
H119 C97 0.929 . S
Nd120 C122 2.836 . S
Nd120 O140 2.500 . S
Nd120 O141 2.492 . S
Nd120 O142 2.487 . S
Nd120 O143 2.682 . S
Nd120 O144 2.410 . S
Nd120 O149 2.414 . S
Nd120 O151 2.424 . S
Nd121 C131 2.836 . S
Nd121 O143 2.414 . S
Nd121 O145 2.424 . S
Nd121 O146 2.500 . S
Nd121 O147 2.492 . S
Nd121 O148 2.487 . S
Nd121 O149 2.682 . S
Nd121 O150 2.410 . S
C122 Nd120 2.836 . S
C122 C123 1.498 . S
C122 O140 1.258 . S
C122 O141 1.239 . S
C123 C122 1.498 . S
C123 C124 1.366 . S
C123 C128 1.407 . S
C124 C123 1.366 . S
C124 C125 1.392 . S
C124 H152 0.930 . S
C125 C124 1.392 . S
C125 C126 1.398 . S
C125 H153 0.929 . S
C126 C125 1.398 . S
C126 C127 1.352 . S
C127 C126 1.352 . S
C127 C128 1.384 . S
C127 H154 0.930 . S
C128 C123 1.407 . S
C128 C127 1.384 . S
C128 H155 0.929 . S
C129 O142 1.241 . S
C129 O143 1.273 . S
C130 O144 1.251 . S
C130 O145 1.268 . S
C131 Nd121 2.836 . S
C131 C132 1.498 1_556 S
C131 O146 1.258 . S
C131 O147 1.239 . S
C132 C131 1.498 1_554 S
C132 C133 1.366 . S
C132 C137 1.407 . S
C133 C132 1.366 . S
C133 C134 1.392 . S
C133 H156 0.930 . S
C134 C133 1.392 . S
C134 C135 1.398 . S
C134 H157 0.929 . S
C135 C134 1.398 . S
C135 C136 1.352 . S
C136 C135 1.352 . S
C136 C137 1.384 . S
C136 H158 0.930 . S
C137 C132 1.407 . S
C137 C136 1.384 . S
C137 H159 0.919 1_554 S
C138 O148 1.241 . S
C138 O149 1.273 . S
C139 O150 1.251 . S
C139 O151 1.268 . S
O140 Nd120 2.500 . S
O140 C122 1.258 . S
O141 Nd120 2.492 . S
O141 C122 1.239 . S
O142 Nd120 2.487 . S
O142 C129 1.241 . S
O143 Nd120 2.682 . S
O143 Nd121 2.414 . S
O143 C129 1.273 . S
O144 Nd120 2.410 . S
O144 C130 1.251 . S
O145 Nd121 2.424 . S
O145 C130 1.268 . S
O146 Nd121 2.500 . S
O146 C131 1.258 . S
O147 Nd121 2.492 . S
O147 C131 1.239 . S
O148 Nd121 2.487 . S
O148 C138 1.241 . S
O149 Nd120 2.414 . S
O149 Nd121 2.682 . S
O149 C138 1.273 . S
O150 Nd121 2.410 . S
O150 C139 1.251 . S
O151 Nd120 2.424 . S
O151 C139 1.268 . S
H152 C124 0.930 . S
H153 C125 0.929 . S
H154 C127 0.930 . S
H155 C128 0.929 . S
H156 C133 0.930 . S
H157 C134 0.929 . S
H158 C136 0.930 . S
H159 C137 0.919 1_556 S
Nd160 C162 2.836 . S
Nd160 O180 2.500 . S
Nd160 O181 2.492 . S
Nd160 O182 2.487 . S
Nd160 O183 2.682 1_655 S
Nd160 O184 2.410 1_655 S
Nd160 O189 2.414 1_655 S
Nd160 O191 2.424 . S
Nd161 C171 2.836 . S
Nd161 O183 2.414 . S
Nd161 O185 2.424 . S
Nd161 O186 2.500 . S
Nd161 O187 2.492 . S
Nd161 O188 2.487 . S
Nd161 O189 2.682 . S
Nd161 O190 2.410 . S
C162 Nd160 2.836 . S
C162 C163 1.498 . S
C162 O180 1.258 . S
C162 O181 1.239 . S
C163 C162 1.498 . S
C163 C164 1.366 . S
C163 C168 1.407 . S
C164 C163 1.366 . S
C164 C165 1.392 . S
C164 H192 0.930 . S
C165 C164 1.392 . S
C165 C166 1.398 . S
C165 H193 0.929 . S
C166 C165 1.398 . S
C166 C167 1.352 . S
C167 C166 1.352 . S
C167 C168 1.384 . S
C167 H194 0.930 . S
C168 C163 1.407 . S
C168 C167 1.384 . S
C168 H195 0.929 . S
C169 O182 1.241 1_455 S
C169 O183 1.273 . S
C170 O184 1.251 . S
C170 O185 1.268 . S
C171 Nd161 2.836 . S
C171 C172 1.498 1_556 S
C171 O186 1.258 . S
C171 O187 1.239 . S
C172 C171 1.498 1_554 S
C172 C173 1.366 . S
C172 C177 1.407 . S
C173 C172 1.366 . S
C173 C174 1.392 . S
C173 H196 0.930 . S
C174 C173 1.392 . S
C174 C175 1.398 . S
C174 H197 0.929 . S
C175 C174 1.398 . S
C175 C176 1.352 . S
C176 C175 1.352 . S
C176 C177 1.384 . S
C176 H198 0.930 . S
C177 C172 1.407 . S
C177 C176 1.384 . S
C177 H199 0.929 . S
C178 O188 1.241 . S
C178 O189 1.273 . S
C179 O190 1.251 1_655 S
C179 O191 1.268 . S
O180 Nd160 2.500 . S
O180 C162 1.258 . S
O181 Nd160 2.492 . S
O181 C162 1.239 . S
O182 Nd160 2.487 . S
O182 C169 1.241 1_655 S
O183 Nd160 2.682 1_455 S
O183 Nd161 2.414 . S
O183 C169 1.273 . S
O184 Nd160 2.410 1_455 S
O184 C170 1.251 . S
O185 Nd161 2.424 . S
O185 C170 1.268 . S
O186 Nd161 2.500 . S
O186 C171 1.258 . S
O187 Nd161 2.492 . S
O187 C171 1.239 . S
O188 Nd161 2.487 . S
O188 C178 1.241 . S
O189 Nd160 2.414 1_455 S
O189 Nd161 2.682 . S
O189 C178 1.273 . S
O190 Nd161 2.410 . S
O190 C179 1.251 1_455 S
O191 Nd160 2.424 . S
O191 C179 1.268 . S
H192 C164 0.930 . S
H193 C165 0.929 . S
H194 C167 0.930 . S
H195 C168 0.929 . S
H196 C173 0.930 . S
H197 C174 0.929 . S
H198 C176 0.930 . S
H199 C177 0.929 . S
Nd200 C202 2.836 . S
Nd200 O220 2.500 . S
Nd200 O221 2.492 . S
Nd200 O222 2.487 . S
Nd200 O223 2.682 . S
Nd200 O224 2.410 . S
Nd200 O229 2.414 . S
Nd200 O231 2.424 . S
Nd201 C211 2.836 . S
Nd201 O223 2.414 . S
Nd201 O225 2.424 . S
Nd201 O226 2.500 . S
Nd201 O227 2.492 . S
Nd201 O228 2.487 . S
Nd201 O229 2.682 . S
Nd201 O230 2.410 . S
C202 Nd200 2.836 . S
C202 C203 1.498 1_554 S
C202 O220 1.258 . S
C202 O221 1.239 . S
C203 C202 1.498 1_556 S
C203 C204 1.366 . S
C203 C208 1.407 . S
C204 C203 1.366 . S
C204 C205 1.392 . S
C204 H232 0.930 . S
C205 C204 1.392 . S
C205 C206 1.398 . S
C205 H233 0.929 . S
C206 C205 1.398 . S
C206 C207 1.352 . S
C207 C206 1.352 . S
C207 C208 1.384 . S
C207 H234 0.930 . S
C208 C203 1.407 . S
C208 C207 1.384 . S
C208 H235 0.919 1_556 S
C209 O222 1.241 . S
C209 O223 1.273 . S
C210 O224 1.251 . S
C210 O225 1.268 . S
C211 Nd201 2.836 . S
C211 C212 1.498 . S
C211 O226 1.258 . S
C211 O227 1.239 . S
C212 C211 1.498 . S
C212 C213 1.366 . S
C212 C217 1.407 . S
C213 C212 1.366 . S
C213 C214 1.392 . S
C213 H236 0.930 . S
C214 C213 1.392 . S
C214 C215 1.398 . S
C214 H237 0.929 . S
C215 C214 1.398 . S
C215 C216 1.352 . S
C216 C215 1.352 . S
C216 C217 1.384 . S
C216 H238 0.930 . S
C217 C212 1.407 . S
C217 C216 1.384 . S
C217 H239 0.929 . S
C218 O228 1.241 . S
C218 O229 1.273 . S
C219 O230 1.251 . S
C219 O231 1.268 . S
O220 Nd200 2.500 . S
O220 C202 1.258 . S
O221 Nd200 2.492 . S
O221 C202 1.239 . S
O222 Nd200 2.487 . S
O222 C209 1.241 . S
O223 Nd200 2.682 . S
O223 Nd201 2.414 . S
O223 C209 1.273 . S
O224 Nd200 2.410 . S
O224 C210 1.251 . S
O225 Nd201 2.424 . S
O225 C210 1.268 . S
O226 Nd201 2.500 . S
O226 C211 1.258 . S
O227 Nd201 2.492 . S
O227 C211 1.239 . S
O228 Nd201 2.487 . S
O228 C218 1.241 . S
O229 Nd200 2.414 . S
O229 Nd201 2.682 . S
O229 C218 1.273 . S
O230 Nd201 2.410 . S
O230 C219 1.251 . S
O231 Nd200 2.424 . S
O231 C219 1.268 . S
H232 C204 0.930 . S
H233 C205 0.929 . S
H234 C207 0.930 . S
H235 C208 0.919 1_554 S
H236 C213 0.930 . S
H237 C214 0.929 . S
H238 C216 0.930 . S
H239 C217 0.929 . S
Nd240 C242 2.836 . S
Nd240 O260 2.500 . S
Nd240 O261 2.492 . S
Nd240 O262 2.487 . S
Nd240 O263 2.682 . S
Nd240 O264 2.410 . S
Nd240 O269 2.414 . S
Nd240 O271 2.424 . S
Nd241 C251 2.836 . S
Nd241 O263 2.414 . S
Nd241 O265 2.424 . S
Nd241 O266 2.500 . S
Nd241 O267 2.492 . S
Nd241 O268 2.487 . S
Nd241 O269 2.682 . S
Nd241 O270 2.410 . S
C242 Nd240 2.836 . S
C242 C243 1.498 . S
C242 O260 1.258 . S
C242 O261 1.239 . S
C243 C242 1.498 . S
C243 C244 1.366 . S
C243 C248 1.407 . S
C244 C243 1.366 . S
C244 C245 1.392 . S
C244 H272 0.930 . S
C245 C244 1.392 . S
C245 C246 1.398 . S
C245 H273 0.929 . S
C246 C245 1.398 . S
C246 C247 1.352 . S
C247 C246 1.352 . S
C247 C248 1.384 . S
C247 H274 0.930 . S
C248 C243 1.407 . S
C248 C247 1.384 . S
C248 H275 0.929 . S
C249 O262 1.241 . S
C249 O263 1.273 . S
C250 O264 1.251 . S
C250 O265 1.268 . S
C251 Nd241 2.836 . S
C251 C252 1.498 . S
C251 O266 1.258 . S
C251 O267 1.239 . S
C252 C251 1.498 . S
C252 C253 1.366 . S
C252 C257 1.407 . S
C253 C252 1.366 . S
C253 C254 1.392 . S
C253 H276 0.930 . S
C254 C253 1.392 . S
C254 C255 1.398 . S
C254 H277 0.929 . S
C255 C254 1.398 . S
C255 C256 1.352 . S
C256 C255 1.352 . S
C256 C257 1.384 . S
C256 H278 0.930 . S
C257 C252 1.407 . S
C257 C256 1.384 . S
C257 H279 0.929 . S
C258 O268 1.241 . S
C258 O269 1.273 . S
C259 O270 1.251 . S
C259 O271 1.268 . S
O260 Nd240 2.500 . S
O260 C242 1.258 . S
O261 Nd240 2.492 . S
O261 C242 1.239 . S
O262 Nd240 2.487 . S
O262 C249 1.241 . S
O263 Nd240 2.682 . S
O263 Nd241 2.414 . S
O263 C249 1.273 . S
O264 Nd240 2.410 . S
O264 C250 1.251 . S
O265 Nd241 2.424 . S
O265 C250 1.268 . S
O266 Nd241 2.500 . S
O266 C251 1.258 . S
O267 Nd241 2.492 . S
O267 C251 1.239 . S
O268 Nd241 2.487 . S
O268 C258 1.241 . S
O269 Nd240 2.414 . S
O269 Nd241 2.682 . S
O269 C258 1.273 . S
O270 Nd241 2.410 . S
O270 C259 1.251 . S
O271 Nd240 2.424 . S
O271 C259 1.268 . S
H272 C244 0.930 . S
H273 C245 0.929 . S
H274 C247 0.930 . S
H275 C248 0.929 . S
H276 C253 0.930 . S
H277 C254 0.929 . S
H278 C256 0.930 . S
H279 C257 0.929 . S
Nd280 C282 2.836 . S
Nd280 O300 2.500 . S
Nd280 O301 2.492 . S
Nd280 O302 2.487 . S
Nd280 O303 2.682 . S
Nd280 O304 2.410 . S
Nd280 O309 2.414 . S
Nd280 O311 2.424 . S
Nd281 C291 2.836 . S
Nd281 O303 2.414 . S
Nd281 O305 2.424 . S
Nd281 O306 2.500 . S
Nd281 O307 2.492 . S
Nd281 O308 2.487 . S
Nd281 O309 2.682 . S
Nd281 O310 2.410 . S
C282 Nd280 2.836 . S
C282 C283 1.498 . S
C282 O300 1.258 . S
C282 O301 1.239 . S
C283 C282 1.498 . S
C283 C284 1.366 . S
C283 C288 1.407 . S
C284 C283 1.366 . S
C284 C285 1.392 . S
C284 H312 0.930 . S
C285 C284 1.392 . S
C285 C286 1.398 . S
C285 H313 0.929 . S
C286 C285 1.398 . S
C286 C287 1.352 . S
C287 C286 1.352 . S
C287 C288 1.384 . S
C287 H314 0.930 . S
C288 C283 1.407 . S
C288 C287 1.384 . S
C288 H315 0.929 . S
C289 O302 1.241 . S
C289 O303 1.273 . S
C290 O304 1.251 . S
C290 O305 1.268 . S
C291 Nd281 2.836 . S
C291 C292 1.498 . S
C291 O306 1.258 . S
C291 O307 1.239 . S
C292 C291 1.498 . S
C292 C293 1.366 . S
C292 C297 1.407 . S
C293 C292 1.366 . S
C293 C294 1.392 . S
C293 H316 0.930 . S
C294 C293 1.392 . S
C294 C295 1.398 . S
C294 H317 0.929 . S
C295 C294 1.398 . S
C295 C296 1.352 . S
C296 C295 1.352 . S
C296 C297 1.384 . S
C296 H318 0.930 . S
C297 C292 1.407 . S
C297 C296 1.384 . S
C297 H319 0.929 . S
C298 O308 1.241 . S
C298 O309 1.273 . S
C299 O310 1.251 . S
C299 O311 1.268 . S
O300 Nd280 2.500 . S
O300 C282 1.258 . S
O301 Nd280 2.492 . S
O301 C282 1.239 . S
O302 Nd280 2.487 . S
O302 C289 1.241 . S
O303 Nd280 2.682 . S
O303 Nd281 2.414 . S
O303 C289 1.273 . S
O304 Nd280 2.410 . S
O304 C290 1.251 . S
O305 Nd281 2.424 . S
O305 C290 1.268 . S
O306 Nd281 2.500 . S
O306 C291 1.258 . S
O307 Nd281 2.492 . S
O307 C291 1.239 . S
O308 Nd281 2.487 . S
O308 C298 1.241 . S
O309 Nd280 2.414 . S
O309 Nd281 2.682 . S
O309 C298 1.273 . S
O310 Nd281 2.410 . S
O310 C299 1.251 . S
O311 Nd280 2.424 . S
O311 C299 1.268 . S
H312 C284 0.930 . S
H313 C285 0.929 . S
H314 C287 0.930 . S
H315 C288 0.929 . S
H316 C293 0.930 . S
H317 C294 0.929 . S
H318 C296 0.930 . S
H319 C297 0.929 . S
Nd320 C322 2.836 . S
Nd320 O340 2.500 . S
Nd320 O341 2.492 . S
Nd320 O342 2.487 . S
Nd320 O343 2.682 . S
Nd320 O344 2.410 . S
Nd320 O349 2.414 . S
Nd320 O351 2.424 . S
Nd321 C331 2.836 . S
Nd321 O343 2.414 . S
Nd321 O345 2.424 . S
Nd321 O346 2.500 . S
Nd321 O347 2.492 . S
Nd321 O348 2.487 . S
Nd321 O349 2.682 . S
Nd321 O350 2.410 . S
C322 Nd320 2.836 . S
C322 C323 1.498 . S
C322 O340 1.258 . S
C322 O341 1.239 . S
C323 C322 1.498 . S
C323 C324 1.366 . S
C323 C328 1.407 . S
C324 C323 1.366 . S
C324 C325 1.392 . S
C324 H352 0.930 . S
C325 C324 1.392 . S
C325 C326 1.398 . S
C325 H353 0.929 . S
C326 C325 1.398 . S
C326 C327 1.352 . S
C327 C326 1.352 . S
C327 C328 1.384 . S
C327 H354 0.930 . S
C328 C323 1.407 . S
C328 C327 1.384 . S
C328 H355 0.929 . S
C329 O342 1.241 . S
C329 O343 1.273 . S
C330 O344 1.251 . S
C330 O345 1.268 . S
C331 Nd321 2.836 . S
C331 C332 1.498 . S
C331 O346 1.258 . S
C331 O347 1.239 . S
C332 C331 1.498 . S
C332 C333 1.366 . S
C332 C337 1.407 . S
C333 C332 1.366 . S
C333 C334 1.392 . S
C333 H356 0.930 . S
C334 C333 1.392 . S
C334 C335 1.398 . S
C334 H357 0.929 . S
C335 C334 1.398 . S
C335 C336 1.352 . S
C336 C335 1.352 . S
C336 C337 1.384 . S
C336 H358 0.930 . S
C337 C332 1.407 . S
C337 C336 1.384 . S
C337 H359 0.929 . S
C338 O348 1.241 . S
C338 O349 1.273 . S
C339 O350 1.251 . S
C339 O351 1.268 . S
O340 Nd320 2.500 . S
O340 C322 1.258 . S
O341 Nd320 2.492 . S
O341 C322 1.239 . S
O342 Nd320 2.487 . S
O342 C329 1.241 . S
O343 Nd320 2.682 . S
O343 Nd321 2.414 . S
O343 C329 1.273 . S
O344 Nd320 2.410 . S
O344 C330 1.251 . S
O345 Nd321 2.424 . S
O345 C330 1.268 . S
O346 Nd321 2.500 . S
O346 C331 1.258 . S
O347 Nd321 2.492 . S
O347 C331 1.239 . S
O348 Nd321 2.487 . S
O348 C338 1.241 . S
O349 Nd320 2.414 . S
O349 Nd321 2.682 . S
O349 C338 1.273 . S
O350 Nd321 2.410 . S
O350 C339 1.251 . S
O351 Nd320 2.424 . S
O351 C339 1.268 . S
H352 C324 0.930 . S
H353 C325 0.929 . S
H354 C327 0.930 . S
H355 C328 0.929 . S
H356 C333 0.930 . S
H357 C334 0.929 . S
H358 C336 0.930 . S
H359 C337 0.929 . S
Nd360 C362 2.836 . S
Nd360 O380 2.500 . S
Nd360 O381 2.492 . S
Nd360 O382 2.487 . S
Nd360 O383 2.682 . S
Nd360 O384 2.410 . S
Nd360 O389 2.414 . S
Nd360 O391 2.424 . S
Nd361 C371 2.836 . S
Nd361 O383 2.414 . S
Nd361 O385 2.424 . S
Nd361 O386 2.500 . S
Nd361 O387 2.492 . S
Nd361 O388 2.487 . S
Nd361 O389 2.682 . S
Nd361 O390 2.410 . S
C362 Nd360 2.836 . S
C362 C363 1.498 1_554 S
C362 O380 1.258 . S
C362 O381 1.239 . S
C363 C362 1.498 1_556 S
C363 C364 1.366 . S
C363 C368 1.407 . S
C364 C363 1.366 . S
C364 C365 1.392 . S
C364 H392 0.930 . S
C365 C364 1.392 . S
C365 C366 1.398 . S
C365 H393 0.929 . S
C366 C365 1.398 . S
C366 C367 1.352 . S
C367 C366 1.352 . S
C367 C368 1.384 . S
C367 H394 0.930 . S
C368 C363 1.407 . S
C368 C367 1.384 . S
C368 H395 0.919 1_556 S
C369 O382 1.241 . S
C369 O383 1.273 . S
C370 O384 1.251 . S
C370 O385 1.268 . S
C371 Nd361 2.836 . S
C371 C372 1.498 . S
C371 O386 1.258 . S
C371 O387 1.239 . S
C372 C371 1.498 . S
C372 C373 1.366 . S
C372 C377 1.407 . S
C373 C372 1.366 . S
C373 C374 1.392 . S
C373 H396 0.930 . S
C374 C373 1.392 . S
C374 C375 1.398 . S
C374 H397 0.929 . S
C375 C374 1.398 . S
C375 C376 1.352 . S
C376 C375 1.352 . S
C376 C377 1.384 . S
C376 H398 0.930 . S
C377 C372 1.407 . S
C377 C376 1.384 . S
C377 H399 0.929 . S
C378 O388 1.241 . S
C378 O389 1.273 . S
C379 O390 1.251 . S
C379 O391 1.268 . S
O380 Nd360 2.500 . S
O380 C362 1.258 . S
O381 Nd360 2.492 . S
O381 C362 1.239 . S
O382 Nd360 2.487 . S
O382 C369 1.241 . S
O383 Nd360 2.682 . S
O383 Nd361 2.414 . S
O383 C369 1.273 . S
O384 Nd360 2.410 . S
O384 C370 1.251 . S
O385 Nd361 2.424 . S
O385 C370 1.268 . S
O386 Nd361 2.500 . S
O386 C371 1.258 . S
O387 Nd361 2.492 . S
O387 C371 1.239 . S
O388 Nd361 2.487 . S
O388 C378 1.241 . S
O389 Nd360 2.414 . S
O389 Nd361 2.682 . S
O389 C378 1.273 . S
O390 Nd361 2.410 . S
O390 C379 1.251 . S
O391 Nd360 2.424 . S
O391 C379 1.268 . S
H392 C364 0.930 . S
H393 C365 0.929 . S
H394 C367 0.930 . S
H395 C368 0.919 1_554 S
H396 C373 0.930 . S
H397 C374 0.929 . S
H398 C376 0.930 . S
H399 C377 0.929 . S
Nd400 C402 2.836 . S
Nd400 O420 2.500 . S
Nd400 O421 2.492 . S
Nd400 O422 2.487 . S
Nd400 O423 2.682 . S
Nd400 O424 2.410 . S
Nd400 O429 2.414 . S
Nd400 O431 2.424 . S
Nd401 C411 2.836 . S
Nd401 O423 2.414 . S
Nd401 O425 2.424 . S
Nd401 O426 2.500 . S
Nd401 O427 2.492 . S
Nd401 O428 2.487 . S
Nd401 O429 2.682 . S
Nd401 O430 2.410 . S
C402 Nd400 2.836 . S
C402 C403 1.498 . S
C402 O420 1.258 . S
C402 O421 1.239 . S
C403 C402 1.498 . S
C403 C404 1.366 . S
C403 C408 1.407 . S
C404 C403 1.366 . S
C404 C405 1.392 . S
C404 H432 0.930 . S
C405 C404 1.392 . S
C405 C406 1.398 . S
C405 H433 0.929 . S
C406 C405 1.398 . S
C406 C407 1.352 . S
C407 C406 1.352 . S
C407 C408 1.384 . S
C407 H434 0.930 . S
C408 C403 1.407 . S
C408 C407 1.384 . S
C408 H435 0.929 . S
C409 O422 1.241 . S
C409 O423 1.273 . S
C410 O424 1.251 . S
C410 O425 1.268 . S
C411 Nd401 2.836 . S
C411 C412 1.498 1_556 S
C411 O426 1.258 . S
C411 O427 1.239 . S
C412 C411 1.498 1_554 S
C412 C413 1.366 . S
C412 C417 1.407 . S
C413 C412 1.366 . S
C413 C414 1.392 . S
C413 H436 0.930 . S
C414 C413 1.392 . S
C414 C415 1.398 . S
C414 H437 0.929 . S
C415 C414 1.398 . S
C415 C416 1.352 . S
C416 C415 1.352 . S
C416 C417 1.384 . S
C416 H438 0.930 . S
C417 C412 1.407 . S
C417 C416 1.384 . S
C417 H439 0.919 1_554 S
C418 O428 1.241 . S
C418 O429 1.273 . S
C419 O430 1.251 . S
C419 O431 1.268 . S
O420 Nd400 2.500 . S
O420 C402 1.258 . S
O421 Nd400 2.492 . S
O421 C402 1.239 . S
O422 Nd400 2.487 . S
O422 C409 1.241 . S
O423 Nd400 2.682 . S
O423 Nd401 2.414 . S
O423 C409 1.273 . S
O424 Nd400 2.410 . S
O424 C410 1.251 . S
O425 Nd401 2.424 . S
O425 C410 1.268 . S
O426 Nd401 2.500 . S
O426 C411 1.258 . S
O427 Nd401 2.492 . S
O427 C411 1.239 . S
O428 Nd401 2.487 . S
O428 C418 1.241 . S
O429 Nd400 2.414 . S
O429 Nd401 2.682 . S
O429 C418 1.273 . S
O430 Nd401 2.410 . S
O430 C419 1.251 . S
O431 Nd400 2.424 . S
O431 C419 1.268 . S
H432 C404 0.930 . S
H433 C405 0.929 . S
H434 C407 0.930 . S
H435 C408 0.929 . S
H436 C413 0.930 . S
H437 C414 0.929 . S
H438 C416 0.930 . S
H439 C417 0.919 1_556 S
Nd440 C442 2.836 . S
Nd440 O460 2.500 . S
Nd440 O461 2.492 . S
Nd440 O462 2.487 . S
Nd440 O463 2.682 . S
Nd440 O464 2.410 . S
Nd440 O469 2.414 . S
Nd440 O471 2.424 . S
Nd441 C451 2.836 . S
Nd441 O463 2.414 . S
Nd441 O465 2.424 . S
Nd441 O466 2.500 . S
Nd441 O467 2.492 . S
Nd441 O468 2.487 . S
Nd441 O469 2.682 . S
Nd441 O470 2.410 . S
C442 Nd440 2.836 . S
C442 C443 1.498 . S
C442 O460 1.258 . S
C442 O461 1.239 . S
C443 C442 1.498 . S
C443 C444 1.366 . S
C443 C448 1.407 . S
C444 C443 1.366 . S
C444 C445 1.392 . S
C444 H472 0.930 . S
C445 C444 1.392 . S
C445 C446 1.398 . S
C445 H473 0.929 . S
C446 C445 1.398 . S
C446 C447 1.352 . S
C447 C446 1.352 . S
C447 C448 1.384 . S
C447 H474 0.930 . S
C448 C443 1.407 . S
C448 C447 1.384 . S
C448 H475 0.929 . S
C449 O462 1.241 . S
C449 O463 1.273 . S
C450 O464 1.251 . S
C450 O465 1.268 . S
C451 Nd441 2.836 . S
C451 C452 1.498 . S
C451 O466 1.258 . S
C451 O467 1.239 . S
C452 C451 1.498 . S
C452 C453 1.366 . S
C452 C457 1.407 . S
C453 C452 1.366 . S
C453 C454 1.392 . S
C453 H476 0.930 . S
C454 C453 1.392 . S
C454 C455 1.398 . S
C454 H477 0.929 . S
C455 C454 1.398 . S
C455 C456 1.352 . S
C456 C455 1.352 . S
C456 C457 1.384 . S
C456 H478 0.930 . S
C457 C452 1.407 . S
C457 C456 1.384 . S
C457 H479 0.929 . S
C458 O468 1.241 . S
C458 O469 1.273 . S
C459 O470 1.251 . S
C459 O471 1.268 . S
O460 Nd440 2.500 . S
O460 C442 1.258 . S
O461 Nd440 2.492 . S
O461 C442 1.239 . S
O462 Nd440 2.487 . S
O462 C449 1.241 . S
O463 Nd440 2.682 . S
O463 Nd441 2.414 . S
O463 C449 1.273 . S
O464 Nd440 2.410 . S
O464 C450 1.251 . S
O465 Nd441 2.424 . S
O465 C450 1.268 . S
O466 Nd441 2.500 . S
O466 C451 1.258 . S
O467 Nd441 2.492 . S
O467 C451 1.239 . S
O468 Nd441 2.487 . S
O468 C458 1.241 . S
O469 Nd440 2.414 . S
O469 Nd441 2.682 . S
O469 C458 1.273 . S
O470 Nd441 2.410 . S
O470 C459 1.251 . S
O471 Nd440 2.424 . S
O471 C459 1.268 . S
H472 C444 0.930 . S
H473 C445 0.929 . S
H474 C447 0.930 . S
H475 C448 0.929 . S
H476 C453 0.930 . S
H477 C454 0.929 . S
H478 C456 0.930 . S
H479 C457 0.929 . S
Nd480 C482 2.836 . S
Nd480 O500 2.500 . S
Nd480 O501 2.492 . S
Nd480 O502 2.487 . S
Nd480 O503 2.682 . S
Nd480 O504 2.410 . S
Nd480 O509 2.414 . S
Nd480 O511 2.424 . S
Nd481 C491 2.836 . S
Nd481 O503 2.414 . S
Nd481 O505 2.424 . S
Nd481 O506 2.500 . S
Nd481 O507 2.492 . S
Nd481 O508 2.487 . S
Nd481 O509 2.682 . S
Nd481 O510 2.410 . S
C482 Nd480 2.836 . S
C482 C483 1.498 . S
C482 O500 1.258 . S
C482 O501 1.239 . S
C483 C482 1.498 . S
C483 C484 1.366 . S
C483 C488 1.407 . S
C484 C483 1.366 . S
C484 C485 1.392 . S
C484 H512 0.930 . S
C485 C484 1.392 . S
C485 C486 1.398 . S
C485 H513 0.929 . S
C486 C485 1.398 . S
C486 C487 1.352 . S
C487 C486 1.352 . S
C487 C488 1.384 . S
C487 H514 0.930 . S
C488 C483 1.407 . S
C488 C487 1.384 . S
C488 H515 0.929 . S
C489 O502 1.241 . S
C489 O503 1.273 . S
C490 O504 1.251 . S
C490 O505 1.268 . S
C491 Nd481 2.836 . S
C491 C492 1.498 . S
C491 O506 1.258 . S
C491 O507 1.239 . S
C492 C491 1.498 . S
C492 C493 1.366 . S
C492 C497 1.407 . S
C493 C492 1.366 . S
C493 C494 1.392 . S
C493 H516 0.930 . S
C494 C493 1.392 . S
C494 C495 1.398 . S
C494 H517 0.929 . S
C495 C494 1.398 . S
C495 C496 1.352 . S
C496 C495 1.352 . S
C496 C497 1.384 . S
C496 H518 0.930 . S
C497 C492 1.407 . S
C497 C496 1.384 . S
C497 H519 0.929 . S
C498 O508 1.241 . S
C498 O509 1.273 . S
C499 O510 1.251 . S
C499 O511 1.268 . S
O500 Nd480 2.500 . S
O500 C482 1.258 . S
O501 Nd480 2.492 . S
O501 C482 1.239 . S
O502 Nd480 2.487 . S
O502 C489 1.241 . S
O503 Nd480 2.682 . S
O503 Nd481 2.414 . S
O503 C489 1.273 . S
O504 Nd480 2.410 . S
O504 C490 1.251 . S
O505 Nd481 2.424 . S
O505 C490 1.268 . S
O506 Nd481 2.500 . S
O506 C491 1.258 . S
O507 Nd481 2.492 . S
O507 C491 1.239 . S
O508 Nd481 2.487 . S
O508 C498 1.241 . S
O509 Nd480 2.414 . S
O509 Nd481 2.682 . S
O509 C498 1.273 . S
O510 Nd481 2.410 . S
O510 C499 1.251 . S
O511 Nd480 2.424 . S
O511 C499 1.268 . S
H512 C484 0.930 . S
H513 C485 0.929 . S
H514 C487 0.930 . S
H515 C488 0.929 . S
H516 C493 0.930 . S
H517 C494 0.929 . S
H518 C496 0.930 . S
H519 C497 0.929 . S
Nd520 C522 2.836 . S
Nd520 O540 2.500 . S
Nd520 O541 2.492 . S
Nd520 O542 2.487 . S
Nd520 O543 2.682 . S
Nd520 O544 2.410 . S
Nd520 O549 2.414 . S
Nd520 O551 2.424 . S
Nd521 C531 2.836 . S
Nd521 O543 2.414 1_655 S
Nd521 O545 2.424 . S
Nd521 O546 2.500 . S
Nd521 O547 2.492 . S
Nd521 O548 2.487 . S
Nd521 O549 2.682 1_655 S
Nd521 O550 2.410 1_655 S
C522 Nd520 2.836 . S
C522 C523 1.498 1_554 S
C522 O540 1.258 . S
C522 O541 1.239 . S
C523 C522 1.498 1_556 S
C523 C524 1.366 . S
C523 C528 1.407 . S
C524 C523 1.366 . S
C524 C525 1.392 . S
C524 H552 0.930 . S
C525 C524 1.392 . S
C525 C526 1.398 . S
C525 H553 0.929 . S
C526 C525 1.398 . S
C526 C527 1.352 . S
C527 C526 1.352 . S
C527 C528 1.384 . S
C527 H554 0.930 . S
C528 C523 1.407 . S
C528 C527 1.384 . S
C528 H555 0.929 . S
C529 O542 1.241 . S
C529 O543 1.273 . S
C530 O544 1.251 1_655 S
C530 O545 1.268 . S
C531 Nd521 2.836 . S
C531 C532 1.498 . S
C531 O546 1.258 . S
C531 O547 1.239 . S
C532 C531 1.498 . S
C532 C533 1.366 . S
C532 C537 1.407 . S
C533 C532 1.366 . S
C533 C534 1.392 . S
C533 H556 0.930 . S
C534 C533 1.392 . S
C534 C535 1.398 . S
C534 H557 0.929 . S
C535 C534 1.398 . S
C535 C536 1.352 . S
C536 C535 1.352 . S
C536 C537 1.384 . S
C536 H558 0.930 . S
C537 C532 1.407 . S
C537 C536 1.384 . S
C537 H559 0.929 . S
C538 O548 1.241 1_455 S
C538 O549 1.273 . S
C539 O550 1.251 . S
C539 O551 1.268 . S
O540 Nd520 2.500 . S
O540 C522 1.258 . S
O541 Nd520 2.492 . S
O541 C522 1.239 . S
O542 Nd520 2.487 . S
O542 C529 1.241 . S
O543 Nd520 2.682 . S
O543 Nd521 2.414 1_455 S
O543 C529 1.273 . S
O544 Nd520 2.410 . S
O544 C530 1.251 1_455 S
O545 Nd521 2.424 . S
O545 C530 1.268 . S
O546 Nd521 2.500 . S
O546 C531 1.258 . S
O547 Nd521 2.492 . S
O547 C531 1.239 . S
O548 Nd521 2.487 . S
O548 C538 1.241 1_655 S
O549 Nd520 2.414 . S
O549 Nd521 2.682 1_455 S
O549 C538 1.273 . S
O550 Nd521 2.410 1_455 S
O550 C539 1.251 . S
O551 Nd520 2.424 . S
O551 C539 1.268 . S
H552 C524 0.930 . S
H553 C525 0.929 . S
H554 C527 0.930 . S
H555 C528 0.929 . S
H556 C533 0.930 . S
H557 C534 0.929 . S
H558 C536 0.930 . S
H559 C537 0.929 . S
Nd560 C562 2.836 . S
Nd560 O580 2.500 . S
Nd560 O581 2.492 . S
Nd560 O582 2.487 . S
Nd560 O583 2.682 . S
Nd560 O584 2.410 . S
Nd560 O589 2.414 . S
Nd560 O591 2.424 . S
Nd561 C571 2.836 . S
Nd561 O583 2.414 . S
Nd561 O585 2.424 . S
Nd561 O586 2.500 . S
Nd561 O587 2.492 . S
Nd561 O588 2.487 . S
Nd561 O589 2.682 . S
Nd561 O590 2.410 . S
C562 Nd560 2.836 . S
C562 C563 1.498 . S
C562 O580 1.258 . S
C562 O581 1.239 . S
C563 C562 1.498 . S
C563 C564 1.366 . S
C563 C568 1.407 . S
C564 C563 1.366 . S
C564 C565 1.392 . S
C564 H592 0.930 . S
C565 C564 1.392 . S
C565 C566 1.398 . S
C565 H593 0.929 . S
C566 C565 1.398 . S
C566 C567 1.352 . S
C567 C566 1.352 . S
C567 C568 1.384 . S
C567 H594 0.930 . S
C568 C563 1.407 . S
C568 C567 1.384 . S
C568 H595 0.929 . S
C569 O582 1.241 . S
C569 O583 1.273 . S
C570 O584 1.251 . S
C570 O585 1.268 . S
C571 Nd561 2.836 . S
C571 C572 1.498 . S
C571 O586 1.258 . S
C571 O587 1.239 . S
C572 C571 1.498 . S
C572 C573 1.366 . S
C572 C577 1.407 . S
C573 C572 1.366 . S
C573 C574 1.392 . S
C573 H596 0.930 . S
C574 C573 1.392 . S
C574 C575 1.398 . S
C574 H597 0.929 . S
C575 C574 1.398 . S
C575 C576 1.352 . S
C576 C575 1.352 . S
C576 C577 1.384 . S
C576 H598 0.930 . S
C577 C572 1.407 . S
C577 C576 1.384 . S
C577 H599 0.929 . S
C578 O588 1.241 . S
C578 O589 1.273 . S
C579 O590 1.251 . S
C579 O591 1.268 . S
O580 Nd560 2.500 . S
O580 C562 1.258 . S
O581 Nd560 2.492 . S
O581 C562 1.239 . S
O582 Nd560 2.487 . S
O582 C569 1.241 . S
O583 Nd560 2.682 . S
O583 Nd561 2.414 . S
O583 C569 1.273 . S
O584 Nd560 2.410 . S
O584 C570 1.251 . S
O585 Nd561 2.424 . S
O585 C570 1.268 . S
O586 Nd561 2.500 . S
O586 C571 1.258 . S
O587 Nd561 2.492 . S
O587 C571 1.239 . S
O588 Nd561 2.487 . S
O588 C578 1.241 . S
O589 Nd560 2.414 . S
O589 Nd561 2.682 . S
O589 C578 1.273 . S
O590 Nd561 2.410 . S
O590 C579 1.251 . S
O591 Nd560 2.424 . S
O591 C579 1.268 . S
H592 C564 0.930 . S
H593 C565 0.929 . S
H594 C567 0.930 . S
H595 C568 0.929 . S
H596 C573 0.930 . S
H597 C574 0.929 . S
H598 C576 0.930 . S
H599 C577 0.929 . S
Nd600 C602 2.836 . S
Nd600 O620 2.500 . S
Nd600 O621 2.492 . S
Nd600 O622 2.487 . S
Nd600 O623 2.682 1_455 S
Nd600 O624 2.410 1_455 S
Nd600 O629 2.414 . S
Nd600 O631 2.424 . S
Nd601 C611 2.836 . S
Nd601 O623 2.414 . S
Nd601 O625 2.424 . S
Nd601 O626 2.500 . S
Nd601 O627 2.492 . S
Nd601 O628 2.487 . S
Nd601 O629 2.682 1_655 S
Nd601 O630 2.410 1_655 S
C602 Nd600 2.836 . S
C602 C603 1.498 . S
C602 O620 1.258 . S
C602 O621 1.239 . S
C603 C602 1.498 . S
C603 C604 1.366 . S
C603 C608 1.407 . S
C604 C603 1.366 . S
C604 C605 1.392 . S
C604 H632 0.930 . S
C605 C604 1.392 . S
C605 C606 1.398 . S
C605 H633 0.929 . S
C606 C605 1.398 . S
C606 C607 1.352 . S
C607 C606 1.352 . S
C607 C608 1.384 . S
C607 H634 0.930 . S
C608 C603 1.407 . S
C608 C607 1.384 . S
C608 H635 0.929 . S
C609 O622 1.241 . S
C609 O623 1.273 1_455 S
C610 O624 1.251 . S
C610 O625 1.268 . S
C611 Nd601 2.836 . S
C611 C612 1.498 1_556 S
C611 O626 1.258 . S
C611 O627 1.239 . S
C612 C611 1.498 1_554 S
C612 C613 1.366 . S
C612 C617 1.407 . S
C613 C612 1.366 . S
C613 C614 1.392 . S
C613 H636 0.930 . S
C614 C613 1.392 . S
C614 C615 1.398 . S
C614 H637 0.929 . S
C615 C614 1.398 . S
C615 C616 1.352 . S
C616 C615 1.352 . S
C616 C617 1.384 . S
C616 H638 0.930 . S
C617 C612 1.407 . S
C617 C616 1.384 . S
C617 H639 0.929 . S
C618 O628 1.241 . S
C618 O629 1.273 1_655 S
C619 O630 1.251 . S
C619 O631 1.268 . S
O620 Nd600 2.500 . S
O620 C602 1.258 . S
O621 Nd600 2.492 . S
O621 C602 1.239 . S
O622 Nd600 2.487 . S
O622 C609 1.241 . S
O623 Nd600 2.682 1_655 S
O623 Nd601 2.414 . S
O623 C609 1.273 1_655 S
O624 Nd600 2.410 1_655 S
O624 C610 1.251 . S
O625 Nd601 2.424 . S
O625 C610 1.268 . S
O626 Nd601 2.500 . S
O626 C611 1.258 . S
O627 Nd601 2.492 . S
O627 C611 1.239 . S
O628 Nd601 2.487 . S
O628 C618 1.241 . S
O629 Nd600 2.414 . S
O629 Nd601 2.682 1_455 S
O629 C618 1.273 1_455 S
O630 Nd601 2.410 1_455 S
O630 C619 1.251 . S
O631 Nd600 2.424 . S
O631 C619 1.268 . S
H632 C604 0.930 . S
H633 C605 0.929 . S
H634 C607 0.930 . S
H635 C608 0.929 . S
H636 C613 0.930 . S
H637 C614 0.929 . S
H638 C616 0.930 . S
H639 C617 0.929 . S
H640 C652 0.930 . S
H641 C654 0.930 . S
H642 C655 0.930 . S
H643 C659 0.959 . S
H644 C659 0.959 . S
H645 C659 0.961 . S
H646 C660 0.960 . S
H647 C660 0.961 . S
H648 C660 0.959 . S
H649 C663 0.929 . S
H650 C664 0.931 . S
H651 C666 0.930 . S
C652 H640 0.930 . S
C652 C653 1.399 . S
C652 C657 1.399 1_554 S
C653 C652 1.399 . S
C653 C654 1.376 . S
C654 H641 0.930 . S
C654 C653 1.376 . S
C654 C655 1.388 1_554 S
C655 H642 0.930 . S
C655 C654 1.388 1_556 S
C655 C656 1.390 . S
C656 C655 1.390 . S
C656 C657 1.394 . S
C656 C662 1.465 . S
C657 C652 1.399 1_556 S
C657 C656 1.394 . S
C657 C658 1.516 . S
C658 C657 1.516 . S
C658 C659 1.502 . S
C658 C660 1.561 . S
C658 C661 1.526 . S
C659 H643 0.959 . S
C659 H644 0.959 . S
C659 H645 0.961 . S
C659 C658 1.502 . S
C660 H646 0.960 . S
C660 H647 0.961 . S
C660 H648 0.959 . S
C660 C658 1.561 . S
C661 C658 1.526 . S
C661 C662 1.396 . S
C661 C666 1.390 . S
C662 C656 1.465 . S
C662 C661 1.396 . S
C662 C663 1.399 . S
C663 H649 0.929 . S
C663 C662 1.399 . S
C663 C664 1.385 . S
C664 H650 0.931 . S
C664 C663 1.385 . S
C664 C665 1.389 . S
C665 C664 1.389 . S
C665 C666 1.387 . S
C666 H651 0.930 . S
C666 C661 1.390 . S
C666 C665 1.387 . S
H667 C679 0.930 . S
H668 C681 0.930 . S
H669 C682 0.930 . S
H670 C686 0.959 . S
H671 C686 0.959 . S
H672 C686 0.961 . S
H673 C687 0.960 . S
H674 C687 0.961 . S
H675 C687 0.959 . S
H676 C690 0.929 . S
H677 C691 0.931 . S
H678 C693 0.930 . S
C679 H667 0.930 . S
C679 C680 1.399 . S
C679 C684 1.399 . S
C680 C679 1.399 . S
C680 C681 1.376 . S
C681 H668 0.930 . S
C681 C680 1.376 . S
C681 C682 1.388 . S
C682 H669 0.930 . S
C682 C681 1.388 . S
C682 C683 1.390 . S
C683 C682 1.390 . S
C683 C684 1.394 . S
C683 C689 1.465 . S
C684 C679 1.399 . S
C684 C683 1.394 . S
C684 C685 1.516 . S
C685 C684 1.516 . S
C685 C686 1.502 . S
C685 C687 1.561 . S
C685 C688 1.526 . S
C686 H670 0.959 . S
C686 H671 0.959 . S
C686 H672 0.961 . S
C686 C685 1.502 . S
C687 H673 0.960 . S
C687 H674 0.961 . S
C687 H675 0.959 . S
C687 C685 1.561 . S
C688 C685 1.526 . S
C688 C689 1.396 . S
C688 C693 1.390 . S
C689 C683 1.465 . S
C689 C688 1.396 . S
C689 C690 1.399 . S
C690 H676 0.929 . S
C690 C689 1.399 . S
C690 C691 1.385 . S
C691 H677 0.931 . S
C691 C690 1.385 . S
C691 C692 1.389 . S
C692 C691 1.389 . S
C692 C693 1.387 . S
C693 H678 0.930 . S
C693 C688 1.390 . S
C693 C692 1.387 . S
H694 C706 0.930 . S
H695 C708 0.930 . S
H696 C709 0.930 . S
H697 C713 0.959 . S
H698 C713 0.959 . S
H699 C713 0.961 . S
H700 C714 0.960 . S
H701 C714 0.961 . S
H702 C714 0.959 . S
H703 C717 0.929 . S
H704 C718 0.931 . S
H705 C720 0.930 . S
C706 H694 0.930 . S
C706 C707 1.399 . S
C706 C711 1.399 . S
C707 C706 1.399 . S
C707 C708 1.376 . S
C708 H695 0.930 . S
C708 C707 1.376 . S
C708 C709 1.388 . S
C709 H696 0.930 . S
C709 C708 1.388 . S
C709 C710 1.390 . S
C710 C709 1.390 . S
C710 C711 1.394 . S
C710 C716 1.465 . S
C711 C706 1.399 . S
C711 C710 1.394 . S
C711 C712 1.516 . S
C712 C711 1.516 . S
C712 C713 1.502 . S
C712 C714 1.561 . S
C712 C715 1.526 . S
C713 H697 0.959 . S
C713 H698 0.959 . S
C713 H699 0.961 . S
C713 C712 1.502 . S
C714 H700 0.960 . S
C714 H701 0.961 . S
C714 H702 0.959 . S
C714 C712 1.561 . S
C715 C712 1.526 . S
C715 C716 1.396 . S
C715 C720 1.390 . S
C716 C710 1.465 . S
C716 C715 1.396 . S
C716 C717 1.399 . S
C717 H703 0.929 . S
C717 C716 1.399 . S
C717 C718 1.385 . S
C718 H704 0.931 . S
C718 C717 1.385 . S
C718 C719 1.389 . S
C719 C718 1.389 . S
C719 C720 1.387 . S
C720 H705 0.930 . S
C720 C715 1.390 . S
C720 C719 1.387 . S
H721 C733 0.930 . S
H722 C735 0.930 . S
H723 C736 0.930 . S
H724 C740 0.959 . S
H725 C740 0.959 . S
H726 C740 0.961 . S
H727 C741 0.960 . S
H728 C741 0.961 . S
H729 C741 0.959 . S
H730 C744 0.929 . S
H731 C745 0.931 . S
H732 C747 0.930 . S
C733 H721 0.930 . S
C733 C734 1.399 . S
C733 C738 1.399 . S
C734 C733 1.399 . S
C734 C735 1.376 . S
C735 H722 0.930 . S
C735 C734 1.376 . S
C735 C736 1.388 . S
C736 H723 0.930 . S
C736 C735 1.388 . S
C736 C737 1.390 . S
C737 C736 1.390 . S
C737 C738 1.394 . S
C737 C743 1.465 . S
C738 C733 1.399 . S
C738 C737 1.394 . S
C738 C739 1.516 . S
C739 C738 1.516 . S
C739 C740 1.502 . S
C739 C741 1.561 . S
C739 C742 1.526 . S
C740 H724 0.959 . S
C740 H725 0.959 . S
C740 H726 0.961 . S
C740 C739 1.502 . S
C741 H727 0.960 . S
C741 H728 0.961 . S
C741 H729 0.959 . S
C741 C739 1.561 . S
C742 C739 1.526 . S
C742 C743 1.396 . S
C742 C747 1.390 . S
C743 C737 1.465 . S
C743 C742 1.396 . S
C743 C744 1.399 . S
C744 H730 0.929 . S
C744 C743 1.399 . S
C744 C745 1.385 . S
C745 H731 0.931 . S
C745 C744 1.385 . S
C745 C746 1.389 . S
C746 C745 1.389 . S
C746 C747 1.387 . S
C747 H732 0.930 . S
C747 C742 1.390 . S
C747 C746 1.387 . S
H748 C760 0.930 . S
H749 C762 0.930 . S
H750 C763 0.930 . S
H751 C767 0.959 . S
H752 C767 0.959 . S
H753 C767 0.961 . S
H754 C768 0.960 . S
H755 C768 0.961 . S
H756 C768 0.959 . S
H757 C771 0.929 . S
H758 C772 0.931 . S
H759 C774 0.930 . S
C760 H748 0.930 . S
C760 C761 1.399 . S
C760 C765 1.399 . S
C761 C760 1.399 . S
C761 C762 1.376 . S
C762 H749 0.930 . S
C762 C761 1.376 . S
C762 C763 1.388 . S
C763 H750 0.930 . S
C763 C762 1.388 . S
C763 C764 1.390 . S
C764 C763 1.390 . S
C764 C765 1.394 . S
C764 C770 1.465 . S
C765 C760 1.399 . S
C765 C764 1.394 . S
C765 C766 1.516 . S
C766 C765 1.516 . S
C766 C767 1.502 . S
C766 C768 1.561 . S
C766 C769 1.526 . S
C767 H751 0.959 . S
C767 H752 0.959 . S
C767 H753 0.961 . S
C767 C766 1.502 . S
C768 H754 0.960 . S
C768 H755 0.961 . S
C768 H756 0.959 . S
C768 C766 1.561 . S
C769 C766 1.526 . S
C769 C770 1.396 . S
C769 C774 1.390 1_554 S
C770 C764 1.465 . S
C770 C769 1.396 . S
C770 C771 1.399 . S
C771 H757 0.929 . S
C771 C770 1.399 . S
C771 C772 1.385 1_554 S
C772 H758 0.931 . S
C772 C771 1.385 1_556 S
C772 C773 1.389 . S
C773 C772 1.389 . S
C773 C774 1.387 . S
C774 H759 0.930 . S
C774 C769 1.390 1_556 S
C774 C773 1.387 . S
H775 C787 0.930 . S
H776 C789 0.930 . S
H777 C790 0.930 . S
H778 C794 0.959 . S
H779 C794 0.959 . S
H780 C794 0.961 . S
H781 C795 0.960 . S
H782 C795 0.961 . S
H783 C795 0.959 . S
H784 C798 0.929 . S
H785 C799 0.931 . S
H786 C801 0.930 . S
C787 H775 0.930 . S
C787 C788 1.399 . S
C787 C792 1.399 . S
C788 C787 1.399 . S
C788 C789 1.376 . S
C789 H776 0.930 . S
C789 C788 1.376 . S
C789 C790 1.388 . S
C790 H777 0.930 . S
C790 C789 1.388 . S
C790 C791 1.390 . S
C791 C790 1.390 . S
C791 C792 1.394 . S
C791 C797 1.465 . S
C792 C787 1.399 . S
C792 C791 1.394 . S
C792 C793 1.516 . S
C793 C792 1.516 . S
C793 C794 1.502 . S
C793 C795 1.561 . S
C793 C796 1.526 . S
C794 H778 0.959 . S
C794 H779 0.959 . S
C794 H780 0.961 . S
C794 C793 1.502 . S
C795 H781 0.960 . S
C795 H782 0.961 . S
C795 H783 0.959 . S
C795 C793 1.561 . S
C796 C793 1.526 . S
C796 C797 1.396 . S
C796 C801 1.390 . S
C797 C791 1.465 . S
C797 C796 1.396 . S
C797 C798 1.399 . S
C798 H784 0.929 . S
C798 C797 1.399 . S
C798 C799 1.385 . S
C799 H785 0.931 . S
C799 C798 1.385 . S
C799 C800 1.389 . S
C800 C799 1.389 . S
C800 C801 1.387 . S
C801 H786 0.930 . S
C801 C796 1.390 . S
C801 C800 1.387 . S
H802 C814 0.930 . S
H803 C816 0.930 . S
H804 C817 0.930 . S
H805 C821 0.959 . S
H806 C821 0.959 . S
H807 C821 0.961 . S
H808 C822 0.960 . S
H809 C822 0.961 . S
H810 C822 0.959 . S
H811 C825 0.929 . S
H812 C826 0.931 . S
H813 C828 0.930 . S
C814 H802 0.930 . S
C814 C815 1.399 . S
C814 C819 1.399 . S
C815 C814 1.399 . S
C815 C816 1.376 . S
C816 H803 0.930 . S
C816 C815 1.376 . S
C816 C817 1.388 . S
C817 H804 0.930 . S
C817 C816 1.388 . S
C817 C818 1.390 . S
C818 C817 1.390 . S
C818 C819 1.394 . S
C818 C824 1.465 . S
C819 C814 1.399 . S
C819 C818 1.394 . S
C819 C820 1.516 . S
C820 C819 1.516 . S
C820 C821 1.502 . S
C820 C822 1.561 . S
C820 C823 1.526 . S
C821 H805 0.959 . S
C821 H806 0.959 . S
C821 H807 0.961 . S
C821 C820 1.502 . S
C822 H808 0.960 . S
C822 H809 0.961 . S
C822 H810 0.959 . S
C822 C820 1.561 . S
C823 C820 1.526 . S
C823 C824 1.396 . S
C823 C828 1.390 . S
C824 C818 1.465 . S
C824 C823 1.396 . S
C824 C825 1.399 . S
C825 H811 0.929 . S
C825 C824 1.399 . S
C825 C826 1.385 . S
C826 H812 0.931 . S
C826 C825 1.385 . S
C826 C827 1.389 . S
C827 C826 1.389 . S
C827 C828 1.387 . S
C828 H813 0.930 . S
C828 C823 1.390 . S
C828 C827 1.387 . S
H829 C841 0.930 . S
H830 C843 0.930 . S
H831 C844 0.930 . S
H832 C848 0.959 . S
H833 C848 0.959 . S
H834 C848 0.961 . S
H835 C849 0.960 . S
H836 C849 0.961 . S
H837 C849 0.959 . S
H838 C852 0.929 . S
H839 C853 0.931 . S
H840 C855 0.930 . S
C841 H829 0.930 . S
C841 C842 1.399 . S
C841 C846 1.399 . S
C842 C841 1.399 . S
C842 C843 1.376 . S
C843 H830 0.930 . S
C843 C842 1.376 . S
C843 C844 1.388 . S
C844 H831 0.930 . S
C844 C843 1.388 . S
C844 C845 1.390 . S
C845 C844 1.390 . S
C845 C846 1.394 . S
C845 C851 1.465 . S
C846 C841 1.399 . S
C846 C845 1.394 . S
C846 C847 1.516 . S
C847 C846 1.516 . S
C847 C848 1.502 . S
C847 C849 1.561 . S
C847 C850 1.526 . S
C848 H832 0.959 . S
C848 H833 0.959 . S
C848 H834 0.961 . S
C848 C847 1.502 . S
C849 H835 0.960 . S
C849 H836 0.961 . S
C849 H837 0.959 . S
C849 C847 1.561 . S
C850 C847 1.526 . S
C850 C851 1.396 . S
C850 C855 1.390 . S
C851 C845 1.465 . S
C851 C850 1.396 . S
C851 C852 1.399 . S
C852 H838 0.929 . S
C852 C851 1.399 . S
C852 C853 1.385 . S
C853 H839 0.931 . S
C853 C852 1.385 . S
C853 C854 1.389 . S
C854 C853 1.389 . S
C854 C855 1.387 . S
C855 H840 0.930 . S
C855 C850 1.390 . S
C855 C854 1.387 . S
H856 C868 0.930 . S
H857 C870 0.930 . S
H858 C871 0.930 . S
H859 C875 0.959 . S
H860 C875 0.959 . S
H861 C875 0.961 . S
H862 C876 0.960 . S
H863 C876 0.961 . S
H864 C876 0.959 . S
H865 C879 0.929 . S
H866 C880 0.931 . S
H867 C882 0.930 . S
C868 H856 0.930 . S
C868 C869 1.399 . S
C868 C873 1.399 . S
C869 C868 1.399 . S
C869 C870 1.376 . S
C870 H857 0.930 . S
C870 C869 1.376 . S
C870 C871 1.388 . S
C871 H858 0.930 . S
C871 C870 1.388 . S
C871 C872 1.390 . S
C872 C871 1.390 . S
C872 C873 1.394 . S
C872 C878 1.465 . S
C873 C868 1.399 . S
C873 C872 1.394 . S
C873 C874 1.516 . S
C874 C873 1.516 . S
C874 C875 1.502 . S
C874 C876 1.561 . S
C874 C877 1.526 . S
C875 H859 0.959 . S
C875 H860 0.959 . S
C875 H861 0.961 . S
C875 C874 1.502 . S
C876 H862 0.960 . S
C876 H863 0.961 . S
C876 H864 0.959 . S
C876 C874 1.561 . S
C877 C874 1.526 . S
C877 C878 1.396 . S
C877 C882 1.390 . S
C878 C872 1.465 . S
C878 C877 1.396 . S
C878 C879 1.399 . S
C879 H865 0.929 . S
C879 C878 1.399 . S
C879 C880 1.385 . S
C880 H866 0.931 . S
C880 C879 1.385 . S
C880 C881 1.389 . S
C881 C880 1.389 . S
C881 C882 1.387 . S
C882 H867 0.930 . S
C882 C877 1.390 . S
C882 C881 1.387 . S
H883 C895 0.930 . S
H884 C897 0.930 . S
H885 C898 0.930 . S
H886 C902 0.959 . S
H887 C902 0.959 . S
H888 C902 0.961 . S
H889 C903 0.960 . S
H890 C903 0.961 . S
H891 C903 0.959 . S
H892 C906 0.929 . S
H893 C907 0.931 . S
H894 C909 0.930 . S
C895 H883 0.930 . S
C895 C896 1.399 . S
C895 C900 1.399 . S
C896 C895 1.399 . S
C896 C897 1.376 . S
C897 H884 0.930 . S
C897 C896 1.376 . S
C897 C898 1.388 . S
C898 H885 0.930 . S
C898 C897 1.388 . S
C898 C899 1.390 . S
C899 C898 1.390 . S
C899 C900 1.394 . S
C899 C905 1.465 . S
C900 C895 1.399 . S
C900 C899 1.394 . S
C900 C901 1.516 . S
C901 C900 1.516 . S
C901 C902 1.502 . S
C901 C903 1.561 . S
C901 C904 1.526 . S
C902 H886 0.959 . S
C902 H887 0.959 . S
C902 H888 0.961 . S
C902 C901 1.502 . S
C903 H889 0.960 . S
C903 H890 0.961 . S
C903 H891 0.959 . S
C903 C901 1.561 . S
C904 C901 1.526 . S
C904 C905 1.396 . S
C904 C909 1.390 . S
C905 C899 1.465 . S
C905 C904 1.396 . S
C905 C906 1.399 . S
C906 H892 0.929 . S
C906 C905 1.399 . S
C906 C907 1.385 . S
C907 H893 0.931 . S
C907 C906 1.385 . S
C907 C908 1.389 . S
C908 C907 1.389 . S
C908 C909 1.387 . S
C909 H894 0.930 . S
C909 C904 1.390 . S
C909 C908 1.387 . S
H910 C922 0.930 . S
H911 C924 0.930 . S
H912 C925 0.930 . S
H913 C929 0.959 . S
H914 C929 0.959 . S
H915 C929 0.961 . S
H916 C930 0.960 . S
H917 C930 0.961 . S
H918 C930 0.959 . S
H919 C933 0.929 . S
H920 C934 0.931 . S
H921 C936 0.930 . S
C922 H910 0.930 . S
C922 C923 1.399 . S
C922 C927 1.399 1_554 S
C923 C922 1.399 . S
C923 C924 1.376 . S
C924 H911 0.930 . S
C924 C923 1.376 . S
C924 C925 1.388 1_554 S
C925 H912 0.930 . S
C925 C924 1.388 1_556 S
C925 C926 1.390 . S
C926 C925 1.390 . S
C926 C927 1.394 . S
C926 C932 1.465 . S
C927 C922 1.399 1_556 S
C927 C926 1.394 . S
C927 C928 1.516 . S
C928 C927 1.516 . S
C928 C929 1.502 . S
C928 C930 1.561 . S
C928 C931 1.526 . S
C929 H913 0.959 . S
C929 H914 0.959 . S
C929 H915 0.961 . S
C929 C928 1.502 . S
C930 H916 0.960 . S
C930 H917 0.961 . S
C930 H918 0.959 . S
C930 C928 1.561 . S
C931 C928 1.526 . S
C931 C932 1.396 . S
C931 C936 1.390 . S
C932 C926 1.465 . S
C932 C931 1.396 . S
C932 C933 1.399 . S
C933 H919 0.929 . S
C933 C932 1.399 . S
C933 C934 1.385 . S
C934 H920 0.931 . S
C934 C933 1.385 . S
C934 C935 1.389 . S
C935 C934 1.389 . S
C935 C936 1.387 . S
C936 H921 0.930 . S
C936 C931 1.390 . S
C936 C935 1.387 . S
H937 C949 0.930 . S
H938 C951 0.930 . S
H939 C952 0.930 . S
H940 C956 0.959 . S
H941 C956 0.959 . S
H942 C956 0.961 . S
H943 C957 0.960 . S
H944 C957 0.961 . S
H945 C957 0.959 . S
H946 C960 0.929 . S
H947 C961 0.931 . S
H948 C963 0.930 . S
C949 H937 0.930 . S
C949 C950 1.399 . S
C949 C954 1.399 . S
C950 C949 1.399 . S
C950 C951 1.376 . S
C951 H938 0.930 . S
C951 C950 1.376 . S
C951 C952 1.388 . S
C952 H939 0.930 . S
C952 C951 1.388 . S
C952 C953 1.390 . S
C953 C952 1.390 . S
C953 C954 1.394 . S
C953 C959 1.465 . S
C954 C949 1.399 . S
C954 C953 1.394 . S
C954 C955 1.516 . S
C955 C954 1.516 . S
C955 C956 1.502 . S
C955 C957 1.561 . S
C955 C958 1.526 . S
C956 H940 0.959 . S
C956 H941 0.959 . S
C956 H942 0.961 . S
C956 C955 1.502 . S
C957 H943 0.960 . S
C957 H944 0.961 . S
C957 H945 0.959 . S
C957 C955 1.561 . S
C958 C955 1.526 . S
C958 C959 1.396 . S
C958 C963 1.390 . S
C959 C953 1.465 . S
C959 C958 1.396 . S
C959 C960 1.399 . S
C960 H946 0.929 . S
C960 C959 1.399 . S
C960 C961 1.385 . S
C961 H947 0.931 . S
C961 C960 1.385 . S
C961 C962 1.389 . S
C962 C961 1.389 . S
C962 C963 1.387 . S
C963 H948 0.930 . S
C963 C958 1.390 . S
C963 C962 1.387 . S
H964 C976 0.930 . S
H965 C978 0.930 . S
H966 C979 0.930 . S
H967 C983 0.959 . S
H968 C983 0.959 . S
H969 C983 0.961 . S
H970 C984 0.960 . S
H971 C984 0.961 . S
H972 C984 0.959 . S
H973 C987 0.929 . S
H974 C988 0.931 . S
H975 C990 0.930 . S
C976 H964 0.930 . S
C976 C977 1.399 . S
C976 C981 1.399 . S
C977 C976 1.399 . S
C977 C978 1.376 . S
C978 H965 0.930 . S
C978 C977 1.376 . S
C978 C979 1.388 . S
C979 H966 0.930 . S
C979 C978 1.388 . S
C979 C980 1.390 . S
C980 C979 1.390 . S
C980 C981 1.394 . S
C980 C986 1.465 . S
C981 C976 1.399 . S
C981 C980 1.394 . S
C981 C982 1.516 . S
C982 C981 1.516 . S
C982 C983 1.502 . S
C982 C984 1.561 . S
C982 C985 1.526 . S
C983 H967 0.959 . S
C983 H968 0.959 . S
C983 H969 0.961 . S
C983 C982 1.502 . S
C984 H970 0.960 . S
C984 H971 0.961 . S
C984 H972 0.959 . S
C984 C982 1.561 . S
C985 C982 1.526 . S
C985 C986 1.396 . S
C985 C990 1.390 . S
C986 C980 1.465 . S
C986 C985 1.396 . S
C986 C987 1.399 . S
C987 H973 0.929 . S
C987 C986 1.399 . S
C987 C988 1.385 . S
C988 H974 0.931 . S
C988 C987 1.385 . S
C988 C989 1.389 . S
C989 C988 1.389 . S
C989 C990 1.387 . S
C990 H975 0.930 . S
C990 C985 1.390 . S
C990 C989 1.387 . S
H991 C1003 0.930 . S
H992 C1005 0.930 . S
H993 C1006 0.930 . S
H994 C1010 0.959 . S
H995 C1010 0.959 . S
H996 C1010 0.961 . S
H997 C1011 0.960 . S
H998 C1011 0.961 . S
H999 C1011 0.959 . S
H1000 C1014 0.929 . S
H1001 C1015 0.931 . S
H1002 C1017 0.930 . S
C1003 H991 0.930 . S
C1003 C1004 1.399 . S
C1003 C1008 1.399 . S
C1004 C1003 1.399 . S
C1004 C1005 1.376 . S
C1005 H992 0.930 . S
C1005 C1004 1.376 . S
C1005 C1006 1.388 . S
C1006 H993 0.930 . S
C1006 C1005 1.388 . S
C1006 C1007 1.390 . S
C1007 C1006 1.390 . S
C1007 C1008 1.394 . S
C1007 C1013 1.465 . S
C1008 C1003 1.399 . S
C1008 C1007 1.394 . S
C1008 C1009 1.516 . S
C1009 C1008 1.516 . S
C1009 C1010 1.502 . S
C1009 C1011 1.561 . S
C1009 C1012 1.526 . S
C1010 H994 0.959 . S
C1010 H995 0.959 . S
C1010 H996 0.961 . S
C1010 C1009 1.502 . S
C1011 H997 0.960 . S
C1011 H998 0.961 . S
C1011 H999 0.959 . S
C1011 C1009 1.561 . S
C1012 C1009 1.526 . S
C1012 C1013 1.396 . S
C1012 C1017 1.390 . S
C1013 C1007 1.465 . S
C1013 C1012 1.396 . S
C1013 C1014 1.399 . S
C1014 H1000 0.929 . S
C1014 C1013 1.399 . S
C1014 C1015 1.385 . S
C1015 H1001 0.931 . S
C1015 C1014 1.385 . S
C1015 C1016 1.389 . S
C1016 C1015 1.389 . S
C1016 C1017 1.387 . S
C1017 H1002 0.930 . S
C1017 C1012 1.390 . S
C1017 C1016 1.387 . S
H1018 C1030 0.930 . S
H1019 C1032 0.930 . S
H1020 C1033 0.930 . S
H1021 C1037 0.959 . S
H1022 C1037 0.959 . S
H1023 C1037 0.961 . S
H1024 C1038 0.960 . S
H1025 C1038 0.961 . S
H1026 C1038 0.959 . S
H1027 C1041 0.929 . S
H1028 C1042 0.931 . S
H1029 C1044 0.930 . S
C1030 H1018 0.930 . S
C1030 C1031 1.399 . S
C1030 C1035 1.399 . S
C1031 C1030 1.399 . S
C1031 C1032 1.376 . S
C1032 H1019 0.930 . S
C1032 C1031 1.376 . S
C1032 C1033 1.388 . S
C1033 H1020 0.930 . S
C1033 C1032 1.388 . S
C1033 C1034 1.390 . S
C1034 C1033 1.390 . S
C1034 C1035 1.394 . S
C1034 C1040 1.465 . S
C1035 C1030 1.399 . S
C1035 C1034 1.394 . S
C1035 C1036 1.516 . S
C1036 C1035 1.516 . S
C1036 C1037 1.502 . S
C1036 C1038 1.561 . S
C1036 C1039 1.526 . S
C1037 H1021 0.959 . S
C1037 H1022 0.959 . S
C1037 H1023 0.961 . S
C1037 C1036 1.502 . S
C1038 H1024 0.960 . S
C1038 H1025 0.961 . S
C1038 H1026 0.959 . S
C1038 C1036 1.561 . S
C1039 C1036 1.526 . S
C1039 C1040 1.396 . S
C1039 C1044 1.390 . S
C1040 C1034 1.465 . S
C1040 C1039 1.396 . S
C1040 C1041 1.399 . S
C1041 H1027 0.929 . S
C1041 C1040 1.399 . S
C1041 C1042 1.385 1_554 S
C1042 H1028 0.931 . S
C1042 C1041 1.385 1_556 S
C1042 C1043 1.389 . S
C1043 C1042 1.389 . S
C1043 C1044 1.387 1_556 S
C1044 H1029 0.930 . S
C1044 C1039 1.390 . S
C1044 C1043 1.387 1_554 S
H1045 C1057 0.930 . S
H1046 C1059 0.930 . S
H1047 C1060 0.930 . S
H1048 C1064 0.959 . S
H1049 C1064 0.959 . S
H1050 C1064 0.961 . S
H1051 C1065 0.960 . S
H1052 C1065 0.961 . S
H1053 C1065 0.959 . S
H1054 C1068 0.929 . S
H1055 C1069 0.931 . S
H1056 C1071 0.930 . S
C1057 H1045 0.930 . S
C1057 C1058 1.399 . S
C1057 C1062 1.399 . S
C1058 C1057 1.399 . S
C1058 C1059 1.376 . S
C1059 H1046 0.930 . S
C1059 C1058 1.376 . S
C1059 C1060 1.388 . S
C1060 H1047 0.930 . S
C1060 C1059 1.388 . S
C1060 C1061 1.390 . S
C1061 C1060 1.390 . S
C1061 C1062 1.394 . S
C1061 C1067 1.465 . S
C1062 C1057 1.399 . S
C1062 C1061 1.394 . S
C1062 C1063 1.516 . S
C1063 C1062 1.516 . S
C1063 C1064 1.502 . S
C1063 C1065 1.561 . S
C1063 C1066 1.526 . S
C1064 H1048 0.959 . S
C1064 H1049 0.959 . S
C1064 H1050 0.961 . S
C1064 C1063 1.502 . S
C1065 H1051 0.960 . S
C1065 H1052 0.961 . S
C1065 H1053 0.959 . S
C1065 C1063 1.561 . S
C1066 C1063 1.526 . S
C1066 C1067 1.396 . S
C1066 C1071 1.390 . S
C1067 C1061 1.465 . S
C1067 C1066 1.396 . S
C1067 C1068 1.399 . S
C1068 H1054 0.929 . S
C1068 C1067 1.399 . S
C1068 C1069 1.385 . S
C1069 H1055 0.931 . S
C1069 C1068 1.385 . S
C1069 C1070 1.389 . S
C1070 C1069 1.389 . S
C1070 C1071 1.387 . S
C1071 H1056 0.930 . S
C1071 C1066 1.390 . S
C1071 C1070 1.387 . S
H1072 C1084 0.930 . S
H1073 C1086 0.930 . S
H1074 C1087 0.930 . S
H1075 C1091 0.959 . S
H1076 C1091 0.959 . S
H1077 C1091 0.961 . S
H1078 C1092 0.956 1_455 S
H1079 C1092 0.957 1_455 S
H1080 C1092 0.981 . S
H1081 C1095 0.929 . S
H1082 C1096 0.931 . S
H1083 C1098 0.930 . S
C1084 H1072 0.930 . S
C1084 C1085 1.399 . S
C1084 C1089 1.399 . S
C1085 C1084 1.399 . S
C1085 C1086 1.376 1_455 S
C1086 H1073 0.930 . S
C1086 C1085 1.376 1_655 S
C1086 C1087 1.388 . S
C1087 H1074 0.930 . S
C1087 C1086 1.388 . S
C1087 C1088 1.391 1_655 S
C1088 C1087 1.391 1_455 S
C1088 C1089 1.392 . S
C1088 C1094 1.465 1_455 S
C1089 C1084 1.399 . S
C1089 C1088 1.392 . S
C1089 C1090 1.516 . S
C1090 C1089 1.516 . S
C1090 C1091 1.502 . S
C1090 C1092 1.548 1_455 S
C1090 C1093 1.526 . S
C1091 H1075 0.959 . S
C1091 H1076 0.959 . S
C1091 H1077 0.961 . S
C1091 C1090 1.502 . S
C1092 H1078 0.956 1_655 S
C1092 H1079 0.957 1_655 S
C1092 H1080 0.981 . S
C1092 C1090 1.548 1_655 S
C1093 C1090 1.526 . S
C1093 C1094 1.396 1_455 S
C1093 C1098 1.390 . S
C1094 C1088 1.465 1_655 S
C1094 C1093 1.396 1_655 S
C1094 C1095 1.399 . S
C1095 H1081 0.929 . S
C1095 C1094 1.399 . S
C1095 C1096 1.385 . S
C1096 H1082 0.931 . S
C1096 C1095 1.385 . S
C1096 C1097 1.390 1_655 S
C1097 C1096 1.390 1_455 S
C1097 C1098 1.386 . S
C1098 H1083 0.930 . S
C1098 C1093 1.390 . S
C1098 C1097 1.386 . S
H1099 C1111 0.930 . S
H1100 C1113 0.930 . S
H1101 C1114 0.930 . S
H1102 C1118 0.959 . S
H1103 C1118 0.959 . S
H1104 C1118 0.961 1_655 S
H1105 C1119 0.960 1_655 S
H1106 C1119 0.961 . S
H1107 C1119 0.959 . S
H1108 C1122 0.929 . S
H1109 C1123 0.931 . S
H1110 C1125 0.930 . S
C1111 H1099 0.930 . S
C1111 C1112 1.399 . S
C1111 C1116 1.399 . S
C1112 C1111 1.399 . S
C1112 C1113 1.376 . S
C1113 H1100 0.930 . S
C1113 C1112 1.376 . S
C1113 C1114 1.388 . S
C1114 H1101 0.930 . S
C1114 C1113 1.388 . S
C1114 C1115 1.390 . S
C1115 C1114 1.390 . S
C1115 C1116 1.394 . S
C1115 C1121 1.465 1_655 S
C1116 C1111 1.399 . S
C1116 C1115 1.394 . S
C1116 C1117 1.516 1_655 S
C1117 C1116 1.516 1_455 S
C1117 C1118 1.502 . S
C1117 C1119 1.561 . S
C1117 C1120 1.526 . S
C1118 H1102 0.959 . S
C1118 H1103 0.959 . S
C1118 H1104 0.961 1_455 S
C1118 C1117 1.502 . S
C1119 H1105 0.960 1_455 S
C1119 H1106 0.961 . S
C1119 H1107 0.959 . S
C1119 C1117 1.561 . S
C1120 C1117 1.526 . S
C1120 C1121 1.396 . S
C1120 C1125 1.390 . S
C1121 C1115 1.465 1_455 S
C1121 C1120 1.396 . S
C1121 C1122 1.399 . S
C1122 H1108 0.929 . S
C1122 C1121 1.399 . S
C1122 C1123 1.385 . S
C1123 H1109 0.931 . S
C1123 C1122 1.385 . S
C1123 C1124 1.389 . S
C1124 C1123 1.389 . S
C1124 C1125 1.387 . S
C1125 H1110 0.930 . S
C1125 C1120 1.390 . S
C1125 C1124 1.387 . S
H1126 C1138 0.930 . S
H1127 C1140 0.930 . S
H1128 C1141 0.930 . S
H1129 C1145 0.959 . S
H1130 C1145 0.959 . S
H1131 C1145 0.961 . S
H1132 C1146 0.960 . S
H1133 C1146 0.961 . S
H1134 C1146 0.959 . S
H1135 C1149 0.929 . S
H1136 C1150 0.931 . S
H1137 C1152 0.930 . S
C1138 H1126 0.930 . S
C1138 C1139 1.399 . S
C1138 C1143 1.399 . S
C1139 C1138 1.399 . S
C1139 C1140 1.376 . S
C1140 H1127 0.930 . S
C1140 C1139 1.376 . S
C1140 C1141 1.388 . S
C1141 H1128 0.930 . S
C1141 C1140 1.388 . S
C1141 C1142 1.390 . S
C1142 C1141 1.390 . S
C1142 C1143 1.394 . S
C1142 C1148 1.465 . S
C1143 C1138 1.399 . S
C1143 C1142 1.394 . S
C1143 C1144 1.516 . S
C1144 C1143 1.516 . S
C1144 C1145 1.502 . S
C1144 C1146 1.561 . S
C1144 C1147 1.526 . S
C1145 H1129 0.959 . S
C1145 H1130 0.959 . S
C1145 H1131 0.961 . S
C1145 C1144 1.502 . S
C1146 H1132 0.960 . S
C1146 H1133 0.961 . S
C1146 H1134 0.959 . S
C1146 C1144 1.561 . S
C1147 C1144 1.526 . S
C1147 C1148 1.396 . S
C1147 C1152 1.390 . S
C1148 C1142 1.465 . S
C1148 C1147 1.396 . S
C1148 C1149 1.399 . S
C1149 H1135 0.929 . S
C1149 C1148 1.399 . S
C1149 C1150 1.385 . S
C1150 H1136 0.931 . S
C1150 C1149 1.385 . S
C1150 C1151 1.389 . S
C1151 C1150 1.389 . S
C1151 C1152 1.387 . S
C1152 H1137 0.930 . S
C1152 C1147 1.390 . S
C1152 C1151 1.387 . S
H1153 C1165 0.930 . S
H1154 C1167 0.930 . S
H1155 C1168 0.930 . S
H1156 C1172 0.959 . S
H1157 C1172 0.959 . S
H1158 C1172 0.961 . S
H1159 C1173 0.960 . S
H1160 C1173 0.961 . S
H1161 C1173 0.959 . S
H1162 C1176 0.929 . S
H1163 C1177 0.931 . S
H1164 C1179 0.930 . S
C1165 H1153 0.930 . S
C1165 C1166 1.399 . S
C1165 C1170 1.399 . S
C1166 C1165 1.399 . S
C1166 C1167 1.376 . S
C1167 H1154 0.930 . S
C1167 C1166 1.376 . S
C1167 C1168 1.388 . S
C1168 H1155 0.930 . S
C1168 C1167 1.388 . S
C1168 C1169 1.390 . S
C1169 C1168 1.390 . S
C1169 C1170 1.394 . S
C1169 C1175 1.465 . S
C1170 C1165 1.399 . S
C1170 C1169 1.394 . S
C1170 C1171 1.516 . S
C1171 C1170 1.516 . S
C1171 C1172 1.502 . S
C1171 C1173 1.561 . S
C1171 C1174 1.526 . S
C1172 H1156 0.959 . S
C1172 H1157 0.959 . S
C1172 H1158 0.961 . S
C1172 C1171 1.502 . S
C1173 H1159 0.960 . S
C1173 H1160 0.961 . S
C1173 H1161 0.959 . S
C1173 C1171 1.561 . S
C1174 C1171 1.526 . S
C1174 C1175 1.396 . S
C1174 C1179 1.390 . S
C1175 C1169 1.465 . S
C1175 C1174 1.396 . S
C1175 C1176 1.399 . S
C1176 H1162 0.929 . S
C1176 C1175 1.399 . S
C1176 C1177 1.385 . S
C1177 H1163 0.931 . S
C1177 C1176 1.385 . S
C1177 C1178 1.389 . S
C1178 C1177 1.389 . S
C1178 C1179 1.387 . S
C1179 H1164 0.930 . S
C1179 C1174 1.390 . S
C1179 C1178 1.387 . S
H1180 C1192 0.930 1_655 S
H1181 C1194 0.930 . S
H1182 C1195 0.930 . S
H1183 C1199 0.959 . S
H1184 C1199 0.959 . S
H1185 C1199 0.961 . S
H1186 C1200 0.960 . S
H1187 C1200 0.961 . S
H1188 C1200 0.959 . S
H1189 C1203 0.929 . S
H1190 C1204 0.931 . S
H1191 C1206 0.930 . S
C1192 H1180 0.930 1_455 S
C1192 C1193 1.399 . S
C1192 C1197 1.399 . S
C1193 C1192 1.399 . S
C1193 C1194 1.376 . S
C1194 H1181 0.930 . S
C1194 C1193 1.376 . S
C1194 C1195 1.388 . S
C1195 H1182 0.930 . S
C1195 C1194 1.388 . S
C1195 C1196 1.390 . S
C1196 C1195 1.390 . S
C1196 C1197 1.394 . S
C1196 C1202 1.465 . S
C1197 C1192 1.399 . S
C1197 C1196 1.394 . S
C1197 C1198 1.516 1_455 S
C1198 C1197 1.516 1_655 S
C1198 C1199 1.502 . S
C1198 C1200 1.561 1_655 S
C1198 C1201 1.526 1_655 S
C1199 H1183 0.959 . S
C1199 H1184 0.959 . S
C1199 H1185 0.961 . S
C1199 C1198 1.502 . S
C1200 H1186 0.960 . S
C1200 H1187 0.961 . S
C1200 H1188 0.959 . S
C1200 C1198 1.561 1_455 S
C1201 C1198 1.526 1_455 S
C1201 C1202 1.396 . S
C1201 C1206 1.390 1_455 S
C1202 C1196 1.465 . S
C1202 C1201 1.396 . S
C1202 C1203 1.399 . S
C1203 H1189 0.929 . S
C1203 C1202 1.399 . S
C1203 C1204 1.385 . S
C1204 H1190 0.931 . S
C1204 C1203 1.385 . S
C1204 C1205 1.389 . S
C1205 C1204 1.389 . S
C1205 C1206 1.387 1_455 S
C1206 H1191 0.930 . S
C1206 C1201 1.390 1_655 S
C1206 C1205 1.387 1_655 S
H1207 C1219 0.930 . S
H1208 C1221 0.930 . S
H1209 C1222 0.930 . S
H1210 C1226 0.959 . S
H1211 C1226 0.959 . S
H1212 C1226 0.961 . S
H1213 C1227 0.960 . S
H1214 C1227 0.961 . S
H1215 C1227 0.959 . S
H1216 C1230 0.929 . S
H1217 C1231 0.931 . S
H1218 C1233 0.930 . S
C1219 H1207 0.930 . S
C1219 C1220 1.399 . S
C1219 C1224 1.399 . S
C1220 C1219 1.399 . S
C1220 C1221 1.376 . S
C1221 H1208 0.930 . S
C1221 C1220 1.376 . S
C1221 C1222 1.388 . S
C1222 H1209 0.930 . S
C1222 C1221 1.388 . S
C1222 C1223 1.390 . S
C1223 C1222 1.390 . S
C1223 C1224 1.394 . S
C1223 C1229 1.465 . S
C1224 C1219 1.399 . S
C1224 C1223 1.394 . S
C1224 C1225 1.516 . S
C1225 C1224 1.516 . S
C1225 C1226 1.502 . S
C1225 C1227 1.561 . S
C1225 C1228 1.526 . S
C1226 H1210 0.959 . S
C1226 H1211 0.959 . S
C1226 H1212 0.961 . S
C1226 C1225 1.502 . S
C1227 H1213 0.960 . S
C1227 H1214 0.961 . S
C1227 H1215 0.959 . S
C1227 C1225 1.561 . S
C1228 C1225 1.526 . S
C1228 C1229 1.396 . S
C1228 C1233 1.390 . S
C1229 C1223 1.465 . S
C1229 C1228 1.396 . S
C1229 C1230 1.399 . S
C1230 H1216 0.929 . S
C1230 C1229 1.399 . S
C1230 C1231 1.385 . S
C1231 H1217 0.931 . S
C1231 C1230 1.385 . S
C1231 C1232 1.389 . S
C1232 C1231 1.389 . S
C1232 C1233 1.387 . S
C1233 H1218 0.930 . S
C1233 C1228 1.390 . S
C1233 C1232 1.387 . S
H1234 C1246 0.930 . S
H1235 C1248 0.930 . S
H1236 C1249 0.930 . S
H1237 C1253 0.959 . S
H1238 C1253 0.959 . S
H1239 C1253 0.961 . S
H1240 C1254 0.960 . S
H1241 C1254 0.961 . S
H1242 C1254 0.959 . S
H1243 C1257 0.929 . S
H1244 C1258 0.931 . S
H1245 C1260 0.930 . S
C1246 H1234 0.930 . S
C1246 C1247 1.399 . S
C1246 C1251 1.399 . S
C1247 C1246 1.399 . S
C1247 C1248 1.376 . S
C1248 H1235 0.930 . S
C1248 C1247 1.376 . S
C1248 C1249 1.388 . S
C1249 H1236 0.930 . S
C1249 C1248 1.388 . S
C1249 C1250 1.390 . S
C1250 C1249 1.390 . S
C1250 C1251 1.394 . S
C1250 C1256 1.465 . S
C1251 C1246 1.399 . S
C1251 C1250 1.394 . S
C1251 C1252 1.516 . S
C1252 C1251 1.516 . S
C1252 C1253 1.502 . S
C1252 C1254 1.561 . S
C1252 C1255 1.526 . S
C1253 H1237 0.959 . S
C1253 H1238 0.959 . S
C1253 H1239 0.961 . S
C1253 C1252 1.502 . S
C1254 H1240 0.960 . S
C1254 H1241 0.961 . S
C1254 H1242 0.959 . S
C1254 C1252 1.561 . S
C1255 C1252 1.526 . S
C1255 C1256 1.396 . S
C1255 C1260 1.390 . S
C1256 C1250 1.465 . S
C1256 C1255 1.396 . S
C1256 C1257 1.399 . S
C1257 H1243 0.929 . S
C1257 C1256 1.399 . S
C1257 C1258 1.385 . S
C1258 H1244 0.931 . S
C1258 C1257 1.385 . S
C1258 C1259 1.389 . S
C1259 C1258 1.389 . S
C1259 C1260 1.387 . S
C1260 H1245 0.930 . S
C1260 C1255 1.390 . S
C1260 C1259 1.387 . S
H1261 C1273 0.930 . S
H1262 C1275 0.930 . S
H1263 C1276 0.930 . S
H1264 C1280 0.959 . S
H1265 C1280 0.959 1_655 S
H1266 C1280 0.961 . S
H1267 C1281 0.960 . S
H1268 C1281 0.961 1_655 S
H1269 C1281 0.959 . S
H1270 C1284 0.929 . S
H1271 C1285 0.931 . S
H1272 C1287 0.930 . S
C1273 H1261 0.930 . S
C1273 C1274 1.399 . S
C1273 C1278 1.399 . S
C1274 C1273 1.399 . S
C1274 C1275 1.376 . S
C1275 H1262 0.930 . S
C1275 C1274 1.376 . S
C1275 C1276 1.388 . S
C1276 H1263 0.930 . S
C1276 C1275 1.388 . S
C1276 C1277 1.390 . S
C1277 C1276 1.390 . S
C1277 C1278 1.394 . S
C1277 C1283 1.465 1_455 S
C1278 C1273 1.399 . S
C1278 C1277 1.394 . S
C1278 C1279 1.516 . S
C1279 C1278 1.516 . S
C1279 C1280 1.502 . S
C1279 C1281 1.561 . S
C1279 C1282 1.526 1_455 S
C1280 H1264 0.959 . S
C1280 H1265 0.959 1_455 S
C1280 H1266 0.961 . S
C1280 C1279 1.502 . S
C1281 H1267 0.960 . S
C1281 H1268 0.961 1_455 S
C1281 H1269 0.959 . S
C1281 C1279 1.561 . S
C1282 C1279 1.526 1_655 S
C1282 C1283 1.396 . S
C1282 C1287 1.390 . S
C1283 C1277 1.465 1_655 S
C1283 C1282 1.396 . S
C1283 C1284 1.399 . S
C1284 H1270 0.929 . S
C1284 C1283 1.399 . S
C1284 C1285 1.385 . S
C1285 H1271 0.931 . S
C1285 C1284 1.385 . S
C1285 C1286 1.389 . S
C1286 C1285 1.389 . S
C1286 C1287 1.387 . S
C1287 H1272 0.930 . S
C1287 C1282 1.390 . S
C1287 C1286 1.387 . S
H1288 C1300 0.930 . S
H1289 C1302 0.930 . S
H1290 C1303 0.930 1_556 S
H1291 C1307 0.959 . S
H1292 C1307 0.959 . S
H1293 C1307 0.961 . S
H1294 C1308 0.960 . S
H1295 C1308 0.961 . S
H1296 C1308 0.959 1_655 S
H1297 C1311 0.929 . S
H1298 C1312 0.931 . S
H1299 C1314 0.930 . S
C1300 H1288 0.930 . S
C1300 C1301 1.405 . S
C1300 C1305 1.399 . S
C1301 C1300 1.405 . S
C1301 C1302 1.369 1_455 S
C1302 H1289 0.930 . S
C1302 C1301 1.369 1_655 S
C1302 C1303 1.388 . S
C1303 H1290 0.930 1_554 S
C1303 C1302 1.388 . S
C1303 C1304 1.390 . S
C1304 C1303 1.390 . S
C1304 C1305 1.394 1_655 S
C1304 C1310 1.467 1_544 S
C1305 C1300 1.399 . S
C1305 C1304 1.394 1_455 S
C1305 C1306 1.516 1_545 S
C1306 C1305 1.516 1_565 S
C1306 C1307 1.502 . S
C1306 C1308 1.561 . S
C1306 C1309 1.526 1_554 S
C1307 H1291 0.959 . S
C1307 H1292 0.959 . S
C1307 H1293 0.961 . S
C1307 C1306 1.502 . S
C1308 H1294 0.960 . S
C1308 H1295 0.961 . S
C1308 H1296 0.959 1_455 S
C1308 C1306 1.561 . S
C1309 C1306 1.526 1_556 S
C1309 C1310 1.393 1_455 S
C1309 C1314 1.390 . S
C1310 C1304 1.467 1_566 S
C1310 C1309 1.393 1_655 S
C1310 C1311 1.399 1_565 S
C1311 H1297 0.929 . S
C1311 C1310 1.399 1_545 S
C1311 C1312 1.385 1_545 S
C1312 H1298 0.931 . S
C1312 C1311 1.385 1_565 S
C1312 C1313 1.389 1_655 S
C1313 C1312 1.389 1_455 S
C1313 C1314 1.387 . S
C1314 H1299 0.930 . S
C1314 C1309 1.390 . S
C1314 C1313 1.387 . S
H1315 C1327 0.930 . S
H1316 C1329 0.930 . S
H1317 C1330 0.930 . S
H1318 C1334 0.959 . S
H1319 C1334 0.959 . S
H1320 C1334 0.961 . S
H1321 C1335 0.960 . S
H1322 C1335 0.961 . S
H1323 C1335 0.959 . S
H1324 C1338 0.929 . S
H1325 C1339 0.931 . S
H1326 C1341 0.930 . S
C1327 H1315 0.930 . S
C1327 C1328 1.399 . S
C1327 C1332 1.399 . S
C1328 C1327 1.399 . S
C1328 C1329 1.376 . S
C1329 H1316 0.930 . S
C1329 C1328 1.376 . S
C1329 C1330 1.388 . S
C1330 H1317 0.930 . S
C1330 C1329 1.388 . S
C1330 C1331 1.390 . S
C1331 C1330 1.390 . S
C1331 C1332 1.394 . S
C1331 C1337 1.465 . S
C1332 C1327 1.399 . S
C1332 C1331 1.394 . S
C1332 C1333 1.516 . S
C1333 C1332 1.516 . S
C1333 C1334 1.502 . S
C1333 C1335 1.561 . S
C1333 C1336 1.526 . S
C1334 H1318 0.959 . S
C1334 H1319 0.959 . S
C1334 H1320 0.961 . S
C1334 C1333 1.502 . S
C1335 H1321 0.960 . S
C1335 H1322 0.961 . S
C1335 H1323 0.959 . S
C1335 C1333 1.561 . S
C1336 C1333 1.526 . S
C1336 C1337 1.396 . S
C1336 C1341 1.390 . S
C1337 C1331 1.465 . S
C1337 C1336 1.396 . S
C1337 C1338 1.399 . S
C1338 H1324 0.929 . S
C1338 C1337 1.399 . S
C1338 C1339 1.385 . S
C1339 H1325 0.931 . S
C1339 C1338 1.385 . S
C1339 C1340 1.389 . S
C1340 C1339 1.389 . S
C1340 C1341 1.387 . S
C1341 H1326 0.930 . S
C1341 C1336 1.390 . S
C1341 C1340 1.387 . S
H1342 C1354 0.930 . S
H1343 C1356 0.930 . S
H1344 C1357 0.930 . S
H1345 C1361 0.959 . S
H1346 C1361 0.959 . S
H1347 C1361 0.961 . S
H1348 C1362 0.960 . S
H1349 C1362 0.961 . S
H1350 C1362 0.959 . S
H1351 C1365 0.929 . S
H1352 C1366 0.931 . S
H1353 C1368 0.951 . S
C1354 H1342 0.930 . S
C1354 C1355 1.399 . S
C1354 C1359 1.399 . S
C1355 C1354 1.399 . S
C1355 C1356 1.376 . S
C1356 H1343 0.930 . S
C1356 C1355 1.376 . S
C1356 C1357 1.388 1_545 S
C1357 H1344 0.930 . S
C1357 C1356 1.388 1_565 S
C1357 C1358 1.390 . S
C1358 C1357 1.390 . S
C1358 C1359 1.394 1_565 S
C1358 C1364 1.465 . S
C1359 C1354 1.399 . S
C1359 C1358 1.394 1_545 S
C1359 C1360 1.516 . S
C1360 C1359 1.516 . S
C1360 C1361 1.502 . S
C1360 C1362 1.561 . S
C1360 C1363 1.526 1_545 S
C1361 H1345 0.959 . S
C1361 H1346 0.959 . S
C1361 H1347 0.961 . S
C1361 C1360 1.502 . S
C1362 H1348 0.960 . S
C1362 H1349 0.961 . S
C1362 H1350 0.959 . S
C1362 C1360 1.561 . S
C1363 C1360 1.526 1_565 S
C1363 C1364 1.396 . S
C1363 C1368 1.390 . S
C1364 C1358 1.465 . S
C1364 C1363 1.396 . S
C1364 C1365 1.399 . S
C1365 H1351 0.929 . S
C1365 C1364 1.399 . S
C1365 C1366 1.385 . S
C1366 H1352 0.931 . S
C1366 C1365 1.385 . S
C1366 C1367 1.389 . S
C1367 C1366 1.389 . S
C1367 C1368 1.387 . S
C1368 H1353 0.951 . S
C1368 C1363 1.390 . S
C1368 C1367 1.387 . S
H1369 C1381 0.930 . S
H1370 C1383 0.930 . S
H1371 C1384 0.930 . S
H1372 C1388 0.959 . S
H1373 C1388 0.959 . S
H1374 C1388 0.961 . S
H1375 C1389 0.960 . S
H1376 C1389 0.961 . S
H1377 C1389 0.959 . S
H1378 C1392 0.929 . S
H1379 C1393 0.931 . S
H1380 C1395 0.930 . S
C1381 H1369 0.930 . S
C1381 C1382 1.399 . S
C1381 C1386 1.399 . S
C1382 C1381 1.399 . S
C1382 C1383 1.376 . S
C1383 H1370 0.930 . S
C1383 C1382 1.376 . S
C1383 C1384 1.388 . S
C1384 H1371 0.930 . S
C1384 C1383 1.388 . S
C1384 C1385 1.390 . S
C1385 C1384 1.390 . S
C1385 C1386 1.394 . S
C1385 C1391 1.465 . S
C1386 C1381 1.399 . S
C1386 C1385 1.394 . S
C1386 C1387 1.516 . S
C1387 C1386 1.516 . S
C1387 C1388 1.502 . S
C1387 C1389 1.561 . S
C1387 C1390 1.526 . S
C1388 H1372 0.959 . S
C1388 H1373 0.959 . S
C1388 H1374 0.961 . S
C1388 C1387 1.502 . S
C1389 H1375 0.960 . S
C1389 H1376 0.961 . S
C1389 H1377 0.959 . S
C1389 C1387 1.561 . S
C1390 C1387 1.526 . S
C1390 C1391 1.396 . S
C1390 C1395 1.390 . S
C1391 C1385 1.465 . S
C1391 C1390 1.396 . S
C1391 C1392 1.399 . S
C1392 H1378 0.929 . S
C1392 C1391 1.399 . S
C1392 C1393 1.385 . S
C1393 H1379 0.931 . S
C1393 C1392 1.385 . S
C1393 C1394 1.389 . S
C1394 C1393 1.389 . S
C1394 C1395 1.387 . S
C1395 H1380 0.930 . S
C1395 C1390 1.390 . S
C1395 C1394 1.387 . S
H1396 C1408 0.930 . S
H1397 C1410 0.930 . S
H1398 C1411 0.930 . S
H1399 C1415 0.959 . S
H1400 C1415 0.959 . S
H1401 C1415 0.961 . S
H1402 C1416 0.960 . S
H1403 C1416 0.961 . S
H1404 C1416 0.959 . S
H1405 C1419 0.929 . S
H1406 C1420 0.931 . S
H1407 C1422 0.930 . S
C1408 H1396 0.930 . S
C1408 C1409 1.399 . S
C1408 C1413 1.399 . S
C1409 C1408 1.399 . S
C1409 C1410 1.376 . S
C1410 H1397 0.930 . S
C1410 C1409 1.376 . S
C1410 C1411 1.388 . S
C1411 H1398 0.930 . S
C1411 C1410 1.388 . S
C1411 C1412 1.390 . S
C1412 C1411 1.390 . S
C1412 C1413 1.394 . S
C1412 C1418 1.465 . S
C1413 C1408 1.399 . S
C1413 C1412 1.394 . S
C1413 C1414 1.516 . S
C1414 C1413 1.516 . S
C1414 C1415 1.502 . S
C1414 C1416 1.561 . S
C1414 C1417 1.526 . S
C1415 H1399 0.959 . S
C1415 H1400 0.959 . S
C1415 H1401 0.961 . S
C1415 C1414 1.502 . S
C1416 H1402 0.960 . S
C1416 H1403 0.961 . S
C1416 H1404 0.959 . S
C1416 C1414 1.561 . S
C1417 C1414 1.526 . S
C1417 C1418 1.396 . S
C1417 C1422 1.390 . S
C1418 C1412 1.465 . S
C1418 C1417 1.396 . S
C1418 C1419 1.399 . S
C1419 H1405 0.929 . S
C1419 C1418 1.399 . S
C1419 C1420 1.385 . S
C1420 H1406 0.931 . S
C1420 C1419 1.385 . S
C1420 C1421 1.389 . S
C1421 C1420 1.389 . S
C1421 C1422 1.387 . S
C1422 H1407 0.930 . S
C1422 C1417 1.390 . S
C1422 C1421 1.387 . S
H1423 C1435 0.930 . S
H1424 C1437 0.930 . S
H1425 C1438 0.930 . S
H1426 C1442 0.959 . S
H1427 C1442 0.959 . S
H1428 C1442 0.961 . S
H1429 C1443 0.960 . S
H1430 C1443 0.961 . S
H1431 C1443 0.959 . S
H1432 C1446 0.929 . S
H1433 C1447 0.931 . S
H1434 C1449 0.930 . S
C1435 H1423 0.930 . S
C1435 C1436 1.399 . S
C1435 C1440 1.399 . S
C1436 C1435 1.399 . S
C1436 C1437 1.376 . S
C1437 H1424 0.930 . S
C1437 C1436 1.376 . S
C1437 C1438 1.388 . S
C1438 H1425 0.930 . S
C1438 C1437 1.388 . S
C1438 C1439 1.390 . S
C1439 C1438 1.390 . S
C1439 C1440 1.394 . S
C1439 C1445 1.465 . S
C1440 C1435 1.399 . S
C1440 C1439 1.394 . S
C1440 C1441 1.516 . S
C1441 C1440 1.516 . S
C1441 C1442 1.502 . S
C1441 C1443 1.561 . S
C1441 C1444 1.526 . S
C1442 H1426 0.959 . S
C1442 H1427 0.959 . S
C1442 H1428 0.961 . S
C1442 C1441 1.502 . S
C1443 H1429 0.960 . S
C1443 H1430 0.961 . S
C1443 H1431 0.959 . S
C1443 C1441 1.561 . S
C1444 C1441 1.526 . S
C1444 C1445 1.396 . S
C1444 C1449 1.390 . S
C1445 C1439 1.465 . S
C1445 C1444 1.396 . S
C1445 C1446 1.399 . S
C1446 H1432 0.929 . S
C1446 C1445 1.399 . S
C1446 C1447 1.385 . S
C1447 H1433 0.931 . S
C1447 C1446 1.385 . S
C1447 C1448 1.389 . S
C1448 C1447 1.389 . S
C1448 C1449 1.387 . S
C1449 H1434 0.930 . S
C1449 C1444 1.390 . S
C1449 C1448 1.387 . S
H1450 C1462 0.930 . S
H1451 C1464 0.930 . S
H1452 C1465 0.930 . S
H1453 C1469 0.959 . S
H1454 C1469 0.959 . S
H1455 C1469 0.961 . S
H1456 C1470 0.960 . S
H1457 C1470 0.961 . S
H1458 C1470 0.959 . S
H1459 C1473 0.929 . S
H1460 C1474 0.931 . S
H1461 C1476 0.930 . S
C1462 H1450 0.930 . S
C1462 C1463 1.399 . S
C1462 C1467 1.399 . S
C1463 C1462 1.399 . S
C1463 C1464 1.376 . S
C1464 H1451 0.930 . S
C1464 C1463 1.376 . S
C1464 C1465 1.388 . S
C1465 H1452 0.930 . S
C1465 C1464 1.388 . S
C1465 C1466 1.390 . S
C1466 C1465 1.390 . S
C1466 C1467 1.394 . S
C1466 C1472 1.465 . S
C1467 C1462 1.399 . S
C1467 C1466 1.394 . S
C1467 C1468 1.516 . S
C1468 C1467 1.516 . S
C1468 C1469 1.502 . S
C1468 C1470 1.561 . S
C1468 C1471 1.526 . S
C1469 H1453 0.959 . S
C1469 H1454 0.959 . S
C1469 H1455 0.961 . S
C1469 C1468 1.502 . S
C1470 H1456 0.960 . S
C1470 H1457 0.961 . S
C1470 H1458 0.959 . S
C1470 C1468 1.561 . S
C1471 C1468 1.526 . S
C1471 C1472 1.396 . S
C1471 C1476 1.390 . S
C1472 C1466 1.465 . S
C1472 C1471 1.396 . S
C1472 C1473 1.399 . S
C1473 H1459 0.929 . S
C1473 C1472 1.399 . S
C1473 C1474 1.385 . S
C1474 H1460 0.931 . S
C1474 C1473 1.385 . S
C1474 C1475 1.389 . S
C1475 C1474 1.389 . S
C1475 C1476 1.387 . S
C1476 H1461 0.930 . S
C1476 C1471 1.390 . S
C1476 C1475 1.387 . S
H1477 C1489 0.930 . S
H1478 C1491 0.930 . S
H1479 C1492 0.930 . S
H1480 C1496 0.959 1_554 S
H1481 C1496 0.959 1_554 S
H1482 C1496 0.961 . S
H1483 C1497 0.960 . S
H1484 C1497 0.961 . S
H1485 C1497 0.959 1_455 S
H1486 C1500 0.929 . S
H1487 C1501 0.931 . S
H1488 C1503 0.930 . S
C1489 H1477 0.930 . S
C1489 C1490 1.399 1_655 S
C1489 C1494 1.399 . S
C1490 C1489 1.399 1_455 S
C1490 C1491 1.376 . S
C1491 H1478 0.930 . S
C1491 C1490 1.376 . S
C1491 C1492 1.388 . S
C1492 H1479 0.930 . S
C1492 C1491 1.388 . S
C1492 C1493 1.390 . S
C1493 C1492 1.390 . S
C1493 C1494 1.394 1_455 S
C1493 C1499 1.465 1_556 S
C1494 C1489 1.399 . S
C1494 C1493 1.394 1_655 S
C1494 C1495 1.516 . S
C1495 C1494 1.516 . S
C1495 C1496 1.502 . S
C1495 C1497 1.561 . S
C1495 C1498 1.528 1_556 S
C1496 H1480 0.959 1_556 S
C1496 H1481 0.959 1_556 S
C1496 H1482 0.961 . S
C1496 C1495 1.502 . S
C1497 H1483 0.960 . S
C1497 H1484 0.961 . S
C1497 H1485 0.959 1_655 S
C1497 C1495 1.561 . S
C1498 C1495 1.528 1_554 S
C1498 C1499 1.393 1_655 S
C1498 C1503 1.390 . S
C1499 C1493 1.465 1_554 S
C1499 C1498 1.393 1_455 S
C1499 C1500 1.399 . S
C1500 H1486 0.929 . S
C1500 C1499 1.399 . S
C1500 C1501 1.385 . S
C1501 H1487 0.931 . S
C1501 C1500 1.385 . S
C1501 C1502 1.389 . S
C1502 C1501 1.389 . S
C1502 C1503 1.387 1_455 S
C1503 H1488 0.930 . S
C1503 C1498 1.390 . S
C1503 C1502 1.387 1_655 S
H1504 C1516 0.930 . S
H1505 C1518 0.930 . S
H1506 C1519 0.930 . S
H1507 C1523 0.959 . S
H1508 C1523 0.959 . S
H1509 C1523 0.961 . S
H1510 C1524 0.960 . S
H1511 C1524 0.961 . S
H1512 C1524 0.959 . S
H1513 C1527 0.929 . S
H1514 C1528 0.931 . S
H1515 C1530 0.930 . S
C1516 H1504 0.930 . S
C1516 C1517 1.399 . S
C1516 C1521 1.399 . S
C1517 C1516 1.399 . S
C1517 C1518 1.376 . S
C1518 H1505 0.930 . S
C1518 C1517 1.376 . S
C1518 C1519 1.388 . S
C1519 H1506 0.930 . S
C1519 C1518 1.388 . S
C1519 C1520 1.390 . S
C1520 C1519 1.390 . S
C1520 C1521 1.394 . S
C1520 C1526 1.465 . S
C1521 C1516 1.399 . S
C1521 C1520 1.394 . S
C1521 C1522 1.516 . S
C1522 C1521 1.516 . S
C1522 C1523 1.502 . S
C1522 C1524 1.561 . S
C1522 C1525 1.526 . S
C1523 H1507 0.959 . S
C1523 H1508 0.959 . S
C1523 H1509 0.961 . S
C1523 C1522 1.502 . S
C1524 H1510 0.960 . S
C1524 H1511 0.961 . S
C1524 H1512 0.959 . S
C1524 C1522 1.561 . S
C1525 C1522 1.526 . S
C1525 C1526 1.396 . S
C1525 C1530 1.390 . S
C1526 C1520 1.465 . S
C1526 C1525 1.396 . S
C1526 C1527 1.399 . S
C1527 H1513 0.929 . S
C1527 C1526 1.399 . S
C1527 C1528 1.385 . S
C1528 H1514 0.931 . S
C1528 C1527 1.385 . S
C1528 C1529 1.389 . S
C1529 C1528 1.389 . S
C1529 C1530 1.387 . S
C1530 H1515 0.930 . S
C1530 C1525 1.390 . S
C1530 C1529 1.387 . S
H1531 C1543 0.930 . S
H1532 C1545 0.930 . S
H1533 C1546 0.930 . S
H1534 C1550 0.959 . S
H1535 C1550 0.959 . S
H1536 C1550 0.961 . S
H1537 C1551 0.960 . S
H1538 C1551 0.961 . S
H1539 C1551 0.959 . S
H1540 C1554 0.929 . S
H1541 C1555 0.931 . S
H1542 C1557 0.930 . S
C1543 H1531 0.930 . S
C1543 C1544 1.399 . S
C1543 C1548 1.399 . S
C1544 C1543 1.399 . S
C1544 C1545 1.376 . S
C1545 H1532 0.930 . S
C1545 C1544 1.376 . S
C1545 C1546 1.388 . S
C1546 H1533 0.930 . S
C1546 C1545 1.388 . S
C1546 C1547 1.390 . S
C1547 C1546 1.390 . S
C1547 C1548 1.394 . S
C1547 C1553 1.465 . S
C1548 C1543 1.399 . S
C1548 C1547 1.394 . S
C1548 C1549 1.516 . S
C1549 C1548 1.516 . S
C1549 C1550 1.502 . S
C1549 C1551 1.561 . S
C1549 C1552 1.526 . S
C1550 H1534 0.959 . S
C1550 H1535 0.959 . S
C1550 H1536 0.961 . S
C1550 C1549 1.502 . S
C1551 H1537 0.960 . S
C1551 H1538 0.961 . S
C1551 H1539 0.959 . S
C1551 C1549 1.561 . S
C1552 C1549 1.526 . S
C1552 C1553 1.396 . S
C1552 C1557 1.390 . S
C1553 C1547 1.465 . S
C1553 C1552 1.396 . S
C1553 C1554 1.399 . S
C1554 H1540 0.929 . S
C1554 C1553 1.399 . S
C1554 C1555 1.385 . S
C1555 H1541 0.931 . S
C1555 C1554 1.385 . S
C1555 C1556 1.389 . S
C1556 C1555 1.389 . S
C1556 C1557 1.387 . S
C1557 H1542 0.930 . S
C1557 C1552 1.390 . S
C1557 C1556 1.387 . S
H1558 C1570 0.930 . S
H1559 C1572 0.930 . S
H1560 C1573 0.930 . S
H1561 C1577 0.959 . S
H1562 C1577 0.959 . S
H1563 C1577 0.961 . S
H1564 C1578 0.960 . S
H1565 C1578 0.961 . S
H1566 C1578 0.959 . S
H1567 C1581 0.929 . S
H1568 C1582 0.931 . S
H1569 C1584 0.930 . S
C1570 H1558 0.930 . S
C1570 C1571 1.399 1_556 S
C1570 C1575 1.399 . S
C1571 C1570 1.399 1_554 S
C1571 C1572 1.376 . S
C1572 H1559 0.930 . S
C1572 C1571 1.376 . S
C1572 C1573 1.388 . S
C1573 H1560 0.930 . S
C1573 C1572 1.388 . S
C1573 C1574 1.390 1_554 S
C1574 C1573 1.390 1_556 S
C1574 C1575 1.394 . S
C1574 C1580 1.465 . S
C1575 C1570 1.399 . S
C1575 C1574 1.394 . S
C1575 C1576 1.516 . S
C1576 C1575 1.516 . S
C1576 C1577 1.502 . S
C1576 C1578 1.561 . S
C1576 C1579 1.526 . S
C1577 H1561 0.959 . S
C1577 H1562 0.959 . S
C1577 H1563 0.961 . S
C1577 C1576 1.502 . S
C1578 H1564 0.960 . S
C1578 H1565 0.961 . S
C1578 H1566 0.959 . S
C1578 C1576 1.561 . S
C1579 C1576 1.526 . S
C1579 C1580 1.396 . S
C1579 C1584 1.390 . S
C1580 C1574 1.465 . S
C1580 C1579 1.396 . S
C1580 C1581 1.399 . S
C1581 H1567 0.929 . S
C1581 C1580 1.399 . S
C1581 C1582 1.385 . S
C1582 H1568 0.931 . S
C1582 C1581 1.385 . S
C1582 C1583 1.389 . S
C1583 C1582 1.389 . S
C1583 C1584 1.387 . S
C1584 H1569 0.930 . S
C1584 C1579 1.390 . S
C1584 C1583 1.387 . S
H1585 C1597 0.930 . S
H1586 C1599 0.930 . S
H1587 C1600 0.930 . S
H1588 C1604 0.959 . S
H1589 C1604 0.959 . S
H1590 C1604 0.961 . S
H1591 C1605 0.960 . S
H1592 C1605 0.961 . S
H1593 C1605 0.959 . S
H1594 C1608 0.929 . S
H1595 C1609 0.931 . S
H1596 C1611 0.930 . S
C1597 H1585 0.930 . S
C1597 C1598 1.399 . S
C1597 C1602 1.399 . S
C1598 C1597 1.399 . S
C1598 C1599 1.376 . S
C1599 H1586 0.930 . S
C1599 C1598 1.376 . S
C1599 C1600 1.388 . S
C1600 H1587 0.930 . S
C1600 C1599 1.388 . S
C1600 C1601 1.390 . S
C1601 C1600 1.390 . S
C1601 C1602 1.394 . S
C1601 C1607 1.465 . S
C1602 C1597 1.399 . S
C1602 C1601 1.394 . S
C1602 C1603 1.516 . S
C1603 C1602 1.516 . S
C1603 C1604 1.502 . S
C1603 C1605 1.561 . S
C1603 C1606 1.526 . S
C1604 H1588 0.959 . S
C1604 H1589 0.959 . S
C1604 H1590 0.961 . S
C1604 C1603 1.502 . S
C1605 H1591 0.960 . S
C1605 H1592 0.961 . S
C1605 H1593 0.959 . S
C1605 C1603 1.561 . S
C1606 C1603 1.526 . S
C1606 C1607 1.396 . S
C1606 C1611 1.390 . S
C1607 C1601 1.465 . S
C1607 C1606 1.396 . S
C1607 C1608 1.399 . S
C1608 H1594 0.929 . S
C1608 C1607 1.399 . S
C1608 C1609 1.385 . S
C1609 H1595 0.931 . S
C1609 C1608 1.385 . S
C1609 C1610 1.389 . S
C1610 C1609 1.389 . S
C1610 C1611 1.387 . S
C1611 H1596 0.930 . S
C1611 C1606 1.390 . S
C1611 C1610 1.387 . S
H1612 C1624 0.930 . S
H1613 C1626 0.930 . S
H1614 C1627 0.930 . S
H1615 C1631 0.959 . S
H1616 C1631 0.959 . S
H1617 C1631 0.961 . S
H1618 C1632 0.960 . S
H1619 C1632 0.961 . S
H1620 C1632 0.959 . S
H1621 C1635 0.929 . S
H1622 C1636 0.931 . S
H1623 C1638 0.930 . S
C1624 H1612 0.930 . S
C1624 C1625 1.399 . S
C1624 C1629 1.399 . S
C1625 C1624 1.399 . S
C1625 C1626 1.376 . S
C1626 H1613 0.930 . S
C1626 C1625 1.376 . S
C1626 C1627 1.388 . S
C1627 H1614 0.930 . S
C1627 C1626 1.388 . S
C1627 C1628 1.390 . S
C1628 C1627 1.390 . S
C1628 C1629 1.394 . S
C1628 C1634 1.465 . S
C1629 C1624 1.399 . S
C1629 C1628 1.394 . S
C1629 C1630 1.516 . S
C1630 C1629 1.516 . S
C1630 C1631 1.502 . S
C1630 C1632 1.561 . S
C1630 C1633 1.526 . S
C1631 H1615 0.959 . S
C1631 H1616 0.959 . S
C1631 H1617 0.961 . S
C1631 C1630 1.502 . S
C1632 H1618 0.960 . S
C1632 H1619 0.961 . S
C1632 H1620 0.959 . S
C1632 C1630 1.561 . S
C1633 C1630 1.526 . S
C1633 C1634 1.396 . S
C1633 C1638 1.390 . S
C1634 C1628 1.465 . S
C1634 C1633 1.396 . S
C1634 C1635 1.399 . S
C1635 H1621 0.929 . S
C1635 C1634 1.399 . S
C1635 C1636 1.385 . S
C1636 H1622 0.931 . S
C1636 C1635 1.385 . S
C1636 C1637 1.389 . S
C1637 C1636 1.389 . S
C1637 C1638 1.387 . S
C1638 H1623 0.930 . S
C1638 C1633 1.390 . S
C1638 C1637 1.387 . S
H1639 C1651 0.930 . S
H1640 C1653 0.930 . S
H1641 C1654 0.930 . S
H1642 C1658 0.959 . S
H1643 C1658 0.959 . S
H1644 C1658 0.961 . S
H1645 C1659 0.960 . S
H1646 C1659 0.961 . S
H1647 C1659 0.959 . S
H1648 C1662 0.929 . S
H1649 C1663 0.931 . S
H1650 C1665 0.930 . S
C1651 H1639 0.930 . S
C1651 C1652 1.399 . S
C1651 C1656 1.399 . S
C1652 C1651 1.399 . S
C1652 C1653 1.376 . S
C1653 H1640 0.930 . S
C1653 C1652 1.376 . S
C1653 C1654 1.388 . S
C1654 H1641 0.930 . S
C1654 C1653 1.388 . S
C1654 C1655 1.390 . S
C1655 C1654 1.390 . S
C1655 C1656 1.394 . S
C1655 C1661 1.465 . S
C1656 C1651 1.399 . S
C1656 C1655 1.394 . S
C1656 C1657 1.516 . S
C1657 C1656 1.516 . S
C1657 C1658 1.502 . S
C1657 C1659 1.561 . S
C1657 C1660 1.526 . S
C1658 H1642 0.959 . S
C1658 H1643 0.959 . S
C1658 H1644 0.961 . S
C1658 C1657 1.502 . S
C1659 H1645 0.960 . S
C1659 H1646 0.961 . S
C1659 H1647 0.959 . S
C1659 C1657 1.561 . S
C1660 C1657 1.526 . S
C1660 C1661 1.396 . S
C1660 C1665 1.390 . S
C1661 C1655 1.465 . S
C1661 C1660 1.396 . S
C1661 C1662 1.399 . S
C1662 H1648 0.929 . S
C1662 C1661 1.399 . S
C1662 C1663 1.385 . S
C1663 H1649 0.931 . S
C1663 C1662 1.385 . S
C1663 C1664 1.389 . S
C1664 C1663 1.389 . S
C1664 C1665 1.387 . S
C1665 H1650 0.930 . S
C1665 C1660 1.390 . S
C1665 C1664 1.387 . S
H1666 C1678 0.930 . S
H1667 C1680 0.930 . S
H1668 C1681 0.930 . S
H1669 C1685 0.959 . S
H1670 C1685 0.959 . S
H1671 C1685 0.961 . S
H1672 C1686 0.960 . S
H1673 C1686 0.961 . S
H1674 C1686 0.959 . S
H1675 C1689 0.929 . S
H1676 C1690 0.931 . S
H1677 C1692 0.930 . S
C1678 H1666 0.930 . S
C1678 C1679 1.399 . S
C1678 C1683 1.399 1_556 S
C1679 C1678 1.399 . S
C1679 C1680 1.376 . S
C1680 H1667 0.930 . S
C1680 C1679 1.376 . S
C1680 C1681 1.388 1_556 S
C1681 H1668 0.930 . S
C1681 C1680 1.388 1_554 S
C1681 C1682 1.390 . S
C1682 C1681 1.390 . S
C1682 C1683 1.394 . S
C1682 C1688 1.465 . S
C1683 C1678 1.399 1_554 S
C1683 C1682 1.394 . S
C1683 C1684 1.516 . S
C1684 C1683 1.516 . S
C1684 C1685 1.502 . S
C1684 C1686 1.561 . S
C1684 C1687 1.526 . S
C1685 H1669 0.959 . S
C1685 H1670 0.959 . S
C1685 H1671 0.961 . S
C1685 C1684 1.502 . S
C1686 H1672 0.960 . S
C1686 H1673 0.961 . S
C1686 H1674 0.959 . S
C1686 C1684 1.561 . S
C1687 C1684 1.526 . S
C1687 C1688 1.396 . S
C1687 C1692 1.390 . S
C1688 C1682 1.465 . S
C1688 C1687 1.396 . S
C1688 C1689 1.399 . S
C1689 H1675 0.929 . S
C1689 C1688 1.399 . S
C1689 C1690 1.385 . S
C1690 H1676 0.931 . S
C1690 C1689 1.385 . S
C1690 C1691 1.389 . S
C1691 C1690 1.389 . S
C1691 C1692 1.387 . S
C1692 H1677 0.930 . S
C1692 C1687 1.390 . S
C1692 C1691 1.387 . S
H1693 C1705 0.930 . S
H1694 C1707 0.930 . S
H1695 C1708 0.930 . S
H1696 C1712 0.959 . S
H1697 C1712 0.959 . S
H1698 C1712 0.961 . S
H1699 C1713 0.960 . S
H1700 C1713 0.961 . S
H1701 C1713 0.959 . S
H1702 C1716 0.929 . S
H1703 C1717 0.931 . S
H1704 C1719 0.930 . S
C1705 H1693 0.930 . S
C1705 C1706 1.399 . S
C1705 C1710 1.399 . S
C1706 C1705 1.399 . S
C1706 C1707 1.376 . S
C1707 H1694 0.930 . S
C1707 C1706 1.376 . S
C1707 C1708 1.388 . S
C1708 H1695 0.930 . S
C1708 C1707 1.388 . S
C1708 C1709 1.390 . S
C1709 C1708 1.390 . S
C1709 C1710 1.394 . S
C1709 C1715 1.465 . S
C1710 C1705 1.399 . S
C1710 C1709 1.394 . S
C1710 C1711 1.516 . S
C1711 C1710 1.516 . S
C1711 C1712 1.502 . S
C1711 C1713 1.561 . S
C1711 C1714 1.526 . S
C1712 H1696 0.959 . S
C1712 H1697 0.959 . S
C1712 H1698 0.961 . S
C1712 C1711 1.502 . S
C1713 H1699 0.960 . S
C1713 H1700 0.961 . S
C1713 H1701 0.959 . S
C1713 C1711 1.561 . S
C1714 C1711 1.526 . S
C1714 C1715 1.396 . S
C1714 C1719 1.390 . S
C1715 C1709 1.465 . S
C1715 C1714 1.396 . S
C1715 C1716 1.399 . S
C1716 H1702 0.929 . S
C1716 C1715 1.399 . S
C1716 C1717 1.385 . S
C1717 H1703 0.931 . S
C1717 C1716 1.385 . S
C1717 C1718 1.389 . S
C1718 C1717 1.389 . S
C1718 C1719 1.387 . S
C1719 H1704 0.930 . S
C1719 C1714 1.390 . S
C1719 C1718 1.387 . S
H1720 C1732 0.930 . S
H1721 C1734 0.930 . S
H1722 C1735 0.930 . S
H1723 C1739 0.959 . S
H1724 C1739 0.959 . S
H1725 C1739 0.961 . S
H1726 C1740 0.960 . S
H1727 C1740 0.961 . S
H1728 C1740 0.959 . S
H1729 C1743 0.929 . S
H1730 C1744 0.931 . S
H1731 C1746 0.930 . S
C1732 H1720 0.930 . S
C1732 C1733 1.399 . S
C1732 C1737 1.399 . S
C1733 C1732 1.399 . S
C1733 C1734 1.376 . S
C1734 H1721 0.930 . S
C1734 C1733 1.376 . S
C1734 C1735 1.388 . S
C1735 H1722 0.930 . S
C1735 C1734 1.388 . S
C1735 C1736 1.390 . S
C1736 C1735 1.390 . S
C1736 C1737 1.394 . S
C1736 C1742 1.465 . S
C1737 C1732 1.399 . S
C1737 C1736 1.394 . S
C1737 C1738 1.516 . S
C1738 C1737 1.516 . S
C1738 C1739 1.502 . S
C1738 C1740 1.561 . S
C1738 C1741 1.526 . S
C1739 H1723 0.959 . S
C1739 H1724 0.959 . S
C1739 H1725 0.961 . S
C1739 C1738 1.502 . S
C1740 H1726 0.960 . S
C1740 H1727 0.961 . S
C1740 H1728 0.959 . S
C1740 C1738 1.561 . S
C1741 C1738 1.526 . S
C1741 C1742 1.396 . S
C1741 C1746 1.390 . S
C1742 C1736 1.465 . S
C1742 C1741 1.396 . S
C1742 C1743 1.399 1_556 S
C1743 H1729 0.929 . S
C1743 C1742 1.399 1_554 S
C1743 C1744 1.385 . S
C1744 H1730 0.931 . S
C1744 C1743 1.385 . S
C1744 C1745 1.389 . S
C1745 C1744 1.389 . S
C1745 C1746 1.387 1_554 S
C1746 H1731 0.930 . S
C1746 C1741 1.390 . S
C1746 C1745 1.387 1_556 S
H1747 C1759 0.930 . S
H1748 C1761 0.930 . S
H1749 C1762 0.930 . S
H1750 C1766 0.959 . S
H1751 C1766 0.959 . S
H1752 C1766 0.961 . S
H1753 C1767 0.960 . S
H1754 C1767 0.961 . S
H1755 C1767 0.959 . S
H1756 C1770 0.929 . S
H1757 C1771 0.931 . S
H1758 C1773 0.930 . S
C1759 H1747 0.930 . S
C1759 C1760 1.399 . S
C1759 C1764 1.399 . S
C1760 C1759 1.399 . S
C1760 C1761 1.376 . S
C1761 H1748 0.930 . S
C1761 C1760 1.376 . S
C1761 C1762 1.388 . S
C1762 H1749 0.930 . S
C1762 C1761 1.388 . S
C1762 C1763 1.390 . S
C1763 C1762 1.390 . S
C1763 C1764 1.394 . S
C1763 C1769 1.465 . S
C1764 C1759 1.399 . S
C1764 C1763 1.394 . S
C1764 C1765 1.516 . S
C1765 C1764 1.516 . S
C1765 C1766 1.502 . S
C1765 C1767 1.561 . S
C1765 C1768 1.526 . S
C1766 H1750 0.959 . S
C1766 H1751 0.959 . S
C1766 H1752 0.961 . S
C1766 C1765 1.502 . S
C1767 H1753 0.960 . S
C1767 H1754 0.961 . S
C1767 H1755 0.959 . S
C1767 C1765 1.561 . S
C1768 C1765 1.526 . S
C1768 C1769 1.396 . S
C1768 C1773 1.390 . S
C1769 C1763 1.465 . S
C1769 C1768 1.396 . S
C1769 C1770 1.399 . S
C1770 H1756 0.929 . S
C1770 C1769 1.399 . S
C1770 C1771 1.385 . S
C1771 H1757 0.931 . S
C1771 C1770 1.385 . S
C1771 C1772 1.389 . S
C1772 C1771 1.389 . S
C1772 C1773 1.387 . S
C1773 H1758 0.930 . S
C1773 C1768 1.390 . S
C1773 C1772 1.387 . S
H1774 C1786 0.930 . S
H1775 C1788 0.930 . S
H1776 C1789 0.930 . S
H1777 C1793 0.959 . S
H1778 C1793 0.959 . S
H1779 C1793 0.961 . S
H1780 C1794 0.960 . S
H1781 C1794 0.961 . S
H1782 C1794 0.959 . S
H1783 C1797 0.929 . S
H1784 C1798 0.931 . S
H1785 C1800 0.930 . S
C1786 H1774 0.930 . S
C1786 C1787 1.399 . S
C1786 C1791 1.399 . S
C1787 C1786 1.399 . S
C1787 C1788 1.376 . S
C1788 H1775 0.930 . S
C1788 C1787 1.376 . S
C1788 C1789 1.388 . S
C1789 H1776 0.930 . S
C1789 C1788 1.388 . S
C1789 C1790 1.390 . S
C1790 C1789 1.390 . S
C1790 C1791 1.394 . S
C1790 C1796 1.465 . S
C1791 C1786 1.399 . S
C1791 C1790 1.394 . S
C1791 C1792 1.516 . S
C1792 C1791 1.516 . S
C1792 C1793 1.502 . S
C1792 C1794 1.561 . S
C1792 C1795 1.526 . S
C1793 H1777 0.959 . S
C1793 H1778 0.959 . S
C1793 H1779 0.961 . S
C1793 C1792 1.502 . S
C1794 H1780 0.960 . S
C1794 H1781 0.961 . S
C1794 H1782 0.959 . S
C1794 C1792 1.561 . S
C1795 C1792 1.526 . S
C1795 C1796 1.396 . S
C1795 C1800 1.390 . S
C1796 C1790 1.465 . S
C1796 C1795 1.396 . S
C1796 C1797 1.399 . S
C1797 H1783 0.929 . S
C1797 C1796 1.399 . S
C1797 C1798 1.385 . S
C1798 H1784 0.931 . S
C1798 C1797 1.385 . S
C1798 C1799 1.389 . S
C1799 C1798 1.389 . S
C1799 C1800 1.387 . S
C1800 H1785 0.930 . S
C1800 C1795 1.390 . S
C1800 C1799 1.387 . S
H1801 C1813 0.930 . S
H1802 C1815 0.930 . S
H1803 C1816 0.930 . S
H1804 C1820 0.959 . S
H1805 C1820 0.959 . S
H1806 C1820 0.961 . S
H1807 C1821 0.960 . S
H1808 C1821 0.961 . S
H1809 C1821 0.959 . S
H1810 C1824 0.929 . S
H1811 C1825 0.931 . S
H1812 C1827 0.930 . S
C1813 H1801 0.930 . S
C1813 C1814 1.399 . S
C1813 C1818 1.399 . S
C1814 C1813 1.399 . S
C1814 C1815 1.376 . S
C1815 H1802 0.930 . S
C1815 C1814 1.376 . S
C1815 C1816 1.388 . S
C1816 H1803 0.930 . S
C1816 C1815 1.388 . S
C1816 C1817 1.390 . S
C1817 C1816 1.390 . S
C1817 C1818 1.394 . S
C1817 C1823 1.465 . S
C1818 C1813 1.399 . S
C1818 C1817 1.394 . S
C1818 C1819 1.516 . S
C1819 C1818 1.516 . S
C1819 C1820 1.502 . S
C1819 C1821 1.561 . S
C1819 C1822 1.526 . S
C1820 H1804 0.959 . S
C1820 H1805 0.959 . S
C1820 H1806 0.961 . S
C1820 C1819 1.502 . S
C1821 H1807 0.960 . S
C1821 H1808 0.961 . S
C1821 H1809 0.959 . S
C1821 C1819 1.561 . S
C1822 C1819 1.526 . S
C1822 C1823 1.396 . S
C1822 C1827 1.390 . S
C1823 C1817 1.465 . S
C1823 C1822 1.396 . S
C1823 C1824 1.399 . S
C1824 H1810 0.929 . S
C1824 C1823 1.399 . S
C1824 C1825 1.385 . S
C1825 H1811 0.931 . S
C1825 C1824 1.385 . S
C1825 C1826 1.389 . S
C1826 C1825 1.389 . S
C1826 C1827 1.387 . S
C1827 H1812 0.930 . S
C1827 C1822 1.390 . S
C1827 C1826 1.387 . S
H1828 C1840 0.930 . S
H1829 C1842 0.930 . S
H1830 C1843 0.930 . S
H1831 C1847 0.959 . S
H1832 C1847 0.959 1_556 S
H1833 C1847 0.961 . S
H1834 C1848 0.960 . S
H1835 C1848 0.961 1_556 S
H1836 C1848 0.959 . S
H1837 C1851 0.929 . S
H1838 C1852 0.931 . S
H1839 C1854 0.930 . S
C1840 H1828 0.930 . S
C1840 C1841 1.399 . S
C1840 C1845 1.399 . S
C1841 C1840 1.399 . S
C1841 C1842 1.376 . S
C1842 H1829 0.930 . S
C1842 C1841 1.376 . S
C1842 C1843 1.388 . S
C1843 H1830 0.930 . S
C1843 C1842 1.388 . S
C1843 C1844 1.390 . S
C1844 C1843 1.390 . S
C1844 C1845 1.394 . S
C1844 C1850 1.465 . S
C1845 C1840 1.399 . S
C1845 C1844 1.394 . S
C1845 C1846 1.516 . S
C1846 C1845 1.516 . S
C1846 C1847 1.502 . S
C1846 C1848 1.561 . S
C1846 C1849 1.526 . S
C1847 H1831 0.959 . S
C1847 H1832 0.959 1_554 S
C1847 H1833 0.961 . S
C1847 C1846 1.502 . S
C1848 H1834 0.960 . S
C1848 H1835 0.961 1_554 S
C1848 H1836 0.959 . S
C1848 C1846 1.561 . S
C1849 C1846 1.526 . S
C1849 C1850 1.396 . S
C1849 C1854 1.390 1_554 S
C1850 C1844 1.465 . S
C1850 C1849 1.396 . S
C1850 C1851 1.399 . S
C1851 H1837 0.929 . S
C1851 C1850 1.399 . S
C1851 C1852 1.385 . S
C1852 H1838 0.931 . S
C1852 C1851 1.385 . S
C1852 C1853 1.389 1_554 S
C1853 C1852 1.389 1_556 S
C1853 C1854 1.387 . S
C1854 H1839 0.930 . S
C1854 C1849 1.390 1_556 S
C1854 C1853 1.387 . S
H1855 C1867 0.930 . S
H1856 C1869 0.930 . S
H1857 C1870 0.930 . S
H1858 C1874 0.959 . S
H1859 C1874 0.959 . S
H1860 C1874 0.961 . S
H1861 C1875 0.960 . S
H1862 C1875 0.961 . S
H1863 C1875 0.959 . S
H1864 C1878 0.929 . S
H1865 C1879 0.931 . S
H1866 C1881 0.930 . S
C1867 H1855 0.930 . S
C1867 C1868 1.399 . S
C1867 C1872 1.399 . S
C1868 C1867 1.399 . S
C1868 C1869 1.376 . S
C1869 H1856 0.930 . S
C1869 C1868 1.376 . S
C1869 C1870 1.388 . S
C1870 H1857 0.930 . S
C1870 C1869 1.388 . S
C1870 C1871 1.390 . S
C1871 C1870 1.390 . S
C1871 C1872 1.394 . S
C1871 C1877 1.465 . S
C1872 C1867 1.399 . S
C1872 C1871 1.394 . S
C1872 C1873 1.516 . S
C1873 C1872 1.516 . S
C1873 C1874 1.502 . S
C1873 C1875 1.561 . S
C1873 C1876 1.526 . S
C1874 H1858 0.959 . S
C1874 H1859 0.959 . S
C1874 H1860 0.961 . S
C1874 C1873 1.502 . S
C1875 H1861 0.960 . S
C1875 H1862 0.961 . S
C1875 H1863 0.959 . S
C1875 C1873 1.561 . S
C1876 C1873 1.526 . S
C1876 C1877 1.396 . S
C1876 C1881 1.390 . S
C1877 C1871 1.465 . S
C1877 C1876 1.396 . S
C1877 C1878 1.399 . S
C1878 H1864 0.929 . S
C1878 C1877 1.399 . S
C1878 C1879 1.385 . S
C1879 H1865 0.931 . S
C1879 C1878 1.385 . S
C1879 C1880 1.389 . S
C1880 C1879 1.389 . S
C1880 C1881 1.387 . S
C1881 H1866 0.930 . S
C1881 C1876 1.390 . S
C1881 C1880 1.387 . S
H1882 C1894 0.930 . S
H1883 C1896 0.930 . S
H1884 C1897 0.930 . S
H1885 C1901 0.959 . S
H1886 C1901 0.959 . S
H1887 C1901 0.961 . S
H1888 C1902 0.960 . S
H1889 C1902 0.961 . S
H1890 C1902 0.959 . S
H1891 C1905 0.929 . S
H1892 C1906 0.931 . S
H1893 C1908 0.930 . S
C1894 H1882 0.930 . S
C1894 C1895 1.399 . S
C1894 C1899 1.399 . S
C1895 C1894 1.399 . S
C1895 C1896 1.376 . S
C1896 H1883 0.930 . S
C1896 C1895 1.376 . S
C1896 C1897 1.388 . S
C1897 H1884 0.930 . S
C1897 C1896 1.388 . S
C1897 C1898 1.390 . S
C1898 C1897 1.390 . S
C1898 C1899 1.394 . S
C1898 C1904 1.465 . S
C1899 C1894 1.399 . S
C1899 C1898 1.394 . S
C1899 C1900 1.516 . S
C1900 C1899 1.516 . S
C1900 C1901 1.502 . S
C1900 C1902 1.561 . S
C1900 C1903 1.526 . S
C1901 H1885 0.959 . S
C1901 H1886 0.959 . S
C1901 H1887 0.961 . S
C1901 C1900 1.502 . S
C1902 H1888 0.960 . S
C1902 H1889 0.961 . S
C1902 H1890 0.959 . S
C1902 C1900 1.561 . S
C1903 C1900 1.526 . S
C1903 C1904 1.396 . S
C1903 C1908 1.390 . S
C1904 C1898 1.465 . S
C1904 C1903 1.396 . S
C1904 C1905 1.399 . S
C1905 H1891 0.929 . S
C1905 C1904 1.399 . S
C1905 C1906 1.385 . S
C1906 H1892 0.931 . S
C1906 C1905 1.385 . S
C1906 C1907 1.389 . S
C1907 C1906 1.389 . S
C1907 C1908 1.387 . S
C1908 H1893 0.930 . S
C1908 C1903 1.390 . S
C1908 C1907 1.387 . S
H1909 C1921 0.930 . S
H1910 C1923 0.930 . S
H1911 C1924 0.930 . S
H1912 C1928 0.959 . S
H1913 C1928 0.959 . S
H1914 C1928 0.961 . S
H1915 C1929 0.960 . S
H1916 C1929 0.961 . S
H1917 C1929 0.959 . S
H1918 C1932 0.929 . S
H1919 C1933 0.931 . S
H1920 C1935 0.930 . S
C1921 H1909 0.930 . S
C1921 C1922 1.399 . S
C1921 C1926 1.399 . S
C1922 C1921 1.399 . S
C1922 C1923 1.376 . S
C1923 H1910 0.930 . S
C1923 C1922 1.376 . S
C1923 C1924 1.388 . S
C1924 H1911 0.930 . S
C1924 C1923 1.388 . S
C1924 C1925 1.390 . S
C1925 C1924 1.390 . S
C1925 C1926 1.394 . S
C1925 C1931 1.465 . S
C1926 C1921 1.399 . S
C1926 C1925 1.394 . S
C1926 C1927 1.516 . S
C1927 C1926 1.516 . S
C1927 C1928 1.502 . S
C1927 C1929 1.561 . S
C1927 C1930 1.526 . S
C1928 H1912 0.959 . S
C1928 H1913 0.959 . S
C1928 H1914 0.961 . S
C1928 C1927 1.502 . S
C1929 H1915 0.960 . S
C1929 H1916 0.961 . S
C1929 H1917 0.959 . S
C1929 C1927 1.561 . S
C1930 C1927 1.526 . S
C1930 C1931 1.396 . S
C1930 C1935 1.390 . S
C1931 C1925 1.465 . S
C1931 C1930 1.396 . S
C1931 C1932 1.399 . S
C1932 H1918 0.929 . S
C1932 C1931 1.399 . S
C1932 C1933 1.385 . S
C1933 H1919 0.931 . S
C1933 C1932 1.385 . S
C1933 C1934 1.389 . S
C1934 C1933 1.389 . S
C1934 C1935 1.387 . S
C1935 H1920 0.930 . S
C1935 C1930 1.390 . S
C1935 C1934 1.387 . S
C653 C10 1.035 . S
C665 C295 0.972 . S
C680 C50 1.005 . S
C692 C175 1.068 . S
C707 C215 0.966 . S
C719 C90 1.060 . S
C734 C130 1.060 . S
C746 C255 0.967 . S
C761 C446 0.970 . S
C773 C179 1.014 . S
C788 C339 1.037 . S
C800 C6 0.966 . S
C815 C406 1.071 . S
C827 C259 1.049 . S
C842 C86 0.987 . S
C854 C379 1.061 . S
C869 C375 1.022 . S
C881 C490 1.001 . S
C896 C410 1.071 . S
C908 C575 0.986 . S
C923 C530 1.027 . S
C935 C335 0.978 . S
C950 C450 0.997 . S
C962 C615 1.055 . S
C977 C579 0.997 . S
C989 C126 1.021 . S
C1004 C486 0.990 . S
C1016 C219 1.063 . S
C1031 C46 1.073 . S
C1043 C619 1.039 . S
C1058 C299 1.029 . S
C1070 C526 1.069 . S
C1085 C529 0.451 . S
C1097 C9 0.296 1_455 S
C1112 C449 0.417 . S
C1124 C49 0.303 . S
C1139 C489 0.450 . S
C1151 C89 0.294 . S
C1166 C409 0.507 . S
C1178 C129 0.553 . S
C1193 C178 0.296 . S
C1205 C618 0.408 1_455 S
C1220 C378 0.312 . S
C1232 C218 0.319 . S
C1247 C258 0.295 . S
C1259 C578 0.407 . S
C1274 C298 0.292 . S
C1286 C338 0.395 . S
C1301 C18 1.546 . S
C1313 C169 1.531 . S
C1328 C58 1.483 . S
C1340 C209 1.572 . S
C1355 C249 1.575 . S
C1367 C98 1.489 . S
C1382 C138 1.575 . S
C1394 C289 1.486 . S
C1409 C418 1.574 . S
C1421 C329 1.484 . S
C1436 C458 1.485 . S
C1448 C369 1.575 . S
C1463 C498 1.535 . S
C1475 C569 1.511 . S
C1490 C609 1.491 . S
C1502 C538 1.573 . S
C1517 C15 1.861 . S
C1529 C290 1.968 . S
C1544 C55 1.919 . S
C1556 C170 1.955 . S
C1571 C210 1.945 . S
C1583 C95 1.909 . S
C1598 C250 1.969 . S
C1610 C135 1.883 . S
C1625 C459 1.945 . S
C1637 C166 1.921 . S
C1652 C326 1.909 . S
C1664 C19 1.946 . S
C1679 C419 1.962 . S
C1691 C246 1.865 . S
C1706 C99 1.960 . S
C1718 C366 1.868 . S
C1733 C495 1.897 . S
C1745 C370 1.945 . S
C1760 C570 1.953 . S
C1772 C415 1.867 . S
C1787 C535 1.905 . S
C1799 C330 1.945 . S
C1814 C610 1.967 . S
C1826 C455 1.892 . S
C1841 C566 1.856 . S
C1853 C139 1.969 . S
C1868 C206 1.905 . S
C1880 C499 1.946 . S
C1895 C59 1.947 . S
C1907 C606 1.905 . S
C1922 C539 1.966 . S
C1934 C286 1.858 . S
