# Generated by pormake.
# Topology wse, (4)-cn, num edge types: 1
# Building blocks:
#     Node 0, Type 0, BuildingBlock: GALJAG_clean_sbu_0, # of connection points: 4
#     Node 1, Type 0, BuildingBlock: GALJAG_clean_sbu_0, # of connection points: 4
#     Node 2, Type 0, BuildingBlock: GALJAG_clean_sbu_0, # of connection points: 4
#     Node 3, Type 0, BuildingBlock: GALJAG_clean_sbu_0, # of connection points: 4
#     Node 4, Type 0, BuildingBlock: GALJAG_clean_sbu_0, # of connection points: 4
#     Node 5, Type 0, BuildingBlock: GALJAG_clean_sbu_0, # of connection points: 4
#     Node 6, Type 0, BuildingBlock: GALJAG_clean_sbu_0, # of connection points: 4
#     Node 7, Type 0, BuildingBlock: GALJAG_clean_sbu_0, # of connection points: 4
#     Node 8, Type 0, BuildingBlock: GALJAG_clean_sbu_0, # of connection points: 4
#     Node 9, Type 0, BuildingBlock: GALJAG_clean_sbu_0, # of connection points: 4
#     Node 10, Type 0, BuildingBlock: GALJAG_clean_sbu_0, # of connection points: 4
#     Node 11, Type 0, BuildingBlock: GALJAG_clean_sbu_0, # of connection points: 4
#     Node 12, Type 0, BuildingBlock: GALJAG_clean_sbu_0, # of connection points: 4
#     Node 13, Type 0, BuildingBlock: GALJAG_clean_sbu_0, # of connection points: 4
#     Node 14, Type 0, BuildingBlock: GALJAG_clean_sbu_0, # of connection points: 4
#     Node 15, Type 0, BuildingBlock: GALJAG_clean_sbu_0, # of connection points: 4
#     Node 16, Type 0, BuildingBlock: GALJAG_clean_sbu_0, # of connection points: 4
#     Node 17, Type 0, BuildingBlock: GALJAG_clean_sbu_0, # of connection points: 4
#     Node 18, Type 0, BuildingBlock: GALJAG_clean_sbu_0, # of connection points: 4
#     Node 19, Type 0, BuildingBlock: GALJAG_clean_sbu_0, # of connection points: 4
#     Node 20, Type 0, BuildingBlock: GALJAG_clean_sbu_0, # of connection points: 4
#     Node 21, Type 0, BuildingBlock: GALJAG_clean_sbu_0, # of connection points: 4
#     Node 22, Type 0, BuildingBlock: GALJAG_clean_sbu_0, # of connection points: 4
#     Node 23, Type 0, BuildingBlock: GALJAG_clean_sbu_0, # of connection points: 4
#     Node 24, Type 0, BuildingBlock: GALJAG_clean_sbu_0, # of connection points: 4
#     Node 25, Type 0, BuildingBlock: GALJAG_clean_sbu_0, # of connection points: 4
#     Node 26, Type 0, BuildingBlock: GALJAG_clean_sbu_0, # of connection points: 4
#     Node 27, Type 0, BuildingBlock: GALJAG_clean_sbu_0, # of connection points: 4
#     Node 28, Type 0, BuildingBlock: GALJAG_clean_sbu_0, # of connection points: 4
#     Node 29, Type 0, BuildingBlock: GALJAG_clean_sbu_0, # of connection points: 4
#     Node 30, Type 0, BuildingBlock: GALJAG_clean_sbu_0, # of connection points: 4
#     Node 31, Type 0, BuildingBlock: GALJAG_clean_sbu_0, # of connection points: 4
#     Node 32, Type 0, BuildingBlock: GALJAG_clean_sbu_0, # of connection points: 4
#     Node 33, Type 0, BuildingBlock: GALJAG_clean_sbu_0, # of connection points: 4
#     Node 34, Type 0, BuildingBlock: GALJAG_clean_sbu_0, # of connection points: 4
#     Node 35, Type 0, BuildingBlock: GALJAG_clean_sbu_0, # of connection points: 4
#     Node 36, Type 0, BuildingBlock: GALJAG_clean_sbu_0, # of connection points: 4
#     Node 37, Type 0, BuildingBlock: GALJAG_clean_sbu_0, # of connection points: 4
#     Node 38, Type 0, BuildingBlock: GALJAG_clean_sbu_0, # of connection points: 4
#     Node 39, Type 0, BuildingBlock: GALJAG_clean_sbu_0, # of connection points: 4
#     Node 40, Type 0, BuildingBlock: GALJAG_clean_sbu_0, # of connection points: 4
#     Node 41, Type 0, BuildingBlock: GALJAG_clean_sbu_0, # of connection points: 4
#     Node 42, Type 0, BuildingBlock: GALJAG_clean_sbu_0, # of connection points: 4
#     Node 43, Type 0, BuildingBlock: GALJAG_clean_sbu_0, # of connection points: 4
#     Node 44, Type 0, BuildingBlock: GALJAG_clean_sbu_0, # of connection points: 4
#     Node 45, Type 0, BuildingBlock: GALJAG_clean_sbu_0, # of connection points: 4
#     Node 46, Type 0, BuildingBlock: GALJAG_clean_sbu_0, # of connection points: 4
#     Node 47, Type 0, BuildingBlock: GALJAG_clean_sbu_0, # of connection points: 4
#     Node 48, Type 0, BuildingBlock: GALJAG_clean_sbu_0, # of connection points: 4
#     Node 49, Type 0, BuildingBlock: GALJAG_clean_sbu_0, # of connection points: 4
#     Node 50, Type 0, BuildingBlock: GALJAG_clean_sbu_0, # of connection points: 4
#     Node 51, Type 0, BuildingBlock: GALJAG_clean_sbu_0, # of connection points: 4
#     Node 52, Type 0, BuildingBlock: GALJAG_clean_sbu_0, # of connection points: 4
#     Node 53, Type 0, BuildingBlock: GALJAG_clean_sbu_0, # of connection points: 4
#     Node 54, Type 0, BuildingBlock: GALJAG_clean_sbu_0, # of connection points: 4
#     Node 55, Type 0, BuildingBlock: GALJAG_clean_sbu_0, # of connection points: 4
#     Node 56, Type 0, BuildingBlock: GALJAG_clean_sbu_0, # of connection points: 4
#     Node 57, Type 0, BuildingBlock: GALJAG_clean_sbu_0, # of connection points: 4
#     Node 58, Type 0, BuildingBlock: GALJAG_clean_sbu_0, # of connection points: 4
#     Node 59, Type 0, BuildingBlock: GALJAG_clean_sbu_0, # of connection points: 4
#     Node 60, Type 0, BuildingBlock: GALJAG_clean_sbu_0, # of connection points: 4
#     Node 61, Type 0, BuildingBlock: GALJAG_clean_sbu_0, # of connection points: 4
#     Node 62, Type 0, BuildingBlock: GALJAG_clean_sbu_0, # of connection points: 4
#     Node 63, Type 0, BuildingBlock: GALJAG_clean_sbu_0, # of connection points: 4
#     Node 64, Type 0, BuildingBlock: GALJAG_clean_sbu_0, # of connection points: 4
#     Node 65, Type 0, BuildingBlock: GALJAG_clean_sbu_0, # of connection points: 4
#     Node 66, Type 0, BuildingBlock: GALJAG_clean_sbu_0, # of connection points: 4
#     Node 67, Type 0, BuildingBlock: GALJAG_clean_sbu_0, # of connection points: 4
#     Node 68, Type 0, BuildingBlock: GALJAG_clean_sbu_0, # of connection points: 4
#     Node 69, Type 0, BuildingBlock: GALJAG_clean_sbu_0, # of connection points: 4
#     Node 70, Type 0, BuildingBlock: GALJAG_clean_sbu_0, # of connection points: 4
#     Node 71, Type 0, BuildingBlock: GALJAG_clean_sbu_0, # of connection points: 4
#     Node 72, Type 0, BuildingBlock: GALJAG_clean_sbu_0, # of connection points: 4
#     Node 73, Type 0, BuildingBlock: GALJAG_clean_sbu_0, # of connection points: 4
#     Node 74, Type 0, BuildingBlock: GALJAG_clean_sbu_0, # of connection points: 4
#     Node 75, Type 0, BuildingBlock: GALJAG_clean_sbu_0, # of connection points: 4
#     Node 76, Type 0, BuildingBlock: GALJAG_clean_sbu_0, # of connection points: 4
#     Node 77, Type 0, BuildingBlock: GALJAG_clean_sbu_0, # of connection points: 4
#     Node 78, Type 0, BuildingBlock: GALJAG_clean_sbu_0, # of connection points: 4
#     Node 79, Type 0, BuildingBlock: GALJAG_clean_sbu_0, # of connection points: 4
#     Node 80, Type 0, BuildingBlock: GALJAG_clean_sbu_0, # of connection points: 4
#     Node 81, Type 0, BuildingBlock: GALJAG_clean_sbu_0, # of connection points: 4
#     Node 82, Type 0, BuildingBlock: GALJAG_clean_sbu_0, # of connection points: 4
#     Node 83, Type 0, BuildingBlock: GALJAG_clean_sbu_0, # of connection points: 4
#     Node 84, Type 0, BuildingBlock: GALJAG_clean_sbu_0, # of connection points: 4
#     Node 85, Type 0, BuildingBlock: GALJAG_clean_sbu_0, # of connection points: 4
#     Node 86, Type 0, BuildingBlock: GALJAG_clean_sbu_0, # of connection points: 4
#     Node 87, Type 0, BuildingBlock: GALJAG_clean_sbu_0, # of connection points: 4
#     Node 88, Type 0, BuildingBlock: GALJAG_clean_sbu_0, # of connection points: 4
#     Node 89, Type 0, BuildingBlock: GALJAG_clean_sbu_0, # of connection points: 4
#     Node 90, Type 0, BuildingBlock: GALJAG_clean_sbu_0, # of connection points: 4
#     Node 91, Type 0, BuildingBlock: GALJAG_clean_sbu_0, # of connection points: 4
#     Node 92, Type 0, BuildingBlock: GALJAG_clean_sbu_0, # of connection points: 4
#     Node 93, Type 0, BuildingBlock: GALJAG_clean_sbu_0, # of connection points: 4
#     Node 94, Type 0, BuildingBlock: GALJAG_clean_sbu_0, # of connection points: 4
#     Node 95, Type 0, BuildingBlock: GALJAG_clean_sbu_0, # of connection points: 4
#     Edge 96, Type (0, 0), BuildingBlock: AJUNOK_clean_linker_0, # of connection points: 2
#     Edge 97, Type (0, 0), BuildingBlock: AJUNOK_clean_linker_0, # of connection points: 2
#     Edge 98, Type (0, 0), BuildingBlock: AJUNOK_clean_linker_0, # of connection points: 2
#     Edge 99, Type (0, 0), BuildingBlock: AJUNOK_clean_linker_0, # of connection points: 2
#     Edge 100, Type (0, 0), BuildingBlock: AJUNOK_clean_linker_0, # of connection points: 2
#     Edge 101, Type (0, 0), BuildingBlock: AJUNOK_clean_linker_0, # of connection points: 2
#     Edge 102, Type (0, 0), BuildingBlock: AJUNOK_clean_linker_0, # of connection points: 2
#     Edge 103, Type (0, 0), BuildingBlock: AJUNOK_clean_linker_0, # of connection points: 2
#     Edge 104, Type (0, 0), BuildingBlock: AJUNOK_clean_linker_0, # of connection points: 2
#     Edge 105, Type (0, 0), BuildingBlock: AJUNOK_clean_linker_0, # of connection points: 2
#     Edge 106, Type (0, 0), BuildingBlock: AJUNOK_clean_linker_0, # of connection points: 2
#     Edge 107, Type (0, 0), BuildingBlock: AJUNOK_clean_linker_0, # of connection points: 2
#     Edge 108, Type (0, 0), BuildingBlock: AJUNOK_clean_linker_0, # of connection points: 2
#     Edge 109, Type (0, 0), BuildingBlock: AJUNOK_clean_linker_0, # of connection points: 2
#     Edge 110, Type (0, 0), BuildingBlock: AJUNOK_clean_linker_0, # of connection points: 2
#     Edge 111, Type (0, 0), BuildingBlock: AJUNOK_clean_linker_0, # of connection points: 2
#     Edge 112, Type (0, 0), BuildingBlock: AJUNOK_clean_linker_0, # of connection points: 2
#     Edge 113, Type (0, 0), BuildingBlock: AJUNOK_clean_linker_0, # of connection points: 2
#     Edge 114, Type (0, 0), BuildingBlock: AJUNOK_clean_linker_0, # of connection points: 2
#     Edge 115, Type (0, 0), BuildingBlock: AJUNOK_clean_linker_0, # of connection points: 2
#     Edge 116, Type (0, 0), BuildingBlock: AJUNOK_clean_linker_0, # of connection points: 2
#     Edge 117, Type (0, 0), BuildingBlock: AJUNOK_clean_linker_0, # of connection points: 2
#     Edge 118, Type (0, 0), BuildingBlock: AJUNOK_clean_linker_0, # of connection points: 2
#     Edge 119, Type (0, 0), BuildingBlock: AJUNOK_clean_linker_0, # of connection points: 2
#     Edge 120, Type (0, 0), BuildingBlock: AJUNOK_clean_linker_0, # of connection points: 2
#     Edge 121, Type (0, 0), BuildingBlock: AJUNOK_clean_linker_0, # of connection points: 2
#     Edge 122, Type (0, 0), BuildingBlock: AJUNOK_clean_linker_0, # of connection points: 2
#     Edge 123, Type (0, 0), BuildingBlock: AJUNOK_clean_linker_0, # of connection points: 2
#     Edge 124, Type (0, 0), BuildingBlock: AJUNOK_clean_linker_0, # of connection points: 2
#     Edge 125, Type (0, 0), BuildingBlock: AJUNOK_clean_linker_0, # of connection points: 2
#     Edge 126, Type (0, 0), BuildingBlock: AJUNOK_clean_linker_0, # of connection points: 2
#     Edge 127, Type (0, 0), BuildingBlock: AJUNOK_clean_linker_0, # of connection points: 2
#     Edge 128, Type (0, 0), BuildingBlock: AJUNOK_clean_linker_0, # of connection points: 2
#     Edge 129, Type (0, 0), BuildingBlock: AJUNOK_clean_linker_0, # of connection points: 2
#     Edge 130, Type (0, 0), BuildingBlock: AJUNOK_clean_linker_0, # of connection points: 2
#     Edge 131, Type (0, 0), BuildingBlock: AJUNOK_clean_linker_0, # of connection points: 2
#     Edge 132, Type (0, 0), BuildingBlock: AJUNOK_clean_linker_0, # of connection points: 2
#     Edge 133, Type (0, 0), BuildingBlock: AJUNOK_clean_linker_0, # of connection points: 2
#     Edge 134, Type (0, 0), BuildingBlock: AJUNOK_clean_linker_0, # of connection points: 2
#     Edge 135, Type (0, 0), BuildingBlock: AJUNOK_clean_linker_0, # of connection points: 2
#     Edge 136, Type (0, 0), BuildingBlock: AJUNOK_clean_linker_0, # of connection points: 2
#     Edge 137, Type (0, 0), BuildingBlock: AJUNOK_clean_linker_0, # of connection points: 2
#     Edge 138, Type (0, 0), BuildingBlock: AJUNOK_clean_linker_0, # of connection points: 2
#     Edge 139, Type (0, 0), BuildingBlock: AJUNOK_clean_linker_0, # of connection points: 2
#     Edge 140, Type (0, 0), BuildingBlock: AJUNOK_clean_linker_0, # of connection points: 2
#     Edge 141, Type (0, 0), BuildingBlock: AJUNOK_clean_linker_0, # of connection points: 2
#     Edge 142, Type (0, 0), BuildingBlock: AJUNOK_clean_linker_0, # of connection points: 2
#     Edge 143, Type (0, 0), BuildingBlock: AJUNOK_clean_linker_0, # of connection points: 2
#     Edge 144, Type (0, 0), BuildingBlock: AJUNOK_clean_linker_0, # of connection points: 2
#     Edge 145, Type (0, 0), BuildingBlock: AJUNOK_clean_linker_0, # of connection points: 2
#     Edge 146, Type (0, 0), BuildingBlock: AJUNOK_clean_linker_0, # of connection points: 2
#     Edge 147, Type (0, 0), BuildingBlock: AJUNOK_clean_linker_0, # of connection points: 2
#     Edge 148, Type (0, 0), BuildingBlock: AJUNOK_clean_linker_0, # of connection points: 2
#     Edge 149, Type (0, 0), BuildingBlock: AJUNOK_clean_linker_0, # of connection points: 2
#     Edge 150, Type (0, 0), BuildingBlock: AJUNOK_clean_linker_0, # of connection points: 2
#     Edge 151, Type (0, 0), BuildingBlock: AJUNOK_clean_linker_0, # of connection points: 2
#     Edge 152, Type (0, 0), BuildingBlock: AJUNOK_clean_linker_0, # of connection points: 2
#     Edge 153, Type (0, 0), BuildingBlock: AJUNOK_clean_linker_0, # of connection points: 2
#     Edge 154, Type (0, 0), BuildingBlock: AJUNOK_clean_linker_0, # of connection points: 2
#     Edge 155, Type (0, 0), BuildingBlock: AJUNOK_clean_linker_0, # of connection points: 2
#     Edge 156, Type (0, 0), BuildingBlock: AJUNOK_clean_linker_0, # of connection points: 2
#     Edge 157, Type (0, 0), BuildingBlock: AJUNOK_clean_linker_0, # of connection points: 2
#     Edge 158, Type (0, 0), BuildingBlock: AJUNOK_clean_linker_0, # of connection points: 2
#     Edge 159, Type (0, 0), BuildingBlock: AJUNOK_clean_linker_0, # of connection points: 2
#     Edge 160, Type (0, 0), BuildingBlock: AJUNOK_clean_linker_0, # of connection points: 2
#     Edge 161, Type (0, 0), BuildingBlock: AJUNOK_clean_linker_0, # of connection points: 2
#     Edge 162, Type (0, 0), BuildingBlock: AJUNOK_clean_linker_0, # of connection points: 2
#     Edge 163, Type (0, 0), BuildingBlock: AJUNOK_clean_linker_0, # of connection points: 2
#     Edge 164, Type (0, 0), BuildingBlock: AJUNOK_clean_linker_0, # of connection points: 2
#     Edge 165, Type (0, 0), BuildingBlock: AJUNOK_clean_linker_0, # of connection points: 2
#     Edge 166, Type (0, 0), BuildingBlock: AJUNOK_clean_linker_0, # of connection points: 2
#     Edge 167, Type (0, 0), BuildingBlock: AJUNOK_clean_linker_0, # of connection points: 2
#     Edge 168, Type (0, 0), BuildingBlock: AJUNOK_clean_linker_0, # of connection points: 2
#     Edge 169, Type (0, 0), BuildingBlock: AJUNOK_clean_linker_0, # of connection points: 2
#     Edge 170, Type (0, 0), BuildingBlock: AJUNOK_clean_linker_0, # of connection points: 2
#     Edge 171, Type (0, 0), BuildingBlock: AJUNOK_clean_linker_0, # of connection points: 2
#     Edge 172, Type (0, 0), BuildingBlock: AJUNOK_clean_linker_0, # of connection points: 2
#     Edge 173, Type (0, 0), BuildingBlock: AJUNOK_clean_linker_0, # of connection points: 2
#     Edge 174, Type (0, 0), BuildingBlock: AJUNOK_clean_linker_0, # of connection points: 2
#     Edge 175, Type (0, 0), BuildingBlock: AJUNOK_clean_linker_0, # of connection points: 2
#     Edge 176, Type (0, 0), BuildingBlock: AJUNOK_clean_linker_0, # of connection points: 2
#     Edge 177, Type (0, 0), BuildingBlock: AJUNOK_clean_linker_0, # of connection points: 2
#     Edge 178, Type (0, 0), BuildingBlock: AJUNOK_clean_linker_0, # of connection points: 2
#     Edge 179, Type (0, 0), BuildingBlock: AJUNOK_clean_linker_0, # of connection points: 2
#     Edge 180, Type (0, 0), BuildingBlock: AJUNOK_clean_linker_0, # of connection points: 2
#     Edge 181, Type (0, 0), BuildingBlock: AJUNOK_clean_linker_0, # of connection points: 2
#     Edge 182, Type (0, 0), BuildingBlock: AJUNOK_clean_linker_0, # of connection points: 2
#     Edge 183, Type (0, 0), BuildingBlock: AJUNOK_clean_linker_0, # of connection points: 2
#     Edge 184, Type (0, 0), BuildingBlock: AJUNOK_clean_linker_0, # of connection points: 2
#     Edge 185, Type (0, 0), BuildingBlock: AJUNOK_clean_linker_0, # of connection points: 2
#     Edge 186, Type (0, 0), BuildingBlock: AJUNOK_clean_linker_0, # of connection points: 2
#     Edge 187, Type (0, 0), BuildingBlock: AJUNOK_clean_linker_0, # of connection points: 2
#     Edge 188, Type (0, 0), BuildingBlock: AJUNOK_clean_linker_0, # of connection points: 2
#     Edge 189, Type (0, 0), BuildingBlock: AJUNOK_clean_linker_0, # of connection points: 2
#     Edge 190, Type (0, 0), BuildingBlock: AJUNOK_clean_linker_0, # of connection points: 2
#     Edge 191, Type (0, 0), BuildingBlock: AJUNOK_clean_linker_0, # of connection points: 2
#     Edge 192, Type (0, 0), BuildingBlock: AJUNOK_clean_linker_0, # of connection points: 2
#     Edge 193, Type (0, 0), BuildingBlock: AJUNOK_clean_linker_0, # of connection points: 2
#     Edge 194, Type (0, 0), BuildingBlock: AJUNOK_clean_linker_0, # of connection points: 2
#     Edge 195, Type (0, 0), BuildingBlock: AJUNOK_clean_linker_0, # of connection points: 2
#     Edge 196, Type (0, 0), BuildingBlock: AJUNOK_clean_linker_0, # of connection points: 2
#     Edge 197, Type (0, 0), BuildingBlock: AJUNOK_clean_linker_0, # of connection points: 2
#     Edge 198, Type (0, 0), BuildingBlock: AJUNOK_clean_linker_0, # of connection points: 2
#     Edge 199, Type (0, 0), BuildingBlock: AJUNOK_clean_linker_0, # of connection points: 2
#     Edge 200, Type (0, 0), BuildingBlock: AJUNOK_clean_linker_0, # of connection points: 2
#     Edge 201, Type (0, 0), BuildingBlock: AJUNOK_clean_linker_0, # of connection points: 2
#     Edge 202, Type (0, 0), BuildingBlock: AJUNOK_clean_linker_0, # of connection points: 2
#     Edge 203, Type (0, 0), BuildingBlock: AJUNOK_clean_linker_0, # of connection points: 2
#     Edge 204, Type (0, 0), BuildingBlock: AJUNOK_clean_linker_0, # of connection points: 2
#     Edge 205, Type (0, 0), BuildingBlock: AJUNOK_clean_linker_0, # of connection points: 2
#     Edge 206, Type (0, 0), BuildingBlock: AJUNOK_clean_linker_0, # of connection points: 2
#     Edge 207, Type (0, 0), BuildingBlock: AJUNOK_clean_linker_0, # of connection points: 2
#     Edge 208, Type (0, 0), BuildingBlock: AJUNOK_clean_linker_0, # of connection points: 2
#     Edge 209, Type (0, 0), BuildingBlock: AJUNOK_clean_linker_0, # of connection points: 2
#     Edge 210, Type (0, 0), BuildingBlock: AJUNOK_clean_linker_0, # of connection points: 2
#     Edge 211, Type (0, 0), BuildingBlock: AJUNOK_clean_linker_0, # of connection points: 2
#     Edge 212, Type (0, 0), BuildingBlock: AJUNOK_clean_linker_0, # of connection points: 2
#     Edge 213, Type (0, 0), BuildingBlock: AJUNOK_clean_linker_0, # of connection points: 2
#     Edge 214, Type (0, 0), BuildingBlock: AJUNOK_clean_linker_0, # of connection points: 2
#     Edge 215, Type (0, 0), BuildingBlock: AJUNOK_clean_linker_0, # of connection points: 2
#     Edge 216, Type (0, 0), BuildingBlock: AJUNOK_clean_linker_0, # of connection points: 2
#     Edge 217, Type (0, 0), BuildingBlock: AJUNOK_clean_linker_0, # of connection points: 2
#     Edge 218, Type (0, 0), BuildingBlock: AJUNOK_clean_linker_0, # of connection points: 2
#     Edge 219, Type (0, 0), BuildingBlock: AJUNOK_clean_linker_0, # of connection points: 2
#     Edge 220, Type (0, 0), BuildingBlock: AJUNOK_clean_linker_0, # of connection points: 2
#     Edge 221, Type (0, 0), BuildingBlock: AJUNOK_clean_linker_0, # of connection points: 2
#     Edge 222, Type (0, 0), BuildingBlock: AJUNOK_clean_linker_0, # of connection points: 2
#     Edge 223, Type (0, 0), BuildingBlock: AJUNOK_clean_linker_0, # of connection points: 2
#     Edge 224, Type (0, 0), BuildingBlock: AJUNOK_clean_linker_0, # of connection points: 2
#     Edge 225, Type (0, 0), BuildingBlock: AJUNOK_clean_linker_0, # of connection points: 2
#     Edge 226, Type (0, 0), BuildingBlock: AJUNOK_clean_linker_0, # of connection points: 2
#     Edge 227, Type (0, 0), BuildingBlock: AJUNOK_clean_linker_0, # of connection points: 2
#     Edge 228, Type (0, 0), BuildingBlock: AJUNOK_clean_linker_0, # of connection points: 2
#     Edge 229, Type (0, 0), BuildingBlock: AJUNOK_clean_linker_0, # of connection points: 2
#     Edge 230, Type (0, 0), BuildingBlock: AJUNOK_clean_linker_0, # of connection points: 2
#     Edge 231, Type (0, 0), BuildingBlock: AJUNOK_clean_linker_0, # of connection points: 2
#     Edge 232, Type (0, 0), BuildingBlock: AJUNOK_clean_linker_0, # of connection points: 2
#     Edge 233, Type (0, 0), BuildingBlock: AJUNOK_clean_linker_0, # of connection points: 2
#     Edge 234, Type (0, 0), BuildingBlock: AJUNOK_clean_linker_0, # of connection points: 2
#     Edge 235, Type (0, 0), BuildingBlock: AJUNOK_clean_linker_0, # of connection points: 2
#     Edge 236, Type (0, 0), BuildingBlock: AJUNOK_clean_linker_0, # of connection points: 2
#     Edge 237, Type (0, 0), BuildingBlock: AJUNOK_clean_linker_0, # of connection points: 2
#     Edge 238, Type (0, 0), BuildingBlock: AJUNOK_clean_linker_0, # of connection points: 2
#     Edge 239, Type (0, 0), BuildingBlock: AJUNOK_clean_linker_0, # of connection points: 2
#     Edge 240, Type (0, 0), BuildingBlock: AJUNOK_clean_linker_0, # of connection points: 2
#     Edge 241, Type (0, 0), BuildingBlock: AJUNOK_clean_linker_0, # of connection points: 2
#     Edge 242, Type (0, 0), BuildingBlock: AJUNOK_clean_linker_0, # of connection points: 2
#     Edge 243, Type (0, 0), BuildingBlock: AJUNOK_clean_linker_0, # of connection points: 2
#     Edge 244, Type (0, 0), BuildingBlock: AJUNOK_clean_linker_0, # of connection points: 2
#     Edge 245, Type (0, 0), BuildingBlock: AJUNOK_clean_linker_0, # of connection points: 2
#     Edge 246, Type (0, 0), BuildingBlock: AJUNOK_clean_linker_0, # of connection points: 2
#     Edge 247, Type (0, 0), BuildingBlock: AJUNOK_clean_linker_0, # of connection points: 2
#     Edge 248, Type (0, 0), BuildingBlock: AJUNOK_clean_linker_0, # of connection points: 2
#     Edge 249, Type (0, 0), BuildingBlock: AJUNOK_clean_linker_0, # of connection points: 2
#     Edge 250, Type (0, 0), BuildingBlock: AJUNOK_clean_linker_0, # of connection points: 2
#     Edge 251, Type (0, 0), BuildingBlock: AJUNOK_clean_linker_0, # of connection points: 2
#     Edge 252, Type (0, 0), BuildingBlock: AJUNOK_clean_linker_0, # of connection points: 2
#     Edge 253, Type (0, 0), BuildingBlock: AJUNOK_clean_linker_0, # of connection points: 2
#     Edge 254, Type (0, 0), BuildingBlock: AJUNOK_clean_linker_0, # of connection points: 2
#     Edge 255, Type (0, 0), BuildingBlock: AJUNOK_clean_linker_0, # of connection points: 2
#     Edge 256, Type (0, 0), BuildingBlock: AJUNOK_clean_linker_0, # of connection points: 2
#     Edge 257, Type (0, 0), BuildingBlock: AJUNOK_clean_linker_0, # of connection points: 2
#     Edge 258, Type (0, 0), BuildingBlock: AJUNOK_clean_linker_0, # of connection points: 2
#     Edge 259, Type (0, 0), BuildingBlock: AJUNOK_clean_linker_0, # of connection points: 2
#     Edge 260, Type (0, 0), BuildingBlock: AJUNOK_clean_linker_0, # of connection points: 2
#     Edge 261, Type (0, 0), BuildingBlock: AJUNOK_clean_linker_0, # of connection points: 2
#     Edge 262, Type (0, 0), BuildingBlock: AJUNOK_clean_linker_0, # of connection points: 2
#     Edge 263, Type (0, 0), BuildingBlock: AJUNOK_clean_linker_0, # of connection points: 2
#     Edge 264, Type (0, 0), BuildingBlock: AJUNOK_clean_linker_0, # of connection points: 2
#     Edge 265, Type (0, 0), BuildingBlock: AJUNOK_clean_linker_0, # of connection points: 2
#     Edge 266, Type (0, 0), BuildingBlock: AJUNOK_clean_linker_0, # of connection points: 2
#     Edge 267, Type (0, 0), BuildingBlock: AJUNOK_clean_linker_0, # of connection points: 2
#     Edge 268, Type (0, 0), BuildingBlock: AJUNOK_clean_linker_0, # of connection points: 2
#     Edge 269, Type (0, 0), BuildingBlock: AJUNOK_clean_linker_0, # of connection points: 2
#     Edge 270, Type (0, 0), BuildingBlock: AJUNOK_clean_linker_0, # of connection points: 2
#     Edge 271, Type (0, 0), BuildingBlock: AJUNOK_clean_linker_0, # of connection points: 2
#     Edge 272, Type (0, 0), BuildingBlock: AJUNOK_clean_linker_0, # of connection points: 2
#     Edge 273, Type (0, 0), BuildingBlock: AJUNOK_clean_linker_0, # of connection points: 2
#     Edge 274, Type (0, 0), BuildingBlock: AJUNOK_clean_linker_0, # of connection points: 2
#     Edge 275, Type (0, 0), BuildingBlock: AJUNOK_clean_linker_0, # of connection points: 2
#     Edge 276, Type (0, 0), BuildingBlock: AJUNOK_clean_linker_0, # of connection points: 2
#     Edge 277, Type (0, 0), BuildingBlock: AJUNOK_clean_linker_0, # of connection points: 2
#     Edge 278, Type (0, 0), BuildingBlock: AJUNOK_clean_linker_0, # of connection points: 2
#     Edge 279, Type (0, 0), BuildingBlock: AJUNOK_clean_linker_0, # of connection points: 2
#     Edge 280, Type (0, 0), BuildingBlock: AJUNOK_clean_linker_0, # of connection points: 2
#     Edge 281, Type (0, 0), BuildingBlock: AJUNOK_clean_linker_0, # of connection points: 2
#     Edge 282, Type (0, 0), BuildingBlock: AJUNOK_clean_linker_0, # of connection points: 2
#     Edge 283, Type (0, 0), BuildingBlock: AJUNOK_clean_linker_0, # of connection points: 2
#     Edge 284, Type (0, 0), BuildingBlock: AJUNOK_clean_linker_0, # of connection points: 2
#     Edge 285, Type (0, 0), BuildingBlock: AJUNOK_clean_linker_0, # of connection points: 2
#     Edge 286, Type (0, 0), BuildingBlock: AJUNOK_clean_linker_0, # of connection points: 2
#     Edge 287, Type (0, 0), BuildingBlock: AJUNOK_clean_linker_0, # of connection points: 2
# Relax obj value: 0.339
# Max RMSD: 0.171
# Mean RMSD: 0.167
data_MOF--net-wse--node1-GALJAG_clean_sbu_0--edge1-AJUNOK_clean_linker_0
_symmetry_space_group_name_H-M    P1
_symmetry_Int_Tables_number       1
_symmetry_cell_setting            triclinic
loop_
_symmetry_equiv_pos_as_xyz
'x, y, z'
_cell_length_a     74.25994
_cell_length_b     74.288976
_cell_length_c     74.259804
_cell_angle_alpha  89.985962
_cell_angle_beta   89.995311
_cell_angle_gamma 89.993837
loop_
_atom_site_label
_atom_site_type_symbol
_atom_site_fract_x
_atom_site_fract_y
_atom_site_fract_z
_atom_type_partial_charge
In0 In 0.07467 0.17848 0.42416 0.0
O1 O 0.04823 0.16299 0.42447 0.0
O2 O 0.04962 0.18578 0.40739 0.0
C3 C 0.09738 0.15373 0.40937 0.0
C4 C 0.0832 0.21352 0.41868 0.0
C5 C 0.07553 0.17502 0.46044 0.0
O6 O 0.08135 0.15029 0.41361 0.0
O7 O 0.10171 0.16996 0.41164 0.0
O8 O 0.08896 0.17166 0.45061 0.0
O9 O 0.06175 0.18016 0.45197 0.0
C10 C 0.04009 0.17314 0.41358 0.0
O11 O 0.08403 0.20597 0.43386 0.0
O12 O 0.07832 0.20328 0.40598 0.0
In13 In 0.82426 0.07564 0.4244 0.0
O14 O 0.84091 0.04995 0.4248 0.0
O15 O 0.8184 0.05046 0.40727 0.0
C16 C 0.84803 0.09976 0.41015 0.0
C17 C 0.78936 0.08437 0.41852 0.0
C18 C 0.82644 0.07406 0.46074 0.0
O19 O 0.85205 0.08365 0.41351 0.0
O20 O 0.83175 0.10346 0.41306 0.0
O21 O 0.83239 0.08724 0.45185 0.0
O22 O 0.81935 0.06188 0.45131 0.0
C23 C 0.83132 0.04143 0.4137 0.0
O24 O 0.79733 0.08709 0.43325 0.0
O25 O 0.79916 0.07754 0.40637 0.0
In26 In 0.92528 0.82333 0.42442 0.0
O27 O 0.95203 0.82906 0.40948 0.0
O28 O 0.95272 0.81482 0.43424 0.0
C29 C 0.90475 0.8492 0.40849 0.0
C30 C 0.91732 0.78909 0.41503 0.0
C31 C 0.91971 0.83003 0.45978 0.0
O32 O 0.9199 0.85233 0.4154 0.0
O33 O 0.90044 0.83281 0.4086 0.0
O34 O 0.91041 0.81893 0.45097 0.0
O35 O 0.93155 0.83805 0.45064 0.0
C36 C 0.96156 0.82135 0.42132 0.0
O37 O 0.91112 0.79662 0.42892 0.0
O38 O 0.92694 0.79917 0.40523 0.0
In39 In 0.1775 0.9268 0.42802 0.0
O40 O 0.20397 0.91287 0.43431 0.0
O41 O 0.2021 0.92632 0.40916 0.0
C42 C 0.17074 0.92318 0.46363 0.0
C43 C 0.17927 0.96271 0.4219 0.0
C44 C 0.15122 0.90566 0.4136 0.0
O45 O 0.18058 0.91239 0.45497 0.0
O46 O 0.16411 0.93565 0.45424 0.0
O47 O 0.14812 0.92056 0.42104 0.0
O48 O 0.16772 0.90193 0.41237 0.0
C49 C 0.21181 0.91742 0.41996 0.0
O50 O 0.17131 0.9522 0.4111 0.0
O51 O 0.18633 0.95498 0.43526 0.0
In52 In 0.07715 0.82372 0.57842 0.0
O53 O 0.09405 0.79826 0.57605 0.0
O54 O 0.07335 0.7984 0.59573 0.0
C55 C 0.07958 0.8233 0.54204 0.0
C56 C 0.04182 0.83074 0.58431 0.0
C57 C 0.09957 0.84847 0.59369 0.0
O58 O 0.07251 0.81079 0.55104 0.0
O59 O 0.0853 0.83628 0.55135 0.0
O60 O 0.08313 0.85137 0.59084 0.0
O61 O 0.10449 0.83273 0.5898 0.0
C62 C 0.08562 0.78955 0.58794 0.0
O63 O 0.05021 0.83563 0.57039 0.0
O64 O 0.05132 0.82232 0.59566 0.0
In65 In 0.17571 0.07627 0.57561 0.0
O66 O 0.16966 0.05073 0.59242 0.0
O67 O 0.18481 0.04818 0.56832 0.0
C68 C 0.14905 0.09708 0.58985 0.0
C69 C 0.20999 0.08535 0.58412 0.0
C70 C 0.16921 0.08011 0.53999 0.0
O71 O 0.1462 0.08225 0.58219 0.0
O72 O 0.16551 0.10095 0.59136 0.0
O73 O 0.17879 0.091 0.54881 0.0
O74 O 0.16271 0.06744 0.54923 0.0
C75 C 0.17784 0.04035 0.58166 0.0
O76 O 0.20254 0.08968 0.56949 0.0
O77 O 0.19982 0.07708 0.595 0.0
In78 In 0.92446 0.17763 0.57695 0.0
O79 O 0.91042 0.20373 0.56952 0.0
O80 O 0.92168 0.20201 0.59577 0.0
C81 C 0.92298 0.17027 0.54126 0.0
C82 C 0.95991 0.18053 0.58518 0.0
C83 C 0.90325 0.15142 0.59137 0.0
O84 O 0.91046 0.17822 0.5495 0.0
O85 O 0.93609 0.16588 0.55108 0.0
O86 O 0.91792 0.14825 0.5835 0.0
O87 O 0.89979 0.16794 0.59303 0.0
C88 C 0.91353 0.21158 0.58425 0.0
O89 O 0.9498 0.16938 0.59316 0.0
O90 O 0.95205 0.19004 0.57354 0.0
In91 In 0.82506 0.92554 0.57474 0.0
O92 O 0.79809 0.9137 0.56625 0.0
O93 O 0.80045 0.92287 0.59322 0.0
C94 C 0.82783 0.92576 0.53838 0.0
C95 C 0.83002 0.96024 0.58501 0.0
C96 C 0.84947 0.90248 0.58952 0.0
O97 O 0.83473 0.91361 0.54802 0.0
O98 O 0.81954 0.93773 0.54709 0.0
O99 O 0.85283 0.91883 0.58657 0.0
O100 O 0.83352 0.89802 0.58593 0.0
C101 C 0.79047 0.91608 0.58123 0.0
O102 O 0.83986 0.95245 0.57357 0.0
O103 O 0.81814 0.95027 0.59194 0.0
In104 In 0.42219 0.07775 0.17744 0.0
O105 O 0.45 0.07356 0.18941 0.0
O106 O 0.44859 0.08525 0.16336 0.0
C107 C 0.41406 0.08673 0.21188 0.0
C108 C 0.4066 0.10056 0.15325 0.0
C109 C 0.41717 0.04219 0.17064 0.0
O110 O 0.42645 0.09407 0.20293 0.0
O111 O 0.40505 0.07519 0.20317 0.0
O112 O 0.40576 0.05134 0.17937 0.0
O113 O 0.43062 0.05105 0.16535 0.0
C114 C 0.45844 0.07997 0.17616 0.0
O115 O 0.40757 0.08383 0.15079 0.0
O116 O 0.4124 0.10556 0.16836 0.0
In117 In 0.92704 0.42407 0.17707 0.0
O118 O 0.91616 0.43236 0.20457 0.0
O119 O 0.92539 0.40545 0.20163 0.0
C120 C 0.92806 0.46042 0.1745 0.0
C121 C 0.96142 0.41336 0.17089 0.0
C122 C 0.90359 0.40976 0.15268 0.0
O123 O 0.9141 0.45147 0.17086 0.0
O124 O 0.94116 0.45109 0.17984 0.0
O125 O 0.91936 0.41449 0.14873 0.0
O126 O 0.89992 0.41135 0.16916 0.0
C127 C 0.91894 0.41732 0.21198 0.0
O128 O 0.95294 0.42389 0.16063 0.0
O129 O 0.95224 0.40743 0.18391 0.0
In130 In 0.5777 0.9252 0.17922 0.0
O131 O 0.54926 0.92372 0.19045 0.0
O132 O 0.55244 0.92012 0.16228 0.0
C133 C 0.58652 0.9191 0.21415 0.0
C134 C 0.5939 0.90218 0.15577 0.0
C135 C 0.58202 0.96096 0.17336 0.0
O136 O 0.57481 0.91005 0.20583 0.0
O137 O 0.59444 0.93071 0.20457 0.0
O138 O 0.59505 0.95093 0.17775 0.0
O139 O 0.56716 0.95292 0.17193 0.0
C140 C 0.54178 0.92082 0.17549 0.0
O141 O 0.59195 0.9187 0.15262 0.0
O142 O 0.58869 0.89749 0.17121 0.0
In143 In 0.07665 0.58142 0.17542 0.0
O144 O 0.08786 0.57297 0.20274 0.0
O145 O 0.07827 0.59978 0.20024 0.0
C146 C 0.07514 0.54505 0.17299 0.0
C147 C 0.04248 0.59248 0.16867 0.0
C148 C 0.1002 0.59551 0.15096 0.0
O149 O 0.06251 0.55449 0.17923 0.0
O150 O 0.08884 0.55392 0.1683 0.0
O151 O 0.08431 0.59107 0.14714 0.0
O152 O 0.104 0.59377 0.16739 0.0
C153 C 0.08491 0.58783 0.2104 0.0
O154 O 0.05155 0.59852 0.18173 0.0
O155 O 0.05091 0.58155 0.15882 0.0
In156 In 0.42454 0.92427 0.82596 0.0
O157 O 0.41231 0.91582 0.85311 0.0
O158 O 0.41455 0.89586 0.83306 0.0
C159 C 0.4137 0.95844 0.83316 0.0
C160 C 0.46092 0.92555 0.8285 0.0
C161 C 0.41835 0.91586 0.791 0.0
O162 O 0.42571 0.95036 0.84202 0.0
O163 O 0.40661 0.94907 0.82088 0.0
O164 O 0.43309 0.9128 0.79886 0.0
O165 O 0.40636 0.92267 0.80098 0.0
C166 C 0.41027 0.89949 0.84905 0.0
O167 O 0.45194 0.93626 0.81886 0.0
O168 O 0.45152 0.91417 0.8369 0.0
In169 In 0.07634 0.4261 0.82336 0.0
O170 O 0.09247 0.42934 0.79758 0.0
O171 O 0.07412 0.40747 0.79875 0.0
C172 C 0.08097 0.46184 0.82875 0.0
C173 C 0.04009 0.42192 0.82234 0.0
C174 C 0.09732 0.41114 0.84951 0.0
O175 O 0.0875 0.45354 0.81548 0.0
O176 O 0.07226 0.45204 0.83952 0.0
O177 O 0.08179 0.41722 0.85241 0.0
O178 O 0.10191 0.41163 0.8332 0.0
C179 C 0.08535 0.41627 0.78944 0.0
O180 O 0.05039 0.40962 0.82808 0.0
O181 O 0.04816 0.43587 0.81703 0.0
In182 In 0.57731 0.07579 0.82848 0.0
O183 O 0.58623 0.0821 0.8573 0.0
O184 O 0.59068 0.10222 0.83781 0.0
C185 C 0.58651 0.04102 0.83465 0.0
C186 C 0.54097 0.07487 0.82981 0.0
C187 C 0.58362 0.08506 0.7937 0.0
O188 O 0.57374 0.04894 0.84253 0.0
O189 O 0.59543 0.05094 0.82406 0.0
O190 O 0.56986 0.08999 0.80232 0.0
O191 O 0.59465 0.07581 0.80281 0.0
C192 C 0.59158 0.09784 0.85418 0.0
O193 O 0.54987 0.08791 0.83606 0.0
O194 O 0.55037 0.06276 0.82256 0.0
In195 In 0.92416 0.57513 0.8243 0.0
O196 O 0.95081 0.59049 0.82946 0.0
O197 O 0.95172 0.56535 0.81596 0.0
C198 C 0.90279 0.59058 0.84982 0.0
C199 C 0.91593 0.58506 0.79023 0.0
C200 C 0.91935 0.53972 0.83136 0.0
O201 O 0.91861 0.58535 0.85298 0.0
O202 O 0.8982 0.589 0.83358 0.0
O203 O 0.91083 0.54797 0.81922 0.0
O204 O 0.93004 0.54946 0.84024 0.0
C205 C 0.96045 0.57856 0.82202 0.0
O206 O 0.91052 0.57062 0.79731 0.0
O207 O 0.92496 0.59505 0.80066 0.0
In208 In 0.18014 0.42891 0.07611 0.0
O209 O 0.17234 0.41289 0.05056 0.0
O210 O 0.18961 0.43556 0.04801 0.0
C211 C 0.15393 0.41487 0.09756 0.0
C212 C 0.21436 0.41926 0.08388 0.0
C213 C 0.17469 0.46467 0.08025 0.0
O214 O 0.15079 0.42201 0.0825 0.0
O215 O 0.17044 0.41373 0.1013 0.0
O216 O 0.1838 0.45539 0.09114 0.0
O217 O 0.16806 0.45583 0.06737 0.0
C218 C 0.18154 0.42284 0.04021 0.0
O219 O 0.20738 0.4338 0.08915 0.0
O220 O 0.20372 0.40896 0.07549 0.0
In221 In 0.1772 0.57645 0.92566 0.0
O222 O 0.2034 0.57017 0.91127 0.0
O223 O 0.20098 0.59605 0.9232 0.0
C224 C 0.17052 0.54075 0.92263 0.0
C225 C 0.18105 0.58319 0.96136 0.0
C226 C 0.1505 0.59106 0.90519 0.0
O227 O 0.17964 0.54942 0.91125 0.0
O228 O 0.16449 0.55016 0.93538 0.0
O229 O 0.14768 0.58345 0.92007 0.0
O230 O 0.16693 0.59222 0.9011 0.0
C231 C 0.21085 0.58503 0.91474 0.0
O232 O 0.17081 0.59263 0.95154 0.0
O233 O 0.18907 0.57072 0.95313 0.0
In234 In 0.42509 0.17609 0.92391 0.0
O235 O 0.41375 0.14818 0.91713 0.0
O236 O 0.4136 0.16757 0.89642 0.0
C237 C 0.41474 0.17031 0.95849 0.0
C238 C 0.46137 0.1728 0.92361 0.0
C239 C 0.41959 0.21119 0.91556 0.0
O240 O 0.42622 0.16076 0.95041 0.0
O241 O 0.40782 0.18252 0.94887 0.0
O242 O 0.43454 0.20339 0.9138 0.0
O243 O 0.40709 0.20123 0.92145 0.0
C244 C 0.41049 0.15151 0.90084 0.0
O245 O 0.45179 0.16936 0.91003 0.0
O246 O 0.45266 0.17788 0.93726 0.0
In247 In 0.82359 0.42542 0.92545 0.0
O248 O 0.79707 0.42857 0.91061 0.0
O249 O 0.79935 0.40649 0.92861 0.0
C250 C 0.82963 0.46078 0.91909 0.0
C251 C 0.82254 0.42351 0.96187 0.0
C252 C 0.84924 0.40943 0.90467 0.0
O253 O 0.8166 0.45228 0.91236 0.0
O254 O 0.83987 0.45134 0.92882 0.0
O255 O 0.8523 0.41533 0.92025 0.0
O256 O 0.83298 0.41054 0.90002 0.0
C257 C 0.7894 0.41536 0.91801 0.0
O258 O 0.82831 0.41054 0.95243 0.0
O259 O 0.8174 0.43693 0.95287 0.0
In260 In 0.57713 0.82435 0.92777 0.0
O261 O 0.54956 0.81315 0.93506 0.0
O262 O 0.55033 0.83624 0.9183 0.0
C263 C 0.58609 0.7897 0.92067 0.0
C264 C 0.59163 0.84859 0.90436 0.0
C265 C 0.58417 0.83187 0.96278 0.0
O266 O 0.57341 0.79777 0.91279 0.0
O267 O 0.59493 0.79944 0.93145 0.0
O268 O 0.59556 0.82424 0.95269 0.0
O269 O 0.5697 0.83616 0.95499 0.0
C270 C 0.54076 0.82475 0.92634 0.0
O271 O 0.58895 0.85199 0.92075 0.0
O272 O 0.58793 0.83262 0.9 0.0
In273 In 0.82468 0.57689 0.07977 0.0
O274 O 0.79859 0.57541 0.09586 0.0
O275 O 0.79912 0.59319 0.07355 0.0
C276 C 0.82653 0.5407 0.08312 0.0
C277 C 0.83174 0.58152 0.04423 0.0
C278 C 0.84831 0.59192 0.10356 0.0
O279 O 0.81213 0.54896 0.07959 0.0
O280 O 0.84012 0.55069 0.08495 0.0
O281 O 0.85145 0.59077 0.08694 0.0
O282 O 0.83283 0.58665 0.10793 0.0
C283 C 0.78995 0.58629 0.08612 0.0
O284 O 0.82622 0.59435 0.05398 0.0
O285 O 0.83364 0.56681 0.05245 0.0
In286 In 0.42636 0.82506 0.07666 0.0
O287 O 0.41417 0.85255 0.08413 0.0
O288 O 0.41517 0.83268 0.10437 0.0
C289 C 0.41949 0.83226 0.04146 0.0
C290 C 0.46278 0.82604 0.07828 0.0
C291 C 0.41765 0.79059 0.08479 0.0
O292 O 0.40858 0.82356 0.0512 0.0
O293 O 0.43332 0.83767 0.04965 0.0
O294 O 0.4308 0.79875 0.09175 0.0
O295 O 0.40846 0.80001 0.07399 0.0
C296 C 0.41137 0.8487 0.10041 0.0
O297 O 0.4542 0.81426 0.06956 0.0
O298 O 0.45296 0.83737 0.08625 0.0
In299 In 0.57452 0.1775 0.07983 0.0
O300 O 0.58418 0.14901 0.08716 0.0
O301 O 0.58803 0.16953 0.1064 0.0
C302 C 0.58107 0.17949 0.04396 0.0
C303 C 0.53895 0.16968 0.08204 0.0
C304 C 0.58282 0.21168 0.08901 0.0
O305 O 0.59142 0.17093 0.05446 0.0
O306 O 0.56794 0.18698 0.05166 0.0
O307 O 0.56814 0.20422 0.09309 0.0
O308 O 0.59376 0.20168 0.08059 0.0
C309 C 0.58937 0.15303 0.1028 0.0
O310 O 0.54646 0.18135 0.09179 0.0
O311 O 0.54949 0.16163 0.07146 0.0
In312 In 0.92937 0.82585 0.57305 0.0
O313 O 0.92172 0.79975 0.58805 0.0
O314 O 0.93624 0.79776 0.56347 0.0
C315 C 0.90535 0.8486 0.58895 0.0
C316 C 0.96393 0.83262 0.58246 0.0
C317 C 0.92216 0.8311 0.53768 0.0
O318 O 0.90135 0.8329 0.584 0.0
O319 O 0.92174 0.85241 0.58693 0.0
O320 O 0.9354 0.83816 0.54558 0.0
O321 O 0.91233 0.82161 0.54772 0.0
C322 C 0.92874 0.78958 0.57631 0.0
O323 O 0.95643 0.83898 0.56864 0.0
O324 O 0.95373 0.82308 0.59223 0.0
In325 In 0.17814 0.92601 0.57708 0.0
O326 O 0.1869 0.95415 0.56959 0.0
O327 O 0.1718 0.95157 0.59372 0.0
C328 C 0.17048 0.92236 0.54164 0.0
C329 C 0.21267 0.91681 0.58395 0.0
C330 C 0.1531 0.90448 0.593 0.0
O331 O 0.16373 0.93459 0.55126 0.0
O332 O 0.18068 0.91171 0.55003 0.0
O333 O 0.1697 0.90107 0.59331 0.0
O334 O 0.14926 0.91922 0.58557 0.0
C335 C 0.17971 0.962 0.58281 0.0
O336 O 0.20343 0.92597 0.59495 0.0
O337 O 0.20428 0.91201 0.57002 0.0
In338 In 0.0733 0.17869 0.57478 0.0
O339 O 0.0772 0.20233 0.59425 0.0
O340 O 0.08781 0.20469 0.56782 0.0
C341 C 0.09368 0.15168 0.58876 0.0
C342 C 0.03796 0.18076 0.58401 0.0
C343 C 0.07506 0.1739 0.53866 0.0
O344 O 0.09625 0.16802 0.59258 0.0
O345 O 0.08023 0.14896 0.57878 0.0
O346 O 0.06058 0.17273 0.54741 0.0
O347 O 0.08873 0.17718 0.54816 0.0
C348 C 0.08516 0.21215 0.58283 0.0
O349 O 0.04592 0.19204 0.57419 0.0
O350 O 0.04792 0.16812 0.5896 0.0
In351 In 0.82434 0.07286 0.57541 0.0
O352 O 0.79717 0.08475 0.56727 0.0
O353 O 0.79942 0.07367 0.59353 0.0
C354 C 0.84905 0.09573 0.59014 0.0
C355 C 0.8299 0.03824 0.58563 0.0
C356 C 0.82607 0.07276 0.53901 0.0
O357 O 0.83248 0.09929 0.58944 0.0
O358 O 0.85296 0.08034 0.58426 0.0
O359 O 0.8202 0.05969 0.54808 0.0
O360 O 0.83092 0.08612 0.54831 0.0
C361 C 0.78938 0.08092 0.58186 0.0
O362 O 0.81798 0.04806 0.59271 0.0
O363 O 0.83955 0.04619 0.57414 0.0
In364 In 0.92854 0.17559 0.42782 0.0
O365 O 0.95535 0.16097 0.42651 0.0
O366 O 0.95178 0.18283 0.40853 0.0
C367 C 0.92489 0.16814 0.4633 0.0
C368 C 0.92571 0.21188 0.42856 0.0
C369 C 0.90397 0.15355 0.41183 0.0
O370 O 0.9394 0.16597 0.45481 0.0
O371 O 0.912 0.17379 0.45379 0.0
O372 O 0.90074 0.16978 0.41554 0.0
O373 O 0.91988 0.1488 0.41523 0.0
C374 C 0.96229 0.17094 0.41467 0.0
O375 O 0.9207 0.20282 0.41501 0.0
O376 O 0.9321 0.2026 0.44123 0.0
In377 In 0.82758 0.92874 0.4237 0.0
O378 O 0.80244 0.92623 0.4059 0.0
O379 O 0.80107 0.91643 0.43273 0.0
C380 C 0.85188 0.90589 0.4084 0.0
C381 C 0.83302 0.96353 0.41369 0.0
C382 C 0.82965 0.9277 0.46008 0.0
O383 O 0.83526 0.90263 0.40898 0.0
O384 O 0.85608 0.92106 0.41466 0.0
O385 O 0.82235 0.94047 0.4516 0.0
O386 O 0.836 0.91545 0.45018 0.0
C387 C 0.79292 0.91905 0.41806 0.0
O388 O 0.84293 0.95531 0.42473 0.0
O389 O 0.8206 0.95399 0.40709 0.0
In390 In 0.07633 0.82249 0.42753 0.0
O391 O 0.07361 0.79983 0.40683 0.0
O392 O 0.09418 0.79766 0.42653 0.0
C393 C 0.09747 0.84946 0.41456 0.0
C394 C 0.03999 0.82236 0.42362 0.0
C395 C 0.08056 0.82294 0.46377 0.0
O396 O 0.10244 0.83325 0.41511 0.0
O397 O 0.08152 0.85195 0.41983 0.0
O398 O 0.07836 0.83716 0.45474 0.0
O399 O 0.08102 0.80879 0.45446 0.0
C400 C 0.08599 0.79031 0.41361 0.0
O401 O 0.04813 0.81696 0.43746 0.0
O402 O 0.0502 0.82849 0.41144 0.0
In403 In 0.17716 0.07713 0.42655 0.0
O404 O 0.18587 0.04909 0.43449 0.0
O405 O 0.17119 0.05139 0.41007 0.0
C406 C 0.16945 0.08099 0.46196 0.0
C407 C 0.21165 0.08569 0.41872 0.0
C408 C 0.15207 0.09875 0.41081 0.0
O409 O 0.16229 0.06906 0.45226 0.0
O410 O 0.18011 0.09126 0.45366 0.0
O411 O 0.16852 0.10277 0.4116 0.0
O412 O 0.14846 0.08342 0.41707 0.0
C413 C 0.17902 0.0411 0.42119 0.0
O414 O 0.20168 0.07735 0.4077 0.0
O415 O 0.20394 0.09019 0.43315 0.0
In416 In 0.57568 0.92828 0.82685 0.0
O417 O 0.58719 0.90058 0.83426 0.0
O418 O 0.58759 0.92063 0.85436 0.0
C419 C 0.58251 0.91966 0.79208 0.0
C420 C 0.53928 0.92771 0.82893 0.0
C421 C 0.58481 0.96302 0.83353 0.0
O422 O 0.56888 0.91414 0.80053 0.0
O423 O 0.5931 0.92924 0.80133 0.0
O424 O 0.57119 0.95545 0.84028 0.0
O425 O 0.59434 0.95285 0.8238 0.0
C426 C 0.59074 0.90446 0.85037 0.0
O427 O 0.54919 0.91794 0.83866 0.0
O428 O 0.54776 0.93782 0.81823 0.0
In429 In 0.07534 0.57552 0.82377 0.0
O430 O 0.07341 0.59434 0.79929 0.0
O431 O 0.09178 0.57246 0.7982 0.0
C432 C 0.09578 0.59081 0.85016 0.0
C433 C 0.03902 0.5788 0.82162 0.0
C434 C 0.08061 0.53987 0.82917 0.0
O435 O 0.10024 0.59096 0.8338 0.0
O436 O 0.08056 0.58395 0.85301 0.0
O437 O 0.07113 0.54937 0.83956 0.0
O438 O 0.08763 0.54844 0.81633 0.0
C439 C 0.08474 0.58559 0.79005 0.0
O440 O 0.04773 0.56539 0.81598 0.0
O441 O 0.04869 0.59102 0.8285 0.0
In442 In 0.42686 0.06906 0.82617 0.0
O443 O 0.41674 0.09765 0.83219 0.0
O444 O 0.41426 0.07817 0.85278 0.0
C445 C 0.42507 0.07121 0.78986 0.0
C446 C 0.46288 0.0711 0.83137 0.0
C447 C 0.4135 0.03604 0.83394 0.0
O448 O 0.41257 0.07735 0.79969 0.0
O449 O 0.43799 0.06433 0.79838 0.0
O450 O 0.42538 0.0438 0.84323 0.0
O451 O 0.40738 0.04545 0.82113 0.0
C452 C 0.41221 0.09437 0.84822 0.0
O453 O 0.45426 0.05653 0.83107 0.0
O454 O 0.45323 0.08495 0.82959 0.0
In455 In 0.92535 0.42639 0.82476 0.0
O456 O 0.92609 0.40741 0.80036 0.0
O457 O 0.91179 0.43203 0.79796 0.0
C458 C 0.90437 0.4105 0.85031 0.0
C459 C 0.96157 0.42209 0.82322 0.0
C460 C 0.9201 0.46175 0.83171 0.0
O461 O 0.90018 0.4109 0.83389 0.0
O462 O 0.91954 0.41724 0.85367 0.0
O463 O 0.93167 0.45242 0.83993 0.0
O464 O 0.91097 0.45312 0.82031 0.0
C465 C 0.91707 0.41782 0.79035 0.0
O466 O 0.95341 0.43584 0.81753 0.0
O467 O 0.95138 0.41008 0.82971 0.0
In468 In 0.57256 0.07339 0.1792 0.0
O469 O 0.54626 0.0768 0.16327 0.0
O470 O 0.54496 0.07855 0.19161 0.0
C471 C 0.58019 0.03891 0.17076 0.0
C472 C 0.58874 0.09789 0.15733 0.0
C473 C 0.58111 0.07415 0.21468 0.0
O474 O 0.56496 0.04605 0.16823 0.0
O475 O 0.59209 0.04953 0.17679 0.0
O476 O 0.58219 0.08804 0.20491 0.0
O477 O 0.57647 0.06015 0.20636 0.0
C478 C 0.53652 0.07896 0.17696 0.0
O479 O 0.58234 0.10181 0.17254 0.0
O480 O 0.58796 0.08136 0.15358 0.0
In481 In 0.93262 0.57461 0.17631 0.0
O482 O 0.95776 0.57746 0.15913 0.0
O483 O 0.95544 0.59492 0.18157 0.0
C484 C 0.93086 0.53854 0.17114 0.0
C485 C 0.93118 0.57565 0.21269 0.0
C486 C 0.90647 0.58903 0.15504 0.0
O487 O 0.94531 0.54738 0.1705 0.0
O488 O 0.91701 0.54801 0.17382 0.0
O489 O 0.90415 0.58572 0.17153 0.0
O490 O 0.92218 0.58576 0.14952 0.0
C491 C 0.96502 0.58952 0.1686 0.0
O492 O 0.92456 0.58816 0.20318 0.0
O493 O 0.93824 0.56307 0.2038 0.0
In494 In 0.42842 0.92942 0.17598 0.0
O495 O 0.41844 0.90092 0.16979 0.0
O496 O 0.41373 0.92088 0.1501 0.0
C497 C 0.42358 0.92944 0.21198 0.0
C498 C 0.46389 0.92167 0.17248 0.0
C499 C 0.42 0.96418 0.16878 0.0
O500 O 0.41349 0.92033 0.20169 0.0
O501 O 0.43533 0.93871 0.20398 0.0
O502 O 0.43452 0.95677 0.16402 0.0
O503 O 0.40913 0.95381 0.17681 0.0
C504 C 0.41254 0.90449 0.1543 0.0
O505 O 0.45525 0.93018 0.16061 0.0
O506 O 0.45455 0.91672 0.1857 0.0
In507 In 0.07265 0.43066 0.17414 0.0
O508 O 0.07948 0.41508 0.2003 0.0
O509 O 0.07619 0.4434 0.20146 0.0
C510 C 0.09706 0.41662 0.15063 0.0
C511 C 0.03914 0.41685 0.16924 0.0
C512 C 0.07255 0.46685 0.16964 0.0
O513 O 0.10013 0.41809 0.16725 0.0
O514 O 0.08147 0.42149 0.14608 0.0
O515 O 0.05854 0.45781 0.17281 0.0
O516 O 0.08673 0.45755 0.16833 0.0
C517 C 0.07929 0.4291 0.20998 0.0
O518 O 0.04609 0.4284 0.15895 0.0
O519 O 0.04948 0.41146 0.1816 0.0
In520 In 0.82786 0.57366 0.93092 0.0
O521 O 0.80245 0.58956 0.9228 0.0
O522 O 0.79949 0.56593 0.93869 0.0
C523 C 0.85036 0.58993 0.90695 0.0
C524 C 0.83456 0.58059 0.96614 0.0
C525 C 0.832 0.53859 0.92176 0.0
O526 O 0.83437 0.58569 0.90329 0.0
O527 O 0.85474 0.58693 0.92306 0.0
O528 O 0.84221 0.5465 0.93274 0.0
O529 O 0.81998 0.5485 0.91506 0.0
C530 C 0.79184 0.57871 0.93055 0.0
O531 O 0.83853 0.56608 0.95834 0.0
O532 O 0.82753 0.59231 0.95594 0.0
In533 In 0.82279 0.42685 0.07695 0.0
O534 O 0.79817 0.40874 0.07275 0.0
O535 O 0.79758 0.42769 0.09414 0.0
C536 C 0.84795 0.41124 0.09856 0.0
C537 C 0.82318 0.42447 0.0405 0.0
C538 C 0.82617 0.46263 0.08279 0.0
O539 O 0.83157 0.41239 0.10273 0.0
O540 O 0.8515 0.41705 0.08301 0.0
O541 O 0.83946 0.45281 0.07881 0.0
O542 O 0.81147 0.4543 0.0841 0.0
C543 C 0.78917 0.41589 0.08531 0.0
O544 O 0.81928 0.4385 0.04913 0.0
O545 O 0.82737 0.41118 0.05031 0.0
In546 In 0.57756 0.82564 0.07601 0.0
O547 O 0.54976 0.8146 0.0693 0.0
O548 O 0.55096 0.83803 0.08554 0.0
C549 C 0.58456 0.83265 0.04086 0.0
C550 C 0.59308 0.84898 0.0996 0.0
C551 C 0.58632 0.79125 0.08412 0.0
O552 O 0.57041 0.83766 0.04878 0.0
O553 O 0.59569 0.82458 0.05088 0.0
O554 O 0.57357 0.79959 0.09159 0.0
O555 O 0.59505 0.80043 0.07277 0.0
C556 C 0.54117 0.82647 0.07786 0.0
O557 O 0.58942 0.83291 0.10348 0.0
O558 O 0.58968 0.8531 0.0835 0.0
In559 In 0.18131 0.57832 0.07555 0.0
O560 O 0.19211 0.57231 0.04771 0.0
O561 O 0.17346 0.59385 0.04966 0.0
C562 C 0.17499 0.54272 0.07989 0.0
C563 C 0.21546 0.5858 0.08572 0.0
C564 C 0.15535 0.5938 0.09627 0.0
O565 O 0.16954 0.55138 0.06635 0.0
O566 O 0.18324 0.55211 0.09133 0.0
O567 O 0.17191 0.59632 0.09893 0.0
O568 O 0.15194 0.58447 0.08253 0.0
C569 C 0.18341 0.58439 0.03958 0.0
O570 O 0.20628 0.59664 0.07631 0.0
O571 O 0.20716 0.57175 0.09035 0.0
In572 In 0.42562 0.17377 0.07086 0.0
O573 O 0.45287 0.16139 0.06369 0.0
O574 O 0.45133 0.17673 0.08761 0.0
C575 C 0.41465 0.16835 0.03646 0.0
C576 C 0.40906 0.15204 0.09538 0.0
C577 C 0.42369 0.21003 0.07222 0.0
O578 O 0.42752 0.15996 0.04366 0.0
O579 O 0.40647 0.17896 0.04696 0.0
O580 O 0.41163 0.20015 0.07907 0.0
O581 O 0.43625 0.2016 0.0645 0.0
C582 C 0.46108 0.16763 0.07713 0.0
O583 O 0.41392 0.16789 0.09879 0.0
O584 O 0.41165 0.14742 0.07927 0.0
In585 In 0.17741 0.42702 0.92611 0.0
O586 O 0.1706 0.41158 0.95231 0.0
O587 O 0.18851 0.43382 0.95357 0.0
C588 C 0.17059 0.46266 0.9226 0.0
C589 C 0.21124 0.41749 0.91677 0.0
C590 C 0.15155 0.41187 0.90499 0.0
O591 O 0.16359 0.45311 0.93474 0.0
O592 O 0.18071 0.45414 0.91198 0.0
O593 O 0.16799 0.41192 0.90085 0.0
O594 O 0.1483 0.41856 0.92023 0.0
C595 C 0.18047 0.42151 0.96202 0.0
O596 O 0.20095 0.40705 0.92545 0.0
O597 O 0.20413 0.43223 0.91223 0.0
In598 In 0.57519 0.17897 0.92966 0.0
O599 O 0.54787 0.16987 0.94037 0.0
O600 O 0.54912 0.17852 0.91323 0.0
C601 C 0.58185 0.18049 0.96554 0.0
C602 C 0.59016 0.15252 0.90925 0.0
C603 C 0.58347 0.21299 0.91968 0.0
O604 O 0.56992 0.18963 0.95766 0.0
O605 O 0.59101 0.17053 0.95518 0.0
O606 O 0.59453 0.20301 0.9279 0.0
O607 O 0.56868 0.20554 0.91602 0.0
C608 C 0.53945 0.17283 0.92595 0.0
O609 O 0.59206 0.16901 0.90574 0.0
O610 O 0.58157 0.14945 0.92356 0.0
In611 In 0.42615 0.82188 0.92848 0.0
O612 O 0.45246 0.83448 0.91859 0.0
O613 O 0.45414 0.81159 0.93555 0.0
C614 C 0.41941 0.83038 0.96337 0.0
C615 C 0.41055 0.84475 0.90429 0.0
C616 C 0.41867 0.78686 0.92151 0.0
O617 O 0.43341 0.8351 0.95502 0.0
O618 O 0.40826 0.82162 0.95394 0.0
O619 O 0.43055 0.79567 0.9132 0.0
O620 O 0.40996 0.79591 0.93299 0.0
C621 C 0.46248 0.82339 0.92664 0.0
O622 O 0.41423 0.8286 0.90075 0.0
O623 O 0.41368 0.84906 0.92038 0.0
In624 In 0.57631 0.67655 0.92665 0.0
O625 O 0.58598 0.7038 0.93659 0.0
O626 O 0.57854 0.702 0.90905 0.0
C627 C 0.5776 0.67313 0.9629 0.0
C628 C 0.5417 0.67064 0.91631 0.0
C629 C 0.59998 0.65271 0.91182 0.0
O630 O 0.59095 0.66994 0.95291 0.0
O631 O 0.56362 0.67803 0.9546 0.0
O632 O 0.58424 0.64848 0.91649 0.0
O633 O 0.60337 0.66922 0.91353 0.0
C634 C 0.58428 0.7118 0.92173 0.0
O635 O 0.55132 0.68284 0.9094 0.0
O636 O 0.54981 0.66107 0.92775 0.0
In637 In 0.32142 0.57565 0.92558 0.0
O638 O 0.29671 0.5937 0.92616 0.0
O639 O 0.2972 0.57289 0.90662 0.0
C640 C 0.3219 0.57962 0.9618 0.0
C641 C 0.32309 0.53929 0.92224 0.0
C642 C 0.34794 0.59685 0.91175 0.0
O643 O 0.30779 0.57661 0.9529 0.0
O644 O 0.33595 0.58117 0.95235 0.0
O645 O 0.35064 0.58086 0.91678 0.0
O646 O 0.33175 0.60177 0.91287 0.0
C647 C 0.28837 0.58553 0.91384 0.0
O648 O 0.32469 0.54944 0.90864 0.0
O649 O 0.32149 0.54756 0.93691 0.0
In650 In 0.42463 0.32376 0.92355 0.0
O651 O 0.41141 0.29657 0.92833 0.0
O652 O 0.42733 0.29931 0.90477 0.0
C653 C 0.41768 0.33046 0.95864 0.0
C654 C 0.46102 0.32337 0.92079 0.0
C655 C 0.40399 0.34954 0.90754 0.0
O656 O 0.40922 0.31884 0.94964 0.0
O657 O 0.42954 0.33885 0.94985 0.0
O658 O 0.41923 0.35263 0.91424 0.0
O659 O 0.39963 0.33316 0.9078 0.0
C660 C 0.41798 0.28905 0.91462 0.0
O661 O 0.4511 0.3289 0.90808 0.0
O662 O 0.45252 0.31802 0.93449 0.0
In663 In 0.67743 0.42765 0.92527 0.0
O664 O 0.68394 0.452 0.90723 0.0
O665 O 0.66242 0.45435 0.92579 0.0
C666 C 0.65215 0.40503 0.91127 0.0
C667 C 0.71167 0.41696 0.91889 0.0
C668 C 0.67673 0.42916 0.96172 0.0
O669 O 0.64855 0.42043 0.91729 0.0
O670 O 0.66868 0.4013 0.9115 0.0
O671 O 0.68448 0.44079 0.95211 0.0
O672 O 0.66936 0.41663 0.95294 0.0
C673 C 0.67194 0.46196 0.91398 0.0
O674 O 0.70334 0.41337 0.93325 0.0
O675 O 0.70252 0.42558 0.9074 0.0
In676 In 0.57896 0.32339 0.07666 0.0
O677 O 0.59299 0.29639 0.07389 0.0
O678 O 0.57545 0.2997 0.09621 0.0
C679 C 0.58411 0.32949 0.04113 0.0
C680 C 0.54259 0.32412 0.0782 0.0
C681 C 0.60095 0.34829 0.09211 0.0
O682 O 0.58973 0.31554 0.04901 0.0
O683 O 0.57635 0.34063 0.05131 0.0
O684 O 0.58472 0.35142 0.08832 0.0
O685 O 0.60574 0.33233 0.08908 0.0
C686 C 0.58568 0.28928 0.08746 0.0
O687 O 0.55208 0.32846 0.09167 0.0
O688 O 0.55148 0.31904 0.06469 0.0
In689 In 0.67691 0.57567 0.07876 0.0
O690 O 0.70424 0.58599 0.06953 0.0
O691 O 0.70179 0.57835 0.09697 0.0
C692 C 0.67382 0.57496 0.0425 0.0
C693 C 0.6706 0.54122 0.08915 0.0
C694 C 0.65246 0.59889 0.09324 0.0
O695 O 0.67983 0.56198 0.0516 0.0
O696 O 0.6697 0.58866 0.05165 0.0
O697 O 0.64871 0.58298 0.08885 0.0
O698 O 0.66882 0.60286 0.09126 0.0
C699 C 0.71192 0.58415 0.08456 0.0
O700 O 0.68353 0.55034 0.09542 0.0
O701 O 0.66064 0.54978 0.07842 0.0
In702 In 0.42762 0.67887 0.07671 0.0
O703 O 0.45234 0.67025 0.09358 0.0
O704 O 0.45547 0.69066 0.0738 0.0
C705 C 0.40664 0.65225 0.09058 0.0
C706 C 0.41728 0.71287 0.0846 0.0
C707 C 0.42699 0.67243 0.04083 0.0
O708 O 0.42164 0.64939 0.08321 0.0
O709 O 0.40258 0.66869 0.09179 0.0
O710 O 0.41366 0.67881 0.04917 0.0
O711 O 0.44035 0.66895 0.05065 0.0
C712 C 0.46289 0.68102 0.08563 0.0
O713 O 0.41413 0.70541 0.06967 0.0
O714 O 0.42492 0.70281 0.09602 0.0
In715 In 0.32746 0.42555 0.075 0.0
O716 O 0.29979 0.41571 0.06622 0.0
O717 O 0.30233 0.42493 0.09313 0.0
C718 C 0.33 0.42238 0.0388 0.0
C719 C 0.3331 0.46069 0.08343 0.0
C720 C 0.35213 0.40304 0.09033 0.0
O721 O 0.33151 0.40905 0.04923 0.0
O722 O 0.32712 0.43716 0.04662 0.0
O723 O 0.35612 0.41825 0.08404 0.0
O724 O 0.33554 0.39963 0.08986 0.0
C725 C 0.29215 0.41854 0.08109 0.0
O726 O 0.34162 0.45249 0.07125 0.0
O727 O 0.32213 0.45093 0.09202 0.0
In728 In 0.92672 0.57779 0.67851 0.0
O729 O 0.91912 0.58384 0.64917 0.0
O730 O 0.91108 0.60268 0.66883 0.0
C731 C 0.92199 0.54164 0.68083 0.0
C732 C 0.96232 0.58254 0.67239 0.0
C733 C 0.91758 0.58691 0.71257 0.0
O734 O 0.91098 0.55154 0.67237 0.0
O735 O 0.93494 0.55005 0.68785 0.0
O736 O 0.93196 0.5919 0.70507 0.0
O737 O 0.90727 0.57769 0.70262 0.0
C738 C 0.91192 0.59885 0.65233 0.0
O739 O 0.95325 0.59266 0.68253 0.0
O740 O 0.95334 0.57017 0.66502 0.0
In741 In 0.42502 0.92443 0.67828 0.0
O742 O 0.40872 0.92645 0.70417 0.0
O743 O 0.43062 0.90814 0.70397 0.0
C744 C 0.41999 0.96032 0.67486 0.0
C745 C 0.46103 0.92014 0.67415 0.0
C746 C 0.40232 0.90852 0.6542 0.0
O747 O 0.42068 0.95244 0.68986 0.0
O748 O 0.42201 0.95013 0.66144 0.0
O749 O 0.41848 0.91215 0.65064 0.0
O750 O 0.39796 0.91188 0.67022 0.0
C751 C 0.41808 0.91534 0.71295 0.0
O752 O 0.45066 0.9069 0.67678 0.0
O753 O 0.4532 0.93518 0.67358 0.0
In754 In 0.07504 0.42561 0.67753 0.0
O755 O 0.08313 0.41965 0.64833 0.0
O756 O 0.08944 0.39998 0.66781 0.0
C757 C 0.08042 0.46169 0.67929 0.0
C758 C 0.03941 0.4216 0.67109 0.0
C759 C 0.08399 0.41656 0.7117 0.0
O760 O 0.09175 0.4513 0.67193 0.0
O761 O 0.06688 0.45378 0.68576 0.0
O762 O 0.06935 0.41213 0.70435 0.0
O763 O 0.09464 0.42512 0.70152 0.0
C764 C 0.0894 0.40421 0.65139 0.0
O765 O 0.04795 0.41197 0.68215 0.0
O766 O 0.04895 0.43308 0.66301 0.0
In767 In 0.57519 0.07895 0.68078 0.0
O768 O 0.58912 0.073 0.70749 0.0
O769 O 0.57346 0.09681 0.706 0.0
C770 C 0.57687 0.04258 0.67983 0.0
C771 C 0.54019 0.08639 0.67328 0.0
C772 C 0.59804 0.09399 0.65624 0.0
O773 O 0.58735 0.05244 0.6708 0.0
O774 O 0.56566 0.0511 0.68931 0.0
O775 O 0.60218 0.09181 0.67254 0.0
O776 O 0.58208 0.08958 0.65262 0.0
C777 C 0.58299 0.08655 0.71567 0.0
O778 O 0.54966 0.09651 0.68315 0.0
O779 O 0.54857 0.0731 0.66688 0.0
In780 In 0.92479 0.42438 0.32445 0.0
O781 O 0.95186 0.40965 0.32413 0.0
O782 O 0.95171 0.43669 0.33299 0.0
C783 C 0.91756 0.41564 0.28984 0.0
C784 C 0.91042 0.40195 0.34961 0.0
C785 C 0.91455 0.45934 0.32668 0.0
O786 O 0.93202 0.4115 0.2977 0.0
O787 O 0.90621 0.42371 0.29967 0.0
O788 O 0.91039 0.44788 0.33854 0.0
O789 O 0.92336 0.45307 0.3136 0.0
C790 C 0.96086 0.42275 0.32997 0.0
O791 O 0.91935 0.41583 0.35339 0.0
O792 O 0.90786 0.39969 0.33297 0.0
In793 In 0.57861 0.92662 0.32758 0.0
O794 O 0.59019 0.93452 0.30048 0.0
O795 O 0.57748 0.90902 0.30194 0.0
C796 C 0.58499 0.96168 0.33491 0.0
C797 C 0.54228 0.92295 0.32845 0.0
C798 C 0.6003 0.91044 0.35244 0.0
O799 O 0.59343 0.95306 0.32298 0.0
O800 O 0.57353 0.95247 0.34344 0.0
O801 O 0.58482 0.91627 0.35603 0.0
O802 O 0.60439 0.91167 0.33604 0.0
C803 C 0.5856 0.92044 0.29226 0.0
O804 O 0.5526 0.90947 0.32983 0.0
O805 O 0.55031 0.93773 0.32633 0.0
In806 In 0.07697 0.57838 0.32254 0.0
O807 O 0.04897 0.59112 0.31966 0.0
O808 O 0.05172 0.56856 0.33684 0.0
C809 C 0.08536 0.58801 0.28836 0.0
C810 C 0.09098 0.59882 0.3496 0.0
C811 C 0.08295 0.54259 0.3199 0.0
O812 O 0.07137 0.59333 0.29637 0.0
O813 O 0.09572 0.57843 0.2979 0.0
O814 O 0.09409 0.55285 0.32774 0.0
O815 O 0.06947 0.55056 0.31336 0.0
C816 C 0.04133 0.58012 0.33009 0.0
O817 O 0.08514 0.5831 0.35182 0.0
O818 O 0.09098 0.60388 0.3334 0.0
In819 In 0.42331 0.07932 0.32451 0.0
O820 O 0.44949 0.09629 0.32554 0.0
O821 O 0.4514 0.06796 0.32822 0.0
C822 C 0.40089 0.09531 0.34877 0.0
C823 C 0.41543 0.08782 0.28987 0.0
C824 C 0.41808 0.04366 0.3294 0.0
O825 O 0.41733 0.09255 0.35182 0.0
O826 O 0.39608 0.09112 0.33307 0.0
O827 O 0.41877 0.05094 0.31408 0.0
O828 O 0.42008 0.05439 0.34241 0.0
C829 C 0.4596 0.08278 0.32775 0.0
O830 O 0.40777 0.07532 0.29841 0.0
O831 O 0.42668 0.09667 0.29908 0.0
In832 In 0.67815 0.9272 0.57856 0.0
O833 O 0.70583 0.93117 0.59099 0.0
O834 O 0.70199 0.90779 0.57506 0.0
C835 C 0.67266 0.96286 0.58341 0.0
C836 C 0.67704 0.92423 0.54231 0.0
C837 C 0.65263 0.91239 0.60046 0.0
O838 O 0.68396 0.95406 0.59253 0.0
O839 O 0.66386 0.95358 0.57226 0.0
O840 O 0.64946 0.91736 0.58457 0.0
O841 O 0.6689 0.9139 0.60494 0.0
C842 C 0.71276 0.91725 0.58421 0.0
O843 O 0.67314 0.91103 0.55238 0.0
O844 O 0.68185 0.93824 0.55058 0.0
In845 In 0.67735 0.07771 0.42852 0.0
O846 O 0.6784 0.09545 0.45404 0.0
O847 O 0.6654 0.07008 0.45561 0.0
C848 C 0.6521 0.09254 0.40632 0.0
C849 C 0.71149 0.08681 0.41959 0.0
C850 C 0.67912 0.04144 0.42579 0.0
O851 O 0.64856 0.08671 0.42183 0.0
O852 O 0.66857 0.09185 0.40238 0.0
O853 O 0.69002 0.05065 0.43494 0.0
O854 O 0.66697 0.05051 0.41813 0.0
C855 C 0.67019 0.08416 0.46377 0.0
O856 O 0.70254 0.07503 0.41127 0.0
O857 O 0.70288 0.09474 0.43196 0.0
In858 In 0.92426 0.67661 0.42489 0.0
O859 O 0.951 0.67089 0.4107 0.0
O860 O 0.952 0.67977 0.43781 0.0
C861 C 0.91808 0.71136 0.41578 0.0
C862 C 0.90972 0.65136 0.40252 0.0
C863 C 0.91406 0.6712 0.45959 0.0
O864 O 0.93282 0.70344 0.41296 0.0
O865 O 0.90613 0.70164 0.42305 0.0
O866 O 0.92543 0.66149 0.45154 0.0
O867 O 0.90723 0.6834 0.44991 0.0
C868 C 0.96068 0.67494 0.42404 0.0
O869 O 0.91557 0.64783 0.41801 0.0
O870 O 0.91024 0.66784 0.39863 0.0
In871 In 0.32431 0.92629 0.42629 0.0
O872 O 0.32359 0.90776 0.45118 0.0
O873 O 0.33628 0.93318 0.45364 0.0
C874 C 0.34861 0.91206 0.40276 0.0
C875 C 0.28968 0.91753 0.41866 0.0
C876 C 0.32498 0.96267 0.42476 0.0
O877 O 0.35234 0.9155 0.41894 0.0
O878 O 0.33238 0.91486 0.39874 0.0
O879 O 0.3139 0.95399 0.43428 0.0
O880 O 0.33575 0.95297 0.41593 0.0
C881 C 0.33152 0.91884 0.46136 0.0
O882 O 0.29746 0.93111 0.41212 0.0
O883 O 0.29963 0.90785 0.42849 0.0
In884 In 0.07612 0.32595 0.42427 0.0
O885 O 0.04858 0.31427 0.41778 0.0
O886 O 0.04997 0.34232 0.42271 0.0
C887 C 0.08582 0.29143 0.41752 0.0
C888 C 0.09154 0.35067 0.40186 0.0
C889 C 0.07968 0.32918 0.46047 0.0
O890 O 0.07494 0.30013 0.40782 0.0
O891 O 0.09263 0.30047 0.43023 0.0
O892 O 0.09323 0.32865 0.45014 0.0
O893 O 0.06474 0.32814 0.45248 0.0
C894 C 0.04023 0.32897 0.41882 0.0
O895 O 0.08756 0.35403 0.41798 0.0
O896 O 0.08885 0.33455 0.39743 0.0
In897 In 0.32239 0.07591 0.57672 0.0
O898 O 0.29601 0.07135 0.59173 0.0
O899 O 0.29734 0.09394 0.57435 0.0
C900 C 0.32374 0.03954 0.57812 0.0
C901 C 0.32977 0.08245 0.5415 0.0
C902 C 0.34655 0.09087 0.59998 0.0
O903 O 0.31189 0.04804 0.56941 0.0
O904 O 0.33493 0.04943 0.58621 0.0
O905 O 0.34951 0.08924 0.58337 0.0
O906 O 0.33101 0.08597 0.60465 0.0
C907 C 0.28786 0.08459 0.58494 0.0
O908 O 0.32082 0.09336 0.55102 0.0
O909 O 0.3352 0.06874 0.54988 0.0
In910 In 0.92358 0.32345 0.57763 0.0
O911 O 0.95061 0.31076 0.57079 0.0
O912 O 0.95088 0.33348 0.58805 0.0
C913 C 0.91312 0.28934 0.58527 0.0
C914 C 0.9093 0.34875 0.60011 0.0
C915 C 0.91774 0.33153 0.54248 0.0
O916 O 0.92585 0.29717 0.59333 0.0
O917 O 0.90497 0.29909 0.57395 0.0
O918 O 0.90616 0.3233 0.55186 0.0
O919 O 0.93181 0.33581 0.55094 0.0
C920 C 0.95991 0.32157 0.57997 0.0
O921 O 0.9139 0.35204 0.58414 0.0
O922 O 0.91103 0.33247 0.6045 0.0
In923 In 0.07764 0.67785 0.57498 0.0
O924 O 0.08326 0.64835 0.58179 0.0
O925 O 0.09407 0.66791 0.59933 0.0
C926 C 0.08574 0.68021 0.53943 0.0
C927 C 0.04187 0.67101 0.57648 0.0
C928 C 0.08521 0.71179 0.58575 0.0
O929 O 0.09396 0.66945 0.54977 0.0
O930 O 0.07407 0.68978 0.54716 0.0
O931 O 0.07037 0.70412 0.58883 0.0
O932 O 0.09669 0.70202 0.57782 0.0
C933 C 0.09173 0.65141 0.59615 0.0
O934 O 0.0502 0.6788 0.58905 0.0
O935 O 0.05164 0.66651 0.56338 0.0
In936 In 0.42821 0.32449 0.07047 0.0
O937 O 0.42146 0.29853 0.08626 0.0
O938 O 0.43158 0.29636 0.0596 0.0
C939 C 0.40618 0.34768 0.08824 0.0
C940 C 0.46419 0.32771 0.07525 0.0
C941 C 0.41822 0.3319 0.03631 0.0
O942 O 0.40157 0.3319 0.08409 0.0
O943 O 0.4223 0.35138 0.08445 0.0
O944 O 0.43027 0.34061 0.04449 0.0
O945 O 0.41068 0.3199 0.04566 0.0
C946 C 0.42597 0.28829 0.07341 0.0
O947 O 0.4561 0.33089 0.06072 0.0
O948 O 0.45394 0.3236 0.08824 0.0
In949 In 0.67735 0.42907 0.07661 0.0
O950 O 0.66109 0.45509 0.07642 0.0
O951 O 0.68374 0.45412 0.09368 0.0
C952 C 0.67641 0.43004 0.04014 0.0
C953 C 0.71163 0.41915 0.08359 0.0
C954 C 0.65354 0.40522 0.0911 0.0
O955 O 0.66888 0.41778 0.04917 0.0
O956 O 0.68436 0.44172 0.04953 0.0
O957 O 0.67013 0.40208 0.08976 0.0
O958 O 0.64905 0.42069 0.08583 0.0
C959 C 0.67091 0.46338 0.08748 0.0
O960 O 0.70398 0.41632 0.06868 0.0
O961 O 0.70181 0.42674 0.09524 0.0
In962 In 0.57636 0.67961 0.07695 0.0
O963 O 0.57886 0.70373 0.09598 0.0
O964 O 0.58987 0.70603 0.06969 0.0
C965 C 0.5976 0.65377 0.09173 0.0
C966 C 0.54097 0.6811 0.08564 0.0
C967 C 0.57828 0.67351 0.04105 0.0
O968 O 0.60041 0.67035 0.09397 0.0
O969 O 0.58352 0.65027 0.08291 0.0
O970 O 0.56408 0.67125 0.05004 0.0
O971 O 0.59165 0.67848 0.05022 0.0
C972 C 0.58663 0.71363 0.08452 0.0
O973 O 0.54853 0.6916 0.07468 0.0
O974 O 0.55141 0.66967 0.09276 0.0
In975 In 0.32691 0.57433 0.07627 0.0
O976 O 0.32475 0.54914 0.09426 0.0
O977 O 0.33827 0.5467 0.06926 0.0
C978 C 0.32519 0.57654 0.03995 0.0
C979 C 0.29312 0.58389 0.08597 0.0
C980 C 0.35241 0.59662 0.09041 0.0
O981 O 0.31408 0.56776 0.04928 0.0
O982 O 0.33749 0.58407 0.04892 0.0
O983 O 0.33606 0.6009 0.08917 0.0
O984 O 0.35572 0.58078 0.08538 0.0
C985 C 0.33276 0.53891 0.08329 0.0
O986 O 0.30241 0.57282 0.09496 0.0
O987 O 0.30122 0.59066 0.07268 0.0
In988 In 0.42895 0.67353 0.92642 0.0
O989 O 0.45573 0.65845 0.92664 0.0
O990 O 0.45369 0.68094 0.90928 0.0
C991 C 0.42826 0.67057 0.9627 0.0
C992 C 0.42118 0.70884 0.92155 0.0
C993 C 0.40559 0.64911 0.91191 0.0
O994 O 0.44249 0.67339 0.9539 0.0
O995 O 0.41421 0.66944 0.95323 0.0
O996 O 0.40272 0.6658 0.9118 0.0
O997 O 0.42065 0.64485 0.91838 0.0
C998 C 0.46362 0.66871 0.91565 0.0
O999 O 0.42641 0.69884 0.9088 0.0
O1000 O 0.41959 0.70094 0.93649 0.0
In1001 In 0.32314 0.42453 0.92514 0.0
O1002 O 0.31401 0.45199 0.93388 0.0
O1003 O 0.32917 0.45104 0.90969 0.0
C1004 C 0.32989 0.42043 0.96073 0.0
C1005 C 0.28889 0.41556 0.91665 0.0
C1006 C 0.34928 0.40432 0.90917 0.0
O1007 O 0.33577 0.43345 0.95161 0.0
O1008 O 0.32107 0.40902 0.95178 0.0
O1009 O 0.33282 0.40028 0.90853 0.0
O1010 O 0.35241 0.41901 0.91699 0.0
C1011 C 0.32114 0.46073 0.92122 0.0
O1012 O 0.29849 0.42527 0.90648 0.0
O1013 O 0.29682 0.40999 0.93058 0.0
In1014 In 0.57581 0.32476 0.92746 0.0
O1015 O 0.57325 0.29983 0.90936 0.0
O1016 O 0.59151 0.29885 0.93134 0.0
C1017 C 0.59716 0.35031 0.91206 0.0
C1018 C 0.53958 0.32408 0.92289 0.0
C1019 C 0.58124 0.32998 0.96313 0.0
O1020 O 0.60046 0.33373 0.91101 0.0
O1021 O 0.58258 0.35388 0.91991 0.0
O1022 O 0.5711 0.33998 0.95388 0.0
O1023 O 0.58871 0.31757 0.95433 0.0
C1024 C 0.58438 0.29059 0.91835 0.0
O1025 O 0.54745 0.31856 0.93688 0.0
O1026 O 0.55006 0.32998 0.91082 0.0
In1027 In 0.67744 0.57277 0.92841 0.0
O1028 O 0.66141 0.54691 0.92591 0.0
O1029 O 0.68427 0.54951 0.90904 0.0
C1030 C 0.67155 0.57335 0.96437 0.0
C1031 C 0.71359 0.57741 0.92764 0.0
C1032 C 0.65469 0.59756 0.91386 0.0
O1033 O 0.67323 0.55909 0.95538 0.0
O1034 O 0.6724 0.58758 0.95511 0.0
O1035 O 0.67091 0.601 0.91749 0.0
O1036 O 0.65025 0.58147 0.91681 0.0
C1037 C 0.67154 0.53959 0.91444 0.0
O1038 O 0.70387 0.5811 0.91413 0.0
O1039 O 0.70504 0.57154 0.94104 0.0
In1040 In 0.07398 0.42936 0.32395 0.0
O1041 O 0.04835 0.43404 0.34002 0.0
O1042 O 0.04742 0.4146 0.31912 0.0
C1043 C 0.08148 0.46484 0.32592 0.0
C1044 C 0.08944 0.40605 0.3475 0.0
C1045 C 0.07882 0.42706 0.28799 0.0
O1046 O 0.06601 0.45823 0.3278 0.0
O1047 O 0.09399 0.4534 0.32419 0.0
O1048 O 0.09035 0.42074 0.2988 0.0
O1049 O 0.06515 0.43386 0.2953 0.0
C1050 C 0.03891 0.4231 0.33113 0.0
O1051 O 0.08432 0.40155 0.33195 0.0
O1052 O 0.08766 0.42261 0.35085 0.0
In1053 In 0.5738 0.07392 0.32903 0.0
O1054 O 0.54522 0.06601 0.33588 0.0
O1055 O 0.54888 0.09262 0.32636 0.0
C1056 C 0.58265 0.03942 0.3364 0.0
C1057 C 0.57807 0.0752 0.29286 0.0
C1058 C 0.59623 0.09097 0.35254 0.0
O1059 O 0.56916 0.04712 0.34329 0.0
O1060 O 0.592 0.04937 0.32629 0.0
O1061 O 0.59993 0.08879 0.33614 0.0
O1062 O 0.58072 0.08562 0.3568 0.0
C1063 C 0.53792 0.08069 0.33161 0.0
O1064 O 0.57914 0.08925 0.30243 0.0
O1065 O 0.57446 0.0611 0.30153 0.0
In1066 In 0.928 0.5706 0.32732 0.0
O1067 O 0.91399 0.59758 0.33321 0.0
O1068 O 0.91654 0.57907 0.35463 0.0
C1069 C 0.92837 0.57299 0.29106 0.0
C1070 C 0.96349 0.57584 0.33375 0.0
C1071 C 0.91476 0.53681 0.33131 0.0
O1072 O 0.91549 0.57935 0.30027 0.0
O1073 O 0.94064 0.56565 0.3002 0.0
O1074 O 0.92621 0.54357 0.34184 0.0
O1075 O 0.90917 0.54743 0.31927 0.0
C1076 C 0.91162 0.59454 0.34974 0.0
O1077 O 0.95553 0.56125 0.33716 0.0
O1078 O 0.95344 0.58797 0.32744 0.0
In1079 In 0.42816 0.93124 0.32646 0.0
O1080 O 0.42091 0.9155 0.3006 0.0
O1081 O 0.4328 0.94141 0.2983 0.0
C1082 C 0.40452 0.91456 0.34896 0.0
C1083 C 0.46386 0.92476 0.33088 0.0
C1084 C 0.41881 0.96593 0.33221 0.0
O1085 O 0.40081 0.91855 0.3329 0.0
O1086 O 0.42055 0.918 0.35336 0.0
O1087 O 0.4294 0.95754 0.34249 0.0
O1088 O 0.4125 0.95663 0.31952 0.0
C1089 C 0.42628 0.92797 0.29028 0.0
O1090 O 0.45633 0.93957 0.33425 0.0
O1091 O 0.45317 0.9125 0.32581 0.0
In1092 In 0.07589 0.57635 0.67801 0.0
O1093 O 0.04885 0.56847 0.66567 0.0
O1094 O 0.04992 0.59238 0.68117 0.0
C1095 C 0.08091 0.54019 0.67949 0.0
C1096 C 0.09082 0.59682 0.65145 0.0
C1097 C 0.08436 0.58542 0.71231 0.0
O1098 O 0.06775 0.54826 0.68653 0.0
O1099 O 0.09204 0.55045 0.67167 0.0
O1100 O 0.09506 0.57669 0.70234 0.0
O1101 O 0.06991 0.59001 0.7047 0.0
C1102 C 0.04037 0.5817 0.67209 0.0
O1103 O 0.09298 0.60018 0.66793 0.0
O1104 O 0.08209 0.5826 0.64846 0.0
In1105 In 0.42774 0.07343 0.67517 0.0
O1106 O 0.42031 0.08698 0.70221 0.0
O1107 O 0.43484 0.06234 0.70239 0.0
C1108 C 0.40358 0.08945 0.65266 0.0
C1109 C 0.46227 0.08392 0.66975 0.0
C1110 C 0.42004 0.03813 0.67087 0.0
O1111 O 0.40029 0.0864 0.66902 0.0
O1112 O 0.41934 0.08538 0.64797 0.0
O1113 O 0.4325 0.04581 0.66228 0.0
O1114 O 0.411 0.04842 0.68086 0.0
C1115 C 0.42743 0.07456 0.71151 0.0
O1116 O 0.45554 0.06983 0.6631 0.0
O1117 O 0.45127 0.09343 0.67861 0.0
In1118 In 0.92593 0.42692 0.67848 0.0
O1119 O 0.95182 0.43337 0.66307 0.0
O1120 O 0.95296 0.41324 0.68322 0.0
C1121 C 0.92158 0.46314 0.68075 0.0
C1122 C 0.91013 0.40513 0.65353 0.0
C1123 C 0.91742 0.41774 0.71262 0.0
O1124 O 0.9345 0.45461 0.68765 0.0
O1125 O 0.91038 0.45334 0.67243 0.0
O1126 O 0.90729 0.42764 0.70314 0.0
O1127 O 0.93131 0.41216 0.70463 0.0
C1128 C 0.96139 0.42222 0.67156 0.0
O1129 O 0.90948 0.40211 0.67019 0.0
O1130 O 0.91768 0.41978 0.64954 0.0
In1131 In 0.57451 0.92794 0.67966 0.0
O1132 O 0.57248 0.90971 0.7045 0.0
O1133 O 0.58911 0.93282 0.7062 0.0
C1134 C 0.59711 0.91321 0.65479 0.0
C1135 C 0.53925 0.92103 0.67309 0.0
C1136 C 0.57664 0.96427 0.67926 0.0
O1137 O 0.6013 0.91509 0.67112 0.0
O1138 O 0.58121 0.91791 0.65122 0.0
O1139 O 0.56615 0.95569 0.68949 0.0
O1140 O 0.58618 0.95449 0.66916 0.0
C1141 C 0.58255 0.91938 0.7142 0.0
O1142 O 0.54711 0.93527 0.66827 0.0
O1143 O 0.54942 0.90968 0.68067 0.0
In1144 In 0.32389 0.07731 0.42793 0.0
O1145 O 0.33706 0.07029 0.45463 0.0
O1146 O 0.32149 0.09417 0.45393 0.0
C1147 C 0.32488 0.04098 0.42566 0.0
C1148 C 0.28942 0.08546 0.41942 0.0
C1149 C 0.34748 0.09343 0.40487 0.0
O1150 O 0.31354 0.04938 0.43506 0.0
O1151 O 0.33584 0.05093 0.4173 0.0
O1152 O 0.33143 0.08989 0.40078 0.0
O1153 O 0.35142 0.08968 0.42093 0.0
C1154 C 0.33087 0.08349 0.46329 0.0
O1155 O 0.29856 0.09482 0.43031 0.0
O1156 O 0.29786 0.07243 0.41258 0.0
In1157 In 0.32502 0.92491 0.57471 0.0
O1158 O 0.33729 0.93193 0.54753 0.0
O1159 O 0.32375 0.90691 0.54946 0.0
C1160 C 0.32545 0.96125 0.5768 0.0
C1161 C 0.29049 0.91647 0.5827 0.0
C1162 C 0.34867 0.90961 0.59824 0.0
O1163 O 0.33663 0.95152 0.5851 0.0
O1164 O 0.31417 0.95263 0.5675 0.0
O1165 O 0.33229 0.91206 0.60181 0.0
O1166 O 0.35298 0.91409 0.58245 0.0
C1167 C 0.33204 0.91794 0.53951 0.0
O1168 O 0.3 0.90707 0.57217 0.0
O1169 O 0.29865 0.92964 0.58962 0.0
In1170 In 0.07441 0.32324 0.57471 0.0
O1171 O 0.08776 0.33288 0.60088 0.0
O1172 O 0.083 0.35232 0.58071 0.0
C1173 C 0.08576 0.28969 0.58337 0.0
C1174 C 0.03819 0.32152 0.57864 0.0
C1175 C 0.07911 0.3291 0.53893 0.0
O1176 O 0.07386 0.29803 0.59213 0.0
O1177 O 0.09264 0.29864 0.57064 0.0
O1178 O 0.06419 0.33045 0.54687 0.0
O1179 O 0.09215 0.32527 0.54918 0.0
C1180 C 0.08853 0.34922 0.59644 0.0
O1181 O 0.04732 0.33472 0.58422 0.0
O1182 O 0.04736 0.30935 0.57119 0.0
In1183 In 0.67554 0.07687 0.57713 0.0
O1184 O 0.70158 0.0937 0.57537 0.0
O1185 O 0.70301 0.06771 0.58709 0.0
C1186 C 0.65154 0.09295 0.59995 0.0
C1187 C 0.669 0.08452 0.54196 0.0
C1188 C 0.67264 0.04079 0.58095 0.0
O1189 O 0.66825 0.09287 0.60273 0.0
O1190 O 0.64712 0.08598 0.58518 0.0
O1191 O 0.67385 0.04843 0.56584 0.0
O1192 O 0.67292 0.05134 0.59425 0.0
C1193 C 0.71132 0.08178 0.58261 0.0
O1194 O 0.66095 0.07236 0.55064 0.0
O1195 O 0.68006 0.09352 0.55126 0.0
In1196 In 0.92802 0.67496 0.57113 0.0
O1197 O 0.95535 0.6669 0.56002 0.0
O1198 O 0.95419 0.67413 0.58757 0.0
C1199 C 0.91495 0.66958 0.53743 0.0
C1200 C 0.91305 0.65186 0.59546 0.0
C1201 C 0.92673 0.71123 0.57427 0.0
O1202 O 0.92711 0.66009 0.54446 0.0
O1203 O 0.90841 0.68133 0.54785 0.0
O1204 O 0.91406 0.7013 0.57987 0.0
O1205 O 0.93962 0.70283 0.56709 0.0
C1206 C 0.96383 0.6691 0.57453 0.0
O1207 O 0.9156 0.6683 0.59875 0.0
O1208 O 0.91715 0.64735 0.57965 0.0
In1209 In 0.68136 0.92712 0.42782 0.0
O1210 O 0.67357 0.9383 0.45495 0.0
O1211 O 0.68055 0.91066 0.45436 0.0
C1212 C 0.68188 0.96331 0.42372 0.0
C1213 C 0.7152 0.91672 0.41927 0.0
C1214 C 0.65598 0.91159 0.40635 0.0
O1215 O 0.66858 0.95387 0.41893 0.0
O1216 O 0.69476 0.95444 0.43026 0.0
O1217 O 0.67198 0.91418 0.40142 0.0
O1218 O 0.65298 0.91599 0.42246 0.0
C1219 C 0.67599 0.92408 0.46382 0.0
O1220 O 0.70656 0.90981 0.43222 0.0
O1221 O 0.7064 0.9281 0.41027 0.0
In1222 In 0.07526 0.67999 0.42585 0.0
O1223 O 0.09295 0.6688 0.40304 0.0
O1224 O 0.07846 0.65019 0.419 0.0
C1225 C 0.08409 0.71314 0.41359 0.0
C1226 C 0.03899 0.676 0.42423 0.0
C1227 C 0.08449 0.68109 0.46121 0.0
O1228 O 0.06913 0.70573 0.41052 0.0
O1229 O 0.09499 0.70355 0.42246 0.0
O1230 O 0.07447 0.69251 0.45366 0.0
O1231 O 0.09042 0.66902 0.45076 0.0
C1232 C 0.08873 0.65258 0.4057 0.0
O1233 O 0.04776 0.67479 0.43869 0.0
O1234 O 0.04853 0.67896 0.41052 0.0
In1235 In 0.9272 0.32628 0.42981 0.0
O1236 O 0.95447 0.34044 0.43198 0.0
O1237 O 0.95235 0.31843 0.41405 0.0
C1238 C 0.91904 0.33373 0.46454 0.0
C1239 C 0.91078 0.34824 0.40545 0.0
C1240 C 0.92336 0.29017 0.43111 0.0
O1241 O 0.93339 0.33862 0.45692 0.0
O1242 O 0.90816 0.32543 0.45439 0.0
O1243 O 0.91233 0.29997 0.42256 0.0
O1244 O 0.93577 0.29867 0.43897 0.0
C1245 C 0.96235 0.33021 0.42099 0.0
O1246 O 0.91534 0.33232 0.40187 0.0
O1247 O 0.91349 0.35267 0.42159 0.0
C1248 C 0.1292 0.14384 0.40429 0.0
C1249 C 0.1108 0.13943 0.40541 0.0
C1250 C 0.14251 0.13044 0.40462 0.0
C1251 C 0.13794 0.1121 0.40615 0.0
H1252 H 0.13344 0.15779 0.40424 0.0
H1253 H 0.15649 0.13459 0.40482 0.0
S1254 S 0.09167 0.09325 0.40617 0.0
N1255 N 0.08867 0.11526 0.40556 0.0
N1256 N 0.11368 0.09013 0.40629 0.0
C1257 C 0.11959 0.10743 0.40569 0.0
C1258 C 0.10602 0.12108 0.40529 0.0
C1259 C 0.88022 0.10881 0.40627 0.0
C1260 C 0.8619 0.11367 0.40634 0.0
C1261 C 0.89382 0.12189 0.40666 0.0
C1262 C 0.88967 0.14037 0.40714 0.0
H1263 H 0.88413 0.09477 0.40697 0.0
H1264 H 0.90767 0.11741 0.40765 0.0
S1265 S 0.84388 0.16024 0.40431 0.0
N1266 N 0.84038 0.13829 0.4045 0.0
N1267 N 0.86594 0.16287 0.40525 0.0
C1268 C 0.87146 0.14544 0.40564 0.0
C1269 C 0.85758 0.13209 0.40523 0.0
C1270 C 0.88391 0.89566 0.40717 0.0
C1271 C 0.86558 0.892 0.40402 0.0
C1272 C 0.89679 0.88186 0.40716 0.0
C1273 C 0.89187 0.86384 0.404 0.0
H1274 H 0.88824 0.90911 0.41074 0.0
H1275 H 0.91052 0.88524 0.41074 0.0
S1276 S 0.8462 0.84759 0.39179 0.0
N1277 N 0.84358 0.8694 0.39521 0.0
N1278 N 0.86778 0.84347 0.39518 0.0
C1279 C 0.87388 0.86023 0.39922 0.0
C1280 C 0.86074 0.87431 0.39924 0.0
C1281 C 0.12836 0.86056 0.40692 0.0
C1282 C 0.11017 0.86442 0.41064 0.0
C1283 C 0.14141 0.87423 0.40653 0.0
C1284 C 0.1368 0.89229 0.40991 0.0
H1285 H 0.13277 0.84677 0.40519 0.0
H1286 H 0.15536 0.87041 0.40461 0.0
S1287 S 0.09062 0.90991 0.41746 0.0
N1288 N 0.08791 0.88794 0.41557 0.0
N1289 N 0.11241 0.91356 0.41491 0.0
C1290 C 0.11846 0.89651 0.41224 0.0
C1291 C 0.10516 0.88259 0.41259 0.0
C1292 C 0.14413 0.87264 0.59916 0.0
C1293 C 0.13921 0.89088 0.59761 0.0
C1294 C 0.13109 0.85898 0.59923 0.0
C1295 C 0.11262 0.86303 0.59791 0.0
H1296 H 0.1582 0.86877 0.5991 0.0
H1297 H 0.13561 0.84512 0.59929 0.0
S1298 S 0.09259 0.90883 0.597 0.0
N1299 N 0.11454 0.91237 0.59719 0.0
N1300 N 0.09001 0.88676 0.59754 0.0
C1301 C 0.10747 0.88128 0.59806 0.0
C1302 C 0.12077 0.89518 0.59784 0.0
C1303 C 0.10328 0.11944 0.58746 0.0
C1304 C 0.10686 0.1372 0.59299 0.0
C1305 C 0.11671 0.10617 0.58779 0.0
C1306 C 0.13432 0.11013 0.59358 0.0
H1307 H 0.09024 0.11593 0.58194 0.0
H1308 H 0.11347 0.09299 0.58248 0.0
S1309 S 0.14999 0.15383 0.61205 0.0
N1310 N 0.12877 0.15748 0.60648 0.0
N1311 N 0.15404 0.13257 0.60698 0.0
C1312 C 0.13772 0.12745 0.60047 0.0
C1313 C 0.12399 0.14097 0.60021 0.0
C1314 C 0.89443 0.11895 0.5914 0.0
C1315 C 0.88995 0.13696 0.59522 0.0
C1316 C 0.88126 0.10543 0.59108 0.0
C1317 C 0.86303 0.10936 0.59449 0.0
H1318 H 0.90807 0.11538 0.58767 0.0
H1319 H 0.88529 0.09199 0.58711 0.0
S1320 S 0.84466 0.1538 0.60808 0.0
N1321 N 0.86632 0.15757 0.60472 0.0
N1322 N 0.84155 0.13217 0.60402 0.0
C1323 C 0.85859 0.12702 0.59975 0.0
C1324 C 0.87204 0.1408 0.60015 0.0
C1325 C 0.87311 0.85744 0.59295 0.0
C1326 C 0.89143 0.86226 0.59342 0.0
C1327 C 0.85952 0.87055 0.59307 0.0
C1328 C 0.8637 0.88902 0.59364 0.0
H1329 H 0.8692 0.84347 0.59143 0.0
H1330 H 0.84568 0.86616 0.59165 0.0
S1331 S 0.90945 0.90865 0.59808 0.0
N1332 N 0.91294 0.88674 0.59681 0.0
N1333 N 0.88741 0.91136 0.597 0.0
C1334 C 0.88188 0.89397 0.59565 0.0
C1335 C 0.89575 0.8806 0.59556 0.0
C1336 C 0.404 0.13215 0.14201 0.0
C1337 C 0.4026 0.11357 0.13858 0.0
C1338 C 0.40464 0.14468 0.12791 0.0
C1339 C 0.40395 0.13914 0.10979 0.0
H1340 H 0.40571 0.13702 0.15565 0.0
H1341 H 0.40681 0.15871 0.13126 0.0
S1342 S 0.39702 0.09236 0.09366 0.0
N1343 N 0.39805 0.09049 0.11579 0.0
N1344 N 0.39931 0.11404 0.08929 0.0
C1345 C 0.40091 0.12078 0.10622 0.0
C1346 C 0.40022 0.108 0.12062 0.0
C1347 C 0.89394 0.40868 0.12045 0.0
C1348 C 0.88977 0.40593 0.13874 0.0
C1349 C 0.88041 0.40905 0.10726 0.0
C1350 C 0.86218 0.40663 0.11184 0.0
H1351 H 0.90762 0.41164 0.11636 0.0
H1352 H 0.88421 0.41228 0.09356 0.0
S1353 S 0.84452 0.39575 0.15735 0.0
N1354 N 0.86638 0.39837 0.16038 0.0
N1355 N 0.84098 0.39898 0.13563 0.0
C1356 C 0.85802 0.40231 0.12984 0.0
C1357 C 0.8718 0.40198 0.14328 0.0
C1358 C 0.5977 0.87039 0.14555 0.0
C1359 C 0.59834 0.88889 0.14153 0.0
C1360 C 0.59745 0.85744 0.13184 0.0
C1361 C 0.59777 0.86247 0.11356 0.0
H1362 H 0.59627 0.86587 0.15935 0.0
H1363 H 0.59586 0.84344 0.13562 0.0
S1364 S 0.60282 0.90895 0.09594 0.0
N1365 N 0.60187 0.91144 0.11802 0.0
N1366 N 0.60131 0.88708 0.09225 0.0
C1367 C 0.60007 0.8808 0.1094 0.0
C1368 C 0.60039 0.89402 0.12339 0.0
C1369 C 0.10961 0.59593 0.11866 0.0
C1370 C 0.11389 0.5992 0.13684 0.0
C1371 C 0.123 0.59547 0.10536 0.0
C1372 C 0.14121 0.59845 0.10965 0.0
H1373 H 0.09594 0.59261 0.11478 0.0
H1374 H 0.11913 0.59185 0.09177 0.0
S1375 S 0.15916 0.61049 0.15474 0.0
N1376 N 0.13736 0.60756 0.15807 0.0
N1377 N 0.16253 0.60693 0.13305 0.0
C1378 C 0.14548 0.60326 0.12749 0.0
C1379 C 0.13183 0.60356 0.1411 0.0
C1380 C 0.40598 0.89 0.88112 0.0
C1381 C 0.40629 0.88541 0.86272 0.0
C1382 C 0.40601 0.8767 0.89455 0.0
C1383 C 0.40632 0.85827 0.89013 0.0
H1384 H 0.40677 0.90396 0.88524 0.0
H1385 H 0.40683 0.88094 0.90848 0.0
S1386 S 0.40408 0.83914 0.84399 0.0
N1387 N 0.40459 0.86113 0.84083 0.0
N1388 N 0.4046 0.83617 0.86602 0.0
C1389 C 0.40511 0.85351 0.87182 0.0
C1390 C 0.40511 0.86707 0.85813 0.0
C1391 C 0.12853 0.40419 0.86014 0.0
C1392 C 0.11025 0.40707 0.86423 0.0
C1393 C 0.14173 0.40438 0.87366 0.0
C1394 C 0.13717 0.40747 0.8918 0.0
H1395 H 0.13286 0.40286 0.84627 0.0
H1396 H 0.15571 0.40317 0.86967 0.0
S1397 S 0.09089 0.41247 0.91002 0.0
N1398 N 0.08803 0.41062 0.88805 0.0
N1399 N 0.11282 0.41101 0.91341 0.0
C1400 C 0.1188 0.40878 0.89626 0.0
C1401 C 0.10534 0.40857 0.88249 0.0
C1402 C 0.59802 0.12929 0.86453 0.0
C1403 C 0.59534 0.11101 0.86877 0.0
C1404 C 0.59774 0.14259 0.87796 0.0
C1405 C 0.59464 0.13813 0.89613 0.0
H1406 H 0.59934 0.13351 0.85063 0.0
H1407 H 0.59881 0.15655 0.87388 0.0
S1408 S 0.59003 0.09201 0.91473 0.0
N1409 N 0.59197 0.08897 0.89279 0.0
N1410 N 0.59124 0.11396 0.91793 0.0
C1411 C 0.59343 0.11981 0.90072 0.0
C1412 C 0.59384 0.10625 0.88707 0.0
C1413 C 0.88224 0.59298 0.89647 0.0
C1414 C 0.86371 0.59459 0.8928 0.0
C1415 C 0.89501 0.59308 0.88253 0.0
C1416 C 0.88976 0.59488 0.8644 0.0
H1417 H 0.88686 0.59043 0.91006 0.0
H1418 H 0.90898 0.59065 0.88595 0.0
S1419 S 0.84323 0.60298 0.84799 0.0
N1420 N 0.841 0.60056 0.86998 0.0
N1421 N 0.86496 0.60088 0.84383 0.0
C1422 C 0.87145 0.59817 0.86073 0.0
C1423 C 0.85844 0.59799 0.87492 0.0
C1424 C 0.12131 0.41404 0.10581 0.0
C1425 C 0.13938 0.41126 0.11082 0.0
C1426 C 0.10753 0.41452 0.11871 0.0
C1427 C 0.11124 0.41232 0.13717 0.0
H1428 H 0.11786 0.41679 0.09191 0.0
H1429 H 0.094 0.41761 0.11421 0.0
S1430 S 0.15589 0.40195 0.1571 0.0
N1431 N 0.15993 0.40418 0.13535 0.0
N1432 N 0.13403 0.40518 0.15958 0.0
C1433 C 0.12902 0.40817 0.14223 0.0
C1434 C 0.14309 0.4076 0.12906 0.0
C1435 C 0.12676 0.59887 0.86071 0.0
C1436 C 0.10866 0.59507 0.86487 0.0
C1437 C 0.14009 0.59893 0.87412 0.0
C1438 C 0.13584 0.59516 0.89221 0.0
H1439 H 0.1309 0.60075 0.84685 0.0
H1440 H 0.15397 0.60085 0.87005 0.0
S1441 S 0.08999 0.58764 0.91066 0.0
N1442 N 0.08685 0.58991 0.88877 0.0
N1443 N 0.11186 0.58998 0.91391 0.0
C1444 C 0.11758 0.59291 0.89677 0.0
C1445 C 0.104 0.59288 0.88312 0.0
C1446 C 0.40898 0.12698 0.85614 0.0
C1447 C 0.40774 0.1088 0.86135 0.0
C1448 C 0.40848 0.14088 0.86893 0.0
C1449 C 0.40676 0.13714 0.88744 0.0
H1450 H 0.41135 0.1305 0.84219 0.0
H1451 H 0.41053 0.15457 0.86433 0.0
S1452 S 0.39996 0.09202 0.90782 0.0
N1453 N 0.40239 0.08799 0.88609 0.0
N1454 N 0.40151 0.11407 0.91008 0.0
C1455 C 0.40404 0.11914 0.89267 0.0
C1456 C 0.40451 0.10498 0.87965 0.0
C1457 C 0.85962 0.40257 0.87339 0.0
C1458 C 0.86384 0.40512 0.89169 0.0
C1459 C 0.87307 0.40286 0.86012 0.0
C1460 C 0.89125 0.40575 0.86465 0.0
H1461 H 0.84572 0.40148 0.8691 0.0
H1462 H 0.869 0.40198 0.84614 0.0
S1463 S 0.90976 0.40964 0.91091 0.0
N1464 N 0.88779 0.40797 0.91386 0.0
N1465 N 0.91303 0.40856 0.88895 0.0
C1466 C 0.89583 0.40662 0.88302 0.0
C1467 C 0.88213 0.40629 0.89654 0.0
C1468 C 0.59453 0.8722 0.85923 0.0
C1469 C 0.59508 0.89052 0.86405 0.0
C1470 C 0.59476 0.85861 0.87235 0.0
C1471 C 0.59555 0.86279 0.89082 0.0
H1472 H 0.59289 0.86829 0.84527 0.0
H1473 H 0.59327 0.84478 0.86798 0.0
S1474 S 0.60033 0.90854 0.91038 0.0
N1475 N 0.59878 0.91202 0.88847 0.0
N1476 N 0.59922 0.88651 0.91311 0.0
C1477 C 0.59762 0.88098 0.89574 0.0
C1478 C 0.59738 0.89483 0.88236 0.0
C1479 C 0.89492 0.59512 0.12397 0.0
C1480 C 0.89152 0.5937 0.14257 0.0
C1481 C 0.88079 0.59601 0.11145 0.0
C1482 C 0.86269 0.59545 0.11703 0.0
H1483 H 0.90859 0.59459 0.11892 0.0
H1484 H 0.88414 0.59603 0.09726 0.0
S1485 S 0.84652 0.59484 0.16433 0.0
N1486 N 0.86867 0.5941 0.16605 0.0
N1487 N 0.84215 0.59569 0.14255 0.0
C1488 C 0.8591 0.59551 0.13565 0.0
C1489 C 0.87351 0.59466 0.14841 0.0
C1490 C 0.40702 0.88088 0.10943 0.0
C1491 C 0.40732 0.86256 0.11427 0.0
C1492 C 0.40727 0.89447 0.12256 0.0
C1493 C 0.4079 0.89026 0.14104 0.0
H1494 H 0.40767 0.88481 0.09539 0.0
H1495 H 0.40813 0.90834 0.11813 0.0
S1496 S 0.40556 0.84445 0.16085 0.0
N1497 N 0.40573 0.84099 0.13888 0.0
N1498 N 0.40631 0.8665 0.1635 0.0
C1499 C 0.40663 0.87204 0.14606 0.0
C1500 C 0.40631 0.8582 0.13269 0.0
C1501 C 0.59316 0.12084 0.11204 0.0
C1502 C 0.59353 0.13921 0.11666 0.0
C1503 C 0.59314 0.1074 0.12533 0.0
C1504 C 0.59332 0.11182 0.14376 0.0
H1505 H 0.59187 0.11678 0.09809 0.0
H1506 H 0.59175 0.09351 0.12111 0.0
S1507 S 0.5974 0.15775 0.16295 0.0
N1508 N 0.59654 0.16099 0.14097 0.0
N1509 N 0.59624 0.13575 0.16588 0.0
C1510 C 0.59519 0.13005 0.14852 0.0
C1511 C 0.59537 0.14374 0.13499 0.0
C1512 C 0.6228 0.60722 0.90909 0.0
C1513 C 0.64123 0.61166 0.90935 0.0
C1514 C 0.60949 0.62061 0.90852 0.0
C1515 C 0.61406 0.63899 0.90813 0.0
H1516 H 0.61853 0.59333 0.91035 0.0
H1517 H 0.59552 0.6165 0.9094 0.0
S1518 S 0.66038 0.65766 0.90555 0.0
N1519 N 0.66336 0.63567 0.90691 0.0
N1520 N 0.63837 0.66083 0.90576 0.0
C1521 C 0.63243 0.64356 0.90685 0.0
C1522 C 0.646 0.6299 0.90749 0.0
C1523 C 0.39477 0.6172 0.91133 0.0
C1524 C 0.39142 0.63554 0.9079 0.0
C1525 C 0.38078 0.6045 0.91129 0.0
C1526 C 0.36286 0.60963 0.90786 0.0
H1527 H 0.40815 0.61272 0.91503 0.0
H1528 H 0.38392 0.59074 0.91498 0.0
S1529 S 0.34735 0.65543 0.89519 0.0
N1530 N 0.36916 0.65777 0.89877 0.0
N1531 N 0.3429 0.63395 0.89874 0.0
C1532 C 0.35955 0.62765 0.90301 0.0
C1533 C 0.37381 0.64059 0.90301 0.0
C1534 C 0.37272 0.35989 0.90043 0.0
C1535 C 0.39096 0.36413 0.90337 0.0
C1536 C 0.35937 0.37327 0.90087 0.0
C1537 C 0.36374 0.39138 0.90431 0.0
H1538 H 0.36853 0.346 0.89894 0.0
H1539 H 0.34542 0.36915 0.89968 0.0
S1540 S 0.40983 0.41003 0.90935 0.0
N1541 N 0.41293 0.38813 0.90715 0.0
N1542 N 0.38786 0.4132 0.90806 0.0
C1543 C 0.38206 0.39602 0.90559 0.0
C1544 C 0.39567 0.38241 0.90509 0.0
C1545 C 0.6064 0.38261 0.91096 0.0
C1546 C 0.61057 0.36444 0.90759 0.0
C1547 C 0.61979 0.39591 0.91079 0.0
C1548 C 0.63791 0.39157 0.90731 0.0
H1549 H 0.59286 0.38649 0.91476 0.0
H1550 H 0.61602 0.40951 0.91446 0.0
S1551 S 0.65543 0.34652 0.89467 0.0
N1552 N 0.63375 0.3432 0.89836 0.0
N1553 N 0.65892 0.36819 0.89813 0.0
C1554 C 0.64202 0.37373 0.90243 0.0
C1555 C 0.62835 0.36017 0.90254 0.0
C1556 C 0.60882 0.38093 0.09409 0.0
C1557 C 0.614 0.36283 0.09624 0.0
C1558 C 0.62164 0.39478 0.09373 0.0
C1559 C 0.64014 0.39108 0.09556 0.0
H1560 H 0.59487 0.38436 0.09152 0.0
H1561 H 0.61707 0.40835 0.09096 0.0
S1562 S 0.66038 0.34634 0.10489 0.0
N1563 N 0.63864 0.34225 0.10271 0.0
N1564 N 0.66273 0.36827 0.10211 0.0
C1565 C 0.64533 0.37325 0.09934 0.0
C1566 C 0.63227 0.35913 0.09966 0.0
C1567 C 0.62013 0.60813 0.09383 0.0
C1568 C 0.6383 0.61249 0.09703 0.0
C1569 C 0.60679 0.62147 0.09337 0.0
C1570 C 0.61105 0.6397 0.09627 0.0
H1571 H 0.61628 0.59445 0.09056 0.0
H1572 H 0.5932 0.61755 0.08981 0.0
S1573 S 0.65611 0.6578 0.10817 0.0
N1574 N 0.65949 0.63602 0.10528 0.0
N1575 N 0.6344 0.6611 0.10464 0.0
C1576 C 0.62889 0.64404 0.10102 0.0
C1577 C 0.64252 0.63044 0.10133 0.0
C1578 C 0.36215 0.62817 0.0971 0.0
C1579 C 0.36675 0.60999 0.09439 0.0
C1580 C 0.37533 0.6417 0.09719 0.0
C1581 C 0.39364 0.63758 0.0945 0.0
H1582 H 0.34815 0.63215 0.09819 0.0
H1583 H 0.37099 0.65558 0.09831 0.0
S1584 S 0.41311 0.59179 0.08989 0.0
N1585 N 0.39118 0.58838 0.0913 0.0
N1586 N 0.41591 0.61379 0.09138 0.0
C1587 C 0.39857 0.61933 0.09324 0.0
C1588 C 0.38515 0.60554 0.09322 0.0
C1589 C 0.39756 0.37999 0.09198 0.0
C1590 C 0.3929 0.36168 0.0935 0.0
C1591 C 0.38435 0.39349 0.09241 0.0
C1592 C 0.366 0.38922 0.09447 0.0
H1593 H 0.41133 0.38389 0.08921 0.0
H1594 H 0.38849 0.40726 0.09 0.0
S1595 S 0.3472 0.34362 0.10256 0.0
N1596 N 0.36899 0.34022 0.09975 0.0
N1597 N 0.3442 0.36557 0.10069 0.0
C1598 C 0.36139 0.37113 0.09776 0.0
C1599 C 0.37483 0.35737 0.09723 0.0
C1600 C 0.91069 0.61994 0.60589 0.0
C1601 C 0.9087 0.63841 0.60963 0.0
C1602 C 0.91042 0.60705 0.6197 0.0
C1603 C 0.90802 0.61208 0.63781 0.0
H1604 H 0.91355 0.61543 0.59231 0.0
H1605 H 0.91306 0.59314 0.61621 0.0
S1606 S 0.89922 0.65839 0.65445 0.0
N1607 N 0.90208 0.66085 0.63253 0.0
N1608 N 0.9014 0.63664 0.65846 0.0
C1609 C 0.90449 0.63033 0.64156 0.0
C1610 C 0.90488 0.64349 0.62749 0.0
C1611 C 0.38069 0.90612 0.60812 0.0
C1612 C 0.36222 0.905 0.61222 0.0
C1613 C 0.39377 0.90577 0.62175 0.0
C1614 C 0.38888 0.90431 0.64001 0.0
H1615 H 0.38508 0.90838 0.59439 0.0
H1616 H 0.40771 0.9078 0.61799 0.0
S1617 S 0.34257 0.89761 0.6576 0.0
N1618 N 0.3399 0.89982 0.63564 0.0
N1619 N 0.36445 0.89921 0.66123 0.0
C1620 C 0.37059 0.90156 0.64414 0.0
C1621 C 0.35727 0.90189 0.63025 0.0
C1622 C 0.09572 0.37273 0.64119 0.0
C1623 C 0.09319 0.39101 0.63684 0.0
C1624 C 0.09544 0.35937 0.62784 0.0
C1625 C 0.09265 0.36374 0.6096 0.0
H1626 H 0.09689 0.36856 0.65512 0.0
H1627 H 0.09644 0.34543 0.63201 0.0
S1628 S 0.08843 0.40985 0.59078 0.0
N1629 N 0.09011 0.41296 0.61273 0.0
N1630 N 0.08961 0.38788 0.58767 0.0
C1631 C 0.0916 0.38207 0.60491 0.0
C1632 C 0.09186 0.39569 0.61852 0.0
C1633 C 0.60657 0.0962 0.62375 0.0
C1634 C 0.61149 0.09804 0.64197 0.0
C1635 C 0.61957 0.09593 0.61006 0.0
C1636 C 0.63804 0.09757 0.614 0.0
H1637 H 0.59264 0.09387 0.62007 0.0
H1638 H 0.61515 0.09342 0.59639 0.0
S1639 S 0.65776 0.10576 0.6592 0.0
N1640 N 0.63594 0.1038 0.66297 0.0
N1641 N 0.66038 0.1034 0.63724 0.0
C1642 C 0.64302 0.10099 0.63197 0.0
C1643 C 0.62975 0.10119 0.64595 0.0
C1644 C 0.90703 0.3801 0.39546 0.0
C1645 C 0.90619 0.36164 0.39132 0.0
C1646 C 0.90707 0.39317 0.38184 0.0
C1647 C 0.90602 0.38834 0.36355 0.0
H1648 H 0.90888 0.38451 0.40924 0.0
H1649 H 0.90887 0.40713 0.38567 0.0
S1650 S 0.90056 0.34202 0.3457 0.0
N1651 N 0.9021 0.3393 0.36772 0.0
N1652 N 0.90191 0.36392 0.34214 0.0
C1653 C 0.90353 0.37005 0.3593 0.0
C1654 C 0.90369 0.35669 0.37319 0.0
C1655 C 0.64563 0.9049 0.37502 0.0
C1656 C 0.64145 0.90693 0.3934 0.0
C1657 C 0.63207 0.90451 0.36188 0.0
C1658 C 0.61379 0.90618 0.36659 0.0
H1659 H 0.65953 0.90467 0.37059 0.0
H1660 H 0.63606 0.90406 0.34785 0.0
S1661 S 0.59552 0.90844 0.41308 0.0
N1662 N 0.61758 0.90808 0.41581 0.0
N1663 N 0.59212 0.9074 0.39113 0.0
C1664 C 0.60935 0.90657 0.38502 0.0
C1665 C 0.62318 0.90693 0.39842 0.0
C1666 C 0.09879 0.64234 0.37518 0.0
C1667 C 0.09296 0.638 0.39269 0.0
C1668 C 0.09932 0.62928 0.36151 0.0
C1669 C 0.0942 0.61134 0.36488 0.0
H1670 H 0.10194 0.65614 0.37168 0.0
H1671 H 0.10288 0.6335 0.34801 0.0
S1672 S 0.08058 0.59249 0.40918 0.0
N1673 N 0.08391 0.6141 0.41314 0.0
N1674 N 0.0851 0.58955 0.38762 0.0
C1675 C 0.08975 0.60655 0.38269 0.0
C1676 C 0.08907 0.61988 0.39655 0.0
C1677 C 0.36917 0.09945 0.35916 0.0
C1678 C 0.38768 0.09945 0.36321 0.0
C1679 C 0.35616 0.09892 0.37283 0.0
C1680 C 0.36114 0.09835 0.39112 0.0
H1681 H 0.36464 0.09873 0.34531 0.0
H1682 H 0.34214 0.09785 0.36897 0.0
S1683 S 0.40772 0.10142 0.40897 0.0
N1684 N 0.41026 0.10136 0.38688 0.0
N1685 N 0.38581 0.10033 0.41257 0.0
C1686 C 0.37953 0.1 0.39538 0.0
C1687 C 0.3928 0.10056 0.38143 0.0
C1688 C 0.62891 0.90737 0.64534 0.0
C1689 C 0.61061 0.90892 0.64066 0.0
C1690 C 0.64241 0.90713 0.63212 0.0
C1691 C 0.63815 0.90844 0.61369 0.0
H1692 H 0.63297 0.90737 0.65935 0.0
H1693 H 0.65633 0.90697 0.63648 0.0
S1694 S 0.59213 0.90959 0.5942 0.0
N1695 N 0.58883 0.90941 0.61619 0.0
N1696 N 0.61418 0.90897 0.59138 0.0
C1697 C 0.61985 0.90847 0.60878 0.0
C1698 C 0.60608 0.9087 0.62225 0.0
C1699 C 0.61959 0.09434 0.39771 0.0
C1700 C 0.6378 0.09658 0.39291 0.0
C1701 C 0.60597 0.09402 0.38462 0.0
C1702 C 0.61001 0.09588 0.3662 0.0
H1703 H 0.61589 0.09175 0.41158 0.0
H1704 H 0.59234 0.09115 0.38894 0.0
S1705 S 0.65513 0.10532 0.34683 0.0
N1706 N 0.65882 0.10315 0.36865 0.0
N1707 N 0.63325 0.10251 0.34407 0.0
C1708 C 0.62794 0.09974 0.36137 0.0
C1709 C 0.64182 0.10009 0.37472 0.0
C1710 C 0.90779 0.60502 0.38147 0.0
C1711 C 0.90677 0.60879 0.36292 0.0
C1712 C 0.90736 0.61884 0.3943 0.0
C1713 C 0.90583 0.637 0.38914 0.0
H1714 H 0.91003 0.59138 0.38612 0.0
H1715 H 0.90926 0.61529 0.40833 0.0
S1716 S 0.89953 0.65381 0.34248 0.0
N1717 N 0.90179 0.63182 0.34017 0.0
N1718 N 0.90091 0.6578 0.36431 0.0
C1719 C 0.90319 0.64083 0.37075 0.0
C1720 C 0.90368 0.62673 0.35764 0.0
C1721 C 0.39464 0.90992 0.38084 0.0
C1722 C 0.3905 0.90958 0.36234 0.0
C1723 C 0.38102 0.90934 0.39393 0.0
C1724 C 0.36273 0.90838 0.38905 0.0
H1725 H 0.40841 0.91175 0.38528 0.0
H1726 H 0.38485 0.91073 0.40794 0.0
S1727 S 0.34496 0.90382 0.34255 0.0
N1728 N 0.36695 0.90573 0.33991 0.0
N1729 N 0.34139 0.90463 0.36448 0.0
C1730 C 0.35852 0.90643 0.37067 0.0
C1731 C 0.3724 0.90703 0.35733 0.0
C1732 C 0.09471 0.37412 0.35673 0.0
C1733 C 0.09423 0.39247 0.36141 0.0
C1734 C 0.09534 0.36064 0.36994 0.0
C1735 C 0.09542 0.36497 0.3884 0.0
H1736 H 0.09361 0.37004 0.34277 0.0
H1737 H 0.09462 0.34673 0.36563 0.0
S1738 S 0.09738 0.411 0.40773 0.0
N1739 N 0.09625 0.41428 0.38577 0.0
N1740 N 0.09733 0.38896 0.4106 0.0
C1741 C 0.09649 0.38326 0.39323 0.0
C1742 C 0.09592 0.39701 0.37974 0.0
C1743 C 0.35719 0.09362 0.63184 0.0
C1744 C 0.36097 0.09484 0.6133 0.0
C1745 C 0.37107 0.0933 0.64467 0.0
C1746 C 0.38928 0.09413 0.63946 0.0
H1747 H 0.34347 0.09184 0.63647 0.0
H1748 H 0.36749 0.09126 0.65866 0.0
S1749 S 0.40624 0.10063 0.59289 0.0
N1750 N 0.38417 0.09932 0.5906 0.0
N1751 N 0.4102 0.09865 0.61467 0.0
C1752 C 0.39316 0.0969 0.62111 0.0
C1753 C 0.37902 0.09729 0.60804 0.0
C1754 C 0.90836 0.38135 0.60845 0.0
C1755 C 0.90538 0.36327 0.61331 0.0
C1756 C 0.90855 0.39507 0.62143 0.0
C1757 C 0.90566 0.3913 0.63977 0.0
H1758 H 0.91163 0.38485 0.59467 0.0
H1759 H 0.91197 0.40858 0.61713 0.0
S1760 S 0.89419 0.34663 0.65909 0.0
N1761 N 0.89724 0.34267 0.63743 0.0
N1762 N 0.89745 0.36845 0.66178 0.0
C1763 C 0.90113 0.37352 0.64459 0.0
C1764 C 0.90103 0.35951 0.63137 0.0
C1765 C 0.09018 0.60589 0.61905 0.0
C1766 C 0.09516 0.60987 0.6369 0.0
C1767 C 0.0904 0.61916 0.60562 0.0
C1768 C 0.09561 0.63696 0.60946 0.0
H1769 H 0.08509 0.59267 0.61558 0.0
H1770 H 0.08548 0.61561 0.59235 0.0
S1771 S 0.1127 0.65367 0.65336 0.0
N1772 N 0.10761 0.63237 0.65717 0.0
N1773 N 0.10802 0.6573 0.63193 0.0
C1774 C 0.10206 0.64076 0.62688 0.0
C1775 C 0.10184 0.62722 0.64059 0.0
C1776 C 0.09422 0.24291 0.43077 0.0
C1777 C 0.0863 0.23315 0.41657 0.0
C1778 C 0.09513 0.26177 0.4304 0.0
C1779 C 0.08797 0.27163 0.4159 0.0
H1780 H 0.09923 0.23598 0.44259 0.0
H1781 H 0.10065 0.26866 0.442 0.0
S1782 S 0.06746 0.25246 0.37453 0.0
N1783 N 0.07254 0.23471 0.38691 0.0
N1784 N 0.07405 0.27014 0.38627 0.0
C1785 C 0.08092 0.262 0.40116 0.0
C1786 C 0.08014 0.24276 0.40147 0.0
C1787 C 0.76035 0.09677 0.43018 0.0
C1788 C 0.7697 0.08741 0.41659 0.0
C1789 C 0.74149 0.09758 0.43035 0.0
C1790 C 0.7312 0.08891 0.41703 0.0
H1791 H 0.76762 0.10299 0.44119 0.0
H1792 H 0.73495 0.10425 0.44155 0.0
S1793 S 0.74915 0.06441 0.37731 0.0
N1794 N 0.76727 0.07074 0.38853 0.0
N1795 N 0.73181 0.0721 0.38891 0.0
C1796 C 0.74039 0.08045 0.40276 0.0
C1797 C 0.75964 0.07974 0.40251 0.0
C1798 C 0.903 0.75959 0.42254 0.0
C1799 C 0.91547 0.76942 0.41216 0.0
C1800 C 0.90312 0.7407 0.42272 0.0
C1801 C 0.91591 0.73095 0.41274 0.0
H1802 H 0.89351 0.76652 0.43118 0.0
H1803 H 0.8938 0.73376 0.43154 0.0
S1804 S 0.9501 0.75014 0.38174 0.0
N1805 N 0.9398 0.76789 0.39029 0.0
N1806 N 0.94022 0.73243 0.39084 0.0
C1807 C 0.92773 0.74057 0.40147 0.0
C1808 C 0.92746 0.75979 0.40111 0.0
C1809 C 0.24102 0.92575 0.40537 0.0
C1810 C 0.23143 0.91468 0.41737 0.0
C1811 C 0.25992 0.92584 0.40517 0.0
C1812 C 0.26996 0.91474 0.41684 0.0
H1813 H 0.23393 0.93514 0.39675 0.0
H1814 H 0.2667 0.93525 0.39632 0.0
S1815 S 0.2512 0.88146 0.44907 0.0
N1816 N 0.23333 0.89102 0.43994 0.0
N1817 N 0.26879 0.89106 0.43944 0.0
C1818 C 0.26051 0.90268 0.42798 0.0
C1819 C 0.24126 0.9027 0.42829 0.0
C1820 C 0.07449 0.74096 0.59865 0.0
C1821 C 0.08775 0.73133 0.5891 0.0
C1822 C 0.07463 0.75983 0.59931 0.0
C1823 C 0.08796 0.76984 0.59031 0.0
H1824 H 0.06342 0.73392 0.60503 0.0
H1825 H 0.06362 0.7666 0.60608 0.0
S1826 S 0.12708 0.75109 0.56544 0.0
N1827 N 0.11565 0.73321 0.57206 0.0
N1828 N 0.11586 0.76866 0.57317 0.0
C1829 C 0.10199 0.76036 0.58177 0.0
C1830 C 0.10191 0.74112 0.5812 0.0
C1831 C 0.23972 0.09789 0.57451 0.0
C1832 C 0.22965 0.08767 0.58692 0.0
C1833 C 0.25861 0.09779 0.57473 0.0
C1834 C 0.26819 0.08729 0.58724 0.0
H1835 H 0.23297 0.10547 0.56403 0.0
H1836 H 0.2657 0.10521 0.56437 0.0
S1837 S 0.24832 0.05993 0.62407 0.0
N1838 N 0.23075 0.06822 0.61325 0.0
N1839 N 0.26622 0.06786 0.61354 0.0
C1840 C 0.25832 0.07793 0.60045 0.0
C1841 C 0.23907 0.07817 0.60034 0.0
C1842 C 0.92007 0.25972 0.59976 0.0
C1843 C 0.91004 0.26966 0.58708 0.0
C1844 C 0.92013 0.24082 0.59959 0.0
C1845 C 0.91028 0.23114 0.58664 0.0
H1846 H 0.92863 0.26656 0.60938 0.0
H1847 H 0.92879 0.23382 0.60901 0.0
S1848 S 0.87981 0.25063 0.55213 0.0
N1849 N 0.88841 0.26829 0.56252 0.0
N1850 N 0.88867 0.23284 0.5621 0.0
C1851 C 0.89922 0.24087 0.57471 0.0
C1852 C 0.89905 0.26011 0.57496 0.0
C1853 C 0.76172 0.92277 0.59736 0.0
C1854 C 0.77085 0.91339 0.58368 0.0
C1855 C 0.74285 0.92312 0.598 0.0
C1856 C 0.7324 0.91387 0.58517 0.0
H1857 H 0.76915 0.93074 0.60705 0.0
H1858 H 0.73641 0.93128 0.60823 0.0
S1859 S 0.74983 0.88539 0.54802 0.0
N1860 N 0.76807 0.89328 0.55798 0.0
N1861 N 0.73262 0.8937 0.55939 0.0
C1862 C 0.74137 0.90339 0.57221 0.0
C1863 C 0.7606 0.90323 0.5714 0.0
C1864 C 0.40159 0.07825 0.26068 0.0
C1865 C 0.41299 0.09011 0.27014 0.0
C1866 C 0.40117 0.07799 0.24179 0.0
C1867 C 0.41214 0.08957 0.23159 0.0
H1868 H 0.39348 0.0685 0.26788 0.0
H1869 H 0.39282 0.06802 0.23518 0.0
S1870 S 0.44254 0.12487 0.2498 0.0
N1871 N 0.43414 0.11498 0.26785 0.0
N1872 N 0.43335 0.11455 0.2324 0.0
C1873 C 0.42269 0.10232 0.24088 0.0
C1874 C 0.42312 0.10258 0.26013 0.0
C1875 C 0.90562 0.42665 0.2415 0.0
C1876 C 0.91644 0.41462 0.23162 0.0
C1877 C 0.905 0.42604 0.26039 0.0
C1878 C 0.91546 0.4136 0.2701 0.0
H1879 H 0.898 0.43702 0.23462 0.0
H1880 H 0.89708 0.43607 0.26743 0.0
S1881 S 0.94479 0.37814 0.25065 0.0
N1882 N 0.93672 0.38895 0.23297 0.0
N1883 N 0.93588 0.38809 0.26844 0.0
C1884 C 0.92564 0.40093 0.26037 0.0
C1885 C 0.92604 0.40136 0.24114 0.0
C1886 C 0.57822 0.90563 0.26282 0.0
C1887 C 0.58818 0.91847 0.27253 0.0
C1888 C 0.5785 0.90534 0.24391 0.0
C1889 C 0.58883 0.91779 0.23398 0.0
H1890 H 0.56951 0.89626 0.26982 0.0
H1891 H 0.56999 0.8957 0.23703 0.0
S1892 S 0.61907 0.95269 0.2531 0.0
N1893 N 0.60998 0.94288 0.27085 0.0
N1894 N 0.61054 0.94226 0.23542 0.0
C1895 C 0.5997 0.92997 0.24358 0.0
C1896 C 0.59935 0.93034 0.26281 0.0
C1897 C 0.09748 0.57752 0.23993 0.0
C1898 C 0.08732 0.59018 0.23012 0.0
C1899 C 0.09784 0.57772 0.25883 0.0
C1900 C 0.0878 0.5904 0.26867 0.0
H1901 H 0.10474 0.56695 0.23297 0.0
H1902 H 0.10521 0.5672 0.26575 0.0
S1903 S 0.06048 0.6276 0.24951 0.0
N1904 N 0.06826 0.61676 0.23173 0.0
N1905 N 0.06863 0.61689 0.26722 0.0
C1906 C 0.07837 0.60373 0.25905 0.0
C1907 C 0.07822 0.60369 0.23979 0.0
C1908 C 0.42993 0.90464 0.76144 0.0
C1909 C 0.41626 0.91338 0.77127 0.0
C1910 C 0.42983 0.90437 0.74256 0.0
C1911 C 0.41612 0.91298 0.73271 0.0
H1912 H 0.44119 0.89847 0.76837 0.0
H1913 H 0.44105 0.89811 0.73566 0.0
S1914 S 0.37618 0.93612 0.75195 0.0
N1915 N 0.38782 0.92953 0.7697 0.0
N1916 N 0.38767 0.92917 0.73423 0.0
C1917 C 0.40183 0.92089 0.74236 0.0
C1918 C 0.40188 0.92105 0.76162 0.0
C1919 C 0.07512 0.40322 0.76015 0.0
C1920 C 0.08775 0.41351 0.76979 0.0
C1921 C 0.07474 0.40344 0.74127 0.0
C1922 C 0.08705 0.41385 0.73127 0.0
H1923 H 0.06477 0.39575 0.76721 0.0
H1924 H 0.06416 0.39602 0.73451 0.0
S1925 S 0.12454 0.44102 0.75002 0.0
N1926 N 0.11416 0.43281 0.76789 0.0
N1927 N 0.11349 0.43312 0.73242 0.0
C1928 C 0.10063 0.42307 0.7407 0.0
C1929 C 0.10095 0.42294 0.75995 0.0
C1930 C 0.59681 0.07727 0.74497 0.0
C1931 C 0.58507 0.08874 0.73545 0.0
C1932 C 0.59706 0.07695 0.76387 0.0
C1933 C 0.58543 0.08795 0.774 0.0
H1934 H 0.60543 0.06796 0.73779 0.0
H1935 H 0.60578 0.06736 0.77054 0.0
S1936 S 0.55356 0.12183 0.75567 0.0
N1937 N 0.5627 0.11254 0.73765 0.0
N1938 N 0.56301 0.1118 0.77312 0.0
C1939 C 0.57436 0.1002 0.76467 0.0
C1940 C 0.57423 0.10064 0.74542 0.0
C1941 C 0.90289 0.57774 0.74144 0.0
C1942 C 0.91458 0.58937 0.73216 0.0
C1943 C 0.90262 0.57723 0.76032 0.0
C1944 C 0.91388 0.58848 0.77065 0.0
H1945 H 0.89468 0.56817 0.73411 0.0
H1946 H 0.8941 0.56735 0.76685 0.0
S1947 S 0.94497 0.62327 0.75279 0.0
N1948 N 0.93626 0.61379 0.73467 0.0
N1949 N 0.9356 0.61298 0.77012 0.0
C1950 C 0.92458 0.60116 0.76153 0.0
C1951 C 0.92498 0.60156 0.74229 0.0
C1952 C 0.24438 0.42624 0.09738 0.0
C1953 C 0.23403 0.41614 0.08512 0.0
C1954 C 0.26327 0.42611 0.0967 0.0
C1955 C 0.27249 0.41614 0.08351 0.0
H1956 H 0.23784 0.43486 0.10716 0.0
H1957 H 0.27064 0.43464 0.10596 0.0
S1958 S 0.25177 0.38615 0.04932 0.0
N1959 N 0.23448 0.39475 0.06034 0.0
N1960 N 0.26992 0.39477 0.05884 0.0
C1961 C 0.26234 0.40527 0.07177 0.0
C1962 C 0.24312 0.40518 0.07265 0.0
C1963 C 0.24011 0.57497 0.90159 0.0
C1964 C 0.23033 0.58794 0.91138 0.0
C1965 C 0.25899 0.57515 0.9012 0.0
C1966 C 0.26883 0.58824 0.9107 0.0
H1967 H 0.23319 0.56401 0.89491 0.0
H1968 H 0.26587 0.56427 0.89436 0.0
S1969 S 0.24965 0.62685 0.93602 0.0
N1970 N 0.23188 0.61551 0.92894 0.0
N1971 N 0.26735 0.61583 0.9283 0.0
C1972 C 0.2592 0.60214 0.91931 0.0
C1973 C 0.23995 0.602 0.91962 0.0
C1974 C 0.40415 0.24044 0.92192 0.0
C1975 C 0.41756 0.23082 0.91265 0.0
C1976 C 0.40382 0.25933 0.9217 0.0
C1977 C 0.41669 0.2693 0.91195 0.0
H1978 H 0.39442 0.23339 0.93019 0.0
H1979 H 0.39379 0.26619 0.92977 0.0
S1980 S 0.45327 0.25039 0.88365 0.0
N1981 N 0.4431 0.23258 0.89222 0.0
N1982 N 0.44227 0.26802 0.89155 0.0
C1983 C 0.42942 0.2598 0.90165 0.0
C1984 C 0.42992 0.24057 0.90209 0.0
C1985 C 0.75994 0.42245 0.90343 0.0
C1986 C 0.76971 0.41249 0.91628 0.0
C1987 C 0.74107 0.42287 0.90362 0.0
C1988 C 0.73122 0.41347 0.91678 0.0
H1989 H 0.76693 0.43068 0.89362 0.0
H1990 H 0.73422 0.43143 0.89399 0.0
S1991 S 0.75021 0.38343 0.95195 0.0
N1992 N 0.76802 0.39147 0.94134 0.0
N1993 N 0.73256 0.39236 0.9418 0.0
C1994 C 0.74076 0.40248 0.92894 0.0
C1995 C 0.76 0.40194 0.92865 0.0
C1996 C 0.57895 0.76014 0.90614 0.0
C1997 C 0.58848 0.76992 0.91932 0.0
C1998 C 0.57849 0.74125 0.90637 0.0
C1999 C 0.5873 0.73144 0.91995 0.0
H2000 H 0.57124 0.76715 0.89593 0.0
H2001 H 0.57041 0.73434 0.89637 0.0
S2002 S 0.61568 0.75042 0.95646 0.0
N2003 N 0.60825 0.76821 0.94539 0.0
N2004 N 0.60713 0.73279 0.94598 0.0
C2005 C 0.59765 0.74099 0.93263 0.0
C2006 C 0.59832 0.7602 0.93226 0.0
C2007 C 0.7415 0.59494 0.0726 0.0
C2008 C 0.73159 0.58707 0.08674 0.0
C2009 C 0.76037 0.5957 0.07305 0.0
C2010 C 0.77012 0.58846 0.08758 0.0
H2011 H 0.73467 0.60004 0.06076 0.0
H2012 H 0.76736 0.6012 0.06149 0.0
S2013 S 0.7506 0.56816 0.12891 0.0
N2014 N 0.73294 0.57333 0.11643 0.0
N2015 N 0.76838 0.57459 0.11722 0.0
C2016 C 0.76036 0.58146 0.10227 0.0
C2017 C 0.74111 0.58082 0.10187 0.0
C2018 C 0.40483 0.74239 0.07433 0.0
C2019 C 0.4146 0.73249 0.08722 0.0
C2020 C 0.40487 0.76127 0.07438 0.0
C2021 C 0.41486 0.77097 0.08719 0.0
H2022 H 0.39772 0.73552 0.06361 0.0
H2023 H 0.39785 0.76825 0.06366 0.0
S2024 S 0.4408 0.75156 0.12526 0.0
N2025 N 0.43299 0.73387 0.11429 0.0
N2026 N 0.43324 0.76933 0.11425 0.0
C2027 C 0.42371 0.76128 0.10087 0.0
C2028 C 0.42352 0.74204 0.10093 0.0
C2029 C 0.59857 0.24035 0.08114 0.0
C2030 C 0.58576 0.23123 0.09167 0.0
C2031 C 0.59919 0.25921 0.08075 0.0
C2032 C 0.58713 0.26968 0.091 0.0
H2033 H 0.6075 0.23293 0.07232 0.0
H2034 H 0.60865 0.26562 0.07168 0.0
S2035 S 0.55291 0.25224 0.12296 0.0
N2036 N 0.56211 0.23401 0.11418 0.0
N2037 N 0.56337 0.26944 0.11355 0.0
C2038 C 0.57522 0.26071 0.10267 0.0
C2039 C 0.57449 0.24149 0.10296 0.0
C2040 C 0.93994 0.75977 0.56594 0.0
C2041 C 0.92811 0.76964 0.57695 0.0
C2042 C 0.93936 0.74096 0.56535 0.0
C2043 C 0.92676 0.73116 0.57556 0.0
H2044 H 0.94978 0.76662 0.55763 0.0
H2045 H 0.94878 0.73408 0.5566 0.0
S2046 S 0.89282 0.75051 0.6067 0.0
N2047 N 0.90353 0.76822 0.59854 0.0
N2048 N 0.90225 0.73274 0.59722 0.0
C2049 C 0.91485 0.74081 0.5867 0.0
C2050 C 0.9156 0.76007 0.58748 0.0
C2051 C 0.24237 0.9249 0.59761 0.0
C2052 C 0.23234 0.91398 0.58585 0.0
C2053 C 0.26126 0.92487 0.59717 0.0
C2054 C 0.27083 0.91382 0.58508 0.0
H2055 H 0.23563 0.93426 0.60652 0.0
H2056 H 0.26838 0.93416 0.60587 0.0
S2057 S 0.25085 0.88085 0.5533 0.0
N2058 N 0.23335 0.89044 0.56309 0.0
N2059 N 0.2688 0.89031 0.56238 0.0
C2060 C 0.26096 0.9019 0.57418 0.0
C2061 C 0.24173 0.90201 0.57453 0.0
C2062 C 0.0976 0.24148 0.57207 0.0
C2063 C 0.08859 0.23164 0.58555 0.0
C2064 C 0.09784 0.26035 0.57222 0.0
C2065 C 0.08896 0.27012 0.58579 0.0
H2066 H 0.10374 0.23459 0.56077 0.0
H2067 H 0.10408 0.26727 0.561 0.0
S2068 S 0.06582 0.25081 0.62569 0.0
N2069 N 0.07245 0.2331 0.61402 0.0
N2070 N 0.0728 0.26855 0.61425 0.0
C2071 C 0.08114 0.26046 0.60011 0.0
C2072 C 0.08099 0.24122 0.60001 0.0
C2073 C 0.75984 0.09416 0.57242 0.0
C2074 C 0.76964 0.08292 0.58414 0.0
C2075 C 0.74093 0.09449 0.57267 0.0
C2076 C 0.73114 0.08332 0.5844 0.0
H2077 H 0.76681 0.10243 0.56263 0.0
H2078 H 0.73395 0.10292 0.56302 0.0
S2079 S 0.75032 0.05237 0.61865 0.0
N2080 N 0.76807 0.06123 0.60863 0.0
N2081 N 0.73262 0.06157 0.60883 0.0
C2082 C 0.74077 0.07256 0.59667 0.0
C2083 C 0.76 0.07244 0.59662 0.0
C2084 C 0.91515 0.24175 0.4165 0.0
C2085 C 0.92449 0.2318 0.42968 0.0
C2086 C 0.91419 0.26065 0.41735 0.0
C2087 C 0.92273 0.27024 0.43128 0.0
H2088 H 0.90863 0.23492 0.40539 0.0
H2089 H 0.90718 0.26781 0.40675 0.0
S2090 S 0.94815 0.25059 0.46958 0.0
N2091 N 0.94182 0.23307 0.45749 0.0
N2092 N 0.94014 0.26837 0.45894 0.0
C2093 C 0.93178 0.26043 0.4447 0.0
C2094 C 0.93263 0.24128 0.44394 0.0
C2095 C 0.74512 0.90636 0.43061 0.0
C2096 C 0.73485 0.91418 0.41677 0.0
C2097 C 0.76398 0.90715 0.43039 0.0
C2098 C 0.77332 0.91568 0.41625 0.0
H2099 H 0.73857 0.90047 0.44224 0.0
H2100 H 0.77124 0.9017 0.44181 0.0
S2101 S 0.75277 0.93587 0.37543 0.0
N2102 N 0.73544 0.92898 0.38754 0.0
N2103 N 0.77088 0.93036 0.38708 0.0
C2104 C 0.76326 0.92235 0.40166 0.0
C2105 C 0.74403 0.92163 0.40193 0.0
C2106 C 0.10102 0.76077 0.41926 0.0
C2107 C 0.08827 0.77089 0.40952 0.0
C2108 C 0.10054 0.7419 0.41933 0.0
C2109 C 0.08723 0.73246 0.40974 0.0
H2110 H 0.11074 0.76744 0.42784 0.0
H2111 H 0.10988 0.73475 0.42796 0.0
S2112 S 0.053 0.75246 0.37929 0.0
N2113 N 0.06369 0.76995 0.38788 0.0
N2114 N 0.06273 0.73451 0.3881 0.0
C2115 C 0.07551 0.74235 0.3986 0.0
C2116 C 0.07605 0.76157 0.39845 0.0
C2117 C 0.24105 0.09848 0.42878 0.0
C2118 C 0.23132 0.08807 0.41627 0.0
C2119 C 0.25992 0.09851 0.42895 0.0
C2120 C 0.2698 0.08798 0.41672 0.0
H2121 H 0.23405 0.10612 0.43905 0.0
H2122 H 0.26676 0.10607 0.43938 0.0
S2123 S 0.25087 0.06021 0.37971 0.0
N2124 N 0.23304 0.06844 0.39013 0.0
N2125 N 0.26851 0.06835 0.39052 0.0
C2126 C 0.26028 0.07845 0.40337 0.0
C2127 C 0.24104 0.07854 0.40312 0.0
C2128 C 0.59614 0.92826 0.74368 0.0
C2129 C 0.58464 0.91679 0.7339 0.0
C2130 C 0.59619 0.92832 0.76257 0.0
C2131 C 0.58462 0.91702 0.7724 0.0
H2132 H 0.60467 0.93784 0.73672 0.0
H2133 H 0.60468 0.93797 0.76946 0.0
S2134 S 0.55359 0.88279 0.75333 0.0
N2135 N 0.56271 0.89252 0.73554 0.0
N2136 N 0.56268 0.89274 0.77101 0.0
C2137 C 0.57388 0.90468 0.76283 0.0
C2138 C 0.57393 0.90452 0.74358 0.0
C2139 C 0.0746 0.59841 0.74178 0.0
C2140 C 0.08713 0.58813 0.73192 0.0
C2141 C 0.07475 0.59861 0.76067 0.0
C2142 C 0.08736 0.58844 0.77044 0.0
H2143 H 0.06402 0.60572 0.73489 0.0
H2144 H 0.06422 0.60596 0.7676 0.0
S2145 S 0.12469 0.56135 0.75112 0.0
N2146 N 0.11377 0.56915 0.73339 0.0
N2147 N 0.114 0.56943 0.76886 0.0
C2148 C 0.10078 0.57916 0.76077 0.0
C2149 C 0.10069 0.57904 0.74151 0.0
C2150 C 0.41659 0.08623 0.74151 0.0
C2151 C 0.42675 0.07372 0.73149 0.0
C2152 C 0.41562 0.08516 0.76043 0.0
C2153 C 0.42496 0.07169 0.76993 0.0
H2154 H 0.4093 0.09688 0.73472 0.0
H2155 H 0.40782 0.09514 0.76766 0.0
S2156 S 0.45267 0.03513 0.75009 0.0
N2157 N 0.44576 0.04701 0.73265 0.0
N2158 N 0.44403 0.04518 0.76791 0.0
C2159 C 0.43495 0.05901 0.76006 0.0
C2160 C 0.43583 0.05998 0.74092 0.0
C2161 C 0.90368 0.42686 0.74195 0.0
C2162 C 0.91478 0.41502 0.73222 0.0
C2163 C 0.90373 0.42692 0.76084 0.0
C2164 C 0.91474 0.41503 0.77071 0.0
H2165 H 0.89568 0.43687 0.73499 0.0
H2166 H 0.89565 0.43693 0.76772 0.0
S2167 S 0.94422 0.37954 0.75156 0.0
N2168 N 0.93558 0.38976 0.7338 0.0
N2169 N 0.93553 0.38978 0.76928 0.0
C2170 C 0.92484 0.4022 0.76114 0.0
C2171 C 0.9249 0.40223 0.74189 0.0
C2172 C 0.5823 0.09077 0.24414 0.0
C2173 C 0.58283 0.0744 0.23458 0.0
C2174 C 0.58124 0.09103 0.26305 0.0
C2175 C 0.58064 0.07493 0.27304 0.0
H2176 H 0.58202 0.10346 0.23695 0.0
H2177 H 0.58034 0.1039 0.26984 0.0
S2178 S 0.58385 0.02856 0.25451 0.0
N2179 N 0.58428 0.04175 0.23665 0.0
N2180 N 0.58228 0.0422 0.27196 0.0
C2181 C 0.58205 0.05852 0.26364 0.0
C2182 C 0.58315 0.05826 0.24448 0.0
C2183 C 0.91858 0.5861 0.24237 0.0
C2184 C 0.93083 0.57539 0.23265 0.0
C2185 C 0.91768 0.5852 0.26128 0.0
C2186 C 0.92919 0.57376 0.27111 0.0
H2187 H 0.90944 0.59501 0.23532 0.0
H2188 H 0.90799 0.59358 0.26824 0.0
S2189 S 0.96402 0.54335 0.25199 0.0
N2190 N 0.9549 0.55323 0.23431 0.0
N2191 N 0.95334 0.55166 0.26961 0.0
C2192 C 0.94163 0.56317 0.2615 0.0
C2193 C 0.94242 0.56396 0.24235 0.0
C2194 C 0.43246 0.94189 0.24169 0.0
C2195 C 0.42284 0.92885 0.23192 0.0
C2196 C 0.43342 0.94131 0.26046 0.0
C2197 C 0.42491 0.92759 0.27036 0.0
H2198 H 0.43947 0.95266 0.2348 0.0
H2199 H 0.44107 0.95173 0.26722 0.0
S2200 S 0.39775 0.89025 0.25131 0.0
N2201 N 0.40437 0.90186 0.23352 0.0
N2202 N 0.40625 0.90072 0.26901 0.0
C2203 C 0.41509 0.91448 0.26084 0.0
C2204 C 0.414 0.91515 0.24158 0.0
C2205 C 0.08596 0.41265 0.25822 0.0
C2206 C 0.08127 0.42794 0.26832 0.0
C2207 C 0.08571 0.41311 0.23926 0.0
C2208 C 0.08109 0.42898 0.2299 0.0
H2209 H 0.08904 0.4001 0.26498 0.0
H2210 H 0.08879 0.4009 0.23191 0.0
S2211 S 0.06964 0.4731 0.25062 0.0
N2212 N 0.07308 0.45953 0.26787 0.0
N2213 N 0.07302 0.4607 0.2325 0.0
C2214 C 0.07728 0.44456 0.24004 0.0
C2215 C 0.07725 0.44396 0.25919 0.0
C2216 C 0.74298 0.57049 0.9421 0.0
C2217 C 0.7335 0.57894 0.92803 0.0
C2218 C 0.76177 0.57092 0.94291 0.0
C2219 C 0.77196 0.58004 0.92984 0.0
H2220 H 0.73585 0.56312 0.95248 0.0
H2221 H 0.76837 0.56388 0.95385 0.0
S2222 S 0.7538 0.605 0.89055 0.0
N2223 N 0.73573 0.5971 0.90087 0.0
N2224 N 0.77123 0.59816 0.90257 0.0
C2225 C 0.76273 0.58898 0.91591 0.0
C2226 C 0.74346 0.58833 0.91494 0.0
C2227 C 0.75963 0.40533 0.07326 0.0
C2228 C 0.76947 0.41336 0.08729 0.0
C2229 C 0.7408 0.40643 0.07272 0.0
C2230 C 0.73107 0.41547 0.08625 0.0
H2231 H 0.76653 0.39911 0.06202 0.0
H2232 H 0.7339 0.40083 0.06115 0.0
S2233 S 0.75033 0.43629 0.12738 0.0
N2234 N 0.768 0.42884 0.11613 0.0
N2235 N 0.7326 0.43078 0.11516 0.0
C2236 C 0.74065 0.42229 0.10109 0.0
C2237 C 0.75986 0.42126 0.10159 0.0
C2238 C 0.59901 0.74301 0.07391 0.0
C2239 C 0.58937 0.73323 0.08699 0.0
C2240 C 0.59897 0.76187 0.0738 0.0
C2241 C 0.58912 0.77167 0.08666 0.0
H2242 H 0.606 0.73605 0.06316 0.0
H2243 H 0.60587 0.76876 0.06295 0.0
S2244 S 0.56367 0.75259 0.12522 0.0
N2245 N 0.57133 0.73482 0.11429 0.0
N2246 N 0.5711 0.77027 0.11399 0.0
C2247 C 0.58046 0.76211 0.10054 0.0
C2248 C 0.58063 0.74288 0.10074 0.0
C2249 C 0.26408 0.59887 0.0778 0.0
C2250 C 0.27356 0.58677 0.08893 0.0
C2251 C 0.2452 0.59944 0.07778 0.0
C2252 C 0.23508 0.58784 0.08879 0.0
H2253 H 0.27125 0.60737 0.06836 0.0
H2254 H 0.23852 0.60827 0.06828 0.0
S2255 S 0.25334 0.55557 0.12233 0.0
N2256 N 0.27136 0.5644 0.11275 0.0
N2257 N 0.23591 0.56539 0.11263 0.0
C2258 C 0.24438 0.57663 0.10093 0.0
C2259 C 0.26361 0.57613 0.10103 0.0
C2260 C 0.43427 0.23966 0.06083 0.0
C2261 C 0.4235 0.22995 0.07299 0.0
C2262 C 0.43492 0.25845 0.06123 0.0
C2263 C 0.42505 0.26838 0.07398 0.0
H2264 H 0.44223 0.23269 0.05078 0.0
H2265 H 0.44337 0.26524 0.05146 0.0
S2266 S 0.39491 0.24946 0.10902 0.0
N2267 N 0.40269 0.23163 0.09823 0.0
N2268 N 0.40417 0.26712 0.09917 0.0
C2269 C 0.4143 0.2589 0.08636 0.0
C2270 C 0.41343 0.23965 0.08578 0.0
C2271 C 0.24084 0.42565 0.90303 0.0
C2272 C 0.23076 0.41411 0.9142 0.0
C2273 C 0.25972 0.42513 0.90288 0.0
C2274 C 0.26924 0.41319 0.91407 0.0
H2275 H 0.23414 0.43575 0.89491 0.0
H2276 H 0.26687 0.43491 0.89475 0.0
S2277 S 0.24923 0.37854 0.94403 0.0
N2278 N 0.23171 0.38907 0.93529 0.0
N2279 N 0.26717 0.38822 0.93517 0.0
C2280 C 0.25932 0.40073 0.92436 0.0
C2281 C 0.24008 0.40115 0.92438 0.0
C2282 C 0.57398 0.26114 0.9059 0.0
C2283 C 0.58679 0.27095 0.91579 0.0
C2284 C 0.57371 0.24228 0.90636 0.0
C2285 C 0.58634 0.2325 0.91659 0.0
H2286 H 0.56341 0.26806 0.8986 0.0
H2287 H 0.563 0.23536 0.89929 0.0
S2288 S 0.62435 0.25178 0.94266 0.0
N2289 N 0.61366 0.26948 0.93448 0.0
N2290 N 0.61324 0.23403 0.93522 0.0
C2291 C 0.60009 0.24211 0.92538 0.0
C2292 C 0.60028 0.26134 0.92502 0.0
C2293 C 0.40895 0.75697 0.93356 0.0
C2294 C 0.41694 0.76704 0.91966 0.0
C2295 C 0.4098 0.73811 0.93367 0.0
C2296 C 0.41845 0.72855 0.91976 0.0
H2297 H 0.40274 0.7637 0.94492 0.0
H2298 H 0.40407 0.73099 0.94504 0.0
S2299 S 0.4398 0.74853 0.87924 0.0
N2300 N 0.4326 0.76603 0.89091 0.0
N2301 N 0.43396 0.73058 0.89099 0.0
C2302 C 0.42556 0.73841 0.90524 0.0
C2303 C 0.42488 0.75765 0.90523 0.0
C2304 C 0.01109 0.15674 0.41779 0.0
C2305 C 0.02041 0.17146 0.41036 0.0
C2306 C 0.99224 0.15615 0.41795 0.0
C2307 C 0.98188 0.17026 0.4107 0.0
H2308 H 0.01837 0.14589 0.42428 0.0
H2309 H 0.98576 0.1449 0.42461 0.0
S2310 S 0.9997 0.2109 0.38769 0.0
N2311 N 0.01786 0.19973 0.39402 0.0
N2312 N 0.98238 0.19864 0.39435 0.0
C2313 C 0.991 0.18448 0.40208 0.0
C2314 C 0.01028 0.18508 0.40192 0.0
C2315 C 0.81953 0.01168 0.40289 0.0
C2316 C 0.83356 0.02179 0.41065 0.0
C2317 C 0.81994 0.99276 0.40292 0.0
C2318 C 0.83438 0.98326 0.41073 0.0
H2319 H 0.80771 0.01837 0.39758 0.0
H2320 H 0.80841 0.98556 0.39762 0.0
S2321 S 0.87577 0.00343 0.43018 0.0
N2322 N 0.86328 0.02088 0.42439 0.0
N2323 N 0.86402 0.98545 0.42447 0.0
C2324 C 0.84906 0.99323 0.41735 0.0
C2325 C 0.84866 0.01246 0.4173 0.0
C2326 C 0.99156 0.83141 0.40896 0.0
C2327 C 0.98155 0.8205 0.42083 0.0
C2328 C 0.01052 0.83171 0.40955 0.0
C2329 C 0.02009 0.82118 0.42208 0.0
H2330 H 0.98471 0.8401 0.39946 0.0
H2331 H 0.01769 0.8406 0.40047 0.0
S2332 S 1.00032 0.78874 0.45463 0.0
N2333 N 0.98279 0.79777 0.4444 0.0
N2334 N 0.01813 0.79842 0.44556 0.0
C2335 C 0.01023 0.80971 0.4335 0.0
C2336 C 0.99105 0.80935 0.43286 0.0
C2337 C 0.19018 0.99263 0.43227 0.0
C2338 C 0.17985 0.98261 0.41996 0.0
C2339 C 0.19012 0.01144 0.4321 0.0
C2340 C 0.17972 0.02118 0.41961 0.0
H2341 H 0.19821 0.98591 0.44243 0.0
H2342 H 0.1981 0.01839 0.44214 0.0
S2343 S 0.15094 0.00149 0.38382 0.0
N2344 N 0.15943 0.98384 0.39437 0.0
N2345 N 0.15932 0.01937 0.39405 0.0
C2346 C 0.16973 0.0114 0.4068 0.0
C2347 C 0.1698 0.99209 0.40698 0.0
C2348 C 0.99286 0.82248 0.59685 0.0
C2349 C 0.98362 0.83447 0.58543 0.0
C2350 C 0.0118 0.82198 0.59725 0.0
C2351 C 0.02212 0.8334 0.58618 0.0
H2352 H 0.98545 0.8128 0.60486 0.0
H2353 H 0.01836 0.81195 0.60557 0.0
S2354 S 0.00448 0.86923 0.55613 0.0
N2355 N 0.98631 0.85953 0.56449 0.0
N2356 N 0.02171 0.85848 0.56515 0.0
C2357 C 0.01303 0.84625 0.57566 0.0
C2358 C 0.99384 0.84682 0.57531 0.0
C2359 C 0.18969 0.01068 0.57159 0.0
C2360 C 0.17893 0.02049 0.58371 0.0
C2361 C 0.19018 0.99188 0.57191 0.0
C2362 C 0.17995 0.98194 0.58436 0.0
H2363 H 0.19762 0.01756 0.56146 0.0
H2364 H 0.19846 0.9851 0.56199 0.0
S2365 S 0.15025 0.00103 0.61972 0.0
N2366 N 0.15832 0.01885 0.60912 0.0
N2367 N 0.15925 0.98333 0.60971 0.0
C2368 C 0.16955 0.99151 0.597 0.0
C2369 C 0.16904 0.0108 0.59668 0.0
C2370 C 0.00855 0.16654 0.59319 0.0
C2371 C 0.01821 0.1817 0.58712 0.0
C2372 C 0.98958 0.16651 0.59357 0.0
C2373 C 0.97967 0.18161 0.58783 0.0
H2374 H 0.01564 0.15434 0.59689 0.0
H2375 H 0.98267 0.15428 0.5975 0.0
S2376 S 0.99851 0.22562 0.57353 0.0
N2377 N 0.01634 0.21292 0.57735 0.0
N2378 N 0.98093 0.21277 0.57793 0.0
C2379 C 0.98919 0.19719 0.58287 0.0
C2380 C 0.0084 0.19727 0.58255 0.0
C2381 C 0.84531 0.00874 0.58082 0.0
C2382 C 0.83103 0.0185 0.58855 0.0
C2383 C 0.84533 0.98987 0.58065 0.0
C2384 C 0.83105 0.97995 0.58818 0.0
H2385 H 0.85629 0.01572 0.57421 0.0
H2386 H 0.85632 0.98303 0.57392 0.0
S2387 S 0.79097 0.99899 0.61124 0.0
N2388 N 0.80269 0.01679 0.60491 0.0
N2389 N 0.80271 0.98133 0.60459 0.0
C2390 C 0.81713 0.98951 0.59682 0.0
C2391 C 0.81712 0.00877 0.597 0.0
C2392 C 0.40409 0.01191 0.17845 0.0
C2393 C 0.41594 0.0224 0.16799 0.0
C2394 C 0.40471 0.99298 0.17791 0.0
C2395 C 0.4172 0.98388 0.16691 0.0
H2396 H 0.39484 0.01834 0.18771 0.0
H2397 H 0.39595 0.98545 0.18682 0.0
S2398 S 0.44928 0.00509 0.13496 0.0
N2399 N 0.43913 0.02221 0.14485 0.0
N2400 N 0.44029 0.98684 0.14388 0.0
C2401 C 0.42829 0.99424 0.15557 0.0
C2402 C 0.42766 0.01343 0.1561 0.0
C2403 C 0.0092 0.41936 0.1542 0.0
C2404 C 0.01967 0.41234 0.16835 0.0
C2405 C 0.99036 0.41852 0.1546 0.0
C2406 C 0.98117 0.41063 0.16917 0.0
H2407 H 0.01555 0.42636 0.14308 0.0
H2408 H 0.98295 0.42491 0.14377 0.0
S2409 S 0.0023 0.38822 0.20855 0.0
N2410 N 0.01948 0.39563 0.19653 0.0
N2411 N 0.98403 0.39405 0.19728 0.0
C2412 C 0.99147 0.4024 0.18279 0.0
C2413 C 0.01073 0.40325 0.18238 0.0
C2414 C 0.56907 0.98993 0.16262 0.0
C2415 C 0.58344 0.9807 0.1708 0.0
C2416 C 0.56875 0.00873 0.16176 0.0
C2417 C 0.58274 0.01917 0.16911 0.0
H2418 H 0.55766 0.9826 0.15725 0.0
H2419 H 0.55705 0.01514 0.15584 0.0
S2420 S 0.62413 0.00155 0.19092 0.0
N2421 N 0.61261 0.98334 0.18545 0.0
N2422 N 0.61196 0.01881 0.18394 0.0
C2423 C 0.59765 0.01012 0.17656 0.0
C2424 C 0.59801 0.99086 0.17738 0.0
C2425 C 0.01275 0.60248 0.18117 0.0
C2426 C 0.02282 0.59554 0.16668 0.0
C2427 C 0.99383 0.60184 0.18111 0.0
C2428 C 0.98434 0.59424 0.16657 0.0
H2429 H 0.01949 0.6074 0.19313 0.0
H2430 H 0.9867 0.60625 0.19305 0.0
S2431 S 0.00429 0.57742 0.12395 0.0
N2432 N 0.02179 0.58322 0.13636 0.0
N2433 N 0.98636 0.58202 0.13627 0.0
C2434 C 0.99421 0.58874 0.15137 0.0
C2435 C 0.01343 0.58939 0.15143 0.0
C2436 C 0.40204 0.98789 0.82143 0.0
C2437 C 0.41018 0.97798 0.83541 0.0
C2438 C 0.40186 0.00681 0.82167 0.0
C2439 C 0.40979 0.01649 0.83592 0.0
H2440 H 0.39674 0.98104 0.80969 0.0
H2441 H 0.3965 0.01386 0.81008 0.0
S2442 S 0.42978 0.99684 0.87732 0.0
N2443 N 0.42412 0.97924 0.865 0.0
N2444 N 0.42372 0.01467 0.86551 0.0
C2445 C 0.41655 0.0067 0.85067 0.0
C2446 C 0.41677 0.98748 0.8504 0.0
C2447 C 0.01018 0.43508 0.8148 0.0
C2448 C 0.02012 0.42072 0.82213 0.0
C2449 C 0.99136 0.43513 0.81502 0.0
C2450 C 0.98153 0.42082 0.82261 0.0
H2451 H 0.01698 0.44659 0.80895 0.0
H2452 H 0.98448 0.44667 0.80933 0.0
S2453 S 1.00097 0.37961 0.84313 0.0
N2454 N 0.0187 0.3915 0.83685 0.0
N2455 N 0.98316 0.39159 0.83728 0.0
C2456 C 0.99122 0.40617 0.82973 0.0
C2457 C 0.01053 0.40611 0.82948 0.0
C2458 C 0.57752 0.01143 0.8477 0.0
C2459 C 0.5889 0.02121 0.83611 0.0
C2460 C 0.57703 0.9926 0.84737 0.0
C2461 C 0.58794 0.98268 0.8355 0.0
H2462 H 0.56829 0.01837 0.85662 0.0
H2463 H 0.56748 0.98581 0.85607 0.0
S2464 S 0.62158 0.00166 0.80376 0.0
N2465 N 0.61247 0.01948 0.81344 0.0
N2466 N 0.61161 0.984 0.81288 0.0
C2467 C 0.60022 0.99219 0.82461 0.0
C2468 C 0.60068 0.01147 0.82491 0.0
C2469 C 0.00922 0.59257 0.83033 0.0
C2470 C 0.01903 0.57956 0.82063 0.0
C2471 C 0.99025 0.5925 0.83045 0.0
C2472 C 0.98042 0.57942 0.82085 0.0
H2473 H 0.01623 0.60262 0.83823 0.0
H2474 H 0.98327 0.60251 0.83842 0.0
S2475 S 0.99971 0.5434 0.79196 0.0
N2476 N 0.01739 0.55398 0.80023 0.0
N2477 N 0.98203 0.55384 0.80043 0.0
C2478 C 0.99011 0.56674 0.81061 0.0
C2479 C 0.00933 0.56681 0.81051 0.0
C2480 C 0.16884 0.41129 0.01096 0.0
C2481 C 0.18246 0.42053 0.02039 0.0
C2482 C 0.1686 0.41095 0.99199 0.0
C2483 C 0.18198 0.41981 0.98188 0.0
H2484 H 0.15794 0.40491 0.01824 0.0
H2485 H 0.15751 0.40432 0.98524 0.0
S2486 S 0.22206 0.44342 1.0002 0.0
N2487 N 0.21069 0.43697 0.01817 0.0
N2488 N 0.21025 0.43632 0.98278 0.0
C2489 C 0.19619 0.42816 0.99121 0.0
C2490 C 0.19642 0.42852 0.0104 0.0
C2491 C 0.16965 0.59464 0.99119 0.0
C2492 C 0.18293 0.58557 0.98113 0.0
C2493 C 0.17023 0.59494 0.01015 0.0
C2494 C 0.18412 0.5862 0.01967 0.0
H2495 H 0.15835 0.60091 0.98442 0.0
H2496 H 0.15936 0.60143 0.01738 0.0
S2497 S 0.22358 0.56298 0.99952 0.0
N2498 N 0.21138 0.56938 0.98208 0.0
N2499 N 0.21248 0.56995 0.01747 0.0
C2500 C 0.198 0.57802 0.00969 0.0
C2501 C 0.1974 0.57771 0.99049 0.0
C2502 C 0.42021 0.15412 0.00656 0.0
C2503 C 0.41136 0.16742 0.01674 0.0
C2504 C 0.42028 0.15463 0.9877 0.0
C2505 C 0.41156 0.1685 0.97818 0.0
H2506 H 0.42781 0.14359 0.01319 0.0
H2507 H 0.42792 0.14445 0.98058 0.0
S2508 S 0.38487 0.20561 0.99839 0.0
N2509 N 0.39238 0.19409 0.01587 0.0
N2510 N 0.39255 0.19509 0.98037 0.0
C2511 C 0.40171 0.18128 0.98814 0.0
C2512 C 0.40159 0.18073 0.00742 0.0
C2513 C 0.82949 0.40906 0.99183 0.0
C2514 C 0.82207 0.42343 0.9819 0.0
C2515 C 0.82968 0.4093 0.0108 0.0
C2516 C 0.82252 0.42393 0.0205 0.0
H2517 H 0.83537 0.39765 0.98492 0.0
H2518 H 0.83568 0.39806 0.01789 0.0
S2519 S 0.80054 0.46441 1.0009 0.0
N2520 N 0.80668 0.45233 0.98332 0.0
N2521 N 0.80708 0.45279 0.01865 0.0
C2522 C 0.81476 0.43819 0.01069 0.0
C2523 C 0.81453 0.43793 0.99149 0.0
C2524 C 0.57342 0.84371 0.01118 0.0
C2525 C 0.58668 0.83446 0.02106 0.0
C2526 C 0.57332 0.84351 0.99233 0.0
C2527 C 0.58647 0.83406 0.98251 0.0
H2528 H 0.56259 0.85067 0.01804 0.0
H2529 H 0.56241 0.85032 0.98544 0.0
S2530 S 0.62516 0.809 0.00183 0.0
N2531 N 0.61413 0.81663 0.01957 0.0
N2532 N 0.61393 0.81626 0.98406 0.0
C2533 C 0.60041 0.82556 0.99215 0.0
C2534 C 0.60051 0.82576 0.01144 0.0
C2535 C 0.82619 0.59638 0.01425 0.0
C2536 C 0.83473 0.58292 0.02451 0.0
C2537 C 0.82692 0.59619 0.99529 0.0
C2538 C 0.83629 0.58258 0.98598 0.0
H2539 H 0.81819 0.60664 0.02085 0.0
H2540 H 0.81943 0.60629 0.9879 0.0
S2541 S 0.86317 0.54585 0.00676 0.0
N2542 N 0.85443 0.55679 0.02401 0.0
N2543 N 0.85593 0.55648 0.98864 0.0
C2544 C 0.84584 0.56976 0.99619 0.0
C2545 C 0.84502 0.56991 0.01538 0.0
C2546 C 0.40507 0.82302 0.99315 0.0
C2547 C 0.41744 0.83327 0.98308 0.0
C2548 C 0.40509 0.82348 0.0121 0.0
C2549 C 0.41749 0.8342 0.02164 0.0
H2550 H 0.39587 0.81393 0.98641 0.0
H2551 H 0.39591 0.81472 0.01929 0.0
S2552 S 0.45083 0.86557 0.00153 0.0
N2553 N 0.44105 0.85594 0.98407 0.0
N2554 N 0.44109 0.8568 0.01948 0.0
C2555 C 0.4291 0.84538 0.01167 0.0
C2556 C 0.42908 0.84491 0.99245 0.0
C2557 C 0.57246 0.19246 0.99541 0.0
C2558 C 0.58366 0.18084 0.98548 0.0
C2559 C 0.57224 0.19219 0.01423 0.0
C2560 C 0.58325 0.18034 0.02408 0.0
H2561 H 0.56338 0.20163 0.98861 0.0
H2562 H 0.56302 0.20118 0.0211 0.0
S2563 S 0.61598 0.14793 0.00471 0.0
N2564 N 0.60678 0.15769 0.98696 0.0
N2565 N 0.60642 0.15725 0.02251 0.0
C2566 C 0.59507 0.1691 0.01442 0.0
C2567 C 0.59526 0.16933 0.9951 0.0
C2568 C 0.51241 0.65498 0.92171 0.0
C2569 C 0.522 0.6689 0.91314 0.0
C2570 C 0.49354 0.65448 0.9215 0.0
C2571 C 0.48342 0.66789 0.91274 0.0
H2572 H 0.51949 0.64473 0.92929 0.0
H2573 H 0.48686 0.64388 0.92896 0.0
S2574 S 0.50199 0.70624 0.88659 0.0
N2575 N 0.51994 0.69563 0.89431 0.0
N2576 N 0.48446 0.6947 0.89395 0.0
C2577 C 0.49282 0.68129 0.90317 0.0
C2578 C 0.51211 0.6818 0.90337 0.0
C2579 C 0.32879 0.50956 0.90668 0.0
C2580 C 0.32209 0.51933 0.92148 0.0
C2581 C 0.32832 0.49057 0.90647 0.0
C2582 C 0.32089 0.48076 0.92093 0.0
H2583 H 0.33473 0.51659 0.89537 0.0
H2584 H 0.33393 0.48355 0.89498 0.0
S2585 S 0.30048 0.50015 0.96235 0.0
N2586 N 0.30711 0.51776 0.95058 0.0
N2587 N 0.30606 0.48248 0.95014 0.0
C2588 C 0.31374 0.49049 0.93556 0.0
C2589 C 0.31438 0.50966 0.93585 0.0
C2590 C 0.49059 0.31649 0.93511 0.0
C2591 C 0.48103 0.32334 0.92025 0.0
C2592 C 0.50942 0.31668 0.93563 0.0
C2593 C 0.51963 0.32373 0.92131 0.0
H2594 H 0.48348 0.31101 0.94661 0.0
H2595 H 0.51599 0.31133 0.9475 0.0
S2596 S 0.50127 0.34301 0.87899 0.0
N2597 N 0.48324 0.33715 0.89063 0.0
N2598 N 0.51876 0.33751 0.8916 0.0
C2599 C 0.51032 0.33045 0.90621 0.0
C2600 C 0.49102 0.33025 0.90568 0.0
C2601 C 0.65593 0.51011 0.91792 0.0
C2602 C 0.67018 0.52007 0.91038 0.0
C2603 C 0.65609 0.49127 0.91794 0.0
C2604 C 0.67047 0.48156 0.91036 0.0
H2605 H 0.64497 0.51689 0.92475 0.0
H2606 H 0.64523 0.48429 0.92474 0.0
S2607 S 0.70986 0.50113 0.88661 0.0
N2608 N 0.69816 0.51878 0.89339 0.0
N2609 N 0.69842 0.48329 0.89334 0.0
C2610 C 0.68412 0.49129 0.90149 0.0
C2611 C 0.68398 0.51056 0.90151 0.0
C2612 C 0.51229 0.32622 0.09347 0.0
C2613 C 0.52266 0.32548 0.0776 0.0
C2614 C 0.49334 0.32702 0.09276 0.0
C2615 C 0.48418 0.32744 0.07615 0.0
H2616 H 0.51884 0.32589 0.1065 0.0
H2617 H 0.48584 0.3273 0.10526 0.0
S2618 S 0.50522 0.32637 0.03071 0.0
N2619 N 0.52233 0.32558 0.04484 0.0
N2620 N 0.48707 0.32727 0.04347 0.0
C2621 C 0.49448 0.327 0.06023 0.0
C2622 C 0.51362 0.32597 0.06096 0.0
C2623 C 0.68297 0.51157 0.09955 0.0
C2624 C 0.66879 0.52149 0.09183 0.0
C2625 C 0.68306 0.49266 0.0991 0.0
C2626 C 0.66897 0.48298 0.09089 0.0
H2627 H 0.69456 0.51843 0.10515 0.0
H2628 H 0.6947 0.48564 0.10439 0.0
S2629 S 0.62736 0.50252 0.07124 0.0
N2630 N 0.6393 0.52014 0.07762 0.0
N2631 N 0.63948 0.48473 0.07675 0.0
C2632 C 0.65412 0.49272 0.08429 0.0
C2633 C 0.65402 0.51194 0.08477 0.0
C2634 C 0.49249 0.69572 0.0805 0.0
C2635 C 0.48265 0.68167 0.0885 0.0
C2636 C 0.5113 0.69572 0.08048 0.0
C2637 C 0.52118 0.68165 0.08843 0.0
H2638 H 0.48563 0.70662 0.07365 0.0
H2639 H 0.51813 0.70664 0.07362 0.0
S2640 S 0.50193 0.64244 0.11268 0.0
N2641 N 0.48415 0.6539 0.10579 0.0
N2642 N 0.5197 0.65388 0.10572 0.0
C2643 C 0.51157 0.66796 0.09735 0.0
C2644 C 0.49227 0.66798 0.0974 0.0
C2645 C 0.34581 0.49042 0.07421 0.0
C2646 C 0.33447 0.48053 0.08574 0.0
C2647 C 0.34567 0.50928 0.07411 0.0
C2648 C 0.3343 0.51911 0.08563 0.0
H2649 H 0.35444 0.48357 0.06465 0.0
H2650 H 0.35422 0.5162 0.06452 0.0
S2651 S 0.30299 0.49979 0.11947 0.0
N2652 N 0.31227 0.48206 0.10979 0.0
N2653 N 0.31214 0.51755 0.1097 0.0
C2654 C 0.32353 0.50945 0.09789 0.0
C2655 C 0.32358 0.49017 0.09792 0.0
C2656 C 0.90911 0.51196 0.67043 0.0
C2657 C 0.92058 0.5217 0.68199 0.0
C2658 C 0.909 0.49298 0.67042 0.0
C2659 C 0.92037 0.48309 0.68195 0.0
H2660 H 0.90054 0.51902 0.66097 0.0
H2661 H 0.90036 0.48604 0.66094 0.0
S2662 S 0.95137 0.50218 0.71627 0.0
N2663 N 0.94246 0.51992 0.70631 0.0
N2664 N 0.94227 0.48456 0.70628 0.0
C2665 C 0.93129 0.49272 0.69409 0.0
C2666 C 0.93139 0.51192 0.69411 0.0
C2667 C 0.50927 0.93331 0.66439 0.0
C2668 C 0.5194 0.91903 0.67164 0.0
C2669 C 0.49044 0.93319 0.66482 0.0
C2670 C 0.48086 0.9187 0.67236 0.0
H2671 H 0.51592 0.94504 0.65881 0.0
H2672 H 0.48334 0.94476 0.65949 0.0
S2673 S 0.50082 0.8774 0.69212 0.0
N2674 N 0.51838 0.88954 0.68588 0.0
N2675 N 0.48285 0.88924 0.68646 0.0
C2676 C 0.49072 0.90393 0.67895 0.0
C2677 C 0.51002 0.90412 0.67865 0.0
C2678 C 0.06909 0.51039 0.68933 0.0
C2679 C 0.08231 0.52022 0.67997 0.0
C2680 C 0.06897 0.49157 0.68928 0.0
C2681 C 0.08208 0.48162 0.67989 0.0
H2682 H 0.05847 0.51727 0.69659 0.0
H2683 H 0.05827 0.48478 0.69651 0.0
S2684 S 0.12024 0.50075 0.65389 0.0
N2685 N 0.10933 0.51857 0.66153 0.0
N2686 N 0.10912 0.48304 0.66146 0.0
C2687 C 0.09571 0.49121 0.67084 0.0
C2688 C 0.09582 0.51052 0.67087 0.0
C2689 C 0.49269 0.07666 0.65756 0.0
C2690 C 0.48195 0.08742 0.66887 0.0
C2691 C 0.51151 0.0772 0.65847 0.0
C2692 C 0.52046 0.08853 0.67072 0.0
H2693 H 0.48652 0.06716 0.64838 0.0
H2694 H 0.51907 0.06812 0.64992 0.0
S2695 S 0.4987 0.1207 0.70217 0.0
N2696 N 0.48169 0.11079 0.69181 0.0
N2697 N 0.51716 0.11183 0.6935 0.0
C2698 C 0.50996 0.10018 0.68138 0.0
C2699 C 0.49069 0.09962 0.68045 0.0
C2700 C 0.90906 0.48962 0.3132 0.0
C2701 C 0.91121 0.47887 0.32864 0.0
C2702 C 0.9087 0.50847 0.31439 0.0
C2703 C 0.91104 0.51725 0.33102 0.0
H2704 H 0.90822 0.48343 0.30002 0.0
H2705 H 0.90778 0.51621 0.30206 0.0
S2706 S 0.91596 0.49525 0.37557 0.0
N2707 N 0.91437 0.47834 0.36121 0.0
N2708 N 0.91444 0.51378 0.36337 0.0
C2709 C 0.91243 0.50665 0.34664 0.0
C2710 C 0.91231 0.48745 0.34548 0.0
C2711 C 0.49416 0.93853 0.33449 0.0
C2712 C 0.4838 0.92299 0.33137 0.0
C2713 C 0.51295 0.93816 0.33364 0.0
C2714 C 0.52235 0.92218 0.32985 0.0
H2715 H 0.48773 0.95133 0.33725 0.0
H2716 H 0.52016 0.95063 0.33593 0.0
S2717 S 0.5018 0.87746 0.32137 0.0
N2718 N 0.4844 0.89092 0.32474 0.0
N2719 N 0.51995 0.89017 0.32348 0.0
C2720 C 0.51228 0.90635 0.32719 0.0
C2721 C 0.49297 0.90677 0.32785 0.0
C2722 C 0.09717 0.51347 0.33023 0.0
C2723 C 0.08438 0.52264 0.31958 0.0
C2724 C 0.09691 0.49454 0.33175 0.0
C2725 C 0.08369 0.48434 0.32285 0.0
H2726 H 0.10703 0.52097 0.33792 0.0
H2727 H 0.10653 0.48796 0.34052 0.0
S2728 S 0.04886 0.50143 0.29141 0.0
N2729 N 0.05947 0.51963 0.29843 0.0
N2730 N 0.05878 0.48443 0.30169 0.0
C2731 C 0.0715 0.49325 0.31148 0.0
C2732 C 0.0719 0.51231 0.30973 0.0
C2733 C 0.50742 0.06814 0.33753 0.0
C2734 C 0.51801 0.08275 0.33173 0.0
C2735 C 0.48863 0.06857 0.33646 0.0
C2736 C 0.47948 0.08369 0.32967 0.0
H2737 H 0.51368 0.056 0.34264 0.0
H2738 H 0.48123 0.05679 0.34085 0.0
S2739 S 0.50068 0.12587 0.31336 0.0
N2740 N 0.51787 0.11309 0.31939 0.0
N2741 N 0.48236 0.11396 0.31757 0.0
C2742 C 0.48977 0.09867 0.32432 0.0
C2743 C 0.50907 0.09819 0.3253 0.0
C2744 C 0.67677 0.90775 0.49363 0.0
C2745 C 0.67496 0.92389 0.48382 0.0
C2746 C 0.67697 0.90775 0.51261 0.0
C2747 C 0.67567 0.92394 0.52238 0.0
H2748 H 0.67826 0.89505 0.48662 0.0
H2749 H 0.67863 0.89509 0.51965 0.0
S2750 S 0.66974 0.96974 0.50324 0.0
N2751 N 0.67102 0.95641 0.48553 0.0
N2752 N 0.67164 0.95638 0.52087 0.0
C2753 C 0.67349 0.94008 0.51273 0.0
C2754 C 0.67306 0.94007 0.49355 0.0
C2755 C 0.67874 0.0979 0.51239 0.0
C2756 C 0.66716 0.08642 0.5221 0.0
C2757 C 0.679 0.09785 0.49344 0.0
C2758 C 0.66778 0.08623 0.48352 0.0
H2759 H 0.68819 0.10647 0.51946 0.0
H2760 H 0.68865 0.10635 0.48657 0.0
S2761 S 0.63337 0.05526 0.50235 0.0
N2762 N 0.64291 0.06445 0.52019 0.0
N2763 N 0.64356 0.06426 0.48477 0.0
C2764 C 0.65546 0.07546 0.49304 0.0
C2765 C 0.6551 0.07558 0.51227 0.0
C2766 C 0.91883 0.6552 0.48874 0.0
C2767 C 0.91088 0.66956 0.47928 0.0
C2768 C 0.91892 0.65474 0.50759 0.0
C2769 C 0.91107 0.66862 0.51783 0.0
H2770 H 0.92577 0.64457 0.48156 0.0
H2771 H 0.92597 0.6438 0.51417 0.0
S2772 S 0.8866 0.70822 0.49963 0.0
N2773 N 0.89344 0.69719 0.48157 0.0
N2774 N 0.89364 0.69634 0.51707 0.0
C2775 C 0.90196 0.68244 0.50858 0.0
C2776 C 0.90186 0.6829 0.48929 0.0
C2777 C 0.34324 0.92927 0.49105 0.0
C2778 C 0.33356 0.91638 0.48111 0.0
C2779 C 0.34339 0.92904 0.5099 0.0
C2780 C 0.33383 0.91592 0.51968 0.0
H2781 H 0.35031 0.94006 0.48424 0.0
H2782 H 0.35056 0.93967 0.51685 0.0
S2783 S 0.30759 0.87815 0.50013 0.0
N2784 N 0.31515 0.88932 0.48245 0.0
N2785 N 0.31541 0.8889 0.51796 0.0
C2786 C 0.32485 0.90236 0.50994 0.0
C2787 C 0.32472 0.90258 0.49065 0.0
C2788 C 0.06471 0.33384 0.50901 0.0
C2789 C 0.08047 0.33058 0.51901 0.0
C2790 C 0.06482 0.33373 0.49018 0.0
C2791 C 0.08072 0.33046 0.48041 0.0
H2792 H 0.05197 0.33611 0.51575 0.0
H2793 H 0.05219 0.33599 0.48323 0.0
S2794 S 0.12592 0.32211 0.5 0.0
N2795 N 0.11266 0.32465 0.51769 0.0
N2796 N 0.11289 0.32459 0.48214 0.0
C2797 C 0.09675 0.32776 0.49016 0.0
C2798 C 0.09662 0.32778 0.50947 0.0
C2799 C 0.3218 0.0969 0.51193 0.0
C2800 C 0.33222 0.08446 0.52173 0.0
C2801 C 0.32208 0.09716 0.49299 0.0
C2802 C 0.33281 0.08501 0.48316 0.0
H2803 H 0.31276 0.10599 0.51889 0.0
H2804 H 0.31324 0.10644 0.48602 0.0
S2805 S 0.3644 0.05138 0.50248 0.0
N2806 N 0.35491 0.06088 0.52017 0.0
N2807 N 0.35546 0.06139 0.48476 0.0
C2808 C 0.34409 0.07324 0.49285 0.0
C2809 C 0.34379 0.07296 0.51207 0.0
C2810 C 0.90409 0.32477 0.49357 0.0
C2811 C 0.9165 0.33569 0.48428 0.0
C2812 C 0.90383 0.32418 0.51251 0.0
C2813 C 0.91599 0.33447 0.52279 0.0
H2814 H 0.89515 0.31593 0.48619 0.0
H2815 H 0.89467 0.31493 0.51909 0.0
S2816 S 0.94917 0.36736 0.505 0.0
N2817 N 0.93976 0.3586 0.48688 0.0
N2818 N 0.93931 0.35745 0.52228 0.0
C2819 C 0.92759 0.34633 0.51366 0.0
C2820 C 0.92784 0.34695 0.49446 0.0
C2821 C 0.08022 0.69558 0.49116 0.0
C2822 C 0.08745 0.68132 0.48101 0.0
C2823 C 0.08053 0.69538 0.51 0.0
C2824 C 0.08818 0.68095 0.51959 0.0
H2825 H 0.07368 0.70682 0.48454 0.0
H2826 H 0.07423 0.70646 0.51709 0.0
S2827 S 0.11034 0.64093 0.49953 0.0
N2828 N 0.10357 0.65282 0.48199 0.0
N2829 N 0.10424 0.6525 0.51752 0.0
C2830 C 0.09632 0.667 0.50968 0.0
C2831 C 0.09594 0.66717 0.49037 0.0
C2832 C 0.05953 0.17403 0.50889 0.0
C2833 C 0.07564 0.17286 0.51877 0.0
C2834 C 0.05966 0.1745 0.49004 0.0
C2835 C 0.07589 0.17361 0.48032 0.0
H2836 H 0.04669 0.17503 0.51575 0.0
H2837 H 0.04691 0.17573 0.48305 0.0
S2838 S 0.12175 0.16943 0.49977 0.0
N2839 N 0.10826 0.17017 0.51744 0.0
N2840 N 0.1085 0.17082 0.48197 0.0
C2841 C 0.09209 0.17191 0.49 0.0
C2842 C 0.09197 0.17161 0.50924 0.0
C2843 C 0.83115 0.08871 0.49069 0.0
C2844 C 0.82708 0.07319 0.48064 0.0
C2845 C 0.831 0.08841 0.50957 0.0
C2846 C 0.8268 0.07257 0.51909 0.0
H2847 H 0.83419 0.10128 0.48395 0.0
H2848 H 0.83395 0.10076 0.51675 0.0
S2849 S 0.81661 0.02792 0.49905 0.0
N2850 N 0.81971 0.0413 0.48157 0.0
N2851 N 0.81945 0.04071 0.51699 0.0
C2852 C 0.82315 0.05684 0.50918 0.0
C2853 C 0.82328 0.05716 0.48997 0.0
C2854 C 0.93188 0.84253 0.50764 0.0
C2855 C 0.91957 0.83251 0.51798 0.0
C2856 C 0.93126 0.84232 0.48881 0.0
C2857 C 0.91832 0.83205 0.47956 0.0
H2858 H 0.94251 0.85014 0.51411 0.0
H2859 H 0.94145 0.84975 0.48148 0.0
S2860 S 0.88174 0.80504 0.50032 0.0
N2861 N 0.89307 0.81324 0.51759 0.0
N2862 N 0.89193 0.81281 0.48215 0.0
C2863 C 0.90531 0.82273 0.48971 0.0
C2864 C 0.90593 0.82297 0.50893 0.0
C2865 C 0.17764 0.9086 0.49309 0.0
C2866 C 0.16852 0.92207 0.4834 0.0
C2867 C 0.17753 0.90837 0.51194 0.0
C2868 C 0.16828 0.9216 0.52185 0.0
H2869 H 0.18544 0.89844 0.4861 0.0
H2870 H 0.18526 0.89806 0.51877 0.0
S2871 S 0.14082 0.95883 0.50291 0.0
N2872 N 0.14888 0.94824 0.4851 0.0
N2873 N 0.14866 0.94781 0.52055 0.0
C2874 C 0.15837 0.93464 0.51234 0.0
C2875 C 0.15849 0.93489 0.49311 0.0
C2876 C 0.08313 0.8388 0.49343 0.0
C2877 C 0.08132 0.82265 0.4837 0.0
C2878 C 0.08297 0.83888 0.51234 0.0
C2879 C 0.0807 0.82285 0.52216 0.0
H2880 H 0.08456 0.85151 0.48641 0.0
H2881 H 0.08422 0.85164 0.51928 0.0
S2882 S 0.07609 0.77687 0.50317 0.0
N2883 N 0.07783 0.7901 0.48539 0.0
N2884 N 0.07726 0.79033 0.52081 0.0
C2885 C 0.07915 0.80659 0.51261 0.0
C2886 C 0.07954 0.80647 0.49341 0.0
C2887 C 0.17652 0.09487 0.49172 0.0
C2888 C 0.16714 0.08179 0.48174 0.0
C2889 C 0.1765 0.09463 0.51057 0.0
C2890 C 0.16712 0.08129 0.5202 0.0
H2891 H 0.18443 0.10507 0.48494 0.0
H2892 H 0.18439 0.10467 0.51762 0.0
S2893 S 0.13901 0.04496 0.50048 0.0
N2894 N 0.14712 0.05588 0.4829 0.0
N2895 N 0.1471 0.05542 0.51835 0.0
C2896 C 0.15697 0.06863 0.51041 0.0
C2897 C 0.15697 0.06889 0.49118 0.0
C2898 C 0.90838 0.17409 0.51119 0.0
C2899 C 0.92287 0.16756 0.52151 0.0
C2900 C 0.90877 0.17344 0.49233 0.0
C2901 C 0.92369 0.16632 0.4831 0.0
H2902 H 0.89686 0.18025 0.51767 0.0
H2903 H 0.89758 0.17921 0.48496 0.0
S2904 S 0.96423 0.14572 0.50385 0.0
N2905 N 0.95192 0.15239 0.52111 0.0
N2906 N 0.95267 0.15126 0.4857 0.0
C2907 C 0.93788 0.15895 0.49326 0.0
C2908 C 0.93746 0.15955 0.51246 0.0
C2909 C 0.8225 0.94118 0.49001 0.0
C2910 C 0.83001 0.92696 0.48001 0.0
C2911 C 0.822 0.94068 0.50885 0.0
C2912 C 0.82902 0.92596 0.51847 0.0
H2913 H 0.8168 0.95279 0.48326 0.0
H2914 H 0.81597 0.95194 0.5159 0.0
S2915 S 0.85039 0.88532 0.49872 0.0
N2916 N 0.84482 0.89776 0.48115 0.0
N2917 N 0.8439 0.89684 0.51659 0.0
C2918 C 0.83676 0.91171 0.50868 0.0
C2919 C 0.83725 0.9122 0.48945 0.0
C2920 C 0.48789 0.07932 0.19203 0.0
C2921 C 0.47829 0.08088 0.1758 0.0
C2922 C 0.50671 0.07926 0.19224 0.0
C2923 C 0.51669 0.08053 0.1762 0.0
H2924 H 0.48082 0.07801 0.20473 0.0
H2925 H 0.51346 0.07779 0.20509 0.0
S2926 S 0.49798 0.08544 0.13011 0.0
N2927 N 0.48009 0.08431 0.14328 0.0
N2928 N 0.51558 0.08394 0.14362 0.0
C2929 C 0.50728 0.08244 0.15986 0.0
C2930 C 0.48805 0.08269 0.15968 0.0
C2931 C 0.9132 0.49055 0.17166 0.0
C2932 C 0.92905 0.48023 0.17272 0.0
C2933 C 0.91389 0.50941 0.17074 0.0
C2934 C 0.93046 0.51861 0.17059 0.0
H2935 H 0.90015 0.48405 0.17196 0.0
H2936 H 0.90133 0.51682 0.17039 0.0
S2937 S 0.97589 0.49769 0.17178 0.0
N2938 N 0.96181 0.48053 0.1727 0.0
N2939 N 0.96313 0.51585 0.17074 0.0
C2940 C 0.94642 0.50839 0.17105 0.0
C2941 C 0.94571 0.48923 0.17219 0.0
C2942 C 0.49279 0.91602 0.18839 0.0
C2943 C 0.48366 0.91954 0.17217 0.0
C2944 C 0.5116 0.91606 0.18918 0.0
C2945 C 0.52203 0.91931 0.17372 0.0
H2946 H 0.48537 0.91389 0.20077 0.0
H2947 H 0.518 0.9138 0.20209 0.0
S2948 S 0.5047 0.92763 0.1276 0.0
N2949 N 0.48642 0.92534 0.14006 0.0
N2950 N 0.5219 0.92503 0.14146 0.0
C2951 C 0.51311 0.92201 0.15722 0.0
C2952 C 0.49389 0.92224 0.15647 0.0
C2953 C 0.08948 0.51505 0.16742 0.0
C2954 C 0.07398 0.52521 0.1714 0.0
C2955 C 0.08881 0.49621 0.16645 0.0
C2956 C 0.07261 0.4868 0.16929 0.0
H2957 H 0.1023 0.52168 0.16535 0.0
H2958 H 0.10117 0.48896 0.16373 0.0
S2959 S 0.02796 0.50719 0.17898 0.0
N2960 N 0.04178 0.52451 0.17742 0.0
N2961 N 0.0405 0.48918 0.17548 0.0
C2962 C 0.05691 0.49684 0.17279 0.0
C2963 C 0.05761 0.51601 0.17389 0.0
C2964 C 0.4904 0.93802 0.81819 0.0
C2965 C 0.48085 0.92609 0.82938 0.0
C2966 C 0.50926 0.93853 0.81828 0.0
C2967 C 0.51934 0.92716 0.8296 0.0
H2968 H 0.48329 0.94696 0.80912 0.0
H2969 H 0.51597 0.94785 0.80928 0.0
S2970 S 0.50081 0.89383 0.86192 0.0
N2971 N 0.48288 0.90288 0.85241 0.0
N2972 N 0.51833 0.90386 0.85261 0.0
C2973 C 0.50996 0.91533 0.84105 0.0
C2974 C 0.49073 0.91478 0.84093 0.0
C2975 C 0.09144 0.51038 0.81742 0.0
C2976 C 0.08212 0.52007 0.83076 0.0
C2977 C 0.0915 0.49156 0.8173 0.0
C2978 C 0.08226 0.48164 0.83053 0.0
H2979 H 0.09833 0.51737 0.80663 0.0
H2980 H 0.09846 0.48476 0.80643 0.0
S2981 S 0.05716 0.50052 0.86941 0.0
N2982 N 0.06442 0.51835 0.85829 0.0
N2983 N 0.06456 0.48289 0.85808 0.0
C2984 C 0.07355 0.49112 0.84443 0.0
C2985 C 0.07348 0.51035 0.84454 0.0
C2986 C 0.49181 0.08822 0.83423 0.0
C2987 C 0.48279 0.07169 0.83211 0.0
C2988 C 0.51069 0.08914 0.83381 0.0
C2989 C 0.52115 0.07362 0.83097 0.0
H2990 H 0.48425 0.10055 0.83606 0.0
H2991 H 0.5171 0.10215 0.83533 0.0
S2992 S 0.50415 0.02696 0.82543 0.0
N2993 N 0.48585 0.03935 0.82775 0.0
N2994 N 0.52118 0.04116 0.82671 0.0
C2995 C 0.51231 0.05699 0.82912 0.0
C2996 C 0.49316 0.05601 0.82978 0.0
C2997 C 0.90672 0.49115 0.82258 0.0
C2998 C 0.91855 0.48151 0.83379 0.0
C2999 C 0.90654 0.50999 0.82248 0.0
C3000 C 0.91817 0.51995 0.83362 0.0
H3001 H 0.89792 0.48413 0.8133 0.0
H3002 H 0.89762 0.51677 0.81314 0.0
S3003 S 0.95044 0.50118 0.86688 0.0
N3004 N 0.94122 0.48333 0.85738 0.0
N3005 N 0.94087 0.51877 0.85722 0.0
C3006 C 0.92941 0.51051 0.8456 0.0
C3007 C 0.92961 0.49128 0.84568 0.0
C3008 C 0.16503 0.49424 0.06752 0.0
C3009 C 0.17316 0.48449 0.08157 0.0
C3010 C 0.1651 0.5131 0.06743 0.0
C3011 C 0.17327 0.52292 0.0814 0.0
H3012 H 0.15903 0.48729 0.05619 0.0
H3013 H 0.15915 0.52 0.05603 0.0
S3014 S 0.195 0.5038 0.12218 0.0
N3015 N 0.18855 0.48606 0.11046 0.0
N3016 N 0.18865 0.52148 0.11032 0.0
C3017 C 0.18075 0.51334 0.09595 0.0
C3018 C 0.1807 0.49413 0.09603 0.0
C3019 C 0.17761 0.4923 0.90838 0.0
C3020 C 0.1685 0.48247 0.92178 0.0
C3021 C 0.17758 0.51115 0.90839 0.0
C3022 C 0.16849 0.52093 0.92182 0.0
H3023 H 0.18527 0.4854 0.89806 0.0
H3024 H 0.18524 0.51807 0.89808 0.0
S3025 S 0.14123 0.50166 0.95903 0.0
N3026 N 0.14909 0.48395 0.94815 0.0
N3027 N 0.14909 0.5194 0.94818 0.0
C3028 C 0.15866 0.5113 0.93485 0.0
C3029 C 0.15866 0.49208 0.93482 0.0
C3030 C 0.49052 0.17065 0.94005 0.0
C3031 C 0.48122 0.17154 0.92358 0.0
C3032 C 0.50936 0.17039 0.94059 0.0
C3033 C 0.51963 0.17132 0.92471 0.0
H3034 H 0.4832 0.17029 0.95266 0.0
H3035 H 0.5159 0.17 0.95363 0.0
S3036 S 0.50178 0.17323 0.87807 0.0
N3037 N 0.48365 0.17271 0.89094 0.0
N3038 N 0.51913 0.17258 0.89198 0.0
C3039 C 0.51052 0.17187 0.90811 0.0
C3040 C 0.49129 0.17188 0.90755 0.0
C3041 C 0.84513 0.50841 0.92851 0.0
C3042 C 0.8328 0.51892 0.91869 0.0
C3043 C 0.84456 0.48957 0.92788 0.0
C3044 C 0.83162 0.48053 0.91741 0.0
H3045 H 0.85488 0.51473 0.93733 0.0
H3046 H 0.85388 0.48208 0.93623 0.0
S3047 S 0.79771 0.50182 0.88747 0.0
N3048 N 0.80834 0.51892 0.89689 0.0
N3049 N 0.80726 0.48352 0.8957 0.0
C3050 C 0.81989 0.49087 0.90672 0.0
C3051 C 0.82048 0.51007 0.90735 0.0
C3052 C 0.49246 0.8106 0.93463 0.0
C3053 C 0.48238 0.82411 0.92601 0.0
C3054 C 0.5113 0.81093 0.93457 0.0
C3055 C 0.52084 0.8248 0.92588 0.0
H3056 H 0.48578 0.79964 0.94155 0.0
H3057 H 0.51841 0.80021 0.94143 0.0
S3058 S 0.50083 0.86351 0.90142 0.0
N3059 N 0.48332 0.85183 0.90857 0.0
N3060 N 0.51879 0.85245 0.90844 0.0
C3061 C 0.51095 0.83839 0.91714 0.0
C3062 C 0.49172 0.83805 0.91721 0.0
C3063 C 0.81114 0.49233 0.08655 0.0
C3064 C 0.82716 0.48246 0.08432 0.0
C3065 C 0.81119 0.51114 0.08645 0.0
C3066 C 0.82727 0.52087 0.08432 0.0
H3067 H 0.79833 0.4855 0.08795 0.0
H3068 H 0.79845 0.51811 0.08788 0.0
S3069 S 0.87301 0.50154 0.07876 0.0
N3070 N 0.85967 0.48384 0.08044 0.0
N3071 N 0.85976 0.51932 0.08048 0.0
C3072 C 0.84349 0.51123 0.08263 0.0
C3073 C 0.84343 0.492 0.08257 0.0
C3074 C 0.49258 0.81325 0.06952 0.0
C3075 C 0.48272 0.82651 0.07877 0.0
C3076 C 0.51142 0.81336 0.06941 0.0
C3077 C 0.52122 0.82675 0.07854 0.0
H3078 H 0.4857 0.80266 0.06221 0.0
H3079 H 0.51834 0.80286 0.06203 0.0
S3080 S 0.50189 0.8645 0.105 0.0
N3081 N 0.48418 0.85338 0.09746 0.0
N3082 N 0.51965 0.85359 0.09725 0.0
C3083 C 0.51157 0.84007 0.08795 0.0
C3084 C 0.49232 0.83995 0.08807 0.0
C3085 C 0.50834 0.17684 0.09395 0.0
C3086 C 0.51919 0.16701 0.08192 0.0
C3087 C 0.48952 0.17632 0.09279 0.0
C3088 C 0.48081 0.16602 0.0795 0.0
H3089 H 0.51441 0.18546 0.10402 0.0
H3090 H 0.48179 0.18458 0.10199 0.0
S3091 S 0.50298 0.13646 0.04584 0.0
N3092 N 0.5198 0.14559 0.05714 0.0
N3093 N 0.48443 0.14468 0.05492 0.0
C3094 C 0.49146 0.15546 0.06792 0.0
C3095 C 0.51065 0.15593 0.06915 0.0
C3096 C 0.56221 0.67161 0.99269 0.0
C3097 C 0.57833 0.67196 0.98276 0.0
C3098 C 0.56239 0.67147 0.01154 0.0
C3099 C 0.57868 0.67194 0.02119 0.0
H3100 H 0.54932 0.67161 0.98586 0.0
H3101 H 0.54961 0.6715 0.01858 0.0
S3102 S 0.62463 0.67228 0.00155 0.0
N3103 N 0.61107 0.67211 0.98394 0.0
N3104 N 0.61139 0.67214 0.01942 0.0
C3105 C 0.59492 0.67193 0.01144 0.0
C3106 C 0.59474 0.67185 0.99221 0.0
C3107 C 0.33851 0.58424 0.00995 0.0
C3108 C 0.32384 0.57787 0.02012 0.0
C3109 C 0.3377 0.58504 0.99109 0.0
C3110 C 0.32211 0.57973 0.98173 0.0
H3111 H 0.35084 0.58834 0.01658 0.0
H3112 H 0.34944 0.58972 0.9838 0.0
S3113 S 0.27968 0.5628 0.00215 0.0
N3114 N 0.29307 0.56664 0.01946 0.0
N3115 N 0.29146 0.56832 0.98413 0.0
C3116 C 0.3072 0.57372 0.99178 0.0
C3117 C 0.30809 0.57273 0.01094 0.0
C3118 C 0.42681 0.34491 0.0066 0.0
C3119 C 0.41534 0.3337 0.01669 0.0
C3120 C 0.4268 0.34444 0.98776 0.0
C3121 C 0.41531 0.33276 0.97828 0.0
H3122 H 0.43652 0.35351 0.01328 0.0
H3123 H 0.43645 0.35274 0.98063 0.0
S3124 S 0.38079 0.30264 0.9983 0.0
N3125 N 0.39078 0.31204 0.01578 0.0
N3126 N 0.39073 0.31118 0.98034 0.0
C3127 C 0.40287 0.32242 0.98816 0.0
C3128 C 0.40289 0.32289 0.00737 0.0
C3129 C 0.66833 0.41624 0.0105 0.0
C3130 C 0.67632 0.43042 0.02018 0.0
C3131 C 0.66843 0.41601 0.99162 0.0
C3132 C 0.67653 0.42995 0.98167 0.0
H3133 H 0.66203 0.40512 0.01753 0.0
H3134 H 0.6622 0.40473 0.98479 0.0
S3135 S 0.69883 0.47052 1.00055 0.0
N3136 N 0.69223 0.459 0.01837 0.0
N3137 N 0.69242 0.45858 0.98295 0.0
C3138 C 0.68441 0.44433 0.99118 0.0
C3139 C 0.6843 0.44456 0.01041 0.0
C3140 C 0.59472 0.31902 0.01106 0.0
C3141 C 0.58485 0.33149 0.02132 0.0
C3142 C 0.59397 0.31911 0.99223 0.0
C3143 C 0.58324 0.33163 0.9829 0.0
H3144 H 0.60275 0.30876 0.01762 0.0
H3145 H 0.60147 0.30892 0.98498 0.0
S3146 S 0.55566 0.36792 0.0034 0.0
N3147 N 0.56473 0.35736 0.02074 0.0
N3148 N 0.56327 0.35749 0.9853 0.0
C3149 C 0.57385 0.34466 0.99294 0.0
C3150 C 0.57467 0.3446 0.01216 0.0
C3151 C 0.66927 0.58969 0.99377 0.0
C3152 C 0.67055 0.57335 0.98428 0.0
C3153 C 0.66993 0.5901 0.01264 0.0
C3154 C 0.67207 0.57418 0.02268 0.0
H3155 H 0.66809 0.60232 0.98657 0.0
H3156 H 0.6692 0.60301 0.01937 0.0
S3157 S 0.67474 0.52774 0.00442 0.0
N3158 N 0.67301 0.54072 0.98647 0.0
N3159 N 0.67442 0.54153 0.02183 0.0
C3160 C 0.67284 0.55771 0.0134 0.0
C3161 C 0.67202 0.55727 0.99423 0.0
C3162 C 0.41156 0.67306 0.01089 0.0
C3163 C 0.42737 0.67041 0.021 0.0
C3164 C 0.41186 0.67255 0.99202 0.0
C3165 C 0.42801 0.66962 0.98258 0.0
H3166 H 0.3989 0.67581 0.01758 0.0
H3167 H 0.39942 0.67498 0.98479 0.0
S3168 S 0.47291 0.66082 0.00267 0.0
N3169 N 0.45948 0.66381 0.02012 0.0
N3170 N 0.46003 0.66311 0.9847 0.0
C3171 C 0.44382 0.66649 0.99251 0.0
C3172 C 0.44349 0.6668 0.01171 0.0
C3173 C 0.33535 0.43585 0.98997 0.0
C3174 C 0.33141 0.41989 0.98058 0.0
C3175 C 0.33506 0.43641 0.0088 0.0
C3176 C 0.33113 0.42096 0.01899 0.0
H3177 H 0.33812 0.44821 0.98273 0.0
H3178 H 0.33779 0.44912 0.01541 0.0
S3179 S 0.32085 0.37554 1.00097 0.0
N3180 N 0.32401 0.38809 0.98287 0.0
N3181 N 0.32387 0.38904 0.01837 0.0
C3182 C 0.32777 0.40474 0.00982 0.0
C3183 C 0.32779 0.40423 0.99059 0.0
C3184 C 0.99174 0.57044 0.66149 0.0
C3185 C 0.98213 0.58396 0.67063 0.0
C3186 C 0.01061 0.57023 0.66144 0.0
C3187 C 0.02058 0.58354 0.6705 0.0
H3188 H 0.98468 0.55957 0.65482 0.0
H3189 H 0.01739 0.55921 0.65471 0.0
S3190 S 0.00185 0.62292 0.69493 0.0
N3191 N 0.98399 0.61177 0.68785 0.0
N3192 N 0.01942 0.61139 0.68772 0.0
C3193 C 0.01114 0.59763 0.67895 0.0
C3194 C 0.99192 0.59783 0.67903 0.0
C3195 C 0.42457 0.00786 0.65689 0.0
C3196 C 0.41787 0.01837 0.67114 0.0
C3197 C 0.4245 0.989 0.65786 0.0
C3198 C 0.41812 0.98005 0.67329 0.0
H3199 H 0.43021 0.01426 0.64506 0.0
H3200 H 0.43013 0.98143 0.64673 0.0
S3201 S 0.39855 0.00137 0.71401 0.0
N3202 N 0.40398 0.01842 0.70083 0.0
N3203 N 0.40423 0.98305 0.70279 0.0
C3204 C 0.41096 0.99039 0.68742 0.0
C3205 C 0.41073 0.00955 0.68631 0.0
C3206 C 0.00977 0.40879 0.68026 0.0
C3207 C 0.0196 0.42057 0.66916 0.0
C3208 C 0.99093 0.40894 0.68038 0.0
C3209 C 0.98115 0.42086 0.66938 0.0
H3210 H 0.01666 0.39974 0.68941 0.0
H3211 H 0.98401 0.4 0.6896 0.0
S3212 S 1.00044 0.45319 0.63649 0.0
N3213 N 0.01816 0.44356 0.64586 0.0
N3214 N 0.98269 0.44384 0.64606 0.0
C3215 C 0.99078 0.43211 0.65755 0.0
C3216 C 0.01002 0.43196 0.65745 0.0
C3217 C 0.56525 0.99397 0.68994 0.0
C3218 C 0.57734 0.98419 0.67912 0.0
C3219 C 0.56528 0.0128 0.69006 0.0
C3220 C 0.57744 0.02266 0.6794 0.0
H3221 H 0.55556 0.98704 0.69836 0.0
H3222 H 0.55564 0.01965 0.69859 0.0
S3223 S 0.6121 0.00355 0.64885 0.0
N3224 N 0.60196 0.98578 0.65755 0.0
N3225 N 0.60206 0.02124 0.65781 0.0
C3226 C 0.5897 0.01309 0.66857 0.0
C3227 C 0.58964 0.99385 0.66842 0.0
C3228 C 0.00949 0.40857 0.32371 0.0
C3229 C 0.01909 0.42198 0.333 0.0
C3230 C 0.99062 0.40855 0.32336 0.0
C3231 C 0.98065 0.42209 0.33208 0.0
H3232 H 0.01659 0.39824 0.31625 0.0
H3233 H 0.98382 0.3982 0.31565 0.0
S3234 S 0.99925 0.45951 0.35943 0.0
N3235 N 0.01714 0.44853 0.35213 0.0
N3236 N 0.98171 0.44861 0.35122 0.0
C3237 C 0.99005 0.43521 0.34197 0.0
C3238 C 0.00926 0.43511 0.34251 0.0
C3239 C 0.57418 0.00944 0.34898 0.0
C3240 C 0.58568 0.0198 0.33805 0.0
C3241 C 0.57473 0.9906 0.3486 0.0
C3242 C 0.58676 0.98139 0.33723 0.0
H3243 H 0.56415 0.0159 0.35737 0.0
H3244 H 0.5651 0.98324 0.35671 0.0
S3245 S 0.62112 0.00221 0.30747 0.0
N3246 N 0.61056 0.01944 0.31671 0.0
N3247 N 0.61156 0.98404 0.31597 0.0
C3248 C 0.59907 0.99157 0.32704 0.0
C3249 C 0.59855 0.01077 0.32747 0.0
C3250 C 0.99187 0.59217 0.3261 0.0
C3251 C 0.98327 0.57784 0.33502 0.0
C3252 C 0.01069 0.59313 0.32506 0.0
C3253 C 0.02161 0.57987 0.33304 0.0
H3254 H 0.98402 0.60239 0.31925 0.0
H3255 H 0.01669 0.6041 0.31754 0.0
S3256 S 0.00571 0.54054 0.35954 0.0
N3257 N 0.98709 0.5508 0.35307 0.0
N3258 N 0.02243 0.55265 0.3513 0.0
C3259 C 0.01318 0.56595 0.34276 0.0
C3260 C 0.99402 0.56492 0.34371 0.0
C3261 C 0.41008 0.99481 0.31773 0.0
C3262 C 0.41623 0.98563 0.33311 0.0
C3263 C 0.4102 0.01362 0.31693 0.0
C3264 C 0.41619 0.02399 0.33158 0.0
H3265 H 0.40593 0.98744 0.30584 0.0
H3266 H 0.40597 0.02006 0.30454 0.0
S3267 S 0.43171 0.00652 0.37575 0.0
N3268 N 0.42718 0.98829 0.36385 0.0
N3269 N 0.42707 0.02376 0.36248 0.0
C3270 C 0.42136 0.01503 0.34745 0.0
C3271 C 0.42148 0.99582 0.34818 0.0
C3272 C 0.66453 0.99199 0.56901 0.0
C3273 C 0.67132 0.98268 0.58405 0.0
C3274 C 0.66481 0.01081 0.56828 0.0
C3275 C 0.67153 0.02104 0.5827 0.0
H3276 H 0.65954 0.98468 0.55741 0.0
H3277 H 0.65986 0.01738 0.55623 0.0
S3278 S 0.68995 0.00324 0.62558 0.0
N3279 N 0.68446 0.9851 0.61394 0.0
N3280 N 0.68453 0.02058 0.61275 0.0
C3281 C 0.67776 0.01196 0.5981 0.0
C3282 C 0.67779 0.99275 0.59872 0.0
C3283 C 0.66646 0.99264 0.41741 0.0
C3284 C 0.68191 0.98324 0.42308 0.0
C3285 C 0.66576 0.01151 0.41799 0.0
C3286 C 0.68044 0.02163 0.42438 0.0
H3287 H 0.65468 0.98538 0.4128 0.0
H3288 H 0.65348 0.01817 0.41378 0.0
S3289 S 0.72458 0.00361 0.43941 0.0
N3290 N 0.71265 0.9856 0.43425 0.0
N3291 N 0.71126 0.02094 0.43545 0.0
C3292 C 0.69614 0.01243 0.4296 0.0
C3293 C 0.6969 0.99326 0.42892 0.0
C3294 C 0.00922 0.67486 0.43984 0.0
C3295 C 0.01907 0.67494 0.42365 0.0
C3296 C 0.99036 0.67477 0.4398 0.0
C3297 C 0.9806 0.67452 0.42358 0.0
H3298 H 0.01611 0.67517 0.45269 0.0
H3299 H 0.98338 0.67491 0.45261 0.0
S3300 S 0.99991 0.67438 0.37748 0.0
N3301 N 0.01762 0.67464 0.39092 0.0
N3302 N 0.98215 0.67422 0.39087 0.0
C3303 C 0.99025 0.67432 0.40728 0.0
C3304 C 0.00948 0.6746 0.40731 0.0
C3305 C 0.31246 0.01112 0.4346 0.0
C3306 C 0.32527 0.02107 0.42479 0.0
C3307 C 0.31248 0.99229 0.43438 0.0
C3308 C 0.32527 0.9826 0.42435 0.0
H3309 H 0.30234 0.0179 0.4426 0.0
H3310 H 0.30235 0.9853 0.44223 0.0
S3311 S 0.36165 0.00219 0.39618 0.0
N3312 N 0.35106 0.01982 0.40462 0.0
N3313 N 0.35108 0.98436 0.40421 0.0
C3314 C 0.33813 0.99234 0.41436 0.0
C3315 C 0.3381 0.01158 0.4146 0.0
C3316 C 0.99226 0.345 0.42528 0.0
C3317 C 0.98205 0.33076 0.41808 0.0
C3318 C 0.01113 0.34474 0.42472 0.0
C3319 C 0.02045 0.3301 0.41715 0.0
H3320 H 0.98566 0.35622 0.43186 0.0
H3321 H 0.01844 0.35572 0.43092 0.0
S3322 S 1.00007 0.29022 0.39503 0.0
N3323 N 0.9827 0.30224 0.40193 0.0
N3324 N 0.01813 0.30166 0.40111 0.0
C3325 C 0.01042 0.31615 0.40921 0.0
C3326 C 0.99122 0.31651 0.4096 0.0
C3327 C 0.3114 0.00968 0.56904 0.0
C3328 C 0.32452 0.01962 0.57839 0.0
C3329 C 0.31185 0.99085 0.56869 0.0
C3330 C 0.32541 0.98117 0.57769 0.0
H3331 H 0.30069 0.01647 0.56183 0.0
H3332 H 0.30143 0.98385 0.56125 0.0
S3333 S 0.36295 1.00077 0.60424 0.0
N3334 N 0.35149 0.01838 0.59697 0.0
N3335 N 0.3523 0.98294 0.59632 0.0
C3336 C 0.33859 0.99091 0.58719 0.0
C3337 C 0.33815 0.01014 0.58754 0.0
C3338 C 0.98973 0.33547 0.58722 0.0
C3339 C 0.97982 0.32077 0.58057 0.0
C3340 C 0.00862 0.33547 0.58686 0.0
C3341 C 0.01829 0.32074 0.57991 0.0
H3342 H 0.98287 0.34726 0.59238 0.0
H3343 H 0.01566 0.34726 0.59178 0.0
S3344 S 0.99869 0.27824 0.56231 0.0
N3345 N 0.98108 0.29063 0.56782 0.0
N3346 N 0.0165 0.29057 0.56723 0.0
C3347 C 0.00854 0.3057 0.57376 0.0
C3348 C 0.98932 0.30573 0.57407 0.0
C3349 C 0.9929 0.67443 0.59065 0.0
C3350 C 0.98366 0.66754 0.57563 0.0
C3351 C 0.01177 0.67498 0.59107 0.0
C3352 C 0.02208 0.66857 0.57652 0.0
H3353 H 0.98553 0.68002 0.60192 0.0
H3354 H 0.01828 0.68092 0.60269 0.0
S3355 S 0.00438 0.6475 0.53477 0.0
N3356 N 0.98624 0.65295 0.54641 0.0
N3357 N 0.02164 0.6539 0.54722 0.0
C3358 C 0.01301 0.66087 0.56178 0.0
C3359 C 0.99381 0.66038 0.56132 0.0
loop_
_geom_bond_atom_site_label_1
_geom_bond_atom_site_label_2
_geom_bond_distance
_geom_bond_site_symmetry_2
_ccdc_geom_bond_type
In0 O1 2.294 . S
In0 O2 2.326 . S
In0 O6 2.266 . S
In0 O7 2.326 . S
In0 O8 2.266 . S
In0 O9 2.326 . S
In0 O11 2.294 . S
In0 O12 2.326 . S
O1 In0 2.294 . S
O1 C10 1.240 . S
O2 In0 2.326 . S
O2 C10 1.252 . S
C3 O6 1.252 . S
C3 O7 1.260 . S
C4 O11 1.240 . S
C4 O12 1.252 . S
C5 O8 1.252 . S
C5 O9 1.260 . S
O6 In0 2.266 . S
O6 C3 1.252 . S
O7 In0 2.326 . S
O7 C3 1.260 . S
O8 In0 2.266 . S
O8 C5 1.252 . S
O9 In0 2.326 . S
O9 C5 1.260 . S
C10 O1 1.240 . S
C10 O2 1.252 . S
O11 In0 2.294 . S
O11 C4 1.240 . S
O12 In0 2.326 . S
O12 C4 1.252 . S
In13 O14 2.294 . S
In13 O15 2.326 . S
In13 O19 2.266 . S
In13 O20 2.326 . S
In13 O21 2.266 . S
In13 O22 2.326 . S
In13 O24 2.294 . S
In13 O25 2.326 . S
O14 In13 2.294 . S
O14 C23 1.240 . S
O15 In13 2.326 . S
O15 C23 1.252 . S
C16 O19 1.252 . S
C16 O20 1.260 . S
C17 O24 1.240 . S
C17 O25 1.252 . S
C18 O21 1.252 . S
C18 O22 1.260 . S
O19 In13 2.266 . S
O19 C16 1.252 . S
O20 In13 2.326 . S
O20 C16 1.260 . S
O21 In13 2.266 . S
O21 C18 1.252 . S
O22 In13 2.326 . S
O22 C18 1.260 . S
C23 O14 1.240 . S
C23 O15 1.252 . S
O24 In13 2.294 . S
O24 C17 1.240 . S
O25 In13 2.326 . S
O25 C17 1.252 . S
In26 O27 2.294 . S
In26 O28 2.326 . S
In26 O32 2.266 . S
In26 O33 2.326 . S
In26 O34 2.266 . S
In26 O35 2.326 . S
In26 O37 2.294 . S
In26 O38 2.326 . S
O27 In26 2.294 . S
O27 C36 1.240 . S
O28 In26 2.326 . S
O28 C36 1.252 . S
C29 O32 1.252 . S
C29 O33 1.260 . S
C30 O37 1.240 . S
C30 O38 1.252 . S
C31 O34 1.252 . S
C31 O35 1.260 . S
O32 In26 2.266 . S
O32 C29 1.252 . S
O33 In26 2.326 . S
O33 C29 1.260 . S
O34 In26 2.266 . S
O34 C31 1.252 . S
O35 In26 2.326 . S
O35 C31 1.260 . S
C36 O27 1.240 . S
C36 O28 1.252 . S
O37 In26 2.294 . S
O37 C30 1.240 . S
O38 In26 2.326 . S
O38 C30 1.252 . S
In39 O40 2.294 . S
In39 O41 2.326 . S
In39 O45 2.266 . S
In39 O46 2.326 . S
In39 O47 2.266 . S
In39 O48 2.326 . S
In39 O50 2.294 . S
In39 O51 2.326 . S
O40 In39 2.294 . S
O40 C49 1.240 . S
O41 In39 2.326 . S
O41 C49 1.252 . S
C42 O45 1.252 . S
C42 O46 1.260 . S
C43 O50 1.240 . S
C43 O51 1.252 . S
C44 O47 1.252 . S
C44 O48 1.260 . S
O45 In39 2.266 . S
O45 C42 1.252 . S
O46 In39 2.326 . S
O46 C42 1.260 . S
O47 In39 2.266 . S
O47 C44 1.252 . S
O48 In39 2.326 . S
O48 C44 1.260 . S
C49 O40 1.240 . S
C49 O41 1.252 . S
O50 In39 2.294 . S
O50 C43 1.240 . S
O51 In39 2.326 . S
O51 C43 1.252 . S
In52 O53 2.294 . S
In52 O54 2.326 . S
In52 O58 2.266 . S
In52 O59 2.326 . S
In52 O60 2.266 . S
In52 O61 2.326 . S
In52 O63 2.294 . S
In52 O64 2.326 . S
O53 In52 2.294 . S
O53 C62 1.240 . S
O54 In52 2.326 . S
O54 C62 1.252 . S
C55 O58 1.252 . S
C55 O59 1.260 . S
C56 O63 1.240 . S
C56 O64 1.252 . S
C57 O60 1.252 . S
C57 O61 1.260 . S
O58 In52 2.266 . S
O58 C55 1.252 . S
O59 In52 2.326 . S
O59 C55 1.260 . S
O60 In52 2.266 . S
O60 C57 1.252 . S
O61 In52 2.326 . S
O61 C57 1.260 . S
C62 O53 1.240 . S
C62 O54 1.252 . S
O63 In52 2.294 . S
O63 C56 1.240 . S
O64 In52 2.326 . S
O64 C56 1.252 . S
In65 O66 2.294 . S
In65 O67 2.326 . S
In65 O71 2.266 . S
In65 O72 2.326 . S
In65 O73 2.266 . S
In65 O74 2.326 . S
In65 O76 2.294 . S
In65 O77 2.326 . S
O66 In65 2.294 . S
O66 C75 1.240 . S
O67 In65 2.326 . S
O67 C75 1.252 . S
C68 O71 1.252 . S
C68 O72 1.260 . S
C69 O76 1.240 . S
C69 O77 1.252 . S
C70 O73 1.252 . S
C70 O74 1.260 . S
O71 In65 2.266 . S
O71 C68 1.252 . S
O72 In65 2.326 . S
O72 C68 1.260 . S
O73 In65 2.266 . S
O73 C70 1.252 . S
O74 In65 2.326 . S
O74 C70 1.260 . S
C75 O66 1.240 . S
C75 O67 1.252 . S
O76 In65 2.294 . S
O76 C69 1.240 . S
O77 In65 2.326 . S
O77 C69 1.252 . S
In78 O79 2.294 . S
In78 O80 2.326 . S
In78 O84 2.266 . S
In78 O85 2.326 . S
In78 O86 2.266 . S
In78 O87 2.326 . S
In78 O89 2.294 . S
In78 O90 2.326 . S
O79 In78 2.294 . S
O79 C88 1.240 . S
O80 In78 2.326 . S
O80 C88 1.252 . S
C81 O84 1.252 . S
C81 O85 1.260 . S
C82 O89 1.240 . S
C82 O90 1.252 . S
C83 O86 1.252 . S
C83 O87 1.260 . S
O84 In78 2.266 . S
O84 C81 1.252 . S
O85 In78 2.326 . S
O85 C81 1.260 . S
O86 In78 2.266 . S
O86 C83 1.252 . S
O87 In78 2.326 . S
O87 C83 1.260 . S
C88 O79 1.240 . S
C88 O80 1.252 . S
O89 In78 2.294 . S
O89 C82 1.240 . S
O90 In78 2.326 . S
O90 C82 1.252 . S
In91 O92 2.294 . S
In91 O93 2.326 . S
In91 O97 2.266 . S
In91 O98 2.326 . S
In91 O99 2.266 . S
In91 O100 2.326 . S
In91 O102 2.294 . S
In91 O103 2.326 . S
O92 In91 2.294 . S
O92 C101 1.240 . S
O93 In91 2.326 . S
O93 C101 1.252 . S
C94 O97 1.252 . S
C94 O98 1.260 . S
C95 O102 1.240 . S
C95 O103 1.252 . S
C96 O99 1.252 . S
C96 O100 1.260 . S
O97 In91 2.266 . S
O97 C94 1.252 . S
O98 In91 2.326 . S
O98 C94 1.260 . S
O99 In91 2.266 . S
O99 C96 1.252 . S
O100 In91 2.326 . S
O100 C96 1.260 . S
C101 O92 1.240 . S
C101 O93 1.252 . S
O102 In91 2.294 . S
O102 C95 1.240 . S
O103 In91 2.326 . S
O103 C95 1.252 . S
In104 O105 2.294 . S
In104 O106 2.326 . S
In104 O110 2.266 . S
In104 O111 2.326 . S
In104 O112 2.266 . S
In104 O113 2.326 . S
In104 O115 2.294 . S
In104 O116 2.326 . S
O105 In104 2.294 . S
O105 C114 1.240 . S
O106 In104 2.326 . S
O106 C114 1.252 . S
C107 O110 1.252 . S
C107 O111 1.260 . S
C108 O115 1.240 . S
C108 O116 1.252 . S
C109 O112 1.252 . S
C109 O113 1.260 . S
O110 In104 2.266 . S
O110 C107 1.252 . S
O111 In104 2.326 . S
O111 C107 1.260 . S
O112 In104 2.266 . S
O112 C109 1.252 . S
O113 In104 2.326 . S
O113 C109 1.260 . S
C114 O105 1.240 . S
C114 O106 1.252 . S
O115 In104 2.294 . S
O115 C108 1.240 . S
O116 In104 2.326 . S
O116 C108 1.252 . S
In117 O118 2.294 . S
In117 O119 2.326 . S
In117 O123 2.266 . S
In117 O124 2.326 . S
In117 O125 2.266 . S
In117 O126 2.326 . S
In117 O128 2.294 . S
In117 O129 2.326 . S
O118 In117 2.294 . S
O118 C127 1.240 . S
O119 In117 2.326 . S
O119 C127 1.252 . S
C120 O123 1.252 . S
C120 O124 1.260 . S
C121 O128 1.240 . S
C121 O129 1.252 . S
C122 O125 1.252 . S
C122 O126 1.260 . S
O123 In117 2.266 . S
O123 C120 1.252 . S
O124 In117 2.326 . S
O124 C120 1.260 . S
O125 In117 2.266 . S
O125 C122 1.252 . S
O126 In117 2.326 . S
O126 C122 1.260 . S
C127 O118 1.240 . S
C127 O119 1.252 . S
O128 In117 2.294 . S
O128 C121 1.240 . S
O129 In117 2.326 . S
O129 C121 1.252 . S
In130 O131 2.294 . S
In130 O132 2.326 . S
In130 O136 2.266 . S
In130 O137 2.326 . S
In130 O138 2.266 . S
In130 O139 2.326 . S
In130 O141 2.294 . S
In130 O142 2.326 . S
O131 In130 2.294 . S
O131 C140 1.240 . S
O132 In130 2.326 . S
O132 C140 1.252 . S
C133 O136 1.252 . S
C133 O137 1.260 . S
C134 O141 1.240 . S
C134 O142 1.252 . S
C135 O138 1.252 . S
C135 O139 1.260 . S
O136 In130 2.266 . S
O136 C133 1.252 . S
O137 In130 2.326 . S
O137 C133 1.260 . S
O138 In130 2.266 . S
O138 C135 1.252 . S
O139 In130 2.326 . S
O139 C135 1.260 . S
C140 O131 1.240 . S
C140 O132 1.252 . S
O141 In130 2.294 . S
O141 C134 1.240 . S
O142 In130 2.326 . S
O142 C134 1.252 . S
In143 O144 2.294 . S
In143 O145 2.326 . S
In143 O149 2.266 . S
In143 O150 2.326 . S
In143 O151 2.266 . S
In143 O152 2.326 . S
In143 O154 2.294 . S
In143 O155 2.326 . S
O144 In143 2.294 . S
O144 C153 1.240 . S
O145 In143 2.326 . S
O145 C153 1.252 . S
C146 O149 1.252 . S
C146 O150 1.260 . S
C147 O154 1.240 . S
C147 O155 1.252 . S
C148 O151 1.252 . S
C148 O152 1.260 . S
O149 In143 2.266 . S
O149 C146 1.252 . S
O150 In143 2.326 . S
O150 C146 1.260 . S
O151 In143 2.266 . S
O151 C148 1.252 . S
O152 In143 2.326 . S
O152 C148 1.260 . S
C153 O144 1.240 . S
C153 O145 1.252 . S
O154 In143 2.294 . S
O154 C147 1.240 . S
O155 In143 2.326 . S
O155 C147 1.252 . S
In156 O157 2.294 . S
In156 O158 2.326 . S
In156 O162 2.266 . S
In156 O163 2.326 . S
In156 O164 2.266 . S
In156 O165 2.326 . S
In156 O167 2.294 . S
In156 O168 2.326 . S
O157 In156 2.294 . S
O157 C166 1.240 . S
O158 In156 2.326 . S
O158 C166 1.252 . S
C159 O162 1.252 . S
C159 O163 1.260 . S
C160 O167 1.240 . S
C160 O168 1.252 . S
C161 O164 1.252 . S
C161 O165 1.260 . S
O162 In156 2.266 . S
O162 C159 1.252 . S
O163 In156 2.326 . S
O163 C159 1.260 . S
O164 In156 2.266 . S
O164 C161 1.252 . S
O165 In156 2.326 . S
O165 C161 1.260 . S
C166 O157 1.240 . S
C166 O158 1.252 . S
O167 In156 2.294 . S
O167 C160 1.240 . S
O168 In156 2.326 . S
O168 C160 1.252 . S
In169 O170 2.294 . S
In169 O171 2.326 . S
In169 O175 2.266 . S
In169 O176 2.326 . S
In169 O177 2.266 . S
In169 O178 2.326 . S
In169 O180 2.294 . S
In169 O181 2.326 . S
O170 In169 2.294 . S
O170 C179 1.240 . S
O171 In169 2.326 . S
O171 C179 1.252 . S
C172 O175 1.252 . S
C172 O176 1.260 . S
C173 O180 1.240 . S
C173 O181 1.252 . S
C174 O177 1.252 . S
C174 O178 1.260 . S
O175 In169 2.266 . S
O175 C172 1.252 . S
O176 In169 2.326 . S
O176 C172 1.260 . S
O177 In169 2.266 . S
O177 C174 1.252 . S
O178 In169 2.326 . S
O178 C174 1.260 . S
C179 O170 1.240 . S
C179 O171 1.252 . S
O180 In169 2.294 . S
O180 C173 1.240 . S
O181 In169 2.326 . S
O181 C173 1.252 . S
In182 O183 2.294 . S
In182 O184 2.326 . S
In182 O188 2.266 . S
In182 O189 2.326 . S
In182 O190 2.266 . S
In182 O191 2.326 . S
In182 O193 2.294 . S
In182 O194 2.326 . S
O183 In182 2.294 . S
O183 C192 1.240 . S
O184 In182 2.326 . S
O184 C192 1.252 . S
C185 O188 1.252 . S
C185 O189 1.260 . S
C186 O193 1.240 . S
C186 O194 1.252 . S
C187 O190 1.252 . S
C187 O191 1.260 . S
O188 In182 2.266 . S
O188 C185 1.252 . S
O189 In182 2.326 . S
O189 C185 1.260 . S
O190 In182 2.266 . S
O190 C187 1.252 . S
O191 In182 2.326 . S
O191 C187 1.260 . S
C192 O183 1.240 . S
C192 O184 1.252 . S
O193 In182 2.294 . S
O193 C186 1.240 . S
O194 In182 2.326 . S
O194 C186 1.252 . S
In195 O196 2.294 . S
In195 O197 2.326 . S
In195 O201 2.266 . S
In195 O202 2.326 . S
In195 O203 2.266 . S
In195 O204 2.326 . S
In195 O206 2.294 . S
In195 O207 2.326 . S
O196 In195 2.294 . S
O196 C205 1.240 . S
O197 In195 2.326 . S
O197 C205 1.252 . S
C198 O201 1.252 . S
C198 O202 1.260 . S
C199 O206 1.240 . S
C199 O207 1.252 . S
C200 O203 1.252 . S
C200 O204 1.260 . S
O201 In195 2.266 . S
O201 C198 1.252 . S
O202 In195 2.326 . S
O202 C198 1.260 . S
O203 In195 2.266 . S
O203 C200 1.252 . S
O204 In195 2.326 . S
O204 C200 1.260 . S
C205 O196 1.240 . S
C205 O197 1.252 . S
O206 In195 2.294 . S
O206 C199 1.240 . S
O207 In195 2.326 . S
O207 C199 1.252 . S
In208 O209 2.294 . S
In208 O210 2.326 . S
In208 O214 2.266 . S
In208 O215 2.326 . S
In208 O216 2.266 . S
In208 O217 2.326 . S
In208 O219 2.294 . S
In208 O220 2.326 . S
O209 In208 2.294 . S
O209 C218 1.240 . S
O210 In208 2.326 . S
O210 C218 1.252 . S
C211 O214 1.252 . S
C211 O215 1.260 . S
C212 O219 1.240 . S
C212 O220 1.252 . S
C213 O216 1.252 . S
C213 O217 1.260 . S
O214 In208 2.266 . S
O214 C211 1.252 . S
O215 In208 2.326 . S
O215 C211 1.260 . S
O216 In208 2.266 . S
O216 C213 1.252 . S
O217 In208 2.326 . S
O217 C213 1.260 . S
C218 O209 1.240 . S
C218 O210 1.252 . S
O219 In208 2.294 . S
O219 C212 1.240 . S
O220 In208 2.326 . S
O220 C212 1.252 . S
In221 O222 2.294 . S
In221 O223 2.326 . S
In221 O227 2.266 . S
In221 O228 2.326 . S
In221 O229 2.266 . S
In221 O230 2.326 . S
In221 O232 2.294 . S
In221 O233 2.326 . S
O222 In221 2.294 . S
O222 C231 1.240 . S
O223 In221 2.326 . S
O223 C231 1.252 . S
C224 O227 1.252 . S
C224 O228 1.260 . S
C225 O232 1.240 . S
C225 O233 1.252 . S
C226 O229 1.252 . S
C226 O230 1.260 . S
O227 In221 2.266 . S
O227 C224 1.252 . S
O228 In221 2.326 . S
O228 C224 1.260 . S
O229 In221 2.266 . S
O229 C226 1.252 . S
O230 In221 2.326 . S
O230 C226 1.260 . S
C231 O222 1.240 . S
C231 O223 1.252 . S
O232 In221 2.294 . S
O232 C225 1.240 . S
O233 In221 2.326 . S
O233 C225 1.252 . S
In234 O235 2.294 . S
In234 O236 2.326 . S
In234 O240 2.266 . S
In234 O241 2.326 . S
In234 O242 2.266 . S
In234 O243 2.326 . S
In234 O245 2.294 . S
In234 O246 2.326 . S
O235 In234 2.294 . S
O235 C244 1.240 . S
O236 In234 2.326 . S
O236 C244 1.252 . S
C237 O240 1.252 . S
C237 O241 1.260 . S
C238 O245 1.240 . S
C238 O246 1.252 . S
C239 O242 1.252 . S
C239 O243 1.260 . S
O240 In234 2.266 . S
O240 C237 1.252 . S
O241 In234 2.326 . S
O241 C237 1.260 . S
O242 In234 2.266 . S
O242 C239 1.252 . S
O243 In234 2.326 . S
O243 C239 1.260 . S
C244 O235 1.240 . S
C244 O236 1.252 . S
O245 In234 2.294 . S
O245 C238 1.240 . S
O246 In234 2.326 . S
O246 C238 1.252 . S
In247 O248 2.294 . S
In247 O249 2.326 . S
In247 O253 2.266 . S
In247 O254 2.326 . S
In247 O255 2.266 . S
In247 O256 2.326 . S
In247 O258 2.294 . S
In247 O259 2.326 . S
O248 In247 2.294 . S
O248 C257 1.240 . S
O249 In247 2.326 . S
O249 C257 1.252 . S
C250 O253 1.252 . S
C250 O254 1.260 . S
C251 O258 1.240 . S
C251 O259 1.252 . S
C252 O255 1.252 . S
C252 O256 1.260 . S
O253 In247 2.266 . S
O253 C250 1.252 . S
O254 In247 2.326 . S
O254 C250 1.260 . S
O255 In247 2.266 . S
O255 C252 1.252 . S
O256 In247 2.326 . S
O256 C252 1.260 . S
C257 O248 1.240 . S
C257 O249 1.252 . S
O258 In247 2.294 . S
O258 C251 1.240 . S
O259 In247 2.326 . S
O259 C251 1.252 . S
In260 O261 2.294 . S
In260 O262 2.326 . S
In260 O266 2.266 . S
In260 O267 2.326 . S
In260 O268 2.266 . S
In260 O269 2.326 . S
In260 O271 2.294 . S
In260 O272 2.326 . S
O261 In260 2.294 . S
O261 C270 1.240 . S
O262 In260 2.326 . S
O262 C270 1.252 . S
C263 O266 1.252 . S
C263 O267 1.260 . S
C264 O271 1.240 . S
C264 O272 1.252 . S
C265 O268 1.252 . S
C265 O269 1.260 . S
O266 In260 2.266 . S
O266 C263 1.252 . S
O267 In260 2.326 . S
O267 C263 1.260 . S
O268 In260 2.266 . S
O268 C265 1.252 . S
O269 In260 2.326 . S
O269 C265 1.260 . S
C270 O261 1.240 . S
C270 O262 1.252 . S
O271 In260 2.294 . S
O271 C264 1.240 . S
O272 In260 2.326 . S
O272 C264 1.252 . S
In273 O274 2.294 . S
In273 O275 2.326 . S
In273 O279 2.266 . S
In273 O280 2.326 . S
In273 O281 2.266 . S
In273 O282 2.326 . S
In273 O284 2.294 . S
In273 O285 2.326 . S
O274 In273 2.294 . S
O274 C283 1.240 . S
O275 In273 2.326 . S
O275 C283 1.252 . S
C276 O279 1.252 . S
C276 O280 1.260 . S
C277 O284 1.240 . S
C277 O285 1.252 . S
C278 O281 1.252 . S
C278 O282 1.260 . S
O279 In273 2.266 . S
O279 C276 1.252 . S
O280 In273 2.326 . S
O280 C276 1.260 . S
O281 In273 2.266 . S
O281 C278 1.252 . S
O282 In273 2.326 . S
O282 C278 1.260 . S
C283 O274 1.240 . S
C283 O275 1.252 . S
O284 In273 2.294 . S
O284 C277 1.240 . S
O285 In273 2.326 . S
O285 C277 1.252 . S
In286 O287 2.294 . S
In286 O288 2.326 . S
In286 O292 2.266 . S
In286 O293 2.326 . S
In286 O294 2.266 . S
In286 O295 2.326 . S
In286 O297 2.294 . S
In286 O298 2.326 . S
O287 In286 2.294 . S
O287 C296 1.240 . S
O288 In286 2.326 . S
O288 C296 1.252 . S
C289 O292 1.252 . S
C289 O293 1.260 . S
C290 O297 1.240 . S
C290 O298 1.252 . S
C291 O294 1.252 . S
C291 O295 1.260 . S
O292 In286 2.266 . S
O292 C289 1.252 . S
O293 In286 2.326 . S
O293 C289 1.260 . S
O294 In286 2.266 . S
O294 C291 1.252 . S
O295 In286 2.326 . S
O295 C291 1.260 . S
C296 O287 1.240 . S
C296 O288 1.252 . S
O297 In286 2.294 . S
O297 C290 1.240 . S
O298 In286 2.326 . S
O298 C290 1.252 . S
In299 O300 2.294 . S
In299 O301 2.326 . S
In299 O305 2.266 . S
In299 O306 2.326 . S
In299 O307 2.266 . S
In299 O308 2.326 . S
In299 O310 2.294 . S
In299 O311 2.326 . S
O300 In299 2.294 . S
O300 C309 1.240 . S
O301 In299 2.326 . S
O301 C309 1.252 . S
C302 O305 1.252 . S
C302 O306 1.260 . S
C303 O310 1.240 . S
C303 O311 1.252 . S
C304 O307 1.252 . S
C304 O308 1.260 . S
O305 In299 2.266 . S
O305 C302 1.252 . S
O306 In299 2.326 . S
O306 C302 1.260 . S
O307 In299 2.266 . S
O307 C304 1.252 . S
O308 In299 2.326 . S
O308 C304 1.260 . S
C309 O300 1.240 . S
C309 O301 1.252 . S
O310 In299 2.294 . S
O310 C303 1.240 . S
O311 In299 2.326 . S
O311 C303 1.252 . S
In312 O313 2.294 . S
In312 O314 2.326 . S
In312 O318 2.266 . S
In312 O319 2.326 . S
In312 O320 2.266 . S
In312 O321 2.326 . S
In312 O323 2.294 . S
In312 O324 2.326 . S
O313 In312 2.294 . S
O313 C322 1.240 . S
O314 In312 2.326 . S
O314 C322 1.252 . S
C315 O318 1.252 . S
C315 O319 1.260 . S
C316 O323 1.240 . S
C316 O324 1.252 . S
C317 O320 1.252 . S
C317 O321 1.260 . S
O318 In312 2.266 . S
O318 C315 1.252 . S
O319 In312 2.326 . S
O319 C315 1.260 . S
O320 In312 2.266 . S
O320 C317 1.252 . S
O321 In312 2.326 . S
O321 C317 1.260 . S
C322 O313 1.240 . S
C322 O314 1.252 . S
O323 In312 2.294 . S
O323 C316 1.240 . S
O324 In312 2.326 . S
O324 C316 1.252 . S
In325 O326 2.294 . S
In325 O327 2.326 . S
In325 O331 2.266 . S
In325 O332 2.326 . S
In325 O333 2.266 . S
In325 O334 2.326 . S
In325 O336 2.294 . S
In325 O337 2.326 . S
O326 In325 2.294 . S
O326 C335 1.240 . S
O327 In325 2.326 . S
O327 C335 1.252 . S
C328 O331 1.252 . S
C328 O332 1.260 . S
C329 O336 1.240 . S
C329 O337 1.252 . S
C330 O333 1.252 . S
C330 O334 1.260 . S
O331 In325 2.266 . S
O331 C328 1.252 . S
O332 In325 2.326 . S
O332 C328 1.260 . S
O333 In325 2.266 . S
O333 C330 1.252 . S
O334 In325 2.326 . S
O334 C330 1.260 . S
C335 O326 1.240 . S
C335 O327 1.252 . S
O336 In325 2.294 . S
O336 C329 1.240 . S
O337 In325 2.326 . S
O337 C329 1.252 . S
In338 O339 2.294 . S
In338 O340 2.326 . S
In338 O344 2.266 . S
In338 O345 2.326 . S
In338 O346 2.266 . S
In338 O347 2.326 . S
In338 O349 2.294 . S
In338 O350 2.326 . S
O339 In338 2.294 . S
O339 C348 1.240 . S
O340 In338 2.326 . S
O340 C348 1.252 . S
C341 O344 1.252 . S
C341 O345 1.260 . S
C342 O349 1.240 . S
C342 O350 1.252 . S
C343 O346 1.252 . S
C343 O347 1.260 . S
O344 In338 2.266 . S
O344 C341 1.252 . S
O345 In338 2.326 . S
O345 C341 1.260 . S
O346 In338 2.266 . S
O346 C343 1.252 . S
O347 In338 2.326 . S
O347 C343 1.260 . S
C348 O339 1.240 . S
C348 O340 1.252 . S
O349 In338 2.294 . S
O349 C342 1.240 . S
O350 In338 2.326 . S
O350 C342 1.252 . S
In351 O352 2.294 . S
In351 O353 2.326 . S
In351 O357 2.266 . S
In351 O358 2.326 . S
In351 O359 2.266 . S
In351 O360 2.326 . S
In351 O362 2.294 . S
In351 O363 2.326 . S
O352 In351 2.294 . S
O352 C361 1.240 . S
O353 In351 2.326 . S
O353 C361 1.252 . S
C354 O357 1.252 . S
C354 O358 1.260 . S
C355 O362 1.240 . S
C355 O363 1.252 . S
C356 O359 1.252 . S
C356 O360 1.260 . S
O357 In351 2.266 . S
O357 C354 1.252 . S
O358 In351 2.326 . S
O358 C354 1.260 . S
O359 In351 2.266 . S
O359 C356 1.252 . S
O360 In351 2.326 . S
O360 C356 1.260 . S
C361 O352 1.240 . S
C361 O353 1.252 . S
O362 In351 2.294 . S
O362 C355 1.240 . S
O363 In351 2.326 . S
O363 C355 1.252 . S
In364 O365 2.294 . S
In364 O366 2.326 . S
In364 O370 2.266 . S
In364 O371 2.326 . S
In364 O372 2.266 . S
In364 O373 2.326 . S
In364 O375 2.294 . S
In364 O376 2.326 . S
O365 In364 2.294 . S
O365 C374 1.240 . S
O366 In364 2.326 . S
O366 C374 1.252 . S
C367 O370 1.252 . S
C367 O371 1.260 . S
C368 O375 1.240 . S
C368 O376 1.252 . S
C369 O372 1.252 . S
C369 O373 1.260 . S
O370 In364 2.266 . S
O370 C367 1.252 . S
O371 In364 2.326 . S
O371 C367 1.260 . S
O372 In364 2.266 . S
O372 C369 1.252 . S
O373 In364 2.326 . S
O373 C369 1.260 . S
C374 O365 1.240 . S
C374 O366 1.252 . S
O375 In364 2.294 . S
O375 C368 1.240 . S
O376 In364 2.326 . S
O376 C368 1.252 . S
In377 O378 2.294 . S
In377 O379 2.326 . S
In377 O383 2.266 . S
In377 O384 2.326 . S
In377 O385 2.266 . S
In377 O386 2.326 . S
In377 O388 2.294 . S
In377 O389 2.326 . S
O378 In377 2.294 . S
O378 C387 1.240 . S
O379 In377 2.326 . S
O379 C387 1.252 . S
C380 O383 1.252 . S
C380 O384 1.260 . S
C381 O388 1.240 . S
C381 O389 1.252 . S
C382 O385 1.252 . S
C382 O386 1.260 . S
O383 In377 2.266 . S
O383 C380 1.252 . S
O384 In377 2.326 . S
O384 C380 1.260 . S
O385 In377 2.266 . S
O385 C382 1.252 . S
O386 In377 2.326 . S
O386 C382 1.260 . S
C387 O378 1.240 . S
C387 O379 1.252 . S
O388 In377 2.294 . S
O388 C381 1.240 . S
O389 In377 2.326 . S
O389 C381 1.252 . S
In390 O391 2.294 . S
In390 O392 2.326 . S
In390 O396 2.266 . S
In390 O397 2.326 . S
In390 O398 2.266 . S
In390 O399 2.326 . S
In390 O401 2.294 . S
In390 O402 2.326 . S
O391 In390 2.294 . S
O391 C400 1.240 . S
O392 In390 2.326 . S
O392 C400 1.252 . S
C393 O396 1.252 . S
C393 O397 1.260 . S
C394 O401 1.240 . S
C394 O402 1.252 . S
C395 O398 1.252 . S
C395 O399 1.260 . S
O396 In390 2.266 . S
O396 C393 1.252 . S
O397 In390 2.326 . S
O397 C393 1.260 . S
O398 In390 2.266 . S
O398 C395 1.252 . S
O399 In390 2.326 . S
O399 C395 1.260 . S
C400 O391 1.240 . S
C400 O392 1.252 . S
O401 In390 2.294 . S
O401 C394 1.240 . S
O402 In390 2.326 . S
O402 C394 1.252 . S
In403 O404 2.294 . S
In403 O405 2.326 . S
In403 O409 2.266 . S
In403 O410 2.326 . S
In403 O411 2.266 . S
In403 O412 2.326 . S
In403 O414 2.294 . S
In403 O415 2.326 . S
O404 In403 2.294 . S
O404 C413 1.240 . S
O405 In403 2.326 . S
O405 C413 1.252 . S
C406 O409 1.252 . S
C406 O410 1.260 . S
C407 O414 1.240 . S
C407 O415 1.252 . S
C408 O411 1.252 . S
C408 O412 1.260 . S
O409 In403 2.266 . S
O409 C406 1.252 . S
O410 In403 2.326 . S
O410 C406 1.260 . S
O411 In403 2.266 . S
O411 C408 1.252 . S
O412 In403 2.326 . S
O412 C408 1.260 . S
C413 O404 1.240 . S
C413 O405 1.252 . S
O414 In403 2.294 . S
O414 C407 1.240 . S
O415 In403 2.326 . S
O415 C407 1.252 . S
In416 O417 2.294 . S
In416 O418 2.326 . S
In416 O422 2.266 . S
In416 O423 2.326 . S
In416 O424 2.266 . S
In416 O425 2.326 . S
In416 O427 2.294 . S
In416 O428 2.326 . S
O417 In416 2.294 . S
O417 C426 1.240 . S
O418 In416 2.326 . S
O418 C426 1.252 . S
C419 O422 1.252 . S
C419 O423 1.260 . S
C420 O427 1.240 . S
C420 O428 1.252 . S
C421 O424 1.252 . S
C421 O425 1.260 . S
O422 In416 2.266 . S
O422 C419 1.252 . S
O423 In416 2.326 . S
O423 C419 1.260 . S
O424 In416 2.266 . S
O424 C421 1.252 . S
O425 In416 2.326 . S
O425 C421 1.260 . S
C426 O417 1.240 . S
C426 O418 1.252 . S
O427 In416 2.294 . S
O427 C420 1.240 . S
O428 In416 2.326 . S
O428 C420 1.252 . S
In429 O430 2.294 . S
In429 O431 2.326 . S
In429 O435 2.266 . S
In429 O436 2.326 . S
In429 O437 2.266 . S
In429 O438 2.326 . S
In429 O440 2.294 . S
In429 O441 2.326 . S
O430 In429 2.294 . S
O430 C439 1.240 . S
O431 In429 2.326 . S
O431 C439 1.252 . S
C432 O435 1.252 . S
C432 O436 1.260 . S
C433 O440 1.240 . S
C433 O441 1.252 . S
C434 O437 1.252 . S
C434 O438 1.260 . S
O435 In429 2.266 . S
O435 C432 1.252 . S
O436 In429 2.326 . S
O436 C432 1.260 . S
O437 In429 2.266 . S
O437 C434 1.252 . S
O438 In429 2.326 . S
O438 C434 1.260 . S
C439 O430 1.240 . S
C439 O431 1.252 . S
O440 In429 2.294 . S
O440 C433 1.240 . S
O441 In429 2.326 . S
O441 C433 1.252 . S
In442 O443 2.294 . S
In442 O444 2.326 . S
In442 O448 2.266 . S
In442 O449 2.326 . S
In442 O450 2.266 . S
In442 O451 2.326 . S
In442 O453 2.294 . S
In442 O454 2.326 . S
O443 In442 2.294 . S
O443 C452 1.240 . S
O444 In442 2.326 . S
O444 C452 1.252 . S
C445 O448 1.252 . S
C445 O449 1.260 . S
C446 O453 1.240 . S
C446 O454 1.252 . S
C447 O450 1.252 . S
C447 O451 1.260 . S
O448 In442 2.266 . S
O448 C445 1.252 . S
O449 In442 2.326 . S
O449 C445 1.260 . S
O450 In442 2.266 . S
O450 C447 1.252 . S
O451 In442 2.326 . S
O451 C447 1.260 . S
C452 O443 1.240 . S
C452 O444 1.252 . S
O453 In442 2.294 . S
O453 C446 1.240 . S
O454 In442 2.326 . S
O454 C446 1.252 . S
In455 O456 2.294 . S
In455 O457 2.326 . S
In455 O461 2.266 . S
In455 O462 2.326 . S
In455 O463 2.266 . S
In455 O464 2.326 . S
In455 O466 2.294 . S
In455 O467 2.326 . S
O456 In455 2.294 . S
O456 C465 1.240 . S
O457 In455 2.326 . S
O457 C465 1.252 . S
C458 O461 1.252 . S
C458 O462 1.260 . S
C459 O466 1.240 . S
C459 O467 1.252 . S
C460 O463 1.252 . S
C460 O464 1.260 . S
O461 In455 2.266 . S
O461 C458 1.252 . S
O462 In455 2.326 . S
O462 C458 1.260 . S
O463 In455 2.266 . S
O463 C460 1.252 . S
O464 In455 2.326 . S
O464 C460 1.260 . S
C465 O456 1.240 . S
C465 O457 1.252 . S
O466 In455 2.294 . S
O466 C459 1.240 . S
O467 In455 2.326 . S
O467 C459 1.252 . S
In468 O469 2.294 . S
In468 O470 2.326 . S
In468 O474 2.266 . S
In468 O475 2.326 . S
In468 O476 2.266 . S
In468 O477 2.326 . S
In468 O479 2.294 . S
In468 O480 2.326 . S
O469 In468 2.294 . S
O469 C478 1.240 . S
O470 In468 2.326 . S
O470 C478 1.252 . S
C471 O474 1.252 . S
C471 O475 1.260 . S
C472 O479 1.240 . S
C472 O480 1.252 . S
C473 O476 1.252 . S
C473 O477 1.260 . S
O474 In468 2.266 . S
O474 C471 1.252 . S
O475 In468 2.326 . S
O475 C471 1.260 . S
O476 In468 2.266 . S
O476 C473 1.252 . S
O477 In468 2.326 . S
O477 C473 1.260 . S
C478 O469 1.240 . S
C478 O470 1.252 . S
O479 In468 2.294 . S
O479 C472 1.240 . S
O480 In468 2.326 . S
O480 C472 1.252 . S
In481 O482 2.294 . S
In481 O483 2.326 . S
In481 O487 2.266 . S
In481 O488 2.326 . S
In481 O489 2.266 . S
In481 O490 2.326 . S
In481 O492 2.294 . S
In481 O493 2.326 . S
O482 In481 2.294 . S
O482 C491 1.240 . S
O483 In481 2.326 . S
O483 C491 1.252 . S
C484 O487 1.252 . S
C484 O488 1.260 . S
C485 O492 1.240 . S
C485 O493 1.252 . S
C486 O489 1.252 . S
C486 O490 1.260 . S
O487 In481 2.266 . S
O487 C484 1.252 . S
O488 In481 2.326 . S
O488 C484 1.260 . S
O489 In481 2.266 . S
O489 C486 1.252 . S
O490 In481 2.326 . S
O490 C486 1.260 . S
C491 O482 1.240 . S
C491 O483 1.252 . S
O492 In481 2.294 . S
O492 C485 1.240 . S
O493 In481 2.326 . S
O493 C485 1.252 . S
In494 O495 2.294 . S
In494 O496 2.326 . S
In494 O500 2.266 . S
In494 O501 2.326 . S
In494 O502 2.266 . S
In494 O503 2.326 . S
In494 O505 2.294 . S
In494 O506 2.326 . S
O495 In494 2.294 . S
O495 C504 1.240 . S
O496 In494 2.326 . S
O496 C504 1.252 . S
C497 O500 1.252 . S
C497 O501 1.260 . S
C498 O505 1.240 . S
C498 O506 1.252 . S
C499 O502 1.252 . S
C499 O503 1.260 . S
O500 In494 2.266 . S
O500 C497 1.252 . S
O501 In494 2.326 . S
O501 C497 1.260 . S
O502 In494 2.266 . S
O502 C499 1.252 . S
O503 In494 2.326 . S
O503 C499 1.260 . S
C504 O495 1.240 . S
C504 O496 1.252 . S
O505 In494 2.294 . S
O505 C498 1.240 . S
O506 In494 2.326 . S
O506 C498 1.252 . S
In507 O508 2.294 . S
In507 O509 2.326 . S
In507 O513 2.266 . S
In507 O514 2.326 . S
In507 O515 2.266 . S
In507 O516 2.326 . S
In507 O518 2.294 . S
In507 O519 2.326 . S
O508 In507 2.294 . S
O508 C517 1.240 . S
O509 In507 2.326 . S
O509 C517 1.252 . S
C510 O513 1.252 . S
C510 O514 1.260 . S
C511 O518 1.240 . S
C511 O519 1.252 . S
C512 O515 1.252 . S
C512 O516 1.260 . S
O513 In507 2.266 . S
O513 C510 1.252 . S
O514 In507 2.326 . S
O514 C510 1.260 . S
O515 In507 2.266 . S
O515 C512 1.252 . S
O516 In507 2.326 . S
O516 C512 1.260 . S
C517 O508 1.240 . S
C517 O509 1.252 . S
O518 In507 2.294 . S
O518 C511 1.240 . S
O519 In507 2.326 . S
O519 C511 1.252 . S
In520 O521 2.294 . S
In520 O522 2.326 . S
In520 O526 2.266 . S
In520 O527 2.326 . S
In520 O528 2.266 . S
In520 O529 2.326 . S
In520 O531 2.294 . S
In520 O532 2.326 . S
O521 In520 2.294 . S
O521 C530 1.240 . S
O522 In520 2.326 . S
O522 C530 1.252 . S
C523 O526 1.252 . S
C523 O527 1.260 . S
C524 O531 1.240 . S
C524 O532 1.252 . S
C525 O528 1.252 . S
C525 O529 1.260 . S
O526 In520 2.266 . S
O526 C523 1.252 . S
O527 In520 2.326 . S
O527 C523 1.260 . S
O528 In520 2.266 . S
O528 C525 1.252 . S
O529 In520 2.326 . S
O529 C525 1.260 . S
C530 O521 1.240 . S
C530 O522 1.252 . S
O531 In520 2.294 . S
O531 C524 1.240 . S
O532 In520 2.326 . S
O532 C524 1.252 . S
In533 O534 2.294 . S
In533 O535 2.326 . S
In533 O539 2.266 . S
In533 O540 2.326 . S
In533 O541 2.266 . S
In533 O542 2.326 . S
In533 O544 2.294 . S
In533 O545 2.326 . S
O534 In533 2.294 . S
O534 C543 1.240 . S
O535 In533 2.326 . S
O535 C543 1.252 . S
C536 O539 1.252 . S
C536 O540 1.260 . S
C537 O544 1.240 . S
C537 O545 1.252 . S
C538 O541 1.252 . S
C538 O542 1.260 . S
O539 In533 2.266 . S
O539 C536 1.252 . S
O540 In533 2.326 . S
O540 C536 1.260 . S
O541 In533 2.266 . S
O541 C538 1.252 . S
O542 In533 2.326 . S
O542 C538 1.260 . S
C543 O534 1.240 . S
C543 O535 1.252 . S
O544 In533 2.294 . S
O544 C537 1.240 . S
O545 In533 2.326 . S
O545 C537 1.252 . S
In546 O547 2.294 . S
In546 O548 2.326 . S
In546 O552 2.266 . S
In546 O553 2.326 . S
In546 O554 2.266 . S
In546 O555 2.326 . S
In546 O557 2.294 . S
In546 O558 2.326 . S
O547 In546 2.294 . S
O547 C556 1.240 . S
O548 In546 2.326 . S
O548 C556 1.252 . S
C549 O552 1.252 . S
C549 O553 1.260 . S
C550 O557 1.240 . S
C550 O558 1.252 . S
C551 O554 1.252 . S
C551 O555 1.260 . S
O552 In546 2.266 . S
O552 C549 1.252 . S
O553 In546 2.326 . S
O553 C549 1.260 . S
O554 In546 2.266 . S
O554 C551 1.252 . S
O555 In546 2.326 . S
O555 C551 1.260 . S
C556 O547 1.240 . S
C556 O548 1.252 . S
O557 In546 2.294 . S
O557 C550 1.240 . S
O558 In546 2.326 . S
O558 C550 1.252 . S
In559 O560 2.294 . S
In559 O561 2.326 . S
In559 O565 2.266 . S
In559 O566 2.326 . S
In559 O567 2.266 . S
In559 O568 2.326 . S
In559 O570 2.294 . S
In559 O571 2.326 . S
O560 In559 2.294 . S
O560 C569 1.240 . S
O561 In559 2.326 . S
O561 C569 1.252 . S
C562 O565 1.252 . S
C562 O566 1.260 . S
C563 O570 1.240 . S
C563 O571 1.252 . S
C564 O567 1.252 . S
C564 O568 1.260 . S
O565 In559 2.266 . S
O565 C562 1.252 . S
O566 In559 2.326 . S
O566 C562 1.260 . S
O567 In559 2.266 . S
O567 C564 1.252 . S
O568 In559 2.326 . S
O568 C564 1.260 . S
C569 O560 1.240 . S
C569 O561 1.252 . S
O570 In559 2.294 . S
O570 C563 1.240 . S
O571 In559 2.326 . S
O571 C563 1.252 . S
In572 O573 2.294 . S
In572 O574 2.326 . S
In572 O578 2.266 . S
In572 O579 2.326 . S
In572 O580 2.266 . S
In572 O581 2.326 . S
In572 O583 2.294 . S
In572 O584 2.326 . S
O573 In572 2.294 . S
O573 C582 1.240 . S
O574 In572 2.326 . S
O574 C582 1.252 . S
C575 O578 1.252 . S
C575 O579 1.260 . S
C576 O583 1.240 . S
C576 O584 1.252 . S
C577 O580 1.252 . S
C577 O581 1.260 . S
O578 In572 2.266 . S
O578 C575 1.252 . S
O579 In572 2.326 . S
O579 C575 1.260 . S
O580 In572 2.266 . S
O580 C577 1.252 . S
O581 In572 2.326 . S
O581 C577 1.260 . S
C582 O573 1.240 . S
C582 O574 1.252 . S
O583 In572 2.294 . S
O583 C576 1.240 . S
O584 In572 2.326 . S
O584 C576 1.252 . S
In585 O586 2.294 . S
In585 O587 2.326 . S
In585 O591 2.266 . S
In585 O592 2.326 . S
In585 O593 2.266 . S
In585 O594 2.326 . S
In585 O596 2.294 . S
In585 O597 2.326 . S
O586 In585 2.294 . S
O586 C595 1.240 . S
O587 In585 2.326 . S
O587 C595 1.252 . S
C588 O591 1.252 . S
C588 O592 1.260 . S
C589 O596 1.240 . S
C589 O597 1.252 . S
C590 O593 1.252 . S
C590 O594 1.260 . S
O591 In585 2.266 . S
O591 C588 1.252 . S
O592 In585 2.326 . S
O592 C588 1.260 . S
O593 In585 2.266 . S
O593 C590 1.252 . S
O594 In585 2.326 . S
O594 C590 1.260 . S
C595 O586 1.240 . S
C595 O587 1.252 . S
O596 In585 2.294 . S
O596 C589 1.240 . S
O597 In585 2.326 . S
O597 C589 1.252 . S
In598 O599 2.294 . S
In598 O600 2.326 . S
In598 O604 2.266 . S
In598 O605 2.326 . S
In598 O606 2.266 . S
In598 O607 2.326 . S
In598 O609 2.294 . S
In598 O610 2.326 . S
O599 In598 2.294 . S
O599 C608 1.240 . S
O600 In598 2.326 . S
O600 C608 1.252 . S
C601 O604 1.252 . S
C601 O605 1.260 . S
C602 O609 1.240 . S
C602 O610 1.252 . S
C603 O606 1.252 . S
C603 O607 1.260 . S
O604 In598 2.266 . S
O604 C601 1.252 . S
O605 In598 2.326 . S
O605 C601 1.260 . S
O606 In598 2.266 . S
O606 C603 1.252 . S
O607 In598 2.326 . S
O607 C603 1.260 . S
C608 O599 1.240 . S
C608 O600 1.252 . S
O609 In598 2.294 . S
O609 C602 1.240 . S
O610 In598 2.326 . S
O610 C602 1.252 . S
In611 O612 2.294 . S
In611 O613 2.326 . S
In611 O617 2.266 . S
In611 O618 2.326 . S
In611 O619 2.266 . S
In611 O620 2.326 . S
In611 O622 2.294 . S
In611 O623 2.326 . S
O612 In611 2.294 . S
O612 C621 1.240 . S
O613 In611 2.326 . S
O613 C621 1.252 . S
C614 O617 1.252 . S
C614 O618 1.260 . S
C615 O622 1.240 . S
C615 O623 1.252 . S
C616 O619 1.252 . S
C616 O620 1.260 . S
O617 In611 2.266 . S
O617 C614 1.252 . S
O618 In611 2.326 . S
O618 C614 1.260 . S
O619 In611 2.266 . S
O619 C616 1.252 . S
O620 In611 2.326 . S
O620 C616 1.260 . S
C621 O612 1.240 . S
C621 O613 1.252 . S
O622 In611 2.294 . S
O622 C615 1.240 . S
O623 In611 2.326 . S
O623 C615 1.252 . S
In624 O625 2.294 . S
In624 O626 2.326 . S
In624 O630 2.266 . S
In624 O631 2.326 . S
In624 O632 2.266 . S
In624 O633 2.326 . S
In624 O635 2.294 . S
In624 O636 2.326 . S
O625 In624 2.294 . S
O625 C634 1.240 . S
O626 In624 2.326 . S
O626 C634 1.252 . S
C627 O630 1.252 . S
C627 O631 1.260 . S
C628 O635 1.240 . S
C628 O636 1.252 . S
C629 O632 1.252 . S
C629 O633 1.260 . S
O630 In624 2.266 . S
O630 C627 1.252 . S
O631 In624 2.326 . S
O631 C627 1.260 . S
O632 In624 2.266 . S
O632 C629 1.252 . S
O633 In624 2.326 . S
O633 C629 1.260 . S
C634 O625 1.240 . S
C634 O626 1.252 . S
O635 In624 2.294 . S
O635 C628 1.240 . S
O636 In624 2.326 . S
O636 C628 1.252 . S
In637 O638 2.294 . S
In637 O639 2.326 . S
In637 O643 2.266 . S
In637 O644 2.326 . S
In637 O645 2.266 . S
In637 O646 2.326 . S
In637 O648 2.294 . S
In637 O649 2.326 . S
O638 In637 2.294 . S
O638 C647 1.240 . S
O639 In637 2.326 . S
O639 C647 1.252 . S
C640 O643 1.252 . S
C640 O644 1.260 . S
C641 O648 1.240 . S
C641 O649 1.252 . S
C642 O645 1.252 . S
C642 O646 1.260 . S
O643 In637 2.266 . S
O643 C640 1.252 . S
O644 In637 2.326 . S
O644 C640 1.260 . S
O645 In637 2.266 . S
O645 C642 1.252 . S
O646 In637 2.326 . S
O646 C642 1.260 . S
C647 O638 1.240 . S
C647 O639 1.252 . S
O648 In637 2.294 . S
O648 C641 1.240 . S
O649 In637 2.326 . S
O649 C641 1.252 . S
In650 O651 2.294 . S
In650 O652 2.326 . S
In650 O656 2.266 . S
In650 O657 2.326 . S
In650 O658 2.266 . S
In650 O659 2.326 . S
In650 O661 2.294 . S
In650 O662 2.326 . S
O651 In650 2.294 . S
O651 C660 1.240 . S
O652 In650 2.326 . S
O652 C660 1.252 . S
C653 O656 1.252 . S
C653 O657 1.260 . S
C654 O661 1.240 . S
C654 O662 1.252 . S
C655 O658 1.252 . S
C655 O659 1.260 . S
O656 In650 2.266 . S
O656 C653 1.252 . S
O657 In650 2.326 . S
O657 C653 1.260 . S
O658 In650 2.266 . S
O658 C655 1.252 . S
O659 In650 2.326 . S
O659 C655 1.260 . S
C660 O651 1.240 . S
C660 O652 1.252 . S
O661 In650 2.294 . S
O661 C654 1.240 . S
O662 In650 2.326 . S
O662 C654 1.252 . S
In663 O664 2.294 . S
In663 O665 2.326 . S
In663 O669 2.266 . S
In663 O670 2.326 . S
In663 O671 2.266 . S
In663 O672 2.326 . S
In663 O674 2.294 . S
In663 O675 2.326 . S
O664 In663 2.294 . S
O664 C673 1.240 . S
O665 In663 2.326 . S
O665 C673 1.252 . S
C666 O669 1.252 . S
C666 O670 1.260 . S
C667 O674 1.240 . S
C667 O675 1.252 . S
C668 O671 1.252 . S
C668 O672 1.260 . S
O669 In663 2.266 . S
O669 C666 1.252 . S
O670 In663 2.326 . S
O670 C666 1.260 . S
O671 In663 2.266 . S
O671 C668 1.252 . S
O672 In663 2.326 . S
O672 C668 1.260 . S
C673 O664 1.240 . S
C673 O665 1.252 . S
O674 In663 2.294 . S
O674 C667 1.240 . S
O675 In663 2.326 . S
O675 C667 1.252 . S
In676 O677 2.294 . S
In676 O678 2.326 . S
In676 O682 2.266 . S
In676 O683 2.326 . S
In676 O684 2.266 . S
In676 O685 2.326 . S
In676 O687 2.294 . S
In676 O688 2.326 . S
O677 In676 2.294 . S
O677 C686 1.240 . S
O678 In676 2.326 . S
O678 C686 1.252 . S
C679 O682 1.252 . S
C679 O683 1.260 . S
C680 O687 1.240 . S
C680 O688 1.252 . S
C681 O684 1.252 . S
C681 O685 1.260 . S
O682 In676 2.266 . S
O682 C679 1.252 . S
O683 In676 2.326 . S
O683 C679 1.260 . S
O684 In676 2.266 . S
O684 C681 1.252 . S
O685 In676 2.326 . S
O685 C681 1.260 . S
C686 O677 1.240 . S
C686 O678 1.252 . S
O687 In676 2.294 . S
O687 C680 1.240 . S
O688 In676 2.326 . S
O688 C680 1.252 . S
In689 O690 2.294 . S
In689 O691 2.326 . S
In689 O695 2.266 . S
In689 O696 2.326 . S
In689 O697 2.266 . S
In689 O698 2.326 . S
In689 O700 2.294 . S
In689 O701 2.326 . S
O690 In689 2.294 . S
O690 C699 1.240 . S
O691 In689 2.326 . S
O691 C699 1.252 . S
C692 O695 1.252 . S
C692 O696 1.260 . S
C693 O700 1.240 . S
C693 O701 1.252 . S
C694 O697 1.252 . S
C694 O698 1.260 . S
O695 In689 2.266 . S
O695 C692 1.252 . S
O696 In689 2.326 . S
O696 C692 1.260 . S
O697 In689 2.266 . S
O697 C694 1.252 . S
O698 In689 2.326 . S
O698 C694 1.260 . S
C699 O690 1.240 . S
C699 O691 1.252 . S
O700 In689 2.294 . S
O700 C693 1.240 . S
O701 In689 2.326 . S
O701 C693 1.252 . S
In702 O703 2.294 . S
In702 O704 2.326 . S
In702 O708 2.266 . S
In702 O709 2.326 . S
In702 O710 2.266 . S
In702 O711 2.326 . S
In702 O713 2.294 . S
In702 O714 2.326 . S
O703 In702 2.294 . S
O703 C712 1.240 . S
O704 In702 2.326 . S
O704 C712 1.252 . S
C705 O708 1.252 . S
C705 O709 1.260 . S
C706 O713 1.240 . S
C706 O714 1.252 . S
C707 O710 1.252 . S
C707 O711 1.260 . S
O708 In702 2.266 . S
O708 C705 1.252 . S
O709 In702 2.326 . S
O709 C705 1.260 . S
O710 In702 2.266 . S
O710 C707 1.252 . S
O711 In702 2.326 . S
O711 C707 1.260 . S
C712 O703 1.240 . S
C712 O704 1.252 . S
O713 In702 2.294 . S
O713 C706 1.240 . S
O714 In702 2.326 . S
O714 C706 1.252 . S
In715 O716 2.294 . S
In715 O717 2.326 . S
In715 O721 2.266 . S
In715 O722 2.326 . S
In715 O723 2.266 . S
In715 O724 2.326 . S
In715 O726 2.294 . S
In715 O727 2.326 . S
O716 In715 2.294 . S
O716 C725 1.240 . S
O717 In715 2.326 . S
O717 C725 1.252 . S
C718 O721 1.252 . S
C718 O722 1.260 . S
C719 O726 1.240 . S
C719 O727 1.252 . S
C720 O723 1.252 . S
C720 O724 1.260 . S
O721 In715 2.266 . S
O721 C718 1.252 . S
O722 In715 2.326 . S
O722 C718 1.260 . S
O723 In715 2.266 . S
O723 C720 1.252 . S
O724 In715 2.326 . S
O724 C720 1.260 . S
C725 O716 1.240 . S
C725 O717 1.252 . S
O726 In715 2.294 . S
O726 C719 1.240 . S
O727 In715 2.326 . S
O727 C719 1.252 . S
In728 O729 2.294 . S
In728 O730 2.326 . S
In728 O734 2.266 . S
In728 O735 2.326 . S
In728 O736 2.266 . S
In728 O737 2.326 . S
In728 O739 2.294 . S
In728 O740 2.326 . S
O729 In728 2.294 . S
O729 C738 1.240 . S
O730 In728 2.326 . S
O730 C738 1.252 . S
C731 O734 1.252 . S
C731 O735 1.260 . S
C732 O739 1.240 . S
C732 O740 1.252 . S
C733 O736 1.252 . S
C733 O737 1.260 . S
O734 In728 2.266 . S
O734 C731 1.252 . S
O735 In728 2.326 . S
O735 C731 1.260 . S
O736 In728 2.266 . S
O736 C733 1.252 . S
O737 In728 2.326 . S
O737 C733 1.260 . S
C738 O729 1.240 . S
C738 O730 1.252 . S
O739 In728 2.294 . S
O739 C732 1.240 . S
O740 In728 2.326 . S
O740 C732 1.252 . S
In741 O742 2.294 . S
In741 O743 2.326 . S
In741 O747 2.266 . S
In741 O748 2.326 . S
In741 O749 2.266 . S
In741 O750 2.326 . S
In741 O752 2.294 . S
In741 O753 2.326 . S
O742 In741 2.294 . S
O742 C751 1.240 . S
O743 In741 2.326 . S
O743 C751 1.252 . S
C744 O747 1.252 . S
C744 O748 1.260 . S
C745 O752 1.240 . S
C745 O753 1.252 . S
C746 O749 1.252 . S
C746 O750 1.260 . S
O747 In741 2.266 . S
O747 C744 1.252 . S
O748 In741 2.326 . S
O748 C744 1.260 . S
O749 In741 2.266 . S
O749 C746 1.252 . S
O750 In741 2.326 . S
O750 C746 1.260 . S
C751 O742 1.240 . S
C751 O743 1.252 . S
O752 In741 2.294 . S
O752 C745 1.240 . S
O753 In741 2.326 . S
O753 C745 1.252 . S
In754 O755 2.294 . S
In754 O756 2.326 . S
In754 O760 2.266 . S
In754 O761 2.326 . S
In754 O762 2.266 . S
In754 O763 2.326 . S
In754 O765 2.294 . S
In754 O766 2.326 . S
O755 In754 2.294 . S
O755 C764 1.240 . S
O756 In754 2.326 . S
O756 C764 1.252 . S
C757 O760 1.252 . S
C757 O761 1.260 . S
C758 O765 1.240 . S
C758 O766 1.252 . S
C759 O762 1.252 . S
C759 O763 1.260 . S
O760 In754 2.266 . S
O760 C757 1.252 . S
O761 In754 2.326 . S
O761 C757 1.260 . S
O762 In754 2.266 . S
O762 C759 1.252 . S
O763 In754 2.326 . S
O763 C759 1.260 . S
C764 O755 1.240 . S
C764 O756 1.252 . S
O765 In754 2.294 . S
O765 C758 1.240 . S
O766 In754 2.326 . S
O766 C758 1.252 . S
In767 O768 2.294 . S
In767 O769 2.326 . S
In767 O773 2.266 . S
In767 O774 2.326 . S
In767 O775 2.266 . S
In767 O776 2.326 . S
In767 O778 2.294 . S
In767 O779 2.326 . S
O768 In767 2.294 . S
O768 C777 1.240 . S
O769 In767 2.326 . S
O769 C777 1.252 . S
C770 O773 1.252 . S
C770 O774 1.260 . S
C771 O778 1.240 . S
C771 O779 1.252 . S
C772 O775 1.252 . S
C772 O776 1.260 . S
O773 In767 2.266 . S
O773 C770 1.252 . S
O774 In767 2.326 . S
O774 C770 1.260 . S
O775 In767 2.266 . S
O775 C772 1.252 . S
O776 In767 2.326 . S
O776 C772 1.260 . S
C777 O768 1.240 . S
C777 O769 1.252 . S
O778 In767 2.294 . S
O778 C771 1.240 . S
O779 In767 2.326 . S
O779 C771 1.252 . S
In780 O781 2.294 . S
In780 O782 2.326 . S
In780 O786 2.266 . S
In780 O787 2.326 . S
In780 O788 2.266 . S
In780 O789 2.326 . S
In780 O791 2.294 . S
In780 O792 2.326 . S
O781 In780 2.294 . S
O781 C790 1.240 . S
O782 In780 2.326 . S
O782 C790 1.252 . S
C783 O786 1.252 . S
C783 O787 1.260 . S
C784 O791 1.240 . S
C784 O792 1.252 . S
C785 O788 1.252 . S
C785 O789 1.260 . S
O786 In780 2.266 . S
O786 C783 1.252 . S
O787 In780 2.326 . S
O787 C783 1.260 . S
O788 In780 2.266 . S
O788 C785 1.252 . S
O789 In780 2.326 . S
O789 C785 1.260 . S
C790 O781 1.240 . S
C790 O782 1.252 . S
O791 In780 2.294 . S
O791 C784 1.240 . S
O792 In780 2.326 . S
O792 C784 1.252 . S
In793 O794 2.294 . S
In793 O795 2.326 . S
In793 O799 2.266 . S
In793 O800 2.326 . S
In793 O801 2.266 . S
In793 O802 2.326 . S
In793 O804 2.294 . S
In793 O805 2.326 . S
O794 In793 2.294 . S
O794 C803 1.240 . S
O795 In793 2.326 . S
O795 C803 1.252 . S
C796 O799 1.252 . S
C796 O800 1.260 . S
C797 O804 1.240 . S
C797 O805 1.252 . S
C798 O801 1.252 . S
C798 O802 1.260 . S
O799 In793 2.266 . S
O799 C796 1.252 . S
O800 In793 2.326 . S
O800 C796 1.260 . S
O801 In793 2.266 . S
O801 C798 1.252 . S
O802 In793 2.326 . S
O802 C798 1.260 . S
C803 O794 1.240 . S
C803 O795 1.252 . S
O804 In793 2.294 . S
O804 C797 1.240 . S
O805 In793 2.326 . S
O805 C797 1.252 . S
In806 O807 2.294 . S
In806 O808 2.326 . S
In806 O812 2.266 . S
In806 O813 2.326 . S
In806 O814 2.266 . S
In806 O815 2.326 . S
In806 O817 2.294 . S
In806 O818 2.326 . S
O807 In806 2.294 . S
O807 C816 1.240 . S
O808 In806 2.326 . S
O808 C816 1.252 . S
C809 O812 1.252 . S
C809 O813 1.260 . S
C810 O817 1.240 . S
C810 O818 1.252 . S
C811 O814 1.252 . S
C811 O815 1.260 . S
O812 In806 2.266 . S
O812 C809 1.252 . S
O813 In806 2.326 . S
O813 C809 1.260 . S
O814 In806 2.266 . S
O814 C811 1.252 . S
O815 In806 2.326 . S
O815 C811 1.260 . S
C816 O807 1.240 . S
C816 O808 1.252 . S
O817 In806 2.294 . S
O817 C810 1.240 . S
O818 In806 2.326 . S
O818 C810 1.252 . S
In819 O820 2.294 . S
In819 O821 2.326 . S
In819 O825 2.266 . S
In819 O826 2.326 . S
In819 O827 2.266 . S
In819 O828 2.326 . S
In819 O830 2.294 . S
In819 O831 2.326 . S
O820 In819 2.294 . S
O820 C829 1.240 . S
O821 In819 2.326 . S
O821 C829 1.252 . S
C822 O825 1.252 . S
C822 O826 1.260 . S
C823 O830 1.240 . S
C823 O831 1.252 . S
C824 O827 1.252 . S
C824 O828 1.260 . S
O825 In819 2.266 . S
O825 C822 1.252 . S
O826 In819 2.326 . S
O826 C822 1.260 . S
O827 In819 2.266 . S
O827 C824 1.252 . S
O828 In819 2.326 . S
O828 C824 1.260 . S
C829 O820 1.240 . S
C829 O821 1.252 . S
O830 In819 2.294 . S
O830 C823 1.240 . S
O831 In819 2.326 . S
O831 C823 1.252 . S
In832 O833 2.294 . S
In832 O834 2.326 . S
In832 O838 2.266 . S
In832 O839 2.326 . S
In832 O840 2.266 . S
In832 O841 2.326 . S
In832 O843 2.294 . S
In832 O844 2.326 . S
O833 In832 2.294 . S
O833 C842 1.240 . S
O834 In832 2.326 . S
O834 C842 1.252 . S
C835 O838 1.252 . S
C835 O839 1.260 . S
C836 O843 1.240 . S
C836 O844 1.252 . S
C837 O840 1.252 . S
C837 O841 1.260 . S
O838 In832 2.266 . S
O838 C835 1.252 . S
O839 In832 2.326 . S
O839 C835 1.260 . S
O840 In832 2.266 . S
O840 C837 1.252 . S
O841 In832 2.326 . S
O841 C837 1.260 . S
C842 O833 1.240 . S
C842 O834 1.252 . S
O843 In832 2.294 . S
O843 C836 1.240 . S
O844 In832 2.326 . S
O844 C836 1.252 . S
In845 O846 2.294 . S
In845 O847 2.326 . S
In845 O851 2.266 . S
In845 O852 2.326 . S
In845 O853 2.266 . S
In845 O854 2.326 . S
In845 O856 2.294 . S
In845 O857 2.326 . S
O846 In845 2.294 . S
O846 C855 1.240 . S
O847 In845 2.326 . S
O847 C855 1.252 . S
C848 O851 1.252 . S
C848 O852 1.260 . S
C849 O856 1.240 . S
C849 O857 1.252 . S
C850 O853 1.252 . S
C850 O854 1.260 . S
O851 In845 2.266 . S
O851 C848 1.252 . S
O852 In845 2.326 . S
O852 C848 1.260 . S
O853 In845 2.266 . S
O853 C850 1.252 . S
O854 In845 2.326 . S
O854 C850 1.260 . S
C855 O846 1.240 . S
C855 O847 1.252 . S
O856 In845 2.294 . S
O856 C849 1.240 . S
O857 In845 2.326 . S
O857 C849 1.252 . S
In858 O859 2.294 . S
In858 O860 2.326 . S
In858 O864 2.266 . S
In858 O865 2.326 . S
In858 O866 2.266 . S
In858 O867 2.326 . S
In858 O869 2.294 . S
In858 O870 2.326 . S
O859 In858 2.294 . S
O859 C868 1.240 . S
O860 In858 2.326 . S
O860 C868 1.252 . S
C861 O864 1.252 . S
C861 O865 1.260 . S
C862 O869 1.240 . S
C862 O870 1.252 . S
C863 O866 1.252 . S
C863 O867 1.260 . S
O864 In858 2.266 . S
O864 C861 1.252 . S
O865 In858 2.326 . S
O865 C861 1.260 . S
O866 In858 2.266 . S
O866 C863 1.252 . S
O867 In858 2.326 . S
O867 C863 1.260 . S
C868 O859 1.240 . S
C868 O860 1.252 . S
O869 In858 2.294 . S
O869 C862 1.240 . S
O870 In858 2.326 . S
O870 C862 1.252 . S
In871 O872 2.294 . S
In871 O873 2.326 . S
In871 O877 2.266 . S
In871 O878 2.326 . S
In871 O879 2.266 . S
In871 O880 2.326 . S
In871 O882 2.294 . S
In871 O883 2.326 . S
O872 In871 2.294 . S
O872 C881 1.240 . S
O873 In871 2.326 . S
O873 C881 1.252 . S
C874 O877 1.252 . S
C874 O878 1.260 . S
C875 O882 1.240 . S
C875 O883 1.252 . S
C876 O879 1.252 . S
C876 O880 1.260 . S
O877 In871 2.266 . S
O877 C874 1.252 . S
O878 In871 2.326 . S
O878 C874 1.260 . S
O879 In871 2.266 . S
O879 C876 1.252 . S
O880 In871 2.326 . S
O880 C876 1.260 . S
C881 O872 1.240 . S
C881 O873 1.252 . S
O882 In871 2.294 . S
O882 C875 1.240 . S
O883 In871 2.326 . S
O883 C875 1.252 . S
In884 O885 2.294 . S
In884 O886 2.326 . S
In884 O890 2.266 . S
In884 O891 2.326 . S
In884 O892 2.266 . S
In884 O893 2.326 . S
In884 O895 2.294 . S
In884 O896 2.326 . S
O885 In884 2.294 . S
O885 C894 1.240 . S
O886 In884 2.326 . S
O886 C894 1.252 . S
C887 O890 1.252 . S
C887 O891 1.260 . S
C888 O895 1.240 . S
C888 O896 1.252 . S
C889 O892 1.252 . S
C889 O893 1.260 . S
O890 In884 2.266 . S
O890 C887 1.252 . S
O891 In884 2.326 . S
O891 C887 1.260 . S
O892 In884 2.266 . S
O892 C889 1.252 . S
O893 In884 2.326 . S
O893 C889 1.260 . S
C894 O885 1.240 . S
C894 O886 1.252 . S
O895 In884 2.294 . S
O895 C888 1.240 . S
O896 In884 2.326 . S
O896 C888 1.252 . S
In897 O898 2.294 . S
In897 O899 2.326 . S
In897 O903 2.266 . S
In897 O904 2.326 . S
In897 O905 2.266 . S
In897 O906 2.326 . S
In897 O908 2.294 . S
In897 O909 2.326 . S
O898 In897 2.294 . S
O898 C907 1.240 . S
O899 In897 2.326 . S
O899 C907 1.252 . S
C900 O903 1.252 . S
C900 O904 1.260 . S
C901 O908 1.240 . S
C901 O909 1.252 . S
C902 O905 1.252 . S
C902 O906 1.260 . S
O903 In897 2.266 . S
O903 C900 1.252 . S
O904 In897 2.326 . S
O904 C900 1.260 . S
O905 In897 2.266 . S
O905 C902 1.252 . S
O906 In897 2.326 . S
O906 C902 1.260 . S
C907 O898 1.240 . S
C907 O899 1.252 . S
O908 In897 2.294 . S
O908 C901 1.240 . S
O909 In897 2.326 . S
O909 C901 1.252 . S
In910 O911 2.294 . S
In910 O912 2.326 . S
In910 O916 2.266 . S
In910 O917 2.326 . S
In910 O918 2.266 . S
In910 O919 2.326 . S
In910 O921 2.294 . S
In910 O922 2.326 . S
O911 In910 2.294 . S
O911 C920 1.240 . S
O912 In910 2.326 . S
O912 C920 1.252 . S
C913 O916 1.252 . S
C913 O917 1.260 . S
C914 O921 1.240 . S
C914 O922 1.252 . S
C915 O918 1.252 . S
C915 O919 1.260 . S
O916 In910 2.266 . S
O916 C913 1.252 . S
O917 In910 2.326 . S
O917 C913 1.260 . S
O918 In910 2.266 . S
O918 C915 1.252 . S
O919 In910 2.326 . S
O919 C915 1.260 . S
C920 O911 1.240 . S
C920 O912 1.252 . S
O921 In910 2.294 . S
O921 C914 1.240 . S
O922 In910 2.326 . S
O922 C914 1.252 . S
In923 O924 2.294 . S
In923 O925 2.326 . S
In923 O929 2.266 . S
In923 O930 2.326 . S
In923 O931 2.266 . S
In923 O932 2.326 . S
In923 O934 2.294 . S
In923 O935 2.326 . S
O924 In923 2.294 . S
O924 C933 1.240 . S
O925 In923 2.326 . S
O925 C933 1.252 . S
C926 O929 1.252 . S
C926 O930 1.260 . S
C927 O934 1.240 . S
C927 O935 1.252 . S
C928 O931 1.252 . S
C928 O932 1.260 . S
O929 In923 2.266 . S
O929 C926 1.252 . S
O930 In923 2.326 . S
O930 C926 1.260 . S
O931 In923 2.266 . S
O931 C928 1.252 . S
O932 In923 2.326 . S
O932 C928 1.260 . S
C933 O924 1.240 . S
C933 O925 1.252 . S
O934 In923 2.294 . S
O934 C927 1.240 . S
O935 In923 2.326 . S
O935 C927 1.252 . S
In936 O937 2.294 . S
In936 O938 2.326 . S
In936 O942 2.266 . S
In936 O943 2.326 . S
In936 O944 2.266 . S
In936 O945 2.326 . S
In936 O947 2.294 . S
In936 O948 2.326 . S
O937 In936 2.294 . S
O937 C946 1.240 . S
O938 In936 2.326 . S
O938 C946 1.252 . S
C939 O942 1.252 . S
C939 O943 1.260 . S
C940 O947 1.240 . S
C940 O948 1.252 . S
C941 O944 1.252 . S
C941 O945 1.260 . S
O942 In936 2.266 . S
O942 C939 1.252 . S
O943 In936 2.326 . S
O943 C939 1.260 . S
O944 In936 2.266 . S
O944 C941 1.252 . S
O945 In936 2.326 . S
O945 C941 1.260 . S
C946 O937 1.240 . S
C946 O938 1.252 . S
O947 In936 2.294 . S
O947 C940 1.240 . S
O948 In936 2.326 . S
O948 C940 1.252 . S
In949 O950 2.294 . S
In949 O951 2.326 . S
In949 O955 2.266 . S
In949 O956 2.326 . S
In949 O957 2.266 . S
In949 O958 2.326 . S
In949 O960 2.294 . S
In949 O961 2.326 . S
O950 In949 2.294 . S
O950 C959 1.240 . S
O951 In949 2.326 . S
O951 C959 1.252 . S
C952 O955 1.252 . S
C952 O956 1.260 . S
C953 O960 1.240 . S
C953 O961 1.252 . S
C954 O957 1.252 . S
C954 O958 1.260 . S
O955 In949 2.266 . S
O955 C952 1.252 . S
O956 In949 2.326 . S
O956 C952 1.260 . S
O957 In949 2.266 . S
O957 C954 1.252 . S
O958 In949 2.326 . S
O958 C954 1.260 . S
C959 O950 1.240 . S
C959 O951 1.252 . S
O960 In949 2.294 . S
O960 C953 1.240 . S
O961 In949 2.326 . S
O961 C953 1.252 . S
In962 O963 2.294 . S
In962 O964 2.326 . S
In962 O968 2.266 . S
In962 O969 2.326 . S
In962 O970 2.266 . S
In962 O971 2.326 . S
In962 O973 2.294 . S
In962 O974 2.326 . S
O963 In962 2.294 . S
O963 C972 1.240 . S
O964 In962 2.326 . S
O964 C972 1.252 . S
C965 O968 1.252 . S
C965 O969 1.260 . S
C966 O973 1.240 . S
C966 O974 1.252 . S
C967 O970 1.252 . S
C967 O971 1.260 . S
O968 In962 2.266 . S
O968 C965 1.252 . S
O969 In962 2.326 . S
O969 C965 1.260 . S
O970 In962 2.266 . S
O970 C967 1.252 . S
O971 In962 2.326 . S
O971 C967 1.260 . S
C972 O963 1.240 . S
C972 O964 1.252 . S
O973 In962 2.294 . S
O973 C966 1.240 . S
O974 In962 2.326 . S
O974 C966 1.252 . S
In975 O976 2.294 . S
In975 O977 2.326 . S
In975 O981 2.266 . S
In975 O982 2.326 . S
In975 O983 2.266 . S
In975 O984 2.326 . S
In975 O986 2.294 . S
In975 O987 2.326 . S
O976 In975 2.294 . S
O976 C985 1.240 . S
O977 In975 2.326 . S
O977 C985 1.252 . S
C978 O981 1.252 . S
C978 O982 1.260 . S
C979 O986 1.240 . S
C979 O987 1.252 . S
C980 O983 1.252 . S
C980 O984 1.260 . S
O981 In975 2.266 . S
O981 C978 1.252 . S
O982 In975 2.326 . S
O982 C978 1.260 . S
O983 In975 2.266 . S
O983 C980 1.252 . S
O984 In975 2.326 . S
O984 C980 1.260 . S
C985 O976 1.240 . S
C985 O977 1.252 . S
O986 In975 2.294 . S
O986 C979 1.240 . S
O987 In975 2.326 . S
O987 C979 1.252 . S
In988 O989 2.294 . S
In988 O990 2.326 . S
In988 O994 2.266 . S
In988 O995 2.326 . S
In988 O996 2.266 . S
In988 O997 2.326 . S
In988 O999 2.294 . S
In988 O1000 2.326 . S
O989 In988 2.294 . S
O989 C998 1.240 . S
O990 In988 2.326 . S
O990 C998 1.252 . S
C991 O994 1.252 . S
C991 O995 1.260 . S
C992 O999 1.240 . S
C992 O1000 1.252 . S
C993 O996 1.252 . S
C993 O997 1.260 . S
O994 In988 2.266 . S
O994 C991 1.252 . S
O995 In988 2.326 . S
O995 C991 1.260 . S
O996 In988 2.266 . S
O996 C993 1.252 . S
O997 In988 2.326 . S
O997 C993 1.260 . S
C998 O989 1.240 . S
C998 O990 1.252 . S
O999 In988 2.294 . S
O999 C992 1.240 . S
O1000 In988 2.326 . S
O1000 C992 1.252 . S
In1001 O1002 2.294 . S
In1001 O1003 2.326 . S
In1001 O1007 2.266 . S
In1001 O1008 2.326 . S
In1001 O1009 2.266 . S
In1001 O1010 2.326 . S
In1001 O1012 2.294 . S
In1001 O1013 2.326 . S
O1002 In1001 2.294 . S
O1002 C1011 1.240 . S
O1003 In1001 2.326 . S
O1003 C1011 1.252 . S
C1004 O1007 1.252 . S
C1004 O1008 1.260 . S
C1005 O1012 1.240 . S
C1005 O1013 1.252 . S
C1006 O1009 1.252 . S
C1006 O1010 1.260 . S
O1007 In1001 2.266 . S
O1007 C1004 1.252 . S
O1008 In1001 2.326 . S
O1008 C1004 1.260 . S
O1009 In1001 2.266 . S
O1009 C1006 1.252 . S
O1010 In1001 2.326 . S
O1010 C1006 1.260 . S
C1011 O1002 1.240 . S
C1011 O1003 1.252 . S
O1012 In1001 2.294 . S
O1012 C1005 1.240 . S
O1013 In1001 2.326 . S
O1013 C1005 1.252 . S
In1014 O1015 2.294 . S
In1014 O1016 2.326 . S
In1014 O1020 2.266 . S
In1014 O1021 2.326 . S
In1014 O1022 2.266 . S
In1014 O1023 2.326 . S
In1014 O1025 2.294 . S
In1014 O1026 2.326 . S
O1015 In1014 2.294 . S
O1015 C1024 1.240 . S
O1016 In1014 2.326 . S
O1016 C1024 1.252 . S
C1017 O1020 1.252 . S
C1017 O1021 1.260 . S
C1018 O1025 1.240 . S
C1018 O1026 1.252 . S
C1019 O1022 1.252 . S
C1019 O1023 1.260 . S
O1020 In1014 2.266 . S
O1020 C1017 1.252 . S
O1021 In1014 2.326 . S
O1021 C1017 1.260 . S
O1022 In1014 2.266 . S
O1022 C1019 1.252 . S
O1023 In1014 2.326 . S
O1023 C1019 1.260 . S
C1024 O1015 1.240 . S
C1024 O1016 1.252 . S
O1025 In1014 2.294 . S
O1025 C1018 1.240 . S
O1026 In1014 2.326 . S
O1026 C1018 1.252 . S
In1027 O1028 2.294 . S
In1027 O1029 2.326 . S
In1027 O1033 2.266 . S
In1027 O1034 2.326 . S
In1027 O1035 2.266 . S
In1027 O1036 2.326 . S
In1027 O1038 2.294 . S
In1027 O1039 2.326 . S
O1028 In1027 2.294 . S
O1028 C1037 1.240 . S
O1029 In1027 2.326 . S
O1029 C1037 1.252 . S
C1030 O1033 1.252 . S
C1030 O1034 1.260 . S
C1031 O1038 1.240 . S
C1031 O1039 1.252 . S
C1032 O1035 1.252 . S
C1032 O1036 1.260 . S
O1033 In1027 2.266 . S
O1033 C1030 1.252 . S
O1034 In1027 2.326 . S
O1034 C1030 1.260 . S
O1035 In1027 2.266 . S
O1035 C1032 1.252 . S
O1036 In1027 2.326 . S
O1036 C1032 1.260 . S
C1037 O1028 1.240 . S
C1037 O1029 1.252 . S
O1038 In1027 2.294 . S
O1038 C1031 1.240 . S
O1039 In1027 2.326 . S
O1039 C1031 1.252 . S
In1040 O1041 2.294 . S
In1040 O1042 2.326 . S
In1040 O1046 2.266 . S
In1040 O1047 2.326 . S
In1040 O1048 2.266 . S
In1040 O1049 2.326 . S
In1040 O1051 2.294 . S
In1040 O1052 2.326 . S
O1041 In1040 2.294 . S
O1041 C1050 1.240 . S
O1042 In1040 2.326 . S
O1042 C1050 1.252 . S
C1043 O1046 1.252 . S
C1043 O1047 1.260 . S
C1044 O1051 1.240 . S
C1044 O1052 1.252 . S
C1045 O1048 1.252 . S
C1045 O1049 1.260 . S
O1046 In1040 2.266 . S
O1046 C1043 1.252 . S
O1047 In1040 2.326 . S
O1047 C1043 1.260 . S
O1048 In1040 2.266 . S
O1048 C1045 1.252 . S
O1049 In1040 2.326 . S
O1049 C1045 1.260 . S
C1050 O1041 1.240 . S
C1050 O1042 1.252 . S
O1051 In1040 2.294 . S
O1051 C1044 1.240 . S
O1052 In1040 2.326 . S
O1052 C1044 1.252 . S
In1053 O1054 2.294 . S
In1053 O1055 2.326 . S
In1053 O1059 2.266 . S
In1053 O1060 2.326 . S
In1053 O1061 2.266 . S
In1053 O1062 2.326 . S
In1053 O1064 2.294 . S
In1053 O1065 2.326 . S
O1054 In1053 2.294 . S
O1054 C1063 1.240 . S
O1055 In1053 2.326 . S
O1055 C1063 1.252 . S
C1056 O1059 1.252 . S
C1056 O1060 1.260 . S
C1057 O1064 1.240 . S
C1057 O1065 1.252 . S
C1058 O1061 1.252 . S
C1058 O1062 1.260 . S
O1059 In1053 2.266 . S
O1059 C1056 1.252 . S
O1060 In1053 2.326 . S
O1060 C1056 1.260 . S
O1061 In1053 2.266 . S
O1061 C1058 1.252 . S
O1062 In1053 2.326 . S
O1062 C1058 1.260 . S
C1063 O1054 1.240 . S
C1063 O1055 1.252 . S
O1064 In1053 2.294 . S
O1064 C1057 1.240 . S
O1065 In1053 2.326 . S
O1065 C1057 1.252 . S
In1066 O1067 2.294 . S
In1066 O1068 2.326 . S
In1066 O1072 2.266 . S
In1066 O1073 2.326 . S
In1066 O1074 2.266 . S
In1066 O1075 2.326 . S
In1066 O1077 2.294 . S
In1066 O1078 2.326 . S
O1067 In1066 2.294 . S
O1067 C1076 1.240 . S
O1068 In1066 2.326 . S
O1068 C1076 1.252 . S
C1069 O1072 1.252 . S
C1069 O1073 1.260 . S
C1070 O1077 1.240 . S
C1070 O1078 1.252 . S
C1071 O1074 1.252 . S
C1071 O1075 1.260 . S
O1072 In1066 2.266 . S
O1072 C1069 1.252 . S
O1073 In1066 2.326 . S
O1073 C1069 1.260 . S
O1074 In1066 2.266 . S
O1074 C1071 1.252 . S
O1075 In1066 2.326 . S
O1075 C1071 1.260 . S
C1076 O1067 1.240 . S
C1076 O1068 1.252 . S
O1077 In1066 2.294 . S
O1077 C1070 1.240 . S
O1078 In1066 2.326 . S
O1078 C1070 1.252 . S
In1079 O1080 2.294 . S
In1079 O1081 2.326 . S
In1079 O1085 2.266 . S
In1079 O1086 2.326 . S
In1079 O1087 2.266 . S
In1079 O1088 2.326 . S
In1079 O1090 2.294 . S
In1079 O1091 2.326 . S
O1080 In1079 2.294 . S
O1080 C1089 1.240 . S
O1081 In1079 2.326 . S
O1081 C1089 1.252 . S
C1082 O1085 1.252 . S
C1082 O1086 1.260 . S
C1083 O1090 1.240 . S
C1083 O1091 1.252 . S
C1084 O1087 1.252 . S
C1084 O1088 1.260 . S
O1085 In1079 2.266 . S
O1085 C1082 1.252 . S
O1086 In1079 2.326 . S
O1086 C1082 1.260 . S
O1087 In1079 2.266 . S
O1087 C1084 1.252 . S
O1088 In1079 2.326 . S
O1088 C1084 1.260 . S
C1089 O1080 1.240 . S
C1089 O1081 1.252 . S
O1090 In1079 2.294 . S
O1090 C1083 1.240 . S
O1091 In1079 2.326 . S
O1091 C1083 1.252 . S
In1092 O1093 2.294 . S
In1092 O1094 2.326 . S
In1092 O1098 2.266 . S
In1092 O1099 2.326 . S
In1092 O1100 2.266 . S
In1092 O1101 2.326 . S
In1092 O1103 2.294 . S
In1092 O1104 2.326 . S
O1093 In1092 2.294 . S
O1093 C1102 1.240 . S
O1094 In1092 2.326 . S
O1094 C1102 1.252 . S
C1095 O1098 1.252 . S
C1095 O1099 1.260 . S
C1096 O1103 1.240 . S
C1096 O1104 1.252 . S
C1097 O1100 1.252 . S
C1097 O1101 1.260 . S
O1098 In1092 2.266 . S
O1098 C1095 1.252 . S
O1099 In1092 2.326 . S
O1099 C1095 1.260 . S
O1100 In1092 2.266 . S
O1100 C1097 1.252 . S
O1101 In1092 2.326 . S
O1101 C1097 1.260 . S
C1102 O1093 1.240 . S
C1102 O1094 1.252 . S
O1103 In1092 2.294 . S
O1103 C1096 1.240 . S
O1104 In1092 2.326 . S
O1104 C1096 1.252 . S
In1105 O1106 2.294 . S
In1105 O1107 2.326 . S
In1105 O1111 2.266 . S
In1105 O1112 2.326 . S
In1105 O1113 2.266 . S
In1105 O1114 2.326 . S
In1105 O1116 2.294 . S
In1105 O1117 2.326 . S
O1106 In1105 2.294 . S
O1106 C1115 1.240 . S
O1107 In1105 2.326 . S
O1107 C1115 1.252 . S
C1108 O1111 1.252 . S
C1108 O1112 1.260 . S
C1109 O1116 1.240 . S
C1109 O1117 1.252 . S
C1110 O1113 1.252 . S
C1110 O1114 1.260 . S
O1111 In1105 2.266 . S
O1111 C1108 1.252 . S
O1112 In1105 2.326 . S
O1112 C1108 1.260 . S
O1113 In1105 2.266 . S
O1113 C1110 1.252 . S
O1114 In1105 2.326 . S
O1114 C1110 1.260 . S
C1115 O1106 1.240 . S
C1115 O1107 1.252 . S
O1116 In1105 2.294 . S
O1116 C1109 1.240 . S
O1117 In1105 2.326 . S
O1117 C1109 1.252 . S
In1118 O1119 2.294 . S
In1118 O1120 2.326 . S
In1118 O1124 2.266 . S
In1118 O1125 2.326 . S
In1118 O1126 2.266 . S
In1118 O1127 2.326 . S
In1118 O1129 2.294 . S
In1118 O1130 2.326 . S
O1119 In1118 2.294 . S
O1119 C1128 1.240 . S
O1120 In1118 2.326 . S
O1120 C1128 1.252 . S
C1121 O1124 1.252 . S
C1121 O1125 1.260 . S
C1122 O1129 1.240 . S
C1122 O1130 1.252 . S
C1123 O1126 1.252 . S
C1123 O1127 1.260 . S
O1124 In1118 2.266 . S
O1124 C1121 1.252 . S
O1125 In1118 2.326 . S
O1125 C1121 1.260 . S
O1126 In1118 2.266 . S
O1126 C1123 1.252 . S
O1127 In1118 2.326 . S
O1127 C1123 1.260 . S
C1128 O1119 1.240 . S
C1128 O1120 1.252 . S
O1129 In1118 2.294 . S
O1129 C1122 1.240 . S
O1130 In1118 2.326 . S
O1130 C1122 1.252 . S
In1131 O1132 2.294 . S
In1131 O1133 2.326 . S
In1131 O1137 2.266 . S
In1131 O1138 2.326 . S
In1131 O1139 2.266 . S
In1131 O1140 2.326 . S
In1131 O1142 2.294 . S
In1131 O1143 2.326 . S
O1132 In1131 2.294 . S
O1132 C1141 1.240 . S
O1133 In1131 2.326 . S
O1133 C1141 1.252 . S
C1134 O1137 1.252 . S
C1134 O1138 1.260 . S
C1135 O1142 1.240 . S
C1135 O1143 1.252 . S
C1136 O1139 1.252 . S
C1136 O1140 1.260 . S
O1137 In1131 2.266 . S
O1137 C1134 1.252 . S
O1138 In1131 2.326 . S
O1138 C1134 1.260 . S
O1139 In1131 2.266 . S
O1139 C1136 1.252 . S
O1140 In1131 2.326 . S
O1140 C1136 1.260 . S
C1141 O1132 1.240 . S
C1141 O1133 1.252 . S
O1142 In1131 2.294 . S
O1142 C1135 1.240 . S
O1143 In1131 2.326 . S
O1143 C1135 1.252 . S
In1144 O1145 2.294 . S
In1144 O1146 2.326 . S
In1144 O1150 2.266 . S
In1144 O1151 2.326 . S
In1144 O1152 2.266 . S
In1144 O1153 2.326 . S
In1144 O1155 2.294 . S
In1144 O1156 2.326 . S
O1145 In1144 2.294 . S
O1145 C1154 1.240 . S
O1146 In1144 2.326 . S
O1146 C1154 1.252 . S
C1147 O1150 1.252 . S
C1147 O1151 1.260 . S
C1148 O1155 1.240 . S
C1148 O1156 1.252 . S
C1149 O1152 1.252 . S
C1149 O1153 1.260 . S
O1150 In1144 2.266 . S
O1150 C1147 1.252 . S
O1151 In1144 2.326 . S
O1151 C1147 1.260 . S
O1152 In1144 2.266 . S
O1152 C1149 1.252 . S
O1153 In1144 2.326 . S
O1153 C1149 1.260 . S
C1154 O1145 1.240 . S
C1154 O1146 1.252 . S
O1155 In1144 2.294 . S
O1155 C1148 1.240 . S
O1156 In1144 2.326 . S
O1156 C1148 1.252 . S
In1157 O1158 2.294 . S
In1157 O1159 2.326 . S
In1157 O1163 2.266 . S
In1157 O1164 2.326 . S
In1157 O1165 2.266 . S
In1157 O1166 2.326 . S
In1157 O1168 2.294 . S
In1157 O1169 2.326 . S
O1158 In1157 2.294 . S
O1158 C1167 1.240 . S
O1159 In1157 2.326 . S
O1159 C1167 1.252 . S
C1160 O1163 1.252 . S
C1160 O1164 1.260 . S
C1161 O1168 1.240 . S
C1161 O1169 1.252 . S
C1162 O1165 1.252 . S
C1162 O1166 1.260 . S
O1163 In1157 2.266 . S
O1163 C1160 1.252 . S
O1164 In1157 2.326 . S
O1164 C1160 1.260 . S
O1165 In1157 2.266 . S
O1165 C1162 1.252 . S
O1166 In1157 2.326 . S
O1166 C1162 1.260 . S
C1167 O1158 1.240 . S
C1167 O1159 1.252 . S
O1168 In1157 2.294 . S
O1168 C1161 1.240 . S
O1169 In1157 2.326 . S
O1169 C1161 1.252 . S
In1170 O1171 2.294 . S
In1170 O1172 2.326 . S
In1170 O1176 2.266 . S
In1170 O1177 2.326 . S
In1170 O1178 2.266 . S
In1170 O1179 2.326 . S
In1170 O1181 2.294 . S
In1170 O1182 2.326 . S
O1171 In1170 2.294 . S
O1171 C1180 1.240 . S
O1172 In1170 2.326 . S
O1172 C1180 1.252 . S
C1173 O1176 1.252 . S
C1173 O1177 1.260 . S
C1174 O1181 1.240 . S
C1174 O1182 1.252 . S
C1175 O1178 1.252 . S
C1175 O1179 1.260 . S
O1176 In1170 2.266 . S
O1176 C1173 1.252 . S
O1177 In1170 2.326 . S
O1177 C1173 1.260 . S
O1178 In1170 2.266 . S
O1178 C1175 1.252 . S
O1179 In1170 2.326 . S
O1179 C1175 1.260 . S
C1180 O1171 1.240 . S
C1180 O1172 1.252 . S
O1181 In1170 2.294 . S
O1181 C1174 1.240 . S
O1182 In1170 2.326 . S
O1182 C1174 1.252 . S
In1183 O1184 2.294 . S
In1183 O1185 2.326 . S
In1183 O1189 2.266 . S
In1183 O1190 2.326 . S
In1183 O1191 2.266 . S
In1183 O1192 2.326 . S
In1183 O1194 2.294 . S
In1183 O1195 2.326 . S
O1184 In1183 2.294 . S
O1184 C1193 1.240 . S
O1185 In1183 2.326 . S
O1185 C1193 1.252 . S
C1186 O1189 1.252 . S
C1186 O1190 1.260 . S
C1187 O1194 1.240 . S
C1187 O1195 1.252 . S
C1188 O1191 1.252 . S
C1188 O1192 1.260 . S
O1189 In1183 2.266 . S
O1189 C1186 1.252 . S
O1190 In1183 2.326 . S
O1190 C1186 1.260 . S
O1191 In1183 2.266 . S
O1191 C1188 1.252 . S
O1192 In1183 2.326 . S
O1192 C1188 1.260 . S
C1193 O1184 1.240 . S
C1193 O1185 1.252 . S
O1194 In1183 2.294 . S
O1194 C1187 1.240 . S
O1195 In1183 2.326 . S
O1195 C1187 1.252 . S
In1196 O1197 2.294 . S
In1196 O1198 2.326 . S
In1196 O1202 2.266 . S
In1196 O1203 2.326 . S
In1196 O1204 2.266 . S
In1196 O1205 2.326 . S
In1196 O1207 2.294 . S
In1196 O1208 2.326 . S
O1197 In1196 2.294 . S
O1197 C1206 1.240 . S
O1198 In1196 2.326 . S
O1198 C1206 1.252 . S
C1199 O1202 1.252 . S
C1199 O1203 1.260 . S
C1200 O1207 1.240 . S
C1200 O1208 1.252 . S
C1201 O1204 1.252 . S
C1201 O1205 1.260 . S
O1202 In1196 2.266 . S
O1202 C1199 1.252 . S
O1203 In1196 2.326 . S
O1203 C1199 1.260 . S
O1204 In1196 2.266 . S
O1204 C1201 1.252 . S
O1205 In1196 2.326 . S
O1205 C1201 1.260 . S
C1206 O1197 1.240 . S
C1206 O1198 1.252 . S
O1207 In1196 2.294 . S
O1207 C1200 1.240 . S
O1208 In1196 2.326 . S
O1208 C1200 1.252 . S
In1209 O1210 2.294 . S
In1209 O1211 2.326 . S
In1209 O1215 2.266 . S
In1209 O1216 2.326 . S
In1209 O1217 2.266 . S
In1209 O1218 2.326 . S
In1209 O1220 2.294 . S
In1209 O1221 2.326 . S
O1210 In1209 2.294 . S
O1210 C1219 1.240 . S
O1211 In1209 2.326 . S
O1211 C1219 1.252 . S
C1212 O1215 1.252 . S
C1212 O1216 1.260 . S
C1213 O1220 1.240 . S
C1213 O1221 1.252 . S
C1214 O1217 1.252 . S
C1214 O1218 1.260 . S
O1215 In1209 2.266 . S
O1215 C1212 1.252 . S
O1216 In1209 2.326 . S
O1216 C1212 1.260 . S
O1217 In1209 2.266 . S
O1217 C1214 1.252 . S
O1218 In1209 2.326 . S
O1218 C1214 1.260 . S
C1219 O1210 1.240 . S
C1219 O1211 1.252 . S
O1220 In1209 2.294 . S
O1220 C1213 1.240 . S
O1221 In1209 2.326 . S
O1221 C1213 1.252 . S
In1222 O1223 2.294 . S
In1222 O1224 2.326 . S
In1222 O1228 2.266 . S
In1222 O1229 2.326 . S
In1222 O1230 2.266 . S
In1222 O1231 2.326 . S
In1222 O1233 2.294 . S
In1222 O1234 2.326 . S
O1223 In1222 2.294 . S
O1223 C1232 1.240 . S
O1224 In1222 2.326 . S
O1224 C1232 1.252 . S
C1225 O1228 1.252 . S
C1225 O1229 1.260 . S
C1226 O1233 1.240 . S
C1226 O1234 1.252 . S
C1227 O1230 1.252 . S
C1227 O1231 1.260 . S
O1228 In1222 2.266 . S
O1228 C1225 1.252 . S
O1229 In1222 2.326 . S
O1229 C1225 1.260 . S
O1230 In1222 2.266 . S
O1230 C1227 1.252 . S
O1231 In1222 2.326 . S
O1231 C1227 1.260 . S
C1232 O1223 1.240 . S
C1232 O1224 1.252 . S
O1233 In1222 2.294 . S
O1233 C1226 1.240 . S
O1234 In1222 2.326 . S
O1234 C1226 1.252 . S
In1235 O1236 2.294 . S
In1235 O1237 2.326 . S
In1235 O1241 2.266 . S
In1235 O1242 2.326 . S
In1235 O1243 2.266 . S
In1235 O1244 2.326 . S
In1235 O1246 2.294 . S
In1235 O1247 2.326 . S
O1236 In1235 2.294 . S
O1236 C1245 1.240 . S
O1237 In1235 2.326 . S
O1237 C1245 1.252 . S
C1238 O1241 1.252 . S
C1238 O1242 1.260 . S
C1239 O1246 1.240 . S
C1239 O1247 1.252 . S
C1240 O1243 1.252 . S
C1240 O1244 1.260 . S
O1241 In1235 2.266 . S
O1241 C1238 1.252 . S
O1242 In1235 2.326 . S
O1242 C1238 1.260 . S
O1243 In1235 2.266 . S
O1243 C1240 1.252 . S
O1244 In1235 2.326 . S
O1244 C1240 1.260 . S
C1245 O1236 1.240 . S
C1245 O1237 1.252 . S
O1246 In1235 2.294 . S
O1246 C1239 1.240 . S
O1247 In1235 2.326 . S
O1247 C1239 1.252 . S
C1248 C1249 1.369 . S
C1248 C1250 1.419 . S
C1248 H1252 0.930 . S
C1249 C1248 1.369 . S
C1249 C1258 1.429 . S
C1250 C1248 1.419 . S
C1250 C1251 1.363 . S
C1250 H1253 0.929 . S
C1251 C1250 1.363 . S
C1251 C1257 1.428 . S
H1252 C1248 0.930 . S
H1253 C1250 0.929 . S
S1254 N1255 1.613 . S
S1254 N1256 1.610 . S
N1255 S1254 1.613 . S
N1255 C1258 1.350 . S
N1256 S1254 1.610 . S
N1256 C1257 1.351 . S
C1257 C1251 1.428 . S
C1257 N1256 1.351 . S
C1257 C1258 1.434 . S
C1258 C1249 1.429 . S
C1258 N1255 1.350 . S
C1258 C1257 1.434 . S
C1259 C1260 1.369 . S
C1259 C1261 1.419 . S
C1259 H1263 0.930 . S
C1260 C1259 1.369 . S
C1260 C1269 1.429 . S
C1261 C1259 1.419 . S
C1261 C1262 1.363 . S
C1261 H1264 0.929 . S
C1262 C1261 1.363 . S
C1262 C1268 1.428 . S
H1263 C1259 0.930 . S
H1264 C1261 0.929 . S
S1265 N1266 1.613 . S
S1265 N1267 1.610 . S
N1266 S1265 1.613 . S
N1266 C1269 1.350 . S
N1267 S1265 1.610 . S
N1267 C1268 1.351 . S
C1268 C1262 1.428 . S
C1268 N1267 1.351 . S
C1268 C1269 1.434 . S
C1269 C1260 1.429 . S
C1269 N1266 1.350 . S
C1269 C1268 1.434 . S
C1270 C1271 1.369 . S
C1270 C1272 1.419 . S
C1270 H1274 0.930 . S
C1271 C1270 1.369 . S
C1271 C1280 1.429 . S
C1272 C1270 1.419 . S
C1272 C1273 1.363 . S
C1272 H1275 0.929 . S
C1273 C1272 1.363 . S
C1273 C1279 1.428 . S
H1274 C1270 0.930 . S
H1275 C1272 0.929 . S
S1276 N1277 1.613 . S
S1276 N1278 1.610 . S
N1277 S1276 1.613 . S
N1277 C1280 1.350 . S
N1278 S1276 1.610 . S
N1278 C1279 1.351 . S
C1279 C1273 1.428 . S
C1279 N1278 1.351 . S
C1279 C1280 1.434 . S
C1280 C1271 1.429 . S
C1280 N1277 1.350 . S
C1280 C1279 1.434 . S
C1281 C1282 1.369 . S
C1281 C1283 1.419 . S
C1281 H1285 0.930 . S
C1282 C1281 1.369 . S
C1282 C1291 1.429 . S
C1283 C1281 1.419 . S
C1283 C1284 1.363 . S
C1283 H1286 0.929 . S
C1284 C1283 1.363 . S
C1284 C1290 1.428 . S
H1285 C1281 0.930 . S
H1286 C1283 0.929 . S
S1287 N1288 1.613 . S
S1287 N1289 1.610 . S
N1288 S1287 1.613 . S
N1288 C1291 1.350 . S
N1289 S1287 1.610 . S
N1289 C1290 1.351 . S
C1290 C1284 1.428 . S
C1290 N1289 1.351 . S
C1290 C1291 1.434 . S
C1291 C1282 1.429 . S
C1291 N1288 1.350 . S
C1291 C1290 1.434 . S
C1292 C1293 1.369 . S
C1292 C1294 1.419 . S
C1292 H1296 0.930 . S
C1293 C1292 1.369 . S
C1293 C1302 1.429 . S
C1294 C1292 1.419 . S
C1294 C1295 1.363 . S
C1294 H1297 0.929 . S
C1295 C1294 1.363 . S
C1295 C1301 1.428 . S
H1296 C1292 0.930 . S
H1297 C1294 0.929 . S
S1298 N1299 1.613 . S
S1298 N1300 1.610 . S
N1299 S1298 1.613 . S
N1299 C1302 1.350 . S
N1300 S1298 1.610 . S
N1300 C1301 1.351 . S
C1301 C1295 1.428 . S
C1301 N1300 1.351 . S
C1301 C1302 1.434 . S
C1302 C1293 1.429 . S
C1302 N1299 1.350 . S
C1302 C1301 1.434 . S
C1303 C1304 1.369 . S
C1303 C1305 1.419 . S
C1303 H1307 0.930 . S
C1304 C1303 1.369 . S
C1304 C1313 1.429 . S
C1305 C1303 1.419 . S
C1305 C1306 1.363 . S
C1305 H1308 0.929 . S
C1306 C1305 1.363 . S
C1306 C1312 1.428 . S
H1307 C1303 0.930 . S
H1308 C1305 0.929 . S
S1309 N1310 1.613 . S
S1309 N1311 1.610 . S
N1310 S1309 1.613 . S
N1310 C1313 1.350 . S
N1311 S1309 1.610 . S
N1311 C1312 1.351 . S
C1312 C1306 1.428 . S
C1312 N1311 1.351 . S
C1312 C1313 1.434 . S
C1313 C1304 1.429 . S
C1313 N1310 1.350 . S
C1313 C1312 1.434 . S
C1314 C1315 1.369 . S
C1314 C1316 1.419 . S
C1314 H1318 0.930 . S
C1315 C1314 1.369 . S
C1315 C1324 1.429 . S
C1316 C1314 1.419 . S
C1316 C1317 1.363 . S
C1316 H1319 0.929 . S
C1317 C1316 1.363 . S
C1317 C1323 1.428 . S
H1318 C1314 0.930 . S
H1319 C1316 0.929 . S
S1320 N1321 1.613 . S
S1320 N1322 1.610 . S
N1321 S1320 1.613 . S
N1321 C1324 1.350 . S
N1322 S1320 1.610 . S
N1322 C1323 1.351 . S
C1323 C1317 1.428 . S
C1323 N1322 1.351 . S
C1323 C1324 1.434 . S
C1324 C1315 1.429 . S
C1324 N1321 1.350 . S
C1324 C1323 1.434 . S
C1325 C1326 1.369 . S
C1325 C1327 1.419 . S
C1325 H1329 0.930 . S
C1326 C1325 1.369 . S
C1326 C1335 1.429 . S
C1327 C1325 1.419 . S
C1327 C1328 1.363 . S
C1327 H1330 0.929 . S
C1328 C1327 1.363 . S
C1328 C1334 1.428 . S
H1329 C1325 0.930 . S
H1330 C1327 0.929 . S
S1331 N1332 1.613 . S
S1331 N1333 1.610 . S
N1332 S1331 1.613 . S
N1332 C1335 1.350 . S
N1333 S1331 1.610 . S
N1333 C1334 1.351 . S
C1334 C1328 1.428 . S
C1334 N1333 1.351 . S
C1334 C1335 1.434 . S
C1335 C1326 1.429 . S
C1335 N1332 1.350 . S
C1335 C1334 1.434 . S
C1336 C1337 1.369 . S
C1336 C1338 1.419 . S
C1336 H1340 0.930 . S
C1337 C1336 1.369 . S
C1337 C1346 1.429 . S
C1338 C1336 1.419 . S
C1338 C1339 1.363 . S
C1338 H1341 0.929 . S
C1339 C1338 1.363 . S
C1339 C1345 1.428 . S
H1340 C1336 0.930 . S
H1341 C1338 0.929 . S
S1342 N1343 1.613 . S
S1342 N1344 1.610 . S
N1343 S1342 1.613 . S
N1343 C1346 1.350 . S
N1344 S1342 1.610 . S
N1344 C1345 1.351 . S
C1345 C1339 1.428 . S
C1345 N1344 1.351 . S
C1345 C1346 1.434 . S
C1346 C1337 1.429 . S
C1346 N1343 1.350 . S
C1346 C1345 1.434 . S
C1347 C1348 1.369 . S
C1347 C1349 1.419 . S
C1347 H1351 0.930 . S
C1348 C1347 1.369 . S
C1348 C1357 1.429 . S
C1349 C1347 1.419 . S
C1349 C1350 1.363 . S
C1349 H1352 0.929 . S
C1350 C1349 1.363 . S
C1350 C1356 1.428 . S
H1351 C1347 0.930 . S
H1352 C1349 0.929 . S
S1353 N1354 1.613 . S
S1353 N1355 1.610 . S
N1354 S1353 1.613 . S
N1354 C1357 1.350 . S
N1355 S1353 1.610 . S
N1355 C1356 1.351 . S
C1356 C1350 1.428 . S
C1356 N1355 1.351 . S
C1356 C1357 1.434 . S
C1357 C1348 1.429 . S
C1357 N1354 1.350 . S
C1357 C1356 1.434 . S
C1358 C1359 1.369 . S
C1358 C1360 1.419 . S
C1358 H1362 0.930 . S
C1359 C1358 1.369 . S
C1359 C1368 1.429 . S
C1360 C1358 1.419 . S
C1360 C1361 1.363 . S
C1360 H1363 0.929 . S
C1361 C1360 1.363 . S
C1361 C1367 1.428 . S
H1362 C1358 0.930 . S
H1363 C1360 0.929 . S
S1364 N1365 1.613 . S
S1364 N1366 1.610 . S
N1365 S1364 1.613 . S
N1365 C1368 1.350 . S
N1366 S1364 1.610 . S
N1366 C1367 1.351 . S
C1367 C1361 1.428 . S
C1367 N1366 1.351 . S
C1367 C1368 1.434 . S
C1368 C1359 1.429 . S
C1368 N1365 1.350 . S
C1368 C1367 1.434 . S
C1369 C1370 1.369 . S
C1369 C1371 1.419 . S
C1369 H1373 0.930 . S
C1370 C1369 1.369 . S
C1370 C1379 1.429 . S
C1371 C1369 1.419 . S
C1371 C1372 1.363 . S
C1371 H1374 0.929 . S
C1372 C1371 1.363 . S
C1372 C1378 1.428 . S
H1373 C1369 0.930 . S
H1374 C1371 0.929 . S
S1375 N1376 1.613 . S
S1375 N1377 1.610 . S
N1376 S1375 1.613 . S
N1376 C1379 1.350 . S
N1377 S1375 1.610 . S
N1377 C1378 1.351 . S
C1378 C1372 1.428 . S
C1378 N1377 1.351 . S
C1378 C1379 1.434 . S
C1379 C1370 1.429 . S
C1379 N1376 1.350 . S
C1379 C1378 1.434 . S
C1380 C1381 1.369 . S
C1380 C1382 1.419 . S
C1380 H1384 0.930 . S
C1381 C1380 1.369 . S
C1381 C1390 1.429 . S
C1382 C1380 1.419 . S
C1382 C1383 1.363 . S
C1382 H1385 0.929 . S
C1383 C1382 1.363 . S
C1383 C1389 1.428 . S
H1384 C1380 0.930 . S
H1385 C1382 0.929 . S
S1386 N1387 1.613 . S
S1386 N1388 1.610 . S
N1387 S1386 1.613 . S
N1387 C1390 1.350 . S
N1388 S1386 1.610 . S
N1388 C1389 1.351 . S
C1389 C1383 1.428 . S
C1389 N1388 1.351 . S
C1389 C1390 1.434 . S
C1390 C1381 1.429 . S
C1390 N1387 1.350 . S
C1390 C1389 1.434 . S
C1391 C1392 1.369 . S
C1391 C1393 1.419 . S
C1391 H1395 0.930 . S
C1392 C1391 1.369 . S
C1392 C1401 1.429 . S
C1393 C1391 1.419 . S
C1393 C1394 1.363 . S
C1393 H1396 0.929 . S
C1394 C1393 1.363 . S
C1394 C1400 1.428 . S
H1395 C1391 0.930 . S
H1396 C1393 0.929 . S
S1397 N1398 1.613 . S
S1397 N1399 1.610 . S
N1398 S1397 1.613 . S
N1398 C1401 1.350 . S
N1399 S1397 1.610 . S
N1399 C1400 1.351 . S
C1400 C1394 1.428 . S
C1400 N1399 1.351 . S
C1400 C1401 1.434 . S
C1401 C1392 1.429 . S
C1401 N1398 1.350 . S
C1401 C1400 1.434 . S
C1402 C1403 1.369 . S
C1402 C1404 1.419 . S
C1402 H1406 0.930 . S
C1403 C1402 1.369 . S
C1403 C1412 1.429 . S
C1404 C1402 1.419 . S
C1404 C1405 1.363 . S
C1404 H1407 0.929 . S
C1405 C1404 1.363 . S
C1405 C1411 1.428 . S
H1406 C1402 0.930 . S
H1407 C1404 0.929 . S
S1408 N1409 1.613 . S
S1408 N1410 1.610 . S
N1409 S1408 1.613 . S
N1409 C1412 1.350 . S
N1410 S1408 1.610 . S
N1410 C1411 1.351 . S
C1411 C1405 1.428 . S
C1411 N1410 1.351 . S
C1411 C1412 1.434 . S
C1412 C1403 1.429 . S
C1412 N1409 1.350 . S
C1412 C1411 1.434 . S
C1413 C1414 1.369 . S
C1413 C1415 1.419 . S
C1413 H1417 0.930 . S
C1414 C1413 1.369 . S
C1414 C1423 1.429 . S
C1415 C1413 1.419 . S
C1415 C1416 1.363 . S
C1415 H1418 0.929 . S
C1416 C1415 1.363 . S
C1416 C1422 1.428 . S
H1417 C1413 0.930 . S
H1418 C1415 0.929 . S
S1419 N1420 1.613 . S
S1419 N1421 1.610 . S
N1420 S1419 1.613 . S
N1420 C1423 1.350 . S
N1421 S1419 1.610 . S
N1421 C1422 1.351 . S
C1422 C1416 1.428 . S
C1422 N1421 1.351 . S
C1422 C1423 1.434 . S
C1423 C1414 1.429 . S
C1423 N1420 1.350 . S
C1423 C1422 1.434 . S
C1424 C1425 1.369 . S
C1424 C1426 1.419 . S
C1424 H1428 0.930 . S
C1425 C1424 1.369 . S
C1425 C1434 1.429 . S
C1426 C1424 1.419 . S
C1426 C1427 1.363 . S
C1426 H1429 0.929 . S
C1427 C1426 1.363 . S
C1427 C1433 1.428 . S
H1428 C1424 0.930 . S
H1429 C1426 0.929 . S
S1430 N1431 1.613 . S
S1430 N1432 1.610 . S
N1431 S1430 1.613 . S
N1431 C1434 1.350 . S
N1432 S1430 1.610 . S
N1432 C1433 1.351 . S
C1433 C1427 1.428 . S
C1433 N1432 1.351 . S
C1433 C1434 1.434 . S
C1434 C1425 1.429 . S
C1434 N1431 1.350 . S
C1434 C1433 1.434 . S
C1435 C1436 1.369 . S
C1435 C1437 1.419 . S
C1435 H1439 0.930 . S
C1436 C1435 1.369 . S
C1436 C1445 1.429 . S
C1437 C1435 1.419 . S
C1437 C1438 1.363 . S
C1437 H1440 0.929 . S
C1438 C1437 1.363 . S
C1438 C1444 1.428 . S
H1439 C1435 0.930 . S
H1440 C1437 0.929 . S
S1441 N1442 1.613 . S
S1441 N1443 1.610 . S
N1442 S1441 1.613 . S
N1442 C1445 1.350 . S
N1443 S1441 1.610 . S
N1443 C1444 1.351 . S
C1444 C1438 1.428 . S
C1444 N1443 1.351 . S
C1444 C1445 1.434 . S
C1445 C1436 1.429 . S
C1445 N1442 1.350 . S
C1445 C1444 1.434 . S
C1446 C1447 1.369 . S
C1446 C1448 1.419 . S
C1446 H1450 0.930 . S
C1447 C1446 1.369 . S
C1447 C1456 1.429 . S
C1448 C1446 1.419 . S
C1448 C1449 1.363 . S
C1448 H1451 0.929 . S
C1449 C1448 1.363 . S
C1449 C1455 1.428 . S
H1450 C1446 0.930 . S
H1451 C1448 0.929 . S
S1452 N1453 1.613 . S
S1452 N1454 1.610 . S
N1453 S1452 1.613 . S
N1453 C1456 1.350 . S
N1454 S1452 1.610 . S
N1454 C1455 1.351 . S
C1455 C1449 1.428 . S
C1455 N1454 1.351 . S
C1455 C1456 1.434 . S
C1456 C1447 1.429 . S
C1456 N1453 1.350 . S
C1456 C1455 1.434 . S
C1457 C1458 1.369 . S
C1457 C1459 1.419 . S
C1457 H1461 0.930 . S
C1458 C1457 1.369 . S
C1458 C1467 1.429 . S
C1459 C1457 1.419 . S
C1459 C1460 1.363 . S
C1459 H1462 0.929 . S
C1460 C1459 1.363 . S
C1460 C1466 1.428 . S
H1461 C1457 0.930 . S
H1462 C1459 0.929 . S
S1463 N1464 1.613 . S
S1463 N1465 1.610 . S
N1464 S1463 1.613 . S
N1464 C1467 1.350 . S
N1465 S1463 1.610 . S
N1465 C1466 1.351 . S
C1466 C1460 1.428 . S
C1466 N1465 1.351 . S
C1466 C1467 1.434 . S
C1467 C1458 1.429 . S
C1467 N1464 1.350 . S
C1467 C1466 1.434 . S
C1468 C1469 1.369 . S
C1468 C1470 1.419 . S
C1468 H1472 0.930 . S
C1469 C1468 1.369 . S
C1469 C1478 1.429 . S
C1470 C1468 1.419 . S
C1470 C1471 1.363 . S
C1470 H1473 0.929 . S
C1471 C1470 1.363 . S
C1471 C1477 1.428 . S
H1472 C1468 0.930 . S
H1473 C1470 0.929 . S
S1474 N1475 1.613 . S
S1474 N1476 1.610 . S
N1475 S1474 1.613 . S
N1475 C1478 1.350 . S
N1476 S1474 1.610 . S
N1476 C1477 1.351 . S
C1477 C1471 1.428 . S
C1477 N1476 1.351 . S
C1477 C1478 1.434 . S
C1478 C1469 1.429 . S
C1478 N1475 1.350 . S
C1478 C1477 1.434 . S
C1479 C1480 1.369 . S
C1479 C1481 1.419 . S
C1479 H1483 0.930 . S
C1480 C1479 1.369 . S
C1480 C1489 1.429 . S
C1481 C1479 1.419 . S
C1481 C1482 1.363 . S
C1481 H1484 0.929 . S
C1482 C1481 1.363 . S
C1482 C1488 1.428 . S
H1483 C1479 0.930 . S
H1484 C1481 0.929 . S
S1485 N1486 1.613 . S
S1485 N1487 1.610 . S
N1486 S1485 1.613 . S
N1486 C1489 1.350 . S
N1487 S1485 1.610 . S
N1487 C1488 1.351 . S
C1488 C1482 1.428 . S
C1488 N1487 1.351 . S
C1488 C1489 1.434 . S
C1489 C1480 1.429 . S
C1489 N1486 1.350 . S
C1489 C1488 1.434 . S
C1490 C1491 1.369 . S
C1490 C1492 1.419 . S
C1490 H1494 0.930 . S
C1491 C1490 1.369 . S
C1491 C1500 1.429 . S
C1492 C1490 1.419 . S
C1492 C1493 1.363 . S
C1492 H1495 0.929 . S
C1493 C1492 1.363 . S
C1493 C1499 1.428 . S
H1494 C1490 0.930 . S
H1495 C1492 0.929 . S
S1496 N1497 1.613 . S
S1496 N1498 1.610 . S
N1497 S1496 1.613 . S
N1497 C1500 1.350 . S
N1498 S1496 1.610 . S
N1498 C1499 1.351 . S
C1499 C1493 1.428 . S
C1499 N1498 1.351 . S
C1499 C1500 1.434 . S
C1500 C1491 1.429 . S
C1500 N1497 1.350 . S
C1500 C1499 1.434 . S
C1501 C1502 1.369 . S
C1501 C1503 1.419 . S
C1501 H1505 0.930 . S
C1502 C1501 1.369 . S
C1502 C1511 1.429 . S
C1503 C1501 1.419 . S
C1503 C1504 1.363 . S
C1503 H1506 0.929 . S
C1504 C1503 1.363 . S
C1504 C1510 1.428 . S
H1505 C1501 0.930 . S
H1506 C1503 0.929 . S
S1507 N1508 1.613 . S
S1507 N1509 1.610 . S
N1508 S1507 1.613 . S
N1508 C1511 1.350 . S
N1509 S1507 1.610 . S
N1509 C1510 1.351 . S
C1510 C1504 1.428 . S
C1510 N1509 1.351 . S
C1510 C1511 1.434 . S
C1511 C1502 1.429 . S
C1511 N1508 1.350 . S
C1511 C1510 1.434 . S
C1512 C1513 1.369 . S
C1512 C1514 1.419 . S
C1512 H1516 0.930 . S
C1513 C1512 1.369 . S
C1513 C1522 1.429 . S
C1514 C1512 1.419 . S
C1514 C1515 1.363 . S
C1514 H1517 0.929 . S
C1515 C1514 1.363 . S
C1515 C1521 1.428 . S
H1516 C1512 0.930 . S
H1517 C1514 0.929 . S
S1518 N1519 1.613 . S
S1518 N1520 1.610 . S
N1519 S1518 1.613 . S
N1519 C1522 1.350 . S
N1520 S1518 1.610 . S
N1520 C1521 1.351 . S
C1521 C1515 1.428 . S
C1521 N1520 1.351 . S
C1521 C1522 1.434 . S
C1522 C1513 1.429 . S
C1522 N1519 1.350 . S
C1522 C1521 1.434 . S
C1523 C1524 1.369 . S
C1523 C1525 1.419 . S
C1523 H1527 0.930 . S
C1524 C1523 1.369 . S
C1524 C1533 1.429 . S
C1525 C1523 1.419 . S
C1525 C1526 1.363 . S
C1525 H1528 0.929 . S
C1526 C1525 1.363 . S
C1526 C1532 1.428 . S
H1527 C1523 0.930 . S
H1528 C1525 0.929 . S
S1529 N1530 1.613 . S
S1529 N1531 1.610 . S
N1530 S1529 1.613 . S
N1530 C1533 1.350 . S
N1531 S1529 1.610 . S
N1531 C1532 1.351 . S
C1532 C1526 1.428 . S
C1532 N1531 1.351 . S
C1532 C1533 1.434 . S
C1533 C1524 1.429 . S
C1533 N1530 1.350 . S
C1533 C1532 1.434 . S
C1534 C1535 1.369 . S
C1534 C1536 1.419 . S
C1534 H1538 0.930 . S
C1535 C1534 1.369 . S
C1535 C1544 1.429 . S
C1536 C1534 1.419 . S
C1536 C1537 1.363 . S
C1536 H1539 0.929 . S
C1537 C1536 1.363 . S
C1537 C1543 1.428 . S
H1538 C1534 0.930 . S
H1539 C1536 0.929 . S
S1540 N1541 1.613 . S
S1540 N1542 1.610 . S
N1541 S1540 1.613 . S
N1541 C1544 1.350 . S
N1542 S1540 1.610 . S
N1542 C1543 1.351 . S
C1543 C1537 1.428 . S
C1543 N1542 1.351 . S
C1543 C1544 1.434 . S
C1544 C1535 1.429 . S
C1544 N1541 1.350 . S
C1544 C1543 1.434 . S
C1545 C1546 1.369 . S
C1545 C1547 1.419 . S
C1545 H1549 0.930 . S
C1546 C1545 1.369 . S
C1546 C1555 1.429 . S
C1547 C1545 1.419 . S
C1547 C1548 1.363 . S
C1547 H1550 0.929 . S
C1548 C1547 1.363 . S
C1548 C1554 1.428 . S
H1549 C1545 0.930 . S
H1550 C1547 0.929 . S
S1551 N1552 1.613 . S
S1551 N1553 1.610 . S
N1552 S1551 1.613 . S
N1552 C1555 1.350 . S
N1553 S1551 1.610 . S
N1553 C1554 1.351 . S
C1554 C1548 1.428 . S
C1554 N1553 1.351 . S
C1554 C1555 1.434 . S
C1555 C1546 1.429 . S
C1555 N1552 1.350 . S
C1555 C1554 1.434 . S
C1556 C1557 1.369 . S
C1556 C1558 1.419 . S
C1556 H1560 0.930 . S
C1557 C1556 1.369 . S
C1557 C1566 1.429 . S
C1558 C1556 1.419 . S
C1558 C1559 1.363 . S
C1558 H1561 0.929 . S
C1559 C1558 1.363 . S
C1559 C1565 1.428 . S
H1560 C1556 0.930 . S
H1561 C1558 0.929 . S
S1562 N1563 1.613 . S
S1562 N1564 1.610 . S
N1563 S1562 1.613 . S
N1563 C1566 1.350 . S
N1564 S1562 1.610 . S
N1564 C1565 1.351 . S
C1565 C1559 1.428 . S
C1565 N1564 1.351 . S
C1565 C1566 1.434 . S
C1566 C1557 1.429 . S
C1566 N1563 1.350 . S
C1566 C1565 1.434 . S
C1567 C1568 1.369 . S
C1567 C1569 1.419 . S
C1567 H1571 0.930 . S
C1568 C1567 1.369 . S
C1568 C1577 1.429 . S
C1569 C1567 1.419 . S
C1569 C1570 1.363 . S
C1569 H1572 0.929 . S
C1570 C1569 1.363 . S
C1570 C1576 1.428 . S
H1571 C1567 0.930 . S
H1572 C1569 0.929 . S
S1573 N1574 1.613 . S
S1573 N1575 1.610 . S
N1574 S1573 1.613 . S
N1574 C1577 1.350 . S
N1575 S1573 1.610 . S
N1575 C1576 1.351 . S
C1576 C1570 1.428 . S
C1576 N1575 1.351 . S
C1576 C1577 1.434 . S
C1577 C1568 1.429 . S
C1577 N1574 1.350 . S
C1577 C1576 1.434 . S
C1578 C1579 1.369 . S
C1578 C1580 1.419 . S
C1578 H1582 0.930 . S
C1579 C1578 1.369 . S
C1579 C1588 1.429 . S
C1580 C1578 1.419 . S
C1580 C1581 1.363 . S
C1580 H1583 0.929 . S
C1581 C1580 1.363 . S
C1581 C1587 1.428 . S
H1582 C1578 0.930 . S
H1583 C1580 0.929 . S
S1584 N1585 1.613 . S
S1584 N1586 1.610 . S
N1585 S1584 1.613 . S
N1585 C1588 1.350 . S
N1586 S1584 1.610 . S
N1586 C1587 1.351 . S
C1587 C1581 1.428 . S
C1587 N1586 1.351 . S
C1587 C1588 1.434 . S
C1588 C1579 1.429 . S
C1588 N1585 1.350 . S
C1588 C1587 1.434 . S
C1589 C1590 1.369 . S
C1589 C1591 1.419 . S
C1589 H1593 0.930 . S
C1590 C1589 1.369 . S
C1590 C1599 1.429 . S
C1591 C1589 1.419 . S
C1591 C1592 1.363 . S
C1591 H1594 0.929 . S
C1592 C1591 1.363 . S
C1592 C1598 1.428 . S
H1593 C1589 0.930 . S
H1594 C1591 0.929 . S
S1595 N1596 1.613 . S
S1595 N1597 1.610 . S
N1596 S1595 1.613 . S
N1596 C1599 1.350 . S
N1597 S1595 1.610 . S
N1597 C1598 1.351 . S
C1598 C1592 1.428 . S
C1598 N1597 1.351 . S
C1598 C1599 1.434 . S
C1599 C1590 1.429 . S
C1599 N1596 1.350 . S
C1599 C1598 1.434 . S
C1600 C1601 1.369 . S
C1600 C1602 1.419 . S
C1600 H1604 0.930 . S
C1601 C1600 1.369 . S
C1601 C1610 1.429 . S
C1602 C1600 1.419 . S
C1602 C1603 1.363 . S
C1602 H1605 0.929 . S
C1603 C1602 1.363 . S
C1603 C1609 1.428 . S
H1604 C1600 0.930 . S
H1605 C1602 0.929 . S
S1606 N1607 1.613 . S
S1606 N1608 1.610 . S
N1607 S1606 1.613 . S
N1607 C1610 1.350 . S
N1608 S1606 1.610 . S
N1608 C1609 1.351 . S
C1609 C1603 1.428 . S
C1609 N1608 1.351 . S
C1609 C1610 1.434 . S
C1610 C1601 1.429 . S
C1610 N1607 1.350 . S
C1610 C1609 1.434 . S
C1611 C1612 1.369 . S
C1611 C1613 1.419 . S
C1611 H1615 0.930 . S
C1612 C1611 1.369 . S
C1612 C1621 1.429 . S
C1613 C1611 1.419 . S
C1613 C1614 1.363 . S
C1613 H1616 0.929 . S
C1614 C1613 1.363 . S
C1614 C1620 1.428 . S
H1615 C1611 0.930 . S
H1616 C1613 0.929 . S
S1617 N1618 1.613 . S
S1617 N1619 1.610 . S
N1618 S1617 1.613 . S
N1618 C1621 1.350 . S
N1619 S1617 1.610 . S
N1619 C1620 1.351 . S
C1620 C1614 1.428 . S
C1620 N1619 1.351 . S
C1620 C1621 1.434 . S
C1621 C1612 1.429 . S
C1621 N1618 1.350 . S
C1621 C1620 1.434 . S
C1622 C1623 1.369 . S
C1622 C1624 1.419 . S
C1622 H1626 0.930 . S
C1623 C1622 1.369 . S
C1623 C1632 1.429 . S
C1624 C1622 1.419 . S
C1624 C1625 1.363 . S
C1624 H1627 0.929 . S
C1625 C1624 1.363 . S
C1625 C1631 1.428 . S
H1626 C1622 0.930 . S
H1627 C1624 0.929 . S
S1628 N1629 1.613 . S
S1628 N1630 1.610 . S
N1629 S1628 1.613 . S
N1629 C1632 1.350 . S
N1630 S1628 1.610 . S
N1630 C1631 1.351 . S
C1631 C1625 1.428 . S
C1631 N1630 1.351 . S
C1631 C1632 1.434 . S
C1632 C1623 1.429 . S
C1632 N1629 1.350 . S
C1632 C1631 1.434 . S
C1633 C1634 1.369 . S
C1633 C1635 1.419 . S
C1633 H1637 0.930 . S
C1634 C1633 1.369 . S
C1634 C1643 1.429 . S
C1635 C1633 1.419 . S
C1635 C1636 1.363 . S
C1635 H1638 0.929 . S
C1636 C1635 1.363 . S
C1636 C1642 1.428 . S
H1637 C1633 0.930 . S
H1638 C1635 0.929 . S
S1639 N1640 1.613 . S
S1639 N1641 1.610 . S
N1640 S1639 1.613 . S
N1640 C1643 1.350 . S
N1641 S1639 1.610 . S
N1641 C1642 1.351 . S
C1642 C1636 1.428 . S
C1642 N1641 1.351 . S
C1642 C1643 1.434 . S
C1643 C1634 1.429 . S
C1643 N1640 1.350 . S
C1643 C1642 1.434 . S
C1644 C1645 1.369 . S
C1644 C1646 1.419 . S
C1644 H1648 0.930 . S
C1645 C1644 1.369 . S
C1645 C1654 1.429 . S
C1646 C1644 1.419 . S
C1646 C1647 1.363 . S
C1646 H1649 0.929 . S
C1647 C1646 1.363 . S
C1647 C1653 1.428 . S
H1648 C1644 0.930 . S
H1649 C1646 0.929 . S
S1650 N1651 1.613 . S
S1650 N1652 1.610 . S
N1651 S1650 1.613 . S
N1651 C1654 1.350 . S
N1652 S1650 1.610 . S
N1652 C1653 1.351 . S
C1653 C1647 1.428 . S
C1653 N1652 1.351 . S
C1653 C1654 1.434 . S
C1654 C1645 1.429 . S
C1654 N1651 1.350 . S
C1654 C1653 1.434 . S
C1655 C1656 1.369 . S
C1655 C1657 1.419 . S
C1655 H1659 0.930 . S
C1656 C1655 1.369 . S
C1656 C1665 1.429 . S
C1657 C1655 1.419 . S
C1657 C1658 1.363 . S
C1657 H1660 0.929 . S
C1658 C1657 1.363 . S
C1658 C1664 1.428 . S
H1659 C1655 0.930 . S
H1660 C1657 0.929 . S
S1661 N1662 1.613 . S
S1661 N1663 1.610 . S
N1662 S1661 1.613 . S
N1662 C1665 1.350 . S
N1663 S1661 1.610 . S
N1663 C1664 1.351 . S
C1664 C1658 1.428 . S
C1664 N1663 1.351 . S
C1664 C1665 1.434 . S
C1665 C1656 1.429 . S
C1665 N1662 1.350 . S
C1665 C1664 1.434 . S
C1666 C1667 1.369 . S
C1666 C1668 1.419 . S
C1666 H1670 0.930 . S
C1667 C1666 1.369 . S
C1667 C1676 1.429 . S
C1668 C1666 1.419 . S
C1668 C1669 1.363 . S
C1668 H1671 0.929 . S
C1669 C1668 1.363 . S
C1669 C1675 1.428 . S
H1670 C1666 0.930 . S
H1671 C1668 0.929 . S
S1672 N1673 1.613 . S
S1672 N1674 1.610 . S
N1673 S1672 1.613 . S
N1673 C1676 1.350 . S
N1674 S1672 1.610 . S
N1674 C1675 1.351 . S
C1675 C1669 1.428 . S
C1675 N1674 1.351 . S
C1675 C1676 1.434 . S
C1676 C1667 1.429 . S
C1676 N1673 1.350 . S
C1676 C1675 1.434 . S
C1677 C1678 1.369 . S
C1677 C1679 1.419 . S
C1677 H1681 0.930 . S
C1678 C1677 1.369 . S
C1678 C1687 1.429 . S
C1679 C1677 1.419 . S
C1679 C1680 1.363 . S
C1679 H1682 0.929 . S
C1680 C1679 1.363 . S
C1680 C1686 1.428 . S
H1681 C1677 0.930 . S
H1682 C1679 0.929 . S
S1683 N1684 1.613 . S
S1683 N1685 1.610 . S
N1684 S1683 1.613 . S
N1684 C1687 1.350 . S
N1685 S1683 1.610 . S
N1685 C1686 1.351 . S
C1686 C1680 1.428 . S
C1686 N1685 1.351 . S
C1686 C1687 1.434 . S
C1687 C1678 1.429 . S
C1687 N1684 1.350 . S
C1687 C1686 1.434 . S
C1688 C1689 1.369 . S
C1688 C1690 1.419 . S
C1688 H1692 0.930 . S
C1689 C1688 1.369 . S
C1689 C1698 1.429 . S
C1690 C1688 1.419 . S
C1690 C1691 1.363 . S
C1690 H1693 0.929 . S
C1691 C1690 1.363 . S
C1691 C1697 1.428 . S
H1692 C1688 0.930 . S
H1693 C1690 0.929 . S
S1694 N1695 1.613 . S
S1694 N1696 1.610 . S
N1695 S1694 1.613 . S
N1695 C1698 1.350 . S
N1696 S1694 1.610 . S
N1696 C1697 1.351 . S
C1697 C1691 1.428 . S
C1697 N1696 1.351 . S
C1697 C1698 1.434 . S
C1698 C1689 1.429 . S
C1698 N1695 1.350 . S
C1698 C1697 1.434 . S
C1699 C1700 1.369 . S
C1699 C1701 1.419 . S
C1699 H1703 0.930 . S
C1700 C1699 1.369 . S
C1700 C1709 1.429 . S
C1701 C1699 1.419 . S
C1701 C1702 1.363 . S
C1701 H1704 0.929 . S
C1702 C1701 1.363 . S
C1702 C1708 1.428 . S
H1703 C1699 0.930 . S
H1704 C1701 0.929 . S
S1705 N1706 1.613 . S
S1705 N1707 1.610 . S
N1706 S1705 1.613 . S
N1706 C1709 1.350 . S
N1707 S1705 1.610 . S
N1707 C1708 1.351 . S
C1708 C1702 1.428 . S
C1708 N1707 1.351 . S
C1708 C1709 1.434 . S
C1709 C1700 1.429 . S
C1709 N1706 1.350 . S
C1709 C1708 1.434 . S
C1710 C1711 1.369 . S
C1710 C1712 1.419 . S
C1710 H1714 0.930 . S
C1711 C1710 1.369 . S
C1711 C1720 1.429 . S
C1712 C1710 1.419 . S
C1712 C1713 1.363 . S
C1712 H1715 0.929 . S
C1713 C1712 1.363 . S
C1713 C1719 1.428 . S
H1714 C1710 0.930 . S
H1715 C1712 0.929 . S
S1716 N1717 1.613 . S
S1716 N1718 1.610 . S
N1717 S1716 1.613 . S
N1717 C1720 1.350 . S
N1718 S1716 1.610 . S
N1718 C1719 1.351 . S
C1719 C1713 1.428 . S
C1719 N1718 1.351 . S
C1719 C1720 1.434 . S
C1720 C1711 1.429 . S
C1720 N1717 1.350 . S
C1720 C1719 1.434 . S
C1721 C1722 1.369 . S
C1721 C1723 1.419 . S
C1721 H1725 0.930 . S
C1722 C1721 1.369 . S
C1722 C1731 1.429 . S
C1723 C1721 1.419 . S
C1723 C1724 1.363 . S
C1723 H1726 0.929 . S
C1724 C1723 1.363 . S
C1724 C1730 1.428 . S
H1725 C1721 0.930 . S
H1726 C1723 0.929 . S
S1727 N1728 1.613 . S
S1727 N1729 1.610 . S
N1728 S1727 1.613 . S
N1728 C1731 1.350 . S
N1729 S1727 1.610 . S
N1729 C1730 1.351 . S
C1730 C1724 1.428 . S
C1730 N1729 1.351 . S
C1730 C1731 1.434 . S
C1731 C1722 1.429 . S
C1731 N1728 1.350 . S
C1731 C1730 1.434 . S
C1732 C1733 1.369 . S
C1732 C1734 1.419 . S
C1732 H1736 0.930 . S
C1733 C1732 1.369 . S
C1733 C1742 1.429 . S
C1734 C1732 1.419 . S
C1734 C1735 1.363 . S
C1734 H1737 0.929 . S
C1735 C1734 1.363 . S
C1735 C1741 1.428 . S
H1736 C1732 0.930 . S
H1737 C1734 0.929 . S
S1738 N1739 1.613 . S
S1738 N1740 1.610 . S
N1739 S1738 1.613 . S
N1739 C1742 1.350 . S
N1740 S1738 1.610 . S
N1740 C1741 1.351 . S
C1741 C1735 1.428 . S
C1741 N1740 1.351 . S
C1741 C1742 1.434 . S
C1742 C1733 1.429 . S
C1742 N1739 1.350 . S
C1742 C1741 1.434 . S
C1743 C1744 1.369 . S
C1743 C1745 1.419 . S
C1743 H1747 0.930 . S
C1744 C1743 1.369 . S
C1744 C1753 1.429 . S
C1745 C1743 1.419 . S
C1745 C1746 1.363 . S
C1745 H1748 0.929 . S
C1746 C1745 1.363 . S
C1746 C1752 1.428 . S
H1747 C1743 0.930 . S
H1748 C1745 0.929 . S
S1749 N1750 1.613 . S
S1749 N1751 1.610 . S
N1750 S1749 1.613 . S
N1750 C1753 1.350 . S
N1751 S1749 1.610 . S
N1751 C1752 1.351 . S
C1752 C1746 1.428 . S
C1752 N1751 1.351 . S
C1752 C1753 1.434 . S
C1753 C1744 1.429 . S
C1753 N1750 1.350 . S
C1753 C1752 1.434 . S
C1754 C1755 1.369 . S
C1754 C1756 1.419 . S
C1754 H1758 0.930 . S
C1755 C1754 1.369 . S
C1755 C1764 1.429 . S
C1756 C1754 1.419 . S
C1756 C1757 1.363 . S
C1756 H1759 0.929 . S
C1757 C1756 1.363 . S
C1757 C1763 1.428 . S
H1758 C1754 0.930 . S
H1759 C1756 0.929 . S
S1760 N1761 1.613 . S
S1760 N1762 1.610 . S
N1761 S1760 1.613 . S
N1761 C1764 1.350 . S
N1762 S1760 1.610 . S
N1762 C1763 1.351 . S
C1763 C1757 1.428 . S
C1763 N1762 1.351 . S
C1763 C1764 1.434 . S
C1764 C1755 1.429 . S
C1764 N1761 1.350 . S
C1764 C1763 1.434 . S
C1765 C1766 1.369 . S
C1765 C1767 1.419 . S
C1765 H1769 0.930 . S
C1766 C1765 1.369 . S
C1766 C1775 1.429 . S
C1767 C1765 1.419 . S
C1767 C1768 1.363 . S
C1767 H1770 0.929 . S
C1768 C1767 1.363 . S
C1768 C1774 1.428 . S
H1769 C1765 0.930 . S
H1770 C1767 0.929 . S
S1771 N1772 1.613 . S
S1771 N1773 1.610 . S
N1772 S1771 1.613 . S
N1772 C1775 1.350 . S
N1773 S1771 1.610 . S
N1773 C1774 1.351 . S
C1774 C1768 1.428 . S
C1774 N1773 1.351 . S
C1774 C1775 1.434 . S
C1775 C1766 1.429 . S
C1775 N1772 1.350 . S
C1775 C1774 1.434 . S
C1776 C1777 1.369 . S
C1776 C1778 1.419 . S
C1776 H1780 0.930 . S
C1777 C1776 1.369 . S
C1777 C1786 1.429 . S
C1778 C1776 1.419 . S
C1778 C1779 1.363 . S
C1778 H1781 0.929 . S
C1779 C1778 1.363 . S
C1779 C1785 1.428 . S
H1780 C1776 0.930 . S
H1781 C1778 0.929 . S
S1782 N1783 1.613 . S
S1782 N1784 1.610 . S
N1783 S1782 1.613 . S
N1783 C1786 1.350 . S
N1784 S1782 1.610 . S
N1784 C1785 1.351 . S
C1785 C1779 1.428 . S
C1785 N1784 1.351 . S
C1785 C1786 1.434 . S
C1786 C1777 1.429 . S
C1786 N1783 1.350 . S
C1786 C1785 1.434 . S
C1787 C1788 1.369 . S
C1787 C1789 1.419 . S
C1787 H1791 0.930 . S
C1788 C1787 1.369 . S
C1788 C1797 1.429 . S
C1789 C1787 1.419 . S
C1789 C1790 1.363 . S
C1789 H1792 0.929 . S
C1790 C1789 1.363 . S
C1790 C1796 1.428 . S
H1791 C1787 0.930 . S
H1792 C1789 0.929 . S
S1793 N1794 1.613 . S
S1793 N1795 1.610 . S
N1794 S1793 1.613 . S
N1794 C1797 1.350 . S
N1795 S1793 1.610 . S
N1795 C1796 1.351 . S
C1796 C1790 1.428 . S
C1796 N1795 1.351 . S
C1796 C1797 1.434 . S
C1797 C1788 1.429 . S
C1797 N1794 1.350 . S
C1797 C1796 1.434 . S
C1798 C1799 1.369 . S
C1798 C1800 1.419 . S
C1798 H1802 0.930 . S
C1799 C1798 1.369 . S
C1799 C1808 1.429 . S
C1800 C1798 1.419 . S
C1800 C1801 1.363 . S
C1800 H1803 0.929 . S
C1801 C1800 1.363 . S
C1801 C1807 1.428 . S
H1802 C1798 0.930 . S
H1803 C1800 0.929 . S
S1804 N1805 1.613 . S
S1804 N1806 1.610 . S
N1805 S1804 1.613 . S
N1805 C1808 1.350 . S
N1806 S1804 1.610 . S
N1806 C1807 1.351 . S
C1807 C1801 1.428 . S
C1807 N1806 1.351 . S
C1807 C1808 1.434 . S
C1808 C1799 1.429 . S
C1808 N1805 1.350 . S
C1808 C1807 1.434 . S
C1809 C1810 1.369 . S
C1809 C1811 1.419 . S
C1809 H1813 0.930 . S
C1810 C1809 1.369 . S
C1810 C1819 1.429 . S
C1811 C1809 1.419 . S
C1811 C1812 1.363 . S
C1811 H1814 0.929 . S
C1812 C1811 1.363 . S
C1812 C1818 1.428 . S
H1813 C1809 0.930 . S
H1814 C1811 0.929 . S
S1815 N1816 1.613 . S
S1815 N1817 1.610 . S
N1816 S1815 1.613 . S
N1816 C1819 1.350 . S
N1817 S1815 1.610 . S
N1817 C1818 1.351 . S
C1818 C1812 1.428 . S
C1818 N1817 1.351 . S
C1818 C1819 1.434 . S
C1819 C1810 1.429 . S
C1819 N1816 1.350 . S
C1819 C1818 1.434 . S
C1820 C1821 1.369 . S
C1820 C1822 1.419 . S
C1820 H1824 0.930 . S
C1821 C1820 1.369 . S
C1821 C1830 1.429 . S
C1822 C1820 1.419 . S
C1822 C1823 1.363 . S
C1822 H1825 0.929 . S
C1823 C1822 1.363 . S
C1823 C1829 1.428 . S
H1824 C1820 0.930 . S
H1825 C1822 0.929 . S
S1826 N1827 1.613 . S
S1826 N1828 1.610 . S
N1827 S1826 1.613 . S
N1827 C1830 1.350 . S
N1828 S1826 1.610 . S
N1828 C1829 1.351 . S
C1829 C1823 1.428 . S
C1829 N1828 1.351 . S
C1829 C1830 1.434 . S
C1830 C1821 1.429 . S
C1830 N1827 1.350 . S
C1830 C1829 1.434 . S
C1831 C1832 1.369 . S
C1831 C1833 1.419 . S
C1831 H1835 0.930 . S
C1832 C1831 1.369 . S
C1832 C1841 1.429 . S
C1833 C1831 1.419 . S
C1833 C1834 1.363 . S
C1833 H1836 0.929 . S
C1834 C1833 1.363 . S
C1834 C1840 1.428 . S
H1835 C1831 0.930 . S
H1836 C1833 0.929 . S
S1837 N1838 1.613 . S
S1837 N1839 1.610 . S
N1838 S1837 1.613 . S
N1838 C1841 1.350 . S
N1839 S1837 1.610 . S
N1839 C1840 1.351 . S
C1840 C1834 1.428 . S
C1840 N1839 1.351 . S
C1840 C1841 1.434 . S
C1841 C1832 1.429 . S
C1841 N1838 1.350 . S
C1841 C1840 1.434 . S
C1842 C1843 1.369 . S
C1842 C1844 1.419 . S
C1842 H1846 0.930 . S
C1843 C1842 1.369 . S
C1843 C1852 1.429 . S
C1844 C1842 1.419 . S
C1844 C1845 1.363 . S
C1844 H1847 0.929 . S
C1845 C1844 1.363 . S
C1845 C1851 1.428 . S
H1846 C1842 0.930 . S
H1847 C1844 0.929 . S
S1848 N1849 1.613 . S
S1848 N1850 1.610 . S
N1849 S1848 1.613 . S
N1849 C1852 1.350 . S
N1850 S1848 1.610 . S
N1850 C1851 1.351 . S
C1851 C1845 1.428 . S
C1851 N1850 1.351 . S
C1851 C1852 1.434 . S
C1852 C1843 1.429 . S
C1852 N1849 1.350 . S
C1852 C1851 1.434 . S
C1853 C1854 1.369 . S
C1853 C1855 1.419 . S
C1853 H1857 0.930 . S
C1854 C1853 1.369 . S
C1854 C1863 1.429 . S
C1855 C1853 1.419 . S
C1855 C1856 1.363 . S
C1855 H1858 0.929 . S
C1856 C1855 1.363 . S
C1856 C1862 1.428 . S
H1857 C1853 0.930 . S
H1858 C1855 0.929 . S
S1859 N1860 1.613 . S
S1859 N1861 1.610 . S
N1860 S1859 1.613 . S
N1860 C1863 1.350 . S
N1861 S1859 1.610 . S
N1861 C1862 1.351 . S
C1862 C1856 1.428 . S
C1862 N1861 1.351 . S
C1862 C1863 1.434 . S
C1863 C1854 1.429 . S
C1863 N1860 1.350 . S
C1863 C1862 1.434 . S
C1864 C1865 1.369 . S
C1864 C1866 1.419 . S
C1864 H1868 0.930 . S
C1865 C1864 1.369 . S
C1865 C1874 1.429 . S
C1866 C1864 1.419 . S
C1866 C1867 1.363 . S
C1866 H1869 0.929 . S
C1867 C1866 1.363 . S
C1867 C1873 1.428 . S
H1868 C1864 0.930 . S
H1869 C1866 0.929 . S
S1870 N1871 1.613 . S
S1870 N1872 1.610 . S
N1871 S1870 1.613 . S
N1871 C1874 1.350 . S
N1872 S1870 1.610 . S
N1872 C1873 1.351 . S
C1873 C1867 1.428 . S
C1873 N1872 1.351 . S
C1873 C1874 1.434 . S
C1874 C1865 1.429 . S
C1874 N1871 1.350 . S
C1874 C1873 1.434 . S
C1875 C1876 1.369 . S
C1875 C1877 1.419 . S
C1875 H1879 0.930 . S
C1876 C1875 1.369 . S
C1876 C1885 1.429 . S
C1877 C1875 1.419 . S
C1877 C1878 1.363 . S
C1877 H1880 0.929 . S
C1878 C1877 1.363 . S
C1878 C1884 1.428 . S
H1879 C1875 0.930 . S
H1880 C1877 0.929 . S
S1881 N1882 1.613 . S
S1881 N1883 1.610 . S
N1882 S1881 1.613 . S
N1882 C1885 1.350 . S
N1883 S1881 1.610 . S
N1883 C1884 1.351 . S
C1884 C1878 1.428 . S
C1884 N1883 1.351 . S
C1884 C1885 1.434 . S
C1885 C1876 1.429 . S
C1885 N1882 1.350 . S
C1885 C1884 1.434 . S
C1886 C1887 1.369 . S
C1886 C1888 1.419 . S
C1886 H1890 0.930 . S
C1887 C1886 1.369 . S
C1887 C1896 1.429 . S
C1888 C1886 1.419 . S
C1888 C1889 1.363 . S
C1888 H1891 0.929 . S
C1889 C1888 1.363 . S
C1889 C1895 1.428 . S
H1890 C1886 0.930 . S
H1891 C1888 0.929 . S
S1892 N1893 1.613 . S
S1892 N1894 1.610 . S
N1893 S1892 1.613 . S
N1893 C1896 1.350 . S
N1894 S1892 1.610 . S
N1894 C1895 1.351 . S
C1895 C1889 1.428 . S
C1895 N1894 1.351 . S
C1895 C1896 1.434 . S
C1896 C1887 1.429 . S
C1896 N1893 1.350 . S
C1896 C1895 1.434 . S
C1897 C1898 1.369 . S
C1897 C1899 1.419 . S
C1897 H1901 0.930 . S
C1898 C1897 1.369 . S
C1898 C1907 1.429 . S
C1899 C1897 1.419 . S
C1899 C1900 1.363 . S
C1899 H1902 0.929 . S
C1900 C1899 1.363 . S
C1900 C1906 1.428 . S
H1901 C1897 0.930 . S
H1902 C1899 0.929 . S
S1903 N1904 1.613 . S
S1903 N1905 1.610 . S
N1904 S1903 1.613 . S
N1904 C1907 1.350 . S
N1905 S1903 1.610 . S
N1905 C1906 1.351 . S
C1906 C1900 1.428 . S
C1906 N1905 1.351 . S
C1906 C1907 1.434 . S
C1907 C1898 1.429 . S
C1907 N1904 1.350 . S
C1907 C1906 1.434 . S
C1908 C1909 1.369 . S
C1908 C1910 1.419 . S
C1908 H1912 0.930 . S
C1909 C1908 1.369 . S
C1909 C1918 1.429 . S
C1910 C1908 1.419 . S
C1910 C1911 1.363 . S
C1910 H1913 0.929 . S
C1911 C1910 1.363 . S
C1911 C1917 1.428 . S
H1912 C1908 0.930 . S
H1913 C1910 0.929 . S
S1914 N1915 1.613 . S
S1914 N1916 1.610 . S
N1915 S1914 1.613 . S
N1915 C1918 1.350 . S
N1916 S1914 1.610 . S
N1916 C1917 1.351 . S
C1917 C1911 1.428 . S
C1917 N1916 1.351 . S
C1917 C1918 1.434 . S
C1918 C1909 1.429 . S
C1918 N1915 1.350 . S
C1918 C1917 1.434 . S
C1919 C1920 1.369 . S
C1919 C1921 1.419 . S
C1919 H1923 0.930 . S
C1920 C1919 1.369 . S
C1920 C1929 1.429 . S
C1921 C1919 1.419 . S
C1921 C1922 1.363 . S
C1921 H1924 0.929 . S
C1922 C1921 1.363 . S
C1922 C1928 1.428 . S
H1923 C1919 0.930 . S
H1924 C1921 0.929 . S
S1925 N1926 1.613 . S
S1925 N1927 1.610 . S
N1926 S1925 1.613 . S
N1926 C1929 1.350 . S
N1927 S1925 1.610 . S
N1927 C1928 1.351 . S
C1928 C1922 1.428 . S
C1928 N1927 1.351 . S
C1928 C1929 1.434 . S
C1929 C1920 1.429 . S
C1929 N1926 1.350 . S
C1929 C1928 1.434 . S
C1930 C1931 1.369 . S
C1930 C1932 1.419 . S
C1930 H1934 0.930 . S
C1931 C1930 1.369 . S
C1931 C1940 1.429 . S
C1932 C1930 1.419 . S
C1932 C1933 1.363 . S
C1932 H1935 0.929 . S
C1933 C1932 1.363 . S
C1933 C1939 1.428 . S
H1934 C1930 0.930 . S
H1935 C1932 0.929 . S
S1936 N1937 1.613 . S
S1936 N1938 1.610 . S
N1937 S1936 1.613 . S
N1937 C1940 1.350 . S
N1938 S1936 1.610 . S
N1938 C1939 1.351 . S
C1939 C1933 1.428 . S
C1939 N1938 1.351 . S
C1939 C1940 1.434 . S
C1940 C1931 1.429 . S
C1940 N1937 1.350 . S
C1940 C1939 1.434 . S
C1941 C1942 1.369 . S
C1941 C1943 1.419 . S
C1941 H1945 0.930 . S
C1942 C1941 1.369 . S
C1942 C1951 1.429 . S
C1943 C1941 1.419 . S
C1943 C1944 1.363 . S
C1943 H1946 0.929 . S
C1944 C1943 1.363 . S
C1944 C1950 1.428 . S
H1945 C1941 0.930 . S
H1946 C1943 0.929 . S
S1947 N1948 1.613 . S
S1947 N1949 1.610 . S
N1948 S1947 1.613 . S
N1948 C1951 1.350 . S
N1949 S1947 1.610 . S
N1949 C1950 1.351 . S
C1950 C1944 1.428 . S
C1950 N1949 1.351 . S
C1950 C1951 1.434 . S
C1951 C1942 1.429 . S
C1951 N1948 1.350 . S
C1951 C1950 1.434 . S
C1952 C1953 1.369 . S
C1952 C1954 1.419 . S
C1952 H1956 0.930 . S
C1953 C1952 1.369 . S
C1953 C1962 1.429 . S
C1954 C1952 1.419 . S
C1954 C1955 1.363 . S
C1954 H1957 0.929 . S
C1955 C1954 1.363 . S
C1955 C1961 1.428 . S
H1956 C1952 0.930 . S
H1957 C1954 0.929 . S
S1958 N1959 1.613 . S
S1958 N1960 1.610 . S
N1959 S1958 1.613 . S
N1959 C1962 1.350 . S
N1960 S1958 1.610 . S
N1960 C1961 1.351 . S
C1961 C1955 1.428 . S
C1961 N1960 1.351 . S
C1961 C1962 1.434 . S
C1962 C1953 1.429 . S
C1962 N1959 1.350 . S
C1962 C1961 1.434 . S
C1963 C1964 1.369 . S
C1963 C1965 1.419 . S
C1963 H1967 0.930 . S
C1964 C1963 1.369 . S
C1964 C1973 1.429 . S
C1965 C1963 1.419 . S
C1965 C1966 1.363 . S
C1965 H1968 0.929 . S
C1966 C1965 1.363 . S
C1966 C1972 1.428 . S
H1967 C1963 0.930 . S
H1968 C1965 0.929 . S
S1969 N1970 1.613 . S
S1969 N1971 1.610 . S
N1970 S1969 1.613 . S
N1970 C1973 1.350 . S
N1971 S1969 1.610 . S
N1971 C1972 1.351 . S
C1972 C1966 1.428 . S
C1972 N1971 1.351 . S
C1972 C1973 1.434 . S
C1973 C1964 1.429 . S
C1973 N1970 1.350 . S
C1973 C1972 1.434 . S
C1974 C1975 1.369 . S
C1974 C1976 1.419 . S
C1974 H1978 0.930 . S
C1975 C1974 1.369 . S
C1975 C1984 1.429 . S
C1976 C1974 1.419 . S
C1976 C1977 1.363 . S
C1976 H1979 0.929 . S
C1977 C1976 1.363 . S
C1977 C1983 1.428 . S
H1978 C1974 0.930 . S
H1979 C1976 0.929 . S
S1980 N1981 1.613 . S
S1980 N1982 1.610 . S
N1981 S1980 1.613 . S
N1981 C1984 1.350 . S
N1982 S1980 1.610 . S
N1982 C1983 1.351 . S
C1983 C1977 1.428 . S
C1983 N1982 1.351 . S
C1983 C1984 1.434 . S
C1984 C1975 1.429 . S
C1984 N1981 1.350 . S
C1984 C1983 1.434 . S
C1985 C1986 1.369 . S
C1985 C1987 1.419 . S
C1985 H1989 0.930 . S
C1986 C1985 1.369 . S
C1986 C1995 1.429 . S
C1987 C1985 1.419 . S
C1987 C1988 1.363 . S
C1987 H1990 0.929 . S
C1988 C1987 1.363 . S
C1988 C1994 1.428 . S
H1989 C1985 0.930 . S
H1990 C1987 0.929 . S
S1991 N1992 1.613 . S
S1991 N1993 1.610 . S
N1992 S1991 1.613 . S
N1992 C1995 1.350 . S
N1993 S1991 1.610 . S
N1993 C1994 1.351 . S
C1994 C1988 1.428 . S
C1994 N1993 1.351 . S
C1994 C1995 1.434 . S
C1995 C1986 1.429 . S
C1995 N1992 1.350 . S
C1995 C1994 1.434 . S
C1996 C1997 1.369 . S
C1996 C1998 1.419 . S
C1996 H2000 0.930 . S
C1997 C1996 1.369 . S
C1997 C2006 1.429 . S
C1998 C1996 1.419 . S
C1998 C1999 1.363 . S
C1998 H2001 0.929 . S
C1999 C1998 1.363 . S
C1999 C2005 1.428 . S
H2000 C1996 0.930 . S
H2001 C1998 0.929 . S
S2002 N2003 1.613 . S
S2002 N2004 1.610 . S
N2003 S2002 1.613 . S
N2003 C2006 1.350 . S
N2004 S2002 1.610 . S
N2004 C2005 1.351 . S
C2005 C1999 1.428 . S
C2005 N2004 1.351 . S
C2005 C2006 1.434 . S
C2006 C1997 1.429 . S
C2006 N2003 1.350 . S
C2006 C2005 1.434 . S
C2007 C2008 1.369 . S
C2007 C2009 1.419 . S
C2007 H2011 0.930 . S
C2008 C2007 1.369 . S
C2008 C2017 1.429 . S
C2009 C2007 1.419 . S
C2009 C2010 1.363 . S
C2009 H2012 0.929 . S
C2010 C2009 1.363 . S
C2010 C2016 1.428 . S
H2011 C2007 0.930 . S
H2012 C2009 0.929 . S
S2013 N2014 1.613 . S
S2013 N2015 1.610 . S
N2014 S2013 1.613 . S
N2014 C2017 1.350 . S
N2015 S2013 1.610 . S
N2015 C2016 1.351 . S
C2016 C2010 1.428 . S
C2016 N2015 1.351 . S
C2016 C2017 1.434 . S
C2017 C2008 1.429 . S
C2017 N2014 1.350 . S
C2017 C2016 1.434 . S
C2018 C2019 1.369 . S
C2018 C2020 1.419 . S
C2018 H2022 0.930 . S
C2019 C2018 1.369 . S
C2019 C2028 1.429 . S
C2020 C2018 1.419 . S
C2020 C2021 1.363 . S
C2020 H2023 0.929 . S
C2021 C2020 1.363 . S
C2021 C2027 1.428 . S
H2022 C2018 0.930 . S
H2023 C2020 0.929 . S
S2024 N2025 1.613 . S
S2024 N2026 1.610 . S
N2025 S2024 1.613 . S
N2025 C2028 1.350 . S
N2026 S2024 1.610 . S
N2026 C2027 1.351 . S
C2027 C2021 1.428 . S
C2027 N2026 1.351 . S
C2027 C2028 1.434 . S
C2028 C2019 1.429 . S
C2028 N2025 1.350 . S
C2028 C2027 1.434 . S
C2029 C2030 1.369 . S
C2029 C2031 1.419 . S
C2029 H2033 0.930 . S
C2030 C2029 1.369 . S
C2030 C2039 1.429 . S
C2031 C2029 1.419 . S
C2031 C2032 1.363 . S
C2031 H2034 0.929 . S
C2032 C2031 1.363 . S
C2032 C2038 1.428 . S
H2033 C2029 0.930 . S
H2034 C2031 0.929 . S
S2035 N2036 1.613 . S
S2035 N2037 1.610 . S
N2036 S2035 1.613 . S
N2036 C2039 1.350 . S
N2037 S2035 1.610 . S
N2037 C2038 1.351 . S
C2038 C2032 1.428 . S
C2038 N2037 1.351 . S
C2038 C2039 1.434 . S
C2039 C2030 1.429 . S
C2039 N2036 1.350 . S
C2039 C2038 1.434 . S
C2040 C2041 1.369 . S
C2040 C2042 1.419 . S
C2040 H2044 0.930 . S
C2041 C2040 1.369 . S
C2041 C2050 1.429 . S
C2042 C2040 1.419 . S
C2042 C2043 1.363 . S
C2042 H2045 0.929 . S
C2043 C2042 1.363 . S
C2043 C2049 1.428 . S
H2044 C2040 0.930 . S
H2045 C2042 0.929 . S
S2046 N2047 1.613 . S
S2046 N2048 1.610 . S
N2047 S2046 1.613 . S
N2047 C2050 1.350 . S
N2048 S2046 1.610 . S
N2048 C2049 1.351 . S
C2049 C2043 1.428 . S
C2049 N2048 1.351 . S
C2049 C2050 1.434 . S
C2050 C2041 1.429 . S
C2050 N2047 1.350 . S
C2050 C2049 1.434 . S
C2051 C2052 1.369 . S
C2051 C2053 1.419 . S
C2051 H2055 0.930 . S
C2052 C2051 1.369 . S
C2052 C2061 1.429 . S
C2053 C2051 1.419 . S
C2053 C2054 1.363 . S
C2053 H2056 0.929 . S
C2054 C2053 1.363 . S
C2054 C2060 1.428 . S
H2055 C2051 0.930 . S
H2056 C2053 0.929 . S
S2057 N2058 1.613 . S
S2057 N2059 1.610 . S
N2058 S2057 1.613 . S
N2058 C2061 1.350 . S
N2059 S2057 1.610 . S
N2059 C2060 1.351 . S
C2060 C2054 1.428 . S
C2060 N2059 1.351 . S
C2060 C2061 1.434 . S
C2061 C2052 1.429 . S
C2061 N2058 1.350 . S
C2061 C2060 1.434 . S
C2062 C2063 1.369 . S
C2062 C2064 1.419 . S
C2062 H2066 0.930 . S
C2063 C2062 1.369 . S
C2063 C2072 1.429 . S
C2064 C2062 1.419 . S
C2064 C2065 1.363 . S
C2064 H2067 0.929 . S
C2065 C2064 1.363 . S
C2065 C2071 1.428 . S
H2066 C2062 0.930 . S
H2067 C2064 0.929 . S
S2068 N2069 1.613 . S
S2068 N2070 1.610 . S
N2069 S2068 1.613 . S
N2069 C2072 1.350 . S
N2070 S2068 1.610 . S
N2070 C2071 1.351 . S
C2071 C2065 1.428 . S
C2071 N2070 1.351 . S
C2071 C2072 1.434 . S
C2072 C2063 1.429 . S
C2072 N2069 1.350 . S
C2072 C2071 1.434 . S
C2073 C2074 1.369 . S
C2073 C2075 1.419 . S
C2073 H2077 0.930 . S
C2074 C2073 1.369 . S
C2074 C2083 1.429 . S
C2075 C2073 1.419 . S
C2075 C2076 1.363 . S
C2075 H2078 0.929 . S
C2076 C2075 1.363 . S
C2076 C2082 1.428 . S
H2077 C2073 0.930 . S
H2078 C2075 0.929 . S
S2079 N2080 1.613 . S
S2079 N2081 1.610 . S
N2080 S2079 1.613 . S
N2080 C2083 1.350 . S
N2081 S2079 1.610 . S
N2081 C2082 1.351 . S
C2082 C2076 1.428 . S
C2082 N2081 1.351 . S
C2082 C2083 1.434 . S
C2083 C2074 1.429 . S
C2083 N2080 1.350 . S
C2083 C2082 1.434 . S
C2084 C2085 1.369 . S
C2084 C2086 1.419 . S
C2084 H2088 0.930 . S
C2085 C2084 1.369 . S
C2085 C2094 1.429 . S
C2086 C2084 1.419 . S
C2086 C2087 1.363 . S
C2086 H2089 0.929 . S
C2087 C2086 1.363 . S
C2087 C2093 1.428 . S
H2088 C2084 0.930 . S
H2089 C2086 0.929 . S
S2090 N2091 1.613 . S
S2090 N2092 1.610 . S
N2091 S2090 1.613 . S
N2091 C2094 1.350 . S
N2092 S2090 1.610 . S
N2092 C2093 1.351 . S
C2093 C2087 1.428 . S
C2093 N2092 1.351 . S
C2093 C2094 1.434 . S
C2094 C2085 1.429 . S
C2094 N2091 1.350 . S
C2094 C2093 1.434 . S
C2095 C2096 1.369 . S
C2095 C2097 1.419 . S
C2095 H2099 0.930 . S
C2096 C2095 1.369 . S
C2096 C2105 1.429 . S
C2097 C2095 1.419 . S
C2097 C2098 1.363 . S
C2097 H2100 0.929 . S
C2098 C2097 1.363 . S
C2098 C2104 1.428 . S
H2099 C2095 0.930 . S
H2100 C2097 0.929 . S
S2101 N2102 1.613 . S
S2101 N2103 1.610 . S
N2102 S2101 1.613 . S
N2102 C2105 1.350 . S
N2103 S2101 1.610 . S
N2103 C2104 1.351 . S
C2104 C2098 1.428 . S
C2104 N2103 1.351 . S
C2104 C2105 1.434 . S
C2105 C2096 1.429 . S
C2105 N2102 1.350 . S
C2105 C2104 1.434 . S
C2106 C2107 1.369 . S
C2106 C2108 1.419 . S
C2106 H2110 0.930 . S
C2107 C2106 1.369 . S
C2107 C2116 1.429 . S
C2108 C2106 1.419 . S
C2108 C2109 1.363 . S
C2108 H2111 0.929 . S
C2109 C2108 1.363 . S
C2109 C2115 1.428 . S
H2110 C2106 0.930 . S
H2111 C2108 0.929 . S
S2112 N2113 1.613 . S
S2112 N2114 1.610 . S
N2113 S2112 1.613 . S
N2113 C2116 1.350 . S
N2114 S2112 1.610 . S
N2114 C2115 1.351 . S
C2115 C2109 1.428 . S
C2115 N2114 1.351 . S
C2115 C2116 1.434 . S
C2116 C2107 1.429 . S
C2116 N2113 1.350 . S
C2116 C2115 1.434 . S
C2117 C2118 1.369 . S
C2117 C2119 1.419 . S
C2117 H2121 0.930 . S
C2118 C2117 1.369 . S
C2118 C2127 1.429 . S
C2119 C2117 1.419 . S
C2119 C2120 1.363 . S
C2119 H2122 0.929 . S
C2120 C2119 1.363 . S
C2120 C2126 1.428 . S
H2121 C2117 0.930 . S
H2122 C2119 0.929 . S
S2123 N2124 1.613 . S
S2123 N2125 1.610 . S
N2124 S2123 1.613 . S
N2124 C2127 1.350 . S
N2125 S2123 1.610 . S
N2125 C2126 1.351 . S
C2126 C2120 1.428 . S
C2126 N2125 1.351 . S
C2126 C2127 1.434 . S
C2127 C2118 1.429 . S
C2127 N2124 1.350 . S
C2127 C2126 1.434 . S
C2128 C2129 1.369 . S
C2128 C2130 1.419 . S
C2128 H2132 0.930 . S
C2129 C2128 1.369 . S
C2129 C2138 1.429 . S
C2130 C2128 1.419 . S
C2130 C2131 1.363 . S
C2130 H2133 0.929 . S
C2131 C2130 1.363 . S
C2131 C2137 1.428 . S
H2132 C2128 0.930 . S
H2133 C2130 0.929 . S
S2134 N2135 1.613 . S
S2134 N2136 1.610 . S
N2135 S2134 1.613 . S
N2135 C2138 1.350 . S
N2136 S2134 1.610 . S
N2136 C2137 1.351 . S
C2137 C2131 1.428 . S
C2137 N2136 1.351 . S
C2137 C2138 1.434 . S
C2138 C2129 1.429 . S
C2138 N2135 1.350 . S
C2138 C2137 1.434 . S
C2139 C2140 1.369 . S
C2139 C2141 1.419 . S
C2139 H2143 0.930 . S
C2140 C2139 1.369 . S
C2140 C2149 1.429 . S
C2141 C2139 1.419 . S
C2141 C2142 1.363 . S
C2141 H2144 0.929 . S
C2142 C2141 1.363 . S
C2142 C2148 1.428 . S
H2143 C2139 0.930 . S
H2144 C2141 0.929 . S
S2145 N2146 1.613 . S
S2145 N2147 1.610 . S
N2146 S2145 1.613 . S
N2146 C2149 1.350 . S
N2147 S2145 1.610 . S
N2147 C2148 1.351 . S
C2148 C2142 1.428 . S
C2148 N2147 1.351 . S
C2148 C2149 1.434 . S
C2149 C2140 1.429 . S
C2149 N2146 1.350 . S
C2149 C2148 1.434 . S
C2150 C2151 1.369 . S
C2150 C2152 1.419 . S
C2150 H2154 0.930 . S
C2151 C2150 1.369 . S
C2151 C2160 1.429 . S
C2152 C2150 1.419 . S
C2152 C2153 1.363 . S
C2152 H2155 0.929 . S
C2153 C2152 1.363 . S
C2153 C2159 1.428 . S
H2154 C2150 0.930 . S
H2155 C2152 0.929 . S
S2156 N2157 1.613 . S
S2156 N2158 1.610 . S
N2157 S2156 1.613 . S
N2157 C2160 1.350 . S
N2158 S2156 1.610 . S
N2158 C2159 1.351 . S
C2159 C2153 1.428 . S
C2159 N2158 1.351 . S
C2159 C2160 1.434 . S
C2160 C2151 1.429 . S
C2160 N2157 1.350 . S
C2160 C2159 1.434 . S
C2161 C2162 1.369 . S
C2161 C2163 1.419 . S
C2161 H2165 0.930 . S
C2162 C2161 1.369 . S
C2162 C2171 1.429 . S
C2163 C2161 1.419 . S
C2163 C2164 1.363 . S
C2163 H2166 0.929 . S
C2164 C2163 1.363 . S
C2164 C2170 1.428 . S
H2165 C2161 0.930 . S
H2166 C2163 0.929 . S
S2167 N2168 1.613 . S
S2167 N2169 1.610 . S
N2168 S2167 1.613 . S
N2168 C2171 1.350 . S
N2169 S2167 1.610 . S
N2169 C2170 1.351 . S
C2170 C2164 1.428 . S
C2170 N2169 1.351 . S
C2170 C2171 1.434 . S
C2171 C2162 1.429 . S
C2171 N2168 1.350 . S
C2171 C2170 1.434 . S
C2172 C2173 1.369 . S
C2172 C2174 1.419 . S
C2172 H2176 0.930 . S
C2173 C2172 1.369 . S
C2173 C2182 1.429 . S
C2174 C2172 1.419 . S
C2174 C2175 1.363 . S
C2174 H2177 0.929 . S
C2175 C2174 1.363 . S
C2175 C2181 1.428 . S
H2176 C2172 0.930 . S
H2177 C2174 0.929 . S
S2178 N2179 1.613 . S
S2178 N2180 1.610 . S
N2179 S2178 1.613 . S
N2179 C2182 1.350 . S
N2180 S2178 1.610 . S
N2180 C2181 1.351 . S
C2181 C2175 1.428 . S
C2181 N2180 1.351 . S
C2181 C2182 1.434 . S
C2182 C2173 1.429 . S
C2182 N2179 1.350 . S
C2182 C2181 1.434 . S
C2183 C2184 1.369 . S
C2183 C2185 1.419 . S
C2183 H2187 0.930 . S
C2184 C2183 1.369 . S
C2184 C2193 1.429 . S
C2185 C2183 1.419 . S
C2185 C2186 1.363 . S
C2185 H2188 0.929 . S
C2186 C2185 1.363 . S
C2186 C2192 1.428 . S
H2187 C2183 0.930 . S
H2188 C2185 0.929 . S
S2189 N2190 1.613 . S
S2189 N2191 1.610 . S
N2190 S2189 1.613 . S
N2190 C2193 1.350 . S
N2191 S2189 1.610 . S
N2191 C2192 1.351 . S
C2192 C2186 1.428 . S
C2192 N2191 1.351 . S
C2192 C2193 1.434 . S
C2193 C2184 1.429 . S
C2193 N2190 1.350 . S
C2193 C2192 1.434 . S
C2194 C2195 1.369 . S
C2194 C2196 1.419 . S
C2194 H2198 0.930 . S
C2195 C2194 1.369 . S
C2195 C2204 1.429 . S
C2196 C2194 1.419 . S
C2196 C2197 1.363 . S
C2196 H2199 0.929 . S
C2197 C2196 1.363 . S
C2197 C2203 1.428 . S
H2198 C2194 0.930 . S
H2199 C2196 0.929 . S
S2200 N2201 1.613 . S
S2200 N2202 1.610 . S
N2201 S2200 1.613 . S
N2201 C2204 1.350 . S
N2202 S2200 1.610 . S
N2202 C2203 1.351 . S
C2203 C2197 1.428 . S
C2203 N2202 1.351 . S
C2203 C2204 1.434 . S
C2204 C2195 1.429 . S
C2204 N2201 1.350 . S
C2204 C2203 1.434 . S
C2205 C2206 1.369 . S
C2205 C2207 1.419 . S
C2205 H2209 0.930 . S
C2206 C2205 1.369 . S
C2206 C2215 1.429 . S
C2207 C2205 1.419 . S
C2207 C2208 1.363 . S
C2207 H2210 0.929 . S
C2208 C2207 1.363 . S
C2208 C2214 1.428 . S
H2209 C2205 0.930 . S
H2210 C2207 0.929 . S
S2211 N2212 1.613 . S
S2211 N2213 1.610 . S
N2212 S2211 1.613 . S
N2212 C2215 1.350 . S
N2213 S2211 1.610 . S
N2213 C2214 1.351 . S
C2214 C2208 1.428 . S
C2214 N2213 1.351 . S
C2214 C2215 1.434 . S
C2215 C2206 1.429 . S
C2215 N2212 1.350 . S
C2215 C2214 1.434 . S
C2216 C2217 1.369 . S
C2216 C2218 1.419 . S
C2216 H2220 0.930 . S
C2217 C2216 1.369 . S
C2217 C2226 1.429 . S
C2218 C2216 1.419 . S
C2218 C2219 1.363 . S
C2218 H2221 0.929 . S
C2219 C2218 1.363 . S
C2219 C2225 1.428 . S
H2220 C2216 0.930 . S
H2221 C2218 0.929 . S
S2222 N2223 1.613 . S
S2222 N2224 1.610 . S
N2223 S2222 1.613 . S
N2223 C2226 1.350 . S
N2224 S2222 1.610 . S
N2224 C2225 1.351 . S
C2225 C2219 1.428 . S
C2225 N2224 1.351 . S
C2225 C2226 1.434 . S
C2226 C2217 1.429 . S
C2226 N2223 1.350 . S
C2226 C2225 1.434 . S
C2227 C2228 1.369 . S
C2227 C2229 1.419 . S
C2227 H2231 0.930 . S
C2228 C2227 1.369 . S
C2228 C2237 1.429 . S
C2229 C2227 1.419 . S
C2229 C2230 1.363 . S
C2229 H2232 0.929 . S
C2230 C2229 1.363 . S
C2230 C2236 1.428 . S
H2231 C2227 0.930 . S
H2232 C2229 0.929 . S
S2233 N2234 1.613 . S
S2233 N2235 1.610 . S
N2234 S2233 1.613 . S
N2234 C2237 1.350 . S
N2235 S2233 1.610 . S
N2235 C2236 1.351 . S
C2236 C2230 1.428 . S
C2236 N2235 1.351 . S
C2236 C2237 1.434 . S
C2237 C2228 1.429 . S
C2237 N2234 1.350 . S
C2237 C2236 1.434 . S
C2238 C2239 1.369 . S
C2238 C2240 1.419 . S
C2238 H2242 0.930 . S
C2239 C2238 1.369 . S
C2239 C2248 1.429 . S
C2240 C2238 1.419 . S
C2240 C2241 1.363 . S
C2240 H2243 0.929 . S
C2241 C2240 1.363 . S
C2241 C2247 1.428 . S
H2242 C2238 0.930 . S
H2243 C2240 0.929 . S
S2244 N2245 1.613 . S
S2244 N2246 1.610 . S
N2245 S2244 1.613 . S
N2245 C2248 1.350 . S
N2246 S2244 1.610 . S
N2246 C2247 1.351 . S
C2247 C2241 1.428 . S
C2247 N2246 1.351 . S
C2247 C2248 1.434 . S
C2248 C2239 1.429 . S
C2248 N2245 1.350 . S
C2248 C2247 1.434 . S
C2249 C2250 1.369 . S
C2249 C2251 1.419 . S
C2249 H2253 0.930 . S
C2250 C2249 1.369 . S
C2250 C2259 1.429 . S
C2251 C2249 1.419 . S
C2251 C2252 1.363 . S
C2251 H2254 0.929 . S
C2252 C2251 1.363 . S
C2252 C2258 1.428 . S
H2253 C2249 0.930 . S
H2254 C2251 0.929 . S
S2255 N2256 1.613 . S
S2255 N2257 1.610 . S
N2256 S2255 1.613 . S
N2256 C2259 1.350 . S
N2257 S2255 1.610 . S
N2257 C2258 1.351 . S
C2258 C2252 1.428 . S
C2258 N2257 1.351 . S
C2258 C2259 1.434 . S
C2259 C2250 1.429 . S
C2259 N2256 1.350 . S
C2259 C2258 1.434 . S
C2260 C2261 1.369 . S
C2260 C2262 1.419 . S
C2260 H2264 0.930 . S
C2261 C2260 1.369 . S
C2261 C2270 1.429 . S
C2262 C2260 1.419 . S
C2262 C2263 1.363 . S
C2262 H2265 0.929 . S
C2263 C2262 1.363 . S
C2263 C2269 1.428 . S
H2264 C2260 0.930 . S
H2265 C2262 0.929 . S
S2266 N2267 1.613 . S
S2266 N2268 1.610 . S
N2267 S2266 1.613 . S
N2267 C2270 1.350 . S
N2268 S2266 1.610 . S
N2268 C2269 1.351 . S
C2269 C2263 1.428 . S
C2269 N2268 1.351 . S
C2269 C2270 1.434 . S
C2270 C2261 1.429 . S
C2270 N2267 1.350 . S
C2270 C2269 1.434 . S
C2271 C2272 1.369 . S
C2271 C2273 1.419 . S
C2271 H2275 0.930 . S
C2272 C2271 1.369 . S
C2272 C2281 1.429 . S
C2273 C2271 1.419 . S
C2273 C2274 1.363 . S
C2273 H2276 0.929 . S
C2274 C2273 1.363 . S
C2274 C2280 1.428 . S
H2275 C2271 0.930 . S
H2276 C2273 0.929 . S
S2277 N2278 1.613 . S
S2277 N2279 1.610 . S
N2278 S2277 1.613 . S
N2278 C2281 1.350 . S
N2279 S2277 1.610 . S
N2279 C2280 1.351 . S
C2280 C2274 1.428 . S
C2280 N2279 1.351 . S
C2280 C2281 1.434 . S
C2281 C2272 1.429 . S
C2281 N2278 1.350 . S
C2281 C2280 1.434 . S
C2282 C2283 1.369 . S
C2282 C2284 1.419 . S
C2282 H2286 0.930 . S
C2283 C2282 1.369 . S
C2283 C2292 1.429 . S
C2284 C2282 1.419 . S
C2284 C2285 1.363 . S
C2284 H2287 0.929 . S
C2285 C2284 1.363 . S
C2285 C2291 1.428 . S
H2286 C2282 0.930 . S
H2287 C2284 0.929 . S
S2288 N2289 1.613 . S
S2288 N2290 1.610 . S
N2289 S2288 1.613 . S
N2289 C2292 1.350 . S
N2290 S2288 1.610 . S
N2290 C2291 1.351 . S
C2291 C2285 1.428 . S
C2291 N2290 1.351 . S
C2291 C2292 1.434 . S
C2292 C2283 1.429 . S
C2292 N2289 1.350 . S
C2292 C2291 1.434 . S
C2293 C2294 1.369 . S
C2293 C2295 1.419 . S
C2293 H2297 0.930 . S
C2294 C2293 1.369 . S
C2294 C2303 1.429 . S
C2295 C2293 1.419 . S
C2295 C2296 1.363 . S
C2295 H2298 0.929 . S
C2296 C2295 1.363 . S
C2296 C2302 1.428 . S
H2297 C2293 0.930 . S
H2298 C2295 0.929 . S
S2299 N2300 1.613 . S
S2299 N2301 1.610 . S
N2300 S2299 1.613 . S
N2300 C2303 1.350 . S
N2301 S2299 1.610 . S
N2301 C2302 1.351 . S
C2302 C2296 1.428 . S
C2302 N2301 1.351 . S
C2302 C2303 1.434 . S
C2303 C2294 1.429 . S
C2303 N2300 1.350 . S
C2303 C2302 1.434 . S
C2304 C2305 1.369 . S
C2304 C2306 1.419 1_455 S
C2304 H2308 0.930 . S
C2305 C2304 1.369 . S
C2305 C2314 1.429 . S
C2306 C2304 1.419 1_655 S
C2306 C2307 1.363 . S
C2306 H2309 0.929 . S
C2307 C2306 1.363 . S
C2307 C2313 1.428 . S
H2308 C2304 0.930 . S
H2309 C2306 0.929 . S
S2310 N2311 1.613 1_655 S
S2310 N2312 1.610 . S
N2311 S2310 1.613 1_455 S
N2311 C2314 1.350 . S
N2312 S2310 1.610 . S
N2312 C2313 1.351 . S
C2313 C2307 1.428 . S
C2313 N2312 1.351 . S
C2313 C2314 1.434 1_655 S
C2314 C2305 1.429 . S
C2314 N2311 1.350 . S
C2314 C2313 1.434 1_455 S
C2315 C2316 1.369 . S
C2315 C2317 1.419 1_545 S
C2315 H2319 0.930 . S
C2316 C2315 1.369 . S
C2316 C2325 1.429 . S
C2317 C2315 1.419 1_565 S
C2317 C2318 1.363 . S
C2317 H2320 0.929 . S
C2318 C2317 1.363 . S
C2318 C2324 1.428 . S
H2319 C2315 0.930 . S
H2320 C2317 0.929 . S
S2321 N2322 1.613 . S
S2321 N2323 1.610 1_545 S
N2322 S2321 1.613 . S
N2322 C2325 1.350 . S
N2323 S2321 1.610 1_565 S
N2323 C2324 1.351 . S
C2324 C2318 1.428 . S
C2324 N2323 1.351 . S
C2324 C2325 1.434 1_565 S
C2325 C2316 1.429 . S
C2325 N2322 1.350 . S
C2325 C2324 1.434 1_545 S
C2326 C2327 1.369 . S
C2326 C2328 1.419 1_655 S
C2326 H2330 0.930 . S
C2327 C2326 1.369 . S
C2327 C2336 1.429 . S
C2328 C2326 1.419 1_455 S
C2328 C2329 1.363 . S
C2328 H2331 0.929 . S
C2329 C2328 1.363 . S
C2329 C2335 1.428 . S
H2330 C2326 0.930 . S
H2331 C2328 0.929 . S
S2332 N2333 1.613 1_455 S
S2332 N2334 1.610 . S
N2333 S2332 1.613 1_655 S
N2333 C2336 1.350 . S
N2334 S2332 1.610 . S
N2334 C2335 1.351 . S
C2335 C2329 1.428 . S
C2335 N2334 1.351 . S
C2335 C2336 1.434 1_455 S
C2336 C2327 1.429 . S
C2336 N2333 1.350 . S
C2336 C2335 1.434 1_655 S
C2337 C2338 1.369 . S
C2337 C2339 1.419 1_565 S
C2337 H2341 0.930 . S
C2338 C2337 1.369 . S
C2338 C2347 1.429 . S
C2339 C2337 1.419 1_545 S
C2339 C2340 1.363 . S
C2339 H2342 0.929 . S
C2340 C2339 1.363 . S
C2340 C2346 1.428 . S
H2341 C2337 0.930 . S
H2342 C2339 0.929 . S
S2343 N2344 1.613 . S
S2343 N2345 1.610 1_565 S
N2344 S2343 1.613 . S
N2344 C2347 1.350 . S
N2345 S2343 1.610 1_545 S
N2345 C2346 1.351 . S
C2346 C2340 1.428 . S
C2346 N2345 1.351 . S
C2346 C2347 1.434 1_545 S
C2347 C2338 1.429 . S
C2347 N2344 1.350 . S
C2347 C2346 1.434 1_565 S
C2348 C2349 1.369 . S
C2348 C2350 1.419 1_655 S
C2348 H2352 0.930 . S
C2349 C2348 1.369 . S
C2349 C2358 1.429 . S
C2350 C2348 1.419 1_455 S
C2350 C2351 1.363 . S
C2350 H2353 0.929 . S
C2351 C2350 1.363 . S
C2351 C2357 1.428 . S
H2352 C2348 0.930 . S
H2353 C2350 0.929 . S
S2354 N2355 1.613 1_455 S
S2354 N2356 1.610 . S
N2355 S2354 1.613 1_655 S
N2355 C2358 1.350 . S
N2356 S2354 1.610 . S
N2356 C2357 1.351 . S
C2357 C2351 1.428 . S
C2357 N2356 1.351 . S
C2357 C2358 1.434 1_455 S
C2358 C2349 1.429 . S
C2358 N2355 1.350 . S
C2358 C2357 1.434 1_655 S
C2359 C2360 1.369 . S
C2359 C2361 1.419 1_545 S
C2359 H2363 0.930 . S
C2360 C2359 1.369 . S
C2360 C2369 1.429 . S
C2361 C2359 1.419 1_565 S
C2361 C2362 1.363 . S
C2361 H2364 0.929 . S
C2362 C2361 1.363 . S
C2362 C2368 1.428 . S
H2363 C2359 0.930 . S
H2364 C2361 0.929 . S
S2365 N2366 1.653 . S
S2365 N2367 1.570 1_545 S
N2366 S2365 1.653 . S
N2366 C2369 1.350 . S
N2367 S2365 1.570 1_565 S
N2367 C2368 1.351 . S
C2368 C2362 1.428 . S
C2368 N2367 1.351 . S
C2368 C2369 1.434 1_565 S
C2369 C2360 1.429 . S
C2369 N2366 1.350 . S
C2369 C2368 1.434 1_545 S
C2370 C2371 1.369 . S
C2370 C2372 1.419 1_455 S
C2370 H2374 0.930 . S
C2371 C2370 1.369 . S
C2371 C2380 1.429 . S
C2372 C2370 1.419 1_655 S
C2372 C2373 1.363 . S
C2372 H2375 0.929 . S
C2373 C2372 1.363 . S
C2373 C2379 1.428 . S
H2374 C2370 0.930 . S
H2375 C2372 0.929 . S
S2376 N2377 1.613 . S
S2376 N2378 1.610 1_455 S
N2377 S2376 1.613 . S
N2377 C2380 1.350 . S
N2378 S2376 1.610 1_655 S
N2378 C2379 1.351 . S
C2379 C2373 1.428 . S
C2379 N2378 1.351 . S
C2379 C2380 1.434 1_655 S
C2380 C2371 1.429 . S
C2380 N2377 1.350 . S
C2380 C2379 1.434 1_455 S
C2381 C2382 1.369 . S
C2381 C2383 1.419 1_545 S
C2381 H2385 0.930 . S
C2382 C2381 1.369 . S
C2382 C2391 1.429 . S
C2383 C2381 1.419 1_565 S
C2383 C2384 1.363 . S
C2383 H2386 0.929 . S
C2384 C2383 1.363 . S
C2384 C2390 1.428 . S
H2385 C2381 0.930 . S
H2386 C2383 0.929 . S
S2387 N2388 1.613 . S
S2387 N2389 1.610 1_545 S
N2388 S2387 1.613 . S
N2388 C2391 1.350 . S
N2389 S2387 1.610 1_565 S
N2389 C2390 1.351 . S
C2390 C2384 1.428 . S
C2390 N2389 1.351 . S
C2390 C2391 1.434 1_565 S
C2391 C2382 1.429 . S
C2391 N2388 1.350 . S
C2391 C2390 1.434 1_545 S
C2392 C2393 1.369 . S
C2392 C2394 1.419 1_545 S
C2392 H2396 0.930 . S
C2393 C2392 1.369 . S
C2393 C2402 1.429 . S
C2394 C2392 1.419 1_565 S
C2394 C2395 1.363 . S
C2394 H2397 0.929 . S
C2395 C2394 1.363 . S
C2395 C2401 1.428 . S
H2396 C2392 0.930 . S
H2397 C2394 0.929 . S
S2398 N2399 1.613 . S
S2398 N2400 1.610 1_545 S
N2399 S2398 1.613 . S
N2399 C2402 1.350 . S
N2400 S2398 1.610 1_565 S
N2400 C2401 1.351 . S
C2401 C2395 1.428 . S
C2401 N2400 1.351 . S
C2401 C2402 1.434 1_565 S
C2402 C2393 1.429 . S
C2402 N2399 1.350 . S
C2402 C2401 1.434 1_545 S
C2403 C2404 1.369 . S
C2403 C2405 1.419 1_455 S
C2403 H2407 0.930 . S
C2404 C2403 1.369 . S
C2404 C2413 1.429 . S
C2405 C2403 1.419 1_655 S
C2405 C2406 1.363 . S
C2405 H2408 0.929 . S
C2406 C2405 1.363 . S
C2406 C2412 1.428 . S
H2407 C2403 0.930 . S
H2408 C2405 0.929 . S
S2409 N2410 1.613 . S
S2409 N2411 1.610 1_455 S
N2410 S2409 1.613 . S
N2410 C2413 1.350 . S
N2411 S2409 1.610 1_655 S
N2411 C2412 1.351 . S
C2412 C2406 1.428 . S
C2412 N2411 1.351 . S
C2412 C2413 1.434 1_655 S
C2413 C2404 1.429 . S
C2413 N2410 1.350 . S
C2413 C2412 1.434 1_455 S
C2414 C2415 1.369 . S
C2414 C2416 1.419 1_565 S
C2414 H2418 0.930 . S
C2415 C2414 1.369 . S
C2415 C2424 1.429 . S
C2416 C2414 1.419 1_545 S
C2416 C2417 1.363 . S
C2416 H2419 0.929 . S
C2417 C2416 1.363 . S
C2417 C2423 1.428 . S
H2418 C2414 0.930 . S
H2419 C2416 0.929 . S
S2420 N2421 1.613 1_545 S
S2420 N2422 1.610 . S
N2421 S2420 1.613 1_565 S
N2421 C2424 1.350 . S
N2422 S2420 1.610 . S
N2422 C2423 1.351 . S
C2423 C2417 1.428 . S
C2423 N2422 1.351 . S
C2423 C2424 1.434 1_545 S
C2424 C2415 1.429 . S
C2424 N2421 1.350 . S
C2424 C2423 1.434 1_565 S
C2425 C2426 1.369 . S
C2425 C2427 1.419 1_455 S
C2425 H2429 0.930 . S
C2426 C2425 1.369 . S
C2426 C2435 1.429 . S
C2427 C2425 1.419 1_655 S
C2427 C2428 1.363 . S
C2427 H2430 0.929 . S
C2428 C2427 1.363 . S
C2428 C2434 1.428 . S
H2429 C2425 0.930 . S
H2430 C2427 0.929 . S
S2431 N2432 1.613 . S
S2431 N2433 1.610 1_455 S
N2432 S2431 1.613 . S
N2432 C2435 1.350 . S
N2433 S2431 1.610 1_655 S
N2433 C2434 1.351 . S
C2434 C2428 1.428 . S
C2434 N2433 1.351 . S
C2434 C2435 1.434 1_655 S
C2435 C2426 1.429 . S
C2435 N2432 1.350 . S
C2435 C2434 1.434 1_455 S
C2436 C2437 1.369 . S
C2436 C2438 1.419 1_565 S
C2436 H2440 0.930 . S
C2437 C2436 1.369 . S
C2437 C2446 1.429 . S
C2438 C2436 1.419 1_545 S
C2438 C2439 1.363 . S
C2438 H2441 0.929 . S
C2439 C2438 1.363 . S
C2439 C2445 1.428 . S
H2440 C2436 0.930 . S
H2441 C2438 0.929 . S
S2442 N2443 1.613 . S
S2442 N2444 1.610 1_565 S
N2443 S2442 1.613 . S
N2443 C2446 1.350 . S
N2444 S2442 1.610 1_545 S
N2444 C2445 1.351 . S
C2445 C2439 1.428 . S
C2445 N2444 1.351 . S
C2445 C2446 1.434 1_545 S
C2446 C2437 1.429 . S
C2446 N2443 1.350 . S
C2446 C2445 1.434 1_565 S
C2447 C2448 1.369 . S
C2447 C2449 1.419 1_455 S
C2447 H2451 0.930 . S
C2448 C2447 1.369 . S
C2448 C2457 1.429 . S
C2449 C2447 1.419 1_655 S
C2449 C2450 1.363 . S
C2449 H2452 0.929 . S
C2450 C2449 1.363 . S
C2450 C2456 1.428 . S
H2451 C2447 0.930 . S
H2452 C2449 0.929 . S
S2453 N2454 1.613 . S
S2453 N2455 1.610 1_455 S
N2454 S2453 1.613 . S
N2454 C2457 1.350 . S
N2455 S2453 1.610 1_655 S
N2455 C2456 1.351 . S
C2456 C2450 1.428 . S
C2456 N2455 1.351 . S
C2456 C2457 1.434 1_655 S
C2457 C2448 1.429 . S
C2457 N2454 1.350 . S
C2457 C2456 1.434 1_455 S
C2458 C2459 1.369 . S
C2458 C2460 1.419 1_545 S
C2458 H2462 0.930 . S
C2459 C2458 1.369 . S
C2459 C2468 1.429 . S
C2460 C2458 1.419 1_565 S
C2460 C2461 1.363 . S
C2460 H2463 0.929 . S
C2461 C2460 1.363 . S
C2461 C2467 1.428 . S
H2462 C2458 0.930 . S
H2463 C2460 0.929 . S
S2464 N2465 1.613 1_565 S
S2464 N2466 1.610 . S
N2465 S2464 1.613 1_545 S
N2465 C2468 1.350 . S
N2466 S2464 1.610 . S
N2466 C2467 1.351 . S
C2467 C2461 1.428 . S
C2467 N2466 1.351 . S
C2467 C2468 1.434 1_565 S
C2468 C2459 1.429 . S
C2468 N2465 1.350 . S
C2468 C2467 1.434 1_545 S
C2469 C2470 1.369 . S
C2469 C2471 1.419 1_455 S
C2469 H2473 0.930 . S
C2470 C2469 1.369 . S
C2470 C2479 1.429 . S
C2471 C2469 1.419 1_655 S
C2471 C2472 1.363 . S
C2471 H2474 0.929 . S
C2472 C2471 1.363 . S
C2472 C2478 1.428 . S
H2473 C2469 0.930 . S
H2474 C2471 0.929 . S
S2475 N2476 1.642 . S
S2475 N2477 1.582 1_455 S
N2476 S2475 1.642 . S
N2476 C2479 1.350 . S
N2477 S2475 1.582 1_655 S
N2477 C2478 1.351 . S
C2478 C2472 1.428 . S
C2478 N2477 1.351 . S
C2478 C2479 1.434 1_655 S
C2479 C2470 1.429 . S
C2479 N2476 1.350 . S
C2479 C2478 1.434 1_455 S
C2480 C2481 1.369 . S
C2480 C2482 1.419 1_554 S
C2480 H2484 0.930 . S
C2481 C2480 1.369 . S
C2481 C2490 1.429 . S
C2482 C2480 1.419 1_556 S
C2482 C2483 1.363 . S
C2482 H2485 0.929 . S
C2483 C2482 1.363 . S
C2483 C2489 1.428 . S
H2484 C2480 0.930 . S
H2485 C2482 0.929 . S
S2486 N2487 1.613 1_556 S
S2486 N2488 1.610 . S
N2487 S2486 1.613 1_554 S
N2487 C2490 1.350 . S
N2488 S2486 1.610 . S
N2488 C2489 1.351 . S
C2489 C2483 1.428 . S
C2489 N2488 1.351 . S
C2489 C2490 1.434 1_556 S
C2490 C2481 1.429 . S
C2490 N2487 1.350 . S
C2490 C2489 1.434 1_554 S
C2491 C2492 1.369 . S
C2491 C2493 1.419 1_556 S
C2491 H2495 0.930 . S
C2492 C2491 1.369 . S
C2492 C2501 1.429 . S
C2493 C2491 1.419 1_554 S
C2493 C2494 1.363 . S
C2493 H2496 0.929 . S
C2494 C2493 1.363 . S
C2494 C2500 1.428 . S
H2495 C2491 0.930 . S
H2496 C2493 0.929 . S
S2497 N2498 1.606 1_554 S
S2497 N2499 1.618 . S
N2498 S2497 1.606 1_556 S
N2498 C2501 1.350 . S
N2499 S2497 1.618 . S
N2499 C2500 1.351 . S
C2500 C2494 1.428 . S
C2500 N2499 1.351 . S
C2500 C2501 1.434 1_554 S
C2501 C2492 1.429 . S
C2501 N2498 1.350 . S
C2501 C2500 1.434 1_556 S
C2502 C2503 1.369 . S
C2502 C2504 1.419 1_554 S
C2502 H2506 0.930 . S
C2503 C2502 1.369 . S
C2503 C2512 1.429 . S
C2504 C2502 1.419 1_556 S
C2504 C2505 1.363 . S
C2504 H2507 0.929 . S
C2505 C2504 1.363 . S
C2505 C2511 1.428 . S
H2506 C2502 0.930 . S
H2507 C2504 0.929 . S
S2508 N2509 1.613 . S
S2508 N2510 1.610 1_554 S
N2509 S2508 1.613 . S
N2509 C2512 1.350 . S
N2510 S2508 1.610 1_556 S
N2510 C2511 1.351 . S
C2511 C2505 1.428 . S
C2511 N2510 1.351 . S
C2511 C2512 1.434 1_556 S
C2512 C2503 1.429 . S
C2512 N2509 1.350 . S
C2512 C2511 1.434 1_554 S
C2513 C2514 1.369 . S
C2513 C2515 1.419 1_556 S
C2513 H2517 0.930 . S
C2514 C2513 1.369 . S
C2514 C2523 1.429 . S
C2515 C2513 1.419 1_554 S
C2515 C2516 1.363 . S
C2515 H2518 0.929 . S
C2516 C2515 1.363 . S
C2516 C2522 1.428 . S
H2517 C2513 0.930 . S
H2518 C2515 0.929 . S
S2519 N2520 1.591 1_554 S
S2519 N2521 1.633 . S
N2520 S2519 1.591 1_556 S
N2520 C2523 1.350 . S
N2521 S2519 1.633 . S
N2521 C2522 1.351 . S
C2522 C2516 1.428 . S
C2522 N2521 1.351 . S
C2522 C2523 1.434 1_554 S
C2523 C2514 1.429 . S
C2523 N2520 1.350 . S
C2523 C2522 1.434 1_556 S
C2524 C2525 1.369 . S
C2524 C2526 1.419 1_554 S
C2524 H2528 0.930 . S
C2525 C2524 1.369 . S
C2525 C2534 1.429 . S
C2526 C2524 1.419 1_556 S
C2526 C2527 1.363 . S
C2526 H2529 0.929 . S
C2527 C2526 1.363 . S
C2527 C2533 1.428 . S
H2528 C2524 0.930 . S
H2529 C2526 0.929 . S
S2530 N2531 1.613 . S
S2530 N2532 1.610 1_554 S
N2531 S2530 1.613 . S
N2531 C2534 1.350 . S
N2532 S2530 1.610 1_556 S
N2532 C2533 1.351 . S
C2533 C2527 1.428 . S
C2533 N2532 1.351 . S
C2533 C2534 1.434 1_556 S
C2534 C2525 1.429 . S
C2534 N2531 1.350 . S
C2534 C2533 1.434 1_554 S
C2535 C2536 1.369 . S
C2535 C2537 1.419 1_554 S
C2535 H2539 0.930 . S
C2536 C2535 1.369 . S
C2536 C2545 1.429 . S
C2537 C2535 1.419 1_556 S
C2537 C2538 1.363 . S
C2537 H2540 0.929 . S
C2538 C2537 1.363 . S
C2538 C2544 1.428 . S
H2539 C2535 0.930 . S
H2540 C2537 0.929 . S
S2541 N2542 1.630 . S
S2541 N2543 1.593 1_554 S
N2542 S2541 1.630 . S
N2542 C2545 1.350 . S
N2543 S2541 1.593 1_556 S
N2543 C2544 1.351 . S
C2544 C2538 1.428 . S
C2544 N2543 1.351 . S
C2544 C2545 1.434 1_556 S
C2545 C2536 1.429 . S
C2545 N2542 1.350 . S
C2545 C2544 1.434 1_554 S
C2546 C2547 1.369 . S
C2546 C2548 1.419 1_556 S
C2546 H2550 0.930 . S
C2547 C2546 1.369 . S
C2547 C2556 1.429 . S
C2548 C2546 1.419 1_554 S
C2548 C2549 1.363 . S
C2548 H2551 0.929 . S
C2549 C2548 1.363 . S
C2549 C2555 1.428 . S
H2550 C2546 0.930 . S
H2551 C2548 0.929 . S
S2552 N2553 1.613 . S
S2552 N2554 1.610 1_556 S
N2553 S2552 1.613 . S
N2553 C2556 1.350 . S
N2554 S2552 1.610 1_554 S
N2554 C2555 1.351 . S
C2555 C2549 1.428 . S
C2555 N2554 1.351 . S
C2555 C2556 1.434 1_554 S
C2556 C2547 1.429 . S
C2556 N2553 1.350 . S
C2556 C2555 1.434 1_556 S
C2557 C2558 1.369 . S
C2557 C2559 1.419 1_556 S
C2557 H2561 0.930 . S
C2558 C2557 1.369 . S
C2558 C2567 1.429 . S
C2559 C2557 1.419 1_554 S
C2559 C2560 1.363 . S
C2559 H2562 0.929 . S
C2560 C2559 1.363 . S
C2560 C2566 1.428 . S
H2561 C2557 0.930 . S
H2562 C2559 0.929 . S
S2563 N2564 1.576 1_554 S
S2563 N2565 1.646 . S
N2564 S2563 1.576 1_556 S
N2564 C2567 1.350 . S
N2565 S2563 1.646 . S
N2565 C2566 1.351 . S
C2566 C2560 1.428 . S
C2566 N2565 1.351 . S
C2566 C2567 1.434 1_554 S
C2567 C2558 1.429 . S
C2567 N2564 1.350 . S
C2567 C2566 1.434 1_556 S
C2568 C2569 1.369 . S
C2568 C2570 1.419 . S
C2568 H2572 0.930 . S
C2569 C2568 1.369 . S
C2569 C2578 1.429 . S
C2570 C2568 1.419 . S
C2570 C2571 1.363 . S
C2570 H2573 0.929 . S
C2571 C2570 1.363 . S
C2571 C2577 1.428 . S
H2572 C2568 0.930 . S
H2573 C2570 0.929 . S
S2574 N2575 1.613 . S
S2574 N2576 1.610 . S
N2575 S2574 1.613 . S
N2575 C2578 1.350 . S
N2576 S2574 1.610 . S
N2576 C2577 1.351 . S
C2577 C2571 1.428 . S
C2577 N2576 1.351 . S
C2577 C2578 1.434 . S
C2578 C2569 1.429 . S
C2578 N2575 1.350 . S
C2578 C2577 1.434 . S
C2579 C2580 1.369 . S
C2579 C2581 1.419 . S
C2579 H2583 0.930 . S
C2580 C2579 1.369 . S
C2580 C2589 1.429 . S
C2581 C2579 1.419 . S
C2581 C2582 1.363 . S
C2581 H2584 0.929 . S
C2582 C2581 1.363 . S
C2582 C2588 1.428 . S
H2583 C2579 0.930 . S
H2584 C2581 0.929 . S
S2585 N2586 1.613 . S
S2585 N2587 1.610 . S
N2586 S2585 1.613 . S
N2586 C2589 1.350 . S
N2587 S2585 1.610 . S
N2587 C2588 1.351 . S
C2588 C2582 1.428 . S
C2588 N2587 1.351 . S
C2588 C2589 1.434 . S
C2589 C2580 1.429 . S
C2589 N2586 1.350 . S
C2589 C2588 1.434 . S
C2590 C2591 1.369 . S
C2590 C2592 1.419 . S
C2590 H2594 0.930 . S
C2591 C2590 1.369 . S
C2591 C2600 1.429 . S
C2592 C2590 1.419 . S
C2592 C2593 1.363 . S
C2592 H2595 0.929 . S
C2593 C2592 1.363 . S
C2593 C2599 1.428 . S
H2594 C2590 0.930 . S
H2595 C2592 0.929 . S
S2596 N2597 1.613 . S
S2596 N2598 1.610 . S
N2597 S2596 1.613 . S
N2597 C2600 1.350 . S
N2598 S2596 1.610 . S
N2598 C2599 1.351 . S
C2599 C2593 1.428 . S
C2599 N2598 1.351 . S
C2599 C2600 1.434 . S
C2600 C2591 1.429 . S
C2600 N2597 1.350 . S
C2600 C2599 1.434 . S
C2601 C2602 1.369 . S
C2601 C2603 1.419 . S
C2601 H2605 0.930 . S
C2602 C2601 1.369 . S
C2602 C2611 1.429 . S
C2603 C2601 1.419 . S
C2603 C2604 1.363 . S
C2603 H2606 0.929 . S
C2604 C2603 1.363 . S
C2604 C2610 1.428 . S
H2605 C2601 0.930 . S
H2606 C2603 0.929 . S
S2607 N2608 1.613 . S
S2607 N2609 1.610 . S
N2608 S2607 1.613 . S
N2608 C2611 1.350 . S
N2609 S2607 1.610 . S
N2609 C2610 1.351 . S
C2610 C2604 1.428 . S
C2610 N2609 1.351 . S
C2610 C2611 1.434 . S
C2611 C2602 1.429 . S
C2611 N2608 1.350 . S
C2611 C2610 1.434 . S
C2612 C2613 1.369 . S
C2612 C2614 1.419 . S
C2612 H2616 0.930 . S
C2613 C2612 1.369 . S
C2613 C2622 1.429 . S
C2614 C2612 1.419 . S
C2614 C2615 1.363 . S
C2614 H2617 0.929 . S
C2615 C2614 1.363 . S
C2615 C2621 1.428 . S
H2616 C2612 0.930 . S
H2617 C2614 0.929 . S
S2618 N2619 1.613 . S
S2618 N2620 1.610 . S
N2619 S2618 1.613 . S
N2619 C2622 1.350 . S
N2620 S2618 1.610 . S
N2620 C2621 1.351 . S
C2621 C2615 1.428 . S
C2621 N2620 1.351 . S
C2621 C2622 1.434 . S
C2622 C2613 1.429 . S
C2622 N2619 1.350 . S
C2622 C2621 1.434 . S
C2623 C2624 1.369 . S
C2623 C2625 1.419 . S
C2623 H2627 0.930 . S
C2624 C2623 1.369 . S
C2624 C2633 1.429 . S
C2625 C2623 1.419 . S
C2625 C2626 1.363 . S
C2625 H2628 0.929 . S
C2626 C2625 1.363 . S
C2626 C2632 1.428 . S
H2627 C2623 0.930 . S
H2628 C2625 0.929 . S
S2629 N2630 1.613 . S
S2629 N2631 1.610 . S
N2630 S2629 1.613 . S
N2630 C2633 1.350 . S
N2631 S2629 1.610 . S
N2631 C2632 1.351 . S
C2632 C2626 1.428 . S
C2632 N2631 1.351 . S
C2632 C2633 1.434 . S
C2633 C2624 1.429 . S
C2633 N2630 1.350 . S
C2633 C2632 1.434 . S
C2634 C2635 1.369 . S
C2634 C2636 1.419 . S
C2634 H2638 0.930 . S
C2635 C2634 1.369 . S
C2635 C2644 1.429 . S
C2636 C2634 1.419 . S
C2636 C2637 1.363 . S
C2636 H2639 0.929 . S
C2637 C2636 1.363 . S
C2637 C2643 1.428 . S
H2638 C2634 0.930 . S
H2639 C2636 0.929 . S
S2640 N2641 1.613 . S
S2640 N2642 1.610 . S
N2641 S2640 1.613 . S
N2641 C2644 1.350 . S
N2642 S2640 1.610 . S
N2642 C2643 1.351 . S
C2643 C2637 1.428 . S
C2643 N2642 1.351 . S
C2643 C2644 1.434 . S
C2644 C2635 1.429 . S
C2644 N2641 1.350 . S
C2644 C2643 1.434 . S
C2645 C2646 1.369 . S
C2645 C2647 1.419 . S
C2645 H2649 0.930 . S
C2646 C2645 1.369 . S
C2646 C2655 1.429 . S
C2647 C2645 1.419 . S
C2647 C2648 1.363 . S
C2647 H2650 0.929 . S
C2648 C2647 1.363 . S
C2648 C2654 1.428 . S
H2649 C2645 0.930 . S
H2650 C2647 0.929 . S
S2651 N2652 1.613 . S
S2651 N2653 1.610 . S
N2652 S2651 1.613 . S
N2652 C2655 1.350 . S
N2653 S2651 1.610 . S
N2653 C2654 1.351 . S
C2654 C2648 1.428 . S
C2654 N2653 1.351 . S
C2654 C2655 1.434 . S
C2655 C2646 1.429 . S
C2655 N2652 1.350 . S
C2655 C2654 1.434 . S
C2656 C2657 1.369 . S
C2656 C2658 1.419 . S
C2656 H2660 0.930 . S
C2657 C2656 1.369 . S
C2657 C2666 1.429 . S
C2658 C2656 1.419 . S
C2658 C2659 1.363 . S
C2658 H2661 0.929 . S
C2659 C2658 1.363 . S
C2659 C2665 1.428 . S
H2660 C2656 0.930 . S
H2661 C2658 0.929 . S
S2662 N2663 1.613 . S
S2662 N2664 1.610 . S
N2663 S2662 1.613 . S
N2663 C2666 1.350 . S
N2664 S2662 1.610 . S
N2664 C2665 1.351 . S
C2665 C2659 1.428 . S
C2665 N2664 1.351 . S
C2665 C2666 1.434 . S
C2666 C2657 1.429 . S
C2666 N2663 1.350 . S
C2666 C2665 1.434 . S
C2667 C2668 1.369 . S
C2667 C2669 1.419 . S
C2667 H2671 0.930 . S
C2668 C2667 1.369 . S
C2668 C2677 1.429 . S
C2669 C2667 1.419 . S
C2669 C2670 1.363 . S
C2669 H2672 0.929 . S
C2670 C2669 1.363 . S
C2670 C2676 1.428 . S
H2671 C2667 0.930 . S
H2672 C2669 0.929 . S
S2673 N2674 1.613 . S
S2673 N2675 1.610 . S
N2674 S2673 1.613 . S
N2674 C2677 1.350 . S
N2675 S2673 1.610 . S
N2675 C2676 1.351 . S
C2676 C2670 1.428 . S
C2676 N2675 1.351 . S
C2676 C2677 1.434 . S
C2677 C2668 1.429 . S
C2677 N2674 1.350 . S
C2677 C2676 1.434 . S
C2678 C2679 1.369 . S
C2678 C2680 1.419 . S
C2678 H2682 0.930 . S
C2679 C2678 1.369 . S
C2679 C2688 1.429 . S
C2680 C2678 1.419 . S
C2680 C2681 1.363 . S
C2680 H2683 0.929 . S
C2681 C2680 1.363 . S
C2681 C2687 1.428 . S
H2682 C2678 0.930 . S
H2683 C2680 0.929 . S
S2684 N2685 1.613 . S
S2684 N2686 1.610 . S
N2685 S2684 1.613 . S
N2685 C2688 1.350 . S
N2686 S2684 1.610 . S
N2686 C2687 1.351 . S
C2687 C2681 1.428 . S
C2687 N2686 1.351 . S
C2687 C2688 1.434 . S
C2688 C2679 1.429 . S
C2688 N2685 1.350 . S
C2688 C2687 1.434 . S
C2689 C2690 1.369 . S
C2689 C2691 1.419 . S
C2689 H2693 0.930 . S
C2690 C2689 1.369 . S
C2690 C2699 1.429 . S
C2691 C2689 1.419 . S
C2691 C2692 1.363 . S
C2691 H2694 0.929 . S
C2692 C2691 1.363 . S
C2692 C2698 1.428 . S
H2693 C2689 0.930 . S
H2694 C2691 0.929 . S
S2695 N2696 1.613 . S
S2695 N2697 1.610 . S
N2696 S2695 1.613 . S
N2696 C2699 1.350 . S
N2697 S2695 1.610 . S
N2697 C2698 1.351 . S
C2698 C2692 1.428 . S
C2698 N2697 1.351 . S
C2698 C2699 1.434 . S
C2699 C2690 1.429 . S
C2699 N2696 1.350 . S
C2699 C2698 1.434 . S
C2700 C2701 1.369 . S
C2700 C2702 1.419 . S
C2700 H2704 0.930 . S
C2701 C2700 1.369 . S
C2701 C2710 1.429 . S
C2702 C2700 1.419 . S
C2702 C2703 1.363 . S
C2702 H2705 0.929 . S
C2703 C2702 1.363 . S
C2703 C2709 1.428 . S
H2704 C2700 0.930 . S
H2705 C2702 0.929 . S
S2706 N2707 1.613 . S
S2706 N2708 1.610 . S
N2707 S2706 1.613 . S
N2707 C2710 1.350 . S
N2708 S2706 1.610 . S
N2708 C2709 1.351 . S
C2709 C2703 1.428 . S
C2709 N2708 1.351 . S
C2709 C2710 1.434 . S
C2710 C2701 1.429 . S
C2710 N2707 1.350 . S
C2710 C2709 1.434 . S
C2711 C2712 1.369 . S
C2711 C2713 1.419 . S
C2711 H2715 0.930 . S
C2712 C2711 1.369 . S
C2712 C2721 1.429 . S
C2713 C2711 1.419 . S
C2713 C2714 1.363 . S
C2713 H2716 0.929 . S
C2714 C2713 1.363 . S
C2714 C2720 1.428 . S
H2715 C2711 0.930 . S
H2716 C2713 0.929 . S
S2717 N2718 1.613 . S
S2717 N2719 1.610 . S
N2718 S2717 1.613 . S
N2718 C2721 1.350 . S
N2719 S2717 1.610 . S
N2719 C2720 1.351 . S
C2720 C2714 1.428 . S
C2720 N2719 1.351 . S
C2720 C2721 1.434 . S
C2721 C2712 1.429 . S
C2721 N2718 1.350 . S
C2721 C2720 1.434 . S
C2722 C2723 1.369 . S
C2722 C2724 1.419 . S
C2722 H2726 0.930 . S
C2723 C2722 1.369 . S
C2723 C2732 1.429 . S
C2724 C2722 1.419 . S
C2724 C2725 1.363 . S
C2724 H2727 0.929 . S
C2725 C2724 1.363 . S
C2725 C2731 1.428 . S
H2726 C2722 0.930 . S
H2727 C2724 0.929 . S
S2728 N2729 1.613 . S
S2728 N2730 1.610 . S
N2729 S2728 1.613 . S
N2729 C2732 1.350 . S
N2730 S2728 1.610 . S
N2730 C2731 1.351 . S
C2731 C2725 1.428 . S
C2731 N2730 1.351 . S
C2731 C2732 1.434 . S
C2732 C2723 1.429 . S
C2732 N2729 1.350 . S
C2732 C2731 1.434 . S
C2733 C2734 1.369 . S
C2733 C2735 1.419 . S
C2733 H2737 0.930 . S
C2734 C2733 1.369 . S
C2734 C2743 1.429 . S
C2735 C2733 1.419 . S
C2735 C2736 1.363 . S
C2735 H2738 0.929 . S
C2736 C2735 1.363 . S
C2736 C2742 1.428 . S
H2737 C2733 0.930 . S
H2738 C2735 0.929 . S
S2739 N2740 1.613 . S
S2739 N2741 1.610 . S
N2740 S2739 1.613 . S
N2740 C2743 1.350 . S
N2741 S2739 1.610 . S
N2741 C2742 1.351 . S
C2742 C2736 1.428 . S
C2742 N2741 1.351 . S
C2742 C2743 1.434 . S
C2743 C2734 1.429 . S
C2743 N2740 1.350 . S
C2743 C2742 1.434 . S
C2744 C2745 1.369 . S
C2744 C2746 1.419 . S
C2744 H2748 0.930 . S
C2745 C2744 1.369 . S
C2745 C2754 1.429 . S
C2746 C2744 1.419 . S
C2746 C2747 1.363 . S
C2746 H2749 0.929 . S
C2747 C2746 1.363 . S
C2747 C2753 1.428 . S
H2748 C2744 0.930 . S
H2749 C2746 0.929 . S
S2750 N2751 1.613 . S
S2750 N2752 1.610 . S
N2751 S2750 1.613 . S
N2751 C2754 1.350 . S
N2752 S2750 1.610 . S
N2752 C2753 1.351 . S
C2753 C2747 1.428 . S
C2753 N2752 1.351 . S
C2753 C2754 1.434 . S
C2754 C2745 1.429 . S
C2754 N2751 1.350 . S
C2754 C2753 1.434 . S
C2755 C2756 1.369 . S
C2755 C2757 1.419 . S
C2755 H2759 0.930 . S
C2756 C2755 1.369 . S
C2756 C2765 1.429 . S
C2757 C2755 1.419 . S
C2757 C2758 1.363 . S
C2757 H2760 0.929 . S
C2758 C2757 1.363 . S
C2758 C2764 1.428 . S
H2759 C2755 0.930 . S
H2760 C2757 0.929 . S
S2761 N2762 1.613 . S
S2761 N2763 1.610 . S
N2762 S2761 1.613 . S
N2762 C2765 1.350 . S
N2763 S2761 1.610 . S
N2763 C2764 1.351 . S
C2764 C2758 1.428 . S
C2764 N2763 1.351 . S
C2764 C2765 1.434 . S
C2765 C2756 1.429 . S
C2765 N2762 1.350 . S
C2765 C2764 1.434 . S
C2766 C2767 1.369 . S
C2766 C2768 1.419 . S
C2766 H2770 0.930 . S
C2767 C2766 1.369 . S
C2767 C2776 1.429 . S
C2768 C2766 1.419 . S
C2768 C2769 1.363 . S
C2768 H2771 0.929 . S
C2769 C2768 1.363 . S
C2769 C2775 1.428 . S
H2770 C2766 0.930 . S
H2771 C2768 0.929 . S
S2772 N2773 1.613 . S
S2772 N2774 1.610 . S
N2773 S2772 1.613 . S
N2773 C2776 1.350 . S
N2774 S2772 1.610 . S
N2774 C2775 1.351 . S
C2775 C2769 1.428 . S
C2775 N2774 1.351 . S
C2775 C2776 1.434 . S
C2776 C2767 1.429 . S
C2776 N2773 1.350 . S
C2776 C2775 1.434 . S
C2777 C2778 1.369 . S
C2777 C2779 1.419 . S
C2777 H2781 0.930 . S
C2778 C2777 1.369 . S
C2778 C2787 1.429 . S
C2779 C2777 1.419 . S
C2779 C2780 1.363 . S
C2779 H2782 0.929 . S
C2780 C2779 1.363 . S
C2780 C2786 1.428 . S
H2781 C2777 0.930 . S
H2782 C2779 0.929 . S
S2783 N2784 1.613 . S
S2783 N2785 1.610 . S
N2784 S2783 1.613 . S
N2784 C2787 1.350 . S
N2785 S2783 1.610 . S
N2785 C2786 1.351 . S
C2786 C2780 1.428 . S
C2786 N2785 1.351 . S
C2786 C2787 1.434 . S
C2787 C2778 1.429 . S
C2787 N2784 1.350 . S
C2787 C2786 1.434 . S
C2788 C2789 1.369 . S
C2788 C2790 1.419 . S
C2788 H2792 0.930 . S
C2789 C2788 1.369 . S
C2789 C2798 1.429 . S
C2790 C2788 1.419 . S
C2790 C2791 1.363 . S
C2790 H2793 0.929 . S
C2791 C2790 1.363 . S
C2791 C2797 1.428 . S
H2792 C2788 0.930 . S
H2793 C2790 0.929 . S
S2794 N2795 1.613 . S
S2794 N2796 1.610 . S
N2795 S2794 1.613 . S
N2795 C2798 1.350 . S
N2796 S2794 1.610 . S
N2796 C2797 1.351 . S
C2797 C2791 1.428 . S
C2797 N2796 1.351 . S
C2797 C2798 1.434 . S
C2798 C2789 1.429 . S
C2798 N2795 1.350 . S
C2798 C2797 1.434 . S
C2799 C2800 1.369 . S
C2799 C2801 1.419 . S
C2799 H2803 0.930 . S
C2800 C2799 1.369 . S
C2800 C2809 1.429 . S
C2801 C2799 1.419 . S
C2801 C2802 1.363 . S
C2801 H2804 0.929 . S
C2802 C2801 1.363 . S
C2802 C2808 1.428 . S
H2803 C2799 0.930 . S
H2804 C2801 0.929 . S
S2805 N2806 1.613 . S
S2805 N2807 1.610 . S
N2806 S2805 1.613 . S
N2806 C2809 1.350 . S
N2807 S2805 1.610 . S
N2807 C2808 1.351 . S
C2808 C2802 1.428 . S
C2808 N2807 1.351 . S
C2808 C2809 1.434 . S
C2809 C2800 1.429 . S
C2809 N2806 1.350 . S
C2809 C2808 1.434 . S
C2810 C2811 1.369 . S
C2810 C2812 1.419 . S
C2810 H2814 0.930 . S
C2811 C2810 1.369 . S
C2811 C2820 1.429 . S
C2812 C2810 1.419 . S
C2812 C2813 1.363 . S
C2812 H2815 0.929 . S
C2813 C2812 1.363 . S
C2813 C2819 1.428 . S
H2814 C2810 0.930 . S
H2815 C2812 0.929 . S
S2816 N2817 1.613 . S
S2816 N2818 1.610 . S
N2817 S2816 1.613 . S
N2817 C2820 1.350 . S
N2818 S2816 1.610 . S
N2818 C2819 1.351 . S
C2819 C2813 1.428 . S
C2819 N2818 1.351 . S
C2819 C2820 1.434 . S
C2820 C2811 1.429 . S
C2820 N2817 1.350 . S
C2820 C2819 1.434 . S
C2821 C2822 1.369 . S
C2821 C2823 1.419 . S
C2821 H2825 0.930 . S
C2822 C2821 1.369 . S
C2822 C2831 1.429 . S
C2823 C2821 1.419 . S
C2823 C2824 1.363 . S
C2823 H2826 0.929 . S
C2824 C2823 1.363 . S
C2824 C2830 1.428 . S
H2825 C2821 0.930 . S
H2826 C2823 0.929 . S
S2827 N2828 1.613 . S
S2827 N2829 1.610 . S
N2828 S2827 1.613 . S
N2828 C2831 1.350 . S
N2829 S2827 1.610 . S
N2829 C2830 1.351 . S
C2830 C2824 1.428 . S
C2830 N2829 1.351 . S
C2830 C2831 1.434 . S
C2831 C2822 1.429 . S
C2831 N2828 1.350 . S
C2831 C2830 1.434 . S
C2832 C2833 1.369 . S
C2832 C2834 1.419 . S
C2832 H2836 0.930 . S
C2833 C2832 1.369 . S
C2833 C2842 1.429 . S
C2834 C2832 1.419 . S
C2834 C2835 1.363 . S
C2834 H2837 0.929 . S
C2835 C2834 1.363 . S
C2835 C2841 1.428 . S
H2836 C2832 0.930 . S
H2837 C2834 0.929 . S
S2838 N2839 1.613 . S
S2838 N2840 1.610 . S
N2839 S2838 1.613 . S
N2839 C2842 1.350 . S
N2840 S2838 1.610 . S
N2840 C2841 1.351 . S
C2841 C2835 1.428 . S
C2841 N2840 1.351 . S
C2841 C2842 1.434 . S
C2842 C2833 1.429 . S
C2842 N2839 1.350 . S
C2842 C2841 1.434 . S
C2843 C2844 1.369 . S
C2843 C2845 1.419 . S
C2843 H2847 0.930 . S
C2844 C2843 1.369 . S
C2844 C2853 1.429 . S
C2845 C2843 1.419 . S
C2845 C2846 1.363 . S
C2845 H2848 0.929 . S
C2846 C2845 1.363 . S
C2846 C2852 1.428 . S
H2847 C2843 0.930 . S
H2848 C2845 0.929 . S
S2849 N2850 1.613 . S
S2849 N2851 1.610 . S
N2850 S2849 1.613 . S
N2850 C2853 1.350 . S
N2851 S2849 1.610 . S
N2851 C2852 1.351 . S
C2852 C2846 1.428 . S
C2852 N2851 1.351 . S
C2852 C2853 1.434 . S
C2853 C2844 1.429 . S
C2853 N2850 1.350 . S
C2853 C2852 1.434 . S
C2854 C2855 1.369 . S
C2854 C2856 1.419 . S
C2854 H2858 0.930 . S
C2855 C2854 1.369 . S
C2855 C2864 1.429 . S
C2856 C2854 1.419 . S
C2856 C2857 1.363 . S
C2856 H2859 0.929 . S
C2857 C2856 1.363 . S
C2857 C2863 1.428 . S
H2858 C2854 0.930 . S
H2859 C2856 0.929 . S
S2860 N2861 1.613 . S
S2860 N2862 1.610 . S
N2861 S2860 1.613 . S
N2861 C2864 1.350 . S
N2862 S2860 1.610 . S
N2862 C2863 1.351 . S
C2863 C2857 1.428 . S
C2863 N2862 1.351 . S
C2863 C2864 1.434 . S
C2864 C2855 1.429 . S
C2864 N2861 1.350 . S
C2864 C2863 1.434 . S
C2865 C2866 1.369 . S
C2865 C2867 1.419 . S
C2865 H2869 0.930 . S
C2866 C2865 1.369 . S
C2866 C2875 1.429 . S
C2867 C2865 1.419 . S
C2867 C2868 1.363 . S
C2867 H2870 0.929 . S
C2868 C2867 1.363 . S
C2868 C2874 1.428 . S
H2869 C2865 0.930 . S
H2870 C2867 0.929 . S
S2871 N2872 1.613 . S
S2871 N2873 1.610 . S
N2872 S2871 1.613 . S
N2872 C2875 1.350 . S
N2873 S2871 1.610 . S
N2873 C2874 1.351 . S
C2874 C2868 1.428 . S
C2874 N2873 1.351 . S
C2874 C2875 1.434 . S
C2875 C2866 1.429 . S
C2875 N2872 1.350 . S
C2875 C2874 1.434 . S
C2876 C2877 1.369 . S
C2876 C2878 1.419 . S
C2876 H2880 0.930 . S
C2877 C2876 1.369 . S
C2877 C2886 1.429 . S
C2878 C2876 1.419 . S
C2878 C2879 1.363 . S
C2878 H2881 0.929 . S
C2879 C2878 1.363 . S
C2879 C2885 1.428 . S
H2880 C2876 0.930 . S
H2881 C2878 0.929 . S
S2882 N2883 1.613 . S
S2882 N2884 1.610 . S
N2883 S2882 1.613 . S
N2883 C2886 1.350 . S
N2884 S2882 1.610 . S
N2884 C2885 1.351 . S
C2885 C2879 1.428 . S
C2885 N2884 1.351 . S
C2885 C2886 1.434 . S
C2886 C2877 1.429 . S
C2886 N2883 1.350 . S
C2886 C2885 1.434 . S
C2887 C2888 1.369 . S
C2887 C2889 1.419 . S
C2887 H2891 0.930 . S
C2888 C2887 1.369 . S
C2888 C2897 1.429 . S
C2889 C2887 1.419 . S
C2889 C2890 1.363 . S
C2889 H2892 0.929 . S
C2890 C2889 1.363 . S
C2890 C2896 1.428 . S
H2891 C2887 0.930 . S
H2892 C2889 0.929 . S
S2893 N2894 1.613 . S
S2893 N2895 1.610 . S
N2894 S2893 1.613 . S
N2894 C2897 1.350 . S
N2895 S2893 1.610 . S
N2895 C2896 1.351 . S
C2896 C2890 1.428 . S
C2896 N2895 1.351 . S
C2896 C2897 1.434 . S
C2897 C2888 1.429 . S
C2897 N2894 1.350 . S
C2897 C2896 1.434 . S
C2898 C2899 1.369 . S
C2898 C2900 1.419 . S
C2898 H2902 0.930 . S
C2899 C2898 1.369 . S
C2899 C2908 1.429 . S
C2900 C2898 1.419 . S
C2900 C2901 1.363 . S
C2900 H2903 0.929 . S
C2901 C2900 1.363 . S
C2901 C2907 1.428 . S
H2902 C2898 0.930 . S
H2903 C2900 0.929 . S
S2904 N2905 1.613 . S
S2904 N2906 1.610 . S
N2905 S2904 1.613 . S
N2905 C2908 1.350 . S
N2906 S2904 1.610 . S
N2906 C2907 1.351 . S
C2907 C2901 1.428 . S
C2907 N2906 1.351 . S
C2907 C2908 1.434 . S
C2908 C2899 1.429 . S
C2908 N2905 1.350 . S
C2908 C2907 1.434 . S
C2909 C2910 1.369 . S
C2909 C2911 1.419 . S
C2909 H2913 0.930 . S
C2910 C2909 1.369 . S
C2910 C2919 1.429 . S
C2911 C2909 1.419 . S
C2911 C2912 1.363 . S
C2911 H2914 0.929 . S
C2912 C2911 1.363 . S
C2912 C2918 1.428 . S
H2913 C2909 0.930 . S
H2914 C2911 0.929 . S
S2915 N2916 1.613 . S
S2915 N2917 1.610 . S
N2916 S2915 1.613 . S
N2916 C2919 1.350 . S
N2917 S2915 1.610 . S
N2917 C2918 1.351 . S
C2918 C2912 1.428 . S
C2918 N2917 1.351 . S
C2918 C2919 1.434 . S
C2919 C2910 1.429 . S
C2919 N2916 1.350 . S
C2919 C2918 1.434 . S
C2920 C2921 1.369 . S
C2920 C2922 1.419 . S
C2920 H2924 0.930 . S
C2921 C2920 1.369 . S
C2921 C2930 1.429 . S
C2922 C2920 1.419 . S
C2922 C2923 1.363 . S
C2922 H2925 0.929 . S
C2923 C2922 1.363 . S
C2923 C2929 1.428 . S
H2924 C2920 0.930 . S
H2925 C2922 0.929 . S
S2926 N2927 1.613 . S
S2926 N2928 1.610 . S
N2927 S2926 1.613 . S
N2927 C2930 1.350 . S
N2928 S2926 1.610 . S
N2928 C2929 1.351 . S
C2929 C2923 1.428 . S
C2929 N2928 1.351 . S
C2929 C2930 1.434 . S
C2930 C2921 1.429 . S
C2930 N2927 1.350 . S
C2930 C2929 1.434 . S
C2931 C2932 1.369 . S
C2931 C2933 1.419 . S
C2931 H2935 0.930 . S
C2932 C2931 1.369 . S
C2932 C2941 1.429 . S
C2933 C2931 1.419 . S
C2933 C2934 1.363 . S
C2933 H2936 0.929 . S
C2934 C2933 1.363 . S
C2934 C2940 1.428 . S
H2935 C2931 0.930 . S
H2936 C2933 0.929 . S
S2937 N2938 1.613 . S
S2937 N2939 1.610 . S
N2938 S2937 1.613 . S
N2938 C2941 1.350 . S
N2939 S2937 1.610 . S
N2939 C2940 1.351 . S
C2940 C2934 1.428 . S
C2940 N2939 1.351 . S
C2940 C2941 1.434 . S
C2941 C2932 1.429 . S
C2941 N2938 1.350 . S
C2941 C2940 1.434 . S
C2942 C2943 1.369 . S
C2942 C2944 1.419 . S
C2942 H2946 0.930 . S
C2943 C2942 1.369 . S
C2943 C2952 1.429 . S
C2944 C2942 1.419 . S
C2944 C2945 1.363 . S
C2944 H2947 0.929 . S
C2945 C2944 1.363 . S
C2945 C2951 1.428 . S
H2946 C2942 0.930 . S
H2947 C2944 0.929 . S
S2948 N2949 1.613 . S
S2948 N2950 1.610 . S
N2949 S2948 1.613 . S
N2949 C2952 1.350 . S
N2950 S2948 1.610 . S
N2950 C2951 1.351 . S
C2951 C2945 1.428 . S
C2951 N2950 1.351 . S
C2951 C2952 1.434 . S
C2952 C2943 1.429 . S
C2952 N2949 1.350 . S
C2952 C2951 1.434 . S
C2953 C2954 1.369 . S
C2953 C2955 1.419 . S
C2953 H2957 0.930 . S
C2954 C2953 1.369 . S
C2954 C2963 1.429 . S
C2955 C2953 1.419 . S
C2955 C2956 1.363 . S
C2955 H2958 0.929 . S
C2956 C2955 1.363 . S
C2956 C2962 1.428 . S
H2957 C2953 0.930 . S
H2958 C2955 0.929 . S
S2959 N2960 1.613 . S
S2959 N2961 1.610 . S
N2960 S2959 1.613 . S
N2960 C2963 1.350 . S
N2961 S2959 1.610 . S
N2961 C2962 1.351 . S
C2962 C2956 1.428 . S
C2962 N2961 1.351 . S
C2962 C2963 1.434 . S
C2963 C2954 1.429 . S
C2963 N2960 1.350 . S
C2963 C2962 1.434 . S
C2964 C2965 1.369 . S
C2964 C2966 1.419 . S
C2964 H2968 0.930 . S
C2965 C2964 1.369 . S
C2965 C2974 1.429 . S
C2966 C2964 1.419 . S
C2966 C2967 1.363 . S
C2966 H2969 0.929 . S
C2967 C2966 1.363 . S
C2967 C2973 1.428 . S
H2968 C2964 0.930 . S
H2969 C2966 0.929 . S
S2970 N2971 1.613 . S
S2970 N2972 1.610 . S
N2971 S2970 1.613 . S
N2971 C2974 1.350 . S
N2972 S2970 1.610 . S
N2972 C2973 1.351 . S
C2973 C2967 1.428 . S
C2973 N2972 1.351 . S
C2973 C2974 1.434 . S
C2974 C2965 1.429 . S
C2974 N2971 1.350 . S
C2974 C2973 1.434 . S
C2975 C2976 1.369 . S
C2975 C2977 1.419 . S
C2975 H2979 0.930 . S
C2976 C2975 1.369 . S
C2976 C2985 1.429 . S
C2977 C2975 1.419 . S
C2977 C2978 1.363 . S
C2977 H2980 0.929 . S
C2978 C2977 1.363 . S
C2978 C2984 1.428 . S
H2979 C2975 0.930 . S
H2980 C2977 0.929 . S
S2981 N2982 1.613 . S
S2981 N2983 1.610 . S
N2982 S2981 1.613 . S
N2982 C2985 1.350 . S
N2983 S2981 1.610 . S
N2983 C2984 1.351 . S
C2984 C2978 1.428 . S
C2984 N2983 1.351 . S
C2984 C2985 1.434 . S
C2985 C2976 1.429 . S
C2985 N2982 1.350 . S
C2985 C2984 1.434 . S
C2986 C2987 1.369 . S
C2986 C2988 1.419 . S
C2986 H2990 0.930 . S
C2987 C2986 1.369 . S
C2987 C2996 1.429 . S
C2988 C2986 1.419 . S
C2988 C2989 1.363 . S
C2988 H2991 0.929 . S
C2989 C2988 1.363 . S
C2989 C2995 1.428 . S
H2990 C2986 0.930 . S
H2991 C2988 0.929 . S
S2992 N2993 1.613 . S
S2992 N2994 1.610 . S
N2993 S2992 1.613 . S
N2993 C2996 1.350 . S
N2994 S2992 1.610 . S
N2994 C2995 1.351 . S
C2995 C2989 1.428 . S
C2995 N2994 1.351 . S
C2995 C2996 1.434 . S
C2996 C2987 1.429 . S
C2996 N2993 1.350 . S
C2996 C2995 1.434 . S
C2997 C2998 1.369 . S
C2997 C2999 1.419 . S
C2997 H3001 0.930 . S
C2998 C2997 1.369 . S
C2998 C3007 1.429 . S
C2999 C2997 1.419 . S
C2999 C3000 1.363 . S
C2999 H3002 0.929 . S
C3000 C2999 1.363 . S
C3000 C3006 1.428 . S
H3001 C2997 0.930 . S
H3002 C2999 0.929 . S
S3003 N3004 1.613 . S
S3003 N3005 1.610 . S
N3004 S3003 1.613 . S
N3004 C3007 1.350 . S
N3005 S3003 1.610 . S
N3005 C3006 1.351 . S
C3006 C3000 1.428 . S
C3006 N3005 1.351 . S
C3006 C3007 1.434 . S
C3007 C2998 1.429 . S
C3007 N3004 1.350 . S
C3007 C3006 1.434 . S
C3008 C3009 1.369 . S
C3008 C3010 1.419 . S
C3008 H3012 0.930 . S
C3009 C3008 1.369 . S
C3009 C3018 1.429 . S
C3010 C3008 1.419 . S
C3010 C3011 1.363 . S
C3010 H3013 0.929 . S
C3011 C3010 1.363 . S
C3011 C3017 1.428 . S
H3012 C3008 0.930 . S
H3013 C3010 0.929 . S
S3014 N3015 1.613 . S
S3014 N3016 1.610 . S
N3015 S3014 1.613 . S
N3015 C3018 1.350 . S
N3016 S3014 1.610 . S
N3016 C3017 1.351 . S
C3017 C3011 1.428 . S
C3017 N3016 1.351 . S
C3017 C3018 1.434 . S
C3018 C3009 1.429 . S
C3018 N3015 1.350 . S
C3018 C3017 1.434 . S
C3019 C3020 1.369 . S
C3019 C3021 1.419 . S
C3019 H3023 0.930 . S
C3020 C3019 1.369 . S
C3020 C3029 1.429 . S
C3021 C3019 1.419 . S
C3021 C3022 1.363 . S
C3021 H3024 0.929 . S
C3022 C3021 1.363 . S
C3022 C3028 1.428 . S
H3023 C3019 0.930 . S
H3024 C3021 0.929 . S
S3025 N3026 1.613 . S
S3025 N3027 1.610 . S
N3026 S3025 1.613 . S
N3026 C3029 1.350 . S
N3027 S3025 1.610 . S
N3027 C3028 1.351 . S
C3028 C3022 1.428 . S
C3028 N3027 1.351 . S
C3028 C3029 1.434 . S
C3029 C3020 1.429 . S
C3029 N3026 1.350 . S
C3029 C3028 1.434 . S
C3030 C3031 1.369 . S
C3030 C3032 1.419 . S
C3030 H3034 0.930 . S
C3031 C3030 1.369 . S
C3031 C3040 1.429 . S
C3032 C3030 1.419 . S
C3032 C3033 1.363 . S
C3032 H3035 0.929 . S
C3033 C3032 1.363 . S
C3033 C3039 1.428 . S
H3034 C3030 0.930 . S
H3035 C3032 0.929 . S
S3036 N3037 1.613 . S
S3036 N3038 1.610 . S
N3037 S3036 1.613 . S
N3037 C3040 1.350 . S
N3038 S3036 1.610 . S
N3038 C3039 1.351 . S
C3039 C3033 1.428 . S
C3039 N3038 1.351 . S
C3039 C3040 1.434 . S
C3040 C3031 1.429 . S
C3040 N3037 1.350 . S
C3040 C3039 1.434 . S
C3041 C3042 1.369 . S
C3041 C3043 1.419 . S
C3041 H3045 0.930 . S
C3042 C3041 1.369 . S
C3042 C3051 1.429 . S
C3043 C3041 1.419 . S
C3043 C3044 1.363 . S
C3043 H3046 0.929 . S
C3044 C3043 1.363 . S
C3044 C3050 1.428 . S
H3045 C3041 0.930 . S
H3046 C3043 0.929 . S
S3047 N3048 1.613 . S
S3047 N3049 1.610 . S
N3048 S3047 1.613 . S
N3048 C3051 1.350 . S
N3049 S3047 1.610 . S
N3049 C3050 1.351 . S
C3050 C3044 1.428 . S
C3050 N3049 1.351 . S
C3050 C3051 1.434 . S
C3051 C3042 1.429 . S
C3051 N3048 1.350 . S
C3051 C3050 1.434 . S
C3052 C3053 1.369 . S
C3052 C3054 1.419 . S
C3052 H3056 0.930 . S
C3053 C3052 1.369 . S
C3053 C3062 1.429 . S
C3054 C3052 1.419 . S
C3054 C3055 1.363 . S
C3054 H3057 0.929 . S
C3055 C3054 1.363 . S
C3055 C3061 1.428 . S
H3056 C3052 0.930 . S
H3057 C3054 0.929 . S
S3058 N3059 1.613 . S
S3058 N3060 1.610 . S
N3059 S3058 1.613 . S
N3059 C3062 1.350 . S
N3060 S3058 1.610 . S
N3060 C3061 1.351 . S
C3061 C3055 1.428 . S
C3061 N3060 1.351 . S
C3061 C3062 1.434 . S
C3062 C3053 1.429 . S
C3062 N3059 1.350 . S
C3062 C3061 1.434 . S
C3063 C3064 1.369 . S
C3063 C3065 1.419 . S
C3063 H3067 0.930 . S
C3064 C3063 1.369 . S
C3064 C3073 1.429 . S
C3065 C3063 1.419 . S
C3065 C3066 1.363 . S
C3065 H3068 0.929 . S
C3066 C3065 1.363 . S
C3066 C3072 1.428 . S
H3067 C3063 0.930 . S
H3068 C3065 0.929 . S
S3069 N3070 1.613 . S
S3069 N3071 1.610 . S
N3070 S3069 1.613 . S
N3070 C3073 1.350 . S
N3071 S3069 1.610 . S
N3071 C3072 1.351 . S
C3072 C3066 1.428 . S
C3072 N3071 1.351 . S
C3072 C3073 1.434 . S
C3073 C3064 1.429 . S
C3073 N3070 1.350 . S
C3073 C3072 1.434 . S
C3074 C3075 1.369 . S
C3074 C3076 1.419 . S
C3074 H3078 0.930 . S
C3075 C3074 1.369 . S
C3075 C3084 1.429 . S
C3076 C3074 1.419 . S
C3076 C3077 1.363 . S
C3076 H3079 0.929 . S
C3077 C3076 1.363 . S
C3077 C3083 1.428 . S
H3078 C3074 0.930 . S
H3079 C3076 0.929 . S
S3080 N3081 1.613 . S
S3080 N3082 1.610 . S
N3081 S3080 1.613 . S
N3081 C3084 1.350 . S
N3082 S3080 1.610 . S
N3082 C3083 1.351 . S
C3083 C3077 1.428 . S
C3083 N3082 1.351 . S
C3083 C3084 1.434 . S
C3084 C3075 1.429 . S
C3084 N3081 1.350 . S
C3084 C3083 1.434 . S
C3085 C3086 1.369 . S
C3085 C3087 1.419 . S
C3085 H3089 0.930 . S
C3086 C3085 1.369 . S
C3086 C3095 1.429 . S
C3087 C3085 1.419 . S
C3087 C3088 1.363 . S
C3087 H3090 0.929 . S
C3088 C3087 1.363 . S
C3088 C3094 1.428 . S
H3089 C3085 0.930 . S
H3090 C3087 0.929 . S
S3091 N3092 1.613 . S
S3091 N3093 1.610 . S
N3092 S3091 1.613 . S
N3092 C3095 1.350 . S
N3093 S3091 1.610 . S
N3093 C3094 1.351 . S
C3094 C3088 1.428 . S
C3094 N3093 1.351 . S
C3094 C3095 1.434 . S
C3095 C3086 1.429 . S
C3095 N3092 1.350 . S
C3095 C3094 1.434 . S
C3096 C3097 1.369 . S
C3096 C3098 1.419 1_556 S
C3096 H3100 0.930 . S
C3097 C3096 1.369 . S
C3097 C3106 1.429 . S
C3098 C3096 1.419 1_554 S
C3098 C3099 1.363 . S
C3098 H3101 0.929 . S
C3099 C3098 1.363 . S
C3099 C3105 1.428 1_554 S
H3100 C3096 0.930 . S
H3101 C3098 0.929 . S
S3102 N3103 1.613 . S
S3102 N3104 1.610 1_556 S
N3103 S3102 1.613 . S
N3103 C3106 1.350 . S
N3104 S3102 1.610 1_554 S
N3104 C3105 1.351 1_554 S
C3105 C3099 1.428 1_556 S
C3105 N3104 1.351 1_556 S
C3105 C3106 1.434 . S
C3106 C3097 1.429 . S
C3106 N3103 1.350 . S
C3106 C3105 1.434 . S
C3107 C3108 1.369 . S
C3107 C3109 1.419 1_554 S
C3107 H3111 0.930 . S
C3108 C3107 1.369 . S
C3108 C3117 1.429 . S
C3109 C3107 1.419 1_556 S
C3109 C3110 1.363 . S
C3109 H3112 0.929 . S
C3110 C3109 1.363 . S
C3110 C3116 1.428 . S
H3111 C3107 0.930 . S
H3112 C3109 0.929 . S
S3113 N3114 1.613 1_556 S
S3113 N3115 1.610 . S
N3114 S3113 1.613 1_554 S
N3114 C3117 1.350 . S
N3115 S3113 1.610 . S
N3115 C3116 1.351 . S
C3116 C3110 1.428 . S
C3116 N3115 1.351 . S
C3116 C3117 1.434 1_556 S
C3117 C3108 1.429 . S
C3117 N3114 1.350 . S
C3117 C3116 1.434 1_554 S
C3118 C3119 1.369 . S
C3118 C3120 1.419 1_554 S
C3118 H3122 0.930 . S
C3119 C3118 1.369 . S
C3119 C3128 1.432 1_554 S
C3120 C3118 1.419 1_556 S
C3120 C3121 1.363 . S
C3120 H3123 0.929 . S
C3121 C3120 1.363 . S
C3121 C3127 1.428 . S
H3122 C3118 0.930 . S
H3123 C3120 0.929 . S
S3124 N3125 1.613 1_556 S
S3124 N3126 1.610 . S
N3125 S3124 1.613 1_554 S
N3125 C3128 1.351 1_554 S
N3126 S3124 1.610 . S
N3126 C3127 1.351 . S
C3127 C3121 1.428 . S
C3127 N3126 1.351 . S
C3127 C3128 1.428 . S
C3128 C3119 1.432 1_556 S
C3128 N3125 1.351 1_556 S
C3128 C3127 1.428 . S
C3129 C3130 1.369 . S
C3129 C3131 1.419 1_554 S
C3129 H3133 0.930 . S
C3130 C3129 1.369 . S
C3130 C3139 1.438 . S
C3131 C3129 1.419 1_556 S
C3131 C3132 1.363 . S
C3131 H3134 0.929 . S
C3132 C3131 1.363 . S
C3132 C3138 1.428 . S
H3133 C3129 0.930 . S
H3134 C3131 0.929 . S
S3135 N3136 1.613 1_556 S
S3135 N3137 1.610 . S
N3136 S3135 1.613 1_554 S
N3136 C3139 1.354 . S
N3137 S3135 1.610 . S
N3137 C3138 1.351 . S
C3138 C3132 1.428 . S
C3138 N3137 1.351 . S
C3138 C3139 1.420 1_556 S
C3139 C3130 1.438 . S
C3139 N3136 1.354 . S
C3139 C3138 1.420 1_554 S
C3140 C3141 1.369 . S
C3140 C3142 1.430 . S
C3140 H3144 0.930 . S
C3141 C3140 1.369 . S
C3141 C3150 1.429 . S
C3142 C3140 1.430 . S
C3142 C3143 1.356 1_554 S
C3142 H3145 0.926 1_554 S
C3143 C3142 1.356 1_556 S
C3143 C3149 1.428 . S
H3144 C3140 0.930 . S
H3145 C3142 0.926 1_556 S
S3146 N3147 1.567 1_556 S
S3146 N3148 1.645 . S
N3147 S3146 1.567 1_554 S
N3147 C3150 1.350 . S
N3148 S3146 1.645 . S
N3148 C3149 1.351 . S
C3149 C3143 1.428 . S
C3149 N3148 1.351 . S
C3149 C3150 1.434 1_556 S
C3150 C3141 1.429 . S
C3150 N3147 1.350 . S
C3150 C3149 1.434 1_554 S
C3151 C3152 1.369 . S
C3151 C3153 1.419 1_556 S
C3151 H3155 0.930 . S
C3152 C3151 1.369 . S
C3152 C3161 1.429 . S
C3153 C3151 1.419 1_554 S
C3153 C3154 1.363 . S
C3153 H3156 0.929 . S
C3154 C3153 1.363 . S
C3154 C3160 1.428 . S
H3155 C3151 0.930 . S
H3156 C3153 0.929 . S
S3157 N3158 1.613 1_554 S
S3157 N3159 1.610 . S
N3158 S3157 1.613 1_556 S
N3158 C3161 1.350 . S
N3159 S3157 1.610 . S
N3159 C3160 1.351 . S
C3160 C3154 1.428 . S
C3160 N3159 1.351 . S
C3160 C3161 1.434 1_554 S
C3161 C3152 1.429 . S
C3161 N3158 1.350 . S
C3161 C3160 1.434 1_556 S
C3162 C3163 1.369 . S
C3162 C3164 1.419 1_554 S
C3162 H3166 0.930 . S
C3163 C3162 1.369 . S
C3163 C3172 1.429 . S
C3164 C3162 1.419 1_556 S
C3164 C3165 1.363 . S
C3164 H3167 0.929 . S
C3165 C3164 1.363 . S
C3165 C3171 1.428 . S
H3166 C3162 0.930 . S
H3167 C3164 0.929 . S
S3168 N3169 1.613 . S
S3168 N3170 1.610 1_554 S
N3169 S3168 1.613 . S
N3169 C3172 1.350 . S
N3170 S3168 1.610 1_556 S
N3170 C3171 1.351 . S
C3171 C3165 1.428 . S
C3171 N3170 1.351 . S
C3171 C3172 1.434 1_556 S
C3172 C3163 1.429 . S
C3172 N3169 1.350 . S
C3172 C3171 1.434 1_554 S
C3173 C3174 1.369 . S
C3173 C3175 1.419 1_556 S
C3173 H3177 0.930 . S
C3174 C3173 1.369 . S
C3174 C3183 1.429 . S
C3175 C3173 1.419 1_554 S
C3175 C3176 1.363 . S
C3175 H3178 0.929 . S
C3176 C3175 1.363 . S
C3176 C3182 1.428 . S
H3177 C3173 0.930 . S
H3178 C3175 0.929 . S
S3179 N3180 1.613 1_554 S
S3179 N3181 1.610 . S
N3180 S3179 1.613 1_556 S
N3180 C3183 1.350 . S
N3181 S3179 1.610 . S
N3181 C3182 1.351 . S
C3182 C3176 1.428 . S
C3182 N3181 1.351 . S
C3182 C3183 1.434 1_554 S
C3183 C3174 1.429 . S
C3183 N3180 1.350 . S
C3183 C3182 1.434 1_556 S
C3184 C3185 1.369 . S
C3184 C3186 1.419 1_655 S
C3184 H3188 0.930 . S
C3185 C3184 1.369 . S
C3185 C3194 1.429 . S
C3186 C3184 1.419 1_455 S
C3186 C3187 1.363 . S
C3186 H3189 0.929 . S
C3187 C3186 1.363 . S
C3187 C3193 1.428 1_455 S
H3188 C3184 0.930 . S
H3189 C3186 0.929 . S
S3190 N3191 1.613 . S
S3190 N3192 1.610 1_655 S
N3191 S3190 1.613 . S
N3191 C3194 1.350 . S
N3192 S3190 1.610 1_455 S
N3192 C3193 1.351 1_455 S
C3193 C3187 1.428 1_655 S
C3193 N3192 1.351 1_655 S
C3193 C3194 1.434 . S
C3194 C3185 1.429 . S
C3194 N3191 1.350 . S
C3194 C3193 1.434 . S
C3195 C3196 1.369 . S
C3195 C3197 1.419 1_545 S
C3195 H3199 0.930 . S
C3196 C3195 1.369 . S
C3196 C3205 1.429 1_545 S
C3197 C3195 1.419 1_565 S
C3197 C3198 1.363 . S
C3197 H3200 0.929 . S
C3198 C3197 1.363 . S
C3198 C3204 1.428 . S
H3199 C3195 0.930 . S
H3200 C3197 0.929 . S
S3201 N3202 1.613 1_565 S
S3201 N3203 1.610 . S
N3202 S3201 1.613 1_545 S
N3202 C3205 1.350 1_545 S
N3203 S3201 1.610 . S
N3203 C3204 1.351 . S
C3204 C3198 1.428 . S
C3204 N3203 1.351 . S
C3204 C3205 1.434 . S
C3205 C3196 1.429 1_565 S
C3205 N3202 1.350 1_565 S
C3205 C3204 1.434 . S
C3206 C3207 1.369 . S
C3206 C3208 1.408 1_455 S
C3206 H3210 0.930 . S
C3207 C3206 1.369 . S
C3207 C3216 1.429 . S
C3208 C3206 1.408 1_655 S
C3208 C3209 1.370 . S
C3208 H3211 0.933 . S
C3209 C3208 1.370 . S
C3209 C3215 1.428 . S
H3210 C3206 0.930 . S
H3211 C3208 0.933 . S
S3212 N3213 1.641 . S
S3212 N3214 1.589 1_455 S
N3213 S3212 1.641 . S
N3213 C3216 1.350 . S
N3214 S3212 1.589 1_655 S
N3214 C3215 1.351 . S
C3215 C3209 1.428 . S
C3215 N3214 1.351 . S
C3215 C3216 1.434 1_655 S
C3216 C3207 1.429 . S
C3216 N3213 1.350 . S
C3216 C3215 1.434 1_455 S
C3217 C3218 1.369 . S
C3217 C3219 1.419 1_565 S
C3217 H3221 0.930 . S
C3218 C3217 1.369 . S
C3218 C3227 1.408 1_565 S
C3219 C3217 1.419 1_545 S
C3219 C3220 1.363 . S
C3219 H3222 0.929 . S
C3220 C3219 1.363 . S
C3220 C3226 1.428 . S
H3221 C3217 0.930 . S
H3222 C3219 0.929 . S
S3223 N3224 1.613 1_545 S
S3223 N3225 1.610 . S
N3224 S3223 1.613 1_565 S
N3224 C3227 1.343 1_565 S
N3225 S3223 1.610 . S
N3225 C3226 1.351 . S
C3226 C3220 1.428 . S
C3226 N3225 1.351 . S
C3226 C3227 1.465 . S
C3227 C3218 1.408 1_545 S
C3227 N3224 1.343 1_545 S
C3227 C3226 1.465 . S
C3228 C3229 1.325 1_655 S
C3228 C3230 1.481 . S
C3228 H3232 0.914 1_655 S
C3229 C3228 1.325 1_455 S
C3229 C3238 1.429 . S
C3230 C3228 1.481 . S
C3230 C3231 1.363 . S
C3230 H3233 0.929 . S
C3231 C3230 1.363 . S
C3231 C3237 1.428 . S
H3232 C3228 0.914 1_455 S
H3233 C3230 0.929 . S
S3234 N3235 1.613 . S
S3234 N3236 1.610 1_455 S
N3235 S3234 1.613 . S
N3235 C3238 1.350 . S
N3236 S3234 1.610 1_655 S
N3236 C3237 1.351 . S
C3237 C3231 1.428 . S
C3237 N3236 1.351 . S
C3237 C3238 1.434 1_655 S
C3238 C3229 1.429 . S
C3238 N3235 1.350 . S
C3238 C3237 1.434 1_455 S
C3239 C3240 1.369 . S
C3239 C3241 1.419 1_545 S
C3239 H3243 0.930 . S
C3240 C3239 1.369 . S
C3240 C3249 1.464 . S
C3241 C3239 1.419 1_565 S
C3241 C3242 1.363 . S
C3241 H3244 0.929 . S
C3242 C3241 1.363 . S
C3242 C3248 1.428 . S
H3243 C3239 0.930 . S
H3244 C3241 0.929 . S
S3245 N3246 1.613 1_565 S
S3245 N3247 1.610 . S
N3246 S3245 1.613 1_545 S
N3246 C3249 1.369 . S
N3247 S3245 1.610 . S
N3247 C3248 1.351 . S
C3248 C3242 1.428 . S
C3248 N3247 1.351 . S
C3248 C3249 1.375 1_565 S
C3249 C3240 1.464 . S
C3249 N3246 1.369 . S
C3249 C3248 1.375 1_545 S
C3250 C3251 1.370 . S
C3250 C3252 1.417 1_655 S
C3250 H3254 0.930 . S
C3251 C3250 1.370 . S
C3251 C3260 1.429 . S
C3252 C3250 1.417 1_455 S
C3252 C3253 1.363 . S
C3252 H3255 0.929 . S
C3253 C3252 1.363 . S
C3253 C3259 1.428 . S
H3254 C3250 0.930 . S
H3255 C3252 0.929 . S
S3256 N3257 1.613 1_455 S
S3256 N3258 1.610 . S
N3257 S3256 1.613 1_655 S
N3257 C3260 1.350 . S
N3258 S3256 1.610 . S
N3258 C3259 1.351 . S
C3259 C3253 1.428 . S
C3259 N3258 1.351 . S
C3259 C3260 1.434 1_455 S
C3260 C3251 1.429 . S
C3260 N3257 1.350 . S
C3260 C3259 1.434 1_655 S
C3261 C3262 1.333 1_545 S
C3261 C3263 1.470 . S
C3261 H3265 0.916 1_545 S
C3262 C3261 1.333 1_565 S
C3262 C3271 1.429 . S
C3263 C3261 1.470 . S
C3263 C3264 1.363 . S
C3263 H3266 0.929 . S
C3264 C3263 1.363 . S
C3264 C3270 1.428 . S
H3265 C3261 0.916 1_565 S
H3266 C3263 0.929 . S
S3267 N3268 1.613 . S
S3267 N3269 1.610 1_565 S
N3268 S3267 1.613 . S
N3268 C3271 1.350 . S
N3269 S3267 1.610 1_545 S
N3269 C3270 1.351 . S
C3270 C3264 1.428 . S
C3270 N3269 1.351 . S
C3270 C3271 1.434 1_545 S
C3271 C3262 1.429 . S
C3271 N3268 1.350 . S
C3271 C3270 1.434 1_565 S
C3272 C3273 1.369 . S
C3272 C3274 1.419 1_565 S
C3272 H3276 0.930 . S
C3273 C3272 1.369 . S
C3273 C3282 1.429 . S
C3274 C3272 1.419 1_545 S
C3274 C3275 1.363 . S
C3274 H3277 0.929 . S
C3275 C3274 1.363 . S
C3275 C3281 1.389 1_545 S
H3276 C3272 0.930 . S
H3277 C3274 0.929 . S
S3278 N3279 1.613 . S
S3278 N3280 1.610 1_565 S
N3279 S3278 1.613 . S
N3279 C3282 1.350 . S
N3280 S3278 1.610 1_545 S
N3280 C3281 1.340 1_545 S
C3281 C3275 1.389 1_565 S
C3281 N3280 1.340 1_565 S
C3281 C3282 1.492 . S
C3282 C3273 1.429 . S
C3282 N3279 1.350 . S
C3282 C3281 1.492 . S
C3283 C3284 1.369 . S
C3283 C3285 1.419 1_565 S
C3283 H3287 0.930 . S
C3284 C3283 1.369 . S
C3284 C3293 1.429 . S
C3285 C3283 1.419 1_545 S
C3285 C3286 1.363 . S
C3285 H3288 0.929 . S
C3286 C3285 1.363 . S
C3286 C3292 1.428 . S
H3287 C3283 0.930 . S
H3288 C3285 0.929 . S
S3289 N3290 1.613 1_545 S
S3289 N3291 1.610 . S
N3290 S3289 1.613 1_565 S
N3290 C3293 1.350 . S
N3291 S3289 1.610 . S
N3291 C3292 1.351 . S
C3292 C3286 1.428 . S
C3292 N3291 1.351 . S
C3292 C3293 1.434 1_545 S
C3293 C3284 1.429 . S
C3293 N3290 1.350 . S
C3293 C3292 1.434 1_565 S
C3294 C3295 1.369 . S
C3294 C3296 1.419 1_455 S
C3294 H3298 0.930 . S
C3295 C3294 1.369 . S
C3295 C3304 1.426 . S
C3296 C3294 1.419 1_655 S
C3296 C3297 1.363 . S
C3296 H3299 0.929 . S
C3297 C3296 1.363 . S
C3297 C3303 1.428 . S
H3298 C3294 0.930 . S
H3299 C3296 0.929 . S
S3300 N3301 1.613 1_655 S
S3300 N3302 1.610 . S
N3301 S3300 1.613 1_455 S
N3301 C3304 1.349 . S
N3302 S3300 1.610 . S
N3302 C3303 1.351 . S
C3303 C3297 1.428 . S
C3303 N3302 1.351 . S
C3303 C3304 1.438 1_655 S
C3304 C3295 1.426 . S
C3304 N3301 1.349 . S
C3304 C3303 1.438 1_455 S
C3305 C3306 1.369 . S
C3305 C3307 1.419 1_545 S
C3305 H3309 0.930 . S
C3306 C3305 1.369 . S
C3306 C3315 1.429 . S
C3307 C3305 1.419 1_565 S
C3307 C3308 1.363 . S
C3307 H3310 0.929 . S
C3308 C3307 1.363 . S
C3308 C3314 1.428 . S
H3309 C3305 0.930 . S
H3310 C3307 0.929 . S
S3311 N3312 1.613 1_565 S
S3311 N3313 1.610 . S
N3312 S3311 1.613 1_545 S
N3312 C3315 1.350 . S
N3313 S3311 1.610 . S
N3313 C3314 1.351 . S
C3314 C3308 1.428 . S
C3314 N3313 1.351 . S
C3314 C3315 1.434 1_565 S
C3315 C3306 1.429 . S
C3315 N3312 1.350 . S
C3315 C3314 1.434 1_545 S
C3316 C3317 1.369 . S
C3316 C3318 1.419 1_655 S
C3316 H3320 0.930 . S
C3317 C3316 1.369 . S
C3317 C3326 1.462 . S
C3318 C3316 1.419 1_455 S
C3318 C3319 1.363 . S
C3318 H3321 0.929 . S
C3319 C3318 1.363 . S
C3319 C3325 1.428 . S
H3320 C3316 0.930 . S
H3321 C3318 0.929 . S
S3322 N3323 1.613 1_455 S
S3322 N3324 1.610 . S
N3323 S3322 1.613 1_655 S
N3323 C3326 1.368 . S
N3324 S3322 1.610 . S
N3324 C3325 1.351 . S
C3325 C3319 1.428 . S
C3325 N3324 1.351 . S
C3325 C3326 1.380 1_455 S
C3326 C3317 1.462 . S
C3326 N3323 1.368 . S
C3326 C3325 1.380 1_655 S
C3327 C3328 1.369 . S
C3327 C3329 1.429 . S
C3327 H3331 0.930 . S
C3328 C3327 1.369 . S
C3328 C3337 1.429 . S
C3329 C3327 1.429 . S
C3329 C3330 1.356 1_545 S
C3329 H3332 0.926 1_545 S
C3330 C3329 1.356 1_565 S
C3330 C3336 1.428 . S
H3331 C3327 0.930 . S
H3332 C3329 0.926 1_565 S
S3333 N3334 1.606 1_565 S
S3333 N3335 1.616 . S
N3334 S3333 1.606 1_545 S
N3334 C3337 1.350 . S
N3335 S3333 1.616 . S
N3335 C3336 1.351 . S
C3336 C3330 1.428 . S
C3336 N3335 1.351 . S
C3336 C3337 1.434 1_565 S
C3337 C3328 1.429 . S
C3337 N3334 1.350 . S
C3337 C3336 1.434 1_545 S
C3338 C3339 1.369 . S
C3338 C3340 1.419 1_655 S
C3338 H3342 0.930 . S
C3339 C3338 1.369 . S
C3339 C3348 1.429 . S
C3340 C3338 1.419 1_455 S
C3340 C3341 1.363 . S
C3340 H3343 0.929 . S
C3341 C3340 1.363 . S
C3341 C3347 1.399 1_455 S
H3342 C3338 0.930 . S
H3343 C3340 0.929 . S
S3344 N3345 1.613 . S
S3344 N3346 1.610 1_655 S
N3345 S3344 1.613 . S
N3345 C3348 1.350 . S
N3346 S3344 1.610 1_455 S
N3346 C3347 1.342 1_455 S
C3347 C3341 1.399 1_655 S
C3347 N3346 1.342 1_655 S
C3347 C3348 1.478 . S
C3348 C3339 1.429 . S
C3348 N3345 1.350 . S
C3348 C3347 1.478 . S
C3349 C3350 1.369 . S
C3349 C3351 1.419 1_655 S
C3349 H3353 0.930 . S
C3350 C3349 1.369 . S
C3350 C3359 1.429 . S
C3351 C3349 1.419 1_455 S
C3351 C3352 1.363 . S
C3351 H3354 0.929 . S
C3352 C3351 1.363 . S
C3352 C3358 1.428 . S
H3353 C3349 0.930 . S
H3354 C3351 0.929 . S
S3355 N3356 1.613 1_455 S
S3355 N3357 1.610 . S
N3356 S3355 1.613 1_655 S
N3356 C3359 1.350 . S
N3357 S3355 1.610 . S
N3357 C3358 1.351 . S
C3358 C3352 1.428 . S
C3358 N3357 1.351 . S
C3358 C3359 1.434 1_455 S
C3359 C3350 1.429 . S
C3359 N3356 1.350 . S
C3359 C3358 1.434 1_655 S
C1249 C3 1.327 . S
C1251 C408 1.375 . S
C1260 C16 1.336 . S
C1262 C369 1.373 . S
C1271 C380 1.372 . S
C1273 C29 1.334 . S
C1282 C393 1.375 . S
C1284 C44 1.328 . S
C1293 C330 1.377 . S
C1295 C57 1.333 . S
C1304 C341 1.372 . S
C1306 C68 1.335 . S
C1315 C83 1.337 . S
C1317 C354 1.374 . S
C1326 C315 1.377 . S
C1328 C96 1.328 . S
C1337 C108 1.323 . S
C1339 C576 1.378 . S
C1348 C122 1.332 . S
C1350 C536 1.373 . S
C1359 C134 1.326 . S
C1361 C550 1.374 . S
C1370 C148 1.337 . S
C1372 C564 1.373 . S
C1381 C166 1.326 . S
C1383 C615 1.374 . S
C1392 C174 1.327 . S
C1394 C590 1.377 . S
C1403 C192 1.323 . S
C1405 C602 1.378 . S
C1414 C523 1.372 . S
C1416 C198 1.334 . S
C1425 C211 1.330 . S
C1427 C510 1.373 . S
C1436 C432 1.376 . S
C1438 C226 1.334 . S
C1447 C452 1.378 . S
C1449 C244 1.324 . S
C1458 C252 1.326 . S
C1460 C458 1.376 . S
C1469 C426 1.378 . S
C1471 C264 1.324 . S
C1480 C486 1.373 . S
C1482 C278 1.336 . S
C1491 C296 1.329 . S
C1493 C504 1.373 . S
C1502 C309 1.332 . S
C1504 C472 1.377 . S
C1513 C1032 1.373 . S
C1515 C629 1.330 . S
C1524 C993 1.372 . S
C1526 C642 1.334 . S
C1535 C655 1.328 . S
C1537 C1006 1.377 . S
C1546 C1017 1.372 . S
C1548 C666 1.333 . S
C1557 C681 1.337 . S
C1559 C954 1.373 . S
C1568 C694 1.336 . S
C1570 C965 1.375 . S
C1579 C980 1.377 . S
C1581 C705 1.328 . S
C1590 C939 1.372 . S
C1592 C720 1.331 . S
C1601 C1200 1.372 . S
C1603 C738 1.332 . S
C1612 C1162 1.372 . S
C1614 C746 1.333 . S
C1623 C764 1.324 . S
C1625 C1180 1.378 . S
C1634 C772 1.335 . S
C1636 C1186 1.376 . S
C1645 C1239 1.372 . S
C1647 C784 1.329 . S
C1656 C1214 1.376 . S
C1658 C798 1.335 . S
C1667 C1232 1.375 . S
C1669 C810 1.325 . S
C1678 C822 1.328 . S
C1680 C1149 1.377 . S
C1689 C1134 1.375 . S
C1691 C837 1.336 . S
C1700 C848 1.337 . S
C1702 C1058 1.373 . S
C1711 C1076 1.372 . S
C1713 C862 1.330 . S
C1722 C1082 1.373 . S
C1724 C874 1.336 . S
C1733 C1044 1.379 . S
C1735 C888 1.327 . S
C1744 C902 1.328 . S
C1746 C1108 1.374 . S
C1755 C914 1.334 . S
C1757 C1122 1.373 . S
C1766 C1096 1.373 . S
C1768 C933 1.333 . S
C1777 C4 1.952 . S
C1779 C887 1.954 . S
C1788 C17 1.952 . S
C1790 C849 1.946 . S
C1799 C30 1.952 . S
C1801 C861 1.954 . S
C1810 C49 1.945 . S
C1812 C875 1.946 . S
C1821 C928 1.962 . S
C1823 C62 1.949 . S
C1832 C69 1.951 . S
C1834 C907 1.945 . S
C1843 C913 1.962 . S
C1845 C88 1.949 . S
C1854 C101 1.944 . S
C1856 C842 1.951 . S
C1865 C823 1.952 . S
C1867 C107 1.954 . S
C1876 C127 1.955 . S
C1878 C783 1.956 . S
C1887 C803 1.945 . S
C1889 C133 1.959 . S
C1898 C153 1.954 . S
C1900 C809 1.958 . S
C1909 C161 1.959 . S
C1911 C751 1.953 . S
C1920 C179 1.945 . S
C1922 C759 1.958 . S
C1931 C777 1.954 . S
C1933 C187 1.959 . S
C1942 C733 1.953 . S
C1944 C199 1.952 . S
C1953 C212 1.950 . S
C1955 C725 1.945 . S
C1964 C231 1.952 . S
C1966 C647 1.946 . S
C1975 C239 1.953 . S
C1977 C660 1.951 . S
C1986 C257 1.953 . S
C1988 C667 1.946 . S
C1997 C263 1.961 . S
C1999 C634 1.947 . S
C2008 C699 1.952 . S
C2010 C283 1.946 . S
C2019 C706 1.955 . S
C2021 C291 1.956 . S
C2030 C304 1.953 . S
C2032 C686 1.950 . S
C2041 C322 1.380 . S
C2043 C1201 1.375 . S
C2052 C329 1.377 . S
C2054 C1161 1.380 . S
C2063 C348 1.381 . S
C2065 C1173 1.374 . S
C2074 C361 1.379 . S
C2076 C1193 1.377 . S
C2085 C368 1.377 . S
C2087 C1240 1.374 . S
C2096 C1213 1.377 . S
C2098 C387 1.380 . S
C2107 C400 1.380 . S
C2109 C1225 1.373 . S
C2118 C407 1.380 . S
C2120 C1148 1.377 . S
C2129 C1141 1.381 . S
C2131 C419 1.375 . S
C2140 C1097 1.376 . S
C2142 C439 1.377 . S
C2151 C1115 1.376 . S
C2153 C445 1.376 . S
C2162 C1123 1.373 . S
C2164 C465 1.380 . S
C2173 C473 1.373 . S
C2175 C1057 1.378 . S
C2184 C485 1.377 . S
C2186 C1069 1.374 . S
C2195 C497 1.374 . S
C2197 C1089 1.380 . S
C2206 C1045 1.374 . S
C2208 C517 1.377 . S
C2217 C1031 1.381 . S
C2219 C530 1.379 . S
C2228 C543 1.377 . S
C2230 C953 1.380 . S
C2239 C972 1.381 . S
C2241 C551 1.374 . S
C2250 C979 1.380 . S
C2252 C563 1.377 . S
C2261 C577 1.376 . S
C2263 C946 1.380 . S
C2272 C589 1.379 . S
C2274 C1005 1.377 . S
C2283 C1024 1.377 . S
C2285 C603 1.376 . S
C2294 C616 1.375 . S
C2296 C992 1.380 . S
C2305 C10 1.842 . S
C2307 C374 1.796 . S
C2316 C23 1.839 . S
C2318 C381 1.795 . S
C2327 C36 1.841 . S
C2329 C394 1.795 . S
C2338 C43 1.840 . S
C2340 C413 1.797 . S
C2349 C316 1.797 . S
C2351 C56 1.841 . S
C2360 C75 1.841 . S
C2362 C335 1.797 . S
C2371 C342 1.795 . S
C2373 C82 1.842 . S
C2382 C355 1.792 . S
C2384 C95 1.839 . S
C2393 C109 1.840 . S
C2395 C499 1.811 . S
C2404 C511 1.797 . S
C2406 C121 1.843 . S
C2415 C135 1.844 . S
C2417 C471 1.813 . S
C2426 C147 1.841 . S
C2428 C491 1.797 . S
C2437 C159 1.841 . S
C2439 C447 1.813 . S
C2448 C173 1.844 . S
C2450 C459 1.801 . S
C2459 C185 1.842 . S
C2461 C421 1.811 . S
C2470 C433 1.795 . S
C2472 C205 1.842 . S
C2481 C218 1.839 . S
C2483 C595 1.792 . S
C2492 C225 1.838 . S
C2494 C569 1.792 . S
C2503 C575 1.810 . S
C2505 C237 1.842 . S
C2514 C251 1.838 . S
C2516 C537 1.792 . S
C2525 C549 1.815 . S
C2527 C265 1.843 . S
C2536 C277 1.837 . S
C2538 C524 1.792 . S
C2547 C614 1.809 . S
C2549 C289 1.841 . S
C2558 C601 1.814 . S
C2560 C302 1.842 . S
C2569 C628 1.843 . S
C2571 C998 1.798 . S
C2580 C641 1.838 . S
C2582 C1011 1.792 . S
C2591 C654 1.844 . S
C2593 C1018 1.801 . S
C2602 C1037 1.796 . S
C2604 C673 1.841 . S
C2613 C680 1.841 . S
C2615 C940 1.795 . S
C2624 C693 1.838 . S
C2626 C959 1.795 . S
C2635 C712 1.844 . S
C2637 C966 1.799 . S
C2646 C719 1.838 . S
C2648 C985 1.792 . S
C2657 C731 1.840 . S
C2659 C1121 1.809 . S
C2668 C1135 1.799 . S
C2670 C745 1.844 . S
C2679 C1095 1.813 . S
C2681 C757 1.842 . S
C2690 C1109 1.800 . S
C2692 C771 1.844 . S
C2701 C785 1.843 . S
C2703 C1071 1.814 . S
C2712 C1083 1.800 . S
C2714 C797 1.844 . S
C2723 C811 1.840 . S
C2725 C1043 1.809 . S
C2734 C1063 1.799 . S
C2736 C829 1.844 . S
C2745 C1219 1.791 . S
C2747 C836 1.839 . S
C2756 C1187 1.791 . S
C2758 C855 1.838 . S
C2767 C863 1.840 . S
C2769 C1199 1.809 . S
C2778 C881 1.841 . S
C2780 C1167 1.796 . S
C2789 C1175 1.814 . S
C2791 C889 1.842 . S
C2800 C901 1.838 . S
C2802 C1154 1.793 . S
C2811 C1238 1.809 . S
C2813 C915 1.840 . S
C2822 C1227 1.813 . S
C2824 C926 1.841 . S
C2833 C343 1.431 . S
C2835 C5 1.428 . S
C2844 C18 1.436 . S
C2846 C356 1.436 . S
C2855 C317 1.434 . S
C2857 C31 1.428 . S
C2866 C42 1.440 . S
C2868 C328 1.436 . S
C2877 C395 1.433 . S
C2879 C55 1.428 . S
C2888 C406 1.435 . S
C2890 C70 1.439 . S
C2899 C81 1.434 . S
C2901 C367 1.432 . S
C2910 C382 1.442 . S
C2912 C94 1.439 . S
C2921 C114 1.433 . S
C2923 C478 1.429 . S
C2932 C120 1.431 . S
C2934 C484 1.429 . S
C2943 C498 1.426 . S
C2945 C140 1.432 . S
C2954 C146 1.427 . S
C2956 C512 1.431 . S
C2965 C160 1.433 . S
C2967 C420 1.429 . S
C2976 C434 1.433 . S
C2978 C172 1.433 . S
C2987 C446 1.426 . S
C2989 C186 1.430 . S
C2998 C460 1.431 . S
C3000 C200 1.434 . S
C3009 C213 1.438 . S
C3011 C562 1.441 . S
C3020 C588 1.435 . S
C3022 C224 1.438 . S
C3031 C238 1.431 . S
C3033 C608 1.432 . S
C3042 C525 1.439 . S
C3044 C250 1.435 . S
C3053 C621 1.429 . S
C3055 C270 1.432 . S
C3064 C538 1.440 . S
C3066 C276 1.440 . S
C3075 C290 1.433 . S
C3077 C556 1.430 . S
C3086 C303 1.430 . S
C3088 C582 1.427 . S
C3097 C627 1.429 . S
C3099 C967 1.434 . S
C3108 C978 1.436 . S
C3110 C640 1.437 . S
C3119 C941 1.435 . S
C3121 C653 1.429 . S
C3130 C952 1.437 . S
C3132 C668 1.436 . S
C3141 C679 1.434 . S
C3143 C1019 1.430 . S
C3152 C1030 1.435 . S
C3154 C692 1.437 . S
C3163 C707 1.428 . S
C3165 C991 1.430 . S
C3174 C1004 1.442 . S
C3176 C718 1.438 . S
C3185 C732 1.427 . S
C3187 C1102 1.432 . S
C3196 C1110 1.432 . S
C3198 C744 1.428 . S
C3207 C758 1.433 . S
C3209 C1128 1.428 . S
C3218 C1136 1.434 . S
C3220 C770 1.429 . S
C3229 C1050 1.428 . S
C3231 C790 1.432 . S
C3240 C1056 1.435 . S
C3242 C796 1.430 . S
C3251 C1070 1.431 . S
C3253 C816 1.432 . S
C3262 C1084 1.431 . S
C3264 C824 1.434 . S
C3273 C835 1.435 . S
C3275 C1188 1.441 . S
C3284 C1212 1.436 . S
C3286 C850 1.437 . S
C3295 C1226 1.428 . S
C3297 C868 1.427 . S
C3306 C1147 1.442 . S
C3308 C876 1.439 . S
C3317 C1245 1.427 . S
C3319 C894 1.428 . S
C3328 C900 1.438 . S
C3330 C1160 1.436 . S
C3339 C920 1.426 . S
C3341 C1174 1.431 . S
C3350 C1206 1.426 . S
C3352 C927 1.430 . S
