# Generated by pormake.
# Topology smd, (6)-cn, num edge types: 1
# Building blocks:
#     Node 0, Type 0, BuildingBlock: GEDQOX_clean_sbu_0, # of connection points: 6
#     Node 1, Type 0, BuildingBlock: GEDQOX_clean_sbu_0, # of connection points: 6
#     Node 2, Type 0, BuildingBlock: GEDQOX_clean_sbu_0, # of connection points: 6
#     Node 3, Type 0, BuildingBlock: GEDQOX_clean_sbu_0, # of connection points: 6
#     Node 4, Type 0, BuildingBlock: GEDQOX_clean_sbu_0, # of connection points: 6
#     Node 5, Type 0, BuildingBlock: GEDQOX_clean_sbu_0, # of connection points: 6
#     Node 6, Type 0, BuildingBlock: GEDQOX_clean_sbu_0, # of connection points: 6
#     Node 7, Type 0, BuildingBlock: GEDQOX_clean_sbu_0, # of connection points: 6
#     Node 8, Type 0, BuildingBlock: GEDQOX_clean_sbu_0, # of connection points: 6
#     Node 9, Type 0, BuildingBlock: GEDQOX_clean_sbu_0, # of connection points: 6
#     Node 10, Type 0, BuildingBlock: GEDQOX_clean_sbu_0, # of connection points: 6
#     Node 11, Type 0, BuildingBlock: GEDQOX_clean_sbu_0, # of connection points: 6
#     Node 12, Type 0, BuildingBlock: GEDQOX_clean_sbu_0, # of connection points: 6
#     Node 13, Type 0, BuildingBlock: GEDQOX_clean_sbu_0, # of connection points: 6
#     Node 14, Type 0, BuildingBlock: GEDQOX_clean_sbu_0, # of connection points: 6
#     Node 15, Type 0, BuildingBlock: GEDQOX_clean_sbu_0, # of connection points: 6
#     Node 16, Type 0, BuildingBlock: GEDQOX_clean_sbu_0, # of connection points: 6
#     Node 17, Type 0, BuildingBlock: GEDQOX_clean_sbu_0, # of connection points: 6
#     Edge 18, Type (0, 0), BuildingBlock: ZUJKAS_clean_linker_0, # of connection points: 2
#     Edge 19, Type (0, 0), BuildingBlock: ZUJKAS_clean_linker_0, # of connection points: 2
#     Edge 20, Type (0, 0), BuildingBlock: ZUJKAS_clean_linker_0, # of connection points: 2
#     Edge 21, Type (0, 0), BuildingBlock: ZUJKAS_clean_linker_0, # of connection points: 2
#     Edge 22, Type (0, 0), BuildingBlock: ZUJKAS_clean_linker_0, # of connection points: 2
#     Edge 23, Type (0, 0), BuildingBlock: ZUJKAS_clean_linker_0, # of connection points: 2
#     Edge 24, Type (0, 0), BuildingBlock: ZUJKAS_clean_linker_0, # of connection points: 2
#     Edge 25, Type (0, 0), BuildingBlock: ZUJKAS_clean_linker_0, # of connection points: 2
#     Edge 26, Type (0, 0), BuildingBlock: ZUJKAS_clean_linker_0, # of connection points: 2
#     Edge 27, Type (0, 0), BuildingBlock: ZUJKAS_clean_linker_0, # of connection points: 2
#     Edge 28, Type (0, 0), BuildingBlock: ZUJKAS_clean_linker_0, # of connection points: 2
#     Edge 29, Type (0, 0), BuildingBlock: ZUJKAS_clean_linker_0, # of connection points: 2
#     Edge 30, Type (0, 0), BuildingBlock: ZUJKAS_clean_linker_0, # of connection points: 2
#     Edge 31, Type (0, 0), BuildingBlock: ZUJKAS_clean_linker_0, # of connection points: 2
#     Edge 32, Type (0, 0), BuildingBlock: ZUJKAS_clean_linker_0, # of connection points: 2
#     Edge 33, Type (0, 0), BuildingBlock: ZUJKAS_clean_linker_0, # of connection points: 2
#     Edge 34, Type (0, 0), BuildingBlock: ZUJKAS_clean_linker_0, # of connection points: 2
#     Edge 35, Type (0, 0), BuildingBlock: ZUJKAS_clean_linker_0, # of connection points: 2
#     Edge 36, Type (0, 0), BuildingBlock: ZUJKAS_clean_linker_0, # of connection points: 2
#     Edge 37, Type (0, 0), BuildingBlock: ZUJKAS_clean_linker_0, # of connection points: 2
#     Edge 38, Type (0, 0), BuildingBlock: ZUJKAS_clean_linker_0, # of connection points: 2
#     Edge 39, Type (0, 0), BuildingBlock: ZUJKAS_clean_linker_0, # of connection points: 2
#     Edge 40, Type (0, 0), BuildingBlock: ZUJKAS_clean_linker_0, # of connection points: 2
#     Edge 41, Type (0, 0), BuildingBlock: ZUJKAS_clean_linker_0, # of connection points: 2
#     Edge 42, Type (0, 0), BuildingBlock: ZUJKAS_clean_linker_0, # of connection points: 2
#     Edge 43, Type (0, 0), BuildingBlock: ZUJKAS_clean_linker_0, # of connection points: 2
#     Edge 44, Type (0, 0), BuildingBlock: ZUJKAS_clean_linker_0, # of connection points: 2
#     Edge 45, Type (0, 0), BuildingBlock: ZUJKAS_clean_linker_0, # of connection points: 2
#     Edge 46, Type (0, 0), BuildingBlock: ZUJKAS_clean_linker_0, # of connection points: 2
#     Edge 47, Type (0, 0), BuildingBlock: ZUJKAS_clean_linker_0, # of connection points: 2
#     Edge 48, Type (0, 0), BuildingBlock: ZUJKAS_clean_linker_0, # of connection points: 2
#     Edge 49, Type (0, 0), BuildingBlock: ZUJKAS_clean_linker_0, # of connection points: 2
#     Edge 50, Type (0, 0), BuildingBlock: ZUJKAS_clean_linker_0, # of connection points: 2
#     Edge 51, Type (0, 0), BuildingBlock: ZUJKAS_clean_linker_0, # of connection points: 2
#     Edge 52, Type (0, 0), BuildingBlock: ZUJKAS_clean_linker_0, # of connection points: 2
#     Edge 53, Type (0, 0), BuildingBlock: ZUJKAS_clean_linker_0, # of connection points: 2
#     Edge 54, Type (0, 0), BuildingBlock: ZUJKAS_clean_linker_0, # of connection points: 2
#     Edge 55, Type (0, 0), BuildingBlock: ZUJKAS_clean_linker_0, # of connection points: 2
#     Edge 56, Type (0, 0), BuildingBlock: ZUJKAS_clean_linker_0, # of connection points: 2
#     Edge 57, Type (0, 0), BuildingBlock: ZUJKAS_clean_linker_0, # of connection points: 2
#     Edge 58, Type (0, 0), BuildingBlock: ZUJKAS_clean_linker_0, # of connection points: 2
#     Edge 59, Type (0, 0), BuildingBlock: ZUJKAS_clean_linker_0, # of connection points: 2
#     Edge 60, Type (0, 0), BuildingBlock: ZUJKAS_clean_linker_0, # of connection points: 2
#     Edge 61, Type (0, 0), BuildingBlock: ZUJKAS_clean_linker_0, # of connection points: 2
#     Edge 62, Type (0, 0), BuildingBlock: ZUJKAS_clean_linker_0, # of connection points: 2
#     Edge 63, Type (0, 0), BuildingBlock: ZUJKAS_clean_linker_0, # of connection points: 2
#     Edge 64, Type (0, 0), BuildingBlock: ZUJKAS_clean_linker_0, # of connection points: 2
#     Edge 65, Type (0, 0), BuildingBlock: ZUJKAS_clean_linker_0, # of connection points: 2
#     Edge 66, Type (0, 0), BuildingBlock: ZUJKAS_clean_linker_0, # of connection points: 2
#     Edge 67, Type (0, 0), BuildingBlock: ZUJKAS_clean_linker_0, # of connection points: 2
#     Edge 68, Type (0, 0), BuildingBlock: ZUJKAS_clean_linker_0, # of connection points: 2
#     Edge 69, Type (0, 0), BuildingBlock: ZUJKAS_clean_linker_0, # of connection points: 2
#     Edge 70, Type (0, 0), BuildingBlock: ZUJKAS_clean_linker_0, # of connection points: 2
#     Edge 71, Type (0, 0), BuildingBlock: ZUJKAS_clean_linker_0, # of connection points: 2
# Relax obj value: 0.268
# Max RMSD: 0.257
# Mean RMSD: 0.257
data_MOF--net-smd--node1-GEDQOX_clean_sbu_0--edge1-ZUJKAS_clean_linker_0
_symmetry_space_group_name_H-M    P1
_symmetry_Int_Tables_number       1
_symmetry_cell_setting            triclinic
loop_
_symmetry_equiv_pos_as_xyz
'x, y, z'
_cell_length_a     114.58948
_cell_length_b     114.56226
_cell_length_c     20.131978
_cell_angle_alpha  90.077696
_cell_angle_beta   89.924849
_cell_angle_gamma 119.98833
loop_
_atom_site_label
_atom_site_type_symbol
_atom_site_fract_x
_atom_site_fract_y
_atom_site_fract_z
_atom_type_partial_charge
Nd0 Nd 0.04084 0.23881 0.59104 0.0
Nd1 Nd 0.01323 0.24213 0.59453 0.0
C2 C 0.06606 0.24394 0.59192 0.0
C3 C 0.07629 0.24062 0.56733 0.0
C4 C 0.08601 0.24913 0.52102 0.0
C5 C 0.09695 0.24743 0.50482 0.0
C6 C 0.09852 0.23721 0.53487 0.0
C7 C 0.08855 0.22842 0.57965 0.0
C8 C 0.07758 0.23012 0.59579 0.0
C9 C 0.01658 0.21455 0.57947 0.0
C10 C 0.02639 0.23971 0.45173 0.0
C11 C 0.9887 0.23852 0.60324 0.0
C12 C 0.98262 0.24621 0.63092 0.0
C13 C 0.971 0.23962 0.67035 0.0
C14 C 0.96517 0.24676 0.69754 0.0
C15 C 0.97083 0.26064 0.68547 0.0
C16 C 0.98254 0.26725 0.64633 0.0
C17 C 0.98842 0.26013 0.61958 0.0
C18 C 0.03695 0.2667 0.59892 0.0
C19 C 0.02739 0.24056 0.73401 0.0
O20 O 0.06168 0.24987 0.55125 0.0
O21 O 0.05684 0.23566 0.6338 0.0
O22 O 0.02828 0.21523 0.57664 0.0
O23 O 0.01871 0.22624 0.58871 0.0
O24 O 0.03763 0.24188 0.48159 0.0
O25 O 0.01541 0.23769 0.48446 0.0
O26 O 0.99357 0.23353 0.64656 0.0
O27 O 0.99634 0.24355 0.55039 0.0
O28 O 0.02507 0.26551 0.60067 0.0
O29 O 0.03553 0.2551 0.59731 0.0
O30 O 0.01633 0.23872 0.70373 0.0
O31 O 0.03831 0.24245 0.70164 0.0
H32 H 0.08541 0.25742 0.49877 0.0
H33 H 0.10429 0.25426 0.46933 0.0
H34 H 0.08947 0.22053 0.6044 0.0
H35 H 0.0704 0.22347 0.63236 0.0
H36 H 0.96642 0.22892 0.68008 0.0
H37 H 0.95612 0.24138 0.7272 0.0
H38 H 0.98728 0.27798 0.63708 0.0
H39 H 0.99752 0.26553 0.59023 0.0
Nd40 Nd 0.81559 0.82316 0.58825 0.0
Nd41 Nd 0.81197 0.7921 0.59001 0.0
C42 C 0.8107 0.84344 0.58966 0.0
C43 C 0.81416 0.8571 0.56619 0.0
C44 C 0.80639 0.85852 0.51627 0.0
C45 C 0.8081 0.87119 0.50082 0.0
C46 C 0.81756 0.8828 0.53519 0.0
C47 C 0.82564 0.88143 0.58369 0.0
C48 C 0.82394 0.86874 0.59913 0.0
C49 C 0.83976 0.82299 0.57655 0.0
C50 C 0.81462 0.80792 0.44807 0.0
C51 C 0.81543 0.77105 0.59803 0.0
C52 C 0.80819 0.75731 0.62729 0.0
C53 C 0.81235 0.75467 0.68835 0.0
C54 C 0.80565 0.74173 0.716 0.0
C55 C 0.79466 0.73107 0.68305 0.0
C56 C 0.79055 0.73372 0.62177 0.0
C57 C 0.79722 0.74666 0.59424 0.0
C58 C 0.78751 0.79151 0.59411 0.0
C59 C 0.81338 0.80758 0.73047 0.0
O60 O 0.80492 0.83329 0.54797 0.0
O61 O 0.81876 0.84229 0.63212 0.0
O62 O 0.83916 0.83406 0.5749 0.0
O63 O 0.82803 0.81343 0.5847 0.0
O64 O 0.81256 0.81703 0.47847 0.0
O65 O 0.81651 0.79884 0.48025 0.0
O66 O 0.82097 0.78122 0.63972 0.0
O67 O 0.80988 0.7734 0.54656 0.0
O68 O 0.78858 0.78075 0.59519 0.0
O69 O 0.79916 0.80161 0.5934 0.0
O70 O 0.81501 0.79825 0.69977 0.0
O71 O 0.81179 0.81683 0.69855 0.0
H72 H 0.79865 0.84976 0.49047 0.0
H73 H 0.80184 0.87186 0.46247 0.0
H74 H 0.83293 0.89009 0.61178 0.0
H75 H 0.82996 0.86802 0.63858 0.0
H76 H 0.82081 0.76263 0.71495 0.0
H77 H 0.80901 0.74013 0.76361 0.0
H78 H 0.78228 0.72573 0.59437 0.0
H79 H 0.79379 0.74826 0.54683 0.0
Nd80 Nd 0.23207 0.01575 0.58121 0.0
Nd81 Nd 0.26247 0.04036 0.58311 0.0
C82 C 0.20905 0.99336 0.56191 0.0
C83 C 0.19614 0.98075 0.55106 0.0
C84 C 0.1959 0.96845 0.54328 0.0
C85 C 0.18374 0.95653 0.53159 0.0
C86 C 0.17153 0.95664 0.52822 0.0
C87 C 0.1718 0.96898 0.53641 0.0
C88 C 0.18399 0.98092 0.5473 0.0
C89 C 0.23566 0.04134 0.59342 0.0
C90 C 0.24841 0.02782 0.4404 0.0
C91 C 0.28407 0.06447 0.59272 0.0
C92 C 0.29711 0.07045 0.62722 0.0
C93 C 0.30501 0.08448 0.63273 0.0
C94 C 0.31761 0.09033 0.66377 0.0
C95 C 0.32256 0.08224 0.68978 0.0
C96 C 0.31448 0.06813 0.68472 0.0
C97 C 0.30186 0.06229 0.65389 0.0
C98 C 0.26258 0.01633 0.58705 0.0
C99 C 0.24642 0.0265 0.724 0.0
O100 O 0.21948 0.99347 0.58937 0.0
O101 O 0.21085 1.0052 0.54536 0.0
O102 O 0.22607 0.03087 0.62336 0.0
O103 O 0.24238 0.03792 0.55705 0.0
O104 O 0.23881 0.01732 0.47241 0.0
O105 O 0.25766 0.0387 0.47172 0.0
O106 O 0.27339 0.06053 0.63038 0.0
O107 O 0.28228 0.05593 0.545 0.0
O108 O 0.2734 0.02806 0.58886 0.0
O109 O 0.25246 0.01787 0.58561 0.0
O110 O 0.25597 0.03729 0.69322 0.0
O111 O 0.23684 0.01605 0.69158 0.0
H112 H 0.20514 0.96806 0.54561 0.0
H113 H 0.18387 0.9472 0.52607 0.0
H114 H 0.1626 0.96944 0.53346 0.0
H115 H 0.1839 0.99028 0.55308 0.0
H116 H 0.30146 0.09092 0.61271 0.0
H117 H 0.32343 0.10121 0.66765 0.0
H118 H 0.31802 0.06158 0.70332 0.0
H119 H 0.29588 0.05141 0.65018 0.0
Nd120 Nd 0.04502 0.80829 0.41854 0.0
Nd121 Nd 0.01803 0.81276 0.42061 0.0
C122 C 0.06943 0.81152 0.41153 0.0
C123 C 0.07559 0.80424 0.38061 0.0
C124 C 0.08937 0.81112 0.36581 0.0
C125 C 0.09539 0.80433 0.3368 0.0
C126 C 0.08771 0.79047 0.32217 0.0
C127 C 0.07382 0.78365 0.33659 0.0
C128 C 0.06781 0.79048 0.36528 0.0
C129 C 0.02082 0.78428 0.41218 0.0
C130 C 0.03133 0.81035 0.27824 0.0
C131 C 0.99302 0.80823 0.41941 0.0
C132 C 0.98278 0.81152 0.44437 0.0
C133 C 0.97354 0.80346 0.49358 0.0
C134 C 0.96252 0.80502 0.50986 0.0
C135 C 0.96036 0.81463 0.47703 0.0
C136 C 0.96986 0.82299 0.42935 0.0
C137 C 0.98091 0.82144 0.4131 0.0
C138 C 0.04275 0.83648 0.43211 0.0
C139 C 0.03199 0.81128 0.56082 0.0
O140 O 0.06511 0.81743 0.37057 0.0
O141 O 0.06115 0.8054 0.46118 0.0
O142 O 0.03247 0.78494 0.41108 0.0
O143 O 0.02271 0.79605 0.41414 0.0
O144 O 0.04213 0.81157 0.30885 0.0
O145 O 0.0206 0.80908 0.31016 0.0
O146 O 0.99707 0.80182 0.45878 0.0
O147 O 1.00247 0.81674 0.37913 0.0
O148 O 0.0313 0.83635 0.4327 0.0
O149 O 0.04017 0.82459 0.42543 0.0
O150 O 0.02103 0.80979 0.53054 0.0
O151 O 0.04276 0.81262 0.52862 0.0
H152 H 0.0955 0.82178 0.37674 0.0
H153 H 0.10604 0.80997 0.32536 0.0
H154 H 0.06761 0.77296 0.32684 0.0
H155 H 0.05711 0.78499 0.37595 0.0
H156 H 0.97457 0.79561 0.5181 0.0
H157 H 0.95555 0.79854 0.54756 0.0
H158 H 0.96848 0.83039 0.40241 0.0
H159 H 0.98768 0.82768 0.37418 0.0
Nd160 Nd 0.24594 0.25836 0.41628 0.0
Nd161 Nd 0.24237 0.22725 0.41966 0.0
C162 C 0.24224 0.27921 0.40591 0.0
C163 C 0.24939 0.29266 0.37442 0.0
C164 C 0.24232 0.29673 0.33246 0.0
C165 C 0.24889 0.30941 0.30202 0.0
C166 C 0.2627 0.31834 0.31318 0.0
C167 C 0.26977 0.31417 0.35504 0.0
C168 C 0.26322 0.30146 0.38502 0.0
C169 C 0.27035 0.25891 0.41132 0.0
C170 C 0.2442 0.24241 0.27656 0.0
C171 C 0.24765 0.20727 0.42004 0.0
C172 C 0.2453 0.19429 0.44775 0.0
C173 C 0.25639 0.1935 0.47152 0.0
C174 C 0.25503 0.18112 0.48997 0.0
C175 C 0.24252 0.16916 0.48498 0.0
C176 C 0.23127 0.17001 0.46339 0.0
C177 C 0.23265 0.18245 0.4447 0.0
C178 C 0.21828 0.22753 0.43218 0.0
C179 C 0.24336 0.24276 0.55914 0.0
O180 O 0.23663 0.26885 0.3654 0.0
O181 O 0.24803 0.27721 0.45748 0.0
O182 O 0.26932 0.2697 0.41016 0.0
O183 O 0.25868 0.24883 0.41248 0.0
O184 O 0.2428 0.25192 0.30689 0.0
O185 O 0.24566 0.2331 0.30873 0.0
O186 O 0.25431 0.21818 0.45629 0.0
O187 O 0.23835 0.20737 0.38237 0.0
O188 O 0.21882 0.21642 0.43411 0.0
O189 O 0.23002 0.23704 0.42353 0.0
O190 O 0.24525 0.23349 0.52924 0.0
O191 O 0.24163 0.25191 0.52656 0.0
H192 H 0.23168 0.29007 0.32308 0.0
H193 H 0.24316 0.31214 0.26929 0.0
H194 H 0.28035 0.32081 0.36568 0.0
H195 H 0.26898 0.29858 0.41675 0.0
H196 H 0.26626 0.20245 0.47401 0.0
H197 H 0.26385 0.1809 0.50743 0.0
H198 H 0.2215 0.161 0.45857 0.0
H199 H 0.22392 0.18272 0.42619 0.0
Nd200 Nd 0.79653 0.00949 0.42258 0.0
Nd201 Nd 0.82766 0.03684 0.42539 0.0
C202 C 0.77555 0.98497 0.41338 0.0
C203 C 0.76216 0.97893 0.38213 0.0
C204 C 0.755 0.96509 0.36856 0.0
C205 C 0.74229 0.95924 0.33866 0.0
C206 C 0.73648 0.96715 0.32182 0.0
C207 C 0.74378 0.98108 0.33525 0.0
C208 C 0.75651 0.98691 0.36486 0.0
C209 C 0.79609 0.03344 0.41908 0.0
C210 C 0.81216 0.02368 0.2826 0.0
C211 C 0.84794 0.06197 0.42478 0.0
C212 C 0.86153 0.07222 0.44851 0.0
C213 C 0.86289 0.08293 0.48815 0.0
C214 C 0.87563 0.09381 0.50324 0.0
C215 C 0.88739 0.0943 0.47891 0.0
C216 C 0.88603 0.08335 0.44086 0.0
C217 C 0.87326 0.07246 0.42569 0.0
C218 C 0.82733 0.01242 0.43689 0.0
C219 C 0.81221 0.02252 0.56505 0.0
O220 O 0.78583 0.98961 0.37251 0.0
O221 O 0.77758 0.99297 0.46416 0.0
O222 O 0.78529 0.02164 0.41789 0.0
O223 O 0.80615 0.03182 0.41942 0.0
O224 O 0.8027 0.01274 0.31286 0.0
O225 O 0.82149 0.03442 0.31492 0.0
O226 O 0.83775 0.05763 0.46622 0.0
O227 O 0.84687 0.05276 0.38245 0.0
O228 O 0.83844 0.02405 0.43869 0.0
O229 O 0.81782 0.01467 0.42882 0.0
O230 O 0.8214 0.03368 0.535 0.0
O231 O 0.80312 0.0116 0.53253 0.0
H232 H 0.75927 0.95879 0.381 0.0
H233 H 0.73708 0.94854 0.32816 0.0
H234 H 0.73958 0.98747 0.32389 0.0
H235 H 0.76191 0.99765 0.37461 0.0
H236 H 0.85405 0.08315 0.50553 0.0
H237 H 0.87621 0.10209 0.53182 0.0
H238 H 0.89484 0.08326 0.42205 0.0
H239 H 0.87259 0.06442 0.39462 0.0
Nd240 Nd 0.70568 0.56966 0.91901 0.0
Nd241 Nd 0.68166 0.57634 0.91899 0.0
C242 C 0.72755 0.56743 0.91163 0.0
C243 C 0.74044 0.56948 0.88365 0.0
C244 C 0.7528 0.57968 0.90898 0.0
C245 C 0.76488 0.58006 0.89267 0.0
C246 C 0.7649 0.57022 0.85086 0.0
C247 C 0.75258 0.56035 0.82336 0.0
C248 C 0.74051 0.55996 0.83972 0.0
C249 C 0.67975 0.54813 0.93089 0.0
C250 C 0.69466 0.57459 0.77734 0.0
C251 C 0.65781 0.57458 0.92486 0.0
C252 C 0.65151 0.58145 0.95893 0.0
C253 C 0.65459 0.58577 0.0252 0.0
C254 C 0.64857 0.59239 0.05608 0.0
C255 C 0.63943 0.59495 0.02117 0.0
C256 C 0.63641 0.59061 0.95476 0.0
C257 C 0.64238 0.58392 0.92411 0.0
C258 C 0.70606 0.60009 0.92414 0.0
C259 C 0.69463 0.57378 0.06078 0.0
O260 O 0.72722 0.57731 0.943 0.0
O261 O 0.71611 0.55893 0.88325 0.0
O262 O 0.69005 0.5488 0.96137 0.0
O263 O 0.68348 0.55825 0.89418 0.0
O264 O 0.70505 0.57529 0.8099 0.0
O265 O 0.68378 0.57312 0.80809 0.0
O266 O 0.66116 0.56726 0.96171 0.0
O267 O 0.66682 0.58159 0.87937 0.0
O268 O 0.69449 0.59954 0.92568 0.0
O269 O 0.70421 0.58831 0.92283 0.0
O270 O 0.68401 0.57278 0.0295 0.0
O271 O 0.70503 0.57444 0.02882 0.0
H272 H 0.7531 0.58702 0.94391 0.0
H273 H 0.77412 0.58772 0.91546 0.0
H274 H 0.75221 0.55273 0.79016 0.0
H275 H 0.73116 0.55186 0.81992 0.0
H276 H 0.66167 0.58405 0.05311 0.0
H277 H 0.65102 0.59544 0.10746 0.0
H278 H 0.62964 0.5926 0.92585 0.0
H279 H 0.63994 0.58076 0.87281 0.0
Nd280 Nd 0.48231 0.1562 0.92656 0.0
Nd281 Nd 0.4788 0.12516 0.92877 0.0
C282 C 0.4773 0.17638 0.92772 0.0
C283 C 0.48073 0.18999 0.9038 0.0
C284 C 0.47123 0.19147 0.86631 0.0
C285 C 0.47326 0.20428 0.85117 0.0
C286 C 0.48486 0.21598 0.87332 0.0
C287 C 0.49459 0.21448 0.90914 0.0
C288 C 0.49254 0.20165 0.92433 0.0
C289 C 0.50649 0.15607 0.91486 0.0
C290 C 0.48128 0.14087 0.78654 0.0
C291 C 0.48246 0.10424 0.93701 0.0
C292 C 0.47511 0.09052 0.96556 0.0
C293 C 0.48199 0.08597 1.00599 0.0
C294 C 0.47524 0.07299 0.03327 0.0
C295 C 0.46147 0.06428 0.02039 0.0
C296 C 0.45457 0.06893 0.98041 0.0
C297 C 0.4613 0.08192 0.95346 0.0
C298 C 0.45433 0.12449 0.9336 0.0
C299 C 0.48028 0.14076 0.06895 0.0
O300 O 0.47143 0.16616 0.88644 0.0
O301 O 0.48547 0.17533 0.96985 0.0
O302 O 0.50589 0.16713 0.91309 0.0
O303 O 0.49477 0.14651 0.92306 0.0
O304 O 0.47928 0.15003 0.81689 0.0
O305 O 0.48315 0.13179 0.81875 0.0
O306 O 0.48769 0.11425 0.97962 0.0
O307 O 0.47705 0.10664 0.88506 0.0
O308 O 0.45543 0.11375 0.93486 0.0
O309 O 0.46596 0.13463 0.93225 0.0
O310 O 0.48198 0.13146 0.03832 0.0
O311 O 0.4786 0.14995 0.03697 0.0
H312 H 0.46194 0.18268 0.85068 0.0
H313 H 0.46545 0.20497 0.82432 0.0
H314 H 0.50374 0.22324 0.92618 0.0
H315 H 0.50005 0.20089 0.95364 0.0
H316 H 0.49262 0.09245 0.01628 0.0
H317 H 0.48088 0.06971 0.06351 0.0
H318 H 0.44391 0.06258 0.9705 0.0
H319 H 0.45567 0.08521 0.92324 0.0
Nd320 Nd 0.8975 0.34757 0.93134 0.0
Nd321 Nd 0.92734 0.37389 0.93613 0.0
C322 C 0.87566 0.3235 0.94295 0.0
C323 C 0.86269 0.3128 0.91478 0.0
C324 C 0.86215 0.30186 0.88018 0.0
C325 C 0.84975 0.29068 0.8628 0.0
C326 C 0.83755 0.29008 0.87983 0.0
C327 C 0.83812 0.30123 0.91255 0.0
C328 C 0.85052 0.31241 0.93 0.0
C329 C 0.89917 0.37209 0.90967 0.0
C330 C 0.91266 0.36052 0.79315 0.0
C331 C 0.94833 0.39854 0.9434 0.0
C332 C 0.96202 0.40474 0.97153 0.0
C333 C 0.96893 0.41849 0.98736 0.0
C334 C 0.98186 0.42448 0.01497 0.0
C335 C 0.98814 0.41681 0.0273 0.0
C336 C 0.9811 0.40298 0.01147 0.0
C337 C 0.96816 0.397 0.98411 0.0
C338 C 0.92896 0.35061 0.93436 0.0
C339 C 0.91287 0.35977 0.07651 0.0
O340 O 0.88696 0.32543 0.91653 0.0
O341 O 0.87641 0.33462 0.9653 0.0
O342 O 0.89013 0.36094 0.88186 0.0
O343 O 0.90614 0.36979 0.95032 0.0
O344 O 0.90423 0.34913 0.82361 0.0
O345 O 0.92069 0.37181 0.82608 0.0
O346 O 0.93844 0.39373 0.98645 0.0
O347 O 0.94587 0.39063 0.89193 0.0
O348 O 0.93941 0.36258 0.93866 0.0
O349 O 0.91855 0.35162 0.93399 0.0
O350 O 0.9231 0.37011 0.04692 0.0
O351 O 0.90268 0.34996 0.04336 0.0
H352 H 0.8713 0.30169 0.86868 0.0
H353 H 0.84976 0.28225 0.83844 0.0
H354 H 0.82896 0.30125 0.92562 0.0
H355 H 0.85053 0.32057 0.9573 0.0
H356 H 0.9643 0.4246 0.97861 0.0
H357 H 0.98686 0.43509 0.02743 0.0
H358 H 0.98565 0.39678 0.01935 0.0
H359 H 0.96296 0.38633 0.97261 0.0
Nd360 Nd 0.71164 0.14119 0.75727 0.0
Nd361 Nd 0.68457 0.1455 0.76008 0.0
C362 C 0.73597 0.14425 0.74987 0.0
C363 C 0.74241 0.13728 0.71775 0.0
C364 C 0.74076 0.13412 0.64965 0.0
C365 C 0.74696 0.1275 0.62055 0.0
C366 C 0.75487 0.1238 0.65897 0.0
C367 C 0.75639 0.12691 0.72721 0.0
C368 C 0.75026 0.1336 0.75614 0.0
C369 C 0.68742 0.1171 0.75211 0.0
C370 C 0.69777 0.14301 0.61725 0.0
C371 C 0.65949 0.14078 0.75908 0.0
C372 C 0.64917 0.14396 0.78354 0.0
C373 C 0.63832 0.13432 0.82141 0.0
C374 C 0.62738 0.13606 0.83685 0.0
C375 C 0.62696 0.14749 0.81466 0.0
C376 C 0.63804 0.15736 0.77845 0.0
C377 C 0.649 0.1556 0.76292 0.0
C378 C 0.70913 0.16937 0.77209 0.0
C379 C 0.69866 0.14406 0.89985 0.0
O380 O 0.73183 0.15065 0.71096 0.0
O381 O 0.7276 0.13778 0.79866 0.0
O382 O 0.69909 0.1178 0.75078 0.0
O383 O 0.68934 0.12888 0.75333 0.0
O384 O 0.70858 0.1442 0.6475 0.0
O385 O 0.68711 0.14186 0.6495 0.0
O386 O 0.66367 0.13461 0.79924 0.0
O387 O 0.66886 0.14923 0.71826 0.0
O388 O 0.69759 0.16904 0.77311 0.0
O389 O 0.70677 0.15755 0.76463 0.0
O390 O 0.68763 0.14244 0.86983 0.0
O391 O 0.70946 0.14555 0.86738 0.0
H392 H 0.73469 0.13676 0.61876 0.0
H393 H 0.74567 0.12541 0.56777 0.0
H394 H 0.76216 0.124 0.75868 0.0
H395 H 0.7516 0.13584 0.80881 0.0
H396 H 0.63805 0.12515 0.83705 0.0
H397 H 0.61899 0.12815 0.86394 0.0
H398 H 0.63819 0.16639 0.76135 0.0
H399 H 0.65714 0.16319 0.73323 0.0
Nd400 Nd 0.91363 0.59194 0.75282 0.0
Nd401 Nd 0.9093 0.56053 0.75465 0.0
C402 C 0.91055 0.61322 0.74506 0.0
C403 C 0.91754 0.62666 0.71291 0.0
C404 C 0.9177 0.62806 0.64343 0.0
C405 C 0.92434 0.64085 0.61417 0.0
C406 C 0.93101 0.65253 0.65359 0.0
C407 C 0.93081 0.65108 0.72306 0.0
C408 C 0.92412 0.6383 0.7523 0.0
C409 C 0.93772 0.59184 0.74773 0.0
C410 C 0.91176 0.57626 0.61227 0.0
C411 C 0.91404 0.54018 0.753 0.0
C412 C 0.91115 0.52681 0.77771 0.0
C413 C 0.92168 0.52559 0.80599 0.0
C414 C 0.91997 0.51293 0.82144 0.0
C415 C 0.90764 0.50109 0.80904 0.0
C416 C 0.89694 0.50235 0.78252 0.0
C417 C 0.89869 0.51506 0.76684 0.0
C418 C 0.88549 0.56133 0.76692 0.0
C419 C 0.9107 0.57599 0.89492 0.0
O420 O 0.90418 0.60265 0.7062 0.0
O421 O 0.91693 0.61129 0.79422 0.0
O422 O 0.937 0.6028 0.74677 0.0
O423 O 0.92594 0.58194 0.74844 0.0
O424 O 0.91066 0.58592 0.64293 0.0
O425 O 0.91285 0.5667 0.6441 0.0
O426 O 0.92046 0.55067 0.79217 0.0
O427 O 0.90527 0.5409 0.71378 0.0
O428 O 0.88577 0.55009 0.76791 0.0
O429 O 0.89732 0.57073 0.75947 0.0
O430 O 0.91228 0.56656 0.86454 0.0
O431 O 0.90926 0.58536 0.86283 0.0
H432 H 0.91271 0.61931 0.61148 0.0
H433 H 0.92413 0.64157 0.56061 0.0
H434 H 0.93602 0.65981 0.75499 0.0
H435 H 0.92415 0.63753 0.80592 0.0
H436 H 0.93146 0.53445 0.81398 0.0
H437 H 0.92853 0.51243 0.84072 0.0
H438 H 0.88724 0.49351 0.7732 0.0
H439 H 0.89038 0.51565 0.7448 0.0
Nd440 Nd 0.46289 0.34304 0.76889 0.0
Nd441 Nd 0.49287 0.36916 0.76665 0.0
C442 C 0.44051 0.31967 0.75188 0.0
C443 C 0.42747 0.31429 0.71648 0.0
C444 C 0.42461 0.30563 0.66185 0.0
C445 C 0.41209 0.29999 0.62993 0.0
C446 C 0.40211 0.30281 0.6522 0.0
C447 C 0.40506 0.31157 0.70662 0.0
C448 C 0.41757 0.31725 0.73827 0.0
C449 C 0.46428 0.36734 0.78725 0.0
C450 C 0.47749 0.35657 0.62448 0.0
C451 C 0.51286 0.39442 0.76845 0.0
C452 C 0.52592 0.40507 0.79532 0.0
C453 C 0.52684 0.41705 0.81861 0.0
C454 C 0.5393 0.42812 0.83563 0.0
C455 C 0.55122 0.42751 0.82967 0.0
C456 C 0.55025 0.41532 0.8086 0.0
C457 C 0.53773 0.40423 0.79135 0.0
C458 C 0.49344 0.3452 0.77929 0.0
C459 C 0.47896 0.35433 0.90744 0.0
O460 O 0.45133 0.3235 0.71569 0.0
O461 O 0.44257 0.32766 0.80249 0.0
O462 O 0.45508 0.35614 0.8131 0.0
O463 O 0.47167 0.36535 0.74744 0.0
O464 O 0.46711 0.3468 0.6567 0.0
O465 O 0.488 0.36645 0.65523 0.0
O466 O 0.50201 0.3901 0.80526 0.0
O467 O 0.5127 0.38509 0.72991 0.0
O468 O 0.50434 0.35696 0.77799 0.0
O469 O 0.48363 0.34704 0.77425 0.0
O470 O 0.4869 0.36593 0.8771 0.0
O471 O 0.47071 0.34319 0.87419 0.0
H472 H 0.43202 0.30313 0.64406 0.0
H473 H 0.41027 0.29343 0.58767 0.0
H474 H 0.39757 0.31381 0.72595 0.0
H475 H 0.41937 0.32382 0.78043 0.0
H476 H 0.51791 0.41801 0.8217 0.0
H477 H 0.53961 0.43724 0.85272 0.0
H478 H 0.55922 0.41452 0.80302 0.0
H479 H 0.53737 0.39515 0.7731 0.0
Nd480 Nd 0.37223 0.90192 0.25462 0.0
Nd481 Nd 0.34842 0.90889 0.25491 0.0
C482 C 0.39378 0.89922 0.24737 0.0
C483 C 0.40621 0.89979 0.22273 0.0
C484 C 0.41725 0.9117 0.19871 0.0
C485 C 0.42933 0.91202 0.18211 0.0
C486 C 0.43061 0.90047 0.18977 0.0
C487 C 0.4194 0.88856 0.21325 0.0
C488 C 0.40738 0.88823 0.22918 0.0
C489 C 0.34617 0.88059 0.26546 0.0
C490 C 0.36124 0.90693 0.1128 0.0
C491 C 0.32459 0.90714 0.26164 0.0
C492 C 0.31832 0.91402 0.29575 0.0
C493 C 0.30454 0.90682 0.31059 0.0
C494 C 0.29826 0.91323 0.34103 0.0
C495 C 0.30566 0.92703 0.35712 0.0
C496 C 0.31957 0.93417 0.34308 0.0
C497 C 0.32585 0.92772 0.31289 0.0
C498 C 0.37286 0.93249 0.26197 0.0
C499 C 0.36129 0.906 0.39647 0.0
O500 O 0.39412 0.91011 0.27018 0.0
O501 O 0.38195 0.89 0.22555 0.0
O502 O 0.35633 0.88116 0.29689 0.0
O503 O 0.35008 0.89077 0.22895 0.0
O504 O 0.37145 0.9072 0.1451 0.0
O505 O 0.35054 0.9059 0.14371 0.0
O506 O 0.32797 0.89992 0.29899 0.0
O507 O 0.33356 0.91406 0.21583 0.0
O508 O 0.36133 0.93204 0.26329 0.0
O509 O 0.37097 0.9207 0.25968 0.0
O510 O 0.35069 0.90502 0.36515 0.0
O511 O 0.3717 0.90668 0.3645 0.0
H512 H 0.41663 0.92078 0.19362 0.0
H513 H 0.43765 0.92133 0.16345 0.0
H514 H 0.41999 0.87953 0.22143 0.0
H515 H 0.39906 0.87898 0.24858 0.0
H516 H 0.29858 0.89621 0.29822 0.0
H517 H 0.28761 0.90733 0.35217 0.0
H518 H 0.32558 0.94483 0.35404 0.0
H519 H 0.33654 0.93348 0.30221 0.0
Nd520 Nd 0.15119 0.48956 0.25281 0.0
Nd521 Nd 0.14488 0.45917 0.25292 0.0
C522 C 0.15374 0.51374 0.24452 0.0
C523 C 0.15258 0.52529 0.21983 0.0
C524 C 0.14018 0.52502 0.21813 0.0
C525 C 0.13973 0.53681 0.20457 0.0
C526 C 0.15168 0.54911 0.19313 0.0
C527 C 0.16399 0.54919 0.19263 0.0
C528 C 0.16443 0.53744 0.20586 0.0
C529 C 0.17288 0.48541 0.26536 0.0
C530 C 0.14647 0.47362 0.11107 0.0
C531 C 0.14707 0.43734 0.26051 0.0
C532 C 0.13996 0.42424 0.29462 0.0
C533 C 0.14666 0.41702 0.30643 0.0
C534 C 0.13997 0.40442 0.33751 0.0
C535 C 0.12641 0.39877 0.35727 0.0
C536 C 0.1198 0.40616 0.34599 0.0
C537 C 0.12653 0.41879 0.3152 0.0
C538 C 0.12085 0.45921 0.25777 0.0
C539 C 0.14706 0.47468 0.39461 0.0
O540 O 0.14344 0.50348 0.27313 0.0
O541 O 0.16244 0.51085 0.2181 0.0
O542 O 0.1719 0.49474 0.29721 0.0
O543 O 0.16289 0.47906 0.22784 0.0
O544 O 0.14567 0.48327 0.14361 0.0
O545 O 0.14803 0.46429 0.1419 0.0
O546 O 0.15397 0.44794 0.2984 0.0
O547 O 0.14035 0.43934 0.21343 0.0
O548 O 0.12174 0.44838 0.25932 0.0
O549 O 0.13249 0.46941 0.25643 0.0
O550 O 0.14837 0.46521 0.36344 0.0
O551 O 0.14618 0.48424 0.36241 0.0
H552 H 0.13088 0.51583 0.22936 0.0
H553 H 0.13009 0.53641 0.20573 0.0
H554 H 0.17337 0.55842 0.183 0.0
H555 H 0.17414 0.53798 0.20752 0.0
H556 H 0.15706 0.42112 0.29135 0.0
H557 H 0.14545 0.39915 0.34634 0.0
H558 H 0.10933 0.40209 0.35968 0.0
H559 H 0.12119 0.42423 0.30682 0.0
Nd560 Nd 0.56527 0.68141 0.26454 0.0
Nd561 Nd 0.59496 0.70772 0.26842 0.0
C562 C 0.5433 0.65746 0.27683 0.0
C563 C 0.53014 0.64699 0.2494 0.0
C564 C 0.5294 0.63748 0.20278 0.0
C565 C 0.51695 0.6264 0.18511 0.0
C566 C 0.5049 0.62448 0.21386 0.0
C567 C 0.50563 0.63424 0.25887 0.0
C568 C 0.51808 0.64531 0.2765 0.0
C569 C 0.56678 0.70587 0.24258 0.0
C570 C 0.58024 0.6942 0.12585 0.0
C571 C 0.61592 0.7324 0.27527 0.0
C572 C 0.62963 0.73858 0.30307 0.0
C573 C 0.63658 0.75233 0.31867 0.0
C574 C 0.6495 0.75831 0.34625 0.0
C575 C 0.65576 0.75062 0.35875 0.0
C576 C 0.64869 0.73678 0.34317 0.0
C577 C 0.63574 0.73081 0.31583 0.0
C578 C 0.59688 0.68462 0.26682 0.0
C579 C 0.58078 0.69363 0.40925 0.0
O580 O 0.55443 0.65931 0.24862 0.0
O581 O 0.5443 0.66858 0.3007 0.0
O582 O 0.55779 0.69469 0.21489 0.0
O583 O 0.5738 0.70364 0.2832 0.0
O584 O 0.57191 0.68283 0.15671 0.0
O585 O 0.58823 0.70554 0.15848 0.0
O586 O 0.60609 0.72758 0.31859 0.0
O587 O 0.6134 0.72449 0.22371 0.0
O588 O 0.60722 0.69666 0.27068 0.0
O589 O 0.58634 0.68542 0.26674 0.0
O590 O 0.59088 0.70403 0.37936 0.0
O591 O 0.57063 0.68373 0.37633 0.0
H592 H 0.53848 0.63836 0.18133 0.0
H593 H 0.51678 0.61922 0.14955 0.0
H594 H 0.49663 0.63305 0.28277 0.0
H595 H 0.51829 0.6523 0.31342 0.0
H596 H 0.63196 0.75846 0.30982 0.0
H597 H 0.65452 0.76893 0.35859 0.0
H598 H 0.65321 0.73056 0.35127 0.0
H599 H 0.63051 0.72014 0.30455 0.0
Nd600 Nd 0.37893 0.47515 0.10132 0.0
Nd601 Nd 0.35261 0.47874 0.1001 0.0
C602 C 0.40266 0.47695 0.08388 0.0
C603 C 0.40857 0.47057 0.04298 0.0
C604 C 0.42228 0.47484 0.04947 0.0
C605 C 0.42796 0.46838 0.0143 0.0
C606 C 0.42002 0.45749 0.97178 0.0
C607 C 0.40626 0.45339 0.9645 0.0
C608 C 0.40058 0.45988 0.99985 0.0
C609 C 0.35482 0.45217 0.12176 0.0
C610 C 0.36494 0.47551 0.95754 0.0
C611 C 0.32739 0.47364 0.10268 0.0
C612 C 0.3172 0.47687 0.12901 0.0
C613 C 0.30748 0.46811 0.17466 0.0
C614 C 0.29653 0.46973 0.19211 0.0
C615 C 0.29498 0.48012 0.16404 0.0
C616 C 0.30497 0.48916 0.12 0.0
C617 C 0.31592 0.48754 0.10257 0.0
C618 C 0.37647 0.50337 0.11243 0.0
C619 C 0.36749 0.47953 0.24064 0.0
O620 O 0.39903 0.48468 0.05301 0.0
O621 O 0.39393 0.46924 0.12868 0.0
O622 O 0.36619 0.45435 0.14642 0.0
O623 O 0.35655 0.46142 0.08163 0.0
O624 O 0.37475 0.47494 0.9894 0.0
O625 O 0.35516 0.47629 0.98861 0.0
O626 O 0.33189 0.4676 0.14177 0.0
O627 O 0.33647 0.48204 0.06069 0.0
O628 O 0.36468 0.50243 0.11111 0.0
O629 O 0.37468 0.49173 0.10728 0.0
O630 O 0.3559 0.47593 0.21028 0.0
O631 O 0.37864 0.48243 0.20747 0.0
H632 H 0.42856 0.48303 0.08284 0.0
H633 H 0.43852 0.47168 0.02202 0.0
H634 H 0.39988 0.44515 0.93165 0.0
H635 H 0.38995 0.45645 0.99423 0.0
H636 H 0.30803 0.45966 0.19505 0.0
H637 H 0.28899 0.46247 0.22549 0.0
H638 H 0.30423 0.49739 0.09813 0.0
H639 H 0.32314 0.49441 0.06678 0.0
Nd640 Nd 0.5802 0.92513 0.08598 0.0
Nd641 Nd 0.57664 0.89406 0.08754 0.0
C642 C 0.57668 0.94613 0.07836 0.0
C643 C 0.58409 0.95987 0.04949 0.0
C644 C 0.57879 0.96315 0.99438 0.0
C645 C 0.58569 0.97605 0.96637 0.0
C646 C 0.59804 0.98601 0.99312 0.0
C647 C 0.6033 0.98271 0.04854 0.0
C648 C 0.59644 0.9698 0.07626 0.0
C649 C 0.60465 0.92576 0.08091 0.0
C650 C 0.57858 0.90954 0.94547 0.0
C651 C 0.5819 0.87406 0.08607 0.0
C652 C 0.57923 0.86078 0.11097 0.0
C653 C 0.5901 0.85955 0.13421 0.0
C654 C 0.58844 0.84693 0.1501 0.0
C655 C 0.57581 0.83515 0.14329 0.0
C656 C 0.5648 0.83644 0.12173 0.0
C657 C 0.5665 0.84912 0.10559 0.0
C658 C 0.5525 0.89429 0.09866 0.0
C659 C 0.57744 0.90919 0.22795 0.0
O660 O 0.57123 0.93604 0.03614 0.0
O661 O 0.58208 0.94367 0.13015 0.0
O662 O 0.60357 0.93652 0.08005 0.0
O663 O 0.59301 0.91564 0.08185 0.0
O664 O 0.57694 0.91885 0.97633 0.0
O665 O 0.58027 0.90034 0.97721 0.0
O666 O 0.58818 0.88459 0.12517 0.0
O667 O 0.57301 0.87456 0.04686 0.0
O668 O 0.55301 0.88317 0.09935 0.0
O669 O 0.56427 0.90383 0.09206 0.0
O670 O 0.57935 0.89997 0.1976 0.0
O671 O 0.57574 0.91839 0.19579 0.0
H672 H 0.5693 0.9557 0.9727 0.0
H673 H 0.58141 0.97814 0.92322 0.0
H674 H 0.61265 0.99016 0.07126 0.0
H675 H 0.60083 0.96766 0.11881 0.0
H676 H 0.60006 0.86836 0.13795 0.0
H677 H 0.59721 0.84639 0.16542 0.0
H678 H 0.55488 0.82765 0.11678 0.0
H679 H 0.55792 0.84973 0.08759 0.0
Nd680 Nd 0.12956 0.67586 0.08531 0.0
Nd681 Nd 0.15971 0.70189 0.08898 0.0
C682 C 0.10825 0.65144 0.07856 0.0
C683 C 0.09472 0.64514 0.04802 0.0
C684 C 0.09297 0.64709 0.98062 0.0
C685 C 0.08006 0.64094 0.95269 0.0
C686 C 0.06861 0.63278 0.9916 0.0
C687 C 0.07042 0.63096 0.05918 0.0
C688 C 0.08333 0.63704 0.08695 0.0
C689 C 0.12851 0.69943 0.08755 0.0
C690 C 0.14406 0.68965 0.94427 0.0
C691 C 0.18166 0.72587 0.07725 0.0
C692 C 0.19411 0.73682 0.10823 0.0
C693 C 0.19447 0.74871 0.12895 0.0
C694 C 0.20656 0.75994 0.14908 0.0
C695 C 0.21868 0.75962 0.14867 0.0
C696 C 0.21825 0.74756 0.13003 0.0
C697 C 0.20613 0.73631 0.1098 0.0
C698 C 0.1575 0.6771 0.10961 0.0
C699 C 0.14462 0.68914 0.2277 0.0
O700 O 0.11856 0.65576 0.03818 0.0
O701 O 0.11044 0.65964 0.12846 0.0
O702 O 0.11789 0.68757 0.08341 0.0
O703 O 0.13876 0.69814 0.08735 0.0
O704 O 0.13355 0.67966 0.97431 0.0
O705 O 0.15458 0.69918 0.97689 0.0
O706 O 0.17002 0.72412 0.09768 0.0
O707 O 0.18121 0.71458 0.0604 0.0
O708 O 0.16676 0.68814 0.13741 0.0
O709 O 0.15061 0.67966 0.06969 0.0
O710 O 0.15318 0.70046 0.19701 0.0
O711 O 0.13638 0.67789 0.19505 0.0
H712 H 0.10156 0.65334 0.94932 0.0
H713 H 0.0791 0.64245 0.90035 0.0
H714 H 0.06185 0.62497 0.09102 0.0
H715 H 0.08442 0.63546 0.13909 0.0
H716 H 0.18544 0.74951 0.12764 0.0
H717 H 0.20644 0.76896 0.16408 0.0
H718 H 0.22739 0.74697 0.12847 0.0
H719 H 0.20627 0.72738 0.09333 0.0
H720 H 0.10788 0.39009 0.45863 0.0
H721 H 0.09505 0.36739 0.50485 0.0
H722 H 0.1156 0.35383 0.37357 0.0
H723 H 0.12829 0.37642 0.32587 0.0
H724 H 0.078 0.34395 0.42925 0.0
H725 H 0.11833 0.33916 0.55773 0.0
H726 H 0.1203 0.35527 0.53431 0.0
H727 H 0.12161 0.34465 0.47266 0.0
C728 C 0.10968 0.3823 0.43937 0.0
C729 C 0.11913 0.38513 0.38829 0.0
C730 C 0.10241 0.36935 0.46628 0.0
C731 C 0.1045 0.35897 0.44327 0.0
C732 C 0.11404 0.36176 0.39306 0.0
H733 H 0.05958 0.27213 0.52736 0.0
H734 H 0.07733 0.29461 0.49087 0.0
C735 C 0.12129 0.3747 0.36587 0.0
C736 C 0.09597 0.34505 0.46847 0.0
H737 H 0.0966 0.31973 0.55537 0.0
C738 C 0.08207 0.33867 0.45688 0.0
C739 C 0.10134 0.33812 0.50374 0.0
C740 C 0.1162 0.34464 0.51844 0.0
C741 C 0.07335 0.32557 0.47981 0.0
C742 C 0.07863 0.31876 0.51683 0.0
C743 C 0.09258 0.325 0.52726 0.0
C744 C 0.06959 0.3054 0.54711 0.0
C745 C 0.05853 0.31911 0.46368 0.0
C746 C 0.05984 0.30411 0.59329 0.0
C747 C 0.04977 0.29139 0.61365 0.0
C748 C 0.04939 0.27972 0.58938 0.0
C749 C 0.05978 0.281 0.54748 0.0
C750 C 0.06984 0.29381 0.52631 0.0
H751 H 0.05674 0.32393 0.42002 0.0
H752 H 0.0541 0.30818 0.45338 0.0
H753 H 0.05315 0.32029 0.50674 0.0
H754 H 0.05963 0.31293 0.61101 0.0
H755 H 0.04188 0.29066 0.64608 0.0
H756 H 0.78273 0.81022 0.53335 0.0
H757 H 0.7606 0.80703 0.50117 0.0
H758 H 0.74114 0.7682 0.59737 0.0
H759 H 0.76304 0.77142 0.62979 0.0
H760 H 0.7425 0.78566 0.41981 0.0
H761 H 0.71828 0.78421 0.65998 0.0
H762 H 0.73628 0.79143 0.65138 0.0
H763 H 0.72551 0.77348 0.65887 0.0
C764 C 0.7737 0.80126 0.54957 0.0
C765 C 0.77456 0.79114 0.58473 0.0
C766 C 0.76108 0.79938 0.5307 0.0
C767 C 0.74919 0.78745 0.54768 0.0
C768 C 0.75011 0.77761 0.585 0.0
H769 H 0.6656 0.74012 0.45117 0.0
H770 H 0.68848 0.75034 0.49531 0.0
C771 C 0.76265 0.77944 0.60326 0.0
C772 C 0.7359 0.78445 0.52098 0.0
H773 H 0.70341 0.77374 0.5673 0.0
C774 C 0.73399 0.78331 0.4519 0.0
C775 C 0.7248 0.78126 0.56299 0.0
C776 C 0.72633 0.78277 0.63742 0.0
C777 C 0.72115 0.77843 0.42384 0.0
C778 C 0.70996 0.77486 0.46602 0.0
C779 C 0.71197 0.77643 0.535 0.0
C780 C 0.69602 0.7689 0.43979 0.0
C781 C 0.71959 0.7765 0.34954 0.0
C782 C 0.69258 0.77598 0.3945 0.0
C783 C 0.67953 0.77009 0.36838 0.0
C784 C 0.6696 0.75702 0.38756 0.0
C785 C 0.67302 0.75008 0.43421 0.0
C786 C 0.68608 0.75597 0.46003 0.0
H787 H 0.72843 0.77658 0.32632 0.0
H788 H 0.7104 0.76685 0.33684 0.0
H789 H 0.71861 0.78484 0.32739 0.0
H790 H 0.69999 0.78607 0.37912 0.0
H791 H 0.67732 0.77571 0.33227 0.0
H792 H 0.28301 0.01225 0.61942 0.0
H793 H 0.28608 0.99345 0.58751 0.0
H794 H 0.2463 0.97311 0.50131 0.0
H795 H 0.2432 0.99218 0.53314 0.0
H796 H 0.27181 0.96549 0.61245 0.0
H797 H 0.27157 0.97755 0.34461 0.0
H798 H 0.27277 0.98893 0.40977 0.0
H799 H 0.25693 0.97409 0.3925 0.0
C800 C 0.27479 1.00367 0.59476 0.0
C801 C 0.26289 1.00369 0.57844 0.0
C802 C 0.27657 0.99292 0.57658 0.0
C803 C 0.26653 0.98198 0.54111 0.0
C804 C 0.25426 0.98156 0.52788 0.0
H805 H 0.28059 0.92326 0.32847 0.0
H806 H 0.26953 0.9348 0.37671 0.0
C807 C 0.25244 0.99237 0.5466 0.0
C808 C 0.26956 0.97167 0.51462 0.0
H809 H 0.27725 0.96111 0.37084 0.0
C810 C 0.27282 0.96437 0.55957 0.0
C811 C 0.27093 0.97027 0.44563 0.0
C812 C 0.26797 0.97816 0.39507 0.0
C813 C 0.27766 0.95593 0.53752 0.0
C814 C 0.27958 0.95499 0.46866 0.0
C815 C 0.27583 0.96187 0.4236 0.0
C816 C 0.28603 0.94743 0.44232 0.0
C817 C 0.28071 0.94816 0.58832 0.0
C818 C 0.29904 0.95073 0.46275 0.0
C819 C 0.30534 0.94402 0.43586 0.0
C820 C 0.29884 0.93397 0.38722 0.0
C821 C 0.28582 0.93075 0.36665 0.0
C822 C 0.2795 0.93742 0.39385 0.0
H823 H 0.27474 0.94648 0.63443 0.0
H824 H 0.27858 0.93823 0.56852 0.0
H825 H 0.29153 0.95403 0.60189 0.0
H826 H 0.30444 0.95866 0.49883 0.0
H827 H 0.31531 0.94671 0.45335 0.0
H828 H 0.34569 0.105 0.65037 0.0
H829 H 0.36823 0.11463 0.69854 0.0
H830 H 0.35299 0.08325 0.84643 0.0
H831 H 0.33035 0.07369 0.79966 0.0
H832 H 0.37797 0.12341 0.83469 0.0
H833 H 0.38343 0.08032 0.74791 0.0
H834 H 0.37074 0.0837 0.71548 0.0
H835 H 0.36842 0.07575 0.79505 0.0
C836 C 0.34706 0.10025 0.69381 0.0
C837 C 0.33618 0.08848 0.72079 0.0
C838 C 0.35997 0.10576 0.7211 0.0
C839 C 0.36229 0.09957 0.77551 0.0
C840 C 0.35143 0.08807 0.80379 0.0
H841 H 0.43034 0.10554 0.98054 0.0
H842 H 0.40813 0.10126 0.94646 0.0
C843 C 0.33851 0.08257 0.77672 0.0
C844 C 0.37615 0.10473 0.80097 0.0
H845 H 0.40042 0.09605 0.81895 0.0
C846 C 0.38294 0.11749 0.83118 0.0
C847 C 0.3826 0.097 0.79573 0.0
C848 C 0.37601 0.08348 0.7613 0.0
C849 C 0.39589 0.12251 0.85855 0.0
C850 C 0.40224 0.11465 0.85435 0.0
C851 C 0.39551 0.10204 0.82269 0.0
C852 C 0.41567 0.11892 0.88389 0.0
C853 C 0.40247 0.13597 0.89341 0.0
C854 C 0.42735 0.13059 0.86212 0.0
C855 C 0.44014 0.13319 0.88273 0.0
C856 C 0.44135 0.12403 0.9244 0.0
C857 C 0.42966 0.11279 0.94863 0.0
C858 C 0.41696 0.1103 0.92894 0.0
H859 H 0.39503 0.1391 0.90686 0.0
H860 H 0.40771 0.13568 0.9392 0.0
H861 H 0.41006 0.14373 0.85986 0.0
H862 H 0.42664 0.13725 0.82631 0.0
H863 H 0.44903 0.14176 0.86223 0.0
H864 H 0.91208 0.32804 0.86223 0.0
H865 H 0.91697 0.31045 0.82563 0.0
H866 H 0.95292 0.32829 0.94617 0.0
H867 H 0.94839 0.3461 0.97991 0.0
H868 H 0.95885 0.3255 0.82515 0.0
H869 H 0.91473 0.27711 0.90246 0.0
H870 H 0.91023 0.28726 0.85289 0.0
H871 H 0.91769 0.29315 0.93342 0.0
C872 C 0.92079 0.32791 0.88228 0.0
C873 C 0.92986 0.33836 0.92391 0.0
C874 C 0.92357 0.31785 0.86148 0.0
C875 C 0.9353 0.31797 0.88337 0.0
C876 C 0.94385 0.32798 0.92836 0.0
H877 H 0.96088 0.25907 0.81116 0.0
H878 H 0.95165 0.2725 0.85838 0.0
C879 C 0.94122 0.33812 0.9479 0.0
C880 C 0.93963 0.30878 0.85432 0.0
H881 H 0.93009 0.27574 0.82681 0.0
C882 C 0.95255 0.31462 0.82596 0.0
C883 C 0.93149 0.29456 0.85563 0.0
C884 C 0.91782 0.28763 0.88832 0.0
C885 C 0.95758 0.30671 0.79908 0.0
C886 C 0.94928 0.29253 0.79813 0.0
C887 C 0.93638 0.28663 0.82684 0.0
C888 C 0.95396 0.28372 0.76821 0.0
C889 C 0.97188 0.31367 0.77345 0.0
C890 C 0.95802 0.28534 0.70143 0.0
C891 C 0.96337 0.27777 0.67452 0.0
C892 C 0.9646 0.26826 0.71356 0.0
C893 C 0.96003 0.26628 0.77973 0.0
C894 C 0.95477 0.27395 0.8068 0.0
H895 H 0.97801 0.32389 0.79527 0.0
H896 H 0.97688 0.30773 0.78473 0.0
H897 H 0.9718 0.31483 0.71877 0.0
H898 H 0.95717 0.29257 0.67021 0.0
H899 H 0.96654 0.27933 0.62302 0.0
H900 H 0.80556 0.71784 0.74985 0.0
H901 H 0.79373 0.69502 0.79602 0.0
H902 H 0.75589 0.69014 0.72812 0.0
H903 H 0.76753 0.71296 0.68294 0.0
H904 H 0.773 0.68374 0.89182 0.0
H905 H 0.75612 0.65701 0.65089 0.0
H906 H 0.7692 0.67446 0.65704 0.0
H907 H 0.75175 0.66991 0.6617 0.0
C908 C 0.7947 0.71196 0.74515 0.0
C909 C 0.78752 0.71725 0.71212 0.0
C910 C 0.78798 0.69889 0.77125 0.0
C911 C 0.77397 0.69079 0.76435 0.0
C912 C 0.76675 0.69609 0.73253 0.0
H913 H 0.71127 0.62476 0.96165 0.0
H914 H 0.73019 0.64642 0.92825 0.0
C915 C 0.77344 0.70915 0.70663 0.0
C916 C 0.76678 0.67689 0.79156 0.0
H917 H 0.74508 0.64419 0.74822 0.0
C918 C 0.76705 0.67506 0.86036 0.0
C919 C 0.75921 0.66553 0.75039 0.0
C920 C 0.75913 0.66677 0.67581 0.0
C921 C 0.75934 0.66227 0.88941 0.0
C922 C 0.75107 0.65107 0.84865 0.0
C923 C 0.75139 0.65278 0.77952 0.0
C924 C 0.74082 0.63791 0.87693 0.0
C925 C 0.75989 0.66092 0.96368 0.0
C926 C 0.74053 0.62585 0.85975 0.0
C927 C 0.72967 0.61336 0.87942 0.0
C928 C 0.71889 0.61282 0.91527 0.0
C929 C 0.7195 0.6249 0.93442 0.0
C930 C 0.73035 0.6373 0.91558 0.0
H931 H 0.76957 0.66898 0.98445 0.0
H932 H 0.75163 0.66186 0.9871 0.0
H933 H 0.75863 0.65096 0.97739 0.0
H934 H 0.74845 0.6261 0.82932 0.0
H935 H 0.72932 0.60416 0.86323 0.0
H936 H 0.01424 0.76056 0.35558 0.0
H937 H 0.9961 0.73833 0.38831 0.0
H938 H 0.98137 0.7568 0.52666 0.0
H939 H 0.99933 0.7792 0.49161 0.0
H940 H 0.99499 0.7293 0.51003 0.0
H941 H 0.94631 0.72671 0.45524 0.0
H942 H 0.96206 0.7395 0.42006 0.0
H943 H 0.95765 0.74107 0.50406 0.0
C944 C 1.00681 0.75988 0.39111 0.0
C945 C 1.00806 0.77154 0.42061 0.0
C946 C 0.9965 0.74717 0.4101 0.0
C947 C 0.98733 0.74583 0.45991 0.0
C948 C 0.98812 0.75754 0.48711 0.0
H949 H 0.93251 0.67599 0.6971 0.0
H950 H 0.94576 0.69859 0.64975 0.0
C951 C 0.99836 0.77034 0.46704 0.0
C952 C 0.97824 0.73227 0.48852 0.0
H953 H 0.94537 0.70906 0.52166 0.0
C954 C 0.98413 0.72486 0.51207 0.0
C955 C 0.96408 0.72653 0.49207 0.0
C956 C 0.95712 0.7338 0.466 0.0
C957 C 0.97632 0.71191 0.5387 0.0
C958 C 0.96216 0.70608 0.54141 0.0
C959 C 0.95623 0.71353 0.51912 0.0
C960 C 0.95344 0.69226 0.56748 0.0
C961 C 0.98333 0.70465 0.56463 0.0
C962 C 0.95317 0.68117 0.53622 0.0
C963 C 0.94576 0.66827 0.56359 0.0
C964 C 0.93836 0.66616 0.62256 0.0
C965 C 0.93829 0.67726 0.65242 0.0
C966 C 0.94575 0.69017 0.62509 0.0
H967 H 0.99419 0.71171 0.57443 0.0
H968 H 0.97854 0.69912 0.61116 0.0
H969 H 0.98261 0.69723 0.52701 0.0
H970 H 0.95889 0.68253 0.49114 0.0
H971 H 0.94615 0.66002 0.5394 0.0
H972 H 0.27523 0.24119 0.48088 0.0
H973 H 0.29743 0.24485 0.51484 0.0
H974 H 0.31668 0.28176 0.40195 0.0
H975 H 0.29464 0.27805 0.36763 0.0
H976 H 0.33 0.2658 0.39578 0.0
H977 H 0.31885 0.27574 0.65245 0.0
H978 H 0.30701 0.25984 0.61558 0.0
H979 H 0.3089 0.27518 0.5818 0.0
C980 C 0.28421 0.24977 0.46134 0.0
C981 C 0.28326 0.25926 0.42114 0.0
C982 C 0.29687 0.25196 0.48143 0.0
C983 C 0.30868 0.26365 0.46136 0.0
C984 C 0.30771 0.27267 0.41791 0.0
H985 H 0.38645 0.31423 0.62748 0.0
H986 H 0.36378 0.30347 0.58052 0.0
C987 C 0.29512 0.27054 0.39836 0.0
C988 C 0.322 0.26734 0.49008 0.0
H989 H 0.34058 0.27939 0.632 0.0
C990 C 0.33229 0.26857 0.44764 0.0
C991 C 0.32498 0.27118 0.5575 0.0
C992 C 0.31442 0.27054 0.60468 0.0
C993 C 0.34555 0.27374 0.47071 0.0
C994 C 0.34854 0.27773 0.5379 0.0
C995 C 0.33821 0.27626 0.58056 0.0
C996 C 0.36248 0.28419 0.56423 0.0
C997 C 0.35639 0.27541 0.42261 0.0
C998 C 0.36925 0.27689 0.57066 0.0
C999 C 0.38219 0.28297 0.59825 0.0
C1000 C 0.38859 0.29647 0.61995 0.0
C1001 C 0.38179 0.30377 0.61242 0.0
C1002 C 0.36885 0.29766 0.58521 0.0
H1003 H 0.35286 0.2739 0.37026 0.0
H1004 H 0.36539 0.28561 0.42753 0.0
H1005 H 0.35953 0.26792 0.43424 0.0
H1006 H 0.36443 0.26642 0.5556 0.0
H1007 H 0.38702 0.27698 0.60416 0.0
H1008 H 0.77984 0.12709 0.68595 0.0
H1009 H 0.79013 0.1147 0.63863 0.0
H1010 H 0.75515 0.09198 0.5153 0.0
H1011 H 0.74467 0.10411 0.56301 0.0
H1012 H 0.78045 0.08725 0.64269 0.0
H1013 H 0.78598 0.10463 0.38197 0.0
H1014 H 0.78266 0.11298 0.44939 0.0
H1015 H 0.76916 0.09788 0.41328 0.0
C1016 C 0.77429 0.11943 0.64891 0.0
C1017 C 0.76139 0.11663 0.62835 0.0
C1018 C 0.78024 0.11243 0.62158 0.0
C1019 C 0.77352 0.10258 0.57262 0.0
C1020 C 0.76068 0.09977 0.5518 0.0
H1021 H 0.77609 0.03803 0.38434 0.0
H1022 H 0.77291 0.05667 0.41912 0.0
C1023 C 0.75469 0.10674 0.57921 0.0
C1024 C 0.77957 0.09472 0.54587 0.0
H1025 H 0.78808 0.08512 0.40145 0.0
C1026 C 0.78234 0.08695 0.59009 0.0
C1027 C 0.78205 0.09437 0.47724 0.0
C1028 C 0.77994 0.10301 0.42776 0.0
C1029 C 0.78688 0.07832 0.56716 0.0
C1030 C 0.78893 0.07762 0.49825 0.0
C1031 C 0.78657 0.08572 0.45427 0.0
C1032 C 0.792 0.06745 0.47044 0.0
C1033 C 0.78879 0.06949 0.61646 0.0
C1034 C 0.80403 0.06757 0.48568 0.0
C1035 C 0.80591 0.0569 0.46532 0.0
C1036 C 0.79577 0.04602 0.42966 0.0
C1037 C 0.78409 0.04632 0.41169 0.0
C1038 C 0.78225 0.05696 0.43154 0.0
H1039 H 0.78464 0.06963 0.66618 0.0
H1040 H 0.78384 0.05891 0.59849 0.0
H1041 H 0.79971 0.07312 0.62212 0.0
H1042 H 0.81174 0.07566 0.51514 0.0
H1043 H 0.81489 0.05679 0.48075 0.0
H1044 H 0.60984 0.90832 0.15164 0.0
H1045 H 0.63221 0.91274 0.18806 0.0
H1046 H 0.6509 0.94904 0.07044 0.0
H1047 H 0.62873 0.94478 0.03509 0.0
H1048 H 0.65753 0.91875 0.12169 0.0
H1049 H 0.6615 0.96209 0.26407 0.0
H1050 H 0.64578 0.94906 0.23001 0.0
H1051 H 0.65783 0.96233 0.1776 0.0
C1052 C 0.61875 0.91696 0.13188 0.0
C1053 C 0.61761 0.92621 0.09054 0.0
C1054 C 0.6315 0.91954 0.15307 0.0
C1055 C 0.64317 0.93137 0.13295 0.0
C1056 C 0.64201 0.93999 0.08748 0.0
H1057 H 0.72764 0.97752 0.22389 0.0
H1058 H 0.70492 0.9678 0.17812 0.0
C1059 C 0.62936 0.9375 0.06701 0.0
C1060 C 0.65647 0.9355 0.16337 0.0
H1061 H 0.68151 0.96085 0.25402 0.0
C1062 C 0.66275 0.92787 0.15118 0.0
C1063 C 0.66321 0.94738 0.20212 0.0
C1064 C 0.6567 0.95563 0.21986 0.0
C1065 C 0.67585 0.93213 0.17462 0.0
C1066 C 0.68271 0.94422 0.21169 0.0
C1067 C 0.67627 0.95165 0.22508 0.0
C1068 C 0.69664 0.94955 0.23665 0.0
C1069 C 0.68243 0.92392 0.15784 0.0
C1070 C 0.69951 0.94254 0.28498 0.0
C1071 C 0.71247 0.94814 0.31192 0.0
C1072 C 0.72282 0.9609 0.29114 0.0
C1073 C 0.7199 0.96779 0.24191 0.0
C1074 C 0.70694 0.9622 0.21525 0.0
H1075 H 0.67702 0.91655 0.11747 0.0
H1076 H 0.69307 0.93058 0.14248 0.0
H1077 H 0.68241 0.91826 0.20254 0.0
H1078 H 0.69163 0.9329 0.30323 0.0
H1079 H 0.71426 0.94264 0.35044 0.0
H1080 H 0.0775 0.77052 0.22753 0.0
H1081 H 0.08773 0.75782 0.18369 0.0
H1082 H 0.12307 0.78154 0.30332 0.0
H1083 H 0.11266 0.79382 0.35008 0.0
H1084 H 0.11114 0.76603 0.11384 0.0
H1085 H 0.11315 0.74356 0.35508 0.0
H1086 H 0.10366 0.75209 0.34405 0.0
H1087 H 0.12163 0.76163 0.35459 0.0
C1088 C 0.08738 0.77293 0.24528 0.0
C1089 C 0.09418 0.78313 0.29295 0.0
C1090 C 0.09327 0.76574 0.21964 0.0
C1091 C 0.10608 0.76858 0.24101 0.0
C1092 C 0.11306 0.77898 0.28711 0.0
H1093 H 0.1473 0.72303 0.14695 0.0
H1094 H 0.14412 0.74201 0.17928 0.0
C1095 C 0.10715 0.78613 0.31315 0.0
C1096 C 0.112 0.76052 0.21523 0.0
H1097 H 0.12243 0.73855 0.26225 0.0
C1098 C 0.11369 0.76009 0.14635 0.0
C1099 C 0.11538 0.75281 0.25772 0.0
C1100 C 0.11327 0.75241 0.33191 0.0
C1101 C 0.11844 0.75198 0.11871 0.0
C1102 C 0.12146 0.744 0.16102 0.0
C1103 C 0.12022 0.74478 0.23001 0.0
C1104 C 0.12436 0.73363 0.13462 0.0
C1105 C 0.12003 0.75188 0.04436 0.0
C1106 C 0.11439 0.72275 0.09848 0.0
C1107 C 0.11617 0.712 0.08035 0.0
C1108 C 0.12798 0.7119 0.09778 0.0
C1109 C 0.13822 0.723 0.13183 0.0
C1110 C 0.13637 0.73377 0.15066 0.0
H1111 H 0.12136 0.76128 0.02137 0.0
H1112 H 0.12877 0.75068 0.03091 0.0
H1113 H 0.11081 0.74328 0.02292 0.0
H1114 H 0.10494 0.72228 0.0868 0.0
H1115 H 0.10807 0.70351 0.05457 0.0
H1116 H 0.3501 0.43557 0.22468 0.0
H1117 H 0.3307 0.41342 0.24415 0.0
H1118 H 0.31125 0.41773 0.07013 0.0
H1119 H 0.33101 0.44025 0.04982 0.0
H1120 H 0.30347 0.40514 0.26373 0.0
H1121 H 0.31208 0.38223 0.03802 0.0
H1122 H 0.32472 0.39843 0.06955 0.0
H1123 H 0.31025 0.39683 0.02703 0.0
C1124 C 0.34167 0.43189 0.19062 0.0
C1125 C 0.34211 0.43956 0.13532 0.0
C1126 C 0.33056 0.41922 0.20199 0.0
C1127 C 0.3196 0.41384 0.15822 0.0
C1128 C 0.3197 0.42165 0.10403 0.0
H1129 H 0.25272 0.33544 0.29194 0.0
H1130 H 0.2645 0.35817 0.2455 0.0
C1131 C 0.33091 0.4345 0.09273 0.0
C1132 C 0.3085 0.39984 0.16975 0.0
H1133 H 0.29604 0.36754 0.11464 0.0
C1134 C 0.30161 0.39691 0.23059 0.0
C1135 C 0.30629 0.38915 0.1268 0.0
C1136 C 0.31374 0.3917 0.06178 0.0
C1137 C 0.29306 0.38357 0.25117 0.0
C1138 C 0.29109 0.37284 0.20896 0.0
C1139 C 0.29753 0.37578 0.14679 0.0
C1140 C 0.2834 0.35856 0.23102 0.0
C1141 C 0.28689 0.38112 0.31967 0.0
C1142 C 0.28992 0.35097 0.23564 0.0
C1143 C 0.28313 0.33785 0.26088 0.0
C1144 C 0.26967 0.33202 0.28237 0.0
C1145 C 0.26305 0.33952 0.27564 0.0
C1146 C 0.26982 0.35261 0.24981 0.0
H1147 H 0.2918 0.39032 0.35112 0.0
H1148 H 0.27606 0.37799 0.31525 0.0
H1149 H 0.28765 0.37296 0.34538 0.0
H1150 H 0.30038 0.35531 0.22104 0.0
H1151 H 0.28848 0.33231 0.26381 0.0
H1152 H 0.99802 0.40623 0.11896 0.0
H1153 H 0.02097 0.41631 0.16203 0.0
H1154 H 0.03262 0.45198 0.04521 0.0
H1155 H 1.00974 0.4419 1.00072 0.0
H1156 H 0.0443 0.42468 0.08348 0.0
H1157 H 0.04753 0.46716 0.23215 0.0
H1158 H 0.03165 0.45298 0.20637 0.0
H1159 H 0.04187 0.46591 0.14781 0.0
C1160 C 1.00545 0.4162 0.10214 0.0
C1161 C 1.00199 0.42321 0.05607 0.0
C1162 C 0.01854 0.42199 0.12728 0.0
C1163 C 0.02846 0.43496 0.10751 0.0
C1164 C 0.02505 0.44208 0.06225 0.0
H1165 H 0.11565 0.47719 0.19177 0.0
H1166 H 0.09323 0.47278 0.15559 0.0
C1167 C 0.01195 0.43628 0.03685 0.0
C1168 C 0.04254 0.44057 0.13094 0.0
H1169 H 0.06738 0.46569 0.22412 0.0
C1170 C 0.04935 0.43366 0.11412 0.0
C1171 C 0.04916 0.45238 0.17031 0.0
C1172 C 0.04219 0.46003 0.1908 0.0
C1173 C 0.06252 0.43812 0.13608 0.0
C1174 C 0.069 0.44967 0.17721 0.0
C1175 C 0.06237 0.45683 0.1927 0.0
C1176 C 0.0823 0.45376 0.20754 0.0
C1177 C 0.06938 0.43037 0.11514 0.0
C1178 C 0.08348 0.44489 0.25121 0.0
C1179 C 0.09613 0.44733 0.27131 0.0
C1180 C 0.10787 0.4588 0.24914 0.0
C1181 C 0.10672 0.46832 0.20995 0.0
C1182 C 0.09395 0.46578 0.18906 0.0
H1183 H 0.06468 0.42424 0.0699 0.0
H1184 H 0.08026 0.43728 0.10525 0.0
H1185 H 0.06847 0.42341 0.15567 0.0
H1186 H 0.07461 0.43569 0.26699 0.0
H1187 H 0.09675 0.43986 0.30173 0.0
H1188 H 0.65143 0.61639 0.10702 0.0
H1189 H 0.64175 0.62915 0.15606 0.0
H1190 H 0.60432 0.60391 0.05402 0.0
H1191 H 0.61369 0.59066 1.00703 0.0
H1192 H 0.63259 0.64354 0.08652 0.0
H1193 H 0.59135 0.60474 0.2416 0.0
H1194 H 0.60477 0.60253 0.20859 0.0
H1195 H 0.59104 0.60006 0.15618 0.0
C1196 C 0.64103 0.61331 0.09613 0.0
C1197 C 0.63335 0.60243 0.05311 0.0
C1198 C 0.63554 0.6207 0.1239 0.0
C1199 C 0.62225 0.61738 0.10947 0.0
C1200 C 0.6145 0.60649 0.06699 0.0
H1201 H 0.57928 0.66104 0.20265 0.0
H1202 H 0.58429 0.6435 0.16539 0.0
C1203 C 0.61996 0.59904 0.03937 0.0
C1204 C 0.6169 0.62595 0.13517 0.0
H1205 H 0.59217 0.6258 0.23113 0.0
C1206 C 0.62377 0.63965 0.11822 0.0
C1207 C 0.6053 0.62083 0.17597 0.0
C1208 C 0.59773 0.60626 0.19723 0.0
C1209 C 0.61939 0.64839 0.14093 0.0
C1210 C 0.60798 0.64337 0.183 0.0
C1211 C 0.60092 0.62961 0.19898 0.0
C1212 C 0.60381 0.65253 0.21318 0.0
C1213 C 0.62701 0.66296 0.11925 0.0
C1214 C 0.6128 0.66298 0.25482 0.0
C1215 C 0.61002 0.67294 0.27549 0.0
C1216 C 0.59806 0.67253 0.25606 0.0
C1217 C 0.58852 0.66151 0.21869 0.0
C1218 C 0.5914 0.65155 0.19719 0.0
H1219 H 0.63288 0.66428 0.0731 0.0
H1220 H 0.62006 0.66692 0.11056 0.0
H1221 H 0.63422 0.6691 0.15881 0.0
H1222 H 0.62229 0.66376 0.2689 0.0
H1223 H 0.6175 0.6813 0.30459 0.0
H1224 H 0.44311 0.04102 0.95822 0.0
H1225 H 0.43051 0.01837 1.00532 0.0
H1226 H 0.45101 0.03325 0.19219 0.0
H1227 H 0.46367 0.05601 0.14551 0.0
H1228 H 0.44815 0.00791 0.15228 0.0
H1229 H 0.39989 0.00815 0.13999 0.0
H1230 H 0.40872 0.01177 0.06225 0.0
H1231 H 0.41604 0.02326 0.13075 0.0
C1232 C 0.44491 0.03951 0.00945 0.0
C1233 C 0.45429 0.05038 0.0483 0.0
C1234 C 0.43773 0.02654 0.0362 0.0
C1235 C 0.4397 0.02416 0.10249 0.0
C1236 C 0.44935 0.03487 0.1409 0.0
H1237 H 0.37945 0.9561 0.31999 0.0
H1238 H 0.39758 0.97838 0.28801 0.0
C1239 C 0.45658 0.04787 0.1141 0.0
C1240 C 0.43121 0.01063 0.13235 0.0
H1241 H 0.39853 0.98745 0.1672 0.0
C1242 C 0.4373 1.00342 0.15592 0.0
C1243 C 0.41709 1.00489 0.13781 0.0
C1244 C 0.41003 0.01245 0.11698 0.0
C1245 C 0.42958 0.99049 0.1839 0.0
C1246 C 0.41541 0.98459 0.18748 0.0
C1247 C 0.40939 0.99191 0.16434 0.0
C1248 C 0.40643 0.971 0.21617 0.0
C1249 C 0.43669 0.98339 0.21037 0.0
C1250 C 0.40572 0.95933 0.18884 0.0
C1251 C 0.39547 0.94649 0.20853 0.0
C1252 C 0.3857 0.94522 0.25465 0.0
C1253 C 0.38692 0.95684 0.28459 0.0
C1254 C 0.39723 0.96957 0.26602 0.0
H1255 H 0.44748 0.99059 0.22098 0.0
H1256 H 0.4318 0.97773 0.25647 0.0
H1257 H 0.43623 0.9761 0.17261 0.0
H1258 H 0.41251 0.96014 0.14938 0.0
H1259 H 0.39456 0.93766 0.18386 0.0
H1260 H 0.68154 0.09255 0.70858 0.0
H1261 H 0.66272 0.07079 0.74256 0.0
H1262 H 0.64612 0.09101 0.85625 0.0
H1263 H 0.66512 0.11294 0.82221 0.0
H1264 H 0.65045 0.07231 0.92892 0.0
H1265 H 0.62235 0.04914 0.69693 0.0
H1266 H 0.64023 0.05621 0.68855 0.0
H1267 H 0.63349 0.06709 0.70586 0.0
C1268 C 0.67365 0.09235 0.73916 0.0
C1269 C 0.67465 0.10439 0.76202 0.0
C1270 C 0.66288 0.07991 0.75837 0.0
C1271 C 0.65292 0.07926 0.80123 0.0
C1272 C 0.65362 0.0913 0.8224 0.0
H1273 H 0.58749 1.00103 0.94175 0.0
H1274 H 0.59975 0.02382 0.89547 0.0
C1275 C 0.66437 0.10381 0.80245 0.0
C1276 C 0.64285 0.06607 0.82969 0.0
H1277 H 0.61916 0.03395 0.78653 0.0
C1278 C 0.64343 0.06398 0.89801 0.0
C1279 C 0.63369 0.05522 0.78934 0.0
C1280 C 0.63228 0.05703 0.71617 0.0
C1281 C 0.63555 0.05118 0.92647 0.0
C1282 C 0.62696 0.04018 0.88544 0.0
C1283 C 0.62587 0.04238 0.81774 0.0
C1284 C 0.61949 0.02623 0.91161 0.0
C1285 C 0.63666 0.04948 1.00008 0.0
C1286 C 0.62653 0.01995 0.93465 0.0
C1287 C 0.61958 1.00688 0.96036 0.0
C1288 C 0.6054 0.9998 0.96372 0.0
C1289 C 0.59838 1.00609 0.93942 0.0
C1290 C 0.60536 0.01915 0.9133 0.0
H1291 H 0.64097 0.05924 0.0269 0.0
H1292 H 0.62664 0.04239 0.02171 0.0
H1293 H 0.64338 0.04524 0.00844 0.0
H1294 H 0.63743 0.02515 0.93254 0.0
H1295 H 0.62533 1.00229 0.9771 0.0
H1296 H 0.05873 0.64321 0.89901 0.0
H1297 H 0.03602 0.63265 0.85239 0.0
H1298 H 0.02444 0.59719 0.97083 0.0
H1299 H 0.0472 0.60753 0.01687 0.0
H1300 H 0.02111 0.60776 0.78216 0.0
H1301 H 0.99628 0.60827 0.01899 0.0
H1302 H 0.01428 0.61818 1.00702 0.0
H1303 H 1.00646 0.6004 0.0223 0.0
C1304 C 0.05143 0.6331 0.91469 0.0
C1305 C 0.05483 0.62627 0.96211 0.0
C1306 C 0.03842 0.62711 0.88817 0.0
C1307 C 0.02851 0.61422 0.9088 0.0
C1308 C 0.03188 0.60726 0.95515 0.0
H1309 H 0.94191 0.5736 0.8168 0.0
H1310 H 0.96383 0.57656 0.85102 0.0
C1311 C 0.0449 0.61322 0.98157 0.0
C1312 C 0.01462 0.60817 0.8821 0.0
H1313 H 0.98227 0.59872 0.92584 0.0
C1314 C 0.0126 0.60568 0.8136 0.0
C1315 C 1.00351 0.6054 0.9233 0.0
C1316 C 1.00518 0.60827 0.99693 0.0
C1317 C 0.9998 0.60071 0.78501 0.0
C1318 C 0.98878 0.59836 0.82586 0.0
C1319 C 0.99071 0.60043 0.89466 0.0
C1320 C 0.97558 0.59529 0.79764 0.0
C1321 C 0.9982 0.59811 0.71121 0.0
C1322 C 0.97492 0.6047 0.75568 0.0
C1323 C 0.96248 0.60299 0.73614 0.0
C1324 C 0.95044 0.59182 0.75793 0.0
C1325 C 0.95104 0.58207 0.79772 0.0
C1326 C 0.96354 0.58385 0.81785 0.0
H1327 H 1.00608 0.5961 0.69129 0.0
H1328 H 0.98814 0.58942 0.69906 0.0
H1329 H 0.99926 0.60716 0.68561 0.0
H1330 H 0.98402 0.61376 0.74074 0.0
H1331 H 0.96229 0.61074 0.70615 0.0
H1332 H 0.44503 0.46807 0.91432 0.0
H1333 H 0.45544 0.45583 0.86641 0.0
H1334 H 0.41911 0.41814 0.90437 0.0
H1335 H 0.40868 0.43024 0.95296 0.0
H1336 H 0.46037 0.43764 0.92996 0.0
H1337 H 0.42735 0.41337 0.71296 0.0
H1338 H 0.42755 0.42717 0.75744 0.0
H1339 H 0.418 0.41023 0.78878 0.0
C1340 C 0.43922 0.45717 0.91228 0.0
C1341 C 0.426 0.45015 0.93756 0.0
C1342 C 0.44517 0.4502 0.8845 0.0
C1343 C 0.43799 0.43608 0.8808 0.0
C1344 C 0.42473 0.42905 0.90506 0.0
H1345 H 0.45646 0.37454 0.89789 0.0
H1346 H 0.45272 0.39353 0.91339 0.0
C1347 C 0.41878 0.436 0.93291 0.0
C1348 C 0.44466 0.42862 0.85639 0.0
H1349 H 0.4406 0.40359 0.75009 0.0
C1350 C 0.45619 0.43039 0.88976 0.0
C1351 C 0.43934 0.41927 0.80335 0.0
C1352 C 0.42746 0.41748 0.7631 0.0
C1353 C 0.46202 0.42247 0.87426 0.0
C1354 C 0.45612 0.41248 0.8245 0.0
C1355 C 0.4451 0.41125 0.78835 0.0
C1356 C 0.46001 0.40202 0.81598 0.0
C1357 C 0.47419 0.42453 0.91275 0.0
C1358 C 0.46551 0.40058 0.75613 0.0
C1359 C 0.46785 0.38974 0.74743 0.0
C1360 C 0.46436 0.38011 0.79798 0.0
C1361 C 0.45923 0.38185 0.8582 0.0
C1362 C 0.45713 0.3927 0.8672 0.0
H1363 H 0.47971 0.43476 0.93507 0.0
H1364 H 0.47087 0.41705 0.95364 0.0
H1365 H 0.4812 0.42304 0.8804 0.0
H1366 H 0.4677 0.40764 0.71585 0.0
H1367 H 0.47168 0.38851 0.70031 0.0
H1368 H 0.12465 0.2577 0.51993 0.0
H1369 H 0.14474 0.25596 0.49955 0.0
H1370 H 0.12059 0.21262 0.50372 0.0
H1371 H 0.10033 0.21424 0.52139 0.0
H1372 H 0.15596 0.24451 0.57711 0.0
H1373 H 0.14158 0.21882 0.33246 0.0
H1374 H 0.13278 0.22658 0.36959 0.0
H1375 H 0.12936 0.21021 0.39665 0.0
C1376 C 0.12353 0.24778 0.51524 0.0
C1377 C 0.11078 0.23611 0.52167 0.0
C1378 C 0.13508 0.24681 0.50417 0.0
C1379 C 0.13419 0.23417 0.49903 0.0
C1380 C 0.12152 0.2225 0.50606 0.0
H1381 H 0.19234 0.20717 0.44581 0.0
H1382 H 0.17215 0.20903 0.46294 0.0
C1383 C 0.10995 0.22345 0.51699 0.0
C1384 C 0.14657 0.23324 0.48824 0.0
H1385 H 0.16106 0.22059 0.38356 0.0
C1386 C 0.1571 0.23934 0.5346 0.0
C1387 C 0.14807 0.22648 0.43281 0.0
C1388 C 0.13741 0.22025 0.37966 0.0
C1389 C 0.16895 0.23863 0.5278 0.0
C1390 C 0.17045 0.23185 0.47243 0.0
C1391 C 0.15992 0.22577 0.42602 0.0
C1392 C 0.18279 0.23084 0.462 0.0
C1393 C 0.17962 0.24487 0.58095 0.0
C1394 C 0.1955 0.24246 0.45497 0.0
C1395 C 0.20705 0.24141 0.44541 0.0
C1396 C 0.2061 0.22871 0.44203 0.0
C1397 C 0.19338 0.21709 0.44834 0.0
C1398 C 0.18183 0.21814 0.458 0.0
H1399 H 0.17548 0.24639 0.62801 0.0
H1400 H 0.18418 0.23849 0.59136 0.0
H1401 H 0.18772 0.25486 0.56374 0.0
H1402 H 0.19648 0.25237 0.45653 0.0
H1403 H 0.21672 0.25052 0.44094 0.0
H1404 H 0.80439 0.98773 0.44294 0.0
H1405 H 0.80266 0.96569 0.45904 0.0
H1406 H 0.84598 0.98496 0.4687 0.0
H1407 H 0.84772 0.00697 0.4528 0.0
H1408 H 0.81337 0.95276 0.38206 0.0
H1409 H 0.83417 0.96219 0.63772 0.0
H1410 H 0.82859 0.97272 0.59857 0.0
H1411 H 0.84478 0.97472 0.57834 0.0
C1412 C 0.81352 0.98724 0.44832 0.0
C1413 C 0.82618 0.99906 0.44653 0.0
C1414 C 0.81253 0.97465 0.45765 0.0
C1415 C 0.82419 0.97366 0.46606 0.0
C1416 C 0.83684 0.98547 0.46368 0.0
H1417 H 0.84036 0.90788 0.53102 0.0
H1418 H 0.84182 0.92969 0.51283 0.0
C1419 C 0.83782 0.99804 0.45423 0.0
C1420 C 0.82314 0.9603 0.47625 0.0
H1421 H 0.83104 0.94233 0.58463 0.0
C1422 C 0.81716 0.95044 0.42649 0.0
C1423 C 0.82814 0.95729 0.53414 0.0
C1424 C 0.83417 0.96723 0.59058 0.0
C1425 C 0.8163 0.93779 0.4324 0.0
C1426 C 0.82129 0.93478 0.49035 0.0
C1427 C 0.82724 0.94463 0.54015 0.0
C1428 C 0.82035 0.92144 0.5006 0.0
C1429 C 0.81035 0.92791 0.37567 0.0
C1430 C 0.80779 0.90952 0.50074 0.0
C1431 C 0.80692 0.89703 0.51127 0.0
C1432 C 0.81859 0.89615 0.52247 0.0
C1433 C 0.83116 0.90814 0.52299 0.0
C1434 C 0.83201 0.92064 0.51234 0.0
H1435 H 0.81065 0.93304 0.32838 0.0
H1436 H 0.81579 0.92225 0.36843 0.0
H1437 H 0.79965 0.92057 0.38691 0.0
H1438 H 0.79861 0.90988 0.4937 0.0
H1439 H 0.79704 0.88808 0.51209 0.0
H1440 H 0.06667 0.8371 0.45062 0.0
H1441 H 0.08911 0.85699 0.46423 0.0
H1442 H 0.07183 0.88274 0.44631 0.0
H1443 H 0.0494 0.86287 0.43206 0.0
H1444 H 0.09575 0.89096 0.36851 0.0
H1445 H 0.10235 0.88116 0.6324 0.0
H1446 H 0.09804 0.86747 0.57558 0.0
H1447 H 0.08613 0.87297 0.59185 0.0
C1448 C 0.06768 0.847 0.44922 0.0
C1449 C 0.05631 0.84845 0.44012 0.0
C1450 C 0.08049 0.85836 0.45749 0.0
C1451 C 0.08213 0.87135 0.45693 0.0
C1452 C 0.07079 0.87281 0.44707 0.0
H1453 H 0.14737 0.94802 0.59096 0.0
H1454 H 0.12602 0.92718 0.57138 0.0
C1455 C 0.05799 0.86146 0.4391 0.0
C1456 C 0.09563 0.88347 0.46666 0.0
H1457 H 0.1207 0.89986 0.58097 0.0
C1458 C 0.10123 0.89289 0.41485 0.0
C1459 C 0.10272 0.88602 0.52733 0.0
C1460 C 0.09701 0.87645 0.58531 0.0
C1461 C 0.11374 0.90478 0.4221 0.0
C1462 C 0.12085 0.90729 0.48269 0.0
C1463 C 0.11525 0.89787 0.53447 0.0
C1464 C 0.13388 0.91987 0.49416 0.0
C1465 C 0.11912 0.91472 0.36549 0.0
C1466 C 0.14543 0.92262 0.45764 0.0
C1467 C 0.15765 0.93453 0.46872 0.0
C1468 C 0.15856 0.94393 0.51649 0.0
C1469 C 0.14697 0.94108 0.55321 0.0
C1470 C 0.13479 0.92914 0.54239 0.0
H1471 H 0.11126 0.91261 0.3276 0.0
H1472 H 0.12316 0.92517 0.38406 0.0
H1473 H 0.12748 0.91413 0.34091 0.0
H1474 H 0.14499 0.91553 0.42072 0.0
H1475 H 0.16635 0.93645 0.4393 0.0
H1476 H 0.26022 0.16064 0.45148 0.0
H1477 H 0.2586 0.139 0.47567 0.0
H1478 H 0.22085 0.1259 0.57671 0.0
H1479 H 0.22235 0.14755 0.55213 0.0
H1480 H 0.25786 0.12709 0.59182 0.0
H1481 H 0.21068 0.09467 0.45297 0.0
H1482 H 0.21982 0.11277 0.44484 0.0
H1483 H 0.20895 0.10494 0.51507 0.0
C1484 C 0.25159 0.15319 0.47914 0.0
C1485 C 0.24141 0.15587 0.49986 0.0
C1486 C 0.25065 0.14078 0.49272 0.0
C1487 C 0.23951 0.13069 0.52717 0.0
C1488 C 0.22939 0.13336 0.54857 0.0
H1489 H 0.21902 0.04929 0.65012 0.0
H1490 H 0.22017 0.07118 0.63855 0.0
C1491 C 0.23027 0.14577 0.53463 0.0
C1492 C 0.23871 0.11753 0.54153 0.0
H1493 H 0.21931 0.08349 0.51823 0.0
C1494 C 0.24943 0.11757 0.5756 0.0
C1495 C 0.22772 0.10506 0.52046 0.0
C1496 C 0.2162 0.10431 0.48076 0.0
C1497 C 0.24943 0.10554 0.58944 0.0
C1498 C 0.23848 0.0931 0.56813 0.0
C1499 C 0.22768 0.09302 0.5348 0.0
C1500 C 0.2382 0.08008 0.57806 0.0
C1501 C 0.2611 0.10623 0.62748 0.0
C1502 C 0.24794 0.07779 0.54796 0.0
C1503 C 0.24729 0.06531 0.5544 0.0
C1504 C 0.23684 0.05483 0.59094 0.0
C1505 C 0.2272 0.05718 0.62187 0.0
C1506 C 0.22783 0.06967 0.61514 0.0
H1507 H 0.26678 0.11587 0.65511 0.0
H1508 H 0.25757 0.09775 0.66321 0.0
H1509 H 0.26814 0.10551 0.59208 0.0
H1510 H 0.2559 0.08557 0.51815 0.0
H1511 H 0.25483 0.06379 0.52975 0.0
H1512 H 0.89667 0.10977 0.59206 0.0
H1513 H 0.91831 0.13034 0.60901 0.0
H1514 H 0.93068 0.1267 0.41137 0.0
H1515 H 0.90886 0.10646 0.39286 0.0
H1516 H 0.94394 0.13477 0.60726 0.0
H1517 H 0.93794 0.16512 0.41032 0.0
H1518 H 0.92413 0.14927 0.43872 0.0
H1519 H 0.93617 0.14956 0.38036 0.0
C1520 C 0.90392 0.1134 0.55183 0.0
C1521 C 0.90092 0.10643 0.49088 0.0
C1522 C 0.91635 0.12514 0.56181 0.0
C1523 C 0.92606 0.13024 0.51109 0.0
C1524 C 0.92325 0.12315 0.45079 0.0
H1525 H 0.01135 0.18886 0.55965 0.0
H1526 H 0.9894 0.16851 0.54399 0.0
C1527 C 0.91081 0.11144 0.44066 0.0
C1528 C 0.93918 0.14285 0.5217 0.0
H1529 H 0.95966 0.17446 0.45949 0.0
C1530 C 0.94736 0.14346 0.57506 0.0
C1531 C 0.94357 0.1543 0.48037 0.0
C1532 C 0.93495 0.15463 0.42463 0.0
C1533 C 0.95987 0.15506 0.58746 0.0
C1534 C 0.9645 0.16632 0.54457 0.0
C1535 C 0.95621 0.16581 0.49198 0.0
C1536 C 0.97788 0.17872 0.55348 0.0
C1537 C 0.96789 0.15522 0.64719 0.0
C1538 C 0.97881 0.19134 0.56194 0.0
C1539 C 0.99138 0.20301 0.57022 0.0
C1540 C 1.00327 0.20229 0.57 0.0
C1541 C 1.00235 0.1897 0.56057 0.0
C1542 C 0.98979 0.17805 0.5521 0.0
H1543 H 0.96139 0.14766 0.68484 0.0
H1544 H 0.97564 0.15271 0.63121 0.0
H1545 H 0.97307 0.16532 0.67099 0.0
H1546 H 0.96979 0.19215 0.56265 0.0
H1547 H 0.9918 0.21258 0.57671 0.0
H1548 H 0.95788 0.83729 0.48429 0.0
H1549 H 0.93738 0.83848 0.50279 0.0
H1550 H 0.91423 0.79517 0.51704 0.0
H1551 H 0.9346 0.79387 0.49824 0.0
H1552 H 0.91412 0.82776 0.42939 0.0
H1553 H 0.90253 0.8064 0.68375 0.0
H1554 H 0.9186 0.81187 0.64433 0.0
H1555 H 0.90432 0.79573 0.62418 0.0
C1556 C 0.94843 0.82801 0.49132 0.0
C1557 C 0.94797 0.81549 0.4903 0.0
C1558 C 0.93671 0.82871 0.50216 0.0
C1559 C 0.92427 0.81694 0.51257 0.0
C1560 C 0.92374 0.80443 0.51101 0.0
H1561 H 0.84171 0.80015 0.57006 0.0
H1562 H 0.86215 0.79863 0.55376 0.0
C1563 C 0.93544 0.80371 0.50026 0.0
C1564 C 0.91179 0.81771 0.52284 0.0
H1565 H 0.8856 0.8092 0.63033 0.0
C1566 C 0.90793 0.82377 0.47352 0.0
C1567 C 0.90365 0.81245 0.5803 0.0
C1568 C 0.90753 0.80636 0.63648 0.0
C1569 C 0.89609 0.82452 0.4795 0.0
C1570 C 0.88797 0.81928 0.53696 0.0
C1571 C 0.8918 0.81319 0.58623 0.0
C1572 C 0.87556 0.82019 0.54725 0.0
C1573 C 0.89224 0.83067 0.42348 0.0
C1574 C 0.8763 0.83279 0.55001 0.0
C1575 C 0.86465 0.83366 0.55945 0.0
C1576 C 0.85203 0.82195 0.56684 0.0
C1577 C 0.8513 0.80934 0.5648 0.0
C1578 C 0.86297 0.80847 0.55539 0.0
H1579 H 0.89732 0.83077 0.37628 0.0
H1580 H 0.88118 0.8251 0.41527 0.0
H1581 H 0.89534 0.84125 0.43627 0.0
H1582 H 0.88591 0.84199 0.5453 0.0
H1583 H 0.86553 0.84352 0.56116 0.0
H1584 H 0.88422 0.5845 0.77603 0.0
H1585 H 0.86406 0.5866 0.78974 0.0
H1586 H 0.83929 0.54329 0.79158 0.0
H1587 H 0.8594 0.54119 0.77775 0.0
H1588 H 0.84099 0.5768 0.70879 0.0
H1589 H 0.82761 0.55445 0.96093 0.0
H1590 H 0.84393 0.56003 0.92402 0.0
H1591 H 0.82975 0.54405 0.90096 0.0
C1592 C 0.87447 0.57545 0.77901 0.0
C1593 C 0.87338 0.56269 0.77556 0.0
C1594 C 0.86296 0.57665 0.78705 0.0
C1595 C 0.85016 0.56511 0.79259 0.0
C1596 C 0.84906 0.55235 0.78869 0.0
H1597 H 0.76801 0.548 0.84415 0.0
H1598 H 0.78875 0.54726 0.82742 0.0
C1599 C 0.86056 0.55115 0.78048 0.0
C1600 C 0.83793 0.56635 0.80159 0.0
H1601 H 0.81129 0.55791 0.9057 0.0
C1602 C 0.83453 0.57276 0.75203 0.0
C1603 C 0.8295 0.56107 0.85803 0.0
C1604 C 0.83291 0.55462 0.91437 0.0
C1605 C 0.82276 0.57368 0.75648 0.0
C1606 C 0.81427 0.56829 0.81269 0.0
C1607 C 0.81775 0.562 0.86252 0.0
C1608 C 0.80165 0.56888 0.82056 0.0
C1609 C 0.81931 0.58006 0.69997 0.0
C1610 C 0.80195 0.58129 0.82263 0.0
C1611 C 0.79005 0.58175 0.83145 0.0
C1612 C 0.77757 0.5698 0.83891 0.0
C1613 C 0.77735 0.5574 0.83718 0.0
C1614 C 0.78924 0.55695 0.82823 0.0
H1615 H 0.82475 0.58038 0.65366 0.0
H1616 H 0.80832 0.57451 0.68975 0.0
H1617 H 0.82228 0.59058 0.71353 0.0
H1618 H 0.81142 0.59065 0.81824 0.0
H1619 H 0.79064 0.59148 0.83227 0.0
H1620 H 0.47088 0.32031 0.78453 0.0
H1621 H 0.46963 0.29847 0.79889 0.0
H1622 H 0.51299 0.31842 0.80877 0.0
H1623 H 0.51428 0.34027 0.79293 0.0
H1624 H 0.50266 0.29611 0.72991 0.0
H1625 H 0.47525 0.28337 0.9699 0.0
H1626 H 0.46674 0.28683 0.90469 0.0
H1627 H 0.4828 0.30001 0.93407 0.0
C1628 C 0.48014 0.32003 0.78973 0.0
C1629 C 0.49268 0.33199 0.78781 0.0
C1630 C 0.47941 0.30754 0.79845 0.0
C1631 C 0.49121 0.30679 0.80614 0.0
C1632 C 0.50375 0.31874 0.80332 0.0
H1633 H 0.49513 0.23768 0.9582 0.0
H1634 H 0.4972 0.25973 0.94001 0.0
C1635 C 0.50448 0.33122 0.7944 0.0
C1636 C 0.49051 0.29356 0.81629 0.0
H1637 H 0.47758 0.266 0.91803 0.0
C1638 C 0.4972 0.28954 0.77115 0.0
C1639 C 0.48355 0.28504 0.87061 0.0
C1640 C 0.47678 0.28906 0.92298 0.0
C1641 C 0.49696 0.2772 0.77826 0.0
C1642 C 0.48963 0.26849 0.83135 0.0
C1643 C 0.4831 0.27259 0.87699 0.0
C1644 C 0.48874 0.25517 0.84103 0.0
C1645 C 0.50481 0.27376 0.72958 0.0
C1646 C 0.48324 0.24518 0.79161 0.0
C1647 C 0.48219 0.23259 0.80153 0.0
C1648 C 0.4865 0.22961 0.86144 0.0
C1649 C 0.49195 0.23964 0.91094 0.0
C1650 C 0.49303 0.25224 0.90088 0.0
H1651 H 0.51277 0.28288 0.70413 0.0
H1652 H 0.5096 0.2686 0.75473 0.0
H1653 H 0.49785 0.26688 0.69103 0.0
H1654 H 0.4796 0.24706 0.74553 0.0
H1655 H 0.47801 0.22519 0.76208 0.0
H1656 H 0.71487 0.1954 0.78189 0.0
H1657 H 0.73693 0.2156 0.79731 0.0
H1658 H 0.75578 0.1911 0.79753 0.0
H1659 H 0.73363 0.17081 0.78372 0.0
H1660 H 0.76524 0.20981 0.89755 0.0
H1661 H 0.76639 0.23466 0.65982 0.0
H1662 H 0.75163 0.23028 0.7085 0.0
H1663 H 0.75437 0.21719 0.67616 0.0
C1664 C 0.72373 0.19433 0.78495 0.0
C1665 C 0.72255 0.18154 0.78081 0.0
C1666 C 0.73635 0.2059 0.79329 0.0
C1667 C 0.74809 0.20494 0.79721 0.0
C1668 C 0.7469 0.19213 0.79399 0.0
H1669 H 0.83005 0.27354 0.77002 0.0
H1670 H 0.80875 0.25269 0.75069 0.0
C1671 C 0.73425 0.18055 0.78574 0.0
C1672 C 0.76151 0.21726 0.80662 0.0
H1673 H 0.78302 0.24818 0.73994 0.0
C1674 C 0.76916 0.21816 0.86288 0.0
C1675 C 0.76674 0.22812 0.76097 0.0
C1676 C 0.75943 0.2275 0.69762 0.0
C1677 C 0.7817 0.22971 0.87555 0.0
C1678 C 0.78666 0.2408 0.83137 0.0
C1679 C 0.77917 0.23977 0.77426 0.0
C1680 C 0.79961 0.25353 0.84335 0.0
C1681 C 0.7896 0.22984 0.93572 0.0
C1682 C 0.80153 0.2611 0.90139 0.0
C1683 C 0.81375 0.27297 0.91288 0.0
C1684 C 0.82433 0.27766 0.86625 0.0
C1685 C 0.82225 0.27018 0.80751 0.0
C1686 C 0.81002 0.25828 0.79615 0.0
H1687 H 0.78639 0.21947 0.95319 0.0
H1688 H 0.80057 0.23509 0.92498 0.0
H1689 H 0.78786 0.23526 0.9768 0.0
H1690 H 0.79357 0.25782 0.93796 0.0
H1691 H 0.81498 0.27834 0.95899 0.0
H1692 H 0.91834 0.4934 0.91098 0.0
H1693 H 0.91725 0.47173 0.92641 0.0
H1694 H 0.8921 0.4561 0.75276 0.0
H1695 H 0.89372 0.47794 0.7348 0.0
H1696 H 0.89639 0.44681 0.94871 0.0
H1697 H 0.92077 0.44672 0.71096 0.0
H1698 H 0.92075 0.4615 0.74184 0.0
H1699 H 0.90618 0.44845 0.69987 0.0
C1700 C 0.91271 0.48543 0.87545 0.0
C1701 C 0.90622 0.48755 0.82123 0.0
C1702 C 0.91201 0.47298 0.88469 0.0
C1703 C 0.90482 0.46232 0.84003 0.0
C1704 C 0.898 0.46425 0.78701 0.0
H1705 H 0.88602 0.37885 0.81818 0.0
H1706 H 0.88755 0.4008 0.80245 0.0
C1707 C 0.89876 0.47672 0.77744 0.0
C1708 C 0.90433 0.44917 0.84956 0.0
H1709 H 0.91072 0.42629 0.77268 0.0
C1710 C 0.8996 0.44237 0.91033 0.0
C1711 C 0.90855 0.44335 0.79959 0.0
C1712 C 0.91448 0.45044 0.73467 0.0
C1713 C 0.89872 0.42985 0.92194 0.0
C1714 C 0.9028 0.42399 0.87172 0.0
C1715 C 0.90756 0.43077 0.81105 0.0
C1716 C 0.9021 0.41076 0.88096 0.0
C1717 C 0.89314 0.42283 0.98737 0.0
C1718 C 0.90995 0.40911 0.92955 0.0
C1719 C 0.90912 0.39658 0.93846 0.0
C1720 C 0.90042 0.38547 0.89892 0.0
C1721 C 0.89275 0.3872 0.84962 0.0
C1722 C 0.89363 0.39974 0.84053 0.0
H1723 H 0.88765 0.42711 0.01432 0.0
H1724 H 0.8862 0.41188 0.97976 0.0
H1725 H 0.90157 0.42406 0.01928 0.0
H1726 H 0.91673 0.41752 0.96056 0.0
H1727 H 0.91517 0.39556 0.97679 0.0
H1728 H 0.55965 0.45365 0.7947 0.0
H1729 H 0.58143 0.4737 0.81613 0.0
H1730 H 0.59489 0.44931 0.91641 0.0
H1731 H 0.5731 0.42913 0.89461 0.0
H1732 H 0.59389 0.48526 0.93054 0.0
H1733 H 0.62557 0.46984 0.78924 0.0
H1734 H 0.60744 0.4609 0.78313 0.0
H1735 H 0.61557 0.45805 0.85258 0.0
C1736 C 0.56721 0.45252 0.82162 0.0
C1737 C 0.56459 0.43973 0.84293 0.0
C1738 C 0.5797 0.46402 0.83359 0.0
C1739 C 0.58993 0.46304 0.867 0.0
C1740 C 0.58732 0.45031 0.88901 0.0
H1741 H 0.6715 0.5235 0.98702 0.0
H1742 H 0.64954 0.50291 0.9748 0.0
C1743 C 0.57483 0.43877 0.87668 0.0
C1744 C 0.60317 0.47541 0.87977 0.0
H1745 H 0.63711 0.48976 0.85386 0.0
C1746 C 0.60333 0.48624 0.91358 0.0
C1747 C 0.61552 0.47674 0.85769 0.0
C1748 C 0.61606 0.46582 0.81809 0.0
C1749 C 0.61545 0.49825 0.92638 0.0
C1750 C 0.62777 0.49957 0.90427 0.0
C1751 C 0.62765 0.48873 0.87101 0.0
C1752 C 0.64088 0.5122 0.91392 0.0
C1753 C 0.61499 0.50938 0.9643 0.0
C1754 C 0.64334 0.52427 0.8837 0.0
C1755 C 0.65587 0.53602 0.89048 0.0
C1756 C 0.66622 0.53593 0.92757 0.0
C1757 C 0.66371 0.52389 0.95844 0.0
C1758 C 0.65118 0.51212 0.95132 0.0
H1759 H 0.60538 0.50561 0.99205 0.0
H1760 H 0.6235 0.51425 0.99993 0.0
H1761 H 0.61585 0.51718 0.92883 0.0
H1762 H 0.63564 0.52454 0.85369 0.0
H1763 H 0.65754 0.54513 0.86582 0.0
H1764 H 0.61103 0.14044 0.92647 0.0
H1765 H 0.59037 0.14135 0.94354 0.0
H1766 H 0.59481 0.15885 0.74919 0.0
H1767 H 0.61512 0.15743 0.73044 0.0
H1768 H 0.58594 0.16254 0.94599 0.0
H1769 H 0.55642 0.12775 0.74193 0.0
H1770 H 0.57215 0.12956 0.7707 0.0
H1771 H 0.57209 0.14176 0.71468 0.0
C1772 C 0.60755 0.14435 0.88696 0.0
C1773 C 0.61476 0.14878 0.82685 0.0
C1774 C 0.59577 0.14495 0.89702 0.0
C1775 C 0.59087 0.14994 0.84722 0.0
C1776 C 0.5982 0.15468 0.78783 0.0
H1777 H 0.53231 0.17654 0.89934 0.0
H1778 H 0.55265 0.1749 0.88411 0.0
C1779 C 0.60996 0.15404 0.7776 0.0
C1780 C 0.57821 0.15037 0.8579 0.0
H1781 H 0.54691 0.13982 0.79328 0.0
C1782 C 0.57739 0.15753 0.91271 0.0
C1783 C 0.56695 0.14366 0.81514 0.0
C1784 C 0.56685 0.13514 0.7577 0.0
C1785 C 0.56576 0.15838 0.92517 0.0
C1786 C 0.5547 0.15213 0.88088 0.0
C1787 C 0.55542 0.14474 0.82685 0.0
C1788 C 0.54231 0.15312 0.88973 0.0
C1789 C 0.56535 0.16579 0.98636 0.0
C1790 C 0.52962 0.14143 0.8959 0.0
C1791 C 0.51796 0.14235 0.90396 0.0
C1792 C 0.51875 0.15499 0.90579 0.0
C1793 C 0.5314 0.16667 0.89866 0.0
C1794 C 0.54305 0.16574 0.89044 0.0
H1795 H 0.57273 0.16654 0.02428 0.0
H1796 H 0.56796 0.17619 0.97239 0.0
H1797 H 0.55515 0.16073 0.00905 0.0
H1798 H 0.52876 0.13157 0.89493 0.0
H1799 H 0.50833 0.13319 0.90856 0.0
H1800 H 0.55102 0.91717 0.11703 0.0
H1801 H 0.53071 0.91892 0.13261 0.0
H1802 H 0.50609 0.87578 0.11213 0.0
H1803 H 0.52637 0.874 0.09849 0.0
H1804 H 0.50948 0.91262 0.05473 0.0
H1805 H 0.49134 0.88132 0.28175 0.0
H1806 H 0.50794 0.88714 0.24817 0.0
H1807 H 0.49356 0.87247 0.21395 0.0
C1808 C 0.54127 0.90808 0.11598 0.0
C1809 C 0.54027 0.89544 0.10689 0.0
C1810 C 0.52966 0.90908 0.12492 0.0
C1811 C 0.51683 0.89746 0.12499 0.0
C1812 C 0.51585 0.88486 0.11432 0.0
H1813 H 0.43426 0.8803 0.13741 0.0
H1814 H 0.45534 0.88019 0.12212 0.0
C1815 C 0.52745 0.88386 0.10601 0.0
C1816 C 0.50447 0.8985 0.13513 0.0
H1817 H 0.47571 0.88624 0.22821 0.0
C1818 C 0.50217 0.90694 0.09308 0.0
C1819 C 0.49491 0.89115 0.1854 0.0
C1820 C 0.49711 0.88263 0.23531 0.0
C1821 C 0.49045 0.90793 0.09875 0.0
C1822 C 0.48078 0.90032 0.14783 0.0
C1823 C 0.48311 0.892 0.1903 0.0
C1824 C 0.46806 0.9007 0.15547 0.0
C1825 C 0.48829 0.91685 0.05128 0.0
C1826 C 0.4682 0.91227 0.17951 0.0
C1827 C 0.45611 0.91232 0.18951 0.0
C1828 C 0.4436 0.90078 0.17544 0.0
C1829 C 0.4436 0.8893 0.15011 0.0
C1830 C 0.45567 0.88923 0.14082 0.0
H1831 H 0.49558 0.92033 0.00938 0.0
H1832 H 0.4779 0.91143 0.0309 0.0
H1833 H 0.48953 0.92585 0.07837 0.0
H1834 H 0.47766 0.92118 0.19194 0.0
H1835 H 0.45658 0.92128 0.21009 0.0
H1836 H 0.17166 0.67008 0.19357 0.0
H1837 H 0.16982 0.64794 0.20594 0.0
H1838 H 0.13798 0.63141 0.06025 0.0
H1839 H 0.14017 0.65363 0.04594 0.0
H1840 H 0.14915 0.62398 0.24578 0.0
H1841 H 0.16278 0.61919 0.98675 0.0
H1842 H 0.16497 0.63482 0.0196 0.0
H1843 H 0.14863 0.6218 0.99237 0.0
C1844 C 0.1643 0.66173 0.16402 0.0
C1845 C 0.15606 0.6636 0.11875 0.0
C1846 C 0.16324 0.64907 0.1712 0.0
C1847 C 0.15392 0.63802 0.13319 0.0
C1848 C 0.14547 0.63982 0.08898 0.0
H1849 H 0.13395 0.55353 0.12028 0.0
H1850 H 0.13385 0.57478 0.10683 0.0
C1851 C 0.14661 0.6525 0.08145 0.0
C1852 C 0.15297 0.62462 0.1407 0.0
H1853 H 0.1551 0.5999 0.05539 0.0
C1854 C 0.15049 0.61874 0.20413 0.0
C1855 C 0.15469 0.61774 0.08636 0.0
C1856 C 0.15804 0.62375 0.01756 0.0
C1857 C 0.1496 0.60619 0.21462 0.0
C1858 C 0.15136 0.59935 0.16039 0.0
C1859 C 0.15369 0.60513 0.09685 0.0
C1860 C 0.15129 0.58642 0.16907 0.0
C1861 C 0.14662 0.60027 0.28361 0.0
C1862 C 0.16119 0.58594 0.20796 0.0
C1863 C 0.16127 0.57385 0.21574 0.0
C1864 C 0.15147 0.56195 0.18455 0.0
C1865 C 0.14156 0.56247 0.14546 0.0
C1866 C 0.14154 0.57461 0.13745 0.0
H1867 H 0.14217 0.60494 0.31561 0.0
H1868 H 0.13961 0.58921 0.28194 0.0
H1869 H 0.15615 0.60209 0.30707 0.0
H1870 H 0.16893 0.59496 0.23207 0.0
H1871 H 0.16895 0.57381 0.24683 0.0
H1872 H 0.47998 0.62219 0.19757 0.0
H1873 H 0.4583 0.60164 0.18 0.0
H1874 H 0.47823 0.57817 0.17787 0.0
H1875 H 0.49984 0.59854 0.19795 0.0
H1876 H 0.44957 0.583 0.07729 0.0
H1877 H 0.44884 0.55842 0.31569 0.0
H1878 H 0.46047 0.57602 0.29977 0.0
H1879 H 0.46367 0.5633 0.26665 0.0
C1880 C 0.47976 0.61264 0.19402 0.0
C1881 C 0.49172 0.61207 0.19955 0.0
C1882 C 0.46735 0.6009 0.18353 0.0
C1883 C 0.46658 0.5883 0.17873 0.0
C1884 C 0.47851 0.58772 0.18274 0.0
H1885 H 0.4013 0.50572 0.12407 0.0
H1886 H 0.4231 0.52639 0.13744 0.0
C1887 C 0.49092 0.59944 0.19331 0.0
C1888 C 0.45332 0.57581 0.16897 0.0
H1889 H 0.43186 0.54508 0.23755 0.0
C1890 C 0.44566 0.57473 0.11248 0.0
C1891 C 0.44822 0.56499 0.21483 0.0
C1892 C 0.45565 0.56574 0.27797 0.0
C1893 C 0.4332 0.56307 0.09992 0.0
C1894 C 0.4281 0.55226 0.14579 0.0
C1895 C 0.43576 0.55334 0.2023 0.0
C1896 C 0.41483 0.53974 0.13631 0.0
C1897 C 0.42578 0.56232 0.03676 0.0
C1898 C 0.40288 0.5403 0.13197 0.0
C1899 C 0.39042 0.52848 0.12394 0.0
C1900 C 0.38965 0.51587 0.12058 0.0
C1901 C 0.40159 0.5153 0.12574 0.0
C1902 C 0.41405 0.52711 0.13365 0.0
H1903 H 0.43262 0.56958 0.9989 0.0
H1904 H 0.42089 0.55202 0.0152 0.0
H1905 H 0.41783 0.56487 0.04794 0.0
H1906 H 0.40315 0.54986 0.13553 0.0
H1907 H 0.38137 0.52922 0.12063 0.0
H1908 H 0.58325 0.72958 0.30686 0.0
H1909 H 0.58453 0.75141 0.29129 0.0
H1910 H 0.55435 0.73416 0.13775 0.0
H1911 H 0.55289 0.71229 0.15391 0.0
H1912 H 0.59122 0.76786 0.18345 0.0
H1913 H 0.53852 0.75119 0.25635 0.0
H1914 H 0.54625 0.74103 0.27086 0.0
H1915 H 0.53976 0.74139 0.19 0.0
C1916 C 0.5769 0.73045 0.26978 0.0
C1917 C 0.56791 0.7192 0.23189 0.0
C1918 C 0.57762 0.74293 0.26096 0.0
C1919 C 0.56933 0.7444 0.21429 0.0
C1920 C 0.56058 0.73322 0.17533 0.0
H1921 H 0.56031 0.81139 0.07556 0.0
H1922 H 0.55879 0.78958 0.09394 0.0
C1923 C 0.55983 0.72074 0.18427 0.0
C1924 C 0.57 0.75765 0.20562 0.0
H1925 H 0.55092 0.77298 0.208 0.0
C1926 C 0.58242 0.76899 0.18922 0.0
C1927 C 0.55852 0.75916 0.21316 0.0
C1928 C 0.54504 0.74758 0.23419 0.0
C1929 C 0.58362 0.78168 0.17879 0.0
C1930 C 0.57212 0.78316 0.18584 0.0
C1931 C 0.55971 0.77184 0.20238 0.0
C1932 C 0.57278 0.79636 0.17628 0.0
C1933 C 0.59712 0.79336 0.15876 0.0
C1934 C 0.58089 0.80737 0.21746 0.0
C1935 C 0.58167 0.81984 0.20759 0.0
C1936 C 0.57434 0.82161 0.15629 0.0
C1937 C 0.56598 0.81044 0.11605 0.0
C1938 C 0.56517 0.79795 0.12616 0.0
H1939 H 0.60397 0.7899 0.13942 0.0
H1940 H 0.59595 0.79961 0.12018 0.0
H1941 H 0.60199 0.79982 0.20278 0.0
H1942 H 0.5866 0.80632 0.25747 0.0
H1943 H 0.588 0.82809 0.2405 0.0
H1944 H 0.33757 0.85575 0.32013 0.0
H1945 H 0.31584 0.83515 0.30292 0.0
H1946 H 0.30243 0.85744 0.1835 0.0
H1947 H 0.32424 0.87794 0.19909 0.0
H1948 H 0.28997 0.82822 0.33169 0.0
H1949 H 0.29588 0.82717 0.05884 0.0
H1950 H 0.3096 0.83827 0.11245 0.0
H1951 H 0.29712 0.84257 0.08773 0.0
C1952 C 0.32996 0.85625 0.29041 0.0
C1953 C 0.33265 0.86842 0.26043 0.0
C1954 C 0.31755 0.84448 0.28057 0.0
C1955 C 0.30758 0.84464 0.24058 0.0
C1956 C 0.31007 0.85694 0.21294 0.0
H1957 H 0.22703 0.78568 0.11236 0.0
H1958 H 0.2484 0.80597 0.13776 0.0
C1959 C 0.3225 0.86868 0.22237 0.0
C1960 C 0.29464 0.83197 0.22756 0.0
H1961 H 0.27435 0.81168 0.10295 0.0
C1962 C 0.28659 0.82456 0.28169 0.0
C1963 C 0.29023 0.82713 0.16228 0.0
C1964 C 0.29871 0.83412 0.10202 0.0
C1965 C 0.27414 0.81269 0.2723 0.0
C1966 C 0.26967 0.80798 0.20702 0.0
C1967 C 0.27775 0.81532 0.15295 0.0
C1968 C 0.25656 0.79556 0.1935 0.0
C1969 C 0.26571 0.80547 0.33227 0.0
C1970 C 0.25404 0.7829 0.2159 0.0
C1971 C 0.24176 0.77124 0.20179 0.0
C1972 C 0.23174 0.772 0.1648 0.0
C1973 C 0.23437 0.78471 0.14208 0.0
C1974 C 0.24664 0.79634 0.15611 0.0
H1975 H 0.26896 0.81202 0.37707 0.0
H1976 H 0.25489 0.80192 0.32297 0.0
H1977 H 0.26675 0.79654 0.34303 0.0
H1978 H 0.26164 0.78201 0.24377 0.0
H1979 H 0.24008 0.76165 0.22026 0.0
H1980 H 0.28157 0.47607 0.28282 0.0
H1981 H 0.26096 0.47684 0.30442 0.0
H1982 H 0.25987 0.48717 0.09959 0.0
H1983 H 0.28041 0.48636 0.07741 0.0
H1984 H 0.25477 0.50272 0.18451 0.0
H1985 H 0.22295 0.44874 0.25043 0.0
H1986 H 0.23798 0.45752 0.29948 0.0
H1987 H 0.23927 0.45535 0.21179 0.0
C1988 C 0.27691 0.47841 0.24217 0.0
C1989 C 0.28269 0.48111 0.17827 0.0
C1990 C 0.26509 0.47883 0.25463 0.0
C1991 C 0.2587 0.48184 0.2034 0.0
C1992 C 0.26457 0.48479 0.13992 0.0
H1993 H 0.17688 0.46769 0.19189 0.0
H1994 H 0.19778 0.46699 0.17906 0.0
C1995 C 0.2764 0.4844 0.12742 0.0
C1996 C 0.24599 0.48206 0.21584 0.0
H1997 H 0.21333 0.46265 0.26719 0.0
C1998 C 0.24571 0.49396 0.20262 0.0
C1999 C 0.2341 0.47058 0.23861 0.0
C2000 C 0.23349 0.45728 0.25034 0.0
C2001 C 0.23394 0.49472 0.21195 0.0
C2002 C 0.22215 0.48335 0.23646 0.0
C2003 C 0.2224 0.47141 0.24916 0.0
C2004 C 0.20934 0.48348 0.24693 0.0
C2005 C 0.23417 0.50761 0.19375 0.0
C2006 C 0.20874 0.49275 0.29063 0.0
C2007 C 0.1968 0.49319 0.29791 0.0
C2008 C 0.1852 0.4843 0.26196 0.0
C2009 C 0.18568 0.47472 0.22002 0.0
C2010 C 0.19762 0.4743 0.21268 0.0
H2011 H 0.24266 0.51395 0.15983 0.0
H2012 H 0.2246 0.50547 0.16949 0.0
H2013 H 0.23542 0.51352 0.23953 0.0
H2014 H 0.21755 0.49971 0.31884 0.0
H2015 H 0.19671 0.50062 0.33088 0.0
H2016 H 0.04671 0.24351 0.36697 0.0
H2017 H 0.04663 0.24372 0.24587 0.0
H2018 H 1.00559 0.23553 0.2469 0.0
H2019 H 1.00561 0.23554 0.36845 0.0
H2020 H 0.03071 0.22383 0.15778 0.0
H2021 H 0.02385 0.26813 0.12547 0.0
H2022 H 0.02827 0.26391 0.20429 0.0
H2023 H 0.01112 0.25497 0.17557 0.0
C2024 C 0.03765 0.24179 0.34172 0.0
C2025 C 0.02618 0.23958 0.37783 0.0
C2026 C 0.03763 0.2419 0.27228 0.0
C2027 C 0.02619 0.23986 0.23718 0.0
C2028 C 0.01465 0.23744 0.27287 0.0
H2029 H 1.00702 0.23681 0.81839 0.0
H2030 H 1.00694 0.23639 0.93951 0.0
C2031 C 0.01465 0.23735 0.34248 0.0
C2032 C 0.02634 0.24003 0.16327 0.0
H2033 H 0.0227 0.25594 0.02812 0.0
C2034 C 0.02901 0.23088 0.1294 0.0
C2035 C 0.02412 0.24924 0.12625 0.0
C2036 C 0.0218 0.25971 0.15963 0.0
C2037 C 0.02927 0.23052 0.05963 0.0
C2038 C 0.02706 0.23974 0.02258 0.0
C2039 C 0.02439 0.24888 0.05647 0.0
C2040 C 0.02727 0.23996 0.94864 0.0
C2041 C 0.03159 0.22004 0.02632 0.0
C2042 C 0.0388 0.24227 0.91315 0.0
C2043 C 0.03889 0.24247 0.84355 0.0
C2044 C 0.02746 0.24047 0.80794 0.0
C2045 C 0.016 0.23835 0.84384 0.0
C2046 C 0.01593 0.23812 0.91329 0.0
H2047 H 0.0294 0.21156 0.06036 0.0
H2048 H 0.02522 0.21592 0.98129 0.0
H2049 H 0.0423 0.22474 0.01106 0.0
H2050 H 0.0478 0.24404 0.93928 0.0
H2051 H 0.04792 0.24422 0.81777 0.0
H2052 H 0.81813 0.79097 0.36384 0.0
H2053 H 0.81824 0.79116 0.2422 0.0
H2054 H 0.81128 0.82482 0.24321 0.0
H2055 H 0.81136 0.82489 0.36425 0.0
H2056 H 0.79811 0.78789 0.15513 0.0
H2057 H 0.84346 0.83814 0.11964 0.0
H2058 H 0.83929 0.8295 0.19851 0.0
H2059 H 0.83089 0.8384 0.17185 0.0
C2060 C 0.81672 0.79849 0.33828 0.0
C2061 C 0.81483 0.80797 0.37417 0.0
C2062 C 0.81676 0.79856 0.26867 0.0
C2063 C 0.81501 0.80816 0.23351 0.0
C2064 C 0.81298 0.81753 0.26914 0.0
H2065 H 0.81042 0.82483 0.81506 0.0
H2066 H 0.81045 0.82467 0.93667 0.0
C2067 C 0.81295 0.81748 0.33859 0.0
C2068 C 0.8149 0.80814 0.15962 0.0
H2069 H 0.83026 0.82772 0.0236 0.0
C2070 C 0.80519 0.79656 0.12634 0.0
C2071 C 0.8241 0.8195 0.12206 0.0
C2072 C 0.83511 0.83205 0.15473 0.0
C2073 C 0.80426 0.79611 0.05666 0.0
C2074 C 0.81347 0.80746 0.01906 0.0
C2075 C 0.82318 0.81904 0.05237 0.0
C2076 C 0.81334 0.80746 0.94513 0.0
C2077 C 0.7932 0.78357 0.02411 0.0
C2078 C 0.81514 0.79796 0.90931 0.0
C2079 C 0.81508 0.79797 0.83985 0.0
C2080 C 0.81334 0.80759 0.80441 0.0
C2081 C 0.81171 0.81722 0.84048 0.0
C2082 C 0.81175 0.81717 0.9101 0.0
H2083 H 0.78481 0.77756 0.05919 0.0
H2084 H 0.78907 0.78612 0.98014 0.0
H2085 H 0.79735 0.77714 1.00736 0.0
H2086 H 0.81672 0.79057 0.9351 0.0
H2087 H 0.81646 0.79045 0.81405 0.0
H2088 H 0.23079 0.00751 0.35871 0.0
H2089 H 0.2307 0.00697 0.23748 0.0
H2090 H 0.26574 0.04673 0.2334 0.0
H2091 H 0.26607 0.04731 0.35483 0.0
H2092 H 0.22817 0.024 0.14938 0.0
H2093 H 0.27693 0.02562 0.11168 0.0
H2094 H 0.26855 0.02195 0.19124 0.0
H2095 H 0.2781 0.03906 0.16242 0.0
C2096 C 0.23856 0.01613 0.33222 0.0
C2097 C 0.24849 0.02744 0.36672 0.0
C2098 C 0.23846 0.0158 0.2628 0.0
C2099 C 0.24833 0.02671 0.22636 0.0
C2100 C 0.2582 0.03806 0.26051 0.0
H2101 H 0.26432 0.046 0.80845 0.0
H2102 H 0.26432 0.04573 0.9297 0.0
C2103 C 0.25832 0.03841 0.33001 0.0
C2104 C 0.24802 0.02636 0.15261 0.0
H2105 H 0.26652 0.02834 0.01556 0.0
C2106 C 0.23652 0.02487 0.12006 0.0
C2107 C 0.25892 0.0275 0.11449 0.0
C2108 C 0.27128 0.0285 0.14663 0.0
C2109 C 0.23575 0.02481 0.0504 0.0
C2110 C 0.24669 0.02602 0.01222 0.0
C2111 C 0.25816 0.02744 0.04483 0.0
C2112 C 0.24653 0.02604 0.93838 0.0
C2113 C 0.22338 0.02382 0.01842 0.0
C2114 C 0.23662 0.01497 0.90275 0.0
C2115 C 0.23654 0.0151 0.8332 0.0
C2116 C 0.24646 0.02626 0.79783 0.0
C2117 C 0.25648 0.03725 0.83382 0.0
C2118 C 0.25653 0.03711 0.90327 0.0
H2119 H 0.21768 0.02659 0.05359 0.0
H2120 H 0.22611 0.03045 0.97415 0.0
H2121 H 0.2166 0.01328 1.00215 0.0
H2122 H 0.22899 1.00617 0.92871 0.0
H2123 H 0.22873 1.00642 0.80728 0.0
H2124 H 0.05171 0.81297 0.64469 0.0
H2125 H 0.05145 0.81261 0.76628 0.0
H2126 H 0.01256 0.80993 0.76595 0.0
H2127 H 0.01257 0.81001 0.6449 0.0
H2128 H 0.04989 0.82996 0.85588 0.0
H2129 H 1.00568 0.77871 0.88537 0.0
H2130 H 0.01423 0.78483 0.80695 0.0
H2131 H 1.00234 0.78965 0.83524 0.0
C2132 C 0.04307 0.81225 0.67038 0.0
C2133 C 0.03212 0.81142 0.63469 0.0
C2134 C 0.04295 0.81206 0.73997 0.0
C2135 C 0.03186 0.81097 0.77529 0.0
C2136 C 0.02106 0.81041 0.73987 0.0
H2137 H 0.01181 0.80903 0.19409 0.0
H2138 H 0.01218 0.80953 0.07254 0.0
C2139 C 0.02114 0.81056 0.67044 0.0
C2140 C 0.0317 0.8107 0.84916 0.0
H2141 H 0.0137 0.79206 0.98311 0.0
C2142 C 0.04202 0.82164 0.88372 0.0
C2143 C 0.0214 0.79986 0.8855 0.0
C2144 C 1.01035 0.78754 0.85145 0.0
C2145 C 0.04219 0.82216 0.9535 0.0
C2146 C 0.03189 0.81132 0.98983 0.0
C2147 C 0.02157 0.80038 0.95527 0.0
C2148 C 0.03171 0.81105 0.06371 0.0
C2149 C 0.05325 0.83446 0.98757 0.0
C2150 C 0.04246 0.81151 0.09924 0.0
C2151 C 0.04231 0.81127 0.16869 0.0
C2152 C 0.03133 0.81042 0.20433 0.0
C2153 C 0.02046 0.80973 0.16851 0.0
C2154 C 0.02064 0.81 0.09893 0.0
H2155 H 0.05796 0.84328 0.95362 0.0
H2156 H 0.04935 0.8372 0.03195 0.0
H2157 H 0.06122 0.83232 1.00401 0.0
H2158 H 0.05096 0.81197 0.07322 0.0
H2159 H 0.05083 0.81171 0.19432 0.0
H2160 H 0.2463 0.22458 0.19249 0.0
H2161 H 0.24604 0.22451 0.07096 0.0
H2162 H 0.24186 0.25987 0.0714 0.0
H2163 H 0.24188 0.25994 0.19254 0.0
H2164 H 0.2244 0.2405 0.98454 0.0
H2165 H 0.2763 0.24961 0.94721 0.0
H2166 H 0.26587 0.23524 0.99812 0.0
H2167 H 0.27037 0.25185 0.02667 0.0
C2168 C 0.24537 0.23238 0.16686 0.0
C2169 C 0.24417 0.2423 0.20264 0.0
C2170 C 0.24531 0.23237 0.09725 0.0
C2171 C 0.24416 0.24232 0.06198 0.0
C2172 C 0.24283 0.25213 0.0975 0.0
H2173 H 0.24065 0.26029 0.6428 0.0
H2174 H 0.24073 0.26032 0.76435 0.0
C2175 C 0.24286 0.25215 0.16695 0.0
C2176 C 0.24405 0.2424 0.98809 0.0
H2177 H 0.26266 0.24452 0.85113 0.0
C2178 C 0.23278 0.24143 0.95533 0.0
C2179 C 0.255 0.24361 0.95001 0.0
C2180 C 0.26763 0.24526 0.98216 0.0
C2181 C 0.23205 0.24139 0.88562 0.0
C2182 C 0.243 0.24262 0.84754 0.0
C2183 C 0.25427 0.24359 0.88031 0.0
C2184 C 0.2429 0.24268 0.77365 0.0
C2185 C 0.2194 0.23968 0.85348 0.0
C2186 C 0.24445 0.23298 0.73829 0.0
C2187 C 0.24454 0.233 0.66887 0.0
C2188 C 0.24312 0.24277 0.63301 0.0
C2189 C 0.24166 0.25255 0.66859 0.0
C2190 C 0.24162 0.25254 0.7382 0.0
H2191 H 0.21072 0.23526 0.88839 0.0
H2192 H 0.22109 0.2497 0.83778 0.0
H2193 H 0.2167 0.23314 0.80883 0.0
H2194 H 0.24553 0.22531 0.76449 0.0
H2195 H 0.24573 0.22532 0.64345 0.0
H2196 H 0.82994 0.04366 0.1989 0.0
H2197 H 0.83007 0.04352 0.07738 0.0
H2198 H 0.79474 1.00397 0.07701 0.0
H2199 H 0.79462 1.00389 0.19819 0.0
H2200 H 0.81423 1.00592 0.99056 0.0
H2201 H 0.80507 0.04866 0.953 0.0
H2202 H 0.81938 0.05261 1.00433 0.0
H2203 H 0.80275 0.04048 0.03239 0.0
C2204 C 0.82215 0.03494 0.1731 0.0
C2205 C 0.81223 0.02381 0.20867 0.0
C2206 C 0.8222 0.03492 0.10349 0.0
C2207 C 0.81228 0.02383 0.06798 0.0
C2208 C 0.80245 0.01267 0.10329 0.0
H2209 H 0.79473 1.0023 0.64862 0.0
H2210 H 0.79465 1.00239 0.77013 0.0
C2211 C 0.8024 0.01267 0.17276 0.0
C2212 C 0.81228 0.02365 0.99408 0.0
H2213 H 0.8103 0.04014 0.85705 0.0
C2214 C 0.81332 0.01337 0.96134 0.0
C2215 C 0.8111 0.03338 0.95596 0.0
C2216 C 0.80939 0.04434 0.98808 0.0
C2217 C 0.81346 0.01269 0.89163 0.0
C2218 C 0.81225 0.02241 0.8535 0.0
C2219 C 0.81122 0.03269 0.88626 0.0
C2220 C 0.81224 0.02224 0.77959 0.0
C2221 C 0.81524 1.00177 0.85954 0.0
C2222 C 0.82192 0.03349 0.74429 0.0
C2223 C 0.82193 0.03353 0.67485 0.0
C2224 C 0.8122 0.02232 0.63893 0.0
C2225 C 0.80244 0.01107 0.67445 0.0
C2226 C 0.80243 0.01107 0.74405 0.0
H2227 H 0.81967 0.99755 0.89454 0.0
H2228 H 0.80525 0.99342 0.84374 0.0
H2229 H 0.8218 1.00562 0.81499 0.0
H2230 H 0.82955 0.04225 0.77056 0.0
H2231 H 0.82959 0.0424 0.64946 0.0
H2232 H 0.71415 0.57503 0.14428 0.0
H2233 H 0.71417 0.57517 0.26576 0.0
H2234 H 0.6758 0.57361 0.26614 0.0
H2235 H 0.67554 0.57326 0.14487 0.0
H2236 H 0.71331 0.59338 0.3533 0.0
H2237 H 0.66872 0.54255 0.38862 0.0
H2238 H 0.67717 0.54819 0.30964 0.0
H2239 H 0.66556 0.55345 0.33705 0.0
C2240 C 0.70567 0.57466 0.17008 0.0
C2241 C 0.69479 0.57404 0.13457 0.0
C2242 C 0.70572 0.57476 0.2396 0.0
C2243 C 0.69488 0.57416 0.27508 0.0
C2244 C 0.68412 0.57376 0.23987 0.0
H2245 H 0.6756 0.57377 0.69232 0.0
H2246 H 0.67611 0.57414 0.57099 0.0
C2247 C 0.68404 0.57364 0.17039 0.0
C2248 C 0.69495 0.57422 0.34889 0.0
H2249 H 0.67731 0.55622 0.48488 0.0
C2250 C 0.70548 0.58523 0.38213 0.0
C2251 C 0.68472 0.56358 0.38642 0.0
C2252 C 0.67347 0.55121 0.35373 0.0
C2253 C 0.7059 0.58602 0.45184 0.0
C2254 C 0.69564 0.5754 0.48936 0.0
C2255 C 0.68514 0.56437 0.45609 0.0
C2256 C 0.69558 0.57548 0.56317 0.0
C2257 C 0.71715 0.5984 0.48456 0.0
C2258 C 0.7063 0.57599 0.59924 0.0
C2259 C 0.70608 0.57585 0.66873 0.0
C2260 C 0.69506 0.57505 0.70363 0.0
C2261 C 0.68428 0.57444 0.66725 0.0
C2262 C 0.68454 0.57462 0.59779 0.0
H2263 H 0.7219 0.60705 0.44965 0.0
H2264 H 0.71343 0.60142 0.5286 0.0
H2265 H 0.72505 0.59617 0.50129 0.0
H2266 H 0.71479 0.57633 0.57364 0.0
H2267 H 0.71451 0.57623 0.69497 0.0
H2268 H 0.47908 0.1585 0.70284 0.0
H2269 H 0.47893 0.15843 0.58183 0.0
H2270 H 0.48337 0.12321 0.58057 0.0
H2271 H 0.48379 0.12332 0.70221 0.0
H2272 H 0.5002 0.14249 0.4911 0.0
H2273 H 0.44815 0.13329 0.46224 0.0
H2274 H 0.45866 0.14771 0.51258 0.0
H2275 H 0.45452 0.13117 0.54051 0.0
C2276 C 0.48 0.15069 0.67713 0.0
C2277 C 0.48138 0.14086 0.71264 0.0
C2278 C 0.47982 0.15062 0.60771 0.0
C2279 C 0.48085 0.14065 0.57201 0.0
C2280 C 0.48245 0.13095 0.60709 0.0
H2281 H 0.48245 0.12309 0.15256 0.0
H2282 H 0.48268 0.12319 0.27363 0.0
C2283 C 0.48268 0.13102 0.6767 0.0
C2284 C 0.48056 0.14055 0.49812 0.0
H2285 H 0.46155 0.1392 0.36445 0.0
C2286 C 0.49171 0.14168 0.46339 0.0
C2287 C 0.46951 0.13957 0.46194 0.0
C2288 C 0.45698 0.13774 0.49614 0.0
C2289 C 0.49223 0.14211 0.39361 0.0
C2290 C 0.48118 0.14113 0.35743 0.0
C2291 C 0.47003 0.14 0.39216 0.0
C2292 C 0.4809 0.14104 0.28353 0.0
C2293 C 0.50476 0.14392 0.35938 0.0
C2294 C 0.47939 0.1508 0.24852 0.0
C2295 C 0.47913 0.15072 0.17891 0.0
C2296 C 0.48031 0.14082 0.14288 0.0
C2297 C 0.48162 0.13094 0.17834 0.0
C2298 C 0.48185 0.13103 0.24778 0.0
H2299 H 0.51358 0.14832 0.39333 0.0
H2300 H 0.50304 0.13395 0.34269 0.0
H2301 H 0.50724 0.15054 0.31516 0.0
H2302 H 0.47853 0.15857 0.27508 0.0
H2303 H 0.47807 0.15846 0.15347 0.0
H2304 H 0.93128 0.37857 0.16166 0.0
H2305 H 0.93102 0.37828 0.28277 0.0
H2306 H 0.89397 0.34011 0.28069 0.0
H2307 H 0.89417 0.34021 0.15905 0.0
H2308 H 0.91117 0.3773 0.36801 0.0
H2309 H 0.9182 0.33316 0.40532 0.0
H2310 H 0.92139 0.3418 0.32668 0.0
H2311 H 0.90441 0.3302 0.35212 0.0
C2312 C 0.92309 0.37004 0.18668 0.0
C2313 C 0.91277 0.35937 0.1503 0.0
C2314 C 0.92296 0.36992 0.25607 0.0
C2315 C 0.91258 0.35911 0.29078 0.0
C2316 C 0.90222 0.34845 0.25488 0.0
H2317 H 0.89548 0.34049 0.7092 0.0
H2318 H 0.89546 0.3406 0.58811 0.0
C2319 C 0.90232 0.34856 0.18529 0.0
C2320 C 0.91249 0.35922 0.36453 0.0
H2321 H 0.91396 0.3424 0.50126 0.0
C2322 C 0.91181 0.3697 0.39724 0.0
C2323 C 0.91329 0.34927 0.40247 0.0
C2324 C 0.91448 0.33802 0.37005 0.0
C2325 C 0.91169 0.37038 0.46692 0.0
C2326 C 0.91261 0.36048 0.50498 0.0
C2327 C 0.91327 0.35 0.47215 0.0
C2328 C 0.91269 0.36067 0.57887 0.0
C2329 C 0.9102 0.38149 0.49891 0.0
C2330 C 0.92249 0.37187 0.61431 0.0
C2331 C 0.92246 0.3719 0.68389 0.0
C2332 C 0.91276 0.36064 0.71941 0.0
C2333 C 0.9031 0.34936 0.68366 0.0
C2334 C 0.90307 0.34939 0.61426 0.0
H2335 H 0.90572 0.3857 0.46415 0.0
H2336 H 0.9038 0.37784 0.5441 0.0
H2337 H 0.9203 0.38981 0.51353 0.0
H2338 H 0.93024 0.38056 0.5882 0.0
H2339 H 0.93012 0.38071 0.70974 0.0
H2340 H 0.67929 0.14273 0.98451 0.0
H2341 H 0.67949 0.14287 0.10565 0.0
H2342 H 0.71835 0.14547 0.10455 0.0
H2343 H 0.7184 0.14563 0.98309 0.0
H2344 H 0.68047 0.12513 0.19182 0.0
H2345 H 0.72503 0.17589 0.22934 0.0
H2346 H 0.71685 0.17028 0.14977 0.0
H2347 H 0.72835 0.165 0.17847 0.0
C2348 C 0.68795 0.14343 0.00979 0.0
C2349 C 0.69888 0.14426 0.97371 0.0
C2350 C 0.68803 0.14348 0.07923 0.0
C2351 C 0.69902 0.14439 0.11434 0.0
C2352 C 0.70989 0.14508 0.07863 0.0
H2353 H 0.71706 0.1441 0.53269 0.0
H2354 H 0.71694 0.1441 0.41149 0.0
C2355 C 0.70986 0.14509 0.00905 0.0
C2356 C 0.69889 0.14426 0.18824 0.0
H2357 H 0.71613 0.1622 0.32527 0.0
C2358 C 0.68824 0.13327 0.22101 0.0
C2359 C 0.70903 0.15487 0.22635 0.0
C2360 C 0.7204 0.16724 0.1943 0.0
C2361 C 0.68757 0.13248 0.2907 0.0
C2362 C 0.69771 0.14308 0.32881 0.0
C2363 C 0.70837 0.15407 0.29605 0.0
C2364 C 0.69757 0.14293 0.4027 0.0
C2365 C 0.67617 0.12013 0.32279 0.0
C2366 C 0.68677 0.14241 0.43832 0.0
C2367 C 0.68676 0.14236 0.5079 0.0
C2368 C 0.69763 0.14294 0.54335 0.0
C2369 C 0.70849 0.1436 0.50734 0.0
C2370 C 0.70846 0.14363 0.43787 0.0
H2371 H 0.67145 0.1115 0.28769 0.0
H2372 H 0.67972 0.11704 0.36713 0.0
H2373 H 0.66828 0.12244 0.33897 0.0
H2374 H 0.67839 0.14218 0.41232 0.0
H2375 H 0.67827 0.14194 0.53379 0.0
H2376 H 0.90933 0.5942 0.9791 0.0
H2377 H 0.90974 0.59431 0.10069 0.0
H2378 H 0.91183 0.55777 0.0997 0.0
H2379 H 0.9117 0.55768 0.97867 0.0
H2380 H 0.89232 0.57564 0.19026 0.0
H2381 H 0.94319 0.58171 0.21902 0.0
H2382 H 0.93714 0.58423 0.14067 0.0
H2383 H 0.93207 0.56747 0.16902 0.0
C2384 C 0.90992 0.5862 1.00465 0.0
C2385 C 0.91058 0.57599 0.96878 0.0
C2386 C 0.91015 0.58628 0.07424 0.0
C2387 C 0.91109 0.5762 0.10937 0.0
C2388 C 0.91147 0.56585 0.07377 0.0
H2389 H 0.9127 0.55785 0.52783 0.0
H2390 H 0.91222 0.55774 0.40626 0.0
C2391 C 0.91129 0.56578 1.00434 0.0
C2392 C 0.9114 0.57632 0.18324 0.0
H2393 H 0.92989 0.57656 0.31689 0.0
C2394 C 0.90057 0.57593 0.21796 0.0
C2395 C 0.92215 0.57663 0.2194 0.0
C2396 C 0.93435 0.57766 0.1852 0.0
C2397 C 0.90008 0.57559 0.28774 0.0
C2398 C 0.91082 0.57589 0.3239 0.0
C2399 C 0.92164 0.57628 0.28918 0.0
C2400 C 0.91111 0.57599 0.39777 0.0
C2401 C 0.88789 0.57459 0.32199 0.0
C2402 C 0.91088 0.5864 0.43346 0.0
C2403 C 0.91112 0.58649 0.50291 0.0
C2404 C 0.91173 0.57621 0.53837 0.0
C2405 C 0.9122 0.56591 0.50237 0.0
C2406 C 0.91192 0.56582 0.4328 0.0
H2407 H 0.87907 0.57064 0.28811 0.0
H2408 H 0.88506 0.56795 0.3663 0.0
H2409 H 0.89023 0.58477 0.33857 0.0
H2410 H 0.9106 0.59454 0.40758 0.0
H2411 H 0.91086 0.59465 0.52867 0.0
H2412 H 0.46147 0.33412 0.99072 0.0
H2413 H 0.46099 0.33446 0.11232 0.0
H2414 H 0.49637 0.374 0.11264 0.0
H2415 H 0.49672 0.37391 0.99154 0.0
H2416 H 0.47886 0.33646 0.20527 0.0
H2417 H 0.47152 0.38059 0.22709 0.0
H2418 H 0.46987 0.37212 0.1491 0.0
H2419 H 0.48627 0.38419 0.18027 0.0
C2420 C 0.46916 0.34289 0.01665 0.0
C2421 C 0.47907 0.35403 0.98119 0.0
C2422 C 0.46886 0.34307 0.08622 0.0
C2423 C 0.47845 0.35439 0.12173 0.0
C2424 C 0.48861 0.36532 0.08647 0.0
H2425 H 0.49613 0.37525 0.53886 0.0
H2426 H 0.4962 0.3744 0.41746 0.0
C2427 C 0.48886 0.3652 0.01705 0.0
C2428 C 0.47796 0.35471 0.1956 0.0
H2429 H 0.47685 0.37312 0.32685 0.0
C2430 C 0.47832 0.34442 0.23182 0.0
C2431 C 0.47725 0.3651 0.23039 0.0
C2432 C 0.47607 0.37605 0.19473 0.0
C2433 C 0.47831 0.34441 0.30167 0.0
C2434 C 0.47775 0.35488 0.33633 0.0
C2435 C 0.47734 0.36513 0.3002 0.0
C2436 C 0.47757 0.35537 0.4101 0.0
C2437 C 0.47921 0.33335 0.33778 0.0
C2438 C 0.46695 0.34508 0.44634 0.0
C2439 C 0.46685 0.34553 0.5158 0.0
C2440 C 0.47736 0.35634 0.55059 0.0
C2441 C 0.48788 0.36675 0.51395 0.0
C2442 C 0.48795 0.36629 0.44445 0.0
H2443 H 0.48292 0.32811 0.30487 0.0
H2444 H 0.486 0.33742 0.38145 0.0
H2445 H 0.46904 0.32578 0.35582 0.0
H2446 H 0.45869 0.33669 0.42086 0.0
H2447 H 0.45856 0.33735 0.54215 0.0
H2448 H 0.3808 0.90725 0.48007 0.0
H2449 H 0.38078 0.90734 0.60156 0.0
H2450 H 0.34233 0.90563 0.60168 0.0
H2451 H 0.34212 0.90531 0.48044 0.0
H2452 H 0.37986 0.9255 0.68888 0.0
H2453 H 0.33531 0.87466 0.7244 0.0
H2454 H 0.34375 0.88029 0.64538 0.0
H2455 H 0.3321 0.8855 0.67277 0.0
C2456 C 0.3723 0.90683 0.50582 0.0
C2457 C 0.36141 0.90618 0.47025 0.0
C2458 C 0.37232 0.9069 0.57534 0.0
C2459 C 0.36145 0.90626 0.61074 0.0
C2460 C 0.35068 0.90581 0.57547 0.0
H2461 H 0.34223 0.90626 0.02785 0.0
H2462 H 0.34271 0.90655 0.90648 0.0
C2463 C 0.35063 0.90571 0.50601 0.0
C2464 C 0.36151 0.90633 0.68453 0.0
H2465 H 0.34382 0.88839 0.82057 0.0
C2466 C 0.37202 0.91736 0.71772 0.0
C2467 C 0.35126 0.8957 0.72208 0.0
C2468 C 0.34003 0.88331 0.68945 0.0
C2469 C 0.37242 0.91818 0.78741 0.0
C2470 C 0.36215 0.90757 0.82493 0.0
C2471 C 0.35166 0.89653 0.79174 0.0
C2472 C 0.36208 0.90769 0.8987 0.0
C2473 C 0.38366 0.93056 0.82012 0.0
C2474 C 0.37276 0.9081 0.93473 0.0
C2475 C 0.37256 0.90799 1.0042 0.0
C2476 C 0.3616 0.90734 0.0391 0.0
C2477 C 0.35086 0.90683 1.00276 0.0
C2478 C 0.3511 0.90697 0.9333 0.0
H2479 H 0.38846 0.93919 0.78512 0.0
H2480 H 0.37992 0.93362 0.86393 0.0
H2481 H 0.39152 0.92831 0.83726 0.0
H2482 H 0.3812 0.90835 0.90913 0.0
H2483 H 0.38096 0.9083 0.03042 0.0
H2484 H 0.14403 0.49135 0.0288 0.0
H2485 H 0.14356 0.49126 0.9074 0.0
H2486 H 0.14772 0.45588 0.9047 0.0
H2487 H 0.14799 0.45573 0.02598 0.0
H2488 H 0.16297 0.49336 0.8192 0.0
H2489 H 0.11556 0.4448 0.78314 0.0
H2490 H 0.12037 0.45326 0.86249 0.0
H2491 H 0.12774 0.44351 0.83382 0.0
C2492 C 0.14475 0.48347 1.00252 0.0
C2493 C 0.14597 0.47349 0.03736 0.0
C2494 C 0.1445 0.48346 0.93305 0.0
C2495 C 0.14539 0.47344 0.89695 0.0
C2496 C 0.14671 0.46353 0.93149 0.0
H2497 H 0.14851 0.45671 0.47912 0.0
H2498 H 0.1483 0.45681 0.60048 0.0
C2499 C 0.14694 0.46352 1.00095 0.0
C2500 C 0.14535 0.47362 0.82317 0.0
H2501 H 0.12878 0.45491 0.68675 0.0
C2502 C 0.15545 0.48499 0.79019 0.0
C2503 C 0.13555 0.46267 0.78542 0.0
C2504 C 0.12411 0.45042 0.81792 0.0
C2505 C 0.15619 0.48561 0.72051 0.0
C2506 C 0.14641 0.47465 0.68273 0.0
C2507 C 0.13629 0.46329 0.71574 0.0
C2508 C 0.14655 0.4747 0.60891 0.0
C2509 C 0.16765 0.49786 0.68808 0.0
C2510 C 0.14544 0.48462 0.57317 0.0
C2511 C 0.14561 0.48463 0.50366 0.0
C2512 C 0.14676 0.47463 0.4684 0.0
C2513 C 0.14767 0.46459 0.50446 0.0
C2514 C 0.14753 0.46462 0.57394 0.0
H2515 H 0.17615 0.50354 0.72308 0.0
H2516 H 0.17149 0.49499 0.64394 0.0
H2517 H 0.16401 0.50472 0.67153 0.0
H2518 H 0.14437 0.49233 0.59903 0.0
H2519 H 0.14481 0.49247 0.47767 0.0
H2520 H 0.59717 0.71458 0.04176 0.0
H2521 H 0.59708 0.71434 0.92 0.0
H2522 H 0.56358 0.67365 0.92131 0.0
H2523 H 0.5635 0.67378 0.04246 0.0
H2524 H 0.59997 0.69611 0.8336 0.0
H2525 H 0.55074 0.69367 0.79813 0.0
H2526 H 0.55977 0.69856 0.87596 0.0
H2527 H 0.55033 0.68109 0.8528 0.0
C2528 C 0.58974 0.7056 0.0162 0.0
C2529 C 0.58031 0.69422 0.05208 0.0
C2530 C 0.58972 0.70548 0.94661 0.0
C2531 C 0.58019 0.69405 0.91165 0.0
C2532 C 0.57085 0.68267 0.94726 0.0
H2533 H 0.5625 0.67385 0.49232 0.0
H2534 H 0.56261 0.67367 0.61398 0.0
C2535 C 0.57089 0.68275 0.01667 0.0
C2536 C 0.58019 0.69387 0.83792 0.0
H2537 H 0.56101 0.69078 0.70208 0.0
C2538 C 0.59149 0.69501 0.80475 0.0
C2539 C 0.56907 0.69233 0.80049 0.0
C2540 C 0.55682 0.69145 0.83347 0.0
C2541 C 0.59188 0.69443 0.73511 0.0
C2542 C 0.5808 0.69301 0.69752 0.0
C2543 C 0.56949 0.69184 0.73082 0.0
C2544 C 0.58086 0.693 0.62363 0.0
C2545 C 0.60405 0.69501 0.70267 0.0
C2546 C 0.59096 0.70399 0.58853 0.0
C2547 C 0.59099 0.70408 0.51913 0.0
C2548 C 0.58079 0.69326 0.48305 0.0
C2549 C 0.57056 0.68232 0.51834 0.0
C2550 C 0.57059 0.68221 0.58794 0.0
H2551 H 0.60949 0.69189 0.73755 0.0
H2552 H 0.60116 0.68844 0.65804 0.0
H2553 H 0.61113 0.70552 0.68711 0.0
H2554 H 0.59878 0.7126 0.61482 0.0
H2555 H 0.59897 0.71275 0.49389 0.0
H2556 H 0.38393 0.47539 0.87492 0.0
H2557 H 0.38456 0.47617 0.75367 0.0
H2558 H 0.34708 0.47643 0.75077 0.0
H2559 H 0.34626 0.47555 0.87223 0.0
H2560 H 0.34828 0.45823 0.65935 0.0
H2561 H 0.39339 0.50925 0.63905 0.0
H2562 H 0.39559 0.49762 0.68994 0.0
H2563 H 0.38397 0.503 0.7153 0.0
C2564 C 0.37578 0.47559 0.84871 0.0
C2565 C 0.36506 0.47546 0.88365 0.0
C2566 C 0.37622 0.47613 0.77927 0.0
C2567 C 0.36599 0.4766 0.74319 0.0
C2568 C 0.35513 0.47618 0.77767 0.0
H2569 H 0.34785 0.47765 0.32463 0.0
H2570 H 0.34765 0.47706 0.44568 0.0
C2571 C 0.35469 0.47567 0.84718 0.0
C2572 C 0.36652 0.47733 0.66945 0.0
H2573 H 0.38509 0.49693 0.53908 0.0
C2574 C 0.35629 0.46671 0.63299 0.0
C2575 C 0.37704 0.48837 0.63517 0.0
C2576 C 0.38807 0.50028 0.67171 0.0
C2577 C 0.35639 0.4667 0.56316 0.0
C2578 C 0.36683 0.47781 0.52876 0.0
C2579 C 0.37709 0.48842 0.56533 0.0
C2580 C 0.36722 0.47868 0.45492 0.0
C2581 C 0.34547 0.45461 0.52711 0.0
C2582 C 0.37856 0.48041 0.41952 0.0
C2583 C 0.37881 0.48098 0.34996 0.0
C2584 C 0.36771 0.47983 0.31442 0.0
C2585 C 0.35652 0.47843 0.35019 0.0
C2586 C 0.35633 0.47798 0.41958 0.0
H2587 H 0.34089 0.4455 0.5592 0.0
H2588 H 0.33735 0.4567 0.5126 0.0
H2589 H 0.34942 0.45235 0.48146 0.0
H2590 H 0.38713 0.4811 0.44569 0.0
H2591 H 0.38759 0.48206 0.32411 0.0
H2592 H 0.58162 0.89238 0.86077 0.0
H2593 H 0.58156 0.89253 0.73918 0.0
H2594 H 0.575 0.92645 0.74097 0.0
H2595 H 0.57529 0.92656 0.86205 0.0
H2596 H 0.56166 0.88936 0.65235 0.0
H2597 H 0.60696 0.93965 0.61691 0.0
H2598 H 0.60275 0.93107 0.69591 0.0
H2599 H 0.59437 0.93996 0.66878 0.0
C2600 C 0.58025 0.89993 0.83541 0.0
C2601 C 0.57856 0.90952 0.87154 0.0
C2602 C 0.5802 0.89999 0.76581 0.0
C2603 C 0.57852 0.90966 0.73084 0.0
C2604 C 0.57665 0.9191 0.76672 0.0
H2605 H 0.57389 0.92613 0.31199 0.0
H2606 H 0.57372 0.92594 0.43361 0.0
C2607 C 0.57673 0.91908 0.83618 0.0
C2608 C 0.57839 0.90966 0.65693 0.0
H2609 H 0.59374 0.92925 0.52091 0.0
C2610 C 0.56873 0.89806 0.6236 0.0
C2611 C 0.58758 0.92103 0.61937 0.0
C2612 C 0.59858 0.93359 0.65197 0.0
C2613 C 0.56783 0.89759 0.55391 0.0
C2614 C 0.57702 0.90896 0.51637 0.0
C2615 C 0.58668 0.92056 0.54968 0.0
C2616 C 0.57694 0.90894 0.44248 0.0
C2617 C 0.55686 0.88501 0.52123 0.0
C2618 C 0.57898 0.89956 0.40696 0.0
C2619 C 0.57904 0.89961 0.33752 0.0
C2620 C 0.57718 0.90912 0.30184 0.0
C2621 C 0.57528 0.91861 0.33762 0.0
C2622 C 0.5752 0.91854 0.40722 0.0
H2623 H 0.54849 0.87892 0.55624 0.0
H2624 H 0.55269 0.88753 0.47728 0.0
H2625 H 0.56111 0.87868 0.50437 0.0
H2626 H 0.58067 0.89227 0.43297 0.0
H2627 H 0.58064 0.8922 0.31193 0.0
H2628 H 0.12689 0.66922 0.31154 0.0
H2629 H 0.12668 0.66959 0.43316 0.0
H2630 H 0.16217 0.70905 0.43226 0.0
H2631 H 0.16227 0.70894 0.31125 0.0
H2632 H 0.14506 0.67142 0.52269 0.0
H2633 H 0.13794 0.71557 0.55191 0.0
H2634 H 0.13587 0.70723 0.47314 0.0
H2635 H 0.15244 0.7192 0.50285 0.0
C2636 C 0.13462 0.67801 0.3372 0.0
C2637 C 0.14452 0.6891 0.30145 0.0
C2638 C 0.13448 0.6782 0.40676 0.0
C2639 C 0.14424 0.68948 0.44193 0.0
C2640 C 0.1543 0.70041 0.40635 0.0
H2641 H 0.16307 0.7087 0.86096 0.0
H2642 H 0.16323 0.70854 0.73926 0.0
C2643 C 0.15439 0.70028 0.33696 0.0
C2644 C 0.14411 0.68968 0.51579 0.0
H2645 H 0.14365 0.70784 0.64967 0.0
C2646 C 0.14466 0.67933 0.55043 0.0
C2647 C 0.14362 0.70003 0.55206 0.0
C2648 C 0.1423 0.71106 0.51812 0.0
C2649 C 0.14497 0.67918 0.62017 0.0
C2650 C 0.14457 0.68958 0.65631 0.0
C2651 C 0.14403 0.69993 0.62181 0.0
C2652 C 0.14442 0.68973 0.73003 0.0
C2653 C 0.14598 0.66803 0.65459 0.0
C2654 C 0.13368 0.67934 0.76512 0.0
C2655 C 0.13353 0.6794 0.83452 0.0
C2656 C 0.14412 0.6899 0.87046 0.0
C2657 C 0.15478 0.70043 0.83505 0.0
C2658 C 0.15489 0.70036 0.76547 0.0
H2659 H 0.14962 0.6629 0.62045 0.0
H2660 H 0.15288 0.67197 0.69791 0.0
H2661 H 0.13587 0.66039 0.67291 0.0
H2662 H 0.12536 0.67117 0.73877 0.0
H2663 H 0.12512 0.67114 0.85987 0.0
loop_
_geom_bond_atom_site_label_1
_geom_bond_atom_site_label_2
_geom_bond_distance
_geom_bond_site_symmetry_2
_ccdc_geom_bond_type
Nd0 C2 2.836 . S
Nd0 O20 2.500 . S
Nd0 O21 2.492 . S
Nd0 O22 2.487 . S
Nd0 O23 2.682 . S
Nd0 O24 2.410 . S
Nd0 O29 2.414 . S
Nd0 O31 2.424 . S
Nd1 C11 2.836 1_455 S
Nd1 O23 2.414 . S
Nd1 O25 2.424 . S
Nd1 O26 2.500 1_455 S
Nd1 O27 2.507 . S
Nd1 O28 2.487 . S
Nd1 O29 2.682 . S
Nd1 O30 2.410 . S
C2 Nd0 2.836 . S
C2 C3 1.498 . S
C2 O20 1.258 . S
C2 O21 1.239 . S
C3 C2 1.498 . S
C3 C4 1.366 . S
C3 C8 1.407 . S
C4 C3 1.366 . S
C4 C5 1.392 . S
C4 H32 0.930 . S
C5 C4 1.392 . S
C5 C6 1.398 . S
C5 H33 0.929 . S
C6 C5 1.398 . S
C6 C7 1.352 . S
C7 C6 1.352 . S
C7 C8 1.384 . S
C7 H34 0.930 . S
C8 C3 1.407 . S
C8 C7 1.384 . S
C8 H35 0.929 . S
C9 O22 1.241 . S
C9 O23 1.273 . S
C10 O24 1.251 . S
C10 O25 1.268 . S
C11 Nd1 2.836 1_655 S
C11 C12 1.498 . S
C11 O26 1.258 . S
C11 O27 1.230 1_655 S
C12 C11 1.498 . S
C12 C13 1.366 . S
C12 C17 1.407 . S
C13 C12 1.366 . S
C13 C14 1.392 . S
C13 H36 0.930 . S
C14 C13 1.392 . S
C14 C15 1.398 . S
C14 H37 0.929 . S
C15 C14 1.398 . S
C15 C16 1.352 . S
C16 C15 1.352 . S
C16 C17 1.384 . S
C16 H38 0.930 . S
C17 C12 1.407 . S
C17 C16 1.384 . S
C17 H39 0.929 . S
C18 O28 1.241 . S
C18 O29 1.273 . S
C19 O30 1.251 . S
C19 O31 1.268 . S
O20 Nd0 2.500 . S
O20 C2 1.258 . S
O21 Nd0 2.492 . S
O21 C2 1.239 . S
O22 Nd0 2.487 . S
O22 C9 1.241 . S
O23 Nd0 2.682 . S
O23 Nd1 2.414 . S
O23 C9 1.273 . S
O24 Nd0 2.410 . S
O24 C10 1.251 . S
O25 Nd1 2.424 . S
O25 C10 1.268 . S
O26 Nd1 2.500 1_655 S
O26 C11 1.258 . S
O27 Nd1 2.507 . S
O27 C11 1.230 1_455 S
O28 Nd1 2.487 . S
O28 C18 1.241 . S
O29 Nd0 2.414 . S
O29 Nd1 2.682 . S
O29 C18 1.273 . S
O30 Nd1 2.410 . S
O30 C19 1.251 . S
O31 Nd0 2.424 . S
O31 C19 1.268 . S
H32 C4 0.930 . S
H33 C5 0.929 . S
H34 C7 0.930 . S
H35 C8 0.929 . S
H36 C13 0.930 . S
H37 C14 0.929 . S
H38 C16 0.930 . S
H39 C17 0.929 . S
Nd40 C42 2.836 . S
Nd40 O60 2.500 . S
Nd40 O61 2.492 . S
Nd40 O62 2.487 . S
Nd40 O63 2.682 . S
Nd40 O64 2.410 . S
Nd40 O69 2.414 . S
Nd40 O71 2.424 . S
Nd41 C51 2.836 . S
Nd41 O63 2.414 . S
Nd41 O65 2.424 . S
Nd41 O66 2.500 . S
Nd41 O67 2.492 . S
Nd41 O68 2.487 . S
Nd41 O69 2.682 . S
Nd41 O70 2.410 . S
C42 Nd40 2.836 . S
C42 C43 1.498 . S
C42 O60 1.258 . S
C42 O61 1.239 . S
C43 C42 1.498 . S
C43 C44 1.366 . S
C43 C48 1.407 . S
C44 C43 1.366 . S
C44 C45 1.392 . S
C44 H72 0.930 . S
C45 C44 1.392 . S
C45 C46 1.398 . S
C45 H73 0.929 . S
C46 C45 1.398 . S
C46 C47 1.352 . S
C47 C46 1.352 . S
C47 C48 1.384 . S
C47 H74 0.930 . S
C48 C43 1.407 . S
C48 C47 1.384 . S
C48 H75 0.929 . S
C49 O62 1.241 . S
C49 O63 1.273 . S
C50 O64 1.251 . S
C50 O65 1.268 . S
C51 Nd41 2.836 . S
C51 C52 1.498 . S
C51 O66 1.258 . S
C51 O67 1.239 . S
C52 C51 1.498 . S
C52 C53 1.366 . S
C52 C57 1.407 . S
C53 C52 1.366 . S
C53 C54 1.392 . S
C53 H76 0.930 . S
C54 C53 1.392 . S
C54 C55 1.398 . S
C54 H77 0.929 . S
C55 C54 1.398 . S
C55 C56 1.352 . S
C56 C55 1.352 . S
C56 C57 1.384 . S
C56 H78 0.930 . S
C57 C52 1.407 . S
C57 C56 1.384 . S
C57 H79 0.929 . S
C58 O68 1.241 . S
C58 O69 1.273 . S
C59 O70 1.251 . S
C59 O71 1.268 . S
O60 Nd40 2.500 . S
O60 C42 1.258 . S
O61 Nd40 2.492 . S
O61 C42 1.239 . S
O62 Nd40 2.487 . S
O62 C49 1.241 . S
O63 Nd40 2.682 . S
O63 Nd41 2.414 . S
O63 C49 1.273 . S
O64 Nd40 2.410 . S
O64 C50 1.251 . S
O65 Nd41 2.424 . S
O65 C50 1.268 . S
O66 Nd41 2.500 . S
O66 C51 1.258 . S
O67 Nd41 2.492 . S
O67 C51 1.239 . S
O68 Nd41 2.487 . S
O68 C58 1.241 . S
O69 Nd40 2.414 . S
O69 Nd41 2.682 . S
O69 C58 1.273 . S
O70 Nd41 2.410 . S
O70 C59 1.251 . S
O71 Nd40 2.424 . S
O71 C59 1.268 . S
H72 C44 0.930 . S
H73 C45 0.929 . S
H74 C47 0.930 . S
H75 C48 0.929 . S
H76 C53 0.930 . S
H77 C54 0.929 . S
H78 C56 0.930 . S
H79 C57 0.929 . S
Nd80 C82 2.836 1_545 S
Nd80 O100 2.500 1_545 S
Nd80 O101 2.492 1_545 S
Nd80 O102 2.487 . S
Nd80 O103 2.682 . S
Nd80 O104 2.410 . S
Nd80 O109 2.414 . S
Nd80 O111 2.424 . S
Nd81 C91 2.836 . S
Nd81 O103 2.414 . S
Nd81 O105 2.424 . S
Nd81 O106 2.500 . S
Nd81 O107 2.492 . S
Nd81 O108 2.487 . S
Nd81 O109 2.682 . S
Nd81 O110 2.410 . S
C82 Nd80 2.836 1_565 S
C82 C83 1.498 . S
C82 O100 1.258 . S
C82 O101 1.239 . S
C83 C82 1.498 . S
C83 C84 1.366 . S
C83 C88 1.407 . S
C84 C83 1.366 . S
C84 C85 1.392 . S
C84 H112 0.930 . S
C85 C84 1.392 . S
C85 C86 1.398 . S
C85 H113 0.929 . S
C86 C85 1.398 . S
C86 C87 1.352 . S
C87 C86 1.352 . S
C87 C88 1.384 . S
C87 H114 0.930 . S
C88 C83 1.407 . S
C88 C87 1.384 . S
C88 H115 0.929 . S
C89 O102 1.241 . S
C89 O103 1.273 . S
C90 O104 1.251 . S
C90 O105 1.268 . S
C91 Nd81 2.836 . S
C91 C92 1.498 . S
C91 O106 1.258 . S
C91 O107 1.239 . S
C92 C91 1.498 . S
C92 C93 1.366 . S
C92 C97 1.407 . S
C93 C92 1.366 . S
C93 C94 1.392 . S
C93 H116 0.930 . S
C94 C93 1.392 . S
C94 C95 1.398 . S
C94 H117 0.929 . S
C95 C94 1.398 . S
C95 C96 1.352 . S
C96 C95 1.352 . S
C96 C97 1.384 . S
C96 H118 0.930 . S
C97 C92 1.407 . S
C97 C96 1.384 . S
C97 H119 0.929 . S
C98 O108 1.232 1_565 S
C98 O109 1.246 1_565 S
C99 O110 1.251 . S
C99 O111 1.268 . S
O100 Nd80 2.500 1_565 S
O100 C82 1.258 . S
O101 Nd80 2.492 1_565 S
O101 C82 1.239 . S
O102 Nd80 2.487 . S
O102 C89 1.241 . S
O103 Nd80 2.682 . S
O103 Nd81 2.414 . S
O103 C89 1.273 . S
O104 Nd80 2.410 . S
O104 C90 1.251 . S
O105 Nd81 2.424 . S
O105 C90 1.268 . S
O106 Nd81 2.500 . S
O106 C91 1.258 . S
O107 Nd81 2.492 . S
O107 C91 1.239 . S
O108 Nd81 2.487 . S
O108 C98 1.232 1_545 S
O109 Nd80 2.414 . S
O109 Nd81 2.682 . S
O109 C98 1.246 1_545 S
O110 Nd81 2.410 . S
O110 C99 1.251 . S
O111 Nd80 2.424 . S
O111 C99 1.268 . S
H112 C84 0.930 . S
H113 C85 0.929 . S
H114 C87 0.930 . S
H115 C88 0.929 . S
H116 C93 0.930 . S
H117 C94 0.929 . S
H118 C96 0.930 . S
H119 C97 0.929 . S
Nd120 C122 2.836 . S
Nd120 O140 2.500 . S
Nd120 O141 2.492 . S
Nd120 O142 2.487 . S
Nd120 O143 2.682 . S
Nd120 O144 2.410 . S
Nd120 O149 2.414 . S
Nd120 O151 2.424 . S
Nd121 C131 2.836 1_455 S
Nd121 O143 2.414 . S
Nd121 O145 2.424 . S
Nd121 O146 2.500 1_455 S
Nd121 O147 2.492 1_455 S
Nd121 O148 2.487 . S
Nd121 O149 2.682 . S
Nd121 O150 2.410 . S
C122 Nd120 2.836 . S
C122 C123 1.498 . S
C122 O140 1.258 . S
C122 O141 1.239 . S
C123 C122 1.498 . S
C123 C124 1.366 . S
C123 C128 1.407 . S
C124 C123 1.366 . S
C124 C125 1.392 . S
C124 H152 0.930 . S
C125 C124 1.392 . S
C125 C126 1.398 . S
C125 H153 0.929 . S
C126 C125 1.398 . S
C126 C127 1.352 . S
C127 C126 1.352 . S
C127 C128 1.384 . S
C127 H154 0.930 . S
C128 C123 1.407 . S
C128 C127 1.384 . S
C128 H155 0.929 . S
C129 O142 1.250 . S
C129 O143 1.271 . S
C130 O144 1.251 . S
C130 O145 1.268 . S
C131 Nd121 2.836 1_655 S
C131 C132 1.498 . S
C131 O146 1.258 . S
C131 O147 1.239 . S
C132 C131 1.498 . S
C132 C133 1.366 . S
C132 C137 1.407 . S
C133 C132 1.366 . S
C133 C134 1.392 . S
C133 H156 0.930 . S
C134 C133 1.392 . S
C134 C135 1.398 . S
C134 H157 0.929 . S
C135 C134 1.398 . S
C135 C136 1.352 . S
C136 C135 1.352 . S
C136 C137 1.384 . S
C136 H158 0.930 . S
C137 C132 1.407 . S
C137 C136 1.384 . S
C137 H159 0.929 . S
C138 O148 1.241 . S
C138 O149 1.273 . S
C139 O150 1.251 . S
C139 O151 1.268 . S
O140 Nd120 2.500 . S
O140 C122 1.258 . S
O141 Nd120 2.492 . S
O141 C122 1.239 . S
O142 Nd120 2.487 . S
O142 C129 1.250 . S
O143 Nd120 2.682 . S
O143 Nd121 2.414 . S
O143 C129 1.271 . S
O144 Nd120 2.410 . S
O144 C130 1.251 . S
O145 Nd121 2.424 . S
O145 C130 1.268 . S
O146 Nd121 2.500 1_655 S
O146 C131 1.258 . S
O147 Nd121 2.492 1_655 S
O147 C131 1.239 . S
O148 Nd121 2.487 . S
O148 C138 1.241 . S
O149 Nd120 2.414 . S
O149 Nd121 2.682 . S
O149 C138 1.273 . S
O150 Nd121 2.410 . S
O150 C139 1.251 . S
O151 Nd120 2.424 . S
O151 C139 1.268 . S
H152 C124 0.930 . S
H153 C125 0.929 . S
H154 C127 0.930 . S
H155 C128 0.929 . S
H156 C133 0.930 . S
H157 C134 0.929 . S
H158 C136 0.930 . S
H159 C137 0.929 . S
Nd160 C162 2.836 . S
Nd160 O180 2.500 . S
Nd160 O181 2.492 . S
Nd160 O182 2.487 . S
Nd160 O183 2.682 . S
Nd160 O184 2.410 . S
Nd160 O189 2.414 . S
Nd160 O191 2.424 . S
Nd161 C171 2.836 . S
Nd161 O183 2.414 . S
Nd161 O185 2.424 . S
Nd161 O186 2.500 . S
Nd161 O187 2.492 . S
Nd161 O188 2.487 . S
Nd161 O189 2.682 . S
Nd161 O190 2.410 . S
C162 Nd160 2.836 . S
C162 C163 1.498 . S
C162 O180 1.258 . S
C162 O181 1.239 . S
C163 C162 1.498 . S
C163 C164 1.366 . S
C163 C168 1.407 . S
C164 C163 1.366 . S
C164 C165 1.392 . S
C164 H192 0.930 . S
C165 C164 1.392 . S
C165 C166 1.398 . S
C165 H193 0.929 . S
C166 C165 1.398 . S
C166 C167 1.352 . S
C167 C166 1.352 . S
C167 C168 1.384 . S
C167 H194 0.930 . S
C168 C163 1.407 . S
C168 C167 1.384 . S
C168 H195 0.929 . S
C169 O182 1.241 . S
C169 O183 1.273 . S
C170 O184 1.251 . S
C170 O185 1.268 . S
C171 Nd161 2.836 . S
C171 C172 1.498 . S
C171 O186 1.258 . S
C171 O187 1.239 . S
C172 C171 1.498 . S
C172 C173 1.366 . S
C172 C177 1.407 . S
C173 C172 1.366 . S
C173 C174 1.392 . S
C173 H196 0.930 . S
C174 C173 1.392 . S
C174 C175 1.398 . S
C174 H197 0.929 . S
C175 C174 1.398 . S
C175 C176 1.352 . S
C176 C175 1.352 . S
C176 C177 1.384 . S
C176 H198 0.930 . S
C177 C172 1.407 . S
C177 C176 1.384 . S
C177 H199 0.929 . S
C178 O188 1.241 . S
C178 O189 1.273 . S
C179 O190 1.251 . S
C179 O191 1.268 . S
O180 Nd160 2.500 . S
O180 C162 1.258 . S
O181 Nd160 2.492 . S
O181 C162 1.239 . S
O182 Nd160 2.487 . S
O182 C169 1.241 . S
O183 Nd160 2.682 . S
O183 Nd161 2.414 . S
O183 C169 1.273 . S
O184 Nd160 2.410 . S
O184 C170 1.251 . S
O185 Nd161 2.424 . S
O185 C170 1.268 . S
O186 Nd161 2.500 . S
O186 C171 1.258 . S
O187 Nd161 2.492 . S
O187 C171 1.239 . S
O188 Nd161 2.487 . S
O188 C178 1.241 . S
O189 Nd160 2.414 . S
O189 Nd161 2.682 . S
O189 C178 1.273 . S
O190 Nd161 2.410 . S
O190 C179 1.251 . S
O191 Nd160 2.424 . S
O191 C179 1.268 . S
H192 C164 0.930 . S
H193 C165 0.929 . S
H194 C167 0.930 . S
H195 C168 0.929 . S
H196 C173 0.930 . S
H197 C174 0.929 . S
H198 C176 0.930 . S
H199 C177 0.929 . S
Nd200 C202 2.836 1_545 S
Nd200 O220 2.500 1_545 S
Nd200 O221 2.495 1_545 S
Nd200 O222 2.487 . S
Nd200 O223 2.682 . S
Nd200 O224 2.410 . S
Nd200 O229 2.414 . S
Nd200 O231 2.424 . S
Nd201 C211 2.836 . S
Nd201 O223 2.414 . S
Nd201 O225 2.424 . S
Nd201 O226 2.500 . S
Nd201 O227 2.492 . S
Nd201 O228 2.487 . S
Nd201 O229 2.682 . S
Nd201 O230 2.410 . S
C202 Nd200 2.836 1_565 S
C202 C203 1.498 . S
C202 O220 1.258 . S
C202 O221 1.262 . S
C203 C202 1.498 . S
C203 C204 1.366 . S
C203 C208 1.407 . S
C204 C203 1.366 . S
C204 C205 1.392 . S
C204 H232 0.930 . S
C205 C204 1.392 . S
C205 C206 1.398 . S
C205 H233 0.929 . S
C206 C205 1.398 . S
C206 C207 1.352 . S
C207 C206 1.352 . S
C207 C208 1.384 . S
C207 H234 0.930 . S
C208 C203 1.407 . S
C208 C207 1.384 . S
C208 H235 0.929 . S
C209 O222 1.241 . S
C209 O223 1.273 . S
C210 O224 1.251 . S
C210 O225 1.268 . S
C211 Nd201 2.836 . S
C211 C212 1.498 . S
C211 O226 1.258 . S
C211 O227 1.239 . S
C212 C211 1.498 . S
C212 C213 1.366 . S
C212 C217 1.407 . S
C213 C212 1.366 . S
C213 C214 1.392 . S
C213 H236 0.930 . S
C214 C213 1.392 . S
C214 C215 1.398 . S
C214 H237 0.929 . S
C215 C214 1.398 . S
C215 C216 1.352 . S
C216 C215 1.352 . S
C216 C217 1.384 . S
C216 H238 0.930 . S
C217 C212 1.407 . S
C217 C216 1.384 . S
C217 H239 0.929 . S
C218 O228 1.241 . S
C218 O229 1.273 . S
C219 O230 1.251 . S
C219 O231 1.268 . S
O220 Nd200 2.500 1_565 S
O220 C202 1.258 . S
O221 Nd200 2.495 1_565 S
O221 C202 1.262 . S
O222 Nd200 2.487 . S
O222 C209 1.241 . S
O223 Nd200 2.682 . S
O223 Nd201 2.414 . S
O223 C209 1.273 . S
O224 Nd200 2.410 . S
O224 C210 1.251 . S
O225 Nd201 2.424 . S
O225 C210 1.268 . S
O226 Nd201 2.500 . S
O226 C211 1.258 . S
O227 Nd201 2.492 . S
O227 C211 1.239 . S
O228 Nd201 2.487 . S
O228 C218 1.241 . S
O229 Nd200 2.414 . S
O229 Nd201 2.682 . S
O229 C218 1.273 . S
O230 Nd201 2.410 . S
O230 C219 1.251 . S
O231 Nd200 2.424 . S
O231 C219 1.268 . S
H232 C204 0.930 . S
H233 C205 0.929 . S
H234 C207 0.930 . S
H235 C208 0.929 . S
H236 C213 0.930 . S
H237 C214 0.929 . S
H238 C216 0.930 . S
H239 C217 0.929 . S
Nd240 C242 2.836 1_554 S
Nd240 O260 2.500 1_554 S
Nd240 O261 2.492 1_554 S
Nd240 O262 2.487 . S
Nd240 O263 2.682 . S
Nd240 O264 2.410 1_554 S
Nd240 O269 2.414 1_554 S
Nd240 O271 2.424 . S
Nd241 C251 2.836 1_556 S
Nd241 O263 2.414 1_556 S
Nd241 O265 2.424 . S
Nd241 O266 2.500 1_556 S
Nd241 O267 2.492 1_556 S
Nd241 O268 2.487 . S
Nd241 O269 2.682 . S
Nd241 O270 2.410 1_556 S
C242 Nd240 2.836 1_556 S
C242 C243 1.498 . S
C242 O260 1.258 . S
C242 O261 1.239 . S
C243 C242 1.498 . S
C243 C244 1.366 . S
C243 C248 1.407 . S
C244 C243 1.366 . S
C244 C245 1.392 . S
C244 H272 0.930 . S
C245 C244 1.392 . S
C245 C246 1.398 . S
C245 H273 0.929 . S
C246 C245 1.398 . S
C246 C247 1.352 . S
C247 C246 1.352 . S
C247 C248 1.384 . S
C247 H274 0.930 . S
C248 C243 1.407 . S
C248 C247 1.384 . S
C248 H275 0.929 . S
C249 O262 1.241 . S
C249 O263 1.273 . S
C250 O264 1.251 . S
C250 O265 1.268 . S
C251 Nd241 2.836 1_554 S
C251 C252 1.498 . S
C251 O266 1.258 . S
C251 O267 1.239 . S
C252 C251 1.498 . S
C252 C253 1.366 . S
C252 C257 1.407 . S
C253 C252 1.366 . S
C253 C254 1.392 . S
C253 H276 0.930 . S
C254 C253 1.392 . S
C254 C255 1.398 . S
C254 H277 0.929 . S
C255 C254 1.398 . S
C255 C256 1.352 . S
C256 C255 1.352 . S
C256 C257 1.384 . S
C256 H278 0.930 . S
C257 C252 1.407 . S
C257 C256 1.384 . S
C257 H279 0.929 . S
C258 O268 1.241 . S
C258 O269 1.273 . S
C259 O270 1.251 . S
C259 O271 1.268 . S
O260 Nd240 2.500 1_556 S
O260 C242 1.258 . S
O261 Nd240 2.492 1_556 S
O261 C242 1.239 . S
O262 Nd240 2.487 . S
O262 C249 1.241 . S
O263 Nd240 2.682 . S
O263 Nd241 2.414 1_554 S
O263 C249 1.273 . S
O264 Nd240 2.410 1_556 S
O264 C250 1.251 . S
O265 Nd241 2.424 . S
O265 C250 1.268 . S
O266 Nd241 2.500 1_554 S
O266 C251 1.258 . S
O267 Nd241 2.492 1_554 S
O267 C251 1.239 . S
O268 Nd241 2.487 . S
O268 C258 1.241 . S
O269 Nd240 2.414 1_556 S
O269 Nd241 2.682 . S
O269 C258 1.273 . S
O270 Nd241 2.410 1_554 S
O270 C259 1.251 . S
O271 Nd240 2.424 . S
O271 C259 1.268 . S
H272 C244 0.930 . S
H273 C245 0.929 . S
H274 C247 0.930 . S
H275 C248 0.929 . S
H276 C253 0.930 . S
H277 C254 0.929 . S
H278 C256 0.930 . S
H279 C257 0.929 . S
Nd280 C282 2.836 1_554 S
Nd280 O300 2.500 1_554 S
Nd280 O301 2.492 1_554 S
Nd280 O302 2.487 . S
Nd280 O303 2.682 . S
Nd280 O304 2.410 1_554 S
Nd280 O309 2.414 1_554 S
Nd280 O311 2.424 . S
Nd281 C291 2.836 1_556 S
Nd281 O303 2.414 1_556 S
Nd281 O305 2.424 . S
Nd281 O306 2.500 1_556 S
Nd281 O307 2.492 1_556 S
Nd281 O308 2.487 . S
Nd281 O309 2.682 . S
Nd281 O310 2.410 1_556 S
C282 Nd280 2.836 1_556 S
C282 C283 1.498 . S
C282 O300 1.258 . S
C282 O301 1.239 . S
C283 C282 1.498 . S
C283 C284 1.366 . S
C283 C288 1.407 . S
C284 C283 1.366 . S
C284 C285 1.392 . S
C284 H312 0.930 . S
C285 C284 1.392 . S
C285 C286 1.398 . S
C285 H313 0.929 . S
C286 C285 1.398 . S
C286 C287 1.352 . S
C287 C286 1.352 . S
C287 C288 1.384 . S
C287 H314 0.930 . S
C288 C283 1.407 . S
C288 C287 1.384 . S
C288 H315 0.929 . S
C289 O302 1.241 . S
C289 O303 1.273 . S
C290 O304 1.251 . S
C290 O305 1.268 . S
C291 Nd281 2.836 1_554 S
C291 C292 1.498 . S
C291 O306 1.258 . S
C291 O307 1.239 . S
C292 C291 1.498 . S
C292 C293 1.366 . S
C292 C297 1.407 . S
C293 C292 1.366 . S
C293 C294 1.392 . S
C293 H316 0.930 . S
C294 C293 1.392 . S
C294 C295 1.398 . S
C294 H317 0.929 . S
C295 C294 1.398 . S
C295 C296 1.352 . S
C296 C295 1.352 . S
C296 C297 1.384 . S
C296 H318 0.930 . S
C297 C292 1.407 . S
C297 C296 1.384 . S
C297 H319 0.929 . S
C298 O308 1.241 . S
C298 O309 1.273 . S
C299 O310 1.251 . S
C299 O311 1.268 . S
O300 Nd280 2.500 1_556 S
O300 C282 1.258 . S
O301 Nd280 2.492 1_556 S
O301 C282 1.239 . S
O302 Nd280 2.487 . S
O302 C289 1.241 . S
O303 Nd280 2.682 . S
O303 Nd281 2.414 1_554 S
O303 C289 1.273 . S
O304 Nd280 2.410 1_556 S
O304 C290 1.251 . S
O305 Nd281 2.424 . S
O305 C290 1.268 . S
O306 Nd281 2.500 1_554 S
O306 C291 1.258 . S
O307 Nd281 2.492 1_554 S
O307 C291 1.239 . S
O308 Nd281 2.487 . S
O308 C298 1.241 . S
O309 Nd280 2.414 1_556 S
O309 Nd281 2.682 . S
O309 C298 1.273 . S
O310 Nd281 2.410 1_554 S
O310 C299 1.251 . S
O311 Nd280 2.424 . S
O311 C299 1.268 . S
H312 C284 0.930 . S
H313 C285 0.929 . S
H314 C287 0.930 . S
H315 C288 0.929 . S
H316 C293 0.930 . S
H317 C294 0.929 . S
H318 C296 0.930 . S
H319 C297 0.929 . S
Nd320 C322 2.836 1_554 S
Nd320 O340 2.500 1_554 S
Nd320 O341 2.492 1_554 S
Nd320 O342 2.487 . S
Nd320 O343 2.682 . S
Nd320 O344 2.410 1_554 S
Nd320 O349 2.414 1_554 S
Nd320 O351 2.424 . S
Nd321 C331 2.836 1_556 S
Nd321 O343 2.414 1_556 S
Nd321 O345 2.424 . S
Nd321 O346 2.500 1_556 S
Nd321 O347 2.492 1_556 S
Nd321 O348 2.487 . S
Nd321 O349 2.682 . S
Nd321 O350 2.410 1_556 S
C322 Nd320 2.836 1_556 S
C322 C323 1.498 . S
C322 O340 1.258 . S
C322 O341 1.239 . S
C323 C322 1.498 . S
C323 C324 1.366 . S
C323 C328 1.407 . S
C324 C323 1.366 . S
C324 C325 1.392 . S
C324 H352 0.930 . S
C325 C324 1.392 . S
C325 C326 1.398 . S
C325 H353 0.929 . S
C326 C325 1.398 . S
C326 C327 1.352 . S
C327 C326 1.352 . S
C327 C328 1.384 . S
C327 H354 0.930 . S
C328 C323 1.407 . S
C328 C327 1.384 . S
C328 H355 0.929 . S
C329 O342 1.241 . S
C329 O343 1.273 . S
C330 O344 1.251 . S
C330 O345 1.268 . S
C331 Nd321 2.836 1_554 S
C331 C332 1.498 . S
C331 O346 1.258 . S
C331 O347 1.239 . S
C332 C331 1.498 . S
C332 C333 1.366 . S
C332 C337 1.407 . S
C333 C332 1.366 . S
C333 C334 1.392 . S
C333 H356 0.930 . S
C334 C333 1.392 . S
C334 C335 1.398 . S
C334 H357 0.929 . S
C335 C334 1.398 . S
C335 C336 1.352 . S
C336 C335 1.352 . S
C336 C337 1.384 . S
C336 H358 0.930 . S
C337 C332 1.407 . S
C337 C336 1.384 . S
C337 H359 0.929 . S
C338 O348 1.241 . S
C338 O349 1.273 . S
C339 O350 1.251 . S
C339 O351 1.268 . S
O340 Nd320 2.500 1_556 S
O340 C322 1.258 . S
O341 Nd320 2.492 1_556 S
O341 C322 1.239 . S
O342 Nd320 2.487 . S
O342 C329 1.241 . S
O343 Nd320 2.682 . S
O343 Nd321 2.414 1_554 S
O343 C329 1.273 . S
O344 Nd320 2.410 1_556 S
O344 C330 1.251 . S
O345 Nd321 2.424 . S
O345 C330 1.268 . S
O346 Nd321 2.500 1_554 S
O346 C331 1.258 . S
O347 Nd321 2.492 1_554 S
O347 C331 1.239 . S
O348 Nd321 2.487 . S
O348 C338 1.241 . S
O349 Nd320 2.414 1_556 S
O349 Nd321 2.682 . S
O349 C338 1.273 . S
O350 Nd321 2.410 1_554 S
O350 C339 1.251 . S
O351 Nd320 2.424 . S
O351 C339 1.268 . S
H352 C324 0.930 . S
H353 C325 0.929 . S
H354 C327 0.930 . S
H355 C328 0.929 . S
H356 C333 0.930 . S
H357 C334 0.929 . S
H358 C336 0.930 . S
H359 C337 0.929 . S
Nd360 C362 2.836 . S
Nd360 O380 2.500 . S
Nd360 O381 2.492 . S
Nd360 O382 2.487 . S
Nd360 O383 2.682 . S
Nd360 O384 2.410 . S
Nd360 O389 2.414 . S
Nd360 O391 2.424 . S
Nd361 C371 2.836 . S
Nd361 O383 2.414 . S
Nd361 O385 2.424 . S
Nd361 O386 2.500 . S
Nd361 O387 2.492 . S
Nd361 O388 2.487 . S
Nd361 O389 2.682 . S
Nd361 O390 2.410 . S
C362 Nd360 2.836 . S
C362 C363 1.498 . S
C362 O380 1.258 . S
C362 O381 1.239 . S
C363 C362 1.498 . S
C363 C364 1.366 . S
C363 C368 1.407 . S
C364 C363 1.366 . S
C364 C365 1.392 . S
C364 H392 0.930 . S
C365 C364 1.392 . S
C365 C366 1.398 . S
C365 H393 0.929 . S
C366 C365 1.398 . S
C366 C367 1.352 . S
C367 C366 1.352 . S
C367 C368 1.384 . S
C367 H394 0.930 . S
C368 C363 1.407 . S
C368 C367 1.384 . S
C368 H395 0.929 . S
C369 O382 1.241 . S
C369 O383 1.273 . S
C370 O384 1.251 . S
C370 O385 1.268 . S
C371 Nd361 2.836 . S
C371 C372 1.498 . S
C371 O386 1.258 . S
C371 O387 1.239 . S
C372 C371 1.498 . S
C372 C373 1.366 . S
C372 C377 1.407 . S
C373 C372 1.366 . S
C373 C374 1.392 . S
C373 H396 0.930 . S
C374 C373 1.392 . S
C374 C375 1.398 . S
C374 H397 0.929 . S
C375 C374 1.398 . S
C375 C376 1.352 . S
C376 C375 1.352 . S
C376 C377 1.384 . S
C376 H398 0.930 . S
C377 C372 1.407 . S
C377 C376 1.384 . S
C377 H399 0.929 . S
C378 O388 1.241 . S
C378 O389 1.273 . S
C379 O390 1.251 . S
C379 O391 1.268 . S
O380 Nd360 2.500 . S
O380 C362 1.258 . S
O381 Nd360 2.492 . S
O381 C362 1.239 . S
O382 Nd360 2.487 . S
O382 C369 1.241 . S
O383 Nd360 2.682 . S
O383 Nd361 2.414 . S
O383 C369 1.273 . S
O384 Nd360 2.410 . S
O384 C370 1.251 . S
O385 Nd361 2.424 . S
O385 C370 1.268 . S
O386 Nd361 2.500 . S
O386 C371 1.258 . S
O387 Nd361 2.492 . S
O387 C371 1.239 . S
O388 Nd361 2.487 . S
O388 C378 1.241 . S
O389 Nd360 2.414 . S
O389 Nd361 2.682 . S
O389 C378 1.273 . S
O390 Nd361 2.410 . S
O390 C379 1.251 . S
O391 Nd360 2.424 . S
O391 C379 1.268 . S
H392 C364 0.930 . S
H393 C365 0.929 . S
H394 C367 0.930 . S
H395 C368 0.929 . S
H396 C373 0.930 . S
H397 C374 0.929 . S
H398 C376 0.930 . S
H399 C377 0.929 . S
Nd400 C402 2.836 . S
Nd400 O420 2.500 . S
Nd400 O421 2.492 . S
Nd400 O422 2.487 . S
Nd400 O423 2.682 . S
Nd400 O424 2.410 . S
Nd400 O429 2.414 . S
Nd400 O431 2.424 . S
Nd401 C411 2.836 . S
Nd401 O423 2.414 . S
Nd401 O425 2.424 . S
Nd401 O426 2.500 . S
Nd401 O427 2.492 . S
Nd401 O428 2.487 . S
Nd401 O429 2.682 . S
Nd401 O430 2.410 . S
C402 Nd400 2.836 . S
C402 C403 1.498 . S
C402 O420 1.258 . S
C402 O421 1.239 . S
C403 C402 1.498 . S
C403 C404 1.366 . S
C403 C408 1.407 . S
C404 C403 1.366 . S
C404 C405 1.392 . S
C404 H432 0.930 . S
C405 C404 1.392 . S
C405 C406 1.398 . S
C405 H433 0.929 . S
C406 C405 1.398 . S
C406 C407 1.352 . S
C407 C406 1.352 . S
C407 C408 1.384 . S
C407 H434 0.930 . S
C408 C403 1.407 . S
C408 C407 1.384 . S
C408 H435 0.929 . S
C409 O422 1.241 . S
C409 O423 1.273 . S
C410 O424 1.251 . S
C410 O425 1.268 . S
C411 Nd401 2.836 . S
C411 C412 1.498 . S
C411 O426 1.258 . S
C411 O427 1.239 . S
C412 C411 1.498 . S
C412 C413 1.366 . S
C412 C417 1.407 . S
C413 C412 1.366 . S
C413 C414 1.392 . S
C413 H436 0.930 . S
C414 C413 1.392 . S
C414 C415 1.398 . S
C414 H437 0.929 . S
C415 C414 1.398 . S
C415 C416 1.352 . S
C416 C415 1.352 . S
C416 C417 1.384 . S
C416 H438 0.930 . S
C417 C412 1.407 . S
C417 C416 1.384 . S
C417 H439 0.929 . S
C418 O428 1.241 . S
C418 O429 1.273 . S
C419 O430 1.251 . S
C419 O431 1.268 . S
O420 Nd400 2.500 . S
O420 C402 1.258 . S
O421 Nd400 2.492 . S
O421 C402 1.239 . S
O422 Nd400 2.487 . S
O422 C409 1.241 . S
O423 Nd400 2.682 . S
O423 Nd401 2.414 . S
O423 C409 1.273 . S
O424 Nd400 2.410 . S
O424 C410 1.251 . S
O425 Nd401 2.424 . S
O425 C410 1.268 . S
O426 Nd401 2.500 . S
O426 C411 1.258 . S
O427 Nd401 2.492 . S
O427 C411 1.239 . S
O428 Nd401 2.487 . S
O428 C418 1.241 . S
O429 Nd400 2.414 . S
O429 Nd401 2.682 . S
O429 C418 1.273 . S
O430 Nd401 2.410 . S
O430 C419 1.251 . S
O431 Nd400 2.424 . S
O431 C419 1.268 . S
H432 C404 0.930 . S
H433 C405 0.929 . S
H434 C407 0.930 . S
H435 C408 0.929 . S
H436 C413 0.930 . S
H437 C414 0.929 . S
H438 C416 0.930 . S
H439 C417 0.929 . S
Nd440 C442 2.836 . S
Nd440 O460 2.500 . S
Nd440 O461 2.492 . S
Nd440 O462 2.487 . S
Nd440 O463 2.682 . S
Nd440 O464 2.410 . S
Nd440 O469 2.414 . S
Nd440 O471 2.424 . S
Nd441 C451 2.836 . S
Nd441 O463 2.414 . S
Nd441 O465 2.424 . S
Nd441 O466 2.500 . S
Nd441 O467 2.492 . S
Nd441 O468 2.487 . S
Nd441 O469 2.682 . S
Nd441 O470 2.410 . S
C442 Nd440 2.836 . S
C442 C443 1.498 . S
C442 O460 1.258 . S
C442 O461 1.239 . S
C443 C442 1.498 . S
C443 C444 1.366 . S
C443 C448 1.407 . S
C444 C443 1.366 . S
C444 C445 1.392 . S
C444 H472 0.930 . S
C445 C444 1.392 . S
C445 C446 1.398 . S
C445 H473 0.929 . S
C446 C445 1.398 . S
C446 C447 1.352 . S
C447 C446 1.352 . S
C447 C448 1.384 . S
C447 H474 0.930 . S
C448 C443 1.407 . S
C448 C447 1.384 . S
C448 H475 0.929 . S
C449 O462 1.241 . S
C449 O463 1.273 . S
C450 O464 1.251 . S
C450 O465 1.268 . S
C451 Nd441 2.836 . S
C451 C452 1.498 . S
C451 O466 1.258 . S
C451 O467 1.239 . S
C452 C451 1.498 . S
C452 C453 1.366 . S
C452 C457 1.407 . S
C453 C452 1.366 . S
C453 C454 1.392 . S
C453 H476 0.930 . S
C454 C453 1.392 . S
C454 C455 1.398 . S
C454 H477 0.929 . S
C455 C454 1.398 . S
C455 C456 1.352 . S
C456 C455 1.352 . S
C456 C457 1.384 . S
C456 H478 0.930 . S
C457 C452 1.407 . S
C457 C456 1.384 . S
C457 H479 0.929 . S
C458 O468 1.241 . S
C458 O469 1.273 . S
C459 O470 1.251 . S
C459 O471 1.268 . S
O460 Nd440 2.500 . S
O460 C442 1.258 . S
O461 Nd440 2.492 . S
O461 C442 1.239 . S
O462 Nd440 2.487 . S
O462 C449 1.241 . S
O463 Nd440 2.682 . S
O463 Nd441 2.414 . S
O463 C449 1.273 . S
O464 Nd440 2.410 . S
O464 C450 1.251 . S
O465 Nd441 2.424 . S
O465 C450 1.268 . S
O466 Nd441 2.500 . S
O466 C451 1.258 . S
O467 Nd441 2.492 . S
O467 C451 1.239 . S
O468 Nd441 2.487 . S
O468 C458 1.241 . S
O469 Nd440 2.414 . S
O469 Nd441 2.682 . S
O469 C458 1.273 . S
O470 Nd441 2.410 . S
O470 C459 1.251 . S
O471 Nd440 2.424 . S
O471 C459 1.268 . S
H472 C444 0.930 . S
H473 C445 0.929 . S
H474 C447 0.930 . S
H475 C448 0.929 . S
H476 C453 0.930 . S
H477 C454 0.929 . S
H478 C456 0.930 . S
H479 C457 0.929 . S
Nd480 C482 2.836 . S
Nd480 O500 2.500 . S
Nd480 O501 2.492 . S
Nd480 O502 2.487 . S
Nd480 O503 2.682 . S
Nd480 O504 2.410 . S
Nd480 O509 2.414 . S
Nd480 O511 2.424 . S
Nd481 C491 2.836 . S
Nd481 O503 2.414 . S
Nd481 O505 2.424 . S
Nd481 O506 2.500 . S
Nd481 O507 2.492 . S
Nd481 O508 2.487 . S
Nd481 O509 2.682 . S
Nd481 O510 2.410 . S
C482 Nd480 2.836 . S
C482 C483 1.498 . S
C482 O500 1.258 . S
C482 O501 1.239 . S
C483 C482 1.498 . S
C483 C484 1.366 . S
C483 C488 1.407 . S
C484 C483 1.366 . S
C484 C485 1.392 . S
C484 H512 0.930 . S
C485 C484 1.392 . S
C485 C486 1.398 . S
C485 H513 0.929 . S
C486 C485 1.398 . S
C486 C487 1.352 . S
C487 C486 1.352 . S
C487 C488 1.384 . S
C487 H514 0.930 . S
C488 C483 1.407 . S
C488 C487 1.384 . S
C488 H515 0.929 . S
C489 O502 1.241 . S
C489 O503 1.273 . S
C490 O504 1.251 . S
C490 O505 1.268 . S
C491 Nd481 2.836 . S
C491 C492 1.498 . S
C491 O506 1.258 . S
C491 O507 1.239 . S
C492 C491 1.498 . S
C492 C493 1.366 . S
C492 C497 1.407 . S
C493 C492 1.366 . S
C493 C494 1.392 . S
C493 H516 0.930 . S
C494 C493 1.392 . S
C494 C495 1.398 . S
C494 H517 0.929 . S
C495 C494 1.398 . S
C495 C496 1.352 . S
C496 C495 1.352 . S
C496 C497 1.384 . S
C496 H518 0.930 . S
C497 C492 1.407 . S
C497 C496 1.384 . S
C497 H519 0.929 . S
C498 O508 1.241 . S
C498 O509 1.273 . S
C499 O510 1.251 . S
C499 O511 1.268 . S
O500 Nd480 2.500 . S
O500 C482 1.258 . S
O501 Nd480 2.492 . S
O501 C482 1.239 . S
O502 Nd480 2.487 . S
O502 C489 1.241 . S
O503 Nd480 2.682 . S
O503 Nd481 2.414 . S
O503 C489 1.273 . S
O504 Nd480 2.410 . S
O504 C490 1.251 . S
O505 Nd481 2.424 . S
O505 C490 1.268 . S
O506 Nd481 2.500 . S
O506 C491 1.258 . S
O507 Nd481 2.492 . S
O507 C491 1.239 . S
O508 Nd481 2.487 . S
O508 C498 1.241 . S
O509 Nd480 2.414 . S
O509 Nd481 2.682 . S
O509 C498 1.273 . S
O510 Nd481 2.410 . S
O510 C499 1.251 . S
O511 Nd480 2.424 . S
O511 C499 1.268 . S
H512 C484 0.930 . S
H513 C485 0.929 . S
H514 C487 0.930 . S
H515 C488 0.929 . S
H516 C493 0.930 . S
H517 C494 0.929 . S
H518 C496 0.930 . S
H519 C497 0.929 . S
Nd520 C522 2.836 . S
Nd520 O540 2.500 . S
Nd520 O541 2.492 . S
Nd520 O542 2.487 . S
Nd520 O543 2.682 . S
Nd520 O544 2.410 . S
Nd520 O549 2.414 . S
Nd520 O551 2.424 . S
Nd521 C531 2.836 . S
Nd521 O543 2.414 . S
Nd521 O545 2.424 . S
Nd521 O546 2.500 . S
Nd521 O547 2.492 . S
Nd521 O548 2.487 . S
Nd521 O549 2.682 . S
Nd521 O550 2.410 . S
C522 Nd520 2.836 . S
C522 C523 1.498 . S
C522 O540 1.258 . S
C522 O541 1.239 . S
C523 C522 1.498 . S
C523 C524 1.366 . S
C523 C528 1.407 . S
C524 C523 1.366 . S
C524 C525 1.392 . S
C524 H552 0.930 . S
C525 C524 1.392 . S
C525 C526 1.398 . S
C525 H553 0.929 . S
C526 C525 1.398 . S
C526 C527 1.352 . S
C527 C526 1.352 . S
C527 C528 1.384 . S
C527 H554 0.930 . S
C528 C523 1.407 . S
C528 C527 1.384 . S
C528 H555 0.929 . S
C529 O542 1.241 . S
C529 O543 1.273 . S
C530 O544 1.251 . S
C530 O545 1.268 . S
C531 Nd521 2.836 . S
C531 C532 1.498 . S
C531 O546 1.258 . S
C531 O547 1.239 . S
C532 C531 1.498 . S
C532 C533 1.366 . S
C532 C537 1.407 . S
C533 C532 1.366 . S
C533 C534 1.392 . S
C533 H556 0.930 . S
C534 C533 1.392 . S
C534 C535 1.398 . S
C534 H557 0.929 . S
C535 C534 1.398 . S
C535 C536 1.352 . S
C536 C535 1.352 . S
C536 C537 1.384 . S
C536 H558 0.930 . S
C537 C532 1.407 . S
C537 C536 1.384 . S
C537 H559 0.929 . S
C538 O548 1.241 . S
C538 O549 1.273 . S
C539 O550 1.251 . S
C539 O551 1.268 . S
O540 Nd520 2.500 . S
O540 C522 1.258 . S
O541 Nd520 2.492 . S
O541 C522 1.239 . S
O542 Nd520 2.487 . S
O542 C529 1.241 . S
O543 Nd520 2.682 . S
O543 Nd521 2.414 . S
O543 C529 1.273 . S
O544 Nd520 2.410 . S
O544 C530 1.251 . S
O545 Nd521 2.424 . S
O545 C530 1.268 . S
O546 Nd521 2.500 . S
O546 C531 1.258 . S
O547 Nd521 2.492 . S
O547 C531 1.239 . S
O548 Nd521 2.487 . S
O548 C538 1.241 . S
O549 Nd520 2.414 . S
O549 Nd521 2.682 . S
O549 C538 1.273 . S
O550 Nd521 2.410 . S
O550 C539 1.251 . S
O551 Nd520 2.424 . S
O551 C539 1.268 . S
H552 C524 0.930 . S
H553 C525 0.929 . S
H554 C527 0.930 . S
H555 C528 0.929 . S
H556 C533 0.930 . S
H557 C534 0.929 . S
H558 C536 0.930 . S
H559 C537 0.929 . S
Nd560 C562 2.836 . S
Nd560 O580 2.500 . S
Nd560 O581 2.492 . S
Nd560 O582 2.487 . S
Nd560 O583 2.682 . S
Nd560 O584 2.410 . S
Nd560 O589 2.414 . S
Nd560 O591 2.424 . S
Nd561 C571 2.836 . S
Nd561 O583 2.414 . S
Nd561 O585 2.424 . S
Nd561 O586 2.500 . S
Nd561 O587 2.492 . S
Nd561 O588 2.487 . S
Nd561 O589 2.682 . S
Nd561 O590 2.410 . S
C562 Nd560 2.836 . S
C562 C563 1.498 . S
C562 O580 1.258 . S
C562 O581 1.239 . S
C563 C562 1.498 . S
C563 C564 1.366 . S
C563 C568 1.407 . S
C564 C563 1.366 . S
C564 C565 1.392 . S
C564 H592 0.930 . S
C565 C564 1.392 . S
C565 C566 1.398 . S
C565 H593 0.929 . S
C566 C565 1.398 . S
C566 C567 1.352 . S
C567 C566 1.352 . S
C567 C568 1.384 . S
C567 H594 0.930 . S
C568 C563 1.407 . S
C568 C567 1.384 . S
C568 H595 0.929 . S
C569 O582 1.241 . S
C569 O583 1.273 . S
C570 O584 1.251 . S
C570 O585 1.268 . S
C571 Nd561 2.836 . S
C571 C572 1.498 . S
C571 O586 1.258 . S
C571 O587 1.239 . S
C572 C571 1.498 . S
C572 C573 1.366 . S
C572 C577 1.407 . S
C573 C572 1.366 . S
C573 C574 1.392 . S
C573 H596 0.930 . S
C574 C573 1.392 . S
C574 C575 1.398 . S
C574 H597 0.929 . S
C575 C574 1.398 . S
C575 C576 1.352 . S
C576 C575 1.352 . S
C576 C577 1.384 . S
C576 H598 0.930 . S
C577 C572 1.407 . S
C577 C576 1.384 . S
C577 H599 0.929 . S
C578 O588 1.241 . S
C578 O589 1.273 . S
C579 O590 1.251 . S
C579 O591 1.268 . S
O580 Nd560 2.500 . S
O580 C562 1.258 . S
O581 Nd560 2.492 . S
O581 C562 1.239 . S
O582 Nd560 2.487 . S
O582 C569 1.241 . S
O583 Nd560 2.682 . S
O583 Nd561 2.414 . S
O583 C569 1.273 . S
O584 Nd560 2.410 . S
O584 C570 1.251 . S
O585 Nd561 2.424 . S
O585 C570 1.268 . S
O586 Nd561 2.500 . S
O586 C571 1.258 . S
O587 Nd561 2.492 . S
O587 C571 1.239 . S
O588 Nd561 2.487 . S
O588 C578 1.241 . S
O589 Nd560 2.414 . S
O589 Nd561 2.682 . S
O589 C578 1.273 . S
O590 Nd561 2.410 . S
O590 C579 1.251 . S
O591 Nd560 2.424 . S
O591 C579 1.268 . S
H592 C564 0.930 . S
H593 C565 0.929 . S
H594 C567 0.930 . S
H595 C568 0.929 . S
H596 C573 0.930 . S
H597 C574 0.929 . S
H598 C576 0.930 . S
H599 C577 0.929 . S
Nd600 C602 2.836 1_554 S
Nd600 O620 2.500 1_554 S
Nd600 O621 2.492 1_554 S
Nd600 O622 2.487 . S
Nd600 O623 2.682 . S
Nd600 O624 2.410 1_554 S
Nd600 O629 2.414 1_554 S
Nd600 O631 2.424 . S
Nd601 C611 2.836 1_556 S
Nd601 O623 2.414 1_556 S
Nd601 O625 2.424 . S
Nd601 O626 2.500 1_556 S
Nd601 O627 2.492 1_556 S
Nd601 O628 2.487 . S
Nd601 O629 2.682 . S
Nd601 O630 2.410 1_556 S
C602 Nd600 2.836 1_556 S
C602 C603 1.498 . S
C602 O620 1.258 . S
C602 O621 1.239 . S
C603 C602 1.498 . S
C603 C604 1.366 . S
C603 C608 1.407 . S
C604 C603 1.366 . S
C604 C605 1.392 . S
C604 H632 0.930 . S
C605 C604 1.392 . S
C605 C606 1.398 . S
C605 H633 0.929 . S
C606 C605 1.398 . S
C606 C607 1.352 . S
C607 C606 1.352 . S
C607 C608 1.384 . S
C607 H634 0.930 . S
C608 C603 1.407 . S
C608 C607 1.384 . S
C608 H635 0.929 . S
C609 O622 1.241 . S
C609 O623 1.273 . S
C610 O624 1.251 . S
C610 O625 1.268 . S
C611 Nd601 2.836 1_554 S
C611 C612 1.498 . S
C611 O626 1.258 . S
C611 O627 1.239 . S
C612 C611 1.498 . S
C612 C613 1.366 . S
C612 C617 1.407 . S
C613 C612 1.366 . S
C613 C614 1.392 . S
C613 H636 0.930 . S
C614 C613 1.392 . S
C614 C615 1.398 . S
C614 H637 0.929 . S
C615 C614 1.398 . S
C615 C616 1.352 . S
C616 C615 1.352 . S
C616 C617 1.384 . S
C616 H638 0.930 . S
C617 C612 1.407 . S
C617 C616 1.384 . S
C617 H639 0.929 . S
C618 O628 1.241 . S
C618 O629 1.273 . S
C619 O630 1.251 . S
C619 O631 1.268 . S
O620 Nd600 2.500 1_556 S
O620 C602 1.258 . S
O621 Nd600 2.492 1_556 S
O621 C602 1.239 . S
O622 Nd600 2.487 . S
O622 C609 1.241 . S
O623 Nd600 2.682 . S
O623 Nd601 2.414 1_554 S
O623 C609 1.273 . S
O624 Nd600 2.410 1_556 S
O624 C610 1.251 . S
O625 Nd601 2.424 . S
O625 C610 1.268 . S
O626 Nd601 2.500 1_554 S
O626 C611 1.258 . S
O627 Nd601 2.492 1_554 S
O627 C611 1.239 . S
O628 Nd601 2.487 . S
O628 C618 1.241 . S
O629 Nd600 2.414 1_556 S
O629 Nd601 2.682 . S
O629 C618 1.273 . S
O630 Nd601 2.410 1_554 S
O630 C619 1.251 . S
O631 Nd600 2.424 . S
O631 C619 1.268 . S
H632 C604 0.930 . S
H633 C605 0.929 . S
H634 C607 0.930 . S
H635 C608 0.929 . S
H636 C613 0.930 . S
H637 C614 0.929 . S
H638 C616 0.930 . S
H639 C617 0.929 . S
Nd640 C642 2.836 1_554 S
Nd640 O660 2.500 1_554 S
Nd640 O661 2.492 1_554 S
Nd640 O662 2.487 . S
Nd640 O663 2.682 . S
Nd640 O664 2.410 1_554 S
Nd640 O669 2.414 1_554 S
Nd640 O671 2.424 . S
Nd641 C651 2.836 1_556 S
Nd641 O663 2.414 1_556 S
Nd641 O665 2.424 . S
Nd641 O666 2.500 1_556 S
Nd641 O667 2.492 1_556 S
Nd641 O668 2.487 . S
Nd641 O669 2.682 . S
Nd641 O670 2.410 1_556 S
C642 Nd640 2.836 1_556 S
C642 C643 1.498 . S
C642 O660 1.258 . S
C642 O661 1.239 . S
C643 C642 1.498 . S
C643 C644 1.366 . S
C643 C648 1.407 . S
C644 C643 1.366 . S
C644 C645 1.392 . S
C644 H672 0.930 . S
C645 C644 1.392 . S
C645 C646 1.398 . S
C645 H673 0.929 . S
C646 C645 1.398 . S
C646 C647 1.352 . S
C647 C646 1.352 . S
C647 C648 1.384 . S
C647 H674 0.930 . S
C648 C643 1.407 . S
C648 C647 1.384 . S
C648 H675 0.929 . S
C649 O662 1.241 . S
C649 O663 1.273 . S
C650 O664 1.251 . S
C650 O665 1.268 . S
C651 Nd641 2.836 1_554 S
C651 C652 1.498 . S
C651 O666 1.258 . S
C651 O667 1.239 . S
C652 C651 1.498 . S
C652 C653 1.366 . S
C652 C657 1.407 . S
C653 C652 1.366 . S
C653 C654 1.392 . S
C653 H676 0.930 . S
C654 C653 1.392 . S
C654 C655 1.398 . S
C654 H677 0.929 . S
C655 C654 1.398 . S
C655 C656 1.352 . S
C656 C655 1.352 . S
C656 C657 1.384 . S
C656 H678 0.930 . S
C657 C652 1.407 . S
C657 C656 1.384 . S
C657 H679 0.929 . S
C658 O668 1.241 . S
C658 O669 1.273 . S
C659 O670 1.251 . S
C659 O671 1.268 . S
O660 Nd640 2.500 1_556 S
O660 C642 1.258 . S
O661 Nd640 2.492 1_556 S
O661 C642 1.239 . S
O662 Nd640 2.487 . S
O662 C649 1.241 . S
O663 Nd640 2.682 . S
O663 Nd641 2.414 1_554 S
O663 C649 1.273 . S
O664 Nd640 2.410 1_556 S
O664 C650 1.251 . S
O665 Nd641 2.424 . S
O665 C650 1.268 . S
O666 Nd641 2.500 1_554 S
O666 C651 1.258 . S
O667 Nd641 2.492 1_554 S
O667 C651 1.239 . S
O668 Nd641 2.487 . S
O668 C658 1.241 . S
O669 Nd640 2.414 1_556 S
O669 Nd641 2.682 . S
O669 C658 1.273 . S
O670 Nd641 2.410 1_554 S
O670 C659 1.251 . S
O671 Nd640 2.424 . S
O671 C659 1.268 . S
H672 C644 0.930 . S
H673 C645 0.929 . S
H674 C647 0.930 . S
H675 C648 0.929 . S
H676 C653 0.930 . S
H677 C654 0.929 . S
H678 C656 0.930 . S
H679 C657 0.929 . S
Nd680 C682 2.836 1_554 S
Nd680 O700 2.500 1_554 S
Nd680 O701 2.492 1_554 S
Nd680 O702 2.487 . S
Nd680 O703 2.682 . S
Nd680 O704 2.410 1_554 S
Nd680 O709 2.414 1_554 S
Nd680 O711 2.424 . S
Nd681 C691 2.836 1_556 S
Nd681 O703 2.414 1_556 S
Nd681 O705 2.424 . S
Nd681 O706 2.500 1_556 S
Nd681 O707 2.492 1_556 S
Nd681 O708 2.487 . S
Nd681 O709 2.682 . S
Nd681 O710 2.410 1_556 S
C682 Nd680 2.836 1_556 S
C682 C683 1.498 . S
C682 O700 1.258 . S
C682 O701 1.239 . S
C683 C682 1.498 . S
C683 C684 1.366 . S
C683 C688 1.407 . S
C684 C683 1.366 . S
C684 C685 1.392 . S
C684 H712 0.930 . S
C685 C684 1.392 . S
C685 C686 1.398 . S
C685 H713 0.929 . S
C686 C685 1.398 . S
C686 C687 1.352 . S
C687 C686 1.352 . S
C687 C688 1.384 . S
C687 H714 0.930 . S
C688 C683 1.407 . S
C688 C687 1.384 . S
C688 H715 0.929 . S
C689 O702 1.241 . S
C689 O703 1.273 . S
C690 O704 1.251 . S
C690 O705 1.268 . S
C691 Nd681 2.836 1_554 S
C691 C692 1.498 . S
C691 O706 1.258 . S
C691 O707 1.239 . S
C692 C691 1.498 . S
C692 C693 1.366 . S
C692 C697 1.407 . S
C693 C692 1.366 . S
C693 C694 1.392 . S
C693 H716 0.930 . S
C694 C693 1.392 . S
C694 C695 1.398 . S
C694 H717 0.929 . S
C695 C694 1.398 . S
C695 C696 1.352 . S
C696 C695 1.352 . S
C696 C697 1.384 . S
C696 H718 0.930 . S
C697 C692 1.407 . S
C697 C696 1.384 . S
C697 H719 0.929 . S
C698 O708 1.241 . S
C698 O709 1.273 . S
C699 O710 1.251 . S
C699 O711 1.268 . S
O700 Nd680 2.500 1_556 S
O700 C682 1.258 . S
O701 Nd680 2.492 1_556 S
O701 C682 1.239 . S
O702 Nd680 2.487 . S
O702 C689 1.241 . S
O703 Nd680 2.682 . S
O703 Nd681 2.414 1_554 S
O703 C689 1.273 . S
O704 Nd680 2.410 1_556 S
O704 C690 1.251 . S
O705 Nd681 2.424 . S
O705 C690 1.268 . S
O706 Nd681 2.500 1_554 S
O706 C691 1.258 . S
O707 Nd681 2.492 1_554 S
O707 C691 1.239 . S
O708 Nd681 2.487 . S
O708 C698 1.241 . S
O709 Nd680 2.414 1_556 S
O709 Nd681 2.682 . S
O709 C698 1.273 . S
O710 Nd681 2.410 1_554 S
O710 C699 1.251 . S
O711 Nd680 2.424 . S
O711 C699 1.268 . S
H712 C684 0.930 . S
H713 C685 0.929 . S
H714 C687 0.930 . S
H715 C688 0.929 . S
H716 C693 0.930 . S
H717 C694 0.929 . S
H718 C696 0.930 . S
H719 C697 0.929 . S
H720 C728 0.929 . S
H721 C730 0.930 . S
H722 C732 0.930 . S
H723 C735 0.929 . S
H724 C738 0.930 . S
H725 C740 0.960 . S
H726 C740 0.960 . S
H727 C740 0.960 . S
C728 H720 0.929 . S
C728 C729 1.377 . S
C728 C730 1.384 . S
C729 C728 1.377 . S
C729 C735 1.390 . S
C730 H721 0.930 . S
C730 C728 1.384 . S
C730 C731 1.372 . S
C731 C730 1.372 . S
C731 C732 1.400 . S
C731 C736 1.490 . S
C732 H722 0.930 . S
C732 C731 1.400 . S
C732 C735 1.386 . S
H733 C749 0.930 . S
H734 C750 0.931 . S
C735 H723 0.929 . S
C735 C729 1.390 . S
C735 C732 1.386 . S
C736 C731 1.490 . S
C736 C738 1.395 . S
C736 C739 1.403 . S
H737 C743 0.930 . S
C738 H724 0.930 . S
C738 C736 1.395 . S
C738 C741 1.403 . S
C739 C736 1.403 . S
C739 C740 1.524 . S
C739 C743 1.400 . S
C740 H725 0.960 . S
C740 H726 0.960 . S
C740 H727 0.960 . S
C740 C739 1.524 . S
C741 C738 1.403 . S
C741 C742 1.392 . S
C741 C745 1.495 . S
C742 C741 1.392 . S
C742 C743 1.385 . S
C742 C744 1.478 . S
C743 H737 0.930 . S
C743 C739 1.400 . S
C743 C742 1.385 . S
C744 C742 1.478 . S
C744 C746 1.381 . S
C744 C750 1.383 . S
C745 C741 1.495 . S
C745 H751 0.959 . S
C745 H752 0.961 . S
C745 H753 0.960 . S
C746 C744 1.381 . S
C746 C747 1.394 . S
C746 H754 0.930 . S
C747 C746 1.394 . S
C747 C748 1.383 . S
C747 H755 0.929 . S
C748 C747 1.383 . S
C748 C749 1.377 . S
C749 H733 0.930 . S
C749 C748 1.377 . S
C749 C750 1.379 . S
C750 H734 0.931 . S
C750 C744 1.383 . S
C750 C749 1.379 . S
H751 C745 0.959 . S
H752 C745 0.961 . S
H753 C745 0.960 . S
H754 C746 0.930 . S
H755 C747 0.929 . S
H756 C764 0.929 . S
H757 C766 0.930 . S
H758 C768 0.930 . S
H759 C771 0.929 . S
H760 C774 0.930 . S
H761 C776 0.960 . S
H762 C776 0.960 . S
H763 C776 0.960 . S
C764 H756 0.929 . S
C764 C765 1.377 . S
C764 C766 1.384 . S
C765 C764 1.377 . S
C765 C771 1.390 . S
C766 H757 0.930 . S
C766 C764 1.384 . S
C766 C767 1.372 . S
C767 C766 1.372 . S
C767 C768 1.400 . S
C767 C772 1.490 . S
C768 H758 0.930 . S
C768 C767 1.400 . S
C768 C771 1.386 . S
H769 C785 0.930 . S
H770 C786 0.931 . S
C771 H759 0.929 . S
C771 C765 1.390 . S
C771 C768 1.386 . S
C772 C767 1.490 . S
C772 C774 1.395 . S
C772 C775 1.403 . S
H773 C779 0.930 . S
C774 H760 0.930 . S
C774 C772 1.395 . S
C774 C777 1.403 . S
C775 C772 1.403 . S
C775 C776 1.524 . S
C775 C779 1.400 . S
C776 H761 0.960 . S
C776 H762 0.960 . S
C776 H763 0.960 . S
C776 C775 1.524 . S
C777 C774 1.403 . S
C777 C778 1.392 . S
C777 C781 1.495 . S
C778 C777 1.392 . S
C778 C779 1.385 . S
C778 C780 1.478 . S
C779 H773 0.930 . S
C779 C775 1.400 . S
C779 C778 1.385 . S
C780 C778 1.478 . S
C780 C782 1.381 . S
C780 C786 1.383 . S
C781 C777 1.495 . S
C781 H787 0.959 . S
C781 H788 0.961 . S
C781 H789 0.960 . S
C782 C780 1.381 . S
C782 C783 1.394 . S
C782 H790 0.930 . S
C783 C782 1.394 . S
C783 C784 1.383 . S
C783 H791 0.929 . S
C784 C783 1.383 . S
C784 C785 1.377 . S
C785 H769 0.930 . S
C785 C784 1.377 . S
C785 C786 1.379 . S
C786 H770 0.931 . S
C786 C780 1.383 . S
C786 C785 1.379 . S
H787 C781 0.959 . S
H788 C781 0.961 . S
H789 C781 0.960 . S
H790 C782 0.930 . S
H791 C783 0.929 . S
H792 C800 0.929 1_545 S
H793 C802 0.930 . S
H794 C804 0.930 . S
H795 C807 0.929 . S
H796 C810 0.930 . S
H797 C812 0.960 . S
H798 C812 0.960 . S
H799 C812 0.960 . S
C800 H792 0.929 1_565 S
C800 C801 1.377 . S
C800 C802 1.384 . S
C801 C800 1.377 . S
C801 C807 1.390 . S
C802 H793 0.930 . S
C802 C800 1.384 . S
C802 C803 1.372 . S
C803 C802 1.372 . S
C803 C804 1.400 . S
C803 C808 1.490 . S
C804 H794 0.930 . S
C804 C803 1.400 . S
C804 C807 1.386 . S
H805 C821 0.930 . S
H806 C822 0.931 . S
C807 H795 0.929 . S
C807 C801 1.390 . S
C807 C804 1.386 . S
C808 C803 1.490 . S
C808 C810 1.395 . S
C808 C811 1.403 . S
H809 C815 0.930 . S
C810 H796 0.930 . S
C810 C808 1.395 . S
C810 C813 1.403 . S
C811 C808 1.403 . S
C811 C812 1.524 . S
C811 C815 1.400 . S
C812 H797 0.960 . S
C812 H798 0.960 . S
C812 H799 0.960 . S
C812 C811 1.524 . S
C813 C810 1.403 . S
C813 C814 1.392 . S
C813 C817 1.495 . S
C814 C813 1.392 . S
C814 C815 1.385 . S
C814 C816 1.478 . S
C815 H809 0.930 . S
C815 C811 1.400 . S
C815 C814 1.385 . S
C816 C814 1.478 . S
C816 C818 1.381 . S
C816 C822 1.383 . S
C817 C813 1.495 . S
C817 H823 0.959 . S
C817 H824 0.961 . S
C817 H825 0.960 . S
C818 C816 1.381 . S
C818 C819 1.394 . S
C818 H826 0.930 . S
C819 C818 1.394 . S
C819 C820 1.383 . S
C819 H827 0.929 . S
C820 C819 1.383 . S
C820 C821 1.377 . S
C821 H805 0.930 . S
C821 C820 1.377 . S
C821 C822 1.379 . S
C822 H806 0.931 . S
C822 C816 1.383 . S
C822 C821 1.379 . S
H823 C817 0.959 . S
H824 C817 0.961 . S
H825 C817 0.960 . S
H826 C818 0.930 . S
H827 C819 0.929 . S
H828 C836 0.929 . S
H829 C838 0.930 . S
H830 C840 0.930 . S
H831 C843 0.929 . S
H832 C846 0.930 . S
H833 C848 0.960 . S
H834 C848 0.960 . S
H835 C848 0.960 . S
C836 H828 0.929 . S
C836 C837 1.377 . S
C836 C838 1.384 . S
C837 C836 1.377 . S
C837 C843 1.390 . S
C838 H829 0.930 . S
C838 C836 1.384 . S
C838 C839 1.372 . S
C839 C838 1.372 . S
C839 C840 1.400 . S
C839 C844 1.490 . S
C840 H830 0.930 . S
C840 C839 1.400 . S
C840 C843 1.386 . S
H841 C857 0.930 . S
H842 C858 0.931 1_554 S
C843 H831 0.929 . S
C843 C837 1.390 . S
C843 C840 1.386 . S
C844 C839 1.490 . S
C844 C846 1.395 . S
C844 C847 1.403 . S
H845 C851 0.930 . S
C846 H832 0.930 . S
C846 C844 1.395 . S
C846 C849 1.403 . S
C847 C844 1.403 . S
C847 C848 1.524 . S
C847 C851 1.400 . S
C848 H833 0.960 . S
C848 H834 0.960 . S
C848 H835 0.960 . S
C848 C847 1.524 . S
C849 C846 1.403 . S
C849 C850 1.392 . S
C849 C853 1.497 . S
C850 C849 1.392 . S
C850 C851 1.385 . S
C850 C852 1.478 . S
C851 H845 0.930 . S
C851 C847 1.400 . S
C851 C850 1.385 . S
C852 C850 1.478 . S
C852 C854 1.381 . S
C852 C858 1.383 . S
C853 C849 1.497 . S
C853 H859 0.958 1_556 S
C853 H860 0.958 1_556 S
C853 H861 0.961 . S
C854 C852 1.381 . S
C854 C855 1.394 . S
C854 H862 0.930 . S
C855 C854 1.394 . S
C855 C856 1.383 . S
C855 H863 0.929 . S
C856 C855 1.383 . S
C856 C857 1.377 1_556 S
C857 H841 0.930 . S
C857 C856 1.377 1_554 S
C857 C858 1.379 1_554 S
C858 H842 0.931 1_556 S
C858 C852 1.383 . S
C858 C857 1.379 1_556 S
H859 C853 0.958 1_554 S
H860 C853 0.958 1_554 S
H861 C853 0.961 . S
H862 C854 0.930 . S
H863 C855 0.929 . S
H864 C872 0.929 . S
H865 C874 0.930 . S
H866 C876 0.930 . S
H867 C879 0.929 . S
H868 C882 0.930 . S
H869 C884 0.960 . S
H870 C884 0.960 . S
H871 C884 0.970 . S
C872 H864 0.929 . S
C872 C873 1.377 . S
C872 C874 1.384 . S
C873 C872 1.377 . S
C873 C879 1.390 1_556 S
C874 H865 0.930 . S
C874 C872 1.384 . S
C874 C875 1.372 . S
C875 C874 1.372 . S
C875 C876 1.400 1_556 S
C875 C880 1.490 . S
C876 H866 0.930 . S
C876 C875 1.400 1_554 S
C876 C879 1.386 . S
H877 C893 0.930 . S
H878 C894 0.931 . S
C879 H867 0.929 . S
C879 C873 1.390 1_554 S
C879 C876 1.386 . S
C880 C875 1.490 . S
C880 C882 1.395 . S
C880 C883 1.403 . S
H881 C887 0.930 . S
C882 H868 0.930 . S
C882 C880 1.395 . S
C882 C885 1.403 . S
C883 C880 1.403 . S
C883 C884 1.524 . S
C883 C887 1.400 . S
C884 H869 0.960 . S
C884 H870 0.960 . S
C884 H871 0.970 . S
C884 C883 1.524 . S
C885 C882 1.403 . S
C885 C886 1.392 . S
C885 C889 1.495 . S
C886 C885 1.392 . S
C886 C887 1.385 . S
C886 C888 1.478 . S
C887 H881 0.930 . S
C887 C883 1.400 . S
C887 C886 1.385 . S
C888 C886 1.478 . S
C888 C890 1.381 . S
C888 C894 1.383 . S
C889 C885 1.495 . S
C889 H895 0.959 . S
C889 H896 0.961 . S
C889 H897 0.960 . S
C890 C888 1.381 . S
C890 C891 1.394 . S
C890 H898 0.930 . S
C891 C890 1.394 . S
C891 C892 1.383 . S
C891 H899 0.929 . S
C892 C891 1.383 . S
C892 C893 1.377 . S
C893 H877 0.930 . S
C893 C892 1.377 . S
C893 C894 1.379 . S
C894 H878 0.931 . S
C894 C888 1.383 . S
C894 C893 1.379 . S
H895 C889 0.959 . S
H896 C889 0.961 . S
H897 C889 0.960 . S
H898 C890 0.930 . S
H899 C891 0.929 . S
H900 C908 0.929 . S
H901 C910 0.930 . S
H902 C912 0.930 . S
H903 C915 0.929 . S
H904 C918 0.930 1_554 S
H905 C920 0.960 . S
H906 C920 0.960 . S
H907 C920 0.960 . S
C908 H900 0.929 . S
C908 C909 1.377 . S
C908 C910 1.384 . S
C909 C908 1.377 . S
C909 C915 1.390 . S
C910 H901 0.930 . S
C910 C908 1.384 . S
C910 C911 1.372 . S
C911 C910 1.372 . S
C911 C912 1.400 . S
C911 C916 1.490 . S
C912 H902 0.930 . S
C912 C911 1.400 . S
C912 C915 1.386 . S
H913 C929 0.930 . S
H914 C930 0.931 . S
C915 H903 0.929 . S
C915 C909 1.390 . S
C915 C912 1.386 . S
C916 C911 1.490 . S
C916 C918 1.395 . S
C916 C919 1.403 . S
H917 C923 0.930 . S
C918 H904 0.930 1_556 S
C918 C916 1.395 . S
C918 C921 1.403 . S
C919 C916 1.403 . S
C919 C920 1.524 . S
C919 C923 1.400 . S
C920 H905 0.960 . S
C920 H906 0.960 . S
C920 H907 0.960 . S
C920 C919 1.524 . S
C921 C918 1.403 . S
C921 C922 1.392 . S
C921 C925 1.495 1_556 S
C922 C921 1.392 . S
C922 C923 1.385 . S
C922 C924 1.478 . S
C923 H917 0.930 . S
C923 C919 1.400 . S
C923 C922 1.385 . S
C924 C922 1.478 . S
C924 C926 1.381 . S
C924 C930 1.383 . S
C925 C921 1.495 1_554 S
C925 H931 0.959 . S
C925 H932 0.961 . S
C925 H933 0.960 . S
C926 C924 1.381 . S
C926 C927 1.394 . S
C926 H934 0.930 . S
C927 C926 1.394 . S
C927 C928 1.383 . S
C927 H935 0.929 1_556 S
C928 C927 1.383 . S
C928 C929 1.377 . S
C929 H913 0.930 . S
C929 C928 1.377 . S
C929 C930 1.379 . S
C930 H914 0.931 . S
C930 C924 1.383 . S
C930 C929 1.379 . S
H931 C925 0.959 . S
H932 C925 0.961 . S
H933 C925 0.960 . S
H934 C926 0.930 . S
H935 C927 0.929 1_554 S
H936 C944 0.929 . S
H937 C946 0.930 . S
H938 C948 0.930 . S
H939 C951 0.929 . S
H940 C954 0.930 . S
H941 C956 0.960 . S
H942 C956 0.960 . S
H943 C956 0.960 . S
C944 H936 0.929 . S
C944 C945 1.377 . S
C944 C946 1.384 . S
C945 C944 1.377 . S
C945 C951 1.390 . S
C946 H937 0.930 . S
C946 C944 1.384 . S
C946 C947 1.372 . S
C947 C946 1.372 . S
C947 C948 1.400 . S
C947 C952 1.490 . S
C948 H938 0.930 . S
C948 C947 1.400 . S
C948 C951 1.386 . S
H949 C965 0.930 . S
H950 C966 0.931 . S
C951 H939 0.929 . S
C951 C945 1.390 . S
C951 C948 1.386 . S
C952 C947 1.490 . S
C952 C954 1.395 . S
C952 C955 1.403 . S
H953 C959 0.930 . S
C954 H940 0.930 . S
C954 C952 1.395 . S
C954 C957 1.403 . S
C955 C952 1.403 . S
C955 C956 1.524 . S
C955 C959 1.400 . S
C956 H941 0.960 . S
C956 H942 0.960 . S
C956 H943 0.960 . S
C956 C955 1.524 . S
C957 C954 1.403 . S
C957 C958 1.392 . S
C957 C961 1.495 . S
C958 C957 1.392 . S
C958 C959 1.385 . S
C958 C960 1.478 . S
C959 H953 0.930 . S
C959 C955 1.400 . S
C959 C958 1.385 . S
C960 C958 1.478 . S
C960 C962 1.381 . S
C960 C966 1.383 . S
C961 C957 1.495 . S
C961 H967 0.959 . S
C961 H968 0.961 . S
C961 H969 0.960 . S
C962 C960 1.381 . S
C962 C963 1.394 . S
C962 H970 0.930 . S
C963 C962 1.394 . S
C963 C964 1.383 . S
C963 H971 0.929 . S
C964 C963 1.383 . S
C964 C965 1.377 . S
C965 H949 0.930 . S
C965 C964 1.377 . S
C965 C966 1.379 . S
C966 H950 0.931 . S
C966 C960 1.383 . S
C966 C965 1.379 . S
H967 C961 0.959 . S
H968 C961 0.961 . S
H969 C961 0.960 . S
H970 C962 0.930 . S
H971 C963 0.929 . S
H972 C980 0.929 . S
H973 C982 0.930 . S
H974 C984 0.930 . S
H975 C987 0.929 . S
H976 C990 0.930 . S
H977 C992 0.960 . S
H978 C992 0.960 . S
H979 C992 0.960 . S
C980 H972 0.929 . S
C980 C981 1.377 . S
C980 C982 1.384 . S
C981 C980 1.377 . S
C981 C987 1.390 . S
C982 H973 0.930 . S
C982 C980 1.384 . S
C982 C983 1.372 . S
C983 C982 1.372 . S
C983 C984 1.400 . S
C983 C988 1.490 . S
C984 H974 0.930 . S
C984 C983 1.400 . S
C984 C987 1.386 . S
H985 C1001 0.930 . S
H986 C1002 0.931 . S
C987 H975 0.929 . S
C987 C981 1.390 . S
C987 C984 1.386 . S
C988 C983 1.490 . S
C988 C990 1.395 . S
C988 C991 1.403 . S
H989 C995 0.930 . S
C990 H976 0.930 . S
C990 C988 1.395 . S
C990 C993 1.403 . S
C991 C988 1.403 . S
C991 C992 1.524 . S
C991 C995 1.400 . S
C992 H977 0.960 . S
C992 H978 0.960 . S
C992 H979 0.960 . S
C992 C991 1.524 . S
C993 C990 1.403 . S
C993 C994 1.392 . S
C993 C997 1.495 . S
C994 C993 1.392 . S
C994 C995 1.385 . S
C994 C996 1.478 . S
C995 H989 0.930 . S
C995 C991 1.400 . S
C995 C994 1.385 . S
C996 C994 1.478 . S
C996 C998 1.381 . S
C996 C1002 1.383 . S
C997 C993 1.495 . S
C997 H1003 0.959 . S
C997 H1004 0.961 . S
C997 H1005 0.960 . S
C998 C996 1.381 . S
C998 C999 1.394 . S
C998 H1006 0.930 . S
C999 C998 1.394 . S
C999 C1000 1.383 . S
C999 H1007 0.929 . S
C1000 C999 1.383 . S
C1000 C1001 1.377 . S
C1001 H985 0.930 . S
C1001 C1000 1.377 . S
C1001 C1002 1.379 . S
C1002 H986 0.931 . S
C1002 C996 1.383 . S
C1002 C1001 1.379 . S
H1003 C997 0.959 . S
H1004 C997 0.961 . S
H1005 C997 0.960 . S
H1006 C998 0.930 . S
H1007 C999 0.929 . S
H1008 C1016 0.929 . S
H1009 C1018 0.930 . S
H1010 C1020 0.930 . S
H1011 C1023 0.929 . S
H1012 C1026 0.930 . S
H1013 C1028 0.960 . S
H1014 C1028 0.960 . S
H1015 C1028 0.960 . S
C1016 H1008 0.929 . S
C1016 C1017 1.377 . S
C1016 C1018 1.384 . S
C1017 C1016 1.377 . S
C1017 C1023 1.390 . S
C1018 H1009 0.930 . S
C1018 C1016 1.384 . S
C1018 C1019 1.372 . S
C1019 C1018 1.372 . S
C1019 C1020 1.400 . S
C1019 C1024 1.490 . S
C1020 H1010 0.930 . S
C1020 C1019 1.400 . S
C1020 C1023 1.386 . S
H1021 C1037 0.930 . S
H1022 C1038 0.931 . S
C1023 H1011 0.929 . S
C1023 C1017 1.390 . S
C1023 C1020 1.386 . S
C1024 C1019 1.490 . S
C1024 C1026 1.395 . S
C1024 C1027 1.403 . S
H1025 C1031 0.930 . S
C1026 H1012 0.930 . S
C1026 C1024 1.395 . S
C1026 C1029 1.403 . S
C1027 C1024 1.403 . S
C1027 C1028 1.524 . S
C1027 C1031 1.400 . S
C1028 H1013 0.960 . S
C1028 H1014 0.960 . S
C1028 H1015 0.960 . S
C1028 C1027 1.524 . S
C1029 C1026 1.403 . S
C1029 C1030 1.392 . S
C1029 C1033 1.495 . S
C1030 C1029 1.392 . S
C1030 C1031 1.385 . S
C1030 C1032 1.478 . S
C1031 H1025 0.930 . S
C1031 C1027 1.400 . S
C1031 C1030 1.385 . S
C1032 C1030 1.478 . S
C1032 C1034 1.381 . S
C1032 C1038 1.383 . S
C1033 C1029 1.495 . S
C1033 H1039 0.959 . S
C1033 H1040 0.961 . S
C1033 H1041 0.960 . S
C1034 C1032 1.381 . S
C1034 C1035 1.394 . S
C1034 H1042 0.930 . S
C1035 C1034 1.394 . S
C1035 C1036 1.383 . S
C1035 H1043 0.929 . S
C1036 C1035 1.383 . S
C1036 C1037 1.377 . S
C1037 H1021 0.930 . S
C1037 C1036 1.377 . S
C1037 C1038 1.379 . S
C1038 H1022 0.931 . S
C1038 C1032 1.383 . S
C1038 C1037 1.379 . S
H1039 C1033 0.959 . S
H1040 C1033 0.961 . S
H1041 C1033 0.960 . S
H1042 C1034 0.930 . S
H1043 C1035 0.929 . S
H1044 C1052 0.929 . S
H1045 C1054 0.930 . S
H1046 C1056 0.930 1_556 S
H1047 C1059 0.929 . S
H1048 C1062 0.930 . S
H1049 C1064 0.960 . S
H1050 C1064 0.960 . S
H1051 C1064 0.960 . S
C1052 H1044 0.929 . S
C1052 C1053 1.377 . S
C1052 C1054 1.384 . S
C1053 C1052 1.377 . S
C1053 C1059 1.390 1_554 S
C1054 H1045 0.930 . S
C1054 C1052 1.384 . S
C1054 C1055 1.372 . S
C1055 C1054 1.372 . S
C1055 C1056 1.400 . S
C1055 C1060 1.490 . S
C1056 H1046 0.930 1_554 S
C1056 C1055 1.400 . S
C1056 C1059 1.386 1_554 S
H1057 C1073 0.930 . S
H1058 C1074 0.931 . S
C1059 H1047 0.929 . S
C1059 C1053 1.390 1_556 S
C1059 C1056 1.386 1_556 S
C1060 C1055 1.490 . S
C1060 C1062 1.395 . S
C1060 C1063 1.403 . S
H1061 C1067 0.930 . S
C1062 H1048 0.930 . S
C1062 C1060 1.395 . S
C1062 C1065 1.403 . S
C1063 C1060 1.403 . S
C1063 C1064 1.524 . S
C1063 C1067 1.400 . S
C1064 H1049 0.960 . S
C1064 H1050 0.960 . S
C1064 H1051 0.960 . S
C1064 C1063 1.524 . S
C1065 C1062 1.403 . S
C1065 C1066 1.392 . S
C1065 C1069 1.495 . S
C1066 C1065 1.392 . S
C1066 C1067 1.385 . S
C1066 C1068 1.478 . S
C1067 H1061 0.930 . S
C1067 C1063 1.400 . S
C1067 C1066 1.385 . S
C1068 C1066 1.478 . S
C1068 C1070 1.381 . S
C1068 C1074 1.383 . S
C1069 C1065 1.495 . S
C1069 H1075 0.959 . S
C1069 H1076 0.961 . S
C1069 H1077 0.960 . S
C1070 C1068 1.381 . S
C1070 C1071 1.394 . S
C1070 H1078 0.930 . S
C1071 C1070 1.394 . S
C1071 C1072 1.383 . S
C1071 H1079 0.929 . S
C1072 C1071 1.383 . S
C1072 C1073 1.377 . S
C1073 H1057 0.930 . S
C1073 C1072 1.377 . S
C1073 C1074 1.379 . S
C1074 H1058 0.931 . S
C1074 C1068 1.383 . S
C1074 C1073 1.379 . S
H1075 C1069 0.959 . S
H1076 C1069 0.961 . S
H1077 C1069 0.960 . S
H1078 C1070 0.930 . S
H1079 C1071 0.929 . S
H1080 C1088 0.929 . S
H1081 C1090 0.930 . S
H1082 C1092 0.930 . S
H1083 C1095 0.929 . S
H1084 C1098 0.930 1_556 S
H1085 C1100 0.960 . S
H1086 C1100 0.960 . S
H1087 C1100 0.960 . S
C1088 H1080 0.929 . S
C1088 C1089 1.377 . S
C1088 C1090 1.384 . S
C1089 C1088 1.377 . S
C1089 C1095 1.390 . S
C1090 H1081 0.930 . S
C1090 C1088 1.384 . S
C1090 C1091 1.372 . S
C1091 C1090 1.372 . S
C1091 C1092 1.400 . S
C1091 C1096 1.490 . S
C1092 H1082 0.930 . S
C1092 C1091 1.400 . S
C1092 C1095 1.386 . S
H1093 C1109 0.930 . S
H1094 C1110 0.931 . S
C1095 H1083 0.929 . S
C1095 C1089 1.390 . S
C1095 C1092 1.386 . S
C1096 C1091 1.490 . S
C1096 C1098 1.395 . S
C1096 C1099 1.403 . S
H1097 C1103 0.930 . S
C1098 H1084 0.930 1_554 S
C1098 C1096 1.395 . S
C1098 C1101 1.403 . S
C1099 C1096 1.403 . S
C1099 C1100 1.524 . S
C1099 C1103 1.400 . S
C1100 H1085 0.960 . S
C1100 H1086 0.960 . S
C1100 H1087 0.960 . S
C1100 C1099 1.524 . S
C1101 C1098 1.403 . S
C1101 C1102 1.392 . S
C1101 C1105 1.495 1_554 S
C1102 C1101 1.392 . S
C1102 C1103 1.385 . S
C1102 C1104 1.478 . S
C1103 H1097 0.930 . S
C1103 C1099 1.400 . S
C1103 C1102 1.385 . S
C1104 C1102 1.478 . S
C1104 C1106 1.381 1_554 S
C1104 C1110 1.383 . S
C1105 C1101 1.495 1_556 S
C1105 H1111 0.959 . S
C1105 H1112 0.961 . S
C1105 H1113 0.960 . S
C1106 C1104 1.381 1_556 S
C1106 C1107 1.394 . S
C1106 H1114 0.930 . S
C1107 C1106 1.394 . S
C1107 C1108 1.383 1_556 S
C1107 H1115 0.929 . S
C1108 C1107 1.383 1_554 S
C1108 C1109 1.377 . S
C1109 H1093 0.930 . S
C1109 C1108 1.377 . S
C1109 C1110 1.379 . S
C1110 H1094 0.931 . S
C1110 C1104 1.383 . S
C1110 C1109 1.379 . S
H1111 C1105 0.959 . S
H1112 C1105 0.961 . S
H1113 C1105 0.960 . S
H1114 C1106 0.930 . S
H1115 C1107 0.929 . S
H1116 C1124 0.929 . S
H1117 C1126 0.930 . S
H1118 C1128 0.930 1_556 S
H1119 C1131 0.928 1_556 S
H1120 C1134 0.930 . S
H1121 C1136 0.960 . S
H1122 C1136 0.960 . S
H1123 C1136 0.960 . S
C1124 H1116 0.929 . S
C1124 C1125 1.377 . S
C1124 C1126 1.384 . S
C1125 C1124 1.377 . S
C1125 C1131 1.391 . S
C1126 H1117 0.930 . S
C1126 C1124 1.384 . S
C1126 C1127 1.372 . S
C1127 C1126 1.372 . S
C1127 C1128 1.400 . S
C1127 C1132 1.490 . S
C1128 H1118 0.930 1_554 S
C1128 C1127 1.400 . S
C1128 C1131 1.386 . S
H1129 C1145 0.930 . S
H1130 C1146 0.931 . S
C1131 H1119 0.928 1_554 S
C1131 C1125 1.391 . S
C1131 C1128 1.386 . S
C1132 C1127 1.490 . S
C1132 C1134 1.395 . S
C1132 C1135 1.403 . S
H1133 C1139 0.930 . S
C1134 H1120 0.930 . S
C1134 C1132 1.395 . S
C1134 C1137 1.403 . S
C1135 C1132 1.403 . S
C1135 C1136 1.524 1_554 S
C1135 C1139 1.400 . S
C1136 H1121 0.960 . S
C1136 H1122 0.960 . S
C1136 H1123 0.960 . S
C1136 C1135 1.524 1_556 S
C1137 C1134 1.403 . S
C1137 C1138 1.392 . S
C1137 C1141 1.495 . S
C1138 C1137 1.392 . S
C1138 C1139 1.385 . S
C1138 C1140 1.478 . S
C1139 H1133 0.930 . S
C1139 C1135 1.400 . S
C1139 C1138 1.385 . S
C1140 C1138 1.478 . S
C1140 C1142 1.381 . S
C1140 C1146 1.383 . S
C1141 C1137 1.495 . S
C1141 H1147 0.959 . S
C1141 H1148 0.961 . S
C1141 H1149 0.960 . S
C1142 C1140 1.381 . S
C1142 C1143 1.394 . S
C1142 H1150 0.930 . S
C1143 C1142 1.394 . S
C1143 C1144 1.383 . S
C1143 H1151 0.929 . S
C1144 C1143 1.383 . S
C1144 C1145 1.377 . S
C1145 H1129 0.930 . S
C1145 C1144 1.377 . S
C1145 C1146 1.379 . S
C1146 H1130 0.931 . S
C1146 C1140 1.383 . S
C1146 C1145 1.379 . S
H1147 C1141 0.959 . S
H1148 C1141 0.961 . S
H1149 C1141 0.960 . S
H1150 C1142 0.930 . S
H1151 C1143 0.929 . S
H1152 C1160 0.929 . S
H1153 C1162 0.930 . S
H1154 C1164 0.930 . S
H1155 C1167 0.929 . S
H1156 C1170 0.930 . S
H1157 C1172 0.960 . S
H1158 C1172 0.960 . S
H1159 C1172 0.960 . S
C1160 H1152 0.929 . S
C1160 C1161 1.377 . S
C1160 C1162 1.384 1_655 S
C1161 C1160 1.377 . S
C1161 C1167 1.390 . S
C1162 H1153 0.930 . S
C1162 C1160 1.384 1_455 S
C1162 C1163 1.372 . S
C1163 C1162 1.372 . S
C1163 C1164 1.400 . S
C1163 C1168 1.490 . S
C1164 H1154 0.930 . S
C1164 C1163 1.400 . S
C1164 C1167 1.386 1_455 S
H1165 C1181 0.930 . S
H1166 C1182 0.931 . S
C1167 H1155 0.929 . S
C1167 C1161 1.390 . S
C1167 C1164 1.386 1_655 S
C1168 C1163 1.490 . S
C1168 C1170 1.395 . S
C1168 C1171 1.403 . S
H1169 C1175 0.930 . S
C1170 H1156 0.930 . S
C1170 C1168 1.395 . S
C1170 C1173 1.403 . S
C1171 C1168 1.403 . S
C1171 C1172 1.524 . S
C1171 C1175 1.400 . S
C1172 H1157 0.960 . S
C1172 H1158 0.960 . S
C1172 H1159 0.960 . S
C1172 C1171 1.524 . S
C1173 C1170 1.403 . S
C1173 C1174 1.392 . S
C1173 C1177 1.495 . S
C1174 C1173 1.392 . S
C1174 C1175 1.385 . S
C1174 C1176 1.478 . S
C1175 H1169 0.930 . S
C1175 C1171 1.400 . S
C1175 C1174 1.385 . S
C1176 C1174 1.478 . S
C1176 C1178 1.381 . S
C1176 C1182 1.383 . S
C1177 C1173 1.495 . S
C1177 H1183 0.959 . S
C1177 H1184 0.961 . S
C1177 H1185 0.960 . S
C1178 C1176 1.381 . S
C1178 C1179 1.394 . S
C1178 H1186 0.930 . S
C1179 C1178 1.394 . S
C1179 C1180 1.383 . S
C1179 H1187 0.929 . S
C1180 C1179 1.383 . S
C1180 C1181 1.377 . S
C1181 H1165 0.930 . S
C1181 C1180 1.377 . S
C1181 C1182 1.379 . S
C1182 H1166 0.931 . S
C1182 C1176 1.383 . S
C1182 C1181 1.379 . S
H1183 C1177 0.959 . S
H1184 C1177 0.961 . S
H1185 C1177 0.960 . S
H1186 C1178 0.930 . S
H1187 C1179 0.929 . S
H1188 C1196 0.929 . S
H1189 C1198 0.930 . S
H1190 C1200 0.930 . S
H1191 C1203 0.929 . S
H1192 C1206 0.930 . S
H1193 C1208 0.960 . S
H1194 C1208 0.960 . S
H1195 C1208 0.960 . S
C1196 H1188 0.929 . S
C1196 C1197 1.377 . S
C1196 C1198 1.384 . S
C1197 C1196 1.377 . S
C1197 C1203 1.390 . S
C1198 H1189 0.930 . S
C1198 C1196 1.384 . S
C1198 C1199 1.372 . S
C1199 C1198 1.372 . S
C1199 C1200 1.400 . S
C1199 C1204 1.490 . S
C1200 H1190 0.930 . S
C1200 C1199 1.400 . S
C1200 C1203 1.386 . S
H1201 C1217 0.930 . S
H1202 C1218 0.931 . S
C1203 H1191 0.929 . S
C1203 C1197 1.390 . S
C1203 C1200 1.386 . S
C1204 C1199 1.490 . S
C1204 C1206 1.395 . S
C1204 C1207 1.403 . S
H1205 C1211 0.930 . S
C1206 H1192 0.930 . S
C1206 C1204 1.395 . S
C1206 C1209 1.403 . S
C1207 C1204 1.403 . S
C1207 C1208 1.524 . S
C1207 C1211 1.400 . S
C1208 H1193 0.960 . S
C1208 H1194 0.960 . S
C1208 H1195 0.960 . S
C1208 C1207 1.524 . S
C1209 C1206 1.403 . S
C1209 C1210 1.392 . S
C1209 C1213 1.495 . S
C1210 C1209 1.392 . S
C1210 C1211 1.385 . S
C1210 C1212 1.478 . S
C1211 H1205 0.930 . S
C1211 C1207 1.400 . S
C1211 C1210 1.385 . S
C1212 C1210 1.478 . S
C1212 C1214 1.381 . S
C1212 C1218 1.383 . S
C1213 C1209 1.495 . S
C1213 H1219 0.959 . S
C1213 H1220 0.961 . S
C1213 H1221 0.960 . S
C1214 C1212 1.381 . S
C1214 C1215 1.394 . S
C1214 H1222 0.930 . S
C1215 C1214 1.394 . S
C1215 C1216 1.383 . S
C1215 H1223 0.929 . S
C1216 C1215 1.383 . S
C1216 C1217 1.377 . S
C1217 H1201 0.930 . S
C1217 C1216 1.377 . S
C1217 C1218 1.379 . S
C1218 H1202 0.931 . S
C1218 C1212 1.383 . S
C1218 C1217 1.379 . S
H1219 C1213 0.959 . S
H1220 C1213 0.961 . S
H1221 C1213 0.960 . S
H1222 C1214 0.930 . S
H1223 C1215 0.929 . S
H1224 C1232 0.929 . S
H1225 C1234 0.930 . S
H1226 C1236 0.930 . S
H1227 C1239 0.929 . S
H1228 C1242 0.930 1_545 S
H1229 C1244 0.960 . S
H1230 C1244 0.960 . S
H1231 C1244 0.960 . S
C1232 H1224 0.929 . S
C1232 C1233 1.377 . S
C1232 C1234 1.384 . S
C1233 C1232 1.377 . S
C1233 C1239 1.390 . S
C1234 H1225 0.930 . S
C1234 C1232 1.384 . S
C1234 C1235 1.372 . S
C1235 C1234 1.372 . S
C1235 C1236 1.400 . S
C1235 C1240 1.490 . S
C1236 H1226 0.930 . S
C1236 C1235 1.400 . S
C1236 C1239 1.386 . S
H1237 C1253 0.930 . S
H1238 C1254 0.931 . S
C1239 H1227 0.929 . S
C1239 C1233 1.390 . S
C1239 C1236 1.386 . S
C1240 C1235 1.490 . S
C1240 C1242 1.383 1_545 S
C1240 C1243 1.403 . S
H1241 C1247 0.930 . S
C1242 H1228 0.930 1_565 S
C1242 C1240 1.383 1_565 S
C1242 C1245 1.415 . S
C1243 C1240 1.403 . S
C1243 C1244 1.524 . S
C1243 C1247 1.400 1_545 S
C1244 H1229 0.960 . S
C1244 H1230 0.960 . S
C1244 H1231 0.960 . S
C1244 C1243 1.524 . S
C1245 C1242 1.415 . S
C1245 C1246 1.392 . S
C1245 C1249 1.495 . S
C1246 C1245 1.392 . S
C1246 C1247 1.385 . S
C1246 C1248 1.478 . S
C1247 H1241 0.930 . S
C1247 C1243 1.400 1_565 S
C1247 C1246 1.385 . S
C1248 C1246 1.478 . S
C1248 C1250 1.381 . S
C1248 C1254 1.383 . S
C1249 C1245 1.495 . S
C1249 H1255 0.959 . S
C1249 H1256 0.961 . S
C1249 H1257 0.960 . S
C1250 C1248 1.381 . S
C1250 C1251 1.394 . S
C1250 H1258 0.930 . S
C1251 C1250 1.394 . S
C1251 C1252 1.383 . S
C1251 H1259 0.929 . S
C1252 C1251 1.383 . S
C1252 C1253 1.377 . S
C1253 H1237 0.930 . S
C1253 C1252 1.377 . S
C1253 C1254 1.379 . S
C1254 H1238 0.931 . S
C1254 C1248 1.383 . S
C1254 C1253 1.379 . S
H1255 C1249 0.959 . S
H1256 C1249 0.961 . S
H1257 C1249 0.960 . S
H1258 C1250 0.930 . S
H1259 C1251 0.929 . S
H1260 C1268 0.929 . S
H1261 C1270 0.930 . S
H1262 C1272 0.930 . S
H1263 C1275 0.929 . S
H1264 C1278 0.930 . S
H1265 C1280 0.960 . S
H1266 C1280 0.960 . S
H1267 C1280 0.960 . S
C1268 H1260 0.929 . S
C1268 C1269 1.377 . S
C1268 C1270 1.384 . S
C1269 C1268 1.377 . S
C1269 C1275 1.390 . S
C1270 H1261 0.930 . S
C1270 C1268 1.384 . S
C1270 C1271 1.372 . S
C1271 C1270 1.372 . S
C1271 C1272 1.400 . S
C1271 C1276 1.490 . S
C1272 H1262 0.930 . S
C1272 C1271 1.400 . S
C1272 C1275 1.386 . S
H1273 C1289 0.930 . S
H1274 C1290 0.931 . S
C1275 H1263 0.929 . S
C1275 C1269 1.390 . S
C1275 C1272 1.386 . S
C1276 C1271 1.490 . S
C1276 C1278 1.395 . S
C1276 C1279 1.403 . S
H1277 C1283 0.930 . S
C1278 H1264 0.930 . S
C1278 C1276 1.395 . S
C1278 C1281 1.403 . S
C1279 C1276 1.403 . S
C1279 C1280 1.524 . S
C1279 C1283 1.400 . S
C1280 H1265 0.960 . S
C1280 H1266 0.960 . S
C1280 H1267 0.960 . S
C1280 C1279 1.524 . S
C1281 C1278 1.403 . S
C1281 C1282 1.392 . S
C1281 C1285 1.495 . S
C1282 C1281 1.392 . S
C1282 C1283 1.385 . S
C1282 C1284 1.478 . S
C1283 H1277 0.930 . S
C1283 C1279 1.400 . S
C1283 C1282 1.385 . S
C1284 C1282 1.478 . S
C1284 C1286 1.381 . S
C1284 C1290 1.383 . S
C1285 C1281 1.495 . S
C1285 H1291 0.959 . S
C1285 H1292 0.961 . S
C1285 H1293 0.960 . S
C1286 C1284 1.381 . S
C1286 C1287 1.394 1_545 S
C1286 H1294 0.930 . S
C1287 C1286 1.394 1_565 S
C1287 C1288 1.383 . S
C1287 H1295 0.929 . S
C1288 C1287 1.383 . S
C1288 C1289 1.377 . S
C1289 H1273 0.930 . S
C1289 C1288 1.377 . S
C1289 C1290 1.379 1_565 S
C1290 H1274 0.931 . S
C1290 C1284 1.383 . S
C1290 C1289 1.379 1_545 S
H1291 C1285 0.959 . S
H1292 C1285 0.961 . S
H1293 C1285 0.960 . S
H1294 C1286 0.930 . S
H1295 C1287 0.929 . S
H1296 C1304 0.929 . S
H1297 C1306 0.930 . S
H1298 C1308 0.930 . S
H1299 C1311 0.929 . S
H1300 C1314 0.930 . S
H1301 C1316 0.878 1_655 S
H1302 C1316 0.960 . S
H1303 C1316 0.960 . S
C1304 H1296 0.929 . S
C1304 C1305 1.377 . S
C1304 C1306 1.384 . S
C1305 C1304 1.377 . S
C1305 C1311 1.390 . S
C1306 H1297 0.930 . S
C1306 C1304 1.384 . S
C1306 C1307 1.372 . S
C1307 C1306 1.372 . S
C1307 C1308 1.400 . S
C1307 C1312 1.490 . S
C1308 H1298 0.930 . S
C1308 C1307 1.400 . S
C1308 C1311 1.386 . S
H1309 C1325 0.930 . S
H1310 C1326 0.931 . S
C1311 H1299 0.929 . S
C1311 C1305 1.390 . S
C1311 C1308 1.386 . S
C1312 C1307 1.490 . S
C1312 C1314 1.395 . S
C1312 C1315 1.403 . S
H1313 C1319 0.930 . S
C1314 H1300 0.930 . S
C1314 C1312 1.395 . S
C1314 C1317 1.403 1_455 S
C1315 C1312 1.403 . S
C1315 C1316 1.524 . S
C1315 C1319 1.400 1_455 S
C1316 H1301 0.878 1_455 S
C1316 H1302 0.960 . S
C1316 H1303 0.960 . S
C1316 C1315 1.524 . S
C1317 C1314 1.403 1_655 S
C1317 C1318 1.392 . S
C1317 C1321 1.495 . S
C1318 C1317 1.392 . S
C1318 C1319 1.385 . S
C1318 C1320 1.478 . S
C1319 H1313 0.930 . S
C1319 C1315 1.400 1_655 S
C1319 C1318 1.385 . S
C1320 C1318 1.478 . S
C1320 C1322 1.381 . S
C1320 C1326 1.383 . S
C1321 C1317 1.495 . S
C1321 H1327 0.959 . S
C1321 H1328 0.961 . S
C1321 H1329 0.960 . S
C1322 C1320 1.381 . S
C1322 C1323 1.394 . S
C1322 H1330 0.930 . S
C1323 C1322 1.394 . S
C1323 C1324 1.383 . S
C1323 H1331 0.929 . S
C1324 C1323 1.383 . S
C1324 C1325 1.377 . S
C1325 H1309 0.930 . S
C1325 C1324 1.377 . S
C1325 C1326 1.379 . S
C1326 H1310 0.931 . S
C1326 C1320 1.383 . S
C1326 C1325 1.379 . S
H1327 C1321 0.959 . S
H1328 C1321 0.961 . S
H1329 C1321 0.960 . S
H1330 C1322 0.930 . S
H1331 C1323 0.929 . S
H1332 C1340 0.929 . S
H1333 C1342 0.930 . S
H1334 C1344 0.930 . S
H1335 C1347 0.929 . S
H1336 C1350 0.930 . S
H1337 C1352 0.960 . S
H1338 C1352 0.960 . S
H1339 C1352 0.960 . S
C1340 H1332 0.929 . S
C1340 C1341 1.377 . S
C1340 C1342 1.384 . S
C1341 C1340 1.377 . S
C1341 C1347 1.390 . S
C1342 H1333 0.930 . S
C1342 C1340 1.384 . S
C1342 C1343 1.372 . S
C1343 C1342 1.372 . S
C1343 C1344 1.400 . S
C1343 C1348 1.490 . S
C1344 H1334 0.930 . S
C1344 C1343 1.400 . S
C1344 C1347 1.386 . S
H1345 C1361 0.930 . S
H1346 C1362 0.931 . S
C1347 H1335 0.929 . S
C1347 C1341 1.390 . S
C1347 C1344 1.386 . S
C1348 C1343 1.490 . S
C1348 C1350 1.395 . S
C1348 C1351 1.403 . S
H1349 C1355 0.930 . S
C1350 H1336 0.930 . S
C1350 C1348 1.395 . S
C1350 C1353 1.403 . S
C1351 C1348 1.403 . S
C1351 C1352 1.524 . S
C1351 C1355 1.400 . S
C1352 H1337 0.960 . S
C1352 H1338 0.960 . S
C1352 H1339 0.960 . S
C1352 C1351 1.524 . S
C1353 C1350 1.403 . S
C1353 C1354 1.392 . S
C1353 C1357 1.495 . S
C1354 C1353 1.392 . S
C1354 C1355 1.385 . S
C1354 C1356 1.478 . S
C1355 H1349 0.930 . S
C1355 C1351 1.400 . S
C1355 C1354 1.385 . S
C1356 C1354 1.478 . S
C1356 C1358 1.381 . S
C1356 C1362 1.383 . S
C1357 C1353 1.495 . S
C1357 H1363 0.959 . S
C1357 H1364 0.961 . S
C1357 H1365 0.960 . S
C1358 C1356 1.381 . S
C1358 C1359 1.394 . S
C1358 H1366 0.930 . S
C1359 C1358 1.394 . S
C1359 C1360 1.383 . S
C1359 H1367 0.929 . S
C1360 C1359 1.383 . S
C1360 C1361 1.377 . S
C1361 H1345 0.930 . S
C1361 C1360 1.377 . S
C1361 C1362 1.379 . S
C1362 H1346 0.931 . S
C1362 C1356 1.383 . S
C1362 C1361 1.379 . S
H1363 C1357 0.959 . S
H1364 C1357 0.961 . S
H1365 C1357 0.960 . S
H1366 C1358 0.930 . S
H1367 C1359 0.929 . S
H1368 C1376 0.929 . S
H1369 C1378 0.930 . S
H1370 C1380 0.930 . S
H1371 C1383 0.929 . S
H1372 C1386 0.930 . S
H1373 C1388 0.960 . S
H1374 C1388 0.960 . S
H1375 C1388 0.960 . S
C1376 H1368 0.929 . S
C1376 C1377 1.377 . S
C1376 C1378 1.384 . S
C1377 C1376 1.377 . S
C1377 C1383 1.390 . S
C1378 H1369 0.930 . S
C1378 C1376 1.384 . S
C1378 C1379 1.372 . S
C1379 C1378 1.372 . S
C1379 C1380 1.400 . S
C1379 C1384 1.490 . S
C1380 H1370 0.930 . S
C1380 C1379 1.400 . S
C1380 C1383 1.386 . S
H1381 C1397 0.930 . S
H1382 C1398 0.931 . S
C1383 H1371 0.929 . S
C1383 C1377 1.390 . S
C1383 C1380 1.386 . S
C1384 C1379 1.490 . S
C1384 C1386 1.395 . S
C1384 C1387 1.403 . S
H1385 C1391 0.930 . S
C1386 H1372 0.930 . S
C1386 C1384 1.395 . S
C1386 C1389 1.403 . S
C1387 C1384 1.403 . S
C1387 C1388 1.524 . S
C1387 C1391 1.400 . S
C1388 H1373 0.960 . S
C1388 H1374 0.960 . S
C1388 H1375 0.960 . S
C1388 C1387 1.524 . S
C1389 C1386 1.403 . S
C1389 C1390 1.392 . S
C1389 C1393 1.495 . S
C1390 C1389 1.392 . S
C1390 C1391 1.385 . S
C1390 C1392 1.478 . S
C1391 H1385 0.930 . S
C1391 C1387 1.400 . S
C1391 C1390 1.385 . S
C1392 C1390 1.478 . S
C1392 C1394 1.381 . S
C1392 C1398 1.383 . S
C1393 C1389 1.495 . S
C1393 H1399 0.959 . S
C1393 H1400 0.961 . S
C1393 H1401 0.960 . S
C1394 C1392 1.381 . S
C1394 C1395 1.394 . S
C1394 H1402 0.930 . S
C1395 C1394 1.394 . S
C1395 C1396 1.383 . S
C1395 H1403 0.929 . S
C1396 C1395 1.383 . S
C1396 C1397 1.377 . S
C1397 H1381 0.930 . S
C1397 C1396 1.377 . S
C1397 C1398 1.379 . S
C1398 H1382 0.931 . S
C1398 C1392 1.383 . S
C1398 C1397 1.379 . S
H1399 C1393 0.959 . S
H1400 C1393 0.961 . S
H1401 C1393 0.960 . S
H1402 C1394 0.930 . S
H1403 C1395 0.929 . S
H1404 C1412 0.929 . S
H1405 C1414 0.930 . S
H1406 C1416 0.930 . S
H1407 C1419 0.929 . S
H1408 C1422 0.930 . S
H1409 C1424 0.960 . S
H1410 C1424 0.960 . S
H1411 C1424 0.960 . S
C1412 H1404 0.929 . S
C1412 C1413 1.377 . S
C1412 C1414 1.384 . S
C1413 C1412 1.377 . S
C1413 C1419 1.390 . S
C1414 H1405 0.930 . S
C1414 C1412 1.384 . S
C1414 C1415 1.372 . S
C1415 C1414 1.372 . S
C1415 C1416 1.400 . S
C1415 C1420 1.490 . S
C1416 H1406 0.930 . S
C1416 C1415 1.400 . S
C1416 C1419 1.386 . S
H1417 C1433 0.930 . S
H1418 C1434 0.931 . S
C1419 H1407 0.929 . S
C1419 C1413 1.390 . S
C1419 C1416 1.386 . S
C1420 C1415 1.490 . S
C1420 C1422 1.395 . S
C1420 C1423 1.403 . S
H1421 C1427 0.930 . S
C1422 H1408 0.930 . S
C1422 C1420 1.395 . S
C1422 C1425 1.403 . S
C1423 C1420 1.403 . S
C1423 C1424 1.524 . S
C1423 C1427 1.400 . S
C1424 H1409 0.960 . S
C1424 H1410 0.960 . S
C1424 H1411 0.960 . S
C1424 C1423 1.524 . S
C1425 C1422 1.403 . S
C1425 C1426 1.392 . S
C1425 C1429 1.495 . S
C1426 C1425 1.392 . S
C1426 C1427 1.385 . S
C1426 C1428 1.478 . S
C1427 H1421 0.930 . S
C1427 C1423 1.400 . S
C1427 C1426 1.385 . S
C1428 C1426 1.478 . S
C1428 C1430 1.381 . S
C1428 C1434 1.383 . S
C1429 C1425 1.495 . S
C1429 H1435 0.959 . S
C1429 H1436 0.961 . S
C1429 H1437 0.960 . S
C1430 C1428 1.381 . S
C1430 C1431 1.394 . S
C1430 H1438 0.930 . S
C1431 C1430 1.394 . S
C1431 C1432 1.383 . S
C1431 H1439 0.929 . S
C1432 C1431 1.383 . S
C1432 C1433 1.377 . S
C1433 H1417 0.930 . S
C1433 C1432 1.377 . S
C1433 C1434 1.379 . S
C1434 H1418 0.931 . S
C1434 C1428 1.383 . S
C1434 C1433 1.379 . S
H1435 C1429 0.959 . S
H1436 C1429 0.961 . S
H1437 C1429 0.960 . S
H1438 C1430 0.930 . S
H1439 C1431 0.929 . S
H1440 C1448 0.929 . S
H1441 C1450 0.930 . S
H1442 C1452 0.930 . S
H1443 C1455 0.929 . S
H1444 C1458 0.930 . S
H1445 C1460 0.960 . S
H1446 C1460 0.960 . S
H1447 C1460 0.960 . S
C1448 H1440 0.929 . S
C1448 C1449 1.377 . S
C1448 C1450 1.384 . S
C1449 C1448 1.377 . S
C1449 C1455 1.390 . S
C1450 H1441 0.930 . S
C1450 C1448 1.384 . S
C1450 C1451 1.372 . S
C1451 C1450 1.372 . S
C1451 C1452 1.400 . S
C1451 C1456 1.490 . S
C1452 H1442 0.930 . S
C1452 C1451 1.400 . S
C1452 C1455 1.386 . S
H1453 C1469 0.930 . S
H1454 C1470 0.931 . S
C1455 H1443 0.929 . S
C1455 C1449 1.390 . S
C1455 C1452 1.386 . S
C1456 C1451 1.490 . S
C1456 C1458 1.395 . S
C1456 C1459 1.403 . S
H1457 C1463 0.930 . S
C1458 H1444 0.930 . S
C1458 C1456 1.395 . S
C1458 C1461 1.403 . S
C1459 C1456 1.403 . S
C1459 C1460 1.524 . S
C1459 C1463 1.400 . S
C1460 H1445 0.960 . S
C1460 H1446 0.960 . S
C1460 H1447 0.960 . S
C1460 C1459 1.524 . S
C1461 C1458 1.403 . S
C1461 C1462 1.392 . S
C1461 C1465 1.495 . S
C1462 C1461 1.392 . S
C1462 C1463 1.385 . S
C1462 C1464 1.478 . S
C1463 H1457 0.930 . S
C1463 C1459 1.400 . S
C1463 C1462 1.385 . S
C1464 C1462 1.478 . S
C1464 C1466 1.381 . S
C1464 C1470 1.383 . S
C1465 C1461 1.495 . S
C1465 H1471 0.959 . S
C1465 H1472 0.961 . S
C1465 H1473 0.960 . S
C1466 C1464 1.381 . S
C1466 C1467 1.394 . S
C1466 H1474 0.930 . S
C1467 C1466 1.394 . S
C1467 C1468 1.383 . S
C1467 H1475 0.929 . S
C1468 C1467 1.383 . S
C1468 C1469 1.377 . S
C1469 H1453 0.930 . S
C1469 C1468 1.377 . S
C1469 C1470 1.379 . S
C1470 H1454 0.931 . S
C1470 C1464 1.383 . S
C1470 C1469 1.379 . S
H1471 C1465 0.959 . S
H1472 C1465 0.961 . S
H1473 C1465 0.960 . S
H1474 C1466 0.930 . S
H1475 C1467 0.929 . S
H1476 C1484 0.929 . S
H1477 C1486 0.930 . S
H1478 C1488 0.930 . S
H1479 C1491 0.929 . S
H1480 C1494 0.930 . S
H1481 C1496 0.960 . S
H1482 C1496 0.960 . S
H1483 C1496 0.960 . S
C1484 H1476 0.929 . S
C1484 C1485 1.377 . S
C1484 C1486 1.384 . S
C1485 C1484 1.377 . S
C1485 C1491 1.390 . S
C1486 H1477 0.930 . S
C1486 C1484 1.384 . S
C1486 C1487 1.372 . S
C1487 C1486 1.372 . S
C1487 C1488 1.400 . S
C1487 C1492 1.490 . S
C1488 H1478 0.930 . S
C1488 C1487 1.400 . S
C1488 C1491 1.386 . S
H1489 C1505 0.930 . S
H1490 C1506 0.931 . S
C1491 H1479 0.929 . S
C1491 C1485 1.390 . S
C1491 C1488 1.386 . S
C1492 C1487 1.490 . S
C1492 C1494 1.395 . S
C1492 C1495 1.403 . S
H1493 C1499 0.930 . S
C1494 H1480 0.930 . S
C1494 C1492 1.395 . S
C1494 C1497 1.403 . S
C1495 C1492 1.403 . S
C1495 C1496 1.524 . S
C1495 C1499 1.400 . S
C1496 H1481 0.960 . S
C1496 H1482 0.960 . S
C1496 H1483 0.960 . S
C1496 C1495 1.524 . S
C1497 C1494 1.403 . S
C1497 C1498 1.392 . S
C1497 C1501 1.495 . S
C1498 C1497 1.392 . S
C1498 C1499 1.385 . S
C1498 C1500 1.478 . S
C1499 H1493 0.930 . S
C1499 C1495 1.400 . S
C1499 C1498 1.385 . S
C1500 C1498 1.478 . S
C1500 C1502 1.381 . S
C1500 C1506 1.383 . S
C1501 C1497 1.495 . S
C1501 H1507 0.959 . S
C1501 H1508 0.961 . S
C1501 H1509 0.960 . S
C1502 C1500 1.381 . S
C1502 C1503 1.394 . S
C1502 H1510 0.930 . S
C1503 C1502 1.394 . S
C1503 C1504 1.383 . S
C1503 H1511 0.929 . S
C1504 C1503 1.383 . S
C1504 C1505 1.377 . S
C1505 H1489 0.930 . S
C1505 C1504 1.377 . S
C1505 C1506 1.379 . S
C1506 H1490 0.931 . S
C1506 C1500 1.383 . S
C1506 C1505 1.379 . S
H1507 C1501 0.959 . S
H1508 C1501 0.961 . S
H1509 C1501 0.960 . S
H1510 C1502 0.930 . S
H1511 C1503 0.929 . S
H1512 C1520 0.929 . S
H1513 C1522 0.930 . S
H1514 C1524 0.930 . S
H1515 C1527 0.929 . S
H1516 C1530 0.930 . S
H1517 C1532 0.960 . S
H1518 C1532 0.960 . S
H1519 C1532 0.960 . S
C1520 H1512 0.929 . S
C1520 C1521 1.377 . S
C1520 C1522 1.384 . S
C1521 C1520 1.377 . S
C1521 C1527 1.390 . S
C1522 H1513 0.930 . S
C1522 C1520 1.384 . S
C1522 C1523 1.372 . S
C1523 C1522 1.372 . S
C1523 C1524 1.400 . S
C1523 C1528 1.490 . S
C1524 H1514 0.930 . S
C1524 C1523 1.400 . S
C1524 C1527 1.386 . S
H1525 C1541 0.930 . S
H1526 C1542 0.931 . S
C1527 H1515 0.929 . S
C1527 C1521 1.390 . S
C1527 C1524 1.386 . S
C1528 C1523 1.490 . S
C1528 C1530 1.395 . S
C1528 C1531 1.403 . S
H1529 C1535 0.930 . S
C1530 H1516 0.930 . S
C1530 C1528 1.395 . S
C1530 C1533 1.403 . S
C1531 C1528 1.403 . S
C1531 C1532 1.524 . S
C1531 C1535 1.400 . S
C1532 H1517 0.960 . S
C1532 H1518 0.960 . S
C1532 H1519 0.960 . S
C1532 C1531 1.524 . S
C1533 C1530 1.403 . S
C1533 C1534 1.392 . S
C1533 C1537 1.495 . S
C1534 C1533 1.392 . S
C1534 C1535 1.385 . S
C1534 C1536 1.478 . S
C1535 H1529 0.930 . S
C1535 C1531 1.400 . S
C1535 C1534 1.385 . S
C1536 C1534 1.478 . S
C1536 C1538 1.381 . S
C1536 C1542 1.383 . S
C1537 C1533 1.495 . S
C1537 H1543 0.959 . S
C1537 H1544 0.961 . S
C1537 H1545 0.960 . S
C1538 C1536 1.381 . S
C1538 C1539 1.394 . S
C1538 H1546 0.930 . S
C1539 C1538 1.394 . S
C1539 C1540 1.383 . S
C1539 H1547 0.929 . S
C1540 C1539 1.383 . S
C1540 C1541 1.377 . S
C1541 H1525 0.930 . S
C1541 C1540 1.377 . S
C1541 C1542 1.379 . S
C1542 H1526 0.931 . S
C1542 C1536 1.383 . S
C1542 C1541 1.379 . S
H1543 C1537 0.959 . S
H1544 C1537 0.961 . S
H1545 C1537 0.960 . S
H1546 C1538 0.930 . S
H1547 C1539 0.929 . S
H1548 C1556 0.929 . S
H1549 C1558 0.930 . S
H1550 C1560 0.930 . S
H1551 C1563 0.929 . S
H1552 C1566 0.930 . S
H1553 C1568 0.960 . S
H1554 C1568 0.960 . S
H1555 C1568 0.960 . S
C1556 H1548 0.929 . S
C1556 C1557 1.377 . S
C1556 C1558 1.384 . S
C1557 C1556 1.377 . S
C1557 C1563 1.390 . S
C1558 H1549 0.930 . S
C1558 C1556 1.384 . S
C1558 C1559 1.372 . S
C1559 C1558 1.372 . S
C1559 C1560 1.400 . S
C1559 C1564 1.490 . S
C1560 H1550 0.930 . S
C1560 C1559 1.400 . S
C1560 C1563 1.386 . S
H1561 C1577 0.930 . S
H1562 C1578 0.931 . S
C1563 H1551 0.929 . S
C1563 C1557 1.390 . S
C1563 C1560 1.386 . S
C1564 C1559 1.490 . S
C1564 C1566 1.395 . S
C1564 C1567 1.403 . S
H1565 C1571 0.930 . S
C1566 H1552 0.930 . S
C1566 C1564 1.395 . S
C1566 C1569 1.403 . S
C1567 C1564 1.403 . S
C1567 C1568 1.524 . S
C1567 C1571 1.400 . S
C1568 H1553 0.960 . S
C1568 H1554 0.960 . S
C1568 H1555 0.960 . S
C1568 C1567 1.524 . S
C1569 C1566 1.403 . S
C1569 C1570 1.392 . S
C1569 C1573 1.495 . S
C1570 C1569 1.392 . S
C1570 C1571 1.385 . S
C1570 C1572 1.478 . S
C1571 H1565 0.930 . S
C1571 C1567 1.400 . S
C1571 C1570 1.385 . S
C1572 C1570 1.478 . S
C1572 C1574 1.381 . S
C1572 C1578 1.383 . S
C1573 C1569 1.495 . S
C1573 H1579 0.959 . S
C1573 H1580 0.961 . S
C1573 H1581 0.960 . S
C1574 C1572 1.381 . S
C1574 C1575 1.394 . S
C1574 H1582 0.930 . S
C1575 C1574 1.394 . S
C1575 C1576 1.383 . S
C1575 H1583 0.929 . S
C1576 C1575 1.383 . S
C1576 C1577 1.377 . S
C1577 H1561 0.930 . S
C1577 C1576 1.377 . S
C1577 C1578 1.379 . S
C1578 H1562 0.931 . S
C1578 C1572 1.383 . S
C1578 C1577 1.379 . S
H1579 C1573 0.959 . S
H1580 C1573 0.961 . S
H1581 C1573 0.960 . S
H1582 C1574 0.930 . S
H1583 C1575 0.929 . S
H1584 C1592 0.929 . S
H1585 C1594 0.930 . S
H1586 C1596 0.930 . S
H1587 C1599 0.929 . S
H1588 C1602 0.930 . S
H1589 C1604 0.960 . S
H1590 C1604 0.960 . S
H1591 C1604 0.960 . S
C1592 H1584 0.929 . S
C1592 C1593 1.377 . S
C1592 C1594 1.384 . S
C1593 C1592 1.377 . S
C1593 C1599 1.390 . S
C1594 H1585 0.930 . S
C1594 C1592 1.384 . S
C1594 C1595 1.372 . S
C1595 C1594 1.372 . S
C1595 C1596 1.400 . S
C1595 C1600 1.490 . S
C1596 H1586 0.930 . S
C1596 C1595 1.400 . S
C1596 C1599 1.386 . S
H1597 C1613 0.930 . S
H1598 C1614 0.931 . S
C1599 H1587 0.929 . S
C1599 C1593 1.390 . S
C1599 C1596 1.386 . S
C1600 C1595 1.490 . S
C1600 C1602 1.395 . S
C1600 C1603 1.403 . S
H1601 C1607 0.930 . S
C1602 H1588 0.930 . S
C1602 C1600 1.395 . S
C1602 C1605 1.403 . S
C1603 C1600 1.403 . S
C1603 C1604 1.524 . S
C1603 C1607 1.400 . S
C1604 H1589 0.960 . S
C1604 H1590 0.960 . S
C1604 H1591 0.960 . S
C1604 C1603 1.524 . S
C1605 C1602 1.403 . S
C1605 C1606 1.392 . S
C1605 C1609 1.495 . S
C1606 C1605 1.392 . S
C1606 C1607 1.385 . S
C1606 C1608 1.478 . S
C1607 H1601 0.930 . S
C1607 C1603 1.400 . S
C1607 C1606 1.385 . S
C1608 C1606 1.478 . S
C1608 C1610 1.381 . S
C1608 C1614 1.383 . S
C1609 C1605 1.495 . S
C1609 H1615 0.959 . S
C1609 H1616 0.961 . S
C1609 H1617 0.960 . S
C1610 C1608 1.381 . S
C1610 C1611 1.394 . S
C1610 H1618 0.930 . S
C1611 C1610 1.394 . S
C1611 C1612 1.383 . S
C1611 H1619 0.929 . S
C1612 C1611 1.383 . S
C1612 C1613 1.377 . S
C1613 H1597 0.930 . S
C1613 C1612 1.377 . S
C1613 C1614 1.379 . S
C1614 H1598 0.931 . S
C1614 C1608 1.383 . S
C1614 C1613 1.379 . S
H1615 C1609 0.959 . S
H1616 C1609 0.961 . S
H1617 C1609 0.960 . S
H1618 C1610 0.930 . S
H1619 C1611 0.929 . S
H1620 C1628 0.929 . S
H1621 C1630 0.930 . S
H1622 C1632 0.930 . S
H1623 C1635 0.929 . S
H1624 C1638 0.930 . S
H1625 C1640 0.960 . S
H1626 C1640 0.960 . S
H1627 C1640 0.960 . S
C1628 H1620 0.929 . S
C1628 C1629 1.377 . S
C1628 C1630 1.384 . S
C1629 C1628 1.377 . S
C1629 C1635 1.390 . S
C1630 H1621 0.930 . S
C1630 C1628 1.384 . S
C1630 C1631 1.372 . S
C1631 C1630 1.372 . S
C1631 C1632 1.400 . S
C1631 C1636 1.490 . S
C1632 H1622 0.930 . S
C1632 C1631 1.400 . S
C1632 C1635 1.386 . S
H1633 C1649 0.930 . S
H1634 C1650 0.931 . S
C1635 H1623 0.929 . S
C1635 C1629 1.390 . S
C1635 C1632 1.386 . S
C1636 C1631 1.490 . S
C1636 C1638 1.395 . S
C1636 C1639 1.403 . S
H1637 C1643 0.930 . S
C1638 H1624 0.930 . S
C1638 C1636 1.395 . S
C1638 C1641 1.403 . S
C1639 C1636 1.403 . S
C1639 C1640 1.524 . S
C1639 C1643 1.400 . S
C1640 H1625 0.960 . S
C1640 H1626 0.960 . S
C1640 H1627 0.960 . S
C1640 C1639 1.524 . S
C1641 C1638 1.403 . S
C1641 C1642 1.392 . S
C1641 C1645 1.495 . S
C1642 C1641 1.392 . S
C1642 C1643 1.385 . S
C1642 C1644 1.478 . S
C1643 H1637 0.930 . S
C1643 C1639 1.400 . S
C1643 C1642 1.385 . S
C1644 C1642 1.478 . S
C1644 C1646 1.381 . S
C1644 C1650 1.383 . S
C1645 C1641 1.495 . S
C1645 H1651 0.959 . S
C1645 H1652 0.961 . S
C1645 H1653 0.960 . S
C1646 C1644 1.381 . S
C1646 C1647 1.394 . S
C1646 H1654 0.930 . S
C1647 C1646 1.394 . S
C1647 C1648 1.383 . S
C1647 H1655 0.929 . S
C1648 C1647 1.383 . S
C1648 C1649 1.377 . S
C1649 H1633 0.930 . S
C1649 C1648 1.377 . S
C1649 C1650 1.379 . S
C1650 H1634 0.931 . S
C1650 C1644 1.383 . S
C1650 C1649 1.379 . S
H1651 C1645 0.959 . S
H1652 C1645 0.961 . S
H1653 C1645 0.960 . S
H1654 C1646 0.930 . S
H1655 C1647 0.929 . S
H1656 C1664 0.929 . S
H1657 C1666 0.930 . S
H1658 C1668 0.930 . S
H1659 C1671 0.929 . S
H1660 C1674 0.930 . S
H1661 C1676 0.960 . S
H1662 C1676 0.960 . S
H1663 C1676 0.960 . S
C1664 H1656 0.929 . S
C1664 C1665 1.377 . S
C1664 C1666 1.384 . S
C1665 C1664 1.377 . S
C1665 C1671 1.390 . S
C1666 H1657 0.930 . S
C1666 C1664 1.384 . S
C1666 C1667 1.372 . S
C1667 C1666 1.372 . S
C1667 C1668 1.400 . S
C1667 C1672 1.490 . S
C1668 H1658 0.930 . S
C1668 C1667 1.400 . S
C1668 C1671 1.386 . S
H1669 C1685 0.930 . S
H1670 C1686 0.931 . S
C1671 H1659 0.929 . S
C1671 C1665 1.390 . S
C1671 C1668 1.386 . S
C1672 C1667 1.490 . S
C1672 C1674 1.395 . S
C1672 C1675 1.403 . S
H1673 C1679 0.930 . S
C1674 H1660 0.930 . S
C1674 C1672 1.395 . S
C1674 C1677 1.403 . S
C1675 C1672 1.403 . S
C1675 C1676 1.524 . S
C1675 C1679 1.400 . S
C1676 H1661 0.960 . S
C1676 H1662 0.960 . S
C1676 H1663 0.960 . S
C1676 C1675 1.524 . S
C1677 C1674 1.403 . S
C1677 C1678 1.392 . S
C1677 C1681 1.495 . S
C1678 C1677 1.392 . S
C1678 C1679 1.385 . S
C1678 C1680 1.478 . S
C1679 H1673 0.930 . S
C1679 C1675 1.400 . S
C1679 C1678 1.385 . S
C1680 C1678 1.478 . S
C1680 C1682 1.381 . S
C1680 C1686 1.383 . S
C1681 C1677 1.495 . S
C1681 H1687 0.959 . S
C1681 H1688 0.961 . S
C1681 H1689 0.960 . S
C1682 C1680 1.381 . S
C1682 C1683 1.394 . S
C1682 H1690 0.930 . S
C1683 C1682 1.394 . S
C1683 C1684 1.383 . S
C1683 H1691 0.929 . S
C1684 C1683 1.383 . S
C1684 C1685 1.377 . S
C1685 H1669 0.930 . S
C1685 C1684 1.377 . S
C1685 C1686 1.379 . S
C1686 H1670 0.931 . S
C1686 C1680 1.383 . S
C1686 C1685 1.379 . S
H1687 C1681 0.959 . S
H1688 C1681 0.961 . S
H1689 C1681 0.960 . S
H1690 C1682 0.930 . S
H1691 C1683 0.929 . S
H1692 C1700 0.929 . S
H1693 C1702 0.930 1_554 S
H1694 C1704 0.930 . S
H1695 C1707 0.929 . S
H1696 C1710 0.930 . S
H1697 C1712 0.960 . S
H1698 C1712 0.960 . S
H1699 C1712 0.960 . S
C1700 H1692 0.929 . S
C1700 C1701 1.377 . S
C1700 C1702 1.384 . S
C1701 C1700 1.377 . S
C1701 C1707 1.390 . S
C1702 H1693 0.930 1_556 S
C1702 C1700 1.384 . S
C1702 C1703 1.372 . S
C1703 C1702 1.372 . S
C1703 C1704 1.400 . S
C1703 C1708 1.490 . S
C1704 H1694 0.930 . S
C1704 C1703 1.400 . S
C1704 C1707 1.386 . S
H1705 C1721 0.930 . S
H1706 C1722 0.931 . S
C1707 H1695 0.929 . S
C1707 C1701 1.390 . S
C1707 C1704 1.386 . S
C1708 C1703 1.490 . S
C1708 C1710 1.395 . S
C1708 C1711 1.403 . S
H1709 C1715 0.930 . S
C1710 H1696 0.930 . S
C1710 C1708 1.395 . S
C1710 C1713 1.403 . S
C1711 C1708 1.403 . S
C1711 C1712 1.524 . S
C1711 C1715 1.400 . S
C1712 H1697 0.960 . S
C1712 H1698 0.960 . S
C1712 H1699 0.960 . S
C1712 C1711 1.524 . S
C1713 C1710 1.403 . S
C1713 C1714 1.392 . S
C1713 C1717 1.495 1_556 S
C1714 C1713 1.392 . S
C1714 C1715 1.385 . S
C1714 C1716 1.478 . S
C1715 H1709 0.930 . S
C1715 C1711 1.400 . S
C1715 C1714 1.385 . S
C1716 C1714 1.478 . S
C1716 C1718 1.381 1_556 S
C1716 C1722 1.383 . S
C1717 C1713 1.495 1_554 S
C1717 H1723 0.959 . S
C1717 H1724 0.961 . S
C1717 H1725 0.960 . S
C1718 C1716 1.381 1_554 S
C1718 C1719 1.394 . S
C1718 H1726 0.930 . S
C1719 C1718 1.394 . S
C1719 C1720 1.385 . S
C1719 H1727 0.929 . S
C1720 C1719 1.385 . S
C1720 C1721 1.374 1_554 S
C1721 H1705 0.930 . S
C1721 C1720 1.374 1_556 S
C1721 C1722 1.379 . S
C1722 H1706 0.931 . S
C1722 C1716 1.383 . S
C1722 C1721 1.379 . S
H1723 C1717 0.959 . S
H1724 C1717 0.961 . S
H1725 C1717 0.960 . S
H1726 C1718 0.930 . S
H1727 C1719 0.929 . S
H1728 C1736 0.929 . S
H1729 C1738 0.930 . S
H1730 C1740 0.930 . S
H1731 C1743 0.929 . S
H1732 C1746 0.930 . S
H1733 C1748 0.960 . S
H1734 C1748 0.960 . S
H1735 C1748 0.960 . S
C1736 H1728 0.929 . S
C1736 C1737 1.377 . S
C1736 C1738 1.384 . S
C1737 C1736 1.377 . S
C1737 C1743 1.390 . S
C1738 H1729 0.930 . S
C1738 C1736 1.384 . S
C1738 C1739 1.372 . S
C1739 C1738 1.372 . S
C1739 C1740 1.400 . S
C1739 C1744 1.490 . S
C1740 H1730 0.930 . S
C1740 C1739 1.400 . S
C1740 C1743 1.386 . S
H1741 C1757 0.930 . S
H1742 C1758 0.931 . S
C1743 H1731 0.929 . S
C1743 C1737 1.390 . S
C1743 C1740 1.386 . S
C1744 C1739 1.490 . S
C1744 C1746 1.395 . S
C1744 C1747 1.403 . S
H1745 C1751 0.930 . S
C1746 H1732 0.930 . S
C1746 C1744 1.395 . S
C1746 C1749 1.403 . S
C1747 C1744 1.403 . S
C1747 C1748 1.524 . S
C1747 C1751 1.400 . S
C1748 H1733 0.960 . S
C1748 H1734 0.960 . S
C1748 H1735 0.960 . S
C1748 C1747 1.524 . S
C1749 C1746 1.403 . S
C1749 C1750 1.392 . S
C1749 C1753 1.495 1_556 S
C1750 C1749 1.392 . S
C1750 C1751 1.385 . S
C1750 C1752 1.478 . S
C1751 H1745 0.930 . S
C1751 C1747 1.400 . S
C1751 C1750 1.385 . S
C1752 C1750 1.478 . S
C1752 C1754 1.381 . S
C1752 C1758 1.383 1_556 S
C1753 C1749 1.495 1_554 S
C1753 H1759 0.959 . S
C1753 H1760 0.961 . S
C1753 H1761 0.960 1_554 S
C1754 C1752 1.381 . S
C1754 C1755 1.394 . S
C1754 H1762 0.930 . S
C1755 C1754 1.394 . S
C1755 C1756 1.381 1_556 S
C1755 H1763 0.929 . S
C1756 C1755 1.381 1_554 S
C1756 C1757 1.378 . S
C1757 H1741 0.930 . S
C1757 C1756 1.378 . S
C1757 C1758 1.379 . S
C1758 H1742 0.931 . S
C1758 C1752 1.383 1_554 S
C1758 C1757 1.379 . S
H1759 C1753 0.959 . S
H1760 C1753 0.961 . S
H1761 C1753 0.960 1_556 S
H1762 C1754 0.930 . S
H1763 C1755 0.929 . S
H1764 C1772 0.929 . S
H1765 C1774 0.930 . S
H1766 C1776 0.930 . S
H1767 C1779 0.929 . S
H1768 C1782 0.930 1_554 S
H1769 C1784 0.960 . S
H1770 C1784 0.960 . S
H1771 C1784 0.960 . S
C1772 H1764 0.929 . S
C1772 C1773 1.377 . S
C1772 C1774 1.384 . S
C1773 C1772 1.377 . S
C1773 C1779 1.390 . S
C1774 H1765 0.930 . S
C1774 C1772 1.384 . S
C1774 C1775 1.372 . S
C1775 C1774 1.372 . S
C1775 C1776 1.400 . S
C1775 C1780 1.490 . S
C1776 H1766 0.930 . S
C1776 C1775 1.400 . S
C1776 C1779 1.386 . S
H1777 C1793 0.930 . S
H1778 C1794 0.931 . S
C1779 H1767 0.929 . S
C1779 C1773 1.390 . S
C1779 C1776 1.386 . S
C1780 C1775 1.490 . S
C1780 C1782 1.395 . S
C1780 C1783 1.403 . S
H1781 C1787 0.930 . S
C1782 H1768 0.930 1_556 S
C1782 C1780 1.395 . S
C1782 C1785 1.403 1_556 S
C1783 C1780 1.403 . S
C1783 C1784 1.524 . S
C1783 C1787 1.400 . S
C1784 H1769 0.960 . S
C1784 H1770 0.960 . S
C1784 H1771 0.960 . S
C1784 C1783 1.524 . S
C1785 C1782 1.403 1_554 S
C1785 C1786 1.392 1_554 S
C1785 C1789 1.495 . S
C1786 C1785 1.392 1_556 S
C1786 C1787 1.385 . S
C1786 C1788 1.478 . S
C1787 H1781 0.930 . S
C1787 C1783 1.400 . S
C1787 C1786 1.385 . S
C1788 C1786 1.478 . S
C1788 C1790 1.381 1_556 S
C1788 C1794 1.383 . S
C1789 C1785 1.495 . S
C1789 H1795 0.959 . S
C1789 H1796 0.961 . S
C1789 H1797 0.960 . S
C1790 C1788 1.381 1_554 S
C1790 C1791 1.394 . S
C1790 H1798 0.930 . S
C1791 C1790 1.394 . S
C1791 C1792 1.383 . S
C1791 H1799 0.929 . S
C1792 C1791 1.383 . S
C1792 C1793 1.377 1_554 S
C1793 H1777 0.930 . S
C1793 C1792 1.377 1_556 S
C1793 C1794 1.379 . S
C1794 H1778 0.931 . S
C1794 C1788 1.383 . S
C1794 C1793 1.379 . S
H1795 C1789 0.959 . S
H1796 C1789 0.961 . S
H1797 C1789 0.960 . S
H1798 C1790 0.930 . S
H1799 C1791 0.929 . S
H1800 C1808 0.929 . S
H1801 C1810 0.930 1_556 S
H1802 C1812 0.930 . S
H1803 C1815 0.929 . S
H1804 C1818 0.930 . S
H1805 C1820 0.960 . S
H1806 C1820 0.960 . S
H1807 C1820 0.960 . S
C1808 H1800 0.929 . S
C1808 C1809 1.377 1_556 S
C1808 C1810 1.384 1_556 S
C1809 C1808 1.377 1_554 S
C1809 C1815 1.390 . S
C1810 H1801 0.930 1_554 S
C1810 C1808 1.384 1_554 S
C1810 C1811 1.372 . S
C1811 C1810 1.372 . S
C1811 C1812 1.400 . S
C1811 C1816 1.490 . S
C1812 H1802 0.930 . S
C1812 C1811 1.400 . S
C1812 C1815 1.386 . S
H1813 C1829 0.930 . S
H1814 C1830 0.931 . S
C1815 H1803 0.929 . S
C1815 C1809 1.390 . S
C1815 C1812 1.386 . S
C1816 C1811 1.490 . S
C1816 C1818 1.395 1_554 S
C1816 C1819 1.403 . S
H1817 C1823 0.930 . S
C1818 H1804 0.930 . S
C1818 C1816 1.395 1_556 S
C1818 C1821 1.403 . S
C1819 C1816 1.403 . S
C1819 C1820 1.524 . S
C1819 C1823 1.400 . S
C1820 H1805 0.960 . S
C1820 H1806 0.960 . S
C1820 H1807 0.960 . S
C1820 C1819 1.524 . S
C1821 C1818 1.403 . S
C1821 C1822 1.392 1_556 S
C1821 C1825 1.495 . S
C1822 C1821 1.392 1_554 S
C1822 C1823 1.385 . S
C1822 C1824 1.478 . S
C1823 H1817 0.930 . S
C1823 C1819 1.400 . S
C1823 C1822 1.385 . S
C1824 C1822 1.478 . S
C1824 C1826 1.381 . S
C1824 C1830 1.383 . S
C1825 C1821 1.495 . S
C1825 H1831 0.959 . S
C1825 H1832 0.961 . S
C1825 H1833 0.960 . S
C1826 C1824 1.381 . S
C1826 C1827 1.394 . S
C1826 H1834 0.930 . S
C1827 C1826 1.394 . S
C1827 C1828 1.383 . S
C1827 H1835 0.929 . S
C1828 C1827 1.383 . S
C1828 C1829 1.377 . S
C1829 H1813 0.930 . S
C1829 C1828 1.377 . S
C1829 C1830 1.379 . S
C1830 H1814 0.931 . S
C1830 C1824 1.383 . S
C1830 C1829 1.379 . S
H1831 C1825 0.959 . S
H1832 C1825 0.961 . S
H1833 C1825 0.960 . S
H1834 C1826 0.930 . S
H1835 C1827 0.929 . S
H1836 C1844 0.929 . S
H1837 C1846 0.930 . S
H1838 C1848 0.930 . S
H1839 C1851 0.929 . S
H1840 C1854 0.930 . S
H1841 C1856 0.960 . S
H1842 C1856 0.960 1_554 S
H1843 C1856 0.960 . S
C1844 H1836 0.929 . S
C1844 C1845 1.377 . S
C1844 C1846 1.384 . S
C1845 C1844 1.377 . S
C1845 C1851 1.390 1_554 S
C1846 H1837 0.930 . S
C1846 C1844 1.384 . S
C1846 C1847 1.372 . S
C1847 C1846 1.372 . S
C1847 C1848 1.400 1_554 S
C1847 C1852 1.490 . S
C1848 H1838 0.930 . S
C1848 C1847 1.400 1_556 S
C1848 C1851 1.386 . S
H1849 C1865 0.930 . S
H1850 C1866 0.931 . S
C1851 H1839 0.929 . S
C1851 C1845 1.390 1_556 S
C1851 C1848 1.386 . S
C1852 C1847 1.490 . S
C1852 C1854 1.395 . S
C1852 C1855 1.403 . S
H1853 C1859 0.930 . S
C1854 H1840 0.930 . S
C1854 C1852 1.395 . S
C1854 C1857 1.403 . S
C1855 C1852 1.403 . S
C1855 C1856 1.524 1_554 S
C1855 C1859 1.400 . S
C1856 H1841 0.960 . S
C1856 H1842 0.960 1_556 S
C1856 H1843 0.960 . S
C1856 C1855 1.524 1_556 S
C1857 C1854 1.403 . S
C1857 C1858 1.392 . S
C1857 C1861 1.495 . S
C1858 C1857 1.392 . S
C1858 C1859 1.385 . S
C1858 C1860 1.478 . S
C1859 H1853 0.930 . S
C1859 C1855 1.400 . S
C1859 C1858 1.385 . S
C1860 C1858 1.478 . S
C1860 C1862 1.381 . S
C1860 C1866 1.383 . S
C1861 C1857 1.495 . S
C1861 H1867 0.959 . S
C1861 H1868 0.961 . S
C1861 H1869 0.960 . S
C1862 C1860 1.381 . S
C1862 C1863 1.394 . S
C1862 H1870 0.930 . S
C1863 C1862 1.394 . S
C1863 C1864 1.383 . S
C1863 H1871 0.929 . S
C1864 C1863 1.383 . S
C1864 C1865 1.377 . S
C1865 H1849 0.930 . S
C1865 C1864 1.377 . S
C1865 C1866 1.379 . S
C1866 H1850 0.931 . S
C1866 C1860 1.383 . S
C1866 C1865 1.379 . S
H1867 C1861 0.959 . S
H1868 C1861 0.961 . S
H1869 C1861 0.960 . S
H1870 C1862 0.930 . S
H1871 C1863 0.929 . S
H1872 C1880 0.929 . S
H1873 C1882 0.930 . S
H1874 C1884 0.930 . S
H1875 C1887 0.929 . S
H1876 C1890 0.930 1_556 S
H1877 C1892 0.960 . S
H1878 C1892 0.960 . S
H1879 C1892 0.960 . S
C1880 H1872 0.929 . S
C1880 C1881 1.377 . S
C1880 C1882 1.384 . S
C1881 C1880 1.377 . S
C1881 C1887 1.390 . S
C1882 H1873 0.930 . S
C1882 C1880 1.384 . S
C1882 C1883 1.372 . S
C1883 C1882 1.372 . S
C1883 C1884 1.400 . S
C1883 C1888 1.490 . S
C1884 H1874 0.930 . S
C1884 C1883 1.400 . S
C1884 C1887 1.386 . S
H1885 C1901 0.930 . S
H1886 C1902 0.931 . S
C1887 H1875 0.929 . S
C1887 C1881 1.390 . S
C1887 C1884 1.386 . S
C1888 C1883 1.490 . S
C1888 C1890 1.395 . S
C1888 C1891 1.403 . S
H1889 C1895 0.930 . S
C1890 H1876 0.930 1_554 S
C1890 C1888 1.395 . S
C1890 C1893 1.403 1_554 S
C1891 C1888 1.403 . S
C1891 C1892 1.524 . S
C1891 C1895 1.400 . S
C1892 H1877 0.960 . S
C1892 H1878 0.960 . S
C1892 H1879 0.960 . S
C1892 C1891 1.524 . S
C1893 C1890 1.403 1_556 S
C1893 C1894 1.392 1_556 S
C1893 C1897 1.495 . S
C1894 C1893 1.392 1_554 S
C1894 C1895 1.385 . S
C1894 C1896 1.478 . S
C1895 H1889 0.930 . S
C1895 C1891 1.400 . S
C1895 C1894 1.385 . S
C1896 C1894 1.478 . S
C1896 C1898 1.381 1_554 S
C1896 C1902 1.383 . S
C1897 C1893 1.495 . S
C1897 H1903 0.959 . S
C1897 H1904 0.961 . S
C1897 H1905 0.960 . S
C1898 C1896 1.381 1_556 S
C1898 C1899 1.394 . S
C1898 H1906 0.930 . S
C1899 C1898 1.394 . S
C1899 C1900 1.383 . S
C1899 H1907 0.929 . S
C1900 C1899 1.383 . S
C1900 C1901 1.377 1_556 S
C1901 H1885 0.930 . S
C1901 C1900 1.377 1_554 S
C1901 C1902 1.379 . S
C1902 H1886 0.931 . S
C1902 C1896 1.383 . S
C1902 C1901 1.379 . S
H1903 C1897 0.959 . S
H1904 C1897 0.961 . S
H1905 C1897 0.960 . S
H1906 C1898 0.930 . S
H1907 C1899 0.929 . S
H1908 C1916 0.929 . S
H1909 C1918 0.930 . S
H1910 C1920 0.930 . S
H1911 C1923 0.929 . S
H1912 C1926 0.930 . S
H1913 C1928 0.960 . S
H1914 C1928 0.960 . S
H1915 C1928 0.960 . S
C1916 H1908 0.929 . S
C1916 C1917 1.377 . S
C1916 C1918 1.384 . S
C1917 C1916 1.377 . S
C1917 C1923 1.390 . S
C1918 H1909 0.930 . S
C1918 C1916 1.384 . S
C1918 C1919 1.372 . S
C1919 C1918 1.372 . S
C1919 C1920 1.400 . S
C1919 C1924 1.490 . S
C1920 H1910 0.930 . S
C1920 C1919 1.400 . S
C1920 C1923 1.386 . S
H1921 C1937 0.930 . S
H1922 C1938 0.931 . S
C1923 H1911 0.929 . S
C1923 C1917 1.390 . S
C1923 C1920 1.386 . S
C1924 C1919 1.490 . S
C1924 C1926 1.395 . S
C1924 C1927 1.403 . S
H1925 C1931 0.930 . S
C1926 H1912 0.930 . S
C1926 C1924 1.395 . S
C1926 C1929 1.403 . S
C1927 C1924 1.403 . S
C1927 C1928 1.524 . S
C1927 C1931 1.400 . S
C1928 H1913 0.960 . S
C1928 H1914 0.960 . S
C1928 H1915 0.960 . S
C1928 C1927 1.524 . S
C1929 C1926 1.403 . S
C1929 C1930 1.392 . S
C1929 C1933 1.495 . S
C1930 C1929 1.392 . S
C1930 C1931 1.385 . S
C1930 C1932 1.478 . S
C1931 H1925 0.930 . S
C1931 C1927 1.400 . S
C1931 C1930 1.385 . S
C1932 C1930 1.478 . S
C1932 C1934 1.381 . S
C1932 C1938 1.383 . S
C1933 C1929 1.495 . S
C1933 H1939 0.959 . S
C1933 H1940 0.961 . S
C1933 H1941 0.960 . S
C1934 C1932 1.381 . S
C1934 C1935 1.394 . S
C1934 H1942 0.930 . S
C1935 C1934 1.394 . S
C1935 C1936 1.383 . S
C1935 H1943 0.929 . S
C1936 C1935 1.383 . S
C1936 C1937 1.377 . S
C1937 H1921 0.930 . S
C1937 C1936 1.377 . S
C1937 C1938 1.379 . S
C1938 H1922 0.931 . S
C1938 C1932 1.383 . S
C1938 C1937 1.379 . S
H1939 C1933 0.959 . S
H1940 C1933 0.961 . S
H1941 C1933 0.960 . S
H1942 C1934 0.930 . S
H1943 C1935 0.929 . S
H1944 C1952 0.929 . S
H1945 C1954 0.930 . S
H1946 C1956 0.930 . S
H1947 C1959 0.929 . S
H1948 C1962 0.930 . S
H1949 C1964 0.960 . S
H1950 C1964 0.960 . S
H1951 C1964 0.960 . S
C1952 H1944 0.929 . S
C1952 C1953 1.377 . S
C1952 C1954 1.384 . S
C1953 C1952 1.377 . S
C1953 C1959 1.390 . S
C1954 H1945 0.930 . S
C1954 C1952 1.384 . S
C1954 C1955 1.372 . S
C1955 C1954 1.372 . S
C1955 C1956 1.400 . S
C1955 C1960 1.490 . S
C1956 H1946 0.930 . S
C1956 C1955 1.400 . S
C1956 C1959 1.386 . S
H1957 C1973 0.930 . S
H1958 C1974 0.931 . S
C1959 H1947 0.929 . S
C1959 C1953 1.390 . S
C1959 C1956 1.386 . S
C1960 C1955 1.490 . S
C1960 C1962 1.395 . S
C1960 C1963 1.403 . S
H1961 C1967 0.930 . S
C1962 H1948 0.930 . S
C1962 C1960 1.395 . S
C1962 C1965 1.403 . S
C1963 C1960 1.403 . S
C1963 C1964 1.524 . S
C1963 C1967 1.400 . S
C1964 H1949 0.960 . S
C1964 H1950 0.960 . S
C1964 H1951 0.960 . S
C1964 C1963 1.524 . S
C1965 C1962 1.403 . S
C1965 C1966 1.392 . S
C1965 C1969 1.495 . S
C1966 C1965 1.392 . S
C1966 C1967 1.385 . S
C1966 C1968 1.478 . S
C1967 H1961 0.930 . S
C1967 C1963 1.400 . S
C1967 C1966 1.385 . S
C1968 C1966 1.478 . S
C1968 C1970 1.381 . S
C1968 C1974 1.383 . S
C1969 C1965 1.495 . S
C1969 H1975 0.959 . S
C1969 H1976 0.961 . S
C1969 H1977 0.960 . S
C1970 C1968 1.381 . S
C1970 C1971 1.394 . S
C1970 H1978 0.930 . S
C1971 C1970 1.394 . S
C1971 C1972 1.383 . S
C1971 H1979 0.929 . S
C1972 C1971 1.383 . S
C1972 C1973 1.377 . S
C1973 H1957 0.930 . S
C1973 C1972 1.377 . S
C1973 C1974 1.379 . S
C1974 H1958 0.931 . S
C1974 C1968 1.383 . S
C1974 C1973 1.379 . S
H1975 C1969 0.959 . S
H1976 C1969 0.961 . S
H1977 C1969 0.960 . S
H1978 C1970 0.930 . S
H1979 C1971 0.929 . S
H1980 C1988 0.929 . S
H1981 C1990 0.930 . S
H1982 C1992 0.930 . S
H1983 C1995 0.929 . S
H1984 C1998 0.930 . S
H1985 C2000 0.960 . S
H1986 C2000 0.960 . S
H1987 C2000 0.960 . S
C1988 H1980 0.929 . S
C1988 C1989 1.377 . S
C1988 C1990 1.384 . S
C1989 C1988 1.377 . S
C1989 C1995 1.390 . S
C1990 H1981 0.930 . S
C1990 C1988 1.384 . S
C1990 C1991 1.372 . S
C1991 C1990 1.372 . S
C1991 C1992 1.400 . S
C1991 C1996 1.490 . S
C1992 H1982 0.930 . S
C1992 C1991 1.400 . S
C1992 C1995 1.386 . S
H1993 C2009 0.930 . S
H1994 C2010 0.931 . S
C1995 H1983 0.929 . S
C1995 C1989 1.390 . S
C1995 C1992 1.386 . S
C1996 C1991 1.490 . S
C1996 C1998 1.395 . S
C1996 C1999 1.403 . S
H1997 C2003 0.930 . S
C1998 H1984 0.930 . S
C1998 C1996 1.395 . S
C1998 C2001 1.403 . S
C1999 C1996 1.403 . S
C1999 C2000 1.524 . S
C1999 C2003 1.400 . S
C2000 H1985 0.960 . S
C2000 H1986 0.960 . S
C2000 H1987 0.960 . S
C2000 C1999 1.524 . S
C2001 C1998 1.403 . S
C2001 C2002 1.392 . S
C2001 C2005 1.495 . S
C2002 C2001 1.392 . S
C2002 C2003 1.385 . S
C2002 C2004 1.478 . S
C2003 H1997 0.930 . S
C2003 C1999 1.400 . S
C2003 C2002 1.385 . S
C2004 C2002 1.478 . S
C2004 C2006 1.381 . S
C2004 C2010 1.383 . S
C2005 C2001 1.495 . S
C2005 H2011 0.959 . S
C2005 H2012 0.961 . S
C2005 H2013 0.960 . S
C2006 C2004 1.381 . S
C2006 C2007 1.394 . S
C2006 H2014 0.930 . S
C2007 C2006 1.394 . S
C2007 C2008 1.383 . S
C2007 H2015 0.929 . S
C2008 C2007 1.383 . S
C2008 C2009 1.377 . S
C2009 H1993 0.930 . S
C2009 C2008 1.377 . S
C2009 C2010 1.379 . S
C2010 H1994 0.931 . S
C2010 C2004 1.383 . S
C2010 C2009 1.379 . S
H2011 C2005 0.959 . S
H2012 C2005 0.961 . S
H2013 C2005 0.960 . S
H2014 C2006 0.930 . S
H2015 C2007 0.929 . S
H2016 C2024 0.929 . S
H2017 C2026 0.930 . S
H2018 C2028 0.930 . S
H2019 C2031 0.929 . S
H2020 C2034 0.930 . S
H2021 C2036 0.960 . S
H2022 C2036 0.941 . S
H2023 C2036 0.960 . S
C2024 H2016 0.929 . S
C2024 C2025 1.377 . S
C2024 C2026 1.384 . S
C2025 C2024 1.377 . S
C2025 C2031 1.390 . S
C2026 H2017 0.930 . S
C2026 C2024 1.384 . S
C2026 C2027 1.372 . S
C2027 C2026 1.372 . S
C2027 C2028 1.400 . S
C2027 C2032 1.490 . S
C2028 H2018 0.930 . S
C2028 C2027 1.400 . S
C2028 C2031 1.386 . S
H2029 C2045 0.930 . S
H2030 C2046 0.931 1_554 S
C2031 H2019 0.929 . S
C2031 C2025 1.390 . S
C2031 C2028 1.386 . S
C2032 C2027 1.490 . S
C2032 C2034 1.395 . S
C2032 C2035 1.403 . S
H2033 C2039 0.930 . S
C2034 H2020 0.930 . S
C2034 C2032 1.395 . S
C2034 C2037 1.403 . S
C2035 C2032 1.403 . S
C2035 C2036 1.524 1_455 S
C2035 C2039 1.400 . S
C2036 H2021 0.960 . S
C2036 H2022 0.941 . S
C2036 H2023 0.960 . S
C2036 C2035 1.524 1_655 S
C2037 C2034 1.403 . S
C2037 C2038 1.392 . S
C2037 C2041 1.495 . S
C2038 C2037 1.392 . S
C2038 C2039 1.385 . S
C2038 C2040 1.478 . S
C2039 H2033 0.930 . S
C2039 C2035 1.400 . S
C2039 C2038 1.385 . S
C2040 C2038 1.478 . S
C2040 C2042 1.381 1_554 S
C2040 C2046 1.383 1_554 S
C2041 C2037 1.495 . S
C2041 H2047 0.959 . S
C2041 H2048 0.961 . S
C2041 H2049 0.960 . S
C2042 C2040 1.381 1_556 S
C2042 C2043 1.394 . S
C2042 H2050 0.930 1_556 S
C2043 C2042 1.394 . S
C2043 C2044 1.383 . S
C2043 H2051 0.929 . S
C2044 C2043 1.383 . S
C2044 C2045 1.377 . S
C2045 H2029 0.930 . S
C2045 C2044 1.377 . S
C2045 C2046 1.379 . S
C2046 H2030 0.931 1_556 S
C2046 C2040 1.383 1_556 S
C2046 C2045 1.379 . S
H2047 C2041 0.959 . S
H2048 C2041 0.961 . S
H2049 C2041 0.960 . S
H2050 C2042 0.930 1_554 S
H2051 C2043 0.929 . S
H2052 C2060 0.929 . S
H2053 C2062 0.930 . S
H2054 C2064 0.930 . S
H2055 C2067 0.929 . S
H2056 C2070 0.930 . S
H2057 C2072 0.960 . S
H2058 C2072 0.960 . S
H2059 C2072 0.960 . S
C2060 H2052 0.929 . S
C2060 C2061 1.377 . S
C2060 C2062 1.384 . S
C2061 C2060 1.377 . S
C2061 C2067 1.390 . S
C2062 H2053 0.930 . S
C2062 C2060 1.384 . S
C2062 C2063 1.372 . S
C2063 C2062 1.372 . S
C2063 C2064 1.400 . S
C2063 C2068 1.490 . S
C2064 H2054 0.930 . S
C2064 C2063 1.400 . S
C2064 C2067 1.386 . S
H2065 C2081 0.930 . S
H2066 C2082 0.931 1_554 S
C2067 H2055 0.929 . S
C2067 C2061 1.390 . S
C2067 C2064 1.386 . S
C2068 C2063 1.490 . S
C2068 C2070 1.395 . S
C2068 C2071 1.403 . S
H2069 C2075 0.930 . S
C2070 H2056 0.930 . S
C2070 C2068 1.395 . S
C2070 C2073 1.403 . S
C2071 C2068 1.403 . S
C2071 C2072 1.524 . S
C2071 C2075 1.400 . S
C2072 H2057 0.960 . S
C2072 H2058 0.960 . S
C2072 H2059 0.960 . S
C2072 C2071 1.524 . S
C2073 C2070 1.403 . S
C2073 C2074 1.392 . S
C2073 C2077 1.495 . S
C2074 C2073 1.392 . S
C2074 C2075 1.385 . S
C2074 C2076 1.478 . S
C2075 H2069 0.930 . S
C2075 C2071 1.400 . S
C2075 C2074 1.385 . S
C2076 C2074 1.478 . S
C2076 C2078 1.381 1_554 S
C2076 C2082 1.383 1_554 S
C2077 C2073 1.495 . S
C2077 H2083 0.959 . S
C2077 H2084 0.961 . S
C2077 H2085 0.960 . S
C2078 C2076 1.381 1_556 S
C2078 C2079 1.394 . S
C2078 H2086 0.930 1_556 S
C2079 C2078 1.394 . S
C2079 C2080 1.383 . S
C2079 H2087 0.929 . S
C2080 C2079 1.383 . S
C2080 C2081 1.377 . S
C2081 H2065 0.930 . S
C2081 C2080 1.377 . S
C2081 C2082 1.379 . S
C2082 H2066 0.931 1_556 S
C2082 C2076 1.383 1_556 S
C2082 C2081 1.379 . S
H2083 C2077 0.959 . S
H2084 C2077 0.961 . S
H2085 C2077 0.960 . S
H2086 C2078 0.930 1_554 S
H2087 C2079 0.929 . S
H2088 C2096 0.929 1_565 S
H2089 C2098 0.930 1_565 S
H2090 C2100 0.930 . S
H2091 C2103 0.929 . S
H2092 C2106 0.930 1_565 S
H2093 C2108 0.960 . S
H2094 C2108 0.960 . S
H2095 C2108 0.960 . S
C2096 H2088 0.929 1_545 S
C2096 C2097 1.377 . S
C2096 C2098 1.384 . S
C2097 C2096 1.377 . S
C2097 C2103 1.390 . S
C2098 H2089 0.930 1_545 S
C2098 C2096 1.384 . S
C2098 C2099 1.372 . S
C2099 C2098 1.372 . S
C2099 C2100 1.400 . S
C2099 C2104 1.490 . S
C2100 H2090 0.930 . S
C2100 C2099 1.400 . S
C2100 C2103 1.386 . S
H2101 C2117 0.930 . S
H2102 C2118 0.931 1_554 S
C2103 H2091 0.929 . S
C2103 C2097 1.390 . S
C2103 C2100 1.386 . S
C2104 C2099 1.490 . S
C2104 C2106 1.395 . S
C2104 C2107 1.403 . S
H2105 C2111 0.930 . S
C2106 H2092 0.930 1_545 S
C2106 C2104 1.395 . S
C2106 C2109 1.403 . S
C2107 C2104 1.403 . S
C2107 C2108 1.524 . S
C2107 C2111 1.400 . S
C2108 H2093 0.960 . S
C2108 H2094 0.960 . S
C2108 H2095 0.960 . S
C2108 C2107 1.524 . S
C2109 C2106 1.403 . S
C2109 C2110 1.392 . S
C2109 C2113 1.495 1_545 S
C2110 C2109 1.392 . S
C2110 C2111 1.385 . S
C2110 C2112 1.478 . S
C2111 H2105 0.930 . S
C2111 C2107 1.400 . S
C2111 C2110 1.385 . S
C2112 C2110 1.478 . S
C2112 C2114 1.381 1_554 S
C2112 C2118 1.383 1_554 S
C2113 C2109 1.495 1_565 S
C2113 H2119 0.959 . S
C2113 H2120 0.961 . S
C2113 H2121 0.960 . S
C2114 C2112 1.381 1_556 S
C2114 C2115 1.394 . S
C2114 H2122 0.939 1_546 S
C2115 C2114 1.394 . S
C2115 C2116 1.383 . S
C2115 H2123 0.929 . S
C2116 C2115 1.383 . S
C2116 C2117 1.377 . S
C2117 H2101 0.930 . S
C2117 C2116 1.377 . S
C2117 C2118 1.379 . S
C2118 H2102 0.931 1_556 S
C2118 C2112 1.383 1_556 S
C2118 C2117 1.379 . S
H2119 C2113 0.959 . S
H2120 C2113 0.961 . S
H2121 C2113 0.960 . S
H2122 C2114 0.939 1_564 S
H2123 C2115 0.929 . S
H2124 C2132 0.929 . S
H2125 C2134 0.930 . S
H2126 C2136 0.930 . S
H2127 C2139 0.929 . S
H2128 C2142 0.930 . S
H2129 C2144 0.960 . S
H2130 C2144 0.960 . S
H2131 C2144 0.960 . S
C2132 H2124 0.929 . S
C2132 C2133 1.377 . S
C2132 C2134 1.384 . S
C2133 C2132 1.377 . S
C2133 C2139 1.390 . S
C2134 H2125 0.930 . S
C2134 C2132 1.384 . S
C2134 C2135 1.372 . S
C2135 C2134 1.372 . S
C2135 C2136 1.400 . S
C2135 C2140 1.490 . S
C2136 H2126 0.930 . S
C2136 C2135 1.400 . S
C2136 C2139 1.386 . S
H2137 C2153 0.930 . S
H2138 C2154 0.931 1_556 S
C2139 H2127 0.929 . S
C2139 C2133 1.390 . S
C2139 C2136 1.386 . S
C2140 C2135 1.490 . S
C2140 C2142 1.395 . S
C2140 C2143 1.403 . S
H2141 C2147 0.957 . S
C2142 H2128 0.930 . S
C2142 C2140 1.395 . S
C2142 C2145 1.403 . S
C2143 C2140 1.403 . S
C2143 C2144 1.524 1_455 S
C2143 C2147 1.400 . S
C2144 H2129 0.960 . S
C2144 H2130 0.960 . S
C2144 H2131 0.960 . S
C2144 C2143 1.524 1_655 S
C2145 C2142 1.403 . S
C2145 C2146 1.392 . S
C2145 C2149 1.495 . S
C2146 C2145 1.392 . S
C2146 C2147 1.385 . S
C2146 C2148 1.478 . S
C2147 H2141 0.957 . S
C2147 C2143 1.400 . S
C2147 C2146 1.385 . S
C2148 C2146 1.478 . S
C2148 C2150 1.381 1_556 S
C2148 C2154 1.383 1_556 S
C2149 C2145 1.495 . S
C2149 H2155 0.959 . S
C2149 H2156 0.961 . S
C2149 H2157 0.960 . S
C2150 C2148 1.381 1_554 S
C2150 C2151 1.394 . S
C2150 H2158 0.930 1_554 S
C2151 C2150 1.394 . S
C2151 C2152 1.383 . S
C2151 H2159 0.929 . S
C2152 C2151 1.383 . S
C2152 C2153 1.377 . S
C2153 H2137 0.930 . S
C2153 C2152 1.377 . S
C2153 C2154 1.379 . S
C2154 H2138 0.931 1_554 S
C2154 C2148 1.383 1_554 S
C2154 C2153 1.379 . S
H2155 C2149 0.959 . S
H2156 C2149 0.961 . S
H2157 C2149 0.960 . S
H2158 C2150 0.930 1_556 S
H2159 C2151 0.929 . S
H2160 C2168 0.929 . S
H2161 C2170 0.930 1_556 S
H2162 C2172 0.930 1_556 S
H2163 C2175 0.929 . S
H2164 C2178 0.930 . S
H2165 C2180 0.960 . S
H2166 C2180 0.960 . S
H2167 C2180 0.960 . S
C2168 H2160 0.929 . S
C2168 C2169 1.377 . S
C2168 C2170 1.384 . S
C2169 C2168 1.377 . S
C2169 C2175 1.390 . S
C2170 H2161 0.930 1_554 S
C2170 C2168 1.384 . S
C2170 C2171 1.372 1_554 S
C2171 C2170 1.372 1_556 S
C2171 C2172 1.400 1_556 S
C2171 C2176 1.490 . S
C2172 H2162 0.930 1_554 S
C2172 C2171 1.400 1_554 S
C2172 C2175 1.386 . S
H2173 C2189 0.930 . S
H2174 C2190 0.931 . S
C2175 H2163 0.929 . S
C2175 C2169 1.390 . S
C2175 C2172 1.386 . S
C2176 C2171 1.490 . S
C2176 C2178 1.395 . S
C2176 C2179 1.403 . S
H2177 C2183 0.930 . S
C2178 H2164 0.930 . S
C2178 C2176 1.395 . S
C2178 C2181 1.403 . S
C2179 C2176 1.403 . S
C2179 C2180 1.524 . S
C2179 C2183 1.400 . S
C2180 H2165 0.960 . S
C2180 H2166 0.960 . S
C2180 H2167 0.960 . S
C2180 C2179 1.524 . S
C2181 C2178 1.403 . S
C2181 C2182 1.392 . S
C2181 C2185 1.495 . S
C2182 C2181 1.392 . S
C2182 C2183 1.385 . S
C2182 C2184 1.478 . S
C2183 H2177 0.930 . S
C2183 C2179 1.400 . S
C2183 C2182 1.385 . S
C2184 C2182 1.478 . S
C2184 C2186 1.381 . S
C2184 C2190 1.383 . S
C2185 C2181 1.495 . S
C2185 H2191 0.959 . S
C2185 H2192 0.961 . S
C2185 H2193 0.960 . S
C2186 C2184 1.381 . S
C2186 C2187 1.394 . S
C2186 H2194 0.930 . S
C2187 C2186 1.394 . S
C2187 C2188 1.383 . S
C2187 H2195 0.929 . S
C2188 C2187 1.383 . S
C2188 C2189 1.377 . S
C2189 H2173 0.930 . S
C2189 C2188 1.377 . S
C2189 C2190 1.379 . S
C2190 H2174 0.931 . S
C2190 C2184 1.383 . S
C2190 C2189 1.379 . S
H2191 C2185 0.959 . S
H2192 C2185 0.961 . S
H2193 C2185 0.960 . S
H2194 C2186 0.930 . S
H2195 C2187 0.929 . S
H2196 C2204 0.929 . S
H2197 C2206 0.930 1_556 S
H2198 C2208 0.930 1_556 S
H2199 C2211 0.929 . S
H2200 C2214 0.930 . S
H2201 C2216 0.960 . S
H2202 C2216 0.960 . S
H2203 C2216 0.960 . S
C2204 H2196 0.929 . S
C2204 C2205 1.377 . S
C2204 C2206 1.384 . S
C2205 C2204 1.377 . S
C2205 C2211 1.390 . S
C2206 H2197 0.930 1_554 S
C2206 C2204 1.384 . S
C2206 C2207 1.372 1_554 S
C2207 C2206 1.372 1_556 S
C2207 C2208 1.400 1_556 S
C2207 C2212 1.490 . S
C2208 H2198 0.930 1_554 S
C2208 C2207 1.400 1_554 S
C2208 C2211 1.386 . S
H2209 C2225 0.930 . S
H2210 C2226 0.931 . S
C2211 H2199 0.929 . S
C2211 C2205 1.390 . S
C2211 C2208 1.386 . S
C2212 C2207 1.490 . S
C2212 C2214 1.395 . S
C2212 C2215 1.403 . S
H2213 C2219 0.930 . S
C2214 H2200 0.930 . S
C2214 C2212 1.395 . S
C2214 C2217 1.403 . S
C2215 C2212 1.403 . S
C2215 C2216 1.524 . S
C2215 C2219 1.400 . S
C2216 H2201 0.960 . S
C2216 H2202 0.960 . S
C2216 H2203 0.960 . S
C2216 C2215 1.524 . S
C2217 C2214 1.403 . S
C2217 C2218 1.392 . S
C2217 C2221 1.495 1_545 S
C2218 C2217 1.392 . S
C2218 C2219 1.385 . S
C2218 C2220 1.478 . S
C2219 H2213 0.930 . S
C2219 C2215 1.400 . S
C2219 C2218 1.385 . S
C2220 C2218 1.478 . S
C2220 C2222 1.381 . S
C2220 C2226 1.383 . S
C2221 C2217 1.495 1_565 S
C2221 H2227 0.959 . S
C2221 H2228 0.961 . S
C2221 H2229 0.952 . S
C2222 C2220 1.381 . S
C2222 C2223 1.394 . S
C2222 H2230 0.930 . S
C2223 C2222 1.394 . S
C2223 C2224 1.383 . S
C2223 H2231 0.929 . S
C2224 C2223 1.383 . S
C2224 C2225 1.377 . S
C2225 H2209 0.930 . S
C2225 C2224 1.377 . S
C2225 C2226 1.379 . S
C2226 H2210 0.931 . S
C2226 C2220 1.383 . S
C2226 C2225 1.379 . S
H2227 C2221 0.959 . S
H2228 C2221 0.961 . S
H2229 C2221 0.952 . S
H2230 C2222 0.930 . S
H2231 C2223 0.929 . S
H2232 C2240 0.929 . S
H2233 C2242 0.930 . S
H2234 C2244 0.930 . S
H2235 C2247 0.929 . S
H2236 C2250 0.930 . S
H2237 C2252 0.960 . S
H2238 C2252 0.960 . S
H2239 C2252 0.960 . S
C2240 H2232 0.929 . S
C2240 C2241 1.377 . S
C2240 C2242 1.384 . S
C2241 C2240 1.377 . S
C2241 C2247 1.390 . S
C2242 H2233 0.930 . S
C2242 C2240 1.384 . S
C2242 C2243 1.372 . S
C2243 C2242 1.372 . S
C2243 C2244 1.400 . S
C2243 C2248 1.490 . S
C2244 H2234 0.930 . S
C2244 C2243 1.400 . S
C2244 C2247 1.386 . S
H2245 C2261 0.930 . S
H2246 C2262 0.931 . S
C2247 H2235 0.929 . S
C2247 C2241 1.390 . S
C2247 C2244 1.386 . S
C2248 C2243 1.490 . S
C2248 C2250 1.395 . S
C2248 C2251 1.403 . S
H2249 C2255 0.930 . S
C2250 H2236 0.930 . S
C2250 C2248 1.395 . S
C2250 C2253 1.403 . S
C2251 C2248 1.403 . S
C2251 C2252 1.524 . S
C2251 C2255 1.400 . S
C2252 H2237 0.960 . S
C2252 H2238 0.960 . S
C2252 H2239 0.960 . S
C2252 C2251 1.524 . S
C2253 C2250 1.403 . S
C2253 C2254 1.392 . S
C2253 C2257 1.495 . S
C2254 C2253 1.392 . S
C2254 C2255 1.385 . S
C2254 C2256 1.478 . S
C2255 H2249 0.930 . S
C2255 C2251 1.400 . S
C2255 C2254 1.385 . S
C2256 C2254 1.478 . S
C2256 C2258 1.381 . S
C2256 C2262 1.383 . S
C2257 C2253 1.495 . S
C2257 H2263 0.959 . S
C2257 H2264 0.961 . S
C2257 H2265 0.960 . S
C2258 C2256 1.381 . S
C2258 C2259 1.394 . S
C2258 H2266 0.930 . S
C2259 C2258 1.394 . S
C2259 C2260 1.383 . S
C2259 H2267 0.929 . S
C2260 C2259 1.383 . S
C2260 C2261 1.377 . S
C2261 H2245 0.930 . S
C2261 C2260 1.377 . S
C2261 C2262 1.379 . S
C2262 H2246 0.931 . S
C2262 C2256 1.383 . S
C2262 C2261 1.379 . S
H2263 C2257 0.959 . S
H2264 C2257 0.961 . S
H2265 C2257 0.960 . S
H2266 C2258 0.930 . S
H2267 C2259 0.929 . S
H2268 C2276 0.929 . S
H2269 C2278 0.930 . S
H2270 C2280 0.930 . S
H2271 C2283 0.929 . S
H2272 C2286 0.930 . S
H2273 C2288 0.960 . S
H2274 C2288 0.960 . S
H2275 C2288 0.960 . S
C2276 H2268 0.929 . S
C2276 C2277 1.377 . S
C2276 C2278 1.384 . S
C2277 C2276 1.377 . S
C2277 C2283 1.390 . S
C2278 H2269 0.930 . S
C2278 C2276 1.384 . S
C2278 C2279 1.372 . S
C2279 C2278 1.372 . S
C2279 C2280 1.400 . S
C2279 C2284 1.490 . S
C2280 H2270 0.930 . S
C2280 C2279 1.400 . S
C2280 C2283 1.386 . S
H2281 C2297 0.930 . S
H2282 C2298 0.931 . S
C2283 H2271 0.929 . S
C2283 C2277 1.390 . S
C2283 C2280 1.386 . S
C2284 C2279 1.490 . S
C2284 C2286 1.395 . S
C2284 C2287 1.403 . S
H2285 C2291 0.930 . S
C2286 H2272 0.930 . S
C2286 C2284 1.395 . S
C2286 C2289 1.403 . S
C2287 C2284 1.403 . S
C2287 C2288 1.524 . S
C2287 C2291 1.400 . S
C2288 H2273 0.960 . S
C2288 H2274 0.960 . S
C2288 H2275 0.960 . S
C2288 C2287 1.524 . S
C2289 C2286 1.403 . S
C2289 C2290 1.392 . S
C2289 C2293 1.495 . S
C2290 C2289 1.392 . S
C2290 C2291 1.385 . S
C2290 C2292 1.478 . S
C2291 H2285 0.930 . S
C2291 C2287 1.400 . S
C2291 C2290 1.385 . S
C2292 C2290 1.478 . S
C2292 C2294 1.381 . S
C2292 C2298 1.383 . S
C2293 C2289 1.495 . S
C2293 H2299 0.959 . S
C2293 H2300 0.961 . S
C2293 H2301 0.960 . S
C2294 C2292 1.381 . S
C2294 C2295 1.394 . S
C2294 H2302 0.930 . S
C2295 C2294 1.394 . S
C2295 C2296 1.383 . S
C2295 H2303 0.929 . S
C2296 C2295 1.383 . S
C2296 C2297 1.377 . S
C2297 H2281 0.930 . S
C2297 C2296 1.377 . S
C2297 C2298 1.379 . S
C2298 H2282 0.931 . S
C2298 C2292 1.383 . S
C2298 C2297 1.379 . S
H2299 C2293 0.959 . S
H2300 C2293 0.961 . S
H2301 C2293 0.960 . S
H2302 C2294 0.930 . S
H2303 C2295 0.929 . S
H2304 C2312 0.929 . S
H2305 C2314 0.930 . S
H2306 C2316 0.930 . S
H2307 C2319 0.929 . S
H2308 C2322 0.930 . S
H2309 C2324 0.960 . S
H2310 C2324 0.960 . S
H2311 C2324 0.960 . S
C2312 H2304 0.929 . S
C2312 C2313 1.377 . S
C2312 C2314 1.384 . S
C2313 C2312 1.377 . S
C2313 C2319 1.390 . S
C2314 H2305 0.930 . S
C2314 C2312 1.384 . S
C2314 C2315 1.372 . S
C2315 C2314 1.372 . S
C2315 C2316 1.400 . S
C2315 C2320 1.490 . S
C2316 H2306 0.930 . S
C2316 C2315 1.400 . S
C2316 C2319 1.386 . S
H2317 C2333 0.930 . S
H2318 C2334 0.931 . S
C2319 H2307 0.929 . S
C2319 C2313 1.390 . S
C2319 C2316 1.386 . S
C2320 C2315 1.490 . S
C2320 C2322 1.395 . S
C2320 C2323 1.403 . S
H2321 C2327 0.930 . S
C2322 H2308 0.930 . S
C2322 C2320 1.395 . S
C2322 C2325 1.403 . S
C2323 C2320 1.403 . S
C2323 C2324 1.524 . S
C2323 C2327 1.400 . S
C2324 H2309 0.960 . S
C2324 H2310 0.960 . S
C2324 H2311 0.960 . S
C2324 C2323 1.524 . S
C2325 C2322 1.403 . S
C2325 C2326 1.392 . S
C2325 C2329 1.495 . S
C2326 C2325 1.392 . S
C2326 C2327 1.385 . S
C2326 C2328 1.478 . S
C2327 H2321 0.930 . S
C2327 C2323 1.400 . S
C2327 C2326 1.385 . S
C2328 C2326 1.478 . S
C2328 C2330 1.381 . S
C2328 C2334 1.383 . S
C2329 C2325 1.495 . S
C2329 H2335 0.959 . S
C2329 H2336 0.961 . S
C2329 H2337 0.960 . S
C2330 C2328 1.381 . S
C2330 C2331 1.394 . S
C2330 H2338 0.930 . S
C2331 C2330 1.394 . S
C2331 C2332 1.383 . S
C2331 H2339 0.929 . S
C2332 C2331 1.383 . S
C2332 C2333 1.377 . S
C2333 H2317 0.930 . S
C2333 C2332 1.377 . S
C2333 C2334 1.379 . S
C2334 H2318 0.931 . S
C2334 C2328 1.383 . S
C2334 C2333 1.379 . S
H2335 C2329 0.959 . S
H2336 C2329 0.961 . S
H2337 C2329 0.960 . S
H2338 C2330 0.930 . S
H2339 C2331 0.929 . S
H2340 C2348 0.929 . S
H2341 C2350 0.930 1_554 S
H2342 C2352 0.930 1_554 S
H2343 C2355 0.929 . S
H2344 C2358 0.930 . S
H2345 C2360 0.960 . S
H2346 C2360 0.960 . S
H2347 C2360 0.960 . S
C2348 H2340 0.929 . S
C2348 C2349 1.377 . S
C2348 C2350 1.384 . S
C2349 C2348 1.377 . S
C2349 C2355 1.390 . S
C2350 H2341 0.930 1_556 S
C2350 C2348 1.384 . S
C2350 C2351 1.372 1_556 S
C2351 C2350 1.372 1_554 S
C2351 C2352 1.400 1_554 S
C2351 C2356 1.490 . S
C2352 H2342 0.930 1_556 S
C2352 C2351 1.400 1_556 S
C2352 C2355 1.386 . S
H2353 C2369 0.930 . S
H2354 C2370 0.931 . S
C2355 H2343 0.929 . S
C2355 C2349 1.390 . S
C2355 C2352 1.386 . S
C2356 C2351 1.490 . S
C2356 C2358 1.395 . S
C2356 C2359 1.403 . S
H2357 C2363 0.930 . S
C2358 H2344 0.930 . S
C2358 C2356 1.395 . S
C2358 C2361 1.403 . S
C2359 C2356 1.403 . S
C2359 C2360 1.524 . S
C2359 C2363 1.400 . S
C2360 H2345 0.960 . S
C2360 H2346 0.960 . S
C2360 H2347 0.960 . S
C2360 C2359 1.524 . S
C2361 C2358 1.403 . S
C2361 C2362 1.392 . S
C2361 C2365 1.495 . S
C2362 C2361 1.392 . S
C2362 C2363 1.385 . S
C2362 C2364 1.478 . S
C2363 H2357 0.930 . S
C2363 C2359 1.400 . S
C2363 C2362 1.385 . S
C2364 C2362 1.478 . S
C2364 C2366 1.381 . S
C2364 C2370 1.383 . S
C2365 C2361 1.495 . S
C2365 H2371 0.959 . S
C2365 H2372 0.961 . S
C2365 H2373 0.960 . S
C2366 C2364 1.381 . S
C2366 C2367 1.394 . S
C2366 H2374 0.930 . S
C2367 C2366 1.394 . S
C2367 C2368 1.383 . S
C2367 H2375 0.929 . S
C2368 C2367 1.383 . S
C2368 C2369 1.377 . S
C2369 H2353 0.930 . S
C2369 C2368 1.377 . S
C2369 C2370 1.379 . S
C2370 H2354 0.931 . S
C2370 C2364 1.383 . S
C2370 C2369 1.379 . S
H2371 C2365 0.959 . S
H2372 C2365 0.961 . S
H2373 C2365 0.960 . S
H2374 C2366 0.930 . S
H2375 C2367 0.929 . S
H2376 C2384 0.929 . S
H2377 C2386 0.930 1_554 S
H2378 C2388 0.930 1_554 S
H2379 C2391 0.929 . S
H2380 C2394 0.930 . S
H2381 C2396 0.960 . S
H2382 C2396 0.960 . S
H2383 C2396 0.960 . S
C2384 H2376 0.929 . S
C2384 C2385 1.377 . S
C2384 C2386 1.384 . S
C2385 C2384 1.377 . S
C2385 C2391 1.390 . S
C2386 H2377 0.930 1_556 S
C2386 C2384 1.384 . S
C2386 C2387 1.372 1_556 S
C2387 C2386 1.372 1_554 S
C2387 C2388 1.400 1_554 S
C2387 C2392 1.490 . S
C2388 H2378 0.930 1_556 S
C2388 C2387 1.400 1_556 S
C2388 C2391 1.386 . S
H2389 C2405 0.930 . S
H2390 C2406 0.931 . S
C2391 H2379 0.929 . S
C2391 C2385 1.390 . S
C2391 C2388 1.386 . S
C2392 C2387 1.490 . S
C2392 C2394 1.395 . S
C2392 C2395 1.403 . S
H2393 C2399 0.930 . S
C2394 H2380 0.930 . S
C2394 C2392 1.395 . S
C2394 C2397 1.403 . S
C2395 C2392 1.403 . S
C2395 C2396 1.524 . S
C2395 C2399 1.400 . S
C2396 H2381 0.960 . S
C2396 H2382 0.960 . S
C2396 H2383 0.960 . S
C2396 C2395 1.524 . S
C2397 C2394 1.403 . S
C2397 C2398 1.392 . S
C2397 C2401 1.495 . S
C2398 C2397 1.392 . S
C2398 C2399 1.385 . S
C2398 C2400 1.478 . S
C2399 H2393 0.930 . S
C2399 C2395 1.400 . S
C2399 C2398 1.385 . S
C2400 C2398 1.478 . S
C2400 C2402 1.381 . S
C2400 C2406 1.383 . S
C2401 C2397 1.495 . S
C2401 H2407 0.959 . S
C2401 H2408 0.961 . S
C2401 H2409 0.960 . S
C2402 C2400 1.381 . S
C2402 C2403 1.394 . S
C2402 H2410 0.930 . S
C2403 C2402 1.394 . S
C2403 C2404 1.383 . S
C2403 H2411 0.929 . S
C2404 C2403 1.383 . S
C2404 C2405 1.377 . S
C2405 H2389 0.930 . S
C2405 C2404 1.377 . S
C2405 C2406 1.379 . S
C2406 H2390 0.931 . S
C2406 C2400 1.383 . S
C2406 C2405 1.379 . S
H2407 C2401 0.959 . S
H2408 C2401 0.961 . S
H2409 C2401 0.960 . S
H2410 C2402 0.930 . S
H2411 C2403 0.929 . S
H2412 C2420 0.929 . S
H2413 C2422 0.930 1_554 S
H2414 C2424 0.922 1_554 S
H2415 C2427 0.929 . S
H2416 C2430 0.930 . S
H2417 C2432 0.960 . S
H2418 C2432 0.960 . S
H2419 C2432 0.960 . S
C2420 H2412 0.929 . S
C2420 C2421 1.377 . S
C2420 C2422 1.384 . S
C2421 C2420 1.377 . S
C2421 C2427 1.390 . S
C2422 H2413 0.930 1_556 S
C2422 C2420 1.384 . S
C2422 C2423 1.372 1_556 S
C2423 C2422 1.372 1_554 S
C2423 C2424 1.393 1_554 S
C2423 C2428 1.490 . S
C2424 H2414 0.922 1_556 S
C2424 C2423 1.393 1_556 S
C2424 C2427 1.401 . S
H2425 C2441 0.930 . S
H2426 C2442 0.931 . S
C2427 H2415 0.929 . S
C2427 C2421 1.390 . S
C2427 C2424 1.401 . S
C2428 C2423 1.490 . S
C2428 C2430 1.395 . S
C2428 C2431 1.403 . S
H2429 C2435 0.930 . S
C2430 H2416 0.930 . S
C2430 C2428 1.395 . S
C2430 C2433 1.403 . S
C2431 C2428 1.403 . S
C2431 C2432 1.524 . S
C2431 C2435 1.400 . S
C2432 H2417 0.960 . S
C2432 H2418 0.960 . S
C2432 H2419 0.960 . S
C2432 C2431 1.524 . S
C2433 C2430 1.403 . S
C2433 C2434 1.392 . S
C2433 C2437 1.495 . S
C2434 C2433 1.392 . S
C2434 C2435 1.385 . S
C2434 C2436 1.478 . S
C2435 H2429 0.930 . S
C2435 C2431 1.400 . S
C2435 C2434 1.385 . S
C2436 C2434 1.478 . S
C2436 C2438 1.381 . S
C2436 C2442 1.383 . S
C2437 C2433 1.495 . S
C2437 H2443 0.959 . S
C2437 H2444 0.961 . S
C2437 H2445 0.960 . S
C2438 C2436 1.381 . S
C2438 C2439 1.394 . S
C2438 H2446 0.930 . S
C2439 C2438 1.394 . S
C2439 C2440 1.383 . S
C2439 H2447 0.929 . S
C2440 C2439 1.383 . S
C2440 C2441 1.377 . S
C2441 H2425 0.930 . S
C2441 C2440 1.377 . S
C2441 C2442 1.379 . S
C2442 H2426 0.931 . S
C2442 C2436 1.383 . S
C2442 C2441 1.379 . S
H2443 C2437 0.959 . S
H2444 C2437 0.961 . S
H2445 C2437 0.960 . S
H2446 C2438 0.930 . S
H2447 C2439 0.929 . S
H2448 C2456 0.929 . S
H2449 C2458 0.930 . S
H2450 C2460 0.930 . S
H2451 C2463 0.929 . S
H2452 C2466 0.930 . S
H2453 C2468 0.960 . S
H2454 C2468 0.960 . S
H2455 C2468 0.960 . S
C2456 H2448 0.929 . S
C2456 C2457 1.377 . S
C2456 C2458 1.384 . S
C2457 C2456 1.377 . S
C2457 C2463 1.390 . S
C2458 H2449 0.930 . S
C2458 C2456 1.384 . S
C2458 C2459 1.372 . S
C2459 C2458 1.372 . S
C2459 C2460 1.400 . S
C2459 C2464 1.490 . S
C2460 H2450 0.930 . S
C2460 C2459 1.400 . S
C2460 C2463 1.386 . S
H2461 C2477 0.930 . S
H2462 C2478 0.931 1_556 S
C2463 H2451 0.929 . S
C2463 C2457 1.390 . S
C2463 C2460 1.386 . S
C2464 C2459 1.490 . S
C2464 C2466 1.395 . S
C2464 C2467 1.403 . S
H2465 C2471 0.930 . S
C2466 H2452 0.930 . S
C2466 C2464 1.395 . S
C2466 C2469 1.403 . S
C2467 C2464 1.403 . S
C2467 C2468 1.524 . S
C2467 C2471 1.400 . S
C2468 H2453 0.960 . S
C2468 H2454 0.960 . S
C2468 H2455 0.960 . S
C2468 C2467 1.524 . S
C2469 C2466 1.403 . S
C2469 C2470 1.392 . S
C2469 C2473 1.495 . S
C2470 C2469 1.392 . S
C2470 C2471 1.385 . S
C2470 C2472 1.478 . S
C2471 H2465 0.930 . S
C2471 C2467 1.400 . S
C2471 C2470 1.385 . S
C2472 C2470 1.478 . S
C2472 C2474 1.381 1_556 S
C2472 C2478 1.383 1_556 S
C2473 C2469 1.495 . S
C2473 H2479 0.959 . S
C2473 H2480 0.961 . S
C2473 H2481 0.960 . S
C2474 C2472 1.381 1_554 S
C2474 C2475 1.394 . S
C2474 H2482 0.930 1_554 S
C2475 C2474 1.394 . S
C2475 C2476 1.383 . S
C2475 H2483 0.929 . S
C2476 C2475 1.383 . S
C2476 C2477 1.377 . S
C2477 H2461 0.930 . S
C2477 C2476 1.377 . S
C2477 C2478 1.379 . S
C2478 H2462 0.931 1_554 S
C2478 C2472 1.383 1_554 S
C2478 C2477 1.379 . S
H2479 C2473 0.959 . S
H2480 C2473 0.961 . S
H2481 C2473 0.960 . S
H2482 C2474 0.930 1_556 S
H2483 C2475 0.929 . S
H2484 C2492 0.929 . S
H2485 C2494 0.924 1_556 S
H2486 C2496 0.930 1_556 S
H2487 C2499 0.929 . S
H2488 C2502 0.930 . S
H2489 C2504 0.960 . S
H2490 C2504 0.960 . S
H2491 C2504 0.960 . S
C2492 H2484 0.929 . S
C2492 C2493 1.377 . S
C2492 C2494 1.394 . S
C2493 C2492 1.377 . S
C2493 C2499 1.390 . S
C2494 H2485 0.924 1_554 S
C2494 C2492 1.394 . S
C2494 C2495 1.367 1_554 S
C2495 C2494 1.367 1_556 S
C2495 C2496 1.400 1_556 S
C2495 C2500 1.490 . S
C2496 H2486 0.930 1_554 S
C2496 C2495 1.400 1_554 S
C2496 C2499 1.386 . S
H2497 C2513 0.930 . S
H2498 C2514 0.931 . S
C2499 H2487 0.929 . S
C2499 C2493 1.390 . S
C2499 C2496 1.386 . S
C2500 C2495 1.490 . S
C2500 C2502 1.395 . S
C2500 C2503 1.403 . S
H2501 C2507 0.930 . S
C2502 H2488 0.930 . S
C2502 C2500 1.395 . S
C2502 C2505 1.403 . S
C2503 C2500 1.403 . S
C2503 C2504 1.524 . S
C2503 C2507 1.400 . S
C2504 H2489 0.960 . S
C2504 H2490 0.960 . S
C2504 H2491 0.960 . S
C2504 C2503 1.524 . S
C2505 C2502 1.403 . S
C2505 C2506 1.392 . S
C2505 C2509 1.495 . S
C2506 C2505 1.392 . S
C2506 C2507 1.385 . S
C2506 C2508 1.478 . S
C2507 H2501 0.930 . S
C2507 C2503 1.400 . S
C2507 C2506 1.385 . S
C2508 C2506 1.478 . S
C2508 C2510 1.381 . S
C2508 C2514 1.383 . S
C2509 C2505 1.495 . S
C2509 H2515 0.959 . S
C2509 H2516 0.961 . S
C2509 H2517 0.960 . S
C2510 C2508 1.381 . S
C2510 C2511 1.394 . S
C2510 H2518 0.930 . S
C2511 C2510 1.394 . S
C2511 C2512 1.383 . S
C2511 H2519 0.929 . S
C2512 C2511 1.383 . S
C2512 C2513 1.377 . S
C2513 H2497 0.930 . S
C2513 C2512 1.377 . S
C2513 C2514 1.379 . S
C2514 H2498 0.931 . S
C2514 C2508 1.383 . S
C2514 C2513 1.379 . S
H2515 C2509 0.959 . S
H2516 C2509 0.961 . S
H2517 C2509 0.960 . S
H2518 C2510 0.930 . S
H2519 C2511 0.929 . S
H2520 C2528 0.929 . S
H2521 C2530 0.930 1_556 S
H2522 C2532 0.930 . S
H2523 C2535 0.929 . S
H2524 C2538 0.930 . S
H2525 C2540 0.960 . S
H2526 C2540 0.960 . S
H2527 C2540 0.960 . S
C2528 H2520 0.929 . S
C2528 C2529 1.377 . S
C2528 C2530 1.384 . S
C2529 C2528 1.377 . S
C2529 C2535 1.390 . S
C2530 H2521 0.930 1_554 S
C2530 C2528 1.384 . S
C2530 C2531 1.372 1_554 S
C2531 C2530 1.372 1_556 S
C2531 C2532 1.400 . S
C2531 C2536 1.490 . S
C2532 H2522 0.930 . S
C2532 C2531 1.400 . S
C2532 C2535 1.386 1_556 S
H2533 C2549 0.930 . S
H2534 C2550 0.931 . S
C2535 H2523 0.929 . S
C2535 C2529 1.390 . S
C2535 C2532 1.386 1_554 S
C2536 C2531 1.490 . S
C2536 C2538 1.395 . S
C2536 C2539 1.403 . S
H2537 C2543 0.930 . S
C2538 H2524 0.930 . S
C2538 C2536 1.395 . S
C2538 C2541 1.403 . S
C2539 C2536 1.403 . S
C2539 C2540 1.524 . S
C2539 C2543 1.400 . S
C2540 H2525 0.960 . S
C2540 H2526 0.960 . S
C2540 H2527 0.960 . S
C2540 C2539 1.524 . S
C2541 C2538 1.403 . S
C2541 C2542 1.392 . S
C2541 C2545 1.495 . S
C2542 C2541 1.392 . S
C2542 C2543 1.385 . S
C2542 C2544 1.478 . S
C2543 H2537 0.930 . S
C2543 C2539 1.400 . S
C2543 C2542 1.385 . S
C2544 C2542 1.478 . S
C2544 C2546 1.381 . S
C2544 C2550 1.383 . S
C2545 C2541 1.495 . S
C2545 H2551 0.959 . S
C2545 H2552 0.961 . S
C2545 H2553 0.960 . S
C2546 C2544 1.381 . S
C2546 C2547 1.394 . S
C2546 H2554 0.930 . S
C2547 C2546 1.394 . S
C2547 C2548 1.383 . S
C2547 H2555 0.929 . S
C2548 C2547 1.383 . S
C2548 C2549 1.377 . S
C2549 H2533 0.930 . S
C2549 C2548 1.377 . S
C2549 C2550 1.379 . S
C2550 H2534 0.931 . S
C2550 C2544 1.383 . S
C2550 C2549 1.379 . S
H2551 C2545 0.959 . S
H2552 C2545 0.961 . S
H2553 C2545 0.960 . S
H2554 C2546 0.930 . S
H2555 C2547 0.929 . S
H2556 C2564 0.929 . S
H2557 C2566 0.930 . S
H2558 C2568 0.930 . S
H2559 C2571 0.929 . S
H2560 C2574 0.930 . S
H2561 C2576 0.960 . S
H2562 C2576 0.960 . S
H2563 C2576 0.960 . S
C2564 H2556 0.929 . S
C2564 C2565 1.377 . S
C2564 C2566 1.384 . S
C2565 C2564 1.377 . S
C2565 C2571 1.390 . S
C2566 H2557 0.930 . S
C2566 C2564 1.384 . S
C2566 C2567 1.372 . S
C2567 C2566 1.372 . S
C2567 C2568 1.400 . S
C2567 C2572 1.490 . S
C2568 H2558 0.930 . S
C2568 C2567 1.400 . S
C2568 C2571 1.386 . S
H2569 C2585 0.930 . S
H2570 C2586 0.931 . S
C2571 H2559 0.929 . S
C2571 C2565 1.390 . S
C2571 C2568 1.386 . S
C2572 C2567 1.490 . S
C2572 C2574 1.395 . S
C2572 C2575 1.403 . S
H2573 C2579 0.930 . S
C2574 H2560 0.930 . S
C2574 C2572 1.395 . S
C2574 C2577 1.403 . S
C2575 C2572 1.403 . S
C2575 C2576 1.524 . S
C2575 C2579 1.400 . S
C2576 H2561 0.960 . S
C2576 H2562 0.960 . S
C2576 H2563 0.960 . S
C2576 C2575 1.524 . S
C2577 C2574 1.403 . S
C2577 C2578 1.392 . S
C2577 C2581 1.495 . S
C2578 C2577 1.392 . S
C2578 C2579 1.385 . S
C2578 C2580 1.478 . S
C2579 H2573 0.930 . S
C2579 C2575 1.400 . S
C2579 C2578 1.385 . S
C2580 C2578 1.478 . S
C2580 C2582 1.381 . S
C2580 C2586 1.383 . S
C2581 C2577 1.495 . S
C2581 H2587 0.959 . S
C2581 H2588 0.961 . S
C2581 H2589 0.960 . S
C2582 C2580 1.381 . S
C2582 C2583 1.394 . S
C2582 H2590 0.930 . S
C2583 C2582 1.394 . S
C2583 C2584 1.383 . S
C2583 H2591 0.929 . S
C2584 C2583 1.383 . S
C2584 C2585 1.377 . S
C2585 H2569 0.930 . S
C2585 C2584 1.377 . S
C2585 C2586 1.379 . S
C2586 H2570 0.931 . S
C2586 C2580 1.383 . S
C2586 C2585 1.379 . S
H2587 C2581 0.959 . S
H2588 C2581 0.961 . S
H2589 C2581 0.960 . S
H2590 C2582 0.930 . S
H2591 C2583 0.929 . S
H2592 C2600 0.929 . S
H2593 C2602 0.930 . S
H2594 C2604 0.930 . S
H2595 C2607 0.929 . S
H2596 C2610 0.930 . S
H2597 C2612 0.960 . S
H2598 C2612 0.960 . S
H2599 C2612 0.960 . S
C2600 H2592 0.929 . S
C2600 C2601 1.377 . S
C2600 C2602 1.384 . S
C2601 C2600 1.377 . S
C2601 C2607 1.390 . S
C2602 H2593 0.930 . S
C2602 C2600 1.384 . S
C2602 C2603 1.372 . S
C2603 C2602 1.372 . S
C2603 C2604 1.400 . S
C2603 C2608 1.490 . S
C2604 H2594 0.930 . S
C2604 C2603 1.400 . S
C2604 C2607 1.386 . S
H2605 C2621 0.930 . S
H2606 C2622 0.931 . S
C2607 H2595 0.929 . S
C2607 C2601 1.390 . S
C2607 C2604 1.386 . S
C2608 C2603 1.490 . S
C2608 C2610 1.395 . S
C2608 C2611 1.403 . S
H2609 C2615 0.930 . S
C2610 H2596 0.930 . S
C2610 C2608 1.395 . S
C2610 C2613 1.403 . S
C2611 C2608 1.403 . S
C2611 C2612 1.524 . S
C2611 C2615 1.400 . S
C2612 H2597 0.960 . S
C2612 H2598 0.960 . S
C2612 H2599 0.960 . S
C2612 C2611 1.524 . S
C2613 C2610 1.403 . S
C2613 C2614 1.392 . S
C2613 C2617 1.495 . S
C2614 C2613 1.392 . S
C2614 C2615 1.385 . S
C2614 C2616 1.478 . S
C2615 H2609 0.930 . S
C2615 C2611 1.400 . S
C2615 C2614 1.385 . S
C2616 C2614 1.478 . S
C2616 C2618 1.381 . S
C2616 C2622 1.383 . S
C2617 C2613 1.495 . S
C2617 H2623 0.959 . S
C2617 H2624 0.961 . S
C2617 H2625 0.960 . S
C2618 C2616 1.381 . S
C2618 C2619 1.394 . S
C2618 H2626 0.930 . S
C2619 C2618 1.394 . S
C2619 C2620 1.383 . S
C2619 H2627 0.929 . S
C2620 C2619 1.383 . S
C2620 C2621 1.377 . S
C2621 H2605 0.930 . S
C2621 C2620 1.377 . S
C2621 C2622 1.379 . S
C2622 H2606 0.931 . S
C2622 C2616 1.383 . S
C2622 C2621 1.379 . S
H2623 C2617 0.959 . S
H2624 C2617 0.961 . S
H2625 C2617 0.960 . S
H2626 C2618 0.930 . S
H2627 C2619 0.929 . S
H2628 C2636 0.929 . S
H2629 C2638 0.930 . S
H2630 C2640 0.930 . S
H2631 C2643 0.929 . S
H2632 C2646 0.930 . S
H2633 C2648 0.960 . S
H2634 C2648 0.960 . S
H2635 C2648 0.960 . S
C2636 H2628 0.929 . S
C2636 C2637 1.377 . S
C2636 C2638 1.384 . S
C2637 C2636 1.377 . S
C2637 C2643 1.390 . S
C2638 H2629 0.930 . S
C2638 C2636 1.384 . S
C2638 C2639 1.372 . S
C2639 C2638 1.372 . S
C2639 C2640 1.400 . S
C2639 C2644 1.490 . S
C2640 H2630 0.930 . S
C2640 C2639 1.400 . S
C2640 C2643 1.386 . S
H2641 C2657 0.930 . S
H2642 C2658 0.931 . S
C2643 H2631 0.929 . S
C2643 C2637 1.390 . S
C2643 C2640 1.386 . S
C2644 C2639 1.490 . S
C2644 C2646 1.395 . S
C2644 C2647 1.403 . S
H2645 C2651 0.930 . S
C2646 H2632 0.930 . S
C2646 C2644 1.395 . S
C2646 C2649 1.403 . S
C2647 C2644 1.403 . S
C2647 C2648 1.524 . S
C2647 C2651 1.400 . S
C2648 H2633 0.960 . S
C2648 H2634 0.960 . S
C2648 H2635 0.960 . S
C2648 C2647 1.524 . S
C2649 C2646 1.403 . S
C2649 C2650 1.392 . S
C2649 C2653 1.495 . S
C2650 C2649 1.392 . S
C2650 C2651 1.385 . S
C2650 C2652 1.478 . S
C2651 H2645 0.930 . S
C2651 C2647 1.400 . S
C2651 C2650 1.385 . S
C2652 C2650 1.478 . S
C2652 C2654 1.381 . S
C2652 C2658 1.383 . S
C2653 C2649 1.495 . S
C2653 H2659 0.959 . S
C2653 H2660 0.961 . S
C2653 H2661 0.960 . S
C2654 C2652 1.381 . S
C2654 C2655 1.394 . S
C2654 H2662 0.930 . S
C2655 C2654 1.394 . S
C2655 C2656 1.383 . S
C2655 H2663 0.929 . S
C2656 C2655 1.383 . S
C2656 C2657 1.377 . S
C2657 H2641 0.930 . S
C2657 C2656 1.377 . S
C2657 C2658 1.379 . S
C2658 H2642 0.931 . S
C2658 C2652 1.383 . S
C2658 C2657 1.379 . S
H2659 C2653 0.959 . S
H2660 C2653 0.961 . S
H2661 C2653 0.960 . S
H2662 C2654 0.930 . S
H2663 C2655 0.929 . S
C729 C535 1.668 . S
C748 C18 1.587 . S
C765 C58 1.627 . S
C784 C575 1.644 . S
C801 C98 1.655 . S
C820 C495 1.670 . S
C837 C95 1.660 . S
C856 C298 1.644 . S
C873 C338 1.624 . S
C892 C15 1.642 . S
C909 C55 1.665 . S
C928 C258 1.622 . S
C945 C129 1.622 1_655 S
C964 C406 1.650 . S
C981 C169 1.625 . S
C1000 C446 1.682 . S
C1017 C366 1.665 . S
C1036 C209 1.590 . S
C1053 C649 1.620 . S
C1072 C206 1.683 . S
C1089 C126 1.661 . S
C1108 C689 1.639 . S
C1125 C609 1.615 . S
C1144 C166 1.646 . S
C1161 C335 1.668 . S
C1180 C538 1.589 . S
C1197 C255 1.669 . S
C1216 C578 1.588 . S
C1233 C295 1.660 . S
C1252 C498 1.639 . S
C1269 C369 1.617 . S
C1288 C646 1.639 . S
C1305 C686 1.662 . S
C1324 C409 1.644 . S
C1341 C606 1.668 . S
C1360 C449 1.643 . S
C1377 C6 1.874 . S
C1396 C178 1.858 . S
C1413 C218 1.875 1_565 S
C1432 C46 1.883 . S
C1449 C138 1.877 . S
C1468 C86 1.886 . S
C1485 C175 1.872 . S
C1504 C89 1.887 . S
C1521 C215 1.873 . S
C1540 C9 1.869 1_655 S
C1557 C135 1.878 . S
C1576 C49 1.856 . S
C1593 C418 1.876 . S
C1612 C246 1.885 . S
C1629 C458 1.877 . S
C1648 C286 1.885 . S
C1665 C378 1.871 . S
C1684 C326 1.854 . S
C1701 C415 1.875 . S
C1720 C329 1.865 . S
C1737 C455 1.871 . S
C1756 C249 1.887 . S
C1773 C375 1.874 . S
C1792 C289 1.873 . S
C1809 C658 1.875 1_554 S
C1828 C486 1.883 . S
C1845 C698 1.871 1_554 S
C1864 C526 1.858 . S
C1881 C566 1.875 . S
C1900 C618 1.880 . S
C1917 C569 1.876 . S
C1936 C655 1.858 . S
C1953 C489 1.871 . S
C1972 C695 1.881 . S
C1989 C615 1.876 . S
C2008 C529 1.859 . S
C2025 C10 1.856 . S
C2044 C19 1.837 . S
C2061 C50 1.858 . S
C2080 C59 1.870 . S
C2097 C90 1.858 . S
C2116 C99 1.838 . S
C2133 C139 1.859 . S
C2152 C130 1.871 . S
C2169 C170 1.855 . S
C2188 C179 1.839 . S
C2205 C210 1.855 . S
C2224 C219 1.839 . S
C2241 C259 1.858 . S
C2260 C250 1.870 . S
C2277 C290 1.860 . S
C2296 C299 1.871 . S
C2313 C339 1.856 . S
C2332 C330 1.836 . S
C2349 C379 1.855 . S
C2368 C370 1.838 . S
C2385 C419 1.861 . S
C2404 C410 1.868 . S
C2421 C459 1.861 . S
C2440 C450 1.870 . S
C2457 C499 1.855 . S
C2476 C490 1.858 . S
C2493 C530 1.859 . S
C2512 C539 1.841 . S
C2529 C570 1.855 . S
C2548 C579 1.858 . S
C2565 C610 1.860 . S
C2584 C619 1.871 . S
C2601 C650 1.859 . S
C2620 C659 1.871 . S
C2637 C699 1.861 . S
C2656 C690 1.870 . S
