# Generated by pormake.
# Topology sod, (4)-cn, num edge types: 1
# Building blocks:
#     Node 0, Type 0, BuildingBlock: QUQFOY_clean_sbu_1, # of connection points: 4
#     Node 1, Type 0, BuildingBlock: QUQFOY_clean_sbu_1, # of connection points: 4
#     Node 2, Type 0, BuildingBlock: QUQFOY_clean_sbu_1, # of connection points: 4
#     Node 3, Type 0, BuildingBlock: QUQFOY_clean_sbu_1, # of connection points: 4
#     Node 4, Type 0, BuildingBlock: QUQFOY_clean_sbu_1, # of connection points: 4
#     Node 5, Type 0, BuildingBlock: QUQFOY_clean_sbu_1, # of connection points: 4
#     Node 6, Type 0, BuildingBlock: QUQFOY_clean_sbu_1, # of connection points: 4
#     Node 7, Type 0, BuildingBlock: QUQFOY_clean_sbu_1, # of connection points: 4
#     Node 8, Type 0, BuildingBlock: QUQFOY_clean_sbu_1, # of connection points: 4
#     Node 9, Type 0, BuildingBlock: QUQFOY_clean_sbu_1, # of connection points: 4
#     Node 10, Type 0, BuildingBlock: QUQFOY_clean_sbu_1, # of connection points: 4
#     Node 11, Type 0, BuildingBlock: QUQFOY_clean_sbu_1, # of connection points: 4
#     Edge 12, Type (0, 0), BuildingBlock: ZUJKAS_clean_linker_0, # of connection points: 2
#     Edge 13, Type (0, 0), BuildingBlock: ZUJKAS_clean_linker_0, # of connection points: 2
#     Edge 14, Type (0, 0), BuildingBlock: ZUJKAS_clean_linker_0, # of connection points: 2
#     Edge 15, Type (0, 0), BuildingBlock: ZUJKAS_clean_linker_0, # of connection points: 2
#     Edge 16, Type (0, 0), BuildingBlock: ZUJKAS_clean_linker_0, # of connection points: 2
#     Edge 17, Type (0, 0), BuildingBlock: ZUJKAS_clean_linker_0, # of connection points: 2
#     Edge 18, Type (0, 0), BuildingBlock: ZUJKAS_clean_linker_0, # of connection points: 2
#     Edge 19, Type (0, 0), BuildingBlock: ZUJKAS_clean_linker_0, # of connection points: 2
#     Edge 20, Type (0, 0), BuildingBlock: ZUJKAS_clean_linker_0, # of connection points: 2
#     Edge 21, Type (0, 0), BuildingBlock: ZUJKAS_clean_linker_0, # of connection points: 2
#     Edge 22, Type (0, 0), BuildingBlock: ZUJKAS_clean_linker_0, # of connection points: 2
#     Edge 23, Type (0, 0), BuildingBlock: ZUJKAS_clean_linker_0, # of connection points: 2
#     Edge 24, Type (0, 0), BuildingBlock: ZUJKAS_clean_linker_0, # of connection points: 2
#     Edge 25, Type (0, 0), BuildingBlock: ZUJKAS_clean_linker_0, # of connection points: 2
#     Edge 26, Type (0, 0), BuildingBlock: ZUJKAS_clean_linker_0, # of connection points: 2
#     Edge 27, Type (0, 0), BuildingBlock: ZUJKAS_clean_linker_0, # of connection points: 2
#     Edge 28, Type (0, 0), BuildingBlock: ZUJKAS_clean_linker_0, # of connection points: 2
#     Edge 29, Type (0, 0), BuildingBlock: ZUJKAS_clean_linker_0, # of connection points: 2
#     Edge 30, Type (0, 0), BuildingBlock: ZUJKAS_clean_linker_0, # of connection points: 2
#     Edge 31, Type (0, 0), BuildingBlock: ZUJKAS_clean_linker_0, # of connection points: 2
#     Edge 32, Type (0, 0), BuildingBlock: ZUJKAS_clean_linker_0, # of connection points: 2
#     Edge 33, Type (0, 0), BuildingBlock: ZUJKAS_clean_linker_0, # of connection points: 2
#     Edge 34, Type (0, 0), BuildingBlock: ZUJKAS_clean_linker_0, # of connection points: 2
#     Edge 35, Type (0, 0), BuildingBlock: ZUJKAS_clean_linker_0, # of connection points: 2
# Relax obj value: 0.195
# Max RMSD: 0.263
# Mean RMSD: 0.230
data_MOF--net-sod--node1-QUQFOY_clean_sbu_1--edge1-ZUJKAS_clean_linker_0
_symmetry_space_group_name_H-M    P1
_symmetry_Int_Tables_number       1
_symmetry_cell_setting            triclinic
loop_
_symmetry_equiv_pos_as_xyz
'x, y, z'
_cell_length_a     56.978215
_cell_length_b     56.927195
_cell_length_c     56.841571
_cell_angle_alpha  93.411534
_cell_angle_beta   89.446306
_cell_angle_gamma 96.796433
loop_
_atom_site_label
_atom_site_type_symbol
_atom_site_fract_x
_atom_site_fract_y
_atom_site_fract_z
_atom_type_partial_charge
O0 O 0.02518 0.23891 0.51836 0.0
Cd1 Cd 0.05401 0.26374 0.51413 0.0
Cd2 Cd 0.02748 0.29311 0.54032 0.0
O3 O 0.00576 0.26161 0.54242 0.0
O4 O 0.08056 0.24569 0.50456 0.0
O5 O 0.08001 0.26744 0.53817 0.0
C6 C 0.09071 0.25344 0.52415 0.0
C7 C 0.03062 0.31786 0.57472 0.0
C8 C 0.00753 0.24172 0.53159 0.0
C9 C 0.04089 0.30554 0.49045 0.0
O10 O 0.0295 0.31023 0.50914 0.0
O11 O 0.0525 0.28782 0.48893 0.0
O12 O 0.01174 0.31497 0.56211 0.0
O13 O 0.04804 0.30653 0.56781 0.0
O14 O 0.74563 0.0332 0.57269 0.0
Cd15 Cd 0.76439 0.03659 0.54152 0.0
Cd16 Cd 0.79299 0.00814 0.56475 0.0
O17 O 0.76625 0.00817 0.58921 0.0
O18 O 0.74372 0.0526 0.5212 0.0
O19 O 0.75279 0.01636 0.51268 0.0
C20 C 0.74173 0.03382 0.50722 0.0
C21 C 0.8068 0.9719 0.55499 0.0
C22 C 0.74883 0.02016 0.5895 0.0
C23 C 0.81533 0.0559 0.55118 0.0
O24 O 0.81736 0.03778 0.56267 0.0
O25 O 0.79609 0.0581 0.54089 0.0
O26 O 0.81175 0.98334 0.5749 0.0
O27 O 0.7937 0.98104 0.54042 0.0
O28 O 0.03049 0.81546 0.51231 0.0
Cd29 Cd 0.00238 0.78898 0.51164 0.0
Cd30 Cd 0.03364 0.76778 0.54004 0.0
O31 O 0.05362 0.79982 0.53644 0.0
O32 O 0.97692 0.80322 0.49597 0.0
O33 O 0.97469 0.79339 0.53306 0.0
C34 C 0.96535 0.80234 0.51553 0.0
C35 C 0.03202 0.75243 0.57722 0.0
C36 C 0.04952 0.81668 0.524 0.0
C37 C 0.01752 0.74178 0.49443 0.0
O38 O 0.03117 0.74297 0.5121 0.0
O39 O 0.0043 0.75786 0.49167 0.0
O40 O 0.05088 0.75312 0.56448 0.0
O41 O 0.01391 0.76087 0.56897 0.0
O42 O 0.23192 0.02908 0.55353 0.0
Cd43 Cd 0.25915 0.05527 0.56196 0.0
Cd44 Cd 0.28369 0.02954 0.52971 0.0
O45 O 0.25117 0.00967 0.52635 0.0
O46 O 0.24422 0.08113 0.57895 0.0
O47 O 0.26195 0.08503 0.54431 0.0
C48 C 0.25036 0.09407 0.56156 0.0
C49 C 0.30539 0.03642 0.49528 0.0
C50 C 0.23241 0.01213 0.53802 0.0
C51 C 0.30147 0.03519 0.57966 0.0
O52 O 0.30369 0.02601 0.55897 0.0
O53 O 0.28504 0.04796 0.58445 0.0
O54 O 0.30229 0.01583 0.50379 0.0
O55 O 0.29573 0.05338 0.5062 0.0
O56 O 0.51187 0.01838 0.25095 0.0
Cd57 Cd 0.50757 0.04912 0.27083 0.0
Cd58 Cd 0.53107 0.02311 0.30568 0.0
O59 O 0.52998 -0.00066 0.27678 0.0
O60 O 0.49347 0.06859 0.24805 0.0
O61 O 0.52856 0.07913 0.26414 0.0
C62 C 0.51217 0.08362 0.25012 0.0
C63 C 0.56505 0.02515 0.32882 0.0
C64 C 0.52156 0.00044 0.25632 0.0
C65 C 0.48354 0.03991 0.31796 0.0
O66 O 0.5005 0.02885 0.32378 0.0
O67 O 0.48345 0.04897 0.29808 0.0
O68 O 0.54901 0.00721 0.32866 0.0
O69 O 0.56185 0.04228 0.31574 0.0
O70 O 0.0003 0.52972 0.32126 0.0
Cd71 Cd -0.00042 0.50013 0.29861 0.0
Cd72 Cd 0.03311 0.5261 0.27561 0.0
O73 O 0.03171 0.54877 0.3051 0.0
O74 O 0.9872 0.47258 0.31667 0.0
O75 O 0.02389 0.47817 0.30295 0.0
C76 C 0.00798 0.46574 0.31483 0.0
C77 C 0.0701 0.51949 0.26066 0.0
C78 C 0.01606 0.54746 0.32118 0.0
C79 C 0.98672 0.51165 0.25074 0.0
O80 O 0.00666 0.52429 0.25078 0.0
O81 O 0.98051 0.49927 0.26809 0.0
O82 O 0.06184 0.53939 0.25872 0.0
O83 O 0.05745 0.50324 0.27165 0.0
O84 O 0.49679 0.02974 0.823 0.0
Cd85 Cd 0.49298 -0.00025 0.80074 0.0
Cd86 Cd 0.52411 0.02442 0.77336 0.0
O87 O 0.52555 0.04808 0.80235 0.0
O88 O 0.48327 0.97231 0.81988 0.0
O89 O 0.51781 0.97775 0.8014 0.0
C90 C 0.50359 0.9653 0.81499 0.0
C91 C 0.55985 0.02031 0.7541 0.0
C92 C 0.51227 0.04738 0.82043 0.0
C93 C 0.47479 0.00947 0.75434 0.0
O94 O 0.49498 0.02107 0.75157 0.0
O95 O 0.47012 -0.00144 0.77296 0.0
O96 O 0.54935 0.039 0.75276 0.0
O97 O 0.55012 0.00373 0.76678 0.0
O98 O 0.01095 0.51654 0.75167 0.0
Cd99 Cd 0.00545 0.54751 0.77062 0.0
Cd100 Cd 0.02746 0.5231 0.80698 0.0
O101 O 0.02755 0.4982 0.77914 0.0
O102 O 0.99349 0.56713 0.74665 0.0
O103 O 0.02721 0.57742 0.76552 0.0
C104 C 0.01204 0.58212 0.75025 0.0
C105 C 0.06058 0.52671 0.8315 0.0
C106 C 0.02025 0.49876 0.75816 0.0
C107 C 0.97924 0.53959 0.81661 0.0
O108 O 0.99628 0.52931 0.82364 0.0
O109 O 0.97965 0.5477 0.79626 0.0
O110 O 0.04451 0.50882 0.83185 0.0
O111 O 0.05795 0.54282 0.817 0.0
O112 O 0.31663 0.53867 0.06131 0.0
Cd113 Cd 0.29442 0.50773 0.06402 0.0
Cd114 Cd 0.26243 0.53511 0.04225 0.0
O115 O 0.2926 0.55911 0.0429 0.0
O116 O 0.31635 0.48527 0.07309 0.0
O117 O 0.29528 0.48003 0.0403 0.0
C118 C 0.31056 0.47275 0.05396 0.0
C119 C 0.23877 0.53513 0.00885 0.0
C120 C 0.31267 0.5574 0.05175 0.0
C121 C 0.24976 0.51528 0.0901 0.0
O122 O 0.24439 0.52722 0.07313 0.0
O123 O 0.26901 0.5061 0.08984 0.0
O124 O 0.23987 0.55198 0.02507 0.0
O125 O 0.25123 0.51794 0.01153 0.0
O126 O 0.53515 0.31913 0.0108 0.0
Cd127 Cd 0.50679 0.29331 0.00571 0.0
Cd128 Cd 0.53354 0.26963 0.03679 0.0
O129 O 0.55374 0.30206 0.03773 0.0
O130 O 0.48316 0.31026 0.99032 0.0
O131 O 0.47723 0.29492 0.02509 0.0
C132 C 0.4698 0.3067 0.00848 0.0
C133 C 0.53028 0.25097 0.07237 0.0
C134 C 0.55201 0.31959 0.02532 0.0
C135 C 0.52267 0.24717 0.98776 0.0
O136 O 0.53369 0.247 0.00707 0.0
O137 O 0.51036 0.26375 0.98402 0.0
O138 O 0.5497 0.25299 0.06053 0.0
O139 O 0.51239 0.25974 0.06406 0.0
O140 O 0.73912 0.52822 0.0632 0.0
Cd141 Cd 0.76484 0.5566 0.06823 0.0
Cd142 Cd 0.7873 0.53382 0.03233 0.0
O143 O 0.75532 0.51269 0.03147 0.0
O144 O 0.74921 0.58226 0.08469 0.0
O145 O 0.76378 0.58445 0.04848 0.0
C146 C 0.75264 0.59384 0.06589 0.0
C147 C 0.8056 0.54052 0.996 0.0
C148 C 0.73838 0.51268 0.04616 0.0
C149 C 0.81071 0.5406 0.08031 0.0
O150 O 0.81065 0.5314 0.05939 0.0
O151 O 0.79417 0.55236 0.08744 0.0
O152 O 0.80395 0.52015 0.00494 0.0
O153 O 0.79637 0.55737 0.00759 0.0
O154 O 0.52039 0.74022 0.01548 0.0
Cd155 Cd 0.55057 0.763 0.01039 0.0
Cd156 Cd 0.52531 0.79518 0.03591 0.0
O157 O 0.50202 0.76475 0.03854 0.0
O158 O 0.57471 0.7422 0.00012 0.0
O159 O 0.57748 0.76469 0.03333 0.0
C160 C 0.58618 0.74934 0.01915 0.0
C161 C 0.5284 0.82104 0.06955 0.0
C162 C 0.50286 0.74439 0.02836 0.0
C163 C 0.54042 0.8054 0.98572 0.0
O164 O 0.52933 0.81134 0.00423 0.0
O165 O 0.55061 0.78672 0.98465 0.0
O166 O 0.51003 0.81863 0.05623 0.0
O167 O 0.54535 0.8086 0.0638 0.0
H168 H 0.01887 0.34544 0.48787 0.0
H169 H 0.01725 0.36983 0.45413 0.0
H170 H 0.06013 0.3246 0.41357 0.0
H171 H 0.06176 0.29989 0.44718 0.0
H172 H 0.05599 0.39402 0.42931 0.0
H173 H 0.0007 0.32669 0.3722 0.0
H174 H 0.00328 0.32428 0.40358 0.0
H175 H 0.02703 0.31761 0.38429 0.0
C176 C 0.02796 0.34062 0.4718 0.0
C177 C 0.04035 0.32064 0.4702 0.0
C178 C 0.02704 0.35461 0.45256 0.0
C179 C 0.03836 0.34882 0.43135 0.0
C180 C 0.05101 0.32911 0.42972 0.0
H181 H 0.05128 0.45019 0.31973 0.0
H182 H 0.06115 0.41964 0.34537 0.0
C183 C 0.05198 0.3151 0.44898 0.0
C184 C 0.03683 0.3636 0.41105 0.0
H185 H 0.01192 0.36384 0.3567 0.0
C186 C 0.0466 0.38741 0.4133 0.0
C187 C 0.02444 0.35483 0.39032 0.0
C188 C 0.01308 0.32951 0.38736 0.0
C189 C 0.04378 0.40293 0.39557 0.0
C190 C 0.03111 0.39425 0.37496 0.0
C191 C 0.02182 0.3703 0.37246 0.0
C192 C 0.02518 0.41039 0.35708 0.0
C193 C 0.05343 0.42872 0.39949 0.0
C194 C 0.0016 0.41452 0.35451 0.0
C195 C 0.99591 0.43183 0.33991 0.0
C196 C 0.01372 0.44528 0.32754 0.0
C197 C 0.03719 0.44019 0.32912 0.0
C198 C 0.04288 0.42285 0.34382 0.0
H199 H 0.05927 0.43326 0.41796 0.0
H200 H 0.06886 0.4327 0.38772 0.0
H201 H 0.03989 0.44029 0.39514 0.0
H202 H 0.9877 0.40501 0.36458 0.0
H203 H 0.97764 0.43521 0.33896 0.0
H204 H 0.72211 0.06982 0.48843 0.0
H205 H 0.69504 0.06734 0.45503 0.0
H206 H 0.69986 0.99245 0.44471 0.0
H207 H 0.72722 0.99473 0.47812 0.0
H208 H 0.70224 0.04373 0.40365 0.0
H209 H 0.62661 0.00571 0.45788 0.0
H210 H 0.65197 0.02358 0.47101 0.0
H211 H 0.65449 0.99392 0.45969 0.0
C212 C 0.7176 0.05283 0.47896 0.0
C213 C 0.72669 0.03242 0.486 0.0
C214 C 0.70221 0.0515 0.45984 0.0
C215 C 0.69549 0.02974 0.44755 0.0
C216 C 0.70492 0.0094 0.45408 0.0
H217 H 0.58069 0.98829 0.34982 0.0
H218 H 0.61398 0.98932 0.37664 0.0
C219 C 0.72051 0.01074 0.47313 0.0
C220 C 0.67752 0.02819 0.4288 0.0
H221 H 0.6188 0.01226 0.41851 0.0
C222 C 0.684 0.03676 0.40675 0.0
C223 C 0.65383 0.01913 0.43307 0.0
C224 C 0.64609 0.01011 0.45668 0.0
C225 C 0.66729 0.03628 0.38864 0.0
C226 C 0.64342 0.02756 0.39302 0.0
C227 C 0.63708 0.01893 0.41514 0.0
C228 C 0.62459 0.02698 0.37505 0.0
C229 C 0.67546 0.04465 0.36491 0.0
C230 C 0.61954 0.0478 0.36502 0.0
C231 C 0.60059 0.04721 0.34939 0.0
C232 C 0.58614 0.02587 0.34392 0.0
C233 C 0.59142 0.00505 0.35378 0.0
C234 C 0.61046 0.0056 0.36911 0.0
H235 H 0.69473 0.04397 0.36235 0.0
H236 H 0.66584 0.03379 0.35037 0.0
H237 H 0.67203 0.06333 0.36371 0.0
H238 H 0.62981 0.06462 0.36978 0.0
H239 H 0.59683 0.06355 0.34219 0.0
H240 H 0.98189 0.55395 0.35427 0.0
H241 H 0.98131 0.5869 0.38382 0.0
H242 H 0.04968 0.61733 0.35987 0.0
H243 H 0.05018 0.58482 0.32992 0.0
H244 H 0.01116 0.60176 0.42024 0.0
H245 H 0.01094 0.67239 0.35721 0.0
H246 H 0.00551 0.64131 0.34819 0.0
H247 H 0.03526 0.65526 0.35278 0.0
C248 C 0.99679 0.56767 0.35526 0.0
C249 C 0.01599 0.56688 0.33961 0.0
C250 C 0.99643 0.58647 0.37215 0.0
C251 C 0.01524 0.60476 0.37371 0.0
C252 C 0.0347 0.6037 0.35854 0.0
H253 H 0.04718 0.70728 0.4912 0.0
H254 H 0.04605 0.67373 0.4622 0.0
C255 C 0.03501 0.58503 0.34153 0.0
C256 C 0.01464 0.62481 0.39139 0.0
H257 H 0.01783 0.68508 0.39748 0.0
C258 C 0.0125 0.61998 0.41529 0.0
C259 C 0.016 0.64852 0.38482 0.0
C260 C 0.01681 0.65471 0.35934 0.0
C261 C 0.01215 0.63829 0.43287 0.0
C262 C 0.01457 0.66206 0.42635 0.0
C263 C 0.01625 0.66685 0.40243 0.0
C264 C 0.01522 0.68227 0.44403 0.0
C265 C 0.0088 0.63197 0.4582 0.0
C266 C -0.00131 0.69858 0.44299 0.0
C267 C -0.00052 0.71797 0.45931 0.0
C268 C 0.01684 0.72137 0.47701 0.0
C269 C 0.03347 0.70506 0.47791 0.0
C270 C 0.03276 0.68578 0.46146 0.0
H271 H 0.00045 0.61343 0.45949 0.0
H272 H 0.0263 0.6336 0.46692 0.0
H273 H -0.00232 0.64403 0.46798 0.0
H274 H 0.98509 0.69625 0.42958 0.0
H275 H 0.9864 0.73019 0.45812 0.0
H276 H 0.32423 0.003 0.46737 0.0
H277 H 0.35187 0.00911 0.43476 0.0
H278 H 0.34842 0.08444 0.44251 0.0
H279 H 0.32071 0.07851 0.4756 0.0
H280 H 0.34786 0.03083 0.39162 0.0
H281 H 0.41963 0.07733 0.44903 0.0
H282 H 0.39367 0.06079 0.46091 0.0
H283 H 0.39181 0.08937 0.4498 0.0
C284 C 0.32918 0.0209 0.46211 0.0
C285 C 0.32044 0.04032 0.47421 0.0
C286 C 0.34494 0.02433 0.4434 0.0
C287 C 0.35238 0.04722 0.43643 0.0
C288 C 0.3431 0.06665 0.44787 0.0
H289 H 0.44481 0.06327 0.312 0.0
H290 H 0.41235 0.06772 0.33977 0.0
C291 C 0.32721 0.06323 0.46666 0.0
C292 C 0.3706 0.05038 0.4178 0.0
H293 H 0.42903 0.06923 0.4093 0.0
C294 C 0.36553 0.03952 0.39532 0.0
C295 C 0.39367 0.06151 0.42287 0.0
C296 C 0.40022 0.07281 0.44697 0.0
C297 C 0.38314 0.03885 0.37794 0.0
C298 C 0.40631 0.04958 0.38316 0.0
C299 C 0.4112 0.06108 0.4054 0.0
C300 C 0.42612 0.04752 0.36643 0.0
C301 C 0.37709 0.02569 0.35454 0.0
C302 C 0.44481 0.03508 0.37245 0.0
C303 C 0.46343 0.03256 0.3567 0.0
C304 C 0.46374 0.04252 0.33463 0.0
C305 C 0.44506 0.05522 0.32877 0.0
C306 C 0.42645 0.05774 0.34458 0.0
H307 H 0.35969 0.01461 0.35499 0.0
H308 H 0.37635 0.03865 0.34082 0.0
H309 H 0.39085 0.01412 0.34925 0.0
H310 H 0.44487 0.02709 0.38928 0.0
H311 H 0.47754 0.02274 0.36183 0.0
H312 H 0.98008 0.59926 0.72261 0.0
H313 H 0.98632 0.6335 0.69844 0.0
H314 H 0.05816 0.64823 0.72312 0.0
H315 H 0.05206 0.61387 0.74761 0.0
H316 H 0.00499 0.68476 0.71291 0.0
H317 H 0.05962 0.6375 0.64806 0.0
H318 H 0.03957 0.62179 0.66812 0.0
H319 H 0.06678 0.63765 0.67887 0.0
C320 C 0.99719 0.60984 0.72307 0.0
C321 C 0.01566 0.60375 0.73688 0.0
C322 C 0.00066 0.62945 0.70933 0.0
C323 C 0.02269 0.64324 0.70898 0.0
C324 C 0.04104 0.63767 0.72317 0.0
H325 H 0.06922 0.74296 0.60325 0.0
H326 H 0.06805 0.72 0.63826 0.0
C327 C 0.03753 0.61809 0.73712 0.0
C328 C 0.02661 0.66249 0.69256 0.0
H329 H 0.05091 0.67512 0.6391 0.0
C330 C 0.01523 0.68287 0.69687 0.0
C331 C 0.03999 0.65985 0.67173 0.0
C332 C 0.05216 0.63801 0.66619 0.0
C333 C 0.01672 0.7007 0.68067 0.0
C334 C 0.02937 0.69765 0.65936 0.0
C335 C 0.04122 0.67747 0.65542 0.0
C336 C 0.02986 0.71445 0.64033 0.0
C337 C 0.00482 0.72261 0.68661 0.0
C338 C 0.00877 0.71939 0.63007 0.0
C339 C 0.00939 0.73281 0.61019 0.0
C340 C 0.03112 0.74108 0.59996 0.0
C341 C 0.05219 0.73672 0.61067 0.0
C342 C 0.05156 0.72361 0.63069 0.0
H343 H 0.00308 0.72589 0.70598 0.0
H344 H 0.01475 0.73851 0.67928 0.0
H345 H 0.98676 0.7201 0.67903 0.0
H346 H 0.9918 0.71202 0.63679 0.0
H347 H 0.99289 0.73573 0.60219 0.0
H348 H 0.47961 0.02879 0.71148 0.0
H349 H 0.44876 0.0312 0.68254 0.0
H350 H 0.39756 0.99321 0.72703 0.0
H351 H 0.4284 0.99037 0.75606 0.0
H352 H 0.39393 0.97793 0.6791 0.0
H353 H 0.39734 0.07565 0.69212 0.0
H354 H 0.42546 0.0657 0.68508 0.0
H355 H 0.41094 0.05803 0.71228 0.0
C356 C 0.46182 0.02085 0.71512 0.0
C357 C 0.45642 0.00958 0.73619 0.0
C358 C 0.44421 0.02235 0.6986 0.0
C359 C 0.42086 0.01279 0.70292 0.0
C360 C 0.4155 0.00083 0.72351 0.0
H361 H 0.30008 0.04908 0.6265 0.0
H362 H 0.3278 0.04214 0.65717 0.0
C363 C 0.43313 -0.00075 0.74005 0.0
C364 C 0.402 0.01561 0.68603 0.0
H365 H 0.37507 0.05735 0.6594 0.0
C366 C 0.38967 0.99526 0.67486 0.0
C367 C 0.39628 0.03825 0.68088 0.0
C368 C 0.40802 0.06066 0.69337 0.0
C369 C 0.37213 0.99699 0.6581 0.0
C370 C 0.36718 0.01968 0.65218 0.0
C371 C 0.37908 0.03999 0.66383 0.0
C372 C 0.3499 0.02287 0.63375 0.0
C373 C 0.35895 0.97455 0.64707 0.0
C374 C 0.3533 0.01449 0.61041 0.0
C375 C 0.33748 0.01835 0.59285 0.0
C376 C 0.3181 0.0309 0.5983 0.0
C377 C 0.31482 0.03936 0.62171 0.0
C378 C 0.33061 0.0354 0.63926 0.0
H379 H 0.35993 0.95926 0.65814 0.0
H380 H 0.34007 0.97665 0.64425 0.0
H381 H 0.36698 0.97034 0.6297 0.0
H382 H 0.36841 0.00528 0.6057 0.0
H383 H 0.34059 0.01172 0.57498 0.0
H384 H 0.06931 0.33279 0.60256 0.0
H385 H 0.07121 0.36098 0.63715 0.0
H386 H 0.9971 0.36756 0.62952 0.0
H387 H 0.99499 0.33959 0.59525 0.0
H388 H 0.05979 0.4085 0.63788 0.0
H389 H 0.00353 0.35483 0.6997 0.0
H390 H 0.01677 0.34191 0.67375 0.0
H391 H 0.99019 0.35578 0.67133 0.0
C392 C 0.0534 0.34009 0.60842 0.0
C393 C 0.032 0.33395 0.59619 0.0
C394 C 0.05452 0.35616 0.62813 0.0
C395 C 0.03421 0.36605 0.63605 0.0
C396 C 0.01285 0.35978 0.62397 0.0
H397 H 0.00943 0.49496 0.71116 0.0
H398 H 0.01517 0.46226 0.68267 0.0
C399 C 0.01174 0.34389 0.60427 0.0
C400 C 0.03532 0.38401 0.65604 0.0
H401 H 0.00945 0.39679 0.70893 0.0
C402 C 0.04907 0.40585 0.65359 0.0
C403 C 0.02151 0.38039 0.6766 0.0
C404 C 0.00733 0.35687 0.68067 0.0
C405 C 0.04845 0.42462 0.67067 0.0
C406 C 0.03348 0.42146 0.6905 0.0
C407 C 0.02067 0.39924 0.69354 0.0
C408 C 0.03019 0.44125 0.70785 0.0
C409 C 0.06362 0.44774 0.66722 0.0
C410 C 0.03617 0.43997 0.73157 0.0
C411 C 0.03282 0.45858 0.74796 0.0
C412 C 0.02322 0.47874 0.74093 0.0
C413 C 0.01693 0.47976 0.71718 0.0
C414 C 0.02035 0.46117 0.70082 0.0
H415 H 0.07861 0.44528 0.65502 0.0
H416 H 0.05273 0.46022 0.65947 0.0
H417 H 0.07077 0.45594 0.68428 0.0
H418 H 0.04361 0.42463 0.73735 0.0
H419 H 0.03781 0.45717 0.7661 0.0
H420 H 0.58214 0.05171 0.72474 0.0
H421 H 0.61754 0.04778 0.7013 0.0
H422 H 0.62368 0.98039 0.73017 0.0
H423 H 0.58764 0.98395 0.75353 0.0
H424 H 0.66296 0.04327 0.715 0.0
H425 H 0.62479 0.96454 0.6591 0.0
H426 H 0.60672 0.98179 0.67786 0.0
H427 H 0.62418 0.96143 0.69039 0.0
C428 C 0.59096 0.03602 0.72619 0.0
C429 C 0.58199 0.01805 0.74088 0.0
C430 C 0.61126 0.03384 0.7128 0.0
C431 C 0.62307 0.01369 0.71379 0.0
C432 C 0.61456 0.9959 0.72885 0.0
H433 H 0.74529 0.98839 0.62402 0.0
H434 H 0.71668 0.98542 0.65647 0.0
C435 C 0.59407 -0.00199 0.74225 0.0
C436 C 0.64404 0.01159 0.6986 0.0
H437 H 0.66321 0.98132 0.64984 0.0
C438 C 0.66315 0.02955 0.70094 0.0
C439 C 0.64422 0.99365 0.68028 0.0
C440 C 0.62385 0.97432 0.67653 0.0
C441 C 0.68203 0.03056 0.6849 0.0
C442 C 0.68169 0.01322 0.66607 0.0
C443 C 0.66325 0.99458 0.66436 0.0
C444 C 0.69934 0.01525 0.64693 0.0
C445 C 0.70193 0.05047 0.68779 0.0
C446 C 0.69881 0.03291 0.63084 0.0
C447 C 0.71493 0.03457 0.6122 0.0
C448 C 0.73195 0.01863 0.60943 0.0
C449 C 0.73248 0.00101 0.62572 0.0
C450 C 0.71617 -0.00076 0.64424 0.0
H451 H 0.70216 0.05936 0.70574 0.0
H452 H 0.71925 0.04379 0.68432 0.0
H453 H 0.69972 0.06388 0.67483 0.0
H454 H 0.68573 0.04527 0.63258 0.0
H455 H 0.71405 0.04833 0.59998 0.0
H456 H 0.43104 0.29265 0.03539 0.0
H457 H 0.39484 0.31191 0.04013 0.0
H458 H 0.42305 0.3647 0.99261 0.0
H459 H 0.45819 0.34473 0.98671 0.0
H460 H 0.38905 0.35135 0.05903 0.0
H461 H 0.35851 0.35523 0.9684 0.0
H462 H 0.38102 0.337 0.97539 0.0
H463 H 0.3888 0.36776 0.96929 0.0
C464 C 0.42918 0.30808 0.02562 0.0
C465 C 0.44732 0.31713 0.01059 0.0
C466 C 0.40851 0.31907 0.02829 0.0
C467 C 0.40583 0.33952 0.0163 0.0
C468 C 0.42405 0.34844 0.00129 0.0
H469 H 0.3526 0.46227 0.06947 0.0
H470 H 0.37139 0.42664 0.0603 0.0
C471 C 0.44435 0.33714 -0.00185 0.0
C472 C 0.38555 0.35326 0.02143 0.0
H473 H 0.35029 0.38878 0.99563 0.0
C474 C 0.38016 0.35901 0.04509 0.0
C475 C 0.37314 0.36277 0.00344 0.0
C476 C 0.37552 0.35506 0.97775 0.0
C477 C 0.36442 0.37554 0.05116 0.0
C478 C 0.3547 0.38754 0.03316 0.0
C479 C 0.35831 0.38021 0.00952 0.0
C480 C 0.34279 0.4091 0.03848 0.0
C481 C 0.35878 0.38019 0.0769 0.0
C482 C 0.321 0.41183 0.02819 0.0
C483 C 0.31051 0.43269 0.03285 0.0
C484 C 0.32157 0.45097 0.04805 0.0
C485 C 0.34346 0.4483 0.05802 0.0
C486 C 0.35411 0.42778 0.05299 0.0
H487 H 0.35892 0.36385 0.08662 0.0
H488 H 0.37256 0.39365 0.08487 0.0
H489 H 0.34125 0.38668 0.07939 0.0
H490 H 0.31207 0.3978 0.01668 0.0
H491 H 0.29363 0.43435 0.0249 0.0
H492 H 0.35201 0.56626 0.07935 0.0
H493 H 0.38365 0.59907 0.07752 0.0
H494 H 0.34871 0.6255 0.01925 0.0
H495 H 0.31649 0.59335 0.02171 0.0
H496 H 0.41417 0.60977 0.0445 0.0
H497 H 0.36172 0.68502 0.05965 0.0
H498 H 0.34955 0.65486 0.06388 0.0
H499 H 0.35091 0.66606 0.03484 0.0
C500 C 0.35098 0.57919 0.06628 0.0
C501 C 0.3317 0.57734 0.05077 0.0
C502 C 0.36907 0.59793 0.06525 0.0
C503 C 0.36837 0.61504 0.04854 0.0
C504 C 0.3493 0.61299 0.03279 0.0
H505 H 0.49152 0.70397 0.00051 0.0
H506 H 0.459 0.6727 0.0059 0.0
C507 C 0.33097 0.5945 0.0341 0.0
C508 C 0.38813 0.63436 0.04692 0.0
H509 H 0.40082 0.69427 0.04441 0.0
C510 C 0.41126 0.62827 0.0447 0.0
C511 C 0.38442 0.65854 0.0476 0.0
C512 C 0.36033 0.66653 0.05189 0.0
C513 C 0.4307 0.6456 0.04266 0.0
C514 C 0.42683 0.66965 0.0419 0.0
C515 C 0.40376 0.6758 0.04463 0.0
C516 C 0.44642 0.68875 0.03841 0.0
C517 C 0.45518 0.63792 0.04184 0.0
C518 C 0.44961 0.70868 0.05434 0.0
C519 C 0.46782 0.72687 0.05096 0.0
C520 C 0.48334 0.72535 0.0317 0.0
C521 C 0.48004 0.70548 0.01569 0.0
C522 C 0.46156 0.6875 0.01885 0.0
H523 H 0.45559 0.62088 0.05032 0.0
H524 H 0.46065 0.6352 0.02319 0.0
H525 H 0.46827 0.65146 0.05076 0.0
H526 H 0.43808 0.7101 0.0695 0.0
H527 H 0.46994 0.74195 0.06362 0.0
H528 H 0.58633 0.32922 0.05883 0.0
H529 H 0.61633 0.36354 0.06268 0.0
H530 H 0.58884 0.39146 0.00105 0.0
H531 H 0.55832 0.35743 0.99738 0.0
H532 H 0.65079 0.37707 0.03186 0.0
H533 H 0.59323 0.44853 0.04763 0.0
H534 H 0.5824 0.41757 0.04932 0.0
H535 H 0.58619 0.43037 0.02115 0.0
C536 C 0.58653 0.34272 0.04617 0.0
C537 C 0.5699 0.34061 0.02782 0.0
C538 C 0.60369 0.36233 0.04841 0.0
C539 C 0.6046 0.3802 0.03236 0.0
C540 C 0.58809 0.37815 0.01397 0.0
H541 H 0.72852 0.48022 0.00919 0.0
H542 H 0.6956 0.44865 0.00554 0.0
C543 C 0.57077 0.35861 0.01181 0.0
C544 C 0.62358 0.40035 0.03432 0.0
H545 H 0.63397 0.46069 0.04042 0.0
C546 C 0.64712 0.39536 0.03381 0.0
C547 C 0.61871 0.42415 0.03714 0.0
C548 C 0.59377 0.43053 0.03908 0.0
C549 C 0.66597 0.41353 0.03584 0.0
C550 C 0.66112 0.43737 0.03784 0.0
C551 C 0.63759 0.44239 0.03862 0.0
C552 C 0.68031 0.45731 0.03949 0.0
C553 C 0.69087 0.40699 0.03631 0.0
C554 C 0.68209 0.4732 0.05941 0.0
C555 C 0.70075 0.49146 0.06146 0.0
C556 C 0.71796 0.49411 0.0436 0.0
C557 C 0.71573 0.47851 0.02339 0.0
C558 C 0.69699 0.46038 0.02131 0.0
H559 H 0.69122 0.3884 0.04115 0.0
H560 H 0.69886 0.40867 0.01853 0.0
H561 H 0.70199 0.41892 0.04902 0.0
H562 H 0.66928 0.47118 0.07358 0.0
H563 H 0.70191 0.50322 0.0772 0.0
H564 H 0.72959 0.61802 0.09997 0.0
H565 H 0.70642 0.6508 0.09478 0.0
H566 H 0.72842 0.65288 0.0221 0.0
H567 H 0.75177 0.62002 0.02706 0.0
H568 H 0.72422 0.70056 0.05127 0.0
H569 H 0.64604 0.63163 0.0502 0.0
H570 H 0.66651 0.63223 0.07421 0.0
H571 H 0.67567 0.62432 0.04481 0.0
C572 C 0.72993 0.62574 0.08298 0.0
C573 C 0.74223 0.6162 0.06381 0.0
C574 C 0.71674 0.64451 0.08011 0.0
C575 C 0.71564 0.65404 0.05805 0.0
C576 C 0.72916 0.64572 0.03928 0.0
H577 H 0.6086 0.71818 0.99163 0.0
H578 H 0.6421 0.698 0.00209 0.0
C579 C 0.74241 0.62691 0.04213 0.0
C580 C 0.69801 0.6703 0.05377 0.0
H581 H 0.63882 0.6709 0.04595 0.0
C582 C 0.70552 0.69421 0.05025 0.0
C583 C 0.67371 0.66177 0.05231 0.0
C584 C 0.66486 0.63607 0.05542 0.0
C585 C 0.68917 0.70987 0.04519 0.0
C586 C 0.66493 0.70124 0.04359 0.0
C587 C 0.65747 0.6774 0.04732 0.0
C588 C 0.64692 0.71605 0.03656 0.0
C589 C 0.6978 0.73533 0.04095 0.0
C590 C 0.63879 0.73311 0.05245 0.0
C591 C 0.61947 0.74469 0.04657 0.0
C592 C 0.60804 0.73922 0.02476 0.0
C593 C 0.6169 0.72274 0.00862 0.0
C594 C 0.63609 0.71122 0.01451 0.0
H595 H 0.7174 0.73879 0.04089 0.0
H596 H 0.69102 0.7401 0.02383 0.0
H597 H 0.69084 0.74707 0.05498 0.0
H598 H 0.64682 0.73682 0.06967 0.0
H599 H 0.61305 0.7573 0.05936 0.0
H600 H 0.55881 0.79613 0.94189 0.0
H601 H 0.5592 0.82043 0.90772 0.0
H602 H 0.52416 0.8722 0.94874 0.0
H603 H 0.52375 0.84821 0.98295 0.0
H604 H 0.51919 0.8347 0.88566 0.0
H605 H 0.58088 0.91181 0.91883 0.0
H606 H 0.57891 0.88331 0.93158 0.0
H607 H 0.55769 0.90349 0.93939 0.0
C608 C 0.55135 0.81278 0.9437 0.0
C609 C 0.54127 0.82026 0.96517 0.0
C610 C 0.5516 0.82661 0.92417 0.0
C611 C 0.54204 0.84823 0.92587 0.0
C612 C 0.53205 0.85577 0.94724 0.0
H613 H 0.47574 0.93306 0.83949 0.0
H614 H 0.48822 0.90166 0.86203 0.0
C615 C 0.53169 0.84195 0.96673 0.0
C616 C 0.54122 0.86247 0.90507 0.0
H617 H 0.55528 0.91848 0.88709 0.0
C618 C 0.52744 0.85288 0.88572 0.0
C619 C 0.55236 0.88601 0.90502 0.0
C620 C 0.5685 0.89671 0.92472 0.0
C621 C 0.52313 0.86682 0.86705 0.0
C622 C 0.53266 0.89094 0.86799 0.0
C623 C 0.54782 0.90001 0.88651 0.0
C624 C 0.52497 0.90775 0.85162 0.0
C625 C 0.50788 0.85579 0.84682 0.0
C626 C 0.54153 0.92161 0.83828 0.0
C627 C 0.53444 0.93971 0.82536 0.0
C628 C 0.51074 0.94438 0.82593 0.0
C629 C 0.49412 0.92992 0.8387 0.0
C630 C 0.50118 0.91181 0.85145 0.0
H631 H 0.50864 0.83637 0.84466 0.0
H632 H 0.48923 0.85867 0.85047 0.0
H633 H 0.51336 0.86388 0.83003 0.0
H634 H 0.56002 0.91885 0.83839 0.0
H635 H 0.54765 0.95061 0.81574 0.0
H636 H 0.22883 0.50072 0.97323 0.0
H637 H 0.20113 0.50113 0.94053 0.0
H638 H 0.18628 0.57101 0.96506 0.0
H639 H 0.21351 0.57063 0.99782 0.0
H640 H 0.14626 0.53993 0.95742 0.0
H641 H 0.20626 0.53725 0.88004 0.0
H642 H 0.20861 0.51433 0.9 0.0
H643 H 0.21692 0.54478 0.90968 0.0
C644 C 0.21984 0.51625 0.97149 0.0
C645 C 0.2233 0.5356 0.98816 0.0
C646 C 0.20415 0.51653 0.95272 0.0
C647 C 0.19186 0.53623 0.95022 0.0
C648 C 0.19564 0.55568 0.96661 0.0
H649 H 0.09793 0.56197 0.83574 0.0
H650 H 0.1307 0.56519 0.86398 0.0
C651 C 0.21121 0.5554 0.98535 0.0
C652 C 0.17372 0.53598 0.93167 0.0
H653 H 0.16486 0.53109 0.87212 0.0
C654 C 0.15037 0.53813 0.93878 0.0
C655 C 0.17917 0.53391 0.90736 0.0
C656 C 0.20413 0.53266 0.89873 0.0
C657 C 0.13222 0.53773 0.92225 0.0
C658 C 0.13749 0.53476 0.89799 0.0
C659 C 0.16091 0.5332 0.89078 0.0
C660 C 0.11862 0.53238 0.88003 0.0
C661 C 0.10751 0.54051 0.93088 0.0
C662 C 0.10134 0.51269 0.8795 0.0
C663 C 0.08272 0.51081 0.8635 0.0
C664 C 0.08102 0.52858 0.84764 0.0
C665 C 0.0987 0.54805 0.84779 0.0
C666 C 0.11743 0.54989 0.86385 0.0
H667 H 0.10747 0.54834 0.94926 0.0
H668 H 0.09871 0.55187 0.91934 0.0
H669 H 0.09691 0.52283 0.93049 0.0
H670 H 0.10214 0.49886 0.89166 0.0
H671 H 0.0695 0.49549 0.86378 0.0
H672 H 0.54882 0.08283 0.82553 0.0
H673 H 0.55271 0.11632 0.85469 0.0
H674 H 0.48499 0.09126 0.88432 0.0
H675 H 0.48131 0.05726 0.85569 0.0
H676 H 0.52592 0.15131 0.86111 0.0
H677 H 0.52497 0.10259 0.94265 0.0
H678 H 0.52838 0.0884 0.91379 0.0
H679 H 0.49948 0.09338 0.92465 0.0
C680 C 0.53483 0.08434 0.83837 0.0
C681 C 0.51479 0.06736 0.83838 0.0
C682 C 0.53708 0.10348 0.85502 0.0
C683 C 0.51932 0.10609 0.87191 0.0
C684 C 0.49921 0.08926 0.87186 0.0
H685 H 0.49455 0.2364 0.94902 0.0
H686 H 0.49482 0.20256 0.92059 0.0
C687 C 0.49706 0.06992 0.85538 0.0
C688 C 0.52142 0.12698 0.88888 0.0
H689 H 0.51973 0.14361 0.94747 0.0
C690 C 0.52475 0.14963 0.88001 0.0
C691 C 0.52026 0.12476 0.91353 0.0
C692 C 0.51833 0.10097 0.92424 0.0
C693 C 0.52646 0.17016 0.8951 0.0
C694 C 0.5241 0.16793 0.91968 0.0
C695 C 0.52127 0.14528 0.92859 0.0
C696 C 0.52435 0.18882 0.93652 0.0
C697 C 0.53116 0.19397 0.88453 0.0
C698 C 0.54047 0.192 0.95526 0.0
C699 C 0.54011 0.21112 0.97178 0.0
C700 C 0.52365 0.22744 0.9698 0.0
C701 C 0.50762 0.22429 0.9509 0.0
C702 C 0.50784 0.20503 0.93455 0.0
H703 H 0.53977 0.19251 0.86696 0.0
H704 H 0.51412 0.20116 0.88213 0.0
H705 H 0.5426 0.20679 0.89616 0.0
H706 H 0.5533 0.17963 0.95716 0.0
H707 H 0.5527 0.21305 0.98613 0.0
H708 H 0.9721 0.52386 0.8609 0.0
H709 H 0.93914 0.52956 0.88753 0.0
H710 H 0.90779 0.56838 0.83562 0.0
H711 H 0.94061 0.56254 0.80861 0.0
H712 H 0.92431 0.5728 0.90534 0.0
H713 H 0.85395 0.51729 0.85302 0.0
H714 H 0.885 0.51579 0.84745 0.0
H715 H 0.87122 0.54039 0.83804 0.0
C716 C 0.95817 0.53353 0.85504 0.0
C717 C 0.95897 0.54265 0.83256 0.0
C718 C 0.93938 0.53682 0.87033 0.0
C719 C 0.92097 0.54922 0.86346 0.0
C720 C 0.92167 0.55846 0.84111 0.0
H721 H 0.81861 0.58248 0.97512 0.0
H722 H 0.84423 0.58838 0.94042 0.0
C723 C 0.94048 0.55514 0.82574 0.0
C724 C 0.90122 0.55242 0.87999 0.0
H725 H 0.84285 0.53421 0.88956 0.0
C726 C 0.9064 0.56467 0.90182 0.0
C727 C 0.87794 0.54174 0.87524 0.0
C728 C 0.87158 0.52791 0.85226 0.0
C729 C 0.88912 0.56566 0.91949 0.0
C730 C 0.866 0.55437 0.91501 0.0
C731 C 0.86057 0.543 0.89281 0.0
C732 C 0.84832 0.55121 0.93415 0.0
C733 C 0.8961 0.57755 0.94325 0.0
C734 C 0.84148 0.52833 0.94148 0.0
C735 C 0.8269 0.52492 0.96108 0.0
C736 C 0.81878 0.54434 0.97376 0.0
C737 C 0.8247 0.5672 0.96576 0.0
C738 C 0.83939 0.57061 0.94604 0.0
H739 H 0.91553 0.58227 0.94487 0.0
H740 H 0.8876 0.59407 0.94591 0.0
H741 H 0.88998 0.56583 0.95757 0.0
H742 H 0.84815 0.51313 0.93252 0.0
H743 H 0.82254 0.50706 0.96666 0.0
H744 H 0.55232 0.11374 0.24217 0.0
H745 H 0.55653 0.14683 0.21603 0.0
H746 H 0.48203 0.13434 0.20048 0.0
H747 H 0.47767 0.10134 0.22631 0.0
H748 H 0.5427 0.13986 0.16608 0.0
H749 H 0.49589 0.20773 0.21532 0.0
H750 H 0.50796 0.18428 0.22958 0.0
H751 H 0.48072 0.17812 0.21354 0.0
C752 C 0.5368 0.11829 0.23345 0.0
C753 C 0.51469 0.10489 0.2362 0.0
C754 C 0.53923 0.13716 0.21856 0.0
C755 C 0.51953 0.14313 0.20659 0.0
C756 C 0.49736 0.13024 0.20987 0.0
H757 H 0.49041 0.23261 0.09544 0.0
H758 H 0.4885 0.20764 0.1293 0.0
C759 C 0.49495 0.11128 0.22451 0.0
C760 C 0.52236 0.16126 0.18889 0.0
H761 H 0.50497 0.21413 0.1751 0.0
C762 C 0.53473 0.15626 0.16813 0.0
C763 C 0.51159 0.18238 0.19156 0.0
C764 C 0.49842 0.18864 0.21376 0.0
C765 C 0.53611 0.17155 0.14959 0.0
C766 C 0.5254 0.19277 0.15223 0.0
C767 C 0.51321 0.1979 0.17314 0.0
C768 C 0.52646 0.20962 0.13324 0.0
C769 C 0.54825 0.16431 0.12702 0.0
C770 C 0.54836 0.21963 0.1248 0.0
C771 C 0.54949 0.23357 0.10537 0.0
C772 C 0.5287 0.23817 0.09428 0.0
C773 C 0.50671 0.2293 0.10359 0.0
C774 C 0.5056 0.21505 0.12291 0.0
H775 H 0.5495 0.14495 0.12548 0.0
H776 H 0.53876 0.16911 0.11136 0.0
H777 H 0.5665 0.1736 0.1268 0.0
H778 H 0.56464 0.21622 0.13292 0.0
H779 H 0.5667 0.24047 0.09881 0.0
H780 H 0.94087 0.49128 0.24709 0.0
H781 H 0.913 0.49479 0.21549 0.0
H782 H 0.96746 0.53653 0.17775 0.0
H783 H 0.99537 0.53353 0.20949 0.0
H784 H 0.92687 0.55713 0.18164 0.0
H785 H 0.90701 0.4631 0.1496 0.0
H786 H 0.90274 0.46759 0.18079 0.0
H787 H 0.93188 0.47352 0.16842 0.0
C788 C 0.94702 0.50097 0.23195 0.0
C789 C 0.97034 0.51217 0.23082 0.0
C790 C 0.9311 0.50283 0.21383 0.0
C791 C 0.93827 0.51564 0.19415 0.0
C792 C 0.96162 0.52647 0.19276 0.0
H793 H 0.85052 0.51939 0.07006 0.0
H794 H 0.8825 0.51404 0.09686 0.0
C795 C 0.97754 0.52473 0.21092 0.0
C796 C 0.92097 0.51915 0.17583 0.0
H797 H 0.88057 0.4897 0.13737 0.0
C798 C 0.91689 0.5424 0.17179 0.0
C799 C 0.90821 0.49991 0.16283 0.0
C800 C 0.91283 0.47464 0.16543 0.0
C801 C 0.89989 0.54694 0.15554 0.0
C802 C 0.88629 0.52766 0.14342 0.0
C803 C 0.89085 0.50442 0.14692 0.0
C804 C 0.86705 0.53121 0.12722 0.0
C805 C 0.89676 0.57232 0.15141 0.0
C806 C 0.84769 0.54243 0.13551 0.0
C807 C 0.82945 0.54563 0.12025 0.0
C808 C 0.83013 0.53743 0.09645 0.0
C809 C 0.84946 0.52596 0.08827 0.0
C810 C 0.86774 0.52286 0.10355 0.0
H811 H 0.91274 0.58458 0.15665 0.0
H812 H 0.89291 0.5745 0.1326 0.0
H813 H 0.8817 0.57762 0.16218 0.0
H814 H 0.84659 0.54852 0.15386 0.0
H815 H 0.81474 0.55436 0.12716 0.0
H816 H 0.49365 0.8459 0.08725 0.0
H817 H 0.49568 0.87457 0.12099 0.0
H818 H 0.56785 0.86298 0.13333 0.0
H819 H 0.56604 0.83409 0.09931 0.0
H820 H 0.50711 0.86754 0.16931 0.0
H821 H 0.56926 0.93626 0.12791 0.0
H822 H 0.55288 0.91207 0.11084 0.0
H823 H 0.57789 0.90684 0.12788 0.0
C824 C 0.50999 0.84937 0.0971 0.0
C825 C 0.52975 0.8378 0.09053 0.0
C826 C 0.51108 0.86573 0.11642 0.0
C827 C 0.53195 0.871 0.12948 0.0
C828 C 0.55166 0.85929 0.12326 0.0
H829 H 0.53903 0.95834 0.26209 0.0
H830 H 0.54281 0.92623 0.23223 0.0
C831 C 0.55056 0.84277 0.10391 0.0
C832 C 0.53283 0.88902 0.1494 0.0
H833 H 0.55548 0.94571 0.16608 0.0
C834 C 0.51787 0.88455 0.16878 0.0
C835 C 0.54669 0.91124 0.14841 0.0
C836 C 0.56252 0.91711 0.12762 0.0
C837 C 0.51613 0.9019 0.18711 0.0
C838 C 0.52985 0.92418 0.18603 0.0
C839 C 0.54508 0.92854 0.16683 0.0
C840 C 0.52779 0.9436 0.20413 0.0
C841 C 0.49903 0.89659 0.20707 0.0
C842 C 0.51835 0.96408 0.19809 0.0
C843 C 0.51613 0.98246 0.21507 0.0
C844 C 0.52349 0.98076 0.2384 0.0
C845 C 0.5331 0.96021 0.24433 0.0
C846 C 0.53523 0.94181 0.22732 0.0
H847 H 0.4867 0.88024 0.2031 0.0
H848 H 0.50908 0.89412 0.22319 0.0
H849 H 0.48854 0.91162 0.21094 0.0
H850 H 0.51255 0.96577 0.18024 0.0
H851 H 0.50875 -0.00196 0.20986 0.0
H852 H 0.25644 0.49316 0.13062 0.0
H853 H 0.22891 0.4873 0.16367 0.0
H854 H 0.17853 0.5237 0.1283 0.0
H855 H 0.20575 0.52956 0.09518 0.0
H856 H 0.20947 0.52259 0.1923 0.0
H857 H 0.13985 0.46128 0.14602 0.0
H858 H 0.16959 0.46693 0.13467 0.0
H859 H 0.14853 0.48748 0.13048 0.0
C860 C 0.23946 0.49984 0.12981 0.0
C861 C 0.23327 0.51178 0.1102 0.0
C862 C 0.22378 0.49645 0.14871 0.0
C863 C 0.20159 0.50471 0.1482 0.0
C864 C 0.19541 0.51676 0.12878 0.0
H865 H 0.10298 0.55226 0.24283 0.0
H866 H 0.13768 0.54512 0.21936 0.0
C867 C 0.21107 0.52024 0.10994 0.0
C868 C 0.18511 0.50177 0.16833 0.0
H869 H 0.12813 0.48153 0.18178 0.0
C870 C 0.19182 0.51325 0.19017 0.0
C871 C 0.1623 0.48917 0.16564 0.0
C872 C 0.15469 0.4753 0.143 0.0
C873 C 0.17566 0.51388 0.20892 0.0
C874 C 0.15223 0.50297 0.20555 0.0
C875 C 0.14607 0.49005 0.18427 0.0
C876 C 0.13315 0.50715 0.22255 0.0
C877 C 0.18361 0.52679 0.23193 0.0
C878 C 0.11906 0.48814 0.23216 0.0
C879 C 0.09907 0.49217 0.24563 0.0
C880 C 0.09275 0.51525 0.24931 0.0
C881 C 0.10737 0.53428 0.24029 0.0
C882 C 0.12734 0.53025 0.22703 0.0
H883 H 0.20296 0.52704 0.23445 0.0
H884 H 0.17974 0.54543 0.23183 0.0
H885 H 0.17422 0.51851 0.24712 0.0
H886 H 0.12316 0.47015 0.22868 0.0
H887 H 0.08807 0.47716 0.25229 0.0
H888 H 0.83038 0.94667 0.58416 0.0
H889 H 0.8504 0.91192 0.57376 0.0
H890 H 0.826 0.9114 0.50214 0.0
H891 H 0.80586 0.94645 0.51238 0.0
H892 H 0.83356 0.86512 0.55168 0.0
H893 H 0.89987 0.91932 0.49847 0.0
H894 H 0.88057 0.93263 0.51934 0.0
H895 H 0.8692 0.91979 0.49155 0.0
C896 C 0.82904 0.93908 0.56622 0.0
C897 C 0.81676 0.94947 0.549 0.0
C898 C 0.8404 0.91914 0.56036 0.0
C899 C 0.83983 0.90928 0.53717 0.0
C900 C 0.82677 0.91893 0.52011 0.0
H901 H 0.93789 0.81422 0.48023 0.0
H902 H 0.90368 0.83626 0.4839 0.0
C903 C 0.81527 0.9389 0.52599 0.0
C904 C 0.85452 0.89013 0.53078 0.0
H905 H 0.90606 0.88001 0.50322 0.0
C906 C 0.84927 0.86819 0.54084 0.0
C907 C 0.87496 0.89428 0.51666 0.0
C908 C 0.8817 0.91779 0.50594 0.0
C909 C 0.86423 0.85034 0.53744 0.0
C910 C 0.8852 0.85487 0.5241 0.0
C911 C 0.88996 0.87655 0.51342 0.0
C912 C 0.90331 0.83817 0.52204 0.0
C913 C 0.85744 0.82691 0.5482 0.0
C914 C 0.91419 0.83146 0.54227 0.0
C915 C 0.93367 0.81863 0.54022 0.0
C916 C 0.94282 0.81271 0.5179 0.0
C917 C 0.93133 0.81865 0.49768 0.0
C918 C 0.91175 0.83122 0.49974 0.0
H919 H 0.838 0.82339 0.55066 0.0
H920 H 0.86349 0.81205 0.53711 0.0
H921 H 0.86577 0.82735 0.56581 0.0
H922 H 0.90838 0.83711 0.55967 0.0
H923 H 0.94225 0.81443 0.5561 0.0
H924 H -0.00178 0.20154 0.50281 0.0
H925 H 0.96575 0.16971 0.50626 0.0
H926 H 0.94252 0.20467 0.57027 0.0
H927 H 0.97431 0.23698 0.56641 0.0
H928 H 0.95456 0.13866 0.53863 0.0
H929 H 0.88241 0.1953 0.53336 0.0
H930 H 0.9128 0.20594 0.52725 0.0
H931 H 0.90227 0.20498 0.5572 0.0
C932 C 0.98616 0.20245 0.51759 0.0
C933 C 0.98864 0.22189 0.53419 0.0
C934 C 0.96763 0.18425 0.51955 0.0
C935 C 0.95138 0.18506 0.53824 0.0
C936 C 0.95437 0.20403 0.5553 0.0
H937 H 0.8546 0.06389 0.57918 0.0
H938 H 0.88785 0.09498 0.57625 0.0
C939 C 0.97265 0.22241 0.55315 0.0
C940 C 0.93141 0.16601 0.53992 0.0
H941 H 0.87138 0.15599 0.54485 0.0
C942 C 0.93635 0.14242 0.53987 0.0
C943 C 0.90763 0.1709 0.54114 0.0
C944 C 0.90092 0.19563 0.53949 0.0
C945 C 0.91819 0.1236 0.54126 0.0
C946 C 0.8945 0.12861 0.54355 0.0
C947 C 0.88956 0.15218 0.54337 0.0
C948 C 0.87442 0.1097 0.54552 0.0
C949 C 0.9246 0.09858 0.53965 0.0
C950 C 0.8554 0.10815 0.52977 0.0
C951 C 0.83615 0.09078 0.53175 0.0
C952 C 0.83561 0.07446 0.54941 0.0
C953 C 0.85463 0.07606 0.56523 0.0
C954 C 0.87373 0.0937 0.56346 0.0
H955 H 0.94196 0.09753 0.53083 0.0
H956 H 0.92591 0.0924 0.55769 0.0
H957 H 0.91101 0.08633 0.52981 0.0
H958 H 0.85549 0.12035 0.51584 0.0
H959 H 0.8218 0.08998 0.51924 0.0
H960 H 0.04404 0.85933 0.50604 0.0
H961 H 0.07275 0.89492 0.50674 0.0
H962 H 0.12323 0.85772 0.54109 0.0
H963 H 0.09455 0.82234 0.54101 0.0
H964 H 0.11952 0.90091 0.56256 0.0
H965 H 0.13121 0.90819 0.46601 0.0
H966 H 0.10118 0.90747 0.4761 0.0
H967 H 0.11659 0.88194 0.47857 0.0
C968 C 0.06131 0.85868 0.5136 0.0
C969 C 0.06702 0.838 0.52346 0.0
C970 C 0.07773 0.879 0.51387 0.0
C971 C 0.10021 0.87885 0.52369 0.0
C972 C 0.10597 0.85819 0.53339 0.0
H973 H 0.22942 0.97036 0.51142 0.0
H974 H 0.19568 0.93974 0.50762 0.0
C975 C 0.08955 0.83798 0.53331 0.0
C976 C 0.11761 0.90035 0.52471 0.0
H977 H 0.1508 0.93918 0.49071 0.0
C978 C 0.12632 0.90935 0.54686 0.0
C979 C 0.12653 0.91116 0.50417 0.0
C980 C 0.11859 0.90161 0.47984 0.0
C981 C 0.14403 0.92863 0.54905 0.0
C982 C 0.1528 0.93962 0.52854 0.0
C983 C 0.14385 0.93085 0.5064 0.0
C984 C 0.17244 0.95913 0.5296 0.0
C985 C 0.15383 0.93643 0.57323 0.0
C986 C 0.17036 0.98043 0.54277 0.0
C987 C 0.18972 -0.00209 0.5452 0.0
C988 C 0.21138 0.99448 0.53421 0.0
C989 C 0.21304 0.97354 0.52019 0.0
C990 C 0.19376 0.95602 0.51795 0.0
H991 H 0.14929 0.92267 0.58613 0.0
H992 H 0.17335 0.94059 0.57262 0.0
H993 H 0.14623 0.95267 0.57977 0.0
H994 H 0.15388 0.98338 0.55146 0.0
H995 H 0.18779 0.01396 0.5559 0.0
H996 H 0.11972 0.22963 0.49574 0.0
H997 H 0.1542 0.21145 0.50728 0.0
H998 H 0.14753 0.24033 0.57856 0.0
H999 H 0.11277 0.25869 0.56715 0.0
H1000 H 0.19914 0.23025 0.53216 0.0
H1001 H 0.13824 0.16595 0.58088 0.0
H1002 H 0.12756 0.18413 0.55932 0.0
H1003 H 0.13708 0.19707 0.58769 0.0
C1004 C 0.12574 0.23244 0.51381 0.0
C1005 C 0.11334 0.24532 0.53063 0.0
C1006 C 0.14554 0.22215 0.52032 0.0
C1007 C 0.15323 0.22442 0.54377 0.0
C1008 C 0.14172 0.23832 0.56039 0.0
H1009 H 0.2368 0.12181 0.59866 0.0
H1010 H 0.21806 0.15812 0.59714 0.0
C1011 C 0.12191 0.24878 0.55384 0.0
C1012 C 0.17153 0.20999 0.55098 0.0
H1013 H 0.17748 0.15852 0.57674 0.0
C1014 C 0.19461 0.21476 0.54226 0.0
C1015 C 0.16547 0.18987 0.56415 0.0
C1016 C 0.14075 0.18373 0.57351 0.0
C1017 C 0.21172 0.19949 0.54586 0.0
C1018 C 0.20528 0.17863 0.55793 0.0
C1019 C 0.18245 0.17451 0.56751 0.0
C1020 C 0.22096 0.15972 0.55926 0.0
C1021 C 0.23639 0.20576 0.53654 0.0
C1022 C 0.22949 0.14889 0.53854 0.0
C1023 C 0.24052 0.12829 0.5394 0.0
C1024 C 0.2427 0.1179 0.56095 0.0
C1025 C 0.23519 0.12935 0.58177 0.0
C1026 C 0.22452 0.15012 0.58094 0.0
H1027 H 0.24076 0.22527 0.53596 0.0
H1028 H 0.24979 0.19885 0.54747 0.0
H1029 H 0.23755 0.19797 0.51826 0.0
H1030 H 0.22641 0.15554 0.52152 0.0
H1031 H 0.246 0.11973 0.52307 0.0
loop_
_geom_bond_atom_site_label_1
_geom_bond_atom_site_label_2
_geom_bond_distance
_geom_bond_site_symmetry_2
_ccdc_geom_bond_type
O0 Cd1 2.223 . S
O0 C8 1.315 1_455 S
Cd1 O0 2.223 . S
Cd1 O4 2.297 . S
Cd1 O5 2.439 . S
Cd1 O11 2.240 . S
Cd2 O3 2.241 . S
Cd2 O10 2.223 . S
Cd2 O12 2.297 1_655 S
Cd2 O13 2.439 1_655 S
O3 Cd2 2.241 . S
O3 C8 1.280 . S
O4 Cd1 2.297 . S
O4 C6 1.247 . S
O5 Cd1 2.439 . S
O5 C6 1.208 . S
C6 O4 1.247 . S
C6 O5 1.208 . S
C7 O12 1.247 . S
C7 O13 1.208 . S
C8 O0 1.315 1_655 S
C8 O3 1.280 . S
C9 O10 1.315 1_455 S
C9 O11 1.279 . S
O10 Cd2 2.223 . S
O10 C9 1.315 1_655 S
O11 Cd1 2.240 . S
O11 C9 1.279 . S
O12 Cd2 2.297 1_455 S
O12 C7 1.247 . S
O13 Cd2 2.439 1_455 S
O13 C7 1.208 . S
O14 Cd15 2.223 . S
O14 C22 1.315 . S
Cd15 O14 2.223 . S
Cd15 O18 2.297 . S
Cd15 O19 2.439 . S
Cd15 O25 2.240 . S
Cd16 O17 2.240 . S
Cd16 O24 2.223 . S
Cd16 O26 2.297 1_545 S
Cd16 O27 2.439 1_545 S
O17 Cd16 2.240 . S
O17 C22 1.279 . S
O18 Cd15 2.297 . S
O18 C20 1.247 . S
O19 Cd15 2.439 . S
O19 C20 1.208 . S
C20 O18 1.247 . S
C20 O19 1.208 . S
C21 O26 1.247 . S
C21 O27 1.208 . S
C22 O14 1.315 . S
C22 O17 1.279 . S
C23 O24 1.315 . S
C23 O25 1.279 . S
O24 Cd16 2.223 . S
O24 C23 1.315 . S
O25 Cd15 2.240 . S
O25 C23 1.279 . S
O26 Cd16 2.297 1_565 S
O26 C21 1.247 . S
O27 Cd16 2.439 1_565 S
O27 C21 1.208 . S
O28 Cd29 2.223 . S
O28 C36 1.315 . S
Cd29 O28 2.223 . S
Cd29 O32 2.297 1_455 S
Cd29 O33 2.439 1_455 S
Cd29 O39 2.240 . S
Cd30 O31 2.240 . S
Cd30 O38 2.223 . S
Cd30 O40 2.297 . S
Cd30 O41 2.439 . S
O31 Cd30 2.240 . S
O31 C36 1.279 . S
O32 Cd29 2.297 1_655 S
O32 C34 1.247 . S
O33 Cd29 2.439 1_655 S
O33 C34 1.208 . S
C34 O32 1.247 . S
C34 O33 1.208 . S
C35 O40 1.247 . S
C35 O41 1.208 . S
C36 O28 1.315 . S
C36 O31 1.279 . S
C37 O38 1.315 . S
C37 O39 1.279 . S
O38 Cd30 2.223 . S
O38 C37 1.315 . S
O39 Cd29 2.240 . S
O39 C37 1.279 . S
O40 Cd30 2.297 . S
O40 C35 1.247 . S
O41 Cd30 2.439 . S
O41 C35 1.208 . S
O42 Cd43 2.223 . S
O42 C50 1.315 1_545 S
Cd43 O42 2.223 . S
Cd43 O46 2.297 . S
Cd43 O47 2.439 . S
Cd43 O53 2.240 . S
Cd44 O45 2.240 . S
Cd44 O52 2.223 1_545 S
Cd44 O54 2.297 . S
Cd44 O55 2.439 . S
O45 Cd44 2.240 . S
O45 C50 1.279 1_545 S
O46 Cd43 2.297 . S
O46 C48 1.247 . S
O47 Cd43 2.439 . S
O47 C48 1.208 . S
C48 O46 1.247 . S
C48 O47 1.208 . S
C49 O54 1.247 . S
C49 O55 1.208 . S
C50 O42 1.315 1_565 S
C50 O45 1.279 1_565 S
C51 O52 1.315 1_545 S
C51 O53 1.279 . S
O52 Cd44 2.223 1_565 S
O52 C51 1.315 1_565 S
O53 Cd43 2.240 . S
O53 C51 1.279 . S
O54 Cd44 2.297 . S
O54 C49 1.247 . S
O55 Cd44 2.439 . S
O55 C49 1.208 . S
O56 Cd57 2.223 . S
O56 C64 1.315 . S
Cd57 O56 2.223 . S
Cd57 O60 2.297 . S
Cd57 O61 2.439 . S
Cd57 O67 2.240 . S
Cd58 O59 2.240 . S
Cd58 O66 2.223 . S
Cd58 O68 2.297 . S
Cd58 O69 2.439 . S
O59 Cd58 2.240 . S
O59 C64 1.279 . S
O60 Cd57 2.297 . S
O60 C62 1.247 . S
O61 Cd57 2.439 . S
O61 C62 1.208 . S
C62 O60 1.247 . S
C62 O61 1.208 . S
C63 O68 1.247 . S
C63 O69 1.208 . S
C64 O56 1.315 . S
C64 O59 1.279 . S
C65 O66 1.315 . S
C65 O67 1.279 . S
O66 Cd58 2.223 . S
O66 C65 1.315 . S
O67 Cd57 2.240 . S
O67 C65 1.279 . S
O68 Cd58 2.297 . S
O68 C63 1.247 . S
O69 Cd58 2.439 . S
O69 C63 1.208 . S
O70 Cd71 2.224 . S
O70 C78 1.315 1_655 S
Cd71 O70 2.224 . S
Cd71 O74 2.297 1_655 S
Cd71 O75 2.437 1_655 S
Cd71 O81 2.240 1_655 S
Cd72 O73 2.240 . S
Cd72 O80 2.223 . S
Cd72 O82 2.297 . S
Cd72 O83 2.439 . S
O73 Cd72 2.240 . S
O73 C78 1.279 . S
O74 Cd71 2.297 1_455 S
O74 C76 1.247 . S
O75 Cd71 2.437 1_455 S
O75 C76 1.208 . S
C76 O74 1.247 . S
C76 O75 1.208 . S
C77 O82 1.247 . S
C77 O83 1.208 . S
C78 O70 1.315 1_455 S
C78 O73 1.279 . S
C79 O80 1.315 1_655 S
C79 O81 1.279 1_655 S
O80 Cd72 2.223 . S
O80 C79 1.315 1_455 S
O81 Cd71 2.240 1_455 S
O81 C79 1.279 1_455 S
O82 Cd72 2.297 . S
O82 C77 1.247 . S
O83 Cd72 2.439 . S
O83 C77 1.208 . S
O84 Cd85 2.223 1_545 S
O84 C92 1.315 . S
Cd85 O84 2.223 1_565 S
Cd85 O88 2.297 . S
Cd85 O89 2.439 . S
Cd85 O95 2.240 1_565 S
Cd86 O87 2.240 . S
Cd86 O94 2.223 . S
Cd86 O96 2.297 . S
Cd86 O97 2.439 . S
O87 Cd86 2.240 . S
O87 C92 1.279 . S
O88 Cd85 2.297 . S
O88 C90 1.247 . S
O89 Cd85 2.439 . S
O89 C90 1.208 . S
C90 O88 1.247 . S
C90 O89 1.208 . S
C91 O96 1.247 . S
C91 O97 1.208 . S
C92 O84 1.315 . S
C92 O87 1.279 . S
C93 O94 1.315 . S
C93 O95 1.279 . S
O94 Cd86 2.223 . S
O94 C93 1.315 . S
O95 Cd85 2.240 1_545 S
O95 C93 1.279 . S
O96 Cd86 2.297 . S
O96 C91 1.247 . S
O97 Cd86 2.439 . S
O97 C91 1.208 . S
O98 Cd99 2.223 1_655 S
O98 C106 1.315 1_655 S
Cd99 O98 2.223 1_455 S
Cd99 O102 2.297 . S
Cd99 O103 2.439 . S
Cd99 O109 2.240 . S
Cd100 O101 2.240 . S
Cd100 O108 2.223 . S
Cd100 O110 2.297 . S
Cd100 O111 2.439 . S
O101 Cd100 2.240 . S
O101 C106 1.279 . S
O102 Cd99 2.297 . S
O102 C104 1.247 . S
O103 Cd99 2.439 . S
O103 C104 1.208 . S
C104 O102 1.247 . S
C104 O103 1.208 . S
C105 O110 1.247 . S
C105 O111 1.208 . S
C106 O98 1.315 1_455 S
C106 O101 1.279 . S
C107 O108 1.315 . S
C107 O109 1.279 . S
O108 Cd100 2.223 . S
O108 C107 1.315 . S
O109 Cd99 2.240 . S
O109 C107 1.279 . S
O110 Cd100 2.297 . S
O110 C105 1.247 . S
O111 Cd100 2.439 . S
O111 C105 1.208 . S
O112 Cd113 2.223 . S
O112 C120 1.315 . S
Cd113 O112 2.223 . S
Cd113 O116 2.297 . S
Cd113 O117 2.439 . S
Cd113 O123 2.240 . S
Cd114 O115 2.240 . S
Cd114 O122 2.223 . S
Cd114 O124 2.297 1_554 S
Cd114 O125 2.439 1_554 S
O115 Cd114 2.240 . S
O115 C120 1.279 . S
O116 Cd113 2.297 . S
O116 C118 1.247 . S
O117 Cd113 2.439 . S
O117 C118 1.208 . S
C118 O116 1.247 . S
C118 O117 1.208 . S
C119 O124 1.247 . S
C119 O125 1.208 . S
C120 O112 1.315 . S
C120 O115 1.279 . S
C121 O122 1.315 . S
C121 O123 1.279 . S
O122 Cd114 2.223 . S
O122 C121 1.315 . S
O123 Cd113 2.240 . S
O123 C121 1.279 . S
O124 Cd114 2.297 1_556 S
O124 C119 1.247 . S
O125 Cd114 2.439 1_556 S
O125 C119 1.208 . S
O126 Cd127 2.223 1_556 S
O126 C134 1.315 1_556 S
Cd127 O126 2.223 1_554 S
Cd127 O130 2.297 . S
Cd127 O131 2.439 . S
Cd127 O137 2.240 . S
Cd128 O129 2.240 . S
Cd128 O136 2.223 . S
Cd128 O138 2.297 . S
Cd128 O139 2.439 . S
O129 Cd128 2.240 . S
O129 C134 1.279 . S
O130 Cd127 2.297 . S
O130 C132 1.247 . S
O131 Cd127 2.439 . S
O131 C132 1.208 . S
C132 O130 1.247 . S
C132 O131 1.208 . S
C133 O138 1.247 . S
C133 O139 1.208 . S
C134 O126 1.315 1_554 S
C134 O129 1.279 . S
C135 O136 1.305 1_556 S
C135 O137 1.274 1_556 S
O136 Cd128 2.223 . S
O136 C135 1.305 1_554 S
O137 Cd127 2.240 . S
O137 C135 1.274 1_554 S
O138 Cd128 2.297 . S
O138 C133 1.247 . S
O139 Cd128 2.439 . S
O139 C133 1.208 . S
O140 Cd141 2.223 . S
O140 C148 1.315 . S
Cd141 O140 2.223 . S
Cd141 O144 2.297 . S
Cd141 O145 2.439 . S
Cd141 O151 2.240 . S
Cd142 O143 2.240 . S
Cd142 O150 2.223 . S
Cd142 O152 2.284 1_554 S
Cd142 O153 2.439 . S
O143 Cd142 2.240 . S
O143 C148 1.279 . S
O144 Cd141 2.297 . S
O144 C146 1.247 . S
O145 Cd141 2.439 . S
O145 C146 1.208 . S
C146 O144 1.247 . S
C146 O145 1.208 . S
C147 O152 1.256 . S
C147 O153 1.208 1_556 S
C148 O140 1.315 . S
C148 O143 1.279 . S
C149 O150 1.315 . S
C149 O151 1.279 . S
O150 Cd142 2.223 . S
O150 C149 1.315 . S
O151 Cd141 2.240 . S
O151 C149 1.279 . S
O152 Cd142 2.284 1_556 S
O152 C147 1.256 . S
O153 Cd142 2.439 . S
O153 C147 1.208 1_554 S
O154 Cd155 2.223 . S
O154 C162 1.315 . S
Cd155 O154 2.223 . S
Cd155 O158 2.297 . S
Cd155 O159 2.439 . S
Cd155 O165 2.240 . S
Cd156 O157 2.240 . S
Cd156 O164 2.223 . S
Cd156 O166 2.297 . S
Cd156 O167 2.439 . S
O157 Cd156 2.240 . S
O157 C162 1.279 . S
O158 Cd155 2.297 . S
O158 C160 1.247 . S
O159 Cd155 2.439 . S
O159 C160 1.208 . S
C160 O158 1.247 . S
C160 O159 1.208 . S
C161 O166 1.247 . S
C161 O167 1.208 . S
C162 O154 1.315 . S
C162 O157 1.279 . S
C163 O164 1.315 . S
C163 O165 1.279 . S
O164 Cd156 2.223 . S
O164 C163 1.315 . S
O165 Cd155 2.240 . S
O165 C163 1.279 . S
O166 Cd156 2.297 . S
O166 C161 1.247 . S
O167 Cd156 2.439 . S
O167 C161 1.208 . S
H168 C176 0.929 . S
H169 C178 0.930 . S
H170 C180 0.930 . S
H171 C183 0.929 . S
H172 C186 0.930 1_655 S
H173 C188 0.960 . S
H174 C188 0.960 . S
H175 C188 0.960 . S
C176 H168 0.929 . S
C176 C177 1.377 1_655 S
C176 C178 1.384 . S
C177 C176 1.377 1_455 S
C177 C183 1.390 . S
C178 H169 0.930 . S
C178 C176 1.384 . S
C178 C179 1.372 1_655 S
C179 C178 1.372 1_455 S
C179 C180 1.400 . S
C179 C184 1.490 . S
C180 H170 0.930 . S
C180 C179 1.400 . S
C180 C183 1.386 . S
H181 C197 0.930 . S
H182 C198 0.931 . S
C183 H171 0.929 . S
C183 C177 1.390 . S
C183 C180 1.386 . S
C184 C179 1.490 . S
C184 C186 1.395 . S
C184 C187 1.403 . S
H185 C191 0.930 . S
C186 H172 0.930 1_455 S
C186 C184 1.395 . S
C186 C189 1.403 . S
C187 C184 1.403 . S
C187 C188 1.524 . S
C187 C191 1.400 . S
C188 H173 0.960 . S
C188 H174 0.960 . S
C188 H175 0.960 . S
C188 C187 1.524 . S
C189 C186 1.403 . S
C189 C190 1.392 . S
C189 C193 1.495 1_455 S
C190 C189 1.392 . S
C190 C191 1.385 . S
C190 C192 1.478 . S
C191 H185 0.930 . S
C191 C187 1.400 . S
C191 C190 1.385 . S
C192 C190 1.478 . S
C192 C194 1.381 . S
C192 C198 1.383 . S
C193 C189 1.495 1_655 S
C193 H199 0.959 . S
C193 H200 0.961 1_655 S
C193 H201 0.960 . S
C194 C192 1.381 . S
C194 C195 1.394 . S
C194 H202 0.930 1_455 S
C195 C194 1.394 . S
C195 C196 1.383 . S
C195 H203 0.929 1_455 S
C196 C195 1.383 . S
C196 C197 1.377 . S
C197 H181 0.930 . S
C197 C196 1.377 . S
C197 C198 1.379 . S
C198 H182 0.931 . S
C198 C192 1.383 . S
C198 C197 1.379 . S
H199 C193 0.959 . S
H200 C193 0.961 1_455 S
H201 C193 0.960 . S
H202 C194 0.930 1_655 S
H203 C195 0.929 1_655 S
H204 C212 0.929 . S
H205 C214 0.930 . S
H206 C216 0.930 . S
H207 C219 0.929 1_565 S
H208 C222 0.930 . S
H209 C224 0.944 1_565 S
H210 C224 0.971 . S
H211 C224 0.927 1_565 S
C212 H204 0.929 . S
C212 C213 1.377 . S
C212 C214 1.384 . S
C213 C212 1.377 . S
C213 C219 1.390 . S
C214 H205 0.930 . S
C214 C212 1.384 . S
C214 C215 1.372 . S
C215 C214 1.372 . S
C215 C216 1.400 . S
C215 C220 1.490 . S
C216 H206 0.930 . S
C216 C215 1.400 . S
C216 C219 1.386 . S
H217 C233 0.930 . S
H218 C234 0.931 . S
C219 H207 0.929 1_545 S
C219 C213 1.390 . S
C219 C216 1.386 . S
C220 C215 1.490 . S
C220 C222 1.395 . S
C220 C223 1.403 . S
H221 C227 0.930 . S
C222 H208 0.930 . S
C222 C220 1.395 . S
C222 C225 1.403 . S
C223 C220 1.403 . S
C223 C224 1.565 . S
C223 C227 1.400 . S
C224 H209 0.944 1_545 S
C224 H210 0.971 . S
C224 H211 0.927 1_545 S
C224 C223 1.565 . S
C225 C222 1.403 . S
C225 C226 1.392 . S
C225 C229 1.495 . S
C226 C225 1.392 . S
C226 C227 1.385 . S
C226 C228 1.478 . S
C227 H221 0.930 . S
C227 C223 1.400 . S
C227 C226 1.385 . S
C228 C226 1.478 . S
C228 C230 1.381 . S
C228 C234 1.383 . S
C229 C225 1.495 . S
C229 H235 0.959 . S
C229 H236 0.961 . S
C229 H237 0.960 . S
C230 C228 1.381 . S
C230 C231 1.394 . S
C230 H238 0.930 . S
C231 C230 1.394 . S
C231 C232 1.383 . S
C231 H239 0.929 . S
C232 C231 1.383 . S
C232 C233 1.377 . S
C233 H217 0.930 . S
C233 C232 1.377 . S
C233 C234 1.379 . S
C234 H218 0.931 . S
C234 C228 1.383 . S
C234 C233 1.379 . S
H235 C229 0.959 . S
H236 C229 0.961 . S
H237 C229 0.960 . S
H238 C230 0.930 . S
H239 C231 0.929 . S
H240 C248 0.929 . S
H241 C250 0.914 1_655 S
H242 C252 0.930 . S
H243 C255 0.929 . S
H244 C258 0.930 . S
H245 C260 0.960 . S
H246 C260 0.960 . S
H247 C260 0.960 . S
C248 H240 0.929 . S
C248 C249 1.377 1_655 S
C248 C250 1.383 1_655 S
C249 C248 1.377 1_455 S
C249 C255 1.390 . S
C250 H241 0.914 1_455 S
C250 C248 1.383 1_455 S
C250 C251 1.388 . S
C251 C250 1.388 . S
C251 C252 1.400 . S
C251 C256 1.490 . S
C252 H242 0.930 . S
C252 C251 1.400 . S
C252 C255 1.386 . S
H253 C269 0.930 . S
H254 C270 0.931 . S
C255 H243 0.929 . S
C255 C249 1.390 . S
C255 C252 1.386 . S
C256 C251 1.490 . S
C256 C258 1.395 . S
C256 C259 1.403 . S
H257 C263 0.930 . S
C258 H244 0.930 . S
C258 C256 1.395 . S
C258 C261 1.403 . S
C259 C256 1.403 . S
C259 C260 1.524 . S
C259 C263 1.400 . S
C260 H245 0.960 . S
C260 H246 0.960 . S
C260 H247 0.960 . S
C260 C259 1.524 . S
C261 C258 1.403 . S
C261 C262 1.392 . S
C261 C265 1.495 . S
C262 C261 1.392 . S
C262 C263 1.385 . S
C262 C264 1.478 . S
C263 H257 0.930 . S
C263 C259 1.400 . S
C263 C262 1.385 . S
C264 C262 1.478 . S
C264 C266 1.381 . S
C264 C270 1.383 . S
C265 C261 1.495 . S
C265 H271 0.959 . S
C265 H272 0.961 . S
C265 H273 0.960 . S
C266 C264 1.381 . S
C266 C267 1.394 . S
C266 H274 0.930 . S
C267 C266 1.394 . S
C267 C268 1.383 . S
C267 H275 0.929 . S
C268 C267 1.383 . S
C268 C269 1.377 . S
C269 H253 0.930 . S
C269 C268 1.377 . S
C269 C270 1.379 . S
C270 H254 0.931 . S
C270 C264 1.383 . S
C270 C269 1.379 . S
H271 C265 0.959 . S
H272 C265 0.961 . S
H273 C265 0.960 . S
H274 C266 0.930 . S
H275 C267 0.929 . S
H276 C284 0.929 . S
H277 C286 0.930 . S
H278 C288 0.930 . S
H279 C291 0.929 . S
H280 C294 0.930 . S
H281 C296 0.960 . S
H282 C296 0.960 . S
H283 C296 0.960 . S
C284 H276 0.929 . S
C284 C285 1.377 . S
C284 C286 1.384 . S
C285 C284 1.377 . S
C285 C291 1.390 . S
C286 H277 0.930 . S
C286 C284 1.384 . S
C286 C287 1.372 . S
C287 C286 1.372 . S
C287 C288 1.400 . S
C287 C292 1.490 . S
C288 H278 0.930 . S
C288 C287 1.400 . S
C288 C291 1.386 . S
H289 C305 0.930 . S
H290 C306 0.931 . S
C291 H279 0.929 . S
C291 C285 1.390 . S
C291 C288 1.386 . S
C292 C287 1.490 . S
C292 C294 1.395 . S
C292 C295 1.403 . S
H293 C299 0.930 . S
C294 H280 0.930 . S
C294 C292 1.395 . S
C294 C297 1.403 . S
C295 C292 1.403 . S
C295 C296 1.524 . S
C295 C299 1.400 . S
C296 H281 0.960 . S
C296 H282 0.960 . S
C296 H283 0.960 . S
C296 C295 1.524 . S
C297 C294 1.403 . S
C297 C298 1.392 . S
C297 C301 1.495 . S
C298 C297 1.392 . S
C298 C299 1.385 . S
C298 C300 1.478 . S
C299 H293 0.930 . S
C299 C295 1.400 . S
C299 C298 1.385 . S
C300 C298 1.478 . S
C300 C302 1.381 . S
C300 C306 1.383 . S
C301 C297 1.495 . S
C301 H307 0.959 . S
C301 H308 0.961 . S
C301 H309 0.960 1_545 S
C302 C300 1.381 . S
C302 C303 1.394 . S
C302 H310 0.930 1_545 S
C303 C302 1.394 . S
C303 C304 1.383 . S
C303 H311 0.929 1_545 S
C304 C303 1.383 . S
C304 C305 1.377 . S
C305 H289 0.930 . S
C305 C304 1.377 . S
C305 C306 1.379 . S
C306 H290 0.931 . S
C306 C300 1.383 . S
C306 C305 1.379 . S
H307 C301 0.959 . S
H308 C301 0.961 . S
H309 C301 0.960 1_565 S
H310 C302 0.930 1_565 S
H311 C303 0.929 1_565 S
H312 C320 0.929 . S
H313 C322 0.930 . S
H314 C324 0.930 . S
H315 C327 0.929 . S
H316 C330 0.910 1_655 S
H317 C332 0.960 . S
H318 C332 0.960 . S
H319 C332 0.960 . S
C320 H312 0.929 . S
C320 C321 1.377 . S
C320 C322 1.384 . S
C321 C320 1.377 . S
C321 C327 1.390 . S
C322 H313 0.930 . S
C322 C320 1.384 . S
C322 C323 1.372 . S
C323 C322 1.372 . S
C323 C324 1.400 . S
C323 C328 1.490 . S
C324 H314 0.930 . S
C324 C323 1.400 . S
C324 C327 1.386 . S
H325 C341 0.930 . S
H326 C342 0.931 . S
C327 H315 0.929 . S
C327 C321 1.390 . S
C327 C324 1.386 . S
C328 C323 1.490 . S
C328 C330 1.395 . S
C328 C331 1.403 . S
H329 C335 0.930 . S
C330 H316 0.910 1_455 S
C330 C328 1.395 . S
C330 C333 1.403 . S
C331 C328 1.403 . S
C331 C332 1.524 . S
C331 C335 1.400 . S
C332 H317 0.960 . S
C332 H318 0.960 . S
C332 H319 0.960 . S
C332 C331 1.524 . S
C333 C330 1.403 . S
C333 C334 1.392 . S
C333 C337 1.495 1_455 S
C334 C333 1.392 . S
C334 C335 1.385 . S
C334 C336 1.478 . S
C335 H329 0.930 . S
C335 C331 1.400 . S
C335 C334 1.385 . S
C336 C334 1.478 . S
C336 C338 1.388 . S
C336 C342 1.383 . S
C337 C333 1.495 1_655 S
C337 H343 0.959 . S
C337 H344 0.961 . S
C337 H345 0.960 . S
C338 C336 1.388 . S
C338 C339 1.393 1_455 S
C338 H346 0.924 1_455 S
C339 C338 1.393 1_655 S
C339 C340 1.383 1_655 S
C339 H347 0.929 . S
C340 C339 1.383 1_455 S
C340 C341 1.377 . S
C341 H325 0.930 . S
C341 C340 1.377 . S
C341 C342 1.379 . S
C342 H326 0.931 . S
C342 C336 1.383 . S
C342 C341 1.379 . S
H343 C337 0.959 . S
H344 C337 0.961 . S
H345 C337 0.960 . S
H346 C338 0.924 1_655 S
H347 C339 0.929 . S
H348 C356 0.929 . S
H349 C358 0.930 . S
H350 C360 0.930 . S
H351 C363 0.929 . S
H352 C366 0.930 . S
H353 C368 0.960 . S
H354 C368 0.960 . S
H355 C368 0.960 . S
C356 H348 0.929 . S
C356 C357 1.377 . S
C356 C358 1.384 . S
C357 C356 1.377 . S
C357 C363 1.390 . S
C358 H349 0.930 . S
C358 C356 1.384 . S
C358 C359 1.372 . S
C359 C358 1.372 . S
C359 C360 1.400 . S
C359 C364 1.490 . S
C360 H350 0.930 . S
C360 C359 1.400 . S
C360 C363 1.386 . S
H361 C377 0.930 1_565 S
H362 C378 0.931 1_565 S
C363 H351 0.929 . S
C363 C357 1.390 . S
C363 C360 1.386 . S
C364 C359 1.490 . S
C364 C366 1.395 . S
C364 C367 1.403 . S
H365 C371 0.930 . S
C366 H352 0.930 . S
C366 C364 1.395 . S
C366 C369 1.403 . S
C367 C364 1.403 . S
C367 C368 1.524 . S
C367 C371 1.400 . S
C368 H353 0.960 . S
C368 H354 0.960 . S
C368 H355 0.960 . S
C368 C367 1.524 . S
C369 C366 1.403 . S
C369 C370 1.392 . S
C369 C373 1.495 1_545 S
C370 C369 1.392 . S
C370 C371 1.385 . S
C370 C372 1.478 . S
C371 H365 0.930 . S
C371 C367 1.400 . S
C371 C370 1.385 . S
C372 C370 1.478 . S
C372 C374 1.381 . S
C372 C378 1.383 . S
C373 C369 1.495 1_565 S
C373 H379 0.959 . S
C373 H380 0.961 . S
C373 H381 0.960 . S
C374 C372 1.381 . S
C374 C375 1.394 . S
C374 H382 0.930 . S
C375 C374 1.394 . S
C375 C376 1.383 . S
C375 H383 0.929 . S
C376 C375 1.383 . S
C376 C377 1.377 . S
C377 H361 0.930 1_545 S
C377 C376 1.377 . S
C377 C378 1.379 . S
C378 H362 0.931 1_545 S
C378 C372 1.383 . S
C378 C377 1.379 . S
H379 C373 0.959 . S
H380 C373 0.961 . S
H381 C373 0.960 . S
H382 C374 0.930 . S
H383 C375 0.929 . S
H384 C392 0.929 . S
H385 C394 0.930 . S
H386 C396 0.903 1_655 S
H387 C399 0.929 . S
H388 C402 0.930 . S
H389 C404 0.960 . S
H390 C404 0.960 . S
H391 C404 0.960 . S
C392 H384 0.929 . S
C392 C393 1.377 . S
C392 C394 1.384 . S
C393 C392 1.377 . S
C393 C399 1.390 . S
C394 H385 0.930 . S
C394 C392 1.384 . S
C394 C395 1.372 . S
C395 C394 1.372 . S
C395 C396 1.400 . S
C395 C400 1.490 . S
C396 H386 0.903 1_455 S
C396 C395 1.400 . S
C396 C399 1.386 . S
H397 C413 0.925 1_655 S
H398 C414 0.931 1_655 S
C399 H387 0.929 . S
C399 C393 1.390 . S
C399 C396 1.386 . S
C400 C395 1.490 . S
C400 C402 1.395 . S
C400 C403 1.403 . S
H401 C407 0.930 1_655 S
C402 H388 0.930 . S
C402 C400 1.395 . S
C402 C405 1.403 . S
C403 C400 1.403 . S
C403 C404 1.524 1_455 S
C403 C407 1.400 . S
C404 H389 0.960 . S
C404 H390 0.960 . S
C404 H391 0.960 . S
C404 C403 1.524 1_655 S
C405 C402 1.403 . S
C405 C406 1.392 . S
C405 C409 1.495 . S
C406 C405 1.392 . S
C406 C407 1.385 . S
C406 C408 1.478 . S
C407 H401 0.930 1_455 S
C407 C403 1.400 . S
C407 C406 1.385 . S
C408 C406 1.478 . S
C408 C410 1.381 . S
C408 C414 1.383 . S
C409 C405 1.495 . S
C409 H415 0.959 . S
C409 H416 0.961 . S
C409 H417 0.960 . S
C410 C408 1.381 . S
C410 C411 1.394 . S
C410 H418 0.930 . S
C411 C410 1.394 . S
C411 C412 1.383 . S
C411 H419 0.929 . S
C412 C411 1.383 . S
C412 C413 1.380 . S
C413 H397 0.925 1_455 S
C413 C412 1.380 . S
C413 C414 1.381 . S
C414 H398 0.931 1_455 S
C414 C408 1.383 . S
C414 C413 1.381 . S
H415 C409 0.959 . S
H416 C409 0.961 . S
H417 C409 0.960 . S
H418 C410 0.930 . S
H419 C411 0.929 . S
H420 C428 0.929 . S
H421 C430 0.930 . S
H422 C432 0.930 . S
H423 C435 0.943 . S
H424 C438 0.930 . S
H425 C440 0.960 . S
H426 C440 0.960 . S
H427 C440 0.960 . S
C428 H420 0.929 . S
C428 C429 1.377 . S
C428 C430 1.384 . S
C429 C428 1.377 . S
C429 C435 1.390 . S
C430 H421 0.930 . S
C430 C428 1.384 . S
C430 C431 1.372 . S
C431 C430 1.372 . S
C431 C432 1.400 . S
C431 C436 1.490 . S
C432 H422 0.930 . S
C432 C431 1.400 . S
C432 C435 1.386 . S
H433 C449 0.930 . S
H434 C450 0.931 . S
C435 H423 0.943 . S
C435 C429 1.390 . S
C435 C432 1.386 . S
C436 C431 1.490 . S
C436 C438 1.395 . S
C436 C439 1.403 . S
H437 C443 0.930 . S
C438 H424 0.930 . S
C438 C436 1.395 . S
C438 C441 1.403 . S
C439 C436 1.403 . S
C439 C440 1.524 1_545 S
C439 C443 1.400 . S
C440 H425 0.960 . S
C440 H426 0.960 . S
C440 H427 0.960 . S
C440 C439 1.524 1_565 S
C441 C438 1.403 . S
C441 C442 1.392 . S
C441 C445 1.495 . S
C442 C441 1.392 . S
C442 C443 1.385 . S
C442 C444 1.478 . S
C443 H437 0.930 . S
C443 C439 1.400 . S
C443 C442 1.385 . S
C444 C442 1.478 . S
C444 C446 1.381 . S
C444 C450 1.383 . S
C445 C441 1.495 . S
C445 H451 0.959 . S
C445 H452 0.961 . S
C445 H453 0.960 . S
C446 C444 1.381 . S
C446 C447 1.394 . S
C446 H454 0.930 . S
C447 C446 1.394 . S
C447 C448 1.383 . S
C447 H455 0.929 . S
C448 C447 1.383 . S
C448 C449 1.377 . S
C449 H433 0.930 . S
C449 C448 1.377 . S
C449 C450 1.379 . S
C450 H434 0.931 . S
C450 C444 1.383 . S
C450 C449 1.379 . S
H451 C445 0.959 . S
H452 C445 0.961 . S
H453 C445 0.960 . S
H454 C446 0.930 . S
H455 C447 0.929 . S
H456 C464 0.929 . S
H457 C466 0.930 . S
H458 C468 0.930 . S
H459 C471 0.929 . S
H460 C474 0.930 . S
H461 C476 0.960 . S
H462 C476 0.960 . S
H463 C476 0.960 . S
C464 H456 0.929 . S
C464 C465 1.377 . S
C464 C466 1.384 . S
C465 C464 1.377 . S
C465 C471 1.390 . S
C466 H457 0.930 . S
C466 C464 1.384 . S
C466 C467 1.372 . S
C467 C466 1.372 . S
C467 C468 1.400 . S
C467 C472 1.490 . S
C468 H458 0.930 . S
C468 C467 1.400 . S
C468 C471 1.386 . S
H469 C485 0.930 . S
H470 C486 0.931 . S
C471 H459 0.929 . S
C471 C465 1.390 . S
C471 C468 1.386 . S
C472 C467 1.490 . S
C472 C474 1.395 . S
C472 C475 1.403 . S
H473 C479 0.930 1_556 S
C474 H460 0.930 . S
C474 C472 1.395 . S
C474 C477 1.403 . S
C475 C472 1.403 . S
C475 C476 1.524 1_554 S
C475 C479 1.400 . S
C476 H461 0.960 . S
C476 H462 0.960 . S
C476 H463 0.960 . S
C476 C475 1.524 1_556 S
C477 C474 1.403 . S
C477 C478 1.392 . S
C477 C481 1.495 . S
C478 C477 1.392 . S
C478 C479 1.385 . S
C478 C480 1.478 . S
C479 H473 0.930 1_554 S
C479 C475 1.400 . S
C479 C478 1.385 . S
C480 C478 1.478 . S
C480 C482 1.381 . S
C480 C486 1.383 . S
C481 C477 1.495 . S
C481 H487 0.959 . S
C481 H488 0.961 . S
C481 H489 0.960 . S
C482 C480 1.381 . S
C482 C483 1.394 . S
C482 H490 0.930 . S
C483 C482 1.394 . S
C483 C484 1.383 . S
C483 H491 0.929 . S
C484 C483 1.383 . S
C484 C485 1.377 . S
C485 H469 0.930 . S
C485 C484 1.377 . S
C485 C486 1.379 . S
C486 H470 0.931 . S
C486 C480 1.383 . S
C486 C485 1.379 . S
H487 C481 0.959 . S
H488 C481 0.961 . S
H489 C481 0.960 . S
H490 C482 0.930 . S
H491 C483 0.929 . S
H492 C500 0.929 . S
H493 C502 0.930 . S
H494 C504 0.930 . S
H495 C507 0.929 . S
H496 C510 0.930 . S
H497 C512 0.960 . S
H498 C512 0.960 . S
H499 C512 0.960 . S
C500 H492 0.929 . S
C500 C501 1.377 . S
C500 C502 1.384 . S
C501 C500 1.377 . S
C501 C507 1.390 . S
C502 H493 0.930 . S
C502 C500 1.384 . S
C502 C503 1.372 . S
C503 C502 1.372 . S
C503 C504 1.400 . S
C503 C508 1.490 . S
C504 H494 0.930 . S
C504 C503 1.400 . S
C504 C507 1.386 . S
H505 C521 0.930 . S
H506 C522 0.931 . S
C507 H495 0.929 . S
C507 C501 1.390 . S
C507 C504 1.386 . S
C508 C503 1.490 . S
C508 C510 1.395 . S
C508 C511 1.403 . S
H509 C515 0.930 . S
C510 H496 0.930 . S
C510 C508 1.395 . S
C510 C513 1.403 . S
C511 C508 1.403 . S
C511 C512 1.524 . S
C511 C515 1.400 . S
C512 H497 0.960 . S
C512 H498 0.960 . S
C512 H499 0.960 . S
C512 C511 1.524 . S
C513 C510 1.403 . S
C513 C514 1.392 . S
C513 C517 1.495 . S
C514 C513 1.392 . S
C514 C515 1.385 . S
C514 C516 1.478 . S
C515 H509 0.930 . S
C515 C511 1.400 . S
C515 C514 1.385 . S
C516 C514 1.478 . S
C516 C518 1.381 . S
C516 C522 1.383 . S
C517 C513 1.495 . S
C517 H523 0.959 . S
C517 H524 0.961 . S
C517 H525 0.960 . S
C518 C516 1.381 . S
C518 C519 1.394 . S
C518 H526 0.930 . S
C519 C518 1.394 . S
C519 C520 1.383 . S
C519 H527 0.929 . S
C520 C519 1.383 . S
C520 C521 1.377 . S
C521 H505 0.930 . S
C521 C520 1.377 . S
C521 C522 1.379 . S
C522 H506 0.931 . S
C522 C516 1.383 . S
C522 C521 1.379 . S
H523 C517 0.959 . S
H524 C517 0.961 . S
H525 C517 0.960 . S
H526 C518 0.930 . S
H527 C519 0.929 . S
H528 C536 0.929 . S
H529 C538 0.930 . S
H530 C540 0.930 1_556 S
H531 C543 0.929 1_556 S
H532 C546 0.930 . S
H533 C548 0.960 . S
H534 C548 0.960 . S
H535 C548 0.960 . S
C536 H528 0.929 . S
C536 C537 1.377 . S
C536 C538 1.384 . S
C537 C536 1.377 . S
C537 C543 1.390 . S
C538 H529 0.930 . S
C538 C536 1.384 . S
C538 C539 1.372 . S
C539 C538 1.372 . S
C539 C540 1.400 . S
C539 C544 1.490 . S
C540 H530 0.930 1_554 S
C540 C539 1.400 . S
C540 C543 1.386 . S
H541 C557 0.930 . S
H542 C558 0.931 . S
C543 H531 0.929 1_554 S
C543 C537 1.390 . S
C543 C540 1.386 . S
C544 C539 1.490 . S
C544 C546 1.395 . S
C544 C547 1.403 . S
H545 C551 0.930 . S
C546 H532 0.930 . S
C546 C544 1.395 . S
C546 C549 1.403 . S
C547 C544 1.403 . S
C547 C548 1.524 1_554 S
C547 C551 1.400 . S
C548 H533 0.960 . S
C548 H534 0.960 . S
C548 H535 0.960 . S
C548 C547 1.524 1_556 S
C549 C546 1.403 . S
C549 C550 1.392 . S
C549 C553 1.495 . S
C550 C549 1.392 . S
C550 C551 1.385 . S
C550 C552 1.478 . S
C551 H545 0.930 . S
C551 C547 1.400 . S
C551 C550 1.385 . S
C552 C550 1.478 . S
C552 C554 1.381 . S
C552 C558 1.383 . S
C553 C549 1.495 . S
C553 H559 0.959 . S
C553 H560 0.961 . S
C553 H561 0.960 . S
C554 C552 1.381 . S
C554 C555 1.394 . S
C554 H562 0.930 . S
C555 C554 1.394 . S
C555 C556 1.383 . S
C555 H563 0.929 . S
C556 C555 1.383 . S
C556 C557 1.377 . S
C557 H541 0.930 . S
C557 C556 1.377 . S
C557 C558 1.379 . S
C558 H542 0.931 . S
C558 C552 1.383 . S
C558 C557 1.379 . S
H559 C553 0.959 . S
H560 C553 0.961 . S
H561 C553 0.960 . S
H562 C554 0.930 . S
H563 C555 0.929 . S
H564 C572 0.929 . S
H565 C574 0.930 . S
H566 C576 0.930 . S
H567 C579 0.929 . S
H568 C582 0.930 . S
H569 C584 0.960 . S
H570 C584 0.960 . S
H571 C584 0.960 . S
C572 H564 0.929 . S
C572 C573 1.377 . S
C572 C574 1.384 . S
C573 C572 1.377 . S
C573 C579 1.390 . S
C574 H565 0.930 . S
C574 C572 1.384 . S
C574 C575 1.372 . S
C575 C574 1.372 . S
C575 C576 1.400 . S
C575 C580 1.490 . S
C576 H566 0.930 . S
C576 C575 1.400 . S
C576 C579 1.386 . S
H577 C593 0.930 . S
H578 C594 0.931 . S
C579 H567 0.929 . S
C579 C573 1.390 . S
C579 C576 1.386 . S
C580 C575 1.490 . S
C580 C582 1.395 . S
C580 C583 1.403 . S
H581 C587 0.930 . S
C582 H568 0.930 . S
C582 C580 1.395 . S
C582 C585 1.403 . S
C583 C580 1.403 . S
C583 C584 1.524 . S
C583 C587 1.400 . S
C584 H569 0.960 . S
C584 H570 0.960 . S
C584 H571 0.960 . S
C584 C583 1.524 . S
C585 C582 1.403 . S
C585 C586 1.392 . S
C585 C589 1.495 . S
C586 C585 1.392 . S
C586 C587 1.385 . S
C586 C588 1.478 . S
C587 H581 0.930 . S
C587 C583 1.400 . S
C587 C586 1.385 . S
C588 C586 1.478 . S
C588 C590 1.381 . S
C588 C594 1.383 . S
C589 C585 1.495 . S
C589 H595 0.959 . S
C589 H596 0.961 . S
C589 H597 0.960 . S
C590 C588 1.381 . S
C590 C591 1.394 . S
C590 H598 0.930 . S
C591 C590 1.394 . S
C591 C592 1.383 . S
C591 H599 0.929 . S
C592 C591 1.383 . S
C592 C593 1.377 . S
C593 H577 0.930 . S
C593 C592 1.377 . S
C593 C594 1.379 . S
C594 H578 0.931 . S
C594 C588 1.383 . S
C594 C593 1.379 . S
H595 C589 0.959 . S
H596 C589 0.961 . S
H597 C589 0.960 . S
H598 C590 0.930 . S
H599 C591 0.929 . S
H600 C608 0.929 . S
H601 C610 0.930 . S
H602 C612 0.930 . S
H603 C615 0.929 . S
H604 C618 0.930 . S
H605 C620 0.960 . S
H606 C620 0.960 . S
H607 C620 0.960 . S
C608 H600 0.929 . S
C608 C609 1.377 1_556 S
C608 C610 1.384 . S
C609 C608 1.377 1_554 S
C609 C615 1.390 . S
C610 H601 0.930 . S
C610 C608 1.384 . S
C610 C611 1.372 . S
C611 C610 1.372 . S
C611 C612 1.400 . S
C611 C616 1.490 . S
C612 H602 0.930 . S
C612 C611 1.400 . S
C612 C615 1.386 1_556 S
H613 C629 0.930 . S
H614 C630 0.931 . S
C615 H603 0.929 . S
C615 C609 1.390 . S
C615 C612 1.386 1_554 S
C616 C611 1.490 . S
C616 C618 1.395 . S
C616 C619 1.403 . S
H617 C623 0.930 . S
C618 H604 0.930 . S
C618 C616 1.395 . S
C618 C621 1.403 . S
C619 C616 1.403 . S
C619 C620 1.524 . S
C619 C623 1.400 . S
C620 H605 0.960 . S
C620 H606 0.960 . S
C620 H607 0.960 . S
C620 C619 1.524 . S
C621 C618 1.403 . S
C621 C622 1.392 . S
C621 C625 1.495 . S
C622 C621 1.392 . S
C622 C623 1.385 . S
C622 C624 1.478 . S
C623 H617 0.930 . S
C623 C619 1.400 . S
C623 C622 1.385 . S
C624 C622 1.478 . S
C624 C626 1.381 . S
C624 C630 1.383 . S
C625 C621 1.495 . S
C625 H631 0.959 . S
C625 H632 0.961 . S
C625 H633 0.960 . S
C626 C624 1.381 . S
C626 C627 1.394 . S
C626 H634 0.930 . S
C627 C626 1.394 . S
C627 C628 1.383 . S
C627 H635 0.929 . S
C628 C627 1.383 . S
C628 C629 1.377 . S
C629 H613 0.930 . S
C629 C628 1.377 . S
C629 C630 1.379 . S
C630 H614 0.931 . S
C630 C624 1.383 . S
C630 C629 1.379 . S
H631 C625 0.959 . S
H632 C625 0.961 . S
H633 C625 0.960 . S
H634 C626 0.930 . S
H635 C627 0.929 . S
H636 C644 0.929 . S
H637 C646 0.930 . S
H638 C648 0.930 . S
H639 C651 0.929 . S
H640 C654 0.930 . S
H641 C656 0.960 . S
H642 C656 0.960 . S
H643 C656 0.960 . S
C644 H636 0.929 . S
C644 C645 1.377 . S
C644 C646 1.384 . S
C645 C644 1.377 . S
C645 C651 1.390 . S
C646 H637 0.930 . S
C646 C644 1.384 . S
C646 C647 1.372 . S
C647 C646 1.372 . S
C647 C648 1.400 . S
C647 C652 1.490 . S
C648 H638 0.930 . S
C648 C647 1.400 . S
C648 C651 1.386 . S
H649 C665 0.930 . S
H650 C666 0.931 . S
C651 H639 0.929 . S
C651 C645 1.390 . S
C651 C648 1.386 . S
C652 C647 1.490 . S
C652 C654 1.395 . S
C652 C655 1.403 . S
H653 C659 0.930 . S
C654 H640 0.930 . S
C654 C652 1.395 . S
C654 C657 1.403 . S
C655 C652 1.403 . S
C655 C656 1.524 . S
C655 C659 1.400 . S
C656 H641 0.960 . S
C656 H642 0.960 . S
C656 H643 0.960 . S
C656 C655 1.524 . S
C657 C654 1.403 . S
C657 C658 1.392 . S
C657 C661 1.495 . S
C658 C657 1.392 . S
C658 C659 1.385 . S
C658 C660 1.478 . S
C659 H653 0.930 . S
C659 C655 1.400 . S
C659 C658 1.385 . S
C660 C658 1.478 . S
C660 C662 1.381 . S
C660 C666 1.383 . S
C661 C657 1.495 . S
C661 H667 0.959 . S
C661 H668 0.961 . S
C661 H669 0.960 . S
C662 C660 1.381 . S
C662 C663 1.394 . S
C662 H670 0.930 . S
C663 C662 1.394 . S
C663 C664 1.383 . S
C663 H671 0.929 . S
C664 C663 1.383 . S
C664 C665 1.377 . S
C665 H649 0.930 . S
C665 C664 1.377 . S
C665 C666 1.379 . S
C666 H650 0.931 . S
C666 C660 1.383 . S
C666 C665 1.379 . S
H667 C661 0.959 . S
H668 C661 0.961 . S
H669 C661 0.960 . S
H670 C662 0.930 . S
H671 C663 0.929 . S
H672 C680 0.929 . S
H673 C682 0.930 . S
H674 C684 0.930 . S
H675 C687 0.929 . S
H676 C690 0.930 . S
H677 C692 0.960 . S
H678 C692 0.960 . S
H679 C692 0.960 . S
C680 H672 0.929 . S
C680 C681 1.377 . S
C680 C682 1.384 . S
C681 C680 1.377 . S
C681 C687 1.390 . S
C682 H673 0.930 . S
C682 C680 1.384 . S
C682 C683 1.372 . S
C683 C682 1.372 . S
C683 C684 1.400 . S
C683 C688 1.490 . S
C684 H674 0.930 . S
C684 C683 1.400 . S
C684 C687 1.386 . S
H685 C701 0.930 . S
H686 C702 0.931 . S
C687 H675 0.929 . S
C687 C681 1.390 . S
C687 C684 1.386 . S
C688 C683 1.490 . S
C688 C690 1.395 . S
C688 C691 1.403 . S
H689 C695 0.930 . S
C690 H676 0.930 . S
C690 C688 1.395 . S
C690 C693 1.403 . S
C691 C688 1.403 . S
C691 C692 1.524 . S
C691 C695 1.400 . S
C692 H677 0.960 . S
C692 H678 0.960 . S
C692 H679 0.960 . S
C692 C691 1.524 . S
C693 C690 1.403 . S
C693 C694 1.392 . S
C693 C697 1.495 . S
C694 C693 1.392 . S
C694 C695 1.385 . S
C694 C696 1.478 . S
C695 H689 0.930 . S
C695 C691 1.400 . S
C695 C694 1.385 . S
C696 C694 1.478 . S
C696 C698 1.381 . S
C696 C702 1.383 . S
C697 C693 1.495 . S
C697 H703 0.959 . S
C697 H704 0.961 . S
C697 H705 0.960 . S
C698 C696 1.381 . S
C698 C699 1.394 . S
C698 H706 0.930 . S
C699 C698 1.394 . S
C699 C700 1.383 . S
C699 H707 0.929 . S
C700 C699 1.383 . S
C700 C701 1.377 . S
C701 H685 0.930 . S
C701 C700 1.377 . S
C701 C702 1.379 . S
C702 H686 0.931 . S
C702 C696 1.383 . S
C702 C701 1.379 . S
H703 C697 0.959 . S
H704 C697 0.961 . S
H705 C697 0.960 . S
H706 C698 0.930 . S
H707 C699 0.929 . S
H708 C716 0.929 . S
H709 C718 0.930 . S
H710 C720 0.930 . S
H711 C723 0.929 . S
H712 C726 0.930 . S
H713 C728 0.960 . S
H714 C728 0.960 . S
H715 C728 0.960 . S
C716 H708 0.929 . S
C716 C717 1.377 . S
C716 C718 1.384 . S
C717 C716 1.377 . S
C717 C723 1.390 . S
C718 H709 0.930 . S
C718 C716 1.384 . S
C718 C719 1.372 . S
C719 C718 1.372 . S
C719 C720 1.400 . S
C719 C724 1.490 . S
C720 H710 0.930 . S
C720 C719 1.400 . S
C720 C723 1.386 . S
H721 C737 0.930 . S
H722 C738 0.931 . S
C723 H711 0.929 . S
C723 C717 1.390 . S
C723 C720 1.386 . S
C724 C719 1.490 . S
C724 C726 1.395 . S
C724 C727 1.403 . S
H725 C731 0.930 . S
C726 H712 0.930 . S
C726 C724 1.395 . S
C726 C729 1.403 . S
C727 C724 1.403 . S
C727 C728 1.524 . S
C727 C731 1.400 . S
C728 H713 0.960 . S
C728 H714 0.960 . S
C728 H715 0.960 . S
C728 C727 1.524 . S
C729 C726 1.403 . S
C729 C730 1.392 . S
C729 C733 1.495 . S
C730 C729 1.392 . S
C730 C731 1.385 . S
C730 C732 1.478 . S
C731 H725 0.930 . S
C731 C727 1.400 . S
C731 C730 1.385 . S
C732 C730 1.478 . S
C732 C734 1.381 . S
C732 C738 1.383 . S
C733 C729 1.495 . S
C733 H739 0.959 . S
C733 H740 0.961 . S
C733 H741 0.960 . S
C734 C732 1.381 . S
C734 C735 1.394 . S
C734 H742 0.930 . S
C735 C734 1.394 . S
C735 C736 1.383 . S
C735 H743 0.929 . S
C736 C735 1.383 . S
C736 C737 1.377 . S
C737 H721 0.930 . S
C737 C736 1.377 . S
C737 C738 1.379 . S
C738 H722 0.931 . S
C738 C732 1.383 . S
C738 C737 1.379 . S
H739 C733 0.959 . S
H740 C733 0.961 . S
H741 C733 0.960 . S
H742 C734 0.930 . S
H743 C735 0.929 . S
H744 C752 0.929 . S
H745 C754 0.930 . S
H746 C756 0.930 . S
H747 C759 0.929 . S
H748 C762 0.930 . S
H749 C764 0.960 . S
H750 C764 0.960 . S
H751 C764 0.960 . S
C752 H744 0.929 . S
C752 C753 1.377 . S
C752 C754 1.384 . S
C753 C752 1.377 . S
C753 C759 1.390 . S
C754 H745 0.930 . S
C754 C752 1.384 . S
C754 C755 1.372 . S
C755 C754 1.372 . S
C755 C756 1.400 . S
C755 C760 1.490 . S
C756 H746 0.930 . S
C756 C755 1.400 . S
C756 C759 1.386 . S
H757 C773 0.930 . S
H758 C774 0.931 . S
C759 H747 0.929 . S
C759 C753 1.390 . S
C759 C756 1.386 . S
C760 C755 1.490 . S
C760 C762 1.395 . S
C760 C763 1.403 . S
H761 C767 0.930 . S
C762 H748 0.930 . S
C762 C760 1.395 . S
C762 C765 1.403 . S
C763 C760 1.403 . S
C763 C764 1.524 . S
C763 C767 1.400 . S
C764 H749 0.960 . S
C764 H750 0.960 . S
C764 H751 0.960 . S
C764 C763 1.524 . S
C765 C762 1.403 . S
C765 C766 1.392 . S
C765 C769 1.495 . S
C766 C765 1.392 . S
C766 C767 1.385 . S
C766 C768 1.478 . S
C767 H761 0.930 . S
C767 C763 1.400 . S
C767 C766 1.385 . S
C768 C766 1.478 . S
C768 C770 1.381 . S
C768 C774 1.383 . S
C769 C765 1.495 . S
C769 H775 0.959 . S
C769 H776 0.961 . S
C769 H777 0.960 . S
C770 C768 1.381 . S
C770 C771 1.394 . S
C770 H778 0.930 . S
C771 C770 1.394 . S
C771 C772 1.383 . S
C771 H779 0.929 . S
C772 C771 1.383 . S
C772 C773 1.377 . S
C773 H757 0.930 . S
C773 C772 1.377 . S
C773 C774 1.379 . S
C774 H758 0.931 . S
C774 C768 1.383 . S
C774 C773 1.379 . S
H775 C769 0.959 . S
H776 C769 0.961 . S
H777 C769 0.960 . S
H778 C770 0.930 . S
H779 C771 0.929 . S
H780 C788 0.929 . S
H781 C790 0.930 . S
H782 C792 0.930 . S
H783 C795 0.929 . S
H784 C798 0.930 . S
H785 C800 0.960 . S
H786 C800 0.960 . S
H787 C800 0.960 . S
C788 H780 0.929 . S
C788 C789 1.377 . S
C788 C790 1.384 . S
C789 C788 1.377 . S
C789 C795 1.390 . S
C790 H781 0.930 . S
C790 C788 1.384 . S
C790 C791 1.372 . S
C791 C790 1.372 . S
C791 C792 1.400 . S
C791 C796 1.490 . S
C792 H782 0.930 . S
C792 C791 1.400 . S
C792 C795 1.386 . S
H793 C809 0.930 . S
H794 C810 0.931 . S
C795 H783 0.929 . S
C795 C789 1.390 . S
C795 C792 1.386 . S
C796 C791 1.490 . S
C796 C798 1.395 . S
C796 C799 1.403 . S
H797 C803 0.930 . S
C798 H784 0.930 . S
C798 C796 1.395 . S
C798 C801 1.403 . S
C799 C796 1.403 . S
C799 C800 1.524 . S
C799 C803 1.400 . S
C800 H785 0.960 . S
C800 H786 0.960 . S
C800 H787 0.960 . S
C800 C799 1.524 . S
C801 C798 1.403 . S
C801 C802 1.392 . S
C801 C805 1.495 . S
C802 C801 1.392 . S
C802 C803 1.385 . S
C802 C804 1.478 . S
C803 H797 0.930 . S
C803 C799 1.400 . S
C803 C802 1.385 . S
C804 C802 1.478 . S
C804 C806 1.381 . S
C804 C810 1.383 . S
C805 C801 1.495 . S
C805 H811 0.959 . S
C805 H812 0.961 . S
C805 H813 0.960 . S
C806 C804 1.381 . S
C806 C807 1.394 . S
C806 H814 0.930 . S
C807 C806 1.394 . S
C807 C808 1.383 . S
C807 H815 0.929 . S
C808 C807 1.383 . S
C808 C809 1.377 . S
C809 H793 0.930 . S
C809 C808 1.377 . S
C809 C810 1.379 . S
C810 H794 0.931 . S
C810 C804 1.383 . S
C810 C809 1.379 . S
H811 C805 0.959 . S
H812 C805 0.961 . S
H813 C805 0.960 . S
H814 C806 0.930 . S
H815 C807 0.929 . S
H816 C824 0.929 . S
H817 C826 0.930 . S
H818 C828 0.930 . S
H819 C831 0.929 . S
H820 C834 0.930 . S
H821 C836 0.960 . S
H822 C836 0.960 . S
H823 C836 0.960 . S
C824 H816 0.929 . S
C824 C825 1.377 . S
C824 C826 1.384 . S
C825 C824 1.377 . S
C825 C831 1.390 . S
C826 H817 0.930 . S
C826 C824 1.384 . S
C826 C827 1.372 . S
C827 C826 1.372 . S
C827 C828 1.400 . S
C827 C832 1.490 . S
C828 H818 0.930 . S
C828 C827 1.400 . S
C828 C831 1.386 . S
H829 C845 0.930 . S
H830 C846 0.931 . S
C831 H819 0.929 . S
C831 C825 1.390 . S
C831 C828 1.386 . S
C832 C827 1.490 . S
C832 C834 1.395 . S
C832 C835 1.403 . S
H833 C839 0.930 . S
C834 H820 0.930 . S
C834 C832 1.395 . S
C834 C837 1.403 . S
C835 C832 1.403 . S
C835 C836 1.524 . S
C835 C839 1.400 . S
C836 H821 0.960 . S
C836 H822 0.960 . S
C836 H823 0.960 . S
C836 C835 1.524 . S
C837 C834 1.403 . S
C837 C838 1.392 . S
C837 C841 1.495 . S
C838 C837 1.392 . S
C838 C839 1.385 . S
C838 C840 1.478 . S
C839 H833 0.930 . S
C839 C835 1.400 . S
C839 C838 1.385 . S
C840 C838 1.478 . S
C840 C842 1.381 . S
C840 C846 1.383 . S
C841 C837 1.495 . S
C841 H847 0.959 . S
C841 H848 0.961 . S
C841 H849 0.960 . S
C842 C840 1.381 . S
C842 C843 1.394 . S
C842 H850 0.930 . S
C843 C842 1.394 . S
C843 C844 1.383 . S
C843 H851 0.929 . S
C844 C843 1.383 . S
C844 C845 1.377 . S
C845 H829 0.930 . S
C845 C844 1.377 . S
C845 C846 1.379 . S
C846 H830 0.931 . S
C846 C840 1.383 . S
C846 C845 1.379 . S
H847 C841 0.959 . S
H848 C841 0.961 . S
H849 C841 0.960 . S
H850 C842 0.930 . S
H851 C843 0.929 . S
H852 C860 0.929 . S
H853 C862 0.930 . S
H854 C864 0.930 . S
H855 C867 0.929 . S
H856 C870 0.930 . S
H857 C872 0.960 . S
H858 C872 0.960 . S
H859 C872 0.960 . S
C860 H852 0.929 . S
C860 C861 1.377 . S
C860 C862 1.384 . S
C861 C860 1.377 . S
C861 C867 1.390 . S
C862 H853 0.930 . S
C862 C860 1.384 . S
C862 C863 1.372 . S
C863 C862 1.372 . S
C863 C864 1.400 . S
C863 C868 1.490 . S
C864 H854 0.930 . S
C864 C863 1.400 . S
C864 C867 1.386 . S
H865 C881 0.930 . S
H866 C882 0.931 . S
C867 H855 0.929 . S
C867 C861 1.390 . S
C867 C864 1.386 . S
C868 C863 1.490 . S
C868 C870 1.395 . S
C868 C871 1.403 . S
H869 C875 0.930 . S
C870 H856 0.930 . S
C870 C868 1.395 . S
C870 C873 1.403 . S
C871 C868 1.403 . S
C871 C872 1.524 . S
C871 C875 1.400 . S
C872 H857 0.960 . S
C872 H858 0.960 . S
C872 H859 0.960 . S
C872 C871 1.524 . S
C873 C870 1.403 . S
C873 C874 1.392 . S
C873 C877 1.495 . S
C874 C873 1.392 . S
C874 C875 1.385 . S
C874 C876 1.478 . S
C875 H869 0.930 . S
C875 C871 1.400 . S
C875 C874 1.385 . S
C876 C874 1.478 . S
C876 C878 1.381 . S
C876 C882 1.383 . S
C877 C873 1.495 . S
C877 H883 0.959 . S
C877 H884 0.961 . S
C877 H885 0.960 . S
C878 C876 1.381 . S
C878 C879 1.394 . S
C878 H886 0.930 . S
C879 C878 1.394 . S
C879 C880 1.383 . S
C879 H887 0.929 . S
C880 C879 1.383 . S
C880 C881 1.377 . S
C881 H865 0.930 . S
C881 C880 1.377 . S
C881 C882 1.379 . S
C882 H866 0.931 . S
C882 C876 1.383 . S
C882 C881 1.379 . S
H883 C877 0.959 . S
H884 C877 0.961 . S
H885 C877 0.960 . S
H886 C878 0.930 . S
H887 C879 0.929 . S
H888 C896 0.929 . S
H889 C898 0.930 . S
H890 C900 0.930 . S
H891 C903 0.929 . S
H892 C906 0.930 . S
H893 C908 0.960 . S
H894 C908 0.960 . S
H895 C908 0.960 . S
C896 H888 0.929 . S
C896 C897 1.377 . S
C896 C898 1.384 . S
C897 C896 1.377 . S
C897 C903 1.390 . S
C898 H889 0.930 . S
C898 C896 1.384 . S
C898 C899 1.372 . S
C899 C898 1.372 . S
C899 C900 1.400 . S
C899 C904 1.490 . S
C900 H890 0.930 . S
C900 C899 1.400 . S
C900 C903 1.386 . S
H901 C917 0.930 . S
H902 C918 0.931 . S
C903 H891 0.929 . S
C903 C897 1.390 . S
C903 C900 1.386 . S
C904 C899 1.490 . S
C904 C906 1.395 . S
C904 C907 1.403 . S
H905 C911 0.930 . S
C906 H892 0.930 . S
C906 C904 1.395 . S
C906 C909 1.403 . S
C907 C904 1.403 . S
C907 C908 1.524 . S
C907 C911 1.400 . S
C908 H893 0.960 . S
C908 H894 0.960 . S
C908 H895 0.960 . S
C908 C907 1.524 . S
C909 C906 1.403 . S
C909 C910 1.392 . S
C909 C913 1.495 . S
C910 C909 1.392 . S
C910 C911 1.385 . S
C910 C912 1.478 . S
C911 H905 0.930 . S
C911 C907 1.400 . S
C911 C910 1.385 . S
C912 C910 1.478 . S
C912 C914 1.381 . S
C912 C918 1.383 . S
C913 C909 1.495 . S
C913 H919 0.959 . S
C913 H920 0.961 . S
C913 H921 0.960 . S
C914 C912 1.381 . S
C914 C915 1.394 . S
C914 H922 0.930 . S
C915 C914 1.394 . S
C915 C916 1.383 . S
C915 H923 0.929 . S
C916 C915 1.383 . S
C916 C917 1.377 . S
C917 H901 0.930 . S
C917 C916 1.377 . S
C917 C918 1.379 . S
C918 H902 0.931 . S
C918 C912 1.383 . S
C918 C917 1.379 . S
H919 C913 0.959 . S
H920 C913 0.961 . S
H921 C913 0.960 . S
H922 C914 0.930 . S
H923 C915 0.929 . S
H924 C932 0.929 . S
H925 C934 0.930 . S
H926 C936 0.930 . S
H927 C939 0.929 . S
H928 C942 0.930 . S
H929 C944 0.960 . S
H930 C944 0.960 . S
H931 C944 0.960 . S
C932 H924 0.929 . S
C932 C933 1.377 . S
C932 C934 1.384 . S
C933 C932 1.377 . S
C933 C939 1.390 . S
C934 H925 0.930 . S
C934 C932 1.384 . S
C934 C935 1.372 . S
C935 C934 1.372 . S
C935 C936 1.400 . S
C935 C940 1.490 . S
C936 H926 0.930 . S
C936 C935 1.400 . S
C936 C939 1.386 . S
H937 C953 0.930 . S
H938 C954 0.931 . S
C939 H927 0.929 . S
C939 C933 1.390 . S
C939 C936 1.386 . S
C940 C935 1.490 . S
C940 C942 1.395 . S
C940 C943 1.403 . S
H941 C947 0.930 . S
C942 H928 0.930 . S
C942 C940 1.395 . S
C942 C945 1.403 . S
C943 C940 1.403 . S
C943 C944 1.524 . S
C943 C947 1.400 . S
C944 H929 0.960 . S
C944 H930 0.960 . S
C944 H931 0.960 . S
C944 C943 1.524 . S
C945 C942 1.403 . S
C945 C946 1.392 . S
C945 C949 1.495 . S
C946 C945 1.392 . S
C946 C947 1.385 . S
C946 C948 1.478 . S
C947 H941 0.930 . S
C947 C943 1.400 . S
C947 C946 1.385 . S
C948 C946 1.478 . S
C948 C950 1.381 . S
C948 C954 1.383 . S
C949 C945 1.495 . S
C949 H955 0.959 . S
C949 H956 0.961 . S
C949 H957 0.960 . S
C950 C948 1.381 . S
C950 C951 1.394 . S
C950 H958 0.930 . S
C951 C950 1.394 . S
C951 C952 1.383 . S
C951 H959 0.929 . S
C952 C951 1.383 . S
C952 C953 1.377 . S
C953 H937 0.930 . S
C953 C952 1.377 . S
C953 C954 1.379 . S
C954 H938 0.931 . S
C954 C948 1.383 . S
C954 C953 1.379 . S
H955 C949 0.959 . S
H956 C949 0.961 . S
H957 C949 0.960 . S
H958 C950 0.930 . S
H959 C951 0.929 . S
H960 C968 0.929 . S
H961 C970 0.930 . S
H962 C972 0.930 . S
H963 C975 0.929 . S
H964 C978 0.930 . S
H965 C980 0.960 . S
H966 C980 0.960 . S
H967 C980 0.960 . S
C968 H960 0.929 . S
C968 C969 1.377 . S
C968 C970 1.384 . S
C969 C968 1.377 . S
C969 C975 1.390 . S
C970 H961 0.930 . S
C970 C968 1.384 . S
C970 C971 1.372 . S
C971 C970 1.372 . S
C971 C972 1.400 . S
C971 C976 1.490 . S
C972 H962 0.930 . S
C972 C971 1.400 . S
C972 C975 1.386 . S
H973 C989 0.930 . S
H974 C990 0.931 . S
C975 H963 0.929 . S
C975 C969 1.390 . S
C975 C972 1.386 . S
C976 C971 1.490 . S
C976 C978 1.395 . S
C976 C979 1.403 . S
H977 C983 0.930 . S
C978 H964 0.930 . S
C978 C976 1.395 . S
C978 C981 1.403 . S
C979 C976 1.403 . S
C979 C980 1.524 . S
C979 C983 1.400 . S
C980 H965 0.960 . S
C980 H966 0.960 . S
C980 H967 0.960 . S
C980 C979 1.524 . S
C981 C978 1.403 . S
C981 C982 1.392 . S
C981 C985 1.495 . S
C982 C981 1.392 . S
C982 C983 1.385 . S
C982 C984 1.478 . S
C983 H977 0.930 . S
C983 C979 1.400 . S
C983 C982 1.385 . S
C984 C982 1.478 . S
C984 C986 1.381 . S
C984 C990 1.383 . S
C985 C981 1.495 . S
C985 H991 0.959 . S
C985 H992 0.961 . S
C985 H993 0.960 . S
C986 C984 1.381 . S
C986 C987 1.394 . S
C986 H994 0.930 . S
C987 C986 1.394 . S
C987 C988 1.383 . S
C987 H995 0.929 . S
C988 C987 1.383 . S
C988 C989 1.377 . S
C989 H973 0.930 . S
C989 C988 1.377 . S
C989 C990 1.379 . S
C990 H974 0.931 . S
C990 C984 1.383 . S
C990 C989 1.379 . S
H991 C985 0.959 . S
H992 C985 0.961 . S
H993 C985 0.960 . S
H994 C986 0.930 . S
H995 C987 0.929 . S
H996 C1004 0.929 . S
H997 C1006 0.930 . S
H998 C1008 0.930 . S
H999 C1011 0.929 . S
H1000 C1014 0.930 . S
H1001 C1016 0.960 . S
H1002 C1016 0.960 . S
H1003 C1016 0.960 . S
C1004 H996 0.929 . S
C1004 C1005 1.377 . S
C1004 C1006 1.384 . S
C1005 C1004 1.377 . S
C1005 C1011 1.390 . S
C1006 H997 0.930 . S
C1006 C1004 1.384 . S
C1006 C1007 1.372 . S
C1007 C1006 1.372 . S
C1007 C1008 1.400 . S
C1007 C1012 1.490 . S
C1008 H998 0.930 . S
C1008 C1007 1.400 . S
C1008 C1011 1.386 . S
H1009 C1025 0.930 . S
H1010 C1026 0.931 . S
C1011 H999 0.929 . S
C1011 C1005 1.390 . S
C1011 C1008 1.386 . S
C1012 C1007 1.490 . S
C1012 C1014 1.395 . S
C1012 C1015 1.403 . S
H1013 C1019 0.930 . S
C1014 H1000 0.930 . S
C1014 C1012 1.395 . S
C1014 C1017 1.403 . S
C1015 C1012 1.403 . S
C1015 C1016 1.524 . S
C1015 C1019 1.400 . S
C1016 H1001 0.960 . S
C1016 H1002 0.960 . S
C1016 H1003 0.960 . S
C1016 C1015 1.524 . S
C1017 C1014 1.403 . S
C1017 C1018 1.392 . S
C1017 C1021 1.495 . S
C1018 C1017 1.392 . S
C1018 C1019 1.385 . S
C1018 C1020 1.478 . S
C1019 H1013 0.930 . S
C1019 C1015 1.400 . S
C1019 C1018 1.385 . S
C1020 C1018 1.478 . S
C1020 C1022 1.381 . S
C1020 C1026 1.383 . S
C1021 C1017 1.495 . S
C1021 H1027 0.959 . S
C1021 H1028 0.961 . S
C1021 H1029 0.960 . S
C1022 C1020 1.381 . S
C1022 C1023 1.394 . S
C1022 H1030 0.930 . S
C1023 C1022 1.394 . S
C1023 C1024 1.383 . S
C1023 H1031 0.929 . S
C1024 C1023 1.383 . S
C1024 C1025 1.377 . S
C1025 H1009 0.930 . S
C1025 C1024 1.377 . S
C1025 C1026 1.379 . S
C1026 H1010 0.931 . S
C1026 C1020 1.383 . S
C1026 C1025 1.379 . S
H1027 C1021 0.959 . S
H1028 C1021 0.961 . S
H1029 C1021 0.960 . S
H1030 C1022 0.930 . S
H1031 C1023 0.929 . S
C177 C9 1.928 . S
C196 C76 1.869 . S
C213 C20 0.967 . S
C232 C63 1.000 . S
C249 C78 1.785 . S
C268 C37 1.752 . S
C285 C49 1.338 . S
C304 C65 1.398 . S
C321 C104 1.171 . S
C340 C35 1.198 . S
C357 C93 2.043 . S
C376 C51 2.036 . S
C393 C7 1.105 . S
C412 C106 1.113 . S
C429 C91 1.630 . S
C448 C22 1.681 . S
C465 C132 1.414 . S
C484 C118 1.371 . S
C501 C120 1.225 . S
C520 C162 1.192 . S
C537 C134 1.531 . S
C556 C148 1.541 . S
C573 C146 1.703 . S
C592 C160 1.682 . S
C609 C163 1.924 . S
C628 C90 1.877 . S
C645 C119 0.979 . S
C664 C105 0.984 . S
C681 C92 1.780 . S
C700 C135 1.799 . S
C717 C107 1.384 1_655 S
C736 C147 1.336 . S
C753 C62 1.177 . S
C772 C133 1.159 . S
C789 C79 2.044 . S
C808 C149 2.041 . S
C825 C161 1.101 . S
C844 C64 1.160 1_565 S
C861 C121 1.676 . S
C880 C77 1.614 . S
C897 C21 1.400 . S
C916 C34 1.418 . S
C933 C8 1.223 . S
C952 C23 1.195 . S
C969 C36 1.534 . S
C988 C50 1.527 . S
C1005 C6 1.691 . S
C1024 C48 1.720 . S
