# Generated by pormake.
# Topology wir, (6)-cn, num edge types: 1
# Building blocks:
#     Node 0, Type 0, BuildingBlock: KUMJIN_clean_sbu_1, # of connection points: 6
#     Node 1, Type 0, BuildingBlock: KUMJIN_clean_sbu_1, # of connection points: 6
#     Node 2, Type 0, BuildingBlock: KUMJIN_clean_sbu_1, # of connection points: 6
#     Node 3, Type 0, BuildingBlock: KUMJIN_clean_sbu_1, # of connection points: 6
#     Node 4, Type 0, BuildingBlock: KUMJIN_clean_sbu_1, # of connection points: 6
#     Node 5, Type 0, BuildingBlock: KUMJIN_clean_sbu_1, # of connection points: 6
#     Node 6, Type 0, BuildingBlock: KUMJIN_clean_sbu_1, # of connection points: 6
#     Node 7, Type 0, BuildingBlock: KUMJIN_clean_sbu_1, # of connection points: 6
#     Node 8, Type 0, BuildingBlock: KUMJIN_clean_sbu_1, # of connection points: 6
#     Node 9, Type 0, BuildingBlock: KUMJIN_clean_sbu_1, # of connection points: 6
#     Node 10, Type 0, BuildingBlock: KUMJIN_clean_sbu_1, # of connection points: 6
#     Node 11, Type 0, BuildingBlock: KUMJIN_clean_sbu_1, # of connection points: 6
#     Node 12, Type 0, BuildingBlock: KUMJIN_clean_sbu_1, # of connection points: 6
#     Node 13, Type 0, BuildingBlock: KUMJIN_clean_sbu_1, # of connection points: 6
#     Node 14, Type 0, BuildingBlock: KUMJIN_clean_sbu_1, # of connection points: 6
#     Node 15, Type 0, BuildingBlock: KUMJIN_clean_sbu_1, # of connection points: 6
#     Node 16, Type 0, BuildingBlock: KUMJIN_clean_sbu_1, # of connection points: 6
#     Node 17, Type 0, BuildingBlock: KUMJIN_clean_sbu_1, # of connection points: 6
#     Node 18, Type 0, BuildingBlock: KUMJIN_clean_sbu_1, # of connection points: 6
#     Node 19, Type 0, BuildingBlock: KUMJIN_clean_sbu_1, # of connection points: 6
#     Node 20, Type 0, BuildingBlock: KUMJIN_clean_sbu_1, # of connection points: 6
#     Node 21, Type 0, BuildingBlock: KUMJIN_clean_sbu_1, # of connection points: 6
#     Node 22, Type 0, BuildingBlock: KUMJIN_clean_sbu_1, # of connection points: 6
#     Node 23, Type 0, BuildingBlock: KUMJIN_clean_sbu_1, # of connection points: 6
#     Node 24, Type 0, BuildingBlock: KUMJIN_clean_sbu_1, # of connection points: 6
#     Node 25, Type 0, BuildingBlock: KUMJIN_clean_sbu_1, # of connection points: 6
#     Node 26, Type 0, BuildingBlock: KUMJIN_clean_sbu_1, # of connection points: 6
#     Node 27, Type 0, BuildingBlock: KUMJIN_clean_sbu_1, # of connection points: 6
#     Node 28, Type 0, BuildingBlock: KUMJIN_clean_sbu_1, # of connection points: 6
#     Node 29, Type 0, BuildingBlock: KUMJIN_clean_sbu_1, # of connection points: 6
#     Node 30, Type 0, BuildingBlock: KUMJIN_clean_sbu_1, # of connection points: 6
#     Node 31, Type 0, BuildingBlock: KUMJIN_clean_sbu_1, # of connection points: 6
#     Edge 32, Type (0, 0), BuildingBlock: EZIPEK_clean_linker_0, # of connection points: 2
#     Edge 33, Type (0, 0), BuildingBlock: EZIPEK_clean_linker_0, # of connection points: 2
#     Edge 34, Type (0, 0), BuildingBlock: EZIPEK_clean_linker_0, # of connection points: 2
#     Edge 35, Type (0, 0), BuildingBlock: EZIPEK_clean_linker_0, # of connection points: 2
#     Edge 36, Type (0, 0), BuildingBlock: EZIPEK_clean_linker_0, # of connection points: 2
#     Edge 37, Type (0, 0), BuildingBlock: EZIPEK_clean_linker_0, # of connection points: 2
#     Edge 38, Type (0, 0), BuildingBlock: EZIPEK_clean_linker_0, # of connection points: 2
#     Edge 39, Type (0, 0), BuildingBlock: EZIPEK_clean_linker_0, # of connection points: 2
#     Edge 40, Type (0, 0), BuildingBlock: EZIPEK_clean_linker_0, # of connection points: 2
#     Edge 41, Type (0, 0), BuildingBlock: EZIPEK_clean_linker_0, # of connection points: 2
#     Edge 42, Type (0, 0), BuildingBlock: EZIPEK_clean_linker_0, # of connection points: 2
#     Edge 43, Type (0, 0), BuildingBlock: EZIPEK_clean_linker_0, # of connection points: 2
#     Edge 44, Type (0, 0), BuildingBlock: EZIPEK_clean_linker_0, # of connection points: 2
#     Edge 45, Type (0, 0), BuildingBlock: EZIPEK_clean_linker_0, # of connection points: 2
#     Edge 46, Type (0, 0), BuildingBlock: EZIPEK_clean_linker_0, # of connection points: 2
#     Edge 47, Type (0, 0), BuildingBlock: EZIPEK_clean_linker_0, # of connection points: 2
#     Edge 48, Type (0, 0), BuildingBlock: EZIPEK_clean_linker_0, # of connection points: 2
#     Edge 49, Type (0, 0), BuildingBlock: EZIPEK_clean_linker_0, # of connection points: 2
#     Edge 50, Type (0, 0), BuildingBlock: EZIPEK_clean_linker_0, # of connection points: 2
#     Edge 51, Type (0, 0), BuildingBlock: EZIPEK_clean_linker_0, # of connection points: 2
#     Edge 52, Type (0, 0), BuildingBlock: EZIPEK_clean_linker_0, # of connection points: 2
#     Edge 53, Type (0, 0), BuildingBlock: EZIPEK_clean_linker_0, # of connection points: 2
#     Edge 54, Type (0, 0), BuildingBlock: EZIPEK_clean_linker_0, # of connection points: 2
#     Edge 55, Type (0, 0), BuildingBlock: EZIPEK_clean_linker_0, # of connection points: 2
#     Edge 56, Type (0, 0), BuildingBlock: EZIPEK_clean_linker_0, # of connection points: 2
#     Edge 57, Type (0, 0), BuildingBlock: EZIPEK_clean_linker_0, # of connection points: 2
#     Edge 58, Type (0, 0), BuildingBlock: EZIPEK_clean_linker_0, # of connection points: 2
#     Edge 59, Type (0, 0), BuildingBlock: EZIPEK_clean_linker_0, # of connection points: 2
#     Edge 60, Type (0, 0), BuildingBlock: EZIPEK_clean_linker_0, # of connection points: 2
#     Edge 61, Type (0, 0), BuildingBlock: EZIPEK_clean_linker_0, # of connection points: 2
#     Edge 62, Type (0, 0), BuildingBlock: EZIPEK_clean_linker_0, # of connection points: 2
#     Edge 63, Type (0, 0), BuildingBlock: EZIPEK_clean_linker_0, # of connection points: 2
#     Edge 64, Type (0, 0), BuildingBlock: EZIPEK_clean_linker_0, # of connection points: 2
#     Edge 65, Type (0, 0), BuildingBlock: EZIPEK_clean_linker_0, # of connection points: 2
#     Edge 66, Type (0, 0), BuildingBlock: EZIPEK_clean_linker_0, # of connection points: 2
#     Edge 67, Type (0, 0), BuildingBlock: EZIPEK_clean_linker_0, # of connection points: 2
#     Edge 68, Type (0, 0), BuildingBlock: EZIPEK_clean_linker_0, # of connection points: 2
#     Edge 69, Type (0, 0), BuildingBlock: EZIPEK_clean_linker_0, # of connection points: 2
#     Edge 70, Type (0, 0), BuildingBlock: EZIPEK_clean_linker_0, # of connection points: 2
#     Edge 71, Type (0, 0), BuildingBlock: EZIPEK_clean_linker_0, # of connection points: 2
#     Edge 72, Type (0, 0), BuildingBlock: EZIPEK_clean_linker_0, # of connection points: 2
#     Edge 73, Type (0, 0), BuildingBlock: EZIPEK_clean_linker_0, # of connection points: 2
#     Edge 74, Type (0, 0), BuildingBlock: EZIPEK_clean_linker_0, # of connection points: 2
#     Edge 75, Type (0, 0), BuildingBlock: EZIPEK_clean_linker_0, # of connection points: 2
#     Edge 76, Type (0, 0), BuildingBlock: EZIPEK_clean_linker_0, # of connection points: 2
#     Edge 77, Type (0, 0), BuildingBlock: EZIPEK_clean_linker_0, # of connection points: 2
#     Edge 78, Type (0, 0), BuildingBlock: EZIPEK_clean_linker_0, # of connection points: 2
#     Edge 79, Type (0, 0), BuildingBlock: EZIPEK_clean_linker_0, # of connection points: 2
#     Edge 80, Type (0, 0), BuildingBlock: EZIPEK_clean_linker_0, # of connection points: 2
#     Edge 81, Type (0, 0), BuildingBlock: EZIPEK_clean_linker_0, # of connection points: 2
#     Edge 82, Type (0, 0), BuildingBlock: EZIPEK_clean_linker_0, # of connection points: 2
#     Edge 83, Type (0, 0), BuildingBlock: EZIPEK_clean_linker_0, # of connection points: 2
#     Edge 84, Type (0, 0), BuildingBlock: EZIPEK_clean_linker_0, # of connection points: 2
#     Edge 85, Type (0, 0), BuildingBlock: EZIPEK_clean_linker_0, # of connection points: 2
#     Edge 86, Type (0, 0), BuildingBlock: EZIPEK_clean_linker_0, # of connection points: 2
#     Edge 87, Type (0, 0), BuildingBlock: EZIPEK_clean_linker_0, # of connection points: 2
#     Edge 88, Type (0, 0), BuildingBlock: EZIPEK_clean_linker_0, # of connection points: 2
#     Edge 89, Type (0, 0), BuildingBlock: EZIPEK_clean_linker_0, # of connection points: 2
#     Edge 90, Type (0, 0), BuildingBlock: EZIPEK_clean_linker_0, # of connection points: 2
#     Edge 91, Type (0, 0), BuildingBlock: EZIPEK_clean_linker_0, # of connection points: 2
#     Edge 92, Type (0, 0), BuildingBlock: EZIPEK_clean_linker_0, # of connection points: 2
#     Edge 93, Type (0, 0), BuildingBlock: EZIPEK_clean_linker_0, # of connection points: 2
#     Edge 94, Type (0, 0), BuildingBlock: EZIPEK_clean_linker_0, # of connection points: 2
#     Edge 95, Type (0, 0), BuildingBlock: EZIPEK_clean_linker_0, # of connection points: 2
#     Edge 96, Type (0, 0), BuildingBlock: EZIPEK_clean_linker_0, # of connection points: 2
#     Edge 97, Type (0, 0), BuildingBlock: EZIPEK_clean_linker_0, # of connection points: 2
#     Edge 98, Type (0, 0), BuildingBlock: EZIPEK_clean_linker_0, # of connection points: 2
#     Edge 99, Type (0, 0), BuildingBlock: EZIPEK_clean_linker_0, # of connection points: 2
#     Edge 100, Type (0, 0), BuildingBlock: EZIPEK_clean_linker_0, # of connection points: 2
#     Edge 101, Type (0, 0), BuildingBlock: EZIPEK_clean_linker_0, # of connection points: 2
#     Edge 102, Type (0, 0), BuildingBlock: EZIPEK_clean_linker_0, # of connection points: 2
#     Edge 103, Type (0, 0), BuildingBlock: EZIPEK_clean_linker_0, # of connection points: 2
#     Edge 104, Type (0, 0), BuildingBlock: EZIPEK_clean_linker_0, # of connection points: 2
#     Edge 105, Type (0, 0), BuildingBlock: EZIPEK_clean_linker_0, # of connection points: 2
#     Edge 106, Type (0, 0), BuildingBlock: EZIPEK_clean_linker_0, # of connection points: 2
#     Edge 107, Type (0, 0), BuildingBlock: EZIPEK_clean_linker_0, # of connection points: 2
#     Edge 108, Type (0, 0), BuildingBlock: EZIPEK_clean_linker_0, # of connection points: 2
#     Edge 109, Type (0, 0), BuildingBlock: EZIPEK_clean_linker_0, # of connection points: 2
#     Edge 110, Type (0, 0), BuildingBlock: EZIPEK_clean_linker_0, # of connection points: 2
#     Edge 111, Type (0, 0), BuildingBlock: EZIPEK_clean_linker_0, # of connection points: 2
#     Edge 112, Type (0, 0), BuildingBlock: EZIPEK_clean_linker_0, # of connection points: 2
#     Edge 113, Type (0, 0), BuildingBlock: EZIPEK_clean_linker_0, # of connection points: 2
#     Edge 114, Type (0, 0), BuildingBlock: EZIPEK_clean_linker_0, # of connection points: 2
#     Edge 115, Type (0, 0), BuildingBlock: EZIPEK_clean_linker_0, # of connection points: 2
#     Edge 116, Type (0, 0), BuildingBlock: EZIPEK_clean_linker_0, # of connection points: 2
#     Edge 117, Type (0, 0), BuildingBlock: EZIPEK_clean_linker_0, # of connection points: 2
#     Edge 118, Type (0, 0), BuildingBlock: EZIPEK_clean_linker_0, # of connection points: 2
#     Edge 119, Type (0, 0), BuildingBlock: EZIPEK_clean_linker_0, # of connection points: 2
#     Edge 120, Type (0, 0), BuildingBlock: EZIPEK_clean_linker_0, # of connection points: 2
#     Edge 121, Type (0, 0), BuildingBlock: EZIPEK_clean_linker_0, # of connection points: 2
#     Edge 122, Type (0, 0), BuildingBlock: EZIPEK_clean_linker_0, # of connection points: 2
#     Edge 123, Type (0, 0), BuildingBlock: EZIPEK_clean_linker_0, # of connection points: 2
#     Edge 124, Type (0, 0), BuildingBlock: EZIPEK_clean_linker_0, # of connection points: 2
#     Edge 125, Type (0, 0), BuildingBlock: EZIPEK_clean_linker_0, # of connection points: 2
#     Edge 126, Type (0, 0), BuildingBlock: EZIPEK_clean_linker_0, # of connection points: 2
#     Edge 127, Type (0, 0), BuildingBlock: EZIPEK_clean_linker_0, # of connection points: 2
# Relax obj value: 0.456
# Max RMSD: 0.192
# Mean RMSD: 0.192
data_MOF--net-wir--node1-KUMJIN_clean_sbu_1--edge1-EZIPEK_clean_linker_0
_symmetry_space_group_name_H-M    P1
_symmetry_Int_Tables_number       1
_symmetry_cell_setting            triclinic
loop_
_symmetry_equiv_pos_as_xyz
'x, y, z'
_cell_length_a     32.598217
_cell_length_b     32.707811
_cell_length_c     77.579599
_cell_angle_alpha  90.147601
_cell_angle_beta   90.543957
_cell_angle_gamma 90.015833
loop_
_atom_site_label
_atom_site_type_symbol
_atom_site_fract_x
_atom_site_fract_y
_atom_site_fract_z
_atom_type_partial_charge
Eu0 Eu 0.20944 0.17084 0.37631 0.0
C1 C 0.33446 0.2894 0.3785 0.0
N2 N 0.32014 0.25189 0.3835 0.0
C3 C 0.3868 0.22285 0.37883 0.0
C4 C 0.37564 0.29476 0.37361 0.0
C5 C 0.34578 0.21883 0.38363 0.0
C6 C 0.40191 0.26098 0.37398 0.0
C7 C 0.31977 0.36 0.37063 0.0
C8 C 0.30668 0.3218 0.37683 0.0
C9 C 0.36128 0.36587 0.36673 0.0
C10 C 0.38906 0.33334 0.36809 0.0
Eu11 Eu 0.25217 0.25338 0.3947 0.0
N12 N 0.26625 0.31482 0.38015 0.0
C13 C 0.29059 0.39093 0.36824 0.0
C14 C 0.23752 0.34445 0.37749 0.0
C15 C 0.24926 0.38299 0.37152 0.0
H16 H 0.33535 0.1891 0.3875 0.0
H17 H 0.22651 0.40671 0.36968 0.0
H18 H 0.15113 0.19631 0.34231 0.0
H19 H 0.21753 1.01492 0.40444 0.0
H20 H 0.20581 0.33884 0.38055 0.0
H21 H 0.2996 0.42087 0.36369 0.0
H22 H 0.2462 0.0781 0.3939 0.0
H23 H 0.40687 0.19649 0.37901 0.0
H24 H 0.37206 0.39522 0.36228 0.0
H25 H 0.42074 0.33814 0.3645 0.0
H26 H 0.08505 0.17667 0.32911 0.0
H27 H 0.43374 0.26386 0.37026 0.0
H28 H 0.14568 0.99673 0.39768 0.0
N29 N 0.1517 0.14734 0.36033 0.0
C30 C 0.13207 0.11368 0.36608 0.0
C31 C 0.09798 0.15854 0.33946 0.0
C32 C 0.09405 0.10134 0.35896 0.0
C33 C 0.13574 0.1693 0.34688 0.0
C34 C 0.07672 0.1247 0.34569 0.0
N35 N 0.18963 0.10166 0.38353 0.0
C36 C 0.21377 0.0738 0.39213 0.0
C37 C 0.13439 0.05228 0.38327 0.0
C38 C 0.15168 0.08997 0.37819 0.0
C39 C 0.15766 1.02602 0.39361 0.0
C40 C 0.19806 1.03629 0.39755 0.0
H41 H 0.04746 0.1164 0.33995 0.0
H42 H 0.04576 0.05581 0.35978 0.0
H43 H 0.08146 1.01245 0.38101 0.0
O44 O 0.27466 0.17136 0.37052 0.0
O45 O 0.17304 0.18662 0.39939 0.0
O46 O 0.22497 0.21283 0.41423 0.0
O47 O 0.22988 0.14281 0.35275 0.0
O48 O 0.25545 0.14305 0.40126 0.0
O49 O 0.28989 0.19793 0.41119 0.0
O50 O 0.234 0.30286 0.41134 0.0
O51 O 0.26763 0.25699 0.36471 0.0
O52 O 0.21766 0.22006 0.3527 0.0
O53 O 0.29587 0.2793 0.41334 0.0
O54 O 0.17498 0.27167 0.39069 0.0
O55 O 0.1487 0.21701 0.37659 0.0
C56 C 0.18667 0.20353 0.41336 0.0
C57 C 0.29306 0.10983 0.3559 0.0
C58 C 0.35466 0.07298 0.34735 0.0
C59 C 0.33724 1.03693 0.35418 0.0
C60 C 0.27422 0.07224 0.35943 0.0
C61 C 0.29682 1.03643 0.35961 0.0
C62 C 0.33341 0.11017 0.34974 0.0
C63 C 0.2865 0.15613 0.41249 0.0
C64 C 0.26877 0.14758 0.35691 0.0
C65 C 0.07521 0.06553 0.36493 0.0
C66 C 0.09543 0.04095 0.37706 0.0
C67 C 0.24822 0.24729 0.35028 0.0
C68 C 0.287 0.35074 0.41605 0.0
C69 C 0.26775 0.418 0.42427 0.0
C70 C 0.30896 0.42931 0.4266 0.0
C71 C 0.32869 0.36056 0.41843 0.0
C72 C 0.25831 0.382 0.41574 0.0
C73 C 0.33974 0.4009 0.42264 0.0
C74 C 0.13948 0.25427 0.38355 0.0
C75 C 0.27116 0.30886 0.41721 0.0
H76 H 0.35309 1.00799 0.35374 0.0
H77 H 0.24176 0.07028 0.36165 0.0
H78 H 0.28232 1.00784 0.36305 0.0
H79 H 0.34675 0.13875 0.34565 0.0
H80 H 0.31701 0.45755 0.43304 0.0
H81 H 0.35208 0.3371 0.41793 0.0
H82 H 0.22608 0.37478 0.41364 0.0
H83 H 0.37164 0.40866 0.42481 0.0
Eu84 Eu 0.16119 0.96709 0.62996 0.0
C85 C 0.04397 0.07605 0.62899 0.0
N86 N 0.08117 0.0607 0.63428 0.0
C87 C 0.11361 0.12409 0.62685 0.0
C88 C 1.04076 0.1159 0.62217 0.0
C89 C 0.11547 0.08455 0.63358 0.0
C90 C 0.07618 0.13985 0.62113 0.0
C91 C 0.97087 0.06547 0.62334 0.0
C92 C 1.0089 0.05126 0.62968 0.0
C93 C 0.96772 0.1055 0.61702 0.0
C94 C 1.00249 0.13059 0.61644 0.0
Eu95 Eu 0.07634 0.99599 0.64809 0.0
N96 N 1.01296 1.0119 0.63518 0.0
C97 C 0.93733 1.03863 0.6231 0.0
C98 C 0.98074 0.98532 0.63471 0.0
C99 C 0.94237 0.99833 0.6287 0.0
H100 H 0.14449 0.0738 0.6383 0.0
H101 H 0.91665 0.97739 0.6285 0.0
H102 H 0.10251 0.92818 0.59735 0.0
H103 H 0.30937 0.91605 0.65456 0.0
H104 H 0.98461 0.95442 0.63936 0.0
H105 H 0.90757 0.04851 0.61837 0.0
H106 H 0.24861 0.96081 0.65243 0.0
H107 H 0.14109 0.14259 0.62625 0.0
H108 H 0.93864 0.1171 0.61224 0.0
H109 H 0.99957 0.16123 0.61129 0.0
H110 H 0.10397 0.87058 0.57698 0.0
H111 H 0.07495 0.17057 0.61596 0.0
H112 H 0.31418 0.85458 0.63601 0.0
N113 N 0.15848 0.91193 0.60995 0.0
C114 C 0.19059 0.8854 0.61049 0.0
C115 C 0.12853 0.8744 0.58633 0.0
C116 C 0.19228 0.85159 0.59921 0.0
C117 C 0.12808 0.90742 0.59779 0.0
C118 C 0.16062 0.84621 0.58711 0.0
N119 N 0.21972 0.92539 0.63281 0.0
C120 C 0.25042 0.93405 0.64434 0.0
C121 C 0.2558 0.86548 0.62326 0.0
C122 C 0.22188 0.89214 0.62238 0.0
C123 C 0.28753 0.87423 0.635 0.0
C124 C 0.28497 0.90891 0.64548 0.0
H125 H 0.16081 0.82059 0.57823 0.0
H126 H 0.22731 0.79819 0.59176 0.0
H127 H 0.28298 0.81042 0.61279 0.0
O128 O 0.16709 1.02544 0.61744 0.0
O129 O 0.16782 0.96264 0.65812 0.0
O130 O 0.10315 0.94383 0.66287 0.0
O131 O 0.21818 0.98197 0.61709 0.0
O132 O 0.18944 1.01175 0.65446 0.0
O133 O 0.13071 1.03738 0.66493 0.0
O134 O 1.0348 0.97811 0.66809 0.0
O135 O 0.05764 0.99442 0.61788 0.0
O136 O 0.12033 0.99881 0.60719 0.0
O137 O 0.05094 0.0415 0.66599 0.0
O138 O 0.0611 0.92086 0.64251 0.0
O139 O 0.12228 0.90027 0.63228 0.0
C140 C 0.14077 0.9461 0.66792 0.0
C141 C 0.20933 1.02531 0.59346 0.0
C142 C 0.24049 0.06659 0.57147 0.0
C143 C 0.2252 0.03971 0.55878 0.0
C144 C 0.19427 0.99831 0.58085 0.0
C145 C 0.20205 1.00568 0.56353 0.0
C146 C 0.23117 0.06008 0.58876 0.0
C147 C 0.17308 0.0391 0.66616 0.0
C148 C 0.20369 1.01699 0.61161 0.0
C149 C 0.22558 0.82444 0.60027 0.0
C150 C 0.25727 0.83138 0.61225 0.0
C151 C 0.08016 1.00449 0.60425 0.0
C152 C 0.98256 1.02566 0.67348 0.0
C153 C 0.91752 0.99828 0.68177 0.0
C154 C 0.9027 1.03767 0.68519 0.0
C155 C 0.96849 0.06551 0.6767 0.0
C156 C 0.95485 0.99344 0.67372 0.0
C157 C 0.9277 0.07155 0.68176 0.0
C158 C 0.08364 0.88773 0.63684 0.0
C159 C 1.02625 1.01525 0.67274 0.0
H160 H 0.23223 0.04445 0.54531 0.0
H161 H 0.17725 0.97129 0.58439 0.0
H162 H 0.19128 0.98412 0.55394 0.0
H163 H 0.24291 0.08081 0.59857 0.0
H164 H 0.87379 0.04202 0.69158 0.0
H165 H 0.98918 0.09135 0.67606 0.0
H166 H 0.9652 0.96245 0.67117 0.0
H167 H 0.91683 0.10208 0.68458 0.0
Eu168 Eu 0.35999 0.90669 0.8782 0.0
C169 C 0.24842 0.78726 0.87896 0.0
N170 N 0.26298 0.82529 0.88334 0.0
C171 C 0.19767 0.85472 0.87588 0.0
C172 C 0.2088 0.78244 0.87173 0.0
C173 C 0.23723 0.85823 0.88281 0.0
C174 C 0.18357 0.81682 0.87012 0.0
C175 C 0.26116 0.71438 0.87481 0.0
C176 C 0.27385 0.75295 0.88102 0.0
C177 C 0.22165 0.70978 0.86773 0.0
C178 C 0.19549 0.74359 0.86632 0.0
Eu179 Eu 0.3275 0.82443 0.89789 0.0
N180 N 0.31268 0.75833 0.8874 0.0
C181 C 0.28914 0.68187 0.87527 0.0
C182 C 0.34043 0.72711 0.8875 0.0
C183 C 0.32903 0.68837 0.88146 0.0
H184 H 0.24643 0.88744 0.88786 0.0
H185 H 0.35097 0.66353 0.88158 0.0
H186 H 0.39982 0.84978 0.8458 0.0
H187 H 0.39224 0.06518 0.89457 0.0
H188 H 0.3712 0.73221 0.89239 0.0
H189 H 0.28054 0.65186 0.87051 0.0
H190 H 0.35693 0.999 0.89668 0.0
H191 H 0.17792 0.88127 0.87517 0.0
H192 H 0.21124 0.68028 0.86303 0.0
H193 H 0.16515 0.73948 0.86075 0.0
H194 H 0.45349 0.85527 0.82398 0.0
H195 H 0.15292 0.81432 0.86469 0.0
H196 H 0.45519 0.07145 0.87733 0.0
N197 N 0.41397 0.90686 0.85782 0.0
C198 C 0.43835 0.94048 0.85761 0.0
C199 C 0.44961 0.87947 0.83336 0.0
C200 C 0.47051 0.94416 0.84566 0.0
C201 C 0.41868 0.87679 0.84568 0.0
C202 C 0.4761 0.91298 0.83354 0.0
N203 N 0.39672 0.96883 0.87919 0.0
C204 C 0.38387 1.0013 0.88881 0.0
C205 C 0.45217 1.00909 0.86795 0.0
C206 C 0.42945 0.97243 0.86865 0.0
C207 C 0.43923 0.04243 0.87783 0.0
C208 C 0.40412 1.03883 0.88784 0.0
H209 H 0.50028 0.91481 0.82409 0.0
H210 H 0.52019 0.98262 0.83683 0.0
H211 H 0.50399 0.03964 0.85635 0.0
O212 O 0.29863 0.90492 0.86802 0.0
O213 O 0.36519 0.91229 0.90658 0.0
O214 O 0.38331 0.8477 0.91163 0.0
O215 O 0.33781 0.95803 0.86277 0.0
O216 O 0.31613 0.93905 0.902 0.0
O217 O 0.28906 0.88228 0.91331 0.0
O218 O 0.3227 0.77507 0.91653 0.0
O219 O 0.32577 0.8042 0.86785 0.0
O220 O 0.33155 0.86506 0.8553 0.0
O221 O 0.28304 0.82809 0.91845 0.0
O222 O 0.40459 0.80848 0.89563 0.0
O223 O 0.42595 0.86404 0.88079 0.0
C224 C 0.38317 0.88561 0.91635 0.0
C225 C 0.28487 0.94154 0.84266 0.0
C226 C 0.22681 0.9597 0.82396 0.0
C227 C 0.24723 0.93967 0.81021 0.0
C228 C 0.30575 0.92512 0.82857 0.0
C229 C 0.28637 0.92306 0.81253 0.0
C230 C 0.24564 0.9581 0.84039 0.0
C231 C 0.28828 0.92451 0.91391 0.0
C232 C 0.30216 0.94017 0.86012 0.0
C233 C 0.49498 0.9795 0.84573 0.0
C234 C 0.48578 1.01195 0.85685 0.0
C235 C 0.32159 0.82576 0.8534 0.0
C236 C 0.31023 0.80385 0.94383 0.0
C237 C 0.36129 0.78804 0.96461 0.0
C238 C 0.33552 0.79962 0.97811 0.0
C239 C 0.28227 0.8132 0.95695 0.0
C240 C 0.35136 0.79888 0.94792 0.0
C241 C 0.29602 0.81404 0.97416 0.0
C242 C 0.43831 0.82726 0.88806 0.0
C243 C 0.29733 0.79595 0.92615 0.0
H244 H 0.23476 0.93901 0.79726 0.0
H245 H 0.33652 0.91308 0.83 0.0
H246 H 0.30212 0.90934 0.80174 0.0
H247 H 0.23088 0.97103 0.85154 0.0
H248 H 0.34441 0.79371 0.99129 0.0
H249 H 0.25026 0.81884 0.95395 0.0
H250 H 0.37327 0.79216 0.93783 0.0
H251 H 0.27497 0.82145 0.9844 0.0
Eu252 Eu 0.41665 0.11506 0.12674 0.0
C253 C 0.5242 0.99969 0.13036 0.0
N254 N 0.48767 1.01955 0.13291 0.0
C255 C 0.45087 0.9608 0.12253 0.0
C256 C 0.52491 0.95927 0.12397 0.0
C257 C 0.45143 1.00075 0.12896 0.0
C258 C 0.48766 0.93984 0.12018 0.0
C259 C 0.59919 1.00121 0.12987 0.0
C260 C 0.56142 1.02041 0.13334 0.0
C261 C 0.5996 0.96043 0.12426 0.0
C262 C 0.56265 0.93958 0.1213 0.0
Eu263 Eu 0.49619 0.08308 0.14733 0.0
N264 N 0.56047 0.0605 0.13818 0.0
C265 C 0.63535 1.02432 0.13125 0.0
C266 C 0.59496 0.08395 0.13823 0.0
C267 C 0.63311 0.0661 0.13499 0.0
H268 H 0.42273 1.01587 0.13099 0.0
H269 H 0.66065 0.08457 0.13529 0.0
H270 H 0.47746 0.15273 0.0954 0.0
H271 H 0.26884 0.1713 0.14898 0.0
H272 H 0.59278 0.11625 0.14081 0.0
H273 H 0.66492 1.01068 0.1286 0.0
H274 H 0.32754 0.1239 0.14746 0.0
H275 H 0.42195 0.946 0.11956 0.0
H276 H 0.62835 0.9451 0.12163 0.0
H277 H 0.56361 0.9084 0.11656 0.0
H278 H 0.48065 0.21252 0.07629 0.0
H279 H 0.48699 0.9088 0.11527 0.0
H280 H 0.26986 0.23593 0.13252 0.0
N281 N 0.42423 0.1731 0.10859 0.0
C282 C 0.39403 0.20177 0.10934 0.0
C283 C 0.45624 0.20997 0.08559 0.0
C284 C 0.39483 0.23663 0.09869 0.0
C285 C 0.45418 0.17591 0.09639 0.0
C286 C 0.42675 0.24072 0.08689 0.0
N287 N 0.36089 0.16065 0.1299 0.0
C288 C 0.32836 0.15208 0.14027 0.0
C289 C 0.32914 0.22386 0.12121 0.0
C290 C 0.36164 0.19549 0.12045 0.0
C291 C 0.29563 0.21513 0.13173 0.0
C292 C 0.29493 0.1787 0.14105 0.0
H293 H 0.42842 0.26705 0.07848 0.0
H294 H 0.36352 0.29283 0.09186 0.0
H295 H 0.30596 0.28162 0.11158 0.0
O296 O 0.35843 0.10626 0.1137 0.0
O297 O 0.40454 0.11393 0.15431 0.0
O298 O 0.46677 0.13655 0.16034 0.0
O299 O 0.40942 0.06475 0.10859 0.0
O300 O 0.38528 0.06683 0.14967 0.0
O301 O 0.44174 0.03961 0.16158 0.0
O302 O 0.51962 0.10171 0.17221 0.0
O303 O 0.52156 0.08349 0.1179 0.0
O304 O 0.45999 0.08203 0.10549 0.0
O305 O 0.52128 1.0384 0.16566 0.0
O306 O 0.51783 0.15692 0.1424 0.0
O307 O 0.45836 0.18025 0.13084 0.0
C308 C 0.42935 0.13143 0.1649 0.0
C309 C 0.36374 0.07965 0.08601 0.0
C310 C 0.33306 0.04779 1.06115 0.0
C311 C 0.3329 0.08547 1.05255 0.0
C312 C 0.36389 0.11747 0.07745 0.0
C313 C 0.34932 0.1201 1.06055 0.0
C314 C 0.35086 0.04457 0.07746 0.0
C315 C 0.39973 1.03844 0.16166 0.0
C316 C 0.37234 0.07641 0.1043 0.0
C317 C 0.36328 0.26571 0.09985 0.0
C318 C 0.33051 0.25934 0.11108 0.0
C319 C 0.50034 0.07606 0.10331 0.0
C320 C 0.57511 0.06405 0.18181 0.0
C321 C 0.64232 0.09278 0.17726 0.0
C322 C 0.65934 0.05675 0.18476 0.0
C323 C 0.59162 1.02984 0.19005 0.0
C324 C 0.6002 0.09552 0.17632 0.0
C325 C 0.63403 1.02646 0.19167 0.0
C326 C 0.49704 0.19103 0.13646 0.0
C327 C 0.53265 0.06581 0.17666 0.0
H328 H 0.31898 0.08803 1.03996 0.0
H329 H 0.37401 0.14495 0.08391 0.0
H330 H 0.34906 0.14925 1.054 0.0
H331 H 0.35069 1.01543 0.08413 0.0
H332 H 0.69191 0.05173 0.18572 0.0
H333 H 0.57199 1.00546 0.19458 0.0
H334 H 0.58659 0.1221 0.17042 0.0
H335 H 0.64735 0.99996 0.1979 0.0
Eu336 Eu 0.21314 0.90499 0.25456 0.0
C337 C 0.33127 0.78311 0.24883 0.0
N338 N 0.31671 0.82161 0.24549 0.0
C339 C 0.3849 0.84869 0.24818 0.0
C340 C 0.3734 0.77625 0.2519 0.0
C341 C 0.3429 0.85421 0.24521 0.0
C342 C 0.40029 0.80956 0.25132 0.0
C343 C 0.31695 0.71172 0.2555 0.0
C344 C 0.30336 0.75081 0.25048 0.0
C345 C 0.3591 0.7046 0.25781 0.0
C346 C 0.38721 0.73671 0.25598 0.0
Eu347 Eu 0.24788 0.82207 0.23529 0.0
N348 N 0.26251 0.75869 0.24831 0.0
C349 C 0.28764 0.68118 0.25837 0.0
C350 C 0.23373 0.72941 0.25138 0.0
C351 C 0.2459 0.69021 0.25652 0.0
H352 H 0.332 0.8846 0.24257 0.0
H353 H 0.22314 0.66676 0.25875 0.0
H354 H 0.16126 0.84568 0.28309 0.0
H355 H 0.17361 0.05799 0.23231 0.0
H356 H 0.20159 0.73588 0.24927 0.0
H357 H 0.29689 0.65069 0.26224 0.0
H358 H 0.20985 0.99225 0.23262 0.0
H359 H 0.40546 0.87466 0.24791 0.0
H360 H 0.37022 0.67455 0.2614 0.0
H361 H 0.41954 0.73087 0.25822 0.0
H362 H 0.10983 0.85349 0.30575 0.0
H363 H 0.43286 0.80555 0.25365 0.0
H364 H 0.11878 0.07105 0.25346 0.0
N365 N 0.15874 0.90794 0.27511 0.0
C366 C 0.13806 0.94372 0.27652 0.0
C367 C 0.11782 0.87938 0.2978 0.0
C368 C 0.10655 0.9489 0.28871 0.0
C369 C 0.14804 0.87548 0.28524 0.0
C370 C 0.09716 0.91639 0.29964 0.0
N371 N 0.17748 0.96823 0.25371 0.0
C372 C 0.18663 0.99756 0.24192 0.0
C373 C 0.12534 1.01185 0.26564 0.0
C374 C 0.14738 0.97471 0.26529 0.0
C375 C 0.13503 0.04216 0.25367 0.0
C376 C 0.16589 1.03493 0.24173 0.0
H377 H 0.07328 0.91918 0.3092 0.0
H378 H 0.06064 0.99051 0.29863 0.0
H379 H 0.077 0.04569 0.2783 0.0
O380 O 0.27614 0.89833 0.26329 0.0
O381 O 0.20552 0.91011 0.22656 0.0
O382 O 0.19408 0.84417 0.22008 0.0
O383 O 0.24191 0.95538 0.26815 0.0
O384 O 0.25596 0.93552 0.23001 0.0
O385 O 0.28417 0.8788 0.21886 0.0
O386 O 0.23474 0.77241 0.21781 0.0
O387 O 0.26315 0.81004 0.26554 0.0
O388 O 0.23162 0.86143 0.27885 0.0
O389 O 0.28989 0.80769 0.21414 0.0
O390 O 0.17217 0.80531 0.23987 0.0
O391 O 0.14792 0.86477 0.25048 0.0
C392 C 0.19101 0.88234 0.21631 0.0
C393 C 0.29368 0.93783 0.28802 0.0
C394 C 0.34195 0.97253 0.307 0.0
C395 C 0.32242 0.9547 0.32125 0.0
C396 C 0.27231 0.92354 0.30245 0.0
C397 C 0.28796 0.93011 0.31895 0.0
C398 C 0.32963 0.96077 0.29036 0.0
C399 C 0.28393 0.92091 0.21808 0.0
C400 C 0.27606 0.9347 0.27066 0.0
C401 C 0.08495 0.986 0.28938 0.0
C402 C 0.09422 1.01739 0.27781 0.0
C403 C 0.25458 0.8276 0.28059 0.0
C404 C 0.29433 0.73569 0.21078 0.0
C405 C 0.28354 0.66632 0.20309 0.0
C406 C 0.32455 0.66211 0.198 0.0
C407 C 0.33544 0.73337 0.20554 0.0
C408 C 0.27262 0.69956 0.21307 0.0
C409 C 0.35137 0.69541 0.2003 0.0
C410 C 0.13742 0.82607 0.24521 0.0
C411 C 0.27061 0.77395 0.21065 0.0
H412 H 0.33227 0.96153 0.33424 0.0
H413 H 0.24288 0.90878 0.30122 0.0
H414 H 0.27192 0.91827 0.33003 0.0
H415 H 0.34561 0.97271 0.27925 0.0
H416 H 0.33413 0.63592 0.19049 0.0
H417 H 0.35406 0.76067 0.20454 0.0
H418 H 0.24115 0.70081 0.21751 0.0
H419 H 0.38268 0.69336 0.19588 0.0
Eu420 Eu 0.42574 0.96063 0.50213 0.0
C421 C 0.55142 0.08205 0.50012 0.0
N422 N 0.51213 0.06839 0.49754 0.0
C423 C 0.48622 0.1357 0.50327 0.0
C424 C 0.55916 0.12283 0.50508 0.0
C425 C 0.47976 0.09473 0.49886 0.0
C426 C 0.52602 0.14983 0.50639 0.0
C427 C 0.62404 0.06614 0.50348 0.0
C428 C 0.58383 0.05414 0.499 0.0
C429 C 0.63178 0.10693 0.50819 0.0
C430 C 0.59953 0.13522 0.50886 0.0
Eu431 Eu 0.5073 1.00143 0.48583 0.0
N432 N 0.57558 1.01475 0.49426 0.0
C433 C 0.65514 1.03656 0.50338 0.0
C434 C 0.60547 0.98562 0.49442 0.0
C435 C 0.64574 0.9961 0.49899 0.0
H436 H 0.44876 0.08464 0.49659 0.0
H437 H 0.66957 0.97306 0.499 0.0
H438 H 0.47758 0.91167 0.5349 0.0
H439 H 0.2758 0.92076 0.47422 0.0
H440 H 0.59832 0.95462 0.49066 0.0
H441 H 0.68641 0.04455 0.50686 0.0
H442 H 0.33694 0.96205 0.47876 0.0
H443 H 0.46041 0.15633 0.50436 0.0
H444 H 0.66257 0.11682 0.51153 0.0
H445 H 0.60602 0.16648 0.51265 0.0
H446 H 0.469 0.85371 0.55413 0.0
H447 H 0.53076 0.18149 0.51004 0.0
H448 H 0.26506 0.85831 0.4914 0.0
N449 N 0.42059 0.90359 0.52155 0.0
C450 C 0.38676 0.87958 0.51997 0.0
C451 C 0.44539 0.86077 0.54469 0.0
C452 C 0.38133 0.84484 0.53055 0.0
C453 C 0.44955 0.89468 0.53395 0.0
C454 C 0.41119 0.83564 0.54296 0.0
N455 N 0.36336 0.92345 0.49795 0.0
C456 C 0.334 0.93485 0.48621 0.0
C457 C 0.32185 0.86532 0.50578 0.0
C458 C 0.3575 0.88962 0.50774 0.0
C459 C 0.29254 0.87641 0.49342 0.0
C460 C 0.29853 0.91154 0.4837 0.0
H461 H 0.40816 0.8092 0.55125 0.0
H462 H 0.34177 0.79355 0.53641 0.0
H463 H 0.2894 0.81176 0.51482 0.0
O464 O 0.42915 1.02217 0.51239 0.0
O465 O 0.4342 0.95707 0.47321 0.0
O466 O 0.5003 0.94216 0.47347 0.0
O467 O 0.37435 0.98397 0.51663 0.0
O468 O 0.39439 1.00134 0.4772 0.0
O469 O 0.44798 0.04133 0.47192 0.0
O470 O 0.55524 1.01836 0.46806 0.0
O471 O 0.51918 1.01776 0.51535 0.0
O472 O 0.47038 0.97921 0.52723 0.0
O473 O 0.49151 1.02463 0.46026 0.0
O474 O 0.525 0.92338 0.49174 0.0
O475 O 0.46516 0.89614 0.50035 0.0
C476 C 0.46506 0.93811 0.46612 0.0
C477 C 0.36522 0.05563 0.51582 0.0
C478 C 0.33397 0.11649 0.52862 0.0
C479 C 0.30962 0.12048 0.51349 0.0
C480 C 0.33883 0.05879 0.50155 0.0
C481 C 0.31227 0.09194 0.50013 0.0
C482 C 0.3637 0.08498 0.52888 0.0
C483 C 0.40688 1.03554 0.46827 0.0
C484 C 0.39172 1.02001 0.51855 0.0
C485 C 0.34627 0.82038 0.52848 0.0
C486 C 0.3165 0.83072 0.51618 0.0
C487 C 0.50316 1.00429 0.52981 0.0
C488 C 0.5377 1.00279 0.43946 0.0
C489 C 0.58005 0.95328 0.42538 0.0
C490 C 0.56464 0.96508 0.40923 0.0
C491 C 0.52131 1.01493 0.42348 0.0
C492 C 0.56429 0.96981 0.44029 0.0
C493 C 0.53408 0.99518 0.40837 0.0
C494 C 0.50476 0.88699 0.49677 0.0
C495 C 0.52955 1.02501 0.45535 0.0
H496 H 0.2866 0.14397 0.51216 0.0
H497 H 0.33777 1.03535 0.49176 0.0
H498 H 0.29215 0.09445 0.489 0.0
H499 H 0.3838 0.08051 0.53986 0.0
H500 H 0.5771 0.95226 0.39751 0.0
H501 H 0.49958 0.03991 0.42268 0.0
H502 H 0.57667 0.9596 0.45261 0.0
H503 H 0.52189 1.00465 0.39598 0.0
Eu504 Eu 0.3697 0.17461 0.75905 0.0
C505 C 0.24821 0.2944 0.75345 0.0
N506 N 0.26257 0.25571 0.75048 0.0
C507 C 0.19599 0.22818 0.75649 0.0
C508 C 0.20698 0.30119 0.75791 0.0
C509 C 0.23707 0.2228 0.752 0.0
C510 C 0.18076 0.26749 0.75927 0.0
C511 C 0.26269 0.36695 0.75722 0.0
C512 C 0.2759 0.32708 0.75324 0.0
C513 C 0.22113 0.37396 0.7608 0.0
C514 C 0.19341 0.3412 0.76121 0.0
Eu515 Eu 0.32949 0.25414 0.73853 0.0
N516 N 0.31624 0.31926 0.75006 0.0
C517 C 0.29184 0.39843 0.75783 0.0
C518 C 0.34504 0.3494 0.75119 0.0
C519 C 0.33324 0.3895 0.7551 0.0
H520 H 0.24765 0.19229 0.7495 0.0
H521 H 0.35595 0.41362 0.75567 0.0
H522 H 0.44139 0.20036 0.78774 0.0
H523 H 0.31927 1.0154 0.75228 0.0
H524 H 0.37676 0.34288 0.7484 0.0
H525 H 0.28283 0.42955 0.76075 0.0
H526 H 0.31164 0.08974 0.75511 0.0
H527 H 0.17594 0.20194 0.75759 0.0
H528 H 0.21029 0.4045 0.76371 0.0
H529 H 0.16168 0.34703 0.76443 0.0
H530 H 0.50812 0.17524 0.79882 0.0
H531 H 0.14885 0.27144 0.76269 0.0
H532 H 0.38756 0.98358 0.75614 0.0
N533 N 0.42966 0.14752 0.77254 0.0
C534 C 0.44093 0.10871 0.76906 0.0
C535 C 0.48979 0.15626 0.79029 0.0
C536 C 0.47771 0.09209 0.7757 0.0
C537 C 0.45223 0.17055 0.78386 0.0
C538 C 0.5031 0.11706 0.78586 0.0
N539 N 0.37577 0.10153 0.75738 0.0
C540 C 0.34214 0.07692 0.75533 0.0
C541 C 0.4181 0.04147 0.7608 0.0
C542 C 0.41229 0.08424 0.76134 0.0
C543 C 0.38459 1.01656 0.75659 0.0
C544 C 0.3461 1.03439 0.75434 0.0
H545 H 0.53171 0.10559 0.79117 0.0
H546 H 0.51457 1.03713 0.77786 0.0
H547 H 0.46165 0.99234 0.765 0.0
O548 O 0.30534 0.16841 0.76678 0.0
O549 O 0.4068 0.189 0.73589 0.0
O550 O 0.35304 0.20703 0.72013 0.0
O551 O 0.35603 0.16998 0.78567 0.0
O552 O 0.32055 0.14342 0.73546 0.0
O553 O 0.28946 0.19825 0.72384 0.0
O554 O 0.34621 0.2983 0.7191 0.0
O555 O 0.31414 0.26385 0.76893 0.0
O556 O 0.35912 0.22356 0.78243 0.0
O557 O 0.28426 0.27455 0.71946 0.0
O558 O 0.40642 0.27301 0.74143 0.0
O559 O 0.43205 0.22007 0.75679 0.0
C560 C 0.38979 0.19268 0.72092 0.0
C561 C 0.30625 0.12093 0.79041 0.0
C562 C 0.25612 0.07241 0.8006 0.0
C563 C 0.28795 0.04507 0.80479 0.0
C564 C 0.33772 0.09334 0.79524 0.0
C565 C 0.32849 0.05548 0.80209 0.0
C566 C 0.26516 0.11043 0.79323 0.0
C567 C 0.28999 0.15639 0.72384 0.0
C568 C 0.31757 0.16031 0.78272 0.0
C569 C 0.4862 0.05042 0.77312 0.0
C570 C 0.45615 1.02495 0.76578 0.0
C571 C 0.32972 0.25223 0.78412 0.0
C572 C 0.29173 0.34427 0.713 0.0
C573 C 0.31237 0.4109 0.70451 0.0
C574 C 0.27234 0.42035 0.69904 0.0
C575 C 0.25111 0.35256 0.70785 0.0
C576 C 0.31939 0.37631 0.71426 0.0
C577 C 0.24099 0.39174 0.70177 0.0
C578 C 0.44156 0.25653 0.74907 0.0
C579 C 0.30838 0.30259 0.71364 0.0
H580 H 0.28151 1.01593 0.81062 0.0
H581 H 0.36982 0.10062 0.79359 0.0
H582 H 0.35282 1.0344 0.80552 0.0
H583 H 0.24073 0.13162 0.79001 0.0
H584 H 0.26627 0.44721 0.69134 0.0
H585 H 0.22829 0.3285 0.70745 0.0
H586 H 0.35086 0.37023 0.71821 0.0
H587 H 0.21011 0.3981 0.6973 0.0
Eu588 Eu 0.15113 0.10718 1.00788 0.0
C589 C 1.02112 0.99575 0.99861 0.0
N590 N 0.05792 1.00547 0.99129 0.0
C591 C 0.07053 0.93383 0.98618 0.0
C592 C 1.00848 0.9546 1.00031 0.0
C593 C 0.08228 0.97482 0.98497 0.0
C594 C 1.03374 0.92364 0.994 0.0
C595 C 0.95796 1.01777 1.01239 0.0
C596 C 0.99563 1.02699 1.00448 0.0
C597 C 0.94571 0.97691 1.0141 0.0
C598 C 0.97084 0.94545 1.00806 0.0
Eu599 Eu 0.06828 0.07739 0.98637 0.0
N600 N 1.00849 0.06656 1.00297 0.0
C601 C 0.93353 0.04994 1.0183 0.0
C602 C 0.9842 0.09801 1.00837 0.0
C603 C 0.94672 0.0902 1.0163 0.0
H604 H 0.11152 0.98063 0.97934 0.0
H605 H 0.92772 0.11528 1.02061 0.0
H606 H 0.11849 0.17234 1.03815 0.0
H607 H 0.31205 0.06105 0.99748 0.0
H608 H 0.99342 0.12911 1.00635 0.0
H609 H 0.90426 0.04403 1.02428 0.0
H610 H 0.23824 0.04967 0.99957 0.0
H611 H 0.09042 0.91 0.98134 0.0
H612 H 0.9168 0.96929 1.02008 0.0
H613 H 0.96084 0.91404 1.00944 0.0
H614 H 0.14446 0.23054 1.0551 0.0
H615 H 1.02507 0.89177 0.99508 0.0
H616 H 0.34271 0.12545 1.00829 0.0
N617 N 0.17669 0.15693 1.0277 0.0
C618 C 0.21687 0.16691 1.02693 0.0
C619 C 0.16532 0.21276 1.04731 0.0
C620 C 0.23307 0.20048 1.03621 0.0
C621 C 0.15084 0.17921 1.03783 0.0
C622 C 0.2066 0.2237 1.04639 0.0
N623 N 0.22497 0.10925 1.00958 0.0
C624 C 0.25017 0.07892 1.00359 0.0
C625 C 0.28465 0.14955 1.01707 0.0
C626 C 0.242 0.14219 1.01745 0.0
C627 C 0.3098 0.12108 1.00884 0.0
C628 C 0.29261 0.08478 1.00271 0.0
H629 H 0.21775 0.24983 1.05366 0.0
H630 H 0.28811 0.23533 1.04203 0.0
H631 H 0.33349 0.19045 1.02523 0.0
O632 O 0.12705 0.04582 1.00272 0.0
O633 O 0.13715 0.15013 0.98666 0.0
O634 O 0.11526 0.10332 0.96852 0.0
O635 O 0.15509 0.06072 1.02763 0.0
O636 O 0.18423 0.06871 0.98252 0.0
O637 O 0.12694 0.04328 0.96952 0.0
O638 O 1.02034 0.10383 0.97029 0.0
O639 O 0.05954 0.06319 1.01741 0.0
O640 O 0.10637 0.09964 1.03238 0.0
O641 O 1.03965 0.04143 0.96589 0.0
O642 O 0.0524 0.15292 0.99046 0.0
O643 O 0.10846 0.17295 1.00569 0.0
C644 C 0.13499 0.13721 0.97107 0.0
C645 C 0.16131 0.99208 1.01849 0.0
C646 C 0.22198 0.95358 1.02703 0.0
C647 C 0.20101 0.91675 1.0244 0.0
C648 C 0.13953 0.95513 1.01746 0.0
C649 C 0.15962 0.91765 1.01963 0.0
C650 C 0.20265 0.9908 1.02332 0.0
C651 C 0.16953 0.04235 0.96976 0.0
C652 C 0.13988 1.03181 1.01767 0.0
C653 C 0.27512 0.20943 1.03516 0.0
C654 C 0.3009 0.18401 1.02554 0.0
C655 C 0.0731 0.0752 1.03312 0.0
C656 C 0.96895 0.05337 0.96702 0.0
C657 C 0.89889 0.07225 0.96476 0.0
C658 C 0.88667 1.03112 0.9647 0.0
C659 C 0.95811 1.01171 0.96592 0.0
C660 C 0.93842 0.08198 0.97018 0.0
C661 C 0.91661 1.00057 0.96616 0.0
C662 C 0.07139 0.18546 0.99856 0.0
C663 C 1.01073 0.06813 0.96385 0.0
H664 H 0.21564 0.88783 1.02733 0.0
H665 H 0.10678 0.95504 1.01583 0.0
H666 H 0.14247 0.88939 1.01862 0.0
H667 H 0.219 1.01903 1.02592 0.0
H668 H 0.85588 1.0227 0.96107 0.0
H669 H 0.9812 0.98822 0.9644 0.0
H670 H 0.94666 0.11411 0.97118 0.0
H671 H 0.90794 0.9687 0.96525 0.0
Eu672 Eu 0.82411 0.81431 0.73767 0.0
C673 C 0.94618 0.94251 0.77194 0.0
N674 N 0.92445 0.90802 0.775 0.0
C675 C 0.97568 0.88715 0.79579 0.0
C676 C 0.98428 0.95006 0.78016 0.0
C677 C 0.93808 0.88112 0.78733 0.0
C678 C 0.99927 0.92141 0.79197 0.0
C679 C 0.94836 1.00955 0.75898 0.0
C680 C 0.92864 0.97167 0.76157 0.0
C681 C 0.98749 1.01627 0.76616 0.0
C682 C 1.00545 0.98652 0.77677 0.0
Eu683 Eu 0.86486 0.89623 0.75718 0.0
N684 N 0.89059 0.96428 0.75522 0.0
C685 C 0.92751 0.04 0.7498 0.0
C686 C 0.86896 0.99507 0.74745 0.0
C687 C 0.88724 1.03298 0.74433 0.0
H688 H 0.92156 0.85352 0.7901 0.0
H689 H 0.8701 0.05687 0.73786 0.0
H690 H 0.74446 0.88553 0.74503 0.0
H691 H 0.83633 0.65884 0.76327 0.0
H692 H 0.83719 0.99111 0.74395 0.0
H693 H 0.94157 0.06947 0.74749 0.0
H694 H 0.8636 0.72513 0.75285 0.0
H695 H 0.98666 0.865 0.80509 0.0
H696 H 1.00344 0.04488 0.76409 0.0
H697 H 1.03503 0.99257 0.78273 0.0
H698 H 0.67254 0.88231 0.75271 0.0
H699 H 1.02842 0.92599 0.79852 0.0
H700 H 0.76154 0.64968 0.76678 0.0
N701 N 0.75607 0.82168 0.74884 0.0
C702 C 0.7388 0.78486 0.75334 0.0
C703 C 0.69081 0.85468 0.75287 0.0
C704 C 0.69673 0.78201 0.75735 0.0
C705 C 0.73222 0.8562 0.74847 0.0
C706 C 0.67289 0.81748 0.75713 0.0
N707 N 0.8048 0.7532 0.75175 0.0
C708 C 0.83114 0.72164 0.75521 0.0
C709 C 0.7468 0.71214 0.75982 0.0
C710 C 0.7636 0.74984 0.75486 0.0
C711 C 0.77335 0.67901 0.76266 0.0
C712 C 0.8157 0.68411 0.76079 0.0
H713 H 0.64061 0.81651 0.76032 0.0
H714 H 0.64721 0.74118 0.76428 0.0
H715 H 0.69062 0.68005 0.76573 0.0
O716 O 0.80411 0.75751 0.72629 0.0
O717 O 0.81459 0.80246 0.768 0.0
O718 O 0.85355 0.84978 0.78123 0.0
O719 O 0.80309 0.81 0.71051 0.0
O720 O 0.90163 0.79551 0.74192 0.0
O721 O 0.92799 0.85234 0.75493 0.0
O722 O 0.80298 0.882 0.76462 0.0
O723 O 0.87037 0.89831 0.72905 0.0
O724 O 0.88242 0.83187 0.72461 0.0
O725 O 0.83182 0.93948 0.77314 0.0
O726 O 0.82377 0.92747 0.73165 0.0
O727 O 0.78858 0.87293 0.72184 0.0
C728 C 0.82905 0.81685 0.78288 0.0
C729 C 0.81994 0.74564 0.69926 0.0
C730 C 0.88553 0.71232 0.70022 0.0
C731 C 0.86721 0.67656 0.69323 0.0
C732 C 0.80152 0.71085 0.69203 0.0
C733 C 0.82552 0.67641 0.68873 0.0
C734 C 0.86189 0.74664 0.70217 0.0
C735 C 0.93715 0.81409 0.74884 0.0
C736 C 0.79757 0.77074 0.71104 0.0
C737 C 0.6796 0.74391 0.76149 0.0
C738 C 0.70436 0.70902 0.76235 0.0
C739 C 0.88639 0.86954 0.71993 0.0
C740 C 0.77347 0.9176 0.78856 0.0
C741 C 0.7345 0.96654 0.80453 0.0
C742 C 0.74033 0.94421 0.81978 0.0
C743 C 0.78435 0.89828 0.80409 0.0
C744 C 0.74421 0.94853 0.78877 0.0
C745 C 0.76447 0.90888 0.81937 0.0
C746 C 0.79287 0.91473 0.72029 0.0
C747 C 0.79891 0.91631 0.77315 0.0
H748 H 0.88498 0.64931 0.69072 0.0
H749 H 0.76854 0.70917 0.69035 0.0
H750 H 0.81154 0.64918 0.68333 0.0
H751 H 0.87564 0.77291 0.70814 0.0
H752 H 0.73212 0.95726 0.83212 0.0
H753 H 0.80998 0.87779 0.80483 0.0
H754 H 0.73868 0.96586 0.77703 0.0
H755 H 0.7724 0.89342 0.83125 0.0
Eu756 Eu 1.01333 0.07362 0.4895 0.0
C757 C 0.8974 0.19959 0.52135 0.0
N758 N 0.92711 0.17114 0.52405 0.0
C759 C 0.94855 0.20649 0.5498 0.0
C760 C 0.89321 0.2336 0.53242 0.0
C761 C 0.95206 0.17375 0.53828 0.0
C762 C 0.91949 0.23693 0.5467 0.0
C763 C 0.83781 0.22177 0.50499 0.0
C764 C 0.87006 0.19376 0.50789 0.0
C765 C 0.83459 0.2566 0.51548 0.0
C766 C 0.86223 0.2625 0.52919 0.0
Eu767 Eu 0.92908 0.11511 0.50443 0.0
N768 N 0.87366 0.15953 0.49816 0.0
C769 C 0.80896 0.21321 0.49202 0.0
C770 C 0.84549 0.15101 0.48558 0.0
C771 C 0.81244 0.17723 0.48249 0.0
H772 H 0.97559 0.1514 0.54062 0.0
H773 H 0.78983 0.16987 0.47268 0.0
H774 H 0.93549 1.00172 0.49816 0.0
H775 H 0.16935 0.08164 0.51598 0.0
H776 H 0.84807 0.12372 0.47813 0.0
H777 H 0.78352 0.23371 0.48949 0.0
H778 H 0.10748 0.10878 0.50153 0.0
H779 H 0.9688 0.20856 0.56091 0.0
H780 H 0.81023 0.27862 0.51337 0.0
H781 H 0.85879 0.289 0.53746 0.0
H782 H 0.92945 0.93776 0.51358 0.0
H783 H 0.91712 0.26247 0.55556 0.0
H784 H 0.16724 1.01402 0.52974 0.0
N785 N 0.99771 1.01321 0.50568 0.0
C786 C 1.03132 0.99746 0.51435 0.0
C787 C 0.9582 0.95434 0.51394 0.0
C788 C 1.02857 0.96008 0.5234 0.0
C789 C 0.96198 0.99124 0.50509 0.0
C790 C 0.99145 0.93877 0.52316 0.0
N791 N 0.07169 0.05554 0.50619 0.0
C792 C 0.1067 0.0786 0.50707 0.0
C793 C 0.10327 1.00321 0.52359 0.0
C794 C 0.069 1.01875 0.51456 0.0
C795 C 0.13992 1.02561 0.52354 0.0
C796 C 0.14144 0.0637 0.51555 0.0
H797 H 0.98822 0.91009 0.52997 0.0
H798 H 0.06095 0.9162 0.5394 0.0
H799 H 0.12602 0.95375 0.53949 0.0
O800 O 0.06262 1.03259 0.48141 0.0
O801 O 1.02915 0.08679 0.5192 0.0
O802 O 0.96569 0.08336 0.52865 0.0
O803 O 1.03095 0.06569 0.46247 0.0
O804 O 1.03196 0.15136 0.49207 0.0
O805 O 0.97386 0.1781 0.50349 0.0
O806 O 0.91957 0.05781 0.51703 0.0
O807 O 0.93262 0.11643 0.47579 0.0
O808 O 0.99967 0.12927 0.47435 0.0
O809 O 0.86972 0.10279 0.51603 0.0
O810 O 0.90031 0.07057 0.48002 0.0
O811 O 0.95658 1.0348 0.47306 0.0
C812 C 1.00552 0.07805 0.53256 0.0
C813 C 0.10113 0.05924 0.46032 0.0
C814 C 0.14032 0.12054 0.45866 0.0
C815 C 0.16826 0.10079 0.44765 0.0
C816 C 0.12778 1.0389 0.44921 0.0
C817 C 0.16246 0.05955 0.44333 0.0
C818 C 0.11006 0.09817 0.4663 0.0
C819 C 1.01261 0.18727 0.49789 0.0
C820 C 0.0624 0.04286 0.46563 0.0
C821 C 0.06285 0.94477 0.53241 0.0
C822 C 0.10001 0.96611 0.53244 0.0
C823 C 0.96365 0.13078 0.46743 0.0
C824 C 0.87339 0.05761 0.5396 0.0
C825 C 0.84173 1.01192 0.55989 0.0
C826 C 0.85581 1.03669 0.57356 0.0
C827 C 0.8872 0.08257 0.5532 0.0
C828 C 0.85203 1.02167 0.54299 0.0
C829 C 0.87885 0.07173 0.57019 0.0
C830 C 0.91481 1.03862 0.47004 0.0
C831 C 0.88233 0.06721 0.52179 0.0
H832 H 0.19191 0.1181 0.44123 0.0
H833 H 0.12135 1.00805 0.44486 0.0
H834 H 0.18292 0.04458 0.43445 0.0
H835 H 0.08844 0.11384 0.4745 0.0
H836 H 0.84851 1.02916 0.58677 0.0
H837 H 0.90445 0.11009 0.55069 0.0
H838 H 0.84208 1.00202 0.53246 0.0
H839 H 0.88971 0.09077 0.58072 0.0
Eu840 Eu 0.75569 0.24799 0.23894 0.0
C841 C 0.6349 0.11763 0.26743 0.0
N842 N 0.65444 0.15131 0.27348 0.0
C843 C 0.59862 0.1643 0.29273 0.0
C844 C 0.59573 0.10648 0.27331 0.0
C845 C 0.63758 0.1739 0.28647 0.0
C846 C 0.57725 0.13084 0.2859 0.0
C847 C 0.64017 0.05366 0.25201 0.0
C848 C 0.65652 0.0919 0.25693 0.0
C849 C 0.5996 0.04397 0.25637 0.0
C850 C 0.57737 0.07038 0.26707 0.0
Eu851 Eu 0.71628 0.17042 0.25943 0.0
N852 N 0.69603 0.10166 0.25392 0.0
C853 C 0.66623 1.0252 0.24422 0.0
C854 C 0.72258 0.07187 0.24896 0.0
C855 C 0.70812 1.03376 0.24335 0.0
H856 H 0.65344 0.20043 0.29144 0.0
H857 H 0.7294 1.01066 0.23895 0.0
H858 H 0.84156 0.1904 0.24846 0.0
H859 H 0.72204 0.40159 0.2626 0.0
H860 H 0.75492 0.07669 0.25045 0.0
H861 H 0.65504 0.9954 0.24026 0.0
H862 H 0.70467 0.33092 0.25385 0.0
H863 H 0.58497 0.18293 0.30269 0.0
H864 H 0.58612 1.01509 0.25244 0.0
H865 H 0.54692 0.06162 0.27115 0.0
H866 H 0.91483 0.20401 0.25373 0.0
H867 H 0.54716 0.12336 0.29079 0.0
H868 H 0.79474 0.42256 0.26542 0.0
N869 N 0.82437 0.25314 0.24918 0.0
C870 C 0.83689 0.29231 0.25245 0.0
C871 C 0.89326 0.22913 0.25319 0.0
C872 C 0.87845 0.30136 0.25574 0.0
C873 C 0.85165 0.22153 0.25001 0.0
C874 C 0.90686 0.26925 0.25573 0.0
N875 N 0.76677 0.31202 0.25225 0.0
C876 C 0.73638 0.33942 0.25555 0.0
C877 C 0.81836 0.3626 0.25901 0.0
C878 C 0.80705 0.32259 0.25421 0.0
C879 C 0.78731 0.39138 0.26181 0.0
C880 C 0.74619 0.37957 0.26034 0.0
H881 H 0.9391 0.27491 0.25828 0.0
H882 H 0.92194 0.34944 0.26193 0.0
H883 H 0.86944 0.40308 0.26463 0.0
O884 O 0.73458 0.2919 0.22026 0.0
O885 O 0.77846 0.25152 0.26845 0.0
O886 O 0.72411 0.22528 0.2804 0.0
O887 O 0.798 0.27215 0.21979 0.0
O888 O 0.67864 0.26551 0.24167 0.0
O889 O 0.65347 0.21276 0.25661 0.0
O890 O 0.77877 0.16042 0.26949 0.0
O891 O 0.68441 0.16823 0.23377 0.0
O892 O 0.73417 0.20234 0.21986 0.0
O893 O 0.72444 0.14546 0.28476 0.0
O894 O 0.76928 0.13954 0.23753 0.0
O895 O 0.79488 0.19339 0.22353 0.0
C896 C 0.75824 0.24743 0.28304 0.0
C897 C 0.7849 0.34128 0.21394 0.0
C898 C 0.75598 0.40424 0.2052 0.0
C899 C 0.79327 0.41677 0.19808 0.0
C900 C 0.82288 0.35228 0.20688 0.0
C901 C 0.82769 0.39141 0.19984 0.0
C902 C 0.75485 0.37087 0.21594 0.0
C903 C 0.64346 0.24842 0.24871 0.0
C904 C 0.77145 0.29873 0.21447 0.0
C905 C 0.89003 0.34176 0.25961 0.0
C906 C 0.86008 0.3723 0.2612 0.0
C907 C 0.70111 0.18071 0.21965 0.0
C908 C 0.78051 0.10223 0.28823 0.0
C909 C 0.83299 0.06093 0.30201 0.0
C910 C 0.8078 1.0263 0.30014 0.0
C911 C 0.75477 0.06757 0.28753 0.0
C912 C 0.81987 0.09877 0.29553 0.0
C913 C 0.76888 1.02965 0.29291 0.0
C914 C 0.79689 0.15182 0.22475 0.0
C915 C 0.76426 0.14249 0.28339 0.0
H916 H 0.7948 0.44366 0.19003 0.0
H917 H 0.84732 0.33007 0.20569 0.0
H918 H 0.85643 0.39999 0.194 0.0
H919 H 0.72547 0.36305 0.22153 0.0
H920 H 0.81747 0.99696 0.30509 0.0
H921 H 0.72319 0.06976 0.2833 0.0
H922 H 0.83909 0.12561 0.29709 0.0
H923 H 0.749 1.00317 0.29214 0.0
Eu924 Eu 0.5749 1.00177 0.98562 0.0
C925 C 0.68941 0.88489 1.02277 0.0
N926 N 0.65701 0.91089 1.02371 0.0
C927 C 0.62894 0.87104 1.04681 0.0
C928 C 0.69257 0.85059 1.0337 0.0
C929 C 0.6269 0.90436 1.0356 0.0
C930 C 0.66193 0.84404 1.04587 0.0
C931 C 0.75279 0.8654 1.00888 0.0
C932 C 0.71905 0.89211 1.01056 0.0
C933 C 0.75596 0.83111 1.01965 0.0
C934 C 0.72594 0.82375 1.03205 0.0
Eu935 Eu 0.65664 0.96736 1.00419 0.0
N936 N 0.71505 0.9254 1.00033 0.0
C937 C 0.78244 0.87406 0.99649 0.0
C938 C 0.74387 0.93389 0.98822 0.0
C939 C 0.77811 0.90873 0.98621 0.0
H940 H 0.59986 0.92325 1.03579 0.0
H941 H 0.80088 0.91589 0.97661 0.0
H942 H 0.64094 0.07896 0.99785 0.0
H943 H 0.41165 0.98673 0.99707 0.0
H944 H 0.74082 0.9603 0.98021 0.0
H945 H 0.80881 0.85434 0.9948 0.0
H946 H 0.48211 0.96041 0.99394 0.0
H947 H 0.60468 0.86585 1.05598 0.0
H948 H 0.78156 0.81019 1.01852 0.0
H949 H 0.72877 0.79718 1.04029 0.0
H950 H 0.63468 0.15259 1.00336 0.0
H951 H 0.66323 0.81802 1.05448 0.0
H952 H 0.39964 0.06137 1.00011 0.0
N953 N 0.57654 0.06848 0.99693 0.0
C954 C 0.53838 0.08592 0.99677 0.0
C955 C 0.60738 0.13407 1.00177 0.0
C956 C 0.53353 0.12823 0.99963 0.0
C957 C 0.61082 0.09194 0.99906 0.0
C958 C 0.56866 0.15232 1.00197 0.0
N959 N 0.50899 1.01947 0.99436 0.0
C960 C 0.477 0.99282 0.99553 0.0
C961 C 0.46409 0.07691 0.99815 0.0
C962 C 0.50362 0.06056 0.99594 0.0
C963 C 0.43061 0.04997 0.9986 0.0
C964 C 0.43719 1.00778 0.99727 0.0
H965 H 0.56622 0.18495 1.00417 0.0
H966 H 0.48967 0.17733 1.00298 0.0
H967 H 0.42913 0.1325 1.00178 0.0
O968 O 0.52433 1.00165 0.9675 0.0
O969 O 0.55644 1.0129 1.01546 0.0
O970 O 0.61453 0.99234 1.02833 0.0
O971 O 0.5772 0.04225 0.96313 0.0
O972 O 0.55752 0.92559 0.99016 0.0
O973 O 0.61679 0.9019 1.00143 0.0
O974 O 0.66082 1.0258 1.01712 0.0
O975 O 0.65731 0.9643 0.97573 0.0
O976 O 0.59232 0.94613 0.9711 0.0
O977 O 0.71415 0.98455 1.01628 0.0
O978 O 0.68775 1.01191 0.9803 0.0
O979 O 0.63105 0.04148 0.97001 0.0
C980 C 0.57701 1.00927 1.03039 0.0
C981 C 0.5202 0.04648 0.94337 0.0
C982 C 0.46378 1.02101 0.92694 0.0
C983 C 0.44676 0.06047 0.92601 0.0
C984 C 0.50466 0.08636 0.94249 0.0
C985 C 0.46858 0.09363 0.93302 0.0
C986 C 0.50318 1.01598 0.93346 0.0
C987 C 0.5781 0.89103 0.99621 0.0
C988 C 0.54005 1.03186 0.95881 0.0
C989 C 0.49389 0.14485 1.00088 0.0
C990 C 0.45934 0.11929 1.00022 0.0
C991 C 0.62998 0.94584 0.9664 0.0
C992 C 0.70841 1.028 1.03993 0.0
C993 C 0.7474 0.06782 1.06045 0.0
C994 C 0.73329 0.04282 0.07385 0.0
C995 C 0.69571 1.00188 1.05314 0.0
C996 C 0.73359 0.06135 1.04361 0.0
C997 C 0.70723 1.01 0.07017 0.0
C998 C 0.67316 0.04115 0.96888 0.0
C999 C 0.6989 1.01898 1.02206 0.0
H1000 H 0.41555 0.06499 0.9217 0.0
H1001 H 0.51775 0.11051 0.95039 0.0
H1002 H 0.45519 0.12391 0.93288 0.0
H1003 H 0.51603 0.98539 0.93463 0.0
H1004 H 0.74366 0.04783 0.08699 0.0
H1005 H 0.67793 0.97482 1.05019 0.0
H1006 H 0.7446 0.08066 1.03328 0.0
H1007 H 0.69718 0.99005 0.08041 0.0
Eu1008 Eu 0.83293 0.25617 0.89619 0.0
C1009 C 0.94973 0.15069 0.85933 0.0
N1010 N 0.92241 0.1822 0.85888 0.0
C1011 C 0.96269 0.21612 0.83743 0.0
C1012 C 0.9855 0.1516 0.84926 0.0
C1013 C 0.92755 0.21386 0.84755 0.0
C1014 C 0.99201 0.1851 0.83842 0.0
C1015 C 0.96823 0.08313 0.8698 0.0
C1016 C 0.94129 0.11683 0.86954 0.0
C1017 C 1.00453 0.08458 0.86023 0.0
C1018 C 1.01315 0.11871 0.85 0.0
Eu1019 Eu 0.86382 0.17397 0.87662 0.0
N1020 N 0.90562 0.1158 0.87844 0.0
C1021 C 0.95723 0.04844 0.87925 0.0
C1022 C 0.8945 0.08206 0.88756 0.0
C1023 C 0.91988 0.04767 0.88791 0.0
H1024 H 0.90539 0.23825 0.84688 0.0
H1025 H 0.91081 1.02075 0.89502 0.0
H1026 H 0.7573 0.185 0.88554 0.0
H1027 H 0.85124 0.4118 0.87258 0.0
H1028 H 0.86562 0.08146 0.89424 0.0
H1029 H 0.97697 1.02181 0.87966 0.0
H1030 H 0.87311 0.34765 0.88694 0.0
H1031 H 0.96716 0.24183 0.82889 0.0
H1032 H 1.02573 0.05907 0.86036 0.0
H1033 H 1.04091 0.119 0.84243 0.0
H1034 H 0.6887 0.18571 0.87284 0.0
H1035 H 1.01916 0.18691 0.83051 0.0
H1036 H 0.78146 0.41772 0.86073 0.0
N1037 N 0.76925 0.24804 0.88112 0.0
C1038 C 0.75393 0.28377 0.87443 0.0
C1039 C 0.70669 0.21351 0.87324 0.0
C1040 C 0.71467 0.28506 0.8666 0.0
C1041 C 0.74597 0.21333 0.88061 0.0
C1042 C 0.69095 0.24946 0.86623 0.0
N1043 N 0.81694 0.317 0.8815 0.0
C1044 C 0.843 0.34969 0.88105 0.0
C1045 C 0.76463 0.35519 0.86655 0.0
C1046 C 0.77833 0.31906 0.8746 0.0
C1047 C 0.79122 0.38887 0.86608 0.0
C1048 C 0.83072 0.38586 0.87303 0.0
H1049 H 0.66066 0.24927 0.86035 0.0
H1050 H 0.67024 0.32299 0.85319 0.0
H1051 H 0.71371 0.38422 0.85327 0.0
O1052 O 0.84778 0.29931 0.91642 0.0
O1053 O 0.84087 0.27477 0.86597 0.0
O1054 O 0.82697 0.21406 0.85586 0.0
O1055 O 0.78515 0.28101 0.91298 0.0
O1056 O 0.90711 0.27485 0.89316 0.0
O1057 O 0.92886 0.21574 0.88121 0.0
O1058 O 0.80642 0.16501 0.86311 0.0
O1059 O 0.86731 0.16203 0.90408 0.0
O1060 O 0.88297 0.22648 0.91182 0.0
O1061 O 0.85703 0.12263 0.85865 0.0
O1062 O 0.81757 0.14349 0.90026 0.0
O1063 O 0.79304 0.20097 0.91246 0.0
C1064 C 0.82679 0.25357 0.8524 0.0
C1065 C 0.79895 0.35065 0.91793 0.0
C1066 C 0.82703 0.41878 0.91629 0.0
C1067 C 0.79257 0.43196 0.90693 0.0
C1068 C 0.76279 0.36424 0.90975 0.0
C1069 C 0.75984 0.40487 0.90417 0.0
C1070 C 0.82981 0.37837 0.92159 0.0
C1071 C 0.9403 0.25377 0.88712 0.0
C1072 C 0.80976 0.30755 0.91986 0.0
C1073 C 0.70036 0.32158 0.85919 0.0
C1074 C 0.72519 0.3565 0.85919 0.0
C1075 C 0.88298 0.18769 0.91498 0.0
C1076 C 0.81436 0.14145 0.83506 0.0
C1077 C 0.77228 0.1293 0.80983 0.0
C1078 C 0.79147 0.16154 0.80131 0.0
C1079 C 0.83769 0.16948 0.82553 0.0
C1080 C 0.78149 0.1218 0.82718 0.0
C1081 C 0.82514 0.18085 0.80897 0.0
C1082 C 0.79101 0.15872 0.91271 0.0
C1083 C 0.82085 0.13538 0.85358 0.0
H1084 H 0.78962 0.46373 0.90334 0.0
H1085 H 0.73803 0.34321 0.9068 0.0
H1086 H 0.73248 0.41508 0.8975 0.0
H1087 H 0.85647 0.36845 0.92901 0.0
H1088 H 0.78307 0.16845 0.78823 0.0
H1089 H 0.86433 0.18392 0.83106 0.0
H1090 H 0.76553 0.09779 0.83406 0.0
H1091 H 0.84193 0.20396 0.80199 0.0
Eu1092 Eu 0.57943 0.07364 0.64562 0.0
C1093 C 0.70386 0.19543 0.61405 0.0
N1094 N 0.67137 0.17118 0.61009 0.0
C1095 C 0.64985 0.21977 0.58848 0.0
C1096 C 0.70976 0.23355 0.60589 0.0
C1097 C 0.64516 0.18246 0.59699 0.0
C1098 C 0.68186 0.24581 0.59315 0.0
C1099 C 0.76823 0.20385 0.62934 0.0
C1100 C 0.73256 0.18088 0.62554 0.0
C1101 C 0.77308 0.24285 0.62212 0.0
C1102 C 0.74387 0.25768 0.61037 0.0
Eu1103 Eu 0.66141 0.11173 0.62784 0.0
N1104 N 0.72699 0.14296 0.63206 0.0
C1105 C 0.79845 0.18649 0.63991 0.0
C1106 C 0.75763 0.12508 0.64154 0.0
C1107 C 0.79336 0.14663 0.64582 0.0
H1108 H 0.61891 0.1644 0.59355 0.0
H1109 H 0.81701 0.13239 0.65364 0.0
H1110 H 0.6239 0.98223 0.63797 0.0
H1111 H 0.43292 0.13033 0.61866 0.0
H1112 H 0.75533 0.09401 0.6457 0.0
H1113 H 0.82616 0.20316 0.64322 0.0
H1114 H 0.50105 0.13725 0.63154 0.0
H1115 H 0.62822 0.22872 0.57851 0.0
H1116 H 0.79988 0.26123 0.62512 0.0
H1117 H 0.74852 0.28729 0.60446 0.0
H1118 H 0.60155 0.91215 0.6309 0.0
H1119 H 0.68527 0.27483 0.58661 0.0
H1120 H 0.40448 0.06196 0.61219 0.0
N1121 N 0.56489 1.00835 0.63388 0.0
C1122 C 0.52466 1.00146 0.62965 0.0
C1123 C 0.57971 0.93704 0.63044 0.0
C1124 C 0.51103 0.9621 0.62493 0.0
C1125 C 0.59228 0.97682 0.63448 0.0
C1126 C 0.53892 0.9296 0.62572 0.0
N1127 N 0.5131 0.07306 0.63231 0.0
C1128 C 0.49004 0.107 0.62881 0.0
C1129 C 0.45874 1.0299 0.62111 0.0
C1130 C 0.49845 1.03505 0.62815 0.0
C1131 C 0.4349 0.06461 0.61785 0.0
C1132 C 0.45087 0.10328 0.62147 0.0
H1133 H 0.52951 0.89882 0.62233 0.0
H1134 H 0.45942 0.92655 0.61544 0.0
H1135 H 0.414 0.98594 0.61174 0.0
O1136 O 0.52601 0.06322 0.66141 0.0
O1137 O 0.57532 0.05243 0.61602 0.0
O1138 O 0.61427 0.09888 0.60348 0.0
O1139 O 0.5861 1.03668 0.66878 0.0
O1140 O 0.56322 0.15088 0.64431 0.0
O1141 O 0.6178 0.17541 0.62993 0.0
O1142 O 0.65478 0.04787 0.6207 0.0
O1143 O 0.66417 0.11643 0.65609 0.0
O1144 O 0.59758 0.12831 0.66125 0.0
O1145 O 0.70614 0.08421 0.61074 0.0
O1146 O 0.6912 0.07026 0.65341 0.0
O1147 O 0.63646 1.0332 0.66025 0.0
C1148 C 0.5858 0.06941 0.60127 0.0
C1149 C 0.52885 1.02046 0.68652 0.0
C1150 C 0.47173 0.05728 0.69701 0.0
C1151 C 0.44553 1.02699 0.68981 0.0
C1152 C 0.50423 0.98678 0.68219 0.0
C1153 C 0.46184 0.99039 0.68371 0.0
C1154 C 0.51369 0.04967 0.69782 0.0
C1155 C 0.58081 0.18551 0.63704 0.0
C1156 C 0.54707 0.0396 0.67178 0.0
C1157 C 0.47054 0.95664 0.61903 0.0
C1158 C 0.44463 0.99048 0.61695 0.0
C1159 C 0.63572 0.13084 0.66587 0.0
C1160 C 0.71595 1.0126 0.61364 0.0
C1161 C 0.74876 0.95338 0.60005 0.0
C1162 C 0.77017 0.94631 0.61571 0.0
C1163 C 0.73947 1.00612 0.62857 0.0
C1164 C 0.71998 0.98587 0.59971 0.0
C1165 C 0.76548 0.9725 0.62976 0.0
C1166 C 0.67783 1.03738 0.66321 0.0
C1167 C 0.68859 0.04808 0.61161 0.0
H1168 H 0.41267 1.03153 0.68893 0.0
H1169 H 0.51643 0.96203 0.67448 0.0
H1170 H 0.44178 0.96678 0.67864 0.0
H1171 H 0.5342 0.07294 0.70295 0.0
H1172 H 0.79227 0.92198 0.61707 0.0
H1173 H 0.73867 1.02703 0.63921 0.0
H1174 H 0.70221 0.99275 0.58825 0.0
H1175 H 0.78331 0.96758 0.64142 0.0
Eu1176 Eu 0.75947 0.82364 0.39507 0.0
C1177 C 0.6403 0.95794 0.36447 0.0
N1178 N 0.6619 0.92432 0.35984 0.0
C1179 C 0.6104 0.90879 0.33831 0.0
C1180 C 0.60246 0.96789 0.35652 0.0
C1181 C 0.64761 0.90018 0.34666 0.0
C1182 C 0.58735 0.94245 0.34345 0.0
C1183 C 0.63905 1.02175 0.38016 0.0
C1184 C 0.6579 0.98409 0.3762 0.0
C1185 C 0.59999 1.03053 0.37334 0.0
C1186 C 0.58166 1.00355 0.36152 0.0
Eu1187 Eu 0.71898 0.90621 0.3781 0.0
N1188 N 0.6959 0.97484 0.38209 0.0
C1189 C 0.66113 0.05037 0.38992 0.0
C1190 C 0.71923 1.00461 0.38973 0.0
C1191 C 0.70199 0.0423 0.3942 0.0
H1192 H 0.66301 0.87259 0.34321 0.0
H1193 H 0.72043 0.06528 0.40069 0.0
H1194 H 0.84911 0.88031 0.38989 0.0
H1195 H 0.72191 0.67659 0.3657 0.0
H1196 H 0.75157 1.00017 0.39187 0.0
H1197 H 0.64786 0.07968 0.39324 0.0
H1198 H 0.7066 0.74556 0.37715 0.0
H1199 H 0.5991 0.88881 0.32818 0.0
H1200 H 0.58457 0.05886 0.37652 0.0
H1201 H 0.5522 1.01131 0.35582 0.0
H1202 H 0.92112 0.86557 0.38408 0.0
H1203 H 0.55841 0.94894 0.33703 0.0
H1204 H 0.79394 0.65451 0.36235 0.0
N1205 N 0.82863 0.81909 0.3854 0.0
C1206 C 0.83983 0.78064 0.38022 0.0
C1207 C 0.89856 0.84137 0.38306 0.0
C1208 C 0.88106 0.77117 0.37663 0.0
C1209 C 0.85733 0.84952 0.38648 0.0
C1210 C 0.91059 0.80196 0.37839 0.0
N1211 N 0.76932 0.76247 0.3795 0.0
C1212 C 0.73807 0.73655 0.37519 0.0
C1213 C 0.8193 0.71245 0.37083 0.0
C1214 C 0.80926 0.7514 0.37728 0.0
C1215 C 0.78744 0.68503 0.36703 0.0
C1216 C 0.74668 0.69741 0.36888 0.0
H1217 H 0.94259 0.79591 0.37573 0.0
H1218 H 0.92295 0.72381 0.36826 0.0
H1219 H 0.86897 0.67248 0.36324 0.0
O1220 O 0.73797 0.77269 0.40906 0.0
O1221 O 0.77486 0.81882 0.36513 0.0
O1222 O 0.72928 0.86098 0.35311 0.0
O1223 O 0.8018 0.79218 0.41327 0.0
O1224 O 0.68126 0.80937 0.39262 0.0
O1225 O 0.65537 0.86414 0.37871 0.0
O1226 O 0.78369 0.89501 0.37355 0.0
O1227 O 0.69221 0.89589 0.40435 0.0
O1228 O 0.74103 0.85851 0.41798 0.0
O1229 O 0.75275 0.94931 0.3626 0.0
O1230 O 0.76225 0.93528 0.40321 0.0
O1231 O 0.79823 0.8796 0.41117 0.0
C1232 C 0.75788 0.83161 0.35059 0.0
C1233 C 0.77814 0.73078 0.42764 0.0
C1234 C 0.74325 0.67684 0.44218 0.0
C1235 C 0.7802 0.66314 0.44944 0.0
C1236 C 0.81565 0.71846 0.43498 0.0
C1237 C 0.81668 0.68394 0.44568 0.0
C1238 C 0.743 0.70863 0.43068 0.0
C1239 C 0.64592 0.82733 0.38577 0.0
C1240 C 0.77364 0.76504 0.41608 0.0
C1241 C 0.89135 0.73171 0.37091 0.0
C1242 C 0.86059 0.70244 0.36804 0.0
C1243 C 0.70834 0.88033 0.41836 0.0
C1244 C 0.8141 0.92826 0.3492 0.0
C1245 C 0.8736 0.95859 0.33505 0.0
C1246 C 0.86346 0.93549 0.32011 0.0
C1247 C 0.80177 0.91091 0.33349 0.0
C1248 C 0.85025 0.95146 0.34999 0.0
C1249 C 0.82763 0.91225 0.31936 0.0
C1250 C 0.79465 0.9213 0.41337 0.0
C1251 C 0.78714 0.92856 0.36425 0.0
H1252 H 0.78073 0.63737 0.45806 0.0
H1253 H 0.8437 0.73491 0.4323 0.0
H1254 H 0.84544 0.67383 0.45129 0.0
H1255 H 0.71385 0.7175 0.42488 0.0
H1256 H 0.88045 0.93832 0.30827 0.0
H1257 H 0.77186 0.89743 0.33186 0.0
H1258 H 0.85775 0.96671 0.36197 0.0
H1259 H 0.81851 0.89755 0.3074 0.0
Eu1260 Eu 1.01179 1.00095 0.14928 0.0
C1261 C 0.8723 0.88612 0.1165 0.0
N1262 N 0.90723 0.90624 0.11257 0.0
C1263 C 0.92176 0.8559 0.09076 0.0
C1264 C 0.86096 0.84958 0.10796 0.0
C1265 C 0.93166 0.89187 0.09963 0.0
C1266 C 0.88651 0.8343 0.09509 0.0
C1267 C 0.80774 0.88637 0.13145 0.0
C1268 C 0.8465 0.90387 0.12821 0.0
C1269 C 0.79739 0.84855 0.12397 0.0
C1270 C 0.82403 0.83014 0.11221 0.0
Eu1271 Eu 0.9278 0.96054 0.13143 0.0
N1272 N 0.85753 0.94055 0.13496 0.0
C1273 C 0.77981 0.90837 0.14138 0.0
C1274 C 0.82857 0.96386 0.14301 0.0
C1275 C 0.78993 0.94778 0.14681 0.0
H1276 H 0.96014 0.90654 0.09659 0.0
H1277 H 0.76774 0.9661 0.15367 0.0
H1278 H 0.95567 0.09085 0.14435 0.0
H1279 H 0.15653 0.96244 0.11818 0.0
H1280 H 0.83414 0.99534 0.14617 0.0
H1281 H 0.74979 0.89603 0.14423 0.0
H1282 H 0.08934 0.94763 0.13102 0.0
H1283 H 0.94179 0.84449 0.08079 0.0
H1284 H 0.76818 0.83418 0.12662 0.0
H1285 H 0.81514 0.8017 0.10603 0.0
H1286 H 0.96994 0.16219 0.13766 0.0
H1287 H 0.87895 0.80634 0.08824 0.0
H1288 H 0.17793 1.034 0.11337 0.0
N1289 N 1.01623 0.06979 0.13909 0.0
C1290 C 0.05431 0.08063 0.13336 0.0
C1291 C 0.99404 0.13961 0.13653 0.0
C1292 C 0.06359 0.1216 0.12931 0.0
C1293 C 0.98613 0.0987 0.14044 0.0
C1294 C 1.03305 0.15124 0.1312 0.0
N1295 N 0.07213 1.01014 0.133 0.0
C1296 C 0.0977 0.97892 0.12858 0.0
C1297 C 0.12137 0.05964 0.12302 0.0
C1298 C 0.08308 0.0499 0.13021 0.0
C1299 C 0.14814 1.02774 0.11885 0.0
C1300 C 0.13605 0.98725 0.12144 0.0
H1301 H 1.03894 0.18299 0.12815 0.0
H1302 H 0.1103 0.16293 0.11999 0.0
H1303 H 0.16086 0.1088 0.11456 0.0
O1304 O 0.06178 0.98255 0.16606 0.0
O1305 O 1.01386 1.01742 0.11904 0.0
O1306 O 0.97084 0.97305 0.10631 0.0
O1307 O 1.03911 0.04471 0.16734 0.0
O1308 O 1.02888 0.92386 0.14576 0.0
O1309 O 0.97372 0.89891 0.13118 0.0
O1310 O 0.94141 1.02517 0.13124 0.0
O1311 O 0.95121 0.92622 0.15419 0.0
O1312 O 0.97174 0.97787 0.17011 0.0
O1313 O 0.90067 0.99853 0.11146 0.0
O1314 O 0.89885 1.0007 0.15748 0.0
O1315 O 0.95467 1.0379 0.16529 0.0
C1316 C 0.99991 1.00204 0.10425 0.0
C1317 C 0.11068 1.03584 0.16876 0.0
C1318 C 0.17698 1.01174 0.17583 0.0
C1319 C 0.18926 0.05102 0.1811 0.0
C1320 C 0.12154 0.07583 0.17369 0.0
C1321 C 0.16217 0.08392 0.17877 0.0
C1322 C 0.14168 1.00754 0.16592 0.0
C1323 C 1.01131 0.8893 0.1381 0.0
C1324 C 0.06891 1.02006 0.17109 0.0
C1325 C 0.10254 0.13154 0.12297 0.0
C1326 C 0.13134 0.10068 0.11986 0.0
C1327 C 0.95579 0.94195 0.16937 0.0
C1328 C 0.8896 0.06789 0.11831 0.0
C1329 C 0.85325 0.12006 0.10131 0.0
C1330 C 0.82973 0.1291 0.11611 0.0
C1331 C 0.86482 0.07692 0.13243 0.0
C1332 C 0.88443 0.09013 0.10306 0.0
C1333 C 0.83583 0.10795 0.13146 0.0
C1334 C 0.91298 1.03315 0.16771 0.0
C1335 C 0.91699 1.03204 0.11794 0.0
H1336 H 0.2166 0.05538 0.18875 0.0
H1337 H 0.09845 0.09937 0.17505 0.0
H1338 H 0.17067 0.11414 0.18326 0.0
H1339 H 0.1337 0.97696 0.16155 0.0
H1340 H 0.80473 0.15069 0.11587 0.0
H1341 H 0.86634 0.05945 0.14401 0.0
H1342 H 0.90314 0.08118 0.0923 0.0
H1343 H 0.81653 0.11428 0.14244 0.0
Eu1344 Eu 0.71373 0.6771 0.88225 0.0
C1345 C 0.83988 0.77764 0.87724 0.0
N1346 N 0.82016 0.74416 0.88362 0.0
C1347 C 0.88031 0.70347 0.87844 0.0
C1348 C 0.88082 0.77522 0.87151 0.0
C1349 C 0.83946 0.70713 0.88352 0.0
C1350 C 0.90133 0.7378 0.87266 0.0
C1351 C 0.8365 0.84833 0.86766 0.0
C1352 C 0.81831 0.81408 0.87549 0.0
C1353 C 0.87742 0.84614 0.8623 0.0
C1354 C 0.89958 0.80976 0.8643 0.0
Eu1355 Eu 0.75539 0.7588 0.89675 0.0
N1356 N 0.77859 0.81522 0.88059 0.0
C1357 C 0.81277 0.88357 0.86519 0.0
C1358 C 0.75497 0.84919 0.87792 0.0
C1359 C 0.7717 0.88384 0.87018 0.0
H1360 H 0.82354 0.67992 0.88685 0.0
H1361 H 0.75304 0.91081 0.86818 0.0
H1362 H 0.62712 0.64123 0.89819 0.0
H1363 H 0.84458 0.59203 0.85527 0.0
H1364 H 0.72336 0.84942 0.88203 0.0
H1365 H 0.82567 0.9105 0.85921 0.0
H1366 H 0.80394 0.65217 0.86117 0.0
H1367 H 0.89523 0.6739 0.87863 0.0
H1368 H 0.89204 0.87223 0.85635 0.0
H1369 H 0.93094 0.80835 0.85983 0.0
H1370 H 0.59621 0.57439 0.90615 0.0
H1371 H 0.93275 0.7347 0.86842 0.0
H1372 H 0.81901 0.52351 0.86295 0.0
N1373 N 0.68163 0.61467 0.88883 0.0
C1374 C 0.70267 0.5798 0.88556 0.0
C1375 C 0.62629 0.57579 0.90055 0.0
C1376 C 0.68626 0.54129 0.88989 0.0
C1377 C 0.64379 0.61331 0.89606 0.0
C1378 C 0.64775 0.53967 0.8976 0.0
N1379 N 0.75498 0.62021 0.87345 0.0
C1380 C 0.7916 0.62338 0.86504 0.0
C1381 C 0.76265 0.54669 0.87381 0.0
C1382 C 0.74031 0.58258 0.87758 0.0
C1383 C 0.8007 0.55027 0.86584 0.0
C1384 C 0.81514 0.58881 0.86144 0.0
H1385 H 0.63407 0.51069 0.90109 0.0
H1386 H 0.69602 0.47589 0.88929 0.0
H1387 H 0.76293 0.48061 0.87505 0.0
O1388 O 0.67355 0.65057 0.86261 0.0
O1389 O 0.68723 0.69183 0.90827 0.0
O1390 O 0.74249 0.72268 0.91975 0.0
O1391 O 0.68504 0.71663 0.86339 0.0
O1392 O 0.76513 0.64515 0.90326 0.0
O1393 O 0.79433 0.70242 0.91374 0.0
O1394 O 0.7379 0.80944 0.91303 0.0
O1395 O 0.74806 0.77062 0.86673 0.0
O1396 O 0.76052 0.7065 0.86056 0.0
O1397 O 0.80167 0.79123 0.91193 0.0
O1398 O 0.67726 0.77553 0.89347 0.0
O1399 O 0.64857 0.71351 0.88948 0.0
C1400 C 0.70833 0.70417 0.92162 0.0
C1401 C 0.6817 0.68674 0.8365 0.0
C1402 C 0.72913 0.66356 0.81486 0.0
C1403 C 0.7209 0.69828 0.80502 0.0
C1404 C 0.67073 0.71988 0.82596 0.0
C1405 C 0.69035 0.72551 0.81019 0.0
C1406 C 0.7102 0.65836 0.83068 0.0
C1407 C 0.79425 0.65988 0.91475 0.0
C1408 C 0.66997 0.68583 0.85456 0.0
C1409 C 0.70836 0.50565 0.88615 0.0
C1410 C 0.74639 0.50835 0.87806 0.0
C1411 C 0.76204 0.74547 0.85485 0.0
C1412 C 0.78869 0.8611 0.91625 0.0
C1413 C 0.7605 0.9226 0.92717 0.0
C1414 C 0.79901 0.93444 0.93372 0.0
C1415 C 0.82804 0.87258 0.92203 0.0
C1416 C 0.75782 0.8903 0.91566 0.0
C1417 C 0.83352 0.91068 0.92998 0.0
C1418 C 0.64023 0.75427 0.8913 0.0
C1419 C 0.7758 0.81831 0.91721 0.0
H1420 H 0.73742 0.70353 0.79336 0.0
H1421 H 0.64883 0.74244 0.83035 0.0
H1422 H 0.68268 0.75152 0.80222 0.0
H1423 H 0.71813 0.63195 0.83847 0.0
H1424 H 0.80184 0.95867 0.94303 0.0
H1425 H 0.8531 0.85084 0.92208 0.0
H1426 H 0.72753 0.88182 0.91091 0.0
H1427 H 0.8632 0.91898 0.93529 0.0
Eu1428 Eu 0.65359 0.45992 0.12741 0.0
C1429 C 0.53843 0.58254 0.12838 0.0
N1430 N 0.5759 0.56465 0.1312 0.0
C1431 C 0.60944 0.62856 0.12589 0.0
C1432 C 0.53547 0.62406 0.12374 0.0
C1433 C 0.61112 0.58692 0.12991 0.0
C1434 C 0.57151 0.64724 0.12287 0.0
C1435 C 0.46445 0.57492 0.12443 0.0
C1436 C 0.50275 0.55863 0.12931 0.0
C1437 C 0.46154 0.61648 0.1201 0.0
C1438 C 0.49682 0.64104 0.11995 0.0
Eu1439 Eu 0.57066 0.50106 0.14523 0.0
N1440 N 0.50628 0.51842 0.13368 0.0
C1441 C 0.43043 0.54868 0.12365 0.0
C1442 C 0.47375 0.49228 0.13243 0.0
C1443 C 0.43525 0.5071 0.12739 0.0
H1444 H 0.64059 0.57302 0.13211 0.0
H1445 H 0.40921 0.48661 0.1266 0.0
H1446 H 0.61571 0.4241 0.08975 0.0
H1447 H 0.78518 0.39993 0.1637 0.0
H1448 H 0.47747 0.46045 0.13586 0.0
H1449 H 0.40046 0.56006 0.11988 0.0
H1450 H 0.73076 0.44856 0.15635 0.0
H1451 H 0.63744 0.6462 0.12505 0.0
H1452 H 0.4322 0.62981 0.11661 0.0
H1453 H 0.494 0.67297 0.11646 0.0
H1454 H 0.61895 0.36234 0.07172 0.0
H1455 H 0.57044 0.67939 0.11956 0.0
H1456 H 0.78779 0.33287 0.14922 0.0
N1457 N 0.65521 0.40092 0.10934 0.0
C1458 C 0.68093 0.37007 0.11398 0.0
C1459 C 0.63629 0.36393 0.08367 0.0
C1460 C 0.68374 0.33397 0.10405 0.0
C1461 C 0.63437 0.39899 0.094 0.0
C1462 C 0.66034 0.33088 0.08892 0.0
N1463 N 0.7043 0.41193 0.13668 0.0
C1464 C 0.73171 0.42011 0.14963 0.0
C1465 C 0.73574 0.34584 0.13257 0.0
C1466 C 0.7063 0.3758 0.1281 0.0
C1467 C 0.76414 0.35461 0.14565 0.0
C1468 C 0.76267 0.39237 0.15391 0.0
H1469 H 0.6617 0.30373 0.08091 0.0
H1470 H 0.71332 0.27484 0.10176 0.0
H1471 H 0.75919 0.28545 0.12672 0.0
O1472 O 0.67291 0.5162 0.11477 0.0
O1473 O 0.65579 0.46137 0.156 0.0
O1474 O 0.59008 0.44653 0.16041 0.0
O1475 O 0.70833 0.45947 0.11214 0.0
O1476 O 0.6857 0.50742 0.15038 0.0
O1477 O 0.62969 0.54029 0.15971 0.0
O1478 O 0.51799 0.50967 0.16194 0.0
O1479 O 0.55386 0.50589 0.11514 0.0
O1480 O 0.61423 0.48934 0.10349 0.0
O1481 O 0.57353 0.54407 0.16661 0.0
O1482 O 0.55226 0.4244 0.14325 0.0
O1483 O 0.6067 0.39898 0.1287 0.0
C1484 C 0.62747 0.44772 0.16597 0.0
C1485 C 0.74542 0.52036 0.11354 0.0
C1486 C 0.79717 0.56443 0.10178 0.0
C1487 C 0.82655 0.54562 0.11254 0.0
C1488 C 0.77482 0.50283 0.12464 0.0
C1489 C 0.81518 0.51614 0.1244 0.0
C1490 C 0.75587 0.55397 0.10348 0.0
C1491 C 0.67191 0.53843 0.16113 0.0
C1492 C 0.70713 0.49898 0.10972 0.0
C1493 C 0.71106 0.30295 0.10911 0.0
C1494 C 0.73715 0.30896 0.12332 0.0
C1495 C 0.57631 0.50445 0.10098 0.0
C1496 C 0.54295 0.51544 0.19014 0.0
C1497 C 0.53299 0.45782 0.20831 0.0
C1498 C 0.54825 0.47944 0.22261 0.0
C1499 C 0.55608 0.53901 0.20436 0.0
C1500 C 0.53762 0.47358 0.19204 0.0
C1501 C 0.56097 0.52011 0.22048 0.0
C1502 C 0.56977 0.38956 0.13595 0.0
C1503 C 0.53893 0.53194 0.17288 0.0
H1504 H 0.85855 0.55303 0.11121 0.0
H1505 H 0.76739 0.4773 0.13269 0.0
H1506 H 0.83803 0.50165 0.13255 0.0
H1507 H 0.73245 0.5694 0.09595 0.0
H1508 H 0.54682 0.4662 0.23534 0.0
H1509 H 0.56326 0.57113 0.20288 0.0
H1510 H 0.52801 0.4548 0.18116 0.0
H1511 H 0.57163 0.53765 0.23149 0.0
Eu1512 Eu 0.86642 0.40693 0.38063 0.0
C1513 C 0.74247 0.28304 0.38351 0.0
N1514 N 0.75556 0.32122 0.38826 0.0
C1515 C 0.68676 0.34661 0.38521 0.0
C1516 C 0.70074 0.27519 0.37991 0.0
C1517 C 0.72844 0.35307 0.38866 0.0
C1518 C 0.67273 0.30742 0.38113 0.0
C1519 C 0.75975 0.21378 0.37466 0.0
C1520 C 0.7717 0.25259 0.3808 0.0
C1521 C 0.71793 0.20526 0.37203 0.0
C1522 C 0.68853 0.23589 0.37461 0.0
Eu1523 Eu 0.82518 0.32366 0.398 0.0
N1524 N 0.81211 0.26205 0.38311 0.0
C1525 C 0.79028 0.18499 0.37102 0.0
C1526 C 0.84202 0.23462 0.37914 0.0
C1527 C 0.83158 0.19563 0.37306 0.0
H1528 H 0.7383 0.38369 0.39159 0.0
H1529 H 0.85535 0.17361 0.37021 0.0
H1530 H 0.92332 0.37778 0.34715 0.0
H1531 H 0.86464 0.56264 0.40961 0.0
H1532 H 0.87383 0.2422 0.38125 0.0
H1533 H 0.78233 0.15472 0.36636 0.0
H1534 H 0.83445 0.4995 0.39986 0.0
H1535 H 0.66545 0.37194 0.38573 0.0
H1536 H 0.70809 0.17541 0.36753 0.0
H1537 H 0.65651 0.22918 0.37201 0.0
H1538 H 0.98635 0.39749 0.33231 0.0
H1539 H 0.64041 0.30266 0.37842 0.0
H1540 H 0.93335 0.58262 0.39969 0.0
N1541 N 0.92297 0.42933 0.36389 0.0
C1542 C 0.94234 0.46428 0.36854 0.0
C1543 C 0.97424 0.41677 0.34241 0.0
C1544 C 0.97864 0.47695 0.36029 0.0
C1545 C 0.93799 0.40599 0.35073 0.0
C1546 C 0.99491 0.45227 0.34732 0.0
N1547 N 0.8883 0.47611 0.38761 0.0
C1548 C 0.8663 0.50367 0.39721 0.0
C1549 C 0.94179 0.52707 0.38495 0.0
C1550 C 0.9245 0.4885 0.38085 0.0
C1551 C 0.92107 0.55291 0.39622 0.0
C1552 C 0.88259 0.54156 0.40199 0.0
H1553 H 1.02292 0.46072 0.34082 0.0
H1554 H 1.02491 0.52437 0.35879 0.0
H1555 H 0.99188 0.56891 0.38011 0.0
O1556 O 0.80043 0.40508 0.37561 0.0
O1557 O 0.89917 0.38607 0.40444 0.0
O1558 O 0.84569 0.36305 0.41917 0.0
O1559 O 0.84268 0.43219 0.35692 0.0
O1560 O 0.82066 0.43487 0.40511 0.0
O1561 O 0.78709 0.37913 0.41435 0.0
O1562 O 0.84945 0.27719 0.41484 0.0
O1563 O 0.80552 0.32209 0.36847 0.0
O1564 O 0.85684 0.35705 0.3571 0.0
O1565 O 0.78491 0.29286 0.41622 0.0
O1566 O 0.90292 0.30738 0.39297 0.0
O1567 O 0.92914 0.36457 0.38121 0.0
C1568 C 0.88332 0.37359 0.41878 0.0
C1569 C 0.78005 0.46515 0.36041 0.0
C1570 C 0.72165 0.50329 0.34902 0.0
C1571 C 0.73825 0.53916 0.35662 0.0
C1572 C 0.79836 0.50229 0.3652 0.0
C1573 C 0.77677 0.53865 0.36431 0.0
C1574 C 0.74142 0.46563 0.3523 0.0
C1575 C 0.7897 0.42103 0.4159 0.0
C1576 C 0.80435 0.42739 0.36156 0.0
C1577 C 0.99692 0.51428 0.36488 0.0
C1578 C 0.9782 0.53954 0.37705 0.0
C1579 C 0.82484 0.33147 0.35416 0.0
C1580 C 0.80267 0.22363 0.42009 0.0
C1581 C 0.83595 0.16316 0.42967 0.0
C1582 C 0.79938 0.14924 0.43699 0.0
C1583 C 0.76519 0.21004 0.42677 0.0
C1584 C 0.835 0.19615 0.41858 0.0
C1585 C 0.76314 0.17143 0.43442 0.0
C1586 C 0.93851 0.32643 0.38686 0.0
C1587 C 0.81328 0.26707 0.42053 0.0
H1588 H 0.72394 0.56872 0.35499 0.0
H1589 H 0.83014 0.50363 0.36871 0.0
H1590 H 0.79111 0.56694 0.36845 0.0
H1591 H 0.72886 0.43737 0.34726 0.0
H1592 H 0.79948 0.12427 0.44594 0.0
H1593 H 0.73908 0.2304 0.42757 0.0
H1594 H 0.86391 0.20613 0.41315 0.0
H1595 H 0.73496 0.16135 0.44032 0.0
Eu1596 Eu 0.92958 0.61523 0.62644 0.0
C1597 C 0.04965 0.49222 0.63176 0.0
N1598 N 1.01167 0.50621 0.63631 0.0
C1599 C 0.98462 0.43816 0.63353 0.0
C1600 C 0.05648 0.45045 0.62832 0.0
C1601 C 0.97917 0.47984 0.63683 0.0
C1602 C 1.02351 0.42328 0.62956 0.0
C1603 C 0.11931 0.50779 0.62286 0.0
C1604 C 0.08085 0.52062 0.62896 0.0
C1605 C 0.1268 0.46592 0.6204 0.0
C1606 C 0.09548 0.43736 0.62311 0.0
Eu1607 Eu 1.01136 0.57545 0.64612 0.0
N1608 N 0.07237 0.56114 0.63113 0.0
C1609 C 0.14879 0.53752 0.61909 0.0
C1610 C 0.10059 0.59029 0.62712 0.0
C1611 C 0.1392 0.57892 0.62103 0.0
H1612 H 0.94881 0.4902 0.63981 0.0
H1613 H 0.1618 0.60207 0.61809 0.0
H1614 H 0.95352 0.67546 0.59369 0.0
H1615 H 0.76984 0.59513 0.64927 0.0
H1616 H 0.09395 0.62219 0.62916 0.0
H1617 H 0.17882 0.52887 0.61445 0.0
H1618 H 0.83654 0.57146 0.63948 0.0
H1619 H 0.95875 0.41748 0.63413 0.0
H1620 H 0.15639 0.45541 0.61595 0.0
H1621 H 0.10139 0.40529 0.62062 0.0
H1622 H 0.93224 0.74158 0.58123 0.0
H1623 H 1.02748 0.39097 0.62696 0.0
H1624 H 0.74911 0.66702 0.6448 0.0
N1625 N 0.90343 0.67218 0.61095 0.0
C1626 C 0.86883 0.69025 0.61659 0.0
C1627 C 0.91395 0.72743 0.59114 0.0
C1628 C 0.85537 0.72805 0.60993 0.0
C1629 C 0.92564 0.68969 0.59808 0.0
C1630 C 0.87893 0.74704 0.59728 0.0
N1631 N 0.85826 0.63087 0.63225 0.0
C1632 C 0.83022 0.60376 0.63875 0.0
C1633 C 0.80598 0.68331 0.63236 0.0
C1634 C 0.84517 0.66871 0.62781 0.0
C1635 C 0.77956 0.65719 0.64116 0.0
C1636 C 0.79121 0.6167 0.64377 0.0
H1637 H 0.86981 0.77621 0.59188 0.0
H1638 H 0.80752 0.77402 0.61091 0.0
H1639 H 0.76372 0.73433 0.63046 0.0
O1640 O 0.92855 0.54925 0.62236 0.0
O1641 O 0.95536 0.64954 0.64783 0.0
O1642 O 0.96918 0.60072 0.66581 0.0
O1643 O 0.91959 0.59152 0.60075 0.0
O1644 O 0.89978 0.57159 0.6515 0.0
O1645 O 0.95491 0.53901 0.66241 0.0
O1646 O 0.06161 0.59515 0.66259 0.0
O1647 O 1.01383 0.55631 0.6163 0.0
O1648 O 0.97973 0.60669 0.60355 0.0
O1649 O 1.03714 0.53403 0.66539 0.0
O1650 O 1.03112 0.6523 0.64133 0.0
O1651 O 0.97525 0.67727 0.62755 0.0
C1652 C 0.9589 0.63795 0.66337 0.0
C1653 C 0.87466 0.53726 0.60226 0.0
C1654 C 0.82966 0.48284 0.59259 0.0
C1655 C 0.79587 0.50847 0.59587 0.0
C1656 C 0.84077 0.56388 0.60244 0.0
C1657 C 0.80142 0.54907 0.60027 0.0
C1658 C 0.86923 0.49649 0.59714 0.0
C1659 C 0.91278 0.54165 0.66316 0.0
C1660 C 0.91509 0.55409 0.60641 0.0
C1661 C 0.81819 0.74473 0.61566 0.0
C1662 C 0.79338 0.72226 0.62686 0.0
C1663 C 1.00588 0.57513 0.60153 0.0
C1664 C 0.10891 0.54124 0.66707 0.0
C1665 C 0.17692 0.55963 0.67469 0.0
C1666 C 0.18723 0.51864 0.67786 0.0
C1667 C 0.11757 0.49978 0.67028 0.0
C1668 C 0.1413 0.56849 0.66557 0.0
C1669 C 0.15786 0.48819 0.67453 0.0
C1670 C 1.01327 0.68738 0.63409 0.0
C1671 C 0.0675 0.55842 0.66868 0.0
H1672 H 0.76508 0.49812 0.59371 0.0
H1673 H 0.84456 0.59635 0.60425 0.0
H1674 H 0.77534 0.56941 0.60129 0.0
H1675 H 0.89555 0.47657 0.59581 0.0
H1676 H 0.21509 0.51088 0.68476 0.0
H1677 H 0.09327 0.47723 0.67057 0.0
H1678 H 0.1349 0.60038 0.66271 0.0
H1679 H 0.16472 0.45659 0.67747 0.0
Eu1680 Eu 0.72139 0.40823 0.75601 0.0
C1681 C 0.83209 0.29721 0.75415 0.0
N1682 N 0.81478 0.33381 0.74949 0.0
C1683 C 0.87803 0.36815 0.75658 0.0
C1684 C 0.87284 0.29525 0.76046 0.0
C1685 C 0.83777 0.36873 0.75025 0.0
C1686 C 0.89563 0.33134 0.76173 0.0
C1687 C 0.82571 0.22344 0.75797 0.0
C1688 C 0.80877 0.2613 0.75307 0.0
C1689 C 0.86644 0.22162 0.76388 0.0
C1690 C 0.88978 0.25742 0.76527 0.0
Eu1691 Eu 0.74938 0.32631 0.73568 0.0
N1692 N 0.76851 0.26395 0.7483 0.0
C1693 C 0.8009 0.18854 0.75708 0.0
C1694 C 0.74326 0.23069 0.74877 0.0
C1695 C 0.7592 0.19234 0.75306 0.0
H1696 H 0.82545 0.39761 0.7464 0.0
H1697 H 0.73957 0.16565 0.75289 0.0
H1698 H 0.68264 0.35 0.78796 0.0
H1699 H 0.67903 0.56277 0.73688 0.0
H1700 H 0.71137 0.23363 0.74502 0.0
H1701 H 0.81327 0.15869 0.76016 0.0
H1702 H 0.72015 0.49948 0.73696 0.0
H1703 H 0.89554 0.39622 0.7574 0.0
H1704 H 0.87992 0.19276 0.76776 0.0
H1705 H 0.92101 0.25553 0.77012 0.0
H1706 H 0.62555 0.35137 0.80842 0.0
H1707 H 0.9269 0.33108 0.76659 0.0
H1708 H 0.61743 0.56786 0.75516 0.0
N1709 N 0.66682 0.4066 0.77615 0.0
C1710 C 0.64143 0.43945 0.7764 0.0
C1711 C 0.62962 0.37636 0.79948 0.0
C1712 C 0.60813 0.44141 0.78785 0.0
C1713 C 0.66231 0.37592 0.78795 0.0
C1714 C 0.6021 0.40902 0.7993 0.0
N1715 N 0.68284 0.46937 0.75525 0.0
C1716 C 0.69339 0.50139 0.74495 0.0
C1717 C 0.62485 0.50711 0.76579 0.0
C1718 C 0.64962 0.47178 0.76556 0.0
C1719 C 0.63551 0.54008 0.75527 0.0
C1720 C 0.67029 0.53737 0.74497 0.0
H1721 H 0.57679 0.4093 0.80826 0.0
H1722 H 0.55659 0.47786 0.79637 0.0
H1723 H 0.57132 0.53551 0.77705 0.0
O1724 O 0.77873 0.40452 0.77006 0.0
O1725 O 0.71697 0.41864 0.7284 0.0
O1726 O 0.69693 0.35549 0.72128 0.0
O1727 O 0.74394 0.46178 0.76965 0.0
O1728 O 0.76618 0.43887 0.73181 0.0
O1729 O 0.78958 0.3817 0.71923 0.0
O1730 O 0.73375 0.28133 0.71629 0.0
O1731 O 0.74815 0.30456 0.76572 0.0
O1732 O 0.75336 0.36592 0.77751 0.0
O1733 O 0.7946 0.30662 0.71657 0.0
O1734 O 0.67405 0.30962 0.73989 0.0
O1735 O 0.65442 0.36745 0.75359 0.0
C1736 C 0.69848 0.3941 0.71797 0.0
C1737 C 0.78545 0.44951 0.79388 0.0
C1738 C 0.79003 0.50516 0.81386 0.0
C1739 C 0.77877 0.47956 0.82748 0.0
C1740 C 0.7723 0.42378 0.80725 0.0
C1741 C 0.77101 0.43835 0.82411 0.0
C1742 C 0.79863 0.48878 0.79776 0.0
C1743 C 0.79229 0.42403 0.71912 0.0
C1744 C 0.77601 0.44205 0.77573 0.0
C1745 C 0.5825 0.47593 0.78777 0.0
C1746 C 0.59088 0.50875 0.77677 0.0
C1747 C 0.75813 0.32594 0.77986 0.0
C1748 C 0.78815 0.23616 0.7102 0.0
C1749 C 0.76811 0.16811 0.70257 0.0
C1750 C 0.80803 0.15907 0.69716 0.0
C1751 C 0.82853 0.22807 0.70502 0.0
C1752 C 0.7608 0.20382 0.71161 0.0
C1753 C 0.83893 0.18859 0.69937 0.0
C1754 C 0.64149 0.33005 0.74719 0.0
C1755 C 0.77111 0.27775 0.71078 0.0
H1756 H 0.7711 0.49216 0.83994 0.0
H1757 H 0.76011 0.39378 0.80493 0.0
H1758 H 0.75891 0.41886 0.83397 0.0
H1759 H 0.8064 0.50934 0.78728 0.0
H1760 H 0.81429 0.13147 0.68994 0.0
H1761 H 0.851 0.25239 0.70439 0.0
H1762 H 0.72942 0.20963 0.71551 0.0
H1763 H 0.86968 0.18238 0.69493 0.0
Eu1764 Eu 0.92161 0.46362 1.00839 0.0
C1765 C 1.03939 0.57664 1.00565 0.0
N1766 N 1.00315 0.56143 0.9994 0.0
C1767 C 0.97032 0.62558 1.00565 0.0
C1768 C 0.04248 0.61733 1.01167 0.0
C1769 C 0.96854 0.58482 1.00026 0.0
C1770 C 1.00761 0.64217 1.01109 0.0
C1771 C 0.10913 0.56369 1.01563 0.0
C1772 C 0.07252 0.55024 1.00766 0.0
C1773 C 0.1129 0.60469 1.02077 0.0
C1774 C 0.07966 0.63144 1.0188 0.0
Eu1775 Eu 1.00739 0.49367 0.98752 0.0
N1776 N 0.06766 0.51035 1.00309 0.0
C1777 C 0.14058 0.53527 1.0185 0.0
C1778 C 0.09789 0.48228 1.00614 0.0
C1779 C 0.13458 0.49423 1.01412 0.0
H1780 H 0.93912 0.57213 0.99759 0.0
H1781 H 0.15871 0.47211 1.01637 0.0
H1782 H 0.90108 0.36274 1.01291 0.0
H1783 H 0.81332 0.59204 1.00632 0.0
H1784 H 0.09363 0.45083 1.00219 0.0
H1785 H 0.16971 0.54469 1.02402 0.0
H1786 H 0.88051 0.559 1.01161 0.0
H1787 H 0.94262 0.64379 1.00608 0.0
H1788 H 0.14099 0.61572 1.02674 0.0
H1789 H 0.08257 0.66266 1.02335 0.0
H1790 H 0.84173 0.31659 1.01336 0.0
H1791 H 1.00869 0.6735 1.01564 0.0
H1792 H 0.75071 0.54983 1.00382 0.0
N1793 N 0.86544 0.41685 1.01041 0.0
C1794 C 0.8269 0.43292 1.00982 0.0
C1795 C 0.83713 0.34925 1.01225 0.0
C1796 C 0.792 0.40745 1.00968 0.0
C1797 C 0.87087 0.37563 1.0119 0.0
C1798 C 0.79752 0.36517 1.01098 0.0
N1799 N 0.8571 0.49876 1.00888 0.0
C1800 C 0.85345 0.54033 1.01001 0.0
C1801 C 0.78342 0.49267 1.00699 0.0
C1802 C 0.8227 0.47509 1.00871 0.0
C1803 C 0.7802 0.53517 1.00569 0.0
C1804 C 0.81545 0.55908 1.00715 0.0
H1805 H 0.77146 0.3446 1.01098 0.0
H1806 H 0.72572 0.40583 1.0074 0.0
H1807 H 0.71872 0.48017 1.00426 0.0
O1808 O 0.88802 0.45477 1.03231 0.0
O1809 O 0.92903 0.42375 0.98455 0.0
O1810 O 0.95866 0.47365 0.96935 0.0
O1811 O 0.95396 0.44793 1.0325 0.0
O1812 O 0.89583 0.51437 0.98472 0.0
O1813 O 0.95299 0.53462 0.97095 0.0
O1814 O 0.05086 0.46682 0.96958 0.0
O1815 O 1.02029 0.49116 1.0182 0.0
O1816 O 0.96011 0.51578 1.02468 0.0
O1817 O 1.04119 0.53179 0.9695 0.0
O1818 O 1.02001 0.4179 0.99146 0.0
O1819 O 0.96122 0.39718 1.00408 0.0
C1820 C 0.93554 0.44159 0.96973 0.0
C1821 C 0.92366 0.48502 1.05573 0.0
C1822 C 0.90611 0.5536 1.06705 0.0
C1823 C 0.93399 0.54663 0.08075 0.0
C1824 C 0.9508 0.47933 0.06955 0.0
C1825 C 0.95627 0.5102 0.08178 0.0
C1826 C 0.90154 0.52218 1.05455 0.0
C1827 C 0.91071 0.53887 0.97149 0.0
C1828 C 0.92113 0.45385 1.04178 0.0
C1829 C 0.7529 0.42489 1.00785 0.0
C1830 C 0.74878 0.46729 1.00623 0.0
C1831 C 0.99963 0.51242 1.02995 0.0
C1832 C 0.10914 0.5087 0.96738 0.0
C1833 C 0.17517 0.47711 0.97408 0.0
C1834 C 0.18877 0.51466 0.981 0.0
C1835 C 0.12486 0.54686 0.97257 0.0
C1836 C 0.13487 0.47469 0.96752 0.0
C1837 C 0.16439 0.5496 0.97953 0.0
C1838 C 0.99907 0.38485 0.99799 0.0
C1839 C 0.06489 0.50219 0.96465 0.0
H1840 H 0.93913 0.56924 0.09072 0.0
H1841 H 0.96895 0.45168 0.07052 0.0
H1842 H 0.97905 0.50639 0.09181 0.0
H1843 H 0.88089 0.52658 1.04375 0.0
H1844 H 0.21887 0.51756 0.98681 0.0
H1845 H 0.10582 0.57399 0.97236 0.0
H1846 H 0.12324 0.44629 0.96216 0.0
H1847 H 0.17573 0.57868 0.98427 0.0
Eu1848 Eu 0.86279 0.67351 0.25506 0.0
C1849 C 0.7477 0.79372 0.24665 0.0
N1850 N 0.76244 0.75507 0.24379 0.0
C1851 C 0.69485 0.72754 0.2475 0.0
C1852 C 0.70578 0.80039 0.24998 0.0
C1853 C 0.73663 0.7222 0.24431 0.0
C1854 C 0.67925 0.76676 0.25011 0.0
C1855 C 0.76191 0.86551 0.25278 0.0
C1856 C 0.77543 0.82633 0.24788 0.0
C1857 C 0.71987 0.87247 0.2552 0.0
C1858 C 0.6919 0.84005 0.25377 0.0
Eu1859 Eu 0.8308 0.75435 0.23344 0.0
N1860 N 0.81627 0.81842 0.24597 0.0
C1861 C 0.79123 0.89617 0.2557 0.0
C1862 C 0.8451 0.84766 0.24936 0.0
C1863 C 0.83297 0.88703 0.25425 0.0
H1864 H 0.74767 0.69167 0.24222 0.0
H1865 H 0.85576 0.9105 0.25661 0.0
H1866 H 0.92234 0.73141 0.28192 0.0
H1867 H 0.88051 0.51263 0.23816 0.0
H1868 H 0.87726 0.84116 0.24762 0.0
H1869 H 0.78201 0.92674 0.25944 0.0
H1870 H 0.8463 0.57945 0.23951 0.0
H1871 H 0.67462 0.70131 0.24785 0.0
H1872 H 0.70879 0.90256 0.25871 0.0
H1873 H 0.65973 0.84572 0.25621 0.0
H1874 H 0.98288 0.72435 0.30062 0.0
H1875 H 0.64687 0.77062 0.25268 0.0
H1876 H 0.94675 0.50216 0.25334 0.0
N1877 N 0.92263 0.66968 0.27325 0.0
C1878 C 0.94356 0.63388 0.27335 0.0
C1879 C 0.97192 0.6984 0.29321 0.0
C1880 C 0.97982 0.62901 0.28325 0.0
C1881 C 0.93648 0.70183 0.28307 0.0
C1882 C 0.99374 0.66179 0.29332 0.0
N1883 N 0.89292 0.60747 0.25479 0.0
C1884 C 0.87543 0.57573 0.24591 0.0
C1885 C 0.94906 0.56396 0.26339 0.0
C1886 C 0.92845 0.60189 0.26365 0.0
C1887 C 0.93185 0.53173 0.2539 0.0
C1888 C 0.89451 0.53751 0.24532 0.0
H1889 H 1.02143 0.65928 0.30108 0.0
H1890 H 1.02902 0.58746 0.29019 0.0
H1891 H 1.0021 0.5304 0.27271 0.0
O1892 O 0.80104 0.6828 0.26462 0.0
O1893 O 0.86593 0.66018 0.22797 0.0
O1894 O 0.88255 0.72303 0.21912 0.0
O1895 O 0.83582 0.62716 0.27121 0.0
O1896 O 0.81659 0.64305 0.23067 0.0
O1897 O 0.79217 0.69891 0.21723 0.0
O1898 O 0.84659 0.80057 0.21492 0.0
O1899 O 0.81681 0.76931 0.26368 0.0
O1900 O 0.84999 0.72086 0.27835 0.0
O1901 O 0.78825 0.77004 0.21236 0.0
O1902 O 0.90525 0.77283 0.23867 0.0
O1903 O 0.92848 0.71302 0.24961 0.0
C1904 C 0.8835 0.68367 0.2171 0.0
C1905 C 0.7839 0.64668 0.29022 0.0
C1906 C 0.74035 0.60833 0.30946 0.0
C1907 C 0.75885 0.62829 0.32362 0.0
C1908 C 0.80355 0.66486 0.30447 0.0
C1909 C 0.78988 0.65691 0.32106 0.0
C1910 C 0.75085 0.62011 0.29276 0.0
C1911 C 0.79017 0.65703 0.21769 0.0
C1912 C 0.80167 0.64793 0.27303 0.0
C1913 C 1.00098 0.59165 0.2828 0.0
C1914 C 0.98569 0.5592 0.27283 0.0
C1915 C 0.82696 0.75464 0.27921 0.0
C1916 C 0.78957 0.84142 0.20763 0.0
C1917 C 0.80754 0.91004 0.20126 0.0
C1918 C 0.76864 0.91731 0.19395 0.0
C1919 C 0.75024 0.84716 0.20048 0.0
C1920 C 0.81365 0.87552 0.21113 0.0
C1921 C 0.73887 0.88625 0.19463 0.0
C1922 C 0.93926 0.75158 0.24427 0.0
C1923 C 0.81004 0.80139 0.20803 0.0
H1924 H 0.75077 0.62027 0.33667 0.0
H1925 H 0.83055 0.68349 0.30309 0.0
H1926 H 0.80522 0.67108 0.33194 0.0
H1927 H 0.73648 0.605 0.28179 0.0
H1928 H 0.76292 0.94427 0.18626 0.0
H1929 H 0.72985 0.82146 0.19835 0.0
H1930 H 0.84389 0.87165 0.21684 0.0
H1931 H 0.70912 0.89083 0.18864 0.0
Eu1932 Eu 0.65426 0.61146 0.50619 0.0
C1933 C 0.54088 0.49462 0.51312 0.0
N1934 N 0.57732 0.50954 0.50696 0.0
C1935 C 0.60992 0.44542 0.51349 0.0
C1936 C 0.53869 0.45527 0.5205 0.0
C1937 C 0.61074 0.48437 0.50617 0.0
C1938 C 0.57393 0.43095 0.52083 0.0
C1939 C 0.46849 0.50532 0.51971 0.0
C1940 C 0.50537 0.51897 0.51239 0.0
C1941 C 0.46646 0.46589 0.52671 0.0
C1942 C 0.50138 0.44102 0.52712 0.0
Eu1943 Eu 0.5699 0.5716 0.49126 0.0
N1944 N 0.50812 0.55755 0.50578 0.0
C1945 C 0.43493 0.53209 0.52013 0.0
C1946 C 0.4761 0.58447 0.50686 0.0
C1947 C 0.43898 0.57202 0.51401 0.0
H1948 H 0.63814 0.49326 0.49958 0.0
H1949 H 0.41337 0.59302 0.51462 0.0
H1950 H 0.5927 0.65107 0.53732 0.0
H1951 H 0.80349 0.66485 0.4844 0.0
H1952 H 0.47911 0.61498 0.50169 0.0
H1953 H 0.40589 0.5224 0.52536 0.0
H1954 H 0.74189 0.62056 0.48455 0.0
H1955 H 0.63689 0.42615 0.51309 0.0
H1956 H 0.43814 0.45438 0.53201 0.0
H1957 H 0.49923 0.41074 0.53268 0.0
H1958 H 0.59364 0.70728 0.55832 0.0
H1959 H 0.57339 0.40055 0.52635 0.0
H1960 H 0.80721 0.72503 0.50344 0.0
N1961 N 0.65081 0.66577 0.52662 0.0
C1962 C 0.68289 0.69232 0.5268 0.0
C1963 C 0.61911 0.70324 0.54963 0.0
C1964 C 0.68415 0.72561 0.53841 0.0
C1965 C 0.61913 0.67075 0.53791 0.0
C1966 C 0.65176 0.73079 0.5499 0.0
N1967 N 0.71233 0.65423 0.5042 0.0
C1968 C 0.74332 0.64669 0.49295 0.0
C1969 C 0.74831 0.71331 0.51511 0.0
C1970 C 0.7144 0.68649 0.5152 0.0
C1971 C 0.78034 0.70555 0.50371 0.0
C1972 C 0.77809 0.67176 0.49277 0.0
H1973 H 0.65158 0.75604 0.55896 0.0
H1974 H 0.71901 0.77844 0.54699 0.0
H1975 H 0.77539 0.76744 0.52667 0.0
O1976 O 0.65919 0.55065 0.51588 0.0
O1977 O 0.64568 0.61637 0.47743 0.0
O1978 O 0.577 0.62385 0.47418 0.0
O1979 O 0.71183 0.59254 0.51844 0.0
O1980 O 0.68484 0.57132 0.48158 0.0
O1981 O 0.62852 0.53522 0.47491 0.0
O1982 O 0.51309 0.55756 0.47815 0.0
O1983 O 0.55543 0.57643 0.52109 0.0
O1984 O 0.61889 0.58188 0.53111 0.0
O1985 O 0.56802 0.52569 0.47054 0.0
O1986 O 0.55413 0.64978 0.49304 0.0
O1987 O 0.61406 0.67577 0.50304 0.0
C1988 C 0.61355 0.62771 0.46833 0.0
C1989 C 0.70477 0.53856 0.53865 0.0
C1990 C 0.72785 0.47951 0.55528 0.0
C1991 C 0.70757 0.49642 0.56972 0.0
C1992 C 0.68985 0.55707 0.55361 0.0
C1993 C 0.69025 0.53544 0.56903 0.0
C1994 C 0.72392 0.50033 0.53952 0.0
C1995 C 0.6703 0.53912 0.47183 0.0
C1996 C 0.69684 0.55602 0.52167 0.0
C1997 C 0.71756 0.7527 0.53819 0.0
C1998 C 0.74961 0.74651 0.52659 0.0
C1999 C 0.57983 0.57183 0.53455 0.0
C2000 C 0.50998 0.52214 0.4522 0.0
C2001 C 0.46314 0.55642 0.43344 0.0
C2002 C 0.4434 0.51937 0.42957 0.0
C2003 C 0.492 0.48438 0.44802 0.0
C2004 C 0.49847 0.55698 0.44347 0.0
C2005 C 0.45929 0.48293 0.43622 0.0
C2006 C 0.57515 0.68554 0.49793 0.0
C2007 C 0.52841 0.52803 0.46899 0.0
H2008 H 0.7065 0.48064 0.58191 0.0
H2009 H 0.67604 0.58716 0.55322 0.0
H2010 H 0.67671 0.54869 0.58044 0.0
H2011 H 0.73516 0.48718 0.52774 0.0
H2012 H 0.41475 0.51897 0.42251 0.0
H2013 H 0.50075 0.45693 0.45492 0.0
H2014 H 0.51236 0.5861 0.44704 0.0
H2015 H 0.44403 0.45421 0.4335 0.0
Eu2016 Eu 0.33242 0.32005 0.23724 0.0
C2017 C 0.38339 0.4975 0.24755 0.0
N2018 N 0.40532 0.4631 0.25095 0.0
C2019 C 0.46788 0.50119 0.24896 0.0
C2020 C 0.40304 0.53449 0.24336 0.0
C2021 C 0.44716 0.46432 0.25161 0.0
C2022 C 0.44587 0.53613 0.2443 0.0
C2023 C 0.31737 0.5312 0.24591 0.0
C2024 C 0.34138 0.49662 0.24977 0.0
C2025 C 0.33644 0.56711 0.24013 0.0
C2026 C 0.37932 0.56901 0.2392 0.0
Eu2027 Eu 0.36715 0.40329 0.25708 0.0
N2028 N 0.32387 0.46178 0.25591 0.0
C2029 C 0.27513 0.52903 0.24866 0.0
C2030 C 0.28432 0.46244 0.26156 0.0
C2031 C 0.25903 0.49571 0.25761 0.0
H2032 H 0.46422 0.43738 0.2552 0.0
H2033 H 0.22706 0.49538 0.26124 0.0
H2034 H 0.26041 0.39307 0.2468 0.0
H2035 H 0.34363 0.16548 0.263 0.0
H2036 H 0.27188 0.43665 0.26839 0.0
H2037 H 0.25527 0.55436 0.24526 0.0
H2038 H 0.36982 0.22958 0.25011 0.0
H2039 H 0.5007 0.50289 0.25066 0.0
H2040 H 0.31856 0.59417 0.23722 0.0
H2041 H 0.39385 0.59751 0.23562 0.0
H2042 H 0.19068 0.3966 0.25816 0.0
H2043 H 0.46218 0.56434 0.2418 0.0
H2044 H 0.27151 0.16137 0.27248 0.0
N2045 N 0.26741 0.32988 0.25051 0.0
C2046 C 0.24995 0.29502 0.2568 0.0
C2047 C 0.20682 0.3677 0.25772 0.0
C2048 C 0.20997 0.29542 0.26363 0.0
C2049 C 0.24648 0.36578 0.2511 0.0
C2050 C 0.18828 0.33229 0.26386 0.0
N2051 N 0.31308 0.26082 0.25245 0.0
C2052 C 0.33848 0.22796 0.25447 0.0
C2053 C 0.2573 0.22369 0.26516 0.0
C2054 C 0.27334 0.25939 0.25765 0.0
C2055 C 0.28281 0.18944 0.26685 0.0
C2056 C 0.32366 0.19171 0.26163 0.0
H2057 H 0.15762 0.33392 0.26909 0.0
H2058 H 0.16253 0.25917 0.27564 0.0
H2059 H 0.20385 0.19638 0.27688 0.0
O2060 O 0.34695 0.27 0.21991 0.0
O2061 O 0.33662 0.30716 0.26777 0.0
O2062 O 0.31815 0.36873 0.27575 0.0
O2063 O 0.28555 0.29527 0.22003 0.0
O2064 O 0.40871 0.30226 0.24138 0.0
O2065 O 0.4323 0.36086 0.25365 0.0
O2066 O 0.39278 0.4434 0.27687 0.0
O2067 O 0.40942 0.38799 0.23606 0.0
O2068 O 0.36226 0.36076 0.21807 0.0
O2069 O 0.38201 0.38008 0.28289 0.0
O2070 O 0.31834 0.43038 0.233 0.0
O2071 O 0.29499 0.37423 0.21949 0.0
C2072 C 0.31884 0.32892 0.2802 0.0
C2073 C 0.29059 0.22408 0.21777 0.0
C2074 C 0.3059 0.15579 0.21018 0.0
C2075 C 0.26418 0.14653 0.20791 0.0
C2076 C 0.24833 0.21643 0.21567 0.0
C2077 C 0.235 0.17657 0.21183 0.0
C2078 C 0.31728 0.19125 0.2187 0.0
C2079 C 0.44318 0.32217 0.24797 0.0
C2080 C 0.30846 0.26489 0.21551 0.0
C2081 C 0.19331 0.25942 0.27048 0.0
C2082 C 0.21685 0.22364 0.2712 0.0
C2083 C 0.39805 0.37632 0.22077 0.0
C2084 C 0.3728 0.42885 0.30493 0.0
C2085 C 0.32029 0.4716 0.3177 0.0
C2086 C 0.34324 0.47298 0.33312 0.0
C2087 C 0.39552 0.43021 0.32033 0.0
C2088 C 0.33388 0.4468 0.30419 0.0
C2089 C 0.38028 0.4516 0.33451 0.0
C2090 C 0.29339 0.41629 0.21966 0.0
C2091 C 0.39228 0.41584 0.2889 0.0
H2092 H 0.25469 0.11874 0.20143 0.0
H2093 H 0.2263 0.24118 0.21586 0.0
H2094 H 0.20272 0.17051 0.2097 0.0
H2095 H 0.34988 0.19688 0.22066 0.0
H2096 H 0.33332 0.4918 0.34381 0.0
H2097 H 0.42567 0.41636 0.32112 0.0
H2098 H 0.31641 0.44564 0.29235 0.0
H2099 H 0.39828 0.45352 0.34628 0.0
Eu2100 Eu 0.50416 0.57996 0.98476 0.0
C2101 C 0.377 0.70045 1.01693 0.0
N2102 N 0.41172 0.67916 1.02047 0.0
C2103 C 0.4301 0.72816 1.04241 0.0
C2104 C 0.36795 0.73713 1.02578 0.0
C2105 C 0.43695 0.69134 1.03376 0.0
C2106 C 0.39571 0.75151 1.03823 0.0
C2107 C 0.31031 0.70275 1.00305 0.0
C2108 C 0.34891 0.68379 1.00551 0.0
C2109 C 0.30171 0.73983 1.01137 0.0
C2110 C 0.33066 0.75722 1.0226 0.0
Eu2111 Eu 0.42304 0.61727 1.00487 0.0
N2112 N 0.35781 0.64737 0.99795 0.0
C2113 C 0.28063 0.68303 0.99296 0.0
C2114 C 0.32847 0.62824 0.98801 0.0
C2115 C 0.28967 0.6454 0.98557 0.0
H2116 H 0.46375 0.67378 1.03706 0.0
H2117 H 0.2667 0.62945 0.97795 0.0
H2118 H 0.44276 0.49717 0.99445 0.0
H2119 H 0.66 0.60503 1.00913 0.0
H2120 H 0.33297 0.59867 0.98247 0.0
H2121 H 0.25054 0.69633 0.99097 0.0
H2122 H 0.59091 0.62566 0.99918 0.0
H2123 H 0.45122 0.73834 1.05238 0.0
H2124 H 0.2725 0.755 1.00942 0.0
H2125 H 0.32337 0.78555 1.02915 0.0
H2126 H 0.4528 0.42355 0.99904 0.0
H2127 H 0.39006 0.77975 1.04514 0.0
H2128 H 0.67699 0.53199 1.01199 0.0
N2129 N 0.5066 0.51083 0.99394 0.0
C2130 C 0.54555 0.49621 0.99646 0.0
C2131 C 0.47911 0.44359 0.99812 0.0
C2132 C 0.55239 0.45445 0.9999 0.0
C2133 C 0.47353 0.48541 0.99524 0.0
C2134 C 0.5187 0.42793 1.00016 0.0
N2135 N 0.56996 0.56484 0.99575 0.0
C2136 C 0.5981 0.59371 1.00036 0.0
C2137 C 0.61698 0.51101 1.00355 0.0
C2138 C 0.57793 0.5242 0.998 0.0
C2139 C 0.64692 0.54059 1.0073 0.0
C2140 C 0.63727 0.58205 1.00592 0.0
H2141 H 0.52276 0.39565 1.00276 0.0
H2142 H 0.59797 0.40885 1.0066 0.0
H2143 H 0.65387 0.45814 1.01029 0.0
O2144 O 0.55524 0.56503 0.96798 0.0
O2145 O 0.50994 0.55588 1.01399 0.0
O2146 O 0.47368 0.60336 1.02734 0.0
O2147 O 0.49358 0.56667 0.95744 0.0
O2148 O 0.5236 0.65594 0.99146 0.0
O2149 O 0.46529 0.68145 1.00247 0.0
O2150 O 0.41483 0.55567 1.01558 0.0
O2151 O 0.42033 0.61864 0.97624 0.0
O2152 O 0.48331 0.64012 0.97444 0.0
O2153 O 0.38331 0.60882 1.02641 0.0
O2154 O 0.39335 0.56713 0.98215 0.0
O2155 O 0.44877 0.54078 0.96929 0.0
C2156 C 0.50021 0.57227 1.02907 0.0
C2157 C 0.54329 0.60507 0.94407 0.0
C2158 C 0.58371 0.66604 0.94472 0.0
C2159 C 0.57999 0.66876 0.92666 0.0
C2160 C 0.53705 0.60829 0.92629 0.0
C2161 C 0.55406 0.64171 0.91764 0.0
C2162 C 0.56107 0.63731 0.95313 0.0
C2163 C 0.5043 0.69133 0.99762 0.0
C2164 C 0.53249 0.5696 0.9542 0.0
C2165 C 0.59213 0.44088 1.00403 0.0
C2166 C 0.62416 0.46908 1.00606 0.0
C2167 C 0.44622 0.64205 0.96855 0.0
C2168 C 0.34645 0.54794 1.02606 0.0
C2169 C 0.30535 0.49081 1.03574 0.0
C2170 C 0.26965 0.51249 1.03084 0.0
C2171 C 0.3102 0.56984 1.02238 0.0
C2172 C 0.34386 0.50768 1.03203 0.0
C2173 C 0.27217 0.55156 1.02409 0.0
C2174 C 0.40701 0.54009 0.96961 0.0
C2175 C 0.38615 0.56904 1.02601 0.0
H2176 H 0.59938 0.68909 0.91945 0.0
H2177 H 0.52079 0.58471 0.91917 0.0
H2178 H 0.55079 0.6441 0.90379 0.0
H2179 H 0.56296 0.63689 0.967 0.0
H2180 H 0.23944 0.5002 1.03304 0.0
H2181 H 0.31081 0.60169 1.01888 0.0
H2182 H 0.37171 0.49068 1.03461 0.0
H2183 H 0.24453 0.56859 1.02111 0.0
Eu2184 Eu 0.24666 0.74925 0.73796 0.0
C2185 C 0.13562 0.63427 0.77652 0.0
N2186 N 0.16237 0.66599 0.77776 0.0
C2187 C 0.12439 0.69368 0.80145 0.0
C2188 C 0.10115 0.63188 0.78731 0.0
C2189 C 0.158 0.69484 0.79041 0.0
C2190 C 0.09549 0.66241 0.79973 0.0
C2191 C 0.11746 0.56912 0.76358 0.0
C2192 C 0.14366 0.60331 0.76484 0.0
C2193 C 0.08215 0.56739 0.77378 0.0
C2194 C 0.07404 0.5987 0.78564 0.0
Eu2195 Eu 0.21744 0.6659 0.75795 0.0
N2196 N 0.17827 0.6056 0.75535 0.0
C2197 C 0.12813 0.53719 0.75243 0.0
C2198 C 0.18939 0.57419 0.7448 0.0
C2199 C 0.16463 0.53948 0.74321 0.0
H2200 H 0.17931 0.71987 0.79157 0.0
H2201 H 0.17357 0.51468 0.73478 0.0
H2202 H 0.32837 0.68488 0.74738 0.0
H2203 H 0.22228 0.90739 0.75803 0.0
H2204 H 0.21757 0.5756 0.73775 0.0
H2205 H 0.10887 0.51034 0.75112 0.0
H2206 H 0.20155 0.83911 0.74701 0.0
H2207 H 0.12055 0.71719 0.81115 0.0
H2208 H 0.06145 0.54154 0.77288 0.0
H2209 H 0.04717 0.59653 0.7937 0.0
H2210 H 0.39744 0.69091 0.75929 0.0
H2211 H 0.06938 0.66169 0.80826 0.0
H2212 H 0.29365 0.91914 0.76791 0.0
N2213 N 0.31182 0.7469 0.75218 0.0
C2214 C 0.32603 0.78451 0.75738 0.0
C2215 C 0.37754 0.71739 0.75898 0.0
C2216 C 0.36615 0.78922 0.76413 0.0
C2217 C 0.33765 0.714 0.75239 0.0
C2218 C 0.3918 0.75503 0.76495 0.0
N2219 N 0.26057 0.81308 0.7509 0.0
C2220 C 0.23257 0.84405 0.75161 0.0
C2221 C 0.31293 0.85686 0.76291 0.0
C2222 C 0.29999 0.81855 0.75651 0.0
C2223 C 0.28473 0.88919 0.76318 0.0
C2224 C 0.24429 0.88263 0.75771 0.0
H2225 H 0.42276 0.75744 0.77005 0.0
H2226 H 0.4103 0.83179 0.77505 0.0
H2227 H 0.36367 0.89073 0.77414 0.0
O2228 O 0.23424 0.79444 0.71839 0.0
O2229 O 0.24389 0.76953 0.76795 0.0
O2230 O 0.24851 0.70828 0.77991 0.0
O2231 O 0.29367 0.76577 0.71915 0.0
O2232 O 0.17053 0.76404 0.74106 0.0
O2233 O 0.15138 0.70769 0.75588 0.0
O2234 O 0.2791 0.66167 0.76748 0.0
O2235 O 0.21091 0.6578 0.73003 0.0
O2236 O 0.19416 0.72239 0.72327 0.0
O2237 O 0.23454 0.61458 0.77463 0.0
O2238 O 0.26173 0.63558 0.73374 0.0
O2239 O 0.28677 0.69309 0.72207 0.0
C2240 C 0.25357 0.74832 0.78206 0.0
C2241 C 0.29151 0.83623 0.71272 0.0
C2242 C 0.2734 0.90402 0.70464 0.0
C2243 C 0.31285 0.91108 0.69822 0.0
C2244 C 0.33146 0.84202 0.70651 0.0
C2245 C 0.34283 0.88057 0.70018 0.0
C2246 C 0.26615 0.86996 0.71461 0.0
C2247 C 0.13819 0.74409 0.74877 0.0
C2248 C 0.27203 0.79577 0.71318 0.0
C2249 C 0.37955 0.82778 0.7699 0.0
C2250 C 0.35305 0.86143 0.76931 0.0
C2251 C 0.19406 0.68391 0.71971 0.0
C2252 C 0.28874 0.63181 0.79424 0.0
C2253 C 0.34937 0.62643 0.81288 0.0
C2254 C 0.32836 0.65001 0.82534 0.0
C2255 C 0.26713 0.65094 0.80752 0.0
C2256 C 0.32957 0.62014 0.79687 0.0
C2257 C 0.28733 0.66103 0.82284 0.0
C2258 C 0.28877 0.65081 0.7216 0.0
C2259 C 0.27187 0.62911 0.77675 0.0
H2260 H 0.31908 0.93765 0.69037 0.0
H2261 H 0.35251 0.81654 0.70547 0.0
H2262 H 0.37313 0.88504 0.69492 0.0
H2263 H 0.23514 0.86593 0.71924 0.0
H2264 H 0.3421 0.65744 0.83769 0.0
H2265 H 0.23541 0.65991 0.80574 0.0
H2266 H 0.34533 0.60526 0.78638 0.0
H2267 H 0.27113 0.67729 0.83286 0.0
Eu2268 Eu 0.08126 0.49941 0.48573 0.0
C2269 C 0.20141 0.3801 0.52242 0.0
N2270 N 0.16754 0.40388 0.5238 0.0
C2271 C 0.13959 0.35683 0.54448 0.0
C2272 C 0.20534 0.34322 0.53173 0.0
C2273 C 0.13691 0.39279 0.53486 0.0
C2274 C 0.17388 0.33178 0.54285 0.0
C2275 C 0.2685 0.36943 0.51012 0.0
C2276 C 0.23249 0.393 0.51183 0.0
C2277 C 0.27202 0.33205 0.51886 0.0
C2278 C 0.24053 0.31901 0.52969 0.0
Eu2279 Eu 0.16384 0.46289 0.50551 0.0
N2280 N 0.22812 0.42925 0.50361 0.0
C2281 C 0.30015 0.38444 0.49987 0.0
C2282 C 0.25946 0.44452 0.49401 0.0
C2283 C 0.29578 0.42244 0.49195 0.0
H2284 H 0.10849 0.40941 0.53504 0.0
H2285 H 0.32026 0.43466 0.48417 0.0
H2286 H 0.14205 0.58314 0.49486 0.0
H2287 H 0.92465 0.46953 0.50744 0.0
H2288 H 0.25698 0.47393 0.48802 0.0
H2289 H 0.32824 0.36725 0.49818 0.0
H2290 H 0.9939 0.45035 0.4974 0.0
H2291 H 0.11463 0.34793 0.55278 0.0
H2292 H 0.29924 0.31334 0.51756 0.0
H2293 H 0.24386 0.29039 0.53657 0.0
H2294 H 0.13077 0.65559 0.50119 0.0
H2295 H 0.1757 0.30366 0.55017 0.0
H2296 H 0.90774 0.5422 0.51265 0.0
N2297 N 0.07905 0.56655 0.49721 0.0
C2298 C 1.03996 0.5802 0.50023 0.0
C2299 C 0.10504 0.63467 0.501 0.0
C2300 C 1.03248 0.62161 0.50419 0.0
C2301 C 0.11132 0.59323 0.49747 0.0
C2302 C 0.06551 0.64898 0.50424 0.0
N2303 N 1.01587 0.51155 0.49748 0.0
C2304 C 0.987 0.48201 0.50006 0.0
C2305 C 0.96847 0.564 0.50625 0.0
C2306 C 1.00774 0.55176 0.50088 0.0
C2307 C 0.93826 0.534 0.50844 0.0
C2308 C 0.94773 0.49285 0.50557 0.0
H2309 H 0.06095 0.68106 0.50716 0.0
H2310 H 0.98641 0.66593 0.51153 0.0
H2311 H 0.93072 0.61556 0.51361 0.0
O2312 O 1.02634 0.50964 0.47051 0.0
O2313 O 0.07144 0.51551 0.51594 0.0
O2314 O 0.11979 0.47993 0.52987 0.0
O2315 O 0.08407 0.53344 0.46161 0.0
O2316 O 0.06334 0.42279 0.48935 0.0
O2317 O 0.12168 0.39862 0.50175 0.0
O2318 O 0.15772 0.52537 0.51427 0.0
O2319 O 0.16848 0.45817 0.47763 0.0
O2320 O 0.10292 0.44371 0.47114 0.0
O2321 O 0.212 0.48905 0.52169 0.0
O2322 O 0.19385 0.50426 0.48014 0.0
O2323 O 0.13844 0.538 0.47067 0.0
C2324 C 0.08682 0.50448 0.53121 0.0
C2325 C 1.0377 0.50997 0.44106 0.0
C2326 C 1.00647 0.45572 0.42507 0.0
C2327 C 1.01517 0.47538 0.40951 0.0
C2328 C 0.04672 0.53072 0.42576 0.0
C2329 C 1.03718 0.51227 0.4099 0.0
C2330 C 1.02181 0.47075 0.44036 0.0
C2331 C 0.08328 0.38827 0.49586 0.0
C2332 C 0.04565 0.52723 0.45794 0.0
C2333 C 0.99268 0.63418 0.50852 0.0
C2334 C 0.9609 0.60547 0.5097 0.0
C2335 C 0.14181 0.44029 0.46787 0.0
C2336 C 0.21994 0.56107 0.51938 0.0
C2337 C 0.25107 0.62273 0.53191 0.0
C2338 C 0.27126 0.62926 0.51609 0.0
C2339 C 0.2431 0.56658 0.50446 0.0
C2340 C 0.22318 0.58954 0.53275 0.0
C2341 C 0.26729 0.60131 0.50257 0.0
C2342 C 0.18031 0.5351 0.46911 0.0
C2343 C 0.19382 0.52497 0.522 0.0
H2344 H 1.00373 0.4632 0.39743 0.0
H2345 H 0.06126 0.5605 0.42611 0.0
H2346 H 0.04509 0.52757 0.39807 0.0
H2347 H 1.01608 0.45364 0.45209 0.0
H2348 H 0.29217 0.65443 0.5143 0.0
H2349 H 0.24353 0.54406 0.4944 0.0
H2350 H 0.20587 0.5834 0.54428 0.0
H2351 H 0.28453 0.60567 0.49086 0.0
Eu2352 Eu 0.33395 0.75391 0.39759 0.0
C2353 C 0.45619 0.63287 0.36252 0.0
N2354 N 0.43249 0.6662 0.35971 0.0
C2355 C 0.48028 0.68946 0.33834 0.0
C2356 C 0.49376 0.62727 0.35389 0.0
C2357 C 0.44356 0.69367 0.34733 0.0
C2358 C 0.50595 0.65648 0.34187 0.0
C2359 C 0.4625 0.56559 0.37492 0.0
C2360 C 0.44096 0.60273 0.37289 0.0
C2361 C 0.50135 0.56098 0.36749 0.0
C2362 C 0.51698 0.59186 0.35695 0.0
Eu2363 Eu 0.37179 0.67371 0.37678 0.0
N2364 N 0.40308 0.60809 0.37953 0.0
C2365 C 0.4434 0.53348 0.38356 0.0
C2366 C 0.38346 0.57593 0.38706 0.0
C2367 C 0.40312 0.53827 0.38908 0.0
H2368 H 0.42586 0.72065 0.34531 0.0
H2369 H 0.38697 0.51282 0.39477 0.0
H2370 H 0.25269 0.69213 0.38664 0.0
H2371 H 0.35651 0.91591 0.38316 0.0
H2372 H 0.35197 0.57838 0.39092 0.0
H2373 H 0.45867 0.50433 0.38526 0.0
H2374 H 0.37874 0.8457 0.39078 0.0
H2375 H 0.48903 0.71211 0.32892 0.0
H2376 H 0.51871 0.53302 0.36919 0.0
H2377 H 0.54615 0.58732 0.35066 0.0
H2378 H 0.17959 0.70122 0.38011 0.0
H2379 H 0.53446 0.65327 0.33493 0.0
H2380 H 0.28311 0.93029 0.3775 0.0
N2381 N 0.26651 0.75585 0.38611 0.0
C2382 C 0.25108 0.79459 0.38446 0.0
C2383 C 0.19942 0.72768 0.38119 0.0
C2384 C 0.2093 0.80093 0.38041 0.0
C2385 C 0.24121 0.72265 0.38478 0.0
C2386 C 0.18337 0.76691 0.37904 0.0
N2387 N 0.31859 0.82107 0.38895 0.0
C2388 C 0.3468 0.85173 0.38797 0.0
C2389 C 0.26406 0.86754 0.38131 0.0
C2390 C 0.27809 0.82793 0.38534 0.0
C2391 C 0.29268 0.89947 0.38067 0.0
C2392 C 0.33423 0.89144 0.38382 0.0
H2393 H 0.15105 0.77056 0.37603 0.0
H2394 H 0.16294 0.84614 0.37422 0.0
H2395 H 0.21085 0.90419 0.37469 0.0
O2396 O 0.32516 0.80245 0.4164 0.0
O2397 O 0.31539 0.76621 0.36771 0.0
O2398 O 0.35666 0.72297 0.35391 0.0
O2399 O 0.29956 0.7421 0.42084 0.0
O2400 O 0.41038 0.77399 0.39383 0.0
O2401 O 0.4351 0.71844 0.37973 0.0
O2402 O 0.30961 0.67845 0.36706 0.0
O2403 O 0.37486 0.66751 0.40497 0.0
O2404 O 0.39236 0.73207 0.40999 0.0
O2405 O 0.34874 0.62699 0.35916 0.0
O2406 O 0.32802 0.6411 0.40113 0.0
O2407 O 0.29607 0.69569 0.41202 0.0
C2408 C 0.32911 0.7536 0.35247 0.0
C2409 C 0.32654 0.77575 0.44433 0.0
C2410 C 0.38282 0.80105 0.46075 0.0
C2411 C 0.36106 0.79564 0.47608 0.0
C2412 C 0.30356 0.77001 0.45932 0.0
C2413 C 0.32191 0.77792 0.47539 0.0
C2414 C 0.36803 0.78461 0.44555 0.0
C2415 C 0.44503 0.75624 0.38638 0.0
C2416 C 0.30768 0.77774 0.4274 0.0
C2417 C 0.19496 0.84075 0.37733 0.0
C2418 C 0.22227 0.87386 0.37762 0.0
C2419 C 0.39282 0.69417 0.41467 0.0
C2420 C 0.29225 0.64385 0.34103 0.0
C2421 C 0.24393 0.60903 0.3218 0.0
C2422 C 0.24679 0.64268 0.31043 0.0
C2423 C 0.30045 0.67216 0.32804 0.0
C2424 C 0.26458 0.61214 0.3378 0.0
C2425 C 0.27616 0.67303 0.31323 0.0
C2426 C 0.29808 0.65384 0.41273 0.0
C2427 C 0.31282 0.64483 0.35786 0.0
H2428 H 0.37279 0.80797 0.48809 0.0
H2429 H 0.27155 0.76126 0.45855 0.0
H2430 H 0.30439 0.77412 0.48704 0.0
H2431 H 0.38591 0.78864 0.43393 0.0
H2432 H 0.22913 0.64432 0.29867 0.0
H2433 H 0.32563 0.69307 0.32909 0.0
H2434 H 0.26241 0.58809 0.34731 0.0
H2435 H 0.28117 0.69634 0.30357 0.0
Eu2436 Eu 0.07894 0.58304 0.14756 0.0
C2437 C 0.19299 0.69298 0.10886 0.0
N2438 N 0.16025 0.66739 0.10801 0.0
C2439 C 0.13034 0.70805 0.08543 0.0
C2440 C 0.19505 0.72801 0.09834 0.0
C2441 C 0.12973 0.67366 0.09607 0.0
C2442 C 0.1629 0.73562 0.0867 0.0
C2443 C 0.26048 0.70816 0.1206 0.0
C2444 C 0.22517 0.68333 0.11987 0.0
C2445 C 0.2621 0.74387 0.11062 0.0
C2446 C 0.22942 0.7538 0.09953 0.0
Eu2447 Eu 0.16118 0.6112 0.12733 0.0
N2448 N 0.22277 0.6486 0.1293 0.0
C2449 C 0.29349 0.69583 0.13104 0.0
C2450 C 0.2549 0.63619 0.1394 0.0
C2451 C 0.29086 0.65938 0.1403 0.0
H2452 H 0.10377 0.65342 0.0953 0.0
H2453 H 0.31627 0.64945 0.14833 0.0
H2454 H 0.14674 0.5029 0.13825 0.0
H2455 H 0.91773 0.59858 0.13026 0.0
H2456 H 0.25301 0.6082 0.14668 0.0
H2457 H 0.32124 0.71398 0.1319 0.0
H2458 H 0.98732 0.62464 0.13758 0.0
H2459 H 0.10548 0.71343 0.07636 0.0
H2460 H 0.2888 0.76358 0.11113 0.0
H2461 H 0.2314 0.78105 0.09166 0.0
H2462 H 0.14183 0.43301 0.12795 0.0
H2463 H 0.16328 0.76228 0.07844 0.0
H2464 H 0.90801 0.52416 0.12504 0.0
N2465 N 0.08355 0.51721 0.13423 0.0
C2466 C 0.04589 0.50125 0.12998 0.0
C2467 C 0.11462 0.45193 0.12835 0.0
C2468 C 1.04162 0.45995 0.12484 0.0
C2469 C 0.11731 0.49242 0.13401 0.0
C2470 C 0.07666 0.43559 0.12377 0.0
N2471 N 1.01558 0.56651 0.13474 0.0
C2472 C 0.9831 0.59286 0.13413 0.0
C2473 C 0.97201 0.51011 0.12686 0.0
C2474 C 1.01103 0.52614 0.13073 0.0
C2475 C 0.93827 0.53633 0.12717 0.0
C2476 C 0.94383 0.57812 0.13021 0.0
H2477 H 0.07463 0.40391 0.11971 0.0
H2478 H 0.9988 0.41214 0.11747 0.0
H2479 H 0.93784 0.45579 0.11966 0.0
O2480 O 1.03312 0.59794 0.16648 0.0
O2481 O 0.05744 0.58336 0.11721 0.0
O2482 O 0.11849 0.58332 0.10469 0.0
O2483 O 0.06059 0.53819 0.16701 0.0
O2484 O 0.06274 0.6581 0.14448 0.0
O2485 O 0.12006 0.67763 0.1305 0.0
O2486 O 0.16243 0.55081 0.11696 0.0
O2487 O 0.17319 0.61594 0.15491 0.0
O2488 O 0.1095 0.63435 0.1622 0.0
O2489 O 0.21255 0.59308 0.11094 0.0
O2490 O 0.19129 0.56479 0.15128 0.0
O2491 O 0.13398 0.54323 0.16422 0.0
C2492 C 0.07848 0.57655 0.10272 0.0
C2493 C 0.98903 0.54236 0.17118 0.0
C2494 C 0.91749 0.55538 0.17563 0.0
C2495 C 0.90888 0.51339 0.1755 0.0
C2496 C 0.98148 0.50002 0.17125 0.0
C2497 C 0.94097 0.48568 0.17256 0.0
C2498 C 0.95607 0.56903 0.17104 0.0
C2499 C 0.08325 0.69058 0.13737 0.0
C2500 C 1.0302 0.56057 0.17201 0.0
C2501 C 1.00252 0.44385 0.12125 0.0
C2502 C 0.96777 0.46864 0.12258 0.0
C2503 C 0.14847 0.63352 0.16541 0.0
C2504 C 0.1972 0.53818 0.09163 0.0
C2505 C 0.21153 0.47762 0.07422 0.0
C2506 C 0.18689 0.49477 1.06094 0.0
C2507 C 0.1761 0.55603 0.07783 0.0
C2508 C 0.21426 0.49924 0.08989 0.0
C2509 C 0.16967 0.53367 1.0628 0.0
C2510 C 0.17617 0.53939 0.16412 0.0
C2511 C 0.19688 0.55637 0.10876 0.0
H2512 H 0.879 0.50226 0.17927 0.0
H2513 H 1.00652 0.47836 0.17056 0.0
H2514 H 0.93502 0.45314 0.1728 0.0
H2515 H 0.96157 0.60184 0.17098 0.0
H2516 H 0.18221 0.47937 1.04876 0.0
H2517 H 0.16307 0.58636 0.07888 0.0
H2518 H 0.23004 0.48639 0.1009 0.0
H2519 H 0.15117 0.54679 1.05265 0.0
Eu2520 Eu 0.24395 0.32655 0.89898 0.0
C2521 C 0.12751 0.46086 0.87379 0.0
N2522 N 0.14477 0.42647 0.86724 0.0
C2523 C 0.08668 0.41731 0.84839 0.0
C2524 C 0.08739 0.47267 0.86902 0.0
C2525 C 0.12669 0.40718 0.85347 0.0
C2526 C 0.0663 0.4492 0.8567 0.0
C2527 C 0.13798 0.52678 0.88745 0.0
C2528 C 0.15257 0.48776 0.88272 0.0
C2529 C 0.09654 0.53654 0.88464 0.0
C2530 C 0.07122 0.50948 0.87539 0.0
Eu2531 Eu 0.21157 0.40994 0.87769 0.0
N2532 N 0.1928 0.47814 0.88437 0.0
C2533 C 0.16611 0.55589 0.89357 0.0
C2534 C 0.22079 0.50762 0.88879 0.0
C2535 C 0.20789 0.54665 0.8937 0.0
H2536 H 0.14291 0.38296 0.84689 0.0
H2537 H 0.23021 0.56961 0.89743 0.0
H2538 H 0.31369 0.39883 0.88466 0.0
H2539 H 0.2343 0.1657 0.88088 0.0
H2540 H 0.25321 0.50162 0.88819 0.0
H2541 H 0.15619 0.5863 0.89719 0.0
H2542 H 0.20814 0.23189 0.89189 0.0
H2543 H 0.07174 0.40076 0.83799 0.0
H2544 H 0.08453 0.56602 0.88851 0.0
H2545 H 1.04012 0.51862 0.87221 0.0
H2546 H 0.38179 0.39957 0.87192 0.0
H2547 H 1.03553 0.45737 0.85259 0.0
H2548 H 0.30547 0.16043 0.87045 0.0
N2549 N 0.30716 0.33434 0.88406 0.0
C2550 C 0.32518 0.29804 0.87952 0.0
C2551 C 0.36622 0.37079 0.87401 0.0
C2552 C 0.36443 0.2972 0.87198 0.0
C2553 C 0.32721 0.37029 0.88132 0.0
C2554 C 0.38507 0.33413 0.86946 0.0
N2555 N 0.26366 0.26354 0.88692 0.0
C2556 C 0.2391 0.22978 0.88708 0.0
C2557 C 0.31908 0.22445 0.87491 0.0
C2558 C 0.30294 0.26163 0.88106 0.0
C2559 C 0.29422 0.1895 0.87517 0.0
C2560 C 0.25395 0.19232 0.88108 0.0
H2561 H 0.41523 0.33474 0.86372 0.0
H2562 H 0.41164 0.25866 0.86104 0.0
H2563 H 0.37187 0.19518 0.8635 0.0
O2564 O 0.22824 0.28174 0.91832 0.0
O2565 O 0.24369 0.30621 0.86876 0.0
O2566 O 0.24226 0.36713 0.85617 0.0
O2567 O 0.28866 0.30822 0.91876 0.0
O2568 O 0.16993 0.30824 0.89535 0.0
O2569 O 0.14887 0.36368 0.88027 0.0
O2570 O 0.26636 0.42353 0.86292 0.0
O2571 O 0.21045 0.42411 0.9053 0.0
O2572 O 0.19304 0.36111 0.91249 0.0
O2573 O 0.20675 0.44667 0.85467 0.0
O2574 O 0.26344 0.43706 0.90067 0.0
O2575 O 0.28428 0.38079 0.91496 0.0
C2576 C 0.25112 0.32762 0.85441 0.0
C2577 C 0.2822 0.2379 0.92531 0.0
C2578 C 0.26645 0.1666 0.92993 0.0
C2579 C 0.30447 0.15501 0.92326 0.0
C2580 C 0.32102 0.22684 0.91904 0.0
C2581 C 0.33186 0.18537 0.91788 0.0
C2582 C 0.25585 0.20774 0.93089 0.0
C2583 C 0.13713 0.32714 0.8876 0.0
C2584 C 0.26533 0.27938 0.92454 0.0
C2585 C 0.38141 0.25977 0.86671 0.0
C2586 C 0.35879 0.22356 0.86813 0.0
C2587 C 0.1952 0.39965 0.91663 0.0
C2588 C 0.26352 0.48883 0.84999 0.0
C2589 C 0.32239 0.53267 0.84554 0.0
C2590 C 0.29669 0.56684 0.84791 0.0
C2591 C 0.23782 0.52344 0.85013 0.0
C2592 C 0.30587 0.49357 0.84769 0.0
C2593 C 0.25466 0.56229 0.84979 0.0
C2594 C 0.28839 0.42244 0.914 0.0
C2595 C 0.24632 0.44802 0.85248 0.0
H2596 H 0.31323 0.1231 0.92274 0.0
H2597 H 0.34227 0.24985 0.91457 0.0
H2598 H 0.36145 0.1768 0.9128 0.0
H2599 H 0.22632 0.2164 0.9362 0.0
H2600 H 0.30885 0.59732 0.84789 0.0
H2601 H 0.20486 0.52072 0.85136 0.0
H2602 H 0.32563 0.46696 0.84748 0.0
H2603 H 0.23512 0.58893 0.85086 0.0
Eu2604 Eu 0.50863 0.49243 0.64926 0.0
C2605 C 0.39612 0.37793 0.61047 0.0
N2606 N 0.42745 0.40524 0.6097 0.0
C2607 C 0.456 0.36865 0.58575 0.0
C2608 C 0.39427 0.34403 0.59922 0.0
C2609 C 0.45657 0.40175 0.59718 0.0
C2610 C 0.42501 0.33938 0.5869 0.0
C2611 C 0.33108 0.3581 0.62285 0.0
C2612 C 0.36504 0.38475 0.62215 0.0
C2613 C 0.32982 0.32349 0.61212 0.0
C2614 C 0.36137 0.31646 0.60033 0.0
Eu2615 Eu 0.42545 0.46052 0.62965 0.0
N2616 N 0.3669 0.41866 0.63219 0.0
C2617 C 0.2988 0.36777 0.63392 0.0
C2618 C 0.33539 0.42846 0.64288 0.0
C2619 C 0.30065 0.40357 0.64373 0.0
H2620 H 0.4813 0.42344 0.59641 0.0
H2621 H 0.2756 0.41175 0.65212 0.0
H2622 H 0.43906 0.56878 0.63893 0.0
H2623 H 0.66713 0.47497 0.62846 0.0
H2624 H 0.33661 0.456 0.65044 0.0
H2625 H 0.27204 0.34826 0.63475 0.0
H2626 H 0.60014 0.45124 0.63958 0.0
H2627 H 0.47968 0.36558 0.57615 0.0
H2628 H 0.30415 0.30249 0.61257 0.0
H2629 H 0.35958 0.29008 0.59188 0.0
H2630 H 0.44112 0.63769 0.62702 0.0
H2631 H 0.42469 0.31375 0.57803 0.0
H2632 H 0.67523 0.54658 0.61891 0.0
N2633 N 0.50237 0.55642 0.63488 0.0
C2634 C 0.53921 0.5725 0.62982 0.0
C2635 C 0.46887 0.61956 0.62762 0.0
C2636 C 0.54164 0.61246 0.62308 0.0
C2637 C 0.46778 0.57992 0.63427 0.0
C2638 C 0.50587 0.6359 0.622 0.0
N2639 N 0.57122 0.50881 0.63603 0.0
C2640 C 0.6035 0.48233 0.63511 0.0
C2641 C 0.61218 0.56296 0.62422 0.0
C2642 C 0.57465 0.54829 0.63061 0.0
C2643 C 0.64585 0.53634 0.62369 0.0
C2644 C 0.64135 0.49576 0.62896 0.0
H2645 H 0.50649 0.66668 0.61688 0.0
H2646 H 0.58184 0.65851 0.6124 0.0
H2647 H 0.64333 0.61512 0.61326 0.0
O2648 O 0.55647 0.48224 0.66821 0.0
O2649 O 0.52742 0.49019 0.61917 0.0
O2650 O 0.46533 0.49285 0.60735 0.0
O2651 O 0.52432 0.53974 0.6683 0.0
O2652 O 0.52579 0.41698 0.64575 0.0
O2653 O 0.46859 0.3956 0.63158 0.0
O2654 O 0.41998 0.51927 0.61749 0.0
O2655 O 0.41942 0.45659 0.6576 0.0
O2656 O 0.48421 0.4394 0.66394 0.0
O2657 O 0.36931 0.47517 0.6157 0.0
O2658 O 0.39483 0.50514 0.65376 0.0
O2659 O 0.45212 0.53175 0.66547 0.0
C2660 C 0.50534 0.49925 0.60514 0.0
C2661 C 0.59592 0.54171 0.67323 0.0
C2662 C 0.66542 0.52878 0.68095 0.0
C2663 C 0.67117 0.56965 0.68598 0.0
C2664 C 0.60005 0.58283 0.67828 0.0
C2665 C 0.63873 0.59743 0.68361 0.0
C2666 C 0.63106 0.51824 0.67137 0.0
C2667 C 0.50617 0.38389 0.63823 0.0
C2668 C 0.55644 0.51998 0.67355 0.0
C2669 C 0.57951 0.62777 0.61748 0.0
C2670 C 0.61461 0.60312 0.61803 0.0
C2671 C 0.44585 0.43936 0.66766 0.0
C2672 C 0.37824 0.52122 0.59299 0.0
C2673 C 0.3471 0.56578 0.57196 0.0
C2674 C 0.36128 0.54024 0.5587 0.0
C2675 C 0.39247 0.4956 0.57983 0.0
C2676 C 0.35718 0.55704 0.58904 0.0
C2677 C 0.38433 0.50546 0.56267 0.0
C2678 C 0.40961 0.53285 0.66593 0.0
C2679 C 0.38373 0.51081 0.61099 0.0
H2680 H 0.69808 0.57864 0.69334 0.0
H2681 H 0.57346 0.60254 0.67914 0.0
H2682 H 0.64204 0.62875 0.68792 0.0
H2683 H 0.62829 0.48645 0.66751 0.0
H2684 H 0.35368 0.54681 0.54537 0.0
H2685 H 0.40916 0.46788 0.58281 0.0
H2686 H 0.34651 0.57691 0.59929 0.0
H2687 H 0.39478 0.48548 0.55252 0.0
C2688 C 0.22951 0.40091 0.45017 0.0
C2689 C 0.23546 0.42925 0.43646 0.0
C2690 C 0.164 0.45027 0.43854 0.0
C2691 C 0.15888 0.4226 0.4523 0.0
N2692 N 0.18066 0.36258 0.46716 0.0
N2693 N 0.20781 0.4775 0.41617 0.0
C2694 C 0.18951 0.39395 0.45623 0.0
C2695 C 0.20241 0.45314 0.43024 0.0
N2696 N 0.26214 0.38013 0.45703 0.0
N2697 N 0.13222 0.47508 0.43423 0.0
H2698 H 0.23656 0.48162 0.41061 0.0
H2699 H 0.18408 0.49273 0.40983 0.0
H2700 H 0.10373 0.46961 0.43956 0.0
H2701 H 0.13408 0.49987 0.4259 0.0
H2702 H 0.25996 0.36002 0.46734 0.0
H2703 H 0.29228 0.38573 0.45341 0.0
H2704 H 0.20063 0.33861 0.46993 0.0
H2705 H 0.15149 0.35936 0.47239 0.0
C2706 C 0.88149 0.93141 0.68355 0.0
C2707 C 0.90571 0.96204 0.69168 0.0
C2708 C 0.93898 0.91012 0.70938 0.0
C2709 C 0.90798 0.88266 0.7047 0.0
N2710 N 0.85622 0.86139 0.68472 0.0
N2711 N 0.95429 0.98134 0.71411 0.0
C2712 C 0.88202 0.89125 0.69052 0.0
C2713 C 0.93327 0.9516 0.70533 0.0
N2714 N 0.85888 0.94079 0.6692 0.0
N2715 N 0.9706 0.89697 0.71954 0.0
H2716 H 0.94998 1.01239 0.71171 0.0
H2717 H 0.97304 0.97535 0.72475 0.0
H2718 H 0.97281 0.86637 0.72316 0.0
H2719 H 0.99557 0.91522 0.72299 0.0
H2720 H 0.84332 0.91918 0.66175 0.0
H2721 H 0.85664 0.97063 0.66454 0.0
H2722 H 0.8329 0.86597 0.67568 0.0
H2723 H 0.85872 0.83163 0.6894 0.0
C2724 C 0.36436 0.71327 0.96042 0.0
C2725 C 0.38528 0.75023 0.96521 0.0
C2726 C 0.45086 0.71648 0.96085 0.0
C2727 C 0.42962 0.67898 0.96016 0.0
N2728 N 0.3709 0.64431 0.94894 0.0
N2729 N 0.44715 0.79046 0.96399 0.0
C2730 C 0.38768 0.67856 0.95624 0.0
C2731 C 0.42843 0.75299 0.96358 0.0
N2732 N 0.32248 0.71172 0.95954 0.0
N2733 N 0.49157 0.71688 0.95752 0.0
H2734 H 0.43107 0.8176 0.96598 0.0
H2735 H 0.4784 0.79533 0.96252 0.0
H2736 H 0.50575 0.69079 0.95289 0.0
H2737 H 0.50938 0.74306 0.95723 0.0
H2738 H 0.30568 0.68647 0.95544 0.0
H2739 H 0.30357 0.73486 0.96397 0.0
H2740 H 0.34054 0.64138 0.9449 0.0
H2741 H 0.38929 0.61955 0.94554 0.0
C2742 C 0.71347 0.13491 0.19496 0.0
C2743 C 0.68826 0.16459 0.203 0.0
C2744 C 0.64838 0.16795 0.17661 0.0
C2745 C 0.66673 0.12997 0.17223 0.0
N2746 N 0.73444 0.10562 0.16775 0.0
N2747 N 0.63443 0.21519 0.20014 0.0
C2748 C 0.70726 0.12702 0.17738 0.0
C2749 C 0.65668 0.18387 0.19332 0.0
N2750 N 0.7338 0.10691 0.2045 0.0
N2751 N 0.62369 0.18734 0.16501 0.0
H2752 H 0.64055 0.22704 0.2124 0.0
H2753 H 0.60887 0.22781 0.19401 0.0
H2754 H 0.61891 0.17507 0.15273 0.0
H2755 H 0.61041 0.21581 0.16725 0.0
H2756 H 0.74715 0.0815 0.19873 0.0
H2757 H 0.72833 0.10433 0.21759 0.0
H2758 H 0.76458 0.10072 0.17194 0.0
H2759 H 0.72637 0.09514 0.15544 0.0
C2760 C 0.22044 0.62525 0.19924 0.0
C2761 C 0.24877 0.65327 0.19212 0.0
C2762 C 0.19368 0.68478 0.17508 0.0
C2763 C 0.16773 0.65303 0.1801 0.0
N2764 N 0.14961 0.60105 0.19999 0.0
N2765 N 0.26325 0.70822 0.17205 0.0
C2766 C 0.17898 0.62612 0.19343 0.0
C2767 C 0.23561 0.68247 0.17951 0.0
N2768 N 0.23372 0.59796 0.21136 0.0
N2769 N 0.17812 0.71507 0.16486 0.0
H2770 H 0.29471 0.70583 0.17402 0.0
H2771 H 0.25584 0.72956 0.16262 0.0
H2772 H 0.14731 0.7151 0.16115 0.0
H2773 H 0.19415 0.74106 0.16116 0.0
H2774 H 0.21523 0.57601 0.21706 0.0
H2775 H 0.2645 0.59629 0.21511 0.0
H2776 H 0.1542 0.58151 0.21037 0.0
H2777 H 0.1194 0.6021 0.19536 0.0
C2778 C 0.68936 0.93249 0.43734 0.0
C2779 C 0.69009 0.89039 0.43481 0.0
C2780 C 0.61663 0.8886 0.4321 0.0
C2781 C 0.61826 0.93075 0.42774 0.0
N2782 N 0.65569 0.99513 0.42894 0.0
N2783 N 0.65576 0.82943 0.44247 0.0
C2784 C 0.65446 0.95383 0.43143 0.0
C2785 C 0.65363 0.86895 0.43711 0.0
N2786 N 0.7227 0.95123 0.44439 0.0
N2787 N 0.58048 0.86794 0.43116 0.0
H2788 H 0.68419 0.81582 0.44504 0.0
H2789 H 0.63031 0.81155 0.44527 0.0
H2790 H 0.55378 0.88077 0.42598 0.0
H2791 H 0.57686 0.83874 0.43605 0.0
H2792 H 0.72293 0.98202 0.44788 0.0
H2793 H 0.74854 0.93422 0.44797 0.0
H2794 H 0.68244 1.01226 0.43044 0.0
H2795 H 0.63067 1.01177 0.42427 0.0
C2796 C 0.41801 0.45017 0.69563 0.0
C2797 C 0.42949 0.42131 0.68301 0.0
C2798 C 0.36246 0.39114 0.68274 0.0
C2799 C 0.34874 0.42178 0.69455 0.0
N2800 N 0.36505 0.47567 0.7147 0.0
N2801 N 0.41815 0.35782 0.66845 0.0
C2802 C 0.37715 0.44996 0.70182 0.0
C2803 C 0.40393 0.38853 0.67872 0.0
N2804 N 0.44547 0.47981 0.70026 0.0
N2805 N 0.33679 0.36278 0.6756 0.0
H2806 H 0.44874 0.35673 0.66471 0.0
H2807 H 0.39968 0.33374 0.6641 0.0
H2808 H 0.30506 0.36255 0.67712 0.0
H2809 H 0.30506 0.36255 0.67712 0.0
H2810 H 0.43831 0.50508 0.70783 0.0
H2811 H 0.4756 0.47914 0.69577 0.0
H2812 H 0.38506 0.4944 0.72165 0.0
H2813 H 0.33458 0.4774 0.71868 0.0
C2814 C 0.86433 0.13623 0.95565 0.0
C2815 C 0.88543 0.10014 0.95099 0.0
C2816 C 0.92222 0.13704 0.9288 0.0
C2817 C 0.89613 0.17049 0.93124 0.0
N2818 N 0.84258 0.20413 0.94696 0.0
N2819 N 0.92645 0.06373 0.93011 0.0
C2820 C 0.86762 0.1711 0.9449 0.0
C2821 C 0.91114 0.09969 0.93625 0.0
N2822 N 0.84221 0.13715 0.97048 0.0
N2823 N 0.9545 0.1404 0.91778 0.0
H2824 H 0.91541 1.0355 0.9341 0.0
H2825 H 0.94727 0.06176 0.92008 0.0
H2826 H 0.96098 0.1679 0.91156 0.0
H2827 H 0.97628 0.11754 0.91598 0.0
H2828 H 0.82959 0.16377 0.97556 0.0
H2829 H 0.83787 0.11098 0.97793 0.0
H2830 H 0.81761 0.20445 0.95523 0.0
H2831 H 0.84643 0.23084 0.93983 0.0
C2832 C 0.94446 0.73699 0.68673 0.0
C2833 C 0.9304 0.71812 0.70175 0.0
C2834 C 0.9706 0.65927 0.69426 0.0
C2835 C 0.96048 0.66928 0.67679 0.0
N2836 N 0.9284 0.7218 0.65792 0.0
N2837 N 0.9486 0.67088 0.72383 0.0
C2838 C 0.94742 0.71027 0.67293 0.0
C2839 C 0.95206 0.68343 0.70721 0.0
N2840 N 0.93965 0.77762 0.68367 0.0
N2841 N 0.99636 0.62789 0.69834 0.0
H2842 H 0.93294 0.68883 0.73279 0.0
H2843 H 0.95947 0.64282 0.72826 0.0
H2844 H 1.0134 0.61259 0.68907 0.0
H2845 H 1.00469 0.62091 0.71099 0.0
H2846 H 0.93061 0.79854 0.69303 0.0
H2847 H 0.93061 0.79854 0.69303 0.0
H2848 H 0.91876 0.75185 0.65585 0.0
H2849 H 0.91378 0.70188 0.64943 0.0
C2850 C 0.10452 0.17196 0.4427 0.0
C2851 C 0.13186 0.16409 0.45648 0.0
C2852 C 0.17846 0.21393 0.44513 0.0
C2853 C 0.16057 0.20543 0.42872 0.0
N2854 N 0.0971 0.18876 0.4133 0.0
N2855 N 0.18557 0.18914 0.47459 0.0
C2856 C 0.12016 0.18947 0.42799 0.0
C2857 C 0.16498 0.19053 0.45926 0.0
N2858 N 0.06529 0.15821 0.44232 0.0
N2859 N 0.20754 0.24347 0.44702 0.0
H2860 H 0.17477 0.17107 0.48468 0.0
H2861 H 0.21294 0.20463 0.47701 0.0
H2862 H 0.21476 0.26285 0.4369 0.0
H2863 H 0.22041 0.25172 0.45886 0.0
H2864 H 0.05127 0.14441 0.45274 0.0
H2865 H 0.05127 0.14441 0.45274 0.0
H2866 H 0.06885 0.17382 0.41224 0.0
H2867 H 0.10519 0.20477 0.40253 0.0
C2868 C 0.65395 0.39264 0.18252 0.0
C2869 C 0.6405 0.43308 0.18286 0.0
C2870 C 0.6969 0.45155 0.20239 0.0
C2871 C 0.71634 0.41503 0.19748 0.0
N2872 N 0.71378 0.34992 0.18212 0.0
N2873 N 0.64479 0.50045 0.195 0.0
C2874 C 0.69469 0.38475 0.1876 0.0
C2875 C 0.6599 0.46193 0.19396 0.0
N2876 N 0.62903 0.36313 0.17573 0.0
N2877 N 0.71412 0.47633 0.21469 0.0
H2878 H 0.61918 0.50845 0.18792 0.0
H2879 H 0.65869 0.52445 0.20167 0.0
H2880 H 0.7423 0.46998 0.22059 0.0
H2881 H 0.69928 0.50158 0.21994 0.0
H2882 H 0.63612 0.33207 0.17588 0.0
H2883 H 0.59936 0.3701 0.17154 0.0
H2884 H 0.69999 0.32859 0.17393 0.0
H2885 H 0.745 0.34469 0.1839 0.0
C2886 C 0.39509 0.93252 0.93933 0.0
C2887 C 0.4123 0.90242 0.92866 0.0
C2888 C 0.45854 0.95047 0.91613 0.0
C2889 C 0.44013 0.9827 0.92569 0.0
N2890 N 0.39933 1.00108 0.9508 0.0
N2891 N 0.47534 0.87854 0.91734 0.0
C2892 C 0.41071 0.97299 0.93868 0.0
C2893 C 0.44968 0.91008 0.92082 0.0
N2894 N 0.36149 0.92257 0.94875 0.0
N2895 N 0.48571 0.95846 0.9033 0.0
H2896 H 0.46812 0.84907 0.92146 0.0
H2897 H 0.50444 0.88268 0.91213 0.0
H2898 H 0.49316 0.98821 0.89963 0.0
H2899 H 0.49787 0.93549 0.89552 0.0
H2900 H 0.34346 0.94389 0.95518 0.0
H2901 H 0.35127 0.89232 0.94929 0.0
H2902 H 0.38108 0.99382 0.96131 0.0
H2903 H 0.41036 1.03087 0.9513 0.0
C2904 C 0.89709 0.44075 0.92315 0.0
C2905 C 0.85449 0.44638 0.92575 0.0
C2906 C 0.86472 0.44626 0.95657 0.0
C2907 C 0.90718 0.43772 0.95461 0.0
N2908 N 0.96525 0.43197 0.93565 0.0
N2909 N 0.79964 0.46394 0.94507 0.0
C2910 C 0.92395 0.43699 0.93771 0.0
C2911 C 0.8397 0.4542 0.94231 0.0
N2912 N 0.91043 0.4347 0.90674 0.0
N2913 N 0.84725 0.44718 0.97224 0.0
H2914 H 0.77827 0.47014 0.93536 0.0
H2915 H 0.77827 0.47014 0.93536 0.0
H2916 H 0.86504 0.44691 0.98304 0.0
H2917 H 0.81575 0.4501 0.97423 0.0
H2918 H 0.93992 0.42529 0.90358 0.0
H2919 H 0.89059 0.43845 0.89622 0.0
H2920 H 0.98011 0.43534 0.92393 0.0
H2921 H 0.98508 0.42517 0.94589 0.0
C2922 C 0.46717 0.13583 0.6964 0.0
C2923 C 0.45449 0.09665 0.70292 0.0
C2924 C 0.38938 0.12548 0.70881 0.0
C2925 C 0.40447 0.16509 0.70762 0.0
N2926 N 0.459 0.20942 0.69935 0.0
N2927 N 0.40511 0.06104 0.72078 0.0
C2928 C 0.44397 0.17085 0.70107 0.0
C2929 C 0.41705 0.09431 0.71168 0.0
N2930 N 0.49869 0.14008 0.68519 0.0
N2931 N 0.35217 0.11633 0.70212 0.0
H2932 H 0.42487 1.03681 0.72367 0.0
H2933 H 0.42487 1.03681 0.72367 0.0
H2934 H 0.33423 0.13901 0.69635 0.0
H2935 H 0.34401 0.08593 0.69982 0.0
H2936 H 0.50347 0.16712 0.67845 0.0
H2937 H 0.51814 0.11665 0.68173 0.0
H2938 H 0.48961 0.21522 0.69655 0.0
H2939 H 0.44055 0.23502 0.70146 0.0
C2940 C 0.68505 0.62864 0.43828 0.0
C2941 C 0.70253 0.66283 0.44701 0.0
C2942 C 0.63408 0.68598 0.45451 0.0
C2943 C 0.62075 0.64612 0.45181 0.0
N2944 N 0.62535 0.58409 0.43595 0.0
N2945 N 0.69301 0.7253 0.4636 0.0
C2946 C 0.64308 0.6199 0.44106 0.0
C2947 C 0.67672 0.69228 0.45516 0.0
N2948 N 0.70812 0.60543 0.42739 0.0
N2949 N 0.60637 0.71523 0.45891 0.0
H2950 H 0.72459 0.72978 0.46493 0.0
H2951 H 0.67528 0.74621 0.47041 0.0
H2952 H 0.57506 0.70839 0.45933 0.0
H2953 H 0.61415 0.74582 0.46081 0.0
H2954 H 0.69598 0.58222 0.41969 0.0
H2955 H 0.73938 0.61053 0.42557 0.0
H2956 H 0.64102 0.56048 0.42985 0.0
H2957 H 0.59459 0.57808 0.43869 0.0
C2958 C 0.20643 0.90414 0.18764 0.0
C2959 C 0.17562 0.89671 0.19991 0.0
C2960 C 0.15228 0.96584 0.1985 0.0
C2961 C 0.18418 0.97545 0.18663 0.0
N2962 N 0.23727 0.95203 0.16762 0.0
N2963 N 0.11104 0.91437 0.21201 0.0
C2964 C 0.21001 0.9439 0.18041 0.0
C2965 C 0.14447 0.92509 0.20259 0.0
N2966 N 0.2341 0.87397 0.18427 0.0
N2967 N 0.12844 0.99491 0.20598 0.0
H2968 H 0.10644 0.88413 0.21588 0.0
H2969 H 0.08814 0.93523 0.21529 0.0
H2970 H 0.13323 1.02625 0.20473 0.0
H2971 H 0.13323 1.02625 0.20473 0.0
H2972 H 0.26057 0.87818 0.17709 0.0
H2973 H 0.23046 0.84468 0.18938 0.0
H2974 H 0.25441 0.92961 0.16144 0.0
H2975 H 0.2418 0.98156 0.16293 0.0
C2976 C 0.65358 0.95793 0.93776 0.0
C2977 C 0.64373 0.92854 0.95033 0.0
C2978 C 0.70982 0.89686 0.94801 0.0
C2979 C 0.72255 0.9291 0.93682 0.0
N2980 N 0.70504 0.98633 0.91869 0.0
N2981 N 0.65575 0.86414 0.96368 0.0
C2982 C 0.69378 0.95846 0.93086 0.0
C2983 C 0.6691 0.895 0.95335 0.0
N2984 N 0.6251 0.98702 0.93381 0.0
N2985 N 0.73588 0.8674 0.95391 0.0
H2986 H 0.6252 0.86264 0.96757 0.0
H2987 H 0.67477 0.84043 0.96789 0.0
H2988 H 0.76734 0.86687 0.95164 0.0
H2989 H 0.76734 0.86687 0.95164 0.0
H2990 H 0.63055 1.01247 0.92616 0.0
H2991 H 0.59537 0.98493 0.93861 0.0
H2992 H 0.68495 1.00697 0.91293 0.0
H2993 H 0.73503 0.9884 0.91417 0.0
C2994 C 0.46232 0.36658 0.20658 0.0
C2995 C 0.42468 0.38757 0.20685 0.0
C2996 C 0.45775 0.45291 0.20698 0.0
C2997 C 0.49623 0.4325 0.20942 0.0
N2998 N 0.53668 0.37121 0.20597 0.0
N2999 N 0.38593 0.44642 0.19942 0.0
C3000 C 0.49917 0.38952 0.20729 0.0
C3001 C 0.42275 0.42936 0.2036 0.0
N3002 N 0.4619 0.32492 0.20706 0.0
N3003 N 0.45457 0.49452 0.20826 0.0
H3004 H 0.35995 0.42823 0.1986 0.0
H3005 H 0.38169 0.47665 0.19565 0.0
H3006 H 0.47876 0.51347 0.21174 0.0
H3007 H 0.42707 0.51053 0.2074 0.0
H3008 H 0.48798 0.30688 0.20852 0.0
H3009 H 0.43424 0.3088 0.20627 0.0
H3010 H 0.54068 0.34028 0.20331 0.0
H3011 H 0.5641 0.38757 0.20695 0.0
C3012 C 0.93426 0.18663 0.45324 0.0
C3013 C 0.95544 0.15011 0.45094 0.0
C3014 C 0.90148 0.12391 0.43199 0.0
C3015 C 0.87607 0.15608 0.4379 0.0
N3016 N 0.87026 0.21993 0.45445 0.0
N3017 N 0.97035 0.09461 0.43218 0.0
C3018 C 0.89297 0.18818 0.44836 0.0
C3019 C 0.94274 0.12248 0.43803 0.0
N3020 N 0.95206 0.21759 0.46237 0.0
N3021 N 0.88595 0.0949 0.42104 0.0
H3022 H 1.00089 0.09585 0.43627 0.0
H3023 H 0.96424 0.0731 0.4226 0.0
H3024 H 0.85558 0.09538 0.41667 0.0
H3025 H 0.90231 0.06949 0.41687 0.0
H3026 H 0.93682 0.24482 0.46525 0.0
H3027 H 0.98267 0.21572 0.46625 0.0
H3028 H 0.83863 0.22275 0.45279 0.0
H3029 H 0.83863 0.22275 0.45279 0.0
C3030 C 0.15605 0.59895 0.69997 0.0
C3031 C 0.18655 0.5922 0.68716 0.0
C3032 C 0.21019 0.66248 0.69078 0.0
C3033 C 0.17974 0.66793 0.70341 0.0
N3034 N 0.11516 0.64934 0.71509 0.0
N3035 N 0.23894 0.61868 0.66863 0.0
C3036 C 0.14893 0.63898 0.70576 0.0
C3037 C 0.2126 0.62449 0.68198 0.0
N3038 N 0.13358 0.56717 0.70628 0.0
N3039 N 0.238 0.69295 0.68817 0.0
H3040 H 0.2427 0.59015 0.66278 0.0
H3041 H 0.25607 0.64203 0.66312 0.0
H3042 H 0.23488 0.72143 0.69413 0.0
H3043 H 0.26415 0.68972 0.68069 0.0
H3044 H 0.11172 0.57041 0.71588 0.0
H3045 H 0.1397 0.53683 0.70321 0.0
H3046 H 0.08988 0.63026 0.71663 0.0
H3047 H 0.11153 0.67891 0.71997 0.0
C3048 C 0.66438 0.12133 0.69411 0.0
C3049 C 0.65007 0.14959 0.68169 0.0
C3050 C 0.71552 0.18311 0.68094 0.0
C3051 C 0.73142 0.15438 0.69308 0.0
N3052 N 0.71917 0.10109 0.71377 0.0
N3053 N 0.65476 0.21625 0.66963 0.0
C3054 C 0.70517 0.12495 0.70057 0.0
C3055 C 0.67305 0.18441 0.67794 0.0
N3056 N 0.6398 0.0893 0.6984 0.0
N3057 N 0.74099 0.2097 0.67269 0.0
H3058 H 0.62369 0.21531 0.66652 0.0
H3059 H 0.66928 0.24403 0.66726 0.0
H3060 H 0.77273 0.20929 0.67436 0.0
H3061 H 0.73107 0.22955 0.66304 0.0
H3062 H 0.64963 0.06438 0.70567 0.0
H3063 H 0.6095 0.08782 0.69395 0.0
H3064 H 0.70042 0.0816 0.72079 0.0
H3065 H 0.74967 0.102 0.71801 0.0
C3066 C 0.21123 0.45348 0.93838 0.0
C3067 C 0.19415 0.41422 0.93495 0.0
C3068 C 0.18946 0.40526 0.96638 0.0
C3069 C 0.20495 0.44554 0.96828 0.0
N3070 N 0.25565 0.49131 0.95748 0.0
N3071 N 0.16652 0.35137 0.94687 0.0
C3072 C 0.22756 0.46123 0.95471 0.0
C3073 C 0.18419 0.38875 0.94932 0.0
N3074 N 0.20496 0.48536 0.92747 0.0
N3075 N 0.17371 0.38677 0.98057 0.0
H3076 H 0.15323 0.34236 0.93522 0.0
H3077 H 0.16362 0.32988 0.95664 0.0
H3078 H 0.17636 0.40061 0.9927 0.0
H3079 H 0.15775 0.35924 0.98033 0.0
H3080 H 0.2157 0.5148 0.93012 0.0
H3081 H 0.18237 0.48357 0.91793 0.0
H3082 H 0.26939 0.50706 0.94738 0.0
H3083 H 0.26777 0.49675 0.96977 0.0
C3084 C 0.91434 0.95328 0.19622 0.0
C3085 C 0.92799 0.9271 0.18288 0.0
C3086 C 0.8621 0.89484 0.18062 0.0
C3087 C 0.84597 0.92275 0.19305 0.0
N3088 N 0.8617 0.96651 0.2174 0.0
N3089 N 0.92183 0.86024 0.17023 0.0
C3090 C 0.87365 0.94855 0.20235 0.0
C3091 C 0.90428 0.89304 0.1782 0.0
N3092 N 0.94014 0.98199 0.20306 0.0
N3093 N 0.83853 0.86757 0.17168 0.0
H3094 H 0.95363 0.85791 0.16894 0.0
H3095 H 0.90487 0.83489 0.16609 0.0
H3096 H 0.80664 0.86626 0.17213 0.0
H3097 H 0.80664 0.86626 0.17213 0.0
H3098 H 0.9303 1.0057 0.211 0.0
H3099 H 0.97159 0.98166 0.20066 0.0
H3100 H 0.88157 0.98266 0.2255 0.0
H3101 H 0.83233 0.96277 0.22238 0.0
C3102 C 0.46745 0.62409 0.42012 0.0
C3103 C 0.44481 0.59636 0.43027 0.0
C3104 C 0.39937 0.65143 0.43941 0.0
C3105 C 0.41972 0.67729 0.42781 0.0
N3106 N 0.48297 0.69499 0.41497 0.0
N3107 N 0.39753 0.58611 0.45389 0.0
C3108 C 0.45772 0.66576 0.42113 0.0
C3109 C 0.41327 0.61072 0.44137 0.0
N3110 N 0.49797 0.61056 0.40957 0.0
N3111 N 0.36423 0.66494 0.44694 0.0
H3112 H 0.40659 0.55585 0.45568 0.0
H3113 H 0.37737 0.59649 0.46327 0.0
H3114 H 0.35454 0.69512 0.44543 0.0
H3115 H 0.34426 0.6463 0.45377 0.0
H3116 H 0.5131 0.62944 0.4009 0.0
H3117 H 0.50572 0.57972 0.40844 0.0
H3118 H 0.51265 0.68962 0.41062 0.0
H3119 H 0.47417 0.72519 0.41621 0.0
C3120 C 0.34427 0.17398 0.18445 0.0
C3121 C 0.33675 0.14416 0.19749 0.0
C3122 C 0.40521 0.11656 0.19367 0.0
C3123 C 0.41203 0.14629 0.18078 0.0
N3124 N 0.3953 0.20997 0.16759 0.0
N3125 N 0.36184 0.09193 0.21661 0.0
C3126 C 0.38416 0.1781 0.17791 0.0
C3127 C 0.36787 0.1168 0.20274 0.0
N3128 N 0.31338 0.19919 0.17897 0.0
N3129 N 0.4336 0.08673 0.1964 0.0
H3130 H 0.33356 0.08987 0.22275 0.0
H3131 H 0.38502 0.07465 0.22236 0.0
H3132 H 0.46215 0.08807 0.19068 0.0
H3133 H 0.42846 0.06064 0.20374 0.0
H3134 H 0.31698 0.22271 0.17013 0.0
H3135 H 0.28293 0.19468 0.18238 0.0
H3136 H 0.37733 0.23567 0.16525 0.0
H3137 H 0.42455 0.21158 0.16228 0.0
C3138 C 0.6302 0.72237 0.95246 0.0
C3139 C 0.62027 0.68084 0.954 0.0
C3140 C 0.68695 0.66008 0.94514 0.0
C3141 C 0.69215 0.69983 0.93879 0.0
N3142 N 0.68025 0.77155 0.94237 0.0
N3143 N 0.64837 0.616 0.9634 0.0
C3144 C 0.66821 0.73233 0.94508 0.0
C3145 C 0.65239 0.65203 0.95488 0.0
N3146 N 0.60244 0.75101 0.95728 0.0
N3147 N 0.71237 0.62947 0.94031 0.0
H3148 H 0.62228 0.60874 0.97015 0.0
H3149 H 0.67249 0.59545 0.96514 0.0
H3150 H 0.73958 0.63627 0.93432 0.0
H3151 H 0.70592 0.59852 0.94198 0.0
H3152 H 0.60728 0.78242 0.95672 0.0
H3153 H 0.57457 0.74193 0.96241 0.0
H3154 H 0.66163 0.79685 0.94431 0.0
H3155 H 0.71016 0.77796 0.93867 0.0
C3156 C 0.21956 0.88934 0.68316 0.0
C3157 C 0.23602 0.91736 0.69561 0.0
C3158 C 0.17042 0.95295 0.69635 0.0
C3159 C 0.15611 0.9264 0.68329 0.0
N3160 N 0.15747 0.8599 0.67093 0.0
N3161 N 0.2225 0.9667 0.71809 0.0
C3162 C 0.17737 0.89072 0.67938 0.0
C3163 C 0.20986 0.94628 0.70362 0.0
N3164 N 0.24397 0.8612 0.6752 0.0
N3165 N 0.14724 0.986 0.70072 0.0
H3166 H 0.25179 0.96301 0.72341 0.0
H3167 H 0.20326 0.98552 0.72524 0.0
H3168 H 0.11774 0.99 0.6956 0.0
H3169 H 0.15778 1.00957 0.70866 0.0
H3170 H 0.23358 0.84224 0.66527 0.0
H3171 H 0.2755 0.85942 0.67725 0.0
H3172 H 0.17063 0.83143 0.66858 0.0
H3173 H 0.12621 0.86216 0.66798 0.0
C3174 C 0.97979 0.38505 0.42862 0.0
C3175 C 0.97226 0.42776 0.42732 0.0
C3176 C 0.90502 0.41778 0.44001 0.0
C3177 C 0.90744 0.37756 0.43439 0.0
N3178 N 0.94837 0.31778 0.43205 0.0
N3179 N 0.92839 0.48609 0.43386 0.0
C3180 C 0.94614 0.35935 0.43256 0.0
C3181 C 0.93511 0.44484 0.4339 0.0
N3182 N 1.01828 0.36977 0.42617 0.0
N3183 N 0.87123 0.43026 0.44873 0.0
H3184 H 0.94921 0.50702 0.42884 0.0
H3185 H 0.9009 0.49932 0.4377 0.0
H3186 H 0.84796 0.4095 0.4517 0.0
H3187 H 0.86808 0.4595 0.4539 0.0
H3188 H 1.02595 0.33916 0.42786 0.0
H3189 H 0.04305 0.38825 0.42282 0.0
H3190 H 0.97481 0.30141 0.42916 0.0
H3191 H 0.92233 0.30005 0.43438 0.0
C3192 C 0.4171 0.90539 0.44714 0.0
C3193 C 0.45676 0.90488 0.45394 0.0
C3194 C 0.45254 0.83154 0.45814 0.0
C3195 C 0.40938 0.83639 0.45821 0.0
N3196 N 0.34951 0.87763 0.45054 0.0
N3197 N 0.51839 0.86643 0.45841 0.0
C3198 C 0.39113 0.87305 0.45166 0.0
C3199 C 0.47687 0.86718 0.45654 0.0
N3200 N 0.4038 0.93906 0.43841 0.0
N3201 N 0.46956 0.79351 0.45952 0.0
H3202 H 0.53597 0.89271 0.45668 0.0
H3203 H 0.53522 0.84041 0.46147 0.0
H3204 H 0.45188 0.76713 0.46087 0.0
H3205 H 0.50082 0.78771 0.45857 0.0
H3206 H 0.37534 0.94075 0.43223 0.0
H3207 H 0.42351 0.96372 0.43625 0.0
H3208 H 0.33538 0.90488 0.44691 0.0
H3209 H 0.3288 0.85558 0.45463 0.0
C3210 C 0.87597 0.65617 0.18807 0.0
C3211 C 0.90155 0.66202 0.20274 0.0
C3212 C 0.91984 0.59055 0.20281 0.0
C3213 C 0.89746 0.58447 0.18722 0.0
N3214 N 0.85654 0.6119 0.16411 0.0
N3215 N 0.95491 0.63715 0.22162 0.0
C3216 C 0.87576 0.61748 0.17964 0.0
C3217 C 0.92721 0.63025 0.20863 0.0
N3218 N 0.85028 0.68685 0.18297 0.0
N3219 N 0.93828 0.55909 0.21133 0.0
H3220 H 0.95972 0.66622 0.22673 0.0
H3221 H 0.97336 0.61409 0.22683 0.0
H3222 H 0.93425 0.52839 0.20806 0.0
H3223 H 0.93425 0.52839 0.20806 0.0
H3224 H 0.82713 0.68305 0.17376 0.0
H3225 H 0.8516 0.71587 0.18859 0.0
H3226 H 0.84386 0.63565 0.15692 0.0
H3227 H 0.85476 0.58311 0.15828 0.0
C3228 C 0.19879 0.13538 0.93084 0.0
C3229 C 0.23813 0.13882 0.93864 0.0
C3230 C 0.20786 0.15493 0.96599 0.0
C3231 C 0.16811 0.14794 0.95904 0.0
N3232 N 0.12467 0.13474 0.93437 0.0
N3233 N 0.27902 0.1393 0.96468 0.0
C3234 C 0.1632 0.13894 0.94124 0.0
C3235 C 0.24185 0.14178 0.95666 0.0
N3236 N 0.19622 0.13179 0.91336 0.0
N3237 N 0.21395 0.17691 0.98076 0.0
H3238 H 0.30576 0.13091 0.95827 0.0
H3239 H 0.30576 0.13091 0.95827 0.0
H3240 H 0.191 0.19443 0.98641 0.0
H3241 H 0.24333 0.18284 0.98563 0.0
H3242 H 0.16902 0.13373 0.90628 0.0
H3243 H 0.22252 0.12706 0.90604 0.0
H3244 H 0.11872 0.12421 0.92193 0.0
H3245 H 0.09837 0.14164 0.94138 0.0
C3246 C 0.70672 0.46567 0.6839 0.0
C3247 C 0.67933 0.49404 0.69148 0.0
C3248 C 0.64776 0.43888 0.70793 0.0
C3249 C 0.67991 0.41318 0.70308 0.0
N3250 N 0.73715 0.3978 0.68521 0.0
N3251 N 0.62565 0.50836 0.71214 0.0
C3252 C 0.70787 0.42501 0.69024 0.0
C3253 C 0.65074 0.48083 0.70417 0.0
N3254 N 0.73077 0.4777 0.67051 0.0
N3255 N 0.61667 0.42324 0.71756 0.0
H3256 H 0.62786 0.53974 0.71026 0.0
H3257 H 0.60536 0.50074 0.72189 0.0
H3258 H 0.61627 0.39245 0.72099 0.0
H3259 H 0.59038 0.43938 0.72088 0.0
H3260 H 0.74856 0.45772 0.66328 0.0
H3261 H 0.732 0.50809 0.66644 0.0
H3262 H 0.7618 0.40524 0.67739 0.0
H3263 H 0.7369 0.36761 0.6896 0.0
C3264 C 0.07364 0.31595 0.38733 0.0
C3265 C 0.08756 0.27329 0.38443 0.0
C3266 C 1.00431 0.26456 0.38577 0.0
C3267 C 0.99025 0.30755 0.38647 0.0
N3268 N 1.02385 0.37345 0.38546 0.0
N3269 N 0.05241 0.21022 0.3767 0.0
C3270 C 1.02891 0.33218 0.38645 0.0
C3271 C 0.04854 0.24934 0.3825 0.0
N3272 N 0.10397 0.343 0.39145 0.0
N3273 N 0.9748 0.23599 0.38865 0.0
H3274 H 0.08054 0.19684 0.37415 0.0
H3275 H 1.02749 0.19243 0.37277 0.0
H3276 H 0.94432 0.24398 0.3907 0.0
H3277 H 0.98141 0.20526 0.39087 0.0
H3278 H 0.0984 0.37224 0.39623 0.0
H3279 H 0.1348 0.33476 0.39153 0.0
H3280 H 0.04752 0.3935 0.38242 0.0
H3281 H 0.99551 0.38758 0.38667 0.0
C3282 C 1.00758 0.7774 0.632 0.0
C3283 C 1.03211 0.73911 0.63447 0.0
C3284 C 0.09084 0.79784 0.63726 0.0
C3285 C 0.06596 0.83592 0.63606 0.0
N3286 N 0.9969 0.85282 0.6283 0.0
N3287 N 0.10177 0.72328 0.64232 0.0
C3288 C 1.02339 0.82213 0.63264 0.0
C3289 C 0.07474 0.75326 0.63785 0.0
N3290 N 0.96663 0.77178 0.62932 0.0
N3291 N 0.13224 0.80345 0.63691 0.0
H3292 H 0.09381 0.69248 0.64213 0.0
H3293 H 0.13068 0.72903 0.64761 0.0
H3294 H 0.1456 0.8323 0.63694 0.0
H3295 H 0.15313 0.77991 0.63487 0.0
H3296 H 0.94458 0.79439 0.6309 0.0
H3297 H 0.95381 0.74356 0.62658 0.0
H3298 H 0.96783 0.84854 0.623 0.0
H3299 H 1.00563 0.88343 0.62833 0.0
C3300 C 0.51067 0.7832 0.90238 0.0
C3301 C 0.49073 0.80858 0.88876 0.0
C3302 C 0.56806 0.79632 0.87613 0.0
C3303 C 0.58881 0.77473 0.89057 0.0
N3304 N 0.5715 0.76312 0.91999 0.0
N3305 N 0.51574 0.84361 0.8637 0.0
C3306 C 0.55692 0.77252 0.90408 0.0
C3307 C 0.52447 0.81583 0.87616 0.0
N3308 N 0.4851 0.76813 0.91459 0.0
N3309 N 0.59019 0.798 0.86134 0.0
H3310 H 0.48766 0.85842 0.86331 0.0
H3311 H 0.53744 0.85512 0.85522 0.0
H3312 H 0.62002 0.78645 0.86072 0.0
H3313 H 0.5778 0.80719 0.84955 0.0
H3314 H 0.49423 0.74585 0.9234 0.0
H3315 H 0.45399 0.77526 0.91487 0.0
H3316 H 0.55364 0.76511 0.93102 0.0
H3317 H 0.60281 0.75864 0.9221 0.0
C3318 C 0.51535 0.27181 0.15094 0.0
C3319 C 0.51593 0.24224 0.13643 0.0
C3320 C 0.55027 0.30879 0.12167 0.0
C3321 C 0.54986 0.33851 0.1362 0.0
N3322 N 0.51918 0.34154 0.16415 0.0
N3323 N 0.54448 0.23931 0.10817 0.0
C3324 C 0.52877 0.31727 0.15049 0.0
C3325 C 0.53628 0.26354 0.12203 0.0
N3326 N 0.50359 0.25559 0.16627 0.0
N3327 N 0.561 0.32518 0.10625 0.0
H3328 H 0.5353 0.20874 0.10769 0.0
H3329 H 0.56334 0.24791 0.09807 0.0
H3330 H 0.56779 0.35615 0.10508 0.0
H3331 H 0.55828 0.31005 0.09449 0.0
H3332 H 0.50665 0.27066 0.17804 0.0
H3333 H 0.49478 0.22503 0.16734 0.0
H3334 H 0.49934 0.33268 0.17387 0.0
H3335 H 0.52785 0.37218 0.16479 0.0
C3336 C 1.0071 0.80293 0.25581 0.0
C3337 C 0.99021 0.77085 0.24439 0.0
C3338 C 0.06948 0.77227 0.23437 0.0
C3339 C 0.08598 0.80674 0.2449 0.0
N3340 N 0.05586 0.85873 0.26307 0.0
N3341 N 1.01266 0.73484 0.21931 0.0
C3342 C 0.05015 0.82246 0.25476 0.0
C3343 C 1.02416 0.75855 0.23298 0.0
N3344 N 0.98161 0.81521 0.26864 0.0
N3345 N 0.09761 0.75124 0.22498 0.0
H3346 H 0.98204 0.72688 0.21719 0.0
H3347 H 1.0319 0.72772 0.2091 0.0
H3348 H 0.12812 0.76025 0.22419 0.0
H3349 H 0.09134 0.72332 0.21904 0.0
H3350 H 0.99123 0.83308 0.27905 0.0
H3351 H 0.95174 0.80398 0.26965 0.0
H3352 H 1.03223 0.87524 0.26875 0.0
H3353 H 0.08317 0.87483 0.26249 0.0
C3354 C 0.49846 0.79664 0.49811 0.0
C3355 C 0.52339 0.83504 0.49704 0.0
C3356 C 0.58205 0.77585 0.49788 0.0
C3357 C 0.55698 0.7375 0.49741 0.0
N3358 N 0.48542 0.72207 0.49381 0.0
N3359 N 0.59461 0.85022 0.49288 0.0
C3360 C 0.51389 0.75192 0.49662 0.0
C3361 C 0.56646 0.82053 0.49612 0.0
N3362 N 0.45762 0.80183 0.5009 0.0
N3363 N 0.62312 0.77056 0.50039 0.0
H3364 H 0.58665 0.88098 0.49222 0.0
H3365 H 0.62467 0.84414 0.48923 0.0
H3366 H 0.63718 0.74213 0.50007 0.0
H3367 H 0.64288 0.79417 0.50399 0.0
H3368 H 0.43841 0.77841 0.505 0.0
H3369 H 0.44317 0.82996 0.50022 0.0
H3370 H 0.45511 0.72799 0.49027 0.0
H3371 H 0.49311 0.69123 0.49341 0.0
C3372 C 0.56778 0.29433 0.76279 0.0
C3373 C 0.58967 0.31158 0.74778 0.0
C3374 C 0.51491 0.29429 0.73366 0.0
C3375 C 0.49292 0.27662 0.74858 0.0
N3376 N 0.50619 0.26946 0.77884 0.0
N3377 N 0.57767 0.31439 0.71739 0.0
C3378 C 0.52252 0.27922 0.76329 0.0
C3379 C 0.56061 0.3076 0.73305 0.0
N3380 N 0.59177 0.28971 0.77713 0.0
N3381 N 0.49123 0.3002 0.71933 0.0
H3382 H 0.60833 0.32293 0.71611 0.0
H3383 H 0.56331 0.30657 0.70587 0.0
H3384 H 0.46047 0.29152 0.71889 0.0
H3385 H 0.50066 0.31711 0.70874 0.0
H3386 H 0.58324 0.27333 0.78799 0.0
H3387 H 0.62229 0.29933 0.77743 0.0
H3388 H 0.52084 0.27414 0.79064 0.0
H3389 H 0.47569 0.2604 0.77999 0.0
C3390 C 1.01592 0.25296 1.00728 0.0
C3391 C 0.05277 0.23687 0.9985 0.0
C3392 C 0.05284 0.31608 0.98822 0.0
C3393 C 1.01787 0.3332 0.99816 0.0
N3394 N 0.97419 0.30827 1.02066 0.0
N3395 N 0.10819 0.26499 0.98236 0.0
C3396 C 1.00205 0.29821 1.00839 0.0
C3397 C 0.07112 0.27244 0.98967 0.0
N3398 N 0.99265 0.22412 1.01517 0.0
N3399 N 0.06872 0.34136 0.97606 0.0
H3400 H 0.12122 0.23585 0.98228 0.0
H3401 H 0.12738 0.28795 0.97786 0.0
H3402 H 0.0581 0.37102 0.97419 0.0
H3403 H 0.08899 0.33157 0.96662 0.0
H3404 H 0.96302 0.22951 1.01954 0.0
H3405 H 1.00229 0.19384 1.01613 0.0
H3406 H 0.964 0.28805 1.03003 0.0
H3407 H 0.96513 0.33833 1.0228 0.0
C3408 C 0.05971 0.76991 0.73365 0.0
C3409 C 0.08616 0.76167 0.74887 0.0
C3410 C 1.01559 0.78668 0.76413 0.0
C3411 C 0.98884 0.79456 0.74889 0.0
N3412 N 0.99331 0.78509 0.71856 0.0
N3413 N 0.08268 0.77362 0.77925 0.0
C3414 C 1.0141 0.78358 0.73374 0.0
C3415 C 0.06127 0.77304 0.76409 0.0
N3416 N 0.07909 0.76584 0.71824 0.0
N3417 N 0.99614 0.78996 0.77953 0.0
H3418 H 0.11365 0.76566 0.77981 0.0
H3419 H 0.07157 0.78569 0.7907 0.0
H3420 H 0.9653 0.79823 0.78022 0.0
H3421 H 1.00872 0.78075 0.79126 0.0
H3422 H 0.06708 0.77542 0.70647 0.0
H3423 H 0.10931 0.75555 0.71746 0.0
H3424 H 1.00467 0.77484 0.70687 0.0
H3425 H 0.96276 0.79415 0.7183 0.0
C3426 C 1.03078 0.26992 0.51155 0.0
C3427 C 1.03195 0.23914 0.49737 0.0
C3428 C 0.06493 0.30637 0.48201 0.0
C3429 C 0.0643 0.33675 0.49623 0.0
N3430 N 1.03669 0.34012 0.52463 0.0
N3431 N 0.06344 0.23587 0.46968 0.0
C3432 C 0.04453 0.31548 0.51085 0.0
C3433 C 0.05281 0.26052 0.48299 0.0
N3434 N 1.01933 0.25427 0.52701 0.0
N3435 N 0.07533 0.32206 0.4664 0.0
H3436 H 0.05601 0.20497 0.46978 0.0
H3437 H 0.08274 0.24486 0.45978 0.0
H3438 H 0.08261 0.35293 0.46491 0.0
H3439 H 0.07225 0.30616 0.45482 0.0
H3440 H 1.02082 0.26998 0.53866 0.0
H3441 H 1.01291 0.22328 0.52833 0.0
H3442 H 1.01833 0.33188 0.53494 0.0
H3443 H 0.04583 0.37071 0.52489 0.0
C3444 C 0.57798 0.31052 0.24506 0.0
C3445 C 0.5918 0.26783 0.24807 0.0
C3446 C 0.50844 0.26001 0.24932 0.0
C3447 C 0.49493 0.30317 0.24789 0.0
N3448 N 0.52851 0.36856 0.24635 0.0
N3449 N 0.55855 0.20371 0.25428 0.0
C3450 C 0.53357 0.32727 0.2464 0.0
C3451 C 0.55319 0.244 0.25053 0.0
N3452 N 0.60799 0.33681 0.24005 0.0
N3453 N 0.47739 0.23209 0.2492 0.0
H3454 H 0.58651 0.18896 0.25289 0.0
H3455 H 0.53583 0.18535 0.25955 0.0
H3456 H 0.44669 0.2407 0.24966 0.0
H3457 H 0.48166 0.20087 0.24732 0.0
H3458 H 0.60229 0.36585 0.23513 0.0
H3459 H 0.63856 0.32796 0.23925 0.0
H3460 H 0.55239 0.38929 0.24818 0.0
H3461 H 0.49973 0.38198 0.24541 0.0
C3462 C 0.58373 0.80088 0.99765 0.0
C3463 C 0.55922 0.83941 0.99667 0.0
C3464 C 0.49964 0.78154 0.99862 0.0
C3465 C 0.52378 0.74284 0.99756 0.0
N3466 N 0.59503 0.72545 0.99527 0.0
N3467 N 0.4877 0.85626 0.99451 0.0
C3468 C 0.56729 0.75632 0.99691 0.0
C3469 C 0.5158 0.82584 0.99667 0.0
N3470 N 0.62493 0.80614 0.99978 0.0
N3471 N 0.45908 0.77697 1.00219 0.0
H3472 H 0.49595 0.88693 0.99409 0.0
H3473 H 0.45677 0.85117 0.99185 0.0
H3474 H 0.44451 0.74882 1.00217 0.0
H3475 H 0.44037 0.80077 1.00632 0.0
H3476 H 0.64487 0.78309 1.00373 0.0
H3477 H 0.63905 0.83447 0.99887 0.0
H3478 H 0.6257 0.72976 0.99216 0.0
H3479 H 0.58634 0.69491 0.99549 0.0
C3480 C 0.05587 0.31047 0.87329 0.0
C3481 C 0.08621 0.3077 0.88756 0.0
C3482 C 1.02171 0.26766 0.90132 0.0
C3483 C 0.99118 0.27231 0.88727 0.0
N3484 N 0.98514 0.30899 0.86071 0.0
N3485 N 0.09143 0.27339 0.91485 0.0
C3486 C 1.01071 0.29682 0.8737 0.0
C3487 C 0.06647 0.28332 0.90131 0.0
N3488 N 0.07142 0.32274 0.85795 0.0
N3489 N 1.00699 0.24938 0.91577 0.0
H3490 H 0.12084 0.28538 0.91627 0.0
H3491 H 0.08448 0.25149 0.92406 0.0
H3492 H 0.97698 0.23839 0.91636 0.0
H3493 H 1.02259 0.2479 0.92749 0.0
H3494 H 0.05504 0.32191 0.84637 0.0
H3495 H 0.10266 0.32822 0.85651 0.0
H3496 H 0.99312 0.33084 0.85159 0.0
H3497 H 0.95444 0.29992 0.86013 0.0
C3498 C 0.53272 0.30576 0.65291 0.0
C3499 C 0.52534 0.33262 0.63787 0.0
C3500 C 0.55373 0.26379 0.62233 0.0
C3501 C 0.56074 0.23663 0.63741 0.0
N3502 N 0.5459 0.23873 0.66755 0.0
N3503 N 0.53994 0.33082 0.60774 0.0
C3504 C 0.54687 0.26042 0.65261 0.0
C3505 C 0.5388 0.30887 0.62262 0.0
N3506 N 0.5276 0.32462 0.66839 0.0
N3507 N 0.55874 0.24512 0.60678 0.0
H3508 H 0.53083 0.36138 0.60734 0.0
H3509 H 0.55341 0.32062 0.59642 0.0
H3510 H 0.5675 0.21453 0.60588 0.0
H3511 H 0.55031 0.25796 0.59503 0.0
H3512 H 0.53506 0.31159 0.68014 0.0
H3513 H 0.51909 0.35528 0.66935 0.0
H3514 H 0.53367 0.24949 0.67899 0.0
H3515 H 0.55494 0.2082 0.66805 0.0
C3516 C 0.57044 0.79311 0.40062 0.0
C3517 C 0.59454 0.80762 0.38578 0.0
C3518 C 0.52157 0.7862 0.37088 0.0
C3519 C 0.49638 0.77641 0.38622 0.0
N3520 N 0.50466 0.79243 0.41641 0.0
N3521 N 0.58169 0.8166 0.35556 0.0
C3522 C 0.52364 0.78624 0.4011 0.0
C3523 C 0.56599 0.80368 0.3708 0.0
N3524 N 0.59254 0.78339 0.41494 0.0
N3525 N 0.50229 0.77959 0.3555 0.0
H3526 H 0.61253 0.82444 0.35444 0.0
H3527 H 0.56423 0.82142 0.34447 0.0
H3528 H 0.47112 0.77263 0.35485 0.0
H3529 H 0.51714 0.77924 0.3437 0.0
H3530 H 0.57934 0.76893 0.42551 0.0
H3531 H 0.62441 0.78636 0.4153 0.0
H3532 H 0.52043 0.80137 0.42752 0.0
H3533 H 0.4727 0.79271 0.4173 0.0
C3534 C 1.03279 0.81021 0.12291 0.0
C3535 C 1.03111 0.8383 0.13798 0.0
C3536 C 0.06237 0.7698 0.15273 0.0
C3537 C 0.06537 0.7422 0.13757 0.0
N3538 N 0.04239 0.74241 0.10823 0.0
N3539 N 0.05372 0.83751 0.16745 0.0
C3540 C 0.04765 0.76515 0.12284 0.0
C3541 C 0.04878 0.81524 0.15271 0.0
N3542 N 1.02206 0.82779 0.10762 0.0
N3543 N 0.07057 0.75156 0.16816 0.0
H3544 H 0.04331 0.86758 0.16844 0.0
H3545 H 0.07078 0.82771 0.17806 0.0
H3546 H 0.07898 0.72084 0.16897 0.0
H3547 H 0.06516 0.76511 0.18007 0.0
H3548 H 1.02597 0.81418 0.09562 0.0
H3549 H 1.01268 0.85819 0.10688 0.0
H3550 H 1.0256 0.75182 0.0975 0.0
H3551 H 0.05203 0.71203 0.10753 0.0
C3552 C 0.29799 0.25078 0.32183 0.0
C3553 C 0.26382 0.26698 0.33155 0.0
C3554 C 0.26686 0.32544 0.30864 0.0
C3555 C 0.30028 0.30833 0.29843 0.0
N3556 N 0.34428 0.24905 0.29705 0.0
N3557 N 0.22338 0.32746 0.33467 0.0
C3558 C 0.31423 0.26941 0.30564 0.0
C3559 C 0.25075 0.30641 0.32487 0.0
N3560 N 0.31831 0.21851 0.329 0.0
N3561 N 0.24791 0.35952 0.30233 0.0
H3562 H 0.20928 0.31436 0.34533 0.0
H3563 H 0.21699 0.35842 0.33311 0.0
H3564 H 0.25706 0.37414 0.29114 0.0
H3565 H 0.22083 0.37144 0.30723 0.0
H3566 H 0.34649 0.20776 0.32476 0.0
H3567 H 0.30906 0.20519 0.34047 0.0
H3568 H 0.34994 0.21793 0.29858 0.0
H3569 H 0.36314 0.26295 0.28808 0.0
C3570 C 1.00428 1.02825 0.56156 0.0
C3571 C 1.0239 0.06014 0.55142 0.0
C3572 C 0.08005 0.05536 0.57567 0.0
C3573 C 0.06065 1.02318 0.58573 0.0
N3574 N 0.99755 0.98529 0.58747 0.0
N3575 N 0.08645 0.0989 0.54993 0.0
C3576 C 1.02093 1.01195 0.57831 0.0
C3577 C 0.06344 0.07161 0.55892 0.0
N3578 N 0.97058 1.00994 0.55441 0.0
N3579 N 0.11326 0.07421 0.583 0.0
H3580 H 0.07462 0.11613 0.53979 0.0
H3581 H 0.11779 0.10302 0.55196 0.0
H3582 H 0.12475 0.0663 0.59507 0.0
H3583 H 0.12662 0.10071 0.57826 0.0
H3584 H 0.95783 0.98298 0.55899 0.0
H3585 H 0.95791 1.01893 0.54269 0.0
H3586 H 0.96621 0.98129 0.58538 0.0
H3587 H 1.00899 0.96865 0.59786 0.0
C3588 C 0.26766 0.82026 0.82597 0.0
C3589 C 0.30448 0.80614 0.83485 0.0
C3590 C 0.30852 0.75542 0.8091 0.0
C3591 C 0.27117 0.76891 0.80038 0.0
N3592 N 0.22098 0.82259 0.80072 0.0
N3593 N 0.35609 0.75408 0.83416 0.0
C3594 C 0.25285 0.80378 0.80899 0.0
C3595 C 0.32338 0.77194 0.82606 0.0
N3596 N 0.24414 0.84802 0.8345 0.0
N3597 N 0.33248 0.72838 0.80037 0.0
H3598 H 0.36863 0.76556 0.8456 0.0
H3599 H 0.36943 0.7268 0.83022 0.0
H3600 H 0.32354 0.71578 0.7886 0.0
H3601 H 0.36239 0.72093 0.80393 0.0
H3602 H 0.21474 0.85659 0.83063 0.0
H3603 H 0.25281 0.86001 0.84642 0.0
H3604 H 0.20979 0.85123 0.80417 0.0
H3605 H 0.20752 0.81079 0.78953 0.0
C3606 C 0.56091 0.04045 0.08243 0.0
C3607 C 0.52067 0.05958 0.08453 0.0
C3608 C 0.52175 0.05232 1.05114 0.0
C3609 C 0.55748 1.02571 1.04946 0.0
N3610 N 0.60263 0.98793 0.06841 0.0
N3611 N 0.46201 0.07773 1.06661 0.0
C3612 C 0.5741 1.01788 1.06661 0.0
C3613 C 0.50075 0.06237 0.06765 0.0
N3614 N 0.58951 0.04673 0.09494 0.0
N3615 N 0.51068 0.07409 1.03709 0.0
H3616 H 0.44743 0.09183 0.07682 0.0
H3617 H 0.4441 0.07528 1.05543 0.0
H3618 H 0.53206 0.07731 1.02754 0.0
H3619 H 0.48732 0.09584 1.0369 0.0
H3620 H 0.61973 1.03661 0.09383 0.0
H3621 H 0.58482 0.06815 0.10457 0.0
H3622 H 0.61362 0.97855 0.08044 0.0
H3623 H 0.61095 0.96941 1.05815 0.0
C3624 C 0.33337 0.77787 0.31776 0.0
C3625 C 0.31069 0.77299 0.33374 0.0
C3626 C 0.25179 0.80645 0.31552 0.0
C3627 C 0.27375 0.80975 0.29936 0.0
N3628 N 0.34277 0.80896 0.2892 0.0
N3629 N 0.24069 0.77132 0.3429 0.0
C3630 C 0.31628 0.79724 0.30171 0.0
C3631 C 0.26807 0.78498 0.33113 0.0
N3632 N 0.37234 0.76323 0.31751 0.0
N3633 N 0.21479 0.82537 0.31659 0.0
H3634 H 0.24944 0.7509 0.35246 0.0
H3635 H 0.20904 0.77443 0.34148 0.0
H3636 H 0.20218 0.84111 0.30629 0.0
H3637 H 0.19936 0.82954 0.32817 0.0
H3638 H 0.38851 0.75753 0.30624 0.0
H3639 H 0.38738 0.75461 0.32871 0.0
H3640 H 0.37447 0.80576 0.29004 0.0
H3641 H 0.33331 0.82758 0.27909 0.0
C3642 C 0.56199 1.00973 0.57787 0.0
C3643 C 0.56577 0.05286 0.58252 0.0
C3644 C 0.52594 0.06344 0.55356 0.0
C3645 C 0.52244 1.02037 0.54882 0.0
N3646 N 0.54607 0.95401 0.55715 0.0
N3647 N 0.54413 0.11961 0.57381 0.0
C3648 C 0.54254 0.9943 0.56145 0.0
C3649 C 0.54617 0.07901 0.56979 0.0
N3650 N 0.57787 0.98231 0.58931 0.0
N3651 N 0.50897 0.09056 0.5423 0.0
H3652 H 0.5568 0.1315 0.58513 0.0
H3653 H 0.5278 0.14127 0.56679 0.0
H3654 H 0.4893 0.08101 0.53246 0.0
H3655 H 0.51462 0.12183 0.54241 0.0
H3656 H 0.57113 0.95122 0.58917 0.0
H3657 H 0.59713 0.9912 0.59942 0.0
H3658 H 0.56328 0.93279 0.56406 0.0
H3659 H 0.53439 0.94245 0.54559 0.0
C3660 C 0.30571 0.31473 0.80615 0.0
C3661 C 0.31221 0.27141 0.80292 0.0
C3662 C 0.27417 0.26474 0.83222 0.0
C3663 C 0.27155 0.30805 0.83635 0.0
N3664 N 0.30036 0.37189 0.82651 0.0
N3665 N 0.31443 0.20931 0.81971 0.0
C3666 C 0.29125 0.33209 0.8229 0.0
C3667 C 0.29964 0.24787 0.81794 0.0
N3668 N 0.31632 0.3409 0.79341 0.0
N3669 N 0.25101 0.23833 0.84154 0.0
H3670 H 0.33816 0.19893 0.8121 0.0
H3671 H 0.30912 0.19139 0.83056 0.0
H3672 H 0.23025 0.2483 0.85074 0.0
H3673 H 0.24861 0.20734 0.83849 0.0
H3674 H 0.30681 0.3713 0.79304 0.0
H3675 H 0.3343 0.3313 0.78322 0.0
H3676 H 0.31718 0.39068 0.81839 0.0
H3677 H 0.29708 0.38433 0.8387 0.0
C3678 C 0.04682 0.07988 1.06706 0.0
C3679 C 0.05389 0.05619 1.05148 0.0
C3680 C 1.02735 0.99588 0.07061 0.0
C3681 C 1.01702 1.02037 0.08553 0.0
N3682 N 1.00988 0.09052 0.09423 0.0
N3683 N 0.04587 0.988 1.04014 0.0
C3684 C 1.02547 0.06352 0.0826 0.0
C3685 C 0.04211 1.01342 1.05392 0.0
N3686 N 0.06044 0.11926 0.06729 0.0
N3687 N 1.02574 0.95449 0.07258 0.0
H3688 H 0.06146 0.99658 1.02915 0.0
H3689 H 1.03224 0.95927 1.03934 0.0
H3690 H 1.01676 0.94091 0.08407 0.0
H3691 H 1.03699 0.93369 1.06362 0.0
H3692 H 0.06262 0.13667 0.07853 0.0
H3693 H 0.07238 0.13349 1.05645 0.0
H3694 H 1.01034 0.12209 0.09258 0.0
H3695 H 0.99167 0.08114 0.10444 0.0
C3696 C 0.82119 0.75612 0.8297 0.0
C3697 C 0.77978 0.76255 0.83607 0.0
C3698 C 0.77059 0.80188 0.80732 0.0
C3699 C 0.81267 0.79818 0.80155 0.0
N3700 N 0.87881 0.77405 0.8105 0.0
N3701 N 0.7202 0.80424 0.83066 0.0
C3702 C 0.8379 0.77615 0.81387 0.0
C3703 C 0.75653 0.78934 0.82475 0.0
N3704 N 0.84509 0.72925 0.83857 0.0
N3705 N 0.74276 0.81792 0.796 0.0
H3706 H 0.70739 0.79501 0.84226 0.0
H3707 H 0.70423 0.82783 0.8246 0.0
H3708 H 0.75123 0.82948 0.78409 0.0
H3709 H 0.71125 0.81801 0.79807 0.0
H3710 H 0.87391 0.7196 0.83461 0.0
H3711 H 0.83362 0.71287 0.8489 0.0
H3712 H 0.90065 0.76365 0.81933 0.0
H3713 H 0.89121 0.78582 0.7992 0.0
C3714 C 0.76567 0.29966 0.3323 0.0
C3715 C 0.80826 0.3117 0.33535 0.0
C3716 C 0.81781 0.28081 0.30467 0.0
C3717 C 0.77515 0.26854 0.30162 0.0
N3718 N 0.71251 0.25923 0.31746 0.0
N3719 N 0.87135 0.32015 0.31999 0.0
C3720 C 0.75072 0.27605 0.31692 0.0
C3721 C 0.8328 0.30414 0.32014 0.0
N3722 N 0.73718 0.3151 0.34331 0.0
N3723 N 0.84635 0.26559 0.29365 0.0
H3724 H 0.88461 0.33403 0.33071 0.0
H3725 H 0.88861 0.32298 0.30883 0.0
H3726 H 0.83914 0.24349 0.28448 0.0
H3727 H 0.87785 0.26925 0.29531 0.0
H3728 H 0.70566 0.31192 0.3415 0.0
H3729 H 0.74458 0.33664 0.35273 0.0
H3730 H 0.69581 0.25666 0.32879 0.0
H3731 H 0.69904 0.24422 0.30707 0.0
C3732 C 0.81137 0.32288 0.80778 0.0
C3733 C 0.77589 0.30659 0.79844 0.0
C3734 C 0.77358 0.25605 0.82429 0.0
C3735 C 0.80888 0.2727 0.83375 0.0
N3736 N 0.85557 0.32956 0.83361 0.0
N3737 N 0.72873 0.25041 0.79847 0.0
C3738 C 0.82558 0.30827 0.82512 0.0
C3739 C 0.759 0.27116 0.80704 0.0
N3740 N 0.83485 0.35065 0.79928 0.0
N3741 N 0.75112 0.22679 0.83239 0.0
H3742 H 0.71525 0.26123 0.78715 0.0
H3743 H 0.71892 0.22123 0.80179 0.0
H3744 H 0.75914 0.2152 0.84438 0.0
H3745 H 0.72255 0.21656 0.82813 0.0
H3746 H 0.86357 0.36049 0.80355 0.0
H3747 H 0.82763 0.36056 0.78692 0.0
H3748 H 0.86447 0.35901 0.83021 0.0
H3749 H 0.86965 0.31902 0.84483 0.0
C3750 C 0.81773 0.80251 0.32898 0.0
C3751 C 0.77492 0.81322 0.33175 0.0
C3752 C 0.76651 0.78601 0.30028 0.0
C3753 C 0.80927 0.77489 0.29763 0.0
N3754 N 0.87197 0.76564 0.31371 0.0
N3755 N 0.71084 0.81903 0.31651 0.0
C3756 C 0.83329 0.78117 0.3133 0.0
C3757 C 0.7505 0.80617 0.31625 0.0
N3758 N 0.84565 0.81686 0.34072 0.0
N3759 N 0.73919 0.77252 0.28816 0.0
H3760 H 0.69694 0.82842 0.32782 0.0
H3761 H 0.69276 0.82261 0.30549 0.0
H3762 H 0.74824 0.75388 0.27802 0.0
H3763 H 0.70749 0.77472 0.28929 0.0
H3764 H 0.87726 0.81492 0.33915 0.0
H3765 H 0.83749 0.83617 0.35078 0.0
H3766 H 0.88913 0.76223 0.32501 0.0
H3767 H 0.8853 0.75273 0.30295 0.0
C3768 C 0.5421 0.49556 0.06849 0.0
C3769 C 0.55811 0.52141 0.08213 0.0
C3770 C 0.53265 0.58028 1.06216 0.0
C3771 C 0.51951 0.55472 1.04777 0.0
N3772 N 0.5168 0.48411 1.03894 0.0
N3773 N 0.5768 0.59091 0.08761 0.0
C3774 C 0.5264 0.51145 1.05157 0.0
C3775 C 0.55489 0.56436 0.07767 0.0
N3776 N 0.53972 0.45477 0.07197 0.0
N3777 N 0.52462 0.62106 1.06119 0.0
H3778 H 0.59679 0.58023 0.09708 0.0
H3779 H 0.57989 0.62192 0.08491 0.0
H3780 H 0.51347 0.6348 1.05004 0.0
H3781 H 0.5267 0.64058 0.0718 0.0
H3782 H 0.52519 0.43357 1.06397 0.0
H3783 H 0.54917 0.44268 0.08377 0.0
H3784 H 0.52748 0.45411 1.03877 0.0
H3785 H 0.49868 0.49208 1.02842 0.0
C3786 C 1.03668 0.51493 0.58037 0.0
C3787 C 1.02551 0.55763 0.58303 0.0
C3788 C 0.05549 0.56536 0.55218 0.0
C3789 C 0.06713 0.52272 0.54968 0.0
N3790 N 0.07808 0.46189 0.56646 0.0
N3791 N 1.01944 0.62083 0.56742 0.0
C3792 C 0.06033 0.49941 0.56531 0.0
C3793 C 1.03357 0.58162 0.56767 0.0
N3794 N 1.02063 0.48704 0.59145 0.0
N3795 N 0.07043 0.59244 0.54053 0.0
H3796 H 1.00695 0.63502 0.57815 0.0
H3797 H 1.01713 0.63817 0.55621 0.0
H3798 H 0.09046 0.58321 0.53094 0.0
H3799 H 0.06832 0.62404 0.5418 0.0
H3800 H 1.02333 0.45556 0.58978 0.0
H3801 H 0.99914 0.49502 0.6007 0.0
H3802 H 0.0798 0.44528 0.57789 0.0
H3803 H 0.09554 0.44988 0.55659 0.0
C3804 C 1.02938 0.58407 0.07344 0.0
C3805 C 0.05789 0.56055 0.08396 0.0
C3806 C 0.05139 0.50773 1.05872 0.0
C3807 C 1.02016 0.52959 1.04872 0.0
N3808 N 0.98298 0.59282 1.04813 0.0
N3809 N 0.09215 0.49592 0.08531 0.0
C3810 C 1.01065 0.56896 1.05671 0.0
C3811 C 0.06779 0.52165 0.07592 0.0
N3812 N 1.02056 0.62233 0.07938 0.0
N3813 N 0.06671 0.4727 1.05172 0.0
H3814 H 0.1054 0.50457 0.09703 0.0
H3815 H 0.09701 0.46533 0.08225 0.0
H3816 H 0.05348 0.4582 1.04112 0.0
H3817 H 0.09394 0.4591 1.05584 0.0
H3818 H 1.00574 0.64479 0.07226 0.0
H3819 H 1.03079 0.63276 0.09139 0.0
H3820 H 0.97338 0.62155 1.05202 0.0
H3821 H 0.96849 0.58331 1.03684 0.0
C3822 C 0.50697 0.55173 0.57736 0.0
C3823 C 0.52506 0.5179 0.58697 0.0
C3824 C 0.57939 0.51997 0.56255 0.0
C3825 C 0.56207 0.55449 0.55325 0.0
N3826 N 0.50219 0.59717 0.55207 0.0
N3827 N 0.5855 0.47569 0.58808 0.0
C3828 C 0.52384 0.56813 0.56087 0.0
C3829 C 0.56328 0.50427 0.57929 0.0
N3830 N 0.47478 0.57146 0.58481 0.0
N3831 N 0.60944 0.49855 0.55443 0.0
H3832 H 0.57428 0.46051 0.59883 0.0
H3833 H 0.61598 0.46894 0.58533 0.0
H3834 H 0.62093 0.50734 0.54253 0.0
H3835 H 0.62009 0.47018 0.55856 0.0
H3836 H 0.46263 0.59895 0.5804 0.0
H3837 H 0.46277 0.56273 0.59659 0.0
H3838 H 0.4714 0.60353 0.55426 0.0
H3839 H 0.5144 0.61343 0.5418 0.0
C3840 C 0.30789 0.0837 0.43411 0.0
C3841 C 0.3175 0.12482 0.42692 0.0
C3842 C 0.38369 0.10932 0.44802 0.0
C3843 C 0.37578 0.0666 0.45385 0.0
N3844 N 0.32602 1.01529 0.44625 0.0
N3845 N 0.37663 0.16887 0.42806 0.0
C3846 C 0.33647 0.05545 0.44503 0.0
C3847 C 0.35874 0.13456 0.43447 0.0
N3848 N 0.26869 0.07102 0.4313 0.0
N3849 N 0.41572 0.1282 0.45616 0.0
H3850 H 0.36184 0.1876 0.41914 0.0
H3851 H 0.40732 0.17638 0.43015 0.0
H3852 H 0.43402 0.11325 0.46523 0.0
H3853 H 0.42144 0.15945 0.45533 0.0
H3854 H 0.25608 0.04557 0.43727 0.0
H3855 H 0.2476 0.08907 0.42463 0.0
H3856 H 0.30251 1.00187 0.43903 0.0
H3857 H 0.34427 0.99448 0.45293 0.0
C3858 C 0.26116 0.08104 0.70571 0.0
C3859 C 0.25851 0.12575 0.70928 0.0
C3860 C 0.19695 0.11344 0.68543 0.0
C3861 C 0.20221 0.06936 0.68127 0.0
N3862 N 0.2542 1.01932 0.68716 0.0
N3863 N 0.20975 0.1784 0.7018 0.0
C3864 C 0.23856 0.05646 0.69148 0.0
C3865 C 0.22255 0.13946 0.69857 0.0
N3866 N 0.2847 0.05949 0.71698 0.0
N3867 N 0.16777 0.13248 0.67562 0.0
H3868 H 0.22454 0.19744 0.71061 0.0
H3869 H 0.18238 0.19079 0.69726 0.0
H3870 H 0.14904 0.11632 0.66702 0.0
H3871 H 0.16428 0.16399 0.67473 0.0
H3872 H 0.28521 1.0277 0.71752 0.0
H3873 H 0.30135 0.07403 0.7266 0.0
H3874 H 0.2827 1.009 0.69151 0.0
H3875 H 0.24019 1.00055 0.67799 0.0
C3876 C 0.22396 0.97464 0.95954 0.0
C3877 C 0.20042 1.01222 0.95533 0.0
C3878 C 0.23604 0.99412 0.92459 0.0
C3879 C 0.25779 0.95514 0.92841 0.0
N3880 N 0.26039 0.90938 0.95248 0.0
N3881 N 0.17844 0.04318 0.92889 0.0
C3882 C 0.24764 0.94653 0.94677 0.0
C3883 C 0.20567 1.01725 0.93645 0.0
N3884 N 0.22364 0.96452 0.97654 0.0
N3885 N 0.24391 1.0105 0.90885 0.0
H3886 H 0.15557 0.05731 0.93607 0.0
H3887 H 0.1753 0.0463 0.91559 0.0
H3888 H 0.26247 0.99571 0.89991 0.0
H3889 H 0.23489 0.03995 0.9054 0.0
H3890 H 0.24112 0.94118 0.98187 0.0
H3891 H 0.20718 0.98152 0.98553 0.0
H3892 H 0.25091 0.89617 0.96395 0.0
H3893 H 0.27807 0.89033 0.94479 0.0
C3894 C 0.35284 0.93943 0.19466 0.0
C3895 C 0.31371 0.95112 0.20322 0.0
C3896 C 0.33089 1.01946 0.18444 0.0
C3897 C 0.36981 1.00797 0.17605 0.0
N3898 N 0.41006 0.9471 0.17345 0.0
N3899 N 0.27537 1.01336 0.20593 0.0
C3900 C 0.37805 0.96529 0.18166 0.0
C3901 C 0.30638 0.99415 0.19769 0.0
N3902 N 0.36876 0.90293 0.19988 0.0
N3903 N 0.31498 0.05589 0.17919 0.0
H3904 H 0.25435 0.99722 0.21311 0.0
H3905 H 0.27282 0.04502 0.20671 0.0
H3906 H 0.33076 0.07545 0.17103 0.0
H3907 H 0.28534 0.06549 0.18189 0.0
H3908 H 0.39839 0.8932 0.1972 0.0
H3909 H 0.35357 0.88386 0.20842 0.0
H3910 H 0.41617 0.91591 0.17384 0.0
H3911 H 0.42836 0.96294 0.16477 0.0
C3912 C 0.72301 0.93724 0.6972 0.0
C3913 C 0.76369 0.94649 0.70536 0.0
C3914 C 0.74811 1.01568 0.68639 0.0
C3915 C 0.7078 1.0061 0.67803 0.0
N3916 N 0.66577 0.94593 0.67581 0.0
N3917 N 0.80739 1.00537 0.70667 0.0
C3918 C 0.69848 0.96369 0.68393 0.0
C3919 C 0.77325 0.98871 0.6993 0.0
N3920 N 0.7048 0.9025 0.70306 0.0
N3921 N 0.76478 0.05189 0.68143 0.0
H3922 H 0.82857 0.98778 0.71348 0.0
H3923 H 0.813 1.03667 0.70713 0.0
H3924 H 0.74824 0.07306 0.6742 0.0
H3925 H 0.79533 0.05982 0.68348 0.0
H3926 H 0.6741 0.89526 0.70086 0.0
H3927 H 0.71923 0.88292 0.71175 0.0
H3928 H 0.65924 0.91482 0.67635 0.0
H3929 H 0.64753 0.96165 0.66698 0.0
C3930 C 0.89274 0.96586 0.44892 0.0
C3931 C 0.88446 1.00812 0.45519 0.0
C3932 C 0.81782 0.99326 0.43451 0.0
C3933 C 0.82582 0.95121 0.4281 0.0
N3934 N 0.88292 0.90464 0.42991 0.0
N3935 N 0.82653 0.0529 0.45383 0.0
C3936 C 0.86656 0.94026 0.43585 0.0
C3937 C 0.84366 1.01827 0.44762 0.0
N3938 N 0.92565 0.94745 0.45659 0.0
N3939 N 0.7845 1.012 0.42742 0.0
H3940 H 0.84377 0.07439 0.46046 0.0
H3941 H 0.795 0.05809 0.45353 0.0
H3942 H 0.76275 0.99601 0.4203 0.0
H3943 H 0.77949 0.04344 0.428 0.0
H3944 H 0.93177 0.9163 0.4558 0.0
H3945 H 0.94459 0.9628 0.46535 0.0
H3946 H 0.91331 0.89601 0.43186 0.0
H3947 H 0.86708 0.88533 0.42153 0.0
C3948 C 0.88998 0.10767 0.18739 0.0
C3949 C 0.88343 0.06383 0.18253 0.0
C3950 C 0.82488 0.07633 0.20655 0.0
C3951 C 0.828 0.12081 0.21044 0.0
N3952 N 0.87735 0.17284 0.20373 0.0
N3953 N 0.82679 1.01776 0.18631 0.0
C3954 C 0.86423 0.13409 0.20018 0.0
C3955 C 0.84573 0.05236 0.19189 0.0
N3956 N 0.92084 0.12631 0.17871 0.0
N3957 N 0.80268 0.0543 0.21791 0.0
H3958 H 0.83888 0.9998 0.17653 0.0
H3959 H 0.79748 1.00954 0.19028 0.0
H3960 H 0.79164 0.06798 0.22893 0.0
H3961 H 0.799 1.02276 0.21724 0.0
H3962 H 0.9248 0.15775 0.17782 0.0
H3963 H 0.94123 0.10989 0.17121 0.0
H3964 H 0.90495 0.18519 0.19965 0.0
H3965 H 0.8623 0.1919 0.21234 0.0
C3966 C 0.74397 0.06176 0.94692 0.0
C3967 C 0.70317 0.07169 0.9542 0.0
C3968 C 0.71972 0.1392 0.93465 0.0
C3969 C 0.76058 0.12875 0.92734 0.0
N3970 N 0.80447 0.06993 0.92764 0.0
N3971 N 0.65998 0.13101 0.95455 0.0
C3972 C 0.76983 0.08725 0.93409 0.0
C3973 C 0.69388 0.11345 0.94754 0.0
N3974 N 0.76038 1.02649 0.95292 0.0
N3975 N 0.70306 0.17438 0.92832 0.0
H3976 H 0.64114 0.1153 0.96305 0.0
H3977 H 0.65256 0.1618 0.95336 0.0
H3978 H 0.71885 0.19315 0.91981 0.0
H3979 H 0.67272 0.1831 0.93008 0.0
H3980 H 0.79155 1.0206 0.95269 0.0
H3981 H 0.74296 1.00503 0.95941 0.0
H3982 H 0.8117 0.03906 0.92878 0.0
H3983 H 0.82497 0.08632 0.92013 0.0
C3984 C 0.86738 0.63716 0.93595 0.0
C3985 C 0.82499 0.629 0.92931 0.0
C3986 C 0.83711 0.56599 0.95162 0.0
C3987 C 0.88076 0.57086 0.95701 0.0
N3988 N 0.9314 0.62324 0.95356 0.0
N3989 N 0.78113 0.56973 0.92977 0.0
C3990 C 0.8935 0.60985 0.94853 0.0
C3991 C 0.81413 0.58885 0.937 0.0
N3992 N 0.88468 0.67157 0.92928 0.0
N3993 N 0.81459 0.5404 0.96152 0.0
H3994 H 0.76574 0.58131 0.91902 0.0
H3995 H 0.77163 0.54069 0.93335 0.0
H3996 H 0.8274 0.52505 0.97197 0.0
H3997 H 0.78271 0.53854 0.96056 0.0
H3998 H 0.91492 0.68062 0.93108 0.0
H3999 H 0.86863 0.69063 0.92085 0.0
H4000 H 0.9442 0.65122 0.95036 0.0
H4001 H 0.94969 0.60681 0.96217 0.0
C4002 C 0.69401 0.6113 0.18191 0.0
C4003 C 0.70277 0.56905 0.17576 0.0
C4004 C 0.76908 0.58455 0.19666 0.0
C4005 C 0.75999 0.62643 0.20297 0.0
N4006 N 0.70303 0.67271 0.20093 0.0
N4007 N 0.75915 0.52239 0.17841 0.0
C4008 C 0.71959 0.63712 0.19504 0.0
C4009 C 0.74323 0.55856 0.18374 0.0
N4010 N 0.66099 0.6293 0.17415 0.0
N4011 N 0.80367 0.56765 0.20357 0.0
H4012 H 0.74175 0.50192 0.17127 0.0
H4013 H 0.78974 0.51404 0.17992 0.0
H4014 H 0.82438 0.58476 0.21088 0.0
H4015 H 0.81089 0.53671 0.20296 0.0
H4016 H 0.65439 0.66035 0.17497 0.0
H4017 H 0.64236 0.61374 0.16535 0.0
H4018 H 0.67272 0.6814 0.1988 0.0
H4019 H 0.71871 0.69188 0.20946 0.0
C4020 C 0.76907 0.49203 0.43806 0.0
C4021 C 0.75896 0.45136 0.4305 0.0
C4022 C 0.69147 0.46718 0.45022 0.0
C4023 C 0.70066 0.5088 0.4571 0.0
N4024 N 0.75757 0.55503 0.45576 0.0
N4025 N 0.69968 0.40757 0.4303 0.0
C4026 C 0.74204 0.51872 0.45015 0.0
C4027 C 0.71722 0.44178 0.43719 0.0
N4028 N 0.80655 0.50647 0.43352 0.0
N4029 N 0.6577 0.44919 0.45713 0.0
H4030 H 0.71538 0.38827 0.42199 0.0
H4031 H 0.66875 0.40032 0.43148 0.0
H4032 H 0.63882 0.46438 0.4658 0.0
H4033 H 0.65075 0.41829 0.45577 0.0
H4034 H 0.81603 0.53668 0.43467 0.0
H4035 H 0.8284 0.48727 0.42814 0.0
H4036 H 0.7881 0.56374 0.45489 0.0
H4037 H 0.73938 0.5765 0.46189 0.0
C4038 C 0.81445 0.49661 0.69797 0.0
C4039 C 0.82293 0.45449 0.70453 0.0
C4040 C 0.88991 0.46958 0.68442 0.0
C4041 C 0.88139 0.51165 0.67774 0.0
N4042 N 0.8258 0.55914 0.67989 0.0
N4043 N 0.88033 0.40889 0.70372 0.0
C4044 C 0.84082 0.52244 0.68526 0.0
C4045 C 0.86376 0.44398 0.69726 0.0
N4046 N 0.78008 0.51402 0.7046 0.0
N4047 N 0.92379 0.45153 0.67763 0.0
H4048 H 0.86438 0.39013 0.71219 0.0
H4049 H 0.91082 0.40037 0.70221 0.0
H4050 H 0.94371 0.46716 0.6696 0.0
H4051 H 0.93032 0.4205 0.67862 0.0
H4052 H 0.77266 0.54483 0.70359 0.0
H4053 H 0.75977 0.49751 0.71215 0.0
H4054 H 0.7955 0.56838 0.68129 0.0
H4055 H 0.84375 0.57964 0.67301 0.0
C4056 C 0.22309 0.46861 0.20894 0.0
C4057 C 0.26259 0.44754 0.20524 0.0
C4058 C 0.2466 0.48786 0.17514 0.0
C4059 C 0.20617 0.50747 0.17849 0.0
N4060 N 0.15602 0.50072 0.2009 0.0
N4061 N 0.29549 0.42987 0.17866 0.0
C4062 C 0.19534 0.49295 0.19611 0.0
C4063 C 0.26919 0.45593 0.18661 0.0
N4064 N 0.21005 0.46461 0.22542 0.0
N4065 N 0.26485 0.49893 0.16016 0.0
H4066 H 0.30718 0.40429 0.18504 0.0
H4067 H 0.30028 0.4298 0.16541 0.0
H4068 H 0.25072 0.51841 0.15132 0.0
H4069 H 0.29511 0.49139 0.15731 0.0
H4070 H 0.18689 0.48239 0.23076 0.0
H4071 H 0.22467 0.44495 0.23402 0.0
H4072 H 0.14229 0.48762 0.21161 0.0
H4073 H 0.13577 0.51727 0.19318 0.0
C4074 C 0.37139 0.51497 0.93643 0.0
C4075 C 0.3763 0.50975 0.95532 0.0
C4076 C 0.32933 0.44413 0.94682 0.0
C4077 C 0.31969 0.45253 0.92833 0.0
N4078 N 0.33611 0.50523 0.908 0.0
N4079 N 0.35107 0.46408 0.97679 0.0
C4080 C 0.34211 0.49083 0.92427 0.0
C4081 C 0.35258 0.47262 0.95963 0.0
N4082 N 0.3972 0.54285 0.92932 0.0
N4083 N 0.31576 0.40749 0.95281 0.0
H4084 H 0.36712 0.48155 0.98591 0.0
H4085 H 0.33138 0.44255 0.98209 0.0
H4086 H 0.29722 0.38817 0.94545 0.0
H4087 H 0.32512 0.39502 0.96454 0.0
H4088 H 0.40083 0.5465 0.9161 0.0
H4089 H 0.4184 0.55914 0.93679 0.0
H4090 H 0.34458 0.5345 0.90416 0.0
H4091 H 0.32021 0.48849 0.89866 0.0
C4092 C 0.33703 0.55379 0.68711 0.0
C4093 C 0.37874 0.5633 0.68049 0.0
C4094 C 0.36155 0.63062 0.70034 0.0
C4095 C 0.31991 0.62071 0.70704 0.0
N4096 N 0.27565 0.56226 0.70587 0.0
N4097 N 0.42288 0.62193 0.68129 0.0
C4098 C 0.31078 0.57936 0.69988 0.0
C4099 C 0.38808 0.60474 0.68764 0.0
N4100 N 0.32017 0.51906 0.6805 0.0
N4101 N 0.37823 0.6654 0.70712 0.0
H4102 H 0.44213 0.60614 0.67293 0.0
H4103 H 0.43079 0.65252 0.68285 0.0
H4104 H 0.36194 0.68434 0.71543 0.0
H4105 H 0.40887 0.67364 0.70591 0.0
H4106 H 0.28906 0.51228 0.68103 0.0
H4107 H 0.33723 0.49839 0.67335 0.0
H4108 H 0.26892 0.53124 0.70493 0.0
H4109 H 0.25452 0.57906 0.71291 0.0
C4110 C 0.20179 0.60705 0.44776 0.0
C4111 C 0.21099 0.56525 0.45441 0.0
C4112 C 0.27796 0.58139 0.43433 0.0
C4113 C 0.26814 0.62274 0.42733 0.0
N4114 N 0.20936 0.66701 0.42806 0.0
N4115 N 0.26833 0.51965 0.453 0.0
C4116 C 0.22705 0.63257 0.43462 0.0
C4117 C 0.25201 0.55529 0.4471 0.0
N4118 N 0.16853 0.62519 0.45505 0.0
N4119 N 0.31348 0.56513 0.42825 0.0
H4120 H 0.25113 0.49891 0.46005 0.0
H4121 H 0.29915 0.51195 0.45207 0.0
H4122 H 0.33387 0.58226 0.42097 0.0
H4123 H 0.32182 0.53461 0.42949 0.0
H4124 H 0.16189 0.6562 0.454 0.0
H4125 H 0.14983 0.60997 0.46373 0.0
H4126 H 0.17868 0.67469 0.42972 0.0
H4127 H 0.22435 0.68588 0.41937 0.0
C4128 C 0.41116 1.03343 0.33446 0.0
C4129 C 0.38657 0.06887 0.33366 0.0
C4130 C 0.35787 0.04811 0.30627 0.0
C4131 C 0.37053 1.00735 0.31017 0.0
N4132 N 0.42255 0.96481 0.32296 0.0
N4133 N 0.36998 0.11993 0.31267 0.0
C4134 C 0.40292 1.00155 0.32232 0.0
C4135 C 0.37217 0.07984 0.31718 0.0
N4136 N 0.43588 1.02813 0.34851 0.0
N4137 N 0.33008 0.05646 0.2935 0.0
H4138 H 0.38186 0.14258 0.32081 0.0
H4139 H 0.36081 0.12963 0.30044 0.0
H4140 H 0.31923 1.0349 0.28474 0.0
H4141 H 0.31686 0.08526 0.29195 0.0
H4142 H 0.45228 1.00152 0.3511 0.0
H4143 H 0.43901 0.05141 0.35769 0.0
H4144 H 0.44662 0.95829 0.33141 0.0
H4145 H 0.41562 0.94164 0.3141 0.0
C4146 C 0.25396 0.13227 0.5561 0.0
C4147 C 0.26868 0.09971 0.56653 0.0
C4148 C 0.33825 0.12153 0.56052 0.0
C4149 C 0.32294 0.13855 0.5451 0.0
N4150 N 0.27328 0.18931 0.53763 0.0
N4151 N 0.3268 0.06733 0.58096 0.0
C4152 C 0.28285 0.1543 0.54618 0.0
C4153 C 0.31151 0.09637 0.57004 0.0
N4154 N 0.21298 0.14036 0.5551 0.0
N4155 N 0.37827 0.12718 0.56503 0.0
H4156 H 0.30837 0.04738 0.58789 0.0
H4157 H 0.35813 0.0617 0.58233 0.0
H4158 H 0.39756 0.14473 0.55731 0.0
H4159 H 0.39076 0.11679 0.57664 0.0
H4160 H 0.20026 0.16129 0.54649 0.0
H4161 H 0.19183 0.12531 0.56287 0.0
H4162 H 0.24496 0.20386 0.53853 0.0
H4163 H 0.29554 0.20461 0.53048 0.0
C4164 C 0.20583 0.06092 0.82315 0.0
C4165 C 0.21428 0.06023 0.80532 0.0
C4166 C 0.18029 0.99436 0.80313 0.0
C4167 C 0.19139 0.98862 0.82055 0.0
N4168 N 0.17612 1.02339 0.84704 0.0
N4169 N 0.19688 1.03326 0.7774 0.0
C4170 C 0.19049 1.02464 0.83066 0.0
C4171 C 0.19537 1.02997 0.79487 0.0
N4172 N 0.2172 0.09388 0.83285 0.0
N4173 N 0.16002 0.96406 0.79457 0.0
H4174 H 0.20871 0.05947 0.77159 0.0
H4175 H 0.18729 1.01019 0.76901 0.0
H4176 H 0.15153 0.93736 0.80101 0.0
H4177 H 0.15026 0.96656 0.7818 0.0
H4178 H 0.21609 0.09428 0.84627 0.0
H4179 H 0.22877 0.1203 0.82711 0.0
H4180 H 0.17343 0.04928 0.85481 0.0
H4181 H 0.16436 0.99625 0.85208 0.0
C4182 C 0.29557 0.97068 1.0286 0.0
C4183 C 0.26042 0.95598 1.03706 0.0
C4184 C 0.27676 0.99583 1.06257 0.0
C4185 C 0.31095 1.01257 1.0538 0.0
N4186 N 0.36037 1.00638 1.03108 0.0
N4187 N 0.2278 0.94035 1.06387 0.0
C4188 C 0.32299 0.99667 1.03766 0.0
C4189 C 0.25541 0.96294 1.05485 0.0
N4190 N 0.3008 0.962 1.01158 0.0
N4191 N 0.26217 1.01352 0.0773 0.0
H4192 H 0.21139 0.91643 1.05817 0.0
H4193 H 0.22474 0.94244 0.07721 0.0
H4194 H 0.27442 0.04003 0.08274 0.0
H4195 H 0.23502 1.00443 0.08314 0.0
H4196 H 0.32229 0.97659 1.00386 0.0
H4197 H 0.28231 0.94049 1.00532 0.0
H4198 H 0.37184 0.99225 1.02016 0.0
H4199 H 0.3814 1.02519 1.03752 0.0
C4200 C 0.78106 1.02556 0.80184 0.0
C4201 C 0.74058 1.01113 0.80487 0.0
C4202 C 0.71546 0.08127 0.8037 0.0
C4203 C 0.75585 0.09436 0.80015 0.0
N4204 N 0.8214 0.07713 0.78791 0.0
N4205 N 0.66782 1.02421 0.80492 0.0
C4206 C 0.7862 0.06555 0.79596 0.0
C4207 C 0.70704 1.03864 0.80445 0.0
N4208 N 0.81473 1.00194 0.80527 0.0
N4209 N 0.68628 0.10974 0.80736 0.0
H4210 H 0.66123 0.99311 0.80608 0.0
H4211 H 0.64223 0.04286 0.80316 0.0
H4212 H 0.69238 0.14101 0.80634 0.0
H4213 H 0.65725 0.10234 0.8119 0.0
H4214 H 0.84468 1.0129 0.8044 0.0
H4215 H 0.81305 0.97349 0.81111 0.0
H4216 H 0.84365 0.05622 0.78402 0.0
H4217 H 0.8258 0.10664 0.78328 0.0
C4218 C 0.8026 0.9193 0.5827 0.0
C4219 C 0.76168 0.93288 0.58349 0.0
C4220 C 0.77256 0.97751 0.55929 0.0
C4221 C 0.81521 0.97648 0.56349 0.0
N4222 N 0.87222 0.93784 0.57505 0.0
N4223 N 0.70682 0.94355 0.56335 0.0
C4224 C 0.83094 0.94381 0.5736 0.0
C4225 C 0.74652 0.95018 0.56812 0.0
N4226 N 0.81336 0.88373 0.59057 0.0
N4227 N 0.75657 1.00636 0.54847 0.0
H4228 H 0.68792 0.9249 0.57078 0.0
H4229 H 0.69425 0.95426 0.5518 0.0
H4230 H 0.77439 1.0278 0.54206 0.0
H4231 H 0.72512 1.01025 0.54658 0.0
H4232 H 0.84247 0.8708 0.58973 0.0
H4233 H 0.79137 0.86628 0.59696 0.0
H4234 H 0.88541 0.91692 0.58355 0.0
H4235 H 0.89303 0.95465 0.56779 0.0
C4236 C 0.88525 1.03181 0.34158 0.0
C4237 C 0.9006 0.99605 0.33372 0.0
C4238 C 0.90213 1.03163 0.30639 0.0
C4239 C 0.87023 0.05664 0.31278 0.0
N4240 N 0.83993 0.08979 0.33739 0.0
N4241 N 0.95094 0.97704 0.31305 0.0
C4242 C 0.86562 0.06091 0.33084 0.0
C4243 C 0.91992 1.00237 0.31776 0.0
N4244 N 0.88939 1.03723 0.35889 0.0
N4245 N 0.91147 1.03303 0.28933 0.0
H4246 H 0.96133 0.95427 0.32145 0.0
H4247 H 0.96702 0.98003 0.30159 0.0
H4248 H 0.89787 0.05461 0.28118 0.0
H4249 H 0.93186 1.01302 0.28344 0.0
H4250 H 0.88021 0.06382 0.36522 0.0
H4251 H 0.90554 1.01606 0.36639 0.0
H4252 H 0.83202 0.09106 0.35036 0.0
H4253 H 0.82606 0.11182 0.32957 0.0
C4254 C 0.85181 0.1117 0.0693 0.0
C4255 C 0.84002 0.13508 0.08369 0.0
C4256 C 0.76973 0.13454 0.07309 0.0
C4257 C 0.77959 0.09824 1.06403 0.0
N4258 N 0.83164 0.0559 1.05068 0.0
N4259 N 0.79687 0.19251 0.08944 0.0
C4260 C 0.82126 0.08855 1.06072 0.0
C4261 C 0.80178 0.15499 0.08214 0.0
N4262 N 0.89152 0.1121 1.06407 0.0
N4263 N 0.73007 0.14767 0.07376 0.0
H4264 H 0.82127 0.20663 0.09596 0.0
H4265 H 0.77028 0.20993 0.08815 0.0
H4266 H 0.70668 0.13348 1.06666 0.0
H4267 H 0.7205 0.17188 0.08148 0.0
H4268 H 0.90139 0.09727 1.05294 0.0
H4269 H 0.91335 0.13015 0.07047 0.0
H4270 H 0.8617 0.04533 1.04979 0.0
H4271 H 0.81008 1.03819 1.04404 0.0
C4272 C 0.79148 0.62046 0.81481 0.0
C4273 C 0.75174 0.62828 0.8082 0.0
C4274 C 0.73713 0.55592 0.80617 0.0
C4275 C 0.77651 0.54774 0.8135 0.0
N4276 N 0.84461 0.5705 0.82105 0.0
N4277 N 0.69299 0.60528 0.79209 0.0
C4278 C 0.80497 0.57954 0.81662 0.0
C4279 C 0.72702 0.59639 0.80178 0.0
N4280 N 0.81535 0.65249 0.81981 0.0
N4281 N 0.70899 0.52523 0.80387 0.0
H4282 H 0.68462 0.63524 0.78919 0.0
H4283 H 0.67558 0.5833 0.78562 0.0
H4284 H 0.71462 0.49479 0.80694 0.0
H4285 H 0.6786 0.53029 0.80021 0.0
H4286 H 0.84259 0.64947 0.82679 0.0
H4287 H 0.80666 0.68226 0.81677 0.0
H4288 H 0.86785 0.59226 0.8219 0.0
H4289 H 0.85469 0.54064 0.82319 0.0
C4290 C 0.84044 0.5864 1.05911 0.0
C4291 C 0.87927 0.59141 1.06655 0.0
C4292 C 0.84504 0.61768 0.09188 0.0
C4293 C 0.81231 0.5905 0.08766 0.0
N4294 N 0.77523 0.55583 1.06402 0.0
N4295 N 0.91225 0.64328 0.08341 0.0
C4296 C 0.80774 0.57789 0.07013 0.0
C4297 C 0.87954 0.61829 0.08079 0.0
N4298 N 0.83426 0.5947 1.04224 0.0
N4299 N 0.84466 0.63816 0.1072 0.0
H4300 H 0.9361 0.64362 0.07461 0.0
H4301 H 0.91421 0.66485 0.09327 0.0
H4302 H 0.81907 0.63704 0.1152 0.0
H4303 H 0.86917 0.65541 0.11189 0.0
H4304 H 0.80462 0.59676 1.03711 0.0
H4305 H 0.85865 0.60408 1.03455 0.0
H4306 H 0.77484 0.5442 1.05145 0.0
H4307 H 0.74961 0.54831 0.07114 0.0
C4308 C 0.6682 0.54312 0.33409 0.0
C4309 C 0.69327 0.50799 0.33388 0.0
C4310 C 0.72918 0.53186 0.30889 0.0
C4311 C 0.71428 0.57193 0.3126 0.0
N4312 N 0.65882 0.61277 0.3235 0.0
N4313 N 0.71693 0.45931 0.31312 0.0
C4314 C 0.67915 0.57636 0.32318 0.0
C4315 C 0.71227 0.49888 0.31816 0.0
N4316 N 0.64005 0.54674 0.34684 0.0
N4317 N 0.76137 0.52534 0.29809 0.0
H4318 H 0.70382 0.43551 0.32012 0.0
H4319 H 0.72965 0.4511 0.30132 0.0
H4320 H 0.77579 0.54831 0.29119 0.0
H4321 H 0.77526 0.49681 0.29675 0.0
H4322 H 0.62303 0.57302 0.34918 0.0
H4323 H 0.63478 0.52241 0.35525 0.0
H4324 H 0.63272 0.61813 0.33078 0.0
H4325 H 0.66725 0.63695 0.31551 0.0
C4326 C 0.79811 0.45104 0.55115 0.0
C4327 C 0.75813 0.44501 0.5576 0.0
C4328 C 0.78819 0.42278 0.5848 0.0
C4329 C 0.82233 0.44766 0.58082 0.0
N4330 N 0.8684 0.46896 0.55845 0.0
N4331 N 0.7193 0.4013 0.57585 0.0
C4332 C 0.83077 0.45509 0.56322 0.0
C4333 C 0.75513 0.42112 0.57267 0.0
N4334 N 0.80464 0.45069 0.53385 0.0
N4335 N 0.78531 0.40717 0.60099 0.0
H4336 H 0.69513 0.40232 0.56691 0.0
H4337 H 0.71434 0.38322 0.58665 0.0
H4338 H 0.80946 0.41063 0.60984 0.0
H4339 H 0.75992 0.3913 0.60548 0.0
H4340 H 0.83351 0.45382 0.52837 0.0
H4341 H 0.78153 0.44177 0.52524 0.0
H4342 H 0.87468 0.4802 0.54621 0.0
H4343 H 0.89333 0.46894 0.56695 0.0
C4344 C 0.22617 0.53561 0.32736 0.0
C4345 C 0.23245 0.56719 0.31525 0.0
C4346 C 0.28555 0.52909 0.30129 0.0
C4347 C 0.28515 0.50001 0.31497 0.0
N4348 N 0.24527 0.46735 0.3371 0.0
N4349 N 0.242 0.57557 0.28506 0.0
C4350 C 0.25176 0.50022 0.32669 0.0
C4351 C 0.25234 0.55649 0.3 0.0
N4352 N 0.19893 0.54198 0.34029 0.0
N4353 N 0.31836 0.53334 0.29064 0.0
H4354 H 0.21401 0.59086 0.28379 0.0
H4355 H 0.25961 0.5742 0.27407 0.0
H4356 H 0.34537 0.51664 0.29192 0.0
H4357 H 0.32036 0.55705 0.28174 0.0
H4358 H 0.19549 0.52249 0.35077 0.0
H4359 H 0.18089 0.56839 0.34051 0.0
H4360 H 0.22054 0.46502 0.34543 0.0
H4361 H 0.26303 0.44088 0.33624 0.0
C4362 C 0.26765 0.42779 1.04251 0.0
C4363 C 0.30032 0.45451 1.04705 0.0
C4364 C 0.28042 0.44715 0.07691 0.0
C4365 C 0.23994 0.4422 0.07079 0.0
N4366 N 0.20066 0.40138 1.05116 0.0
N4367 N 0.34615 0.47648 0.07023 0.0
C4368 C 0.23605 0.42179 1.05482 0.0
C4369 C 0.31038 0.45884 1.06486 0.0
N4370 N 0.2645 0.41423 1.02594 0.0
N4371 N 0.28961 0.44036 0.0938 0.0
H4372 H 0.37039 0.48217 1.06198 0.0
H4373 H 0.35148 0.48504 0.08301 0.0
H4374 H 0.26736 0.42931 0.1022 0.0
H4375 H 0.31943 0.44181 0.09875 0.0
H4376 H 0.24033 0.39651 1.02126 0.0
H4377 H 0.28746 0.42079 1.01704 0.0
H4378 H 0.19471 0.38654 1.03953 0.0
H4379 H 0.17761 0.39925 1.0604 0.0
C4380 C 0.38756 0.56211 0.81066 0.0
C4381 C 0.3871 0.60192 0.81759 0.0
C4382 C 0.38679 0.57234 0.84611 0.0
C4383 C 0.36427 0.5395 0.83866 0.0
N4384 N 0.35818 0.49469 0.81373 0.0
N4385 N 0.42024 0.63801 0.84058 0.0
C4386 C 0.37085 0.53061 0.82092 0.0
C4387 C 0.4002 0.60402 0.83493 0.0
N4388 N 0.40185 0.5556 0.79448 0.0
N4389 N 0.38951 0.5754 0.86358 0.0
H4390 H 0.42725 0.66152 0.83199 0.0
H4391 H 0.43074 0.64189 0.8532 0.0
H4392 H 0.37816 0.55217 0.87145 0.0
H4393 H 0.40245 0.60029 0.87001 0.0
H4394 H 0.40432 0.52657 0.78901 0.0
H4395 H 0.41366 0.5798 0.78728 0.0
H4396 H 0.35773 0.48963 0.80046 0.0
H4397 H 0.3484 0.47007 0.82109 0.0
C4398 C 0.30601 0.65763 0.54862 0.0
C4399 C 0.26493 0.64434 0.54819 0.0
C4400 C 0.2776 0.59953 0.57221 0.0
C4401 C 0.31998 0.6005 0.56781 0.0
N4402 N 0.37621 0.6386 0.55566 0.0
N4403 N 0.21193 0.63425 0.56883 0.0
C4404 C 0.33503 0.63294 0.5575 0.0
C4405 C 0.25112 0.62738 0.56372 0.0
N4406 N 0.31631 0.69303 0.5406 0.0
N4407 N 0.26206 0.57016 0.58279 0.0
H4408 H 0.19248 0.65303 0.56156 0.0
H4409 H 0.20042 0.62357 0.58048 0.0
H4410 H 0.27997 0.54777 0.58869 0.0
H4411 H 0.2307 0.56656 0.58481 0.0
H4412 H 0.3456 0.70575 0.54117 0.0
H4413 H 0.29389 0.71055 0.53434 0.0
H4414 H 0.3887 0.65929 0.54698 0.0
H4415 H 0.39767 0.62174 0.56274 0.0
loop_
_geom_bond_atom_site_label_1
_geom_bond_atom_site_label_2
_geom_bond_distance
_geom_bond_site_symmetry_2
_ccdc_geom_bond_type
Eu0 N29 2.600 . S
Eu0 N35 2.562 . S
Eu0 O44 2.462 . S
Eu0 O45 2.373 . S
Eu0 O47 2.432 . S
Eu0 O48 2.291 . S
Eu0 O52 2.335 . S
Eu0 O55 2.372 . S
Eu0 C64 2.787 . S
C1 N2 1.365 . S
C1 C4 1.405 . S
C1 C8 1.448 . S
N2 C1 1.365 . S
N2 C5 1.319 . S
N2 Eu11 2.600 . S
C3 C5 1.397 . S
C3 C6 1.367 . S
C3 H23 0.931 . S
C4 C1 1.405 . S
C4 C6 1.403 . S
C4 C10 1.439 . S
C5 N2 1.319 . S
C5 C3 1.397 . S
C5 H16 0.930 . S
C6 C3 1.367 . S
C6 C4 1.403 . S
C6 H27 0.929 . S
C7 C8 1.430 . S
C7 C9 1.387 . S
C7 C13 1.404 . S
C8 C1 1.448 . S
C8 C7 1.430 . S
C8 N12 1.351 . S
C9 C7 1.387 . S
C9 C10 1.374 . S
C9 H24 0.931 . S
C10 C4 1.439 . S
C10 C9 1.374 . S
C10 H25 0.931 . S
Eu11 N2 2.600 . S
Eu11 N12 2.562 . S
Eu11 O46 2.335 . S
Eu11 O49 2.372 . S
Eu11 O50 2.462 . S
Eu11 O51 2.373 . S
Eu11 O53 2.432 . S
Eu11 O54 2.291 . S
Eu11 C75 2.787 . S
N12 C8 1.351 . S
N12 Eu11 2.562 . S
N12 C14 1.325 . S
C13 C7 1.404 . S
C13 C15 1.366 . S
C13 H21 0.930 . S
C14 N12 1.325 . S
C14 C15 1.416 . S
C14 H20 0.929 . S
C15 C13 1.366 . S
C15 C14 1.416 . S
C15 H17 0.930 . S
H16 C5 0.930 . S
H17 C15 0.930 . S
H18 C33 0.930 . S
H19 C40 0.930 . S
H20 C14 0.929 . S
H21 C13 0.930 . S
H22 C36 0.929 . S
H23 C3 0.931 . S
H24 C9 0.931 . S
H25 C10 0.931 . S
H26 C31 0.931 . S
H27 C6 0.929 . S
H28 C39 0.930 . S
N29 Eu0 2.600 . S
N29 C30 1.365 . S
N29 C33 1.319 . S
C30 N29 1.365 . S
C30 C32 1.405 . S
C30 C38 1.448 . S
C31 H26 0.931 . S
C31 C33 1.397 . S
C31 C34 1.367 . S
C32 C30 1.405 . S
C32 C34 1.403 . S
C32 C65 1.439 . S
C33 H18 0.930 . S
C33 N29 1.319 . S
C33 C31 1.397 . S
C34 C31 1.367 . S
C34 C32 1.403 . S
C34 H41 0.929 . S
N35 Eu0 2.562 . S
N35 C36 1.325 . S
N35 C38 1.351 . S
C36 H22 0.929 . S
C36 N35 1.325 . S
C36 C40 1.416 . S
C37 C38 1.430 . S
C37 C39 1.404 . S
C37 C66 1.387 . S
C38 C30 1.448 . S
C38 N35 1.351 . S
C38 C37 1.430 . S
C39 H28 0.930 . S
C39 C37 1.404 . S
C39 C40 1.366 . S
C40 H19 0.930 . S
C40 C36 1.416 . S
C40 C39 1.366 . S
H41 C34 0.929 . S
H42 C65 0.931 . S
H43 C66 0.931 . S
O44 Eu0 2.462 . S
O44 C64 1.252 . S
O45 Eu0 2.373 . S
O45 C56 1.249 . S
O46 Eu11 2.335 . S
O46 C56 1.264 . S
O47 Eu0 2.432 . S
O47 C64 1.268 . S
O48 Eu0 2.291 . S
O48 C63 1.255 . S
O49 Eu11 2.372 . S
O49 C63 1.257 . S
O50 Eu11 2.462 . S
O50 C75 1.252 . S
O51 Eu11 2.373 . S
O51 C67 1.249 . S
O52 Eu0 2.335 . S
O52 C67 1.264 . S
O53 Eu11 2.432 . S
O53 C75 1.268 . S
O54 Eu11 2.291 . S
O54 C74 1.255 . S
O55 Eu0 2.372 . S
O55 C74 1.257 . S
C56 O45 1.249 . S
C56 O46 1.264 . S
C57 C60 1.382 . S
C57 C62 1.390 . S
C57 C64 1.506 . S
C58 C59 1.398 . S
C58 C62 1.392 . S
C59 C58 1.398 . S
C59 C61 1.372 . S
C59 H76 0.931 . S
C60 C57 1.382 . S
C60 C61 1.390 . S
C60 H77 0.931 . S
C61 C59 1.372 . S
C61 C60 1.390 . S
C61 H78 0.929 . S
C62 C57 1.390 . S
C62 C58 1.392 . S
C62 H79 0.930 . S
C63 O48 1.255 . S
C63 O49 1.257 . S
C64 Eu0 2.787 . S
C64 O44 1.252 . S
C64 O47 1.268 . S
C64 C57 1.506 . S
C65 C32 1.439 . S
C65 H42 0.931 . S
C65 C66 1.374 . S
C66 C37 1.387 . S
C66 H43 0.931 . S
C66 C65 1.374 . S
C67 O51 1.249 . S
C67 O52 1.264 . S
C68 C71 1.382 . S
C68 C72 1.390 . S
C68 C75 1.506 . S
C69 C70 1.398 . S
C69 C72 1.392 . S
C70 C69 1.398 . S
C70 C73 1.372 . S
C70 H80 0.931 . S
C71 C68 1.382 . S
C71 C73 1.390 . S
C71 H81 0.931 . S
C72 C68 1.390 . S
C72 C69 1.392 . S
C72 H82 0.930 . S
C73 C70 1.372 . S
C73 C71 1.390 . S
C73 H83 0.929 . S
C74 O54 1.255 . S
C74 O55 1.257 . S
C75 Eu11 2.787 . S
C75 O50 1.252 . S
C75 O53 1.268 . S
C75 C68 1.506 . S
H76 C59 0.931 . S
H77 C60 0.931 . S
H78 C61 0.929 . S
H79 C62 0.930 . S
H80 C70 0.931 . S
H81 C71 0.931 . S
H82 C72 0.930 . S
H83 C73 0.929 . S
Eu84 N113 2.600 . S
Eu84 N119 2.562 . S
Eu84 O128 2.462 . S
Eu84 O129 2.373 . S
Eu84 O131 2.432 . S
Eu84 O132 2.291 . S
Eu84 O136 2.335 . S
Eu84 O139 2.372 . S
Eu84 C148 2.787 . S
C85 N86 1.365 . S
C85 C88 1.405 . S
C85 C92 1.448 . S
N86 C85 1.365 . S
N86 C89 1.319 . S
N86 Eu95 2.600 1_545 S
C87 C89 1.397 . S
C87 C90 1.367 . S
C87 H107 0.931 . S
C88 C85 1.405 . S
C88 C90 1.403 . S
C88 C94 1.439 . S
C89 N86 1.319 . S
C89 C87 1.397 . S
C89 H100 0.930 1_655 S
C90 C87 1.367 . S
C90 C88 1.403 . S
C90 H111 0.929 . S
C91 C92 1.430 . S
C91 C93 1.387 . S
C91 C97 1.404 1_545 S
C92 C85 1.448 . S
C92 C91 1.430 . S
C92 N96 1.351 1_545 S
C93 C91 1.387 . S
C93 C94 1.374 . S
C93 H108 0.931 . S
C94 C88 1.439 . S
C94 C93 1.374 . S
C94 H109 0.931 . S
Eu95 N86 2.600 1_565 S
Eu95 N96 2.562 . S
Eu95 O130 2.335 1_655 S
Eu95 O133 2.372 1_665 S
Eu95 O134 2.462 . S
Eu95 O135 2.373 1_655 S
Eu95 O137 2.432 . S
Eu95 O138 2.291 . S
Eu95 C159 2.787 . S
N96 C92 1.351 1_565 S
N96 Eu95 2.562 . S
N96 C98 1.325 . S
C97 C91 1.404 1_565 S
C97 C99 1.366 . S
C97 H105 0.930 . S
C98 N96 1.325 . S
C98 C99 1.416 . S
C98 H104 0.929 . S
C99 C97 1.366 . S
C99 C98 1.416 . S
C99 H101 0.930 . S
H100 C89 0.930 1_455 S
H101 C99 0.930 . S
H102 C117 0.930 . S
H103 C124 0.930 . S
H104 C98 0.929 . S
H105 C97 0.930 . S
H106 C120 0.929 . S
H107 C87 0.931 . S
H108 C93 0.931 . S
H109 C94 0.931 . S
H110 C115 0.931 . S
H111 C90 0.929 . S
H112 C123 0.930 . S
N113 Eu84 2.600 . S
N113 C114 1.365 . S
N113 C117 1.319 . S
C114 N113 1.365 . S
C114 C116 1.405 . S
C114 C122 1.448 . S
C115 H110 0.931 . S
C115 C117 1.397 . S
C115 C118 1.367 . S
C116 C114 1.405 . S
C116 C118 1.403 . S
C116 C149 1.439 . S
C117 H102 0.930 . S
C117 N113 1.319 . S
C117 C115 1.397 . S
C118 C115 1.367 . S
C118 C116 1.403 . S
C118 H125 0.929 . S
N119 Eu84 2.562 . S
N119 C120 1.325 . S
N119 C122 1.351 . S
C120 H106 0.929 . S
C120 N119 1.325 . S
C120 C124 1.416 . S
C121 C122 1.430 . S
C121 C123 1.404 . S
C121 C150 1.387 . S
C122 C114 1.448 . S
C122 N119 1.351 . S
C122 C121 1.430 . S
C123 H112 0.930 . S
C123 C121 1.404 . S
C123 C124 1.366 . S
C124 H103 0.930 . S
C124 C120 1.416 . S
C124 C123 1.366 . S
H125 C118 0.929 . S
H126 C149 0.931 . S
H127 C150 0.931 . S
O128 Eu84 2.462 . S
O128 C148 1.252 . S
O129 Eu84 2.373 . S
O129 C140 1.249 . S
O130 Eu95 2.335 1_455 S
O130 C140 1.264 . S
O131 Eu84 2.432 . S
O131 C148 1.268 . S
O132 Eu84 2.291 . S
O132 C147 1.255 1_565 S
O133 Eu95 2.372 1_445 S
O133 C147 1.257 . S
O134 Eu95 2.462 . S
O134 C159 1.252 . S
O135 Eu95 2.373 1_455 S
O135 C151 1.249 . S
O136 Eu84 2.335 . S
O136 C151 1.264 . S
O137 Eu95 2.432 . S
O137 C159 1.268 . S
O138 Eu95 2.291 . S
O138 C158 1.255 1_655 S
O139 Eu84 2.372 . S
O139 C158 1.257 . S
C140 O129 1.249 . S
C140 O130 1.264 . S
C141 C144 1.382 . S
C141 C146 1.390 . S
C141 C148 1.506 . S
C142 C143 1.398 . S
C142 C146 1.392 . S
C143 C142 1.398 . S
C143 C145 1.372 . S
C143 H160 0.931 . S
C144 C141 1.382 . S
C144 C145 1.390 . S
C144 H161 0.931 . S
C145 C143 1.372 . S
C145 C144 1.390 . S
C145 H162 0.929 . S
C146 C141 1.390 . S
C146 C142 1.392 . S
C146 H163 0.930 1_565 S
C147 O132 1.255 1_545 S
C147 O133 1.257 . S
C148 Eu84 2.787 . S
C148 O128 1.252 . S
C148 O131 1.268 . S
C148 C141 1.506 . S
C149 C116 1.439 . S
C149 H126 0.931 . S
C149 C150 1.374 . S
C150 C121 1.387 . S
C150 H127 0.931 . S
C150 C149 1.374 . S
C151 O135 1.249 . S
C151 O136 1.264 . S
C152 C155 1.382 . S
C152 C156 1.390 . S
C152 C159 1.506 . S
C153 C154 1.398 . S
C153 C156 1.392 . S
C154 C153 1.398 . S
C154 C157 1.372 . S
C154 H164 0.931 . S
C155 C152 1.382 . S
C155 C157 1.390 . S
C155 H165 0.931 . S
C156 C152 1.390 . S
C156 C153 1.392 . S
C156 H166 0.930 . S
C157 C154 1.372 . S
C157 C155 1.390 . S
C157 H167 0.929 . S
C158 O138 1.255 1_455 S
C158 O139 1.257 . S
C159 Eu95 2.787 . S
C159 O134 1.252 . S
C159 O137 1.268 . S
C159 C152 1.506 . S
H160 C143 0.931 . S
H161 C144 0.931 . S
H162 C145 0.929 . S
H163 C146 0.930 1_545 S
H164 C154 0.931 . S
H165 C155 0.931 . S
H166 C156 0.930 . S
H167 C157 0.929 . S
Eu168 N197 2.600 . S
Eu168 N203 2.562 . S
Eu168 O212 2.462 . S
Eu168 O213 2.373 . S
Eu168 O215 2.432 . S
Eu168 O216 2.291 . S
Eu168 O220 2.335 . S
Eu168 O223 2.372 . S
Eu168 C232 2.787 . S
C169 N170 1.365 . S
C169 C172 1.405 . S
C169 C176 1.448 . S
N170 C169 1.365 . S
N170 C173 1.319 . S
N170 Eu179 2.600 . S
C171 C173 1.397 . S
C171 C174 1.367 . S
C171 H191 0.931 . S
C172 C169 1.405 . S
C172 C174 1.403 . S
C172 C178 1.439 . S
C173 N170 1.319 . S
C173 C171 1.397 . S
C173 H184 0.930 . S
C174 C171 1.367 . S
C174 C172 1.403 . S
C174 H195 0.929 . S
C175 C176 1.430 . S
C175 C177 1.387 . S
C175 C181 1.404 . S
C176 C169 1.448 . S
C176 C175 1.430 . S
C176 N180 1.351 . S
C177 C175 1.387 . S
C177 C178 1.374 . S
C177 H192 0.931 . S
C178 C172 1.439 . S
C178 C177 1.374 . S
C178 H193 0.931 . S
Eu179 N170 2.600 . S
Eu179 N180 2.562 . S
Eu179 O214 2.335 . S
Eu179 O217 2.372 . S
Eu179 O218 2.462 . S
Eu179 O219 2.373 . S
Eu179 O221 2.432 . S
Eu179 O222 2.291 . S
Eu179 C243 2.787 . S
N180 C176 1.351 . S
N180 Eu179 2.562 . S
N180 C182 1.325 . S
C181 C175 1.404 . S
C181 C183 1.366 . S
C181 H189 0.930 . S
C182 N180 1.325 . S
C182 C183 1.416 . S
C182 H188 0.929 . S
C183 C181 1.366 . S
C183 C182 1.416 . S
C183 H185 0.930 . S
H184 C173 0.930 . S
H185 C183 0.930 . S
H186 C201 0.930 . S
H187 C208 0.930 . S
H188 C182 0.929 . S
H189 C181 0.930 . S
H190 C204 0.929 . S
H191 C171 0.931 . S
H192 C177 0.931 . S
H193 C178 0.931 . S
H194 C199 0.931 . S
H195 C174 0.929 . S
H196 C207 0.930 . S
N197 Eu168 2.600 . S
N197 C198 1.365 . S
N197 C201 1.319 . S
C198 N197 1.365 . S
C198 C200 1.405 . S
C198 C206 1.448 . S
C199 H194 0.931 . S
C199 C201 1.397 . S
C199 C202 1.367 . S
C200 C198 1.405 . S
C200 C202 1.403 . S
C200 C233 1.439 . S
C201 H186 0.930 . S
C201 N197 1.319 . S
C201 C199 1.397 . S
C202 C199 1.367 . S
C202 C200 1.403 . S
C202 H209 0.929 . S
N203 Eu168 2.562 . S
N203 C204 1.325 . S
N203 C206 1.351 . S
C204 H190 0.929 . S
C204 N203 1.325 . S
C204 C208 1.416 . S
C205 C206 1.430 . S
C205 C207 1.404 . S
C205 C234 1.387 . S
C206 C198 1.448 . S
C206 N203 1.351 . S
C206 C205 1.430 . S
C207 H196 0.930 . S
C207 C205 1.404 . S
C207 C208 1.366 . S
C208 H187 0.930 . S
C208 C204 1.416 . S
C208 C207 1.366 . S
H209 C202 0.929 . S
H210 C233 0.931 . S
H211 C234 0.931 . S
O212 Eu168 2.462 . S
O212 C232 1.252 . S
O213 Eu168 2.373 . S
O213 C224 1.249 . S
O214 Eu179 2.335 . S
O214 C224 1.264 . S
O215 Eu168 2.432 . S
O215 C232 1.268 . S
O216 Eu168 2.291 . S
O216 C231 1.255 . S
O217 Eu179 2.372 . S
O217 C231 1.257 . S
O218 Eu179 2.462 . S
O218 C243 1.252 . S
O219 Eu179 2.373 . S
O219 C235 1.249 . S
O220 Eu168 2.335 . S
O220 C235 1.264 . S
O221 Eu179 2.432 . S
O221 C243 1.268 . S
O222 Eu179 2.291 . S
O222 C242 1.255 . S
O223 Eu168 2.372 . S
O223 C242 1.257 . S
C224 O213 1.249 . S
C224 O214 1.264 . S
C225 C228 1.382 . S
C225 C230 1.390 . S
C225 C232 1.506 . S
C226 C227 1.398 . S
C226 C230 1.392 . S
C227 C226 1.398 . S
C227 C229 1.372 . S
C227 H244 0.931 . S
C228 C225 1.382 . S
C228 C229 1.390 . S
C228 H245 0.931 . S
C229 C227 1.372 . S
C229 C228 1.390 . S
C229 H246 0.929 . S
C230 C225 1.390 . S
C230 C226 1.392 . S
C230 H247 0.930 . S
C231 O216 1.255 . S
C231 O217 1.257 . S
C232 Eu168 2.787 . S
C232 O212 1.252 . S
C232 O215 1.268 . S
C232 C225 1.506 . S
C233 C200 1.439 . S
C233 H210 0.931 . S
C233 C234 1.374 . S
C234 C205 1.387 . S
C234 H211 0.931 . S
C234 C233 1.374 . S
C235 O219 1.249 . S
C235 O220 1.264 . S
C236 C239 1.382 . S
C236 C240 1.390 . S
C236 C243 1.506 . S
C237 C238 1.398 . S
C237 C240 1.392 . S
C238 C237 1.398 . S
C238 C241 1.372 . S
C238 H248 0.931 . S
C239 C236 1.382 . S
C239 C241 1.390 . S
C239 H249 0.931 . S
C240 C236 1.390 . S
C240 C237 1.392 . S
C240 H250 0.930 . S
C241 C238 1.372 . S
C241 C239 1.390 . S
C241 H251 0.929 . S
C242 O222 1.255 . S
C242 O223 1.257 . S
C243 Eu179 2.787 . S
C243 O218 1.252 . S
C243 O221 1.268 . S
C243 C236 1.506 . S
H244 C227 0.931 . S
H245 C228 0.931 . S
H246 C229 0.929 . S
H247 C230 0.930 . S
H248 C238 0.931 . S
H249 C239 0.931 . S
H250 C240 0.930 . S
H251 C241 0.929 . S
Eu252 N281 2.600 . S
Eu252 N287 2.562 . S
Eu252 O296 2.462 . S
Eu252 O297 2.373 . S
Eu252 O299 2.432 . S
Eu252 O300 2.291 . S
Eu252 O304 2.335 . S
Eu252 O307 2.372 . S
Eu252 C316 2.787 . S
C253 N254 1.365 . S
C253 C256 1.405 . S
C253 C260 1.448 . S
N254 C253 1.365 . S
N254 C257 1.319 . S
N254 Eu263 2.600 1_565 S
C255 C257 1.397 . S
C255 C258 1.367 . S
C255 H275 0.931 . S
C256 C253 1.405 . S
C256 C258 1.403 . S
C256 C262 1.439 . S
C257 N254 1.319 . S
C257 C255 1.397 . S
C257 H268 0.930 . S
C258 C255 1.367 . S
C258 C256 1.403 . S
C258 H279 0.929 . S
C259 C260 1.430 . S
C259 C261 1.387 . S
C259 C265 1.404 1_565 S
C260 C253 1.448 . S
C260 C259 1.430 . S
C260 N264 1.351 1_565 S
C261 C259 1.387 . S
C261 C262 1.374 . S
C261 H276 0.931 . S
C262 C256 1.439 . S
C262 C261 1.374 . S
C262 H277 0.931 . S
Eu263 N254 2.600 1_545 S
Eu263 N264 2.562 . S
Eu263 O298 2.335 . S
Eu263 O301 2.372 1_545 S
Eu263 O302 2.462 . S
Eu263 O303 2.373 . S
Eu263 O305 2.432 . S
Eu263 O306 2.291 . S
Eu263 C327 2.787 . S
N264 C260 1.351 1_545 S
N264 Eu263 2.562 . S
N264 C266 1.325 . S
C265 C259 1.404 1_545 S
C265 C267 1.366 . S
C265 H273 0.930 . S
C266 N264 1.325 . S
C266 C267 1.416 . S
C266 H272 0.929 . S
C267 C265 1.366 . S
C267 C266 1.416 . S
C267 H269 0.930 . S
H268 C257 0.930 . S
H269 C267 0.930 . S
H270 C285 0.930 . S
H271 C292 0.930 . S
H272 C266 0.929 . S
H273 C265 0.930 . S
H274 C288 0.929 . S
H275 C255 0.931 . S
H276 C261 0.931 . S
H277 C262 0.931 . S
H278 C283 0.931 . S
H279 C258 0.929 . S
H280 C291 0.930 . S
N281 Eu252 2.600 . S
N281 C282 1.365 . S
N281 C285 1.319 . S
C282 N281 1.365 . S
C282 C284 1.405 . S
C282 C290 1.448 . S
C283 H278 0.931 . S
C283 C285 1.397 . S
C283 C286 1.367 . S
C284 C282 1.405 . S
C284 C286 1.403 . S
C284 C317 1.439 . S
C285 H270 0.930 . S
C285 N281 1.319 . S
C285 C283 1.397 . S
C286 C283 1.367 . S
C286 C284 1.403 . S
C286 H293 0.929 . S
N287 Eu252 2.562 . S
N287 C288 1.325 . S
N287 C290 1.351 . S
C288 H274 0.929 . S
C288 N287 1.325 . S
C288 C292 1.416 . S
C289 C290 1.430 . S
C289 C291 1.404 . S
C289 C318 1.387 . S
C290 C282 1.448 . S
C290 N287 1.351 . S
C290 C289 1.430 . S
C291 H280 0.930 . S
C291 C289 1.404 . S
C291 C292 1.366 . S
C292 H271 0.930 . S
C292 C288 1.416 . S
C292 C291 1.366 . S
H293 C286 0.929 . S
H294 C317 0.931 . S
H295 C318 0.931 . S
O296 Eu252 2.462 . S
O296 C316 1.252 . S
O297 Eu252 2.373 . S
O297 C308 1.249 . S
O298 Eu263 2.335 . S
O298 C308 1.264 . S
O299 Eu252 2.432 . S
O299 C316 1.268 . S
O300 Eu252 2.291 . S
O300 C315 1.255 1_545 S
O301 Eu263 2.372 1_565 S
O301 C315 1.257 . S
O302 Eu263 2.462 . S
O302 C327 1.252 . S
O303 Eu263 2.373 . S
O303 C319 1.249 . S
O304 Eu252 2.335 . S
O304 C319 1.264 . S
O305 Eu263 2.432 . S
O305 C327 1.268 . S
O306 Eu263 2.291 . S
O306 C326 1.255 . S
O307 Eu252 2.372 . S
O307 C326 1.257 . S
C308 O297 1.249 . S
C308 O298 1.264 . S
C309 C312 1.382 . S
C309 C314 1.390 . S
C309 C316 1.506 . S
C310 C311 1.396 1_554 S
C310 C314 1.392 . S
C311 C310 1.396 1_556 S
C311 C313 1.371 1_556 S
C311 H328 0.933 . S
C312 C309 1.382 . S
C312 C313 1.396 . S
C312 H329 0.931 . S
C313 C311 1.371 1_554 S
C313 C312 1.396 . S
C313 H330 0.924 1_554 S
C314 C309 1.390 . S
C314 C310 1.392 . S
C314 H331 0.930 1_545 S
C315 O300 1.255 1_565 S
C315 O301 1.257 . S
C316 Eu252 2.787 . S
C316 O296 1.252 . S
C316 O299 1.268 . S
C316 C309 1.506 . S
C317 C284 1.439 . S
C317 H294 0.931 . S
C317 C318 1.374 . S
C318 C289 1.387 . S
C318 H295 0.931 . S
C318 C317 1.374 . S
C319 O303 1.249 . S
C319 O304 1.264 . S
C320 C323 1.382 . S
C320 C324 1.390 . S
C320 C327 1.506 . S
C321 C322 1.398 . S
C321 C324 1.392 . S
C322 C321 1.398 . S
C322 C325 1.372 . S
C322 H332 0.931 . S
C323 C320 1.382 . S
C323 C325 1.390 . S
C323 H333 0.931 . S
C324 C320 1.390 . S
C324 C321 1.392 . S
C324 H334 0.930 . S
C325 C322 1.372 . S
C325 C323 1.390 . S
C325 H335 0.929 . S
C326 O306 1.255 . S
C326 O307 1.257 . S
C327 Eu263 2.787 . S
C327 O302 1.252 . S
C327 O305 1.268 . S
C327 C320 1.506 . S
H328 C311 0.933 . S
H329 C312 0.931 . S
H330 C313 0.924 1_556 S
H331 C314 0.930 1_565 S
H332 C322 0.931 . S
H333 C323 0.931 . S
H334 C324 0.930 . S
H335 C325 0.929 . S
Eu336 N365 2.600 . S
Eu336 N371 2.562 . S
Eu336 O380 2.462 . S
Eu336 O381 2.373 . S
Eu336 O383 2.432 . S
Eu336 O384 2.291 . S
Eu336 O388 2.335 . S
Eu336 O391 2.372 . S
Eu336 C400 2.787 . S
C337 N338 1.365 . S
C337 C340 1.405 . S
C337 C344 1.448 . S
N338 C337 1.365 . S
N338 C341 1.319 . S
N338 Eu347 2.600 . S
C339 C341 1.397 . S
C339 C342 1.367 . S
C339 H359 0.931 . S
C340 C337 1.405 . S
C340 C342 1.403 . S
C340 C346 1.439 . S
C341 N338 1.319 . S
C341 C339 1.397 . S
C341 H352 0.930 . S
C342 C339 1.367 . S
C342 C340 1.403 . S
C342 H363 0.929 . S
C343 C344 1.430 . S
C343 C345 1.387 . S
C343 C349 1.404 . S
C344 C337 1.448 . S
C344 C343 1.430 . S
C344 N348 1.351 . S
C345 C343 1.387 . S
C345 C346 1.374 . S
C345 H360 0.931 . S
C346 C340 1.439 . S
C346 C345 1.374 . S
C346 H361 0.931 . S
Eu347 N338 2.600 . S
Eu347 N348 2.562 . S
Eu347 O382 2.335 . S
Eu347 O385 2.372 . S
Eu347 O386 2.462 . S
Eu347 O387 2.373 . S
Eu347 O389 2.432 . S
Eu347 O390 2.291 . S
Eu347 C411 2.787 . S
N348 C344 1.351 . S
N348 Eu347 2.562 . S
N348 C350 1.325 . S
C349 C343 1.404 . S
C349 C351 1.366 . S
C349 H357 0.930 . S
C350 N348 1.325 . S
C350 C351 1.416 . S
C350 H356 0.929 . S
C351 C349 1.366 . S
C351 C350 1.416 . S
C351 H353 0.930 . S
H352 C341 0.930 . S
H353 C351 0.930 . S
H354 C369 0.930 . S
H355 C376 0.930 . S
H356 C350 0.929 . S
H357 C349 0.930 . S
H358 C372 0.929 . S
H359 C339 0.931 . S
H360 C345 0.931 . S
H361 C346 0.931 . S
H362 C367 0.931 . S
H363 C342 0.929 . S
H364 C375 0.930 . S
N365 Eu336 2.600 . S
N365 C366 1.365 . S
N365 C369 1.319 . S
C366 N365 1.365 . S
C366 C368 1.405 . S
C366 C374 1.448 . S
C367 H362 0.931 . S
C367 C369 1.397 . S
C367 C370 1.367 . S
C368 C366 1.405 . S
C368 C370 1.403 . S
C368 C401 1.439 . S
C369 H354 0.930 . S
C369 N365 1.319 . S
C369 C367 1.397 . S
C370 C367 1.367 . S
C370 C368 1.403 . S
C370 H377 0.929 . S
N371 Eu336 2.562 . S
N371 C372 1.325 . S
N371 C374 1.351 . S
C372 H358 0.929 . S
C372 N371 1.325 . S
C372 C376 1.416 . S
C373 C374 1.430 . S
C373 C375 1.404 . S
C373 C402 1.387 . S
C374 C366 1.448 . S
C374 N371 1.351 . S
C374 C373 1.430 . S
C375 H364 0.930 . S
C375 C373 1.404 . S
C375 C376 1.366 . S
C376 H355 0.930 . S
C376 C372 1.416 . S
C376 C375 1.366 . S
H377 C370 0.929 . S
H378 C401 0.931 . S
H379 C402 0.931 . S
O380 Eu336 2.462 . S
O380 C400 1.252 . S
O381 Eu336 2.373 . S
O381 C392 1.249 . S
O382 Eu347 2.335 . S
O382 C392 1.264 . S
O383 Eu336 2.432 . S
O383 C400 1.268 . S
O384 Eu336 2.291 . S
O384 C399 1.255 . S
O385 Eu347 2.372 . S
O385 C399 1.257 . S
O386 Eu347 2.462 . S
O386 C411 1.252 . S
O387 Eu347 2.373 . S
O387 C403 1.249 . S
O388 Eu336 2.335 . S
O388 C403 1.264 . S
O389 Eu347 2.432 . S
O389 C411 1.268 . S
O390 Eu347 2.291 . S
O390 C410 1.255 . S
O391 Eu336 2.372 . S
O391 C410 1.257 . S
C392 O381 1.249 . S
C392 O382 1.264 . S
C393 C396 1.382 . S
C393 C398 1.390 . S
C393 C400 1.506 . S
C394 C395 1.398 . S
C394 C398 1.392 . S
C395 C394 1.398 . S
C395 C397 1.372 . S
C395 H412 0.931 . S
C396 C393 1.382 . S
C396 C397 1.390 . S
C396 H413 0.931 . S
C397 C395 1.372 . S
C397 C396 1.390 . S
C397 H414 0.929 . S
C398 C393 1.390 . S
C398 C394 1.392 . S
C398 H415 0.930 . S
C399 O384 1.255 . S
C399 O385 1.257 . S
C400 Eu336 2.787 . S
C400 O380 1.252 . S
C400 O383 1.268 . S
C400 C393 1.506 . S
C401 C368 1.439 . S
C401 H378 0.931 . S
C401 C402 1.374 . S
C402 C373 1.387 . S
C402 H379 0.931 . S
C402 C401 1.374 . S
C403 O387 1.249 . S
C403 O388 1.264 . S
C404 C407 1.382 . S
C404 C408 1.390 . S
C404 C411 1.506 . S
C405 C406 1.398 . S
C405 C408 1.392 . S
C406 C405 1.398 . S
C406 C409 1.372 . S
C406 H416 0.931 . S
C407 C404 1.382 . S
C407 C409 1.390 . S
C407 H417 0.931 . S
C408 C404 1.390 . S
C408 C405 1.392 . S
C408 H418 0.930 . S
C409 C406 1.372 . S
C409 C407 1.390 . S
C409 H419 0.929 . S
C410 O390 1.255 . S
C410 O391 1.257 . S
C411 Eu347 2.787 . S
C411 O386 1.252 . S
C411 O389 1.268 . S
C411 C404 1.506 . S
H412 C395 0.931 . S
H413 C396 0.931 . S
H414 C397 0.929 . S
H415 C398 0.930 . S
H416 C406 0.931 . S
H417 C407 0.931 . S
H418 C408 0.930 . S
H419 C409 0.929 . S
Eu420 N449 2.600 . S
Eu420 N455 2.562 . S
Eu420 O464 2.462 . S
Eu420 O465 2.373 . S
Eu420 O467 2.432 . S
Eu420 O468 2.291 . S
Eu420 O472 2.335 . S
Eu420 O475 2.372 . S
Eu420 C484 2.787 . S
C421 N422 1.365 . S
C421 C424 1.405 . S
C421 C428 1.448 . S
N422 C421 1.365 . S
N422 C425 1.319 . S
N422 Eu431 2.600 1_545 S
C423 C425 1.397 . S
C423 C426 1.367 . S
C423 H443 0.931 . S
C424 C421 1.405 . S
C424 C426 1.403 . S
C424 C430 1.439 . S
C425 N422 1.319 . S
C425 C423 1.397 . S
C425 H436 0.930 . S
C426 C423 1.367 . S
C426 C424 1.403 . S
C426 H447 0.929 . S
C427 C428 1.430 . S
C427 C429 1.387 . S
C427 C433 1.404 1_545 S
C428 C421 1.448 . S
C428 C427 1.430 . S
C428 N432 1.351 1_545 S
C429 C427 1.387 . S
C429 C430 1.374 . S
C429 H444 0.931 . S
C430 C424 1.439 . S
C430 C429 1.374 . S
C430 H445 0.931 . S
Eu431 N422 2.600 1_565 S
Eu431 N432 2.562 . S
Eu431 O466 2.335 . S
Eu431 O469 2.372 1_565 S
Eu431 O470 2.462 . S
Eu431 O471 2.373 . S
Eu431 O473 2.432 . S
Eu431 O474 2.291 . S
Eu431 C495 2.787 . S
N432 C428 1.351 1_565 S
N432 Eu431 2.562 . S
N432 C434 1.325 . S
C433 C427 1.404 1_565 S
C433 C435 1.366 . S
C433 H441 0.930 . S
C434 N432 1.325 . S
C434 C435 1.416 . S
C434 H440 0.929 . S
C435 C433 1.366 . S
C435 C434 1.416 . S
C435 H437 0.930 . S
H436 C425 0.930 . S
H437 C435 0.930 . S
H438 C453 0.930 . S
H439 C460 0.930 . S
H440 C434 0.929 . S
H441 C433 0.930 . S
H442 C456 0.929 . S
H443 C423 0.931 . S
H444 C429 0.931 . S
H445 C430 0.931 . S
H446 C451 0.931 . S
H447 C426 0.929 . S
H448 C459 0.930 . S
N449 Eu420 2.600 . S
N449 C450 1.365 . S
N449 C453 1.319 . S
C450 N449 1.365 . S
C450 C452 1.405 . S
C450 C458 1.448 . S
C451 H446 0.931 . S
C451 C453 1.397 . S
C451 C454 1.367 . S
C452 C450 1.405 . S
C452 C454 1.403 . S
C452 C485 1.439 . S
C453 H438 0.930 . S
C453 N449 1.319 . S
C453 C451 1.397 . S
C454 C451 1.367 . S
C454 C452 1.403 . S
C454 H461 0.929 . S
N455 Eu420 2.562 . S
N455 C456 1.325 . S
N455 C458 1.351 . S
C456 H442 0.929 . S
C456 N455 1.325 . S
C456 C460 1.416 . S
C457 C458 1.430 . S
C457 C459 1.404 . S
C457 C486 1.387 . S
C458 C450 1.448 . S
C458 N455 1.351 . S
C458 C457 1.430 . S
C459 H448 0.930 . S
C459 C457 1.404 . S
C459 C460 1.366 . S
C460 H439 0.930 . S
C460 C456 1.416 . S
C460 C459 1.366 . S
H461 C454 0.929 . S
H462 C485 0.931 . S
H463 C486 0.931 . S
O464 Eu420 2.462 . S
O464 C484 1.252 . S
O465 Eu420 2.373 . S
O465 C476 1.249 . S
O466 Eu431 2.335 . S
O466 C476 1.264 . S
O467 Eu420 2.432 . S
O467 C484 1.268 . S
O468 Eu420 2.291 . S
O468 C483 1.255 1_565 S
O469 Eu431 2.372 1_545 S
O469 C483 1.257 . S
O470 Eu431 2.462 . S
O470 C495 1.252 . S
O471 Eu431 2.373 . S
O471 C487 1.249 . S
O472 Eu420 2.335 . S
O472 C487 1.264 . S
O473 Eu431 2.432 . S
O473 C495 1.268 . S
O474 Eu431 2.291 . S
O474 C494 1.255 . S
O475 Eu420 2.372 . S
O475 C494 1.257 . S
C476 O465 1.249 . S
C476 O466 1.264 . S
C477 C480 1.382 . S
C477 C482 1.390 . S
C477 C484 1.506 . S
C478 C479 1.398 . S
C478 C482 1.392 . S
C479 C478 1.398 . S
C479 C481 1.372 . S
C479 H496 0.931 . S
C480 C477 1.382 . S
C480 C481 1.390 . S
C480 H497 0.931 . S
C481 C479 1.372 . S
C481 C480 1.390 . S
C481 H498 0.929 . S
C482 C477 1.390 . S
C482 C478 1.392 . S
C482 H499 0.930 1_565 S
C483 O468 1.255 1_545 S
C483 O469 1.257 . S
C484 Eu420 2.787 . S
C484 O464 1.252 . S
C484 O467 1.268 . S
C484 C477 1.506 . S
C485 C452 1.439 . S
C485 H462 0.931 . S
C485 C486 1.374 . S
C486 C457 1.387 . S
C486 H463 0.931 . S
C486 C485 1.374 . S
C487 O471 1.249 . S
C487 O472 1.264 . S
C488 C491 1.382 . S
C488 C492 1.390 . S
C488 C495 1.506 . S
C489 C490 1.398 . S
C489 C492 1.392 . S
C490 C489 1.398 . S
C490 C493 1.372 . S
C490 H500 0.931 . S
C491 C488 1.382 . S
C491 C493 1.390 . S
C491 H501 0.931 . S
C492 C488 1.390 . S
C492 C489 1.392 . S
C492 H502 0.930 . S
C493 C490 1.372 . S
C493 C491 1.390 . S
C493 H503 0.929 . S
C494 O474 1.255 . S
C494 O475 1.257 . S
C495 Eu431 2.787 . S
C495 O470 1.252 . S
C495 O473 1.268 . S
C495 C488 1.506 . S
H496 C479 0.931 . S
H497 C480 0.931 . S
H498 C481 0.929 . S
H499 C482 0.930 1_545 S
H500 C490 0.931 . S
H501 C491 0.931 . S
H502 C492 0.930 . S
H503 C493 0.929 . S
Eu504 N533 2.600 . S
Eu504 N539 2.562 . S
Eu504 O548 2.462 . S
Eu504 O549 2.373 . S
Eu504 O551 2.432 . S
Eu504 O552 2.291 . S
Eu504 O556 2.335 . S
Eu504 O559 2.372 . S
Eu504 C568 2.787 . S
C505 N506 1.365 . S
C505 C508 1.405 . S
C505 C512 1.448 . S
N506 C505 1.365 . S
N506 C509 1.319 . S
N506 Eu515 2.600 . S
C507 C509 1.397 . S
C507 C510 1.367 . S
C507 H527 0.931 . S
C508 C505 1.405 . S
C508 C510 1.403 . S
C508 C514 1.439 . S
C509 N506 1.319 . S
C509 C507 1.397 . S
C509 H520 0.930 . S
C510 C507 1.367 . S
C510 C508 1.403 . S
C510 H531 0.929 . S
C511 C512 1.430 . S
C511 C513 1.387 . S
C511 C517 1.404 . S
C512 C505 1.448 . S
C512 C511 1.430 . S
C512 N516 1.351 . S
C513 C511 1.387 . S
C513 C514 1.374 . S
C513 H528 0.931 . S
C514 C508 1.439 . S
C514 C513 1.374 . S
C514 H529 0.931 . S
Eu515 N506 2.600 . S
Eu515 N516 2.562 . S
Eu515 O550 2.335 . S
Eu515 O553 2.372 . S
Eu515 O554 2.462 . S
Eu515 O555 2.373 . S
Eu515 O557 2.432 . S
Eu515 O558 2.291 . S
Eu515 C579 2.787 . S
N516 C512 1.351 . S
N516 Eu515 2.562 . S
N516 C518 1.325 . S
C517 C511 1.404 . S
C517 C519 1.366 . S
C517 H525 0.930 . S
C518 N516 1.325 . S
C518 C519 1.416 . S
C518 H524 0.929 . S
C519 C517 1.366 . S
C519 C518 1.416 . S
C519 H521 0.930 . S
H520 C509 0.930 . S
H521 C519 0.930 . S
H522 C537 0.930 . S
H523 C544 0.930 . S
H524 C518 0.929 . S
H525 C517 0.930 . S
H526 C540 0.929 . S
H527 C507 0.931 . S
H528 C513 0.931 . S
H529 C514 0.931 . S
H530 C535 0.931 . S
H531 C510 0.929 . S
H532 C543 0.930 . S
N533 Eu504 2.600 . S
N533 C534 1.365 . S
N533 C537 1.319 . S
C534 N533 1.365 . S
C534 C536 1.405 . S
C534 C542 1.448 . S
C535 H530 0.931 . S
C535 C537 1.397 . S
C535 C538 1.367 . S
C536 C534 1.405 . S
C536 C538 1.403 . S
C536 C569 1.439 . S
C537 H522 0.930 . S
C537 N533 1.319 . S
C537 C535 1.397 . S
C538 C535 1.367 . S
C538 C536 1.403 . S
C538 H545 0.929 . S
N539 Eu504 2.562 . S
N539 C540 1.325 . S
N539 C542 1.351 . S
C540 H526 0.929 . S
C540 N539 1.325 . S
C540 C544 1.416 . S
C541 C542 1.430 . S
C541 C543 1.404 . S
C541 C570 1.387 . S
C542 C534 1.448 . S
C542 N539 1.351 . S
C542 C541 1.430 . S
C543 H532 0.930 . S
C543 C541 1.404 . S
C543 C544 1.366 . S
C544 H523 0.930 . S
C544 C540 1.416 . S
C544 C543 1.366 . S
H545 C538 0.929 . S
H546 C569 0.931 . S
H547 C570 0.931 . S
O548 Eu504 2.462 . S
O548 C568 1.252 . S
O549 Eu504 2.373 . S
O549 C560 1.249 . S
O550 Eu515 2.335 . S
O550 C560 1.264 . S
O551 Eu504 2.432 . S
O551 C568 1.268 . S
O552 Eu504 2.291 . S
O552 C567 1.255 . S
O553 Eu515 2.372 . S
O553 C567 1.257 . S
O554 Eu515 2.462 . S
O554 C579 1.252 . S
O555 Eu515 2.373 . S
O555 C571 1.249 . S
O556 Eu504 2.335 . S
O556 C571 1.264 . S
O557 Eu515 2.432 . S
O557 C579 1.268 . S
O558 Eu515 2.291 . S
O558 C578 1.255 . S
O559 Eu504 2.372 . S
O559 C578 1.257 . S
C560 O549 1.249 . S
C560 O550 1.264 . S
C561 C564 1.382 . S
C561 C566 1.390 . S
C561 C568 1.506 . S
C562 C563 1.398 . S
C562 C566 1.392 . S
C563 C562 1.398 . S
C563 C565 1.372 . S
C563 H580 0.931 . S
C564 C561 1.382 . S
C564 C565 1.390 . S
C564 H581 0.931 . S
C565 C563 1.372 . S
C565 C564 1.390 . S
C565 H582 0.929 . S
C566 C561 1.390 . S
C566 C562 1.392 . S
C566 H583 0.930 . S
C567 O552 1.255 . S
C567 O553 1.257 . S
C568 Eu504 2.787 . S
C568 O548 1.252 . S
C568 O551 1.268 . S
C568 C561 1.506 . S
C569 C536 1.439 . S
C569 H546 0.931 . S
C569 C570 1.374 . S
C570 C541 1.387 . S
C570 H547 0.931 . S
C570 C569 1.374 . S
C571 O555 1.249 . S
C571 O556 1.264 . S
C572 C575 1.382 . S
C572 C576 1.390 . S
C572 C579 1.506 . S
C573 C574 1.398 . S
C573 C576 1.392 . S
C574 C573 1.398 . S
C574 C577 1.372 . S
C574 H584 0.931 . S
C575 C572 1.382 . S
C575 C577 1.390 . S
C575 H585 0.931 . S
C576 C572 1.390 . S
C576 C573 1.392 . S
C576 H586 0.930 . S
C577 C574 1.372 . S
C577 C575 1.390 . S
C577 H587 0.929 . S
C578 O558 1.255 . S
C578 O559 1.257 . S
C579 Eu515 2.787 . S
C579 O554 1.252 . S
C579 O557 1.268 . S
C579 C572 1.506 . S
H580 C563 0.931 . S
H581 C564 0.931 . S
H582 C565 0.929 . S
H583 C566 0.930 . S
H584 C574 0.931 . S
H585 C575 0.931 . S
H586 C576 0.930 . S
H587 C577 0.929 . S
Eu588 N617 2.600 . S
Eu588 N623 2.562 . S
Eu588 O632 2.462 . S
Eu588 O633 2.373 . S
Eu588 O635 2.432 . S
Eu588 O636 2.291 . S
Eu588 O640 2.335 . S
Eu588 O643 2.372 . S
Eu588 C652 2.787 . S
C589 N590 1.365 . S
C589 C592 1.405 . S
C589 C596 1.448 . S
N590 C589 1.365 . S
N590 C593 1.319 . S
N590 Eu599 2.600 1_565 S
C591 C593 1.397 . S
C591 C594 1.367 . S
C591 H611 0.931 . S
C592 C589 1.405 . S
C592 C594 1.403 . S
C592 C598 1.439 . S
C593 N590 1.319 . S
C593 C591 1.397 . S
C593 H604 0.930 1_655 S
C594 C591 1.367 . S
C594 C592 1.403 . S
C594 H615 0.929 . S
C595 C596 1.430 . S
C595 C597 1.387 . S
C595 C601 1.404 1_565 S
C596 C589 1.448 . S
C596 C595 1.430 . S
C596 N600 1.351 1_565 S
C597 C595 1.387 . S
C597 C598 1.374 . S
C597 H612 0.931 . S
C598 C592 1.439 . S
C598 C597 1.374 . S
C598 H613 0.931 . S
Eu599 N590 2.600 1_545 S
Eu599 N600 2.562 . S
Eu599 O634 2.335 1_655 S
Eu599 O637 2.372 1_645 S
Eu599 O638 2.462 . S
Eu599 O639 2.373 1_655 S
Eu599 O641 2.432 . S
Eu599 O642 2.291 . S
Eu599 C663 2.787 . S
N600 C596 1.351 1_545 S
N600 Eu599 2.562 . S
N600 C602 1.325 . S
C601 C595 1.404 1_545 S
C601 C603 1.366 . S
C601 H609 0.930 . S
C602 N600 1.325 . S
C602 C603 1.416 . S
C602 H608 0.929 . S
C603 C601 1.366 . S
C603 C602 1.416 . S
C603 H605 0.930 . S
H604 C593 0.930 1_455 S
H605 C603 0.930 . S
H606 C621 0.930 . S
H607 C628 0.930 . S
H608 C602 0.929 . S
H609 C601 0.930 . S
H610 C624 0.929 . S
H611 C591 0.931 . S
H612 C597 0.931 . S
H613 C598 0.931 . S
H614 C619 0.931 . S
H615 C594 0.929 . S
H616 C627 0.930 . S
N617 Eu588 2.600 . S
N617 C618 1.365 . S
N617 C621 1.319 . S
C618 N617 1.365 . S
C618 C620 1.405 . S
C618 C626 1.448 . S
C619 H614 0.931 . S
C619 C621 1.397 . S
C619 C622 1.367 . S
C620 C618 1.405 . S
C620 C622 1.403 . S
C620 C653 1.439 . S
C621 H606 0.930 . S
C621 N617 1.319 . S
C621 C619 1.397 . S
C622 C619 1.367 . S
C622 C620 1.403 . S
C622 H629 0.929 . S
N623 Eu588 2.562 . S
N623 C624 1.325 . S
N623 C626 1.351 . S
C624 H610 0.929 . S
C624 N623 1.325 . S
C624 C628 1.416 . S
C625 C626 1.430 . S
C625 C627 1.404 . S
C625 C654 1.387 . S
C626 C618 1.448 . S
C626 N623 1.351 . S
C626 C625 1.430 . S
C627 H616 0.930 . S
C627 C625 1.404 . S
C627 C628 1.366 . S
C628 H607 0.930 . S
C628 C624 1.416 . S
C628 C627 1.366 . S
H629 C622 0.929 . S
H630 C653 0.931 . S
H631 C654 0.931 . S
O632 Eu588 2.462 . S
O632 C652 1.252 . S
O633 Eu588 2.373 . S
O633 C644 1.249 . S
O634 Eu599 2.335 1_455 S
O634 C644 1.264 . S
O635 Eu588 2.432 . S
O635 C652 1.268 . S
O636 Eu588 2.291 . S
O636 C651 1.255 1_545 S
O637 Eu599 2.372 1_465 S
O637 C651 1.257 . S
O638 Eu599 2.462 . S
O638 C663 1.252 . S
O639 Eu599 2.373 1_455 S
O639 C655 1.249 . S
O640 Eu588 2.335 . S
O640 C655 1.264 . S
O641 Eu599 2.432 . S
O641 C663 1.268 . S
O642 Eu599 2.291 . S
O642 C662 1.255 1_655 S
O643 Eu588 2.372 . S
O643 C662 1.257 . S
C644 O633 1.249 . S
C644 O634 1.264 . S
C645 C648 1.382 . S
C645 C650 1.390 . S
C645 C652 1.506 . S
C646 C647 1.396 1_556 S
C646 C650 1.392 . S
C647 C646 1.396 1_554 S
C647 C649 1.371 1_554 S
C647 H664 0.933 . S
C648 C645 1.382 . S
C648 C649 1.396 . S
C648 H665 0.931 . S
C649 C647 1.371 1_556 S
C649 C648 1.396 . S
C649 H666 0.924 1_556 S
C650 C645 1.390 . S
C650 C646 1.392 . S
C650 H667 0.930 1_545 S
C651 O636 1.255 1_565 S
C651 O637 1.257 . S
C652 Eu588 2.787 . S
C652 O632 1.252 . S
C652 O635 1.268 . S
C652 C645 1.506 . S
C653 C620 1.439 . S
C653 H630 0.931 . S
C653 C654 1.374 . S
C654 C625 1.387 . S
C654 H631 0.931 . S
C654 C653 1.374 . S
C655 O639 1.249 . S
C655 O640 1.264 . S
C656 C659 1.382 . S
C656 C660 1.390 . S
C656 C663 1.506 . S
C657 C658 1.398 . S
C657 C660 1.392 . S
C658 C657 1.398 . S
C658 C661 1.372 . S
C658 H668 0.931 . S
C659 C656 1.382 . S
C659 C661 1.390 . S
C659 H669 0.931 . S
C660 C656 1.390 . S
C660 C657 1.392 . S
C660 H670 0.930 . S
C661 C658 1.372 . S
C661 C659 1.390 . S
C661 H671 0.929 . S
C662 O642 1.255 1_455 S
C662 O643 1.257 . S
C663 Eu599 2.787 . S
C663 O638 1.252 . S
C663 O641 1.268 . S
C663 C656 1.506 . S
H664 C647 0.933 . S
H665 C648 0.931 . S
H666 C649 0.924 1_554 S
H667 C650 0.930 1_565 S
H668 C658 0.931 . S
H669 C659 0.931 . S
H670 C660 0.930 . S
H671 C661 0.929 . S
Eu672 N701 2.600 . S
Eu672 N707 2.562 . S
Eu672 O716 2.462 . S
Eu672 O717 2.373 . S
Eu672 O719 2.432 . S
Eu672 O720 2.291 . S
Eu672 O724 2.335 . S
Eu672 O727 2.372 . S
Eu672 C736 2.787 . S
C673 N674 1.365 . S
C673 C676 1.405 . S
C673 C680 1.448 . S
N674 C673 1.365 . S
N674 C677 1.319 . S
N674 Eu683 2.600 . S
C675 C677 1.397 . S
C675 C678 1.367 . S
C675 H695 0.931 . S
C676 C673 1.405 . S
C676 C678 1.403 . S
C676 C682 1.439 . S
C677 N674 1.319 . S
C677 C675 1.397 . S
C677 H688 0.930 . S
C678 C675 1.367 . S
C678 C676 1.403 . S
C678 H699 0.929 . S
C679 C680 1.430 . S
C679 C681 1.387 . S
C679 C685 1.404 . S
C680 C673 1.448 . S
C680 C679 1.430 . S
C680 N684 1.351 . S
C681 C679 1.387 . S
C681 C682 1.374 . S
C681 H696 0.931 . S
C682 C676 1.439 . S
C682 C681 1.374 . S
C682 H697 0.931 . S
Eu683 N674 2.600 . S
Eu683 N684 2.562 . S
Eu683 O718 2.335 . S
Eu683 O721 2.372 . S
Eu683 O722 2.462 . S
Eu683 O723 2.373 . S
Eu683 O725 2.432 . S
Eu683 O726 2.291 . S
Eu683 C747 2.787 . S
N684 C680 1.351 . S
N684 Eu683 2.562 . S
N684 C686 1.325 . S
C685 C679 1.404 . S
C685 C687 1.366 . S
C685 H693 0.930 . S
C686 N684 1.325 . S
C686 C687 1.416 . S
C686 H692 0.929 . S
C687 C685 1.366 . S
C687 C686 1.416 . S
C687 H689 0.930 . S
H688 C677 0.930 . S
H689 C687 0.930 . S
H690 C705 0.930 . S
H691 C712 0.930 . S
H692 C686 0.929 . S
H693 C685 0.930 . S
H694 C708 0.929 . S
H695 C675 0.931 . S
H696 C681 0.931 . S
H697 C682 0.931 . S
H698 C703 0.931 . S
H699 C678 0.929 . S
H700 C711 0.930 . S
N701 Eu672 2.600 . S
N701 C702 1.365 . S
N701 C705 1.319 . S
C702 N701 1.365 . S
C702 C704 1.405 . S
C702 C710 1.448 . S
C703 H698 0.931 . S
C703 C705 1.397 . S
C703 C706 1.367 . S
C704 C702 1.405 . S
C704 C706 1.403 . S
C704 C737 1.439 . S
C705 H690 0.930 . S
C705 N701 1.319 . S
C705 C703 1.397 . S
C706 C703 1.367 . S
C706 C704 1.403 . S
C706 H713 0.929 . S
N707 Eu672 2.562 . S
N707 C708 1.325 . S
N707 C710 1.351 . S
C708 H694 0.929 . S
C708 N707 1.325 . S
C708 C712 1.416 . S
C709 C710 1.430 . S
C709 C711 1.404 . S
C709 C738 1.387 . S
C710 C702 1.448 . S
C710 N707 1.351 . S
C710 C709 1.430 . S
C711 H700 0.930 . S
C711 C709 1.404 . S
C711 C712 1.366 . S
C712 H691 0.930 . S
C712 C708 1.416 . S
C712 C711 1.366 . S
H713 C706 0.929 . S
H714 C737 0.931 . S
H715 C738 0.931 . S
O716 Eu672 2.462 . S
O716 C736 1.252 . S
O717 Eu672 2.373 . S
O717 C728 1.249 . S
O718 Eu683 2.335 . S
O718 C728 1.264 . S
O719 Eu672 2.432 . S
O719 C736 1.268 . S
O720 Eu672 2.291 . S
O720 C735 1.255 . S
O721 Eu683 2.372 . S
O721 C735 1.257 . S
O722 Eu683 2.462 . S
O722 C747 1.252 . S
O723 Eu683 2.373 . S
O723 C739 1.249 . S
O724 Eu672 2.335 . S
O724 C739 1.264 . S
O725 Eu683 2.432 . S
O725 C747 1.268 . S
O726 Eu683 2.291 . S
O726 C746 1.255 . S
O727 Eu672 2.372 . S
O727 C746 1.257 . S
C728 O717 1.249 . S
C728 O718 1.264 . S
C729 C732 1.382 . S
C729 C734 1.390 . S
C729 C736 1.506 . S
C730 C731 1.398 . S
C730 C734 1.392 . S
C731 C730 1.398 . S
C731 C733 1.372 . S
C731 H748 0.931 . S
C732 C729 1.382 . S
C732 C733 1.390 . S
C732 H749 0.931 . S
C733 C731 1.372 . S
C733 C732 1.390 . S
C733 H750 0.929 . S
C734 C729 1.390 . S
C734 C730 1.392 . S
C734 H751 0.930 . S
C735 O720 1.255 . S
C735 O721 1.257 . S
C736 Eu672 2.787 . S
C736 O716 1.252 . S
C736 O719 1.268 . S
C736 C729 1.506 . S
C737 C704 1.439 . S
C737 H714 0.931 . S
C737 C738 1.374 . S
C738 C709 1.387 . S
C738 H715 0.931 . S
C738 C737 1.374 . S
C739 O723 1.249 . S
C739 O724 1.264 . S
C740 C743 1.382 . S
C740 C744 1.390 . S
C740 C747 1.506 . S
C741 C742 1.398 . S
C741 C744 1.392 . S
C742 C741 1.398 . S
C742 C745 1.372 . S
C742 H752 0.931 . S
C743 C740 1.382 . S
C743 C745 1.390 . S
C743 H753 0.931 . S
C744 C740 1.390 . S
C744 C741 1.392 . S
C744 H754 0.930 . S
C745 C742 1.372 . S
C745 C743 1.390 . S
C745 H755 0.929 . S
C746 O726 1.255 . S
C746 O727 1.257 . S
C747 Eu683 2.787 . S
C747 O722 1.252 . S
C747 O725 1.268 . S
C747 C740 1.506 . S
H748 C731 0.931 . S
H749 C732 0.931 . S
H750 C733 0.929 . S
H751 C734 0.930 . S
H752 C742 0.931 . S
H753 C743 0.931 . S
H754 C744 0.930 . S
H755 C745 0.929 . S
Eu756 N785 2.600 1_545 S
Eu756 N791 2.562 . S
Eu756 O800 2.462 . S
Eu756 O801 2.373 1_455 S
Eu756 O803 2.432 . S
Eu756 O804 2.291 . S
Eu756 O808 2.335 1_455 S
Eu756 O811 2.372 1_445 S
Eu756 C820 2.787 . S
C757 N758 1.365 . S
C757 C760 1.405 . S
C757 C764 1.448 . S
N758 C757 1.365 . S
N758 C761 1.319 . S
N758 Eu767 2.600 . S
C759 C761 1.397 . S
C759 C762 1.367 . S
C759 H779 0.931 . S
C760 C757 1.405 . S
C760 C762 1.403 . S
C760 C766 1.439 . S
C761 N758 1.319 . S
C761 C759 1.397 . S
C761 H772 0.930 . S
C762 C759 1.367 . S
C762 C760 1.403 . S
C762 H783 0.929 . S
C763 C764 1.430 . S
C763 C765 1.387 . S
C763 C769 1.404 . S
C764 C757 1.448 . S
C764 C763 1.430 . S
C764 N768 1.351 . S
C765 C763 1.387 . S
C765 C766 1.374 . S
C765 H780 0.931 . S
C766 C760 1.439 . S
C766 C765 1.374 . S
C766 H781 0.931 . S
Eu767 N758 2.600 . S
Eu767 N768 2.562 . S
Eu767 O802 2.335 . S
Eu767 O805 2.372 . S
Eu767 O806 2.462 . S
Eu767 O807 2.373 . S
Eu767 O809 2.432 . S
Eu767 O810 2.291 . S
Eu767 C831 2.787 . S
N768 C764 1.351 . S
N768 Eu767 2.562 . S
N768 C770 1.325 . S
C769 C763 1.404 . S
C769 C771 1.366 . S
C769 H777 0.930 . S
C770 N768 1.325 . S
C770 C771 1.416 . S
C770 H776 0.929 . S
C771 C769 1.366 . S
C771 C770 1.416 . S
C771 H773 0.930 . S
H772 C761 0.930 . S
H773 C771 0.930 . S
H774 C789 0.930 1_655 S
H775 C796 0.930 . S
H776 C770 0.929 . S
H777 C769 0.930 . S
H778 C792 0.929 . S
H779 C759 0.931 . S
H780 C765 0.931 . S
H781 C766 0.931 . S
H782 C787 0.931 . S
H783 C762 0.929 . S
H784 C795 0.930 . S
N785 Eu756 2.600 1_565 S
N785 C786 1.365 . S
N785 C789 1.319 . S
C786 N785 1.365 . S
C786 C788 1.405 . S
C786 C794 1.448 . S
C787 H782 0.931 . S
C787 C789 1.397 . S
C787 C790 1.367 . S
C788 C786 1.405 . S
C788 C790 1.403 . S
C788 C821 1.439 . S
C789 H774 0.930 1_455 S
C789 N785 1.319 . S
C789 C787 1.397 . S
C790 C787 1.367 . S
C790 C788 1.403 . S
C790 H797 0.929 . S
N791 Eu756 2.562 . S
N791 C792 1.325 . S
N791 C794 1.351 1_545 S
C792 H778 0.929 . S
C792 N791 1.325 . S
C792 C796 1.416 . S
C793 C794 1.430 . S
C793 C795 1.404 1_565 S
C793 C822 1.387 . S
C794 C786 1.448 . S
C794 N791 1.351 1_565 S
C794 C793 1.430 . S
C795 H784 0.930 . S
C795 C793 1.404 1_545 S
C795 C796 1.366 . S
C796 H775 0.930 . S
C796 C792 1.416 . S
C796 C795 1.366 . S
H797 C790 0.929 . S
H798 C821 0.931 . S
H799 C822 0.931 . S
O800 Eu756 2.462 . S
O800 C820 1.252 . S
O801 Eu756 2.373 1_655 S
O801 C812 1.249 . S
O802 Eu767 2.335 . S
O802 C812 1.264 . S
O803 Eu756 2.432 . S
O803 C820 1.268 . S
O804 Eu756 2.291 . S
O804 C819 1.255 1_455 S
O805 Eu767 2.372 . S
O805 C819 1.257 . S
O806 Eu767 2.462 . S
O806 C831 1.252 . S
O807 Eu767 2.373 . S
O807 C823 1.249 . S
O808 Eu756 2.335 1_655 S
O808 C823 1.264 . S
O809 Eu767 2.432 . S
O809 C831 1.268 . S
O810 Eu767 2.291 . S
O810 C830 1.255 1_545 S
O811 Eu756 2.372 1_665 S
O811 C830 1.257 . S
C812 O801 1.249 . S
C812 O802 1.264 . S
C813 C816 1.382 . S
C813 C818 1.390 . S
C813 C820 1.506 . S
C814 C815 1.398 . S
C814 C818 1.392 . S
C815 C814 1.398 . S
C815 C817 1.372 . S
C815 H832 0.931 . S
C816 C813 1.382 . S
C816 C817 1.390 . S
C816 H833 0.931 . S
C817 C815 1.372 . S
C817 C816 1.390 . S
C817 H834 0.929 . S
C818 C813 1.390 . S
C818 C814 1.392 . S
C818 H835 0.930 . S
C819 O804 1.255 1_655 S
C819 O805 1.257 . S
C820 Eu756 2.787 . S
C820 O800 1.252 . S
C820 O803 1.268 . S
C820 C813 1.506 . S
C821 C788 1.439 . S
C821 H798 0.931 . S
C821 C822 1.374 . S
C822 C793 1.387 . S
C822 H799 0.931 . S
C822 C821 1.374 . S
C823 O807 1.249 . S
C823 O808 1.264 . S
C824 C827 1.382 . S
C824 C828 1.390 . S
C824 C831 1.506 . S
C825 C826 1.398 . S
C825 C828 1.392 . S
C826 C825 1.398 . S
C826 C829 1.372 . S
C826 H836 0.931 . S
C827 C824 1.382 . S
C827 C829 1.390 . S
C827 H837 0.931 . S
C828 C824 1.390 . S
C828 C825 1.392 . S
C828 H838 0.930 1_545 S
C829 C826 1.372 . S
C829 C827 1.390 . S
C829 H839 0.929 . S
C830 O810 1.255 1_565 S
C830 O811 1.257 . S
C831 Eu767 2.787 . S
C831 O806 1.252 . S
C831 O809 1.268 . S
C831 C824 1.506 . S
H832 C815 0.931 . S
H833 C816 0.931 . S
H834 C817 0.929 . S
H835 C818 0.930 . S
H836 C826 0.931 . S
H837 C827 0.931 . S
H838 C828 0.930 1_565 S
H839 C829 0.929 . S
Eu840 N869 2.600 . S
Eu840 N875 2.562 . S
Eu840 O884 2.462 . S
Eu840 O885 2.373 . S
Eu840 O887 2.432 . S
Eu840 O888 2.291 . S
Eu840 O892 2.335 . S
Eu840 O895 2.372 . S
Eu840 C904 2.787 . S
C841 N842 1.365 . S
C841 C844 1.405 . S
C841 C848 1.448 . S
N842 C841 1.365 . S
N842 C845 1.319 . S
N842 Eu851 2.600 . S
C843 C845 1.397 . S
C843 C846 1.367 . S
C843 H863 0.931 . S
C844 C841 1.405 . S
C844 C846 1.403 . S
C844 C850 1.439 . S
C845 N842 1.319 . S
C845 C843 1.397 . S
C845 H856 0.930 . S
C846 C843 1.367 . S
C846 C844 1.403 . S
C846 H867 0.929 . S
C847 C848 1.430 . S
C847 C849 1.387 . S
C847 C853 1.404 . S
C848 C841 1.448 . S
C848 C847 1.430 . S
C848 N852 1.351 . S
C849 C847 1.387 . S
C849 C850 1.374 . S
C849 H864 0.931 . S
C850 C844 1.439 . S
C850 C849 1.374 . S
C850 H865 0.931 . S
Eu851 N842 2.600 . S
Eu851 N852 2.562 . S
Eu851 O886 2.335 . S
Eu851 O889 2.372 . S
Eu851 O890 2.462 . S
Eu851 O891 2.373 . S
Eu851 O893 2.432 . S
Eu851 O894 2.291 . S
Eu851 C915 2.787 . S
N852 C848 1.351 . S
N852 Eu851 2.562 . S
N852 C854 1.325 . S
C853 C847 1.404 . S
C853 C855 1.366 . S
C853 H861 0.930 . S
C854 N852 1.325 . S
C854 C855 1.416 . S
C854 H860 0.929 . S
C855 C853 1.366 . S
C855 C854 1.416 . S
C855 H857 0.930 . S
H856 C845 0.930 . S
H857 C855 0.930 . S
H858 C873 0.930 . S
H859 C880 0.930 . S
H860 C854 0.929 . S
H861 C853 0.930 . S
H862 C876 0.929 . S
H863 C843 0.931 . S
H864 C849 0.931 . S
H865 C850 0.931 . S
H866 C871 0.931 . S
H867 C846 0.929 . S
H868 C879 0.930 . S
N869 Eu840 2.600 . S
N869 C870 1.365 . S
N869 C873 1.319 . S
C870 N869 1.365 . S
C870 C872 1.405 . S
C870 C878 1.448 . S
C871 H866 0.931 . S
C871 C873 1.397 . S
C871 C874 1.367 . S
C872 C870 1.405 . S
C872 C874 1.403 . S
C872 C905 1.439 . S
C873 H858 0.930 . S
C873 N869 1.319 . S
C873 C871 1.397 . S
C874 C871 1.367 . S
C874 C872 1.403 . S
C874 H881 0.929 . S
N875 Eu840 2.562 . S
N875 C876 1.325 . S
N875 C878 1.351 . S
C876 H862 0.929 . S
C876 N875 1.325 . S
C876 C880 1.416 . S
C877 C878 1.430 . S
C877 C879 1.404 . S
C877 C906 1.387 . S
C878 C870 1.448 . S
C878 N875 1.351 . S
C878 C877 1.430 . S
C879 H868 0.930 . S
C879 C877 1.404 . S
C879 C880 1.366 . S
C880 H859 0.930 . S
C880 C876 1.416 . S
C880 C879 1.366 . S
H881 C874 0.929 . S
H882 C905 0.931 . S
H883 C906 0.931 . S
O884 Eu840 2.462 . S
O884 C904 1.252 . S
O885 Eu840 2.373 . S
O885 C896 1.249 . S
O886 Eu851 2.335 . S
O886 C896 1.264 . S
O887 Eu840 2.432 . S
O887 C904 1.268 . S
O888 Eu840 2.291 . S
O888 C903 1.255 . S
O889 Eu851 2.372 . S
O889 C903 1.257 . S
O890 Eu851 2.462 . S
O890 C915 1.252 . S
O891 Eu851 2.373 . S
O891 C907 1.249 . S
O892 Eu840 2.335 . S
O892 C907 1.264 . S
O893 Eu851 2.432 . S
O893 C915 1.268 . S
O894 Eu851 2.291 . S
O894 C914 1.255 . S
O895 Eu840 2.372 . S
O895 C914 1.257 . S
C896 O885 1.249 . S
C896 O886 1.264 . S
C897 C900 1.382 . S
C897 C902 1.390 . S
C897 C904 1.506 . S
C898 C899 1.398 . S
C898 C902 1.392 . S
C899 C898 1.398 . S
C899 C901 1.372 . S
C899 H916 0.931 . S
C900 C897 1.382 . S
C900 C901 1.390 . S
C900 H917 0.931 . S
C901 C899 1.372 . S
C901 C900 1.390 . S
C901 H918 0.929 . S
C902 C897 1.390 . S
C902 C898 1.392 . S
C902 H919 0.930 . S
C903 O888 1.255 . S
C903 O889 1.257 . S
C904 Eu840 2.787 . S
C904 O884 1.252 . S
C904 O887 1.268 . S
C904 C897 1.506 . S
C905 C872 1.439 . S
C905 H882 0.931 . S
C905 C906 1.374 . S
C906 C877 1.387 . S
C906 H883 0.931 . S
C906 C905 1.374 . S
C907 O891 1.249 . S
C907 O892 1.264 . S
C908 C911 1.382 . S
C908 C912 1.390 . S
C908 C915 1.506 . S
C909 C910 1.398 . S
C909 C912 1.392 . S
C910 C909 1.398 . S
C910 C913 1.372 . S
C910 H920 0.931 . S
C911 C908 1.382 . S
C911 C913 1.390 . S
C911 H921 0.931 . S
C912 C908 1.390 . S
C912 C909 1.392 . S
C912 H922 0.930 . S
C913 C910 1.372 . S
C913 C911 1.390 . S
C913 H923 0.929 . S
C914 O894 1.255 . S
C914 O895 1.257 . S
C915 Eu851 2.787 . S
C915 O890 1.252 . S
C915 O893 1.268 . S
C915 C908 1.506 . S
H916 C899 0.931 . S
H917 C900 0.931 . S
H918 C901 0.929 . S
H919 C902 0.930 . S
H920 C910 0.931 . S
H921 C911 0.931 . S
H922 C912 0.930 . S
H923 C913 0.929 . S
Eu924 N953 2.600 1_565 S
Eu924 N959 2.562 . S
Eu924 O968 2.462 . S
Eu924 O969 2.373 . S
Eu924 O971 2.432 . S
Eu924 O972 2.291 . S
Eu924 O976 2.335 . S
Eu924 O979 2.372 1_565 S
Eu924 C988 2.787 . S
C925 N926 1.365 . S
C925 C928 1.405 . S
C925 C932 1.448 . S
N926 C925 1.365 . S
N926 C929 1.319 . S
N926 Eu935 2.600 . S
C927 C929 1.397 . S
C927 C930 1.367 . S
C927 H947 0.931 . S
C928 C925 1.405 . S
C928 C930 1.403 . S
C928 C934 1.439 . S
C929 N926 1.319 . S
C929 C927 1.397 . S
C929 H940 0.930 . S
C930 C927 1.367 . S
C930 C928 1.403 . S
C930 H951 0.929 . S
C931 C932 1.430 . S
C931 C933 1.387 . S
C931 C937 1.404 . S
C932 C925 1.448 . S
C932 C931 1.430 . S
C932 N936 1.351 . S
C933 C931 1.387 . S
C933 C934 1.374 . S
C933 H948 0.931 . S
C934 C928 1.439 . S
C934 C933 1.374 . S
C934 H949 0.931 . S
Eu935 N926 2.600 . S
Eu935 N936 2.562 . S
Eu935 O970 2.335 . S
Eu935 O973 2.372 . S
Eu935 O974 2.462 . S
Eu935 O975 2.373 . S
Eu935 O977 2.432 . S
Eu935 O978 2.291 . S
Eu935 C999 2.787 . S
N936 C932 1.351 . S
N936 Eu935 2.562 . S
N936 C938 1.325 . S
C937 C931 1.404 . S
C937 C939 1.366 . S
C937 H945 0.930 . S
C938 N936 1.325 . S
C938 C939 1.416 . S
C938 H944 0.929 . S
C939 C937 1.366 . S
C939 C938 1.416 . S
C939 H941 0.930 . S
H940 C929 0.930 . S
H941 C939 0.930 . S
H942 C957 0.930 . S
H943 C964 0.930 . S
H944 C938 0.929 . S
H945 C937 0.930 . S
H946 C960 0.929 . S
H947 C927 0.931 . S
H948 C933 0.931 . S
H949 C934 0.931 . S
H950 C955 0.931 . S
H951 C930 0.929 . S
H952 C963 0.930 . S
N953 Eu924 2.600 1_545 S
N953 C954 1.365 . S
N953 C957 1.319 . S
C954 N953 1.365 . S
C954 C956 1.405 . S
C954 C962 1.448 . S
C955 H950 0.931 . S
C955 C957 1.397 . S
C955 C958 1.367 . S
C956 C954 1.405 . S
C956 C958 1.403 . S
C956 C989 1.439 . S
C957 H942 0.930 . S
C957 N953 1.319 . S
C957 C955 1.397 . S
C958 C955 1.367 . S
C958 C956 1.403 . S
C958 H965 0.929 . S
N959 Eu924 2.562 . S
N959 C960 1.325 . S
N959 C962 1.351 1_565 S
C960 H946 0.929 . S
C960 N959 1.325 . S
C960 C964 1.416 . S
C961 C962 1.430 . S
C961 C963 1.404 1_545 S
C961 C990 1.387 . S
C962 C954 1.448 . S
C962 N959 1.351 1_545 S
C962 C961 1.430 . S
C963 H952 0.930 . S
C963 C961 1.404 1_565 S
C963 C964 1.366 . S
C964 H943 0.930 . S
C964 C960 1.416 . S
C964 C963 1.366 . S
H965 C958 0.929 . S
H966 C989 0.931 . S
H967 C990 0.931 . S
O968 Eu924 2.462 . S
O968 C988 1.252 . S
O969 Eu924 2.373 . S
O969 C980 1.249 . S
O970 Eu935 2.335 . S
O970 C980 1.264 . S
O971 Eu924 2.432 . S
O971 C988 1.268 . S
O972 Eu924 2.291 . S
O972 C987 1.255 . S
O973 Eu935 2.372 . S
O973 C987 1.257 . S
O974 Eu935 2.462 . S
O974 C999 1.252 . S
O975 Eu935 2.373 . S
O975 C991 1.249 . S
O976 Eu924 2.335 . S
O976 C991 1.264 . S
O977 Eu935 2.432 . S
O977 C999 1.268 . S
O978 Eu935 2.291 . S
O978 C998 1.255 1_565 S
O979 Eu924 2.372 1_545 S
O979 C998 1.257 . S
C980 O969 1.249 . S
C980 O970 1.264 . S
C981 C984 1.382 . S
C981 C986 1.390 . S
C981 C988 1.506 . S
C982 C983 1.398 . S
C982 C986 1.392 . S
C983 C982 1.398 . S
C983 C985 1.372 . S
C983 H1000 0.931 . S
C984 C981 1.382 . S
C984 C985 1.390 . S
C984 H1001 0.931 . S
C985 C983 1.372 . S
C985 C984 1.390 . S
C985 H1002 0.929 . S
C986 C981 1.390 . S
C986 C982 1.392 . S
C986 H1003 0.930 . S
C987 O972 1.255 . S
C987 O973 1.257 . S
C988 Eu924 2.787 . S
C988 O968 1.252 . S
C988 O971 1.268 . S
C988 C981 1.506 . S
C989 C956 1.439 . S
C989 H966 0.931 . S
C989 C990 1.374 . S
C990 C961 1.387 . S
C990 H967 0.931 . S
C990 C989 1.374 . S
C991 O975 1.249 . S
C991 O976 1.264 . S
C992 C995 1.382 . S
C992 C996 1.390 . S
C992 C999 1.506 . S
C993 C994 1.396 1_556 S
C993 C996 1.392 . S
C994 C993 1.396 1_554 S
C994 C997 1.371 1_554 S
C994 H1004 0.933 . S
C995 C992 1.382 . S
C995 C997 1.396 . S
C995 H1005 0.931 . S
C996 C992 1.390 . S
C996 C993 1.392 . S
C996 H1006 0.930 1_565 S
C997 C994 1.371 1_556 S
C997 C995 1.396 . S
C997 H1007 0.924 1_556 S
C998 O978 1.255 1_545 S
C998 O979 1.257 . S
C999 Eu935 2.787 . S
C999 O974 1.252 . S
C999 O977 1.268 . S
C999 C992 1.506 . S
H1000 C983 0.931 . S
H1001 C984 0.931 . S
H1002 C985 0.929 . S
H1003 C986 0.930 . S
H1004 C994 0.933 . S
H1005 C995 0.931 . S
H1006 C996 0.930 1_545 S
H1007 C997 0.924 1_554 S
Eu1008 N1037 2.600 . S
Eu1008 N1043 2.562 . S
Eu1008 O1052 2.462 . S
Eu1008 O1053 2.373 . S
Eu1008 O1055 2.432 . S
Eu1008 O1056 2.291 . S
Eu1008 O1060 2.335 . S
Eu1008 O1063 2.372 . S
Eu1008 C1072 2.787 . S
C1009 N1010 1.365 . S
C1009 C1012 1.405 . S
C1009 C1016 1.448 . S
N1010 C1009 1.365 . S
N1010 C1013 1.319 . S
N1010 Eu1019 2.600 . S
C1011 C1013 1.397 . S
C1011 C1014 1.367 . S
C1011 H1031 0.931 . S
C1012 C1009 1.405 . S
C1012 C1014 1.403 . S
C1012 C1018 1.439 . S
C1013 N1010 1.319 . S
C1013 C1011 1.397 . S
C1013 H1024 0.930 . S
C1014 C1011 1.367 . S
C1014 C1012 1.403 . S
C1014 H1035 0.929 . S
C1015 C1016 1.430 . S
C1015 C1017 1.387 . S
C1015 C1021 1.404 . S
C1016 C1009 1.448 . S
C1016 C1015 1.430 . S
C1016 N1020 1.351 . S
C1017 C1015 1.387 . S
C1017 C1018 1.374 . S
C1017 H1032 0.931 . S
C1018 C1012 1.439 . S
C1018 C1017 1.374 . S
C1018 H1033 0.931 . S
Eu1019 N1010 2.600 . S
Eu1019 N1020 2.562 . S
Eu1019 O1054 2.335 . S
Eu1019 O1057 2.372 . S
Eu1019 O1058 2.462 . S
Eu1019 O1059 2.373 . S
Eu1019 O1061 2.432 . S
Eu1019 O1062 2.291 . S
Eu1019 C1083 2.787 . S
N1020 C1016 1.351 . S
N1020 Eu1019 2.562 . S
N1020 C1022 1.325 . S
C1021 C1015 1.404 . S
C1021 C1023 1.366 . S
C1021 H1029 0.930 . S
C1022 N1020 1.325 . S
C1022 C1023 1.416 . S
C1022 H1028 0.929 . S
C1023 C1021 1.366 . S
C1023 C1022 1.416 . S
C1023 H1025 0.930 . S
H1024 C1013 0.930 . S
H1025 C1023 0.930 . S
H1026 C1041 0.930 . S
H1027 C1048 0.930 . S
H1028 C1022 0.929 . S
H1029 C1021 0.930 . S
H1030 C1044 0.929 . S
H1031 C1011 0.931 . S
H1032 C1017 0.931 . S
H1033 C1018 0.931 . S
H1034 C1039 0.931 . S
H1035 C1014 0.929 . S
H1036 C1047 0.930 . S
N1037 Eu1008 2.600 . S
N1037 C1038 1.365 . S
N1037 C1041 1.319 . S
C1038 N1037 1.365 . S
C1038 C1040 1.405 . S
C1038 C1046 1.448 . S
C1039 H1034 0.931 . S
C1039 C1041 1.397 . S
C1039 C1042 1.367 . S
C1040 C1038 1.405 . S
C1040 C1042 1.403 . S
C1040 C1073 1.439 . S
C1041 H1026 0.930 . S
C1041 N1037 1.319 . S
C1041 C1039 1.397 . S
C1042 C1039 1.367 . S
C1042 C1040 1.403 . S
C1042 H1049 0.929 . S
N1043 Eu1008 2.562 . S
N1043 C1044 1.325 . S
N1043 C1046 1.351 . S
C1044 H1030 0.929 . S
C1044 N1043 1.325 . S
C1044 C1048 1.416 . S
C1045 C1046 1.430 . S
C1045 C1047 1.404 . S
C1045 C1074 1.387 . S
C1046 C1038 1.448 . S
C1046 N1043 1.351 . S
C1046 C1045 1.430 . S
C1047 H1036 0.930 . S
C1047 C1045 1.404 . S
C1047 C1048 1.366 . S
C1048 H1027 0.930 . S
C1048 C1044 1.416 . S
C1048 C1047 1.366 . S
H1049 C1042 0.929 . S
H1050 C1073 0.931 . S
H1051 C1074 0.931 . S
O1052 Eu1008 2.462 . S
O1052 C1072 1.252 . S
O1053 Eu1008 2.373 . S
O1053 C1064 1.249 . S
O1054 Eu1019 2.335 . S
O1054 C1064 1.264 . S
O1055 Eu1008 2.432 . S
O1055 C1072 1.268 . S
O1056 Eu1008 2.291 . S
O1056 C1071 1.255 . S
O1057 Eu1019 2.372 . S
O1057 C1071 1.257 . S
O1058 Eu1019 2.462 . S
O1058 C1083 1.252 . S
O1059 Eu1019 2.373 . S
O1059 C1075 1.249 . S
O1060 Eu1008 2.335 . S
O1060 C1075 1.264 . S
O1061 Eu1019 2.432 . S
O1061 C1083 1.268 . S
O1062 Eu1019 2.291 . S
O1062 C1082 1.255 . S
O1063 Eu1008 2.372 . S
O1063 C1082 1.257 . S
C1064 O1053 1.249 . S
C1064 O1054 1.264 . S
C1065 C1068 1.382 . S
C1065 C1070 1.390 . S
C1065 C1072 1.506 . S
C1066 C1067 1.398 . S
C1066 C1070 1.392 . S
C1067 C1066 1.398 . S
C1067 C1069 1.372 . S
C1067 H1084 0.931 . S
C1068 C1065 1.382 . S
C1068 C1069 1.390 . S
C1068 H1085 0.931 . S
C1069 C1067 1.372 . S
C1069 C1068 1.390 . S
C1069 H1086 0.929 . S
C1070 C1065 1.390 . S
C1070 C1066 1.392 . S
C1070 H1087 0.930 . S
C1071 O1056 1.255 . S
C1071 O1057 1.257 . S
C1072 Eu1008 2.787 . S
C1072 O1052 1.252 . S
C1072 O1055 1.268 . S
C1072 C1065 1.506 . S
C1073 C1040 1.439 . S
C1073 H1050 0.931 . S
C1073 C1074 1.374 . S
C1074 C1045 1.387 . S
C1074 H1051 0.931 . S
C1074 C1073 1.374 . S
C1075 O1059 1.249 . S
C1075 O1060 1.264 . S
C1076 C1079 1.382 . S
C1076 C1080 1.390 . S
C1076 C1083 1.506 . S
C1077 C1078 1.398 . S
C1077 C1080 1.392 . S
C1078 C1077 1.398 . S
C1078 C1081 1.372 . S
C1078 H1088 0.931 . S
C1079 C1076 1.382 . S
C1079 C1081 1.390 . S
C1079 H1089 0.931 . S
C1080 C1076 1.390 . S
C1080 C1077 1.392 . S
C1080 H1090 0.930 . S
C1081 C1078 1.372 . S
C1081 C1079 1.390 . S
C1081 H1091 0.929 . S
C1082 O1062 1.255 . S
C1082 O1063 1.257 . S
C1083 Eu1019 2.787 . S
C1083 O1058 1.252 . S
C1083 O1061 1.268 . S
C1083 C1076 1.506 . S
H1084 C1067 0.931 . S
H1085 C1068 0.931 . S
H1086 C1069 0.929 . S
H1087 C1070 0.930 . S
H1088 C1078 0.931 . S
H1089 C1079 0.931 . S
H1090 C1080 0.930 . S
H1091 C1081 0.929 . S
Eu1092 N1121 2.600 1_545 S
Eu1092 N1127 2.562 . S
Eu1092 O1136 2.462 . S
Eu1092 O1137 2.373 . S
Eu1092 O1139 2.432 . S
Eu1092 O1140 2.291 . S
Eu1092 O1144 2.335 . S
Eu1092 O1147 2.372 1_545 S
Eu1092 C1156 2.787 . S
C1093 N1094 1.365 . S
C1093 C1096 1.405 . S
C1093 C1100 1.448 . S
N1094 C1093 1.365 . S
N1094 C1097 1.319 . S
N1094 Eu1103 2.600 . S
C1095 C1097 1.397 . S
C1095 C1098 1.367 . S
C1095 H1115 0.931 . S
C1096 C1093 1.405 . S
C1096 C1098 1.403 . S
C1096 C1102 1.439 . S
C1097 N1094 1.319 . S
C1097 C1095 1.397 . S
C1097 H1108 0.930 . S
C1098 C1095 1.367 . S
C1098 C1096 1.403 . S
C1098 H1119 0.929 . S
C1099 C1100 1.430 . S
C1099 C1101 1.387 . S
C1099 C1105 1.404 . S
C1100 C1093 1.448 . S
C1100 C1099 1.430 . S
C1100 N1104 1.351 . S
C1101 C1099 1.387 . S
C1101 C1102 1.374 . S
C1101 H1116 0.931 . S
C1102 C1096 1.439 . S
C1102 C1101 1.374 . S
C1102 H1117 0.931 . S
Eu1103 N1094 2.600 . S
Eu1103 N1104 2.562 . S
Eu1103 O1138 2.335 . S
Eu1103 O1141 2.372 . S
Eu1103 O1142 2.462 . S
Eu1103 O1143 2.373 . S
Eu1103 O1145 2.432 . S
Eu1103 O1146 2.291 . S
Eu1103 C1167 2.787 . S
N1104 C1100 1.351 . S
N1104 Eu1103 2.562 . S
N1104 C1106 1.325 . S
C1105 C1099 1.404 . S
C1105 C1107 1.366 . S
C1105 H1113 0.930 . S
C1106 N1104 1.325 . S
C1106 C1107 1.416 . S
C1106 H1112 0.929 . S
C1107 C1105 1.366 . S
C1107 C1106 1.416 . S
C1107 H1109 0.930 . S
H1108 C1097 0.930 . S
H1109 C1107 0.930 . S
H1110 C1125 0.930 . S
H1111 C1132 0.930 . S
H1112 C1106 0.929 . S
H1113 C1105 0.930 . S
H1114 C1128 0.929 . S
H1115 C1095 0.931 . S
H1116 C1101 0.931 . S
H1117 C1102 0.931 . S
H1118 C1123 0.931 . S
H1119 C1098 0.929 . S
H1120 C1131 0.930 . S
N1121 Eu1092 2.600 1_565 S
N1121 C1122 1.365 . S
N1121 C1125 1.319 . S
C1122 N1121 1.365 . S
C1122 C1124 1.405 . S
C1122 C1130 1.448 . S
C1123 H1118 0.931 . S
C1123 C1125 1.397 . S
C1123 C1126 1.367 . S
C1124 C1122 1.405 . S
C1124 C1126 1.403 . S
C1124 C1157 1.439 . S
C1125 H1110 0.930 . S
C1125 N1121 1.319 . S
C1125 C1123 1.397 . S
C1126 C1123 1.367 . S
C1126 C1124 1.403 . S
C1126 H1133 0.929 . S
N1127 Eu1092 2.562 . S
N1127 C1128 1.325 . S
N1127 C1130 1.351 1_545 S
C1128 H1114 0.929 . S
C1128 N1127 1.325 . S
C1128 C1132 1.416 . S
C1129 C1130 1.430 . S
C1129 C1131 1.404 1_565 S
C1129 C1158 1.387 . S
C1130 C1122 1.448 . S
C1130 N1127 1.351 1_565 S
C1130 C1129 1.430 . S
C1131 H1120 0.930 . S
C1131 C1129 1.404 1_545 S
C1131 C1132 1.366 . S
C1132 H1111 0.930 . S
C1132 C1128 1.416 . S
C1132 C1131 1.366 . S
H1133 C1126 0.929 . S
H1134 C1157 0.931 . S
H1135 C1158 0.931 . S
O1136 Eu1092 2.462 . S
O1136 C1156 1.252 . S
O1137 Eu1092 2.373 . S
O1137 C1148 1.249 . S
O1138 Eu1103 2.335 . S
O1138 C1148 1.264 . S
O1139 Eu1092 2.432 . S
O1139 C1156 1.268 . S
O1140 Eu1092 2.291 . S
O1140 C1155 1.255 . S
O1141 Eu1103 2.372 . S
O1141 C1155 1.257 . S
O1142 Eu1103 2.462 . S
O1142 C1167 1.252 . S
O1143 Eu1103 2.373 . S
O1143 C1159 1.249 . S
O1144 Eu1092 2.335 . S
O1144 C1159 1.264 . S
O1145 Eu1103 2.432 . S
O1145 C1167 1.268 . S
O1146 Eu1103 2.291 . S
O1146 C1166 1.255 1_545 S
O1147 Eu1092 2.372 1_565 S
O1147 C1166 1.257 . S
C1148 O1137 1.249 . S
C1148 O1138 1.264 . S
C1149 C1152 1.382 . S
C1149 C1154 1.390 . S
C1149 C1156 1.506 . S
C1150 C1151 1.398 . S
C1150 C1154 1.392 . S
C1151 C1150 1.398 . S
C1151 C1153 1.372 . S
C1151 H1168 0.931 . S
C1152 C1149 1.382 . S
C1152 C1153 1.390 . S
C1152 H1169 0.931 . S
C1153 C1151 1.372 . S
C1153 C1152 1.390 . S
C1153 H1170 0.929 . S
C1154 C1149 1.390 . S
C1154 C1150 1.392 . S
C1154 H1171 0.930 . S
C1155 O1140 1.255 . S
C1155 O1141 1.257 . S
C1156 Eu1092 2.787 . S
C1156 O1136 1.252 . S
C1156 O1139 1.268 . S
C1156 C1149 1.506 . S
C1157 C1124 1.439 . S
C1157 H1134 0.931 . S
C1157 C1158 1.374 . S
C1158 C1129 1.387 . S
C1158 H1135 0.931 . S
C1158 C1157 1.374 . S
C1159 O1143 1.249 . S
C1159 O1144 1.264 . S
C1160 C1163 1.382 . S
C1160 C1164 1.390 . S
C1160 C1167 1.506 . S
C1161 C1162 1.398 . S
C1161 C1164 1.392 . S
C1162 C1161 1.398 . S
C1162 C1165 1.372 . S
C1162 H1172 0.931 . S
C1163 C1160 1.382 . S
C1163 C1165 1.390 . S
C1163 H1173 0.931 . S
C1164 C1160 1.390 . S
C1164 C1161 1.392 . S
C1164 H1174 0.930 1_545 S
C1165 C1162 1.372 . S
C1165 C1163 1.390 . S
C1165 H1175 0.929 . S
C1166 O1146 1.255 1_565 S
C1166 O1147 1.257 . S
C1167 Eu1103 2.787 . S
C1167 O1142 1.252 . S
C1167 O1145 1.268 . S
C1167 C1160 1.506 . S
H1168 C1151 0.931 . S
H1169 C1152 0.931 . S
H1170 C1153 0.929 . S
H1171 C1154 0.930 . S
H1172 C1162 0.931 . S
H1173 C1163 0.931 . S
H1174 C1164 0.930 1_565 S
H1175 C1165 0.929 . S
Eu1176 N1205 2.600 . S
Eu1176 N1211 2.562 . S
Eu1176 O1220 2.462 . S
Eu1176 O1221 2.373 . S
Eu1176 O1223 2.432 . S
Eu1176 O1224 2.291 . S
Eu1176 O1228 2.335 . S
Eu1176 O1231 2.372 . S
Eu1176 C1240 2.787 . S
C1177 N1178 1.365 . S
C1177 C1180 1.405 . S
C1177 C1184 1.448 . S
N1178 C1177 1.365 . S
N1178 C1181 1.319 . S
N1178 Eu1187 2.600 . S
C1179 C1181 1.397 . S
C1179 C1182 1.367 . S
C1179 H1199 0.931 . S
C1180 C1177 1.405 . S
C1180 C1182 1.403 . S
C1180 C1186 1.439 . S
C1181 N1178 1.319 . S
C1181 C1179 1.397 . S
C1181 H1192 0.930 . S
C1182 C1179 1.367 . S
C1182 C1180 1.403 . S
C1182 H1203 0.929 . S
C1183 C1184 1.430 . S
C1183 C1185 1.387 . S
C1183 C1189 1.404 . S
C1184 C1177 1.448 . S
C1184 C1183 1.430 . S
C1184 N1188 1.351 . S
C1185 C1183 1.387 . S
C1185 C1186 1.374 . S
C1185 H1200 0.931 . S
C1186 C1180 1.439 . S
C1186 C1185 1.374 . S
C1186 H1201 0.931 . S
Eu1187 N1178 2.600 . S
Eu1187 N1188 2.562 . S
Eu1187 O1222 2.335 . S
Eu1187 O1225 2.372 . S
Eu1187 O1226 2.462 . S
Eu1187 O1227 2.373 . S
Eu1187 O1229 2.432 . S
Eu1187 O1230 2.291 . S
Eu1187 C1251 2.787 . S
N1188 C1184 1.351 . S
N1188 Eu1187 2.562 . S
N1188 C1190 1.325 . S
C1189 C1183 1.404 . S
C1189 C1191 1.366 . S
C1189 H1197 0.930 . S
C1190 N1188 1.325 . S
C1190 C1191 1.416 . S
C1190 H1196 0.929 . S
C1191 C1189 1.366 . S
C1191 C1190 1.416 . S
C1191 H1193 0.930 . S
H1192 C1181 0.930 . S
H1193 C1191 0.930 . S
H1194 C1209 0.930 . S
H1195 C1216 0.930 . S
H1196 C1190 0.929 . S
H1197 C1189 0.930 . S
H1198 C1212 0.929 . S
H1199 C1179 0.931 . S
H1200 C1185 0.931 . S
H1201 C1186 0.931 . S
H1202 C1207 0.931 . S
H1203 C1182 0.929 . S
H1204 C1215 0.930 . S
N1205 Eu1176 2.600 . S
N1205 C1206 1.365 . S
N1205 C1209 1.319 . S
C1206 N1205 1.365 . S
C1206 C1208 1.405 . S
C1206 C1214 1.448 . S
C1207 H1202 0.931 . S
C1207 C1209 1.397 . S
C1207 C1210 1.367 . S
C1208 C1206 1.405 . S
C1208 C1210 1.403 . S
C1208 C1241 1.439 . S
C1209 H1194 0.930 . S
C1209 N1205 1.319 . S
C1209 C1207 1.397 . S
C1210 C1207 1.367 . S
C1210 C1208 1.403 . S
C1210 H1217 0.929 . S
N1211 Eu1176 2.562 . S
N1211 C1212 1.325 . S
N1211 C1214 1.351 . S
C1212 H1198 0.929 . S
C1212 N1211 1.325 . S
C1212 C1216 1.416 . S
C1213 C1214 1.430 . S
C1213 C1215 1.404 . S
C1213 C1242 1.387 . S
C1214 C1206 1.448 . S
C1214 N1211 1.351 . S
C1214 C1213 1.430 . S
C1215 H1204 0.930 . S
C1215 C1213 1.404 . S
C1215 C1216 1.366 . S
C1216 H1195 0.930 . S
C1216 C1212 1.416 . S
C1216 C1215 1.366 . S
H1217 C1210 0.929 . S
H1218 C1241 0.931 . S
H1219 C1242 0.931 . S
O1220 Eu1176 2.462 . S
O1220 C1240 1.252 . S
O1221 Eu1176 2.373 . S
O1221 C1232 1.249 . S
O1222 Eu1187 2.335 . S
O1222 C1232 1.264 . S
O1223 Eu1176 2.432 . S
O1223 C1240 1.268 . S
O1224 Eu1176 2.291 . S
O1224 C1239 1.255 . S
O1225 Eu1187 2.372 . S
O1225 C1239 1.257 . S
O1226 Eu1187 2.462 . S
O1226 C1251 1.252 . S
O1227 Eu1187 2.373 . S
O1227 C1243 1.249 . S
O1228 Eu1176 2.335 . S
O1228 C1243 1.264 . S
O1229 Eu1187 2.432 . S
O1229 C1251 1.268 . S
O1230 Eu1187 2.291 . S
O1230 C1250 1.255 . S
O1231 Eu1176 2.372 . S
O1231 C1250 1.257 . S
C1232 O1221 1.249 . S
C1232 O1222 1.264 . S
C1233 C1236 1.382 . S
C1233 C1238 1.390 . S
C1233 C1240 1.506 . S
C1234 C1235 1.398 . S
C1234 C1238 1.392 . S
C1235 C1234 1.398 . S
C1235 C1237 1.372 . S
C1235 H1252 0.931 . S
C1236 C1233 1.382 . S
C1236 C1237 1.390 . S
C1236 H1253 0.931 . S
C1237 C1235 1.372 . S
C1237 C1236 1.390 . S
C1237 H1254 0.929 . S
C1238 C1233 1.390 . S
C1238 C1234 1.392 . S
C1238 H1255 0.930 . S
C1239 O1224 1.255 . S
C1239 O1225 1.257 . S
C1240 Eu1176 2.787 . S
C1240 O1220 1.252 . S
C1240 O1223 1.268 . S
C1240 C1233 1.506 . S
C1241 C1208 1.439 . S
C1241 H1218 0.931 . S
C1241 C1242 1.374 . S
C1242 C1213 1.387 . S
C1242 H1219 0.931 . S
C1242 C1241 1.374 . S
C1243 O1227 1.249 . S
C1243 O1228 1.264 . S
C1244 C1247 1.382 . S
C1244 C1248 1.390 . S
C1244 C1251 1.506 . S
C1245 C1246 1.398 . S
C1245 C1248 1.392 . S
C1246 C1245 1.398 . S
C1246 C1249 1.372 . S
C1246 H1256 0.931 . S
C1247 C1244 1.382 . S
C1247 C1249 1.390 . S
C1247 H1257 0.931 . S
C1248 C1244 1.390 . S
C1248 C1245 1.392 . S
C1248 H1258 0.930 . S
C1249 C1246 1.372 . S
C1249 C1247 1.390 . S
C1249 H1259 0.929 . S
C1250 O1230 1.255 . S
C1250 O1231 1.257 . S
C1251 Eu1187 2.787 . S
C1251 O1226 1.252 . S
C1251 O1229 1.268 . S
C1251 C1244 1.506 . S
H1252 C1235 0.931 . S
H1253 C1236 0.931 . S
H1254 C1237 0.929 . S
H1255 C1238 0.930 . S
H1256 C1246 0.931 . S
H1257 C1247 0.931 . S
H1258 C1248 0.930 . S
H1259 C1249 0.929 . S
Eu1260 N1289 2.600 1_565 S
Eu1260 N1295 2.562 . S
Eu1260 O1304 2.462 . S
Eu1260 O1305 2.373 1_455 S
Eu1260 O1307 2.432 . S
Eu1260 O1308 2.291 . S
Eu1260 O1312 2.335 1_455 S
Eu1260 O1315 2.372 1_465 S
Eu1260 C1324 2.787 . S
C1261 N1262 1.365 . S
C1261 C1264 1.405 . S
C1261 C1268 1.448 . S
N1262 C1261 1.365 . S
N1262 C1265 1.319 . S
N1262 Eu1271 2.600 . S
C1263 C1265 1.397 . S
C1263 C1266 1.367 . S
C1263 H1283 0.931 . S
C1264 C1261 1.405 . S
C1264 C1266 1.403 . S
C1264 C1270 1.439 . S
C1265 N1262 1.319 . S
C1265 C1263 1.397 . S
C1265 H1276 0.930 . S
C1266 C1263 1.367 . S
C1266 C1264 1.403 . S
C1266 H1287 0.929 . S
C1267 C1268 1.430 . S
C1267 C1269 1.387 . S
C1267 C1273 1.404 . S
C1268 C1261 1.448 . S
C1268 C1267 1.430 . S
C1268 N1272 1.351 . S
C1269 C1267 1.387 . S
C1269 C1270 1.374 . S
C1269 H1284 0.931 . S
C1270 C1264 1.439 . S
C1270 C1269 1.374 . S
C1270 H1285 0.931 . S
Eu1271 N1262 2.600 . S
Eu1271 N1272 2.562 . S
Eu1271 O1306 2.335 . S
Eu1271 O1309 2.372 . S
Eu1271 O1310 2.462 . S
Eu1271 O1311 2.373 . S
Eu1271 O1313 2.432 . S
Eu1271 O1314 2.291 . S
Eu1271 C1335 2.787 . S
N1272 C1268 1.351 . S
N1272 Eu1271 2.562 . S
N1272 C1274 1.325 . S
C1273 C1267 1.404 . S
C1273 C1275 1.366 . S
C1273 H1281 0.930 . S
C1274 N1272 1.325 . S
C1274 C1275 1.416 . S
C1274 H1280 0.929 . S
C1275 C1273 1.366 . S
C1275 C1274 1.416 . S
C1275 H1277 0.930 . S
H1276 C1265 0.930 . S
H1277 C1275 0.930 . S
H1278 C1293 0.930 1_655 S
H1279 C1300 0.930 . S
H1280 C1274 0.929 . S
H1281 C1273 0.930 . S
H1282 C1296 0.929 . S
H1283 C1263 0.931 . S
H1284 C1269 0.931 . S
H1285 C1270 0.931 . S
H1286 C1291 0.931 . S
H1287 C1266 0.929 . S
H1288 C1299 0.930 . S
N1289 Eu1260 2.600 1_545 S
N1289 C1290 1.365 . S
N1289 C1293 1.319 . S
C1290 N1289 1.365 . S
C1290 C1292 1.405 . S
C1290 C1298 1.448 . S
C1291 H1286 0.931 . S
C1291 C1293 1.397 . S
C1291 C1294 1.367 . S
C1292 C1290 1.405 . S
C1292 C1294 1.403 . S
C1292 C1325 1.439 . S
C1293 H1278 0.930 1_455 S
C1293 N1289 1.319 . S
C1293 C1291 1.397 . S
C1294 C1291 1.367 . S
C1294 C1292 1.403 . S
C1294 H1301 0.929 . S
N1295 Eu1260 2.562 . S
N1295 C1296 1.325 . S
N1295 C1298 1.351 1_565 S
C1296 H1282 0.929 . S
C1296 N1295 1.325 . S
C1296 C1300 1.416 . S
C1297 C1298 1.430 . S
C1297 C1299 1.404 1_545 S
C1297 C1326 1.387 . S
C1298 C1290 1.448 . S
C1298 N1295 1.351 1_545 S
C1298 C1297 1.430 . S
C1299 H1288 0.930 . S
C1299 C1297 1.404 1_565 S
C1299 C1300 1.366 . S
C1300 H1279 0.930 . S
C1300 C1296 1.416 . S
C1300 C1299 1.366 . S
H1301 C1294 0.929 . S
H1302 C1325 0.931 . S
H1303 C1326 0.931 . S
O1304 Eu1260 2.462 . S
O1304 C1324 1.252 . S
O1305 Eu1260 2.373 1_655 S
O1305 C1316 1.249 . S
O1306 Eu1271 2.335 . S
O1306 C1316 1.264 . S
O1307 Eu1260 2.432 . S
O1307 C1324 1.268 . S
O1308 Eu1260 2.291 . S
O1308 C1323 1.255 1_455 S
O1309 Eu1271 2.372 . S
O1309 C1323 1.257 . S
O1310 Eu1271 2.462 . S
O1310 C1335 1.252 . S
O1311 Eu1271 2.373 . S
O1311 C1327 1.249 . S
O1312 Eu1260 2.335 1_655 S
O1312 C1327 1.264 . S
O1313 Eu1271 2.432 . S
O1313 C1335 1.268 . S
O1314 Eu1271 2.291 . S
O1314 C1334 1.255 1_565 S
O1315 Eu1260 2.372 1_645 S
O1315 C1334 1.257 . S
C1316 O1305 1.249 . S
C1316 O1306 1.264 . S
C1317 C1320 1.382 . S
C1317 C1322 1.390 . S
C1317 C1324 1.506 . S
C1318 C1319 1.398 . S
C1318 C1322 1.392 . S
C1319 C1318 1.398 . S
C1319 C1321 1.372 . S
C1319 H1336 0.931 . S
C1320 C1317 1.382 . S
C1320 C1321 1.390 . S
C1320 H1337 0.931 . S
C1321 C1319 1.372 . S
C1321 C1320 1.390 . S
C1321 H1338 0.929 . S
C1322 C1317 1.390 . S
C1322 C1318 1.392 . S
C1322 H1339 0.930 . S
C1323 O1308 1.255 1_655 S
C1323 O1309 1.257 . S
C1324 Eu1260 2.787 . S
C1324 O1304 1.252 . S
C1324 O1307 1.268 . S
C1324 C1317 1.506 . S
C1325 C1292 1.439 . S
C1325 H1302 0.931 . S
C1325 C1326 1.374 . S
C1326 C1297 1.387 . S
C1326 H1303 0.931 . S
C1326 C1325 1.374 . S
C1327 O1311 1.249 . S
C1327 O1312 1.264 . S
C1328 C1331 1.382 . S
C1328 C1332 1.390 . S
C1328 C1335 1.506 . S
C1329 C1330 1.396 1_554 S
C1329 C1332 1.392 . S
C1330 C1329 1.396 1_556 S
C1330 C1333 1.371 1_556 S
C1330 H1340 0.933 . S
C1331 C1328 1.382 . S
C1331 C1333 1.396 . S
C1331 H1341 0.931 . S
C1332 C1328 1.390 . S
C1332 C1329 1.392 . S
C1332 H1342 0.930 1_565 S
C1333 C1330 1.371 1_554 S
C1333 C1331 1.396 . S
C1333 H1343 0.924 1_554 S
C1334 O1314 1.255 1_545 S
C1334 O1315 1.257 . S
C1335 Eu1271 2.787 . S
C1335 O1310 1.252 . S
C1335 O1313 1.268 . S
C1335 C1328 1.506 . S
H1336 C1319 0.931 . S
H1337 C1320 0.931 . S
H1338 C1321 0.929 . S
H1339 C1322 0.930 . S
H1340 C1330 0.933 . S
H1341 C1331 0.931 . S
H1342 C1332 0.930 1_545 S
H1343 C1333 0.924 1_556 S
Eu1344 N1373 2.600 . S
Eu1344 N1379 2.562 . S
Eu1344 O1388 2.462 . S
Eu1344 O1389 2.373 . S
Eu1344 O1391 2.432 . S
Eu1344 O1392 2.291 . S
Eu1344 O1396 2.335 . S
Eu1344 O1399 2.372 . S
Eu1344 C1408 2.787 . S
C1345 N1346 1.365 . S
C1345 C1348 1.405 . S
C1345 C1352 1.448 . S
N1346 C1345 1.365 . S
N1346 C1349 1.319 . S
N1346 Eu1355 2.600 . S
C1347 C1349 1.397 . S
C1347 C1350 1.367 . S
C1347 H1367 0.931 . S
C1348 C1345 1.405 . S
C1348 C1350 1.403 . S
C1348 C1354 1.439 . S
C1349 N1346 1.319 . S
C1349 C1347 1.397 . S
C1349 H1360 0.930 . S
C1350 C1347 1.367 . S
C1350 C1348 1.403 . S
C1350 H1371 0.929 . S
C1351 C1352 1.430 . S
C1351 C1353 1.387 . S
C1351 C1357 1.404 . S
C1352 C1345 1.448 . S
C1352 C1351 1.430 . S
C1352 N1356 1.351 . S
C1353 C1351 1.387 . S
C1353 C1354 1.374 . S
C1353 H1368 0.931 . S
C1354 C1348 1.439 . S
C1354 C1353 1.374 . S
C1354 H1369 0.931 . S
Eu1355 N1346 2.600 . S
Eu1355 N1356 2.562 . S
Eu1355 O1390 2.335 . S
Eu1355 O1393 2.372 . S
Eu1355 O1394 2.462 . S
Eu1355 O1395 2.373 . S
Eu1355 O1397 2.432 . S
Eu1355 O1398 2.291 . S
Eu1355 C1419 2.787 . S
N1356 C1352 1.351 . S
N1356 Eu1355 2.562 . S
N1356 C1358 1.325 . S
C1357 C1351 1.404 . S
C1357 C1359 1.366 . S
C1357 H1365 0.930 . S
C1358 N1356 1.325 . S
C1358 C1359 1.416 . S
C1358 H1364 0.929 . S
C1359 C1357 1.366 . S
C1359 C1358 1.416 . S
C1359 H1361 0.930 . S
H1360 C1349 0.930 . S
H1361 C1359 0.930 . S
H1362 C1377 0.930 . S
H1363 C1384 0.930 . S
H1364 C1358 0.929 . S
H1365 C1357 0.930 . S
H1366 C1380 0.929 . S
H1367 C1347 0.931 . S
H1368 C1353 0.931 . S
H1369 C1354 0.931 . S
H1370 C1375 0.931 . S
H1371 C1350 0.929 . S
H1372 C1383 0.930 . S
N1373 Eu1344 2.600 . S
N1373 C1374 1.365 . S
N1373 C1377 1.319 . S
C1374 N1373 1.365 . S
C1374 C1376 1.405 . S
C1374 C1382 1.448 . S
C1375 H1370 0.931 . S
C1375 C1377 1.397 . S
C1375 C1378 1.367 . S
C1376 C1374 1.405 . S
C1376 C1378 1.403 . S
C1376 C1409 1.439 . S
C1377 H1362 0.930 . S
C1377 N1373 1.319 . S
C1377 C1375 1.397 . S
C1378 C1375 1.367 . S
C1378 C1376 1.403 . S
C1378 H1385 0.929 . S
N1379 Eu1344 2.562 . S
N1379 C1380 1.325 . S
N1379 C1382 1.351 . S
C1380 H1366 0.929 . S
C1380 N1379 1.325 . S
C1380 C1384 1.416 . S
C1381 C1382 1.430 . S
C1381 C1383 1.404 . S
C1381 C1410 1.387 . S
C1382 C1374 1.448 . S
C1382 N1379 1.351 . S
C1382 C1381 1.430 . S
C1383 H1372 0.930 . S
C1383 C1381 1.404 . S
C1383 C1384 1.366 . S
C1384 H1363 0.930 . S
C1384 C1380 1.416 . S
C1384 C1383 1.366 . S
H1385 C1378 0.929 . S
H1386 C1409 0.931 . S
H1387 C1410 0.931 . S
O1388 Eu1344 2.462 . S
O1388 C1408 1.252 . S
O1389 Eu1344 2.373 . S
O1389 C1400 1.249 . S
O1390 Eu1355 2.335 . S
O1390 C1400 1.264 . S
O1391 Eu1344 2.432 . S
O1391 C1408 1.268 . S
O1392 Eu1344 2.291 . S
O1392 C1407 1.255 . S
O1393 Eu1355 2.372 . S
O1393 C1407 1.257 . S
O1394 Eu1355 2.462 . S
O1394 C1419 1.252 . S
O1395 Eu1355 2.373 . S
O1395 C1411 1.249 . S
O1396 Eu1344 2.335 . S
O1396 C1411 1.264 . S
O1397 Eu1355 2.432 . S
O1397 C1419 1.268 . S
O1398 Eu1355 2.291 . S
O1398 C1418 1.255 . S
O1399 Eu1344 2.372 . S
O1399 C1418 1.257 . S
C1400 O1389 1.249 . S
C1400 O1390 1.264 . S
C1401 C1404 1.382 . S
C1401 C1406 1.390 . S
C1401 C1408 1.506 . S
C1402 C1403 1.398 . S
C1402 C1406 1.392 . S
C1403 C1402 1.398 . S
C1403 C1405 1.372 . S
C1403 H1420 0.931 . S
C1404 C1401 1.382 . S
C1404 C1405 1.390 . S
C1404 H1421 0.931 . S
C1405 C1403 1.372 . S
C1405 C1404 1.390 . S
C1405 H1422 0.929 . S
C1406 C1401 1.390 . S
C1406 C1402 1.392 . S
C1406 H1423 0.930 . S
C1407 O1392 1.255 . S
C1407 O1393 1.257 . S
C1408 Eu1344 2.787 . S
C1408 O1388 1.252 . S
C1408 O1391 1.268 . S
C1408 C1401 1.506 . S
C1409 C1376 1.439 . S
C1409 H1386 0.931 . S
C1409 C1410 1.374 . S
C1410 C1381 1.387 . S
C1410 H1387 0.931 . S
C1410 C1409 1.374 . S
C1411 O1395 1.249 . S
C1411 O1396 1.264 . S
C1412 C1415 1.382 . S
C1412 C1416 1.390 . S
C1412 C1419 1.506 . S
C1413 C1414 1.398 . S
C1413 C1416 1.392 . S
C1414 C1413 1.398 . S
C1414 C1417 1.372 . S
C1414 H1424 0.931 . S
C1415 C1412 1.382 . S
C1415 C1417 1.390 . S
C1415 H1425 0.931 . S
C1416 C1412 1.390 . S
C1416 C1413 1.392 . S
C1416 H1426 0.930 . S
C1417 C1414 1.372 . S
C1417 C1415 1.390 . S
C1417 H1427 0.929 . S
C1418 O1398 1.255 . S
C1418 O1399 1.257 . S
C1419 Eu1355 2.787 . S
C1419 O1394 1.252 . S
C1419 O1397 1.268 . S
C1419 C1412 1.506 . S
H1420 C1403 0.931 . S
H1421 C1404 0.931 . S
H1422 C1405 0.929 . S
H1423 C1406 0.930 . S
H1424 C1414 0.931 . S
H1425 C1415 0.931 . S
H1426 C1416 0.930 . S
H1427 C1417 0.929 . S
Eu1428 N1457 2.600 . S
Eu1428 N1463 2.562 . S
Eu1428 O1472 2.462 . S
Eu1428 O1473 2.373 . S
Eu1428 O1475 2.432 . S
Eu1428 O1476 2.291 . S
Eu1428 O1480 2.335 . S
Eu1428 O1483 2.372 . S
Eu1428 C1492 2.787 . S
C1429 N1430 1.365 . S
C1429 C1432 1.405 . S
C1429 C1436 1.448 . S
N1430 C1429 1.365 . S
N1430 C1433 1.319 . S
N1430 Eu1439 2.600 . S
C1431 C1433 1.397 . S
C1431 C1434 1.367 . S
C1431 H1451 0.931 . S
C1432 C1429 1.405 . S
C1432 C1434 1.403 . S
C1432 C1438 1.439 . S
C1433 N1430 1.319 . S
C1433 C1431 1.397 . S
C1433 H1444 0.930 . S
C1434 C1431 1.367 . S
C1434 C1432 1.403 . S
C1434 H1455 0.929 . S
C1435 C1436 1.430 . S
C1435 C1437 1.387 . S
C1435 C1441 1.404 . S
C1436 C1429 1.448 . S
C1436 C1435 1.430 . S
C1436 N1440 1.351 . S
C1437 C1435 1.387 . S
C1437 C1438 1.374 . S
C1437 H1452 0.931 . S
C1438 C1432 1.439 . S
C1438 C1437 1.374 . S
C1438 H1453 0.931 . S
Eu1439 N1430 2.600 . S
Eu1439 N1440 2.562 . S
Eu1439 O1474 2.335 . S
Eu1439 O1477 2.372 . S
Eu1439 O1478 2.462 . S
Eu1439 O1479 2.373 . S
Eu1439 O1481 2.432 . S
Eu1439 O1482 2.291 . S
Eu1439 C1503 2.787 . S
N1440 C1436 1.351 . S
N1440 Eu1439 2.562 . S
N1440 C1442 1.325 . S
C1441 C1435 1.404 . S
C1441 C1443 1.366 . S
C1441 H1449 0.930 . S
C1442 N1440 1.325 . S
C1442 C1443 1.416 . S
C1442 H1448 0.929 . S
C1443 C1441 1.366 . S
C1443 C1442 1.416 . S
C1443 H1445 0.930 . S
H1444 C1433 0.930 . S
H1445 C1443 0.930 . S
H1446 C1461 0.930 . S
H1447 C1468 0.930 . S
H1448 C1442 0.929 . S
H1449 C1441 0.930 . S
H1450 C1464 0.929 . S
H1451 C1431 0.931 . S
H1452 C1437 0.931 . S
H1453 C1438 0.931 . S
H1454 C1459 0.931 . S
H1455 C1434 0.929 . S
H1456 C1467 0.930 . S
N1457 Eu1428 2.600 . S
N1457 C1458 1.365 . S
N1457 C1461 1.319 . S
C1458 N1457 1.365 . S
C1458 C1460 1.405 . S
C1458 C1466 1.448 . S
C1459 H1454 0.931 . S
C1459 C1461 1.397 . S
C1459 C1462 1.367 . S
C1460 C1458 1.405 . S
C1460 C1462 1.403 . S
C1460 C1493 1.439 . S
C1461 H1446 0.930 . S
C1461 N1457 1.319 . S
C1461 C1459 1.397 . S
C1462 C1459 1.367 . S
C1462 C1460 1.403 . S
C1462 H1469 0.929 . S
N1463 Eu1428 2.562 . S
N1463 C1464 1.325 . S
N1463 C1466 1.351 . S
C1464 H1450 0.929 . S
C1464 N1463 1.325 . S
C1464 C1468 1.416 . S
C1465 C1466 1.430 . S
C1465 C1467 1.404 . S
C1465 C1494 1.387 . S
C1466 C1458 1.448 . S
C1466 N1463 1.351 . S
C1466 C1465 1.430 . S
C1467 H1456 0.930 . S
C1467 C1465 1.404 . S
C1467 C1468 1.366 . S
C1468 H1447 0.930 . S
C1468 C1464 1.416 . S
C1468 C1467 1.366 . S
H1469 C1462 0.929 . S
H1470 C1493 0.931 . S
H1471 C1494 0.931 . S
O1472 Eu1428 2.462 . S
O1472 C1492 1.252 . S
O1473 Eu1428 2.373 . S
O1473 C1484 1.249 . S
O1474 Eu1439 2.335 . S
O1474 C1484 1.264 . S
O1475 Eu1428 2.432 . S
O1475 C1492 1.268 . S
O1476 Eu1428 2.291 . S
O1476 C1491 1.255 . S
O1477 Eu1439 2.372 . S
O1477 C1491 1.257 . S
O1478 Eu1439 2.462 . S
O1478 C1503 1.252 . S
O1479 Eu1439 2.373 . S
O1479 C1495 1.249 . S
O1480 Eu1428 2.335 . S
O1480 C1495 1.264 . S
O1481 Eu1439 2.432 . S
O1481 C1503 1.268 . S
O1482 Eu1439 2.291 . S
O1482 C1502 1.255 . S
O1483 Eu1428 2.372 . S
O1483 C1502 1.257 . S
C1484 O1473 1.249 . S
C1484 O1474 1.264 . S
C1485 C1488 1.382 . S
C1485 C1490 1.390 . S
C1485 C1492 1.506 . S
C1486 C1487 1.396 1_554 S
C1486 C1490 1.392 . S
C1487 C1486 1.396 1_556 S
C1487 C1489 1.371 1_556 S
C1487 H1504 0.933 . S
C1488 C1485 1.382 . S
C1488 C1489 1.396 . S
C1488 H1505 0.931 . S
C1489 C1487 1.371 1_554 S
C1489 C1488 1.396 . S
C1489 H1506 0.923 1_554 S
C1490 C1485 1.390 . S
C1490 C1486 1.392 . S
C1490 H1507 0.930 . S
C1491 O1476 1.255 . S
C1491 O1477 1.257 . S
C1492 Eu1428 2.787 . S
C1492 O1472 1.252 . S
C1492 O1475 1.268 . S
C1492 C1485 1.506 . S
C1493 C1460 1.439 . S
C1493 H1470 0.931 . S
C1493 C1494 1.374 . S
C1494 C1465 1.387 . S
C1494 H1471 0.931 . S
C1494 C1493 1.374 . S
C1495 O1479 1.249 . S
C1495 O1480 1.264 . S
C1496 C1499 1.382 . S
C1496 C1500 1.390 . S
C1496 C1503 1.506 . S
C1497 C1498 1.398 . S
C1497 C1500 1.392 . S
C1498 C1497 1.398 . S
C1498 C1501 1.372 . S
C1498 H1508 0.931 . S
C1499 C1496 1.382 . S
C1499 C1501 1.390 . S
C1499 H1509 0.931 . S
C1500 C1496 1.390 . S
C1500 C1497 1.392 . S
C1500 H1510 0.930 . S
C1501 C1498 1.372 . S
C1501 C1499 1.390 . S
C1501 H1511 0.929 . S
C1502 O1482 1.255 . S
C1502 O1483 1.257 . S
C1503 Eu1439 2.787 . S
C1503 O1478 1.252 . S
C1503 O1481 1.268 . S
C1503 C1496 1.506 . S
H1504 C1487 0.933 . S
H1505 C1488 0.931 . S
H1506 C1489 0.923 1_556 S
H1507 C1490 0.930 . S
H1508 C1498 0.931 . S
H1509 C1499 0.931 . S
H1510 C1500 0.930 . S
H1511 C1501 0.929 . S
Eu1512 N1541 2.600 . S
Eu1512 N1547 2.562 . S
Eu1512 O1556 2.462 . S
Eu1512 O1557 2.373 . S
Eu1512 O1559 2.432 . S
Eu1512 O1560 2.291 . S
Eu1512 O1564 2.335 . S
Eu1512 O1567 2.372 . S
Eu1512 C1576 2.787 . S
C1513 N1514 1.365 . S
C1513 C1516 1.405 . S
C1513 C1520 1.448 . S
N1514 C1513 1.365 . S
N1514 C1517 1.319 . S
N1514 Eu1523 2.600 . S
C1515 C1517 1.397 . S
C1515 C1518 1.367 . S
C1515 H1535 0.931 . S
C1516 C1513 1.405 . S
C1516 C1518 1.403 . S
C1516 C1522 1.439 . S
C1517 N1514 1.319 . S
C1517 C1515 1.397 . S
C1517 H1528 0.930 . S
C1518 C1515 1.367 . S
C1518 C1516 1.403 . S
C1518 H1539 0.929 . S
C1519 C1520 1.430 . S
C1519 C1521 1.387 . S
C1519 C1525 1.404 . S
C1520 C1513 1.448 . S
C1520 C1519 1.430 . S
C1520 N1524 1.351 . S
C1521 C1519 1.387 . S
C1521 C1522 1.374 . S
C1521 H1536 0.931 . S
C1522 C1516 1.439 . S
C1522 C1521 1.374 . S
C1522 H1537 0.931 . S
Eu1523 N1514 2.600 . S
Eu1523 N1524 2.562 . S
Eu1523 O1558 2.335 . S
Eu1523 O1561 2.372 . S
Eu1523 O1562 2.462 . S
Eu1523 O1563 2.373 . S
Eu1523 O1565 2.432 . S
Eu1523 O1566 2.291 . S
Eu1523 C1587 2.787 . S
N1524 C1520 1.351 . S
N1524 Eu1523 2.562 . S
N1524 C1526 1.325 . S
C1525 C1519 1.404 . S
C1525 C1527 1.366 . S
C1525 H1533 0.930 . S
C1526 N1524 1.325 . S
C1526 C1527 1.416 . S
C1526 H1532 0.929 . S
C1527 C1525 1.366 . S
C1527 C1526 1.416 . S
C1527 H1529 0.930 . S
H1528 C1517 0.930 . S
H1529 C1527 0.930 . S
H1530 C1545 0.930 . S
H1531 C1552 0.930 . S
H1532 C1526 0.929 . S
H1533 C1525 0.930 . S
H1534 C1548 0.929 . S
H1535 C1515 0.931 . S
H1536 C1521 0.931 . S
H1537 C1522 0.931 . S
H1538 C1543 0.931 . S
H1539 C1518 0.929 . S
H1540 C1551 0.930 . S
N1541 Eu1512 2.600 . S
N1541 C1542 1.365 . S
N1541 C1545 1.319 . S
C1542 N1541 1.365 . S
C1542 C1544 1.405 . S
C1542 C1550 1.448 . S
C1543 H1538 0.931 . S
C1543 C1545 1.397 . S
C1543 C1546 1.367 . S
C1544 C1542 1.405 . S
C1544 C1546 1.403 . S
C1544 C1577 1.439 . S
C1545 H1530 0.930 . S
C1545 N1541 1.319 . S
C1545 C1543 1.397 . S
C1546 C1543 1.367 . S
C1546 C1544 1.403 . S
C1546 H1553 0.929 . S
N1547 Eu1512 2.562 . S
N1547 C1548 1.325 . S
N1547 C1550 1.351 . S
C1548 H1534 0.929 . S
C1548 N1547 1.325 . S
C1548 C1552 1.416 . S
C1549 C1550 1.430 . S
C1549 C1551 1.404 . S
C1549 C1578 1.387 . S
C1550 C1542 1.448 . S
C1550 N1547 1.351 . S
C1550 C1549 1.430 . S
C1551 H1540 0.930 . S
C1551 C1549 1.404 . S
C1551 C1552 1.366 . S
C1552 H1531 0.930 . S
C1552 C1548 1.416 . S
C1552 C1551 1.366 . S
H1553 C1546 0.929 . S
H1554 C1577 0.931 . S
H1555 C1578 0.931 . S
O1556 Eu1512 2.462 . S
O1556 C1576 1.252 . S
O1557 Eu1512 2.373 . S
O1557 C1568 1.249 . S
O1558 Eu1523 2.335 . S
O1558 C1568 1.264 . S
O1559 Eu1512 2.432 . S
O1559 C1576 1.268 . S
O1560 Eu1512 2.291 . S
O1560 C1575 1.255 . S
O1561 Eu1523 2.372 . S
O1561 C1575 1.257 . S
O1562 Eu1523 2.462 . S
O1562 C1587 1.252 . S
O1563 Eu1523 2.373 . S
O1563 C1579 1.249 . S
O1564 Eu1512 2.335 . S
O1564 C1579 1.264 . S
O1565 Eu1523 2.432 . S
O1565 C1587 1.268 . S
O1566 Eu1523 2.291 . S
O1566 C1586 1.255 . S
O1567 Eu1512 2.372 . S
O1567 C1586 1.257 . S
C1568 O1557 1.249 . S
C1568 O1558 1.264 . S
C1569 C1572 1.382 . S
C1569 C1574 1.390 . S
C1569 C1576 1.506 . S
C1570 C1571 1.398 . S
C1570 C1574 1.392 . S
C1571 C1570 1.398 . S
C1571 C1573 1.372 . S
C1571 H1588 0.931 . S
C1572 C1569 1.382 . S
C1572 C1573 1.390 . S
C1572 H1589 0.931 . S
C1573 C1571 1.372 . S
C1573 C1572 1.390 . S
C1573 H1590 0.929 . S
C1574 C1569 1.390 . S
C1574 C1570 1.392 . S
C1574 H1591 0.930 . S
C1575 O1560 1.255 . S
C1575 O1561 1.257 . S
C1576 Eu1512 2.787 . S
C1576 O1556 1.252 . S
C1576 O1559 1.268 . S
C1576 C1569 1.506 . S
C1577 C1544 1.439 . S
C1577 H1554 0.931 . S
C1577 C1578 1.374 . S
C1578 C1549 1.387 . S
C1578 H1555 0.931 . S
C1578 C1577 1.374 . S
C1579 O1563 1.249 . S
C1579 O1564 1.264 . S
C1580 C1583 1.382 . S
C1580 C1584 1.390 . S
C1580 C1587 1.506 . S
C1581 C1582 1.398 . S
C1581 C1584 1.392 . S
C1582 C1581 1.398 . S
C1582 C1585 1.372 . S
C1582 H1592 0.931 . S
C1583 C1580 1.382 . S
C1583 C1585 1.390 . S
C1583 H1593 0.931 . S
C1584 C1580 1.390 . S
C1584 C1581 1.392 . S
C1584 H1594 0.930 . S
C1585 C1582 1.372 . S
C1585 C1583 1.390 . S
C1585 H1595 0.929 . S
C1586 O1566 1.255 . S
C1586 O1567 1.257 . S
C1587 Eu1523 2.787 . S
C1587 O1562 1.252 . S
C1587 O1565 1.268 . S
C1587 C1580 1.506 . S
H1588 C1571 0.931 . S
H1589 C1572 0.931 . S
H1590 C1573 0.929 . S
H1591 C1574 0.930 . S
H1592 C1582 0.931 . S
H1593 C1583 0.931 . S
H1594 C1584 0.930 . S
H1595 C1585 0.929 . S
Eu1596 N1625 2.600 . S
Eu1596 N1631 2.562 . S
Eu1596 O1640 2.462 . S
Eu1596 O1641 2.373 . S
Eu1596 O1643 2.432 . S
Eu1596 O1644 2.291 . S
Eu1596 O1648 2.335 . S
Eu1596 O1651 2.372 . S
Eu1596 C1660 2.787 . S
C1597 N1598 1.365 . S
C1597 C1600 1.405 . S
C1597 C1604 1.448 . S
N1598 C1597 1.365 . S
N1598 C1601 1.319 . S
N1598 Eu1607 2.600 . S
C1599 C1601 1.397 . S
C1599 C1602 1.367 . S
C1599 H1619 0.931 . S
C1600 C1597 1.405 . S
C1600 C1602 1.403 . S
C1600 C1606 1.439 . S
C1601 N1598 1.319 . S
C1601 C1599 1.397 . S
C1601 H1612 0.930 1_455 S
C1602 C1599 1.367 . S
C1602 C1600 1.403 . S
C1602 H1623 0.929 . S
C1603 C1604 1.430 . S
C1603 C1605 1.387 . S
C1603 C1609 1.404 . S
C1604 C1597 1.448 . S
C1604 C1603 1.430 . S
C1604 N1608 1.351 . S
C1605 C1603 1.387 . S
C1605 C1606 1.374 . S
C1605 H1620 0.931 . S
C1606 C1600 1.439 . S
C1606 C1605 1.374 . S
C1606 H1621 0.931 . S
Eu1607 N1598 2.600 . S
Eu1607 N1608 2.562 . S
Eu1607 O1642 2.335 1_455 S
Eu1607 O1645 2.372 1_455 S
Eu1607 O1646 2.462 . S
Eu1607 O1647 2.373 1_455 S
Eu1607 O1649 2.432 . S
Eu1607 O1650 2.291 . S
Eu1607 C1671 2.787 . S
N1608 C1604 1.351 . S
N1608 Eu1607 2.562 . S
N1608 C1610 1.325 . S
C1609 C1603 1.404 . S
C1609 C1611 1.366 . S
C1609 H1617 0.930 . S
C1610 N1608 1.325 . S
C1610 C1611 1.416 . S
C1610 H1616 0.929 . S
C1611 C1609 1.366 . S
C1611 C1610 1.416 . S
C1611 H1613 0.930 . S
H1612 C1601 0.930 1_655 S
H1613 C1611 0.930 . S
H1614 C1629 0.930 . S
H1615 C1636 0.930 . S
H1616 C1610 0.929 . S
H1617 C1609 0.930 . S
H1618 C1632 0.929 . S
H1619 C1599 0.931 . S
H1620 C1605 0.931 . S
H1621 C1606 0.931 . S
H1622 C1627 0.931 . S
H1623 C1602 0.929 . S
H1624 C1635 0.930 . S
N1625 Eu1596 2.600 . S
N1625 C1626 1.365 . S
N1625 C1629 1.319 . S
C1626 N1625 1.365 . S
C1626 C1628 1.405 . S
C1626 C1634 1.448 . S
C1627 H1622 0.931 . S
C1627 C1629 1.397 . S
C1627 C1630 1.367 . S
C1628 C1626 1.405 . S
C1628 C1630 1.403 . S
C1628 C1661 1.439 . S
C1629 H1614 0.930 . S
C1629 N1625 1.319 . S
C1629 C1627 1.397 . S
C1630 C1627 1.367 . S
C1630 C1628 1.403 . S
C1630 H1637 0.929 . S
N1631 Eu1596 2.562 . S
N1631 C1632 1.325 . S
N1631 C1634 1.351 . S
C1632 H1618 0.929 . S
C1632 N1631 1.325 . S
C1632 C1636 1.416 . S
C1633 C1634 1.430 . S
C1633 C1635 1.404 . S
C1633 C1662 1.387 . S
C1634 C1626 1.448 . S
C1634 N1631 1.351 . S
C1634 C1633 1.430 . S
C1635 H1624 0.930 . S
C1635 C1633 1.404 . S
C1635 C1636 1.366 . S
C1636 H1615 0.930 . S
C1636 C1632 1.416 . S
C1636 C1635 1.366 . S
H1637 C1630 0.929 . S
H1638 C1661 0.931 . S
H1639 C1662 0.931 . S
O1640 Eu1596 2.462 . S
O1640 C1660 1.252 . S
O1641 Eu1596 2.373 . S
O1641 C1652 1.249 . S
O1642 Eu1607 2.335 1_655 S
O1642 C1652 1.264 . S
O1643 Eu1596 2.432 . S
O1643 C1660 1.268 . S
O1644 Eu1596 2.291 . S
O1644 C1659 1.255 . S
O1645 Eu1607 2.372 1_655 S
O1645 C1659 1.257 . S
O1646 Eu1607 2.462 . S
O1646 C1671 1.252 . S
O1647 Eu1607 2.373 1_655 S
O1647 C1663 1.249 . S
O1648 Eu1596 2.335 . S
O1648 C1663 1.264 . S
O1649 Eu1607 2.432 . S
O1649 C1671 1.268 . S
O1650 Eu1607 2.291 . S
O1650 C1670 1.255 1_455 S
O1651 Eu1596 2.372 . S
O1651 C1670 1.257 . S
C1652 O1641 1.249 . S
C1652 O1642 1.264 . S
C1653 C1656 1.382 . S
C1653 C1658 1.390 . S
C1653 C1660 1.506 . S
C1654 C1655 1.398 . S
C1654 C1658 1.392 . S
C1655 C1654 1.398 . S
C1655 C1657 1.372 . S
C1655 H1672 0.931 . S
C1656 C1653 1.382 . S
C1656 C1657 1.390 . S
C1656 H1673 0.931 . S
C1657 C1655 1.372 . S
C1657 C1656 1.390 . S
C1657 H1674 0.929 . S
C1658 C1653 1.390 . S
C1658 C1654 1.392 . S
C1658 H1675 0.930 . S
C1659 O1644 1.255 . S
C1659 O1645 1.257 . S
C1660 Eu1596 2.787 . S
C1660 O1640 1.252 . S
C1660 O1643 1.268 . S
C1660 C1653 1.506 . S
C1661 C1628 1.439 . S
C1661 H1638 0.931 . S
C1661 C1662 1.374 . S
C1662 C1633 1.387 . S
C1662 H1639 0.931 . S
C1662 C1661 1.374 . S
C1663 O1647 1.249 . S
C1663 O1648 1.264 . S
C1664 C1667 1.382 . S
C1664 C1668 1.390 . S
C1664 C1671 1.506 . S
C1665 C1666 1.398 . S
C1665 C1668 1.392 . S
C1666 C1665 1.398 . S
C1666 C1669 1.372 . S
C1666 H1676 0.931 . S
C1667 C1664 1.382 . S
C1667 C1669 1.390 . S
C1667 H1677 0.931 . S
C1668 C1664 1.390 . S
C1668 C1665 1.392 . S
C1668 H1678 0.930 . S
C1669 C1666 1.372 . S
C1669 C1667 1.390 . S
C1669 H1679 0.929 . S
C1670 O1650 1.255 1_655 S
C1670 O1651 1.257 . S
C1671 Eu1607 2.787 . S
C1671 O1646 1.252 . S
C1671 O1649 1.268 . S
C1671 C1664 1.506 . S
H1672 C1655 0.931 . S
H1673 C1656 0.931 . S
H1674 C1657 0.929 . S
H1675 C1658 0.930 . S
H1676 C1666 0.931 . S
H1677 C1667 0.931 . S
H1678 C1668 0.930 . S
H1679 C1669 0.929 . S
Eu1680 N1709 2.600 . S
Eu1680 N1715 2.562 . S
Eu1680 O1724 2.462 . S
Eu1680 O1725 2.373 . S
Eu1680 O1727 2.432 . S
Eu1680 O1728 2.291 . S
Eu1680 O1732 2.335 . S
Eu1680 O1735 2.372 . S
Eu1680 C1744 2.787 . S
C1681 N1682 1.365 . S
C1681 C1684 1.405 . S
C1681 C1688 1.448 . S
N1682 C1681 1.365 . S
N1682 C1685 1.319 . S
N1682 Eu1691 2.600 . S
C1683 C1685 1.397 . S
C1683 C1686 1.367 . S
C1683 H1703 0.931 . S
C1684 C1681 1.405 . S
C1684 C1686 1.403 . S
C1684 C1690 1.439 . S
C1685 N1682 1.319 . S
C1685 C1683 1.397 . S
C1685 H1696 0.930 . S
C1686 C1683 1.367 . S
C1686 C1684 1.403 . S
C1686 H1707 0.929 . S
C1687 C1688 1.430 . S
C1687 C1689 1.387 . S
C1687 C1693 1.404 . S
C1688 C1681 1.448 . S
C1688 C1687 1.430 . S
C1688 N1692 1.351 . S
C1689 C1687 1.387 . S
C1689 C1690 1.374 . S
C1689 H1704 0.931 . S
C1690 C1684 1.439 . S
C1690 C1689 1.374 . S
C1690 H1705 0.931 . S
Eu1691 N1682 2.600 . S
Eu1691 N1692 2.562 . S
Eu1691 O1726 2.335 . S
Eu1691 O1729 2.372 . S
Eu1691 O1730 2.462 . S
Eu1691 O1731 2.373 . S
Eu1691 O1733 2.432 . S
Eu1691 O1734 2.291 . S
Eu1691 C1755 2.787 . S
N1692 C1688 1.351 . S
N1692 Eu1691 2.562 . S
N1692 C1694 1.325 . S
C1693 C1687 1.404 . S
C1693 C1695 1.366 . S
C1693 H1701 0.930 . S
C1694 N1692 1.325 . S
C1694 C1695 1.416 . S
C1694 H1700 0.929 . S
C1695 C1693 1.366 . S
C1695 C1694 1.416 . S
C1695 H1697 0.930 . S
H1696 C1685 0.930 . S
H1697 C1695 0.930 . S
H1698 C1713 0.930 . S
H1699 C1720 0.930 . S
H1700 C1694 0.929 . S
H1701 C1693 0.930 . S
H1702 C1716 0.929 . S
H1703 C1683 0.931 . S
H1704 C1689 0.931 . S
H1705 C1690 0.931 . S
H1706 C1711 0.931 . S
H1707 C1686 0.929 . S
H1708 C1719 0.930 . S
N1709 Eu1680 2.600 . S
N1709 C1710 1.365 . S
N1709 C1713 1.319 . S
C1710 N1709 1.365 . S
C1710 C1712 1.405 . S
C1710 C1718 1.448 . S
C1711 H1706 0.931 . S
C1711 C1713 1.397 . S
C1711 C1714 1.367 . S
C1712 C1710 1.405 . S
C1712 C1714 1.403 . S
C1712 C1745 1.439 . S
C1713 H1698 0.930 . S
C1713 N1709 1.319 . S
C1713 C1711 1.397 . S
C1714 C1711 1.367 . S
C1714 C1712 1.403 . S
C1714 H1721 0.929 . S
N1715 Eu1680 2.562 . S
N1715 C1716 1.325 . S
N1715 C1718 1.351 . S
C1716 H1702 0.929 . S
C1716 N1715 1.325 . S
C1716 C1720 1.416 . S
C1717 C1718 1.430 . S
C1717 C1719 1.404 . S
C1717 C1746 1.387 . S
C1718 C1710 1.448 . S
C1718 N1715 1.351 . S
C1718 C1717 1.430 . S
C1719 H1708 0.930 . S
C1719 C1717 1.404 . S
C1719 C1720 1.366 . S
C1720 H1699 0.930 . S
C1720 C1716 1.416 . S
C1720 C1719 1.366 . S
H1721 C1714 0.929 . S
H1722 C1745 0.931 . S
H1723 C1746 0.931 . S
O1724 Eu1680 2.462 . S
O1724 C1744 1.252 . S
O1725 Eu1680 2.373 . S
O1725 C1736 1.249 . S
O1726 Eu1691 2.335 . S
O1726 C1736 1.264 . S
O1727 Eu1680 2.432 . S
O1727 C1744 1.268 . S
O1728 Eu1680 2.291 . S
O1728 C1743 1.255 . S
O1729 Eu1691 2.372 . S
O1729 C1743 1.257 . S
O1730 Eu1691 2.462 . S
O1730 C1755 1.252 . S
O1731 Eu1691 2.373 . S
O1731 C1747 1.249 . S
O1732 Eu1680 2.335 . S
O1732 C1747 1.264 . S
O1733 Eu1691 2.432 . S
O1733 C1755 1.268 . S
O1734 Eu1691 2.291 . S
O1734 C1754 1.255 . S
O1735 Eu1680 2.372 . S
O1735 C1754 1.257 . S
C1736 O1725 1.249 . S
C1736 O1726 1.264 . S
C1737 C1740 1.382 . S
C1737 C1742 1.390 . S
C1737 C1744 1.506 . S
C1738 C1739 1.398 . S
C1738 C1742 1.392 . S
C1739 C1738 1.398 . S
C1739 C1741 1.372 . S
C1739 H1756 0.931 . S
C1740 C1737 1.382 . S
C1740 C1741 1.390 . S
C1740 H1757 0.931 . S
C1741 C1739 1.372 . S
C1741 C1740 1.390 . S
C1741 H1758 0.929 . S
C1742 C1737 1.390 . S
C1742 C1738 1.392 . S
C1742 H1759 0.930 . S
C1743 O1728 1.255 . S
C1743 O1729 1.257 . S
C1744 Eu1680 2.787 . S
C1744 O1724 1.252 . S
C1744 O1727 1.268 . S
C1744 C1737 1.506 . S
C1745 C1712 1.439 . S
C1745 H1722 0.931 . S
C1745 C1746 1.374 . S
C1746 C1717 1.387 . S
C1746 H1723 0.931 . S
C1746 C1745 1.374 . S
C1747 O1731 1.249 . S
C1747 O1732 1.264 . S
C1748 C1751 1.382 . S
C1748 C1752 1.390 . S
C1748 C1755 1.506 . S
C1749 C1750 1.398 . S
C1749 C1752 1.392 . S
C1750 C1749 1.398 . S
C1750 C1753 1.372 . S
C1750 H1760 0.931 . S
C1751 C1748 1.382 . S
C1751 C1753 1.390 . S
C1751 H1761 0.931 . S
C1752 C1748 1.390 . S
C1752 C1749 1.392 . S
C1752 H1762 0.930 . S
C1753 C1750 1.372 . S
C1753 C1751 1.390 . S
C1753 H1763 0.929 . S
C1754 O1734 1.255 . S
C1754 O1735 1.257 . S
C1755 Eu1691 2.787 . S
C1755 O1730 1.252 . S
C1755 O1733 1.268 . S
C1755 C1748 1.506 . S
H1756 C1739 0.931 . S
H1757 C1740 0.931 . S
H1758 C1741 0.929 . S
H1759 C1742 0.930 . S
H1760 C1750 0.931 . S
H1761 C1751 0.931 . S
H1762 C1752 0.930 . S
H1763 C1753 0.929 . S
Eu1764 N1793 2.600 . S
Eu1764 N1799 2.562 . S
Eu1764 O1808 2.462 . S
Eu1764 O1809 2.373 . S
Eu1764 O1811 2.432 . S
Eu1764 O1812 2.291 . S
Eu1764 O1816 2.335 . S
Eu1764 O1819 2.372 . S
Eu1764 C1828 2.787 . S
C1765 N1766 1.365 . S
C1765 C1768 1.405 . S
C1765 C1772 1.448 . S
N1766 C1765 1.365 . S
N1766 C1769 1.319 . S
N1766 Eu1775 2.600 . S
C1767 C1769 1.397 . S
C1767 C1770 1.367 . S
C1767 H1787 0.931 . S
C1768 C1765 1.405 . S
C1768 C1770 1.403 . S
C1768 C1774 1.439 . S
C1769 N1766 1.319 . S
C1769 C1767 1.397 . S
C1769 H1780 0.930 1_455 S
C1770 C1767 1.367 . S
C1770 C1768 1.403 . S
C1770 H1791 0.929 . S
C1771 C1772 1.430 . S
C1771 C1773 1.387 . S
C1771 C1777 1.404 . S
C1772 C1765 1.448 . S
C1772 C1771 1.430 . S
C1772 N1776 1.351 . S
C1773 C1771 1.387 . S
C1773 C1774 1.374 . S
C1773 H1788 0.931 . S
C1774 C1768 1.439 . S
C1774 C1773 1.374 . S
C1774 H1789 0.931 . S
Eu1775 N1766 2.600 . S
Eu1775 N1776 2.562 . S
Eu1775 O1810 2.335 1_455 S
Eu1775 O1813 2.372 1_455 S
Eu1775 O1814 2.462 . S
Eu1775 O1815 2.373 1_455 S
Eu1775 O1817 2.432 . S
Eu1775 O1818 2.291 . S
Eu1775 C1839 2.787 . S
N1776 C1772 1.351 . S
N1776 Eu1775 2.562 . S
N1776 C1778 1.325 . S
C1777 C1771 1.404 . S
C1777 C1779 1.366 . S
C1777 H1785 0.930 . S
C1778 N1776 1.325 . S
C1778 C1779 1.416 . S
C1778 H1784 0.929 . S
C1779 C1777 1.366 . S
C1779 C1778 1.416 . S
C1779 H1781 0.930 . S
H1780 C1769 0.930 1_655 S
H1781 C1779 0.930 . S
H1782 C1797 0.930 . S
H1783 C1804 0.930 . S
H1784 C1778 0.929 . S
H1785 C1777 0.930 . S
H1786 C1800 0.929 . S
H1787 C1767 0.931 . S
H1788 C1773 0.931 . S
H1789 C1774 0.931 . S
H1790 C1795 0.931 . S
H1791 C1770 0.929 . S
H1792 C1803 0.930 . S
N1793 Eu1764 2.600 . S
N1793 C1794 1.365 . S
N1793 C1797 1.319 . S
C1794 N1793 1.365 . S
C1794 C1796 1.405 . S
C1794 C1802 1.448 . S
C1795 H1790 0.931 . S
C1795 C1797 1.397 . S
C1795 C1798 1.367 . S
C1796 C1794 1.405 . S
C1796 C1798 1.403 . S
C1796 C1829 1.439 . S
C1797 H1782 0.930 . S
C1797 N1793 1.319 . S
C1797 C1795 1.397 . S
C1798 C1795 1.367 . S
C1798 C1796 1.403 . S
C1798 H1805 0.929 . S
N1799 Eu1764 2.562 . S
N1799 C1800 1.325 . S
N1799 C1802 1.351 . S
C1800 H1786 0.929 . S
C1800 N1799 1.325 . S
C1800 C1804 1.416 . S
C1801 C1802 1.430 . S
C1801 C1803 1.404 . S
C1801 C1830 1.387 . S
C1802 C1794 1.448 . S
C1802 N1799 1.351 . S
C1802 C1801 1.430 . S
C1803 H1792 0.930 . S
C1803 C1801 1.404 . S
C1803 C1804 1.366 . S
C1804 H1783 0.930 . S
C1804 C1800 1.416 . S
C1804 C1803 1.366 . S
H1805 C1798 0.929 . S
H1806 C1829 0.931 . S
H1807 C1830 0.931 . S
O1808 Eu1764 2.462 . S
O1808 C1828 1.252 . S
O1809 Eu1764 2.373 . S
O1809 C1820 1.249 . S
O1810 Eu1775 2.335 1_655 S
O1810 C1820 1.264 . S
O1811 Eu1764 2.432 . S
O1811 C1828 1.268 . S
O1812 Eu1764 2.291 . S
O1812 C1827 1.255 . S
O1813 Eu1775 2.372 1_655 S
O1813 C1827 1.257 . S
O1814 Eu1775 2.462 . S
O1814 C1839 1.252 . S
O1815 Eu1775 2.373 1_655 S
O1815 C1831 1.249 . S
O1816 Eu1764 2.335 . S
O1816 C1831 1.264 . S
O1817 Eu1775 2.432 . S
O1817 C1839 1.268 . S
O1818 Eu1775 2.291 . S
O1818 C1838 1.255 1_455 S
O1819 Eu1764 2.372 . S
O1819 C1838 1.257 . S
C1820 O1809 1.249 . S
C1820 O1810 1.264 . S
C1821 C1824 1.382 . S
C1821 C1826 1.390 . S
C1821 C1828 1.506 . S
C1822 C1823 1.396 1_556 S
C1822 C1826 1.392 . S
C1823 C1822 1.396 1_554 S
C1823 C1825 1.371 1_554 S
C1823 H1840 0.933 . S
C1824 C1821 1.382 . S
C1824 C1825 1.396 . S
C1824 H1841 0.931 . S
C1825 C1823 1.371 1_556 S
C1825 C1824 1.396 . S
C1825 H1842 0.923 1_556 S
C1826 C1821 1.390 . S
C1826 C1822 1.392 . S
C1826 H1843 0.930 . S
C1827 O1812 1.255 . S
C1827 O1813 1.257 . S
C1828 Eu1764 2.787 . S
C1828 O1808 1.252 . S
C1828 O1811 1.268 . S
C1828 C1821 1.506 . S
C1829 C1796 1.439 . S
C1829 H1806 0.931 . S
C1829 C1830 1.374 . S
C1830 C1801 1.387 . S
C1830 H1807 0.931 . S
C1830 C1829 1.374 . S
C1831 O1815 1.249 . S
C1831 O1816 1.264 . S
C1832 C1835 1.382 . S
C1832 C1836 1.390 . S
C1832 C1839 1.506 . S
C1833 C1834 1.398 . S
C1833 C1836 1.392 . S
C1834 C1833 1.398 . S
C1834 C1837 1.372 . S
C1834 H1844 0.931 . S
C1835 C1832 1.382 . S
C1835 C1837 1.390 . S
C1835 H1845 0.931 . S
C1836 C1832 1.390 . S
C1836 C1833 1.392 . S
C1836 H1846 0.930 . S
C1837 C1834 1.372 . S
C1837 C1835 1.390 . S
C1837 H1847 0.929 . S
C1838 O1818 1.255 1_655 S
C1838 O1819 1.257 . S
C1839 Eu1775 2.787 . S
C1839 O1814 1.252 . S
C1839 O1817 1.268 . S
C1839 C1832 1.506 . S
H1840 C1823 0.933 . S
H1841 C1824 0.931 . S
H1842 C1825 0.923 1_554 S
H1843 C1826 0.930 . S
H1844 C1834 0.931 . S
H1845 C1835 0.931 . S
H1846 C1836 0.930 . S
H1847 C1837 0.929 . S
Eu1848 N1877 2.600 . S
Eu1848 N1883 2.562 . S
Eu1848 O1892 2.462 . S
Eu1848 O1893 2.373 . S
Eu1848 O1895 2.432 . S
Eu1848 O1896 2.291 . S
Eu1848 O1900 2.335 . S
Eu1848 O1903 2.372 . S
Eu1848 C1912 2.787 . S
C1849 N1850 1.365 . S
C1849 C1852 1.405 . S
C1849 C1856 1.448 . S
N1850 C1849 1.365 . S
N1850 C1853 1.319 . S
N1850 Eu1859 2.600 . S
C1851 C1853 1.397 . S
C1851 C1854 1.367 . S
C1851 H1871 0.931 . S
C1852 C1849 1.405 . S
C1852 C1854 1.403 . S
C1852 C1858 1.439 . S
C1853 N1850 1.319 . S
C1853 C1851 1.397 . S
C1853 H1864 0.930 . S
C1854 C1851 1.367 . S
C1854 C1852 1.403 . S
C1854 H1875 0.929 . S
C1855 C1856 1.430 . S
C1855 C1857 1.387 . S
C1855 C1861 1.404 . S
C1856 C1849 1.448 . S
C1856 C1855 1.430 . S
C1856 N1860 1.351 . S
C1857 C1855 1.387 . S
C1857 C1858 1.374 . S
C1857 H1872 0.931 . S
C1858 C1852 1.439 . S
C1858 C1857 1.374 . S
C1858 H1873 0.931 . S
Eu1859 N1850 2.600 . S
Eu1859 N1860 2.562 . S
Eu1859 O1894 2.335 . S
Eu1859 O1897 2.372 . S
Eu1859 O1898 2.462 . S
Eu1859 O1899 2.373 . S
Eu1859 O1901 2.432 . S
Eu1859 O1902 2.291 . S
Eu1859 C1923 2.787 . S
N1860 C1856 1.351 . S
N1860 Eu1859 2.562 . S
N1860 C1862 1.325 . S
C1861 C1855 1.404 . S
C1861 C1863 1.366 . S
C1861 H1869 0.930 . S
C1862 N1860 1.325 . S
C1862 C1863 1.416 . S
C1862 H1868 0.929 . S
C1863 C1861 1.366 . S
C1863 C1862 1.416 . S
C1863 H1865 0.930 . S
H1864 C1853 0.930 . S
H1865 C1863 0.930 . S
H1866 C1881 0.930 . S
H1867 C1888 0.930 . S
H1868 C1862 0.929 . S
H1869 C1861 0.930 . S
H1870 C1884 0.929 . S
H1871 C1851 0.931 . S
H1872 C1857 0.931 . S
H1873 C1858 0.931 . S
H1874 C1879 0.931 . S
H1875 C1854 0.929 . S
H1876 C1887 0.930 . S
N1877 Eu1848 2.600 . S
N1877 C1878 1.365 . S
N1877 C1881 1.319 . S
C1878 N1877 1.365 . S
C1878 C1880 1.405 . S
C1878 C1886 1.448 . S
C1879 H1874 0.931 . S
C1879 C1881 1.397 . S
C1879 C1882 1.367 . S
C1880 C1878 1.405 . S
C1880 C1882 1.403 . S
C1880 C1913 1.439 . S
C1881 H1866 0.930 . S
C1881 N1877 1.319 . S
C1881 C1879 1.397 . S
C1882 C1879 1.367 . S
C1882 C1880 1.403 . S
C1882 H1889 0.929 . S
N1883 Eu1848 2.562 . S
N1883 C1884 1.325 . S
N1883 C1886 1.351 . S
C1884 H1870 0.929 . S
C1884 N1883 1.325 . S
C1884 C1888 1.416 . S
C1885 C1886 1.430 . S
C1885 C1887 1.404 . S
C1885 C1914 1.387 . S
C1886 C1878 1.448 . S
C1886 N1883 1.351 . S
C1886 C1885 1.430 . S
C1887 H1876 0.930 . S
C1887 C1885 1.404 . S
C1887 C1888 1.366 . S
C1888 H1867 0.930 . S
C1888 C1884 1.416 . S
C1888 C1887 1.366 . S
H1889 C1882 0.929 . S
H1890 C1913 0.931 . S
H1891 C1914 0.931 . S
O1892 Eu1848 2.462 . S
O1892 C1912 1.252 . S
O1893 Eu1848 2.373 . S
O1893 C1904 1.249 . S
O1894 Eu1859 2.335 . S
O1894 C1904 1.264 . S
O1895 Eu1848 2.432 . S
O1895 C1912 1.268 . S
O1896 Eu1848 2.291 . S
O1896 C1911 1.255 . S
O1897 Eu1859 2.372 . S
O1897 C1911 1.257 . S
O1898 Eu1859 2.462 . S
O1898 C1923 1.252 . S
O1899 Eu1859 2.373 . S
O1899 C1915 1.249 . S
O1900 Eu1848 2.335 . S
O1900 C1915 1.264 . S
O1901 Eu1859 2.432 . S
O1901 C1923 1.268 . S
O1902 Eu1859 2.291 . S
O1902 C1922 1.255 . S
O1903 Eu1848 2.372 . S
O1903 C1922 1.257 . S
C1904 O1893 1.249 . S
C1904 O1894 1.264 . S
C1905 C1908 1.382 . S
C1905 C1910 1.390 . S
C1905 C1912 1.506 . S
C1906 C1907 1.398 . S
C1906 C1910 1.392 . S
C1907 C1906 1.398 . S
C1907 C1909 1.372 . S
C1907 H1924 0.931 . S
C1908 C1905 1.382 . S
C1908 C1909 1.390 . S
C1908 H1925 0.931 . S
C1909 C1907 1.372 . S
C1909 C1908 1.390 . S
C1909 H1926 0.929 . S
C1910 C1905 1.390 . S
C1910 C1906 1.392 . S
C1910 H1927 0.930 . S
C1911 O1896 1.255 . S
C1911 O1897 1.257 . S
C1912 Eu1848 2.787 . S
C1912 O1892 1.252 . S
C1912 O1895 1.268 . S
C1912 C1905 1.506 . S
C1913 C1880 1.439 . S
C1913 H1890 0.931 . S
C1913 C1914 1.374 . S
C1914 C1885 1.387 . S
C1914 H1891 0.931 . S
C1914 C1913 1.374 . S
C1915 O1899 1.249 . S
C1915 O1900 1.264 . S
C1916 C1919 1.382 . S
C1916 C1920 1.390 . S
C1916 C1923 1.506 . S
C1917 C1918 1.398 . S
C1917 C1920 1.392 . S
C1918 C1917 1.398 . S
C1918 C1921 1.372 . S
C1918 H1928 0.931 . S
C1919 C1916 1.382 . S
C1919 C1921 1.390 . S
C1919 H1929 0.931 . S
C1920 C1916 1.390 . S
C1920 C1917 1.392 . S
C1920 H1930 0.930 . S
C1921 C1918 1.372 . S
C1921 C1919 1.390 . S
C1921 H1931 0.929 . S
C1922 O1902 1.255 . S
C1922 O1903 1.257 . S
C1923 Eu1859 2.787 . S
C1923 O1898 1.252 . S
C1923 O1901 1.268 . S
C1923 C1916 1.506 . S
H1924 C1907 0.931 . S
H1925 C1908 0.931 . S
H1926 C1909 0.929 . S
H1927 C1910 0.930 . S
H1928 C1918 0.931 . S
H1929 C1919 0.931 . S
H1930 C1920 0.930 . S
H1931 C1921 0.929 . S
Eu1932 N1961 2.600 . S
Eu1932 N1967 2.562 . S
Eu1932 O1976 2.462 . S
Eu1932 O1977 2.373 . S
Eu1932 O1979 2.432 . S
Eu1932 O1980 2.291 . S
Eu1932 O1984 2.335 . S
Eu1932 O1987 2.372 . S
Eu1932 C1996 2.787 . S
C1933 N1934 1.365 . S
C1933 C1936 1.405 . S
C1933 C1940 1.448 . S
N1934 C1933 1.365 . S
N1934 C1937 1.319 . S
N1934 Eu1943 2.600 . S
C1935 C1937 1.397 . S
C1935 C1938 1.367 . S
C1935 H1955 0.931 . S
C1936 C1933 1.405 . S
C1936 C1938 1.403 . S
C1936 C1942 1.439 . S
C1937 N1934 1.319 . S
C1937 C1935 1.397 . S
C1937 H1948 0.930 . S
C1938 C1935 1.367 . S
C1938 C1936 1.403 . S
C1938 H1959 0.929 . S
C1939 C1940 1.430 . S
C1939 C1941 1.387 . S
C1939 C1945 1.404 . S
C1940 C1933 1.448 . S
C1940 C1939 1.430 . S
C1940 N1944 1.351 . S
C1941 C1939 1.387 . S
C1941 C1942 1.374 . S
C1941 H1956 0.931 . S
C1942 C1936 1.439 . S
C1942 C1941 1.374 . S
C1942 H1957 0.931 . S
Eu1943 N1934 2.600 . S
Eu1943 N1944 2.562 . S
Eu1943 O1978 2.335 . S
Eu1943 O1981 2.372 . S
Eu1943 O1982 2.462 . S
Eu1943 O1983 2.373 . S
Eu1943 O1985 2.432 . S
Eu1943 O1986 2.291 . S
Eu1943 C2007 2.787 . S
N1944 C1940 1.351 . S
N1944 Eu1943 2.562 . S
N1944 C1946 1.325 . S
C1945 C1939 1.404 . S
C1945 C1947 1.366 . S
C1945 H1953 0.930 . S
C1946 N1944 1.325 . S
C1946 C1947 1.416 . S
C1946 H1952 0.929 . S
C1947 C1945 1.366 . S
C1947 C1946 1.416 . S
C1947 H1949 0.930 . S
H1948 C1937 0.930 . S
H1949 C1947 0.930 . S
H1950 C1965 0.930 . S
H1951 C1972 0.930 . S
H1952 C1946 0.929 . S
H1953 C1945 0.930 . S
H1954 C1968 0.929 . S
H1955 C1935 0.931 . S
H1956 C1941 0.931 . S
H1957 C1942 0.931 . S
H1958 C1963 0.931 . S
H1959 C1938 0.929 . S
H1960 C1971 0.930 . S
N1961 Eu1932 2.600 . S
N1961 C1962 1.365 . S
N1961 C1965 1.319 . S
C1962 N1961 1.365 . S
C1962 C1964 1.405 . S
C1962 C1970 1.448 . S
C1963 H1958 0.931 . S
C1963 C1965 1.397 . S
C1963 C1966 1.367 . S
C1964 C1962 1.405 . S
C1964 C1966 1.403 . S
C1964 C1997 1.439 . S
C1965 H1950 0.930 . S
C1965 N1961 1.319 . S
C1965 C1963 1.397 . S
C1966 C1963 1.367 . S
C1966 C1964 1.403 . S
C1966 H1973 0.929 . S
N1967 Eu1932 2.562 . S
N1967 C1968 1.325 . S
N1967 C1970 1.351 . S
C1968 H1954 0.929 . S
C1968 N1967 1.325 . S
C1968 C1972 1.416 . S
C1969 C1970 1.430 . S
C1969 C1971 1.404 . S
C1969 C1998 1.387 . S
C1970 C1962 1.448 . S
C1970 N1967 1.351 . S
C1970 C1969 1.430 . S
C1971 H1960 0.930 . S
C1971 C1969 1.404 . S
C1971 C1972 1.366 . S
C1972 H1951 0.930 . S
C1972 C1968 1.416 . S
C1972 C1971 1.366 . S
H1973 C1966 0.929 . S
H1974 C1997 0.931 . S
H1975 C1998 0.931 . S
O1976 Eu1932 2.462 . S
O1976 C1996 1.252 . S
O1977 Eu1932 2.373 . S
O1977 C1988 1.249 . S
O1978 Eu1943 2.335 . S
O1978 C1988 1.264 . S
O1979 Eu1932 2.432 . S
O1979 C1996 1.268 . S
O1980 Eu1932 2.291 . S
O1980 C1995 1.255 . S
O1981 Eu1943 2.372 . S
O1981 C1995 1.257 . S
O1982 Eu1943 2.462 . S
O1982 C2007 1.252 . S
O1983 Eu1943 2.373 . S
O1983 C1999 1.249 . S
O1984 Eu1932 2.335 . S
O1984 C1999 1.264 . S
O1985 Eu1943 2.432 . S
O1985 C2007 1.268 . S
O1986 Eu1943 2.291 . S
O1986 C2006 1.255 . S
O1987 Eu1932 2.372 . S
O1987 C2006 1.257 . S
C1988 O1977 1.249 . S
C1988 O1978 1.264 . S
C1989 C1992 1.382 . S
C1989 C1994 1.390 . S
C1989 C1996 1.506 . S
C1990 C1991 1.398 . S
C1990 C1994 1.392 . S
C1991 C1990 1.398 . S
C1991 C1993 1.372 . S
C1991 H2008 0.931 . S
C1992 C1989 1.382 . S
C1992 C1993 1.390 . S
C1992 H2009 0.931 . S
C1993 C1991 1.372 . S
C1993 C1992 1.390 . S
C1993 H2010 0.929 . S
C1994 C1989 1.390 . S
C1994 C1990 1.392 . S
C1994 H2011 0.930 . S
C1995 O1980 1.255 . S
C1995 O1981 1.257 . S
C1996 Eu1932 2.787 . S
C1996 O1976 1.252 . S
C1996 O1979 1.268 . S
C1996 C1989 1.506 . S
C1997 C1964 1.439 . S
C1997 H1974 0.931 . S
C1997 C1998 1.374 . S
C1998 C1969 1.387 . S
C1998 H1975 0.931 . S
C1998 C1997 1.374 . S
C1999 O1983 1.249 . S
C1999 O1984 1.264 . S
C2000 C2003 1.382 . S
C2000 C2004 1.390 . S
C2000 C2007 1.506 . S
C2001 C2002 1.398 . S
C2001 C2004 1.392 . S
C2002 C2001 1.398 . S
C2002 C2005 1.372 . S
C2002 H2012 0.931 . S
C2003 C2000 1.382 . S
C2003 C2005 1.390 . S
C2003 H2013 0.931 . S
C2004 C2000 1.390 . S
C2004 C2001 1.392 . S
C2004 H2014 0.930 . S
C2005 C2002 1.372 . S
C2005 C2003 1.390 . S
C2005 H2015 0.929 . S
C2006 O1986 1.255 . S
C2006 O1987 1.257 . S
C2007 Eu1943 2.787 . S
C2007 O1982 1.252 . S
C2007 O1985 1.268 . S
C2007 C2000 1.506 . S
H2008 C1991 0.931 . S
H2009 C1992 0.931 . S
H2010 C1993 0.929 . S
H2011 C1994 0.930 . S
H2012 C2002 0.931 . S
H2013 C2003 0.931 . S
H2014 C2004 0.930 . S
H2015 C2005 0.929 . S
Eu2016 N2045 2.600 . S
Eu2016 N2051 2.562 . S
Eu2016 O2060 2.462 . S
Eu2016 O2061 2.373 . S
Eu2016 O2063 2.432 . S
Eu2016 O2064 2.291 . S
Eu2016 O2068 2.335 . S
Eu2016 O2071 2.372 . S
Eu2016 C2080 2.787 . S
C2017 N2018 1.365 . S
C2017 C2020 1.405 . S
C2017 C2024 1.448 . S
N2018 C2017 1.365 . S
N2018 C2021 1.319 . S
N2018 Eu2027 2.600 . S
C2019 C2021 1.397 . S
C2019 C2022 1.367 . S
C2019 H2039 0.931 . S
C2020 C2017 1.405 . S
C2020 C2022 1.403 . S
C2020 C2026 1.439 . S
C2021 N2018 1.319 . S
C2021 C2019 1.397 . S
C2021 H2032 0.930 . S
C2022 C2019 1.367 . S
C2022 C2020 1.403 . S
C2022 H2043 0.929 . S
C2023 C2024 1.430 . S
C2023 C2025 1.387 . S
C2023 C2029 1.404 . S
C2024 C2017 1.448 . S
C2024 C2023 1.430 . S
C2024 N2028 1.351 . S
C2025 C2023 1.387 . S
C2025 C2026 1.374 . S
C2025 H2040 0.931 . S
C2026 C2020 1.439 . S
C2026 C2025 1.374 . S
C2026 H2041 0.931 . S
Eu2027 N2018 2.600 . S
Eu2027 N2028 2.562 . S
Eu2027 O2062 2.335 . S
Eu2027 O2065 2.372 . S
Eu2027 O2066 2.462 . S
Eu2027 O2067 2.373 . S
Eu2027 O2069 2.432 . S
Eu2027 O2070 2.291 . S
Eu2027 C2091 2.787 . S
N2028 C2024 1.351 . S
N2028 Eu2027 2.562 . S
N2028 C2030 1.325 . S
C2029 C2023 1.404 . S
C2029 C2031 1.366 . S
C2029 H2037 0.930 . S
C2030 N2028 1.325 . S
C2030 C2031 1.416 . S
C2030 H2036 0.929 . S
C2031 C2029 1.366 . S
C2031 C2030 1.416 . S
C2031 H2033 0.930 . S
H2032 C2021 0.930 . S
H2033 C2031 0.930 . S
H2034 C2049 0.930 . S
H2035 C2056 0.930 . S
H2036 C2030 0.929 . S
H2037 C2029 0.930 . S
H2038 C2052 0.929 . S
H2039 C2019 0.931 . S
H2040 C2025 0.931 . S
H2041 C2026 0.931 . S
H2042 C2047 0.931 . S
H2043 C2022 0.929 . S
H2044 C2055 0.930 . S
N2045 Eu2016 2.600 . S
N2045 C2046 1.365 . S
N2045 C2049 1.319 . S
C2046 N2045 1.365 . S
C2046 C2048 1.405 . S
C2046 C2054 1.448 . S
C2047 H2042 0.931 . S
C2047 C2049 1.397 . S
C2047 C2050 1.367 . S
C2048 C2046 1.405 . S
C2048 C2050 1.403 . S
C2048 C2081 1.439 . S
C2049 H2034 0.930 . S
C2049 N2045 1.319 . S
C2049 C2047 1.397 . S
C2050 C2047 1.367 . S
C2050 C2048 1.403 . S
C2050 H2057 0.929 . S
N2051 Eu2016 2.562 . S
N2051 C2052 1.325 . S
N2051 C2054 1.351 . S
C2052 H2038 0.929 . S
C2052 N2051 1.325 . S
C2052 C2056 1.416 . S
C2053 C2054 1.430 . S
C2053 C2055 1.404 . S
C2053 C2082 1.387 . S
C2054 C2046 1.448 . S
C2054 N2051 1.351 . S
C2054 C2053 1.430 . S
C2055 H2044 0.930 . S
C2055 C2053 1.404 . S
C2055 C2056 1.366 . S
C2056 H2035 0.930 . S
C2056 C2052 1.416 . S
C2056 C2055 1.366 . S
H2057 C2050 0.929 . S
H2058 C2081 0.931 . S
H2059 C2082 0.931 . S
O2060 Eu2016 2.462 . S
O2060 C2080 1.252 . S
O2061 Eu2016 2.373 . S
O2061 C2072 1.249 . S
O2062 Eu2027 2.335 . S
O2062 C2072 1.264 . S
O2063 Eu2016 2.432 . S
O2063 C2080 1.268 . S
O2064 Eu2016 2.291 . S
O2064 C2079 1.255 . S
O2065 Eu2027 2.372 . S
O2065 C2079 1.257 . S
O2066 Eu2027 2.462 . S
O2066 C2091 1.252 . S
O2067 Eu2027 2.373 . S
O2067 C2083 1.249 . S
O2068 Eu2016 2.335 . S
O2068 C2083 1.264 . S
O2069 Eu2027 2.432 . S
O2069 C2091 1.268 . S
O2070 Eu2027 2.291 . S
O2070 C2090 1.255 . S
O2071 Eu2016 2.372 . S
O2071 C2090 1.257 . S
C2072 O2061 1.249 . S
C2072 O2062 1.264 . S
C2073 C2076 1.382 . S
C2073 C2078 1.390 . S
C2073 C2080 1.506 . S
C2074 C2075 1.398 . S
C2074 C2078 1.392 . S
C2075 C2074 1.398 . S
C2075 C2077 1.372 . S
C2075 H2092 0.931 . S
C2076 C2073 1.382 . S
C2076 C2077 1.390 . S
C2076 H2093 0.931 . S
C2077 C2075 1.372 . S
C2077 C2076 1.390 . S
C2077 H2094 0.929 . S
C2078 C2073 1.390 . S
C2078 C2074 1.392 . S
C2078 H2095 0.930 . S
C2079 O2064 1.255 . S
C2079 O2065 1.257 . S
C2080 Eu2016 2.787 . S
C2080 O2060 1.252 . S
C2080 O2063 1.268 . S
C2080 C2073 1.506 . S
C2081 C2048 1.439 . S
C2081 H2058 0.931 . S
C2081 C2082 1.374 . S
C2082 C2053 1.387 . S
C2082 H2059 0.931 . S
C2082 C2081 1.374 . S
C2083 O2067 1.249 . S
C2083 O2068 1.264 . S
C2084 C2087 1.382 . S
C2084 C2088 1.390 . S
C2084 C2091 1.506 . S
C2085 C2086 1.398 . S
C2085 C2088 1.392 . S
C2086 C2085 1.398 . S
C2086 C2089 1.372 . S
C2086 H2096 0.931 . S
C2087 C2084 1.382 . S
C2087 C2089 1.390 . S
C2087 H2097 0.931 . S
C2088 C2084 1.390 . S
C2088 C2085 1.392 . S
C2088 H2098 0.930 . S
C2089 C2086 1.372 . S
C2089 C2087 1.390 . S
C2089 H2099 0.929 . S
C2090 O2070 1.255 . S
C2090 O2071 1.257 . S
C2091 Eu2027 2.787 . S
C2091 O2066 1.252 . S
C2091 O2069 1.268 . S
C2091 C2084 1.506 . S
H2092 C2075 0.931 . S
H2093 C2076 0.931 . S
H2094 C2077 0.929 . S
H2095 C2078 0.930 . S
H2096 C2086 0.931 . S
H2097 C2087 0.931 . S
H2098 C2088 0.930 . S
H2099 C2089 0.929 . S
Eu2100 N2129 2.600 . S
Eu2100 N2135 2.562 . S
Eu2100 O2144 2.462 . S
Eu2100 O2145 2.373 . S
Eu2100 O2147 2.432 . S
Eu2100 O2148 2.291 . S
Eu2100 O2152 2.335 . S
Eu2100 O2155 2.372 . S
Eu2100 C2164 2.787 . S
C2101 N2102 1.365 . S
C2101 C2104 1.405 . S
C2101 C2108 1.448 . S
N2102 C2101 1.365 . S
N2102 C2105 1.319 . S
N2102 Eu2111 2.600 . S
C2103 C2105 1.397 . S
C2103 C2106 1.367 . S
C2103 H2123 0.931 . S
C2104 C2101 1.405 . S
C2104 C2106 1.403 . S
C2104 C2110 1.439 . S
C2105 N2102 1.319 . S
C2105 C2103 1.397 . S
C2105 H2116 0.930 . S
C2106 C2103 1.367 . S
C2106 C2104 1.403 . S
C2106 H2127 0.929 . S
C2107 C2108 1.430 . S
C2107 C2109 1.387 . S
C2107 C2113 1.404 . S
C2108 C2101 1.448 . S
C2108 C2107 1.430 . S
C2108 N2112 1.351 . S
C2109 C2107 1.387 . S
C2109 C2110 1.374 . S
C2109 H2124 0.931 . S
C2110 C2104 1.439 . S
C2110 C2109 1.374 . S
C2110 H2125 0.931 . S
Eu2111 N2102 2.600 . S
Eu2111 N2112 2.562 . S
Eu2111 O2146 2.335 . S
Eu2111 O2149 2.372 . S
Eu2111 O2150 2.462 . S
Eu2111 O2151 2.373 . S
Eu2111 O2153 2.432 . S
Eu2111 O2154 2.291 . S
Eu2111 C2175 2.787 . S
N2112 C2108 1.351 . S
N2112 Eu2111 2.562 . S
N2112 C2114 1.325 . S
C2113 C2107 1.404 . S
C2113 C2115 1.366 . S
C2113 H2121 0.930 . S
C2114 N2112 1.325 . S
C2114 C2115 1.416 . S
C2114 H2120 0.929 . S
C2115 C2113 1.366 . S
C2115 C2114 1.416 . S
C2115 H2117 0.930 . S
H2116 C2105 0.930 . S
H2117 C2115 0.930 . S
H2118 C2133 0.930 . S
H2119 C2140 0.930 . S
H2120 C2114 0.929 . S
H2121 C2113 0.930 . S
H2122 C2136 0.929 . S
H2123 C2103 0.931 . S
H2124 C2109 0.931 . S
H2125 C2110 0.931 . S
H2126 C2131 0.931 . S
H2127 C2106 0.929 . S
H2128 C2139 0.930 . S
N2129 Eu2100 2.600 . S
N2129 C2130 1.365 . S
N2129 C2133 1.319 . S
C2130 N2129 1.365 . S
C2130 C2132 1.405 . S
C2130 C2138 1.448 . S
C2131 H2126 0.931 . S
C2131 C2133 1.397 . S
C2131 C2134 1.367 . S
C2132 C2130 1.405 . S
C2132 C2134 1.403 . S
C2132 C2165 1.439 . S
C2133 H2118 0.930 . S
C2133 N2129 1.319 . S
C2133 C2131 1.397 . S
C2134 C2131 1.367 . S
C2134 C2132 1.403 . S
C2134 H2141 0.929 . S
N2135 Eu2100 2.562 . S
N2135 C2136 1.325 . S
N2135 C2138 1.351 . S
C2136 H2122 0.929 . S
C2136 N2135 1.325 . S
C2136 C2140 1.416 . S
C2137 C2138 1.430 . S
C2137 C2139 1.404 . S
C2137 C2166 1.387 . S
C2138 C2130 1.448 . S
C2138 N2135 1.351 . S
C2138 C2137 1.430 . S
C2139 H2128 0.930 . S
C2139 C2137 1.404 . S
C2139 C2140 1.366 . S
C2140 H2119 0.930 . S
C2140 C2136 1.416 . S
C2140 C2139 1.366 . S
H2141 C2134 0.929 . S
H2142 C2165 0.931 . S
H2143 C2166 0.931 . S
O2144 Eu2100 2.462 . S
O2144 C2164 1.252 . S
O2145 Eu2100 2.373 . S
O2145 C2156 1.249 . S
O2146 Eu2111 2.335 . S
O2146 C2156 1.264 . S
O2147 Eu2100 2.432 . S
O2147 C2164 1.268 . S
O2148 Eu2100 2.291 . S
O2148 C2163 1.255 . S
O2149 Eu2111 2.372 . S
O2149 C2163 1.257 . S
O2150 Eu2111 2.462 . S
O2150 C2175 1.252 . S
O2151 Eu2111 2.373 . S
O2151 C2167 1.249 . S
O2152 Eu2100 2.335 . S
O2152 C2167 1.264 . S
O2153 Eu2111 2.432 . S
O2153 C2175 1.268 . S
O2154 Eu2111 2.291 . S
O2154 C2174 1.255 . S
O2155 Eu2100 2.372 . S
O2155 C2174 1.257 . S
C2156 O2145 1.249 . S
C2156 O2146 1.264 . S
C2157 C2160 1.382 . S
C2157 C2162 1.390 . S
C2157 C2164 1.506 . S
C2158 C2159 1.398 . S
C2158 C2162 1.392 . S
C2159 C2158 1.398 . S
C2159 C2161 1.372 . S
C2159 H2176 0.931 . S
C2160 C2157 1.382 . S
C2160 C2161 1.390 . S
C2160 H2177 0.931 . S
C2161 C2159 1.372 . S
C2161 C2160 1.390 . S
C2161 H2178 0.929 . S
C2162 C2157 1.390 . S
C2162 C2158 1.392 . S
C2162 H2179 0.930 . S
C2163 O2148 1.255 . S
C2163 O2149 1.257 . S
C2164 Eu2100 2.787 . S
C2164 O2144 1.252 . S
C2164 O2147 1.268 . S
C2164 C2157 1.506 . S
C2165 C2132 1.439 . S
C2165 H2142 0.931 . S
C2165 C2166 1.374 . S
C2166 C2137 1.387 . S
C2166 H2143 0.931 . S
C2166 C2165 1.374 . S
C2167 O2151 1.249 . S
C2167 O2152 1.264 . S
C2168 C2171 1.382 . S
C2168 C2172 1.390 . S
C2168 C2175 1.506 . S
C2169 C2170 1.396 1_556 S
C2169 C2172 1.392 . S
C2170 C2169 1.396 1_554 S
C2170 C2173 1.371 1_554 S
C2170 H2180 0.933 . S
C2171 C2168 1.382 . S
C2171 C2173 1.396 . S
C2171 H2181 0.931 . S
C2172 C2168 1.390 . S
C2172 C2169 1.392 . S
C2172 H2182 0.930 . S
C2173 C2170 1.371 1_556 S
C2173 C2171 1.396 . S
C2173 H2183 0.923 1_556 S
C2174 O2154 1.255 . S
C2174 O2155 1.257 . S
C2175 Eu2111 2.787 . S
C2175 O2150 1.252 . S
C2175 O2153 1.268 . S
C2175 C2168 1.506 . S
H2176 C2159 0.931 . S
H2177 C2160 0.931 . S
H2178 C2161 0.929 . S
H2179 C2162 0.930 . S
H2180 C2170 0.933 . S
H2181 C2171 0.931 . S
H2182 C2172 0.930 . S
H2183 C2173 0.923 1_554 S
Eu2184 N2213 2.600 . S
Eu2184 N2219 2.562 . S
Eu2184 O2228 2.462 . S
Eu2184 O2229 2.373 . S
Eu2184 O2231 2.432 . S
Eu2184 O2232 2.291 . S
Eu2184 O2236 2.335 . S
Eu2184 O2239 2.372 . S
Eu2184 C2248 2.787 . S
C2185 N2186 1.365 . S
C2185 C2188 1.405 . S
C2185 C2192 1.448 . S
N2186 C2185 1.365 . S
N2186 C2189 1.319 . S
N2186 Eu2195 2.600 . S
C2187 C2189 1.397 . S
C2187 C2190 1.367 . S
C2187 H2207 0.931 . S
C2188 C2185 1.405 . S
C2188 C2190 1.403 . S
C2188 C2194 1.439 . S
C2189 N2186 1.319 . S
C2189 C2187 1.397 . S
C2189 H2200 0.930 . S
C2190 C2187 1.367 . S
C2190 C2188 1.403 . S
C2190 H2211 0.929 . S
C2191 C2192 1.430 . S
C2191 C2193 1.387 . S
C2191 C2197 1.404 . S
C2192 C2185 1.448 . S
C2192 C2191 1.430 . S
C2192 N2196 1.351 . S
C2193 C2191 1.387 . S
C2193 C2194 1.374 . S
C2193 H2208 0.931 . S
C2194 C2188 1.439 . S
C2194 C2193 1.374 . S
C2194 H2209 0.931 . S
Eu2195 N2186 2.600 . S
Eu2195 N2196 2.562 . S
Eu2195 O2230 2.335 . S
Eu2195 O2233 2.372 . S
Eu2195 O2234 2.462 . S
Eu2195 O2235 2.373 . S
Eu2195 O2237 2.432 . S
Eu2195 O2238 2.291 . S
Eu2195 C2259 2.787 . S
N2196 C2192 1.351 . S
N2196 Eu2195 2.562 . S
N2196 C2198 1.325 . S
C2197 C2191 1.404 . S
C2197 C2199 1.366 . S
C2197 H2205 0.930 . S
C2198 N2196 1.325 . S
C2198 C2199 1.416 . S
C2198 H2204 0.929 . S
C2199 C2197 1.366 . S
C2199 C2198 1.416 . S
C2199 H2201 0.930 . S
H2200 C2189 0.930 . S
H2201 C2199 0.930 . S
H2202 C2217 0.930 . S
H2203 C2224 0.930 . S
H2204 C2198 0.929 . S
H2205 C2197 0.930 . S
H2206 C2220 0.929 . S
H2207 C2187 0.931 . S
H2208 C2193 0.931 . S
H2209 C2194 0.931 . S
H2210 C2215 0.931 . S
H2211 C2190 0.929 . S
H2212 C2223 0.930 . S
N2213 Eu2184 2.600 . S
N2213 C2214 1.365 . S
N2213 C2217 1.319 . S
C2214 N2213 1.365 . S
C2214 C2216 1.405 . S
C2214 C2222 1.448 . S
C2215 H2210 0.931 . S
C2215 C2217 1.397 . S
C2215 C2218 1.367 . S
C2216 C2214 1.405 . S
C2216 C2218 1.403 . S
C2216 C2249 1.439 . S
C2217 H2202 0.930 . S
C2217 N2213 1.319 . S
C2217 C2215 1.397 . S
C2218 C2215 1.367 . S
C2218 C2216 1.403 . S
C2218 H2225 0.929 . S
N2219 Eu2184 2.562 . S
N2219 C2220 1.325 . S
N2219 C2222 1.351 . S
C2220 H2206 0.929 . S
C2220 N2219 1.325 . S
C2220 C2224 1.416 . S
C2221 C2222 1.430 . S
C2221 C2223 1.404 . S
C2221 C2250 1.387 . S
C2222 C2214 1.448 . S
C2222 N2219 1.351 . S
C2222 C2221 1.430 . S
C2223 H2212 0.930 . S
C2223 C2221 1.404 . S
C2223 C2224 1.366 . S
C2224 H2203 0.930 . S
C2224 C2220 1.416 . S
C2224 C2223 1.366 . S
H2225 C2218 0.929 . S
H2226 C2249 0.931 . S
H2227 C2250 0.931 . S
O2228 Eu2184 2.462 . S
O2228 C2248 1.252 . S
O2229 Eu2184 2.373 . S
O2229 C2240 1.249 . S
O2230 Eu2195 2.335 . S
O2230 C2240 1.264 . S
O2231 Eu2184 2.432 . S
O2231 C2248 1.268 . S
O2232 Eu2184 2.291 . S
O2232 C2247 1.255 . S
O2233 Eu2195 2.372 . S
O2233 C2247 1.257 . S
O2234 Eu2195 2.462 . S
O2234 C2259 1.252 . S
O2235 Eu2195 2.373 . S
O2235 C2251 1.249 . S
O2236 Eu2184 2.335 . S
O2236 C2251 1.264 . S
O2237 Eu2195 2.432 . S
O2237 C2259 1.268 . S
O2238 Eu2195 2.291 . S
O2238 C2258 1.255 . S
O2239 Eu2184 2.372 . S
O2239 C2258 1.257 . S
C2240 O2229 1.249 . S
C2240 O2230 1.264 . S
C2241 C2244 1.382 . S
C2241 C2246 1.390 . S
C2241 C2248 1.506 . S
C2242 C2243 1.398 . S
C2242 C2246 1.392 . S
C2243 C2242 1.398 . S
C2243 C2245 1.372 . S
C2243 H2260 0.931 . S
C2244 C2241 1.382 . S
C2244 C2245 1.390 . S
C2244 H2261 0.931 . S
C2245 C2243 1.372 . S
C2245 C2244 1.390 . S
C2245 H2262 0.929 . S
C2246 C2241 1.390 . S
C2246 C2242 1.392 . S
C2246 H2263 0.930 . S
C2247 O2232 1.255 . S
C2247 O2233 1.257 . S
C2248 Eu2184 2.787 . S
C2248 O2228 1.252 . S
C2248 O2231 1.268 . S
C2248 C2241 1.506 . S
C2249 C2216 1.439 . S
C2249 H2226 0.931 . S
C2249 C2250 1.374 . S
C2250 C2221 1.387 . S
C2250 H2227 0.931 . S
C2250 C2249 1.374 . S
C2251 O2235 1.249 . S
C2251 O2236 1.264 . S
C2252 C2255 1.382 . S
C2252 C2256 1.390 . S
C2252 C2259 1.506 . S
C2253 C2254 1.398 . S
C2253 C2256 1.392 . S
C2254 C2253 1.398 . S
C2254 C2257 1.372 . S
C2254 H2264 0.931 . S
C2255 C2252 1.382 . S
C2255 C2257 1.390 . S
C2255 H2265 0.931 . S
C2256 C2252 1.390 . S
C2256 C2253 1.392 . S
C2256 H2266 0.930 . S
C2257 C2254 1.372 . S
C2257 C2255 1.390 . S
C2257 H2267 0.929 . S
C2258 O2238 1.255 . S
C2258 O2239 1.257 . S
C2259 Eu2195 2.787 . S
C2259 O2234 1.252 . S
C2259 O2237 1.268 . S
C2259 C2252 1.506 . S
H2260 C2243 0.931 . S
H2261 C2244 0.931 . S
H2262 C2245 0.929 . S
H2263 C2246 0.930 . S
H2264 C2254 0.931 . S
H2265 C2255 0.931 . S
H2266 C2256 0.930 . S
H2267 C2257 0.929 . S
Eu2268 N2297 2.600 . S
Eu2268 N2303 2.562 . S
Eu2268 O2312 2.462 . S
Eu2268 O2313 2.373 1_655 S
Eu2268 O2315 2.432 . S
Eu2268 O2316 2.291 . S
Eu2268 O2320 2.335 1_655 S
Eu2268 O2323 2.372 1_655 S
Eu2268 C2332 2.787 . S
C2269 N2270 1.365 . S
C2269 C2272 1.405 . S
C2269 C2276 1.448 . S
N2270 C2269 1.365 . S
N2270 C2273 1.319 . S
N2270 Eu2279 2.600 . S
C2271 C2273 1.397 . S
C2271 C2274 1.367 . S
C2271 H2291 0.931 . S
C2272 C2269 1.405 . S
C2272 C2274 1.403 . S
C2272 C2278 1.439 . S
C2273 N2270 1.319 . S
C2273 C2271 1.397 . S
C2273 H2284 0.930 . S
C2274 C2271 1.367 . S
C2274 C2272 1.403 . S
C2274 H2295 0.929 . S
C2275 C2276 1.430 . S
C2275 C2277 1.387 . S
C2275 C2281 1.404 . S
C2276 C2269 1.448 . S
C2276 C2275 1.430 . S
C2276 N2280 1.351 . S
C2277 C2275 1.387 . S
C2277 C2278 1.374 . S
C2277 H2292 0.931 . S
C2278 C2272 1.439 . S
C2278 C2277 1.374 . S
C2278 H2293 0.931 . S
Eu2279 N2270 2.600 . S
Eu2279 N2280 2.562 . S
Eu2279 O2314 2.335 . S
Eu2279 O2317 2.372 . S
Eu2279 O2318 2.462 . S
Eu2279 O2319 2.373 . S
Eu2279 O2321 2.432 . S
Eu2279 O2322 2.291 . S
Eu2279 C2343 2.787 . S
N2280 C2276 1.351 . S
N2280 Eu2279 2.562 . S
N2280 C2282 1.325 . S
C2281 C2275 1.404 . S
C2281 C2283 1.366 . S
C2281 H2289 0.930 . S
C2282 N2280 1.325 . S
C2282 C2283 1.416 . S
C2282 H2288 0.929 . S
C2283 C2281 1.366 . S
C2283 C2282 1.416 . S
C2283 H2285 0.930 . S
H2284 C2273 0.930 . S
H2285 C2283 0.930 . S
H2286 C2301 0.930 1_455 S
H2287 C2308 0.930 . S
H2288 C2282 0.929 . S
H2289 C2281 0.930 . S
H2290 C2304 0.929 . S
H2291 C2271 0.931 . S
H2292 C2277 0.931 . S
H2293 C2278 0.931 . S
H2294 C2299 0.931 . S
H2295 C2274 0.929 . S
H2296 C2307 0.930 . S
N2297 Eu2268 2.600 . S
N2297 C2298 1.365 . S
N2297 C2301 1.319 . S
C2298 N2297 1.365 . S
C2298 C2300 1.405 . S
C2298 C2306 1.448 . S
C2299 H2294 0.931 . S
C2299 C2301 1.397 . S
C2299 C2302 1.367 . S
C2300 C2298 1.405 . S
C2300 C2302 1.403 . S
C2300 C2333 1.439 . S
C2301 H2286 0.930 1_655 S
C2301 N2297 1.319 . S
C2301 C2299 1.397 . S
C2302 C2299 1.367 . S
C2302 C2300 1.403 . S
C2302 H2309 0.929 . S
N2303 Eu2268 2.562 . S
N2303 C2304 1.325 . S
N2303 C2306 1.351 . S
C2304 H2290 0.929 . S
C2304 N2303 1.325 . S
C2304 C2308 1.416 . S
C2305 C2306 1.430 . S
C2305 C2307 1.404 . S
C2305 C2334 1.387 . S
C2306 C2298 1.448 . S
C2306 N2303 1.351 . S
C2306 C2305 1.430 . S
C2307 H2296 0.930 . S
C2307 C2305 1.404 . S
C2307 C2308 1.366 . S
C2308 H2287 0.930 . S
C2308 C2304 1.416 . S
C2308 C2307 1.366 . S
H2309 C2302 0.929 . S
H2310 C2333 0.931 . S
H2311 C2334 0.931 . S
O2312 Eu2268 2.462 . S
O2312 C2332 1.252 . S
O2313 Eu2268 2.373 1_455 S
O2313 C2324 1.249 . S
O2314 Eu2279 2.335 . S
O2314 C2324 1.264 . S
O2315 Eu2268 2.432 . S
O2315 C2332 1.268 . S
O2316 Eu2268 2.291 . S
O2316 C2331 1.255 1_655 S
O2317 Eu2279 2.372 . S
O2317 C2331 1.257 . S
O2318 Eu2279 2.462 . S
O2318 C2343 1.252 . S
O2319 Eu2279 2.373 . S
O2319 C2335 1.249 . S
O2320 Eu2268 2.335 1_455 S
O2320 C2335 1.264 . S
O2321 Eu2279 2.432 . S
O2321 C2343 1.268 . S
O2322 Eu2279 2.291 . S
O2322 C2342 1.255 . S
O2323 Eu2268 2.372 1_455 S
O2323 C2342 1.257 . S
C2324 O2313 1.249 . S
C2324 O2314 1.264 . S
C2325 C2328 1.382 . S
C2325 C2330 1.390 . S
C2325 C2332 1.506 . S
C2326 C2327 1.398 . S
C2326 C2330 1.392 . S
C2327 C2326 1.398 . S
C2327 C2329 1.372 . S
C2327 H2344 0.931 . S
C2328 C2325 1.382 . S
C2328 C2329 1.390 . S
C2328 H2345 0.931 . S
C2329 C2327 1.372 . S
C2329 C2328 1.390 . S
C2329 H2346 0.929 . S
C2330 C2325 1.390 . S
C2330 C2326 1.392 . S
C2330 H2347 0.930 . S
C2331 O2316 1.255 1_455 S
C2331 O2317 1.257 . S
C2332 Eu2268 2.787 . S
C2332 O2312 1.252 . S
C2332 O2315 1.268 . S
C2332 C2325 1.506 . S
C2333 C2300 1.439 . S
C2333 H2310 0.931 . S
C2333 C2334 1.374 . S
C2334 C2305 1.387 . S
C2334 H2311 0.931 . S
C2334 C2333 1.374 . S
C2335 O2319 1.249 . S
C2335 O2320 1.264 . S
C2336 C2339 1.382 . S
C2336 C2340 1.390 . S
C2336 C2343 1.506 . S
C2337 C2338 1.398 . S
C2337 C2340 1.392 . S
C2338 C2337 1.398 . S
C2338 C2341 1.372 . S
C2338 H2348 0.931 . S
C2339 C2336 1.382 . S
C2339 C2341 1.390 . S
C2339 H2349 0.931 . S
C2340 C2336 1.390 . S
C2340 C2337 1.392 . S
C2340 H2350 0.930 . S
C2341 C2338 1.372 . S
C2341 C2339 1.390 . S
C2341 H2351 0.929 . S
C2342 O2322 1.255 . S
C2342 O2323 1.257 . S
C2343 Eu2279 2.787 . S
C2343 O2318 1.252 . S
C2343 O2321 1.268 . S
C2343 C2336 1.506 . S
H2344 C2327 0.931 . S
H2345 C2328 0.931 . S
H2346 C2329 0.929 . S
H2347 C2330 0.930 . S
H2348 C2338 0.931 . S
H2349 C2339 0.931 . S
H2350 C2340 0.930 . S
H2351 C2341 0.929 . S
Eu2352 N2381 2.600 . S
Eu2352 N2387 2.562 . S
Eu2352 O2396 2.462 . S
Eu2352 O2397 2.373 . S
Eu2352 O2399 2.432 . S
Eu2352 O2400 2.291 . S
Eu2352 O2404 2.335 . S
Eu2352 O2407 2.372 . S
Eu2352 C2416 2.787 . S
C2353 N2354 1.365 . S
C2353 C2356 1.405 . S
C2353 C2360 1.448 . S
N2354 C2353 1.365 . S
N2354 C2357 1.319 . S
N2354 Eu2363 2.600 . S
C2355 C2357 1.397 . S
C2355 C2358 1.367 . S
C2355 H2375 0.931 . S
C2356 C2353 1.405 . S
C2356 C2358 1.403 . S
C2356 C2362 1.439 . S
C2357 N2354 1.319 . S
C2357 C2355 1.397 . S
C2357 H2368 0.930 . S
C2358 C2355 1.367 . S
C2358 C2356 1.403 . S
C2358 H2379 0.929 . S
C2359 C2360 1.430 . S
C2359 C2361 1.387 . S
C2359 C2365 1.404 . S
C2360 C2353 1.448 . S
C2360 C2359 1.430 . S
C2360 N2364 1.351 . S
C2361 C2359 1.387 . S
C2361 C2362 1.374 . S
C2361 H2376 0.931 . S
C2362 C2356 1.439 . S
C2362 C2361 1.374 . S
C2362 H2377 0.931 . S
Eu2363 N2354 2.600 . S
Eu2363 N2364 2.562 . S
Eu2363 O2398 2.335 . S
Eu2363 O2401 2.372 . S
Eu2363 O2402 2.462 . S
Eu2363 O2403 2.373 . S
Eu2363 O2405 2.432 . S
Eu2363 O2406 2.291 . S
Eu2363 C2427 2.787 . S
N2364 C2360 1.351 . S
N2364 Eu2363 2.562 . S
N2364 C2366 1.325 . S
C2365 C2359 1.404 . S
C2365 C2367 1.366 . S
C2365 H2373 0.930 . S
C2366 N2364 1.325 . S
C2366 C2367 1.416 . S
C2366 H2372 0.929 . S
C2367 C2365 1.366 . S
C2367 C2366 1.416 . S
C2367 H2369 0.930 . S
H2368 C2357 0.930 . S
H2369 C2367 0.930 . S
H2370 C2385 0.930 . S
H2371 C2392 0.930 . S
H2372 C2366 0.929 . S
H2373 C2365 0.930 . S
H2374 C2388 0.929 . S
H2375 C2355 0.931 . S
H2376 C2361 0.931 . S
H2377 C2362 0.931 . S
H2378 C2383 0.931 . S
H2379 C2358 0.929 . S
H2380 C2391 0.930 . S
N2381 Eu2352 2.600 . S
N2381 C2382 1.365 . S
N2381 C2385 1.319 . S
C2382 N2381 1.365 . S
C2382 C2384 1.405 . S
C2382 C2390 1.448 . S
C2383 H2378 0.931 . S
C2383 C2385 1.397 . S
C2383 C2386 1.367 . S
C2384 C2382 1.405 . S
C2384 C2386 1.403 . S
C2384 C2417 1.439 . S
C2385 H2370 0.930 . S
C2385 N2381 1.319 . S
C2385 C2383 1.397 . S
C2386 C2383 1.367 . S
C2386 C2384 1.403 . S
C2386 H2393 0.929 . S
N2387 Eu2352 2.562 . S
N2387 C2388 1.325 . S
N2387 C2390 1.351 . S
C2388 H2374 0.929 . S
C2388 N2387 1.325 . S
C2388 C2392 1.416 . S
C2389 C2390 1.430 . S
C2389 C2391 1.404 . S
C2389 C2418 1.387 . S
C2390 C2382 1.448 . S
C2390 N2387 1.351 . S
C2390 C2389 1.430 . S
C2391 H2380 0.930 . S
C2391 C2389 1.404 . S
C2391 C2392 1.366 . S
C2392 H2371 0.930 . S
C2392 C2388 1.416 . S
C2392 C2391 1.366 . S
H2393 C2386 0.929 . S
H2394 C2417 0.931 . S
H2395 C2418 0.931 . S
O2396 Eu2352 2.462 . S
O2396 C2416 1.252 . S
O2397 Eu2352 2.373 . S
O2397 C2408 1.249 . S
O2398 Eu2363 2.335 . S
O2398 C2408 1.264 . S
O2399 Eu2352 2.432 . S
O2399 C2416 1.268 . S
O2400 Eu2352 2.291 . S
O2400 C2415 1.255 . S
O2401 Eu2363 2.372 . S
O2401 C2415 1.257 . S
O2402 Eu2363 2.462 . S
O2402 C2427 1.252 . S
O2403 Eu2363 2.373 . S
O2403 C2419 1.249 . S
O2404 Eu2352 2.335 . S
O2404 C2419 1.264 . S
O2405 Eu2363 2.432 . S
O2405 C2427 1.268 . S
O2406 Eu2363 2.291 . S
O2406 C2426 1.255 . S
O2407 Eu2352 2.372 . S
O2407 C2426 1.257 . S
C2408 O2397 1.249 . S
C2408 O2398 1.264 . S
C2409 C2412 1.382 . S
C2409 C2414 1.390 . S
C2409 C2416 1.506 . S
C2410 C2411 1.398 . S
C2410 C2414 1.392 . S
C2411 C2410 1.398 . S
C2411 C2413 1.372 . S
C2411 H2428 0.931 . S
C2412 C2409 1.382 . S
C2412 C2413 1.390 . S
C2412 H2429 0.931 . S
C2413 C2411 1.372 . S
C2413 C2412 1.390 . S
C2413 H2430 0.929 . S
C2414 C2409 1.390 . S
C2414 C2410 1.392 . S
C2414 H2431 0.930 . S
C2415 O2400 1.255 . S
C2415 O2401 1.257 . S
C2416 Eu2352 2.787 . S
C2416 O2396 1.252 . S
C2416 O2399 1.268 . S
C2416 C2409 1.506 . S
C2417 C2384 1.439 . S
C2417 H2394 0.931 . S
C2417 C2418 1.374 . S
C2418 C2389 1.387 . S
C2418 H2395 0.931 . S
C2418 C2417 1.374 . S
C2419 O2403 1.249 . S
C2419 O2404 1.264 . S
C2420 C2423 1.382 . S
C2420 C2424 1.390 . S
C2420 C2427 1.506 . S
C2421 C2422 1.398 . S
C2421 C2424 1.392 . S
C2422 C2421 1.398 . S
C2422 C2425 1.372 . S
C2422 H2432 0.931 . S
C2423 C2420 1.382 . S
C2423 C2425 1.390 . S
C2423 H2433 0.931 . S
C2424 C2420 1.390 . S
C2424 C2421 1.392 . S
C2424 H2434 0.930 . S
C2425 C2422 1.372 . S
C2425 C2423 1.390 . S
C2425 H2435 0.929 . S
C2426 O2406 1.255 . S
C2426 O2407 1.257 . S
C2427 Eu2363 2.787 . S
C2427 O2402 1.252 . S
C2427 O2405 1.268 . S
C2427 C2420 1.506 . S
H2428 C2411 0.931 . S
H2429 C2412 0.931 . S
H2430 C2413 0.929 . S
H2431 C2414 0.930 . S
H2432 C2422 0.931 . S
H2433 C2423 0.931 . S
H2434 C2424 0.930 . S
H2435 C2425 0.929 . S
Eu2436 N2465 2.600 . S
Eu2436 N2471 2.562 . S
Eu2436 O2480 2.462 . S
Eu2436 O2481 2.373 1_655 S
Eu2436 O2483 2.432 . S
Eu2436 O2484 2.291 . S
Eu2436 O2488 2.335 1_655 S
Eu2436 O2491 2.372 1_655 S
Eu2436 C2500 2.787 . S
C2437 N2438 1.365 . S
C2437 C2440 1.405 . S
C2437 C2444 1.448 . S
N2438 C2437 1.365 . S
N2438 C2441 1.319 . S
N2438 Eu2447 2.600 . S
C2439 C2441 1.397 . S
C2439 C2442 1.367 . S
C2439 H2459 0.931 . S
C2440 C2437 1.405 . S
C2440 C2442 1.403 . S
C2440 C2446 1.439 . S
C2441 N2438 1.319 . S
C2441 C2439 1.397 . S
C2441 H2452 0.930 . S
C2442 C2439 1.367 . S
C2442 C2440 1.403 . S
C2442 H2463 0.929 . S
C2443 C2444 1.430 . S
C2443 C2445 1.387 . S
C2443 C2449 1.404 . S
C2444 C2437 1.448 . S
C2444 C2443 1.430 . S
C2444 N2448 1.351 . S
C2445 C2443 1.387 . S
C2445 C2446 1.374 . S
C2445 H2460 0.931 . S
C2446 C2440 1.439 . S
C2446 C2445 1.374 . S
C2446 H2461 0.931 . S
Eu2447 N2438 2.600 . S
Eu2447 N2448 2.562 . S
Eu2447 O2482 2.335 . S
Eu2447 O2485 2.372 . S
Eu2447 O2486 2.462 . S
Eu2447 O2487 2.373 . S
Eu2447 O2489 2.432 . S
Eu2447 O2490 2.291 . S
Eu2447 C2511 2.787 . S
N2448 C2444 1.351 . S
N2448 Eu2447 2.562 . S
N2448 C2450 1.325 . S
C2449 C2443 1.404 . S
C2449 C2451 1.366 . S
C2449 H2457 0.930 . S
C2450 N2448 1.325 . S
C2450 C2451 1.416 . S
C2450 H2456 0.929 . S
C2451 C2449 1.366 . S
C2451 C2450 1.416 . S
C2451 H2453 0.930 . S
H2452 C2441 0.930 . S
H2453 C2451 0.930 . S
H2454 C2469 0.930 1_455 S
H2455 C2476 0.930 . S
H2456 C2450 0.929 . S
H2457 C2449 0.930 . S
H2458 C2472 0.929 . S
H2459 C2439 0.931 . S
H2460 C2445 0.931 . S
H2461 C2446 0.931 . S
H2462 C2467 0.931 . S
H2463 C2442 0.929 . S
H2464 C2475 0.930 . S
N2465 Eu2436 2.600 . S
N2465 C2466 1.365 . S
N2465 C2469 1.319 . S
C2466 N2465 1.365 . S
C2466 C2468 1.405 . S
C2466 C2474 1.448 . S
C2467 H2462 0.931 . S
C2467 C2469 1.397 . S
C2467 C2470 1.367 . S
C2468 C2466 1.405 . S
C2468 C2470 1.403 . S
C2468 C2501 1.439 . S
C2469 H2454 0.930 1_655 S
C2469 N2465 1.319 . S
C2469 C2467 1.397 . S
C2470 C2467 1.367 . S
C2470 C2468 1.403 . S
C2470 H2477 0.929 . S
N2471 Eu2436 2.562 . S
N2471 C2472 1.325 . S
N2471 C2474 1.351 . S
C2472 H2458 0.929 . S
C2472 N2471 1.325 . S
C2472 C2476 1.416 . S
C2473 C2474 1.430 . S
C2473 C2475 1.404 . S
C2473 C2502 1.387 . S
C2474 C2466 1.448 . S
C2474 N2471 1.351 . S
C2474 C2473 1.430 . S
C2475 H2464 0.930 . S
C2475 C2473 1.404 . S
C2475 C2476 1.366 . S
C2476 H2455 0.930 . S
C2476 C2472 1.416 . S
C2476 C2475 1.366 . S
H2477 C2470 0.929 . S
H2478 C2501 0.931 . S
H2479 C2502 0.931 . S
O2480 Eu2436 2.462 . S
O2480 C2500 1.252 . S
O2481 Eu2436 2.373 1_455 S
O2481 C2492 1.249 . S
O2482 Eu2447 2.335 . S
O2482 C2492 1.264 . S
O2483 Eu2436 2.432 . S
O2483 C2500 1.268 . S
O2484 Eu2436 2.291 . S
O2484 C2499 1.255 1_655 S
O2485 Eu2447 2.372 . S
O2485 C2499 1.257 . S
O2486 Eu2447 2.462 . S
O2486 C2511 1.252 . S
O2487 Eu2447 2.373 . S
O2487 C2503 1.249 . S
O2488 Eu2436 2.335 1_455 S
O2488 C2503 1.264 . S
O2489 Eu2447 2.432 . S
O2489 C2511 1.268 . S
O2490 Eu2447 2.291 . S
O2490 C2510 1.255 . S
O2491 Eu2436 2.372 1_455 S
O2491 C2510 1.257 . S
C2492 O2481 1.249 . S
C2492 O2482 1.264 . S
C2493 C2496 1.382 . S
C2493 C2498 1.390 . S
C2493 C2500 1.506 . S
C2494 C2495 1.398 . S
C2494 C2498 1.392 . S
C2495 C2494 1.398 . S
C2495 C2497 1.372 . S
C2495 H2512 0.931 . S
C2496 C2493 1.382 . S
C2496 C2497 1.390 . S
C2496 H2513 0.931 . S
C2497 C2495 1.372 . S
C2497 C2496 1.390 . S
C2497 H2514 0.929 . S
C2498 C2493 1.390 . S
C2498 C2494 1.392 . S
C2498 H2515 0.930 . S
C2499 O2484 1.255 1_455 S
C2499 O2485 1.257 . S
C2500 Eu2436 2.787 . S
C2500 O2480 1.252 . S
C2500 O2483 1.268 . S
C2500 C2493 1.506 . S
C2501 C2468 1.439 . S
C2501 H2478 0.931 . S
C2501 C2502 1.374 . S
C2502 C2473 1.387 . S
C2502 H2479 0.931 . S
C2502 C2501 1.374 . S
C2503 O2487 1.249 . S
C2503 O2488 1.264 . S
C2504 C2507 1.382 . S
C2504 C2508 1.390 . S
C2504 C2511 1.506 . S
C2505 C2506 1.396 1_554 S
C2505 C2508 1.392 . S
C2506 C2505 1.396 1_556 S
C2506 C2509 1.371 1_556 S
C2506 H2516 0.933 . S
C2507 C2504 1.382 . S
C2507 C2509 1.396 . S
C2507 H2517 0.931 . S
C2508 C2504 1.390 . S
C2508 C2505 1.392 . S
C2508 H2518 0.930 . S
C2509 C2506 1.371 1_554 S
C2509 C2507 1.396 . S
C2509 H2519 0.923 1_554 S
C2510 O2490 1.255 . S
C2510 O2491 1.257 . S
C2511 Eu2447 2.787 . S
C2511 O2486 1.252 . S
C2511 O2489 1.268 . S
C2511 C2504 1.506 . S
H2512 C2495 0.931 . S
H2513 C2496 0.931 . S
H2514 C2497 0.929 . S
H2515 C2498 0.930 . S
H2516 C2506 0.933 . S
H2517 C2507 0.931 . S
H2518 C2508 0.930 . S
H2519 C2509 0.923 1_556 S
Eu2520 N2549 2.600 . S
Eu2520 N2555 2.562 . S
Eu2520 O2564 2.462 . S
Eu2520 O2565 2.373 . S
Eu2520 O2567 2.432 . S
Eu2520 O2568 2.291 . S
Eu2520 O2572 2.335 . S
Eu2520 O2575 2.372 . S
Eu2520 C2584 2.787 . S
C2521 N2522 1.365 . S
C2521 C2524 1.405 . S
C2521 C2528 1.448 . S
N2522 C2521 1.365 . S
N2522 C2525 1.319 . S
N2522 Eu2531 2.600 . S
C2523 C2525 1.397 . S
C2523 C2526 1.367 . S
C2523 H2543 0.931 . S
C2524 C2521 1.405 . S
C2524 C2526 1.403 . S
C2524 C2530 1.439 . S
C2525 N2522 1.319 . S
C2525 C2523 1.397 . S
C2525 H2536 0.930 . S
C2526 C2523 1.367 . S
C2526 C2524 1.403 . S
C2526 H2547 0.929 . S
C2527 C2528 1.430 . S
C2527 C2529 1.387 . S
C2527 C2533 1.404 . S
C2528 C2521 1.448 . S
C2528 C2527 1.430 . S
C2528 N2532 1.351 . S
C2529 C2527 1.387 . S
C2529 C2530 1.374 . S
C2529 H2544 0.931 . S
C2530 C2524 1.439 . S
C2530 C2529 1.374 . S
C2530 H2545 0.931 . S
Eu2531 N2522 2.600 . S
Eu2531 N2532 2.562 . S
Eu2531 O2566 2.335 . S
Eu2531 O2569 2.372 . S
Eu2531 O2570 2.462 . S
Eu2531 O2571 2.373 . S
Eu2531 O2573 2.432 . S
Eu2531 O2574 2.291 . S
Eu2531 C2595 2.787 . S
N2532 C2528 1.351 . S
N2532 Eu2531 2.562 . S
N2532 C2534 1.325 . S
C2533 C2527 1.404 . S
C2533 C2535 1.366 . S
C2533 H2541 0.930 . S
C2534 N2532 1.325 . S
C2534 C2535 1.416 . S
C2534 H2540 0.929 . S
C2535 C2533 1.366 . S
C2535 C2534 1.416 . S
C2535 H2537 0.930 . S
H2536 C2525 0.930 . S
H2537 C2535 0.930 . S
H2538 C2553 0.930 . S
H2539 C2560 0.930 . S
H2540 C2534 0.929 . S
H2541 C2533 0.930 . S
H2542 C2556 0.929 . S
H2543 C2523 0.931 . S
H2544 C2529 0.931 . S
H2545 C2530 0.931 . S
H2546 C2551 0.931 . S
H2547 C2526 0.929 . S
H2548 C2559 0.930 . S
N2549 Eu2520 2.600 . S
N2549 C2550 1.365 . S
N2549 C2553 1.319 . S
C2550 N2549 1.365 . S
C2550 C2552 1.405 . S
C2550 C2558 1.448 . S
C2551 H2546 0.931 . S
C2551 C2553 1.397 . S
C2551 C2554 1.367 . S
C2552 C2550 1.405 . S
C2552 C2554 1.403 . S
C2552 C2585 1.439 . S
C2553 H2538 0.930 . S
C2553 N2549 1.319 . S
C2553 C2551 1.397 . S
C2554 C2551 1.367 . S
C2554 C2552 1.403 . S
C2554 H2561 0.929 . S
N2555 Eu2520 2.562 . S
N2555 C2556 1.325 . S
N2555 C2558 1.351 . S
C2556 H2542 0.929 . S
C2556 N2555 1.325 . S
C2556 C2560 1.416 . S
C2557 C2558 1.430 . S
C2557 C2559 1.404 . S
C2557 C2586 1.387 . S
C2558 C2550 1.448 . S
C2558 N2555 1.351 . S
C2558 C2557 1.430 . S
C2559 H2548 0.930 . S
C2559 C2557 1.404 . S
C2559 C2560 1.366 . S
C2560 H2539 0.930 . S
C2560 C2556 1.416 . S
C2560 C2559 1.366 . S
H2561 C2554 0.929 . S
H2562 C2585 0.931 . S
H2563 C2586 0.931 . S
O2564 Eu2520 2.462 . S
O2564 C2584 1.252 . S
O2565 Eu2520 2.373 . S
O2565 C2576 1.249 . S
O2566 Eu2531 2.335 . S
O2566 C2576 1.264 . S
O2567 Eu2520 2.432 . S
O2567 C2584 1.268 . S
O2568 Eu2520 2.291 . S
O2568 C2583 1.255 . S
O2569 Eu2531 2.372 . S
O2569 C2583 1.257 . S
O2570 Eu2531 2.462 . S
O2570 C2595 1.252 . S
O2571 Eu2531 2.373 . S
O2571 C2587 1.249 . S
O2572 Eu2520 2.335 . S
O2572 C2587 1.264 . S
O2573 Eu2531 2.432 . S
O2573 C2595 1.268 . S
O2574 Eu2531 2.291 . S
O2574 C2594 1.255 . S
O2575 Eu2520 2.372 . S
O2575 C2594 1.257 . S
C2576 O2565 1.249 . S
C2576 O2566 1.264 . S
C2577 C2580 1.382 . S
C2577 C2582 1.390 . S
C2577 C2584 1.506 . S
C2578 C2579 1.398 . S
C2578 C2582 1.392 . S
C2579 C2578 1.398 . S
C2579 C2581 1.372 . S
C2579 H2596 0.931 . S
C2580 C2577 1.382 . S
C2580 C2581 1.390 . S
C2580 H2597 0.931 . S
C2581 C2579 1.372 . S
C2581 C2580 1.390 . S
C2581 H2598 0.929 . S
C2582 C2577 1.390 . S
C2582 C2578 1.392 . S
C2582 H2599 0.930 . S
C2583 O2568 1.255 . S
C2583 O2569 1.257 . S
C2584 Eu2520 2.787 . S
C2584 O2564 1.252 . S
C2584 O2567 1.268 . S
C2584 C2577 1.506 . S
C2585 C2552 1.439 . S
C2585 H2562 0.931 . S
C2585 C2586 1.374 . S
C2586 C2557 1.387 . S
C2586 H2563 0.931 . S
C2586 C2585 1.374 . S
C2587 O2571 1.249 . S
C2587 O2572 1.264 . S
C2588 C2591 1.382 . S
C2588 C2592 1.390 . S
C2588 C2595 1.506 . S
C2589 C2590 1.398 . S
C2589 C2592 1.392 . S
C2590 C2589 1.398 . S
C2590 C2593 1.372 . S
C2590 H2600 0.931 . S
C2591 C2588 1.382 . S
C2591 C2593 1.390 . S
C2591 H2601 0.931 . S
C2592 C2588 1.390 . S
C2592 C2589 1.392 . S
C2592 H2602 0.930 . S
C2593 C2590 1.372 . S
C2593 C2591 1.390 . S
C2593 H2603 0.929 . S
C2594 O2574 1.255 . S
C2594 O2575 1.257 . S
C2595 Eu2531 2.787 . S
C2595 O2570 1.252 . S
C2595 O2573 1.268 . S
C2595 C2588 1.506 . S
H2596 C2579 0.931 . S
H2597 C2580 0.931 . S
H2598 C2581 0.929 . S
H2599 C2582 0.930 . S
H2600 C2590 0.931 . S
H2601 C2591 0.931 . S
H2602 C2592 0.930 . S
H2603 C2593 0.929 . S
Eu2604 N2633 2.600 . S
Eu2604 N2639 2.562 . S
Eu2604 O2648 2.462 . S
Eu2604 O2649 2.373 . S
Eu2604 O2651 2.432 . S
Eu2604 O2652 2.291 . S
Eu2604 O2656 2.335 . S
Eu2604 O2659 2.372 . S
Eu2604 C2668 2.787 . S
C2605 N2606 1.365 . S
C2605 C2608 1.405 . S
C2605 C2612 1.448 . S
N2606 C2605 1.365 . S
N2606 C2609 1.319 . S
N2606 Eu2615 2.600 . S
C2607 C2609 1.397 . S
C2607 C2610 1.367 . S
C2607 H2627 0.931 . S
C2608 C2605 1.405 . S
C2608 C2610 1.403 . S
C2608 C2614 1.439 . S
C2609 N2606 1.319 . S
C2609 C2607 1.397 . S
C2609 H2620 0.930 . S
C2610 C2607 1.367 . S
C2610 C2608 1.403 . S
C2610 H2631 0.929 . S
C2611 C2612 1.430 . S
C2611 C2613 1.387 . S
C2611 C2617 1.404 . S
C2612 C2605 1.448 . S
C2612 C2611 1.430 . S
C2612 N2616 1.351 . S
C2613 C2611 1.387 . S
C2613 C2614 1.374 . S
C2613 H2628 0.931 . S
C2614 C2608 1.439 . S
C2614 C2613 1.374 . S
C2614 H2629 0.931 . S
Eu2615 N2606 2.600 . S
Eu2615 N2616 2.562 . S
Eu2615 O2650 2.335 . S
Eu2615 O2653 2.372 . S
Eu2615 O2654 2.462 . S
Eu2615 O2655 2.373 . S
Eu2615 O2657 2.432 . S
Eu2615 O2658 2.291 . S
Eu2615 C2679 2.787 . S
N2616 C2612 1.351 . S
N2616 Eu2615 2.562 . S
N2616 C2618 1.325 . S
C2617 C2611 1.404 . S
C2617 C2619 1.366 . S
C2617 H2625 0.930 . S
C2618 N2616 1.325 . S
C2618 C2619 1.416 . S
C2618 H2624 0.929 . S
C2619 C2617 1.366 . S
C2619 C2618 1.416 . S
C2619 H2621 0.930 . S
H2620 C2609 0.930 . S
H2621 C2619 0.930 . S
H2622 C2637 0.930 . S
H2623 C2644 0.930 . S
H2624 C2618 0.929 . S
H2625 C2617 0.930 . S
H2626 C2640 0.929 . S
H2627 C2607 0.931 . S
H2628 C2613 0.931 . S
H2629 C2614 0.931 . S
H2630 C2635 0.931 . S
H2631 C2610 0.929 . S
H2632 C2643 0.930 . S
N2633 Eu2604 2.600 . S
N2633 C2634 1.365 . S
N2633 C2637 1.319 . S
C2634 N2633 1.365 . S
C2634 C2636 1.405 . S
C2634 C2642 1.448 . S
C2635 H2630 0.931 . S
C2635 C2637 1.397 . S
C2635 C2638 1.367 . S
C2636 C2634 1.405 . S
C2636 C2638 1.403 . S
C2636 C2669 1.439 . S
C2637 H2622 0.930 . S
C2637 N2633 1.319 . S
C2637 C2635 1.397 . S
C2638 C2635 1.367 . S
C2638 C2636 1.403 . S
C2638 H2645 0.929 . S
N2639 Eu2604 2.562 . S
N2639 C2640 1.325 . S
N2639 C2642 1.351 . S
C2640 H2626 0.929 . S
C2640 N2639 1.325 . S
C2640 C2644 1.416 . S
C2641 C2642 1.430 . S
C2641 C2643 1.404 . S
C2641 C2670 1.387 . S
C2642 C2634 1.448 . S
C2642 N2639 1.351 . S
C2642 C2641 1.430 . S
C2643 H2632 0.930 . S
C2643 C2641 1.404 . S
C2643 C2644 1.366 . S
C2644 H2623 0.930 . S
C2644 C2640 1.416 . S
C2644 C2643 1.366 . S
H2645 C2638 0.929 . S
H2646 C2669 0.931 . S
H2647 C2670 0.931 . S
O2648 Eu2604 2.462 . S
O2648 C2668 1.252 . S
O2649 Eu2604 2.373 . S
O2649 C2660 1.249 . S
O2650 Eu2615 2.335 . S
O2650 C2660 1.264 . S
O2651 Eu2604 2.432 . S
O2651 C2668 1.268 . S
O2652 Eu2604 2.291 . S
O2652 C2667 1.255 . S
O2653 Eu2615 2.372 . S
O2653 C2667 1.257 . S
O2654 Eu2615 2.462 . S
O2654 C2679 1.252 . S
O2655 Eu2615 2.373 . S
O2655 C2671 1.249 . S
O2656 Eu2604 2.335 . S
O2656 C2671 1.264 . S
O2657 Eu2615 2.432 . S
O2657 C2679 1.268 . S
O2658 Eu2615 2.291 . S
O2658 C2678 1.255 . S
O2659 Eu2604 2.372 . S
O2659 C2678 1.257 . S
C2660 O2649 1.249 . S
C2660 O2650 1.264 . S
C2661 C2664 1.382 . S
C2661 C2666 1.390 . S
C2661 C2668 1.506 . S
C2662 C2663 1.398 . S
C2662 C2666 1.392 . S
C2663 C2662 1.398 . S
C2663 C2665 1.372 . S
C2663 H2680 0.931 . S
C2664 C2661 1.382 . S
C2664 C2665 1.390 . S
C2664 H2681 0.931 . S
C2665 C2663 1.372 . S
C2665 C2664 1.390 . S
C2665 H2682 0.929 . S
C2666 C2661 1.390 . S
C2666 C2662 1.392 . S
C2666 H2683 0.930 . S
C2667 O2652 1.255 . S
C2667 O2653 1.257 . S
C2668 Eu2604 2.787 . S
C2668 O2648 1.252 . S
C2668 O2651 1.268 . S
C2668 C2661 1.506 . S
C2669 C2636 1.439 . S
C2669 H2646 0.931 . S
C2669 C2670 1.374 . S
C2670 C2641 1.387 . S
C2670 H2647 0.931 . S
C2670 C2669 1.374 . S
C2671 O2655 1.249 . S
C2671 O2656 1.264 . S
C2672 C2675 1.382 . S
C2672 C2676 1.390 . S
C2672 C2679 1.506 . S
C2673 C2674 1.398 . S
C2673 C2676 1.392 . S
C2674 C2673 1.398 . S
C2674 C2677 1.372 . S
C2674 H2684 0.931 . S
C2675 C2672 1.382 . S
C2675 C2677 1.390 . S
C2675 H2685 0.931 . S
C2676 C2672 1.390 . S
C2676 C2673 1.392 . S
C2676 H2686 0.930 . S
C2677 C2674 1.372 . S
C2677 C2675 1.390 . S
C2677 H2687 0.929 . S
C2678 O2658 1.255 . S
C2678 O2659 1.257 . S
C2679 Eu2615 2.787 . S
C2679 O2654 1.252 . S
C2679 O2657 1.268 . S
C2679 C2672 1.506 . S
H2680 C2663 0.931 . S
H2681 C2664 0.931 . S
H2682 C2665 0.929 . S
H2683 C2666 0.930 . S
H2684 C2674 0.931 . S
H2685 C2675 0.931 . S
H2686 C2676 0.930 . S
H2687 C2677 0.929 . S
C2688 C2689 1.363 . S
C2688 C2694 1.379 . S
C2688 N2696 1.356 . S
C2689 C2688 1.363 . S
C2689 C2695 1.363 . S
C2690 C2691 1.363 . S
C2690 C2695 1.379 . S
C2690 N2697 1.356 . S
C2691 C2690 1.363 . S
C2691 C2694 1.363 . S
N2692 C2694 1.356 . S
N2692 H2704 0.984 . S
N2692 H2705 0.985 . S
N2693 C2695 1.356 . S
N2693 H2698 0.984 . S
N2693 H2699 0.985 . S
C2694 C2688 1.379 . S
C2694 C2691 1.363 . S
C2694 N2692 1.356 . S
C2695 C2689 1.363 . S
C2695 C2690 1.379 . S
C2695 N2693 1.356 . S
N2696 C2688 1.356 . S
N2696 H2702 0.984 . S
N2696 H2703 0.984 . S
N2697 C2690 1.356 . S
N2697 H2700 0.984 . S
N2697 H2701 0.985 . S
H2698 N2693 0.984 . S
H2699 N2693 0.985 . S
H2700 N2697 0.984 . S
H2701 N2697 0.985 . S
H2702 N2696 0.984 . S
H2703 N2696 0.984 . S
H2704 N2692 0.984 . S
H2705 N2692 0.985 . S
C2706 C2707 1.363 . S
C2706 C2712 1.379 . S
C2706 N2714 1.356 . S
C2707 C2706 1.363 . S
C2707 C2713 1.363 . S
C2708 C2709 1.363 . S
C2708 C2713 1.379 . S
C2708 N2715 1.356 . S
C2709 C2708 1.363 . S
C2709 C2712 1.363 . S
N2710 C2712 1.356 . S
N2710 H2722 0.984 . S
N2710 H2723 0.985 . S
N2711 C2713 1.356 . S
N2711 H2716 0.984 . S
N2711 H2717 0.985 . S
C2712 C2706 1.379 . S
C2712 C2709 1.363 . S
C2712 N2710 1.356 . S
C2713 C2707 1.363 . S
C2713 C2708 1.379 . S
C2713 N2711 1.356 . S
N2714 C2706 1.356 . S
N2714 H2720 0.984 . S
N2714 H2721 0.984 . S
N2715 C2708 1.356 . S
N2715 H2718 0.984 . S
N2715 H2719 0.985 . S
H2716 N2711 0.984 . S
H2717 N2711 0.985 . S
H2718 N2715 0.984 . S
H2719 N2715 0.985 . S
H2720 N2714 0.984 . S
H2721 N2714 0.984 . S
H2722 N2710 0.984 . S
H2723 N2710 0.985 . S
C2724 C2725 1.363 . S
C2724 C2730 1.379 . S
C2724 N2732 1.356 . S
C2725 C2724 1.363 . S
C2725 C2731 1.363 . S
C2726 C2727 1.363 . S
C2726 C2731 1.379 . S
C2726 N2733 1.356 . S
C2727 C2726 1.363 . S
C2727 C2730 1.363 . S
N2728 C2730 1.356 . S
N2728 H2740 0.984 . S
N2728 H2741 0.985 . S
N2729 C2731 1.356 . S
N2729 H2734 0.984 . S
N2729 H2735 0.985 . S
C2730 C2724 1.379 . S
C2730 C2727 1.363 . S
C2730 N2728 1.356 . S
C2731 C2725 1.363 . S
C2731 C2726 1.379 . S
C2731 N2729 1.356 . S
N2732 C2724 1.356 . S
N2732 H2738 0.984 . S
N2732 H2739 0.984 . S
N2733 C2726 1.356 . S
N2733 H2736 0.984 . S
N2733 H2737 0.985 . S
H2734 N2729 0.984 . S
H2735 N2729 0.985 . S
H2736 N2733 0.984 . S
H2737 N2733 0.985 . S
H2738 N2732 0.984 . S
H2739 N2732 0.984 . S
H2740 N2728 0.984 . S
H2741 N2728 0.985 . S
C2742 C2743 1.363 . S
C2742 C2748 1.379 . S
C2742 N2750 1.356 . S
C2743 C2742 1.363 . S
C2743 C2749 1.363 . S
C2744 C2745 1.363 . S
C2744 C2749 1.379 . S
C2744 N2751 1.356 . S
C2745 C2744 1.363 . S
C2745 C2748 1.363 . S
N2746 C2748 1.356 . S
N2746 H2758 0.984 . S
N2746 H2759 0.985 . S
N2747 C2749 1.356 . S
N2747 H2752 0.984 . S
N2747 H2753 0.985 . S
C2748 C2742 1.379 . S
C2748 C2745 1.363 . S
C2748 N2746 1.356 . S
C2749 C2743 1.363 . S
C2749 C2744 1.379 . S
C2749 N2747 1.356 . S
N2750 C2742 1.356 . S
N2750 H2756 0.984 . S
N2750 H2757 0.984 . S
N2751 C2744 1.356 . S
N2751 H2754 0.984 . S
N2751 H2755 0.985 . S
H2752 N2747 0.984 . S
H2753 N2747 0.985 . S
H2754 N2751 0.984 . S
H2755 N2751 0.985 . S
H2756 N2750 0.984 . S
H2757 N2750 0.984 . S
H2758 N2746 0.984 . S
H2759 N2746 0.985 . S
C2760 C2761 1.363 . S
C2760 C2766 1.379 . S
C2760 N2768 1.356 . S
C2761 C2760 1.363 . S
C2761 C2767 1.363 . S
C2762 C2763 1.363 . S
C2762 C2767 1.379 . S
C2762 N2769 1.356 . S
C2763 C2762 1.363 . S
C2763 C2766 1.363 . S
N2764 C2766 1.356 . S
N2764 H2776 0.984 . S
N2764 H2777 0.985 . S
N2765 C2767 1.356 . S
N2765 H2770 0.984 . S
N2765 H2771 0.985 . S
C2766 C2760 1.379 . S
C2766 C2763 1.363 . S
C2766 N2764 1.356 . S
C2767 C2761 1.363 . S
C2767 C2762 1.379 . S
C2767 N2765 1.356 . S
N2768 C2760 1.356 . S
N2768 H2774 0.984 . S
N2768 H2775 0.984 . S
N2769 C2762 1.356 . S
N2769 H2772 0.984 . S
N2769 H2773 0.985 . S
H2770 N2765 0.984 . S
H2771 N2765 0.985 . S
H2772 N2769 0.984 . S
H2773 N2769 0.985 . S
H2774 N2768 0.984 . S
H2775 N2768 0.984 . S
H2776 N2764 0.984 . S
H2777 N2764 0.985 . S
C2778 C2779 1.363 . S
C2778 C2784 1.379 . S
C2778 N2786 1.356 . S
C2779 C2778 1.363 . S
C2779 C2785 1.363 . S
C2780 C2781 1.363 . S
C2780 C2785 1.379 . S
C2780 N2787 1.356 . S
C2781 C2780 1.363 . S
C2781 C2784 1.363 . S
N2782 C2784 1.356 . S
N2782 H2794 0.984 . S
N2782 H2795 0.985 . S
N2783 C2785 1.356 . S
N2783 H2788 0.984 . S
N2783 H2789 0.985 . S
C2784 C2778 1.379 . S
C2784 C2781 1.363 . S
C2784 N2782 1.356 . S
C2785 C2779 1.363 . S
C2785 C2780 1.379 . S
C2785 N2783 1.356 . S
N2786 C2778 1.356 . S
N2786 H2792 0.984 . S
N2786 H2793 0.984 . S
N2787 C2780 1.356 . S
N2787 H2790 0.984 . S
N2787 H2791 0.985 . S
H2788 N2783 0.984 . S
H2789 N2783 0.985 . S
H2790 N2787 0.984 . S
H2791 N2787 0.985 . S
H2792 N2786 0.984 . S
H2793 N2786 0.984 . S
H2794 N2782 0.984 . S
H2795 N2782 0.985 . S
C2796 C2797 1.363 . S
C2796 C2802 1.379 . S
C2796 N2804 1.356 . S
C2797 C2796 1.363 . S
C2797 C2803 1.363 . S
C2798 C2799 1.363 . S
C2798 C2803 1.379 . S
C2798 N2805 1.356 . S
C2799 C2798 1.363 . S
C2799 C2802 1.363 . S
N2800 C2802 1.356 . S
N2800 H2812 0.984 . S
N2800 H2813 0.985 . S
N2801 C2803 1.356 . S
N2801 H2806 0.984 . S
N2801 H2807 0.985 . S
C2802 C2796 1.379 . S
C2802 C2799 1.363 . S
C2802 N2800 1.356 . S
C2803 C2797 1.363 . S
C2803 C2798 1.379 . S
C2803 N2801 1.356 . S
N2804 C2796 1.356 . S
N2804 H2810 0.984 . S
N2804 H2811 0.984 . S
N2805 C2798 1.356 . S
N2805 H2808 0.984 . S
N2805 H2809 0.985 . S
H2806 N2801 0.984 . S
H2807 N2801 0.985 . S
H2808 N2805 0.984 . S
H2809 N2805 0.985 . S
H2810 N2804 0.984 . S
H2811 N2804 0.984 . S
H2812 N2800 0.984 . S
H2813 N2800 0.985 . S
C2814 C2815 1.363 . S
C2814 C2820 1.379 . S
C2814 N2822 1.356 . S
C2815 C2814 1.363 . S
C2815 C2821 1.363 . S
C2816 C2817 1.363 . S
C2816 C2821 1.379 . S
C2816 N2823 1.356 . S
C2817 C2816 1.363 . S
C2817 C2820 1.363 . S
N2818 C2820 1.356 . S
N2818 H2830 0.984 . S
N2818 H2831 0.985 . S
N2819 C2821 1.356 . S
N2819 H2824 0.984 . S
N2819 H2825 0.985 . S
C2820 C2814 1.379 . S
C2820 C2817 1.363 . S
C2820 N2818 1.356 . S
C2821 C2815 1.363 . S
C2821 C2816 1.379 . S
C2821 N2819 1.356 . S
N2822 C2814 1.356 . S
N2822 H2828 0.984 . S
N2822 H2829 0.984 . S
N2823 C2816 1.356 . S
N2823 H2826 0.984 . S
N2823 H2827 0.985 . S
H2824 N2819 0.984 . S
H2825 N2819 0.985 . S
H2826 N2823 0.984 . S
H2827 N2823 0.985 . S
H2828 N2822 0.984 . S
H2829 N2822 0.984 . S
H2830 N2818 0.984 . S
H2831 N2818 0.985 . S
C2832 C2833 1.363 . S
C2832 C2838 1.379 . S
C2832 N2840 1.356 . S
C2833 C2832 1.363 . S
C2833 C2839 1.363 . S
C2834 C2835 1.363 . S
C2834 C2839 1.379 . S
C2834 N2841 1.356 . S
C2835 C2834 1.363 . S
C2835 C2838 1.363 . S
N2836 C2838 1.356 . S
N2836 H2848 0.984 . S
N2836 H2849 0.985 . S
N2837 C2839 1.356 . S
N2837 H2842 0.984 . S
N2837 H2843 0.985 . S
C2838 C2832 1.379 . S
C2838 C2835 1.363 . S
C2838 N2836 1.356 . S
C2839 C2833 1.363 . S
C2839 C2834 1.379 . S
C2839 N2837 1.356 . S
N2840 C2832 1.356 . S
N2840 H2846 0.984 . S
N2840 H2847 0.984 . S
N2841 C2834 1.356 . S
N2841 H2844 0.984 . S
N2841 H2845 0.985 . S
H2842 N2837 0.984 . S
H2843 N2837 0.985 . S
H2844 N2841 0.984 . S
H2845 N2841 0.985 . S
H2846 N2840 0.984 . S
H2847 N2840 0.984 . S
H2848 N2836 0.984 . S
H2849 N2836 0.985 . S
C2850 C2851 1.363 . S
C2850 C2856 1.379 . S
C2850 N2858 1.356 . S
C2851 C2850 1.363 . S
C2851 C2857 1.363 . S
C2852 C2853 1.363 . S
C2852 C2857 1.379 . S
C2852 N2859 1.356 . S
C2853 C2852 1.363 . S
C2853 C2856 1.363 . S
N2854 C2856 1.356 . S
N2854 H2866 0.984 . S
N2854 H2867 0.985 . S
N2855 C2857 1.356 . S
N2855 H2860 0.984 . S
N2855 H2861 0.985 . S
C2856 C2850 1.379 . S
C2856 C2853 1.363 . S
C2856 N2854 1.356 . S
C2857 C2851 1.363 . S
C2857 C2852 1.379 . S
C2857 N2855 1.356 . S
N2858 C2850 1.356 . S
N2858 H2864 0.984 . S
N2858 H2865 0.984 . S
N2859 C2852 1.356 . S
N2859 H2862 0.984 . S
N2859 H2863 0.985 . S
H2860 N2855 0.984 . S
H2861 N2855 0.985 . S
H2862 N2859 0.984 . S
H2863 N2859 0.985 . S
H2864 N2858 0.984 . S
H2865 N2858 0.984 . S
H2866 N2854 0.984 . S
H2867 N2854 0.985 . S
C2868 C2869 1.363 . S
C2868 C2874 1.379 . S
C2868 N2876 1.356 . S
C2869 C2868 1.363 . S
C2869 C2875 1.363 . S
C2870 C2871 1.363 . S
C2870 C2875 1.379 . S
C2870 N2877 1.356 . S
C2871 C2870 1.363 . S
C2871 C2874 1.363 . S
N2872 C2874 1.356 . S
N2872 H2884 0.984 . S
N2872 H2885 0.985 . S
N2873 C2875 1.356 . S
N2873 H2878 0.984 . S
N2873 H2879 0.985 . S
C2874 C2868 1.379 . S
C2874 C2871 1.363 . S
C2874 N2872 1.356 . S
C2875 C2869 1.363 . S
C2875 C2870 1.379 . S
C2875 N2873 1.356 . S
N2876 C2868 1.356 . S
N2876 H2882 0.984 . S
N2876 H2883 0.984 . S
N2877 C2870 1.356 . S
N2877 H2880 0.984 . S
N2877 H2881 0.985 . S
H2878 N2873 0.984 . S
H2879 N2873 0.985 . S
H2880 N2877 0.984 . S
H2881 N2877 0.985 . S
H2882 N2876 0.984 . S
H2883 N2876 0.984 . S
H2884 N2872 0.984 . S
H2885 N2872 0.985 . S
C2886 C2887 1.363 . S
C2886 C2892 1.379 . S
C2886 N2894 1.356 . S
C2887 C2886 1.363 . S
C2887 C2893 1.363 . S
C2888 C2889 1.363 . S
C2888 C2893 1.379 . S
C2888 N2895 1.356 . S
C2889 C2888 1.363 . S
C2889 C2892 1.363 . S
N2890 C2892 1.356 . S
N2890 H2902 0.984 . S
N2890 H2903 0.985 . S
N2891 C2893 1.356 . S
N2891 H2896 0.984 . S
N2891 H2897 0.985 . S
C2892 C2886 1.379 . S
C2892 C2889 1.363 . S
C2892 N2890 1.356 . S
C2893 C2887 1.363 . S
C2893 C2888 1.379 . S
C2893 N2891 1.356 . S
N2894 C2886 1.356 . S
N2894 H2900 0.984 . S
N2894 H2901 0.984 . S
N2895 C2888 1.356 . S
N2895 H2898 0.984 . S
N2895 H2899 0.985 . S
H2896 N2891 0.984 . S
H2897 N2891 0.985 . S
H2898 N2895 0.984 . S
H2899 N2895 0.985 . S
H2900 N2894 0.984 . S
H2901 N2894 0.984 . S
H2902 N2890 0.984 . S
H2903 N2890 0.985 . S
C2904 C2905 1.363 . S
C2904 C2910 1.379 . S
C2904 N2912 1.356 . S
C2905 C2904 1.363 . S
C2905 C2911 1.363 . S
C2906 C2907 1.363 . S
C2906 C2911 1.379 . S
C2906 N2913 1.356 . S
C2907 C2906 1.363 . S
C2907 C2910 1.363 . S
N2908 C2910 1.356 . S
N2908 H2920 0.984 . S
N2908 H2921 0.985 . S
N2909 C2911 1.356 . S
N2909 H2914 0.984 . S
N2909 H2915 0.985 . S
C2910 C2904 1.379 . S
C2910 C2907 1.363 . S
C2910 N2908 1.356 . S
C2911 C2905 1.363 . S
C2911 C2906 1.379 . S
C2911 N2909 1.356 . S
N2912 C2904 1.356 . S
N2912 H2918 0.984 . S
N2912 H2919 0.984 . S
N2913 C2906 1.356 . S
N2913 H2916 0.984 . S
N2913 H2917 0.985 . S
H2914 N2909 0.984 . S
H2915 N2909 0.985 . S
H2916 N2913 0.984 . S
H2917 N2913 0.985 . S
H2918 N2912 0.984 . S
H2919 N2912 0.984 . S
H2920 N2908 0.984 . S
H2921 N2908 0.985 . S
C2922 C2923 1.363 . S
C2922 C2928 1.379 . S
C2922 N2930 1.356 . S
C2923 C2922 1.363 . S
C2923 C2929 1.363 . S
C2924 C2925 1.363 . S
C2924 C2929 1.379 . S
C2924 N2931 1.356 . S
C2925 C2924 1.363 . S
C2925 C2928 1.363 . S
N2926 C2928 1.356 . S
N2926 H2938 0.984 . S
N2926 H2939 0.985 . S
N2927 C2929 1.356 . S
N2927 H2932 0.984 . S
N2927 H2933 0.985 . S
C2928 C2922 1.379 . S
C2928 C2925 1.363 . S
C2928 N2926 1.356 . S
C2929 C2923 1.363 . S
C2929 C2924 1.379 . S
C2929 N2927 1.356 . S
N2930 C2922 1.356 . S
N2930 H2936 0.984 . S
N2930 H2937 0.984 . S
N2931 C2924 1.356 . S
N2931 H2934 0.984 . S
N2931 H2935 0.985 . S
H2932 N2927 0.984 . S
H2933 N2927 0.985 . S
H2934 N2931 0.984 . S
H2935 N2931 0.985 . S
H2936 N2930 0.984 . S
H2937 N2930 0.984 . S
H2938 N2926 0.984 . S
H2939 N2926 0.985 . S
C2940 C2941 1.363 . S
C2940 C2946 1.379 . S
C2940 N2948 1.356 . S
C2941 C2940 1.363 . S
C2941 C2947 1.363 . S
C2942 C2943 1.363 . S
C2942 C2947 1.379 . S
C2942 N2949 1.356 . S
C2943 C2942 1.363 . S
C2943 C2946 1.363 . S
N2944 C2946 1.356 . S
N2944 H2956 0.984 . S
N2944 H2957 0.985 . S
N2945 C2947 1.356 . S
N2945 H2950 0.984 . S
N2945 H2951 0.985 . S
C2946 C2940 1.379 . S
C2946 C2943 1.363 . S
C2946 N2944 1.356 . S
C2947 C2941 1.363 . S
C2947 C2942 1.379 . S
C2947 N2945 1.356 . S
N2948 C2940 1.356 . S
N2948 H2954 0.984 . S
N2948 H2955 0.984 . S
N2949 C2942 1.356 . S
N2949 H2952 0.984 . S
N2949 H2953 0.985 . S
H2950 N2945 0.984 . S
H2951 N2945 0.985 . S
H2952 N2949 0.984 . S
H2953 N2949 0.985 . S
H2954 N2948 0.984 . S
H2955 N2948 0.984 . S
H2956 N2944 0.984 . S
H2957 N2944 0.985 . S
C2958 C2959 1.363 . S
C2958 C2964 1.379 . S
C2958 N2966 1.356 . S
C2959 C2958 1.363 . S
C2959 C2965 1.363 . S
C2960 C2961 1.363 . S
C2960 C2965 1.379 . S
C2960 N2967 1.356 . S
C2961 C2960 1.363 . S
C2961 C2964 1.363 . S
N2962 C2964 1.356 . S
N2962 H2974 0.984 . S
N2962 H2975 0.985 . S
N2963 C2965 1.356 . S
N2963 H2968 0.984 . S
N2963 H2969 0.985 . S
C2964 C2958 1.379 . S
C2964 C2961 1.363 . S
C2964 N2962 1.356 . S
C2965 C2959 1.363 . S
C2965 C2960 1.379 . S
C2965 N2963 1.356 . S
N2966 C2958 1.356 . S
N2966 H2972 0.984 . S
N2966 H2973 0.984 . S
N2967 C2960 1.356 . S
N2967 H2970 0.984 . S
N2967 H2971 0.985 . S
H2968 N2963 0.984 . S
H2969 N2963 0.985 . S
H2970 N2967 0.984 . S
H2971 N2967 0.985 . S
H2972 N2966 0.984 . S
H2973 N2966 0.984 . S
H2974 N2962 0.984 . S
H2975 N2962 0.985 . S
C2976 C2977 1.363 . S
C2976 C2982 1.379 . S
C2976 N2984 1.356 . S
C2977 C2976 1.363 . S
C2977 C2983 1.363 . S
C2978 C2979 1.363 . S
C2978 C2983 1.379 . S
C2978 N2985 1.356 . S
C2979 C2978 1.363 . S
C2979 C2982 1.363 . S
N2980 C2982 1.356 . S
N2980 H2992 0.984 . S
N2980 H2993 0.985 . S
N2981 C2983 1.356 . S
N2981 H2986 0.984 . S
N2981 H2987 0.985 . S
C2982 C2976 1.379 . S
C2982 C2979 1.363 . S
C2982 N2980 1.356 . S
C2983 C2977 1.363 . S
C2983 C2978 1.379 . S
C2983 N2981 1.356 . S
N2984 C2976 1.356 . S
N2984 H2990 0.984 . S
N2984 H2991 0.984 . S
N2985 C2978 1.356 . S
N2985 H2988 0.984 . S
N2985 H2989 0.985 . S
H2986 N2981 0.984 . S
H2987 N2981 0.985 . S
H2988 N2985 0.984 . S
H2989 N2985 0.985 . S
H2990 N2984 0.984 . S
H2991 N2984 0.984 . S
H2992 N2980 0.984 . S
H2993 N2980 0.985 . S
C2994 C2995 1.363 . S
C2994 C3000 1.379 . S
C2994 N3002 1.356 . S
C2995 C2994 1.363 . S
C2995 C3001 1.363 . S
C2996 C2997 1.363 . S
C2996 C3001 1.379 . S
C2996 N3003 1.356 . S
C2997 C2996 1.363 . S
C2997 C3000 1.363 . S
N2998 C3000 1.356 . S
N2998 H3010 0.984 . S
N2998 H3011 0.985 . S
N2999 C3001 1.356 . S
N2999 H3004 0.984 . S
N2999 H3005 0.985 . S
C3000 C2994 1.379 . S
C3000 C2997 1.363 . S
C3000 N2998 1.356 . S
C3001 C2995 1.363 . S
C3001 C2996 1.379 . S
C3001 N2999 1.356 . S
N3002 C2994 1.356 . S
N3002 H3008 0.984 . S
N3002 H3009 0.984 . S
N3003 C2996 1.356 . S
N3003 H3006 0.984 . S
N3003 H3007 0.985 . S
H3004 N2999 0.984 . S
H3005 N2999 0.985 . S
H3006 N3003 0.984 . S
H3007 N3003 0.985 . S
H3008 N3002 0.984 . S
H3009 N3002 0.984 . S
H3010 N2998 0.984 . S
H3011 N2998 0.985 . S
C3012 C3013 1.363 . S
C3012 C3018 1.379 . S
C3012 N3020 1.356 . S
C3013 C3012 1.363 . S
C3013 C3019 1.363 . S
C3014 C3015 1.363 . S
C3014 C3019 1.379 . S
C3014 N3021 1.356 . S
C3015 C3014 1.363 . S
C3015 C3018 1.363 . S
N3016 C3018 1.356 . S
N3016 H3028 0.984 . S
N3016 H3029 0.985 . S
N3017 C3019 1.356 . S
N3017 H3022 0.984 . S
N3017 H3023 0.985 . S
C3018 C3012 1.379 . S
C3018 C3015 1.363 . S
C3018 N3016 1.356 . S
C3019 C3013 1.363 . S
C3019 C3014 1.379 . S
C3019 N3017 1.356 . S
N3020 C3012 1.356 . S
N3020 H3026 0.984 . S
N3020 H3027 0.984 . S
N3021 C3014 1.356 . S
N3021 H3024 0.984 . S
N3021 H3025 0.985 . S
H3022 N3017 0.984 . S
H3023 N3017 0.985 . S
H3024 N3021 0.984 . S
H3025 N3021 0.985 . S
H3026 N3020 0.984 . S
H3027 N3020 0.984 . S
H3028 N3016 0.984 . S
H3029 N3016 0.985 . S
C3030 C3031 1.363 . S
C3030 C3036 1.379 . S
C3030 N3038 1.356 . S
C3031 C3030 1.363 . S
C3031 C3037 1.363 . S
C3032 C3033 1.363 . S
C3032 C3037 1.379 . S
C3032 N3039 1.356 . S
C3033 C3032 1.363 . S
C3033 C3036 1.363 . S
N3034 C3036 1.356 . S
N3034 H3046 0.984 . S
N3034 H3047 0.985 . S
N3035 C3037 1.356 . S
N3035 H3040 0.984 . S
N3035 H3041 0.985 . S
C3036 C3030 1.379 . S
C3036 C3033 1.363 . S
C3036 N3034 1.356 . S
C3037 C3031 1.363 . S
C3037 C3032 1.379 . S
C3037 N3035 1.356 . S
N3038 C3030 1.356 . S
N3038 H3044 0.984 . S
N3038 H3045 0.984 . S
N3039 C3032 1.356 . S
N3039 H3042 0.984 . S
N3039 H3043 0.985 . S
H3040 N3035 0.984 . S
H3041 N3035 0.985 . S
H3042 N3039 0.984 . S
H3043 N3039 0.985 . S
H3044 N3038 0.984 . S
H3045 N3038 0.984 . S
H3046 N3034 0.984 . S
H3047 N3034 0.985 . S
C3048 C3049 1.363 . S
C3048 C3054 1.379 . S
C3048 N3056 1.356 . S
C3049 C3048 1.363 . S
C3049 C3055 1.363 . S
C3050 C3051 1.363 . S
C3050 C3055 1.379 . S
C3050 N3057 1.356 . S
C3051 C3050 1.363 . S
C3051 C3054 1.363 . S
N3052 C3054 1.356 . S
N3052 H3064 0.984 . S
N3052 H3065 0.985 . S
N3053 C3055 1.356 . S
N3053 H3058 0.984 . S
N3053 H3059 0.985 . S
C3054 C3048 1.379 . S
C3054 C3051 1.363 . S
C3054 N3052 1.356 . S
C3055 C3049 1.363 . S
C3055 C3050 1.379 . S
C3055 N3053 1.356 . S
N3056 C3048 1.356 . S
N3056 H3062 0.984 . S
N3056 H3063 0.984 . S
N3057 C3050 1.356 . S
N3057 H3060 0.984 . S
N3057 H3061 0.985 . S
H3058 N3053 0.984 . S
H3059 N3053 0.985 . S
H3060 N3057 0.984 . S
H3061 N3057 0.985 . S
H3062 N3056 0.984 . S
H3063 N3056 0.984 . S
H3064 N3052 0.984 . S
H3065 N3052 0.985 . S
C3066 C3067 1.363 . S
C3066 C3072 1.379 . S
C3066 N3074 1.356 . S
C3067 C3066 1.363 . S
C3067 C3073 1.363 . S
C3068 C3069 1.363 . S
C3068 C3073 1.379 . S
C3068 N3075 1.356 . S
C3069 C3068 1.363 . S
C3069 C3072 1.363 . S
N3070 C3072 1.356 . S
N3070 H3082 0.984 . S
N3070 H3083 0.985 . S
N3071 C3073 1.356 . S
N3071 H3076 0.984 . S
N3071 H3077 0.985 . S
C3072 C3066 1.379 . S
C3072 C3069 1.363 . S
C3072 N3070 1.356 . S
C3073 C3067 1.363 . S
C3073 C3068 1.379 . S
C3073 N3071 1.356 . S
N3074 C3066 1.356 . S
N3074 H3080 0.984 . S
N3074 H3081 0.984 . S
N3075 C3068 1.356 . S
N3075 H3078 0.984 . S
N3075 H3079 0.985 . S
H3076 N3071 0.984 . S
H3077 N3071 0.985 . S
H3078 N3075 0.984 . S
H3079 N3075 0.985 . S
H3080 N3074 0.984 . S
H3081 N3074 0.984 . S
H3082 N3070 0.984 . S
H3083 N3070 0.985 . S
C3084 C3085 1.363 . S
C3084 C3090 1.379 . S
C3084 N3092 1.356 . S
C3085 C3084 1.363 . S
C3085 C3091 1.363 . S
C3086 C3087 1.363 . S
C3086 C3091 1.379 . S
C3086 N3093 1.356 . S
C3087 C3086 1.363 . S
C3087 C3090 1.363 . S
N3088 C3090 1.356 . S
N3088 H3100 0.984 . S
N3088 H3101 0.985 . S
N3089 C3091 1.356 . S
N3089 H3094 0.984 . S
N3089 H3095 0.985 . S
C3090 C3084 1.379 . S
C3090 C3087 1.363 . S
C3090 N3088 1.356 . S
C3091 C3085 1.363 . S
C3091 C3086 1.379 . S
C3091 N3089 1.356 . S
N3092 C3084 1.356 . S
N3092 H3098 0.984 . S
N3092 H3099 0.984 . S
N3093 C3086 1.356 . S
N3093 H3096 0.984 . S
N3093 H3097 0.985 . S
H3094 N3089 0.984 . S
H3095 N3089 0.985 . S
H3096 N3093 0.984 . S
H3097 N3093 0.985 . S
H3098 N3092 0.984 . S
H3099 N3092 0.984 . S
H3100 N3088 0.984 . S
H3101 N3088 0.985 . S
C3102 C3103 1.363 . S
C3102 C3108 1.379 . S
C3102 N3110 1.356 . S
C3103 C3102 1.363 . S
C3103 C3109 1.363 . S
C3104 C3105 1.363 . S
C3104 C3109 1.379 . S
C3104 N3111 1.356 . S
C3105 C3104 1.363 . S
C3105 C3108 1.363 . S
N3106 C3108 1.356 . S
N3106 H3118 0.984 . S
N3106 H3119 0.985 . S
N3107 C3109 1.356 . S
N3107 H3112 0.984 . S
N3107 H3113 0.985 . S
C3108 C3102 1.379 . S
C3108 C3105 1.363 . S
C3108 N3106 1.356 . S
C3109 C3103 1.363 . S
C3109 C3104 1.379 . S
C3109 N3107 1.356 . S
N3110 C3102 1.356 . S
N3110 H3116 0.984 . S
N3110 H3117 0.984 . S
N3111 C3104 1.356 . S
N3111 H3114 0.984 . S
N3111 H3115 0.985 . S
H3112 N3107 0.984 . S
H3113 N3107 0.985 . S
H3114 N3111 0.984 . S
H3115 N3111 0.985 . S
H3116 N3110 0.984 . S
H3117 N3110 0.984 . S
H3118 N3106 0.984 . S
H3119 N3106 0.985 . S
C3120 C3121 1.363 . S
C3120 C3126 1.379 . S
C3120 N3128 1.356 . S
C3121 C3120 1.363 . S
C3121 C3127 1.363 . S
C3122 C3123 1.363 . S
C3122 C3127 1.379 . S
C3122 N3129 1.356 . S
C3123 C3122 1.363 . S
C3123 C3126 1.363 . S
N3124 C3126 1.356 . S
N3124 H3136 0.984 . S
N3124 H3137 0.985 . S
N3125 C3127 1.356 . S
N3125 H3130 0.984 . S
N3125 H3131 0.985 . S
C3126 C3120 1.379 . S
C3126 C3123 1.363 . S
C3126 N3124 1.356 . S
C3127 C3121 1.363 . S
C3127 C3122 1.379 . S
C3127 N3125 1.356 . S
N3128 C3120 1.356 . S
N3128 H3134 0.984 . S
N3128 H3135 0.984 . S
N3129 C3122 1.356 . S
N3129 H3132 0.984 . S
N3129 H3133 0.985 . S
H3130 N3125 0.984 . S
H3131 N3125 0.985 . S
H3132 N3129 0.984 . S
H3133 N3129 0.985 . S
H3134 N3128 0.984 . S
H3135 N3128 0.984 . S
H3136 N3124 0.984 . S
H3137 N3124 0.985 . S
C3138 C3139 1.363 . S
C3138 C3144 1.379 . S
C3138 N3146 1.356 . S
C3139 C3138 1.363 . S
C3139 C3145 1.363 . S
C3140 C3141 1.363 . S
C3140 C3145 1.379 . S
C3140 N3147 1.356 . S
C3141 C3140 1.363 . S
C3141 C3144 1.363 . S
N3142 C3144 1.356 . S
N3142 H3154 0.984 . S
N3142 H3155 0.985 . S
N3143 C3145 1.356 . S
N3143 H3148 0.984 . S
N3143 H3149 0.985 . S
C3144 C3138 1.379 . S
C3144 C3141 1.363 . S
C3144 N3142 1.356 . S
C3145 C3139 1.363 . S
C3145 C3140 1.379 . S
C3145 N3143 1.356 . S
N3146 C3138 1.356 . S
N3146 H3152 0.984 . S
N3146 H3153 0.984 . S
N3147 C3140 1.356 . S
N3147 H3150 0.984 . S
N3147 H3151 0.985 . S
H3148 N3143 0.984 . S
H3149 N3143 0.985 . S
H3150 N3147 0.984 . S
H3151 N3147 0.985 . S
H3152 N3146 0.984 . S
H3153 N3146 0.984 . S
H3154 N3142 0.984 . S
H3155 N3142 0.985 . S
C3156 C3157 1.363 . S
C3156 C3162 1.379 . S
C3156 N3164 1.356 . S
C3157 C3156 1.363 . S
C3157 C3163 1.363 . S
C3158 C3159 1.363 . S
C3158 C3163 1.379 . S
C3158 N3165 1.356 . S
C3159 C3158 1.363 . S
C3159 C3162 1.363 . S
N3160 C3162 1.356 . S
N3160 H3172 0.984 . S
N3160 H3173 0.985 . S
N3161 C3163 1.356 . S
N3161 H3166 0.984 . S
N3161 H3167 0.985 . S
C3162 C3156 1.379 . S
C3162 C3159 1.363 . S
C3162 N3160 1.356 . S
C3163 C3157 1.363 . S
C3163 C3158 1.379 . S
C3163 N3161 1.356 . S
N3164 C3156 1.356 . S
N3164 H3170 0.984 . S
N3164 H3171 0.984 . S
N3165 C3158 1.356 . S
N3165 H3168 0.984 . S
N3165 H3169 0.985 . S
H3166 N3161 0.984 . S
H3167 N3161 0.985 . S
H3168 N3165 0.984 . S
H3169 N3165 0.985 . S
H3170 N3164 0.984 . S
H3171 N3164 0.984 . S
H3172 N3160 0.984 . S
H3173 N3160 0.985 . S
C3174 C3175 1.363 . S
C3174 C3180 1.379 . S
C3174 N3182 1.356 . S
C3175 C3174 1.363 . S
C3175 C3181 1.363 . S
C3176 C3177 1.363 . S
C3176 C3181 1.379 . S
C3176 N3183 1.356 . S
C3177 C3176 1.363 . S
C3177 C3180 1.363 . S
N3178 C3180 1.356 . S
N3178 H3190 0.984 . S
N3178 H3191 0.985 . S
N3179 C3181 1.356 . S
N3179 H3184 0.984 . S
N3179 H3185 0.985 . S
C3180 C3174 1.379 . S
C3180 C3177 1.363 . S
C3180 N3178 1.356 . S
C3181 C3175 1.363 . S
C3181 C3176 1.379 . S
C3181 N3179 1.356 . S
N3182 C3174 1.356 . S
N3182 H3188 0.984 . S
N3182 H3189 0.984 . S
N3183 C3176 1.356 . S
N3183 H3186 0.984 . S
N3183 H3187 0.985 . S
H3184 N3179 0.984 . S
H3185 N3179 0.985 . S
H3186 N3183 0.984 . S
H3187 N3183 0.985 . S
H3188 N3182 0.984 . S
H3189 N3182 0.984 . S
H3190 N3178 0.984 . S
H3191 N3178 0.985 . S
C3192 C3193 1.363 . S
C3192 C3198 1.379 . S
C3192 N3200 1.356 . S
C3193 C3192 1.363 . S
C3193 C3199 1.363 . S
C3194 C3195 1.363 . S
C3194 C3199 1.379 . S
C3194 N3201 1.356 . S
C3195 C3194 1.363 . S
C3195 C3198 1.363 . S
N3196 C3198 1.356 . S
N3196 H3208 0.984 . S
N3196 H3209 0.985 . S
N3197 C3199 1.356 . S
N3197 H3202 0.984 . S
N3197 H3203 0.985 . S
C3198 C3192 1.379 . S
C3198 C3195 1.363 . S
C3198 N3196 1.356 . S
C3199 C3193 1.363 . S
C3199 C3194 1.379 . S
C3199 N3197 1.356 . S
N3200 C3192 1.356 . S
N3200 H3206 0.984 . S
N3200 H3207 0.984 . S
N3201 C3194 1.356 . S
N3201 H3204 0.984 . S
N3201 H3205 0.985 . S
H3202 N3197 0.984 . S
H3203 N3197 0.985 . S
H3204 N3201 0.984 . S
H3205 N3201 0.985 . S
H3206 N3200 0.984 . S
H3207 N3200 0.984 . S
H3208 N3196 0.984 . S
H3209 N3196 0.985 . S
C3210 C3211 1.363 . S
C3210 C3216 1.379 . S
C3210 N3218 1.356 . S
C3211 C3210 1.363 . S
C3211 C3217 1.363 . S
C3212 C3213 1.363 . S
C3212 C3217 1.379 . S
C3212 N3219 1.356 . S
C3213 C3212 1.363 . S
C3213 C3216 1.363 . S
N3214 C3216 1.356 . S
N3214 H3226 0.984 . S
N3214 H3227 0.985 . S
N3215 C3217 1.356 . S
N3215 H3220 0.984 . S
N3215 H3221 0.985 . S
C3216 C3210 1.379 . S
C3216 C3213 1.363 . S
C3216 N3214 1.356 . S
C3217 C3211 1.363 . S
C3217 C3212 1.379 . S
C3217 N3215 1.356 . S
N3218 C3210 1.356 . S
N3218 H3224 0.984 . S
N3218 H3225 0.984 . S
N3219 C3212 1.356 . S
N3219 H3222 0.984 . S
N3219 H3223 0.985 . S
H3220 N3215 0.984 . S
H3221 N3215 0.985 . S
H3222 N3219 0.984 . S
H3223 N3219 0.985 . S
H3224 N3218 0.984 . S
H3225 N3218 0.984 . S
H3226 N3214 0.984 . S
H3227 N3214 0.985 . S
C3228 C3229 1.363 . S
C3228 C3234 1.379 . S
C3228 N3236 1.356 . S
C3229 C3228 1.363 . S
C3229 C3235 1.363 . S
C3230 C3231 1.363 . S
C3230 C3235 1.379 . S
C3230 N3237 1.356 . S
C3231 C3230 1.363 . S
C3231 C3234 1.363 . S
N3232 C3234 1.356 . S
N3232 H3244 0.984 . S
N3232 H3245 0.985 . S
N3233 C3235 1.356 . S
N3233 H3238 0.984 . S
N3233 H3239 0.985 . S
C3234 C3228 1.379 . S
C3234 C3231 1.363 . S
C3234 N3232 1.356 . S
C3235 C3229 1.363 . S
C3235 C3230 1.379 . S
C3235 N3233 1.356 . S
N3236 C3228 1.356 . S
N3236 H3242 0.984 . S
N3236 H3243 0.984 . S
N3237 C3230 1.356 . S
N3237 H3240 0.984 . S
N3237 H3241 0.985 . S
H3238 N3233 0.984 . S
H3239 N3233 0.985 . S
H3240 N3237 0.984 . S
H3241 N3237 0.985 . S
H3242 N3236 0.984 . S
H3243 N3236 0.984 . S
H3244 N3232 0.984 . S
H3245 N3232 0.985 . S
C3246 C3247 1.363 . S
C3246 C3252 1.379 . S
C3246 N3254 1.356 . S
C3247 C3246 1.363 . S
C3247 C3253 1.363 . S
C3248 C3249 1.363 . S
C3248 C3253 1.379 . S
C3248 N3255 1.356 . S
C3249 C3248 1.363 . S
C3249 C3252 1.363 . S
N3250 C3252 1.356 . S
N3250 H3262 0.984 . S
N3250 H3263 0.985 . S
N3251 C3253 1.356 . S
N3251 H3256 0.984 . S
N3251 H3257 0.985 . S
C3252 C3246 1.379 . S
C3252 C3249 1.363 . S
C3252 N3250 1.356 . S
C3253 C3247 1.363 . S
C3253 C3248 1.379 . S
C3253 N3251 1.356 . S
N3254 C3246 1.356 . S
N3254 H3260 0.984 . S
N3254 H3261 0.984 . S
N3255 C3248 1.356 . S
N3255 H3258 0.984 . S
N3255 H3259 0.985 . S
H3256 N3251 0.984 . S
H3257 N3251 0.985 . S
H3258 N3255 0.984 . S
H3259 N3255 0.985 . S
H3260 N3254 0.984 . S
H3261 N3254 0.984 . S
H3262 N3250 0.984 . S
H3263 N3250 0.985 . S
C3264 C3265 1.363 . S
C3264 C3270 1.379 1_455 S
C3264 N3272 1.356 . S
C3265 C3264 1.363 . S
C3265 C3271 1.363 . S
C3266 C3267 1.363 . S
C3266 C3271 1.379 1_655 S
C3266 N3273 1.356 . S
C3267 C3266 1.363 . S
C3267 C3270 1.363 . S
N3268 C3270 1.356 . S
N3268 H3280 0.984 . S
N3268 H3281 0.985 . S
N3269 C3271 1.356 . S
N3269 H3274 0.984 . S
N3269 H3275 0.985 . S
C3270 C3264 1.379 1_655 S
C3270 C3267 1.363 . S
C3270 N3268 1.356 . S
C3271 C3265 1.363 . S
C3271 C3266 1.379 1_455 S
C3271 N3269 1.356 . S
N3272 C3264 1.356 . S
N3272 H3278 0.984 . S
N3272 H3279 0.984 . S
N3273 C3266 1.356 . S
N3273 H3276 0.984 . S
N3273 H3277 0.985 . S
H3274 N3269 0.984 . S
H3275 N3269 0.985 . S
H3276 N3273 0.984 . S
H3277 N3273 0.985 . S
H3278 N3272 0.984 . S
H3279 N3272 0.984 . S
H3280 N3268 0.984 . S
H3281 N3268 0.985 . S
C3282 C3283 1.363 1_655 S
C3282 C3288 1.379 . S
C3282 N3290 1.356 . S
C3283 C3282 1.363 1_455 S
C3283 C3289 1.363 . S
C3284 C3285 1.363 1_455 S
C3284 C3289 1.379 . S
C3284 N3291 1.356 . S
C3285 C3284 1.363 1_655 S
C3285 C3288 1.363 . S
N3286 C3288 1.356 . S
N3286 H3298 0.984 . S
N3286 H3299 0.985 . S
N3287 C3289 1.356 . S
N3287 H3292 0.984 . S
N3287 H3293 0.985 . S
C3288 C3282 1.379 . S
C3288 C3285 1.363 . S
C3288 N3286 1.356 . S
C3289 C3283 1.363 . S
C3289 C3284 1.379 . S
C3289 N3287 1.356 . S
N3290 C3282 1.356 . S
N3290 H3296 0.984 . S
N3290 H3297 0.984 . S
N3291 C3284 1.356 . S
N3291 H3294 0.984 . S
N3291 H3295 0.985 . S
H3292 N3287 0.984 . S
H3293 N3287 0.985 . S
H3294 N3291 0.984 . S
H3295 N3291 0.985 . S
H3296 N3290 0.984 . S
H3297 N3290 0.984 . S
H3298 N3286 0.984 . S
H3299 N3286 0.985 . S
C3300 C3301 1.363 . S
C3300 C3306 1.379 . S
C3300 N3308 1.356 . S
C3301 C3300 1.363 . S
C3301 C3307 1.363 . S
C3302 C3303 1.363 . S
C3302 C3307 1.379 . S
C3302 N3309 1.356 . S
C3303 C3302 1.363 . S
C3303 C3306 1.363 . S
N3304 C3306 1.356 . S
N3304 H3316 0.984 . S
N3304 H3317 0.985 . S
N3305 C3307 1.356 . S
N3305 H3310 0.984 . S
N3305 H3311 0.985 . S
C3306 C3300 1.379 . S
C3306 C3303 1.363 . S
C3306 N3304 1.356 . S
C3307 C3301 1.363 . S
C3307 C3302 1.379 . S
C3307 N3305 1.356 . S
N3308 C3300 1.356 . S
N3308 H3314 0.984 . S
N3308 H3315 0.984 . S
N3309 C3302 1.356 . S
N3309 H3312 0.984 . S
N3309 H3313 0.985 . S
H3310 N3305 0.984 . S
H3311 N3305 0.985 . S
H3312 N3309 0.984 . S
H3313 N3309 0.985 . S
H3314 N3308 0.984 . S
H3315 N3308 0.984 . S
H3316 N3304 0.984 . S
H3317 N3304 0.985 . S
C3318 C3319 1.363 . S
C3318 C3324 1.379 . S
C3318 N3326 1.356 . S
C3319 C3318 1.363 . S
C3319 C3325 1.363 . S
C3320 C3321 1.363 . S
C3320 C3325 1.379 . S
C3320 N3327 1.356 . S
C3321 C3320 1.363 . S
C3321 C3324 1.363 . S
N3322 C3324 1.356 . S
N3322 H3334 0.984 . S
N3322 H3335 0.985 . S
N3323 C3325 1.356 . S
N3323 H3328 0.984 . S
N3323 H3329 0.985 . S
C3324 C3318 1.379 . S
C3324 C3321 1.363 . S
C3324 N3322 1.356 . S
C3325 C3319 1.363 . S
C3325 C3320 1.379 . S
C3325 N3323 1.356 . S
N3326 C3318 1.356 . S
N3326 H3332 0.984 . S
N3326 H3333 0.984 . S
N3327 C3320 1.356 . S
N3327 H3330 0.984 . S
N3327 H3331 0.985 . S
H3328 N3323 0.984 . S
H3329 N3323 0.985 . S
H3330 N3327 0.984 . S
H3331 N3327 0.985 . S
H3332 N3326 0.984 . S
H3333 N3326 0.984 . S
H3334 N3322 0.984 . S
H3335 N3322 0.985 . S
C3336 C3337 1.363 . S
C3336 C3342 1.379 1_655 S
C3336 N3344 1.356 . S
C3337 C3336 1.363 . S
C3337 C3343 1.363 . S
C3338 C3339 1.363 . S
C3338 C3343 1.379 1_455 S
C3338 N3345 1.356 . S
C3339 C3338 1.363 . S
C3339 C3342 1.363 . S
N3340 C3342 1.356 . S
N3340 H3352 0.984 . S
N3340 H3353 0.985 . S
N3341 C3343 1.356 . S
N3341 H3346 0.984 . S
N3341 H3347 0.985 . S
C3342 C3336 1.379 1_455 S
C3342 C3339 1.363 . S
C3342 N3340 1.356 . S
C3343 C3337 1.363 . S
C3343 C3338 1.379 1_655 S
C3343 N3341 1.356 . S
N3344 C3336 1.356 . S
N3344 H3350 0.984 . S
N3344 H3351 0.984 . S
N3345 C3338 1.356 . S
N3345 H3348 0.984 . S
N3345 H3349 0.985 . S
H3346 N3341 0.984 . S
H3347 N3341 0.985 . S
H3348 N3345 0.984 . S
H3349 N3345 0.985 . S
H3350 N3344 0.984 . S
H3351 N3344 0.984 . S
H3352 N3340 0.984 . S
H3353 N3340 0.985 . S
C3354 C3355 1.363 . S
C3354 C3360 1.379 . S
C3354 N3362 1.356 . S
C3355 C3354 1.363 . S
C3355 C3361 1.363 . S
C3356 C3357 1.363 . S
C3356 C3361 1.379 . S
C3356 N3363 1.356 . S
C3357 C3356 1.363 . S
C3357 C3360 1.363 . S
N3358 C3360 1.356 . S
N3358 H3370 0.984 . S
N3358 H3371 0.985 . S
N3359 C3361 1.356 . S
N3359 H3364 0.984 . S
N3359 H3365 0.985 . S
C3360 C3354 1.379 . S
C3360 C3357 1.363 . S
C3360 N3358 1.356 . S
C3361 C3355 1.363 . S
C3361 C3356 1.379 . S
C3361 N3359 1.356 . S
N3362 C3354 1.356 . S
N3362 H3368 0.984 . S
N3362 H3369 0.984 . S
N3363 C3356 1.356 . S
N3363 H3366 0.984 . S
N3363 H3367 0.985 . S
H3364 N3359 0.984 . S
H3365 N3359 0.985 . S
H3366 N3363 0.984 . S
H3367 N3363 0.985 . S
H3368 N3362 0.984 . S
H3369 N3362 0.984 . S
H3370 N3358 0.984 . S
H3371 N3358 0.985 . S
C3372 C3373 1.363 . S
C3372 C3378 1.379 . S
C3372 N3380 1.356 . S
C3373 C3372 1.363 . S
C3373 C3379 1.363 . S
C3374 C3375 1.363 . S
C3374 C3379 1.379 . S
C3374 N3381 1.356 . S
C3375 C3374 1.363 . S
C3375 C3378 1.363 . S
N3376 C3378 1.356 . S
N3376 H3388 0.984 . S
N3376 H3389 0.985 . S
N3377 C3379 1.356 . S
N3377 H3382 0.984 . S
N3377 H3383 0.985 . S
C3378 C3372 1.379 . S
C3378 C3375 1.363 . S
C3378 N3376 1.356 . S
C3379 C3373 1.363 . S
C3379 C3374 1.379 . S
C3379 N3377 1.356 . S
N3380 C3372 1.356 . S
N3380 H3386 0.984 . S
N3380 H3387 0.984 . S
N3381 C3374 1.356 . S
N3381 H3384 0.984 . S
N3381 H3385 0.985 . S
H3382 N3377 0.984 . S
H3383 N3377 0.985 . S
H3384 N3381 0.984 . S
H3385 N3381 0.985 . S
H3386 N3380 0.984 . S
H3387 N3380 0.984 . S
H3388 N3376 0.984 . S
H3389 N3376 0.985 . S
C3390 C3391 1.363 . S
C3390 C3396 1.379 . S
C3390 N3398 1.356 . S
C3391 C3390 1.363 . S
C3391 C3397 1.363 1_655 S
C3392 C3393 1.363 . S
C3392 C3397 1.379 . S
C3392 N3399 1.356 . S
C3393 C3392 1.363 . S
C3393 C3396 1.363 1_455 S
N3394 C3396 1.356 . S
N3394 H3406 0.984 . S
N3394 H3407 0.985 . S
N3395 C3397 1.356 . S
N3395 H3400 0.984 . S
N3395 H3401 0.985 . S
C3396 C3390 1.379 . S
C3396 C3393 1.363 1_655 S
C3396 N3394 1.356 . S
C3397 C3391 1.363 1_455 S
C3397 C3392 1.379 . S
C3397 N3395 1.356 . S
N3398 C3390 1.356 . S
N3398 H3404 0.984 . S
N3398 H3405 0.984 . S
N3399 C3392 1.356 . S
N3399 H3402 0.984 . S
N3399 H3403 0.985 . S
H3400 N3395 0.984 . S
H3401 N3395 0.985 . S
H3402 N3399 0.984 . S
H3403 N3399 0.985 . S
H3404 N3398 0.984 . S
H3405 N3398 0.984 . S
H3406 N3394 0.984 . S
H3407 N3394 0.985 . S
C3408 C3409 1.363 . S
C3408 C3414 1.379 1_455 S
C3408 N3416 1.356 . S
C3409 C3408 1.363 . S
C3409 C3415 1.363 . S
C3410 C3411 1.363 . S
C3410 C3415 1.379 1_655 S
C3410 N3417 1.356 . S
C3411 C3410 1.363 . S
C3411 C3414 1.363 . S
N3412 C3414 1.356 . S
N3412 H3424 0.984 . S
N3412 H3425 0.985 . S
N3413 C3415 1.356 . S
N3413 H3418 0.984 . S
N3413 H3419 0.985 . S
C3414 C3408 1.379 1_655 S
C3414 C3411 1.363 . S
C3414 N3412 1.356 . S
C3415 C3409 1.363 . S
C3415 C3410 1.379 1_455 S
C3415 N3413 1.356 . S
N3416 C3408 1.356 . S
N3416 H3422 0.984 . S
N3416 H3423 0.984 . S
N3417 C3410 1.356 . S
N3417 H3420 0.984 . S
N3417 H3421 0.985 . S
H3418 N3413 0.984 . S
H3419 N3413 0.985 . S
H3420 N3417 0.984 . S
H3421 N3417 0.985 . S
H3422 N3416 0.984 . S
H3423 N3416 0.984 . S
H3424 N3412 0.984 . S
H3425 N3412 0.985 . S
C3426 C3427 1.363 1_655 S
C3426 C3432 1.379 . S
C3426 N3434 1.356 . S
C3427 C3426 1.363 1_455 S
C3427 C3433 1.363 . S
C3428 C3429 1.363 1_455 S
C3428 C3433 1.379 . S
C3428 N3435 1.356 . S
C3429 C3428 1.363 1_655 S
C3429 C3432 1.363 . S
N3430 C3432 1.356 . S
N3430 H3442 0.984 . S
N3430 H3443 0.985 . S
N3431 C3433 1.356 . S
N3431 H3436 0.984 . S
N3431 H3437 0.985 . S
C3432 C3426 1.379 . S
C3432 C3429 1.363 . S
C3432 N3430 1.356 . S
C3433 C3427 1.363 . S
C3433 C3428 1.379 . S
C3433 N3431 1.356 . S
N3434 C3426 1.356 . S
N3434 H3440 0.984 . S
N3434 H3441 0.984 . S
N3435 C3428 1.356 . S
N3435 H3438 0.984 . S
N3435 H3439 0.985 . S
H3436 N3431 0.984 . S
H3437 N3431 0.985 . S
H3438 N3435 0.984 . S
H3439 N3435 0.985 . S
H3440 N3434 0.984 . S
H3441 N3434 0.984 . S
H3442 N3430 0.984 . S
H3443 N3430 0.985 . S
C3444 C3445 1.363 . S
C3444 C3450 1.379 . S
C3444 N3452 1.356 . S
C3445 C3444 1.363 . S
C3445 C3451 1.363 . S
C3446 C3447 1.363 . S
C3446 C3451 1.379 . S
C3446 N3453 1.356 . S
C3447 C3446 1.363 . S
C3447 C3450 1.363 . S
N3448 C3450 1.356 . S
N3448 H3460 0.984 . S
N3448 H3461 0.985 . S
N3449 C3451 1.356 . S
N3449 H3454 0.984 . S
N3449 H3455 0.985 . S
C3450 C3444 1.379 . S
C3450 C3447 1.363 . S
C3450 N3448 1.356 . S
C3451 C3445 1.363 . S
C3451 C3446 1.379 . S
C3451 N3449 1.356 . S
N3452 C3444 1.356 . S
N3452 H3458 0.984 . S
N3452 H3459 0.984 . S
N3453 C3446 1.356 . S
N3453 H3456 0.984 . S
N3453 H3457 0.985 . S
H3454 N3449 0.984 . S
H3455 N3449 0.985 . S
H3456 N3453 0.984 . S
H3457 N3453 0.985 . S
H3458 N3452 0.984 . S
H3459 N3452 0.984 . S
H3460 N3448 0.984 . S
H3461 N3448 0.985 . S
C3462 C3463 1.363 . S
C3462 C3468 1.379 . S
C3462 N3470 1.356 . S
C3463 C3462 1.363 . S
C3463 C3469 1.363 . S
C3464 C3465 1.363 . S
C3464 C3469 1.379 . S
C3464 N3471 1.356 . S
C3465 C3464 1.363 . S
C3465 C3468 1.363 . S
N3466 C3468 1.356 . S
N3466 H3478 0.984 . S
N3466 H3479 0.985 . S
N3467 C3469 1.356 . S
N3467 H3472 0.984 . S
N3467 H3473 0.985 . S
C3468 C3462 1.379 . S
C3468 C3465 1.363 . S
C3468 N3466 1.356 . S
C3469 C3463 1.363 . S
C3469 C3464 1.379 . S
C3469 N3467 1.356 . S
N3470 C3462 1.356 . S
N3470 H3476 0.984 . S
N3470 H3477 0.984 . S
N3471 C3464 1.356 . S
N3471 H3474 0.984 . S
N3471 H3475 0.985 . S
H3472 N3467 0.984 . S
H3473 N3467 0.985 . S
H3474 N3471 0.984 . S
H3475 N3471 0.985 . S
H3476 N3470 0.984 . S
H3477 N3470 0.984 . S
H3478 N3466 0.984 . S
H3479 N3466 0.985 . S
C3480 C3481 1.363 . S
C3480 C3486 1.379 1_455 S
C3480 N3488 1.356 . S
C3481 C3480 1.363 . S
C3481 C3487 1.363 . S
C3482 C3483 1.363 . S
C3482 C3487 1.379 1_655 S
C3482 N3489 1.356 . S
C3483 C3482 1.363 . S
C3483 C3486 1.363 . S
N3484 C3486 1.356 . S
N3484 H3496 0.984 . S
N3484 H3497 0.985 . S
N3485 C3487 1.356 . S
N3485 H3490 0.984 . S
N3485 H3491 0.985 . S
C3486 C3480 1.379 1_655 S
C3486 C3483 1.363 . S
C3486 N3484 1.356 . S
C3487 C3481 1.363 . S
C3487 C3482 1.379 1_455 S
C3487 N3485 1.356 . S
N3488 C3480 1.356 . S
N3488 H3494 0.984 . S
N3488 H3495 0.984 . S
N3489 C3482 1.356 . S
N3489 H3492 0.984 . S
N3489 H3493 0.985 . S
H3490 N3485 0.984 . S
H3491 N3485 0.985 . S
H3492 N3489 0.984 . S
H3493 N3489 0.985 . S
H3494 N3488 0.984 . S
H3495 N3488 0.984 . S
H3496 N3484 0.984 . S
H3497 N3484 0.985 . S
C3498 C3499 1.363 . S
C3498 C3504 1.379 . S
C3498 N3506 1.356 . S
C3499 C3498 1.363 . S
C3499 C3505 1.363 . S
C3500 C3501 1.363 . S
C3500 C3505 1.379 . S
C3500 N3507 1.356 . S
C3501 C3500 1.363 . S
C3501 C3504 1.363 . S
N3502 C3504 1.356 . S
N3502 H3514 0.984 . S
N3502 H3515 0.985 . S
N3503 C3505 1.356 . S
N3503 H3508 0.984 . S
N3503 H3509 0.985 . S
C3504 C3498 1.379 . S
C3504 C3501 1.363 . S
C3504 N3502 1.356 . S
C3505 C3499 1.363 . S
C3505 C3500 1.379 . S
C3505 N3503 1.356 . S
N3506 C3498 1.356 . S
N3506 H3512 0.984 . S
N3506 H3513 0.984 . S
N3507 C3500 1.356 . S
N3507 H3510 0.984 . S
N3507 H3511 0.985 . S
H3508 N3503 0.984 . S
H3509 N3503 0.985 . S
H3510 N3507 0.984 . S
H3511 N3507 0.985 . S
H3512 N3506 0.984 . S
H3513 N3506 0.984 . S
H3514 N3502 0.984 . S
H3515 N3502 0.985 . S
C3516 C3517 1.363 . S
C3516 C3522 1.379 . S
C3516 N3524 1.356 . S
C3517 C3516 1.363 . S
C3517 C3523 1.363 . S
C3518 C3519 1.363 . S
C3518 C3523 1.379 . S
C3518 N3525 1.356 . S
C3519 C3518 1.363 . S
C3519 C3522 1.363 . S
N3520 C3522 1.356 . S
N3520 H3532 0.984 . S
N3520 H3533 0.985 . S
N3521 C3523 1.356 . S
N3521 H3526 0.984 . S
N3521 H3527 0.985 . S
C3522 C3516 1.379 . S
C3522 C3519 1.363 . S
C3522 N3520 1.356 . S
C3523 C3517 1.363 . S
C3523 C3518 1.379 . S
C3523 N3521 1.356 . S
N3524 C3516 1.356 . S
N3524 H3530 0.984 . S
N3524 H3531 0.984 . S
N3525 C3518 1.356 . S
N3525 H3528 0.984 . S
N3525 H3529 0.985 . S
H3526 N3521 0.984 . S
H3527 N3521 0.985 . S
H3528 N3525 0.984 . S
H3529 N3525 0.985 . S
H3530 N3524 0.984 . S
H3531 N3524 0.984 . S
H3532 N3520 0.984 . S
H3533 N3520 0.985 . S
C3534 C3535 1.363 1_655 S
C3534 C3540 1.379 . S
C3534 N3542 1.356 . S
C3535 C3534 1.363 1_455 S
C3535 C3541 1.363 . S
C3536 C3537 1.363 1_455 S
C3536 C3541 1.379 . S
C3536 N3543 1.356 . S
C3537 C3536 1.363 1_655 S
C3537 C3540 1.363 . S
N3538 C3540 1.356 . S
N3538 H3550 0.984 . S
N3538 H3551 0.985 . S
N3539 C3541 1.356 . S
N3539 H3544 0.984 . S
N3539 H3545 0.985 . S
C3540 C3534 1.379 . S
C3540 C3537 1.363 . S
C3540 N3538 1.356 . S
C3541 C3535 1.363 . S
C3541 C3536 1.379 . S
C3541 N3539 1.356 . S
N3542 C3534 1.356 . S
N3542 H3548 0.984 . S
N3542 H3549 0.984 . S
N3543 C3536 1.356 . S
N3543 H3546 0.984 . S
N3543 H3547 0.985 . S
H3544 N3539 0.984 . S
H3545 N3539 0.985 . S
H3546 N3543 0.984 . S
H3547 N3543 0.985 . S
H3548 N3542 0.984 . S
H3549 N3542 0.984 . S
H3550 N3538 0.984 . S
H3551 N3538 0.985 . S
C3552 C3553 1.363 . S
C3552 C3558 1.379 . S
C3552 N3560 1.356 . S
C3553 C3552 1.363 . S
C3553 C3559 1.363 . S
C3554 C3555 1.363 . S
C3554 C3559 1.379 . S
C3554 N3561 1.356 . S
C3555 C3554 1.363 . S
C3555 C3558 1.363 . S
N3556 C3558 1.356 . S
N3556 H3568 0.984 . S
N3556 H3569 0.985 . S
N3557 C3559 1.356 . S
N3557 H3562 0.984 . S
N3557 H3563 0.985 . S
C3558 C3552 1.379 . S
C3558 C3555 1.363 . S
C3558 N3556 1.356 . S
C3559 C3553 1.363 . S
C3559 C3554 1.379 . S
C3559 N3557 1.356 . S
N3560 C3552 1.356 . S
N3560 H3566 0.984 . S
N3560 H3567 0.984 . S
N3561 C3554 1.356 . S
N3561 H3564 0.984 . S
N3561 H3565 0.985 . S
H3562 N3557 0.984 . S
H3563 N3557 0.985 . S
H3564 N3561 0.984 . S
H3565 N3561 0.985 . S
H3566 N3560 0.984 . S
H3567 N3560 0.984 . S
H3568 N3556 0.984 . S
H3569 N3556 0.985 . S
C3570 C3571 1.363 1_565 S
C3570 C3576 1.379 . S
C3570 N3578 1.356 . S
C3571 C3570 1.363 1_545 S
C3571 C3577 1.363 1_655 S
C3572 C3573 1.363 1_545 S
C3572 C3577 1.379 . S
C3572 N3579 1.356 . S
C3573 C3572 1.363 1_565 S
C3573 C3576 1.363 1_455 S
N3574 C3576 1.356 . S
N3574 H3586 0.984 . S
N3574 H3587 0.985 . S
N3575 C3577 1.356 . S
N3575 H3580 0.984 . S
N3575 H3581 0.985 . S
C3576 C3570 1.379 . S
C3576 C3573 1.363 1_655 S
C3576 N3574 1.356 . S
C3577 C3571 1.363 1_455 S
C3577 C3572 1.379 . S
C3577 N3575 1.356 . S
N3578 C3570 1.356 . S
N3578 H3584 0.984 . S
N3578 H3585 0.984 . S
N3579 C3572 1.356 . S
N3579 H3582 0.984 . S
N3579 H3583 0.985 . S
H3580 N3575 0.984 . S
H3581 N3575 0.985 . S
H3582 N3579 0.984 . S
H3583 N3579 0.985 . S
H3584 N3578 0.984 . S
H3585 N3578 0.984 . S
H3586 N3574 0.984 . S
H3587 N3574 0.985 . S
C3588 C3589 1.363 . S
C3588 C3594 1.379 . S
C3588 N3596 1.356 . S
C3589 C3588 1.363 . S
C3589 C3595 1.363 . S
C3590 C3591 1.363 . S
C3590 C3595 1.379 . S
C3590 N3597 1.356 . S
C3591 C3590 1.363 . S
C3591 C3594 1.363 . S
N3592 C3594 1.356 . S
N3592 H3604 0.984 . S
N3592 H3605 0.985 . S
N3593 C3595 1.356 . S
N3593 H3598 0.984 . S
N3593 H3599 0.985 . S
C3594 C3588 1.379 . S
C3594 C3591 1.363 . S
C3594 N3592 1.356 . S
C3595 C3589 1.363 . S
C3595 C3590 1.379 . S
C3595 N3593 1.356 . S
N3596 C3588 1.356 . S
N3596 H3602 0.984 . S
N3596 H3603 0.984 . S
N3597 C3590 1.356 . S
N3597 H3600 0.984 . S
N3597 H3601 0.985 . S
H3598 N3593 0.984 . S
H3599 N3593 0.985 . S
H3600 N3597 0.984 . S
H3601 N3597 0.985 . S
H3602 N3596 0.984 . S
H3603 N3596 0.984 . S
H3604 N3592 0.984 . S
H3605 N3592 0.985 . S
C3606 C3607 1.363 1_565 S
C3606 C3612 1.379 1_554 S
C3606 N3614 1.356 . S
C3607 C3606 1.363 1_545 S
C3607 C3613 1.363 . S
C3608 C3609 1.363 1_545 S
C3608 C3613 1.379 1_556 S
C3608 N3615 1.356 . S
C3609 C3608 1.363 1_565 S
C3609 C3612 1.363 . S
N3610 C3612 1.356 . S
N3610 H3622 0.984 . S
N3610 H3623 0.985 . S
N3611 C3613 1.356 . S
N3611 H3616 0.984 . S
N3611 H3617 0.985 . S
C3612 C3606 1.379 1_556 S
C3612 C3609 1.363 . S
C3612 N3610 1.356 . S
C3613 C3607 1.363 . S
C3613 C3608 1.379 1_554 S
C3613 N3611 1.356 . S
N3614 C3606 1.356 . S
N3614 H3620 0.984 . S
N3614 H3621 0.984 . S
N3615 C3608 1.356 . S
N3615 H3618 0.984 . S
N3615 H3619 0.985 . S
H3616 N3611 0.984 . S
H3617 N3611 0.985 . S
H3618 N3615 0.984 . S
H3619 N3615 0.985 . S
H3620 N3614 0.984 . S
H3621 N3614 0.984 . S
H3622 N3610 0.984 . S
H3623 N3610 0.985 . S
C3624 C3625 1.363 . S
C3624 C3630 1.379 . S
C3624 N3632 1.356 . S
C3625 C3624 1.363 . S
C3625 C3631 1.363 . S
C3626 C3627 1.363 . S
C3626 C3631 1.379 . S
C3626 N3633 1.356 . S
C3627 C3626 1.363 . S
C3627 C3630 1.363 . S
N3628 C3630 1.356 . S
N3628 H3640 0.984 . S
N3628 H3641 0.985 . S
N3629 C3631 1.356 . S
N3629 H3634 0.984 . S
N3629 H3635 0.985 . S
C3630 C3624 1.379 . S
C3630 C3627 1.363 . S
C3630 N3628 1.356 . S
C3631 C3625 1.363 . S
C3631 C3626 1.379 . S
C3631 N3629 1.356 . S
N3632 C3624 1.356 . S
N3632 H3638 0.984 . S
N3632 H3639 0.984 . S
N3633 C3626 1.356 . S
N3633 H3636 0.984 . S
N3633 H3637 0.985 . S
H3634 N3629 0.984 . S
H3635 N3629 0.985 . S
H3636 N3633 0.984 . S
H3637 N3633 0.985 . S
H3638 N3632 0.984 . S
H3639 N3632 0.984 . S
H3640 N3628 0.984 . S
H3641 N3628 0.985 . S
C3642 C3643 1.363 1_565 S
C3642 C3648 1.379 . S
C3642 N3650 1.356 . S
C3643 C3642 1.363 1_545 S
C3643 C3649 1.363 . S
C3644 C3645 1.363 1_545 S
C3644 C3649 1.379 . S
C3644 N3651 1.356 . S
C3645 C3644 1.363 1_565 S
C3645 C3648 1.363 . S
N3646 C3648 1.356 . S
N3646 H3658 0.984 . S
N3646 H3659 0.985 . S
N3647 C3649 1.356 . S
N3647 H3652 0.984 . S
N3647 H3653 0.985 . S
C3648 C3642 1.379 . S
C3648 C3645 1.363 . S
C3648 N3646 1.356 . S
C3649 C3643 1.363 . S
C3649 C3644 1.379 . S
C3649 N3647 1.356 . S
N3650 C3642 1.356 . S
N3650 H3656 0.984 . S
N3650 H3657 0.984 . S
N3651 C3644 1.356 . S
N3651 H3654 0.984 . S
N3651 H3655 0.985 . S
H3652 N3647 0.984 . S
H3653 N3647 0.985 . S
H3654 N3651 0.984 . S
H3655 N3651 0.985 . S
H3656 N3650 0.984 . S
H3657 N3650 0.984 . S
H3658 N3646 0.984 . S
H3659 N3646 0.985 . S
C3660 C3661 1.363 . S
C3660 C3666 1.379 . S
C3660 N3668 1.356 . S
C3661 C3660 1.363 . S
C3661 C3667 1.363 . S
C3662 C3663 1.363 . S
C3662 C3667 1.379 . S
C3662 N3669 1.356 . S
C3663 C3662 1.363 . S
C3663 C3666 1.363 . S
N3664 C3666 1.356 . S
N3664 H3676 0.984 . S
N3664 H3677 0.985 . S
N3665 C3667 1.356 . S
N3665 H3670 0.984 . S
N3665 H3671 0.985 . S
C3666 C3660 1.379 . S
C3666 C3663 1.363 . S
C3666 N3664 1.356 . S
C3667 C3661 1.363 . S
C3667 C3662 1.379 . S
C3667 N3665 1.356 . S
N3668 C3660 1.356 . S
N3668 H3674 0.984 . S
N3668 H3675 0.984 . S
N3669 C3662 1.356 . S
N3669 H3672 0.984 . S
N3669 H3673 0.985 . S
H3670 N3665 0.984 . S
H3671 N3665 0.985 . S
H3672 N3669 0.984 . S
H3673 N3669 0.985 . S
H3674 N3668 0.984 . S
H3675 N3668 0.984 . S
H3676 N3664 0.984 . S
H3677 N3664 0.985 . S
C3678 C3679 1.363 . S
C3678 C3684 1.379 1_556 S
C3678 N3686 1.356 . S
C3679 C3678 1.363 . S
C3679 C3685 1.363 1_445 S
C3680 C3681 1.363 . S
C3680 C3685 1.379 1_554 S
C3680 N3687 1.356 . S
C3681 C3680 1.363 . S
C3681 C3684 1.363 1_665 S
N3682 C3684 1.356 . S
N3682 H3694 0.984 . S
N3682 H3695 0.985 . S
N3683 C3685 1.356 . S
N3683 H3688 0.984 . S
N3683 H3689 0.985 . S
C3684 C3678 1.379 1_554 S
C3684 C3681 1.363 1_445 S
C3684 N3682 1.356 . S
C3685 C3679 1.363 1_665 S
C3685 C3680 1.379 1_556 S
C3685 N3683 1.356 . S
N3686 C3678 1.356 . S
N3686 H3692 0.984 . S
N3686 H3693 0.984 . S
N3687 C3680 1.356 . S
N3687 H3690 0.984 . S
N3687 H3691 0.985 . S
H3688 N3683 0.984 . S
H3689 N3683 0.985 . S
H3690 N3687 0.984 . S
H3691 N3687 0.985 . S
H3692 N3686 0.984 . S
H3693 N3686 0.984 . S
H3694 N3682 0.984 . S
H3695 N3682 0.985 . S
C3696 C3697 1.363 . S
C3696 C3702 1.379 . S
C3696 N3704 1.356 . S
C3697 C3696 1.363 . S
C3697 C3703 1.363 . S
C3698 C3699 1.363 . S
C3698 C3703 1.379 . S
C3698 N3705 1.356 . S
C3699 C3698 1.363 . S
C3699 C3702 1.363 . S
N3700 C3702 1.356 . S
N3700 H3712 0.984 . S
N3700 H3713 0.985 . S
N3701 C3703 1.356 . S
N3701 H3706 0.984 . S
N3701 H3707 0.985 . S
C3702 C3696 1.379 . S
C3702 C3699 1.363 . S
C3702 N3700 1.356 . S
C3703 C3697 1.363 . S
C3703 C3698 1.379 . S
C3703 N3701 1.356 . S
N3704 C3696 1.356 . S
N3704 H3710 0.984 . S
N3704 H3711 0.984 . S
N3705 C3698 1.356 . S
N3705 H3708 0.984 . S
N3705 H3709 0.985 . S
H3706 N3701 0.984 . S
H3707 N3701 0.985 . S
H3708 N3705 0.984 . S
H3709 N3705 0.985 . S
H3710 N3704 0.984 . S
H3711 N3704 0.984 . S
H3712 N3700 0.984 . S
H3713 N3700 0.985 . S
C3714 C3715 1.363 . S
C3714 C3720 1.379 . S
C3714 N3722 1.356 . S
C3715 C3714 1.363 . S
C3715 C3721 1.363 . S
C3716 C3717 1.363 . S
C3716 C3721 1.379 . S
C3716 N3723 1.356 . S
C3717 C3716 1.363 . S
C3717 C3720 1.363 . S
N3718 C3720 1.356 . S
N3718 H3730 0.984 . S
N3718 H3731 0.985 . S
N3719 C3721 1.356 . S
N3719 H3724 0.984 . S
N3719 H3725 0.985 . S
C3720 C3714 1.379 . S
C3720 C3717 1.363 . S
C3720 N3718 1.356 . S
C3721 C3715 1.363 . S
C3721 C3716 1.379 . S
C3721 N3719 1.356 . S
N3722 C3714 1.356 . S
N3722 H3728 0.984 . S
N3722 H3729 0.984 . S
N3723 C3716 1.356 . S
N3723 H3726 0.984 . S
N3723 H3727 0.985 . S
H3724 N3719 0.984 . S
H3725 N3719 0.985 . S
H3726 N3723 0.984 . S
H3727 N3723 0.985 . S
H3728 N3722 0.984 . S
H3729 N3722 0.984 . S
H3730 N3718 0.984 . S
H3731 N3718 0.985 . S
C3732 C3733 1.363 . S
C3732 C3738 1.379 . S
C3732 N3740 1.356 . S
C3733 C3732 1.363 . S
C3733 C3739 1.363 . S
C3734 C3735 1.363 . S
C3734 C3739 1.379 . S
C3734 N3741 1.356 . S
C3735 C3734 1.363 . S
C3735 C3738 1.363 . S
N3736 C3738 1.356 . S
N3736 H3748 0.984 . S
N3736 H3749 0.985 . S
N3737 C3739 1.356 . S
N3737 H3742 0.984 . S
N3737 H3743 0.985 . S
C3738 C3732 1.379 . S
C3738 C3735 1.363 . S
C3738 N3736 1.356 . S
C3739 C3733 1.363 . S
C3739 C3734 1.379 . S
C3739 N3737 1.356 . S
N3740 C3732 1.356 . S
N3740 H3746 0.984 . S
N3740 H3747 0.984 . S
N3741 C3734 1.356 . S
N3741 H3744 0.984 . S
N3741 H3745 0.985 . S
H3742 N3737 0.984 . S
H3743 N3737 0.985 . S
H3744 N3741 0.984 . S
H3745 N3741 0.985 . S
H3746 N3740 0.984 . S
H3747 N3740 0.984 . S
H3748 N3736 0.984 . S
H3749 N3736 0.985 . S
C3750 C3751 1.363 . S
C3750 C3756 1.379 . S
C3750 N3758 1.356 . S
C3751 C3750 1.363 . S
C3751 C3757 1.363 . S
C3752 C3753 1.363 . S
C3752 C3757 1.379 . S
C3752 N3759 1.356 . S
C3753 C3752 1.363 . S
C3753 C3756 1.363 . S
N3754 C3756 1.356 . S
N3754 H3766 0.984 . S
N3754 H3767 0.985 . S
N3755 C3757 1.356 . S
N3755 H3760 0.984 . S
N3755 H3761 0.985 . S
C3756 C3750 1.379 . S
C3756 C3753 1.363 . S
C3756 N3754 1.356 . S
C3757 C3751 1.363 . S
C3757 C3752 1.379 . S
C3757 N3755 1.356 . S
N3758 C3750 1.356 . S
N3758 H3764 0.984 . S
N3758 H3765 0.984 . S
N3759 C3752 1.356 . S
N3759 H3762 0.984 . S
N3759 H3763 0.985 . S
H3760 N3755 0.984 . S
H3761 N3755 0.985 . S
H3762 N3759 0.984 . S
H3763 N3759 0.985 . S
H3764 N3758 0.984 . S
H3765 N3758 0.984 . S
H3766 N3754 0.984 . S
H3767 N3754 0.985 . S
C3768 C3769 1.363 . S
C3768 C3774 1.379 1_554 S
C3768 N3776 1.356 . S
C3769 C3768 1.363 . S
C3769 C3775 1.363 . S
C3770 C3771 1.363 . S
C3770 C3775 1.379 1_556 S
C3770 N3777 1.356 . S
C3771 C3770 1.363 . S
C3771 C3774 1.363 . S
N3772 C3774 1.356 . S
N3772 H3784 0.984 . S
N3772 H3785 0.985 . S
N3773 C3775 1.356 . S
N3773 H3778 0.984 . S
N3773 H3779 0.985 . S
C3774 C3768 1.379 1_556 S
C3774 C3771 1.363 . S
C3774 N3772 1.356 . S
C3775 C3769 1.363 . S
C3775 C3770 1.379 1_554 S
C3775 N3773 1.356 . S
N3776 C3768 1.356 . S
N3776 H3782 0.984 . S
N3776 H3783 0.984 . S
N3777 C3770 1.356 . S
N3777 H3780 0.984 . S
N3777 H3781 0.985 . S
H3778 N3773 0.984 . S
H3779 N3773 0.985 . S
H3780 N3777 0.984 . S
H3781 N3777 0.985 . S
H3782 N3776 0.984 . S
H3783 N3776 0.984 . S
H3784 N3772 0.984 . S
H3785 N3772 0.985 . S
C3786 C3787 1.363 1_455 S
C3786 C3792 1.379 . S
C3786 N3794 1.356 . S
C3787 C3786 1.363 1_655 S
C3787 C3793 1.363 . S
C3788 C3789 1.363 1_655 S
C3788 C3793 1.379 . S
C3788 N3795 1.356 . S
C3789 C3788 1.363 1_455 S
C3789 C3792 1.363 . S
N3790 C3792 1.356 . S
N3790 H3802 0.984 . S
N3790 H3803 0.985 . S
N3791 C3793 1.356 . S
N3791 H3796 0.984 . S
N3791 H3797 0.985 . S
C3792 C3786 1.379 . S
C3792 C3789 1.363 . S
C3792 N3790 1.356 . S
C3793 C3787 1.363 . S
C3793 C3788 1.379 . S
C3793 N3791 1.356 . S
N3794 C3786 1.356 . S
N3794 H3800 0.984 . S
N3794 H3801 0.984 . S
N3795 C3788 1.356 . S
N3795 H3798 0.984 . S
N3795 H3799 0.985 . S
H3796 N3791 0.984 . S
H3797 N3791 0.985 . S
H3798 N3795 0.984 . S
H3799 N3795 0.985 . S
H3800 N3794 0.984 . S
H3801 N3794 0.984 . S
H3802 N3790 0.984 . S
H3803 N3790 0.985 . S
C3804 C3805 1.363 1_655 S
C3804 C3810 1.379 1_554 S
C3804 N3812 1.356 . S
C3805 C3804 1.363 1_455 S
C3805 C3811 1.363 . S
C3806 C3807 1.363 1_455 S
C3806 C3811 1.379 1_556 S
C3806 N3813 1.356 . S
C3807 C3806 1.363 1_655 S
C3807 C3810 1.363 . S
N3808 C3810 1.356 . S
N3808 H3820 0.984 . S
N3808 H3821 0.985 . S
N3809 C3811 1.356 . S
N3809 H3814 0.984 . S
N3809 H3815 0.985 . S
C3810 C3804 1.379 1_556 S
C3810 C3807 1.363 . S
C3810 N3808 1.356 . S
C3811 C3805 1.363 . S
C3811 C3806 1.379 1_554 S
C3811 N3809 1.356 . S
N3812 C3804 1.356 . S
N3812 H3818 0.984 . S
N3812 H3819 0.984 . S
N3813 C3806 1.356 . S
N3813 H3816 0.984 . S
N3813 H3817 0.985 . S
H3814 N3809 0.984 . S
H3815 N3809 0.985 . S
H3816 N3813 0.984 . S
H3817 N3813 0.985 . S
H3818 N3812 0.984 . S
H3819 N3812 0.984 . S
H3820 N3808 0.984 . S
H3821 N3808 0.985 . S
C3822 C3823 1.363 . S
C3822 C3828 1.379 . S
C3822 N3830 1.356 . S
C3823 C3822 1.363 . S
C3823 C3829 1.363 . S
C3824 C3825 1.363 . S
C3824 C3829 1.379 . S
C3824 N3831 1.356 . S
C3825 C3824 1.363 . S
C3825 C3828 1.363 . S
N3826 C3828 1.356 . S
N3826 H3838 0.984 . S
N3826 H3839 0.985 . S
N3827 C3829 1.356 . S
N3827 H3832 0.984 . S
N3827 H3833 0.985 . S
C3828 C3822 1.379 . S
C3828 C3825 1.363 . S
C3828 N3826 1.356 . S
C3829 C3823 1.363 . S
C3829 C3824 1.379 . S
C3829 N3827 1.356 . S
N3830 C3822 1.356 . S
N3830 H3836 0.984 . S
N3830 H3837 0.984 . S
N3831 C3824 1.356 . S
N3831 H3834 0.984 . S
N3831 H3835 0.985 . S
H3832 N3827 0.984 . S
H3833 N3827 0.985 . S
H3834 N3831 0.984 . S
H3835 N3831 0.985 . S
H3836 N3830 0.984 . S
H3837 N3830 0.984 . S
H3838 N3826 0.984 . S
H3839 N3826 0.985 . S
C3840 C3841 1.363 . S
C3840 C3846 1.379 . S
C3840 N3848 1.356 . S
C3841 C3840 1.363 . S
C3841 C3847 1.363 . S
C3842 C3843 1.363 . S
C3842 C3847 1.379 . S
C3842 N3849 1.356 . S
C3843 C3842 1.363 . S
C3843 C3846 1.363 . S
N3844 C3846 1.356 . S
N3844 H3856 0.984 . S
N3844 H3857 0.985 . S
N3845 C3847 1.356 . S
N3845 H3850 0.984 . S
N3845 H3851 0.985 . S
C3846 C3840 1.379 . S
C3846 C3843 1.363 . S
C3846 N3844 1.356 . S
C3847 C3841 1.363 . S
C3847 C3842 1.379 . S
C3847 N3845 1.356 . S
N3848 C3840 1.356 . S
N3848 H3854 0.984 . S
N3848 H3855 0.984 . S
N3849 C3842 1.356 . S
N3849 H3852 0.984 . S
N3849 H3853 0.985 . S
H3850 N3845 0.984 . S
H3851 N3845 0.985 . S
H3852 N3849 0.984 . S
H3853 N3849 0.985 . S
H3854 N3848 0.984 . S
H3855 N3848 0.984 . S
H3856 N3844 0.984 . S
H3857 N3844 0.985 . S
C3858 C3859 1.363 . S
C3858 C3864 1.379 . S
C3858 N3866 1.356 . S
C3859 C3858 1.363 . S
C3859 C3865 1.363 . S
C3860 C3861 1.363 . S
C3860 C3865 1.379 . S
C3860 N3867 1.356 . S
C3861 C3860 1.363 . S
C3861 C3864 1.363 . S
N3862 C3864 1.356 . S
N3862 H3874 0.984 . S
N3862 H3875 0.985 . S
N3863 C3865 1.356 . S
N3863 H3868 0.984 . S
N3863 H3869 0.985 . S
C3864 C3858 1.379 . S
C3864 C3861 1.363 . S
C3864 N3862 1.356 . S
C3865 C3859 1.363 . S
C3865 C3860 1.379 . S
C3865 N3863 1.356 . S
N3866 C3858 1.356 . S
N3866 H3872 0.984 . S
N3866 H3873 0.984 . S
N3867 C3860 1.356 . S
N3867 H3870 0.984 . S
N3867 H3871 0.985 . S
H3868 N3863 0.984 . S
H3869 N3863 0.985 . S
H3870 N3867 0.984 . S
H3871 N3867 0.985 . S
H3872 N3866 0.984 . S
H3873 N3866 0.984 . S
H3874 N3862 0.984 . S
H3875 N3862 0.985 . S
C3876 C3877 1.363 . S
C3876 C3882 1.379 . S
C3876 N3884 1.356 . S
C3877 C3876 1.363 . S
C3877 C3883 1.363 . S
C3878 C3879 1.363 . S
C3878 C3883 1.379 . S
C3878 N3885 1.356 . S
C3879 C3878 1.363 . S
C3879 C3882 1.363 . S
N3880 C3882 1.356 . S
N3880 H3892 0.984 . S
N3880 H3893 0.985 . S
N3881 C3883 1.356 . S
N3881 H3886 0.984 . S
N3881 H3887 0.985 . S
C3882 C3876 1.379 . S
C3882 C3879 1.363 . S
C3882 N3880 1.356 . S
C3883 C3877 1.363 . S
C3883 C3878 1.379 . S
C3883 N3881 1.356 . S
N3884 C3876 1.356 . S
N3884 H3890 0.984 . S
N3884 H3891 0.984 . S
N3885 C3878 1.356 . S
N3885 H3888 0.984 . S
N3885 H3889 0.985 . S
H3886 N3881 0.984 . S
H3887 N3881 0.985 . S
H3888 N3885 0.984 . S
H3889 N3885 0.985 . S
H3890 N3884 0.984 . S
H3891 N3884 0.984 . S
H3892 N3880 0.984 . S
H3893 N3880 0.985 . S
C3894 C3895 1.363 . S
C3894 C3900 1.379 . S
C3894 N3902 1.356 . S
C3895 C3894 1.363 . S
C3895 C3901 1.363 . S
C3896 C3897 1.363 . S
C3896 C3901 1.379 . S
C3896 N3903 1.356 . S
C3897 C3896 1.363 . S
C3897 C3900 1.363 . S
N3898 C3900 1.356 . S
N3898 H3910 0.984 . S
N3898 H3911 0.985 . S
N3899 C3901 1.356 . S
N3899 H3904 0.984 . S
N3899 H3905 0.985 . S
C3900 C3894 1.379 . S
C3900 C3897 1.363 . S
C3900 N3898 1.356 . S
C3901 C3895 1.363 . S
C3901 C3896 1.379 . S
C3901 N3899 1.356 . S
N3902 C3894 1.356 . S
N3902 H3908 0.984 . S
N3902 H3909 0.984 . S
N3903 C3896 1.356 . S
N3903 H3906 0.984 . S
N3903 H3907 0.985 . S
H3904 N3899 0.984 . S
H3905 N3899 0.985 . S
H3906 N3903 0.984 . S
H3907 N3903 0.985 . S
H3908 N3902 0.984 . S
H3909 N3902 0.984 . S
H3910 N3898 0.984 . S
H3911 N3898 0.985 . S
C3912 C3913 1.363 . S
C3912 C3918 1.379 . S
C3912 N3920 1.356 . S
C3913 C3912 1.363 . S
C3913 C3919 1.363 . S
C3914 C3915 1.363 . S
C3914 C3919 1.379 . S
C3914 N3921 1.356 . S
C3915 C3914 1.363 . S
C3915 C3918 1.363 . S
N3916 C3918 1.356 . S
N3916 H3928 0.984 . S
N3916 H3929 0.985 . S
N3917 C3919 1.356 . S
N3917 H3922 0.984 . S
N3917 H3923 0.985 . S
C3918 C3912 1.379 . S
C3918 C3915 1.363 . S
C3918 N3916 1.356 . S
C3919 C3913 1.363 . S
C3919 C3914 1.379 . S
C3919 N3917 1.356 . S
N3920 C3912 1.356 . S
N3920 H3926 0.984 . S
N3920 H3927 0.984 . S
N3921 C3914 1.356 . S
N3921 H3924 0.984 . S
N3921 H3925 0.985 1_565 S
H3922 N3917 0.984 . S
H3923 N3917 0.985 . S
H3924 N3921 0.984 . S
H3925 N3921 0.985 1_545 S
H3926 N3920 0.984 . S
H3927 N3920 0.984 . S
H3928 N3916 0.984 . S
H3929 N3916 0.985 . S
C3930 C3931 1.363 . S
C3930 C3936 1.379 . S
C3930 N3938 1.356 . S
C3931 C3930 1.363 . S
C3931 C3937 1.363 . S
C3932 C3933 1.363 . S
C3932 C3937 1.379 . S
C3932 N3939 1.356 . S
C3933 C3932 1.363 . S
C3933 C3936 1.363 . S
N3934 C3936 1.356 . S
N3934 H3946 0.984 . S
N3934 H3947 0.985 . S
N3935 C3937 1.356 . S
N3935 H3940 0.984 . S
N3935 H3941 0.985 . S
C3936 C3930 1.379 . S
C3936 C3933 1.363 . S
C3936 N3934 1.356 . S
C3937 C3931 1.363 . S
C3937 C3932 1.379 . S
C3937 N3935 1.356 . S
N3938 C3930 1.356 . S
N3938 H3944 0.984 . S
N3938 H3945 0.984 . S
N3939 C3932 1.356 . S
N3939 H3942 0.984 . S
N3939 H3943 0.985 . S
H3940 N3935 0.984 . S
H3941 N3935 0.985 . S
H3942 N3939 0.984 . S
H3943 N3939 0.985 . S
H3944 N3938 0.984 . S
H3945 N3938 0.984 . S
H3946 N3934 0.984 . S
H3947 N3934 0.985 . S
C3948 C3949 1.363 . S
C3948 C3954 1.379 . S
C3948 N3956 1.356 . S
C3949 C3948 1.363 . S
C3949 C3955 1.363 . S
C3950 C3951 1.363 . S
C3950 C3955 1.379 . S
C3950 N3957 1.356 . S
C3951 C3950 1.363 . S
C3951 C3954 1.363 . S
N3952 C3954 1.356 . S
N3952 H3964 0.984 . S
N3952 H3965 0.985 . S
N3953 C3955 1.356 . S
N3953 H3958 0.984 . S
N3953 H3959 0.985 . S
C3954 C3948 1.379 . S
C3954 C3951 1.363 . S
C3954 N3952 1.356 . S
C3955 C3949 1.363 . S
C3955 C3950 1.379 . S
C3955 N3953 1.356 . S
N3956 C3948 1.356 . S
N3956 H3962 0.984 . S
N3956 H3963 0.984 . S
N3957 C3950 1.356 . S
N3957 H3960 0.984 . S
N3957 H3961 0.985 . S
H3958 N3953 0.984 . S
H3959 N3953 0.985 . S
H3960 N3957 0.984 . S
H3961 N3957 0.985 . S
H3962 N3956 0.984 . S
H3963 N3956 0.984 . S
H3964 N3952 0.984 . S
H3965 N3952 0.985 . S
C3966 C3967 1.363 . S
C3966 C3972 1.379 . S
C3966 N3974 1.356 . S
C3967 C3966 1.363 . S
C3967 C3973 1.363 . S
C3968 C3969 1.363 . S
C3968 C3973 1.379 . S
C3968 N3975 1.356 . S
C3969 C3968 1.363 . S
C3969 C3972 1.363 . S
N3970 C3972 1.356 . S
N3970 H3982 0.984 . S
N3970 H3983 0.985 . S
N3971 C3973 1.356 . S
N3971 H3976 0.984 . S
N3971 H3977 0.985 . S
C3972 C3966 1.379 . S
C3972 C3969 1.363 . S
C3972 N3970 1.356 . S
C3973 C3967 1.363 . S
C3973 C3968 1.379 . S
C3973 N3971 1.356 . S
N3974 C3966 1.356 . S
N3974 H3980 0.984 . S
N3974 H3981 0.984 . S
N3975 C3968 1.356 . S
N3975 H3978 0.984 . S
N3975 H3979 0.985 . S
H3976 N3971 0.984 . S
H3977 N3971 0.985 . S
H3978 N3975 0.984 . S
H3979 N3975 0.985 . S
H3980 N3974 0.984 . S
H3981 N3974 0.984 . S
H3982 N3970 0.984 . S
H3983 N3970 0.985 . S
C3984 C3985 1.363 . S
C3984 C3990 1.379 . S
C3984 N3992 1.356 . S
C3985 C3984 1.363 . S
C3985 C3991 1.363 . S
C3986 C3987 1.363 . S
C3986 C3991 1.379 . S
C3986 N3993 1.356 . S
C3987 C3986 1.363 . S
C3987 C3990 1.363 . S
N3988 C3990 1.356 . S
N3988 H4000 0.984 . S
N3988 H4001 0.985 . S
N3989 C3991 1.356 . S
N3989 H3994 0.984 . S
N3989 H3995 0.985 . S
C3990 C3984 1.379 . S
C3990 C3987 1.363 . S
C3990 N3988 1.356 . S
C3991 C3985 1.363 . S
C3991 C3986 1.379 . S
C3991 N3989 1.356 . S
N3992 C3984 1.356 . S
N3992 H3998 0.984 . S
N3992 H3999 0.984 . S
N3993 C3986 1.356 . S
N3993 H3996 0.984 . S
N3993 H3997 0.985 . S
H3994 N3989 0.984 . S
H3995 N3989 0.985 . S
H3996 N3993 0.984 . S
H3997 N3993 0.985 . S
H3998 N3992 0.984 . S
H3999 N3992 0.984 . S
H4000 N3988 0.984 . S
H4001 N3988 0.985 . S
C4002 C4003 1.363 . S
C4002 C4008 1.379 . S
C4002 N4010 1.356 . S
C4003 C4002 1.363 . S
C4003 C4009 1.363 . S
C4004 C4005 1.363 . S
C4004 C4009 1.379 . S
C4004 N4011 1.356 . S
C4005 C4004 1.363 . S
C4005 C4008 1.363 . S
N4006 C4008 1.356 . S
N4006 H4018 0.984 . S
N4006 H4019 0.985 . S
N4007 C4009 1.356 . S
N4007 H4012 0.984 . S
N4007 H4013 0.985 . S
C4008 C4002 1.379 . S
C4008 C4005 1.363 . S
C4008 N4006 1.356 . S
C4009 C4003 1.363 . S
C4009 C4004 1.379 . S
C4009 N4007 1.356 . S
N4010 C4002 1.356 . S
N4010 H4016 0.984 . S
N4010 H4017 0.984 . S
N4011 C4004 1.356 . S
N4011 H4014 0.984 . S
N4011 H4015 0.985 . S
H4012 N4007 0.984 . S
H4013 N4007 0.985 . S
H4014 N4011 0.984 . S
H4015 N4011 0.985 . S
H4016 N4010 0.984 . S
H4017 N4010 0.984 . S
H4018 N4006 0.984 . S
H4019 N4006 0.985 . S
C4020 C4021 1.363 . S
C4020 C4026 1.379 . S
C4020 N4028 1.356 . S
C4021 C4020 1.363 . S
C4021 C4027 1.363 . S
C4022 C4023 1.363 . S
C4022 C4027 1.379 . S
C4022 N4029 1.356 . S
C4023 C4022 1.363 . S
C4023 C4026 1.363 . S
N4024 C4026 1.356 . S
N4024 H4036 0.984 . S
N4024 H4037 0.985 . S
N4025 C4027 1.356 . S
N4025 H4030 0.984 . S
N4025 H4031 0.985 . S
C4026 C4020 1.379 . S
C4026 C4023 1.363 . S
C4026 N4024 1.356 . S
C4027 C4021 1.363 . S
C4027 C4022 1.379 . S
C4027 N4025 1.356 . S
N4028 C4020 1.356 . S
N4028 H4034 0.984 . S
N4028 H4035 0.984 . S
N4029 C4022 1.356 . S
N4029 H4032 0.984 . S
N4029 H4033 0.985 . S
H4030 N4025 0.984 . S
H4031 N4025 0.985 . S
H4032 N4029 0.984 . S
H4033 N4029 0.985 . S
H4034 N4028 0.984 . S
H4035 N4028 0.984 . S
H4036 N4024 0.984 . S
H4037 N4024 0.985 . S
C4038 C4039 1.363 . S
C4038 C4044 1.379 . S
C4038 N4046 1.356 . S
C4039 C4038 1.363 . S
C4039 C4045 1.363 . S
C4040 C4041 1.363 . S
C4040 C4045 1.379 . S
C4040 N4047 1.356 . S
C4041 C4040 1.363 . S
C4041 C4044 1.363 . S
N4042 C4044 1.356 . S
N4042 H4054 0.984 . S
N4042 H4055 0.985 . S
N4043 C4045 1.356 . S
N4043 H4048 0.984 . S
N4043 H4049 0.985 . S
C4044 C4038 1.379 . S
C4044 C4041 1.363 . S
C4044 N4042 1.356 . S
C4045 C4039 1.363 . S
C4045 C4040 1.379 . S
C4045 N4043 1.356 . S
N4046 C4038 1.356 . S
N4046 H4052 0.984 . S
N4046 H4053 0.984 . S
N4047 C4040 1.356 . S
N4047 H4050 0.984 . S
N4047 H4051 0.985 . S
H4048 N4043 0.984 . S
H4049 N4043 0.985 . S
H4050 N4047 0.984 . S
H4051 N4047 0.985 . S
H4052 N4046 0.984 . S
H4053 N4046 0.984 . S
H4054 N4042 0.984 . S
H4055 N4042 0.985 . S
C4056 C4057 1.363 . S
C4056 C4062 1.379 . S
C4056 N4064 1.356 . S
C4057 C4056 1.363 . S
C4057 C4063 1.363 . S
C4058 C4059 1.363 . S
C4058 C4063 1.379 . S
C4058 N4065 1.356 . S
C4059 C4058 1.363 . S
C4059 C4062 1.363 . S
N4060 C4062 1.356 . S
N4060 H4072 0.984 . S
N4060 H4073 0.985 . S
N4061 C4063 1.356 . S
N4061 H4066 0.984 . S
N4061 H4067 0.985 . S
C4062 C4056 1.379 . S
C4062 C4059 1.363 . S
C4062 N4060 1.356 . S
C4063 C4057 1.363 . S
C4063 C4058 1.379 . S
C4063 N4061 1.356 . S
N4064 C4056 1.356 . S
N4064 H4070 0.984 . S
N4064 H4071 0.984 . S
N4065 C4058 1.356 . S
N4065 H4068 0.984 . S
N4065 H4069 0.985 . S
H4066 N4061 0.984 . S
H4067 N4061 0.985 . S
H4068 N4065 0.984 . S
H4069 N4065 0.985 . S
H4070 N4064 0.984 . S
H4071 N4064 0.984 . S
H4072 N4060 0.984 . S
H4073 N4060 0.985 . S
C4074 C4075 1.363 . S
C4074 C4080 1.379 . S
C4074 N4082 1.356 . S
C4075 C4074 1.363 . S
C4075 C4081 1.363 . S
C4076 C4077 1.363 . S
C4076 C4081 1.379 . S
C4076 N4083 1.356 . S
C4077 C4076 1.363 . S
C4077 C4080 1.363 . S
N4078 C4080 1.356 . S
N4078 H4090 0.984 . S
N4078 H4091 0.985 . S
N4079 C4081 1.356 . S
N4079 H4084 0.984 . S
N4079 H4085 0.985 . S
C4080 C4074 1.379 . S
C4080 C4077 1.363 . S
C4080 N4078 1.356 . S
C4081 C4075 1.363 . S
C4081 C4076 1.379 . S
C4081 N4079 1.356 . S
N4082 C4074 1.356 . S
N4082 H4088 0.984 . S
N4082 H4089 0.984 . S
N4083 C4076 1.356 . S
N4083 H4086 0.984 . S
N4083 H4087 0.985 . S
H4084 N4079 0.984 . S
H4085 N4079 0.985 . S
H4086 N4083 0.984 . S
H4087 N4083 0.985 . S
H4088 N4082 0.984 . S
H4089 N4082 0.984 . S
H4090 N4078 0.984 . S
H4091 N4078 0.985 . S
C4092 C4093 1.363 . S
C4092 C4098 1.379 . S
C4092 N4100 1.356 . S
C4093 C4092 1.363 . S
C4093 C4099 1.363 . S
C4094 C4095 1.363 . S
C4094 C4099 1.379 . S
C4094 N4101 1.356 . S
C4095 C4094 1.363 . S
C4095 C4098 1.363 . S
N4096 C4098 1.356 . S
N4096 H4108 0.984 . S
N4096 H4109 0.985 . S
N4097 C4099 1.356 . S
N4097 H4102 0.984 . S
N4097 H4103 0.985 . S
C4098 C4092 1.379 . S
C4098 C4095 1.363 . S
C4098 N4096 1.356 . S
C4099 C4093 1.363 . S
C4099 C4094 1.379 . S
C4099 N4097 1.356 . S
N4100 C4092 1.356 . S
N4100 H4106 0.984 . S
N4100 H4107 0.984 . S
N4101 C4094 1.356 . S
N4101 H4104 0.984 . S
N4101 H4105 0.985 . S
H4102 N4097 0.984 . S
H4103 N4097 0.985 . S
H4104 N4101 0.984 . S
H4105 N4101 0.985 . S
H4106 N4100 0.984 . S
H4107 N4100 0.984 . S
H4108 N4096 0.984 . S
H4109 N4096 0.985 . S
C4110 C4111 1.363 . S
C4110 C4116 1.379 . S
C4110 N4118 1.356 . S
C4111 C4110 1.363 . S
C4111 C4117 1.363 . S
C4112 C4113 1.363 . S
C4112 C4117 1.379 . S
C4112 N4119 1.356 . S
C4113 C4112 1.363 . S
C4113 C4116 1.363 . S
N4114 C4116 1.356 . S
N4114 H4126 0.984 . S
N4114 H4127 0.985 . S
N4115 C4117 1.356 . S
N4115 H4120 0.984 . S
N4115 H4121 0.985 . S
C4116 C4110 1.379 . S
C4116 C4113 1.363 . S
C4116 N4114 1.356 . S
C4117 C4111 1.363 . S
C4117 C4112 1.379 . S
C4117 N4115 1.356 . S
N4118 C4110 1.356 . S
N4118 H4124 0.984 . S
N4118 H4125 0.984 . S
N4119 C4112 1.356 . S
N4119 H4122 0.984 . S
N4119 H4123 0.985 . S
H4120 N4115 0.984 . S
H4121 N4115 0.985 . S
H4122 N4119 0.984 . S
H4123 N4119 0.985 . S
H4124 N4118 0.984 . S
H4125 N4118 0.984 . S
H4126 N4114 0.984 . S
H4127 N4114 0.985 . S
C4128 C4129 1.363 . S
C4128 C4134 1.379 1_545 S
C4128 N4136 1.356 . S
C4129 C4128 1.363 . S
C4129 C4135 1.363 . S
C4130 C4131 1.363 . S
C4130 C4135 1.379 1_565 S
C4130 N4137 1.356 . S
C4131 C4130 1.363 . S
C4131 C4134 1.363 . S
N4132 C4134 1.356 . S
N4132 H4144 0.984 . S
N4132 H4145 0.985 . S
N4133 C4135 1.356 . S
N4133 H4138 0.984 . S
N4133 H4139 0.985 . S
C4134 C4128 1.379 1_565 S
C4134 C4131 1.363 . S
C4134 N4132 1.356 . S
C4135 C4129 1.363 . S
C4135 C4130 1.379 1_545 S
C4135 N4133 1.356 . S
N4136 C4128 1.356 . S
N4136 H4142 0.971 1_545 S
N4136 H4143 0.984 . S
N4137 C4130 1.356 . S
N4137 H4140 0.984 . S
N4137 H4141 0.971 1_565 S
H4138 N4133 0.984 . S
H4139 N4133 0.985 . S
H4140 N4137 0.984 . S
H4141 N4137 0.971 1_545 S
H4142 N4136 0.971 1_565 S
H4143 N4136 0.984 . S
H4144 N4132 0.984 . S
H4145 N4132 0.985 . S
C4146 C4147 1.363 . S
C4146 C4152 1.379 . S
C4146 N4154 1.356 . S
C4147 C4146 1.363 . S
C4147 C4153 1.363 1_545 S
C4148 C4149 1.363 1_565 S
C4148 C4153 1.379 . S
C4148 N4155 1.356 . S
C4149 C4148 1.363 1_545 S
C4149 C4152 1.363 . S
N4150 C4152 1.356 . S
N4150 H4162 0.984 . S
N4150 H4163 0.985 . S
N4151 C4153 1.356 . S
N4151 H4156 0.984 . S
N4151 H4157 0.985 . S
C4152 C4146 1.379 . S
C4152 C4149 1.363 . S
C4152 N4150 1.356 . S
C4153 C4147 1.363 1_565 S
C4153 C4148 1.379 . S
C4153 N4151 1.356 . S
N4154 C4146 1.356 . S
N4154 H4160 0.984 . S
N4154 H4161 0.984 . S
N4155 C4148 1.356 . S
N4155 H4158 0.984 . S
N4155 H4159 0.985 . S
H4156 N4151 0.984 . S
H4157 N4151 0.985 . S
H4158 N4155 0.984 . S
H4159 N4155 0.985 . S
H4160 N4154 0.984 . S
H4161 N4154 0.984 . S
H4162 N4150 0.984 . S
H4163 N4150 0.985 . S
C4164 C4165 1.363 . S
C4164 C4170 1.379 1_545 S
C4164 N4172 1.356 . S
C4165 C4164 1.363 . S
C4165 C4171 1.363 . S
C4166 C4167 1.363 . S
C4166 C4171 1.379 1_565 S
C4166 N4173 1.356 . S
C4167 C4166 1.363 . S
C4167 C4170 1.363 . S
N4168 C4170 1.356 . S
N4168 H4180 0.979 1_565 S
N4168 H4181 0.985 . S
N4169 C4171 1.356 . S
N4169 H4174 0.984 . S
N4169 H4175 0.979 1_545 S
C4170 C4164 1.379 1_565 S
C4170 C4167 1.363 . S
C4170 N4168 1.356 . S
C4171 C4165 1.363 . S
C4171 C4166 1.379 1_545 S
C4171 N4169 1.356 . S
N4172 C4164 1.356 . S
N4172 H4178 0.984 . S
N4172 H4179 0.984 . S
N4173 C4166 1.356 . S
N4173 H4176 0.984 . S
N4173 H4177 0.985 . S
H4174 N4169 0.984 . S
H4175 N4169 0.979 1_565 S
H4176 N4173 0.984 . S
H4177 N4173 0.985 . S
H4178 N4172 0.984 . S
H4179 N4172 0.984 . S
H4180 N4168 0.979 1_545 S
H4181 N4168 0.985 . S
C4182 C4183 1.363 1_545 S
C4182 C4188 1.409 . S
C4182 N4190 1.356 . S
C4183 C4182 1.363 1_565 S
C4183 C4189 1.330 1_556 S
C4184 C4185 1.363 . S
C4184 C4189 1.409 . S
C4184 N4191 1.356 . S
C4185 C4184 1.363 . S
C4185 C4188 1.331 1_564 S
N4186 C4188 1.348 1_554 S
N4186 H4198 0.984 1_554 S
N4186 H4199 0.985 . S
N4187 C4189 1.348 1_556 S
N4187 H4192 0.984 . S
N4187 H4193 0.985 1_556 S
C4188 C4182 1.409 . S
C4188 C4185 1.331 1_546 S
C4188 N4186 1.348 1_556 S
C4189 C4183 1.330 1_554 S
C4189 C4184 1.409 . S
C4189 N4187 1.348 1_554 S
N4190 C4182 1.356 . S
N4190 H4196 0.984 . S
N4190 H4197 0.984 . S
N4191 C4184 1.356 . S
N4191 H4194 0.984 . S
N4191 H4195 0.985 . S
H4192 N4187 0.984 . S
H4193 N4187 0.985 1_554 S
H4194 N4191 0.984 . S
H4195 N4191 0.985 . S
H4196 N4190 0.984 . S
H4197 N4190 0.984 . S
H4198 N4186 0.984 1_556 S
H4199 N4186 0.985 . S
C4200 C4201 1.363 . S
C4200 C4206 1.379 1_565 S
C4200 N4208 1.356 . S
C4201 C4200 1.363 . S
C4201 C4207 1.363 . S
C4202 C4203 1.363 . S
C4202 C4207 1.379 1_545 S
C4202 N4209 1.356 . S
C4203 C4202 1.363 . S
C4203 C4206 1.363 . S
N4204 C4206 1.356 . S
N4204 H4216 0.984 . S
N4204 H4217 0.985 . S
N4205 C4207 1.356 . S
N4205 H4210 0.984 . S
N4205 H4211 0.985 . S
C4206 C4200 1.379 1_545 S
C4206 C4203 1.363 . S
C4206 N4204 1.356 . S
C4207 C4201 1.363 . S
C4207 C4202 1.379 1_565 S
C4207 N4205 1.356 . S
N4208 C4200 1.356 . S
N4208 H4214 0.984 . S
N4208 H4215 0.984 . S
N4209 C4202 1.356 . S
N4209 H4212 0.984 . S
N4209 H4213 0.985 . S
H4210 N4205 0.984 . S
H4211 N4205 0.985 . S
H4212 N4209 0.984 . S
H4213 N4209 0.985 . S
H4214 N4208 0.984 . S
H4215 N4208 0.984 . S
H4216 N4204 0.984 . S
H4217 N4204 0.985 . S
C4218 C4219 1.363 . S
C4218 C4224 1.379 . S
C4218 N4226 1.356 . S
C4219 C4218 1.363 . S
C4219 C4225 1.363 1_565 S
C4220 C4221 1.363 1_545 S
C4220 C4225 1.379 . S
C4220 N4227 1.356 . S
C4221 C4220 1.363 1_565 S
C4221 C4224 1.363 . S
N4222 C4224 1.356 . S
N4222 H4234 0.984 . S
N4222 H4235 0.985 . S
N4223 C4225 1.356 . S
N4223 H4228 0.984 . S
N4223 H4229 0.985 . S
C4224 C4218 1.379 . S
C4224 C4221 1.363 . S
C4224 N4222 1.356 . S
C4225 C4219 1.363 1_545 S
C4225 C4220 1.379 . S
C4225 N4223 1.356 . S
N4226 C4218 1.356 . S
N4226 H4232 0.984 . S
N4226 H4233 0.984 . S
N4227 C4220 1.356 . S
N4227 H4230 0.984 . S
N4227 H4231 0.985 . S
H4228 N4223 0.984 . S
H4229 N4223 0.985 . S
H4230 N4227 0.984 . S
H4231 N4227 0.985 . S
H4232 N4226 0.984 . S
H4233 N4226 0.984 . S
H4234 N4222 0.984 . S
H4235 N4222 0.985 . S
C4236 C4237 1.363 1_545 S
C4236 C4242 1.379 . S
C4236 N4244 1.356 1_545 S
C4237 C4236 1.363 1_565 S
C4237 C4243 1.363 . S
C4238 C4239 1.363 1_565 S
C4238 C4243 1.379 . S
C4238 N4245 1.356 1_565 S
C4239 C4238 1.363 1_545 S
C4239 C4242 1.363 . S
N4240 C4242 1.356 . S
N4240 H4252 0.984 . S
N4240 H4253 0.985 . S
N4241 C4243 1.356 . S
N4241 H4246 0.984 . S
N4241 H4247 0.985 . S
C4242 C4236 1.379 . S
C4242 C4239 1.363 . S
C4242 N4240 1.356 . S
C4243 C4237 1.363 . S
C4243 C4238 1.379 . S
C4243 N4241 1.356 . S
N4244 C4236 1.356 1_565 S
N4244 H4250 0.984 1_565 S
N4244 H4251 0.984 . S
N4245 C4238 1.356 1_545 S
N4245 H4248 0.984 . S
N4245 H4249 0.985 1_545 S
H4246 N4241 0.984 . S
H4247 N4241 0.985 . S
H4248 N4245 0.984 . S
H4249 N4245 0.985 1_565 S
H4250 N4244 0.984 1_545 S
H4251 N4244 0.984 . S
H4252 N4240 0.984 . S
H4253 N4240 0.985 . S
C4254 C4255 1.330 1_566 S
C4254 C4260 1.409 . S
C4254 N4262 1.348 1_556 S
C4255 C4254 1.330 1_544 S
C4255 C4261 1.363 . S
C4256 C4257 1.330 1_554 S
C4256 C4261 1.409 . S
C4256 N4263 1.348 1_554 S
C4257 C4256 1.330 1_556 S
C4257 C4260 1.363 1_545 S
N4258 C4260 1.356 . S
N4258 H4270 0.984 . S
N4258 H4271 0.985 . S
N4259 C4261 1.356 . S
N4259 H4264 0.984 . S
N4259 H4265 0.985 . S
C4260 C4254 1.409 . S
C4260 C4257 1.363 1_565 S
C4260 N4258 1.356 . S
C4261 C4255 1.363 . S
C4261 C4256 1.409 . S
C4261 N4259 1.356 . S
N4262 C4254 1.348 1_554 S
N4262 H4268 0.984 1_554 S
N4262 H4269 0.984 . S
N4263 C4256 1.348 1_556 S
N4263 H4266 0.984 . S
N4263 H4267 0.985 1_556 S
H4264 N4259 0.984 . S
H4265 N4259 0.985 . S
H4266 N4263 0.984 . S
H4267 N4263 0.985 1_554 S
H4268 N4262 0.984 1_556 S
H4269 N4262 0.984 . S
H4270 N4258 0.984 . S
H4271 N4258 0.985 . S
C4272 C4273 1.363 . S
C4272 C4278 1.379 . S
C4272 N4280 1.356 . S
C4273 C4272 1.363 . S
C4273 C4279 1.363 . S
C4274 C4275 1.363 . S
C4274 C4279 1.379 . S
C4274 N4281 1.356 . S
C4275 C4274 1.363 . S
C4275 C4278 1.363 . S
N4276 C4278 1.356 . S
N4276 H4288 0.984 . S
N4276 H4289 0.985 . S
N4277 C4279 1.356 . S
N4277 H4282 0.984 . S
N4277 H4283 0.985 . S
C4278 C4272 1.379 . S
C4278 C4275 1.363 . S
C4278 N4276 1.356 . S
C4279 C4273 1.363 . S
C4279 C4274 1.379 . S
C4279 N4277 1.356 . S
N4280 C4272 1.356 . S
N4280 H4286 0.984 . S
N4280 H4287 0.984 . S
N4281 C4274 1.356 . S
N4281 H4284 0.984 . S
N4281 H4285 0.985 . S
H4282 N4277 0.984 . S
H4283 N4277 0.985 . S
H4284 N4281 0.984 . S
H4285 N4281 0.985 . S
H4286 N4280 0.984 . S
H4287 N4280 0.984 . S
H4288 N4276 0.984 . S
H4289 N4276 0.985 . S
C4290 C4291 1.363 . S
C4290 C4296 1.409 . S
C4290 N4298 1.356 . S
C4291 C4290 1.363 . S
C4291 C4297 1.331 1_556 S
C4292 C4293 1.363 . S
C4292 C4297 1.409 . S
C4292 N4299 1.356 . S
C4293 C4292 1.363 . S
C4293 C4296 1.331 1_554 S
N4294 C4296 1.348 1_554 S
N4294 H4306 0.984 1_554 S
N4294 H4307 0.985 . S
N4295 C4297 1.348 1_556 S
N4295 H4300 0.984 . S
N4295 H4301 0.985 1_556 S
C4296 C4290 1.409 . S
C4296 C4293 1.331 1_556 S
C4296 N4294 1.348 1_556 S
C4297 C4291 1.331 1_554 S
C4297 C4292 1.409 . S
C4297 N4295 1.348 1_554 S
N4298 C4290 1.356 . S
N4298 H4304 0.984 . S
N4298 H4305 0.984 . S
N4299 C4292 1.356 . S
N4299 H4302 0.984 . S
N4299 H4303 0.985 . S
H4300 N4295 0.984 . S
H4301 N4295 0.985 1_554 S
H4302 N4299 0.984 . S
H4303 N4299 0.985 . S
H4304 N4298 0.984 . S
H4305 N4298 0.984 . S
H4306 N4294 0.984 1_556 S
H4307 N4294 0.985 . S
C4308 C4309 1.363 . S
C4308 C4314 1.379 . S
C4308 N4316 1.356 . S
C4309 C4308 1.363 . S
C4309 C4315 1.363 . S
C4310 C4311 1.363 . S
C4310 C4315 1.379 . S
C4310 N4317 1.356 . S
C4311 C4310 1.363 . S
C4311 C4314 1.363 . S
N4312 C4314 1.356 . S
N4312 H4324 0.984 . S
N4312 H4325 0.985 . S
N4313 C4315 1.356 . S
N4313 H4318 0.984 . S
N4313 H4319 0.985 . S
C4314 C4308 1.379 . S
C4314 C4311 1.363 . S
C4314 N4312 1.356 . S
C4315 C4309 1.363 . S
C4315 C4310 1.379 . S
C4315 N4313 1.356 . S
N4316 C4308 1.356 . S
N4316 H4322 0.984 . S
N4316 H4323 0.984 . S
N4317 C4310 1.356 . S
N4317 H4320 0.984 . S
N4317 H4321 0.985 . S
H4318 N4313 0.984 . S
H4319 N4313 0.985 . S
H4320 N4317 0.984 . S
H4321 N4317 0.985 . S
H4322 N4316 0.984 . S
H4323 N4316 0.984 . S
H4324 N4312 0.984 . S
H4325 N4312 0.985 . S
C4326 C4327 1.363 . S
C4326 C4332 1.379 . S
C4326 N4334 1.356 . S
C4327 C4326 1.363 . S
C4327 C4333 1.363 . S
C4328 C4329 1.363 . S
C4328 C4333 1.379 . S
C4328 N4335 1.356 . S
C4329 C4328 1.363 . S
C4329 C4332 1.363 . S
N4330 C4332 1.356 . S
N4330 H4342 0.984 . S
N4330 H4343 0.985 . S
N4331 C4333 1.356 . S
N4331 H4336 0.984 . S
N4331 H4337 0.985 . S
C4332 C4326 1.379 . S
C4332 C4329 1.363 . S
C4332 N4330 1.356 . S
C4333 C4327 1.363 . S
C4333 C4328 1.379 . S
C4333 N4331 1.356 . S
N4334 C4326 1.356 . S
N4334 H4340 0.984 . S
N4334 H4341 0.984 . S
N4335 C4328 1.356 . S
N4335 H4338 0.984 . S
N4335 H4339 0.985 . S
H4336 N4331 0.984 . S
H4337 N4331 0.985 . S
H4338 N4335 0.984 . S
H4339 N4335 0.985 . S
H4340 N4334 0.984 . S
H4341 N4334 0.984 . S
H4342 N4330 0.984 . S
H4343 N4330 0.985 . S
C4344 C4345 1.363 . S
C4344 C4350 1.379 . S
C4344 N4352 1.356 . S
C4345 C4344 1.363 . S
C4345 C4351 1.363 . S
C4346 C4347 1.363 . S
C4346 C4351 1.379 . S
C4346 N4353 1.356 . S
C4347 C4346 1.363 . S
C4347 C4350 1.363 . S
N4348 C4350 1.356 . S
N4348 H4360 0.984 . S
N4348 H4361 0.985 . S
N4349 C4351 1.356 . S
N4349 H4354 0.984 . S
N4349 H4355 0.985 . S
C4350 C4344 1.379 . S
C4350 C4347 1.363 . S
C4350 N4348 1.356 . S
C4351 C4345 1.363 . S
C4351 C4346 1.379 . S
C4351 N4349 1.356 . S
N4352 C4344 1.356 . S
N4352 H4358 0.984 . S
N4352 H4359 0.984 . S
N4353 C4346 1.356 . S
N4353 H4356 0.984 . S
N4353 H4357 0.985 . S
H4354 N4349 0.984 . S
H4355 N4349 0.985 . S
H4356 N4353 0.984 . S
H4357 N4353 0.985 . S
H4358 N4352 0.984 . S
H4359 N4352 0.984 . S
H4360 N4348 0.984 . S
H4361 N4348 0.985 . S
C4362 C4363 1.363 . S
C4362 C4368 1.409 . S
C4362 N4370 1.356 . S
C4363 C4362 1.363 . S
C4363 C4369 1.331 1_556 S
C4364 C4365 1.363 . S
C4364 C4369 1.409 . S
C4364 N4371 1.356 . S
C4365 C4364 1.363 . S
C4365 C4368 1.331 1_554 S
N4366 C4368 1.348 1_554 S
N4366 H4378 0.984 1_554 S
N4366 H4379 0.985 . S
N4367 C4369 1.348 1_556 S
N4367 H4372 0.984 . S
N4367 H4373 0.985 1_556 S
C4368 C4362 1.409 . S
C4368 C4365 1.331 1_556 S
C4368 N4366 1.348 1_556 S
C4369 C4363 1.331 1_554 S
C4369 C4364 1.409 . S
C4369 N4367 1.348 1_554 S
N4370 C4362 1.356 . S
N4370 H4376 0.984 . S
N4370 H4377 0.984 . S
N4371 C4364 1.356 . S
N4371 H4374 0.984 . S
N4371 H4375 0.985 . S
H4372 N4367 0.984 . S
H4373 N4367 0.985 1_554 S
H4374 N4371 0.984 . S
H4375 N4371 0.985 . S
H4376 N4370 0.984 . S
H4377 N4370 0.984 . S
H4378 N4366 0.984 1_556 S
H4379 N4366 0.985 . S
C4380 C4381 1.363 . S
C4380 C4386 1.379 . S
C4380 N4388 1.356 . S
C4381 C4380 1.363 . S
C4381 C4387 1.363 . S
C4382 C4383 1.363 . S
C4382 C4387 1.379 . S
C4382 N4389 1.356 . S
C4383 C4382 1.363 . S
C4383 C4386 1.363 . S
N4384 C4386 1.356 . S
N4384 H4396 0.984 . S
N4384 H4397 0.985 . S
N4385 C4387 1.356 . S
N4385 H4390 0.984 . S
N4385 H4391 0.985 . S
C4386 C4380 1.379 . S
C4386 C4383 1.363 . S
C4386 N4384 1.356 . S
C4387 C4381 1.363 . S
C4387 C4382 1.379 . S
C4387 N4385 1.356 . S
N4388 C4380 1.356 . S
N4388 H4394 0.984 . S
N4388 H4395 0.984 . S
N4389 C4382 1.356 . S
N4389 H4392 0.984 . S
N4389 H4393 0.985 . S
H4390 N4385 0.984 . S
H4391 N4385 0.985 . S
H4392 N4389 0.984 . S
H4393 N4389 0.985 . S
H4394 N4388 0.984 . S
H4395 N4388 0.984 . S
H4396 N4384 0.984 . S
H4397 N4384 0.985 . S
C4398 C4399 1.363 . S
C4398 C4404 1.379 . S
C4398 N4406 1.356 . S
C4399 C4398 1.363 . S
C4399 C4405 1.363 . S
C4400 C4401 1.363 . S
C4400 C4405 1.379 . S
C4400 N4407 1.356 . S
C4401 C4400 1.363 . S
C4401 C4404 1.363 . S
N4402 C4404 1.356 . S
N4402 H4414 0.984 . S
N4402 H4415 0.985 . S
N4403 C4405 1.356 . S
N4403 H4408 0.984 . S
N4403 H4409 0.985 . S
C4404 C4398 1.379 . S
C4404 C4401 1.363 . S
C4404 N4402 1.356 . S
C4405 C4399 1.363 . S
C4405 C4400 1.379 . S
C4405 N4403 1.356 . S
N4406 C4398 1.356 . S
N4406 H4412 0.984 . S
N4406 H4413 0.984 . S
N4407 C4400 1.356 . S
N4407 H4410 0.984 . S
N4407 H4411 0.985 . S
H4408 N4403 0.984 . S
H4409 N4403 0.985 . S
H4410 N4407 0.984 . S
H4411 N4407 0.985 . S
H4412 N4406 0.984 . S
H4413 N4406 0.984 . S
H4414 N4402 0.984 . S
H4415 N4402 0.985 . S
C2689 C69 0.556 . S
C2691 C2335 0.631 . S
C2707 C153 0.556 . S
C2709 C739 0.631 . S
C2725 C237 0.556 . S
C2727 C2167 0.631 . S
C2743 C907 0.631 . S
C2745 C321 0.556 . S
C2761 C405 0.556 . S
C2763 C2503 0.631 . S
C2779 C1243 0.631 . S
C2781 C489 0.557 . S
C2797 C2671 0.631 . S
C2799 C573 0.557 . S
C2815 C657 0.556 . S
C2817 C1075 0.631 . S
C2833 C730 0.556 . S
C2835 C1652 0.631 . S
C2851 C814 0.556 . S
C2853 C56 0.631 . S
C2869 C1484 0.631 . S
C2871 C898 0.556 . S
C2887 C224 0.631 . S
C2889 C982 0.556 . S
C2905 C1066 0.556 . S
C2907 C1820 0.631 . S
C2923 C1150 0.557 . S
C2925 C560 0.631 . S
C2941 C1234 0.557 . S
C2943 C1988 0.631 . S
C2959 C392 0.631 . S
C2961 C1318 0.556 . S
C2977 C991 0.631 . S
C2979 C1413 0.556 . S
C2995 C2083 0.631 . S
C2997 C1497 0.557 . S
C3013 C823 0.631 . S
C3015 C1581 0.557 . S
C3031 C1665 0.557 . S
C3033 C2251 0.631 . S
C3049 C1159 0.631 . S
C3051 C1749 0.556 . S
C3067 C2587 0.631 . S
C3069 C1833 0.556 . S
C3085 C1327 0.631 . S
C3087 C1917 0.556 . S
C3103 C2001 0.557 . S
C3105 C2419 0.631 . S
C3121 C2074 0.556 . S
C3123 C308 0.631 . S
C3139 C2158 0.557 . S
C3141 C1400 0.631 . S
C3157 C2242 0.557 . S
C3159 C140 0.631 . S
C3175 C2326 0.557 . S
C3177 C1568 0.631 . S
C3193 C476 0.631 . S
C3195 C2410 0.556 . S
C3211 C1904 0.631 . S
C3213 C2494 0.556 . S
C3229 C2578 0.556 . S
C3231 C644 0.631 . S
C3247 C2662 0.557 . S
C3249 C1736 0.631 . S
C3265 C74 3.408 . S
C3267 C1586 3.408 . S
C3283 C1670 3.407 1_455 S
C3285 C158 3.407 1_655 S
C3301 C242 3.407 . S
C3303 C1418 3.407 . S
C3319 C326 3.407 . S
C3321 C1502 3.407 . S
C3337 C1922 3.408 . S
C3339 C410 3.408 . S
C3355 C494 3.407 . S
C3357 C2006 3.407 . S
C3373 C1754 3.407 . S
C3375 C578 3.407 . S
C3391 C662 3.407 1_655 S
C3393 C1838 3.407 1_455 S
C3409 C2247 3.408 . S
C3411 C735 3.408 . S
C3427 C819 3.407 1_455 S
C3429 C2331 3.407 1_655 S
C3445 C903 3.407 . S
C3447 C2079 3.407 . S
C3463 C987 3.407 . S
C3465 C2163 3.407 . S
C3481 C2583 3.408 . S
C3483 C1071 3.408 . S
C3499 C2667 3.407 . S
C3501 C1155 3.407 . S
C3517 C1239 3.407 . S
C3519 C2415 3.407 . S
C3535 C1323 3.407 1_455 S
C3537 C2499 3.407 1_655 S
C3553 C67 2.982 . S
C3555 C2072 2.982 . S
C3571 C812 2.981 . S
C3573 C151 2.981 . S
C3589 C235 2.982 . S
C3591 C2240 2.982 . S
C3607 C319 2.982 . S
C3609 C980 2.982 . S
C3625 C2408 2.982 . S
C3627 C403 2.982 . S
C3643 C1148 2.981 . S
C3645 C487 2.981 . S
C3661 C571 2.982 . S
C3663 C2576 2.982 . S
C3679 C655 2.982 . S
C3681 C1316 2.982 . S
C3697 C1411 2.982 . S
C3699 C728 2.982 . S
C3715 C1579 2.982 . S
C3717 C896 2.982 . S
C3733 C1747 2.982 . S
C3735 C1064 2.982 . S
C3751 C1232 2.982 . S
C3753 C1915 2.982 . S
C3769 C1495 2.982 . S
C3771 C2156 2.982 . S
C3787 C1663 2.982 . S
C3789 C2324 2.982 . S
C3805 C2492 2.982 . S
C3807 C1831 2.982 . S
C3823 C2660 2.982 . S
C3825 C1999 2.982 . S
C3841 C63 4.113 . S
C3843 C483 4.113 . S
C3859 C567 4.113 . S
C3861 C147 4.113 . S
C3877 C651 4.112 . S
C3879 C231 4.112 . S
C3895 C399 4.112 . S
C3897 C315 4.112 . S
C3913 C746 4.113 . S
C3915 C1166 4.113 . S
C3931 C830 4.113 . S
C3933 C1250 4.113 . S
C3949 C1334 4.112 . S
C3951 C914 4.112 . S
C3967 C998 4.112 . S
C3969 C1082 4.112 . S
C3985 C1407 4.112 . S
C3987 C1827 4.112 . S
C4003 C1491 4.112 . S
C4005 C1911 4.112 . S
C4021 C1575 4.112 . S
C4023 C1995 4.112 . S
C4039 C1743 4.112 . S
C4041 C1659 4.112 . S
C4057 C2090 4.112 . S
C4059 C2510 4.112 . S
C4075 C2174 4.112 . S
C4077 C2594 4.112 . S
C4093 C2678 4.112 . S
C4095 C2258 4.112 . S
C4111 C2342 4.112 . S
C4113 C2426 4.112 . S
C4129 C58 0.780 . S
C4131 C394 0.780 . S
C4147 C142 0.780 1_545 S
C4149 C478 0.780 1_545 S
C4165 C562 0.780 . S
C4167 C226 0.780 . S
C4183 C646 0.780 1_565 S
C4185 C310 0.780 1_565 S
C4201 C741 0.780 . S
C4203 C1077 0.780 . S
C4219 C1161 0.780 1_565 S
C4221 C825 0.780 1_565 S
C4237 C1245 0.780 . S
C4239 C909 0.780 . S
C4255 C1329 0.780 1_545 S
C4257 C993 0.780 1_545 S
C4273 C1402 0.780 . S
C4275 C1738 0.780 . S
C4291 C1822 0.780 . S
C4293 C1486 0.780 . S
C4309 C1570 0.780 . S
C4311 C1906 0.780 . S
C4327 C1990 0.780 . S
C4329 C1654 0.780 . S
C4345 C2421 0.780 . S
C4347 C2085 0.780 . S
C4363 C2169 0.780 . S
C4365 C2505 0.780 . S
C4381 C2253 0.780 . S
C4383 C2589 0.780 . S
C4399 C2337 0.780 . S
C4401 C2673 0.780 . S
