# Generated by pormake.
# Topology ume, (4)-cn, num edge types: 1
# Building blocks:
#     Node 0, Type 0, BuildingBlock: GALJAG_clean_sbu_0, # of connection points: 4
#     Node 1, Type 0, BuildingBlock: GALJAG_clean_sbu_0, # of connection points: 4
#     Node 2, Type 0, BuildingBlock: GALJAG_clean_sbu_0, # of connection points: 4
#     Node 3, Type 0, BuildingBlock: GALJAG_clean_sbu_0, # of connection points: 4
#     Node 4, Type 0, BuildingBlock: GALJAG_clean_sbu_0, # of connection points: 4
#     Node 5, Type 0, BuildingBlock: GALJAG_clean_sbu_0, # of connection points: 4
#     Node 6, Type 0, BuildingBlock: GALJAG_clean_sbu_0, # of connection points: 4
#     Node 7, Type 0, BuildingBlock: GALJAG_clean_sbu_0, # of connection points: 4
#     Node 8, Type 0, BuildingBlock: GALJAG_clean_sbu_0, # of connection points: 4
#     Node 9, Type 0, BuildingBlock: GALJAG_clean_sbu_0, # of connection points: 4
#     Node 10, Type 0, BuildingBlock: GALJAG_clean_sbu_0, # of connection points: 4
#     Node 11, Type 0, BuildingBlock: GALJAG_clean_sbu_0, # of connection points: 4
#     Node 12, Type 0, BuildingBlock: GALJAG_clean_sbu_0, # of connection points: 4
#     Node 13, Type 0, BuildingBlock: GALJAG_clean_sbu_0, # of connection points: 4
#     Node 14, Type 0, BuildingBlock: GALJAG_clean_sbu_0, # of connection points: 4
#     Node 15, Type 0, BuildingBlock: GALJAG_clean_sbu_0, # of connection points: 4
#     Edge 16, Type (0, 0), BuildingBlock: KIFKEQ_clean_linker_1, # of connection points: 2
#     Edge 17, Type (0, 0), BuildingBlock: KIFKEQ_clean_linker_1, # of connection points: 2
#     Edge 18, Type (0, 0), BuildingBlock: KIFKEQ_clean_linker_1, # of connection points: 2
#     Edge 19, Type (0, 0), BuildingBlock: KIFKEQ_clean_linker_1, # of connection points: 2
#     Edge 20, Type (0, 0), BuildingBlock: KIFKEQ_clean_linker_1, # of connection points: 2
#     Edge 21, Type (0, 0), BuildingBlock: KIFKEQ_clean_linker_1, # of connection points: 2
#     Edge 22, Type (0, 0), BuildingBlock: KIFKEQ_clean_linker_1, # of connection points: 2
#     Edge 23, Type (0, 0), BuildingBlock: KIFKEQ_clean_linker_1, # of connection points: 2
#     Edge 24, Type (0, 0), BuildingBlock: KIFKEQ_clean_linker_1, # of connection points: 2
#     Edge 25, Type (0, 0), BuildingBlock: KIFKEQ_clean_linker_1, # of connection points: 2
#     Edge 26, Type (0, 0), BuildingBlock: KIFKEQ_clean_linker_1, # of connection points: 2
#     Edge 27, Type (0, 0), BuildingBlock: KIFKEQ_clean_linker_1, # of connection points: 2
#     Edge 28, Type (0, 0), BuildingBlock: KIFKEQ_clean_linker_1, # of connection points: 2
#     Edge 29, Type (0, 0), BuildingBlock: KIFKEQ_clean_linker_1, # of connection points: 2
#     Edge 30, Type (0, 0), BuildingBlock: KIFKEQ_clean_linker_1, # of connection points: 2
#     Edge 31, Type (0, 0), BuildingBlock: KIFKEQ_clean_linker_1, # of connection points: 2
#     Edge 32, Type (0, 0), BuildingBlock: KIFKEQ_clean_linker_1, # of connection points: 2
#     Edge 33, Type (0, 0), BuildingBlock: KIFKEQ_clean_linker_1, # of connection points: 2
#     Edge 34, Type (0, 0), BuildingBlock: KIFKEQ_clean_linker_1, # of connection points: 2
#     Edge 35, Type (0, 0), BuildingBlock: KIFKEQ_clean_linker_1, # of connection points: 2
#     Edge 36, Type (0, 0), BuildingBlock: KIFKEQ_clean_linker_1, # of connection points: 2
#     Edge 37, Type (0, 0), BuildingBlock: KIFKEQ_clean_linker_1, # of connection points: 2
#     Edge 38, Type (0, 0), BuildingBlock: KIFKEQ_clean_linker_1, # of connection points: 2
#     Edge 39, Type (0, 0), BuildingBlock: KIFKEQ_clean_linker_1, # of connection points: 2
#     Edge 40, Type (0, 0), BuildingBlock: KIFKEQ_clean_linker_1, # of connection points: 2
#     Edge 41, Type (0, 0), BuildingBlock: KIFKEQ_clean_linker_1, # of connection points: 2
#     Edge 42, Type (0, 0), BuildingBlock: KIFKEQ_clean_linker_1, # of connection points: 2
#     Edge 43, Type (0, 0), BuildingBlock: KIFKEQ_clean_linker_1, # of connection points: 2
#     Edge 44, Type (0, 0), BuildingBlock: KIFKEQ_clean_linker_1, # of connection points: 2
#     Edge 45, Type (0, 0), BuildingBlock: KIFKEQ_clean_linker_1, # of connection points: 2
#     Edge 46, Type (0, 0), BuildingBlock: KIFKEQ_clean_linker_1, # of connection points: 2
#     Edge 47, Type (0, 0), BuildingBlock: KIFKEQ_clean_linker_1, # of connection points: 2
# Relax obj value: 0.060
# Max RMSD: 0.125
# Mean RMSD: 0.125
data_MOF--net-ume--node1-GALJAG_clean_sbu_0--edge1-KIFKEQ_clean_linker_1
_symmetry_space_group_name_H-M    P1
_symmetry_Int_Tables_number       1
_symmetry_cell_setting            triclinic
loop_
_symmetry_equiv_pos_as_xyz
'x, y, z'
_cell_length_a     28.504808
_cell_length_b     28.508415
_cell_length_c     114.95463
_cell_angle_alpha  90.014635
_cell_angle_beta   89.986351
_cell_angle_gamma 89.996252
loop_
_atom_site_label
_atom_site_type_symbol
_atom_site_fract_x
_atom_site_fract_y
_atom_site_fract_z
_atom_type_partial_charge
In0 In 0.24295 0.10737 0.30771 0.0
O1 O 0.2447 0.1584 0.32325 0.0
O2 O 0.24692 0.08469 0.32636 0.0
C3 C 0.2381 0.15788 0.28801 0.0
C4 C 0.15621 0.07063 0.30745 0.0
C5 C 0.32916 0.06993 0.30489 0.0
O6 O 0.24618 0.17717 0.29773 0.0
O7 O 0.23232 0.11409 0.2884 0.0
O8 O 0.2922 0.04576 0.3038 0.0
O9 O 0.32237 0.11255 0.30733 0.0
C10 C 0.24682 0.12546 0.33064 0.0
O11 O 0.19237 0.04613 0.30543 0.0
O12 O 0.16407 0.11338 0.30961 0.0
In13 In 0.89497 0.75163 0.55757 0.0
O14 O 0.84239 0.7477 0.57282 0.0
O15 O 0.91417 0.76344 0.57624 0.0
C16 C 0.84702 0.74741 0.53753 0.0
C17 C 0.93311 0.66539 0.55766 0.0
C18 C 0.93136 0.83794 0.55457 0.0
O19 O 0.82651 0.75503 0.54713 0.0
O20 O 0.89085 0.742 0.5382 0.0
O21 O 0.9561 0.80121 0.55368 0.0
O22 O 0.88857 0.8308 0.5568 0.0
C23 C 0.87359 0.75723 0.5803 0.0
O24 O 0.95803 0.70209 0.55725 0.0
O25 O 0.88943 0.67245 0.55809 0.0
In26 In 0.25136 0.39127 0.80941 0.0
O27 O 0.30086 0.45433 0.80947 0.0
O28 O 0.32954 0.38657 0.80604 0.0
C29 C 0.1656 0.43211 0.81051 0.0
C30 C 0.26019 0.35557 0.83101 0.0
C31 C 0.24785 0.34846 0.78856 0.0
O32 O 0.20233 0.4554 0.80835 0.0
O33 O 0.17248 0.38903 0.81221 0.0
O34 O 0.25154 0.32542 0.79792 0.0
O35 O 0.24553 0.39233 0.78983 0.0
C36 C 0.33692 0.43003 0.80718 0.0
O37 O 0.24249 0.33204 0.8228 0.0
O38 O 0.27342 0.39628 0.82829 0.0
In39 In 0.60713 0.75383 0.05648 0.0
O40 O 0.65796 0.75288 0.07207 0.0
O41 O 0.58435 0.75876 0.0751 0.0
C42 C 0.65767 0.75568 0.03675 0.0
C43 C 0.57029 0.84025 0.055 0.0
C44 C 0.56961 0.66707 0.05507 0.0
O45 O 0.67717 0.75071 0.04658 0.0
O46 O 0.61365 0.75957 0.03705 0.0
O47 O 0.5455 0.70369 0.0534 0.0
O48 O 0.61223 0.67443 0.05738 0.0
C49 C 0.62499 0.75675 0.07941 0.0
O50 O 0.54584 0.80368 0.05344 0.0
O51 O 0.61308 0.83295 0.05724 0.0
In52 In 0.2488 0.38965 0.93814 0.0
O53 O 0.25894 0.33151 0.92453 0.0
O54 O 0.23407 0.39831 0.91894 0.0
C55 C 0.24723 0.34604 0.95892 0.0
C56 C 0.16246 0.4272 0.939 0.0
C57 C 0.33448 0.43062 0.93832 0.0
O58 O 0.24826 0.32327 0.94948 0.0
O59 O 0.24718 0.38998 0.95777 0.0
O60 O 0.29719 0.45393 0.93972 0.0
O61 O 0.32828 0.38735 0.93672 0.0
C62 C 0.24547 0.35705 0.91618 0.0
O63 O 0.19915 0.45225 0.9392 0.0
O64 O 0.16959 0.38351 0.93838 0.0
In65 In 0.60069 0.74854 0.18908 0.0
O66 O 0.65374 0.74963 0.17391 0.0
O67 O 0.58134 0.73772 0.17037 0.0
C68 C 0.64886 0.74874 0.20913 0.0
C69 C 0.56307 0.66279 0.1913 0.0
C70 C 0.56289 0.83531 0.18993 0.0
O71 O 0.66966 0.75041 0.19939 0.0
O72 O 0.60469 0.74746 0.20858 0.0
O73 O 0.53907 0.79883 0.19198 0.0
O74 O 0.60534 0.82781 0.18745 0.0
C75 C 0.62229 0.74181 0.16637 0.0
O76 O 0.538 0.69934 0.19054 0.0
O77 O 0.60683 0.66974 0.19095 0.0
In78 In 0.25802 0.10539 0.43986 0.0
O79 O 0.25467 0.1601 0.42505 0.0
O80 O 0.27275 0.08934 0.42109 0.0
C81 C 0.25675 0.15232 0.46013 0.0
C82 C 0.34385 0.06747 0.44167 0.0
C83 C 0.17187 0.06588 0.44043 0.0
O84 O 0.25535 0.17366 0.45046 0.0
O85 O 0.25866 0.10823 0.45941 0.0
O86 O 0.20858 0.04307 0.44288 0.0
O87 O 0.17886 0.10804 0.43761 0.0
C88 C 0.26608 0.13036 0.41737 0.0
O89 O 0.30737 0.04265 0.44039 0.0
O90 O 0.33678 0.11121 0.44216 0.0
In91 In 0.90043 0.75037 0.68974 0.0
O92 O 0.84752 0.75219 0.67458 0.0
O93 O 0.91919 0.73648 0.67108 0.0
C94 C 0.85019 0.75579 0.70946 0.0
C95 C 0.93799 0.83713 0.68932 0.0
C96 C 0.93804 0.66459 0.69317 0.0
O97 O 0.83126 0.74581 0.69981 0.0
O98 O 0.89371 0.76364 0.709 0.0
O99 O 0.9632 0.70097 0.69216 0.0
O100 O 0.89443 0.67182 0.69256 0.0
C101 C 0.87846 0.74229 0.66707 0.0
O102 O 0.962 0.80124 0.6919 0.0
O103 O 0.8955 0.82897 0.68698 0.0
In104 In 0.74973 0.60338 0.8078 0.0
O105 O 0.75119 0.65919 0.82234 0.0
O106 O 0.73007 0.58936 0.82639 0.0
C107 C 0.75336 0.64962 0.78745 0.0
C108 C 0.66445 0.56452 0.80517 0.0
C109 C 0.83669 0.56536 0.80878 0.0
O110 O 0.75171 0.67123 0.79707 0.0
O111 O 0.75357 0.6055 0.78824 0.0
O112 O 0.80092 0.54144 0.80611 0.0
O113 O 0.82837 0.60787 0.81097 0.0
C114 C 0.73707 0.63052 0.82998 0.0
O115 O 0.70107 0.53995 0.80656 0.0
O116 O 0.67121 0.60833 0.80496 0.0
In117 In 0.39637 0.25291 0.05722 0.0
O118 O 0.34495 0.25236 0.07269 0.0
O119 O 0.41856 0.25034 0.07594 0.0
C120 C 0.34545 0.25085 0.03755 0.0
C121 C 0.43383 0.16669 0.0558 0.0
C122 C 0.43404 0.33957 0.05559 0.0
O123 O 0.32634 0.25737 0.04736 0.0
O124 O 0.38931 0.24546 0.03782 0.0
O125 O 0.45815 0.30283 0.05407 0.0
O126 O 0.39135 0.33238 0.05786 0.0
C127 C 0.37767 0.25064 0.08014 0.0
O128 O 0.45796 0.20339 0.05417 0.0
O129 O 0.39108 0.17374 0.05813 0.0
In130 In 0.74261 0.89764 0.30668 0.0
O131 O 0.74591 0.84611 0.32206 0.0
O132 O 0.73138 0.91831 0.32531 0.0
C133 C 0.74884 0.84667 0.28706 0.0
C134 C 0.82851 0.93662 0.30698 0.0
C135 C 0.65617 0.93404 0.30366 0.0
O136 O 0.73929 0.82784 0.29675 0.0
O137 O 0.75532 0.89038 0.28743 0.0
O138 O 0.69287 0.95882 0.30285 0.0
O139 O 0.66336 0.89124 0.30583 0.0
C140 C 0.73728 0.87782 0.32948 0.0
O141 O 0.79213 0.96016 0.30457 0.0
O142 O 0.82124 0.8939 0.30924 0.0
In143 In 0.10482 0.25122 0.55811 0.0
O144 O 0.04195 0.30079 0.55763 0.0
O145 O 0.11066 0.33041 0.55723 0.0
C146 C 0.06722 0.16482 0.55594 0.0
C147 C 0.12622 0.25302 0.5809 0.0
C148 C 0.15414 0.25228 0.53821 0.0
O149 O 0.04377 0.20167 0.55399 0.0
O150 O 0.1092 0.1718 0.55896 0.0
O151 O 0.17394 0.24616 0.54796 0.0
O152 O 0.11028 0.25787 0.53866 0.0
C153 C 0.06693 0.33746 0.55724 0.0
O154 O 0.15804 0.25435 0.57321 0.0
O155 O 0.08499 0.25039 0.57699 0.0
In156 In 0.75753 0.89523 0.43916 0.0
O157 O 0.70834 0.95842 0.44025 0.0
O158 O 0.67834 0.89005 0.43904 0.0
C159 C 0.84439 0.93088 0.4417 0.0
C160 C 0.76012 0.87543 0.41631 0.0
C161 C 0.75425 0.84614 0.45904 0.0
O162 O 0.80794 0.95584 0.44284 0.0
O163 O 0.83675 0.8882 0.43945 0.0
O164 O 0.76096 0.82609 0.44934 0.0
O165 O 0.74951 0.89009 0.45855 0.0
C166 C 0.6715 0.93367 0.43987 0.0
O167 O 0.75232 0.8436 0.42375 0.0
O168 O 0.76623 0.91586 0.42048 0.0
In169 In 0.1101 0.25178 0.68966 0.0
O170 O 0.16433 0.24648 0.67479 0.0
O171 O 0.0973 0.27616 0.67131 0.0
C172 C 0.1602 0.24556 0.70943 0.0
C173 C 0.07042 0.16592 0.68851 0.0
C174 C 0.06942 0.33575 0.69363 0.0
O175 O 0.17856 0.25878 0.69995 0.0
O176 O 0.11741 0.23468 0.70876 0.0
O177 O 0.04567 0.29959 0.69113 0.0
O178 O 0.11312 0.32912 0.6943 0.0
C179 C 0.13702 0.26486 0.66742 0.0
O180 O 0.04769 0.20175 0.69173 0.0
O181 O 0.11257 0.17372 0.68578 0.0
In182 In 0.74942 0.60189 0.93925 0.0
O183 O 0.74912 0.65419 0.924 0.0
O184 O 0.74579 0.58077 0.92049 0.0
C185 C 0.75468 0.65153 0.95909 0.0
C186 C 0.83551 0.56342 0.93949 0.0
C187 C 0.66211 0.56601 0.94112 0.0
O188 O 0.74884 0.67141 0.94935 0.0
O189 O 0.75774 0.60745 0.95867 0.0
O190 O 0.69843 0.54087 0.94222 0.0
O191 O 0.67009 0.60891 0.93928 0.0
C192 C 0.74661 0.6219 0.91645 0.0
O193 O 0.79908 0.53991 0.94189 0.0
O194 O 0.82824 0.60596 0.93701 0.0
In195 In 0.39109 0.25019 0.18988 0.0
O196 O 0.33872 0.24912 0.17454 0.0
O197 O 0.41095 0.26338 0.1713 0.0
C198 C 0.34269 0.25013 0.20991 0.0
C199 C 0.42925 0.33561 0.19224 0.0
C200 C 0.42851 0.16323 0.19047 0.0
O201 O 0.32196 0.24913 0.20016 0.0
O202 O 0.38687 0.25058 0.20939 0.0
O203 O 0.45234 0.19948 0.19275 0.0
O204 O 0.38621 0.17103 0.1879 0.0
C205 C 0.3703 0.2587 0.16716 0.0
O206 O 0.45409 0.29891 0.19142 0.0
O207 O 0.38543 0.32894 0.19193 0.0
H208 H 0.85519 0.025 0.30049 0.0
H209 H 0.90949 0.89388 0.31364 0.0
H210 H 0.93453 0.05739 0.30028 0.0
H211 H 0.98837 0.9265 0.31376 0.0
H212 H 0.12919 0.98218 0.30124 0.0
H213 H 0.04974 0.95041 0.30081 0.0
H214 H 0.99568 0.08304 0.31318 0.0
H215 H 0.07491 0.11508 0.31326 0.0
C216 C 0.88404 0.00324 0.3034 0.0
C217 C 0.87617 0.95693 0.30706 0.0
C218 C 0.92947 0.02182 0.30334 0.0
C219 C 0.9679 0.99452 0.30698 0.0
C220 C 0.95978 0.94826 0.31071 0.0
C221 C 0.91448 0.92966 0.31071 0.0
C222 C 0.10029 0.0045 0.30385 0.0
C223 C 0.10824 0.05107 0.30728 0.0
C224 C 0.05477 0.98626 0.30367 0.0
C225 C 0.01626 0.01415 0.30698 0.0
C226 C 0.02438 0.06079 0.31041 0.0
C227 C 0.06984 0.07906 0.31053 0.0
H228 H 0.88762 0.5841 0.55269 0.0
H229 H 0.02337 0.63902 0.56223 0.0
H230 H 0.91981 0.50517 0.55215 0.0
H231 H 0.05536 0.55968 0.56236 0.0
H232 H 0.11063 0.41819 0.55083 0.0
H233 H 0.07836 0.49721 0.55058 0.0
H234 H 0.94647 0.44359 0.56365 0.0
H235 H 0.97828 0.36427 0.56323 0.0
C236 C 0.92434 0.57914 0.55479 0.0
C237 C 0.95305 0.61763 0.55749 0.0
C238 C 0.94278 0.53378 0.55457 0.0
C239 C 0.99026 0.52569 0.55726 0.0
C240 C 0.01888 0.56443 0.56003 0.0
C241 C 0.00054 0.60995 0.56004 0.0
C242 C 0.07466 0.42339 0.55359 0.0
C243 C 0.04688 0.38516 0.55702 0.0
C244 C 0.05621 0.46878 0.55355 0.0
C245 C 0.00975 0.47713 0.55714 0.0
C246 C 0.98208 0.43863 0.56061 0.0
C247 C 1.00033 0.39311 0.56045 0.0
H248 H 0.63816 0.47409 0.80956 0.0
H249 H 0.58327 0.60906 0.79933 0.0
H250 H 0.55886 0.44204 0.80973 0.0
H251 H 0.50417 0.57678 0.79904 0.0
H252 H 0.36521 0.51882 0.81279 0.0
H253 H 0.44449 0.55083 0.81187 0.0
H254 H 0.49482 0.41925 0.79791 0.0
H255 H 0.41596 0.38691 0.79928 0.0
C256 C 0.60917 0.49671 0.80719 0.0
C257 C 0.61689 0.54407 0.80446 0.0
C258 C 0.56367 0.47833 0.80723 0.0
C259 C 0.5249 0.50682 0.80444 0.0
C260 C 0.53295 0.554 0.80146 0.0
C261 C 0.57837 0.57244 0.80153 0.0
C262 C 0.39326 0.49687 0.8095 0.0
C263 C 0.38444 0.45035 0.80615 0.0
C264 C 0.4387 0.51525 0.8089 0.0
C265 C 0.47627 0.48764 0.80483 0.0
C266 C 0.46706 0.4413 0.8013 0.0
C267 C 0.42175 0.42283 0.80201 0.0
H268 H 0.52185 0.14135 0.04877 0.0
H269 H 0.39092 0.08438 0.06133 0.0
H270 H 0.55465 0.06236 0.04778 0.0
H271 H 0.42401 0.00571 0.06073 0.0
H272 H 0.48195 0.86614 0.04837 0.0
H273 H 0.44923 0.94522 0.0478 0.0
H274 H 0.58095 0.00098 0.0603 0.0
H275 H 0.61394 0.92224 0.06048 0.0
C276 C 0.50018 0.11194 0.05137 0.0
C277 C 0.45387 0.119 0.05514 0.0
C278 C 0.51901 0.06669 0.05086 0.0
C279 C 0.49201 0.02759 0.05419 0.0
C280 C 0.44558 0.03484 0.05792 0.0
C281 C 0.4267 0.08 0.05835 0.0
C282 C 0.50389 0.89538 0.05094 0.0
C283 C 0.55045 0.88804 0.05447 0.0
C284 C 0.4851 0.94067 0.05068 0.0
C285 C 0.5124 0.97955 0.05403 0.0
C286 C 0.55912 0.97204 0.05749 0.0
C287 C 0.57796 0.92683 0.05767 0.0
H288 H 0.13719 0.51802 0.94328 0.0
H289 H 0.0799 0.38141 0.93544 0.0
H290 H 0.0581 0.55063 0.94386 0.0
H291 H 0.00103 0.41414 0.93556 0.0
H292 H 0.86268 0.47742 0.94756 0.0
H293 H 0.94185 0.44484 0.94792 0.0
H294 H 0.99463 0.5707 0.93151 0.0
H295 H 0.91593 0.60374 0.93159 0.0
C296 C 0.10767 0.49505 0.94161 0.0
C297 C 0.11468 0.44721 0.93932 0.0
C298 C 0.06232 0.51375 0.94187 0.0
C299 C 0.02303 0.48507 0.93973 0.0
C300 C 0.03028 0.43715 0.93744 0.0
C301 C 0.07555 0.41842 0.93729 0.0
C302 C 0.89128 0.49805 0.94405 0.0
C303 C 0.88317 0.54311 0.93957 0.0
C304 C 0.93664 0.47933 0.9442 0.0
C305 C 0.97478 0.50512 0.93975 0.0
C306 C 0.96638 0.55014 0.93521 0.0
C307 C 0.92116 0.56898 0.93517 0.0
H308 H 0.38515 0.41586 0.19889 0.0
H309 H 0.51896 0.3623 0.18735 0.0
H310 H 0.41751 0.49484 0.1996 0.0
H311 H 0.55094 0.44154 0.18747 0.0
H312 H 0.60793 0.58299 0.19794 0.0
H313 H 0.57577 0.50404 0.19917 0.0
H314 H 0.44136 0.55622 0.18742 0.0
H315 H 0.47319 0.6355 0.1868 0.0
C316 C 0.4215 0.4211 0.19646 0.0
C317 C 0.44959 0.38304 0.19306 0.0
C318 C 0.44 0.46643 0.19678 0.0
C319 C 0.48683 0.47485 0.19352 0.0
C320 C 0.51498 0.43647 0.19022 0.0
C321 C 0.49664 0.39101 0.19008 0.0
C322 C 0.57143 0.57751 0.19569 0.0
C323 C 0.54302 0.61528 0.19227 0.0
C324 C 0.55303 0.53218 0.19631 0.0
C325 C 0.50595 0.52347 0.19334 0.0
C326 C 0.47753 0.56155 0.18997 0.0
C327 C 0.49579 0.60701 0.18954 0.0
H328 H 0.42404 0.10972 0.44912 0.0
H329 H 0.37101 0.97996 0.43493 0.0
H330 H 0.50316 0.07742 0.44924 0.0
H331 H 0.4503 0.94827 0.43444 0.0
H332 H 0.59046 0.88747 0.44465 0.0
H333 H 0.51161 0.9196 0.44581 0.0
H334 H 0.56578 0.0569 0.43706 0.0
H335 H 0.64511 0.02483 0.43653 0.0
C336 C 0.42944 0.07431 0.44598 0.0
C337 C 0.39145 0.04726 0.44205 0.0
C338 C 0.47485 0.05587 0.44595 0.0
C339 C 0.48342 0.01021 0.4418 0.0
C340 C 0.44514 0.98321 0.4379 0.0
C341 C 0.39963 0.00141 0.43812 0.0
C342 C 0.58546 0.92456 0.44301 0.0
C343 C 0.62384 0.95369 0.44049 0.0
C344 C 0.54016 0.94298 0.44359 0.0
C345 C 0.53201 0.9909 0.44147 0.0
C346 C 0.57064 0.02001 0.43894 0.0
C347 C 0.61612 0.00164 0.43855 0.0
H348 H 0.11255 0.08541 0.68117 0.0
H349 H 0.98284 0.1384 0.69548 0.0
H350 H 0.08054 0.00618 0.68125 0.0
H351 H 0.95105 0.05883 0.69582 0.0
H352 H 0.89285 0.91788 0.68341 0.0
H353 H 0.92446 0.99724 0.68299 0.0
H354 H 0.05867 0.94468 0.69464 0.0
H355 H 0.02718 0.86499 0.69479 0.0
C356 C 0.07717 0.08009 0.68436 0.0
C357 C 0.05017 0.11814 0.68831 0.0
C358 C 0.05894 0.0346 0.68448 0.0
C359 C 0.01328 0.02602 0.68859 0.0
C360 C 0.98615 0.06422 0.69247 0.0
C361 C 0.0044 0.1098 0.69232 0.0
C362 C 0.92914 0.92326 0.68587 0.0
C363 C 0.95757 0.88518 0.68912 0.0
C364 C 0.94718 0.96883 0.6857 0.0
C365 C 0.9941 0.97744 0.6888 0.0
C366 C 0.02254 0.93925 0.69206 0.0
C367 C 0.00448 0.89361 0.69221 0.0
H368 H 0.63047 0.02252 0.29697 0.0
H369 H 0.57366 0.88967 0.30822 0.0
H370 H 0.55132 0.0551 0.29611 0.0
H371 H 0.49493 0.92246 0.30782 0.0
H372 H 0.35407 0.98225 0.29738 0.0
H373 H 0.43305 0.94962 0.29586 0.0
H374 H 0.49064 0.07999 0.30873 0.0
H375 H 0.41206 0.1129 0.3098 0.0
C376 C 0.60105 0.00033 0.29927 0.0
C377 C 0.60827 0.9536 0.30268 0.0
C378 C 0.55568 0.01903 0.29885 0.0
C379 C 0.51654 0.99153 0.30194 0.0
C380 C 0.52396 0.94455 0.30519 0.0
C381 C 0.56922 0.92579 0.30551 0.0
C382 C 0.38371 0.00392 0.29982 0.0
C383 C 0.37688 0.05008 0.30372 0.0
C384 C 0.42899 0.98518 0.29901 0.0
C385 C 0.46842 0.01207 0.30219 0.0
C386 C 0.46136 0.05843 0.30601 0.0
C387 C 0.41619 0.07724 0.30671 0.0
H388 H 0.88619 0.92059 0.55847 0.0
H389 H 0.02079 0.86344 0.54864 0.0
H390 H 0.91901 0.99934 0.55818 0.0
H391 H 0.05348 0.94257 0.54795 0.0
H392 H 0.10864 0.08238 0.56203 0.0
H393 H 0.07576 0.00375 0.56094 0.0
H394 H 0.94849 0.06041 0.54608 0.0
H395 H 0.98102 0.13944 0.54757 0.0
C396 C 0.92272 0.92494 0.5561 0.0
C397 C 0.95099 0.88581 0.55363 0.0
C398 C 0.9415 0.97019 0.55586 0.0
C399 C 0.98898 0.97747 0.55306 0.0
C400 C 0.01698 0.93827 0.55033 0.0
C401 C 0.99822 0.89292 0.55065 0.0
C402 C 0.07366 0.07803 0.55851 0.0
C403 C 0.04732 0.11709 0.55493 0.0
C404 C 0.05491 0.03285 0.5578 0.0
C405 C 0.00945 0.02556 0.5534 0.0
C406 C 0.98334 0.06472 0.54967 0.0
C407 C 0.00203 0.11001 0.55046 0.0
H408 H 0.08409 0.38893 0.8166 0.0
H409 H 0.13925 0.5216 0.80473 0.0
H410 H 0.00506 0.42118 0.81641 0.0
H411 H 0.05977 0.55372 0.8042 0.0
H412 H 0.91671 0.60963 0.81569 0.0
H413 H 0.99607 0.57805 0.81641 0.0
H414 H 0.94509 0.44558 0.80319 0.0
H415 H 0.86539 0.47694 0.8028 0.0
C416 C 0.07929 0.42503 0.81392 0.0
C417 C 0.11792 0.45274 0.81068 0.0
C418 C 0.03386 0.44344 0.81372 0.0
C419 C 0.02582 0.49001 0.81022 0.0
C420 C 0.06463 0.51788 0.80707 0.0
C421 C 0.11019 0.49947 0.80732 0.0
C422 C 0.92244 0.57371 0.81296 0.0
C423 C 0.88476 0.54572 0.80921 0.0
C424 C 0.96805 0.55569 0.8133 0.0
C425 C 0.97717 0.50925 0.80984 0.0
C426 C 0.93935 0.48128 0.80608 0.0
C427 C 0.89366 0.49928 0.80579 0.0
H428 H 0.48135 0.64079 0.04835 0.0
H429 H 0.61311 0.58514 0.06071 0.0
H430 H 0.4489 0.56156 0.04773 0.0
H431 H 0.58042 0.5063 0.06048 0.0
H432 H 0.39045 0.42185 0.06085 0.0
H433 H 0.4232 0.50066 0.06038 0.0
H434 H 0.55503 0.44453 0.04804 0.0
H435 H 0.52252 0.36536 0.04891 0.0
C436 C 0.50329 0.61163 0.05097 0.0
C437 C 0.54974 0.61918 0.05458 0.0
C438 C 0.48466 0.56622 0.05068 0.0
C439 C 0.51198 0.52738 0.05407 0.0
C440 C 0.55855 0.53514 0.05763 0.0
C441 C 0.57722 0.58044 0.05784 0.0
C442 C 0.42642 0.42636 0.05802 0.0
C443 C 0.45397 0.38741 0.05495 0.0
C444 C 0.44513 0.47163 0.05767 0.0
C445 C 0.49179 0.47914 0.05415 0.0
C446 C 0.51919 0.44008 0.05096 0.0
C447 C 0.50052 0.3947 0.05139 0.0
H448 H 0.35907 0.5193 0.94516 0.0
H449 H 0.41714 0.38894 0.93259 0.0
H450 H 0.43801 0.55212 0.9466 0.0
H451 H 0.49568 0.42203 0.93357 0.0
H452 H 0.63447 0.47713 0.94692 0.0
H453 H 0.55499 0.44528 0.94676 0.0
H454 H 0.50177 0.57951 0.93526 0.0
H455 H 0.58085 0.61156 0.93587 0.0
C456 C 0.38869 0.49785 0.94261 0.0
C457 C 0.38193 0.45157 0.93878 0.0
C458 C 0.43397 0.51667 0.94338 0.0
C459 C 0.47345 0.48973 0.94025 0.0
C460 C 0.46637 0.44356 0.9363 0.0
C461 C 0.42123 0.42467 0.93563 0.0
C462 C 0.60568 0.49982 0.94444 0.0
C463 C 0.6139 0.5468 0.94141 0.0
C464 C 0.56012 0.48153 0.94426 0.0
C465 C 0.52177 0.5097 0.94093 0.0
C466 C 0.53016 0.55688 0.93803 0.0
C467 C 0.57562 0.57523 0.93831 0.0
H468 H 0.47445 0.86162 0.19649 0.0
H469 H 0.60655 0.91718 0.1843 0.0
H470 H 0.44219 0.94094 0.19718 0.0
H471 H 0.57408 0.99615 0.18466 0.0
H472 H 0.38498 0.08183 0.18436 0.0
H473 H 0.41735 0.00278 0.18445 0.0
H474 H 0.54864 0.0569 0.19763 0.0
H475 H 0.51651 0.13628 0.1972 0.0
C476 C 0.4965 0.89077 0.19391 0.0
C477 C 0.54299 0.88319 0.19034 0.0
C478 C 0.47798 0.93621 0.19425 0.0
C479 C 0.50551 0.97503 0.19097 0.0
C480 C 0.55208 0.96726 0.18742 0.0
C481 C 0.57061 0.9219 0.18714 0.0
C482 C 0.42076 0.07683 0.18728 0.0
C483 C 0.44827 0.11527 0.19074 0.0
C484 C 0.43923 0.03144 0.18741 0.0
C485 C 0.48562 0.02335 0.19106 0.0
C486 C 0.513 0.06188 0.19461 0.0
C487 C 0.49456 0.10736 0.19442 0.0
H488 H 0.92652 0.88507 0.43752 0.0
H489 H 0.87085 0.02022 0.4474 0.0
H490 H 0.00556 0.91736 0.43753 0.0
H491 H 0.95023 0.05237 0.44778 0.0
H492 H 0.08993 0.10667 0.43369 0.0
H493 H 0.01121 0.07381 0.43454 0.0
H494 H 0.06705 0.94669 0.44965 0.0
H495 H 0.14616 0.97924 0.44845 0.0
C496 C 0.93126 0.92161 0.43983 0.0
C497 C 0.89246 0.95018 0.44242 0.0
C498 C 0.97666 0.94008 0.4399 0.0
C499 C 0.98439 0.98754 0.44263 0.0
C500 C 0.94554 0.01586 0.44545 0.0
C501 C 0.90006 0.99741 0.44531 0.0
C502 C 0.0854 0.07167 0.43719 0.0
C503 C 0.12423 0.04546 0.44097 0.0
C504 C 0.04018 0.05295 0.43776 0.0
C505 C 0.03262 0.00763 0.44221 0.0
C506 C 0.07158 0.98146 0.44604 0.0
C507 C 0.11692 1.00014 0.44539 0.0
H508 H 0.11099 0.41406 0.70244 0.0
H509 H 0.98112 0.36422 0.68761 0.0
H510 H 0.07906 0.49319 0.70344 0.0
H511 H 0.94963 0.44374 0.68813 0.0
H512 H 0.8909 0.58458 0.69871 0.0
H513 H 0.92178 0.50512 0.7 0.0
H514 H 0.05996 0.55684 0.69124 0.0
H515 H 0.02916 0.6366 0.69044 0.0
C516 C 0.07554 0.42008 0.69939 0.0
C517 C 0.04854 0.38297 0.69494 0.0
C518 C 0.05733 0.46557 0.69987 0.0
C519 C 0.01182 0.47521 0.69578 0.0
C520 C 0.98454 0.43772 0.69152 0.0
C521 C 0.00262 0.39208 0.69117 0.0
C522 C 0.92796 0.57897 0.69715 0.0
C523 C 0.95763 0.61681 0.69446 0.0
C524 C 0.94564 0.53331 0.6978 0.0
C525 C 0.99339 0.52424 0.69566 0.0
C526 C 0.02315 0.56238 0.69312 0.0
C527 C 0.00551 0.60816 0.6926 0.0
H528 H 0.25298 0.20872 0.34284 0.0
H529 H 0.24695 0.05828 0.34718 0.0
H530 H 0.26162 0.21786 0.36404 0.0
H531 H 0.25482 0.06736 0.36801 0.0
H532 H 0.32108 0.08568 0.40192 0.0
H533 H 0.31921 0.09165 0.38086 0.0
H534 H 0.21691 0.20303 0.38326 0.0
H535 H 0.21992 0.19784 0.40462 0.0
C536 C 0.25329 0.17777 0.3483 0.0
C537 C 0.24979 0.13278 0.34335 0.0
C538 C 0.2581 0.183 0.3604 0.0
C539 C 0.25976 0.14328 0.36765 0.0
C540 C 0.25489 0.09861 0.36264 0.0
C541 C 0.25008 0.09343 0.35068 0.0
C542 C 0.29878 0.11204 0.39798 0.0
C543 C 0.27009 0.1408 0.40486 0.0
C544 C 0.29757 0.11535 0.38591 0.0
C545 C 0.26703 0.14699 0.3804 0.0
C546 C 0.2407 0.17825 0.38728 0.0
C547 C 0.24235 0.17527 0.39947 0.0
H548 H 0.93038 0.79625 0.59634 0.0
H549 H 0.79821 0.72341 0.59284 0.0
H550 H 0.92423 0.79169 0.61735 0.0
H551 H 0.79227 0.71853 0.61421 0.0
H552 H 0.79866 0.76768 0.65502 0.0
H553 H 0.79001 0.77252 0.63373 0.0
H554 H 0.92974 0.7166 0.62959 0.0
H555 H 0.93849 0.71195 0.65053 0.0
C556 C 0.89972 0.77957 0.60008 0.0
C557 C 0.86514 0.75947 0.59296 0.0
C558 C 0.89627 0.77693 0.61211 0.0
C559 C 0.85826 0.75395 0.61737 0.0
C560 C 0.82198 0.73631 0.61033 0.0
C561 C 0.82541 0.73904 0.59815 0.0
C562 C 0.82712 0.75585 0.64951 0.0
C563 C 0.86951 0.74012 0.65442 0.0
C564 C 0.82212 0.75853 0.63738 0.0
C565 C 0.85955 0.7457 0.63007 0.0
C566 C 0.9007 0.72757 0.63503 0.0
C567 C 0.90563 0.72484 0.64704 0.0
H568 H 0.32636 0.37619 0.8471 0.0
H569 H 0.19709 0.2998 0.84227 0.0
H570 H 0.32248 0.36145 0.86805 0.0
H571 H 0.1923 0.28665 0.86338 0.0
H572 H 0.18261 0.38156 0.89968 0.0
H573 H 0.18703 0.36575 0.8788 0.0
H574 H 0.31287 0.2845 0.88415 0.0
H575 H 0.30737 0.29875 0.90523 0.0
C576 C 0.29771 0.35534 0.85052 0.0
C577 C 0.26198 0.33915 0.84314 0.0
C578 C 0.29564 0.34673 0.86246 0.0
C579 C 0.2572 0.32285 0.86724 0.0
C580 C 0.22246 0.30479 0.85982 0.0
C581 C 0.22523 0.31226 0.8478 0.0
C582 C 0.21047 0.35928 0.89643 0.0
C583 C 0.2447 0.34138 0.90399 0.0
C584 C 0.21282 0.35004 0.88452 0.0
C585 C 0.25013 0.32378 0.87995 0.0
C586 C 0.28357 0.30447 0.88754 0.0
C587 C 0.28041 0.31258 0.89954 0.0
H588 H 0.7038 0.73301 0.09206 0.0
H589 H 0.56154 0.78347 0.09548 0.0
H590 H 0.7097 0.72754 0.1134 0.0
H591 H 0.56766 0.77877 0.11647 0.0
H592 H 0.56456 0.70486 0.15023 0.0
H593 H 0.57175 0.70853 0.12925 0.0
H594 H 0.70613 0.77712 0.13263 0.0
H595 H 0.69923 0.77269 0.15397 0.0
C596 C 0.67416 0.74349 0.09736 0.0
C597 C 0.63195 0.7579 0.09213 0.0
C598 C 0.67757 0.74046 0.10953 0.0
C599 C 0.63879 0.7518 0.11656 0.0
C600 C 0.59771 0.76862 0.11127 0.0
C601 C 0.59427 0.77145 0.09923 0.0
C602 C 0.59594 0.72034 0.14655 0.0
C603 C 0.631 0.73918 0.15373 0.0
C604 C 0.59998 0.72256 0.13451 0.0
C605 C 0.639 0.74406 0.12931 0.0
C606 C 0.67561 0.7605 0.13644 0.0
C607 C 0.67164 0.75804 0.1486 0.0
H608 H 0.78556 0.69471 0.84316 0.0
H609 H 0.6747 0.59177 0.84465 0.0
H610 H 0.78508 0.69988 0.86453 0.0
H611 H 0.67311 0.59791 0.86574 0.0
H612 H 0.74089 0.55616 0.89962 0.0
H613 H 0.73427 0.56733 0.87884 0.0
H614 H 0.73926 0.7176 0.88348 0.0
H615 H 0.7465 0.70629 0.90465 0.0
C616 C 0.7602 0.67438 0.84804 0.0
C617 C 0.73075 0.64222 0.84235 0.0
C618 C 0.75986 0.67736 0.86023 0.0
C619 C 0.72979 0.64847 0.86678 0.0
C620 C 0.6975 0.61969 0.86093 0.0
C621 C 0.69828 0.61628 0.84887 0.0
C622 C 0.74057 0.5917 0.89628 0.0
C623 C 0.74388 0.63037 0.90379 0.0
C624 C 0.73643 0.5981 0.88435 0.0
C625 C 0.73536 0.64337 0.87955 0.0
C626 C 0.7398 0.68232 0.88698 0.0
C627 C 0.74382 0.67586 0.89905 0.0
H628 H 0.29816 0.22212 0.15398 0.0
H629 H 0.42467 0.30498 0.15185 0.0
H630 H 0.29404 0.22018 0.13258 0.0
H631 H 0.42006 0.30397 0.13079 0.0
H632 H 0.44282 0.23361 0.09662 0.0
H633 H 0.43411 0.23726 0.11755 0.0
H634 H 0.28696 0.26971 0.11366 0.0
H635 H 0.29559 0.26527 0.09237 0.0
C636 C 0.32439 0.24066 0.14895 0.0
C637 C 0.36219 0.26298 0.15453 0.0
C638 C 0.32202 0.23962 0.13675 0.0
C639 C 0.35734 0.26104 0.13004 0.0
C640 C 0.39304 0.28608 0.13571 0.0
C641 C 0.39559 0.28679 0.14779 0.0
C642 C 0.40847 0.24139 0.10017 0.0
C643 C 0.37002 0.2498 0.09285 0.0
C644 C 0.40353 0.24366 0.11219 0.0
C645 C 0.36007 0.25475 0.11724 0.0
C646 C 0.3209 0.26126 0.10998 0.0
C647 C 0.32586 0.25884 0.09783 0.0
H648 H 0.70773 0.9388 0.34589 0.0
H649 H 0.76459 0.79928 0.34174 0.0
H650 H 0.71383 0.93149 0.36685 0.0
H651 H 0.77114 0.79214 0.36303 0.0
H652 H 0.72813 0.79903 0.40387 0.0
H653 H 0.72112 0.79323 0.38255 0.0
H654 H 0.78705 0.92886 0.3791 0.0
H655 H 0.79354 0.93488 0.40007 0.0
C656 C 0.72127 0.90635 0.34947 0.0
C657 C 0.73633 0.86986 0.34217 0.0
C658 C 0.72486 0.90224 0.36148 0.0
C659 C 0.74379 0.86162 0.36654 0.0
C660 C 0.75654 0.82387 0.35932 0.0
C661 C 0.75289 0.828 0.34718 0.0
C662 C 0.74161 0.82717 0.3985 0.0
C663 C 0.76066 0.86774 0.40361 0.0
C664 C 0.73767 0.82382 0.38634 0.0
C665 C 0.7527 0.86104 0.37923 0.0
C666 C 0.77416 0.90015 0.38439 0.0
C667 C 0.77797 0.90351 0.39641 0.0
H668 H 0.09849 0.32712 0.6526 0.0
H669 H 0.19991 0.21482 0.65417 0.0
H670 H 0.10403 0.32769 0.6315 0.0
H671 H 0.20475 0.21467 0.6328 0.0
H672 H 0.21104 0.25523 0.59253 0.0
H673 H 0.22286 0.26256 0.61369 0.0
H674 H 0.0727 0.26413 0.61864 0.0
H675 H 0.06097 0.25705 0.59788 0.0
C676 C 0.12256 0.30301 0.64841 0.0
C677 C 0.14819 0.2704 0.65497 0.0
C678 C 0.12567 0.30328 0.63633 0.0
C679 C 0.15403 0.27053 0.63051 0.0
C680 C 0.1826 0.24026 0.63708 0.0
C681 C 0.17978 0.24029 0.64928 0.0
C682 C 0.18074 0.25712 0.59819 0.0
C683 C 0.1351 0.25586 0.59355 0.0
C684 C 0.1875 0.26119 0.61026 0.0
C685 C 0.14868 0.26468 0.61777 0.0
C686 C 0.1033 0.26255 0.61307 0.0
C687 C 0.09661 0.25818 0.60114 0.0
H688 H 0.27084 0.24653 0.28357 0.0
H689 H 0.20925 0.12519 0.26706 0.0
H690 H 0.28629 0.28073 0.26441 0.0
H691 H 0.2252 0.15868 0.24805 0.0
H692 H 0.24996 0.23081 0.21428 0.0
H693 H 0.21332 0.22 0.2334 0.0
H694 H 0.34443 0.25614 0.25 0.0
H695 H 0.38044 0.26736 0.23109 0.0
C696 C 0.25968 0.2277 0.27587 0.0
C697 C 0.23957 0.18293 0.27678 0.0
C698 C 0.26867 0.24713 0.26491 0.0
C699 C 0.25744 0.22216 0.25471 0.0
C700 C 0.23397 0.17905 0.2557 0.0
C701 C 0.22522 0.15963 0.26662 0.0
C702 C 0.27051 0.23725 0.22205 0.0
C703 C 0.31816 0.24922 0.22122 0.0
C704 C 0.24964 0.23101 0.23297 0.0
C705 C 0.27602 0.23706 0.24322 0.0
C706 C 0.32289 0.25178 0.24232 0.0
C707 C 0.34371 0.25768 0.23145 0.0
H708 H 0.72952 0.88153 0.48004 0.0
H709 H 0.78034 0.75527 0.46352 0.0
H710 H 0.74172 0.84656 0.49902 0.0
H711 H 0.79187 0.71952 0.48268 0.0
H712 H 0.88357 0.72271 0.51664 0.0
H713 H 0.85022 0.73641 0.49753 0.0
H714 H 0.72258 0.78729 0.51344 0.0
H715 H 0.7567 0.77432 0.53272 0.0
C716 C 0.74243 0.84583 0.48047 0.0
C717 C 0.75477 0.82138 0.47031 0.0
C718 C 0.74895 0.82555 0.49137 0.0
C719 C 0.76806 0.78033 0.49238 0.0
C720 C 0.77759 0.75466 0.48218 0.0
C721 C 0.77088 0.77501 0.47122 0.0
C722 C 0.84805 0.73605 0.51608 0.0
C723 C 0.82301 0.74826 0.52616 0.0
C724 C 0.82871 0.74345 0.5051 0.0
C725 C 0.78386 0.76331 0.50394 0.0
C726 C 0.75749 0.7725 0.51405 0.0
C727 C 0.7769 0.76496 0.52508 0.0
H728 H 0.13011 0.21085 0.73014 0.0
H729 H 0.24436 0.28723 0.71431 0.0
H730 H 0.16118 0.22869 0.74935 0.0
H731 H 0.27586 0.30476 0.73362 0.0
H732 H 0.25406 0.39222 0.76768 0.0
H733 H 0.24324 0.35846 0.74847 0.0
H734 H 0.22556 0.22127 0.76381 0.0
H735 H 0.23624 0.25542 0.78322 0.0
C736 C 0.16255 0.23049 0.73077 0.0
C737 C 0.18448 0.24824 0.72074 0.0
C738 C 0.18052 0.24044 0.74178 0.0
C739 C 0.22067 0.26857 0.743 0.0
C740 C 0.24449 0.28349 0.73294 0.0
C741 C 0.22663 0.27327 0.72189 0.0
C742 C 0.24841 0.35475 0.76697 0.0
C743 C 0.24548 0.3265 0.77695 0.0
C744 C 0.24271 0.33531 0.75594 0.0
C745 C 0.23364 0.28718 0.75462 0.0
C746 C 0.2323 0.25854 0.76458 0.0
C747 C 0.23845 0.27801 0.77566 0.0
H748 H 0.77691 0.61605 0.98026 0.0
H749 H 0.73179 0.74343 0.96328 0.0
H750 H 0.76436 0.65211 -0.00087 0.0
H751 H 0.71987 0.78016 0.98231 0.0
H752 H 0.62406 0.7801 0.01558 0.0
H753 H 0.65915 0.76477 0.99674 0.0
H754 H 0.78381 0.71173 0.01362 0.0
H755 H 0.74795 0.72658 0.03265 0.0
C756 C 0.76524 0.6522 0.98057 0.0
C757 C 0.75452 0.6767 0.97031 0.0
C758 C 0.75852 0.67307 0.99141 0.0
C759 C 0.74078 0.71891 0.99224 0.0
C760 C 0.73306 0.74456 0.98195 0.0
C761 C 0.73998 0.72364 0.97106 0.0
C762 C 0.65932 0.76596 0.01529 0.0
C763 C 0.68301 0.75379 0.02557 0.0
C764 C 0.67968 0.75761 0.00447 0.0
C765 C 0.72417 0.73672 0.00366 0.0
C766 C 0.74922 0.7274 0.01397 0.0
C767 C 0.72884 0.73603 0.02485 0.0
H768 H 0.3768 0.22132 0.01655 0.0
H769 H 0.25718 0.28511 0.03334 0.0
H770 H 0.34191 0.23595 0.99763 0.0
H771 H 0.2217 0.29953 0.01424 0.0
H772 H 0.26524 0.2541 0.96428 0.0
H773 H 0.27789 0.22108 0.9837 0.0
H774 H 0.24569 0.35572 -0.00099 0.0
H775 H 0.23271 0.38831 0.97975 0.0
C776 C 0.3425 0.23763 0.01619 0.0
C777 C 0.31996 0.25271 0.02639 0.0
C778 C 0.32228 0.24562 0.00533 0.0
C779 C 0.27917 0.26916 0.00443 0.0
C780 C 0.2552 0.28169 0.01468 0.0
C781 C 0.27536 0.27331 0.02559 0.0
C782 C 0.26001 0.27626 0.97183 0.0
C783 C 0.24866 0.32388 0.97052 0.0
C784 C 0.26732 0.25744 0.98292 0.0
C785 C 0.26301 0.28587 0.99288 0.0
C786 C 0.24878 0.33272 0.99155 0.0
C787 C 0.24182 0.35153 0.98049 0.0
H788 H 0.77738 0.87921 0.26605 0.0
H789 H 0.71856 0.75705 0.28282 0.0
H790 H 0.76306 0.84427 0.24712 0.0
H791 H 0.70488 0.7214 0.26374 0.0
H792 H 0.74101 0.77039 0.21354 0.0
H793 H 0.77698 0.78276 0.23267 0.0
H794 H 0.64663 0.74333 0.2492 0.0
H795 H 0.61134 0.7305 0.23028 0.0
C796 C 0.76238 0.84432 0.26569 0.0
C797 C 0.74826 0.82118 0.27589 0.0
C798 C 0.75459 0.82407 0.25482 0.0
C799 C 0.73239 0.78025 0.25392 0.0
C800 C 0.72148 0.75553 0.26417 0.0
C801 C 0.72944 0.77581 0.27508 0.0
C802 C 0.72052 0.76351 0.22129 0.0
C803 C 0.67324 0.7502 0.22044 0.0
C804 C 0.741 0.77066 0.23222 0.0
C805 C 0.71458 0.76423 0.24245 0.0
C806 C 0.66821 0.74805 0.24153 0.0
C807 C 0.64777 0.74122 0.23066 0.0
H808 H 0.23246 0.24358 0.46473 0.0
H809 H 0.27422 0.11409 0.48125 0.0
H810 H 0.21757 0.27821 0.4839 0.0
H811 H 0.25903 0.14818 0.50024 0.0
H812 H 0.24386 0.22215 0.53398 0.0
H813 H 0.27949 0.2074 0.51494 0.0
H814 H 0.15517 0.26148 0.49814 0.0
H815 H 0.12012 0.27662 0.51703 0.0
C816 C 0.23924 0.22287 0.47245 0.0
C817 C 0.25388 0.17601 0.47152 0.0
C818 C 0.23061 0.24258 0.48341 0.0
C819 C 0.23693 0.21585 0.49358 0.0
C820 C 0.25433 0.16994 0.49261 0.0
C821 C 0.26258 0.15023 0.4817 0.0
C822 C 0.2247 0.23177 0.52621 0.0
C823 C 0.17902 0.24989 0.52697 0.0
C824 C 0.24497 0.22321 0.51532 0.0
C825 C 0.21999 0.23297 0.50503 0.0
C826 C 0.17557 0.254 0.50586 0.0
C827 C 0.15528 0.26225 0.51671 0.0
H828 H 0.88193 0.78491 0.73053 0.0
H829 H 0.76261 0.72049 0.71377 0.0
H830 H 0.84831 0.76751 0.74949 0.0
H831 H 0.7285 0.70345 0.73284 0.0
H832 H 0.74205 0.60995 0.76622 0.0
H833 H 0.75526 0.64551 0.74731 0.0
H834 H 0.78446 0.77842 0.76387 0.0
H835 H 0.77143 0.74238 0.78297 0.0
C836 C 0.84792 0.76801 0.73091 0.0
C837 C 0.82519 0.7534 0.72069 0.0
C838 C 0.82847 0.75837 0.74178 0.0
C839 C 0.78598 0.73369 0.74266 0.0
C840 C 0.76161 0.72202 0.73241 0.0
C841 C 0.781 0.73193 0.72151 0.0
C842 C 0.75067 0.64693 0.76584 0.0
C843 C 0.7563 0.6733 0.77607 0.0
C844 C 0.75774 0.66745 0.75498 0.0
C845 C 0.77091 0.71478 0.75409 0.0
C846 C 0.7746 0.74177 0.7643 0.0
C847 C 0.76709 0.72123 0.77521 0.0
loop_
_geom_bond_atom_site_label_1
_geom_bond_atom_site_label_2
_geom_bond_distance
_geom_bond_site_symmetry_2
_ccdc_geom_bond_type
In0 O1 2.294 . S
In0 O2 2.326 . S
In0 O6 2.266 . S
In0 O7 2.326 . S
In0 O8 2.266 . S
In0 O9 2.326 . S
In0 O11 2.294 . S
In0 O12 2.326 . S
O1 In0 2.294 . S
O1 C10 1.240 . S
O2 In0 2.326 . S
O2 C10 1.252 . S
C3 O6 1.252 . S
C3 O7 1.260 . S
C4 O11 1.240 . S
C4 O12 1.252 . S
C5 O8 1.252 . S
C5 O9 1.260 . S
O6 In0 2.266 . S
O6 C3 1.252 . S
O7 In0 2.326 . S
O7 C3 1.260 . S
O8 In0 2.266 . S
O8 C5 1.252 . S
O9 In0 2.326 . S
O9 C5 1.260 . S
C10 O1 1.240 . S
C10 O2 1.252 . S
O11 In0 2.294 . S
O11 C4 1.240 . S
O12 In0 2.326 . S
O12 C4 1.252 . S
In13 O14 2.294 . S
In13 O15 2.326 . S
In13 O19 2.266 . S
In13 O20 2.326 . S
In13 O21 2.266 . S
In13 O22 2.326 . S
In13 O24 2.294 . S
In13 O25 2.326 . S
O14 In13 2.294 . S
O14 C23 1.240 . S
O15 In13 2.326 . S
O15 C23 1.252 . S
C16 O19 1.252 . S
C16 O20 1.260 . S
C17 O24 1.240 . S
C17 O25 1.252 . S
C18 O21 1.252 . S
C18 O22 1.260 . S
O19 In13 2.266 . S
O19 C16 1.252 . S
O20 In13 2.326 . S
O20 C16 1.260 . S
O21 In13 2.266 . S
O21 C18 1.252 . S
O22 In13 2.326 . S
O22 C18 1.260 . S
C23 O14 1.240 . S
C23 O15 1.252 . S
O24 In13 2.294 . S
O24 C17 1.240 . S
O25 In13 2.326 . S
O25 C17 1.252 . S
In26 O27 2.294 . S
In26 O28 2.326 . S
In26 O32 2.266 . S
In26 O33 2.326 . S
In26 O34 2.266 . S
In26 O35 2.326 . S
In26 O37 2.294 . S
In26 O38 2.326 . S
O27 In26 2.294 . S
O27 C36 1.240 . S
O28 In26 2.326 . S
O28 C36 1.252 . S
C29 O32 1.252 . S
C29 O33 1.260 . S
C30 O37 1.240 . S
C30 O38 1.252 . S
C31 O34 1.252 . S
C31 O35 1.260 . S
O32 In26 2.266 . S
O32 C29 1.252 . S
O33 In26 2.326 . S
O33 C29 1.260 . S
O34 In26 2.266 . S
O34 C31 1.252 . S
O35 In26 2.326 . S
O35 C31 1.260 . S
C36 O27 1.240 . S
C36 O28 1.252 . S
O37 In26 2.294 . S
O37 C30 1.240 . S
O38 In26 2.326 . S
O38 C30 1.252 . S
In39 O40 2.294 . S
In39 O41 2.326 . S
In39 O45 2.266 . S
In39 O46 2.326 . S
In39 O47 2.266 . S
In39 O48 2.326 . S
In39 O50 2.294 . S
In39 O51 2.326 . S
O40 In39 2.294 . S
O40 C49 1.240 . S
O41 In39 2.326 . S
O41 C49 1.252 . S
C42 O45 1.252 . S
C42 O46 1.260 . S
C43 O50 1.240 . S
C43 O51 1.252 . S
C44 O47 1.252 . S
C44 O48 1.260 . S
O45 In39 2.266 . S
O45 C42 1.252 . S
O46 In39 2.326 . S
O46 C42 1.260 . S
O47 In39 2.266 . S
O47 C44 1.252 . S
O48 In39 2.326 . S
O48 C44 1.260 . S
C49 O40 1.240 . S
C49 O41 1.252 . S
O50 In39 2.294 . S
O50 C43 1.240 . S
O51 In39 2.326 . S
O51 C43 1.252 . S
In52 O53 2.294 . S
In52 O54 2.326 . S
In52 O58 2.266 . S
In52 O59 2.326 . S
In52 O60 2.266 . S
In52 O61 2.326 . S
In52 O63 2.294 . S
In52 O64 2.326 . S
O53 In52 2.294 . S
O53 C62 1.240 . S
O54 In52 2.326 . S
O54 C62 1.252 . S
C55 O58 1.252 . S
C55 O59 1.260 . S
C56 O63 1.240 . S
C56 O64 1.252 . S
C57 O60 1.252 . S
C57 O61 1.260 . S
O58 In52 2.266 . S
O58 C55 1.252 . S
O59 In52 2.326 . S
O59 C55 1.260 . S
O60 In52 2.266 . S
O60 C57 1.252 . S
O61 In52 2.326 . S
O61 C57 1.260 . S
C62 O53 1.240 . S
C62 O54 1.252 . S
O63 In52 2.294 . S
O63 C56 1.240 . S
O64 In52 2.326 . S
O64 C56 1.252 . S
In65 O66 2.294 . S
In65 O67 2.326 . S
In65 O71 2.266 . S
In65 O72 2.326 . S
In65 O73 2.266 . S
In65 O74 2.326 . S
In65 O76 2.294 . S
In65 O77 2.326 . S
O66 In65 2.294 . S
O66 C75 1.240 . S
O67 In65 2.326 . S
O67 C75 1.252 . S
C68 O71 1.252 . S
C68 O72 1.260 . S
C69 O76 1.240 . S
C69 O77 1.252 . S
C70 O73 1.252 . S
C70 O74 1.260 . S
O71 In65 2.266 . S
O71 C68 1.252 . S
O72 In65 2.326 . S
O72 C68 1.260 . S
O73 In65 2.266 . S
O73 C70 1.252 . S
O74 In65 2.326 . S
O74 C70 1.260 . S
C75 O66 1.240 . S
C75 O67 1.252 . S
O76 In65 2.294 . S
O76 C69 1.240 . S
O77 In65 2.326 . S
O77 C69 1.252 . S
In78 O79 2.294 . S
In78 O80 2.326 . S
In78 O84 2.266 . S
In78 O85 2.326 . S
In78 O86 2.266 . S
In78 O87 2.326 . S
In78 O89 2.294 . S
In78 O90 2.326 . S
O79 In78 2.294 . S
O79 C88 1.240 . S
O80 In78 2.326 . S
O80 C88 1.252 . S
C81 O84 1.252 . S
C81 O85 1.260 . S
C82 O89 1.240 . S
C82 O90 1.252 . S
C83 O86 1.252 . S
C83 O87 1.260 . S
O84 In78 2.266 . S
O84 C81 1.252 . S
O85 In78 2.326 . S
O85 C81 1.260 . S
O86 In78 2.266 . S
O86 C83 1.252 . S
O87 In78 2.326 . S
O87 C83 1.260 . S
C88 O79 1.240 . S
C88 O80 1.252 . S
O89 In78 2.294 . S
O89 C82 1.240 . S
O90 In78 2.326 . S
O90 C82 1.252 . S
In91 O92 2.294 . S
In91 O93 2.326 . S
In91 O97 2.266 . S
In91 O98 2.326 . S
In91 O99 2.266 . S
In91 O100 2.326 . S
In91 O102 2.294 . S
In91 O103 2.326 . S
O92 In91 2.294 . S
O92 C101 1.240 . S
O93 In91 2.326 . S
O93 C101 1.252 . S
C94 O97 1.252 . S
C94 O98 1.260 . S
C95 O102 1.240 . S
C95 O103 1.252 . S
C96 O99 1.252 . S
C96 O100 1.260 . S
O97 In91 2.266 . S
O97 C94 1.252 . S
O98 In91 2.326 . S
O98 C94 1.260 . S
O99 In91 2.266 . S
O99 C96 1.252 . S
O100 In91 2.326 . S
O100 C96 1.260 . S
C101 O92 1.240 . S
C101 O93 1.252 . S
O102 In91 2.294 . S
O102 C95 1.240 . S
O103 In91 2.326 . S
O103 C95 1.252 . S
In104 O105 2.294 . S
In104 O106 2.326 . S
In104 O110 2.266 . S
In104 O111 2.326 . S
In104 O112 2.266 . S
In104 O113 2.326 . S
In104 O115 2.294 . S
In104 O116 2.326 . S
O105 In104 2.294 . S
O105 C114 1.240 . S
O106 In104 2.326 . S
O106 C114 1.252 . S
C107 O110 1.252 . S
C107 O111 1.260 . S
C108 O115 1.240 . S
C108 O116 1.252 . S
C109 O112 1.252 . S
C109 O113 1.260 . S
O110 In104 2.266 . S
O110 C107 1.252 . S
O111 In104 2.326 . S
O111 C107 1.260 . S
O112 In104 2.266 . S
O112 C109 1.252 . S
O113 In104 2.326 . S
O113 C109 1.260 . S
C114 O105 1.240 . S
C114 O106 1.252 . S
O115 In104 2.294 . S
O115 C108 1.240 . S
O116 In104 2.326 . S
O116 C108 1.252 . S
In117 O118 2.294 . S
In117 O119 2.326 . S
In117 O123 2.266 . S
In117 O124 2.326 . S
In117 O125 2.266 . S
In117 O126 2.326 . S
In117 O128 2.294 . S
In117 O129 2.326 . S
O118 In117 2.294 . S
O118 C127 1.240 . S
O119 In117 2.326 . S
O119 C127 1.252 . S
C120 O123 1.252 . S
C120 O124 1.260 . S
C121 O128 1.240 . S
C121 O129 1.252 . S
C122 O125 1.252 . S
C122 O126 1.260 . S
O123 In117 2.266 . S
O123 C120 1.252 . S
O124 In117 2.326 . S
O124 C120 1.260 . S
O125 In117 2.266 . S
O125 C122 1.252 . S
O126 In117 2.326 . S
O126 C122 1.260 . S
C127 O118 1.240 . S
C127 O119 1.252 . S
O128 In117 2.294 . S
O128 C121 1.240 . S
O129 In117 2.326 . S
O129 C121 1.252 . S
In130 O131 2.294 . S
In130 O132 2.326 . S
In130 O136 2.266 . S
In130 O137 2.326 . S
In130 O138 2.266 . S
In130 O139 2.326 . S
In130 O141 2.294 . S
In130 O142 2.326 . S
O131 In130 2.294 . S
O131 C140 1.240 . S
O132 In130 2.326 . S
O132 C140 1.252 . S
C133 O136 1.252 . S
C133 O137 1.260 . S
C134 O141 1.240 . S
C134 O142 1.252 . S
C135 O138 1.252 . S
C135 O139 1.260 . S
O136 In130 2.266 . S
O136 C133 1.252 . S
O137 In130 2.326 . S
O137 C133 1.260 . S
O138 In130 2.266 . S
O138 C135 1.252 . S
O139 In130 2.326 . S
O139 C135 1.260 . S
C140 O131 1.240 . S
C140 O132 1.252 . S
O141 In130 2.294 . S
O141 C134 1.240 . S
O142 In130 2.326 . S
O142 C134 1.252 . S
In143 O144 2.294 . S
In143 O145 2.326 . S
In143 O149 2.266 . S
In143 O150 2.326 . S
In143 O151 2.266 . S
In143 O152 2.326 . S
In143 O154 2.294 . S
In143 O155 2.326 . S
O144 In143 2.294 . S
O144 C153 1.240 . S
O145 In143 2.326 . S
O145 C153 1.252 . S
C146 O149 1.252 . S
C146 O150 1.260 . S
C147 O154 1.240 . S
C147 O155 1.252 . S
C148 O151 1.252 . S
C148 O152 1.260 . S
O149 In143 2.266 . S
O149 C146 1.252 . S
O150 In143 2.326 . S
O150 C146 1.260 . S
O151 In143 2.266 . S
O151 C148 1.252 . S
O152 In143 2.326 . S
O152 C148 1.260 . S
C153 O144 1.240 . S
C153 O145 1.252 . S
O154 In143 2.294 . S
O154 C147 1.240 . S
O155 In143 2.326 . S
O155 C147 1.252 . S
In156 O157 2.294 . S
In156 O158 2.326 . S
In156 O162 2.266 . S
In156 O163 2.326 . S
In156 O164 2.266 . S
In156 O165 2.326 . S
In156 O167 2.294 . S
In156 O168 2.326 . S
O157 In156 2.294 . S
O157 C166 1.240 . S
O158 In156 2.326 . S
O158 C166 1.252 . S
C159 O162 1.252 . S
C159 O163 1.260 . S
C160 O167 1.240 . S
C160 O168 1.252 . S
C161 O164 1.252 . S
C161 O165 1.260 . S
O162 In156 2.266 . S
O162 C159 1.252 . S
O163 In156 2.326 . S
O163 C159 1.260 . S
O164 In156 2.266 . S
O164 C161 1.252 . S
O165 In156 2.326 . S
O165 C161 1.260 . S
C166 O157 1.240 . S
C166 O158 1.252 . S
O167 In156 2.294 . S
O167 C160 1.240 . S
O168 In156 2.326 . S
O168 C160 1.252 . S
In169 O170 2.294 . S
In169 O171 2.326 . S
In169 O175 2.266 . S
In169 O176 2.326 . S
In169 O177 2.266 . S
In169 O178 2.326 . S
In169 O180 2.294 . S
In169 O181 2.326 . S
O170 In169 2.294 . S
O170 C179 1.240 . S
O171 In169 2.326 . S
O171 C179 1.252 . S
C172 O175 1.252 . S
C172 O176 1.260 . S
C173 O180 1.240 . S
C173 O181 1.252 . S
C174 O177 1.252 . S
C174 O178 1.260 . S
O175 In169 2.266 . S
O175 C172 1.252 . S
O176 In169 2.326 . S
O176 C172 1.260 . S
O177 In169 2.266 . S
O177 C174 1.252 . S
O178 In169 2.326 . S
O178 C174 1.260 . S
C179 O170 1.240 . S
C179 O171 1.252 . S
O180 In169 2.294 . S
O180 C173 1.240 . S
O181 In169 2.326 . S
O181 C173 1.252 . S
In182 O183 2.294 . S
In182 O184 2.326 . S
In182 O188 2.266 . S
In182 O189 2.326 . S
In182 O190 2.266 . S
In182 O191 2.326 . S
In182 O193 2.294 . S
In182 O194 2.326 . S
O183 In182 2.294 . S
O183 C192 1.240 . S
O184 In182 2.326 . S
O184 C192 1.252 . S
C185 O188 1.252 . S
C185 O189 1.260 . S
C186 O193 1.240 . S
C186 O194 1.252 . S
C187 O190 1.252 . S
C187 O191 1.260 . S
O188 In182 2.266 . S
O188 C185 1.252 . S
O189 In182 2.326 . S
O189 C185 1.260 . S
O190 In182 2.266 . S
O190 C187 1.252 . S
O191 In182 2.326 . S
O191 C187 1.260 . S
C192 O183 1.240 . S
C192 O184 1.252 . S
O193 In182 2.294 . S
O193 C186 1.240 . S
O194 In182 2.326 . S
O194 C186 1.252 . S
In195 O196 2.294 . S
In195 O197 2.326 . S
In195 O201 2.266 . S
In195 O202 2.326 . S
In195 O203 2.266 . S
In195 O204 2.326 . S
In195 O206 2.294 . S
In195 O207 2.326 . S
O196 In195 2.294 . S
O196 C205 1.240 . S
O197 In195 2.326 . S
O197 C205 1.252 . S
C198 O201 1.252 . S
C198 O202 1.260 . S
C199 O206 1.240 . S
C199 O207 1.252 . S
C200 O203 1.252 . S
C200 O204 1.260 . S
O201 In195 2.266 . S
O201 C198 1.252 . S
O202 In195 2.326 . S
O202 C198 1.260 . S
O203 In195 2.266 . S
O203 C200 1.252 . S
O204 In195 2.326 . S
O204 C200 1.260 . S
C205 O196 1.240 . S
C205 O197 1.252 . S
O206 In195 2.294 . S
O206 C199 1.240 . S
O207 In195 2.326 . S
O207 C199 1.252 . S
H208 C216 0.950 1_545 S
H209 C221 0.950 . S
H210 C218 0.950 . S
H211 C220 0.950 . S
H212 C222 0.950 1_565 S
H213 C224 0.950 . S
H214 C226 0.950 . S
H215 C227 0.950 . S
C216 H208 0.950 1_565 S
C216 C217 1.386 . S
C216 C218 1.391 1_565 S
C217 C216 1.386 . S
C217 C221 1.393 . S
C218 H210 0.950 . S
C218 C216 1.391 1_545 S
C218 C219 1.400 1_545 S
C219 C218 1.400 1_565 S
C219 C220 1.398 . S
C219 C225 1.491 1_665 S
C220 H211 0.950 . S
C220 C219 1.398 . S
C220 C221 1.391 . S
C221 H209 0.950 . S
C221 C217 1.393 . S
C221 C220 1.391 . S
C222 H212 0.950 1_545 S
C222 C223 1.386 . S
C222 C224 1.391 1_545 S
C223 C222 1.386 . S
C223 C227 1.393 . S
C224 H213 0.950 . S
C224 C222 1.391 1_565 S
C224 C225 1.400 1_565 S
C225 C219 1.491 1_445 S
C225 C224 1.400 1_545 S
C225 C226 1.398 . S
C226 H214 0.950 . S
C226 C225 1.398 . S
C226 C227 1.391 . S
C227 H215 0.950 . S
C227 C223 1.393 . S
C227 C226 1.391 . S
H228 C236 0.950 . S
H229 C241 0.950 1_455 S
H230 C238 0.950 . S
H231 C240 0.950 . S
H232 C242 0.950 . S
H233 C244 0.950 . S
H234 C246 0.950 . S
H235 C247 0.950 1_655 S
C236 H228 0.950 . S
C236 C237 1.386 . S
C236 C238 1.391 . S
C237 C236 1.386 . S
C237 C241 1.393 . S
C238 H230 0.950 . S
C238 C236 1.391 . S
C238 C239 1.400 . S
C239 C238 1.400 . S
C239 C240 1.398 1_655 S
C239 C245 1.491 1_655 S
C240 H231 0.950 . S
C240 C239 1.398 1_455 S
C240 C241 1.391 1_455 S
C241 H229 0.950 1_655 S
C241 C237 1.393 . S
C241 C240 1.391 1_655 S
C242 H232 0.950 . S
C242 C243 1.386 . S
C242 C244 1.391 . S
C243 C242 1.386 . S
C243 C247 1.393 . S
C244 H233 0.950 . S
C244 C242 1.391 . S
C244 C245 1.400 . S
C245 C239 1.491 1_455 S
C245 C244 1.400 . S
C245 C246 1.398 1_455 S
C246 H234 0.950 . S
C246 C245 1.398 1_655 S
C246 C247 1.391 1_655 S
C247 H235 0.950 1_455 S
C247 C243 1.393 . S
C247 C246 1.391 1_455 S
H248 C256 0.950 . S
H249 C261 0.950 . S
H250 C258 0.950 . S
H251 C260 0.950 . S
H252 C262 0.950 . S
H253 C264 0.950 . S
H254 C266 0.950 . S
H255 C267 0.950 . S
C256 H248 0.950 . S
C256 C257 1.386 . S
C256 C258 1.391 . S
C257 C256 1.386 . S
C257 C261 1.393 . S
C258 H250 0.950 . S
C258 C256 1.391 . S
C258 C259 1.400 . S
C259 C258 1.400 . S
C259 C260 1.398 . S
C259 C265 1.491 . S
C260 H251 0.950 . S
C260 C259 1.398 . S
C260 C261 1.391 . S
C261 H249 0.950 . S
C261 C257 1.393 . S
C261 C260 1.391 . S
C262 H252 0.950 . S
C262 C263 1.386 . S
C262 C264 1.391 . S
C263 C262 1.386 . S
C263 C267 1.393 . S
C264 H253 0.950 . S
C264 C262 1.391 . S
C264 C265 1.400 . S
C265 C259 1.491 . S
C265 C264 1.400 . S
C265 C266 1.398 . S
C266 H254 0.950 . S
C266 C265 1.398 . S
C266 C267 1.391 . S
C267 H255 0.950 . S
C267 C263 1.393 . S
C267 C266 1.391 . S
H268 C276 0.950 . S
H269 C281 0.950 . S
H270 C278 0.950 . S
H271 C280 0.950 . S
H272 C282 0.950 . S
H273 C284 0.950 . S
H274 C286 0.950 . S
H275 C287 0.950 . S
C276 H268 0.950 . S
C276 C277 1.386 . S
C276 C278 1.391 . S
C277 C276 1.386 . S
C277 C281 1.393 . S
C278 H270 0.950 . S
C278 C276 1.391 . S
C278 C279 1.400 . S
C279 C278 1.400 . S
C279 C280 1.398 . S
C279 C285 1.491 1_545 S
C280 H271 0.950 . S
C280 C279 1.398 . S
C280 C281 1.391 . S
C281 H269 0.950 . S
C281 C277 1.393 . S
C281 C280 1.391 . S
C282 H272 0.950 . S
C282 C283 1.386 . S
C282 C284 1.391 . S
C283 C282 1.386 . S
C283 C287 1.393 . S
C284 H273 0.950 . S
C284 C282 1.391 . S
C284 C285 1.400 . S
C285 C279 1.491 1_565 S
C285 C284 1.400 . S
C285 C286 1.398 . S
C286 H274 0.950 . S
C286 C285 1.398 . S
C286 C287 1.391 . S
C287 H275 0.950 . S
C287 C283 1.393 . S
C287 C286 1.391 . S
H288 C296 0.950 . S
H289 C301 0.950 . S
H290 C298 0.950 . S
H291 C300 0.950 . S
H292 C302 0.950 . S
H293 C304 0.950 . S
H294 C306 0.950 . S
H295 C307 0.950 . S
C296 H288 0.950 . S
C296 C297 1.386 . S
C296 C298 1.391 . S
C297 C296 1.386 . S
C297 C301 1.393 . S
C298 H290 0.950 . S
C298 C296 1.391 . S
C298 C299 1.400 . S
C299 C298 1.400 . S
C299 C300 1.398 . S
C299 C305 1.491 1_455 S
C300 H291 0.950 . S
C300 C299 1.398 . S
C300 C301 1.391 . S
C301 H289 0.950 . S
C301 C297 1.393 . S
C301 C300 1.391 . S
C302 H292 0.950 . S
C302 C303 1.386 . S
C302 C304 1.391 . S
C303 C302 1.386 . S
C303 C307 1.393 . S
C304 H293 0.950 . S
C304 C302 1.391 . S
C304 C305 1.400 . S
C305 C299 1.491 1_655 S
C305 C304 1.400 . S
C305 C306 1.398 . S
C306 H294 0.950 . S
C306 C305 1.398 . S
C306 C307 1.391 . S
C307 H295 0.950 . S
C307 C303 1.393 . S
C307 C306 1.391 . S
H308 C316 0.950 . S
H309 C321 0.950 . S
H310 C318 0.950 . S
H311 C320 0.950 . S
H312 C322 0.950 . S
H313 C324 0.950 . S
H314 C326 0.950 . S
H315 C327 0.950 . S
C316 H308 0.950 . S
C316 C317 1.386 . S
C316 C318 1.391 . S
C317 C316 1.386 . S
C317 C321 1.393 . S
C318 H310 0.950 . S
C318 C316 1.391 . S
C318 C319 1.400 . S
C319 C318 1.400 . S
C319 C320 1.398 . S
C319 C325 1.491 . S
C320 H311 0.950 . S
C320 C319 1.398 . S
C320 C321 1.391 . S
C321 H309 0.950 . S
C321 C317 1.393 . S
C321 C320 1.391 . S
C322 H312 0.950 . S
C322 C323 1.386 . S
C322 C324 1.391 . S
C323 C322 1.386 . S
C323 C327 1.393 . S
C324 H313 0.950 . S
C324 C322 1.391 . S
C324 C325 1.400 . S
C325 C319 1.491 . S
C325 C324 1.400 . S
C325 C326 1.398 . S
C326 H314 0.950 . S
C326 C325 1.398 . S
C326 C327 1.391 . S
C327 H315 0.950 . S
C327 C323 1.393 . S
C327 C326 1.391 . S
H328 C336 0.950 . S
H329 C341 0.950 . S
H330 C338 0.950 . S
H331 C340 0.950 1_565 S
H332 C342 0.950 . S
H333 C344 0.950 . S
H334 C346 0.950 1_545 S
H335 C347 0.950 . S
C336 H328 0.950 . S
C336 C337 1.386 . S
C336 C338 1.391 . S
C337 C336 1.386 . S
C337 C341 1.393 . S
C338 H330 0.950 . S
C338 C336 1.391 . S
C338 C339 1.400 . S
C339 C338 1.400 . S
C339 C340 1.398 . S
C339 C345 1.491 1_545 S
C340 H331 0.950 1_545 S
C340 C339 1.398 . S
C340 C341 1.391 . S
C341 H329 0.950 . S
C341 C337 1.393 . S
C341 C340 1.391 . S
C342 H332 0.950 . S
C342 C343 1.386 . S
C342 C344 1.391 . S
C343 C342 1.386 . S
C343 C347 1.393 . S
C344 H333 0.950 . S
C344 C342 1.391 . S
C344 C345 1.400 . S
C345 C339 1.491 1_565 S
C345 C344 1.400 . S
C345 C346 1.398 . S
C346 H334 0.950 1_565 S
C346 C345 1.398 . S
C346 C347 1.391 . S
C347 H335 0.950 . S
C347 C343 1.393 . S
C347 C346 1.391 . S
H348 C356 0.950 . S
H349 C361 0.950 1_655 S
H350 C358 0.950 . S
H351 C360 0.950 . S
H352 C362 0.950 . S
H353 C364 0.950 . S
H354 C366 0.950 . S
H355 C367 0.950 1_455 S
C356 H348 0.950 . S
C356 C357 1.386 . S
C356 C358 1.391 . S
C357 C356 1.386 . S
C357 C361 1.393 . S
C358 H350 0.950 . S
C358 C356 1.391 . S
C358 C359 1.400 . S
C359 C358 1.400 . S
C359 C360 1.398 1_455 S
C359 C365 1.491 1_445 S
C360 H351 0.950 . S
C360 C359 1.398 1_655 S
C360 C361 1.391 1_655 S
C361 H349 0.950 1_455 S
C361 C357 1.393 . S
C361 C360 1.391 1_455 S
C362 H352 0.950 . S
C362 C363 1.386 . S
C362 C364 1.391 . S
C363 C362 1.386 . S
C363 C367 1.393 . S
C364 H353 0.950 . S
C364 C362 1.391 . S
C364 C365 1.400 . S
C365 C359 1.491 1_665 S
C365 C364 1.400 . S
C365 C366 1.398 1_655 S
C366 H354 0.950 . S
C366 C365 1.398 1_455 S
C366 C367 1.391 1_455 S
C367 H355 0.950 1_655 S
C367 C363 1.393 . S
C367 C366 1.391 1_655 S
H368 C376 0.950 1_545 S
H369 C381 0.950 . S
H370 C378 0.950 . S
H371 C380 0.950 . S
H372 C382 0.950 1_565 S
H373 C384 0.950 . S
H374 C386 0.950 . S
H375 C387 0.950 . S
C376 H368 0.950 1_565 S
C376 C377 1.386 . S
C376 C378 1.391 1_565 S
C377 C376 1.386 . S
C377 C381 1.393 . S
C378 H370 0.950 . S
C378 C376 1.391 1_545 S
C378 C379 1.400 1_545 S
C379 C378 1.400 1_565 S
C379 C380 1.398 . S
C379 C385 1.491 1_565 S
C380 H371 0.950 . S
C380 C379 1.398 . S
C380 C381 1.391 . S
C381 H369 0.950 . S
C381 C377 1.393 . S
C381 C380 1.391 . S
C382 H372 0.950 1_545 S
C382 C383 1.386 . S
C382 C384 1.391 1_545 S
C383 C382 1.386 . S
C383 C387 1.393 . S
C384 H373 0.950 . S
C384 C382 1.391 1_565 S
C384 C385 1.400 1_565 S
C385 C379 1.491 1_545 S
C385 C384 1.400 1_545 S
C385 C386 1.398 . S
C386 H374 0.950 . S
C386 C385 1.398 . S
C386 C387 1.391 . S
C387 H375 0.950 . S
C387 C383 1.393 . S
C387 C386 1.391 . S
H388 C396 0.950 . S
H389 C401 0.950 1_455 S
H390 C398 0.950 . S
H391 C400 0.950 . S
H392 C402 0.950 . S
H393 C404 0.950 . S
H394 C406 0.950 . S
H395 C407 0.950 1_655 S
C396 H388 0.950 . S
C396 C397 1.386 . S
C396 C398 1.391 . S
C397 C396 1.386 . S
C397 C401 1.393 . S
C398 H390 0.950 . S
C398 C396 1.391 . S
C398 C399 1.400 . S
C399 C398 1.400 . S
C399 C400 1.398 1_655 S
C399 C405 1.491 1_665 S
C400 H391 0.950 . S
C400 C399 1.398 1_455 S
C400 C401 1.391 1_455 S
C401 H389 0.950 1_655 S
C401 C397 1.393 . S
C401 C400 1.391 1_655 S
C402 H392 0.950 . S
C402 C403 1.386 . S
C402 C404 1.391 . S
C403 C402 1.386 . S
C403 C407 1.393 . S
C404 H393 0.950 . S
C404 C402 1.391 . S
C404 C405 1.400 . S
C405 C399 1.491 1_445 S
C405 C404 1.400 . S
C405 C406 1.398 1_455 S
C406 H394 0.950 . S
C406 C405 1.398 1_655 S
C406 C407 1.391 1_655 S
C407 H395 0.950 1_455 S
C407 C403 1.393 . S
C407 C406 1.391 1_455 S
H408 C416 0.950 . S
H409 C421 0.950 . S
H410 C418 0.950 . S
H411 C420 0.950 . S
H412 C422 0.950 . S
H413 C424 0.950 . S
H414 C426 0.950 . S
H415 C427 0.950 . S
C416 H408 0.950 . S
C416 C417 1.386 . S
C416 C418 1.391 . S
C417 C416 1.386 . S
C417 C421 1.393 . S
C418 H410 0.950 . S
C418 C416 1.391 . S
C418 C419 1.400 . S
C419 C418 1.400 . S
C419 C420 1.398 . S
C419 C425 1.491 1_455 S
C420 H411 0.950 . S
C420 C419 1.398 . S
C420 C421 1.391 . S
C421 H409 0.950 . S
C421 C417 1.393 . S
C421 C420 1.391 . S
C422 H412 0.950 . S
C422 C423 1.386 . S
C422 C424 1.391 . S
C423 C422 1.386 . S
C423 C427 1.393 . S
C424 H413 0.950 . S
C424 C422 1.391 . S
C424 C425 1.400 . S
C425 C419 1.491 1_655 S
C425 C424 1.400 . S
C425 C426 1.398 . S
C426 H414 0.950 . S
C426 C425 1.398 . S
C426 C427 1.391 . S
C427 H415 0.950 . S
C427 C423 1.393 . S
C427 C426 1.391 . S
H428 C436 0.950 . S
H429 C441 0.950 . S
H430 C438 0.950 . S
H431 C440 0.950 . S
H432 C442 0.950 . S
H433 C444 0.950 . S
H434 C446 0.950 . S
H435 C447 0.950 . S
C436 H428 0.950 . S
C436 C437 1.386 . S
C436 C438 1.391 . S
C437 C436 1.386 . S
C437 C441 1.393 . S
C438 H430 0.950 . S
C438 C436 1.391 . S
C438 C439 1.400 . S
C439 C438 1.400 . S
C439 C440 1.398 . S
C439 C445 1.491 . S
C440 H431 0.950 . S
C440 C439 1.398 . S
C440 C441 1.391 . S
C441 H429 0.950 . S
C441 C437 1.393 . S
C441 C440 1.391 . S
C442 H432 0.950 . S
C442 C443 1.386 . S
C442 C444 1.391 . S
C443 C442 1.386 . S
C443 C447 1.393 . S
C444 H433 0.950 . S
C444 C442 1.391 . S
C444 C445 1.400 . S
C445 C439 1.491 . S
C445 C444 1.400 . S
C445 C446 1.398 . S
C446 H434 0.950 . S
C446 C445 1.398 . S
C446 C447 1.391 . S
C447 H435 0.950 . S
C447 C443 1.393 . S
C447 C446 1.391 . S
H448 C456 0.950 . S
H449 C461 0.950 . S
H450 C458 0.950 . S
H451 C460 0.950 . S
H452 C462 0.950 . S
H453 C464 0.950 . S
H454 C466 0.950 . S
H455 C467 0.950 . S
C456 H448 0.950 . S
C456 C457 1.386 . S
C456 C458 1.391 . S
C457 C456 1.386 . S
C457 C461 1.393 . S
C458 H450 0.950 . S
C458 C456 1.391 . S
C458 C459 1.400 . S
C459 C458 1.400 . S
C459 C460 1.398 . S
C459 C465 1.491 . S
C460 H451 0.950 . S
C460 C459 1.398 . S
C460 C461 1.391 . S
C461 H449 0.950 . S
C461 C457 1.393 . S
C461 C460 1.391 . S
C462 H452 0.950 . S
C462 C463 1.386 . S
C462 C464 1.391 . S
C463 C462 1.386 . S
C463 C467 1.393 . S
C464 H453 0.950 . S
C464 C462 1.391 . S
C464 C465 1.400 . S
C465 C459 1.491 . S
C465 C464 1.400 . S
C465 C466 1.398 . S
C466 H454 0.950 . S
C466 C465 1.398 . S
C466 C467 1.391 . S
C467 H455 0.950 . S
C467 C463 1.393 . S
C467 C466 1.391 . S
H468 C476 0.950 . S
H469 C481 0.950 . S
H470 C478 0.950 . S
H471 C480 0.950 . S
H472 C482 0.950 . S
H473 C484 0.950 . S
H474 C486 0.950 . S
H475 C487 0.950 . S
C476 H468 0.950 . S
C476 C477 1.386 . S
C476 C478 1.391 . S
C477 C476 1.386 . S
C477 C481 1.393 . S
C478 H470 0.950 . S
C478 C476 1.391 . S
C478 C479 1.400 . S
C479 C478 1.400 . S
C479 C480 1.398 . S
C479 C485 1.491 1_565 S
C480 H471 0.950 . S
C480 C479 1.398 . S
C480 C481 1.391 . S
C481 H469 0.950 . S
C481 C477 1.393 . S
C481 C480 1.391 . S
C482 H472 0.950 . S
C482 C483 1.386 . S
C482 C484 1.391 . S
C483 C482 1.386 . S
C483 C487 1.393 . S
C484 H473 0.950 . S
C484 C482 1.391 . S
C484 C485 1.400 . S
C485 C479 1.491 1_545 S
C485 C484 1.400 . S
C485 C486 1.398 . S
C486 H474 0.950 . S
C486 C485 1.398 . S
C486 C487 1.391 . S
C487 H475 0.950 . S
C487 C483 1.393 . S
C487 C486 1.391 . S
H488 C496 0.950 . S
H489 C501 0.950 1_545 S
H490 C498 0.950 . S
H491 C500 0.950 . S
H492 C502 0.950 . S
H493 C504 0.950 . S
H494 C506 0.950 . S
H495 C507 0.950 1_565 S
C496 H488 0.950 . S
C496 C497 1.386 . S
C496 C498 1.391 . S
C497 C496 1.386 . S
C497 C501 1.393 . S
C498 H490 0.950 . S
C498 C496 1.391 . S
C498 C499 1.400 . S
C499 C498 1.400 . S
C499 C500 1.398 1_565 S
C499 C505 1.491 1_665 S
C500 H491 0.950 . S
C500 C499 1.398 1_545 S
C500 C501 1.391 1_545 S
C501 H489 0.950 1_565 S
C501 C497 1.393 . S
C501 C500 1.391 1_565 S
C502 H492 0.950 . S
C502 C503 1.386 . S
C502 C504 1.391 . S
C503 C502 1.386 . S
C503 C507 1.393 . S
C504 H493 0.950 . S
C504 C502 1.391 . S
C504 C505 1.400 . S
C505 C499 1.491 1_445 S
C505 C504 1.400 . S
C505 C506 1.398 1_545 S
C506 H494 0.950 . S
C506 C505 1.398 1_565 S
C506 C507 1.391 1_565 S
C507 H495 0.950 1_545 S
C507 C503 1.393 . S
C507 C506 1.391 1_545 S
H508 C516 0.950 . S
H509 C521 0.950 . S
H510 C518 0.950 . S
H511 C520 0.950 1_655 S
H512 C522 0.950 . S
H513 C524 0.950 . S
H514 C526 0.950 1_455 S
H515 C527 0.950 . S
C516 H508 0.950 . S
C516 C517 1.386 . S
C516 C518 1.391 . S
C517 C516 1.386 . S
C517 C521 1.393 . S
C518 H510 0.950 . S
C518 C516 1.391 . S
C518 C519 1.400 . S
C519 C518 1.400 . S
C519 C520 1.398 . S
C519 C525 1.491 1_455 S
C520 H511 0.950 1_455 S
C520 C519 1.398 . S
C520 C521 1.391 . S
C521 H509 0.950 . S
C521 C517 1.393 . S
C521 C520 1.391 . S
C522 H512 0.950 . S
C522 C523 1.386 . S
C522 C524 1.391 . S
C523 C522 1.386 . S
C523 C527 1.393 . S
C524 H513 0.950 . S
C524 C522 1.391 . S
C524 C525 1.400 . S
C525 C519 1.491 1_655 S
C525 C524 1.400 . S
C525 C526 1.398 . S
C526 H514 0.950 1_655 S
C526 C525 1.398 . S
C526 C527 1.391 . S
C527 H515 0.950 . S
C527 C523 1.393 . S
C527 C526 1.391 . S
H528 C536 0.950 . S
H529 C541 0.950 . S
H530 C538 0.950 . S
H531 C540 0.950 . S
H532 C542 0.950 . S
H533 C544 0.950 . S
H534 C546 0.950 . S
H535 C547 0.950 . S
C536 H528 0.950 . S
C536 C537 1.386 . S
C536 C538 1.391 . S
C537 C536 1.386 . S
C537 C541 1.393 . S
C538 H530 0.950 . S
C538 C536 1.391 . S
C538 C539 1.400 . S
C539 C538 1.400 . S
C539 C540 1.398 . S
C539 C545 1.491 . S
C540 H531 0.950 . S
C540 C539 1.398 . S
C540 C541 1.391 . S
C541 H529 0.950 . S
C541 C537 1.393 . S
C541 C540 1.391 . S
C542 H532 0.950 . S
C542 C543 1.386 . S
C542 C544 1.391 . S
C543 C542 1.386 . S
C543 C547 1.393 . S
C544 H533 0.950 . S
C544 C542 1.391 . S
C544 C545 1.400 . S
C545 C539 1.491 . S
C545 C544 1.400 . S
C545 C546 1.398 . S
C546 H534 0.950 . S
C546 C545 1.398 . S
C546 C547 1.391 . S
C547 H535 0.950 . S
C547 C543 1.393 . S
C547 C546 1.391 . S
H548 C556 0.950 . S
H549 C561 0.950 . S
H550 C558 0.950 . S
H551 C560 0.950 . S
H552 C562 0.950 . S
H553 C564 0.950 . S
H554 C566 0.950 . S
H555 C567 0.950 . S
C556 H548 0.950 . S
C556 C557 1.386 . S
C556 C558 1.391 . S
C557 C556 1.386 . S
C557 C561 1.393 . S
C558 H550 0.950 . S
C558 C556 1.391 . S
C558 C559 1.400 . S
C559 C558 1.400 . S
C559 C560 1.398 . S
C559 C565 1.491 . S
C560 H551 0.950 . S
C560 C559 1.398 . S
C560 C561 1.391 . S
C561 H549 0.950 . S
C561 C557 1.393 . S
C561 C560 1.391 . S
C562 H552 0.950 . S
C562 C563 1.386 . S
C562 C564 1.391 . S
C563 C562 1.386 . S
C563 C567 1.393 . S
C564 H553 0.950 . S
C564 C562 1.391 . S
C564 C565 1.400 . S
C565 C559 1.491 . S
C565 C564 1.400 . S
C565 C566 1.398 . S
C566 H554 0.950 . S
C566 C565 1.398 . S
C566 C567 1.391 . S
C567 H555 0.950 . S
C567 C563 1.393 . S
C567 C566 1.391 . S
H568 C576 0.950 . S
H569 C581 0.950 . S
H570 C578 0.950 . S
H571 C580 0.950 . S
H572 C582 0.950 . S
H573 C584 0.950 . S
H574 C586 0.950 . S
H575 C587 0.950 . S
C576 H568 0.950 . S
C576 C577 1.386 . S
C576 C578 1.391 . S
C577 C576 1.386 . S
C577 C581 1.393 . S
C578 H570 0.950 . S
C578 C576 1.391 . S
C578 C579 1.400 . S
C579 C578 1.400 . S
C579 C580 1.398 . S
C579 C585 1.491 . S
C580 H571 0.950 . S
C580 C579 1.398 . S
C580 C581 1.391 . S
C581 H569 0.950 . S
C581 C577 1.393 . S
C581 C580 1.391 . S
C582 H572 0.950 . S
C582 C583 1.386 . S
C582 C584 1.391 . S
C583 C582 1.386 . S
C583 C587 1.393 . S
C584 H573 0.950 . S
C584 C582 1.391 . S
C584 C585 1.400 . S
C585 C579 1.491 . S
C585 C584 1.400 . S
C585 C586 1.398 . S
C586 H574 0.950 . S
C586 C585 1.398 . S
C586 C587 1.391 . S
C587 H575 0.950 . S
C587 C583 1.393 . S
C587 C586 1.391 . S
H588 C596 0.950 . S
H589 C601 0.950 . S
H590 C598 0.950 . S
H591 C600 0.950 . S
H592 C602 0.950 . S
H593 C604 0.950 . S
H594 C606 0.950 . S
H595 C607 0.950 . S
C596 H588 0.950 . S
C596 C597 1.386 . S
C596 C598 1.391 . S
C597 C596 1.386 . S
C597 C601 1.393 . S
C598 H590 0.950 . S
C598 C596 1.391 . S
C598 C599 1.400 . S
C599 C598 1.400 . S
C599 C600 1.398 . S
C599 C605 1.491 . S
C600 H591 0.950 . S
C600 C599 1.398 . S
C600 C601 1.391 . S
C601 H589 0.950 . S
C601 C597 1.393 . S
C601 C600 1.391 . S
C602 H592 0.950 . S
C602 C603 1.386 . S
C602 C604 1.391 . S
C603 C602 1.386 . S
C603 C607 1.393 . S
C604 H593 0.950 . S
C604 C602 1.391 . S
C604 C605 1.400 . S
C605 C599 1.491 . S
C605 C604 1.400 . S
C605 C606 1.398 . S
C606 H594 0.950 . S
C606 C605 1.398 . S
C606 C607 1.391 . S
C607 H595 0.950 . S
C607 C603 1.393 . S
C607 C606 1.391 . S
H608 C616 0.950 . S
H609 C621 0.950 . S
H610 C618 0.950 . S
H611 C620 0.950 . S
H612 C622 0.950 . S
H613 C624 0.950 . S
H614 C626 0.950 . S
H615 C627 0.950 . S
C616 H608 0.950 . S
C616 C617 1.386 . S
C616 C618 1.391 . S
C617 C616 1.386 . S
C617 C621 1.393 . S
C618 H610 0.950 . S
C618 C616 1.391 . S
C618 C619 1.400 . S
C619 C618 1.400 . S
C619 C620 1.398 . S
C619 C625 1.491 . S
C620 H611 0.950 . S
C620 C619 1.398 . S
C620 C621 1.391 . S
C621 H609 0.950 . S
C621 C617 1.393 . S
C621 C620 1.391 . S
C622 H612 0.950 . S
C622 C623 1.386 . S
C622 C624 1.391 . S
C623 C622 1.386 . S
C623 C627 1.393 . S
C624 H613 0.950 . S
C624 C622 1.391 . S
C624 C625 1.400 . S
C625 C619 1.491 . S
C625 C624 1.400 . S
C625 C626 1.398 . S
C626 H614 0.950 . S
C626 C625 1.398 . S
C626 C627 1.391 . S
C627 H615 0.950 . S
C627 C623 1.393 . S
C627 C626 1.391 . S
H628 C636 0.950 . S
H629 C641 0.950 . S
H630 C638 0.950 . S
H631 C640 0.950 . S
H632 C642 0.950 . S
H633 C644 0.950 . S
H634 C646 0.950 . S
H635 C647 0.950 . S
C636 H628 0.950 . S
C636 C637 1.386 . S
C636 C638 1.391 . S
C637 C636 1.386 . S
C637 C641 1.393 . S
C638 H630 0.950 . S
C638 C636 1.391 . S
C638 C639 1.400 . S
C639 C638 1.400 . S
C639 C640 1.398 . S
C639 C645 1.491 . S
C640 H631 0.950 . S
C640 C639 1.398 . S
C640 C641 1.391 . S
C641 H629 0.950 . S
C641 C637 1.393 . S
C641 C640 1.391 . S
C642 H632 0.950 . S
C642 C643 1.386 . S
C642 C644 1.391 . S
C643 C642 1.386 . S
C643 C647 1.393 . S
C644 H633 0.950 . S
C644 C642 1.391 . S
C644 C645 1.400 . S
C645 C639 1.491 . S
C645 C644 1.400 . S
C645 C646 1.398 . S
C646 H634 0.950 . S
C646 C645 1.398 . S
C646 C647 1.391 . S
C647 H635 0.950 . S
C647 C643 1.393 . S
C647 C646 1.391 . S
H648 C656 0.950 . S
H649 C661 0.950 . S
H650 C658 0.950 . S
H651 C660 0.950 . S
H652 C662 0.950 . S
H653 C664 0.950 . S
H654 C666 0.950 . S
H655 C667 0.950 . S
C656 H648 0.950 . S
C656 C657 1.386 . S
C656 C658 1.391 . S
C657 C656 1.386 . S
C657 C661 1.393 . S
C658 H650 0.950 . S
C658 C656 1.391 . S
C658 C659 1.400 . S
C659 C658 1.400 . S
C659 C660 1.398 . S
C659 C665 1.491 . S
C660 H651 0.950 . S
C660 C659 1.398 . S
C660 C661 1.391 . S
C661 H649 0.950 . S
C661 C657 1.393 . S
C661 C660 1.391 . S
C662 H652 0.950 . S
C662 C663 1.386 . S
C662 C664 1.391 . S
C663 C662 1.386 . S
C663 C667 1.393 . S
C664 H653 0.950 . S
C664 C662 1.391 . S
C664 C665 1.400 . S
C665 C659 1.491 . S
C665 C664 1.400 . S
C665 C666 1.398 . S
C666 H654 0.950 . S
C666 C665 1.398 . S
C666 C667 1.391 . S
C667 H655 0.950 . S
C667 C663 1.393 . S
C667 C666 1.391 . S
H668 C676 0.950 . S
H669 C681 0.950 . S
H670 C678 0.950 . S
H671 C680 0.950 . S
H672 C682 0.950 . S
H673 C684 0.950 . S
H674 C686 0.950 . S
H675 C687 0.950 . S
C676 H668 0.950 . S
C676 C677 1.386 . S
C676 C678 1.391 . S
C677 C676 1.386 . S
C677 C681 1.393 . S
C678 H670 0.950 . S
C678 C676 1.391 . S
C678 C679 1.400 . S
C679 C678 1.400 . S
C679 C680 1.398 . S
C679 C685 1.491 . S
C680 H671 0.950 . S
C680 C679 1.398 . S
C680 C681 1.391 . S
C681 H669 0.950 . S
C681 C677 1.393 . S
C681 C680 1.391 . S
C682 H672 0.950 . S
C682 C683 1.386 . S
C682 C684 1.391 . S
C683 C682 1.386 . S
C683 C687 1.393 . S
C684 H673 0.950 . S
C684 C682 1.391 . S
C684 C685 1.400 . S
C685 C679 1.491 . S
C685 C684 1.400 . S
C685 C686 1.398 . S
C686 H674 0.950 . S
C686 C685 1.398 . S
C686 C687 1.391 . S
C687 H675 0.950 . S
C687 C683 1.393 . S
C687 C686 1.391 . S
H688 C696 0.950 . S
H689 C701 0.950 . S
H690 C698 0.950 . S
H691 C700 0.950 . S
H692 C702 0.950 . S
H693 C704 0.950 . S
H694 C706 0.950 . S
H695 C707 0.950 . S
C696 H688 0.950 . S
C696 C697 1.386 . S
C696 C698 1.391 . S
C697 C696 1.386 . S
C697 C701 1.393 . S
C698 H690 0.950 . S
C698 C696 1.391 . S
C698 C699 1.400 . S
C699 C698 1.400 . S
C699 C700 1.398 . S
C699 C705 1.491 . S
C700 H691 0.950 . S
C700 C699 1.398 . S
C700 C701 1.391 . S
C701 H689 0.950 . S
C701 C697 1.393 . S
C701 C700 1.391 . S
C702 H692 0.950 . S
C702 C703 1.386 . S
C702 C704 1.391 . S
C703 C702 1.386 . S
C703 C707 1.393 . S
C704 H693 0.950 . S
C704 C702 1.391 . S
C704 C705 1.400 . S
C705 C699 1.491 . S
C705 C704 1.400 . S
C705 C706 1.398 . S
C706 H694 0.950 . S
C706 C705 1.398 . S
C706 C707 1.391 . S
C707 H695 0.950 . S
C707 C703 1.393 . S
C707 C706 1.391 . S
H708 C716 0.950 . S
H709 C721 0.950 . S
H710 C718 0.950 . S
H711 C720 0.950 . S
H712 C722 0.950 . S
H713 C724 0.950 . S
H714 C726 0.950 . S
H715 C727 0.950 . S
C716 H708 0.950 . S
C716 C717 1.386 . S
C716 C718 1.391 . S
C717 C716 1.386 . S
C717 C721 1.393 . S
C718 H710 0.950 . S
C718 C716 1.391 . S
C718 C719 1.400 . S
C719 C718 1.400 . S
C719 C720 1.398 . S
C719 C725 1.491 . S
C720 H711 0.950 . S
C720 C719 1.398 . S
C720 C721 1.391 . S
C721 H709 0.950 . S
C721 C717 1.393 . S
C721 C720 1.391 . S
C722 H712 0.950 . S
C722 C723 1.386 . S
C722 C724 1.391 . S
C723 C722 1.386 . S
C723 C727 1.393 . S
C724 H713 0.950 . S
C724 C722 1.391 . S
C724 C725 1.400 . S
C725 C719 1.491 . S
C725 C724 1.400 . S
C725 C726 1.398 . S
C726 H714 0.950 . S
C726 C725 1.398 . S
C726 C727 1.391 . S
C727 H715 0.950 . S
C727 C723 1.393 . S
C727 C726 1.391 . S
H728 C736 0.950 . S
H729 C741 0.950 . S
H730 C738 0.950 . S
H731 C740 0.950 . S
H732 C742 0.950 . S
H733 C744 0.950 . S
H734 C746 0.950 . S
H735 C747 0.950 . S
C736 H728 0.950 . S
C736 C737 1.386 . S
C736 C738 1.391 . S
C737 C736 1.386 . S
C737 C741 1.393 . S
C738 H730 0.950 . S
C738 C736 1.391 . S
C738 C739 1.400 . S
C739 C738 1.400 . S
C739 C740 1.398 . S
C739 C745 1.491 . S
C740 H731 0.950 . S
C740 C739 1.398 . S
C740 C741 1.391 . S
C741 H729 0.950 . S
C741 C737 1.393 . S
C741 C740 1.391 . S
C742 H732 0.950 . S
C742 C743 1.386 . S
C742 C744 1.391 . S
C743 C742 1.386 . S
C743 C747 1.393 . S
C744 H733 0.950 . S
C744 C742 1.391 . S
C744 C745 1.400 . S
C745 C739 1.491 . S
C745 C744 1.400 . S
C745 C746 1.398 . S
C746 H734 0.950 . S
C746 C745 1.398 . S
C746 C747 1.391 . S
C747 H735 0.950 . S
C747 C743 1.393 . S
C747 C746 1.391 . S
H748 C756 0.950 . S
H749 C761 0.950 . S
H750 C758 0.950 . S
H751 C760 0.950 . S
H752 C762 0.950 . S
H753 C764 0.950 . S
H754 C766 0.950 . S
H755 C767 0.950 . S
C756 H748 0.950 . S
C756 C757 1.386 . S
C756 C758 1.391 . S
C757 C756 1.386 . S
C757 C761 1.393 . S
C758 H750 0.950 . S
C758 C756 1.391 . S
C758 C759 1.400 . S
C759 C758 1.400 . S
C759 C760 1.398 . S
C759 C765 1.491 1_556 S
C760 H751 0.950 . S
C760 C759 1.398 . S
C760 C761 1.391 . S
C761 H749 0.950 . S
C761 C757 1.393 . S
C761 C760 1.391 . S
C762 H752 0.950 . S
C762 C763 1.386 . S
C762 C764 1.391 . S
C763 C762 1.386 . S
C763 C767 1.393 . S
C764 H753 0.950 . S
C764 C762 1.391 . S
C764 C765 1.400 . S
C765 C759 1.491 1_554 S
C765 C764 1.400 . S
C765 C766 1.398 . S
C766 H754 0.950 . S
C766 C765 1.398 . S
C766 C767 1.391 . S
C767 H755 0.950 . S
C767 C763 1.393 . S
C767 C766 1.391 . S
H768 C776 0.950 . S
H769 C781 0.950 . S
H770 C778 0.950 . S
H771 C780 0.950 . S
H772 C782 0.950 . S
H773 C784 0.950 . S
H774 C786 0.950 . S
H775 C787 0.950 . S
C776 H768 0.950 . S
C776 C777 1.386 . S
C776 C778 1.391 . S
C777 C776 1.386 . S
C777 C781 1.393 . S
C778 H770 0.950 . S
C778 C776 1.391 . S
C778 C779 1.400 . S
C779 C778 1.400 . S
C779 C780 1.398 . S
C779 C785 1.491 1_554 S
C780 H771 0.950 . S
C780 C779 1.398 . S
C780 C781 1.391 . S
C781 H769 0.950 . S
C781 C777 1.393 . S
C781 C780 1.391 . S
C782 H772 0.950 . S
C782 C783 1.386 . S
C782 C784 1.391 . S
C783 C782 1.386 . S
C783 C787 1.393 . S
C784 H773 0.950 . S
C784 C782 1.391 . S
C784 C785 1.400 . S
C785 C779 1.491 1_556 S
C785 C784 1.400 . S
C785 C786 1.398 . S
C786 H774 0.950 . S
C786 C785 1.398 . S
C786 C787 1.391 . S
C787 H775 0.950 . S
C787 C783 1.393 . S
C787 C786 1.391 . S
H788 C796 0.950 . S
H789 C801 0.950 . S
H790 C798 0.950 . S
H791 C800 0.950 . S
H792 C802 0.950 . S
H793 C804 0.950 . S
H794 C806 0.950 . S
H795 C807 0.950 . S
C796 H788 0.950 . S
C796 C797 1.386 . S
C796 C798 1.391 . S
C797 C796 1.386 . S
C797 C801 1.393 . S
C798 H790 0.950 . S
C798 C796 1.391 . S
C798 C799 1.400 . S
C799 C798 1.400 . S
C799 C800 1.398 . S
C799 C805 1.491 . S
C800 H791 0.950 . S
C800 C799 1.398 . S
C800 C801 1.391 . S
C801 H789 0.950 . S
C801 C797 1.393 . S
C801 C800 1.391 . S
C802 H792 0.950 . S
C802 C803 1.386 . S
C802 C804 1.391 . S
C803 C802 1.386 . S
C803 C807 1.393 . S
C804 H793 0.950 . S
C804 C802 1.391 . S
C804 C805 1.400 . S
C805 C799 1.491 . S
C805 C804 1.400 . S
C805 C806 1.398 . S
C806 H794 0.950 . S
C806 C805 1.398 . S
C806 C807 1.391 . S
C807 H795 0.950 . S
C807 C803 1.393 . S
C807 C806 1.391 . S
H808 C816 0.950 . S
H809 C821 0.950 . S
H810 C818 0.950 . S
H811 C820 0.950 . S
H812 C822 0.950 . S
H813 C824 0.950 . S
H814 C826 0.950 . S
H815 C827 0.950 . S
C816 H808 0.950 . S
C816 C817 1.386 . S
C816 C818 1.391 . S
C817 C816 1.386 . S
C817 C821 1.393 . S
C818 H810 0.950 . S
C818 C816 1.391 . S
C818 C819 1.400 . S
C819 C818 1.400 . S
C819 C820 1.398 . S
C819 C825 1.491 . S
C820 H811 0.950 . S
C820 C819 1.398 . S
C820 C821 1.391 . S
C821 H809 0.950 . S
C821 C817 1.393 . S
C821 C820 1.391 . S
C822 H812 0.950 . S
C822 C823 1.386 . S
C822 C824 1.391 . S
C823 C822 1.386 . S
C823 C827 1.393 . S
C824 H813 0.950 . S
C824 C822 1.391 . S
C824 C825 1.400 . S
C825 C819 1.491 . S
C825 C824 1.400 . S
C825 C826 1.398 . S
C826 H814 0.950 . S
C826 C825 1.398 . S
C826 C827 1.391 . S
C827 H815 0.950 . S
C827 C823 1.393 . S
C827 C826 1.391 . S
H828 C836 0.950 . S
H829 C841 0.950 . S
H830 C838 0.950 . S
H831 C840 0.950 . S
H832 C842 0.950 . S
H833 C844 0.950 . S
H834 C846 0.950 . S
H835 C847 0.950 . S
C836 H828 0.950 . S
C836 C837 1.386 . S
C836 C838 1.391 . S
C837 C836 1.386 . S
C837 C841 1.393 . S
C838 H830 0.950 . S
C838 C836 1.391 . S
C838 C839 1.400 . S
C839 C838 1.400 . S
C839 C840 1.398 . S
C839 C845 1.491 . S
C840 H831 0.950 . S
C840 C839 1.398 . S
C840 C841 1.391 . S
C841 H829 0.950 . S
C841 C837 1.393 . S
C841 C840 1.391 . S
C842 H832 0.950 . S
C842 C843 1.386 . S
C842 C844 1.391 . S
C843 C842 1.386 . S
C843 C847 1.393 . S
C844 H833 0.950 . S
C844 C842 1.391 . S
C844 C845 1.400 . S
C845 C839 1.491 . S
C845 C844 1.400 . S
C845 C846 1.398 . S
C846 H834 0.950 . S
C846 C845 1.398 . S
C846 C847 1.391 . S
C847 H835 0.950 . S
C847 C843 1.393 . S
C847 C846 1.391 . S
C217 C134 1.735 . S
C223 C4 1.739 . S
C237 C17 1.739 . S
C243 C153 1.735 . S
C257 C108 1.736 . S
C263 C36 1.739 . S
C277 C121 1.738 . S
C283 C43 1.739 . S
C297 C56 1.736 . S
C303 C186 1.739 . S
C317 C199 1.739 . S
C323 C69 1.736 . S
C337 C82 1.736 . S
C343 C166 1.736 . S
C357 C173 1.739 . S
C363 C95 1.736 . S
C377 C135 1.279 . S
C383 C5 1.276 . S
C397 C18 1.276 . S
C403 C146 1.279 . S
C417 C29 1.279 . S
C423 C109 1.281 . S
C437 C44 1.277 . S
C443 C122 1.276 . S
C457 C57 1.281 . S
C463 C187 1.277 . S
C477 C70 1.277 . S
C483 C200 1.277 . S
C497 C159 1.278 . S
C503 C83 1.281 . S
C517 C174 1.276 . S
C523 C96 1.278 . S
C537 C10 1.371 . S
C543 C88 1.380 . S
C557 C23 1.375 . S
C563 C101 1.364 . S
C577 C30 1.365 . S
C583 C62 1.379 . S
C597 C49 1.379 . S
C603 C75 1.372 . S
C617 C114 1.380 . S
C623 C192 1.371 . S
C637 C205 1.375 . S
C643 C127 1.377 . S
C657 C140 1.365 . S
C663 C160 1.372 . S
C677 C179 1.380 . S
C683 C147 1.365 . S
C697 C3 1.280 . S
C703 C198 1.294 . S
C717 C161 1.296 . S
C723 C16 1.286 . S
C737 C172 1.295 . S
C743 C31 1.289 . S
C757 C185 1.289 . S
C763 C42 1.277 . S
C777 C120 1.280 . S
C783 C55 1.280 . S
C797 C133 1.283 . S
C803 C68 1.277 . S
C817 C81 1.277 . S
C823 C148 1.290 . S
C837 C94 1.294 . S
C843 C107 1.292 . S
