# Generated by pormake.
# Topology rhr, (4)-cn, num edge types: 1
# Building blocks:
#     Node 0, Type 0, BuildingBlock: MUDLON_clean_sbu_0, # of connection points: 4
#     Node 1, Type 0, BuildingBlock: MUDLON_clean_sbu_0, # of connection points: 4
#     Node 2, Type 0, BuildingBlock: MUDLON_clean_sbu_0, # of connection points: 4
#     Node 3, Type 0, BuildingBlock: MUDLON_clean_sbu_0, # of connection points: 4
#     Node 4, Type 0, BuildingBlock: MUDLON_clean_sbu_0, # of connection points: 4
#     Node 5, Type 0, BuildingBlock: MUDLON_clean_sbu_0, # of connection points: 4
#     Node 6, Type 0, BuildingBlock: MUDLON_clean_sbu_0, # of connection points: 4
#     Node 7, Type 0, BuildingBlock: MUDLON_clean_sbu_0, # of connection points: 4
#     Node 8, Type 0, BuildingBlock: MUDLON_clean_sbu_0, # of connection points: 4
#     Node 9, Type 0, BuildingBlock: MUDLON_clean_sbu_0, # of connection points: 4
#     Node 10, Type 0, BuildingBlock: MUDLON_clean_sbu_0, # of connection points: 4
#     Node 11, Type 0, BuildingBlock: MUDLON_clean_sbu_0, # of connection points: 4
#     Node 12, Type 0, BuildingBlock: MUDLON_clean_sbu_0, # of connection points: 4
#     Node 13, Type 0, BuildingBlock: MUDLON_clean_sbu_0, # of connection points: 4
#     Node 14, Type 0, BuildingBlock: MUDLON_clean_sbu_0, # of connection points: 4
#     Node 15, Type 0, BuildingBlock: MUDLON_clean_sbu_0, # of connection points: 4
#     Node 16, Type 0, BuildingBlock: MUDLON_clean_sbu_0, # of connection points: 4
#     Node 17, Type 0, BuildingBlock: MUDLON_clean_sbu_0, # of connection points: 4
#     Node 18, Type 0, BuildingBlock: MUDLON_clean_sbu_0, # of connection points: 4
#     Node 19, Type 0, BuildingBlock: MUDLON_clean_sbu_0, # of connection points: 4
#     Node 20, Type 0, BuildingBlock: MUDLON_clean_sbu_0, # of connection points: 4
#     Node 21, Type 0, BuildingBlock: MUDLON_clean_sbu_0, # of connection points: 4
#     Node 22, Type 0, BuildingBlock: MUDLON_clean_sbu_0, # of connection points: 4
#     Node 23, Type 0, BuildingBlock: MUDLON_clean_sbu_0, # of connection points: 4
#     Edge 24, Type (0, 0), BuildingBlock: ZUJKAS_clean_linker_0, # of connection points: 2
#     Edge 25, Type (0, 0), BuildingBlock: ZUJKAS_clean_linker_0, # of connection points: 2
#     Edge 26, Type (0, 0), BuildingBlock: ZUJKAS_clean_linker_0, # of connection points: 2
#     Edge 27, Type (0, 0), BuildingBlock: ZUJKAS_clean_linker_0, # of connection points: 2
#     Edge 28, Type (0, 0), BuildingBlock: ZUJKAS_clean_linker_0, # of connection points: 2
#     Edge 29, Type (0, 0), BuildingBlock: ZUJKAS_clean_linker_0, # of connection points: 2
#     Edge 30, Type (0, 0), BuildingBlock: ZUJKAS_clean_linker_0, # of connection points: 2
#     Edge 31, Type (0, 0), BuildingBlock: ZUJKAS_clean_linker_0, # of connection points: 2
#     Edge 32, Type (0, 0), BuildingBlock: ZUJKAS_clean_linker_0, # of connection points: 2
#     Edge 33, Type (0, 0), BuildingBlock: ZUJKAS_clean_linker_0, # of connection points: 2
#     Edge 34, Type (0, 0), BuildingBlock: ZUJKAS_clean_linker_0, # of connection points: 2
#     Edge 35, Type (0, 0), BuildingBlock: ZUJKAS_clean_linker_0, # of connection points: 2
#     Edge 36, Type (0, 0), BuildingBlock: ZUJKAS_clean_linker_0, # of connection points: 2
#     Edge 37, Type (0, 0), BuildingBlock: ZUJKAS_clean_linker_0, # of connection points: 2
#     Edge 38, Type (0, 0), BuildingBlock: ZUJKAS_clean_linker_0, # of connection points: 2
#     Edge 39, Type (0, 0), BuildingBlock: ZUJKAS_clean_linker_0, # of connection points: 2
#     Edge 40, Type (0, 0), BuildingBlock: ZUJKAS_clean_linker_0, # of connection points: 2
#     Edge 41, Type (0, 0), BuildingBlock: ZUJKAS_clean_linker_0, # of connection points: 2
#     Edge 42, Type (0, 0), BuildingBlock: ZUJKAS_clean_linker_0, # of connection points: 2
#     Edge 43, Type (0, 0), BuildingBlock: ZUJKAS_clean_linker_0, # of connection points: 2
#     Edge 44, Type (0, 0), BuildingBlock: ZUJKAS_clean_linker_0, # of connection points: 2
#     Edge 45, Type (0, 0), BuildingBlock: ZUJKAS_clean_linker_0, # of connection points: 2
#     Edge 46, Type (0, 0), BuildingBlock: ZUJKAS_clean_linker_0, # of connection points: 2
#     Edge 47, Type (0, 0), BuildingBlock: ZUJKAS_clean_linker_0, # of connection points: 2
#     Edge 48, Type (0, 0), BuildingBlock: ZUJKAS_clean_linker_0, # of connection points: 2
#     Edge 49, Type (0, 0), BuildingBlock: ZUJKAS_clean_linker_0, # of connection points: 2
#     Edge 50, Type (0, 0), BuildingBlock: ZUJKAS_clean_linker_0, # of connection points: 2
#     Edge 51, Type (0, 0), BuildingBlock: ZUJKAS_clean_linker_0, # of connection points: 2
#     Edge 52, Type (0, 0), BuildingBlock: ZUJKAS_clean_linker_0, # of connection points: 2
#     Edge 53, Type (0, 0), BuildingBlock: ZUJKAS_clean_linker_0, # of connection points: 2
#     Edge 54, Type (0, 0), BuildingBlock: ZUJKAS_clean_linker_0, # of connection points: 2
#     Edge 55, Type (0, 0), BuildingBlock: ZUJKAS_clean_linker_0, # of connection points: 2
#     Edge 56, Type (0, 0), BuildingBlock: ZUJKAS_clean_linker_0, # of connection points: 2
#     Edge 57, Type (0, 0), BuildingBlock: ZUJKAS_clean_linker_0, # of connection points: 2
#     Edge 58, Type (0, 0), BuildingBlock: ZUJKAS_clean_linker_0, # of connection points: 2
#     Edge 59, Type (0, 0), BuildingBlock: ZUJKAS_clean_linker_0, # of connection points: 2
#     Edge 60, Type (0, 0), BuildingBlock: ZUJKAS_clean_linker_0, # of connection points: 2
#     Edge 61, Type (0, 0), BuildingBlock: ZUJKAS_clean_linker_0, # of connection points: 2
#     Edge 62, Type (0, 0), BuildingBlock: ZUJKAS_clean_linker_0, # of connection points: 2
#     Edge 63, Type (0, 0), BuildingBlock: ZUJKAS_clean_linker_0, # of connection points: 2
#     Edge 64, Type (0, 0), BuildingBlock: ZUJKAS_clean_linker_0, # of connection points: 2
#     Edge 65, Type (0, 0), BuildingBlock: ZUJKAS_clean_linker_0, # of connection points: 2
#     Edge 66, Type (0, 0), BuildingBlock: ZUJKAS_clean_linker_0, # of connection points: 2
#     Edge 67, Type (0, 0), BuildingBlock: ZUJKAS_clean_linker_0, # of connection points: 2
#     Edge 68, Type (0, 0), BuildingBlock: ZUJKAS_clean_linker_0, # of connection points: 2
#     Edge 69, Type (0, 0), BuildingBlock: ZUJKAS_clean_linker_0, # of connection points: 2
#     Edge 70, Type (0, 0), BuildingBlock: ZUJKAS_clean_linker_0, # of connection points: 2
#     Edge 71, Type (0, 0), BuildingBlock: ZUJKAS_clean_linker_0, # of connection points: 2
# Relax obj value: 0.018
# Max RMSD: 0.032
# Mean RMSD: 0.030
data_MOF--net-rhr--node1-MUDLON_clean_sbu_0--edge1-ZUJKAS_clean_linker_0
_symmetry_space_group_name_H-M    P1
_symmetry_Int_Tables_number       1
_symmetry_cell_setting            triclinic
loop_
_symmetry_equiv_pos_as_xyz
'x, y, z'
_cell_length_a     67.495888
_cell_length_b     67.503256
_cell_length_c     67.482014
_cell_angle_alpha  89.817183
_cell_angle_beta   89.691257
_cell_angle_gamma 90.027846
loop_
_atom_site_label
_atom_site_type_symbol
_atom_site_fract_x
_atom_site_fract_y
_atom_site_fract_z
_atom_type_partial_charge
Mg0 Mg 0.35254 0.0315 0.35041 0.0
C1 C 0.36482 0.99668 0.32939 0.0
O2 O 0.37619 0.99859 0.34502 0.0
C3 C 0.31795 0.05326 0.36932 0.0
O4 O 0.31891 0.03776 0.38107 0.0
C5 C 0.3805 0.05061 0.32376 0.0
O6 O 0.36604 0.04404 0.31262 0.0
O7 O 0.37943 0.04788 0.34244 0.0
O8 O 0.35125 0.0095 0.32655 0.0
O9 O 0.35265 0.01231 0.37672 0.0
C10 C 0.33969 0.9987 0.37492 0.0
O11 O 0.32819 0.99903 0.35927 0.0
O12 O 0.32922 0.05393 0.35411 0.0
Mg13 Mg 0.99614 0.34871 0.33559 0.0
C14 C 0.95633 0.36834 0.33679 0.0
O15 O 0.95127 0.3498 0.33382 0.0
C16 C 0.0204 0.35266 0.37458 0.0
O17 O 1.00496 0.362 0.3819 0.0
C18 C 0.02734 0.35409 0.30314 0.0
O19 O 0.03888 0.34783 0.31747 0.0
O20 O 0.00865 0.35408 0.30594 0.0
O21 O 0.97455 0.37254 0.33922 0.0
O22 O 0.9817 0.32033 0.34292 0.0
C23 C 0.97413 0.32101 0.36027 0.0
O24 O 0.97442 0.33802 0.36963 0.0
O25 O 0.02072 0.34806 0.35632 0.0
Mg26 Mg 0.669 0.02291 0.36632 0.0
C27 C 0.65943 0.05915 0.33944 0.0
O28 O 0.67639 0.05329 0.33183 0.0
C29 C 0.67823 0.98054 0.38473 0.0
O30 O 0.6589 0.97871 0.38341 0.0
C31 C 0.65822 0.99959 0.32728 0.0
O32 O 0.67474 0.00802 0.32125 0.0
O33 O 0.65226 1.00255 0.34494 0.0
O34 O 0.65209 0.04954 0.35396 0.0
O35 O 0.68525 0.04356 0.38772 0.0
C36 C 0.70086 0.05262 0.38217 0.0
O37 O 0.70764 0.04967 0.36413 0.0
O38 O 0.6864 0.99649 0.37879 0.0
Mg39 Mg 0.02058 0.69936 0.33734 0.0
C40 C 0.0476 0.73322 0.35302 0.0
O41 O 0.03578 0.74333 0.34135 0.0
C42 C 0.99753 0.68228 0.30138 0.0
O43 O 0.013 0.6902 0.29249 0.0
C44 C 0.98882 0.73361 0.34698 0.0
O45 O 0.99034 0.73786 0.32802 0.0
O46 O 0.99843 0.71899 0.35397 0.0
O47 O 0.04542 0.71455 0.35436 0.0
O48 O 0.04298 0.67869 0.3225 0.0
C49 C 0.05913 0.68422 0.31442 0.0
O50 O 0.06362 0.70316 0.31405 0.0
O51 O 0.99578 0.68404 0.32009 0.0
Mg52 Mg 0.33541 0.03415 0.68489 0.0
C53 C 0.34181 0.07063 0.71262 0.0
O54 O 0.32254 0.06853 0.71454 0.0
C55 C 0.30548 1.00003 0.67418 0.0
O56 O 0.30072 1.00179 0.693 0.0
C57 C 0.35219 1.00487 0.71732 0.0
O58 O 0.33747 0.01256 0.72752 0.0
O59 O 0.35503 0.0106 0.69955 0.0
O60 O 0.35137 0.0585 0.70183 0.0
O61 O 0.31632 0.05752 0.66942 0.0
C62 C 0.29751 0.05747 0.67069 0.0
O63 O 0.28873 0.04411 0.68189 0.0
O64 O 0.3195 0.01049 0.66711 0.0
Mg65 Mg 0.02855 0.36513 0.68158 0.0
C66 C 0.9921 0.34715 0.66392 0.0
O67 O 0.98987 0.36594 0.65932 0.0
C68 C 0.06222 0.35959 0.71065 0.0
O69 O 0.07235 0.35769 0.69408 0.0
C70 C 0.04874 0.35753 0.64191 0.0
O71 O 0.03109 0.35039 0.63797 0.0
O72 O 0.05148 0.36608 0.65846 0.0
O73 O 0.00717 0.34203 0.674 0.0
O74 O 0.01222 0.39226 0.68802 0.0
C75 C 0.99946 0.38912 0.70165 0.0
O76 O 0.9972 0.37088 0.70817 0.0
O77 O 0.04344 0.36074 0.70981 0.0
Mg78 Mg 0.70376 0.01553 0.71099 0.0
C79 C 0.69189 1.00338 0.75279 0.0
O80 O 0.69075 0.0227 0.75461 0.0
C81 C 0.72863 0.047 0.69409 0.0
O82 O 0.71125 0.0494 0.68574 0.0
C83 C 0.68009 0.05116 0.72139 0.0
O84 O 0.69786 0.05573 0.72782 0.0
O85 O 0.67785 0.03501 0.71195 0.0
O86 O 0.69921 0.99624 0.73689 0.0
O87 O 0.70755 0.99661 0.68493 0.0
C88 C 0.72562 0.99143 0.68305 0.0
O89 O 0.7382 0.99645 0.69695 0.0
O90 O 0.7303 0.03413 0.70783 0.0
Mg91 Mg 0.03293 0.66011 0.64577 0.0
C92 C 0.0566 0.64323 0.6822 0.0
O93 O 0.04436 0.6553 0.69136 0.0
C94 C 1.00499 0.69552 0.63373 0.0
O95 O 0.0135 0.70316 0.64942 0.0
C96 C 0.99545 0.65147 0.6709 0.0
O97 O 0.99868 0.6702 0.67497 0.0
O98 O 0.00741 0.64249 0.65942 0.0
O99 O 0.05557 0.64175 0.66344 0.0
O100 O 0.05832 0.67796 0.63221 0.0
C101 C 0.06806 0.68975 0.64312 0.0
O102 O 0.06303 0.6915 0.66187 0.0
O103 O 0.01017 0.67831 0.62807 0.0
Mg104 Mg 0.36801 0.36413 0.01354 0.0
C105 C 0.38795 0.32967 0.99636 0.0
O106 O 0.40229 0.34144 1.00217 0.0
C107 C 0.34193 0.38882 0.03642 0.0
O108 O 0.35739 0.39961 0.03139 0.0
C109 C 0.38683 0.3571 0.05208 0.0
O110 O 0.36846 0.3511 0.05449 0.0
O111 O 0.39181 0.36469 0.03547 0.0
O112 O 0.37012 0.33515 0.9993 0.0
O113 O 0.36772 0.38711 0.99063 0.0
C114 C 0.37166 0.38415 0.97241 0.0
O115 O 0.37909 0.36701 0.96697 0.0
O116 O 0.34128 0.37093 0.03052 0.0
Mg117 Mg 0.6929 0.35024 0.99229 0.0
C118 C 0.65959 0.33269 0.01903 0.0
O119 O 0.64934 0.34454 0.00751 0.0
C120 C 0.70206 0.38616 0.96472 0.0
O121 O 0.68811 0.39384 0.97596 0.0
C122 C 0.65947 0.34563 0.96045 0.0
O123 O 0.65805 0.36471 0.9639 0.0
O124 O 0.67242 0.33557 0.9697 0.0
O125 O 0.67831 0.33193 0.01689 0.0
O126 O 0.71359 0.36509 0.01463 0.0
C127 C 0.70759 0.37962 0.02501 0.0
O128 O 0.6891 0.38545 0.02328 0.0
O129 O 0.70737 0.36834 0.96769 0.0
Mg130 Mg 0.67132 0.68737 0.01805 0.0
C131 C 0.68498 0.65435 0.04771 0.0
O132 O 0.67307 0.64392 0.03648 0.0
C133 C 0.63675 0.69783 0.98949 0.0
O134 O 0.62846 0.68429 1.00085 0.0
C135 C 0.68894 0.66525 0.98007 0.0
O136 O 0.67022 0.66463 0.9749 0.0
O137 O 0.69361 0.67332 0.9964 0.0
O138 O 0.68751 0.67263 0.04383 0.0
O139 O 0.65008 0.70214 0.04011 0.0
C140 C 0.63941 0.69246 0.05236 0.0
O141 O 0.64 0.67301 0.05215 0.0
O142 O 0.65479 0.70238 0.99246 0.0
Mg143 Mg 0.32768 0.70621 0.01937 0.0
C144 C 0.30977 0.68302 0.98867 0.0
O145 O 0.29897 0.69909 0.99077 0.0
C146 C 0.35261 0.72381 0.04902 0.0
O147 O 0.33546 0.73297 0.05008 0.0
C148 C 0.30381 0.68954 0.05263 0.0
O149 O 0.32191 0.68397 0.05704 0.0
O150 O 0.30136 0.70119 0.03795 0.0
O151 O 0.32543 0.6814 0.99899 0.0
O152 O 0.33067 0.73351 1.00192 0.0
C153 C 0.34203 0.73168 0.98688 0.0
O154 O 0.3481 0.71384 0.98204 0.0
O155 O 0.35409 0.70896 0.03752 0.0
Mg156 Mg 0.84244 0.54159 0.82059 0.0
C157 C 0.8738 0.51046 0.81615 0.0
O158 O 0.85771 0.49953 0.8166 0.0
C159 C 0.81819 0.57026 0.84113 0.0
O160 O 0.80796 0.56435 0.82571 0.0
C161 C 0.8471 0.54647 0.77699 0.0
O162 O 0.85119 0.52754 0.77893 0.0
O163 O 0.84015 0.55572 0.79186 0.0
O164 O 0.87228 0.52898 0.81934 0.0
O165 O 0.8211 0.51841 0.8271 0.0
C166 C 0.82397 0.51107 0.84422 0.0
O167 O 0.83911 0.5175 0.85456 0.0
O168 O 0.8357 0.5636 0.84323 0.0
Mg169 Mg 0.50804 0.86376 0.85687 0.0
C170 C 0.54741 0.87966 0.84636 0.0
O171 O 0.54649 0.86232 0.83762 0.0
C172 C 0.46923 0.85991 0.87834 0.0
O173 O 0.46378 0.85993 0.85969 0.0
C174 C 0.49465 0.88529 0.81964 0.0
O175 O 0.51119 0.8949 0.82303 0.0
O176 O 0.49027 0.87045 0.83051 0.0
O177 O 0.53276 0.88505 0.85708 0.0
O178 O 0.52262 0.83489 0.85803 0.0
C179 C 0.51492 0.8203 0.86724 0.0
O180 O 0.49648 0.82165 0.87339 0.0
O181 O 0.48743 0.86299 0.88229 0.0
Mg182 Mg 0.21058 0.50803 0.83419 0.0
C183 C 0.18641 0.53575 0.81187 0.0
O184 O 0.17883 0.53496 0.82984 0.0
C185 C 0.25501 0.49894 0.83884 0.0
O186 O 0.25669 0.51831 0.83946 0.0
C187 C 0.19061 0.47041 0.826 0.0
O188 O 0.20778 0.469 0.81687 0.0
O189 O 0.18714 0.48583 0.83628 0.0
O190 O 0.20194 0.52561 0.80827 0.0
O191 O 0.21372 0.52787 0.85941 0.0
C192 C 0.22133 0.54471 0.85553 0.0
O193 O 0.22463 0.54947 0.83691 0.0
O194 O 0.23832 0.49131 0.83459 0.0
Mg195 Mg 0.50512 0.19693 0.83571 0.0
C196 C 0.46534 0.20529 0.81397 0.0
O197 O 0.46074 0.21652 0.82918 0.0
C198 C 0.5174 0.23789 0.84738 0.0
O199 O 0.49927 0.23747 0.85457 0.0
C200 C 0.526 0.16909 0.80926 0.0
O201 O 0.51547 0.18009 0.79717 0.0
O202 O 0.52471 0.17233 0.82782 0.0
O203 O 0.48239 0.19736 0.81306 0.0
O204 O 0.49069 0.19576 0.86468 0.0
C205 C 0.47302 0.18977 0.86749 0.0
O206 O 0.46385 0.18051 0.85312 0.0
O207 O 0.52342 0.22333 0.83706 0.0
Mg208 Mg 0.83311 0.52118 0.1928 0.0
C209 C 0.85831 0.54935 0.21311 0.0
O210 O 0.84418 0.54443 0.22565 0.0
C211 C 0.81676 0.49069 0.16812 0.0
O212 O 0.80762 0.48975 0.18535 0.0
C213 C 0.83112 0.49958 0.23433 0.0
O214 O 0.81875 0.51337 0.24033 0.0
O215 O 0.83743 0.49974 0.21655 0.0
O216 O 0.85808 0.54165 0.1959 0.0
O217 O 0.80559 0.53813 0.19238 0.0
C218 C 0.80659 0.55668 0.1891 0.0
O219 O 0.82403 0.56529 0.18913 0.0
O220 O 0.83056 0.50342 0.16596 0.0
Mg221 Mg 0.50729 0.85043 0.18633 0.0
C222 C 0.50246 0.8374 0.14383 0.0
O223 O 0.52029 0.83035 0.14701 0.0
C224 C 0.5343 0.87203 0.21165 0.0
O225 O 0.52653 0.85788 0.22263 0.0
C226 C 0.53958 0.82009 0.18681 0.0
O227 O 0.55 0.83652 0.18667 0.0
O228 O 0.52089 0.82126 0.18913 0.0
O229 O 0.49478 0.84893 0.15663 0.0
O230 O 0.48245 0.85669 0.20608 0.0
C231 C 0.47017 0.86935 0.19941 0.0
O232 O 0.47273 0.87611 0.18129 0.0
O233 O 0.52911 0.87321 0.19355 0.0
Mg234 Mg 0.16919 0.51575 0.17168 0.0
C235 C 0.17117 0.55634 0.15238 0.0
O236 O 0.16741 0.56135 0.17081 0.0
C237 C 0.14723 0.47951 0.18305 0.0
O238 O 0.16576 0.47573 0.18755 0.0
C239 C 0.20929 0.5029 0.15591 0.0
O240 O 0.21036 0.52188 0.1517 0.0
O241 O 0.19439 0.49649 0.1656 0.0
O242 O 0.1705 0.53805 0.14775 0.0
O243 O 0.17108 0.53256 0.19921 0.0
C244 C 0.15871 0.52959 0.21321 0.0
O245 O 0.14677 0.51428 0.21219 0.0
O246 O 0.1433 0.49599 0.17463 0.0
Mg247 Mg 0.52666 0.21605 0.20095 0.0
C248 C 0.55755 0.23068 0.17518 0.0
O249 O 0.55834 0.2413 0.19146 0.0
C250 C 0.51228 0.17468 0.21084 0.0
O251 O 0.53145 0.17143 0.21139 0.0
C252 C 0.4948 0.24086 0.18563 0.0
O253 O 0.4902 0.22278 0.18014 0.0
O254 O 0.50963 0.2432 0.19696 0.0
O255 O 0.54501 0.21662 0.17434 0.0
O256 O 0.54581 0.21342 0.22681 0.0
C257 C 0.56207 0.2042 0.22415 0.0
O258 O 0.5672 0.19924 0.20604 0.0
O259 O 0.50607 0.1915 0.20501 0.0
Mg260 Mg 0.838 0.84029 0.51288 0.0
C261 C 0.82358 0.87919 0.53024 0.0
O262 O 0.81969 0.88283 0.51153 0.0
C263 C 0.87911 0.83646 0.49546 0.0
O264 O 0.88217 0.82858 0.513 0.0
C265 C 0.81149 0.84506 0.47732 0.0
O266 O 0.82889 0.84553 0.46852 0.0
O267 O 0.81064 0.84085 0.49571 0.0
O268 O 0.83278 0.86338 0.53479 0.0
O269 O 0.84568 0.81284 0.52853 0.0
C270 C 0.85237 0.81456 0.54606 0.0
O271 O 0.85151 0.83199 0.55461 0.0
O272 O 0.8625 0.84467 0.49206 0.0
Mg273 Mg 0.21221 0.84269 0.51262 0.0
C274 C 0.19172 0.82033 0.4818 0.0
O275 O 0.20548 0.80813 0.48816 0.0
C276 C 0.21261 0.88462 0.52699 0.0
O277 O 0.22164 0.88691 0.50984 0.0
C278 C 0.2087 0.81786 0.54993 0.0
O279 O 0.21177 0.83517 0.55823 0.0
O280 O 0.21 0.81644 0.53119 0.0
O281 O 0.19086 0.83761 0.48921 0.0
O282 O 0.24151 0.84924 0.5006 0.0
C283 C 0.24335 0.85301 0.48221 0.0
O284 O 0.22806 0.8502 0.47058 0.0
O285 O 0.20527 0.8678 0.5313 0.0
Mg286 Mg 0.18833 0.21699 0.5054 0.0
C287 C 0.19222 0.24709 0.53793 0.0
O288 O 0.19326 0.23069 0.54837 0.0
C289 C 0.22495 0.20972 0.47674 0.0
O290 O 0.23518 0.222 0.48776 0.0
C291 C 0.16177 0.23588 0.47896 0.0
O292 O 0.1799 0.24158 0.47455 0.0
O293 O 0.15951 0.22279 0.49243 0.0
O294 O 0.1931 0.24594 0.51911 0.0
O295 O 0.19084 0.194 0.52811 0.0
C296 C 0.20881 0.19127 0.53306 0.0
O297 O 0.22253 0.20207 0.52434 0.0
O298 O 0.20676 0.20665 0.48072 0.0
Mg299 Mg 0.85994 0.17691 0.53088 0.0
C300 C 0.83202 0.16758 0.49832 0.0
O301 O 0.84941 0.16406 0.49028 0.0
C302 C 0.87887 0.19934 0.56232 0.0
O303 O 0.88762 0.18195 0.56215 0.0
C304 C 0.85111 0.13572 0.54793 0.0
O305 O 0.84274 0.13317 0.53059 0.0
O306 O 0.86105 0.15143 0.55097 0.0
O307 O 0.83131 0.17435 0.51592 0.0
O308 O 0.88232 0.18139 0.50759 0.0
C309 C 0.8792 0.19789 0.49892 0.0
O310 O 0.86431 0.20878 0.5052 0.0
O311 O 0.86467 0.20232 0.55031 0.0
H312 H 0.26444 0.20884 0.46659 0.0
H313 H 0.28094 0.18588 0.4438 0.0
H314 H 0.22457 0.15939 0.42994 0.0
H315 H 0.20799 0.1824 0.45226 0.0
H316 H 0.28192 0.14626 0.44774 0.0
H317 H 0.2486 0.16447 0.37528 0.0
H318 H 0.24659 0.18069 0.39643 0.0
H319 H 0.23011 0.15987 0.39393 0.0
C320 C 0.25551 0.19839 0.45839 0.0
C321 C 0.23487 0.19749 0.46132 0.0
C322 C 0.26497 0.18525 0.44538 0.0
C323 C 0.25399 0.17103 0.43491 0.0
C324 C 0.23334 0.17049 0.43742 0.0
H325 H 0.29044 0.05505 0.39894 0.0
H326 H 0.27521 0.08455 0.41321 0.0
C327 C 0.22388 0.18361 0.45037 0.0
C328 C 0.26418 0.15553 0.42295 0.0
H329 H 0.26409 0.13239 0.37791 0.0
C330 C 0.27819 0.14343 0.43239 0.0
C331 C 0.25952 0.15189 0.40284 0.0
C332 C 0.24554 0.16506 0.39147 0.0
C333 C 0.28702 0.12735 0.42259 0.0
C334 C 0.28144 0.12297 0.40289 0.0
C335 C 0.26811 0.13556 0.39311 0.0
C336 C 0.28895 0.10501 0.39259 0.0
C337 C 0.30219 0.11511 0.43349 0.0
C338 C 0.30093 0.10659 0.37556 0.0
C339 C 0.3096 0.08964 0.36721 0.0
C340 C 0.30638 0.07084 0.37575 0.0
C341 C 0.29343 0.06928 0.39209 0.0
C342 C 0.28477 0.08616 0.40036 0.0
H343 H 0.3088 0.12344 0.446 0.0
H344 H 0.29492 0.10168 0.43967 0.0
H345 H 0.31428 0.11029 0.42338 0.0
H346 H 0.30421 0.12099 0.36923 0.0
H347 H 0.31948 0.09137 0.35463 0.0
H348 H 0.97118 0.28221 0.34705 0.0
H349 H 0.95859 0.25345 0.36598 0.0
H350 H 0.94659 0.29135 0.4159 0.0
H351 H 0.95888 0.31973 0.39746 0.0
H352 H 0.96825 0.25485 0.4247 0.0
H353 H 0.89866 0.24354 0.38204 0.0
H354 H 0.92194 0.24539 0.36894 0.0
H355 H 0.91192 0.26676 0.38108 0.0
C356 C 0.96575 0.28436 0.36202 0.0
C357 C 0.966 0.30332 0.37067 0.0
C358 C 0.95859 0.26794 0.37281 0.0
C359 C 0.95168 0.27029 0.39237 0.0
C360 C 0.95193 0.28917 0.40089 0.0
H361 H 0.87369 0.2316 0.47768 0.0
H362 H 0.89308 0.24428 0.45003 0.0
C363 C 0.95892 0.30544 0.39021 0.0
C364 C 0.94385 0.25351 0.40438 0.0
H365 H 0.90135 0.22723 0.41263 0.0
C366 C 0.95386 0.24834 0.42185 0.0
C367 C 0.92504 0.24517 0.40064 0.0
C368 C 0.91361 0.25044 0.38221 0.0
C369 C 0.94498 0.23612 0.43631 0.0
C370 C 0.92564 0.22875 0.43311 0.0
C371 C 0.9162 0.23284 0.41503 0.0
C372 C 0.91374 0.21981 0.44947 0.0
C373 C 0.95572 0.23244 0.45552 0.0
C374 C 0.91881 0.20166 0.45842 0.0
C375 C 0.90765 0.19428 0.47449 0.0
C376 C 0.89128 0.20496 0.48182 0.0
C377 C 0.88621 0.22295 0.47256 0.0
C378 C 0.89725 0.23023 0.45661 0.0
H379 H 0.9697 0.24107 0.45652 0.0
H380 H 0.94609 0.23638 0.46831 0.0
H381 H 0.9594 0.21647 0.45679 0.0
H382 H 0.93137 0.19326 0.45301 0.0
H383 H 0.91188 0.18033 0.48121 0.0
H384 H 0.77522 0.85475 0.49316 0.0
H385 H 0.74896 0.87403 0.47727 0.0
H386 H 0.78242 0.8747 0.42266 0.0
H387 H 0.80851 0.85525 0.43827 0.0
H388 H 0.75451 0.91148 0.46268 0.0
H389 H 0.72694 0.86285 0.40295 0.0
H390 H 0.74148 0.8536 0.42337 0.0
H391 H 0.75339 0.86545 0.40256 0.0
C392 C 0.77675 0.85852 0.47762 0.0
C393 C 0.79401 0.85346 0.467 0.0
C394 C 0.76175 0.86963 0.46858 0.0
C395 C 0.76362 0.8757 0.44872 0.0
C396 C 0.78042 0.86988 0.43787 0.0
H397 H 0.71815 0.98051 0.39181 0.0
H398 H 0.73778 0.95454 0.40766 0.0
C399 C 0.79541 0.85882 0.44688 0.0
C400 C 0.74918 0.88981 0.43995 0.0
H401 H 0.71928 0.89748 0.39993 0.0
C402 C 0.74663 0.90831 0.44908 0.0
C403 C 0.73878 0.88566 0.42228 0.0
C404 C 0.74011 0.86574 0.41231 0.0
C405 C 0.73453 0.92299 0.44069 0.0
C406 C 0.72492 0.91919 0.42251 0.0
C407 C 0.72686 0.90046 0.41373 0.0
C408 C 0.71304 0.93464 0.4123 0.0
C409 C 0.73214 0.94245 0.45137 0.0
C410 C 0.6927 0.93185 0.40913 0.0
C411 C 0.68141 0.94667 0.40001 0.0
C412 C 0.6903 0.96451 0.39374 0.0
C413 C 0.71079 0.96703 0.39654 0.0
C414 C 0.72203 0.95223 0.40569 0.0
H415 H 0.73602 0.94114 0.4673 0.0
H416 H 0.74215 0.95361 0.44453 0.0
H417 H 0.7167 0.94801 0.4502 0.0
H418 H 0.68549 0.91833 0.41401 0.0
H419 H 0.6657 0.94419 0.39803 0.0
H420 H 0.1618 0.84158 0.46417 0.0
H421 H 0.13655 0.829 0.4413 0.0
H422 H 0.163 0.77096 0.44387 0.0
H423 H 0.1882 0.78325 0.46649 0.0
H424 H 0.14388 0.80593 0.40234 0.0
H425 H 0.1022 0.7654 0.46111 0.0
H426 H 0.11832 0.78606 0.46644 0.0
H427 H 0.12867 0.76219 0.46099 0.0
C428 C 0.16228 0.82617 0.45977 0.0
C429 C 0.17696 0.8134 0.46722 0.0
C430 C 0.14788 0.81904 0.44672 0.0
C431 C 0.14787 0.79904 0.44112 0.0
C432 C 0.1627 0.7864 0.4482 0.0
H433 H 0.07633 0.71668 0.37622 0.0
H434 H 0.10058 0.73383 0.39678 0.0
C435 C 0.17711 0.7935 0.46109 0.0
C436 C 0.13225 0.79104 0.42812 0.0
H437 H 0.09334 0.75878 0.42789 0.0
C438 C 0.13266 0.79579 0.40788 0.0
C439 C 0.11779 0.77776 0.43548 0.0
C440 C 0.11652 0.77259 0.45722 0.0
C441 C 0.11932 0.787 0.39461 0.0
C442 C 0.10499 0.77347 0.40194 0.0
C443 C 0.10437 0.76909 0.42228 0.0
C444 C 0.09073 0.76328 0.38877 0.0
C445 C 0.12118 0.79171 0.37281 0.0
C446 C 0.0771 0.77414 0.37748 0.0
C447 C 0.06329 0.76437 0.36561 0.0
C448 C 0.06271 0.74355 0.365 0.0
C449 C 0.07638 0.73272 0.37635 0.0
C450 C 0.09024 0.7425 0.38812 0.0
H451 H 0.1359 0.79814 0.36908 0.0
H452 H 0.11891 0.77824 0.36369 0.0
H453 H 0.10971 0.80272 0.36869 0.0
H454 H 0.0769 0.79017 0.37811 0.0
H455 H 0.05287 0.77316 0.35718 0.0
H456 H 0.19855 0.88338 0.56515 0.0
H457 H 0.20812 0.90505 0.59246 0.0
H458 H 0.24246 0.9409 0.55189 0.0
H459 H 0.23266 0.91967 0.52453 0.0
H460 H 0.24593 0.90877 0.60418 0.0
H461 H 0.21697 0.98301 0.5855 0.0
H462 H 0.20813 0.96079 0.57361 0.0
H463 H 0.23062 0.97259 0.5652 0.0
C464 C 0.20768 0.89621 0.56194 0.0
C465 C 0.21494 0.89973 0.54266 0.0
C466 C 0.21317 0.90855 0.57758 0.0
C467 C 0.22589 0.92468 0.57422 0.0
C468 C 0.23228 0.92882 0.55481 0.0
H469 H 0.30931 0.99634 0.63408 0.0
H470 H 0.28815 0.97768 0.61162 0.0
C471 C 0.22674 0.91656 0.53916 0.0
C472 C 0.23458 0.9356 0.59112 0.0
H473 H 0.24483 0.98212 0.60791 0.0
C474 C 0.24535 0.92478 0.60525 0.0
C475 C 0.23383 0.95649 0.59247 0.0
C476 C 0.22158 0.96886 0.57849 0.0
C477 C 0.25625 0.93436 0.62005 0.0
C478 C 0.25625 0.95526 0.62079 0.0
C479 C 0.24488 0.96607 0.60717 0.0
C480 C 0.269 0.96621 0.63474 0.0
C481 C 0.26848 0.92213 0.63419 0.0
C482 C 0.26523 0.96583 0.6552 0.0
C483 C 0.27733 0.97649 0.66814 0.0
C484 C 0.29337 0.98769 0.66079 0.0
C485 C 0.29715 0.98782 0.64027 0.0
C486 C 0.28502 0.97725 0.62738 0.0
H487 H 0.26913 0.90629 0.62982 0.0
H488 H 0.28382 0.92802 0.63497 0.0
H489 H 0.2619 0.92303 0.64927 0.0
H490 H 0.25281 0.9575 0.66111 0.0
H491 H 0.27397 0.97615 0.68385 0.0
H492 H 0.04776 0.33887 0.60607 0.0
H493 H 0.07575 0.32556 0.58727 0.0
H494 H 0.11636 0.35089 0.62924 0.0
H495 H 0.08839 0.36435 0.64826 0.0
H496 H 0.12777 0.35258 0.58506 0.0
H497 H 0.10716 0.27832 0.61461 0.0
H498 H 0.08746 0.29227 0.60339 0.0
H499 H 0.0986 0.30104 0.62581 0.0
C500 C 0.06263 0.34196 0.61117 0.0
C501 C 0.06579 0.35251 0.62883 0.0
C502 C 0.07862 0.33432 0.60038 0.0
C503 C 0.09809 0.33707 0.60698 0.0
C504 C 0.10142 0.34861 0.6239 0.0
H505 H 0.19274 0.25593 0.57726 0.0
H506 H 0.17261 0.28073 0.59425 0.0
C507 C 0.08541 0.35628 0.63475 0.0
C508 C 0.11463 0.32619 0.59737 0.0
H509 H 0.13247 0.27942 0.59042 0.0
C510 C 0.12891 0.3366 0.58626 0.0
C511 C 0.11619 0.30538 0.59918 0.0
C512 C 0.10166 0.29352 0.6115 0.0
C513 C 0.14448 0.32661 0.57651 0.0
C514 C 0.14568 0.30571 0.57789 0.0
C515 C 0.13158 0.29543 0.58935 0.0
C516 C 0.16107 0.29386 0.5674 0.0
C517 C 0.15959 0.33847 0.565 0.0
C518 C 0.16196 0.29349 0.5466 0.0
C519 C 0.17364 0.27936 0.53679 0.0
C520 C 0.18441 0.2652 0.54766 0.0
C521 C 0.18458 0.26657 0.56845 0.0
C522 C 0.17303 0.28073 0.5782 0.0
H523 H 0.1598 0.35422 0.56972 0.0
H524 H 0.17467 0.33216 0.5668 0.0
H525 H 0.15582 0.33806 0.54902 0.0
H526 H 0.15263 0.30322 0.53792 0.0
H527 H 0.17301 0.27861 0.52077 0.0
H528 H 0.85298 0.1442 0.5875 0.0
H529 H 0.83709 0.12618 0.61462 0.0
H530 H 0.81999 0.08001 0.57406 0.0
H531 H 0.83509 0.09852 0.54666 0.0
H532 H 0.7895 0.09111 0.5935 0.0
H533 H 0.84832 0.07982 0.64883 0.0
H534 H 0.8464 0.1055 0.64235 0.0
H535 H 0.8537 0.08774 0.6238 0.0
C536 C 0.8463 0.12996 0.58441 0.0
C537 C 0.84526 0.12284 0.56487 0.0
C538 C 0.83728 0.11956 0.60003 0.0
C539 C 0.82745 0.10154 0.59656 0.0
C540 C 0.82745 0.09386 0.5772 0.0
H541 H 0.76587 0.0316 0.68867 0.0
H542 H 0.79143 0.04434 0.66586 0.0
C543 C 0.83615 0.10443 0.56152 0.0
C544 C 0.81511 0.09208 0.61242 0.0
H545 H 0.81463 0.07801 0.66122 0.0
C546 C 0.79516 0.08802 0.6082 0.0
C547 C 0.82237 0.08775 0.63164 0.0
C548 C 0.84393 0.09023 0.63684 0.0
C549 C 0.7822 0.08042 0.62267 0.0
C550 C 0.7891 0.07743 0.64224 0.0
C551 C 0.80921 0.08072 0.64635 0.0
C552 C 0.7754 0.07112 0.65846 0.0
C553 C 0.76123 0.07553 0.61671 0.0
C554 C 0.75844 0.08239 0.66271 0.0
C555 C 0.74381 0.07506 0.67548 0.0
C556 C 0.74607 0.05654 0.68473 0.0
C557 C 0.76383 0.04602 0.68189 0.0
C558 C 0.77838 0.05323 0.66877 0.0
H559 H 0.76014 0.07272 0.60054 0.0
H560 H 0.7556 0.06229 0.62477 0.0
H561 H 0.75147 0.08828 0.62024 0.0
H562 H 0.75606 0.09649 0.65539 0.0
H563 H 0.7303 0.08351 0.67747 0.0
H564 H 0.98501 0.68496 0.59996 0.0
H565 H 0.95828 0.70314 0.58347 0.0
H566 H 0.9614 0.74856 0.62813 0.0
H567 H 0.98828 0.73079 0.6444 0.0
H568 H 0.92133 0.71416 0.59687 0.0
H569 H 0.96518 0.78092 0.57776 0.0
H570 H 0.97656 0.75817 0.58599 0.0
H571 H 0.96613 0.77517 0.6037 0.0
C572 C 0.9801 0.69889 0.60619 0.0
C573 C 0.98895 0.70649 0.62342 0.0
C574 C 0.96477 0.70924 0.59677 0.0
C575 C 0.95804 0.72741 0.60434 0.0
C576 C 0.96665 0.73484 0.6217 0.0
H577 H 0.86799 0.81405 0.5832 0.0
H578 H 0.89245 0.79107 0.59654 0.0
C579 C 0.982 0.72458 0.63105 0.0
C580 C 0.94183 0.73853 0.59438 0.0
H581 H 0.92999 0.78404 0.57555 0.0
C582 C 0.92328 0.72937 0.59199 0.0
C583 C 0.94438 0.75834 0.58787 0.0
C584 C 0.96419 0.76866 0.58876 0.0
C585 C 0.90705 0.73975 0.58404 0.0
C586 C 0.90948 0.75975 0.57826 0.0
C587 C 0.92812 0.76873 0.58016 0.0
C588 C 0.89279 0.77201 0.57086 0.0
C589 C 0.88725 0.72955 0.58246 0.0
C590 C 0.88451 0.76869 0.55211 0.0
C591 C 0.87045 0.78188 0.54436 0.0
C592 C 0.86451 0.79865 0.55524 0.0
C593 C 0.87222 0.80135 0.57438 0.0
C594 C 0.88625 0.78823 0.58204 0.0
H595 H 0.88708 0.71499 0.59018 0.0
H596 H 0.87537 0.73903 0.5888 0.0
H597 H 0.88377 0.72709 0.5666 0.0
H598 H 0.88951 0.75637 0.54314 0.0
H599 H 0.86493 0.77943 0.52952 0.0
H600 H 0.37917 0.34599 0.09005 0.0
H601 H 0.40242 0.33359 0.1145 0.0
H602 H 0.45105 0.34553 0.07448 0.0
H603 H 0.4276 0.35774 0.04955 0.0
H604 H 0.45175 0.30812 0.08776 0.0
H605 H 0.44168 0.357 0.15231 0.0
H606 H 0.41819 0.34818 0.14379 0.0
H607 H 0.43313 0.36372 0.12788 0.0
C608 C 0.39484 0.34638 0.08652 0.0
C609 C 0.40152 0.35277 0.06778 0.0
C610 C 0.40818 0.33946 0.10066 0.0
C611 C 0.42856 0.33889 0.09652 0.0
C612 C 0.4354 0.34601 0.07809 0.0
H613 H 0.50684 0.27988 0.18396 0.0
H614 H 0.49297 0.30616 0.16283 0.0
C615 C 0.422 0.35301 0.06387 0.0
C616 C 0.44205 0.32841 0.11041 0.0
H617 H 0.45281 0.32334 0.15965 0.0
C618 C 0.45234 0.31176 0.10339 0.0
C619 C 0.44308 0.33319 0.13082 0.0
C620 C 0.43358 0.35164 0.13908 0.0
C621 C 0.46239 0.29903 0.11638 0.0
C622 C 0.46189 0.30285 0.13698 0.0
C623 C 0.45287 0.32024 0.14389 0.0
C624 C 0.46921 0.28801 0.15146 0.0
C625 C 0.47295 0.2812 0.108 0.0
C626 C 0.45993 0.26946 0.15268 0.0
C627 C 0.46771 0.25455 0.16468 0.0
C628 C 0.48492 0.25787 0.17585 0.0
C629 C 0.49355 0.27687 0.17556 0.0
C630 C 0.48571 0.29186 0.16345 0.0
H631 H 0.47681 0.28337 0.09211 0.0
H632 H 0.48672 0.27798 0.11636 0.0
H633 H 0.46308 0.26809 0.10917 0.0
H634 H 0.44695 0.26632 0.14384 0.0
H635 H 0.46058 0.24017 0.16468 0.0
H636 H 0.82849 0.491 0.12881 0.0
H637 H 0.81447 0.47126 0.10169 0.0
H638 H 0.77492 0.44253 0.14317 0.0
H639 H 0.78896 0.46167 0.17011 0.0
H640 H 0.79123 0.4163 0.11703 0.0
H641 H 0.76008 0.48157 0.07746 0.0
H642 H 0.78637 0.48199 0.08152 0.0
H643 H 0.76968 0.48317 0.1023 0.0
C644 C 0.81693 0.48034 0.13212 0.0
C645 C 0.80976 0.47804 0.15161 0.0
C646 C 0.80883 0.46918 0.11661 0.0
C647 C 0.79341 0.45562 0.12035 0.0
C648 C 0.78676 0.45291 0.13988 0.0
H649 H 0.69865 0.40919 0.05114 0.0
H650 H 0.72122 0.42703 0.07293 0.0
C651 C 0.7948 0.46396 0.1553 0.0
C652 C 0.78358 0.44447 0.10416 0.0
H653 H 0.75337 0.45019 0.06407 0.0
C654 C 0.78313 0.42368 0.1053 0.0
C655 C 0.77281 0.45415 0.08902 0.0
C656 C 0.77205 0.47644 0.08749 0.0
C657 C 0.77178 0.41235 0.09211 0.0
C658 C 0.76089 0.42204 0.07706 0.0
C659 C 0.76178 0.44279 0.07557 0.0
C660 C 0.74743 0.41108 0.06356 0.0
C661 C 0.77082 0.39019 0.09503 0.0
C662 C 0.75464 0.39621 0.05091 0.0
C663 C 0.74171 0.38583 0.03853 0.0
C664 C 0.72133 0.39027 0.03838 0.0
C665 C 0.71423 0.40533 0.05089 0.0
C666 C 0.72714 0.41561 0.06333 0.0
H667 H 0.77614 0.38567 0.10992 0.0
H668 H 0.75544 0.38466 0.09316 0.0
H669 H 0.78036 0.38288 0.08379 0.0
H670 H 0.7703 0.39272 0.05052 0.0
H671 H 0.74772 0.37445 0.02894 0.0
H672 H 0.63435 0.73247 0.05634 0.0
H673 H 0.61529 0.74992 0.08175 0.0
H674 H 0.59754 0.69408 0.10747 0.0
H675 H 0.61673 0.67643 0.08219 0.0
H676 H 0.57451 0.74746 0.09099 0.0
H677 H 0.62154 0.7246 0.15452 0.0
H678 H 0.62954 0.72208 0.12908 0.0
H679 H 0.61205 0.70485 0.13948 0.0
C680 C 0.62639 0.72386 0.06737 0.0
C681 C 0.62717 0.70303 0.06728 0.0
C682 C 0.61548 0.73387 0.08188 0.0
C683 C 0.60522 0.72331 0.09665 0.0
C684 C 0.60563 0.70253 0.0964 0.0
H685 H 0.52083 0.78657 0.17349 0.0
H686 H 0.53556 0.76013 0.15349 0.0
C687 C 0.61653 0.69247 0.08187 0.0
C688 C 0.59415 0.73421 0.11225 0.0
H689 H 0.59381 0.74458 0.16179 0.0
C690 C 0.57859 0.74671 0.1065 0.0
C691 C 0.59964 0.73329 0.13244 0.0
C692 C 0.6167 0.72062 0.13933 0.0
C693 C 0.56857 0.75861 0.12034 0.0
C694 C 0.57411 0.75776 0.14054 0.0
C695 C 0.58946 0.74501 0.14634 0.0
C696 C 0.56547 0.77149 0.1554 0.0
C697 C 0.55275 0.77263 0.11307 0.0
C698 C 0.57757 0.78591 0.1641 0.0
C699 C 0.56925 0.80091 0.17566 0.0
C700 C 0.54865 0.80177 0.17879 0.0
C701 C 0.53674 0.78639 0.17136 0.0
C702 C 0.54511 0.77136 0.15975 0.0
H703 H 0.553 0.77425 0.09668 0.0
H704 H 0.53796 0.76687 0.11749 0.0
H705 H 0.55457 0.78752 0.11978 0.0
H706 H 0.59335 0.7862 0.16105 0.0
H707 H 0.57886 0.81245 0.18126 0.0
H708 H 0.18495 0.55118 0.11416 0.0
H709 H 0.20368 0.57507 0.09399 0.0
H710 H 0.19673 0.61899 0.13976 0.0
H711 H 0.17751 0.5956 0.15957 0.0
H712 H 0.19419 0.636 0.10408 0.0
H713 H 0.26057 0.58751 0.10596 0.0
H714 H 0.23939 0.57633 0.09456 0.0
H715 H 0.23869 0.58236 0.12051 0.0
C716 C 0.1871 0.56604 0.11977 0.0
C717 C 0.17986 0.57135 0.13861 0.0
C718 C 0.19801 0.57965 0.1083 0.0
C719 C 0.20213 0.59873 0.11556 0.0
C720 C 0.19393 0.60436 0.13384 0.0
H721 H 0.30367 0.67124 0.0886 0.0
H722 H 0.27767 0.65057 0.10311 0.0
C723 C 0.18291 0.59089 0.1452 0.0
C724 C 0.21581 0.61257 0.10484 0.0
H725 H 0.26348 0.61738 0.08813 0.0
C726 C 0.20932 0.6319 0.1005 0.0
C727 C 0.23569 0.60738 0.10043 0.0
C728 C 0.24411 0.58735 0.10575 0.0
C729 C 0.22215 0.64617 0.09213 0.0
C730 C 0.24195 0.64089 0.08752 0.0
C731 C 0.24831 0.62147 0.09158 0.0
C732 C 0.25672 0.65533 0.07939 0.0
C733 C 0.21455 0.66696 0.08903 0.0
C734 C 0.25356 0.66539 0.06138 0.0
C735 C 0.26839 0.67757 0.05317 0.0
C736 C 0.2868 0.67963 0.06265 0.0
C737 C 0.28968 0.66999 0.08091 0.0
C738 C 0.27483 0.65807 0.08919 0.0
H739 H 0.20113 0.66994 0.09814 0.0
H740 H 0.22605 0.6781 0.09275 0.0
H741 H 0.21051 0.66895 0.07323 0.0
H742 H 0.23994 0.66325 0.05327 0.0
H743 H 0.2658 0.68453 0.03894 0.0
H744 H 0.35949 0.73267 0.95056 0.0
H745 H 0.37987 0.75901 0.93631 0.0
H746 H 0.36701 0.79614 0.98662 0.0
H747 H 0.34616 0.76977 1.00093 0.0
H748 H 0.36774 0.81717 0.95063 0.0
H749 H 0.43487 0.77089 0.95811 0.0
H750 H 0.41581 0.75858 0.94441 0.0
H751 H 0.4117 0.76466 0.97007 0.0
C752 C 0.36073 0.74654 0.9585 0.0
C753 C 0.3513 0.74906 0.97696 0.0
C754 C 0.37254 0.76154 0.9504 0.0
C755 C 0.37546 0.77935 0.96065 0.0
C756 C 0.36514 0.78244 0.97854 0.0
H757 H 0.47635 0.85034 0.91745 0.0
H758 H 0.45342 0.83408 0.94072 0.0
C759 C 0.35314 0.7674 0.98664 0.0
C760 C 0.3898 0.79426 0.9528 0.0
H761 H 0.43751 0.79883 0.93623 0.0
C762 C 0.38306 0.81327 0.94771 0.0
C763 C 0.40997 0.78943 0.94947 0.0
C764 C 0.41858 0.76985 0.956 0.0
C765 C 0.39564 0.82711 0.9383 0.0
C766 C 0.41537 0.82164 0.93347 0.0
C767 C 0.42237 0.80304 0.93966 0.0
C768 C 0.4285 0.83412 0.92064 0.0
C769 C 0.38758 0.8474 0.93357 0.0
C770 C 0.42214 0.83985 0.9017 0.0
C771 C 0.43513 0.84925 0.8885 0.0
C772 C 0.45495 0.85294 0.89373 0.0
C773 C 0.46117 0.84785 0.91295 0.0
C774 C 0.44808 0.83847 0.92625 0.0
H775 H 0.37587 0.85174 0.94434 0.0
H776 H 0.39942 0.85882 0.93366 0.0
H777 H 0.38076 0.84716 0.91864 0.0
H778 H 0.40736 0.83623 0.89672 0.0
H779 H 0.42979 0.85287 0.87382 0.0
H780 H 0.34378 0.41308 0.97697 0.0
H781 H 0.32825 0.43293 0.95113 0.0
H782 H 0.36802 0.40788 0.90766 0.0
H783 H 0.38291 0.38708 0.93339 0.0
H784 H 0.33884 0.46042 0.92686 0.0
H785 H 0.31702 0.39555 0.88174 0.0
H786 H 0.32765 0.39295 0.90603 0.0
H787 H 0.3433 0.3976 0.88481 0.0
C788 C 0.34936 0.41189 0.96194 0.0
C789 C 0.36446 0.39832 0.95721 0.0
C790 C 0.34043 0.42326 0.94712 0.0
C791 C 0.34653 0.42158 0.92725 0.0
C792 C 0.36249 0.40897 0.9227 0.0
H793 H 0.29418 0.50818 0.84418 0.0
H794 H 0.31871 0.48932 0.86307 0.0
C795 C 0.37117 0.39723 0.93748 0.0
C796 C 0.33575 0.43271 0.91148 0.0
H797 H 0.30984 0.42706 0.86845 0.0
C798 C 0.33254 0.45311 0.91406 0.0
C799 C 0.32726 0.42319 0.89485 0.0
C800 C 0.32879 0.4011 0.89175 0.0
C801 C 0.32075 0.46411 0.9009 0.0
C802 C 0.31259 0.45468 0.88406 0.0
C803 C 0.31622 0.43438 0.8812 0.0
C804 C 0.29884 0.46509 0.87023 0.0
C805 C 0.31635 0.48547 0.90586 0.0
C806 C 0.27996 0.45713 0.86662 0.0
C807 C 0.26616 0.46757 0.85526 0.0
C808 C 0.27082 0.48636 0.84746 0.0
C809 C 0.29007 0.49384 0.85016 0.0
C810 C 0.30403 0.48317 0.86118 0.0
H811 H 0.31905 0.48869 0.92176 0.0
H812 H 0.32622 0.49525 0.89698 0.0
H813 H 0.30074 0.48931 0.90245 0.0
H814 H 0.27556 0.44317 0.87327 0.0
H815 H 0.25147 0.46135 0.85353 0.0
H816 H 0.50989 0.26933 0.87169 0.0
H817 H 0.53411 0.29068 0.88786 0.0
H818 H 0.58138 0.26159 0.8561 0.0
H819 H 0.55727 0.24028 0.83966 0.0
H820 H 0.56331 0.27564 0.91227 0.0
H821 H 0.59661 0.32024 0.85143 0.0
H822 H 0.57328 0.30739 0.8489 0.0
H823 H 0.59623 0.29404 0.84683 0.0
C824 C 0.5254 0.26774 0.86777 0.0
C825 C 0.53164 0.253 0.85445 0.0
C826 C 0.53922 0.27995 0.87708 0.0
C827 C 0.55954 0.27779 0.87313 0.0
C828 C 0.56576 0.26374 0.85913 0.0
H829 H 0.65618 0.30605 0.95227 0.0
H830 H 0.63217 0.28997 0.93053 0.0
C831 C 0.55194 0.25151 0.8498 0.0
C832 C 0.57424 0.28871 0.88518 0.0
H833 H 0.61341 0.3207 0.88246 0.0
C834 C 0.57418 0.28559 0.90576 0.0
C835 C 0.58834 0.30174 0.87667 0.0
C836 C 0.58857 0.30624 0.85476 0.0
C837 C 0.58806 0.29487 0.91803 0.0
C838 C 0.60255 0.30742 0.90946 0.0
C839 C 0.6024 0.31088 0.88894 0.0
C840 C 0.61781 0.31724 0.92172 0.0
C841 C 0.58698 0.29134 0.94011 0.0
C842 C 0.618 0.33792 0.92355 0.0
C843 C 0.6317 0.34716 0.93596 0.0
C844 C 0.64556 0.33587 0.94664 0.0
C845 C 0.64566 0.31517 0.94433 0.0
C846 C 0.63191 0.30595 0.93197 0.0
H847 H 0.57241 0.28514 0.94472 0.0
H848 H 0.59865 0.28061 0.94442 0.0
H849 H 0.58957 0.30531 0.94836 0.0
H850 H 0.60726 0.34688 0.91571 0.0
H851 H 0.63127 0.36314 0.93731 0.0
H852 H 0.72841 0.65998 0.98807 0.0
H853 H 0.75398 0.64627 0.96611 0.0
H854 H 0.71034 0.63779 0.92051 0.0
H855 H 0.6847 0.65139 0.9423 0.0
H856 H 0.75388 0.60737 0.94682 0.0
H857 H 0.75604 0.67 0.89338 0.0
H858 H 0.7459 0.67233 0.9181 0.0
H859 H 0.73163 0.66079 0.89893 0.0
C860 C 0.72425 0.65524 0.97335 0.0
C861 C 0.7045 0.65686 0.96692 0.0
C862 C 0.73888 0.64739 0.96084 0.0
C863 C 0.73409 0.64126 0.94161 0.0
C864 C 0.7144 0.64272 0.9352 0.0
H865 H 0.78158 0.58685 0.83919 0.0
H866 H 0.76385 0.605 0.8648 0.0
C867 C 0.69974 0.65041 0.94772 0.0
C868 C 0.7495 0.63295 0.92826 0.0
H869 H 0.77183 0.64012 0.8833 0.0
C870 C 0.75806 0.61461 0.93305 0.0
C871 C 0.75495 0.6425 0.91038 0.0
C872 C 0.74681 0.66258 0.9049 0.0
C873 C 0.77111 0.60504 0.91987 0.0
C874 C 0.77604 0.6143 0.90163 0.0
C875 C 0.76806 0.63302 0.89726 0.0
C876 C 0.78775 0.60403 0.88601 0.0
C877 C 0.77867 0.58466 0.92512 0.0
C878 C 0.80734 0.59773 0.8892 0.0
C879 C 0.81761 0.58718 0.87448 0.0
C880 C 0.80846 0.58286 0.85631 0.0
C881 C 0.7891 0.5898 0.85301 0.0
C882 C 0.7789 0.60025 0.86766 0.0
H883 H 0.77037 0.57803 0.93777 0.0
H884 H 0.77757 0.57455 0.91223 0.0
H885 H 0.79449 0.5857 0.92935 0.0
H886 H 0.81462 0.60083 0.90311 0.0
H887 H 0.83252 0.5821 0.87747 0.0
H888 H 0.00925 0.37892 0.27641 0.0
H889 H 0.02528 0.39919 0.25067 0.0
H890 H 0.08164 0.37288 0.26484 0.0
H891 H 0.06583 0.35269 0.29055 0.0
H892 H 0.05676 0.42684 0.25866 0.0
H893 H 0.07965 0.37059 0.2035 0.0
H894 H 0.06044 0.36608 0.22173 0.0
H895 H 0.08609 0.3644 0.22856 0.0
C896 C 0.02498 0.37712 0.27376 0.0
C897 C 0.03624 0.36413 0.28556 0.0
C898 C 0.03414 0.3888 0.2591 0.0
C899 C 0.05464 0.38746 0.2557 0.0
C900 C 0.06576 0.37397 0.26696 0.0
H901 H 0.15233 0.44333 0.20008 0.0
H902 H 0.12753 0.42196 0.21528 0.0
C903 C 0.05669 0.36247 0.28173 0.0
C904 C 0.06483 0.40118 0.24163 0.0
H905 H 0.0958 0.40208 0.20142 0.0
C906 C 0.06502 0.42153 0.24592 0.0
C907 C 0.07562 0.39421 0.22505 0.0
C908 C 0.07535 0.37265 0.21927 0.0
C909 C 0.07665 0.4349 0.23479 0.0
C910 C 0.08804 0.42782 0.21859 0.0
C911 C 0.08711 0.40757 0.21381 0.0
C912 C 0.1026 0.44062 0.20781 0.0
C913 C 0.07753 0.45627 0.24124 0.0
C914 C 0.09691 0.45815 0.198 0.0
C915 C 0.11123 0.47062 0.18929 0.0
C916 C 0.13147 0.4657 0.19012 0.0
C917 C 0.13693 0.44773 0.19921 0.0
C918 C 0.12271 0.43539 0.20792 0.0
H919 H 0.07129 0.45839 0.25636 0.0
H920 H 0.09304 0.46178 0.24108 0.0
H921 H 0.0688 0.46548 0.23082 0.0
H922 H 0.08145 0.46232 0.1973 0.0
H923 H 0.1065 0.4843 0.18235 0.0
H924 H 0.19239 0.53555 0.77131 0.0
H925 H 0.1725 0.5528 0.74615 0.0
H926 H 0.13715 0.57935 0.79236 0.0
H927 H 0.15657 0.56216 0.81733 0.0
H928 H 0.11464 0.56116 0.76345 0.0
H929 H 0.17076 0.61148 0.72955 0.0
H930 H 0.17714 0.58564 0.73051 0.0
H931 H 0.17461 0.59937 0.75312 0.0
C932 C 0.18055 0.54528 0.77607 0.0
C933 C 0.17605 0.5474 0.79634 0.0
C934 C 0.16923 0.55518 0.76168 0.0
C935 C 0.15337 0.56747 0.76736 0.0
C936 C 0.14926 0.56994 0.78759 0.0
H937 H 0.06075 0.64144 0.72242 0.0
H938 H 0.08464 0.62212 0.74147 0.0
C939 C 0.16044 0.56007 0.80188 0.0
C940 C 0.14017 0.57703 0.75253 0.0
H941 H 0.13843 0.61267 0.71643 0.0
C942 C 0.11989 0.57234 0.75309 0.0
C943 C 0.14701 0.59153 0.73893 0.0
C944 C 0.16853 0.59748 0.73798 0.0
C945 C 0.10624 0.58201 0.74077 0.0
C946 C 0.11295 0.597 0.72767 0.0
C947 C 0.13331 0.60122 0.72655 0.0
C948 C 0.09884 0.60906 0.71584 0.0
C949 C 0.08468 0.57615 0.74195 0.0
C950 C 0.09915 0.6085 0.69505 0.0
C951 C 0.08545 0.61956 0.68405 0.0
C952 C 0.0713 0.63155 0.69367 0.0
C953 C 0.07133 0.63231 0.7145 0.0
C954 C 0.08495 0.62121 0.72544 0.0
H955 H 0.08276 0.56116 0.74853 0.0
H956 H 0.07663 0.58687 0.75147 0.0
H957 H 0.07778 0.57635 0.72705 0.0
H958 H 0.10982 0.5993 0.68733 0.0
H959 H 0.08592 0.6187 0.66803 0.0
H960 H 0.32614 0.09846 0.73764 0.0
H961 H 0.34332 0.12639 0.75306 0.0
H962 H 0.39791 0.10857 0.72486 0.0
H963 H 0.38093 0.08073 0.70934 0.0
H964 H 0.37632 0.12444 0.77866 0.0
H965 H 0.39361 0.16795 0.71096 0.0
H966 H 0.3751 0.1486 0.7115 0.0
H967 H 0.40094 0.14242 0.7094 0.0
C968 C 0.34179 0.10052 0.73466 0.0
C969 C 0.35216 0.08738 0.72222 0.0
C970 C 0.35155 0.1165 0.74346 0.0
C971 C 0.37178 0.11974 0.7398 0.0
C972 C 0.38219 0.10659 0.72751 0.0
H973 H 0.47054 0.18361 0.78035 0.0
H974 H 0.44522 0.16598 0.76181 0.0
C975 C 0.37248 0.09058 0.71879 0.0
C976 C 0.38236 0.13623 0.74959 0.0
H977 H 0.41172 0.1764 0.74018 0.0
C978 C 0.3838 0.13603 0.77032 0.0
C979 C 0.39202 0.15131 0.73862 0.0
C980 C 0.39022 0.15276 0.71639 0.0
C981 C 0.39562 0.14985 0.78032 0.0
C982 C 0.40591 0.16451 0.76928 0.0
C983 C 0.40379 0.16519 0.7486 0.0
C984 C 0.4206 0.17776 0.77871 0.0
C985 C 0.39789 0.1479 0.80249 0.0
C986 C 0.4151 0.19099 0.7938 0.0
C987 C 0.42962 0.2011 0.80454 0.0
C988 C 0.44983 0.19816 0.80028 0.0
C989 C 0.45512 0.18607 0.78416 0.0
C990 C 0.44065 0.17599 0.7735 0.0
H991 H 0.39202 0.13358 0.80816 0.0
H992 H 0.41371 0.14914 0.80676 0.0
H993 H 0.38962 0.16002 0.80989 0.0
H994 H 0.39966 0.19289 0.79776 0.0
H995 H 0.42504 0.21038 0.8168 0.0
H996 H 0.8843 0.47167 0.81585 0.0
H997 H 0.91126 0.45638 0.79718 0.0
H998 H 0.93154 0.51406 0.77832 0.0
H999 H 0.9044 0.52956 0.79708 0.0
H1000 H 0.92534 0.48702 0.74701 0.0
H1001 H 0.97119 0.45297 0.80558 0.0
H1002 H 0.94535 0.44746 0.80872 0.0
H1003 H 0.95378 0.47269 0.81058 0.0
C1004 C 0.89477 0.48115 0.80814 0.0
C1005 C 0.89227 0.50182 0.80802 0.0
C1006 C 0.91024 0.47239 0.79752 0.0
C1007 C 0.92354 0.48407 0.7865 0.0
C1008 C 0.92152 0.50478 0.78685 0.0
H1009 H 1.00521 0.42951 0.6982 0.0
H1010 H 0.9889 0.4556 0.71778 0.0
C1011 C 0.90611 0.51361 0.79769 0.0
C1012 C 0.93819 0.4743 0.77327 0.0
H1013 H 0.97355 0.43818 0.77312 0.0
C1014 C 0.93624 0.47668 0.75267 0.0
C1015 C 0.95243 0.46088 0.78069 0.0
C1016 C 0.95598 0.45848 0.80262 0.0
C1017 C 0.94713 0.4649 0.73933 0.0
C1018 C 0.96042 0.45057 0.74683 0.0
C1019 C 0.96324 0.44909 0.76739 0.0
C1020 C 0.96978 0.43541 0.73394 0.0
C1021 C 0.94345 0.46694 0.7174 0.0
C1022 C 0.96436 0.41552 0.73644 0.0
C1023 C 0.97357 0.40072 0.72538 0.0
C1024 C 0.98853 0.40541 0.71156 0.0
C1025 C 0.99366 0.42543 0.70864 0.0
C1026 C 0.98437 0.44034 0.71981 0.0
H1027 H 0.93096 0.47714 0.71414 0.0
H1028 H 0.95698 0.47281 0.71003 0.0
H1029 H 0.94018 0.45224 0.71084 0.0
H1030 H 0.95309 0.4114 0.74719 0.0
H1031 H 0.96917 0.3855 0.72799 0.0
H1032 H 0.68661 0.96296 0.75152 0.0
H1033 H 0.66414 0.94303 0.77218 0.0
H1034 H 0.64969 0.99463 0.80678 0.0
H1035 H 0.67202 0.01465 0.78632 0.0
H1036 H 0.66131 0.93711 0.8157 0.0
H1037 H 0.59584 0.97519 0.78337 0.0
H1038 H 0.62006 0.97621 0.77194 0.0
H1039 H 0.61479 0.99085 0.79349 0.0
C1040 C 0.67894 0.97001 0.76374 0.0
C1041 C 0.68104 0.99047 0.76712 0.0
C1042 C 0.66606 0.9586 0.77551 0.0
C1043 C 0.65498 0.96743 0.79079 0.0
C1044 C 0.65785 0.98758 0.79487 0.0
H1045 H 0.55226 0.91911 0.85603 0.0
H1046 H 0.57931 0.94121 0.8454 0.0
C1047 C 0.67074 0.99898 0.78319 0.0
C1048 C 0.63968 0.95583 0.80173 0.0
H1049 H 0.58959 0.95086 0.80762 0.0
C1050 C 0.64563 0.94015 0.81401 0.0
C1051 C 0.61923 0.95994 0.79966 0.0
C1052 C 0.61197 0.97636 0.78632 0.0
C1053 C 0.63167 0.92836 0.82417 0.0
C1054 C 0.61116 0.93202 0.82158 0.0
C1055 C 0.60526 0.94805 0.80968 0.0
C1056 C 0.5956 0.91849 0.82966 0.0
C1057 C 0.63907 0.91216 0.83769 0.0
C1058 C 0.5957 0.89841 0.82439 0.0
C1059 C 0.58039 0.88583 0.83047 0.0
C1060 C 0.5644 0.89301 0.84183 0.0
C1061 C 0.5644 0.91307 0.84741 0.0
C1062 C 0.57983 0.92572 0.84129 0.0
H1063 H 0.65406 0.91565 0.84345 0.0
H1064 H 0.62887 0.90977 0.85045 0.0
H1065 H 0.64018 0.89813 0.82923 0.0
H1066 H 0.60735 0.89253 0.81501 0.0
H1067 H 0.5809 0.8705 0.8258 0.0
H1068 H 0.96349 0.6644 0.31475 0.0
H1069 H 0.94081 0.64337 0.29596 0.0
H1070 H 0.97626 0.65208 0.24333 0.0
H1071 H 0.99907 0.67305 0.26196 0.0
H1072 H 0.91899 0.65294 0.26042 0.0
H1073 H 0.97218 0.59092 0.24921 0.0
H1074 H 0.9759 0.60983 0.2677 0.0
H1075 H 0.98057 0.61521 0.24203 0.0
C1076 C 0.96645 0.6619 0.29917 0.0
C1077 C 0.98316 0.67035 0.2899 0.0
C1078 C 0.95347 0.64988 0.28846 0.0
C1079 C 0.95702 0.64595 0.26833 0.0
C1080 C 0.97344 0.65466 0.25892 0.0
H1081 H 0.88979 0.56443 0.19146 0.0
H1082 H 0.91418 0.58915 0.20247 0.0
C1083 C 0.98639 0.66674 0.2696 0.0
C1084 C 0.94346 0.63275 0.25727 0.0
H1085 H 0.94041 0.58725 0.23541 0.0
C1086 C 0.92369 0.63863 0.25484 0.0
C1087 C 0.9497 0.61418 0.24983 0.0
C1088 C 0.9707 0.607 0.25238 0.0
C1089 C 0.90988 0.62628 0.2455 0.0
C1090 C 0.91591 0.60736 0.23878 0.0
C1091 C 0.93584 0.60176 0.24056 0.0
C1092 C 0.90134 0.59253 0.23172 0.0
C1093 C 0.8889 0.63355 0.24304 0.0
C1094 C 0.88636 0.586 0.24461 0.0
C1095 C 0.87255 0.572 0.23844 0.0
C1096 C 0.87344 0.56404 0.2192 0.0
C1097 C 0.88866 0.57034 0.20632 0.0
C1098 C 0.90258 0.58444 0.21258 0.0
H1099 H 0.8882 0.64999 0.24301 0.0
H1100 H 0.88232 0.62798 0.22908 0.0
H1101 H 0.87974 0.62811 0.25564 0.0
H1102 H 0.8854 0.59167 0.25959 0.0
H1103 H 0.86116 0.56742 0.24885 0.0
H1104 H 0.35816 0.9954 0.28916 0.0
H1105 H 0.37141 0.97066 0.26588 0.0
H1106 H 0.39455 0.93692 0.31495 0.0
H1107 H 0.38172 0.96151 0.33803 0.0
H1108 H 0.42296 0.94765 0.28707 0.0
H1109 H 0.35784 0.91283 0.251 0.0
H1110 H 0.35821 0.93947 0.25119 0.0
H1111 H 0.35594 0.92612 0.27414 0.0
C1112 C 0.3656 0.98241 0.29493 0.0
C1113 C 0.36906 0.98044 0.31536 0.0
C1114 C 0.37314 0.96828 0.28165 0.0
C1115 C 0.38395 0.95192 0.28871 0.0
C1116 C 0.3863 0.94943 0.30918 0.0
H1117 H 0.46393 0.86343 0.23928 0.0
H1118 H 0.4414 0.88198 0.26097 0.0
C1119 C 0.37897 0.96352 0.32235 0.0
C1120 C 0.39491 0.93863 0.27502 0.0
H1121 H 0.38958 0.9043 0.23832 0.0
C1122 C 0.41564 0.93809 0.27648 0.0
C1123 C 0.38534 0.92632 0.26112 0.0
C1124 C 0.36309 0.92601 0.25928 0.0
C1125 C 0.42711 0.92568 0.26439 0.0
C1126 C 0.41757 0.91312 0.25068 0.0
C1127 C 0.39683 0.91378 0.24901 0.0
C1128 C 0.42912 0.89992 0.2374 0.0
C1129 C 0.44939 0.9265 0.26608 0.0
C1130 C 0.42899 0.90321 0.21689 0.0
C1131 C 0.44173 0.89259 0.20448 0.0
C1132 C 0.45484 0.87841 0.21233 0.0
C1133 C 0.45412 0.87432 0.23277 0.0
C1134 C 0.44133 0.88497 0.24519 0.0
H1135 H 0.45443 0.94009 0.27381 0.0
H1136 H 0.4546 0.9135 0.27471 0.0
H1137 H 0.45652 0.92601 0.25122 0.0
H1138 H 0.41962 0.9146 0.21057 0.0
H1139 H 0.44177 0.89601 0.18879 0.0
H1140 H 0.67091 0.08201 0.30795 0.0
H1141 H 0.65383 0.11057 0.29388 0.0
H1142 H 0.60773 0.10492 0.33803 0.0
H1143 H 0.62461 0.07602 0.35209 0.0
H1144 H 0.59309 0.10945 0.30055 0.0
H1145 H 0.64982 0.16684 0.3144 0.0
H1146 H 0.65984 0.14581 0.30164 0.0
H1147 H 0.65026 0.14291 0.32643 0.0
C1148 C 0.65721 0.08688 0.31479 0.0
C1149 C 0.64916 0.07673 0.33119 0.0
C1150 C 0.64754 0.10335 0.30681 0.0
C1151 C 0.62972 0.11016 0.31516 0.0
C1152 C 0.62158 0.10004 0.33149 0.0
H1153 H 0.54941 0.19905 0.26261 0.0
H1154 H 0.56534 0.17861 0.28811 0.0
C1155 C 0.63123 0.08351 0.33948 0.0
C1156 C 0.61908 0.12708 0.30597 0.0
H1157 H 0.62546 0.17462 0.28961 0.0
C1158 C 0.59999 0.12384 0.29849 0.0
C1159 C 0.62808 0.14586 0.30336 0.0
C1160 C 0.64805 0.15065 0.31207 0.0
C1161 C 0.59015 0.13846 0.28743 0.0
C1162 C 0.59956 0.15692 0.28404 0.0
C1163 C 0.61828 0.16046 0.29224 0.0
C1164 C 0.59113 0.17177 0.27022 0.0
C1165 C 0.57025 0.13366 0.27854 0.0
C1166 C 0.60083 0.17549 0.25217 0.0
C1167 C 0.59185 0.18717 0.23767 0.0
C1168 C 0.57303 0.19547 0.24099 0.0
C1169 C 0.56393 0.19288 0.25962 0.0
C1170 C 0.57292 0.18107 0.27414 0.0
H1171 H 0.5665 0.11769 0.27992 0.0
H1172 H 0.55857 0.1423 0.28627 0.0
H1173 H 0.56996 0.13784 0.26261 0.0
H1174 H 0.61493 0.16853 0.24889 0.0
H1175 H 0.5993 0.18897 0.22352 0.0
H1176 H 0.70762 0.96254 0.66065 0.0
H1177 H 0.72318 0.94294 0.63403 0.0
H1178 H 0.77609 0.97851 0.63854 0.0
H1179 H 0.76107 0.99729 0.66547 0.0
H1180 H 0.73858 0.95021 0.59803 0.0
H1181 H 0.79888 0.9246 0.6468 0.0
H1182 H 0.77752 0.93762 0.65621 0.0
H1183 H 0.79813 0.9511 0.64568 0.0
C1184 C 0.72251 0.96617 0.6558 0.0
C1185 C 0.73329 0.98114 0.66531 0.0
C1186 C 0.73141 0.95498 0.64065 0.0
C1187 C 0.75109 0.95881 0.63472 0.0
C1188 C 0.76123 0.97472 0.64334 0.0
H1189 H 0.80946 0.91706 0.52704 0.0
H1190 H 0.79177 0.93621 0.55228 0.0
C1191 C 0.75255 0.98554 0.65865 0.0
C1192 C 0.76135 0.94611 0.61987 0.0
H1193 H 0.80413 0.92022 0.61202 0.0
C1194 C 0.75283 0.94349 0.60113 0.0
C1195 C 0.77976 0.93693 0.62401 0.0
C1196 C 0.78898 0.93752 0.64434 0.0
C1197 C 0.76247 0.93247 0.58626 0.0
C1198 C 0.78151 0.92443 0.59 0.0
C1199 C 0.78973 0.92663 0.60894 0.0
C1200 C 0.79302 0.91327 0.57477 0.0
C1201 C 0.7519 0.92926 0.56689 0.0
C1202 C 0.80071 0.89444 0.57927 0.0
C1203 C 0.81141 0.88376 0.56507 0.0
C1204 C 0.81446 0.89155 0.54595 0.0
C1205 C 0.80722 0.91059 0.54159 0.0
C1206 C 0.79686 0.92145 0.55594 0.0
H1207 H 0.73558 0.93053 0.56873 0.0
H1208 H 0.75666 0.94078 0.5561 0.0
H1209 H 0.75532 0.91447 0.56058 0.0
H1210 H 0.79813 0.88781 0.59369 0.0
H1211 H 0.81668 0.86909 0.5689 0.0
H1212 H 0.19364 0.78284 0.53622 0.0
H1213 H 0.17299 0.75927 0.55454 0.0
H1214 H 0.18246 0.79218 0.60832 0.0
H1215 H 0.20283 0.81611 0.59006 0.0
H1216 H 0.17778 0.73498 0.58789 0.0
H1217 H 0.12235 0.79433 0.60155 0.0
H1218 H 0.14271 0.79735 0.58438 0.0
H1219 H 0.14675 0.79964 0.61059 0.0
C1220 C 0.19164 0.78491 0.55202 0.0
C1221 C 0.19964 0.80155 0.56162 0.0
C1222 C 0.17981 0.77141 0.56246 0.0
C1223 C 0.1758 0.77427 0.58267 0.0
C1224 C 0.18498 0.78999 0.59261 0.0
H1225 H 0.09066 0.71742 0.66202 0.0
H1226 H 0.118 0.73697 0.64821 0.0
C1227 C 0.19673 0.80358 0.58217 0.0
C1228 C 0.16096 0.7616 0.59292 0.0
H1229 H 0.11558 0.763 0.61553 0.0
C1230 C 0.1642 0.74109 0.59399 0.0
C1231 C 0.1432 0.76962 0.60075 0.0
C1232 C 0.13838 0.79141 0.59915 0.0
C1233 C 0.1502 0.72838 0.60282 0.0
C1234 C 0.13241 0.7364 0.61053 0.0
C1235 C 0.12928 0.75692 0.60966 0.0
C1236 C 0.11653 0.72378 0.61908 0.0
C1237 C 0.1546 0.7065 0.604 0.0
C1238 C 0.10654 0.71002 0.60721 0.0
C1239 C 0.09085 0.69888 0.61502 0.0
C1240 C 0.08483 0.70135 0.63485 0.0
C1241 C 0.09493 0.71513 0.64671 0.0
C1242 C 0.11057 0.7263 0.63885 0.0
H1243 H 0.17067 0.70342 0.60214 0.0
H1244 H 0.14955 0.70022 0.61839 0.0
H1245 H 0.14656 0.69875 0.592 0.0
H1246 H 0.11065 0.70816 0.59179 0.0
H1247 H 0.08337 0.68845 0.60547 0.0
H1248 H 0.18502 0.16596 0.55491 0.0
H1249 H 0.19557 0.14306 0.58131 0.0
H1250 H 0.25614 0.16167 0.57281 0.0
H1251 H 0.24591 0.18436 0.54679 0.0
H1252 H 0.22449 0.11142 0.57885 0.0
H1253 H 0.24654 0.1689 0.63279 0.0
H1254 H 0.2305 0.17407 0.61206 0.0
H1255 H 0.25691 0.17288 0.60855 0.0
C1256 C 0.20056 0.16517 0.55874 0.0
C1257 C 0.21459 0.17708 0.54881 0.0
C1258 C 0.20655 0.15211 0.57379 0.0
C1259 C 0.22659 0.15097 0.57924 0.0
C1260 C 0.24056 0.16263 0.56914 0.0
H1261 H 0.31093 0.08772 0.64712 0.0
H1262 H 0.29136 0.10994 0.6263 0.0
C1263 C 0.23465 0.17554 0.55416 0.0
C1264 C 0.23337 0.13731 0.59506 0.0
H1265 H 0.26016 0.13643 0.63783 0.0
C1266 C 0.23195 0.11682 0.59197 0.0
C1267 C 0.24308 0.14445 0.61214 0.0
C1268 C 0.2442 0.16628 0.61672 0.0
C1269 C 0.24103 0.10328 0.60494 0.0
C1270 C 0.25156 0.1105 0.62151 0.0
C1271 C 0.2522 0.13095 0.62504 0.0
C1272 C 0.26309 0.0972 0.63463 0.0
C1273 C 0.24019 0.08145 0.60028 0.0
C1274 C 0.25364 0.08288 0.64647 0.0
C1275 C 0.26479 0.07016 0.65844 0.0
C1276 C 0.2856 0.07156 0.65879 0.0
C1277 C 0.29495 0.08619 0.64717 0.0
C1278 C 0.28379 0.09891 0.63527 0.0
H1279 H 0.23453 0.07862 0.58513 0.0
H1280 H 0.25511 0.07466 0.60166 0.0
H1281 H 0.23019 0.07396 0.61105 0.0
H1282 H 0.23765 0.08153 0.64643 0.0
H1283 H 0.25711 0.0591 0.66724 0.0
H1284 H 0.87104 0.23945 0.56119 0.0
H1285 H 0.88801 0.26556 0.58 0.0
H1286 H 0.92188 0.22113 0.61089 0.0
H1287 H 0.90526 0.19518 0.59227 0.0
H1288 H 0.89301 0.27183 0.62285 0.0
H1289 H 0.96398 0.257 0.58369 0.0
H1290 H 0.94043 0.24823 0.57466 0.0
H1291 H 0.95262 0.23546 0.59457 0.0
C1292 C 0.88192 0.23527 0.57217 0.0
C1293 C 0.88696 0.21525 0.57505 0.0
C1294 C 0.89161 0.25018 0.58287 0.0
C1295 C 0.90647 0.24526 0.59655 0.0
C1296 C 0.91075 0.22527 0.60013 0.0
H1297 H 0.99401 0.30662 0.66722 0.0
H1298 H 0.972 0.2822 0.65196 0.0
C1299 C 0.90117 0.21044 0.58947 0.0
C1300 C 0.9182 0.26085 0.6066 0.0
H1301 H 0.96545 0.27822 0.61157 0.0
C1302 C 0.90881 0.27336 0.62031 0.0
C1303 C 0.93883 0.26277 0.60327 0.0
C1304 C 0.94958 0.25029 0.58812 0.0
C1305 C 0.91965 0.28741 0.63118 0.0
C1306 C 0.94034 0.28914 0.628 0.0
C1307 C 0.94964 0.27676 0.61412 0.0
C1308 C 0.95268 0.30396 0.63855 0.0
C1309 C 0.90896 0.29988 0.64634 0.0
C1310 C 0.94912 0.32429 0.6361 0.0
C1311 C 0.96165 0.33825 0.6448 0.0
C1312 C 0.9781 0.33219 0.65603 0.0
C1313 C 0.98146 0.3118 0.65872 0.0
C1314 C 0.96891 0.29783 0.64999 0.0
H1315 H 0.89457 0.29318 0.65079 0.0
H1316 H 0.91814 0.30194 0.65979 0.0
H1317 H 0.90591 0.3147 0.6399 0.0
H1318 H 0.93697 0.32939 0.627 0.0
H1319 H 0.95864 0.35382 0.64235 0.0
H1320 H 0.73427 0.07426 0.37454 0.0
H1321 H 0.75165 0.09671 0.39682 0.0
H1322 H 0.70829 0.08515 0.44257 0.0
H1323 H 0.69088 0.0624 0.42042 0.0
H1324 H 0.73783 0.13114 0.41592 0.0
H1325 H 0.76106 0.07355 0.47024 0.0
H1326 H 0.75186 0.06739 0.44596 0.0
H1327 H 0.73498 0.07487 0.46518 0.0
C1328 C 0.72842 0.07642 0.38935 0.0
C1329 C 0.71124 0.0664 0.39572 0.0
C1330 C 0.73835 0.08932 0.40206 0.0
C1331 C 0.73141 0.09245 0.42143 0.0
C1332 C 0.71411 0.08271 0.42779 0.0
H1333 H 0.79535 0.15845 0.51387 0.0
H1334 H 0.76763 0.14272 0.49639 0.0
C1335 C 0.70413 0.06977 0.41508 0.0
C1336 C 0.74248 0.10584 0.43485 0.0
H1337 H 0.7711 0.10627 0.47646 0.0
C1338 C 0.74495 0.12575 0.42926 0.0
C1339 C 0.75165 0.09883 0.45234 0.0
C1340 C 0.74994 0.07747 0.4588 0.0
C1341 C 0.75678 0.13869 0.44038 0.0
C1342 C 0.76664 0.13147 0.45737 0.0
C1343 C 0.76347 0.1118 0.46346 0.0
C1344 C 0.78204 0.14325 0.46766 0.0
C1345 C 0.75884 0.15993 0.43367 0.0
C1346 C 0.79919 0.14894 0.45729 0.0
C1347 C 0.81496 0.15779 0.4672 0.0
C1348 C 0.81397 0.16116 0.48773 0.0
C1349 C 0.79647 0.15622 0.49802 0.0
C1350 C 0.78068 0.14715 0.48808 0.0
H1351 H 0.74583 0.16473 0.42485 0.0
H1352 H 0.76053 0.17006 0.44649 0.0
H1353 H 0.7722 0.16136 0.42411 0.0
H1354 H 0.80076 0.14575 0.44164 0.0
H1355 H 0.82824 0.1614 0.45885 0.0
H1356 H 0.96434 0.76467 0.33741 0.0
H1357 H 0.9466 0.78673 0.36028 0.0
H1358 H 0.96988 0.75414 0.40999 0.0
H1359 H 0.98753 0.73206 0.38742 0.0
H1360 H 0.91804 0.77496 0.39141 0.0
H1361 H 0.9842 0.8135 0.42095 0.0
H1362 H 0.98449 0.80027 0.39771 0.0
H1363 H 0.98586 0.78692 0.42073 0.0
C1364 C 0.96566 0.76218 0.35321 0.0
C1365 C 0.97738 0.7466 0.36056 0.0
C1366 C 0.95554 0.77481 0.36623 0.0
C1367 C 0.9572 0.77224 0.3868 0.0
C1368 C 0.96868 0.75658 0.39417 0.0
H1369 H 0.91307 0.81456 0.49688 0.0
H1370 H 0.93217 0.80175 0.46897 0.0
C1371 C 0.97865 0.74388 0.38121 0.0
C1372 C 0.94656 0.78547 0.40075 0.0
H1373 H 0.954 0.81773 0.43888 0.0
C1374 C 0.92582 0.78456 0.40162 0.0
C1375 C 0.95682 0.79791 0.41403 0.0
C1376 C 0.97907 0.79991 0.41328 0.0
C1377 C 0.91509 0.795 0.41612 0.0
C1378 C 0.92538 0.8071 0.42977 0.0
C1379 C 0.94611 0.80851 0.42841 0.0
C1380 C 0.91509 0.817 0.44657 0.0
C1381 C 0.89293 0.79211 0.41732 0.0
C1382 C 0.89963 0.83055 0.44336 0.0
C1383 C 0.88853 0.83784 0.45935 0.0
C1384 C 0.89286 0.83188 0.47886 0.0
C1385 C 0.90924 0.81941 0.48207 0.0
C1386 C 0.9202 0.81204 0.4661 0.0
H1387 H 0.888 0.77896 0.40879 0.0
H1388 H 0.88799 0.7903 0.43295 0.0
H1389 H 0.88543 0.80532 0.41106 0.0
H1390 H 0.89577 0.83503 0.42845 0.0
H1391 H 0.87612 0.84754 0.45635 0.0
H1392 H 0.35173 0.9971 0.41399 0.0
H1393 H 0.34479 0.97031 0.43801 0.0
H1394 H 0.31522 0.93715 0.39234 0.0
H1395 H 0.322 0.96342 0.36862 0.0
H1396 H 0.30625 0.95668 0.4483 0.0
H1397 H 0.35078 0.8953 0.41778 0.0
H1398 H 0.35567 0.92096 0.41172 0.0
H1399 H 0.33674 0.90742 0.39879 0.0
C1400 C 0.34403 0.98392 0.40909 0.0
C1401 C 0.33733 0.9824 0.38946 0.0
C1402 C 0.34008 0.96867 0.42279 0.0
C1403 C 0.3298 0.95158 0.41686 0.0
C1404 C 0.32357 0.94996 0.39716 0.0
H1405 H 0.25297 0.86081 0.4437 0.0
H1406 H 0.27822 0.88369 0.43139 0.0
C1407 C 0.32729 0.96514 0.38364 0.0
C1408 C 0.3236 0.93608 0.43124 0.0
H1409 H 0.3209 0.88576 0.43587 0.0
C1410 C 0.3099 0.9412 0.44607 0.0
C1411 C 0.32841 0.9159 0.4283 0.0
C1412 C 0.34388 0.90959 0.4134 0.0
C1413 C 0.29953 0.92656 0.45677 0.0
C1414 C 0.3032 0.90634 0.45265 0.0
C1415 C 0.31801 0.90127 0.43891 0.0
C1416 C 0.28998 0.8905 0.46034 0.0
C1417 C 0.28364 0.93283 0.47127 0.0
C1418 C 0.2887 0.88618 0.48066 0.0
C1419 C 0.27425 0.873 0.48778 0.0
C1420 C 0.26084 0.86401 0.47465 0.0
C1421 C 0.26297 0.86754 0.45422 0.0
C1422 C 0.27743 0.88061 0.44714 0.0
H1423 H 0.28099 0.94907 0.47093 0.0
H1424 H 0.26949 0.92512 0.468 0.0
H1425 H 0.28814 0.92863 0.4865 0.0
H1426 H 0.29843 0.89347 0.49106 0.0
H1427 H 0.27301 0.87061 0.50361 0.0
H1428 H 0.16345 0.26334 0.44958 0.0
H1429 H 0.13661 0.28326 0.43627 0.0
H1430 H 0.09479 0.25268 0.47395 0.0
H1431 H 0.12186 0.23245 0.48764 0.0
H1432 H 0.08346 0.25829 0.43192 0.0
H1433 H 0.10748 0.32783 0.46812 0.0
H1434 H 0.12712 0.31489 0.45558 0.0
H1435 H 0.11514 0.30361 0.47664 0.0
C1436 C 0.14857 0.2607 0.45508 0.0
C1437 C 0.14483 0.24636 0.4698 0.0
C1438 C 0.13325 0.27223 0.44749 0.0
C1439 C 0.11383 0.26973 0.45443 0.0
C1440 C 0.10977 0.25495 0.46859 0.0
H1441 H 0.02093 0.35273 0.4153 0.0
H1442 H 0.04231 0.33279 0.43687 0.0
C1443 C 0.12521 0.24337 0.47632 0.0
C1444 C 0.09798 0.28259 0.44644 0.0
H1445 H 0.08557 0.3313 0.44043 0.0
C1446 C 0.08367 0.27421 0.43405 0.0
C1447 C 0.09818 0.30334 0.44941 0.0
C1448 C 0.11269 0.31298 0.46331 0.0
C1449 C 0.07028 0.28619 0.42359 0.0
C1450 C 0.07142 0.30704 0.42549 0.0
C1451 C 0.08492 0.31533 0.43882 0.0
C1452 C 0.05953 0.3204 0.4128 0.0
C1453 C 0.05529 0.27649 0.41025 0.0
C1454 C 0.06275 0.32066 0.39227 0.0
C1455 C 0.05075 0.33211 0.37996 0.0
C1456 C 0.03523 0.34355 0.38794 0.0
C1457 C 0.03273 0.3441 0.40866 0.0
C1458 C 0.04485 0.33264 0.421 0.0
H1459 H 0.05284 0.26071 0.41433 0.0
H1460 H 0.04088 0.28441 0.41086 0.0
H1461 H 0.0608 0.27701 0.39473 0.0
H1462 H 0.0743 0.31162 0.38571 0.0
H1463 H 0.05321 0.33141 0.3641 0.0
H1464 H 0.64893 0.72693 0.96361 0.0
H1465 H 0.62856 0.74538 0.9399 0.0
H1466 H 0.57756 0.71072 0.95696 0.0
H1467 H 0.59767 0.69232 0.98072 0.0
H1468 H 0.60399 0.73167 0.90726 0.0
H1469 H 0.56072 0.76899 0.96663 0.0
H1470 H 0.58395 0.75663 0.97132 0.0
H1471 H 0.56162 0.74245 0.96847 0.0
C1472 C 0.6334 0.72317 0.96226 0.0
C1473 C 0.6249 0.70826 0.97421 0.0
C1474 C 0.6218 0.73369 0.94867 0.0
C1475 C 0.6015 0.72959 0.94688 0.0
C1476 C 0.59313 0.71432 0.95833 0.0
H1477 H 0.50344 0.78704 0.8875 0.0
H1478 H 0.52471 0.76332 0.90462 0.0
C1479 C 0.60469 0.70378 0.97187 0.0
C1480 C 0.58888 0.74166 0.93355 0.0
H1481 H 0.55001 0.77399 0.93376 0.0
C1482 C 0.5922 0.74097 0.913 0.0
C1483 C 0.57352 0.75377 0.94111 0.0
C1484 C 0.56977 0.75571 0.96309 0.0
C1485 C 0.58029 0.7518 0.89977 0.0
C1486 C 0.56491 0.7639 0.90735 0.0
C1487 C 0.56169 0.7646 0.92792 0.0
C1488 C 0.55221 0.77645 0.89446 0.0
C1489 C 0.58403 0.74986 0.87781 0.0
C1490 C 0.56056 0.79147 0.88262 0.0
C1491 C 0.54841 0.805 0.87267 0.0
C1492 C 0.52765 0.80393 0.87458 0.0
C1493 C 0.51934 0.78833 0.88571 0.0
C1494 C 0.5315 0.77477 0.89556 0.0
H1495 H 0.59206 0.73594 0.87425 0.0
H1496 H 0.56994 0.75014 0.8694 0.0
H1497 H 0.59333 0.76245 0.8727 0.0
H1498 H 0.57648 0.79334 0.88184 0.0
H1499 H 0.55533 0.81689 0.86433 0.0
H1500 H 0.27807 0.68404 0.96408 0.0
H1501 H 0.2643 0.65718 0.94454 0.0
H1502 H 0.31085 0.61828 0.96438 0.0
H1503 H 0.32499 0.64538 0.98409 0.0
H1504 H 0.30325 0.61601 0.92341 0.0
H1505 H 0.23368 0.60951 0.9667 0.0
H1506 H 0.2385 0.63447 0.9588 0.0
H1507 H 0.25516 0.62253 0.9758 0.0
C1508 C 0.28547 0.66981 0.96434 0.0
C1509 C 0.30258 0.66683 0.97579 0.0
C1510 C 0.27746 0.65441 0.95324 0.0
C1511 C 0.28625 0.63561 0.95339 0.0
C1512 C 0.3037 0.63265 0.96427 0.0
H1513 H 0.22406 0.53667 0.89543 0.0
H1514 H 0.2406 0.55685 0.92065 0.0
C1515 C 0.31179 0.64814 0.97545 0.0
C1516 C 0.27725 0.61938 0.9417 0.0
H1517 H 0.23335 0.59545 0.93398 0.0
C1518 C 0.28807 0.61128 0.92589 0.0
C1519 C 0.25755 0.61295 0.94516 0.0
C1520 C 0.24561 0.62016 0.96267 0.0
C1521 C 0.27933 0.59779 0.91275 0.0
C1522 C 0.25916 0.59255 0.91533 0.0
C1523 C 0.24871 0.59972 0.93183 0.0
C1524 C 0.24841 0.58058 0.90044 0.0
C1525 C 0.29171 0.58948 0.89606 0.0
C1526 C 0.2467 0.58757 0.88093 0.0
C1527 C 0.23725 0.57618 0.86658 0.0
C1528 C 0.22915 0.55757 0.87144 0.0
C1529 C 0.23013 0.55094 0.89121 0.0
C1530 C 0.23965 0.56239 0.9056 0.0
H1531 H 0.30777 0.59 0.89958 0.0
H1532 H 0.28752 0.57392 0.8928 0.0
H1533 H 0.28931 0.59849 0.8825 0.0
H1534 H 0.25287 0.6018 0.87674 0.0
H1535 H 0.23663 0.58183 0.85156 0.0
H1536 H 0.42462 0.3141 0.99052 0.0
H1537 H 0.43376 0.28496 0.97145 0.0
H1538 H 0.37217 0.27348 0.95929 0.0
H1539 H 0.36279 0.3031 0.97829 0.0
H1540 H 0.4235 0.24502 0.97572 0.0
H1541 H 0.39748 0.2761 0.90386 0.0
H1542 H 0.40027 0.29123 0.92566 0.0
H1543 H 0.37954 0.27471 0.92359 0.0
C1544 C 0.41293 0.30542 0.98387 0.0
C1545 C 0.39295 0.31107 0.9858 0.0
C1546 C 0.41821 0.28867 0.97302 0.0
C1547 C 0.4037 0.27716 0.96374 0.0
C1548 C 0.38365 0.28234 0.96607 0.0
H1549 H 0.43301 0.18733 0.87431 0.0
H1550 H 0.41386 0.20502 0.89957 0.0
C1551 C 0.3783 0.2992 0.97701 0.0
C1552 C 0.41002 0.26025 0.95116 0.0
H1553 H 0.41419 0.24572 0.90288 0.0
C1554 C 0.42123 0.24501 0.95982 0.0
C1555 C 0.40701 0.26022 0.93042 0.0
C1556 C 0.39555 0.27647 0.92021 0.0
C1557 C 0.43007 0.23014 0.94824 0.0
C1558 C 0.4279 0.23069 0.92742 0.0
C1559 C 0.41586 0.24533 0.91886 0.0
C1560 C 0.43947 0.21754 0.91405 0.0
C1561 C 0.44194 0.21418 0.9584 0.0
C1562 C 0.46025 0.21839 0.914 0.0
C1563 C 0.47124 0.20831 0.8996 0.0
C1564 C 0.46167 0.19724 0.88484 0.0
C1565 C 0.44088 0.19563 0.88549 0.0
C1566 C 0.42989 0.2058 0.89989 0.0
H1567 H 0.43689 0.21192 0.97394 0.0
H1568 H 0.44086 0.19988 0.95038 0.0
H1569 H 0.45775 0.21869 0.95878 0.0
H1570 H 0.46798 0.22767 0.9245 0.0
H1571 H 0.48721 0.20997 0.89951 0.0
H1572 H 0.73451 0.37642 0.94237 0.0
H1573 H 0.75234 0.39752 0.91877 0.0
H1574 H 0.70977 0.4442 0.92826 0.0
H1575 H 0.69208 0.42339 0.95224 0.0
H1576 H 0.74146 0.41659 0.88381 0.0
H1577 H 0.76219 0.4705 0.94225 0.0
H1578 H 0.75166 0.44658 0.94796 0.0
H1579 H 0.73603 0.46651 0.93975 0.0
C1580 C 0.72887 0.39115 0.93938 0.0
C1581 C 0.71203 0.39834 0.94938 0.0
C1582 C 0.73905 0.40315 0.92583 0.0
C1583 C 0.73255 0.42252 0.92201 0.0
C1584 C 0.71525 0.42944 0.93131 0.0
H1585 H 0.78649 0.50096 0.83213 0.0
H1586 H 0.76303 0.479 0.84944 0.0
C1587 C 0.70514 0.4175 0.94497 0.0
C1588 C 0.74449 0.43572 0.90908 0.0
H1589 H 0.77209 0.47806 0.90959 0.0
C1590 C 0.7481 0.43009 0.88937 0.0
C1591 C 0.75328 0.45321 0.91649 0.0
C1592 C 0.75078 0.45952 0.93781 0.0
C1593 C 0.76048 0.4414 0.8769 0.0
C1594 C 0.76919 0.4589 0.88433 0.0
C1595 C 0.7653 0.46467 0.90393 0.0
C1596 C 0.78352 0.47085 0.87266 0.0
C1597 C 0.7647 0.43418 0.85617 0.0
C1598 C 0.80274 0.47351 0.87996 0.0
C1599 C 0.81599 0.48613 0.87029 0.0
C1600 C 0.81033 0.49634 0.85305 0.0
C1601 C 0.79128 0.49318 0.84532 0.0
C1602 C 0.77791 0.48061 0.85515 0.0
H1603 H 0.76028 0.41846 0.85419 0.0
H1604 H 0.75623 0.44331 0.84546 0.0
H1605 H 0.78069 0.4357 0.85252 0.0
H1606 H 0.80738 0.46609 0.89342 0.0
H1607 H 0.83059 0.48813 0.87657 0.0
H1608 H 0.6198 0.32995 0.02609 0.0
H1609 H 0.60287 0.30965 0.05099 0.0
H1610 H 0.65906 0.28678 0.07074 0.0
H1611 H 0.67618 0.3069 0.04568 0.0
H1612 H 0.62859 0.25742 0.06687 0.0
H1613 H 0.60398 0.32263 0.11058 0.0
H1614 H 0.59722 0.3233 0.08488 0.0
H1615 H 0.62291 0.32428 0.09166 0.0
C1616 C 0.6286 0.32062 0.03571 0.0
C1617 C 0.64938 0.3202 0.03401 0.0
C1618 C 0.61888 0.30904 0.04994 0.0
C1619 C 0.62973 0.29691 0.06284 0.0
C1620 C 0.65043 0.29609 0.06093 0.0
H1621 H 0.5909 0.25299 0.17587 0.0
H1622 H 0.60909 0.26676 0.14775 0.0
C1623 C 0.66018 0.30766 0.04667 0.0
C1624 C 0.61953 0.28558 0.07874 0.0
H1625 H 0.59169 0.29142 0.12064 0.0
C1626 C 0.62051 0.2648 0.07865 0.0
C1627 C 0.60917 0.2953 0.09416 0.0
C1628 C 0.60835 0.31761 0.09551 0.0
C1629 C 0.61129 0.25345 0.0936 0.0
C1630 C 0.60069 0.26319 0.10885 0.0
C1631 C 0.59974 0.28397 0.10887 0.0
C1632 C 0.59115 0.25241 0.12554 0.0
C1633 C 0.61332 0.23121 0.09323 0.0
C1634 C 0.57528 0.23931 0.12241 0.0
C1635 C 0.56487 0.23123 0.13857 0.0
C1636 C 0.57005 0.23639 0.15803 0.0
C1637 C 0.58644 0.24885 0.16105 0.0
C1638 C 0.59687 0.25674 0.14499 0.0
H1639 H 0.62549 0.22636 0.0832 0.0
H1640 H 0.61616 0.2253 0.10832 0.0
H1641 H 0.5993 0.2246 0.08784 0.0
H1642 H 0.5704 0.23601 0.10751 0.0
H1643 H 0.55221 0.22178 0.13581 0.0
H1644 H 0.80262 0.5966 0.18495 0.0
H1645 H 0.7783 0.61414 0.16481 0.0
H1646 H 0.74817 0.55904 0.15333 0.0
H1647 H 0.77228 0.5414 0.17378 0.0
H1648 H 0.77513 0.60608 0.12536 0.0
H1649 H 0.70188 0.59683 0.16192 0.0
H1650 H 0.72494 0.5927 0.17476 0.0
H1651 H 0.71523 0.57408 0.15848 0.0
C1652 C 0.7905 0.58827 0.17861 0.0
C1653 C 0.78946 0.56758 0.18086 0.0
C1654 C 0.77662 0.59833 0.16708 0.0
C1655 C 0.76139 0.58793 0.15757 0.0
C1656 C 0.75957 0.56744 0.16079 0.0
H1657 H 0.68305 0.61564 0.0598 0.0
H1658 H 0.70105 0.59995 0.08706 0.0
C1659 C 0.77341 0.55735 0.17247 0.0
C1660 C 0.74922 0.5981 0.14236 0.0
H1661 H 0.70176 0.60881 0.1286 0.0
C1662 C 0.75909 0.60684 0.12618 0.0
C1663 C 0.72829 0.59887 0.14333 0.0
C1664 C 0.71693 0.59028 0.16064 0.0
C1665 C 0.74866 0.6161 0.11083 0.0
C1666 C 0.72774 0.61696 0.1118 0.0
C1667 C 0.7178 0.60818 0.12793 0.0
C1668 C 0.71604 0.62676 0.09604 0.0
C1669 C 0.76009 0.62447 0.09343 0.0
C1670 C 0.71827 0.6471 0.09227 0.0
C1671 C 0.70809 0.6561 0.07667 0.0
C1672 C 0.69538 0.64494 0.06459 0.0
C1673 C 0.6928 0.62465 0.06873 0.0
C1674 C 0.70301 0.61566 0.08435 0.0
H1675 H 0.77538 0.61842 0.09261 0.0
H1676 H 0.75244 0.62125 0.07927 0.0
H1677 H 0.76119 0.6408 0.09499 0.0
H1678 H 0.72803 0.65599 0.10133 0.0
H1679 H 0.71029 0.67178 0.07401 0.0
H1680 H 0.35289 0.75423 0.07528 0.0
H1681 H 0.38141 0.77249 0.08759 0.0
H1682 H 0.42075 0.73277 0.05667 0.0
H1683 H 0.39207 0.71425 0.04409 0.0
H1684 H 0.43152 0.74338 0.09797 0.0
H1685 H 0.41588 0.80866 0.05045 0.0
H1686 H 0.39489 0.79978 0.06435 0.0
H1687 H 0.40579 0.78438 0.04555 0.0
C1688 C 0.36758 0.74919 0.07118 0.0
C1689 C 0.37018 0.73284 0.05855 0.0
C1690 C 0.38387 0.75975 0.07817 0.0
C1691 C 0.40314 0.75424 0.07269 0.0
C1692 C 0.40595 0.73736 0.06089 0.0
H1693 H 0.5128 0.80879 0.11699 0.0
H1694 H 0.49046 0.7887 0.09692 0.0
C1695 C 0.38957 0.72675 0.0538 0.0
C1696 C 0.42014 0.76648 0.07923 0.0
H1697 H 0.43854 0.8136 0.07701 0.0
C1698 C 0.43332 0.75863 0.09318 0.0
C1699 C 0.42238 0.78637 0.07292 0.0
C1700 C 0.40911 0.7953 0.05735 0.0
C1701 C 0.44807 0.77048 0.10181 0.0
C1702 C 0.44989 0.79061 0.09599 0.0
C1703 C 0.43713 0.79821 0.08148 0.0
C1704 C 0.46391 0.80434 0.10586 0.0
C1705 C 0.46089 0.76163 0.11781 0.0
C1706 C 0.45659 0.82057 0.11659 0.0
C1707 C 0.46934 0.83226 0.1279 0.0
C1708 C 0.48971 0.82793 0.1287 0.0
C1709 C 0.49719 0.81249 0.11684 0.0
C1710 C 0.48441 0.80084 0.10549 0.0
H1711 H 0.45482 0.74739 0.12349 0.0
H1712 H 0.4759 0.75873 0.1117 0.0
H1713 H 0.46242 0.77202 0.13044 0.0
H1714 H 0.44084 0.82366 0.11695 0.0
H1715 H 0.46306 0.84405 0.13679 0.0
H1716 H 0.33789 0.42753 0.04622 0.0
H1717 H 0.3132 0.44264 0.06777 0.0
H1718 H 0.2856 0.38573 0.077 0.0
H1719 H 0.31055 0.37025 0.05524 0.0
H1720 H 0.27024 0.44109 0.06271 0.0
H1721 H 0.29636 0.40895 0.13414 0.0
H1722 H 0.31214 0.41011 0.11246 0.0
H1723 H 0.29227 0.39251 0.11358 0.0
C1724 C 0.32662 0.41812 0.05279 0.0
C1725 C 0.32623 0.39764 0.04903 0.0
C1726 C 0.31249 0.42683 0.0651 0.0
C1727 C 0.29771 0.4153 0.07411 0.0
C1728 C 0.29706 0.39484 0.07034 0.0
H1729 H 0.20842 0.46223 0.157 0.0
H1730 H 0.22909 0.43938 0.13776 0.0
C1731 C 0.31122 0.38606 0.05783 0.0
C1732 C 0.28301 0.42513 0.08716 0.0
H1733 H 0.27088 0.43269 0.13579 0.0
C1734 C 0.2702 0.43909 0.07867 0.0
C1735 C 0.28298 0.42242 0.10795 0.0
C1736 C 0.29669 0.40777 0.11773 0.0
C1737 C 0.25771 0.45082 0.09045 0.0
C1738 C 0.25838 0.44885 0.11132 0.0
C1739 C 0.27056 0.43428 0.1198 0.0
C1740 C 0.2471 0.46241 0.12446 0.0
C1741 C 0.24402 0.46536 0.08043 0.0
C1742 C 0.25089 0.48285 0.12394 0.0
C1743 C 0.23915 0.49593 0.13489 0.0
C1744 C 0.22344 0.48882 0.14668 0.0
C1745 C 0.22037 0.46822 0.14802 0.0
C1746 C 0.23213 0.45512 0.13702 0.0
H1747 H 0.24117 0.46117 0.06479 0.0
H1748 H 0.22962 0.46637 0.0884 0.0
H1749 H 0.25098 0.48026 0.0804 0.0
H1750 H 0.26267 0.48873 0.11468 0.0
H1751 H 0.24205 0.51167 0.13362 0.0
H1752 H 0.86962 0.53229 0.74636 0.0
H1753 H 0.89104 0.55169 0.72439 0.0
H1754 H 0.86643 0.60569 0.74792 0.0
H1755 H 0.84505 0.58645 0.77015 0.0
H1756 H 0.88605 0.58389 0.69567 0.0
H1757 H 0.92596 0.60585 0.76412 0.0
H1758 H 0.90821 0.58586 0.76376 0.0
H1759 H 0.89987 0.61112 0.76389 0.0
C1760 C 0.86833 0.54828 0.74653 0.0
C1761 C 0.85588 0.55783 0.7603 0.0
C1762 C 0.88061 0.55934 0.73394 0.0
C1763 C 0.88059 0.58008 0.73489 0.0
C1764 C 0.86686 0.58966 0.74724 0.0
H1765 H 0.96626 0.66722 0.69413 0.0
H1766 H 0.93734 0.65036 0.7081 0.0
C1767 C 0.8546 0.57863 0.75987 0.0
C1768 C 0.89643 0.59149 0.72477 0.0
H1769 H 0.93781 0.61895 0.734 0.0
C1770 C 0.89734 0.59164 0.70399 0.0
C1771 C 0.91121 0.60142 0.73573 0.0
C1772 C 0.91146 0.60099 0.75811 0.0
C1773 C 0.91257 0.60173 0.69386 0.0
C1774 C 0.9274 0.61156 0.70486 0.0
C1775 C 0.92638 0.61146 0.72562 0.0
C1776 C 0.94434 0.62186 0.69527 0.0
C1777 C 0.9125 0.60201 0.67151 0.0
C1778 C 0.95797 0.61138 0.68354 0.0
C1779 C 0.97456 0.62098 0.67552 0.0
C1780 C 0.97788 0.6412 0.67924 0.0
C1781 C 0.96418 0.65163 0.691 0.0
C1782 C 0.9476 0.64204 0.69896 0.0
H1783 H 0.89759 0.59858 0.66553 0.0
H1784 H 0.91733 0.61665 0.6657 0.0
H1785 H 0.92297 0.59063 0.66592 0.0
H1786 H 0.95599 0.59569 0.6809 0.0
H1787 H 0.98487 0.61251 0.66658 0.0
H1788 H 0.85722 0.4699 0.2262 0.0
H1789 H 0.8741 0.44827 0.24947 0.0
H1790 H 0.84193 0.47473 0.29801 0.0
H1791 H 0.82512 0.49698 0.27467 0.0
H1792 H 0.88159 0.47169 0.30574 0.0
H1793 H 0.85397 0.39992 0.27836 0.0
H1794 H 0.86441 0.41428 0.25851 0.0
H1795 H 0.84274 0.42317 0.27142 0.0
C1796 C 0.85348 0.47104 0.24178 0.0
C1797 C 0.83973 0.48518 0.24853 0.0
C1798 C 0.86311 0.45853 0.25509 0.0
C1799 C 0.85906 0.45962 0.27546 0.0
C1800 C 0.84518 0.47354 0.28232 0.0
H1801 H 0.91654 0.3653 0.34243 0.0
H1802 H 0.89114 0.38897 0.33229 0.0
C1803 C 0.83553 0.48618 0.26896 0.0
C1804 C 0.87022 0.44681 0.28942 0.0
H1805 H 0.88481 0.39896 0.29627 0.0
C1806 C 0.88204 0.45574 0.30396 0.0
C1807 C 0.87053 0.42597 0.2874 0.0
C1808 C 0.85705 0.41528 0.27322 0.0
C1809 C 0.89504 0.44447 0.31569 0.0
C1810 C 0.8966 0.42381 0.31243 0.0
C1811 C 0.8839 0.41481 0.29868 0.0
C1812 C 0.91193 0.41126 0.32208 0.0
C1813 C 0.90699 0.45488 0.33135 0.0
C1814 C 0.93215 0.41611 0.32039 0.0
C1815 C 0.94671 0.40272 0.32659 0.0
C1816 C 0.94132 0.38404 0.33411 0.0
C1817 C 0.92112 0.37957 0.33662 0.0
C1818 C 0.90659 0.39308 0.33079 0.0
H1819 H 0.89905 0.46816 0.33698 0.0
H1820 H 0.91027 0.44494 0.34405 0.0
H1821 H 0.9212 0.46 0.32476 0.0
H1822 H 0.93674 0.42975 0.31325 0.0
H1823 H 0.96215 0.40647 0.32425 0.0
H1824 H 0.62234 0.9818 0.33424 0.0
H1825 H 0.60292 0.96158 0.3114 0.0
H1826 H 0.64772 0.96927 0.26626 0.0
H1827 H 0.66731 0.98946 0.289 0.0
H1828 H 0.58808 0.97209 0.2728 0.0
H1829 H 0.64028 0.90836 0.27049 0.0
H1830 H 0.6413 0.92707 0.28952 0.0
H1831 H 0.65074 0.9323 0.26514 0.0
C1832 C 0.62812 0.97917 0.31948 0.0
C1833 C 0.64645 0.98719 0.31351 0.0
C1834 C 0.61696 0.96765 0.30642 0.0
C1835 C 0.62395 0.96378 0.2872 0.0
C1836 C 0.64216 0.97186 0.28112 0.0
H1837 H 0.54988 0.90648 0.19579 0.0
H1838 H 0.57256 0.92984 0.21204 0.0
C1839 C 0.65331 0.98344 0.29414 0.0
C1840 C 0.61214 0.95121 0.27362 0.0
H1841 H 0.61175 0.90617 0.25067 0.0
C1842 C 0.5933 0.95775 0.2678 0.0
C1843 C 0.61898 0.93247 0.26721 0.0
C1844 C 0.63886 0.92447 0.27348 0.0
C1845 C 0.58096 0.9459 0.25599 0.0
C1846 C 0.58772 0.92709 0.24976 0.0
C1847 C 0.6067 0.92069 0.25531 0.0
C1848 C 0.57457 0.91297 0.23928 0.0
C1849 C 0.56049 0.95323 0.25091 0.0
C1850 C 0.56852 0.89563 0.24904 0.0
C1851 C 0.55565 0.88238 0.23988 0.0
C1852 C 0.54861 0.88605 0.22063 0.0
C1853 C 0.55501 0.90324 0.21063 0.0
C1854 C 0.56788 0.91663 0.21992 0.0
H1855 H 0.55647 0.96682 0.25925 0.0
H1856 H 0.55984 0.95666 0.23483 0.0
H1857 H 0.54928 0.94159 0.25411 0.0
H1858 H 0.57354 0.89249 0.26396 0.0
H1859 H 0.55114 0.86926 0.24802 0.0
H1860 H 0.17557 0.56653 0.21556 0.0
H1861 H 0.1644 0.59419 0.23615 0.0
H1862 H 0.12119 0.55613 0.26423 0.0
H1863 H 0.13243 0.52843 0.24405 0.0
H1864 H 0.12709 0.60914 0.23413 0.0
H1865 H 0.14215 0.58623 0.31131 0.0
H1866 H 0.15369 0.57433 0.29028 0.0
H1867 H 0.12901 0.5675 0.29793 0.0
C1868 C 0.16407 0.5639 0.22651 0.0
C1869 C 0.15483 0.54526 0.22808 0.0
C1870 C 0.15766 0.57976 0.23823 0.0
C1871 C 0.14206 0.57722 0.25185 0.0
C1872 C 0.13352 0.55838 0.25414 0.0
H1873 H 0.05421 0.64405 0.31314 0.0
H1874 H 0.07634 0.61951 0.29836 0.0
C1875 C 0.1399 0.54255 0.24246 0.0
C1876 C 0.13304 0.59458 0.26192 0.0
H1877 H 0.11713 0.61136 0.30697 0.0
C1878 C 0.12525 0.60983 0.25009 0.0
C1879 C 0.13057 0.59543 0.28273 0.0
C1880 C 0.13948 0.58008 0.29631 0.0
C1881 C 0.1142 0.62537 0.25842 0.0
C1882 C 0.1111 0.6258 0.27915 0.0
C1883 C 0.11946 0.61093 0.29106 0.0
C1884 C 0.09821 0.64088 0.28859 0.0
C1885 C 0.10513 0.64068 0.24487 0.0
C1886 C 0.10328 0.66105 0.28816 0.0
C1887 C 0.09063 0.67518 0.29658 0.0
C1888 C 0.07271 0.66935 0.30563 0.0
C1889 C 0.06785 0.64908 0.30625 0.0
C1890 C 0.08051 0.63501 0.29787 0.0
H1891 H 0.10575 0.63611 0.22908 0.0
H1892 H 0.08944 0.64346 0.24902 0.0
H1893 H 0.11335 0.65483 0.24634 0.0
H1894 H 0.11702 0.66586 0.28131 0.0
H1895 H 0.09487 0.69064 0.29594 0.0
H1896 H 0.51981 0.13641 0.22185 0.0
H1897 H 0.49821 0.11413 0.24079 0.0
H1898 H 0.45256 0.15882 0.24147 0.0
H1899 H 0.47374 0.18085 0.22195 0.0
H1900 H 0.48368 0.11847 0.27719 0.0
H1901 H 0.42099 0.11168 0.22511 0.0
H1902 H 0.44435 0.12256 0.2179 0.0
H1903 H 0.42618 0.137 0.23112 0.0
C1904 C 0.50502 0.14134 0.22569 0.0
C1905 C 0.49845 0.16035 0.22024 0.0
C1906 C 0.49273 0.12863 0.23663 0.0
C1907 C 0.47365 0.13468 0.2424 0.0
C1908 C 0.46699 0.15358 0.23679 0.0
H1909 H 0.40293 0.08133 0.33827 0.0
H1910 H 0.42679 0.10162 0.31945 0.0
C1911 C 0.47917 0.16621 0.22565 0.0
C1912 C 0.46106 0.12155 0.25498 0.0
H1913 H 0.41522 0.10041 0.25811 0.0
C1914 C 0.46875 0.11439 0.27296 0.0
C1915 C 0.44164 0.11606 0.2494 0.0
C1916 C 0.43288 0.12206 0.22974 0.0
C1917 C 0.45753 0.10204 0.28555 0.0
C1918 C 0.43786 0.09715 0.28029 0.0
C1919 C 0.43023 0.10426 0.26227 0.0
C1920 C 0.42502 0.08406 0.29267 0.0
C1921 C 0.46704 0.09399 0.30408 0.0
C1922 C 0.41606 0.06749 0.28398 0.0
C1923 C 0.40223 0.05625 0.29452 0.0
C1924 C 0.39717 0.06113 0.31412 0.0
C1925 C 0.40675 0.07713 0.32326 0.0
C1926 C 0.42042 0.08867 0.31251 0.0
H1927 H 0.48347 0.09433 0.303 0.0
H1928 H 0.4626 0.10328 0.31689 0.0
H1929 H 0.46226 0.07853 0.30707 0.0
H1930 H 0.4194 0.06353 0.26877 0.0
H1931 H 0.39514 0.04392 0.28714 0.0
H1932 H 0.04615 0.37349 0.74537 0.0
H1933 H 0.064 0.3885 0.77303 0.0
H1934 H 0.11965 0.37336 0.74539 0.0
H1935 H 0.10202 0.35829 0.71772 0.0
H1936 H 0.11748 0.36873 0.78926 0.0
H1937 H 0.09284 0.4424 0.76109 0.0
H1938 H 0.07412 0.42402 0.76599 0.0
H1939 H 0.09147 0.42034 0.74611 0.0
C1940 C 0.06218 0.37292 0.74537 0.0
C1941 C 0.07267 0.3649 0.72918 0.0
C1942 C 0.07234 0.3816 0.76117 0.0
C1943 C 0.09312 0.3823 0.76108 0.0
C1944 C 0.1036 0.37302 0.74569 0.0
H1945 H 0.1951 0.43536 0.80683 0.0
H1946 H 0.16935 0.41297 0.7956 0.0
C1947 C 0.09348 0.36444 0.72987 0.0
C1948 C 0.10404 0.39431 0.77578 0.0
H1949 H 0.11593 0.44217 0.78676 0.0
C1950 C 0.11694 0.38478 0.78896 0.0
C1951 C 0.10319 0.41525 0.77547 0.0
C1952 C 0.08977 0.42623 0.76137 0.0
C1953 C 0.12953 0.39569 0.80137 0.0
C1954 C 0.12959 0.41664 0.80015 0.0
C1955 C 0.11591 0.42613 0.78772 0.0
C1956 C 0.14523 0.42891 0.80955 0.0
C1957 C 0.14285 0.38461 0.81545 0.0
C1958 C 0.14034 0.44555 0.82108 0.0
C1959 C 0.15515 0.45865 0.82739 0.0
C1960 C 0.17507 0.4554 0.82209 0.0
C1961 C 0.17993 0.43834 0.81121 0.0
C1962 C 0.16519 0.42534 0.80492 0.0
H1963 H 0.13597 0.37039 0.82019 0.0
H1964 H 0.15698 0.38103 0.80779 0.0
H1965 H 0.14621 0.39351 0.82882 0.0
H1966 H 0.12501 0.44872 0.82467 0.0
H1967 H 0.15091 0.4717 0.83569 0.0
H1968 H 0.55628 0.14921 0.82799 0.0
H1969 H 0.58125 0.12767 0.81247 0.0
H1970 H 0.55196 0.13403 0.75619 0.0
H1971 H 0.52729 0.15562 0.77137 0.0
H1972 H 0.57857 0.09182 0.79027 0.0
H1973 H 0.60841 0.15381 0.74485 0.0
H1974 H 0.5919 0.15769 0.7656 0.0
H1975 H 0.58225 0.14991 0.74208 0.0
C1976 C 0.55508 0.14585 0.81236 0.0
C1977 C 0.53996 0.15435 0.80087 0.0
C1978 C 0.56934 0.13356 0.80351 0.0
C1979 C 0.56867 0.1296 0.78309 0.0
C1980 C 0.55302 0.13725 0.77187 0.0
H1981 H 0.64035 0.04265 0.7179 0.0
H1982 H 0.61252 0.06128 0.73216 0.0
C1983 C 0.53889 0.14956 0.78062 0.0
C1984 C 0.58467 0.11814 0.77323 0.0
H1985 H 0.62055 0.12173 0.7375 0.0
C1986 C 0.58778 0.09832 0.77875 0.0
C1987 C 0.5968 0.12675 0.75833 0.0
C1988 C 0.59485 0.14825 0.75246 0.0
C1989 C 0.6026 0.08682 0.76962 0.0
C1990 C 0.61438 0.0953 0.75437 0.0
C1991 C 0.61133 0.11516 0.74899 0.0
C1992 C 0.63086 0.08433 0.74472 0.0
C1993 C 0.60584 0.06586 0.77672 0.0
C1994 C 0.65027 0.09151 0.74632 0.0
C1995 C 0.6661 0.08107 0.73804 0.0
C1996 C 0.66289 0.0632 0.72788 0.0
C1997 C 0.64333 0.05636 0.72563 0.0
C1998 C 0.62744 0.06687 0.73396 0.0
H1999 H 0.59874 0.06312 0.79136 0.0
H2000 H 0.59929 0.05542 0.7659 0.0
H2001 H 0.62191 0.06252 0.77788 0.0
H2002 H 0.65326 0.10502 0.75442 0.0
H2003 H 0.68094 0.08683 0.74001 0.0
H2004 H 0.50026 0.91576 0.79356 0.0
H2005 H 0.47512 0.93336 0.77449 0.0
H2006 H 0.43058 0.89235 0.79519 0.0
H2007 H 0.45572 0.87447 0.81434 0.0
H2008 H 0.42763 0.90393 0.75341 0.0
H2009 H 0.43374 0.96796 0.80451 0.0
H2010 H 0.45681 0.95991 0.79384 0.0
H2011 H 0.44351 0.94378 0.81045 0.0
C2012 C 0.48518 0.91026 0.79388 0.0
C2013 C 0.47998 0.89381 0.80568 0.0
C2014 C 0.47082 0.9204 0.78301 0.0
C2015 C 0.45094 0.91439 0.78374 0.0
C2016 C 0.44584 0.89729 0.79453 0.0
H2017 H 0.35103 0.99059 0.75531 0.0
H2018 H 0.37393 0.96733 0.77096 0.0
C2019 C 0.46024 0.88708 0.80544 0.0
C2020 C 0.43541 0.92669 0.77422 0.0
H2021 H 0.41421 0.97259 0.77582 0.0
C2022 C 0.42462 0.91892 0.75831 0.0
C2023 C 0.43132 0.94614 0.78085 0.0
C2024 C 0.4418 0.95494 0.79846 0.0
C2025 C 0.41015 0.9303 0.74854 0.0
C2026 C 0.40656 0.95 0.75476 0.0
C2027 C 0.41706 0.95756 0.77096 0.0
C2028 C 0.39201 0.96313 0.74475 0.0
C2029 C 0.39869 0.92108 0.73181 0.0
C2030 C 0.39459 0.96857 0.7248 0.0
C2031 C 0.38152 0.98192 0.7158 0.0
C2032 C 0.36566 0.99016 0.7266 0.0
C2033 C 0.36305 0.98454 0.74653 0.0
C2034 C 0.37613 0.97122 0.75552 0.0
H2035 H 0.39943 0.90464 0.73227 0.0
H2036 H 0.3829 0.92568 0.73229 0.0
H2037 H 0.4051 0.92609 0.71747 0.0
H2038 H 0.40697 0.96285 0.7163 0.0
H2039 H 0.38403 0.98596 0.70044 0.0
loop_
_geom_bond_atom_site_label_1
_geom_bond_atom_site_label_2
_geom_bond_distance
_geom_bond_site_symmetry_2
_ccdc_geom_bond_type
Mg0 O7 2.141 . S
Mg0 O8 2.048 1_545 S
Mg0 O9 2.048 1_545 S
Mg0 O12 2.141 . S
C1 O2 1.313 . S
C1 O8 1.195 . S
O2 C1 1.313 . S
C3 O4 1.245 . S
C3 O12 1.289 . S
O4 C3 1.245 . S
C5 O6 1.245 . S
C5 O7 1.289 . S
O6 C5 1.245 . S
O7 Mg0 2.141 . S
O7 C5 1.289 . S
O8 Mg0 2.048 1_565 S
O8 C1 1.195 . S
O9 Mg0 2.048 1_565 S
O9 C10 1.195 . S
C10 O9 1.195 . S
C10 O11 1.313 . S
O11 C10 1.313 . S
O12 Mg0 2.141 . S
O12 C3 1.289 . S
Mg13 O20 2.141 . S
Mg13 O21 2.048 1_455 S
Mg13 O22 2.048 1_455 S
Mg13 O25 2.141 . S
C14 O15 1.313 . S
C14 O21 1.195 . S
O15 C14 1.313 . S
C16 O17 1.245 . S
C16 O25 1.289 . S
O17 C16 1.245 . S
C18 O19 1.245 . S
C18 O20 1.289 . S
O19 C18 1.245 . S
O20 Mg13 2.141 . S
O20 C18 1.289 . S
O21 Mg13 2.048 1_655 S
O21 C14 1.195 . S
O22 Mg13 2.048 1_655 S
O22 C23 1.195 . S
C23 O22 1.195 . S
C23 O24 1.313 . S
O24 C23 1.313 . S
O25 Mg13 2.141 . S
O25 C16 1.289 . S
Mg26 O33 2.141 1_545 S
Mg26 O34 2.048 . S
Mg26 O35 2.048 . S
Mg26 O38 2.141 1_545 S
C27 O28 1.313 . S
C27 O34 1.195 . S
O28 C27 1.313 . S
C29 O30 1.245 . S
C29 O38 1.289 . S
O30 C29 1.245 . S
C31 O32 1.245 . S
C31 O33 1.289 . S
O32 C31 1.245 . S
O33 Mg26 2.141 1_565 S
O33 C31 1.289 . S
O34 Mg26 2.048 . S
O34 C27 1.195 . S
O35 Mg26 2.048 . S
O35 C36 1.195 . S
C36 O35 1.195 . S
C36 O37 1.313 . S
O37 C36 1.313 . S
O38 Mg26 2.141 1_565 S
O38 C29 1.289 . S
Mg39 O46 2.141 1_455 S
Mg39 O47 2.048 . S
Mg39 O48 2.048 . S
Mg39 O51 2.141 1_455 S
C40 O41 1.313 . S
C40 O47 1.195 . S
O41 C40 1.313 . S
C42 O43 1.245 . S
C42 O51 1.289 . S
O43 C42 1.245 . S
C44 O45 1.245 . S
C44 O46 1.289 . S
O45 C44 1.245 . S
O46 Mg39 2.141 1_655 S
O46 C44 1.289 . S
O47 Mg39 2.048 . S
O47 C40 1.195 . S
O48 Mg39 2.048 . S
O48 C49 1.195 . S
C49 O48 1.195 . S
C49 O50 1.313 . S
O50 C49 1.313 . S
O51 Mg39 2.141 1_655 S
O51 C42 1.289 . S
Mg52 O59 2.141 1_545 S
Mg52 O60 2.048 . S
Mg52 O61 2.048 . S
Mg52 O64 2.141 1_545 S
C53 O54 1.313 . S
C53 O60 1.195 . S
O54 C53 1.313 . S
C55 O56 1.245 . S
C55 O64 1.289 . S
O56 C55 1.245 . S
C57 O58 1.245 . S
C57 O59 1.289 . S
O58 C57 1.245 . S
O59 Mg52 2.141 1_565 S
O59 C57 1.289 . S
O60 Mg52 2.048 . S
O60 C53 1.195 . S
O61 Mg52 2.048 . S
O61 C62 1.195 . S
C62 O61 1.195 . S
C62 O63 1.313 . S
O63 C62 1.313 . S
O64 Mg52 2.141 1_565 S
O64 C55 1.289 . S
Mg65 O72 2.141 . S
Mg65 O73 2.048 1_455 S
Mg65 O74 2.048 1_455 S
Mg65 O77 2.141 . S
C66 O67 1.313 . S
C66 O73 1.195 . S
O67 C66 1.313 . S
C68 O69 1.245 . S
C68 O77 1.289 . S
O69 C68 1.245 . S
C70 O71 1.245 . S
C70 O72 1.289 . S
O71 C70 1.245 . S
O72 Mg65 2.141 . S
O72 C70 1.289 . S
O73 Mg65 2.048 1_655 S
O73 C66 1.195 . S
O74 Mg65 2.048 1_655 S
O74 C75 1.195 . S
C75 O74 1.195 . S
C75 O76 1.313 . S
O76 C75 1.313 . S
O77 Mg65 2.141 . S
O77 C68 1.289 . S
Mg78 O85 2.141 . S
Mg78 O86 2.048 1_545 S
Mg78 O87 2.048 1_545 S
Mg78 O90 2.141 . S
C79 O80 1.313 . S
C79 O86 1.195 . S
O80 C79 1.313 . S
C81 O82 1.245 . S
C81 O90 1.289 . S
O82 C81 1.245 . S
C83 O84 1.245 . S
C83 O85 1.289 . S
O84 C83 1.245 . S
O85 Mg78 2.141 . S
O85 C83 1.289 . S
O86 Mg78 2.048 1_565 S
O86 C79 1.195 . S
O87 Mg78 2.048 1_565 S
O87 C88 1.195 . S
C88 O87 1.195 . S
C88 O89 1.313 . S
O89 C88 1.313 . S
O90 Mg78 2.141 . S
O90 C81 1.289 . S
Mg91 O98 2.141 1_455 S
Mg91 O99 2.048 . S
Mg91 O100 2.048 . S
Mg91 O103 2.141 1_455 S
C92 O93 1.313 . S
C92 O99 1.195 . S
O93 C92 1.313 . S
C94 O95 1.245 . S
C94 O103 1.289 . S
O95 C94 1.245 . S
C96 O97 1.245 . S
C96 O98 1.289 . S
O97 C96 1.245 . S
O98 Mg91 2.141 1_655 S
O98 C96 1.289 . S
O99 Mg91 2.048 . S
O99 C92 1.195 . S
O100 Mg91 2.048 . S
O100 C101 1.195 . S
C101 O100 1.195 . S
C101 O102 1.313 . S
O102 C101 1.313 . S
O103 Mg91 2.141 1_655 S
O103 C94 1.289 . S
Mg104 O111 2.141 . S
Mg104 O112 2.048 1_554 S
Mg104 O113 2.048 1_554 S
Mg104 O116 2.141 . S
C105 O106 1.313 . S
C105 O112 1.195 . S
O106 C105 1.313 . S
C107 O108 1.245 . S
C107 O116 1.289 . S
O108 C107 1.245 . S
C109 O110 1.245 . S
C109 O111 1.289 . S
O110 C109 1.245 . S
O111 Mg104 2.141 . S
O111 C109 1.289 . S
O112 Mg104 2.048 1_556 S
O112 C105 1.195 . S
O113 Mg104 2.048 1_556 S
O113 C114 1.195 . S
C114 O113 1.195 . S
C114 O115 1.313 . S
O115 C114 1.313 . S
O116 Mg104 2.141 . S
O116 C107 1.289 . S
Mg117 O124 2.141 1_554 S
Mg117 O125 2.048 . S
Mg117 O126 2.048 . S
Mg117 O129 2.141 1_554 S
C118 O119 1.313 . S
C118 O125 1.195 . S
O119 C118 1.313 . S
C120 O121 1.245 . S
C120 O129 1.289 . S
O121 C120 1.245 . S
C122 O123 1.245 . S
C122 O124 1.289 . S
O123 C122 1.245 . S
O124 Mg117 2.141 1_556 S
O124 C122 1.289 . S
O125 Mg117 2.048 . S
O125 C118 1.195 . S
O126 Mg117 2.048 . S
O126 C127 1.195 . S
C127 O126 1.195 . S
C127 O128 1.313 . S
O128 C127 1.313 . S
O129 Mg117 2.141 1_556 S
O129 C120 1.289 . S
Mg130 O137 2.141 1_554 S
Mg130 O138 2.048 . S
Mg130 O139 2.048 . S
Mg130 O142 2.141 1_554 S
C131 O132 1.313 . S
C131 O138 1.195 . S
O132 C131 1.313 . S
C133 O134 1.245 . S
C133 O142 1.289 . S
O134 C133 1.245 . S
C135 O136 1.245 . S
C135 O137 1.289 . S
O136 C135 1.245 . S
O137 Mg130 2.141 1_556 S
O137 C135 1.289 . S
O138 Mg130 2.048 . S
O138 C131 1.195 . S
O139 Mg130 2.048 . S
O139 C140 1.195 . S
C140 O139 1.195 . S
C140 O141 1.313 . S
O141 C140 1.313 . S
O142 Mg130 2.141 1_556 S
O142 C133 1.289 . S
Mg143 O150 2.141 . S
Mg143 O151 2.048 1_554 S
Mg143 O152 2.048 1_554 S
Mg143 O155 2.141 . S
C144 O145 1.313 . S
C144 O151 1.195 . S
O145 C144 1.313 . S
C146 O147 1.245 . S
C146 O155 1.289 . S
O147 C146 1.245 . S
C148 O149 1.245 . S
C148 O150 1.289 . S
O149 C148 1.245 . S
O150 Mg143 2.141 . S
O150 C148 1.289 . S
O151 Mg143 2.048 1_556 S
O151 C144 1.195 . S
O152 Mg143 2.048 1_556 S
O152 C153 1.195 . S
C153 O152 1.195 . S
C153 O154 1.313 . S
O154 C153 1.313 . S
O155 Mg143 2.141 . S
O155 C146 1.289 . S
Mg156 O163 2.141 . S
Mg156 O164 2.048 . S
Mg156 O165 2.048 . S
Mg156 O168 2.141 . S
C157 O158 1.313 . S
C157 O164 1.195 . S
O158 C157 1.313 . S
C159 O160 1.245 . S
C159 O168 1.289 . S
O160 C159 1.245 . S
C161 O162 1.245 . S
C161 O163 1.289 . S
O162 C161 1.245 . S
O163 Mg156 2.141 . S
O163 C161 1.289 . S
O164 Mg156 2.048 . S
O164 C157 1.195 . S
O165 Mg156 2.048 . S
O165 C166 1.195 . S
C166 O165 1.195 . S
C166 O167 1.313 . S
O167 C166 1.313 . S
O168 Mg156 2.141 . S
O168 C159 1.289 . S
Mg169 O176 2.141 . S
Mg169 O177 2.048 . S
Mg169 O178 2.048 . S
Mg169 O181 2.141 . S
C170 O171 1.313 . S
C170 O177 1.195 . S
O171 C170 1.313 . S
C172 O173 1.245 . S
C172 O181 1.289 . S
O173 C172 1.245 . S
C174 O175 1.245 . S
C174 O176 1.289 . S
O175 C174 1.245 . S
O176 Mg169 2.141 . S
O176 C174 1.289 . S
O177 Mg169 2.048 . S
O177 C170 1.195 . S
O178 Mg169 2.048 . S
O178 C179 1.195 . S
C179 O178 1.195 . S
C179 O180 1.313 . S
O180 C179 1.313 . S
O181 Mg169 2.141 . S
O181 C172 1.289 . S
Mg182 O189 2.141 . S
Mg182 O190 2.048 . S
Mg182 O191 2.048 . S
Mg182 O194 2.141 . S
C183 O184 1.313 . S
C183 O190 1.195 . S
O184 C183 1.313 . S
C185 O186 1.245 . S
C185 O194 1.289 . S
O186 C185 1.245 . S
C187 O188 1.245 . S
C187 O189 1.289 . S
O188 C187 1.245 . S
O189 Mg182 2.141 . S
O189 C187 1.289 . S
O190 Mg182 2.048 . S
O190 C183 1.195 . S
O191 Mg182 2.048 . S
O191 C192 1.195 . S
C192 O191 1.195 . S
C192 O193 1.313 . S
O193 C192 1.313 . S
O194 Mg182 2.141 . S
O194 C185 1.289 . S
Mg195 O202 2.141 . S
Mg195 O203 2.048 . S
Mg195 O204 2.048 . S
Mg195 O207 2.141 . S
C196 O197 1.313 . S
C196 O203 1.195 . S
O197 C196 1.313 . S
C198 O199 1.245 . S
C198 O207 1.289 . S
O199 C198 1.245 . S
C200 O201 1.245 . S
C200 O202 1.289 . S
O201 C200 1.245 . S
O202 Mg195 2.141 . S
O202 C200 1.289 . S
O203 Mg195 2.048 . S
O203 C196 1.195 . S
O204 Mg195 2.048 . S
O204 C205 1.195 . S
C205 O204 1.195 . S
C205 O206 1.313 . S
O206 C205 1.313 . S
O207 Mg195 2.141 . S
O207 C198 1.289 . S
Mg208 O215 2.141 . S
Mg208 O216 2.048 . S
Mg208 O217 2.048 . S
Mg208 O220 2.141 . S
C209 O210 1.313 . S
C209 O216 1.195 . S
O210 C209 1.313 . S
C211 O212 1.245 . S
C211 O220 1.289 . S
O212 C211 1.245 . S
C213 O214 1.245 . S
C213 O215 1.289 . S
O214 C213 1.245 . S
O215 Mg208 2.141 . S
O215 C213 1.289 . S
O216 Mg208 2.048 . S
O216 C209 1.195 . S
O217 Mg208 2.048 . S
O217 C218 1.195 . S
C218 O217 1.195 . S
C218 O219 1.313 . S
O219 C218 1.313 . S
O220 Mg208 2.141 . S
O220 C211 1.289 . S
Mg221 O228 2.141 . S
Mg221 O229 2.048 . S
Mg221 O230 2.048 . S
Mg221 O233 2.141 . S
C222 O223 1.313 . S
C222 O229 1.195 . S
O223 C222 1.313 . S
C224 O225 1.245 . S
C224 O233 1.289 . S
O225 C224 1.245 . S
C226 O227 1.245 . S
C226 O228 1.289 . S
O227 C226 1.245 . S
O228 Mg221 2.141 . S
O228 C226 1.289 . S
O229 Mg221 2.048 . S
O229 C222 1.195 . S
O230 Mg221 2.048 . S
O230 C231 1.195 . S
C231 O230 1.195 . S
C231 O232 1.313 . S
O232 C231 1.313 . S
O233 Mg221 2.141 . S
O233 C224 1.289 . S
Mg234 O241 2.141 . S
Mg234 O242 2.048 . S
Mg234 O243 2.048 . S
Mg234 O246 2.141 . S
C235 O236 1.313 . S
C235 O242 1.195 . S
O236 C235 1.313 . S
C237 O238 1.245 . S
C237 O246 1.289 . S
O238 C237 1.245 . S
C239 O240 1.245 . S
C239 O241 1.289 . S
O240 C239 1.245 . S
O241 Mg234 2.141 . S
O241 C239 1.289 . S
O242 Mg234 2.048 . S
O242 C235 1.195 . S
O243 Mg234 2.048 . S
O243 C244 1.195 . S
C244 O243 1.195 . S
C244 O245 1.313 . S
O245 C244 1.313 . S
O246 Mg234 2.141 . S
O246 C237 1.289 . S
Mg247 O254 2.141 . S
Mg247 O255 2.048 . S
Mg247 O256 2.048 . S
Mg247 O259 2.141 . S
C248 O249 1.313 . S
C248 O255 1.195 . S
O249 C248 1.313 . S
C250 O251 1.245 . S
C250 O259 1.289 . S
O251 C250 1.245 . S
C252 O253 1.245 . S
C252 O254 1.289 . S
O253 C252 1.245 . S
O254 Mg247 2.141 . S
O254 C252 1.289 . S
O255 Mg247 2.048 . S
O255 C248 1.195 . S
O256 Mg247 2.048 . S
O256 C257 1.195 . S
C257 O256 1.195 . S
C257 O258 1.313 . S
O258 C257 1.313 . S
O259 Mg247 2.141 . S
O259 C250 1.289 . S
Mg260 O267 2.141 . S
Mg260 O268 2.048 . S
Mg260 O269 2.048 . S
Mg260 O272 2.141 . S
C261 O262 1.313 . S
C261 O268 1.195 . S
O262 C261 1.313 . S
C263 O264 1.245 . S
C263 O272 1.289 . S
O264 C263 1.245 . S
C265 O266 1.245 . S
C265 O267 1.289 . S
O266 C265 1.245 . S
O267 Mg260 2.141 . S
O267 C265 1.289 . S
O268 Mg260 2.048 . S
O268 C261 1.195 . S
O269 Mg260 2.048 . S
O269 C270 1.195 . S
C270 O269 1.195 . S
C270 O271 1.313 . S
O271 C270 1.313 . S
O272 Mg260 2.141 . S
O272 C263 1.289 . S
Mg273 O280 2.141 . S
Mg273 O281 2.048 . S
Mg273 O282 2.048 . S
Mg273 O285 2.141 . S
C274 O275 1.313 . S
C274 O281 1.195 . S
O275 C274 1.313 . S
C276 O277 1.245 . S
C276 O285 1.289 . S
O277 C276 1.245 . S
C278 O279 1.245 . S
C278 O280 1.289 . S
O279 C278 1.245 . S
O280 Mg273 2.141 . S
O280 C278 1.289 . S
O281 Mg273 2.048 . S
O281 C274 1.195 . S
O282 Mg273 2.048 . S
O282 C283 1.195 . S
C283 O282 1.195 . S
C283 O284 1.313 . S
O284 C283 1.313 . S
O285 Mg273 2.141 . S
O285 C276 1.289 . S
Mg286 O293 2.141 . S
Mg286 O294 2.048 . S
Mg286 O295 2.048 . S
Mg286 O298 2.141 . S
C287 O288 1.313 . S
C287 O294 1.195 . S
O288 C287 1.313 . S
C289 O290 1.245 . S
C289 O298 1.289 . S
O290 C289 1.245 . S
C291 O292 1.245 . S
C291 O293 1.289 . S
O292 C291 1.245 . S
O293 Mg286 2.141 . S
O293 C291 1.289 . S
O294 Mg286 2.048 . S
O294 C287 1.195 . S
O295 Mg286 2.048 . S
O295 C296 1.195 . S
C296 O295 1.195 . S
C296 O297 1.313 . S
O297 C296 1.313 . S
O298 Mg286 2.141 . S
O298 C289 1.289 . S
Mg299 O306 2.141 . S
Mg299 O307 2.048 . S
Mg299 O308 2.048 . S
Mg299 O311 2.141 . S
C300 O301 1.313 . S
C300 O307 1.195 . S
O301 C300 1.313 . S
C302 O303 1.245 . S
C302 O311 1.289 . S
O303 C302 1.245 . S
C304 O305 1.245 . S
C304 O306 1.289 . S
O305 C304 1.245 . S
O306 Mg299 2.141 . S
O306 C304 1.289 . S
O307 Mg299 2.048 . S
O307 C300 1.195 . S
O308 Mg299 2.048 . S
O308 C309 1.195 . S
C309 O308 1.195 . S
C309 O310 1.313 . S
O310 C309 1.313 . S
O311 Mg299 2.141 . S
O311 C302 1.289 . S
H312 C320 0.929 . S
H313 C322 0.930 . S
H314 C324 0.930 . S
H315 C327 0.929 . S
H316 C330 0.930 . S
H317 C332 0.960 . S
H318 C332 0.960 . S
H319 C332 0.960 . S
C320 H312 0.929 . S
C320 C321 1.377 . S
C320 C322 1.384 . S
C321 C320 1.377 . S
C321 C327 1.390 . S
C322 H313 0.930 . S
C322 C320 1.384 . S
C322 C323 1.372 . S
C323 C322 1.372 . S
C323 C324 1.400 . S
C323 C328 1.490 . S
C324 H314 0.930 . S
C324 C323 1.400 . S
C324 C327 1.386 . S
H325 C341 0.930 . S
H326 C342 0.931 . S
C327 H315 0.929 . S
C327 C321 1.390 . S
C327 C324 1.386 . S
C328 C323 1.490 . S
C328 C330 1.395 . S
C328 C331 1.403 . S
H329 C335 0.930 . S
C330 H316 0.930 . S
C330 C328 1.395 . S
C330 C333 1.403 . S
C331 C328 1.403 . S
C331 C332 1.524 . S
C331 C335 1.400 . S
C332 H317 0.960 . S
C332 H318 0.960 . S
C332 H319 0.960 . S
C332 C331 1.524 . S
C333 C330 1.403 . S
C333 C334 1.392 . S
C333 C337 1.495 . S
C334 C333 1.392 . S
C334 C335 1.385 . S
C334 C336 1.478 . S
C335 H329 0.930 . S
C335 C331 1.400 . S
C335 C334 1.385 . S
C336 C334 1.478 . S
C336 C338 1.381 . S
C336 C342 1.383 . S
C337 C333 1.495 . S
C337 H343 0.959 . S
C337 H344 0.961 . S
C337 H345 0.960 . S
C338 C336 1.381 . S
C338 C339 1.394 . S
C338 H346 0.930 . S
C339 C338 1.394 . S
C339 C340 1.383 . S
C339 H347 0.929 . S
C340 C339 1.383 . S
C340 C341 1.377 . S
C341 H325 0.930 . S
C341 C340 1.377 . S
C341 C342 1.379 . S
C342 H326 0.931 . S
C342 C336 1.383 . S
C342 C341 1.379 . S
H343 C337 0.959 . S
H344 C337 0.961 . S
H345 C337 0.960 . S
H346 C338 0.930 . S
H347 C339 0.929 . S
H348 C356 0.929 . S
H349 C358 0.930 . S
H350 C360 0.930 . S
H351 C363 0.929 . S
H352 C366 0.930 . S
H353 C368 0.960 . S
H354 C368 0.960 . S
H355 C368 0.960 . S
C356 H348 0.929 . S
C356 C357 1.377 . S
C356 C358 1.384 . S
C357 C356 1.377 . S
C357 C363 1.390 . S
C358 H349 0.930 . S
C358 C356 1.384 . S
C358 C359 1.372 . S
C359 C358 1.372 . S
C359 C360 1.400 . S
C359 C364 1.490 . S
C360 H350 0.930 . S
C360 C359 1.400 . S
C360 C363 1.386 . S
H361 C377 0.930 . S
H362 C378 0.931 . S
C363 H351 0.929 . S
C363 C357 1.390 . S
C363 C360 1.386 . S
C364 C359 1.490 . S
C364 C366 1.395 . S
C364 C367 1.403 . S
H365 C371 0.930 . S
C366 H352 0.930 . S
C366 C364 1.395 . S
C366 C369 1.403 . S
C367 C364 1.403 . S
C367 C368 1.524 . S
C367 C371 1.400 . S
C368 H353 0.960 . S
C368 H354 0.960 . S
C368 H355 0.960 . S
C368 C367 1.524 . S
C369 C366 1.403 . S
C369 C370 1.392 . S
C369 C373 1.495 . S
C370 C369 1.392 . S
C370 C371 1.385 . S
C370 C372 1.478 . S
C371 H365 0.930 . S
C371 C367 1.400 . S
C371 C370 1.385 . S
C372 C370 1.478 . S
C372 C374 1.381 . S
C372 C378 1.383 . S
C373 C369 1.495 . S
C373 H379 0.959 . S
C373 H380 0.961 . S
C373 H381 0.960 . S
C374 C372 1.381 . S
C374 C375 1.394 . S
C374 H382 0.930 . S
C375 C374 1.394 . S
C375 C376 1.383 . S
C375 H383 0.929 . S
C376 C375 1.383 . S
C376 C377 1.377 . S
C377 H361 0.930 . S
C377 C376 1.377 . S
C377 C378 1.379 . S
C378 H362 0.931 . S
C378 C372 1.383 . S
C378 C377 1.379 . S
H379 C373 0.959 . S
H380 C373 0.961 . S
H381 C373 0.960 . S
H382 C374 0.930 . S
H383 C375 0.929 . S
H384 C392 0.929 . S
H385 C394 0.930 . S
H386 C396 0.930 . S
H387 C399 0.929 . S
H388 C402 0.930 . S
H389 C404 0.960 . S
H390 C404 0.960 . S
H391 C404 0.960 . S
C392 H384 0.929 . S
C392 C393 1.377 . S
C392 C394 1.384 . S
C393 C392 1.377 . S
C393 C399 1.390 . S
C394 H385 0.930 . S
C394 C392 1.384 . S
C394 C395 1.372 . S
C395 C394 1.372 . S
C395 C396 1.400 . S
C395 C400 1.490 . S
C396 H386 0.930 . S
C396 C395 1.400 . S
C396 C399 1.386 . S
H397 C413 0.930 . S
H398 C414 0.931 . S
C399 H387 0.929 . S
C399 C393 1.390 . S
C399 C396 1.386 . S
C400 C395 1.490 . S
C400 C402 1.395 . S
C400 C403 1.403 . S
H401 C407 0.930 . S
C402 H388 0.930 . S
C402 C400 1.395 . S
C402 C405 1.403 . S
C403 C400 1.403 . S
C403 C404 1.524 . S
C403 C407 1.400 . S
C404 H389 0.960 . S
C404 H390 0.960 . S
C404 H391 0.960 . S
C404 C403 1.524 . S
C405 C402 1.403 . S
C405 C406 1.392 . S
C405 C409 1.495 . S
C406 C405 1.392 . S
C406 C407 1.385 . S
C406 C408 1.478 . S
C407 H401 0.930 . S
C407 C403 1.400 . S
C407 C406 1.385 . S
C408 C406 1.478 . S
C408 C410 1.381 . S
C408 C414 1.383 . S
C409 C405 1.495 . S
C409 H415 0.959 . S
C409 H416 0.961 . S
C409 H417 0.960 . S
C410 C408 1.381 . S
C410 C411 1.394 . S
C410 H418 0.930 . S
C411 C410 1.394 . S
C411 C412 1.383 . S
C411 H419 0.929 . S
C412 C411 1.383 . S
C412 C413 1.377 . S
C413 H397 0.930 . S
C413 C412 1.377 . S
C413 C414 1.379 . S
C414 H398 0.931 . S
C414 C408 1.383 . S
C414 C413 1.379 . S
H415 C409 0.959 . S
H416 C409 0.961 . S
H417 C409 0.960 . S
H418 C410 0.930 . S
H419 C411 0.929 . S
H420 C428 0.929 . S
H421 C430 0.930 . S
H422 C432 0.930 . S
H423 C435 0.929 . S
H424 C438 0.930 . S
H425 C440 0.960 . S
H426 C440 0.960 . S
H427 C440 0.960 . S
C428 H420 0.929 . S
C428 C429 1.377 . S
C428 C430 1.384 . S
C429 C428 1.377 . S
C429 C435 1.390 . S
C430 H421 0.930 . S
C430 C428 1.384 . S
C430 C431 1.372 . S
C431 C430 1.372 . S
C431 C432 1.400 . S
C431 C436 1.490 . S
C432 H422 0.930 . S
C432 C431 1.400 . S
C432 C435 1.386 . S
H433 C449 0.930 . S
H434 C450 0.931 . S
C435 H423 0.929 . S
C435 C429 1.390 . S
C435 C432 1.386 . S
C436 C431 1.490 . S
C436 C438 1.395 . S
C436 C439 1.403 . S
H437 C443 0.930 . S
C438 H424 0.930 . S
C438 C436 1.395 . S
C438 C441 1.403 . S
C439 C436 1.403 . S
C439 C440 1.524 . S
C439 C443 1.400 . S
C440 H425 0.960 . S
C440 H426 0.960 . S
C440 H427 0.960 . S
C440 C439 1.524 . S
C441 C438 1.403 . S
C441 C442 1.392 . S
C441 C445 1.495 . S
C442 C441 1.392 . S
C442 C443 1.385 . S
C442 C444 1.478 . S
C443 H437 0.930 . S
C443 C439 1.400 . S
C443 C442 1.385 . S
C444 C442 1.478 . S
C444 C446 1.381 . S
C444 C450 1.383 . S
C445 C441 1.495 . S
C445 H451 0.959 . S
C445 H452 0.961 . S
C445 H453 0.960 . S
C446 C444 1.381 . S
C446 C447 1.394 . S
C446 H454 0.930 . S
C447 C446 1.394 . S
C447 C448 1.383 . S
C447 H455 0.929 . S
C448 C447 1.383 . S
C448 C449 1.377 . S
C449 H433 0.930 . S
C449 C448 1.377 . S
C449 C450 1.379 . S
C450 H434 0.931 . S
C450 C444 1.383 . S
C450 C449 1.379 . S
H451 C445 0.959 . S
H452 C445 0.961 . S
H453 C445 0.960 . S
H454 C446 0.930 . S
H455 C447 0.929 . S
H456 C464 0.929 . S
H457 C466 0.930 . S
H458 C468 0.930 . S
H459 C471 0.929 . S
H460 C474 0.930 . S
H461 C476 0.960 . S
H462 C476 0.960 . S
H463 C476 0.960 . S
C464 H456 0.929 . S
C464 C465 1.377 . S
C464 C466 1.384 . S
C465 C464 1.377 . S
C465 C471 1.390 . S
C466 H457 0.930 . S
C466 C464 1.384 . S
C466 C467 1.372 . S
C467 C466 1.372 . S
C467 C468 1.400 . S
C467 C472 1.490 . S
C468 H458 0.930 . S
C468 C467 1.400 . S
C468 C471 1.386 . S
H469 C485 0.930 . S
H470 C486 0.931 . S
C471 H459 0.929 . S
C471 C465 1.390 . S
C471 C468 1.386 . S
C472 C467 1.490 . S
C472 C474 1.395 . S
C472 C475 1.403 . S
H473 C479 0.930 . S
C474 H460 0.930 . S
C474 C472 1.395 . S
C474 C477 1.403 . S
C475 C472 1.403 . S
C475 C476 1.524 . S
C475 C479 1.400 . S
C476 H461 0.960 . S
C476 H462 0.960 . S
C476 H463 0.960 . S
C476 C475 1.524 . S
C477 C474 1.403 . S
C477 C478 1.392 . S
C477 C481 1.495 . S
C478 C477 1.392 . S
C478 C479 1.385 . S
C478 C480 1.478 . S
C479 H473 0.930 . S
C479 C475 1.400 . S
C479 C478 1.385 . S
C480 C478 1.478 . S
C480 C482 1.381 . S
C480 C486 1.383 . S
C481 C477 1.495 . S
C481 H487 0.959 . S
C481 H488 0.961 . S
C481 H489 0.960 . S
C482 C480 1.381 . S
C482 C483 1.394 . S
C482 H490 0.930 . S
C483 C482 1.394 . S
C483 C484 1.383 . S
C483 H491 0.929 . S
C484 C483 1.383 . S
C484 C485 1.377 . S
C485 H469 0.930 . S
C485 C484 1.377 . S
C485 C486 1.379 . S
C486 H470 0.931 . S
C486 C480 1.383 . S
C486 C485 1.379 . S
H487 C481 0.959 . S
H488 C481 0.961 . S
H489 C481 0.960 . S
H490 C482 0.930 . S
H491 C483 0.929 . S
H492 C500 0.929 . S
H493 C502 0.930 . S
H494 C504 0.930 . S
H495 C507 0.929 . S
H496 C510 0.930 . S
H497 C512 0.960 . S
H498 C512 0.960 . S
H499 C512 0.960 . S
C500 H492 0.929 . S
C500 C501 1.377 . S
C500 C502 1.384 . S
C501 C500 1.377 . S
C501 C507 1.390 . S
C502 H493 0.930 . S
C502 C500 1.384 . S
C502 C503 1.372 . S
C503 C502 1.372 . S
C503 C504 1.400 . S
C503 C508 1.490 . S
C504 H494 0.930 . S
C504 C503 1.400 . S
C504 C507 1.386 . S
H505 C521 0.930 . S
H506 C522 0.931 . S
C507 H495 0.929 . S
C507 C501 1.390 . S
C507 C504 1.386 . S
C508 C503 1.490 . S
C508 C510 1.395 . S
C508 C511 1.403 . S
H509 C515 0.930 . S
C510 H496 0.930 . S
C510 C508 1.395 . S
C510 C513 1.403 . S
C511 C508 1.403 . S
C511 C512 1.524 . S
C511 C515 1.400 . S
C512 H497 0.960 . S
C512 H498 0.960 . S
C512 H499 0.960 . S
C512 C511 1.524 . S
C513 C510 1.403 . S
C513 C514 1.392 . S
C513 C517 1.495 . S
C514 C513 1.392 . S
C514 C515 1.385 . S
C514 C516 1.478 . S
C515 H509 0.930 . S
C515 C511 1.400 . S
C515 C514 1.385 . S
C516 C514 1.478 . S
C516 C518 1.381 . S
C516 C522 1.383 . S
C517 C513 1.495 . S
C517 H523 0.959 . S
C517 H524 0.961 . S
C517 H525 0.960 . S
C518 C516 1.381 . S
C518 C519 1.394 . S
C518 H526 0.930 . S
C519 C518 1.394 . S
C519 C520 1.383 . S
C519 H527 0.929 . S
C520 C519 1.383 . S
C520 C521 1.377 . S
C521 H505 0.930 . S
C521 C520 1.377 . S
C521 C522 1.379 . S
C522 H506 0.931 . S
C522 C516 1.383 . S
C522 C521 1.379 . S
H523 C517 0.959 . S
H524 C517 0.961 . S
H525 C517 0.960 . S
H526 C518 0.930 . S
H527 C519 0.929 . S
H528 C536 0.929 . S
H529 C538 0.930 . S
H530 C540 0.930 . S
H531 C543 0.929 . S
H532 C546 0.930 . S
H533 C548 0.960 . S
H534 C548 0.960 . S
H535 C548 0.960 . S
C536 H528 0.929 . S
C536 C537 1.377 . S
C536 C538 1.384 . S
C537 C536 1.377 . S
C537 C543 1.390 . S
C538 H529 0.930 . S
C538 C536 1.384 . S
C538 C539 1.372 . S
C539 C538 1.372 . S
C539 C540 1.400 . S
C539 C544 1.490 . S
C540 H530 0.930 . S
C540 C539 1.400 . S
C540 C543 1.386 . S
H541 C557 0.930 . S
H542 C558 0.931 . S
C543 H531 0.929 . S
C543 C537 1.390 . S
C543 C540 1.386 . S
C544 C539 1.490 . S
C544 C546 1.395 . S
C544 C547 1.403 . S
H545 C551 0.930 . S
C546 H532 0.930 . S
C546 C544 1.395 . S
C546 C549 1.403 . S
C547 C544 1.403 . S
C547 C548 1.524 . S
C547 C551 1.400 . S
C548 H533 0.960 . S
C548 H534 0.960 . S
C548 H535 0.960 . S
C548 C547 1.524 . S
C549 C546 1.403 . S
C549 C550 1.392 . S
C549 C553 1.495 . S
C550 C549 1.392 . S
C550 C551 1.385 . S
C550 C552 1.478 . S
C551 H545 0.930 . S
C551 C547 1.400 . S
C551 C550 1.385 . S
C552 C550 1.478 . S
C552 C554 1.381 . S
C552 C558 1.383 . S
C553 C549 1.495 . S
C553 H559 0.959 . S
C553 H560 0.961 . S
C553 H561 0.960 . S
C554 C552 1.381 . S
C554 C555 1.394 . S
C554 H562 0.930 . S
C555 C554 1.394 . S
C555 C556 1.383 . S
C555 H563 0.929 . S
C556 C555 1.383 . S
C556 C557 1.377 . S
C557 H541 0.930 . S
C557 C556 1.377 . S
C557 C558 1.379 . S
C558 H542 0.931 . S
C558 C552 1.383 . S
C558 C557 1.379 . S
H559 C553 0.959 . S
H560 C553 0.961 . S
H561 C553 0.960 . S
H562 C554 0.930 . S
H563 C555 0.929 . S
H564 C572 0.929 . S
H565 C574 0.930 . S
H566 C576 0.930 . S
H567 C579 0.929 . S
H568 C582 0.930 . S
H569 C584 0.960 . S
H570 C584 0.960 . S
H571 C584 0.960 . S
C572 H564 0.929 . S
C572 C573 1.377 . S
C572 C574 1.384 . S
C573 C572 1.377 . S
C573 C579 1.390 . S
C574 H565 0.930 . S
C574 C572 1.384 . S
C574 C575 1.372 . S
C575 C574 1.372 . S
C575 C576 1.400 . S
C575 C580 1.490 . S
C576 H566 0.930 . S
C576 C575 1.400 . S
C576 C579 1.386 . S
H577 C593 0.930 . S
H578 C594 0.931 . S
C579 H567 0.929 . S
C579 C573 1.390 . S
C579 C576 1.386 . S
C580 C575 1.490 . S
C580 C582 1.395 . S
C580 C583 1.403 . S
H581 C587 0.930 . S
C582 H568 0.930 . S
C582 C580 1.395 . S
C582 C585 1.403 . S
C583 C580 1.403 . S
C583 C584 1.524 . S
C583 C587 1.400 . S
C584 H569 0.960 . S
C584 H570 0.960 . S
C584 H571 0.960 . S
C584 C583 1.524 . S
C585 C582 1.403 . S
C585 C586 1.392 . S
C585 C589 1.495 . S
C586 C585 1.392 . S
C586 C587 1.385 . S
C586 C588 1.478 . S
C587 H581 0.930 . S
C587 C583 1.400 . S
C587 C586 1.385 . S
C588 C586 1.478 . S
C588 C590 1.381 . S
C588 C594 1.383 . S
C589 C585 1.495 . S
C589 H595 0.959 . S
C589 H596 0.961 . S
C589 H597 0.960 . S
C590 C588 1.381 . S
C590 C591 1.394 . S
C590 H598 0.930 . S
C591 C590 1.394 . S
C591 C592 1.383 . S
C591 H599 0.929 . S
C592 C591 1.383 . S
C592 C593 1.377 . S
C593 H577 0.930 . S
C593 C592 1.377 . S
C593 C594 1.379 . S
C594 H578 0.931 . S
C594 C588 1.383 . S
C594 C593 1.379 . S
H595 C589 0.959 . S
H596 C589 0.961 . S
H597 C589 0.960 . S
H598 C590 0.930 . S
H599 C591 0.929 . S
H600 C608 0.929 . S
H601 C610 0.930 . S
H602 C612 0.930 . S
H603 C615 0.929 . S
H604 C618 0.930 . S
H605 C620 0.960 . S
H606 C620 0.960 . S
H607 C620 0.960 . S
C608 H600 0.929 . S
C608 C609 1.377 . S
C608 C610 1.384 . S
C609 C608 1.377 . S
C609 C615 1.390 . S
C610 H601 0.930 . S
C610 C608 1.384 . S
C610 C611 1.372 . S
C611 C610 1.372 . S
C611 C612 1.400 . S
C611 C616 1.490 . S
C612 H602 0.930 . S
C612 C611 1.400 . S
C612 C615 1.386 . S
H613 C629 0.930 . S
H614 C630 0.931 . S
C615 H603 0.929 . S
C615 C609 1.390 . S
C615 C612 1.386 . S
C616 C611 1.490 . S
C616 C618 1.395 . S
C616 C619 1.403 . S
H617 C623 0.930 . S
C618 H604 0.930 . S
C618 C616 1.395 . S
C618 C621 1.403 . S
C619 C616 1.403 . S
C619 C620 1.524 . S
C619 C623 1.400 . S
C620 H605 0.960 . S
C620 H606 0.960 . S
C620 H607 0.960 . S
C620 C619 1.524 . S
C621 C618 1.403 . S
C621 C622 1.392 . S
C621 C625 1.495 . S
C622 C621 1.392 . S
C622 C623 1.385 . S
C622 C624 1.478 . S
C623 H617 0.930 . S
C623 C619 1.400 . S
C623 C622 1.385 . S
C624 C622 1.478 . S
C624 C626 1.381 . S
C624 C630 1.383 . S
C625 C621 1.495 . S
C625 H631 0.959 . S
C625 H632 0.961 . S
C625 H633 0.960 . S
C626 C624 1.381 . S
C626 C627 1.394 . S
C626 H634 0.930 . S
C627 C626 1.394 . S
C627 C628 1.383 . S
C627 H635 0.929 . S
C628 C627 1.383 . S
C628 C629 1.377 . S
C629 H613 0.930 . S
C629 C628 1.377 . S
C629 C630 1.379 . S
C630 H614 0.931 . S
C630 C624 1.383 . S
C630 C629 1.379 . S
H631 C625 0.959 . S
H632 C625 0.961 . S
H633 C625 0.960 . S
H634 C626 0.930 . S
H635 C627 0.929 . S
H636 C644 0.929 . S
H637 C646 0.930 . S
H638 C648 0.930 . S
H639 C651 0.929 . S
H640 C654 0.930 . S
H641 C656 0.960 . S
H642 C656 0.960 . S
H643 C656 0.960 . S
C644 H636 0.929 . S
C644 C645 1.377 . S
C644 C646 1.384 . S
C645 C644 1.377 . S
C645 C651 1.390 . S
C646 H637 0.930 . S
C646 C644 1.384 . S
C646 C647 1.372 . S
C647 C646 1.372 . S
C647 C648 1.400 . S
C647 C652 1.490 . S
C648 H638 0.930 . S
C648 C647 1.400 . S
C648 C651 1.386 . S
H649 C665 0.930 . S
H650 C666 0.931 . S
C651 H639 0.929 . S
C651 C645 1.390 . S
C651 C648 1.386 . S
C652 C647 1.490 . S
C652 C654 1.395 . S
C652 C655 1.403 . S
H653 C659 0.930 . S
C654 H640 0.930 . S
C654 C652 1.395 . S
C654 C657 1.403 . S
C655 C652 1.403 . S
C655 C656 1.524 . S
C655 C659 1.400 . S
C656 H641 0.960 . S
C656 H642 0.960 . S
C656 H643 0.960 . S
C656 C655 1.524 . S
C657 C654 1.403 . S
C657 C658 1.392 . S
C657 C661 1.495 . S
C658 C657 1.392 . S
C658 C659 1.385 . S
C658 C660 1.478 . S
C659 H653 0.930 . S
C659 C655 1.400 . S
C659 C658 1.385 . S
C660 C658 1.478 . S
C660 C662 1.381 . S
C660 C666 1.383 . S
C661 C657 1.495 . S
C661 H667 0.959 . S
C661 H668 0.961 . S
C661 H669 0.960 . S
C662 C660 1.381 . S
C662 C663 1.394 . S
C662 H670 0.930 . S
C663 C662 1.394 . S
C663 C664 1.383 . S
C663 H671 0.929 . S
C664 C663 1.383 . S
C664 C665 1.377 . S
C665 H649 0.930 . S
C665 C664 1.377 . S
C665 C666 1.379 . S
C666 H650 0.931 . S
C666 C660 1.383 . S
C666 C665 1.379 . S
H667 C661 0.959 . S
H668 C661 0.961 . S
H669 C661 0.960 . S
H670 C662 0.930 . S
H671 C663 0.929 . S
H672 C680 0.929 . S
H673 C682 0.930 . S
H674 C684 0.930 . S
H675 C687 0.929 . S
H676 C690 0.930 . S
H677 C692 0.960 . S
H678 C692 0.960 . S
H679 C692 0.960 . S
C680 H672 0.929 . S
C680 C681 1.377 . S
C680 C682 1.384 . S
C681 C680 1.377 . S
C681 C687 1.390 . S
C682 H673 0.930 . S
C682 C680 1.384 . S
C682 C683 1.372 . S
C683 C682 1.372 . S
C683 C684 1.400 . S
C683 C688 1.490 . S
C684 H674 0.930 . S
C684 C683 1.400 . S
C684 C687 1.386 . S
H685 C701 0.930 . S
H686 C702 0.931 . S
C687 H675 0.929 . S
C687 C681 1.390 . S
C687 C684 1.386 . S
C688 C683 1.490 . S
C688 C690 1.395 . S
C688 C691 1.403 . S
H689 C695 0.930 . S
C690 H676 0.930 . S
C690 C688 1.395 . S
C690 C693 1.403 . S
C691 C688 1.403 . S
C691 C692 1.524 . S
C691 C695 1.400 . S
C692 H677 0.960 . S
C692 H678 0.960 . S
C692 H679 0.960 . S
C692 C691 1.524 . S
C693 C690 1.403 . S
C693 C694 1.392 . S
C693 C697 1.495 . S
C694 C693 1.392 . S
C694 C695 1.385 . S
C694 C696 1.478 . S
C695 H689 0.930 . S
C695 C691 1.400 . S
C695 C694 1.385 . S
C696 C694 1.478 . S
C696 C698 1.381 . S
C696 C702 1.383 . S
C697 C693 1.495 . S
C697 H703 0.959 . S
C697 H704 0.961 . S
C697 H705 0.960 . S
C698 C696 1.381 . S
C698 C699 1.394 . S
C698 H706 0.930 . S
C699 C698 1.394 . S
C699 C700 1.383 . S
C699 H707 0.929 . S
C700 C699 1.383 . S
C700 C701 1.377 . S
C701 H685 0.930 . S
C701 C700 1.377 . S
C701 C702 1.379 . S
C702 H686 0.931 . S
C702 C696 1.383 . S
C702 C701 1.379 . S
H703 C697 0.959 . S
H704 C697 0.961 . S
H705 C697 0.960 . S
H706 C698 0.930 . S
H707 C699 0.929 . S
H708 C716 0.929 . S
H709 C718 0.930 . S
H710 C720 0.930 . S
H711 C723 0.929 . S
H712 C726 0.930 . S
H713 C728 0.960 . S
H714 C728 0.960 . S
H715 C728 0.960 . S
C716 H708 0.929 . S
C716 C717 1.377 . S
C716 C718 1.384 . S
C717 C716 1.377 . S
C717 C723 1.390 . S
C718 H709 0.930 . S
C718 C716 1.384 . S
C718 C719 1.372 . S
C719 C718 1.372 . S
C719 C720 1.400 . S
C719 C724 1.490 . S
C720 H710 0.930 . S
C720 C719 1.400 . S
C720 C723 1.386 . S
H721 C737 0.930 . S
H722 C738 0.931 . S
C723 H711 0.929 . S
C723 C717 1.390 . S
C723 C720 1.386 . S
C724 C719 1.490 . S
C724 C726 1.395 . S
C724 C727 1.403 . S
H725 C731 0.930 . S
C726 H712 0.930 . S
C726 C724 1.395 . S
C726 C729 1.403 . S
C727 C724 1.403 . S
C727 C728 1.524 . S
C727 C731 1.400 . S
C728 H713 0.960 . S
C728 H714 0.960 . S
C728 H715 0.960 . S
C728 C727 1.524 . S
C729 C726 1.403 . S
C729 C730 1.392 . S
C729 C733 1.495 . S
C730 C729 1.392 . S
C730 C731 1.385 . S
C730 C732 1.478 . S
C731 H725 0.930 . S
C731 C727 1.400 . S
C731 C730 1.385 . S
C732 C730 1.478 . S
C732 C734 1.381 . S
C732 C738 1.383 . S
C733 C729 1.495 . S
C733 H739 0.959 . S
C733 H740 0.961 . S
C733 H741 0.960 . S
C734 C732 1.381 . S
C734 C735 1.394 . S
C734 H742 0.930 . S
C735 C734 1.394 . S
C735 C736 1.383 . S
C735 H743 0.929 . S
C736 C735 1.383 . S
C736 C737 1.377 . S
C737 H721 0.930 . S
C737 C736 1.377 . S
C737 C738 1.379 . S
C738 H722 0.931 . S
C738 C732 1.383 . S
C738 C737 1.379 . S
H739 C733 0.959 . S
H740 C733 0.961 . S
H741 C733 0.960 . S
H742 C734 0.930 . S
H743 C735 0.929 . S
H744 C752 0.929 . S
H745 C754 0.930 . S
H746 C756 0.930 . S
H747 C759 0.929 . S
H748 C762 0.930 . S
H749 C764 0.960 . S
H750 C764 0.960 . S
H751 C764 0.960 . S
C752 H744 0.929 . S
C752 C753 1.377 . S
C752 C754 1.384 . S
C753 C752 1.377 . S
C753 C759 1.390 . S
C754 H745 0.930 . S
C754 C752 1.384 . S
C754 C755 1.372 . S
C755 C754 1.372 . S
C755 C756 1.400 . S
C755 C760 1.490 . S
C756 H746 0.930 . S
C756 C755 1.400 . S
C756 C759 1.386 . S
H757 C773 0.930 . S
H758 C774 0.931 . S
C759 H747 0.929 . S
C759 C753 1.390 . S
C759 C756 1.386 . S
C760 C755 1.490 . S
C760 C762 1.395 . S
C760 C763 1.403 . S
H761 C767 0.930 . S
C762 H748 0.930 . S
C762 C760 1.395 . S
C762 C765 1.403 . S
C763 C760 1.403 . S
C763 C764 1.524 . S
C763 C767 1.400 . S
C764 H749 0.960 . S
C764 H750 0.960 . S
C764 H751 0.960 . S
C764 C763 1.524 . S
C765 C762 1.403 . S
C765 C766 1.392 . S
C765 C769 1.495 . S
C766 C765 1.392 . S
C766 C767 1.385 . S
C766 C768 1.478 . S
C767 H761 0.930 . S
C767 C763 1.400 . S
C767 C766 1.385 . S
C768 C766 1.478 . S
C768 C770 1.381 . S
C768 C774 1.383 . S
C769 C765 1.495 . S
C769 H775 0.959 . S
C769 H776 0.961 . S
C769 H777 0.960 . S
C770 C768 1.381 . S
C770 C771 1.394 . S
C770 H778 0.930 . S
C771 C770 1.394 . S
C771 C772 1.383 . S
C771 H779 0.929 . S
C772 C771 1.383 . S
C772 C773 1.377 . S
C773 H757 0.930 . S
C773 C772 1.377 . S
C773 C774 1.379 . S
C774 H758 0.931 . S
C774 C768 1.383 . S
C774 C773 1.379 . S
H775 C769 0.959 . S
H776 C769 0.961 . S
H777 C769 0.960 . S
H778 C770 0.930 . S
H779 C771 0.929 . S
H780 C788 0.929 . S
H781 C790 0.930 . S
H782 C792 0.930 . S
H783 C795 0.929 . S
H784 C798 0.930 . S
H785 C800 0.960 . S
H786 C800 0.960 . S
H787 C800 0.960 . S
C788 H780 0.929 . S
C788 C789 1.377 . S
C788 C790 1.384 . S
C789 C788 1.377 . S
C789 C795 1.390 . S
C790 H781 0.930 . S
C790 C788 1.384 . S
C790 C791 1.372 . S
C791 C790 1.372 . S
C791 C792 1.400 . S
C791 C796 1.490 . S
C792 H782 0.930 . S
C792 C791 1.400 . S
C792 C795 1.386 . S
H793 C809 0.930 . S
H794 C810 0.931 . S
C795 H783 0.929 . S
C795 C789 1.390 . S
C795 C792 1.386 . S
C796 C791 1.490 . S
C796 C798 1.395 . S
C796 C799 1.403 . S
H797 C803 0.930 . S
C798 H784 0.930 . S
C798 C796 1.395 . S
C798 C801 1.403 . S
C799 C796 1.403 . S
C799 C800 1.524 . S
C799 C803 1.400 . S
C800 H785 0.960 . S
C800 H786 0.960 . S
C800 H787 0.960 . S
C800 C799 1.524 . S
C801 C798 1.403 . S
C801 C802 1.392 . S
C801 C805 1.495 . S
C802 C801 1.392 . S
C802 C803 1.385 . S
C802 C804 1.478 . S
C803 H797 0.930 . S
C803 C799 1.400 . S
C803 C802 1.385 . S
C804 C802 1.478 . S
C804 C806 1.381 . S
C804 C810 1.383 . S
C805 C801 1.495 . S
C805 H811 0.959 . S
C805 H812 0.961 . S
C805 H813 0.960 . S
C806 C804 1.381 . S
C806 C807 1.394 . S
C806 H814 0.930 . S
C807 C806 1.394 . S
C807 C808 1.383 . S
C807 H815 0.929 . S
C808 C807 1.383 . S
C808 C809 1.377 . S
C809 H793 0.930 . S
C809 C808 1.377 . S
C809 C810 1.379 . S
C810 H794 0.931 . S
C810 C804 1.383 . S
C810 C809 1.379 . S
H811 C805 0.959 . S
H812 C805 0.961 . S
H813 C805 0.960 . S
H814 C806 0.930 . S
H815 C807 0.929 . S
H816 C824 0.929 . S
H817 C826 0.930 . S
H818 C828 0.930 . S
H819 C831 0.929 . S
H820 C834 0.930 . S
H821 C836 0.960 . S
H822 C836 0.960 . S
H823 C836 0.960 . S
C824 H816 0.929 . S
C824 C825 1.377 . S
C824 C826 1.384 . S
C825 C824 1.377 . S
C825 C831 1.390 . S
C826 H817 0.930 . S
C826 C824 1.384 . S
C826 C827 1.372 . S
C827 C826 1.372 . S
C827 C828 1.400 . S
C827 C832 1.490 . S
C828 H818 0.930 . S
C828 C827 1.400 . S
C828 C831 1.386 . S
H829 C845 0.930 . S
H830 C846 0.931 . S
C831 H819 0.929 . S
C831 C825 1.390 . S
C831 C828 1.386 . S
C832 C827 1.490 . S
C832 C834 1.395 . S
C832 C835 1.403 . S
H833 C839 0.930 . S
C834 H820 0.930 . S
C834 C832 1.395 . S
C834 C837 1.403 . S
C835 C832 1.403 . S
C835 C836 1.524 . S
C835 C839 1.400 . S
C836 H821 0.960 . S
C836 H822 0.960 . S
C836 H823 0.960 . S
C836 C835 1.524 . S
C837 C834 1.403 . S
C837 C838 1.392 . S
C837 C841 1.495 . S
C838 C837 1.392 . S
C838 C839 1.385 . S
C838 C840 1.478 . S
C839 H833 0.930 . S
C839 C835 1.400 . S
C839 C838 1.385 . S
C840 C838 1.478 . S
C840 C842 1.381 . S
C840 C846 1.383 . S
C841 C837 1.495 . S
C841 H847 0.959 . S
C841 H848 0.961 . S
C841 H849 0.960 . S
C842 C840 1.381 . S
C842 C843 1.394 . S
C842 H850 0.930 . S
C843 C842 1.394 . S
C843 C844 1.383 . S
C843 H851 0.929 . S
C844 C843 1.383 . S
C844 C845 1.377 . S
C845 H829 0.930 . S
C845 C844 1.377 . S
C845 C846 1.379 . S
C846 H830 0.931 . S
C846 C840 1.383 . S
C846 C845 1.379 . S
H847 C841 0.959 . S
H848 C841 0.961 . S
H849 C841 0.960 . S
H850 C842 0.930 . S
H851 C843 0.929 . S
H852 C860 0.929 . S
H853 C862 0.930 . S
H854 C864 0.930 . S
H855 C867 0.929 . S
H856 C870 0.930 . S
H857 C872 0.960 . S
H858 C872 0.960 . S
H859 C872 0.960 . S
C860 H852 0.929 . S
C860 C861 1.377 . S
C860 C862 1.384 . S
C861 C860 1.377 . S
C861 C867 1.390 . S
C862 H853 0.930 . S
C862 C860 1.384 . S
C862 C863 1.372 . S
C863 C862 1.372 . S
C863 C864 1.400 . S
C863 C868 1.490 . S
C864 H854 0.930 . S
C864 C863 1.400 . S
C864 C867 1.386 . S
H865 C881 0.930 . S
H866 C882 0.931 . S
C867 H855 0.929 . S
C867 C861 1.390 . S
C867 C864 1.386 . S
C868 C863 1.490 . S
C868 C870 1.395 . S
C868 C871 1.403 . S
H869 C875 0.930 . S
C870 H856 0.930 . S
C870 C868 1.395 . S
C870 C873 1.403 . S
C871 C868 1.403 . S
C871 C872 1.524 . S
C871 C875 1.400 . S
C872 H857 0.960 . S
C872 H858 0.960 . S
C872 H859 0.960 . S
C872 C871 1.524 . S
C873 C870 1.403 . S
C873 C874 1.392 . S
C873 C877 1.495 . S
C874 C873 1.392 . S
C874 C875 1.385 . S
C874 C876 1.478 . S
C875 H869 0.930 . S
C875 C871 1.400 . S
C875 C874 1.385 . S
C876 C874 1.478 . S
C876 C878 1.381 . S
C876 C882 1.383 . S
C877 C873 1.495 . S
C877 H883 0.959 . S
C877 H884 0.961 . S
C877 H885 0.960 . S
C878 C876 1.381 . S
C878 C879 1.394 . S
C878 H886 0.930 . S
C879 C878 1.394 . S
C879 C880 1.383 . S
C879 H887 0.929 . S
C880 C879 1.383 . S
C880 C881 1.377 . S
C881 H865 0.930 . S
C881 C880 1.377 . S
C881 C882 1.379 . S
C882 H866 0.931 . S
C882 C876 1.383 . S
C882 C881 1.379 . S
H883 C877 0.959 . S
H884 C877 0.961 . S
H885 C877 0.960 . S
H886 C878 0.930 . S
H887 C879 0.929 . S
H888 C896 0.929 . S
H889 C898 0.930 . S
H890 C900 0.930 . S
H891 C903 0.929 . S
H892 C906 0.930 . S
H893 C908 0.960 . S
H894 C908 0.960 . S
H895 C908 0.960 . S
C896 H888 0.929 . S
C896 C897 1.377 . S
C896 C898 1.384 . S
C897 C896 1.377 . S
C897 C903 1.390 . S
C898 H889 0.930 . S
C898 C896 1.384 . S
C898 C899 1.372 . S
C899 C898 1.372 . S
C899 C900 1.400 . S
C899 C904 1.490 . S
C900 H890 0.930 . S
C900 C899 1.400 . S
C900 C903 1.386 . S
H901 C917 0.930 . S
H902 C918 0.931 . S
C903 H891 0.929 . S
C903 C897 1.390 . S
C903 C900 1.386 . S
C904 C899 1.490 . S
C904 C906 1.395 . S
C904 C907 1.403 . S
H905 C911 0.930 . S
C906 H892 0.930 . S
C906 C904 1.395 . S
C906 C909 1.403 . S
C907 C904 1.403 . S
C907 C908 1.524 . S
C907 C911 1.400 . S
C908 H893 0.960 . S
C908 H894 0.960 . S
C908 H895 0.960 . S
C908 C907 1.524 . S
C909 C906 1.403 . S
C909 C910 1.392 . S
C909 C913 1.495 . S
C910 C909 1.392 . S
C910 C911 1.385 . S
C910 C912 1.478 . S
C911 H905 0.930 . S
C911 C907 1.400 . S
C911 C910 1.385 . S
C912 C910 1.478 . S
C912 C914 1.381 . S
C912 C918 1.383 . S
C913 C909 1.495 . S
C913 H919 0.959 . S
C913 H920 0.961 . S
C913 H921 0.960 . S
C914 C912 1.381 . S
C914 C915 1.394 . S
C914 H922 0.930 . S
C915 C914 1.394 . S
C915 C916 1.383 . S
C915 H923 0.929 . S
C916 C915 1.383 . S
C916 C917 1.377 . S
C917 H901 0.930 . S
C917 C916 1.377 . S
C917 C918 1.379 . S
C918 H902 0.931 . S
C918 C912 1.383 . S
C918 C917 1.379 . S
H919 C913 0.959 . S
H920 C913 0.961 . S
H921 C913 0.960 . S
H922 C914 0.930 . S
H923 C915 0.929 . S
H924 C932 0.929 . S
H925 C934 0.930 . S
H926 C936 0.930 . S
H927 C939 0.929 . S
H928 C942 0.930 . S
H929 C944 0.960 . S
H930 C944 0.960 . S
H931 C944 0.960 . S
C932 H924 0.929 . S
C932 C933 1.377 . S
C932 C934 1.384 . S
C933 C932 1.377 . S
C933 C939 1.390 . S
C934 H925 0.930 . S
C934 C932 1.384 . S
C934 C935 1.372 . S
C935 C934 1.372 . S
C935 C936 1.400 . S
C935 C940 1.490 . S
C936 H926 0.930 . S
C936 C935 1.400 . S
C936 C939 1.386 . S
H937 C953 0.930 . S
H938 C954 0.931 . S
C939 H927 0.929 . S
C939 C933 1.390 . S
C939 C936 1.386 . S
C940 C935 1.490 . S
C940 C942 1.395 . S
C940 C943 1.403 . S
H941 C947 0.930 . S
C942 H928 0.930 . S
C942 C940 1.395 . S
C942 C945 1.403 . S
C943 C940 1.403 . S
C943 C944 1.524 . S
C943 C947 1.400 . S
C944 H929 0.960 . S
C944 H930 0.960 . S
C944 H931 0.960 . S
C944 C943 1.524 . S
C945 C942 1.403 . S
C945 C946 1.392 . S
C945 C949 1.495 . S
C946 C945 1.392 . S
C946 C947 1.385 . S
C946 C948 1.478 . S
C947 H941 0.930 . S
C947 C943 1.400 . S
C947 C946 1.385 . S
C948 C946 1.478 . S
C948 C950 1.381 . S
C948 C954 1.383 . S
C949 C945 1.495 . S
C949 H955 0.959 . S
C949 H956 0.961 . S
C949 H957 0.960 . S
C950 C948 1.381 . S
C950 C951 1.394 . S
C950 H958 0.930 . S
C951 C950 1.394 . S
C951 C952 1.383 . S
C951 H959 0.929 . S
C952 C951 1.383 . S
C952 C953 1.377 . S
C953 H937 0.930 . S
C953 C952 1.377 . S
C953 C954 1.379 . S
C954 H938 0.931 . S
C954 C948 1.383 . S
C954 C953 1.379 . S
H955 C949 0.959 . S
H956 C949 0.961 . S
H957 C949 0.960 . S
H958 C950 0.930 . S
H959 C951 0.929 . S
H960 C968 0.929 . S
H961 C970 0.930 . S
H962 C972 0.930 . S
H963 C975 0.929 . S
H964 C978 0.930 . S
H965 C980 0.960 . S
H966 C980 0.960 . S
H967 C980 0.960 . S
C968 H960 0.929 . S
C968 C969 1.377 . S
C968 C970 1.384 . S
C969 C968 1.377 . S
C969 C975 1.390 . S
C970 H961 0.930 . S
C970 C968 1.384 . S
C970 C971 1.372 . S
C971 C970 1.372 . S
C971 C972 1.400 . S
C971 C976 1.490 . S
C972 H962 0.930 . S
C972 C971 1.400 . S
C972 C975 1.386 . S
H973 C989 0.930 . S
H974 C990 0.931 . S
C975 H963 0.929 . S
C975 C969 1.390 . S
C975 C972 1.386 . S
C976 C971 1.490 . S
C976 C978 1.395 . S
C976 C979 1.403 . S
H977 C983 0.930 . S
C978 H964 0.930 . S
C978 C976 1.395 . S
C978 C981 1.403 . S
C979 C976 1.403 . S
C979 C980 1.524 . S
C979 C983 1.400 . S
C980 H965 0.960 . S
C980 H966 0.960 . S
C980 H967 0.960 . S
C980 C979 1.524 . S
C981 C978 1.403 . S
C981 C982 1.392 . S
C981 C985 1.495 . S
C982 C981 1.392 . S
C982 C983 1.385 . S
C982 C984 1.478 . S
C983 H977 0.930 . S
C983 C979 1.400 . S
C983 C982 1.385 . S
C984 C982 1.478 . S
C984 C986 1.381 . S
C984 C990 1.383 . S
C985 C981 1.495 . S
C985 H991 0.959 . S
C985 H992 0.961 . S
C985 H993 0.960 . S
C986 C984 1.381 . S
C986 C987 1.394 . S
C986 H994 0.930 . S
C987 C986 1.394 . S
C987 C988 1.383 . S
C987 H995 0.929 . S
C988 C987 1.383 . S
C988 C989 1.377 . S
C989 H973 0.930 . S
C989 C988 1.377 . S
C989 C990 1.379 . S
C990 H974 0.931 . S
C990 C984 1.383 . S
C990 C989 1.379 . S
H991 C985 0.959 . S
H992 C985 0.961 . S
H993 C985 0.960 . S
H994 C986 0.930 . S
H995 C987 0.929 . S
H996 C1004 0.929 . S
H997 C1006 0.930 . S
H998 C1008 0.930 . S
H999 C1011 0.929 . S
H1000 C1014 0.930 . S
H1001 C1016 0.960 . S
H1002 C1016 0.960 . S
H1003 C1016 0.960 . S
C1004 H996 0.929 . S
C1004 C1005 1.377 . S
C1004 C1006 1.384 . S
C1005 C1004 1.377 . S
C1005 C1011 1.390 . S
C1006 H997 0.930 . S
C1006 C1004 1.384 . S
C1006 C1007 1.372 . S
C1007 C1006 1.372 . S
C1007 C1008 1.400 . S
C1007 C1012 1.490 . S
C1008 H998 0.930 . S
C1008 C1007 1.400 . S
C1008 C1011 1.386 . S
H1009 C1025 0.930 . S
H1010 C1026 0.931 . S
C1011 H999 0.929 . S
C1011 C1005 1.390 . S
C1011 C1008 1.386 . S
C1012 C1007 1.490 . S
C1012 C1014 1.395 . S
C1012 C1015 1.403 . S
H1013 C1019 0.930 . S
C1014 H1000 0.930 . S
C1014 C1012 1.395 . S
C1014 C1017 1.403 . S
C1015 C1012 1.403 . S
C1015 C1016 1.524 . S
C1015 C1019 1.400 . S
C1016 H1001 0.960 . S
C1016 H1002 0.960 . S
C1016 H1003 0.960 . S
C1016 C1015 1.524 . S
C1017 C1014 1.403 . S
C1017 C1018 1.392 . S
C1017 C1021 1.495 . S
C1018 C1017 1.392 . S
C1018 C1019 1.385 . S
C1018 C1020 1.478 . S
C1019 H1013 0.930 . S
C1019 C1015 1.400 . S
C1019 C1018 1.385 . S
C1020 C1018 1.478 . S
C1020 C1022 1.381 . S
C1020 C1026 1.383 . S
C1021 C1017 1.495 . S
C1021 H1027 0.959 . S
C1021 H1028 0.961 . S
C1021 H1029 0.960 . S
C1022 C1020 1.381 . S
C1022 C1023 1.394 . S
C1022 H1030 0.930 . S
C1023 C1022 1.394 . S
C1023 C1024 1.383 . S
C1023 H1031 0.929 . S
C1024 C1023 1.383 . S
C1024 C1025 1.377 . S
C1025 H1009 0.930 . S
C1025 C1024 1.377 . S
C1025 C1026 1.379 . S
C1026 H1010 0.931 . S
C1026 C1020 1.383 . S
C1026 C1025 1.379 . S
H1027 C1021 0.959 . S
H1028 C1021 0.961 . S
H1029 C1021 0.960 . S
H1030 C1022 0.930 . S
H1031 C1023 0.929 . S
H1032 C1040 0.929 . S
H1033 C1042 0.930 . S
H1034 C1044 0.930 . S
H1035 C1047 0.929 . S
H1036 C1050 0.930 . S
H1037 C1052 0.960 . S
H1038 C1052 0.960 . S
H1039 C1052 0.960 . S
C1040 H1032 0.929 . S
C1040 C1041 1.377 . S
C1040 C1042 1.384 . S
C1041 C1040 1.377 . S
C1041 C1047 1.390 . S
C1042 H1033 0.930 . S
C1042 C1040 1.384 . S
C1042 C1043 1.372 . S
C1043 C1042 1.372 . S
C1043 C1044 1.400 . S
C1043 C1048 1.490 . S
C1044 H1034 0.930 . S
C1044 C1043 1.400 . S
C1044 C1047 1.386 . S
H1045 C1061 0.930 . S
H1046 C1062 0.931 . S
C1047 H1035 0.929 . S
C1047 C1041 1.390 . S
C1047 C1044 1.386 . S
C1048 C1043 1.490 . S
C1048 C1050 1.395 . S
C1048 C1051 1.403 . S
H1049 C1055 0.930 . S
C1050 H1036 0.930 . S
C1050 C1048 1.395 . S
C1050 C1053 1.403 . S
C1051 C1048 1.403 . S
C1051 C1052 1.524 . S
C1051 C1055 1.400 . S
C1052 H1037 0.960 . S
C1052 H1038 0.960 . S
C1052 H1039 0.960 . S
C1052 C1051 1.524 . S
C1053 C1050 1.403 . S
C1053 C1054 1.392 . S
C1053 C1057 1.495 . S
C1054 C1053 1.392 . S
C1054 C1055 1.385 . S
C1054 C1056 1.478 . S
C1055 H1049 0.930 . S
C1055 C1051 1.400 . S
C1055 C1054 1.385 . S
C1056 C1054 1.478 . S
C1056 C1058 1.381 . S
C1056 C1062 1.383 . S
C1057 C1053 1.495 . S
C1057 H1063 0.959 . S
C1057 H1064 0.961 . S
C1057 H1065 0.960 . S
C1058 C1056 1.381 . S
C1058 C1059 1.394 . S
C1058 H1066 0.930 . S
C1059 C1058 1.394 . S
C1059 C1060 1.383 . S
C1059 H1067 0.929 . S
C1060 C1059 1.383 . S
C1060 C1061 1.377 . S
C1061 H1045 0.930 . S
C1061 C1060 1.377 . S
C1061 C1062 1.379 . S
C1062 H1046 0.931 . S
C1062 C1056 1.383 . S
C1062 C1061 1.379 . S
H1063 C1057 0.959 . S
H1064 C1057 0.961 . S
H1065 C1057 0.960 . S
H1066 C1058 0.930 . S
H1067 C1059 0.929 . S
H1068 C1076 0.929 . S
H1069 C1078 0.930 . S
H1070 C1080 0.930 . S
H1071 C1083 0.929 . S
H1072 C1086 0.930 . S
H1073 C1088 0.960 . S
H1074 C1088 0.960 . S
H1075 C1088 0.960 . S
C1076 H1068 0.929 . S
C1076 C1077 1.377 . S
C1076 C1078 1.384 . S
C1077 C1076 1.377 . S
C1077 C1083 1.390 . S
C1078 H1069 0.930 . S
C1078 C1076 1.384 . S
C1078 C1079 1.372 . S
C1079 C1078 1.372 . S
C1079 C1080 1.400 . S
C1079 C1084 1.490 . S
C1080 H1070 0.930 . S
C1080 C1079 1.400 . S
C1080 C1083 1.386 . S
H1081 C1097 0.930 . S
H1082 C1098 0.931 . S
C1083 H1071 0.929 . S
C1083 C1077 1.390 . S
C1083 C1080 1.386 . S
C1084 C1079 1.490 . S
C1084 C1086 1.395 . S
C1084 C1087 1.403 . S
H1085 C1091 0.930 . S
C1086 H1072 0.930 . S
C1086 C1084 1.395 . S
C1086 C1089 1.403 . S
C1087 C1084 1.403 . S
C1087 C1088 1.524 . S
C1087 C1091 1.400 . S
C1088 H1073 0.960 . S
C1088 H1074 0.960 . S
C1088 H1075 0.960 . S
C1088 C1087 1.524 . S
C1089 C1086 1.403 . S
C1089 C1090 1.392 . S
C1089 C1093 1.495 . S
C1090 C1089 1.392 . S
C1090 C1091 1.385 . S
C1090 C1092 1.478 . S
C1091 H1085 0.930 . S
C1091 C1087 1.400 . S
C1091 C1090 1.385 . S
C1092 C1090 1.478 . S
C1092 C1094 1.381 . S
C1092 C1098 1.383 . S
C1093 C1089 1.495 . S
C1093 H1099 0.959 . S
C1093 H1100 0.961 . S
C1093 H1101 0.960 . S
C1094 C1092 1.381 . S
C1094 C1095 1.394 . S
C1094 H1102 0.930 . S
C1095 C1094 1.394 . S
C1095 C1096 1.383 . S
C1095 H1103 0.929 . S
C1096 C1095 1.383 . S
C1096 C1097 1.377 . S
C1097 H1081 0.930 . S
C1097 C1096 1.377 . S
C1097 C1098 1.379 . S
C1098 H1082 0.931 . S
C1098 C1092 1.383 . S
C1098 C1097 1.379 . S
H1099 C1093 0.959 . S
H1100 C1093 0.961 . S
H1101 C1093 0.960 . S
H1102 C1094 0.930 . S
H1103 C1095 0.929 . S
H1104 C1112 0.929 . S
H1105 C1114 0.930 . S
H1106 C1116 0.930 . S
H1107 C1119 0.929 . S
H1108 C1122 0.930 . S
H1109 C1124 0.960 . S
H1110 C1124 0.960 . S
H1111 C1124 0.960 . S
C1112 H1104 0.929 . S
C1112 C1113 1.377 . S
C1112 C1114 1.384 . S
C1113 C1112 1.377 . S
C1113 C1119 1.390 . S
C1114 H1105 0.930 . S
C1114 C1112 1.384 . S
C1114 C1115 1.372 . S
C1115 C1114 1.372 . S
C1115 C1116 1.400 . S
C1115 C1120 1.490 . S
C1116 H1106 0.930 . S
C1116 C1115 1.400 . S
C1116 C1119 1.386 . S
H1117 C1133 0.930 . S
H1118 C1134 0.931 . S
C1119 H1107 0.929 . S
C1119 C1113 1.390 . S
C1119 C1116 1.386 . S
C1120 C1115 1.490 . S
C1120 C1122 1.395 . S
C1120 C1123 1.403 . S
H1121 C1127 0.930 . S
C1122 H1108 0.930 . S
C1122 C1120 1.395 . S
C1122 C1125 1.403 . S
C1123 C1120 1.403 . S
C1123 C1124 1.524 . S
C1123 C1127 1.400 . S
C1124 H1109 0.960 . S
C1124 H1110 0.960 . S
C1124 H1111 0.960 . S
C1124 C1123 1.524 . S
C1125 C1122 1.403 . S
C1125 C1126 1.392 . S
C1125 C1129 1.495 . S
C1126 C1125 1.392 . S
C1126 C1127 1.385 . S
C1126 C1128 1.478 . S
C1127 H1121 0.930 . S
C1127 C1123 1.400 . S
C1127 C1126 1.385 . S
C1128 C1126 1.478 . S
C1128 C1130 1.381 . S
C1128 C1134 1.383 . S
C1129 C1125 1.495 . S
C1129 H1135 0.959 . S
C1129 H1136 0.961 . S
C1129 H1137 0.960 . S
C1130 C1128 1.381 . S
C1130 C1131 1.394 . S
C1130 H1138 0.930 . S
C1131 C1130 1.394 . S
C1131 C1132 1.383 . S
C1131 H1139 0.929 . S
C1132 C1131 1.383 . S
C1132 C1133 1.377 . S
C1133 H1117 0.930 . S
C1133 C1132 1.377 . S
C1133 C1134 1.379 . S
C1134 H1118 0.931 . S
C1134 C1128 1.383 . S
C1134 C1133 1.379 . S
H1135 C1129 0.959 . S
H1136 C1129 0.961 . S
H1137 C1129 0.960 . S
H1138 C1130 0.930 . S
H1139 C1131 0.929 . S
H1140 C1148 0.929 . S
H1141 C1150 0.930 . S
H1142 C1152 0.930 . S
H1143 C1155 0.929 . S
H1144 C1158 0.930 . S
H1145 C1160 0.960 . S
H1146 C1160 0.960 . S
H1147 C1160 0.960 . S
C1148 H1140 0.929 . S
C1148 C1149 1.377 . S
C1148 C1150 1.384 . S
C1149 C1148 1.377 . S
C1149 C1155 1.390 . S
C1150 H1141 0.930 . S
C1150 C1148 1.384 . S
C1150 C1151 1.372 . S
C1151 C1150 1.372 . S
C1151 C1152 1.400 . S
C1151 C1156 1.490 . S
C1152 H1142 0.930 . S
C1152 C1151 1.400 . S
C1152 C1155 1.386 . S
H1153 C1169 0.930 . S
H1154 C1170 0.931 . S
C1155 H1143 0.929 . S
C1155 C1149 1.390 . S
C1155 C1152 1.386 . S
C1156 C1151 1.490 . S
C1156 C1158 1.395 . S
C1156 C1159 1.403 . S
H1157 C1163 0.930 . S
C1158 H1144 0.930 . S
C1158 C1156 1.395 . S
C1158 C1161 1.403 . S
C1159 C1156 1.403 . S
C1159 C1160 1.524 . S
C1159 C1163 1.400 . S
C1160 H1145 0.960 . S
C1160 H1146 0.960 . S
C1160 H1147 0.960 . S
C1160 C1159 1.524 . S
C1161 C1158 1.403 . S
C1161 C1162 1.392 . S
C1161 C1165 1.495 . S
C1162 C1161 1.392 . S
C1162 C1163 1.385 . S
C1162 C1164 1.478 . S
C1163 H1157 0.930 . S
C1163 C1159 1.400 . S
C1163 C1162 1.385 . S
C1164 C1162 1.478 . S
C1164 C1166 1.381 . S
C1164 C1170 1.383 . S
C1165 C1161 1.495 . S
C1165 H1171 0.959 . S
C1165 H1172 0.961 . S
C1165 H1173 0.960 . S
C1166 C1164 1.381 . S
C1166 C1167 1.394 . S
C1166 H1174 0.930 . S
C1167 C1166 1.394 . S
C1167 C1168 1.383 . S
C1167 H1175 0.929 . S
C1168 C1167 1.383 . S
C1168 C1169 1.377 . S
C1169 H1153 0.930 . S
C1169 C1168 1.377 . S
C1169 C1170 1.379 . S
C1170 H1154 0.931 . S
C1170 C1164 1.383 . S
C1170 C1169 1.379 . S
H1171 C1165 0.959 . S
H1172 C1165 0.961 . S
H1173 C1165 0.960 . S
H1174 C1166 0.930 . S
H1175 C1167 0.929 . S
H1176 C1184 0.929 . S
H1177 C1186 0.930 . S
H1178 C1188 0.930 . S
H1179 C1191 0.929 . S
H1180 C1194 0.930 . S
H1181 C1196 0.960 . S
H1182 C1196 0.960 . S
H1183 C1196 0.960 . S
C1184 H1176 0.929 . S
C1184 C1185 1.377 . S
C1184 C1186 1.384 . S
C1185 C1184 1.377 . S
C1185 C1191 1.390 . S
C1186 H1177 0.930 . S
C1186 C1184 1.384 . S
C1186 C1187 1.372 . S
C1187 C1186 1.372 . S
C1187 C1188 1.400 . S
C1187 C1192 1.490 . S
C1188 H1178 0.930 . S
C1188 C1187 1.400 . S
C1188 C1191 1.386 . S
H1189 C1205 0.930 . S
H1190 C1206 0.931 . S
C1191 H1179 0.929 . S
C1191 C1185 1.390 . S
C1191 C1188 1.386 . S
C1192 C1187 1.490 . S
C1192 C1194 1.395 . S
C1192 C1195 1.403 . S
H1193 C1199 0.930 . S
C1194 H1180 0.930 . S
C1194 C1192 1.395 . S
C1194 C1197 1.403 . S
C1195 C1192 1.403 . S
C1195 C1196 1.524 . S
C1195 C1199 1.400 . S
C1196 H1181 0.960 . S
C1196 H1182 0.960 . S
C1196 H1183 0.960 . S
C1196 C1195 1.524 . S
C1197 C1194 1.403 . S
C1197 C1198 1.392 . S
C1197 C1201 1.495 . S
C1198 C1197 1.392 . S
C1198 C1199 1.385 . S
C1198 C1200 1.478 . S
C1199 H1193 0.930 . S
C1199 C1195 1.400 . S
C1199 C1198 1.385 . S
C1200 C1198 1.478 . S
C1200 C1202 1.381 . S
C1200 C1206 1.383 . S
C1201 C1197 1.495 . S
C1201 H1207 0.959 . S
C1201 H1208 0.961 . S
C1201 H1209 0.960 . S
C1202 C1200 1.381 . S
C1202 C1203 1.394 . S
C1202 H1210 0.930 . S
C1203 C1202 1.394 . S
C1203 C1204 1.383 . S
C1203 H1211 0.929 . S
C1204 C1203 1.383 . S
C1204 C1205 1.377 . S
C1205 H1189 0.930 . S
C1205 C1204 1.377 . S
C1205 C1206 1.379 . S
C1206 H1190 0.931 . S
C1206 C1200 1.383 . S
C1206 C1205 1.379 . S
H1207 C1201 0.959 . S
H1208 C1201 0.961 . S
H1209 C1201 0.960 . S
H1210 C1202 0.930 . S
H1211 C1203 0.929 . S
H1212 C1220 0.929 . S
H1213 C1222 0.930 . S
H1214 C1224 0.930 . S
H1215 C1227 0.929 . S
H1216 C1230 0.930 . S
H1217 C1232 0.960 . S
H1218 C1232 0.960 . S
H1219 C1232 0.960 . S
C1220 H1212 0.929 . S
C1220 C1221 1.377 . S
C1220 C1222 1.384 . S
C1221 C1220 1.377 . S
C1221 C1227 1.390 . S
C1222 H1213 0.930 . S
C1222 C1220 1.384 . S
C1222 C1223 1.372 . S
C1223 C1222 1.372 . S
C1223 C1224 1.400 . S
C1223 C1228 1.490 . S
C1224 H1214 0.930 . S
C1224 C1223 1.400 . S
C1224 C1227 1.386 . S
H1225 C1241 0.930 . S
H1226 C1242 0.931 . S
C1227 H1215 0.929 . S
C1227 C1221 1.390 . S
C1227 C1224 1.386 . S
C1228 C1223 1.490 . S
C1228 C1230 1.395 . S
C1228 C1231 1.403 . S
H1229 C1235 0.930 . S
C1230 H1216 0.930 . S
C1230 C1228 1.395 . S
C1230 C1233 1.403 . S
C1231 C1228 1.403 . S
C1231 C1232 1.524 . S
C1231 C1235 1.400 . S
C1232 H1217 0.960 . S
C1232 H1218 0.960 . S
C1232 H1219 0.960 . S
C1232 C1231 1.524 . S
C1233 C1230 1.403 . S
C1233 C1234 1.392 . S
C1233 C1237 1.495 . S
C1234 C1233 1.392 . S
C1234 C1235 1.385 . S
C1234 C1236 1.478 . S
C1235 H1229 0.930 . S
C1235 C1231 1.400 . S
C1235 C1234 1.385 . S
C1236 C1234 1.478 . S
C1236 C1238 1.381 . S
C1236 C1242 1.383 . S
C1237 C1233 1.495 . S
C1237 H1243 0.959 . S
C1237 H1244 0.961 . S
C1237 H1245 0.960 . S
C1238 C1236 1.381 . S
C1238 C1239 1.394 . S
C1238 H1246 0.930 . S
C1239 C1238 1.394 . S
C1239 C1240 1.383 . S
C1239 H1247 0.929 . S
C1240 C1239 1.383 . S
C1240 C1241 1.377 . S
C1241 H1225 0.930 . S
C1241 C1240 1.377 . S
C1241 C1242 1.379 . S
C1242 H1226 0.931 . S
C1242 C1236 1.383 . S
C1242 C1241 1.379 . S
H1243 C1237 0.959 . S
H1244 C1237 0.961 . S
H1245 C1237 0.960 . S
H1246 C1238 0.930 . S
H1247 C1239 0.929 . S
H1248 C1256 0.929 . S
H1249 C1258 0.930 . S
H1250 C1260 0.930 . S
H1251 C1263 0.929 . S
H1252 C1266 0.930 . S
H1253 C1268 0.960 . S
H1254 C1268 0.960 . S
H1255 C1268 0.960 . S
C1256 H1248 0.929 . S
C1256 C1257 1.377 . S
C1256 C1258 1.384 . S
C1257 C1256 1.377 . S
C1257 C1263 1.390 . S
C1258 H1249 0.930 . S
C1258 C1256 1.384 . S
C1258 C1259 1.372 . S
C1259 C1258 1.372 . S
C1259 C1260 1.400 . S
C1259 C1264 1.490 . S
C1260 H1250 0.930 . S
C1260 C1259 1.400 . S
C1260 C1263 1.386 . S
H1261 C1277 0.930 . S
H1262 C1278 0.931 . S
C1263 H1251 0.929 . S
C1263 C1257 1.390 . S
C1263 C1260 1.386 . S
C1264 C1259 1.490 . S
C1264 C1266 1.395 . S
C1264 C1267 1.403 . S
H1265 C1271 0.930 . S
C1266 H1252 0.930 . S
C1266 C1264 1.395 . S
C1266 C1269 1.403 . S
C1267 C1264 1.403 . S
C1267 C1268 1.524 . S
C1267 C1271 1.400 . S
C1268 H1253 0.960 . S
C1268 H1254 0.960 . S
C1268 H1255 0.960 . S
C1268 C1267 1.524 . S
C1269 C1266 1.403 . S
C1269 C1270 1.392 . S
C1269 C1273 1.495 . S
C1270 C1269 1.392 . S
C1270 C1271 1.385 . S
C1270 C1272 1.478 . S
C1271 H1265 0.930 . S
C1271 C1267 1.400 . S
C1271 C1270 1.385 . S
C1272 C1270 1.478 . S
C1272 C1274 1.381 . S
C1272 C1278 1.383 . S
C1273 C1269 1.495 . S
C1273 H1279 0.959 . S
C1273 H1280 0.961 . S
C1273 H1281 0.960 . S
C1274 C1272 1.381 . S
C1274 C1275 1.394 . S
C1274 H1282 0.930 . S
C1275 C1274 1.394 . S
C1275 C1276 1.383 . S
C1275 H1283 0.929 . S
C1276 C1275 1.383 . S
C1276 C1277 1.377 . S
C1277 H1261 0.930 . S
C1277 C1276 1.377 . S
C1277 C1278 1.379 . S
C1278 H1262 0.931 . S
C1278 C1272 1.383 . S
C1278 C1277 1.379 . S
H1279 C1273 0.959 . S
H1280 C1273 0.961 . S
H1281 C1273 0.960 . S
H1282 C1274 0.930 . S
H1283 C1275 0.929 . S
H1284 C1292 0.929 . S
H1285 C1294 0.930 . S
H1286 C1296 0.930 . S
H1287 C1299 0.929 . S
H1288 C1302 0.930 . S
H1289 C1304 0.960 . S
H1290 C1304 0.960 . S
H1291 C1304 0.960 . S
C1292 H1284 0.929 . S
C1292 C1293 1.377 . S
C1292 C1294 1.384 . S
C1293 C1292 1.377 . S
C1293 C1299 1.390 . S
C1294 H1285 0.930 . S
C1294 C1292 1.384 . S
C1294 C1295 1.372 . S
C1295 C1294 1.372 . S
C1295 C1296 1.400 . S
C1295 C1300 1.490 . S
C1296 H1286 0.930 . S
C1296 C1295 1.400 . S
C1296 C1299 1.386 . S
H1297 C1313 0.930 . S
H1298 C1314 0.931 . S
C1299 H1287 0.929 . S
C1299 C1293 1.390 . S
C1299 C1296 1.386 . S
C1300 C1295 1.490 . S
C1300 C1302 1.395 . S
C1300 C1303 1.403 . S
H1301 C1307 0.930 . S
C1302 H1288 0.930 . S
C1302 C1300 1.395 . S
C1302 C1305 1.403 . S
C1303 C1300 1.403 . S
C1303 C1304 1.524 . S
C1303 C1307 1.400 . S
C1304 H1289 0.960 . S
C1304 H1290 0.960 . S
C1304 H1291 0.960 . S
C1304 C1303 1.524 . S
C1305 C1302 1.403 . S
C1305 C1306 1.392 . S
C1305 C1309 1.495 . S
C1306 C1305 1.392 . S
C1306 C1307 1.385 . S
C1306 C1308 1.478 . S
C1307 H1301 0.930 . S
C1307 C1303 1.400 . S
C1307 C1306 1.385 . S
C1308 C1306 1.478 . S
C1308 C1310 1.381 . S
C1308 C1314 1.383 . S
C1309 C1305 1.495 . S
C1309 H1315 0.959 . S
C1309 H1316 0.961 . S
C1309 H1317 0.960 . S
C1310 C1308 1.381 . S
C1310 C1311 1.394 . S
C1310 H1318 0.930 . S
C1311 C1310 1.394 . S
C1311 C1312 1.383 . S
C1311 H1319 0.929 . S
C1312 C1311 1.383 . S
C1312 C1313 1.377 . S
C1313 H1297 0.930 . S
C1313 C1312 1.377 . S
C1313 C1314 1.379 . S
C1314 H1298 0.931 . S
C1314 C1308 1.383 . S
C1314 C1313 1.379 . S
H1315 C1309 0.959 . S
H1316 C1309 0.961 . S
H1317 C1309 0.960 . S
H1318 C1310 0.930 . S
H1319 C1311 0.929 . S
H1320 C1328 0.929 . S
H1321 C1330 0.930 . S
H1322 C1332 0.930 . S
H1323 C1335 0.929 . S
H1324 C1338 0.930 . S
H1325 C1340 0.960 . S
H1326 C1340 0.960 . S
H1327 C1340 0.960 . S
C1328 H1320 0.929 . S
C1328 C1329 1.377 . S
C1328 C1330 1.384 . S
C1329 C1328 1.377 . S
C1329 C1335 1.390 . S
C1330 H1321 0.930 . S
C1330 C1328 1.384 . S
C1330 C1331 1.372 . S
C1331 C1330 1.372 . S
C1331 C1332 1.400 . S
C1331 C1336 1.490 . S
C1332 H1322 0.930 . S
C1332 C1331 1.400 . S
C1332 C1335 1.386 . S
H1333 C1349 0.930 . S
H1334 C1350 0.931 . S
C1335 H1323 0.929 . S
C1335 C1329 1.390 . S
C1335 C1332 1.386 . S
C1336 C1331 1.490 . S
C1336 C1338 1.395 . S
C1336 C1339 1.403 . S
H1337 C1343 0.930 . S
C1338 H1324 0.930 . S
C1338 C1336 1.395 . S
C1338 C1341 1.403 . S
C1339 C1336 1.403 . S
C1339 C1340 1.524 . S
C1339 C1343 1.400 . S
C1340 H1325 0.960 . S
C1340 H1326 0.960 . S
C1340 H1327 0.960 . S
C1340 C1339 1.524 . S
C1341 C1338 1.403 . S
C1341 C1342 1.392 . S
C1341 C1345 1.495 . S
C1342 C1341 1.392 . S
C1342 C1343 1.385 . S
C1342 C1344 1.478 . S
C1343 H1337 0.930 . S
C1343 C1339 1.400 . S
C1343 C1342 1.385 . S
C1344 C1342 1.478 . S
C1344 C1346 1.381 . S
C1344 C1350 1.383 . S
C1345 C1341 1.495 . S
C1345 H1351 0.959 . S
C1345 H1352 0.961 . S
C1345 H1353 0.960 . S
C1346 C1344 1.381 . S
C1346 C1347 1.394 . S
C1346 H1354 0.930 . S
C1347 C1346 1.394 . S
C1347 C1348 1.383 . S
C1347 H1355 0.929 . S
C1348 C1347 1.383 . S
C1348 C1349 1.377 . S
C1349 H1333 0.930 . S
C1349 C1348 1.377 . S
C1349 C1350 1.379 . S
C1350 H1334 0.931 . S
C1350 C1344 1.383 . S
C1350 C1349 1.379 . S
H1351 C1345 0.959 . S
H1352 C1345 0.961 . S
H1353 C1345 0.960 . S
H1354 C1346 0.930 . S
H1355 C1347 0.929 . S
H1356 C1364 0.929 . S
H1357 C1366 0.930 . S
H1358 C1368 0.930 . S
H1359 C1371 0.929 . S
H1360 C1374 0.930 . S
H1361 C1376 0.960 . S
H1362 C1376 0.960 . S
H1363 C1376 0.960 . S
C1364 H1356 0.929 . S
C1364 C1365 1.377 . S
C1364 C1366 1.384 . S
C1365 C1364 1.377 . S
C1365 C1371 1.390 . S
C1366 H1357 0.930 . S
C1366 C1364 1.384 . S
C1366 C1367 1.372 . S
C1367 C1366 1.372 . S
C1367 C1368 1.400 . S
C1367 C1372 1.490 . S
C1368 H1358 0.930 . S
C1368 C1367 1.400 . S
C1368 C1371 1.386 . S
H1369 C1385 0.930 . S
H1370 C1386 0.931 . S
C1371 H1359 0.929 . S
C1371 C1365 1.390 . S
C1371 C1368 1.386 . S
C1372 C1367 1.490 . S
C1372 C1374 1.395 . S
C1372 C1375 1.403 . S
H1373 C1379 0.930 . S
C1374 H1360 0.930 . S
C1374 C1372 1.395 . S
C1374 C1377 1.403 . S
C1375 C1372 1.403 . S
C1375 C1376 1.524 . S
C1375 C1379 1.400 . S
C1376 H1361 0.960 . S
C1376 H1362 0.960 . S
C1376 H1363 0.960 . S
C1376 C1375 1.524 . S
C1377 C1374 1.403 . S
C1377 C1378 1.392 . S
C1377 C1381 1.495 . S
C1378 C1377 1.392 . S
C1378 C1379 1.385 . S
C1378 C1380 1.478 . S
C1379 H1373 0.930 . S
C1379 C1375 1.400 . S
C1379 C1378 1.385 . S
C1380 C1378 1.478 . S
C1380 C1382 1.381 . S
C1380 C1386 1.383 . S
C1381 C1377 1.495 . S
C1381 H1387 0.959 . S
C1381 H1388 0.961 . S
C1381 H1389 0.960 . S
C1382 C1380 1.381 . S
C1382 C1383 1.394 . S
C1382 H1390 0.930 . S
C1383 C1382 1.394 . S
C1383 C1384 1.383 . S
C1383 H1391 0.929 . S
C1384 C1383 1.383 . S
C1384 C1385 1.377 . S
C1385 H1369 0.930 . S
C1385 C1384 1.377 . S
C1385 C1386 1.379 . S
C1386 H1370 0.931 . S
C1386 C1380 1.383 . S
C1386 C1385 1.379 . S
H1387 C1381 0.959 . S
H1388 C1381 0.961 . S
H1389 C1381 0.960 . S
H1390 C1382 0.930 . S
H1391 C1383 0.929 . S
H1392 C1400 0.929 . S
H1393 C1402 0.930 . S
H1394 C1404 0.930 . S
H1395 C1407 0.929 . S
H1396 C1410 0.930 . S
H1397 C1412 0.960 . S
H1398 C1412 0.960 . S
H1399 C1412 0.960 . S
C1400 H1392 0.929 . S
C1400 C1401 1.377 . S
C1400 C1402 1.384 . S
C1401 C1400 1.377 . S
C1401 C1407 1.390 . S
C1402 H1393 0.930 . S
C1402 C1400 1.384 . S
C1402 C1403 1.372 . S
C1403 C1402 1.372 . S
C1403 C1404 1.400 . S
C1403 C1408 1.490 . S
C1404 H1394 0.930 . S
C1404 C1403 1.400 . S
C1404 C1407 1.386 . S
H1405 C1421 0.930 . S
H1406 C1422 0.931 . S
C1407 H1395 0.929 . S
C1407 C1401 1.390 . S
C1407 C1404 1.386 . S
C1408 C1403 1.490 . S
C1408 C1410 1.395 . S
C1408 C1411 1.403 . S
H1409 C1415 0.930 . S
C1410 H1396 0.930 . S
C1410 C1408 1.395 . S
C1410 C1413 1.403 . S
C1411 C1408 1.403 . S
C1411 C1412 1.524 . S
C1411 C1415 1.400 . S
C1412 H1397 0.960 . S
C1412 H1398 0.960 . S
C1412 H1399 0.960 . S
C1412 C1411 1.524 . S
C1413 C1410 1.403 . S
C1413 C1414 1.392 . S
C1413 C1417 1.495 . S
C1414 C1413 1.392 . S
C1414 C1415 1.385 . S
C1414 C1416 1.478 . S
C1415 H1409 0.930 . S
C1415 C1411 1.400 . S
C1415 C1414 1.385 . S
C1416 C1414 1.478 . S
C1416 C1418 1.381 . S
C1416 C1422 1.383 . S
C1417 C1413 1.495 . S
C1417 H1423 0.959 . S
C1417 H1424 0.961 . S
C1417 H1425 0.960 . S
C1418 C1416 1.381 . S
C1418 C1419 1.394 . S
C1418 H1426 0.930 . S
C1419 C1418 1.394 . S
C1419 C1420 1.383 . S
C1419 H1427 0.929 . S
C1420 C1419 1.383 . S
C1420 C1421 1.377 . S
C1421 H1405 0.930 . S
C1421 C1420 1.377 . S
C1421 C1422 1.379 . S
C1422 H1406 0.931 . S
C1422 C1416 1.383 . S
C1422 C1421 1.379 . S
H1423 C1417 0.959 . S
H1424 C1417 0.961 . S
H1425 C1417 0.960 . S
H1426 C1418 0.930 . S
H1427 C1419 0.929 . S
H1428 C1436 0.929 . S
H1429 C1438 0.930 . S
H1430 C1440 0.930 . S
H1431 C1443 0.929 . S
H1432 C1446 0.930 . S
H1433 C1448 0.960 . S
H1434 C1448 0.960 . S
H1435 C1448 0.960 . S
C1436 H1428 0.929 . S
C1436 C1437 1.377 . S
C1436 C1438 1.384 . S
C1437 C1436 1.377 . S
C1437 C1443 1.390 . S
C1438 H1429 0.930 . S
C1438 C1436 1.384 . S
C1438 C1439 1.372 . S
C1439 C1438 1.372 . S
C1439 C1440 1.400 . S
C1439 C1444 1.490 . S
C1440 H1430 0.930 . S
C1440 C1439 1.400 . S
C1440 C1443 1.386 . S
H1441 C1457 0.930 . S
H1442 C1458 0.931 . S
C1443 H1431 0.929 . S
C1443 C1437 1.390 . S
C1443 C1440 1.386 . S
C1444 C1439 1.490 . S
C1444 C1446 1.395 . S
C1444 C1447 1.403 . S
H1445 C1451 0.930 . S
C1446 H1432 0.930 . S
C1446 C1444 1.395 . S
C1446 C1449 1.403 . S
C1447 C1444 1.403 . S
C1447 C1448 1.524 . S
C1447 C1451 1.400 . S
C1448 H1433 0.960 . S
C1448 H1434 0.960 . S
C1448 H1435 0.960 . S
C1448 C1447 1.524 . S
C1449 C1446 1.403 . S
C1449 C1450 1.392 . S
C1449 C1453 1.495 . S
C1450 C1449 1.392 . S
C1450 C1451 1.385 . S
C1450 C1452 1.478 . S
C1451 H1445 0.930 . S
C1451 C1447 1.400 . S
C1451 C1450 1.385 . S
C1452 C1450 1.478 . S
C1452 C1454 1.381 . S
C1452 C1458 1.383 . S
C1453 C1449 1.495 . S
C1453 H1459 0.959 . S
C1453 H1460 0.961 . S
C1453 H1461 0.960 . S
C1454 C1452 1.381 . S
C1454 C1455 1.394 . S
C1454 H1462 0.930 . S
C1455 C1454 1.394 . S
C1455 C1456 1.383 . S
C1455 H1463 0.929 . S
C1456 C1455 1.383 . S
C1456 C1457 1.377 . S
C1457 H1441 0.930 . S
C1457 C1456 1.377 . S
C1457 C1458 1.379 . S
C1458 H1442 0.931 . S
C1458 C1452 1.383 . S
C1458 C1457 1.379 . S
H1459 C1453 0.959 . S
H1460 C1453 0.961 . S
H1461 C1453 0.960 . S
H1462 C1454 0.930 . S
H1463 C1455 0.929 . S
H1464 C1472 0.929 . S
H1465 C1474 0.930 . S
H1466 C1476 0.930 . S
H1467 C1479 0.929 . S
H1468 C1482 0.930 . S
H1469 C1484 0.960 . S
H1470 C1484 0.960 . S
H1471 C1484 0.960 . S
C1472 H1464 0.929 . S
C1472 C1473 1.377 . S
C1472 C1474 1.384 . S
C1473 C1472 1.377 . S
C1473 C1479 1.390 . S
C1474 H1465 0.930 . S
C1474 C1472 1.384 . S
C1474 C1475 1.372 . S
C1475 C1474 1.372 . S
C1475 C1476 1.400 . S
C1475 C1480 1.490 . S
C1476 H1466 0.930 . S
C1476 C1475 1.400 . S
C1476 C1479 1.386 . S
H1477 C1493 0.930 . S
H1478 C1494 0.931 . S
C1479 H1467 0.929 . S
C1479 C1473 1.390 . S
C1479 C1476 1.386 . S
C1480 C1475 1.490 . S
C1480 C1482 1.395 . S
C1480 C1483 1.403 . S
H1481 C1487 0.930 . S
C1482 H1468 0.930 . S
C1482 C1480 1.395 . S
C1482 C1485 1.403 . S
C1483 C1480 1.403 . S
C1483 C1484 1.524 . S
C1483 C1487 1.400 . S
C1484 H1469 0.960 . S
C1484 H1470 0.960 . S
C1484 H1471 0.960 . S
C1484 C1483 1.524 . S
C1485 C1482 1.403 . S
C1485 C1486 1.392 . S
C1485 C1489 1.495 . S
C1486 C1485 1.392 . S
C1486 C1487 1.385 . S
C1486 C1488 1.478 . S
C1487 H1481 0.930 . S
C1487 C1483 1.400 . S
C1487 C1486 1.385 . S
C1488 C1486 1.478 . S
C1488 C1490 1.381 . S
C1488 C1494 1.383 . S
C1489 C1485 1.495 . S
C1489 H1495 0.959 . S
C1489 H1496 0.961 . S
C1489 H1497 0.960 . S
C1490 C1488 1.381 . S
C1490 C1491 1.394 . S
C1490 H1498 0.930 . S
C1491 C1490 1.394 . S
C1491 C1492 1.383 . S
C1491 H1499 0.929 . S
C1492 C1491 1.383 . S
C1492 C1493 1.377 . S
C1493 H1477 0.930 . S
C1493 C1492 1.377 . S
C1493 C1494 1.379 . S
C1494 H1478 0.931 . S
C1494 C1488 1.383 . S
C1494 C1493 1.379 . S
H1495 C1489 0.959 . S
H1496 C1489 0.961 . S
H1497 C1489 0.960 . S
H1498 C1490 0.930 . S
H1499 C1491 0.929 . S
H1500 C1508 0.929 . S
H1501 C1510 0.930 . S
H1502 C1512 0.930 . S
H1503 C1515 0.929 . S
H1504 C1518 0.930 . S
H1505 C1520 0.960 . S
H1506 C1520 0.960 . S
H1507 C1520 0.960 . S
C1508 H1500 0.929 . S
C1508 C1509 1.377 . S
C1508 C1510 1.384 . S
C1509 C1508 1.377 . S
C1509 C1515 1.390 . S
C1510 H1501 0.930 . S
C1510 C1508 1.384 . S
C1510 C1511 1.372 . S
C1511 C1510 1.372 . S
C1511 C1512 1.400 . S
C1511 C1516 1.490 . S
C1512 H1502 0.930 . S
C1512 C1511 1.400 . S
C1512 C1515 1.386 . S
H1513 C1529 0.930 . S
H1514 C1530 0.931 . S
C1515 H1503 0.929 . S
C1515 C1509 1.390 . S
C1515 C1512 1.386 . S
C1516 C1511 1.490 . S
C1516 C1518 1.395 . S
C1516 C1519 1.403 . S
H1517 C1523 0.930 . S
C1518 H1504 0.930 . S
C1518 C1516 1.395 . S
C1518 C1521 1.403 . S
C1519 C1516 1.403 . S
C1519 C1520 1.524 . S
C1519 C1523 1.400 . S
C1520 H1505 0.960 . S
C1520 H1506 0.960 . S
C1520 H1507 0.960 . S
C1520 C1519 1.524 . S
C1521 C1518 1.403 . S
C1521 C1522 1.392 . S
C1521 C1525 1.495 . S
C1522 C1521 1.392 . S
C1522 C1523 1.385 . S
C1522 C1524 1.478 . S
C1523 H1517 0.930 . S
C1523 C1519 1.400 . S
C1523 C1522 1.385 . S
C1524 C1522 1.478 . S
C1524 C1526 1.381 . S
C1524 C1530 1.383 . S
C1525 C1521 1.495 . S
C1525 H1531 0.959 . S
C1525 H1532 0.961 . S
C1525 H1533 0.960 . S
C1526 C1524 1.381 . S
C1526 C1527 1.394 . S
C1526 H1534 0.930 . S
C1527 C1526 1.394 . S
C1527 C1528 1.383 . S
C1527 H1535 0.929 . S
C1528 C1527 1.383 . S
C1528 C1529 1.377 . S
C1529 H1513 0.930 . S
C1529 C1528 1.377 . S
C1529 C1530 1.379 . S
C1530 H1514 0.931 . S
C1530 C1524 1.383 . S
C1530 C1529 1.379 . S
H1531 C1525 0.959 . S
H1532 C1525 0.961 . S
H1533 C1525 0.960 . S
H1534 C1526 0.930 . S
H1535 C1527 0.929 . S
H1536 C1544 0.929 . S
H1537 C1546 0.930 . S
H1538 C1548 0.930 . S
H1539 C1551 0.929 . S
H1540 C1554 0.930 . S
H1541 C1556 0.960 . S
H1542 C1556 0.960 . S
H1543 C1556 0.960 . S
C1544 H1536 0.929 . S
C1544 C1545 1.377 . S
C1544 C1546 1.384 . S
C1545 C1544 1.377 . S
C1545 C1551 1.390 . S
C1546 H1537 0.930 . S
C1546 C1544 1.384 . S
C1546 C1547 1.372 . S
C1547 C1546 1.372 . S
C1547 C1548 1.400 . S
C1547 C1552 1.490 . S
C1548 H1538 0.930 . S
C1548 C1547 1.400 . S
C1548 C1551 1.386 . S
H1549 C1565 0.930 . S
H1550 C1566 0.931 . S
C1551 H1539 0.929 . S
C1551 C1545 1.390 . S
C1551 C1548 1.386 . S
C1552 C1547 1.490 . S
C1552 C1554 1.395 . S
C1552 C1555 1.403 . S
H1553 C1559 0.930 . S
C1554 H1540 0.930 . S
C1554 C1552 1.395 . S
C1554 C1557 1.403 . S
C1555 C1552 1.403 . S
C1555 C1556 1.524 . S
C1555 C1559 1.400 . S
C1556 H1541 0.960 . S
C1556 H1542 0.960 . S
C1556 H1543 0.960 . S
C1556 C1555 1.524 . S
C1557 C1554 1.403 . S
C1557 C1558 1.392 . S
C1557 C1561 1.495 . S
C1558 C1557 1.392 . S
C1558 C1559 1.385 . S
C1558 C1560 1.478 . S
C1559 H1553 0.930 . S
C1559 C1555 1.400 . S
C1559 C1558 1.385 . S
C1560 C1558 1.478 . S
C1560 C1562 1.381 . S
C1560 C1566 1.383 . S
C1561 C1557 1.495 . S
C1561 H1567 0.959 . S
C1561 H1568 0.961 . S
C1561 H1569 0.960 . S
C1562 C1560 1.381 . S
C1562 C1563 1.394 . S
C1562 H1570 0.930 . S
C1563 C1562 1.394 . S
C1563 C1564 1.383 . S
C1563 H1571 0.929 . S
C1564 C1563 1.383 . S
C1564 C1565 1.377 . S
C1565 H1549 0.930 . S
C1565 C1564 1.377 . S
C1565 C1566 1.379 . S
C1566 H1550 0.931 . S
C1566 C1560 1.383 . S
C1566 C1565 1.379 . S
H1567 C1561 0.959 . S
H1568 C1561 0.961 . S
H1569 C1561 0.960 . S
H1570 C1562 0.930 . S
H1571 C1563 0.929 . S
H1572 C1580 0.929 . S
H1573 C1582 0.930 . S
H1574 C1584 0.930 . S
H1575 C1587 0.929 . S
H1576 C1590 0.930 . S
H1577 C1592 0.960 . S
H1578 C1592 0.960 . S
H1579 C1592 0.960 . S
C1580 H1572 0.929 . S
C1580 C1581 1.377 . S
C1580 C1582 1.384 . S
C1581 C1580 1.377 . S
C1581 C1587 1.390 . S
C1582 H1573 0.930 . S
C1582 C1580 1.384 . S
C1582 C1583 1.372 . S
C1583 C1582 1.372 . S
C1583 C1584 1.400 . S
C1583 C1588 1.490 . S
C1584 H1574 0.930 . S
C1584 C1583 1.400 . S
C1584 C1587 1.386 . S
H1585 C1601 0.930 . S
H1586 C1602 0.931 . S
C1587 H1575 0.929 . S
C1587 C1581 1.390 . S
C1587 C1584 1.386 . S
C1588 C1583 1.490 . S
C1588 C1590 1.395 . S
C1588 C1591 1.403 . S
H1589 C1595 0.930 . S
C1590 H1576 0.930 . S
C1590 C1588 1.395 . S
C1590 C1593 1.403 . S
C1591 C1588 1.403 . S
C1591 C1592 1.524 . S
C1591 C1595 1.400 . S
C1592 H1577 0.960 . S
C1592 H1578 0.960 . S
C1592 H1579 0.960 . S
C1592 C1591 1.524 . S
C1593 C1590 1.403 . S
C1593 C1594 1.392 . S
C1593 C1597 1.495 . S
C1594 C1593 1.392 . S
C1594 C1595 1.385 . S
C1594 C1596 1.478 . S
C1595 H1589 0.930 . S
C1595 C1591 1.400 . S
C1595 C1594 1.385 . S
C1596 C1594 1.478 . S
C1596 C1598 1.381 . S
C1596 C1602 1.383 . S
C1597 C1593 1.495 . S
C1597 H1603 0.959 . S
C1597 H1604 0.961 . S
C1597 H1605 0.960 . S
C1598 C1596 1.381 . S
C1598 C1599 1.394 . S
C1598 H1606 0.930 . S
C1599 C1598 1.394 . S
C1599 C1600 1.383 . S
C1599 H1607 0.929 . S
C1600 C1599 1.383 . S
C1600 C1601 1.377 . S
C1601 H1585 0.930 . S
C1601 C1600 1.377 . S
C1601 C1602 1.379 . S
C1602 H1586 0.931 . S
C1602 C1596 1.383 . S
C1602 C1601 1.379 . S
H1603 C1597 0.959 . S
H1604 C1597 0.961 . S
H1605 C1597 0.960 . S
H1606 C1598 0.930 . S
H1607 C1599 0.929 . S
H1608 C1616 0.929 . S
H1609 C1618 0.930 . S
H1610 C1620 0.930 . S
H1611 C1623 0.929 . S
H1612 C1626 0.930 . S
H1613 C1628 0.960 . S
H1614 C1628 0.960 . S
H1615 C1628 0.960 . S
C1616 H1608 0.929 . S
C1616 C1617 1.377 . S
C1616 C1618 1.384 . S
C1617 C1616 1.377 . S
C1617 C1623 1.390 . S
C1618 H1609 0.930 . S
C1618 C1616 1.384 . S
C1618 C1619 1.372 . S
C1619 C1618 1.372 . S
C1619 C1620 1.400 . S
C1619 C1624 1.490 . S
C1620 H1610 0.930 . S
C1620 C1619 1.400 . S
C1620 C1623 1.386 . S
H1621 C1637 0.930 . S
H1622 C1638 0.931 . S
C1623 H1611 0.929 . S
C1623 C1617 1.390 . S
C1623 C1620 1.386 . S
C1624 C1619 1.490 . S
C1624 C1626 1.395 . S
C1624 C1627 1.403 . S
H1625 C1631 0.930 . S
C1626 H1612 0.930 . S
C1626 C1624 1.395 . S
C1626 C1629 1.403 . S
C1627 C1624 1.403 . S
C1627 C1628 1.524 . S
C1627 C1631 1.400 . S
C1628 H1613 0.960 . S
C1628 H1614 0.960 . S
C1628 H1615 0.960 . S
C1628 C1627 1.524 . S
C1629 C1626 1.403 . S
C1629 C1630 1.392 . S
C1629 C1633 1.495 . S
C1630 C1629 1.392 . S
C1630 C1631 1.385 . S
C1630 C1632 1.478 . S
C1631 H1625 0.930 . S
C1631 C1627 1.400 . S
C1631 C1630 1.385 . S
C1632 C1630 1.478 . S
C1632 C1634 1.381 . S
C1632 C1638 1.383 . S
C1633 C1629 1.495 . S
C1633 H1639 0.959 . S
C1633 H1640 0.961 . S
C1633 H1641 0.960 . S
C1634 C1632 1.381 . S
C1634 C1635 1.394 . S
C1634 H1642 0.930 . S
C1635 C1634 1.394 . S
C1635 C1636 1.383 . S
C1635 H1643 0.929 . S
C1636 C1635 1.383 . S
C1636 C1637 1.377 . S
C1637 H1621 0.930 . S
C1637 C1636 1.377 . S
C1637 C1638 1.379 . S
C1638 H1622 0.931 . S
C1638 C1632 1.383 . S
C1638 C1637 1.379 . S
H1639 C1633 0.959 . S
H1640 C1633 0.961 . S
H1641 C1633 0.960 . S
H1642 C1634 0.930 . S
H1643 C1635 0.929 . S
H1644 C1652 0.929 . S
H1645 C1654 0.930 . S
H1646 C1656 0.930 . S
H1647 C1659 0.929 . S
H1648 C1662 0.930 . S
H1649 C1664 0.960 . S
H1650 C1664 0.960 . S
H1651 C1664 0.960 . S
C1652 H1644 0.929 . S
C1652 C1653 1.377 . S
C1652 C1654 1.384 . S
C1653 C1652 1.377 . S
C1653 C1659 1.390 . S
C1654 H1645 0.930 . S
C1654 C1652 1.384 . S
C1654 C1655 1.372 . S
C1655 C1654 1.372 . S
C1655 C1656 1.400 . S
C1655 C1660 1.490 . S
C1656 H1646 0.930 . S
C1656 C1655 1.400 . S
C1656 C1659 1.386 . S
H1657 C1673 0.930 . S
H1658 C1674 0.931 . S
C1659 H1647 0.929 . S
C1659 C1653 1.390 . S
C1659 C1656 1.386 . S
C1660 C1655 1.490 . S
C1660 C1662 1.395 . S
C1660 C1663 1.403 . S
H1661 C1667 0.930 . S
C1662 H1648 0.930 . S
C1662 C1660 1.395 . S
C1662 C1665 1.403 . S
C1663 C1660 1.403 . S
C1663 C1664 1.524 . S
C1663 C1667 1.400 . S
C1664 H1649 0.960 . S
C1664 H1650 0.960 . S
C1664 H1651 0.960 . S
C1664 C1663 1.524 . S
C1665 C1662 1.403 . S
C1665 C1666 1.392 . S
C1665 C1669 1.495 . S
C1666 C1665 1.392 . S
C1666 C1667 1.385 . S
C1666 C1668 1.478 . S
C1667 H1661 0.930 . S
C1667 C1663 1.400 . S
C1667 C1666 1.385 . S
C1668 C1666 1.478 . S
C1668 C1670 1.381 . S
C1668 C1674 1.383 . S
C1669 C1665 1.495 . S
C1669 H1675 0.959 . S
C1669 H1676 0.961 . S
C1669 H1677 0.960 . S
C1670 C1668 1.381 . S
C1670 C1671 1.394 . S
C1670 H1678 0.930 . S
C1671 C1670 1.394 . S
C1671 C1672 1.383 . S
C1671 H1679 0.929 . S
C1672 C1671 1.383 . S
C1672 C1673 1.377 . S
C1673 H1657 0.930 . S
C1673 C1672 1.377 . S
C1673 C1674 1.379 . S
C1674 H1658 0.931 . S
C1674 C1668 1.383 . S
C1674 C1673 1.379 . S
H1675 C1669 0.959 . S
H1676 C1669 0.961 . S
H1677 C1669 0.960 . S
H1678 C1670 0.930 . S
H1679 C1671 0.929 . S
H1680 C1688 0.929 . S
H1681 C1690 0.930 . S
H1682 C1692 0.930 . S
H1683 C1695 0.929 . S
H1684 C1698 0.930 . S
H1685 C1700 0.960 . S
H1686 C1700 0.960 . S
H1687 C1700 0.960 . S
C1688 H1680 0.929 . S
C1688 C1689 1.377 . S
C1688 C1690 1.384 . S
C1689 C1688 1.377 . S
C1689 C1695 1.390 . S
C1690 H1681 0.930 . S
C1690 C1688 1.384 . S
C1690 C1691 1.372 . S
C1691 C1690 1.372 . S
C1691 C1692 1.400 . S
C1691 C1696 1.490 . S
C1692 H1682 0.930 . S
C1692 C1691 1.400 . S
C1692 C1695 1.386 . S
H1693 C1709 0.930 . S
H1694 C1710 0.931 . S
C1695 H1683 0.929 . S
C1695 C1689 1.390 . S
C1695 C1692 1.386 . S
C1696 C1691 1.490 . S
C1696 C1698 1.395 . S
C1696 C1699 1.403 . S
H1697 C1703 0.930 . S
C1698 H1684 0.930 . S
C1698 C1696 1.395 . S
C1698 C1701 1.403 . S
C1699 C1696 1.403 . S
C1699 C1700 1.524 . S
C1699 C1703 1.400 . S
C1700 H1685 0.960 . S
C1700 H1686 0.960 . S
C1700 H1687 0.960 . S
C1700 C1699 1.524 . S
C1701 C1698 1.403 . S
C1701 C1702 1.392 . S
C1701 C1705 1.495 . S
C1702 C1701 1.392 . S
C1702 C1703 1.385 . S
C1702 C1704 1.478 . S
C1703 H1697 0.930 . S
C1703 C1699 1.400 . S
C1703 C1702 1.385 . S
C1704 C1702 1.478 . S
C1704 C1706 1.381 . S
C1704 C1710 1.383 . S
C1705 C1701 1.495 . S
C1705 H1711 0.959 . S
C1705 H1712 0.961 . S
C1705 H1713 0.960 . S
C1706 C1704 1.381 . S
C1706 C1707 1.394 . S
C1706 H1714 0.930 . S
C1707 C1706 1.394 . S
C1707 C1708 1.383 . S
C1707 H1715 0.929 . S
C1708 C1707 1.383 . S
C1708 C1709 1.377 . S
C1709 H1693 0.930 . S
C1709 C1708 1.377 . S
C1709 C1710 1.379 . S
C1710 H1694 0.931 . S
C1710 C1704 1.383 . S
C1710 C1709 1.379 . S
H1711 C1705 0.959 . S
H1712 C1705 0.961 . S
H1713 C1705 0.960 . S
H1714 C1706 0.930 . S
H1715 C1707 0.929 . S
H1716 C1724 0.929 . S
H1717 C1726 0.930 . S
H1718 C1728 0.930 . S
H1719 C1731 0.929 . S
H1720 C1734 0.930 . S
H1721 C1736 0.960 . S
H1722 C1736 0.960 . S
H1723 C1736 0.960 . S
C1724 H1716 0.929 . S
C1724 C1725 1.377 . S
C1724 C1726 1.384 . S
C1725 C1724 1.377 . S
C1725 C1731 1.390 . S
C1726 H1717 0.930 . S
C1726 C1724 1.384 . S
C1726 C1727 1.372 . S
C1727 C1726 1.372 . S
C1727 C1728 1.400 . S
C1727 C1732 1.490 . S
C1728 H1718 0.930 . S
C1728 C1727 1.400 . S
C1728 C1731 1.386 . S
H1729 C1745 0.930 . S
H1730 C1746 0.931 . S
C1731 H1719 0.929 . S
C1731 C1725 1.390 . S
C1731 C1728 1.386 . S
C1732 C1727 1.490 . S
C1732 C1734 1.395 . S
C1732 C1735 1.403 . S
H1733 C1739 0.930 . S
C1734 H1720 0.930 . S
C1734 C1732 1.395 . S
C1734 C1737 1.403 . S
C1735 C1732 1.403 . S
C1735 C1736 1.524 . S
C1735 C1739 1.400 . S
C1736 H1721 0.960 . S
C1736 H1722 0.960 . S
C1736 H1723 0.960 . S
C1736 C1735 1.524 . S
C1737 C1734 1.403 . S
C1737 C1738 1.392 . S
C1737 C1741 1.495 . S
C1738 C1737 1.392 . S
C1738 C1739 1.385 . S
C1738 C1740 1.478 . S
C1739 H1733 0.930 . S
C1739 C1735 1.400 . S
C1739 C1738 1.385 . S
C1740 C1738 1.478 . S
C1740 C1742 1.381 . S
C1740 C1746 1.383 . S
C1741 C1737 1.495 . S
C1741 H1747 0.959 . S
C1741 H1748 0.961 . S
C1741 H1749 0.960 . S
C1742 C1740 1.381 . S
C1742 C1743 1.394 . S
C1742 H1750 0.930 . S
C1743 C1742 1.394 . S
C1743 C1744 1.383 . S
C1743 H1751 0.929 . S
C1744 C1743 1.383 . S
C1744 C1745 1.377 . S
C1745 H1729 0.930 . S
C1745 C1744 1.377 . S
C1745 C1746 1.379 . S
C1746 H1730 0.931 . S
C1746 C1740 1.383 . S
C1746 C1745 1.379 . S
H1747 C1741 0.959 . S
H1748 C1741 0.961 . S
H1749 C1741 0.960 . S
H1750 C1742 0.930 . S
H1751 C1743 0.929 . S
H1752 C1760 0.929 . S
H1753 C1762 0.930 . S
H1754 C1764 0.930 . S
H1755 C1767 0.929 . S
H1756 C1770 0.930 . S
H1757 C1772 0.960 . S
H1758 C1772 0.960 . S
H1759 C1772 0.960 . S
C1760 H1752 0.929 . S
C1760 C1761 1.377 . S
C1760 C1762 1.384 . S
C1761 C1760 1.377 . S
C1761 C1767 1.390 . S
C1762 H1753 0.930 . S
C1762 C1760 1.384 . S
C1762 C1763 1.372 . S
C1763 C1762 1.372 . S
C1763 C1764 1.400 . S
C1763 C1768 1.490 . S
C1764 H1754 0.930 . S
C1764 C1763 1.400 . S
C1764 C1767 1.386 . S
H1765 C1781 0.930 . S
H1766 C1782 0.931 . S
C1767 H1755 0.929 . S
C1767 C1761 1.390 . S
C1767 C1764 1.386 . S
C1768 C1763 1.490 . S
C1768 C1770 1.395 . S
C1768 C1771 1.403 . S
H1769 C1775 0.930 . S
C1770 H1756 0.930 . S
C1770 C1768 1.395 . S
C1770 C1773 1.403 . S
C1771 C1768 1.403 . S
C1771 C1772 1.524 . S
C1771 C1775 1.400 . S
C1772 H1757 0.960 . S
C1772 H1758 0.960 . S
C1772 H1759 0.960 . S
C1772 C1771 1.524 . S
C1773 C1770 1.403 . S
C1773 C1774 1.392 . S
C1773 C1777 1.495 . S
C1774 C1773 1.392 . S
C1774 C1775 1.385 . S
C1774 C1776 1.478 . S
C1775 H1769 0.930 . S
C1775 C1771 1.400 . S
C1775 C1774 1.385 . S
C1776 C1774 1.478 . S
C1776 C1778 1.381 . S
C1776 C1782 1.383 . S
C1777 C1773 1.495 . S
C1777 H1783 0.959 . S
C1777 H1784 0.961 . S
C1777 H1785 0.960 . S
C1778 C1776 1.381 . S
C1778 C1779 1.394 . S
C1778 H1786 0.930 . S
C1779 C1778 1.394 . S
C1779 C1780 1.383 . S
C1779 H1787 0.929 . S
C1780 C1779 1.383 . S
C1780 C1781 1.377 . S
C1781 H1765 0.930 . S
C1781 C1780 1.377 . S
C1781 C1782 1.379 . S
C1782 H1766 0.931 . S
C1782 C1776 1.383 . S
C1782 C1781 1.379 . S
H1783 C1777 0.959 . S
H1784 C1777 0.961 . S
H1785 C1777 0.960 . S
H1786 C1778 0.930 . S
H1787 C1779 0.929 . S
H1788 C1796 0.929 . S
H1789 C1798 0.930 . S
H1790 C1800 0.930 . S
H1791 C1803 0.929 . S
H1792 C1806 0.930 . S
H1793 C1808 0.960 . S
H1794 C1808 0.960 . S
H1795 C1808 0.960 . S
C1796 H1788 0.929 . S
C1796 C1797 1.377 . S
C1796 C1798 1.384 . S
C1797 C1796 1.377 . S
C1797 C1803 1.390 . S
C1798 H1789 0.930 . S
C1798 C1796 1.384 . S
C1798 C1799 1.372 . S
C1799 C1798 1.372 . S
C1799 C1800 1.400 . S
C1799 C1804 1.490 . S
C1800 H1790 0.930 . S
C1800 C1799 1.400 . S
C1800 C1803 1.386 . S
H1801 C1817 0.930 . S
H1802 C1818 0.931 . S
C1803 H1791 0.929 . S
C1803 C1797 1.390 . S
C1803 C1800 1.386 . S
C1804 C1799 1.490 . S
C1804 C1806 1.395 . S
C1804 C1807 1.403 . S
H1805 C1811 0.930 . S
C1806 H1792 0.930 . S
C1806 C1804 1.395 . S
C1806 C1809 1.403 . S
C1807 C1804 1.403 . S
C1807 C1808 1.524 . S
C1807 C1811 1.400 . S
C1808 H1793 0.960 . S
C1808 H1794 0.960 . S
C1808 H1795 0.960 . S
C1808 C1807 1.524 . S
C1809 C1806 1.403 . S
C1809 C1810 1.392 . S
C1809 C1813 1.495 . S
C1810 C1809 1.392 . S
C1810 C1811 1.385 . S
C1810 C1812 1.478 . S
C1811 H1805 0.930 . S
C1811 C1807 1.400 . S
C1811 C1810 1.385 . S
C1812 C1810 1.478 . S
C1812 C1814 1.381 . S
C1812 C1818 1.383 . S
C1813 C1809 1.495 . S
C1813 H1819 0.959 . S
C1813 H1820 0.961 . S
C1813 H1821 0.960 . S
C1814 C1812 1.381 . S
C1814 C1815 1.394 . S
C1814 H1822 0.930 . S
C1815 C1814 1.394 . S
C1815 C1816 1.383 . S
C1815 H1823 0.929 . S
C1816 C1815 1.383 . S
C1816 C1817 1.377 . S
C1817 H1801 0.930 . S
C1817 C1816 1.377 . S
C1817 C1818 1.379 . S
C1818 H1802 0.931 . S
C1818 C1812 1.383 . S
C1818 C1817 1.379 . S
H1819 C1813 0.959 . S
H1820 C1813 0.961 . S
H1821 C1813 0.960 . S
H1822 C1814 0.930 . S
H1823 C1815 0.929 . S
H1824 C1832 0.929 . S
H1825 C1834 0.930 . S
H1826 C1836 0.930 . S
H1827 C1839 0.929 . S
H1828 C1842 0.930 . S
H1829 C1844 0.960 . S
H1830 C1844 0.960 . S
H1831 C1844 0.960 . S
C1832 H1824 0.929 . S
C1832 C1833 1.377 . S
C1832 C1834 1.384 . S
C1833 C1832 1.377 . S
C1833 C1839 1.390 . S
C1834 H1825 0.930 . S
C1834 C1832 1.384 . S
C1834 C1835 1.372 . S
C1835 C1834 1.372 . S
C1835 C1836 1.400 . S
C1835 C1840 1.490 . S
C1836 H1826 0.930 . S
C1836 C1835 1.400 . S
C1836 C1839 1.386 . S
H1837 C1853 0.930 . S
H1838 C1854 0.931 . S
C1839 H1827 0.929 . S
C1839 C1833 1.390 . S
C1839 C1836 1.386 . S
C1840 C1835 1.490 . S
C1840 C1842 1.395 . S
C1840 C1843 1.403 . S
H1841 C1847 0.930 . S
C1842 H1828 0.930 . S
C1842 C1840 1.395 . S
C1842 C1845 1.403 . S
C1843 C1840 1.403 . S
C1843 C1844 1.524 . S
C1843 C1847 1.400 . S
C1844 H1829 0.960 . S
C1844 H1830 0.960 . S
C1844 H1831 0.960 . S
C1844 C1843 1.524 . S
C1845 C1842 1.403 . S
C1845 C1846 1.392 . S
C1845 C1849 1.495 . S
C1846 C1845 1.392 . S
C1846 C1847 1.385 . S
C1846 C1848 1.478 . S
C1847 H1841 0.930 . S
C1847 C1843 1.400 . S
C1847 C1846 1.385 . S
C1848 C1846 1.478 . S
C1848 C1850 1.381 . S
C1848 C1854 1.383 . S
C1849 C1845 1.495 . S
C1849 H1855 0.959 . S
C1849 H1856 0.961 . S
C1849 H1857 0.960 . S
C1850 C1848 1.381 . S
C1850 C1851 1.394 . S
C1850 H1858 0.930 . S
C1851 C1850 1.394 . S
C1851 C1852 1.383 . S
C1851 H1859 0.929 . S
C1852 C1851 1.383 . S
C1852 C1853 1.377 . S
C1853 H1837 0.930 . S
C1853 C1852 1.377 . S
C1853 C1854 1.379 . S
C1854 H1838 0.931 . S
C1854 C1848 1.383 . S
C1854 C1853 1.379 . S
H1855 C1849 0.959 . S
H1856 C1849 0.961 . S
H1857 C1849 0.960 . S
H1858 C1850 0.930 . S
H1859 C1851 0.929 . S
H1860 C1868 0.929 . S
H1861 C1870 0.930 . S
H1862 C1872 0.930 . S
H1863 C1875 0.929 . S
H1864 C1878 0.930 . S
H1865 C1880 0.960 . S
H1866 C1880 0.960 . S
H1867 C1880 0.960 . S
C1868 H1860 0.929 . S
C1868 C1869 1.377 . S
C1868 C1870 1.384 . S
C1869 C1868 1.377 . S
C1869 C1875 1.390 . S
C1870 H1861 0.930 . S
C1870 C1868 1.384 . S
C1870 C1871 1.372 . S
C1871 C1870 1.372 . S
C1871 C1872 1.400 . S
C1871 C1876 1.490 . S
C1872 H1862 0.930 . S
C1872 C1871 1.400 . S
C1872 C1875 1.386 . S
H1873 C1889 0.930 . S
H1874 C1890 0.931 . S
C1875 H1863 0.929 . S
C1875 C1869 1.390 . S
C1875 C1872 1.386 . S
C1876 C1871 1.490 . S
C1876 C1878 1.395 . S
C1876 C1879 1.403 . S
H1877 C1883 0.930 . S
C1878 H1864 0.930 . S
C1878 C1876 1.395 . S
C1878 C1881 1.403 . S
C1879 C1876 1.403 . S
C1879 C1880 1.524 . S
C1879 C1883 1.400 . S
C1880 H1865 0.960 . S
C1880 H1866 0.960 . S
C1880 H1867 0.960 . S
C1880 C1879 1.524 . S
C1881 C1878 1.403 . S
C1881 C1882 1.392 . S
C1881 C1885 1.495 . S
C1882 C1881 1.392 . S
C1882 C1883 1.385 . S
C1882 C1884 1.478 . S
C1883 H1877 0.930 . S
C1883 C1879 1.400 . S
C1883 C1882 1.385 . S
C1884 C1882 1.478 . S
C1884 C1886 1.381 . S
C1884 C1890 1.383 . S
C1885 C1881 1.495 . S
C1885 H1891 0.959 . S
C1885 H1892 0.961 . S
C1885 H1893 0.960 . S
C1886 C1884 1.381 . S
C1886 C1887 1.394 . S
C1886 H1894 0.930 . S
C1887 C1886 1.394 . S
C1887 C1888 1.383 . S
C1887 H1895 0.929 . S
C1888 C1887 1.383 . S
C1888 C1889 1.377 . S
C1889 H1873 0.930 . S
C1889 C1888 1.377 . S
C1889 C1890 1.379 . S
C1890 H1874 0.931 . S
C1890 C1884 1.383 . S
C1890 C1889 1.379 . S
H1891 C1885 0.959 . S
H1892 C1885 0.961 . S
H1893 C1885 0.960 . S
H1894 C1886 0.930 . S
H1895 C1887 0.929 . S
H1896 C1904 0.929 . S
H1897 C1906 0.930 . S
H1898 C1908 0.930 . S
H1899 C1911 0.929 . S
H1900 C1914 0.930 . S
H1901 C1916 0.960 . S
H1902 C1916 0.960 . S
H1903 C1916 0.960 . S
C1904 H1896 0.929 . S
C1904 C1905 1.377 . S
C1904 C1906 1.384 . S
C1905 C1904 1.377 . S
C1905 C1911 1.390 . S
C1906 H1897 0.930 . S
C1906 C1904 1.384 . S
C1906 C1907 1.372 . S
C1907 C1906 1.372 . S
C1907 C1908 1.400 . S
C1907 C1912 1.490 . S
C1908 H1898 0.930 . S
C1908 C1907 1.400 . S
C1908 C1911 1.386 . S
H1909 C1925 0.930 . S
H1910 C1926 0.931 . S
C1911 H1899 0.929 . S
C1911 C1905 1.390 . S
C1911 C1908 1.386 . S
C1912 C1907 1.490 . S
C1912 C1914 1.395 . S
C1912 C1915 1.403 . S
H1913 C1919 0.930 . S
C1914 H1900 0.930 . S
C1914 C1912 1.395 . S
C1914 C1917 1.403 . S
C1915 C1912 1.403 . S
C1915 C1916 1.524 . S
C1915 C1919 1.400 . S
C1916 H1901 0.960 . S
C1916 H1902 0.960 . S
C1916 H1903 0.960 . S
C1916 C1915 1.524 . S
C1917 C1914 1.403 . S
C1917 C1918 1.392 . S
C1917 C1921 1.495 . S
C1918 C1917 1.392 . S
C1918 C1919 1.385 . S
C1918 C1920 1.478 . S
C1919 H1913 0.930 . S
C1919 C1915 1.400 . S
C1919 C1918 1.385 . S
C1920 C1918 1.478 . S
C1920 C1922 1.381 . S
C1920 C1926 1.383 . S
C1921 C1917 1.495 . S
C1921 H1927 0.959 . S
C1921 H1928 0.961 . S
C1921 H1929 0.960 . S
C1922 C1920 1.381 . S
C1922 C1923 1.394 . S
C1922 H1930 0.930 . S
C1923 C1922 1.394 . S
C1923 C1924 1.383 . S
C1923 H1931 0.929 . S
C1924 C1923 1.383 . S
C1924 C1925 1.377 . S
C1925 H1909 0.930 . S
C1925 C1924 1.377 . S
C1925 C1926 1.379 . S
C1926 H1910 0.931 . S
C1926 C1920 1.383 . S
C1926 C1925 1.379 . S
H1927 C1921 0.959 . S
H1928 C1921 0.961 . S
H1929 C1921 0.960 . S
H1930 C1922 0.930 . S
H1931 C1923 0.929 . S
H1932 C1940 0.929 . S
H1933 C1942 0.930 . S
H1934 C1944 0.930 . S
H1935 C1947 0.929 . S
H1936 C1950 0.930 . S
H1937 C1952 0.960 . S
H1938 C1952 0.960 . S
H1939 C1952 0.960 . S
C1940 H1932 0.929 . S
C1940 C1941 1.377 . S
C1940 C1942 1.384 . S
C1941 C1940 1.377 . S
C1941 C1947 1.390 . S
C1942 H1933 0.930 . S
C1942 C1940 1.384 . S
C1942 C1943 1.372 . S
C1943 C1942 1.372 . S
C1943 C1944 1.400 . S
C1943 C1948 1.490 . S
C1944 H1934 0.930 . S
C1944 C1943 1.400 . S
C1944 C1947 1.386 . S
H1945 C1961 0.930 . S
H1946 C1962 0.931 . S
C1947 H1935 0.929 . S
C1947 C1941 1.390 . S
C1947 C1944 1.386 . S
C1948 C1943 1.490 . S
C1948 C1950 1.395 . S
C1948 C1951 1.403 . S
H1949 C1955 0.930 . S
C1950 H1936 0.930 . S
C1950 C1948 1.395 . S
C1950 C1953 1.403 . S
C1951 C1948 1.403 . S
C1951 C1952 1.524 . S
C1951 C1955 1.400 . S
C1952 H1937 0.960 . S
C1952 H1938 0.960 . S
C1952 H1939 0.960 . S
C1952 C1951 1.524 . S
C1953 C1950 1.403 . S
C1953 C1954 1.392 . S
C1953 C1957 1.495 . S
C1954 C1953 1.392 . S
C1954 C1955 1.385 . S
C1954 C1956 1.478 . S
C1955 H1949 0.930 . S
C1955 C1951 1.400 . S
C1955 C1954 1.385 . S
C1956 C1954 1.478 . S
C1956 C1958 1.381 . S
C1956 C1962 1.383 . S
C1957 C1953 1.495 . S
C1957 H1963 0.959 . S
C1957 H1964 0.961 . S
C1957 H1965 0.960 . S
C1958 C1956 1.381 . S
C1958 C1959 1.394 . S
C1958 H1966 0.930 . S
C1959 C1958 1.394 . S
C1959 C1960 1.383 . S
C1959 H1967 0.929 . S
C1960 C1959 1.383 . S
C1960 C1961 1.377 . S
C1961 H1945 0.930 . S
C1961 C1960 1.377 . S
C1961 C1962 1.379 . S
C1962 H1946 0.931 . S
C1962 C1956 1.383 . S
C1962 C1961 1.379 . S
H1963 C1957 0.959 . S
H1964 C1957 0.961 . S
H1965 C1957 0.960 . S
H1966 C1958 0.930 . S
H1967 C1959 0.929 . S
H1968 C1976 0.929 . S
H1969 C1978 0.930 . S
H1970 C1980 0.930 . S
H1971 C1983 0.929 . S
H1972 C1986 0.930 . S
H1973 C1988 0.960 . S
H1974 C1988 0.960 . S
H1975 C1988 0.960 . S
C1976 H1968 0.929 . S
C1976 C1977 1.377 . S
C1976 C1978 1.384 . S
C1977 C1976 1.377 . S
C1977 C1983 1.390 . S
C1978 H1969 0.930 . S
C1978 C1976 1.384 . S
C1978 C1979 1.372 . S
C1979 C1978 1.372 . S
C1979 C1980 1.400 . S
C1979 C1984 1.490 . S
C1980 H1970 0.930 . S
C1980 C1979 1.400 . S
C1980 C1983 1.386 . S
H1981 C1997 0.930 . S
H1982 C1998 0.931 . S
C1983 H1971 0.929 . S
C1983 C1977 1.390 . S
C1983 C1980 1.386 . S
C1984 C1979 1.490 . S
C1984 C1986 1.395 . S
C1984 C1987 1.403 . S
H1985 C1991 0.930 . S
C1986 H1972 0.930 . S
C1986 C1984 1.395 . S
C1986 C1989 1.403 . S
C1987 C1984 1.403 . S
C1987 C1988 1.524 . S
C1987 C1991 1.400 . S
C1988 H1973 0.960 . S
C1988 H1974 0.960 . S
C1988 H1975 0.960 . S
C1988 C1987 1.524 . S
C1989 C1986 1.403 . S
C1989 C1990 1.392 . S
C1989 C1993 1.495 . S
C1990 C1989 1.392 . S
C1990 C1991 1.385 . S
C1990 C1992 1.478 . S
C1991 H1985 0.930 . S
C1991 C1987 1.400 . S
C1991 C1990 1.385 . S
C1992 C1990 1.478 . S
C1992 C1994 1.381 . S
C1992 C1998 1.383 . S
C1993 C1989 1.495 . S
C1993 H1999 0.959 . S
C1993 H2000 0.961 . S
C1993 H2001 0.960 . S
C1994 C1992 1.381 . S
C1994 C1995 1.394 . S
C1994 H2002 0.930 . S
C1995 C1994 1.394 . S
C1995 C1996 1.383 . S
C1995 H2003 0.929 . S
C1996 C1995 1.383 . S
C1996 C1997 1.377 . S
C1997 H1981 0.930 . S
C1997 C1996 1.377 . S
C1997 C1998 1.379 . S
C1998 H1982 0.931 . S
C1998 C1992 1.383 . S
C1998 C1997 1.379 . S
H1999 C1993 0.959 . S
H2000 C1993 0.961 . S
H2001 C1993 0.960 . S
H2002 C1994 0.930 . S
H2003 C1995 0.929 . S
H2004 C2012 0.929 . S
H2005 C2014 0.930 . S
H2006 C2016 0.930 . S
H2007 C2019 0.929 . S
H2008 C2022 0.930 . S
H2009 C2024 0.960 . S
H2010 C2024 0.960 . S
H2011 C2024 0.960 . S
C2012 H2004 0.929 . S
C2012 C2013 1.377 . S
C2012 C2014 1.384 . S
C2013 C2012 1.377 . S
C2013 C2019 1.390 . S
C2014 H2005 0.930 . S
C2014 C2012 1.384 . S
C2014 C2015 1.372 . S
C2015 C2014 1.372 . S
C2015 C2016 1.400 . S
C2015 C2020 1.490 . S
C2016 H2006 0.930 . S
C2016 C2015 1.400 . S
C2016 C2019 1.386 . S
H2017 C2033 0.930 . S
H2018 C2034 0.931 . S
C2019 H2007 0.929 . S
C2019 C2013 1.390 . S
C2019 C2016 1.386 . S
C2020 C2015 1.490 . S
C2020 C2022 1.395 . S
C2020 C2023 1.403 . S
H2021 C2027 0.930 . S
C2022 H2008 0.930 . S
C2022 C2020 1.395 . S
C2022 C2025 1.403 . S
C2023 C2020 1.403 . S
C2023 C2024 1.524 . S
C2023 C2027 1.400 . S
C2024 H2009 0.960 . S
C2024 H2010 0.960 . S
C2024 H2011 0.960 . S
C2024 C2023 1.524 . S
C2025 C2022 1.403 . S
C2025 C2026 1.392 . S
C2025 C2029 1.495 . S
C2026 C2025 1.392 . S
C2026 C2027 1.385 . S
C2026 C2028 1.478 . S
C2027 H2021 0.930 . S
C2027 C2023 1.400 . S
C2027 C2026 1.385 . S
C2028 C2026 1.478 . S
C2028 C2030 1.381 . S
C2028 C2034 1.383 . S
C2029 C2025 1.495 . S
C2029 H2035 0.959 . S
C2029 H2036 0.961 . S
C2029 H2037 0.960 . S
C2030 C2028 1.381 . S
C2030 C2031 1.394 . S
C2030 H2038 0.930 . S
C2031 C2030 1.394 . S
C2031 C2032 1.383 . S
C2031 H2039 0.929 . S
C2032 C2031 1.383 . S
C2032 C2033 1.377 . S
C2033 H2017 0.930 . S
C2033 C2032 1.377 . S
C2033 C2034 1.379 . S
C2034 H2018 0.931 . S
C2034 C2028 1.383 . S
C2034 C2033 1.379 . S
H2035 C2029 0.959 . S
H2036 C2029 0.961 . S
H2037 C2029 0.960 . S
H2038 C2030 0.930 . S
H2039 C2031 0.929 . S
C321 C289 1.732 . S
C340 C3 1.726 . S
C357 C23 1.736 . S
C376 C309 1.721 . S
C393 C265 1.650 . S
C412 C29 1.707 . S
C429 C274 1.852 . S
C448 C40 1.849 . S
C465 C276 1.766 . S
C484 C55 1.763 . S
C501 C70 1.683 . S
C520 C287 1.740 . S
C537 C304 1.689 . S
C556 C81 1.747 . S
C573 C94 1.770 . S
C592 C270 1.735 . S
C609 C109 1.664 . S
C628 C252 1.666 . S
C645 C211 1.777 . S
C664 C127 1.741 . S
C681 C140 1.715 . S
C700 C226 1.685 . S
C717 C235 1.741 . S
C736 C148 1.686 . S
C753 C153 1.725 . S
C772 C172 1.777 . S
C789 C114 1.717 . S
C808 C185 1.762 . S
C825 C198 1.734 . S
C844 C122 1.652 . S
C861 C135 1.651 . S
C880 C159 1.703 . S
C897 C18 1.661 . S
C916 C237 1.717 . S
C933 C183 1.824 . S
C952 C92 1.824 . S
C969 C53 1.805 . S
C988 C196 1.795 . S
C1005 C157 1.789 . S
C1024 C75 1.721 . S
C1041 C79 1.822 . S
C1060 C170 1.818 . S
C1077 C42 1.827 . S
C1096 C209 1.823 . S
C1113 C1 1.782 . S
C1132 C231 1.743 . S
C1149 C27 1.768 . S
C1168 C257 1.719 . S
C1185 C88 1.786 . S
C1204 C261 1.753 . S
C1221 C278 1.769 . S
C1240 C101 1.758 . S
C1257 C296 1.764 . S
C1276 C62 1.764 . S
C1293 C302 1.732 . S
C1312 C66 1.743 . S
C1329 C36 1.817 . S
C1348 C300 1.782 . S
C1365 C44 1.723 . S
C1384 C263 1.682 . S
C1401 C10 1.808 . S
C1420 C283 1.800 . S
C1437 C291 1.710 . S
C1456 C16 1.669 . S
C1473 C133 1.722 . S
C1492 C179 1.777 . S
C1509 C144 1.797 . S
C1528 C192 1.849 . S
C1545 C105 1.730 . S
C1564 C205 1.770 . S
C1581 C120 1.698 . S
C1600 C166 1.754 . S
C1617 C118 1.750 . S
C1636 C248 1.743 . S
C1653 C218 1.835 . S
C1672 C131 1.800 . S
C1689 C146 1.726 . S
C1708 C222 1.744 . S
C1725 C107 1.660 . S
C1744 C239 1.719 . S
C1761 C161 1.709 . S
C1780 C96 1.702 . S
C1797 C213 1.750 . S
C1816 C14 1.689 . S
C1833 C31 1.756 . S
C1852 C224 1.664 . S
C1869 C244 1.777 . S
C1888 C49 1.779 . S
C1905 C250 1.701 . S
C1924 C5 1.767 . S
C1941 C68 1.687 . S
C1960 C187 1.746 . S
C1977 C200 1.726 . S
C1996 C83 1.724 . S
C2013 C174 1.718 . S
C2032 C57 1.712 . S
