# Generated by pormake.
# Topology bcs, (6)-cn, num edge types: 1
# Building blocks:
#     Node 0, Type 0, BuildingBlock: FUNLAD_clean_sbu_0, # of connection points: 6
#     Node 1, Type 0, BuildingBlock: FUNLAD_clean_sbu_0, # of connection points: 6
#     Node 2, Type 0, BuildingBlock: FUNLAD_clean_sbu_0, # of connection points: 6
#     Node 3, Type 0, BuildingBlock: FUNLAD_clean_sbu_0, # of connection points: 6
#     Node 4, Type 0, BuildingBlock: FUNLAD_clean_sbu_0, # of connection points: 6
#     Node 5, Type 0, BuildingBlock: FUNLAD_clean_sbu_0, # of connection points: 6
#     Node 6, Type 0, BuildingBlock: FUNLAD_clean_sbu_0, # of connection points: 6
#     Node 7, Type 0, BuildingBlock: FUNLAD_clean_sbu_0, # of connection points: 6
#     Node 8, Type 0, BuildingBlock: FUNLAD_clean_sbu_0, # of connection points: 6
#     Node 9, Type 0, BuildingBlock: FUNLAD_clean_sbu_0, # of connection points: 6
#     Node 10, Type 0, BuildingBlock: FUNLAD_clean_sbu_0, # of connection points: 6
#     Node 11, Type 0, BuildingBlock: FUNLAD_clean_sbu_0, # of connection points: 6
#     Node 12, Type 0, BuildingBlock: FUNLAD_clean_sbu_0, # of connection points: 6
#     Node 13, Type 0, BuildingBlock: FUNLAD_clean_sbu_0, # of connection points: 6
#     Node 14, Type 0, BuildingBlock: FUNLAD_clean_sbu_0, # of connection points: 6
#     Node 15, Type 0, BuildingBlock: FUNLAD_clean_sbu_0, # of connection points: 6
#     Edge 16, Type (0, 0), BuildingBlock: ZUJKAS_clean_linker_0, # of connection points: 2
#     Edge 17, Type (0, 0), BuildingBlock: ZUJKAS_clean_linker_0, # of connection points: 2
#     Edge 18, Type (0, 0), BuildingBlock: ZUJKAS_clean_linker_0, # of connection points: 2
#     Edge 19, Type (0, 0), BuildingBlock: ZUJKAS_clean_linker_0, # of connection points: 2
#     Edge 20, Type (0, 0), BuildingBlock: ZUJKAS_clean_linker_0, # of connection points: 2
#     Edge 21, Type (0, 0), BuildingBlock: ZUJKAS_clean_linker_0, # of connection points: 2
#     Edge 22, Type (0, 0), BuildingBlock: ZUJKAS_clean_linker_0, # of connection points: 2
#     Edge 23, Type (0, 0), BuildingBlock: ZUJKAS_clean_linker_0, # of connection points: 2
#     Edge 24, Type (0, 0), BuildingBlock: ZUJKAS_clean_linker_0, # of connection points: 2
#     Edge 25, Type (0, 0), BuildingBlock: ZUJKAS_clean_linker_0, # of connection points: 2
#     Edge 26, Type (0, 0), BuildingBlock: ZUJKAS_clean_linker_0, # of connection points: 2
#     Edge 27, Type (0, 0), BuildingBlock: ZUJKAS_clean_linker_0, # of connection points: 2
#     Edge 28, Type (0, 0), BuildingBlock: ZUJKAS_clean_linker_0, # of connection points: 2
#     Edge 29, Type (0, 0), BuildingBlock: ZUJKAS_clean_linker_0, # of connection points: 2
#     Edge 30, Type (0, 0), BuildingBlock: ZUJKAS_clean_linker_0, # of connection points: 2
#     Edge 31, Type (0, 0), BuildingBlock: ZUJKAS_clean_linker_0, # of connection points: 2
#     Edge 32, Type (0, 0), BuildingBlock: ZUJKAS_clean_linker_0, # of connection points: 2
#     Edge 33, Type (0, 0), BuildingBlock: ZUJKAS_clean_linker_0, # of connection points: 2
#     Edge 34, Type (0, 0), BuildingBlock: ZUJKAS_clean_linker_0, # of connection points: 2
#     Edge 35, Type (0, 0), BuildingBlock: ZUJKAS_clean_linker_0, # of connection points: 2
#     Edge 36, Type (0, 0), BuildingBlock: ZUJKAS_clean_linker_0, # of connection points: 2
#     Edge 37, Type (0, 0), BuildingBlock: ZUJKAS_clean_linker_0, # of connection points: 2
#     Edge 38, Type (0, 0), BuildingBlock: ZUJKAS_clean_linker_0, # of connection points: 2
#     Edge 39, Type (0, 0), BuildingBlock: ZUJKAS_clean_linker_0, # of connection points: 2
#     Edge 40, Type (0, 0), BuildingBlock: ZUJKAS_clean_linker_0, # of connection points: 2
#     Edge 41, Type (0, 0), BuildingBlock: ZUJKAS_clean_linker_0, # of connection points: 2
#     Edge 42, Type (0, 0), BuildingBlock: ZUJKAS_clean_linker_0, # of connection points: 2
#     Edge 43, Type (0, 0), BuildingBlock: ZUJKAS_clean_linker_0, # of connection points: 2
#     Edge 44, Type (0, 0), BuildingBlock: ZUJKAS_clean_linker_0, # of connection points: 2
#     Edge 45, Type (0, 0), BuildingBlock: ZUJKAS_clean_linker_0, # of connection points: 2
#     Edge 46, Type (0, 0), BuildingBlock: ZUJKAS_clean_linker_0, # of connection points: 2
#     Edge 47, Type (0, 0), BuildingBlock: ZUJKAS_clean_linker_0, # of connection points: 2
#     Edge 48, Type (0, 0), BuildingBlock: ZUJKAS_clean_linker_0, # of connection points: 2
#     Edge 49, Type (0, 0), BuildingBlock: ZUJKAS_clean_linker_0, # of connection points: 2
#     Edge 50, Type (0, 0), BuildingBlock: ZUJKAS_clean_linker_0, # of connection points: 2
#     Edge 51, Type (0, 0), BuildingBlock: ZUJKAS_clean_linker_0, # of connection points: 2
#     Edge 52, Type (0, 0), BuildingBlock: ZUJKAS_clean_linker_0, # of connection points: 2
#     Edge 53, Type (0, 0), BuildingBlock: ZUJKAS_clean_linker_0, # of connection points: 2
#     Edge 54, Type (0, 0), BuildingBlock: ZUJKAS_clean_linker_0, # of connection points: 2
#     Edge 55, Type (0, 0), BuildingBlock: ZUJKAS_clean_linker_0, # of connection points: 2
#     Edge 56, Type (0, 0), BuildingBlock: ZUJKAS_clean_linker_0, # of connection points: 2
#     Edge 57, Type (0, 0), BuildingBlock: ZUJKAS_clean_linker_0, # of connection points: 2
#     Edge 58, Type (0, 0), BuildingBlock: ZUJKAS_clean_linker_0, # of connection points: 2
#     Edge 59, Type (0, 0), BuildingBlock: ZUJKAS_clean_linker_0, # of connection points: 2
#     Edge 60, Type (0, 0), BuildingBlock: ZUJKAS_clean_linker_0, # of connection points: 2
#     Edge 61, Type (0, 0), BuildingBlock: ZUJKAS_clean_linker_0, # of connection points: 2
#     Edge 62, Type (0, 0), BuildingBlock: ZUJKAS_clean_linker_0, # of connection points: 2
#     Edge 63, Type (0, 0), BuildingBlock: ZUJKAS_clean_linker_0, # of connection points: 2
# Relax obj value: 0.454
# Max RMSD: 0.281
# Mean RMSD: 0.239
data_MOF--net-bcs--node1-FUNLAD_clean_sbu_0--edge1-ZUJKAS_clean_linker_0
_symmetry_space_group_name_H-M    P1
_symmetry_Int_Tables_number       1
_symmetry_cell_setting            triclinic
loop_
_symmetry_equiv_pos_as_xyz
'x, y, z'
_cell_length_a     48.567616
_cell_length_b     47.818251
_cell_length_c     48.853777
_cell_angle_alpha  81.218922
_cell_angle_beta   81.011424
_cell_angle_gamma 76.616364
loop_
_atom_site_label
_atom_site_type_symbol
_atom_site_fract_x
_atom_site_fract_y
_atom_site_fract_z
_atom_type_partial_charge
C0 C 0.98129 0.03594 0.03351 0.0
N1 N 0.95672 0.96462 0.01161 0.0
C2 C 0.9433 0.95897 0.03777 0.0
C3 C 0.9204 0.94519 0.04189 0.0
C4 C 0.91105 0.93763 0.01881 0.0
C5 C 0.92467 0.94439 0.992 0.0
C6 C 0.94783 0.95773 0.98887 0.0
Zn7 Zn 0.99139 0.98274 0.00612 0.0
C8 C 0.98978 0.02639 0.95467 0.0
N9 N 0.06333 0.02166 0.99151 0.0
C10 C 0.07255 0.02782 0.01438 0.0
C11 C 0.0768 0.02744 0.96544 0.0
C12 C 0.10018 0.04052 0.96155 0.0
C13 C 0.11017 0.04728 0.98478 0.0
C14 C 0.09617 0.0404 0.01151 0.0
Zn15 Zn 0.02849 0.00377 0.99687 0.0
O16 O 0.96908 0.01598 0.0305 0.0
C17 C 0.02972 0.96053 0.04857 0.0
O18 O 0.0064 0.03596 0.0215 0.0
H19 H 0.06912 0.02233 0.94757 0.0
H20 H 0.95061 0.96482 0.05549 0.0
H21 H 0.06142 0.02322 0.03495 0.0
O22 O 0.00637 0.95721 0.04235 0.0
O23 O 0.04311 0.97793 0.03277 0.0
H24 H 0.95898 0.96217 0.96827 0.0
O25 O 0.05047 0.97116 0.97207 0.0
O26 O 0.01397 0.95001 0.98181 0.0
O27 O 0.01305 0.02992 0.96095 0.0
O28 O 0.9769 0.0083 0.97008 0.0
C29 C 0.03883 0.95069 0.96937 0.0
H30 H 0.91013 0.94038 0.06288 0.0
H31 H 0.91804 0.93862 0.97382 0.0
H32 H 0.10972 0.046 0.94044 0.0
H33 H 0.1032 0.04486 0.03005 0.0
C34 C 0.20378 0.78191 0.23841 0.0
N35 N 0.25431 0.70824 0.20613 0.0
C36 C 0.22908 0.70059 0.20582 0.0
C37 C 0.22587 0.68474 0.18537 0.0
C38 C 0.24864 0.67698 0.16463 0.0
C39 C 0.2744 0.68542 0.16501 0.0
C40 C 0.27688 0.70097 0.1863 0.0
Zn41 Zn 0.25549 0.73222 0.23707 0.0
C42 C 0.28593 0.7816 0.2163 0.0
N43 N 0.2522 0.78419 0.30148 0.0
C44 C 0.22956 0.79165 0.32119 0.0
C45 C 0.27743 0.79182 0.30179 0.0
C46 C 0.28061 0.80778 0.32216 0.0
C47 C 0.25775 0.81579 0.34277 0.0
C48 C 0.23197 0.80741 0.34235 0.0
Zn49 Zn 0.25106 0.76013 0.27063 0.0
O50 O 0.21759 0.76052 0.22592 0.0
C51 C 0.22053 0.71083 0.29132 0.0
O52 O 0.21302 0.78785 0.25929 0.0
H53 H 0.29538 0.78524 0.28636 0.0
H54 H 0.21114 0.7071 0.22129 0.0
H55 H 0.20974 0.78522 0.32063 0.0
O56 O 0.23025 0.70561 0.26641 0.0
O57 O 0.22617 0.73265 0.29972 0.0
H58 H 0.29669 0.70743 0.18684 0.0
O59 O 0.28919 0.73228 0.28143 0.0
O60 O 0.29341 0.70413 0.2488 0.0
O61 O 0.27577 0.78715 0.24104 0.0
O62 O 0.28085 0.75936 0.20819 0.0
C63 C 0.30288 0.7106 0.2693 0.0
H64 H 0.20547 0.67916 0.18542 0.0
H65 H 0.29237 0.67989 0.1492 0.0
H66 H 0.30104 0.81328 0.32212 0.0
H67 H 0.21391 0.81315 0.35801 0.0
C68 C 0.52903 0.95411 0.53488 0.0
N69 N 0.54673 0.03655 0.51313 0.0
C70 C 0.55296 0.03418 0.53969 0.0
C71 C 0.5742 0.04685 0.54542 0.0
C72 C 0.58934 0.06208 0.52362 0.0
C73 C 0.5824 0.06438 0.4964 0.0
C74 C 0.56082 0.05146 0.4916 0.0
Zn75 Zn 0.51714 0.01515 0.5061 0.0
C76 C 0.53602 0.98406 0.45637 0.0
N77 N 0.45672 0.96757 0.49387 0.0
C78 C 0.44347 0.95175 0.51528 0.0
C79 C 0.45027 0.97008 0.46737 0.0
C80 C 0.42987 0.95634 0.46155 0.0
C81 C 0.4158 0.9399 0.48319 0.0
C82 C 0.42273 0.93774 0.51039 0.0
Zn83 Zn 0.48616 0.98917 0.50087 0.0
O84 O 0.53717 0.97798 0.53027 0.0
C85 C 0.46716 0.02017 0.55058 0.0
O86 O 0.50715 0.95193 0.52478 0.0
H87 H 0.46084 0.98296 0.4507 0.0
H88 H 0.54175 0.02199 0.55646 0.0
H89 H 0.44892 0.95006 0.53619 0.0
O90 O 0.49007 0.02914 0.54214 0.0
O91 O 0.46018 0.00279 0.53705 0.0
H92 H 0.55556 0.05303 0.47064 0.0
O93 O 0.46563 0.02681 0.47717 0.0
O94 O 0.49691 0.05196 0.48152 0.0
O95 O 0.51273 0.97578 0.46455 0.0
O96 O 0.54351 0.00085 0.47022 0.0
C97 C 0.4746 0.05025 0.47191 0.0
H98 H 0.57916 0.04416 0.56665 0.0
H99 H 0.59343 0.07613 0.47905 0.0
H100 H 0.42485 0.95893 0.44035 0.0
H101 H 0.41251 0.9251 0.52761 0.0
C102 C 0.22357 0.30226 0.77034 0.0
N103 N 0.30949 0.26139 0.77058 0.0
C104 C 0.31572 0.28811 0.76441 0.0
C105 C 0.33877 0.29396 0.7746 0.0
C106 C 0.35548 0.27212 0.79135 0.0
C107 C 0.34933 0.24439 0.79634 0.0
C108 C 0.32607 0.23948 0.78571 0.0
Zn109 Zn 0.27354 0.25456 0.75889 0.0
C110 C 0.24136 0.22298 0.8046 0.0
N111 N 0.1985 0.24017 0.73406 0.0
C112 C 0.18192 0.26182 0.71867 0.0
C113 C 0.19204 0.2136 0.741 0.0
C114 C 0.16851 0.20771 0.73169 0.0
C115 C 0.1516 0.22932 0.7149 0.0
C116 C 0.15825 0.25683 0.7088 0.0
Zn117 Zn 0.23449 0.24715 0.74564 0.0
O118 O 0.25006 0.29419 0.77245 0.0
C119 C 0.26678 0.27869 0.6999 0.0
O120 O 0.21142 0.28653 0.75958 0.0
H121 H 0.20548 0.19675 0.75334 0.0
H122 H 0.3023 0.30514 0.75222 0.0
H123 H 0.18745 0.2828 0.71346 0.0
O124 O 0.28301 0.27573 0.71864 0.0
O125 O 0.24422 0.26874 0.7055 0.0
H126 H 0.3207 0.2184 0.79033 0.0
O127 O 0.25797 0.20761 0.73194 0.0
O128 O 0.29649 0.21498 0.74529 0.0
O129 O 0.22528 0.22565 0.78578 0.0
O130 O 0.26368 0.23331 0.79912 0.0
C131 C 0.28435 0.1993 0.73448 0.0
H132 H 0.34306 0.31555 0.76999 0.0
H133 H 0.36149 0.22705 0.80939 0.0
H134 H 0.16388 0.18633 0.73724 0.0
H135 H 0.14599 0.27401 0.69568 0.0
C136 C 0.94706 0.04252 0.48329 0.0
N137 N 0.98115 0.9538 0.48893 0.0
C138 C 0.9539 0.95034 0.49066 0.0
C139 C 0.94794 0.92895 0.47746 0.0
C140 C 0.9702 0.91112 0.4621 0.0
C141 C 0.99833 0.91401 0.46209 0.0
C142 C 0.00335 0.93562 0.47575 0.0
Zn143 Zn 0.98798 0.9895 0.50263 0.0
C144 C 0.02907 0.01711 0.46219 0.0
N145 N 0.00137 0.06506 0.53005 0.0
C146 C 0.97809 0.08463 0.53964 0.0
C147 C 0.02825 0.06849 0.53079 0.0
C148 C 0.03248 0.09171 0.54259 0.0
C149 C 0.00881 0.11177 0.5535 0.0
C150 C 0.98134 0.10834 0.55128 0.0
Zn151 Zn 0.99528 0.02897 0.51661 0.0
O152 O 0.95396 0.01542 0.4821 0.0
C153 C 0.95451 0.00144 0.55725 0.0
O154 O 0.96118 0.05409 0.4964 0.0
H155 H 0.04645 0.05269 0.52302 0.0
H156 H 0.93658 0.96501 0.50125 0.0
H157 H 0.95689 0.08147 0.53894 0.0
O158 O 0.95941 0.98382 0.53917 0.0
O159 O 0.96706 0.02249 0.5532 0.0
H160 H 0.02486 0.93875 0.47467 0.0
O161 O 0.02952 0.00313 0.53665 0.0
O162 O 0.02195 0.96405 0.52325 0.0
O163 O 0.02358 0.03508 0.47999 0.0
O164 O 0.01682 0.99582 0.46632 0.0
C165 C 0.03624 0.97592 0.53597 0.0
H166 H 0.926 0.9271 0.47842 0.0
H167 H 0.0161 0.90087 0.45037 0.0
H168 H 0.05408 0.09314 0.5442 0.0
H169 H 0.96248 0.12346 0.559 0.0
C170 C 0.28557 0.71513 0.78382 0.0
N171 N 0.29479 0.79879 0.74933 0.0
C172 C 0.29427 0.80351 0.77618 0.0
C173 C 0.30549 0.82593 0.78203 0.0
C174 C 0.31724 0.84395 0.76006 0.0
C175 C 0.31818 0.83817 0.73254 0.0
C176 C 0.30674 0.81536 0.72761 0.0
Zn177 Zn 0.2746 0.76782 0.7426 0.0
C178 C 0.30733 0.72822 0.70414 0.0
N179 N 0.22902 0.70467 0.732 0.0
C180 C 0.21648 0.68868 0.7538 0.0
C181 C 0.22955 0.69977 0.70521 0.0
C182 C 0.21726 0.67805 0.69948 0.0
C183 C 0.20432 0.66105 0.72151 0.0
C184 C 0.20401 0.66657 0.749 0.0
Zn185 Zn 0.24932 0.73557 0.73861 0.0
O186 O 0.29274 0.73925 0.77561 0.0
C187 C 0.2167 0.775 0.7773 0.0
O188 O 0.26735 0.70788 0.77184 0.0
H189 H 0.23988 0.71248 0.68819 0.0
H190 H 0.28464 0.79017 0.79316 0.0
H191 H 0.21636 0.69292 0.77495 0.0
O192 O 0.23933 0.78481 0.77066 0.0
O193 O 0.2143 0.75322 0.76661 0.0
H194 H 0.30684 0.81129 0.70641 0.0
O195 O 0.23149 0.76386 0.70539 0.0
O196 O 0.25609 0.79579 0.70958 0.0
O197 O 0.28474 0.71834 0.71087 0.0
O198 O 0.30955 0.7503 0.71447 0.0
C199 C 0.23816 0.78825 0.69743 0.0
H200 H 0.30485 0.82915 0.8036 0.0
H201 H 0.32692 0.85158 0.71497 0.0
H202 H 0.21839 0.67424 0.678 0.0
H203 H 0.19406 0.65408 0.76655 0.0
C204 C 0.46438 0.04951 0.01989 0.0
N205 N 0.53717 0.99467 0.04906 0.0
C206 C 0.54634 0.01926 0.05009 0.0
C207 C 0.56226 0.02082 0.07092 0.0
C208 C 0.56826 0.99712 0.09134 0.0
C209 C 0.55841 0.97203 0.09022 0.0
C210 C 0.54301 0.97114 0.06849 0.0
Zn211 Zn 0.51269 0.99596 0.01815 0.0
C212 C 0.46332 0.96594 0.03842 0.0
N213 N 0.45964 0.00442 0.95426 0.0
C214 C 0.45438 0.02765 0.93441 0.0
C215 C 0.45041 0.97983 0.95333 0.0
C216 C 0.43528 0.97788 0.93202 0.0
C217 C 0.42998 0.0012 0.91101 0.0
C218 C 0.4397 0.02638 0.91226 0.0
Zn219 Zn 0.48402 0.00324 0.98524 0.0
O220 O 0.48546 0.03436 0.0317 0.0
C221 C 0.53364 0.03302 0.96506 0.0
O222 O 0.45809 0.04159 0.99841 0.0
H223 H 0.45543 0.96128 0.96875 0.0
H224 H 0.54089 0.03804 0.03502 0.0
H225 H 0.46204 0.04693 0.93543 0.0
O226 O 0.53936 0.02167 0.98942 0.0
O227 O 0.51131 0.0289 0.95696 0.0
H228 H 0.53539 0.95185 0.0674 0.0
O229 O 0.5104 0.96469 0.9723 0.0
O230 O 0.53934 0.95791 0.00416 0.0
O231 O 0.45703 0.97785 0.01435 0.0
O232 O 0.48595 0.96979 0.04613 0.0
C233 C 0.53204 0.94978 0.98328 0.0
H234 H 0.56919 0.04067 0.07151 0.0
H235 H 0.56261 0.95345 0.10588 0.0
H236 H 0.42863 0.95787 0.93144 0.0
H237 H 0.43606 0.04473 0.89628 0.0
C238 C 0.22222 0.26297 0.30163 0.0
N239 N 0.23279 0.18666 0.26513 0.0
C240 C 0.23594 0.17002 0.29009 0.0
C241 C 0.22717 0.14375 0.29557 0.0
C242 C 0.21464 0.13482 0.27534 0.0
C243 C 0.21183 0.15219 0.24969 0.0
C244 C 0.22141 0.17806 0.24486 0.0
Zn245 Zn 0.24579 0.2249 0.25772 0.0
C246 C 0.20738 0.27034 0.22455 0.0
N247 N 0.27464 0.30382 0.24049 0.0
C248 C 0.28135 0.31481 0.26213 0.0
C249 C 0.27785 0.3171 0.21388 0.0
C250 C 0.28928 0.34184 0.20806 0.0
C251 C 0.29693 0.35314 0.22991 0.0
C252 C 0.29239 0.33983 0.25729 0.0
Zn253 Zn 0.2612 0.26588 0.24789 0.0
O254 O 0.22202 0.23802 0.29578 0.0
C255 C 0.29963 0.22096 0.28113 0.0
O256 O 0.23655 0.27891 0.28489 0.0
H257 H 0.27219 0.30811 0.19706 0.0
H258 H 0.24489 0.17733 0.30595 0.0
H259 H 0.27885 0.30376 0.2831 0.0
O260 O 0.28173 0.20614 0.27877 0.0
O261 O 0.29618 0.24713 0.27011 0.0
H262 H 0.21944 0.19144 0.22503 0.0
O263 O 0.28582 0.25205 0.21049 0.0
O264 O 0.26951 0.21212 0.22022 0.0
O265 O 0.22608 0.28455 0.22601 0.0
O266 O 0.21006 0.24442 0.23628 0.0
C267 C 0.28479 0.22757 0.20408 0.0
H268 H 0.22912 0.13109 0.31582 0.0
H269 H 0.20208 0.14594 0.23373 0.0
H270 H 0.29265 0.35173 0.18667 0.0
H271 H 0.29843 0.34797 0.27449 0.0
C272 C 0.45691 0.52624 0.97466 0.0
N273 N 0.49128 0.43739 0.9876 0.0
C274 C 0.46477 0.4338 0.9855 0.0
C275 C 0.46148 0.40978 0.97435 0.0
C276 C 0.4857 0.38904 0.96559 0.0
C277 C 0.51265 0.39249 0.96965 0.0
C278 C 0.51498 0.41706 0.98045 0.0
Zn279 Zn 0.49647 0.47517 0.9983 0.0
C280 C 0.53876 0.49968 0.9566 0.0
N281 N 0.50985 0.55334 0.02015 0.0
C282 C 0.48641 0.57335 0.02859 0.0
C283 C 0.53662 0.55712 0.02076 0.0
C284 C 0.54057 0.58107 0.03157 0.0
C285 C 0.51673 0.60149 0.0416 0.0
C286 C 0.48938 0.59779 0.03925 0.0
Zn287 Zn 0.50435 0.51567 0.00947 0.0
O288 O 0.46351 0.49888 0.97541 0.0
C289 C 0.46194 0.49112 0.05111 0.0
O290 O 0.47061 0.53882 0.98728 0.0
H291 H 0.55495 0.54096 0.0139 0.0
H292 H 0.44622 0.4502 0.99136 0.0
H293 H 0.4653 0.5699 0.02797 0.0
O294 O 0.46665 0.47221 0.03429 0.0
O295 O 0.47532 0.51158 0.04602 0.0
H296 H 0.53591 0.42036 0.98213 0.0
O297 O 0.53824 0.49202 0.03125 0.0
O298 O 0.5296 0.45205 0.0211 0.0
O299 O 0.53347 0.51912 0.97291 0.0
O300 O 0.52609 0.47871 0.96227 0.0
C301 C 0.54435 0.46463 0.03246 0.0
H302 H 0.44026 0.40839 0.97129 0.0
H303 H 0.53187 0.37688 0.9637 0.0
H304 H 0.56208 0.58269 0.03331 0.0
H305 H 0.47041 0.61317 0.04628 0.0
C306 C 0.7691 0.21791 0.29426 0.0
N307 N 0.78575 0.2967 0.25289 0.0
C308 C 0.78056 0.30579 0.27862 0.0
C309 C 0.79277 0.32772 0.284 0.0
C310 C 0.81045 0.34067 0.26269 0.0
C311 C 0.81552 0.33083 0.23631 0.0
C312 C 0.80288 0.3087 0.23184 0.0
Zn313 Zn 0.76636 0.26498 0.24649 0.0
C314 C 0.80434 0.21902 0.21742 0.0
N315 N 0.72337 0.19957 0.23596 0.0
C316 C 0.70806 0.18623 0.25769 0.0
C317 C 0.72667 0.19174 0.20984 0.0
C318 C 0.7143 0.16978 0.20475 0.0
C319 C 0.69866 0.15529 0.2268 0.0
C320 C 0.69559 0.16386 0.25359 0.0
Zn321 Zn 0.74289 0.23126 0.24221 0.0
O322 O 0.77686 0.24151 0.28482 0.0
C323 C 0.70473 0.27716 0.27114 0.0
O324 O 0.75449 0.20784 0.28029 0.0
H325 H 0.739 0.20251 0.19286 0.0
H326 H 0.7669 0.29598 0.29508 0.0
H327 H 0.70571 0.19277 0.27831 0.0
O328 O 0.72752 0.28678 0.26662 0.0
O329 O 0.70467 0.2531 0.26319 0.0
H330 H 0.80665 0.30121 0.2115 0.0
O331 O 0.73158 0.25563 0.20398 0.0
O332 O 0.75559 0.28795 0.20849 0.0
O333 O 0.78137 0.20973 0.22156 0.0
O334 O 0.80475 0.24274 0.22587 0.0
C335 C 0.74011 0.27891 0.19466 0.0
H336 H 0.78871 0.33414 0.30483 0.0
H337 H 0.82885 0.3403 0.21923 0.0
H338 H 0.71679 0.16448 0.18361 0.0
H339 H 0.68403 0.15319 0.27131 0.0
C340 C 0.97216 0.53931 0.52004 0.0
N341 N 0.04562 0.48931 0.551 0.0
C342 C 0.04964 0.516 0.55338 0.0
C343 C 0.06316 0.52014 0.57501 0.0
C344 C 0.07287 0.49661 0.59453 0.0
C345 C 0.06933 0.46901 0.59127 0.0
C346 C 0.05532 0.46585 0.56925 0.0
Zn347 Zn 0.02265 0.48779 0.51974 0.0
C348 C 0.97504 0.45555 0.53967 0.0
N349 N 0.97188 0.49149 0.45513 0.0
C350 C 0.96399 0.51461 0.43584 0.0
C351 C 0.9652 0.46557 0.45426 0.0
C352 C 0.94973 0.46217 0.4338 0.0
C353 C 0.94126 0.48552 0.41364 0.0
C354 C 0.94871 0.51201 0.41459 0.0
Zn355 Zn 0.99513 0.49286 0.4862 0.0
O356 O 0.9935 0.52523 0.53194 0.0
C357 C 0.04261 0.5254 0.46643 0.0
O358 O 0.96651 0.53067 0.49864 0.0
H359 H 0.97213 0.44726 0.46935 0.0
H360 H 0.04195 0.53438 0.53867 0.0
H361 H 0.96966 0.53498 0.43683 0.0
O362 O 0.048 0.51503 0.49114 0.0
O363 O 0.02134 0.51943 0.45788 0.0
H364 H 0.05185 0.44482 0.56697 0.0
O365 O 0.02409 0.4549 0.47419 0.0
O366 O 0.0513 0.4503 0.5072 0.0
O367 O 0.96918 0.46661 0.51527 0.0
O368 O 0.997 0.46049 0.54781 0.0
C369 C 0.04563 0.44118 0.48606 0.0
H370 H 0.06604 0.54165 0.57642 0.0
H371 H 0.07667 0.45033 0.6059 0.0
H372 H 0.94491 0.44122 0.43342 0.0
H373 H 0.94259 0.53046 0.39928 0.0
C374 C 0.7158 0.80692 0.26719 0.0
N375 N 0.80298 0.77041 0.26409 0.0
C376 C 0.8081 0.79756 0.25742 0.0
C377 C 0.83039 0.80495 0.26763 0.0
C378 C 0.84728 0.78438 0.28534 0.0
C379 C 0.84221 0.75617 0.29092 0.0
C380 C 0.81995 0.74959 0.2799 0.0
Zn381 Zn 0.76754 0.76178 0.25251 0.0
C382 C 0.73816 0.72639 0.29759 0.0
N383 N 0.69305 0.74488 0.22859 0.0
C384 C 0.67512 0.7661 0.21412 0.0
C385 C 0.68897 0.71728 0.23393 0.0
C386 C 0.66691 0.70984 0.22346 0.0
C387 C 0.64897 0.73095 0.20722 0.0
C388 C 0.65278 0.75958 0.20319 0.0
Zn389 Zn 0.72839 0.75352 0.24004 0.0
O390 O 0.74243 0.79938 0.2687 0.0
C391 C 0.75715 0.78917 0.19505 0.0
O392 O 0.70387 0.79143 0.25587 0.0
H393 H 0.70343 0.70079 0.24555 0.0
H394 H 0.79436 0.81381 0.24484 0.0
H395 H 0.67878 0.7879 0.21015 0.0
O396 O 0.77412 0.78619 0.21314 0.0
O397 O 0.73588 0.77719 0.20062 0.0
H398 H 0.8156 0.72809 0.28483 0.0
O399 O 0.75347 0.7156 0.22434 0.0
O400 O 0.79226 0.72417 0.23608 0.0
O401 O 0.72116 0.73 0.27946 0.0
O402 O 0.76011 0.73737 0.2919 0.0
C403 C 0.78021 0.70839 0.22524 0.0
H404 H 0.83385 0.82679 0.26221 0.0
H405 H 0.85441 0.73964 0.30466 0.0
H406 H 0.66439 0.6876 0.22741 0.0
H407 H 0.63955 0.77644 0.19062 0.0
C408 C 0.70811 0.27746 0.73255 0.0
N409 N 0.76088 0.20125 0.70743 0.0
C410 C 0.73595 0.19333 0.70638 0.0
C411 C 0.73377 0.1768 0.68609 0.0
C412 C 0.75731 0.16855 0.66625 0.0
C413 C 0.78286 0.17701 0.66755 0.0
C414 C 0.78427 0.19331 0.68865 0.0
Zn415 Zn 0.75986 0.22745 0.73715 0.0
C416 C 0.79077 0.2762 0.71543 0.0
N417 N 0.75117 0.28465 0.79827 0.0
C418 C 0.72775 0.29317 0.81681 0.0
C419 C 0.77631 0.29211 0.79941 0.0
C420 C 0.77866 0.30881 0.81949 0.0
C421 C 0.75505 0.31777 0.83901 0.0
C422 C 0.72929 0.30971 0.83768 0.0
Zn423 Zn 0.75206 0.25844 0.76855 0.0
O424 O 0.72281 0.25481 0.72257 0.0
C425 C 0.72104 0.20973 0.79022 0.0
O426 O 0.71552 0.28556 0.75338 0.0
H427 H 0.79492 0.28459 0.78504 0.0
H428 H 0.71736 0.20042 0.72093 0.0
H429 H 0.70802 0.28682 0.81566 0.0
O430 O 0.73343 0.20213 0.7667 0.0
O431 O 0.72486 0.23307 0.79724 0.0
H432 H 0.80382 0.20002 0.68973 0.0
O433 O 0.78904 0.23074 0.78335 0.0
O434 O 0.79652 0.2006 0.75198 0.0
O435 O 0.77868 0.28364 0.73909 0.0
O436 O 0.78675 0.25299 0.70834 0.0
C437 C 0.80387 0.20832 0.77303 0.0
H438 H 0.71347 0.17133 0.6854 0.0
H439 H 0.80141 0.17115 0.65244 0.0
H440 H 0.7991 0.31396 0.82021 0.0
H441 H 0.71067 0.31613 0.85253 0.0
C442 C 0.71124 0.76812 0.7139 0.0
N443 N 0.77779 0.79612 0.7389 0.0
C444 C 0.78411 0.80778 0.71213 0.0
C445 C 0.7963 0.83202 0.70664 0.0
C446 C 0.8018 0.84444 0.72893 0.0
C447 C 0.79475 0.83226 0.75634 0.0
C448 C 0.78284 0.8078 0.76089 0.0
Zn449 Zn 0.75979 0.76102 0.74632 0.0
C450 C 0.71199 0.76852 0.79364 0.0
N451 N 0.71993 0.68914 0.76418 0.0
C452 C 0.71665 0.67628 0.7422 0.0
C453 C 0.71104 0.67916 0.7909 0.0
C454 C 0.69778 0.65566 0.7963 0.0
C455 C 0.69412 0.64211 0.77401 0.0
C456 C 0.70397 0.65234 0.74671 0.0
Zn457 Zn 0.7381 0.72417 0.75676 0.0
O458 O 0.73008 0.78095 0.71815 0.0
C459 C 0.78599 0.71675 0.70943 0.0
O460 O 0.70987 0.74347 0.72732 0.0
H461 H 0.71407 0.68956 0.80804 0.0
H462 H 0.77967 0.79828 0.69502 0.0
H463 H 0.72366 0.68473 0.7211 0.0
O464 O 0.78779 0.74183 0.71347 0.0
O465 O 0.76767 0.70443 0.72501 0.0
H466 H 0.77769 0.79811 0.78201 0.0
O467 O 0.76631 0.70528 0.78654 0.0
O468 O 0.78943 0.7406 0.77429 0.0
O469 O 0.70884 0.74434 0.78837 0.0
O470 O 0.73158 0.77992 0.77926 0.0
C471 C 0.78646 0.71709 0.78925 0.0
H472 H 0.80121 0.84108 0.68519 0.0
H473 H 0.7989 0.84119 0.77399 0.0
H474 H 0.69055 0.64805 0.81766 0.0
H475 H 0.70128 0.64238 0.7291 0.0
C476 C 0.48542 0.53513 0.5305 0.0
N477 N 0.45414 0.46792 0.50899 0.0
C478 C 0.44156 0.46255 0.53554 0.0
C479 C 0.41692 0.45134 0.54053 0.0
C480 C 0.40489 0.44594 0.51796 0.0
C481 C 0.41813 0.4522 0.49076 0.0
C482 C 0.44294 0.46302 0.48675 0.0
Zn483 Zn 0.49039 0.48368 0.50171 0.0
C484 C 0.48702 0.52915 0.45142 0.0
N485 N 0.56471 0.51898 0.48266 0.0
C486 C 0.57632 0.52335 0.50486 0.0
C487 C 0.57669 0.52528 0.45604 0.0
C488 C 0.60094 0.53713 0.45095 0.0
C489 C 0.61331 0.54214 0.47348 0.0
C490 C 0.60084 0.53468 0.50074 0.0
Zn491 Zn 0.52848 0.50313 0.49005 0.0
O492 O 0.47203 0.51585 0.52824 0.0
C493 C 0.53182 0.45738 0.54024 0.0
O494 O 0.5098 0.53497 0.51658 0.0
H495 H 0.56714 0.52158 0.43872 0.0
H496 H 0.45083 0.46663 0.55288 0.0
H497 H 0.5664 0.51833 0.52588 0.0
O498 O 0.50721 0.45569 0.53583 0.0
O499 O 0.54484 0.47492 0.52413 0.0
H500 H 0.45333 0.46735 0.46579 0.0
O501 O 0.54671 0.47115 0.46334 0.0
O502 O 0.50904 0.45191 0.47517 0.0
O503 O 0.5115 0.53121 0.45589 0.0
O504 O 0.47413 0.51158 0.46762 0.0
C505 C 0.53326 0.45196 0.46098 0.0
H506 H 0.40789 0.44626 0.56192 0.0
H507 H 0.40952 0.4487 0.47272 0.0
H508 H 0.60931 0.54309 0.42952 0.0
H509 H 0.60973 0.53776 0.51877 0.0
C510 C 0.0265 0.44842 0.04162 0.0
N511 N 0.04514 0.5304 0.01556 0.0
C512 C 0.05018 0.5301 0.04223 0.0
C513 C 0.07043 0.54426 0.0477 0.0
C514 C 0.08586 0.55872 0.02552 0.0
C515 C 0.08024 0.55875 0.99818 0.0
C516 C 0.05957 0.54449 0.99366 0.0
Zn517 Zn 0.0164 0.50779 0.00879 0.0
C518 C 0.03876 0.47273 0.96187 0.0
N519 N 0.95791 0.45811 0.99611 0.0
C520 C 0.94217 0.44507 0.01771 0.0
C521 C 0.95403 0.45785 0.96919 0.0
C522 C 0.93353 0.44438 0.96312 0.0
C523 C 0.91671 0.43104 0.98493 0.0
C524 C 0.92127 0.4314 0.01256 0.0
Zn525 Zn 0.98662 0.48061 0.00324 0.0
O526 O 0.03585 0.47161 0.03506 0.0
C527 C 0.9643 0.51604 0.05006 0.0
O528 O 0.00469 0.44598 0.03159 0.0
H529 H 0.96652 0.46858 0.95232 0.0
H530 H 0.0387 0.51854 0.05931 0.0
H531 H 0.94558 0.44557 0.03897 0.0
O532 O 0.98825 0.52324 0.04318 0.0
O533 O 0.95753 0.49859 0.03639 0.0
H534 H 0.05522 0.54447 0.97262 0.0
O535 O 0.96919 0.51538 0.97489 0.0
O536 O 0.99634 0.54367 0.98243 0.0
O537 O 0.0161 0.46328 0.97019 0.0
O538 O 0.04416 0.49198 0.97424 0.0
C539 C 0.97669 0.53956 0.97012 0.0
H540 H 0.0744 0.54338 0.06906 0.0
H541 H 0.09155 0.56984 0.98054 0.0
H542 H 0.93043 0.44505 0.94153 0.0
H543 H 0.9089 0.42117 0.02997 0.0
H544 H 0.26683 0.21892 0.85184 0.0
H545 H 0.25362 0.19396 0.89817 0.0
H546 H 0.18674 0.16788 0.86613 0.0
H547 H 0.19925 0.193 0.82035 0.0
H548 H 0.16988 0.19248 0.91691 0.0
H549 H 0.26813 0.10498 0.92034 0.0
H550 H 0.27113 0.14234 0.91414 0.0
H551 H 0.25961 0.12672 0.88796 0.0
C552 C 0.24932 0.20782 0.85476 0.0
C553 C 0.23403 0.20791 0.83249 0.0
C554 C 0.24191 0.19356 0.88116 0.0
C555 C 0.21932 0.17905 0.88544 0.0
C556 C 0.20417 0.17912 0.86322 0.0
H557 H 0.15729 0.04181 0.94541 0.0
H558 H 0.18884 0.07553 0.93182 0.0
C559 C 0.21138 0.19344 0.83705 0.0
C560 C 0.21081 0.16337 0.91272 0.0
H561 H 0.22737 0.09694 0.95027 0.0
C562 C 0.18258 0.17192 0.92492 0.0
C563 C 0.22777 0.13687 0.92313 0.0
C564 C 0.25836 0.12696 0.91082 0.0
C565 C 0.16953 0.15297 0.94462 0.0
C566 C 0.18571 0.12512 0.95309 0.0
C567 C 0.21503 0.11819 0.94357 0.0
C568 C 0.17144 0.10121 0.9659 0.0
C569 C 0.13783 0.16186 0.95353 0.0
C570 C 0.15225 0.10333 0.9905 0.0
C571 C 0.13317 0.08477 0.99763 0.0
C572 C 0.13369 0.0632 0.98074 0.0
C573 C 0.15543 0.05892 0.9582 0.0
C574 C 0.17391 0.07791 0.9507 0.0
H575 H 0.12805 0.18274 0.94195 0.0
H576 H 0.12671 0.14508 0.95013 0.0
H577 H 0.13397 0.16447 0.97607 0.0
H578 H 0.15065 0.12055 0.00308 0.0
H579 H 0.11691 0.08866 0.0153 0.0
H580 H 0.01723 0.91114 0.07946 0.0
H581 H 0.04018 0.88354 0.11946 0.0
H582 H 0.09044 0.94791 0.11556 0.0
H583 H 0.06843 0.97492 0.07524 0.0
H584 H 0.12282 0.89516 0.11453 0.0
H585 H 0.03459 0.89295 0.20132 0.0
H586 H 0.02803 0.88072 0.17046 0.0
H587 H 0.0309 0.91769 0.16959 0.0
C588 C 0.03291 0.91952 0.08742 0.0
C589 C 0.04135 0.94492 0.07407 0.0
C590 C 0.04578 0.90392 0.11042 0.0
C591 C 0.06677 0.91387 0.12067 0.0
C592 C 0.07426 0.93989 0.10802 0.0
H593 H 0.17665 0.83667 0.2498 0.0
H594 H 0.13939 0.86974 0.22488 0.0
C595 C 0.06177 0.95519 0.08488 0.0
C596 C 0.08354 0.89566 0.14218 0.0
H597 H 0.07888 0.85934 0.20809 0.0
C598 C 0.11319 0.88767 0.1351 0.0
C599 C 0.07094 0.88595 0.16902 0.0
C600 C 0.03939 0.89499 0.17819 0.0
C601 C 0.13053 0.86973 0.15384 0.0
C602 C 0.11786 0.85915 0.1802 0.0
C603 C 0.08835 0.86751 0.18771 0.0
C604 C 0.13536 0.83817 0.19925 0.0
C605 C 0.16232 0.86173 0.14522 0.0
C606 C 0.14456 0.80947 0.19347 0.0
C607 C 0.16587 0.79074 0.20734 0.0
C608 C 0.17825 0.80044 0.22728 0.0
C609 C 0.16753 0.82866 0.23447 0.0
C610 C 0.14623 0.8475 0.22039 0.0
H611 H 0.1692 0.87509 0.1258 0.0
H612 H 0.17406 0.86436 0.1621 0.0
H613 H 0.16844 0.83863 0.14153 0.0
H614 H 0.13637 0.80205 0.1771 0.0
H615 H 0.17346 0.76901 0.20159 0.0
H616 H 0.41926 0.90919 0.43976 0.0
H617 H 0.38247 0.88786 0.42752 0.0
H618 H 0.32666 0.91524 0.50068 0.0
H619 H 0.36338 0.93728 0.51287 0.0
H620 H 0.35368 0.84482 0.45985 0.0
H621 H 0.28054 0.9509 0.43358 0.0
H622 H 0.31766 0.9483 0.43654 0.0
H623 H 0.29297 0.94333 0.46733 0.0
C624 C 0.39915 0.91076 0.45323 0.0
C625 C 0.39409 0.92518 0.47711 0.0
C626 C 0.37823 0.89839 0.44632 0.0
C627 C 0.3518 0.90024 0.46306 0.0
C628 C 0.34685 0.91387 0.48737 0.0
H629 H 0.24505 0.80401 0.39943 0.0
H630 H 0.26051 0.82559 0.43544 0.0
C631 C 0.3679 0.92622 0.49439 0.0
C632 C 0.32947 0.88855 0.45404 0.0
H633 H 0.26984 0.90968 0.42084 0.0
C634 C 0.33492 0.85881 0.45191 0.0
C635 C 0.30513 0.90701 0.44369 0.0
C636 C 0.29859 0.93921 0.44518 0.0
C637 C 0.31773 0.84724 0.43803 0.0
C638 C 0.29426 0.86597 0.42631 0.0
C639 C 0.28774 0.89542 0.43004 0.0
C640 C 0.27977 0.85641 0.40602 0.0
C641 C 0.32612 0.81553 0.43414 0.0
C642 C 0.28415 0.86767 0.37784 0.0
C643 C 0.27528 0.85557 0.35742 0.0
C644 C 0.26179 0.83202 0.36481 0.0
C645 C 0.25542 0.82217 0.39321 0.0
C646 C 0.2644 0.8343 0.41373 0.0
H647 H 0.34694 0.80487 0.44161 0.0
H648 H 0.30962 0.80421 0.446 0.0
H649 H 0.32753 0.81277 0.41177 0.0
H650 H 0.29588 0.88479 0.37145 0.0
H651 H 0.28011 0.86381 0.3357 0.0
H652 H 0.26484 0.15932 0.71256 0.0
H653 H 0.29349 0.11862 0.68896 0.0
H654 H 0.37037 0.13927 0.7065 0.0
H655 H 0.342 0.1794 0.73066 0.0
H656 H 0.32962 0.12591 0.6428 0.0
H657 H 0.38937 0.05237 0.72235 0.0
H658 H 0.35852 0.08018 0.73146 0.0
H659 H 0.39314 0.08892 0.72153 0.0
C660 C 0.28783 0.1548 0.7119 0.0
C661 C 0.30118 0.17268 0.72329 0.0
C662 C 0.30414 0.1315 0.69848 0.0
C663 C 0.33404 0.12569 0.69628 0.0
C664 C 0.34733 0.14285 0.70857 0.0
H665 H 0.47607 0.05637 0.58498 0.0
H666 H 0.44243 0.07753 0.62289 0.0
C667 C 0.33106 0.166 0.72215 0.0
C668 C 0.35143 0.1045 0.67792 0.0
H669 H 0.41021 0.04923 0.67412 0.0
C670 C 0.34683 0.10871 0.64979 0.0
C671 C 0.37393 0.08215 0.68708 0.0
C672 C 0.37884 0.07545 0.71734 0.0
C673 C 0.36505 0.09222 0.63025 0.0
C674 C 0.38831 0.07084 0.63917 0.0
C675 C 0.39236 0.06579 0.66744 0.0
C676 C 0.40966 0.05508 0.61887 0.0
C677 C 0.36015 0.09869 0.59995 0.0
C678 C 0.40246 0.03501 0.60464 0.0
C679 C 0.42155 0.02293 0.58295 0.0
C680 C 0.44812 0.03083 0.57517 0.0
C681 C 0.4557 0.05002 0.59034 0.0
C682 C 0.43661 0.06201 0.61207 0.0
H683 H 0.34351 0.1186 0.59595 0.0
H684 H 0.38025 0.10131 0.58646 0.0
H685 H 0.35324 0.08027 0.59373 0.0
H686 H 0.38175 0.02936 0.60978 0.0
H687 H 0.41515 0.00806 0.57179 0.0
H688 H 0.05239 0.91697 0.54388 0.0
H689 H 0.09218 0.88785 0.56754 0.0
H690 H 0.11555 0.96571 0.58166 0.0
H691 H 0.07541 0.99506 0.55861 0.0
H692 H 0.15053 0.88582 0.5559 0.0
H693 H 0.10674 0.92213 0.65987 0.0
H694 H 0.08567 0.92896 0.63131 0.0
H695 H 0.11102 0.95077 0.63221 0.0
C696 C 0.06596 0.92791 0.55206 0.0
C697 C 0.0606 0.95829 0.54968 0.0
C698 C 0.08872 0.91125 0.56546 0.0
C699 C 0.10649 0.92468 0.57664 0.0
C700 C 0.10169 0.95498 0.57365 0.0
H701 H 0.24078 0.84494 0.68118 0.0
H702 H 0.21274 0.87939 0.64826 0.0
C703 C 0.0788 0.97169 0.56043 0.0
C704 C 0.12966 0.90681 0.59193 0.0
H705 H 0.15173 0.89029 0.65649 0.0
C706 C 0.15093 0.88687 0.57785 0.0
C707 C 0.13003 0.90834 0.62054 0.0
C708 C 0.10704 0.9285 0.637 0.0
C709 C 0.17243 0.86808 0.59181 0.0
C710 C 0.17241 0.86923 0.62052 0.0
C711 C 0.15167 0.8897 0.63439 0.0
C712 C 0.19213 0.84785 0.63729 0.0
C713 C 0.19486 0.847 0.57588 0.0
C714 C 0.18988 0.81877 0.64171 0.0
C715 C 0.20565 0.79911 0.66058 0.0
C716 C 0.22389 0.80829 0.67536 0.0
C717 C 0.22691 0.83723 0.67008 0.0
C718 C 0.21097 0.85692 0.65131 0.0
H719 H 0.19648 0.85395 0.55302 0.0
H720 H 0.21607 0.84455 0.58286 0.0
H721 H 0.18909 0.82547 0.5798 0.0
H722 H 0.17504 0.81153 0.63141 0.0
H723 H 0.20291 0.77694 0.66416 0.0
H724 H 0.29339 0.88103 0.79879 0.0
H725 H 0.31328 0.91835 0.81235 0.0
H726 H 0.38474 0.90152 0.74813 0.0
H727 H 0.36551 0.86295 0.73521 0.0
H728 H 0.40212 0.90111 0.79683 0.0
H729 H 0.31828 -0.00049 0.78098 0.0
H730 H 0.30306 0.97117 0.80155 0.0
H731 H 0.31905 0.96695 0.76612 0.0
C732 C 0.31331 0.88527 0.78745 0.0
C733 C 0.32803 0.86874 0.76612 0.0
C734 C 0.3244 0.90706 0.79489 0.0
C735 C 0.35024 0.91321 0.7809 0.0
C736 C 0.36459 0.89738 0.75899 0.0
H737 H 0.44856 0.00998 0.85527 0.0
H738 H 0.42995 0.9947 0.81722 0.0
C739 C 0.35354 0.87541 0.75159 0.0
C740 C 0.36368 0.93352 0.79167 0.0
H741 H 0.34808 -0.00129 0.81737 0.0
C742 C 0.39069 0.92279 0.80055 0.0
C743 C 0.34884 0.9619 0.79642 0.0
C744 C 0.32084 0.97562 0.78545 0.0
C745 C 0.40216 0.93868 0.81608 0.0
C746 C 0.38623 0.96603 0.82276 0.0
C747 C 0.36013 0.97764 0.81232 0.0
C748 C 0.39453 0.98055 0.84384 0.0
C749 C 0.4303 0.92529 0.82696 0.0
C750 C 0.38007 0.97865 0.87101 0.0
C751 C 0.39067 0.98716 0.89263 0.0
C752 C 0.41576 -0.00203 0.88737 0.0
C753 C 0.42907 0.00187 0.85978 0.0
C754 C 0.41857 0.99307 0.83812 0.0
H755 H 0.43906 0.90298 0.82143 0.0
H756 H 0.44607 0.9388 0.8181 0.0
H757 H 0.42773 0.92456 0.85004 0.0
H758 H 0.36151 0.96899 0.87578 0.0
H759 H 0.37998 0.98408 0.91371 0.0
H760 H 0.42367 0.09194 0.99613 0.0
H761 H 0.39354 0.13379 0.01718 0.0
H762 H 0.43485 0.10669 0.09178 0.0
H763 H 0.46558 0.06576 0.07061 0.0
H764 H 0.35539 0.13397 0.06043 0.0
H765 H 0.43389 0.19075 0.08329 0.0
H766 H 0.44357 0.16287 0.06032 0.0
H767 H 0.44317 0.15354 0.09759 0.0
C768 C 0.42659 0.09522 0.01686 0.0
C769 C 0.44701 0.07559 0.03171 0.0
C770 C 0.40942 0.11916 0.02882 0.0
C771 C 0.41233 0.1238 0.05584 0.0
C772 C 0.43285 0.10425 0.07055 0.0
H773 H 0.29314 0.17332 0.18962 0.0
H774 H 0.32199 0.15401 0.14873 0.0
C775 C 0.45022 0.0806 0.05851 0.0
C776 C 0.39209 0.14702 0.07007 0.0
H777 H 0.38914 0.19564 0.11532 0.0
C778 C 0.36276 0.14798 0.07186 0.0
C779 C 0.40144 0.16603 0.08436 0.0
C780 C 0.43224 0.16845 0.08097 0.0
C781 C 0.34286 0.16544 0.08955 0.0
C782 C 0.35267 0.18156 0.10657 0.0
C783 C 0.38165 0.18272 0.10281 0.0
C784 C 0.33398 0.19437 0.1305 0.0
C785 C 0.31161 0.16573 0.09037 0.0
C786 C 0.3319 0.22331 0.13447 0.0
C787 C 0.31575 0.23436 0.15831 0.0
C788 C 0.30148 0.21659 0.1785 0.0
C789 C 0.3036 0.18769 0.17436 0.0
C790 C 0.31989 0.17666 0.15078 0.0
H791 H 0.30683 0.16265 0.06965 0.0
H792 H 0.30604 0.14751 0.10554 0.0
H793 H 0.29789 0.18632 0.09666 0.0
H794 H 0.3429 0.23726 0.11924 0.0
H795 H 0.31452 0.25671 0.16096 0.0
H796 H 0.05135 0.97881 0.42395 0.0
H797 H 0.0899 0.9826 0.38551 0.0
H798 H 0.09356 0.0659 0.40665 0.0
H799 H 0.05563 0.06217 0.44515 0.0
H800 H 0.09463 0.02368 0.33891 0.0
H801 H 0.17582 0.02056 0.4071 0.0
H802 H 0.14249 0.00966 0.42015 0.0
H803 H 0.14442 0.0473 0.41611 0.0
C804 C 0.06034 -0.00202 0.42031 0.0
C805 C 0.05066 0.0201 0.43772 0.0
C806 C 0.08235 4e-05 0.39841 0.0
C807 C 0.09498 0.02417 0.39377 0.0
C808 C 0.08459 0.04672 0.41044 0.0
H809 H 0.15999 0.13277 0.27281 0.0
H810 H 0.13549 0.09489 0.29558 0.0
C811 C 0.06277 0.04465 0.43231 0.0
C812 C 0.11885 0.02655 0.3714 0.0
H813 H 0.18251 0.04703 0.36071 0.0
C814 C 0.11425 0.02806 0.34353 0.0
C815 C 0.14493 0.03095 0.37741 0.0
C816 C 0.15234 0.02667 0.40685 0.0
C817 C 0.13374 0.03724 0.32157 0.0
C818 C 0.15776 0.04592 0.3279 0.0
C819 C 0.16388 0.04101 0.35563 0.0
C820 C 0.17369 0.06478 0.30767 0.0
C821 C 0.12775 0.03858 0.29198 0.0
C822 C 0.20347 0.06058 0.30641 0.0
C823 C 0.21736 0.08277 0.29415 0.0
C824 C 0.20174 0.10921 0.28248 0.0
C825 C 0.17249 0.11241 0.28141 0.0
C826 C 0.15851 0.09054 0.2942 0.0
H827 H 0.11862 0.0199 0.28976 0.0
H828 H 0.11161 0.05856 0.28681 0.0
H829 H 0.14729 0.03854 0.27676 0.0
H830 H 0.21565 0.04096 0.31667 0.0
H831 H 0.24 0.07989 0.29508 0.0
H832 H 0.81575 0.16193 0.21149 0.0
H833 H 0.8549 0.13558 0.18138 0.0
H834 H 0.88904 0.21261 0.1573 0.0
H835 H 0.84991 0.23926 0.1879 0.0
H836 H 0.87512 0.1831 0.11247 0.0
H837 H 0.94385 0.10989 0.1861 0.0
H838 H 0.90614 0.11269 0.196 0.0
H839 H 0.92115 0.14392 0.1947 0.0
C840 C 0.83185 0.17316 0.20018 0.0
C841 C 0.8298 0.20263 0.20187 0.0
C842 C 0.85426 0.15804 0.18316 0.0
C843 C 0.87483 0.17218 0.16742 0.0
C844 C 0.8734 0.20139 0.16959 0.0
H845 H 0.0051 0.07501 0.05156 0.0
H846 H 0.98187 0.1115 0.08265 0.0
C847 C 0.85113 0.2165 0.18703 0.0
C848 C 0.89568 0.15691 0.14654 0.0
H849 H 0.94777 0.09592 0.14028 0.0
C850 C 0.8915 0.16444 0.11837 0.0
C851 C 0.91688 0.13264 0.15449 0.0
C852 C 0.92253 0.12436 0.18446 0.0
C853 C 0.90687 0.14709 0.09809 0.0
C854 C 0.92675 0.12181 0.10635 0.0
C855 C 0.93225 0.11529 0.1342 0.0
C856 C 0.94047 0.10072 0.08678 0.0
C857 C 0.90105 0.15517 0.06815 0.0
C858 C 0.9247 0.08269 0.0791 0.0
C859 C 0.93788 0.06167 0.06158 0.0
C860 C 0.96698 0.05858 0.0514 0.0
C861 C 0.9826 0.07697 0.05897 0.0
C862 C 0.96945 0.09778 0.07671 0.0
H863 H 0.88906 0.1779 0.06427 0.0
H864 H 0.92136 0.15231 0.0538 0.0
H865 H 0.88822 0.14064 0.06312 0.0
H866 H 0.9023 0.08466 0.08698 0.0
H867 H 0.92533 0.04782 0.0561 0.0
H868 H 0.08296 0.55041 0.48135 0.0
H869 H 0.11175 0.58219 0.45221 0.0
H870 H 0.07359 0.57467 0.38045 0.0
H871 H 0.04386 0.54389 0.40981 0.0
H872 H 0.1518 0.57667 0.41104 0.0
H873 H 0.06366 0.65949 0.36959 0.0
H874 H 0.05725 0.63122 0.39717 0.0
H875 H 0.06362 0.62432 0.3612 0.0
C876 C 0.0805 0.55563 0.45938 0.0
C877 C 0.06072 0.54455 0.44817 0.0
C878 C 0.09713 0.57391 0.44259 0.0
C879 C 0.09476 0.58177 0.41389 0.0
C880 C 0.07545 0.57012 0.40254 0.0
H881 H 0.19702 0.66883 0.27681 0.0
H882 H 0.16707 0.63837 0.30651 0.0
C883 C 0.05851 0.55213 0.41942 0.0
C884 C 0.1129 0.60142 0.396 0.0
H885 H 0.1106 0.66187 0.34737 0.0
C886 C 0.14256 0.59538 0.39735 0.0
C887 C 0.10137 0.62625 0.37793 0.0
C888 C 0.06971 0.63591 0.37657 0.0
C889 C 0.16064 0.61276 0.3811 0.0
C890 C 0.14916 0.63702 0.36266 0.0
C891 C 0.11962 0.64322 0.36128 0.0
C892 C 0.16756 0.65597 0.34457 0.0
C893 C 0.19216 0.60489 0.38338 0.0
C894 C 0.17794 0.67639 0.35578 0.0
C895 C 0.19497 0.69419 0.33869 0.0
C896 C 0.20241 0.69189 0.30989 0.0
C897 C 0.19201 0.6713 0.29881 0.0
C898 C 0.17473 0.6538 0.31583 0.0
H899 H 0.19836 0.58397 0.39663 0.0
H900 H 0.20449 0.60349 0.36229 0.0
H901 H 0.19819 0.62214 0.39255 0.0
H902 H 0.17274 0.6787 0.37781 0.0
H903 H 0.20242 0.70969 0.34812 0.0
H904 H 0.51741 0.89996 0.55106 0.0
H905 H 0.54544 0.85919 0.57889 0.0
H906 H 0.60529 0.91164 0.584 0.0
H907 H 0.57781 0.95215 0.55641 0.0
H908 H 0.62934 0.85307 0.56747 0.0
H909 H 0.55177 0.85654 0.66471 0.0
H910 H 0.53934 0.85598 0.63196 0.0
H911 H 0.55074 0.88731 0.63808 0.0
C912 C 0.53654 0.90275 0.55815 0.0
C913 C 0.54537 0.92928 0.55161 0.0
C914 C 0.55244 0.87951 0.57403 0.0
C915 C 0.57728 0.8826 0.58347 0.0
C916 C 0.58616 0.90893 0.5768 0.0
H917 H 0.71077 0.81866 0.6793 0.0
H918 H 0.67738 0.84125 0.64579 0.0
C919 C 0.57036 0.93206 0.5611 0.0
C920 C 0.59437 0.85881 0.60057 0.0
H921 H 0.59743 0.82722 0.6678 0.0
C922 C 0.62223 0.84691 0.58928 0.0
C923 C 0.58485 0.85082 0.6289 0.0
C924 C 0.55509 0.86328 0.64186 0.0
C925 C 0.64143 0.82835 0.60603 0.0
C926 C 0.63255 0.82204 0.63481 0.0
C927 C 0.60412 0.83233 0.64571 0.0
C928 C 0.65316 0.80748 0.65441 0.0
C929 C 0.6713 0.81641 0.59298 0.0
C930 C 0.65014 0.78135 0.67072 0.0
C931 C 0.66915 0.7684 0.69 0.0
C932 C 0.69124 0.78162 0.69343 0.0
C933 C 0.69404 0.8079 0.67711 0.0
C934 C 0.67512 0.82073 0.65782 0.0
H935 H 0.67207 0.81565 0.57025 0.0
H936 H 0.68551 0.83068 0.59563 0.0
H937 H 0.67974 0.7943 0.6031 0.0
H938 H 0.63311 0.771 0.66852 0.0
H939 H 0.66641 0.74816 0.70232 0.0
H940 H 0.52205 0.36713 0.92132 0.0
H941 H 0.5133 0.33567 0.89034 0.0
H942 H 0.4336 0.32875 0.94117 0.0
H943 H 0.44311 0.35846 0.97352 0.0
H944 H 0.45913 0.27879 0.91813 0.0
H945 H 0.45575 0.37532 0.8378 0.0
H946 H 0.48915 0.36138 0.85144 0.0
H947 H 0.45824 0.37712 0.87386 0.0
C948 C 0.50313 0.35812 0.9266 0.0
C949 C 0.48295 0.3659 0.94969 0.0
C950 C 0.49803 0.34038 0.9086 0.0
C951 C 0.47242 0.33068 0.913 0.0
C952 C 0.45339 0.33633 0.93722 0.0
H953 H 0.35098 0.31965 0.81719 0.0
H954 H 0.38523 0.32987 0.84366 0.0
C955 C 0.45868 0.35365 0.95551 0.0
C956 C 0.4635 0.31787 0.89101 0.0
H957 H 0.44135 0.33575 0.82648 0.0
C958 C 0.45568 0.29093 0.89786 0.0
C959 C 0.45893 0.33396 0.86466 0.0
C960 C 0.46572 0.36363 0.85646 0.0
C961 C 0.44187 0.2804 0.87969 0.0
C962 C 0.43631 0.2971 0.85388 0.0
C963 C 0.4458 0.32306 0.84629 0.0
C964 C 0.41677 0.29065 0.83656 0.0
C965 C 0.43161 0.25258 0.88901 0.0
C966 C 0.42338 0.26536 0.82347 0.0
C967 C 0.40374 0.25945 0.80819 0.0
C968 C 0.3774 0.27892 0.80565 0.0
C969 C 0.37126 0.30449 0.81832 0.0
C970 C 0.39075 0.31027 0.83359 0.0
H971 H 0.43434 0.24433 0.91116 0.0
H972 H 0.40873 0.25579 0.88644 0.0
H973 H 0.44389 0.23578 0.87583 0.0
H974 H 0.44358 0.25019 0.82518 0.0
H975 H 0.40909 0.23969 0.79843 0.0
H976 H 0.84242 0.83575 0.30551 0.0
H977 H 0.87522 0.84925 0.33136 0.0
H978 H 0.93184 0.76582 0.32571 0.0
H979 H 0.89953 0.75227 0.29857 0.0
H980 H 0.91355 0.78584 0.38241 0.0
H981 H 0.9573 0.86571 0.30337 0.0
H982 H 0.91934 0.86972 0.30543 0.0
H983 H 0.94268 0.83737 0.29419 0.0
C984 C 0.86218 0.82045 0.30894 0.0
C985 C 0.86837 0.79297 0.29966 0.0
C986 C 0.88084 0.82819 0.32391 0.0
C987 C 0.90602 0.80864 0.33011 0.0
C988 C 0.91252 0.78122 0.32092 0.0
H989 H 0.99914 0.85598 0.45268 0.0
H990 H 0.9896 0.82614 0.41993 0.0
C991 C 0.89394 0.7735 0.3056 0.0
C992 C 0.92419 0.81677 0.34779 0.0
H993 H 0.95795 0.87083 0.35153 0.0
C994 C 0.92406 0.80386 0.37559 0.0
C995 C 0.93785 0.84019 0.33865 0.0
C996 C 0.93959 0.85392 0.30869 0.0
C997 C 0.9351 0.81551 0.39515 0.0
C998 C 0.94672 0.8404 0.38642 0.0
C999 C 0.94885 0.85183 0.35815 0.0
C1000 C 0.95281 0.85743 0.40668 0.0
C1001 C 0.93232 0.8026 0.42536 0.0
C1002 C 0.93534 0.88479 0.40987 0.0
C1003 C 0.94075 0.9018 0.42828 0.0
C1004 C 0.96379 0.89183 0.44396 0.0
C1005 C 0.98125 0.86426 0.44085 0.0
C1006 C 0.97577 0.84715 0.42232 0.0
H1007 H 0.92065 0.78468 0.42906 0.0
H1008 H 0.95388 0.79402 0.43188 0.0
H1009 H 0.92096 0.81954 0.43878 0.0
H1010 H 0.91756 0.89309 0.39788 0.0
H1011 H 0.92726 0.92315 0.42966 0.0
H1012 H 0.50631 0.58188 0.53681 0.0
H1013 H 0.48512 0.61897 0.56792 0.0
H1014 H 0.41526 0.57602 0.59734 0.0
H1015 H 0.43615 0.53891 0.56649 0.0
H1016 H 0.4289 0.6556 0.56833 0.0
H1017 H 0.44437 0.58753 0.66942 0.0
H1018 H 0.46448 0.57743 0.63673 0.0
H1019 H 0.42889 0.57126 0.6465 0.0
C1020 C 0.48649 0.58027 0.55002 0.0
C1021 C 0.47288 0.55745 0.54926 0.0
C1022 C 0.4745 0.60144 0.56774 0.0
C1023 C 0.44896 0.59986 0.58515 0.0
C1024 C 0.43531 0.57721 0.58439 0.0
H1025 H 0.30742 0.68201 0.678 0.0
H1026 H 0.34693 0.65479 0.64918 0.0
C1027 C 0.44717 0.55615 0.56662 0.0
C1028 C 0.43551 0.6225 0.60331 0.0
H1029 H 0.40708 0.6308 0.67063 0.0
C1030 C 0.42475 0.65053 0.5908 0.0
C1031 C 0.43045 0.61573 0.63258 0.0
C1032 C 0.44291 0.58642 0.64716 0.0
C1033 C 0.40691 0.67131 0.60668 0.0
C1034 C 0.39999 0.66369 0.63557 0.0
C1035 C 0.41248 0.63641 0.64837 0.0
C1036 C 0.37637 0.68165 0.65193 0.0
C1037 C 0.39385 0.70052 0.59235 0.0
C1038 C 0.37999 0.70591 0.6627 0.0
C1039 C 0.35734 0.72165 0.67931 0.0
C1040 C 0.33095 0.71315 0.68529 0.0
C1041 C 0.32746 0.6891 0.6739 0.0
C1042 C 0.34999 0.67349 0.65744 0.0
H1043 H 0.40212 0.70341 0.56981 0.0
H1044 H 0.37032 0.7031 0.59449 0.0
H1045 H 0.39834 0.7179 0.60257 0.0
H1046 H 0.40036 0.71234 0.6586 0.0
H1047 H 0.36064 0.74008 0.68782 0.0
H1048 H 0.5886 0.03554 0.97038 0.0
H1049 H 0.6196 0.06488 0.94113 0.0
H1050 H 0.55291 0.10221 0.88933 0.0
H1051 H 0.52234 0.0716 0.91779 0.0
H1052 H 0.59926 0.09501 0.85676 0.0
H1053 H 0.62259 0.14576 0.94207 0.0
H1054 H 0.63399 0.1072 0.94808 0.0
H1055 H 0.59657 0.1234 0.94763 0.0
C1056 C 0.58043 0.05 0.95278 0.0
C1057 C 0.5527 0.05112 0.94672 0.0
C1058 C 0.59821 0.06719 0.9361 0.0
C1059 C 0.58871 0.08682 0.91315 0.0
C1060 C 0.56109 0.08763 0.90685 0.0
H1061 H 0.68055 0.22494 0.83502 0.0
H1062 H 0.64827 0.19616 0.86348 0.0
C1063 C 0.54346 0.07002 0.92326 0.0
C1064 C 0.60762 0.10583 0.89541 0.0
H1065 H 0.65236 0.1511 0.89863 0.0
C1066 C 0.61067 0.10736 0.86608 0.0
C1067 C 0.62238 0.12281 0.90697 0.0
C1068 C 0.61847 0.12499 0.93788 0.0
C1069 C 0.62804 0.12454 0.84836 0.0
C1070 C 0.64416 0.1401 0.85999 0.0
C1071 C 0.64067 0.13903 0.8893 0.0
C1072 C 0.66428 0.15787 0.84231 0.0
C1073 C 0.62801 0.12643 0.81725 0.0
C1074 C 0.68483 0.14634 0.82088 0.0
C1075 C 0.70302 0.16308 0.80417 0.0
C1076 C 0.70198 0.19175 0.80873 0.0
C1077 C 0.68212 0.20302 0.83074 0.0
C1078 C 0.66355 0.18643 0.84715 0.0
H1079 H 0.6079 0.12224 0.81225 0.0
H1080 H 0.6306 0.14803 0.80652 0.0
H1081 H 0.64583 0.10969 0.80874 0.0
H1082 H 0.68706 0.12418 0.81707 0.0
H1083 H 0.71816 0.15336 0.78773 0.0
H1084 H 0.0786 0.44284 0.05823 0.0
H1085 H 0.10278 0.4041 0.09035 0.0
H1086 H 0.03195 0.36167 0.10078 0.0
H1087 H 0.00748 0.40035 0.06819 0.0
H1088 H 0.05687 0.37575 0.15299 0.0
H1089 H 0.13281 0.31319 0.0753 0.0
H1090 H 0.12718 0.35205 0.0684 0.0
H1091 H 0.09835 0.33463 0.06768 0.0
C1092 C 0.06814 0.42525 0.06722 0.0
C1093 C 0.04113 0.42463 0.0607 0.0
C1094 C 0.08204 0.40312 0.08547 0.0
C1095 C 0.06913 0.38011 0.09765 0.0
C1096 C 0.04219 0.37928 0.09134 0.0
H1097 H 0.17155 0.24339 0.20528 0.0
H1098 H 0.13326 0.26607 0.17646 0.0
C1099 C 0.02833 0.40133 0.07277 0.0
C1100 C 0.08379 0.35773 0.11781 0.0
H1101 H 0.14422 0.305 0.12205 0.0
C1102 C 0.07556 0.35975 0.14636 0.0
C1103 C 0.10802 0.33695 0.10892 0.0
C1104 C 0.11713 0.33379 0.0784 0.0
C1105 C 0.09225 0.34271 0.16628 0.0
C1106 C 0.11762 0.3234 0.15722 0.0
C1107 C 0.12471 0.31992 0.12883 0.0
C1108 C 0.13892 0.30963 0.17629 0.0
C1109 C 0.08344 0.34637 0.19673 0.0
C1110 C 0.15465 0.32674 0.18548 0.0
C1111 C 0.17664 0.31394 0.20151 0.0
C1112 C 0.18313 0.28379 0.20879 0.0
C1113 C 0.1669 0.26671 0.20007 0.0
C1114 C 0.14509 0.27955 0.18365 0.0
H1115 H 0.06045 0.35661 0.20094 0.0
H1116 H 0.08776 0.32514 0.20991 0.0
H1117 H 0.09605 0.36045 0.20295 0.0
H1118 H 0.15035 0.34998 0.17963 0.0
H1119 H 0.18871 0.32767 0.20798 0.0
H1120 H 0.54639 0.46942 0.9118 0.0
H1121 H 0.57898 0.47473 0.86848 0.0
H1122 H 0.60994 0.53903 0.90096 0.0
H1123 H 0.5775 0.53409 0.94396 0.0
H1124 H 0.57734 0.52842 0.83331 0.0
H1125 H 0.68356 0.48576 0.8677 0.0
H1126 H 0.65166 0.47514 0.88643 0.0
H1127 H 0.66074 0.50809 0.89212 0.0
C1128 C 0.56043 0.48441 0.90979 0.0
C1129 C 0.55935 0.50149 0.93117 0.0
C1130 C 0.57905 0.4873 0.88513 0.0
C1131 C 0.59719 0.5068 0.88185 0.0
C1132 C 0.59655 0.52333 0.90342 0.0
H1133 H 0.64138 0.64235 0.80137 0.0
H1134 H 0.61906 0.60094 0.81651 0.0
C1135 C 0.57779 0.52074 0.92784 0.0
C1136 C 0.61444 0.51305 0.85494 0.0
H1137 H 0.67978 0.52806 0.83164 0.0
C1138 C 0.60002 0.52735 0.83234 0.0
C1139 C 0.64411 0.51092 0.85336 0.0
C1140 C 0.66096 0.49382 0.87613 0.0
C1141 C 0.61372 0.54334 0.81012 0.0
C1142 C 0.6422 0.54511 0.81095 0.0
C1143 C 0.65773 0.52713 0.83129 0.0
C1144 C 0.65346 0.57028 0.79639 0.0
C1145 C 0.59687 0.56036 0.78733 0.0
C1146 C 0.68018 0.56678 0.78 0.0
C1147 C 0.69296 0.59059 0.77129 0.0
C1148 C 0.67936 0.61784 0.7795 0.0
C1149 C 0.65221 0.62146 0.79492 0.0
C1150 C 0.63933 0.5979 0.80324 0.0
H1151 H 0.58102 0.54862 0.78314 0.0
H1152 H 0.58495 0.58141 0.79416 0.0
H1153 H 0.61102 0.56464 0.76769 0.0
H1154 H 0.69158 0.54553 0.77496 0.0
H1155 H 0.71402 0.58745 0.75947 0.0
H1156 H 0.75389 0.32987 0.16997 0.0
H1157 H 0.72975 0.36415 0.13433 0.0
H1158 H 0.67857 0.30356 0.12734 0.0
H1159 H 0.70263 0.26898 0.16286 0.0
H1160 H 0.69836 0.33888 0.07436 0.0
H1161 H 0.64427 0.40121 0.16261 0.0
H1162 H 0.68264 0.39216 0.15793 0.0
H1163 H 0.66302 0.36396 0.16829 0.0
C1164 C 0.73793 0.32355 0.16043 0.0
C1165 C 0.72971 0.29697 0.16959 0.0
C1166 C 0.72424 0.34315 0.14008 0.0
C1167 C 0.70222 0.3364 0.12867 0.0
C1168 C 0.69556 0.30903 0.13606 0.0
H1169 H 0.56068 0.40589 0.04127 0.0
H1170 H 0.60272 0.37739 0.06152 0.0
C1171 C 0.70923 0.28939 0.15641 0.0
C1172 C 0.68352 0.35898 0.11201 0.0
H1173 H 0.62827 0.41716 0.11905 0.0
C1174 C 0.68327 0.35628 0.08391 0.0
C1175 C 0.66404 0.38161 0.1247 0.0
C1176 C 0.66322 0.38501 0.15507 0.0
C1177 C 0.66333 0.37534 0.06824 0.0
C1178 C 0.64284 0.397 0.08138 0.0
C1179 C 0.64401 0.40048 0.10911 0.0
C1180 C 0.61836 0.41454 0.06776 0.0
C1181 C 0.66415 0.37185 0.03793 0.0
C1182 C 0.61272 0.44487 0.06553 0.0
C1183 C 0.58839 0.46127 0.0544 0.0
C1184 C 0.56934 0.44752 0.04544 0.0
C1185 C 0.575 0.41712 0.04791 0.0
C1186 C 0.59921 0.40079 0.05913 0.0
H1187 H 0.68598 0.36176 0.02885 0.0
H1188 H 0.64976 0.35741 0.03624 0.0
H1189 H 0.65701 0.393 0.02539 0.0
H1190 H 0.62711 0.45581 0.07245 0.0
H1191 H 0.58463 0.48467 0.05265 0.0
H1192 H 0.89455 0.46191 0.42057 0.0
H1193 H 0.87373 0.44649 0.38445 0.0
H1194 H 0.93163 0.4834 0.32081 0.0
H1195 H 0.95275 0.49895 0.35706 0.0
H1196 H 0.86181 0.48802 0.3158 0.0
H1197 H 0.93588 0.38125 0.33534 0.0
H1198 H 0.91904 0.39937 0.3653 0.0
H1199 H 0.94433 0.41484 0.34037 0.0
C1200 C 0.90247 0.46724 0.39885 0.0
C1201 C 0.92542 0.48134 0.39156 0.0
C1202 C 0.89051 0.45854 0.37829 0.0
C1203 C 0.90129 0.46374 0.35011 0.0
C1204 C 0.92302 0.47937 0.34252 0.0
H1205 H 0.86495 0.34822 0.24469 0.0
H1206 H 0.88857 0.38283 0.25859 0.0
C1207 C 0.93497 0.48825 0.36318 0.0
C1208 C 0.8919 0.44969 0.32942 0.0
H1209 H 0.89745 0.38275 0.31048 0.0
C1210 C 0.86989 0.46514 0.31411 0.0
C1211 C 0.90281 0.41999 0.32709 0.0
C1212 C 0.92696 0.40277 0.34272 0.0
C1213 C 0.85742 0.45112 0.29756 0.0
C1214 C 0.86688 0.42085 0.29695 0.0
C1215 C 0.8901 0.4059 0.31098 0.0
C1216 C 0.8514 0.40354 0.28452 0.0
C1217 C 0.83395 0.46877 0.28132 0.0
C1218 C 0.82254 0.40396 0.29409 0.0
C1219 C 0.80893 0.38441 0.28598 0.0
C1220 C 0.824 0.36369 0.26845 0.0
C1221 C 0.85263 0.36403 0.25801 0.0
C1222 C 0.8662 0.38374 0.26603 0.0
H1223 H 0.83662 0.49146 0.27545 0.0
H1224 H 0.83338 0.45933 0.26207 0.0
H1225 H 0.81311 0.46942 0.29458 0.0
H1226 H 0.81081 0.4185 0.3089 0.0
H1227 H 0.78675 0.38505 0.29408 0.0
H1228 H 0.65803 0.53664 0.43138 0.0
H1229 H 0.69149 0.56828 0.41739 0.0
H1230 H 0.6594 0.61135 0.49102 0.0
H1231 H 0.62399 0.58147 0.50387 0.0
H1232 H 0.65625 0.64899 0.44972 0.0
H1233 H 0.76386 0.58279 0.43159 0.0
H1234 H 0.74181 0.56794 0.41419 0.0
H1235 H 0.73509 0.56764 0.45169 0.0
C1236 C 0.65817 0.55267 0.44477 0.0
C1237 C 0.63776 0.5569 0.46838 0.0
C1238 C 0.67792 0.57035 0.4371 0.0
C1239 C 0.67833 0.5921 0.4533 0.0
C1240 C 0.65963 0.59466 0.47822 0.0
H1241 H 0.77102 0.7117 0.34069 0.0
H1242 H 0.76058 0.68297 0.38577 0.0
C1243 C 0.63942 0.57738 0.48561 0.0
C1244 C 0.6937 0.61544 0.44111 0.0
H1245 H 0.75211 0.626 0.39543 0.0
C1246 C 0.67768 0.64403 0.43877 0.0
C1247 C 0.72195 0.60956 0.42735 0.0
C1248 C 0.74166 0.5803 0.43171 0.0
C1249 C 0.68764 0.66583 0.42016 0.0
C1250 C 0.71383 0.65865 0.40299 0.0
C1251 C 0.73156 0.63122 0.40803 0.0
C1252 C 0.72024 0.67708 0.37672 0.0
C1253 C 0.66903 0.69588 0.41755 0.0
C1254 C 0.70125 0.68271 0.3567 0.0
C1255 C 0.7071 0.69885 0.33115 0.0
C1256 C 0.73222 0.70958 0.32495 0.0
C1257 C 0.75141 0.70381 0.34496 0.0
C1258 C 0.74551 0.68748 0.37067 0.0
H1259 H 0.6564 0.70078 0.43791 0.0
H1260 H 0.68189 0.71259 0.41003 0.0
H1261 H 0.65374 0.6972 0.40249 0.0
H1262 H 0.68199 0.67418 0.36068 0.0
H1263 H 0.69195 0.70273 0.31618 0.0
H1264 H 0.77889 0.3648 0.83257 0.0
H1265 H 0.79471 0.38484 0.86892 0.0
H1266 H 0.75492 0.32812 0.93204 0.0
H1267 H 0.73959 0.30733 0.89543 0.0
H1268 H 0.77005 0.41082 0.9169 0.0
H1269 H 0.8398 0.30228 0.9416 0.0
H1270 H 0.82109 0.31102 0.91128 0.0
H1271 H 0.80202 0.30427 0.94534 0.0
C1272 C 0.77308 0.35695 0.85422 0.0
C1273 C 0.75848 0.33418 0.8612 0.0
C1274 C 0.78199 0.36851 0.87498 0.0
C1275 C 0.7765 0.35754 0.90313 0.0
C1276 C 0.7598 0.33651 0.91038 0.0
H1277 H 0.86207 0.43434 0.0115 0.0
H1278 H 0.82417 0.41489 0.99819 0.0
C1279 C 0.75084 0.32486 0.8895 0.0
C1280 C 0.79125 0.36605 0.9239 0.0
H1281 H 0.84838 0.34103 0.96037 0.0
C1282 C 0.78675 0.39553 0.92701 0.0
C1283 C 0.81318 0.34598 0.93682 0.0
C1284 C 0.81958 0.31413 0.93358 0.0
C1285 C 0.80473 0.40575 0.94122 0.0
C1286 C 0.8275 0.38583 0.95293 0.0
C1287 C 0.83084 0.35617 0.95139 0.0
C1288 C 0.85049 0.39562 0.96305 0.0
C1289 C 0.8005 0.43794 0.94184 0.0
C1290 C 0.87802 0.39033 0.94832 0.0
C1291 C 0.89966 0.40111 0.95598 0.0
C1292 C 0.89425 0.41743 0.97858 0.0
C1293 C 0.86691 0.42177 0.99403 0.0
C1294 C 0.84518 0.41093 0.98631 0.0
H1295 H 0.78431 0.45065 0.92843 0.0
H1296 H 0.79326 0.443 0.96356 0.0
H1297 H 0.82092 0.44508 0.93479 0.0
H1298 H 0.88259 0.37843 0.93038 0.0
H1299 H 0.92059 0.39695 0.94396 0.0
H1300 H 0.79076 0.82858 0.18196 0.0
H1301 H 0.80013 0.85683 0.13696 0.0
H1302 H 0.7443 0.81779 0.10164 0.0
H1303 H 0.73437 0.78946 0.14709 0.0
H1304 H 0.80245 0.81502 0.07231 0.0
H1305 H 0.74825 0.92601 0.09295 0.0
H1306 H 0.76618 0.90645 0.1218 0.0
H1307 H 0.73713 0.89413 0.11208 0.0
C1308 C 0.78025 0.82615 0.16474 0.0
C1309 C 0.76194 0.80677 0.16797 0.0
C1310 C 0.78537 0.84252 0.13913 0.0
C1311 C 0.77245 0.83972 0.11623 0.0
C1312 C 0.75406 0.82049 0.11927 0.0
H1313 H 0.86112 0.95228 0.99571 0.0
H1314 H 0.82062 0.92783 0.00751 0.0
C1315 C 0.74855 0.80433 0.14514 0.0
C1316 C 0.78117 0.85487 0.0888 0.0
H1317 H 0.79416 0.92131 0.06271 0.0
C1318 C 0.79977 0.8384 0.0694 0.0
C1319 C 0.77706 0.88534 0.08466 0.0
C1320 C 0.75579 0.90403 0.10386 0.0
C1321 C 0.81765 0.85137 0.04848 0.0
C1322 C 0.81687 0.88123 0.04738 0.0
C1323 C 0.7951 0.89827 0.06389 0.0
C1324 C 0.84218 0.89326 0.03573 0.0
C1325 C 0.83917 0.83258 0.02954 0.0
C1326 C 0.86749 0.88188 0.04775 0.0
C1327 C 0.89013 0.89597 0.04152 0.0
C1328 C 0.88794 0.92163 0.02306 0.0
C1329 C 0.86317 0.93242 0.00997 0.0
C1330 C 0.8402 0.91847 0.01656 0.0
H1331 H 0.83044 0.81446 0.0251 0.0
H1332 H 0.84558 0.84528 0.00952 0.0
H1333 H 0.85845 0.82301 0.04008 0.0
H1334 H 0.86918 0.8629 0.06317 0.0
H1335 H 0.90913 0.88724 0.05171 0.0
H1336 H 0.83552 0.15481 0.76238 0.0
H1337 H 0.87308 0.12432 0.78854 0.0
H1338 H 0.86595 0.19238 0.8395 0.0
H1339 H 0.82834 0.22281 0.81384 0.0
H1340 H 0.92742 0.13351 0.80234 0.0
H1341 H 0.84509 0.12193 0.89376 0.0
H1342 H 0.8361 0.13538 0.859 0.0
H1343 H 0.84638 0.15858 0.87944 0.0
C1344 C 0.84221 0.1634 0.77892 0.0
C1345 C 0.82866 0.191 0.78637 0.0
C1346 C 0.86372 0.14602 0.79374 0.0
C1347 C 0.87192 0.15607 0.81609 0.0
C1348 C 0.8596 0.18419 0.82249 0.0
H1349 H 0.00268 0.07595 0.92426 0.0
H1350 H 0.97668 0.10693 0.88761 0.0
C1351 C 0.83808 0.20149 0.80784 0.0
C1352 C 0.89138 0.13635 0.83441 0.0
H1353 H 0.89297 0.10177 0.90068 0.0
C1354 C 0.92001 0.12647 0.82384 0.0
C1355 C 0.88139 0.12707 0.86229 0.0
C1356 C 0.85052 0.13604 0.87433 0.0
C1357 C 0.93911 0.10765 0.84072 0.0
C1358 C 0.92918 0.09886 0.86877 0.0
C1359 C 0.90051 0.10868 0.87917 0.0
C1360 C 0.94762 0.07871 0.88781 0.0
C1361 C 0.96951 0.0969 0.82837 0.0
C1362 C 0.93995 0.05262 0.89986 0.0
C1363 C 0.9544 0.03521 0.92092 0.0
C1364 C 0.97688 0.04353 0.93033 0.0
C1365 C 0.98546 0.06901 0.91737 0.0
C1366 C 0.97077 0.08661 0.89634 0.0
H1367 H 0.97208 0.1005 0.80518 0.0
H1368 H 0.98356 0.1087 0.83575 0.0
H1369 H 0.97679 0.07345 0.8352 0.0
H1370 H 0.92213 0.04618 0.89356 0.0
H1371 H 0.94745 0.01556 0.93029 0.0
H1372 H 0.77149 0.18104 0.60992 0.0
H1373 H 0.75539 0.16156 0.57292 0.0
H1374 H 0.71816 0.10201 0.635 0.0
H1375 H 0.73471 0.12081 0.67171 0.0
H1376 H 0.7412 0.07867 0.58495 0.0
H1377 H 0.66953 0.18749 0.56746 0.0
H1378 H 0.70731 0.18582 0.56243 0.0
H1379 H 0.68965 0.17725 0.59679 0.0
C1380 C 0.76071 0.16314 0.61548 0.0
C1381 C 0.75391 0.1527 0.64365 0.0
C1382 C 0.75132 0.15222 0.5944 0.0
C1383 C 0.73503 0.13082 0.60131 0.0
C1384 C 0.73055 0.11864 0.6292 0.0
H1385 H 0.58864 0.09227 0.5668 0.0
H1386 H 0.62786 0.10992 0.57904 0.0
C1387 C 0.73988 0.12948 0.65018 0.0
C1388 C 0.71935 0.1234 0.58069 0.0
H1389 H 0.65982 0.14983 0.54791 0.0
C1390 C 0.72384 0.0943 0.57619 0.0
C1391 C 0.69657 0.14391 0.56954 0.0
C1392 C 0.69021 0.17535 0.57433 0.0
C1393 C 0.70503 0.0848 0.56239 0.0
C1394 C 0.68139 0.10506 0.55261 0.0
C1395 C 0.67804 0.13445 0.55543 0.0
C1396 C 0.65762 0.09571 0.54352 0.0
C1397 C 0.70934 0.0529 0.5602 0.0
C1398 C 0.66123 0.08234 0.51918 0.0
C1399 C 0.63879 0.07206 0.51219 0.0
C1400 C 0.61248 0.07499 0.52949 0.0
C1401 C 0.60877 0.08926 0.55332 0.0
C1402 C 0.63109 0.09953 0.56022 0.0
H1403 H 0.72685 0.03966 0.57177 0.0
H1404 H 0.68941 0.04519 0.56846 0.0
H1405 H 0.71469 0.04921 0.53794 0.0
H1406 H 0.68145 0.07952 0.50585 0.0
H1407 H 0.6423 0.06105 0.49375 0.0
H1408 H 0.52562 0.94931 0.42144 0.0
H1409 H 0.5585 0.92782 0.38329 0.0
H1410 H 0.6215 0.9728 0.39718 0.0
H1411 H 0.58884 0.99438 0.43551 0.0
H1412 H 0.59038 0.95461 0.33271 0.0
H1413 H 0.65825 0.88387 0.40915 0.0
H1414 H 0.62208 0.90228 0.41947 0.0
H1415 H 0.65002 0.92218 0.41137 0.0
C1416 C 0.54636 0.95488 0.41624 0.0
C1417 C 0.55478 0.97325 0.43171 0.0
C1418 C 0.56503 0.94269 0.39437 0.0
C1419 C 0.5924 0.94859 0.38771 0.0
C1420 C 0.60048 0.96787 0.40226 0.0
H1421 H 0.73507 0.84666 0.28957 0.0
H1422 H 0.70644 0.88613 0.31481 0.0
C1423 C 0.5818 0.98014 0.42412 0.0
C1424 C 0.61312 0.9327 0.36703 0.0
H1425 H 0.67138 0.87725 0.36202 0.0
C1426 C 0.6083 0.93788 0.33896 0.0
C1427 C 0.63644 0.91103 0.3754 0.0
C1428 C 0.64207 0.90424 0.40549 0.0
C1429 C 0.62607 0.92149 0.31897 0.0
C1430 C 0.64872 0.89901 0.32756 0.0
C1431 C 0.65403 0.89455 0.35549 0.0
C1432 C 0.66584 0.87822 0.30871 0.0
C1433 C 0.62036 0.92832 0.28894 0.0
C1434 C 0.65247 0.86093 0.29664 0.0
C1435 C 0.66874 0.83844 0.28215 0.0
C1436 C 0.69868 0.83259 0.27981 0.0
C1437 C 0.71203 0.85054 0.29113 0.0
C1438 C 0.69573 0.87314 0.30548 0.0
H1439 H 0.60932 0.95129 0.28424 0.0
H1440 H 0.64043 0.92407 0.27438 0.0
H1441 H 0.60626 0.9145 0.28502 0.0
H1442 H 0.62945 0.86398 0.29949 0.0
H1443 H 0.65782 0.82495 0.27373 0.0
H1444 H 0.76828 0.16146 0.31397 0.0
H1445 H 0.79124 0.13267 0.35325 0.0
H1446 H 0.81415 0.20866 0.3728 0.0
H1447 H 0.79187 0.23744 0.33323 0.0
H1448 H 0.85969 0.1645 0.36311 0.0
H1449 H 0.77551 0.12376 0.43823 0.0
H1450 H 0.77551 0.11759 0.40288 0.0
H1451 H 0.76753 0.15406 0.41158 0.0
C1452 C 0.77764 0.17215 0.32703 0.0
C1453 C 0.77867 0.20157 0.32035 0.0
C1454 C 0.79053 0.15573 0.3496 0.0
C1455 C 0.80416 0.16863 0.366 0.0
C1456 C 0.80364 0.19838 0.36038 0.0
H1457 H 0.92617 0.1005 0.48356 0.0
H1458 H 0.88889 0.13114 0.45755 0.0
C1459 C 0.79102 0.21473 0.33772 0.0
C1460 C 0.82262 0.15052 0.3861 0.0
H1461 H 0.82391 0.10051 0.444 0.0
C1462 C 0.8518 0.15078 0.381 0.0
C1463 C 0.81223 0.13245 0.40916 0.0
C1464 C 0.78094 0.13207 0.41599 0.0
C1465 C 0.87104 0.13309 0.39811 0.0
C1466 C 0.86072 0.11493 0.42108 0.0
C1467 C 0.83157 0.1146 0.42632 0.0
C1468 C 0.88033 0.09594 0.4395 0.0
C1469 C 0.90238 0.13344 0.39115 0.0
C1470 C 0.88711 0.06599 0.4384 0.0
C1471 C 0.90845 0.04838 0.45316 0.0
C1472 C 0.9232 0.06059 0.4692 0.0
C1473 C 0.91541 0.0905 0.47114 0.0
C1474 C 0.89409 0.10802 0.45641 0.0
H1475 H 0.90743 0.14436 0.36979 0.0
H1476 H 0.90864 0.14525 0.40624 0.0
H1477 H 0.91552 0.11105 0.39281 0.0
H1478 H 0.87663 0.05643 0.42534 0.0
H1479 H 0.91385 0.02538 0.45144 0.0
H1480 H 0.72008 0.11439 0.19087 0.0
H1481 H 0.69618 0.07946 0.17848 0.0
H1482 H 0.62449 0.10573 0.24003 0.0
H1483 H 0.64732 0.14231 0.25118 0.0
H1484 H 0.67645 0.03337 0.20553 0.0
H1485 H 0.58594 0.11956 0.17095 0.0
H1486 H 0.61761 0.12774 0.17983 0.0
H1487 H 0.5907 0.11782 0.2069 0.0
C1488 C 0.69907 0.11307 0.20159 0.0
C1489 C 0.6854 0.13175 0.22158 0.0
C1490 C 0.68559 0.09275 0.19473 0.0
C1491 C 0.65827 0.09039 0.20789 0.0
C1492 C 0.64526 0.10768 0.22909 0.0
H1493 H 0.5476 -0.00109 0.14619 0.0
H1494 H 0.56935 0.01557 0.18123 0.0
C1495 C 0.65856 0.12836 0.2357 0.0
C1496 C 0.64302 0.07105 0.19799 0.0
H1497 H 0.58551 0.07194 0.16535 0.0
C1498 C 0.65639 0.04173 0.19706 0.0
C1499 C 0.61681 0.08196 0.1869 0.0
C1500 C 0.60199 0.11351 0.18591 0.0
C1501 C 0.64479 0.02337 0.1844 0.0
C1502 C 0.61921 0.03461 0.17252 0.0
C1503 C 0.60505 0.06341 0.17474 0.0
C1504 C 0.60868 0.01846 0.1543 0.0
C1505 C 0.66033 0.99233 0.18308 0.0
C1506 C 0.62389 0.01405 0.12789 0.0
C1507 C 0.61142 0.00497 0.10789 0.0
C1508 C 0.5837 -0.00017 0.11415 0.0
C1509 C 0.5692 0.00234 0.14115 0.0
C1510 C 0.58153 0.01189 0.16108 0.0
H1511 H 0.67535 0.98503 0.19899 0.0
H1512 H 0.645 0.97777 0.1862 0.0
H1513 H 0.6728 0.9903 0.16214 0.0
H1514 H 0.64463 0.01955 0.1221 0.0
H1515 H 0.62276 0.00348 0.08705 0.0
H1516 H 0.66761 0.75088 0.82858 0.0
H1517 H 0.63602 0.77685 0.86512 0.0
H1518 H 0.68296 0.84517 0.84666 0.0
H1519 H 0.71439 0.81971 0.81014 0.0
H1520 H 0.64988 0.79836 0.91366 0.0
H1521 H 0.59861 0.885 0.83679 0.0
H1522 H 0.6192 0.85055 0.8272 0.0
H1523 H 0.63692 0.8781 0.83229 0.0
C1524 C 0.67121 0.77142 0.83235 0.0
C1525 C 0.69329 0.78341 0.81626 0.0
C1526 C 0.65326 0.78611 0.85327 0.0
C1527 C 0.65708 0.81298 0.85828 0.0
C1528 C 0.67953 0.82459 0.84281 0.0
H1529 H 0.58769 0.92285 0.98814 0.0
H1530 H 0.61739 0.88562 0.96048 0.0
C1531 C 0.69744 0.80999 0.82195 0.0
C1532 C 0.63702 0.82964 0.87888 0.0
H1533 H 0.5886 0.89329 0.88428 0.0
C1534 C 0.63627 0.81902 0.90734 0.0
C1535 C 0.61916 0.85637 0.87041 0.0
C1536 C 0.61823 0.86813 0.84 0.0
C1537 C 0.6185 0.83496 0.92772 0.0
C1538 C 0.60144 0.86221 0.91926 0.0
C1539 C 0.60181 0.87242 0.89072 0.0
C1540 C 0.583 0.88094 0.93932 0.0
C1541 C 0.618 0.82246 0.95802 0.0
C1542 C 0.55386 0.89039 0.93677 0.0
C1543 C 0.53706 0.91186 0.95213 0.0
C1544 C 0.54907 0.92422 0.97045 0.0
C1545 C 0.57788 0.91359 0.97425 0.0
C1546 C 0.59482 0.89222 0.95859 0.0
H1547 H 0.62603 0.7986 0.96038 0.0
H1548 H 0.63194 0.83216 0.96803 0.0
H1549 H 0.59608 0.82744 0.9693 0.0
H1550 H 0.54435 0.88196 0.92202 0.0
H1551 H 0.51484 0.91944 0.94896 0.0
H1552 H 0.94352 0.03129 0.60281 0.0
H1553 H 0.91184 0.02233 0.64611 0.0
H1554 H 0.88905 0.95373 0.6124 0.0
H1555 H 0.92036 0.96238 0.56938 0.0
H1556 H 0.84158 0.99677 0.64166 0.0
H1557 H 0.93292 0.94412 0.70122 0.0
H1558 H 0.93146 0.97926 0.6811 0.0
H1559 H 0.93834 0.94756 0.66357 0.0
C1560 C 0.93156 0.01444 0.6046 0.0
C1561 C 0.93458 0.99733 0.58282 0.0
C1562 C 0.91351 0.00945 0.62928 0.0
C1563 C 0.89823 0.98744 0.63227 0.0
C1564 C 0.90063 0.97095 0.61029 0.0
H1565 H 0.84882 0.8502 0.69264 0.0
H1566 H 0.86941 0.89299 0.67977 0.0
C1567 C 0.91866 0.97579 0.58581 0.0
C1568 C 0.88114 0.9794 0.65871 0.0
H1569 H 0.88973 0.92845 0.71526 0.0
C1570 C 0.85169 0.98286 0.65861 0.0
C1571 C 0.89454 0.96158 0.68077 0.0
C1572 C 0.92606 0.9578 0.68194 0.0
C1573 C 0.83605 0.96577 0.67791 0.0
C1574 C 0.85044 0.9449 0.69751 0.0
C1575 C 0.87891 0.94446 0.70005 0.0
C1576 C 0.83947 0.91867 0.70876 0.0
C1577 C 0.80524 0.96743 0.67492 0.0
C1578 C 0.8161 0.91893 0.72965 0.0
C1579 C 0.80422 0.89438 0.737 0.0
C1580 C 0.81548 0.86959 0.72329 0.0
C1581 C 0.83951 0.86919 0.70319 0.0
C1582 C 0.85141 0.89348 0.69604 0.0
H1583 H 0.79691 0.98573 0.65939 0.0
H1584 H 0.80304 0.94695 0.66825 0.0
H1585 H 0.7919 0.97009 0.69535 0.0
H1586 H 0.80666 0.93826 0.73961 0.0
H1587 H 0.78564 0.89513 0.75259 0.0
H1588 H 0.21534 0.82308 0.80114 0.0
H1589 H 0.17753 0.84718 0.83384 0.0
H1590 H 0.12788 0.78379 0.83152 0.0
H1591 H 0.16593 0.75916 0.79849 0.0
H1592 H 0.11645 0.86837 0.82289 0.0
H1593 H 0.1343 0.78779 0.91732 0.0
H1594 H 0.1623 0.79008 0.88853 0.0
H1595 H 0.13242 0.77567 0.88459 0.0
C1596 C 0.19646 0.81412 0.80753 0.0
C1597 C 0.19361 0.7892 0.79721 0.0
C1598 C 0.17488 0.82797 0.8262 0.0
C1599 C 0.15012 0.81713 0.83504 0.0
C1600 C 0.14703 0.79225 0.82495 0.0
H1601 H 0.02101 0.90281 0.9608 0.0
H1602 H 0.04415 0.86801 0.92785 0.0
C1603 C 0.16869 0.77833 0.80609 0.0
C1604 C 0.12768 0.83264 0.85456 0.0
H1605 H 0.10388 0.83293 0.92402 0.0
C1606 C 0.11317 0.86043 0.84492 0.0
C1607 C 0.12354 0.82203 0.88317 0.0
C1608 C 0.13892 0.79229 0.89426 0.0
C1609 C 0.09574 0.87862 0.86349 0.0
C1610 C 0.0932 0.8688 0.89235 0.0
C1611 C 0.10614 0.84032 0.90182 0.0
C1612 C 0.07964 0.88883 0.91302 0.0
C1613 C 0.08103 0.90862 0.85226 0.0
C1614 C 0.09245 0.91148 0.91587 0.0
C1615 C 0.07948 0.93124 0.93466 0.0
C1616 C 0.05345 0.92864 0.95091 0.0
C1617 C 0.04102 0.90543 0.94848 0.0
C1618 C 0.05414 0.88556 0.92973 0.0
H1619 H 0.07887 0.91008 0.82975 0.0
H1620 H 0.05952 0.91503 0.86401 0.0
H1621 H 0.09384 0.92435 0.85462 0.0
H1622 H 0.1124 0.914 0.90334 0.0
H1623 H 0.08963 0.94881 0.93609 0.0
H1624 H 0.92046 0.45163 0.53446 0.0
H1625 H 0.88995 0.42207 0.56431 0.0
H1626 H 0.95734 0.38619 0.61562 0.0
H1627 H 0.98729 0.417 0.58667 0.0
H1628 H 0.88997 0.36896 0.57571 0.0
H1629 H 0.8963 0.40336 0.67693 0.0
H1630 H 0.91073 0.4209 0.64436 0.0
H1631 H 0.93101 0.38776 0.66072 0.0
C1632 C 0.92876 0.43767 0.55227 0.0
C1633 C 0.95642 0.43712 0.55815 0.0
C1634 C 0.9112 0.42056 0.56943 0.0
C1635 C 0.92068 0.40196 0.59299 0.0
C1636 C 0.94865 0.4009 0.59845 0.0
H1637 H 0.83112 0.26106 0.67058 0.0
H1638 H 0.86266 0.29015 0.64153 0.0
C1639 C 0.96603 0.41846 0.58159 0.0
C1640 C 0.90158 0.38339 0.61112 0.0
H1641 H 0.87644 0.36189 0.67896 0.0
C1642 C 0.88699 0.36765 0.5983 0.0
C1643 C 0.89683 0.38163 0.64077 0.0
C1644 C 0.90929 0.39956 0.65648 0.0
C1645 C 0.86838 0.35044 0.61385 0.0
C1646 C 0.86476 0.34753 0.64355 0.0
C1647 C 0.87916 0.36346 0.65636 0.0
C1648 C 0.84562 0.32901 0.66169 0.0
C1649 C 0.85202 0.33647 0.59796 0.0
C1650 C 0.82595 0.34009 0.68394 0.0
C1651 C 0.80836 0.32306 0.70118 0.0
C1652 C 0.8095 0.29435 0.69669 0.0
C1653 C 0.82919 0.28316 0.67454 0.0
C1654 C 0.84719 0.30003 0.65762 0.0
H1655 H 0.84956 0.34838 0.5768 0.0
H1656 H 0.86395 0.31409 0.59526 0.0
H1657 H 0.83046 0.33558 0.60915 0.0
H1658 H 0.824 0.36216 0.68797 0.0
H1659 H 0.79363 0.33257 0.71799 0.0
H1660 H 0.49481 0.09694 0.44377 0.0
H1661 H 0.4707 0.13531 0.4107 0.0
H1662 H 0.39671 0.0971 0.42659 0.0
H1663 H 0.42058 0.05865 0.4592 0.0
H1664 H 0.44691 0.12042 0.36169 0.0
H1665 H 0.3677 0.18758 0.43328 0.0
H1666 H 0.40088 0.1654 0.44357 0.0
H1667 H 0.37143 0.14907 0.44212 0.0
C1668 C 0.47326 0.09699 0.44046 0.0
C1669 C 0.45957 0.0748 0.45395 0.0
C1670 C 0.4596 0.11884 0.42162 0.0
C1671 C 0.43194 0.11902 0.41654 0.0
C1672 C 0.41797 0.0974 0.43057 0.0
H1673 H 0.31899 0.16393 0.29885 0.0
H1674 H 0.356 0.14319 0.32921 0.0
C1675 C 0.43168 0.07541 0.44905 0.0
C1676 C 0.41812 0.14019 0.39497 0.0
H1677 H 0.35777 0.19191 0.38609 0.0
C1678 C 0.42781 0.13659 0.36689 0.0
C1679 C 0.39336 0.16122 0.40197 0.0
C1680 C 0.38277 0.16632 0.43187 0.0
C1681 C 0.41207 0.15217 0.34565 0.0
C1682 C 0.38619 0.17165 0.35286 0.0
C1683 C 0.37762 0.17679 0.38074 0.0
C1684 C 0.36605 0.18426 0.33239 0.0
C1685 C 0.42251 0.14683 0.31578 0.0
C1686 C 0.35962 0.21418 0.32423 0.0
C1687 C 0.33862 0.2261 0.30672 0.0
C1688 C 0.32344 0.20825 0.29761 0.0
C1689 C 0.3303 0.17821 0.30556 0.0
C1690 C 0.3515 0.16632 0.32275 0.0
H1691 H 0.44567 0.13687 0.31291 0.0
H1692 H 0.41076 0.13182 0.30979 0.0
H1693 H 0.41846 0.16735 0.30149 0.0
H1694 H 0.37054 0.2283 0.33175 0.0
H1695 H 0.33367 0.24935 0.30104 0.0
H1696 H 0.55851 0.63317 0.03012 0.0
H1697 H 0.56987 0.66375 0.06061 0.0
H1698 H 0.49413 0.6544 0.11727 0.0
H1699 H 0.48353 0.62232 0.08794 0.0
H1700 H 0.54377 0.714 0.08418 0.0
H1701 H 0.55758 0.6177 0.16482 0.0
H1702 H 0.55261 0.61521 0.12955 0.0
H1703 H 0.5227 0.62944 0.15385 0.0
C1704 C 0.54419 0.63767 0.04902 0.0
C1705 C 0.52048 0.62469 0.05686 0.0
C1706 C 0.55053 0.65544 0.06625 0.0
C1707 C 0.53316 0.66076 0.09149 0.0
C1708 C 0.5081 0.65004 0.09815 0.0
H1709 H 0.59388 0.75959 0.20088 0.0
H1710 H 0.56064 0.74585 0.17486 0.0
C1711 C 0.50193 0.63194 0.08112 0.0
C1712 C 0.54324 0.67457 0.11201 0.0
H1713 H 0.56995 0.65923 0.17445 0.0
C1714 C 0.5491 0.70229 0.10414 0.0
C1715 C 0.55033 0.65902 0.13793 0.0
C1716 C 0.54574 0.62862 0.14706 0.0
C1717 C 0.56309 0.71436 0.12096 0.0
C1718 C 0.57094 0.69838 0.14641 0.0
C1719 C 0.56372 0.67138 0.15494 0.0
C1720 C 0.59015 0.70714 0.16256 0.0
C1721 C 0.57092 0.74325 0.11065 0.0
C1722 C 0.61739 0.68964 0.1646 0.0
C1723 C 0.6362 0.69728 0.17943 0.0
C1724 C 0.62813 0.72258 0.19263 0.0
C1725 C 0.60071 0.74007 0.19074 0.0
C1726 C 0.58177 0.73231 0.17588 0.0
H1727 H 0.56672 0.75091 0.08875 0.0
H1728 H 0.5582 0.75963 0.12407 0.0
H1729 H 0.59383 0.74186 0.11197 0.0
H1730 H 0.62427 0.67019 0.15434 0.0
H1731 H 0.65735 0.68366 0.18 0.0
H1732 H 0.09861 0.2634 0.70786 0.0
H1733 H 0.0618 0.2526 0.68437 0.0
H1734 H 0.11585 0.16967 0.66964 0.0
H1735 H 0.15262 0.1803 0.69253 0.0
H1736 H 0.0671 0.24033 0.62912 0.0
H1737 H 0.03959 0.14899 0.7038 0.0
H1738 H 0.05815 0.17428 0.71286 0.0
H1739 H 0.07746 0.14426 0.69457 0.0
C1740 C 0.10255 0.24283 0.69968 0.0
C1741 C 0.12842 0.22258 0.70228 0.0
C1742 C 0.08149 0.23669 0.68641 0.0
C1743 C 0.08595 0.21014 0.67581 0.0
C1744 C 0.1117 0.18995 0.67839 0.0
H1745 H 0.05047 0.14356 0.54205 0.0
H1746 H 0.06182 0.17414 0.57238 0.0
C1747 C 0.13269 0.19606 0.69154 0.0
C1748 C 0.06474 0.20368 0.66045 0.0
H1749 H 0.03181 0.14934 0.65592 0.0
C1750 C 0.05873 0.22083 0.63523 0.0
C1751 C 0.05327 0.17869 0.6688 0.0
C1752 C 0.0572 0.16069 0.69666 0.0
C1753 C 0.04361 0.21214 0.61694 0.0
C1754 C 0.03495 0.18538 0.62393 0.0
C1755 C 0.03879 0.16966 0.65029 0.0
C1756 C 0.02508 0.1714 0.60335 0.0
C1757 C 0.03784 0.23129 0.59004 0.0
C1758 C 0.00068 0.15957 0.61061 0.0
C1759 C 0.99463 0.14129 0.59371 0.0
C1760 C 0.01283 0.13457 0.56911 0.0
C1761 C 0.03627 0.14789 0.56106 0.0
C1762 C 0.04249 0.16588 0.57814 0.0
H1763 H 0.03507 0.25447 0.59275 0.0
H1764 H 0.05639 0.22601 0.57389 0.0
H1765 H 0.01849 0.22826 0.58239 0.0
H1766 H 0.98708 0.16334 0.63007 0.0
H1767 H 0.97659 0.13117 0.60081 0.0
H1768 H 0.65516 0.25941 0.29289 0.0
H1769 H 0.6141 0.28613 0.32127 0.0
H1770 H 0.65547 0.35833 0.31191 0.0
H1771 H 0.69618 0.33214 0.28368 0.0
H1772 H 0.61828 0.3052 0.37158 0.0
H1773 H 0.57414 0.39761 0.29717 0.0
H1774 H 0.59694 0.3647 0.28597 0.0
H1775 H 0.61214 0.39252 0.29501 0.0
C1776 C 0.65522 0.28118 0.29652 0.0
C1777 C 0.67889 0.29368 0.28618 0.0
C1778 C 0.63179 0.29637 0.31266 0.0
C1779 C 0.63162 0.32433 0.3182 0.0
C1780 C 0.65491 0.33704 0.30727 0.0
H1781 H 0.58267 0.44824 0.42523 0.0
H1782 H 0.6009 0.41458 0.39048 0.0
C1783 C 0.6783 0.32191 0.29137 0.0
C1784 C 0.60898 0.33936 0.33796 0.0
H1785 H 0.5675 0.4063 0.34594 0.0
C1786 C 0.60639 0.32698 0.36594 0.0
C1787 C 0.59348 0.36765 0.33041 0.0
C1788 C 0.59408 0.38125 0.30042 0.0
C1789 C 0.5908 0.34326 0.38698 0.0
C1790 C 0.57747 0.37239 0.37961 0.0
C1791 C 0.5781 0.38398 0.35143 0.0
C1792 C 0.566 0.3922 0.40087 0.0
C1793 C 0.59044 0.33004 0.41709 0.0
C1794 C 0.54044 0.39048 0.41816 0.0
C1795 C 0.52996 0.40966 0.4381 0.0
C1796 C 0.54496 0.43076 0.44094 0.0
C1797 C 0.57068 0.43218 0.42364 0.0
C1798 C 0.58106 0.41309 0.40372 0.0
H1799 H 0.60337 0.30756 0.41936 0.0
H1800 H 0.59878 0.34344 0.42917 0.0
H1801 H 0.56815 0.32964 0.42639 0.0
H1802 H 0.52855 0.37452 0.41606 0.0
H1803 H 0.51 0.40812 0.45107 0.0
H1804 H 0.47374 0.93138 0.0881 0.0
H1805 H 0.44402 0.90042 0.11743 0.0
H1806 H 0.38093 0.92706 0.06041 0.0
H1807 H 0.41058 0.95797 0.03092 0.0
H1808 H 0.35646 0.92712 0.11663 0.0
H1809 H 0.43152 0.82241 0.1018 0.0
H1810 H 0.44677 0.84858 0.11361 0.0
H1811 H 0.43503 0.85557 0.07963 0.0
C1812 C 0.45355 0.93071 0.08171 0.0
C1813 C 0.4448 0.94734 0.0569 0.0
C1814 C 0.43656 0.91273 0.09851 0.0
C1815 C 0.41015 0.91084 0.09118 0.0
C1816 C 0.40115 0.92782 0.06668 0.0
H1817 H 0.31096 0.77709 0.16167 0.0
H1818 H 0.34006 0.8083 0.13165 0.0
C1819 C 0.41825 0.94557 0.04973 0.0
C1820 C 0.39184 0.89154 0.10908 0.0
H1821 H 0.39103 0.82089 0.13568 0.0
C1822 C 0.3641 0.90389 0.12074 0.0
C1823 C 0.4013 0.86104 0.11437 0.0
C1824 C 0.43016 0.84596 0.10154 0.0
C1825 C 0.34603 0.88695 0.13771 0.0
C1826 C 0.35579 0.85652 0.1437 0.0
C1827 C 0.38334 0.8441 0.13156 0.0
C1828 C 0.33778 0.83729 0.16229 0.0
C1829 C 0.31631 0.9019 0.14859 0.0
C1830 C 0.32676 0.84251 0.18992 0.0
C1831 C 0.30999 0.82466 0.20717 0.0
C1832 C 0.30374 0.80073 0.19753 0.0
C1833 C 0.31506 0.79527 0.16997 0.0
C1834 C 0.33187 0.81317 0.15271 0.0
H1835 H 0.30923 0.92295 0.13583 0.0
H1836 H 0.3007 0.88816 0.1488 0.0
H1837 H 0.31611 0.90634 0.17026 0.0
H1838 H 0.33139 0.86032 0.19839 0.0
H1839 H 0.30204 0.82959 0.22825 0.0
H1840 H 0.95575 0.59643 0.97706 0.0
H1841 H 0.92343 0.63173 0.94814 0.0
H1842 H 0.93358 0.56937 0.89009 0.0
H1843 H 0.96418 0.53371 0.91979 0.0
H1844 H 0.92416 0.65826 0.89654 0.0
H1845 H 0.84949 0.58447 0.91131 0.0
H1846 H 0.87989 0.5773 0.93021 0.0
H1847 H 0.88377 0.56729 0.89544 0.0
C1848 C 0.95126 0.59056 0.95791 0.0
C1849 C 0.96194 0.56244 0.95068 0.0
C1850 C 0.93282 0.61062 0.94147 0.0
C1851 C 0.92535 0.6028 0.91747 0.0
C1852 C 0.93815 0.57547 0.90909 0.0
H1853 H 0.84379 0.71267 0.78307 0.0
H1854 H 0.87686 0.6874 0.81625 0.0
C1855 C 0.95581 0.55524 0.92587 0.0
C1856 C 0.90317 0.62239 0.90184 0.0
H1857 H 0.84296 0.62312 0.87393 0.0
C1858 C 0.90618 0.65077 0.89184 0.0
C1859 C 0.87917 0.61294 0.89652 0.0
C1860 C 0.87271 0.58396 0.90925 0.0
C1861 C 0.88646 0.66955 0.87561 0.0
C1862 C 0.86389 0.65915 0.86822 0.0
C1863 C 0.86041 0.63111 0.87916 0.0
C1864 C 0.84389 0.67639 0.84877 0.0
C1865 C 0.8899 0.70035 0.86703 0.0
C1866 C 0.8144 0.67781 0.85546 0.0
C1867 C 0.79573 0.69099 0.83601 0.0
C1868 C 0.80611 0.70371 0.80982 0.0
C1869 C 0.83537 0.70318 0.80332 0.0
C1870 C 0.8542 0.68909 0.82243 0.0
H1871 H 0.90037 0.70765 0.8825 0.0
H1872 H 0.90379 0.7016 0.84675 0.0
H1873 H 0.86906 0.7155 0.86479 0.0
H1874 H 0.80585 0.6682 0.8756 0.0
H1875 H 0.77315 0.69139 0.84148 0.0
H1876 H 0.42165 0.45849 0.06198 0.0
H1877 H 0.38793 0.45414 0.10409 0.0
H1878 H 0.42084 0.51521 0.13935 0.0
H1879 H 0.45476 0.51997 0.09688 0.0
H1880 H 0.41927 0.46106 0.1735 0.0
H1881 H 0.3153 0.50994 0.13614 0.0
H1882 H 0.33798 0.48746 0.11176 0.0
H1883 H 0.34833 0.51921 0.11884 0.0
C1884 C 0.42157 0.47125 0.07853 0.0
C1885 C 0.4409 0.48946 0.07621 0.0
C1886 C 0.40207 0.46901 0.10244 0.0
C1887 C 0.40156 0.48483 0.12452 0.0
C1888 C 0.42066 0.50322 0.12229 0.0
H1889 H 0.27894 0.40795 0.24472 0.0
H1890 H 0.30305 0.44882 0.22924 0.0
C1891 C 0.44003 0.50578 0.09812 0.0
C1892 C 0.38323 0.47894 0.15083 0.0
H1893 H 0.31623 0.46719 0.17152 0.0
C1894 C 0.39649 0.46339 0.1737 0.0
C1895 C 0.35345 0.48265 0.15139 0.0
C1896 C 0.3379 0.50104 0.1283 0.0
C1897 C 0.38141 0.44781 0.19512 0.0
C1898 C 0.3527 0.44775 0.19323 0.0
C1899 C 0.33844 0.46686 0.17268 0.0
C1900 C 0.33991 0.42322 0.20682 0.0
C1901 C 0.39701 0.42931 0.21812 0.0
C1902 C 0.35266 0.39559 0.19917 0.0
C1903 C 0.33882 0.37272 0.2074 0.0
C1904 C 0.31208 0.37705 0.22358 0.0
C1905 C 0.29967 0.40433 0.23227 0.0
C1906 C 0.3134 0.4275 0.2236 0.0
H1907 H 0.41381 0.43944 0.22296 0.0
H1908 H 0.38215 0.42575 0.23742 0.0
H1909 H 0.40764 0.40794 0.21119 0.0
H1910 H 0.37274 0.39202 0.18561 0.0
H1911 H 0.34867 0.35177 0.20056 0.0
H1912 H 0.42849 0.50734 0.93947 0.0
H1913 H 0.39392 0.53704 0.90955 0.0
H1914 H 0.39965 0.61341 0.94332 0.0
H1915 H 0.4342 0.58408 0.97325 0.0
H1916 H 0.3407 0.60564 0.93576 0.0
H1917 H 0.42373 0.59615 0.84291 0.0
H1918 H 0.41879 0.56333 0.86477 0.0
H1919 H 0.43277 0.58936 0.87815 0.0
C1920 C 0.42215 0.53041 0.94075 0.0
C1921 C 0.43427 0.54346 0.95845 0.0
C1922 C 0.40243 0.54727 0.9237 0.0
C1923 C 0.39453 0.57729 0.92427 0.0
C1924 C 0.4056 0.59021 0.94273 0.0
H1925 H 0.32889 0.72154 0.81012 0.0
H1926 H 0.353 0.68716 0.84574 0.0
C1927 C 0.4254 0.57344 0.95966 0.0
C1928 C 0.37646 0.59569 0.90413 0.0
H1929 H 0.37852 0.62486 0.83587 0.0
C1930 C 0.34874 0.60969 0.91386 0.0
C1931 C 0.38738 0.60097 0.87573 0.0
C1932 C 0.41734 0.58686 0.86461 0.0
C1933 C 0.3316 0.62921 0.89573 0.0
C1934 C 0.34267 0.63468 0.86742 0.0
C1935 C 0.37024 0.62042 0.85767 0.0
C1936 C 0.32651 0.65608 0.84765 0.0
C1937 C 0.30215 0.6445 0.90693 0.0
C1938 C 0.30365 0.64981 0.83722 0.0
C1939 C 0.28993 0.66929 0.81675 0.0
C1940 C 0.29893 0.69528 0.80652 0.0
C1941 C 0.32148 0.7017 0.81756 0.0
C1942 C 0.33525 0.68215 0.83788 0.0
H1943 H 0.29792 0.64018 0.93003 0.0
H1944 H 0.2994 0.66823 0.90083 0.0
H1945 H 0.28599 0.63712 0.89769 0.0
H1946 H 0.29689 0.62959 0.84444 0.0
H1947 H 0.27258 0.66378 0.80868 0.0
H1948 H 0.05363 0.53868 0.62861 0.0
H1949 H 0.08042 0.55385 0.65981 0.0
H1950 H 0.14985 0.48098 0.64491 0.0
H1951 H 0.12324 0.46609 0.61275 0.0
H1952 H 0.10719 0.53059 0.70717 0.0
H1953 H 0.18508 0.55088 0.61355 0.0
H1954 H 0.15156 0.54214 0.61072 0.0
H1955 H 0.18023 0.51437 0.62304 0.0
C1956 C 0.07444 0.52563 0.63229 0.0
C1957 C 0.08666 0.5016 0.61781 0.0
C1958 C 0.08964 0.53419 0.6503 0.0
C1959 C 0.11735 0.51889 0.65423 0.0
C1960 C 0.12867 0.49336 0.64174 0.0
H1961 H 0.20859 0.60577 0.74859 0.0
H1962 H 0.18994 0.56648 0.73607 0.0
C1963 C 0.11341 0.48477 0.62357 0.0
C1964 C 0.13507 0.53219 0.66837 0.0
H1965 H 0.18813 0.57019 0.65369 0.0
C1966 C 0.12533 0.53871 0.69578 0.0
C1967 C 0.15857 0.54297 0.65328 0.0
C1968 C 0.16949 0.53748 0.62347 0.0
C1969 C 0.13742 0.55711 0.70789 0.0
C1970 C 0.15991 0.56899 0.69222 0.0
C1971 C 0.17082 0.561 0.66556 0.0
C1972 C 0.17002 0.59257 0.70133 0.0
C1973 C 0.12487 0.56529 0.73655 0.0
C1974 C 0.16488 0.62015 0.68601 0.0
C1975 C 0.17543 0.64248 0.69305 0.0
C1976 C 0.19147 0.63769 0.71553 0.0
C1977 C 0.19607 0.61018 0.73132 0.0
C1978 C 0.18549 0.58773 0.72419 0.0
H1979 H 0.10545 0.5566 0.74471 0.0
H1980 H 0.14092 0.55664 0.75127 0.0
H1981 H 0.11933 0.58922 0.73605 0.0
H1982 H 0.15285 0.62433 0.66837 0.0
H1983 H 0.17115 0.66352 0.68076 0.0
H1984 H 0.23609 0.29098 0.65527 0.0
H1985 H 0.2493 0.31583 0.60888 0.0
H1986 H 0.32724 0.32459 0.63536 0.0
H1987 H 0.31452 0.29985 0.68124 0.0
H1988 H 0.25997 0.37176 0.59559 0.0
H1989 H 0.35501 0.29122 0.56133 0.0
H1990 H 0.32801 0.28223 0.58907 0.0
H1991 H 0.35638 0.29751 0.59628 0.0
C1992 C 0.25614 0.29804 0.65106 0.0
C1993 C 0.27435 0.29337 0.67186 0.0
C1994 C 0.26362 0.31214 0.6246 0.0
C1995 C 0.28951 0.32138 0.61858 0.0
C1996 C 0.30752 0.31689 0.63937 0.0
H1997 H 0.35889 0.45516 0.55825 0.0
H1998 H 0.32358 0.42559 0.5726 0.0
C1999 C 0.3001 0.30295 0.66569 0.0
C2000 C 0.29754 0.33756 0.59142 0.0
H2001 H 0.3573 0.34214 0.54604 0.0
C2002 C 0.28086 0.36503 0.58403 0.0
C2003 C 0.32418 0.32836 0.57562 0.0
C2004 C 0.34173 0.29804 0.58082 0.0
C2005 C 0.29196 0.38497 0.56369 0.0
C2006 C 0.32059 0.37732 0.55129 0.0
C2007 C 0.33558 0.34848 0.55594 0.0
C2008 C 0.33728 0.39937 0.53844 0.0
C2009 C 0.27342 0.41446 0.55688 0.0
C2010 C 0.35688 0.39475 0.51436 0.0
C2011 C 0.37802 0.41092 0.50678 0.0
C2012 C 0.37976 0.43223 0.52301 0.0
C2013 C 0.35862 0.43845 0.54568 0.0
C2014 C 0.33786 0.42196 0.55352 0.0
H2015 H 0.25111 0.4126 0.55647 0.0
H2016 H 0.27299 0.42809 0.57347 0.0
H2017 H 0.28126 0.42546 0.53643 0.0
H2018 H 0.357 0.37735 0.50247 0.0
H2019 H 0.39402 0.40537 0.48927 0.0
H2020 H 0.228 0.62798 0.17138 0.0
H2021 H 0.21197 0.60713 0.13572 0.0
H2022 H 0.24296 0.66956 0.07212 0.0
H2023 H 0.25885 0.6908 0.10808 0.0
H2024 H 0.18655 0.67018 0.07205 0.0
H2025 H 0.24768 0.55743 0.07388 0.0
H2026 H 0.23392 0.56579 0.10861 0.0
H2027 H 0.25953 0.58484 0.08793 0.0
C2028 C 0.23205 0.63677 0.1497 0.0
C2029 C 0.24452 0.66103 0.14243 0.0
C2030 C 0.22313 0.62469 0.1293 0.0
C2031 C 0.22657 0.63656 0.1012 0.0
C2032 C 0.24037 0.6599 0.09366 0.0
H2033 H 0.13985 0.55648 0.99798 0.0
H2034 H 0.17717 0.57802 0.0096 0.0
C2035 C 0.24952 0.67193 0.11415 0.0
C2036 C 0.21187 0.6272 0.08092 0.0
H2037 H 0.1995 0.56636 0.06092 0.0
C2038 C 0.18989 0.64759 0.06896 0.0
C2039 C 0.21643 0.59783 0.07653 0.0
C2040 C 0.2409 0.5753 0.08719 0.0
C2041 C 0.17081 0.63897 0.05485 0.0
C2042 C 0.17362 0.60921 0.05301 0.0
C2043 C 0.1971 0.58915 0.06275 0.0
C2044 C 0.15073 0.59816 0.04419 0.0
C2045 C 0.14712 0.66169 0.04302 0.0
C2046 C 0.12361 0.60234 0.05984 0.0
C2047 C 0.1024 0.59008 0.05333 0.0
C2048 C 0.1079 0.5733 0.03108 0.0
C2049 C 0.13493 0.56956 0.01507 0.0
C2050 C 0.15627 0.58172 0.02172 0.0
H2051 H 0.15318 0.68309 0.03784 0.0
H2052 H 0.14143 0.6555 0.02395 0.0
H2053 H 0.12792 0.66409 0.05883 0.0
H2054 H 0.11906 0.61449 0.07759 0.0
H2055 H 0.08174 0.5935 0.06591 0.0
H2056 H 0.68028 0.25997 0.69633 0.0
H2057 H 0.64435 0.28989 0.66835 0.0
H2058 H 0.64498 0.3638 0.7088 0.0
H2059 H 0.68073 0.33378 0.73742 0.0
H2060 H 0.58919 0.35958 0.69743 0.0
H2061 H 0.67225 0.34877 0.60523 0.0
H2062 H 0.66624 0.315 0.62414 0.0
H2063 H 0.68062 0.33866 0.64057 0.0
C2064 C 0.67251 0.2825 0.69958 0.0
C2065 C 0.68364 0.2947 0.71872 0.0
C2066 C 0.65198 0.29953 0.68359 0.0
C2067 C 0.6425 0.32909 0.68619 0.0
C2068 C 0.65219 0.34099 0.70648 0.0
H2069 H 0.58046 0.46185 0.55856 0.0
H2070 H 0.60463 0.43133 0.59604 0.0
C2071 C 0.67261 0.32386 0.72274 0.0
C2072 C 0.62466 0.34799 0.66593 0.0
H2073 H 0.62568 0.37289 0.59665 0.0
C2074 C 0.59706 0.36256 0.67538 0.0
C2075 C 0.63526 0.352 0.63728 0.0
C2076 C 0.66529 0.33802 0.62615 0.0
C2077 C 0.5796 0.38099 0.65674 0.0
C2078 C 0.59007 0.38452 0.62802 0.0
C2079 C 0.61768 0.36995 0.61868 0.0
C2080 C 0.57353 0.40429 0.6072 0.0
C2081 C 0.55046 0.39704 0.66793 0.0
C2082 C 0.54788 0.39928 0.60118 0.0
C2083 C 0.53386 0.41683 0.57969 0.0
C2084 C 0.54553 0.43939 0.56379 0.0
C2085 C 0.57099 0.44453 0.57025 0.0
C2086 C 0.58481 0.42717 0.59173 0.0
H2087 H 0.54815 0.39693 0.69093 0.0
H2088 H 0.5462 0.41984 0.65797 0.0
H2089 H 0.53403 0.38649 0.66306 0.0
H2090 H 0.53912 0.38137 0.61256 0.0
H2091 H 0.51429 0.41235 0.57515 0.0
H2092 H 0.83827 0.69099 0.2172 0.0
H2093 H 0.86634 0.65115 0.19214 0.0
H2094 H 0.78901 0.62745 0.18012 0.0
H2095 H 0.76068 0.66762 0.20463 0.0
H2096 H 0.86963 0.5912 0.20027 0.0
H2097 H 0.82791 0.64232 0.10053 0.0
H2098 H 0.82259 0.6615 0.13062 0.0
H2099 H 0.80129 0.63575 0.12924 0.0
C2100 C 0.82722 0.67719 0.20941 0.0
C2101 C 0.79725 0.68269 0.21255 0.0
C2102 C 0.84329 0.6544 0.19516 0.0
C2103 C 0.8297 0.63673 0.18388 0.0
C2104 C 0.79985 0.64125 0.18818 0.0
H2105 H 0.90853 0.51205 0.06548 0.0
H2106 H 0.87437 0.53693 0.10107 0.0
C2107 C 0.78373 0.66415 0.20226 0.0
C2108 C 0.84687 0.6146 0.16643 0.0
H2109 H 0.86093 0.5979 0.0995 0.0
C2110 C 0.8676 0.59249 0.17828 0.0
C2111 C 0.8441 0.61639 0.13777 0.0
C2112 C 0.82296 0.64037 0.12364 0.0
C2113 C 0.88604 0.57236 0.16206 0.0
C2114 C 0.8838 0.5747 0.13327 0.0
C2115 C 0.86244 0.59615 0.12165 0.0
C2116 C 0.90496 0.55696 0.11421 0.0
C2117 C 0.90796 0.54896 0.17575 0.0
C2118 C 0.93339 0.56 0.10994 0.0
C2119 C 0.95284 0.54604 0.08959 0.0
C2120 C 0.94418 0.52882 0.07306 0.0
C2121 C 0.91585 0.52514 0.07791 0.0
C2122 C 0.89633 0.53929 0.09821 0.0
H2123 H 0.90165 0.54486 0.19863 0.0
H2124 H 0.9112 0.5284 0.16657 0.0
H2125 H 0.92863 0.55591 0.17241 0.0
H2126 H 0.9403 0.57403 0.12169 0.0
H2127 H 0.97452 0.5493 0.08639 0.0
H2128 H 0.91582 0.56289 0.51491 0.0
H2129 H 0.88397 0.5992 0.54235 0.0
H2130 H 0.95527 0.60865 0.58029 0.0
H2131 H 0.98688 0.5721 0.55362 0.0
H2132 H 0.9123 0.59453 0.61831 0.0
H2133 H 0.8698 0.68696 0.54208 0.0
H2134 H 0.86629 0.65234 0.53478 0.0
H2135 H 0.90121 0.65967 0.53314 0.0
C2136 C 0.92474 0.57327 0.52861 0.0
C2137 C 0.9537 0.56449 0.5324 0.0
C2138 C 0.90658 0.59409 0.54416 0.0
C2139 C 0.91732 0.60668 0.56326 0.0
C2140 C 0.94657 0.59916 0.5657 0.0
H2141 H 0.82839 0.73596 0.67275 0.0
H2142 H 0.86006 0.71032 0.63607 0.0
C2143 C 0.96457 0.57823 0.55049 0.0
C2144 C 0.89788 0.62471 0.58334 0.0
H2145 H 0.8468 0.68674 0.58904 0.0
C2146 C 0.89812 0.61479 0.61188 0.0
C2147 C 0.87954 0.65118 0.57489 0.0
C2148 C 0.87929 0.66337 0.54457 0.0
C2149 C 0.88029 0.63042 0.63224 0.0
C2150 C 0.86128 0.65637 0.62382 0.0
C2151 C 0.86129 0.66666 0.59532 0.0
C2152 C 0.84103 0.67274 0.64454 0.0
C2153 C 0.8821 0.61911 0.66265 0.0
C2154 C 0.81967 0.66019 0.66102 0.0
C2155 C 0.80174 0.6746 0.68199 0.0
C2156 C 0.80474 0.70194 0.68677 0.0
C2157 C 0.82569 0.71484 0.6697 0.0
C2158 C 0.84368 0.70033 0.64868 0.0
H2159 H 0.90236 0.60316 0.66565 0.0
H2160 H 0.88042 0.63708 0.67519 0.0
H2161 H 0.86417 0.60814 0.67084 0.0
H2162 H 0.81711 0.63904 0.65784 0.0
H2163 H 0.78564 0.66418 0.69457 0.0
H2164 H 0.4405 0.52151 0.43155 0.0
H2165 H 0.41575 0.55118 0.39407 0.0
H2166 H 0.47704 0.60594 0.37995 0.0
H2167 H 0.50253 0.57578 0.41738 0.0
H2168 H 0.39148 0.60869 0.396 0.0
H2169 H 0.46909 0.59263 0.30029 0.0
H2170 H 0.47241 0.56835 0.33236 0.0
H2171 H 0.48246 0.6027 0.32885 0.0
C2172 C 0.44896 0.53969 0.42035 0.0
C2173 C 0.47333 0.5465 0.42759 0.0
C2174 C 0.43483 0.55653 0.39884 0.0
C2175 C 0.44469 0.58057 0.38412 0.0
C2176 C 0.46942 0.58712 0.39074 0.0
H2177 H 0.33505 0.72616 0.30266 0.0
H2178 H 0.37304 0.69478 0.32714 0.0
C2179 C 0.48379 0.57006 0.41225 0.0
C2180 C 0.42718 0.60019 0.36398 0.0
H2181 H 0.42648 0.62852 0.29545 0.0
C2182 C 0.39914 0.61297 0.37401 0.0
C2183 C 0.43723 0.60551 0.33531 0.0
C2184 C 0.46687 0.59143 0.3234 0.0
C2185 C 0.38082 0.63102 0.35619 0.0
C2186 C 0.39099 0.63691 0.32765 0.0
C2187 C 0.41895 0.62402 0.31743 0.0
C2188 C 0.37248 0.6567 0.30857 0.0
C2189 C 0.35055 0.64347 0.36799 0.0
C2190 C 0.36061 0.64583 0.2891 0.0
C2191 C 0.33887 0.66378 0.27492 0.0
C2192 C 0.32873 0.69267 0.2803 0.0
C2193 C 0.34211 0.70386 0.29841 0.0
C2194 C 0.36389 0.68604 0.31233 0.0
H2195 H 0.34436 0.63193 0.38875 0.0
H2196 H 0.34855 0.66657 0.37046 0.0
H2197 H 0.3353 0.64239 0.35365 0.0
H2198 H 0.36705 0.62315 0.28603 0.0
H2199 H 0.32899 0.65466 0.26099 0.0
H2200 H 0.16579 0.32133 0.77518 0.0
H2201 H 0.13717 0.35943 0.8018 0.0
H2202 H 0.2138 0.38024 0.81977 0.0
H2203 H 0.24273 0.34152 0.79369 0.0
H2204 H 0.17889 0.36987 0.86614 0.0
H2205 H 0.11599 0.44636 0.79073 0.0
H2206 H 0.11297 0.40989 0.78971 0.0
H2207 H 0.14714 0.41969 0.77981 0.0
C2208 C 0.17662 0.3344 0.78427 0.0
C2209 C 0.20653 0.32825 0.78253 0.0
C2210 C 0.16019 0.35639 0.79929 0.0
C2211 C 0.17334 0.37295 0.81247 0.0
C2212 C 0.20324 0.36781 0.80961 0.0
H2213 H 0.09117 0.48462 0.94204 0.0
H2214 H 0.12517 0.46391 0.90408 0.0
C2215 C 0.21972 0.34566 0.79473 0.0
C2216 C 0.15591 0.39268 0.83221 0.0
H2217 H 0.09612 0.44639 0.83949 0.0
C2218 C 0.16118 0.38704 0.86019 0.0
C2219 C 0.13277 0.41501 0.82442 0.0
C2220 C 0.12708 0.42329 0.79445 0.0
C2221 C 0.14304 0.40207 0.88084 0.0
C2222 C 0.11916 0.42337 0.87324 0.0
C2223 C 0.11443 0.42986 0.84516 0.0
C2224 C 0.09795 0.43768 0.89457 0.0
C2225 C 0.14871 0.39419 0.91087 0.0
C2226 C 0.07132 0.43004 0.90131 0.0
C2227 C 0.05192 0.44165 0.92304 0.0
C2228 C 0.05883 0.46124 0.93822 0.0
C2229 C 0.08527 0.46947 0.93083 0.0
C2230 C 0.10471 0.45772 0.90917 0.0
H2231 H 0.16612 0.3747 0.91368 0.0
H2232 H 0.15488 0.41254 0.91804 0.0
H2233 H 0.1291 0.3901 0.92442 0.0
H2234 H 0.06585 0.41453 0.8902 0.0
H2235 H 0.03166 0.43503 0.9281 0.0
H2236 H 0.21236 0.31773 0.31511 0.0
H2237 H 0.18509 0.33667 0.35681 0.0
H2238 H 0.16834 0.25221 0.38889 0.0
H2239 H 0.19517 0.23306 0.34636 0.0
H2240 H 0.1212 0.29245 0.39505 0.0
H2241 H 0.20497 0.32974 0.43409 0.0
H2242 H 0.20355 0.34438 0.39823 0.0
H2243 H 0.21308 0.30566 0.40746 0.0
C2244 C 0.20312 0.30302 0.33107 0.0
C2245 C 0.20601 0.27385 0.32746 0.0
C2246 C 0.18777 0.31385 0.35511 0.0
C2247 C 0.17538 0.29569 0.37639 0.0
C2248 C 0.17809 0.26651 0.37289 0.0
H2249 H 0.08854 0.40132 0.50969 0.0
H2250 H 0.11928 0.35909 0.48959 0.0
C2251 C 0.19332 0.25564 0.34858 0.0
C2252 C 0.15772 0.30826 0.40095 0.0
H2253 H 0.15616 0.35763 0.44496 0.0
C2254 C 0.12901 0.30611 0.4065 0.0
C2255 C 0.168 0.32532 0.41666 0.0
C2256 C 0.1992 0.32608 0.41399 0.0
C2257 C 0.10975 0.32287 0.42527 0.0
C2258 C 0.11932 0.34294 0.43803 0.0
C2259 C 0.14858 0.34283 0.43467 0.0
C2260 C 0.09917 0.36654 0.4518 0.0
C2261 C 0.07918 0.3195 0.43051 0.0
C2262 C 0.07787 0.38488 0.43718 0.0
C2263 C 0.06025 0.40872 0.44864 0.0
C2264 C 0.0639 0.41518 0.47477 0.0
C2265 C 0.08525 0.39689 0.48948 0.0
C2266 C 0.10274 0.37273 0.47808 0.0
H2267 H 0.07796 0.29678 0.42942 0.0
H2268 H 0.06862 0.32571 0.45121 0.0
H2269 H 0.0672 0.33341 0.41404 0.0
H2270 H 0.07536 0.38129 0.41644 0.0
H2271 H 0.04419 0.4225 0.43662 0.0
loop_
_geom_bond_atom_site_label_1
_geom_bond_atom_site_label_2
_geom_bond_distance
_geom_bond_site_symmetry_2
_ccdc_geom_bond_type
C0 O16 1.251 . S
C0 O18 1.254 . S
N1 C2 1.333 . S
N1 C6 1.307 . S
N1 Zn7 2.020 . S
C2 N1 1.333 . S
C2 C3 1.379 . S
C2 H20 0.952 . S
C3 C2 1.379 . S
C3 C4 1.390 . S
C3 H30 0.949 . S
C4 C3 1.390 . S
C4 C5 1.357 . S
C5 C4 1.357 . S
C5 C6 1.370 . S
C5 H31 0.950 . S
C6 N1 1.307 . S
C6 C5 1.370 . S
C6 H24 0.948 1_554 S
Zn7 N1 2.020 . S
Zn7 O16 2.039 1_565 S
Zn7 O22 2.034 1_655 S
Zn7 O26 2.025 1_654 S
Zn7 O28 2.024 1_564 S
C8 O27 1.246 . S
C8 O28 1.249 . S
N9 C10 1.307 . S
N9 C11 1.333 . S
N9 Zn15 2.020 . S
C10 N9 1.307 . S
C10 C14 1.370 . S
C10 H21 0.948 1_556 S
C11 N9 1.333 . S
C11 C12 1.379 . S
C11 H19 0.952 . S
C12 C11 1.379 . S
C12 C13 1.390 . S
C12 H32 0.949 . S
C13 C12 1.390 . S
C13 C14 1.357 . S
C14 C10 1.370 . S
C14 C13 1.357 . S
C14 H33 0.950 . S
Zn15 N9 2.020 . S
Zn15 O18 2.025 1_456 S
Zn15 O23 2.024 1_546 S
Zn15 O25 2.039 1_545 S
Zn15 O27 2.034 1_455 S
O16 C0 1.251 . S
O16 Zn7 2.039 1_545 S
C17 O22 1.246 . S
C17 O23 1.249 . S
O18 C0 1.254 . S
O18 Zn15 2.025 1_654 S
H19 C11 0.952 . S
H20 C2 0.952 . S
H21 C10 0.948 1_554 S
O22 Zn7 2.034 1_455 S
O22 C17 1.246 . S
O23 Zn15 2.024 1_564 S
O23 C17 1.249 . S
H24 C6 0.948 1_556 S
O25 Zn15 2.039 1_565 S
O25 C29 1.251 . S
O26 Zn7 2.025 1_456 S
O26 C29 1.254 . S
O27 C8 1.246 . S
O27 Zn15 2.034 1_655 S
O28 Zn7 2.024 1_546 S
O28 C8 1.249 . S
C29 O25 1.251 . S
C29 O26 1.254 . S
H30 C3 0.949 . S
H31 C5 0.950 . S
H32 C12 0.949 . S
H33 C14 0.950 . S
C34 O50 1.251 . S
C34 O52 1.254 . S
N35 C36 1.333 . S
N35 C40 1.307 . S
N35 Zn41 2.020 . S
C36 N35 1.333 . S
C36 C37 1.379 . S
C36 H54 0.952 . S
C37 C36 1.379 . S
C37 C38 1.390 . S
C37 H64 0.949 . S
C38 C37 1.390 . S
C38 C39 1.357 . S
C39 C38 1.357 . S
C39 C40 1.370 . S
C39 H65 0.950 . S
C40 N35 1.307 . S
C40 C39 1.370 . S
C40 H58 0.948 . S
Zn41 N35 2.020 . S
Zn41 O50 2.039 . S
Zn41 O56 2.034 . S
Zn41 O60 2.025 . S
Zn41 O62 2.024 . S
C42 O61 1.246 . S
C42 O62 1.249 . S
N43 C44 1.307 . S
N43 C45 1.333 . S
N43 Zn49 2.020 . S
C44 N43 1.307 . S
C44 C48 1.370 . S
C44 H55 0.948 . S
C45 N43 1.333 . S
C45 C46 1.379 . S
C45 H53 0.952 . S
C46 C45 1.379 . S
C46 C47 1.390 . S
C46 H66 0.949 . S
C47 C46 1.390 . S
C47 C48 1.357 . S
C48 C44 1.370 . S
C48 C47 1.357 . S
C48 H67 0.950 . S
Zn49 N43 2.020 . S
Zn49 O52 2.025 . S
Zn49 O57 2.024 . S
Zn49 O59 2.039 . S
Zn49 O61 2.034 . S
O50 C34 1.251 . S
O50 Zn41 2.039 . S
C51 O56 1.246 . S
C51 O57 1.249 . S
O52 C34 1.254 . S
O52 Zn49 2.025 . S
H53 C45 0.952 . S
H54 C36 0.952 . S
H55 C44 0.948 . S
O56 Zn41 2.034 . S
O56 C51 1.246 . S
O57 Zn49 2.024 . S
O57 C51 1.249 . S
H58 C40 0.948 . S
O59 Zn49 2.039 . S
O59 C63 1.251 . S
O60 Zn41 2.025 . S
O60 C63 1.254 . S
O61 C42 1.246 . S
O61 Zn49 2.034 . S
O62 Zn41 2.024 . S
O62 C42 1.249 . S
C63 O59 1.251 . S
C63 O60 1.254 . S
H64 C37 0.949 . S
H65 C39 0.950 . S
H66 C46 0.949 . S
H67 C48 0.950 . S
C68 O84 1.251 . S
C68 O86 1.254 . S
N69 C70 1.333 . S
N69 C74 1.307 . S
N69 Zn75 2.020 . S
C70 N69 1.333 . S
C70 C71 1.379 . S
C70 H88 0.952 . S
C71 C70 1.379 . S
C71 C72 1.390 . S
C71 H98 0.949 . S
C72 C71 1.390 . S
C72 C73 1.357 . S
C73 C72 1.357 . S
C73 C74 1.370 . S
C73 H99 0.950 . S
C74 N69 1.307 . S
C74 C73 1.370 . S
C74 H92 0.948 . S
Zn75 N69 2.020 . S
Zn75 O84 2.039 1_545 S
Zn75 O90 2.034 . S
Zn75 O94 2.025 . S
Zn75 O96 2.024 1_545 S
C76 O95 1.246 . S
C76 O96 1.249 . S
N77 C78 1.307 . S
N77 C79 1.333 . S
N77 Zn83 2.020 . S
C78 N77 1.307 . S
C78 C82 1.370 . S
C78 H89 0.948 . S
C79 N77 1.333 . S
C79 C80 1.379 . S
C79 H87 0.952 . S
C80 C79 1.379 . S
C80 C81 1.390 . S
C80 H100 0.949 . S
C81 C80 1.390 . S
C81 C82 1.357 . S
C82 C78 1.370 . S
C82 C81 1.357 . S
C82 H101 0.950 . S
Zn83 N77 2.020 . S
Zn83 O86 2.025 . S
Zn83 O91 2.024 1_565 S
Zn83 O93 2.039 1_565 S
Zn83 O95 2.034 . S
O84 C68 1.251 . S
O84 Zn75 2.039 1_565 S
C85 O90 1.246 . S
C85 O91 1.249 . S
O86 C68 1.254 . S
O86 Zn83 2.025 . S
H87 C79 0.952 . S
H88 C70 0.952 . S
H89 C78 0.948 . S
O90 Zn75 2.034 . S
O90 C85 1.246 . S
O91 Zn83 2.024 1_545 S
O91 C85 1.249 . S
H92 C74 0.948 . S
O93 Zn83 2.039 1_545 S
O93 C97 1.251 . S
O94 Zn75 2.025 . S
O94 C97 1.254 . S
O95 C76 1.246 . S
O95 Zn83 2.034 . S
O96 Zn75 2.024 1_565 S
O96 C76 1.249 . S
C97 O93 1.251 . S
C97 O94 1.254 . S
H98 C71 0.949 . S
H99 C73 0.950 . S
H100 C80 0.949 . S
H101 C82 0.950 . S
C102 O118 1.251 . S
C102 O120 1.254 . S
N103 C104 1.333 . S
N103 C108 1.307 . S
N103 Zn109 2.020 . S
C104 N103 1.333 . S
C104 C105 1.379 . S
C104 H122 0.952 . S
C105 C104 1.379 . S
C105 C106 1.390 . S
C105 H132 0.949 . S
C106 C105 1.390 . S
C106 C107 1.357 . S
C107 C106 1.357 . S
C107 C108 1.370 . S
C107 H133 0.950 . S
C108 N103 1.307 . S
C108 C107 1.370 . S
C108 H126 0.948 . S
Zn109 N103 2.020 . S
Zn109 O118 2.039 . S
Zn109 O124 2.034 . S
Zn109 O128 2.025 . S
Zn109 O130 2.024 . S
C110 O129 1.246 . S
C110 O130 1.249 . S
N111 C112 1.307 . S
N111 C113 1.333 . S
N111 Zn117 2.020 . S
C112 N111 1.307 . S
C112 C116 1.370 . S
C112 H123 0.948 . S
C113 N111 1.333 . S
C113 C114 1.379 . S
C113 H121 0.952 . S
C114 C113 1.379 . S
C114 C115 1.390 . S
C114 H134 0.949 . S
C115 C114 1.390 . S
C115 C116 1.357 . S
C116 C112 1.370 . S
C116 C115 1.357 . S
C116 H135 0.950 . S
Zn117 N111 2.020 . S
Zn117 O120 2.025 . S
Zn117 O125 2.024 . S
Zn117 O127 2.039 . S
Zn117 O129 2.034 . S
O118 C102 1.251 . S
O118 Zn109 2.039 . S
C119 O124 1.246 . S
C119 O125 1.249 . S
O120 C102 1.254 . S
O120 Zn117 2.025 . S
H121 C113 0.952 . S
H122 C104 0.952 . S
H123 C112 0.948 . S
O124 Zn109 2.034 . S
O124 C119 1.246 . S
O125 Zn117 2.024 . S
O125 C119 1.249 . S
H126 C108 0.948 . S
O127 Zn117 2.039 . S
O127 C131 1.251 . S
O128 Zn109 2.025 . S
O128 C131 1.254 . S
O129 C110 1.246 . S
O129 Zn117 2.034 . S
O130 Zn109 2.024 . S
O130 C110 1.249 . S
C131 O127 1.251 . S
C131 O128 1.254 . S
H132 C105 0.949 . S
H133 C107 0.950 . S
H134 C114 0.949 . S
H135 C116 0.950 . S
C136 O152 1.251 . S
C136 O154 1.254 . S
N137 C138 1.333 . S
N137 C142 1.307 1_655 S
N137 Zn143 2.020 . S
C138 N137 1.333 . S
C138 C139 1.379 . S
C138 H156 0.952 . S
C139 C138 1.379 . S
C139 C140 1.390 . S
C139 H166 0.949 . S
C140 C139 1.390 . S
C140 C141 1.357 1_655 S
C141 C140 1.357 1_455 S
C141 C142 1.370 . S
C141 H167 0.950 . S
C142 N137 1.307 1_455 S
C142 C141 1.370 . S
C142 H160 0.948 . S
Zn143 N137 2.020 . S
Zn143 O152 2.039 1_565 S
Zn143 O158 2.034 . S
Zn143 O162 2.025 1_655 S
Zn143 O164 2.013 1_665 S
C144 O163 1.246 . S
C144 O164 1.270 . S
N145 C146 1.307 1_455 S
N145 C147 1.333 . S
N145 Zn151 2.020 . S
C146 N145 1.307 1_655 S
C146 C150 1.370 . S
C146 H157 0.948 . S
C147 N145 1.333 . S
C147 C148 1.379 . S
C147 H155 0.952 . S
C148 C147 1.379 . S
C148 C149 1.390 . S
C148 H168 0.949 . S
C149 C148 1.390 . S
C149 C150 1.357 1_455 S
C150 C146 1.370 . S
C150 C149 1.357 1_655 S
C150 H169 0.950 . S
Zn151 N145 2.020 . S
Zn151 O154 2.025 1_455 S
Zn151 O159 2.024 1_455 S
Zn151 O161 2.039 1_545 S
Zn151 O163 2.034 . S
O152 C136 1.251 . S
O152 Zn143 2.039 1_545 S
C153 O158 1.246 . S
C153 O159 1.249 1_565 S
O154 C136 1.254 . S
O154 Zn151 2.025 1_655 S
H155 C147 0.952 . S
H156 C138 0.952 . S
H157 C146 0.948 . S
O158 Zn143 2.034 . S
O158 C153 1.246 . S
O159 Zn151 2.024 1_655 S
O159 C153 1.249 1_545 S
H160 C142 0.948 . S
O161 Zn151 2.039 1_565 S
O161 C165 1.251 . S
O162 Zn143 2.025 1_455 S
O162 C165 1.254 . S
O163 C144 1.246 . S
O163 Zn151 2.034 . S
O164 Zn143 2.013 1_445 S
O164 C144 1.270 . S
C165 O161 1.251 . S
C165 O162 1.254 . S
H166 C139 0.949 . S
H167 C141 0.950 . S
H168 C148 0.949 . S
H169 C150 0.950 . S
C170 O186 1.251 . S
C170 O188 1.254 . S
N171 C172 1.333 . S
N171 C176 1.307 . S
N171 Zn177 2.020 . S
C172 N171 1.333 . S
C172 C173 1.379 . S
C172 H190 0.952 . S
C173 C172 1.379 . S
C173 C174 1.390 . S
C173 H200 0.949 . S
C174 C173 1.390 . S
C174 C175 1.357 . S
C175 C174 1.357 . S
C175 C176 1.370 . S
C175 H201 0.950 . S
C176 N171 1.307 . S
C176 C175 1.370 . S
C176 H194 0.948 . S
Zn177 N171 2.020 . S
Zn177 O186 2.039 . S
Zn177 O192 2.034 . S
Zn177 O196 2.025 . S
Zn177 O198 2.024 . S
C178 O197 1.246 . S
C178 O198 1.249 . S
N179 C180 1.307 . S
N179 C181 1.333 . S
N179 Zn185 2.020 . S
C180 N179 1.307 . S
C180 C184 1.370 . S
C180 H191 0.948 . S
C181 N179 1.333 . S
C181 C182 1.379 . S
C181 H189 0.952 . S
C182 C181 1.379 . S
C182 C183 1.390 . S
C182 H202 0.949 . S
C183 C182 1.390 . S
C183 C184 1.357 . S
C184 C180 1.370 . S
C184 C183 1.357 . S
C184 H203 0.950 . S
Zn185 N179 2.020 . S
Zn185 O188 2.025 . S
Zn185 O193 2.024 . S
Zn185 O195 2.039 . S
Zn185 O197 2.034 . S
O186 C170 1.251 . S
O186 Zn177 2.039 . S
C187 O192 1.246 . S
C187 O193 1.249 . S
O188 C170 1.254 . S
O188 Zn185 2.025 . S
H189 C181 0.952 . S
H190 C172 0.952 . S
H191 C180 0.948 . S
O192 Zn177 2.034 . S
O192 C187 1.246 . S
O193 Zn185 2.024 . S
O193 C187 1.249 . S
H194 C176 0.948 . S
O195 Zn185 2.039 . S
O195 C199 1.251 . S
O196 Zn177 2.025 . S
O196 C199 1.254 . S
O197 C178 1.246 . S
O197 Zn185 2.034 . S
O198 Zn177 2.024 . S
O198 C178 1.249 . S
C199 O195 1.251 . S
C199 O196 1.254 . S
H200 C173 0.949 . S
H201 C175 0.950 . S
H202 C182 0.949 . S
H203 C184 0.950 . S
C204 O220 1.251 . S
C204 O222 1.254 . S
N205 C206 1.333 . S
N205 C210 1.307 1_545 S
N205 Zn211 2.020 . S
C206 N205 1.333 . S
C206 C207 1.379 . S
C206 H224 0.952 . S
C207 C206 1.379 . S
C207 C208 1.390 . S
C207 H234 0.949 . S
C208 C207 1.390 . S
C208 C209 1.357 1_545 S
C209 C208 1.357 1_565 S
C209 C210 1.370 . S
C209 H235 0.950 . S
C210 N205 1.307 1_565 S
C210 C209 1.370 . S
C210 H228 0.948 . S
Zn211 N205 2.020 . S
Zn211 O220 2.039 . S
Zn211 O226 2.034 1_554 S
Zn211 O230 2.025 1_544 S
Zn211 O232 2.024 1_545 S
C212 O231 1.246 . S
C212 O232 1.249 . S
N213 C214 1.307 1_565 S
N213 C215 1.333 . S
N213 Zn219 2.020 . S
C214 N213 1.307 1_545 S
C214 C218 1.370 . S
C214 H225 0.948 . S
C215 N213 1.333 . S
C215 C216 1.379 . S
C215 H223 0.952 . S
C216 C215 1.379 . S
C216 C217 1.390 . S
C216 H236 0.949 . S
C217 C216 1.390 . S
C217 C218 1.357 1_565 S
C218 C214 1.370 . S
C218 C217 1.357 1_545 S
C218 H237 0.950 . S
Zn219 N213 2.020 . S
Zn219 O222 2.025 1_566 S
Zn219 O227 2.024 1_565 S
Zn219 O229 2.039 . S
Zn219 O231 2.034 1_556 S
O220 C204 1.251 . S
O220 Zn211 2.039 . S
C221 O226 1.246 . S
C221 O227 1.249 . S
O222 C204 1.254 . S
O222 Zn219 2.025 1_544 S
H223 C215 0.952 . S
H224 C206 0.952 . S
H225 C214 0.948 . S
O226 Zn211 2.034 1_556 S
O226 C221 1.246 . S
O227 Zn219 2.024 1_545 S
O227 C221 1.249 . S
H228 C210 0.948 . S
O229 Zn219 2.039 . S
O229 C233 1.251 . S
O230 Zn211 2.025 1_566 S
O230 C233 1.254 . S
O231 C212 1.246 . S
O231 Zn219 2.034 1_554 S
O232 Zn211 2.024 1_565 S
O232 C212 1.249 . S
C233 O229 1.251 . S
C233 O230 1.254 . S
H234 C207 0.949 . S
H235 C209 0.950 . S
H236 C216 0.949 . S
H237 C218 0.950 . S
C238 O254 1.251 . S
C238 O256 1.254 . S
N239 C240 1.333 . S
N239 C244 1.307 . S
N239 Zn245 2.020 . S
C240 N239 1.333 . S
C240 C241 1.379 . S
C240 H258 0.952 . S
C241 C240 1.379 . S
C241 C242 1.390 . S
C241 H268 0.949 . S
C242 C241 1.390 . S
C242 C243 1.357 . S
C243 C242 1.357 . S
C243 C244 1.370 . S
C243 H269 0.950 . S
C244 N239 1.307 . S
C244 C243 1.370 . S
C244 H262 0.948 . S
Zn245 N239 2.020 . S
Zn245 O254 2.039 . S
Zn245 O260 2.034 . S
Zn245 O264 2.025 . S
Zn245 O266 2.024 . S
C246 O265 1.246 . S
C246 O266 1.249 . S
N247 C248 1.307 . S
N247 C249 1.333 . S
N247 Zn253 2.020 . S
C248 N247 1.307 . S
C248 C252 1.370 . S
C248 H259 0.948 . S
C249 N247 1.333 . S
C249 C250 1.379 . S
C249 H257 0.952 . S
C250 C249 1.379 . S
C250 C251 1.390 . S
C250 H270 0.949 . S
C251 C250 1.390 . S
C251 C252 1.357 . S
C252 C248 1.370 . S
C252 C251 1.357 . S
C252 H271 0.950 . S
Zn253 N247 2.020 . S
Zn253 O256 2.025 . S
Zn253 O261 2.024 . S
Zn253 O263 2.039 . S
Zn253 O265 2.034 . S
O254 C238 1.251 . S
O254 Zn245 2.039 . S
C255 O260 1.246 . S
C255 O261 1.249 . S
O256 C238 1.254 . S
O256 Zn253 2.025 . S
H257 C249 0.952 . S
H258 C240 0.952 . S
H259 C248 0.948 . S
O260 Zn245 2.034 . S
O260 C255 1.246 . S
O261 Zn253 2.024 . S
O261 C255 1.249 . S
H262 C244 0.948 . S
O263 Zn253 2.039 . S
O263 C267 1.251 . S
O264 Zn245 2.025 . S
O264 C267 1.254 . S
O265 C246 1.246 . S
O265 Zn253 2.034 . S
O266 Zn245 2.024 . S
O266 C246 1.249 . S
C267 O263 1.251 . S
C267 O264 1.254 . S
H268 C241 0.949 . S
H269 C243 0.950 . S
H270 C250 0.949 . S
H271 C252 0.950 . S
C272 O288 1.251 . S
C272 O290 1.254 . S
N273 C274 1.333 . S
N273 C278 1.307 . S
N273 Zn279 2.020 . S
C274 N273 1.333 . S
C274 C275 1.379 . S
C274 H292 0.952 . S
C275 C274 1.379 . S
C275 C276 1.390 . S
C275 H302 0.949 . S
C276 C275 1.390 . S
C276 C277 1.357 . S
C277 C276 1.357 . S
C277 C278 1.370 . S
C277 H303 0.950 . S
C278 N273 1.307 . S
C278 C277 1.370 . S
C278 H296 0.948 . S
Zn279 N273 2.020 . S
Zn279 O288 2.039 . S
Zn279 O294 2.034 1_556 S
Zn279 O298 2.025 1_556 S
Zn279 O300 2.024 . S
C280 O299 1.246 . S
C280 O300 1.249 . S
N281 C282 1.307 . S
N281 C283 1.333 . S
N281 Zn287 2.020 . S
C282 N281 1.307 . S
C282 C286 1.370 . S
C282 H293 0.948 . S
C283 N281 1.333 . S
C283 C284 1.379 . S
C283 H291 0.952 . S
C284 C283 1.379 . S
C284 C285 1.390 . S
C284 H304 0.949 . S
C285 C284 1.390 . S
C285 C286 1.357 . S
C286 C282 1.370 . S
C286 C285 1.357 . S
C286 H305 0.950 . S
Zn287 N281 2.020 . S
Zn287 O290 2.025 1_554 S
Zn287 O295 2.024 . S
Zn287 O297 2.039 . S
Zn287 O299 2.034 1_554 S
O288 C272 1.251 . S
O288 Zn279 2.039 . S
C289 O294 1.246 . S
C289 O295 1.249 . S
O290 C272 1.254 . S
O290 Zn287 2.025 1_556 S
H291 C283 0.952 . S
H292 C274 0.952 . S
H293 C282 0.948 . S
O294 Zn279 2.034 1_554 S
O294 C289 1.246 . S
O295 Zn287 2.024 . S
O295 C289 1.249 . S
H296 C278 0.948 . S
O297 Zn287 2.039 . S
O297 C301 1.251 . S
O298 Zn279 2.025 1_554 S
O298 C301 1.254 . S
O299 C280 1.246 . S
O299 Zn287 2.034 1_556 S
O300 Zn279 2.024 . S
O300 C280 1.249 . S
C301 O297 1.251 . S
C301 O298 1.254 . S
H302 C275 0.949 . S
H303 C277 0.950 . S
H304 C284 0.949 . S
H305 C286 0.950 . S
C306 O322 1.251 . S
C306 O324 1.254 . S
N307 C308 1.333 . S
N307 C312 1.307 . S
N307 Zn313 2.020 . S
C308 N307 1.333 . S
C308 C309 1.379 . S
C308 H326 0.952 . S
C309 C308 1.379 . S
C309 C310 1.390 . S
C309 H336 0.949 . S
C310 C309 1.390 . S
C310 C311 1.357 . S
C311 C310 1.357 . S
C311 C312 1.370 . S
C311 H337 0.950 . S
C312 N307 1.307 . S
C312 C311 1.370 . S
C312 H330 0.948 . S
Zn313 N307 2.020 . S
Zn313 O322 2.039 . S
Zn313 O328 2.034 . S
Zn313 O332 2.025 . S
Zn313 O334 2.024 . S
C314 O333 1.246 . S
C314 O334 1.249 . S
N315 C316 1.307 . S
N315 C317 1.333 . S
N315 Zn321 2.020 . S
C316 N315 1.307 . S
C316 C320 1.370 . S
C316 H327 0.948 . S
C317 N315 1.333 . S
C317 C318 1.379 . S
C317 H325 0.952 . S
C318 C317 1.379 . S
C318 C319 1.390 . S
C318 H338 0.949 . S
C319 C318 1.390 . S
C319 C320 1.357 . S
C320 C316 1.370 . S
C320 C319 1.357 . S
C320 H339 0.950 . S
Zn321 N315 2.020 . S
Zn321 O324 2.025 . S
Zn321 O329 2.024 . S
Zn321 O331 2.039 . S
Zn321 O333 2.034 . S
O322 C306 1.251 . S
O322 Zn313 2.039 . S
C323 O328 1.246 . S
C323 O329 1.249 . S
O324 C306 1.254 . S
O324 Zn321 2.025 . S
H325 C317 0.952 . S
H326 C308 0.952 . S
H327 C316 0.948 . S
O328 Zn313 2.034 . S
O328 C323 1.246 . S
O329 Zn321 2.024 . S
O329 C323 1.249 . S
H330 C312 0.948 . S
O331 Zn321 2.039 . S
O331 C335 1.251 . S
O332 Zn313 2.025 . S
O332 C335 1.254 . S
O333 C314 1.246 . S
O333 Zn321 2.034 . S
O334 Zn313 2.024 . S
O334 C314 1.249 . S
C335 O331 1.251 . S
C335 O332 1.254 . S
H336 C309 0.949 . S
H337 C311 0.950 . S
H338 C318 0.949 . S
H339 C320 0.950 . S
C340 O356 1.251 . S
C340 O358 1.254 . S
N341 C342 1.333 . S
N341 C346 1.307 . S
N341 Zn347 2.020 . S
C342 N341 1.333 . S
C342 C343 1.379 . S
C342 H360 0.952 . S
C343 C342 1.379 . S
C343 C344 1.390 . S
C343 H370 0.949 . S
C344 C343 1.390 . S
C344 C345 1.357 . S
C345 C344 1.357 . S
C345 C346 1.370 . S
C345 H371 0.950 . S
C346 N341 1.307 . S
C346 C345 1.370 . S
C346 H364 0.948 . S
Zn347 N341 2.020 . S
Zn347 O356 2.039 1_455 S
Zn347 O362 2.034 . S
Zn347 O366 2.025 . S
Zn347 O368 2.024 . S
C348 O367 1.246 . S
C348 O368 1.249 1_655 S
N349 C350 1.307 . S
N349 C351 1.333 . S
N349 Zn355 2.020 . S
C350 N349 1.307 . S
C350 C354 1.370 . S
C350 H361 0.948 . S
C351 N349 1.333 . S
C351 C352 1.379 . S
C351 H359 0.952 . S
C352 C351 1.379 . S
C352 C353 1.390 . S
C352 H372 0.949 . S
C353 C352 1.390 . S
C353 C354 1.357 . S
C354 C350 1.370 . S
C354 C353 1.357 . S
C354 H373 0.950 . S
Zn355 N349 2.020 . S
Zn355 O358 2.025 . S
Zn355 O363 2.008 1_655 S
Zn355 O365 2.039 1_655 S
Zn355 O367 2.034 . S
O356 C340 1.251 . S
O356 Zn347 2.039 1_655 S
C357 O362 1.246 . S
C357 O363 1.278 . S
O358 C340 1.254 . S
O358 Zn355 2.025 . S
H359 C351 0.952 . S
H360 C342 0.952 . S
H361 C350 0.948 . S
O362 Zn347 2.034 . S
O362 C357 1.246 . S
O363 Zn355 2.008 1_455 S
O363 C357 1.278 . S
H364 C346 0.948 . S
O365 Zn355 2.039 1_455 S
O365 C369 1.251 . S
O366 Zn347 2.025 . S
O366 C369 1.254 . S
O367 C348 1.246 . S
O367 Zn355 2.034 . S
O368 Zn347 2.024 . S
O368 C348 1.249 1_455 S
C369 O365 1.251 . S
C369 O366 1.254 . S
H370 C343 0.949 . S
H371 C345 0.950 . S
H372 C352 0.949 . S
H373 C354 0.950 . S
C374 O390 1.251 . S
C374 O392 1.254 . S
N375 C376 1.333 . S
N375 C380 1.307 . S
N375 Zn381 2.020 . S
C376 N375 1.333 . S
C376 C377 1.379 . S
C376 H394 0.952 . S
C377 C376 1.379 . S
C377 C378 1.390 . S
C377 H404 0.949 . S
C378 C377 1.390 . S
C378 C379 1.357 . S
C379 C378 1.357 . S
C379 C380 1.370 . S
C379 H405 0.950 . S
C380 N375 1.307 . S
C380 C379 1.370 . S
C380 H398 0.948 . S
Zn381 N375 2.020 . S
Zn381 O390 2.039 . S
Zn381 O396 2.034 . S
Zn381 O400 2.025 . S
Zn381 O402 2.024 . S
C382 O401 1.246 . S
C382 O402 1.249 . S
N383 C384 1.307 . S
N383 C385 1.333 . S
N383 Zn389 2.020 . S
C384 N383 1.307 . S
C384 C388 1.370 . S
C384 H395 0.948 . S
C385 N383 1.333 . S
C385 C386 1.379 . S
C385 H393 0.952 . S
C386 C385 1.379 . S
C386 C387 1.390 . S
C386 H406 0.949 . S
C387 C386 1.390 . S
C387 C388 1.357 . S
C388 C384 1.370 . S
C388 C387 1.357 . S
C388 H407 0.950 . S
Zn389 N383 2.020 . S
Zn389 O392 2.025 . S
Zn389 O397 2.024 . S
Zn389 O399 2.039 . S
Zn389 O401 2.034 . S
O390 C374 1.251 . S
O390 Zn381 2.039 . S
C391 O396 1.246 . S
C391 O397 1.249 . S
O392 C374 1.254 . S
O392 Zn389 2.025 . S
H393 C385 0.952 . S
H394 C376 0.952 . S
H395 C384 0.948 . S
O396 Zn381 2.034 . S
O396 C391 1.246 . S
O397 Zn389 2.024 . S
O397 C391 1.249 . S
H398 C380 0.948 . S
O399 Zn389 2.039 . S
O399 C403 1.251 . S
O400 Zn381 2.025 . S
O400 C403 1.254 . S
O401 C382 1.246 . S
O401 Zn389 2.034 . S
O402 Zn381 2.024 . S
O402 C382 1.249 . S
C403 O399 1.251 . S
C403 O400 1.254 . S
H404 C377 0.949 . S
H405 C379 0.950 . S
H406 C386 0.949 . S
H407 C388 0.950 . S
C408 O424 1.251 . S
C408 O426 1.254 . S
N409 C410 1.333 . S
N409 C414 1.307 . S
N409 Zn415 2.020 . S
C410 N409 1.333 . S
C410 C411 1.379 . S
C410 H428 0.952 . S
C411 C410 1.379 . S
C411 C412 1.390 . S
C411 H438 0.949 . S
C412 C411 1.390 . S
C412 C413 1.357 . S
C413 C412 1.357 . S
C413 C414 1.370 . S
C413 H439 0.950 . S
C414 N409 1.307 . S
C414 C413 1.370 . S
C414 H432 0.948 . S
Zn415 N409 2.020 . S
Zn415 O424 2.039 . S
Zn415 O430 2.034 . S
Zn415 O434 2.025 . S
Zn415 O436 2.024 . S
C416 O435 1.246 . S
C416 O436 1.249 . S
N417 C418 1.307 . S
N417 C419 1.333 . S
N417 Zn423 2.020 . S
C418 N417 1.307 . S
C418 C422 1.370 . S
C418 H429 0.948 . S
C419 N417 1.333 . S
C419 C420 1.379 . S
C419 H427 0.952 . S
C420 C419 1.379 . S
C420 C421 1.390 . S
C420 H440 0.949 . S
C421 C420 1.390 . S
C421 C422 1.357 . S
C422 C418 1.370 . S
C422 C421 1.357 . S
C422 H441 0.950 . S
Zn423 N417 2.020 . S
Zn423 O426 2.025 . S
Zn423 O431 2.024 . S
Zn423 O433 2.039 . S
Zn423 O435 2.034 . S
O424 C408 1.251 . S
O424 Zn415 2.039 . S
C425 O430 1.246 . S
C425 O431 1.249 . S
O426 C408 1.254 . S
O426 Zn423 2.025 . S
H427 C419 0.952 . S
H428 C410 0.952 . S
H429 C418 0.948 . S
O430 Zn415 2.034 . S
O430 C425 1.246 . S
O431 Zn423 2.024 . S
O431 C425 1.249 . S
H432 C414 0.948 . S
O433 Zn423 2.039 . S
O433 C437 1.251 . S
O434 Zn415 2.025 . S
O434 C437 1.254 . S
O435 C416 1.246 . S
O435 Zn423 2.034 . S
O436 Zn415 2.024 . S
O436 C416 1.249 . S
C437 O433 1.251 . S
C437 O434 1.254 . S
H438 C411 0.949 . S
H439 C413 0.950 . S
H440 C420 0.949 . S
H441 C422 0.950 . S
C442 O458 1.251 . S
C442 O460 1.254 . S
N443 C444 1.333 . S
N443 C448 1.307 . S
N443 Zn449 2.020 . S
C444 N443 1.333 . S
C444 C445 1.379 . S
C444 H462 0.952 . S
C445 C444 1.379 . S
C445 C446 1.390 . S
C445 H472 0.949 . S
C446 C445 1.390 . S
C446 C447 1.357 . S
C447 C446 1.357 . S
C447 C448 1.370 . S
C447 H473 0.950 . S
C448 N443 1.307 . S
C448 C447 1.370 . S
C448 H466 0.948 . S
Zn449 N443 2.020 . S
Zn449 O458 2.039 . S
Zn449 O464 2.034 . S
Zn449 O468 2.025 . S
Zn449 O470 2.024 . S
C450 O469 1.246 . S
C450 O470 1.249 . S
N451 C452 1.307 . S
N451 C453 1.333 . S
N451 Zn457 2.020 . S
C452 N451 1.307 . S
C452 C456 1.370 . S
C452 H463 0.948 . S
C453 N451 1.333 . S
C453 C454 1.379 . S
C453 H461 0.952 . S
C454 C453 1.379 . S
C454 C455 1.390 . S
C454 H474 0.949 . S
C455 C454 1.390 . S
C455 C456 1.357 . S
C456 C452 1.370 . S
C456 C455 1.357 . S
C456 H475 0.950 . S
Zn457 N451 2.020 . S
Zn457 O460 2.025 . S
Zn457 O465 2.024 . S
Zn457 O467 2.039 . S
Zn457 O469 2.034 . S
O458 C442 1.251 . S
O458 Zn449 2.039 . S
C459 O464 1.246 . S
C459 O465 1.249 . S
O460 C442 1.254 . S
O460 Zn457 2.025 . S
H461 C453 0.952 . S
H462 C444 0.952 . S
H463 C452 0.948 . S
O464 Zn449 2.034 . S
O464 C459 1.246 . S
O465 Zn457 2.024 . S
O465 C459 1.249 . S
H466 C448 0.948 . S
O467 Zn457 2.039 . S
O467 C471 1.251 . S
O468 Zn449 2.025 . S
O468 C471 1.254 . S
O469 C450 1.246 . S
O469 Zn457 2.034 . S
O470 Zn449 2.024 . S
O470 C450 1.249 . S
C471 O467 1.251 . S
C471 O468 1.254 . S
H472 C445 0.949 . S
H473 C447 0.950 . S
H474 C454 0.949 . S
H475 C456 0.950 . S
C476 O492 1.251 . S
C476 O494 1.254 . S
N477 C478 1.333 . S
N477 C482 1.307 . S
N477 Zn483 2.020 . S
C478 N477 1.333 . S
C478 C479 1.379 . S
C478 H496 0.952 . S
C479 C478 1.379 . S
C479 C480 1.390 . S
C479 H506 0.949 . S
C480 C479 1.390 . S
C480 C481 1.357 . S
C481 C480 1.357 . S
C481 C482 1.370 . S
C481 H507 0.950 . S
C482 N477 1.307 . S
C482 C481 1.370 . S
C482 H500 0.948 . S
Zn483 N477 2.020 . S
Zn483 O492 2.039 . S
Zn483 O498 2.034 . S
Zn483 O502 2.025 . S
Zn483 O504 2.024 . S
C484 O503 1.246 . S
C484 O504 1.249 . S
N485 C486 1.307 . S
N485 C487 1.333 . S
N485 Zn491 2.020 . S
C486 N485 1.307 . S
C486 C490 1.370 . S
C486 H497 0.948 . S
C487 N485 1.333 . S
C487 C488 1.379 . S
C487 H495 0.952 . S
C488 C487 1.379 . S
C488 C489 1.390 . S
C488 H508 0.949 . S
C489 C488 1.390 . S
C489 C490 1.357 . S
C490 C486 1.370 . S
C490 C489 1.357 . S
C490 H509 0.950 . S
Zn491 N485 2.020 . S
Zn491 O494 2.025 . S
Zn491 O499 2.024 . S
Zn491 O501 2.039 . S
Zn491 O503 2.034 . S
O492 C476 1.251 . S
O492 Zn483 2.039 . S
C493 O498 1.246 . S
C493 O499 1.249 . S
O494 C476 1.254 . S
O494 Zn491 2.025 . S
H495 C487 0.952 . S
H496 C478 0.952 . S
H497 C486 0.948 . S
O498 Zn483 2.034 . S
O498 C493 1.246 . S
O499 Zn491 2.024 . S
O499 C493 1.249 . S
H500 C482 0.948 . S
O501 Zn491 2.039 . S
O501 C505 1.251 . S
O502 Zn483 2.025 . S
O502 C505 1.254 . S
O503 C484 1.246 . S
O503 Zn491 2.034 . S
O504 Zn483 2.024 . S
O504 C484 1.249 . S
C505 O501 1.251 . S
C505 O502 1.254 . S
H506 C479 0.949 . S
H507 C481 0.950 . S
H508 C488 0.949 . S
H509 C490 0.950 . S
C510 O526 1.251 . S
C510 O528 1.254 . S
N511 C512 1.333 . S
N511 C516 1.307 1_554 S
N511 Zn517 2.020 . S
C512 N511 1.333 . S
C512 C513 1.379 . S
C512 H530 0.952 . S
C513 C512 1.379 . S
C513 C514 1.390 . S
C513 H540 0.949 . S
C514 C513 1.390 . S
C514 C515 1.357 . S
C515 C514 1.357 . S
C515 C516 1.370 1_554 S
C515 H541 0.950 1_554 S
C516 N511 1.307 1_556 S
C516 C515 1.370 1_556 S
C516 H534 0.948 . S
Zn517 N511 2.020 . S
Zn517 O526 2.039 . S
Zn517 O532 2.034 1_455 S
Zn517 O536 2.025 1_454 S
Zn517 O538 2.024 1_554 S
C518 O537 1.246 . S
C518 O538 1.249 . S
N519 C520 1.307 1_556 S
N519 C521 1.333 . S
N519 Zn525 2.030 . S
C520 N519 1.307 1_554 S
C520 C524 1.370 . S
C520 H531 0.948 . S
C521 N519 1.333 . S
C521 C522 1.379 . S
C521 H529 0.952 . S
C522 C521 1.379 . S
C522 C523 1.390 . S
C522 H542 0.949 . S
C523 C522 1.390 . S
C523 C524 1.357 1_556 S
C524 C520 1.370 . S
C524 C523 1.357 1_554 S
C524 H543 0.950 . S
Zn525 N519 2.030 . S
Zn525 O528 2.007 1_656 S
Zn525 O533 2.005 1_556 S
Zn525 O535 2.055 . S
Zn525 O537 2.050 1_655 S
O526 C510 1.251 . S
O526 Zn517 2.039 . S
C527 O532 1.246 . S
C527 O533 1.249 . S
O528 C510 1.254 . S
O528 Zn525 2.007 1_454 S
H529 C521 0.952 . S
H530 C512 0.952 . S
H531 C520 0.948 . S
O532 Zn517 2.034 1_655 S
O532 C527 1.246 . S
O533 Zn525 2.005 1_554 S
O533 C527 1.249 . S
H534 C516 0.948 . S
O535 Zn525 2.055 . S
O535 C539 1.251 . S
O536 Zn517 2.025 1_656 S
O536 C539 1.254 . S
O537 C518 1.246 . S
O537 Zn525 2.050 1_455 S
O538 Zn517 2.024 1_556 S
O538 C518 1.249 . S
C539 O535 1.251 . S
C539 O536 1.254 . S
H540 C513 0.949 . S
H541 C515 0.950 1_556 S
H542 C522 0.949 . S
H543 C524 0.950 . S
H544 C552 0.929 . S
H545 C554 0.930 . S
H546 C556 0.930 . S
H547 C559 0.929 . S
H548 C562 0.930 . S
H549 C564 0.960 . S
H550 C564 0.960 . S
H551 C564 0.960 . S
C552 H544 0.929 . S
C552 C553 1.377 . S
C552 C554 1.384 . S
C553 C552 1.377 . S
C553 C559 1.390 . S
C554 H545 0.930 . S
C554 C552 1.384 . S
C554 C555 1.372 . S
C555 C554 1.372 . S
C555 C556 1.400 . S
C555 C560 1.490 . S
C556 H546 0.930 . S
C556 C555 1.400 . S
C556 C559 1.386 . S
H557 C573 0.930 . S
H558 C574 0.931 . S
C559 H547 0.929 . S
C559 C553 1.390 . S
C559 C556 1.386 . S
C560 C555 1.490 . S
C560 C562 1.395 . S
C560 C563 1.403 . S
H561 C567 0.930 . S
C562 H548 0.930 . S
C562 C560 1.395 . S
C562 C565 1.403 . S
C563 C560 1.403 . S
C563 C564 1.524 . S
C563 C567 1.400 . S
C564 H549 0.960 . S
C564 H550 0.960 . S
C564 H551 0.960 . S
C564 C563 1.524 . S
C565 C562 1.403 . S
C565 C566 1.392 . S
C565 C569 1.495 . S
C566 C565 1.392 . S
C566 C567 1.385 . S
C566 C568 1.478 . S
C567 H561 0.930 . S
C567 C563 1.400 . S
C567 C566 1.385 . S
C568 C566 1.478 . S
C568 C570 1.381 . S
C568 C574 1.383 . S
C569 C565 1.495 . S
C569 H575 0.959 . S
C569 H576 0.961 . S
C569 H577 0.960 . S
C570 C568 1.381 . S
C570 C571 1.394 . S
C570 H578 0.930 . S
C571 C570 1.394 . S
C571 C572 1.383 . S
C571 H579 0.929 . S
C572 C571 1.383 . S
C572 C573 1.377 . S
C573 H557 0.930 . S
C573 C572 1.377 . S
C573 C574 1.379 . S
C574 H558 0.931 . S
C574 C568 1.383 . S
C574 C573 1.379 . S
H575 C569 0.959 . S
H576 C569 0.961 . S
H577 C569 0.960 . S
H578 C570 0.930 . S
H579 C571 0.929 . S
H580 C588 0.929 . S
H581 C590 0.930 . S
H582 C592 0.930 . S
H583 C595 0.929 . S
H584 C598 0.930 . S
H585 C600 0.960 . S
H586 C600 0.960 . S
H587 C600 0.960 . S
C588 H580 0.929 . S
C588 C589 1.377 . S
C588 C590 1.384 . S
C589 C588 1.377 . S
C589 C595 1.390 . S
C590 H581 0.930 . S
C590 C588 1.384 . S
C590 C591 1.372 . S
C591 C590 1.372 . S
C591 C592 1.400 . S
C591 C596 1.490 . S
C592 H582 0.930 . S
C592 C591 1.400 . S
C592 C595 1.386 . S
H593 C609 0.930 . S
H594 C610 0.931 . S
C595 H583 0.929 . S
C595 C589 1.390 . S
C595 C592 1.386 . S
C596 C591 1.490 . S
C596 C598 1.395 . S
C596 C599 1.403 . S
H597 C603 0.930 . S
C598 H584 0.930 . S
C598 C596 1.395 . S
C598 C601 1.403 . S
C599 C596 1.403 . S
C599 C600 1.524 . S
C599 C603 1.400 . S
C600 H585 0.960 . S
C600 H586 0.960 . S
C600 H587 0.960 . S
C600 C599 1.524 . S
C601 C598 1.403 . S
C601 C602 1.392 . S
C601 C605 1.495 . S
C602 C601 1.392 . S
C602 C603 1.385 . S
C602 C604 1.478 . S
C603 H597 0.930 . S
C603 C599 1.400 . S
C603 C602 1.385 . S
C604 C602 1.478 . S
C604 C606 1.381 . S
C604 C610 1.383 . S
C605 C601 1.495 . S
C605 H611 0.959 . S
C605 H612 0.961 . S
C605 H613 0.960 . S
C606 C604 1.381 . S
C606 C607 1.394 . S
C606 H614 0.930 . S
C607 C606 1.394 . S
C607 C608 1.383 . S
C607 H615 0.929 . S
C608 C607 1.383 . S
C608 C609 1.377 . S
C609 H593 0.930 . S
C609 C608 1.377 . S
C609 C610 1.379 . S
C610 H594 0.931 . S
C610 C604 1.383 . S
C610 C609 1.379 . S
H611 C605 0.959 . S
H612 C605 0.961 . S
H613 C605 0.960 . S
H614 C606 0.930 . S
H615 C607 0.929 . S
H616 C624 0.929 . S
H617 C626 0.930 . S
H618 C628 0.930 . S
H619 C631 0.929 . S
H620 C634 0.930 . S
H621 C636 0.960 . S
H622 C636 0.960 . S
H623 C636 0.960 . S
C624 H616 0.929 . S
C624 C625 1.377 . S
C624 C626 1.384 . S
C625 C624 1.377 . S
C625 C631 1.390 . S
C626 H617 0.930 . S
C626 C624 1.384 . S
C626 C627 1.372 . S
C627 C626 1.372 . S
C627 C628 1.400 . S
C627 C632 1.490 . S
C628 H618 0.930 . S
C628 C627 1.400 . S
C628 C631 1.386 . S
H629 C645 0.930 . S
H630 C646 0.931 . S
C631 H619 0.929 . S
C631 C625 1.390 . S
C631 C628 1.386 . S
C632 C627 1.490 . S
C632 C634 1.395 . S
C632 C635 1.403 . S
H633 C639 0.930 . S
C634 H620 0.930 . S
C634 C632 1.395 . S
C634 C637 1.403 . S
C635 C632 1.403 . S
C635 C636 1.524 . S
C635 C639 1.400 . S
C636 H621 0.960 . S
C636 H622 0.960 . S
C636 H623 0.960 . S
C636 C635 1.524 . S
C637 C634 1.403 . S
C637 C638 1.392 . S
C637 C641 1.495 . S
C638 C637 1.392 . S
C638 C639 1.385 . S
C638 C640 1.478 . S
C639 H633 0.930 . S
C639 C635 1.400 . S
C639 C638 1.385 . S
C640 C638 1.478 . S
C640 C642 1.381 . S
C640 C646 1.383 . S
C641 C637 1.495 . S
C641 H647 0.959 . S
C641 H648 0.961 . S
C641 H649 0.960 . S
C642 C640 1.381 . S
C642 C643 1.394 . S
C642 H650 0.930 . S
C643 C642 1.394 . S
C643 C644 1.383 . S
C643 H651 0.929 . S
C644 C643 1.383 . S
C644 C645 1.377 . S
C645 H629 0.930 . S
C645 C644 1.377 . S
C645 C646 1.379 . S
C646 H630 0.931 . S
C646 C640 1.383 . S
C646 C645 1.379 . S
H647 C641 0.959 . S
H648 C641 0.961 . S
H649 C641 0.960 . S
H650 C642 0.930 . S
H651 C643 0.929 . S
H652 C660 0.929 . S
H653 C662 0.930 . S
H654 C664 0.930 . S
H655 C667 0.929 . S
H656 C670 0.930 . S
H657 C672 0.960 . S
H658 C672 0.960 . S
H659 C672 0.960 . S
C660 H652 0.929 . S
C660 C661 1.377 . S
C660 C662 1.384 . S
C661 C660 1.377 . S
C661 C667 1.390 . S
C662 H653 0.930 . S
C662 C660 1.384 . S
C662 C663 1.372 . S
C663 C662 1.372 . S
C663 C664 1.400 . S
C663 C668 1.490 . S
C664 H654 0.930 . S
C664 C663 1.400 . S
C664 C667 1.386 . S
H665 C681 0.930 . S
H666 C682 0.931 . S
C667 H655 0.929 . S
C667 C661 1.390 . S
C667 C664 1.386 . S
C668 C663 1.490 . S
C668 C670 1.395 . S
C668 C671 1.403 . S
H669 C675 0.930 . S
C670 H656 0.930 . S
C670 C668 1.395 . S
C670 C673 1.403 . S
C671 C668 1.403 . S
C671 C672 1.524 . S
C671 C675 1.400 . S
C672 H657 0.960 . S
C672 H658 0.960 . S
C672 H659 0.960 . S
C672 C671 1.524 . S
C673 C670 1.403 . S
C673 C674 1.392 . S
C673 C677 1.495 . S
C674 C673 1.392 . S
C674 C675 1.385 . S
C674 C676 1.478 . S
C675 H669 0.930 . S
C675 C671 1.400 . S
C675 C674 1.385 . S
C676 C674 1.478 . S
C676 C678 1.381 . S
C676 C682 1.383 . S
C677 C673 1.495 . S
C677 H683 0.959 . S
C677 H684 0.961 . S
C677 H685 0.960 . S
C678 C676 1.381 . S
C678 C679 1.394 . S
C678 H686 0.930 . S
C679 C678 1.394 . S
C679 C680 1.383 . S
C679 H687 0.929 . S
C680 C679 1.383 . S
C680 C681 1.377 . S
C681 H665 0.930 . S
C681 C680 1.377 . S
C681 C682 1.379 . S
C682 H666 0.931 . S
C682 C676 1.383 . S
C682 C681 1.379 . S
H683 C677 0.959 . S
H684 C677 0.961 . S
H685 C677 0.960 . S
H686 C678 0.930 . S
H687 C679 0.929 . S
H688 C696 0.929 . S
H689 C698 0.930 . S
H690 C700 0.930 . S
H691 C703 0.929 . S
H692 C706 0.930 . S
H693 C708 0.960 . S
H694 C708 0.960 . S
H695 C708 0.960 . S
C696 H688 0.929 . S
C696 C697 1.377 . S
C696 C698 1.384 . S
C697 C696 1.377 . S
C697 C703 1.390 . S
C698 H689 0.930 . S
C698 C696 1.384 . S
C698 C699 1.372 . S
C699 C698 1.372 . S
C699 C700 1.400 . S
C699 C704 1.490 . S
C700 H690 0.930 . S
C700 C699 1.400 . S
C700 C703 1.386 . S
H701 C717 0.930 . S
H702 C718 0.931 . S
C703 H691 0.929 . S
C703 C697 1.390 . S
C703 C700 1.386 . S
C704 C699 1.490 . S
C704 C706 1.395 . S
C704 C707 1.403 . S
H705 C711 0.930 . S
C706 H692 0.930 . S
C706 C704 1.395 . S
C706 C709 1.403 . S
C707 C704 1.403 . S
C707 C708 1.524 . S
C707 C711 1.400 . S
C708 H693 0.960 . S
C708 H694 0.960 . S
C708 H695 0.960 . S
C708 C707 1.524 . S
C709 C706 1.403 . S
C709 C710 1.392 . S
C709 C713 1.495 . S
C710 C709 1.392 . S
C710 C711 1.385 . S
C710 C712 1.478 . S
C711 H705 0.930 . S
C711 C707 1.400 . S
C711 C710 1.385 . S
C712 C710 1.478 . S
C712 C714 1.381 . S
C712 C718 1.383 . S
C713 C709 1.495 . S
C713 H719 0.959 . S
C713 H720 0.961 . S
C713 H721 0.960 . S
C714 C712 1.381 . S
C714 C715 1.394 . S
C714 H722 0.930 . S
C715 C714 1.394 . S
C715 C716 1.383 . S
C715 H723 0.929 . S
C716 C715 1.383 . S
C716 C717 1.377 . S
C717 H701 0.930 . S
C717 C716 1.377 . S
C717 C718 1.379 . S
C718 H702 0.931 . S
C718 C712 1.383 . S
C718 C717 1.379 . S
H719 C713 0.959 . S
H720 C713 0.961 . S
H721 C713 0.960 . S
H722 C714 0.930 . S
H723 C715 0.929 . S
H724 C732 0.929 . S
H725 C734 0.930 . S
H726 C736 0.930 . S
H727 C739 0.929 . S
H728 C742 0.930 . S
H729 C744 0.960 . S
H730 C744 0.960 . S
H731 C744 0.960 . S
C732 H724 0.929 . S
C732 C733 1.377 . S
C732 C734 1.384 . S
C733 C732 1.377 . S
C733 C739 1.390 . S
C734 H725 0.930 . S
C734 C732 1.384 . S
C734 C735 1.372 . S
C735 C734 1.372 . S
C735 C736 1.400 . S
C735 C740 1.490 . S
C736 H726 0.930 . S
C736 C735 1.400 . S
C736 C739 1.386 . S
H737 C753 0.930 . S
H738 C754 0.931 . S
C739 H727 0.929 . S
C739 C733 1.390 . S
C739 C736 1.386 . S
C740 C735 1.490 . S
C740 C742 1.395 . S
C740 C743 1.403 . S
H741 C747 0.930 . S
C742 H728 0.930 . S
C742 C740 1.395 . S
C742 C745 1.403 . S
C743 C740 1.403 . S
C743 C744 1.524 . S
C743 C747 1.400 . S
C744 H729 0.960 . S
C744 H730 0.960 . S
C744 H731 0.960 . S
C744 C743 1.524 . S
C745 C742 1.403 . S
C745 C746 1.392 . S
C745 C749 1.495 . S
C746 C745 1.392 . S
C746 C747 1.385 . S
C746 C748 1.478 . S
C747 H741 0.930 . S
C747 C743 1.400 . S
C747 C746 1.385 . S
C748 C746 1.478 . S
C748 C750 1.381 . S
C748 C754 1.383 . S
C749 C745 1.495 . S
C749 H755 0.959 . S
C749 H756 0.961 . S
C749 H757 0.960 . S
C750 C748 1.381 . S
C750 C751 1.394 . S
C750 H758 0.930 . S
C751 C750 1.394 . S
C751 C752 1.383 . S
C751 H759 0.929 . S
C752 C751 1.383 . S
C752 C753 1.377 . S
C753 H737 0.930 . S
C753 C752 1.377 . S
C753 C754 1.379 . S
C754 H738 0.931 . S
C754 C748 1.383 . S
C754 C753 1.379 . S
H755 C749 0.959 . S
H756 C749 0.961 . S
H757 C749 0.960 . S
H758 C750 0.930 . S
H759 C751 0.929 . S
H760 C768 0.929 . S
H761 C770 0.930 . S
H762 C772 0.930 . S
H763 C775 0.929 . S
H764 C778 0.930 . S
H765 C780 0.960 . S
H766 C780 0.960 . S
H767 C780 0.960 . S
C768 H760 0.929 . S
C768 C769 1.377 . S
C768 C770 1.384 . S
C769 C768 1.377 . S
C769 C775 1.390 . S
C770 H761 0.930 . S
C770 C768 1.384 . S
C770 C771 1.372 . S
C771 C770 1.372 . S
C771 C772 1.400 . S
C771 C776 1.490 . S
C772 H762 0.930 . S
C772 C771 1.400 . S
C772 C775 1.386 . S
H773 C789 0.930 . S
H774 C790 0.931 . S
C775 H763 0.929 . S
C775 C769 1.390 . S
C775 C772 1.386 . S
C776 C771 1.490 . S
C776 C778 1.395 . S
C776 C779 1.403 . S
H777 C783 0.930 . S
C778 H764 0.930 . S
C778 C776 1.395 . S
C778 C781 1.403 . S
C779 C776 1.403 . S
C779 C780 1.524 . S
C779 C783 1.400 . S
C780 H765 0.960 . S
C780 H766 0.960 . S
C780 H767 0.960 . S
C780 C779 1.524 . S
C781 C778 1.403 . S
C781 C782 1.392 . S
C781 C785 1.495 . S
C782 C781 1.392 . S
C782 C783 1.385 . S
C782 C784 1.478 . S
C783 H777 0.930 . S
C783 C779 1.400 . S
C783 C782 1.385 . S
C784 C782 1.478 . S
C784 C786 1.381 . S
C784 C790 1.383 . S
C785 C781 1.495 . S
C785 H791 0.959 . S
C785 H792 0.961 . S
C785 H793 0.960 . S
C786 C784 1.381 . S
C786 C787 1.394 . S
C786 H794 0.930 . S
C787 C786 1.394 . S
C787 C788 1.383 . S
C787 H795 0.929 . S
C788 C787 1.383 . S
C788 C789 1.377 . S
C789 H773 0.930 . S
C789 C788 1.377 . S
C789 C790 1.379 . S
C790 H774 0.931 . S
C790 C784 1.383 . S
C790 C789 1.379 . S
H791 C785 0.959 . S
H792 C785 0.961 . S
H793 C785 0.960 . S
H794 C786 0.930 . S
H795 C787 0.929 . S
H796 C804 0.929 . S
H797 C806 0.930 . S
H798 C808 0.930 . S
H799 C811 0.929 . S
H800 C814 0.930 . S
H801 C816 0.960 . S
H802 C816 0.960 . S
H803 C816 0.960 . S
C804 H796 0.929 . S
C804 C805 1.377 . S
C804 C806 1.384 . S
C805 C804 1.377 . S
C805 C811 1.390 . S
C806 H797 0.930 . S
C806 C804 1.384 . S
C806 C807 1.372 . S
C807 C806 1.372 . S
C807 C808 1.400 . S
C807 C812 1.490 . S
C808 H798 0.930 . S
C808 C807 1.400 . S
C808 C811 1.386 . S
H809 C825 0.930 . S
H810 C826 0.931 . S
C811 H799 0.929 . S
C811 C805 1.390 . S
C811 C808 1.386 . S
C812 C807 1.490 . S
C812 C814 1.395 . S
C812 C815 1.403 . S
H813 C819 0.930 . S
C814 H800 0.930 . S
C814 C812 1.395 . S
C814 C817 1.403 . S
C815 C812 1.403 . S
C815 C816 1.524 . S
C815 C819 1.400 . S
C816 H801 0.960 . S
C816 H802 0.960 . S
C816 H803 0.960 . S
C816 C815 1.524 . S
C817 C814 1.403 . S
C817 C818 1.392 . S
C817 C821 1.495 . S
C818 C817 1.392 . S
C818 C819 1.385 . S
C818 C820 1.478 . S
C819 H813 0.930 . S
C819 C815 1.400 . S
C819 C818 1.385 . S
C820 C818 1.478 . S
C820 C822 1.381 . S
C820 C826 1.383 . S
C821 C817 1.495 . S
C821 H827 0.959 . S
C821 H828 0.961 . S
C821 H829 0.960 . S
C822 C820 1.381 . S
C822 C823 1.394 . S
C822 H830 0.930 . S
C823 C822 1.394 . S
C823 C824 1.383 . S
C823 H831 0.929 . S
C824 C823 1.383 . S
C824 C825 1.377 . S
C825 H809 0.930 . S
C825 C824 1.377 . S
C825 C826 1.379 . S
C826 H810 0.931 . S
C826 C820 1.383 . S
C826 C825 1.379 . S
H827 C821 0.959 . S
H828 C821 0.961 . S
H829 C821 0.960 . S
H830 C822 0.930 . S
H831 C823 0.929 . S
H832 C840 0.929 . S
H833 C842 0.930 . S
H834 C844 0.930 . S
H835 C847 0.929 . S
H836 C850 0.930 . S
H837 C852 0.960 . S
H838 C852 0.960 . S
H839 C852 0.960 . S
C840 H832 0.929 . S
C840 C841 1.377 . S
C840 C842 1.384 . S
C841 C840 1.377 . S
C841 C847 1.390 . S
C842 H833 0.930 . S
C842 C840 1.384 . S
C842 C843 1.372 . S
C843 C842 1.372 . S
C843 C844 1.400 . S
C843 C848 1.490 . S
C844 H834 0.930 . S
C844 C843 1.400 . S
C844 C847 1.386 . S
H845 C861 0.930 . S
H846 C862 0.931 . S
C847 H835 0.929 . S
C847 C841 1.390 . S
C847 C844 1.386 . S
C848 C843 1.490 . S
C848 C850 1.395 . S
C848 C851 1.403 . S
H849 C855 0.930 . S
C850 H836 0.930 . S
C850 C848 1.395 . S
C850 C853 1.403 . S
C851 C848 1.403 . S
C851 C852 1.524 . S
C851 C855 1.400 . S
C852 H837 0.960 . S
C852 H838 0.960 . S
C852 H839 0.960 . S
C852 C851 1.524 . S
C853 C850 1.403 . S
C853 C854 1.392 . S
C853 C857 1.495 . S
C854 C853 1.392 . S
C854 C855 1.385 . S
C854 C856 1.478 . S
C855 H849 0.930 . S
C855 C851 1.400 . S
C855 C854 1.385 . S
C856 C854 1.478 . S
C856 C858 1.381 . S
C856 C862 1.383 . S
C857 C853 1.495 . S
C857 H863 0.959 . S
C857 H864 0.961 . S
C857 H865 0.960 . S
C858 C856 1.381 . S
C858 C859 1.394 . S
C858 H866 0.930 . S
C859 C858 1.394 . S
C859 C860 1.383 . S
C859 H867 0.929 . S
C860 C859 1.383 . S
C860 C861 1.377 . S
C861 H845 0.930 . S
C861 C860 1.377 . S
C861 C862 1.379 . S
C862 H846 0.931 . S
C862 C856 1.383 . S
C862 C861 1.379 . S
H863 C857 0.959 . S
H864 C857 0.961 . S
H865 C857 0.960 . S
H866 C858 0.930 . S
H867 C859 0.929 . S
H868 C876 0.929 . S
H869 C878 0.930 . S
H870 C880 0.930 . S
H871 C883 0.929 . S
H872 C886 0.930 . S
H873 C888 0.960 . S
H874 C888 0.960 . S
H875 C888 0.960 . S
C876 H868 0.929 . S
C876 C877 1.377 . S
C876 C878 1.384 . S
C877 C876 1.377 . S
C877 C883 1.390 . S
C878 H869 0.930 . S
C878 C876 1.384 . S
C878 C879 1.372 . S
C879 C878 1.372 . S
C879 C880 1.400 . S
C879 C884 1.490 . S
C880 H870 0.930 . S
C880 C879 1.400 . S
C880 C883 1.386 . S
H881 C897 0.930 . S
H882 C898 0.931 . S
C883 H871 0.929 . S
C883 C877 1.390 . S
C883 C880 1.386 . S
C884 C879 1.490 . S
C884 C886 1.395 . S
C884 C887 1.403 . S
H885 C891 0.930 . S
C886 H872 0.930 . S
C886 C884 1.395 . S
C886 C889 1.403 . S
C887 C884 1.403 . S
C887 C888 1.524 . S
C887 C891 1.400 . S
C888 H873 0.960 . S
C888 H874 0.960 . S
C888 H875 0.960 . S
C888 C887 1.524 . S
C889 C886 1.403 . S
C889 C890 1.392 . S
C889 C893 1.495 . S
C890 C889 1.392 . S
C890 C891 1.385 . S
C890 C892 1.478 . S
C891 H885 0.930 . S
C891 C887 1.400 . S
C891 C890 1.385 . S
C892 C890 1.478 . S
C892 C894 1.381 . S
C892 C898 1.383 . S
C893 C889 1.495 . S
C893 H899 0.959 . S
C893 H900 0.961 . S
C893 H901 0.960 . S
C894 C892 1.381 . S
C894 C895 1.394 . S
C894 H902 0.930 . S
C895 C894 1.394 . S
C895 C896 1.383 . S
C895 H903 0.929 . S
C896 C895 1.383 . S
C896 C897 1.377 . S
C897 H881 0.930 . S
C897 C896 1.377 . S
C897 C898 1.379 . S
C898 H882 0.931 . S
C898 C892 1.383 . S
C898 C897 1.379 . S
H899 C893 0.959 . S
H900 C893 0.961 . S
H901 C893 0.960 . S
H902 C894 0.930 . S
H903 C895 0.929 . S
H904 C912 0.929 . S
H905 C914 0.930 . S
H906 C916 0.930 . S
H907 C919 0.929 . S
H908 C922 0.930 . S
H909 C924 0.960 . S
H910 C924 0.960 . S
H911 C924 0.960 . S
C912 H904 0.929 . S
C912 C913 1.377 . S
C912 C914 1.384 . S
C913 C912 1.377 . S
C913 C919 1.390 . S
C914 H905 0.930 . S
C914 C912 1.384 . S
C914 C915 1.372 . S
C915 C914 1.372 . S
C915 C916 1.400 . S
C915 C920 1.490 . S
C916 H906 0.930 . S
C916 C915 1.400 . S
C916 C919 1.386 . S
H917 C933 0.930 . S
H918 C934 0.931 . S
C919 H907 0.929 . S
C919 C913 1.390 . S
C919 C916 1.386 . S
C920 C915 1.490 . S
C920 C922 1.395 . S
C920 C923 1.403 . S
H921 C927 0.930 . S
C922 H908 0.930 . S
C922 C920 1.395 . S
C922 C925 1.403 . S
C923 C920 1.403 . S
C923 C924 1.524 . S
C923 C927 1.400 . S
C924 H909 0.960 . S
C924 H910 0.960 . S
C924 H911 0.960 . S
C924 C923 1.524 . S
C925 C922 1.403 . S
C925 C926 1.392 . S
C925 C929 1.495 . S
C926 C925 1.392 . S
C926 C927 1.385 . S
C926 C928 1.478 . S
C927 H921 0.930 . S
C927 C923 1.400 . S
C927 C926 1.385 . S
C928 C926 1.478 . S
C928 C930 1.381 . S
C928 C934 1.383 . S
C929 C925 1.495 . S
C929 H935 0.959 . S
C929 H936 0.961 . S
C929 H937 0.960 . S
C930 C928 1.381 . S
C930 C931 1.394 . S
C930 H938 0.930 . S
C931 C930 1.394 . S
C931 C932 1.383 . S
C931 H939 0.929 . S
C932 C931 1.383 . S
C932 C933 1.377 . S
C933 H917 0.930 . S
C933 C932 1.377 . S
C933 C934 1.379 . S
C934 H918 0.931 . S
C934 C928 1.383 . S
C934 C933 1.379 . S
H935 C929 0.959 . S
H936 C929 0.961 . S
H937 C929 0.960 . S
H938 C930 0.930 . S
H939 C931 0.929 . S
H940 C948 0.929 . S
H941 C950 0.930 . S
H942 C952 0.930 . S
H943 C955 0.929 . S
H944 C958 0.930 . S
H945 C960 0.960 . S
H946 C960 0.960 . S
H947 C960 0.960 . S
C948 H940 0.929 . S
C948 C949 1.377 . S
C948 C950 1.384 . S
C949 C948 1.377 . S
C949 C955 1.390 . S
C950 H941 0.930 . S
C950 C948 1.384 . S
C950 C951 1.372 . S
C951 C950 1.372 . S
C951 C952 1.400 . S
C951 C956 1.490 . S
C952 H942 0.930 . S
C952 C951 1.400 . S
C952 C955 1.386 . S
H953 C969 0.930 . S
H954 C970 0.931 . S
C955 H943 0.929 . S
C955 C949 1.390 . S
C955 C952 1.386 . S
C956 C951 1.490 . S
C956 C958 1.395 . S
C956 C959 1.403 . S
H957 C963 0.930 . S
C958 H944 0.930 . S
C958 C956 1.395 . S
C958 C961 1.403 . S
C959 C956 1.403 . S
C959 C960 1.524 . S
C959 C963 1.400 . S
C960 H945 0.960 . S
C960 H946 0.960 . S
C960 H947 0.960 . S
C960 C959 1.524 . S
C961 C958 1.403 . S
C961 C962 1.392 . S
C961 C965 1.495 . S
C962 C961 1.392 . S
C962 C963 1.385 . S
C962 C964 1.478 . S
C963 H957 0.930 . S
C963 C959 1.400 . S
C963 C962 1.385 . S
C964 C962 1.478 . S
C964 C966 1.381 . S
C964 C970 1.383 . S
C965 C961 1.495 . S
C965 H971 0.959 . S
C965 H972 0.961 . S
C965 H973 0.960 . S
C966 C964 1.381 . S
C966 C967 1.394 . S
C966 H974 0.930 . S
C967 C966 1.394 . S
C967 C968 1.383 . S
C967 H975 0.929 . S
C968 C967 1.383 . S
C968 C969 1.377 . S
C969 H953 0.930 . S
C969 C968 1.377 . S
C969 C970 1.379 . S
C970 H954 0.931 . S
C970 C964 1.383 . S
C970 C969 1.379 . S
H971 C965 0.959 . S
H972 C965 0.961 . S
H973 C965 0.960 . S
H974 C966 0.930 . S
H975 C967 0.929 . S
H976 C984 0.929 . S
H977 C986 0.930 . S
H978 C988 0.930 . S
H979 C991 0.929 . S
H980 C994 0.930 . S
H981 C996 0.960 . S
H982 C996 0.960 . S
H983 C996 0.960 . S
C984 H976 0.929 . S
C984 C985 1.377 . S
C984 C986 1.384 . S
C985 C984 1.377 . S
C985 C991 1.390 . S
C986 H977 0.930 . S
C986 C984 1.384 . S
C986 C987 1.372 . S
C987 C986 1.372 . S
C987 C988 1.400 . S
C987 C992 1.490 . S
C988 H978 0.930 . S
C988 C987 1.400 . S
C988 C991 1.386 . S
H989 C1005 0.930 . S
H990 C1006 0.931 . S
C991 H979 0.929 . S
C991 C985 1.390 . S
C991 C988 1.386 . S
C992 C987 1.490 . S
C992 C994 1.395 . S
C992 C995 1.403 . S
H993 C999 0.930 . S
C994 H980 0.930 . S
C994 C992 1.395 . S
C994 C997 1.403 . S
C995 C992 1.403 . S
C995 C996 1.524 . S
C995 C999 1.400 . S
C996 H981 0.960 . S
C996 H982 0.960 . S
C996 H983 0.960 . S
C996 C995 1.524 . S
C997 C994 1.403 . S
C997 C998 1.392 . S
C997 C1001 1.495 . S
C998 C997 1.392 . S
C998 C999 1.385 . S
C998 C1000 1.478 . S
C999 H993 0.930 . S
C999 C995 1.400 . S
C999 C998 1.385 . S
C1000 C998 1.478 . S
C1000 C1002 1.381 . S
C1000 C1006 1.383 . S
C1001 C997 1.495 . S
C1001 H1007 0.959 . S
C1001 H1008 0.961 . S
C1001 H1009 0.960 . S
C1002 C1000 1.381 . S
C1002 C1003 1.394 . S
C1002 H1010 0.930 . S
C1003 C1002 1.394 . S
C1003 C1004 1.383 . S
C1003 H1011 0.929 . S
C1004 C1003 1.383 . S
C1004 C1005 1.377 . S
C1005 H989 0.930 . S
C1005 C1004 1.377 . S
C1005 C1006 1.379 . S
C1006 H990 0.931 . S
C1006 C1000 1.383 . S
C1006 C1005 1.379 . S
H1007 C1001 0.959 . S
H1008 C1001 0.961 . S
H1009 C1001 0.960 . S
H1010 C1002 0.930 . S
H1011 C1003 0.929 . S
H1012 C1020 0.929 . S
H1013 C1022 0.930 . S
H1014 C1024 0.930 . S
H1015 C1027 0.929 . S
H1016 C1030 0.930 . S
H1017 C1032 0.960 . S
H1018 C1032 0.960 . S
H1019 C1032 0.960 . S
C1020 H1012 0.929 . S
C1020 C1021 1.377 . S
C1020 C1022 1.384 . S
C1021 C1020 1.377 . S
C1021 C1027 1.390 . S
C1022 H1013 0.930 . S
C1022 C1020 1.384 . S
C1022 C1023 1.372 . S
C1023 C1022 1.372 . S
C1023 C1024 1.400 . S
C1023 C1028 1.490 . S
C1024 H1014 0.930 . S
C1024 C1023 1.400 . S
C1024 C1027 1.386 . S
H1025 C1041 0.930 . S
H1026 C1042 0.931 . S
C1027 H1015 0.929 . S
C1027 C1021 1.390 . S
C1027 C1024 1.386 . S
C1028 C1023 1.490 . S
C1028 C1030 1.395 . S
C1028 C1031 1.403 . S
H1029 C1035 0.930 . S
C1030 H1016 0.930 . S
C1030 C1028 1.395 . S
C1030 C1033 1.403 . S
C1031 C1028 1.403 . S
C1031 C1032 1.524 . S
C1031 C1035 1.400 . S
C1032 H1017 0.960 . S
C1032 H1018 0.960 . S
C1032 H1019 0.960 . S
C1032 C1031 1.524 . S
C1033 C1030 1.403 . S
C1033 C1034 1.392 . S
C1033 C1037 1.495 . S
C1034 C1033 1.392 . S
C1034 C1035 1.385 . S
C1034 C1036 1.478 . S
C1035 H1029 0.930 . S
C1035 C1031 1.400 . S
C1035 C1034 1.385 . S
C1036 C1034 1.478 . S
C1036 C1038 1.381 . S
C1036 C1042 1.383 . S
C1037 C1033 1.495 . S
C1037 H1043 0.959 . S
C1037 H1044 0.961 . S
C1037 H1045 0.960 . S
C1038 C1036 1.381 . S
C1038 C1039 1.394 . S
C1038 H1046 0.930 . S
C1039 C1038 1.394 . S
C1039 C1040 1.383 . S
C1039 H1047 0.929 . S
C1040 C1039 1.383 . S
C1040 C1041 1.377 . S
C1041 H1025 0.930 . S
C1041 C1040 1.377 . S
C1041 C1042 1.379 . S
C1042 H1026 0.931 . S
C1042 C1036 1.383 . S
C1042 C1041 1.379 . S
H1043 C1037 0.959 . S
H1044 C1037 0.961 . S
H1045 C1037 0.960 . S
H1046 C1038 0.930 . S
H1047 C1039 0.929 . S
H1048 C1056 0.929 . S
H1049 C1058 0.930 . S
H1050 C1060 0.930 . S
H1051 C1063 0.929 . S
H1052 C1066 0.930 . S
H1053 C1068 0.960 . S
H1054 C1068 0.960 . S
H1055 C1068 0.960 . S
C1056 H1048 0.929 . S
C1056 C1057 1.377 . S
C1056 C1058 1.384 . S
C1057 C1056 1.377 . S
C1057 C1063 1.390 . S
C1058 H1049 0.930 . S
C1058 C1056 1.384 . S
C1058 C1059 1.372 . S
C1059 C1058 1.372 . S
C1059 C1060 1.400 . S
C1059 C1064 1.490 . S
C1060 H1050 0.930 . S
C1060 C1059 1.400 . S
C1060 C1063 1.386 . S
H1061 C1077 0.930 . S
H1062 C1078 0.931 . S
C1063 H1051 0.929 . S
C1063 C1057 1.390 . S
C1063 C1060 1.386 . S
C1064 C1059 1.490 . S
C1064 C1066 1.395 . S
C1064 C1067 1.403 . S
H1065 C1071 0.930 . S
C1066 H1052 0.930 . S
C1066 C1064 1.395 . S
C1066 C1069 1.403 . S
C1067 C1064 1.403 . S
C1067 C1068 1.524 . S
C1067 C1071 1.400 . S
C1068 H1053 0.960 . S
C1068 H1054 0.960 . S
C1068 H1055 0.960 . S
C1068 C1067 1.524 . S
C1069 C1066 1.403 . S
C1069 C1070 1.392 . S
C1069 C1073 1.495 . S
C1070 C1069 1.392 . S
C1070 C1071 1.385 . S
C1070 C1072 1.478 . S
C1071 H1065 0.930 . S
C1071 C1067 1.400 . S
C1071 C1070 1.385 . S
C1072 C1070 1.478 . S
C1072 C1074 1.381 . S
C1072 C1078 1.383 . S
C1073 C1069 1.495 . S
C1073 H1079 0.959 . S
C1073 H1080 0.961 . S
C1073 H1081 0.960 . S
C1074 C1072 1.381 . S
C1074 C1075 1.394 . S
C1074 H1082 0.930 . S
C1075 C1074 1.394 . S
C1075 C1076 1.383 . S
C1075 H1083 0.929 . S
C1076 C1075 1.383 . S
C1076 C1077 1.377 . S
C1077 H1061 0.930 . S
C1077 C1076 1.377 . S
C1077 C1078 1.379 . S
C1078 H1062 0.931 . S
C1078 C1072 1.383 . S
C1078 C1077 1.379 . S
H1079 C1073 0.959 . S
H1080 C1073 0.961 . S
H1081 C1073 0.960 . S
H1082 C1074 0.930 . S
H1083 C1075 0.929 . S
H1084 C1092 0.929 . S
H1085 C1094 0.930 . S
H1086 C1096 0.930 . S
H1087 C1099 0.929 . S
H1088 C1102 0.930 . S
H1089 C1104 0.960 . S
H1090 C1104 0.960 . S
H1091 C1104 0.960 . S
C1092 H1084 0.929 . S
C1092 C1093 1.377 . S
C1092 C1094 1.384 . S
C1093 C1092 1.377 . S
C1093 C1099 1.390 . S
C1094 H1085 0.930 . S
C1094 C1092 1.384 . S
C1094 C1095 1.372 . S
C1095 C1094 1.372 . S
C1095 C1096 1.400 . S
C1095 C1100 1.490 . S
C1096 H1086 0.930 . S
C1096 C1095 1.400 . S
C1096 C1099 1.386 . S
H1097 C1113 0.930 . S
H1098 C1114 0.931 . S
C1099 H1087 0.929 . S
C1099 C1093 1.390 . S
C1099 C1096 1.386 . S
C1100 C1095 1.490 . S
C1100 C1102 1.395 . S
C1100 C1103 1.403 . S
H1101 C1107 0.930 . S
C1102 H1088 0.930 . S
C1102 C1100 1.395 . S
C1102 C1105 1.403 . S
C1103 C1100 1.403 . S
C1103 C1104 1.524 . S
C1103 C1107 1.400 . S
C1104 H1089 0.960 . S
C1104 H1090 0.960 . S
C1104 H1091 0.960 . S
C1104 C1103 1.524 . S
C1105 C1102 1.403 . S
C1105 C1106 1.392 . S
C1105 C1109 1.495 . S
C1106 C1105 1.392 . S
C1106 C1107 1.385 . S
C1106 C1108 1.478 . S
C1107 H1101 0.930 . S
C1107 C1103 1.400 . S
C1107 C1106 1.385 . S
C1108 C1106 1.478 . S
C1108 C1110 1.381 . S
C1108 C1114 1.383 . S
C1109 C1105 1.495 . S
C1109 H1115 0.959 . S
C1109 H1116 0.961 . S
C1109 H1117 0.960 . S
C1110 C1108 1.381 . S
C1110 C1111 1.394 . S
C1110 H1118 0.930 . S
C1111 C1110 1.394 . S
C1111 C1112 1.383 . S
C1111 H1119 0.929 . S
C1112 C1111 1.383 . S
C1112 C1113 1.377 . S
C1113 H1097 0.930 . S
C1113 C1112 1.377 . S
C1113 C1114 1.379 . S
C1114 H1098 0.931 . S
C1114 C1108 1.383 . S
C1114 C1113 1.379 . S
H1115 C1109 0.959 . S
H1116 C1109 0.961 . S
H1117 C1109 0.960 . S
H1118 C1110 0.930 . S
H1119 C1111 0.929 . S
H1120 C1128 0.929 . S
H1121 C1130 0.930 . S
H1122 C1132 0.930 . S
H1123 C1135 0.929 . S
H1124 C1138 0.930 . S
H1125 C1140 0.960 . S
H1126 C1140 0.960 . S
H1127 C1140 0.960 . S
C1128 H1120 0.929 . S
C1128 C1129 1.377 . S
C1128 C1130 1.384 . S
C1129 C1128 1.377 . S
C1129 C1135 1.390 . S
C1130 H1121 0.930 . S
C1130 C1128 1.384 . S
C1130 C1131 1.372 . S
C1131 C1130 1.372 . S
C1131 C1132 1.400 . S
C1131 C1136 1.490 . S
C1132 H1122 0.930 . S
C1132 C1131 1.400 . S
C1132 C1135 1.386 . S
H1133 C1149 0.930 . S
H1134 C1150 0.931 . S
C1135 H1123 0.929 . S
C1135 C1129 1.390 . S
C1135 C1132 1.386 . S
C1136 C1131 1.490 . S
C1136 C1138 1.395 . S
C1136 C1139 1.403 . S
H1137 C1143 0.930 . S
C1138 H1124 0.930 . S
C1138 C1136 1.395 . S
C1138 C1141 1.403 . S
C1139 C1136 1.403 . S
C1139 C1140 1.524 . S
C1139 C1143 1.400 . S
C1140 H1125 0.960 . S
C1140 H1126 0.960 . S
C1140 H1127 0.960 . S
C1140 C1139 1.524 . S
C1141 C1138 1.403 . S
C1141 C1142 1.392 . S
C1141 C1145 1.495 . S
C1142 C1141 1.392 . S
C1142 C1143 1.385 . S
C1142 C1144 1.478 . S
C1143 H1137 0.930 . S
C1143 C1139 1.400 . S
C1143 C1142 1.385 . S
C1144 C1142 1.478 . S
C1144 C1146 1.381 . S
C1144 C1150 1.383 . S
C1145 C1141 1.495 . S
C1145 H1151 0.959 . S
C1145 H1152 0.961 . S
C1145 H1153 0.960 . S
C1146 C1144 1.381 . S
C1146 C1147 1.394 . S
C1146 H1154 0.930 . S
C1147 C1146 1.394 . S
C1147 C1148 1.383 . S
C1147 H1155 0.929 . S
C1148 C1147 1.383 . S
C1148 C1149 1.377 . S
C1149 H1133 0.930 . S
C1149 C1148 1.377 . S
C1149 C1150 1.379 . S
C1150 H1134 0.931 . S
C1150 C1144 1.383 . S
C1150 C1149 1.379 . S
H1151 C1145 0.959 . S
H1152 C1145 0.961 . S
H1153 C1145 0.960 . S
H1154 C1146 0.930 . S
H1155 C1147 0.929 . S
H1156 C1164 0.929 . S
H1157 C1166 0.930 . S
H1158 C1168 0.930 . S
H1159 C1171 0.929 . S
H1160 C1174 0.930 . S
H1161 C1176 0.960 . S
H1162 C1176 0.960 . S
H1163 C1176 0.960 . S
C1164 H1156 0.929 . S
C1164 C1165 1.377 . S
C1164 C1166 1.384 . S
C1165 C1164 1.377 . S
C1165 C1171 1.390 . S
C1166 H1157 0.930 . S
C1166 C1164 1.384 . S
C1166 C1167 1.372 . S
C1167 C1166 1.372 . S
C1167 C1168 1.400 . S
C1167 C1172 1.490 . S
C1168 H1158 0.930 . S
C1168 C1167 1.400 . S
C1168 C1171 1.386 . S
H1169 C1185 0.930 . S
H1170 C1186 0.931 . S
C1171 H1159 0.929 . S
C1171 C1165 1.390 . S
C1171 C1168 1.386 . S
C1172 C1167 1.490 . S
C1172 C1174 1.395 . S
C1172 C1175 1.403 . S
H1173 C1179 0.930 . S
C1174 H1160 0.930 . S
C1174 C1172 1.395 . S
C1174 C1177 1.403 . S
C1175 C1172 1.403 . S
C1175 C1176 1.524 . S
C1175 C1179 1.400 . S
C1176 H1161 0.960 . S
C1176 H1162 0.960 . S
C1176 H1163 0.960 . S
C1176 C1175 1.524 . S
C1177 C1174 1.403 . S
C1177 C1178 1.392 . S
C1177 C1181 1.495 . S
C1178 C1177 1.392 . S
C1178 C1179 1.385 . S
C1178 C1180 1.478 . S
C1179 H1173 0.930 . S
C1179 C1175 1.400 . S
C1179 C1178 1.385 . S
C1180 C1178 1.478 . S
C1180 C1182 1.381 . S
C1180 C1186 1.383 . S
C1181 C1177 1.495 . S
C1181 H1187 0.959 . S
C1181 H1188 0.961 . S
C1181 H1189 0.960 . S
C1182 C1180 1.381 . S
C1182 C1183 1.394 . S
C1182 H1190 0.930 . S
C1183 C1182 1.394 . S
C1183 C1184 1.383 . S
C1183 H1191 0.929 . S
C1184 C1183 1.383 . S
C1184 C1185 1.377 . S
C1185 H1169 0.930 . S
C1185 C1184 1.377 . S
C1185 C1186 1.379 . S
C1186 H1170 0.931 . S
C1186 C1180 1.383 . S
C1186 C1185 1.379 . S
H1187 C1181 0.959 . S
H1188 C1181 0.961 . S
H1189 C1181 0.960 . S
H1190 C1182 0.930 . S
H1191 C1183 0.929 . S
H1192 C1200 0.929 . S
H1193 C1202 0.930 . S
H1194 C1204 0.930 . S
H1195 C1207 0.929 . S
H1196 C1210 0.930 . S
H1197 C1212 0.960 . S
H1198 C1212 0.960 . S
H1199 C1212 0.960 . S
C1200 H1192 0.929 . S
C1200 C1201 1.377 . S
C1200 C1202 1.384 . S
C1201 C1200 1.377 . S
C1201 C1207 1.390 . S
C1202 H1193 0.930 . S
C1202 C1200 1.384 . S
C1202 C1203 1.372 . S
C1203 C1202 1.372 . S
C1203 C1204 1.400 . S
C1203 C1208 1.490 . S
C1204 H1194 0.930 . S
C1204 C1203 1.400 . S
C1204 C1207 1.386 . S
H1205 C1221 0.930 . S
H1206 C1222 0.931 . S
C1207 H1195 0.929 . S
C1207 C1201 1.390 . S
C1207 C1204 1.386 . S
C1208 C1203 1.490 . S
C1208 C1210 1.395 . S
C1208 C1211 1.403 . S
H1209 C1215 0.930 . S
C1210 H1196 0.930 . S
C1210 C1208 1.395 . S
C1210 C1213 1.403 . S
C1211 C1208 1.403 . S
C1211 C1212 1.524 . S
C1211 C1215 1.400 . S
C1212 H1197 0.960 . S
C1212 H1198 0.960 . S
C1212 H1199 0.960 . S
C1212 C1211 1.524 . S
C1213 C1210 1.403 . S
C1213 C1214 1.392 . S
C1213 C1217 1.495 . S
C1214 C1213 1.392 . S
C1214 C1215 1.385 . S
C1214 C1216 1.478 . S
C1215 H1209 0.930 . S
C1215 C1211 1.400 . S
C1215 C1214 1.385 . S
C1216 C1214 1.478 . S
C1216 C1218 1.381 . S
C1216 C1222 1.383 . S
C1217 C1213 1.495 . S
C1217 H1223 0.959 . S
C1217 H1224 0.961 . S
C1217 H1225 0.960 . S
C1218 C1216 1.381 . S
C1218 C1219 1.394 . S
C1218 H1226 0.930 . S
C1219 C1218 1.394 . S
C1219 C1220 1.383 . S
C1219 H1227 0.929 . S
C1220 C1219 1.383 . S
C1220 C1221 1.377 . S
C1221 H1205 0.930 . S
C1221 C1220 1.377 . S
C1221 C1222 1.379 . S
C1222 H1206 0.931 . S
C1222 C1216 1.383 . S
C1222 C1221 1.379 . S
H1223 C1217 0.959 . S
H1224 C1217 0.961 . S
H1225 C1217 0.960 . S
H1226 C1218 0.930 . S
H1227 C1219 0.929 . S
H1228 C1236 0.929 . S
H1229 C1238 0.930 . S
H1230 C1240 0.930 . S
H1231 C1243 0.929 . S
H1232 C1246 0.930 . S
H1233 C1248 0.960 . S
H1234 C1248 0.960 . S
H1235 C1248 0.960 . S
C1236 H1228 0.929 . S
C1236 C1237 1.377 . S
C1236 C1238 1.384 . S
C1237 C1236 1.377 . S
C1237 C1243 1.390 . S
C1238 H1229 0.930 . S
C1238 C1236 1.384 . S
C1238 C1239 1.372 . S
C1239 C1238 1.372 . S
C1239 C1240 1.400 . S
C1239 C1244 1.490 . S
C1240 H1230 0.930 . S
C1240 C1239 1.400 . S
C1240 C1243 1.386 . S
H1241 C1257 0.930 . S
H1242 C1258 0.931 . S
C1243 H1231 0.929 . S
C1243 C1237 1.390 . S
C1243 C1240 1.386 . S
C1244 C1239 1.490 . S
C1244 C1246 1.395 . S
C1244 C1247 1.403 . S
H1245 C1251 0.930 . S
C1246 H1232 0.930 . S
C1246 C1244 1.395 . S
C1246 C1249 1.403 . S
C1247 C1244 1.403 . S
C1247 C1248 1.524 . S
C1247 C1251 1.400 . S
C1248 H1233 0.960 . S
C1248 H1234 0.960 . S
C1248 H1235 0.960 . S
C1248 C1247 1.524 . S
C1249 C1246 1.403 . S
C1249 C1250 1.392 . S
C1249 C1253 1.495 . S
C1250 C1249 1.392 . S
C1250 C1251 1.385 . S
C1250 C1252 1.478 . S
C1251 H1245 0.930 . S
C1251 C1247 1.400 . S
C1251 C1250 1.385 . S
C1252 C1250 1.478 . S
C1252 C1254 1.381 . S
C1252 C1258 1.383 . S
C1253 C1249 1.495 . S
C1253 H1259 0.959 . S
C1253 H1260 0.961 . S
C1253 H1261 0.960 . S
C1254 C1252 1.381 . S
C1254 C1255 1.394 . S
C1254 H1262 0.930 . S
C1255 C1254 1.394 . S
C1255 C1256 1.383 . S
C1255 H1263 0.929 . S
C1256 C1255 1.383 . S
C1256 C1257 1.377 . S
C1257 H1241 0.930 . S
C1257 C1256 1.377 . S
C1257 C1258 1.379 . S
C1258 H1242 0.931 . S
C1258 C1252 1.383 . S
C1258 C1257 1.379 . S
H1259 C1253 0.959 . S
H1260 C1253 0.961 . S
H1261 C1253 0.960 . S
H1262 C1254 0.930 . S
H1263 C1255 0.929 . S
H1264 C1272 0.929 . S
H1265 C1274 0.930 . S
H1266 C1276 0.930 . S
H1267 C1279 0.929 . S
H1268 C1282 0.930 . S
H1269 C1284 0.960 . S
H1270 C1284 0.960 . S
H1271 C1284 0.960 . S
C1272 H1264 0.929 . S
C1272 C1273 1.377 . S
C1272 C1274 1.384 . S
C1273 C1272 1.377 . S
C1273 C1279 1.390 . S
C1274 H1265 0.930 . S
C1274 C1272 1.384 . S
C1274 C1275 1.372 . S
C1275 C1274 1.372 . S
C1275 C1276 1.400 . S
C1275 C1280 1.490 . S
C1276 H1266 0.930 . S
C1276 C1275 1.400 . S
C1276 C1279 1.386 . S
H1277 C1293 0.896 1_554 S
H1278 C1294 0.931 . S
C1279 H1267 0.929 . S
C1279 C1273 1.390 . S
C1279 C1276 1.386 . S
C1280 C1275 1.490 . S
C1280 C1282 1.395 . S
C1280 C1283 1.403 . S
H1281 C1287 0.930 . S
C1282 H1268 0.930 . S
C1282 C1280 1.395 . S
C1282 C1285 1.403 . S
C1283 C1280 1.403 . S
C1283 C1284 1.524 . S
C1283 C1287 1.400 . S
C1284 H1269 0.960 . S
C1284 H1270 0.960 . S
C1284 H1271 0.960 . S
C1284 C1283 1.524 . S
C1285 C1282 1.403 . S
C1285 C1286 1.392 . S
C1285 C1289 1.495 . S
C1286 C1285 1.392 . S
C1286 C1287 1.385 . S
C1286 C1288 1.478 . S
C1287 H1281 0.930 . S
C1287 C1283 1.400 . S
C1287 C1286 1.385 . S
C1288 C1286 1.478 . S
C1288 C1290 1.381 . S
C1288 C1294 1.383 . S
C1289 C1285 1.495 . S
C1289 H1295 0.959 . S
C1289 H1296 0.961 . S
C1289 H1297 0.960 . S
C1290 C1288 1.381 . S
C1290 C1291 1.394 . S
C1290 H1298 0.930 . S
C1291 C1290 1.394 . S
C1291 C1292 1.383 . S
C1291 H1299 0.929 . S
C1292 C1291 1.383 . S
C1292 C1293 1.377 . S
C1293 H1277 0.896 1_556 S
C1293 C1292 1.377 . S
C1293 C1294 1.379 . S
C1294 H1278 0.931 . S
C1294 C1288 1.383 . S
C1294 C1293 1.379 . S
H1295 C1289 0.959 . S
H1296 C1289 0.961 . S
H1297 C1289 0.960 . S
H1298 C1290 0.930 . S
H1299 C1291 0.929 . S
H1300 C1308 0.929 . S
H1301 C1310 0.930 . S
H1302 C1312 0.930 . S
H1303 C1315 0.929 . S
H1304 C1318 0.930 . S
H1305 C1320 0.960 . S
H1306 C1320 0.960 . S
H1307 C1320 0.960 . S
C1308 H1300 0.929 . S
C1308 C1309 1.377 . S
C1308 C1310 1.384 . S
C1309 C1308 1.377 . S
C1309 C1315 1.390 . S
C1310 H1301 0.930 . S
C1310 C1308 1.384 . S
C1310 C1311 1.372 . S
C1311 C1310 1.372 . S
C1311 C1312 1.400 . S
C1311 C1316 1.490 . S
C1312 H1302 0.930 . S
C1312 C1311 1.400 . S
C1312 C1315 1.386 . S
H1313 C1329 0.930 . S
H1314 C1330 0.931 . S
C1315 H1303 0.929 . S
C1315 C1309 1.390 . S
C1315 C1312 1.386 . S
C1316 C1311 1.490 . S
C1316 C1318 1.395 . S
C1316 C1319 1.403 . S
H1317 C1323 0.930 . S
C1318 H1304 0.930 . S
C1318 C1316 1.395 . S
C1318 C1321 1.403 . S
C1319 C1316 1.403 . S
C1319 C1320 1.524 . S
C1319 C1323 1.400 . S
C1320 H1305 0.960 . S
C1320 H1306 0.960 . S
C1320 H1307 0.960 . S
C1320 C1319 1.524 . S
C1321 C1318 1.403 . S
C1321 C1322 1.392 . S
C1321 C1325 1.495 . S
C1322 C1321 1.392 . S
C1322 C1323 1.385 . S
C1322 C1324 1.478 . S
C1323 H1317 0.930 . S
C1323 C1319 1.400 . S
C1323 C1322 1.385 . S
C1324 C1322 1.478 . S
C1324 C1326 1.381 . S
C1324 C1330 1.383 . S
C1325 C1321 1.495 . S
C1325 H1331 0.959 . S
C1325 H1332 0.961 . S
C1325 H1333 0.960 . S
C1326 C1324 1.381 . S
C1326 C1327 1.394 . S
C1326 H1334 0.930 . S
C1327 C1326 1.394 . S
C1327 C1328 1.383 . S
C1327 H1335 0.929 . S
C1328 C1327 1.383 . S
C1328 C1329 1.377 . S
C1329 H1313 0.930 . S
C1329 C1328 1.377 . S
C1329 C1330 1.379 . S
C1330 H1314 0.931 . S
C1330 C1324 1.383 . S
C1330 C1329 1.379 . S
H1331 C1325 0.959 . S
H1332 C1325 0.961 . S
H1333 C1325 0.960 . S
H1334 C1326 0.930 . S
H1335 C1327 0.929 . S
H1336 C1344 0.929 . S
H1337 C1346 0.930 . S
H1338 C1348 0.930 . S
H1339 C1351 0.929 . S
H1340 C1354 0.930 . S
H1341 C1356 0.960 . S
H1342 C1356 0.960 . S
H1343 C1356 0.960 . S
C1344 H1336 0.929 . S
C1344 C1345 1.377 . S
C1344 C1346 1.384 . S
C1345 C1344 1.377 . S
C1345 C1351 1.390 . S
C1346 H1337 0.930 . S
C1346 C1344 1.384 . S
C1346 C1347 1.372 . S
C1347 C1346 1.372 . S
C1347 C1348 1.400 . S
C1347 C1352 1.490 . S
C1348 H1338 0.930 . S
C1348 C1347 1.400 . S
C1348 C1351 1.386 . S
H1349 C1365 0.930 . S
H1350 C1366 0.931 . S
C1351 H1339 0.929 . S
C1351 C1345 1.390 . S
C1351 C1348 1.386 . S
C1352 C1347 1.490 . S
C1352 C1354 1.395 . S
C1352 C1355 1.403 . S
H1353 C1359 0.930 . S
C1354 H1340 0.930 . S
C1354 C1352 1.395 . S
C1354 C1357 1.403 . S
C1355 C1352 1.403 . S
C1355 C1356 1.524 . S
C1355 C1359 1.400 . S
C1356 H1341 0.960 . S
C1356 H1342 0.960 . S
C1356 H1343 0.960 . S
C1356 C1355 1.524 . S
C1357 C1354 1.403 . S
C1357 C1358 1.392 . S
C1357 C1361 1.495 . S
C1358 C1357 1.392 . S
C1358 C1359 1.385 . S
C1358 C1360 1.478 . S
C1359 H1353 0.930 . S
C1359 C1355 1.400 . S
C1359 C1358 1.385 . S
C1360 C1358 1.478 . S
C1360 C1362 1.381 . S
C1360 C1366 1.383 . S
C1361 C1357 1.495 . S
C1361 H1367 0.959 . S
C1361 H1368 0.961 . S
C1361 H1369 0.960 . S
C1362 C1360 1.381 . S
C1362 C1363 1.394 . S
C1362 H1370 0.930 . S
C1363 C1362 1.394 . S
C1363 C1364 1.383 . S
C1363 H1371 0.929 . S
C1364 C1363 1.383 . S
C1364 C1365 1.377 . S
C1365 H1349 0.930 . S
C1365 C1364 1.377 . S
C1365 C1366 1.379 . S
C1366 H1350 0.931 . S
C1366 C1360 1.383 . S
C1366 C1365 1.379 . S
H1367 C1361 0.959 . S
H1368 C1361 0.961 . S
H1369 C1361 0.960 . S
H1370 C1362 0.930 . S
H1371 C1363 0.929 . S
H1372 C1380 0.929 . S
H1373 C1382 0.930 . S
H1374 C1384 0.930 . S
H1375 C1387 0.929 . S
H1376 C1390 0.930 . S
H1377 C1392 0.960 . S
H1378 C1392 0.960 . S
H1379 C1392 0.960 . S
C1380 H1372 0.929 . S
C1380 C1381 1.377 . S
C1380 C1382 1.384 . S
C1381 C1380 1.377 . S
C1381 C1387 1.390 . S
C1382 H1373 0.930 . S
C1382 C1380 1.384 . S
C1382 C1383 1.372 . S
C1383 C1382 1.372 . S
C1383 C1384 1.400 . S
C1383 C1388 1.490 . S
C1384 H1374 0.930 . S
C1384 C1383 1.400 . S
C1384 C1387 1.386 . S
H1385 C1401 0.930 . S
H1386 C1402 0.931 . S
C1387 H1375 0.929 . S
C1387 C1381 1.390 . S
C1387 C1384 1.386 . S
C1388 C1383 1.490 . S
C1388 C1390 1.395 . S
C1388 C1391 1.403 . S
H1389 C1395 0.930 . S
C1390 H1376 0.930 . S
C1390 C1388 1.395 . S
C1390 C1393 1.403 . S
C1391 C1388 1.403 . S
C1391 C1392 1.524 . S
C1391 C1395 1.400 . S
C1392 H1377 0.960 . S
C1392 H1378 0.960 . S
C1392 H1379 0.960 . S
C1392 C1391 1.524 . S
C1393 C1390 1.403 . S
C1393 C1394 1.392 . S
C1393 C1397 1.495 . S
C1394 C1393 1.392 . S
C1394 C1395 1.385 . S
C1394 C1396 1.478 . S
C1395 H1389 0.930 . S
C1395 C1391 1.400 . S
C1395 C1394 1.385 . S
C1396 C1394 1.478 . S
C1396 C1398 1.381 . S
C1396 C1402 1.383 . S
C1397 C1393 1.495 . S
C1397 H1403 0.959 . S
C1397 H1404 0.961 . S
C1397 H1405 0.960 . S
C1398 C1396 1.381 . S
C1398 C1399 1.394 . S
C1398 H1406 0.930 . S
C1399 C1398 1.394 . S
C1399 C1400 1.383 . S
C1399 H1407 0.929 . S
C1400 C1399 1.383 . S
C1400 C1401 1.377 . S
C1401 H1385 0.930 . S
C1401 C1400 1.377 . S
C1401 C1402 1.379 . S
C1402 H1386 0.931 . S
C1402 C1396 1.383 . S
C1402 C1401 1.379 . S
H1403 C1397 0.959 . S
H1404 C1397 0.961 . S
H1405 C1397 0.960 . S
H1406 C1398 0.930 . S
H1407 C1399 0.929 . S
H1408 C1416 0.929 . S
H1409 C1418 0.930 . S
H1410 C1420 0.930 . S
H1411 C1423 0.929 . S
H1412 C1426 0.930 . S
H1413 C1428 0.960 . S
H1414 C1428 0.960 . S
H1415 C1428 0.960 . S
C1416 H1408 0.929 . S
C1416 C1417 1.377 . S
C1416 C1418 1.384 . S
C1417 C1416 1.377 . S
C1417 C1423 1.390 . S
C1418 H1409 0.930 . S
C1418 C1416 1.384 . S
C1418 C1419 1.372 . S
C1419 C1418 1.372 . S
C1419 C1420 1.400 . S
C1419 C1424 1.490 . S
C1420 H1410 0.930 . S
C1420 C1419 1.400 . S
C1420 C1423 1.386 . S
H1421 C1437 0.930 . S
H1422 C1438 0.931 . S
C1423 H1411 0.929 . S
C1423 C1417 1.390 . S
C1423 C1420 1.386 . S
C1424 C1419 1.490 . S
C1424 C1426 1.395 . S
C1424 C1427 1.403 . S
H1425 C1431 0.930 . S
C1426 H1412 0.930 . S
C1426 C1424 1.395 . S
C1426 C1429 1.403 . S
C1427 C1424 1.403 . S
C1427 C1428 1.524 . S
C1427 C1431 1.400 . S
C1428 H1413 0.960 . S
C1428 H1414 0.960 . S
C1428 H1415 0.960 . S
C1428 C1427 1.524 . S
C1429 C1426 1.403 . S
C1429 C1430 1.392 . S
C1429 C1433 1.495 . S
C1430 C1429 1.392 . S
C1430 C1431 1.385 . S
C1430 C1432 1.478 . S
C1431 H1425 0.930 . S
C1431 C1427 1.400 . S
C1431 C1430 1.385 . S
C1432 C1430 1.478 . S
C1432 C1434 1.381 . S
C1432 C1438 1.383 . S
C1433 C1429 1.495 . S
C1433 H1439 0.959 . S
C1433 H1440 0.961 . S
C1433 H1441 0.960 . S
C1434 C1432 1.381 . S
C1434 C1435 1.394 . S
C1434 H1442 0.930 . S
C1435 C1434 1.394 . S
C1435 C1436 1.383 . S
C1435 H1443 0.929 . S
C1436 C1435 1.383 . S
C1436 C1437 1.377 . S
C1437 H1421 0.930 . S
C1437 C1436 1.377 . S
C1437 C1438 1.379 . S
C1438 H1422 0.931 . S
C1438 C1432 1.383 . S
C1438 C1437 1.379 . S
H1439 C1433 0.959 . S
H1440 C1433 0.961 . S
H1441 C1433 0.960 . S
H1442 C1434 0.930 . S
H1443 C1435 0.929 . S
H1444 C1452 0.929 . S
H1445 C1454 0.930 . S
H1446 C1456 0.930 . S
H1447 C1459 0.929 . S
H1448 C1462 0.930 . S
H1449 C1464 0.960 . S
H1450 C1464 0.960 . S
H1451 C1464 0.960 . S
C1452 H1444 0.929 . S
C1452 C1453 1.377 . S
C1452 C1454 1.384 . S
C1453 C1452 1.377 . S
C1453 C1459 1.390 . S
C1454 H1445 0.930 . S
C1454 C1452 1.384 . S
C1454 C1455 1.372 . S
C1455 C1454 1.372 . S
C1455 C1456 1.400 . S
C1455 C1460 1.490 . S
C1456 H1446 0.930 . S
C1456 C1455 1.400 . S
C1456 C1459 1.386 . S
H1457 C1473 0.930 . S
H1458 C1474 0.931 . S
C1459 H1447 0.929 . S
C1459 C1453 1.390 . S
C1459 C1456 1.386 . S
C1460 C1455 1.490 . S
C1460 C1462 1.395 . S
C1460 C1463 1.403 . S
H1461 C1467 0.930 . S
C1462 H1448 0.930 . S
C1462 C1460 1.395 . S
C1462 C1465 1.403 . S
C1463 C1460 1.403 . S
C1463 C1464 1.524 . S
C1463 C1467 1.400 . S
C1464 H1449 0.960 . S
C1464 H1450 0.960 . S
C1464 H1451 0.960 . S
C1464 C1463 1.524 . S
C1465 C1462 1.403 . S
C1465 C1466 1.392 . S
C1465 C1469 1.495 . S
C1466 C1465 1.392 . S
C1466 C1467 1.385 . S
C1466 C1468 1.478 . S
C1467 H1461 0.930 . S
C1467 C1463 1.400 . S
C1467 C1466 1.385 . S
C1468 C1466 1.478 . S
C1468 C1470 1.381 . S
C1468 C1474 1.383 . S
C1469 C1465 1.495 . S
C1469 H1475 0.959 . S
C1469 H1476 0.961 . S
C1469 H1477 0.960 . S
C1470 C1468 1.381 . S
C1470 C1471 1.394 . S
C1470 H1478 0.930 . S
C1471 C1470 1.394 . S
C1471 C1472 1.383 . S
C1471 H1479 0.929 . S
C1472 C1471 1.383 . S
C1472 C1473 1.377 . S
C1473 H1457 0.930 . S
C1473 C1472 1.377 . S
C1473 C1474 1.379 . S
C1474 H1458 0.931 . S
C1474 C1468 1.383 . S
C1474 C1473 1.379 . S
H1475 C1469 0.959 . S
H1476 C1469 0.961 . S
H1477 C1469 0.960 . S
H1478 C1470 0.930 . S
H1479 C1471 0.929 . S
H1480 C1488 0.929 . S
H1481 C1490 0.930 . S
H1482 C1492 0.930 . S
H1483 C1495 0.929 . S
H1484 C1498 0.930 . S
H1485 C1500 0.960 . S
H1486 C1500 0.960 . S
H1487 C1500 0.960 . S
C1488 H1480 0.929 . S
C1488 C1489 1.377 . S
C1488 C1490 1.384 . S
C1489 C1488 1.377 . S
C1489 C1495 1.390 . S
C1490 H1481 0.930 . S
C1490 C1488 1.384 . S
C1490 C1491 1.372 . S
C1491 C1490 1.372 . S
C1491 C1492 1.400 . S
C1491 C1496 1.490 . S
C1492 H1482 0.930 . S
C1492 C1491 1.400 . S
C1492 C1495 1.386 . S
H1493 C1509 0.930 . S
H1494 C1510 0.931 . S
C1495 H1483 0.929 . S
C1495 C1489 1.390 . S
C1495 C1492 1.386 . S
C1496 C1491 1.490 . S
C1496 C1498 1.395 . S
C1496 C1499 1.403 . S
H1497 C1503 0.930 . S
C1498 H1484 0.930 . S
C1498 C1496 1.395 . S
C1498 C1501 1.403 . S
C1499 C1496 1.403 . S
C1499 C1500 1.524 . S
C1499 C1503 1.400 . S
C1500 H1485 0.960 . S
C1500 H1486 0.960 . S
C1500 H1487 0.960 . S
C1500 C1499 1.524 . S
C1501 C1498 1.403 . S
C1501 C1502 1.392 . S
C1501 C1505 1.495 . S
C1502 C1501 1.392 . S
C1502 C1503 1.385 . S
C1502 C1504 1.478 . S
C1503 H1497 0.930 . S
C1503 C1499 1.400 . S
C1503 C1502 1.385 . S
C1504 C1502 1.478 . S
C1504 C1506 1.381 . S
C1504 C1510 1.383 . S
C1505 C1501 1.495 . S
C1505 H1511 0.959 . S
C1505 H1512 0.961 . S
C1505 H1513 0.960 . S
C1506 C1504 1.381 . S
C1506 C1507 1.394 . S
C1506 H1514 0.930 . S
C1507 C1506 1.394 . S
C1507 C1508 1.383 . S
C1507 H1515 0.929 . S
C1508 C1507 1.383 . S
C1508 C1509 1.377 . S
C1509 H1493 0.930 . S
C1509 C1508 1.377 . S
C1509 C1510 1.379 . S
C1510 H1494 0.931 . S
C1510 C1504 1.383 . S
C1510 C1509 1.379 . S
H1511 C1505 0.959 . S
H1512 C1505 0.961 . S
H1513 C1505 0.960 . S
H1514 C1506 0.930 . S
H1515 C1507 0.929 . S
H1516 C1524 0.929 . S
H1517 C1526 0.930 . S
H1518 C1528 0.930 . S
H1519 C1531 0.929 . S
H1520 C1534 0.930 . S
H1521 C1536 0.960 . S
H1522 C1536 0.960 . S
H1523 C1536 0.960 . S
C1524 H1516 0.929 . S
C1524 C1525 1.377 . S
C1524 C1526 1.384 . S
C1525 C1524 1.377 . S
C1525 C1531 1.390 . S
C1526 H1517 0.930 . S
C1526 C1524 1.384 . S
C1526 C1527 1.372 . S
C1527 C1526 1.372 . S
C1527 C1528 1.400 . S
C1527 C1532 1.490 . S
C1528 H1518 0.930 . S
C1528 C1527 1.400 . S
C1528 C1531 1.386 . S
H1529 C1545 0.930 . S
H1530 C1546 0.931 . S
C1531 H1519 0.929 . S
C1531 C1525 1.390 . S
C1531 C1528 1.386 . S
C1532 C1527 1.490 . S
C1532 C1534 1.395 . S
C1532 C1535 1.403 . S
H1533 C1539 0.930 . S
C1534 H1520 0.930 . S
C1534 C1532 1.395 . S
C1534 C1537 1.403 . S
C1535 C1532 1.403 . S
C1535 C1536 1.524 . S
C1535 C1539 1.400 . S
C1536 H1521 0.960 . S
C1536 H1522 0.960 . S
C1536 H1523 0.960 . S
C1536 C1535 1.524 . S
C1537 C1534 1.403 . S
C1537 C1538 1.392 . S
C1537 C1541 1.495 . S
C1538 C1537 1.392 . S
C1538 C1539 1.385 . S
C1538 C1540 1.478 . S
C1539 H1533 0.930 . S
C1539 C1535 1.400 . S
C1539 C1538 1.385 . S
C1540 C1538 1.478 . S
C1540 C1542 1.381 . S
C1540 C1546 1.383 . S
C1541 C1537 1.495 . S
C1541 H1547 0.959 . S
C1541 H1548 0.961 . S
C1541 H1549 0.960 . S
C1542 C1540 1.381 . S
C1542 C1543 1.394 . S
C1542 H1550 0.930 . S
C1543 C1542 1.394 . S
C1543 C1544 1.383 . S
C1543 H1551 0.929 . S
C1544 C1543 1.383 . S
C1544 C1545 1.377 . S
C1545 H1529 0.930 . S
C1545 C1544 1.377 . S
C1545 C1546 1.379 . S
C1546 H1530 0.931 . S
C1546 C1540 1.383 . S
C1546 C1545 1.379 . S
H1547 C1541 0.959 . S
H1548 C1541 0.961 . S
H1549 C1541 0.960 . S
H1550 C1542 0.930 . S
H1551 C1543 0.929 . S
H1552 C1560 0.929 1_545 S
H1553 C1562 0.930 . S
H1554 C1564 0.930 . S
H1555 C1567 0.929 . S
H1556 C1570 0.930 . S
H1557 C1572 0.960 . S
H1558 C1572 0.960 . S
H1559 C1572 0.960 . S
C1560 H1552 0.929 1_565 S
C1560 C1561 1.377 . S
C1560 C1562 1.384 . S
C1561 C1560 1.377 . S
C1561 C1567 1.390 . S
C1562 H1553 0.930 . S
C1562 C1560 1.384 . S
C1562 C1563 1.372 . S
C1563 C1562 1.372 . S
C1563 C1564 1.400 . S
C1563 C1568 1.490 . S
C1564 H1554 0.930 . S
C1564 C1563 1.400 . S
C1564 C1567 1.386 . S
H1565 C1581 0.930 . S
H1566 C1582 0.931 . S
C1567 H1555 0.929 . S
C1567 C1561 1.390 . S
C1567 C1564 1.386 . S
C1568 C1563 1.490 . S
C1568 C1570 1.395 . S
C1568 C1571 1.403 . S
H1569 C1575 0.930 . S
C1570 H1556 0.930 . S
C1570 C1568 1.395 . S
C1570 C1573 1.403 . S
C1571 C1568 1.403 . S
C1571 C1572 1.524 . S
C1571 C1575 1.400 . S
C1572 H1557 0.960 . S
C1572 H1558 0.960 . S
C1572 H1559 0.960 . S
C1572 C1571 1.524 . S
C1573 C1570 1.403 . S
C1573 C1574 1.392 . S
C1573 C1577 1.495 . S
C1574 C1573 1.392 . S
C1574 C1575 1.385 . S
C1574 C1576 1.478 . S
C1575 H1569 0.930 . S
C1575 C1571 1.400 . S
C1575 C1574 1.385 . S
C1576 C1574 1.478 . S
C1576 C1578 1.381 . S
C1576 C1582 1.383 . S
C1577 C1573 1.495 . S
C1577 H1583 0.959 . S
C1577 H1584 0.961 . S
C1577 H1585 0.960 . S
C1578 C1576 1.381 . S
C1578 C1579 1.394 . S
C1578 H1586 0.930 . S
C1579 C1578 1.394 . S
C1579 C1580 1.383 . S
C1579 H1587 0.929 . S
C1580 C1579 1.383 . S
C1580 C1581 1.377 . S
C1581 H1565 0.930 . S
C1581 C1580 1.377 . S
C1581 C1582 1.379 . S
C1582 H1566 0.931 . S
C1582 C1576 1.383 . S
C1582 C1581 1.379 . S
H1583 C1577 0.959 . S
H1584 C1577 0.961 . S
H1585 C1577 0.960 . S
H1586 C1578 0.930 . S
H1587 C1579 0.929 . S
H1588 C1596 0.929 . S
H1589 C1598 0.930 . S
H1590 C1600 0.930 . S
H1591 C1603 0.929 . S
H1592 C1606 0.930 . S
H1593 C1608 0.960 . S
H1594 C1608 0.960 . S
H1595 C1608 0.960 . S
C1596 H1588 0.929 . S
C1596 C1597 1.377 . S
C1596 C1598 1.384 . S
C1597 C1596 1.377 . S
C1597 C1603 1.390 . S
C1598 H1589 0.930 . S
C1598 C1596 1.384 . S
C1598 C1599 1.372 . S
C1599 C1598 1.372 . S
C1599 C1600 1.400 . S
C1599 C1604 1.490 . S
C1600 H1590 0.930 . S
C1600 C1599 1.400 . S
C1600 C1603 1.386 . S
H1601 C1617 0.930 . S
H1602 C1618 0.931 . S
C1603 H1591 0.929 . S
C1603 C1597 1.390 . S
C1603 C1600 1.386 . S
C1604 C1599 1.490 . S
C1604 C1606 1.395 . S
C1604 C1607 1.403 . S
H1605 C1611 0.930 . S
C1606 H1592 0.930 . S
C1606 C1604 1.395 . S
C1606 C1609 1.403 . S
C1607 C1604 1.403 . S
C1607 C1608 1.524 . S
C1607 C1611 1.400 . S
C1608 H1593 0.960 . S
C1608 H1594 0.960 . S
C1608 H1595 0.960 . S
C1608 C1607 1.524 . S
C1609 C1606 1.403 . S
C1609 C1610 1.392 . S
C1609 C1613 1.495 . S
C1610 C1609 1.392 . S
C1610 C1611 1.385 . S
C1610 C1612 1.478 . S
C1611 H1605 0.930 . S
C1611 C1607 1.400 . S
C1611 C1610 1.385 . S
C1612 C1610 1.478 . S
C1612 C1614 1.381 . S
C1612 C1618 1.383 . S
C1613 C1609 1.495 . S
C1613 H1619 0.959 . S
C1613 H1620 0.961 . S
C1613 H1621 0.960 . S
C1614 C1612 1.381 . S
C1614 C1615 1.394 . S
C1614 H1622 0.930 . S
C1615 C1614 1.394 . S
C1615 C1616 1.383 . S
C1615 H1623 0.929 . S
C1616 C1615 1.383 . S
C1616 C1617 1.377 . S
C1617 H1601 0.930 . S
C1617 C1616 1.377 . S
C1617 C1618 1.379 . S
C1618 H1602 0.931 . S
C1618 C1612 1.383 . S
C1618 C1617 1.379 . S
H1619 C1613 0.959 . S
H1620 C1613 0.961 . S
H1621 C1613 0.960 . S
H1622 C1614 0.930 . S
H1623 C1615 0.929 . S
H1624 C1632 0.929 . S
H1625 C1634 0.930 . S
H1626 C1636 0.930 . S
H1627 C1639 0.929 . S
H1628 C1642 0.930 . S
H1629 C1644 0.960 . S
H1630 C1644 0.960 . S
H1631 C1644 0.960 . S
C1632 H1624 0.929 . S
C1632 C1633 1.377 . S
C1632 C1634 1.384 . S
C1633 C1632 1.377 . S
C1633 C1639 1.390 . S
C1634 H1625 0.930 . S
C1634 C1632 1.384 . S
C1634 C1635 1.372 . S
C1635 C1634 1.372 . S
C1635 C1636 1.400 . S
C1635 C1640 1.490 . S
C1636 H1626 0.930 . S
C1636 C1635 1.400 . S
C1636 C1639 1.386 . S
H1637 C1653 0.930 . S
H1638 C1654 0.931 . S
C1639 H1627 0.929 . S
C1639 C1633 1.390 . S
C1639 C1636 1.386 . S
C1640 C1635 1.490 . S
C1640 C1642 1.395 . S
C1640 C1643 1.403 . S
H1641 C1647 0.930 . S
C1642 H1628 0.930 . S
C1642 C1640 1.395 . S
C1642 C1645 1.403 . S
C1643 C1640 1.403 . S
C1643 C1644 1.524 . S
C1643 C1647 1.400 . S
C1644 H1629 0.960 . S
C1644 H1630 0.960 . S
C1644 H1631 0.960 . S
C1644 C1643 1.524 . S
C1645 C1642 1.403 . S
C1645 C1646 1.392 . S
C1645 C1649 1.495 . S
C1646 C1645 1.392 . S
C1646 C1647 1.385 . S
C1646 C1648 1.478 . S
C1647 H1641 0.930 . S
C1647 C1643 1.400 . S
C1647 C1646 1.385 . S
C1648 C1646 1.478 . S
C1648 C1650 1.381 . S
C1648 C1654 1.383 . S
C1649 C1645 1.495 . S
C1649 H1655 0.959 . S
C1649 H1656 0.961 . S
C1649 H1657 0.960 . S
C1650 C1648 1.381 . S
C1650 C1651 1.394 . S
C1650 H1658 0.930 . S
C1651 C1650 1.394 . S
C1651 C1652 1.383 . S
C1651 H1659 0.929 . S
C1652 C1651 1.383 . S
C1652 C1653 1.377 . S
C1653 H1637 0.930 . S
C1653 C1652 1.377 . S
C1653 C1654 1.379 . S
C1654 H1638 0.931 . S
C1654 C1648 1.383 . S
C1654 C1653 1.379 . S
H1655 C1649 0.959 . S
H1656 C1649 0.961 . S
H1657 C1649 0.960 . S
H1658 C1650 0.930 . S
H1659 C1651 0.929 . S
H1660 C1668 0.929 . S
H1661 C1670 0.930 . S
H1662 C1672 0.930 . S
H1663 C1675 0.929 . S
H1664 C1678 0.930 . S
H1665 C1680 0.960 . S
H1666 C1680 0.960 . S
H1667 C1680 0.960 . S
C1668 H1660 0.929 . S
C1668 C1669 1.377 . S
C1668 C1670 1.384 . S
C1669 C1668 1.377 . S
C1669 C1675 1.390 . S
C1670 H1661 0.930 . S
C1670 C1668 1.384 . S
C1670 C1671 1.372 . S
C1671 C1670 1.372 . S
C1671 C1672 1.400 . S
C1671 C1676 1.490 . S
C1672 H1662 0.930 . S
C1672 C1671 1.400 . S
C1672 C1675 1.386 . S
H1673 C1689 0.930 . S
H1674 C1690 0.931 . S
C1675 H1663 0.929 . S
C1675 C1669 1.390 . S
C1675 C1672 1.386 . S
C1676 C1671 1.490 . S
C1676 C1678 1.395 . S
C1676 C1679 1.403 . S
H1677 C1683 0.930 . S
C1678 H1664 0.930 . S
C1678 C1676 1.395 . S
C1678 C1681 1.403 . S
C1679 C1676 1.403 . S
C1679 C1680 1.524 . S
C1679 C1683 1.400 . S
C1680 H1665 0.960 . S
C1680 H1666 0.960 . S
C1680 H1667 0.960 . S
C1680 C1679 1.524 . S
C1681 C1678 1.403 . S
C1681 C1682 1.392 . S
C1681 C1685 1.495 . S
C1682 C1681 1.392 . S
C1682 C1683 1.385 . S
C1682 C1684 1.478 . S
C1683 H1677 0.930 . S
C1683 C1679 1.400 . S
C1683 C1682 1.385 . S
C1684 C1682 1.478 . S
C1684 C1686 1.381 . S
C1684 C1690 1.383 . S
C1685 C1681 1.495 . S
C1685 H1691 0.959 . S
C1685 H1692 0.961 . S
C1685 H1693 0.960 . S
C1686 C1684 1.381 . S
C1686 C1687 1.394 . S
C1686 H1694 0.930 . S
C1687 C1686 1.394 . S
C1687 C1688 1.383 . S
C1687 H1695 0.929 . S
C1688 C1687 1.383 . S
C1688 C1689 1.377 . S
C1689 H1673 0.930 . S
C1689 C1688 1.377 . S
C1689 C1690 1.379 . S
C1690 H1674 0.931 . S
C1690 C1684 1.383 . S
C1690 C1689 1.379 . S
H1691 C1685 0.959 . S
H1692 C1685 0.961 . S
H1693 C1685 0.960 . S
H1694 C1686 0.930 . S
H1695 C1687 0.929 . S
H1696 C1704 0.929 . S
H1697 C1706 0.930 . S
H1698 C1708 0.930 . S
H1699 C1711 0.929 . S
H1700 C1714 0.930 . S
H1701 C1716 0.960 . S
H1702 C1716 0.960 . S
H1703 C1716 0.960 . S
C1704 H1696 0.929 . S
C1704 C1705 1.377 . S
C1704 C1706 1.384 . S
C1705 C1704 1.377 . S
C1705 C1711 1.390 . S
C1706 H1697 0.930 . S
C1706 C1704 1.384 . S
C1706 C1707 1.372 . S
C1707 C1706 1.372 . S
C1707 C1708 1.400 . S
C1707 C1712 1.490 . S
C1708 H1698 0.930 . S
C1708 C1707 1.400 . S
C1708 C1711 1.386 . S
H1709 C1725 0.930 . S
H1710 C1726 0.931 . S
C1711 H1699 0.929 . S
C1711 C1705 1.390 . S
C1711 C1708 1.386 . S
C1712 C1707 1.490 . S
C1712 C1714 1.395 . S
C1712 C1715 1.403 . S
H1713 C1719 0.930 . S
C1714 H1700 0.930 . S
C1714 C1712 1.395 . S
C1714 C1717 1.403 . S
C1715 C1712 1.403 . S
C1715 C1716 1.524 . S
C1715 C1719 1.400 . S
C1716 H1701 0.960 . S
C1716 H1702 0.960 . S
C1716 H1703 0.960 . S
C1716 C1715 1.524 . S
C1717 C1714 1.403 . S
C1717 C1718 1.392 . S
C1717 C1721 1.495 . S
C1718 C1717 1.392 . S
C1718 C1719 1.385 . S
C1718 C1720 1.478 . S
C1719 H1713 0.930 . S
C1719 C1715 1.400 . S
C1719 C1718 1.385 . S
C1720 C1718 1.478 . S
C1720 C1722 1.381 . S
C1720 C1726 1.383 . S
C1721 C1717 1.495 . S
C1721 H1727 0.959 . S
C1721 H1728 0.961 . S
C1721 H1729 0.960 . S
C1722 C1720 1.381 . S
C1722 C1723 1.394 . S
C1722 H1730 0.930 . S
C1723 C1722 1.394 . S
C1723 C1724 1.383 . S
C1723 H1731 0.929 . S
C1724 C1723 1.383 . S
C1724 C1725 1.377 . S
C1725 H1709 0.930 . S
C1725 C1724 1.377 . S
C1725 C1726 1.379 . S
C1726 H1710 0.931 . S
C1726 C1720 1.383 . S
C1726 C1725 1.379 . S
H1727 C1721 0.959 . S
H1728 C1721 0.961 . S
H1729 C1721 0.960 . S
H1730 C1722 0.930 . S
H1731 C1723 0.929 . S
H1732 C1740 0.929 . S
H1733 C1742 0.930 . S
H1734 C1744 0.930 . S
H1735 C1747 0.929 . S
H1736 C1750 0.930 . S
H1737 C1752 0.960 . S
H1738 C1752 0.960 . S
H1739 C1752 0.960 . S
C1740 H1732 0.929 . S
C1740 C1741 1.377 . S
C1740 C1742 1.384 . S
C1741 C1740 1.377 . S
C1741 C1747 1.390 . S
C1742 H1733 0.930 . S
C1742 C1740 1.384 . S
C1742 C1743 1.372 . S
C1743 C1742 1.372 . S
C1743 C1744 1.400 . S
C1743 C1748 1.490 . S
C1744 H1734 0.930 . S
C1744 C1743 1.400 . S
C1744 C1747 1.386 . S
H1745 C1761 0.930 . S
H1746 C1762 0.931 . S
C1747 H1735 0.929 . S
C1747 C1741 1.390 . S
C1747 C1744 1.386 . S
C1748 C1743 1.490 . S
C1748 C1750 1.395 . S
C1748 C1751 1.403 . S
H1749 C1755 0.930 . S
C1750 H1736 0.930 . S
C1750 C1748 1.395 . S
C1750 C1753 1.403 . S
C1751 C1748 1.403 . S
C1751 C1752 1.524 . S
C1751 C1755 1.400 . S
C1752 H1737 0.960 . S
C1752 H1738 0.960 . S
C1752 H1739 0.960 . S
C1752 C1751 1.524 . S
C1753 C1750 1.403 . S
C1753 C1754 1.392 . S
C1753 C1757 1.495 . S
C1754 C1753 1.392 . S
C1754 C1755 1.385 . S
C1754 C1756 1.478 . S
C1755 H1749 0.930 . S
C1755 C1751 1.400 . S
C1755 C1754 1.385 . S
C1756 C1754 1.478 . S
C1756 C1758 1.381 . S
C1756 C1762 1.383 . S
C1757 C1753 1.495 . S
C1757 H1763 0.959 . S
C1757 H1764 0.961 . S
C1757 H1765 0.960 . S
C1758 C1756 1.381 . S
C1758 C1759 1.394 . S
C1758 H1766 0.930 . S
C1759 C1758 1.394 . S
C1759 C1760 1.383 . S
C1759 H1767 0.929 1_455 S
C1760 C1759 1.383 . S
C1760 C1761 1.377 . S
C1761 H1745 0.930 . S
C1761 C1760 1.377 . S
C1761 C1762 1.379 . S
C1762 H1746 0.931 . S
C1762 C1756 1.383 . S
C1762 C1761 1.379 . S
H1763 C1757 0.959 . S
H1764 C1757 0.961 . S
H1765 C1757 0.960 . S
H1766 C1758 0.930 . S
H1767 C1759 0.929 1_655 S
H1768 C1776 0.929 . S
H1769 C1778 0.930 . S
H1770 C1780 0.930 . S
H1771 C1783 0.929 . S
H1772 C1786 0.930 . S
H1773 C1788 0.960 . S
H1774 C1788 0.960 . S
H1775 C1788 0.960 . S
C1776 H1768 0.929 . S
C1776 C1777 1.377 . S
C1776 C1778 1.384 . S
C1777 C1776 1.377 . S
C1777 C1783 1.390 . S
C1778 H1769 0.930 . S
C1778 C1776 1.384 . S
C1778 C1779 1.372 . S
C1779 C1778 1.372 . S
C1779 C1780 1.400 . S
C1779 C1784 1.490 . S
C1780 H1770 0.930 . S
C1780 C1779 1.400 . S
C1780 C1783 1.386 . S
H1781 C1797 0.930 . S
H1782 C1798 0.931 . S
C1783 H1771 0.929 . S
C1783 C1777 1.390 . S
C1783 C1780 1.386 . S
C1784 C1779 1.490 . S
C1784 C1786 1.395 . S
C1784 C1787 1.403 . S
H1785 C1791 0.930 . S
C1786 H1772 0.930 . S
C1786 C1784 1.395 . S
C1786 C1789 1.403 . S
C1787 C1784 1.403 . S
C1787 C1788 1.524 . S
C1787 C1791 1.400 . S
C1788 H1773 0.960 . S
C1788 H1774 0.960 . S
C1788 H1775 0.960 . S
C1788 C1787 1.524 . S
C1789 C1786 1.403 . S
C1789 C1790 1.392 . S
C1789 C1793 1.495 . S
C1790 C1789 1.392 . S
C1790 C1791 1.385 . S
C1790 C1792 1.478 . S
C1791 H1785 0.930 . S
C1791 C1787 1.400 . S
C1791 C1790 1.385 . S
C1792 C1790 1.478 . S
C1792 C1794 1.381 . S
C1792 C1798 1.383 . S
C1793 C1789 1.495 . S
C1793 H1799 0.959 . S
C1793 H1800 0.961 . S
C1793 H1801 0.960 . S
C1794 C1792 1.381 . S
C1794 C1795 1.394 . S
C1794 H1802 0.930 . S
C1795 C1794 1.394 . S
C1795 C1796 1.383 . S
C1795 H1803 0.929 . S
C1796 C1795 1.383 . S
C1796 C1797 1.377 . S
C1797 H1781 0.930 . S
C1797 C1796 1.377 . S
C1797 C1798 1.379 . S
C1798 H1782 0.931 . S
C1798 C1792 1.383 . S
C1798 C1797 1.379 . S
H1799 C1793 0.959 . S
H1800 C1793 0.961 . S
H1801 C1793 0.960 . S
H1802 C1794 0.930 . S
H1803 C1795 0.929 . S
H1804 C1812 0.929 . S
H1805 C1814 0.930 . S
H1806 C1816 0.930 . S
H1807 C1819 0.929 . S
H1808 C1822 0.930 . S
H1809 C1824 0.960 . S
H1810 C1824 0.960 . S
H1811 C1824 0.960 . S
C1812 H1804 0.929 . S
C1812 C1813 1.377 . S
C1812 C1814 1.384 . S
C1813 C1812 1.377 . S
C1813 C1819 1.390 . S
C1814 H1805 0.930 . S
C1814 C1812 1.384 . S
C1814 C1815 1.372 . S
C1815 C1814 1.372 . S
C1815 C1816 1.400 . S
C1815 C1820 1.490 . S
C1816 H1806 0.930 . S
C1816 C1815 1.400 . S
C1816 C1819 1.386 . S
H1817 C1833 0.930 . S
H1818 C1834 0.931 . S
C1819 H1807 0.929 . S
C1819 C1813 1.390 . S
C1819 C1816 1.386 . S
C1820 C1815 1.490 . S
C1820 C1822 1.395 . S
C1820 C1823 1.403 . S
H1821 C1827 0.930 . S
C1822 H1808 0.930 . S
C1822 C1820 1.395 . S
C1822 C1825 1.403 . S
C1823 C1820 1.403 . S
C1823 C1824 1.524 . S
C1823 C1827 1.400 . S
C1824 H1809 0.960 . S
C1824 H1810 0.960 . S
C1824 H1811 0.960 . S
C1824 C1823 1.524 . S
C1825 C1822 1.403 . S
C1825 C1826 1.392 . S
C1825 C1829 1.495 . S
C1826 C1825 1.392 . S
C1826 C1827 1.385 . S
C1826 C1828 1.478 . S
C1827 H1821 0.930 . S
C1827 C1823 1.400 . S
C1827 C1826 1.385 . S
C1828 C1826 1.478 . S
C1828 C1830 1.381 . S
C1828 C1834 1.383 . S
C1829 C1825 1.495 . S
C1829 H1835 0.959 . S
C1829 H1836 0.961 . S
C1829 H1837 0.960 . S
C1830 C1828 1.381 . S
C1830 C1831 1.394 . S
C1830 H1838 0.930 . S
C1831 C1830 1.394 . S
C1831 C1832 1.383 . S
C1831 H1839 0.929 . S
C1832 C1831 1.383 . S
C1832 C1833 1.377 . S
C1833 H1817 0.930 . S
C1833 C1832 1.377 . S
C1833 C1834 1.379 . S
C1834 H1818 0.931 . S
C1834 C1828 1.383 . S
C1834 C1833 1.379 . S
H1835 C1829 0.959 . S
H1836 C1829 0.961 . S
H1837 C1829 0.960 . S
H1838 C1830 0.930 . S
H1839 C1831 0.929 . S
H1840 C1848 0.929 . S
H1841 C1850 0.930 . S
H1842 C1852 0.930 . S
H1843 C1855 0.929 . S
H1844 C1858 0.930 . S
H1845 C1860 0.960 . S
H1846 C1860 0.960 . S
H1847 C1860 0.960 . S
C1848 H1840 0.929 . S
C1848 C1849 1.377 . S
C1848 C1850 1.384 . S
C1849 C1848 1.377 . S
C1849 C1855 1.390 . S
C1850 H1841 0.930 . S
C1850 C1848 1.384 . S
C1850 C1851 1.372 . S
C1851 C1850 1.372 . S
C1851 C1852 1.400 . S
C1851 C1856 1.490 . S
C1852 H1842 0.930 . S
C1852 C1851 1.400 . S
C1852 C1855 1.386 . S
H1853 C1869 0.930 . S
H1854 C1870 0.931 . S
C1855 H1843 0.929 . S
C1855 C1849 1.390 . S
C1855 C1852 1.386 . S
C1856 C1851 1.490 . S
C1856 C1858 1.395 . S
C1856 C1859 1.403 . S
H1857 C1863 0.930 . S
C1858 H1844 0.930 . S
C1858 C1856 1.395 . S
C1858 C1861 1.403 . S
C1859 C1856 1.403 . S
C1859 C1860 1.524 . S
C1859 C1863 1.400 . S
C1860 H1845 0.960 . S
C1860 H1846 0.960 . S
C1860 H1847 0.960 . S
C1860 C1859 1.524 . S
C1861 C1858 1.403 . S
C1861 C1862 1.392 . S
C1861 C1865 1.495 . S
C1862 C1861 1.392 . S
C1862 C1863 1.385 . S
C1862 C1864 1.478 . S
C1863 H1857 0.930 . S
C1863 C1859 1.400 . S
C1863 C1862 1.385 . S
C1864 C1862 1.478 . S
C1864 C1866 1.381 . S
C1864 C1870 1.383 . S
C1865 C1861 1.495 . S
C1865 H1871 0.959 . S
C1865 H1872 0.961 . S
C1865 H1873 0.960 . S
C1866 C1864 1.381 . S
C1866 C1867 1.394 . S
C1866 H1874 0.930 . S
C1867 C1866 1.394 . S
C1867 C1868 1.383 . S
C1867 H1875 0.929 . S
C1868 C1867 1.383 . S
C1868 C1869 1.377 . S
C1869 H1853 0.930 . S
C1869 C1868 1.377 . S
C1869 C1870 1.379 . S
C1870 H1854 0.931 . S
C1870 C1864 1.383 . S
C1870 C1869 1.379 . S
H1871 C1865 0.959 . S
H1872 C1865 0.961 . S
H1873 C1865 0.960 . S
H1874 C1866 0.930 . S
H1875 C1867 0.929 . S
H1876 C1884 0.929 . S
H1877 C1886 0.930 . S
H1878 C1888 0.930 . S
H1879 C1891 0.929 . S
H1880 C1894 0.930 . S
H1881 C1896 0.960 . S
H1882 C1896 0.960 . S
H1883 C1896 0.960 . S
C1884 H1876 0.929 . S
C1884 C1885 1.377 . S
C1884 C1886 1.384 . S
C1885 C1884 1.377 . S
C1885 C1891 1.390 . S
C1886 H1877 0.930 . S
C1886 C1884 1.384 . S
C1886 C1887 1.372 . S
C1887 C1886 1.372 . S
C1887 C1888 1.400 . S
C1887 C1892 1.490 . S
C1888 H1878 0.930 . S
C1888 C1887 1.400 . S
C1888 C1891 1.386 . S
H1889 C1905 0.930 . S
H1890 C1906 0.931 . S
C1891 H1879 0.929 . S
C1891 C1885 1.390 . S
C1891 C1888 1.386 . S
C1892 C1887 1.490 . S
C1892 C1894 1.395 . S
C1892 C1895 1.403 . S
H1893 C1899 0.930 . S
C1894 H1880 0.930 . S
C1894 C1892 1.395 . S
C1894 C1897 1.403 . S
C1895 C1892 1.403 . S
C1895 C1896 1.524 . S
C1895 C1899 1.400 . S
C1896 H1881 0.960 . S
C1896 H1882 0.960 . S
C1896 H1883 0.960 . S
C1896 C1895 1.524 . S
C1897 C1894 1.403 . S
C1897 C1898 1.392 . S
C1897 C1901 1.495 . S
C1898 C1897 1.392 . S
C1898 C1899 1.385 . S
C1898 C1900 1.478 . S
C1899 H1893 0.930 . S
C1899 C1895 1.400 . S
C1899 C1898 1.385 . S
C1900 C1898 1.478 . S
C1900 C1902 1.381 . S
C1900 C1906 1.383 . S
C1901 C1897 1.495 . S
C1901 H1907 0.959 . S
C1901 H1908 0.961 . S
C1901 H1909 0.960 . S
C1902 C1900 1.381 . S
C1902 C1903 1.394 . S
C1902 H1910 0.930 . S
C1903 C1902 1.394 . S
C1903 C1904 1.383 . S
C1903 H1911 0.929 . S
C1904 C1903 1.383 . S
C1904 C1905 1.377 . S
C1905 H1889 0.930 . S
C1905 C1904 1.377 . S
C1905 C1906 1.379 . S
C1906 H1890 0.931 . S
C1906 C1900 1.383 . S
C1906 C1905 1.379 . S
H1907 C1901 0.959 . S
H1908 C1901 0.961 . S
H1909 C1901 0.960 . S
H1910 C1902 0.930 . S
H1911 C1903 0.929 . S
H1912 C1920 0.929 . S
H1913 C1922 0.930 . S
H1914 C1924 0.930 . S
H1915 C1927 0.929 . S
H1916 C1930 0.930 . S
H1917 C1932 0.960 . S
H1918 C1932 0.960 . S
H1919 C1932 0.960 . S
C1920 H1912 0.929 . S
C1920 C1921 1.377 . S
C1920 C1922 1.384 . S
C1921 C1920 1.377 . S
C1921 C1927 1.390 . S
C1922 H1913 0.930 . S
C1922 C1920 1.384 . S
C1922 C1923 1.372 . S
C1923 C1922 1.372 . S
C1923 C1924 1.400 . S
C1923 C1928 1.490 . S
C1924 H1914 0.930 . S
C1924 C1923 1.400 . S
C1924 C1927 1.386 . S
H1925 C1941 0.930 . S
H1926 C1942 0.931 . S
C1927 H1915 0.929 . S
C1927 C1921 1.390 . S
C1927 C1924 1.386 . S
C1928 C1923 1.490 . S
C1928 C1930 1.395 . S
C1928 C1931 1.403 . S
H1929 C1935 0.930 . S
C1930 H1916 0.930 . S
C1930 C1928 1.395 . S
C1930 C1933 1.403 . S
C1931 C1928 1.403 . S
C1931 C1932 1.524 . S
C1931 C1935 1.400 . S
C1932 H1917 0.960 . S
C1932 H1918 0.960 . S
C1932 H1919 0.960 . S
C1932 C1931 1.524 . S
C1933 C1930 1.403 . S
C1933 C1934 1.392 . S
C1933 C1937 1.495 . S
C1934 C1933 1.392 . S
C1934 C1935 1.385 . S
C1934 C1936 1.478 . S
C1935 H1929 0.930 . S
C1935 C1931 1.400 . S
C1935 C1934 1.385 . S
C1936 C1934 1.478 . S
C1936 C1938 1.381 . S
C1936 C1942 1.383 . S
C1937 C1933 1.495 . S
C1937 H1943 0.959 . S
C1937 H1944 0.961 . S
C1937 H1945 0.960 . S
C1938 C1936 1.381 . S
C1938 C1939 1.394 . S
C1938 H1946 0.930 . S
C1939 C1938 1.394 . S
C1939 C1940 1.383 . S
C1939 H1947 0.929 . S
C1940 C1939 1.383 . S
C1940 C1941 1.377 . S
C1941 H1925 0.930 . S
C1941 C1940 1.377 . S
C1941 C1942 1.379 . S
C1942 H1926 0.931 . S
C1942 C1936 1.383 . S
C1942 C1941 1.379 . S
H1943 C1937 0.959 . S
H1944 C1937 0.961 . S
H1945 C1937 0.960 . S
H1946 C1938 0.930 . S
H1947 C1939 0.929 . S
H1948 C1956 0.929 . S
H1949 C1958 0.930 . S
H1950 C1960 0.930 . S
H1951 C1963 0.929 . S
H1952 C1966 0.930 . S
H1953 C1968 0.960 . S
H1954 C1968 0.960 . S
H1955 C1968 0.960 . S
C1956 H1948 0.929 . S
C1956 C1957 1.377 . S
C1956 C1958 1.384 . S
C1957 C1956 1.377 . S
C1957 C1963 1.390 . S
C1958 H1949 0.930 . S
C1958 C1956 1.384 . S
C1958 C1959 1.372 . S
C1959 C1958 1.372 . S
C1959 C1960 1.400 . S
C1959 C1964 1.490 . S
C1960 H1950 0.930 . S
C1960 C1959 1.400 . S
C1960 C1963 1.386 . S
H1961 C1977 0.930 . S
H1962 C1978 0.931 . S
C1963 H1951 0.929 . S
C1963 C1957 1.390 . S
C1963 C1960 1.386 . S
C1964 C1959 1.490 . S
C1964 C1966 1.395 . S
C1964 C1967 1.403 . S
H1965 C1971 0.930 . S
C1966 H1952 0.930 . S
C1966 C1964 1.395 . S
C1966 C1969 1.403 . S
C1967 C1964 1.403 . S
C1967 C1968 1.524 . S
C1967 C1971 1.400 . S
C1968 H1953 0.960 . S
C1968 H1954 0.960 . S
C1968 H1955 0.960 . S
C1968 C1967 1.524 . S
C1969 C1966 1.403 . S
C1969 C1970 1.392 . S
C1969 C1973 1.495 . S
C1970 C1969 1.392 . S
C1970 C1971 1.385 . S
C1970 C1972 1.478 . S
C1971 H1965 0.930 . S
C1971 C1967 1.400 . S
C1971 C1970 1.385 . S
C1972 C1970 1.478 . S
C1972 C1974 1.381 . S
C1972 C1978 1.383 . S
C1973 C1969 1.495 . S
C1973 H1979 0.959 . S
C1973 H1980 0.961 . S
C1973 H1981 0.960 . S
C1974 C1972 1.381 . S
C1974 C1975 1.394 . S
C1974 H1982 0.930 . S
C1975 C1974 1.394 . S
C1975 C1976 1.383 . S
C1975 H1983 0.929 . S
C1976 C1975 1.383 . S
C1976 C1977 1.377 . S
C1977 H1961 0.930 . S
C1977 C1976 1.377 . S
C1977 C1978 1.379 . S
C1978 H1962 0.931 . S
C1978 C1972 1.383 . S
C1978 C1977 1.379 . S
H1979 C1973 0.959 . S
H1980 C1973 0.961 . S
H1981 C1973 0.960 . S
H1982 C1974 0.930 . S
H1983 C1975 0.929 . S
H1984 C1992 0.929 . S
H1985 C1994 0.930 . S
H1986 C1996 0.930 . S
H1987 C1999 0.929 . S
H1988 C2002 0.930 . S
H1989 C2004 0.960 . S
H1990 C2004 0.960 . S
H1991 C2004 0.960 . S
C1992 H1984 0.929 . S
C1992 C1993 1.377 . S
C1992 C1994 1.384 . S
C1993 C1992 1.377 . S
C1993 C1999 1.390 . S
C1994 H1985 0.930 . S
C1994 C1992 1.384 . S
C1994 C1995 1.372 . S
C1995 C1994 1.372 . S
C1995 C1996 1.400 . S
C1995 C2000 1.490 . S
C1996 H1986 0.930 . S
C1996 C1995 1.400 . S
C1996 C1999 1.386 . S
H1997 C2013 0.930 . S
H1998 C2014 0.931 . S
C1999 H1987 0.929 . S
C1999 C1993 1.390 . S
C1999 C1996 1.386 . S
C2000 C1995 1.490 . S
C2000 C2002 1.395 . S
C2000 C2003 1.403 . S
H2001 C2007 0.930 . S
C2002 H1988 0.930 . S
C2002 C2000 1.395 . S
C2002 C2005 1.403 . S
C2003 C2000 1.403 . S
C2003 C2004 1.524 . S
C2003 C2007 1.400 . S
C2004 H1989 0.960 . S
C2004 H1990 0.960 . S
C2004 H1991 0.960 . S
C2004 C2003 1.524 . S
C2005 C2002 1.403 . S
C2005 C2006 1.392 . S
C2005 C2009 1.495 . S
C2006 C2005 1.392 . S
C2006 C2007 1.385 . S
C2006 C2008 1.478 . S
C2007 H2001 0.930 . S
C2007 C2003 1.400 . S
C2007 C2006 1.385 . S
C2008 C2006 1.478 . S
C2008 C2010 1.381 . S
C2008 C2014 1.383 . S
C2009 C2005 1.495 . S
C2009 H2015 0.959 . S
C2009 H2016 0.961 . S
C2009 H2017 0.960 . S
C2010 C2008 1.381 . S
C2010 C2011 1.394 . S
C2010 H2018 0.930 . S
C2011 C2010 1.394 . S
C2011 C2012 1.383 . S
C2011 H2019 0.929 . S
C2012 C2011 1.383 . S
C2012 C2013 1.377 . S
C2013 H1997 0.930 . S
C2013 C2012 1.377 . S
C2013 C2014 1.379 . S
C2014 H1998 0.931 . S
C2014 C2008 1.383 . S
C2014 C2013 1.379 . S
H2015 C2009 0.959 . S
H2016 C2009 0.961 . S
H2017 C2009 0.960 . S
H2018 C2010 0.930 . S
H2019 C2011 0.929 . S
H2020 C2028 0.929 . S
H2021 C2030 0.930 . S
H2022 C2032 0.930 . S
H2023 C2035 0.929 . S
H2024 C2038 0.930 . S
H2025 C2040 0.960 . S
H2026 C2040 0.960 . S
H2027 C2040 0.960 . S
C2028 H2020 0.929 . S
C2028 C2029 1.377 . S
C2028 C2030 1.384 . S
C2029 C2028 1.377 . S
C2029 C2035 1.390 . S
C2030 H2021 0.930 . S
C2030 C2028 1.384 . S
C2030 C2031 1.372 . S
C2031 C2030 1.372 . S
C2031 C2032 1.400 . S
C2031 C2036 1.490 . S
C2032 H2022 0.930 . S
C2032 C2031 1.400 . S
C2032 C2035 1.386 . S
H2033 C2049 0.930 . S
H2034 C2050 0.931 . S
C2035 H2023 0.929 . S
C2035 C2029 1.390 . S
C2035 C2032 1.386 . S
C2036 C2031 1.490 . S
C2036 C2038 1.395 . S
C2036 C2039 1.403 . S
H2037 C2043 0.930 . S
C2038 H2024 0.930 . S
C2038 C2036 1.395 . S
C2038 C2041 1.403 . S
C2039 C2036 1.403 . S
C2039 C2040 1.524 . S
C2039 C2043 1.400 . S
C2040 H2025 0.960 . S
C2040 H2026 0.960 . S
C2040 H2027 0.960 . S
C2040 C2039 1.524 . S
C2041 C2038 1.403 . S
C2041 C2042 1.392 . S
C2041 C2045 1.495 . S
C2042 C2041 1.392 . S
C2042 C2043 1.385 . S
C2042 C2044 1.478 . S
C2043 H2037 0.930 . S
C2043 C2039 1.400 . S
C2043 C2042 1.385 . S
C2044 C2042 1.478 . S
C2044 C2046 1.381 . S
C2044 C2050 1.383 . S
C2045 C2041 1.495 . S
C2045 H2051 0.959 . S
C2045 H2052 0.961 . S
C2045 H2053 0.960 . S
C2046 C2044 1.381 . S
C2046 C2047 1.394 . S
C2046 H2054 0.930 . S
C2047 C2046 1.394 . S
C2047 C2048 1.383 . S
C2047 H2055 0.929 . S
C2048 C2047 1.383 . S
C2048 C2049 1.377 . S
C2049 H2033 0.930 . S
C2049 C2048 1.377 . S
C2049 C2050 1.379 . S
C2050 H2034 0.931 . S
C2050 C2044 1.383 . S
C2050 C2049 1.379 . S
H2051 C2045 0.959 . S
H2052 C2045 0.961 . S
H2053 C2045 0.960 . S
H2054 C2046 0.930 . S
H2055 C2047 0.929 . S
H2056 C2064 0.929 . S
H2057 C2066 0.930 . S
H2058 C2068 0.930 . S
H2059 C2071 0.929 . S
H2060 C2074 0.930 . S
H2061 C2076 0.960 . S
H2062 C2076 0.960 . S
H2063 C2076 0.960 . S
C2064 H2056 0.929 . S
C2064 C2065 1.377 . S
C2064 C2066 1.384 . S
C2065 C2064 1.377 . S
C2065 C2071 1.390 . S
C2066 H2057 0.930 . S
C2066 C2064 1.384 . S
C2066 C2067 1.372 . S
C2067 C2066 1.372 . S
C2067 C2068 1.400 . S
C2067 C2072 1.490 . S
C2068 H2058 0.930 . S
C2068 C2067 1.400 . S
C2068 C2071 1.386 . S
H2069 C2085 0.930 . S
H2070 C2086 0.931 . S
C2071 H2059 0.929 . S
C2071 C2065 1.390 . S
C2071 C2068 1.386 . S
C2072 C2067 1.490 . S
C2072 C2074 1.395 . S
C2072 C2075 1.403 . S
H2073 C2079 0.930 . S
C2074 H2060 0.930 . S
C2074 C2072 1.395 . S
C2074 C2077 1.403 . S
C2075 C2072 1.403 . S
C2075 C2076 1.524 . S
C2075 C2079 1.400 . S
C2076 H2061 0.960 . S
C2076 H2062 0.960 . S
C2076 H2063 0.960 . S
C2076 C2075 1.524 . S
C2077 C2074 1.403 . S
C2077 C2078 1.392 . S
C2077 C2081 1.495 . S
C2078 C2077 1.392 . S
C2078 C2079 1.385 . S
C2078 C2080 1.478 . S
C2079 H2073 0.930 . S
C2079 C2075 1.400 . S
C2079 C2078 1.385 . S
C2080 C2078 1.478 . S
C2080 C2082 1.381 . S
C2080 C2086 1.383 . S
C2081 C2077 1.495 . S
C2081 H2087 0.959 . S
C2081 H2088 0.961 . S
C2081 H2089 0.960 . S
C2082 C2080 1.381 . S
C2082 C2083 1.394 . S
C2082 H2090 0.930 . S
C2083 C2082 1.394 . S
C2083 C2084 1.383 . S
C2083 H2091 0.929 . S
C2084 C2083 1.383 . S
C2084 C2085 1.377 . S
C2085 H2069 0.930 . S
C2085 C2084 1.377 . S
C2085 C2086 1.379 . S
C2086 H2070 0.931 . S
C2086 C2080 1.383 . S
C2086 C2085 1.379 . S
H2087 C2081 0.959 . S
H2088 C2081 0.961 . S
H2089 C2081 0.960 . S
H2090 C2082 0.930 . S
H2091 C2083 0.929 . S
H2092 C2100 0.929 . S
H2093 C2102 0.930 . S
H2094 C2104 0.930 . S
H2095 C2107 0.929 . S
H2096 C2110 0.930 . S
H2097 C2112 0.960 . S
H2098 C2112 0.960 . S
H2099 C2112 0.960 . S
C2100 H2092 0.929 . S
C2100 C2101 1.377 . S
C2100 C2102 1.384 . S
C2101 C2100 1.377 . S
C2101 C2107 1.390 . S
C2102 H2093 0.930 . S
C2102 C2100 1.384 . S
C2102 C2103 1.372 . S
C2103 C2102 1.372 . S
C2103 C2104 1.400 . S
C2103 C2108 1.490 . S
C2104 H2094 0.930 . S
C2104 C2103 1.400 . S
C2104 C2107 1.386 . S
H2105 C2121 0.930 . S
H2106 C2122 0.931 . S
C2107 H2095 0.929 . S
C2107 C2101 1.390 . S
C2107 C2104 1.386 . S
C2108 C2103 1.490 . S
C2108 C2110 1.395 . S
C2108 C2111 1.403 . S
H2109 C2115 0.930 . S
C2110 H2096 0.930 . S
C2110 C2108 1.395 . S
C2110 C2113 1.403 . S
C2111 C2108 1.403 . S
C2111 C2112 1.524 . S
C2111 C2115 1.400 . S
C2112 H2097 0.960 . S
C2112 H2098 0.960 . S
C2112 H2099 0.960 . S
C2112 C2111 1.524 . S
C2113 C2110 1.403 . S
C2113 C2114 1.392 . S
C2113 C2117 1.495 . S
C2114 C2113 1.392 . S
C2114 C2115 1.385 . S
C2114 C2116 1.478 . S
C2115 H2109 0.930 . S
C2115 C2111 1.400 . S
C2115 C2114 1.385 . S
C2116 C2114 1.478 . S
C2116 C2118 1.381 . S
C2116 C2122 1.383 . S
C2117 C2113 1.495 . S
C2117 H2123 0.959 . S
C2117 H2124 0.961 . S
C2117 H2125 0.960 . S
C2118 C2116 1.381 . S
C2118 C2119 1.394 . S
C2118 H2126 0.930 . S
C2119 C2118 1.394 . S
C2119 C2120 1.383 . S
C2119 H2127 0.929 . S
C2120 C2119 1.383 . S
C2120 C2121 1.377 . S
C2121 H2105 0.930 . S
C2121 C2120 1.377 . S
C2121 C2122 1.379 . S
C2122 H2106 0.931 . S
C2122 C2116 1.383 . S
C2122 C2121 1.379 . S
H2123 C2117 0.959 . S
H2124 C2117 0.961 . S
H2125 C2117 0.960 . S
H2126 C2118 0.930 . S
H2127 C2119 0.929 . S
H2128 C2136 0.929 . S
H2129 C2138 0.930 . S
H2130 C2140 0.930 . S
H2131 C2143 0.929 . S
H2132 C2146 0.930 . S
H2133 C2148 0.960 . S
H2134 C2148 0.960 . S
H2135 C2148 0.960 . S
C2136 H2128 0.929 . S
C2136 C2137 1.377 . S
C2136 C2138 1.384 . S
C2137 C2136 1.377 . S
C2137 C2143 1.390 . S
C2138 H2129 0.930 . S
C2138 C2136 1.384 . S
C2138 C2139 1.372 . S
C2139 C2138 1.372 . S
C2139 C2140 1.400 . S
C2139 C2144 1.490 . S
C2140 H2130 0.930 . S
C2140 C2139 1.400 . S
C2140 C2143 1.386 . S
H2141 C2157 0.930 . S
H2142 C2158 0.931 . S
C2143 H2131 0.929 . S
C2143 C2137 1.390 . S
C2143 C2140 1.386 . S
C2144 C2139 1.490 . S
C2144 C2146 1.395 . S
C2144 C2147 1.403 . S
H2145 C2151 0.930 . S
C2146 H2132 0.930 . S
C2146 C2144 1.395 . S
C2146 C2149 1.403 . S
C2147 C2144 1.403 . S
C2147 C2148 1.524 . S
C2147 C2151 1.400 . S
C2148 H2133 0.960 . S
C2148 H2134 0.960 . S
C2148 H2135 0.960 . S
C2148 C2147 1.524 . S
C2149 C2146 1.403 . S
C2149 C2150 1.392 . S
C2149 C2153 1.495 . S
C2150 C2149 1.392 . S
C2150 C2151 1.385 . S
C2150 C2152 1.478 . S
C2151 H2145 0.930 . S
C2151 C2147 1.400 . S
C2151 C2150 1.385 . S
C2152 C2150 1.478 . S
C2152 C2154 1.381 . S
C2152 C2158 1.383 . S
C2153 C2149 1.495 . S
C2153 H2159 0.959 . S
C2153 H2160 0.961 . S
C2153 H2161 0.960 . S
C2154 C2152 1.381 . S
C2154 C2155 1.394 . S
C2154 H2162 0.930 . S
C2155 C2154 1.394 . S
C2155 C2156 1.383 . S
C2155 H2163 0.929 . S
C2156 C2155 1.383 . S
C2156 C2157 1.377 . S
C2157 H2141 0.930 . S
C2157 C2156 1.377 . S
C2157 C2158 1.379 . S
C2158 H2142 0.931 . S
C2158 C2152 1.383 . S
C2158 C2157 1.379 . S
H2159 C2153 0.959 . S
H2160 C2153 0.961 . S
H2161 C2153 0.960 . S
H2162 C2154 0.930 . S
H2163 C2155 0.929 . S
H2164 C2172 0.929 . S
H2165 C2174 0.930 . S
H2166 C2176 0.930 . S
H2167 C2179 0.929 . S
H2168 C2182 0.930 . S
H2169 C2184 0.960 . S
H2170 C2184 0.960 . S
H2171 C2184 0.960 . S
C2172 H2164 0.929 . S
C2172 C2173 1.377 . S
C2172 C2174 1.384 . S
C2173 C2172 1.377 . S
C2173 C2179 1.390 . S
C2174 H2165 0.930 . S
C2174 C2172 1.384 . S
C2174 C2175 1.372 . S
C2175 C2174 1.372 . S
C2175 C2176 1.400 . S
C2175 C2180 1.490 . S
C2176 H2166 0.930 . S
C2176 C2175 1.400 . S
C2176 C2179 1.386 . S
H2177 C2193 0.930 . S
H2178 C2194 0.931 . S
C2179 H2167 0.929 . S
C2179 C2173 1.390 . S
C2179 C2176 1.386 . S
C2180 C2175 1.490 . S
C2180 C2182 1.395 . S
C2180 C2183 1.403 . S
H2181 C2187 0.930 . S
C2182 H2168 0.930 . S
C2182 C2180 1.395 . S
C2182 C2185 1.403 . S
C2183 C2180 1.403 . S
C2183 C2184 1.524 . S
C2183 C2187 1.400 . S
C2184 H2169 0.960 . S
C2184 H2170 0.960 . S
C2184 H2171 0.960 . S
C2184 C2183 1.524 . S
C2185 C2182 1.403 . S
C2185 C2186 1.392 . S
C2185 C2189 1.495 . S
C2186 C2185 1.392 . S
C2186 C2187 1.385 . S
C2186 C2188 1.478 . S
C2187 H2181 0.930 . S
C2187 C2183 1.400 . S
C2187 C2186 1.385 . S
C2188 C2186 1.478 . S
C2188 C2190 1.381 . S
C2188 C2194 1.383 . S
C2189 C2185 1.495 . S
C2189 H2195 0.959 . S
C2189 H2196 0.961 . S
C2189 H2197 0.960 . S
C2190 C2188 1.381 . S
C2190 C2191 1.394 . S
C2190 H2198 0.930 . S
C2191 C2190 1.394 . S
C2191 C2192 1.383 . S
C2191 H2199 0.929 . S
C2192 C2191 1.383 . S
C2192 C2193 1.377 . S
C2193 H2177 0.930 . S
C2193 C2192 1.377 . S
C2193 C2194 1.379 . S
C2194 H2178 0.931 . S
C2194 C2188 1.383 . S
C2194 C2193 1.379 . S
H2195 C2189 0.959 . S
H2196 C2189 0.961 . S
H2197 C2189 0.960 . S
H2198 C2190 0.930 . S
H2199 C2191 0.929 . S
H2200 C2208 0.929 . S
H2201 C2210 0.930 . S
H2202 C2212 0.930 . S
H2203 C2215 0.929 . S
H2204 C2218 0.930 . S
H2205 C2220 0.960 . S
H2206 C2220 0.960 . S
H2207 C2220 0.960 . S
C2208 H2200 0.929 . S
C2208 C2209 1.377 . S
C2208 C2210 1.384 . S
C2209 C2208 1.377 . S
C2209 C2215 1.390 . S
C2210 H2201 0.930 . S
C2210 C2208 1.384 . S
C2210 C2211 1.372 . S
C2211 C2210 1.372 . S
C2211 C2212 1.400 . S
C2211 C2216 1.490 . S
C2212 H2202 0.930 . S
C2212 C2211 1.400 . S
C2212 C2215 1.386 . S
H2213 C2229 0.930 . S
H2214 C2230 0.931 . S
C2215 H2203 0.929 . S
C2215 C2209 1.390 . S
C2215 C2212 1.386 . S
C2216 C2211 1.490 . S
C2216 C2218 1.395 . S
C2216 C2219 1.403 . S
H2217 C2223 0.930 . S
C2218 H2204 0.930 . S
C2218 C2216 1.395 . S
C2218 C2221 1.403 . S
C2219 C2216 1.403 . S
C2219 C2220 1.524 . S
C2219 C2223 1.400 . S
C2220 H2205 0.960 . S
C2220 H2206 0.960 . S
C2220 H2207 0.960 . S
C2220 C2219 1.524 . S
C2221 C2218 1.403 . S
C2221 C2222 1.392 . S
C2221 C2225 1.495 . S
C2222 C2221 1.392 . S
C2222 C2223 1.385 . S
C2222 C2224 1.478 . S
C2223 H2217 0.930 . S
C2223 C2219 1.400 . S
C2223 C2222 1.385 . S
C2224 C2222 1.478 . S
C2224 C2226 1.381 . S
C2224 C2230 1.383 . S
C2225 C2221 1.495 . S
C2225 H2231 0.959 . S
C2225 H2232 0.961 . S
C2225 H2233 0.960 . S
C2226 C2224 1.381 . S
C2226 C2227 1.394 . S
C2226 H2234 0.930 . S
C2227 C2226 1.394 . S
C2227 C2228 1.383 . S
C2227 H2235 0.929 . S
C2228 C2227 1.383 . S
C2228 C2229 1.377 . S
C2229 H2213 0.930 . S
C2229 C2228 1.377 . S
C2229 C2230 1.379 . S
C2230 H2214 0.931 . S
C2230 C2224 1.383 . S
C2230 C2229 1.379 . S
H2231 C2225 0.959 . S
H2232 C2225 0.961 . S
H2233 C2225 0.960 . S
H2234 C2226 0.930 . S
H2235 C2227 0.929 . S
H2236 C2244 0.929 . S
H2237 C2246 0.930 . S
H2238 C2248 0.930 . S
H2239 C2251 0.929 . S
H2240 C2254 0.930 . S
H2241 C2256 0.960 . S
H2242 C2256 0.960 . S
H2243 C2256 0.960 . S
C2244 H2236 0.929 . S
C2244 C2245 1.377 . S
C2244 C2246 1.384 . S
C2245 C2244 1.377 . S
C2245 C2251 1.390 . S
C2246 H2237 0.930 . S
C2246 C2244 1.384 . S
C2246 C2247 1.372 . S
C2247 C2246 1.372 . S
C2247 C2248 1.400 . S
C2247 C2252 1.490 . S
C2248 H2238 0.930 . S
C2248 C2247 1.400 . S
C2248 C2251 1.386 . S
H2249 C2265 0.930 . S
H2250 C2266 0.931 . S
C2251 H2239 0.929 . S
C2251 C2245 1.390 . S
C2251 C2248 1.386 . S
C2252 C2247 1.490 . S
C2252 C2254 1.395 . S
C2252 C2255 1.403 . S
H2253 C2259 0.930 . S
C2254 H2240 0.930 . S
C2254 C2252 1.395 . S
C2254 C2257 1.403 . S
C2255 C2252 1.403 . S
C2255 C2256 1.524 . S
C2255 C2259 1.400 . S
C2256 H2241 0.960 . S
C2256 H2242 0.960 . S
C2256 H2243 0.960 . S
C2256 C2255 1.524 . S
C2257 C2254 1.403 . S
C2257 C2258 1.392 . S
C2257 C2261 1.495 . S
C2258 C2257 1.392 . S
C2258 C2259 1.385 . S
C2258 C2260 1.478 . S
C2259 H2253 0.930 . S
C2259 C2255 1.400 . S
C2259 C2258 1.385 . S
C2260 C2258 1.478 . S
C2260 C2262 1.381 . S
C2260 C2266 1.383 . S
C2261 C2257 1.495 . S
C2261 H2267 0.959 . S
C2261 H2268 0.961 . S
C2261 H2269 0.960 . S
C2262 C2260 1.381 . S
C2262 C2263 1.394 . S
C2262 H2270 0.930 . S
C2263 C2262 1.394 . S
C2263 C2264 1.383 . S
C2263 H2271 0.929 . S
C2264 C2263 1.383 . S
C2264 C2265 1.377 . S
C2265 H2249 0.930 . S
C2265 C2264 1.377 . S
C2265 C2266 1.379 . S
C2266 H2250 0.931 . S
C2266 C2260 1.383 . S
C2266 C2265 1.379 . S
H2267 C2261 0.959 . S
H2268 C2261 0.961 . S
H2269 C2261 0.960 . S
H2270 C2262 0.930 . S
H2271 C2263 0.929 . S
C553 C110 0.429 . S
C572 C13 0.399 . S
C589 C17 1.382 . S
C608 C34 1.359 . S
C625 C81 0.660 . S
C644 C47 0.627 . S
C661 C131 1.421 . S
C680 C85 1.428 . S
C697 C165 1.462 . S
C716 C199 1.463 . S
C733 C174 0.657 . S
C752 C217 0.625 . S
C769 C204 1.348 . S
C788 C267 1.359 . S
C805 C144 0.445 . S
C824 C242 0.478 . S
C841 C314 1.362 . S
C860 C0 1.355 . S
C877 C357 2.279 . S
C896 C51 2.279 . S
C913 C68 1.375 . S
C932 C442 1.375 . S
C949 C276 0.728 . S
C968 C106 0.741 . S
C985 C378 0.717 . S
C1004 C140 0.685 . S
C1021 C476 1.339 . S
C1040 C178 1.342 . S
C1057 C221 2.244 . S
C1076 C425 2.233 . S
C1093 C510 1.359 . S
C1112 C246 1.370 . S
C1129 C280 0.411 . S
C1148 C455 0.445 . S
C1165 C335 1.371 . S
C1184 C301 1.369 . S
C1201 C353 0.659 . S
C1220 C310 0.642 . S
C1237 C489 0.427 . S
C1256 C382 0.402 . S
C1273 C421 0.657 . S
C1292 C523 0.637 . S
C1309 C391 0.421 . S
C1328 C4 0.449 . S
C1345 C437 1.402 . S
C1364 C8 1.408 . S
C1381 C412 0.669 . S
C1400 C72 0.638 . S
C1417 C76 1.376 . S
C1436 C374 1.386 . S
C1453 C306 1.371 . S
C1472 C136 1.377 . S
C1489 C319 0.663 . S
C1508 C208 0.701 . S
C1525 C450 1.373 . S
C1544 C233 1.375 . S
C1561 C153 0.414 . S
C1580 C446 0.427 . S
C1597 C187 1.335 . S
C1616 C29 1.334 . S
C1633 C348 2.247 . S
C1652 C416 2.248 . S
C1669 C97 1.360 . S
C1688 C255 1.370 . S
C1705 C285 0.719 . S
C1724 C387 0.761 . S
C1741 C115 0.713 . S
C1760 C149 0.715 . S
C1777 C323 1.361 . S
C1796 C505 1.368 . S
C1813 C212 2.280 . S
C1832 C42 2.266 . S
C1849 C539 1.370 . S
C1868 C471 1.382 . S
C1885 C289 0.436 . S
C1904 C251 0.478 . S
C1921 C272 1.458 . S
C1940 C170 1.470 . S
C1957 C344 0.656 . S
C1976 C183 0.702 . S
C1993 C119 0.422 . S
C2012 C480 0.460 . S
C2029 C38 0.663 . S
C2048 C514 0.687 . S
C2065 C408 1.402 . S
C2084 C493 1.404 . S
C2101 C403 1.373 . S
C2120 C527 1.371 . S
C2137 C340 1.367 . S
C2156 C459 1.378 . S
C2173 C484 1.382 . S
C2192 C63 1.359 . S
C2209 C102 1.423 . S
C2228 C518 1.427 . S
C2245 C238 1.358 . S
C2264 C369 1.333 . S
