# Generated by pormake.
# Topology rkf, (6)-cn, num edge types: 1
# Building blocks:
#     Node 0, Type 0, BuildingBlock: NUHQIS_clean_sbu_0, # of connection points: 6
#     Node 1, Type 0, BuildingBlock: NUHQIS_clean_sbu_0, # of connection points: 6
#     Node 2, Type 0, BuildingBlock: NUHQIS_clean_sbu_0, # of connection points: 6
#     Node 3, Type 0, BuildingBlock: NUHQIS_clean_sbu_0, # of connection points: 6
#     Node 4, Type 0, BuildingBlock: NUHQIS_clean_sbu_0, # of connection points: 6
#     Node 5, Type 0, BuildingBlock: NUHQIS_clean_sbu_0, # of connection points: 6
#     Edge 6, Type (0, 0), BuildingBlock: AJUNOK_clean_linker_0, # of connection points: 2
#     Edge 7, Type (0, 0), BuildingBlock: AJUNOK_clean_linker_0, # of connection points: 2
#     Edge 8, Type (0, 0), BuildingBlock: AJUNOK_clean_linker_0, # of connection points: 2
#     Edge 9, Type (0, 0), BuildingBlock: AJUNOK_clean_linker_0, # of connection points: 2
#     Edge 10, Type (0, 0), BuildingBlock: AJUNOK_clean_linker_0, # of connection points: 2
#     Edge 11, Type (0, 0), BuildingBlock: AJUNOK_clean_linker_0, # of connection points: 2
#     Edge 12, Type (0, 0), BuildingBlock: AJUNOK_clean_linker_0, # of connection points: 2
#     Edge 13, Type (0, 0), BuildingBlock: AJUNOK_clean_linker_0, # of connection points: 2
#     Edge 14, Type (0, 0), BuildingBlock: AJUNOK_clean_linker_0, # of connection points: 2
#     Edge 15, Type (0, 0), BuildingBlock: AJUNOK_clean_linker_0, # of connection points: 2
#     Edge 16, Type (0, 0), BuildingBlock: AJUNOK_clean_linker_0, # of connection points: 2
#     Edge 17, Type (0, 0), BuildingBlock: AJUNOK_clean_linker_0, # of connection points: 2
#     Edge 18, Type (0, 0), BuildingBlock: AJUNOK_clean_linker_0, # of connection points: 2
#     Edge 19, Type (0, 0), BuildingBlock: AJUNOK_clean_linker_0, # of connection points: 2
#     Edge 20, Type (0, 0), BuildingBlock: AJUNOK_clean_linker_0, # of connection points: 2
#     Edge 21, Type (0, 0), BuildingBlock: AJUNOK_clean_linker_0, # of connection points: 2
#     Edge 22, Type (0, 0), BuildingBlock: AJUNOK_clean_linker_0, # of connection points: 2
#     Edge 23, Type (0, 0), BuildingBlock: AJUNOK_clean_linker_0, # of connection points: 2
# Relax obj value: 1.011
# Max RMSD: 0.253
# Mean RMSD: 0.253
data_MOF--net-rkf--node1-NUHQIS_clean_sbu_0--edge1-AJUNOK_clean_linker_0
_symmetry_space_group_name_H-M    P1
_symmetry_Int_Tables_number       1
_symmetry_cell_setting            triclinic
loop_
_symmetry_equiv_pos_as_xyz
'x, y, z'
_cell_length_a     19.658808
_cell_length_b     19.454848
_cell_length_c     32.212926
_cell_angle_alpha  90.821268
_cell_angle_beta   89.899822
_cell_angle_gamma 121.07404
loop_
_atom_site_label
_atom_site_type_symbol
_atom_site_fract_x
_atom_site_fract_y
_atom_site_fract_z
_atom_type_partial_charge
Tb0 Tb 0.22871 0.04602 0.26554 0.0
Eu1 Eu 0.4026 0.19124 0.24733 0.0
C2 C 0.26055 0.21395 1.23225 0.0
C3 C 0.2784 0.07887 1.17129 0.0
C4 C 0.02981 0.85197 0.28999 0.0
C5 C 0.89323 0.758 0.30792 0.0
C6 C 0.95077 0.8321 0.29276 0.0
C7 C 0.05043 0.79528 0.30032 0.0
C8 C -0.00755 0.72058 0.31561 0.0
C9 C 0.9135 0.70204 0.32062 0.0
C10 C 0.08754 0.93158 0.2748 0.0
O11 O 0.30658 -0.00304 0.25664 0.0
O12 O 0.40541 0.10249 0.28951 0.0
O13 O 0.36316 0.22885 0.30608 0.0
O14 O 0.27461 0.10255 0.32844 0.0
C15 C 0.37545 0.02973 0.27534 0.0
O16 O 0.52093 0.22376 1.22608 0.0
O17 O 0.50308 0.31147 0.25862 0.0
O18 O 0.3305 0.23523 1.2175 0.0
O19 O 0.22064 0.15189 0.25652 0.0
O20 O 0.22173 0.06006 1.19851 0.0
O21 O 0.35387 0.12055 1.18418 0.0
C22 C 0.3184 0.1813 0.33597 0.0
O23 O 0.12431 -0.00943 0.30145 0.0
O24 O 0.13333 0.93572 0.24465 0.0
C25 C 0.60397 0.35938 1.2081 0.0
C26 C 0.67479 0.4521 1.13751 0.0
C27 C 0.69498 0.396 1.15043 0.0
C28 C 0.65977 0.34997 1.18555 0.0
C29 C 0.59202 0.42244 1.19857 0.0
C30 C 0.62694 0.46823 1.16362 0.0
C31 C 0.55305 0.29859 0.2383 0.0
H32 H 0.83368 0.74659 0.31167 0.0
H33 H 0.9337 0.87481 0.28408 0.0
H34 H 0.11125 0.80947 0.29757 0.0
H35 H 0.00991 0.67871 0.32521 0.0
H36 H 0.73223 0.38245 1.13149 0.0
H37 H 0.6715 0.30295 1.19319 0.0
H38 H 0.55069 0.43249 1.21602 0.0
H39 H 0.60856 0.50978 1.15496 0.0
Tb40 Tb 0.37746 0.3719 0.59841 0.0
Eu41 Eu 0.25377 0.41672 0.56401 0.0
C42 C 0.21112 0.2324 0.57329 0.0
C43 C 0.32448 0.34204 0.49851 0.0
C44 C 0.566 0.38865 0.63783 0.0
C45 C 0.62866 0.35336 0.69059 0.0
C46 C 0.57632 0.33122 0.65743 0.0
C47 C 0.61764 0.47042 0.64727 0.0
C48 C 0.67183 0.49305 0.68017 0.0
C49 C 0.67212 0.43394 0.70477 0.0
C50 C 0.49712 0.35979 0.61037 0.0
O51 O 0.4204 0.49454 0.61833 0.0
O52 O 0.37545 0.5288 0.56308 0.0
O53 O 0.22247 0.38988 0.6331 0.0
O54 O 0.31982 0.36935 0.65848 0.0
C55 C 0.4245 0.5499 0.5945 0.0
O56 O 0.18427 0.43763 0.51885 0.0
O57 O 0.18842 0.47491 0.58286 0.0
O58 O 0.19083 0.28179 0.55786 0.0
O59 O 0.27331 0.25586 0.59695 0.0
O60 O 0.36255 0.33656 0.53101 0.0
O61 O 0.28276 0.37734 0.50255 0.0
C62 C 0.25699 0.37694 0.66474 0.0
O63 O 0.42794 0.31314 0.62743 0.0
O64 O 0.49636 0.41149 0.58516 0.0
C65 C 0.07472 0.4447 0.54369 0.0
C66 C 0.92108 0.40806 0.5226 0.0
C67 C -0.02166 0.48596 0.53593 0.0
C68 C 0.05474 0.50409 0.54644 0.0
C69 C 0.01567 0.36517 0.53443 0.0
C70 C 0.93904 0.34686 0.52408 0.0
C71 C 0.15869 0.4691 0.54607 0.0
H72 H 0.62718 0.30516 0.7077 0.0
H73 H 0.53879 0.26804 0.64948 0.0
H74 H 0.61296 0.51625 0.63109 0.0
H75 H 0.70814 0.55605 0.68844 0.0
H76 H -0.03404 0.5341 0.53472 0.0
H77 H 0.09968 0.56571 0.5539 0.0
H78 H 0.03003 0.31841 0.53256 0.0
H79 H 0.89637 0.28656 0.51331 0.0
Tb80 Tb 0.17345 0.37519 0.93689 0.0
Eu81 Eu 0.03528 0.40263 0.91201 0.0
C82 C 0.00305 0.23052 0.90387 0.0
C83 C 0.13588 0.37633 0.83768 0.0
C84 C 0.37349 0.40063 0.96923 0.0
C85 C 0.45766 0.37962 1.01537 0.0
C86 C 0.38286 0.3551 0.99938 0.0
C87 C 0.44077 0.47169 0.9553 0.0
C88 C 0.51622 0.49645 0.97145 0.0
C89 C 0.52518 0.44987 1.00125 0.0
C90 C 0.29567 0.36648 0.94869 0.0
O91 O 0.20418 0.49751 0.95501 0.0
O92 O 0.15665 0.49966 0.89393 0.0
O93 O 0.01091 0.36093 0.98087 0.0
O94 O 0.09624 0.31552 0.99031 0.0
C95 C 0.20446 0.54013 0.92404 0.0
O96 O 0.01729 0.50079 0.92972 0.0
O97 O 0.93258 0.4044 0.88878 0.0
O98 O -0.03337 0.27066 0.90577 0.0
O99 O 0.07983 0.2622 0.91069 0.0
O100 O 0.17951 0.37475 0.86838 0.0
O101 O 0.07384 0.38441 0.84614 0.0
C102 C 0.03488 0.32011 1.00298 0.0
O103 O 0.2317 0.32887 0.97114 0.0
O104 O 0.28876 0.40833 0.91967 0.0
C105 C -0.03558 0.53428 0.87341 0.0
C106 C 0.94794 0.55655 0.79033 0.0
C107 C 0.88895 0.54737 0.81836 0.0
C108 C 0.89598 0.53304 0.86012 0.0
C109 C 0.03166 0.56883 0.84788 0.0
C110 C 0.02382 0.58205 0.80621 0.0
C111 C 0.957 0.47622 0.90426 0.0
H112 H 0.46264 0.34346 1.03909 0.0
H113 H 0.33243 0.29941 1.01004 0.0
H114 H 0.43548 0.50723 0.93137 0.0
H115 H 0.56737 0.55097 0.96033 0.0
H116 H 0.83155 0.53346 0.80693 0.0
H117 H 0.84405 0.50888 0.87976 0.0
H118 H 0.08578 0.5722 0.85783 0.0
H119 H 0.07172 0.59335 0.78535 0.0
Tb120 Tb 0.81504 0.15229 0.25501 0.0
Eu121 Eu 0.79168 -0.00966 1.21978 0.0
C122 C -0.03187 0.15254 1.23367 0.0
C123 C 0.8615 0.14073 1.15739 0.0
C124 C 0.73968 0.26389 0.30938 0.0
C125 C 0.71504 0.34967 0.35374 0.0
C126 C 0.73185 0.33098 0.31446 0.0
C127 C 0.71745 0.20874 0.34152 0.0
C128 C 0.70212 0.22805 0.38078 0.0
C129 C 0.70995 0.30325 0.38813 0.0
C130 C 0.78461 0.2587 0.2746 0.0
O131 O 0.70571 0.04771 0.27474 0.0
O132 O 0.67417 -0.01346 1.2136 0.0
O133 O 0.80094 0.98142 0.29038 0.0
O134 O 0.83811 0.10778 0.31414 0.0
C135 C 0.65073 0.0046 0.24773 0.0
O136 O 0.77266 0.90037 1.1724 0.0
O137 O 0.76402 0.87094 1.23743 0.0
O138 O 0.92495 0.07499 1.22451 0.0
O139 O 0.93817 0.19509 0.24697 0.0
O140 O 0.83944 0.17478 1.18637 0.0
O141 O 0.85137 0.06938 1.16407 0.0
C142 C 0.82314 0.03391 0.3214 0.0
O143 O 0.85019 0.26134 0.28538 0.0
O144 O 0.74294 0.2016 0.24739 0.0
C145 C 0.81521 0.8114 1.19358 0.0
C146 C 0.90128 0.73354 1.17972 0.0
C147 C 0.83881 0.70315 1.20847 0.0
C148 C 0.79594 0.74147 1.21512 0.0
C149 C 0.88028 0.84459 1.16669 0.0
C150 C 0.92232 0.80577 1.15956 0.0
C151 C 0.76668 0.84842 1.19959 0.0
H152 H 0.71902 0.4068 0.35835 0.0
H153 H 0.74684 0.37306 0.28946 0.0
H154 H 0.72189 0.1558 0.33771 0.0
H155 H 0.69747 0.19001 0.40616 0.0
H156 H 0.82105 0.64803 1.22463 0.0
H157 H 0.74658 0.7155 1.23654 0.0
H158 H 0.89705 0.899 1.15 0.0
H159 H -0.03207 0.83011 1.13605 0.0
Tb160 Tb 0.87799 -0.00919 0.59211 0.0
Eu161 Eu 0.83141 0.81177 0.57183 0.0
C162 C -0.00219 0.94734 0.54922 0.0
C163 C 0.84036 0.92983 0.49549 0.0
C164 C 0.90312 0.19548 0.62427 0.0
C165 C -0.02867 0.33417 0.64846 0.0
C166 C -0.02706 0.27082 0.62862 0.0
C167 C 0.83089 0.18524 0.63836 0.0
C168 C 0.82934 0.24853 0.65823 0.0
C169 C 0.8999 0.3227 0.66442 0.0
C170 C 0.90607 0.13203 0.6007 0.0
O171 O 0.7624 0.90455 0.61941 0.0
O172 O 0.73457 0.83657 0.56046 0.0
O173 O 0.86978 0.83466 0.64187 0.0
O174 O 0.93893 0.97189 0.64468 0.0
C175 C 0.70832 0.85399 0.5932 0.0
O176 O 0.73255 0.6908 0.58445 0.0
O177 O 0.83618 0.70789 0.55102 0.0
O178 O -0.03859 0.8749 0.56363 0.0
O179 O -0.03209 -0.00585 0.55191 0.0
O180 O 0.84882 0.98128 0.5252 0.0
O181 O 0.83673 0.86144 0.50528 0.0
C182 C 0.92151 0.90288 0.6613 0.0
O183 O 0.95612 0.11052 0.612 0.0
O184 O 0.83918 0.07178 0.58669 0.0
C185 C 0.71444 0.60001 0.53014 0.0
C186 C 0.70134 0.53917 0.44999 0.0
C187 C 0.67904 0.59605 0.45795 0.0
C188 C 0.68657 0.62728 0.49806 0.0
C189 C 0.71837 0.53084 0.52385 0.0
C190 C 0.71075 0.49967 0.48371 0.0
C191 C 0.76377 0.65665 0.56287 0.0
H192 H 0.02633 0.3909 0.65301 0.0
H193 H 0.02889 0.28057 0.61683 0.0
H194 H 0.77582 0.12831 0.63445 0.0
H195 H 0.77359 0.2387 0.67036 0.0
H196 H 0.67037 0.62684 0.43261 0.0
H197 H 0.68247 0.68035 0.50254 0.0
H198 H 0.73886 0.50841 0.54849 0.0
H199 H 0.72633 0.45459 0.47847 0.0
Tb200 Tb 0.05831 0.84218 0.92209 0.0
Eu201 Eu 0.22004 -0.00835 0.89464 0.0
C202 C 0.05537 -0.00443 0.90336 0.0
C203 C 0.08132 0.90904 0.82455 0.0
C204 C 0.94092 0.64618 0.96921 0.0
C205 C 0.87497 0.58715 1.03341 0.0
C206 C 0.87263 0.61206 0.99349 0.0
C207 C 0.00691 0.64205 0.98246 0.0
C208 C 0.00844 0.6153 1.02234 0.0
C209 C 0.94544 0.59543 1.04965 0.0
C210 C 0.94865 0.70145 0.93646 0.0
O211 O 0.1569 0.83044 0.94288 0.0
O212 O 0.22772 0.88051 0.88555 0.0
O213 O 0.22754 -0.00963 0.96531 0.0
O214 O 0.09892 0.90609 0.984 0.0
C215 C 0.2089 0.83308 0.91711 0.0
O216 O 0.33295 0.05111 0.86123 0.0
O217 O 0.31563 0.10885 0.91561 0.0
O218 O 0.13118 0.03265 0.89306 0.0
O219 O 0.01617 0.92318 0.91821 0.0
O220 O 0.04283 0.85186 0.85275 0.0
O221 O 0.15199 0.97167 0.83399 0.0
C222 C 0.1733 0.96105 0.99447 0.0
O223 O 0.9488 0.76529 0.94995 0.0
O224 O 0.00394 0.71889 0.90889 0.0
C225 C 0.4329 0.18769 0.8769 0.0
C226 C 0.56712 0.33129 0.85207 0.0
C227 C 0.57439 0.28417 0.88221 0.0
C228 C 0.50741 0.21287 0.8947 0.0
C229 C 0.42446 0.23622 0.84856 0.0
C230 C 0.49111 0.30771 0.83621 0.0
C231 C 0.36544 0.1102 0.88844 0.0
H232 H 0.82494 0.57187 1.05308 0.0
H233 H 0.82076 0.61371 0.98368 0.0
H234 H 0.05981 0.66604 0.96366 0.0
H235 H 0.0617 0.61798 1.03318 0.0
H236 H 0.63223 0.30035 0.89438 0.0
H237 H 0.51422 0.17585 0.91716 0.0
H238 H 0.36702 0.21699 0.83489 0.0
H239 H 0.48388 0.34145 0.81195 0.0
C240 C 0.08121 0.17398 1.1903 0.0
C241 C 0.05334 0.19489 1.22556 0.0
C242 C 0.16222 0.2034 1.18548 0.0
C243 C 0.21558 0.24878 1.21754 0.0
H244 H 0.03997 0.1306 1.16784 0.0
H245 H 0.1803 0.17778 1.16082 0.0
S246 S 0.17554 0.3394 0.3088 0.0
N247 N 0.08762 0.28143 0.28681 0.0
N248 N 0.23987 0.33192 0.27889 0.0
C249 C 0.1906 0.28201 0.24848 0.0
C250 C 0.10849 0.25408 0.25297 0.0
C251 C 0.13026 0.00999 0.57178 0.0
C252 C 0.08044 -0.01324 0.53689 0.0
C253 C 0.1725 0.09086 0.58385 0.0
C254 C 0.17129 0.14903 0.55881 0.0
H255 H 0.12248 0.96577 0.59439 0.0
H256 H 0.20161 0.10694 0.61395 0.0
S257 S 0.09272 0.11601 0.45114 0.0
N258 N 0.06461 0.02543 0.4681 0.0
N259 N 0.14338 0.17877 0.4897 0.0
C260 C 0.1398 0.12652 0.51841 0.0
C261 C 0.09901 0.04429 0.50638 0.0
C262 C -0.03401 0.04073 0.92914 0.0
C263 C 0.01144 0.03603 0.8968 0.0
C264 C 0.93977 0.0951 0.92696 0.0
C265 C -0.03952 0.14612 0.89287 0.0
H266 H -0.04189 0.009 0.9578 0.0
H267 H 0.91662 0.10726 0.95488 0.0
S268 S 0.04989 0.13317 0.79452 0.0
N269 N 0.05559 0.06932 0.82548 0.0
N270 N 0.00359 0.16969 0.82133 0.0
C271 C -0.01109 0.12808 0.85706 0.0
C272 C 0.01788 0.07503 0.85952 0.0
C273 C 0.66152 0.41575 1.06272 0.0
C274 C 0.68312 0.47609 1.09335 0.0
C275 C 0.62203 0.41541 1.02668 0.0
C276 C 0.60245 0.47461 1.02087 0.0
H277 H 0.66309 0.36211 1.06907 0.0
H278 H 0.59558 0.36214 1.00692 0.0
S279 S 0.68487 0.6658 1.08033 0.0
N280 N 0.71375 0.61272 1.10648 0.0
N281 N 0.63399 0.60943 1.03987 0.0
C282 C 0.64076 0.54425 1.04586 0.0
C283 C 0.68287 0.54558 1.08206 0.0
C284 C 0.87261 0.44184 0.46032 0.0
C285 C 0.85417 0.39571 0.49624 0.0
C286 C 0.81993 0.41601 0.42686 0.0
C287 C 0.74574 0.34405 0.42832 0.0
H288 H 0.93162 0.49349 0.45602 0.0
H289 H 0.84174 0.44848 0.39817 0.0
S290 S 0.6615 0.2134 0.51981 0.0
N291 N 0.75231 0.28276 0.53458 0.0
N292 N 0.65048 0.23593 0.47197 0.0
C293 C 0.72239 0.30334 0.46625 0.0
C294 C 0.77728 0.32873 0.50016 0.0
C295 C 0.94495 0.52008 0.71471 0.0
C296 C 0.92273 0.49705 0.75601 0.0
C297 C 0.93449 0.46287 0.68415 0.0
C298 C 0.90178 0.3816 0.69435 0.0
H299 H -0.02686 0.58267 0.70645 0.0
H300 H 0.95407 0.48243 0.65276 0.0
S301 S 0.84016 0.29247 0.7985 0.0
N302 N 0.87006 0.38809 0.80548 0.0
N303 N 0.85077 0.28199 0.74847 0.0
C304 C 0.87928 0.35828 0.73538 0.0
C305 C 0.88998 0.41576 0.76615 0.0
C306 C 0.87863 0.60136 1.15456 0.0
C307 C 0.93267 0.68293 1.16383 0.0
C308 C 0.8924 0.56309 1.12127 0.0
C309 C -0.04165 0.60663 1.09543 0.0
H310 H 0.82084 0.57025 1.1689 0.0
H311 H 0.84484 0.50456 1.1112 0.0
S312 S 0.137 0.80306 1.12301 0.0
N313 N 0.07008 0.79126 1.15777 0.0
N314 N 0.09348 0.72196 1.09293 0.0
C315 C 0.02134 0.6799 1.11131 0.0
C316 C 0.00851 0.71787 1.14609 0.0
C317 C 0.83131 0.58598 0.41786 0.0
C318 C 0.74892 0.5513 0.4123 0.0
C319 C 0.8843 0.62626 0.38582 0.0
C320 C 0.85707 0.63453 0.34702 0.0
H321 H 0.85593 0.58905 0.44839 0.0
H322 H 0.94716 0.65845 0.39318 0.0
S323 S 0.64631 0.53838 0.3137 0.0
N324 N 0.64175 0.51625 0.36337 0.0
N325 N 0.74176 0.59094 0.30223 0.0
C326 C 0.77448 0.59193 0.3395 0.0
C327 C 0.72029 0.5511 0.37244 0.0
C328 C 0.6833 0.36654 0.80854 0.0
C329 C 0.63752 0.39238 0.82946 0.0
C330 C 0.71287 0.39532 0.76904 0.0
C331 C 0.6959 0.44908 0.74943 0.0
H332 H 0.68484 0.31478 0.81918 0.0
H333 H 0.73568 0.36429 0.75108 0.0
S334 S 0.61597 0.56382 0.80191 0.0
N335 N 0.60548 0.49664 0.83608 0.0
N336 N 0.65953 0.55035 0.76138 0.0
C337 C 0.66911 0.49001 0.77484 0.0
C338 C 0.63982 0.46119 0.81526 0.0
C339 C 0.45049 -0.01309 1.22909 0.0
C340 C 0.43052 -0.00031 0.26938 0.0
C341 C 0.51878 0.98185 1.22205 0.0
C342 C 0.56899 -0.01086 0.25514 0.0
H343 H 0.41683 -0.0128 1.20256 0.0
H344 H 0.53523 0.97797 1.19038 0.0
S345 S 0.53433 0.00938 0.36701 0.0
N346 N 0.46114 0.01081 0.34281 0.0
N347 N 0.58656 -0.00201 0.33028 0.0
C348 C 0.54508 -0.00532 0.29581 0.0
C349 C 0.47675 0.00101 0.30274 0.0
C350 C 0.49891 0.69402 0.57313 0.0
C351 C 0.48852 0.63522 0.60159 0.0
C352 C 0.56684 0.77116 0.57452 0.0
C353 C 0.6266 0.79293 0.60464 0.0
H354 H 0.45713 0.67899 0.54781 0.0
H355 H 0.57612 0.81175 0.54952 0.0
S356 S 0.62308 0.66635 0.69028 0.0
N357 N 0.53973 0.60818 0.66434 0.0
N358 N 0.66732 0.75317 0.66628 0.0
C359 C 0.61346 0.7378 0.63574 0.0
C360 C 0.54451 0.65883 0.6343 0.0
C361 C 0.2442 0.66626 0.88727 0.0
C362 C 0.23464 0.62745 0.92541 0.0
C363 C 0.24345 0.73773 0.88499 0.0
C364 C 0.23362 0.77323 0.92087 0.0
H365 H 0.24498 0.63732 0.85842 0.0
H366 H 0.24353 0.76113 0.85466 0.0
S367 S 0.23255 0.71032 1.02925 0.0
N368 N 0.23314 0.63961 1.00048 0.0
N369 N 0.23298 0.77505 0.99643 0.0
C370 C 0.23502 0.74115 0.95964 0.0
C371 C 0.23562 0.66806 0.96191 0.0
C372 C 0.31993 0.29351 0.37997 0.0
C373 C 0.31749 0.21932 0.378 0.0
C374 C 0.32103 0.33191 0.41829 0.0
C375 C 0.3236 0.30059 0.45725 0.0
H376 H 0.3201 0.32214 0.35138 0.0
H377 H 0.3214 0.38771 0.41727 0.0
S378 S 0.31861 0.10815 0.47056 0.0
N379 N 0.31552 0.11551 0.41964 0.0
N380 N 0.32312 0.18905 0.49061 0.0
C381 C 0.32223 0.2269 0.45571 0.0
C382 C 0.31773 0.18618 0.41669 0.0
C383 C 0.1655 0.39391 0.71681 0.0
C384 C 0.22375 0.37278 0.70875 0.0
C385 C 0.1357 0.39321 0.75751 0.0
C386 C 0.16238 0.37154 0.79302 0.0
H387 H 0.14335 0.41274 0.69138 0.0
H388 H 0.09246 0.41149 0.76116 0.0
S389 S 0.30933 0.30459 0.78955 0.0
N390 N 0.30293 0.32525 0.74078 0.0
N391 N 0.24841 0.32338 0.81575 0.0
C392 C 0.21909 0.34827 0.7851 0.0
C393 C 0.24919 0.34908 0.74378 0.0
C394 C 0.94708 0.29895 1.0679 0.0
C395 C -0.01002 0.2746 1.04227 0.0
C396 C 0.9061 0.2564 1.10447 0.0
C397 C 0.90325 0.18529 1.11715 0.0
H398 H 0.94615 0.3524 1.06008 0.0
H399 H 0.87606 0.27961 1.12292 0.0
S400 S 0.0015 0.09209 1.05994 0.0
N401 N 0.02448 0.1723 1.03265 0.0
N402 N 0.94663 0.09219 1.09874 0.0
C403 C 0.94446 0.15954 1.09107 0.0
C404 C -0.01239 0.20381 1.05464 0.0
C405 C 0.8573 0.05986 0.39998 0.0
C406 C 0.82827 0.00617 0.36554 0.0
C407 C 0.86131 0.03462 0.44086 0.0
C408 C 0.8368 0.95386 0.45042 0.0
H409 H 0.87722 0.12252 0.39548 0.0
H410 H 0.88437 0.07977 0.46541 0.0
S411 S 0.75175 0.78651 0.37299 0.0
N412 N 0.77181 0.86559 0.3453 0.0
N413 N 0.77994 0.82001 0.42098 0.0
C414 C 0.8076 0.89943 0.41643 0.0
C415 C 0.80316 0.92489 0.37471 0.0
C416 C 0.92805 0.83927 0.73121 0.0
C417 C -0.03712 0.90313 0.70248 0.0
C418 C -0.03405 0.84081 0.76966 0.0
C419 C 0.04233 0.90544 0.78177 0.0
H420 H 0.86983 0.7878 0.72437 0.0
H421 H 0.93443 0.79052 0.79023 0.0
S422 S 0.1638 0.08544 0.71655 0.0
N423 N 0.08132 0.03194 0.68921 0.0
N424 N 0.15235 0.0336 0.75882 0.0
C425 C 0.07867 0.96834 0.75251 0.0
C426 C 0.03939 0.96756 0.71399 0.0
C427 C 0.14678 0.96881 1.07312 0.0
C428 C 0.20058 -0.00861 1.03961 0.0
C429 C 0.17248 -0.00215 1.11461 0.0
C430 C 0.25354 0.05076 1.12579 0.0
H431 H 0.08423 0.92837 1.06738 0.0
H432 H 0.12726 0.97724 1.1385 0.0
S433 S 0.41967 0.13273 1.05042 0.0
N434 N 0.34063 0.07411 1.02157 0.0
N435 N 0.38685 0.12611 1.09827 0.0
C436 C 0.30786 0.07448 1.09261 0.0
C437 C 0.28179 0.04552 1.05033 0.0
loop_
_geom_bond_atom_site_label_1
_geom_bond_atom_site_label_2
_geom_bond_distance
_geom_bond_site_symmetry_2
_ccdc_geom_bond_type
Tb0 C10 2.825 . S
Tb0 O11 2.347 . S
Tb0 O14 2.366 . S
Tb0 O19 2.418 . S
Tb0 O20 2.384 1_554 S
Tb0 O23 2.479 . S
Tb0 O24 2.471 . S
Eu1 O12 2.418 . S
Eu1 O13 2.384 1_556 S
Eu1 O16 2.479 . S
Eu1 O17 2.471 . S
Eu1 O18 2.347 1_556 S
Eu1 O21 2.366 . S
Eu1 C31 2.825 . S
C2 O18 1.259 . S
C2 O19 1.265 . S
C3 O20 1.255 . S
C3 O21 1.265 . S
C4 C6 1.380 . S
C4 C7 1.374 . S
C4 C10 1.507 . S
C5 C6 1.384 . S
C5 C9 1.387 . S
C5 H32 0.930 1_545 S
C6 C4 1.380 . S
C6 C5 1.384 . S
C6 H33 0.931 . S
C7 C4 1.374 . S
C7 C8 1.390 . S
C7 H34 0.930 . S
C8 C7 1.390 . S
C8 C9 1.391 . S
C8 H35 0.930 . S
C9 C5 1.387 . S
C9 C8 1.391 . S
C10 Tb0 2.825 . S
C10 C4 1.507 . S
C10 O23 1.238 . S
C10 O24 1.247 . S
O11 Tb0 2.347 . S
O11 C15 1.259 . S
O12 Eu1 2.418 . S
O12 C15 1.265 1_556 S
O13 Eu1 2.384 1_554 S
O13 C22 1.255 . S
O14 Tb0 2.366 . S
O14 C22 1.265 . S
C15 O11 1.259 . S
C15 O12 1.265 1_554 S
O16 Eu1 2.479 . S
O16 C31 1.238 . S
O17 Eu1 2.471 . S
O17 C31 1.247 . S
O18 Eu1 2.347 1_554 S
O18 C2 1.259 . S
O19 Tb0 2.418 . S
O19 C2 1.265 . S
O20 Tb0 2.384 1_556 S
O20 C3 1.255 . S
O21 Eu1 2.366 . S
O21 C3 1.265 . S
C22 O13 1.255 . S
C22 O14 1.265 . S
O23 Tb0 2.479 . S
O23 C10 1.238 . S
O24 Tb0 2.471 . S
O24 C10 1.247 . S
C25 C28 1.380 . S
C25 C29 1.374 . S
C25 C31 1.507 . S
C26 C27 1.387 . S
C26 C30 1.391 . S
C27 C26 1.387 . S
C27 C28 1.384 . S
C27 H36 0.930 . S
C28 C25 1.380 . S
C28 C27 1.384 . S
C28 H37 0.931 . S
C29 C25 1.374 . S
C29 C30 1.390 . S
C29 H38 0.930 . S
C30 C26 1.391 . S
C30 C29 1.390 . S
C30 H39 0.930 . S
C31 Eu1 2.825 . S
C31 O16 1.238 . S
C31 O17 1.247 . S
C31 C25 1.507 . S
H32 C5 0.930 1_565 S
H33 C6 0.931 . S
H34 C7 0.930 . S
H35 C8 0.930 . S
H36 C27 0.930 . S
H37 C28 0.931 . S
H38 C29 0.930 . S
H39 C30 0.930 . S
Tb40 C50 2.825 . S
Tb40 O51 2.347 . S
Tb40 O54 2.366 . S
Tb40 O59 2.418 . S
Tb40 O60 2.384 . S
Tb40 O63 2.479 . S
Tb40 O64 2.471 . S
Eu41 O52 2.418 . S
Eu41 O53 2.384 . S
Eu41 O56 2.479 . S
Eu41 O57 2.471 . S
Eu41 O58 2.347 . S
Eu41 O61 2.366 . S
Eu41 C71 2.825 . S
C42 O58 1.259 . S
C42 O59 1.265 . S
C43 O60 1.255 . S
C43 O61 1.265 . S
C44 C46 1.380 . S
C44 C47 1.374 . S
C44 C50 1.507 . S
C45 C46 1.384 . S
C45 C49 1.387 . S
C45 H72 0.930 . S
C46 C44 1.380 . S
C46 C45 1.384 . S
C46 H73 0.931 . S
C47 C44 1.374 . S
C47 C48 1.390 . S
C47 H74 0.930 . S
C48 C47 1.390 . S
C48 C49 1.391 . S
C48 H75 0.930 . S
C49 C45 1.387 . S
C49 C48 1.391 . S
C50 Tb40 2.825 . S
C50 C44 1.507 . S
C50 O63 1.238 . S
C50 O64 1.247 . S
O51 Tb40 2.347 . S
O51 C55 1.259 . S
O52 Eu41 2.418 . S
O52 C55 1.265 . S
O53 Eu41 2.384 . S
O53 C62 1.255 . S
O54 Tb40 2.366 . S
O54 C62 1.265 . S
C55 O51 1.259 . S
C55 O52 1.265 . S
O56 Eu41 2.479 . S
O56 C71 1.238 . S
O57 Eu41 2.471 . S
O57 C71 1.247 . S
O58 Eu41 2.347 . S
O58 C42 1.259 . S
O59 Tb40 2.418 . S
O59 C42 1.265 . S
O60 Tb40 2.384 . S
O60 C43 1.255 . S
O61 Eu41 2.366 . S
O61 C43 1.265 . S
C62 O53 1.255 . S
C62 O54 1.265 . S
O63 Tb40 2.479 . S
O63 C50 1.238 . S
O64 Tb40 2.471 . S
O64 C50 1.247 . S
C65 C68 1.380 . S
C65 C69 1.374 . S
C65 C71 1.507 . S
C66 C67 1.387 . S
C66 C70 1.391 . S
C67 C66 1.387 . S
C67 C68 1.384 . S
C67 H76 0.930 . S
C68 C65 1.380 . S
C68 C67 1.384 . S
C68 H77 0.931 . S
C69 C65 1.374 . S
C69 C70 1.390 . S
C69 H78 0.930 . S
C70 C66 1.391 . S
C70 C69 1.390 . S
C70 H79 0.930 . S
C71 Eu41 2.825 . S
C71 O56 1.238 . S
C71 O57 1.247 . S
C71 C65 1.507 . S
H72 C45 0.930 . S
H73 C46 0.931 . S
H74 C47 0.930 . S
H75 C48 0.930 . S
H76 C67 0.930 . S
H77 C68 0.931 . S
H78 C69 0.930 . S
H79 C70 0.930 . S
Tb80 C90 2.825 . S
Tb80 O91 2.347 . S
Tb80 O94 2.366 . S
Tb80 O99 2.418 . S
Tb80 O100 2.384 . S
Tb80 O103 2.479 . S
Tb80 O104 2.471 . S
Eu81 O92 2.418 . S
Eu81 O93 2.384 . S
Eu81 O96 2.479 . S
Eu81 O97 2.471 . S
Eu81 O98 2.347 . S
Eu81 O101 2.374 . S
Eu81 C111 2.825 . S
C82 O98 1.259 1_455 S
C82 O99 1.265 . S
C83 O100 1.255 . S
C83 O101 1.252 1_455 S
C84 C86 1.380 . S
C84 C87 1.374 . S
C84 C90 1.507 . S
C85 C86 1.384 . S
C85 C89 1.387 . S
C85 H112 0.930 . S
C86 C84 1.380 . S
C86 C85 1.384 . S
C86 H113 0.931 . S
C87 C84 1.374 . S
C87 C88 1.390 . S
C87 H114 0.930 . S
C88 C87 1.390 . S
C88 C89 1.391 . S
C88 H115 0.930 . S
C89 C85 1.387 . S
C89 C88 1.391 . S
C90 Tb80 2.825 . S
C90 C84 1.507 . S
C90 O103 1.238 . S
C90 O104 1.247 . S
O91 Tb80 2.347 . S
O91 C95 1.259 1_455 S
O92 Eu81 2.418 . S
O92 C95 1.265 . S
O93 Eu81 2.384 . S
O93 C102 1.255 . S
O94 Tb80 2.366 . S
O94 C102 1.265 1_455 S
C95 O91 1.259 1_655 S
C95 O92 1.265 . S
O96 Eu81 2.479 . S
O96 C111 1.238 . S
O97 Eu81 2.471 . S
O97 C111 1.247 . S
O98 Eu81 2.347 . S
O98 C82 1.259 1_655 S
O99 Tb80 2.418 . S
O99 C82 1.265 . S
O100 Tb80 2.384 . S
O100 C83 1.255 . S
O101 Eu81 2.374 . S
O101 C83 1.252 1_655 S
C102 O93 1.255 . S
C102 O94 1.265 1_655 S
O103 Tb80 2.479 . S
O103 C90 1.238 . S
O104 Tb80 2.471 . S
O104 C90 1.247 . S
C105 C108 1.380 . S
C105 C109 1.374 . S
C105 C111 1.507 . S
C106 C107 1.387 . S
C106 C110 1.391 . S
C107 C106 1.387 . S
C107 C108 1.384 . S
C107 H116 0.930 . S
C108 C105 1.380 . S
C108 C107 1.384 . S
C108 H117 0.931 . S
C109 C105 1.374 . S
C109 C110 1.390 . S
C109 H118 0.930 . S
C110 C106 1.391 . S
C110 C109 1.390 . S
C110 H119 0.930 . S
C111 Eu81 2.825 . S
C111 O96 1.238 . S
C111 O97 1.247 . S
C111 C105 1.507 . S
H112 C85 0.930 . S
H113 C86 0.931 . S
H114 C87 0.930 . S
H115 C88 0.930 . S
H116 C107 0.930 . S
H117 C108 0.931 . S
H118 C109 0.930 . S
H119 C110 0.930 . S
Tb120 C130 2.825 . S
Tb120 O131 2.347 . S
Tb120 O134 2.366 . S
Tb120 O139 2.418 . S
Tb120 O140 2.384 1_554 S
Tb120 O143 2.479 . S
Tb120 O144 2.471 . S
Eu121 O132 2.418 . S
Eu121 O133 2.384 1_556 S
Eu121 O136 2.479 . S
Eu121 O137 2.471 . S
Eu121 O138 2.347 1_566 S
Eu121 O141 2.366 1_565 S
Eu121 C151 2.825 . S
C122 O138 1.259 . S
C122 O139 1.265 . S
C123 O140 1.255 . S
C123 O141 1.265 . S
C124 C126 1.380 . S
C124 C127 1.374 . S
C124 C130 1.507 . S
C125 C126 1.384 . S
C125 C129 1.387 . S
C125 H152 0.933 . S
C126 C124 1.380 . S
C126 C125 1.384 . S
C126 H153 0.931 1_655 S
C127 C124 1.374 . S
C127 C128 1.390 . S
C127 H154 0.930 . S
C128 C127 1.390 . S
C128 C129 1.391 . S
C128 H155 0.930 . S
C129 C125 1.387 . S
C129 C128 1.391 . S
C130 Tb120 2.825 . S
C130 C124 1.507 . S
C130 O143 1.238 . S
C130 O144 1.247 . S
O131 Tb120 2.347 . S
O131 C135 1.259 1_545 S
O132 Eu121 2.418 . S
O132 C135 1.265 1_556 S
O133 Eu121 2.384 1_554 S
O133 C142 1.255 . S
O134 Tb120 2.366 . S
O134 C142 1.265 1_545 S
C135 O131 1.259 1_565 S
C135 O132 1.265 1_554 S
O136 Eu121 2.479 . S
O136 C151 1.238 . S
O137 Eu121 2.471 . S
O137 C151 1.247 . S
O138 Eu121 2.347 1_544 S
O138 C122 1.259 . S
O139 Tb120 2.418 . S
O139 C122 1.265 . S
O140 Tb120 2.384 1_556 S
O140 C123 1.255 . S
O141 Eu121 2.366 1_545 S
O141 C123 1.265 . S
C142 O133 1.255 . S
C142 O134 1.265 1_565 S
O143 Tb120 2.479 . S
O143 C130 1.238 . S
O144 Tb120 2.471 . S
O144 C130 1.247 . S
C145 C148 1.380 . S
C145 C149 1.374 . S
C145 C151 1.507 . S
C146 C147 1.387 . S
C146 C150 1.391 . S
C147 C146 1.387 . S
C147 C148 1.384 . S
C147 H156 0.930 . S
C148 C145 1.380 . S
C148 C147 1.384 . S
C148 H157 0.931 . S
C149 C145 1.374 . S
C149 C150 1.390 . S
C149 H158 0.930 . S
C150 C146 1.391 . S
C150 C149 1.390 . S
C150 H159 0.930 . S
C151 Eu121 2.825 . S
C151 O136 1.238 . S
C151 O137 1.247 . S
C151 C145 1.507 . S
H152 C125 0.933 . S
H153 C126 0.931 1_455 S
H154 C127 0.930 . S
H155 C128 0.930 . S
H156 C147 0.930 . S
H157 C148 0.931 . S
H158 C149 0.930 . S
H159 C150 0.930 . S
Tb160 C170 2.825 . S
Tb160 O171 2.347 . S
Tb160 O174 2.366 . S
Tb160 O179 2.418 1_665 S
Tb160 O180 2.384 . S
Tb160 O183 2.479 . S
Tb160 O184 2.471 . S
Eu161 O172 2.418 1_455 S
Eu161 O173 2.384 . S
Eu161 O176 2.479 . S
Eu161 O177 2.471 . S
Eu161 O178 2.347 . S
Eu161 O181 2.366 1_455 S
Eu161 C191 2.825 . S
C162 O178 1.259 . S
C162 O179 1.265 1_565 S
C163 O180 1.255 . S
C163 O181 1.265 . S
C164 C166 1.380 . S
C164 C167 1.374 . S
C164 C170 1.507 . S
C165 C166 1.384 . S
C165 C169 1.387 . S
C165 H192 0.930 1_565 S
C166 C164 1.380 . S
C166 C165 1.384 . S
C166 H193 0.931 1_565 S
C167 C164 1.374 . S
C167 C168 1.390 . S
C167 H194 0.930 . S
C168 C167 1.390 . S
C168 C169 1.391 . S
C168 H195 0.930 . S
C169 C165 1.387 . S
C169 C168 1.391 . S
C170 Tb160 2.825 . S
C170 C164 1.507 . S
C170 O183 1.238 . S
C170 O184 1.247 . S
O171 Tb160 2.347 . S
O171 C175 1.259 . S
O172 Eu161 2.418 1_655 S
O172 C175 1.265 . S
O173 Eu161 2.384 . S
O173 C182 1.255 . S
O174 Tb160 2.366 . S
O174 C182 1.265 1_655 S
C175 O171 1.259 . S
C175 O172 1.265 . S
O176 Eu161 2.479 . S
O176 C191 1.238 . S
O177 Eu161 2.471 . S
O177 C191 1.247 . S
O178 Eu161 2.347 . S
O178 C162 1.259 . S
O179 Tb160 2.418 1_445 S
O179 C162 1.265 1_545 S
O180 Tb160 2.384 . S
O180 C163 1.255 . S
O181 Eu161 2.366 1_655 S
O181 C163 1.265 . S
C182 O173 1.255 . S
C182 O174 1.265 1_455 S
O183 Tb160 2.479 . S
O183 C170 1.238 . S
O184 Tb160 2.471 . S
O184 C170 1.247 . S
C185 C188 1.380 . S
C185 C189 1.374 . S
C185 C191 1.507 . S
C186 C187 1.387 . S
C186 C190 1.391 . S
C187 C186 1.387 . S
C187 C188 1.384 . S
C187 H196 0.930 . S
C188 C185 1.380 . S
C188 C187 1.384 . S
C188 H197 0.931 . S
C189 C185 1.374 . S
C189 C190 1.390 . S
C189 H198 0.930 . S
C190 C186 1.391 . S
C190 C189 1.390 . S
C190 H199 0.930 . S
C191 Eu161 2.825 . S
C191 O176 1.238 . S
C191 O177 1.247 . S
C191 C185 1.507 . S
H192 C165 0.930 1_545 S
H193 C166 0.931 1_545 S
H194 C167 0.930 . S
H195 C168 0.930 . S
H196 C187 0.930 . S
H197 C188 0.931 . S
H198 C189 0.930 . S
H199 C190 0.930 . S
Tb200 C210 2.825 . S
Tb200 O211 2.347 . S
Tb200 O214 2.366 . S
Tb200 O219 2.418 1_565 S
Tb200 O220 2.384 . S
Tb200 O223 2.479 . S
Tb200 O224 2.471 . S
Eu201 O212 2.418 1_545 S
Eu201 O213 2.384 . S
Eu201 O216 2.479 . S
Eu201 O217 2.471 . S
Eu201 O218 2.347 . S
Eu201 O221 2.366 1_545 S
Eu201 C231 2.825 . S
C202 O218 1.259 . S
C202 O219 1.265 . S
C203 O220 1.255 . S
C203 O221 1.265 . S
C204 C206 1.380 . S
C204 C207 1.374 . S
C204 C210 1.507 . S
C205 C206 1.384 . S
C205 C209 1.387 . S
C205 H232 0.930 1_455 S
C206 C204 1.380 . S
C206 C205 1.384 . S
C206 H233 0.931 . S
C207 C204 1.374 . S
C207 C208 1.390 . S
C207 H234 0.930 . S
C208 C207 1.390 . S
C208 C209 1.391 . S
C208 H235 0.930 . S
C209 C205 1.387 . S
C209 C208 1.391 . S
C210 Tb200 2.825 . S
C210 C204 1.507 . S
C210 O223 1.238 . S
C210 O224 1.247 . S
O211 Tb200 2.347 . S
O211 C215 1.259 . S
O212 Eu201 2.418 1_565 S
O212 C215 1.265 . S
O213 Eu201 2.384 . S
O213 C222 1.255 . S
O214 Tb200 2.366 . S
O214 C222 1.265 1_565 S
C215 O211 1.259 . S
C215 O212 1.265 . S
O216 Eu201 2.479 . S
O216 C231 1.238 . S
O217 Eu201 2.471 . S
O217 C231 1.247 . S
O218 Eu201 2.347 . S
O218 C202 1.259 . S
O219 Tb200 2.418 1_545 S
O219 C202 1.265 . S
O220 Tb200 2.384 . S
O220 C203 1.255 . S
O221 Eu201 2.366 1_565 S
O221 C203 1.265 . S
C222 O213 1.255 . S
C222 O214 1.265 1_545 S
O223 Tb200 2.479 . S
O223 C210 1.238 . S
O224 Tb200 2.471 . S
O224 C210 1.247 . S
C225 C228 1.380 . S
C225 C229 1.374 . S
C225 C231 1.507 . S
C226 C227 1.387 . S
C226 C230 1.391 . S
C227 C226 1.387 . S
C227 C228 1.384 . S
C227 H236 0.930 . S
C228 C225 1.380 . S
C228 C227 1.384 . S
C228 H237 0.931 . S
C229 C225 1.374 . S
C229 C230 1.390 . S
C229 H238 0.930 . S
C230 C226 1.391 . S
C230 C229 1.390 . S
C230 H239 0.930 . S
C231 Eu201 2.825 . S
C231 O216 1.238 . S
C231 O217 1.247 . S
C231 C225 1.507 . S
H232 C205 0.930 1_655 S
H233 C206 0.931 . S
H234 C207 0.930 . S
H235 C208 0.930 . S
H236 C227 0.930 . S
H237 C228 0.931 . S
H238 C229 0.930 . S
H239 C230 0.930 . S
C240 C241 1.369 1_556 S
C240 C242 1.419 . S
C240 H244 0.930 . S
C241 C240 1.369 1_554 S
C241 C250 1.429 . S
C242 C240 1.419 . S
C242 C243 1.363 1_556 S
C242 H245 0.929 . S
C243 C242 1.363 1_554 S
C243 C249 1.428 . S
H244 C240 0.930 . S
H245 C242 0.929 . S
S246 N247 1.613 . S
S246 N248 1.610 . S
N247 S246 1.613 . S
N247 C250 1.350 . S
N248 S246 1.610 . S
N248 C249 1.351 . S
C249 C243 1.428 . S
C249 N248 1.351 . S
C249 C250 1.434 . S
C250 C241 1.429 . S
C250 N247 1.350 . S
C250 C249 1.434 . S
C251 C252 1.369 . S
C251 C253 1.419 . S
C251 H255 0.930 . S
C252 C251 1.369 . S
C252 C261 1.429 . S
C253 C251 1.419 . S
C253 C254 1.363 . S
C253 H256 0.929 . S
C254 C253 1.363 . S
C254 C260 1.428 . S
H255 C251 0.930 . S
H256 C253 0.929 . S
S257 N258 1.613 1_655 S
S257 N259 1.610 1_655 S
N258 S257 1.613 1_455 S
N258 C261 1.350 . S
N259 S257 1.610 1_455 S
N259 C260 1.351 . S
C260 C254 1.428 . S
C260 N259 1.351 . S
C260 C261 1.434 . S
C261 C252 1.429 . S
C261 N258 1.350 . S
C261 C260 1.434 . S
C262 C263 1.369 . S
C262 C264 1.419 . S
C262 H266 0.930 . S
C263 C262 1.369 . S
C263 C272 1.429 . S
C264 C262 1.419 . S
C264 C265 1.363 . S
C264 H267 0.929 . S
C265 C264 1.363 . S
C265 C271 1.428 . S
H266 C262 0.930 . S
H267 C264 0.929 . S
S268 N269 1.613 . S
S268 N270 1.610 . S
N269 S268 1.613 . S
N269 C272 1.350 . S
N270 S268 1.610 . S
N270 C271 1.351 . S
C271 C265 1.428 . S
C271 N270 1.351 . S
C271 C272 1.434 . S
C272 C263 1.429 . S
C272 N269 1.350 . S
C272 C271 1.434 . S
C273 C274 1.369 . S
C273 C275 1.419 . S
C273 H277 0.930 . S
C274 C273 1.369 . S
C274 C283 1.429 . S
C275 C273 1.419 . S
C275 C276 1.363 . S
C275 H278 0.929 . S
C276 C275 1.363 . S
C276 C282 1.428 . S
H277 C273 0.930 . S
H278 C275 0.929 . S
S279 N280 1.613 . S
S279 N281 1.610 . S
N280 S279 1.613 . S
N280 C283 1.350 . S
N281 S279 1.610 . S
N281 C282 1.351 . S
C282 C276 1.428 . S
C282 N281 1.351 . S
C282 C283 1.434 . S
C283 C274 1.429 . S
C283 N280 1.350 . S
C283 C282 1.434 . S
C284 C285 1.369 . S
C284 C286 1.419 1_455 S
C284 H288 0.930 . S
C285 C284 1.369 . S
C285 C294 1.429 1_455 S
C286 C284 1.419 1_655 S
C286 C287 1.363 . S
C286 H289 0.929 1_655 S
C287 C286 1.363 . S
C287 C293 1.428 . S
H288 C284 0.930 . S
H289 C286 0.929 1_455 S
S290 N291 1.613 . S
S290 N292 1.610 . S
N291 S290 1.613 . S
N291 C294 1.350 . S
N292 S290 1.610 . S
N292 C293 1.351 . S
C293 C287 1.428 . S
C293 N292 1.351 . S
C293 C294 1.434 . S
C294 C285 1.429 1_655 S
C294 N291 1.350 . S
C294 C293 1.434 . S
C295 C296 1.369 . S
C295 C297 1.419 1_545 S
C295 H299 0.930 . S
C296 C295 1.369 . S
C296 C305 1.429 . S
C297 C295 1.419 1_565 S
C297 C298 1.363 . S
C297 H300 0.929 . S
C298 C297 1.363 . S
C298 C304 1.428 1_565 S
H299 C295 0.930 . S
H300 C297 0.929 . S
S301 N302 1.613 . S
S301 N303 1.610 . S
N302 S301 1.613 . S
N302 C305 1.350 . S
N303 S301 1.610 . S
N303 C304 1.351 . S
C304 C298 1.428 1_545 S
C304 N303 1.351 . S
C304 C305 1.434 . S
C305 C296 1.429 . S
C305 N302 1.350 . S
C305 C304 1.434 . S
C306 C307 1.369 . S
C306 C308 1.419 . S
C306 H310 0.930 . S
C307 C306 1.369 . S
C307 C316 1.429 . S
C308 C306 1.419 . S
C308 C309 1.363 . S
C308 H311 0.929 . S
C309 C308 1.363 . S
C309 C315 1.428 . S
H310 C306 0.930 . S
H311 C308 0.929 . S
S312 N313 1.613 . S
S312 N314 1.610 . S
N313 S312 1.613 . S
N313 C316 1.350 . S
N314 S312 1.610 . S
N314 C315 1.351 . S
C315 C309 1.428 . S
C315 N314 1.351 . S
C315 C316 1.434 . S
C316 C307 1.429 . S
C316 N313 1.350 . S
C316 C315 1.434 . S
C317 C318 1.369 . S
C317 C319 1.419 . S
C317 H321 0.930 . S
C318 C317 1.369 . S
C318 C327 1.429 . S
C319 C317 1.419 . S
C319 C320 1.363 . S
C319 H322 0.929 . S
C320 C319 1.363 . S
C320 C326 1.428 . S
H321 C317 0.930 . S
H322 C319 0.929 . S
S323 N324 1.613 . S
S323 N325 1.610 1_565 S
N324 S323 1.613 . S
N324 C327 1.350 . S
N325 S323 1.610 1_545 S
N325 C326 1.351 1_545 S
C326 C320 1.428 . S
C326 N325 1.351 1_565 S
C326 C327 1.434 . S
C327 C318 1.429 . S
C327 N324 1.350 . S
C327 C326 1.434 . S
C328 C329 1.369 . S
C328 C330 1.419 . S
C328 H332 0.930 . S
C329 C328 1.369 . S
C329 C338 1.429 . S
C330 C328 1.419 . S
C330 C331 1.363 . S
C330 H333 0.929 . S
C331 C330 1.363 . S
C331 C337 1.428 . S
H332 C328 0.930 . S
H333 C330 0.929 . S
S334 N335 1.613 . S
S334 N336 1.610 . S
N335 S334 1.613 . S
N335 C338 1.350 . S
N336 S334 1.610 . S
N336 C337 1.351 . S
C337 C331 1.428 . S
C337 N336 1.351 . S
C337 C338 1.434 . S
C338 C329 1.429 . S
C338 N335 1.350 . S
C338 C337 1.434 . S
C339 C340 1.369 1_556 S
C339 C341 1.419 . S
C339 H343 0.930 . S
C340 C339 1.369 1_554 S
C340 C349 1.429 . S
C341 C339 1.419 . S
C341 C342 1.363 1_556 S
C341 H344 0.929 . S
C342 C341 1.363 1_554 S
C342 C348 1.428 . S
H343 C339 0.930 . S
H344 C341 0.929 . S
S345 N346 1.613 . S
S345 N347 1.610 . S
N346 S345 1.613 . S
N346 C349 1.350 . S
N347 S345 1.610 . S
N347 C348 1.351 . S
C348 C342 1.428 . S
C348 N347 1.351 . S
C348 C349 1.434 . S
C349 C340 1.429 . S
C349 N346 1.350 . S
C349 C348 1.434 . S
C350 C351 1.369 . S
C350 C352 1.419 . S
C350 H354 0.930 . S
C351 C350 1.369 . S
C351 C360 1.429 . S
C352 C350 1.419 . S
C352 C353 1.363 . S
C352 H355 0.929 . S
C353 C352 1.363 . S
C353 C359 1.428 . S
H354 C350 0.930 . S
H355 C352 0.929 . S
S356 N357 1.613 . S
S356 N358 1.610 . S
N357 S356 1.613 . S
N357 C360 1.350 . S
N358 S356 1.610 . S
N358 C359 1.351 . S
C359 C353 1.428 . S
C359 N358 1.351 . S
C359 C360 1.434 . S
C360 C351 1.429 . S
C360 N357 1.350 . S
C360 C359 1.434 . S
C361 C362 1.369 . S
C361 C363 1.419 . S
C361 H365 0.930 . S
C362 C361 1.369 . S
C362 C371 1.429 . S
C363 C361 1.419 . S
C363 C364 1.363 . S
C363 H366 0.929 . S
C364 C363 1.363 . S
C364 C370 1.428 . S
H365 C361 0.930 . S
H366 C363 0.929 . S
S367 N368 1.613 . S
S367 N369 1.610 . S
N368 S367 1.613 . S
N368 C371 1.350 . S
N369 S367 1.610 . S
N369 C370 1.351 . S
C370 C364 1.428 . S
C370 N369 1.351 . S
C370 C371 1.434 . S
C371 C362 1.429 . S
C371 N368 1.350 . S
C371 C370 1.434 . S
C372 C373 1.369 . S
C372 C374 1.419 . S
C372 H376 0.930 . S
C373 C372 1.369 . S
C373 C382 1.429 . S
C374 C372 1.419 . S
C374 C375 1.363 . S
C374 H377 0.929 . S
C375 C374 1.363 . S
C375 C381 1.428 . S
H376 C372 0.930 . S
H377 C374 0.929 . S
S378 N379 1.613 . S
S378 N380 1.610 . S
N379 S378 1.613 . S
N379 C382 1.350 . S
N380 S378 1.610 . S
N380 C381 1.351 . S
C381 C375 1.428 . S
C381 N380 1.351 . S
C381 C382 1.434 . S
C382 C373 1.429 . S
C382 N379 1.350 . S
C382 C381 1.434 . S
C383 C384 1.369 . S
C383 C385 1.419 . S
C383 H387 0.930 . S
C384 C383 1.369 . S
C384 C393 1.429 . S
C385 C383 1.419 . S
C385 C386 1.363 . S
C385 H388 0.929 . S
C386 C385 1.363 . S
C386 C392 1.428 . S
H387 C383 0.930 . S
H388 C385 0.929 . S
S389 N390 1.613 . S
S389 N391 1.610 . S
N390 S389 1.613 . S
N390 C393 1.350 . S
N391 S389 1.610 . S
N391 C392 1.351 . S
C392 C386 1.428 . S
C392 N391 1.351 . S
C392 C393 1.434 . S
C393 C384 1.429 . S
C393 N390 1.350 . S
C393 C392 1.434 . S
C394 C395 1.369 . S
C394 C396 1.419 . S
C394 H398 0.930 . S
C395 C394 1.369 . S
C395 C404 1.429 . S
C396 C394 1.419 . S
C396 C397 1.363 . S
C396 H399 0.929 . S
C397 C396 1.363 . S
C397 C403 1.428 . S
H398 C394 0.930 . S
H399 C396 0.929 . S
S400 N401 1.613 1_565 S
S400 N402 1.610 1_565 S
N401 S400 1.613 1_545 S
N401 C404 1.350 . S
N402 S400 1.610 1_545 S
N402 C403 1.351 . S
C403 C397 1.428 . S
C403 N402 1.351 . S
C403 C404 1.434 . S
C404 C395 1.429 . S
C404 N401 1.350 . S
C404 C403 1.434 . S
C405 C406 1.369 . S
C405 C407 1.419 . S
C405 H409 0.930 1_565 S
C406 C405 1.369 . S
C406 C415 1.429 . S
C407 C405 1.419 . S
C407 C408 1.363 . S
C407 H410 0.929 1_565 S
C408 C407 1.363 . S
C408 C414 1.428 . S
H409 C405 0.930 1_545 S
H410 C407 0.929 1_545 S
S411 N412 1.613 . S
S411 N413 1.610 . S
N412 S411 1.613 . S
N412 C415 1.350 . S
N413 S411 1.610 . S
N413 C414 1.351 . S
C414 C408 1.428 . S
C414 N413 1.351 . S
C414 C415 1.434 . S
C415 C406 1.429 . S
C415 N412 1.350 . S
C415 C414 1.434 . S
C416 C417 1.369 . S
C416 C418 1.419 . S
C416 H420 0.930 . S
C417 C416 1.369 . S
C417 C426 1.429 . S
C418 C416 1.419 . S
C418 C419 1.363 . S
C418 H421 0.929 . S
C419 C418 1.363 . S
C419 C425 1.428 . S
H420 C416 0.930 . S
H421 C418 0.929 . S
S422 N423 1.613 . S
S422 N424 1.610 . S
N423 S422 1.613 . S
N423 C426 1.350 . S
N424 S422 1.610 . S
N424 C425 1.351 . S
C425 C419 1.428 . S
C425 N424 1.351 . S
C425 C426 1.434 . S
C426 C417 1.429 . S
C426 N423 1.350 . S
C426 C425 1.434 . S
C427 C428 1.369 . S
C427 C429 1.419 . S
C427 H431 0.930 1_545 S
C428 C427 1.369 . S
C428 C437 1.429 . S
C429 C427 1.419 . S
C429 C430 1.363 . S
C429 H432 0.929 . S
C430 C429 1.363 . S
C430 C436 1.428 . S
H431 C427 0.930 1_565 S
H432 C429 0.929 . S
S433 N434 1.613 . S
S433 N435 1.610 . S
N434 S433 1.613 . S
N434 C437 1.350 . S
N435 S433 1.610 . S
N435 C436 1.351 . S
C436 C430 1.428 . S
C436 N435 1.351 . S
C436 C437 1.434 . S
C437 C428 1.429 . S
C437 N434 1.350 . S
C437 C436 1.434 . S
C241 C122 1.376 1_455 S
C243 C2 1.391 . S
C252 C162 1.383 1_545 S
C254 C42 1.390 . S
C263 C202 1.393 . S
C265 C82 1.380 . S
C274 C26 1.181 . S
C276 C89 1.191 . S
C285 C66 1.188 . S
C287 C129 1.194 . S
C296 C106 1.184 . S
C298 C169 1.189 . S
C307 C146 1.179 . S
C309 C209 1.193 1_655 S
C318 C186 1.199 . S
C320 C9 1.181 1_565 S
C329 C226 1.178 . S
C331 C49 1.197 . S
C340 C15 1.979 . S
C342 C135 1.975 1_545 S
C351 C55 1.980 . S
C353 C175 1.974 . S
C362 C95 1.974 1_455 S
C364 C215 1.978 . S
C373 C22 4.225 . S
C375 C43 4.256 . S
C384 C62 4.225 . S
C386 C83 4.256 . S
C395 C102 4.226 . S
C397 C123 4.256 . S
C406 C142 4.227 . S
C408 C163 4.256 . S
C417 C182 4.227 . S
C419 C203 4.256 . S
C428 C222 4.227 . S
C430 C3 4.256 . S
