# Generated by pormake.
# Topology fng, (5)-cn, num edge types: 1
# Building blocks:
#     Node 0, Type 0, BuildingBlock: BEQFEK_clean_sbu_0, # of connection points: 5
#     Node 1, Type 0, BuildingBlock: BEQFEK_clean_sbu_0, # of connection points: 5
#     Node 2, Type 0, BuildingBlock: BEQFEK_clean_sbu_0, # of connection points: 5
#     Node 3, Type 0, BuildingBlock: BEQFEK_clean_sbu_0, # of connection points: 5
#     Node 4, Type 0, BuildingBlock: BEQFEK_clean_sbu_0, # of connection points: 5
#     Node 5, Type 0, BuildingBlock: BEQFEK_clean_sbu_0, # of connection points: 5
#     Node 6, Type 0, BuildingBlock: BEQFEK_clean_sbu_0, # of connection points: 5
#     Node 7, Type 0, BuildingBlock: BEQFEK_clean_sbu_0, # of connection points: 5
#     Node 8, Type 0, BuildingBlock: BEQFEK_clean_sbu_0, # of connection points: 5
#     Node 9, Type 0, BuildingBlock: BEQFEK_clean_sbu_0, # of connection points: 5
#     Node 10, Type 0, BuildingBlock: BEQFEK_clean_sbu_0, # of connection points: 5
#     Node 11, Type 0, BuildingBlock: BEQFEK_clean_sbu_0, # of connection points: 5
#     Node 12, Type 0, BuildingBlock: BEQFEK_clean_sbu_0, # of connection points: 5
#     Node 13, Type 0, BuildingBlock: BEQFEK_clean_sbu_0, # of connection points: 5
#     Node 14, Type 0, BuildingBlock: BEQFEK_clean_sbu_0, # of connection points: 5
#     Node 15, Type 0, BuildingBlock: BEQFEK_clean_sbu_0, # of connection points: 5
#     Node 16, Type 0, BuildingBlock: BEQFEK_clean_sbu_0, # of connection points: 5
#     Node 17, Type 0, BuildingBlock: BEQFEK_clean_sbu_0, # of connection points: 5
#     Edge 18, Type (0, 0), BuildingBlock: ZUJKAS_clean_linker_0, # of connection points: 2
#     Edge 19, Type (0, 0), BuildingBlock: ZUJKAS_clean_linker_0, # of connection points: 2
#     Edge 20, Type (0, 0), BuildingBlock: ZUJKAS_clean_linker_0, # of connection points: 2
#     Edge 21, Type (0, 0), BuildingBlock: ZUJKAS_clean_linker_0, # of connection points: 2
#     Edge 22, Type (0, 0), BuildingBlock: ZUJKAS_clean_linker_0, # of connection points: 2
#     Edge 23, Type (0, 0), BuildingBlock: ZUJKAS_clean_linker_0, # of connection points: 2
#     Edge 24, Type (0, 0), BuildingBlock: ZUJKAS_clean_linker_0, # of connection points: 2
#     Edge 25, Type (0, 0), BuildingBlock: ZUJKAS_clean_linker_0, # of connection points: 2
#     Edge 26, Type (0, 0), BuildingBlock: ZUJKAS_clean_linker_0, # of connection points: 2
#     Edge 27, Type (0, 0), BuildingBlock: ZUJKAS_clean_linker_0, # of connection points: 2
#     Edge 28, Type (0, 0), BuildingBlock: ZUJKAS_clean_linker_0, # of connection points: 2
#     Edge 29, Type (0, 0), BuildingBlock: ZUJKAS_clean_linker_0, # of connection points: 2
#     Edge 30, Type (0, 0), BuildingBlock: ZUJKAS_clean_linker_0, # of connection points: 2
#     Edge 31, Type (0, 0), BuildingBlock: ZUJKAS_clean_linker_0, # of connection points: 2
#     Edge 32, Type (0, 0), BuildingBlock: ZUJKAS_clean_linker_0, # of connection points: 2
#     Edge 33, Type (0, 0), BuildingBlock: ZUJKAS_clean_linker_0, # of connection points: 2
#     Edge 34, Type (0, 0), BuildingBlock: ZUJKAS_clean_linker_0, # of connection points: 2
#     Edge 35, Type (0, 0), BuildingBlock: ZUJKAS_clean_linker_0, # of connection points: 2
#     Edge 36, Type (0, 0), BuildingBlock: ZUJKAS_clean_linker_0, # of connection points: 2
#     Edge 37, Type (0, 0), BuildingBlock: ZUJKAS_clean_linker_0, # of connection points: 2
#     Edge 38, Type (0, 0), BuildingBlock: ZUJKAS_clean_linker_0, # of connection points: 2
#     Edge 39, Type (0, 0), BuildingBlock: ZUJKAS_clean_linker_0, # of connection points: 2
#     Edge 40, Type (0, 0), BuildingBlock: ZUJKAS_clean_linker_0, # of connection points: 2
#     Edge 41, Type (0, 0), BuildingBlock: ZUJKAS_clean_linker_0, # of connection points: 2
#     Edge 42, Type (0, 0), BuildingBlock: ZUJKAS_clean_linker_0, # of connection points: 2
#     Edge 43, Type (0, 0), BuildingBlock: ZUJKAS_clean_linker_0, # of connection points: 2
#     Edge 44, Type (0, 0), BuildingBlock: ZUJKAS_clean_linker_0, # of connection points: 2
#     Edge 45, Type (0, 0), BuildingBlock: ZUJKAS_clean_linker_0, # of connection points: 2
#     Edge 46, Type (0, 0), BuildingBlock: ZUJKAS_clean_linker_0, # of connection points: 2
#     Edge 47, Type (0, 0), BuildingBlock: ZUJKAS_clean_linker_0, # of connection points: 2
#     Edge 48, Type (0, 0), BuildingBlock: ZUJKAS_clean_linker_0, # of connection points: 2
#     Edge 49, Type (0, 0), BuildingBlock: ZUJKAS_clean_linker_0, # of connection points: 2
#     Edge 50, Type (0, 0), BuildingBlock: ZUJKAS_clean_linker_0, # of connection points: 2
#     Edge 51, Type (0, 0), BuildingBlock: ZUJKAS_clean_linker_0, # of connection points: 2
#     Edge 52, Type (0, 0), BuildingBlock: ZUJKAS_clean_linker_0, # of connection points: 2
#     Edge 53, Type (0, 0), BuildingBlock: ZUJKAS_clean_linker_0, # of connection points: 2
#     Edge 54, Type (0, 0), BuildingBlock: ZUJKAS_clean_linker_0, # of connection points: 2
#     Edge 55, Type (0, 0), BuildingBlock: ZUJKAS_clean_linker_0, # of connection points: 2
#     Edge 56, Type (0, 0), BuildingBlock: ZUJKAS_clean_linker_0, # of connection points: 2
#     Edge 57, Type (0, 0), BuildingBlock: ZUJKAS_clean_linker_0, # of connection points: 2
#     Edge 58, Type (0, 0), BuildingBlock: ZUJKAS_clean_linker_0, # of connection points: 2
#     Edge 59, Type (0, 0), BuildingBlock: ZUJKAS_clean_linker_0, # of connection points: 2
#     Edge 60, Type (0, 0), BuildingBlock: ZUJKAS_clean_linker_0, # of connection points: 2
#     Edge 61, Type (0, 0), BuildingBlock: ZUJKAS_clean_linker_0, # of connection points: 2
#     Edge 62, Type (0, 0), BuildingBlock: ZUJKAS_clean_linker_0, # of connection points: 2
# Relax obj value: 0.311
# Max RMSD: 0.241
# Mean RMSD: 0.241
data_MOF--net-fng--node1-BEQFEK_clean_sbu_0--edge1-ZUJKAS_clean_linker_0
_symmetry_space_group_name_H-M    P1
_symmetry_Int_Tables_number       1
_symmetry_cell_setting            triclinic
loop_
_symmetry_equiv_pos_as_xyz
'x, y, z'
_cell_length_a     98.65093
_cell_length_b     98.688415
_cell_length_c     22.382668
_cell_angle_alpha  90.004978
_cell_angle_beta   89.981298
_cell_angle_gamma 120.01089
loop_
_atom_site_label
_atom_site_type_symbol
_atom_site_fract_x
_atom_site_fract_y
_atom_site_fract_z
_atom_type_partial_charge
Co0 Co 0.1125 0.22477 0.04095 0.0
Co1 Co 0.10388 0.2098 0.16804 0.0
C2 C 0.07927 0.2024 0.0772 0.0
O3 O 0.08966 0.2112 0.03992 0.0
O4 O 0.08295 0.20071 0.13 0.0
C5 C 0.10834 0.24101 0.94644 0.0
O6 O 0.09777 0.2406 0.98333 0.0
C7 C 0.09109 0.20496 0.28885 0.0
C8 C 0.10745 0.2 0.33864 0.0
C9 C 0.09512 0.20282 0.34608 0.0
N10 N 0.10099 0.20406 0.24996 0.0
N11 N 0.11045 0.20065 0.27978 0.0
C12 C 0.0781 0.2078 0.27074 0.0
H13 H 0.07106 0.1994 0.23515 0.0
H14 H 0.08303 0.21972 0.25176 0.0
H15 H 0.07027 0.20629 0.30882 0.0
C16 C 0.1282 0.25395 0.11143 0.0
N17 N 0.11909 0.23831 0.10716 0.0
N18 N 0.11566 0.23216 0.16109 0.0
C19 C 0.12263 0.24381 0.20156 0.0
C20 C 0.13076 0.25795 0.17135 0.0
C21 C 0.13534 0.26464 0.05906 0.0
H22 H 0.13936 0.25912 0.02565 0.0
H23 H 0.12633 0.26662 0.03772 0.0
H24 H 0.14536 0.27609 0.07274 0.0
O25 O 0.1226 0.21187 0.04222 0.0
O26 O 0.11589 0.20069 0.13168 0.0
H27 H 0.1255 0.23315 0.28025 0.0
H28 H 0.12852 0.25255 0.29271 0.0
C29 C 0.12153 0.24147 0.26789 0.0
H30 H 0.10921 0.23654 0.2819 0.0
H31 H 0.11953 0.19966 0.26032 0.0
O32 O 0.11726 0.23599 0.96426 0.0
C33 C 0.12282 0.20269 0.08169 0.0
Co34 Co 0.76869 0.88375 0.04737 0.0
Co35 Co 0.78406 0.89143 0.17352 0.0
C36 C 0.79101 0.87315 0.08589 0.0
O37 O 0.78226 0.87451 0.04778 0.0
O38 O 0.79269 0.87891 0.13796 0.0
C39 C 0.75303 0.86261 0.95507 0.0
O40 O 0.75429 0.85313 0.99292 0.0
C41 C 0.78751 0.88299 0.29379 0.0
C42 C 0.79855 0.90561 0.34148 0.0
C43 C 0.7925 0.88969 0.3496 0.0
N44 N 0.79028 0.89438 0.25465 0.0
N45 N 0.79715 0.90793 0.28305 0.0
C46 C 0.78052 0.86611 0.27693 0.0
H47 H 0.78997 0.86422 0.25936 0.0
H48 H 0.77179 0.86309 0.24071 0.0
H49 H 0.77511 0.85825 0.31576 0.0
C50 C 0.73974 0.87094 0.11888 0.0
N51 N 0.75538 0.87752 0.11417 0.0
N52 N 0.76172 0.8813 0.1677 0.0
C53 C 0.75024 0.87759 0.20819 0.0
C54 C 0.73598 0.87077 0.17855 0.0
C55 C 0.7288 0.86603 0.06676 0.0
H56 H 0.73351 0.8754 0.03246 0.0
H57 H 0.72796 0.85538 0.04646 0.0
H58 H 0.71693 0.86348 0.0803 0.0
O59 O 0.78184 0.90681 0.04545 0.0
O60 O 0.79344 0.91217 0.13433 0.0
H61 H 0.76324 0.89224 0.28199 0.0
H62 H 0.74256 0.88009 0.29636 0.0
C63 C 0.75281 0.88061 0.27388 0.0
H64 H 0.75475 0.8715 0.2941 0.0
H65 H 0.80036 0.91867 0.263 0.0
O66 O 0.75711 0.87646 0.97167 0.0
C67 C 0.79131 0.91658 0.08342 0.0
Co68 Co 0.11105 0.88505 0.04789 0.0
Co69 Co 0.10158 0.89147 0.17358 0.0
C70 C 0.1188 0.91713 0.08482 0.0
O71 O 0.11932 0.90767 0.04786 0.0
O72 O 0.11213 0.9125 0.13528 0.0
C73 C 0.13185 0.89065 0.95254 0.0
O74 O 0.14136 0.90229 0.98729 0.0
C75 C 0.11 0.90329 0.29446 0.0
C76 C 0.08793 0.8891 0.34387 0.0
C77 C 0.10369 0.89987 0.35162 0.0
N78 N 0.09864 0.89452 0.25532 0.0
N79 N 0.08537 0.88635 0.28487 0.0
C80 C 0.12655 0.9146 0.27664 0.0
H81 H 0.12666 0.92094 0.23564 0.0
H82 H 0.13278 0.90814 0.26624 0.0
H83 H 0.13286 0.92322 0.31264 0.0
C84 C 0.1259 0.87116 0.12154 0.0
N85 N 0.11795 0.87889 0.11548 0.0
N86 N 0.11349 0.881 0.16846 0.0
C87 C 0.1181 0.8742 0.20986 0.0
C88 C 0.12634 0.86806 0.18168 0.0
C89 C 0.13292 0.86699 0.07054 0.0
H90 H 0.14159 0.87785 0.04755 0.0
H91 H 0.13887 0.86058 0.08552 0.0
H92 H 0.12362 0.85977 0.03784 0.0
O93 O 0.08785 0.87409 0.04588 0.0
O94 O 0.081 0.8784 0.13551 0.0
H95 H 0.11279 0.86099 0.29199 0.0
H96 H 0.12111 0.88167 0.30102 0.0
C97 C 0.11288 0.8715 0.27376 0.0
H98 H 0.10095 0.8698 0.27776 0.0
H99 H 0.07479 0.87825 0.26517 0.0
O100 O 0.11837 0.88072 0.9721 0.0
C101 C 0.07739 0.87236 0.08352 0.0
Co102 Co 0.22398 0.10795 0.93767 0.0
Co103 Co 0.20773 0.10368 0.81367 0.0
C104 C 0.1998 0.07647 0.89365 0.0
O105 O 0.20967 0.08534 0.93229 0.0
O106 O 0.1977 0.08192 0.84524 0.0
C107 C 0.23826 0.10087 0.03351 0.0
O108 O 0.23498 0.08864 0.00021 0.0
C109 C 0.20416 0.09462 0.68911 0.0
C110 C 0.19501 0.10891 0.64919 0.0
C111 C 0.20048 0.09881 0.63483 0.0
N112 N 0.2013 0.10215 0.73289 0.0
N113 N 0.19545 0.11037 0.70904 0.0
C114 C 0.21209 0.08525 0.69943 0.0
H115 H 0.21707 0.08723 0.74515 0.0
H116 H 0.2215 0.08828 0.66603 0.0
H117 H 0.20337 0.07263 0.69461 0.0
C118 C 0.2525 0.12292 0.86259 0.0
N119 N 0.23685 0.11534 0.86957 0.0
N120 N 0.23014 0.11444 0.81775 0.0
C121 C 0.24143 0.12207 0.77649 0.0
C122 C 0.25592 0.1274 0.80321 0.0
C123 C 0.26377 0.12543 0.91185 0.0
H124 H 0.25956 0.1144 0.93726 0.0
H125 H 0.27567 0.12921 0.89453 0.0
H126 H 0.26428 0.13442 0.94301 0.0
O127 O 0.21168 0.11879 0.94641 0.0
O128 O 0.1999 0.11548 0.85867 0.0
H129 H 0.24888 0.13732 0.69961 0.0
H130 H 0.23708 0.11688 0.68322 0.0
C131 C 0.23869 0.12618 0.71497 0.0
H132 H 0.22818 0.12749 0.71436 0.0
H133 H 0.19265 0.11767 0.73322 0.0
O134 O 0.23582 0.11145 0.01274 0.0
C135 C 0.20257 0.1208 0.91179 0.0
Co136 Co 0.88537 0.11249 0.95465 0.0
Co137 Co 0.89061 0.10303 0.82751 0.0
C138 C 0.91749 0.12292 0.90721 0.0
O139 O 0.90818 0.12222 0.94781 0.0
O140 O 0.91238 0.1161 0.85729 0.0
C141 C 0.8913 0.13391 0.04869 0.0
O142 O 0.90236 0.1436 0.01226 0.0
C143 C 0.89983 0.10937 0.70307 0.0
C144 C 0.88496 0.0863 0.66101 0.0
C145 C 0.89543 0.10189 0.64809 0.0
N146 N 0.89206 0.09876 0.74595 0.0
N147 N 0.88351 0.08491 0.72078 0.0
C148 C 0.90966 0.12656 0.71494 0.0
H149 H 0.90733 0.12944 0.76034 0.0
H150 H 0.90737 0.13342 0.68125 0.0
H151 H 0.9222 0.12998 0.71206 0.0
C152 C 0.86812 0.12461 0.88588 0.0
N153 N 0.87691 0.11771 0.88919 0.0
N154 N 0.87843 0.11318 0.83549 0.0
C155 C 0.87019 0.11668 0.79643 0.0
C156 C 0.86357 0.12417 0.82708 0.0
C157 C 0.86356 0.13076 0.93862 0.0
H158 H 0.85919 0.12192 0.9749 0.0
H159 H 0.87403 0.14143 0.95547 0.0
H160 H 0.85438 0.13367 0.92689 0.0
O161 O 0.87574 0.08949 0.96046 0.0
O162 O 0.88011 0.08287 0.87066 0.0
H163 H 0.86714 0.1012 0.7238 0.0
H164 H 0.85868 0.11337 0.7105 0.0
C165 C 0.86868 0.11298 0.73102 0.0
H166 H 0.8794 0.12178 0.70776 0.0
H167 H 0.87599 0.07472 0.7441 0.0
O168 O 0.88177 0.1201 0.03104 0.0
C169 C 0.87464 0.07918 0.92344 0.0
Co170 Co 0.88233 0.77043 0.95236 0.0
Co171 Co 0.89043 0.78521 0.82469 0.0
C172 C 0.872 0.79265 0.91071 0.0
O173 O 0.87277 0.7837 0.94961 0.0
O174 O 0.87838 0.79445 0.85974 0.0
C175 C 0.86155 0.75457 0.04701 0.0
O176 O 0.85159 0.75545 0.01049 0.0
C177 C 0.88268 0.78941 0.7033 0.0
C178 C 0.90415 0.79469 0.65385 0.0
C179 C 0.88888 0.79148 0.64616 0.0
N180 N 0.89359 0.79074 0.74249 0.0
N181 N 0.90654 0.79432 0.71289 0.0
C182 C 0.86668 0.78616 0.7211 0.0
H183 H 0.86782 0.795 0.75432 0.0
H184 H 0.8602 0.77454 0.74297 0.0
H185 H 0.85995 0.78669 0.6824 0.0
C186 C 0.86917 0.74109 0.88262 0.0
N187 N 0.87614 0.75678 0.88645 0.0
N188 N 0.87971 0.76288 0.83246 0.0
C189 C 0.8753 0.75116 0.79248 0.0
C190 C 0.86843 0.73702 0.823 0.0
C191 C 0.8642 0.73034 0.93533 0.0
H192 H 0.87343 0.73526 0.97015 0.0
H193 H 0.85338 0.72936 0.9545 0.0
H194 H 0.86189 0.7185 0.92265 0.0
O195 O 0.90535 0.78367 0.95422 0.0
O196 O 0.91122 0.79427 0.86355 0.0
H197 H 0.88971 0.76214 0.71595 0.0
H198 H 0.87417 0.74241 0.70222 0.0
C199 C 0.87738 0.75341 0.72625 0.0
H200 H 0.86974 0.75776 0.70934 0.0
H201 H 0.91671 0.79564 0.73264 0.0
O202 O 0.87543 0.75926 0.02912 0.0
C203 C 0.91536 0.79255 0.91563 0.0
Co204 Co 0.77612 0.55657 0.38979 0.0
Co205 Co 0.76904 0.54126 0.51652 0.0
C206 C 0.74356 0.53337 0.42802 0.0
O207 O 0.75337 0.54246 0.38968 0.0
O208 O 0.74793 0.53184 0.47974 0.0
C209 C 0.77101 0.57209 0.29472 0.0
O210 O 0.75959 0.57033 0.32995 0.0
C211 C 0.75743 0.5385 0.63755 0.0
C212 C 0.77131 0.53032 0.6873 0.0
C213 C 0.76079 0.53564 0.69478 0.0
N214 N 0.766 0.53558 0.59854 0.0
N215 N 0.77398 0.53031 0.62831 0.0
C216 C 0.74634 0.544 0.61955 0.0
H217 H 0.7394 0.53723 0.58038 0.0
H218 H 0.75303 0.55647 0.60607 0.0
H219 H 0.7382 0.54255 0.6564 0.0
C220 C 0.79076 0.58566 0.46173 0.0
N221 N 0.78264 0.56995 0.45662 0.0
N222 N 0.78035 0.56359 0.51007 0.0
C223 C 0.78735 0.57514 0.55083 0.0
C224 C 0.79387 0.58942 0.52172 0.0
C225 C 0.79522 0.59669 0.41004 0.0
H226 H 0.80179 0.59389 0.37676 0.0
H227 H 0.78444 0.59509 0.38815 0.0
H228 H 0.80236 0.60908 0.42409 0.0
O229 O 0.78668 0.54402 0.38915 0.0
O230 O 0.78115 0.53255 0.47832 0.0
H231 H 0.79107 0.56241 0.62074 0.0
H232 H 0.80023 0.58315 0.63361 0.0
C233 C 0.78967 0.57279 0.61532 0.0
H234 H 0.77945 0.57118 0.6415 0.0
H235 H 0.78188 0.52753 0.60873 0.0
O236 O 0.78063 0.56805 0.31363 0.0
C237 C 0.78759 0.53488 0.42709 0.0
Co238 Co 0.43421 0.21449 0.36029 0.0
Co239 Co 0.45055 0.22442 0.48474 0.0
C240 C 0.45706 0.20493 0.40048 0.0
O241 O 0.44784 0.20538 0.36217 0.0
O242 O 0.45916 0.21164 0.45084 0.0
C243 C 0.41853 0.19292 0.26819 0.0
O244 O 0.4211 0.18383 0.30361 0.0
C245 C 0.45403 0.21702 0.60675 0.0
C246 C 0.46447 0.23996 0.65189 0.0
C247 C 0.45837 0.2241 0.66233 0.0
N248 N 0.45703 0.2281 0.56576 0.0
N249 N 0.46361 0.24185 0.59268 0.0
C250 C 0.44721 0.20002 0.59205 0.0
H251 H 0.43542 0.19539 0.57218 0.0
H252 H 0.44655 0.19304 0.6319 0.0
H253 H 0.45464 0.19873 0.55792 0.0
C254 C 0.40578 0.20181 0.43487 0.0
N255 N 0.42142 0.20901 0.42841 0.0
N256 N 0.42817 0.21413 0.48072 0.0
C257 C 0.41693 0.21094 0.52179 0.0
C258 C 0.40244 0.20281 0.49421 0.0
C259 C 0.39435 0.19492 0.38452 0.0
H260 H 0.39763 0.20373 0.34848 0.0
H261 H 0.39491 0.1848 0.36586 0.0
H262 H 0.38221 0.191 0.39939 0.0
O263 O 0.44731 0.23755 0.35424 0.0
O264 O 0.45955 0.2446 0.44184 0.0
H265 H 0.43076 0.2274 0.59006 0.0
H266 H 0.41007 0.21687 0.60527 0.0
C267 C 0.41989 0.21593 0.58584 0.0
H268 H 0.42105 0.20706 0.61193 0.0
H269 H 0.46681 0.25241 0.57111 0.0
O270 O 0.42201 0.20651 0.28606 0.0
C271 C 0.45698 0.24804 0.38976 0.0
Co272 Co 0.77644 0.21633 0.39057 0.0
Co273 Co 0.76818 0.2245 0.51511 0.0
C274 C 0.78568 0.24923 0.42473 0.0
O275 O 0.78475 0.23899 0.38819 0.0
O276 O 0.77996 0.24541 0.47697 0.0
C277 C 0.79753 0.22232 0.29765 0.0
O278 O 0.80669 0.23356 0.33453 0.0
C279 C 0.77647 0.2369 0.63519 0.0
C280 C 0.75373 0.22529 0.68216 0.0
C281 C 0.76964 0.23515 0.69086 0.0
N282 N 0.76516 0.22824 0.59575 0.0
N283 N 0.75154 0.22156 0.62372 0.0
C284 C 0.79339 0.24686 0.61881 0.0
H285 H 0.79456 0.2557 0.58548 0.0
H286 H 0.79767 0.23961 0.59714 0.0
H287 H 0.80074 0.25301 0.65813 0.0
C288 C 0.79064 0.20212 0.46583 0.0
N289 N 0.78327 0.21039 0.45898 0.0
N290 N 0.77918 0.21311 0.51171 0.0
C291 C 0.78347 0.20619 0.55378 0.0
C292 C 0.7911 0.19931 0.52625 0.0
C293 C 0.79707 0.19715 0.41521 0.0
H294 H 0.80583 0.20766 0.39066 0.0
H295 H 0.80276 0.19054 0.43084 0.0
H296 H 0.78749 0.18985 0.38364 0.0
O297 O 0.7533 0.20548 0.3891 0.0
O298 O 0.74748 0.21205 0.4765 0.0
H299 H 0.77775 0.19352 0.63715 0.0
H300 H 0.78769 0.21438 0.6438 0.0
C301 C 0.77868 0.20434 0.61807 0.0
H302 H 0.76725 0.20378 0.62296 0.0
H303 H 0.74085 0.21399 0.60344 0.0
O304 O 0.78402 0.21195 0.3155 0.0
C305 C 0.74329 0.205 0.4264 0.0
Co306 Co 0.88997 0.44261 0.27808 0.0
Co307 Co 0.87346 0.43558 0.15383 0.0
C308 C 0.86715 0.41002 0.24076 0.0
O309 O 0.87674 0.41978 0.2781 0.0
O310 O 0.86468 0.41451 0.19075 0.0
C311 C 0.90642 0.43854 0.3732 0.0
O312 O 0.90483 0.42691 0.33962 0.0
C313 C 0.87019 0.42416 0.03253 0.0
C314 C 0.86155 0.43791 0.98472 0.0
C315 C 0.86717 0.42768 0.97577 0.0
N316 N 0.86713 0.43241 0.07253 0.0
N317 N 0.86155 0.44028 0.04394 0.0
C318 C 0.87608 0.41331 0.04921 0.0
H319 H 0.8698 0.40645 0.08928 0.0
H320 H 0.88869 0.42019 0.06066 0.0
H321 H 0.87434 0.40508 0.01233 0.0
C322 C 0.91837 0.45812 0.20265 0.0
N323 N 0.90274 0.44965 0.20973 0.0
N324 N 0.89586 0.44735 0.15734 0.0
C325 C 0.907 0.45471 0.11531 0.0
C326 C 0.92156 0.46149 0.14244 0.0
C327 C 0.92988 0.46263 0.25274 0.0
H328 H 0.92771 0.46971 0.28583 0.0
H329 H 0.92811 0.45191 0.2756 0.0
H330 H 0.94215 0.46932 0.23681 0.0
O331 O 0.87664 0.45232 0.28225 0.0
O332 O 0.86468 0.44732 0.19421 0.0
H333 H 0.89337 0.45823 0.04874 0.0
H334 H 0.91399 0.46783 0.03276 0.0
C335 C 0.90396 0.45711 0.05172 0.0
H336 H 0.90231 0.44704 0.02448 0.0
H337 H 0.85867 0.44801 0.06444 0.0
O338 O 0.90207 0.44778 0.3528 0.0
C339 C 0.86717 0.45333 0.24627 0.0
Co340 Co 0.54915 0.443 0.2876 0.0
Co341 Co 0.55765 0.43803 0.15825 0.0
C342 C 0.58244 0.45406 0.24783 0.0
O343 O 0.57206 0.45192 0.2862 0.0
O344 O 0.57876 0.44953 0.1941 0.0
C345 C 0.55424 0.46368 0.38149 0.0
O346 O 0.56438 0.47355 0.34273 0.0
C347 C 0.57019 0.44532 0.03657 0.0
C348 C 0.55191 0.42517 0.98645 0.0
C349 C 0.56548 0.43947 0.97928 0.0
N350 N 0.55961 0.43516 0.07544 0.0
N351 N 0.54893 0.42295 0.04536 0.0
C352 C 0.58449 0.46023 0.05471 0.0
H353 H 0.59173 0.45737 0.08424 0.0
H354 H 0.58109 0.46759 0.08105 0.0
H355 H 0.59168 0.46685 0.01567 0.0
C356 C 0.53251 0.45618 0.22133 0.0
N357 N 0.5422 0.45029 0.22349 0.0
N358 N 0.54634 0.44893 0.16892 0.0
C359 C 0.53975 0.45441 0.13017 0.0
C360 C 0.53059 0.45901 0.162 0.0
C361 C 0.52407 0.4575 0.27463 0.0
H362 H 0.52169 0.44808 0.30714 0.0
H363 H 0.53158 0.46894 0.2967 0.0
H364 H 0.51285 0.45672 0.26162 0.0
O365 O 0.53881 0.42012 0.28473 0.0
O366 O 0.54561 0.41667 0.19381 0.0
H367 H 0.53672 0.44399 0.04374 0.0
H368 H 0.53858 0.46319 0.04235 0.0
C369 C 0.54267 0.4558 0.0642 0.0
H370 H 0.55536 0.46133 0.05582 0.0
H371 H 0.53917 0.41349 0.06481 0.0
O372 O 0.54516 0.4496 0.36554 0.0
C373 C 0.53864 0.41118 0.24343 0.0
Co374 Co 0.54788 0.10088 0.28013 0.0
Co375 Co 0.55847 0.11758 0.15655 0.0
C376 C 0.5385 0.12387 0.2386 0.0
O377 O 0.53876 0.11455 0.27704 0.0
O378 O 0.5455 0.12613 0.18873 0.0
C379 C 0.52672 0.08562 0.37551 0.0
O380 O 0.51726 0.08814 0.34202 0.0
C381 C 0.55342 0.12193 0.03177 0.0
C382 C 0.57737 0.13268 0.99494 0.0
C383 C 0.56183 0.1267 0.97865 0.0
N384 N 0.56351 0.12466 0.07659 0.0
N385 N 0.57785 0.13144 0.05461 0.0
C386 C 0.53602 0.1134 0.03996 0.0
H387 H 0.53278 0.10772 0.0845 0.0
H388 H 0.53016 0.10448 0.00449 0.0
H389 H 0.53179 0.12189 0.03695 0.0
C390 C 0.53544 0.07265 0.20412 0.0
N391 N 0.54272 0.08827 0.21137 0.0
N392 N 0.54783 0.09519 0.15929 0.0
C393 C 0.54435 0.08409 0.1174 0.0
C394 C 0.53617 0.0695 0.14421 0.0
C395 C 0.52778 0.06113 0.25375 0.0
H396 H 0.53687 0.06223 0.28576 0.0
H397 H 0.51968 0.06389 0.27815 0.0
H398 H 0.52113 0.04893 0.23704 0.0
O399 O 0.57091 0.11377 0.28834 0.0
O400 O 0.57829 0.12618 0.20139 0.0
H401 H 0.55172 0.07735 0.03742 0.0
H402 H 0.54194 0.08826 0.02526 0.0
C403 C 0.55039 0.08718 0.05456 0.0
H404 H 0.5619 0.09806 0.05229 0.0
H405 H 0.58785 0.13445 0.07987 0.0
O406 O 0.53995 0.08872 0.3546 0.0
C407 C 0.58155 0.12345 0.25342 0.0
Co408 Co 0.44464 0.88893 0.71249 0.0
Co409 Co 0.43646 0.8744 0.84025 0.0
C410 C 0.41145 0.86786 0.75212 0.0
O411 O 0.42165 0.87628 0.71359 0.0
O412 O 0.41543 0.86604 0.80419 0.0
C413 C 0.44106 0.90568 0.61818 0.0
O414 O 0.43075 0.90574 0.65523 0.0
C415 C 0.42415 0.8702 0.96142 0.0
C416 C 0.44037 0.86501 0.01111 0.0
C417 C 0.42827 0.86817 0.01863 0.0
N418 N 0.43379 0.86891 0.92239 0.0
N419 N 0.44316 0.86536 0.95215 0.0
C420 C 0.41134 0.87334 0.94344 0.0
H421 H 0.40383 0.8646 0.90956 0.0
H422 H 0.41644 0.88505 0.92235 0.0
H423 H 0.4039 0.87253 0.98196 0.0
C424 C 0.46165 0.91828 0.78169 0.0
N425 N 0.45221 0.90267 0.7781 0.0
N426 N 0.44891 0.89668 0.83229 0.0
C427 C 0.45627 0.90839 0.87224 0.0
C428 C 0.46455 0.92242 0.84141 0.0
C429 C 0.4686 0.92883 0.72883 0.0
H430 H 0.47221 0.92308 0.69481 0.0
H431 H 0.45962 0.93104 0.70862 0.0
H432 H 0.47888 0.94019 0.74175 0.0
O433 O 0.4538 0.87516 0.71263 0.0
O434 O 0.44748 0.86439 0.80286 0.0
H435 H 0.45888 0.89777 0.95152 0.0
H436 H 0.46235 0.91735 0.96307 0.0
C437 C 0.45516 0.90626 0.93865 0.0
H438 H 0.44288 0.90161 0.95264 0.0
H439 H 0.45205 0.86408 0.93253 0.0
O440 O 0.4495 0.90006 0.63565 0.0
C441 C 0.45391 0.86591 0.75203 0.0
Co442 Co 0.10094 0.55023 0.70537 0.0
Co443 Co 0.11667 0.55789 0.83104 0.0
C444 C 0.1228 0.53899 0.74369 0.0
O445 O 0.11408 0.54049 0.70584 0.0
O446 O 0.12483 0.54498 0.79548 0.0
C447 C 0.08507 0.52922 0.61274 0.0
O448 O 0.08611 0.51957 0.65038 0.0
C449 C 0.12071 0.54979 0.95137 0.0
C450 C 0.13131 0.57246 -0.00142 0.0
C451 C 0.12564 0.55661 0.00706 0.0
N452 N 0.12315 0.56103 0.91199 0.0
N453 N 0.12977 0.57463 0.94011 0.0
C454 C 0.11403 0.53292 0.93495 0.0
H455 H 0.12366 0.5312 0.91823 0.0
H456 H 0.10539 0.52971 0.89827 0.0
H457 H 0.1086 0.52509 0.97385 0.0
C458 C 0.07221 0.5379 0.77804 0.0
N459 N 0.08782 0.54439 0.77269 0.0
N460 N 0.09431 0.54801 0.82602 0.0
C461 C 0.08294 0.5442 0.8671 0.0
C462 C 0.06859 0.53756 0.83801 0.0
C463 C 0.06115 0.53306 0.72631 0.0
H464 H 0.06601 0.54225 0.69137 0.0
H465 H 0.05989 0.52215 0.70672 0.0
H466 H 0.04945 0.53095 0.74012 0.0
O467 O 0.11443 0.57321 0.70269 0.0
O468 O 0.12627 0.57858 0.79108 0.0
H469 H 0.09595 0.55823 0.94209 0.0
H470 H 0.07543 0.54548 0.9573 0.0
C471 C 0.08569 0.54656 0.933 0.0
H472 H 0.08801 0.53744 0.95058 0.0
H473 H 0.13268 0.58527 0.91988 0.0
O474 O 0.08925 0.54306 0.62979 0.0
C475 C 0.12411 0.58297 0.74017 0.0
Co476 Co 0.44192 0.54963 0.72788 0.0
Co477 Co 0.4331 0.55773 0.8518 0.0
C478 C 0.45401 0.58284 0.7686 0.0
O479 O 0.45279 0.57263 0.7311 0.0
O480 O 0.44704 0.57892 0.81878 0.0
C481 C 0.46261 0.55392 0.6324 0.0
O482 O 0.47288 0.56509 0.66703 0.0
C483 C 0.43773 0.56806 0.97673 0.0
C484 C 0.41389 0.55334 0.0129 0.0
C485 C 0.42917 0.56386 0.02969 0.0
N486 N 0.42799 0.55998 0.93172 0.0
N487 N 0.41369 0.55156 0.95335 0.0
C488 C 0.45505 0.57832 0.96896 0.0
H489 H 0.45881 0.57626 0.92479 0.0
H490 H 0.46149 0.57616 0.00488 0.0
H491 H 0.45807 0.59074 0.97149 0.0
C492 C 0.45194 0.53174 0.80319 0.0
N493 N 0.4461 0.54137 0.7964 0.0
N494 N 0.44232 0.54451 0.84899 0.0
C495 C 0.44558 0.53676 0.89119 0.0
C496 C 0.45186 0.52848 0.86351 0.0
C497 C 0.45672 0.52522 0.75226 0.0
H498 H 0.44804 0.52172 0.7156 0.0
H499 H 0.4682 0.53444 0.73485 0.0
H500 H 0.45768 0.51495 0.76624 0.0
O501 O 0.41918 0.54109 0.72034 0.0
O502 O 0.41314 0.54787 0.80665 0.0
H503 H 0.43155 0.53607 0.96561 0.0
H504 H 0.44501 0.52939 0.98363 0.0
C505 C 0.44339 0.53788 0.95689 0.0
H506 H 0.45223 0.54964 0.97257 0.0
H507 H 0.40396 0.54392 0.92799 0.0
O508 O 0.44901 0.54466 0.65281 0.0
C509 C 0.40923 0.54152 0.7553 0.0
Co510 Co 0.55677 0.77367 0.60126 0.0
Co511 Co 0.53932 0.7677 0.47931 0.0
C512 C 0.53484 0.74141 0.55959 0.0
O513 O 0.54461 0.75086 0.59709 0.0
O514 O 0.53146 0.74626 0.51238 0.0
C515 C 0.57311 0.76899 0.69522 0.0
O516 O 0.57044 0.75683 0.66264 0.0
C517 C 0.53773 0.75861 0.35605 0.0
C518 C 0.5246 0.76861 0.31275 0.0
C519 C 0.53293 0.76102 0.30089 0.0
N520 N 0.53287 0.76487 0.39826 0.0
N521 N 0.52472 0.77055 0.3724 0.0
C522 C 0.54697 0.75065 0.3689 0.0
H523 H 0.54286 0.7439 0.41105 0.0
H524 H 0.55949 0.75951 0.37482 0.0
H525 H 0.54587 0.74268 0.33184 0.0
C526 C 0.58451 0.79113 0.52408 0.0
N527 N 0.56899 0.782 0.53242 0.0
N528 N 0.56163 0.78067 0.48186 0.0
C529 C 0.57226 0.78971 0.44041 0.0
C530 C 0.58711 0.7963 0.4653 0.0
C531 C 0.59647 0.79448 0.5715 0.0
H532 H 0.59686 0.80346 0.60244 0.0
H533 H 0.59311 0.78372 0.59756 0.0
H534 H 0.60828 0.79874 0.55217 0.0
O535 O 0.54238 0.78225 0.61069 0.0
O536 O 0.52982 0.77798 0.52408 0.0
H537 H 0.55672 0.79334 0.38378 0.0
H538 H 0.57727 0.80625 0.36913 0.0
C539 C 0.56831 0.79413 0.38164 0.0
H540 H 0.56816 0.78622 0.34635 0.0
H541 H 0.51993 0.7764 0.39505 0.0
O542 O 0.56944 0.77875 0.67476 0.0
C543 C 0.5324 0.78322 0.57738 0.0
Co544 Co 0.21694 0.77877 0.61899 0.0
Co545 Co 0.22418 0.77074 0.49236 0.0
C546 C 0.24975 0.78954 0.5786 0.0
O547 O 0.23985 0.78857 0.6171 0.0
O548 O 0.24539 0.78318 0.52751 0.0
C549 C 0.22126 0.79947 0.71348 0.0
O550 O 0.23214 0.80962 0.67753 0.0
C551 C 0.23622 0.77786 0.37076 0.0
C552 C 0.21947 0.75641 0.32258 0.0
C553 C 0.23179 0.77151 0.31395 0.0
N554 N 0.22654 0.76724 0.41059 0.0
N555 N 0.21685 0.75427 0.38174 0.0
C556 C 0.24934 0.79375 0.38763 0.0
H557 H 0.25673 0.79248 0.42195 0.0
H558 H 0.24455 0.80075 0.40775 0.0
H559 H 0.25685 0.80002 0.34875 0.0
C560 C 0.20072 0.79162 0.54774 0.0
N561 N 0.20948 0.78471 0.55244 0.0
N562 N 0.21229 0.78122 0.49876 0.0
C563 C 0.20519 0.78569 0.45807 0.0
C564 C 0.1977 0.79246 0.48784 0.0
C565 C 0.1947 0.79653 0.59987 0.0
H566 H 0.19042 0.78738 0.63495 0.0
H567 H 0.20441 0.80747 0.61898 0.0
H568 H 0.18508 0.79865 0.58652 0.0
O569 O 0.20737 0.7558 0.62171 0.0
O570 O 0.21282 0.75005 0.53219 0.0
H571 H 0.20207 0.7716 0.38089 0.0
H572 H 0.1986 0.78761 0.36693 0.0
C573 C 0.20592 0.78395 0.39187 0.0
H574 H 0.21812 0.7914 0.37667 0.0
H575 H 0.20785 0.74432 0.40208 0.0
O576 O 0.21232 0.78559 0.69508 0.0
C577 C 0.20671 0.74586 0.58387 0.0
Co578 Co 0.21516 0.43753 0.60296 0.0
Co579 Co 0.22436 0.45397 0.47836 0.0
C580 C 0.20392 0.45915 0.5615 0.0
O581 O 0.20509 0.45036 0.60001 0.0
O582 O 0.21059 0.46154 0.51085 0.0
C583 C 0.1943 0.42157 0.69804 0.0
O584 O 0.18446 0.42323 0.6635 0.0
C585 C 0.21803 0.45706 0.35401 0.0
C586 C 0.24158 0.46753 0.31362 0.0
C587 C 0.22584 0.46109 0.29959 0.0
N588 N 0.22864 0.46062 0.3976 0.0
N589 N 0.24274 0.46728 0.37344 0.0
C590 C 0.20072 0.44818 0.36453 0.0
H591 H 0.19802 0.44298 0.40996 0.0
H592 H 0.19474 0.43883 0.33062 0.0
H593 H 0.1961 0.45634 0.36065 0.0
C594 C 0.20345 0.40916 0.52833 0.0
N595 N 0.21021 0.42477 0.53489 0.0
N596 N 0.21483 0.43161 0.4824 0.0
C597 C 0.21155 0.42046 0.44088 0.0
C598 C 0.204 0.40593 0.4684 0.0
C599 C 0.1963 0.39773 0.57857 0.0
H600 H 0.20553 0.39974 0.61151 0.0
H601 H 0.18753 0.39976 0.6016 0.0
H602 H 0.1905 0.38544 0.5628 0.0
O603 O 0.23811 0.45125 0.60907 0.0
O604 O 0.24442 0.46398 0.52243 0.0
H605 H 0.21868 0.41383 0.36001 0.0
H606 H 0.20828 0.42417 0.34908 0.0
C607 C 0.21711 0.42349 0.37743 0.0
H608 H 0.22842 0.43456 0.37403 0.0
H609 H 0.25302 0.47072 0.39739 0.0
O610 O 0.20788 0.42557 0.67821 0.0
C611 C 0.2482 0.46145 0.57388 0.0
H612 H 0.08966 0.22692 0.37022 0.0
H613 H 0.0877 0.23648 0.46849 0.0
H614 H 0.09129 0.19896 0.55157 0.0
H615 H 0.09254 0.18889 0.45308 0.0
H616 H 0.07034 0.20599 0.60978 0.0
H617 H 0.12801 0.25925 0.56621 0.0
H618 H 0.11258 0.25549 0.51458 0.0
H619 H 0.12014 0.2423 0.5183 0.0
C620 C 0.08929 0.22026 0.40915 0.0
C621 C 0.09094 0.20694 0.40391 0.0
C622 C 0.08847 0.22593 0.46539 0.0
C623 C 0.0896 0.21857 0.51716 0.0
C624 C 0.0904 0.20481 0.51205 0.0
H625 H 0.12736 0.24116 0.85767 0.0
H626 H 0.12196 0.23886 0.7508 0.0
C627 C 0.09112 0.19908 0.45587 0.0
C628 C 0.09139 0.2258 0.5766 0.0
H629 H 0.11753 0.25637 0.66239 0.0
C630 C 0.0805 0.21714 0.62124 0.0
C631 C 0.10475 0.2403 0.59115 0.0
C632 C 0.11713 0.24987 0.54532 0.0
C633 C 0.08297 0.22221 0.68082 0.0
C634 C 0.09657 0.23649 0.69568 0.0
C635 C 0.10707 0.24552 0.65053 0.0
C636 C 0.10121 0.24095 0.75857 0.0
C637 C 0.07154 0.21176 0.72787 0.0
C638 C 0.09181 0.24374 0.79788 0.0
C639 C 0.09483 0.245 0.85925 0.0
C640 C 0.10734 0.24353 0.88192 0.0
C641 C 0.11754 0.24217 0.84173 0.0
C642 C 0.11448 0.24088 0.78057 0.0
H643 H 0.06303 0.20001 0.71002 0.0
H644 H 0.07784 0.21024 0.76606 0.0
H645 H 0.06485 0.21723 0.74503 0.0
H646 H 0.0817 0.24416 0.78147 0.0
H647 H 0.08684 0.2462 0.88902 0.0
H648 H 0.81223 0.89421 0.4418 0.0
H649 H 0.80487 0.88403 0.54387 0.0
H650 H 0.75626 0.85883 0.49118 0.0
H651 H 0.76368 0.86841 0.3895 0.0
H652 H 0.78879 0.89108 0.61334 0.0
H653 H 0.75668 0.82673 0.5962 0.0
H654 H 0.76842 0.83909 0.53559 0.0
H655 H 0.74852 0.8348 0.54561 0.0
C656 C 0.80006 0.88607 0.45194 0.0
C657 C 0.78854 0.88179 0.40789 0.0
C658 C 0.79584 0.88027 0.51003 0.0
C659 C 0.78001 0.8704 0.52506 0.0
C660 C 0.76857 0.8659 0.48044 0.0
H661 H 0.74372 0.87538 0.86755 0.0
H662 H 0.74831 0.87492 0.7603 0.0
C663 C 0.77282 0.87146 0.42228 0.0
C664 C 0.77522 0.86676 0.58844 0.0
H665 H 0.75054 0.83756 0.68275 0.0
C666 C 0.78062 0.87932 0.62859 0.0
C667 C 0.76467 0.85141 0.6087 0.0
C668 C 0.7594 0.83725 0.56928 0.0
C669 C 0.77541 0.87707 0.68777 0.0
C670 C 0.76394 0.86192 0.70675 0.0
C671 C 0.75897 0.84923 0.66749 0.0
C672 C 0.75753 0.85916 0.76806 0.0
C673 C 0.78241 0.89098 0.72947 0.0
C674 C 0.75983 0.84933 0.80679 0.0
C675 C 0.75681 0.84924 0.86776 0.0
C676 C 0.75164 0.85915 0.89069 0.0
C677 C 0.74789 0.86779 0.85101 0.0
C678 C 0.75062 0.86763 0.78993 0.0
H679 H 0.79398 0.90037 0.71326 0.0
H680 H 0.77452 0.89595 0.73206 0.0
H681 H 0.78392 0.88755 0.77517 0.0
H682 H 0.76499 0.84257 0.79062 0.0
H683 H 0.75979 0.84244 0.89733 0.0
H684 H 0.11384 0.86956 0.86707 0.0
H685 H 0.11625 0.87355 0.7594 0.0
H686 H 0.15968 0.91688 0.78357 0.0
H687 H 0.15723 0.91312 0.89181 0.0
H688 H 0.13848 0.92089 0.72162 0.0
H689 H 0.1422 0.87149 0.62401 0.0
H690 H 0.12636 0.86466 0.67633 0.0
H691 H 0.14619 0.87676 0.70196 0.0
C692 C 0.12414 0.87972 0.84953 0.0
C693 C 0.13524 0.89112 0.88804 0.0
C694 C 0.12556 0.88194 0.78781 0.0
C695 C 0.13819 0.89548 0.76345 0.0
C696 C 0.14987 0.90634 0.80154 0.0
H697 H 0.13229 0.90277 0.37661 0.0
H698 H 0.14397 0.9051 0.47446 0.0
C699 C 0.14845 0.90414 0.86338 0.0
C700 C 0.13782 0.89928 0.69976 0.0
H701 H 0.13095 0.88329 0.5604 0.0
C702 C 0.13719 0.91285 0.6861 0.0
C703 C 0.13634 0.88892 0.65338 0.0
C704 C 0.13798 0.87474 0.66463 0.0
C705 C 0.13407 0.91578 0.62791 0.0
C706 C 0.13121 0.90469 0.58262 0.0
C707 C 0.13291 0.89168 0.59541 0.0
C708 C 0.1253 0.90566 0.52297 0.0
C709 C 0.13352 0.93054 0.61584 0.0
C710 C 0.11099 0.90541 0.51765 0.0
C711 C 0.10438 0.90434 0.46147 0.0
C712 C 0.11194 0.9035 0.40965 0.0
C713 C 0.12642 0.90406 0.41511 0.0
C714 C 0.13305 0.90517 0.47125 0.0
H715 H 0.14095 0.93993 0.64799 0.0
H716 H 0.13747 0.93489 0.56974 0.0
H717 H 0.12131 0.92807 0.62115 0.0
H718 H 0.10459 0.90533 0.55708 0.0
H719 H 0.09309 0.90367 0.45866 0.0
H720 H 0.21167 0.12009 0.54521 0.0
H721 H 0.22126 0.11766 0.44759 0.0
H722 H 0.20987 0.0705 0.49021 0.0
H723 H 0.19965 0.07263 0.58742 0.0
H724 H 0.24587 0.11123 0.42526 0.0
H725 H 0.18908 0.06635 0.32668 0.0
H726 H 0.19008 0.0773 0.39275 0.0
H727 H 0.19438 0.06168 0.39737 0.0
C728 C 0.21099 0.10911 0.53357 0.0
C729 C 0.20509 0.09661 0.57433 0.0
C730 C 0.21661 0.1078 0.47802 0.0
C731 C 0.21632 0.09394 0.46188 0.0
C732 C 0.21015 0.08129 0.50185 0.0
H733 H 0.23643 0.07661 0.09897 0.0
H734 H 0.23461 0.07402 0.20773 0.0
C735 C 0.20447 0.08258 0.55758 0.0
C736 C 0.22255 0.09296 0.403 0.0
H737 H 0.21122 0.07647 0.26504 0.0
C738 C 0.23836 0.10349 0.39034 0.0
C739 C 0.21274 0.08274 0.35789 0.0
C740 C 0.1956 0.07142 0.36887 0.0
C741 C 0.24449 0.10453 0.33289 0.0
C742 C 0.23446 0.09494 0.28697 0.0
C743 C 0.21888 0.08379 0.30048 0.0
C744 C 0.23914 0.09755 0.22336 0.0
C745 C 0.26152 0.11613 0.32154 0.0
C746 C 0.24282 0.11183 0.19638 0.0
C747 C 0.24384 0.11335 0.13434 0.0
C748 C 0.24107 0.10057 0.0982 0.0
C749 C 0.2386 0.08668 0.12554 0.0
C750 C 0.23753 0.08515 0.18768 0.0
H751 H 0.26857 0.11848 0.36292 0.0
H752 H 0.26644 0.11189 0.28635 0.0
H753 H 0.26267 0.12737 0.30645 0.0
H754 H 0.24384 0.12146 0.22298 0.0
H755 H 0.24581 0.12422 0.11467 0.0
H756 H 0.92205 0.12665 0.6006 0.0
H757 H 0.92437 0.13971 0.50462 0.0
H758 H 0.87617 0.10615 0.46516 0.0
H759 H 0.87366 0.09339 0.56101 0.0
H760 H 0.9195 0.12691 0.39025 0.0
H761 H 0.87813 0.14803 0.43546 0.0
H762 H 0.88647 0.1419 0.49416 0.0
H763 H 0.86976 0.12763 0.45262 0.0
C764 C 0.91192 0.12222 0.57171 0.0
C765 C 0.8976 0.10919 0.58867 0.0
C766 C 0.91327 0.12965 0.51698 0.0
C767 C 0.90029 0.12417 0.4788 0.0
C768 C 0.88618 0.11085 0.49487 0.0
H769 H 0.86958 0.11735 0.13429 0.0
H770 H 0.87362 0.11981 0.24216 0.0
C771 C 0.88483 0.10344 0.54926 0.0
C772 C 0.90152 0.13159 0.42022 0.0
H773 H 0.88232 0.14456 0.33102 0.0
C774 C 0.91171 0.1312 0.37751 0.0
C775 C 0.8914 0.13726 0.40413 0.0
C776 C 0.88094 0.1389 0.44926 0.0
C777 C 0.91106 0.13503 0.31767 0.0
C778 C 0.90007 0.13957 0.3007 0.0
C779 C 0.89068 0.14103 0.34427 0.0
C780 C 0.8966 0.14044 0.23715 0.0
C781 C 0.92128 0.13308 0.2723 0.0
C782 C 0.90787 0.15173 0.19905 0.0
C783 C 0.9056 0.15036 0.1372 0.0
C784 C 0.89205 0.13763 0.11291 0.0
C785 C 0.88022 0.12717 0.15163 0.0
C786 C 0.88248 0.12859 0.21328 0.0
H787 H 0.9278 0.12767 0.29192 0.0
H788 H 0.91409 0.12568 0.23452 0.0
H789 H 0.92992 0.1447 0.25401 0.0
H790 H 0.91876 0.16108 0.21691 0.0
H791 H 0.9149 0.15866 0.10853 0.0
H792 H 0.87935 0.75179 0.13401 0.0
H793 H 0.87639 0.75321 0.24145 0.0
H794 H 0.8328 0.75257 0.21372 0.0
H795 H 0.83577 0.75134 0.10569 0.0
H796 H 0.85394 0.77803 0.27674 0.0
H797 H 0.84962 0.72474 0.37529 0.0
H798 H 0.86556 0.7337 0.32334 0.0
H799 H 0.84579 0.72605 0.29718 0.0
C800 C 0.86891 0.7515 0.15073 0.0
C801 C 0.85789 0.75164 0.11132 0.0
C802 C 0.86717 0.7522 0.21228 0.0
C803 C 0.85433 0.75291 0.23556 0.0
C804 C 0.84276 0.75197 0.19657 0.0
H805 H 0.85992 0.76645 0.6225 0.0
H806 H 0.84794 0.75709 0.52478 0.0
C807 C 0.84447 0.75124 0.13487 0.0
C808 C 0.85437 0.757 0.29914 0.0
H809 H 0.86078 0.74777 0.43901 0.0
C810 C 0.85506 0.77124 0.31249 0.0
C811 C 0.85563 0.74805 0.34578 0.0
C812 C 0.85394 0.7322 0.33472 0.0
C813 C 0.85811 0.7773 0.37068 0.0
C814 C 0.86079 0.76901 0.41625 0.0
C815 C 0.85895 0.75423 0.40378 0.0
C816 C 0.86682 0.77597 0.47568 0.0
C817 C 0.85884 0.7927 0.38243 0.0
C818 C 0.88134 0.78982 0.48053 0.0
C819 C 0.88813 0.79533 0.53649 0.0
C820 C 0.8805 0.78712 0.5885 0.0
C821 C 0.86581 0.77343 0.58359 0.0
C822 C 0.85902 0.76793 0.52766 0.0
H823 H 0.85155 0.79477 0.34997 0.0
H824 H 0.85485 0.79317 0.42839 0.0
H825 H 0.87111 0.80234 0.37734 0.0
H826 H 0.88777 0.79597 0.44088 0.0
H827 H 0.89959 0.80573 0.53901 0.0
H828 H 0.79169 0.57457 0.20844 0.0
H829 H 0.78773 0.5737 0.10088 0.0
H830 H 0.74553 0.57586 0.1274 0.0
H831 H 0.74926 0.57647 0.23554 0.0
H832 H 0.74029 0.55055 0.06366 0.0
H833 H 0.79109 0.60271 0.9675 0.0
H834 H 0.79737 0.59302 0.01886 0.0
H835 H 0.78596 0.60143 0.04562 0.0
C836 C 0.7818 0.57531 0.19147 0.0
C837 C 0.77068 0.57537 0.23054 0.0
C838 C 0.77961 0.57493 0.12982 0.0
C839 C 0.76638 0.5748 0.10612 0.0
C840 C 0.75584 0.576 0.14486 0.0
H841 H 0.75905 0.56199 0.7189 0.0
H842 H 0.75701 0.57171 0.81647 0.0
C843 C 0.75802 0.57636 0.20663 0.0
C844 C 0.76243 0.57095 0.04232 0.0
H845 H 0.77859 0.57975 0.90317 0.0
C846 C 0.74849 0.55714 0.02831 0.0
C847 C 0.773 0.57964 0.99614 0.0
C848 C 0.7876 0.59512 0.00778 0.0
C849 C 0.74539 0.55119 0.96998 0.0
C850 C 0.75667 0.55912 0.92494 0.0
C851 C 0.77005 0.57354 0.93802 0.0
C852 C 0.75553 0.55212 0.86542 0.0
C853 C 0.73026 0.53627 0.95753 0.0
C854 C 0.75519 0.53777 0.8605 0.0
C855 C 0.7561 0.53203 0.80453 0.0
C856 C 0.75737 0.54054 0.75255 0.0
C857 C 0.75743 0.55478 0.7576 0.0
C858 C 0.75647 0.56049 0.81353 0.0
H859 H 0.72096 0.53471 0.98944 0.0
H860 H 0.72609 0.53611 0.91131 0.0
H861 H 0.73215 0.52616 0.96293 0.0
H862 H 0.75491 0.53133 0.90009 0.0
H863 H 0.75631 0.52117 0.802 0.0
H864 H 0.40447 0.2028 0.18848 0.0
H865 H 0.40661 0.20269 0.0796 0.0
H866 H 0.43115 0.17686 0.095 0.0
H867 H 0.42814 0.17611 0.203 0.0
H868 H 0.43314 0.21799 0.02937 0.0
H869 H 0.40745 0.15732 0.94789 0.0
H870 H 0.40357 0.16177 0.02197 0.0
H871 H 0.421 0.16074 0.00706 0.0
C872 C 0.40972 0.19655 0.16824 0.0
C873 C 0.41616 0.1895 0.2039 0.0
C874 C 0.411 0.19653 0.10615 0.0
C875 C 0.41904 0.18976 0.0789 0.0
C876 C 0.42454 0.18181 0.1145 0.0
H877 H 0.47588 0.23234 0.76373 0.0
H878 H 0.46673 0.22264 0.86516 0.0
C879 C 0.42289 0.18147 0.17646 0.0
C880 C 0.42395 0.19328 0.01552 0.0
H881 H 0.42749 0.17734 0.8852 0.0
C882 C 0.43165 0.20903 -0.00233 0.0
C883 C 0.42203 0.18164 0.97394 0.0
C884 C 0.4129 0.16442 0.98863 0.0
C885 C 0.43766 0.21352 0.9399 0.0
C886 C 0.43661 0.20201 0.8995 0.0
C887 C 0.42862 0.1862 0.91674 0.0
C888 C 0.44297 0.20613 0.83811 0.0
C889 C 0.44476 0.23053 0.92264 0.0
C890 C 0.43296 0.19931 0.78915 0.0
C891 C 0.4383 0.20452 0.73138 0.0
C892 C 0.45371 0.21666 0.72157 0.0
C893 C 0.46395 0.22296 0.77027 0.0
C894 C 0.45869 0.21754 0.82808 0.0
H895 H 0.44048 0.23672 0.95181 0.0
H896 H 0.45766 0.23644 0.92768 0.0
H897 H 0.44201 0.23179 0.87557 0.0
H898 H 0.42081 0.19049 0.7958 0.0
H899 H 0.43005 0.1996 0.69495 0.0
H900 H 0.76269 0.24748 0.78662 0.0
H901 H 0.77245 0.24966 0.88893 0.0
H902 H 0.8022 0.23175 0.83027 0.0
H903 H 0.79313 0.23042 0.72835 0.0
H904 H 0.7673 0.22633 0.95298 0.0
H905 H 0.83148 0.26394 0.94258 0.0
H906 H 0.81895 0.26277 0.88172 0.0
H907 H 0.82507 0.24842 0.88918 0.0
C908 C 0.77172 0.24456 0.79554 0.0
C909 C 0.77736 0.23904 0.74965 0.0
C910 C 0.77726 0.24575 0.85384 0.0
C911 C 0.78825 0.24108 0.86733 0.0
C912 C 0.79417 0.23596 0.82096 0.0
H913 H 0.78561 0.1999 0.21085 0.0
H914 H 0.78557 0.20447 0.10333 0.0
C915 C 0.78889 0.23511 0.76257 0.0
C916 C 0.79182 0.23944 0.93038 0.0
H917 H 0.82142 0.24605 0.02635 0.0
C918 C 0.77917 0.23086 0.96912 0.0
C919 C 0.80728 0.24542 0.95179 0.0
C920 C 0.82144 0.25579 0.91419 0.0
C921 C 0.78148 0.22783 0.02814 0.0
C922 C 0.79689 0.23286 0.04833 0.0
C923 C 0.8096 0.24181 0.01024 0.0
C924 C 0.79992 0.22968 0.11006 0.0
C925 C 0.76737 0.21956 0.06848 0.0
C926 C 0.80922 0.24217 0.14838 0.0
C927 C 0.80967 0.23953 0.20939 0.0
C928 C 0.80063 0.22437 0.23298 0.0
C929 C 0.79251 0.21171 0.19381 0.0
C930 C 0.79236 0.21434 0.13259 0.0
H931 H 0.75737 0.22068 0.05175 0.0
H932 H 0.76353 0.2069 0.07005 0.0
H933 H 0.77012 0.22429 0.11465 0.0
H934 H 0.81528 0.25409 0.13183 0.0
H935 H 0.81605 0.24953 0.2385 0.0
H936 H 0.89344 0.42568 0.95051 0.0
H937 H 0.90347 0.4246 0.85258 0.0
H938 H 0.86398 0.4245 0.76956 0.0
H939 H 0.85331 0.42467 0.8681 0.0
H940 H 0.87224 0.40476 0.71348 0.0
H941 H 0.92422 0.4637 0.74998 0.0
H942 H 0.92171 0.44905 0.80341 0.0
H943 H 0.90758 0.45546 0.79958 0.0
C944 C 0.88647 0.42474 0.91185 0.0
C945 C 0.87233 0.42489 0.9173 0.0
C946 C 0.89245 0.42447 0.85566 0.0
C947 C 0.88461 0.42474 0.80392 0.0
C948 C 0.87022 0.42431 0.80908 0.0
H949 H 0.9075 0.45916 0.45686 0.0
H950 H 0.90544 0.45529 0.56461 0.0
C951 C 0.86415 0.42443 0.8653 0.0
C952 C 0.89173 0.42639 0.7443 0.0
H953 H 0.92216 0.45197 0.65655 0.0
C954 C 0.88325 0.41497 0.70107 0.0
C955 C 0.90607 0.43981 0.72849 0.0
C956 C 0.9154 0.45279 0.77254 0.0
C957 C 0.88838 0.41687 0.64165 0.0
C958 C 0.90258 0.43042 0.62556 0.0
C959 C 0.91139 0.44153 0.66935 0.0
C960 C 0.9072 0.43429 0.56228 0.0
C961 C 0.87805 0.40484 0.59601 0.0
C962 C 0.90981 0.42429 0.52567 0.0
C963 C 0.91086 0.42639 0.46374 0.0
C964 C 0.90942 0.4386 0.43785 0.0
C965 C 0.90845 0.44951 0.4753 0.0
C966 C 0.9073 0.44734 0.53699 0.0
H967 H 0.86622 0.39664 0.61402 0.0
H968 H 0.8767 0.41062 0.55568 0.0
H969 H 0.8835 0.39787 0.58211 0.0
H970 H 0.91016 0.41437 0.54464 0.0
H971 H 0.91182 0.4179 0.43612 0.0
H972 H 0.56816 0.42788 0.87305 0.0
H973 H 0.57106 0.43979 0.77458 0.0
H974 H 0.57576 0.48142 0.85721 0.0
H975 H 0.57248 0.46941 0.95558 0.0
H976 H 0.55243 0.46876 0.77362 0.0
H977 H 0.60682 0.47447 0.67911 0.0
H978 H 0.59438 0.45534 0.70961 0.0
H979 H 0.6026 0.47212 0.75824 0.0
C980 C 0.57032 0.43976 0.87017 0.0
C981 C 0.5705 0.44787 0.92189 0.0
C982 C 0.57205 0.44658 0.81401 0.0
C983 C 0.57391 0.4616 0.80871 0.0
C984 C 0.5746 0.46993 0.86047 0.0
H985 H 0.5776 0.48976 0.43561 0.0
H986 H 0.583 0.49364 0.5428 0.0
C987 C 0.57291 0.46312 0.91667 0.0
C988 C 0.57294 0.46753 0.74916 0.0
H989 H 0.58736 0.47227 0.60766 0.0
C990 C 0.56028 0.4699 0.73755 0.0
C991 C 0.58331 0.46926 0.70244 0.0
C992 C 0.59764 0.46783 0.7131 0.0
C993 C 0.55703 0.47274 0.6794 0.0
C994 C 0.56658 0.47302 0.63186 0.0
C995 C 0.57994 0.47189 0.64417 0.0
C996 C 0.56194 0.47246 0.56874 0.0
C997 C 0.54311 0.47487 0.6691 0.0
C998 C 0.54811 0.45948 0.54809 0.0
C999 C 0.545 0.45719 0.48701 0.0
C1000 C 0.55574 0.46781 0.44549 0.0
C1001 C 0.56908 0.48136 0.46647 0.0
C1002 C 0.57222 0.4836 0.52766 0.0
H1003 H 0.54041 0.47962 0.70953 0.0
H1004 H 0.54513 0.48285 0.6309 0.0
H1005 H 0.5327 0.46334 0.65896 0.0
H1006 H 0.54016 0.4506 0.57898 0.0
H1007 H 0.53462 0.44666 0.47226 0.0
H1008 H 0.5435 0.07952 0.45707 0.0
H1009 H 0.54428 0.08393 0.56464 0.0
H1010 H 0.50554 0.09232 0.54947 0.0
H1011 H 0.5046 0.0879 0.4416 0.0
H1012 H 0.54823 0.11651 0.59348 0.0
H1013 H 0.49979 0.0657 0.7126 0.0
H1014 H 0.50851 0.06295 0.64598 0.0
H1015 H 0.49639 0.07164 0.64045 0.0
C1016 C 0.5348 0.08178 0.47677 0.0
C1017 C 0.52418 0.08364 0.44071 0.0
C1018 C 0.53525 0.08428 0.53822 0.0
C1019 C 0.52502 0.08852 0.56455 0.0
C1020 C 0.51344 0.08894 0.52974 0.0
H1021 H 0.53575 0.12598 0.92971 0.0
H1022 H 0.52524 0.11735 0.82878 0.0
C1023 C 0.51295 0.08642 0.46813 0.0
C1024 C 0.52841 0.0952 0.6252 0.0
H1025 H 0.51786 0.08698 0.77157 0.0
C1026 C 0.54152 0.11013 0.63244 0.0
C1027 C 0.51943 0.08691 0.67534 0.0
C1028 C 0.50521 0.07088 0.66881 0.0
C1029 C 0.54629 0.1168 0.68914 0.0
C1030 C 0.53786 0.10816 0.73978 0.0
C1031 C 0.52429 0.09352 0.73243 0.0
C1032 C 0.54399 0.11348 0.80054 0.0
C1033 C 0.56054 0.13288 0.69459 0.0
C1034 C 0.55797 0.11414 0.81759 0.0
C1035 C 0.56387 0.11885 0.87502 0.0
C1036 C 0.55583 0.12287 0.91678 0.0
C1037 C 0.54196 0.12252 0.89921 0.0
C1038 C 0.536 0.1177 0.84153 0.0
H1039 H 0.563 0.13958 0.65222 0.0
H1040 H 0.55903 0.13966 0.73101 0.0
H1041 H 0.57088 0.1317 0.70531 0.0
H1042 H 0.56422 0.11079 0.78659 0.0
H1043 H 0.57453 0.11892 0.88715 0.0
H1044 H 0.42032 0.91203 0.56102 0.0
H1045 H 0.4155 0.91065 0.4533 0.0
H1046 H 0.45489 0.90389 0.42262 0.0
H1047 H 0.45998 0.90556 0.52963 0.0
H1048 H 0.45134 0.92214 0.33487 0.0
H1049 H 0.39575 0.86659 0.38021 0.0
H1050 H 0.39811 0.88399 0.4156 0.0
H1051 H 0.41053 0.87632 0.43677 0.0
C1052 C 0.4282 0.91067 0.53122 0.0
C1053 C 0.44034 0.90858 0.55387 0.0
C1054 C 0.42536 0.90978 0.46976 0.0
C1055 C 0.4346 0.90677 0.43036 0.0
C1056 C 0.44755 0.90611 0.45245 0.0
H1057 H 0.42536 0.85439 0.12619 0.0
H1058 H 0.42427 0.86479 0.22422 0.0
C1059 C 0.45043 0.90702 0.51368 0.0
C1060 C 0.43 0.90255 0.3673 0.0
H1061 H 0.40354 0.87247 0.28044 0.0
C1062 C 0.44074 0.91146 0.32259 0.0
C1063 C 0.41622 0.8885 0.3519 0.0
C1064 C 0.4045 0.87819 0.39847 0.0
C1065 C 0.43849 0.90629 0.26316 0.0
C1066 C 0.42497 0.89196 0.24816 0.0
C1067 C 0.41383 0.88347 0.29228 0.0
C1068 C 0.42323 0.88467 0.1889 0.0
C1069 C 0.4511 0.91567 0.21785 0.0
C1070 C 0.42245 0.89212 0.13679 0.0
C1071 C 0.42319 0.88626 0.08085 0.0
C1072 C 0.42437 0.87267 0.07625 0.0
C1073 C 0.42428 0.86478 0.12852 0.0
C1074 C 0.42365 0.8707 0.18441 0.0
H1075 H 0.46201 0.9249 0.23915 0.0
H1076 H 0.45398 0.90793 0.19131 0.0
H1077 H 0.44684 0.92144 0.1866 0.0
H1078 H 0.42199 0.90284 0.13941 0.0
H1079 H 0.4238 0.89295 0.04164 0.0
H1080 H 0.09207 0.50924 0.55487 0.0
H1081 H 0.0977 0.50969 0.44846 0.0
H1082 H 0.08121 0.54217 0.41793 0.0
H1083 H 0.07621 0.54233 0.52497 0.0
H1084 H 0.08372 0.50479 0.34076 0.0
H1085 H 0.12673 0.5677 0.37111 0.0
H1086 H 0.11659 0.55492 0.433 0.0
H1087 H 0.10721 0.56321 0.38916 0.0
C1088 C 0.08923 0.51615 0.5253 0.0
C1089 C 0.08397 0.52599 0.54818 0.0
C1090 C 0.0925 0.51642 0.46449 0.0
C1091 C 0.09037 0.52638 0.4258 0.0
C1092 C 0.08341 0.53481 0.44753 0.0
H1093 H 0.09689 0.53513 0.04694 0.0
H1094 H 0.08945 0.52574 0.14879 0.0
C1095 C 0.08043 0.53479 0.50848 0.0
C1096 C 0.09688 0.52918 0.36459 0.0
H1097 H 0.12167 0.55838 0.27114 0.0
C1098 C 0.09209 0.51648 0.32548 0.0
C1099 C 0.10828 0.54436 0.34556 0.0
C1100 C 0.11515 0.55829 0.38711 0.0
C1101 C 0.09787 0.51867 0.26681 0.0
C1102 C 0.10833 0.53403 0.24643 0.0
C1103 C 0.11356 0.54661 0.28644 0.0
C1104 C 0.11317 0.53765 0.18306 0.0
C1105 C 0.0928 0.50449 0.22768 0.0
C1106 C 0.12899 0.54766 0.16815 0.0
C1107 C 0.13321 0.55334 0.10991 0.0
C1108 C 0.12172 0.54882 0.06558 0.0
C1109 C 0.10602 0.53836 0.0799 0.0
C1110 C 0.10176 0.53293 0.13819 0.0
H1111 H 0.0902 0.49404 0.25485 0.0
H1112 H 0.0819 0.50187 0.2038 0.0
H1113 H 0.1019 0.50641 0.19418 0.0
H1114 H 0.13799 0.55159 0.20216 0.0
H1115 H 0.14536 0.56159 0.09985 0.0
H1116 H 0.4445 0.53234 0.54869 0.0
H1117 H 0.4439 0.53714 0.442 0.0
H1118 H 0.48484 0.58277 0.46109 0.0
H1119 H 0.48562 0.57808 0.56808 0.0
H1120 H 0.44147 0.56581 0.41521 0.0
H1121 H 0.49004 0.56358 0.29649 0.0
H1122 H 0.4813 0.55224 0.36332 0.0
H1123 H 0.49365 0.57303 0.36841 0.0
C1124 C 0.45369 0.5432 0.52996 0.0
C1125 C 0.46496 0.55492 0.56698 0.0
C1126 C 0.45333 0.54592 0.46902 0.0
C1127 C 0.46427 0.56033 0.44403 0.0
C1128 C 0.47638 0.57153 0.47965 0.0
H1129 H 0.45444 0.58977 0.08095 0.0
H1130 H 0.46481 0.59158 0.18221 0.0
C1131 C 0.47678 0.56881 0.54078 0.0
C1132 C 0.46138 0.56442 0.38382 0.0
H1133 H 0.47274 0.56805 0.23797 0.0
C1134 C 0.44841 0.56648 0.3765 0.0
C1135 C 0.47063 0.56554 0.33393 0.0
C1136 C 0.4847 0.56347 0.34033 0.0
C1137 C 0.44399 0.56893 0.31994 0.0
C1138 C 0.45267 0.56912 0.26948 0.0
C1139 C 0.46615 0.5679 0.277 0.0
C1140 C 0.44665 0.56845 0.20858 0.0
C1141 C 0.42979 0.57082 0.31428 0.0
C1142 C 0.43305 0.5549 0.19044 0.0
C1143 C 0.42727 0.55374 0.13286 0.0
C1144 C 0.43502 0.56609 0.09192 0.0
C1145 C 0.44847 0.57986 0.11068 0.0
C1146 C 0.45435 0.58097 0.16857 0.0
H1147 H 0.42701 0.5746 0.35711 0.0
H1148 H 0.43155 0.57949 0.27908 0.0
H1149 H 0.41954 0.55942 0.30152 0.0
H1150 H 0.42702 0.54509 0.22072 0.0
H1151 H 0.41693 0.54293 0.11999 0.0
H1152 H 0.5625 0.76807 0.26926 0.0
H1153 H 0.57256 0.76937 0.1691 0.0
H1154 H 0.52624 0.75222 0.09686 0.0
H1155 H 0.51617 0.75151 0.19773 0.0
H1156 H 0.5676 0.7496 0.08177 0.0
H1157 H 0.55044 0.79242 0.00746 0.0
H1158 H 0.5491 0.7865 0.08438 0.0
H1159 H 0.5339 0.77447 0.03207 0.0
C1160 C 0.55436 0.76429 0.2324 0.0
C1161 C 0.5385 0.75961 0.24133 0.0
C1162 C 0.56016 0.76511 0.17497 0.0
C1163 C 0.55023 0.76121 0.1254 0.0
C1164 C 0.53421 0.75571 0.13442 0.0
H1165 H 0.56562 0.74386 0.76583 0.0
H1166 H 0.56339 0.743 0.87407 0.0
C1167 C 0.52844 0.75517 0.19192 0.0
C1168 C 0.55684 0.76358 0.0644 0.0
H1169 H 0.55873 0.78129 0.93165 0.0
C1170 C 0.56578 0.75663 0.04898 0.0
C1171 C 0.5549 0.77317 0.02233 0.0
C1172 C 0.54672 0.78221 0.03757 0.0
C1173 C 0.57238 0.75857 0.99186 0.0
C1174 C 0.5695 0.76726 0.94852 0.0
C1175 C 0.56094 0.77458 0.96467 0.0
C1176 C 0.57412 0.76811 0.88502 0.0
C1177 C 0.58249 0.75144 0.97904 0.0
C1178 C 0.58115 0.78253 0.85479 0.0
C1179 C 0.58199 0.783 0.79252 0.0
C1180 C 0.57608 0.76907 0.75965 0.0
C1181 C 0.57042 0.7548 0.79009 0.0
C1182 C 0.56922 0.7543 0.85223 0.0
H1183 H 0.58849 0.75088 0.0202 0.0
H1184 H 0.575 0.73927 0.96291 0.0
H1185 H 0.59149 0.75816 0.94459 0.0
H1186 H 0.58507 0.79335 0.87916 0.0
H1187 H 0.58645 0.79414 0.76999 0.0
H1188 H 0.23719 0.80106 0.29 0.0
H1189 H 0.23921 0.8127 0.19207 0.0
H1190 H 0.23488 0.77139 0.10799 0.0
H1191 H 0.23361 0.75994 0.20629 0.0
H1192 H 0.25641 0.79925 0.05126 0.0
H1193 H 0.1994 0.79647 0.09251 0.0
H1194 H 0.21472 0.80772 0.14515 0.0
H1195 H 0.20675 0.78692 0.14057 0.0
C1196 C 0.23738 0.79471 0.25093 0.0
C1197 C 0.23562 0.7797 0.25588 0.0
C1198 C 0.23822 0.80129 0.19487 0.0
C1199 C 0.23696 0.79281 0.14294 0.0
C1200 C 0.23588 0.77812 0.14768 0.0
H1201 H 0.20113 0.78072 0.79989 0.0
H1202 H 0.20579 0.78316 0.90723 0.0
C1203 C 0.23515 0.77159 0.20372 0.0
C1204 C 0.23555 0.79857 0.08363 0.0
H1205 H 0.21055 0.80466 -0.00256 0.0
C1206 C 0.24654 0.80069 0.03954 0.0
C1207 C 0.22257 0.80032 0.06876 0.0
C1208 C 0.2101 0.79764 0.11396 0.0
C1209 C 0.24453 0.80384 0.98014 0.0
C1210 C 0.23132 0.80519 0.96493 0.0
C1211 C 0.22072 0.80377 0.00958 0.0
C1212 C 0.2271 0.80561 0.9019 0.0
C1213 C 0.25601 0.80468 0.93356 0.0
C1214 C 0.23707 0.81786 0.86378 0.0
C1215 C 0.23448 0.81647 0.80212 0.0
C1216 C 0.22185 0.80282 0.77801 0.0
C1217 C 0.21107 0.79129 0.81698 0.0
C1218 C 0.2137 0.79268 0.87841 0.0
H1219 H 0.26407 0.80086 0.95138 0.0
H1220 H 0.24972 0.79725 0.89447 0.0
H1221 H 0.26317 0.81692 0.91775 0.0
H1222 H 0.2473 0.82809 0.88136 0.0
H1223 H 0.24291 0.82563 0.77329 0.0
H1224 H 0.16964 0.41979 0.76075 0.0
H1225 H 0.16812 0.42194 0.86916 0.0
H1226 H 0.2106 0.42008 0.89012 0.0
H1227 H 0.21217 0.41778 0.78211 0.0
H1228 H 0.18711 0.40407 0.98218 0.0
H1229 H 0.20068 0.46528 0.93921 0.0
H1230 H 0.18363 0.44977 0.90356 0.0
H1231 H 0.20273 0.45354 0.88207 0.0
C1232 C 0.17843 0.4194 0.7885 0.0
C1233 C 0.19121 0.41892 0.7628 0.0
C1234 C 0.17757 0.42071 0.85039 0.0
C1235 C 0.18943 0.42152 0.88725 0.0
C1236 C 0.20139 0.41958 0.86221 0.0
H1237 H 0.23659 0.44973 0.2131 0.0
H1238 H 0.22476 0.43897 0.11634 0.0
C1239 C 0.20228 0.4183 0.80046 0.0
C1240 C 0.19061 0.42619 0.95056 0.0
H1241 H 0.20155 0.45831 0.03841 0.0
C1242 C 0.18998 0.41583 0.99474 0.0
C1243 C 0.19433 0.44155 0.96662 0.0
C1244 C 0.1955 0.45327 0.92056 0.0
C1245 C 0.19362 0.42063 0.05438 0.0
C1246 C 0.19829 0.43627 0.0697 0.0
C1247 C 0.198 0.44635 0.02627 0.0
C1248 C 0.20521 0.44287 0.12855 0.0
C1249 C 0.19286 0.40907 0.10023 0.0
C1250 C 0.19849 0.44925 0.16632 0.0
C1251 C 0.20534 0.45559 0.22165 0.0
C1252 C 0.21905 0.45569 0.23957 0.0
C1253 C 0.22602 0.4498 0.20057 0.0
C1254 C 0.21916 0.44345 0.14563 0.0
H1255 H 0.18457 0.39683 0.08642 0.0
H1256 H 0.20462 0.4103 0.10493 0.0
H1257 H 0.18922 0.41121 0.14456 0.0
H1258 H 0.18789 0.44919 0.15322 0.0
H1259 H 0.19994 0.46039 0.25026 0.0
H1260 H 0.18408 0.39549 0.37466 0.0
H1261 H 0.17336 0.37024 0.32362 0.0
H1262 H 0.19898 0.35689 0.44324 0.0
H1263 H 0.20958 0.38215 0.49489 0.0
H1264 H 0.18881 0.35749 0.26488 0.0
H1265 H 0.15457 0.32002 0.4561 0.0
H1266 H 0.16268 0.34096 0.45597 0.0
H1267 H 0.175 0.33277 0.47122 0.0
C1268 C 0.18736 0.38711 0.39004 0.0
C1269 C 0.19746 0.39057 0.43891 0.0
C1270 C 0.18126 0.37274 0.36095 0.0
C1271 C 0.1852 0.36163 0.38022 0.0
C1272 C 0.19551 0.36517 0.42858 0.0
H1273 H 0.1552 0.2677 0.24847 0.0
H1274 H 0.16978 0.29335 0.29725 0.0
C1275 C 0.20155 0.37955 0.45796 0.0
C1276 C 0.1786 0.34643 0.34891 0.0
H1277 H 0.15516 0.30705 0.3682 0.0
C1278 C 0.18147 0.34645 0.28745 0.0
C1279 C 0.16903 0.33207 0.37857 0.0
C1280 C 0.16499 0.33139 0.44397 0.0
C1281 C 0.17498 0.33247 0.25474 0.0
C1282 C 0.1653 0.31817 0.2843 0.0
C1283 C 0.16264 0.31809 0.34589 0.0
C1284 C 0.1573 0.30315 0.25182 0.0
C1285 C 0.17855 0.33307 0.18894 0.0
C1286 C 0.14554 0.30028 0.2101 0.0
C1287 C 0.13713 0.28565 0.18279 0.0
C1288 C 0.14033 0.2737 0.19716 0.0
C1289 C 0.1524 0.27672 0.23757 0.0
C1290 C 0.16074 0.29132 0.26514 0.0
H1291 H 0.18898 0.34436 0.17615 0.0
H1292 H 0.18059 0.32335 0.17626 0.0
H1293 H 0.16839 0.33176 0.16291 0.0
H1294 H 0.14259 0.30923 0.19993 0.0
H1295 H 0.12785 0.28351 0.15172 0.0
H1296 H 0.72498 0.88718 0.23918 0.0
H1297 H 0.69929 0.87668 0.28778 0.0
H1298 H 0.68621 0.83047 0.2243 0.0
H1299 H 0.7119 0.84093 0.17575 0.0
H1300 H 0.66513 0.85212 0.22032 0.0
H1301 H 0.6843 0.83449 0.42603 0.0
H1302 H 0.69778 0.8511 0.38151 0.0
H1303 H 0.69077 0.83166 0.35409 0.0
C1304 C 0.71656 0.8748 0.23567 0.0
C1305 C 0.72032 0.86475 0.20467 0.0
C1306 C 0.70195 0.86886 0.26305 0.0
C1307 C 0.69101 0.85285 0.25962 0.0
C1308 C 0.6946 0.84287 0.22731 0.0
H1309 H 0.59589 0.79094 0.35724 0.0
H1310 H 0.62106 0.80647 0.30685 0.0
C1311 C 0.70918 0.84881 0.19974 0.0
C1312 C 0.676 0.84637 0.29159 0.0
H1313 H 0.65762 0.82708 0.41923 0.0
C1314 C 0.66345 0.84672 0.26395 0.0
C1315 C 0.67405 0.83953 0.34859 0.0
C1316 C 0.6874 0.83914 0.3798 0.0
C1317 C 0.64872 0.83997 0.29157 0.0
C1318 C 0.6466 0.83262 0.34776 0.0
C1319 C 0.65932 0.83272 0.3761 0.0
C1320 C 0.63107 0.82398 0.37648 0.0
C1321 C 0.63553 0.84068 0.26045 0.0
C1322 C 0.62846 0.82864 0.43249 0.0
C1323 C 0.61405 0.81982 0.46121 0.0
C1324 C 0.60218 0.80612 0.4346 0.0
C1325 C 0.6048 0.80157 0.37831 0.0
C1326 C 0.61914 0.81042 0.34951 0.0
H1327 H 0.63996 0.85006 0.22608 0.0
H1328 H 0.62792 0.82935 0.23781 0.0
H1329 H 0.62824 0.84273 0.29301 0.0
H1330 H 0.63759 0.83906 0.45401 0.0
H1331 H 0.6122 0.82368 0.50419 0.0
H1332 H 0.17248 0.77854 0.41393 0.0
H1333 H 0.15979 0.79109 0.36163 0.0
H1334 H 0.19028 0.83452 0.45209 0.0
H1335 H 0.20329 0.82209 0.50293 0.0
H1336 H 0.14434 0.80629 0.40284 0.0
H1337 H 0.19784 0.84682 0.27575 0.0
H1338 H 0.19604 0.83018 0.31622 0.0
H1339 H 0.20057 0.84788 0.35527 0.0
C1340 C 0.17643 0.79077 0.42241 0.0
C1341 C 0.189 0.7995 0.46129 0.0
C1342 C 0.16917 0.79789 0.39284 0.0
C1343 C 0.17435 0.81381 0.40202 0.0
C1344 C 0.18638 0.82232 0.44334 0.0
H1345 H 0.14735 0.87898 0.27183 0.0
H1346 H 0.15872 0.86522 0.32454 0.0
C1347 C 0.19369 0.81521 0.47268 0.0
C1348 C 0.16738 0.82157 0.36748 0.0
H1349 H 0.1763 0.85118 0.26849 0.0
C1350 C 0.15129 0.81605 0.37321 0.0
C1351 C 0.1765 0.83421 0.32854 0.0
C1352 C 0.19366 0.84005 0.31799 0.0
C1353 C 0.14413 0.82314 0.34208 0.0
C1354 C 0.15331 0.83594 0.30407 0.0
C1355 C 0.16935 0.84137 0.2979 0.0
C1356 C 0.14655 0.84415 0.27147 0.0
C1357 C 0.12688 0.81716 0.35091 0.0
C1358 C 0.13614 0.83686 0.22386 0.0
C1359 C 0.12974 0.84473 0.19357 0.0
C1360 C 0.1337 0.85995 0.21064 0.0
C1361 C 0.1442 0.86725 0.25798 0.0
C1362 C 0.15066 0.85943 0.28797 0.0
H1363 H 0.12201 0.80885 0.38896 0.0
H1364 H 0.12476 0.82705 0.35889 0.0
H1365 H 0.12045 0.81103 0.3098 0.0
H1366 H 0.13296 0.82509 0.21036 0.0
H1367 H 0.12148 0.83884 0.15767 0.0
H1368 H 0.38138 0.17204 0.50582 0.0
H1369 H 0.35622 0.1602 0.55904 0.0
H1370 H 0.36376 0.20619 0.59976 0.0
H1371 H 0.38893 0.21804 0.54642 0.0
H1372 H 0.35308 0.16757 0.68712 0.0
H1373 H 0.31832 0.18013 0.52294 0.0
H1374 H 0.33558 0.17932 0.50173 0.0
H1375 H 0.33752 0.19589 0.54211 0.0
C1376 C 0.37753 0.17955 0.52576 0.0
C1377 C 0.38695 0.19587 0.52266 0.0
C1378 C 0.36327 0.17283 0.55615 0.0
C1379 C 0.35821 0.18236 0.58305 0.0
C1380 C 0.36748 0.19869 0.5789 0.0
H1381 H 0.282 0.15418 0.84014 0.0
H1382 H 0.30741 0.16818 0.7889 0.0
C1383 C 0.3818 0.20541 0.54879 0.0
C1384 C 0.34343 0.17517 0.61714 0.0
H1385 H 0.30578 0.16779 0.61303 0.0
C1386 C 0.34273 0.16766 0.67122 0.0
C1387 C 0.33004 0.17531 0.59581 0.0
C1388 C 0.33025 0.183 0.5373 0.0
C1389 C 0.32886 0.1602 0.70464 0.0
C1390 C 0.31546 0.16032 0.68326 0.0
C1391 C 0.31617 0.16786 0.62927 0.0
C1392 C 0.30034 0.15195 0.71485 0.0
C1393 C 0.32847 0.15191 0.76181 0.0
C1394 C 0.28806 0.1383 0.68985 0.0
C1395 C 0.2737 0.13024 0.71922 0.0
C1396 C 0.27136 0.1358 0.77376 0.0
C1397 C 0.28364 0.14953 0.79864 0.0
C1398 C 0.29807 0.15755 0.76938 0.0
H1399 H 0.33922 0.15111 0.76795 0.0
H1400 H 0.32737 0.15838 0.80034 0.0
H1401 H 0.31814 0.13992 0.7623 0.0
H1402 H 0.28965 0.13382 0.64779 0.0
H1403 H 0.26443 0.11962 0.6994 0.0
H1404 H 0.83589 0.10939 0.76688 0.0
H1405 H 0.82277 0.12165 0.71551 0.0
H1406 H 0.85784 0.1668 0.78208 0.0
H1407 H 0.87124 0.1546 0.83164 0.0
H1408 H 0.8103 0.13962 0.75609 0.0
H1409 H 0.86006 0.17364 0.60177 0.0
H1410 H 0.85862 0.1579 0.64744 0.0
H1411 H 0.86542 0.17697 0.67925 0.0
C1412 C 0.84077 0.12193 0.77019 0.0
C1413 C 0.8547 0.13117 0.80179 0.0
C1414 C 0.83326 0.12889 0.74124 0.0
C1415 C 0.83957 0.14516 0.74385 0.0
C1416 C 0.85303 0.15427 0.77828 0.0
H1417 H 0.81261 0.2103 0.61472 0.0
H1418 H 0.82389 0.1964 0.66709 0.0
C1419 C 0.86058 0.14732 0.80691 0.0
C1420 C 0.83226 0.15264 0.70962 0.0
H1421 H 0.83964 0.17983 0.60125 0.0
C1422 C 0.81666 0.14834 0.72197 0.0
C1423 C 0.84058 0.16389 0.66474 0.0
C1424 C 0.85704 0.16828 0.64699 0.0
C1425 C 0.8093 0.15534 0.69165 0.0
C1426 C 0.81777 0.16685 0.64802 0.0
C1427 C 0.83327 0.17102 0.63507 0.0
C1428 C 0.81087 0.17503 0.61637 0.0
C1429 C 0.79265 0.1507 0.70708 0.0
C1430 C 0.79995 0.16757 0.57042 0.0
C1431 C 0.7936 0.17551 0.54027 0.0
C1432 C 0.79812 0.19097 0.55594 0.0
C1433 C 0.80902 0.19838 0.60199 0.0
C1434 C 0.81544 0.1905 0.63177 0.0
H1435 H 0.7882 0.14269 0.74613 0.0
H1436 H 0.7918 0.16128 0.71695 0.0
H1437 H 0.78498 0.14475 0.66817 0.0
H1438 H 0.79637 0.15563 0.55798 0.0
H1439 H 0.78503 0.16954 0.50539 0.0
H1440 H 0.88281 0.72547 0.75289 0.0
H1441 H 0.87054 0.70013 0.70133 0.0
H1442 H 0.8265 0.68753 0.78615 0.0
H1443 H 0.83867 0.71307 0.83629 0.0
H1444 H 0.85479 0.66947 0.74318 0.0
H1445 H 0.81565 0.68275 0.60816 0.0
H1446 H 0.83204 0.69755 0.64985 0.0
H1447 H 0.81399 0.68454 0.68728 0.0
C1448 C 0.87051 0.71724 0.76032 0.0
C1449 C 0.86154 0.7212 0.79733 0.0
C1450 C 0.86355 0.7028 0.73118 0.0
C1451 C 0.84755 0.69214 0.73892 0.0
C1452 C 0.83878 0.69577 0.77851 0.0
H1453 H 0.78261 0.60005 0.60865 0.0
H1454 H 0.79631 0.62533 0.66033 0.0
C1455 C 0.84573 0.71025 0.80744 0.0
C1456 C 0.83997 0.67738 0.70454 0.0
H1457 H 0.81108 0.65675 0.60279 0.0
C1458 C 0.8453 0.66671 0.71223 0.0
C1459 C 0.82768 0.67392 0.66385 0.0
C1460 C 0.82208 0.68534 0.65122 0.0
C1461 C 0.83834 0.65242 0.68138 0.0
C1462 C 0.82587 0.64886 0.64167 0.0
C1463 C 0.82065 0.65958 0.63349 0.0
C1464 C 0.81772 0.63381 0.6096 0.0
C1465 C 0.84408 0.64105 0.69238 0.0
C1466 C 0.82522 0.6304 0.56359 0.0
C1467 C 0.81738 0.61603 0.53387 0.0
C1468 C 0.80199 0.60498 0.54991 0.0
C1469 C 0.79448 0.60848 0.59561 0.0
C1470 C 0.80226 0.62284 0.62501 0.0
H1471 H 0.85212 0.6445 0.7313 0.0
H1472 H 0.83404 0.6291 0.70016 0.0
H1473 H 0.85044 0.64057 0.65227 0.0
H1474 H 0.83712 0.63882 0.55092 0.0
H1475 H 0.82342 0.61343 0.49924 0.0
H1476 H 0.94525 0.49106 0.16667 0.0
H1477 H 0.97014 0.50582 0.11243 0.0
H1478 H 0.95687 0.46614 0.9967 0.0
H1479 H 0.932 0.45153 0.05024 0.0
H1480 H 0.99377 0.4992 0.0963 0.0
H1481 H 0.96855 0.50118 0.87754 0.0
H1482 H 0.95722 0.49553 0.94562 0.0
H1483 H 0.96057 0.48164 0.90572 0.0
C1484 C 0.94778 0.48553 0.12987 0.0
C1485 C 0.93687 0.47022 0.11247 0.0
C1486 C 0.96189 0.49395 0.09881 0.0
C1487 C 0.96519 0.48717 0.04984 0.0
C1488 C 0.95437 0.47174 0.03332 0.0
H1489 H 0.04414 0.508 0.82749 0.0
H1490 H 0.01868 0.49667 0.87819 0.0
C1491 C 0.94027 0.46338 0.0641 0.0
C1492 C 0.98013 0.496 0.01699 0.0
H1493 H 0.99549 0.5079 0.87735 0.0
C1494 C 0.99417 0.50128 0.04858 0.0
C1495 C 0.98058 0.49871 0.95473 0.0
C1496 C 0.96593 0.49411 0.91901 0.0
C1497 C 0.00866 0.50872 0.01913 0.0
C1498 C 0.00905 0.51101 0.9567 0.0
C1499 C 0.99506 0.50602 0.92523 0.0
C1500 C 0.02391 0.51816 0.92316 0.0
C1501 C 0.02342 0.51365 0.05453 0.0
C1502 C 0.03498 0.53404 0.93065 0.0
C1503 C 0.04941 0.5405 0.90153 0.0
C1504 C 0.05295 0.53112 0.86503 0.0
C1505 C 0.04163 0.51539 0.85578 0.0
C1506 C 0.02717 0.50894 0.88464 0.0
H1507 H 0.02091 0.50876 0.10052 0.0
H1508 H 0.03096 0.50986 0.03165 0.0
H1509 H 0.03013 0.52661 0.05784 0.0
H1510 H 0.03253 0.54136 0.95954 0.0
H1511 H 0.0579 0.55277 0.90812 0.0
H1512 H 0.43759 0.50486 0.94509 0.0
H1513 H 0.44967 0.49263 0.00268 0.0
H1514 H 0.49173 0.51752 0.89694 0.0
H1515 H 0.4803 0.53113 0.84446 0.0
H1516 H 0.45965 0.47432 0.9842 0.0
H1517 H 0.51117 0.52971 0.05491 0.0
H1518 H 0.495 0.52929 0.01598 0.0
H1519 H 0.51041 0.52855 0.9751 0.0
C1520 C 0.44956 0.50798 0.93532 0.0
C1521 C 0.45826 0.51939 0.89221 0.0
C1522 C 0.45639 0.50084 0.96763 0.0
C1523 C 0.47188 0.5046 0.95589 0.0
C1524 C 0.48006 0.51498 0.90899 0.0
H1525 H 0.51094 0.44752 0.06629 0.0
H1526 H 0.49622 0.45843 0.01976 0.0
C1527 C 0.47342 0.52254 0.8782 0.0
C1528 C 0.47943 0.49766 0.99259 0.0
H1529 H 0.5132 0.50664 0.06587 0.0
C1530 C 0.47129 0.48144 0.00271 0.0
C1531 C 0.49442 0.50692 0.01856 0.0
C1532 C 0.50314 0.52459 0.01617 0.0
C1533 C 0.47788 0.47419 0.03644 0.0
C1534 C 0.49343 0.48328 0.05768 0.0
C1535 C 0.50138 0.49956 0.04898 0.0
C1536 C 0.50193 0.47623 0.08734 0.0
C1537 C 0.46787 0.45695 0.04989 0.0
C1538 C 0.51064 0.48293 0.13964 0.0
C1539 C 0.51987 0.47728 0.16425 0.0
C1540 C 0.52031 0.46462 0.13772 0.0
C1541 C 0.51113 0.45754 0.08689 0.0
C1542 C 0.50237 0.46354 0.06106 0.0
H1543 H 0.45529 0.45347 0.05236 0.0
H1544 H 0.46913 0.4501 0.01323 0.0
H1545 H 0.47123 0.45377 0.09272 0.0
H1546 H 0.51056 0.49276 0.16085 0.0
H1547 H 0.52691 0.48303 0.20325 0.0
H1548 H 0.51707 0.05966 0.04794 0.0
H1549 H 0.50652 0.03458 0.9957 0.0
H1550 H 0.53049 0.0202 0.11939 0.0
H1551 H 0.54087 0.04526 0.1723 0.0
H1552 H 0.52217 0.02187 0.93932 0.0
H1553 H 0.486 0.98355 0.12544 0.0
H1554 H 0.49431 0.00451 0.12678 0.0
H1555 H 0.50628 0.99601 0.14366 0.0
C1556 C 0.52 0.05107 0.064 0.0
C1557 C 0.52959 0.0542 0.11431 0.0
C1558 C 0.514 0.03681 0.03422 0.0
C1559 C 0.51755 0.02546 0.0542 0.0
C1560 C 0.52731 0.02866 0.10413 0.0
H1561 H 0.489 0.93226 0.91854 0.0
H1562 H 0.50332 0.95785 0.96798 0.0
C1563 C 0.53323 0.04292 0.13422 0.0
C1564 C 0.51116 0.01042 0.02191 0.0
H1565 H 0.48758 0.97096 0.03796 0.0
C1566 C 0.51461 0.01073 0.96086 0.0
C1567 C 0.50131 0.99593 0.05022 0.0
C1568 C 0.49661 0.99492 0.11498 0.0
C1569 C 0.50843 0.9969 0.92729 0.0
C1570 C 0.49851 0.98247 0.95553 0.0
C1571 C 0.49526 0.9821 0.0167 0.0
C1572 C 0.49086 0.9676 0.92206 0.0
C1573 C 0.51257 -0.00221 0.86198 0.0
C1574 C 0.47924 0.96476 0.87972 0.0
C1575 C 0.47098 0.95015 0.85206 0.0
C1576 C 0.47419 0.93822 0.86668 0.0
C1577 C 0.4862 0.94126 0.90743 0.0
C1578 C 0.49439 0.95582 0.93537 0.0
H1579 H 0.52295 0.00922 0.85027 0.0
H1580 H 0.51496 0.98827 0.84983 0.0
H1581 H 0.50254 0.99633 0.83466 0.0
H1582 H 0.47624 0.97367 0.8695 0.0
H1583 H 0.46173 0.948 0.82077 0.0
H1584 H 0.13971 0.20476 0.98182 0.0
H1585 H 0.15357 0.1906 0.96061 0.0
H1586 H 0.1394 0.1675 0.13148 0.0
H1587 H 0.12538 0.18154 0.15326 0.0
H1588 H 0.17809 0.19029 0.02969 0.0
H1589 H 0.12491 0.1315 0.00691 0.0
H1590 H 0.12413 0.14938 0.00383 0.0
H1591 H 0.12644 0.14209 0.07432 0.0
C1592 C 0.13949 0.19666 0.01498 0.0
C1593 C 0.13135 0.19422 0.06913 0.0
C1594 C 0.14746 0.18862 0.00279 0.0
C1595 C 0.14735 0.17793 0.04426 0.0
C1596 C 0.13942 0.17557 0.09864 0.0
H1597 H 0.20626 0.13507 0.02043 0.0
H1598 H 0.19313 0.149 0.05634 0.0
C1599 C 0.13146 0.18363 0.111 0.0
C1600 C 0.15555 0.16927 0.03011 0.0
H1601 H 0.14936 0.13288 0.99655 0.0
C1602 C 0.17186 0.17773 0.02278 0.0
C1603 C 0.1473 0.15291 0.02076 0.0
C1604 C 0.12971 0.14339 0.02636 0.0
C1605 C 0.18016 0.17024 0.00578 0.0
C1606 C 0.1719 0.1539 0.99637 0.0
C1607 C 0.15562 0.14541 0.0042 0.0
C1608 C 0.17985 0.14549 0.97526 0.0
C1609 C 0.19761 0.1799 0.99623 0.0
C1610 C 0.17653 0.13877 0.91816 0.0
C1611 C 0.18397 0.13082 0.89747 0.0
C1612 C 0.19481 0.12936 0.93377 0.0
C1613 C 0.19802 0.13603 0.99126 0.0
C1614 C 0.19058 0.14403 0.01182 0.0
H1615 H 0.20176 0.19264 0.99505 0.0
H1616 H 0.20372 0.17768 0.0333 0.0
H1617 H 0.201 0.17655 0.95381 0.0
H1618 H 0.16823 0.13977 0.88943 0.0
H1619 H 0.18118 0.1258 0.85306 0.0
H1620 H 0.78958 0.93047 0.98012 0.0
H1621 H 0.80426 0.95825 0.95448 0.0
H1622 H 0.82732 0.9686 0.12572 0.0
H1623 H 0.81281 0.94084 0.15185 0.0
H1624 H 0.80479 0.98367 0.01742 0.0
H1625 H 0.86356 0.98905 0.00285 0.0
H1626 H 0.84563 0.97039 0.00146 0.0
H1627 H 0.85299 0.98059 0.07089 0.0
C1628 C 0.7978 0.93862 0.01236 0.0
C1629 C 0.80007 0.93341 0.06796 0.0
C1630 C 0.80615 0.95449 -0.00239 0.0
C1631 C 0.81698 0.96538 0.03794 0.0
C1632 C 0.81919 0.96029 0.09365 0.0
H1633 H 0.85921 0.06644 0.02833 0.0
H1634 H 0.84523 0.03882 0.05677 0.0
C1635 C 0.81083 0.94443 0.10855 0.0
C1636 C 0.82578 0.98214 0.02194 0.0
H1637 H 0.86259 0.0125 0.99485 0.0
C1638 C 0.81742 0.99 0.01246 0.0
C1639 C 0.84223 0.99024 0.01503 0.0
C1640 C 0.85167 0.98215 0.02256 0.0
C1641 C 0.82513 0.00587 -0.00324 0.0
C1642 C 0.8416 0.01405 0.991 0.0
C1643 C 0.84996 0.00616 -0.00015 0.0
C1644 C 0.85035 0.03076 0.97451 0.0
C1645 C 0.81561 0.01374 0.98551 0.0
C1646 C 0.85808 0.03532 0.91938 0.0
C1647 C 0.86607 0.05107 0.9029 0.0
C1648 C 0.86656 0.06254 0.94161 0.0
C1649 C 0.85903 0.05792 -0.0026 0.0
C1650 C 0.85098 0.04214 0.01367 0.0
H1651 H 0.80296 0.00512 0.98001 0.0
H1652 H 0.81693 0.02139 0.02399 0.0
H1653 H 0.81984 0.02119 0.9449 0.0
H1654 H 0.85774 0.02665 0.88875 0.0
H1655 H 0.87179 0.05422 0.85972 0.0
H1656 H 0.92818 0.79554 0.02638 0.0
H1657 H 0.95589 0.80929 0.05297 0.0
H1658 H 0.96824 0.82179 0.86818 0.0
H1659 H 0.94052 0.80839 0.84124 0.0
H1660 H 0.97893 0.80378 0.01636 0.0
H1661 H 0.9931 0.86369 0.95057 0.0
H1662 H 0.97323 0.84772 0.95705 0.0
H1663 H 0.9846 0.84961 0.89146 0.0
C1664 C 0.93677 0.80128 0.99136 0.0
C1665 C 0.93214 0.80094 0.93171 0.0
C1666 C 0.9526 0.80912 0.00667 0.0
C1667 C 0.9641 0.81676 0.9627 0.0
C1668 C 0.95954 0.8163 0.90301 0.0
H1669 H 0.06537 0.86204 0.97189 0.0
H1670 H 0.03778 0.84805 0.94247 0.0
C1671 C 0.94369 0.80856 0.88767 0.0
C1672 C 0.98085 0.82483 0.97936 0.0
H1673 H 0.01456 0.86027 0.97652 0.0
C1674 C 0.98671 0.81614 0.00785 0.0
C1675 C 0.99094 0.84098 0.96831 0.0
C1676 C 0.98514 0.8511 0.9407 0.0
C1677 C 0.00245 0.82315 0.02512 0.0
C1678 C 0.0125 0.8392 0.01353 0.0
C1679 C 0.00673 0.84791 0.98491 0.0
C1680 C 0.02906 0.84724 0.03175 0.0
C1681 C 0.00833 0.81341 0.05526 0.0
C1682 C 0.03313 0.85137 0.09166 0.0
C1683 C 0.04885 0.85944 0.10867 0.0
C1684 C 0.06073 0.86343 0.06594 0.0
C1685 C 0.05652 0.8591 0.00594 0.0
C1686 C 0.0408 0.85115 0.98897 0.0
H1687 H -0.00051 0.80074 0.05481 0.0
H1688 H 0.01915 0.81518 0.03289 0.0
H1689 H 0.01134 0.81724 0.1024 0.0
H1690 H 0.02414 0.84848 0.1251 0.0
H1691 H 0.05169 0.86258 0.15522 0.0
H1692 H 0.85425 0.7887 0.00961 0.0
H1693 H 0.84068 0.80279 0.03621 0.0
H1694 H 0.8571 0.82985 0.87415 0.0
H1695 H 0.87081 0.81575 0.84668 0.0
H1696 H 0.86108 0.84723 0.98856 0.0
H1697 H 0.80074 0.79802 0.94797 0.0
H1698 H 0.81318 0.79339 0.99176 0.0
H1699 H 0.81784 0.79885 0.91478 0.0
C1700 C 0.85499 0.79761 0.97938 0.0
C1701 C 0.8636 0.80109 0.92588 0.0
C1702 C 0.84718 0.80561 0.99467 0.0
C1703 C 0.84783 0.81723 0.9569 0.0
C1704 C 0.85646 0.82085 0.90368 0.0
H1705 H 0.79007 0.85989 0.97795 0.0
H1706 H 0.80444 0.84694 0.94708 0.0
C1707 C 0.86423 0.81277 0.88804 0.0
C1708 C 0.83956 0.82564 0.9737 0.0
H1709 H 0.80307 0.82038 -0.00317 0.0
C1710 C 0.8484 0.84143 0.99015 0.0
C1711 C 0.82305 0.81799 0.97529 0.0
C1712 C 0.81308 0.80115 0.9561 0.0
C1713 C 0.84109 0.84976 0.00925 0.0
C1714 C 0.82457 0.84197 0.01242 0.0
C1715 C 0.81575 0.82625 0.9949 0.0
C1716 C 0.81611 0.85004 0.03193 0.0
C1717 C 0.85108 0.86683 0.02515 0.0
C1718 C 0.8178 0.8559 0.09025 0.0
C1719 C 0.80959 0.86336 0.10825 0.0
C1720 C 0.79952 0.86499 0.06817 0.0
C1721 C 0.79775 0.8589 0.01 0.0
C1722 C 0.80595 0.85148 0.99217 0.0
H1723 H 0.86317 0.8719 0.00734 0.0
H1724 H 0.84584 0.87371 0.00764 0.0
H1725 H 0.85183 0.86808 0.0745 0.0
H1726 H 0.82538 0.85461 0.12193 0.0
H1727 H 0.81114 0.86785 0.15341 0.0
H1728 H 0.17033 0.05581 0.85337 0.0
H1729 H 0.15347 0.02871 0.8865 0.0
H1730 H 0.19101 0.03215 0.99637 0.0
H1731 H 0.20756 0.05929 0.96567 0.0
H1732 H 0.15488 0.00301 0.87792 0.0
H1733 H 0.15688 0.01704 0.11734 0.0
H1734 H 0.16429 0.03198 0.06042 0.0
H1735 H 0.17633 0.02448 0.08922 0.0
C1736 C 0.17496 0.05072 0.88441 0.0
C1737 C 0.19017 0.05968 0.90756 0.0
C1738 C 0.16532 0.03529 0.90347 0.0
C1739 C 0.17081 0.02858 0.94545 0.0
C1740 C 0.1863 0.03727 0.96589 0.0
H1741 H 0.14187 0.93281 0.00342 0.0
H1742 H 0.1527 0.95976 0.97009 0.0
C1743 C 0.19581 0.05273 0.9478 0.0
C1744 C 0.1606 0.01238 0.96719 0.0
H1745 H 0.14959 0.9903 0.09418 0.0
C1746 C 0.15352 0.00025 0.92523 0.0
C1747 C 0.15838 0.00877 0.02893 0.0
C1748 C 0.16423 0.0213 0.07645 0.0
C1749 C 0.1451 0.98455 0.9433 0.0
C1750 C 0.14427 0.9809 0.00487 0.0
C1751 C 0.15051 0.99307 0.04691 0.0
C1752 C 0.13775 0.9646 0.02637 0.0
C1753 C 0.13721 0.97209 0.89605 0.0
C1754 C 0.12637 0.9586 0.07172 0.0
C1755 C 0.12047 0.94327 0.09224 0.0
C1756 C 0.12576 0.93369 0.06725 0.0
C1757 C 0.1374 0.93985 0.0229 0.0
C1758 C 0.14347 0.95521 0.00329 0.0
H1759 H 0.1339 0.97669 0.85673 0.0
H1760 H 0.14547 0.96832 0.88028 0.0
H1761 H 0.12652 0.96172 0.91357 0.0
H1762 H 0.12193 0.96572 0.09072 0.0
H1763 H 0.11149 0.9388 0.12645 0.0
H1764 H 0.93224 0.14098 0.00439 0.0
H1765 H 0.96013 0.15458 0.02711 0.0
H1766 H 0.9693 0.13819 0.86179 0.0
H1767 H 0.94124 0.12441 0.83831 0.0
H1768 H 0.98356 0.1338 0.96923 0.0
H1769 H 0.99495 0.19458 0.94271 0.0
H1770 H 0.97839 0.18219 0.98884 0.0
H1771 H 0.97805 0.17785 0.91072 0.0
C1772 C 0.94015 0.14029 0.97253 0.0
C1773 C 0.9345 0.1316 0.91942 0.0
C1774 C 0.95609 0.14814 0.98558 0.0
C1775 C 0.96672 0.14749 0.94585 0.0
C1776 C 0.96121 0.13885 0.89281 0.0
H1777 H 0.06755 0.20461 0.96959 0.0
H1778 H 0.04037 0.19069 0.93658 0.0
C1779 C 0.94522 0.13103 0.87946 0.0
C1780 C 0.98352 0.15551 0.96099 0.0
H1781 H 0.0149 0.19155 0.98962 0.0
C1782 C 0.99048 0.14643 0.97329 0.0
C1783 C 0.99246 0.17198 0.96581 0.0
C1784 C 0.98566 0.18227 0.95085 0.0
C1785 C 0.00614 0.15341 0.99185 0.0
C1786 C 0.01491 0.16984 -0.00127 0.0
C1787 C 0.00805 0.17893 0.98492 0.0
C1788 C 0.03135 0.1779 0.01913 0.0
C1789 C 0.01321 0.14319 0.00356 0.0
C1790 C 0.03523 0.1754 0.07684 0.0
C1791 C 0.0508 0.18337 0.0961 0.0
C1792 C 0.06271 0.19398 0.05788 0.0
C1793 C 0.0587 0.19649 0.00021 0.0
C1794 C 0.04317 0.18856 0.98115 0.0
H1795 H 0.00615 0.1314 0.98326 0.0
H1796 H 0.02532 0.14868 0.98571 0.0
H1797 H 0.01374 0.14169 0.05248 0.0
H1798 H 0.02619 0.16741 0.10714 0.0
H1799 H 0.05349 0.18122 0.1408 0.0
H1800 H 0.86962 0.46755 0.35372 0.0
H1801 H 0.85583 0.48102 0.38624 0.0
H1802 H 0.83236 0.47153 0.21602 0.0
H1803 H 0.84599 0.45788 0.18298 0.0
H1804 H 0.85645 0.50724 0.33257 0.0
H1805 H 0.79644 0.45554 0.33953 0.0
H1806 H 0.8138 0.45379 0.33691 0.0
H1807 H 0.80668 0.45825 0.27019 0.0
C1808 C 0.8615 0.46826 0.32313 0.0
C1809 C 0.85887 0.46157 0.26577 0.0
C1810 C 0.85364 0.47598 0.34185 0.0
C1811 C 0.84296 0.47707 0.30379 0.0
C1812 C 0.84037 0.47055 0.24638 0.0
H1813 H 0.80492 0.53888 0.32644 0.0
H1814 H 0.81865 0.52497 0.29866 0.0
C1815 C 0.84824 0.46283 0.22752 0.0
C1816 C 0.83481 0.4854 0.32385 0.0
H1817 H 0.79866 0.48043 0.35328 0.0
C1818 C 0.84382 0.50139 0.33727 0.0
C1819 C 0.81837 0.47764 0.33054 0.0
C1820 C 0.80822 0.46033 0.31908 0.0
C1821 C 0.83676 0.50994 0.35621 0.0
C1822 C 0.82028 0.50229 0.36125 0.0
C1823 C 0.81129 0.48624 0.34892 0.0
C1824 C 0.81215 0.51081 0.37869 0.0
C1825 C 0.84695 0.52705 0.37119 0.0
C1826 C 0.80381 0.50726 0.43256 0.0
C1827 C 0.79594 0.51518 0.4487 0.0
C1828 C 0.79617 0.52668 0.41084 0.0
C1829 C 0.80451 0.53012 0.35671 0.0
C1830 C 0.81243 0.52224 0.34082 0.0
H1831 H 0.85937 0.53028 0.37784 0.0
H1832 H 0.84646 0.53422 0.33394 0.0
H1833 H 0.84269 0.53007 0.41224 0.0
H1834 H 0.80343 0.49839 0.46216 0.0
H1835 H 0.78959 0.51221 0.49059 0.0
H1836 H 0.53691 0.38829 0.16901 0.0
H1837 H 0.52258 0.35998 0.18605 0.0
H1838 H 0.5068 0.36706 0.35673 0.0
H1839 H 0.52097 0.39528 0.34031 0.0
H1840 H 0.52636 0.34349 0.28463 0.0
H1841 H 0.46621 0.33449 0.27034 0.0
H1842 H 0.48315 0.35177 0.24158 0.0
H1843 H 0.47899 0.34987 0.32028 0.0
C1844 C 0.53035 0.38383 0.2101 0.0
C1845 C 0.53005 0.39406 0.25324 0.0
C1846 C 0.52219 0.36767 0.2197 0.0
C1847 C 0.5135 0.36149 0.27222 0.0
C1848 C 0.51324 0.37163 0.31545 0.0
H1849 H 0.47941 0.27344 0.45064 0.0
H1850 H 0.49335 0.30068 0.41766 0.0
C1851 C 0.52142 0.38776 0.30607 0.0
C1852 C 0.50503 0.34445 0.28299 0.0
H1853 H 0.46865 0.31338 0.30984 0.0
C1854 C 0.51373 0.33685 0.28964 0.0
C1855 C 0.48856 0.33585 0.28878 0.0
C1856 C 0.47863 0.34335 0.27936 0.0
C1857 C 0.5064 0.3209 0.30407 0.0
C1858 C 0.49001 0.31247 0.31259 0.0
C1859 C 0.48125 0.31995 0.30383 0.0
C1860 C 0.48174 0.29595 0.33189 0.0
C1861 C 0.51624 0.3132 0.31019 0.0
C1862 C 0.47039 0.28437 0.29497 0.0
C1863 C 0.46236 0.26878 0.31368 0.0
C1864 C 0.46546 0.26455 0.36993 0.0
C1865 C 0.47677 0.27626 0.40699 0.0
C1866 C 0.48482 0.29183 0.38812 0.0
H1867 H 0.52776 0.32008 0.28767 0.0
H1868 H 0.51841 0.31228 0.35826 0.0
H1869 H 0.51011 0.3012 0.29111 0.0
H1870 H 0.4678 0.28738 0.25156 0.0
H1871 H 0.4537 0.26007 0.28409 0.0
H1872 H 0.72981 0.1879 0.32535 0.0
H1873 H 0.70204 0.17382 0.29919 0.0
H1874 H 0.69087 0.1878 0.46606 0.0
H1875 H 0.71862 0.20202 0.4927 0.0
H1876 H 0.67645 0.14923 0.36418 0.0
H1877 H 0.6707 0.20213 0.33595 0.0
H1878 H 0.68943 0.20302 0.33723 0.0
H1879 H 0.679 0.2008 0.40566 0.0
C1880 C 0.72148 0.18801 0.35656 0.0
C1881 C 0.72646 0.19618 0.41099 0.0
C1882 C 0.70562 0.17993 0.34154 0.0
C1883 C 0.6945 0.17995 0.38042 0.0
C1884 C 0.69935 0.18787 0.43513 0.0
H1885 H 0.59329 0.12017 0.35994 0.0
H1886 H 0.62066 0.13366 0.3921 0.0
C1887 C 0.7152 0.19593 0.4503 0.0
C1888 C 0.6778 0.17169 0.36353 0.0
H1889 H 0.64749 0.17758 0.32836 0.0
C1890 C 0.67007 0.15539 0.35641 0.0
C1891 C 0.66965 0.17984 0.35292 0.0
C1892 C 0.6776 0.19743 0.35779 0.0
C1893 C 0.6543 0.14697 0.33919 0.0
C1894 C 0.64609 0.1551 0.3295 0.0
C1895 C 0.65384 0.17141 0.33631 0.0
C1896 C 0.62955 0.14696 0.31044 0.0
C1897 C 0.64663 0.12951 0.33028 0.0
C1898 C 0.62552 0.15023 0.25439 0.0
C1899 C 0.60993 0.1426 0.2359 0.0
C1900 C 0.59806 0.13162 0.27338 0.0
C1901 C 0.60214 0.1285 0.32988 0.0
C1902 C 0.61777 0.13614 0.34826 0.0
H1903 H 0.65538 0.12559 0.32707 0.0
H1904 H 0.63885 0.12345 0.3688 0.0
H1905 H 0.63936 0.12585 0.28916 0.0
H1906 H 0.63449 0.1586 0.22474 0.0
H1907 H 0.60721 0.14531 0.19218 0.0
H1908 H 0.52152 0.12078 0.33905 0.0
H1909 H 0.5079 0.13486 0.36471 0.0
H1910 H 0.52259 0.16013 0.19824 0.0
H1911 H 0.53643 0.14611 0.17186 0.0
H1912 H 0.52711 0.17896 0.3043 0.0
H1913 H 0.46687 0.12804 0.28558 0.0
H1914 H 0.47997 0.12478 0.33111 0.0
H1915 H 0.48367 0.12825 0.25241 0.0
C1916 C 0.52185 0.12928 0.30759 0.0
C1917 C 0.53003 0.13228 0.2532 0.0
C1918 C 0.514 0.13728 0.32237 0.0
C1919 C 0.51412 0.14837 0.28306 0.0
C1920 C 0.52235 0.15153 0.22896 0.0
H1921 H 0.45482 0.18922 0.29743 0.0
H1922 H 0.46923 0.17606 0.26994 0.0
C1923 C 0.5302 0.1435 0.21396 0.0
C1924 C 0.50576 0.15676 0.29914 0.0
H1925 H 0.4694 0.1511 0.32925 0.0
C1926 C 0.51449 0.17292 0.30955 0.0
C1927 C 0.48931 0.1488 0.30552 0.0
C1928 C 0.47935 0.13153 0.29261 0.0
C1929 C 0.50717 0.18135 0.32716 0.0
C1930 C 0.49075 0.1733 0.33506 0.0
C1931 C 0.48201 0.15717 0.32376 0.0
C1932 C 0.48226 0.18148 0.3526 0.0
C1933 C 0.51699 0.19879 0.33629 0.0
C1934 C 0.48472 0.18873 0.40862 0.0
C1935 C 0.47648 0.1963 0.42471 0.0
C1936 C 0.46562 0.19667 0.38496 0.0
C1937 C 0.46311 0.18921 0.32915 0.0
C1938 C 0.47133 0.18167 0.31325 0.0
H1939 H 0.5288 0.20364 0.31602 0.0
H1940 H 0.51116 0.2049 0.31675 0.0
H1941 H 0.51848 0.20135 0.38489 0.0
H1942 H 0.49294 0.18845 0.43999 0.0
H1943 H 0.47863 0.20187 0.46808 0.0
H1944 H 0.78984 0.27485 0.48824 0.0
H1945 H 0.80309 0.30215 0.45462 0.0
H1946 H 0.81245 0.2882 0.28403 0.0
H1947 H 0.79943 0.26104 0.31697 0.0
H1948 H 0.83864 0.31365 0.33711 0.0
H1949 H 0.78702 0.32211 0.33101 0.0
H1950 H 0.78986 0.3146 0.40016 0.0
H1951 H 0.78522 0.30299 0.33349 0.0
C1952 C 0.79467 0.27759 0.44351 0.0
C1953 C 0.79354 0.26576 0.4053 0.0
C1954 C 0.80215 0.29316 0.42429 0.0
C1955 C 0.80854 0.2971 0.36662 0.0
C1956 C 0.8075 0.28535 0.32859 0.0
H1957 H 0.84407 0.38557 0.17724 0.0
H1958 H 0.82982 0.35788 0.20585 0.0
C1959 C 0.80005 0.26983 0.34761 0.0
C1960 C 0.81685 0.31354 0.34625 0.0
H1961 H 0.8119 0.34464 0.31502 0.0
C1962 C 0.8328 0.32043 0.33216 0.0
C1963 C 0.80911 0.32222 0.3391 0.0
C1964 C 0.79182 0.31511 0.35119 0.0
C1965 C 0.84133 0.33594 0.31207 0.0
C1966 C 0.8337 0.34477 0.30663 0.0
C1967 C 0.81768 0.3378 0.31961 0.0
C1968 C 0.84231 0.36141 0.28905 0.0
C1969 C 0.85839 0.34273 0.2964 0.0
C1970 C 0.85391 0.37246 0.32669 0.0
C1971 C 0.86203 0.38822 0.31067 0.0
C1972 C 0.85866 0.39323 0.25667 0.0
C1973 C 0.84698 0.38209 0.21902 0.0
C1974 C 0.83881 0.3663 0.2353 0.0
H1975 H 0.86147 0.33345 0.28924 0.0
H1976 H 0.8614 0.35003 0.25546 0.0
H1977 H 0.86569 0.35029 0.33359 0.0
H1978 H 0.8566 0.3689 0.36875 0.0
H1979 H 0.87091 0.39647 0.34085 0.0
H1980 H 0.71832 0.51605 0.50103 0.0
H1981 H 0.69061 0.50165 0.47225 0.0
H1982 H 0.70332 0.51608 0.28931 0.0
H1983 H 0.73092 0.53057 0.31726 0.0
H1984 H 0.67445 0.51697 0.40119 0.0
H1985 H 0.67396 0.46579 0.29407 0.0
H1986 H 0.68789 0.47733 0.35144 0.0
H1987 H 0.69011 0.48496 0.27716 0.0
C1988 C 0.71522 0.51611 0.45466 0.0
C1989 C 0.72682 0.52445 0.41145 0.0
C1990 C 0.69942 0.50791 0.43839 0.0
C1991 C 0.69505 0.50776 0.37869 0.0
C1992 C 0.70655 0.51599 0.33551 0.0
H1993 H 0.6086 0.46448 0.17761 0.0
H1994 H 0.63593 0.47775 0.21038 0.0
C1995 C 0.7223 0.52429 0.3517 0.0
C1996 C 0.67842 0.49943 0.36132 0.0
H1997 H 0.65109 0.46763 0.28437 0.0
C1998 C 0.66925 0.50612 0.37604 0.0
C1999 C 0.67188 0.48543 0.32795 0.0
C2000 C 0.68138 0.47783 0.31181 0.0
C2001 C 0.65364 0.49928 0.35717 0.0
C2002 C 0.647 0.48516 0.32412 0.0
C2003 C 0.65622 0.47845 0.30969 0.0
C2004 C 0.63048 0.47711 0.30439 0.0
C2005 C 0.64458 0.50749 0.37129 0.0
C2006 C 0.61839 0.47217 0.34645 0.0
C2007 C 0.60282 0.46474 0.3279 0.0
C2008 C 0.599 0.46188 0.26688 0.0
C2009 C 0.61113 0.46654 0.22486 0.0
C2010 C 0.62675 0.47411 0.24351 0.0
H2011 H 0.6525 0.52011 0.38085 0.0
H2012 H 0.63673 0.50641 0.3338 0.0
H2013 H 0.63728 0.50209 0.41158 0.0
H2014 H 0.62099 0.47399 0.39375 0.0
H2015 H 0.59376 0.46116 0.36155 0.0
H2016 H 0.53591 0.79731 0.68615 0.0
H2017 H 0.52198 0.81024 0.72376 0.0
H2018 H 0.49562 0.7993 0.55982 0.0
H2019 H 0.50937 0.78627 0.52179 0.0
H2020 H 0.5214 0.83592 0.66981 0.0
H2021 H 0.46184 0.78421 0.69203 0.0
H2022 H 0.47923 0.78257 0.68583 0.0
H2023 H 0.47079 0.78596 0.62037 0.0
C2024 C 0.52708 0.79754 0.65818 0.0
C2025 C 0.52375 0.79073 0.60095 0.0
C2026 C 0.51914 0.80494 0.67979 0.0
C2027 C 0.50766 0.80552 0.64484 0.0
C2028 C 0.50425 0.79871 0.58786 0.0
H2029 H 0.47053 0.86756 0.65181 0.0
H2030 H 0.48382 0.85286 0.63022 0.0
C2031 C 0.5122 0.79135 0.56611 0.0
C2032 C 0.49976 0.81393 0.6666 0.0
H2033 H 0.46383 0.80928 0.69819 0.0
C2034 C 0.50883 0.8301 0.67654 0.0
C2035 C 0.4834 0.80623 0.67594 0.0
C2036 C 0.47323 0.78876 0.66856 0.0
C2037 C 0.50188 0.83889 0.69364 0.0
C2038 C 0.48544 0.8313 0.70029 0.0
C2039 C 0.47642 0.81505 0.69243 0.0
C2040 C 0.47737 0.84013 0.71375 0.0
C2041 C 0.51215 0.85622 0.70431 0.0
C2042 C 0.46909 0.83756 0.76737 0.0
C2043 C 0.46144 0.84593 0.77992 0.0
C2044 C 0.46184 0.85689 0.73869 0.0
C2045 C 0.47001 0.85925 0.68463 0.0
C2046 C 0.47768 0.85093 0.6723 0.0
H2047 H 0.52455 0.85948 0.71193 0.0
H2048 H 0.51173 0.8627 0.6645 0.0
H2049 H 0.50797 0.86004 0.74341 0.0
H2050 H 0.46866 0.82918 0.79969 0.0
H2051 H 0.45523 0.84379 0.8219 0.0
H2052 H 0.19183 0.73255 0.68893 0.0
H2053 H 0.17843 0.70488 0.71605 0.0
H2054 H 0.18964 0.69349 0.54381 0.0
H2055 H 0.2032 0.72117 0.51616 0.0
H2056 H 0.1528 0.67992 0.6557 0.0
H2057 H 0.20481 0.67214 0.66477 0.0
H2058 H 0.20635 0.69116 0.66616 0.0
H2059 H 0.20274 0.68069 0.59695 0.0
C2060 C 0.19152 0.7242 0.65679 0.0
C2061 C 0.19864 0.7291 0.6004 0.0
C2062 C 0.18385 0.7084 0.67241 0.0
C2063 C 0.18323 0.69722 0.63219 0.0
C2064 C 0.19024 0.702 0.57581 0.0
H2065 H 0.1213 0.59693 0.63901 0.0
H2066 H 0.13568 0.62473 0.61356 0.0
C2067 C 0.19791 0.71782 0.56003 0.0
C2068 C 0.17485 0.6805 0.64875 0.0
H2069 H 0.17992 0.6492 0.67356 0.0
C2070 C 0.15871 0.67319 0.65972 0.0
C2071 C 0.18268 0.67186 0.65452 0.0
C2072 C 0.20012 0.67935 0.64552 0.0
C2073 C 0.1501 0.65734 0.67551 0.0
C2074 C 0.15785 0.6486 0.67978 0.0
C2075 C 0.17403 0.65596 0.66973 0.0
C2076 C 0.14933 0.6318 0.69492 0.0
C2077 C 0.13282 0.65009 0.68822 0.0
C2078 C 0.1525 0.6266 0.74859 0.0
C2079 C 0.14432 0.61073 0.76336 0.0
C2080 C 0.13292 0.59977 0.72436 0.0
C2081 C 0.12996 0.60505 0.67017 0.0
C2082 C 0.13811 0.62092 0.6556 0.0
H2083 H 0.1294 0.6591 0.69588 0.0
H2084 H 0.12608 0.64286 0.64941 0.0
H2085 H 0.12946 0.64234 0.72799 0.0
H2086 H 0.1612 0.63487 0.77932 0.0
H2087 H 0.14693 0.60707 0.80534 0.0
H2088 H 0.26328 0.45285 0.65408 0.0
H2089 H 0.29068 0.46781 0.68477 0.0
H2090 H 0.29744 0.50589 0.57018 0.0
H2091 H 0.27025 0.49059 0.53684 0.0
H2092 H 0.3208 0.50146 0.55837 0.0
H2093 H 0.31064 0.50269 0.80049 0.0
H2094 H 0.30174 0.48295 0.77397 0.0
H2095 H 0.29494 0.49573 0.74682 0.0
C2096 C 0.27061 0.46445 0.63569 0.0
C2097 C 0.26465 0.4706 0.5933 0.0
C2098 C 0.28623 0.47305 0.65365 0.0
C2099 C 0.29604 0.48816 0.63101 0.0
C2100 C 0.29008 0.4943 0.58855 0.0
H2101 H 0.38733 0.54879 0.79308 0.0
H2102 H 0.36011 0.53705 0.76012 0.0
C2103 C 0.27456 0.48555 0.56952 0.0
C2104 C 0.31268 0.49728 0.64958 0.0
H2105 H 0.33663 0.50918 0.77148 0.0
C2106 C 0.32424 0.5033 0.60501 0.0
C2107 C 0.31721 0.49999 0.71038 0.0
C2108 C 0.30545 0.49515 0.76054 0.0
C2109 C 0.3402 0.51159 0.6195 0.0
C2110 C 0.34474 0.5133 0.68028 0.0
C2111 C 0.33318 0.50766 0.72486 0.0
C2112 C 0.36138 0.52074 0.69873 0.0
C2113 C 0.35196 0.51862 0.56937 0.0
C2114 C 0.37111 0.5154 0.67566 0.0
C2115 C 0.38673 0.52233 0.69341 0.0
C2116 C 0.39279 0.5344 0.73599 0.0
C2117 C 0.38296 0.53949 0.7602 0.0
C2118 C 0.36742 0.53279 0.74141 0.0
H2119 H 0.34677 0.52108 0.52967 0.0
H2120 H 0.36247 0.52968 0.58335 0.0
H2121 H 0.35567 0.51017 0.55545 0.0
H2122 H 0.3666 0.50575 0.64437 0.0
H2123 H 0.39399 0.51801 0.67471 0.0
H2124 H 0.12004 0.524 0.63815 0.0
H2125 H 0.13359 0.51019 0.60753 0.0
H2126 H 0.1572 0.5204 0.77763 0.0
H2127 H 0.14373 0.53442 0.80896 0.0
H2128 H 0.17697 0.52688 0.6742 0.0
H2129 H 0.12492 0.4671 0.67033 0.0
H2130 H 0.12272 0.48157 0.62954 0.0
H2131 H 0.12509 0.48321 0.70927 0.0
C2132 C 0.12806 0.52329 0.66934 0.0
C2133 C 0.13079 0.53031 0.72615 0.0
C2134 C 0.13574 0.51532 0.65174 0.0
C2135 C 0.14623 0.51415 0.69059 0.0
C2136 C 0.14907 0.52116 0.7472 0.0
H2137 H 0.18658 0.45477 0.66199 0.0
H2138 H 0.17278 0.46843 0.69119 0.0
C2139 C 0.14135 0.52913 0.76501 0.0
C2140 C 0.15445 0.50585 0.67135 0.0
H2141 H 0.14837 0.47004 0.62874 0.0
C2142 C 0.17076 0.51445 0.66439 0.0
C2143 C 0.14626 0.48963 0.65895 0.0
C2144 C 0.12879 0.47977 0.66783 0.0
C2145 C 0.17912 0.50725 0.6446 0.0
C2146 C 0.17088 0.4911 0.63096 0.0
C2147 C 0.15459 0.48247 0.6386 0.0
C2148 C 0.17904 0.48275 0.61166 0.0
C2149 C 0.1967 0.51687 0.63939 0.0
C2150 C 0.18692 0.48614 0.55668 0.0
C2151 C 0.19483 0.47831 0.53958 0.0
C2152 C 0.19497 0.46699 0.57734 0.0
C2153 C 0.18679 0.46346 0.63188 0.0
C2154 C 0.17887 0.47124 0.64872 0.0
H2155 H 0.20149 0.52832 0.66257 0.0
H2156 H 0.20227 0.51044 0.65836 0.0
H2157 H 0.19999 0.51915 0.59151 0.0
H2158 H 0.18696 0.49485 0.52713 0.0
H2159 H 0.20098 0.48126 0.49724 0.0
H2160 H 0.4778 0.59596 0.6882 0.0
H2161 H 0.49173 0.62302 0.65364 0.0
H2162 H 0.46412 0.6341 0.77224 0.0
H2163 H 0.45062 0.60712 0.8091 0.0
H2164 H 0.48081 0.63852 0.59591 0.0
H2165 H 0.5068 0.66947 0.80847 0.0
H2166 H 0.49773 0.64852 0.8015 0.0
H2167 H 0.48591 0.65752 0.81234 0.0
C2168 C 0.47486 0.60422 0.70759 0.0
C2169 C 0.46319 0.59947 0.75157 0.0
C2170 C 0.48279 0.61967 0.68765 0.0
C2171 C 0.4791 0.63065 0.71072 0.0
C2172 C 0.46747 0.62595 0.75488 0.0
H2173 H 0.50535 0.71877 0.52725 0.0
H2174 H 0.49129 0.69155 0.56155 0.0
C2175 C 0.45972 0.61053 0.77576 0.0
C2176 C 0.48702 0.64678 0.68643 0.0
H2177 H 0.5083 0.68525 0.7258 0.0
C2178 C 0.4869 0.64875 0.62428 0.0
C2179 C 0.49507 0.6601 0.72341 0.0
C2180 C 0.49654 0.65882 0.79004 0.0
C2181 C 0.4947 0.66365 0.59801 0.0
C2182 C 0.50235 0.67699 0.63516 0.0
C2183 C 0.50236 0.67502 0.69734 0.0
C2184 C 0.51093 0.69312 0.61086 0.0
C2185 C 0.49505 0.66485 0.53074 0.0
C2186 C 0.52655 0.7031 0.62772 0.0
C2187 C 0.53442 0.71868 0.60947 0.0
C2188 C 0.52691 0.72456 0.57326 0.0
C2189 C 0.51146 0.71446 0.55454 0.0
C2190 C 0.50345 0.6989 0.57392 0.0
H2191 H 0.4929 0.6538 0.5093 0.0
H2192 H 0.48568 0.66718 0.5158 0.0
H2193 H 0.50647 0.67452 0.51468 0.0
H2194 H 0.53258 0.6989 0.65602 0.0
H2195 H 0.54635 0.7262 0.62434 0.0
H2196 H 0.27447 0.79206 0.5133 0.0
H2197 H 0.30212 0.80549 0.54235 0.0
H2198 H 0.29061 0.81937 0.70877 0.0
H2199 H 0.26307 0.80616 0.6803 0.0
H2200 H 0.31668 0.84376 0.64652 0.0
H2201 H 0.3211 0.79008 0.67396 0.0
H2202 H 0.31332 0.79195 0.60375 0.0
H2203 H 0.30256 0.78959 0.67137 0.0
C2204 C 0.27782 0.798 0.55602 0.0
C2205 C 0.26655 0.79797 0.59458 0.0
C2206 C 0.29359 0.80557 0.57264 0.0
C2207 C 0.29831 0.81321 0.62798 0.0
C2208 C 0.28715 0.81346 0.666 0.0
H2209 H 0.38608 0.84696 0.81805 0.0
H2210 H 0.35847 0.8339 0.78856 0.0
C2211 C 0.27142 0.80587 0.6496 0.0
C2212 C 0.31489 0.82111 0.64643 0.0
H2213 H 0.34452 0.8144 0.68448 0.0
C2214 C 0.3228 0.83737 0.6548 0.0
C2215 C 0.3227 0.81265 0.65792 0.0
C2216 C 0.3145 0.79508 0.65183 0.0
C2217 C 0.33843 0.84547 0.67371 0.0
C2218 C 0.34634 0.83706 0.68391 0.0
C2219 C 0.33839 0.82078 0.6763 0.0
C2220 C 0.36296 0.84503 0.70188 0.0
C2221 C 0.34632 0.86292 0.68337 0.0
C2222 C 0.37454 0.85547 0.66259 0.0
C2223 C 0.39027 0.86292 0.67915 0.0
C2224 C 0.39471 0.86002 0.73535 0.0
C2225 C 0.38305 0.84949 0.77459 0.0
C2226 C 0.3673 0.842 0.75781 0.0
H2227 H 0.33769 0.86699 0.68713 0.0
H2228 H 0.35362 0.8664 0.7244 0.0
H2229 H 0.3541 0.86901 0.64486 0.0
H2230 H 0.37141 0.85776 0.61888 0.0
H2231 H 0.39893 0.87093 0.64773 0.0
loop_
_geom_bond_atom_site_label_1
_geom_bond_atom_site_label_2
_geom_bond_distance
_geom_bond_site_symmetry_2
_ccdc_geom_bond_type
Co0 O3 1.970 . S
Co0 N17 1.989 . S
Co0 O25 1.967 . S
Co0 O32 1.920 1_554 S
Co1 O4 1.966 . S
Co1 N10 2.022 . S
Co1 N18 1.993 . S
Co1 O26 1.941 . S
C2 O3 1.258 . S
C2 O4 1.263 . S
O3 Co0 1.970 . S
O3 C2 1.258 . S
O4 Co1 1.966 . S
O4 C2 1.263 . S
C5 O6 1.235 . S
C5 O32 1.289 . S
O6 C5 1.235 . S
C7 C9 1.400 . S
C7 N10 1.351 . S
C7 C12 1.501 . S
C8 C9 1.387 . S
C8 N11 1.341 . S
C9 C7 1.400 . S
C9 C8 1.387 . S
N10 Co1 2.022 . S
N10 C7 1.351 . S
N10 N11 1.365 . S
N11 C8 1.341 . S
N11 N10 1.365 . S
N11 H31 0.862 . S
C12 C7 1.501 . S
C12 H13 0.961 . S
C12 H14 0.961 . S
C12 H15 0.960 . S
H13 C12 0.961 . S
H14 C12 0.961 . S
H15 C12 0.960 . S
C16 N17 1.342 . S
C16 C20 1.401 . S
C16 C21 1.499 . S
N17 Co0 1.989 . S
N17 C16 1.342 . S
N17 N18 1.388 . S
N18 Co1 1.993 . S
N18 N17 1.388 . S
N18 C19 1.346 . S
C19 N18 1.346 . S
C19 C20 1.396 . S
C19 C29 1.510 . S
C20 C16 1.401 . S
C20 C19 1.396 . S
C21 C16 1.499 . S
C21 H22 0.959 . S
C21 H23 0.960 . S
C21 H24 0.961 . S
H22 C21 0.959 . S
H23 C21 0.960 . S
H24 C21 0.961 . S
O25 Co0 1.967 . S
O25 C33 1.258 . S
O26 Co1 1.941 . S
O26 C33 1.266 . S
H27 C29 0.959 . S
H28 C29 0.961 . S
C29 C19 1.510 . S
C29 H27 0.959 . S
C29 H28 0.961 . S
C29 H30 0.960 . S
H30 C29 0.960 . S
H31 N11 0.862 . S
O32 Co0 1.920 1_556 S
O32 C5 1.289 . S
C33 O25 1.258 . S
C33 O26 1.266 . S
Co34 O37 1.970 . S
Co34 N51 1.989 . S
Co34 O59 1.967 . S
Co34 O66 1.920 1_554 S
Co35 O38 1.966 . S
Co35 N44 2.022 . S
Co35 N52 1.993 . S
Co35 O60 1.941 . S
C36 O37 1.258 . S
C36 O38 1.263 . S
O37 Co34 1.970 . S
O37 C36 1.258 . S
O38 Co35 1.966 . S
O38 C36 1.263 . S
C39 O40 1.235 . S
C39 O66 1.289 . S
O40 C39 1.235 . S
C41 C43 1.400 . S
C41 N44 1.351 . S
C41 C46 1.501 . S
C42 C43 1.387 . S
C42 N45 1.341 . S
C43 C41 1.400 . S
C43 C42 1.387 . S
N44 Co35 2.022 . S
N44 C41 1.351 . S
N44 N45 1.365 . S
N45 C42 1.341 . S
N45 N44 1.365 . S
N45 H65 0.862 . S
C46 C41 1.501 . S
C46 H47 0.961 . S
C46 H48 0.961 . S
C46 H49 0.960 . S
H47 C46 0.961 . S
H48 C46 0.961 . S
H49 C46 0.960 . S
C50 N51 1.342 . S
C50 C54 1.401 . S
C50 C55 1.499 . S
N51 Co34 1.989 . S
N51 C50 1.342 . S
N51 N52 1.388 . S
N52 Co35 1.993 . S
N52 N51 1.388 . S
N52 C53 1.346 . S
C53 N52 1.346 . S
C53 C54 1.396 . S
C53 C63 1.510 . S
C54 C50 1.401 . S
C54 C53 1.396 . S
C55 C50 1.499 . S
C55 H56 0.959 . S
C55 H57 0.960 . S
C55 H58 0.961 . S
H56 C55 0.959 . S
H57 C55 0.960 . S
H58 C55 0.961 . S
O59 Co34 1.967 . S
O59 C67 1.258 . S
O60 Co35 1.941 . S
O60 C67 1.266 . S
H61 C63 0.959 . S
H62 C63 0.961 . S
C63 C53 1.510 . S
C63 H61 0.959 . S
C63 H62 0.961 . S
C63 H64 0.960 . S
H64 C63 0.960 . S
H65 N45 0.862 . S
O66 Co34 1.920 1_556 S
O66 C39 1.289 . S
C67 O59 1.258 . S
C67 O60 1.266 . S
Co68 O71 1.970 . S
Co68 N85 1.989 . S
Co68 O93 1.967 . S
Co68 O100 1.920 1_554 S
Co69 O72 1.966 . S
Co69 N78 2.022 . S
Co69 N86 1.993 . S
Co69 O94 1.941 . S
C70 O71 1.258 . S
C70 O72 1.263 . S
O71 Co68 1.970 . S
O71 C70 1.258 . S
O72 Co69 1.966 . S
O72 C70 1.263 . S
C73 O74 1.235 . S
C73 O100 1.289 . S
O74 C73 1.235 . S
C75 C77 1.400 . S
C75 N78 1.351 . S
C75 C80 1.501 . S
C76 C77 1.387 . S
C76 N79 1.341 . S
C77 C75 1.400 . S
C77 C76 1.387 . S
N78 Co69 2.022 . S
N78 C75 1.351 . S
N78 N79 1.365 . S
N79 C76 1.341 . S
N79 N78 1.365 . S
N79 H99 0.862 . S
C80 C75 1.501 . S
C80 H81 0.961 . S
C80 H82 0.961 . S
C80 H83 0.960 . S
H81 C80 0.961 . S
H82 C80 0.961 . S
H83 C80 0.960 . S
C84 N85 1.342 . S
C84 C88 1.401 . S
C84 C89 1.499 . S
N85 Co68 1.989 . S
N85 C84 1.342 . S
N85 N86 1.388 . S
N86 Co69 1.993 . S
N86 N85 1.388 . S
N86 C87 1.346 . S
C87 N86 1.346 . S
C87 C88 1.396 . S
C87 C97 1.510 . S
C88 C84 1.401 . S
C88 C87 1.396 . S
C89 C84 1.499 . S
C89 H90 0.959 . S
C89 H91 0.960 . S
C89 H92 0.961 . S
H90 C89 0.959 . S
H91 C89 0.960 . S
H92 C89 0.961 . S
O93 Co68 1.967 . S
O93 C101 1.258 . S
O94 Co69 1.941 . S
O94 C101 1.266 . S
H95 C97 0.959 . S
H96 C97 0.961 . S
C97 C87 1.510 . S
C97 H95 0.959 . S
C97 H96 0.961 . S
C97 H98 0.960 . S
H98 C97 0.960 . S
H99 N79 0.862 . S
O100 Co68 1.920 1_556 S
O100 C73 1.289 . S
C101 O93 1.258 . S
C101 O94 1.266 . S
Co102 O105 1.970 . S
Co102 N119 1.989 . S
Co102 O127 1.967 . S
Co102 O134 1.920 1_556 S
Co103 O106 1.966 . S
Co103 N112 2.022 . S
Co103 N120 1.993 . S
Co103 O128 1.941 . S
C104 O105 1.258 . S
C104 O106 1.263 . S
O105 Co102 1.970 . S
O105 C104 1.258 . S
O106 Co103 1.966 . S
O106 C104 1.263 . S
C107 O108 1.235 . S
C107 O134 1.289 . S
O108 C107 1.235 . S
C109 C111 1.400 . S
C109 N112 1.351 . S
C109 C114 1.501 . S
C110 C111 1.387 . S
C110 N113 1.341 . S
C111 C109 1.400 . S
C111 C110 1.387 . S
N112 Co103 2.022 . S
N112 C109 1.351 . S
N112 N113 1.365 . S
N113 C110 1.341 . S
N113 N112 1.365 . S
N113 H133 0.862 . S
C114 C109 1.501 . S
C114 H115 0.961 . S
C114 H116 0.961 . S
C114 H117 0.960 . S
H115 C114 0.961 . S
H116 C114 0.961 . S
H117 C114 0.960 . S
C118 N119 1.342 . S
C118 C122 1.401 . S
C118 C123 1.499 . S
N119 Co102 1.989 . S
N119 C118 1.342 . S
N119 N120 1.388 . S
N120 Co103 1.993 . S
N120 N119 1.388 . S
N120 C121 1.346 . S
C121 N120 1.346 . S
C121 C122 1.396 . S
C121 C131 1.510 . S
C122 C118 1.401 . S
C122 C121 1.396 . S
C123 C118 1.499 . S
C123 H124 0.959 . S
C123 H125 0.960 . S
C123 H126 0.961 . S
H124 C123 0.959 . S
H125 C123 0.960 . S
H126 C123 0.961 . S
O127 Co102 1.967 . S
O127 C135 1.258 . S
O128 Co103 1.941 . S
O128 C135 1.266 . S
H129 C131 0.959 . S
H130 C131 0.961 . S
C131 C121 1.510 . S
C131 H129 0.959 . S
C131 H130 0.961 . S
C131 H132 0.960 . S
H132 C131 0.960 . S
H133 N113 0.862 . S
O134 Co102 1.920 1_554 S
O134 C107 1.289 . S
C135 O127 1.258 . S
C135 O128 1.266 . S
Co136 O139 1.970 . S
Co136 N153 1.989 . S
Co136 O161 1.967 . S
Co136 O168 1.920 1_556 S
Co137 O140 1.966 . S
Co137 N146 2.022 . S
Co137 N154 1.993 . S
Co137 O162 1.941 . S
C138 O139 1.258 . S
C138 O140 1.263 . S
O139 Co136 1.970 . S
O139 C138 1.258 . S
O140 Co137 1.966 . S
O140 C138 1.263 . S
C141 O142 1.235 . S
C141 O168 1.289 . S
O142 C141 1.235 . S
C143 C145 1.400 . S
C143 N146 1.351 . S
C143 C148 1.501 . S
C144 C145 1.387 . S
C144 N147 1.341 . S
C145 C143 1.400 . S
C145 C144 1.387 . S
N146 Co137 2.022 . S
N146 C143 1.351 . S
N146 N147 1.365 . S
N147 C144 1.341 . S
N147 N146 1.365 . S
N147 H167 0.862 . S
C148 C143 1.501 . S
C148 H149 0.961 . S
C148 H150 0.961 . S
C148 H151 0.960 . S
H149 C148 0.961 . S
H150 C148 0.961 . S
H151 C148 0.960 . S
C152 N153 1.342 . S
C152 C156 1.401 . S
C152 C157 1.499 . S
N153 Co136 1.989 . S
N153 C152 1.342 . S
N153 N154 1.388 . S
N154 Co137 1.993 . S
N154 N153 1.388 . S
N154 C155 1.346 . S
C155 N154 1.346 . S
C155 C156 1.396 . S
C155 C165 1.510 . S
C156 C152 1.401 . S
C156 C155 1.396 . S
C157 C152 1.499 . S
C157 H158 0.959 . S
C157 H159 0.960 . S
C157 H160 0.961 . S
H158 C157 0.959 . S
H159 C157 0.960 . S
H160 C157 0.961 . S
O161 Co136 1.967 . S
O161 C169 1.258 . S
O162 Co137 1.941 . S
O162 C169 1.266 . S
H163 C165 0.959 . S
H164 C165 0.961 . S
C165 C155 1.510 . S
C165 H163 0.959 . S
C165 H164 0.961 . S
C165 H166 0.960 . S
H166 C165 0.960 . S
H167 N147 0.862 . S
O168 Co136 1.920 1_554 S
O168 C141 1.289 . S
C169 O161 1.258 . S
C169 O162 1.266 . S
Co170 O173 1.970 . S
Co170 N187 1.989 . S
Co170 O195 1.967 . S
Co170 O202 1.920 1_556 S
Co171 O174 1.966 . S
Co171 N180 2.022 . S
Co171 N188 1.993 . S
Co171 O196 1.941 . S
C172 O173 1.258 . S
C172 O174 1.263 . S
O173 Co170 1.970 . S
O173 C172 1.258 . S
O174 Co171 1.966 . S
O174 C172 1.263 . S
C175 O176 1.235 . S
C175 O202 1.289 . S
O176 C175 1.235 . S
C177 C179 1.400 . S
C177 N180 1.351 . S
C177 C182 1.501 . S
C178 C179 1.387 . S
C178 N181 1.341 . S
C179 C177 1.400 . S
C179 C178 1.387 . S
N180 Co171 2.022 . S
N180 C177 1.351 . S
N180 N181 1.365 . S
N181 C178 1.341 . S
N181 N180 1.365 . S
N181 H201 0.862 . S
C182 C177 1.501 . S
C182 H183 0.961 . S
C182 H184 0.961 . S
C182 H185 0.960 . S
H183 C182 0.961 . S
H184 C182 0.961 . S
H185 C182 0.960 . S
C186 N187 1.342 . S
C186 C190 1.401 . S
C186 C191 1.499 . S
N187 Co170 1.989 . S
N187 C186 1.342 . S
N187 N188 1.388 . S
N188 Co171 1.993 . S
N188 N187 1.388 . S
N188 C189 1.346 . S
C189 N188 1.346 . S
C189 C190 1.396 . S
C189 C199 1.510 . S
C190 C186 1.401 . S
C190 C189 1.396 . S
C191 C186 1.499 . S
C191 H192 0.959 . S
C191 H193 0.960 . S
C191 H194 0.961 . S
H192 C191 0.959 . S
H193 C191 0.960 . S
H194 C191 0.961 . S
O195 Co170 1.967 . S
O195 C203 1.258 . S
O196 Co171 1.941 . S
O196 C203 1.266 . S
H197 C199 0.959 . S
H198 C199 0.961 . S
C199 C189 1.510 . S
C199 H197 0.959 . S
C199 H198 0.961 . S
C199 H200 0.960 . S
H200 C199 0.960 . S
H201 N181 0.862 . S
O202 Co170 1.920 1_554 S
O202 C175 1.289 . S
C203 O195 1.258 . S
C203 O196 1.266 . S
Co204 O207 1.970 . S
Co204 N221 1.989 . S
Co204 O229 1.967 . S
Co204 O236 1.920 . S
Co205 O208 1.966 . S
Co205 N214 2.022 . S
Co205 N222 1.993 . S
Co205 O230 1.941 . S
C206 O207 1.258 . S
C206 O208 1.263 . S
O207 Co204 1.970 . S
O207 C206 1.258 . S
O208 Co205 1.966 . S
O208 C206 1.263 . S
C209 O210 1.235 . S
C209 O236 1.289 . S
O210 C209 1.235 . S
C211 C213 1.400 . S
C211 N214 1.351 . S
C211 C216 1.501 . S
C212 C213 1.387 . S
C212 N215 1.341 . S
C213 C211 1.400 . S
C213 C212 1.387 . S
N214 Co205 2.022 . S
N214 C211 1.351 . S
N214 N215 1.365 . S
N215 C212 1.341 . S
N215 N214 1.365 . S
N215 H235 0.862 . S
C216 C211 1.501 . S
C216 H217 0.961 . S
C216 H218 0.961 . S
C216 H219 0.960 . S
H217 C216 0.961 . S
H218 C216 0.961 . S
H219 C216 0.960 . S
C220 N221 1.342 . S
C220 C224 1.401 . S
C220 C225 1.499 . S
N221 Co204 1.989 . S
N221 C220 1.342 . S
N221 N222 1.388 . S
N222 Co205 1.993 . S
N222 N221 1.388 . S
N222 C223 1.346 . S
C223 N222 1.346 . S
C223 C224 1.396 . S
C223 C233 1.510 . S
C224 C220 1.401 . S
C224 C223 1.396 . S
C225 C220 1.499 . S
C225 H226 0.959 . S
C225 H227 0.960 . S
C225 H228 0.961 . S
H226 C225 0.959 . S
H227 C225 0.960 . S
H228 C225 0.961 . S
O229 Co204 1.967 . S
O229 C237 1.258 . S
O230 Co205 1.941 . S
O230 C237 1.266 . S
H231 C233 0.959 . S
H232 C233 0.961 . S
C233 C223 1.510 . S
C233 H231 0.959 . S
C233 H232 0.961 . S
C233 H234 0.960 . S
H234 C233 0.960 . S
H235 N215 0.862 . S
O236 Co204 1.920 . S
O236 C209 1.289 . S
C237 O229 1.258 . S
C237 O230 1.266 . S
Co238 O241 1.970 . S
Co238 N255 1.989 . S
Co238 O263 1.967 . S
Co238 O270 1.920 . S
Co239 O242 1.966 . S
Co239 N248 2.022 . S
Co239 N256 1.993 . S
Co239 O264 1.941 . S
C240 O241 1.258 . S
C240 O242 1.263 . S
O241 Co238 1.970 . S
O241 C240 1.258 . S
O242 Co239 1.966 . S
O242 C240 1.263 . S
C243 O244 1.235 . S
C243 O270 1.289 . S
O244 C243 1.235 . S
C245 C247 1.400 . S
C245 N248 1.351 . S
C245 C250 1.501 . S
C246 C247 1.387 . S
C246 N249 1.341 . S
C247 C245 1.400 . S
C247 C246 1.387 . S
N248 Co239 2.022 . S
N248 C245 1.351 . S
N248 N249 1.365 . S
N249 C246 1.341 . S
N249 N248 1.365 . S
N249 H269 0.862 . S
C250 C245 1.501 . S
C250 H251 0.961 . S
C250 H252 0.961 . S
C250 H253 0.960 . S
H251 C250 0.961 . S
H252 C250 0.961 . S
H253 C250 0.960 . S
C254 N255 1.342 . S
C254 C258 1.401 . S
C254 C259 1.499 . S
N255 Co238 1.989 . S
N255 C254 1.342 . S
N255 N256 1.388 . S
N256 Co239 1.993 . S
N256 N255 1.388 . S
N256 C257 1.346 . S
C257 N256 1.346 . S
C257 C258 1.396 . S
C257 C267 1.510 . S
C258 C254 1.401 . S
C258 C257 1.396 . S
C259 C254 1.499 . S
C259 H260 0.959 . S
C259 H261 0.960 . S
C259 H262 0.961 . S
H260 C259 0.959 . S
H261 C259 0.960 . S
H262 C259 0.961 . S
O263 Co238 1.967 . S
O263 C271 1.258 . S
O264 Co239 1.941 . S
O264 C271 1.266 . S
H265 C267 0.959 . S
H266 C267 0.961 . S
C267 C257 1.510 . S
C267 H265 0.959 . S
C267 H266 0.961 . S
C267 H268 0.960 . S
H268 C267 0.960 . S
H269 N249 0.862 . S
O270 Co238 1.920 . S
O270 C243 1.289 . S
C271 O263 1.258 . S
C271 O264 1.266 . S
Co272 O275 1.970 . S
Co272 N289 1.989 . S
Co272 O297 1.967 . S
Co272 O304 1.920 . S
Co273 O276 1.966 . S
Co273 N282 2.022 . S
Co273 N290 1.993 . S
Co273 O298 1.941 . S
C274 O275 1.258 . S
C274 O276 1.263 . S
O275 Co272 1.970 . S
O275 C274 1.258 . S
O276 Co273 1.966 . S
O276 C274 1.263 . S
C277 O278 1.235 . S
C277 O304 1.289 . S
O278 C277 1.235 . S
C279 C281 1.400 . S
C279 N282 1.351 . S
C279 C284 1.501 . S
C280 C281 1.387 . S
C280 N283 1.341 . S
C281 C279 1.400 . S
C281 C280 1.387 . S
N282 Co273 2.022 . S
N282 C279 1.351 . S
N282 N283 1.365 . S
N283 C280 1.341 . S
N283 N282 1.365 . S
N283 H303 0.862 . S
C284 C279 1.501 . S
C284 H285 0.961 . S
C284 H286 0.961 . S
C284 H287 0.960 . S
H285 C284 0.961 . S
H286 C284 0.961 . S
H287 C284 0.960 . S
C288 N289 1.342 . S
C288 C292 1.401 . S
C288 C293 1.499 . S
N289 Co272 1.989 . S
N289 C288 1.342 . S
N289 N290 1.388 . S
N290 Co273 1.993 . S
N290 N289 1.388 . S
N290 C291 1.346 . S
C291 N290 1.346 . S
C291 C292 1.396 . S
C291 C301 1.510 . S
C292 C288 1.401 . S
C292 C291 1.396 . S
C293 C288 1.499 . S
C293 H294 0.959 . S
C293 H295 0.960 . S
C293 H296 0.961 . S
H294 C293 0.959 . S
H295 C293 0.960 . S
H296 C293 0.961 . S
O297 Co272 1.967 . S
O297 C305 1.258 . S
O298 Co273 1.941 . S
O298 C305 1.266 . S
H299 C301 0.959 . S
H300 C301 0.961 . S
C301 C291 1.510 . S
C301 H299 0.959 . S
C301 H300 0.961 . S
C301 H302 0.960 . S
H302 C301 0.960 . S
H303 N283 0.862 . S
O304 Co272 1.920 . S
O304 C277 1.289 . S
C305 O297 1.258 . S
C305 O298 1.266 . S
Co306 O309 1.970 . S
Co306 N323 1.989 . S
Co306 O331 1.967 . S
Co306 O338 1.920 . S
Co307 O310 1.966 . S
Co307 N316 2.022 . S
Co307 N324 1.993 . S
Co307 O332 1.941 . S
C308 O309 1.258 . S
C308 O310 1.263 . S
O309 Co306 1.970 . S
O309 C308 1.258 . S
O310 Co307 1.966 . S
O310 C308 1.263 . S
C311 O312 1.235 . S
C311 O338 1.289 . S
O312 C311 1.235 . S
C313 C315 1.400 . S
C313 N316 1.351 1_556 S
C313 C318 1.501 1_556 S
C314 C315 1.387 . S
C314 N317 1.341 . S
C315 C313 1.400 . S
C315 C314 1.387 . S
N316 Co307 2.022 . S
N316 C313 1.351 1_554 S
N316 N317 1.365 1_554 S
N317 C314 1.341 . S
N317 N316 1.365 1_556 S
N317 H337 0.862 1_556 S
C318 C313 1.501 1_554 S
C318 H319 0.961 . S
C318 H320 0.961 . S
C318 H321 0.960 1_554 S
H319 C318 0.961 . S
H320 C318 0.961 . S
H321 C318 0.960 1_556 S
C322 N323 1.342 . S
C322 C326 1.401 . S
C322 C327 1.499 . S
N323 Co306 1.989 . S
N323 C322 1.342 . S
N323 N324 1.388 . S
N324 Co307 1.993 . S
N324 N323 1.388 . S
N324 C325 1.346 . S
C325 N324 1.346 . S
C325 C326 1.396 . S
C325 C335 1.510 . S
C326 C322 1.401 . S
C326 C325 1.396 . S
C327 C322 1.499 . S
C327 H328 0.959 . S
C327 H329 0.960 . S
C327 H330 0.961 . S
H328 C327 0.959 . S
H329 C327 0.960 . S
H330 C327 0.961 . S
O331 Co306 1.967 . S
O331 C339 1.258 . S
O332 Co307 1.941 . S
O332 C339 1.266 . S
H333 C335 0.959 . S
H334 C335 0.961 . S
C335 C325 1.510 . S
C335 H333 0.959 . S
C335 H334 0.961 . S
C335 H336 0.960 . S
H336 C335 0.960 . S
H337 N317 0.862 1_554 S
O338 Co306 1.920 . S
O338 C311 1.289 . S
C339 O331 1.258 . S
C339 O332 1.266 . S
Co340 O343 1.970 . S
Co340 N357 1.989 . S
Co340 O365 1.967 . S
Co340 O372 1.920 . S
Co341 O344 1.966 . S
Co341 N350 2.022 . S
Co341 N358 1.993 . S
Co341 O366 1.941 . S
C342 O343 1.258 . S
C342 O344 1.263 . S
O343 Co340 1.970 . S
O343 C342 1.258 . S
O344 Co341 1.966 . S
O344 C342 1.263 . S
C345 O346 1.235 . S
C345 O372 1.289 . S
O346 C345 1.235 . S
C347 C349 1.400 . S
C347 N350 1.351 1_556 S
C347 C352 1.501 1_556 S
C348 C349 1.387 . S
C348 N351 1.341 . S
C349 C347 1.400 . S
C349 C348 1.387 . S
N350 Co341 2.022 . S
N350 C347 1.351 1_554 S
N350 N351 1.365 1_554 S
N351 C348 1.341 . S
N351 N350 1.365 1_556 S
N351 H371 0.862 1_556 S
C352 C347 1.501 1_554 S
C352 H353 0.961 . S
C352 H354 0.961 . S
C352 H355 0.960 1_554 S
H353 C352 0.961 . S
H354 C352 0.961 . S
H355 C352 0.960 1_556 S
C356 N357 1.342 . S
C356 C360 1.401 . S
C356 C361 1.499 . S
N357 Co340 1.989 . S
N357 C356 1.342 . S
N357 N358 1.388 . S
N358 Co341 1.993 . S
N358 N357 1.388 . S
N358 C359 1.346 . S
C359 N358 1.346 . S
C359 C360 1.396 . S
C359 C369 1.510 . S
C360 C356 1.401 . S
C360 C359 1.396 . S
C361 C356 1.499 . S
C361 H362 0.959 . S
C361 H363 0.960 . S
C361 H364 0.961 . S
H362 C361 0.959 . S
H363 C361 0.960 . S
H364 C361 0.961 . S
O365 Co340 1.967 . S
O365 C373 1.258 . S
O366 Co341 1.941 . S
O366 C373 1.266 . S
H367 C369 0.959 . S
H368 C369 0.961 . S
C369 C359 1.510 . S
C369 H367 0.959 . S
C369 H368 0.961 . S
C369 H370 0.960 . S
H370 C369 0.960 . S
H371 N351 0.862 1_554 S
O372 Co340 1.920 . S
O372 C345 1.289 . S
C373 O365 1.258 . S
C373 O366 1.266 . S
Co374 O377 1.970 . S
Co374 N391 1.989 . S
Co374 O399 1.967 . S
Co374 O406 1.920 . S
Co375 O378 1.966 . S
Co375 N384 2.022 . S
Co375 N392 1.993 . S
Co375 O400 1.941 . S
C376 O377 1.258 . S
C376 O378 1.263 . S
O377 Co374 1.970 . S
O377 C376 1.258 . S
O378 Co375 1.966 . S
O378 C376 1.263 . S
C379 O380 1.235 . S
C379 O406 1.289 . S
O380 C379 1.235 . S
C381 C383 1.400 . S
C381 N384 1.351 1_556 S
C381 C386 1.501 1_556 S
C382 C383 1.387 . S
C382 N385 1.341 . S
C383 C381 1.400 . S
C383 C382 1.387 . S
N384 Co375 2.022 . S
N384 C381 1.351 1_554 S
N384 N385 1.365 1_554 S
N385 C382 1.341 . S
N385 N384 1.365 1_556 S
N385 H405 0.862 1_556 S
C386 C381 1.501 1_554 S
C386 H387 0.961 . S
C386 H388 0.961 . S
C386 H389 0.960 1_554 S
H387 C386 0.961 . S
H388 C386 0.961 . S
H389 C386 0.960 1_556 S
C390 N391 1.342 . S
C390 C394 1.401 . S
C390 C395 1.499 . S
N391 Co374 1.989 . S
N391 C390 1.342 . S
N391 N392 1.388 . S
N392 Co375 1.993 . S
N392 N391 1.388 . S
N392 C393 1.346 . S
C393 N392 1.346 . S
C393 C394 1.396 . S
C393 C403 1.510 . S
C394 C390 1.401 . S
C394 C393 1.396 . S
C395 C390 1.499 . S
C395 H396 0.959 . S
C395 H397 0.960 . S
C395 H398 0.961 . S
H396 C395 0.959 . S
H397 C395 0.960 . S
H398 C395 0.961 . S
O399 Co374 1.967 . S
O399 C407 1.258 . S
O400 Co375 1.941 . S
O400 C407 1.266 . S
H401 C403 0.959 . S
H402 C403 0.961 . S
C403 C393 1.510 . S
C403 H401 0.959 . S
C403 H402 0.961 . S
C403 H404 0.960 . S
H404 C403 0.960 . S
H405 N385 0.862 1_554 S
O406 Co374 1.920 . S
O406 C379 1.289 . S
C407 O399 1.258 . S
C407 O400 1.266 . S
Co408 O411 1.970 . S
Co408 N425 1.989 . S
Co408 O433 1.967 . S
Co408 O440 1.920 . S
Co409 O412 1.966 . S
Co409 N418 2.022 . S
Co409 N426 1.993 . S
Co409 O434 1.941 . S
C410 O411 1.258 . S
C410 O412 1.263 . S
O411 Co408 1.970 . S
O411 C410 1.258 . S
O412 Co409 1.966 . S
O412 C410 1.263 . S
C413 O414 1.235 . S
C413 O440 1.289 . S
O414 C413 1.235 . S
C415 C417 1.400 . S
C415 N418 1.351 1_554 S
C415 C420 1.501 1_554 S
C416 C417 1.387 . S
C416 N419 1.341 . S
C417 C415 1.400 . S
C417 C416 1.387 . S
N418 Co409 2.022 . S
N418 C415 1.351 1_556 S
N418 N419 1.365 1_556 S
N419 C416 1.341 . S
N419 N418 1.365 1_554 S
N419 H439 0.862 1_554 S
C420 C415 1.501 1_556 S
C420 H421 0.961 . S
C420 H422 0.961 . S
C420 H423 0.960 1_556 S
H421 C420 0.961 . S
H422 C420 0.961 . S
H423 C420 0.960 1_554 S
C424 N425 1.342 . S
C424 C428 1.401 . S
C424 C429 1.499 . S
N425 Co408 1.989 . S
N425 C424 1.342 . S
N425 N426 1.388 . S
N426 Co409 1.993 . S
N426 N425 1.388 . S
N426 C427 1.346 . S
C427 N426 1.346 . S
C427 C428 1.396 . S
C427 C437 1.510 . S
C428 C424 1.401 . S
C428 C427 1.396 . S
C429 C424 1.499 . S
C429 H430 0.959 . S
C429 H431 0.960 . S
C429 H432 0.961 . S
H430 C429 0.959 . S
H431 C429 0.960 . S
H432 C429 0.961 . S
O433 Co408 1.967 . S
O433 C441 1.258 . S
O434 Co409 1.941 . S
O434 C441 1.266 . S
H435 C437 0.959 . S
H436 C437 0.961 . S
C437 C427 1.510 . S
C437 H435 0.959 . S
C437 H436 0.961 . S
C437 H438 0.960 . S
H438 C437 0.960 . S
H439 N419 0.862 1_556 S
O440 Co408 1.920 . S
O440 C413 1.289 . S
C441 O433 1.258 . S
C441 O434 1.266 . S
Co442 O445 1.970 . S
Co442 N459 1.989 . S
Co442 O467 1.967 . S
Co442 O474 1.920 . S
Co443 O446 1.966 . S
Co443 N452 2.022 . S
Co443 N460 1.993 . S
Co443 O468 1.941 . S
C444 O445 1.258 . S
C444 O446 1.263 . S
O445 Co442 1.970 . S
O445 C444 1.258 . S
O446 Co443 1.966 . S
O446 C444 1.263 . S
C447 O448 1.235 . S
C447 O474 1.289 . S
O448 C447 1.235 . S
C449 C451 1.400 . S
C449 N452 1.351 1_554 S
C449 C454 1.501 1_554 S
C450 C451 1.387 . S
C450 N453 1.341 . S
C451 C449 1.400 . S
C451 C450 1.387 . S
N452 Co443 2.022 . S
N452 C449 1.351 1_556 S
N452 N453 1.365 1_556 S
N453 C450 1.341 . S
N453 N452 1.365 1_554 S
N453 H473 0.862 1_554 S
C454 C449 1.501 1_556 S
C454 H455 0.961 . S
C454 H456 0.961 . S
C454 H457 0.960 1_556 S
H455 C454 0.961 . S
H456 C454 0.961 . S
H457 C454 0.960 1_554 S
C458 N459 1.342 . S
C458 C462 1.401 . S
C458 C463 1.499 . S
N459 Co442 1.989 . S
N459 C458 1.342 . S
N459 N460 1.388 . S
N460 Co443 1.993 . S
N460 N459 1.388 . S
N460 C461 1.346 . S
C461 N460 1.346 . S
C461 C462 1.396 . S
C461 C471 1.510 . S
C462 C458 1.401 . S
C462 C461 1.396 . S
C463 C458 1.499 . S
C463 H464 0.959 . S
C463 H465 0.960 . S
C463 H466 0.961 . S
H464 C463 0.959 . S
H465 C463 0.960 . S
H466 C463 0.961 . S
O467 Co442 1.967 . S
O467 C475 1.258 . S
O468 Co443 1.941 . S
O468 C475 1.266 . S
H469 C471 0.959 . S
H470 C471 0.961 . S
C471 C461 1.510 . S
C471 H469 0.959 . S
C471 H470 0.961 . S
C471 H472 0.960 . S
H472 C471 0.960 . S
H473 N453 0.862 1_556 S
O474 Co442 1.920 . S
O474 C447 1.289 . S
C475 O467 1.258 . S
C475 O468 1.266 . S
Co476 O479 1.970 . S
Co476 N493 1.989 . S
Co476 O501 1.967 . S
Co476 O508 1.920 . S
Co477 O480 1.966 . S
Co477 N486 2.022 . S
Co477 N494 1.993 . S
Co477 O502 1.941 . S
C478 O479 1.258 . S
C478 O480 1.263 . S
O479 Co476 1.970 . S
O479 C478 1.258 . S
O480 Co477 1.966 . S
O480 C478 1.263 . S
C481 O482 1.235 . S
C481 O508 1.289 . S
O482 C481 1.235 . S
C483 C485 1.400 . S
C483 N486 1.351 1_554 S
C483 C488 1.501 1_554 S
C484 C485 1.387 . S
C484 N487 1.341 . S
C485 C483 1.400 . S
C485 C484 1.387 . S
N486 Co477 2.022 . S
N486 C483 1.351 1_556 S
N486 N487 1.365 1_556 S
N487 C484 1.341 . S
N487 N486 1.365 1_554 S
N487 H507 0.862 1_554 S
C488 C483 1.501 1_556 S
C488 H489 0.961 . S
C488 H490 0.961 . S
C488 H491 0.960 1_556 S
H489 C488 0.961 . S
H490 C488 0.961 . S
H491 C488 0.960 1_554 S
C492 N493 1.342 . S
C492 C496 1.401 . S
C492 C497 1.499 . S
N493 Co476 1.989 . S
N493 C492 1.342 . S
N493 N494 1.388 . S
N494 Co477 1.993 . S
N494 N493 1.388 . S
N494 C495 1.346 . S
C495 N494 1.346 . S
C495 C496 1.396 . S
C495 C505 1.510 . S
C496 C492 1.401 . S
C496 C495 1.396 . S
C497 C492 1.499 . S
C497 H498 0.959 . S
C497 H499 0.960 . S
C497 H500 0.961 . S
H498 C497 0.959 . S
H499 C497 0.960 . S
H500 C497 0.961 . S
O501 Co476 1.967 . S
O501 C509 1.258 . S
O502 Co477 1.941 . S
O502 C509 1.266 . S
H503 C505 0.959 . S
H504 C505 0.961 . S
C505 C495 1.510 . S
C505 H503 0.959 . S
C505 H504 0.961 . S
C505 H506 0.960 . S
H506 C505 0.960 . S
H507 N487 0.862 1_556 S
O508 Co476 1.920 . S
O508 C481 1.289 . S
C509 O501 1.258 . S
C509 O502 1.266 . S
Co510 O513 1.970 . S
Co510 N527 1.989 . S
Co510 O535 1.967 . S
Co510 O542 1.920 . S
Co511 O514 1.966 . S
Co511 N520 2.022 . S
Co511 N528 1.993 . S
Co511 O536 1.941 . S
C512 O513 1.258 . S
C512 O514 1.263 . S
O513 Co510 1.970 . S
O513 C512 1.258 . S
O514 Co511 1.966 . S
O514 C512 1.263 . S
C515 O516 1.235 . S
C515 O542 1.289 . S
O516 C515 1.235 . S
C517 C519 1.400 . S
C517 N520 1.351 . S
C517 C522 1.501 . S
C518 C519 1.387 . S
C518 N521 1.341 . S
C519 C517 1.400 . S
C519 C518 1.387 . S
N520 Co511 2.022 . S
N520 C517 1.351 . S
N520 N521 1.365 . S
N521 C518 1.341 . S
N521 N520 1.365 . S
N521 H541 0.862 . S
C522 C517 1.501 . S
C522 H523 0.961 . S
C522 H524 0.961 . S
C522 H525 0.960 . S
H523 C522 0.961 . S
H524 C522 0.961 . S
H525 C522 0.960 . S
C526 N527 1.342 . S
C526 C530 1.401 . S
C526 C531 1.499 . S
N527 Co510 1.989 . S
N527 C526 1.342 . S
N527 N528 1.388 . S
N528 Co511 1.993 . S
N528 N527 1.388 . S
N528 C529 1.346 . S
C529 N528 1.346 . S
C529 C530 1.396 . S
C529 C539 1.510 . S
C530 C526 1.401 . S
C530 C529 1.396 . S
C531 C526 1.499 . S
C531 H532 0.959 . S
C531 H533 0.960 . S
C531 H534 0.961 . S
H532 C531 0.959 . S
H533 C531 0.960 . S
H534 C531 0.961 . S
O535 Co510 1.967 . S
O535 C543 1.258 . S
O536 Co511 1.941 . S
O536 C543 1.266 . S
H537 C539 0.959 . S
H538 C539 0.961 . S
C539 C529 1.510 . S
C539 H537 0.959 . S
C539 H538 0.961 . S
C539 H540 0.960 . S
H540 C539 0.960 . S
H541 N521 0.862 . S
O542 Co510 1.920 . S
O542 C515 1.289 . S
C543 O535 1.258 . S
C543 O536 1.266 . S
Co544 O547 1.970 . S
Co544 N561 1.989 . S
Co544 O569 1.967 . S
Co544 O576 1.920 . S
Co545 O548 1.966 . S
Co545 N554 2.022 . S
Co545 N562 1.993 . S
Co545 O570 1.941 . S
C546 O547 1.258 . S
C546 O548 1.263 . S
O547 Co544 1.970 . S
O547 C546 1.258 . S
O548 Co545 1.966 . S
O548 C546 1.263 . S
C549 O550 1.235 . S
C549 O576 1.289 . S
O550 C549 1.235 . S
C551 C553 1.400 . S
C551 N554 1.351 . S
C551 C556 1.501 . S
C552 C553 1.387 . S
C552 N555 1.341 . S
C553 C551 1.400 . S
C553 C552 1.387 . S
N554 Co545 2.022 . S
N554 C551 1.351 . S
N554 N555 1.365 . S
N555 C552 1.341 . S
N555 N554 1.365 . S
N555 H575 0.862 . S
C556 C551 1.501 . S
C556 H557 0.961 . S
C556 H558 0.961 . S
C556 H559 0.960 . S
H557 C556 0.961 . S
H558 C556 0.961 . S
H559 C556 0.960 . S
C560 N561 1.342 . S
C560 C564 1.401 . S
C560 C565 1.499 . S
N561 Co544 1.989 . S
N561 C560 1.342 . S
N561 N562 1.388 . S
N562 Co545 1.993 . S
N562 N561 1.388 . S
N562 C563 1.346 . S
C563 N562 1.346 . S
C563 C564 1.396 . S
C563 C573 1.510 . S
C564 C560 1.401 . S
C564 C563 1.396 . S
C565 C560 1.499 . S
C565 H566 0.959 . S
C565 H567 0.960 . S
C565 H568 0.961 . S
H566 C565 0.959 . S
H567 C565 0.960 . S
H568 C565 0.961 . S
O569 Co544 1.967 . S
O569 C577 1.258 . S
O570 Co545 1.941 . S
O570 C577 1.266 . S
H571 C573 0.959 . S
H572 C573 0.961 . S
C573 C563 1.510 . S
C573 H571 0.959 . S
C573 H572 0.961 . S
C573 H574 0.960 . S
H574 C573 0.960 . S
H575 N555 0.862 . S
O576 Co544 1.920 . S
O576 C549 1.289 . S
C577 O569 1.258 . S
C577 O570 1.266 . S
Co578 O581 1.970 . S
Co578 N595 1.989 . S
Co578 O603 1.967 . S
Co578 O610 1.920 . S
Co579 O582 1.966 . S
Co579 N588 2.022 . S
Co579 N596 1.993 . S
Co579 O604 1.941 . S
C580 O581 1.258 . S
C580 O582 1.263 . S
O581 Co578 1.970 . S
O581 C580 1.258 . S
O582 Co579 1.966 . S
O582 C580 1.263 . S
C583 O584 1.235 . S
C583 O610 1.289 . S
O584 C583 1.235 . S
C585 C587 1.400 . S
C585 N588 1.351 . S
C585 C590 1.501 . S
C586 C587 1.387 . S
C586 N589 1.341 . S
C587 C585 1.400 . S
C587 C586 1.387 . S
N588 Co579 2.022 . S
N588 C585 1.351 . S
N588 N589 1.365 . S
N589 C586 1.341 . S
N589 N588 1.365 . S
N589 H609 0.862 . S
C590 C585 1.501 . S
C590 H591 0.961 . S
C590 H592 0.961 . S
C590 H593 0.960 . S
H591 C590 0.961 . S
H592 C590 0.961 . S
H593 C590 0.960 . S
C594 N595 1.342 . S
C594 C598 1.401 . S
C594 C599 1.499 . S
N595 Co578 1.989 . S
N595 C594 1.342 . S
N595 N596 1.388 . S
N596 Co579 1.993 . S
N596 N595 1.388 . S
N596 C597 1.346 . S
C597 N596 1.346 . S
C597 C598 1.396 . S
C597 C607 1.510 . S
C598 C594 1.401 . S
C598 C597 1.396 . S
C599 C594 1.499 . S
C599 H600 0.959 . S
C599 H601 0.960 . S
C599 H602 0.961 . S
H600 C599 0.959 . S
H601 C599 0.960 . S
H602 C599 0.961 . S
O603 Co578 1.967 . S
O603 C611 1.258 . S
O604 Co579 1.941 . S
O604 C611 1.266 . S
H605 C607 0.959 . S
H606 C607 0.961 . S
C607 C597 1.510 . S
C607 H605 0.959 . S
C607 H606 0.961 . S
C607 H608 0.960 . S
H608 C607 0.960 . S
H609 N589 0.862 . S
O610 Co578 1.920 . S
O610 C583 1.289 . S
C611 O603 1.258 . S
C611 O604 1.266 . S
H612 C620 0.929 . S
H613 C622 0.930 . S
H614 C624 0.930 . S
H615 C627 0.929 . S
H616 C630 0.930 . S
H617 C632 0.960 . S
H618 C632 0.960 . S
H619 C632 0.960 . S
C620 H612 0.929 . S
C620 C621 1.377 . S
C620 C622 1.384 . S
C621 C620 1.377 . S
C621 C627 1.390 . S
C622 H613 0.930 . S
C622 C620 1.384 . S
C622 C623 1.372 . S
C623 C622 1.372 . S
C623 C624 1.400 . S
C623 C628 1.490 . S
C624 H614 0.930 . S
C624 C623 1.400 . S
C624 C627 1.386 . S
H625 C641 0.930 . S
H626 C642 0.931 . S
C627 H615 0.929 . S
C627 C621 1.390 . S
C627 C624 1.386 . S
C628 C623 1.490 . S
C628 C630 1.395 . S
C628 C631 1.403 . S
H629 C635 0.930 . S
C630 H616 0.930 . S
C630 C628 1.395 . S
C630 C633 1.403 . S
C631 C628 1.403 . S
C631 C632 1.524 . S
C631 C635 1.400 . S
C632 H617 0.960 . S
C632 H618 0.960 . S
C632 H619 0.960 . S
C632 C631 1.524 . S
C633 C630 1.403 . S
C633 C634 1.392 . S
C633 C637 1.495 . S
C634 C633 1.392 . S
C634 C635 1.385 . S
C634 C636 1.478 . S
C635 H629 0.930 . S
C635 C631 1.400 . S
C635 C634 1.385 . S
C636 C634 1.478 . S
C636 C638 1.381 . S
C636 C642 1.383 . S
C637 C633 1.495 . S
C637 H643 0.959 . S
C637 H644 0.961 . S
C637 H645 0.960 . S
C638 C636 1.381 . S
C638 C639 1.394 . S
C638 H646 0.930 . S
C639 C638 1.394 . S
C639 C640 1.383 . S
C639 H647 0.929 . S
C640 C639 1.383 . S
C640 C641 1.377 . S
C641 H625 0.930 . S
C641 C640 1.377 . S
C641 C642 1.379 . S
C642 H626 0.931 . S
C642 C636 1.383 . S
C642 C641 1.379 . S
H643 C637 0.959 . S
H644 C637 0.961 . S
H645 C637 0.960 . S
H646 C638 0.930 . S
H647 C639 0.929 . S
H648 C656 0.929 . S
H649 C658 0.930 . S
H650 C660 0.930 . S
H651 C663 0.929 . S
H652 C666 0.930 . S
H653 C668 0.960 . S
H654 C668 0.960 . S
H655 C668 0.960 . S
C656 H648 0.929 . S
C656 C657 1.377 . S
C656 C658 1.384 . S
C657 C656 1.377 . S
C657 C663 1.390 . S
C658 H649 0.930 . S
C658 C656 1.384 . S
C658 C659 1.372 . S
C659 C658 1.372 . S
C659 C660 1.400 . S
C659 C664 1.490 . S
C660 H650 0.930 . S
C660 C659 1.400 . S
C660 C663 1.386 . S
H661 C677 0.930 . S
H662 C678 0.931 . S
C663 H651 0.929 . S
C663 C657 1.390 . S
C663 C660 1.386 . S
C664 C659 1.490 . S
C664 C666 1.395 . S
C664 C667 1.403 . S
H665 C671 0.930 . S
C666 H652 0.930 . S
C666 C664 1.395 . S
C666 C669 1.403 . S
C667 C664 1.403 . S
C667 C668 1.524 . S
C667 C671 1.400 . S
C668 H653 0.960 . S
C668 H654 0.960 . S
C668 H655 0.960 . S
C668 C667 1.524 . S
C669 C666 1.403 . S
C669 C670 1.392 . S
C669 C673 1.495 . S
C670 C669 1.392 . S
C670 C671 1.385 . S
C670 C672 1.478 . S
C671 H665 0.930 . S
C671 C667 1.400 . S
C671 C670 1.385 . S
C672 C670 1.478 . S
C672 C674 1.381 . S
C672 C678 1.383 . S
C673 C669 1.495 . S
C673 H679 0.959 . S
C673 H680 0.961 . S
C673 H681 0.960 . S
C674 C672 1.381 . S
C674 C675 1.394 . S
C674 H682 0.930 . S
C675 C674 1.394 . S
C675 C676 1.383 . S
C675 H683 0.929 . S
C676 C675 1.383 . S
C676 C677 1.377 . S
C677 H661 0.930 . S
C677 C676 1.377 . S
C677 C678 1.379 . S
C678 H662 0.931 . S
C678 C672 1.383 . S
C678 C677 1.379 . S
H679 C673 0.959 . S
H680 C673 0.961 . S
H681 C673 0.960 . S
H682 C674 0.930 . S
H683 C675 0.929 . S
H684 C692 0.929 . S
H685 C694 0.930 . S
H686 C696 0.930 . S
H687 C699 0.929 . S
H688 C702 0.930 . S
H689 C704 0.960 . S
H690 C704 0.960 . S
H691 C704 0.960 . S
C692 H684 0.929 . S
C692 C693 1.377 . S
C692 C694 1.384 . S
C693 C692 1.377 . S
C693 C699 1.390 . S
C694 H685 0.930 . S
C694 C692 1.384 . S
C694 C695 1.372 . S
C695 C694 1.372 . S
C695 C696 1.400 . S
C695 C700 1.490 . S
C696 H686 0.930 . S
C696 C695 1.400 . S
C696 C699 1.386 . S
H697 C713 0.930 . S
H698 C714 0.931 . S
C699 H687 0.929 . S
C699 C693 1.390 . S
C699 C696 1.386 . S
C700 C695 1.490 . S
C700 C702 1.395 . S
C700 C703 1.403 . S
H701 C707 0.930 . S
C702 H688 0.930 . S
C702 C700 1.395 . S
C702 C705 1.403 . S
C703 C700 1.403 . S
C703 C704 1.524 . S
C703 C707 1.400 . S
C704 H689 0.960 . S
C704 H690 0.960 . S
C704 H691 0.960 . S
C704 C703 1.524 . S
C705 C702 1.403 . S
C705 C706 1.392 . S
C705 C709 1.495 . S
C706 C705 1.392 . S
C706 C707 1.385 . S
C706 C708 1.478 . S
C707 H701 0.930 . S
C707 C703 1.400 . S
C707 C706 1.385 . S
C708 C706 1.478 . S
C708 C710 1.381 . S
C708 C714 1.383 . S
C709 C705 1.495 . S
C709 H715 0.959 . S
C709 H716 0.961 . S
C709 H717 0.960 . S
C710 C708 1.381 . S
C710 C711 1.394 . S
C710 H718 0.930 . S
C711 C710 1.394 . S
C711 C712 1.383 . S
C711 H719 0.929 . S
C712 C711 1.383 . S
C712 C713 1.377 . S
C713 H697 0.930 . S
C713 C712 1.377 . S
C713 C714 1.379 . S
C714 H698 0.931 . S
C714 C708 1.383 . S
C714 C713 1.379 . S
H715 C709 0.959 . S
H716 C709 0.961 . S
H717 C709 0.960 . S
H718 C710 0.930 . S
H719 C711 0.929 . S
H720 C728 0.929 . S
H721 C730 0.930 . S
H722 C732 0.930 . S
H723 C735 0.929 . S
H724 C738 0.930 . S
H725 C740 0.960 . S
H726 C740 0.960 . S
H727 C740 0.960 . S
C728 H720 0.929 . S
C728 C729 1.377 . S
C728 C730 1.384 . S
C729 C728 1.377 . S
C729 C735 1.390 . S
C730 H721 0.930 . S
C730 C728 1.384 . S
C730 C731 1.372 . S
C731 C730 1.372 . S
C731 C732 1.400 . S
C731 C736 1.490 . S
C732 H722 0.930 . S
C732 C731 1.400 . S
C732 C735 1.386 . S
H733 C749 0.930 . S
H734 C750 0.931 . S
C735 H723 0.929 . S
C735 C729 1.390 . S
C735 C732 1.386 . S
C736 C731 1.490 . S
C736 C738 1.395 . S
C736 C739 1.403 . S
H737 C743 0.930 . S
C738 H724 0.930 . S
C738 C736 1.395 . S
C738 C741 1.403 . S
C739 C736 1.403 . S
C739 C740 1.524 . S
C739 C743 1.400 . S
C740 H725 0.960 . S
C740 H726 0.960 . S
C740 H727 0.960 . S
C740 C739 1.524 . S
C741 C738 1.403 . S
C741 C742 1.392 . S
C741 C745 1.495 . S
C742 C741 1.392 . S
C742 C743 1.385 . S
C742 C744 1.478 . S
C743 H737 0.930 . S
C743 C739 1.400 . S
C743 C742 1.385 . S
C744 C742 1.478 . S
C744 C746 1.381 . S
C744 C750 1.383 . S
C745 C741 1.495 . S
C745 H751 0.959 . S
C745 H752 0.961 . S
C745 H753 0.960 . S
C746 C744 1.381 . S
C746 C747 1.394 . S
C746 H754 0.930 . S
C747 C746 1.394 . S
C747 C748 1.383 . S
C747 H755 0.929 . S
C748 C747 1.383 . S
C748 C749 1.377 . S
C749 H733 0.930 . S
C749 C748 1.377 . S
C749 C750 1.379 . S
C750 H734 0.931 . S
C750 C744 1.383 . S
C750 C749 1.379 . S
H751 C745 0.959 . S
H752 C745 0.961 . S
H753 C745 0.960 . S
H754 C746 0.930 . S
H755 C747 0.929 . S
H756 C764 0.929 . S
H757 C766 0.930 . S
H758 C768 0.930 . S
H759 C771 0.929 . S
H760 C774 0.930 . S
H761 C776 0.960 . S
H762 C776 0.960 . S
H763 C776 0.960 . S
C764 H756 0.929 . S
C764 C765 1.377 . S
C764 C766 1.384 . S
C765 C764 1.377 . S
C765 C771 1.390 . S
C766 H757 0.930 . S
C766 C764 1.384 . S
C766 C767 1.372 . S
C767 C766 1.372 . S
C767 C768 1.400 . S
C767 C772 1.490 . S
C768 H758 0.930 . S
C768 C767 1.400 . S
C768 C771 1.386 . S
H769 C785 0.930 . S
H770 C786 0.931 . S
C771 H759 0.929 . S
C771 C765 1.390 . S
C771 C768 1.386 . S
C772 C767 1.490 . S
C772 C774 1.395 . S
C772 C775 1.403 . S
H773 C779 0.930 . S
C774 H760 0.930 . S
C774 C772 1.395 . S
C774 C777 1.403 . S
C775 C772 1.403 . S
C775 C776 1.524 . S
C775 C779 1.400 . S
C776 H761 0.960 . S
C776 H762 0.960 . S
C776 H763 0.960 . S
C776 C775 1.524 . S
C777 C774 1.403 . S
C777 C778 1.392 . S
C777 C781 1.495 . S
C778 C777 1.392 . S
C778 C779 1.385 . S
C778 C780 1.478 . S
C779 H773 0.930 . S
C779 C775 1.400 . S
C779 C778 1.385 . S
C780 C778 1.478 . S
C780 C782 1.381 . S
C780 C786 1.383 . S
C781 C777 1.495 . S
C781 H787 0.959 . S
C781 H788 0.961 . S
C781 H789 0.960 . S
C782 C780 1.381 . S
C782 C783 1.394 . S
C782 H790 0.930 . S
C783 C782 1.394 . S
C783 C784 1.383 . S
C783 H791 0.929 . S
C784 C783 1.383 . S
C784 C785 1.377 . S
C785 H769 0.930 . S
C785 C784 1.377 . S
C785 C786 1.379 . S
C786 H770 0.931 . S
C786 C780 1.383 . S
C786 C785 1.379 . S
H787 C781 0.959 . S
H788 C781 0.961 . S
H789 C781 0.960 . S
H790 C782 0.930 . S
H791 C783 0.929 . S
H792 C800 0.929 . S
H793 C802 0.930 . S
H794 C804 0.930 . S
H795 C807 0.929 . S
H796 C810 0.930 . S
H797 C812 0.960 . S
H798 C812 0.960 . S
H799 C812 0.960 . S
C800 H792 0.929 . S
C800 C801 1.377 . S
C800 C802 1.384 . S
C801 C800 1.377 . S
C801 C807 1.390 . S
C802 H793 0.930 . S
C802 C800 1.384 . S
C802 C803 1.372 . S
C803 C802 1.372 . S
C803 C804 1.400 . S
C803 C808 1.490 . S
C804 H794 0.930 . S
C804 C803 1.400 . S
C804 C807 1.386 . S
H805 C821 0.930 . S
H806 C822 0.931 . S
C807 H795 0.929 . S
C807 C801 1.390 . S
C807 C804 1.386 . S
C808 C803 1.490 . S
C808 C810 1.395 . S
C808 C811 1.403 . S
H809 C815 0.930 . S
C810 H796 0.930 . S
C810 C808 1.395 . S
C810 C813 1.403 . S
C811 C808 1.403 . S
C811 C812 1.524 . S
C811 C815 1.400 . S
C812 H797 0.960 . S
C812 H798 0.960 . S
C812 H799 0.960 . S
C812 C811 1.524 . S
C813 C810 1.403 . S
C813 C814 1.392 . S
C813 C817 1.495 . S
C814 C813 1.392 . S
C814 C815 1.385 . S
C814 C816 1.478 . S
C815 H809 0.930 . S
C815 C811 1.400 . S
C815 C814 1.385 . S
C816 C814 1.478 . S
C816 C818 1.381 . S
C816 C822 1.383 . S
C817 C813 1.495 . S
C817 H823 0.959 . S
C817 H824 0.961 . S
C817 H825 0.960 . S
C818 C816 1.381 . S
C818 C819 1.394 . S
C818 H826 0.930 . S
C819 C818 1.394 . S
C819 C820 1.383 . S
C819 H827 0.929 . S
C820 C819 1.383 . S
C820 C821 1.377 . S
C821 H805 0.930 . S
C821 C820 1.377 . S
C821 C822 1.379 . S
C822 H806 0.931 . S
C822 C816 1.383 . S
C822 C821 1.379 . S
H823 C817 0.959 . S
H824 C817 0.961 . S
H825 C817 0.960 . S
H826 C818 0.930 . S
H827 C819 0.929 . S
H828 C836 0.929 . S
H829 C838 0.930 . S
H830 C840 0.930 . S
H831 C843 0.929 . S
H832 C846 0.930 . S
H833 C848 0.960 . S
H834 C848 0.960 . S
H835 C848 0.960 . S
C836 H828 0.929 . S
C836 C837 1.377 . S
C836 C838 1.384 . S
C837 C836 1.377 . S
C837 C843 1.390 . S
C838 H829 0.930 . S
C838 C836 1.384 . S
C838 C839 1.372 . S
C839 C838 1.372 . S
C839 C840 1.400 . S
C839 C844 1.490 . S
C840 H830 0.930 . S
C840 C839 1.400 . S
C840 C843 1.386 . S
H841 C857 0.930 . S
H842 C858 0.931 . S
C843 H831 0.929 . S
C843 C837 1.390 . S
C843 C840 1.386 . S
C844 C839 1.490 . S
C844 C846 1.395 . S
C844 C847 1.403 . S
H845 C851 0.930 . S
C846 H832 0.930 . S
C846 C844 1.395 . S
C846 C849 1.403 1_554 S
C847 C844 1.403 . S
C847 C848 1.524 . S
C847 C851 1.400 1_554 S
C848 H833 0.960 . S
C848 H834 0.960 . S
C848 H835 0.960 . S
C848 C847 1.524 . S
C849 C846 1.403 1_556 S
C849 C850 1.392 . S
C849 C853 1.495 . S
C850 C849 1.392 . S
C850 C851 1.385 . S
C850 C852 1.478 . S
C851 H845 0.930 . S
C851 C847 1.400 1_556 S
C851 C850 1.385 . S
C852 C850 1.478 . S
C852 C854 1.381 . S
C852 C858 1.383 . S
C853 C849 1.495 . S
C853 H859 0.959 1_556 S
C853 H860 0.961 . S
C853 H861 0.960 . S
C854 C852 1.381 . S
C854 C855 1.394 . S
C854 H862 0.930 . S
C855 C854 1.394 . S
C855 C856 1.383 . S
C855 H863 0.929 . S
C856 C855 1.383 . S
C856 C857 1.377 . S
C857 H841 0.930 . S
C857 C856 1.377 . S
C857 C858 1.379 . S
C858 H842 0.931 . S
C858 C852 1.383 . S
C858 C857 1.379 . S
H859 C853 0.959 1_554 S
H860 C853 0.961 . S
H861 C853 0.960 . S
H862 C854 0.930 . S
H863 C855 0.929 . S
H864 C872 0.929 . S
H865 C874 0.930 . S
H866 C876 0.930 . S
H867 C879 0.929 . S
H868 C882 0.930 . S
H869 C884 0.960 . S
H870 C884 0.960 . S
H871 C884 0.960 . S
C872 H864 0.929 . S
C872 C873 1.377 . S
C872 C874 1.384 . S
C873 C872 1.377 . S
C873 C879 1.390 . S
C874 H865 0.930 . S
C874 C872 1.384 . S
C874 C875 1.372 . S
C875 C874 1.372 . S
C875 C876 1.400 . S
C875 C880 1.490 . S
C876 H866 0.930 . S
C876 C875 1.400 . S
C876 C879 1.386 . S
H877 C893 0.930 . S
H878 C894 0.931 . S
C879 H867 0.929 . S
C879 C873 1.390 . S
C879 C876 1.386 . S
C880 C875 1.490 . S
C880 C882 1.395 . S
C880 C883 1.403 . S
H881 C887 0.930 . S
C882 H868 0.930 . S
C882 C880 1.395 . S
C882 C885 1.403 1_554 S
C883 C880 1.403 . S
C883 C884 1.524 . S
C883 C887 1.400 1_554 S
C884 H869 0.960 . S
C884 H870 0.960 . S
C884 H871 0.960 . S
C884 C883 1.524 . S
C885 C882 1.403 1_556 S
C885 C886 1.392 . S
C885 C889 1.495 . S
C886 C885 1.392 . S
C886 C887 1.385 . S
C886 C888 1.478 . S
C887 H881 0.930 . S
C887 C883 1.400 1_556 S
C887 C886 1.385 . S
C888 C886 1.478 . S
C888 C890 1.381 . S
C888 C894 1.383 . S
C889 C885 1.495 . S
C889 H895 0.959 . S
C889 H896 0.961 . S
C889 H897 0.960 . S
C890 C888 1.381 . S
C890 C891 1.394 . S
C890 H898 0.930 . S
C891 C890 1.394 . S
C891 C892 1.383 . S
C891 H899 0.929 . S
C892 C891 1.383 . S
C892 C893 1.377 . S
C893 H877 0.930 . S
C893 C892 1.377 . S
C893 C894 1.379 . S
C894 H878 0.931 . S
C894 C888 1.383 . S
C894 C893 1.379 . S
H895 C889 0.959 . S
H896 C889 0.961 . S
H897 C889 0.960 . S
H898 C890 0.930 . S
H899 C891 0.929 . S
H900 C908 0.929 . S
H901 C910 0.930 . S
H902 C912 0.930 . S
H903 C915 0.929 . S
H904 C918 0.930 . S
H905 C920 0.960 . S
H906 C920 0.960 . S
H907 C920 0.960 . S
C908 H900 0.929 . S
C908 C909 1.377 . S
C908 C910 1.384 . S
C909 C908 1.377 . S
C909 C915 1.390 . S
C910 H901 0.930 . S
C910 C908 1.384 . S
C910 C911 1.372 . S
C911 C910 1.372 . S
C911 C912 1.400 . S
C911 C916 1.490 . S
C912 H902 0.930 . S
C912 C911 1.400 . S
C912 C915 1.386 . S
H913 C929 0.930 . S
H914 C930 0.931 . S
C915 H903 0.929 . S
C915 C909 1.390 . S
C915 C912 1.386 . S
C916 C911 1.490 . S
C916 C918 1.395 . S
C916 C919 1.403 . S
H917 C923 0.930 . S
C918 H904 0.930 . S
C918 C916 1.395 . S
C918 C921 1.403 1_556 S
C919 C916 1.403 . S
C919 C920 1.524 . S
C919 C923 1.400 1_556 S
C920 H905 0.960 . S
C920 H906 0.960 . S
C920 H907 0.960 . S
C920 C919 1.524 . S
C921 C918 1.403 1_554 S
C921 C922 1.392 . S
C921 C925 1.495 . S
C922 C921 1.392 . S
C922 C923 1.385 . S
C922 C924 1.478 . S
C923 H917 0.930 . S
C923 C919 1.400 1_554 S
C923 C922 1.385 . S
C924 C922 1.478 . S
C924 C926 1.381 . S
C924 C930 1.383 . S
C925 C921 1.495 . S
C925 H931 0.959 . S
C925 H932 0.961 . S
C925 H933 0.960 . S
C926 C924 1.381 . S
C926 C927 1.394 . S
C926 H934 0.930 . S
C927 C926 1.394 . S
C927 C928 1.383 . S
C927 H935 0.929 . S
C928 C927 1.383 . S
C928 C929 1.377 . S
C929 H913 0.930 . S
C929 C928 1.377 . S
C929 C930 1.379 . S
C930 H914 0.931 . S
C930 C924 1.383 . S
C930 C929 1.379 . S
H931 C925 0.959 . S
H932 C925 0.961 . S
H933 C925 0.960 . S
H934 C926 0.930 . S
H935 C927 0.929 . S
H936 C944 0.929 . S
H937 C946 0.930 . S
H938 C948 0.930 . S
H939 C951 0.929 . S
H940 C954 0.930 . S
H941 C956 0.960 . S
H942 C956 0.960 . S
H943 C956 0.960 . S
C944 H936 0.929 . S
C944 C945 1.377 . S
C944 C946 1.384 . S
C945 C944 1.377 . S
C945 C951 1.390 . S
C946 H937 0.930 . S
C946 C944 1.384 . S
C946 C947 1.372 . S
C947 C946 1.372 . S
C947 C948 1.400 . S
C947 C952 1.490 . S
C948 H938 0.930 . S
C948 C947 1.400 . S
C948 C951 1.386 . S
H949 C965 0.930 . S
H950 C966 0.931 . S
C951 H939 0.929 . S
C951 C945 1.390 . S
C951 C948 1.386 . S
C952 C947 1.490 . S
C952 C954 1.395 . S
C952 C955 1.403 . S
H953 C959 0.930 . S
C954 H940 0.930 . S
C954 C952 1.395 . S
C954 C957 1.403 . S
C955 C952 1.403 . S
C955 C956 1.524 . S
C955 C959 1.400 . S
C956 H941 0.960 . S
C956 H942 0.960 . S
C956 H943 0.960 . S
C956 C955 1.524 . S
C957 C954 1.403 . S
C957 C958 1.392 . S
C957 C961 1.495 . S
C958 C957 1.392 . S
C958 C959 1.385 . S
C958 C960 1.478 . S
C959 H953 0.930 . S
C959 C955 1.400 . S
C959 C958 1.385 . S
C960 C958 1.478 . S
C960 C962 1.381 . S
C960 C966 1.383 . S
C961 C957 1.495 . S
C961 H967 0.959 . S
C961 H968 0.961 . S
C961 H969 0.960 . S
C962 C960 1.381 . S
C962 C963 1.394 . S
C962 H970 0.930 . S
C963 C962 1.394 . S
C963 C964 1.383 . S
C963 H971 0.929 . S
C964 C963 1.383 . S
C964 C965 1.377 . S
C965 H949 0.930 . S
C965 C964 1.377 . S
C965 C966 1.379 . S
C966 H950 0.931 . S
C966 C960 1.383 . S
C966 C965 1.379 . S
H967 C961 0.959 . S
H968 C961 0.961 . S
H969 C961 0.960 . S
H970 C962 0.930 . S
H971 C963 0.929 . S
H972 C980 0.929 . S
H973 C982 0.930 . S
H974 C984 0.930 . S
H975 C987 0.929 . S
H976 C990 0.930 . S
H977 C992 0.960 . S
H978 C992 0.960 . S
H979 C992 0.960 . S
C980 H972 0.929 . S
C980 C981 1.377 . S
C980 C982 1.384 . S
C981 C980 1.377 . S
C981 C987 1.390 . S
C982 H973 0.930 . S
C982 C980 1.384 . S
C982 C983 1.372 . S
C983 C982 1.372 . S
C983 C984 1.400 . S
C983 C988 1.490 . S
C984 H974 0.930 . S
C984 C983 1.400 . S
C984 C987 1.386 . S
H985 C1001 0.930 . S
H986 C1002 0.931 . S
C987 H975 0.929 . S
C987 C981 1.390 . S
C987 C984 1.386 . S
C988 C983 1.490 . S
C988 C990 1.395 . S
C988 C991 1.403 . S
H989 C995 0.930 . S
C990 H976 0.930 . S
C990 C988 1.395 . S
C990 C993 1.403 . S
C991 C988 1.403 . S
C991 C992 1.524 . S
C991 C995 1.400 . S
C992 H977 0.960 . S
C992 H978 0.960 . S
C992 H979 0.960 . S
C992 C991 1.524 . S
C993 C990 1.403 . S
C993 C994 1.392 . S
C993 C997 1.495 . S
C994 C993 1.392 . S
C994 C995 1.385 . S
C994 C996 1.478 . S
C995 H989 0.930 . S
C995 C991 1.400 . S
C995 C994 1.385 . S
C996 C994 1.478 . S
C996 C998 1.381 . S
C996 C1002 1.383 . S
C997 C993 1.495 . S
C997 H1003 0.959 . S
C997 H1004 0.961 . S
C997 H1005 0.960 . S
C998 C996 1.381 . S
C998 C999 1.394 . S
C998 H1006 0.930 . S
C999 C998 1.394 . S
C999 C1000 1.383 . S
C999 H1007 0.929 . S
C1000 C999 1.383 . S
C1000 C1001 1.377 . S
C1001 H985 0.930 . S
C1001 C1000 1.377 . S
C1001 C1002 1.379 . S
C1002 H986 0.931 . S
C1002 C996 1.383 . S
C1002 C1001 1.379 . S
H1003 C997 0.959 . S
H1004 C997 0.961 . S
H1005 C997 0.960 . S
H1006 C998 0.930 . S
H1007 C999 0.929 . S
H1008 C1016 0.929 . S
H1009 C1018 0.930 . S
H1010 C1020 0.930 . S
H1011 C1023 0.929 . S
H1012 C1026 0.930 . S
H1013 C1028 0.960 . S
H1014 C1028 0.960 . S
H1015 C1028 0.960 . S
C1016 H1008 0.929 . S
C1016 C1017 1.377 . S
C1016 C1018 1.384 . S
C1017 C1016 1.377 . S
C1017 C1023 1.390 . S
C1018 H1009 0.930 . S
C1018 C1016 1.384 . S
C1018 C1019 1.372 . S
C1019 C1018 1.372 . S
C1019 C1020 1.400 . S
C1019 C1024 1.490 . S
C1020 H1010 0.930 . S
C1020 C1019 1.400 . S
C1020 C1023 1.386 . S
H1021 C1037 0.930 . S
H1022 C1038 0.931 . S
C1023 H1011 0.929 . S
C1023 C1017 1.390 . S
C1023 C1020 1.386 . S
C1024 C1019 1.490 . S
C1024 C1026 1.395 . S
C1024 C1027 1.403 . S
H1025 C1031 0.930 . S
C1026 H1012 0.930 . S
C1026 C1024 1.395 . S
C1026 C1029 1.403 . S
C1027 C1024 1.403 . S
C1027 C1028 1.524 . S
C1027 C1031 1.400 . S
C1028 H1013 0.960 . S
C1028 H1014 0.960 . S
C1028 H1015 0.960 . S
C1028 C1027 1.524 . S
C1029 C1026 1.403 . S
C1029 C1030 1.392 . S
C1029 C1033 1.495 . S
C1030 C1029 1.392 . S
C1030 C1031 1.385 . S
C1030 C1032 1.478 . S
C1031 H1025 0.930 . S
C1031 C1027 1.400 . S
C1031 C1030 1.385 . S
C1032 C1030 1.478 . S
C1032 C1034 1.381 . S
C1032 C1038 1.383 . S
C1033 C1029 1.495 . S
C1033 H1039 0.959 . S
C1033 H1040 0.961 . S
C1033 H1041 0.960 . S
C1034 C1032 1.381 . S
C1034 C1035 1.394 . S
C1034 H1042 0.930 . S
C1035 C1034 1.394 . S
C1035 C1036 1.383 . S
C1035 H1043 0.929 . S
C1036 C1035 1.383 . S
C1036 C1037 1.377 . S
C1037 H1021 0.930 . S
C1037 C1036 1.377 . S
C1037 C1038 1.379 . S
C1038 H1022 0.931 . S
C1038 C1032 1.383 . S
C1038 C1037 1.379 . S
H1039 C1033 0.959 . S
H1040 C1033 0.961 . S
H1041 C1033 0.960 . S
H1042 C1034 0.930 . S
H1043 C1035 0.929 . S
H1044 C1052 0.929 . S
H1045 C1054 0.930 . S
H1046 C1056 0.930 . S
H1047 C1059 0.929 . S
H1048 C1062 0.930 . S
H1049 C1064 0.960 . S
H1050 C1064 0.960 . S
H1051 C1064 0.960 . S
C1052 H1044 0.929 . S
C1052 C1053 1.377 . S
C1052 C1054 1.384 . S
C1053 C1052 1.377 . S
C1053 C1059 1.390 . S
C1054 H1045 0.930 . S
C1054 C1052 1.384 . S
C1054 C1055 1.372 . S
C1055 C1054 1.372 . S
C1055 C1056 1.400 . S
C1055 C1060 1.490 . S
C1056 H1046 0.930 . S
C1056 C1055 1.400 . S
C1056 C1059 1.386 . S
H1057 C1073 0.930 . S
H1058 C1074 0.931 . S
C1059 H1047 0.929 . S
C1059 C1053 1.390 . S
C1059 C1056 1.386 . S
C1060 C1055 1.490 . S
C1060 C1062 1.395 . S
C1060 C1063 1.403 . S
H1061 C1067 0.930 . S
C1062 H1048 0.930 . S
C1062 C1060 1.395 . S
C1062 C1065 1.403 . S
C1063 C1060 1.403 . S
C1063 C1064 1.524 . S
C1063 C1067 1.400 . S
C1064 H1049 0.960 . S
C1064 H1050 0.960 . S
C1064 H1051 0.960 . S
C1064 C1063 1.524 . S
C1065 C1062 1.403 . S
C1065 C1066 1.392 . S
C1065 C1069 1.495 . S
C1066 C1065 1.392 . S
C1066 C1067 1.385 . S
C1066 C1068 1.478 . S
C1067 H1061 0.930 . S
C1067 C1063 1.400 . S
C1067 C1066 1.385 . S
C1068 C1066 1.478 . S
C1068 C1070 1.381 . S
C1068 C1074 1.383 . S
C1069 C1065 1.495 . S
C1069 H1075 0.959 . S
C1069 H1076 0.961 . S
C1069 H1077 0.960 . S
C1070 C1068 1.381 . S
C1070 C1071 1.394 . S
C1070 H1078 0.930 . S
C1071 C1070 1.394 . S
C1071 C1072 1.383 . S
C1071 H1079 0.929 . S
C1072 C1071 1.383 . S
C1072 C1073 1.377 . S
C1073 H1057 0.930 . S
C1073 C1072 1.377 . S
C1073 C1074 1.379 . S
C1074 H1058 0.931 . S
C1074 C1068 1.383 . S
C1074 C1073 1.379 . S
H1075 C1069 0.959 . S
H1076 C1069 0.961 . S
H1077 C1069 0.960 . S
H1078 C1070 0.930 . S
H1079 C1071 0.929 . S
H1080 C1088 0.929 . S
H1081 C1090 0.930 . S
H1082 C1092 0.930 . S
H1083 C1095 0.929 . S
H1084 C1098 0.930 . S
H1085 C1100 0.960 . S
H1086 C1100 0.960 . S
H1087 C1100 0.960 . S
C1088 H1080 0.929 . S
C1088 C1089 1.377 . S
C1088 C1090 1.384 . S
C1089 C1088 1.377 . S
C1089 C1095 1.390 . S
C1090 H1081 0.930 . S
C1090 C1088 1.384 . S
C1090 C1091 1.372 . S
C1091 C1090 1.372 . S
C1091 C1092 1.400 . S
C1091 C1096 1.490 . S
C1092 H1082 0.930 . S
C1092 C1091 1.400 . S
C1092 C1095 1.386 . S
H1093 C1109 0.930 . S
H1094 C1110 0.931 . S
C1095 H1083 0.929 . S
C1095 C1089 1.390 . S
C1095 C1092 1.386 . S
C1096 C1091 1.490 . S
C1096 C1098 1.395 . S
C1096 C1099 1.403 . S
H1097 C1103 0.930 . S
C1098 H1084 0.930 . S
C1098 C1096 1.395 . S
C1098 C1101 1.403 . S
C1099 C1096 1.403 . S
C1099 C1100 1.524 . S
C1099 C1103 1.400 . S
C1100 H1085 0.960 . S
C1100 H1086 0.960 . S
C1100 H1087 0.960 . S
C1100 C1099 1.524 . S
C1101 C1098 1.403 . S
C1101 C1102 1.392 . S
C1101 C1105 1.495 . S
C1102 C1101 1.392 . S
C1102 C1103 1.385 . S
C1102 C1104 1.478 . S
C1103 H1097 0.930 . S
C1103 C1099 1.400 . S
C1103 C1102 1.385 . S
C1104 C1102 1.478 . S
C1104 C1106 1.381 . S
C1104 C1110 1.383 . S
C1105 C1101 1.495 . S
C1105 H1111 0.959 . S
C1105 H1112 0.961 . S
C1105 H1113 0.960 . S
C1106 C1104 1.381 . S
C1106 C1107 1.394 . S
C1106 H1114 0.930 . S
C1107 C1106 1.394 . S
C1107 C1108 1.383 . S
C1107 H1115 0.929 . S
C1108 C1107 1.383 . S
C1108 C1109 1.377 . S
C1109 H1093 0.930 . S
C1109 C1108 1.377 . S
C1109 C1110 1.379 . S
C1110 H1094 0.931 . S
C1110 C1104 1.383 . S
C1110 C1109 1.379 . S
H1111 C1105 0.959 . S
H1112 C1105 0.961 . S
H1113 C1105 0.960 . S
H1114 C1106 0.930 . S
H1115 C1107 0.929 . S
H1116 C1124 0.929 . S
H1117 C1126 0.930 . S
H1118 C1128 0.930 . S
H1119 C1131 0.929 . S
H1120 C1134 0.930 . S
H1121 C1136 0.960 . S
H1122 C1136 0.960 . S
H1123 C1136 0.960 . S
C1124 H1116 0.929 . S
C1124 C1125 1.377 . S
C1124 C1126 1.384 . S
C1125 C1124 1.377 . S
C1125 C1131 1.390 . S
C1126 H1117 0.930 . S
C1126 C1124 1.384 . S
C1126 C1127 1.372 . S
C1127 C1126 1.372 . S
C1127 C1128 1.400 . S
C1127 C1132 1.490 . S
C1128 H1118 0.930 . S
C1128 C1127 1.400 . S
C1128 C1131 1.386 . S
H1129 C1145 0.930 . S
H1130 C1146 0.931 . S
C1131 H1119 0.929 . S
C1131 C1125 1.390 . S
C1131 C1128 1.386 . S
C1132 C1127 1.490 . S
C1132 C1134 1.395 . S
C1132 C1135 1.403 . S
H1133 C1139 0.930 . S
C1134 H1120 0.930 . S
C1134 C1132 1.395 . S
C1134 C1137 1.403 . S
C1135 C1132 1.403 . S
C1135 C1136 1.524 . S
C1135 C1139 1.400 . S
C1136 H1121 0.960 . S
C1136 H1122 0.960 . S
C1136 H1123 0.960 . S
C1136 C1135 1.524 . S
C1137 C1134 1.403 . S
C1137 C1138 1.392 . S
C1137 C1141 1.495 . S
C1138 C1137 1.392 . S
C1138 C1139 1.385 . S
C1138 C1140 1.478 . S
C1139 H1133 0.930 . S
C1139 C1135 1.400 . S
C1139 C1138 1.385 . S
C1140 C1138 1.478 . S
C1140 C1142 1.381 . S
C1140 C1146 1.383 . S
C1141 C1137 1.495 . S
C1141 H1147 0.959 . S
C1141 H1148 0.961 . S
C1141 H1149 0.960 . S
C1142 C1140 1.381 . S
C1142 C1143 1.394 . S
C1142 H1150 0.930 . S
C1143 C1142 1.394 . S
C1143 C1144 1.383 . S
C1143 H1151 0.929 . S
C1144 C1143 1.383 . S
C1144 C1145 1.377 . S
C1145 H1129 0.930 . S
C1145 C1144 1.377 . S
C1145 C1146 1.379 . S
C1146 H1130 0.931 . S
C1146 C1140 1.383 . S
C1146 C1145 1.379 . S
H1147 C1141 0.959 . S
H1148 C1141 0.961 . S
H1149 C1141 0.960 . S
H1150 C1142 0.930 . S
H1151 C1143 0.929 . S
H1152 C1160 0.929 . S
H1153 C1162 0.930 . S
H1154 C1164 0.930 . S
H1155 C1167 0.929 . S
H1156 C1170 0.930 . S
H1157 C1172 0.960 1_556 S
H1158 C1172 0.960 . S
H1159 C1172 0.960 . S
C1160 H1152 0.929 . S
C1160 C1161 1.377 . S
C1160 C1162 1.384 . S
C1161 C1160 1.377 . S
C1161 C1167 1.390 . S
C1162 H1153 0.930 . S
C1162 C1160 1.384 . S
C1162 C1163 1.372 . S
C1163 C1162 1.372 . S
C1163 C1164 1.400 . S
C1163 C1168 1.490 . S
C1164 H1154 0.930 . S
C1164 C1163 1.400 . S
C1164 C1167 1.386 . S
H1165 C1181 0.930 . S
H1166 C1182 0.931 . S
C1167 H1155 0.929 . S
C1167 C1161 1.390 . S
C1167 C1164 1.386 . S
C1168 C1163 1.490 . S
C1168 C1170 1.395 . S
C1168 C1171 1.403 . S
H1169 C1175 0.930 . S
C1170 H1156 0.930 . S
C1170 C1168 1.395 . S
C1170 C1173 1.403 1_554 S
C1171 C1168 1.403 . S
C1171 C1172 1.524 . S
C1171 C1175 1.400 1_554 S
C1172 H1157 0.960 1_554 S
C1172 H1158 0.960 . S
C1172 H1159 0.960 . S
C1172 C1171 1.524 . S
C1173 C1170 1.403 1_556 S
C1173 C1174 1.392 . S
C1173 C1177 1.495 . S
C1174 C1173 1.392 . S
C1174 C1175 1.385 . S
C1174 C1176 1.478 . S
C1175 H1169 0.930 . S
C1175 C1171 1.400 1_556 S
C1175 C1174 1.385 . S
C1176 C1174 1.478 . S
C1176 C1178 1.381 . S
C1176 C1182 1.383 . S
C1177 C1173 1.495 . S
C1177 H1183 0.959 . S
C1177 H1184 0.961 . S
C1177 H1185 0.960 . S
C1178 C1176 1.381 . S
C1178 C1179 1.394 . S
C1178 H1186 0.930 . S
C1179 C1178 1.394 . S
C1179 C1180 1.383 . S
C1179 H1187 0.929 . S
C1180 C1179 1.383 . S
C1180 C1181 1.377 . S
C1181 H1165 0.930 . S
C1181 C1180 1.377 . S
C1181 C1182 1.379 . S
C1182 H1166 0.931 . S
C1182 C1176 1.383 . S
C1182 C1181 1.379 . S
H1183 C1177 0.959 . S
H1184 C1177 0.961 . S
H1185 C1177 0.960 . S
H1186 C1178 0.930 . S
H1187 C1179 0.929 . S
H1188 C1196 0.929 . S
H1189 C1198 0.930 . S
H1190 C1200 0.930 . S
H1191 C1203 0.929 . S
H1192 C1206 0.930 . S
H1193 C1208 0.960 . S
H1194 C1208 0.960 . S
H1195 C1208 0.960 . S
C1196 H1188 0.929 . S
C1196 C1197 1.377 . S
C1196 C1198 1.384 . S
C1197 C1196 1.377 . S
C1197 C1203 1.390 . S
C1198 H1189 0.930 . S
C1198 C1196 1.384 . S
C1198 C1199 1.372 . S
C1199 C1198 1.372 . S
C1199 C1200 1.400 . S
C1199 C1204 1.490 . S
C1200 H1190 0.930 . S
C1200 C1199 1.400 . S
C1200 C1203 1.386 . S
H1201 C1217 0.930 . S
H1202 C1218 0.931 . S
C1203 H1191 0.929 . S
C1203 C1197 1.390 . S
C1203 C1200 1.386 . S
C1204 C1199 1.490 . S
C1204 C1206 1.395 . S
C1204 C1207 1.403 . S
H1205 C1211 0.930 . S
C1206 H1192 0.930 . S
C1206 C1204 1.395 . S
C1206 C1209 1.403 1_554 S
C1207 C1204 1.403 . S
C1207 C1208 1.524 . S
C1207 C1211 1.400 1_554 S
C1208 H1193 0.960 . S
C1208 H1194 0.960 . S
C1208 H1195 0.960 . S
C1208 C1207 1.524 . S
C1209 C1206 1.403 1_556 S
C1209 C1210 1.392 . S
C1209 C1213 1.495 . S
C1210 C1209 1.392 . S
C1210 C1211 1.385 . S
C1210 C1212 1.478 . S
C1211 H1205 0.930 . S
C1211 C1207 1.400 1_556 S
C1211 C1210 1.385 . S
C1212 C1210 1.478 . S
C1212 C1214 1.381 . S
C1212 C1218 1.383 . S
C1213 C1209 1.495 . S
C1213 H1219 0.959 . S
C1213 H1220 0.961 . S
C1213 H1221 0.960 . S
C1214 C1212 1.381 . S
C1214 C1215 1.394 . S
C1214 H1222 0.930 . S
C1215 C1214 1.394 . S
C1215 C1216 1.383 . S
C1215 H1223 0.929 . S
C1216 C1215 1.383 . S
C1216 C1217 1.377 . S
C1217 H1201 0.930 . S
C1217 C1216 1.377 . S
C1217 C1218 1.379 . S
C1218 H1202 0.931 . S
C1218 C1212 1.383 . S
C1218 C1217 1.379 . S
H1219 C1213 0.959 . S
H1220 C1213 0.961 . S
H1221 C1213 0.960 . S
H1222 C1214 0.930 . S
H1223 C1215 0.929 . S
H1224 C1232 0.929 . S
H1225 C1234 0.930 . S
H1226 C1236 0.930 . S
H1227 C1239 0.929 . S
H1228 C1242 0.930 . S
H1229 C1244 0.960 . S
H1230 C1244 0.960 . S
H1231 C1244 0.960 . S
C1232 H1224 0.929 . S
C1232 C1233 1.377 . S
C1232 C1234 1.384 . S
C1233 C1232 1.377 . S
C1233 C1239 1.390 . S
C1234 H1225 0.930 . S
C1234 C1232 1.384 . S
C1234 C1235 1.372 . S
C1235 C1234 1.372 . S
C1235 C1236 1.400 . S
C1235 C1240 1.490 . S
C1236 H1226 0.930 . S
C1236 C1235 1.400 . S
C1236 C1239 1.386 . S
H1237 C1253 0.930 . S
H1238 C1254 0.931 . S
C1239 H1227 0.929 . S
C1239 C1233 1.390 . S
C1239 C1236 1.386 . S
C1240 C1235 1.490 . S
C1240 C1242 1.395 . S
C1240 C1243 1.403 . S
H1241 C1247 0.930 . S
C1242 H1228 0.930 . S
C1242 C1240 1.395 . S
C1242 C1245 1.403 1_556 S
C1243 C1240 1.403 . S
C1243 C1244 1.524 . S
C1243 C1247 1.400 1_556 S
C1244 H1229 0.960 . S
C1244 H1230 0.960 . S
C1244 H1231 0.960 . S
C1244 C1243 1.524 . S
C1245 C1242 1.403 1_554 S
C1245 C1246 1.392 . S
C1245 C1249 1.495 . S
C1246 C1245 1.392 . S
C1246 C1247 1.385 . S
C1246 C1248 1.478 . S
C1247 H1241 0.930 . S
C1247 C1243 1.400 1_554 S
C1247 C1246 1.385 . S
C1248 C1246 1.478 . S
C1248 C1250 1.381 . S
C1248 C1254 1.383 . S
C1249 C1245 1.495 . S
C1249 H1255 0.959 . S
C1249 H1256 0.961 . S
C1249 H1257 0.960 . S
C1250 C1248 1.381 . S
C1250 C1251 1.394 . S
C1250 H1258 0.930 . S
C1251 C1250 1.394 . S
C1251 C1252 1.383 . S
C1251 H1259 0.929 . S
C1252 C1251 1.383 . S
C1252 C1253 1.377 . S
C1253 H1237 0.930 . S
C1253 C1252 1.377 . S
C1253 C1254 1.379 . S
C1254 H1238 0.931 . S
C1254 C1248 1.383 . S
C1254 C1253 1.379 . S
H1255 C1249 0.959 . S
H1256 C1249 0.961 . S
H1257 C1249 0.960 . S
H1258 C1250 0.930 . S
H1259 C1251 0.929 . S
H1260 C1268 0.929 . S
H1261 C1270 0.930 . S
H1262 C1272 0.930 . S
H1263 C1275 0.929 . S
H1264 C1278 0.930 . S
H1265 C1280 0.960 . S
H1266 C1280 0.960 . S
H1267 C1280 0.960 . S
C1268 H1260 0.929 . S
C1268 C1269 1.377 . S
C1268 C1270 1.384 . S
C1269 C1268 1.377 . S
C1269 C1275 1.390 . S
C1270 H1261 0.930 . S
C1270 C1268 1.384 . S
C1270 C1271 1.372 . S
C1271 C1270 1.372 . S
C1271 C1272 1.400 . S
C1271 C1276 1.490 . S
C1272 H1262 0.930 . S
C1272 C1271 1.400 . S
C1272 C1275 1.386 . S
H1273 C1289 0.930 . S
H1274 C1290 0.931 . S
C1275 H1263 0.929 . S
C1275 C1269 1.390 . S
C1275 C1272 1.386 . S
C1276 C1271 1.490 . S
C1276 C1278 1.395 . S
C1276 C1279 1.403 . S
H1277 C1283 0.930 . S
C1278 H1264 0.930 . S
C1278 C1276 1.395 . S
C1278 C1281 1.403 . S
C1279 C1276 1.403 . S
C1279 C1280 1.524 . S
C1279 C1283 1.400 . S
C1280 H1265 0.960 . S
C1280 H1266 0.960 . S
C1280 H1267 0.960 . S
C1280 C1279 1.524 . S
C1281 C1278 1.403 . S
C1281 C1282 1.392 . S
C1281 C1285 1.495 . S
C1282 C1281 1.392 . S
C1282 C1283 1.385 . S
C1282 C1284 1.478 . S
C1283 H1277 0.930 . S
C1283 C1279 1.400 . S
C1283 C1282 1.385 . S
C1284 C1282 1.478 . S
C1284 C1286 1.381 . S
C1284 C1290 1.383 . S
C1285 C1281 1.495 . S
C1285 H1291 0.959 . S
C1285 H1292 0.961 . S
C1285 H1293 0.960 . S
C1286 C1284 1.381 . S
C1286 C1287 1.394 . S
C1286 H1294 0.930 . S
C1287 C1286 1.394 . S
C1287 C1288 1.383 . S
C1287 H1295 0.929 . S
C1288 C1287 1.383 . S
C1288 C1289 1.377 . S
C1289 H1273 0.930 . S
C1289 C1288 1.377 . S
C1289 C1290 1.379 . S
C1290 H1274 0.931 . S
C1290 C1284 1.383 . S
C1290 C1289 1.379 . S
H1291 C1285 0.959 . S
H1292 C1285 0.961 . S
H1293 C1285 0.960 . S
H1294 C1286 0.930 . S
H1295 C1287 0.929 . S
H1296 C1304 0.929 . S
H1297 C1306 0.930 . S
H1298 C1308 0.930 . S
H1299 C1311 0.929 . S
H1300 C1314 0.930 . S
H1301 C1316 0.960 . S
H1302 C1316 0.960 . S
H1303 C1316 0.960 . S
C1304 H1296 0.929 . S
C1304 C1305 1.377 . S
C1304 C1306 1.384 . S
C1305 C1304 1.377 . S
C1305 C1311 1.390 . S
C1306 H1297 0.930 . S
C1306 C1304 1.384 . S
C1306 C1307 1.372 . S
C1307 C1306 1.372 . S
C1307 C1308 1.400 . S
C1307 C1312 1.490 . S
C1308 H1298 0.930 . S
C1308 C1307 1.400 . S
C1308 C1311 1.386 . S
H1309 C1325 0.930 . S
H1310 C1326 0.931 . S
C1311 H1299 0.929 . S
C1311 C1305 1.390 . S
C1311 C1308 1.386 . S
C1312 C1307 1.490 . S
C1312 C1314 1.395 . S
C1312 C1315 1.403 . S
H1313 C1319 0.930 . S
C1314 H1300 0.930 . S
C1314 C1312 1.395 . S
C1314 C1317 1.403 . S
C1315 C1312 1.403 . S
C1315 C1316 1.524 . S
C1315 C1319 1.400 . S
C1316 H1301 0.960 . S
C1316 H1302 0.960 . S
C1316 H1303 0.960 . S
C1316 C1315 1.524 . S
C1317 C1314 1.403 . S
C1317 C1318 1.392 . S
C1317 C1321 1.495 . S
C1318 C1317 1.392 . S
C1318 C1319 1.385 . S
C1318 C1320 1.478 . S
C1319 H1313 0.930 . S
C1319 C1315 1.400 . S
C1319 C1318 1.385 . S
C1320 C1318 1.478 . S
C1320 C1322 1.381 . S
C1320 C1326 1.383 . S
C1321 C1317 1.495 . S
C1321 H1327 0.959 . S
C1321 H1328 0.961 . S
C1321 H1329 0.960 . S
C1322 C1320 1.381 . S
C1322 C1323 1.394 . S
C1322 H1330 0.930 . S
C1323 C1322 1.394 . S
C1323 C1324 1.383 . S
C1323 H1331 0.929 . S
C1324 C1323 1.383 . S
C1324 C1325 1.377 . S
C1325 H1309 0.930 . S
C1325 C1324 1.377 . S
C1325 C1326 1.379 . S
C1326 H1310 0.931 . S
C1326 C1320 1.383 . S
C1326 C1325 1.379 . S
H1327 C1321 0.959 . S
H1328 C1321 0.961 . S
H1329 C1321 0.960 . S
H1330 C1322 0.930 . S
H1331 C1323 0.929 . S
H1332 C1340 0.929 . S
H1333 C1342 0.930 . S
H1334 C1344 0.930 . S
H1335 C1347 0.929 . S
H1336 C1350 0.930 . S
H1337 C1352 0.960 . S
H1338 C1352 0.960 . S
H1339 C1352 0.960 . S
C1340 H1332 0.929 . S
C1340 C1341 1.377 . S
C1340 C1342 1.384 . S
C1341 C1340 1.377 . S
C1341 C1347 1.390 . S
C1342 H1333 0.930 . S
C1342 C1340 1.384 . S
C1342 C1343 1.372 . S
C1343 C1342 1.372 . S
C1343 C1344 1.400 . S
C1343 C1348 1.490 . S
C1344 H1334 0.930 . S
C1344 C1343 1.400 . S
C1344 C1347 1.386 . S
H1345 C1361 0.930 . S
H1346 C1362 0.931 . S
C1347 H1335 0.929 . S
C1347 C1341 1.390 . S
C1347 C1344 1.386 . S
C1348 C1343 1.490 . S
C1348 C1350 1.395 . S
C1348 C1351 1.403 . S
H1349 C1355 0.930 . S
C1350 H1336 0.930 . S
C1350 C1348 1.395 . S
C1350 C1353 1.403 . S
C1351 C1348 1.403 . S
C1351 C1352 1.524 . S
C1351 C1355 1.400 . S
C1352 H1337 0.960 . S
C1352 H1338 0.960 . S
C1352 H1339 0.960 . S
C1352 C1351 1.524 . S
C1353 C1350 1.403 . S
C1353 C1354 1.392 . S
C1353 C1357 1.495 . S
C1354 C1353 1.392 . S
C1354 C1355 1.385 . S
C1354 C1356 1.478 . S
C1355 H1349 0.930 . S
C1355 C1351 1.400 . S
C1355 C1354 1.385 . S
C1356 C1354 1.478 . S
C1356 C1358 1.381 . S
C1356 C1362 1.383 . S
C1357 C1353 1.495 . S
C1357 H1363 0.959 . S
C1357 H1364 0.961 . S
C1357 H1365 0.960 . S
C1358 C1356 1.381 . S
C1358 C1359 1.394 . S
C1358 H1366 0.930 . S
C1359 C1358 1.394 . S
C1359 C1360 1.383 . S
C1359 H1367 0.929 . S
C1360 C1359 1.383 . S
C1360 C1361 1.377 . S
C1361 H1345 0.930 . S
C1361 C1360 1.377 . S
C1361 C1362 1.379 . S
C1362 H1346 0.931 . S
C1362 C1356 1.383 . S
C1362 C1361 1.379 . S
H1363 C1357 0.959 . S
H1364 C1357 0.961 . S
H1365 C1357 0.960 . S
H1366 C1358 0.930 . S
H1367 C1359 0.929 . S
H1368 C1376 0.929 . S
H1369 C1378 0.930 . S
H1370 C1380 0.930 . S
H1371 C1383 0.929 . S
H1372 C1386 0.930 . S
H1373 C1388 0.960 . S
H1374 C1388 0.960 . S
H1375 C1388 0.960 . S
C1376 H1368 0.929 . S
C1376 C1377 1.377 . S
C1376 C1378 1.384 . S
C1377 C1376 1.377 . S
C1377 C1383 1.390 . S
C1378 H1369 0.930 . S
C1378 C1376 1.384 . S
C1378 C1379 1.372 . S
C1379 C1378 1.372 . S
C1379 C1380 1.400 . S
C1379 C1384 1.490 . S
C1380 H1370 0.930 . S
C1380 C1379 1.400 . S
C1380 C1383 1.386 . S
H1381 C1397 0.930 . S
H1382 C1398 0.931 . S
C1383 H1371 0.929 . S
C1383 C1377 1.390 . S
C1383 C1380 1.386 . S
C1384 C1379 1.490 . S
C1384 C1386 1.395 . S
C1384 C1387 1.403 . S
H1385 C1391 0.930 . S
C1386 H1372 0.930 . S
C1386 C1384 1.395 . S
C1386 C1389 1.403 . S
C1387 C1384 1.403 . S
C1387 C1388 1.524 . S
C1387 C1391 1.400 . S
C1388 H1373 0.960 . S
C1388 H1374 0.960 . S
C1388 H1375 0.960 . S
C1388 C1387 1.524 . S
C1389 C1386 1.403 . S
C1389 C1390 1.392 . S
C1389 C1393 1.495 . S
C1390 C1389 1.392 . S
C1390 C1391 1.385 . S
C1390 C1392 1.478 . S
C1391 H1385 0.930 . S
C1391 C1387 1.400 . S
C1391 C1390 1.385 . S
C1392 C1390 1.478 . S
C1392 C1394 1.381 . S
C1392 C1398 1.383 . S
C1393 C1389 1.495 . S
C1393 H1399 0.959 . S
C1393 H1400 0.961 . S
C1393 H1401 0.960 . S
C1394 C1392 1.381 . S
C1394 C1395 1.394 . S
C1394 H1402 0.930 . S
C1395 C1394 1.394 . S
C1395 C1396 1.383 . S
C1395 H1403 0.929 . S
C1396 C1395 1.383 . S
C1396 C1397 1.377 . S
C1397 H1381 0.930 . S
C1397 C1396 1.377 . S
C1397 C1398 1.379 . S
C1398 H1382 0.931 . S
C1398 C1392 1.383 . S
C1398 C1397 1.379 . S
H1399 C1393 0.959 . S
H1400 C1393 0.961 . S
H1401 C1393 0.960 . S
H1402 C1394 0.930 . S
H1403 C1395 0.929 . S
H1404 C1412 0.929 . S
H1405 C1414 0.930 . S
H1406 C1416 0.930 . S
H1407 C1419 0.929 . S
H1408 C1422 0.930 . S
H1409 C1424 0.960 . S
H1410 C1424 0.960 . S
H1411 C1424 0.960 . S
C1412 H1404 0.929 . S
C1412 C1413 1.377 . S
C1412 C1414 1.384 . S
C1413 C1412 1.377 . S
C1413 C1419 1.390 . S
C1414 H1405 0.930 . S
C1414 C1412 1.384 . S
C1414 C1415 1.372 . S
C1415 C1414 1.372 . S
C1415 C1416 1.400 . S
C1415 C1420 1.490 . S
C1416 H1406 0.930 . S
C1416 C1415 1.400 . S
C1416 C1419 1.386 . S
H1417 C1433 0.930 . S
H1418 C1434 0.931 . S
C1419 H1407 0.929 . S
C1419 C1413 1.390 . S
C1419 C1416 1.386 . S
C1420 C1415 1.490 . S
C1420 C1422 1.395 . S
C1420 C1423 1.403 . S
H1421 C1427 0.930 . S
C1422 H1408 0.930 . S
C1422 C1420 1.395 . S
C1422 C1425 1.403 . S
C1423 C1420 1.403 . S
C1423 C1424 1.524 . S
C1423 C1427 1.400 . S
C1424 H1409 0.960 . S
C1424 H1410 0.960 . S
C1424 H1411 0.960 . S
C1424 C1423 1.524 . S
C1425 C1422 1.403 . S
C1425 C1426 1.392 . S
C1425 C1429 1.495 . S
C1426 C1425 1.392 . S
C1426 C1427 1.385 . S
C1426 C1428 1.478 . S
C1427 H1421 0.930 . S
C1427 C1423 1.400 . S
C1427 C1426 1.385 . S
C1428 C1426 1.478 . S
C1428 C1430 1.381 . S
C1428 C1434 1.383 . S
C1429 C1425 1.495 . S
C1429 H1435 0.959 . S
C1429 H1436 0.961 . S
C1429 H1437 0.960 . S
C1430 C1428 1.381 . S
C1430 C1431 1.394 . S
C1430 H1438 0.930 . S
C1431 C1430 1.394 . S
C1431 C1432 1.383 . S
C1431 H1439 0.929 . S
C1432 C1431 1.383 . S
C1432 C1433 1.377 . S
C1433 H1417 0.930 . S
C1433 C1432 1.377 . S
C1433 C1434 1.379 . S
C1434 H1418 0.931 . S
C1434 C1428 1.383 . S
C1434 C1433 1.379 . S
H1435 C1429 0.959 . S
H1436 C1429 0.961 . S
H1437 C1429 0.960 . S
H1438 C1430 0.930 . S
H1439 C1431 0.929 . S
H1440 C1448 0.929 . S
H1441 C1450 0.930 . S
H1442 C1452 0.930 . S
H1443 C1455 0.929 . S
H1444 C1458 0.930 . S
H1445 C1460 0.960 . S
H1446 C1460 0.960 . S
H1447 C1460 0.960 . S
C1448 H1440 0.929 . S
C1448 C1449 1.377 . S
C1448 C1450 1.384 . S
C1449 C1448 1.377 . S
C1449 C1455 1.390 . S
C1450 H1441 0.930 . S
C1450 C1448 1.384 . S
C1450 C1451 1.372 . S
C1451 C1450 1.372 . S
C1451 C1452 1.400 . S
C1451 C1456 1.490 . S
C1452 H1442 0.930 . S
C1452 C1451 1.400 . S
C1452 C1455 1.386 . S
H1453 C1469 0.930 . S
H1454 C1470 0.931 . S
C1455 H1443 0.929 . S
C1455 C1449 1.390 . S
C1455 C1452 1.386 . S
C1456 C1451 1.490 . S
C1456 C1458 1.395 . S
C1456 C1459 1.403 . S
H1457 C1463 0.930 . S
C1458 H1444 0.930 . S
C1458 C1456 1.395 . S
C1458 C1461 1.403 . S
C1459 C1456 1.403 . S
C1459 C1460 1.524 . S
C1459 C1463 1.400 . S
C1460 H1445 0.960 . S
C1460 H1446 0.960 . S
C1460 H1447 0.960 . S
C1460 C1459 1.524 . S
C1461 C1458 1.403 . S
C1461 C1462 1.392 . S
C1461 C1465 1.495 . S
C1462 C1461 1.392 . S
C1462 C1463 1.385 . S
C1462 C1464 1.478 . S
C1463 H1457 0.930 . S
C1463 C1459 1.400 . S
C1463 C1462 1.385 . S
C1464 C1462 1.478 . S
C1464 C1466 1.381 . S
C1464 C1470 1.383 . S
C1465 C1461 1.495 . S
C1465 H1471 0.959 . S
C1465 H1472 0.961 . S
C1465 H1473 0.960 . S
C1466 C1464 1.381 . S
C1466 C1467 1.394 . S
C1466 H1474 0.930 . S
C1467 C1466 1.394 . S
C1467 C1468 1.383 . S
C1467 H1475 0.929 . S
C1468 C1467 1.383 . S
C1468 C1469 1.377 . S
C1469 H1453 0.930 . S
C1469 C1468 1.377 . S
C1469 C1470 1.379 . S
C1470 H1454 0.931 . S
C1470 C1464 1.383 . S
C1470 C1469 1.379 . S
H1471 C1465 0.959 . S
H1472 C1465 0.961 . S
H1473 C1465 0.960 . S
H1474 C1466 0.930 . S
H1475 C1467 0.929 . S
H1476 C1484 0.929 . S
H1477 C1486 0.930 . S
H1478 C1488 0.930 . S
H1479 C1491 0.929 . S
H1480 C1494 0.930 . S
H1481 C1496 0.960 . S
H1482 C1496 0.960 . S
H1483 C1496 0.960 . S
C1484 H1476 0.929 . S
C1484 C1485 1.377 . S
C1484 C1486 1.384 . S
C1485 C1484 1.377 . S
C1485 C1491 1.390 . S
C1486 H1477 0.930 . S
C1486 C1484 1.384 . S
C1486 C1487 1.372 . S
C1487 C1486 1.372 . S
C1487 C1488 1.400 . S
C1487 C1492 1.490 . S
C1488 H1478 0.930 . S
C1488 C1487 1.400 . S
C1488 C1491 1.386 . S
H1489 C1505 0.930 . S
H1490 C1506 0.931 . S
C1491 H1479 0.929 . S
C1491 C1485 1.390 . S
C1491 C1488 1.386 . S
C1492 C1487 1.490 . S
C1492 C1494 1.395 . S
C1492 C1495 1.403 1_554 S
H1493 C1499 0.930 . S
C1494 H1480 0.930 . S
C1494 C1492 1.395 . S
C1494 C1497 1.403 1_655 S
C1495 C1492 1.403 1_556 S
C1495 C1496 1.524 . S
C1495 C1499 1.400 1_655 S
C1496 H1481 0.960 . S
C1496 H1482 0.960 . S
C1496 H1483 0.960 . S
C1496 C1495 1.524 . S
C1497 C1494 1.403 1_455 S
C1497 C1498 1.392 1_554 S
C1497 C1501 1.495 . S
C1498 C1497 1.392 1_556 S
C1498 C1499 1.385 . S
C1498 C1500 1.478 . S
C1499 H1493 0.930 . S
C1499 C1495 1.400 1_455 S
C1499 C1498 1.385 . S
C1500 C1498 1.478 . S
C1500 C1502 1.381 . S
C1500 C1506 1.383 . S
C1501 C1497 1.495 . S
C1501 H1507 0.959 . S
C1501 H1508 0.961 . S
C1501 H1509 0.960 . S
C1502 C1500 1.381 . S
C1502 C1503 1.394 . S
C1502 H1510 0.930 . S
C1503 C1502 1.394 . S
C1503 C1504 1.383 . S
C1503 H1511 0.929 . S
C1504 C1503 1.383 . S
C1504 C1505 1.377 . S
C1505 H1489 0.930 . S
C1505 C1504 1.377 . S
C1505 C1506 1.379 . S
C1506 H1490 0.931 . S
C1506 C1500 1.383 . S
C1506 C1505 1.379 . S
H1507 C1501 0.959 . S
H1508 C1501 0.961 . S
H1509 C1501 0.960 . S
H1510 C1502 0.930 . S
H1511 C1503 0.929 . S
H1512 C1520 0.929 . S
H1513 C1522 0.930 1_554 S
H1514 C1524 0.930 . S
H1515 C1527 0.929 . S
H1516 C1530 0.930 . S
H1517 C1532 0.960 . S
H1518 C1532 0.960 . S
H1519 C1532 0.960 . S
C1520 H1512 0.929 . S
C1520 C1521 1.377 . S
C1520 C1522 1.384 . S
C1521 C1520 1.377 . S
C1521 C1527 1.390 . S
C1522 H1513 0.930 1_556 S
C1522 C1520 1.384 . S
C1522 C1523 1.372 . S
C1523 C1522 1.372 . S
C1523 C1524 1.400 . S
C1523 C1528 1.490 . S
C1524 H1514 0.930 . S
C1524 C1523 1.400 . S
C1524 C1527 1.386 . S
H1525 C1541 0.930 . S
H1526 C1542 0.931 1_556 S
C1527 H1515 0.929 . S
C1527 C1521 1.390 . S
C1527 C1524 1.386 . S
C1528 C1523 1.490 . S
C1528 C1530 1.395 1_556 S
C1528 C1531 1.403 . S
H1529 C1535 0.931 . S
C1530 H1516 0.930 . S
C1530 C1528 1.395 1_554 S
C1530 C1533 1.403 . S
C1531 C1528 1.403 . S
C1531 C1532 1.524 . S
C1531 C1535 1.400 1_556 S
C1532 H1517 0.960 . S
C1532 H1518 0.960 . S
C1532 H1519 0.960 . S
C1532 C1531 1.524 . S
C1533 C1530 1.403 . S
C1533 C1534 1.392 . S
C1533 C1537 1.495 . S
C1534 C1533 1.392 . S
C1534 C1535 1.385 . S
C1534 C1536 1.478 . S
C1535 H1529 0.931 . S
C1535 C1531 1.400 1_554 S
C1535 C1534 1.385 . S
C1536 C1534 1.478 . S
C1536 C1538 1.381 . S
C1536 C1542 1.383 . S
C1537 C1533 1.495 . S
C1537 H1543 0.959 . S
C1537 H1544 0.961 . S
C1537 H1545 0.960 . S
C1538 C1536 1.381 . S
C1538 C1539 1.394 . S
C1538 H1546 0.930 . S
C1539 C1538 1.394 . S
C1539 C1540 1.383 . S
C1539 H1547 0.929 . S
C1540 C1539 1.383 . S
C1540 C1541 1.377 . S
C1541 H1525 0.930 . S
C1541 C1540 1.377 . S
C1541 C1542 1.379 . S
C1542 H1526 0.931 1_554 S
C1542 C1536 1.383 . S
C1542 C1541 1.379 . S
H1543 C1537 0.959 . S
H1544 C1537 0.961 . S
H1545 C1537 0.960 . S
H1546 C1538 0.930 . S
H1547 C1539 0.929 . S
H1548 C1556 0.929 . S
H1549 C1558 0.930 . S
H1550 C1560 0.930 . S
H1551 C1563 0.929 . S
H1552 C1566 0.930 . S
H1553 C1568 0.958 . S
H1554 C1568 0.962 1_545 S
H1555 C1568 0.960 1_545 S
C1556 H1548 0.929 . S
C1556 C1557 1.377 . S
C1556 C1558 1.384 . S
C1557 C1556 1.377 . S
C1557 C1563 1.390 . S
C1558 H1549 0.930 . S
C1558 C1556 1.384 . S
C1558 C1559 1.372 . S
C1559 C1558 1.372 . S
C1559 C1560 1.400 . S
C1559 C1564 1.490 . S
C1560 H1550 0.930 . S
C1560 C1559 1.400 . S
C1560 C1563 1.386 . S
H1561 C1577 0.930 . S
H1562 C1578 0.931 . S
C1563 H1551 0.929 . S
C1563 C1557 1.390 . S
C1563 C1560 1.386 . S
C1564 C1559 1.490 . S
C1564 C1566 1.395 1_554 S
C1564 C1567 1.449 . S
H1565 C1571 0.930 . S
C1566 H1552 0.930 . S
C1566 C1564 1.395 1_556 S
C1566 C1569 1.445 . S
C1567 C1564 1.449 . S
C1567 C1568 1.527 1_545 S
C1567 C1571 1.352 1_545 S
C1568 H1553 0.958 . S
C1568 H1554 0.962 1_565 S
C1568 H1555 0.960 1_565 S
C1568 C1567 1.527 1_565 S
C1569 C1566 1.445 . S
C1569 C1570 1.354 1_545 S
C1569 C1573 1.495 . S
C1570 C1569 1.354 1_565 S
C1570 C1571 1.385 1_556 S
C1570 C1572 1.478 . S
C1571 H1565 0.930 . S
C1571 C1567 1.352 1_565 S
C1571 C1570 1.385 1_554 S
C1572 C1570 1.478 . S
C1572 C1574 1.381 . S
C1572 C1578 1.383 . S
C1573 C1569 1.495 . S
C1573 H1579 0.959 . S
C1573 H1580 0.961 1_545 S
C1573 H1581 0.960 1_545 S
C1574 C1572 1.381 . S
C1574 C1575 1.394 . S
C1574 H1582 0.930 . S
C1575 C1574 1.394 . S
C1575 C1576 1.383 . S
C1575 H1583 0.929 . S
C1576 C1575 1.383 . S
C1576 C1577 1.377 . S
C1577 H1561 0.930 . S
C1577 C1576 1.377 . S
C1577 C1578 1.379 . S
C1578 H1562 0.931 . S
C1578 C1572 1.383 . S
C1578 C1577 1.379 . S
H1579 C1573 0.959 . S
H1580 C1573 0.961 1_565 S
H1581 C1573 0.960 1_565 S
H1582 C1574 0.930 . S
H1583 C1575 0.929 . S
H1584 C1592 0.929 . S
H1585 C1594 0.930 1_556 S
H1586 C1596 0.930 . S
H1587 C1599 0.929 . S
H1588 C1602 0.930 . S
H1589 C1604 0.960 . S
H1590 C1604 0.960 . S
H1591 C1604 0.960 . S
C1592 H1584 0.929 . S
C1592 C1593 1.377 . S
C1592 C1594 1.384 . S
C1593 C1592 1.377 . S
C1593 C1599 1.390 . S
C1594 H1585 0.930 1_554 S
C1594 C1592 1.384 . S
C1594 C1595 1.372 . S
C1595 C1594 1.372 . S
C1595 C1596 1.400 . S
C1595 C1600 1.490 . S
C1596 H1586 0.930 . S
C1596 C1595 1.400 . S
C1596 C1599 1.386 . S
H1597 C1613 0.930 . S
H1598 C1614 0.931 1_554 S
C1599 H1587 0.929 . S
C1599 C1593 1.390 . S
C1599 C1596 1.386 . S
C1600 C1595 1.490 . S
C1600 C1602 1.395 1_554 S
C1600 C1603 1.403 . S
H1601 C1607 0.930 . S
C1602 H1588 0.930 . S
C1602 C1600 1.395 1_556 S
C1602 C1605 1.403 . S
C1603 C1600 1.403 . S
C1603 C1604 1.524 . S
C1603 C1607 1.400 . S
C1604 H1589 0.960 . S
C1604 H1590 0.960 . S
C1604 H1591 0.960 . S
C1604 C1603 1.524 . S
C1605 C1602 1.403 . S
C1605 C1606 1.392 . S
C1605 C1609 1.495 . S
C1606 C1605 1.392 . S
C1606 C1607 1.385 1_556 S
C1606 C1608 1.478 . S
C1607 H1601 0.930 . S
C1607 C1603 1.400 . S
C1607 C1606 1.385 1_554 S
C1608 C1606 1.478 . S
C1608 C1610 1.381 . S
C1608 C1614 1.383 . S
C1609 C1605 1.495 . S
C1609 H1615 0.959 . S
C1609 H1616 0.961 . S
C1609 H1617 0.960 . S
C1610 C1608 1.381 . S
C1610 C1611 1.394 . S
C1610 H1618 0.930 . S
C1611 C1610 1.394 . S
C1611 C1612 1.383 . S
C1611 H1619 0.929 . S
C1612 C1611 1.383 . S
C1612 C1613 1.377 . S
C1613 H1597 0.930 . S
C1613 C1612 1.377 . S
C1613 C1614 1.379 . S
C1614 H1598 0.931 1_556 S
C1614 C1608 1.383 . S
C1614 C1613 1.379 . S
H1615 C1609 0.959 . S
H1616 C1609 0.961 . S
H1617 C1609 0.960 . S
H1618 C1610 0.930 . S
H1619 C1611 0.929 . S
H1620 C1628 0.929 . S
H1621 C1630 0.917 1_556 S
H1622 C1632 0.930 . S
H1623 C1635 0.929 . S
H1624 C1638 0.930 . S
H1625 C1640 0.960 1_545 S
H1626 C1640 0.960 . S
H1627 C1640 0.960 . S
C1628 H1620 0.929 . S
C1628 C1629 1.377 . S
C1628 C1630 1.384 . S
C1629 C1628 1.377 . S
C1629 C1635 1.390 . S
C1630 H1621 0.917 1_554 S
C1630 C1628 1.384 . S
C1630 C1631 1.372 . S
C1631 C1630 1.372 . S
C1631 C1632 1.400 . S
C1631 C1636 1.490 . S
C1632 H1622 0.930 . S
C1632 C1631 1.400 . S
C1632 C1635 1.386 . S
H1633 C1649 0.930 . S
H1634 C1650 0.931 . S
C1635 H1623 0.929 . S
C1635 C1629 1.390 . S
C1635 C1632 1.386 . S
C1636 C1631 1.490 . S
C1636 C1638 1.395 1_554 S
C1636 C1639 1.403 . S
H1637 C1643 0.930 . S
C1638 H1624 0.930 . S
C1638 C1636 1.395 1_556 S
C1638 C1641 1.411 . S
C1639 C1636 1.403 . S
C1639 C1640 1.524 . S
C1639 C1643 1.400 1_565 S
C1640 H1625 0.960 1_565 S
C1640 H1626 0.960 . S
C1640 H1627 0.960 . S
C1640 C1639 1.524 . S
C1641 C1638 1.411 . S
C1641 C1642 1.387 1_565 S
C1641 C1645 1.495 . S
C1642 C1641 1.387 1_545 S
C1642 C1643 1.385 1_556 S
C1642 C1644 1.478 . S
C1643 H1637 0.930 . S
C1643 C1639 1.400 1_545 S
C1643 C1642 1.385 1_554 S
C1644 C1642 1.478 . S
C1644 C1646 1.381 . S
C1644 C1650 1.383 . S
C1645 C1641 1.495 . S
C1645 H1651 0.967 . S
C1645 H1652 0.951 1_565 S
C1645 H1653 0.960 1_565 S
C1646 C1644 1.381 . S
C1646 C1647 1.394 . S
C1646 H1654 0.930 . S
C1647 C1646 1.394 . S
C1647 C1648 1.383 . S
C1647 H1655 0.929 . S
C1648 C1647 1.383 . S
C1648 C1649 1.377 . S
C1649 H1633 0.930 . S
C1649 C1648 1.377 . S
C1649 C1650 1.379 . S
C1650 H1634 0.931 . S
C1650 C1644 1.383 . S
C1650 C1649 1.379 . S
H1651 C1645 0.967 . S
H1652 C1645 0.951 1_545 S
H1653 C1645 0.960 1_545 S
H1654 C1646 0.930 . S
H1655 C1647 0.929 . S
H1656 C1664 0.929 . S
H1657 C1666 0.930 1_554 S
H1658 C1668 0.930 . S
H1659 C1671 0.929 . S
H1660 C1674 0.930 . S
H1661 C1676 0.960 1_455 S
H1662 C1676 0.960 . S
H1663 C1676 0.960 . S
C1664 H1656 0.929 . S
C1664 C1665 1.377 . S
C1664 C1666 1.384 . S
C1665 C1664 1.377 . S
C1665 C1671 1.390 . S
C1666 H1657 0.930 1_556 S
C1666 C1664 1.384 . S
C1666 C1667 1.372 . S
C1667 C1666 1.372 . S
C1667 C1668 1.400 . S
C1667 C1672 1.490 . S
C1668 H1658 0.930 . S
C1668 C1667 1.400 . S
C1668 C1671 1.386 . S
H1669 C1685 0.930 . S
H1670 C1686 0.931 . S
C1671 H1659 0.929 . S
C1671 C1665 1.390 . S
C1671 C1668 1.386 . S
C1672 C1667 1.490 . S
C1672 C1674 1.395 1_556 S
C1672 C1675 1.403 . S
H1673 C1679 0.930 . S
C1674 H1660 0.930 . S
C1674 C1672 1.395 1_554 S
C1674 C1677 1.404 1_655 S
C1675 C1672 1.403 . S
C1675 C1676 1.524 . S
C1675 C1679 1.400 1_655 S
C1676 H1661 0.960 1_655 S
C1676 H1662 0.960 . S
C1676 H1663 0.960 . S
C1676 C1675 1.524 . S
C1677 C1674 1.404 1_455 S
C1677 C1678 1.392 . S
C1677 C1681 1.489 . S
C1678 C1677 1.392 . S
C1678 C1679 1.385 1_554 S
C1678 C1680 1.478 . S
C1679 H1673 0.930 . S
C1679 C1675 1.400 1_455 S
C1679 C1678 1.385 1_556 S
C1680 C1678 1.478 . S
C1680 C1682 1.381 . S
C1680 C1686 1.383 . S
C1681 C1677 1.489 . S
C1681 H1687 0.940 1_455 S
C1681 H1688 0.988 . S
C1681 H1689 0.959 . S
C1682 C1680 1.381 . S
C1682 C1683 1.394 . S
C1682 H1690 0.930 . S
C1683 C1682 1.394 . S
C1683 C1684 1.383 . S
C1683 H1691 0.929 . S
C1684 C1683 1.383 . S
C1684 C1685 1.377 . S
C1685 H1669 0.930 . S
C1685 C1684 1.377 . S
C1685 C1686 1.379 . S
C1686 H1670 0.931 . S
C1686 C1680 1.383 . S
C1686 C1685 1.379 . S
H1687 C1681 0.940 1_655 S
H1688 C1681 0.988 . S
H1689 C1681 0.959 . S
H1690 C1682 0.930 . S
H1691 C1683 0.929 . S
H1692 C1700 0.929 . S
H1693 C1702 0.930 . S
H1694 C1704 0.930 . S
H1695 C1707 0.929 . S
H1696 C1710 0.930 . S
H1697 C1712 0.960 . S
H1698 C1712 0.960 . S
H1699 C1712 0.960 . S
C1700 H1692 0.929 . S
C1700 C1701 1.377 . S
C1700 C1702 1.384 . S
C1701 C1700 1.377 . S
C1701 C1707 1.390 . S
C1702 H1693 0.930 . S
C1702 C1700 1.384 . S
C1702 C1703 1.372 . S
C1703 C1702 1.372 . S
C1703 C1704 1.400 . S
C1703 C1708 1.490 . S
C1704 H1694 0.930 . S
C1704 C1703 1.400 . S
C1704 C1707 1.386 . S
H1705 C1721 0.930 . S
H1706 C1722 0.931 . S
C1707 H1695 0.929 . S
C1707 C1701 1.390 . S
C1707 C1704 1.386 . S
C1708 C1703 1.490 . S
C1708 C1710 1.395 1_556 S
C1708 C1711 1.403 . S
H1709 C1715 0.930 . S
C1710 H1696 0.930 . S
C1710 C1708 1.395 1_554 S
C1710 C1713 1.403 . S
C1711 C1708 1.403 . S
C1711 C1712 1.524 . S
C1711 C1715 1.400 . S
C1712 H1697 0.960 . S
C1712 H1698 0.960 . S
C1712 H1699 0.960 . S
C1712 C1711 1.524 . S
C1713 C1710 1.403 . S
C1713 C1714 1.392 . S
C1713 C1717 1.495 . S
C1714 C1713 1.392 . S
C1714 C1715 1.385 1_554 S
C1714 C1716 1.478 . S
C1715 H1709 0.930 . S
C1715 C1711 1.400 . S
C1715 C1714 1.385 1_556 S
C1716 C1714 1.478 . S
C1716 C1718 1.381 . S
C1716 C1722 1.383 . S
C1717 C1713 1.495 . S
C1717 H1723 0.959 . S
C1717 H1724 0.961 . S
C1717 H1725 0.960 . S
C1718 C1716 1.381 . S
C1718 C1719 1.394 . S
C1718 H1726 0.930 . S
C1719 C1718 1.394 . S
C1719 C1720 1.383 . S
C1719 H1727 0.929 . S
C1720 C1719 1.383 . S
C1720 C1721 1.377 . S
C1721 H1705 0.930 . S
C1721 C1720 1.377 . S
C1721 C1722 1.379 . S
C1722 H1706 0.931 . S
C1722 C1716 1.383 . S
C1722 C1721 1.379 . S
H1723 C1717 0.959 . S
H1724 C1717 0.961 . S
H1725 C1717 0.960 . S
H1726 C1718 0.930 . S
H1727 C1719 0.929 . S
H1728 C1736 0.929 . S
H1729 C1738 0.930 . S
H1730 C1740 0.930 . S
H1731 C1743 0.929 . S
H1732 C1746 0.930 . S
H1733 C1748 0.960 . S
H1734 C1748 0.960 . S
H1735 C1748 0.960 . S
C1736 H1728 0.929 . S
C1736 C1737 1.377 . S
C1736 C1738 1.384 . S
C1737 C1736 1.377 . S
C1737 C1743 1.390 . S
C1738 H1729 0.930 . S
C1738 C1736 1.384 . S
C1738 C1739 1.372 . S
C1739 C1738 1.372 . S
C1739 C1740 1.400 . S
C1739 C1744 1.490 . S
C1740 H1730 0.930 . S
C1740 C1739 1.400 . S
C1740 C1743 1.386 . S
H1741 C1757 0.930 . S
H1742 C1758 0.931 . S
C1743 H1731 0.929 . S
C1743 C1737 1.390 . S
C1743 C1740 1.386 . S
C1744 C1739 1.490 . S
C1744 C1746 1.395 . S
C1744 C1747 1.403 1_556 S
H1745 C1751 0.930 . S
C1746 H1732 0.930 . S
C1746 C1744 1.395 . S
C1746 C1749 1.403 1_545 S
C1747 C1744 1.403 1_554 S
C1747 C1748 1.524 . S
C1747 C1751 1.400 1_545 S
C1748 H1733 0.960 . S
C1748 H1734 0.960 . S
C1748 H1735 0.960 . S
C1748 C1747 1.524 . S
C1749 C1746 1.403 1_565 S
C1749 C1750 1.392 1_556 S
C1749 C1753 1.495 . S
C1750 C1749 1.392 1_554 S
C1750 C1751 1.385 . S
C1750 C1752 1.478 . S
C1751 H1745 0.930 . S
C1751 C1747 1.400 1_565 S
C1751 C1750 1.385 . S
C1752 C1750 1.478 . S
C1752 C1754 1.381 . S
C1752 C1758 1.383 . S
C1753 C1749 1.495 . S
C1753 H1759 0.959 . S
C1753 H1760 0.961 . S
C1753 H1761 0.960 . S
C1754 C1752 1.381 . S
C1754 C1755 1.394 . S
C1754 H1762 0.930 . S
C1755 C1754 1.394 . S
C1755 C1756 1.383 . S
C1755 H1763 0.929 . S
C1756 C1755 1.383 . S
C1756 C1757 1.377 . S
C1757 H1741 0.930 . S
C1757 C1756 1.377 . S
C1757 C1758 1.379 . S
C1758 H1742 0.931 . S
C1758 C1752 1.383 . S
C1758 C1757 1.379 . S
H1759 C1753 0.959 . S
H1760 C1753 0.961 . S
H1761 C1753 0.960 . S
H1762 C1754 0.930 . S
H1763 C1755 0.929 . S
H1764 C1772 0.929 . S
H1765 C1774 0.930 1_554 S
H1766 C1776 0.930 . S
H1767 C1779 0.929 . S
H1768 C1782 0.930 . S
H1769 C1784 0.960 . S
H1770 C1784 0.960 . S
H1771 C1784 0.960 . S
C1772 H1764 0.929 . S
C1772 C1773 1.377 . S
C1772 C1774 1.384 . S
C1773 C1772 1.377 . S
C1773 C1779 1.390 . S
C1774 H1765 0.930 1_556 S
C1774 C1772 1.384 . S
C1774 C1775 1.372 . S
C1775 C1774 1.372 . S
C1775 C1776 1.400 . S
C1775 C1780 1.490 . S
C1776 H1766 0.930 . S
C1776 C1775 1.400 . S
C1776 C1779 1.386 . S
H1777 C1793 0.930 . S
H1778 C1794 0.931 1_556 S
C1779 H1767 0.929 . S
C1779 C1773 1.390 . S
C1779 C1776 1.386 . S
C1780 C1775 1.490 . S
C1780 C1782 1.395 . S
C1780 C1783 1.403 . S
H1781 C1787 0.930 . S
C1782 H1768 0.930 . S
C1782 C1780 1.395 . S
C1782 C1785 1.403 1_656 S
C1783 C1780 1.403 . S
C1783 C1784 1.524 . S
C1783 C1787 1.400 1_656 S
C1784 H1769 0.960 . S
C1784 H1770 0.960 . S
C1784 H1771 0.960 . S
C1784 C1783 1.524 . S
C1785 C1782 1.403 1_454 S
C1785 C1786 1.392 . S
C1785 C1789 1.495 . S
C1786 C1785 1.392 . S
C1786 C1787 1.385 . S
C1786 C1788 1.478 . S
C1787 H1781 0.930 . S
C1787 C1783 1.400 1_454 S
C1787 C1786 1.385 . S
C1788 C1786 1.478 . S
C1788 C1790 1.381 . S
C1788 C1794 1.383 . S
C1789 C1785 1.495 . S
C1789 H1795 0.959 . S
C1789 H1796 0.961 . S
C1789 H1797 0.960 . S
C1790 C1788 1.381 . S
C1790 C1791 1.394 . S
C1790 H1798 0.930 . S
C1791 C1790 1.394 . S
C1791 C1792 1.383 . S
C1791 H1799 0.929 . S
C1792 C1791 1.383 . S
C1792 C1793 1.377 . S
C1793 H1777 0.930 . S
C1793 C1792 1.377 . S
C1793 C1794 1.379 . S
C1794 H1778 0.931 1_554 S
C1794 C1788 1.383 . S
C1794 C1793 1.379 . S
H1795 C1789 0.959 . S
H1796 C1789 0.961 . S
H1797 C1789 0.960 . S
H1798 C1790 0.930 . S
H1799 C1791 0.929 . S
H1800 C1808 0.929 . S
H1801 C1810 0.930 . S
H1802 C1812 0.930 . S
H1803 C1815 0.929 . S
H1804 C1818 0.930 . S
H1805 C1820 0.960 . S
H1806 C1820 0.960 . S
H1807 C1820 0.960 . S
C1808 H1800 0.929 . S
C1808 C1809 1.377 . S
C1808 C1810 1.384 . S
C1809 C1808 1.377 . S
C1809 C1815 1.390 . S
C1810 H1801 0.930 . S
C1810 C1808 1.384 . S
C1810 C1811 1.372 . S
C1811 C1810 1.372 . S
C1811 C1812 1.400 . S
C1811 C1816 1.490 . S
C1812 H1802 0.930 . S
C1812 C1811 1.400 . S
C1812 C1815 1.386 . S
H1813 C1829 0.930 . S
H1814 C1830 0.931 . S
C1815 H1803 0.929 . S
C1815 C1809 1.390 . S
C1815 C1812 1.386 . S
C1816 C1811 1.490 . S
C1816 C1818 1.395 . S
C1816 C1819 1.403 . S
H1817 C1823 0.930 . S
C1818 H1804 0.930 . S
C1818 C1816 1.395 . S
C1818 C1821 1.403 . S
C1819 C1816 1.403 . S
C1819 C1820 1.524 . S
C1819 C1823 1.400 . S
C1820 H1805 0.960 . S
C1820 H1806 0.960 . S
C1820 H1807 0.960 . S
C1820 C1819 1.524 . S
C1821 C1818 1.403 . S
C1821 C1822 1.392 . S
C1821 C1825 1.495 . S
C1822 C1821 1.392 . S
C1822 C1823 1.385 . S
C1822 C1824 1.478 . S
C1823 H1817 0.930 . S
C1823 C1819 1.400 . S
C1823 C1822 1.385 . S
C1824 C1822 1.478 . S
C1824 C1826 1.381 . S
C1824 C1830 1.383 . S
C1825 C1821 1.495 . S
C1825 H1831 0.959 . S
C1825 H1832 0.961 . S
C1825 H1833 0.960 . S
C1826 C1824 1.381 . S
C1826 C1827 1.394 . S
C1826 H1834 0.930 . S
C1827 C1826 1.394 . S
C1827 C1828 1.383 . S
C1827 H1835 0.929 . S
C1828 C1827 1.383 . S
C1828 C1829 1.377 . S
C1829 H1813 0.930 . S
C1829 C1828 1.377 . S
C1829 C1830 1.379 . S
C1830 H1814 0.931 . S
C1830 C1824 1.383 . S
C1830 C1829 1.379 . S
H1831 C1825 0.959 . S
H1832 C1825 0.961 . S
H1833 C1825 0.960 . S
H1834 C1826 0.930 . S
H1835 C1827 0.929 . S
H1836 C1844 0.929 . S
H1837 C1846 0.930 . S
H1838 C1848 0.930 . S
H1839 C1851 0.929 . S
H1840 C1854 0.930 . S
H1841 C1856 0.960 . S
H1842 C1856 0.960 . S
H1843 C1856 0.960 . S
C1844 H1836 0.929 . S
C1844 C1845 1.377 . S
C1844 C1846 1.384 . S
C1845 C1844 1.377 . S
C1845 C1851 1.390 . S
C1846 H1837 0.930 . S
C1846 C1844 1.384 . S
C1846 C1847 1.372 . S
C1847 C1846 1.372 . S
C1847 C1848 1.400 . S
C1847 C1852 1.490 . S
C1848 H1838 0.930 . S
C1848 C1847 1.400 . S
C1848 C1851 1.386 . S
H1849 C1865 0.930 . S
H1850 C1866 0.931 . S
C1851 H1839 0.929 . S
C1851 C1845 1.390 . S
C1851 C1848 1.386 . S
C1852 C1847 1.490 . S
C1852 C1854 1.395 . S
C1852 C1855 1.403 . S
H1853 C1859 0.930 . S
C1854 H1840 0.930 . S
C1854 C1852 1.395 . S
C1854 C1857 1.403 . S
C1855 C1852 1.403 . S
C1855 C1856 1.524 . S
C1855 C1859 1.400 . S
C1856 H1841 0.960 . S
C1856 H1842 0.960 . S
C1856 H1843 0.960 . S
C1856 C1855 1.524 . S
C1857 C1854 1.403 . S
C1857 C1858 1.392 . S
C1857 C1861 1.495 . S
C1858 C1857 1.392 . S
C1858 C1859 1.385 . S
C1858 C1860 1.478 . S
C1859 H1853 0.930 . S
C1859 C1855 1.400 . S
C1859 C1858 1.385 . S
C1860 C1858 1.478 . S
C1860 C1862 1.381 . S
C1860 C1866 1.383 . S
C1861 C1857 1.495 . S
C1861 H1867 0.959 . S
C1861 H1868 0.961 . S
C1861 H1869 0.960 . S
C1862 C1860 1.381 . S
C1862 C1863 1.394 . S
C1862 H1870 0.930 . S
C1863 C1862 1.394 . S
C1863 C1864 1.383 . S
C1863 H1871 0.929 . S
C1864 C1863 1.383 . S
C1864 C1865 1.377 . S
C1865 H1849 0.930 . S
C1865 C1864 1.377 . S
C1865 C1866 1.379 . S
C1866 H1850 0.931 . S
C1866 C1860 1.383 . S
C1866 C1865 1.379 . S
H1867 C1861 0.959 . S
H1868 C1861 0.961 . S
H1869 C1861 0.960 . S
H1870 C1862 0.930 . S
H1871 C1863 0.929 . S
H1872 C1880 0.929 . S
H1873 C1882 0.930 . S
H1874 C1884 0.930 . S
H1875 C1887 0.929 . S
H1876 C1890 0.930 . S
H1877 C1892 0.960 . S
H1878 C1892 0.960 . S
H1879 C1892 0.960 . S
C1880 H1872 0.929 . S
C1880 C1881 1.377 . S
C1880 C1882 1.384 . S
C1881 C1880 1.377 . S
C1881 C1887 1.390 . S
C1882 H1873 0.930 . S
C1882 C1880 1.384 . S
C1882 C1883 1.372 . S
C1883 C1882 1.372 . S
C1883 C1884 1.400 . S
C1883 C1888 1.490 . S
C1884 H1874 0.930 . S
C1884 C1883 1.400 . S
C1884 C1887 1.386 . S
H1885 C1901 0.930 . S
H1886 C1902 0.931 . S
C1887 H1875 0.929 . S
C1887 C1881 1.390 . S
C1887 C1884 1.386 . S
C1888 C1883 1.490 . S
C1888 C1890 1.395 . S
C1888 C1891 1.403 . S
H1889 C1895 0.930 . S
C1890 H1876 0.930 . S
C1890 C1888 1.395 . S
C1890 C1893 1.403 . S
C1891 C1888 1.403 . S
C1891 C1892 1.524 . S
C1891 C1895 1.400 . S
C1892 H1877 0.960 . S
C1892 H1878 0.960 . S
C1892 H1879 0.960 . S
C1892 C1891 1.524 . S
C1893 C1890 1.403 . S
C1893 C1894 1.392 . S
C1893 C1897 1.495 . S
C1894 C1893 1.392 . S
C1894 C1895 1.385 . S
C1894 C1896 1.478 . S
C1895 H1889 0.930 . S
C1895 C1891 1.400 . S
C1895 C1894 1.385 . S
C1896 C1894 1.478 . S
C1896 C1898 1.381 . S
C1896 C1902 1.383 . S
C1897 C1893 1.495 . S
C1897 H1903 0.959 . S
C1897 H1904 0.961 . S
C1897 H1905 0.960 . S
C1898 C1896 1.381 . S
C1898 C1899 1.394 . S
C1898 H1906 0.930 . S
C1899 C1898 1.394 . S
C1899 C1900 1.383 . S
C1899 H1907 0.929 . S
C1900 C1899 1.383 . S
C1900 C1901 1.377 . S
C1901 H1885 0.930 . S
C1901 C1900 1.377 . S
C1901 C1902 1.379 . S
C1902 H1886 0.931 . S
C1902 C1896 1.383 . S
C1902 C1901 1.379 . S
H1903 C1897 0.959 . S
H1904 C1897 0.961 . S
H1905 C1897 0.960 . S
H1906 C1898 0.930 . S
H1907 C1899 0.929 . S
H1908 C1916 0.929 . S
H1909 C1918 0.930 . S
H1910 C1920 0.930 . S
H1911 C1923 0.929 . S
H1912 C1926 0.930 . S
H1913 C1928 0.960 . S
H1914 C1928 0.960 . S
H1915 C1928 0.960 . S
C1916 H1908 0.929 . S
C1916 C1917 1.377 . S
C1916 C1918 1.384 . S
C1917 C1916 1.377 . S
C1917 C1923 1.390 . S
C1918 H1909 0.930 . S
C1918 C1916 1.384 . S
C1918 C1919 1.372 . S
C1919 C1918 1.372 . S
C1919 C1920 1.400 . S
C1919 C1924 1.490 . S
C1920 H1910 0.930 . S
C1920 C1919 1.400 . S
C1920 C1923 1.386 . S
H1921 C1937 0.930 . S
H1922 C1938 0.931 . S
C1923 H1911 0.929 . S
C1923 C1917 1.390 . S
C1923 C1920 1.386 . S
C1924 C1919 1.490 . S
C1924 C1926 1.395 . S
C1924 C1927 1.403 . S
H1925 C1931 0.930 . S
C1926 H1912 0.930 . S
C1926 C1924 1.395 . S
C1926 C1929 1.403 . S
C1927 C1924 1.403 . S
C1927 C1928 1.524 . S
C1927 C1931 1.400 . S
C1928 H1913 0.960 . S
C1928 H1914 0.960 . S
C1928 H1915 0.960 . S
C1928 C1927 1.524 . S
C1929 C1926 1.403 . S
C1929 C1930 1.392 . S
C1929 C1933 1.495 . S
C1930 C1929 1.392 . S
C1930 C1931 1.385 . S
C1930 C1932 1.478 . S
C1931 H1925 0.930 . S
C1931 C1927 1.400 . S
C1931 C1930 1.385 . S
C1932 C1930 1.478 . S
C1932 C1934 1.381 . S
C1932 C1938 1.383 . S
C1933 C1929 1.495 . S
C1933 H1939 0.959 . S
C1933 H1940 0.961 . S
C1933 H1941 0.960 . S
C1934 C1932 1.381 . S
C1934 C1935 1.394 . S
C1934 H1942 0.930 . S
C1935 C1934 1.394 . S
C1935 C1936 1.383 . S
C1935 H1943 0.929 . S
C1936 C1935 1.383 . S
C1936 C1937 1.377 . S
C1937 H1921 0.930 . S
C1937 C1936 1.377 . S
C1937 C1938 1.379 . S
C1938 H1922 0.931 . S
C1938 C1932 1.383 . S
C1938 C1937 1.379 . S
H1939 C1933 0.959 . S
H1940 C1933 0.961 . S
H1941 C1933 0.960 . S
H1942 C1934 0.930 . S
H1943 C1935 0.929 . S
H1944 C1952 0.929 . S
H1945 C1954 0.930 . S
H1946 C1956 0.930 . S
H1947 C1959 0.929 . S
H1948 C1962 0.930 . S
H1949 C1964 0.960 . S
H1950 C1964 0.960 . S
H1951 C1964 0.960 . S
C1952 H1944 0.929 . S
C1952 C1953 1.377 . S
C1952 C1954 1.384 . S
C1953 C1952 1.377 . S
C1953 C1959 1.390 . S
C1954 H1945 0.930 . S
C1954 C1952 1.384 . S
C1954 C1955 1.372 . S
C1955 C1954 1.372 . S
C1955 C1956 1.400 . S
C1955 C1960 1.490 . S
C1956 H1946 0.930 . S
C1956 C1955 1.400 . S
C1956 C1959 1.386 . S
H1957 C1973 0.930 . S
H1958 C1974 0.931 . S
C1959 H1947 0.929 . S
C1959 C1953 1.390 . S
C1959 C1956 1.386 . S
C1960 C1955 1.490 . S
C1960 C1962 1.395 . S
C1960 C1963 1.403 . S
H1961 C1967 0.930 . S
C1962 H1948 0.930 . S
C1962 C1960 1.395 . S
C1962 C1965 1.403 . S
C1963 C1960 1.403 . S
C1963 C1964 1.524 . S
C1963 C1967 1.400 . S
C1964 H1949 0.960 . S
C1964 H1950 0.960 . S
C1964 H1951 0.960 . S
C1964 C1963 1.524 . S
C1965 C1962 1.403 . S
C1965 C1966 1.392 . S
C1965 C1969 1.495 . S
C1966 C1965 1.392 . S
C1966 C1967 1.385 . S
C1966 C1968 1.478 . S
C1967 H1961 0.930 . S
C1967 C1963 1.400 . S
C1967 C1966 1.385 . S
C1968 C1966 1.478 . S
C1968 C1970 1.381 . S
C1968 C1974 1.383 . S
C1969 C1965 1.495 . S
C1969 H1975 0.959 . S
C1969 H1976 0.961 . S
C1969 H1977 0.960 . S
C1970 C1968 1.381 . S
C1970 C1971 1.394 . S
C1970 H1978 0.930 . S
C1971 C1970 1.394 . S
C1971 C1972 1.383 . S
C1971 H1979 0.929 . S
C1972 C1971 1.383 . S
C1972 C1973 1.377 . S
C1973 H1957 0.930 . S
C1973 C1972 1.377 . S
C1973 C1974 1.379 . S
C1974 H1958 0.931 . S
C1974 C1968 1.383 . S
C1974 C1973 1.379 . S
H1975 C1969 0.959 . S
H1976 C1969 0.961 . S
H1977 C1969 0.960 . S
H1978 C1970 0.930 . S
H1979 C1971 0.929 . S
H1980 C1988 0.929 . S
H1981 C1990 0.930 . S
H1982 C1992 0.930 . S
H1983 C1995 0.929 . S
H1984 C1998 0.930 . S
H1985 C2000 0.960 . S
H1986 C2000 0.960 . S
H1987 C2000 0.960 . S
C1988 H1980 0.929 . S
C1988 C1989 1.377 . S
C1988 C1990 1.384 . S
C1989 C1988 1.377 . S
C1989 C1995 1.390 . S
C1990 H1981 0.930 . S
C1990 C1988 1.384 . S
C1990 C1991 1.372 . S
C1991 C1990 1.372 . S
C1991 C1992 1.400 . S
C1991 C1996 1.490 . S
C1992 H1982 0.930 . S
C1992 C1991 1.400 . S
C1992 C1995 1.386 . S
H1993 C2009 0.930 . S
H1994 C2010 0.931 . S
C1995 H1983 0.929 . S
C1995 C1989 1.390 . S
C1995 C1992 1.386 . S
C1996 C1991 1.490 . S
C1996 C1998 1.395 . S
C1996 C1999 1.403 . S
H1997 C2003 0.930 . S
C1998 H1984 0.930 . S
C1998 C1996 1.395 . S
C1998 C2001 1.403 . S
C1999 C1996 1.403 . S
C1999 C2000 1.524 . S
C1999 C2003 1.400 . S
C2000 H1985 0.960 . S
C2000 H1986 0.960 . S
C2000 H1987 0.960 . S
C2000 C1999 1.524 . S
C2001 C1998 1.403 . S
C2001 C2002 1.392 . S
C2001 C2005 1.495 . S
C2002 C2001 1.392 . S
C2002 C2003 1.385 . S
C2002 C2004 1.478 . S
C2003 H1997 0.930 . S
C2003 C1999 1.400 . S
C2003 C2002 1.385 . S
C2004 C2002 1.478 . S
C2004 C2006 1.381 . S
C2004 C2010 1.383 . S
C2005 C2001 1.495 . S
C2005 H2011 0.959 . S
C2005 H2012 0.961 . S
C2005 H2013 0.960 . S
C2006 C2004 1.381 . S
C2006 C2007 1.394 . S
C2006 H2014 0.930 . S
C2007 C2006 1.394 . S
C2007 C2008 1.383 . S
C2007 H2015 0.929 . S
C2008 C2007 1.383 . S
C2008 C2009 1.377 . S
C2009 H1993 0.930 . S
C2009 C2008 1.377 . S
C2009 C2010 1.379 . S
C2010 H1994 0.931 . S
C2010 C2004 1.383 . S
C2010 C2009 1.379 . S
H2011 C2005 0.959 . S
H2012 C2005 0.961 . S
H2013 C2005 0.960 . S
H2014 C2006 0.930 . S
H2015 C2007 0.929 . S
H2016 C2024 0.929 . S
H2017 C2026 0.930 . S
H2018 C2028 0.930 . S
H2019 C2031 0.929 . S
H2020 C2034 0.930 . S
H2021 C2036 0.960 . S
H2022 C2036 0.960 . S
H2023 C2036 0.960 . S
C2024 H2016 0.929 . S
C2024 C2025 1.377 . S
C2024 C2026 1.384 . S
C2025 C2024 1.377 . S
C2025 C2031 1.390 . S
C2026 H2017 0.930 . S
C2026 C2024 1.384 . S
C2026 C2027 1.372 . S
C2027 C2026 1.372 . S
C2027 C2028 1.400 . S
C2027 C2032 1.490 . S
C2028 H2018 0.930 . S
C2028 C2027 1.400 . S
C2028 C2031 1.386 . S
H2029 C2045 0.930 . S
H2030 C2046 0.931 . S
C2031 H2019 0.929 . S
C2031 C2025 1.390 . S
C2031 C2028 1.386 . S
C2032 C2027 1.490 . S
C2032 C2034 1.395 . S
C2032 C2035 1.403 . S
H2033 C2039 0.930 . S
C2034 H2020 0.930 . S
C2034 C2032 1.395 . S
C2034 C2037 1.403 . S
C2035 C2032 1.403 . S
C2035 C2036 1.524 . S
C2035 C2039 1.400 . S
C2036 H2021 0.960 . S
C2036 H2022 0.960 . S
C2036 H2023 0.960 . S
C2036 C2035 1.524 . S
C2037 C2034 1.403 . S
C2037 C2038 1.392 . S
C2037 C2041 1.495 . S
C2038 C2037 1.392 . S
C2038 C2039 1.385 . S
C2038 C2040 1.478 . S
C2039 H2033 0.930 . S
C2039 C2035 1.400 . S
C2039 C2038 1.385 . S
C2040 C2038 1.478 . S
C2040 C2042 1.381 . S
C2040 C2046 1.383 . S
C2041 C2037 1.495 . S
C2041 H2047 0.959 . S
C2041 H2048 0.961 . S
C2041 H2049 0.960 . S
C2042 C2040 1.381 . S
C2042 C2043 1.394 . S
C2042 H2050 0.930 . S
C2043 C2042 1.394 . S
C2043 C2044 1.383 . S
C2043 H2051 0.929 . S
C2044 C2043 1.383 . S
C2044 C2045 1.377 . S
C2045 H2029 0.930 . S
C2045 C2044 1.377 . S
C2045 C2046 1.379 . S
C2046 H2030 0.931 . S
C2046 C2040 1.383 . S
C2046 C2045 1.379 . S
H2047 C2041 0.959 . S
H2048 C2041 0.961 . S
H2049 C2041 0.960 . S
H2050 C2042 0.930 . S
H2051 C2043 0.929 . S
H2052 C2060 0.929 . S
H2053 C2062 0.930 . S
H2054 C2064 0.930 . S
H2055 C2067 0.929 . S
H2056 C2070 0.930 . S
H2057 C2072 0.960 . S
H2058 C2072 0.960 . S
H2059 C2072 0.960 . S
C2060 H2052 0.929 . S
C2060 C2061 1.377 . S
C2060 C2062 1.384 . S
C2061 C2060 1.377 . S
C2061 C2067 1.390 . S
C2062 H2053 0.930 . S
C2062 C2060 1.384 . S
C2062 C2063 1.372 . S
C2063 C2062 1.372 . S
C2063 C2064 1.400 . S
C2063 C2068 1.490 . S
C2064 H2054 0.930 . S
C2064 C2063 1.400 . S
C2064 C2067 1.386 . S
H2065 C2081 0.930 . S
H2066 C2082 0.931 . S
C2067 H2055 0.929 . S
C2067 C2061 1.390 . S
C2067 C2064 1.386 . S
C2068 C2063 1.490 . S
C2068 C2070 1.395 . S
C2068 C2071 1.403 . S
H2069 C2075 0.930 . S
C2070 H2056 0.930 . S
C2070 C2068 1.395 . S
C2070 C2073 1.403 . S
C2071 C2068 1.403 . S
C2071 C2072 1.524 . S
C2071 C2075 1.400 . S
C2072 H2057 0.960 . S
C2072 H2058 0.960 . S
C2072 H2059 0.960 . S
C2072 C2071 1.524 . S
C2073 C2070 1.403 . S
C2073 C2074 1.392 . S
C2073 C2077 1.495 . S
C2074 C2073 1.392 . S
C2074 C2075 1.385 . S
C2074 C2076 1.478 . S
C2075 H2069 0.930 . S
C2075 C2071 1.400 . S
C2075 C2074 1.385 . S
C2076 C2074 1.478 . S
C2076 C2078 1.381 . S
C2076 C2082 1.383 . S
C2077 C2073 1.495 . S
C2077 H2083 0.959 . S
C2077 H2084 0.961 . S
C2077 H2085 0.960 . S
C2078 C2076 1.381 . S
C2078 C2079 1.394 . S
C2078 H2086 0.930 . S
C2079 C2078 1.394 . S
C2079 C2080 1.383 . S
C2079 H2087 0.929 . S
C2080 C2079 1.383 . S
C2080 C2081 1.377 . S
C2081 H2065 0.930 . S
C2081 C2080 1.377 . S
C2081 C2082 1.379 . S
C2082 H2066 0.931 . S
C2082 C2076 1.383 . S
C2082 C2081 1.379 . S
H2083 C2077 0.959 . S
H2084 C2077 0.961 . S
H2085 C2077 0.960 . S
H2086 C2078 0.930 . S
H2087 C2079 0.929 . S
H2088 C2096 0.929 . S
H2089 C2098 0.930 . S
H2090 C2100 0.930 . S
H2091 C2103 0.929 . S
H2092 C2106 0.930 . S
H2093 C2108 0.960 . S
H2094 C2108 0.960 . S
H2095 C2108 0.960 . S
C2096 H2088 0.929 . S
C2096 C2097 1.377 . S
C2096 C2098 1.384 . S
C2097 C2096 1.377 . S
C2097 C2103 1.390 . S
C2098 H2089 0.930 . S
C2098 C2096 1.384 . S
C2098 C2099 1.372 . S
C2099 C2098 1.372 . S
C2099 C2100 1.400 . S
C2099 C2104 1.490 . S
C2100 H2090 0.930 . S
C2100 C2099 1.400 . S
C2100 C2103 1.386 . S
H2101 C2117 0.930 . S
H2102 C2118 0.931 . S
C2103 H2091 0.929 . S
C2103 C2097 1.390 . S
C2103 C2100 1.386 . S
C2104 C2099 1.490 . S
C2104 C2106 1.395 . S
C2104 C2107 1.403 . S
H2105 C2111 0.930 . S
C2106 H2092 0.930 . S
C2106 C2104 1.395 . S
C2106 C2109 1.403 . S
C2107 C2104 1.403 . S
C2107 C2108 1.524 . S
C2107 C2111 1.400 . S
C2108 H2093 0.960 . S
C2108 H2094 0.960 . S
C2108 H2095 0.960 . S
C2108 C2107 1.524 . S
C2109 C2106 1.403 . S
C2109 C2110 1.392 . S
C2109 C2113 1.495 . S
C2110 C2109 1.392 . S
C2110 C2111 1.385 . S
C2110 C2112 1.478 . S
C2111 H2105 0.930 . S
C2111 C2107 1.400 . S
C2111 C2110 1.385 . S
C2112 C2110 1.478 . S
C2112 C2114 1.381 . S
C2112 C2118 1.383 . S
C2113 C2109 1.495 . S
C2113 H2119 0.959 . S
C2113 H2120 0.961 . S
C2113 H2121 0.960 . S
C2114 C2112 1.381 . S
C2114 C2115 1.394 . S
C2114 H2122 0.930 . S
C2115 C2114 1.394 . S
C2115 C2116 1.383 . S
C2115 H2123 0.929 . S
C2116 C2115 1.383 . S
C2116 C2117 1.377 . S
C2117 H2101 0.930 . S
C2117 C2116 1.377 . S
C2117 C2118 1.379 . S
C2118 H2102 0.931 . S
C2118 C2112 1.383 . S
C2118 C2117 1.379 . S
H2119 C2113 0.959 . S
H2120 C2113 0.961 . S
H2121 C2113 0.960 . S
H2122 C2114 0.930 . S
H2123 C2115 0.929 . S
H2124 C2132 0.929 . S
H2125 C2134 0.930 . S
H2126 C2136 0.930 . S
H2127 C2139 0.929 . S
H2128 C2142 0.930 . S
H2129 C2144 0.960 . S
H2130 C2144 0.960 . S
H2131 C2144 0.960 . S
C2132 H2124 0.929 . S
C2132 C2133 1.377 . S
C2132 C2134 1.384 . S
C2133 C2132 1.377 . S
C2133 C2139 1.390 . S
C2134 H2125 0.930 . S
C2134 C2132 1.384 . S
C2134 C2135 1.372 . S
C2135 C2134 1.372 . S
C2135 C2136 1.400 . S
C2135 C2140 1.490 . S
C2136 H2126 0.930 . S
C2136 C2135 1.400 . S
C2136 C2139 1.386 . S
H2137 C2153 0.930 . S
H2138 C2154 0.931 . S
C2139 H2127 0.929 . S
C2139 C2133 1.390 . S
C2139 C2136 1.386 . S
C2140 C2135 1.490 . S
C2140 C2142 1.395 . S
C2140 C2143 1.403 . S
H2141 C2147 0.930 . S
C2142 H2128 0.930 . S
C2142 C2140 1.395 . S
C2142 C2145 1.403 . S
C2143 C2140 1.403 . S
C2143 C2144 1.524 . S
C2143 C2147 1.400 . S
C2144 H2129 0.960 . S
C2144 H2130 0.960 . S
C2144 H2131 0.960 . S
C2144 C2143 1.524 . S
C2145 C2142 1.403 . S
C2145 C2146 1.392 . S
C2145 C2149 1.495 . S
C2146 C2145 1.392 . S
C2146 C2147 1.385 . S
C2146 C2148 1.478 . S
C2147 H2141 0.930 . S
C2147 C2143 1.400 . S
C2147 C2146 1.385 . S
C2148 C2146 1.478 . S
C2148 C2150 1.381 . S
C2148 C2154 1.383 . S
C2149 C2145 1.495 . S
C2149 H2155 0.959 . S
C2149 H2156 0.961 . S
C2149 H2157 0.960 . S
C2150 C2148 1.381 . S
C2150 C2151 1.394 . S
C2150 H2158 0.930 . S
C2151 C2150 1.394 . S
C2151 C2152 1.383 . S
C2151 H2159 0.929 . S
C2152 C2151 1.383 . S
C2152 C2153 1.377 . S
C2153 H2137 0.930 . S
C2153 C2152 1.377 . S
C2153 C2154 1.379 . S
C2154 H2138 0.931 . S
C2154 C2148 1.383 . S
C2154 C2153 1.379 . S
H2155 C2149 0.959 . S
H2156 C2149 0.961 . S
H2157 C2149 0.960 . S
H2158 C2150 0.930 . S
H2159 C2151 0.929 . S
H2160 C2168 0.929 . S
H2161 C2170 0.930 . S
H2162 C2172 0.930 . S
H2163 C2175 0.929 . S
H2164 C2178 0.930 . S
H2165 C2180 0.960 . S
H2166 C2180 0.960 . S
H2167 C2180 0.960 . S
C2168 H2160 0.929 . S
C2168 C2169 1.377 . S
C2168 C2170 1.384 . S
C2169 C2168 1.377 . S
C2169 C2175 1.390 . S
C2170 H2161 0.930 . S
C2170 C2168 1.384 . S
C2170 C2171 1.372 . S
C2171 C2170 1.372 . S
C2171 C2172 1.400 . S
C2171 C2176 1.490 . S
C2172 H2162 0.930 . S
C2172 C2171 1.400 . S
C2172 C2175 1.386 . S
H2173 C2189 0.930 . S
H2174 C2190 0.931 . S
C2175 H2163 0.929 . S
C2175 C2169 1.390 . S
C2175 C2172 1.386 . S
C2176 C2171 1.490 . S
C2176 C2178 1.395 . S
C2176 C2179 1.403 . S
H2177 C2183 0.930 . S
C2178 H2164 0.930 . S
C2178 C2176 1.395 . S
C2178 C2181 1.403 . S
C2179 C2176 1.403 . S
C2179 C2180 1.524 . S
C2179 C2183 1.400 . S
C2180 H2165 0.960 . S
C2180 H2166 0.960 . S
C2180 H2167 0.960 . S
C2180 C2179 1.524 . S
C2181 C2178 1.403 . S
C2181 C2182 1.392 . S
C2181 C2185 1.495 . S
C2182 C2181 1.392 . S
C2182 C2183 1.385 . S
C2182 C2184 1.478 . S
C2183 H2177 0.930 . S
C2183 C2179 1.400 . S
C2183 C2182 1.385 . S
C2184 C2182 1.478 . S
C2184 C2186 1.381 . S
C2184 C2190 1.383 . S
C2185 C2181 1.495 . S
C2185 H2191 0.959 . S
C2185 H2192 0.961 . S
C2185 H2193 0.960 . S
C2186 C2184 1.381 . S
C2186 C2187 1.394 . S
C2186 H2194 0.930 . S
C2187 C2186 1.394 . S
C2187 C2188 1.383 . S
C2187 H2195 0.929 . S
C2188 C2187 1.383 . S
C2188 C2189 1.377 . S
C2189 H2173 0.930 . S
C2189 C2188 1.377 . S
C2189 C2190 1.379 . S
C2190 H2174 0.931 . S
C2190 C2184 1.383 . S
C2190 C2189 1.379 . S
H2191 C2185 0.959 . S
H2192 C2185 0.961 . S
H2193 C2185 0.960 . S
H2194 C2186 0.930 . S
H2195 C2187 0.929 . S
H2196 C2204 0.929 . S
H2197 C2206 0.930 . S
H2198 C2208 0.930 . S
H2199 C2211 0.929 . S
H2200 C2214 0.930 . S
H2201 C2216 0.960 . S
H2202 C2216 0.960 . S
H2203 C2216 0.960 . S
C2204 H2196 0.929 . S
C2204 C2205 1.377 . S
C2204 C2206 1.384 . S
C2205 C2204 1.377 . S
C2205 C2211 1.390 . S
C2206 H2197 0.930 . S
C2206 C2204 1.384 . S
C2206 C2207 1.372 . S
C2207 C2206 1.372 . S
C2207 C2208 1.400 . S
C2207 C2212 1.490 . S
C2208 H2198 0.930 . S
C2208 C2207 1.400 . S
C2208 C2211 1.386 . S
H2209 C2225 0.930 . S
H2210 C2226 0.931 . S
C2211 H2199 0.929 . S
C2211 C2205 1.390 . S
C2211 C2208 1.386 . S
C2212 C2207 1.490 . S
C2212 C2214 1.395 . S
C2212 C2215 1.403 . S
H2213 C2219 0.930 . S
C2214 H2200 0.930 . S
C2214 C2212 1.395 . S
C2214 C2217 1.403 . S
C2215 C2212 1.403 . S
C2215 C2216 1.524 . S
C2215 C2219 1.400 . S
C2216 H2201 0.960 . S
C2216 H2202 0.960 . S
C2216 H2203 0.960 . S
C2216 C2215 1.524 . S
C2217 C2214 1.403 . S
C2217 C2218 1.392 . S
C2217 C2221 1.495 . S
C2218 C2217 1.392 . S
C2218 C2219 1.385 . S
C2218 C2220 1.478 . S
C2219 H2213 0.930 . S
C2219 C2215 1.400 . S
C2219 C2218 1.385 . S
C2220 C2218 1.478 . S
C2220 C2222 1.381 . S
C2220 C2226 1.383 . S
C2221 C2217 1.495 . S
C2221 H2227 0.959 . S
C2221 H2228 0.961 . S
C2221 H2229 0.960 . S
C2222 C2220 1.381 . S
C2222 C2223 1.394 . S
C2222 H2230 0.930 . S
C2223 C2222 1.394 . S
C2223 C2224 1.383 . S
C2223 H2231 0.929 . S
C2224 C2223 1.383 . S
C2224 C2225 1.377 . S
C2225 H2209 0.930 . S
C2225 C2224 1.377 . S
C2225 C2226 1.379 . S
C2226 H2210 0.931 . S
C2226 C2220 1.383 . S
C2226 C2225 1.379 . S
H2227 C2221 0.959 . S
H2228 C2221 0.961 . S
H2229 C2221 0.960 . S
H2230 C2222 0.930 . S
H2231 C2223 0.929 . S
C621 C9 0.803 . S
C640 C5 0.769 . S
C657 C43 0.809 . S
C676 C39 0.815 . S
C693 C73 0.811 . S
C712 C77 0.847 . S
C729 C111 0.786 . S
C748 C107 0.835 . S
C765 C145 0.808 . S
C784 C141 0.776 . S
C801 C175 0.810 . S
C820 C179 0.853 . S
C837 C209 0.811 . S
C856 C213 0.847 . S
C873 C243 0.813 . S
C892 C247 0.735 . S
C909 C281 0.810 . S
C928 C277 0.809 . S
C945 C315 0.804 . S
C964 C311 0.769 . S
C981 C349 0.803 . S
C1000 C345 0.836 . S
C1017 C379 0.815 . S
C1036 C383 0.748 . S
C1053 C413 0.808 . S
C1072 C417 0.734 . S
C1089 C447 0.806 . S
C1108 C451 0.860 . S
C1125 C481 0.816 . S
C1144 C485 0.758 . S
C1161 C519 0.784 . S
C1180 C515 0.812 . S
C1197 C553 0.796 . S
C1216 C549 0.772 . S
C1233 C583 0.800 . S
C1252 C587 0.831 . S
C1269 C598 1.844 . S
C1288 C20 1.852 . S
C1305 C54 1.845 . S
C1324 C530 1.842 . S
C1341 C564 1.844 . S
C1360 C88 1.847 . S
C1377 C258 1.848 . S
C1396 C122 1.834 . S
C1413 C156 1.843 . S
C1432 C292 1.852 . S
C1449 C190 1.845 . S
C1468 C224 1.841 . S
C1485 C326 1.847 . S
C1504 C462 1.835 . S
C1521 C496 1.843 . S
C1540 C360 1.853 . S
C1557 C394 1.845 . S
C1576 C428 1.851 . S
C1593 C33 1.155 . S
C1612 C135 1.160 . S
C1629 C67 1.157 . S
C1648 C169 1.164 . S
C1665 C203 1.156 . S
C1684 C101 1.163 . S
C1701 C172 1.728 . S
C1720 C36 1.743 . S
C1737 C104 1.731 . S
C1756 C70 1.712 . S
C1773 C138 1.726 . S
C1792 C2 1.738 . S
C1809 C339 1.156 . S
C1828 C237 1.163 . S
C1845 C373 1.158 . S
C1864 C271 1.159 . S
C1881 C305 1.154 . S
C1900 C407 1.149 . S
C1917 C376 1.727 . S
C1936 C240 1.743 . S
C1953 C274 1.733 . S
C1972 C308 1.726 . S
C1989 C206 1.731 . S
C2008 C342 1.712 . S
C2025 C543 1.153 . S
C2044 C441 1.144 . S
C2061 C577 1.156 . S
C2080 C475 1.162 . S
C2097 C611 1.154 . S
C2116 C509 1.140 . S
C2133 C444 1.728 . S
C2152 C580 1.727 . S
C2169 C478 1.730 . S
C2188 C512 1.739 . S
C2205 C546 1.733 . S
C2224 C410 1.723 . S
