# Generated by pormake.
# Topology crs, (6)-cn, num edge types: 1
# Building blocks:
#     Node 0, Type 0, BuildingBlock: CIFDUS_clean_sbu_1, # of connection points: 6
#     Node 1, Type 0, BuildingBlock: CIFDUS_clean_sbu_1, # of connection points: 6
#     Node 2, Type 0, BuildingBlock: CIFDUS_clean_sbu_1, # of connection points: 6
#     Node 3, Type 0, BuildingBlock: CIFDUS_clean_sbu_1, # of connection points: 6
#     Node 4, Type 0, BuildingBlock: CIFDUS_clean_sbu_1, # of connection points: 6
#     Node 5, Type 0, BuildingBlock: CIFDUS_clean_sbu_1, # of connection points: 6
#     Node 6, Type 0, BuildingBlock: CIFDUS_clean_sbu_1, # of connection points: 6
#     Node 7, Type 0, BuildingBlock: CIFDUS_clean_sbu_1, # of connection points: 6
#     Node 8, Type 0, BuildingBlock: CIFDUS_clean_sbu_1, # of connection points: 6
#     Node 9, Type 0, BuildingBlock: CIFDUS_clean_sbu_1, # of connection points: 6
#     Node 10, Type 0, BuildingBlock: CIFDUS_clean_sbu_1, # of connection points: 6
#     Node 11, Type 0, BuildingBlock: CIFDUS_clean_sbu_1, # of connection points: 6
#     Node 12, Type 0, BuildingBlock: CIFDUS_clean_sbu_1, # of connection points: 6
#     Node 13, Type 0, BuildingBlock: CIFDUS_clean_sbu_1, # of connection points: 6
#     Node 14, Type 0, BuildingBlock: CIFDUS_clean_sbu_1, # of connection points: 6
#     Node 15, Type 0, BuildingBlock: CIFDUS_clean_sbu_1, # of connection points: 6
#     Edge 16, Type (0, 0), BuildingBlock: KIFKEQ_clean_linker_1, # of connection points: 2
#     Edge 17, Type (0, 0), BuildingBlock: KIFKEQ_clean_linker_1, # of connection points: 2
#     Edge 18, Type (0, 0), BuildingBlock: KIFKEQ_clean_linker_1, # of connection points: 2
#     Edge 19, Type (0, 0), BuildingBlock: KIFKEQ_clean_linker_1, # of connection points: 2
#     Edge 20, Type (0, 0), BuildingBlock: KIFKEQ_clean_linker_1, # of connection points: 2
#     Edge 21, Type (0, 0), BuildingBlock: KIFKEQ_clean_linker_1, # of connection points: 2
#     Edge 22, Type (0, 0), BuildingBlock: KIFKEQ_clean_linker_1, # of connection points: 2
#     Edge 23, Type (0, 0), BuildingBlock: KIFKEQ_clean_linker_1, # of connection points: 2
#     Edge 24, Type (0, 0), BuildingBlock: KIFKEQ_clean_linker_1, # of connection points: 2
#     Edge 25, Type (0, 0), BuildingBlock: KIFKEQ_clean_linker_1, # of connection points: 2
#     Edge 26, Type (0, 0), BuildingBlock: KIFKEQ_clean_linker_1, # of connection points: 2
#     Edge 27, Type (0, 0), BuildingBlock: KIFKEQ_clean_linker_1, # of connection points: 2
#     Edge 28, Type (0, 0), BuildingBlock: KIFKEQ_clean_linker_1, # of connection points: 2
#     Edge 29, Type (0, 0), BuildingBlock: KIFKEQ_clean_linker_1, # of connection points: 2
#     Edge 30, Type (0, 0), BuildingBlock: KIFKEQ_clean_linker_1, # of connection points: 2
#     Edge 31, Type (0, 0), BuildingBlock: KIFKEQ_clean_linker_1, # of connection points: 2
#     Edge 32, Type (0, 0), BuildingBlock: KIFKEQ_clean_linker_1, # of connection points: 2
#     Edge 33, Type (0, 0), BuildingBlock: KIFKEQ_clean_linker_1, # of connection points: 2
#     Edge 34, Type (0, 0), BuildingBlock: KIFKEQ_clean_linker_1, # of connection points: 2
#     Edge 35, Type (0, 0), BuildingBlock: KIFKEQ_clean_linker_1, # of connection points: 2
#     Edge 36, Type (0, 0), BuildingBlock: KIFKEQ_clean_linker_1, # of connection points: 2
#     Edge 37, Type (0, 0), BuildingBlock: KIFKEQ_clean_linker_1, # of connection points: 2
#     Edge 38, Type (0, 0), BuildingBlock: KIFKEQ_clean_linker_1, # of connection points: 2
#     Edge 39, Type (0, 0), BuildingBlock: KIFKEQ_clean_linker_1, # of connection points: 2
#     Edge 40, Type (0, 0), BuildingBlock: KIFKEQ_clean_linker_1, # of connection points: 2
#     Edge 41, Type (0, 0), BuildingBlock: KIFKEQ_clean_linker_1, # of connection points: 2
#     Edge 42, Type (0, 0), BuildingBlock: KIFKEQ_clean_linker_1, # of connection points: 2
#     Edge 43, Type (0, 0), BuildingBlock: KIFKEQ_clean_linker_1, # of connection points: 2
#     Edge 44, Type (0, 0), BuildingBlock: KIFKEQ_clean_linker_1, # of connection points: 2
#     Edge 45, Type (0, 0), BuildingBlock: KIFKEQ_clean_linker_1, # of connection points: 2
#     Edge 46, Type (0, 0), BuildingBlock: KIFKEQ_clean_linker_1, # of connection points: 2
#     Edge 47, Type (0, 0), BuildingBlock: KIFKEQ_clean_linker_1, # of connection points: 2
#     Edge 48, Type (0, 0), BuildingBlock: KIFKEQ_clean_linker_1, # of connection points: 2
#     Edge 49, Type (0, 0), BuildingBlock: KIFKEQ_clean_linker_1, # of connection points: 2
#     Edge 50, Type (0, 0), BuildingBlock: KIFKEQ_clean_linker_1, # of connection points: 2
#     Edge 51, Type (0, 0), BuildingBlock: KIFKEQ_clean_linker_1, # of connection points: 2
#     Edge 52, Type (0, 0), BuildingBlock: KIFKEQ_clean_linker_1, # of connection points: 2
#     Edge 53, Type (0, 0), BuildingBlock: KIFKEQ_clean_linker_1, # of connection points: 2
#     Edge 54, Type (0, 0), BuildingBlock: KIFKEQ_clean_linker_1, # of connection points: 2
#     Edge 55, Type (0, 0), BuildingBlock: KIFKEQ_clean_linker_1, # of connection points: 2
#     Edge 56, Type (0, 0), BuildingBlock: KIFKEQ_clean_linker_1, # of connection points: 2
#     Edge 57, Type (0, 0), BuildingBlock: KIFKEQ_clean_linker_1, # of connection points: 2
#     Edge 58, Type (0, 0), BuildingBlock: KIFKEQ_clean_linker_1, # of connection points: 2
#     Edge 59, Type (0, 0), BuildingBlock: KIFKEQ_clean_linker_1, # of connection points: 2
#     Edge 60, Type (0, 0), BuildingBlock: KIFKEQ_clean_linker_1, # of connection points: 2
#     Edge 61, Type (0, 0), BuildingBlock: KIFKEQ_clean_linker_1, # of connection points: 2
#     Edge 62, Type (0, 0), BuildingBlock: KIFKEQ_clean_linker_1, # of connection points: 2
#     Edge 63, Type (0, 0), BuildingBlock: KIFKEQ_clean_linker_1, # of connection points: 2
# Relax obj value: 0.275
# Max RMSD: 0.232
# Mean RMSD: 0.228
data_MOF--net-crs--node1-CIFDUS_clean_sbu_1--edge1-KIFKEQ_clean_linker_1
_symmetry_space_group_name_H-M    P1
_symmetry_Int_Tables_number       1
_symmetry_cell_setting            triclinic
loop_
_symmetry_equiv_pos_as_xyz
'x, y, z'
_cell_length_a     41.404131
_cell_length_b     41.777378
_cell_length_c     42.169405
_cell_angle_alpha  90.733729
_cell_angle_beta   89.104705
_cell_angle_gamma 88.277132
loop_
_atom_site_label
_atom_site_type_symbol
_atom_site_fract_x
_atom_site_fract_y
_atom_site_fract_z
_atom_type_partial_charge
O0 O 0.95105 0.01327 0.98707 0.0
Mn1 Mn 0.99309 0.99939 0.00979 0.0
O2 O 0.91006 0.01167 0.02254 0.0
Mn3 Mn 0.93331 0.98948 0.05292 0.0
O4 O 0.03471 0.98495 0.03333 0.0
O5 O 0.01445 0.99447 0.96593 0.0
Mn6 Mn 0.05416 0.00862 0.96998 0.0
O7 O 0.00608 0.0476 0.01219 0.0
O8 O 0.07573 0.98256 0.99819 0.0
O9 O 0.97941 0.95086 0.00765 0.0
O10 O 0.94029 0.94629 0.04493 0.0
O11 O 0.05153 0.99703 0.92837 0.0
O12 O 0.05034 0.05154 0.98098 0.0
C13 C 0.96681 0.0132 0.08252 0.0
C14 C 0.92124 0.0179 0.99501 0.0
C15 C 0.06398 0.97729 0.02558 0.0
C16 C 0.02231 0.98969 0.93617 0.0
C17 C 0.02856 0.06386 -0.00064 0.0
C18 C 0.95966 0.93399 0.02403 0.0
O19 O 0.97201 0.00564 0.05298 0.0
O20 O 0.93873 0.00541 0.09332 0.0
O21 O 0.02985 0.26113 0.21177 0.0
Mn22 Mn 0.00626 0.25178 0.25398 0.0
O23 O 0.99426 0.25432 0.17233 0.0
Mn24 Mn 0.95998 0.23948 0.19704 0.0
O25 O 0.98268 0.24261 0.29648 0.0
O26 O 0.0487 0.24434 0.27473 0.0
Mn27 Mn 0.0521 0.26784 0.30936 0.0
O28 O 0.00507 0.30055 0.26667 0.0
O29 O 0.01721 0.25602 0.33513 0.0
O30 O 0.00694 0.20325 0.24015 0.0
O31 O 0.96493 0.19669 0.20743 0.0
O32 O 0.09009 0.24291 0.3049 0.0
O33 O 0.04879 0.30977 0.29573 0.0
C34 C 0.93654 0.2732 0.2304 0.0
C35 C 0.02243 0.26088 0.1823 0.0
C36 C 0.98963 0.24669 0.32587 0.0
C37 C 0.07658 0.23136 0.28 0.0
C38 C 0.02415 0.31969 0.2806 0.0
C39 C 0.9888 0.18559 0.22311 0.0
O40 O 0.9641 0.25913 0.23357 0.0
O41 O 0.9222 0.26439 0.20489 0.0
O42 O 0.77442 0.23897 0.57341 0.0
Mn43 Mn 0.77817 0.25871 0.52807 0.0
O44 O 0.79151 0.1876 0.56938 0.0
Mn45 Mn 0.786 0.18504 0.52603 0.0
O46 O 0.78131 0.27961 0.48328 0.0
O47 O 0.75399 0.29784 0.54611 0.0
Mn48 Mn 0.77596 0.33193 0.536 0.0
O49 O 0.82294 0.27637 0.54082 0.0
O50 O 0.77819 0.333 0.49211 0.0
O51 O 0.73438 0.23948 0.51472 0.0
O52 O 0.74406 0.18596 0.51147 0.0
O53 O 0.74044 0.34717 0.55863 0.0
O54 O 0.81495 0.32755 0.55624 0.0
C55 C 0.82203 0.2013 0.49349 0.0
C56 C 0.7829 0.21221 0.58586 0.0
C57 C 0.78089 0.30867 0.47358 0.0
C58 C 0.73382 0.31719 0.56112 0.0
C59 C 0.83268 0.30226 0.55364 0.0
C60 C 0.72583 0.21084 0.50814 0.0
O61 O 0.80254 0.21982 0.51016 0.0
O62 O 0.8189 0.17112 0.49898 0.0
O63 O 0.73721 0.95427 0.76066 0.0
Mn64 Mn 0.74006 0.00446 0.75729 0.0
O65 O 0.69658 0.94437 0.79454 0.0
Mn66 Mn 0.69394 0.98554 0.8105 0.0
O67 O 0.74396 0.05457 0.75346 0.0
O68 O 0.78345 0.99624 0.7371 0.0
Mn69 Mn 0.79207 0.02407 0.70779 0.0
O70 O 0.71903 0.00386 0.71308 0.0
O71 O 0.79206 0.06243 0.72999 0.0
O72 O 0.76239 0.00704 0.80064 0.0
O73 O 0.72578 0.99704 0.83865 0.0
O74 O 0.82719 0.99513 0.7088 0.0
O75 O 0.75796 0.02071 0.67943 0.0
C76 C 0.66668 0.02166 0.78695 0.0
C77 C 0.71824 0.93493 0.77463 0.0
C78 C 0.76689 0.07297 0.7449 0.0
C79 C 0.8107 0.98176 0.73098 0.0
C80 C 0.72891 0.01254 0.6855 0.0
C81 C 0.75396 0.00502 0.82984 0.0
O82 O 0.69565 0.01205 0.77801 0.0
O83 O 0.65506 0.007 0.8113 0.0
O84 O 0.5393 0.77183 0.20903 0.0
Mn85 Mn 0.51322 0.76046 0.24954 0.0
O86 O 0.50452 0.77803 0.16897 0.0
Mn87 Mn 0.47121 0.7566 0.1887 0.0
O88 O 0.48781 0.75023 0.29088 0.0
O89 O 0.55481 0.75016 0.27101 0.0
Mn90 Mn 0.55823 0.77249 0.30635 0.0
O91 O 0.51357 0.80847 0.26422 0.0
O92 O 0.52213 0.76103 0.33058 0.0
O93 O 0.51249 0.7129 0.23334 0.0
O94 O 0.47965 0.71296 0.19091 0.0
O95 O 0.59519 0.74605 0.30229 0.0
O96 O 0.55723 0.81499 0.29407 0.0
C97 C 0.44287 0.78157 0.22537 0.0
C98 C 0.53286 0.77945 0.18038 0.0
C99 C 0.49437 0.753 0.32053 0.0
C100 C 0.58187 0.73565 0.27679 0.0
C101 C 0.53343 0.82637 0.27865 0.0
C102 C 0.49904 0.69885 0.20984 0.0
O103 O 0.47173 0.77013 0.2282 0.0
O104 O 0.43089 0.776 0.19779 0.0
O105 O 0.2642 0.74299 0.55259 0.0
Mn106 Mn 0.26147 0.75533 0.50473 0.0
O107 O 0.28786 0.69383 0.5537 0.0
Mn108 Mn 0.28462 0.68506 0.51083 0.0
O109 O 0.25883 0.76781 0.45704 0.0
O110 O 0.2288 0.78986 0.51777 0.0
Mn111 Mn 0.23638 0.82543 0.49746 0.0
O112 O 0.29914 0.78634 0.51148 0.0
O113 O 0.23237 0.81554 0.4548 0.0
O114 O 0.22348 0.72473 0.49755 0.0
O115 O 0.24424 0.67447 0.49648 0.0
O116 O 0.20153 0.83461 0.52417 0.0
O117 O 0.27721 0.8364 0.51024 0.0
C118 C 0.31934 0.70522 0.47941 0.0
C119 C 0.2768 0.71924 0.56751 0.0
C120 C 0.2454 0.79069 0.44157 0.0
C121 C 0.2059 0.80531 0.53313 0.0
C122 C 0.301 0.81685 0.5143 0.0
C123 C 0.22067 0.69448 0.49345 0.0
O124 O 0.29457 0.72083 0.49169 0.0
O125 O 0.32142 0.6754 0.48735 0.0
O126 O 0.24715 0.47386 0.76979 0.0
Mn127 Mn 0.25405 0.52213 0.75829 0.0
O128 O 0.20243 0.47238 0.80076 0.0
Mn129 Mn 0.20184 0.51538 0.8118 0.0
O130 O 0.26083 0.57013 0.74696 0.0
O131 O 0.29733 0.50911 0.73984 0.0
Mn132 Mn 0.30673 0.53152 0.70609 0.0
O133 O 0.23335 0.51621 0.71468 0.0
O134 O 0.3082 0.57332 0.7209 0.0
O135 O 0.27475 0.52933 0.80185 0.0
O136 O 0.23486 0.52739 0.8388 0.0
O137 O 0.34055 0.50186 0.7111 0.0
O138 O 0.27278 0.5244 0.67825 0.0
C139 C 0.18358 0.55079 0.77926 0.0
C140 C 0.22554 0.45841 0.78516 0.0
C141 C 0.28358 0.58646 0.73471 0.0
C142 C 0.32371 0.49257 0.73517 0.0
C143 C 0.24333 0.5193 0.68596 0.0
C144 C 0.26439 0.5314 0.83066 0.0
O145 O 0.21065 0.53506 0.77636 0.0
O146 O 0.16666 0.54268 0.80373 0.0
O147 O 0.02125 0.51605 0.55455 0.0
Mn148 Mn 0.01768 0.50166 0.50632 0.0
O149 O 0.9731 0.53913 0.56833 0.0
Mn150 Mn 0.96547 0.55359 0.5279 0.0
O151 O 0.01389 0.48742 0.45827 0.0
O152 O 0.06319 0.48535 0.50697 0.0
Mn153 Mn 0.06941 0.44816 0.48777 0.0
O154 O 0.00245 0.45739 0.52086 0.0
O155 O 0.058 0.45628 0.44645 0.0
O156 O 0.03274 0.54574 0.49239 0.0
O157 O 0.99604 0.58205 0.51238 0.0
O158 O 0.10903 0.45981 0.50391 0.0
O159 O 0.04255 0.42091 0.50999 0.0
C160 C 0.9459 0.52324 0.49129 0.0
C161 C 0.00066 0.52717 0.57558 0.0
C162 C 0.03238 0.47158 0.43834 0.0
C163 C 0.09293 0.48464 0.51483 0.0
C164 C 0.01476 0.4288 0.52181 0.0
C165 C 0.02231 0.57463 0.4972 0.0
O166 O 0.97248 0.51827 0.50565 0.0
O167 O 0.92894 0.54685 0.50358 0.0
O168 O 0.24328 0.22086 0.03487 0.0
Mn169 Mn 0.24147 0.24819 0.99392 0.0
O170 O 0.23913 0.16923 0.01908 0.0
Mn171 Mn 0.23301 0.17607 0.97594 0.0
O172 O 0.24026 0.27549 0.95266 0.0
O173 O 0.2276 0.28655 0.01955 0.0
Mn174 Mn 0.25087 0.32005 0.01234 0.0
O175 O 0.29018 0.25913 -0.00057 0.0
O176 O 0.248 0.32648 0.96891 0.0
O177 O 0.19243 0.23721 0.9892 0.0
O178 O 0.19119 0.18845 0.9659 0.0
O179 O 0.21751 0.33312 0.04027 0.0
O180 O 0.29166 0.30677 0.02485 0.0
C181 C 0.27236 0.19357 0.94745 0.0
C182 C 0.24193 0.19077 0.04069 0.0
C183 C 0.24424 0.30538 0.94713 0.0
C184 C 0.20881 0.30376 0.03768 0.0
C185 C 0.30545 0.28119 0.01387 0.0
C186 C 0.17711 0.21405 0.9765 0.0
O187 O 0.25556 0.2099 0.9681 0.0
O188 O 0.26351 0.1643 0.94452 0.0
O189 O 0.24791 0.94808 0.26795 0.0
Mn190 Mn 0.25222 0.99581 0.25333 0.0
O191 O 0.2024 0.94644 0.29748 0.0
Mn192 Mn 0.20436 0.98874 0.31021 0.0
O193 O 0.25602 0.04316 0.23773 0.0
O194 O 0.2943 0.98345 0.23266 0.0
Mn195 Mn 0.29975 0.00072 0.1954 0.0
O196 O 0.22838 0.98459 0.21229 0.0
O197 O 0.29864 0.04429 0.20397 0.0
O198 O 0.27623 0.00597 0.29455 0.0
O199 O 0.24061 0.99764 0.33452 0.0
O200 O 0.33555 0.97374 0.20214 0.0
O201 O 0.26499 0.98612 0.17213 0.0
C202 C 0.1844 0.02573 0.28022 0.0
C203 C 0.22583 0.93246 0.28242 0.0
C204 C 0.27572 0.05832 0.21981 0.0
C205 C 0.32083 0.96727 0.22842 0.0
C206 C 0.23656 0.98103 0.18295 0.0
C207 C 0.26894 0.00401 0.32414 0.0
O208 O 0.21041 0.00898 0.27449 0.0
O209 O 0.16976 0.01787 0.30613 0.0
O210 O 0.53484 0.27549 0.72148 0.0
Mn211 Mn 0.50225 0.26389 0.75722 0.0
O212 O 0.50733 0.27491 0.67562 0.0
Mn213 Mn 0.46727 0.2632 0.69219 0.0
O214 O 0.46991 0.25202 0.79277 0.0
O215 O 0.53913 0.24865 0.78369 0.0
Mn216 Mn 0.53719 0.26473 0.82233 0.0
O217 O 0.50342 0.31014 0.77726 0.0
O218 O 0.49774 0.25095 0.83844 0.0
O219 O 0.5002 0.2176 0.73737 0.0
O220 O 0.46411 0.21964 0.698 0.0
O221 O 0.57344 0.23729 0.82005 0.0
O222 O 0.53882 0.30855 0.81721 0.0
C223 C 0.44001 0.29554 0.72375 0.0
C224 C 0.53346 0.27787 0.69113 0.0
C225 C 0.47167 0.24791 0.82285 0.0
C226 C 0.56407 0.23161 0.79149 0.0
C227 C 0.51954 0.32382 0.79918 0.0
C228 C 0.48287 0.20404 0.71627 0.0
O229 O 0.46566 0.27935 0.73085 0.0
O230 O 0.43103 0.29076 0.6949 0.0
O231 O 0.02872 0.76839 0.71625 0.0
Mn232 Mn 0.99795 0.7585 0.75408 0.0
O233 O 0.00028 0.75902 0.67193 0.0
Mn234 Mn 0.96144 0.7471 0.69103 0.0
O235 O 0.96636 0.74745 0.79095 0.0
O236 O 0.03722 0.75033 0.78099 0.0
Mn237 Mn 0.02936 0.76641 0.81937 0.0
O238 O 0.9953 0.80683 0.76882 0.0
O239 O 0.9948 0.74464 0.83576 0.0
O240 O -0.00057 0.7096 0.73978 0.0
O241 O 0.96134 0.70463 0.70268 0.0
O242 O 0.07063 0.74939 0.82028 0.0
O243 O 0.02186 0.80985 0.81497 0.0
C244 C 0.93311 0.78186 0.71907 0.0
C245 C 0.02646 0.7661 0.68589 0.0
C246 C 0.9688 0.74116 0.82053 0.0
C247 C 0.06553 0.74159 0.79099 0.0
C248 C 0.0056 0.82262 0.79285 0.0
C249 C 0.98201 0.69238 0.72145 0.0
O250 O 0.95973 0.76799 0.72731 0.0
O251 O 0.92368 0.77272 0.69143 0.0
O252 O 0.7627 0.46668 0.28327 0.0
Mn253 Mn 0.76723 0.50996 0.25918 0.0
O254 O 0.73884 0.47819 0.33046 0.0
Mn255 Mn 0.74264 0.52211 0.32739 0.0
O256 O 0.77315 0.55319 0.23446 0.0
O257 O 0.8 0.48777 0.23104 0.0
Mn258 Mn 0.79516 0.4961 0.19087 0.0
O259 O 0.73031 0.49711 0.2294 0.0
O260 O 0.80034 0.53991 0.18912 0.0
O261 O 0.80488 0.52125 0.28877 0.0
O262 O 0.78347 0.53694 0.33587 0.0
O263 O 0.82965 0.46665 0.19359 0.0
O264 O 0.75403 0.48148 0.1829 0.0
C265 C 0.70878 0.54858 0.29951 0.0
C266 C 0.75055 0.45819 0.31 0.0
C267 C 0.78797 0.56076 0.20854 0.0
C268 C 0.82301 0.46771 0.22362 0.0
C269 C 0.72942 0.48471 0.20147 0.0
C270 C 0.80761 0.53188 0.31717 0.0
O271 O 0.73348 0.53223 0.28784 0.0
O272 O 0.70636 0.54819 0.33017 0.0
O273 O 0.74875 0.73265 0.03219 0.0
Mn274 Mn 0.74122 0.74831 0.98582 0.0
O275 O 0.74526 0.67867 0.0296 0.0
Mn276 Mn 0.73783 0.6738 0.98643 0.0
O277 O 0.7334 0.76335 0.939 0.0
O278 O 0.72558 0.79091 0.00286 0.0
Mn279 Mn 0.73972 0.82299 0.98074 0.0
O280 O 0.78873 0.76478 0.98402 0.0
O281 O 0.72258 0.81656 0.94102 0.0
O282 O 0.69344 0.73214 0.98842 0.0
O283 O 0.69522 0.67977 0.97518 0.0
O284 O 0.71518 0.84072 0.01427 0.0
O285 O 0.78437 0.8188 0.98176 0.0
C286 C 0.7758 0.68562 0.95334 0.0
C287 C 0.749 0.70483 0.04501 0.0
C288 C 0.72467 0.78988 0.92599 0.0
C289 C 0.71073 0.81118 0.02148 0.0
C290 C 0.80113 0.79265 0.9822 0.0
C291 C 0.67955 0.70583 0.9814 0.0
O292 O 0.75744 0.70584 0.96888 0.0
O293 O 0.76918 0.65614 0.95888 0.0
O294 O 0.5112 0.03358 0.53902 0.0
Mn295 Mn 0.51084 0.02206 0.49052 0.0
O296 O 0.47276 0.07177 0.54856 0.0
Mn297 Mn 0.46817 0.08258 0.50655 0.0
O298 O 0.51097 0.00972 0.44168 0.0
O299 O 0.55297 0.99821 0.49661 0.0
Mn300 Mn 0.55426 0.96113 0.4766 0.0
O301 O 0.48594 0.98111 0.50066 0.0
O302 O 0.55018 0.97149 0.43454 0.0
O303 O 0.53588 0.06332 0.48063 0.0
O304 O 0.5016 0.10558 0.48921 0.0
O305 O 0.59338 0.96409 0.49683 0.0
O306 O 0.52041 0.93866 0.49415 0.0
C307 C 0.43919 0.05352 0.47725 0.0
C308 C 0.49395 0.05154 0.558 0.0
C309 C 0.52895 0.991 0.42377 0.0
C310 C 0.58134 0.99127 0.5071 0.0
C311 C 0.49273 0.95095 0.5019 0.0
C312 C 0.52919 0.09361 0.48077 0.0
O313 O 0.46838 0.04604 0.48529 0.0
O314 O 0.42823 0.08088 0.48822 0.0
O315 O 0.4527 0.50738 -0.00091 0.0
Mn316 Mn 0.49081 0.49307 0.0277 0.0
O317 O 0.40771 0.50923 0.02979 0.0
Mn318 Mn 0.42544 0.48687 0.06325 0.0
O319 O 0.52822 0.47852 0.05723 0.0
O320 O 0.51767 0.48547 0.98745 0.0
Mn321 Mn 0.55739 0.49709 0.99595 0.0
O322 O 0.5053 0.54081 0.02929 0.0
O323 O 0.57281 0.47071 0.02733 0.0
O324 O 0.47623 0.44508 0.02589 0.0
O325 O 0.43191 0.44329 0.0575 0.0
O326 O 0.55891 0.4844 0.95432 0.0
O327 O 0.55472 0.54033 0.006 0.0
C328 C 0.45587 0.51071 0.09614 0.0
C329 C 0.42254 0.51423 0.00367 0.0
C330 C 0.55751 0.46829 0.0535 0.0
C331 C 0.52848 0.47934 0.95886 0.0
C332 C 0.53089 0.55487 0.01991 0.0
C333 C 0.45399 0.4296 0.0403 0.0
O334 O 0.46443 0.5016 0.06771 0.0
O335 O 0.4263 0.50437 0.1035 0.0
H336 H 0.98114 0.99697 0.14213 0.0
H337 H 0.00018 0.06786 0.07141 0.0
H338 H -0.00087 0.03328 0.18352 0.0
H339 H 0.01847 0.10434 0.11287 0.0
H340 H 0.95443 0.13172 0.22852 0.0
H341 H 0.96328 0.08305 0.19667 0.0
H342 H 0.05419 0.11823 0.16234 0.0
H343 H 0.04561 0.16671 0.19524 0.0
C344 C 0.99066 0.0198 0.13528 0.0
C345 C 0.9892 0.02969 0.10361 0.0
C346 C 0.00083 0.04061 0.15901 0.0
C347 C 0.00966 0.0718 0.15153 0.0
C348 C 0.01195 0.08034 0.11935 0.0
C349 C 0.00167 0.05939 0.09549 0.0
C350 C 0.97709 0.12821 0.21557 0.0
C351 C -0.00049 0.15264 0.21467 0.0
C352 C 0.98216 0.10044 0.19714 0.0
C353 C 0.00936 0.09696 0.17678 0.0
C354 C 0.03305 0.12032 0.17776 0.0
C355 C 0.02832 0.14781 0.19689 0.0
H356 H 0.84461 0.26191 0.48134 0.0
H357 H 0.85015 0.1636 0.44819 0.0
H358 H 0.88418 0.27598 0.43994 0.0
H359 H 0.88861 0.17758 0.40725 0.0
H360 H 0.93142 0.2185 0.31799 0.0
H361 H 0.88865 0.21191 0.35756 0.0
H362 H 0.94575 0.25905 0.42791 0.0
H363 H 0.98882 0.26567 0.38842 0.0
C364 C 0.85406 0.24346 0.46525 0.0
C365 C 0.84448 0.21165 0.46825 0.0
C366 C 0.87668 0.25144 0.44165 0.0
C367 C 0.88931 0.22782 0.42035 0.0
C368 C 0.87906 0.19633 0.42307 0.0
C369 C 0.85713 0.18833 0.44675 0.0
C370 C 0.93497 0.22747 0.34186 0.0
C371 C 0.96384 0.24213 0.3501 0.0
C372 C 0.91039 0.22381 0.36447 0.0
C373 C 0.91391 0.23504 0.39575 0.0
C374 C 0.94231 0.25047 0.40388 0.0
C375 C 0.96712 0.25382 0.38134 0.0
H376 H 0.80815 0.11975 0.76099 0.0
H377 H 0.71462 0.10406 0.72145 0.0
H378 H 0.81064 0.17048 0.73313 0.0
H379 H 0.71678 0.15424 0.69383 0.0
H380 H 0.73364 0.23086 0.62675 0.0
H381 H 0.72556 0.21117 0.68088 0.0
H382 H 0.82024 0.16464 0.67593 0.0
H383 H 0.82779 0.18385 0.62244 0.0
C384 C 0.7872 0.12812 0.74804 0.0
C385 C 0.76114 0.1079 0.74337 0.0
C386 C 0.78871 0.15705 0.73185 0.0
C387 C 0.7644 0.16587 0.71042 0.0
C388 C 0.73598 0.14828 0.71009 0.0
C389 C 0.73446 0.11942 0.72637 0.0
C390 C 0.75306 0.21743 0.63788 0.0
C391 C 0.78117 0.20844 0.6205 0.0
C392 C 0.74844 0.20611 0.66877 0.0
C393 C 0.77215 0.18619 0.68276 0.0
C394 C 0.80157 0.18021 0.66626 0.0
C395 C 0.80587 0.19095 0.6354 0.0
H396 H 0.85905 0.04068 0.00287 0.0
H397 H 0.93085 0.014 0.93097 0.0
H398 H 0.81792 0.04424 0.9623 0.0
H399 H 0.88966 0.01643 0.89075 0.0
H400 H 0.81102 0.03499 0.82118 0.0
H401 H 0.85118 0.04671 0.86085 0.0
H402 H 0.79161 0.00344 0.93266 0.0
H403 H 0.75097 0.99269 0.89326 0.0
C404 C 0.86614 0.03606 0.97836 0.0
C405 C 0.89806 0.02662 0.97017 0.0
C406 C 0.84255 0.03787 0.95517 0.0
C407 C 0.85039 0.02998 0.92343 0.0
C408 C 0.8828 0.02286 0.91494 0.0
C409 C 0.90646 0.02138 0.93807 0.0
C410 C 0.80642 0.02811 0.84549 0.0
C411 C 0.77792 0.01267 0.85408 0.0
C412 C 0.82946 0.03484 0.86819 0.0
C413 C 0.82461 0.02603 0.89989 0.0
C414 C 0.79583 0.01112 0.90856 0.0
C415 C 0.77265 0.00465 0.88592 0.0
H416 H 0.05709 0.98575 0.0895 0.0
H417 H 0.1211 0.9439 0.0173 0.0
H418 H 0.09892 0.97841 0.12868 0.0
H419 H 0.16263 0.93528 0.05684 0.0
H420 H 0.23925 0.98338 0.11836 0.0
H421 H 0.19616 0.97314 0.08171 0.0
H422 H 0.1343 0.94585 0.15977 0.0
H423 H 0.17724 0.9572 0.19674 0.0
C424 C 0.07974 0.97398 0.08223 0.0
C425 C 0.08614 0.96599 0.05026 0.0
C426 C 0.10372 0.96963 0.10475 0.0
C427 C 0.13436 0.95681 0.09573 0.0
C428 C 0.13957 0.94601 0.06432 0.0
C429 C 0.11577 0.95079 0.04173 0.0
C430 C 0.21663 0.97481 0.12772 0.0
C431 C 0.21153 0.97155 0.16048 0.0
C432 C 0.19195 0.96862 0.10664 0.0
C433 C 0.16172 0.9587 0.11782 0.0
C434 C 0.15715 0.95391 0.15047 0.0
C435 C 0.18177 0.96039 0.17162 0.0
H436 H 0.07229 0.46782 0.38726 0.0
H437 H 0.97173 0.46373 0.41423 0.0
H438 H 0.06181 0.44142 0.33783 0.0
H439 H 0.95997 0.43945 0.3629 0.0
H440 H 0.97162 0.3388 0.31477 0.0
H441 H 0.96563 0.38875 0.34416 0.0
H442 H 0.04541 0.42657 0.29013 0.0
H443 H 0.05319 0.3748 0.26333 0.0
C444 C 0.04748 0.46255 0.38184 0.0
C445 C 0.02297 0.46725 0.40489 0.0
C446 C 0.04122 0.44746 0.35304 0.0
C447 C 0.01002 0.43692 0.3462 0.0
C448 C 0.98459 0.44587 0.36758 0.0
C449 C 0.99109 0.46053 0.39686 0.0
C450 C 0.98714 0.35827 0.30852 0.0
C451 C 0.01317 0.35294 0.28726 0.0
C452 C 0.98372 0.38723 0.3254 0.0
C453 C 0.00603 0.41172 0.32089 0.0
C454 C 0.02884 0.40786 0.29575 0.0
C455 C 0.03303 0.37839 0.27981 0.0
H456 H 0.70535 0.25813 0.56608 0.0
H457 H 0.70088 0.35492 0.60344 0.0
H458 H 0.65753 0.2457 0.5986 0.0
H459 H 0.65448 0.34233 0.63615 0.0
H460 H 0.59105 0.29923 0.713 0.0
H461 H 0.64163 0.30441 0.68302 0.0
H462 H 0.59608 0.26928 0.59864 0.0
H463 H 0.54533 0.26443 0.62832 0.0
C464 C 0.69431 0.27661 0.58113 0.0
C465 C 0.70653 0.3076 0.58165 0.0
C466 C 0.66709 0.26953 0.59979 0.0
C467 C 0.65241 0.29313 0.61986 0.0
C468 C 0.66543 0.32365 0.6211 0.0
C469 C 0.69194 0.33085 0.60212 0.0
C470 C 0.59177 0.29266 0.68806 0.0
C471 C 0.56399 0.28191 0.67296 0.0
C472 C 0.62074 0.29546 0.67097 0.0
C473 C 0.62272 0.28704 0.6386 0.0
C474 C 0.59526 0.27558 0.62365 0.0
C475 C 0.56612 0.27327 0.64058 0.0
H476 H 0.77374 0.90403 0.79053 0.0
H477 H 0.67651 0.88826 0.76037 0.0
H478 H 0.77537 0.85217 0.81579 0.0
H479 H 0.67811 0.8358 0.78512 0.0
H480 H 0.67287 0.8136 0.89519 0.0
H481 H 0.67373 0.83564 0.84232 0.0
H482 H 0.76996 0.79501 0.82629 0.0
H483 H 0.76871 0.77276 0.87972 0.0
C484 C 0.7536 0.88842 0.78723 0.0
C485 C 0.72497 0.90015 0.77365 0.0
C486 C 0.75436 0.85862 0.80202 0.0
C487 C 0.7264 0.84024 0.80344 0.0
C488 C 0.69974 0.84974 0.78514 0.0
C489 C 0.69892 0.87965 0.77063 0.0
C490 C 0.69349 0.80798 0.87974 0.0
C491 C 0.72066 0.79152 0.89144 0.0
C492 C 0.69407 0.82057 0.84928 0.0
C493 C 0.72215 0.81749 0.83004 0.0
C494 C 0.74808 0.79802 0.84057 0.0
C495 C 0.74725 0.78498 0.87105 0.0
H496 H 0.15066 0.33428 0.0398 0.0
H497 H 0.20156 0.24943 0.07186 0.0
H498 H 0.10365 0.32091 0.07218 0.0
H499 H 0.15453 0.2359 0.10444 0.0
H500 H 0.08732 0.25874 0.1923 0.0
H501 H 0.13069 0.2646 0.15347 0.0
H502 H 0.06057 0.27925 0.07994 0.0
H503 H 0.01677 0.27342 0.11888 0.0
C504 C 0.15141 0.31236 0.05328 0.0
C505 C 0.17939 0.29262 0.05319 0.0
C506 C 0.12454 0.30466 0.07166 0.0
C507 C 0.12553 0.27744 0.09081 0.0
C508 C 0.15325 0.2571 0.08993 0.0
C509 C 0.17996 0.26456 0.07104 0.0
C510 C 0.08101 0.2634 0.16791 0.0
C511 C 0.04852 0.26598 0.15875 0.0
C512 C 0.10592 0.26629 0.14561 0.0
C513 C 0.09893 0.27211 0.11372 0.0
C514 C 0.06653 0.27478 0.10445 0.0
C515 C 0.04153 0.27153 0.12673 0.0
H516 H 0.80481 0.42052 0.30658 0.0
H517 H 0.70571 0.4222 0.33927 0.0
H518 H 0.81548 0.37124 0.33559 0.0
H519 H 0.7164 0.37382 0.36956 0.0
H520 H 0.73934 0.29074 0.42753 0.0
H521 H 0.73292 0.31702 0.37616 0.0
H522 H 0.81932 0.36979 0.39314 0.0
H523 H 0.82538 0.34368 0.44396 0.0
C524 C 0.78489 0.4093 0.3185 0.0
C525 C 0.75431 0.42467 0.32011 0.0
C526 C 0.7911 0.38142 0.33568 0.0
C527 C 0.76688 0.36869 0.35516 0.0
C528 C 0.73554 0.38266 0.35453 0.0
C529 C 0.72939 0.41051 0.33734 0.0
C530 C 0.75763 0.3069 0.41945 0.0
C531 C 0.78278 0.31539 0.4395 0.0
C532 C 0.75385 0.32214 0.39024 0.0
C533 C 0.77537 0.3458 0.38069 0.0
C534 C 0.80242 0.35155 0.39948 0.0
C535 C 0.8059 0.33669 0.4287 0.0
H536 H 0.64239 0.01062 0.50346 0.0
H537 H 0.5594 0.00841 0.56619 0.0
H538 H 0.67658 0.02224 0.54813 0.0
H539 H 0.59304 0.02212 0.61104 0.0
H540 H 0.66993 0.98485 0.68156 0.0
H541 H 0.63119 0.98985 0.63889 0.0
H542 H 0.69429 0.05433 0.59018 0.0
H543 H 0.73352 0.04817 0.63207 0.0
C544 C 0.63123 0.01441 0.52668 0.0
C545 C 0.59821 0.00943 0.53135 0.0
C546 C 0.65079 0.02106 0.55239 0.0
C547 C 0.63768 0.02271 0.58337 0.0
C548 C 0.60402 0.0205 0.58758 0.0
C549 C 0.58448 0.01358 0.56176 0.0
C550 C 0.67551 1.00002 0.66169 0.0
C551 C 0.70511 0.01548 0.65985 0.0
C552 C 0.65309 0.00331 0.63741 0.0
C553 C 0.65959 0.02251 0.61099 0.0
C554 C 0.68872 0.0389 0.60984 0.0
C555 C 0.71129 0.03525 0.63384 0.0
H556 H 0.02089 0.00746 0.875 0.0
H557 H 0.9767 0.94376 0.94082 0.0
H558 H 0.00422 0.97438 0.8307 0.0
H559 H 0.96142 0.90882 0.89649 0.0
H560 H 0.94692 0.8442 0.81412 0.0
H561 H 0.93712 0.89374 0.84505 0.0
H562 H 0.03269 0.92411 0.81894 0.0
H563 H 0.04213 0.87484 0.78856 0.0
C564 C 0.00669 0.98668 0.87993 0.0
C565 C 0.00115 0.97713 0.91134 0.0
C566 C 0.99732 0.9676 0.85452 0.0
C567 C 0.98274 0.93824 0.86001 0.0
C568 C 0.97301 0.9311 0.89132 0.0
C569 C 0.9819 0.95078 0.91683 0.0
C570 C 0.96502 0.8624 0.8137 0.0
C571 C 0.9951 0.8561 0.7986 0.0
C572 C 0.95962 0.8905 0.83179 0.0
C573 C 0.98418 0.91282 0.83482 0.0
C574 C 0.01299 0.90777 0.81693 0.0
C575 C 0.01848 0.87958 0.79927 0.0
H576 H 0.00569 0.1121 0.96312 0.0
H577 H 0.05924 0.09235 0.04775 0.0
H578 H 0.02913 0.16499 0.96024 0.0
H579 H 0.08351 0.1446 0.04466 0.0
H580 H 0.13997 0.22733 0.02908 0.0
H581 H 0.08848 0.20248 0.04076 0.0
H582 H 0.08423 0.17037 0.94309 0.0
H583 H 0.13519 0.19521 0.93185 0.0
C584 C 0.02119 0.11983 0.98204 0.0
C585 C 0.03066 0.09838 0.0057 0.0
C586 C 0.03493 0.14996 0.98023 0.0
C587 C 0.05887 0.15882 0.00172 0.0
C588 C 0.06512 0.13881 0.02772 0.0
C589 C 0.05119 0.10876 0.0296 0.0
C590 C 0.12701 0.21657 0.00982 0.0
C591 C 0.14163 0.21292 0.97965 0.0
C592 C 0.0977 0.20191 0.01657 0.0
C593 C 0.08249 0.1837 0.99309 0.0
C594 C 0.09501 0.18416 0.96186 0.0
C595 C 0.12435 0.19846 0.95528 0.0
H596 H 0.64818 0.56473 0.31877 0.0
H597 H 0.7133 0.57317 0.23894 0.0
H598 H 0.61285 0.60598 0.29771 0.0
H599 H 0.67845 0.61691 0.21818 0.0
H600 H 0.64285 0.72522 0.25427 0.0
H601 H 0.66951 0.67292 0.24504 0.0
H602 H 0.5776 0.62774 0.2554 0.0
H603 H 0.55139 0.67994 0.26578 0.0
C604 C 0.65475 0.57516 0.29626 0.0
C605 C 0.6844 0.56695 0.28121 0.0
C606 C 0.63424 0.59875 0.28399 0.0
C607 C 0.64303 0.61523 0.25652 0.0
C608 C 0.67125 0.60493 0.23968 0.0
C609 C 0.6914 0.5803 0.25164 0.0
C610 C 0.62818 0.70421 0.253 0.0
C611 C 0.59495 0.70669 0.26013 0.0
C612 C 0.64342 0.67422 0.24756 0.0
C613 C 0.62573 0.64611 0.24977 0.0
C614 C 0.59189 0.64896 0.25355 0.0
C615 C 0.57669 0.67898 0.25897 0.0
H616 H 0.31119 0.86694 0.55347 0.0
H617 H 0.3605 0.79817 0.49105 0.0
H618 H 0.36059 0.89665 0.55821 0.0
H619 H 0.4098 0.82876 0.49445 0.0
H620 H 0.49781 0.88661 0.51367 0.0
H621 H 0.45386 0.85043 0.52437 0.0
H622 H 0.3852 0.93027 0.52022 0.0
H623 H 0.42878 0.96631 0.5105 0.0
C624 C 0.33284 0.85804 0.54109 0.0
C625 C 0.33216 0.83069 0.52154 0.0
C626 C 0.36103 0.87508 0.54366 0.0
C627 C 0.38884 0.8655 0.5261 0.0
C628 C 0.3888 0.8367 0.50838 0.0
C629 C 0.36062 0.81924 0.50631 0.0
C630 C 0.47334 0.89645 0.51547 0.0
C631 C 0.46678 0.92932 0.51111 0.0
C632 C 0.44821 0.8757 0.5215 0.0
C633 C 0.41609 0.88746 0.52321 0.0
C634 C 0.40972 0.92047 0.51974 0.0
C635 C 0.43476 0.94117 0.51391 0.0
H636 H 0.12675 0.7292 0.80843 0.0
H637 H 0.06107 0.7112 0.73232 0.0
H638 H 0.16189 0.68614 0.78994 0.0
H639 H 0.09726 0.6672 0.71281 0.0
H640 H 0.12701 0.56226 0.7495 0.0
H641 H 0.1044 0.615 0.73679 0.0
H642 H 0.19642 0.65656 0.75661 0.0
H643 H 0.21748 0.60441 0.77231 0.0
C644 C 0.12015 0.71642 0.78708 0.0
C645 C 0.09016 0.72229 0.77289 0.0
C646 C 0.14072 0.69174 0.77609 0.0
C647 C 0.13198 0.67229 0.75036 0.0
C648 C 0.10407 0.68102 0.73342 0.0
C649 C 0.08331 0.70607 0.74457 0.0
C650 C 0.14266 0.58258 0.74982 0.0
C651 C 0.17429 0.57919 0.76101 0.0
C652 C 0.12982 0.61286 0.74231 0.0
C653 C 0.14843 0.64027 0.74614 0.0
C654 C 0.18121 0.6361 0.75388 0.0
C655 C 0.19371 0.60599 0.76211 0.0
H656 H 0.85741 0.33043 0.6057 0.0
H657 H 0.88465 0.28242 0.51773 0.0
H658 H 0.91076 0.35336 0.60833 0.0
H659 H 0.93724 0.30669 0.51917 0.0
H660 H 0.95962 0.43738 0.55718 0.0
H661 H 0.92332 0.39699 0.57496 0.0
H662 H 0.98917 0.32262 0.53838 0.0
H663 H 0.02558 0.36356 0.51966 0.0
C664 C 0.8753 0.3239 0.58754 0.0
C665 C 0.86691 0.30534 0.56116 0.0
C666 C 0.90573 0.33717 0.58888 0.0
C667 C 0.92773 0.33289 0.56333 0.0
C668 C 0.92084 0.31066 0.53918 0.0
C669 C 0.89061 0.29675 0.53826 0.0
C670 C 0.96669 0.41245 0.55324 0.0
C671 C 0.99518 0.40375 0.53639 0.0
C672 C 0.94604 0.38913 0.56393 0.0
C673 C 0.95331 0.35645 0.55813 0.0
C674 C 0.98279 0.3476 0.543 0.0
C675 C 0.00361 0.37106 0.5323 0.0
H676 H 0.35927 0.96313 0.28031 0.0
H677 H 0.3055 0.90754 0.21377 0.0
H678 H 0.38746 0.91398 0.29799 0.0
H679 H 0.33301 0.85887 0.23105 0.0
H680 H 0.38381 0.77473 0.2523 0.0
H681 H 0.34828 0.81903 0.2711 0.0
H682 H 0.42815 0.88295 0.26463 0.0
H683 H 0.46312 0.83883 0.24595 0.0
C684 C 0.35251 0.94019 0.2706 0.0
C685 C 0.33004 0.9387 0.24614 0.0
C686 C 0.36864 0.91217 0.28055 0.0
C687 C 0.36243 0.88249 0.26603 0.0
C688 C 0.33803 0.8811 0.24324 0.0
C689 C 0.32231 0.90899 0.23316 0.0
C690 C 0.39402 0.79793 0.25666 0.0
C691 C 0.42622 0.80341 0.24814 0.0
C692 C 0.37372 0.82329 0.26728 0.0
C693 C 0.38525 0.8546 0.26872 0.0
C694 C 0.41851 0.85913 0.26408 0.0
C695 C 0.43879 0.83371 0.25359 0.0
H696 H 0.30166 0.43467 0.72044 0.0
H697 H 0.36735 0.48276 0.78178 0.0
H698 H 0.32837 0.38357 0.73153 0.0
H699 H 0.39407 0.43128 0.79391 0.0
H700 H 0.46296 0.35187 0.74489 0.0
H701 H 0.42999 0.39856 0.76148 0.0
H702 H 0.34534 0.34041 0.76372 0.0
H703 H 0.37855 0.29408 0.7459 0.0
C704 C 0.32089 0.43395 0.73759 0.0
C705 C 0.33214 0.46236 0.75074 0.0
C706 C 0.33632 0.40463 0.74405 0.0
C707 C 0.36368 0.40316 0.76351 0.0
C708 C 0.37332 0.43152 0.77859 0.0
C709 C 0.35783 0.46093 0.77201 0.0
C710 C 0.43759 0.34885 0.75038 0.0
C711 C 0.42322 0.31953 0.74431 0.0
C712 C 0.41854 0.37565 0.75984 0.0
C713 C 0.38474 0.3735 0.76329 0.0
C714 C 0.37112 0.34314 0.76056 0.0
C715 C 0.39013 0.31652 0.7507 0.0
H716 H 0.18789 0.83925 0.58514 0.0
H717 H 0.1819 0.74519 0.5427 0.0
H718 H 0.14834 0.82551 0.62548 0.0
H719 H 0.1413 0.73138 0.58308 0.0
H720 H 0.08615 0.78612 0.7041 0.0
H721 H 0.13509 0.78939 0.67119 0.0
H722 H 0.0833 0.7548 0.59025 0.0
H723 H 0.03447 0.75165 0.62276 0.0
C724 C 0.17852 0.8153 0.58487 0.0
C725 C 0.18756 0.79338 0.56057 0.0
C726 C 0.15597 0.80739 0.6081 0.0
C727 C 0.14147 0.77752 0.60727 0.0
C728 C 0.15194 0.75473 0.58408 0.0
C729 C 0.17521 0.7625 0.56108 0.0
C730 C 0.08515 0.77929 0.67928 0.0
C731 C 0.05613 0.76919 0.66601 0.0
C732 C 0.11324 0.78094 0.66051 0.0
C733 C 0.11306 0.77209 0.62822 0.0
C734 C 0.08432 0.76129 0.61516 0.0
C735 C 0.05618 0.76 0.63376 0.0
H736 H 0.28219 0.89697 0.28107 0.0
H737 H 0.17982 0.88991 0.29775 0.0
H738 H 0.29158 0.84516 0.30511 0.0
H739 H 0.18893 0.84046 0.3253 0.0
H740 H 0.20345 0.77167 0.39636 0.0
H741 H 0.20264 0.79097 0.34192 0.0
H742 H 0.29444 0.83546 0.35729 0.0
H743 H 0.29589 0.81384 0.41003 0.0
C744 C 0.26158 0.88369 0.28859 0.0
C745 C 0.23042 0.89769 0.28767 0.0
C746 C 0.26693 0.85425 0.30332 0.0
C747 C 0.24131 0.83899 0.31883 0.0
C748 C 0.20962 0.85112 0.31414 0.0
C749 C 0.20427 0.87998 0.29852 0.0
C750 C 0.22406 0.7842 0.3872 0.0
C751 C 0.24959 0.79165 0.40709 0.0
C752 C 0.22349 0.79576 0.3562 0.0
C753 C 0.24771 0.8162 0.34528 0.0
C754 C 0.27512 0.82006 0.36428 0.0
C755 C 0.27603 0.80778 0.39483 0.0
H756 H 0.9391 0.64699 0.70691 0.0
H757 H 0.04009 0.659 0.72499 0.0
H758 H 0.95138 0.59554 0.68201 0.0
H759 H 0.05295 0.60697 0.69975 0.0
H760 H 0.05215 0.56064 0.5949 0.0
H761 H 0.05256 0.59244 0.64373 0.0
H762 H 0.97049 0.54153 0.67926 0.0
H763 H 0.96937 0.51092 0.62969 0.0
C764 C 0.96395 0.63804 0.70661 0.0
C765 C 0.98875 0.65746 0.7173 0.0
C766 C 0.97109 0.60828 0.69236 0.0
C767 C 0.00334 0.59711 0.68824 0.0
C768 C 0.02791 0.61502 0.70201 0.0
C769 C 0.02058 0.6448 0.71669 0.0
C770 C 0.03535 0.55507 0.61386 0.0
C771 C 0.01053 0.53359 0.60846 0.0
C772 C 0.03543 0.57345 0.64194 0.0
C773 C 0.01081 0.57037 0.6651 0.0
C774 C 0.98918 0.54526 0.66155 0.0
C775 C 0.98878 0.52734 0.63332 0.0
H776 H 0.38132 0.68499 0.47598 0.0
H777 H 0.31508 0.75482 0.43631 0.0
H778 H 0.42278 0.69965 0.43824 0.0
H779 H 0.35718 0.76991 0.39804 0.0
H780 H 0.42915 0.74776 0.31071 0.0
H781 H 0.38639 0.74191 0.35078 0.0
H782 H 0.4575 0.74408 0.42451 0.0
H783 H 0.50012 0.74938 0.38484 0.0
C784 C 0.37575 0.70393 0.45943 0.0
C785 C 0.34485 0.71873 0.45911 0.0
C786 C 0.39964 0.71243 0.43784 0.0
C787 C 0.39331 0.73589 0.41508 0.0
C788 C 0.36267 0.75156 0.41521 0.0
C789 C 0.33867 0.74321 0.43731 0.0
C790 C 0.43569 0.74678 0.33546 0.0
C791 C 0.46822 0.7485 0.34446 0.0
C792 C 0.41111 0.74392 0.35842 0.0
C793 C 0.41858 0.74252 0.39079 0.0
C794 C 0.45099 0.74479 0.39974 0.0
C795 C 0.47545 0.74777 0.37692 0.0
H796 H 0.21566 0.08371 0.21074 0.0
H797 H 0.31663 0.10554 0.20332 0.0
H798 H 0.20243 0.12691 0.17476 0.0
H799 H 0.30359 0.14796 0.16601 0.0
H800 H 0.21437 0.13813 0.06458 0.0
H801 H 0.21786 0.11745 0.11787 0.0
H802 H 0.27395 0.19825 0.14609 0.0
H803 H 0.27012 0.21942 0.09206 0.0
C804 C 0.23481 0.09904 0.20314 0.0
C805 C 0.26716 0.09128 0.21001 0.0
C806 C 0.2273 0.12345 0.18191 0.0
C807 C 0.25207 0.14022 0.16691 0.0
C808 C 0.28397 0.13543 0.17712 0.0
C809 C 0.29146 0.11108 0.19849 0.0
C810 C 0.2272 0.15174 0.08215 0.0
C811 C 0.24244 0.18012 0.074 0.0
C812 C 0.22878 0.14013 0.1129 0.0
C813 C 0.24596 0.15636 0.13631 0.0
C814 C 0.26043 0.18534 0.12853 0.0
C815 C 0.25832 0.19736 0.09767 0.0
H816 H 0.78881 0.74369 0.9268 0.0
H817 H 0.82488 0.64602 0.93308 0.0
H818 H 0.83505 0.75652 0.89322 0.0
H819 H 0.87103 0.65878 0.89952 0.0
H820 H 0.96692 0.70885 0.87608 0.0
H821 H 0.91926 0.6956 0.90737 0.0
H822 H 0.8578 0.7388 0.83697 0.0
H823 H 0.90555 0.75198 0.80533 0.0
C824 C 0.80653 0.72505 0.92114 0.0
C825 C 0.80328 0.69401 0.93279 0.0
C826 C 0.83286 0.7323 0.9017 0.0
C827 C 0.85648 0.70858 0.8939 0.0
C828 C 0.85318 0.6775 0.90541 0.0
C829 C 0.82673 0.67024 0.92451 0.0
C830 C 0.94325 0.71535 0.86716 0.0
C831 C 0.93991 0.73134 0.83825 0.0
C832 C 0.91605 0.70769 0.88501 0.0
C833 C 0.88504 0.71627 0.8745 0.0
C834 C 0.88156 0.73215 0.84557 0.0
C835 C 0.90881 0.73939 0.82741 0.0
H836 H 0.23063 0.61075 0.70704 0.0
H837 H 0.32333 0.63696 0.74257 0.0
H838 H 0.22648 0.66015 0.67817 0.0
H839 H 0.31945 0.68718 0.71338 0.0
H840 H 0.32833 0.70455 0.60293 0.0
H841 H 0.327 0.68688 0.65727 0.0
H842 H 0.22605 0.71619 0.66524 0.0
H843 H 0.22768 0.73377 0.60996 0.0
C844 C 0.24913 0.6282 0.71045 0.0
C845 C 0.27699 0.62034 0.7275 0.0
C846 C 0.2469 0.65665 0.69362 0.0
C847 C 0.27292 0.67753 0.69292 0.0
C848 C 0.2992 0.67137 0.71303 0.0
C849 C 0.30142 0.64273 0.72986 0.0
C850 C 0.30623 0.70845 0.61675 0.0
C851 C 0.27799 0.71984 0.6023 0.0
C852 C 0.30544 0.69855 0.64813 0.0
C853 C 0.27618 0.69942 0.66556 0.0
C854 C 0.24884 0.71471 0.65225 0.0
C855 C 0.24976 0.72494 0.62072 0.0
H856 H 0.27147 0.97957 0.38369 0.0
H857 H 0.32645 0.03339 0.31596 0.0
H858 H 0.31597 0.9814 0.42057 0.0
H859 H 0.37034 0.03673 0.3534 0.0
H860 H 0.45246 0.03034 0.41805 0.0
H861 H 0.41286 0.01075 0.38038 0.0
H862 H 0.33889 0.01894 0.45396 0.0
H863 H 0.37895 0.03623 0.49133 0.0
C864 C 0.2929 0.99224 0.37689 0.0
C865 C 0.29525 0.00682 0.34714 0.0
C866 C 0.3185 0.99319 0.39799 0.0
C867 C 0.34684 0.00926 0.39009 0.0
C868 C 0.34924 0.02356 0.36014 0.0
C869 C 0.32385 0.02211 0.33882 0.0
C870 C 0.42814 0.02593 0.42631 0.0
C871 C 0.41875 0.03382 0.45749 0.0
C872 C 0.40522 0.0156 0.40469 0.0
C873 C 0.37247 0.0137 0.41395 0.0
C874 C 0.36381 0.01965 0.44591 0.0
C875 C 0.38674 0.02964 0.4674 0.0
H876 H 0.84693 0.76759 0.02194 0.0
H877 H 0.83441 0.82658 0.93969 0.0
H878 H 0.90096 0.78882 0.02919 0.0
H879 H 0.88747 0.84817 0.9469 0.0
H880 H 0.93753 0.88924 0.06432 0.0
H881 H 0.91065 0.84099 0.04946 0.0
H882 H 0.94472 0.85085 0.95278 0.0
H883 H 0.9718 0.89969 0.96806 0.0
C884 C 0.85631 0.78405 0.00468 0.0
C885 C 0.83647 0.79595 0.98062 0.0
C886 C 0.88712 0.79646 0.00892 0.0
C887 C 0.89839 0.82089 0.98913 0.0
C888 C 0.87992 0.82946 0.96267 0.0
C889 C 0.84926 0.81724 0.9586 0.0
C890 C 0.94023 0.88066 0.04003 0.0
C891 C 0.95531 0.89942 0.01695 0.0
C892 C 0.92495 0.85261 0.0315 0.0
C893 C 0.9244 0.8425 -0.0004 0.0
C894 C 0.94372 0.85855 0.97741 0.0
C895 C 0.95925 0.88669 0.98611 0.0
H896 H 0.66658 0.22686 0.53404 0.0
H897 H 0.7141 0.18104 0.45304 0.0
H898 H 0.61557 0.20336 0.51884 0.0
H899 H 0.66317 0.15837 0.43712 0.0
H900 H 0.52599 0.15923 0.48271 0.0
H901 H 0.57113 0.19533 0.48127 0.0
H902 H 0.63693 0.1146 0.46362 0.0
H903 H 0.59208 0.07862 0.46466 0.0
C904 C 0.66571 0.21292 0.51227 0.0
C905 C 0.69402 0.20538 0.4948 0.0
C906 C 0.63657 0.19945 0.5035 0.0
C907 C 0.63558 0.1785 0.47709 0.0
C908 C 0.66338 0.17384 0.45793 0.0
C909 C 0.69241 0.18694 0.46689 0.0
C910 C 0.55001 0.14922 0.47784 0.0
C911 C 0.55546 0.11592 0.47417 0.0
C912 C 0.57584 0.16996 0.47715 0.0
C913 C 0.60754 0.15783 0.47253 0.0
C914 C 0.61272 0.1248 0.46684 0.0
C915 C 0.58698 0.10408 0.46763 0.0
H916 H 0.87798 0.46896 0.25808 0.0
H917 H 0.79851 0.4101 0.23278 0.0
H918 H 0.90764 0.42172 0.27756 0.0
H919 H 0.82811 0.36284 0.25048 0.0
H920 H 0.88331 0.27795 0.26874 0.0
H921 H 0.85506 0.3279 0.28511 0.0
H922 H 0.93397 0.38137 0.24621 0.0
H923 H 0.96209 0.33162 0.23115 0.0
C924 C 0.86641 0.44604 0.25796 0.0
C925 C 0.83592 0.44297 0.24454 0.0
C926 C 0.88346 0.41893 0.26872 0.0
C927 C 0.8706 0.38825 0.26518 0.0
C928 C 0.83884 0.38589 0.25407 0.0
C929 C 0.82177 0.41299 0.24374 0.0
C930 C 0.89507 0.30047 0.26515 0.0
C931 C 0.92488 0.30116 0.24906 0.0
C932 C 0.87886 0.32908 0.27423 0.0
C933 C 0.8918 0.35881 0.26634 0.0
C934 C 0.9232 0.35914 0.25301 0.0
C935 C 0.9395 0.33054 0.24436 0.0
H936 H 0.03035 0.63277 0.52576 0.0
H937 H 0.06277 0.57364 0.44604 0.0
H938 H 0.07585 0.66768 0.51716 0.0
H939 H 0.10758 0.60899 0.43682 0.0
H940 H 0.20681 0.63296 0.47841 0.0
H941 H 0.15428 0.61051 0.47139 0.0
H942 H 0.10887 0.70437 0.48418 0.0
H943 H 0.16204 0.72724 0.49135 0.0
C944 C 0.04647 0.628 0.50566 0.0
C945 C 0.04361 0.6002 0.48699 0.0
C946 C 0.07246 0.64803 0.50066 0.0
C947 C 0.09562 0.64058 0.47675 0.0
C948 C 0.09049 0.61482 0.45589 0.0
C949 C 0.06485 0.59465 0.46112 0.0
C950 C 0.18579 0.64903 0.47939 0.0
C951 C 0.18866 0.68184 0.48601 0.0
C952 C 0.1556 0.63616 0.47499 0.0
C953 C 0.12745 0.65573 0.47708 0.0
C954 C 0.13021 0.68876 0.48257 0.0
C955 C 0.16063 0.70177 0.48674 0.0
H956 H 0.60688 0.04215 0.80503 0.0
H957 H 0.68395 0.06316 0.73934 0.0
H958 H 0.58039 0.09253 0.79429 0.0
H959 H 0.65671 0.1151 0.72791 0.0
H960 H 0.62598 0.21802 0.77247 0.0
H961 H 0.64882 0.16472 0.7593 0.0
H962 H 0.55266 0.12716 0.76088 0.0
H963 H 0.53052 0.1799 0.77564 0.0
C964 C 0.61802 0.05744 0.7877 0.0
C965 C 0.64836 0.04934 0.77399 0.0
C966 C 0.60248 0.08646 0.78121 0.0
C967 C 0.61659 0.10828 0.76051 0.0
C968 C 0.64567 0.09909 0.74459 0.0
C969 C 0.66132 0.06961 0.75114 0.0
C970 C 0.60979 0.19849 0.76866 0.0
C971 C 0.57644 0.20312 0.77403 0.0
C972 C 0.6228 0.16797 0.76104 0.0
C973 C 0.60262 0.1415 0.75926 0.0
C974 C 0.569 0.14687 0.76245 0.0
C975 C 0.55612 0.17726 0.77022 0.0
H976 H 0.74708 0.61205 0.22588 0.0
H977 H 0.83041 0.58664 0.16709 0.0
H978 H 0.73813 0.6605 0.19488 0.0
H979 H 0.8222 0.63503 0.13701 0.0
H980 H 0.70613 0.68341 0.08776 0.0
H981 H 0.71898 0.66027 0.13891 0.0
H982 H 0.81653 0.69337 0.12988 0.0
H983 H 0.80328 0.71665 0.07838 0.0
C984 C 0.76386 0.61702 0.2069 0.0
C985 C 0.78841 0.59458 0.19796 0.0
C986 C 0.75889 0.64495 0.18925 0.0
C987 C 0.77906 0.65134 0.16302 0.0
C988 C 0.80613 0.63099 0.15698 0.0
C989 C 0.81068 0.60295 0.17415 0.0
C990 C 0.72985 0.68701 0.09748 0.0
C991 C 0.75376 0.70169 0.07932 0.0
C992 C 0.73725 0.67385 0.12686 0.0
C993 C 0.76893 0.67458 0.13833 0.0
C994 C 0.79197 0.6922 0.12154 0.0
C995 C 0.7844 0.70573 0.09222 0.0
H996 H 0.97259 0.54906 0.43976 0.0
H997 H 0.90488 0.47874 0.46995 0.0
H998 H 0.9486 0.54951 0.38701 0.0
H999 H 0.88172 0.47818 0.41681 0.0
H1000 H 0.85177 0.48337 0.31356 0.0
H1001 H 0.89759 0.47479 0.34883 0.0
H1002 H 0.88046 0.56935 0.3891 0.0
H1003 H 0.83399 0.57749 0.35455 0.0
C1004 C 0.95382 0.53235 0.43443 0.0
C1005 C 0.94061 0.5136 0.45847 0.0
C1006 C 0.94013 0.53272 0.40441 0.0
C1007 C 0.9135 0.51387 0.39811 0.0
C1008 C 0.90259 0.49256 0.42116 0.0
C1009 C 0.91579 0.49278 0.45144 0.0
C1010 C 0.85883 0.50285 0.32887 0.0
C1011 C 0.83978 0.53124 0.33122 0.0
C1012 C 0.88481 0.49782 0.34912 0.0
C1013 C 0.89246 0.52151 0.37132 0.0
C1014 C 0.87517 0.55099 0.37172 0.0
C1015 C 0.84866 0.55565 0.3521 0.0
H1016 H 0.17953 0.53594 0.69244 0.0
H1017 H 0.25233 0.50582 0.62291 0.0
H1018 H 0.13947 0.54004 0.65094 0.0
H1019 H 0.21208 0.50839 0.58159 0.0
H1020 H 0.1435 0.52328 0.50744 0.0
H1021 H 0.17831 0.5408 0.55012 0.0
H1022 H 0.11011 0.5052 0.61901 0.0
H1023 H 0.07516 0.48921 0.57634 0.0
C1024 C 0.18685 0.52974 0.6683 0.0
C1025 C 0.21893 0.52003 0.66091 0.0
C1026 C 0.16392 0.53227 0.6445 0.0
C1027 C 0.17247 0.52469 0.61285 0.0
C1028 C 0.20471 0.51522 0.60554 0.0
C1029 C 0.22774 0.51321 0.62927 0.0
C1030 C 0.13541 0.5208 0.53183 0.0
C1031 C 0.10669 0.50536 0.53886 0.0
C1032 C 0.15549 0.53029 0.55625 0.0
C1033 C 0.14753 0.52347 0.58797 0.0
C1034 C 0.11707 0.51097 0.59495 0.0
C1035 C 0.09678 0.502 0.5705 0.0
H1036 H 0.59742 0.77878 0.19358 0.0
H1037 H 0.52981 0.79689 0.11819 0.0
H1038 H 0.64228 0.78481 0.15628 0.0
H1039 H 0.5747 0.80338 0.08121 0.0
H1040 H 0.65823 0.77497 0.01634 0.0
H1041 H 0.61596 0.76781 0.05639 0.0
H1042 H 0.66873 0.82511 0.12277 0.0
H1043 H 0.71135 0.83154 0.08257 0.0
C1044 C 0.59207 0.78452 0.1692 0.0
C1045 C 0.55996 0.78714 0.15884 0.0
C1046 C 0.61782 0.78797 0.14787 0.0
C1047 C 0.61196 0.79409 0.11579 0.0
C1048 C 0.57992 0.79794 0.10569 0.0
C1049 C 0.5542 0.79451 0.12697 0.0
C1050 C 0.66139 0.78473 0.03993 0.0
C1051 C 0.68838 0.8027 0.04695 0.0
C1052 C 0.63691 0.78133 0.0626 0.0
C1053 C 0.63905 0.79596 0.09266 0.0
C1054 C 0.66661 0.81328 0.09993 0.0
C1055 C 0.69095 0.81691 0.07706 0.0
H1056 H 0.671 0.51623 0.20403 0.0
H1057 H 0.71881 0.4279 0.17301 0.0
H1058 H 0.62298 0.50201 0.17477 0.0
H1059 H 0.67022 0.41237 0.14556 0.0
H1060 H 0.61576 0.43669 0.05349 0.0
H1061 H 0.65223 0.43228 0.0973 0.0
H1062 H 0.57761 0.471 0.16109 0.0
H1063 H 0.54108 0.4764 0.11646 0.0
C1064 C 0.67069 0.49327 0.19179 0.0
C1065 C 0.69858 0.47349 0.18982 0.0
C1066 C 0.64312 0.48489 0.17529 0.0
C1067 C 0.643 0.4563 0.15719 0.0
C1068 C 0.66987 0.43499 0.15842 0.0
C1069 C 0.69764 0.44379 0.17412 0.0
C1070 C 0.60681 0.44361 0.07695 0.0
C1071 C 0.5759 0.45775 0.08135 0.0
C1072 C 0.62769 0.44075 0.10231 0.0
C1073 C 0.61806 0.45179 0.13277 0.0
C1074 C 0.58597 0.4629 0.13779 0.0
C1075 C 0.56499 0.46581 0.11226 0.0
H1076 H 0.46734 0.39136 0.98737 0.0
H1077 H 0.43464 0.38837 0.08477 0.0
H1078 H 0.44581 0.33839 0.97788 0.0
H1079 H 0.4119 0.337 0.07551 0.0
H1080 H 0.34858 0.2639 0.05927 0.0
H1081 H 0.40262 0.28525 0.06351 0.0
H1082 H 0.39326 0.32509 0.96967 0.0
H1083 H 0.34102 0.30126 0.96491 0.0
C1084 C 0.45644 0.37905 0.00696 0.0
C1085 C 0.45162 0.39449 0.03646 0.0
C1086 C 0.44373 0.34872 0.00153 0.0
C1087 C 0.42575 0.33358 0.02548 0.0
C1088 C 0.42521 0.3474 0.05613 0.0
C1089 C 0.43804 0.37735 0.0615 0.0
C1090 C 0.35912 0.27565 0.039 0.0
C1091 C 0.34081 0.28132 0.01192 0.0
C1092 C 0.38986 0.28843 0.04151 0.0
C1093 C 0.40186 0.30854 0.01766 0.0
C1094 C 0.38516 0.31017 0.98882 0.0
C1095 C 0.35495 0.29653 0.986 0.0
H1096 H 0.05003 0.17325 0.27289 0.0
H1097 H 0.136 0.22527 0.25252 0.0
H1098 H 0.07872 0.12312 0.25981 0.0
H1099 H 0.16504 0.17508 0.23861 0.0
H1100 H 0.13357 0.03374 0.24101 0.0
H1101 H 0.1076 0.08502 0.22718 0.0
H1102 H 0.18502 0.13466 0.27247 0.0
H1103 H 0.2111 0.08348 0.28495 0.0
C1104 C 0.07458 0.17406 0.26382 0.0
C1105 C 0.09065 0.20308 0.26313 0.0
C1106 C 0.09127 0.14522 0.2565 0.0
C1107 C 0.12448 0.14485 0.24854 0.0
C1108 C 0.1397 0.17434 0.24525 0.0
C1109 C 0.12304 0.20312 0.25287 0.0
C1110 C 0.14558 0.05574 0.24662 0.0
C1111 C 0.17451 0.05489 0.26347 0.0
C1112 C 0.13057 0.08511 0.2391 0.0
C1113 C 0.1439 0.11414 0.24902 0.0
C1114 C 0.17411 0.113 0.264 0.0
C1115 C 0.18918 0.08365 0.27123 0.0
H1116 H 0.28416 0.34976 0.925 0.0
H1117 H 0.20964 0.28655 0.89497 0.0
H1118 H 0.28328 0.37573 0.87419 0.0
H1119 H 0.20873 0.31276 0.84302 0.0
H1120 H 0.17987 0.41442 0.79773 0.0
H1121 H 0.18864 0.36618 0.82844 0.0
H1122 H 0.29185 0.37578 0.81802 0.0
H1123 H 0.28285 0.42527 0.7894 0.0
C1124 C 0.26792 0.34104 0.90715 0.0
C1125 C 0.24646 0.31664 0.91413 0.0
C1126 C 0.26774 0.35565 0.8777 0.0
C1127 C 0.24588 0.34644 0.85434 0.0
C1128 C 0.22574 0.32053 0.86056 0.0
C1129 C 0.22625 0.30551 0.8902 0.0
C1130 C 0.20444 0.40551 0.80092 0.0
C1131 C 0.23072 0.42383 0.79127 0.0
C1132 C 0.20949 0.37765 0.81842 0.0
C1133 C 0.24096 0.36756 0.8265 0.0
C1134 C 0.26726 0.38331 0.81281 0.0
C1135 C 0.26216 0.41141 0.7957 0.0
H1136 H 0.28121 0.18926 0.88403 0.0
H1137 H 0.32583 0.22204 0.9696 0.0
H1138 H 0.32902 0.20359 0.85332 0.0
H1139 H 0.37258 0.23886 0.93903 0.0
H1140 H 0.46636 0.22368 0.88249 0.0
H1141 H 0.41715 0.21307 0.91223 0.0
H1142 H 0.36002 0.24669 0.8337 0.0
H1143 H 0.40933 0.25628 0.80351 0.0
C1144 C 0.30091 0.20053 0.89606 0.0
C1145 C 0.29942 0.20589 0.92892 0.0
C1146 C 0.32819 0.20891 0.87853 0.0
C1147 C 0.35461 0.22258 0.89366 0.0
C1148 C 0.35274 0.22832 0.9266 0.0
C1149 C 0.32554 0.21966 0.94409 0.0
C1150 C 0.44331 0.22873 0.87153 0.0
C1151 C 0.44177 0.24063 0.84058 0.0
C1152 C 0.41505 0.22293 0.8887 0.0
C1153 C 0.38459 0.22922 0.87544 0.0
C1154 C 0.38307 0.24118 0.84447 0.0
C1155 C 0.41135 0.24669 0.82717 0.0
H1156 H 0.4337 0.50349 0.94045 0.0
H1157 H 0.36774 0.55155 0.00707 0.0
H1158 H 0.39625 0.51457 0.89769 0.0
H1159 H 0.33089 0.56386 0.96419 0.0
H1160 H 0.2552 0.52758 0.89472 0.0
H1161 H 0.29572 0.53064 0.93539 0.0
H1162 H 0.36806 0.55173 0.86424 0.0
H1163 H 0.32759 0.54765 0.8232 0.0
C1164 C 0.41162 0.51724 0.94575 0.0
C1165 C 0.40326 0.52616 0.97708 0.0
C1166 C 0.3902 0.52373 0.92124 0.0
C1167 C 0.36031 0.53963 0.92766 0.0
C1168 C 0.35332 0.55081 0.95864 0.0
C1169 C 0.37446 0.54391 0.98315 0.0
C1170 C 0.27962 0.53329 0.88772 0.0
C1171 C 0.28818 0.53704 0.85568 0.0
C1172 C 0.30288 0.5353 0.91112 0.0
C1173 C 0.33519 0.5414 0.90305 0.0
C1174 C 0.34348 0.54655 0.87115 0.0
C1175 C 0.32023 0.54432 0.84768 0.0
H1176 H 0.64647 0.71697 0.03632 0.0
H1177 H 0.63576 0.68359 0.94017 0.0
H1178 H 0.59562 0.69283 0.0514 0.0
H1179 H 0.58573 0.65832 0.95507 0.0
H1180 H 0.56524 0.58474 0.06451 0.0
H1181 H 0.59041 0.63599 0.05739 0.0
H1182 H 0.53131 0.65372 0.97548 0.0
H1183 H 0.50653 0.6018 0.98269 0.0
C1184 C 0.63215 0.70625 0.01799 0.0
C1185 C 0.6446 0.70275 0.98695 0.0
C1186 C 0.60333 0.69177 0.02673 0.0
C1187 C 0.58673 0.67312 0.00462 0.0
C1188 C 0.59752 0.67268 0.97276 0.0
C1189 C 0.62629 0.68716 0.96409 0.0
C1190 C 0.55636 0.60046 0.04613 0.0
C1191 C 0.53394 0.58955 0.02424 0.0
C1192 C 0.57084 0.62992 0.04189 0.0
C1193 C 0.56341 0.6488 0.01538 0.0
C1194 C 0.53797 0.63954 0.99581 0.0
C1195 C 0.52344 0.61002 0.00015 0.0
H1196 H 0.87157 0.78242 0.74165 0.0
H1197 H 0.9551 0.84084 0.73298 0.0
H1198 H 0.83842 0.82958 0.75727 0.0
H1199 H 0.92227 0.88821 0.74733 0.0
H1200 H 0.86108 0.97266 0.77029 0.0
H1201 H 0.8898 0.92184 0.78009 0.0
H1202 H 0.81676 0.8721 0.72819 0.0
H1203 H 0.78769 0.92278 0.72002 0.0
C1204 C 0.88298 0.8053 0.7441 0.0
C1205 C 0.91593 0.80801 0.7367 0.0
C1206 C 0.86397 0.83243 0.75264 0.0
C1207 C 0.87735 0.86303 0.75308 0.0
C1208 C 0.91095 0.8652 0.74773 0.0
C1209 C 0.92999 0.83796 0.73962 0.0
C1210 C 0.85061 0.95058 0.76226 0.0
C1211 C 0.82202 0.9514 0.74485 0.0
C1212 C 0.86726 0.92148 0.76742 0.0
C1213 C 0.85609 0.89268 0.75447 0.0
C1214 C 0.82614 0.89351 0.73891 0.0
C1215 C 0.80931 0.92259 0.73418 0.0
H1216 H 0.43763 0.16048 0.70323 0.0
H1217 H 0.54036 0.17218 0.70803 0.0
H1218 H 0.44652 0.11028 0.67488 0.0
H1219 H 0.54996 0.11979 0.68347 0.0
H1220 H 0.54715 0.07741 0.58146 0.0
H1221 H 0.5491 0.10466 0.63216 0.0
H1222 H 0.46105 0.05921 0.66161 0.0
H1223 H 0.45809 0.03425 0.60918 0.0
C1224 C 0.4622 0.15127 0.69981 0.0
C1225 C 0.48832 0.16982 0.70855 0.0
C1226 C 0.46749 0.12213 0.68372 0.0
C1227 C 0.49915 0.11069 0.67616 0.0
C1228 C 0.52523 0.1279 0.688 0.0
C1229 C 0.51983 0.15758 0.70317 0.0
C1230 C 0.52907 0.07215 0.59937 0.0
C1231 C 0.50234 0.05412 0.59151 0.0
C1232 C 0.53004 0.08788 0.62873 0.0
C1233 C 0.5044 0.08542 0.65094 0.0
C1234 C 0.48043 0.06301 0.64469 0.0
C1235 C 0.47897 0.04812 0.61488 0.0
H1236 H 0.55958 0.37325 0.80698 0.0
H1237 H 0.4603 0.34659 0.81786 0.0
H1238 H 0.54897 0.41994 0.84113 0.0
H1239 H 0.44954 0.39324 0.85276 0.0
H1240 H 0.53082 0.5019 0.89952 0.0
H1241 H 0.51807 0.47183 0.85171 0.0
H1242 H 0.47237 0.40071 0.9091 0.0
H1243 H 0.48477 0.43168 0.95706 0.0
C1244 C 0.53511 0.37833 0.81549 0.0
C1245 C 0.51067 0.35674 0.8094 0.0
C1246 C 0.52895 0.40499 0.83518 0.0
C1247 C 0.49839 0.41019 0.84981 0.0
C1248 C 0.47327 0.38983 0.84185 0.0
C1249 C 0.47933 0.36344 0.82154 0.0
C1250 C 0.51668 0.48061 0.9018 0.0
C1251 C 0.50919 0.46858 0.93191 0.0
C1252 C 0.50954 0.46332 0.87442 0.0
C1253 C 0.49503 0.43351 0.87668 0.0
C1254 C 0.48364 0.42362 0.90658 0.0
C1255 C 0.49064 0.44123 0.93409 0.0
H1256 H 0.48071 0.84931 0.31011 0.0
H1257 H 0.56674 0.87908 0.26154 0.0
H1258 H 0.47319 0.90189 0.33381 0.0
H1259 H 0.558 0.93332 0.28275 0.0
H1260 H 0.57357 0.98787 0.37659 0.0
H1261 H 0.56867 0.95648 0.32886 0.0
H1262 H 0.46513 0.95385 0.34471 0.0
H1263 H 0.47133 0.98212 0.39475 0.0
C1264 C 0.49715 0.86784 0.30332 0.0
C1265 C 0.52443 0.86026 0.28435 0.0
C1266 C 0.49283 0.89837 0.31682 0.0
C1267 C 0.51554 0.92231 0.31127 0.0
C1268 C 0.54071 0.91545 0.28896 0.0
C1269 C 0.5456 0.88448 0.27632 0.0
C1270 C 0.54958 0.98165 0.36916 0.0
C1271 C 0.52288 0.98732 0.38956 0.0
C1272 C 0.54659 0.96346 0.34146 0.0
C1273 C 0.51657 0.95093 0.33315 0.0
C1274 C 0.48898 0.96152 0.3509 0.0
C1275 C 0.49222 0.97891 0.37925 0.0
H1276 H 0.5172 0.53467 0.08758 0.0
H1277 H 0.44029 0.5259 0.1569 0.0
H1278 H 0.54292 0.57337 0.12223 0.0
H1279 H 0.465 0.56464 0.19075 0.0
H1280 H 0.49906 0.64363 0.24511 0.0
H1281 H 0.5035 0.58885 0.22317 0.0
H1282 H 0.52591 0.62712 0.13078 0.0
H1283 H 0.52237 0.68073 0.15288 0.0
C1284 C 0.50597 0.54066 0.11023 0.0
C1285 C 0.47598 0.52833 0.11878 0.0
C1286 C 0.52075 0.56274 0.13023 0.0
C1287 C 0.50563 0.57292 0.15901 0.0
C1288 C 0.47757 0.5576 0.16894 0.0
C1289 C 0.46302 0.53559 0.14913 0.0
C1290 C 0.50602 0.63994 0.22043 0.0
C1291 C 0.50947 0.66612 0.20038 0.0
C1292 C 0.50845 0.60871 0.20777 0.0
C1293 C 0.51422 0.60348 0.17495 0.0
C1294 C 0.52147 0.62985 0.15606 0.0
C1295 C 0.51902 0.66076 0.16864 0.0
loop_
_geom_bond_atom_site_label_1
_geom_bond_atom_site_label_2
_geom_bond_distance
_geom_bond_site_symmetry_2
_ccdc_geom_bond_type
O0 Mn1 2.163 1_656 S
O0 C14 1.244 . S
Mn1 O0 2.163 1_454 S
Mn1 O4 2.160 1_545 S
Mn1 O5 2.221 1_544 S
Mn1 O7 2.166 . S
Mn1 O9 2.160 1_445 S
Mn1 O19 2.221 1_455 S
O2 Mn3 2.087 1_556 S
O2 C14 1.256 . S
Mn3 O2 2.087 1_554 S
Mn3 O10 2.089 1_545 S
Mn3 O19 2.290 . S
Mn3 O20 2.251 . S
O4 Mn1 2.160 1_565 S
O4 C15 1.239 . S
O5 Mn1 2.221 1_566 S
O5 Mn6 2.290 . S
O5 C16 1.278 . S
Mn6 O5 2.290 . S
Mn6 O8 2.089 1_556 S
Mn6 O11 2.251 . S
Mn6 O12 2.087 1_565 S
O7 Mn1 2.166 . S
O7 C17 1.237 1_554 S
O8 Mn6 2.089 1_554 S
O8 C15 1.256 . S
O9 Mn1 2.160 1_665 S
O9 C18 1.239 . S
O10 Mn3 2.089 1_565 S
O10 C18 1.256 . S
O11 Mn6 2.251 . S
O11 C16 1.241 . S
O12 Mn6 2.087 1_545 S
O12 C17 1.256 . S
C13 O19 1.278 . S
C13 O20 1.241 . S
C14 O0 1.244 . S
C14 O2 1.256 . S
C15 O4 1.239 . S
C15 O8 1.256 . S
C16 O5 1.278 . S
C16 O11 1.241 . S
C17 O7 1.237 1_556 S
C17 O12 1.256 . S
C18 O9 1.239 . S
C18 O10 1.256 . S
O19 Mn1 2.221 1_655 S
O19 Mn3 2.290 . S
O19 C13 1.278 . S
O20 Mn3 2.251 . S
O20 C13 1.241 . S
O21 Mn22 2.163 . S
O21 C35 1.244 . S
Mn22 O21 2.163 . S
Mn22 O25 2.160 1_455 S
Mn22 O26 2.221 . S
Mn22 O28 2.163 . S
Mn22 O30 2.160 1_455 S
Mn22 O40 2.221 1_455 S
O23 Mn24 2.087 1_455 S
O23 C35 1.256 . S
Mn24 O23 2.087 1_655 S
Mn24 O31 2.089 . S
Mn24 O40 2.290 . S
Mn24 O41 2.251 . S
O25 Mn22 2.160 1_655 S
O25 C36 1.239 . S
O26 Mn22 2.221 . S
O26 Mn27 2.290 . S
O26 C37 1.278 . S
Mn27 O26 2.290 . S
Mn27 O29 2.089 1_455 S
Mn27 O32 2.251 . S
Mn27 O33 2.087 . S
O28 Mn22 2.163 . S
O28 C38 1.244 . S
O29 Mn27 2.089 1_655 S
O29 C36 1.256 . S
O30 Mn22 2.160 1_655 S
O30 C39 1.239 . S
O31 Mn24 2.089 . S
O31 C39 1.256 . S
O32 Mn27 2.251 . S
O32 C37 1.241 . S
O33 Mn27 2.087 . S
O33 C38 1.256 . S
C34 O40 1.278 . S
C34 O41 1.241 . S
C35 O21 1.244 . S
C35 O23 1.256 . S
C36 O25 1.239 . S
C36 O29 1.256 . S
C37 O26 1.278 . S
C37 O32 1.241 . S
C38 O28 1.244 . S
C38 O33 1.256 . S
C39 O30 1.239 . S
C39 O31 1.256 . S
O40 Mn22 2.221 1_655 S
O40 Mn24 2.290 . S
O40 C34 1.278 . S
O41 Mn24 2.251 . S
O41 C34 1.241 . S
O42 Mn43 2.163 . S
O42 C56 1.244 . S
Mn43 O42 2.163 . S
Mn43 O46 2.160 . S
Mn43 O47 2.221 . S
Mn43 O49 2.163 . S
Mn43 O51 2.160 . S
Mn43 O61 2.221 . S
O44 Mn45 2.087 . S
O44 C56 1.256 . S
Mn45 O44 2.087 . S
Mn45 O52 2.089 . S
Mn45 O61 2.290 . S
Mn45 O62 2.251 . S
O46 Mn43 2.160 . S
O46 C57 1.239 . S
O47 Mn43 2.221 . S
O47 Mn48 2.290 . S
O47 C58 1.278 . S
Mn48 O47 2.290 . S
Mn48 O50 2.089 . S
Mn48 O53 2.251 . S
Mn48 O54 2.087 . S
O49 Mn43 2.163 . S
O49 C59 1.244 . S
O50 Mn48 2.089 . S
O50 C57 1.256 . S
O51 Mn43 2.160 . S
O51 C60 1.239 . S
O52 Mn45 2.089 . S
O52 C60 1.256 . S
O53 Mn48 2.251 . S
O53 C58 1.241 . S
O54 Mn48 2.087 . S
O54 C59 1.256 . S
C55 O61 1.278 . S
C55 O62 1.241 . S
C56 O42 1.244 . S
C56 O44 1.256 . S
C57 O46 1.239 . S
C57 O50 1.256 . S
C58 O47 1.278 . S
C58 O53 1.241 . S
C59 O49 1.244 . S
C59 O54 1.256 . S
C60 O51 1.239 . S
C60 O52 1.256 . S
O61 Mn43 2.221 . S
O61 Mn45 2.290 . S
O61 C55 1.278 . S
O62 Mn45 2.251 . S
O62 C55 1.241 . S
O63 Mn64 2.163 1_565 S
O63 C77 1.244 . S
Mn64 O63 2.163 1_545 S
Mn64 O67 2.160 . S
Mn64 O68 2.221 1_545 S
Mn64 O70 2.167 . S
Mn64 O72 2.160 . S
Mn64 O82 2.221 . S
O65 Mn66 2.087 1_565 S
O65 C77 1.256 . S
Mn66 O65 2.087 1_545 S
Mn66 O73 2.089 . S
Mn66 O82 2.290 . S
Mn66 O83 2.251 . S
O67 Mn64 2.160 . S
O67 C78 1.239 . S
O68 Mn64 2.221 1_565 S
O68 Mn69 2.290 . S
O68 C79 1.278 . S
Mn69 O68 2.290 . S
Mn69 O71 2.089 1_565 S
Mn69 O74 2.251 . S
Mn69 O75 2.087 . S
O70 Mn64 2.167 . S
O70 C80 1.235 1_545 S
O71 Mn69 2.089 1_545 S
O71 C78 1.256 . S
O72 Mn64 2.160 . S
O72 C81 1.239 . S
O73 Mn66 2.089 . S
O73 C81 1.256 . S
O74 Mn69 2.251 . S
O74 C79 1.241 . S
O75 Mn69 2.087 . S
O75 C80 1.256 . S
C76 O82 1.278 . S
C76 O83 1.241 . S
C77 O63 1.244 . S
C77 O65 1.256 . S
C78 O67 1.239 . S
C78 O71 1.256 . S
C79 O68 1.278 . S
C79 O74 1.241 . S
C80 O70 1.235 1_565 S
C80 O75 1.256 . S
C81 O72 1.239 . S
C81 O73 1.256 . S
O82 Mn64 2.221 . S
O82 Mn66 2.290 . S
O82 C76 1.278 . S
O83 Mn66 2.251 . S
O83 C76 1.241 . S
O84 Mn85 2.163 . S
O84 C98 1.244 . S
Mn85 O84 2.163 . S
Mn85 O88 2.160 . S
Mn85 O89 2.221 . S
Mn85 O91 2.163 . S
Mn85 O93 2.160 . S
Mn85 O103 2.221 . S
O86 Mn87 2.087 . S
O86 C98 1.256 . S
Mn87 O86 2.087 . S
Mn87 O94 2.089 . S
Mn87 O103 2.290 . S
Mn87 O104 2.251 . S
O88 Mn85 2.160 . S
O88 C99 1.239 . S
O89 Mn85 2.221 . S
O89 Mn90 2.290 . S
O89 C100 1.278 . S
Mn90 O89 2.290 . S
Mn90 O92 2.089 . S
Mn90 O95 2.251 . S
Mn90 O96 2.087 . S
O91 Mn85 2.163 . S
O91 C101 1.244 . S
O92 Mn90 2.089 . S
O92 C99 1.256 . S
O93 Mn85 2.160 . S
O93 C102 1.239 . S
O94 Mn87 2.089 . S
O94 C102 1.256 . S
O95 Mn90 2.251 . S
O95 C100 1.241 . S
O96 Mn90 2.087 . S
O96 C101 1.256 . S
C97 O103 1.278 . S
C97 O104 1.241 . S
C98 O84 1.244 . S
C98 O86 1.256 . S
C99 O88 1.239 . S
C99 O92 1.256 . S
C100 O89 1.278 . S
C100 O95 1.241 . S
C101 O91 1.244 . S
C101 O96 1.256 . S
C102 O93 1.239 . S
C102 O94 1.256 . S
O103 Mn85 2.221 . S
O103 Mn87 2.290 . S
O103 C97 1.278 . S
O104 Mn87 2.251 . S
O104 C97 1.241 . S
O105 Mn106 2.163 . S
O105 C119 1.244 . S
Mn106 O105 2.163 . S
Mn106 O109 2.160 . S
Mn106 O110 2.221 . S
Mn106 O112 2.163 . S
Mn106 O114 2.160 . S
Mn106 O124 2.221 . S
O107 Mn108 2.087 . S
O107 C119 1.256 . S
Mn108 O107 2.087 . S
Mn108 O115 2.089 . S
Mn108 O124 2.290 . S
Mn108 O125 2.251 . S
O109 Mn106 2.160 . S
O109 C120 1.239 . S
O110 Mn106 2.221 . S
O110 Mn111 2.290 . S
O110 C121 1.278 . S
Mn111 O110 2.290 . S
Mn111 O113 2.089 . S
Mn111 O116 2.251 . S
Mn111 O117 2.087 . S
O112 Mn106 2.163 . S
O112 C122 1.244 . S
O113 Mn111 2.089 . S
O113 C120 1.256 . S
O114 Mn106 2.160 . S
O114 C123 1.239 . S
O115 Mn108 2.089 . S
O115 C123 1.256 . S
O116 Mn111 2.251 . S
O116 C121 1.241 . S
O117 Mn111 2.087 . S
O117 C122 1.256 . S
C118 O124 1.278 . S
C118 O125 1.241 . S
C119 O105 1.244 . S
C119 O107 1.256 . S
C120 O109 1.239 . S
C120 O113 1.256 . S
C121 O110 1.278 . S
C121 O116 1.241 . S
C122 O112 1.244 . S
C122 O117 1.256 . S
C123 O114 1.239 . S
C123 O115 1.256 . S
O124 Mn106 2.221 . S
O124 Mn108 2.290 . S
O124 C118 1.278 . S
O125 Mn108 2.251 . S
O125 C118 1.241 . S
O126 Mn127 2.163 . S
O126 C140 1.244 . S
Mn127 O126 2.163 . S
Mn127 O130 2.160 . S
Mn127 O131 2.221 . S
Mn127 O133 2.163 . S
Mn127 O135 2.160 . S
Mn127 O145 2.221 . S
O128 Mn129 2.087 . S
O128 C140 1.256 . S
Mn129 O128 2.087 . S
Mn129 O136 2.089 . S
Mn129 O145 2.290 . S
Mn129 O146 2.251 . S
O130 Mn127 2.160 . S
O130 C141 1.239 . S
O131 Mn127 2.221 . S
O131 Mn132 2.290 . S
O131 C142 1.278 . S
Mn132 O131 2.290 . S
Mn132 O134 2.089 . S
Mn132 O137 2.251 . S
Mn132 O138 2.087 . S
O133 Mn127 2.163 . S
O133 C143 1.244 . S
O134 Mn132 2.089 . S
O134 C141 1.256 . S
O135 Mn127 2.160 . S
O135 C144 1.239 . S
O136 Mn129 2.089 . S
O136 C144 1.256 . S
O137 Mn132 2.251 . S
O137 C142 1.241 . S
O138 Mn132 2.087 . S
O138 C143 1.256 . S
C139 O145 1.278 . S
C139 O146 1.241 . S
C140 O126 1.244 . S
C140 O128 1.256 . S
C141 O130 1.239 . S
C141 O134 1.256 . S
C142 O131 1.278 . S
C142 O137 1.241 . S
C143 O133 1.244 . S
C143 O138 1.256 . S
C144 O135 1.239 . S
C144 O136 1.256 . S
O145 Mn127 2.221 . S
O145 Mn129 2.290 . S
O145 C139 1.278 . S
O146 Mn129 2.251 . S
O146 C139 1.241 . S
O147 Mn148 2.160 1_655 S
O147 C161 1.251 . S
Mn148 O147 2.160 1_455 S
Mn148 O151 2.160 . S
Mn148 O152 2.221 . S
Mn148 O154 2.163 1_455 S
Mn148 O156 2.160 . S
Mn148 O166 2.221 1_455 S
O149 Mn150 2.087 . S
O149 C161 1.256 . S
Mn150 O149 2.087 . S
Mn150 O157 2.089 1_655 S
Mn150 O166 2.290 . S
Mn150 O167 2.251 . S
O151 Mn148 2.160 . S
O151 C162 1.239 . S
O152 Mn148 2.221 . S
O152 Mn153 2.290 . S
O152 C163 1.278 . S
Mn153 O152 2.290 . S
Mn153 O155 2.089 . S
Mn153 O158 2.251 . S
Mn153 O159 2.087 1_455 S
O154 Mn148 2.163 1_655 S
O154 C164 1.244 . S
O155 Mn153 2.089 . S
O155 C162 1.256 . S
O156 Mn148 2.160 . S
O156 C165 1.239 . S
O157 Mn150 2.089 1_455 S
O157 C165 1.256 . S
O158 Mn153 2.251 . S
O158 C163 1.241 . S
O159 Mn153 2.087 1_655 S
O159 C164 1.256 . S
C160 O166 1.278 . S
C160 O167 1.241 . S
C161 O147 1.251 . S
C161 O149 1.256 . S
C162 O151 1.239 . S
C162 O155 1.256 . S
C163 O152 1.278 . S
C163 O158 1.241 . S
C164 O154 1.244 . S
C164 O159 1.256 . S
C165 O156 1.239 . S
C165 O157 1.256 . S
O166 Mn148 2.221 1_655 S
O166 Mn150 2.290 . S
O166 C160 1.278 . S
O167 Mn150 2.251 . S
O167 C160 1.241 . S
O168 Mn169 2.163 . S
O168 C182 1.244 . S
Mn169 O168 2.163 . S
Mn169 O172 2.160 1_554 S
Mn169 O173 2.221 . S
Mn169 O175 2.163 . S
Mn169 O177 2.160 1_554 S
Mn169 O187 2.221 1_554 S
O170 Mn171 2.087 1_554 S
O170 C182 1.256 . S
Mn171 O170 2.087 1_556 S
Mn171 O178 2.089 . S
Mn171 O187 2.290 . S
Mn171 O188 2.251 . S
O172 Mn169 2.160 1_556 S
O172 C183 1.239 . S
O173 Mn169 2.221 . S
O173 Mn174 2.290 . S
O173 C184 1.278 . S
Mn174 O173 2.290 . S
Mn174 O176 2.089 1_554 S
Mn174 O179 2.251 . S
Mn174 O180 2.087 . S
O175 Mn169 2.163 . S
O175 C185 1.244 . S
O176 Mn174 2.089 1_556 S
O176 C183 1.256 . S
O177 Mn169 2.160 1_556 S
O177 C186 1.239 . S
O178 Mn171 2.089 . S
O178 C186 1.256 . S
O179 Mn174 2.251 . S
O179 C184 1.241 . S
O180 Mn174 2.087 . S
O180 C185 1.256 . S
C181 O187 1.278 . S
C181 O188 1.241 . S
C182 O168 1.244 . S
C182 O170 1.256 . S
C183 O172 1.239 . S
C183 O176 1.256 . S
C184 O173 1.278 . S
C184 O179 1.241 . S
C185 O175 1.244 . S
C185 O180 1.256 . S
C186 O177 1.239 . S
C186 O178 1.256 . S
O187 Mn169 2.221 1_556 S
O187 Mn171 2.290 . S
O187 C181 1.278 . S
O188 Mn171 2.251 . S
O188 C181 1.241 . S
O189 Mn190 2.163 1_565 S
O189 C203 1.244 . S
Mn190 O189 2.163 1_545 S
Mn190 O193 2.160 . S
Mn190 O194 2.221 1_545 S
Mn190 O196 2.163 . S
Mn190 O198 2.160 . S
Mn190 O208 2.221 . S
O191 Mn192 2.087 1_565 S
O191 C203 1.256 . S
Mn192 O191 2.087 1_545 S
Mn192 O199 2.089 . S
Mn192 O208 2.290 . S
Mn192 O209 2.251 . S
O193 Mn190 2.160 . S
O193 C204 1.239 . S
O194 Mn190 2.221 1_565 S
O194 Mn195 2.290 . S
O194 C205 1.278 . S
Mn195 O194 2.290 . S
Mn195 O197 2.089 1_565 S
Mn195 O200 2.251 . S
Mn195 O201 2.087 . S
O196 Mn190 2.163 . S
O196 C206 1.244 1_545 S
O197 Mn195 2.089 1_545 S
O197 C204 1.256 . S
O198 Mn190 2.160 . S
O198 C207 1.239 . S
O199 Mn192 2.089 . S
O199 C207 1.256 . S
O200 Mn195 2.251 . S
O200 C205 1.241 . S
O201 Mn195 2.087 . S
O201 C206 1.256 . S
C202 O208 1.278 . S
C202 O209 1.241 . S
C203 O189 1.244 . S
C203 O191 1.256 . S
C204 O193 1.239 . S
C204 O197 1.256 . S
C205 O194 1.278 . S
C205 O200 1.241 . S
C206 O196 1.244 1_565 S
C206 O201 1.256 . S
C207 O198 1.239 . S
C207 O199 1.256 . S
O208 Mn190 2.221 . S
O208 Mn192 2.290 . S
O208 C202 1.278 . S
O209 Mn192 2.251 . S
O209 C202 1.241 . S
O210 Mn211 2.163 . S
O210 C224 1.244 . S
Mn211 O210 2.163 . S
Mn211 O214 2.160 . S
Mn211 O215 2.221 . S
Mn211 O217 2.163 . S
Mn211 O219 2.160 . S
Mn211 O229 2.221 . S
O212 Mn213 2.087 . S
O212 C224 1.256 . S
Mn213 O212 2.087 . S
Mn213 O220 2.089 . S
Mn213 O229 2.290 . S
Mn213 O230 2.251 . S
O214 Mn211 2.160 . S
O214 C225 1.239 . S
O215 Mn211 2.221 . S
O215 Mn216 2.290 . S
O215 C226 1.278 . S
Mn216 O215 2.290 . S
Mn216 O218 2.089 . S
Mn216 O221 2.251 . S
Mn216 O222 2.087 . S
O217 Mn211 2.163 . S
O217 C227 1.244 . S
O218 Mn216 2.089 . S
O218 C225 1.256 . S
O219 Mn211 2.160 . S
O219 C228 1.239 . S
O220 Mn213 2.089 . S
O220 C228 1.256 . S
O221 Mn216 2.251 . S
O221 C226 1.241 . S
O222 Mn216 2.087 . S
O222 C227 1.256 . S
C223 O229 1.278 . S
C223 O230 1.241 . S
C224 O210 1.244 . S
C224 O212 1.256 . S
C225 O214 1.239 . S
C225 O218 1.256 . S
C226 O215 1.278 . S
C226 O221 1.241 . S
C227 O217 1.244 . S
C227 O222 1.256 . S
C228 O219 1.239 . S
C228 O220 1.256 . S
O229 Mn211 2.221 . S
O229 Mn213 2.290 . S
O229 C223 1.278 . S
O230 Mn213 2.251 . S
O230 C223 1.241 . S
O231 Mn232 2.163 . S
O231 C245 1.244 . S
Mn232 O231 2.163 . S
Mn232 O235 2.160 1_455 S
Mn232 O236 2.221 . S
Mn232 O238 2.163 . S
Mn232 O240 2.160 1_455 S
Mn232 O250 2.221 1_455 S
O233 Mn234 2.087 1_455 S
O233 C245 1.256 . S
Mn234 O233 2.087 1_655 S
Mn234 O241 2.089 . S
Mn234 O250 2.290 . S
Mn234 O251 2.251 . S
O235 Mn232 2.160 1_655 S
O235 C246 1.239 . S
O236 Mn232 2.221 . S
O236 Mn237 2.290 . S
O236 C247 1.278 . S
Mn237 O236 2.290 . S
Mn237 O239 2.089 1_455 S
Mn237 O242 2.251 . S
Mn237 O243 2.087 . S
O238 Mn232 2.163 . S
O238 C248 1.244 . S
O239 Mn237 2.089 1_655 S
O239 C246 1.256 . S
O240 Mn232 2.160 1_655 S
O240 C249 1.239 . S
O241 Mn234 2.089 . S
O241 C249 1.256 . S
O242 Mn237 2.251 . S
O242 C247 1.241 . S
O243 Mn237 2.087 . S
O243 C248 1.256 . S
C244 O250 1.278 . S
C244 O251 1.241 . S
C245 O231 1.244 . S
C245 O233 1.256 . S
C246 O235 1.239 . S
C246 O239 1.256 . S
C247 O236 1.278 . S
C247 O242 1.241 . S
C248 O238 1.244 . S
C248 O243 1.256 . S
C249 O240 1.239 . S
C249 O241 1.256 . S
O250 Mn232 2.221 1_655 S
O250 Mn234 2.290 . S
O250 C244 1.278 . S
O251 Mn234 2.251 . S
O251 C244 1.241 . S
O252 Mn253 2.163 . S
O252 C266 1.244 . S
Mn253 O252 2.163 . S
Mn253 O256 2.160 . S
Mn253 O257 2.221 . S
Mn253 O259 2.163 . S
Mn253 O261 2.160 . S
Mn253 O271 2.221 . S
O254 Mn255 2.087 . S
O254 C266 1.256 . S
Mn255 O254 2.087 . S
Mn255 O262 2.089 . S
Mn255 O271 2.290 . S
Mn255 O272 2.251 . S
O256 Mn253 2.160 . S
O256 C267 1.239 . S
O257 Mn253 2.221 . S
O257 Mn258 2.290 . S
O257 C268 1.278 . S
Mn258 O257 2.290 . S
Mn258 O260 2.089 . S
Mn258 O263 2.251 . S
Mn258 O264 2.087 . S
O259 Mn253 2.163 . S
O259 C269 1.244 . S
O260 Mn258 2.089 . S
O260 C267 1.256 . S
O261 Mn253 2.160 . S
O261 C270 1.239 . S
O262 Mn255 2.089 . S
O262 C270 1.256 . S
O263 Mn258 2.251 . S
O263 C268 1.241 . S
O264 Mn258 2.087 . S
O264 C269 1.256 . S
C265 O271 1.278 . S
C265 O272 1.241 . S
C266 O252 1.244 . S
C266 O254 1.256 . S
C267 O256 1.239 . S
C267 O260 1.256 . S
C268 O257 1.278 . S
C268 O263 1.241 . S
C269 O259 1.244 . S
C269 O264 1.256 . S
C270 O261 1.239 . S
C270 O262 1.256 . S
O271 Mn253 2.221 . S
O271 Mn255 2.290 . S
O271 C265 1.278 . S
O272 Mn255 2.251 . S
O272 C265 1.241 . S
O273 Mn274 2.163 . S
O273 C287 1.244 . S
Mn274 O273 2.163 . S
Mn274 O277 2.160 1_554 S
Mn274 O278 2.221 . S
Mn274 O280 2.163 . S
Mn274 O282 2.160 1_554 S
Mn274 O292 2.221 1_554 S
O275 Mn276 2.087 1_554 S
O275 C287 1.256 . S
Mn276 O275 2.087 1_556 S
Mn276 O283 2.089 . S
Mn276 O292 2.290 . S
Mn276 O293 2.251 . S
O277 Mn274 2.160 1_556 S
O277 C288 1.239 . S
O278 Mn274 2.221 . S
O278 Mn279 2.290 . S
O278 C289 1.278 . S
Mn279 O278 2.290 . S
Mn279 O281 2.089 1_554 S
Mn279 O284 2.251 . S
Mn279 O285 2.087 . S
O280 Mn274 2.163 . S
O280 C290 1.244 . S
O281 Mn279 2.089 1_556 S
O281 C288 1.256 . S
O282 Mn274 2.160 1_556 S
O282 C291 1.239 . S
O283 Mn276 2.089 . S
O283 C291 1.256 . S
O284 Mn279 2.251 . S
O284 C289 1.241 . S
O285 Mn279 2.087 . S
O285 C290 1.256 . S
C286 O292 1.278 . S
C286 O293 1.241 . S
C287 O273 1.244 . S
C287 O275 1.256 . S
C288 O277 1.239 . S
C288 O281 1.256 . S
C289 O278 1.278 . S
C289 O284 1.241 . S
C290 O280 1.244 . S
C290 O285 1.256 . S
C291 O282 1.239 . S
C291 O283 1.256 . S
O292 Mn274 2.221 1_556 S
O292 Mn276 2.290 . S
O292 C286 1.278 . S
O293 Mn276 2.251 . S
O293 C286 1.241 . S
O294 Mn295 2.163 . S
O294 C308 1.244 . S
Mn295 O294 2.163 . S
Mn295 O298 2.160 1_545 S
Mn295 O299 2.221 1_545 S
Mn295 O301 2.163 1_545 S
Mn295 O303 2.160 . S
Mn295 O313 2.221 . S
O296 Mn297 2.087 . S
O296 C308 1.256 . S
Mn297 O296 2.087 . S
Mn297 O304 2.089 . S
Mn297 O313 2.290 . S
Mn297 O314 2.251 . S
O298 Mn295 2.160 1_565 S
O298 C309 1.239 . S
O299 Mn295 2.221 1_565 S
O299 Mn300 2.290 . S
O299 C310 1.278 . S
Mn300 O299 2.290 . S
Mn300 O302 2.089 . S
Mn300 O305 2.251 . S
Mn300 O306 2.087 . S
O301 Mn295 2.163 1_565 S
O301 C311 1.244 . S
O302 Mn300 2.089 . S
O302 C309 1.256 . S
O303 Mn295 2.160 . S
O303 C312 1.239 . S
O304 Mn297 2.089 . S
O304 C312 1.256 . S
O305 Mn300 2.251 . S
O305 C310 1.241 . S
O306 Mn300 2.087 . S
O306 C311 1.256 . S
C307 O313 1.278 . S
C307 O314 1.241 . S
C308 O294 1.244 . S
C308 O296 1.256 . S
C309 O298 1.239 . S
C309 O302 1.256 . S
C310 O299 1.278 . S
C310 O305 1.241 . S
C311 O301 1.244 . S
C311 O306 1.256 . S
C312 O303 1.239 . S
C312 O304 1.256 . S
O313 Mn295 2.221 . S
O313 Mn297 2.290 . S
O313 C307 1.278 . S
O314 Mn297 2.251 . S
O314 C307 1.241 . S
O315 Mn316 2.163 1_556 S
O315 C329 1.244 . S
Mn316 O315 2.163 1_554 S
Mn316 O319 2.160 . S
Mn316 O320 2.221 1_554 S
Mn316 O322 2.166 . S
Mn316 O324 2.160 . S
Mn316 O334 2.221 . S
O317 Mn318 2.087 1_556 S
O317 C329 1.256 . S
Mn318 O317 2.087 1_554 S
Mn318 O325 2.089 . S
Mn318 O334 2.290 . S
Mn318 O335 2.251 . S
O319 Mn316 2.160 . S
O319 C330 1.239 . S
O320 Mn316 2.221 1_556 S
O320 Mn321 2.290 . S
O320 C331 1.278 . S
Mn321 O320 2.290 . S
Mn321 O323 2.089 1_556 S
Mn321 O326 2.251 . S
Mn321 O327 2.087 . S
O322 Mn316 2.166 . S
O322 C332 1.236 1_554 S
O323 Mn321 2.089 1_554 S
O323 C330 1.256 . S
O324 Mn316 2.160 . S
O324 C333 1.239 . S
O325 Mn318 2.089 . S
O325 C333 1.256 . S
O326 Mn321 2.251 . S
O326 C331 1.241 . S
O327 Mn321 2.087 . S
O327 C332 1.256 . S
C328 O334 1.278 . S
C328 O335 1.241 . S
C329 O315 1.244 . S
C329 O317 1.256 . S
C330 O319 1.239 . S
C330 O323 1.256 . S
C331 O320 1.278 . S
C331 O326 1.241 . S
C332 O322 1.236 1_556 S
C332 O327 1.256 . S
C333 O324 1.239 . S
C333 O325 1.256 . S
O334 Mn316 2.221 . S
O334 Mn318 2.290 . S
O334 C328 1.278 . S
O335 Mn318 2.251 . S
O335 C328 1.241 . S
H336 C344 0.950 . S
H337 C349 0.950 . S
H338 C346 0.950 . S
H339 C348 0.950 . S
H340 C350 0.950 . S
H341 C352 0.950 . S
H342 C354 0.950 . S
H343 C355 0.950 . S
C344 H336 0.950 . S
C344 C345 1.386 . S
C344 C346 1.391 . S
C345 C344 1.386 . S
C345 C349 1.393 . S
C346 H338 0.950 . S
C346 C344 1.391 . S
C346 C347 1.400 . S
C347 C346 1.400 . S
C347 C348 1.398 . S
C347 C353 1.491 . S
C348 H339 0.950 . S
C348 C347 1.398 . S
C348 C349 1.391 . S
C349 H337 0.950 . S
C349 C345 1.393 . S
C349 C348 1.391 . S
C350 H340 0.950 . S
C350 C351 1.386 . S
C350 C352 1.391 . S
C351 C350 1.386 . S
C351 C355 1.393 . S
C352 H341 0.950 . S
C352 C350 1.391 . S
C352 C353 1.400 . S
C353 C347 1.491 . S
C353 C352 1.400 . S
C353 C354 1.398 . S
C354 H342 0.950 . S
C354 C353 1.398 . S
C354 C355 1.391 . S
C355 H343 0.950 . S
C355 C351 1.393 . S
C355 C354 1.391 . S
H356 C364 0.950 . S
H357 C369 0.950 . S
H358 C366 0.950 . S
H359 C368 0.950 . S
H360 C370 0.950 . S
H361 C372 0.950 . S
H362 C374 0.950 . S
H363 C375 0.950 . S
C364 H356 0.950 . S
C364 C365 1.386 . S
C364 C366 1.391 . S
C365 C364 1.386 . S
C365 C369 1.393 . S
C366 H358 0.950 . S
C366 C364 1.391 . S
C366 C367 1.400 . S
C367 C366 1.400 . S
C367 C368 1.398 . S
C367 C373 1.491 . S
C368 H359 0.950 . S
C368 C367 1.398 . S
C368 C369 1.391 . S
C369 H357 0.950 . S
C369 C365 1.393 . S
C369 C368 1.391 . S
C370 H360 0.950 . S
C370 C371 1.386 . S
C370 C372 1.391 . S
C371 C370 1.386 . S
C371 C375 1.393 . S
C372 H361 0.950 . S
C372 C370 1.391 . S
C372 C373 1.400 . S
C373 C367 1.491 . S
C373 C372 1.400 . S
C373 C374 1.398 . S
C374 H362 0.950 . S
C374 C373 1.398 . S
C374 C375 1.391 . S
C375 H363 0.950 . S
C375 C371 1.393 . S
C375 C374 1.391 . S
H376 C384 0.950 . S
H377 C389 0.950 . S
H378 C386 0.950 . S
H379 C388 0.950 . S
H380 C390 0.950 . S
H381 C392 0.950 . S
H382 C394 0.950 . S
H383 C395 0.950 . S
C384 H376 0.950 . S
C384 C385 1.386 . S
C384 C386 1.391 . S
C385 C384 1.386 . S
C385 C389 1.393 . S
C386 H378 0.950 . S
C386 C384 1.391 . S
C386 C387 1.400 . S
C387 C386 1.400 . S
C387 C388 1.398 . S
C387 C393 1.491 . S
C388 H379 0.950 . S
C388 C387 1.398 . S
C388 C389 1.391 . S
C389 H377 0.950 . S
C389 C385 1.393 . S
C389 C388 1.391 . S
C390 H380 0.950 . S
C390 C391 1.386 . S
C390 C392 1.391 . S
C391 C390 1.386 . S
C391 C395 1.393 . S
C392 H381 0.950 . S
C392 C390 1.391 . S
C392 C393 1.400 . S
C393 C387 1.491 . S
C393 C392 1.400 . S
C393 C394 1.398 . S
C394 H382 0.950 . S
C394 C393 1.398 . S
C394 C395 1.391 . S
C395 H383 0.950 . S
C395 C391 1.393 . S
C395 C394 1.391 . S
H396 C404 0.950 . S
H397 C409 0.950 . S
H398 C406 0.950 . S
H399 C408 0.950 . S
H400 C410 0.981 . S
H401 C412 0.950 . S
H402 C414 0.950 . S
H403 C415 0.950 . S
C404 H396 0.950 . S
C404 C405 1.386 . S
C404 C406 1.391 . S
C405 C404 1.386 . S
C405 C409 1.393 1_545 S
C406 H398 0.950 . S
C406 C404 1.391 . S
C406 C407 1.400 . S
C407 C406 1.400 . S
C407 C408 1.398 1_545 S
C407 C413 1.491 . S
C408 H399 0.950 . S
C408 C407 1.398 1_565 S
C408 C409 1.391 . S
C409 H397 0.950 . S
C409 C405 1.393 1_565 S
C409 C408 1.391 . S
C410 H400 0.981 . S
C410 C411 1.354 1_565 S
C410 C412 1.392 . S
C411 C410 1.354 1_545 S
C411 C415 1.393 . S
C412 H401 0.950 . S
C412 C410 1.392 . S
C412 C413 1.400 1_565 S
C413 C407 1.491 . S
C413 C412 1.400 1_545 S
C413 C414 1.398 . S
C414 H402 0.950 . S
C414 C413 1.398 . S
C414 C415 1.391 . S
C415 H403 0.950 . S
C415 C411 1.393 . S
C415 C414 1.391 . S
H416 C424 0.950 . S
H417 C429 0.950 . S
H418 C426 0.950 . S
H419 C428 0.950 . S
H420 C430 0.950 . S
H421 C432 0.950 . S
H422 C434 0.950 . S
H423 C435 0.950 . S
C424 H416 0.950 . S
C424 C425 1.386 . S
C424 C426 1.391 . S
C425 C424 1.386 . S
C425 C429 1.393 . S
C426 H418 0.950 . S
C426 C424 1.391 . S
C426 C427 1.400 . S
C427 C426 1.400 . S
C427 C428 1.398 . S
C427 C433 1.491 . S
C428 H419 0.950 . S
C428 C427 1.398 . S
C428 C429 1.391 . S
C429 H417 0.950 . S
C429 C425 1.393 . S
C429 C428 1.391 . S
C430 H420 0.950 . S
C430 C431 1.386 . S
C430 C432 1.391 . S
C431 C430 1.386 . S
C431 C435 1.393 . S
C432 H421 0.950 . S
C432 C430 1.391 . S
C432 C433 1.400 . S
C433 C427 1.491 . S
C433 C432 1.400 . S
C433 C434 1.398 . S
C434 H422 0.950 . S
C434 C433 1.398 . S
C434 C435 1.391 . S
C435 H423 0.950 . S
C435 C431 1.393 . S
C435 C434 1.391 . S
H436 C444 0.950 . S
H437 C449 0.950 1_655 S
H438 C446 0.950 . S
H439 C448 0.950 1_655 S
H440 C450 0.950 1_655 S
H441 C452 0.950 1_655 S
H442 C454 0.950 . S
H443 C455 0.950 . S
C444 H436 0.950 . S
C444 C445 1.386 . S
C444 C446 1.391 . S
C445 C444 1.386 . S
C445 C449 1.393 . S
C446 H438 0.950 . S
C446 C444 1.391 . S
C446 C447 1.400 . S
C447 C446 1.400 . S
C447 C448 1.398 . S
C447 C453 1.491 . S
C448 H439 0.950 1_455 S
C448 C447 1.398 . S
C448 C449 1.391 . S
C449 H437 0.950 1_455 S
C449 C445 1.393 . S
C449 C448 1.391 . S
C450 H440 0.950 1_455 S
C450 C451 1.386 . S
C450 C452 1.391 . S
C451 C450 1.386 . S
C451 C455 1.393 . S
C452 H441 0.950 1_455 S
C452 C450 1.391 . S
C452 C453 1.400 . S
C453 C447 1.491 . S
C453 C452 1.400 . S
C453 C454 1.398 . S
C454 H442 0.950 . S
C454 C453 1.398 . S
C454 C455 1.391 . S
C455 H443 0.950 . S
C455 C451 1.393 . S
C455 C454 1.391 . S
H456 C464 0.950 . S
H457 C469 0.950 . S
H458 C466 0.950 . S
H459 C468 0.950 . S
H460 C470 0.950 . S
H461 C472 0.950 . S
H462 C474 0.950 . S
H463 C475 0.950 . S
C464 H456 0.950 . S
C464 C465 1.386 . S
C464 C466 1.391 . S
C465 C464 1.386 . S
C465 C469 1.393 . S
C466 H458 0.950 . S
C466 C464 1.391 . S
C466 C467 1.400 . S
C467 C466 1.400 . S
C467 C468 1.398 . S
C467 C473 1.491 . S
C468 H459 0.950 . S
C468 C467 1.398 . S
C468 C469 1.391 . S
C469 H457 0.950 . S
C469 C465 1.393 . S
C469 C468 1.391 . S
C470 H460 0.950 . S
C470 C471 1.386 . S
C470 C472 1.391 . S
C471 C470 1.386 . S
C471 C475 1.393 . S
C472 H461 0.950 . S
C472 C470 1.391 . S
C472 C473 1.400 . S
C473 C467 1.491 . S
C473 C472 1.400 . S
C473 C474 1.398 . S
C474 H462 0.950 . S
C474 C473 1.398 . S
C474 C475 1.391 . S
C475 H463 0.950 . S
C475 C471 1.393 . S
C475 C474 1.391 . S
H476 C484 0.950 . S
H477 C489 0.950 . S
H478 C486 0.950 . S
H479 C488 0.950 . S
H480 C490 0.950 . S
H481 C492 0.950 . S
H482 C494 0.950 . S
H483 C495 0.950 . S
C484 H476 0.950 . S
C484 C485 1.386 . S
C484 C486 1.391 . S
C485 C484 1.386 . S
C485 C489 1.393 . S
C486 H478 0.950 . S
C486 C484 1.391 . S
C486 C487 1.400 . S
C487 C486 1.400 . S
C487 C488 1.398 . S
C487 C493 1.491 . S
C488 H479 0.950 . S
C488 C487 1.398 . S
C488 C489 1.391 . S
C489 H477 0.950 . S
C489 C485 1.393 . S
C489 C488 1.391 . S
C490 H480 0.950 . S
C490 C491 1.386 . S
C490 C492 1.391 . S
C491 C490 1.386 . S
C491 C495 1.393 . S
C492 H481 0.950 . S
C492 C490 1.391 . S
C492 C493 1.400 . S
C493 C487 1.491 . S
C493 C492 1.400 . S
C493 C494 1.398 . S
C494 H482 0.950 . S
C494 C493 1.398 . S
C494 C495 1.391 . S
C495 H483 0.950 . S
C495 C491 1.393 . S
C495 C494 1.391 . S
H496 C504 0.950 . S
H497 C509 0.950 . S
H498 C506 0.950 . S
H499 C508 0.950 . S
H500 C510 0.950 . S
H501 C512 0.950 . S
H502 C514 0.950 . S
H503 C515 0.950 . S
C504 H496 0.950 . S
C504 C505 1.386 . S
C504 C506 1.391 . S
C505 C504 1.386 . S
C505 C509 1.393 . S
C506 H498 0.950 . S
C506 C504 1.391 . S
C506 C507 1.400 . S
C507 C506 1.400 . S
C507 C508 1.398 . S
C507 C513 1.491 . S
C508 H499 0.950 . S
C508 C507 1.398 . S
C508 C509 1.391 . S
C509 H497 0.950 . S
C509 C505 1.393 . S
C509 C508 1.391 . S
C510 H500 0.950 . S
C510 C511 1.386 . S
C510 C512 1.391 . S
C511 C510 1.386 . S
C511 C515 1.393 . S
C512 H501 0.950 . S
C512 C510 1.391 . S
C512 C513 1.400 . S
C513 C507 1.491 . S
C513 C512 1.400 . S
C513 C514 1.398 . S
C514 H502 0.950 . S
C514 C513 1.398 . S
C514 C515 1.391 . S
C515 H503 0.950 . S
C515 C511 1.393 . S
C515 C514 1.391 . S
H516 C524 0.950 . S
H517 C529 0.950 . S
H518 C526 0.950 . S
H519 C528 0.950 . S
H520 C530 0.950 . S
H521 C532 0.950 . S
H522 C534 0.950 . S
H523 C535 0.950 . S
C524 H516 0.950 . S
C524 C525 1.386 . S
C524 C526 1.391 . S
C525 C524 1.386 . S
C525 C529 1.393 . S
C526 H518 0.950 . S
C526 C524 1.391 . S
C526 C527 1.400 . S
C527 C526 1.400 . S
C527 C528 1.398 . S
C527 C533 1.491 . S
C528 H519 0.950 . S
C528 C527 1.398 . S
C528 C529 1.391 . S
C529 H517 0.950 . S
C529 C525 1.393 . S
C529 C528 1.391 . S
C530 H520 0.950 . S
C530 C531 1.386 . S
C530 C532 1.391 . S
C531 C530 1.386 . S
C531 C535 1.393 . S
C532 H521 0.950 . S
C532 C530 1.391 . S
C532 C533 1.400 . S
C533 C527 1.491 . S
C533 C532 1.400 . S
C533 C534 1.398 . S
C534 H522 0.950 . S
C534 C533 1.398 . S
C534 C535 1.391 . S
C535 H523 0.950 . S
C535 C531 1.393 . S
C535 C534 1.391 . S
H536 C544 0.948 1_545 S
H537 C549 0.950 . S
H538 C546 0.951 1_545 S
H539 C548 0.950 . S
H540 C550 0.950 . S
H541 C552 0.950 . S
H542 C554 0.950 1_545 S
H543 C555 0.945 1_545 S
C544 H536 0.948 1_565 S
C544 C545 1.387 . S
C544 C546 1.391 . S
C545 C544 1.387 . S
C545 C549 1.393 . S
C546 H538 0.951 1_565 S
C546 C544 1.391 . S
C546 C547 1.399 . S
C547 C546 1.399 . S
C547 C548 1.398 . S
C547 C553 1.491 . S
C548 H539 0.950 . S
C548 C547 1.398 . S
C548 C549 1.391 . S
C549 H537 0.950 . S
C549 C545 1.393 . S
C549 C548 1.391 . S
C550 H540 0.950 . S
C550 C551 1.386 . S
C550 C552 1.391 . S
C551 C550 1.386 . S
C551 C555 1.397 . S
C552 H541 0.950 . S
C552 C550 1.391 . S
C552 C553 1.400 . S
C553 C547 1.491 . S
C553 C552 1.400 . S
C553 C554 1.398 . S
C554 H542 0.950 1_565 S
C554 C553 1.398 . S
C554 C555 1.391 . S
C555 H543 0.945 1_565 S
C555 C551 1.397 . S
C555 C554 1.391 . S
H556 C564 0.950 . S
H557 C569 0.934 1_655 S
H558 C566 0.950 . S
H559 C568 0.950 1_655 S
H560 C570 0.950 1_655 S
H561 C572 0.950 1_655 S
H562 C574 0.950 . S
H563 C575 0.950 . S
C564 H556 0.950 . S
C564 C565 1.386 . S
C564 C566 1.391 . S
C565 C564 1.386 . S
C565 C569 1.393 . S
C566 H558 0.950 . S
C566 C564 1.391 . S
C566 C567 1.400 . S
C567 C566 1.400 . S
C567 C568 1.398 . S
C567 C573 1.491 . S
C568 H559 0.950 1_455 S
C568 C567 1.398 . S
C568 C569 1.391 . S
C569 H557 0.934 1_455 S
C569 C565 1.393 . S
C569 C568 1.391 . S
C570 H560 0.950 1_455 S
C570 C571 1.386 . S
C570 C572 1.391 . S
C571 C570 1.386 . S
C571 C575 1.393 . S
C572 H561 0.950 1_455 S
C572 C570 1.391 . S
C572 C573 1.400 . S
C573 C567 1.491 . S
C573 C572 1.400 . S
C573 C574 1.398 . S
C574 H562 0.950 . S
C574 C573 1.398 . S
C574 C575 1.391 . S
C575 H563 0.950 . S
C575 C571 1.393 . S
C575 C574 1.391 . S
H576 C584 0.950 . S
H577 C589 0.950 . S
H578 C586 0.950 . S
H579 C588 0.950 . S
H580 C590 0.950 . S
H581 C592 0.950 . S
H582 C594 0.950 . S
H583 C595 0.950 . S
C584 H576 0.950 . S
C584 C585 1.386 . S
C584 C586 1.391 . S
C585 C584 1.386 . S
C585 C589 1.393 1_556 S
C586 H578 0.950 . S
C586 C584 1.391 . S
C586 C587 1.400 . S
C587 C586 1.400 . S
C587 C588 1.398 1_556 S
C587 C593 1.491 . S
C588 H579 0.950 . S
C588 C587 1.398 1_554 S
C588 C589 1.391 . S
C589 H577 0.950 . S
C589 C585 1.393 1_554 S
C589 C588 1.391 . S
C590 H580 0.950 . S
C590 C591 1.386 1_554 S
C590 C592 1.391 . S
C591 C590 1.386 1_556 S
C591 C595 1.393 . S
C592 H581 0.950 . S
C592 C590 1.391 . S
C592 C593 1.400 1_554 S
C593 C587 1.491 . S
C593 C592 1.400 1_556 S
C593 C594 1.398 . S
C594 H582 0.950 . S
C594 C593 1.398 . S
C594 C595 1.391 . S
C595 H583 0.950 . S
C595 C591 1.393 . S
C595 C594 1.391 . S
H596 C604 0.950 . S
H597 C609 0.950 . S
H598 C606 0.950 . S
H599 C608 0.950 . S
H600 C610 0.950 . S
H601 C612 0.950 . S
H602 C614 0.950 . S
H603 C615 0.950 . S
C604 H596 0.950 . S
C604 C605 1.386 . S
C604 C606 1.391 . S
C605 C604 1.386 . S
C605 C609 1.393 . S
C606 H598 0.950 . S
C606 C604 1.391 . S
C606 C607 1.400 . S
C607 C606 1.400 . S
C607 C608 1.398 . S
C607 C613 1.491 . S
C608 H599 0.950 . S
C608 C607 1.398 . S
C608 C609 1.391 . S
C609 H597 0.950 . S
C609 C605 1.393 . S
C609 C608 1.391 . S
C610 H600 0.950 . S
C610 C611 1.386 . S
C610 C612 1.391 . S
C611 C610 1.386 . S
C611 C615 1.393 . S
C612 H601 0.950 . S
C612 C610 1.391 . S
C612 C613 1.400 . S
C613 C607 1.491 . S
C613 C612 1.400 . S
C613 C614 1.398 . S
C614 H602 0.950 . S
C614 C613 1.398 . S
C614 C615 1.391 . S
C615 H603 0.950 . S
C615 C611 1.393 . S
C615 C614 1.391 . S
H616 C624 0.950 . S
H617 C629 0.950 . S
H618 C626 0.950 . S
H619 C628 0.950 . S
H620 C630 0.950 . S
H621 C632 0.950 . S
H622 C634 0.950 . S
H623 C635 0.950 . S
C624 H616 0.950 . S
C624 C625 1.386 . S
C624 C626 1.391 . S
C625 C624 1.386 . S
C625 C629 1.393 . S
C626 H618 0.950 . S
C626 C624 1.391 . S
C626 C627 1.400 . S
C627 C626 1.400 . S
C627 C628 1.398 . S
C627 C633 1.491 . S
C628 H619 0.950 . S
C628 C627 1.398 . S
C628 C629 1.391 . S
C629 H617 0.950 . S
C629 C625 1.393 . S
C629 C628 1.391 . S
C630 H620 0.950 . S
C630 C631 1.386 . S
C630 C632 1.391 . S
C631 C630 1.386 . S
C631 C635 1.393 . S
C632 H621 0.950 . S
C632 C630 1.391 . S
C632 C633 1.400 . S
C633 C627 1.491 . S
C633 C632 1.400 . S
C633 C634 1.398 . S
C634 H622 0.950 . S
C634 C633 1.398 . S
C634 C635 1.391 . S
C635 H623 0.950 . S
C635 C631 1.393 . S
C635 C634 1.391 . S
H636 C644 0.950 . S
H637 C649 0.950 . S
H638 C646 0.950 . S
H639 C648 0.950 . S
H640 C650 0.950 . S
H641 C652 0.950 . S
H642 C654 0.950 . S
H643 C655 0.950 . S
C644 H636 0.950 . S
C644 C645 1.386 . S
C644 C646 1.391 . S
C645 C644 1.386 . S
C645 C649 1.393 . S
C646 H638 0.950 . S
C646 C644 1.391 . S
C646 C647 1.400 . S
C647 C646 1.400 . S
C647 C648 1.398 . S
C647 C653 1.491 . S
C648 H639 0.950 . S
C648 C647 1.398 . S
C648 C649 1.391 . S
C649 H637 0.950 . S
C649 C645 1.393 . S
C649 C648 1.391 . S
C650 H640 0.950 . S
C650 C651 1.386 . S
C650 C652 1.391 . S
C651 C650 1.386 . S
C651 C655 1.393 . S
C652 H641 0.950 . S
C652 C650 1.391 . S
C652 C653 1.400 . S
C653 C647 1.491 . S
C653 C652 1.400 . S
C653 C654 1.398 . S
C654 H642 0.950 . S
C654 C653 1.398 . S
C654 C655 1.391 . S
C655 H643 0.950 . S
C655 C651 1.393 . S
C655 C654 1.391 . S
H656 C664 0.950 . S
H657 C669 0.950 . S
H658 C666 0.950 . S
H659 C668 0.950 . S
H660 C670 0.950 . S
H661 C672 0.950 . S
H662 C674 0.950 . S
H663 C675 0.950 . S
C664 H656 0.950 . S
C664 C665 1.386 . S
C664 C666 1.391 . S
C665 C664 1.386 . S
C665 C669 1.393 . S
C666 H658 0.950 . S
C666 C664 1.391 . S
C666 C667 1.400 . S
C667 C666 1.400 . S
C667 C668 1.398 . S
C667 C673 1.491 . S
C668 H659 0.950 . S
C668 C667 1.398 . S
C668 C669 1.391 . S
C669 H657 0.950 . S
C669 C665 1.393 . S
C669 C668 1.391 . S
C670 H660 0.950 . S
C670 C671 1.386 . S
C670 C672 1.391 . S
C671 C670 1.386 . S
C671 C675 1.393 . S
C672 H661 0.950 . S
C672 C670 1.391 . S
C672 C673 1.400 . S
C673 C667 1.491 . S
C673 C672 1.400 . S
C673 C674 1.398 . S
C674 H662 0.950 . S
C674 C673 1.398 . S
C674 C675 1.391 . S
C675 H663 0.950 . S
C675 C671 1.393 . S
C675 C674 1.391 . S
H676 C684 0.950 . S
H677 C689 0.950 . S
H678 C686 0.950 . S
H679 C688 0.950 . S
H680 C690 0.950 . S
H681 C692 0.950 . S
H682 C694 0.950 . S
H683 C695 0.950 . S
C684 H676 0.950 . S
C684 C685 1.386 . S
C684 C686 1.391 . S
C685 C684 1.386 . S
C685 C689 1.393 . S
C686 H678 0.950 . S
C686 C684 1.391 . S
C686 C687 1.400 . S
C687 C686 1.400 . S
C687 C688 1.398 . S
C687 C693 1.491 . S
C688 H679 0.950 . S
C688 C687 1.398 . S
C688 C689 1.391 . S
C689 H677 0.950 . S
C689 C685 1.393 . S
C689 C688 1.391 . S
C690 H680 0.950 . S
C690 C691 1.386 . S
C690 C692 1.391 . S
C691 C690 1.386 . S
C691 C695 1.393 . S
C692 H681 0.950 . S
C692 C690 1.391 . S
C692 C693 1.400 . S
C693 C687 1.491 . S
C693 C692 1.400 . S
C693 C694 1.398 . S
C694 H682 0.950 . S
C694 C693 1.398 . S
C694 C695 1.391 . S
C695 H683 0.950 . S
C695 C691 1.393 . S
C695 C694 1.391 . S
H696 C704 0.950 . S
H697 C709 0.950 . S
H698 C706 0.950 . S
H699 C708 0.950 . S
H700 C710 0.950 . S
H701 C712 0.950 . S
H702 C714 0.950 . S
H703 C715 0.950 . S
C704 H696 0.950 . S
C704 C705 1.386 . S
C704 C706 1.391 . S
C705 C704 1.386 . S
C705 C709 1.393 . S
C706 H698 0.950 . S
C706 C704 1.391 . S
C706 C707 1.400 . S
C707 C706 1.400 . S
C707 C708 1.398 . S
C707 C713 1.491 . S
C708 H699 0.950 . S
C708 C707 1.398 . S
C708 C709 1.391 . S
C709 H697 0.950 . S
C709 C705 1.393 . S
C709 C708 1.391 . S
C710 H700 0.950 . S
C710 C711 1.386 . S
C710 C712 1.391 . S
C711 C710 1.386 . S
C711 C715 1.393 . S
C712 H701 0.950 . S
C712 C710 1.391 . S
C712 C713 1.400 . S
C713 C707 1.491 . S
C713 C712 1.400 . S
C713 C714 1.398 . S
C714 H702 0.950 . S
C714 C713 1.398 . S
C714 C715 1.391 . S
C715 H703 0.950 . S
C715 C711 1.393 . S
C715 C714 1.391 . S
H716 C724 0.950 . S
H717 C729 0.950 . S
H718 C726 0.950 . S
H719 C728 0.950 . S
H720 C730 0.950 . S
H721 C732 0.950 . S
H722 C734 0.950 . S
H723 C735 0.950 . S
C724 H716 0.950 . S
C724 C725 1.386 . S
C724 C726 1.391 . S
C725 C724 1.386 . S
C725 C729 1.393 . S
C726 H718 0.950 . S
C726 C724 1.391 . S
C726 C727 1.400 . S
C727 C726 1.400 . S
C727 C728 1.398 . S
C727 C733 1.491 . S
C728 H719 0.950 . S
C728 C727 1.398 . S
C728 C729 1.391 . S
C729 H717 0.950 . S
C729 C725 1.393 . S
C729 C728 1.391 . S
C730 H720 0.950 . S
C730 C731 1.386 . S
C730 C732 1.391 . S
C731 C730 1.386 . S
C731 C735 1.393 . S
C732 H721 0.950 . S
C732 C730 1.391 . S
C732 C733 1.400 . S
C733 C727 1.491 . S
C733 C732 1.400 . S
C733 C734 1.398 . S
C734 H722 0.950 . S
C734 C733 1.398 . S
C734 C735 1.391 . S
C735 H723 0.950 . S
C735 C731 1.393 . S
C735 C734 1.391 . S
H736 C744 0.950 . S
H737 C749 0.950 . S
H738 C746 0.950 . S
H739 C748 0.950 . S
H740 C750 0.950 . S
H741 C752 0.950 . S
H742 C754 0.950 . S
H743 C755 0.950 . S
C744 H736 0.950 . S
C744 C745 1.386 . S
C744 C746 1.391 . S
C745 C744 1.386 . S
C745 C749 1.393 . S
C746 H738 0.950 . S
C746 C744 1.391 . S
C746 C747 1.400 . S
C747 C746 1.400 . S
C747 C748 1.398 . S
C747 C753 1.491 . S
C748 H739 0.950 . S
C748 C747 1.398 . S
C748 C749 1.391 . S
C749 H737 0.950 . S
C749 C745 1.393 . S
C749 C748 1.391 . S
C750 H740 0.950 . S
C750 C751 1.386 . S
C750 C752 1.391 . S
C751 C750 1.386 . S
C751 C755 1.393 . S
C752 H741 0.950 . S
C752 C750 1.391 . S
C752 C753 1.400 . S
C753 C747 1.491 . S
C753 C752 1.400 . S
C753 C754 1.398 . S
C754 H742 0.950 . S
C754 C753 1.398 . S
C754 C755 1.391 . S
C755 H743 0.950 . S
C755 C751 1.393 . S
C755 C754 1.391 . S
H756 C764 0.950 . S
H757 C769 0.950 . S
H758 C766 0.950 . S
H759 C768 0.950 . S
H760 C770 0.950 . S
H761 C772 0.950 . S
H762 C774 0.950 . S
H763 C775 0.950 . S
C764 H756 0.950 . S
C764 C765 1.386 . S
C764 C766 1.391 . S
C765 C764 1.386 . S
C765 C769 1.393 1_655 S
C766 H758 0.950 . S
C766 C764 1.391 . S
C766 C767 1.400 . S
C767 C766 1.400 . S
C767 C768 1.398 1_655 S
C767 C773 1.491 . S
C768 H759 0.950 . S
C768 C767 1.398 1_455 S
C768 C769 1.391 . S
C769 H757 0.950 . S
C769 C765 1.393 1_455 S
C769 C768 1.391 . S
C770 H760 0.950 . S
C770 C771 1.386 1_455 S
C770 C772 1.391 . S
C771 C770 1.386 1_655 S
C771 C775 1.393 . S
C772 H761 0.950 . S
C772 C770 1.391 . S
C772 C773 1.400 1_455 S
C773 C767 1.491 . S
C773 C772 1.400 1_655 S
C773 C774 1.398 . S
C774 H762 0.950 . S
C774 C773 1.398 . S
C774 C775 1.391 . S
C775 H763 0.950 . S
C775 C771 1.393 . S
C775 C774 1.391 . S
H776 C784 0.950 . S
H777 C789 0.950 . S
H778 C786 0.950 . S
H779 C788 0.950 . S
H780 C790 0.950 . S
H781 C792 0.950 . S
H782 C794 0.950 . S
H783 C795 0.950 . S
C784 H776 0.950 . S
C784 C785 1.386 . S
C784 C786 1.391 . S
C785 C784 1.386 . S
C785 C789 1.393 . S
C786 H778 0.950 . S
C786 C784 1.391 . S
C786 C787 1.400 . S
C787 C786 1.400 . S
C787 C788 1.398 . S
C787 C793 1.491 . S
C788 H779 0.950 . S
C788 C787 1.398 . S
C788 C789 1.391 . S
C789 H777 0.950 . S
C789 C785 1.393 . S
C789 C788 1.391 . S
C790 H780 0.950 . S
C790 C791 1.386 . S
C790 C792 1.391 . S
C791 C790 1.386 . S
C791 C795 1.393 . S
C792 H781 0.950 . S
C792 C790 1.391 . S
C792 C793 1.400 . S
C793 C787 1.491 . S
C793 C792 1.400 . S
C793 C794 1.398 . S
C794 H782 0.950 . S
C794 C793 1.398 . S
C794 C795 1.391 . S
C795 H783 0.950 . S
C795 C791 1.393 . S
C795 C794 1.391 . S
H796 C804 0.950 . S
H797 C809 0.950 . S
H798 C806 0.950 . S
H799 C808 0.950 . S
H800 C810 0.950 . S
H801 C812 0.950 . S
H802 C814 0.950 . S
H803 C815 0.950 . S
C804 H796 0.950 . S
C804 C805 1.386 . S
C804 C806 1.391 . S
C805 C804 1.386 . S
C805 C809 1.393 . S
C806 H798 0.950 . S
C806 C804 1.391 . S
C806 C807 1.400 . S
C807 C806 1.400 . S
C807 C808 1.398 . S
C807 C813 1.491 . S
C808 H799 0.950 . S
C808 C807 1.398 . S
C808 C809 1.391 . S
C809 H797 0.950 . S
C809 C805 1.393 . S
C809 C808 1.391 . S
C810 H800 0.950 . S
C810 C811 1.386 . S
C810 C812 1.391 . S
C811 C810 1.386 . S
C811 C815 1.393 . S
C812 H801 0.950 . S
C812 C810 1.391 . S
C812 C813 1.400 . S
C813 C807 1.491 . S
C813 C812 1.400 . S
C813 C814 1.398 . S
C814 H802 0.950 . S
C814 C813 1.398 . S
C814 C815 1.391 . S
C815 H803 0.950 . S
C815 C811 1.393 . S
C815 C814 1.391 . S
H816 C824 0.950 . S
H817 C829 0.950 . S
H818 C826 0.950 . S
H819 C828 0.950 . S
H820 C830 0.950 . S
H821 C832 0.950 . S
H822 C834 0.950 . S
H823 C835 0.950 . S
C824 H816 0.950 . S
C824 C825 1.386 . S
C824 C826 1.391 . S
C825 C824 1.386 . S
C825 C829 1.393 . S
C826 H818 0.950 . S
C826 C824 1.391 . S
C826 C827 1.400 . S
C827 C826 1.400 . S
C827 C828 1.398 . S
C827 C833 1.491 . S
C828 H819 0.950 . S
C828 C827 1.398 . S
C828 C829 1.391 . S
C829 H817 0.950 . S
C829 C825 1.393 . S
C829 C828 1.391 . S
C830 H820 0.950 . S
C830 C831 1.386 . S
C830 C832 1.391 . S
C831 C830 1.386 . S
C831 C835 1.393 . S
C832 H821 0.950 . S
C832 C830 1.391 . S
C832 C833 1.400 . S
C833 C827 1.491 . S
C833 C832 1.400 . S
C833 C834 1.398 . S
C834 H822 0.950 . S
C834 C833 1.398 . S
C834 C835 1.391 . S
C835 H823 0.950 . S
C835 C831 1.393 . S
C835 C834 1.391 . S
H836 C844 0.950 . S
H837 C849 0.950 . S
H838 C846 0.950 . S
H839 C848 0.950 . S
H840 C850 0.950 . S
H841 C852 0.950 . S
H842 C854 0.950 . S
H843 C855 0.950 . S
C844 H836 0.950 . S
C844 C845 1.386 . S
C844 C846 1.391 . S
C845 C844 1.386 . S
C845 C849 1.393 . S
C846 H838 0.950 . S
C846 C844 1.391 . S
C846 C847 1.400 . S
C847 C846 1.400 . S
C847 C848 1.398 . S
C847 C853 1.491 . S
C848 H839 0.950 . S
C848 C847 1.398 . S
C848 C849 1.391 . S
C849 H837 0.950 . S
C849 C845 1.393 . S
C849 C848 1.391 . S
C850 H840 0.950 . S
C850 C851 1.386 . S
C850 C852 1.391 . S
C851 C850 1.386 . S
C851 C855 1.393 . S
C852 H841 0.950 . S
C852 C850 1.391 . S
C852 C853 1.400 . S
C853 C847 1.491 . S
C853 C852 1.400 . S
C853 C854 1.398 . S
C854 H842 0.950 . S
C854 C853 1.398 . S
C854 C855 1.391 . S
C855 H843 0.950 . S
C855 C851 1.393 . S
C855 C854 1.391 . S
H856 C864 0.950 . S
H857 C869 0.950 . S
H858 C866 0.950 . S
H859 C868 0.950 . S
H860 C870 0.950 . S
H861 C872 0.950 . S
H862 C874 0.950 . S
H863 C875 0.950 . S
C864 H856 0.950 . S
C864 C865 1.386 . S
C864 C866 1.391 . S
C865 C864 1.386 . S
C865 C869 1.393 . S
C866 H858 0.950 . S
C866 C864 1.391 . S
C866 C867 1.400 . S
C867 C866 1.400 . S
C867 C868 1.398 . S
C867 C873 1.491 . S
C868 H859 0.950 . S
C868 C867 1.398 . S
C868 C869 1.391 . S
C869 H857 0.950 . S
C869 C865 1.393 . S
C869 C868 1.391 . S
C870 H860 0.950 . S
C870 C871 1.386 . S
C870 C872 1.391 . S
C871 C870 1.386 . S
C871 C875 1.393 . S
C872 H861 0.950 . S
C872 C870 1.391 . S
C872 C873 1.400 . S
C873 C867 1.491 . S
C873 C872 1.400 . S
C873 C874 1.398 . S
C874 H862 0.950 . S
C874 C873 1.398 . S
C874 C875 1.391 . S
C875 H863 0.950 . S
C875 C871 1.393 . S
C875 C874 1.391 . S
H876 C884 0.950 . S
H877 C889 0.950 1_556 S
H878 C886 0.950 . S
H879 C888 0.950 1_556 S
H880 C890 0.950 1_556 S
H881 C892 0.950 1_556 S
H882 C894 0.950 . S
H883 C895 0.950 . S
C884 H876 0.950 . S
C884 C885 1.386 . S
C884 C886 1.391 . S
C885 C884 1.386 . S
C885 C889 1.393 . S
C886 H878 0.950 . S
C886 C884 1.391 . S
C886 C887 1.400 . S
C887 C886 1.400 . S
C887 C888 1.398 . S
C887 C893 1.491 . S
C888 H879 0.950 1_554 S
C888 C887 1.398 . S
C888 C889 1.391 . S
C889 H877 0.950 1_554 S
C889 C885 1.393 . S
C889 C888 1.391 . S
C890 H880 0.950 1_554 S
C890 C891 1.386 . S
C890 C892 1.391 . S
C891 C890 1.386 . S
C891 C895 1.393 . S
C892 H881 0.950 1_554 S
C892 C890 1.391 . S
C892 C893 1.400 . S
C893 C887 1.491 . S
C893 C892 1.400 . S
C893 C894 1.398 . S
C894 H882 0.950 . S
C894 C893 1.398 . S
C894 C895 1.391 . S
C895 H883 0.950 . S
C895 C891 1.393 . S
C895 C894 1.391 . S
H896 C904 0.950 . S
H897 C909 0.950 . S
H898 C906 0.950 . S
H899 C908 0.950 . S
H900 C910 0.950 . S
H901 C912 0.950 . S
H902 C914 0.950 . S
H903 C915 0.950 . S
C904 H896 0.950 . S
C904 C905 1.386 . S
C904 C906 1.391 . S
C905 C904 1.386 . S
C905 C909 1.393 . S
C906 H898 0.950 . S
C906 C904 1.391 . S
C906 C907 1.400 . S
C907 C906 1.400 . S
C907 C908 1.398 . S
C907 C913 1.491 . S
C908 H899 0.950 . S
C908 C907 1.398 . S
C908 C909 1.391 . S
C909 H897 0.950 . S
C909 C905 1.393 . S
C909 C908 1.391 . S
C910 H900 0.950 . S
C910 C911 1.386 . S
C910 C912 1.391 . S
C911 C910 1.386 . S
C911 C915 1.393 . S
C912 H901 0.950 . S
C912 C910 1.391 . S
C912 C913 1.400 . S
C913 C907 1.491 . S
C913 C912 1.400 . S
C913 C914 1.398 . S
C914 H902 0.950 . S
C914 C913 1.398 . S
C914 C915 1.391 . S
C915 H903 0.950 . S
C915 C911 1.393 . S
C915 C914 1.391 . S
H916 C924 0.950 . S
H917 C929 0.950 . S
H918 C926 0.950 . S
H919 C928 0.950 . S
H920 C930 0.950 . S
H921 C932 0.950 . S
H922 C934 0.950 . S
H923 C935 0.950 . S
C924 H916 0.950 . S
C924 C925 1.386 . S
C924 C926 1.391 . S
C925 C924 1.386 . S
C925 C929 1.393 . S
C926 H918 0.950 . S
C926 C924 1.391 . S
C926 C927 1.400 . S
C927 C926 1.400 . S
C927 C928 1.398 . S
C927 C933 1.491 . S
C928 H919 0.950 . S
C928 C927 1.398 . S
C928 C929 1.391 . S
C929 H917 0.950 . S
C929 C925 1.393 . S
C929 C928 1.391 . S
C930 H920 0.950 . S
C930 C931 1.386 . S
C930 C932 1.391 . S
C931 C930 1.386 . S
C931 C935 1.393 . S
C932 H921 0.950 . S
C932 C930 1.391 . S
C932 C933 1.400 . S
C933 C927 1.491 . S
C933 C932 1.400 . S
C933 C934 1.398 . S
C934 H922 0.950 . S
C934 C933 1.398 . S
C934 C935 1.391 . S
C935 H923 0.950 . S
C935 C931 1.393 . S
C935 C934 1.391 . S
H936 C944 0.950 . S
H937 C949 0.950 . S
H938 C946 0.950 . S
H939 C948 0.950 . S
H940 C950 0.950 . S
H941 C952 0.950 . S
H942 C954 0.950 . S
H943 C955 0.950 . S
C944 H936 0.950 . S
C944 C945 1.386 . S
C944 C946 1.391 . S
C945 C944 1.386 . S
C945 C949 1.393 . S
C946 H938 0.950 . S
C946 C944 1.391 . S
C946 C947 1.400 . S
C947 C946 1.400 . S
C947 C948 1.398 . S
C947 C953 1.491 . S
C948 H939 0.950 . S
C948 C947 1.398 . S
C948 C949 1.391 . S
C949 H937 0.950 . S
C949 C945 1.393 . S
C949 C948 1.391 . S
C950 H940 0.950 . S
C950 C951 1.386 . S
C950 C952 1.391 . S
C951 C950 1.386 . S
C951 C955 1.393 . S
C952 H941 0.950 . S
C952 C950 1.391 . S
C952 C953 1.400 . S
C953 C947 1.491 . S
C953 C952 1.400 . S
C953 C954 1.398 . S
C954 H942 0.950 . S
C954 C953 1.398 . S
C954 C955 1.391 . S
C955 H943 0.950 . S
C955 C951 1.393 . S
C955 C954 1.391 . S
H956 C964 0.950 . S
H957 C969 0.950 . S
H958 C966 0.950 . S
H959 C968 0.950 . S
H960 C970 0.950 . S
H961 C972 0.950 . S
H962 C974 0.950 . S
H963 C975 0.950 . S
C964 H956 0.950 . S
C964 C965 1.386 . S
C964 C966 1.391 . S
C965 C964 1.386 . S
C965 C969 1.393 . S
C966 H958 0.950 . S
C966 C964 1.391 . S
C966 C967 1.400 . S
C967 C966 1.400 . S
C967 C968 1.398 . S
C967 C973 1.491 . S
C968 H959 0.950 . S
C968 C967 1.398 . S
C968 C969 1.391 . S
C969 H957 0.950 . S
C969 C965 1.393 . S
C969 C968 1.391 . S
C970 H960 0.950 . S
C970 C971 1.386 . S
C970 C972 1.391 . S
C971 C970 1.386 . S
C971 C975 1.393 . S
C972 H961 0.950 . S
C972 C970 1.391 . S
C972 C973 1.400 . S
C973 C967 1.491 . S
C973 C972 1.400 . S
C973 C974 1.398 . S
C974 H962 0.950 . S
C974 C973 1.398 . S
C974 C975 1.391 . S
C975 H963 0.950 . S
C975 C971 1.393 . S
C975 C974 1.391 . S
H976 C984 0.950 . S
H977 C989 0.950 . S
H978 C986 0.950 . S
H979 C988 0.950 . S
H980 C990 0.950 . S
H981 C992 0.950 . S
H982 C994 0.950 . S
H983 C995 0.950 . S
C984 H976 0.950 . S
C984 C985 1.386 . S
C984 C986 1.391 . S
C985 C984 1.386 . S
C985 C989 1.393 . S
C986 H978 0.950 . S
C986 C984 1.391 . S
C986 C987 1.400 . S
C987 C986 1.400 . S
C987 C988 1.398 . S
C987 C993 1.491 . S
C988 H979 0.950 . S
C988 C987 1.398 . S
C988 C989 1.391 . S
C989 H977 0.950 . S
C989 C985 1.393 . S
C989 C988 1.391 . S
C990 H980 0.950 . S
C990 C991 1.386 . S
C990 C992 1.391 . S
C991 C990 1.386 . S
C991 C995 1.393 . S
C992 H981 0.950 . S
C992 C990 1.391 . S
C992 C993 1.400 . S
C993 C987 1.491 . S
C993 C992 1.400 . S
C993 C994 1.398 . S
C994 H982 0.950 . S
C994 C993 1.398 . S
C994 C995 1.391 . S
C995 H983 0.950 . S
C995 C991 1.393 . S
C995 C994 1.391 . S
H996 C1004 0.950 . S
H997 C1009 0.950 . S
H998 C1006 0.950 . S
H999 C1008 0.950 . S
H1000 C1010 0.950 . S
H1001 C1012 0.950 . S
H1002 C1014 0.950 . S
H1003 C1015 0.950 . S
C1004 H996 0.950 . S
C1004 C1005 1.386 . S
C1004 C1006 1.391 . S
C1005 C1004 1.386 . S
C1005 C1009 1.393 . S
C1006 H998 0.950 . S
C1006 C1004 1.391 . S
C1006 C1007 1.400 . S
C1007 C1006 1.400 . S
C1007 C1008 1.398 . S
C1007 C1013 1.491 . S
C1008 H999 0.950 . S
C1008 C1007 1.398 . S
C1008 C1009 1.391 . S
C1009 H997 0.950 . S
C1009 C1005 1.393 . S
C1009 C1008 1.391 . S
C1010 H1000 0.950 . S
C1010 C1011 1.386 . S
C1010 C1012 1.391 . S
C1011 C1010 1.386 . S
C1011 C1015 1.393 . S
C1012 H1001 0.950 . S
C1012 C1010 1.391 . S
C1012 C1013 1.400 . S
C1013 C1007 1.491 . S
C1013 C1012 1.400 . S
C1013 C1014 1.398 . S
C1014 H1002 0.950 . S
C1014 C1013 1.398 . S
C1014 C1015 1.391 . S
C1015 H1003 0.950 . S
C1015 C1011 1.393 . S
C1015 C1014 1.391 . S
H1016 C1024 0.950 . S
H1017 C1029 0.950 . S
H1018 C1026 0.950 . S
H1019 C1028 0.950 . S
H1020 C1030 0.950 . S
H1021 C1032 0.950 . S
H1022 C1034 0.950 . S
H1023 C1035 0.950 . S
C1024 H1016 0.950 . S
C1024 C1025 1.386 . S
C1024 C1026 1.391 . S
C1025 C1024 1.386 . S
C1025 C1029 1.393 . S
C1026 H1018 0.950 . S
C1026 C1024 1.391 . S
C1026 C1027 1.400 . S
C1027 C1026 1.400 . S
C1027 C1028 1.398 . S
C1027 C1033 1.491 . S
C1028 H1019 0.950 . S
C1028 C1027 1.398 . S
C1028 C1029 1.391 . S
C1029 H1017 0.950 . S
C1029 C1025 1.393 . S
C1029 C1028 1.391 . S
C1030 H1020 0.950 . S
C1030 C1031 1.386 . S
C1030 C1032 1.391 . S
C1031 C1030 1.386 . S
C1031 C1035 1.393 . S
C1032 H1021 0.950 . S
C1032 C1030 1.391 . S
C1032 C1033 1.400 . S
C1033 C1027 1.491 . S
C1033 C1032 1.400 . S
C1033 C1034 1.398 . S
C1034 H1022 0.950 . S
C1034 C1033 1.398 . S
C1034 C1035 1.391 . S
C1035 H1023 0.950 . S
C1035 C1031 1.393 . S
C1035 C1034 1.391 . S
H1036 C1044 0.950 . S
H1037 C1049 0.950 . S
H1038 C1046 0.950 . S
H1039 C1048 0.950 . S
H1040 C1050 0.950 . S
H1041 C1052 0.950 . S
H1042 C1054 0.950 . S
H1043 C1055 0.950 . S
C1044 H1036 0.950 . S
C1044 C1045 1.386 . S
C1044 C1046 1.391 . S
C1045 C1044 1.386 . S
C1045 C1049 1.393 . S
C1046 H1038 0.950 . S
C1046 C1044 1.391 . S
C1046 C1047 1.400 . S
C1047 C1046 1.400 . S
C1047 C1048 1.398 . S
C1047 C1053 1.491 . S
C1048 H1039 0.950 . S
C1048 C1047 1.398 . S
C1048 C1049 1.391 . S
C1049 H1037 0.950 . S
C1049 C1045 1.393 . S
C1049 C1048 1.391 . S
C1050 H1040 0.950 . S
C1050 C1051 1.386 . S
C1050 C1052 1.391 . S
C1051 C1050 1.386 . S
C1051 C1055 1.393 . S
C1052 H1041 0.950 . S
C1052 C1050 1.391 . S
C1052 C1053 1.400 . S
C1053 C1047 1.491 . S
C1053 C1052 1.400 . S
C1053 C1054 1.398 . S
C1054 H1042 0.950 . S
C1054 C1053 1.398 . S
C1054 C1055 1.391 . S
C1055 H1043 0.950 . S
C1055 C1051 1.393 . S
C1055 C1054 1.391 . S
H1056 C1064 0.950 . S
H1057 C1069 0.950 . S
H1058 C1066 0.950 . S
H1059 C1068 0.950 . S
H1060 C1070 0.950 . S
H1061 C1072 0.950 . S
H1062 C1074 0.950 . S
H1063 C1075 0.950 . S
C1064 H1056 0.950 . S
C1064 C1065 1.386 . S
C1064 C1066 1.391 . S
C1065 C1064 1.386 . S
C1065 C1069 1.393 . S
C1066 H1058 0.950 . S
C1066 C1064 1.391 . S
C1066 C1067 1.400 . S
C1067 C1066 1.400 . S
C1067 C1068 1.398 . S
C1067 C1073 1.491 . S
C1068 H1059 0.950 . S
C1068 C1067 1.398 . S
C1068 C1069 1.391 . S
C1069 H1057 0.950 . S
C1069 C1065 1.393 . S
C1069 C1068 1.391 . S
C1070 H1060 0.950 . S
C1070 C1071 1.386 . S
C1070 C1072 1.391 . S
C1071 C1070 1.386 . S
C1071 C1075 1.393 . S
C1072 H1061 0.950 . S
C1072 C1070 1.391 . S
C1072 C1073 1.400 . S
C1073 C1067 1.491 . S
C1073 C1072 1.400 . S
C1073 C1074 1.398 . S
C1074 H1062 0.950 . S
C1074 C1073 1.398 . S
C1074 C1075 1.391 . S
C1075 H1063 0.950 . S
C1075 C1071 1.393 . S
C1075 C1074 1.391 . S
H1076 C1084 0.948 1_556 S
H1077 C1089 0.950 . S
H1078 C1086 0.961 . S
H1079 C1088 0.950 . S
H1080 C1090 0.950 . S
H1081 C1092 0.950 . S
H1082 C1094 0.950 . S
H1083 C1095 0.950 . S
C1084 H1076 0.948 1_554 S
C1084 C1085 1.387 . S
C1084 C1086 1.391 1_554 S
C1085 C1084 1.387 . S
C1085 C1089 1.393 . S
C1086 H1078 0.961 . S
C1086 C1084 1.391 1_556 S
C1086 C1087 1.389 1_556 S
C1087 C1086 1.389 1_554 S
C1087 C1088 1.398 . S
C1087 C1093 1.491 . S
C1088 H1079 0.950 . S
C1088 C1087 1.398 . S
C1088 C1089 1.391 . S
C1089 H1077 0.950 . S
C1089 C1085 1.393 . S
C1089 C1088 1.391 . S
C1090 H1080 0.950 . S
C1090 C1091 1.386 . S
C1090 C1092 1.391 . S
C1091 C1090 1.386 . S
C1091 C1095 1.393 1_554 S
C1092 H1081 0.950 . S
C1092 C1090 1.391 . S
C1092 C1093 1.400 . S
C1093 C1087 1.491 . S
C1093 C1092 1.400 . S
C1093 C1094 1.398 1_554 S
C1094 H1082 0.950 . S
C1094 C1093 1.398 1_556 S
C1094 C1095 1.391 . S
C1095 H1083 0.950 . S
C1095 C1091 1.393 1_556 S
C1095 C1094 1.391 . S
H1096 C1104 0.950 . S
H1097 C1109 0.950 . S
H1098 C1106 0.950 . S
H1099 C1108 0.950 . S
H1100 C1110 0.950 . S
H1101 C1112 0.950 . S
H1102 C1114 0.950 . S
H1103 C1115 0.950 . S
C1104 H1096 0.950 . S
C1104 C1105 1.386 . S
C1104 C1106 1.391 . S
C1105 C1104 1.386 . S
C1105 C1109 1.393 . S
C1106 H1098 0.950 . S
C1106 C1104 1.391 . S
C1106 C1107 1.400 . S
C1107 C1106 1.400 . S
C1107 C1108 1.398 . S
C1107 C1113 1.491 . S
C1108 H1099 0.950 . S
C1108 C1107 1.398 . S
C1108 C1109 1.391 . S
C1109 H1097 0.950 . S
C1109 C1105 1.393 . S
C1109 C1108 1.391 . S
C1110 H1100 0.950 . S
C1110 C1111 1.386 . S
C1110 C1112 1.391 . S
C1111 C1110 1.386 . S
C1111 C1115 1.393 . S
C1112 H1101 0.950 . S
C1112 C1110 1.391 . S
C1112 C1113 1.400 . S
C1113 C1107 1.491 . S
C1113 C1112 1.400 . S
C1113 C1114 1.398 . S
C1114 H1102 0.950 . S
C1114 C1113 1.398 . S
C1114 C1115 1.391 . S
C1115 H1103 0.950 . S
C1115 C1111 1.393 . S
C1115 C1114 1.391 . S
H1116 C1124 0.950 . S
H1117 C1129 0.950 . S
H1118 C1126 0.950 . S
H1119 C1128 0.950 . S
H1120 C1130 0.950 . S
H1121 C1132 0.950 . S
H1122 C1134 0.950 . S
H1123 C1135 0.950 . S
C1124 H1116 0.950 . S
C1124 C1125 1.386 . S
C1124 C1126 1.391 . S
C1125 C1124 1.386 . S
C1125 C1129 1.393 . S
C1126 H1118 0.950 . S
C1126 C1124 1.391 . S
C1126 C1127 1.400 . S
C1127 C1126 1.400 . S
C1127 C1128 1.398 . S
C1127 C1133 1.491 . S
C1128 H1119 0.950 . S
C1128 C1127 1.398 . S
C1128 C1129 1.391 . S
C1129 H1117 0.950 . S
C1129 C1125 1.393 . S
C1129 C1128 1.391 . S
C1130 H1120 0.950 . S
C1130 C1131 1.386 . S
C1130 C1132 1.391 . S
C1131 C1130 1.386 . S
C1131 C1135 1.393 . S
C1132 H1121 0.950 . S
C1132 C1130 1.391 . S
C1132 C1133 1.400 . S
C1133 C1127 1.491 . S
C1133 C1132 1.400 . S
C1133 C1134 1.398 . S
C1134 H1122 0.950 . S
C1134 C1133 1.398 . S
C1134 C1135 1.391 . S
C1135 H1123 0.950 . S
C1135 C1131 1.393 . S
C1135 C1134 1.391 . S
H1136 C1144 0.950 . S
H1137 C1149 0.950 . S
H1138 C1146 0.950 . S
H1139 C1148 0.950 . S
H1140 C1150 0.950 . S
H1141 C1152 0.950 . S
H1142 C1154 0.950 . S
H1143 C1155 0.950 . S
C1144 H1136 0.950 . S
C1144 C1145 1.386 . S
C1144 C1146 1.391 . S
C1145 C1144 1.386 . S
C1145 C1149 1.393 . S
C1146 H1138 0.950 . S
C1146 C1144 1.391 . S
C1146 C1147 1.400 . S
C1147 C1146 1.400 . S
C1147 C1148 1.398 . S
C1147 C1153 1.491 . S
C1148 H1139 0.950 . S
C1148 C1147 1.398 . S
C1148 C1149 1.391 . S
C1149 H1137 0.950 . S
C1149 C1145 1.393 . S
C1149 C1148 1.391 . S
C1150 H1140 0.950 . S
C1150 C1151 1.386 . S
C1150 C1152 1.391 . S
C1151 C1150 1.386 . S
C1151 C1155 1.393 . S
C1152 H1141 0.950 . S
C1152 C1150 1.391 . S
C1152 C1153 1.400 . S
C1153 C1147 1.491 . S
C1153 C1152 1.400 . S
C1153 C1154 1.398 . S
C1154 H1142 0.950 . S
C1154 C1153 1.398 . S
C1154 C1155 1.391 . S
C1155 H1143 0.950 . S
C1155 C1151 1.393 . S
C1155 C1154 1.391 . S
H1156 C1164 0.950 . S
H1157 C1169 0.950 . S
H1158 C1166 0.950 . S
H1159 C1168 0.950 . S
H1160 C1170 0.950 . S
H1161 C1172 0.950 . S
H1162 C1174 0.950 . S
H1163 C1175 0.950 . S
C1164 H1156 0.950 . S
C1164 C1165 1.386 . S
C1164 C1166 1.391 . S
C1165 C1164 1.386 . S
C1165 C1169 1.393 . S
C1166 H1158 0.950 . S
C1166 C1164 1.391 . S
C1166 C1167 1.400 . S
C1167 C1166 1.400 . S
C1167 C1168 1.398 . S
C1167 C1173 1.491 . S
C1168 H1159 0.950 . S
C1168 C1167 1.398 . S
C1168 C1169 1.391 . S
C1169 H1157 0.950 . S
C1169 C1165 1.393 . S
C1169 C1168 1.391 . S
C1170 H1160 0.950 . S
C1170 C1171 1.386 . S
C1170 C1172 1.391 . S
C1171 C1170 1.386 . S
C1171 C1175 1.393 . S
C1172 H1161 0.950 . S
C1172 C1170 1.391 . S
C1172 C1173 1.400 . S
C1173 C1167 1.491 . S
C1173 C1172 1.400 . S
C1173 C1174 1.398 . S
C1174 H1162 0.950 . S
C1174 C1173 1.398 . S
C1174 C1175 1.391 . S
C1175 H1163 0.950 . S
C1175 C1171 1.393 . S
C1175 C1174 1.391 . S
H1176 C1184 0.950 . S
H1177 C1189 0.943 1_554 S
H1178 C1186 0.950 . S
H1179 C1188 0.945 1_554 S
H1180 C1190 0.943 1_554 S
H1181 C1192 0.950 1_554 S
H1182 C1194 0.950 . S
H1183 C1195 0.950 . S
C1184 H1176 0.950 . S
C1184 C1185 1.386 . S
C1184 C1186 1.391 . S
C1185 C1184 1.386 . S
C1185 C1189 1.393 . S
C1186 H1178 0.950 . S
C1186 C1184 1.391 . S
C1186 C1187 1.400 . S
C1187 C1186 1.400 . S
C1187 C1188 1.398 . S
C1187 C1193 1.491 . S
C1188 H1179 0.945 1_556 S
C1188 C1187 1.398 . S
C1188 C1189 1.391 . S
C1189 H1177 0.943 1_556 S
C1189 C1185 1.393 . S
C1189 C1188 1.391 . S
C1190 H1180 0.943 1_556 S
C1190 C1191 1.392 . S
C1190 C1192 1.392 . S
C1191 C1190 1.392 . S
C1191 C1195 1.393 . S
C1192 H1181 0.950 1_556 S
C1192 C1190 1.392 . S
C1192 C1193 1.400 . S
C1193 C1187 1.491 . S
C1193 C1192 1.400 . S
C1193 C1194 1.398 . S
C1194 H1182 0.950 . S
C1194 C1193 1.398 . S
C1194 C1195 1.391 . S
C1195 H1183 0.950 . S
C1195 C1191 1.393 . S
C1195 C1194 1.391 . S
H1196 C1204 0.950 . S
H1197 C1209 0.950 . S
H1198 C1206 0.950 . S
H1199 C1208 0.950 . S
H1200 C1210 0.950 . S
H1201 C1212 0.950 . S
H1202 C1214 0.950 . S
H1203 C1215 0.950 . S
C1204 H1196 0.950 . S
C1204 C1205 1.386 . S
C1204 C1206 1.391 . S
C1205 C1204 1.386 . S
C1205 C1209 1.393 . S
C1206 H1198 0.950 . S
C1206 C1204 1.391 . S
C1206 C1207 1.400 . S
C1207 C1206 1.400 . S
C1207 C1208 1.398 . S
C1207 C1213 1.491 . S
C1208 H1199 0.950 . S
C1208 C1207 1.398 . S
C1208 C1209 1.391 . S
C1209 H1197 0.950 . S
C1209 C1205 1.393 . S
C1209 C1208 1.391 . S
C1210 H1200 0.950 . S
C1210 C1211 1.386 . S
C1210 C1212 1.391 . S
C1211 C1210 1.386 . S
C1211 C1215 1.393 . S
C1212 H1201 0.950 . S
C1212 C1210 1.391 . S
C1212 C1213 1.400 . S
C1213 C1207 1.491 . S
C1213 C1212 1.400 . S
C1213 C1214 1.398 . S
C1214 H1202 0.950 . S
C1214 C1213 1.398 . S
C1214 C1215 1.391 . S
C1215 H1203 0.950 . S
C1215 C1211 1.393 . S
C1215 C1214 1.391 . S
H1216 C1224 0.950 . S
H1217 C1229 0.950 . S
H1218 C1226 0.950 . S
H1219 C1228 0.950 . S
H1220 C1230 0.950 . S
H1221 C1232 0.950 . S
H1222 C1234 0.950 . S
H1223 C1235 0.950 . S
C1224 H1216 0.950 . S
C1224 C1225 1.386 . S
C1224 C1226 1.391 . S
C1225 C1224 1.386 . S
C1225 C1229 1.393 . S
C1226 H1218 0.950 . S
C1226 C1224 1.391 . S
C1226 C1227 1.400 . S
C1227 C1226 1.400 . S
C1227 C1228 1.398 . S
C1227 C1233 1.491 . S
C1228 H1219 0.950 . S
C1228 C1227 1.398 . S
C1228 C1229 1.391 . S
C1229 H1217 0.950 . S
C1229 C1225 1.393 . S
C1229 C1228 1.391 . S
C1230 H1220 0.950 . S
C1230 C1231 1.386 . S
C1230 C1232 1.391 . S
C1231 C1230 1.386 . S
C1231 C1235 1.393 . S
C1232 H1221 0.950 . S
C1232 C1230 1.391 . S
C1232 C1233 1.400 . S
C1233 C1227 1.491 . S
C1233 C1232 1.400 . S
C1233 C1234 1.398 . S
C1234 H1222 0.950 . S
C1234 C1233 1.398 . S
C1234 C1235 1.391 . S
C1235 H1223 0.950 . S
C1235 C1231 1.393 . S
C1235 C1234 1.391 . S
H1236 C1244 0.950 . S
H1237 C1249 0.950 . S
H1238 C1246 0.950 . S
H1239 C1248 0.950 . S
H1240 C1250 0.950 . S
H1241 C1252 0.950 . S
H1242 C1254 0.950 . S
H1243 C1255 0.950 . S
C1244 H1236 0.950 . S
C1244 C1245 1.386 . S
C1244 C1246 1.391 . S
C1245 C1244 1.386 . S
C1245 C1249 1.393 . S
C1246 H1238 0.950 . S
C1246 C1244 1.391 . S
C1246 C1247 1.400 . S
C1247 C1246 1.400 . S
C1247 C1248 1.398 . S
C1247 C1253 1.491 . S
C1248 H1239 0.950 . S
C1248 C1247 1.398 . S
C1248 C1249 1.391 . S
C1249 H1237 0.950 . S
C1249 C1245 1.393 . S
C1249 C1248 1.391 . S
C1250 H1240 0.950 . S
C1250 C1251 1.386 . S
C1250 C1252 1.391 . S
C1251 C1250 1.386 . S
C1251 C1255 1.393 . S
C1252 H1241 0.950 . S
C1252 C1250 1.391 . S
C1252 C1253 1.400 . S
C1253 C1247 1.491 . S
C1253 C1252 1.400 . S
C1253 C1254 1.398 . S
C1254 H1242 0.950 . S
C1254 C1253 1.398 . S
C1254 C1255 1.391 . S
C1255 H1243 0.950 . S
C1255 C1251 1.393 . S
C1255 C1254 1.391 . S
H1256 C1264 0.950 . S
H1257 C1269 0.950 . S
H1258 C1266 0.950 . S
H1259 C1268 0.950 . S
H1260 C1270 0.950 . S
H1261 C1272 0.950 . S
H1262 C1274 0.950 . S
H1263 C1275 0.950 . S
C1264 H1256 0.950 . S
C1264 C1265 1.386 . S
C1264 C1266 1.391 . S
C1265 C1264 1.386 . S
C1265 C1269 1.393 . S
C1266 H1258 0.950 . S
C1266 C1264 1.391 . S
C1266 C1267 1.400 . S
C1267 C1266 1.400 . S
C1267 C1268 1.398 . S
C1267 C1273 1.491 . S
C1268 H1259 0.950 . S
C1268 C1267 1.398 . S
C1268 C1269 1.391 . S
C1269 H1257 0.950 . S
C1269 C1265 1.393 . S
C1269 C1268 1.391 . S
C1270 H1260 0.950 . S
C1270 C1271 1.386 . S
C1270 C1272 1.391 . S
C1271 C1270 1.386 . S
C1271 C1275 1.393 . S
C1272 H1261 0.950 . S
C1272 C1270 1.391 . S
C1272 C1273 1.400 . S
C1273 C1267 1.491 . S
C1273 C1272 1.400 . S
C1273 C1274 1.398 . S
C1274 H1262 0.950 . S
C1274 C1273 1.398 . S
C1274 C1275 1.391 . S
C1275 H1263 0.950 . S
C1275 C1271 1.393 . S
C1275 C1274 1.391 . S
H1276 C1284 0.950 . S
H1277 C1289 0.950 . S
H1278 C1286 0.950 . S
H1279 C1288 0.950 . S
H1280 C1290 0.950 . S
H1281 C1292 0.950 . S
H1282 C1294 0.950 . S
H1283 C1295 0.950 . S
C1284 H1276 0.950 . S
C1284 C1285 1.386 . S
C1284 C1286 1.391 . S
C1285 C1284 1.386 . S
C1285 C1289 1.393 . S
C1286 H1278 0.950 . S
C1286 C1284 1.391 . S
C1286 C1287 1.400 . S
C1287 C1286 1.400 . S
C1287 C1288 1.398 . S
C1287 C1293 1.491 . S
C1288 H1279 0.950 . S
C1288 C1287 1.398 . S
C1288 C1289 1.391 . S
C1289 H1277 0.950 . S
C1289 C1285 1.393 . S
C1289 C1288 1.391 . S
C1290 H1280 0.950 . S
C1290 C1291 1.386 . S
C1290 C1292 1.391 . S
C1291 C1290 1.386 . S
C1291 C1295 1.393 . S
C1292 H1281 0.950 . S
C1292 C1290 1.391 . S
C1292 C1293 1.400 . S
C1293 C1287 1.491 . S
C1293 C1292 1.400 . S
C1293 C1294 1.398 . S
C1294 H1282 0.950 . S
C1294 C1293 1.398 . S
C1294 C1295 1.391 . S
C1295 H1283 0.950 . S
C1295 C1291 1.393 . S
C1295 C1294 1.391 . S
C345 C13 0.871 . S
C351 C39 0.869 . S
C365 C55 0.770 . S
C371 C36 0.790 . S
C385 C78 0.867 . S
C391 C56 0.884 . S
C405 C14 0.849 . S
C411 C81 0.807 . S
C425 C15 0.922 . S
C431 C206 0.932 . S
C445 C162 0.873 . S
C451 C38 0.904 . S
C465 C58 0.951 . S
C471 C224 0.977 . S
C485 C77 0.899 . S
C491 C288 0.926 . S
C505 C184 0.904 . S
C511 C35 0.975 . S
C525 C266 0.869 . S
C531 C57 0.898 . S
C545 C310 0.963 . S
C551 C80 0.969 . S
C565 C16 0.896 . S
C571 C248 0.968 . S
C585 C17 0.871 . S
C591 C186 0.832 . S
C605 C265 0.849 . S
C611 C100 0.882 . S
C625 C122 0.937 . S
C631 C311 0.940 . S
C645 C247 0.859 . S
C651 C139 0.897 . S
C665 C59 0.964 . S
C671 C164 0.965 . S
C685 C205 0.961 . S
C691 C97 0.919 . S
C705 C142 0.956 . S
C711 C223 0.955 . S
C725 C121 0.930 . S
C731 C245 1.003 . S
C745 C203 0.885 . S
C751 C120 0.891 . S
C765 C249 0.862 . S
C771 C161 0.905 . S
C785 C118 0.766 . S
C791 C99 0.808 . S
C805 C204 0.824 . S
C811 C182 0.850 . S
C825 C286 0.818 . S
C831 C246 0.866 . S
C845 C141 0.886 . S
C851 C119 0.881 . S
C865 C207 0.806 . S
C871 C307 0.763 . S
C885 C290 0.872 . S
C891 C18 0.845 . S
C905 C60 0.779 . S
C911 C312 0.782 . S
C925 C268 0.966 . S
C931 C34 0.913 . S
C945 C165 0.747 . S
C951 C123 0.758 . S
C965 C76 0.851 . S
C971 C226 0.906 . S
C985 C267 0.830 . S
C991 C287 0.847 . S
C1005 C160 0.811 . S
C1011 C270 0.787 . S
C1025 C143 0.964 . S
C1031 C163 0.942 . S
C1045 C98 0.950 . S
C1051 C289 0.927 . S
C1065 C269 0.914 . S
C1071 C330 0.939 . S
C1085 C333 0.873 . S
C1091 C185 0.839 . S
C1105 C37 0.864 . S
C1111 C202 0.866 . S
C1125 C183 0.919 . S
C1131 C140 0.902 . S
C1145 C181 0.849 . S
C1151 C225 0.874 . S
C1165 C329 0.814 . S
C1171 C144 0.845 . S
C1185 C291 0.847 . S
C1191 C332 0.863 . S
C1205 C244 0.977 . S
C1211 C79 0.927 . S
C1225 C228 0.863 . S
C1231 C308 0.905 . S
C1245 C227 0.969 . S
C1251 C331 0.926 . S
C1265 C101 0.881 . S
C1271 C309 0.909 . S
C1285 C328 0.863 . S
C1291 C102 0.878 . S
