# Generated by pormake.
# Topology qtz-e, (6)-cn, num edge types: 1
# Building blocks:
#     Node 0, Type 0, BuildingBlock: KUMJIN_clean_sbu_1, # of connection points: 6
#     Node 1, Type 0, BuildingBlock: KUMJIN_clean_sbu_1, # of connection points: 6
#     Node 2, Type 0, BuildingBlock: KUMJIN_clean_sbu_1, # of connection points: 6
#     Node 3, Type 0, BuildingBlock: KUMJIN_clean_sbu_1, # of connection points: 6
#     Node 4, Type 0, BuildingBlock: KUMJIN_clean_sbu_1, # of connection points: 6
#     Node 5, Type 0, BuildingBlock: KUMJIN_clean_sbu_1, # of connection points: 6
#     Edge 6, Type (0, 0), BuildingBlock: MIFKUJ_clean_linker_0, # of connection points: 2
#     Edge 7, Type (0, 0), BuildingBlock: MIFKUJ_clean_linker_0, # of connection points: 2
#     Edge 8, Type (0, 0), BuildingBlock: MIFKUJ_clean_linker_0, # of connection points: 2
#     Edge 9, Type (0, 0), BuildingBlock: MIFKUJ_clean_linker_0, # of connection points: 2
#     Edge 10, Type (0, 0), BuildingBlock: MIFKUJ_clean_linker_0, # of connection points: 2
#     Edge 11, Type (0, 0), BuildingBlock: MIFKUJ_clean_linker_0, # of connection points: 2
#     Edge 12, Type (0, 0), BuildingBlock: MIFKUJ_clean_linker_0, # of connection points: 2
#     Edge 13, Type (0, 0), BuildingBlock: MIFKUJ_clean_linker_0, # of connection points: 2
#     Edge 14, Type (0, 0), BuildingBlock: MIFKUJ_clean_linker_0, # of connection points: 2
#     Edge 15, Type (0, 0), BuildingBlock: MIFKUJ_clean_linker_0, # of connection points: 2
#     Edge 16, Type (0, 0), BuildingBlock: MIFKUJ_clean_linker_0, # of connection points: 2
#     Edge 17, Type (0, 0), BuildingBlock: MIFKUJ_clean_linker_0, # of connection points: 2
#     Edge 18, Type (0, 0), BuildingBlock: MIFKUJ_clean_linker_0, # of connection points: 2
#     Edge 19, Type (0, 0), BuildingBlock: MIFKUJ_clean_linker_0, # of connection points: 2
#     Edge 20, Type (0, 0), BuildingBlock: MIFKUJ_clean_linker_0, # of connection points: 2
#     Edge 21, Type (0, 0), BuildingBlock: MIFKUJ_clean_linker_0, # of connection points: 2
#     Edge 22, Type (0, 0), BuildingBlock: MIFKUJ_clean_linker_0, # of connection points: 2
#     Edge 23, Type (0, 0), BuildingBlock: MIFKUJ_clean_linker_0, # of connection points: 2
# Relax obj value: 0.152
# Max RMSD: 0.209
# Mean RMSD: 0.209
data_MOF--net-qtz-e--node1-KUMJIN_clean_sbu_1--edge1-MIFKUJ_clean_linker_0
_symmetry_space_group_name_H-M    P1
_symmetry_Int_Tables_number       1
_symmetry_cell_setting            triclinic
loop_
_symmetry_equiv_pos_as_xyz
'x, y, z'
_cell_length_a     36.007147
_cell_length_b     36.225114
_cell_length_c     59.470556
_cell_angle_alpha  89.796237
_cell_angle_beta   89.75515
_cell_angle_gamma 119.88837
loop_
_atom_site_label
_atom_site_type_symbol
_atom_site_fract_x
_atom_site_fract_y
_atom_site_fract_z
_atom_type_partial_charge
Eu0 Eu 0.16912 0.33881 0.98054 0.0
C1 C 0.32259 0.51473 0.0343 0.0
N2 N 0.29802 0.47356 0.041 0.0
C3 C 0.35755 0.47635 0.06022 0.0
C4 C 0.36649 0.53793 0.03957 0.0
C5 C 0.31442 0.45439 0.05421 0.0
C6 C 0.38396 0.51804 0.05255 0.0
C7 C 0.32785 0.5769 0.01566 0.0
C8 C 0.30342 0.53418 0.02279 0.0
C9 C 0.37192 0.59977 0.02026 0.0
C10 C 0.39116 0.58038 0.03225 0.0
Eu11 Eu 0.22524 0.44027 0.03149 0.0
N12 N 0.26076 0.51122 0.01857 0.0
C13 C 0.30714 0.59537 0.00424 0.0
C14 C 0.24008 0.52918 0.00798 0.0
C15 C 0.26303 0.57145 0.00049 0.0
H16 H 0.29404 0.42234 0.06041 0.0
H17 H 0.24672 0.58558 0.99184 0.0
H18 H 0.06845 0.31545 0.97049 0.0
H19 H 0.23178 0.23516 0.00746 0.0
H20 H 0.206 0.51072 0.00509 0.0
H21 H 0.3248 0.62811 -0.00156 0.0
H22 H 0.2368 0.30259 -0.00343 0.0
H23 H 0.37003 0.4612 0.07103 0.0
H24 H 0.3913 0.63263 0.01487 0.0
H25 H 0.42503 0.59866 0.03602 0.0
H26 H -0.00391 0.25199 0.96988 0.0
H27 H 0.41746 0.53491 0.05719 0.0
H28 H 0.16161 0.16889 0.00796 0.0
N29 N 0.09888 0.28081 0.98064 0.0
C30 C 0.09446 0.24218 0.98573 0.0
C31 C 0.02345 0.24884 0.97444 0.0
C32 C 0.05379 0.20511 0.98545 0.0
C33 C 0.06437 0.28474 0.97497 0.0
C34 C 0.01812 0.20885 0.97967 0.0
N35 N 0.16946 0.27641 0.99246 0.0
C36 C 0.20559 0.27476 -0.0025 0.0
C37 C 0.1266 0.20023 -0.00244 0.0
C38 C 0.13062 0.23992 0.99186 0.0
C39 C 0.16338 0.19877 0.0035 0.0
C40 C 0.20302 0.23614 0.00335 0.0
H41 H 0.98636 0.18109 0.97924 0.0
H42 H 0.01891 0.13684 0.99088 0.0
H43 H 0.08258 0.13252 0.00139 0.0
O44 O 0.20162 0.3293 0.95181 0.0
O45 O 0.13445 0.31154 0.01399 0.0
O46 O 0.18182 0.37548 0.0207 0.0
O47 O 0.14418 0.33286 0.94658 0.0
O48 O 0.23953 0.36846 0.99124 0.0
O49 O 0.24069 0.38666 0.02864 0.0
O50 O 0.19255 0.46282 0.05377 0.0
O51 O 0.25553 0.46067 -0.00299 0.0
O52 O 0.19818 0.41071 0.97813 0.0
O53 O 0.22326 0.42968 0.06777 0.0
O54 O 0.16432 0.43115 0.0148 0.0
O55 O 0.13427 0.37743 0.98663 0.0
C56 C 0.14959 0.3411 0.02887 0.0
C57 C 0.15666 0.28868 0.92207 0.0
C58 C 0.16897 0.25534 0.88954 0.0
C59 C 0.12654 0.22168 0.89116 0.0
C60 C 0.11438 0.25454 0.92357 0.0
C61 C 0.09955 0.22119 0.90821 0.0
C62 C 0.18401 0.28865 0.90516 0.0
C63 C 0.25953 0.38177 0.01069 0.0
C64 C 0.17249 0.32505 0.93752 0.0
C65 C 0.04989 0.16566 0.99106 0.0
C66 C 0.08616 0.16323 -0.00292 0.0
C67 C 0.23862 0.44057 0.97814 0.0
C68 C 0.22673 0.48702 0.0884 0.0
C69 C 0.22299 0.53479 0.11576 0.0
C70 C 0.26795 0.55811 0.1164 0.0
C71 C 0.27166 0.51039 0.08955 0.0
C72 C 0.20238 0.49899 0.10184 0.0
C73 C 0.2921 0.54573 0.10345 0.0
C74 C 0.13465 0.4078 -0.00032 0.0
C75 C 0.20527 0.45252 0.07201 0.0
H76 H 0.1144 0.19567 0.87929 0.0
H77 H 0.09262 0.25374 0.93638 0.0
H78 H 0.06692 0.19507 0.90942 0.0
H79 H 0.21661 0.315 0.90381 0.0
H80 H 0.28438 0.58548 0.12727 0.0
H81 H 0.29117 0.50175 0.07965 0.0
H82 H 0.16768 0.48111 0.10115 0.0
H83 H 0.32673 0.5636 0.10415 0.0
Eu84 Eu 0.81431 0.17113 0.31756 0.0
C85 C 0.74807 0.29418 0.34184 0.0
N86 N 0.78496 0.29726 0.34972 0.0
C87 C 0.82392 0.37137 0.33986 0.0
C88 C 0.74828 0.32959 0.33176 0.0
C89 C 0.82213 0.33562 0.35001 0.0
C90 C 0.78696 0.36821 0.33048 0.0
C91 C 0.67104 0.25239 0.33708 0.0
C92 C 0.70994 0.25565 0.34416 0.0
C93 C 0.67144 0.28707 0.32619 0.0
C94 C 0.70996 0.32552 0.3235 0.0
Eu95 Eu 0.7792 0.23362 0.36414 0.0
N96 N 0.71033 0.2225 0.35481 0.0
C97 C 0.63264 0.21504 0.34202 0.0
C98 C 0.67272 0.1884 0.36203 0.0
C99 C 0.63344 0.18337 0.35508 0.0
H100 H 0.85054 0.33806 0.35748 0.0
H101 H 0.60381 0.15539 0.36008 0.0
H102 H 0.72661 0.07734 0.30839 0.0
H103 H 0.96649 0.20831 0.35694 0.0
H104 H 0.67275 0.16483 0.37319 0.0
H105 H 0.60214 0.2113 0.33686 0.0
H106 H 0.91578 0.22496 0.33854 0.0
H107 H 0.85371 0.40132 0.33918 0.0
H108 H 0.64193 0.28487 0.32038 0.0
H109 H 0.70961 0.35225 0.31548 0.0
H110 H 0.70212 0.00078 0.31394 0.0
H111 H 0.78841 0.39602 0.32273 0.0
H112 H 0.9472 0.13339 0.36342 0.0
N113 N 0.7881 0.09786 0.32219 0.0
C114 C 0.81554 0.08667 0.33149 0.0
C115 C 0.73405 0.02461 0.31894 0.0
C116 C 0.80299 0.04346 0.33488 0.0
C117 C 0.74787 0.06786 0.31591 0.0
C118 C 0.76175 0.01234 0.32841 0.0
N119 N 0.86627 0.16026 0.336 0.0
C120 C 0.90591 0.19219 0.34195 0.0
C121 C 0.8843 0.10778 0.34868 0.0
C122 C 0.85565 0.11867 0.33859 0.0
C123 C 0.92433 0.14048 0.35559 0.0
C124 C 0.93524 0.18282 0.35208 0.0
H125 H 0.7509 0.9788 0.33077 0.0
H126 H 0.82267 -0.00036 0.34742 0.0
H127 H 0.89411 0.0559 0.35901 0.0
O128 O 0.86252 0.196 0.29065 0.0
O129 O 0.79456 0.1417 0.3525 0.0
O130 O 0.8174 0.2016 0.37347 0.0
O131 O 0.80222 0.13868 0.28525 0.0
O132 O 0.86152 0.24097 0.32428 0.0
O133 O 0.84849 0.24955 0.36123 0.0
O134 O 0.74771 0.21981 0.3976 0.0
O135 O 0.79797 0.26147 0.32874 0.0
O136 O 0.77556 0.20174 0.30726 0.0
O137 O 0.80579 0.28055 0.39081 0.0
O138 O 0.73309 0.16329 0.35668 0.0
O139 O 0.74463 0.15442 0.31905 0.0
C140 C 0.80311 0.16065 0.37207 0.0
C141 C 0.83344 0.18575 0.25426 0.0
C142 C 0.86558 0.22291 0.21886 0.0
C143 C 0.82803 0.22435 0.21432 0.0
C144 C 0.79607 0.18716 0.24919 0.0
C145 C 0.79348 0.20633 0.22932 0.0
C146 C 0.868 0.20335 0.23892 0.0
C147 C 0.87165 0.26367 0.3428 0.0
C148 C 0.83749 0.16818 0.27599 0.0
C149 C 0.83165 0.03268 0.3448 0.0
C150 C 0.87226 0.06473 0.35152 0.0
C151 C 0.78845 0.24228 0.30923 0.0
C152 C 0.7765 0.27144 0.42846 0.0
C153 C 0.73954 0.2707 0.46311 0.0
C154 C 0.77804 0.30424 0.47135 0.0
C155 C 0.81476 0.30475 0.43717 0.0
C156 C 0.7389 0.25389 0.4417 0.0
C157 C 0.81547 0.3209 0.4585 0.0
C158 C 0.71974 0.14435 0.33704 0.0
C159 C 0.77617 0.25688 0.40526 0.0
H160 H 0.82517 0.23891 0.19898 0.0
H161 H 0.76917 0.17423 0.2608 0.0
H162 H 0.76473 0.20762 0.22565 0.0
H163 H 0.89699 0.20258 0.2428 0.0
H164 H 0.77909 0.31746 0.48782 0.0
H165 H 0.84419 0.31848 0.42743 0.0
H166 H 0.70909 0.22836 0.43517 0.0
H167 H 0.84507 0.34664 0.46503 0.0
Eu168 Eu 0.62798 0.80917 0.6529 0.0
C169 C 0.43614 0.7407 0.67558 0.0
N170 N 0.47004 0.7767 0.68383 0.0
C171 C 0.43394 0.81601 0.67682 0.0
C172 C 0.40009 0.74158 0.66705 0.0
C173 C 0.46855 0.81352 0.6856 0.0
C174 C 0.39965 0.77999 0.6674 0.0
C175 C 0.40093 0.66454 0.669 0.0
C176 C 0.43682 0.70256 0.67642 0.0
C177 C 0.36573 0.66573 0.65977 0.0
C178 C 0.36524 0.70409 0.65893 0.0
Eu179 Eu 0.52727 0.76916 0.69759 0.0
N180 N 0.47065 0.70187 0.68617 0.0
C181 C 0.40034 0.62598 0.67227 0.0
C182 C 0.46743 0.66382 0.69191 0.0
C183 C 0.43328 0.62553 0.68427 0.0
H184 H 0.49447 0.84108 0.69341 0.0
H185 H 0.43181 0.59563 0.6882 0.0
H186 H 0.64142 0.72568 0.64419 0.0
H187 H 0.73537 0.96338 0.69197 0.0
H188 H 0.49055 0.66263 0.70287 0.0
H189 H 0.37342 0.59617 0.66677 0.0
H190 H 0.67169 0.91184 0.67159 0.0
H191 H 0.43392 0.84576 0.67701 0.0
H192 H 0.33801 0.63682 0.65402 0.0
H193 H 0.33718 0.70426 0.6526 0.0
H194 H 0.69505 0.70374 0.65242 0.0
H195 H 0.37277 0.78202 0.66073 0.0
H196 H 0.79095 0.94566 0.70248 0.0
N197 N 0.67772 0.78631 0.65927 0.0
C198 C 0.71438 0.8142 0.66998 0.0
C199 C 0.70085 0.73486 0.65743 0.0
C200 C 0.74582 0.8031 0.67494 0.0
C201 C 0.67052 0.74721 0.65288 0.0
C202 C 0.73867 0.76291 0.6685 0.0
N203 N 0.68803 0.86278 0.67234 0.0
C204 C 0.69417 0.90233 0.67696 0.0
C205 C 0.75725 0.88261 0.68803 0.0
C206 C 0.7196 0.85335 0.67676 0.0
C207 C 0.7624 0.92222 0.69393 0.0
C208 C 0.73097 0.93227 0.68813 0.0
H209 H 0.76203 0.75317 0.67207 0.0
H210 H 0.8075 0.82406 0.69038 0.0
H211 H 0.8178 0.89379 0.70152 0.0
O212 O 0.64551 0.8551 0.62548 0.0
O213 O 0.63548 0.78688 0.68764 0.0
O214 O 0.59534 0.80418 0.71085 0.0
O215 O 0.65555 0.8015 0.62156 0.0
O216 O 0.60309 0.85426 0.66012 0.0
O217 O 0.58203 0.83681 0.69664 0.0
O218 O 0.50396 0.73378 0.72971 0.0
O219 O 0.52023 0.79044 0.66234 0.0
O220 O 0.55954 0.76988 0.64071 0.0
O221 O 0.50601 0.79461 0.72458 0.0
O222 O 0.55358 0.72487 0.68992 0.0
O223 O 0.57691 0.73962 0.65279 0.0
C224 C 0.62545 0.79427 0.70772 0.0
C225 C 0.70391 0.86623 0.60308 0.0
C226 C 0.74643 0.91991 0.57473 0.0
C227 C 0.78397 0.92699 0.58563 0.0
C228 C 0.7417 0.87346 0.61365 0.0
C229 C 0.78152 0.90368 0.6049 0.0
C230 C 0.70643 0.88927 0.58356 0.0
C231 C 0.58993 0.86175 0.67925 0.0
C232 C 0.6616 0.83716 0.61291 0.0
C233 C 0.78298 0.83204 0.68641 0.0
C234 C 0.78875 0.8717 0.69285 0.0
C235 C 0.53031 0.78127 0.64264 0.0
C236 C 0.47953 0.76104 0.76085 0.0
C237 C 0.44765 0.72326 0.79597 0.0
C238 C 0.44974 0.7603 0.8046 0.0
C239 C 0.48097 0.79763 0.76977 0.0
C240 C 0.46234 0.72361 0.77398 0.0
C241 C 0.4661 0.79716 0.7915 0.0
C242 C 0.56334 0.71412 0.67049 0.0
C243 C 0.49647 0.76272 0.73802 0.0
H244 H 0.81518 0.95021 0.5791 0.0
H245 H 0.74049 0.85613 0.6287 0.0
H246 H 0.81057 0.90921 0.61316 0.0
H247 H 0.67721 0.88412 0.57557 0.0
H248 H 0.43827 0.76054 0.82145 0.0
H249 H 0.49393 0.82683 0.76002 0.0
H250 H 0.46089 0.69512 0.7673 0.0
H251 H 0.46739 0.8255 0.79823 0.0
Eu252 Eu 0.81286 0.63507 0.98519 0.0
C253 C 0.66453 0.45526 0.02868 0.0
N254 N 0.68469 0.49421 0.03847 0.0
C255 C 0.61918 0.48036 0.0563 0.0
C256 C 0.62034 0.42738 0.03213 0.0
C257 C 0.66313 0.5068 0.0525 0.0
C258 C 0.59758 0.44067 0.04588 0.0
C259 C 0.66913 0.40123 0.00678 0.0
C260 C 0.68848 0.44249 0.01589 0.0
C261 C 0.62492 0.37374 0.0097 0.0
C262 C 0.60053 0.38689 0.02223 0.0
Eu263 Eu 0.75836 0.53669 0.03065 0.0
N264 N 0.73114 0.47002 0.01297 0.0
C265 C 0.69503 0.38848 -0.00449 0.0
C266 C 0.75677 0.45737 0.00253 0.0
C267 C 0.73901 0.41659 -0.00659 0.0
H268 H 0.67999 0.5374 0.06068 0.0
H269 H 0.75929 0.40667 0.98501 0.0
H270 H 0.91582 0.66299 0.98078 0.0
H271 H 0.73806 0.72195 0.02116 0.0
H272 H 0.79085 0.47871 0.00126 0.0
H273 H 0.68159 0.35661 0.98897 0.0
H274 H 0.73957 0.66491 -1e-05 0.0
H275 H 0.60199 0.49063 0.06722 0.0
H276 H 0.60939 0.34206 0.0026 0.0
H277 H 0.56656 0.36513 0.02458 0.0
H278 H 0.98652 0.72324 0.99161 0.0
H279 H 0.56357 0.42021 0.0489 0.0
H280 H 0.80522 0.7816 0.03583 0.0
N281 N 0.88098 0.68991 -0.00451 0.0
C282 C 0.88227 0.72315 0.00671 0.0
C283 C 0.95747 0.72357 -0.00404 0.0
C284 C 0.92179 0.75818 0.01306 0.0
C285 C 0.91758 0.68957 0.9899 0.0
C286 C 0.9596 0.75802 0.00759 0.0
N287 N 0.80605 0.6878 0.00538 0.0
C288 C 0.76872 0.68866 0.00765 0.0
C289 C 0.84464 0.75648 0.02324 0.0
C290 C 0.84386 0.72189 0.01196 0.0
C291 C 0.80593 0.75563 0.02723 0.0
C292 C 0.76791 0.72188 0.0191 0.0
H293 H 0.99057 0.78435 0.01224 0.0
H294 H 0.95253 0.81957 0.02937 0.0
H295 H 0.88507 0.81828 0.03815 0.0
O296 O 0.78801 0.65765 0.95827 0.0
O297 O 0.84408 0.63913 0.0191 0.0
O298 O 0.78409 0.60499 0.04046 0.0
O299 O 0.85083 0.66473 0.95476 0.0
O300 O 0.74086 0.6002 0.99086 0.0
O301 O 0.73664 0.58514 0.02834 0.0
O302 O 0.80479 0.53051 0.05152 0.0
O303 O 0.73483 0.5202 -0.00542 0.0
O304 O 0.78581 0.56965 0.9698 0.0
O305 O 0.74176 0.51085 0.06485 0.0
O306 O 0.82429 0.55483 0.01703 0.0
O307 O 0.84003 0.59066 0.98235 0.0
C308 C 0.82536 0.63098 0.03889 0.0
C309 C 0.83788 0.71551 0.93638 0.0
C310 C 0.83195 0.75972 0.90711 0.0
C311 C 0.86224 0.79627 0.91851 0.0
C312 C 0.86831 0.75232 0.94744 0.0
C313 C 0.88043 0.79249 0.93849 0.0
C314 C 0.82005 0.71936 0.91617 0.0
C315 C 0.71868 0.5875 0.00967 0.0
C316 C 0.8226 0.67286 0.94603 0.0
C317 C 0.92242 0.79223 0.02454 0.0
C318 C 0.884 0.79142 0.02959 0.0
C319 C 0.75109 0.53304 0.97425 0.0
C320 C 0.77446 0.47111 0.07578 0.0
C321 C 0.79364 0.43176 0.10222 0.0
C322 C 0.77012 0.39481 0.08933 0.0
C323 C 0.7506 0.43361 0.0635 0.0
C324 C 0.79582 0.47006 0.09529 0.0
C325 C 0.74872 0.39582 0.07012 0.0
C326 C 0.846 0.56814 -0.00202 0.0
C327 C 0.77775 0.51128 0.06796 0.0
H328 H 0.87213 0.82774 0.91186 0.0
H329 H 0.8825 0.75009 0.96299 0.0
H330 H 0.90385 0.82079 0.94712 0.0
H331 H 0.79611 0.6909 0.90777 0.0
H332 H 0.76709 0.36471 0.09451 0.0
H333 H 0.73316 0.43328 0.04887 0.0
H334 H 0.81397 0.49882 0.10501 0.0
H335 H 0.73015 0.36711 0.06048 0.0
Eu336 Eu 0.17195 0.81182 0.31606 0.0
C337 C 0.16368 0.65014 0.37119 0.0
N338 N 0.15959 0.68366 0.37792 0.0
C339 C 0.09925 0.63768 0.40101 0.0
C340 C 0.13467 0.60848 0.37865 0.0
C341 C 0.12884 0.67843 0.3931 0.0
C342 C 0.10188 0.60248 0.39356 0.0
C343 C 0.20545 0.62435 0.35168 0.0
C344 C 0.19844 0.65794 0.3578 0.0
C345 C 0.17532 0.58241 0.35799 0.0
C346 C 0.13996 0.57448 0.37144 0.0
Eu347 Eu 0.20863 0.75053 0.36248 0.0
N348 N 0.22694 0.69878 0.35204 0.0
C349 C 0.24331 0.63417 0.34014 0.0
C350 C 0.26537 0.70896 0.34235 0.0
C351 C 0.2738 0.67675 0.33586 0.0
H352 H 0.12686 0.70572 0.3988 0.0
H353 H 0.30367 0.68474 0.32751 0.0
H354 H 0.22698 0.91657 0.32537 0.0
H355 H -0.00217 0.70664 0.32558 0.0
H356 H 0.28874 0.74193 0.33896 0.0
H357 H 0.24994 0.60928 0.33514 0.0
H358 H 0.06869 0.73183 0.30824 0.0
H359 H 0.07441 0.63343 0.41279 0.0
H360 H 0.17977 0.55605 0.35315 0.0
H361 H 0.11756 0.54212 0.37666 0.0
H362 H 0.21986 0.97024 0.34768 0.0
H363 H 0.07905 0.57099 0.39978 0.0
H364 H 0.98831 0.74985 0.35471 0.0
N365 N 0.16544 0.8659 0.33467 0.0
C366 C 0.12836 0.8538 0.34601 0.0
C367 C 0.19393 0.93761 0.34747 0.0
C368 C 0.12301 0.88316 0.35915 0.0
C369 C 0.19772 0.90738 0.33467 0.0
C370 C 0.15663 0.92533 0.36003 0.0
N371 N 0.1006 0.78607 0.32951 0.0
C372 C 0.06557 0.75015 0.32167 0.0
C373 C 0.05463 0.8001 0.35329 0.0
C374 C 0.09495 0.81254 0.34344 0.0
C375 C 0.01981 0.76056 0.34757 0.0
C376 C 0.02506 0.73606 0.33116 0.0
H377 H 0.15361 0.94877 0.3699 0.0
H378 H 0.07943 0.89179 0.38082 0.0
H379 H 0.01925 0.81913 0.37544 0.0
O380 O 0.14752 0.7965 0.28185 0.0
O381 O 0.20448 0.83989 0.34925 0.0
O382 O 0.16997 0.78164 0.37156 0.0
O383 O 0.18233 0.86186 0.29167 0.0
O384 O 0.13632 0.74 0.31958 0.0
O385 O 0.14128 0.737 0.35719 0.0
O386 O 0.25655 0.80279 0.3828 0.0
O387 O 0.21221 0.73455 0.32578 0.0
O388 O 0.20885 0.78293 0.30067 0.0
O389 O 0.23249 0.73768 0.39343 0.0
O390 O 0.26321 0.80433 0.343 0.0
O391 O 0.24453 0.845 0.31935 0.0
C392 C 0.18819 0.8228 0.36883 0.0
C393 C 0.12295 0.84011 0.26721 0.0
C394 C 0.06599 0.81824 0.23948 0.0
C395 C 0.04894 0.83934 0.25192 0.0
C396 C 0.10535 0.86094 0.27942 0.0
C397 C 0.06874 0.86079 0.27166 0.0
C398 C 0.10345 0.81932 0.24709 0.0
C399 C 0.12305 0.71851 0.33841 0.0
C400 C 0.15814 0.83519 0.27647 0.0
C401 C 0.08399 0.86985 0.37042 0.0
C402 C 0.04979 0.82841 0.36744 0.0
C403 C 0.21484 0.75069 0.30545 0.0
C404 C 0.25364 0.78873 0.42186 0.0
C405 C 0.28279 0.803 0.45994 0.0
C406 C 0.24573 0.80342 0.46737 0.0
C407 C 0.21678 0.78841 0.42971 0.0
C408 C 0.28667 0.79648 0.43688 0.0
C409 C 0.21321 0.79643 0.4523 0.0
C410 C 0.27269 0.83721 0.3296 0.0
C411 C 0.25665 0.77761 0.39848 0.0
H412 H 0.02033 0.83931 0.24634 0.0
H413 H 0.11926 0.87652 0.29517 0.0
H414 H 0.05524 0.87677 0.28117 0.0
H415 H 0.1164 0.80241 0.2379 0.0
H416 H 0.24093 0.80757 0.48495 0.0
H417 H 0.19047 0.78104 0.41846 0.0
H418 H 0.31498 0.79656 0.43055 0.0
H419 H 0.18457 0.796 0.45829 0.0
Eu420 Eu 0.36045 0.17581 0.64485 0.0
C421 C 0.55679 0.27611 0.68559 0.0
N422 N 0.52648 0.2353 0.69055 0.0
C423 C 0.57929 0.21358 0.68845 0.0
C424 C 0.59905 0.28645 0.68009 0.0
C425 C 0.53746 0.20445 0.69305 0.0
C426 C 0.60984 0.25434 0.68119 0.0
C427 C 0.57833 0.35112 0.68477 0.0
C428 C 0.54651 0.3081 0.68804 0.0
C429 C 0.61936 0.3611 0.6773 0.0
C430 C 0.62977 0.32883 0.67508 0.0
Eu431 Eu 0.45743 0.22373 0.69931 0.0
N432 N 0.50713 0.29768 0.69618 0.0
C433 C 0.56886 0.38297 0.69056 0.0
C434 C 0.50001 0.32868 0.70459 0.0
C435 C 0.52996 0.37169 0.70115 0.0
H436 H 0.51374 0.17289 0.69847 0.0
H437 H 0.5234 0.39607 0.70713 0.0
H438 H 0.34156 0.25684 0.63826 0.0
H439 H 0.25087 0.00887 0.66705 0.0
H440 H 0.47125 0.32033 0.7141 0.0
H441 H 0.59238 0.41635 0.6883 0.0
H442 H 0.32124 0.07236 0.66067 0.0
H443 H 0.58818 0.18941 0.69071 0.0
H444 H 0.64397 0.3939 0.6744 0.0
H445 H 0.66221 0.33725 0.67046 0.0
H446 H 0.27898 0.26754 0.6359 0.0
H447 H 0.64217 0.26117 0.67753 0.0
H448 H 0.18485 0.01334 0.66346 0.0
N449 N 0.30388 0.19043 0.64462 0.0
C450 C 0.26393 0.15602 0.64697 0.0
C451 C 0.27436 0.23608 0.6391 0.0
C452 C 0.22737 0.16057 0.64548 0.0
C453 C 0.30972 0.23006 0.64068 0.0
C454 C 0.23301 0.20119 0.64142 0.0
N455 N 0.29586 0.11338 0.65432 0.0
C456 C 0.29302 0.07533 0.65949 0.0
C457 C 0.21882 0.08061 0.65525 0.0
C458 C 0.2598 0.11642 0.65191 0.0
C459 C 0.21577 0.0416 0.66078 0.0
C460 C 0.253 0.039 0.66292 0.0
H461 H 0.20569 0.20598 0.64016 0.0
H462 H 0.15803 0.12754 0.64715 0.0
H463 H 0.15053 0.05763 0.65563 0.0
O464 O 0.35431 0.13764 0.61514 0.0
O465 O 0.32721 0.17549 0.67766 0.0
O466 O 0.39039 0.19249 0.68789 0.0
O467 O 0.35732 0.19838 0.61128 0.0
O468 O 0.38969 0.13462 0.65513 0.0
O469 O 0.40783 0.15429 0.6921 0.0
O470 O 0.46163 0.24471 0.73428 0.0
O471 O 0.48118 0.21145 0.66628 0.0
O472 O 0.43237 0.22103 0.64782 0.0
O473 O 0.45693 0.18436 0.72712 0.0
O474 O 0.42511 0.26259 0.6896 0.0
O475 O 0.40377 0.24743 0.65166 0.0
C476 C 0.35317 0.18649 0.69434 0.0
C477 C 0.31 0.14258 0.58746 0.0
C478 C 0.26669 0.08932 0.5595 0.0
C479 C 0.23603 0.10246 0.56091 0.0
C480 C 0.27923 0.1557 0.58831 0.0
C481 C 0.24231 0.13539 0.57529 0.0
C482 C 0.30326 0.10913 0.57316 0.0
C483 C 0.40679 0.13199 0.67435 0.0
C484 C 0.34867 0.16282 0.60163 0.0
C485 C 0.18653 0.12471 0.64837 0.0
C486 C 0.18227 0.08488 0.65321 0.0
C487 C 0.4626 0.21091 0.64728 0.0
C488 C 0.50384 0.22488 0.75621 0.0
C489 C 0.55455 0.2701 0.78469 0.0
C490 C 0.5792 0.2505 0.78073 0.0
C491 C 0.52862 0.20511 0.75286 0.0
C492 C 0.5167 0.25698 0.77247 0.0
C493 C 0.56609 0.21803 0.76499 0.0
C494 C 0.41271 0.27117 0.6701 0.0
C495 C 0.46584 0.21343 0.74218 0.0
H496 H 0.20779 0.08812 0.55044 0.0
H497 H 0.28351 0.18161 0.59897 0.0
H498 H 0.21878 0.14564 0.57611 0.0
H499 H 0.32643 0.09838 0.57273 0.0
H500 H 0.60823 0.25978 0.79012 0.0
H501 H 0.51939 0.17984 0.74075 0.0
H502 H 0.49779 0.2723 0.7753 0.0
H503 H 0.58503 0.20281 0.76219 0.0
H504 H 0.23116 0.77737 0.26161 0.0
H505 H 0.22022 0.73309 0.22881 0.0
H506 H 0.19411 0.6269 0.27214 0.0
H507 H 0.207 0.67134 0.30493 0.0
H508 H 0.23581 0.62588 0.23735 0.0
H509 H 0.11752 0.64585 0.25009 0.0
H510 H 0.07575 0.68205 0.25518 0.0
H511 H 0.10644 0.73105 0.18774 0.0
H512 H 0.14897 0.6955 0.18222 0.0
H513 H 0.16622 0.48696 0.14845 0.0
H514 H 0.14531 0.51497 0.18058 0.0
H515 H 0.20554 0.63914 0.1492 0.0
H516 H 0.22668 0.61134 0.11722 0.0
H517 H 0.13315 0.62032 0.18011 0.0
H518 H 0.27002 0.61964 0.1751 0.0
H519 H 0.31003 0.58152 0.16912 0.0
H520 H 0.23983 0.49528 0.2231 0.0
H521 H 0.19901 0.53265 0.22917 0.0
C522 C 0.22401 0.74486 0.26421 0.0
C523 C 0.21888 0.72763 0.286 0.0
C524 C 0.21732 0.71948 0.24542 0.0
C525 C 0.20462 0.67629 0.24809 0.0
C526 C 0.20316 0.66001 0.26971 0.0
C527 C 0.21074 0.68562 0.2885 0.0
C528 C 0.19213 0.64792 0.22839 0.0
C529 C 0.21268 0.62414 0.22514 0.0
C530 C 0.16193 0.64575 0.21237 0.0
C531 C 0.13661 0.66775 0.21571 0.0
C532 C 0.11561 0.66438 0.2363 0.0
C533 C 0.09178 0.68489 0.23929 0.0
C534 C 0.08848 0.70887 0.2218 0.0
C535 C 0.10907 0.71246 0.20128 0.0
C536 C 0.13298 0.69201 0.1982 0.0
C537 C 0.17311 0.51968 0.14798 0.0
C538 C 0.19856 0.54733 0.13071 0.0
C539 C 0.16111 0.5356 0.16627 0.0
C540 C 0.17444 0.57918 0.16729 0.0
C541 C 0.1949 0.60542 0.14864 0.0
C542 C 0.20724 0.58964 0.1305 0.0
C543 C 0.17748 0.59947 0.18918 0.0
C544 C 0.15542 0.62172 0.19275 0.0
C545 C 0.20602 0.6003 0.20568 0.0
C546 C 0.23126 0.5786 0.20243 0.0
C547 C 0.26302 0.59242 0.18561 0.0
C548 C 0.28582 0.57097 0.1822 0.0
C549 C 0.27738 0.53592 0.19567 0.0
C550 C 0.24626 0.52238 0.21265 0.0
C551 C 0.22331 0.54368 0.21609 0.0
H552 H 0.29503 0.51932 0.193 0.0
H553 H 0.06974 0.72444 0.22409 0.0
H554 H 0.46879 0.25227 0.60785 0.0
H555 H 0.5087 0.25426 0.57408 0.0
H556 H 0.53616 0.16191 0.604 0.0
H557 H 0.50092 0.16401 0.63881 0.0
H558 H 0.60404 0.21651 0.58626 0.0
H559 H 0.46364 0.14003 0.55851 0.0
H560 H 0.39009 0.12452 0.55247 0.0
H561 H 0.43591 0.23769 0.51206 0.0
H562 H 0.51046 0.25451 0.5184 0.0
H563 H 0.69479 0.19338 0.48394 0.0
H564 H 0.63774 0.17239 0.51238 0.0
H565 H 0.64044 0.29168 0.50231 0.0
H566 H 0.6978 0.31288 0.47427 0.0
H567 H 0.55424 0.2159 0.50856 0.0
H568 H 0.69837 0.28931 0.54271 0.0
H569 H 0.76871 0.29514 0.54939 0.0
H570 H 0.70653 0.16817 0.57663 0.0
H571 H 0.63585 0.1614 0.56973 0.0
C572 C 0.4832 0.23223 0.60712 0.0
C573 C 0.48156 0.20775 0.62584 0.0
C574 C 0.50585 0.23315 0.58773 0.0
C575 C 0.52559 0.20804 0.5863 0.0
C576 C 0.52221 0.18224 0.60478 0.0
C577 C 0.50135 0.18285 0.62452 0.0
C578 C 0.55154 0.21024 0.5661 0.0
C579 C 0.59243 0.21518 0.56934 0.0
C580 C 0.53715 0.20914 0.54381 0.0
C581 C 0.4926 0.19871 0.53912 0.0
C582 C 0.45809 0.16175 0.54841 0.0
C583 C 0.41614 0.15276 0.54494 0.0
C584 C 0.40808 0.18013 0.53191 0.0
C585 C 0.44216 0.21653 0.52219 0.0
C586 C 0.48433 0.22583 0.52572 0.0
C587 C 0.68231 0.2145 0.48746 0.0
C588 C 0.70035 0.25461 0.47701 0.0
C589 C 0.64993 0.20261 0.50369 0.0
C590 C 0.635 0.23058 0.50945 0.0
C591 C 0.65134 0.26959 0.49801 0.0
C592 C 0.68407 0.28169 0.48207 0.0
C593 C 0.60598 0.22166 0.52901 0.0
C594 C 0.56496 0.21601 0.52559 0.0
C595 C 0.61946 0.22028 0.55112 0.0
C596 C 0.66194 0.22484 0.55568 0.0
C597 C 0.69976 0.26263 0.55007 0.0
C598 C 0.73966 0.26607 0.55386 0.0
C599 C 0.74209 0.23203 0.56341 0.0
C600 C 0.70461 0.19451 0.56924 0.0
C601 C 0.66465 0.19087 0.56541 0.0
H602 H 0.773 0.23473 0.56631 0.0
H603 H 0.37548 0.17314 0.52931 0.0
H604 H 0.20813 0.41891 0.93509 0.0
H605 H 0.24218 0.45793 0.90033 0.0
H606 H 0.3514 0.54877 0.93825 0.0
H607 H 0.31758 0.51085 0.97285 0.0
H608 H 0.32066 0.58699 0.91175 0.0
H609 H 0.35431 0.47316 0.90399 0.0
H610 H 0.33465 0.39764 0.90132 0.0
H611 H 0.26029 0.38359 0.84243 0.0
H612 H 0.27901 0.45894 0.84493 0.0
H613 H 0.47626 0.71558 0.83674 0.0
H614 H 0.43968 0.65708 0.8637 0.0
H615 H 0.34117 0.58639 0.81501 0.0
H616 H 0.37867 0.64482 0.78763 0.0
H617 H 0.35746 0.53301 0.84351 0.0
H618 H 0.32374 0.64435 0.8497 0.0
H619 H 0.33969 0.71879 0.85182 0.0
H620 H 0.408 0.73529 0.91338 0.0
H621 H 0.39315 0.66113 0.9114 0.0
C622 C 0.23962 0.44688 0.93597 0.0
C623 C 0.26007 0.46168 0.95679 0.0
C624 C 0.25909 0.46905 0.91608 0.0
C625 C 0.29941 0.50616 0.9167 0.0
C626 C 0.32026 0.52022 0.93738 0.0
C627 C 0.30086 0.49831 0.95718 0.0
C628 C 0.31903 0.53253 0.89628 0.0
C629 C 0.32908 0.57521 0.89695 0.0
C630 C 0.32818 0.51663 0.87655 0.0
C631 C 0.31774 0.47161 0.87477 0.0
C632 C 0.33355 0.45392 0.89055 0.0
C633 C 0.3226 0.41115 0.88906 0.0
C634 C 0.29615 0.38582 0.87175 0.0
C635 C 0.28073 0.40325 0.85584 0.0
C636 C 0.29154 0.446 0.85727 0.0
C637 C 0.4474 0.68707 0.83163 0.0
C638 C 0.42991 0.6847 0.8103 0.0
C639 C 0.42654 0.65371 0.84699 0.0
C640 C 0.38728 0.61779 0.84149 0.0
C641 C 0.37138 0.61386 0.81958 0.0
C642 C 0.39269 0.64719 0.80401 0.0
C643 C 0.36074 0.58778 0.85958 0.0
C644 C 0.34891 0.54456 0.85834 0.0
C645 C 0.34925 0.60284 0.87881 0.0
C646 C 0.3576 0.64726 0.8803 0.0
C647 C 0.34239 0.66393 0.86361 0.0
C648 C 0.35123 0.70607 0.86479 0.0
C649 C 0.37491 0.73178 0.8827 0.0
C650 C 0.3897 0.71534 0.8995 0.0
C651 C 0.38106 0.67325 0.89837 0.0
H652 H 0.38172 0.76441 0.88358 0.0
H653 H 0.2877 0.35273 0.87063 0.0
H654 H 0.85344 0.26727 0.2794 0.0
H655 H 0.8659 0.30995 0.24511 0.0
H656 H 0.75037 0.31446 0.25838 0.0
H657 H 0.73853 0.27266 0.29306 0.0
H658 H 0.77199 0.28157 0.21076 0.0
H659 H 0.81289 0.39786 0.26566 0.0
H660 H 0.85519 0.43923 0.29825 0.0
H661 H 0.97137 0.46622 0.26405 0.0
H662 H 0.9298 0.4253 0.23124 0.0
H663 H 0.78774 0.46218 0.14318 0.0
H664 H 0.8017 0.44036 0.17969 0.0
H665 H 0.85468 0.37121 0.14642 0.0
H666 H 0.8409 0.39295 0.10985 0.0
H667 H 0.86889 0.43799 0.2045 0.0
H668 H 0.80206 0.27106 0.1687 0.0
H669 H 0.76046 0.22844 0.13627 0.0
H670 H 0.69527 0.30037 0.13264 0.0
H671 H 0.73565 0.34259 0.16544 0.0
C672 C 0.83108 0.27788 0.27505 0.0
C673 C 0.79543 0.26751 0.2888 0.0
C674 C 0.83826 0.30222 0.25561 0.0
C675 C 0.80925 0.31553 0.2495 0.0
C676 C 0.77324 0.30469 0.26308 0.0
C677 C 0.76656 0.28106 0.28279 0.0
C678 C 0.81535 0.33885 0.22827 0.0
C679 C 0.79322 0.31572 0.20933 0.0
C680 C 0.84333 0.3832 0.22655 0.0
C681 C 0.86829 0.40839 0.24609 0.0
C682 C 0.84746 0.41252 0.26515 0.0
C683 C 0.87129 0.43599 0.28363 0.0
C684 C 0.91592 0.45543 0.28322 0.0
C685 C 0.93684 0.45145 0.26432 0.0
C686 C 0.91318 0.42823 0.24575 0.0
C687 C 0.80387 0.44372 0.14366 0.0
C688 C 0.81246 0.42853 0.12373 0.0
C689 C 0.81185 0.43129 0.16453 0.0
C690 C 0.82844 0.40355 0.16566 0.0
C691 C 0.84138 0.39222 0.14582 0.0
C692 C 0.8333 0.40449 0.12498 0.0
C693 C 0.82502 0.38077 0.18692 0.0
C694 C 0.84782 0.40382 0.20585 0.0
C695 C 0.79753 0.33613 0.18868 0.0
C696 C 0.7721 0.31014 0.16939 0.0
C697 C 0.77855 0.27747 0.16111 0.0
C698 C 0.75519 0.2534 0.14267 0.0
C699 C 0.72533 0.26177 0.13236 0.0
C700 C 0.71849 0.29399 0.1406 0.0
C701 C 0.74154 0.31794 0.15914 0.0
H702 H 0.70745 0.24325 0.11801 0.0
H703 H 0.93421 0.47344 0.29759 0.0
H704 H 0.47629 0.81342 0.63891 0.0
H705 H 0.43668 0.81446 0.60611 0.0
H706 H 0.49653 0.75903 0.56632 0.0
H707 H 0.53462 0.75557 0.5997 0.0
H708 H 0.49742 0.83191 0.5461 0.0
H709 H 0.40102 0.69761 0.57666 0.0
H710 H 0.35345 0.64009 0.60268 0.0
H711 H 0.27945 0.70165 0.61378 0.0
H712 H 0.32717 0.76014 0.58821 0.0
H713 H 0.33106 0.76322 0.45869 0.0
H714 H 0.38008 0.76412 0.48715 0.0
H715 H 0.35598 0.84802 0.52795 0.0
H716 H 0.309 0.84989 0.49898 0.0
H717 H 0.33857 0.75702 0.54542 0.0
H718 H 0.4424 0.89404 0.51316 0.0
H719 H 0.48544 0.94156 0.48207 0.0
H720 H 0.54294 0.8641 0.47034 0.0
H721 H 0.49964 0.81567 0.50114 0.0
C722 C 0.48014 0.80025 0.62346 0.0
C723 C 0.50758 0.78316 0.62226 0.0
C724 C 0.45782 0.80133 0.60459 0.0
C725 C 0.46328 0.78637 0.58384 0.0
C726 C 0.49168 0.77049 0.58224 0.0
C727 C 0.51339 0.76855 0.60134 0.0
C728 C 0.43962 0.78825 0.56391 0.0
C729 C 0.46268 0.81512 0.54582 0.0
C730 C 0.39431 0.76642 0.56358 0.0
C731 C 0.36798 0.73353 0.58063 0.0
C732 C 0.37514 0.69938 0.58497 0.0
C733 C 0.34793 0.6664 0.59951 0.0
C734 C 0.31319 0.667 0.60966 0.0
C735 C 0.30616 0.70107 0.60573 0.0
C736 C 0.33337 0.73421 0.59128 0.0
C737 C 0.33708 0.78311 0.4733 0.0
C738 C 0.31564 0.8064 0.47641 0.0
C739 C 0.365 0.78328 0.48964 0.0
C740 C 0.37163 0.8062 0.50954 0.0
C741 C 0.35124 0.8302 0.51261 0.0
C742 C 0.324 0.8308 0.49609 0.0
C743 C 0.3963 0.80159 0.5281 0.0
C744 C 0.37332 0.77393 0.54584 0.0
C745 C 0.44151 0.82195 0.52784 0.0
C746 C 0.4673 0.85088 0.50924 0.0
C747 C 0.46376 0.8868 0.50376 0.0
C748 C 0.48833 0.91399 0.48624 0.0
C749 C 0.51679 0.90576 0.47418 0.0
C750 C 0.52081 0.87038 0.47966 0.0
C751 C 0.49627 0.84306 0.49715 0.0
H752 H 0.53582 0.92688 0.46064 0.0
H753 H 0.29191 0.64125 0.62075 0.0
H754 H 0.66876 0.46629 0.97335 0.0
H755 H 0.62955 0.42394 0.94104 0.0
H756 H 0.7423 0.49338 0.89941 0.0
H757 H 0.78151 0.53671 0.93161 0.0
H758 H 0.67654 0.48692 0.87818 0.0
H759 H 0.70471 0.38608 0.91692 0.0
H760 H 0.70451 0.34016 0.94771 0.0
H761 H 0.5676 0.28066 0.95308 0.0
H762 H 0.56701 0.32609 0.92221 0.0
H763 H 0.63333 0.34014 0.78945 0.0
H764 H 0.65894 0.38943 0.82113 0.0
H765 H 0.5326 0.32391 0.85096 0.0
H766 H 0.50678 0.27448 0.81917 0.0
H767 H 0.59659 0.32903 0.87874 0.0
H768 H 0.57031 0.4232 0.83431 0.0
H769 H 0.57333 0.46392 0.80038 0.0
H770 H 0.7106 0.53471 0.80398 0.0
H771 H 0.70847 0.49409 0.8378 0.0
C772 C 0.68549 0.47222 0.95743 0.0
C773 C 0.72836 0.5049 0.95511 0.0
C774 C 0.66295 0.4479 0.93891 0.0
C775 C 0.68301 0.45522 0.91778 0.0
C776 C 0.72605 0.48728 0.91552 0.0
C777 C 0.74848 0.51194 0.93397 0.0
C778 C 0.65895 0.43034 0.89786 0.0
C779 C 0.65941 0.45238 0.87824 0.0
C780 C 0.63536 0.3853 0.8981 0.0
C781 C 0.63586 0.3597 0.91744 0.0
C782 C 0.67462 0.36347 0.92482 0.0
C783 C 0.67461 0.33731 0.94215 0.0
C784 C 0.63603 0.3074 0.95227 0.0
C785 C 0.59742 0.30374 0.94517 0.0
C786 C 0.59723 0.32959 0.92772 0.0
C787 C 0.6109 0.33679 0.80259 0.0
C788 C 0.56823 0.30343 0.80203 0.0
C789 C 0.62544 0.3651 0.82056 0.0
C790 C 0.59759 0.36036 0.83831 0.0
C791 C 0.55447 0.32816 0.83733 0.0
C792 C 0.53977 0.30009 0.81919 0.0
C793 C 0.61498 0.38555 0.85902 0.0
C794 C 0.61321 0.36358 0.8788 0.0
C795 C 0.63777 0.43054 0.85878 0.0
C796 C 0.63922 0.4553 0.83851 0.0
C797 C 0.60117 0.44721 0.82778 0.0
C798 C 0.60272 0.47034 0.80858 0.0
C799 C 0.64213 0.50176 0.79998 0.0
C800 C 0.68009 0.51028 0.81063 0.0
C801 C 0.67872 0.48729 0.82985 0.0
H802 H 0.64327 0.51963 0.78511 0.0
H803 H 0.63609 0.28717 0.9657 0.0
H804 H 0.30218 0.34108 0.02482 0.0
H805 H 0.37972 0.36838 0.02315 0.0
H806 H 0.39855 0.48804 -0.00299 0.0
H807 H 0.32203 0.45888 -0.00386 0.0
H808 H 0.44687 0.47347 0.97558 0.0
H809 H 0.4412 0.4751 0.06309 0.0
H810 H 0.41048 0.43657 0.09891 0.0
H811 H 0.4239 0.33179 0.07545 0.0
H812 H 0.45438 0.36983 0.03956 0.0
H813 H 0.66407 0.59347 0.0394 0.0
H814 H 0.5854 0.55388 0.03847 0.0
H815 H 0.58969 0.49406 0.97661 0.0
H816 H 0.66784 0.53514 0.97699 0.0
H817 H 0.53119 0.47035 0.04046 0.0
H818 H 0.50228 0.47003 0.94536 0.0
H819 H 0.53684 0.5143 0.91171 0.0
H820 H 0.59762 0.62612 0.95275 0.0
H821 H 0.56302 0.5826 0.98659 0.0
C822 C 0.32322 0.37317 0.01873 0.0
C823 C 0.30614 0.39817 0.01093 0.0
C824 C 0.36768 0.38913 0.01812 0.0
C825 C 0.3958 0.43094 0.01047 0.0
C826 C 0.37815 0.45564 0.00286 0.0
C827 C 0.33402 0.43907 0.00256 0.0
C828 C 0.44333 0.44941 0.0093 0.0
C829 C 0.46508 0.47256 0.98984 0.0
C830 C 0.46786 0.4479 0.02748 0.0
C831 C 0.44837 0.42449 0.04853 0.0
C832 C 0.43665 0.44348 0.06552 0.0
C833 C 0.41965 0.4219 0.08584 0.0
C834 C 0.41476 0.38153 0.08935 0.0
C835 C 0.4273 0.36287 0.07264 0.0
C836 C 0.44445 0.38442 0.05234 0.0
C837 C 0.64799 0.57222 0.02552 0.0
C838 C 0.67173 0.56674 0.00844 0.0
C839 C 0.60321 0.54948 0.02504 0.0
C840 C 0.58162 0.52093 0.00748 0.0
C841 C 0.60552 0.51614 0.99021 0.0
C842 C 0.65017 0.53944 0.99049 0.0
C843 C 0.53412 0.496 0.00737 0.0
C844 C 0.51272 0.47113 0.02629 0.0
C845 C 0.50995 0.49636 0.98878 0.0
C846 C 0.53043 0.52296 0.96851 0.0
C847 C 0.52291 0.50408 0.94718 0.0
C848 C 0.54252 0.52904 0.92808 0.0
C849 C 0.56953 0.57297 0.9301 0.0
C850 C 0.57683 0.59207 0.95122 0.0
C851 C 0.55727 0.56726 0.97036 0.0
H852 H 0.58473 0.59222 0.9153 0.0
H853 H 0.40158 0.36487 0.10508 0.0
H854 H 0.14153 0.66644 0.31479 0.0
H855 H 0.10565 0.58934 0.31642 0.0
H856 H 0.00736 0.58847 0.35891 0.0
H857 H 0.04787 0.66647 0.35983 0.0
H858 H 0.01669 0.53263 0.37356 0.0
H859 H -0.00144 0.55969 0.29692 0.0
H860 H 0.01495 0.58635 0.25783 0.0
H861 H 0.09329 0.52873 0.24936 0.0
H862 H 0.07744 0.50177 0.28842 0.0
H863 H 0.8826 0.31898 0.30976 0.0
H864 H 0.92862 0.39528 0.30953 0.0
H865 H 0.98478 0.38686 0.37211 0.0
H866 H 0.9343 0.30989 0.37337 0.0
H867 H 0.00169 0.44733 0.3058 0.0
H868 H 0.0267 0.47767 0.4013 0.0
H869 H 0.9899 0.44554 0.43725 0.0
H870 H 0.86831 0.38727 0.40389 0.0
H871 H 0.90452 0.41947 0.36792 0.0
C872 C 0.11264 0.64965 0.3246 0.0
C873 C 0.09789 0.672 0.33749 0.0
C874 C 0.09141 0.60539 0.3252 0.0
C875 C 0.05292 0.58242 0.33735 0.0
C876 C 0.03711 0.60509 0.34951 0.0
C877 C 0.05991 0.64958 0.34992 0.0
C878 C 0.03004 0.53503 0.338 0.0
C879 C 0.01316 0.51412 0.35863 0.0
C880 C 0.02505 0.51031 0.31863 0.0
C881 C 0.03701 0.52893 0.29565 0.0
C882 C 0.0197 0.55315 0.28682 0.0
C883 C 0.02865 0.56805 0.26462 0.0
C884 C 0.05483 0.5589 0.25109 0.0
C885 C 0.07274 0.53548 0.25983 0.0
C886 C 0.06375 0.52034 0.28197 0.0
C887 C 0.90502 0.33327 0.3233 0.0
C888 C 0.90488 0.30871 0.34154 0.0
C889 C 0.93155 0.37719 0.32323 0.0
C890 C 0.96005 0.39754 0.341 0.0
C891 C 0.9621 0.37244 0.35857 0.0
C892 C 0.93378 0.32844 0.35917 0.0
C893 C 0.98615 0.44491 0.34103 0.0
C894 C 0.00482 0.46591 0.32066 0.0
C895 C 0.99014 0.46959 0.36026 0.0
C896 C 0.96828 0.45033 0.38188 0.0
C897 C 0.99212 0.45798 0.40169 0.0
C898 C 0.97139 0.43979 0.42206 0.0
C899 C 0.92681 0.41417 0.42285 0.0
C900 C 0.90285 0.40688 0.40328 0.0
C901 C 0.92344 0.42504 0.3829 0.0
H902 H 0.91084 0.40011 0.43863 0.0
H903 H 0.06139 0.57009 0.23384 0.0
H904 H 0.43269 0.10874 0.71222 0.0
H905 H 0.47028 0.06876 0.71456 0.0
H906 H 0.45772 0.04857 0.64283 0.0
H907 H 0.42213 0.09085 0.64022 0.0
H908 H 0.44743 0.99212 0.70751 0.0
H909 H 0.53988 0.03482 0.62171 0.0
H910 H 0.58311 0.09547 0.59632 0.0
H911 H 0.59938 0.18274 0.64894 0.0
H912 H 0.55644 0.12233 0.67487 0.0
H913 H 0.55478 0.88435 0.64565 0.0
H914 H 0.52466 0.93149 0.64829 0.0
H915 H 0.56846 0.96111 0.71678 0.0
H916 H 0.59527 0.91094 0.71483 0.0
H917 H 0.56796 0.01637 0.65738 0.0
H918 H 0.52005 0.96902 0.74086 0.0
H919 H 0.48812 0.9086 0.76767 0.0
H920 H 0.38722 0.83597 0.72099 0.0
H921 H 0.41892 0.89609 0.69395 0.0
C922 C 0.43829 0.09625 0.69689 0.0
C923 C 0.42527 0.10379 0.67598 0.0
C924 C 0.45965 0.07317 0.69827 0.0
C925 C 0.46766 0.05637 0.67882 0.0
C926 C 0.45303 0.06226 0.65799 0.0
C927 C 0.43213 0.08591 0.65657 0.0
C928 C 0.48949 0.03102 0.68063 0.0
C929 C 0.47424 -0.00195 0.69672 0.0
C930 C 0.52408 0.03804 0.66637 0.0
C931 C 0.54481 0.07416 0.65022 0.0
C932 C 0.55232 0.06696 0.62784 0.0
C933 C 0.57696 0.10122 0.61342 0.0
C934 C 0.59438 0.14287 0.62119 0.0
C935 C 0.58603 0.15037 0.64314 0.0
C936 C 0.56139 0.11619 0.65765 0.0
C937 C 0.55788 0.90093 0.66127 0.0
C938 C 0.57703 0.8941 0.68009 0.0
C939 C 0.54038 0.92748 0.66283 0.0
C940 C 0.54281 0.94847 0.68304 0.0
C941 C 0.56399 0.94337 0.70149 0.0
C942 C 0.58019 0.91558 0.70019 0.0
C943 C 0.52556 0.97778 0.6839 0.0
C944 C 0.54142 0.01115 0.66822 0.0
C945 C 0.49207 0.97159 0.69864 0.0
C946 C 0.47286 0.93604 0.71503 0.0
C947 C 0.49148 0.93985 0.73622 0.0
C948 C 0.47332 0.90581 0.75149 0.0
C949 C 0.43598 0.86823 0.74592 0.0
C950 C 0.41643 0.86488 0.72519 0.0
C951 C 0.43457 0.89883 0.70987 0.0
H952 H 0.42199 0.84189 0.75774 0.0
H953 H 0.61416 0.16937 0.61019 0.0
H954 H 0.55716 0.65965 0.70381 0.0
H955 H 0.53418 0.58443 0.70014 0.0
H956 H 0.53266 0.59563 0.62787 0.0
H957 H 0.55274 0.67045 0.63156 0.0
H958 H 0.46238 0.53047 0.64089 0.0
H959 H 0.60915 0.58076 0.65652 0.0
H960 H 0.67773 0.6205 0.67649 0.0
H961 H 0.6205 0.54556 0.73601 0.0
H962 H 0.55131 0.50592 0.71656 0.0
H963 H 0.43488 0.31822 0.63143 0.0
H964 H 0.46125 0.39466 0.62823 0.0
H965 H 0.4374 0.3994 0.69891 0.0
H966 H 0.40847 0.32235 0.70209 0.0
H967 H 0.52504 0.45593 0.68259 0.0
H968 H 0.37657 0.41144 0.66666 0.0
H969 H 0.30943 0.37088 0.64555 0.0
H970 H 0.3741 0.43473 0.58453 0.0
H971 H 0.44186 0.47514 0.60524 0.0
C972 C 0.55191 0.64607 0.68714 0.0
C973 C 0.55565 0.67052 0.66802 0.0
C974 C 0.53937 0.60321 0.68503 0.0
C975 C 0.53199 0.58448 0.6637 0.0
C976 C 0.53803 0.60947 0.64448 0.0
C977 C 0.54974 0.65221 0.64662 0.0
C978 C 0.51476 0.53815 0.66171 0.0
C979 C 0.47665 0.51432 0.64964 0.0
C980 C 0.53307 0.51702 0.67337 0.0
C981 C 0.57486 0.54053 0.68509 0.0
C982 C 0.61106 0.57293 0.67391 0.0
C983 C 0.65008 0.59544 0.68514 0.0
C984 C 0.65345 0.5856 0.70751 0.0
C985 C 0.61783 0.55316 0.71868 0.0
C986 C 0.5787 0.53064 0.70755 0.0
C987 C 0.43404 0.33528 0.64617 0.0
C988 C 0.42073 0.31478 0.66719 0.0
C989 C 0.44934 0.37888 0.64432 0.0
C990 C 0.45156 0.40227 0.66344 0.0
C991 C 0.43591 0.38148 0.6841 0.0
C992 C 0.41975 0.33778 0.68588 0.0
C993 C 0.47257 0.44885 0.6623 0.0
C994 C 0.51135 0.47248 0.67369 0.0
C995 C 0.45526 0.46979 0.64982 0.0
C996 C 0.41439 0.44595 0.63745 0.0
C997 C 0.37657 0.41655 0.64871 0.0
C998 C 0.33838 0.39364 0.63682 0.0
C999 C 0.33753 0.40014 0.6137 0.0
C1000 C 0.37483 0.42968 0.60243 0.0
C1001 C 0.41313 0.4526 0.61424 0.0
H1002 H 0.30793 0.38236 0.60452 0.0
H1003 H 0.68368 0.60307 0.71618 0.0
H1004 H 0.11115 0.45073 0.02849 0.0
H1005 H 0.05739 0.47167 0.02296 0.0
H1006 H 0.02708 0.41154 0.95798 0.0
H1007 H 0.08167 0.39052 0.96324 0.0
H1008 H 0.03833 0.49598 0.95883 0.0
H1009 H 0.95748 0.36255 -0.00212 0.0
H1010 H 0.94619 0.31041 0.02772 0.0
H1011 H 0.95591 0.39952 0.078 0.0
H1012 H 0.96751 0.45221 0.04853 0.0
H1013 H 0.86404 0.54155 0.95856 0.0
H1014 H 0.90888 0.50853 0.95394 0.0
H1015 H 0.94395 0.53175 0.02396 0.0
H1016 H 0.89814 0.56297 0.02872 0.0
H1017 H 0.92133 0.454 0.01483 0.0
H1018 H 0.01325 0.59 0.97882 0.0
H1019 H 0.03138 0.64722 0.95097 0.0
H1020 H 0.00731 0.55936 0.89723 0.0
H1021 H 0.98848 0.50147 0.92479 0.0
C1022 C 0.09316 0.4418 0.01298 0.0
C1023 C 0.10067 0.41881 -0.00369 0.0
C1024 C 0.06227 0.45369 0.00991 0.0
C1025 C 0.03807 0.44279 0.99017 0.0
C1026 C 0.04542 0.42004 0.97337 0.0
C1027 C 0.07634 0.40783 0.97648 0.0
C1028 C 0.00559 0.45602 0.98739 0.0
C1029 C 0.01204 0.48613 0.9707 0.0
C1030 C 0.97199 0.44367 0.0032 0.0
C1031 C 0.96345 0.41138 0.02096 0.0
C1032 C 0.95724 0.37102 0.01531 0.0
C1033 C 0.95075 0.34134 0.03217 0.0
C1034 C 0.95025 0.35158 0.05476 0.0
C1035 C 0.95608 0.39148 0.06052 0.0
C1036 C 0.9625 0.42124 0.04373 0.0
C1037 C 0.88208 0.54025 0.97277 0.0
C1038 C 0.87784 0.55476 -0.00603 0.0
C1039 C 0.90755 0.52132 0.97017 0.0
C1040 C 0.92978 0.51758 0.98863 0.0
C1041 C 0.92678 0.53381 0.00953 0.0
C1042 C 0.90085 0.5519 0.01221 0.0
C1043 C 0.95498 0.49544 0.98679 0.0
C1044 C 0.94698 0.46335 0.0026 0.0
C1045 C 0.98756 0.50654 0.97039 0.0
C1046 C -0.00106 0.54132 0.95384 0.0
C1047 C 0.01148 0.58282 0.96106 0.0
C1048 C 0.02195 0.61538 0.94533 0.0
C1049 C 0.02036 0.6069 0.92234 0.0
C1050 C 0.00843 0.56586 0.91504 0.0
C1051 C -0.00213 0.53317 0.9307 0.0
H1052 H 0.02848 0.63215 0.91019 0.0
H1053 H 0.94536 0.3286 0.06777 0.0
H1054 H 0.33884 0.84338 0.35455 0.0
H1055 H 0.41389 0.89816 0.35247 0.0
H1056 H 0.38718 0.95727 0.2966 0.0
H1057 H 0.31112 0.90246 0.29862 0.0
H1058 H 0.46587 0.94655 0.29375 0.0
H1059 H 0.39586 0.00252 0.34059 0.0
H1060 H 0.34766 -0.00261 0.37153 0.0
H1061 H 0.42684 0.97925 0.41894 0.0
H1062 H 0.47497 0.98324 0.38822 0.0
H1063 H 0.66998 0.13327 0.30073 0.0
H1064 H 0.59314 0.08386 0.29705 0.0
H1065 H 0.59004 0.03504 0.3638 0.0
H1066 H 0.66669 0.08578 0.36781 0.0
H1067 H 0.52381 0.04436 0.35874 0.0
H1068 H 0.58937 0.98145 0.31457 0.0
H1069 H 0.63696 0.97987 0.28512 0.0
H1070 H 0.56706 0.00449 0.23461 0.0
H1071 H 0.51943 0.00689 0.26381 0.0
C1072 C 0.34869 0.86761 0.34159 0.0
C1073 C 0.31878 0.86854 0.32677 0.0
C1074 C 0.39168 0.89897 0.3405 0.0
C1075 C 0.4058 0.93173 0.3245 0.0
C1076 C 0.37664 0.93209 0.30907 0.0
C1077 C 0.33327 0.90088 0.31031 0.0
C1078 C 0.45081 0.96642 0.32486 0.0
C1079 C 0.47857 0.96861 0.30767 0.0
C1080 C 0.46718 -0.00592 0.34345 0.0
C1081 C 0.43888 0.99287 0.36205 0.0
C1082 C 0.40284 -0.00287 0.35759 0.0
C1083 C 0.37553 -0.00555 0.3751 0.0
C1084 C 0.38418 0.98798 0.39718 0.0
C1085 C 0.42019 0.98426 0.40182 0.0
C1086 C 0.4475 0.98674 0.38436 0.0
C1087 C 0.65286 0.1117 0.31451 0.0
C1088 C 0.67404 0.11299 0.3345 0.0
C1089 C 0.60901 0.08351 0.31241 0.0
C1090 C 0.58586 0.05528 0.33003 0.0
C1091 C 0.60718 0.05654 0.35 0.0
C1092 C 0.6509 0.08529 0.35225 0.0
C1093 C 0.53944 0.02442 0.3277 0.0
C1094 C 0.51129 0.02283 0.34459 0.0
C1095 C 0.52286 -0.00323 0.30903 0.0
C1096 C 0.5511 -0.00522 0.2914 0.0
C1097 C 0.58432 0.9868 0.2972 0.0
C1098 C 0.61129 0.98574 0.28055 0.0
C1099 C 0.60511 0.99219 0.25802 0.0
C1100 C 0.57185 -0.00043 0.25208 0.0
C1101 C 0.54484 0.00076 0.26867 0.0
H1102 H 0.62603 0.99136 0.24515 0.0
H1103 H 0.36305 0.98591 0.41072 0.0
H1104 H 0.30267 0.22095 0.70124 0.0
H1105 H 0.28425 0.24095 0.73692 0.0
H1106 H 0.36412 0.20216 0.77199 0.0
H1107 H 0.37999 0.1793 0.73609 0.0
H1108 H 0.29334 0.17381 0.79361 0.0
H1109 H 0.3931 0.31111 0.76626 0.0
H1110 H 0.42888 0.37215 0.74019 0.0
H1111 H 0.31355 0.37917 0.73571 0.0
H1112 H 0.27698 0.31802 0.76168 0.0
H1113 H 0.24596 0.2583 0.89308 0.0
H1114 H 0.28967 0.25419 0.86228 0.0
H1115 H 0.19865 0.25038 0.81409 0.0
H1116 H 0.15461 0.25349 0.84476 0.0
H1117 H 0.28959 0.30792 0.80326 0.0
H1118 H 0.18946 0.16192 0.82739 0.0
H1119 H 0.15786 0.10425 0.8557 0.0
H1120 H 0.28162 0.11806 0.86789 0.0
H1121 H 0.31405 0.1763 0.83986 0.0
C1122 C 0.31647 0.21694 0.71657 0.0
C1123 C 0.34387 0.19983 0.716 0.0
C1124 C 0.30637 0.22888 0.73695 0.0
C1125 C 0.32376 0.22431 0.75718 0.0
C1126 C 0.35091 0.20678 0.7566 0.0
C1127 C 0.36065 0.19442 0.73613 0.0
C1128 C 0.31072 0.23491 0.77889 0.0
C1129 C 0.29357 0.20362 0.79587 0.0
C1130 C 0.31071 0.2737 0.78199 0.0
C1131 C 0.33223 0.30982 0.76587 0.0
C1132 C 0.37524 0.32543 0.75958 0.0
C1133 C 0.39571 0.36016 0.74486 0.0
C1134 C 0.37348 0.37953 0.7363 0.0
C1135 C 0.33073 0.36416 0.74238 0.0
C1136 C 0.31016 0.32955 0.75716 0.0
C1137 C 0.23564 0.25689 0.87587 0.0
C1138 C 0.19697 0.25593 0.87116 0.0
C1139 C 0.26048 0.25453 0.85837 0.0
C1140 C 0.24722 0.25189 0.83598 0.0
C1141 C 0.20939 0.25248 0.83127 0.0
C1142 C 0.18422 0.25403 0.84874 0.0
C1143 C 0.27134 0.24641 0.81733 0.0
C1144 C 0.29044 0.27863 0.80103 0.0
C1145 C 0.27381 0.20888 0.81503 0.0
C1146 C 0.25425 0.1738 0.83177 0.0
C1147 C 0.20999 0.15294 0.83628 0.0
C1148 C 0.19192 0.12009 0.85223 0.0
C1149 C 0.21774 0.1076 0.86364 0.0
C1150 C 0.26167 0.12784 0.85907 0.0
C1151 C 0.27991 0.16076 0.84316 0.0
H1152 H 0.20368 0.08215 0.87598 0.0
H1153 H 0.38936 0.40656 0.72501 0.0
H1154 H 0.90194 0.30085 0.19818 0.0
H1155 H 0.95717 0.32859 0.16876 0.0
H1156 H 0.96454 0.21339 0.17223 0.0
H1157 H 0.91034 0.18623 0.20221 0.0
H1158 H 0.04219 0.27976 0.16633 0.0
H1159 H 0.90332 0.23201 0.13051 0.0
H1160 H 0.83566 0.23289 0.12588 0.0
H1161 H 0.90621 0.3672 0.11216 0.0
H1162 H 0.97431 0.36714 0.11676 0.0
H1163 H 0.12443 0.27542 0.05823 0.0
H1164 H 0.08234 0.26217 0.0929 0.0
H1165 H 0.08311 0.38063 0.08322 0.0
H1166 H 0.1233 0.39266 0.04836 0.0
H1167 H 0.00546 0.32031 0.09348 0.0
H1168 H 0.14263 0.37 0.12488 0.0
H1169 H 0.21263 0.37477 0.1306 0.0
H1170 H 0.14977 0.2454 0.15441 0.0
H1171 H 0.07928 0.23962 0.14849 0.0
C1172 C 0.91559 0.2816 0.19274 0.0
C1173 C 0.90158 0.24121 0.20235 0.0
C1174 C 0.94705 0.2974 0.17585 0.0
C1175 C 0.9644 0.2727 0.16781 0.0
C1176 C 0.95159 0.23304 0.17803 0.0
C1177 C 0.92062 0.21751 0.19518 0.0
C1178 C -0.00539 0.28723 0.14825 0.0
C1179 C 0.03393 0.28814 0.15033 0.0
C1180 C 0.98477 0.29989 0.12756 0.0
C1181 C 0.94385 0.29959 0.12408 0.0
C1182 C 0.90437 0.26171 0.1265 0.0
C1183 C 0.86597 0.26208 0.12387 0.0
C1184 C 0.86668 0.30009 0.1187 0.0
C1185 C 0.90576 0.33779 0.11611 0.0
C1186 C 0.94425 0.33759 0.11867 0.0
C1187 C 0.11633 0.29899 0.06382 0.0
C1188 C 0.12897 0.33614 0.05109 0.0
C1189 C 0.09231 0.29146 0.08363 0.0
C1190 C 0.08011 0.32079 0.09098 0.0
C1191 C 0.09253 0.35777 0.07814 0.0
C1192 C 0.11647 0.36518 0.05837 0.0
C1193 C 0.05263 0.3118 0.11139 0.0
C1194 C 0.01386 0.31204 0.10948 0.0
C1195 C 0.06333 0.30093 0.13232 0.0
C1196 C 0.10563 0.30425 0.13605 0.0
C1197 C 0.14369 0.34244 0.13117 0.0
C1198 C 0.18347 0.34535 0.13447 0.0
C1199 C 0.18565 0.31038 0.14282 0.0
C1200 C 0.14803 0.27245 0.14792 0.0
C1201 C 0.10814 0.26935 0.14462 0.0
H1202 H 0.21648 0.31268 0.14537 0.0
H1203 H 0.83697 0.30038 0.11667 0.0
H1204 H 0.79429 0.00591 0.56816 0.0
H1205 H 0.79992 0.04626 0.53389 0.0
H1206 H 0.71022 0.92989 0.50087 0.0
H1207 H 0.70432 0.88941 0.53513 0.0
H1208 H 0.78584 0.98055 0.47619 0.0
H1209 H 0.67767 -0.00474 0.51584 0.0
H1210 H 0.64536 0.01389 0.54727 0.0
H1211 H 0.7463 0.14417 0.54304 0.0
H1212 H 0.77971 0.12618 0.51184 0.0
H1213 H 0.76194 0.07407 0.37655 0.0
H1214 H 0.74961 0.03269 0.41103 0.0
H1215 H 0.8189 0.14889 0.44879 0.0
H1216 H 0.8299 0.19048 0.41449 0.0
H1217 H 0.75125 0.09682 0.47122 0.0
H1218 H 0.86271 0.08361 0.43428 0.0
H1219 H 0.89789 0.06709 0.4034 0.0
H1220 H 0.79503 0.93744 0.40324 0.0
H1221 H 0.75905 0.95328 0.43403 0.0
C1222 C 0.77575 0.989 0.55359 0.0
C1223 C 0.74896 0.94455 0.55425 0.0
C1224 C 0.77874 0.01208 0.53411 0.0
C1225 C 0.75529 0.99105 0.51492 0.0
C1226 C 0.72844 0.94669 0.51555 0.0
C1227 C 0.72499 0.92366 0.53512 0.0
C1228 C 0.7605 0.01506 0.49382 0.0
C1229 C 0.77771 0.00559 0.47497 0.0
C1230 C 0.75107 0.04854 0.49253 0.0
C1231 C 0.73151 0.05922 0.51165 0.0
C1232 C 0.69333 0.02777 0.52179 0.0
C1233 C 0.67473 0.03825 0.53953 0.0
C1234 C 0.69383 0.08016 0.54719 0.0
C1235 C 0.73158 0.11169 0.53713 0.0
C1236 C 0.75037 0.10136 0.51942 0.0
C1237 C 0.77475 0.09083 0.39218 0.0
C1238 C 0.79712 0.13556 0.39277 0.0
C1239 C 0.76781 0.0671 0.41189 0.0
C1240 C 0.78387 0.08761 0.43252 0.0
C1241 C 0.8062 0.13231 0.43311 0.0
C1242 C 0.81264 0.15605 0.41346 0.0
C1243 C 0.77695 0.06257 0.45354 0.0
C1244 C 0.75942 0.07181 0.47239 0.0
C1245 C 0.78664 0.02925 0.45497 0.0
C1246 C 0.80804 0.01972 0.43634 0.0
C1247 C 0.84745 0.05165 0.42756 0.0
C1248 C 0.86757 0.04238 0.4101 0.0
C1249 C 0.84869 0.00122 0.40137 0.0
C1250 C 0.80962 0.96928 0.41004 0.0
C1251 C 0.78939 0.97837 0.42751 0.0
H1252 H 0.86435 -0.00595 0.3879 0.0
H1253 H 0.6793 0.08822 0.56088 0.0
H1254 H 0.6304 0.82747 0.74951 0.0
H1255 H 0.66836 0.82221 0.78228 0.0
H1256 H 0.71191 0.7506 0.74342 0.0
H1257 H 0.67398 0.75565 0.71052 0.0
H1258 H 0.67672 0.71424 0.78607 0.0
H1259 H 0.78178 0.84874 0.7544 0.0
H1260 H 0.80793 0.92102 0.73924 0.0
H1261 H 0.77758 0.95919 0.80173 0.0
H1262 H 0.75104 0.88702 0.81729 0.0
H1263 H 0.82184 0.71752 0.8676 0.0
H1264 H 0.78908 0.72383 0.83291 0.0
H1265 H 0.76367 0.81609 0.86459 0.0
H1266 H 0.79767 0.81081 0.89905 0.0
H1267 H 0.79101 0.84165 0.82423 0.0
H1268 H 0.68429 0.70774 0.85599 0.0
H1269 H 0.65548 0.63507 0.87129 0.0
H1270 H 0.68495 0.59503 0.80913 0.0
H1271 H 0.71438 0.66746 0.79358 0.0
C1272 C 0.64816 0.81072 0.74789 0.0
C1273 C 0.64939 0.79219 0.72738 0.0
C1274 C 0.66993 0.80786 0.76662 0.0
C1275 C 0.69308 0.78619 0.76523 0.0
C1276 C 0.69426 0.76751 0.74481 0.0
C1277 C 0.67283 0.7707 0.726 0.0
C1278 C 0.71544 0.78253 0.78526 0.0
C1279 C 0.70218 0.74198 0.79427 0.0
C1280 C 0.74781 0.81885 0.7962 0.0
C1281 C 0.7641 0.86237 0.78695 0.0
C1282 C 0.7804 0.87245 0.76487 0.0
C1283 C 0.79533 0.9134 0.7562 0.0
C1284 C 0.7942 0.9446 0.76945 0.0
C1285 C 0.77837 0.93497 0.79146 0.0
C1286 C 0.76348 0.89407 0.80024 0.0
C1287 C 0.80912 0.73903 0.86714 0.0
C1288 C 0.81219 0.7636 0.88602 0.0
C1289 C 0.79025 0.74252 0.84734 0.0
C1290 C 0.77317 0.76993 0.84618 0.0
C1291 C 0.77657 0.79473 0.86501 0.0
C1292 C 0.79601 0.79172 0.8847 0.0
C1293 C 0.75217 0.77318 0.82533 0.0
C1294 C 0.76565 0.81374 0.8161 0.0
C1295 C 0.71967 0.7368 0.8143 0.0
C1296 C 0.70196 0.69317 0.8237 0.0
C1297 C 0.68492 0.68349 0.84565 0.0
C1298 C 0.66841 0.6423 0.85436 0.0
C1299 C 0.66847 0.61042 0.84122 0.0
C1300 C 0.68494 0.61967 0.81932 0.0
C1301 C 0.70152 0.66079 0.81054 0.0
H1302 H 0.65568 0.57854 0.84797 0.0
H1303 H 0.80574 0.97628 0.76269 0.0
H1304 H 0.98104 0.76084 0.23455 0.0
H1305 H 0.94379 0.72414 0.20021 0.0
H1306 H 0.06366 0.78471 0.16375 0.0
H1307 H 0.10123 0.82129 0.19817 0.0
H1308 H -0.003 0.7942 0.14397 0.0
H1309 H 0.02044 0.68361 0.17217 0.0
H1310 H 0.01888 0.63204 0.19991 0.0
H1311 H 0.88186 0.57176 0.20407 0.0
H1312 H 0.88251 0.62299 0.1764 0.0
H1313 H 0.91204 0.68392 0.04179 0.0
H1314 H 0.95481 0.71291 0.07563 0.0
H1315 H 0.84113 0.64484 0.11665 0.0
H1316 H 0.79791 0.616 0.08276 0.0
H1317 H 0.90781 0.63808 0.13368 0.0
H1318 H 0.88327 0.74962 0.10875 0.0
H1319 H 0.88254 0.80322 0.08338 0.0
H1320 H 0.01895 0.86296 0.07497 0.0
H1321 H 0.02045 0.80945 0.10017 0.0
C1322 C -0.00054 0.76616 0.21922 0.0
C1323 C 0.04395 0.79423 0.21895 0.0
C1324 C 0.97822 0.74491 0.19969 0.0
C1325 C 0.00099 0.75162 0.17947 0.0
C1326 C 0.04555 0.77905 0.17922 0.0
C1327 C 0.06693 0.79985 0.19885 0.0
C1328 C 0.97767 0.73258 0.15832 0.0
C1329 C 0.97822 0.76005 0.14148 0.0
C1330 C 0.95202 0.68804 0.1555 0.0
C1331 C 0.95156 0.65746 0.17236 0.0
C1332 C 0.98999 0.65965 0.17916 0.0
C1333 C 0.98928 0.63042 0.19484 0.0
C1334 C 0.95035 0.59886 0.20385 0.0
C1335 C 0.91201 0.59631 0.19712 0.0
C1336 C 0.91252 0.62535 0.18139 0.0
C1337 C 0.89598 0.67535 0.05796 0.0
C1338 C 0.8514 0.64808 0.0595 0.0
C1339 C 0.92055 0.69192 0.07733 0.0
C1340 C 0.90116 0.68138 0.0987 0.0
C1341 C 0.85679 0.65346 0.10034 0.0
C1342 C 0.8321 0.63715 0.08094 0.0
C1343 C 0.92717 0.69978 0.11928 0.0
C1344 C 0.92698 0.67222 0.13603 0.0
C1345 C 0.95292 0.74431 0.12217 0.0
C1346 C 0.95192 0.7753 0.10618 0.0
C1347 C 0.91305 0.77387 0.10128 0.0
C1348 C 0.91253 0.80437 0.08703 0.0
C1349 C 0.95071 0.83657 0.07766 0.0
C1350 C 0.98943 0.83809 0.08232 0.0
C1351 C 0.99014 0.8077 0.09659 0.0
H1352 H 0.95028 0.8603 0.06672 0.0
H1353 H 0.94989 0.57629 0.21599 0.0
H1354 H 0.19421 0.0142 0.54926 0.0
H1355 H 0.18535 0.96538 0.51871 0.0
H1356 H 0.3195 0.04231 0.50186 0.0
H1357 H 0.32777 0.09205 0.53142 0.0
H1358 H 0.2735 0.02901 0.4663 0.0
H1359 H 0.27811 0.94117 0.52457 0.0
H1360 H 0.25901 0.90134 0.56042 0.0
H1361 H 0.12988 0.8227 0.53773 0.0
H1362 H 0.14804 0.86242 0.50183 0.0
H1363 H 0.26469 0.89142 0.37918 0.0
H1364 H 0.28252 0.93439 0.41325 0.0
H1365 H 0.15146 0.85945 0.43626 0.0
H1366 H 0.13439 0.81483 0.40273 0.0
H1367 H 0.20165 0.87148 0.46951 0.0
H1368 H 0.19753 0.97152 0.41398 0.0
H1369 H 0.2193 0.01533 0.3793 0.0
H1370 H 0.35156 0.06959 0.3973 0.0
H1371 H 0.33051 0.02758 0.43253 0.0
C1372 C 0.22182 0.02046 0.53912 0.0
C1373 C 0.26183 0.05692 0.54281 0.0
C1374 C 0.21686 0.99229 0.52185 0.0
C1375 C 0.25189 -1e-05 0.50813 0.0
C1376 C 0.29209 0.03559 0.51232 0.0
C1377 C 0.29694 0.06381 0.5294 0.0
C1378 C 0.24581 0.97373 0.48798 0.0
C1379 C 0.25839 -0.00544 0.46708 0.0
C1380 C 0.22554 0.92881 0.48892 0.0
C1381 C 0.21435 0.90511 0.51059 0.0
C1382 C 0.24553 0.91567 0.5273 0.0
C1383 C 0.23489 0.89304 0.54762 0.0
C1384 C 0.19323 0.85959 0.55138 0.0
C1385 C 0.16213 0.84865 0.53481 0.0
C1386 C 0.17259 0.87119 0.51446 0.0
C1387 C 0.23978 0.88442 0.39153 0.0
C1388 C 0.19829 0.84999 0.3886 0.0
C1389 C 0.24986 0.9091 0.4109 0.0
C1390 C 0.21817 0.9007 0.42718 0.0
C1391 C 0.17646 0.86654 0.42397 0.0
C1392 C 0.16666 0.84119 0.40486 0.0
C1393 C 0.22849 0.92675 0.44783 0.0
C1394 C 0.21686 0.9059 0.4688 0.0
C1395 C 0.24997 0.97175 0.44705 0.0
C1396 C 0.2625 -0.00388 0.42567 0.0
C1397 C 0.23123 0.99266 0.41045 0.0
C1398 C 0.24342 0.01728 0.39077 0.0
C1399 C 0.28675 0.04473 0.38595 0.0
C1400 C 0.31801 0.04822 0.401 0.0
C1401 C 0.30597 0.02433 0.42091 0.0
H1402 H 0.29608 0.06351 0.37063 0.0
H1403 H 0.18507 0.84209 0.56711 0.0
loop_
_geom_bond_atom_site_label_1
_geom_bond_atom_site_label_2
_geom_bond_distance
_geom_bond_site_symmetry_2
_ccdc_geom_bond_type
Eu0 N29 2.600 . S
Eu0 N35 2.562 1_556 S
Eu0 O44 2.462 . S
Eu0 O45 2.373 1_556 S
Eu0 O47 2.432 . S
Eu0 O48 2.291 1_556 S
Eu0 O52 2.335 . S
Eu0 O55 2.372 . S
Eu0 C64 2.787 . S
C1 N2 1.365 . S
C1 C4 1.405 . S
C1 C8 1.448 . S
N2 C1 1.365 . S
N2 C5 1.319 . S
N2 Eu11 2.600 . S
C3 C5 1.397 . S
C3 C6 1.367 . S
C3 H23 0.931 . S
C4 C1 1.405 . S
C4 C6 1.403 . S
C4 C10 1.439 . S
C5 N2 1.319 . S
C5 C3 1.397 . S
C5 H16 0.930 . S
C6 C3 1.367 . S
C6 C4 1.403 . S
C6 H27 0.929 . S
C7 C8 1.430 . S
C7 C9 1.391 . S
C7 C13 1.404 1_554 S
C8 C1 1.448 . S
C8 C7 1.430 . S
C8 N12 1.351 . S
C9 C7 1.391 . S
C9 C10 1.384 . S
C9 H24 0.918 1_554 S
C10 C4 1.439 . S
C10 C9 1.384 . S
C10 H25 0.931 . S
Eu11 N2 2.600 . S
Eu11 N12 2.562 . S
Eu11 O46 2.335 . S
Eu11 O49 2.372 . S
Eu11 O50 2.462 . S
Eu11 O51 2.373 1_554 S
Eu11 O53 2.432 . S
Eu11 O54 2.291 . S
Eu11 C75 2.787 . S
N12 C8 1.351 . S
N12 Eu11 2.562 . S
N12 C14 1.325 . S
C13 C7 1.404 1_556 S
C13 C15 1.364 1_556 S
C13 H21 0.930 . S
C14 N12 1.325 . S
C14 C15 1.421 . S
C14 H20 0.929 . S
C15 C13 1.364 1_554 S
C15 C14 1.421 . S
C15 H17 0.927 1_554 S
H16 C5 0.930 . S
H17 C15 0.927 1_556 S
H18 C33 0.930 . S
H19 C40 0.930 . S
H20 C14 0.929 . S
H21 C13 0.930 . S
H22 C36 0.929 . S
H23 C3 0.931 . S
H24 C9 0.918 1_556 S
H25 C10 0.931 . S
H26 C31 0.931 . S
H27 C6 0.929 . S
H28 C39 0.930 . S
N29 Eu0 2.600 . S
N29 C30 1.365 1_556 S
N29 C33 1.319 . S
C30 N29 1.365 1_554 S
C30 C32 1.405 . S
C30 C38 1.448 . S
C31 H26 0.931 . S
C31 C33 1.397 . S
C31 C34 1.367 1_556 S
C32 C30 1.405 . S
C32 C34 1.403 . S
C32 C65 1.439 . S
C33 H18 0.930 . S
C33 N29 1.319 . S
C33 C31 1.397 . S
C34 C31 1.367 1_554 S
C34 C32 1.403 . S
C34 H41 0.929 1_455 S
N35 Eu0 2.562 1_554 S
N35 C36 1.325 . S
N35 C38 1.351 . S
C36 H22 0.929 . S
C36 N35 1.325 . S
C36 C40 1.416 . S
C37 C38 1.430 . S
C37 C39 1.404 . S
C37 C66 1.387 . S
C38 C30 1.448 . S
C38 N35 1.351 . S
C38 C37 1.430 . S
C39 H28 0.930 . S
C39 C37 1.404 . S
C39 C40 1.366 . S
C40 H19 0.930 . S
C40 C36 1.416 . S
C40 C39 1.366 . S
H41 C34 0.929 1_655 S
H42 C65 0.931 . S
H43 C66 0.931 . S
O44 Eu0 2.462 . S
O44 C64 1.252 . S
O45 Eu0 2.373 1_554 S
O45 C56 1.249 . S
O46 Eu11 2.335 . S
O46 C56 1.264 . S
O47 Eu0 2.432 . S
O47 C64 1.268 . S
O48 Eu0 2.291 1_554 S
O48 C63 1.255 . S
O49 Eu11 2.372 . S
O49 C63 1.257 . S
O50 Eu11 2.462 . S
O50 C75 1.252 . S
O51 Eu11 2.373 1_556 S
O51 C67 1.249 . S
O52 Eu0 2.335 . S
O52 C67 1.264 . S
O53 Eu11 2.432 . S
O53 C75 1.268 . S
O54 Eu11 2.291 . S
O54 C74 1.255 . S
O55 Eu0 2.372 . S
O55 C74 1.257 1_556 S
C56 O45 1.249 . S
C56 O46 1.264 . S
C57 C60 1.382 . S
C57 C62 1.390 . S
C57 C64 1.506 . S
C58 C59 1.398 . S
C58 C62 1.392 . S
C59 C58 1.398 . S
C59 C61 1.372 . S
C59 H76 0.931 . S
C60 C57 1.382 . S
C60 C61 1.390 . S
C60 H77 0.931 . S
C61 C59 1.372 . S
C61 C60 1.390 . S
C61 H78 0.929 . S
C62 C57 1.390 . S
C62 C58 1.392 . S
C62 H79 0.930 . S
C63 O48 1.255 . S
C63 O49 1.257 . S
C64 Eu0 2.787 . S
C64 O44 1.252 . S
C64 O47 1.268 . S
C64 C57 1.506 . S
C65 C32 1.439 . S
C65 H42 0.931 . S
C65 C66 1.374 . S
C66 C37 1.387 . S
C66 H43 0.931 . S
C66 C65 1.374 . S
C67 O51 1.249 . S
C67 O52 1.264 . S
C68 C71 1.382 . S
C68 C72 1.390 . S
C68 C75 1.506 . S
C69 C70 1.398 . S
C69 C72 1.392 . S
C70 C69 1.398 . S
C70 C73 1.372 . S
C70 H80 0.931 . S
C71 C68 1.382 . S
C71 C73 1.390 . S
C71 H81 0.931 . S
C72 C68 1.390 . S
C72 C69 1.392 . S
C72 H82 0.930 . S
C73 C70 1.372 . S
C73 C71 1.390 . S
C73 H83 0.929 . S
C74 O54 1.255 . S
C74 O55 1.257 1_554 S
C75 Eu11 2.787 . S
C75 O50 1.252 . S
C75 O53 1.268 . S
C75 C68 1.506 . S
H76 C59 0.931 . S
H77 C60 0.931 . S
H78 C61 0.929 . S
H79 C62 0.930 . S
H80 C70 0.931 . S
H81 C71 0.931 . S
H82 C72 0.930 . S
H83 C73 0.929 . S
Eu84 N113 2.600 . S
Eu84 N119 2.562 . S
Eu84 O128 2.462 . S
Eu84 O129 2.373 . S
Eu84 O131 2.432 . S
Eu84 O132 2.291 . S
Eu84 O136 2.335 . S
Eu84 O139 2.372 . S
Eu84 C148 2.787 . S
C85 N86 1.365 . S
C85 C88 1.405 . S
C85 C92 1.448 . S
N86 C85 1.365 . S
N86 C89 1.319 . S
N86 Eu95 2.600 . S
C87 C89 1.397 . S
C87 C90 1.367 . S
C87 H107 0.931 . S
C88 C85 1.405 . S
C88 C90 1.403 . S
C88 C94 1.439 . S
C89 N86 1.319 . S
C89 C87 1.397 . S
C89 H100 0.930 . S
C90 C87 1.367 . S
C90 C88 1.403 . S
C90 H111 0.929 . S
C91 C92 1.430 . S
C91 C93 1.387 . S
C91 C97 1.404 . S
C92 C85 1.448 . S
C92 C91 1.430 . S
C92 N96 1.351 . S
C93 C91 1.387 . S
C93 C94 1.374 . S
C93 H108 0.931 . S
C94 C88 1.439 . S
C94 C93 1.374 . S
C94 H109 0.931 . S
Eu95 N86 2.600 . S
Eu95 N96 2.562 . S
Eu95 O130 2.335 . S
Eu95 O133 2.372 . S
Eu95 O134 2.462 . S
Eu95 O135 2.373 . S
Eu95 O137 2.432 . S
Eu95 O138 2.291 . S
Eu95 C159 2.787 . S
N96 C92 1.351 . S
N96 Eu95 2.562 . S
N96 C98 1.325 . S
C97 C91 1.404 . S
C97 C99 1.366 . S
C97 H105 0.930 . S
C98 N96 1.325 . S
C98 C99 1.416 . S
C98 H104 0.929 . S
C99 C97 1.366 . S
C99 C98 1.416 . S
C99 H101 0.930 . S
H100 C89 0.930 . S
H101 C99 0.930 . S
H102 C117 0.930 . S
H103 C124 0.930 . S
H104 C98 0.929 . S
H105 C97 0.930 . S
H106 C120 0.929 . S
H107 C87 0.931 . S
H108 C93 0.931 . S
H109 C94 0.931 . S
H110 C115 0.931 . S
H111 C90 0.929 . S
H112 C123 0.930 . S
N113 Eu84 2.600 . S
N113 C114 1.365 . S
N113 C117 1.319 . S
C114 N113 1.365 . S
C114 C116 1.405 . S
C114 C122 1.448 . S
C115 H110 0.931 . S
C115 C117 1.397 . S
C115 C118 1.367 . S
C116 C114 1.405 . S
C116 C118 1.403 . S
C116 C149 1.439 . S
C117 H102 0.930 . S
C117 N113 1.319 . S
C117 C115 1.397 . S
C118 C115 1.367 . S
C118 C116 1.403 . S
C118 H125 0.929 1_545 S
N119 Eu84 2.562 . S
N119 C120 1.325 . S
N119 C122 1.351 . S
C120 H106 0.929 . S
C120 N119 1.325 . S
C120 C124 1.416 . S
C121 C122 1.430 . S
C121 C123 1.404 . S
C121 C150 1.387 . S
C122 C114 1.448 . S
C122 N119 1.351 . S
C122 C121 1.430 . S
C123 H112 0.930 . S
C123 C121 1.404 . S
C123 C124 1.366 . S
C124 H103 0.930 . S
C124 C120 1.416 . S
C124 C123 1.366 . S
H125 C118 0.929 1_565 S
H126 C149 0.931 . S
H127 C150 0.931 . S
O128 Eu84 2.462 . S
O128 C148 1.252 . S
O129 Eu84 2.373 . S
O129 C140 1.249 . S
O130 Eu95 2.335 . S
O130 C140 1.264 . S
O131 Eu84 2.432 . S
O131 C148 1.268 . S
O132 Eu84 2.291 . S
O132 C147 1.255 . S
O133 Eu95 2.372 . S
O133 C147 1.257 . S
O134 Eu95 2.462 . S
O134 C159 1.252 . S
O135 Eu95 2.373 . S
O135 C151 1.249 . S
O136 Eu84 2.335 . S
O136 C151 1.264 . S
O137 Eu95 2.432 . S
O137 C159 1.268 . S
O138 Eu95 2.291 . S
O138 C158 1.255 . S
O139 Eu84 2.372 . S
O139 C158 1.257 . S
C140 O129 1.249 . S
C140 O130 1.264 . S
C141 C144 1.382 . S
C141 C146 1.390 . S
C141 C148 1.506 . S
C142 C143 1.398 . S
C142 C146 1.392 . S
C143 C142 1.398 . S
C143 C145 1.372 . S
C143 H160 0.931 . S
C144 C141 1.382 . S
C144 C145 1.390 . S
C144 H161 0.931 . S
C145 C143 1.372 . S
C145 C144 1.390 . S
C145 H162 0.929 . S
C146 C141 1.390 . S
C146 C142 1.392 . S
C146 H163 0.930 . S
C147 O132 1.255 . S
C147 O133 1.257 . S
C148 Eu84 2.787 . S
C148 O128 1.252 . S
C148 O131 1.268 . S
C148 C141 1.506 . S
C149 C116 1.439 . S
C149 H126 0.931 . S
C149 C150 1.374 . S
C150 C121 1.387 . S
C150 H127 0.931 . S
C150 C149 1.374 . S
C151 O135 1.249 . S
C151 O136 1.264 . S
C152 C155 1.382 . S
C152 C156 1.390 . S
C152 C159 1.506 . S
C153 C154 1.398 . S
C153 C156 1.392 . S
C154 C153 1.398 . S
C154 C157 1.372 . S
C154 H164 0.931 . S
C155 C152 1.382 . S
C155 C157 1.390 . S
C155 H165 0.931 . S
C156 C152 1.390 . S
C156 C153 1.392 . S
C156 H166 0.930 . S
C157 C154 1.372 . S
C157 C155 1.390 . S
C157 H167 0.929 . S
C158 O138 1.255 . S
C158 O139 1.257 . S
C159 Eu95 2.787 . S
C159 O134 1.252 . S
C159 O137 1.268 . S
C159 C152 1.506 . S
H160 C143 0.931 . S
H161 C144 0.931 . S
H162 C145 0.929 . S
H163 C146 0.930 . S
H164 C154 0.931 . S
H165 C155 0.931 . S
H166 C156 0.930 . S
H167 C157 0.929 . S
Eu168 N197 2.600 . S
Eu168 N203 2.562 . S
Eu168 O212 2.462 . S
Eu168 O213 2.373 . S
Eu168 O215 2.432 . S
Eu168 O216 2.291 . S
Eu168 O220 2.335 . S
Eu168 O223 2.372 . S
Eu168 C232 2.787 . S
C169 N170 1.365 . S
C169 C172 1.405 . S
C169 C176 1.448 . S
N170 C169 1.365 . S
N170 C173 1.319 . S
N170 Eu179 2.600 . S
C171 C173 1.397 . S
C171 C174 1.367 . S
C171 H191 0.931 . S
C172 C169 1.405 . S
C172 C174 1.403 . S
C172 C178 1.439 . S
C173 N170 1.319 . S
C173 C171 1.397 . S
C173 H184 0.930 . S
C174 C171 1.367 . S
C174 C172 1.403 . S
C174 H195 0.929 . S
C175 C176 1.430 . S
C175 C177 1.387 . S
C175 C181 1.404 . S
C176 C169 1.448 . S
C176 C175 1.430 . S
C176 N180 1.351 . S
C177 C175 1.387 . S
C177 C178 1.374 . S
C177 H192 0.931 . S
C178 C172 1.439 . S
C178 C177 1.374 . S
C178 H193 0.931 . S
Eu179 N170 2.600 . S
Eu179 N180 2.562 . S
Eu179 O214 2.335 . S
Eu179 O217 2.372 . S
Eu179 O218 2.462 . S
Eu179 O219 2.373 . S
Eu179 O221 2.432 . S
Eu179 O222 2.291 . S
Eu179 C243 2.787 . S
N180 C176 1.351 . S
N180 Eu179 2.562 . S
N180 C182 1.325 . S
C181 C175 1.404 . S
C181 C183 1.366 . S
C181 H189 0.930 . S
C182 N180 1.325 . S
C182 C183 1.416 . S
C182 H188 0.929 . S
C183 C181 1.366 . S
C183 C182 1.416 . S
C183 H185 0.930 . S
H184 C173 0.930 . S
H185 C183 0.930 . S
H186 C201 0.930 . S
H187 C208 0.930 . S
H188 C182 0.929 . S
H189 C181 0.930 . S
H190 C204 0.929 . S
H191 C171 0.931 . S
H192 C177 0.931 . S
H193 C178 0.931 . S
H194 C199 0.931 . S
H195 C174 0.929 . S
H196 C207 0.930 . S
N197 Eu168 2.600 . S
N197 C198 1.365 . S
N197 C201 1.319 . S
C198 N197 1.365 . S
C198 C200 1.405 . S
C198 C206 1.448 . S
C199 H194 0.931 . S
C199 C201 1.397 . S
C199 C202 1.367 . S
C200 C198 1.405 . S
C200 C202 1.403 . S
C200 C233 1.439 . S
C201 H186 0.930 . S
C201 N197 1.319 . S
C201 C199 1.397 . S
C202 C199 1.367 . S
C202 C200 1.403 . S
C202 H209 0.929 . S
N203 Eu168 2.562 . S
N203 C204 1.325 . S
N203 C206 1.351 . S
C204 H190 0.929 . S
C204 N203 1.325 . S
C204 C208 1.416 . S
C205 C206 1.430 . S
C205 C207 1.404 . S
C205 C234 1.387 . S
C206 C198 1.448 . S
C206 N203 1.351 . S
C206 C205 1.430 . S
C207 H196 0.930 . S
C207 C205 1.404 . S
C207 C208 1.366 . S
C208 H187 0.930 . S
C208 C204 1.416 . S
C208 C207 1.366 . S
H209 C202 0.929 . S
H210 C233 0.931 . S
H211 C234 0.931 . S
O212 Eu168 2.462 . S
O212 C232 1.252 . S
O213 Eu168 2.373 . S
O213 C224 1.249 . S
O214 Eu179 2.335 . S
O214 C224 1.264 . S
O215 Eu168 2.432 . S
O215 C232 1.268 . S
O216 Eu168 2.291 . S
O216 C231 1.255 . S
O217 Eu179 2.372 . S
O217 C231 1.257 . S
O218 Eu179 2.462 . S
O218 C243 1.252 . S
O219 Eu179 2.373 . S
O219 C235 1.249 . S
O220 Eu168 2.335 . S
O220 C235 1.264 . S
O221 Eu179 2.432 . S
O221 C243 1.268 . S
O222 Eu179 2.291 . S
O222 C242 1.255 . S
O223 Eu168 2.372 . S
O223 C242 1.257 . S
C224 O213 1.249 . S
C224 O214 1.264 . S
C225 C228 1.382 . S
C225 C230 1.390 . S
C225 C232 1.506 . S
C226 C227 1.398 . S
C226 C230 1.392 . S
C227 C226 1.398 . S
C227 C229 1.372 . S
C227 H244 0.931 . S
C228 C225 1.382 . S
C228 C229 1.390 . S
C228 H245 0.931 . S
C229 C227 1.372 . S
C229 C228 1.390 . S
C229 H246 0.929 . S
C230 C225 1.390 . S
C230 C226 1.392 . S
C230 H247 0.930 . S
C231 O216 1.255 . S
C231 O217 1.257 . S
C232 Eu168 2.787 . S
C232 O212 1.252 . S
C232 O215 1.268 . S
C232 C225 1.506 . S
C233 C200 1.439 . S
C233 H210 0.931 . S
C233 C234 1.374 . S
C234 C205 1.387 . S
C234 H211 0.931 . S
C234 C233 1.374 . S
C235 O219 1.249 . S
C235 O220 1.264 . S
C236 C239 1.382 . S
C236 C240 1.390 . S
C236 C243 1.506 . S
C237 C238 1.398 . S
C237 C240 1.392 . S
C238 C237 1.398 . S
C238 C241 1.372 . S
C238 H248 0.931 . S
C239 C236 1.382 . S
C239 C241 1.390 . S
C239 H249 0.931 . S
C240 C236 1.390 . S
C240 C237 1.392 . S
C240 H250 0.930 . S
C241 C238 1.372 . S
C241 C239 1.390 . S
C241 H251 0.929 . S
C242 O222 1.255 . S
C242 O223 1.257 . S
C243 Eu179 2.787 . S
C243 O218 1.252 . S
C243 O221 1.268 . S
C243 C236 1.506 . S
H244 C227 0.931 . S
H245 C228 0.931 . S
H246 C229 0.929 . S
H247 C230 0.930 . S
H248 C238 0.931 . S
H249 C239 0.931 . S
H250 C240 0.930 . S
H251 C241 0.929 . S
Eu252 N281 2.600 . S
Eu252 N287 2.562 1_556 S
Eu252 O296 2.462 . S
Eu252 O297 2.373 1_556 S
Eu252 O299 2.432 . S
Eu252 O300 2.291 1_556 S
Eu252 O304 2.335 . S
Eu252 O307 2.372 . S
Eu252 C316 2.787 . S
C253 N254 1.365 . S
C253 C256 1.405 . S
C253 C260 1.448 . S
N254 C253 1.365 . S
N254 C257 1.319 . S
N254 Eu263 2.600 . S
C255 C257 1.397 . S
C255 C258 1.367 . S
C255 H275 0.931 . S
C256 C253 1.405 . S
C256 C258 1.403 . S
C256 C262 1.439 . S
C257 N254 1.319 . S
C257 C255 1.397 . S
C257 H268 0.930 . S
C258 C255 1.367 . S
C258 C256 1.403 . S
C258 H279 0.929 . S
C259 C260 1.430 . S
C259 C261 1.391 . S
C259 C265 1.404 1_554 S
C260 C253 1.448 . S
C260 C259 1.430 . S
C260 N264 1.351 . S
C261 C259 1.391 . S
C261 C262 1.384 . S
C261 H276 0.918 1_554 S
C262 C256 1.439 . S
C262 C261 1.384 . S
C262 H277 0.931 . S
Eu263 N254 2.600 . S
Eu263 N264 2.562 . S
Eu263 O298 2.335 . S
Eu263 O301 2.372 . S
Eu263 O302 2.462 . S
Eu263 O303 2.373 1_554 S
Eu263 O305 2.432 . S
Eu263 O306 2.291 . S
Eu263 C327 2.787 . S
N264 C260 1.351 . S
N264 Eu263 2.562 . S
N264 C266 1.325 . S
C265 C259 1.404 1_556 S
C265 C267 1.364 1_556 S
C265 H273 0.930 . S
C266 N264 1.325 . S
C266 C267 1.421 . S
C266 H272 0.929 . S
C267 C265 1.364 1_554 S
C267 C266 1.421 . S
C267 H269 0.927 1_554 S
H268 C257 0.930 . S
H269 C267 0.927 1_556 S
H270 C285 0.930 . S
H271 C292 0.930 . S
H272 C266 0.929 . S
H273 C265 0.930 . S
H274 C288 0.929 . S
H275 C255 0.931 . S
H276 C261 0.918 1_556 S
H277 C262 0.931 . S
H278 C283 0.931 . S
H279 C258 0.929 . S
H280 C291 0.930 . S
N281 Eu252 2.600 . S
N281 C282 1.365 1_556 S
N281 C285 1.319 . S
C282 N281 1.365 1_554 S
C282 C284 1.405 . S
C282 C290 1.448 . S
C283 H278 0.931 . S
C283 C285 1.397 . S
C283 C286 1.367 1_556 S
C284 C282 1.405 . S
C284 C286 1.403 . S
C284 C317 1.439 . S
C285 H270 0.930 . S
C285 N281 1.319 . S
C285 C283 1.397 . S
C286 C283 1.367 1_554 S
C286 C284 1.403 . S
C286 H293 0.929 1_655 S
N287 Eu252 2.562 1_554 S
N287 C288 1.325 . S
N287 C290 1.351 . S
C288 H274 0.929 . S
C288 N287 1.325 . S
C288 C292 1.416 . S
C289 C290 1.430 . S
C289 C291 1.404 . S
C289 C318 1.387 . S
C290 C282 1.448 . S
C290 N287 1.351 . S
C290 C289 1.430 . S
C291 H280 0.930 . S
C291 C289 1.404 . S
C291 C292 1.366 . S
C292 H271 0.930 . S
C292 C288 1.416 . S
C292 C291 1.366 . S
H293 C286 0.929 1_455 S
H294 C317 0.931 . S
H295 C318 0.931 . S
O296 Eu252 2.462 . S
O296 C316 1.252 . S
O297 Eu252 2.373 1_554 S
O297 C308 1.249 . S
O298 Eu263 2.335 . S
O298 C308 1.264 . S
O299 Eu252 2.432 . S
O299 C316 1.268 . S
O300 Eu252 2.291 1_554 S
O300 C315 1.255 . S
O301 Eu263 2.372 . S
O301 C315 1.257 . S
O302 Eu263 2.462 . S
O302 C327 1.252 . S
O303 Eu263 2.373 1_556 S
O303 C319 1.249 . S
O304 Eu252 2.335 . S
O304 C319 1.264 . S
O305 Eu263 2.432 . S
O305 C327 1.268 . S
O306 Eu263 2.291 . S
O306 C326 1.255 . S
O307 Eu252 2.372 . S
O307 C326 1.257 1_556 S
C308 O297 1.249 . S
C308 O298 1.264 . S
C309 C312 1.382 . S
C309 C314 1.390 . S
C309 C316 1.506 . S
C310 C311 1.398 . S
C310 C314 1.392 . S
C311 C310 1.398 . S
C311 C313 1.372 . S
C311 H328 0.931 . S
C312 C309 1.382 . S
C312 C313 1.390 . S
C312 H329 0.931 . S
C313 C311 1.372 . S
C313 C312 1.390 . S
C313 H330 0.929 . S
C314 C309 1.390 . S
C314 C310 1.392 . S
C314 H331 0.930 . S
C315 O300 1.255 . S
C315 O301 1.257 . S
C316 Eu252 2.787 . S
C316 O296 1.252 . S
C316 O299 1.268 . S
C316 C309 1.506 . S
C317 C284 1.439 . S
C317 H294 0.931 . S
C317 C318 1.374 . S
C318 C289 1.387 . S
C318 H295 0.931 . S
C318 C317 1.374 . S
C319 O303 1.249 . S
C319 O304 1.264 . S
C320 C323 1.382 . S
C320 C324 1.390 . S
C320 C327 1.506 . S
C321 C322 1.398 . S
C321 C324 1.392 . S
C322 C321 1.398 . S
C322 C325 1.372 . S
C322 H332 0.931 . S
C323 C320 1.382 . S
C323 C325 1.390 . S
C323 H333 0.931 . S
C324 C320 1.390 . S
C324 C321 1.392 . S
C324 H334 0.930 . S
C325 C322 1.372 . S
C325 C323 1.390 . S
C325 H335 0.929 . S
C326 O306 1.255 . S
C326 O307 1.257 1_554 S
C327 Eu263 2.787 . S
C327 O302 1.252 . S
C327 O305 1.268 . S
C327 C320 1.506 . S
H328 C311 0.931 . S
H329 C312 0.931 . S
H330 C313 0.929 . S
H331 C314 0.930 . S
H332 C322 0.931 . S
H333 C323 0.931 . S
H334 C324 0.930 . S
H335 C325 0.929 . S
Eu336 N365 2.600 . S
Eu336 N371 2.562 . S
Eu336 O380 2.462 . S
Eu336 O381 2.373 . S
Eu336 O383 2.432 . S
Eu336 O384 2.291 . S
Eu336 O388 2.335 . S
Eu336 O391 2.372 . S
Eu336 C400 2.787 . S
C337 N338 1.365 . S
C337 C340 1.405 . S
C337 C344 1.448 . S
N338 C337 1.365 . S
N338 C341 1.319 . S
N338 Eu347 2.600 . S
C339 C341 1.397 . S
C339 C342 1.367 . S
C339 H359 0.931 . S
C340 C337 1.405 . S
C340 C342 1.403 . S
C340 C346 1.439 . S
C341 N338 1.319 . S
C341 C339 1.397 . S
C341 H352 0.930 . S
C342 C339 1.367 . S
C342 C340 1.403 . S
C342 H363 0.929 . S
C343 C344 1.430 . S
C343 C345 1.387 . S
C343 C349 1.404 . S
C344 C337 1.448 . S
C344 C343 1.430 . S
C344 N348 1.351 . S
C345 C343 1.387 . S
C345 C346 1.374 . S
C345 H360 0.931 . S
C346 C340 1.439 . S
C346 C345 1.374 . S
C346 H361 0.931 . S
Eu347 N338 2.600 . S
Eu347 N348 2.562 . S
Eu347 O382 2.335 . S
Eu347 O385 2.372 . S
Eu347 O386 2.462 . S
Eu347 O387 2.373 . S
Eu347 O389 2.432 . S
Eu347 O390 2.291 . S
Eu347 C411 2.787 . S
N348 C344 1.351 . S
N348 Eu347 2.562 . S
N348 C350 1.325 . S
C349 C343 1.404 . S
C349 C351 1.366 . S
C349 H357 0.930 . S
C350 N348 1.325 . S
C350 C351 1.416 . S
C350 H356 0.929 . S
C351 C349 1.366 . S
C351 C350 1.416 . S
C351 H353 0.930 . S
H352 C341 0.930 . S
H353 C351 0.930 . S
H354 C369 0.930 . S
H355 C376 0.930 . S
H356 C350 0.929 . S
H357 C349 0.930 . S
H358 C372 0.929 . S
H359 C339 0.931 . S
H360 C345 0.931 . S
H361 C346 0.931 . S
H362 C367 0.931 . S
H363 C342 0.929 . S
H364 C375 0.930 . S
N365 Eu336 2.600 . S
N365 C366 1.365 . S
N365 C369 1.319 . S
C366 N365 1.365 . S
C366 C368 1.405 . S
C366 C374 1.448 . S
C367 H362 0.931 . S
C367 C369 1.397 . S
C367 C370 1.367 . S
C368 C366 1.405 . S
C368 C370 1.403 . S
C368 C401 1.439 . S
C369 H354 0.930 . S
C369 N365 1.319 . S
C369 C367 1.397 . S
C370 C367 1.367 . S
C370 C368 1.403 . S
C370 H377 0.929 1_565 S
N371 Eu336 2.562 . S
N371 C372 1.325 . S
N371 C374 1.351 . S
C372 H358 0.929 . S
C372 N371 1.325 . S
C372 C376 1.416 . S
C373 C374 1.430 . S
C373 C375 1.404 . S
C373 C402 1.387 . S
C374 C366 1.448 . S
C374 N371 1.351 . S
C374 C373 1.430 . S
C375 H364 0.930 . S
C375 C373 1.404 . S
C375 C376 1.366 . S
C376 H355 0.930 . S
C376 C372 1.416 . S
C376 C375 1.366 . S
H377 C370 0.929 1_545 S
H378 C401 0.931 . S
H379 C402 0.931 . S
O380 Eu336 2.462 . S
O380 C400 1.252 . S
O381 Eu336 2.373 . S
O381 C392 1.249 . S
O382 Eu347 2.335 . S
O382 C392 1.264 . S
O383 Eu336 2.432 . S
O383 C400 1.268 . S
O384 Eu336 2.291 . S
O384 C399 1.255 . S
O385 Eu347 2.372 . S
O385 C399 1.257 . S
O386 Eu347 2.462 . S
O386 C411 1.252 . S
O387 Eu347 2.373 . S
O387 C403 1.249 . S
O388 Eu336 2.335 . S
O388 C403 1.264 . S
O389 Eu347 2.432 . S
O389 C411 1.268 . S
O390 Eu347 2.291 . S
O390 C410 1.255 . S
O391 Eu336 2.372 . S
O391 C410 1.257 . S
C392 O381 1.249 . S
C392 O382 1.264 . S
C393 C396 1.382 . S
C393 C398 1.390 . S
C393 C400 1.506 . S
C394 C395 1.398 . S
C394 C398 1.392 . S
C395 C394 1.398 . S
C395 C397 1.372 . S
C395 H412 0.931 . S
C396 C393 1.382 . S
C396 C397 1.390 . S
C396 H413 0.931 . S
C397 C395 1.372 . S
C397 C396 1.390 . S
C397 H414 0.929 . S
C398 C393 1.390 . S
C398 C394 1.392 . S
C398 H415 0.930 . S
C399 O384 1.255 . S
C399 O385 1.257 . S
C400 Eu336 2.787 . S
C400 O380 1.252 . S
C400 O383 1.268 . S
C400 C393 1.506 . S
C401 C368 1.439 . S
C401 H378 0.931 . S
C401 C402 1.374 . S
C402 C373 1.387 . S
C402 H379 0.931 . S
C402 C401 1.374 . S
C403 O387 1.249 . S
C403 O388 1.264 . S
C404 C407 1.382 . S
C404 C408 1.390 . S
C404 C411 1.506 . S
C405 C406 1.398 . S
C405 C408 1.392 . S
C406 C405 1.398 . S
C406 C409 1.372 . S
C406 H416 0.931 . S
C407 C404 1.382 . S
C407 C409 1.390 . S
C407 H417 0.931 . S
C408 C404 1.390 . S
C408 C405 1.392 . S
C408 H418 0.930 . S
C409 C406 1.372 . S
C409 C407 1.390 . S
C409 H419 0.929 . S
C410 O390 1.255 . S
C410 O391 1.257 . S
C411 Eu347 2.787 . S
C411 O386 1.252 . S
C411 O389 1.268 . S
C411 C404 1.506 . S
H412 C395 0.931 . S
H413 C396 0.931 . S
H414 C397 0.929 . S
H415 C398 0.930 . S
H416 C406 0.931 . S
H417 C407 0.931 . S
H418 C408 0.930 . S
H419 C409 0.929 . S
Eu420 N449 2.600 . S
Eu420 N455 2.562 . S
Eu420 O464 2.462 . S
Eu420 O465 2.373 . S
Eu420 O467 2.432 . S
Eu420 O468 2.291 . S
Eu420 O472 2.335 . S
Eu420 O475 2.372 . S
Eu420 C484 2.787 . S
C421 N422 1.365 . S
C421 C424 1.405 . S
C421 C428 1.448 . S
N422 C421 1.365 . S
N422 C425 1.319 . S
N422 Eu431 2.600 . S
C423 C425 1.397 . S
C423 C426 1.367 . S
C423 H443 0.931 . S
C424 C421 1.405 . S
C424 C426 1.403 . S
C424 C430 1.439 . S
C425 N422 1.319 . S
C425 C423 1.397 . S
C425 H436 0.930 . S
C426 C423 1.367 . S
C426 C424 1.403 . S
C426 H447 0.929 . S
C427 C428 1.430 . S
C427 C429 1.387 . S
C427 C433 1.404 . S
C428 C421 1.448 . S
C428 C427 1.430 . S
C428 N432 1.351 . S
C429 C427 1.387 . S
C429 C430 1.374 . S
C429 H444 0.931 . S
C430 C424 1.439 . S
C430 C429 1.374 . S
C430 H445 0.931 . S
Eu431 N422 2.600 . S
Eu431 N432 2.562 . S
Eu431 O466 2.335 . S
Eu431 O469 2.372 . S
Eu431 O470 2.462 . S
Eu431 O471 2.373 . S
Eu431 O473 2.432 . S
Eu431 O474 2.291 . S
Eu431 C495 2.787 . S
N432 C428 1.351 . S
N432 Eu431 2.562 . S
N432 C434 1.325 . S
C433 C427 1.404 . S
C433 C435 1.366 . S
C433 H441 0.930 . S
C434 N432 1.325 . S
C434 C435 1.416 . S
C434 H440 0.929 . S
C435 C433 1.366 . S
C435 C434 1.416 . S
C435 H437 0.930 . S
H436 C425 0.930 . S
H437 C435 0.930 . S
H438 C453 0.930 . S
H439 C460 0.930 . S
H440 C434 0.929 . S
H441 C433 0.930 . S
H442 C456 0.929 . S
H443 C423 0.931 . S
H444 C429 0.931 . S
H445 C430 0.931 . S
H446 C451 0.931 . S
H447 C426 0.929 . S
H448 C459 0.930 . S
N449 Eu420 2.600 . S
N449 C450 1.365 . S
N449 C453 1.319 . S
C450 N449 1.365 . S
C450 C452 1.405 . S
C450 C458 1.448 . S
C451 H446 0.931 . S
C451 C453 1.397 . S
C451 C454 1.367 . S
C452 C450 1.405 . S
C452 C454 1.403 . S
C452 C485 1.439 . S
C453 H438 0.930 . S
C453 N449 1.319 . S
C453 C451 1.397 . S
C454 C451 1.367 . S
C454 C452 1.403 . S
C454 H461 0.929 . S
N455 Eu420 2.562 . S
N455 C456 1.325 . S
N455 C458 1.351 . S
C456 H442 0.929 . S
C456 N455 1.325 . S
C456 C460 1.416 . S
C457 C458 1.430 . S
C457 C459 1.404 . S
C457 C486 1.387 . S
C458 C450 1.448 . S
C458 N455 1.351 . S
C458 C457 1.430 . S
C459 H448 0.930 . S
C459 C457 1.404 . S
C459 C460 1.366 . S
C460 H439 0.930 . S
C460 C456 1.416 . S
C460 C459 1.366 . S
H461 C454 0.929 . S
H462 C485 0.931 . S
H463 C486 0.931 . S
O464 Eu420 2.462 . S
O464 C484 1.252 . S
O465 Eu420 2.373 . S
O465 C476 1.249 . S
O466 Eu431 2.335 . S
O466 C476 1.264 . S
O467 Eu420 2.432 . S
O467 C484 1.268 . S
O468 Eu420 2.291 . S
O468 C483 1.255 . S
O469 Eu431 2.372 . S
O469 C483 1.257 . S
O470 Eu431 2.462 . S
O470 C495 1.252 . S
O471 Eu431 2.373 . S
O471 C487 1.249 . S
O472 Eu420 2.335 . S
O472 C487 1.264 . S
O473 Eu431 2.432 . S
O473 C495 1.268 . S
O474 Eu431 2.291 . S
O474 C494 1.255 . S
O475 Eu420 2.372 . S
O475 C494 1.257 . S
C476 O465 1.249 . S
C476 O466 1.264 . S
C477 C480 1.382 . S
C477 C482 1.390 . S
C477 C484 1.506 . S
C478 C479 1.398 . S
C478 C482 1.392 . S
C479 C478 1.398 . S
C479 C481 1.372 . S
C479 H496 0.931 . S
C480 C477 1.382 . S
C480 C481 1.390 . S
C480 H497 0.931 . S
C481 C479 1.372 . S
C481 C480 1.390 . S
C481 H498 0.929 . S
C482 C477 1.390 . S
C482 C478 1.392 . S
C482 H499 0.930 . S
C483 O468 1.255 . S
C483 O469 1.257 . S
C484 Eu420 2.787 . S
C484 O464 1.252 . S
C484 O467 1.268 . S
C484 C477 1.506 . S
C485 C452 1.439 . S
C485 H462 0.931 . S
C485 C486 1.374 . S
C486 C457 1.387 . S
C486 H463 0.931 . S
C486 C485 1.374 . S
C487 O471 1.249 . S
C487 O472 1.264 . S
C488 C491 1.382 . S
C488 C492 1.390 . S
C488 C495 1.506 . S
C489 C490 1.398 . S
C489 C492 1.392 . S
C490 C489 1.398 . S
C490 C493 1.372 . S
C490 H500 0.931 . S
C491 C488 1.382 . S
C491 C493 1.390 . S
C491 H501 0.931 . S
C492 C488 1.390 . S
C492 C489 1.392 . S
C492 H502 0.930 . S
C493 C490 1.372 . S
C493 C491 1.390 . S
C493 H503 0.929 . S
C494 O474 1.255 . S
C494 O475 1.257 . S
C495 Eu431 2.787 . S
C495 O470 1.252 . S
C495 O473 1.268 . S
C495 C488 1.506 . S
H496 C479 0.931 . S
H497 C480 0.931 . S
H498 C481 0.929 . S
H499 C482 0.930 . S
H500 C490 0.931 . S
H501 C491 0.931 . S
H502 C492 0.930 . S
H503 C493 0.929 . S
H504 C522 0.951 . S
H505 C524 0.951 . S
H506 C526 0.950 . S
H507 C527 0.950 . S
H508 C529 0.950 . S
H509 C532 0.950 . S
H510 C533 0.950 . S
H511 C535 0.950 . S
H512 C536 0.950 . S
H513 C537 0.951 . S
H514 C539 0.951 . S
H515 C541 0.950 . S
H516 C542 0.950 . S
H517 C544 0.950 . S
H518 C547 0.950 . S
H519 C548 0.950 . S
H520 C550 0.950 . S
H521 C551 0.950 . S
C522 H504 0.951 . S
C522 C523 1.366 . S
C522 C524 1.388 . S
C523 C522 1.366 . S
C523 C527 1.385 . S
C524 H505 0.951 . S
C524 C522 1.388 . S
C524 C525 1.366 . S
C525 C524 1.366 . S
C525 C526 1.414 . S
C525 C528 1.499 . S
C526 H506 0.950 . S
C526 C525 1.414 . S
C526 C527 1.374 . S
C527 H507 0.950 . S
C527 C523 1.385 . S
C527 C526 1.374 . S
C528 C525 1.499 . S
C528 C529 1.373 . S
C528 C530 1.389 . S
C529 H508 0.950 . S
C529 C528 1.373 . S
C529 C545 1.377 . S
C530 C528 1.389 . S
C530 C531 1.524 . S
C530 C544 1.377 . S
C531 C530 1.524 . S
C531 C532 1.397 . S
C531 C536 1.363 . S
C532 H509 0.950 . S
C532 C531 1.397 . S
C532 C533 1.334 . S
C533 H510 0.950 . S
C533 C532 1.334 . S
C533 C534 1.287 . S
C534 C533 1.287 . S
C534 C535 1.524 . S
C534 H553 0.913 . S
C535 H511 0.950 . S
C535 C534 1.524 . S
C535 C536 1.415 . S
C536 H512 0.950 . S
C536 C531 1.363 . S
C536 C535 1.415 . S
C537 H513 0.951 . S
C537 C538 1.366 . S
C537 C539 1.388 . S
C538 C537 1.366 . S
C538 C542 1.385 . S
C539 H514 0.951 . S
C539 C537 1.388 . S
C539 C540 1.366 . S
C540 C539 1.366 . S
C540 C541 1.414 . S
C540 C543 1.499 . S
C541 H515 0.950 . S
C541 C540 1.414 . S
C541 C542 1.374 . S
C542 H516 0.950 . S
C542 C538 1.385 . S
C542 C541 1.374 . S
C543 C540 1.499 . S
C543 C544 1.373 . S
C543 C545 1.389 . S
C544 H517 0.950 . S
C544 C530 1.377 . S
C544 C543 1.373 . S
C545 C529 1.377 . S
C545 C543 1.389 . S
C545 C546 1.524 . S
C546 C545 1.524 . S
C546 C547 1.397 . S
C546 C551 1.363 . S
C547 H518 0.950 . S
C547 C546 1.397 . S
C547 C548 1.334 . S
C548 H519 0.950 . S
C548 C547 1.334 . S
C548 C549 1.287 . S
C549 C548 1.287 . S
C549 C550 1.524 . S
C549 H552 0.999 . S
C550 H520 0.950 . S
C550 C549 1.524 . S
C550 C551 1.415 . S
C551 H521 0.950 . S
C551 C546 1.363 . S
C551 C550 1.415 . S
H552 C549 0.999 . S
H553 C534 0.913 . S
H554 C572 0.951 . S
H555 C574 0.951 . S
H556 C576 0.950 . S
H557 C577 0.950 . S
H558 C579 0.950 . S
H559 C582 0.950 . S
H560 C583 0.950 . S
H561 C585 0.950 . S
H562 C586 0.950 . S
H563 C587 0.951 . S
H564 C589 0.951 . S
H565 C591 0.950 . S
H566 C592 0.950 . S
H567 C594 0.950 . S
H568 C597 0.950 . S
H569 C598 0.950 . S
H570 C600 0.950 . S
H571 C601 0.950 . S
C572 H554 0.951 . S
C572 C573 1.366 . S
C572 C574 1.388 . S
C573 C572 1.366 . S
C573 C577 1.385 . S
C574 H555 0.951 . S
C574 C572 1.388 . S
C574 C575 1.366 . S
C575 C574 1.366 . S
C575 C576 1.414 . S
C575 C578 1.499 . S
C576 H556 0.950 . S
C576 C575 1.414 . S
C576 C577 1.374 . S
C577 H557 0.950 . S
C577 C573 1.385 . S
C577 C576 1.374 . S
C578 C575 1.499 . S
C578 C579 1.373 . S
C578 C580 1.389 . S
C579 H558 0.950 . S
C579 C578 1.373 . S
C579 C595 1.377 . S
C580 C578 1.389 . S
C580 C581 1.524 . S
C580 C594 1.377 . S
C581 C580 1.524 . S
C581 C582 1.397 . S
C581 C586 1.363 . S
C582 H559 0.950 . S
C582 C581 1.397 . S
C582 C583 1.334 . S
C583 H560 0.950 . S
C583 C582 1.334 . S
C583 C584 1.287 . S
C584 C583 1.287 . S
C584 C585 1.524 . S
C584 H603 0.913 . S
C585 H561 0.950 . S
C585 C584 1.524 . S
C585 C586 1.415 . S
C586 H562 0.950 . S
C586 C581 1.363 . S
C586 C585 1.415 . S
C587 H563 0.951 . S
C587 C588 1.366 . S
C587 C589 1.388 . S
C588 C587 1.366 . S
C588 C592 1.385 . S
C589 H564 0.951 . S
C589 C587 1.388 . S
C589 C590 1.366 . S
C590 C589 1.366 . S
C590 C591 1.414 . S
C590 C593 1.499 . S
C591 H565 0.950 . S
C591 C590 1.414 . S
C591 C592 1.374 . S
C592 H566 0.950 . S
C592 C588 1.385 . S
C592 C591 1.374 . S
C593 C590 1.499 . S
C593 C594 1.373 . S
C593 C595 1.389 . S
C594 H567 0.950 . S
C594 C580 1.377 . S
C594 C593 1.373 . S
C595 C579 1.377 . S
C595 C593 1.389 . S
C595 C596 1.524 . S
C596 C595 1.524 . S
C596 C597 1.397 . S
C596 C601 1.363 . S
C597 H568 0.950 . S
C597 C596 1.397 . S
C597 C598 1.334 . S
C598 H569 0.950 . S
C598 C597 1.334 . S
C598 C599 1.287 . S
C599 C598 1.287 . S
C599 C600 1.524 . S
C599 H602 0.999 . S
C600 H570 0.950 . S
C600 C599 1.524 . S
C600 C601 1.415 . S
C601 H571 0.950 . S
C601 C596 1.363 . S
C601 C600 1.415 . S
H602 C599 0.999 . S
H603 C584 0.913 . S
H604 C622 0.951 . S
H605 C624 0.951 . S
H606 C626 0.950 . S
H607 C627 0.950 . S
H608 C629 0.950 . S
H609 C632 0.950 . S
H610 C633 0.950 . S
H611 C635 0.950 . S
H612 C636 0.950 . S
H613 C637 0.951 . S
H614 C639 0.951 . S
H615 C641 0.950 . S
H616 C642 0.950 . S
H617 C644 0.950 . S
H618 C647 0.950 . S
H619 C648 0.950 . S
H620 C650 0.950 . S
H621 C651 0.950 . S
C622 H604 0.951 . S
C622 C623 1.366 . S
C622 C624 1.388 . S
C623 C622 1.366 . S
C623 C627 1.385 . S
C624 H605 0.951 . S
C624 C622 1.388 . S
C624 C625 1.366 . S
C625 C624 1.366 . S
C625 C626 1.414 . S
C625 C628 1.499 . S
C626 H606 0.950 . S
C626 C625 1.414 . S
C626 C627 1.374 . S
C627 H607 0.950 . S
C627 C623 1.385 . S
C627 C626 1.374 . S
C628 C625 1.499 . S
C628 C629 1.373 . S
C628 C630 1.389 . S
C629 H608 0.950 . S
C629 C628 1.373 . S
C629 C645 1.377 . S
C630 C628 1.389 . S
C630 C631 1.524 . S
C630 C644 1.377 . S
C631 C630 1.524 . S
C631 C632 1.397 . S
C631 C636 1.363 . S
C632 H609 0.950 . S
C632 C631 1.397 . S
C632 C633 1.334 . S
C633 H610 0.950 . S
C633 C632 1.334 . S
C633 C634 1.287 . S
C634 C633 1.287 . S
C634 C635 1.524 . S
C634 H653 0.913 . S
C635 H611 0.950 . S
C635 C634 1.524 . S
C635 C636 1.415 . S
C636 H612 0.950 . S
C636 C631 1.363 . S
C636 C635 1.415 . S
C637 H613 0.951 . S
C637 C638 1.366 . S
C637 C639 1.388 . S
C638 C637 1.366 . S
C638 C642 1.385 . S
C639 H614 0.951 . S
C639 C637 1.388 . S
C639 C640 1.366 . S
C640 C639 1.366 . S
C640 C641 1.414 . S
C640 C643 1.499 . S
C641 H615 0.950 . S
C641 C640 1.414 . S
C641 C642 1.374 . S
C642 H616 0.950 . S
C642 C638 1.385 . S
C642 C641 1.374 . S
C643 C640 1.499 . S
C643 C644 1.373 . S
C643 C645 1.389 . S
C644 H617 0.950 . S
C644 C630 1.377 . S
C644 C643 1.373 . S
C645 C629 1.377 . S
C645 C643 1.389 . S
C645 C646 1.524 . S
C646 C645 1.524 . S
C646 C647 1.397 . S
C646 C651 1.363 . S
C647 H618 0.950 . S
C647 C646 1.397 . S
C647 C648 1.334 . S
C648 H619 0.950 . S
C648 C647 1.334 . S
C648 C649 1.287 . S
C649 C648 1.287 . S
C649 C650 1.524 . S
C649 H652 0.999 . S
C650 H620 0.950 . S
C650 C649 1.524 . S
C650 C651 1.415 . S
C651 H621 0.950 . S
C651 C646 1.363 . S
C651 C650 1.415 . S
H652 C649 0.999 . S
H653 C634 0.913 . S
H654 C672 0.951 . S
H655 C674 0.951 . S
H656 C676 0.950 . S
H657 C677 0.950 . S
H658 C679 0.950 . S
H659 C682 0.950 . S
H660 C683 0.950 . S
H661 C685 0.950 . S
H662 C686 0.950 . S
H663 C687 0.951 . S
H664 C689 0.951 . S
H665 C691 0.950 . S
H666 C692 0.950 . S
H667 C694 0.950 . S
H668 C697 0.950 . S
H669 C698 0.950 . S
H670 C700 0.950 . S
H671 C701 0.950 . S
C672 H654 0.951 . S
C672 C673 1.366 . S
C672 C674 1.388 . S
C673 C672 1.366 . S
C673 C677 1.385 . S
C674 H655 0.951 . S
C674 C672 1.388 . S
C674 C675 1.366 . S
C675 C674 1.366 . S
C675 C676 1.414 . S
C675 C678 1.499 . S
C676 H656 0.950 . S
C676 C675 1.414 . S
C676 C677 1.374 . S
C677 H657 0.950 . S
C677 C673 1.385 . S
C677 C676 1.374 . S
C678 C675 1.499 . S
C678 C679 1.373 . S
C678 C680 1.389 . S
C679 H658 0.950 . S
C679 C678 1.373 . S
C679 C695 1.377 . S
C680 C678 1.389 . S
C680 C681 1.524 . S
C680 C694 1.377 . S
C681 C680 1.524 . S
C681 C682 1.397 . S
C681 C686 1.363 . S
C682 H659 0.950 . S
C682 C681 1.397 . S
C682 C683 1.334 . S
C683 H660 0.950 . S
C683 C682 1.334 . S
C683 C684 1.287 . S
C684 C683 1.287 . S
C684 C685 1.524 . S
C684 H703 0.913 . S
C685 H661 0.950 . S
C685 C684 1.524 . S
C685 C686 1.415 . S
C686 H662 0.950 . S
C686 C681 1.363 . S
C686 C685 1.415 . S
C687 H663 0.951 . S
C687 C688 1.366 . S
C687 C689 1.388 . S
C688 C687 1.366 . S
C688 C692 1.385 . S
C689 H664 0.951 . S
C689 C687 1.388 . S
C689 C690 1.366 . S
C690 C689 1.366 . S
C690 C691 1.414 . S
C690 C693 1.499 . S
C691 H665 0.950 . S
C691 C690 1.414 . S
C691 C692 1.374 . S
C692 H666 0.950 . S
C692 C688 1.385 . S
C692 C691 1.374 . S
C693 C690 1.499 . S
C693 C694 1.373 . S
C693 C695 1.389 . S
C694 H667 0.950 . S
C694 C680 1.377 . S
C694 C693 1.373 . S
C695 C679 1.377 . S
C695 C693 1.389 . S
C695 C696 1.524 . S
C696 C695 1.524 . S
C696 C697 1.397 . S
C696 C701 1.363 . S
C697 H668 0.950 . S
C697 C696 1.397 . S
C697 C698 1.334 . S
C698 H669 0.950 . S
C698 C697 1.334 . S
C698 C699 1.287 . S
C699 C698 1.287 . S
C699 C700 1.524 . S
C699 H702 0.999 . S
C700 H670 0.950 . S
C700 C699 1.524 . S
C700 C701 1.415 . S
C701 H671 0.950 . S
C701 C696 1.363 . S
C701 C700 1.415 . S
H702 C699 0.999 . S
H703 C684 0.913 . S
H704 C722 0.951 . S
H705 C724 0.951 . S
H706 C726 0.950 . S
H707 C727 0.950 . S
H708 C729 0.950 . S
H709 C732 0.950 . S
H710 C733 0.950 . S
H711 C735 0.950 . S
H712 C736 0.950 . S
H713 C737 0.951 . S
H714 C739 0.951 . S
H715 C741 0.950 . S
H716 C742 0.950 . S
H717 C744 0.950 . S
H718 C747 0.950 . S
H719 C748 0.950 . S
H720 C750 0.950 . S
H721 C751 0.950 . S
C722 H704 0.951 . S
C722 C723 1.366 . S
C722 C724 1.388 . S
C723 C722 1.366 . S
C723 C727 1.385 . S
C724 H705 0.951 . S
C724 C722 1.388 . S
C724 C725 1.366 . S
C725 C724 1.366 . S
C725 C726 1.414 . S
C725 C728 1.499 . S
C726 H706 0.950 . S
C726 C725 1.414 . S
C726 C727 1.374 . S
C727 H707 0.950 . S
C727 C723 1.385 . S
C727 C726 1.374 . S
C728 C725 1.499 . S
C728 C729 1.373 . S
C728 C730 1.389 . S
C729 H708 0.950 . S
C729 C728 1.373 . S
C729 C745 1.377 . S
C730 C728 1.389 . S
C730 C731 1.524 . S
C730 C744 1.377 . S
C731 C730 1.524 . S
C731 C732 1.397 . S
C731 C736 1.363 . S
C732 H709 0.950 . S
C732 C731 1.397 . S
C732 C733 1.334 . S
C733 H710 0.950 . S
C733 C732 1.334 . S
C733 C734 1.287 . S
C734 C733 1.287 . S
C734 C735 1.524 . S
C734 H753 0.913 . S
C735 H711 0.950 . S
C735 C734 1.524 . S
C735 C736 1.415 . S
C736 H712 0.950 . S
C736 C731 1.363 . S
C736 C735 1.415 . S
C737 H713 0.951 . S
C737 C738 1.366 . S
C737 C739 1.388 . S
C738 C737 1.366 . S
C738 C742 1.385 . S
C739 H714 0.951 . S
C739 C737 1.388 . S
C739 C740 1.366 . S
C740 C739 1.366 . S
C740 C741 1.414 . S
C740 C743 1.499 . S
C741 H715 0.950 . S
C741 C740 1.414 . S
C741 C742 1.374 . S
C742 H716 0.950 . S
C742 C738 1.385 . S
C742 C741 1.374 . S
C743 C740 1.499 . S
C743 C744 1.373 . S
C743 C745 1.389 . S
C744 H717 0.950 . S
C744 C730 1.377 . S
C744 C743 1.373 . S
C745 C729 1.377 . S
C745 C743 1.389 . S
C745 C746 1.524 . S
C746 C745 1.524 . S
C746 C747 1.397 . S
C746 C751 1.363 . S
C747 H718 0.950 . S
C747 C746 1.397 . S
C747 C748 1.334 . S
C748 H719 0.950 . S
C748 C747 1.334 . S
C748 C749 1.287 . S
C749 C748 1.287 . S
C749 C750 1.524 . S
C749 H752 0.999 . S
C750 H720 0.950 . S
C750 C749 1.524 . S
C750 C751 1.415 . S
C751 H721 0.950 . S
C751 C746 1.363 . S
C751 C750 1.415 . S
H752 C749 0.999 . S
H753 C734 0.913 . S
H754 C772 0.951 . S
H755 C774 0.951 . S
H756 C776 0.950 . S
H757 C777 0.950 . S
H758 C779 0.950 . S
H759 C782 0.950 . S
H760 C783 0.950 . S
H761 C785 0.950 . S
H762 C786 0.950 . S
H763 C787 0.951 . S
H764 C789 0.951 . S
H765 C791 0.950 . S
H766 C792 0.950 . S
H767 C794 0.950 . S
H768 C797 0.950 . S
H769 C798 0.950 . S
H770 C800 0.950 . S
H771 C801 0.950 . S
C772 H754 0.951 . S
C772 C773 1.366 . S
C772 C774 1.388 . S
C773 C772 1.366 . S
C773 C777 1.385 . S
C774 H755 0.951 . S
C774 C772 1.388 . S
C774 C775 1.366 . S
C775 C774 1.366 . S
C775 C776 1.414 . S
C775 C778 1.499 . S
C776 H756 0.950 . S
C776 C775 1.414 . S
C776 C777 1.374 . S
C777 H757 0.950 . S
C777 C773 1.385 . S
C777 C776 1.374 . S
C778 C775 1.499 . S
C778 C779 1.373 . S
C778 C780 1.389 . S
C779 H758 0.950 . S
C779 C778 1.373 . S
C779 C795 1.377 . S
C780 C778 1.389 . S
C780 C781 1.524 . S
C780 C794 1.377 . S
C781 C780 1.524 . S
C781 C782 1.397 . S
C781 C786 1.363 . S
C782 H759 0.950 . S
C782 C781 1.397 . S
C782 C783 1.334 . S
C783 H760 0.950 . S
C783 C782 1.334 . S
C783 C784 1.287 . S
C784 C783 1.287 . S
C784 C785 1.524 . S
C784 H803 0.913 . S
C785 H761 0.950 . S
C785 C784 1.524 . S
C785 C786 1.415 . S
C786 H762 0.950 . S
C786 C781 1.363 . S
C786 C785 1.415 . S
C787 H763 0.951 . S
C787 C788 1.366 . S
C787 C789 1.388 . S
C788 C787 1.366 . S
C788 C792 1.385 . S
C789 H764 0.951 . S
C789 C787 1.388 . S
C789 C790 1.366 . S
C790 C789 1.366 . S
C790 C791 1.414 . S
C790 C793 1.499 . S
C791 H765 0.950 . S
C791 C790 1.414 . S
C791 C792 1.374 . S
C792 H766 0.950 . S
C792 C788 1.385 . S
C792 C791 1.374 . S
C793 C790 1.499 . S
C793 C794 1.373 . S
C793 C795 1.389 . S
C794 H767 0.950 . S
C794 C780 1.377 . S
C794 C793 1.373 . S
C795 C779 1.377 . S
C795 C793 1.389 . S
C795 C796 1.524 . S
C796 C795 1.524 . S
C796 C797 1.397 . S
C796 C801 1.363 . S
C797 H768 0.950 . S
C797 C796 1.397 . S
C797 C798 1.334 . S
C798 H769 0.950 . S
C798 C797 1.334 . S
C798 C799 1.287 . S
C799 C798 1.287 . S
C799 C800 1.524 . S
C799 H802 0.999 . S
C800 H770 0.950 . S
C800 C799 1.524 . S
C800 C801 1.415 . S
C801 H771 0.950 . S
C801 C796 1.363 . S
C801 C800 1.415 . S
H802 C799 0.999 . S
H803 C784 0.913 . S
H804 C822 0.951 . S
H805 C824 0.951 . S
H806 C826 0.950 . S
H807 C827 0.950 . S
H808 C829 0.950 1_556 S
H809 C832 0.950 . S
H810 C833 0.950 . S
H811 C835 0.950 . S
H812 C836 0.950 . S
H813 C837 0.951 . S
H814 C839 0.951 . S
H815 C841 0.950 . S
H816 C842 0.950 . S
H817 C844 0.950 . S
H818 C847 0.950 . S
H819 C848 0.950 . S
H820 C850 0.950 . S
H821 C851 0.950 . S
C822 H804 0.951 . S
C822 C823 1.366 . S
C822 C824 1.388 . S
C823 C822 1.366 . S
C823 C827 1.385 . S
C824 H805 0.951 . S
C824 C822 1.388 . S
C824 C825 1.366 . S
C825 C824 1.366 . S
C825 C826 1.414 . S
C825 C828 1.499 . S
C826 H806 0.950 . S
C826 C825 1.414 . S
C826 C827 1.374 . S
C827 H807 0.950 . S
C827 C823 1.385 . S
C827 C826 1.374 . S
C828 C825 1.499 . S
C828 C829 1.373 . S
C828 C830 1.389 . S
C829 H808 0.950 1_554 S
C829 C828 1.373 . S
C829 C845 1.377 . S
C830 C828 1.389 . S
C830 C831 1.524 . S
C830 C844 1.377 . S
C831 C830 1.524 . S
C831 C832 1.397 . S
C831 C836 1.363 . S
C832 H809 0.950 . S
C832 C831 1.397 . S
C832 C833 1.334 . S
C833 H810 0.950 . S
C833 C832 1.334 . S
C833 C834 1.287 . S
C834 C833 1.287 . S
C834 C835 1.524 . S
C834 H853 0.913 . S
C835 H811 0.950 . S
C835 C834 1.524 . S
C835 C836 1.415 . S
C836 H812 0.950 . S
C836 C831 1.363 . S
C836 C835 1.415 . S
C837 H813 0.951 . S
C837 C838 1.366 . S
C837 C839 1.388 . S
C838 C837 1.366 . S
C838 C842 1.385 . S
C839 H814 0.951 . S
C839 C837 1.388 . S
C839 C840 1.366 . S
C840 C839 1.366 . S
C840 C841 1.414 . S
C840 C843 1.499 . S
C841 H815 0.950 . S
C841 C840 1.414 . S
C841 C842 1.374 . S
C842 H816 0.950 . S
C842 C838 1.385 . S
C842 C841 1.374 . S
C843 C840 1.499 . S
C843 C844 1.373 . S
C843 C845 1.389 . S
C844 H817 0.950 . S
C844 C830 1.377 . S
C844 C843 1.373 . S
C845 C829 1.377 . S
C845 C843 1.389 . S
C845 C846 1.524 1_554 S
C846 C845 1.524 1_556 S
C846 C847 1.397 . S
C846 C851 1.363 . S
C847 H818 0.950 . S
C847 C846 1.397 . S
C847 C848 1.334 . S
C848 H819 0.950 . S
C848 C847 1.334 . S
C848 C849 1.287 . S
C849 C848 1.287 . S
C849 C850 1.524 . S
C849 H852 0.999 . S
C850 H820 0.950 . S
C850 C849 1.524 . S
C850 C851 1.415 . S
C851 H821 0.950 . S
C851 C846 1.363 . S
C851 C850 1.415 . S
H852 C849 0.999 . S
H853 C834 0.913 . S
H854 C872 0.951 . S
H855 C874 0.951 . S
H856 C876 0.950 1_655 S
H857 C877 0.950 . S
H858 C879 0.950 . S
H859 C882 0.950 . S
H860 C883 0.950 . S
H861 C885 0.950 . S
H862 C886 0.950 . S
H863 C887 0.951 . S
H864 C889 0.951 . S
H865 C891 0.950 1_455 S
H866 C892 0.950 . S
H867 C894 0.950 . S
H868 C897 0.950 . S
H869 C898 0.950 . S
H870 C900 0.950 . S
H871 C901 0.950 . S
C872 H854 0.951 . S
C872 C873 1.366 . S
C872 C874 1.388 . S
C873 C872 1.366 . S
C873 C877 1.385 . S
C874 H855 0.951 . S
C874 C872 1.388 . S
C874 C875 1.366 . S
C875 C874 1.366 . S
C875 C876 1.414 . S
C875 C878 1.499 . S
C876 H856 0.950 1_455 S
C876 C875 1.414 . S
C876 C877 1.374 . S
C877 H857 0.950 . S
C877 C873 1.385 . S
C877 C876 1.374 . S
C878 C875 1.499 . S
C878 C879 1.373 1_455 S
C878 C880 1.389 . S
C879 H858 0.950 . S
C879 C878 1.373 1_655 S
C879 C895 1.377 . S
C880 C878 1.389 . S
C880 C881 1.524 . S
C880 C894 1.377 . S
C881 C880 1.524 . S
C881 C882 1.397 . S
C881 C886 1.363 . S
C882 H859 0.950 . S
C882 C881 1.397 . S
C882 C883 1.334 . S
C883 H860 0.950 . S
C883 C882 1.334 . S
C883 C884 1.287 . S
C884 C883 1.287 . S
C884 C885 1.524 . S
C884 H903 0.913 . S
C885 H861 0.950 . S
C885 C884 1.524 . S
C885 C886 1.415 . S
C886 H862 0.950 . S
C886 C881 1.363 . S
C886 C885 1.415 . S
C887 H863 0.951 . S
C887 C888 1.366 . S
C887 C889 1.388 . S
C888 C887 1.366 . S
C888 C892 1.385 . S
C889 H864 0.951 . S
C889 C887 1.388 . S
C889 C890 1.366 . S
C890 C889 1.366 . S
C890 C891 1.414 . S
C890 C893 1.499 . S
C891 H865 0.950 1_655 S
C891 C890 1.414 . S
C891 C892 1.374 . S
C892 H866 0.950 . S
C892 C888 1.385 . S
C892 C891 1.374 . S
C893 C890 1.499 . S
C893 C894 1.373 1_655 S
C893 C895 1.389 . S
C894 H867 0.950 . S
C894 C880 1.377 . S
C894 C893 1.373 1_455 S
C895 C879 1.377 . S
C895 C893 1.389 . S
C895 C896 1.524 . S
C896 C895 1.524 . S
C896 C897 1.397 . S
C896 C901 1.363 . S
C897 H868 0.950 . S
C897 C896 1.397 . S
C897 C898 1.334 . S
C898 H869 0.950 . S
C898 C897 1.334 . S
C898 C899 1.287 . S
C899 C898 1.287 . S
C899 C900 1.524 . S
C899 H902 0.999 . S
C900 H870 0.950 . S
C900 C899 1.524 . S
C900 C901 1.415 . S
C901 H871 0.950 . S
C901 C896 1.363 . S
C901 C900 1.415 . S
H902 C899 0.999 . S
H903 C884 0.913 . S
H904 C922 0.951 . S
H905 C924 0.951 . S
H906 C926 0.950 . S
H907 C927 0.950 . S
H908 C929 0.950 . S
H909 C932 0.950 . S
H910 C933 0.950 . S
H911 C935 0.950 . S
H912 C936 0.950 . S
H913 C937 0.951 . S
H914 C939 0.951 . S
H915 C941 0.950 . S
H916 C942 0.950 . S
H917 C944 0.950 . S
H918 C947 0.950 . S
H919 C948 0.950 . S
H920 C950 0.950 . S
H921 C951 0.950 . S
C922 H904 0.951 . S
C922 C923 1.366 . S
C922 C924 1.388 . S
C923 C922 1.366 . S
C923 C927 1.385 . S
C924 H905 0.951 . S
C924 C922 1.388 . S
C924 C925 1.366 . S
C925 C924 1.366 . S
C925 C926 1.414 . S
C925 C928 1.499 . S
C926 H906 0.950 . S
C926 C925 1.414 . S
C926 C927 1.374 . S
C927 H907 0.950 . S
C927 C923 1.385 . S
C927 C926 1.374 . S
C928 C925 1.499 . S
C928 C929 1.373 1_545 S
C928 C930 1.389 . S
C929 H908 0.950 . S
C929 C928 1.373 1_565 S
C929 C945 1.377 . S
C930 C928 1.389 . S
C930 C931 1.524 . S
C930 C944 1.377 . S
C931 C930 1.524 . S
C931 C932 1.397 . S
C931 C936 1.363 . S
C932 H909 0.950 . S
C932 C931 1.397 . S
C932 C933 1.334 . S
C933 H910 0.950 . S
C933 C932 1.334 . S
C933 C934 1.287 . S
C934 C933 1.287 . S
C934 C935 1.524 . S
C934 H953 0.913 . S
C935 H911 0.950 . S
C935 C934 1.524 . S
C935 C936 1.415 . S
C936 H912 0.950 . S
C936 C931 1.363 . S
C936 C935 1.415 . S
C937 H913 0.951 . S
C937 C938 1.366 . S
C937 C939 1.388 . S
C938 C937 1.366 . S
C938 C942 1.385 . S
C939 H914 0.951 . S
C939 C937 1.388 . S
C939 C940 1.366 . S
C940 C939 1.366 . S
C940 C941 1.414 . S
C940 C943 1.499 . S
C941 H915 0.950 . S
C941 C940 1.414 . S
C941 C942 1.374 . S
C942 H916 0.950 . S
C942 C938 1.385 . S
C942 C941 1.374 . S
C943 C940 1.499 . S
C943 C944 1.373 1_565 S
C943 C945 1.389 . S
C944 H917 0.950 . S
C944 C930 1.377 . S
C944 C943 1.373 1_545 S
C945 C929 1.377 . S
C945 C943 1.389 . S
C945 C946 1.524 . S
C946 C945 1.524 . S
C946 C947 1.397 . S
C946 C951 1.363 . S
C947 H918 0.950 . S
C947 C946 1.397 . S
C947 C948 1.334 . S
C948 H919 0.950 . S
C948 C947 1.334 . S
C948 C949 1.287 . S
C949 C948 1.287 . S
C949 C950 1.524 . S
C949 H952 0.999 . S
C950 H920 0.950 . S
C950 C949 1.524 . S
C950 C951 1.415 . S
C951 H921 0.950 . S
C951 C946 1.363 . S
C951 C950 1.415 . S
H952 C949 0.999 . S
H953 C934 0.913 . S
H954 C972 0.951 . S
H955 C974 0.951 . S
H956 C976 0.950 . S
H957 C977 0.950 . S
H958 C979 0.950 . S
H959 C982 0.950 . S
H960 C983 0.950 . S
H961 C985 0.950 . S
H962 C986 0.950 . S
H963 C987 0.951 . S
H964 C989 0.951 . S
H965 C991 0.950 . S
H966 C992 0.950 . S
H967 C994 0.950 . S
H968 C997 0.950 . S
H969 C998 0.950 . S
H970 C1000 0.950 . S
H971 C1001 0.950 . S
C972 H954 0.951 . S
C972 C973 1.366 . S
C972 C974 1.388 . S
C973 C972 1.366 . S
C973 C977 1.385 . S
C974 H955 0.951 . S
C974 C972 1.388 . S
C974 C975 1.366 . S
C975 C974 1.366 . S
C975 C976 1.414 . S
C975 C978 1.499 . S
C976 H956 0.950 . S
C976 C975 1.414 . S
C976 C977 1.374 . S
C977 H957 0.950 . S
C977 C973 1.385 . S
C977 C976 1.374 . S
C978 C975 1.499 . S
C978 C979 1.373 . S
C978 C980 1.389 . S
C979 H958 0.950 . S
C979 C978 1.373 . S
C979 C995 1.377 . S
C980 C978 1.389 . S
C980 C981 1.524 . S
C980 C994 1.377 . S
C981 C980 1.524 . S
C981 C982 1.397 . S
C981 C986 1.363 . S
C982 H959 0.950 . S
C982 C981 1.397 . S
C982 C983 1.334 . S
C983 H960 0.950 . S
C983 C982 1.334 . S
C983 C984 1.287 . S
C984 C983 1.287 . S
C984 C985 1.524 . S
C984 H1003 0.913 . S
C985 H961 0.950 . S
C985 C984 1.524 . S
C985 C986 1.415 . S
C986 H962 0.950 . S
C986 C981 1.363 . S
C986 C985 1.415 . S
C987 H963 0.951 . S
C987 C988 1.366 . S
C987 C989 1.388 . S
C988 C987 1.366 . S
C988 C992 1.385 . S
C989 H964 0.951 . S
C989 C987 1.388 . S
C989 C990 1.366 . S
C990 C989 1.366 . S
C990 C991 1.414 . S
C990 C993 1.499 . S
C991 H965 0.950 . S
C991 C990 1.414 . S
C991 C992 1.374 . S
C992 H966 0.950 . S
C992 C988 1.385 . S
C992 C991 1.374 . S
C993 C990 1.499 . S
C993 C994 1.373 . S
C993 C995 1.389 . S
C994 H967 0.950 . S
C994 C980 1.377 . S
C994 C993 1.373 . S
C995 C979 1.377 . S
C995 C993 1.389 . S
C995 C996 1.524 . S
C996 C995 1.524 . S
C996 C997 1.397 . S
C996 C1001 1.363 . S
C997 H968 0.950 . S
C997 C996 1.397 . S
C997 C998 1.334 . S
C998 H969 0.950 . S
C998 C997 1.334 . S
C998 C999 1.287 . S
C999 C998 1.287 . S
C999 C1000 1.524 . S
C999 H1002 0.999 . S
C1000 H970 0.950 . S
C1000 C999 1.524 . S
C1000 C1001 1.415 . S
C1001 H971 0.950 . S
C1001 C996 1.363 . S
C1001 C1000 1.415 . S
H1002 C999 0.999 . S
H1003 C984 0.913 . S
H1004 C1022 0.951 . S
H1005 C1024 0.951 . S
H1006 C1026 0.950 1_556 S
H1007 C1027 0.950 1_556 S
H1008 C1029 0.950 . S
H1009 C1032 0.950 . S
H1010 C1033 0.950 . S
H1011 C1035 0.950 . S
H1012 C1036 0.950 . S
H1013 C1037 0.951 1_556 S
H1014 C1039 0.951 1_556 S
H1015 C1041 0.950 . S
H1016 C1042 0.950 . S
H1017 C1044 0.950 . S
H1018 C1047 0.950 . S
H1019 C1048 0.950 . S
H1020 C1050 0.950 . S
H1021 C1051 0.950 . S
C1022 H1004 0.951 . S
C1022 C1023 1.366 . S
C1022 C1024 1.388 . S
C1023 C1022 1.366 . S
C1023 C1027 1.385 . S
C1024 H1005 0.951 . S
C1024 C1022 1.388 . S
C1024 C1025 1.366 . S
C1025 C1024 1.366 . S
C1025 C1026 1.414 . S
C1025 C1028 1.499 . S
C1026 H1006 0.950 1_554 S
C1026 C1025 1.414 . S
C1026 C1027 1.374 . S
C1027 H1007 0.950 1_554 S
C1027 C1023 1.385 . S
C1027 C1026 1.374 . S
C1028 C1025 1.499 . S
C1028 C1029 1.373 1_554 S
C1028 C1030 1.389 . S
C1029 H1008 0.950 . S
C1029 C1028 1.373 1_556 S
C1029 C1045 1.377 1_455 S
C1030 C1028 1.389 . S
C1030 C1031 1.524 . S
C1030 C1044 1.377 1_455 S
C1031 C1030 1.524 . S
C1031 C1032 1.397 . S
C1031 C1036 1.363 . S
C1032 H1009 0.950 . S
C1032 C1031 1.397 . S
C1032 C1033 1.334 . S
C1033 H1010 0.950 . S
C1033 C1032 1.334 . S
C1033 C1034 1.287 . S
C1034 C1033 1.287 . S
C1034 C1035 1.524 . S
C1034 H1053 0.913 . S
C1035 H1011 0.950 . S
C1035 C1034 1.524 . S
C1035 C1036 1.415 . S
C1036 H1012 0.950 . S
C1036 C1031 1.363 . S
C1036 C1035 1.415 . S
C1037 H1013 0.951 1_554 S
C1037 C1038 1.366 . S
C1037 C1039 1.388 . S
C1038 C1037 1.366 . S
C1038 C1042 1.385 . S
C1039 H1014 0.951 1_554 S
C1039 C1037 1.388 . S
C1039 C1040 1.366 . S
C1040 C1039 1.366 . S
C1040 C1041 1.414 . S
C1040 C1043 1.499 . S
C1041 H1015 0.950 . S
C1041 C1040 1.414 . S
C1041 C1042 1.374 . S
C1042 H1016 0.950 . S
C1042 C1038 1.385 . S
C1042 C1041 1.374 . S
C1043 C1040 1.499 . S
C1043 C1044 1.373 . S
C1043 C1045 1.389 1_554 S
C1044 H1017 0.950 . S
C1044 C1030 1.377 1_655 S
C1044 C1043 1.373 . S
C1045 C1029 1.377 1_655 S
C1045 C1043 1.389 1_556 S
C1045 C1046 1.524 . S
C1046 C1045 1.524 . S
C1046 C1047 1.397 . S
C1046 C1051 1.363 . S
C1047 H1018 0.950 . S
C1047 C1046 1.397 . S
C1047 C1048 1.334 . S
C1048 H1019 0.950 . S
C1048 C1047 1.334 . S
C1048 C1049 1.287 . S
C1049 C1048 1.287 . S
C1049 C1050 1.524 . S
C1049 H1052 0.999 . S
C1050 H1020 0.950 . S
C1050 C1049 1.524 . S
C1050 C1051 1.415 . S
C1051 H1021 0.950 . S
C1051 C1046 1.363 . S
C1051 C1050 1.415 . S
H1052 C1049 0.999 . S
H1053 C1034 0.913 . S
H1054 C1072 0.951 . S
H1055 C1074 0.951 . S
H1056 C1076 0.950 . S
H1057 C1077 0.950 . S
H1058 C1079 0.950 . S
H1059 C1082 0.950 1_545 S
H1060 C1083 0.950 . S
H1061 C1085 0.950 . S
H1062 C1086 0.950 . S
H1063 C1087 0.951 . S
H1064 C1089 0.951 . S
H1065 C1091 0.950 . S
H1066 C1092 0.950 . S
H1067 C1094 0.950 . S
H1068 C1097 0.950 1_565 S
H1069 C1098 0.950 . S
H1070 C1100 0.950 . S
H1071 C1101 0.950 . S
C1072 H1054 0.951 . S
C1072 C1073 1.366 . S
C1072 C1074 1.388 . S
C1073 C1072 1.366 . S
C1073 C1077 1.385 . S
C1074 H1055 0.951 . S
C1074 C1072 1.388 . S
C1074 C1075 1.366 . S
C1075 C1074 1.366 . S
C1075 C1076 1.414 . S
C1075 C1078 1.499 . S
C1076 H1056 0.950 . S
C1076 C1075 1.414 . S
C1076 C1077 1.374 . S
C1077 H1057 0.950 . S
C1077 C1073 1.385 . S
C1077 C1076 1.374 . S
C1078 C1075 1.499 . S
C1078 C1079 1.373 . S
C1078 C1080 1.389 . S
C1079 H1058 0.950 . S
C1079 C1078 1.373 . S
C1079 C1095 1.377 1_565 S
C1080 C1078 1.389 . S
C1080 C1081 1.524 . S
C1080 C1094 1.377 1_565 S
C1081 C1080 1.524 . S
C1081 C1082 1.397 . S
C1081 C1086 1.363 . S
C1082 H1059 0.950 1_565 S
C1082 C1081 1.397 . S
C1082 C1083 1.334 . S
C1083 H1060 0.950 . S
C1083 C1082 1.334 . S
C1083 C1084 1.287 . S
C1084 C1083 1.287 . S
C1084 C1085 1.524 . S
C1084 H1103 0.913 . S
C1085 H1061 0.950 . S
C1085 C1084 1.524 . S
C1085 C1086 1.415 . S
C1086 H1062 0.950 . S
C1086 C1081 1.363 . S
C1086 C1085 1.415 . S
C1087 H1063 0.951 . S
C1087 C1088 1.366 . S
C1087 C1089 1.388 . S
C1088 C1087 1.366 . S
C1088 C1092 1.385 . S
C1089 H1064 0.951 . S
C1089 C1087 1.388 . S
C1089 C1090 1.366 . S
C1090 C1089 1.366 . S
C1090 C1091 1.414 . S
C1090 C1093 1.499 . S
C1091 H1065 0.950 . S
C1091 C1090 1.414 . S
C1091 C1092 1.374 . S
C1092 H1066 0.950 . S
C1092 C1088 1.385 . S
C1092 C1091 1.374 . S
C1093 C1090 1.499 . S
C1093 C1094 1.373 . S
C1093 C1095 1.389 . S
C1094 H1067 0.950 . S
C1094 C1080 1.377 1_545 S
C1094 C1093 1.373 . S
C1095 C1079 1.377 1_545 S
C1095 C1093 1.389 . S
C1095 C1096 1.524 . S
C1096 C1095 1.524 . S
C1096 C1097 1.397 . S
C1096 C1101 1.363 . S
C1097 H1068 0.950 1_545 S
C1097 C1096 1.397 . S
C1097 C1098 1.334 . S
C1098 H1069 0.950 . S
C1098 C1097 1.334 . S
C1098 C1099 1.287 . S
C1099 C1098 1.287 . S
C1099 C1100 1.524 . S
C1099 H1102 0.999 . S
C1100 H1070 0.950 . S
C1100 C1099 1.524 . S
C1100 C1101 1.415 . S
C1101 H1071 0.950 . S
C1101 C1096 1.363 . S
C1101 C1100 1.415 . S
H1102 C1099 0.999 . S
H1103 C1084 0.913 . S
H1104 C1122 0.951 . S
H1105 C1124 0.951 . S
H1106 C1126 0.950 . S
H1107 C1127 0.950 . S
H1108 C1129 0.950 . S
H1109 C1132 0.950 . S
H1110 C1133 0.950 . S
H1111 C1135 0.950 . S
H1112 C1136 0.950 . S
H1113 C1137 0.951 . S
H1114 C1139 0.951 . S
H1115 C1141 0.950 . S
H1116 C1142 0.950 . S
H1117 C1144 0.950 . S
H1118 C1147 0.950 . S
H1119 C1148 0.950 . S
H1120 C1150 0.950 . S
H1121 C1151 0.950 . S
C1122 H1104 0.951 . S
C1122 C1123 1.366 . S
C1122 C1124 1.388 . S
C1123 C1122 1.366 . S
C1123 C1127 1.385 . S
C1124 H1105 0.951 . S
C1124 C1122 1.388 . S
C1124 C1125 1.366 . S
C1125 C1124 1.366 . S
C1125 C1126 1.414 . S
C1125 C1128 1.499 . S
C1126 H1106 0.950 . S
C1126 C1125 1.414 . S
C1126 C1127 1.374 . S
C1127 H1107 0.950 . S
C1127 C1123 1.385 . S
C1127 C1126 1.374 . S
C1128 C1125 1.499 . S
C1128 C1129 1.373 . S
C1128 C1130 1.389 . S
C1129 H1108 0.950 . S
C1129 C1128 1.373 . S
C1129 C1145 1.377 . S
C1130 C1128 1.389 . S
C1130 C1131 1.524 . S
C1130 C1144 1.377 . S
C1131 C1130 1.524 . S
C1131 C1132 1.397 . S
C1131 C1136 1.363 . S
C1132 H1109 0.950 . S
C1132 C1131 1.397 . S
C1132 C1133 1.334 . S
C1133 H1110 0.950 . S
C1133 C1132 1.334 . S
C1133 C1134 1.287 . S
C1134 C1133 1.287 . S
C1134 C1135 1.524 . S
C1134 H1153 0.913 . S
C1135 H1111 0.950 . S
C1135 C1134 1.524 . S
C1135 C1136 1.415 . S
C1136 H1112 0.950 . S
C1136 C1131 1.363 . S
C1136 C1135 1.415 . S
C1137 H1113 0.951 . S
C1137 C1138 1.366 . S
C1137 C1139 1.388 . S
C1138 C1137 1.366 . S
C1138 C1142 1.385 . S
C1139 H1114 0.951 . S
C1139 C1137 1.388 . S
C1139 C1140 1.366 . S
C1140 C1139 1.366 . S
C1140 C1141 1.414 . S
C1140 C1143 1.499 . S
C1141 H1115 0.950 . S
C1141 C1140 1.414 . S
C1141 C1142 1.374 . S
C1142 H1116 0.950 . S
C1142 C1138 1.385 . S
C1142 C1141 1.374 . S
C1143 C1140 1.499 . S
C1143 C1144 1.373 . S
C1143 C1145 1.389 . S
C1144 H1117 0.950 . S
C1144 C1130 1.377 . S
C1144 C1143 1.373 . S
C1145 C1129 1.377 . S
C1145 C1143 1.389 . S
C1145 C1146 1.524 . S
C1146 C1145 1.524 . S
C1146 C1147 1.397 . S
C1146 C1151 1.363 . S
C1147 H1118 0.950 . S
C1147 C1146 1.397 . S
C1147 C1148 1.334 . S
C1148 H1119 0.950 . S
C1148 C1147 1.334 . S
C1148 C1149 1.287 . S
C1149 C1148 1.287 . S
C1149 C1150 1.524 . S
C1149 H1152 0.999 . S
C1150 H1120 0.950 . S
C1150 C1149 1.524 . S
C1150 C1151 1.415 . S
C1151 H1121 0.950 . S
C1151 C1146 1.363 . S
C1151 C1150 1.415 . S
H1152 C1149 0.999 . S
H1153 C1134 0.913 . S
H1154 C1172 0.951 . S
H1155 C1174 0.951 . S
H1156 C1176 0.962 1_655 S
H1157 C1177 0.950 . S
H1158 C1179 0.950 . S
H1159 C1182 0.950 . S
H1160 C1183 0.950 . S
H1161 C1185 0.950 . S
H1162 C1186 0.950 . S
H1163 C1187 0.951 . S
H1164 C1189 0.951 . S
H1165 C1191 0.950 . S
H1166 C1192 0.950 . S
H1167 C1194 0.950 . S
H1168 C1197 0.950 . S
H1169 C1198 0.950 . S
H1170 C1200 0.950 . S
H1171 C1201 0.950 . S
C1172 H1154 0.951 . S
C1172 C1173 1.366 1_455 S
C1172 C1174 1.388 . S
C1173 C1172 1.366 1_655 S
C1173 C1177 1.385 . S
C1174 H1155 0.951 . S
C1174 C1172 1.388 . S
C1174 C1175 1.366 . S
C1175 C1174 1.366 . S
C1175 C1176 1.414 . S
C1175 C1178 1.499 . S
C1176 H1156 0.962 1_455 S
C1176 C1175 1.414 . S
C1176 C1177 1.374 1_455 S
C1177 H1157 0.950 . S
C1177 C1173 1.385 . S
C1177 C1176 1.374 1_655 S
C1178 C1175 1.499 . S
C1178 C1179 1.373 . S
C1178 C1180 1.389 . S
C1179 H1158 0.950 . S
C1179 C1178 1.373 . S
C1179 C1195 1.377 . S
C1180 C1178 1.389 . S
C1180 C1181 1.524 . S
C1180 C1194 1.377 . S
C1181 C1180 1.524 . S
C1181 C1182 1.397 1_455 S
C1181 C1186 1.363 . S
C1182 H1159 0.950 . S
C1182 C1181 1.397 1_655 S
C1182 C1183 1.334 . S
C1183 H1160 0.950 . S
C1183 C1182 1.334 . S
C1183 C1184 1.287 . S
C1184 C1183 1.287 . S
C1184 C1185 1.524 1_655 S
C1184 H1203 0.913 . S
C1185 H1161 0.950 . S
C1185 C1184 1.524 1_455 S
C1185 C1186 1.415 . S
C1186 H1162 0.950 . S
C1186 C1181 1.363 . S
C1186 C1185 1.415 . S
C1187 H1163 0.951 . S
C1187 C1188 1.366 . S
C1187 C1189 1.388 . S
C1188 C1187 1.366 . S
C1188 C1192 1.385 . S
C1189 H1164 0.951 . S
C1189 C1187 1.388 . S
C1189 C1190 1.366 . S
C1190 C1189 1.366 . S
C1190 C1191 1.414 . S
C1190 C1193 1.499 . S
C1191 H1165 0.950 . S
C1191 C1190 1.414 . S
C1191 C1192 1.374 . S
C1192 H1166 0.950 . S
C1192 C1188 1.385 . S
C1192 C1191 1.374 . S
C1193 C1190 1.499 . S
C1193 C1194 1.373 . S
C1193 C1195 1.389 . S
C1194 H1167 0.950 . S
C1194 C1180 1.377 . S
C1194 C1193 1.373 . S
C1195 C1179 1.377 . S
C1195 C1193 1.389 . S
C1195 C1196 1.524 . S
C1196 C1195 1.524 . S
C1196 C1197 1.397 . S
C1196 C1201 1.363 . S
C1197 H1168 0.950 . S
C1197 C1196 1.397 . S
C1197 C1198 1.334 . S
C1198 H1169 0.950 . S
C1198 C1197 1.334 . S
C1198 C1199 1.287 . S
C1199 C1198 1.287 . S
C1199 C1200 1.524 . S
C1199 H1202 0.999 . S
C1200 H1170 0.950 . S
C1200 C1199 1.524 . S
C1200 C1201 1.415 . S
C1201 H1171 0.950 . S
C1201 C1196 1.363 . S
C1201 C1200 1.415 . S
H1202 C1199 0.999 . S
H1203 C1184 0.913 . S
H1204 C1222 0.951 . S
H1205 C1224 0.951 . S
H1206 C1226 0.950 . S
H1207 C1227 0.950 . S
H1208 C1229 0.950 1_565 S
H1209 C1232 0.950 . S
H1210 C1233 0.950 . S
H1211 C1235 0.950 . S
H1212 C1236 0.950 . S
H1213 C1237 0.951 . S
H1214 C1239 0.951 . S
H1215 C1241 0.950 . S
H1216 C1242 0.950 . S
H1217 C1244 0.950 . S
H1218 C1247 0.950 . S
H1219 C1248 0.950 . S
H1220 C1250 0.950 . S
H1221 C1251 0.950 . S
C1222 H1204 0.951 . S
C1222 C1223 1.366 1_545 S
C1222 C1224 1.388 . S
C1223 C1222 1.366 1_565 S
C1223 C1227 1.385 . S
C1224 H1205 0.951 . S
C1224 C1222 1.388 . S
C1224 C1225 1.366 . S
C1225 C1224 1.366 . S
C1225 C1226 1.414 1_545 S
C1225 C1228 1.499 . S
C1226 H1206 0.950 . S
C1226 C1225 1.414 1_565 S
C1226 C1227 1.374 . S
C1227 H1207 0.950 . S
C1227 C1223 1.385 . S
C1227 C1226 1.374 . S
C1228 C1225 1.499 . S
C1228 C1229 1.373 . S
C1228 C1230 1.389 . S
C1229 H1208 0.950 1_545 S
C1229 C1228 1.373 . S
C1229 C1245 1.377 . S
C1230 C1228 1.389 . S
C1230 C1231 1.524 . S
C1230 C1244 1.377 . S
C1231 C1230 1.524 . S
C1231 C1232 1.397 . S
C1231 C1236 1.363 . S
C1232 H1209 0.950 . S
C1232 C1231 1.397 . S
C1232 C1233 1.334 . S
C1233 H1210 0.950 . S
C1233 C1232 1.334 . S
C1233 C1234 1.287 . S
C1234 C1233 1.287 . S
C1234 C1235 1.524 . S
C1234 H1253 0.913 . S
C1235 H1211 0.950 . S
C1235 C1234 1.524 . S
C1235 C1236 1.415 . S
C1236 H1212 0.950 . S
C1236 C1231 1.363 . S
C1236 C1235 1.415 . S
C1237 H1213 0.951 . S
C1237 C1238 1.366 . S
C1237 C1239 1.388 . S
C1238 C1237 1.366 . S
C1238 C1242 1.385 . S
C1239 H1214 0.951 . S
C1239 C1237 1.388 . S
C1239 C1240 1.366 . S
C1240 C1239 1.366 . S
C1240 C1241 1.414 . S
C1240 C1243 1.499 . S
C1241 H1215 0.950 . S
C1241 C1240 1.414 . S
C1241 C1242 1.374 . S
C1242 H1216 0.950 . S
C1242 C1238 1.385 . S
C1242 C1241 1.374 . S
C1243 C1240 1.499 . S
C1243 C1244 1.373 . S
C1243 C1245 1.389 . S
C1244 H1217 0.950 . S
C1244 C1230 1.377 . S
C1244 C1243 1.373 . S
C1245 C1229 1.377 . S
C1245 C1243 1.389 . S
C1245 C1246 1.524 . S
C1246 C1245 1.524 . S
C1246 C1247 1.397 . S
C1246 C1251 1.363 1_545 S
C1247 H1218 0.950 . S
C1247 C1246 1.397 . S
C1247 C1248 1.334 . S
C1248 H1219 0.950 . S
C1248 C1247 1.334 . S
C1248 C1249 1.287 1_545 S
C1249 C1248 1.287 1_565 S
C1249 C1250 1.524 . S
C1249 H1252 0.999 . S
C1250 H1220 0.950 . S
C1250 C1249 1.524 . S
C1250 C1251 1.415 . S
C1251 H1221 0.950 . S
C1251 C1246 1.363 1_565 S
C1251 C1250 1.415 . S
H1252 C1249 0.999 . S
H1253 C1234 0.913 . S
H1254 C1272 0.951 . S
H1255 C1274 0.951 . S
H1256 C1276 0.950 . S
H1257 C1277 0.950 . S
H1258 C1279 0.950 . S
H1259 C1282 0.950 . S
H1260 C1283 0.950 . S
H1261 C1285 0.950 . S
H1262 C1286 0.950 . S
H1263 C1287 0.951 . S
H1264 C1289 0.951 . S
H1265 C1291 0.950 . S
H1266 C1292 0.950 . S
H1267 C1294 0.950 . S
H1268 C1297 0.950 . S
H1269 C1298 0.950 . S
H1270 C1300 0.950 . S
H1271 C1301 0.950 . S
C1272 H1254 0.951 . S
C1272 C1273 1.366 . S
C1272 C1274 1.388 . S
C1273 C1272 1.366 . S
C1273 C1277 1.385 . S
C1274 H1255 0.951 . S
C1274 C1272 1.388 . S
C1274 C1275 1.366 . S
C1275 C1274 1.366 . S
C1275 C1276 1.414 . S
C1275 C1278 1.499 . S
C1276 H1256 0.950 . S
C1276 C1275 1.414 . S
C1276 C1277 1.374 . S
C1277 H1257 0.950 . S
C1277 C1273 1.385 . S
C1277 C1276 1.374 . S
C1278 C1275 1.499 . S
C1278 C1279 1.373 . S
C1278 C1280 1.389 . S
C1279 H1258 0.950 . S
C1279 C1278 1.373 . S
C1279 C1295 1.377 . S
C1280 C1278 1.389 . S
C1280 C1281 1.524 . S
C1280 C1294 1.377 . S
C1281 C1280 1.524 . S
C1281 C1282 1.397 . S
C1281 C1286 1.363 . S
C1282 H1259 0.950 . S
C1282 C1281 1.397 . S
C1282 C1283 1.334 . S
C1283 H1260 0.950 . S
C1283 C1282 1.334 . S
C1283 C1284 1.287 . S
C1284 C1283 1.287 . S
C1284 C1285 1.524 . S
C1284 H1303 0.913 . S
C1285 H1261 0.950 . S
C1285 C1284 1.524 . S
C1285 C1286 1.415 . S
C1286 H1262 0.950 . S
C1286 C1281 1.363 . S
C1286 C1285 1.415 . S
C1287 H1263 0.951 . S
C1287 C1288 1.366 . S
C1287 C1289 1.388 . S
C1288 C1287 1.366 . S
C1288 C1292 1.385 . S
C1289 H1264 0.951 . S
C1289 C1287 1.388 . S
C1289 C1290 1.366 . S
C1290 C1289 1.366 . S
C1290 C1291 1.414 . S
C1290 C1293 1.499 . S
C1291 H1265 0.950 . S
C1291 C1290 1.414 . S
C1291 C1292 1.374 . S
C1292 H1266 0.950 . S
C1292 C1288 1.385 . S
C1292 C1291 1.374 . S
C1293 C1290 1.499 . S
C1293 C1294 1.373 . S
C1293 C1295 1.389 . S
C1294 H1267 0.950 . S
C1294 C1280 1.377 . S
C1294 C1293 1.373 . S
C1295 C1279 1.377 . S
C1295 C1293 1.389 . S
C1295 C1296 1.524 . S
C1296 C1295 1.524 . S
C1296 C1297 1.397 . S
C1296 C1301 1.363 . S
C1297 H1268 0.950 . S
C1297 C1296 1.397 . S
C1297 C1298 1.334 . S
C1298 H1269 0.950 . S
C1298 C1297 1.334 . S
C1298 C1299 1.287 . S
C1299 C1298 1.287 . S
C1299 C1300 1.524 . S
C1299 H1302 0.999 . S
C1300 H1270 0.950 . S
C1300 C1299 1.524 . S
C1300 C1301 1.415 . S
C1301 H1271 0.950 . S
C1301 C1296 1.363 . S
C1301 C1300 1.415 . S
H1302 C1299 0.999 . S
H1303 C1284 0.913 . S
H1304 C1322 0.951 . S
H1305 C1324 0.951 . S
H1306 C1326 0.950 . S
H1307 C1327 0.950 . S
H1308 C1329 0.950 . S
H1309 C1332 0.950 . S
H1310 C1333 0.950 . S
H1311 C1335 0.950 . S
H1312 C1336 0.950 . S
H1313 C1337 0.951 . S
H1314 C1339 0.951 . S
H1315 C1341 0.950 . S
H1316 C1342 0.950 . S
H1317 C1344 0.950 . S
H1318 C1347 0.950 . S
H1319 C1348 0.950 . S
H1320 C1350 0.950 . S
H1321 C1351 0.950 . S
C1322 H1304 0.951 . S
C1322 C1323 1.366 1_655 S
C1322 C1324 1.388 . S
C1323 C1322 1.366 1_455 S
C1323 C1327 1.385 . S
C1324 H1305 0.951 . S
C1324 C1322 1.388 . S
C1324 C1325 1.366 . S
C1325 C1324 1.366 . S
C1325 C1326 1.414 1_655 S
C1325 C1328 1.499 . S
C1326 H1306 0.950 . S
C1326 C1325 1.414 1_455 S
C1326 C1327 1.374 . S
C1327 H1307 0.950 . S
C1327 C1323 1.385 . S
C1327 C1326 1.374 . S
C1328 C1325 1.499 . S
C1328 C1329 1.373 . S
C1328 C1330 1.389 . S
C1329 H1308 0.950 . S
C1329 C1328 1.373 . S
C1329 C1345 1.377 . S
C1330 C1328 1.389 . S
C1330 C1331 1.524 . S
C1330 C1344 1.377 . S
C1331 C1330 1.524 . S
C1331 C1332 1.397 . S
C1331 C1336 1.363 . S
C1332 H1309 0.950 . S
C1332 C1331 1.397 . S
C1332 C1333 1.334 . S
C1333 H1310 0.950 . S
C1333 C1332 1.334 . S
C1333 C1334 1.287 . S
C1334 C1333 1.287 . S
C1334 C1335 1.524 . S
C1334 H1353 0.913 . S
C1335 H1311 0.950 . S
C1335 C1334 1.524 . S
C1335 C1336 1.415 . S
C1336 H1312 0.950 . S
C1336 C1331 1.363 . S
C1336 C1335 1.415 . S
C1337 H1313 0.951 . S
C1337 C1338 1.366 . S
C1337 C1339 1.388 . S
C1338 C1337 1.366 . S
C1338 C1342 1.385 . S
C1339 H1314 0.951 . S
C1339 C1337 1.388 . S
C1339 C1340 1.366 . S
C1340 C1339 1.366 . S
C1340 C1341 1.414 . S
C1340 C1343 1.499 . S
C1341 H1315 0.950 . S
C1341 C1340 1.414 . S
C1341 C1342 1.374 . S
C1342 H1316 0.950 . S
C1342 C1338 1.385 . S
C1342 C1341 1.374 . S
C1343 C1340 1.499 . S
C1343 C1344 1.373 . S
C1343 C1345 1.389 . S
C1344 H1317 0.950 . S
C1344 C1330 1.377 . S
C1344 C1343 1.373 . S
C1345 C1329 1.377 . S
C1345 C1343 1.389 . S
C1345 C1346 1.524 . S
C1346 C1345 1.524 . S
C1346 C1347 1.397 . S
C1346 C1351 1.363 . S
C1347 H1318 0.950 . S
C1347 C1346 1.397 . S
C1347 C1348 1.334 . S
C1348 H1319 0.950 . S
C1348 C1347 1.334 . S
C1348 C1349 1.287 . S
C1349 C1348 1.287 . S
C1349 C1350 1.524 . S
C1349 H1352 0.999 . S
C1350 H1320 0.950 . S
C1350 C1349 1.524 . S
C1350 C1351 1.415 . S
C1351 H1321 0.950 . S
C1351 C1346 1.363 . S
C1351 C1350 1.415 . S
H1352 C1349 0.999 . S
H1353 C1334 0.913 . S
H1354 C1372 0.961 . S
H1355 C1374 0.951 . S
H1356 C1376 0.950 . S
H1357 C1377 0.950 . S
H1358 C1379 0.950 . S
H1359 C1382 0.950 . S
H1360 C1383 0.950 . S
H1361 C1385 0.950 . S
H1362 C1386 0.950 . S
H1363 C1387 0.951 . S
H1364 C1389 0.951 . S
H1365 C1391 0.950 . S
H1366 C1392 0.950 . S
H1367 C1394 0.950 . S
H1368 C1397 0.950 . S
H1369 C1398 0.961 . S
H1370 C1400 0.950 . S
H1371 C1401 0.950 . S
C1372 H1354 0.961 . S
C1372 C1373 1.366 1_565 S
C1372 C1374 1.388 . S
C1373 C1372 1.366 1_545 S
C1373 C1377 1.385 . S
C1374 H1355 0.951 . S
C1374 C1372 1.388 . S
C1374 C1375 1.366 . S
C1375 C1374 1.366 . S
C1375 C1376 1.414 . S
C1375 C1378 1.499 . S
C1376 H1356 0.950 . S
C1376 C1375 1.414 . S
C1376 C1377 1.374 1_565 S
C1377 H1357 0.950 . S
C1377 C1373 1.385 . S
C1377 C1376 1.374 1_545 S
C1378 C1375 1.499 . S
C1378 C1379 1.373 . S
C1378 C1380 1.389 . S
C1379 H1358 0.950 . S
C1379 C1378 1.373 . S
C1379 C1395 1.377 . S
C1380 C1378 1.389 . S
C1380 C1381 1.524 . S
C1380 C1394 1.377 . S
C1381 C1380 1.524 . S
C1381 C1382 1.397 . S
C1381 C1386 1.363 . S
C1382 H1359 0.950 . S
C1382 C1381 1.397 . S
C1382 C1383 1.334 . S
C1383 H1360 0.950 . S
C1383 C1382 1.334 . S
C1383 C1384 1.287 . S
C1384 C1383 1.287 . S
C1384 C1385 1.524 . S
C1384 H1403 0.913 . S
C1385 H1361 0.950 . S
C1385 C1384 1.524 . S
C1385 C1386 1.415 . S
C1386 H1362 0.950 . S
C1386 C1381 1.363 . S
C1386 C1385 1.415 . S
C1387 H1363 0.951 . S
C1387 C1388 1.366 . S
C1387 C1389 1.388 . S
C1388 C1387 1.366 . S
C1388 C1392 1.385 . S
C1389 H1364 0.951 . S
C1389 C1387 1.388 . S
C1389 C1390 1.366 . S
C1390 C1389 1.366 . S
C1390 C1391 1.414 . S
C1390 C1393 1.499 . S
C1391 H1365 0.950 . S
C1391 C1390 1.414 . S
C1391 C1392 1.374 . S
C1392 H1366 0.950 . S
C1392 C1388 1.385 . S
C1392 C1391 1.374 . S
C1393 C1390 1.499 . S
C1393 C1394 1.373 . S
C1393 C1395 1.389 . S
C1394 H1367 0.950 . S
C1394 C1380 1.377 . S
C1394 C1393 1.373 . S
C1395 C1379 1.377 . S
C1395 C1393 1.389 . S
C1395 C1396 1.524 . S
C1396 C1395 1.524 . S
C1396 C1397 1.397 . S
C1396 C1401 1.363 . S
C1397 H1368 0.950 . S
C1397 C1396 1.397 . S
C1397 C1398 1.323 1_565 S
C1398 H1369 0.961 . S
C1398 C1397 1.323 1_545 S
C1398 C1399 1.288 . S
C1399 C1398 1.288 . S
C1399 C1400 1.524 . S
C1399 H1402 0.999 . S
C1400 H1370 0.950 . S
C1400 C1399 1.524 . S
C1400 C1401 1.415 1_545 S
C1401 H1371 0.950 . S
C1401 C1396 1.363 . S
C1401 C1400 1.415 1_565 S
H1402 C1399 0.999 . S
H1403 C1384 0.913 . S
C523 C403 1.064 . S
C538 C69 0.936 . S
C573 C487 1.064 . S
C588 C153 0.936 . S
C623 C67 1.064 . S
C638 C237 0.936 . S
C673 C151 1.064 . S
C688 C321 0.935 . S
C723 C235 1.063 . S
C738 C405 0.933 . S
C773 C319 1.063 . S
C788 C489 0.933 . S
C823 C63 1.163 . S
C838 C315 1.162 . S
C873 C399 1.162 . S
C888 C147 1.163 . S
C923 C483 1.163 . S
C938 C231 1.163 . S
C973 C242 1.491 . S
C988 C494 1.491 . S
C1023 C74 1.491 . S
C1038 C326 1.491 . S
C1073 C410 1.491 . S
C1088 C158 1.491 . S
C1123 C476 0.987 . S
C1138 C58 0.939 . S
C1173 C142 0.940 . S
C1188 C56 0.986 . S
C1223 C226 0.938 . S
C1238 C140 0.987 . S
C1273 C224 0.986 . S
C1288 C310 0.939 . S
C1323 C394 0.939 . S
C1338 C308 0.986 . S
C1373 C478 0.938 . S
C1388 C392 0.987 . S
