# Generated by pormake.
# Topology wnd, (6)-cn, num edge types: 1
# Building blocks:
#     Node 0, Type 0, BuildingBlock: KUMBOL_clean_sbu_0, # of connection points: 6
#     Node 1, Type 0, BuildingBlock: KUMBOL_clean_sbu_0, # of connection points: 6
#     Node 2, Type 0, BuildingBlock: KUMBOL_clean_sbu_0, # of connection points: 6
#     Node 3, Type 0, BuildingBlock: KUMBOL_clean_sbu_0, # of connection points: 6
#     Node 4, Type 0, BuildingBlock: KUMBOL_clean_sbu_0, # of connection points: 6
#     Node 5, Type 0, BuildingBlock: KUMBOL_clean_sbu_0, # of connection points: 6
#     Node 6, Type 0, BuildingBlock: KUMBOL_clean_sbu_0, # of connection points: 6
#     Node 7, Type 0, BuildingBlock: KUMBOL_clean_sbu_0, # of connection points: 6
#     Node 8, Type 0, BuildingBlock: KUMBOL_clean_sbu_0, # of connection points: 6
#     Node 9, Type 0, BuildingBlock: KUMBOL_clean_sbu_0, # of connection points: 6
#     Node 10, Type 0, BuildingBlock: KUMBOL_clean_sbu_0, # of connection points: 6
#     Node 11, Type 0, BuildingBlock: KUMBOL_clean_sbu_0, # of connection points: 6
#     Node 12, Type 0, BuildingBlock: KUMBOL_clean_sbu_0, # of connection points: 6
#     Node 13, Type 0, BuildingBlock: KUMBOL_clean_sbu_0, # of connection points: 6
#     Node 14, Type 0, BuildingBlock: KUMBOL_clean_sbu_0, # of connection points: 6
#     Node 15, Type 0, BuildingBlock: KUMBOL_clean_sbu_0, # of connection points: 6
#     Node 16, Type 0, BuildingBlock: KUMBOL_clean_sbu_0, # of connection points: 6
#     Node 17, Type 0, BuildingBlock: KUMBOL_clean_sbu_0, # of connection points: 6
#     Node 18, Type 0, BuildingBlock: KUMBOL_clean_sbu_0, # of connection points: 6
#     Node 19, Type 0, BuildingBlock: KUMBOL_clean_sbu_0, # of connection points: 6
#     Node 20, Type 0, BuildingBlock: KUMBOL_clean_sbu_0, # of connection points: 6
#     Node 21, Type 0, BuildingBlock: KUMBOL_clean_sbu_0, # of connection points: 6
#     Node 22, Type 0, BuildingBlock: KUMBOL_clean_sbu_0, # of connection points: 6
#     Node 23, Type 0, BuildingBlock: KUMBOL_clean_sbu_0, # of connection points: 6
#     Node 24, Type 0, BuildingBlock: KUMBOL_clean_sbu_0, # of connection points: 6
#     Node 25, Type 0, BuildingBlock: KUMBOL_clean_sbu_0, # of connection points: 6
#     Node 26, Type 0, BuildingBlock: KUMBOL_clean_sbu_0, # of connection points: 6
#     Node 27, Type 0, BuildingBlock: KUMBOL_clean_sbu_0, # of connection points: 6
#     Node 28, Type 0, BuildingBlock: KUMBOL_clean_sbu_0, # of connection points: 6
#     Node 29, Type 0, BuildingBlock: KUMBOL_clean_sbu_0, # of connection points: 6
#     Node 30, Type 0, BuildingBlock: KUMBOL_clean_sbu_0, # of connection points: 6
#     Node 31, Type 0, BuildingBlock: KUMBOL_clean_sbu_0, # of connection points: 6
#     Node 32, Type 0, BuildingBlock: KUMBOL_clean_sbu_0, # of connection points: 6
#     Node 33, Type 0, BuildingBlock: KUMBOL_clean_sbu_0, # of connection points: 6
#     Node 34, Type 0, BuildingBlock: KUMBOL_clean_sbu_0, # of connection points: 6
#     Node 35, Type 0, BuildingBlock: KUMBOL_clean_sbu_0, # of connection points: 6
#     Edge 36, Type (0, 0), None
#     Edge 37, Type (0, 0), None
#     Edge 38, Type (0, 0), None
#     Edge 39, Type (0, 0), None
#     Edge 40, Type (0, 0), None
#     Edge 41, Type (0, 0), None
#     Edge 42, Type (0, 0), None
#     Edge 43, Type (0, 0), None
#     Edge 44, Type (0, 0), None
#     Edge 45, Type (0, 0), None
#     Edge 46, Type (0, 0), None
#     Edge 47, Type (0, 0), None
#     Edge 48, Type (0, 0), None
#     Edge 49, Type (0, 0), None
#     Edge 50, Type (0, 0), None
#     Edge 51, Type (0, 0), None
#     Edge 52, Type (0, 0), None
#     Edge 53, Type (0, 0), None
#     Edge 54, Type (0, 0), None
#     Edge 55, Type (0, 0), None
#     Edge 56, Type (0, 0), None
#     Edge 57, Type (0, 0), None
#     Edge 58, Type (0, 0), None
#     Edge 59, Type (0, 0), None
#     Edge 60, Type (0, 0), None
#     Edge 61, Type (0, 0), None
#     Edge 62, Type (0, 0), None
#     Edge 63, Type (0, 0), None
#     Edge 64, Type (0, 0), None
#     Edge 65, Type (0, 0), None
#     Edge 66, Type (0, 0), None
#     Edge 67, Type (0, 0), None
#     Edge 68, Type (0, 0), None
#     Edge 69, Type (0, 0), None
#     Edge 70, Type (0, 0), None
#     Edge 71, Type (0, 0), None
#     Edge 72, Type (0, 0), None
#     Edge 73, Type (0, 0), None
#     Edge 74, Type (0, 0), None
#     Edge 75, Type (0, 0), None
#     Edge 76, Type (0, 0), None
#     Edge 77, Type (0, 0), None
#     Edge 78, Type (0, 0), None
#     Edge 79, Type (0, 0), None
#     Edge 80, Type (0, 0), None
#     Edge 81, Type (0, 0), None
#     Edge 82, Type (0, 0), None
#     Edge 83, Type (0, 0), None
#     Edge 84, Type (0, 0), None
#     Edge 85, Type (0, 0), None
#     Edge 86, Type (0, 0), None
#     Edge 87, Type (0, 0), None
#     Edge 88, Type (0, 0), None
#     Edge 89, Type (0, 0), None
#     Edge 90, Type (0, 0), None
#     Edge 91, Type (0, 0), None
#     Edge 92, Type (0, 0), None
#     Edge 93, Type (0, 0), None
#     Edge 94, Type (0, 0), None
#     Edge 95, Type (0, 0), None
#     Edge 96, Type (0, 0), None
#     Edge 97, Type (0, 0), None
#     Edge 98, Type (0, 0), None
#     Edge 99, Type (0, 0), None
#     Edge 100, Type (0, 0), None
#     Edge 101, Type (0, 0), None
#     Edge 102, Type (0, 0), None
#     Edge 103, Type (0, 0), None
#     Edge 104, Type (0, 0), None
#     Edge 105, Type (0, 0), None
#     Edge 106, Type (0, 0), None
#     Edge 107, Type (0, 0), None
#     Edge 108, Type (0, 0), None
#     Edge 109, Type (0, 0), None
#     Edge 110, Type (0, 0), None
#     Edge 111, Type (0, 0), None
#     Edge 112, Type (0, 0), None
#     Edge 113, Type (0, 0), None
#     Edge 114, Type (0, 0), None
#     Edge 115, Type (0, 0), None
#     Edge 116, Type (0, 0), None
#     Edge 117, Type (0, 0), None
#     Edge 118, Type (0, 0), None
#     Edge 119, Type (0, 0), None
#     Edge 120, Type (0, 0), None
#     Edge 121, Type (0, 0), None
#     Edge 122, Type (0, 0), None
#     Edge 123, Type (0, 0), None
#     Edge 124, Type (0, 0), None
#     Edge 125, Type (0, 0), None
#     Edge 126, Type (0, 0), None
#     Edge 127, Type (0, 0), None
#     Edge 128, Type (0, 0), None
#     Edge 129, Type (0, 0), None
#     Edge 130, Type (0, 0), None
#     Edge 131, Type (0, 0), None
#     Edge 132, Type (0, 0), None
#     Edge 133, Type (0, 0), None
#     Edge 134, Type (0, 0), None
#     Edge 135, Type (0, 0), None
#     Edge 136, Type (0, 0), None
#     Edge 137, Type (0, 0), None
#     Edge 138, Type (0, 0), None
#     Edge 139, Type (0, 0), None
#     Edge 140, Type (0, 0), None
#     Edge 141, Type (0, 0), None
#     Edge 142, Type (0, 0), None
#     Edge 143, Type (0, 0), None
# Relax obj value: 0.075
# Max RMSD: 0.230
# Mean RMSD: 0.230
data_MOF--net-wnd--node1-KUMBOL_clean_sbu_0--edge1-none
_symmetry_space_group_name_H-M    P1
_symmetry_Int_Tables_number       1
_symmetry_cell_setting            triclinic
loop_
_symmetry_equiv_pos_as_xyz
'x, y, z'
_cell_length_a     22.216513
_cell_length_b     22.216891
_cell_length_c     71.799149
_cell_angle_alpha  89.99963
_cell_angle_beta   90.000099
_cell_angle_gamma 120.00144
loop_
_atom_site_label
_atom_site_type_symbol
_atom_site_fract_x
_atom_site_fract_y
_atom_site_fract_z
_atom_type_partial_charge
Gd0 Gd 0.64349 0.08143 0.04012 0.0
Gd1 Gd 0.53438 0.14532 0.01773 0.0
C2 C 0.30365 0.06742 0.01381 0.0
C3 C 0.30364 0.13138 -0.01334 0.0
C4 C 0.40564 0.12332 -0.00531 0.0
C5 C 0.37367 0.08766 0.01046 0.0
C6 C 0.37382 0.15225 -0.01613 0.0
C7 C 0.26751 0.08627 0.00128 0.0
C8 C 0.27349 0.03307 0.03022 0.0
C9 C 0.31347 0.02151 0.04306 0.0
N10 N 0.41299 0.07858 0.02328 0.0
C11 C 0.38307 0.04424 0.03939 0.0
H12 H 0.41407 0.03879 0.05002 0.0
C13 C 0.50629 0.17766 0.9764 0.0
N14 N 0.4715 0.13782 -0.00873 0.0
C15 C 0.48086 0.21516 0.96737 0.0
C16 C 0.41536 0.20455 0.97147 0.0
H17 H 0.55845 0.18899 0.9734 0.0
H18 H 0.21383 0.07177 0.00379 0.0
H19 H 0.75915 0.13238 -0.00219 0.0
H20 H 0.22007 1.01705 0.03313 0.0
H21 H 0.2911 0.99652 0.05599 0.0
H22 H 0.27756 0.15095 0.97798 0.0
H23 H 0.64943 0.12107 0.09415 0.0
H24 H 0.99005 0.19018 0.0192 0.0
H25 H 0.90044 0.18965 -0.00782 0.0
H26 H 0.83898 0.03293 0.07384 0.0
H27 H 0.51176 0.2509 0.95699 0.0
H28 H 0.3958 0.23354 0.96405 0.0
H29 H 0.94179 0.12946 0.0512 0.0
H30 H 0.6651 0.95234 0.11358 0.0
N31 N 0.75745 0.08907 0.0284 0.0
C32 C 0.93694 0.17146 0.02296 0.0
C33 C 0.87974 0.16701 0.00549 0.0
C34 C 0.91079 0.13296 0.04536 0.0
C35 C 0.82654 0.09629 0.05093 0.0
C36 C 0.78983 0.12539 0.00823 0.0
N37 N 0.75202 0.14859 0.07763 0.0
C38 C 0.82107 0.12124 0.07129 0.0
C39 C 0.70054 0.99646 0.10492 0.0
C40 C 0.76462 0.98957 0.09532 0.0
C41 C 0.69047 0.10817 0.09273 0.0
C42 C 0.82056 0.04512 0.07825 0.0
H43 H 0.7707 0.9463 0.09914 0.0
O44 O 0.58002 0.96852 0.04604 0.0
O45 O 0.5291 0.06065 0.03626 0.0
O46 O 0.50513 0.15782 0.04352 0.0
O47 O 0.59536 0.14966 0.05842 0.0
O48 O 0.54415 0.98142 0.03289 0.0
O49 O 0.6408 0.99352 0.02214 0.0
O50 O 0.59421 0.23847 0.00347 0.0
O51 O 0.63957 0.1533 0.02155 0.0
O52 O 0.64195 0.10026 0.00524 0.0
O53 O 0.53261 0.07849 -0.0047 0.0
O54 O 0.63768 0.23986 0.02623 0.0
O55 O 0.51401 0.23207 0.02273 0.0
C56 C 0.49469 0.99564 0.03097 0.0
C57 C 0.86744 0.0249 0.06615 0.0
C58 C 0.91732 0.07443 0.05228 0.0
C59 C 0.59276 0.94043 0.03154 0.0
C60 C 0.58118 0.86122 0.03376 0.0
C61 C 0.53695 0.82541 0.0486 0.0
C62 C 0.61639 0.8228 0.02699 0.0
C63 C 0.61741 0.76629 0.03795 0.0
C64 C 0.55045 0.78505 0.06099 0.0
C65 C 0.59273 0.75869 0.0561 0.0
C66 C 0.5495 0.17731 0.0565 0.0
C67 C 0.67912 0.21605 0.02438 0.0
C68 C 0.56548 0.26966 0.01135 0.0
C69 C 0.58485 0.33718 0.00443 0.0
C70 C 0.60662 0.35396 -0.0142 0.0
C71 C 0.59809 0.38899 0.01726 0.0
C72 C 0.627 0.45656 0.0111 0.0
C73 C 0.63293 0.42112 0.97952 0.0
C74 C 0.6405 0.47157 -0.00806 0.0
C75 C 0.59272 0.0862 -0.00894 0.0
H76 H 0.50756 0.84554 0.0542 0.0
H77 H 0.63981 0.83217 0.01354 0.0
H78 H 0.5246 0.77146 0.07441 0.0
H79 H 0.59511 0.72169 0.06549 0.0
H80 H 0.607 0.31654 0.97632 0.0
H81 H 0.58987 0.37746 0.03204 0.0
H82 H 0.65038 0.43518 0.96531 0.0
H83 H 0.66037 0.52258 -0.01363 0.0
Gd84 Gd 0.11011 0.64323 0.04012 0.0
Gd85 Gd 0.04627 0.47024 0.01772 0.0
C86 C 0.12416 0.3174 0.01383 0.0
C87 C 0.06027 0.25345 -0.01333 0.0
C88 C 0.06834 0.36353 -0.00531 0.0
C89 C 0.10397 0.36721 0.01047 0.0
C90 C 0.03941 0.30277 -0.01612 0.0
C91 C 0.10534 0.26241 0.0013 0.0
C92 C 0.15843 0.32154 0.03026 0.0
C93 C 0.17 0.3731 0.04309 0.0
N94 N 0.11303 0.41561 0.02329 0.0
C95 C 0.14734 0.42002 0.03941 0.0
H96 H 0.15279 0.45648 0.05003 0.0
C97 C 1.01402 0.40984 0.97639 0.0
N98 N 0.05386 0.41489 -0.00874 0.0
C99 C 0.97649 0.34688 0.96737 0.0
C100 C 0.98711 0.292 0.97147 0.0
H101 H 1.00269 0.45066 0.97339 0.0
H102 H 0.11981 0.22322 0.00381 0.0
H103 H 0.05913 0.70791 -0.00219 0.0
H104 H 0.17439 0.2841 0.03319 0.0
H105 H 0.19496 0.3757 0.05603 0.0
H106 H 0.04071 0.20781 0.97799 0.0
H107 H 0.07044 0.60951 0.09415 0.0
H108 H 1.00133 0.88101 0.0192 0.0
H109 H 1.00187 0.79193 -0.00783 0.0
H110 H 0.1586 0.88721 0.07384 0.0
H111 H 0.9407 0.34201 0.957 0.0
H112 H 0.95812 0.24345 0.96406 0.0
H113 H 0.06208 0.8935 0.05119 0.0
H114 H 0.23919 0.79392 0.11358 0.0
N115 N 0.10245 0.74953 0.0284 0.0
C116 C 1.02006 0.84663 0.02296 0.0
C117 C 1.02451 0.79388 0.00549 0.0
C118 C 0.05857 0.85899 0.04536 0.0
C119 C 0.09524 0.81142 0.05093 0.0
C120 C 0.06613 0.74559 0.00823 0.0
N121 N 0.04294 0.68458 0.07763 0.0
C122 C 0.07029 0.78099 0.07129 0.0
C123 C 0.19507 0.78525 0.10492 0.0
C124 C 0.20196 0.85622 0.09532 0.0
C125 C 0.08336 0.66346 0.09273 0.0
C126 C 0.14642 0.85661 0.07825 0.0
H127 H 0.24524 0.90557 0.09914 0.0
O128 O 0.223 0.69266 0.04604 0.0
O129 O 0.13091 0.54965 0.03626 0.0
O130 O 0.03374 0.42846 0.04351 0.0
O131 O 0.04192 0.52685 0.05841 0.0
O132 O 0.21012 0.64393 0.03287 0.0
O133 O 0.19805 0.72846 0.02214 0.0
O134 O 0.95315 0.43691 0.00344 0.0
O135 O 0.03825 0.56742 0.02155 0.0
O136 O 0.09129 0.62289 0.00524 0.0
O137 O 0.11311 0.53535 -0.0047 0.0
O138 O 0.95171 0.47894 0.02622 0.0
O139 O 0.95953 0.3631 0.02271 0.0
C140 C 0.19592 0.58025 0.03097 0.0
C141 C 0.16664 0.9237 0.06615 0.0
C142 C 0.11711 0.92405 0.05227 0.0
C143 C 0.25112 0.73349 0.03155 0.0
C144 C 0.33033 0.80109 0.03378 0.0
C145 C 0.36612 0.79262 0.04862 0.0
C146 C 0.36875 0.87474 0.02703 0.0
C147 C 0.42527 0.93219 0.03801 0.0
C148 C 0.4065 0.84641 0.06102 0.0
C149 C 0.43287 0.91508 0.05615 0.0
C150 C 1.01429 0.45335 0.0565 0.0
C151 C 0.9755 0.54419 0.02437 0.0
C152 C 0.92196 0.37697 0.01132 0.0
C153 C 0.85444 0.32882 0.00439 0.0
C154 C 0.83764 0.3338 -0.01423 0.0
C155 C 0.80265 0.29026 0.01724 0.0
C156 C 0.73505 0.25166 0.01108 0.0
C157 C 0.77046 0.293 0.9795 0.0
C158 C 0.72001 0.25018 -0.00807 0.0
C159 C 0.10538 0.58774 -0.00894 0.0
H160 H 0.34598 0.74306 0.05419 0.0
H161 H 0.35935 0.88884 0.01359 0.0
H162 H 0.42014 0.83411 0.07442 0.0
H163 H 0.4699 0.95443 0.06554 0.0
H164 H 0.87506 0.3716 0.97629 0.0
H165 H 0.8142 0.29357 0.03201 0.0
H166 H 0.75639 0.29638 0.96529 0.0
H167 H 0.66896 0.21909 -0.01364 0.0
Gd168 Gd 0.54831 0.54816 0.04012 0.0
Gd169 Gd 0.72132 0.65714 0.01771 0.0
C170 C 0.87412 0.88787 0.0138 0.0
C171 C 0.93809 0.88792 -0.01336 0.0
C172 C 0.82804 0.78589 -0.00532 0.0
C173 C 0.82435 0.81785 0.01045 0.0
C174 C 0.88879 0.81774 -0.01615 0.0
C175 C 0.9291 0.92404 0.00127 0.0
C176 C 0.86994 0.91803 0.03021 0.0
C177 C 0.81842 0.87804 0.04306 0.0
N178 N 0.77597 0.77852 0.02327 0.0
C179 C 0.77156 0.80843 0.03939 0.0
H180 H 0.73513 0.77742 0.05002 0.0
C181 C 0.78174 0.68526 0.97637 0.0
N182 N 0.77669 0.72003 -0.00875 0.0
C183 C 0.84468 0.71071 0.96734 0.0
C184 C 0.89956 0.77622 0.97145 0.0
H185 H 0.74091 0.63311 0.97337 0.0
H186 H 0.96827 0.97772 0.00377 0.0
H187 H 0.48358 0.43245 -0.00219 0.0
H188 H 0.90733 0.97145 0.03313 0.0
H189 H 0.81579 0.9004 0.05599 0.0
H190 H 0.98373 0.91402 0.97796 0.0
H191 H 0.58205 0.54223 0.09415 0.0
H192 H 0.31061 0.20152 0.01922 0.0
H193 H 0.39962 0.29115 -0.00782 0.0
H194 H 0.30435 0.35253 0.07385 0.0
H195 H 0.84957 0.67982 0.95697 0.0
H196 H 0.94811 0.7958 0.96403 0.0
H197 H 0.29819 0.24974 0.05123 0.0
H198 H 0.39759 0.52642 0.11359 0.0
N199 N 0.44199 0.43415 0.0284 0.0
C200 C 0.34497 0.25464 0.02298 0.0
C201 C 0.39768 0.31185 0.0055 0.0
C202 C 0.33262 0.28078 0.04537 0.0
C203 C 0.38016 0.36504 0.05093 0.0
C204 C 0.44592 0.40176 0.00823 0.0
N205 N 0.50701 0.43964 0.07763 0.0
C206 C 0.41062 0.37055 0.07129 0.0
C207 C 0.40629 0.49099 0.10493 0.0
C208 C 0.33533 0.42689 0.09533 0.0
C209 C 0.52811 0.50117 0.09273 0.0
C210 C 0.33497 0.37099 0.07825 0.0
H211 H 0.28597 0.42078 0.09915 0.0
O212 O 0.49897 0.61168 0.04611 0.0
O213 O 0.64199 0.66252 0.03626 0.0
O214 O 0.76321 0.68641 0.04349 0.0
O215 O 0.66468 0.5964 0.05841 0.0
O216 O 0.54757 0.64737 0.03271 0.0
O217 O 0.46308 0.55104 0.02219 0.0
O218 O 0.7546 0.59731 0.00343 0.0
O219 O 0.62404 0.55199 0.02154 0.0
O220 O 0.56864 0.54965 0.00524 0.0
O221 O 0.65627 0.65897 -0.0047 0.0
O222 O 0.71257 0.55387 0.02626 0.0
O223 O 0.82842 0.67747 0.0227 0.0
C224 C 0.61131 0.6968 0.03094 0.0
C225 C 0.26786 0.32401 0.06617 0.0
C226 C 0.26753 0.27411 0.05231 0.0
C227 C 0.4581 0.59904 0.03163 0.0
C228 C 0.3905 0.61064 0.03387 0.0
C229 C 0.39881 0.6547 0.04876 0.0
C230 C 0.31693 0.57545 0.02707 0.0
C231 C 0.25935 0.57432 0.03803 0.0
C232 C 0.34486 0.64112 0.06112 0.0
C233 C 0.27625 0.59886 0.05619 0.0
C234 C 0.7382 0.64218 0.0565 0.0
C235 C 0.64732 0.51253 0.02438 0.0
C236 C 0.81454 0.62605 0.0113 0.0
C237 C 0.86268 0.60667 0.00438 0.0
C238 C 0.85771 0.58488 -0.01424 0.0
C239 C 0.90126 0.59346 0.01722 0.0
C240 C 0.93987 0.56449 0.01107 0.0
C241 C 0.89853 0.55853 0.97949 0.0
C242 C 0.94138 0.55094 -0.00808 0.0
C243 C 0.60383 0.59887 -0.00894 0.0
H244 H 0.44828 0.68397 0.0544 0.0
H245 H 0.303 0.55213 0.01361 0.0
H246 H 0.35701 0.66694 0.07454 0.0
H247 H 0.2368 0.59643 0.06556 0.0
H248 H 0.81992 0.58451 0.97627 0.0
H249 H 0.89795 0.60173 0.03199 0.0
H250 H 0.89517 0.54109 0.96528 0.0
H251 H 0.9725 0.53103 -0.01365 0.0
Gd252 Gd 0.09119 0.63376 0.42078 0.0
Gd253 Gd 0.15504 0.5246 0.44317 0.0
C254 C 0.07714 0.29387 0.44707 0.0
C255 C 0.14105 0.29383 0.47423 0.0
C256 C 0.13299 0.39584 0.4662 0.0
C257 C 0.09735 0.36388 0.45043 0.0
C258 C 0.16191 0.36401 0.47702 0.0
C259 C 0.09596 0.25772 0.45961 0.0
C260 C 0.04284 0.26373 0.43065 0.0
C261 C 0.03127 0.30372 0.41781 0.0
N262 N 0.08828 0.40321 0.43761 0.0
C263 C 0.05396 0.37331 0.4215 0.0
H264 H 0.04851 0.40432 0.41087 0.0
C265 C 0.18732 0.49648 0.4845 0.0
N266 N 0.14748 0.46169 0.46963 0.0
C267 C 0.22483 0.47105 0.49353 0.0
C268 C 0.21422 0.40555 0.48942 0.0
H269 H 0.19865 0.54863 0.4875 0.0
H270 H 0.08147 0.20404 0.45709 0.0
H271 H 0.14217 0.7494 0.4631 0.0
H272 H 1.02685 0.21032 0.42773 0.0
H273 H 1.0063 0.28136 0.40488 0.0
H274 H 0.16061 0.26775 0.48291 0.0
H275 H 0.13084 0.63972 0.36675 0.0
H276 H 0.19997 0.9803 0.44171 0.0
H277 H 0.19944 0.89068 0.46873 0.0
H278 H 0.04269 0.82924 0.38707 0.0
H279 H 0.26059 0.50195 0.5039 0.0
H280 H 0.2432 0.38599 0.49684 0.0
H281 H 0.1392 0.93205 0.40972 0.0
H282 H 0.96209 0.65539 0.34733 0.0
N283 N 0.09885 0.74771 0.43251 0.0
C284 C 0.18124 0.9272 0.43795 0.0
C285 C 0.17679 0.86999 0.45541 0.0
C286 C 0.14273 0.90106 0.41555 0.0
C287 C 0.10606 0.81682 0.40998 0.0
C288 C 0.13517 0.78008 0.45267 0.0
N289 N 0.15836 0.7423 0.38327 0.0
C290 C 0.13101 0.81134 0.38961 0.0
C291 C 1.00621 0.69083 0.35599 0.0
C292 C 0.99932 0.7549 0.36558 0.0
C293 C 0.11793 0.68075 0.36818 0.0
C294 C 0.05488 0.81084 0.38266 0.0
H295 H 0.95605 0.76098 0.36177 0.0
O296 O 0.97828 0.57031 0.41487 0.0
O297 O 0.0704 0.51938 0.42464 0.0
O298 O 0.16753 0.49537 0.41738 0.0
O299 O 0.15943 0.58563 0.40249 0.0
O300 O 0.99117 0.53443 0.428 0.0
O301 O 1.0033 0.63109 0.43877 0.0
O302 O 0.24818 0.58441 0.45744 0.0
O303 O 0.16305 0.62981 0.43935 0.0
O304 O 0.11001 0.63222 0.45566 0.0
O305 O 0.08821 0.52287 0.4656 0.0
O306 O 0.2496 0.62789 0.43468 0.0
O307 O 0.24178 0.50421 0.43817 0.0
C308 C 1.00538 0.48496 0.42992 0.0
C309 C 0.03464 0.85768 0.39476 0.0
C310 C 0.08417 0.90755 0.40864 0.0
C311 C 0.9502 0.58305 0.42937 0.0
C312 C 0.87098 0.57146 0.42715 0.0
C313 C 0.83516 0.52719 0.41232 0.0
C314 C 0.83257 0.6067 0.4339 0.0
C315 C 0.77605 0.60768 0.42294 0.0
C316 C 0.7948 0.54063 0.39992 0.0
C317 C 0.76845 0.58294 0.4048 0.0
C318 C 0.18706 0.53975 0.4044 0.0
C319 C 0.2258 0.66935 0.43653 0.0
C320 C 0.27937 0.55568 0.44956 0.0
C321 C 0.34689 0.57504 0.45648 0.0
C322 C 0.36367 0.5968 0.47511 0.0
C323 C 0.3987 0.5883 0.44364 0.0
C324 C 0.46628 0.61724 0.44981 0.0
C325 C 0.43083 0.62315 0.48138 0.0
C326 C 0.48129 0.63075 0.46896 0.0
C327 C 0.09593 0.58299 0.46984 0.0
H328 H 0.85528 0.49775 0.40674 0.0
H329 H 0.84196 0.63017 0.44735 0.0
H330 H 0.78118 0.51472 0.38651 0.0
H331 H 0.73144 0.58527 0.3954 0.0
H332 H 0.32624 0.59718 0.48459 0.0
H333 H 0.38717 0.58009 0.42887 0.0
H334 H 0.44489 0.64058 0.49559 0.0
H335 H 0.53231 0.65066 0.47453 0.0
Gd336 Gd 0.55788 0.53855 0.42078 0.0
Gd337 Gd 0.66687 0.71157 0.44318 0.0
C338 C 0.89761 0.86437 0.44711 0.0
C339 C 0.89764 0.92834 0.47426 0.0
C340 C 0.79561 0.8183 0.46622 0.0
C341 C 0.82758 0.8146 0.45045 0.0
C342 C 0.82746 0.87904 0.47704 0.0
C343 C 0.93377 0.91935 0.45964 0.0
C344 C 0.92778 0.86017 0.4307 0.0
C345 C 0.88779 0.80866 0.41785 0.0
N346 N 0.78825 0.76622 0.43763 0.0
C347 C 0.81817 0.76182 0.42151 0.0
H348 H 0.78717 0.72539 0.41088 0.0
C349 C 0.69497 0.77199 0.48452 0.0
N350 N 0.72975 0.76695 0.46964 0.0
C351 C 0.72042 0.83494 0.49355 0.0
C352 C 0.78594 0.88982 0.48945 0.0
H353 H 0.64282 0.73117 0.48752 0.0
H354 H 0.98745 0.95851 0.45713 0.0
H355 H 0.44218 0.47384 0.4631 0.0
H356 H 0.98121 0.89754 0.42779 0.0
H357 H 0.91016 0.80603 0.40492 0.0
H358 H 0.92374 0.97398 0.48294 0.0
H359 H 0.55197 0.57227 0.36675 0.0
H360 H 0.21125 0.30086 0.44169 0.0
H361 H 0.30088 0.38988 0.46872 0.0
H362 H 0.36227 0.29459 0.38706 0.0
H363 H 0.68954 0.83981 0.50393 0.0
H364 H 0.80551 0.93836 0.49687 0.0
H365 H 0.25948 0.28842 0.40968 0.0
H366 H 0.53616 0.38781 0.34732 0.0
N367 N 0.44388 0.43224 0.43251 0.0
C368 C 0.26437 0.33522 0.43793 0.0
C369 C 0.32158 0.38794 0.4554 0.0
C370 C 0.29051 0.32287 0.41553 0.0
C371 C 0.37477 0.3704 0.40997 0.0
C372 C 0.41149 0.43618 0.45267 0.0
N373 N 0.44937 0.49724 0.38327 0.0
C374 C 0.38028 0.40085 0.38961 0.0
C375 C 0.50074 0.39651 0.35598 0.0
C376 C 0.43664 0.32556 0.36558 0.0
C377 C 0.5109 0.51833 0.36818 0.0
C378 C 0.38072 0.3252 0.38265 0.0
H379 H 0.43053 0.2762 0.36176 0.0
O380 O 0.62138 0.48916 0.41482 0.0
O381 O 0.67225 0.63224 0.42464 0.0
O382 O 0.69613 0.75341 0.4174 0.0
O383 O 0.60607 0.65492 0.40249 0.0
O384 O 0.65712 0.53782 0.42815 0.0
O385 O 0.56069 0.45333 0.43873 0.0
O386 O 0.60704 0.74486 0.45746 0.0
O387 O 0.56172 0.61429 0.43936 0.0
O388 O 0.55938 0.55891 0.45566 0.0
O389 O 0.66869 0.64653 0.4656 0.0
O390 O 0.56358 0.70282 0.43464 0.0
O391 O 0.68721 0.81868 0.43818 0.0
C392 C 0.70654 0.60155 0.42995 0.0
C393 C 0.33377 0.2581 0.39474 0.0
C394 C 0.28387 0.25778 0.40861 0.0
C395 C 0.6087 0.44832 0.42931 0.0
C396 C 0.62028 0.38069 0.42708 0.0
C397 C 0.66438 0.38901 0.41221 0.0
C398 C 0.58508 0.3071 0.43387 0.0
C399 C 0.58393 0.24949 0.42292 0.0
C400 C 0.6508 0.33507 0.39984 0.0
C401 C 0.60852 0.26646 0.40477 0.0
C402 C 0.65186 0.72844 0.4044 0.0
C403 C 0.52225 0.63756 0.43652 0.0
C404 C 0.63576 0.80478 0.44958 0.0
C405 C 0.61637 0.85293 0.4565 0.0
C406 C 0.59461 0.84796 0.47512 0.0
C407 C 0.60316 0.89151 0.44366 0.0
C408 C 0.57423 0.93016 0.44982 0.0
C409 C 0.56829 0.8888 0.48139 0.0
C410 C 0.56073 0.93167 0.46897 0.0
C411 C 0.6086 0.5941 0.46984 0.0
H412 H 0.69371 0.43849 0.40658 0.0
H413 H 0.56174 0.29316 0.44734 0.0
H414 H 0.6766 0.34723 0.38642 0.0
H415 H 0.60609 0.22703 0.39538 0.0
H416 H 0.59424 0.81016 0.4846 0.0
H417 H 0.61139 0.8882 0.42889 0.0
H418 H 0.55084 0.88543 0.4956 0.0
H419 H 0.54086 0.96282 0.47455 0.0
Gd420 Gd 0.65299 0.10046 0.42079 0.0
Gd421 Gd 0.47997 0.03647 0.44319 0.0
C422 C 0.32716 0.1144 0.44708 0.0
C423 C 0.26321 0.05052 0.47425 0.0
C424 C 0.37327 0.05855 0.46622 0.0
C425 C 0.37695 0.09417 0.45044 0.0
C426 C 0.31251 0.02964 0.47704 0.0
C427 C 0.27219 0.0956 0.45962 0.0
C428 C 0.33132 0.14869 0.43066 0.0
C429 C 0.38286 0.16023 0.41782 0.0
N430 N 0.42534 0.10322 0.43762 0.0
C431 C 0.42974 0.13752 0.4215 0.0
H432 H 0.46618 0.14294 0.41087 0.0
C433 C 0.41956 1.00422 0.48452 0.0
N434 N 0.42462 0.04404 0.46965 0.0
C435 C 0.3566 0.9667 0.49355 0.0
C436 C 0.30173 0.97734 0.48944 0.0
H437 H 0.46038 0.99289 0.48753 0.0
H438 H 0.23301 0.1101 0.45711 0.0
H439 H 0.71767 0.04944 0.4631 0.0
H440 H 0.29391 0.16469 0.42774 0.0
H441 H 0.38547 0.18521 0.40489 0.0
H442 H 0.21757 0.03098 0.48293 0.0
H443 H 0.61927 0.0608 0.36675 0.0
H444 H 0.89066 0.9915 0.44169 0.0
H445 H 0.80164 0.99211 0.46873 0.0
H446 H 0.89696 0.1488 0.38706 0.0
H447 H 0.35171 0.93091 0.50392 0.0
H448 H 0.25318 0.94837 0.49686 0.0
H449 H 0.90313 0.05219 0.40969 0.0
H450 H 0.80373 0.22947 0.34733 0.0
N451 N 0.75929 0.09275 0.43251 0.0
C452 C 0.85631 1.01026 0.43794 0.0
C453 C 0.80359 1.01475 0.45541 0.0
C454 C 0.86867 0.04877 0.41554 0.0
C455 C 0.82114 0.08549 0.40998 0.0
C456 C 0.75534 0.05642 0.45268 0.0
N457 N 0.6943 0.03324 0.38328 0.0
C458 C 0.79069 0.06055 0.38961 0.0
C459 C 0.79503 0.18534 0.35598 0.0
C460 C 0.86599 0.1922 0.36558 0.0
C461 C 0.67321 0.07368 0.36818 0.0
C462 C 0.86634 0.13664 0.38266 0.0
H463 H 0.91535 0.23545 0.36177 0.0
O464 O 0.70237 0.21332 0.41481 0.0
O465 O 0.55932 0.12115 0.42464 0.0
O466 O 0.43811 0.02387 0.41741 0.0
O467 O 0.53662 0.03232 0.4025 0.0
O468 O 0.65375 0.20042 0.42817 0.0
O469 O 0.73822 0.18852 0.43873 0.0
O470 O 0.44667 0.94337 0.45748 0.0
O471 O 0.57724 0.02857 0.43937 0.0
O472 O 0.63265 0.0816 0.45567 0.0
O473 O 0.54506 0.10334 0.46561 0.0
O474 O 0.48868 0.94192 0.43466 0.0
O475 O 0.37286 0.94971 0.4382 0.0
C476 C 0.59002 0.18612 0.42995 0.0
C477 C 0.93344 0.15679 0.39475 0.0
C478 C 0.93376 0.10722 0.40862 0.0
C479 C 0.74322 0.24152 0.4293 0.0
C480 C 0.81081 0.32072 0.42706 0.0
C481 C 0.80244 0.35649 0.41219 0.0
C482 C 0.88442 0.3591 0.43384 0.0
C483 C 0.94195 0.41558 0.42287 0.0
C484 C 0.85632 0.39687 0.39981 0.0
C485 C 0.92496 0.42321 0.40472 0.0
C486 C 0.4631 1.0046 0.4044 0.0
C487 C 0.55393 0.96582 0.43653 0.0
C488 C 0.38673 0.91217 0.44961 0.0
C489 C 0.33858 0.84464 0.45652 0.0
C490 C 0.34354 0.82783 0.47515 0.0
C491 C 0.30003 0.79286 0.44368 0.0
C492 C 0.26142 0.72527 0.44983 0.0
C493 C 0.30274 0.76065 0.48141 0.0
C494 C 0.25992 0.71021 0.46898 0.0
C495 C 0.59748 0.09566 0.46984 0.0
H496 H 0.75294 0.33631 0.40658 0.0
H497 H 0.89841 0.3497 0.44729 0.0
H498 H 0.84412 0.41054 0.3864 0.0
H499 H 0.96437 0.46024 0.39534 0.0
H500 H 0.38133 0.86525 0.48463 0.0
H501 H 0.30334 0.80443 0.42891 0.0
H502 H 0.30609 0.74657 0.49562 0.0
H503 H 0.22882 0.65916 0.47455 0.0
Gd504 Gd 0.66693 0.03658 0.94317 0.0
Gd505 Gd 0.55781 0.10047 0.92078 0.0
C506 C 0.29051 0.04893 0.91554 0.0
C507 C 0.33384 0.15697 0.89475 0.0
C508 C 0.38021 0.06063 0.88961 0.0
C509 C 0.3748 0.08566 0.90998 0.0
C510 C 0.38069 0.13674 0.88265 0.0
C511 C 0.28408 0.10753 0.90866 0.0
C512 C 0.26438 1.0105 0.93793 0.0
C513 C 0.32157 1.01493 0.9554 0.0
N514 N 0.44389 0.09287 0.93251 0.0
C515 C 0.41149 0.05655 0.95267 0.0
H516 H 0.44213 0.0495 0.9631 0.0
C517 C 0.51079 0.07371 0.86818 0.0
N518 N 0.44925 0.03329 0.88327 0.0
C519 C 0.50073 0.18543 0.85598 0.0
C520 C 0.43663 0.19231 0.86557 0.0
H521 H 0.55195 0.06094 0.8668 0.0
H522 H 0.25965 0.05241 0.90958 0.0
H523 H 0.78724 0.14313 0.91088 0.0
H524 H 0.21123 0.99163 0.94166 0.0
H525 H 0.30085 0.99224 0.96871 0.0
H526 H 0.36226 0.14892 0.88705 0.0
H527 H 0.64287 0.99292 -0.0125 0.0
H528 H 0.98121 0.16478 0.92776 0.0
H529 H 0.9102 0.18534 0.9049 0.0
H530 H 0.92374 0.03093 -0.01708 0.0
H531 H 0.5362 0.22957 0.84733 0.0
H532 H 0.43055 0.23558 0.86176 0.0
H533 H 0.98747 0.1101 0.95711 0.0
H534 H 0.68956 0.93102 0.00391 0.0
N535 N 0.78832 0.10333 0.93762 0.0
C536 C 0.9278 0.14879 0.93067 0.0
C537 C 0.88784 0.16036 0.91783 0.0
C538 C 0.89765 0.11446 0.94709 0.0
C539 C 0.82764 0.09424 0.95044 0.0
C540 C 0.81824 0.13767 0.92151 0.0
N541 N 0.72981 0.04409 0.96963 0.0
C542 C 0.79567 0.05858 0.96621 0.0
C543 C 0.72046 0.96676 -0.00646 0.0
C544 C 0.78595 0.97735 -0.01057 0.0
C545 C 0.69503 1.00426 -0.0155 0.0
C546 C 0.82749 0.02965 0.97703 0.0
H547 H 0.8055 0.94837 -0.00315 0.0
O548 O 0.60715 0.94344 0.95743 0.0
O549 O 0.56166 0.02853 0.93935 0.0
O550 O 0.55928 0.08154 0.95566 0.0
O551 O 0.66865 0.10336 0.9656 0.0
O552 O 0.56368 0.942 0.93468 0.0
O553 O 0.68732 0.94983 0.93816 0.0
O554 O 0.62136 0.21338 0.91489 0.0
O555 O 0.67213 0.12123 0.92464 0.0
O556 O 0.69619 0.02411 0.91738 0.0
O557 O 0.60595 0.03223 0.90249 0.0
O558 O 0.65716 0.20039 0.92812 0.0
O559 O 0.5605 0.18839 0.93876 0.0
C560 C 0.5222 0.96576 0.93653 0.0
C561 C 0.89766 0.0505 0.97424 0.0
C562 C 0.93379 0.0956 0.95962 0.0
C563 C 0.63586 0.91225 0.94955 0.0
C564 C 0.61649 0.84473 0.95648 0.0
C565 C 0.59473 0.82796 0.9751 0.0
C566 C 0.60321 0.7929 0.94364 0.0
C567 C 0.57419 0.72531 0.94981 0.0
C568 C 0.56835 0.7608 -0.01862 0.0
C569 C 0.5607 0.71032 0.96896 0.0
C570 C 0.60851 0.0956 0.96984 0.0
C571 C 0.70665 0.18619 0.92998 0.0
C572 C 0.60858 0.24148 0.92937 0.0
C573 C 0.62014 0.32068 0.92713 0.0
C574 C 0.66431 0.35646 0.91227 0.0
C575 C 0.58496 0.35911 0.93392 0.0
C576 C 0.58391 0.41562 0.92297 0.0
C577 C 0.65082 0.39687 0.89991 0.0
C578 C 0.60859 0.42327 0.90482 0.0
C579 C 0.65181 1.00458 0.9044 0.0
H580 H 0.59437 0.8654 -0.01542 0.0
H581 H 0.61145 0.80442 0.92887 0.0
H582 H 0.55091 0.74676 -0.00441 0.0
H583 H 0.5408 0.65931 0.97454 0.0
H584 H 0.69367 0.3363 0.90666 0.0
H585 H 0.56157 0.34973 0.94737 0.0
H586 H 0.67663 0.41047 0.88648 0.0
H587 H 0.6062 0.46029 0.89544 0.0
Gd588 Gd 0.155 0.71163 0.94317 0.0
Gd589 Gd 0.09117 0.53863 0.92078 0.0
C590 C 0.14275 0.3229 0.91554 0.0
C591 C 0.03469 0.25816 0.89476 0.0
C592 C 0.13102 0.40087 0.88961 0.0
C593 C 0.106 0.37044 0.90998 0.0
C594 C 0.05491 0.32523 0.88266 0.0
C595 C 0.08414 0.25786 0.90867 0.0
C596 C 0.1812 0.33523 0.93793 0.0
C597 C 0.17676 0.38799 0.9554 0.0
N598 N 0.0988 0.43233 0.93251 0.0
C599 C 0.13513 0.43627 0.95267 0.0
H600 H 0.14219 0.47398 0.96309 0.0
C601 C 0.11792 0.51835 0.86817 0.0
N602 N 0.15834 0.49725 0.88327 0.0
C603 C 1.0062 0.39655 0.85598 0.0
C604 C 0.99934 0.32558 0.86558 0.0
H605 H 0.13068 0.57227 0.86679 0.0
H606 H 0.13926 0.28855 0.90959 0.0
H607 H 0.04845 0.72537 0.91087 0.0
H608 H 0.20009 0.30096 0.94167 0.0
H609 H 0.19947 0.38998 0.96871 0.0
H610 H 0.04274 0.29462 0.88706 0.0
H611 H 0.19858 0.73121 -0.01249 0.0
H612 H 1.02695 0.89782 0.92771 0.0
H613 H 1.00634 0.8062 0.90487 0.0
H614 H 0.16061 0.97409 -0.0171 0.0
H615 H 0.96205 0.38786 0.84733 0.0
H616 H 0.95606 0.27622 0.86177 0.0
H617 H 0.08151 0.95868 0.95708 0.0
H618 H 0.26056 0.83984 0.0039 0.0
N619 N 0.08823 0.76625 0.93761 0.0
C620 C 0.04288 0.86036 0.93064 0.0
C621 C 0.03129 0.80879 0.9178 0.0
C622 C 0.07714 0.86449 0.94707 0.0
C623 C 0.09731 0.81467 0.95043 0.0
C624 C 0.05392 0.76185 0.9215 0.0
N625 N 0.14742 0.76697 0.96963 0.0
C626 C 0.13294 0.81834 0.96621 0.0
C627 C 0.22478 0.83497 -0.00647 0.0
C628 C 0.21418 0.88987 -0.01057 0.0
C629 C 0.18724 0.77203 -0.0155 0.0
C630 C 0.16188 0.87911 0.97702 0.0
H631 H 0.24317 0.93841 -0.00316 0.0
O632 O 0.24812 0.74501 0.95745 0.0
O633 O 0.16309 0.61443 0.93935 0.0
O634 O 0.11007 0.55899 0.95566 0.0
O635 O 0.08821 0.64652 0.9656 0.0
O636 O 0.24961 0.70302 0.93469 0.0
O637 O 0.24173 0.81879 0.93817 0.0
O638 O 0.97828 0.48929 0.91487 0.0
O639 O 0.07038 0.63217 0.92464 0.0
O640 O 0.16748 0.75338 0.91738 0.0
O641 O 0.15937 0.65501 0.90249 0.0
O642 O 0.99124 0.53803 0.92814 0.0
O643 O 1.0032 0.45339 0.93875 0.0
C644 C 0.22587 0.63778 0.93654 0.0
C645 C 0.14105 0.92844 0.97422 0.0
C646 C 0.09598 0.91948 0.9596 0.0
C647 C 0.27931 0.80493 0.94957 0.0
C648 C 0.34683 0.85309 0.9565 0.0
C649 C 0.36361 0.84808 0.97512 0.0
C650 C 0.39865 0.89162 0.94366 0.0
C651 C 0.46625 0.93013 0.94982 0.0
C652 C 0.43078 0.88882 -0.0186 0.0
C653 C 0.48127 0.9316 0.96897 0.0
C654 C 0.09599 0.59415 0.96984 0.0
C655 C 1.00543 0.60172 0.92998 0.0
C656 C 0.95014 0.44841 0.92935 0.0
C657 C 0.87094 0.38081 0.92711 0.0
C658 C 0.83518 0.38924 0.91224 0.0
C659 C 0.83252 0.30718 0.93387 0.0
C660 C 0.77598 0.24969 0.92291 0.0
C661 C 0.79474 0.33538 0.89987 0.0
C662 C 0.76832 0.26672 0.90477 0.0
C663 C 0.18699 0.72851 0.9044 0.0
H664 H 0.32617 0.81029 -0.0154 0.0
H665 H 0.38711 0.88835 0.92889 0.0
H666 H 0.44482 0.88542 -0.00439 0.0
H667 H 0.53231 0.96266 0.97454 0.0
H668 H 0.85537 0.43876 0.90664 0.0
H669 H 0.84192 0.29314 0.94732 0.0
H670 H 0.78109 0.34763 0.88646 0.0
H671 H 0.73127 0.22734 0.89538 0.0
Gd672 Gd 0.47998 0.52473 0.94318 0.0
Gd673 Gd 0.653 0.63371 0.92079 0.0
C674 C 0.86866 0.90109 0.91553 0.0
C675 C 0.93344 0.85789 0.89474 0.0
C676 C 0.79069 0.81136 0.88962 0.0
C677 C 0.82115 0.81679 0.90997 0.0
C678 C 0.86635 0.81094 0.88265 0.0
C679 C 0.93373 0.90767 0.90864 0.0
C680 C 0.85635 0.92722 0.93792 0.0
C681 C 0.80364 0.87002 0.9554 0.0
N682 N 0.75931 0.7477 0.93251 0.0
C683 C 0.75539 0.78009 0.95267 0.0
H684 H 0.71771 0.74944 0.9631 0.0
C685 C 0.67324 0.68075 0.86818 0.0
N686 N 0.69432 0.74226 0.88327 0.0
C687 C 0.79507 0.69092 0.85598 0.0
C688 C 0.86602 0.75504 0.86557 0.0
H689 H 0.61932 0.63956 0.8668 0.0
H690 H 0.90293 0.932 0.90955 0.0
H691 H 0.46618 0.40445 0.91089 0.0
H692 H 0.8906 0.98038 0.94165 0.0
H693 H 0.80166 0.89074 0.96871 0.0
H694 H 0.89698 0.82942 0.88705 0.0
H695 H 0.46039 0.54875 -0.01247 0.0
H696 H 0.29392 0.21044 0.92777 0.0
H697 H 0.38547 0.28148 0.90491 0.0
H698 H 0.21756 0.26786 -0.01706 0.0
H699 H 0.80376 0.65547 0.84733 0.0
H700 H 0.91539 0.76115 0.86176 0.0
H701 H 0.233 0.20417 0.95712 0.0
H702 H 0.35175 0.50204 0.00394 0.0
N703 N 0.42534 0.40335 0.93763 0.0
C704 C 0.33133 0.26386 0.93068 0.0
C705 C 0.38286 0.30384 0.91784 0.0
C706 C 0.32717 0.294 0.9471 0.0
C707 C 0.37695 0.36402 0.95045 0.0
C708 C 0.42974 0.37344 0.92151 0.0
N709 N 0.42462 0.46184 0.96965 0.0
C710 C 0.37326 0.39598 0.96623 0.0
C711 C 0.35663 0.47115 -0.00644 0.0
C712 C 0.30174 0.40565 -0.01054 0.0
C713 C 0.41957 0.4966 -0.01547 0.0
C714 C 0.31251 0.36413 0.97705 0.0
H715 H 0.2532 0.38608 -0.00313 0.0
O716 O 0.44666 0.5845 0.95748 0.0
O717 O 0.57728 0.62996 0.93936 0.0
O718 O 0.63263 0.63229 0.95566 0.0
O719 O 0.54503 0.52296 0.96561 0.0
O720 O 0.48863 0.62795 0.93466 0.0
O721 O 0.37286 0.50437 0.93819 0.0
O722 O 0.70226 0.57012 0.91481 0.0
O723 O 0.55936 0.51942 0.92464 0.0
O724 O 0.4381 0.49545 0.91741 0.0
O725 O 0.53662 0.58547 0.90249 0.0
O726 O 0.65363 0.53449 0.9283 0.0
O727 O 0.73824 0.63084 0.93871 0.0
C728 C 0.55388 0.66932 0.93653 0.0
C729 C 0.2632 0.29396 0.97426 0.0
C730 C 0.27218 0.25785 0.95963 0.0
C731 C 0.38673 0.55578 0.9496 0.0
C732 C 0.33858 0.57516 0.95652 0.0
C733 C 0.34357 0.59694 0.97514 0.0
C734 C 0.30003 0.58841 0.94368 0.0
C735 C 0.2615 0.61748 0.94983 0.0
C736 C 0.3028 0.62335 -0.01859 0.0
C737 C 0.26001 0.63103 0.96898 0.0
C738 C 0.59744 0.58307 0.96984 0.0
C739 C 0.58988 0.48503 0.93001 0.0
C740 C 0.74318 0.5828 0.92929 0.0
C741 C 0.81078 0.57121 0.92703 0.0
C742 C 0.80249 0.5272 0.91213 0.0
C743 C 0.88433 0.60638 0.93384 0.0
C744 C 0.94194 0.60751 0.9229 0.0
C745 C 0.85648 0.54077 0.89978 0.0
C746 C 0.92508 0.58297 0.90474 0.0
C747 C 0.46309 0.53969 0.9044 0.0
H748 H 0.38134 0.59728 -0.01537 0.0
H749 H 0.30331 0.58012 0.92891 0.0
H750 H 0.30617 0.64079 -0.00438 0.0
H751 H 0.22892 0.65097 0.97455 0.0
H752 H 0.75304 0.49799 0.90647 0.0
H753 H 0.89824 0.62967 0.94731 0.0
H754 H 0.84436 0.51499 0.88636 0.0
H755 H 0.96456 0.58541 0.89537 0.0
Gd756 Gd 0.04632 0.65725 0.51773 0.0
Gd757 Gd 0.11016 0.54808 0.54012 0.0
C758 C 0.05862 0.28079 0.54536 0.0
C759 C 0.16669 0.32415 0.56614 0.0
C760 C 0.07032 0.37048 0.57129 0.0
C761 C 0.09535 0.36508 0.55092 0.0
C762 C 0.14644 0.37097 0.57825 0.0
C763 C 0.11725 0.2744 0.55223 0.0
C764 C 1.02018 0.25467 0.52297 0.0
C765 C 1.02461 0.31185 0.5055 0.0
N766 N 0.10255 0.43416 0.5284 0.0
C767 C 0.06623 0.40177 0.50823 0.0
H768 H 0.05917 0.43242 0.49781 0.0
C769 C 0.08341 0.50106 0.59273 0.0
N770 N 0.04299 0.43953 0.57763 0.0
C771 C 0.19514 0.49101 0.60492 0.0
C772 C 0.20201 0.42691 0.59533 0.0
H773 H 0.07063 0.54222 0.5941 0.0
H774 H 0.06213 0.24994 0.55131 0.0
H775 H 0.15286 0.77754 0.55003 0.0
H776 H 1.00131 0.20152 0.51923 0.0
H777 H 1.00191 0.29114 0.49219 0.0
H778 H 0.15862 0.35255 0.57385 0.0
H779 H 1.00271 0.63323 0.47341 0.0
H780 H 0.17444 0.9715 0.53318 0.0
H781 H 0.19502 0.90049 0.55603 0.0
H782 H 0.04072 0.91409 0.478 0.0
H783 H 0.23928 0.52648 0.61357 0.0
H784 H 0.24529 0.42083 0.59914 0.0
H785 H 0.11984 0.97779 0.50382 0.0
H786 H 0.94078 0.6799 0.457 0.0
N787 N 0.11309 0.77864 0.52329 0.0
C788 C 0.15848 0.9181 0.53026 0.0
C789 C 0.17007 0.87813 0.5431 0.0
C790 C 0.1242 0.88797 0.51383 0.0
C791 C 0.10401 0.81797 0.51048 0.0
C792 C 0.14741 0.80855 0.53941 0.0
N793 N 0.05389 0.72016 0.49128 0.0
C794 C 0.06838 0.78601 0.4947 0.0
C795 C 0.97654 0.71081 0.46737 0.0
C796 C 0.98714 0.7763 0.47148 0.0
C797 C 1.01406 0.68539 0.47641 0.0
C798 C 0.03944 0.81784 0.48388 0.0
H799 H 0.95815 0.79585 0.46406 0.0
O800 O 0.95319 0.59749 0.50347 0.0
O801 O 0.03824 0.55196 0.52155 0.0
O802 O 0.09124 0.54955 0.50524 0.0
O803 O 0.11309 0.65893 0.4953 0.0
O804 O 0.95171 0.55401 0.52621 0.0
O805 O 0.95959 0.67766 0.52275 0.0
O806 O 0.22308 0.61161 0.546 0.0
O807 O 0.13095 0.66241 0.53627 0.0
O808 O 0.03385 0.6865 0.54353 0.0
O809 O 0.04193 0.59622 0.55841 0.0
O810 O 0.2101 0.64743 0.53279 0.0
O811 O 0.19805 0.55073 0.52213 0.0
C812 C 0.97546 0.51252 0.52437 0.0
C813 C 0.06029 0.88801 0.48668 0.0
C814 C 0.10536 0.92412 0.5013 0.0
C815 C 0.922 0.62621 0.51135 0.0
C816 C 0.85447 0.60685 0.50443 0.0
C817 C 0.83771 0.58508 0.4858 0.0
C818 C 0.80264 0.59354 0.51726 0.0
C819 C 0.73505 0.5645 0.51109 0.0
C820 C 0.77055 0.55868 0.47952 0.0
C821 C 0.72006 0.55099 0.49194 0.0
C822 C 0.10532 0.59878 0.49106 0.0
C823 C 0.1959 0.69692 0.53094 0.0
C824 C 0.25116 0.59882 0.53152 0.0
C825 C 0.33036 0.61039 0.53375 0.0
C826 C 0.36616 0.65462 0.5486 0.0
C827 C 0.36879 0.57518 0.52699 0.0
C828 C 0.42532 0.57419 0.53794 0.0
C829 C 0.40658 0.64119 0.56098 0.0
C830 C 0.43297 0.59893 0.55608 0.0
C831 C 1.0143 0.6421 0.5565 0.0
H832 H 0.87515 0.58474 0.47632 0.0
H833 H 0.81416 0.60178 0.53203 0.0
H834 H 0.75651 0.54125 0.46531 0.0
H835 H 0.66904 0.53106 0.48636 0.0
H836 H 0.34603 0.68404 0.55418 0.0
H837 H 0.3594 0.55173 0.51354 0.0
H838 H 0.4202 0.66707 0.57439 0.0
H839 H 0.47 0.59659 0.56548 0.0
Gd840 Gd 0.53446 0.47027 0.51773 0.0
Gd841 Gd 0.64345 0.64329 0.54011 0.0
C842 C 0.91082 0.85895 0.54537 0.0
C843 C 0.86761 0.92374 0.56615 0.0
C844 C 0.82109 0.781 0.57128 0.0
C845 C 0.82652 0.81145 0.55093 0.0
C846 C 0.82067 0.85667 0.57824 0.0
C847 C 0.91738 0.92402 0.55225 0.0
C848 C 0.93694 0.84664 0.52298 0.0
C849 C 0.87975 0.79392 0.5055 0.0
N850 N 0.75742 0.7496 0.52839 0.0
C851 C 0.78982 0.74567 0.50823 0.0
H852 H 0.75916 0.70799 0.4978 0.0
C853 C 0.69047 0.66356 0.59273 0.0
N854 N 0.75199 0.68464 0.57763 0.0
C855 C 0.70064 0.78539 0.60492 0.0
C856 C 0.76476 0.85634 0.59532 0.0
H857 H 0.64928 0.60964 0.5941 0.0
H858 H 0.94172 0.89324 0.55134 0.0
H859 H 0.41416 0.45646 0.55002 0.0
H860 H 0.99011 0.88089 0.51925 0.0
H861 H 0.90047 0.79193 0.49219 0.0
H862 H 0.83914 0.88729 0.57385 0.0
H863 H 0.5585 0.45067 0.47338 0.0
H864 H 0.22014 0.28424 0.53312 0.0
H865 H 0.29117 0.37578 0.55599 0.0
H866 H 0.27759 0.20786 0.47797 0.0
H867 H 0.66519 0.7941 0.61357 0.0
H868 H 0.77088 0.90571 0.59913 0.0
H869 H 0.21389 0.22331 0.50378 0.0
H870 H 0.51178 0.34205 0.45697 0.0
N871 N 0.41307 0.41563 0.52328 0.0
C872 C 0.27356 0.32164 0.53021 0.0
C873 C 0.31354 0.37316 0.54306 0.0
C874 C 0.30372 0.31746 0.5138 0.0
C875 C 0.37375 0.36724 0.51046 0.0
C876 C 0.38315 0.42003 0.53939 0.0
N877 N 0.47158 0.4149 0.49126 0.0
C878 C 0.40571 0.36355 0.49468 0.0
C879 C 0.48089 0.34692 0.46735 0.0
C880 C 0.41539 0.29203 0.47145 0.0
C881 C 0.50634 0.40985 0.47639 0.0
C882 C 0.37387 0.3028 0.48386 0.0
H883 H 0.39582 0.24349 0.46404 0.0
O884 O 0.59423 0.43694 0.50345 0.0
O885 O 0.63969 0.56757 0.52154 0.0
O886 O 0.64202 0.62291 0.50524 0.0
O887 O 0.53268 0.53531 0.4953 0.0
O888 O 0.6377 0.47893 0.52625 0.0
O889 O 0.5141 0.36315 0.52273 0.0
O890 O 0.57988 0.69261 0.54607 0.0
O891 O 0.52915 0.54966 0.53627 0.0
O892 O 0.50519 0.42844 0.54351 0.0
O893 O 0.59525 0.52692 0.55842 0.0
O894 O 0.5442 0.64393 0.53264 0.0
O895 O 0.64064 0.72853 0.52217 0.0
C896 C 0.67906 0.54418 0.52437 0.0
C897 C 0.30369 0.2535 0.48665 0.0
C898 C 0.26757 0.26248 0.50127 0.0
C899 C 0.56553 0.37702 0.51133 0.0
C900 C 0.58491 0.32887 0.50441 0.0
C901 C 0.60667 0.33386 0.48578 0.0
C902 C 0.59818 0.29033 0.51725 0.0
C903 C 0.6272 0.25176 0.51109 0.0
C904 C 0.63305 0.29307 0.47951 0.0
C905 C 0.6407 0.25026 0.49193 0.0
C906 C 0.59279 0.58772 0.49106 0.0
C907 C 0.49475 0.58018 0.53091 0.0
C908 C 0.59259 0.7335 0.53159 0.0
C909 C 0.58102 0.80113 0.53383 0.0
C910 C 0.53698 0.79284 0.54872 0.0
C911 C 0.6162 0.8747 0.52702 0.0
C912 C 0.61736 0.93234 0.53796 0.0
C913 C 0.55056 0.84683 0.56106 0.0
C914 C 0.59278 0.91543 0.55611 0.0
C915 C 0.54947 0.4534 0.55651 0.0
H916 H 0.60701 0.37163 0.4763 0.0
H917 H 0.58993 0.29362 0.53202 0.0
H918 H 0.65047 0.29645 0.4653 0.0
H919 H 0.6606 0.21914 0.48636 0.0
H920 H 0.50771 0.74338 0.55437 0.0
H921 H 0.6395 0.88861 0.51355 0.0
H922 H 0.52481 0.83471 0.57449 0.0
H923 H 0.59523 0.9549 0.56549 0.0
Gd924 Gd 0.72135 0.14534 0.51773 0.0
Gd925 Gd 0.54833 0.08137 0.54012 0.0
C926 C 0.33269 0.13311 0.54536 0.0
C927 C 0.26789 0.02509 0.56614 0.0
C928 C 0.41063 0.12131 0.57128 0.0
C929 C 0.38019 0.0963 0.55092 0.0
C930 C 0.33496 0.04524 0.57824 0.0
C931 C 0.26762 0.07458 0.55224 0.0
C932 C 0.34503 0.17155 0.52298 0.0
C933 C 0.39776 0.16708 0.5055 0.0
N934 N 0.44205 0.08906 0.52839 0.0
C935 C 0.446 0.12539 0.50823 0.0
H936 H 0.48369 0.13242 0.4978 0.0
C937 C 0.52806 0.10814 0.59273 0.0
N938 N 0.50699 0.14858 0.57763 0.0
C939 C 0.40621 0.99648 0.60492 0.0
C940 C 0.33527 0.98966 0.59532 0.0
H941 H 0.58197 0.12087 0.59411 0.0
H942 H 0.29839 0.1297 0.55133 0.0
H943 H 0.73513 0.03885 0.55003 0.0
H944 H 0.31079 0.19047 0.51924 0.0
H945 H 0.39976 0.18979 0.49219 0.0
H946 H 0.30434 0.03308 0.57384 0.0
H947 H 0.74095 0.18892 0.47338 0.0
H948 H 0.90746 1.01719 0.53318 0.0
H949 H 0.81588 0.99663 0.55603 0.0
H950 H 0.98378 0.15087 0.47799 0.0
H951 H 0.3975 0.95233 0.61357 0.0
H952 H 0.2859 0.9464 0.59913 0.0
H953 H 0.96834 0.07176 0.50381 0.0
H954 H 0.84961 0.25088 0.45698 0.0
N955 N 0.77599 0.07859 0.52329 0.0
C956 C 0.87003 0.03316 0.53025 0.0
C957 C 0.81849 0.0216 0.54309 0.0
C958 C 0.87418 0.06744 0.51383 0.0
C959 C 0.82438 0.08765 0.51047 0.0
C960 C 0.77158 0.04428 0.53941 0.0
N961 N 0.77671 0.13777 0.49126 0.0
C962 C 0.82807 0.12327 0.49469 0.0
C963 C 0.84472 0.2151 0.46736 0.0
C964 C 0.8996 0.20447 0.47146 0.0
C965 C 0.78177 0.17758 0.47639 0.0
C966 C 0.88882 0.15218 0.48387 0.0
H967 H 0.94814 0.23345 0.46405 0.0
O968 O 0.75471 0.23844 0.50343 0.0
O969 O 0.62408 0.15331 0.52155 0.0
O970 O 0.56869 0.1003 0.50524 0.0
O971 O 0.65627 0.07853 0.4953 0.0
O972 O 0.71275 0.23995 0.52624 0.0
O973 O 0.82849 0.2321 0.52272 0.0
O974 O 0.49905 0.96851 0.54609 0.0
O975 O 0.64195 0.06068 0.53627 0.0
O976 O 0.76319 0.15791 0.5435 0.0
O977 O 0.66471 0.14952 0.55841 0.0
O978 O 0.54767 0.98149 0.53262 0.0
O979 O 0.46309 0.99326 0.52219 0.0
C980 C 0.6475 0.21608 0.52437 0.0
C981 C 0.93813 0.13132 0.48667 0.0
C982 C 0.92916 0.08625 0.5013 0.0
C983 C 0.81463 0.26964 0.51131 0.0
C984 C 0.86279 0.33716 0.50439 0.0
C985 C 0.85779 0.35395 0.48576 0.0
C986 C 0.90132 0.38897 0.51723 0.0
C987 C 0.93983 0.45658 0.51107 0.0
C988 C 0.89854 0.42113 0.47949 0.0
C989 C 0.94131 0.47162 0.49192 0.0
C990 C 0.60387 0.08625 0.49107 0.0
C991 C 0.61142 0.99577 0.5309 0.0
C992 C 0.45815 0.94028 0.53161 0.0
C993 C 0.39055 0.86108 0.53387 0.0
C994 C 0.39887 0.82536 0.54876 0.0
C995 C 0.31698 0.8227 0.52707 0.0
C996 C 0.25939 0.76621 0.53802 0.0
C997 C 0.34491 0.78491 0.56111 0.0
C998 C 0.2763 0.75852 0.55617 0.0
C999 C 0.73823 0.17723 0.5565 0.0
H1000 H 0.82002 0.31651 0.47628 0.0
H1001 H 0.89804 0.37742 0.532 0.0
H1002 H 0.89516 0.43518 0.46528 0.0
H1003 H 0.97238 0.52266 0.48635 0.0
H1004 H 0.44834 0.84558 0.55441 0.0
H1005 H 0.30305 0.83212 0.51361 0.0
H1006 H 0.35705 0.77122 0.57453 0.0
H1007 H 0.23684 0.72147 0.56554 0.0
Gd1008 Gd 0.31018 0.41475 0.37346 0.0
Gd1009 Gd 0.20107 0.47865 0.35106 0.0
C1010 C 0.97034 0.40074 0.34715 0.0
C1011 C 0.97032 0.46469 0.32 0.0
C1012 C 0.07233 0.45664 0.32802 0.0
C1013 C 0.04036 0.42098 0.3438 0.0
C1014 C 0.0405 0.48556 0.31721 0.0
C1015 C 0.93419 0.41959 0.33462 0.0
C1016 C 0.94019 0.3664 0.36356 0.0
C1017 C 0.98017 0.35484 0.3764 0.0
N1018 N 0.07969 0.41191 0.35662 0.0
C1019 C 0.04978 0.37757 0.37273 0.0
H1020 H 0.08078 0.37213 0.38336 0.0
C1021 C 0.17297 0.51097 0.30973 0.0
N1022 N 0.13819 0.47113 0.3246 0.0
C1023 C 0.14754 0.54848 0.3007 0.0
C1024 C 0.08204 0.53787 0.3048 0.0
H1025 H 0.22513 0.52231 0.30673 0.0
H1026 H 0.88052 0.40509 0.33713 0.0
H1027 H 0.42584 0.46572 0.33114 0.0
H1028 H 0.88677 0.35038 0.36647 0.0
H1029 H 0.9578 0.32986 0.38933 0.0
H1030 H 0.94424 0.48426 0.31132 0.0
H1031 H 0.31611 0.45438 0.42749 0.0
H1032 H 0.65674 0.52352 0.35254 0.0
H1033 H 0.56713 0.52299 0.32551 0.0
H1034 H 0.50568 0.36626 0.40717 0.0
H1035 H 0.17844 0.58423 0.29033 0.0
H1036 H 0.06248 0.56685 0.29739 0.0
H1037 H 0.60849 0.4628 0.38453 0.0
H1038 H 0.33179 0.28565 0.44691 0.0
N1039 N 0.42414 0.4224 0.36173 0.0
C1040 C 0.60364 0.5048 0.3563 0.0
C1041 C 0.54644 0.50035 0.33883 0.0
C1042 C 0.57749 0.46629 0.3787 0.0
C1043 C 0.49324 0.42961 0.38426 0.0
C1044 C 0.45652 0.45872 0.34156 0.0
N1045 N 0.4187 0.48191 0.41097 0.0
C1046 C 0.48776 0.45456 0.40463 0.0
C1047 C 0.36723 0.32977 0.43825 0.0
C1048 C 0.43131 0.32288 0.42866 0.0
C1049 C 0.35715 0.44148 0.42606 0.0
C1050 C 0.48726 0.37844 0.41158 0.0
H1051 H 0.4374 0.27962 0.43247 0.0
O1052 O 0.24671 0.30184 0.37937 0.0
O1053 O 0.1958 0.39398 0.36959 0.0
O1054 O 0.17183 0.49119 0.37685 0.0
O1055 O 0.26204 0.48298 0.39175 0.0
O1056 O 0.21084 0.31474 0.36623 0.0
O1057 O 0.3075 0.32686 0.35547 0.0
O1058 O 0.26091 0.57179 0.33679 0.0
O1059 O 0.30626 0.48663 0.35488 0.0
O1060 O 0.30864 0.43359 0.33857 0.0
O1061 O 0.1993 0.41181 0.32864 0.0
O1062 O 0.30437 0.57318 0.35956 0.0
O1063 O 0.18071 0.5654 0.35606 0.0
C1064 C 0.16138 0.32896 0.36431 0.0
C1065 C 0.53414 0.35823 0.39949 0.0
C1066 C 0.58402 0.40777 0.38561 0.0
C1067 C 0.25945 0.27376 0.36487 0.0
C1068 C 0.24788 0.19455 0.36709 0.0
C1069 C 0.20364 0.15873 0.38193 0.0
C1070 C 0.28309 0.15613 0.36032 0.0
C1071 C 0.28411 0.09962 0.37129 0.0
C1072 C 0.21713 0.11838 0.39432 0.0
C1073 C 0.25943 0.09203 0.38943 0.0
C1074 C 0.21618 0.51062 0.38983 0.0
C1075 C 0.34581 0.54937 0.35771 0.0
C1076 C 0.23218 0.60298 0.34468 0.0
C1077 C 0.25155 0.67051 0.33775 0.0
C1078 C 0.27332 0.6873 0.31913 0.0
C1079 C 0.26478 0.72231 0.35059 0.0
C1080 C 0.2937 0.78989 0.34443 0.0
C1081 C 0.29963 0.75445 0.31285 0.0
C1082 C 0.30719 0.80489 0.32528 0.0
C1083 C 0.25941 0.41953 0.3244 0.0
H1084 H 0.17423 0.17886 0.38752 0.0
H1085 H 0.30653 0.1655 0.34687 0.0
H1086 H 0.19129 0.10479 0.40774 0.0
H1087 H 0.26179 0.05503 0.39883 0.0
H1088 H 0.2737 0.64988 0.30965 0.0
H1089 H 0.25657 0.71077 0.36537 0.0
H1090 H 0.31707 0.76852 0.29864 0.0
H1091 H 0.32705 0.8559 0.3197 0.0
Gd1092 Gd 0.77681 0.97656 0.37346 0.0
Gd1093 Gd 0.71296 0.80357 0.35105 0.0
C1094 C 0.79086 0.65074 0.34717 0.0
C1095 C 0.72697 0.58679 0.32001 0.0
C1096 C 0.73504 0.69687 0.32803 0.0
C1097 C 0.77066 0.70055 0.34381 0.0
C1098 C 0.70611 0.63611 0.31721 0.0
C1099 C 0.77204 0.59576 0.33463 0.0
C1100 C 0.82513 0.65488 0.36359 0.0
C1101 C 0.8367 0.70644 0.37643 0.0
N1102 N 0.77972 0.74894 0.35662 0.0
C1103 C 0.81402 0.75335 0.37274 0.0
H1104 H 0.81946 0.78981 0.38337 0.0
C1105 C 0.68072 0.74317 0.30973 0.0
N1106 N 0.72055 0.74823 0.3246 0.0
C1107 C 0.64318 0.68022 0.3007 0.0
C1108 C 0.6538 0.62533 0.30481 0.0
H1109 H 0.66938 0.78399 0.30673 0.0
H1110 H 0.78652 0.55657 0.33715 0.0
H1111 H 0.72582 0.04124 0.33115 0.0
H1112 H 0.8411 0.61745 0.36652 0.0
H1113 H 0.86166 0.70904 0.38936 0.0
H1114 H 0.70741 0.54115 0.31133 0.0
H1115 H 0.73715 0.94284 0.42749 0.0
H1116 H 0.66801 0.21432 0.35254 0.0
H1117 H 0.66855 0.12525 0.32551 0.0
H1118 H 0.82529 0.22054 0.40718 0.0
H1119 H 0.6074 0.67534 0.29033 0.0
H1120 H 0.62482 0.57679 0.29739 0.0
H1121 H 0.72876 0.22681 0.38453 0.0
H1122 H 0.90588 0.12726 0.44691 0.0
N1123 N 0.76914 0.08286 0.36173 0.0
C1124 C 0.68674 0.17995 0.3563 0.0
C1125 C 0.69119 0.1272 0.33883 0.0
C1126 C 0.72525 0.19231 0.3787 0.0
C1127 C 0.76193 0.14474 0.38427 0.0
C1128 C 0.73282 0.07892 0.34157 0.0
N1129 N 0.70963 1.01791 0.41097 0.0
C1130 C 0.73698 0.11431 0.40463 0.0
C1131 C 0.86176 0.11858 0.43826 0.0
C1132 C 0.86865 0.18955 0.42866 0.0
C1133 C 0.75006 0.99679 0.42606 0.0
C1134 C 0.8131 0.18993 0.41159 0.0
H1135 H 0.91192 0.2389 0.43248 0.0
O1136 O 0.8897 0.02598 0.37939 0.0
O1137 O 0.7976 0.88297 0.36959 0.0
O1138 O 0.70039 0.76175 0.37684 0.0
O1139 O 0.70861 0.86018 0.39175 0.0
O1140 O 0.87682 0.97725 0.36621 0.0
O1141 O 0.86475 0.06179 0.35548 0.0
O1142 O 0.61984 0.77025 0.33678 0.0
O1143 O 0.70495 0.90076 0.35488 0.0
O1144 O 0.758 0.95622 0.33858 0.0
O1145 O 0.77981 0.86868 0.32864 0.0
O1146 O 0.6184 0.81228 0.35956 0.0
O1147 O 0.62622 0.69644 0.35604 0.0
C1148 C 0.86261 0.91358 0.3643 0.0
C1149 C 0.83332 0.25703 0.39949 0.0
C1150 C 0.78379 0.25737 0.38561 0.0
C1151 C 0.91782 0.06681 0.36489 0.0
C1152 C 0.99703 0.13441 0.36712 0.0
C1153 C 0.03282 0.12595 0.38197 0.0
C1154 C 0.03544 0.20806 0.36037 0.0
C1155 C 0.09196 0.26552 0.37134 0.0
C1156 C 0.07321 0.17976 0.39436 0.0
C1157 C 0.09957 0.24842 0.38948 0.0
C1158 C 0.681 0.78668 0.38983 0.0
C1159 C 0.64219 0.87753 0.3577 0.0
C1160 C 0.58865 0.71031 0.34465 0.0
C1161 C 0.52113 0.66216 0.33773 0.0
C1162 C 0.50432 0.66714 0.31911 0.0
C1163 C 0.46934 0.6236 0.35057 0.0
C1164 C 0.40174 0.58499 0.34441 0.0
C1165 C 0.43715 0.62634 0.31284 0.0
C1166 C 0.3867 0.5835 0.32526 0.0
C1167 C 0.77208 0.92108 0.3244 0.0
H1168 H 1.01268 0.0764 0.38754 0.0
H1169 H 1.02605 0.22215 0.34692 0.0
H1170 H 0.08686 0.16746 0.40777 0.0
H1171 H 0.1366 0.28778 0.39888 0.0
H1172 H 0.54175 0.70494 0.30962 0.0
H1173 H 0.48089 0.62691 0.36534 0.0
H1174 H 0.42308 0.62971 0.29863 0.0
H1175 H 0.33566 0.55241 0.3197 0.0
Gd1176 Gd 0.215 0.88149 0.37345 0.0
Gd1177 Gd 0.38801 0.99046 0.35105 0.0
C1178 C 0.5408 0.2212 0.34714 0.0
C1179 C 0.60477 0.22126 0.31998 0.0
C1180 C 0.49473 0.11922 0.32801 0.0
C1181 C 0.49104 0.15117 0.34379 0.0
C1182 C 0.55548 0.15108 0.31719 0.0
C1183 C 0.59579 0.25737 0.33461 0.0
C1184 C 0.53662 0.25134 0.36355 0.0
C1185 C 0.48509 0.21135 0.3764 0.0
N1186 N 0.44266 0.11184 0.35661 0.0
C1187 C 0.43825 0.14173 0.37273 0.0
H1188 H 0.40182 0.11072 0.38336 0.0
C1189 C 0.44844 1.01861 0.30971 0.0
N1190 N 0.44338 0.05336 0.32459 0.0
C1191 C 0.51139 0.04406 0.30068 0.0
C1192 C 0.56626 0.10957 0.30478 0.0
H1193 H 0.40761 0.96645 0.3067 0.0
H1194 H 0.63495 0.31105 0.33712 0.0
H1195 H 0.15029 0.76579 0.33114 0.0
H1196 H 0.574 0.30477 0.36647 0.0
H1197 H 0.48246 0.23371 0.38933 0.0
H1198 H 0.65041 0.24737 0.3113 0.0
H1199 H 0.24872 0.87554 0.42749 0.0
H1200 H 0.97732 0.53485 0.35255 0.0
H1201 H 0.06634 0.62449 0.32551 0.0
H1202 H 0.97103 0.68584 0.40718 0.0
H1203 H 0.51628 1.01318 0.2903 0.0
H1204 H 0.61481 0.12915 0.29737 0.0
H1205 H 0.96488 0.58307 0.38456 0.0
H1206 H 0.06425 0.85972 0.44692 0.0
N1207 N 0.10869 0.76748 0.36173 0.0
C1208 C 1.01167 0.58797 0.35631 0.0
C1209 C 0.06439 0.64518 0.33883 0.0
C1210 C 0.99932 0.61411 0.3787 0.0
C1211 C 0.04685 0.69836 0.38427 0.0
C1212 C 0.11263 0.7351 0.34156 0.0
N1213 N 0.17369 0.77296 0.41096 0.0
C1214 C 0.0773 0.70386 0.40463 0.0
C1215 C 0.07295 0.82429 0.43826 0.0
C1216 C 1.002 0.7602 0.42866 0.0
C1217 C 0.19478 0.83448 0.42606 0.0
C1218 C 1.00165 0.7043 0.41158 0.0
H1219 H 0.95264 0.75408 0.43248 0.0
O1220 O 0.16566 0.94501 0.37945 0.0
O1221 O 0.30869 0.99584 0.36959 0.0
O1222 O 0.42993 0.01972 0.37682 0.0
O1223 O 0.33137 0.92972 0.39175 0.0
O1224 O 0.21426 0.9807 0.36605 0.0
O1225 O 0.12978 0.88437 0.35552 0.0
O1226 O 0.42129 0.93064 0.33676 0.0
O1227 O 0.29073 0.88531 0.35487 0.0
O1228 O 0.23534 0.88298 0.33858 0.0
O1229 O 0.32296 0.9923 0.32863 0.0
O1230 O 0.37926 0.88719 0.35959 0.0
O1231 O 0.49511 1.01079 0.35603 0.0
C1232 C 0.278 0.03012 0.36427 0.0
C1233 C 0.93454 0.65733 0.3995 0.0
C1234 C 0.93422 0.60744 0.38563 0.0
C1235 C 0.1248 0.93237 0.36496 0.0
C1236 C 0.0572 0.94397 0.36721 0.0
C1237 C 0.0655 0.98802 0.38209 0.0
C1238 C 0.98362 0.90877 0.36041 0.0
C1239 C 0.92604 0.90765 0.37136 0.0
C1240 C 1.01155 0.97444 0.39446 0.0
C1241 C 0.94294 0.93218 0.38952 0.0
C1242 C 0.40489 0.97551 0.38983 0.0
C1243 C 0.31401 0.84585 0.35771 0.0
C1244 C 0.48123 0.95937 0.34463 0.0
C1245 C 0.52937 0.93999 0.33771 0.0
C1246 C 0.52441 0.91822 0.31909 0.0
C1247 C 0.56795 0.92679 0.35056 0.0
C1248 C 0.60657 0.89783 0.3444 0.0
C1249 C 0.56525 0.89188 0.31282 0.0
C1250 C 0.60809 0.88429 0.32526 0.0
C1251 C 0.27053 0.93221 0.3244 0.0
H1252 H 0.11497 1.01728 0.38774 0.0
H1253 H 0.9697 0.88546 0.34694 0.0
H1254 H 1.0237 1.00026 0.40788 0.0
H1255 H 0.90349 0.92975 0.3989 0.0
H1256 H 0.48663 0.91785 0.3096 0.0
H1257 H 0.56463 0.93505 0.36533 0.0
H1258 H 0.5619 0.87444 0.29861 0.0
H1259 H 0.63921 0.86438 0.31969 0.0
Gd1260 Gd 0.75783 0.96709 0.75411 0.0
Gd1261 Gd 0.82167 0.85793 0.77651 0.0
C1262 C 0.74376 0.6272 0.78041 0.0
C1263 C 0.80767 0.62716 0.80756 0.0
C1264 C 0.79961 0.72916 0.79954 0.0
C1265 C 0.76397 0.69721 0.78376 0.0
C1266 C 0.82853 0.69733 0.81035 0.0
C1267 C 0.76259 0.59104 0.79294 0.0
C1268 C 0.70947 0.59706 0.76399 0.0
C1269 C 0.6979 0.63704 0.75115 0.0
N1270 N 0.75491 0.73654 0.77094 0.0
C1271 C 0.72059 0.70664 0.75483 0.0
H1272 H 0.71514 0.73764 0.7442 0.0
C1273 C 0.85394 0.82981 0.81783 0.0
N1274 N 0.8141 0.79502 0.80296 0.0
C1275 C 0.89146 0.80438 0.82686 0.0
C1276 C 0.88084 0.73887 0.82276 0.0
H1277 H 0.86528 0.88196 0.82083 0.0
H1278 H 0.7481 0.53737 0.79043 0.0
H1279 H 0.80881 0.08275 0.79643 0.0
H1280 H 0.69348 0.54365 0.76106 0.0
H1281 H 0.67293 0.61468 0.73821 0.0
H1282 H 0.82723 0.60108 0.81624 0.0
H1283 H 0.79746 0.97303 0.70008 0.0
H1284 H 0.86662 0.31364 0.77503 0.0
H1285 H 0.86608 0.22403 0.80206 0.0
H1286 H 0.70932 0.16257 0.7204 0.0
H1287 H 0.92722 0.83529 0.83723 0.0
H1288 H 0.90982 0.71932 0.83017 0.0
H1289 H 0.80584 0.26538 0.74305 0.0
H1290 H 0.62872 0.9887 0.68066 0.0
N1291 N 0.76549 0.08105 0.76584 0.0
C1292 C 0.84788 0.26054 0.77127 0.0
C1293 C 0.84344 0.20333 0.78874 0.0
C1294 C 0.80937 0.23439 0.74888 0.0
C1295 C 0.77269 0.15014 0.74331 0.0
C1296 C 0.80181 0.11343 0.786 0.0
N1297 N 0.82499 0.07561 0.7166 0.0
C1298 C 0.79764 0.14467 0.72294 0.0
C1299 C 0.67284 0.02414 0.68932 0.0
C1300 C 0.66595 0.08822 0.69891 0.0
C1301 C 0.78455 1.01406 0.70151 0.0
C1302 C 0.72151 0.14416 0.71599 0.0
H1303 H 0.62269 0.0943 0.6951 0.0
O1304 O 0.64491 0.90364 0.74821 0.0
O1305 O 0.73703 0.8527 0.75797 0.0
O1306 O 0.83416 0.82869 0.75071 0.0
O1307 O 0.82606 0.91895 0.73582 0.0
O1308 O 0.6578 0.86776 0.76134 0.0
O1309 O 0.66994 0.96443 0.7721 0.0
O1310 O 0.91481 0.91774 0.79077 0.0
O1311 O 0.82969 0.96314 0.77268 0.0
O1312 O 0.77665 0.96556 0.78899 0.0
O1313 O 0.75485 0.85621 0.79893 0.0
O1314 O 0.91623 0.96122 0.76801 0.0
O1315 O 0.90841 0.83754 0.7715 0.0
C1316 C 0.67201 0.81829 0.76325 0.0
C1317 C 0.70129 0.19102 0.72809 0.0
C1318 C 0.75082 0.24089 0.74197 0.0
C1319 C 0.61684 0.91638 0.76271 0.0
C1320 C 0.53762 0.9048 0.76049 0.0
C1321 C 0.5018 0.86051 0.74565 0.0
C1322 C 0.49921 0.94004 0.76724 0.0
C1323 C 0.44269 0.94102 0.75627 0.0
C1324 C 0.46143 0.87395 0.73326 0.0
C1325 C 0.43509 0.91627 0.73813 0.0
C1326 C 0.85368 0.87307 0.73773 0.0
C1327 C 0.89244 1.00267 0.76986 0.0
C1328 C 0.946 0.88901 0.78289 0.0
C1329 C 1.01352 0.90838 0.78981 0.0
C1330 C 0.0303 0.93014 0.80844 0.0
C1331 C 0.06534 0.92164 0.77698 0.0
C1332 C 0.13292 0.95058 0.78314 0.0
C1333 C 0.09746 0.95648 0.81471 0.0
C1334 C 0.14792 0.96409 0.80229 0.0
C1335 C 0.76257 0.91633 0.80317 0.0
H1336 H 0.5219 0.83105 0.74009 0.0
H1337 H 0.5086 0.96352 0.78068 0.0
H1338 H 0.44781 0.84804 0.71985 0.0
H1339 H 0.39807 0.91859 0.72873 0.0
H1340 H 0.99288 0.93051 0.81792 0.0
H1341 H 0.05381 0.91342 0.7622 0.0
H1342 H 0.11152 0.97392 0.82892 0.0
H1343 H 0.19894 0.98399 0.80787 0.0
Gd1344 Gd 0.22451 0.87188 0.75412 0.0
Gd1345 Gd 0.33351 0.04491 0.77651 0.0
C1346 C 0.56425 0.1977 0.78043 0.0
C1347 C 0.5643 0.26167 0.80758 0.0
C1348 C 0.46226 0.15164 0.79955 0.0
C1349 C 0.49422 0.14794 0.78378 0.0
C1350 C 0.49412 0.21238 0.81037 0.0
C1351 C 0.60042 0.25268 0.79296 0.0
C1352 C 0.59441 0.1935 0.76402 0.0
C1353 C 0.55442 0.14198 0.75117 0.0
N1354 N 0.45489 0.09956 0.77096 0.0
C1355 C 0.4848 0.09515 0.75484 0.0
H1356 H 0.45379 0.05872 0.74421 0.0
C1357 C 0.36163 0.10534 0.81785 0.0
N1358 N 0.3964 0.10029 0.80297 0.0
C1359 C 0.38709 0.16828 0.82688 0.0
C1360 C 0.4526 0.22316 0.82278 0.0
H1361 H 0.30947 0.06452 0.82085 0.0
H1362 H 0.6541 0.29184 0.79046 0.0
H1363 H 0.10882 0.80719 0.79643 0.0
H1364 H 0.64784 0.23088 0.76111 0.0
H1365 H 0.57679 0.13935 0.73825 0.0
H1366 H 0.5904 0.30731 0.81627 0.0
H1367 H 0.2186 0.90558 0.70008 0.0
H1368 H 0.87788 0.63421 0.77502 0.0
H1369 H 0.96752 0.72324 0.80206 0.0
H1370 H 1.0289 0.62791 0.7204 0.0
H1371 H 0.3562 0.17316 0.83726 0.0
H1372 H 0.47218 0.2717 0.8302 0.0
H1373 H 0.92611 0.62176 0.74302 0.0
H1374 H 0.20279 0.72111 0.68066 0.0
N1375 N 0.11051 0.76558 0.76584 0.0
C1376 C 0.931 0.66857 0.77127 0.0
C1377 C 0.98821 0.72129 0.78874 0.0
C1378 C 0.95714 0.6562 0.74887 0.0
C1379 C 0.0414 0.70373 0.74331 0.0
C1380 C 0.07813 0.76953 0.78601 0.0
N1381 N 0.116 0.83056 0.71661 0.0
C1382 C 0.04691 0.73417 0.72295 0.0
C1383 C 0.16736 0.72982 0.68932 0.0
C1384 C 0.10326 0.65887 0.69892 0.0
C1385 C 0.17753 0.85164 0.70151 0.0
C1386 C 0.04735 0.65852 0.71599 0.0
H1387 H 0.09714 0.6095 0.6951 0.0
O1388 O 0.28801 0.82249 0.74816 0.0
O1389 O 0.33888 0.96557 0.75797 0.0
O1390 O 0.36276 0.08675 0.75073 0.0
O1391 O 0.27271 0.98825 0.73582 0.0
O1392 O 0.32375 0.87115 0.76148 0.0
O1393 O 0.22732 0.78667 0.77207 0.0
O1394 O 0.27368 0.0782 0.79079 0.0
O1395 O 0.22835 0.94762 0.7727 0.0
O1396 O 0.22602 0.89225 0.789 0.0
O1397 O 0.33534 0.97987 0.79893 0.0
O1398 O 0.23022 0.03615 0.76798 0.0
O1399 O 0.35384 0.15201 0.77152 0.0
C1400 C 0.37317 0.93488 0.76328 0.0
C1401 C 1.00039 0.59143 0.72808 0.0
C1402 C 0.9505 0.59111 0.74195 0.0
C1403 C 0.27533 0.78165 0.76265 0.0
C1404 C 0.28691 0.71402 0.76042 0.0
C1405 C 0.33102 0.72234 0.74555 0.0
C1406 C 0.2517 0.64043 0.76721 0.0
C1407 C 0.25057 0.58283 0.75626 0.0
C1408 C 0.31744 0.66841 0.73318 0.0
C1409 C 0.27516 0.5998 0.73811 0.0
C1410 C 0.31849 0.06177 0.73773 0.0
C1411 C 0.18889 0.9709 0.76986 0.0
C1412 C 0.3024 0.13812 0.78291 0.0
C1413 C 0.28301 0.18626 0.78983 0.0
C1414 C 0.26126 0.18131 0.80845 0.0
C1415 C 0.26979 0.22483 0.77699 0.0
C1416 C 0.24087 0.2635 0.78315 0.0
C1417 C 0.23494 0.22215 0.81473 0.0
C1418 C 0.22737 0.26501 0.8023 0.0
C1419 C 0.27524 0.92745 0.80317 0.0
H1420 H 0.36035 0.77183 0.73992 0.0
H1421 H 0.22836 0.62648 0.78067 0.0
H1422 H 0.34323 0.68058 0.71976 0.0
H1423 H 0.27273 0.56037 0.72872 0.0
H1424 H 0.26089 0.14352 0.81794 0.0
H1425 H 0.27802 0.22152 0.76222 0.0
H1426 H 0.2175 0.21879 0.82894 0.0
H1427 H 0.2075 0.29616 0.80788 0.0
Gd1428 Gd 0.31963 0.43379 0.75412 0.0
Gd1429 Gd 0.14661 0.3698 0.77652 0.0
C1430 C 0.9938 0.44774 0.78042 0.0
C1431 C 0.92986 0.38386 0.80758 0.0
C1432 C 0.0399 0.39187 0.79955 0.0
C1433 C 0.04359 0.4275 0.78377 0.0
C1434 C 0.97915 0.36298 0.81037 0.0
C1435 C 0.93883 0.42894 0.79295 0.0
C1436 C 0.99797 0.48203 0.76399 0.0
C1437 C 0.0495 0.49358 0.75115 0.0
N1438 N 0.09197 0.43655 0.77095 0.0
C1439 C 0.09638 0.47085 0.75483 0.0
H1440 H 0.13282 0.47627 0.7442 0.0
C1441 C 0.0862 0.33756 0.81785 0.0
N1442 N 0.09125 0.37737 0.80298 0.0
C1443 C 1.02324 0.30004 0.82688 0.0
C1444 C 0.96837 0.31068 0.82278 0.0
H1445 H 0.12702 0.32622 0.82086 0.0
H1446 H 0.89966 0.44344 0.79044 0.0
H1447 H 0.38429 0.38277 0.79643 0.0
H1448 H 0.96056 0.49804 0.76107 0.0
H1449 H 0.05213 0.51856 0.73822 0.0
H1450 H 0.88422 0.36432 0.81626 0.0
H1451 H 0.28591 0.39413 0.70008 0.0
H1452 H 0.55727 0.32481 0.77503 0.0
H1453 H 0.46824 0.32542 0.80206 0.0
H1454 H 0.56359 0.48212 0.7204 0.0
H1455 H 1.01835 0.26426 0.83726 0.0
H1456 H 0.91983 0.28171 0.83019 0.0
H1457 H 0.56975 0.38551 0.74303 0.0
H1458 H 0.47039 0.56279 0.68065 0.0
N1459 N 0.42591 0.42607 0.76584 0.0
C1460 C 0.52292 0.34357 0.77127 0.0
C1461 C 0.4702 0.34807 0.78874 0.0
C1462 C 0.53529 0.38208 0.74887 0.0
C1463 C 0.48777 0.41881 0.74331 0.0
C1464 C 0.42196 0.38974 0.78601 0.0
N1465 N 0.36093 0.36657 0.71661 0.0
C1466 C 0.45732 0.39387 0.72295 0.0
C1467 C 0.46168 0.51866 0.68931 0.0
C1468 C 0.53263 0.52551 0.69891 0.0
C1469 C 0.33985 0.40701 0.70151 0.0
C1470 C 0.53298 0.46996 0.71599 0.0
H1471 H 0.582 0.56876 0.6951 0.0
O1472 O 0.36899 0.54665 0.74813 0.0
O1473 O 0.22595 0.45448 0.75797 0.0
O1474 O 0.10475 0.3572 0.75074 0.0
O1475 O 0.20325 0.36564 0.73582 0.0
O1476 O 0.32038 0.53375 0.76151 0.0
O1477 O 0.40485 0.52187 0.77205 0.0
O1478 O 0.1133 0.2767 0.79081 0.0
O1479 O 0.24387 0.3619 0.7727 0.0
O1480 O 0.29929 0.41495 0.789 0.0
O1481 O 0.21169 0.43667 0.79893 0.0
O1482 O 0.15532 0.27525 0.76798 0.0
O1483 O 0.0395 0.28304 0.77153 0.0
C1484 C 0.25665 0.51945 0.76329 0.0
C1485 C 0.60007 0.49011 0.72808 0.0
C1486 C 0.60038 0.44054 0.74195 0.0
C1487 C 0.40984 0.57486 0.76262 0.0
C1488 C 0.47744 0.65407 0.76038 0.0
C1489 C 0.46908 0.68982 0.7455 0.0
C1490 C 0.55103 0.69244 0.76716 0.0
C1491 C 0.60858 0.74892 0.7562 0.0
C1492 C 0.52299 0.73021 0.73313 0.0
C1493 C 0.59162 0.75655 0.73805 0.0
C1494 C 0.12973 0.33793 0.73773 0.0
C1495 C 0.22057 0.29916 0.76986 0.0
C1496 C 0.05337 0.2455 0.78294 0.0
C1497 C 1.00521 0.17797 0.78985 0.0
C1498 C 1.01018 0.16116 0.80848 0.0
C1499 C 0.96666 0.12619 0.77701 0.0
C1500 C 0.92806 0.0586 0.78316 0.0
C1501 C 0.96937 0.09399 0.81474 0.0
C1502 C 0.92656 0.04354 0.80231 0.0
C1503 C 0.26411 0.429 0.80317 0.0
H1504 H 0.41959 0.66964 0.73988 0.0
H1505 H 0.565 0.68304 0.78062 0.0
H1506 H 0.5108 0.7439 0.71972 0.0
H1507 H 0.63104 0.79359 0.72867 0.0
H1508 H 0.04796 0.19859 0.81796 0.0
H1509 H 0.96997 0.13776 0.76224 0.0
H1510 H 0.97273 0.07991 0.82895 0.0
H1511 H 0.89546 0.9925 0.80788 0.0
Gd1512 Gd 0.33363 0.36991 0.2765 0.0
Gd1513 Gd 0.22451 0.4338 0.25412 0.0
C1514 C 0.9572 0.38223 0.24888 0.0
C1515 C 1.00052 0.49028 0.22809 0.0
C1516 C 0.04689 0.39396 0.22295 0.0
C1517 C 0.04149 0.41898 0.24331 0.0
C1518 C 0.04737 0.47007 0.21599 0.0
C1519 C 0.95076 0.44083 0.242 0.0
C1520 C 0.93107 0.34379 0.27126 0.0
C1521 C 0.98826 0.34823 0.28874 0.0
N1522 N 0.11058 0.42618 0.26584 0.0
C1523 C 0.07818 0.38986 0.28601 0.0
H1524 H 0.10883 0.3828 0.29643 0.0
C1525 C 0.17748 0.40706 0.20151 0.0
N1526 N 0.11595 0.36664 0.2166 0.0
C1527 C 0.1674 0.51878 0.18932 0.0
C1528 C 0.1033 0.52564 0.19891 0.0
H1529 H 0.21865 0.3943 0.20013 0.0
H1530 H 0.92633 0.38571 0.24292 0.0
H1531 H 0.45394 0.47647 0.24422 0.0
H1532 H 0.87792 0.32491 0.275 0.0
H1533 H 0.96754 0.32552 0.30205 0.0
H1534 H 1.02893 0.48224 0.22039 0.0
H1535 H 0.30957 0.32625 0.32083 0.0
H1536 H 0.64791 0.49811 0.26109 0.0
H1537 H 0.5769 0.51867 0.23823 0.0
H1538 H 0.59044 0.36427 0.31625 0.0
H1539 H 0.20287 0.56292 0.18067 0.0
H1540 H 0.09722 0.56892 0.1951 0.0
H1541 H 0.65417 0.44343 0.29044 0.0
H1542 H 0.35626 0.26435 0.33725 0.0
N1543 N 0.45502 0.43667 0.27095 0.0
C1544 C 0.59451 0.48212 0.26401 0.0
C1545 C 0.55454 0.4937 0.25117 0.0
C1546 C 0.56435 0.4478 0.28042 0.0
C1547 C 0.49434 0.42758 0.28377 0.0
C1548 C 0.48494 0.47101 0.25484 0.0
N1549 N 0.39651 0.37743 0.30296 0.0
C1550 C 0.46237 0.39192 0.29954 0.0
C1551 C 0.38716 0.30009 0.32687 0.0
C1552 C 0.45265 0.31069 0.32277 0.0
C1553 C 0.36173 0.3376 0.31783 0.0
C1554 C 0.49419 0.36299 0.31036 0.0
H1555 H 0.4722 0.2817 0.33018 0.0
O1556 O 0.27385 0.27677 0.29077 0.0
O1557 O 0.22836 0.36187 0.27268 0.0
O1558 O 0.22598 0.41488 0.28899 0.0
O1559 O 0.33534 0.43669 0.29893 0.0
O1560 O 0.23038 0.27533 0.26802 0.0
O1561 O 0.35403 0.28317 0.27149 0.0
O1562 O 0.28806 0.54671 0.24821 0.0
O1563 O 0.33883 0.45457 0.25797 0.0
O1564 O 0.36289 0.35745 0.25071 0.0
O1565 O 0.27264 0.36556 0.23582 0.0
O1566 O 0.32386 0.53373 0.26145 0.0
O1567 O 0.2272 0.52173 0.27209 0.0
C1568 C 0.1889 0.29909 0.26986 0.0
C1569 C 0.56436 0.38384 0.30757 0.0
C1570 C 0.60049 0.42894 0.29295 0.0
C1571 C 0.30257 0.24558 0.28288 0.0
C1572 C 0.2832 0.17806 0.28981 0.0
C1573 C 0.26143 0.1613 0.30843 0.0
C1574 C 0.26991 0.12623 0.27697 0.0
C1575 C 0.24089 0.05864 0.28314 0.0
C1576 C 0.23504 0.09414 0.31471 0.0
C1577 C 0.22739 0.04366 0.3023 0.0
C1578 C 0.27521 0.42893 0.30317 0.0
C1579 C 0.37335 0.51952 0.26331 0.0
C1580 C 0.27529 0.57481 0.2627 0.0
C1581 C 0.28685 0.65402 0.26046 0.0
C1582 C 0.33101 0.6898 0.2456 0.0
C1583 C 0.25167 0.69244 0.26725 0.0
C1584 C 0.25062 0.74896 0.2563 0.0
C1585 C 0.31752 0.73021 0.23324 0.0
C1586 C 0.2753 0.75662 0.23816 0.0
C1587 C 0.3185 0.33791 0.23773 0.0
H1588 H 0.26107 0.19874 0.31791 0.0
H1589 H 0.27816 0.13775 0.2622 0.0
H1590 H 0.21761 0.0801 0.32893 0.0
H1591 H 0.20749 0.99265 0.30788 0.0
H1592 H 0.36035 0.66962 0.23998 0.0
H1593 H 0.22828 0.68306 0.2807 0.0
H1594 H 0.34333 0.74381 0.21981 0.0
H1595 H 0.27291 0.79364 0.22877 0.0
Gd1596 Gd 0.8217 0.04497 0.27651 0.0
Gd1597 Gd 0.75787 0.87197 0.25412 0.0
C1598 C 0.80943 0.65623 0.24888 0.0
C1599 C 0.70138 0.59151 0.22809 0.0
C1600 C 0.79772 0.73422 0.22295 0.0
C1601 C 0.77269 0.70378 0.24331 0.0
C1602 C 0.72161 0.65859 0.21599 0.0
C1603 C 0.75082 0.5912 0.242 0.0
C1604 C 0.84787 0.66855 0.27126 0.0
C1605 C 0.84344 0.7213 0.28874 0.0
N1606 N 0.76549 0.76567 0.26584 0.0
C1607 C 0.80181 0.76959 0.28601 0.0
H1608 H 0.80888 0.8073 0.29643 0.0
C1609 C 0.78463 0.85172 0.20151 0.0
N1610 N 0.82505 0.8306 0.2166 0.0
C1611 C 0.67291 0.72993 0.18932 0.0
C1612 C 0.66604 0.65895 0.19891 0.0
H1613 H 0.79741 0.90565 0.20013 0.0
H1614 H 0.80594 0.62189 0.24292 0.0
H1615 H 0.71516 0.05872 0.24421 0.0
H1616 H 0.86675 0.63427 0.275 0.0
H1617 H 0.86614 0.72328 0.30205 0.0
H1618 H 0.70943 0.62797 0.22039 0.0
H1619 H 0.86528 0.06455 0.32084 0.0
H1620 H 0.69366 0.23117 0.26105 0.0
H1621 H 0.67306 0.13955 0.2382 0.0
H1622 H 0.82729 0.30741 0.31624 0.0
H1623 H 0.62877 0.72126 0.18067 0.0
H1624 H 0.62276 0.6096 0.1951 0.0
H1625 H 0.7482 0.29201 0.29042 0.0
H1626 H 0.92725 0.17317 0.33724 0.0
N1627 N 0.75493 0.09959 0.27095 0.0
C1628 C 0.70959 0.1937 0.26398 0.0
C1629 C 0.698 0.14214 0.25114 0.0
C1630 C 0.74383 0.19783 0.28041 0.0
C1631 C 0.76401 0.148 0.28377 0.0
C1632 C 0.72063 0.09519 0.25483 0.0
N1633 N 0.81411 0.10031 0.30297 0.0
C1634 C 0.79963 0.15168 0.29954 0.0
C1635 C 0.89147 0.16831 0.32687 0.0
C1636 C 0.88087 0.2232 0.32277 0.0
C1637 C 0.85394 0.10536 0.31784 0.0
C1638 C 0.82857 0.21244 0.31036 0.0
H1639 H 0.90986 0.27174 0.33018 0.0
O1640 O 0.91482 0.07835 0.29079 0.0
O1641 O 0.82979 0.94778 0.27269 0.0
O1642 O 0.77678 0.89234 0.289 0.0
O1643 O 0.75492 0.97986 0.29894 0.0
O1644 O 0.91631 0.03636 0.26803 0.0
O1645 O 0.90843 0.15212 0.27151 0.0
O1646 O 0.64498 0.82263 0.24821 0.0
O1647 O 0.73708 0.96551 0.25798 0.0
O1648 O 0.8342 0.08673 0.25072 0.0
O1649 O 0.82606 0.98835 0.23583 0.0
O1650 O 0.65794 0.87137 0.26147 0.0
O1651 O 0.66991 0.78673 0.27209 0.0
C1652 C 0.89257 0.97112 0.26987 0.0
C1653 C 0.80773 0.26177 0.30757 0.0
C1654 C 0.76267 0.25281 0.29294 0.0
C1655 C 0.94601 0.13827 0.28291 0.0
C1656 C 1.01353 0.18643 0.28984 0.0
C1657 C 0.03031 0.18143 0.30846 0.0
C1658 C 0.06535 0.22495 0.277 0.0
C1659 C 0.13295 0.26346 0.28316 0.0
C1660 C 0.09749 0.22216 0.31473 0.0
C1661 C 0.14798 0.26493 0.3023 0.0
C1662 C 0.7627 0.92749 0.30317 0.0
C1663 C 0.67214 0.93507 0.26331 0.0
C1664 C 0.61685 0.78174 0.26269 0.0
C1665 C 0.53764 0.71414 0.26045 0.0
C1666 C 0.50188 0.72258 0.24559 0.0
C1667 C 0.49922 0.64051 0.26721 0.0
C1668 C 0.44268 0.58302 0.25625 0.0
C1669 C 0.46145 0.66873 0.23321 0.0
C1670 C 0.43503 0.60007 0.23811 0.0
C1671 C 0.85368 0.06186 0.23774 0.0
H1672 H 0.99288 0.14364 0.31794 0.0
H1673 H 0.0538 0.22167 0.26223 0.0
H1674 H 0.11154 0.21877 0.32894 0.0
H1675 H 0.19902 0.29599 0.30788 0.0
H1676 H 0.52207 0.77211 0.23999 0.0
H1677 H 0.50862 0.62645 0.28066 0.0
H1678 H 0.4478 0.68099 0.2198 0.0
H1679 H 0.39798 0.56069 0.22872 0.0
Gd1680 Gd 0.14668 0.85806 0.27652 0.0
Gd1681 Gd 0.3197 0.96706 0.25412 0.0
C1682 C 0.53537 0.23443 0.24886 0.0
C1683 C 0.60015 0.19122 0.22808 0.0
C1684 C 0.45739 0.1447 0.22295 0.0
C1685 C 0.48785 0.15013 0.24331 0.0
C1686 C 0.53305 0.14427 0.21599 0.0
C1687 C 0.60043 0.24101 0.24197 0.0
C1688 C 0.52307 0.26056 0.27125 0.0
C1689 C 0.47035 0.20336 0.28873 0.0
N1690 N 0.42602 0.08104 0.26584 0.0
C1691 C 0.4221 0.11344 0.28601 0.0
H1692 H 0.38441 0.08278 0.29643 0.0
C1693 C 0.33993 1.01409 0.20151 0.0
N1694 N 0.36102 0.0756 0.21661 0.0
C1695 C 0.46175 0.02425 0.18931 0.0
C1696 C 0.53271 0.08837 0.1989 0.0
H1697 H 0.28601 0.9729 0.20014 0.0
H1698 H 0.56964 0.26533 0.24288 0.0
H1699 H 0.13289 0.73778 0.24422 0.0
H1700 H 0.55732 0.31372 0.27498 0.0
H1701 H 0.46838 0.22409 0.30204 0.0
H1702 H 0.56368 0.16275 0.22038 0.0
H1703 H 0.12708 0.88208 0.32087 0.0
H1704 H 0.96063 0.54377 0.2611 0.0
H1705 H 0.05219 0.61481 0.23824 0.0
H1706 H 0.88425 0.60119 0.31627 0.0
H1707 H 0.47045 0.9888 0.18066 0.0
H1708 H 0.58208 0.09448 0.19509 0.0
H1709 H 0.8997 0.5375 0.29045 0.0
H1710 H 1.01844 0.83537 0.33727 0.0
N1711 N 0.09204 0.73668 0.27096 0.0
C1712 C 0.99804 0.59719 0.26402 0.0
C1713 C 0.04957 0.63717 0.25117 0.0
C1714 C 0.99387 0.62733 0.28043 0.0
C1715 C 0.04365 0.69735 0.28378 0.0
C1716 C 0.09644 0.70677 0.25485 0.0
N1717 N 0.09132 0.79517 0.30298 0.0
C1718 C 0.03996 0.72931 0.29956 0.0
C1719 C 1.02332 0.80448 0.3269 0.0
C1720 C 0.96844 0.73898 0.32279 0.0
C1721 C 0.08626 0.82992 0.31786 0.0
C1722 C 0.97921 0.69746 0.31038 0.0
H1723 H 0.91989 0.71941 0.3302 0.0
O1724 O 0.11335 0.91783 0.29081 0.0
O1725 O 0.24398 0.96329 0.2727 0.0
O1726 O 0.29933 0.96563 0.289 0.0
O1727 O 0.21173 0.85629 0.29894 0.0
O1728 O 0.15533 0.96129 0.26799 0.0
O1729 O 0.03956 0.8377 0.27152 0.0
O1730 O 0.36897 0.90346 0.24815 0.0
O1731 O 0.22606 0.85276 0.25798 0.0
O1732 O 0.10481 0.82878 0.25074 0.0
O1733 O 0.20332 0.91882 0.23583 0.0
O1734 O 0.32034 0.86783 0.26163 0.0
O1735 O 0.40494 0.96419 0.27205 0.0
C1736 C 0.22058 1.00266 0.26986 0.0
C1737 C 0.9299 0.62729 0.30759 0.0
C1738 C 0.93888 0.59118 0.29296 0.0
C1739 C 0.05342 0.88911 0.28293 0.0
C1740 C 1.00528 0.90849 0.28985 0.0
C1741 C 1.01027 0.93027 0.30848 0.0
C1742 C 0.96673 0.92174 0.27701 0.0
C1743 C 0.9282 0.95082 0.28317 0.0
C1744 C 0.96951 0.95669 0.31475 0.0
C1745 C 0.92672 0.96437 0.30232 0.0
C1746 C 0.26414 0.9164 0.30317 0.0
C1747 C 0.25659 0.81837 0.26334 0.0
C1748 C 0.40988 0.91614 0.26262 0.0
C1749 C 0.47748 0.90456 0.26037 0.0
C1750 C 0.46919 0.86055 0.24547 0.0
C1751 C 0.55104 0.93973 0.26717 0.0
C1752 C 0.60865 0.94086 0.25623 0.0
C1753 C 0.52317 0.87411 0.23312 0.0
C1754 C 0.59178 0.91632 0.23807 0.0
C1755 C 0.1298 0.87303 0.23774 0.0
H1756 H 0.04805 0.93061 0.31796 0.0
H1757 H 0.97 0.91346 0.26224 0.0
H1758 H 0.97288 0.97412 0.32896 0.0
H1759 H 0.89563 0.98431 0.30789 0.0
H1760 H 0.41974 0.83132 0.23981 0.0
H1761 H 0.56495 0.96303 0.28064 0.0
H1762 H 0.51106 0.84832 0.2197 0.0
H1763 H 0.63126 0.91875 0.22871 0.0
Gd1764 Gd 0.71296 0.99059 0.85106 0.0
Gd1765 Gd 0.77679 0.88143 0.87345 0.0
C1766 C 0.72524 0.61413 0.87869 0.0
C1767 C 0.83331 0.65748 0.89947 0.0
C1768 C 0.73696 0.70383 0.90462 0.0
C1769 C 0.76198 0.69842 0.88426 0.0
C1770 C 0.81308 0.70431 0.91158 0.0
C1771 C 0.78387 0.60773 0.88556 0.0
C1772 C 0.68679 0.58801 0.85631 0.0
C1773 C 0.69121 0.6452 0.83883 0.0
N1774 N 0.76917 0.76751 0.86173 0.0
C1775 C 0.73284 0.73512 0.84156 0.0
H1776 H 0.72579 0.76576 0.83114 0.0
C1777 C 0.75007 0.83441 0.92606 0.0
N1778 N 0.70964 0.77288 0.91097 0.0
C1779 C 0.86179 0.82435 0.93825 0.0
C1780 C 0.86866 0.76025 0.92866 0.0
H1781 H 0.7373 0.87557 0.92744 0.0
H1782 H 0.72874 0.58328 0.88464 0.0
H1783 H 0.81948 0.11087 0.88337 0.0
H1784 H 0.6679 0.53486 0.85257 0.0
H1785 H 0.66851 0.62448 0.82552 0.0
H1786 H 0.82526 0.68588 0.90718 0.0
H1787 H 0.66936 0.96658 0.80674 0.0
H1788 H 0.84107 0.30484 0.86651 0.0
H1789 H 0.86164 0.23383 0.88936 0.0
H1790 H 0.70738 0.24744 0.81133 0.0
H1791 H 0.90594 0.85981 0.9469 0.0
H1792 H 0.91193 0.75416 0.93246 0.0
H1793 H 0.78649 0.31114 0.83715 0.0
H1794 H 0.60742 1.01325 0.79033 0.0
N1795 N 0.77973 0.11198 0.85663 0.0
C1796 C 0.82512 0.25145 0.86359 0.0
C1797 C 0.83669 0.21147 0.87643 0.0
C1798 C 0.79085 0.22132 0.84717 0.0
C1799 C 0.77066 0.15131 0.84381 0.0
C1800 C 0.81403 0.14189 0.87274 0.0
N1801 N 0.72053 0.05351 0.82461 0.0
C1802 C 0.73502 0.11936 0.82803 0.0
C1803 C 0.64318 0.04416 0.8007 0.0
C1804 C 0.65379 0.10965 0.80481 0.0
C1805 C 0.6807 1.01874 0.80974 0.0
C1806 C 0.70609 0.15119 0.81721 0.0
H1807 H 0.6248 0.12921 0.79739 0.0
O1808 O 0.61982 0.93084 0.83679 0.0
O1809 O 0.70488 0.88531 0.85489 0.0
O1810 O 0.75789 0.8829 0.83857 0.0
O1811 O 0.77973 0.99227 0.82863 0.0
O1812 O 0.61835 0.88736 0.85954 0.0
O1813 O 0.62622 1.01101 0.85607 0.0
O1814 O 0.88971 0.94495 0.87934 0.0
O1815 O 0.79758 0.99575 0.8696 0.0
O1816 O 0.70044 0.01984 0.87685 0.0
O1817 O 0.70857 0.92957 0.89175 0.0
O1818 O 0.87674 0.98078 0.86613 0.0
O1819 O 0.86469 0.88408 0.85547 0.0
C1820 C 0.6421 0.84586 0.8577 0.0
C1821 C 0.72694 0.22136 0.82001 0.0
C1822 C 0.77201 0.25747 0.83463 0.0
C1823 C 0.58864 0.95956 0.84468 0.0
C1824 C 0.52111 0.9402 0.83775 0.0
C1825 C 0.50434 0.91843 0.81913 0.0
C1826 C 0.46928 0.92689 0.85059 0.0
C1827 C 0.40169 0.89785 0.84443 0.0
C1828 C 0.43718 0.89202 0.81285 0.0
C1829 C 0.38669 0.88434 0.82527 0.0
C1830 C 0.77196 0.93213 0.8244 0.0
C1831 C 0.86254 0.03027 0.86427 0.0
C1832 C 0.91779 0.93217 0.86485 0.0
C1833 C 0.997 0.94374 0.86708 0.0
C1834 C 0.03279 0.98798 0.88193 0.0
C1835 C 0.03543 0.90853 0.86032 0.0
C1836 C 0.09196 0.90754 0.87128 0.0
C1837 C 0.07322 0.97456 0.89431 0.0
C1838 C 0.09961 0.93229 0.88941 0.0
C1839 C 0.68096 0.97546 0.88983 0.0
H1840 H 0.54178 0.91808 0.80965 0.0
H1841 H 0.48081 0.93513 0.86536 0.0
H1842 H 0.42314 0.8746 0.79864 0.0
H1843 H 0.33567 0.8644 0.8197 0.0
H1844 H 1.01265 1.01738 0.88752 0.0
H1845 H 1.02603 0.88507 0.84687 0.0
H1846 H 0.08683 1.00043 0.90772 0.0
H1847 H 0.13664 0.92996 0.89881 0.0
Gd1848 Gd 0.2011 0.80362 0.85106 0.0
Gd1849 Gd 0.3101 0.97665 0.87345 0.0
C1850 C 0.57748 0.1923 0.8787 0.0
C1851 C 0.53426 0.2571 0.89948 0.0
C1852 C 0.48774 0.11436 0.90462 0.0
C1853 C 0.49317 0.1448 0.88426 0.0
C1854 C 0.48733 0.19003 0.91158 0.0
C1855 C 0.58404 0.25737 0.88558 0.0
C1856 C 0.6036 0.17998 0.85632 0.0
C1857 C 0.5464 0.12726 0.83884 0.0
N1858 N 0.42408 0.08296 0.86173 0.0
C1859 C 0.45647 0.07902 0.84156 0.0
H1860 H 0.42581 0.04133 0.83114 0.0
C1861 C 0.35712 0.99693 0.92606 0.0
N1862 N 0.41864 1.018 0.91097 0.0
C1863 C 0.3673 0.11877 0.93825 0.0
C1864 C 0.43143 0.18972 0.92866 0.0
H1865 H 0.31593 0.94302 0.92744 0.0
H1866 H 0.60838 0.22659 0.88468 0.0
H1867 H 0.08081 0.78982 0.88336 0.0
H1868 H 0.65676 0.21423 0.85258 0.0
H1869 H 0.56712 0.12527 0.82553 0.0
H1870 H 0.5058 0.22065 0.90718 0.0
H1871 H 0.22513 0.78401 0.80672 0.0
H1872 H 0.88678 0.61761 0.86646 0.0
H1873 H 0.95782 0.70915 0.88933 0.0
H1874 H 0.94423 0.54119 0.81131 0.0
H1875 H 0.33185 0.12748 0.9469 0.0
H1876 H 0.43754 0.23909 0.93247 0.0
H1877 H 0.88052 0.55665 0.83712 0.0
H1878 H 0.17841 0.67539 0.79031 0.0
N1879 N 0.07971 0.74898 0.85661 0.0
C1880 C 0.94021 0.655 0.86355 0.0
C1881 C 0.98018 0.70653 0.8764 0.0
C1882 C 0.97036 0.65081 0.84714 0.0
C1883 C 0.04039 0.70059 0.84379 0.0
C1884 C 0.0498 0.75339 0.87273 0.0
N1885 N 0.13821 0.74825 0.8246 0.0
C1886 C 0.07235 0.69689 0.82802 0.0
C1887 C 0.14753 0.68026 0.80069 0.0
C1888 C 0.08202 0.62537 0.80479 0.0
C1889 C 0.17297 0.74319 0.80972 0.0
C1890 C 0.0405 0.63614 0.8172 0.0
H1891 H 0.06245 0.57683 0.79738 0.0
O1892 O 0.26087 0.77029 0.83678 0.0
O1893 O 0.30633 0.90092 0.85488 0.0
O1894 O 0.30866 0.95627 0.83857 0.0
O1895 O 0.19932 0.86866 0.82863 0.0
O1896 O 0.30434 0.81228 0.85958 0.0
O1897 O 0.18074 0.6965 0.85607 0.0
O1898 O 0.24653 0.02597 0.8794 0.0
O1899 O 0.19579 0.88301 0.8696 0.0
O1900 O 0.17183 0.76178 0.87684 0.0
O1901 O 0.26192 0.86028 0.89176 0.0
O1902 O 0.21085 0.97729 0.86598 0.0
O1903 O 0.30729 0.06188 0.85551 0.0
C1904 C 0.3457 0.87753 0.85771 0.0
C1905 C 0.97032 0.58683 0.81999 0.0
C1906 C 0.93421 0.59582 0.83461 0.0
C1907 C 0.23217 0.71037 0.84467 0.0
C1908 C 0.25155 0.66223 0.83774 0.0
C1909 C 0.27331 0.66722 0.81912 0.0
C1910 C 0.26481 0.62368 0.85058 0.0
C1911 C 0.29383 0.58511 0.84442 0.0
C1912 C 0.29969 0.62643 0.81284 0.0
C1913 C 0.30733 0.58361 0.82526 0.0
C1914 C 0.25944 0.92107 0.8244 0.0
C1915 C 0.1614 0.91354 0.86424 0.0
C1916 C 0.25924 0.06686 0.86492 0.0
C1917 C 0.24768 0.13448 0.86717 0.0
C1918 C 0.20363 0.1262 0.88205 0.0
C1919 C 0.28285 0.20805 0.86036 0.0
C1920 C 0.28402 0.2657 0.87129 0.0
C1921 C 0.21721 0.18019 0.8944 0.0
C1922 C 0.25943 0.24879 0.88945 0.0
C1923 C 0.21612 0.78677 0.88984 0.0
H1924 H 0.27366 0.705 0.80964 0.0
H1925 H 0.25656 0.62696 0.86535 0.0
H1926 H 0.31712 0.62981 0.79863 0.0
H1927 H 0.32722 0.55248 0.81968 0.0
H1928 H 0.17436 0.07674 0.88771 0.0
H1929 H 0.30615 0.22195 0.84689 0.0
H1930 H 0.19146 0.16808 0.90783 0.0
H1931 H 0.26188 0.28826 0.89882 0.0
Gd1932 Gd 0.388 0.4787 0.85105 0.0
Gd1933 Gd 0.21498 0.41472 0.87345 0.0
C1934 C 0.99932 0.46642 0.8787 0.0
C1935 C 0.93454 0.35841 0.89948 0.0
C1936 C 0.07728 0.45466 0.90462 0.0
C1937 C 0.04683 0.42964 0.88426 0.0
C1938 C 1.00162 0.37858 0.91158 0.0
C1939 C 0.93426 0.40789 0.88558 0.0
C1940 C 1.01163 0.50485 0.85631 0.0
C1941 C 0.06436 0.50038 0.83883 0.0
N1942 N 0.10868 0.42239 0.86173 0.0
C1943 C 0.11261 0.45871 0.84156 0.0
H1944 H 0.1503 0.46575 0.83114 0.0
C1945 C 0.19474 0.44152 0.92606 0.0
N1946 N 0.17365 0.48194 0.91096 0.0
C1947 C 0.07292 0.32985 0.93826 0.0
C1948 C 1.00196 0.32301 0.92866 0.0
H1949 H 0.24866 0.45426 0.92744 0.0
H1950 H 0.96502 0.46301 0.88467 0.0
H1951 H 0.40178 0.37224 0.88337 0.0
H1952 H 0.97738 0.52376 0.85258 0.0
H1953 H 0.06634 0.52308 0.82552 0.0
H1954 H 0.971 0.36642 0.90718 0.0
H1955 H 0.40759 0.52226 0.8067 0.0
H1956 H 0.57409 0.35053 0.86651 0.0
H1957 H 0.48252 0.33 0.88936 0.0
H1958 H 0.65041 0.48419 0.81132 0.0
H1959 H 0.06422 0.2857 0.94691 0.0
H1960 H 0.95259 0.27975 0.93247 0.0
H1961 H 0.63497 0.40509 0.83714 0.0
H1962 H 0.51626 0.58422 0.79031 0.0
N1963 N 0.44262 0.41194 0.85662 0.0
C1964 C 0.53666 0.36651 0.86359 0.0
C1965 C 0.48512 0.35496 0.87643 0.0
C1966 C 0.54081 0.40077 0.84716 0.0
C1967 C 0.49101 0.42099 0.8438 0.0
C1968 C 0.43823 0.37766 0.87274 0.0
N1969 N 0.44334 0.47111 0.82459 0.0
C1970 C 0.4947 0.45661 0.82802 0.0
C1971 C 0.51136 0.54843 0.80068 0.0
C1972 C 0.56624 0.5378 0.80479 0.0
C1973 C 0.44841 0.51092 0.80971 0.0
C1974 C 0.55545 0.48551 0.8172 0.0
H1975 H 0.61479 0.56678 0.79738 0.0
O1976 O 0.42134 0.57178 0.83675 0.0
O1977 O 0.29072 0.48666 0.85487 0.0
O1978 O 0.23534 0.43365 0.83857 0.0
O1979 O 0.32292 0.41188 0.82863 0.0
O1980 O 0.37938 0.5733 0.85957 0.0
O1981 O 0.49513 0.56546 0.85604 0.0
O1982 O 0.16569 0.30185 0.87941 0.0
O1983 O 0.3086 0.39404 0.8696 0.0
O1984 O 0.42989 0.49133 0.87682 0.0
O1985 O 0.33136 0.48285 0.89175 0.0
O1986 O 0.21432 0.31484 0.86595 0.0
O1987 O 0.12973 0.32662 0.85551 0.0
C1988 C 0.31414 0.54943 0.8577 0.0
C1989 C 0.60476 0.46465 0.82 0.0
C1990 C 0.59579 0.41958 0.83463 0.0
C1991 C 0.48127 0.60299 0.84463 0.0
C1992 C 0.52942 0.67052 0.83771 0.0
C1993 C 0.52444 0.68732 0.81909 0.0
C1994 C 0.56795 0.72232 0.85055 0.0
C1995 C 0.60647 0.78993 0.8444 0.0
C1996 C 0.56519 0.7545 0.81282 0.0
C1997 C 0.60795 0.80497 0.82525 0.0
C1998 C 0.27052 0.4196 0.8244 0.0
C1999 C 0.27807 0.32912 0.86423 0.0
C2000 C 0.12479 0.27363 0.86494 0.0
C2001 C 0.05718 0.19444 0.86719 0.0
C2002 C 0.06551 0.15871 0.88208 0.0
C2003 C 0.9836 0.15606 0.8604 0.0
C2004 C 0.92603 0.09957 0.87135 0.0
C2005 C 1.01157 0.11827 0.89444 0.0
C2006 C 0.94294 0.09189 0.8895 0.0
C2007 C 0.40487 0.51055 0.88983 0.0
H2008 H 0.48667 0.64988 0.8096 0.0
H2009 H 0.56467 0.71076 0.86532 0.0
H2010 H 0.56182 0.76856 0.79861 0.0
H2011 H 0.63903 0.85601 0.81968 0.0
H2012 H 0.11499 0.17891 0.88772 0.0
H2013 H 0.96966 0.16546 0.84694 0.0
H2014 H 1.02372 0.10458 0.90785 0.0
H2015 H 0.90349 0.05484 0.89887 0.0
Gd2016 Gd 0.97681 0.74807 0.70679 0.0
Gd2017 Gd 0.86771 0.81197 0.68439 0.0
C2018 C 0.63699 0.73406 0.68047 0.0
C2019 C 0.63697 0.79802 0.65332 0.0
C2020 C 0.73897 0.78996 0.66136 0.0
C2021 C 0.70701 0.7543 0.67713 0.0
C2022 C 0.70715 0.81888 0.65054 0.0
C2023 C 0.60084 0.75291 0.66794 0.0
C2024 C 0.60683 0.69972 0.69689 0.0
C2025 C 0.64681 0.68816 0.70973 0.0
N2026 N 0.74633 0.74523 0.68995 0.0
C2027 C 0.71641 0.7109 0.70606 0.0
H2028 H 0.74741 0.70546 0.71669 0.0
C2029 C 0.83962 0.84429 0.64307 0.0
N2030 N 0.80483 0.80446 0.65793 0.0
C2031 C 0.81419 0.8818 0.63403 0.0
C2032 C 0.74869 0.87119 0.63813 0.0
H2033 H 0.89178 0.85563 0.64007 0.0
H2034 H 0.54716 0.7384 0.67045 0.0
H2035 H 0.09247 0.79902 0.66448 0.0
H2036 H 0.5534 0.6837 0.6998 0.0
H2037 H 0.62444 0.66318 0.72266 0.0
H2038 H 0.61089 0.81758 0.64465 0.0
H2039 H 0.98274 0.78772 0.76082 0.0
H2040 H 0.32337 0.85682 0.68588 0.0
H2041 H 0.23376 0.85629 0.65885 0.0
H2042 H 0.1723 0.69958 0.74051 0.0
H2043 H 0.84509 0.91754 0.62366 0.0
H2044 H 0.72913 0.90017 0.63072 0.0
H2045 H 0.27511 0.7961 0.71787 0.0
H2046 H 0.99842 0.61899 0.78025 0.0
N2047 N 0.09077 0.75571 0.69507 0.0
C2048 C 0.27026 0.8381 0.68964 0.0
C2049 C 0.21306 0.83365 0.67216 0.0
C2050 C 0.24411 0.7996 0.71203 0.0
C2051 C 0.15987 0.76293 0.7176 0.0
C2052 C 0.12315 0.79202 0.6749 0.0
N2053 N 0.08533 0.81524 0.7443 0.0
C2054 C 0.15439 0.78789 0.73796 0.0
C2055 C 0.03386 0.66311 0.77159 0.0
C2056 C 0.09794 0.65621 0.762 0.0
C2057 C 1.02379 0.77481 0.7594 0.0
C2058 C 0.15388 0.71176 0.74492 0.0
H2059 H 0.10402 0.61295 0.76581 0.0
O2060 O 0.91333 0.63516 0.71271 0.0
O2061 O 0.86243 0.7273 0.70293 0.0
O2062 O 0.83846 0.82451 0.71018 0.0
O2063 O 0.92867 0.8163 0.72509 0.0
O2064 O 0.87747 0.64806 0.69956 0.0
O2065 O 0.97411 0.66016 0.68881 0.0
O2066 O 0.92755 0.90511 0.67013 0.0
O2067 O 0.9729 0.81994 0.68822 0.0
O2068 O 0.97528 0.7669 0.67191 0.0
O2069 O 0.86594 0.74513 0.66197 0.0
O2070 O 0.97101 0.9065 0.6929 0.0
O2071 O 0.84734 0.89872 0.68939 0.0
C2072 C 0.82801 0.66228 0.69764 0.0
C2073 C 0.20076 0.69155 0.73283 0.0
C2074 C 0.25064 0.74108 0.71895 0.0
C2075 C 0.92607 0.60707 0.69821 0.0
C2076 C 0.91449 0.52786 0.70043 0.0
C2077 C 0.87027 0.49204 0.71528 0.0
C2078 C 0.94971 0.48944 0.69366 0.0
C2079 C 0.95074 0.43294 0.70463 0.0
C2080 C 0.88377 0.45169 0.72766 0.0
C2081 C 0.92607 0.42534 0.72277 0.0
C2082 C 0.8828 0.84393 0.72317 0.0
C2083 C 1.01245 0.88269 0.69104 0.0
C2084 C 0.89882 0.9363 0.67801 0.0
C2085 C 0.91819 1.00383 0.67109 0.0
C2086 C 0.93996 0.02061 0.65246 0.0
C2087 C 0.93142 0.05563 0.68392 0.0
C2088 C 0.96034 0.12321 0.67776 0.0
C2089 C 0.96628 0.08777 0.64619 0.0
C2090 C 0.97384 0.13821 0.65861 0.0
C2091 C 0.92605 0.75284 0.65773 0.0
H2092 H 0.84087 0.51217 0.72087 0.0
H2093 H 0.97312 0.49881 0.68021 0.0
H2094 H 0.85792 0.43808 0.74108 0.0
H2095 H 0.92844 0.38833 0.73217 0.0
H2096 H 0.94035 0.98319 0.64298 0.0
H2097 H 0.9232 0.0441 0.6987 0.0
H2098 H 0.98373 0.10184 0.63198 0.0
H2099 H 0.99371 0.18922 0.65303 0.0
Gd2100 Gd 0.44344 0.30988 0.70679 0.0
Gd2101 Gd 0.3796 0.13688 0.68439 0.0
C2102 C 0.45748 0.98404 0.6805 0.0
C2103 C 0.39357 0.9201 0.65334 0.0
C2104 C 0.40165 0.03017 0.66136 0.0
C2105 C 0.43728 0.03385 0.67714 0.0
C2106 C 0.37272 0.96941 0.65054 0.0
C2107 C 0.43865 0.92906 0.66796 0.0
C2108 C 0.49176 0.98819 0.69692 0.0
C2109 C 0.50333 0.03975 0.70976 0.0
N2110 N 0.44635 0.08226 0.68995 0.0
C2111 C 0.48066 0.08667 0.70607 0.0
H2112 H 0.48611 0.12313 0.7167 0.0
C2113 C 0.34734 0.07648 0.64306 0.0
N2114 N 0.38717 0.08154 0.65793 0.0
C2115 C 0.3098 1.01353 0.63404 0.0
C2116 C 0.32041 0.95864 0.63814 0.0
H2117 H 0.33601 0.11731 0.64006 0.0
H2118 H 0.45313 0.88987 0.67048 0.0
H2119 H 0.39247 0.37455 0.66448 0.0
H2120 H 0.50773 0.95076 0.69985 0.0
H2121 H 0.52829 0.04236 0.72269 0.0
H2122 H 0.37401 0.87445 0.64466 0.0
H2123 H 0.40376 0.27616 0.76082 0.0
H2124 H 0.33467 0.54766 0.68586 0.0
H2125 H 0.33521 0.45858 0.65884 0.0
H2126 H 0.49193 0.55386 0.74051 0.0
H2127 H 0.27403 1.00866 0.62366 0.0
H2128 H 0.29142 0.9101 0.63073 0.0
H2129 H 0.39542 0.56015 0.71785 0.0
H2130 H 0.5725 0.46057 0.78025 0.0
N2131 N 0.43579 0.41618 0.69506 0.0
C2132 C 0.3534 0.51328 0.68963 0.0
C2133 C 0.35785 0.46052 0.67216 0.0
C2134 C 0.3919 0.52564 0.71202 0.0
C2135 C 0.42857 0.47807 0.71759 0.0
C2136 C 0.39947 0.41224 0.6749 0.0
N2137 N 0.37626 0.35123 0.7443 0.0
C2138 C 0.40361 0.44763 0.73796 0.0
C2139 C 0.52838 0.45189 0.77159 0.0
C2140 C 0.53528 0.52286 0.76199 0.0
C2141 C 0.41668 0.33011 0.7594 0.0
C2142 C 0.47974 0.52326 0.74492 0.0
H2143 H 0.57855 0.57221 0.76581 0.0
O2144 O 0.55633 0.35929 0.71272 0.0
O2145 O 0.46423 0.21629 0.70292 0.0
O2146 O 0.36704 0.09508 0.71017 0.0
O2147 O 0.37525 0.1935 0.72508 0.0
O2148 O 0.54345 0.31057 0.69954 0.0
O2149 O 0.5314 0.3951 0.68882 0.0
O2150 O 0.28647 0.10356 0.67011 0.0
O2151 O 0.37158 0.23407 0.68822 0.0
O2152 O 0.42463 0.28954 0.67191 0.0
O2153 O 0.44644 0.20199 0.66197 0.0
O2154 O 0.28504 0.1456 0.69289 0.0
O2155 O 0.29285 0.02975 0.68938 0.0
C2156 C 0.52924 0.24689 0.69763 0.0
C2157 C 0.49997 0.59035 0.73282 0.0
C2158 C 0.45045 0.5907 0.71894 0.0
C2159 C 0.58446 0.40013 0.69822 0.0
C2160 C 0.66367 0.46773 0.70046 0.0
C2161 C 0.69946 0.45928 0.7153 0.0
C2162 C 0.70208 0.54138 0.6937 0.0
C2163 C 0.7586 0.59884 0.70468 0.0
C2164 C 0.73984 0.51309 0.7277 0.0
C2165 C 0.7662 0.58175 0.72282 0.0
C2166 C 0.34764 0.12001 0.72316 0.0
C2167 C 0.30883 0.21085 0.69104 0.0
C2168 C 0.25529 0.04363 0.67798 0.0
C2169 C 0.18776 0.99547 0.67106 0.0
C2170 C 0.17096 1.00045 0.65244 0.0
C2171 C 0.13597 0.95691 0.6839 0.0
C2172 C 0.06838 0.9183 0.67775 0.0
C2173 C 0.10378 0.95964 0.64617 0.0
C2174 C 0.05333 0.91681 0.6586 0.0
C2175 C 0.43871 0.25438 0.65773 0.0
H2176 H 0.6793 0.40973 0.72088 0.0
H2177 H 0.69269 0.55546 0.68025 0.0
H2178 H 0.75349 0.5008 0.7411 0.0
H2179 H 0.80323 0.62111 0.73221 0.0
H2180 H 0.20838 0.03825 0.64296 0.0
H2181 H 0.14753 0.96022 0.69868 0.0
H2182 H 0.08971 0.96302 0.63196 0.0
H2183 H 1.0023 0.88571 0.65303 0.0
Gd2184 Gd 0.88163 0.2148 0.70678 0.0
Gd2185 Gd 0.05465 0.32378 0.68438 0.0
C2186 C 0.20745 0.55452 0.68047 0.0
C2187 C 0.27142 0.55458 0.65332 0.0
C2188 C 0.16137 0.45255 0.66134 0.0
C2189 C 0.15768 0.4845 0.67712 0.0
C2190 C 0.22212 0.4844 0.65052 0.0
C2191 C 0.26243 0.59069 0.66794 0.0
C2192 C 0.20326 0.58467 0.69688 0.0
C2193 C 0.15174 0.54467 0.70973 0.0
N2194 N 0.10929 0.44516 0.68994 0.0
C2195 C 0.10489 0.47506 0.70606 0.0
H2196 H 0.06846 0.44405 0.71669 0.0
C2197 C 0.11507 0.35193 0.64304 0.0
N2198 N 0.11002 0.38668 0.65792 0.0
C2199 C 0.17803 0.37737 0.63401 0.0
C2200 C 0.2329 0.44288 0.63812 0.0
H2201 H 0.07425 0.29977 0.64003 0.0
H2202 H 0.3016 0.64437 0.67045 0.0
H2203 H 0.81692 0.09909 0.66447 0.0
H2204 H 0.24065 0.6381 0.6998 0.0
H2205 H 0.14911 0.56704 0.72266 0.0
H2206 H 0.31706 0.58068 0.64464 0.0
H2207 H 0.91536 0.20887 0.76082 0.0
H2208 H 0.64394 0.86816 0.68588 0.0
H2209 H 0.73296 0.95779 0.65885 0.0
H2210 H 0.63766 1.01917 0.74051 0.0
H2211 H 0.18292 0.34649 0.62364 0.0
H2212 H 0.28145 0.46246 0.6307 0.0
H2213 H 0.63151 0.91639 0.71789 0.0
H2214 H 0.7309 0.19307 0.78025 0.0
N2215 N 0.77532 0.10079 0.69506 0.0
C2216 C 0.6783 0.92128 0.68964 0.0
C2217 C 0.73101 0.97849 0.67216 0.0
C2218 C 0.66595 0.94742 0.71204 0.0
C2219 C 0.71348 0.03168 0.7176 0.0
C2220 C 0.77926 0.0684 0.6749 0.0
N2221 N 0.84033 0.10628 0.74429 0.0
C2222 C 0.74393 0.03719 0.73796 0.0
C2223 C 0.73959 0.15763 0.77159 0.0
C2224 C 0.66864 0.09354 0.76199 0.0
C2225 C 0.86142 0.16781 0.75939 0.0
C2226 C 0.66828 0.03763 0.74491 0.0
H2227 H 0.61928 0.08743 0.76581 0.0
O2228 O 0.83228 0.27831 0.71277 0.0
O2229 O 0.97532 0.32916 0.70292 0.0
O2230 O 0.09656 0.35304 0.71015 0.0
O2231 O 0.99801 0.26303 0.72508 0.0
O2232 O 0.8809 0.31402 0.69939 0.0
O2233 O 0.79641 0.21766 0.68885 0.0
O2234 O 0.08793 0.26396 0.67009 0.0
O2235 O 0.95737 0.21863 0.6882 0.0
O2236 O 0.90198 0.21629 0.67191 0.0
O2237 O 0.9896 0.32561 0.66196 0.0
O2238 O 0.04591 0.22051 0.69292 0.0
O2239 O 0.16175 0.34412 0.68936 0.0
C2240 C 0.94463 0.36344 0.69761 0.0
C2241 C 0.60117 0.99066 0.73283 0.0
C2242 C 0.60085 0.94076 0.71897 0.0
C2243 C 0.79143 0.26567 0.69828 0.0
C2244 C 0.72383 0.27727 0.70052 0.0
C2245 C 0.73215 0.32135 0.7154 0.0
C2246 C 0.65024 0.24206 0.69373 0.0
C2247 C 0.59267 0.24096 0.70469 0.0
C2248 C 0.67822 0.30778 0.72777 0.0
C2249 C 0.6096 0.26551 0.72285 0.0
C2250 C 0.07152 0.30883 0.72316 0.0
C2251 C 0.98065 0.17918 0.69104 0.0
C2252 C 0.14787 0.2927 0.67796 0.0
C2253 C 0.19601 0.27332 0.67104 0.0
C2254 C 0.19104 0.25153 0.65242 0.0
C2255 C 0.23459 0.26012 0.68389 0.0
C2256 C 0.27321 0.23115 0.67774 0.0
C2257 C 0.23187 0.22519 0.64616 0.0
C2258 C 0.27472 0.2176 0.65859 0.0
C2259 C 0.93717 0.26552 0.65773 0.0
H2260 H 0.78163 0.35063 0.72104 0.0
H2261 H 0.63629 0.21872 0.68027 0.0
H2262 H 0.69038 0.33361 0.74119 0.0
H2263 H 0.57016 0.26309 0.73222 0.0
H2264 H 0.15326 0.25116 0.64294 0.0
H2265 H 0.23128 0.26838 0.69866 0.0
H2266 H 0.22851 0.20774 0.63195 0.0
H2267 H 0.30584 0.19769 0.65302 0.0
Gd2268 Gd 0.42452 0.30045 0.08745 0.0
Gd2269 Gd 0.48835 0.19128 0.10984 0.0
C2270 C 0.41044 0.96055 0.11373 0.0
C2271 C 0.47434 0.96049 0.14089 0.0
C2272 C 0.46628 0.0625 0.13287 0.0
C2273 C 0.43065 0.03056 0.11709 0.0
C2274 C 0.49521 0.03067 0.14369 0.0
C2275 C 0.42926 0.92438 0.12627 0.0
C2276 C 0.37615 0.93042 0.09731 0.0
C2277 C 0.36459 0.9704 0.08447 0.0
N2278 N 0.42159 0.0699 0.10427 0.0
C2279 C 0.38729 0.04 0.08816 0.0
H2280 H 0.38185 0.07101 0.07753 0.0
C2281 C 0.52062 0.16314 0.15116 0.0
N2282 N 0.48078 0.12836 0.1363 0.0
C2283 C 0.55814 0.13771 0.16019 0.0
C2284 C 0.54751 0.0722 0.15609 0.0
H2285 H 0.53196 0.21529 0.15417 0.0
H2286 H 0.41477 0.87071 0.12375 0.0
H2287 H 0.47551 0.4161 0.12976 0.0
H2288 H 0.36017 0.87701 0.09439 0.0
H2289 H 0.33962 0.94805 0.07154 0.0
H2290 H 0.4939 0.9344 0.14957 0.0
H2291 H 0.46414 0.30639 0.03341 0.0
H2292 H 0.53331 0.647 0.10837 0.0
H2293 H 0.53278 0.55738 0.1354 0.0
H2294 H 0.376 0.49593 0.05374 0.0
H2295 H 0.59391 0.16861 0.17056 0.0
H2296 H 0.57649 0.05264 0.1635 0.0
H2297 H 0.47252 0.59873 0.07639 0.0
H2298 H 0.29539 0.32206 0.014 0.0
N2299 N 0.43218 0.4144 0.09917 0.0
C2300 C 0.51458 0.59389 0.10461 0.0
C2301 C 0.51013 0.53669 0.12208 0.0
C2302 C 0.47606 0.56774 0.08221 0.0
C2303 C 0.43938 0.4835 0.07665 0.0
C2304 C 0.46851 0.44678 0.11934 0.0
N2305 N 0.49166 0.40897 0.04994 0.0
C2306 C 0.46432 0.47803 0.05628 0.0
C2307 C 0.33951 0.3575 0.02266 0.0
C2308 C 0.33263 0.42158 0.03225 0.0
C2309 C 0.45123 0.34743 0.03484 0.0
C2310 C 0.38819 0.47752 0.04932 0.0
H2311 H 0.28936 0.42766 0.02844 0.0
O2312 O 0.3116 0.23701 0.08155 0.0
O2313 O 0.40372 0.18606 0.0913 0.0
O2314 O 0.50089 0.16206 0.08405 0.0
O2315 O 0.49275 0.25231 0.06915 0.0
O2316 O 0.32449 0.20111 0.09466 0.0
O2317 O 0.33664 0.2978 0.10544 0.0
O2318 O 0.58149 0.25109 0.12411 0.0
O2319 O 0.49637 0.29649 0.10602 0.0
O2320 O 0.44334 0.29891 0.12233 0.0
O2321 O 0.42153 0.18955 0.13227 0.0
O2322 O 0.58292 0.29457 0.10135 0.0
O2323 O 0.57509 0.17089 0.10484 0.0
C2324 C 0.3387 0.15165 0.09658 0.0
C2325 C 0.36796 0.52437 0.06143 0.0
C2326 C 0.41749 0.57424 0.07531 0.0
C2327 C 0.28353 0.24975 0.09605 0.0
C2328 C 0.20432 0.23816 0.09383 0.0
C2329 C 0.16849 0.19387 0.079 0.0
C2330 C 0.1659 0.27341 0.10058 0.0
C2331 C 0.10938 0.27437 0.08961 0.0
C2332 C 0.12812 0.20729 0.0666 0.0
C2333 C 0.10178 0.24961 0.07147 0.0
C2334 C 0.52036 0.20643 0.07107 0.0
C2335 C 0.55913 0.33603 0.1032 0.0
C2336 C 0.61268 0.22235 0.11623 0.0
C2337 C 0.6802 0.24172 0.12315 0.0
C2338 C 0.69699 0.26348 0.14178 0.0
C2339 C 0.73201 0.25498 0.11031 0.0
C2340 C 0.7996 0.28392 0.11648 0.0
C2341 C 0.76415 0.28983 0.14805 0.0
C2342 C 0.81461 0.29743 0.13563 0.0
C2343 C 0.42926 0.24967 0.1365 0.0
H2344 H 0.1886 0.1644 0.07344 0.0
H2345 H 0.17529 0.29691 0.11402 0.0
H2346 H 0.11451 0.18137 0.05319 0.0
H2347 H 0.06477 0.25193 0.06207 0.0
H2348 H 0.65956 0.26385 0.15126 0.0
H2349 H 0.72048 0.24677 0.09554 0.0
H2350 H 0.77821 0.30726 0.16226 0.0
H2351 H 0.86563 0.31733 0.1412 0.0
Gd2352 Gd 0.8912 0.20524 0.08745 0.0
Gd2353 Gd 1.00018 0.37826 0.10985 0.0
C2354 C 0.23093 0.53104 0.11377 0.0
C2355 C 0.23097 0.59502 0.14092 0.0
C2356 C 0.12893 0.48498 0.13289 0.0
C2357 C 0.16089 0.48129 0.11711 0.0
C2358 C 0.16079 0.54573 0.14371 0.0
C2359 C 0.26709 0.58603 0.1263 0.0
C2360 C 0.26109 0.52684 0.09736 0.0
C2361 C 0.2211 0.47533 0.08451 0.0
N2362 N 0.12156 0.43291 0.10429 0.0
C2363 C 0.15147 0.4285 0.08818 0.0
H2364 H 0.12046 0.39207 0.07754 0.0
C2365 C 1.0283 0.43868 0.15118 0.0
N2366 N 0.06307 0.43363 0.13631 0.0
C2367 C 0.05376 0.50163 0.16022 0.0
C2368 C 0.11927 0.5565 0.15612 0.0
H2369 H 0.97614 0.39787 0.15419 0.0
H2370 H 0.32078 0.62519 0.12379 0.0
H2371 H 0.7755 0.14054 0.12976 0.0
H2372 H 0.31452 0.56421 0.09445 0.0
H2373 H 0.24347 0.47269 0.07158 0.0
H2374 H 0.25707 0.64066 0.1496 0.0
H2375 H 0.88528 0.23894 0.03341 0.0
H2376 H 0.54457 0.96756 0.10835 0.0
H2377 H 0.6342 0.05659 0.13539 0.0
H2378 H 0.69558 0.96127 0.05373 0.0
H2379 H 1.02288 0.5065 0.1706 0.0
H2380 H 0.13885 0.60505 0.16353 0.0
H2381 H 0.59279 0.95511 0.07635 0.0
H2382 H 0.86946 0.05447 0.01399 0.0
N2383 N 0.77719 0.09893 0.09917 0.0
C2384 C 0.59768 1.00192 0.1046 0.0
C2385 C 0.65489 0.05464 0.12207 0.0
C2386 C 0.62383 0.98956 0.0822 0.0
C2387 C 0.70808 0.03708 0.07664 0.0
C2388 C 0.74481 0.10287 0.11934 0.0
N2389 N 0.78268 0.16392 0.04994 0.0
C2390 C 0.71359 0.06753 0.05628 0.0
C2391 C 0.83404 0.06318 0.02265 0.0
C2392 C 0.76994 0.99223 0.03225 0.0
C2393 C 0.84421 0.185 0.03484 0.0
C2394 C 0.71403 0.99188 0.04932 0.0
H2395 H 0.76382 0.94286 0.02843 0.0
O2396 O 0.95469 0.15584 0.08148 0.0
O2397 O 1.00556 0.29893 0.09131 0.0
O2398 O 0.02943 0.42013 0.08407 0.0
O2399 O 0.93938 0.3216 0.06915 0.0
O2400 O 0.99044 0.2045 0.09481 0.0
O2401 O 0.89401 0.12002 0.1054 0.0
O2402 O 0.94035 0.41154 0.12413 0.0
O2403 O 0.89503 0.28097 0.10603 0.0
O2404 O 0.8927 0.2256 0.12233 0.0
O2405 O 1.00202 0.31322 0.13227 0.0
O2406 O 0.89689 0.3695 0.10131 0.0
O2407 O 1.02051 0.48536 0.10485 0.0
C2408 C 0.03985 0.26823 0.09661 0.0
C2409 C 0.66707 0.92478 0.06141 0.0
C2410 C 0.61718 0.92447 0.07528 0.0
C2411 C 0.94202 0.115 0.09597 0.0
C2412 C 0.95359 0.04737 0.09374 0.0
C2413 C 0.99769 0.05569 0.07887 0.0
C2414 C 0.91839 0.97379 0.10054 0.0
C2415 C 0.91724 0.91617 0.08959 0.0
C2416 C 0.98411 1.00175 0.06651 0.0
C2417 C 0.94182 0.93314 0.07144 0.0
C2418 C 0.98518 0.39512 0.07107 0.0
C2419 C 0.85557 0.30424 0.10319 0.0
C2420 C 0.96907 0.47147 0.11625 0.0
C2421 C 0.94969 0.51961 0.12317 0.0
C2422 C 0.92794 0.51466 0.14179 0.0
C2423 C 0.93647 0.55818 0.11033 0.0
C2424 C 0.90755 0.59685 0.11649 0.0
C2425 C 0.90162 0.5555 0.14806 0.0
C2426 C 0.89406 0.59837 0.13564 0.0
C2427 C 0.94193 0.26079 0.13651 0.0
H2428 H 1.02701 0.10517 0.07324 0.0
H2429 H 0.89506 0.95985 0.11401 0.0
H2430 H 1.0099 1.0139 0.05308 0.0
H2431 H 0.93939 0.8937 0.06205 0.0
H2432 H 0.92757 0.47687 0.15128 0.0
H2433 H 0.9447 0.55487 0.09555 0.0
H2434 H 0.88419 0.55215 0.16227 0.0
H2435 H 0.8742 0.62952 0.14121 0.0
Gd2436 Gd 0.9863 0.76714 0.08745 0.0
Gd2437 Gd 0.81329 0.70315 0.10986 0.0
C2438 C 0.66049 0.7811 0.11375 0.0
C2439 C 0.59655 0.71724 0.14091 0.0
C2440 C 0.70659 0.72525 0.13288 0.0
C2441 C 0.71028 0.76087 0.1171 0.0
C2442 C 0.64584 0.69636 0.1437 0.0
C2443 C 0.60552 0.76231 0.12628 0.0
C2444 C 0.66465 0.81538 0.09732 0.0
C2445 C 0.71618 0.82692 0.08448 0.0
N2446 N 0.75866 0.7699 0.10428 0.0
C2447 C 0.76306 0.80418 0.08816 0.0
H2448 H 0.79949 0.8096 0.07753 0.0
C2449 C 0.75288 0.67093 0.15119 0.0
N2450 N 0.75794 0.71074 0.13631 0.0
C2451 C 0.68992 0.63341 0.16022 0.0
C2452 C 0.63506 0.64406 0.15611 0.0
H2453 H 0.7937 0.65959 0.1542 0.0
H2454 H 0.56635 0.77682 0.12377 0.0
H2455 H 0.05098 0.71612 0.12976 0.0
H2456 H 0.62725 0.83139 0.0944 0.0
H2457 H 0.7188 0.85189 0.07155 0.0
H2458 H 0.55091 0.69771 0.14959 0.0
H2459 H 0.95258 0.72748 0.03341 0.0
H2460 H 0.22395 0.65816 0.10835 0.0
H2461 H 0.13493 0.65877 0.13539 0.0
H2462 H 0.23026 0.81548 0.05373 0.0
H2463 H 0.68502 0.59762 0.17059 0.0
H2464 H 0.58651 0.6151 0.16353 0.0
H2465 H 0.23643 0.71886 0.07635 0.0
H2466 H 0.13705 0.89615 0.01399 0.0
N2467 N 0.0926 0.75942 0.09917 0.0
C2468 C 0.18961 0.67692 0.1046 0.0
C2469 C 0.13689 0.68142 0.12207 0.0
C2470 C 0.20197 0.71543 0.0822 0.0
C2471 C 0.15444 0.75216 0.07664 0.0
C2472 C 0.08865 0.72309 0.11934 0.0
N2473 N 1.0276 0.69992 0.04994 0.0
C2474 C 0.124 0.72722 0.05628 0.0
C2475 C 0.12835 0.85202 0.02264 0.0
C2476 C 0.1993 0.85887 0.03224 0.0
C2477 C 1.00652 0.74037 0.03484 0.0
C2478 C 0.19965 0.80331 0.04932 0.0
H2479 H 0.24866 0.90212 0.02843 0.0
O2480 O 0.03567 0.88 0.08147 0.0
O2481 O 0.89263 0.78783 0.09131 0.0
O2482 O 0.77139 0.69049 0.08409 0.0
O2483 O 0.86993 0.699 0.06916 0.0
O2484 O 0.98706 0.8671 0.09484 0.0
O2485 O 0.07154 0.85521 0.10539 0.0
O2486 O 0.77999 0.61006 0.12415 0.0
O2487 O 0.91055 0.69525 0.10603 0.0
O2488 O 0.96598 0.7483 0.12233 0.0
O2489 O 0.87838 0.77003 0.13227 0.0
O2490 O 0.822 0.6086 0.10132 0.0
O2491 O 0.70618 0.61639 0.10487 0.0
C2492 C 0.92333 0.8528 0.09662 0.0
C2493 C 0.26675 0.82346 0.06141 0.0
C2494 C 0.26706 0.77388 0.07528 0.0
C2495 C 0.07653 0.90821 0.09596 0.0
C2496 C 0.14412 0.98741 0.09372 0.0
C2497 C 0.13576 0.02317 0.07884 0.0
C2498 C 0.21772 0.02579 0.10049 0.0
C2499 C 0.27527 0.08226 0.08953 0.0
C2500 C 0.18966 0.06356 0.06647 0.0
C2501 C 0.25829 0.08989 0.07138 0.0
C2502 C 0.79641 0.6713 0.07107 0.0
C2503 C 0.88725 0.63251 0.1032 0.0
C2504 C 0.72005 0.57886 0.11628 0.0
C2505 C 0.6719 0.51133 0.1232 0.0
C2506 C 0.67686 0.49451 0.14182 0.0
C2507 C 0.63335 0.45955 0.11035 0.0
C2508 C 0.59475 0.39195 0.1165 0.0
C2509 C 0.63605 0.42733 0.14808 0.0
C2510 C 0.59325 0.37689 0.13565 0.0
C2511 C 0.9308 0.76235 0.13651 0.0
H2512 H 0.08626 1.003 0.07323 0.0
H2513 H 0.2317 1.01638 0.11395 0.0
H2514 H 0.17746 0.07725 0.05306 0.0
H2515 H 0.29771 0.12693 0.062 0.0
H2516 H 0.71463 0.53194 0.15131 0.0
H2517 H 0.63666 0.47112 0.09558 0.0
H2518 H 0.63941 0.41325 0.16229 0.0
H2519 H 0.56215 0.32584 0.14122 0.0
Gd2520 Gd 1.00026 0.70321 0.60984 0.0
Gd2521 Gd 0.89116 0.7671 0.58745 0.0
C2522 C 0.62386 0.71555 0.58221 0.0
C2523 C 0.66718 0.8236 0.56142 0.0
C2524 C 0.71355 0.72727 0.55628 0.0
C2525 C 0.70815 0.75229 0.57664 0.0
C2526 C 0.71403 0.80338 0.54932 0.0
C2527 C 0.61742 0.77415 0.57533 0.0
C2528 C 0.59773 0.67712 0.60459 0.0
C2529 C 0.65491 0.68155 0.62207 0.0
N2530 N 0.77723 0.7595 0.59917 0.0
C2531 C 0.74483 0.72318 0.61934 0.0
H2532 H 0.77548 0.71612 0.62976 0.0
C2533 C 0.84414 0.74036 0.53484 0.0
N2534 N 0.7826 0.69994 0.54993 0.0
C2535 C 0.83408 0.85208 0.52265 0.0
C2536 C 0.76997 0.85895 0.53224 0.0
H2537 H 0.8853 0.72759 0.53347 0.0
H2538 H 0.59299 0.71903 0.57625 0.0
H2539 H 0.12057 0.80973 0.57755 0.0
H2540 H 0.54457 0.65825 0.60833 0.0
H2541 H 0.63419 0.65885 0.63538 0.0
H2542 H 0.6956 0.81555 0.55372 0.0
H2543 H 0.9762 0.65956 0.65417 0.0
H2544 H 0.31455 0.83141 0.59443 0.0
H2545 H 0.24353 0.85195 0.57157 0.0
H2546 H 0.25707 0.69757 0.64959 0.0
H2547 H 0.86954 0.89622 0.514 0.0
H2548 H 0.76389 0.90222 0.52843 0.0
H2549 H 0.3208 0.77673 0.62378 0.0
H2550 H 1.02289 0.59765 0.67059 0.0
N2551 N 0.12165 0.76996 0.60429 0.0
C2552 C 0.26114 0.81542 0.59735 0.0
C2553 C 0.22117 0.82699 0.5845 0.0
C2554 C 0.23098 0.7811 0.61376 0.0
C2555 C 0.16097 0.76088 0.61711 0.0
C2556 C 0.15157 0.80429 0.58818 0.0
N2557 N 0.06314 0.71073 0.6363 0.0
C2558 C 0.129 0.72522 0.63288 0.0
C2559 C 0.05379 0.6334 0.66021 0.0
C2560 C 0.11928 0.64399 0.65611 0.0
C2561 C 1.02836 0.6709 0.65117 0.0
C2562 C 0.16082 0.69629 0.6437 0.0
H2563 H 0.13883 0.615 0.66352 0.0
O2564 O 0.94048 0.61007 0.62411 0.0
O2565 O 0.895 0.69517 0.60602 0.0
O2566 O 0.89262 0.74818 0.62233 0.0
O2567 O 1.00198 0.76999 0.63227 0.0
O2568 O 0.89701 0.60863 0.60135 0.0
O2569 O 1.02066 0.61647 0.60483 0.0
O2570 O 0.95471 0.88002 0.58155 0.0
O2571 O 1.00548 0.78787 0.59131 0.0
O2572 O 0.02953 0.69069 0.58405 0.0
O2573 O 0.93931 0.69888 0.56915 0.0
O2574 O 0.99051 0.86703 0.59478 0.0
O2575 O 0.89384 0.85502 0.60543 0.0
C2576 C 0.85554 0.6324 0.6032 0.0
C2577 C 0.23099 0.71714 0.64091 0.0
C2578 C 0.26712 0.76224 0.62629 0.0
C2579 C 0.9692 0.57888 0.61622 0.0
C2580 C 0.94983 0.51136 0.62315 0.0
C2581 C 0.92806 0.49459 0.64177 0.0
C2582 C 0.93655 0.45954 0.61031 0.0
C2583 C 0.90753 0.39195 0.61648 0.0
C2584 C 0.90168 0.42743 0.64805 0.0
C2585 C 0.89403 0.37695 0.63563 0.0
C2586 C 0.94185 0.76224 0.63651 0.0
C2587 C 0.04 0.85282 0.59664 0.0
C2588 C 0.94193 0.90812 0.59604 0.0
C2589 C 0.95349 0.98732 0.5938 0.0
C2590 C 0.99767 0.0231 0.57894 0.0
C2591 C 0.91831 0.02575 0.60058 0.0
C2592 C 0.91727 0.08227 0.58963 0.0
C2593 C 0.98418 0.06351 0.56657 0.0
C2594 C 0.94195 0.08991 0.57149 0.0
C2595 C 0.98517 0.67124 0.57107 0.0
H2596 H 0.9277 0.53202 0.65125 0.0
H2597 H 0.9448 0.47106 0.59554 0.0
H2598 H 0.88424 0.41338 0.66226 0.0
H2599 H 0.87413 0.32594 0.64121 0.0
H2600 H 1.02702 1.00294 0.57333 0.0
H2601 H 0.89491 1.01637 0.61404 0.0
H2602 H 1.00999 0.07711 0.55315 0.0
H2603 H 0.93957 0.12693 0.5621 0.0
Gd2604 Gd 0.48835 0.37827 0.60984 0.0
Gd2605 Gd 0.42451 0.20528 0.58745 0.0
C2606 C 0.47605 0.98953 0.58221 0.0
C2607 C 0.368 0.92481 0.56142 0.0
C2608 C 0.46436 0.06752 0.55628 0.0
C2609 C 0.43933 0.03708 0.57665 0.0
C2610 C 0.38825 0.99189 0.54932 0.0
C2611 C 0.41743 0.9245 0.57534 0.0
C2612 C 0.51448 1.00184 0.6046 0.0
C2613 C 0.51005 0.0546 0.62207 0.0
N2614 N 0.43212 0.09897 0.59917 0.0
C2615 C 0.46843 0.10289 0.61934 0.0
H2616 H 0.4755 0.1406 0.62976 0.0
C2617 C 0.4513 0.18502 0.53484 0.0
N2618 N 0.4917 0.1639 0.54994 0.0
C2619 C 0.33958 0.06324 0.52264 0.0
C2620 C 0.33269 0.99226 0.53224 0.0
H2621 H 0.46407 0.23895 0.53347 0.0
H2622 H 0.47255 0.95517 0.57626 0.0
H2623 H 0.38182 0.39202 0.57754 0.0
H2624 H 0.53336 0.96756 0.60834 0.0
H2625 H 0.53275 0.05658 0.63539 0.0
H2626 H 0.37607 0.96128 0.55372 0.0
H2627 H 0.53192 0.39785 0.65418 0.0
H2628 H 0.36029 0.56445 0.59437 0.0
H2629 H 0.33969 0.47283 0.57153 0.0
H2630 H 0.49394 0.64072 0.64957 0.0
H2631 H 0.29544 0.05456 0.514 0.0
H2632 H 0.28942 0.94291 0.52843 0.0
H2633 H 0.41484 0.62531 0.62375 0.0
H2634 H 0.59389 0.50649 0.67057 0.0
N2635 N 0.42158 0.43289 0.60428 0.0
C2636 C 0.37623 0.52699 0.59731 0.0
C2637 C 0.36464 0.47543 0.58447 0.0
C2638 C 0.41048 0.53112 0.61373 0.0
C2639 C 0.43065 0.4813 0.61709 0.0
C2640 C 0.38728 0.42849 0.58816 0.0
N2641 N 0.48076 0.43361 0.6363 0.0
C2642 C 0.46628 0.48498 0.63287 0.0
C2643 C 0.55812 0.50162 0.6602 0.0
C2644 C 0.54752 0.55651 0.65609 0.0
C2645 C 0.52058 0.43867 0.65118 0.0
C2646 C 0.49521 0.54575 0.64369 0.0
H2647 H 0.57651 0.60506 0.66351 0.0
O2648 O 0.58146 0.41164 0.62412 0.0
O2649 O 0.49642 0.28107 0.60602 0.0
O2650 O 0.44341 0.22564 0.62233 0.0
O2651 O 0.42156 0.31317 0.63227 0.0
O2652 O 0.58295 0.36965 0.60136 0.0
O2653 O 0.57509 0.48542 0.60485 0.0
O2654 O 0.31161 0.15594 0.58153 0.0
O2655 O 0.40372 0.29881 0.59131 0.0
O2656 O 0.50088 0.42007 0.58406 0.0
O2657 O 0.4927 0.32166 0.56916 0.0
O2658 O 0.32458 0.20468 0.59481 0.0
O2659 O 0.33653 0.12003 0.60542 0.0
C2660 C 0.5592 0.30441 0.60321 0.0
C2661 C 0.47438 0.59507 0.64089 0.0
C2662 C 0.42931 0.58611 0.62626 0.0
C2663 C 0.61265 0.47156 0.61625 0.0
C2664 C 0.68017 0.51972 0.62317 0.0
C2665 C 0.69696 0.51471 0.6418 0.0
C2666 C 0.73199 0.55825 0.61033 0.0
C2667 C 0.79959 0.59677 0.61649 0.0
C2668 C 0.76414 0.55546 0.64807 0.0
C2669 C 0.81462 0.59824 0.63564 0.0
C2670 C 0.42933 0.2608 0.6365 0.0
C2671 C 0.33878 0.26838 0.59665 0.0
C2672 C 0.28348 0.11505 0.59602 0.0
C2673 C 0.20427 0.04744 0.59377 0.0
C2674 C 0.16852 0.05586 0.57891 0.0
C2675 C 0.16586 0.97382 0.60054 0.0
C2676 C 0.10933 0.91632 0.58958 0.0
C2677 C 0.12808 1.002 0.56653 0.0
C2678 C 0.10167 0.93335 0.57144 0.0
C2679 C 0.52031 0.39515 0.57107 0.0
H2680 H 0.65952 0.47693 0.65128 0.0
H2681 H 0.72044 0.55497 0.59556 0.0
H2682 H 0.77818 0.55208 0.66228 0.0
H2683 H 0.86566 0.62931 0.64121 0.0
H2684 H 0.1887 0.10539 0.5733 0.0
H2685 H 0.17525 0.95978 0.61399 0.0
H2686 H 0.11443 1.01424 0.55312 0.0
H2687 H 0.06462 0.89395 0.56205 0.0
Gd2688 Gd 0.81333 0.19137 0.60985 0.0
Gd2689 Gd 0.98635 0.30037 0.58745 0.0
C2690 C 0.202 0.56775 0.5822 0.0
C2691 C 0.26681 0.52456 0.56142 0.0
C2692 C 0.12405 0.47801 0.55628 0.0
C2693 C 0.1545 0.48345 0.57664 0.0
C2694 C 0.19972 0.4776 0.54932 0.0
C2695 C 0.26708 0.57434 0.57531 0.0
C2696 C 0.18968 0.59387 0.60458 0.0
C2697 C 0.13697 0.53668 0.62206 0.0
N2698 N 0.09266 0.41435 0.59917 0.0
C2699 C 0.08873 0.44675 0.61934 0.0
H2700 H 0.05104 0.41609 0.62976 0.0
C2701 C 1.00661 0.3474 0.53484 0.0
N2702 N 1.02769 0.40891 0.54994 0.0
C2703 C 0.12845 0.35759 0.52264 0.0
C2704 C 0.1994 0.42171 0.53224 0.0
H2705 H 0.9527 0.30621 0.53346 0.0
H2706 H 0.23628 0.59866 0.57622 0.0
H2707 H 0.79953 0.07109 0.57755 0.0
H2708 H 0.22393 0.64704 0.60832 0.0
H2709 H 0.13498 0.55739 0.63537 0.0
H2710 H 0.23035 0.49608 0.55372 0.0
H2711 H 0.79372 0.21538 0.6542 0.0
H2712 H 0.62727 0.87708 0.59443 0.0
H2713 H 0.71883 0.94811 0.57157 0.0
H2714 H 0.55089 0.9345 0.6496 0.0
H2715 H 0.13716 0.32214 0.514 0.0
H2716 H 0.24877 0.42782 0.52843 0.0
H2717 H 0.56634 0.87081 0.62378 0.0
H2718 H 0.68508 0.16868 0.6706 0.0
N2719 N 0.75869 0.06998 0.60429 0.0
C2720 C 0.66468 0.93049 0.59735 0.0
C2721 C 0.71621 0.97047 0.5845 0.0
C2722 C 0.66051 0.96064 0.61376 0.0
C2723 C 0.71029 0.03066 0.61711 0.0
C2724 C 0.76309 0.04008 0.58818 0.0
N2725 N 0.75796 0.12847 0.63632 0.0
C2726 C 0.7066 0.06261 0.63289 0.0
C2727 C 0.68996 0.13779 0.66023 0.0
C2728 C 0.63507 0.07229 0.65612 0.0
C2729 C 0.75291 0.16323 0.65119 0.0
C2730 C 0.64585 0.03077 0.64371 0.0
H2731 H 0.58653 0.05272 0.66353 0.0
O2732 O 0.78 0.25114 0.62414 0.0
O2733 O 0.91062 0.2966 0.60603 0.0
O2734 O 0.96598 0.29894 0.62233 0.0
O2735 O 0.87838 0.1896 0.63227 0.0
O2736 O 0.82197 0.29459 0.60133 0.0
O2737 O 0.7062 0.171 0.60485 0.0
O2738 O 0.03562 0.23678 0.58148 0.0
O2739 O 0.89271 0.18607 0.59131 0.0
O2740 O 0.77145 0.16209 0.58408 0.0
O2741 O 0.86997 0.25214 0.56915 0.0
O2742 O 0.98699 0.20114 0.59495 0.0
O2743 O 0.07159 0.29749 0.60538 0.0
C2744 C 0.88722 0.33596 0.6032 0.0
C2745 C 0.59653 0.9606 0.64092 0.0
C2746 C 0.60552 0.92448 0.62629 0.0
C2747 C 0.72007 0.22241 0.61626 0.0
C2748 C 0.67192 0.24179 0.62318 0.0
C2749 C 0.67692 0.26358 0.64181 0.0
C2750 C 0.63337 0.25504 0.61034 0.0
C2751 C 0.59484 0.28411 0.6165 0.0
C2752 C 0.63615 0.28999 0.64808 0.0
C2753 C 0.59335 0.29765 0.63565 0.0
C2754 C 0.93079 0.24971 0.63651 0.0
C2755 C 0.92324 0.15168 0.59667 0.0
C2756 C 0.07653 0.24945 0.59595 0.0
C2757 C 0.14412 0.23786 0.5937 0.0
C2758 C 0.13584 0.19385 0.5788 0.0
C2759 C 0.21768 0.27303 0.60051 0.0
C2760 C 0.27529 0.27416 0.58957 0.0
C2761 C 0.18983 0.20741 0.56645 0.0
C2762 C 0.25843 0.24962 0.57141 0.0
C2763 C 0.79646 0.20633 0.57107 0.0
H2764 H 0.7147 0.26393 0.65129 0.0
H2765 H 0.63664 0.24675 0.59557 0.0
H2766 H 0.63953 0.30742 0.66229 0.0
H2767 H 0.56225 0.31759 0.64122 0.0
H2768 H 0.08639 0.16464 0.57314 0.0
H2769 H 0.23158 0.29633 0.61398 0.0
H2770 H 0.17772 0.18164 0.55303 0.0
H2771 H 0.29791 0.25206 0.56204 0.0
Gd2772 Gd 0.37967 0.32395 0.1844 0.0
Gd2773 Gd 0.44349 0.21476 0.20679 0.0
C2774 C 0.39193 0.94747 0.21202 0.0
C2775 C 0.50001 0.99081 0.23281 0.0
C2776 C 0.40366 0.03716 0.23796 0.0
C2777 C 0.42867 0.03176 0.21759 0.0
C2778 C 0.47978 0.03764 0.24491 0.0
C2779 C 0.45055 0.94106 0.21889 0.0
C2780 C 0.35347 0.92134 0.18964 0.0
C2781 C 0.3579 0.97853 0.17217 0.0
N2782 N 0.43586 0.10084 0.19506 0.0
C2783 C 0.39953 0.06845 0.1749 0.0
H2784 H 0.39247 0.0991 0.16448 0.0
C2785 C 0.41678 0.16776 0.2594 0.0
N2786 N 0.37634 0.10622 0.2443 0.0
C2787 C 0.5285 0.15769 0.27158 0.0
C2788 C 0.53536 0.09358 0.26199 0.0
H2789 H 0.40401 0.20892 0.26077 0.0
H2790 H 0.39543 0.91661 0.21798 0.0
H2791 H 0.4862 0.44423 0.2167 0.0
H2792 H 0.33458 0.86819 0.1859 0.0
H2793 H 0.33519 0.95781 0.15886 0.0
H2794 H 0.49196 1.01922 0.24051 0.0
H2795 H 0.33606 0.29994 0.14007 0.0
H2796 H 0.50778 0.6382 0.19985 0.0
H2797 H 0.52836 0.56719 0.2227 0.0
H2798 H 0.37406 0.5808 0.14467 0.0
H2799 H 0.57265 0.19315 0.28023 0.0
H2800 H 0.57864 0.0875 0.2658 0.0
H2801 H 0.45319 0.6445 0.17049 0.0
H2802 H 0.27411 0.3466 0.12367 0.0
N2803 N 0.44643 0.44534 0.18996 0.0
C2804 C 0.49182 0.5848 0.19693 0.0
C2805 C 0.5034 0.54483 0.20976 0.0
C2806 C 0.45755 0.55468 0.1805 0.0
C2807 C 0.43736 0.48467 0.17715 0.0
C2808 C 0.48075 0.47524 0.20608 0.0
N2809 N 0.38724 0.38687 0.15794 0.0
C2810 C 0.40172 0.45272 0.16137 0.0
C2811 C 0.30988 0.37751 0.13404 0.0
C2812 C 0.32048 0.44301 0.13815 0.0
C2813 C 0.3474 0.35209 0.14307 0.0
C2814 C 0.37279 0.48455 0.15055 0.0
H2815 H 0.29149 0.46256 0.13073 0.0
O2816 O 0.28653 0.2642 0.17013 0.0
O2817 O 0.37158 0.21866 0.18822 0.0
O2818 O 0.42458 0.21624 0.17191 0.0
O2819 O 0.44643 0.32562 0.16197 0.0
O2820 O 0.28505 0.22071 0.19287 0.0
O2821 O 0.29293 0.34436 0.18941 0.0
O2822 O 0.55641 0.27829 0.21267 0.0
O2823 O 0.46428 0.3291 0.20294 0.0
O2824 O 0.36718 0.35319 0.21019 0.0
O2825 O 0.37526 0.2629 0.22509 0.0
O2826 O 0.54344 0.31412 0.19947 0.0
O2827 O 0.53138 0.21742 0.1888 0.0
C2828 C 0.3088 0.17922 0.19103 0.0
C2829 C 0.39363 0.55472 0.15335 0.0
C2830 C 0.43871 0.59083 0.16797 0.0
C2831 C 0.25534 0.29292 0.17802 0.0
C2832 C 0.18782 0.27355 0.17109 0.0
C2833 C 0.17105 0.25179 0.15247 0.0
C2834 C 0.13598 0.26024 0.18393 0.0
C2835 C 0.06839 0.2312 0.17776 0.0
C2836 C 0.10389 0.22538 0.14619 0.0
C2837 C 0.0534 0.2177 0.15861 0.0
C2838 C 0.43866 0.26547 0.15773 0.0
C2839 C 0.52925 0.36361 0.19761 0.0
C2840 C 0.58449 0.2655 0.19818 0.0
C2841 C 0.66369 0.27708 0.20042 0.0
C2842 C 0.69949 0.32131 0.21526 0.0
C2843 C 0.70212 0.24186 0.19365 0.0
C2844 C 0.75866 0.24088 0.20461 0.0
C2845 C 0.73992 0.30789 0.22764 0.0
C2846 C 0.76631 0.26563 0.22275 0.0
C2847 C 0.34765 0.30879 0.22317 0.0
H2848 H 0.20849 0.25144 0.14299 0.0
H2849 H 0.1475 0.26848 0.1987 0.0
H2850 H 0.08986 0.20796 0.13198 0.0
H2851 H 1.00238 0.19777 0.15303 0.0
H2852 H 0.67935 0.35072 0.22085 0.0
H2853 H 0.69272 0.2184 0.1802 0.0
H2854 H 0.75353 0.33377 0.24105 0.0
H2855 H 0.80334 0.26329 0.23214 0.0
Gd2856 Gd 0.8678 0.13696 0.18439 0.0
Gd2857 Gd 0.97679 0.30999 0.20678 0.0
C2858 C 0.24416 0.52566 0.21203 0.0
C2859 C 0.20093 0.59043 0.23282 0.0
C2860 C 0.15443 0.4477 0.23795 0.0
C2861 C 0.15986 0.47814 0.21759 0.0
C2862 C 0.15401 0.52336 0.24491 0.0
C2863 C 0.2507 0.59072 0.21892 0.0
C2864 C 0.27028 0.51335 0.18965 0.0
C2865 C 0.21308 0.46062 0.17217 0.0
N2866 N 0.09076 0.4163 0.19506 0.0
C2867 C 0.12315 0.41237 0.17489 0.0
H2868 H 0.0925 0.37469 0.16447 0.0
C2869 C 1.02382 0.33024 0.25939 0.0
N2870 N 0.08534 0.35133 0.2443 0.0
C2871 C 0.03398 0.45207 0.27159 0.0
C2872 C 0.0981 0.52303 0.26199 0.0
H2873 H 0.98263 0.27633 0.26077 0.0
H2874 H 0.27505 0.55995 0.21801 0.0
H2875 H 0.74753 0.12316 0.21669 0.0
H2876 H 0.32344 0.5476 0.18591 0.0
H2877 H 0.2338 0.45864 0.15886 0.0
H2878 H 0.17247 0.55398 0.24052 0.0
H2879 H 0.89181 0.11735 0.14005 0.0
H2880 H 0.55349 0.95096 0.1998 0.0
H2881 H 0.62453 0.04249 0.22267 0.0
H2882 H 0.6109 0.87455 0.14464 0.0
H2883 H 0.99853 0.46077 0.28024 0.0
H2884 H 0.10421 0.57239 0.26581 0.0
H2885 H 0.54721 0.89002 0.17046 0.0
H2886 H 0.84508 1.00872 0.12364 0.0
N2887 N 0.74641 0.08232 0.18995 0.0
C2888 C 0.60691 0.98835 0.19689 0.0
C2889 C 0.6469 0.03987 0.20974 0.0
C2890 C 0.63706 0.98417 0.18048 0.0
C2891 C 0.70708 0.03394 0.17713 0.0
C2892 C 0.71651 0.08673 0.20606 0.0
N2893 N 0.8049 0.08159 0.15793 0.0
C2894 C 0.73903 0.03024 0.16135 0.0
C2895 C 0.8142 1.0136 0.13402 0.0
C2896 C 0.74869 0.95872 0.13812 0.0
C2897 C 0.83965 0.07654 0.14305 0.0
C2898 C 0.70718 0.96949 0.15053 0.0
H2899 H 0.72911 0.91018 0.13071 0.0
O2900 O 0.92757 0.10364 0.17011 0.0
O2901 O 0.97302 0.23427 0.18821 0.0
O2902 O 0.97535 0.28961 0.17191 0.0
O2903 O 0.86601 0.202 0.16197 0.0
O2904 O 0.97104 0.14563 0.19291 0.0
O2905 O 0.84744 0.02985 0.18939 0.0
O2906 O 0.91321 0.3593 0.21274 0.0
O2907 O 0.86248 0.21635 0.20293 0.0
O2908 O 0.83854 0.0951 0.21017 0.0
O2909 O 0.9286 0.19362 0.22509 0.0
O2910 O 0.87754 0.31062 0.19931 0.0
O2911 O 0.97397 0.39523 0.18884 0.0
C2912 C 1.0124 0.21088 0.19104 0.0
C2913 C 0.637 0.92019 0.15332 0.0
C2914 C 0.60089 0.92918 0.16795 0.0
C2915 C 0.89887 0.04372 0.17799 0.0
C2916 C 0.91825 0.99558 0.17107 0.0
C2917 C 0.94001 1.00055 0.15244 0.0
C2918 C 0.93152 0.95703 0.18391 0.0
C2919 C 0.96054 0.91846 0.17775 0.0
C2920 C 0.96639 0.95977 0.14617 0.0
C2921 C 0.97404 0.91696 0.1586 0.0
C2922 C 0.92612 0.25441 0.15773 0.0
C2923 C 0.82809 0.24687 0.19757 0.0
C2924 C 0.92592 0.4002 0.19826 0.0
C2925 C 0.91437 0.46783 0.2005 0.0
C2926 C 0.87033 0.45955 0.21539 0.0
C2927 C 0.94954 0.54139 0.19369 0.0
C2928 C 0.95072 0.59905 0.20463 0.0
C2929 C 0.88392 0.51354 0.22774 0.0
C2930 C 0.92614 0.58214 0.22278 0.0
C2931 C 0.8828 0.1201 0.22317 0.0
H2932 H 0.94034 0.03833 0.14296 0.0
H2933 H 0.92327 0.96032 0.19868 0.0
H2934 H 0.98381 0.96314 0.13196 0.0
H2935 H 0.99393 0.88583 0.15302 0.0
H2936 H 0.84106 0.41009 0.22105 0.0
H2937 H 0.97283 0.55529 0.18022 0.0
H2938 H 0.85816 0.50143 0.24117 0.0
H2939 H 0.92859 0.62161 0.23216 0.0
Gd2940 Gd 0.0547 0.81205 0.18439 0.0
Gd2941 Gd 0.88168 0.74807 0.20678 0.0
C2942 C 0.66604 0.7998 0.21203 0.0
C2943 C 0.60124 0.69178 0.23282 0.0
C2944 C 0.74398 0.78801 0.23795 0.0
C2945 C 0.71354 0.763 0.21759 0.0
C2946 C 0.66832 0.71193 0.24491 0.0
C2947 C 0.60097 0.74127 0.21891 0.0
C2948 C 0.67836 0.83824 0.18965 0.0
C2949 C 0.73108 0.83377 0.17217 0.0
N2950 N 0.77539 0.75575 0.19506 0.0
C2951 C 0.77933 0.79209 0.1749 0.0
H2952 H 0.81701 0.79912 0.16447 0.0
C2953 C 0.86143 0.77484 0.2594 0.0
N2954 N 0.84035 0.81528 0.2443 0.0
C2955 C 0.73959 0.66318 0.27159 0.0
C2956 C 0.66864 0.65635 0.26199 0.0
H2957 H 0.91535 0.78758 0.26077 0.0
H2958 H 0.63174 0.7964 0.21801 0.0
H2959 H 0.06849 0.70559 0.2167 0.0
H2960 H 0.64412 0.85717 0.18591 0.0
H2961 H 0.73308 0.85648 0.15886 0.0
H2962 H 0.6377 0.69978 0.24051 0.0
H2963 H 0.07429 0.85561 0.14004 0.0
H2964 H 0.24079 0.68388 0.19984 0.0
H2965 H 0.14923 0.66336 0.22269 0.0
H2966 H 0.3171 0.81753 0.14465 0.0
H2967 H 0.73089 0.61902 0.28024 0.0
H2968 H 0.61927 0.61309 0.2658 0.0
H2969 H 0.30167 0.73844 0.17047 0.0
H2970 H 0.18294 0.91757 0.12364 0.0
N2971 N 0.10932 0.74529 0.18995 0.0
C2972 C 0.20336 0.69986 0.19692 0.0
C2973 C 0.15183 0.68831 0.20976 0.0
C2974 C 0.20751 0.73412 0.18049 0.0
C2975 C 0.15771 0.75433 0.17713 0.0
C2976 C 0.10493 0.71101 0.20607 0.0
N2977 N 0.11004 0.80446 0.15792 0.0
C2978 C 0.16139 0.78995 0.16135 0.0
C2979 C 0.17805 0.88178 0.13402 0.0
C2980 C 0.23293 0.87115 0.13812 0.0
C2981 C 0.1151 0.84427 0.14304 0.0
C2982 C 0.22215 0.81885 0.15053 0.0
H2983 H 0.28147 0.90012 0.13071 0.0
O2984 O 0.08805 0.90514 0.17009 0.0
O2985 O 0.95742 0.82002 0.18821 0.0
O2986 O 0.90204 0.767 0.17191 0.0
O2987 O 0.98961 0.74523 0.16196 0.0
O2988 O 0.04609 0.90665 0.1929 0.0
O2989 O 0.16183 0.8988 0.18938 0.0
O2990 O 0.83238 0.63521 0.21274 0.0
O2991 O 0.9753 0.72739 0.20293 0.0
O2992 O 0.09659 0.82468 0.21016 0.0
O2993 O 0.99806 0.81621 0.22508 0.0
O2994 O 0.88102 0.64819 0.19929 0.0
O2995 O 0.79643 0.65999 0.18885 0.0
C2996 C 0.98084 0.88279 0.19103 0.0
C2997 C 0.27146 0.79799 0.15333 0.0
C2998 C 0.26249 0.75293 0.16796 0.0
C2999 C 0.14798 0.93634 0.17797 0.0
C3000 C 0.19613 1.00387 0.17104 0.0
C3001 C 0.19115 0.02066 0.15242 0.0
C3002 C 0.23466 0.05567 0.18389 0.0
C3003 C 0.27317 0.12328 0.17773 0.0
C3004 C 0.23189 0.08785 0.14615 0.0
C3005 C 0.27465 0.13833 0.15859 0.0
C3006 C 0.93721 0.75295 0.15773 0.0
C3007 C 0.94477 0.66247 0.19757 0.0
C3008 C 0.79148 0.60699 0.19827 0.0
C3009 C 0.72389 0.5278 0.20052 0.0
C3010 C 0.73223 0.49207 0.21541 0.0
C3011 C 0.6503 0.48941 0.19373 0.0
C3012 C 0.59273 0.43292 0.20468 0.0
C3013 C 0.67829 0.45162 0.22777 0.0
C3014 C 0.60967 0.42524 0.22284 0.0
C3015 C 0.07158 0.84391 0.22316 0.0
H3016 H 0.15338 0.98322 0.14294 0.0
H3017 H 0.23137 0.04411 0.19866 0.0
H3018 H 0.22852 0.1019 0.13194 0.0
H3019 H 0.30572 0.18937 0.15302 0.0
H3020 H 0.78171 0.51227 0.22105 0.0
H3021 H 0.63635 0.49882 0.18027 0.0
H3022 H 0.69045 0.43794 0.24118 0.0
H3023 H 0.57022 0.38818 0.23221 0.0
loop_
_geom_bond_atom_site_label_1
_geom_bond_atom_site_label_2
_geom_bond_distance
_geom_bond_site_symmetry_2
_ccdc_geom_bond_type
Gd0 N31 2.661 . S
Gd0 N37 2.601 . S
Gd0 O44 2.545 1_545 S
Gd0 O45 2.606 . S
Gd0 O47 2.429 . S
Gd0 O48 2.545 1_545 S
Gd0 O49 2.412 1_545 S
Gd0 O51 2.362 . S
Gd0 O52 2.324 . S
Gd0 C59 2.828 1_545 S
Gd1 N10 2.661 . S
Gd1 N14 2.601 . S
Gd1 O45 2.362 . S
Gd1 O46 2.324 . S
Gd1 O50 2.545 . S
Gd1 O51 2.606 . S
Gd1 O53 2.429 . S
Gd1 O54 2.545 . S
Gd1 O55 2.412 . S
Gd1 C68 2.828 . S
C2 C5 1.417 . S
C2 C7 1.431 . S
C2 C8 1.412 . S
C3 C6 1.437 . S
C3 C7 1.317 1_556 S
C3 H22 0.929 . S
C4 C5 1.426 . S
C4 C6 1.413 1_554 S
C4 N14 1.359 . S
C5 C2 1.417 . S
C5 C4 1.426 . S
C5 N10 1.350 . S
C6 C3 1.437 . S
C6 C4 1.413 1_556 S
C6 C16 1.391 . S
C7 C2 1.431 . S
C7 C3 1.317 1_554 S
C7 H18 0.930 1_545 S
C8 C2 1.412 . S
C8 C9 1.355 . S
C8 H20 0.930 1_545 S
C9 C8 1.355 . S
C9 C11 1.402 . S
C9 H21 0.930 . S
N10 Gd1 2.661 . S
N10 C5 1.350 . S
N10 C11 1.307 . S
C11 C9 1.402 . S
C11 N10 1.307 . S
C11 H12 0.930 . S
H12 C11 0.930 . S
C13 N14 1.334 1_556 S
C13 C15 1.394 . S
C13 H17 0.930 . S
N14 Gd1 2.601 . S
N14 C4 1.359 . S
N14 C13 1.334 1_554 S
C15 C13 1.394 . S
C15 C16 1.359 . S
C15 H27 0.930 . S
C16 C6 1.391 . S
C16 C15 1.359 . S
C16 H28 0.929 . S
H17 C13 0.930 . S
H18 C7 0.930 1_565 S
H19 C36 0.930 . S
H20 C8 0.930 1_565 S
H21 C9 0.930 . S
H22 C3 0.929 . S
H23 C41 0.930 . S
H24 C32 0.930 . S
H25 C33 0.930 . S
H26 C57 0.929 . S
H27 C15 0.930 . S
H28 C16 0.929 . S
H29 C58 0.930 . S
H30 C39 0.930 . S
N31 Gd0 2.661 . S
N31 C35 1.350 . S
N31 C36 1.307 . S
C32 H24 0.930 . S
C32 C33 1.355 . S
C32 C34 1.412 . S
C33 H25 0.930 . S
C33 C32 1.355 . S
C33 C36 1.402 . S
C34 C32 1.412 . S
C34 C35 1.417 . S
C34 C58 1.431 . S
C35 N31 1.350 . S
C35 C34 1.417 . S
C35 C38 1.426 . S
C36 H19 0.930 . S
C36 N31 1.307 . S
C36 C33 1.402 . S
N37 Gd0 2.601 . S
N37 C38 1.359 . S
N37 C41 1.334 . S
C38 C35 1.426 . S
C38 N37 1.359 . S
C38 C42 1.413 . S
C39 H30 0.930 . S
C39 C40 1.359 . S
C39 C41 1.394 . S
C40 C39 1.359 . S
C40 C42 1.391 . S
C40 H43 0.929 . S
C41 H23 0.930 . S
C41 N37 1.334 . S
C41 C39 1.394 . S
C42 C38 1.413 . S
C42 C40 1.391 . S
C42 C57 1.437 . S
H43 C40 0.929 . S
O44 Gd0 2.545 1_565 S
O44 C59 1.258 . S
O45 Gd0 2.606 . S
O45 Gd1 2.362 . S
O45 C56 1.284 1_545 S
O46 Gd1 2.324 . S
O46 C66 1.254 . S
O47 Gd0 2.429 . S
O47 C66 1.268 . S
O48 Gd0 2.545 1_565 S
O48 C56 1.250 . S
O49 Gd0 2.412 1_565 S
O49 C59 1.252 . S
O50 Gd1 2.545 . S
O50 C68 1.258 . S
O51 Gd0 2.362 . S
O51 Gd1 2.606 . S
O51 C67 1.284 . S
O52 Gd0 2.324 . S
O52 C75 1.254 . S
O53 Gd1 2.429 . S
O53 C75 1.268 . S
O54 Gd1 2.545 . S
O54 C67 1.250 . S
O55 Gd1 2.412 . S
O55 C68 1.252 . S
C56 O45 1.284 1_565 S
C56 O48 1.250 . S
C57 H26 0.929 . S
C57 C42 1.437 . S
C57 C58 1.317 . S
C58 H29 0.930 . S
C58 C34 1.431 . S
C58 C57 1.317 . S
C59 Gd0 2.828 1_565 S
C59 O44 1.258 . S
C59 O49 1.252 . S
C59 C60 1.497 . S
C60 C59 1.497 . S
C60 C61 1.395 . S
C60 C62 1.380 . S
C61 C60 1.395 . S
C61 C64 1.398 . S
C61 H76 0.930 . S
C62 C60 1.380 . S
C62 C63 1.391 . S
C62 H77 0.930 . S
C63 C62 1.391 . S
C63 C65 1.387 . S
C64 C61 1.398 . S
C64 C65 1.380 . S
C64 H78 0.930 . S
C65 C63 1.387 . S
C65 C64 1.380 . S
C65 H79 0.930 . S
C66 O46 1.254 . S
C66 O47 1.268 . S
C67 O51 1.284 . S
C67 O54 1.250 . S
C68 Gd1 2.828 . S
C68 O50 1.258 . S
C68 O55 1.252 . S
C68 C69 1.497 . S
C69 C68 1.497 . S
C69 C70 1.395 . S
C69 C71 1.380 . S
C70 C69 1.395 . S
C70 C73 1.398 . S
C70 H80 0.930 1_554 S
C71 C69 1.380 . S
C71 C72 1.391 . S
C71 H81 0.930 . S
C72 C71 1.391 . S
C72 C74 1.387 . S
C73 C70 1.398 . S
C73 C74 1.380 . S
C73 H82 0.930 1_554 S
C74 C72 1.387 . S
C74 C73 1.380 . S
C74 H83 0.930 . S
C75 O52 1.254 . S
C75 O53 1.268 . S
H76 C61 0.930 . S
H77 C62 0.930 . S
H78 C64 0.930 . S
H79 C65 0.930 . S
H80 C70 0.930 1_556 S
H81 C71 0.930 . S
H82 C73 0.930 1_556 S
H83 C74 0.930 . S
Gd84 N115 2.661 . S
Gd84 N121 2.601 . S
Gd84 O128 2.545 . S
Gd84 O129 2.606 . S
Gd84 O131 2.429 . S
Gd84 O132 2.545 . S
Gd84 O133 2.412 . S
Gd84 O135 2.362 1_455 S
Gd84 O136 2.324 . S
Gd84 C143 2.828 . S
Gd85 N94 2.661 . S
Gd85 N98 2.601 . S
Gd85 O129 2.362 . S
Gd85 O130 2.324 . S
Gd85 O134 2.545 1_455 S
Gd85 O135 2.606 1_455 S
Gd85 O137 2.429 . S
Gd85 O138 2.545 1_455 S
Gd85 O139 2.412 1_455 S
Gd85 C152 2.828 1_455 S
C86 C89 1.417 . S
C86 C91 1.431 . S
C86 C92 1.412 . S
C87 C90 1.437 . S
C87 C91 1.317 1_556 S
C87 H106 0.929 . S
C88 C89 1.426 . S
C88 C90 1.413 1_554 S
C88 N98 1.359 . S
C89 C86 1.417 . S
C89 C88 1.426 . S
C89 N94 1.350 . S
C90 C87 1.437 . S
C90 C88 1.413 1_556 S
C90 C100 1.391 . S
C91 C86 1.431 . S
C91 C87 1.317 1_554 S
C91 H102 0.930 . S
C92 C86 1.412 . S
C92 C93 1.355 . S
C92 H104 0.930 . S
C93 C92 1.355 . S
C93 C95 1.402 . S
C93 H105 0.930 . S
N94 Gd85 2.661 . S
N94 C89 1.350 . S
N94 C95 1.307 . S
C95 C93 1.402 . S
C95 N94 1.307 . S
C95 H96 0.930 . S
H96 C95 0.930 . S
C97 N98 1.334 1_556 S
C97 C99 1.394 . S
C97 H101 0.930 . S
N98 Gd85 2.601 . S
N98 C88 1.359 . S
N98 C97 1.334 1_554 S
C99 C97 1.394 . S
C99 C100 1.359 . S
C99 H111 0.930 . S
C100 C90 1.391 . S
C100 C99 1.359 . S
C100 H112 0.929 . S
H101 C97 0.930 . S
H102 C91 0.930 . S
H103 C120 0.930 . S
H104 C92 0.930 . S
H105 C93 0.930 . S
H106 C87 0.929 . S
H107 C125 0.930 . S
H108 C116 0.930 . S
H109 C117 0.930 . S
H110 C141 0.929 . S
H111 C99 0.930 . S
H112 C100 0.929 . S
H113 C142 0.930 . S
H114 C123 0.930 . S
N115 Gd84 2.661 . S
N115 C119 1.350 . S
N115 C120 1.307 . S
C116 H108 0.930 . S
C116 C117 1.355 . S
C116 C118 1.412 . S
C117 H109 0.930 . S
C117 C116 1.355 . S
C117 C120 1.402 1_655 S
C118 C116 1.412 . S
C118 C119 1.417 1_655 S
C118 C142 1.431 . S
C119 N115 1.350 . S
C119 C118 1.417 1_455 S
C119 C122 1.426 . S
C120 H103 0.930 . S
C120 N115 1.307 . S
C120 C117 1.402 1_455 S
N121 Gd84 2.601 . S
N121 C122 1.359 . S
N121 C125 1.334 . S
C122 C119 1.426 . S
C122 N121 1.359 . S
C122 C126 1.413 . S
C123 H114 0.930 . S
C123 C124 1.359 . S
C123 C125 1.394 . S
C124 C123 1.359 . S
C124 C126 1.391 . S
C124 H127 0.929 . S
C125 H107 0.930 . S
C125 N121 1.334 . S
C125 C123 1.394 . S
C126 C122 1.413 . S
C126 C124 1.391 . S
C126 C141 1.437 1_455 S
H127 C124 0.929 . S
O128 Gd84 2.545 . S
O128 C143 1.258 . S
O129 Gd84 2.606 . S
O129 Gd85 2.362 . S
O129 C140 1.284 . S
O130 Gd85 2.324 . S
O130 C150 1.254 . S
O131 Gd84 2.429 . S
O131 C150 1.268 . S
O132 Gd84 2.545 . S
O132 C140 1.250 . S
O133 Gd84 2.412 . S
O133 C143 1.252 . S
O134 Gd85 2.545 1_655 S
O134 C152 1.258 . S
O135 Gd84 2.362 1_655 S
O135 Gd85 2.606 1_655 S
O135 C151 1.284 . S
O136 Gd84 2.324 . S
O136 C159 1.254 . S
O137 Gd85 2.429 . S
O137 C159 1.268 . S
O138 Gd85 2.545 1_655 S
O138 C151 1.250 . S
O139 Gd85 2.412 1_655 S
O139 C152 1.252 . S
C140 O129 1.284 . S
C140 O132 1.250 . S
C141 H110 0.929 . S
C141 C126 1.437 1_655 S
C141 C142 1.317 . S
C142 H113 0.930 . S
C142 C118 1.431 . S
C142 C141 1.317 . S
C143 Gd84 2.828 . S
C143 O128 1.258 . S
C143 O133 1.252 . S
C143 C144 1.497 . S
C144 C143 1.497 . S
C144 C145 1.395 . S
C144 C146 1.380 . S
C145 C144 1.395 . S
C145 C148 1.398 . S
C145 H160 0.930 . S
C146 C144 1.380 . S
C146 C147 1.391 . S
C146 H161 0.930 . S
C147 C146 1.391 . S
C147 C149 1.387 . S
C148 C145 1.398 . S
C148 C149 1.380 . S
C148 H162 0.930 . S
C149 C147 1.387 . S
C149 C148 1.380 . S
C149 H163 0.930 . S
C150 O130 1.254 . S
C150 O131 1.268 . S
C151 O135 1.284 . S
C151 O138 1.250 . S
C152 Gd85 2.828 1_655 S
C152 O134 1.258 . S
C152 O139 1.252 . S
C152 C153 1.497 . S
C153 C152 1.497 . S
C153 C154 1.395 . S
C153 C155 1.380 . S
C154 C153 1.395 . S
C154 C157 1.398 . S
C154 H164 0.930 1_554 S
C155 C153 1.380 . S
C155 C156 1.391 . S
C155 H165 0.930 . S
C156 C155 1.391 . S
C156 C158 1.387 . S
C157 C154 1.398 . S
C157 C158 1.380 . S
C157 H166 0.930 1_554 S
C158 C156 1.387 . S
C158 C157 1.380 . S
C158 H167 0.930 . S
C159 O136 1.254 . S
C159 O137 1.268 . S
H160 C145 0.930 . S
H161 C146 0.930 . S
H162 C148 0.930 . S
H163 C149 0.930 . S
H164 C154 0.930 1_556 S
H165 C155 0.930 . S
H166 C157 0.930 1_556 S
H167 C158 0.930 . S
Gd168 N199 2.661 . S
Gd168 N205 2.601 . S
Gd168 O212 2.545 . S
Gd168 O213 2.606 . S
Gd168 O215 2.429 . S
Gd168 O216 2.545 . S
Gd168 O217 2.412 . S
Gd168 O219 2.362 . S
Gd168 O220 2.324 . S
Gd168 C227 2.828 . S
Gd169 N178 2.661 . S
Gd169 N182 2.601 . S
Gd169 O213 2.362 . S
Gd169 O214 2.324 . S
Gd169 O218 2.545 . S
Gd169 O219 2.606 . S
Gd169 O221 2.429 . S
Gd169 O222 2.545 . S
Gd169 O223 2.412 . S
Gd169 C236 2.828 . S
C170 C173 1.417 . S
C170 C175 1.431 . S
C170 C176 1.412 . S
C171 C174 1.437 . S
C171 C175 1.317 1_556 S
C171 H190 0.929 . S
C172 C173 1.426 . S
C172 C174 1.413 1_554 S
C172 N182 1.359 . S
C173 C170 1.417 . S
C173 C172 1.426 . S
C173 N178 1.350 . S
C174 C171 1.437 . S
C174 C172 1.413 1_556 S
C174 C184 1.391 . S
C175 C170 1.431 . S
C175 C171 1.317 1_554 S
C175 H186 0.930 . S
C176 C170 1.412 . S
C176 C177 1.355 . S
C176 H188 0.930 . S
C177 C176 1.355 . S
C177 C179 1.402 . S
C177 H189 0.930 . S
N178 Gd169 2.661 . S
N178 C173 1.350 . S
N178 C179 1.307 . S
C179 C177 1.402 . S
C179 N178 1.307 . S
C179 H180 0.930 . S
H180 C179 0.930 . S
C181 N182 1.334 1_556 S
C181 C183 1.394 . S
C181 H185 0.930 . S
N182 Gd169 2.601 . S
N182 C172 1.359 . S
N182 C181 1.334 1_554 S
C183 C181 1.394 . S
C183 C184 1.359 . S
C183 H195 0.930 . S
C184 C174 1.391 . S
C184 C183 1.359 . S
C184 H196 0.929 . S
H185 C181 0.930 . S
H186 C175 0.930 . S
H187 C204 0.930 . S
H188 C176 0.930 . S
H189 C177 0.930 . S
H190 C171 0.929 . S
H191 C209 0.930 . S
H192 C200 0.930 . S
H193 C201 0.930 . S
H194 C225 0.929 . S
H195 C183 0.930 . S
H196 C184 0.929 . S
H197 C226 0.930 . S
H198 C207 0.930 . S
N199 Gd168 2.661 . S
N199 C203 1.350 . S
N199 C204 1.307 . S
C200 H192 0.930 . S
C200 C201 1.355 . S
C200 C202 1.412 . S
C201 H193 0.930 . S
C201 C200 1.355 . S
C201 C204 1.402 . S
C202 C200 1.412 . S
C202 C203 1.417 . S
C202 C226 1.431 . S
C203 N199 1.350 . S
C203 C202 1.417 . S
C203 C206 1.426 . S
C204 H187 0.930 . S
C204 N199 1.307 . S
C204 C201 1.402 . S
N205 Gd168 2.601 . S
N205 C206 1.359 . S
N205 C209 1.334 . S
C206 C203 1.426 . S
C206 N205 1.359 . S
C206 C210 1.413 . S
C207 H198 0.930 . S
C207 C208 1.359 . S
C207 C209 1.394 . S
C208 C207 1.359 . S
C208 C210 1.391 . S
C208 H211 0.929 . S
C209 H191 0.930 . S
C209 N205 1.334 . S
C209 C207 1.394 . S
C210 C206 1.413 . S
C210 C208 1.391 . S
C210 C225 1.437 . S
H211 C208 0.929 . S
O212 Gd168 2.545 . S
O212 C227 1.258 . S
O213 Gd168 2.606 . S
O213 Gd169 2.362 . S
O213 C224 1.284 . S
O214 Gd169 2.324 . S
O214 C234 1.254 . S
O215 Gd168 2.429 . S
O215 C234 1.268 . S
O216 Gd168 2.545 . S
O216 C224 1.250 . S
O217 Gd168 2.412 . S
O217 C227 1.252 . S
O218 Gd169 2.545 . S
O218 C236 1.258 . S
O219 Gd168 2.362 . S
O219 Gd169 2.606 . S
O219 C235 1.284 . S
O220 Gd168 2.324 . S
O220 C243 1.254 . S
O221 Gd169 2.429 . S
O221 C243 1.268 . S
O222 Gd169 2.545 . S
O222 C235 1.250 . S
O223 Gd169 2.412 . S
O223 C236 1.252 . S
C224 O213 1.284 . S
C224 O216 1.250 . S
C225 H194 0.929 . S
C225 C210 1.437 . S
C225 C226 1.317 . S
C226 H197 0.930 . S
C226 C202 1.431 . S
C226 C225 1.317 . S
C227 Gd168 2.828 . S
C227 O212 1.258 . S
C227 O217 1.252 . S
C227 C228 1.497 . S
C228 C227 1.497 . S
C228 C229 1.395 . S
C228 C230 1.380 . S
C229 C228 1.395 . S
C229 C232 1.398 . S
C229 H244 0.930 . S
C230 C228 1.380 . S
C230 C231 1.391 . S
C230 H245 0.930 . S
C231 C230 1.391 . S
C231 C233 1.387 . S
C232 C229 1.398 . S
C232 C233 1.380 . S
C232 H246 0.930 . S
C233 C231 1.387 . S
C233 C232 1.380 . S
C233 H247 0.930 . S
C234 O214 1.254 . S
C234 O215 1.268 . S
C235 O219 1.284 . S
C235 O222 1.250 . S
C236 Gd169 2.828 . S
C236 O218 1.258 . S
C236 O223 1.252 . S
C236 C237 1.497 . S
C237 C236 1.497 . S
C237 C238 1.395 . S
C237 C239 1.380 . S
C238 C237 1.395 . S
C238 C241 1.398 . S
C238 H248 0.930 1_554 S
C239 C237 1.380 . S
C239 C240 1.391 . S
C239 H249 0.930 . S
C240 C239 1.391 . S
C240 C242 1.387 . S
C241 C238 1.398 . S
C241 C242 1.380 . S
C241 H250 0.930 1_554 S
C242 C240 1.387 . S
C242 C241 1.380 . S
C242 H251 0.930 1_655 S
C243 O220 1.254 . S
C243 O221 1.268 . S
H244 C229 0.930 . S
H245 C230 0.930 . S
H246 C232 0.930 . S
H247 C233 0.930 . S
H248 C238 0.930 1_556 S
H249 C239 0.930 . S
H250 C241 0.930 1_556 S
H251 C242 0.930 1_455 S
Gd252 N283 2.661 . S
Gd252 N289 2.601 . S
Gd252 O296 2.545 1_455 S
Gd252 O297 2.606 . S
Gd252 O299 2.429 . S
Gd252 O300 2.545 1_455 S
Gd252 O301 2.412 1_455 S
Gd252 O303 2.362 . S
Gd252 O304 2.324 . S
Gd252 C311 2.828 1_455 S
Gd253 N262 2.661 . S
Gd253 N266 2.601 . S
Gd253 O297 2.362 . S
Gd253 O298 2.324 . S
Gd253 O302 2.545 . S
Gd253 O303 2.606 . S
Gd253 O305 2.429 . S
Gd253 O306 2.545 . S
Gd253 O307 2.412 . S
Gd253 C320 2.828 . S
C254 C257 1.417 . S
C254 C259 1.431 . S
C254 C260 1.412 . S
C255 C258 1.437 . S
C255 C259 1.317 . S
C255 H274 0.929 . S
C256 C257 1.426 . S
C256 C258 1.413 . S
C256 N266 1.359 . S
C257 C254 1.417 . S
C257 C256 1.426 . S
C257 N262 1.350 . S
C258 C255 1.437 . S
C258 C256 1.413 . S
C258 C268 1.391 . S
C259 C254 1.431 . S
C259 C255 1.317 . S
C259 H270 0.930 1_455 S
C260 C254 1.412 . S
C260 C261 1.355 . S
C260 H272 0.930 1_455 S
C261 C260 1.355 . S
C261 C263 1.402 . S
C261 H273 0.930 . S
N262 Gd253 2.661 . S
N262 C257 1.350 . S
N262 C263 1.307 . S
C263 C261 1.402 . S
C263 N262 1.307 . S
C263 H264 0.930 . S
H264 C263 0.930 . S
C265 N266 1.334 . S
C265 C267 1.394 . S
C265 H269 0.930 . S
N266 Gd253 2.601 . S
N266 C256 1.359 . S
N266 C265 1.334 . S
C267 C265 1.394 . S
C267 C268 1.359 . S
C267 H279 0.930 . S
C268 C258 1.391 . S
C268 C267 1.359 . S
C268 H280 0.929 . S
H269 C265 0.930 . S
H270 C259 0.930 1_655 S
H271 C288 0.930 . S
H272 C260 0.930 1_655 S
H273 C261 0.930 . S
H274 C255 0.929 . S
H275 C293 0.930 . S
H276 C284 0.930 . S
H277 C285 0.930 . S
H278 C309 0.929 . S
H279 C267 0.930 . S
H280 C268 0.929 . S
H281 C310 0.930 . S
H282 C291 0.930 . S
N283 Gd252 2.661 . S
N283 C287 1.350 . S
N283 C288 1.307 . S
C284 H276 0.930 . S
C284 C285 1.355 . S
C284 C286 1.412 . S
C285 H277 0.930 . S
C285 C284 1.355 . S
C285 C288 1.402 . S
C286 C284 1.412 . S
C286 C287 1.417 . S
C286 C310 1.431 . S
C287 N283 1.350 . S
C287 C286 1.417 . S
C287 C290 1.426 . S
C288 H271 0.930 . S
C288 N283 1.307 . S
C288 C285 1.402 . S
N289 Gd252 2.601 . S
N289 C290 1.359 . S
N289 C293 1.334 . S
C290 C287 1.426 . S
C290 N289 1.359 . S
C290 C294 1.413 . S
C291 H282 0.930 . S
C291 C292 1.359 . S
C291 C293 1.394 . S
C292 C291 1.359 . S
C292 C294 1.391 . S
C292 H295 0.929 . S
C293 H275 0.930 . S
C293 N289 1.334 . S
C293 C291 1.394 . S
C294 C290 1.413 . S
C294 C292 1.391 . S
C294 C309 1.437 . S
H295 C292 0.929 . S
O296 Gd252 2.545 1_655 S
O296 C311 1.258 . S
O297 Gd252 2.606 . S
O297 Gd253 2.362 . S
O297 C308 1.284 1_455 S
O298 Gd253 2.324 . S
O298 C318 1.254 . S
O299 Gd252 2.429 . S
O299 C318 1.268 . S
O300 Gd252 2.545 1_655 S
O300 C308 1.250 . S
O301 Gd252 2.412 1_655 S
O301 C311 1.252 . S
O302 Gd253 2.545 . S
O302 C320 1.258 . S
O303 Gd252 2.362 . S
O303 Gd253 2.606 . S
O303 C319 1.284 . S
O304 Gd252 2.324 . S
O304 C327 1.254 . S
O305 Gd253 2.429 . S
O305 C327 1.268 . S
O306 Gd253 2.545 . S
O306 C319 1.250 . S
O307 Gd253 2.412 . S
O307 C320 1.252 . S
C308 O297 1.284 1_655 S
C308 O300 1.250 . S
C309 H278 0.929 . S
C309 C294 1.437 . S
C309 C310 1.317 . S
C310 H281 0.930 . S
C310 C286 1.431 . S
C310 C309 1.317 . S
C311 Gd252 2.828 1_655 S
C311 O296 1.258 . S
C311 O301 1.252 . S
C311 C312 1.497 . S
C312 C311 1.497 . S
C312 C313 1.395 . S
C312 C314 1.380 . S
C313 C312 1.395 . S
C313 C316 1.398 . S
C313 H328 0.930 . S
C314 C312 1.380 . S
C314 C315 1.391 . S
C314 H329 0.930 . S
C315 C314 1.391 . S
C315 C317 1.387 . S
C316 C313 1.398 . S
C316 C317 1.380 . S
C316 H330 0.930 . S
C317 C315 1.387 . S
C317 C316 1.380 . S
C317 H331 0.930 . S
C318 O298 1.254 . S
C318 O299 1.268 . S
C319 O303 1.284 . S
C319 O306 1.250 . S
C320 Gd253 2.828 . S
C320 O302 1.258 . S
C320 O307 1.252 . S
C320 C321 1.497 . S
C321 C320 1.497 . S
C321 C322 1.395 . S
C321 C323 1.380 . S
C322 C321 1.395 . S
C322 C325 1.398 . S
C322 H332 0.930 . S
C323 C321 1.380 . S
C323 C324 1.391 . S
C323 H333 0.930 . S
C324 C323 1.391 . S
C324 C326 1.387 . S
C325 C322 1.398 . S
C325 C326 1.380 . S
C325 H334 0.930 . S
C326 C324 1.387 . S
C326 C325 1.380 . S
C326 H335 0.930 . S
C327 O304 1.254 . S
C327 O305 1.268 . S
H328 C313 0.930 . S
H329 C314 0.930 . S
H330 C316 0.930 . S
H331 C317 0.930 . S
H332 C322 0.930 . S
H333 C323 0.930 . S
H334 C325 0.930 . S
H335 C326 0.930 . S
Gd336 N367 2.661 . S
Gd336 N373 2.601 . S
Gd336 O380 2.545 . S
Gd336 O381 2.606 . S
Gd336 O383 2.429 . S
Gd336 O384 2.545 . S
Gd336 O385 2.412 . S
Gd336 O387 2.362 . S
Gd336 O388 2.324 . S
Gd336 C395 2.828 . S
Gd337 N346 2.661 . S
Gd337 N350 2.601 . S
Gd337 O381 2.362 . S
Gd337 O382 2.324 . S
Gd337 O386 2.545 . S
Gd337 O387 2.606 . S
Gd337 O389 2.429 . S
Gd337 O390 2.545 . S
Gd337 O391 2.412 . S
Gd337 C404 2.828 . S
C338 C341 1.417 . S
C338 C343 1.431 . S
C338 C344 1.412 . S
C339 C342 1.437 . S
C339 C343 1.317 . S
C339 H358 0.929 . S
C340 C341 1.426 . S
C340 C342 1.413 . S
C340 N350 1.359 . S
C341 C338 1.417 . S
C341 C340 1.426 . S
C341 N346 1.350 . S
C342 C339 1.437 . S
C342 C340 1.413 . S
C342 C352 1.391 . S
C343 C338 1.431 . S
C343 C339 1.317 . S
C343 H354 0.930 . S
C344 C338 1.412 . S
C344 C345 1.355 . S
C344 H356 0.930 . S
C345 C344 1.355 . S
C345 C347 1.402 . S
C345 H357 0.930 . S
N346 Gd337 2.661 . S
N346 C341 1.350 . S
N346 C347 1.307 . S
C347 C345 1.402 . S
C347 N346 1.307 . S
C347 H348 0.930 . S
H348 C347 0.930 . S
C349 N350 1.334 . S
C349 C351 1.394 . S
C349 H353 0.930 . S
N350 Gd337 2.601 . S
N350 C340 1.359 . S
N350 C349 1.334 . S
C351 C349 1.394 . S
C351 C352 1.359 . S
C351 H363 0.930 . S
C352 C342 1.391 . S
C352 C351 1.359 . S
C352 H364 0.929 . S
H353 C349 0.930 . S
H354 C343 0.930 . S
H355 C372 0.930 . S
H356 C344 0.930 . S
H357 C345 0.930 . S
H358 C339 0.929 . S
H359 C377 0.930 . S
H360 C368 0.930 . S
H361 C369 0.930 . S
H362 C393 0.929 . S
H363 C351 0.930 . S
H364 C352 0.929 . S
H365 C394 0.930 . S
H366 C375 0.930 . S
N367 Gd336 2.661 . S
N367 C371 1.350 . S
N367 C372 1.307 . S
C368 H360 0.930 . S
C368 C369 1.355 . S
C368 C370 1.412 . S
C369 H361 0.930 . S
C369 C368 1.355 . S
C369 C372 1.402 . S
C370 C368 1.412 . S
C370 C371 1.417 . S
C370 C394 1.431 . S
C371 N367 1.350 . S
C371 C370 1.417 . S
C371 C374 1.426 . S
C372 H355 0.930 . S
C372 N367 1.307 . S
C372 C369 1.402 . S
N373 Gd336 2.601 . S
N373 C374 1.359 . S
N373 C377 1.334 . S
C374 C371 1.426 . S
C374 N373 1.359 . S
C374 C378 1.413 . S
C375 H366 0.930 . S
C375 C376 1.359 . S
C375 C377 1.394 . S
C376 C375 1.359 . S
C376 C378 1.391 . S
C376 H379 0.929 . S
C377 H359 0.930 . S
C377 N373 1.334 . S
C377 C375 1.394 . S
C378 C374 1.413 . S
C378 C376 1.391 . S
C378 C393 1.437 . S
H379 C376 0.929 . S
O380 Gd336 2.545 . S
O380 C395 1.258 . S
O381 Gd336 2.606 . S
O381 Gd337 2.362 . S
O381 C392 1.284 . S
O382 Gd337 2.324 . S
O382 C402 1.254 . S
O383 Gd336 2.429 . S
O383 C402 1.268 . S
O384 Gd336 2.545 . S
O384 C392 1.250 . S
O385 Gd336 2.412 . S
O385 C395 1.252 . S
O386 Gd337 2.545 . S
O386 C404 1.258 . S
O387 Gd336 2.362 . S
O387 Gd337 2.606 . S
O387 C403 1.284 . S
O388 Gd336 2.324 . S
O388 C411 1.254 . S
O389 Gd337 2.429 . S
O389 C411 1.268 . S
O390 Gd337 2.545 . S
O390 C403 1.250 . S
O391 Gd337 2.412 . S
O391 C404 1.252 . S
C392 O381 1.284 . S
C392 O384 1.250 . S
C393 H362 0.929 . S
C393 C378 1.437 . S
C393 C394 1.317 . S
C394 H365 0.930 . S
C394 C370 1.431 . S
C394 C393 1.317 . S
C395 Gd336 2.828 . S
C395 O380 1.258 . S
C395 O385 1.252 . S
C395 C396 1.497 . S
C396 C395 1.497 . S
C396 C397 1.395 . S
C396 C398 1.380 . S
C397 C396 1.395 . S
C397 C400 1.398 . S
C397 H412 0.930 . S
C398 C396 1.380 . S
C398 C399 1.391 . S
C398 H413 0.930 . S
C399 C398 1.391 . S
C399 C401 1.387 . S
C400 C397 1.398 . S
C400 C401 1.380 . S
C400 H414 0.930 . S
C401 C399 1.387 . S
C401 C400 1.380 . S
C401 H415 0.930 . S
C402 O382 1.254 . S
C402 O383 1.268 . S
C403 O387 1.284 . S
C403 O390 1.250 . S
C404 Gd337 2.828 . S
C404 O386 1.258 . S
C404 O391 1.252 . S
C404 C405 1.497 . S
C405 C404 1.497 . S
C405 C406 1.395 . S
C405 C407 1.380 . S
C406 C405 1.395 . S
C406 C409 1.398 . S
C406 H416 0.930 . S
C407 C405 1.380 . S
C407 C408 1.391 . S
C407 H417 0.930 . S
C408 C407 1.391 . S
C408 C410 1.387 . S
C409 C406 1.398 . S
C409 C410 1.380 . S
C409 H418 0.930 . S
C410 C408 1.387 . S
C410 C409 1.380 . S
C410 H419 0.930 1_565 S
C411 O388 1.254 . S
C411 O389 1.268 . S
H412 C397 0.930 . S
H413 C398 0.930 . S
H414 C400 0.930 . S
H415 C401 0.930 . S
H416 C406 0.930 . S
H417 C407 0.930 . S
H418 C409 0.930 . S
H419 C410 0.930 1_545 S
Gd420 N451 2.661 . S
Gd420 N457 2.601 . S
Gd420 O464 2.545 . S
Gd420 O465 2.606 . S
Gd420 O467 2.429 . S
Gd420 O468 2.545 . S
Gd420 O469 2.412 . S
Gd420 O471 2.362 1_545 S
Gd420 O472 2.324 . S
Gd420 C479 2.828 . S
Gd421 N430 2.661 . S
Gd421 N434 2.601 . S
Gd421 O465 2.362 . S
Gd421 O466 2.324 . S
Gd421 O470 2.545 1_545 S
Gd421 O471 2.606 1_545 S
Gd421 O473 2.429 . S
Gd421 O474 2.545 1_545 S
Gd421 O475 2.412 1_545 S
Gd421 C488 2.828 1_545 S
C422 C425 1.417 . S
C422 C427 1.431 . S
C422 C428 1.412 . S
C423 C426 1.437 . S
C423 C427 1.317 . S
C423 H442 0.929 . S
C424 C425 1.426 . S
C424 C426 1.413 . S
C424 N434 1.359 . S
C425 C422 1.417 . S
C425 C424 1.426 . S
C425 N430 1.350 . S
C426 C423 1.437 . S
C426 C424 1.413 . S
C426 C436 1.391 . S
C427 C422 1.431 . S
C427 C423 1.317 . S
C427 H438 0.930 . S
C428 C422 1.412 . S
C428 C429 1.355 . S
C428 H440 0.930 . S
C429 C428 1.355 . S
C429 C431 1.402 . S
C429 H441 0.930 . S
N430 Gd421 2.661 . S
N430 C425 1.350 . S
N430 C431 1.307 . S
C431 C429 1.402 . S
C431 N430 1.307 . S
C431 H432 0.930 . S
H432 C431 0.930 . S
C433 N434 1.334 . S
C433 C435 1.394 . S
C433 H437 0.930 . S
N434 Gd421 2.601 . S
N434 C424 1.359 . S
N434 C433 1.334 . S
C435 C433 1.394 . S
C435 C436 1.359 . S
C435 H447 0.930 . S
C436 C426 1.391 . S
C436 C435 1.359 . S
C436 H448 0.929 . S
H437 C433 0.930 . S
H438 C427 0.930 . S
H439 C456 0.930 . S
H440 C428 0.930 . S
H441 C429 0.930 . S
H442 C423 0.929 . S
H443 C461 0.930 . S
H444 C452 0.930 . S
H445 C453 0.930 . S
H446 C477 0.929 . S
H447 C435 0.930 . S
H448 C436 0.929 . S
H449 C478 0.930 . S
H450 C459 0.930 . S
N451 Gd420 2.661 . S
N451 C455 1.350 . S
N451 C456 1.307 . S
C452 H444 0.930 . S
C452 C453 1.355 . S
C452 C454 1.412 . S
C453 H445 0.930 . S
C453 C452 1.355 . S
C453 C456 1.402 1_565 S
C454 C452 1.412 . S
C454 C455 1.417 1_565 S
C454 C478 1.431 . S
C455 N451 1.350 . S
C455 C454 1.417 1_545 S
C455 C458 1.426 . S
C456 H439 0.930 . S
C456 N451 1.307 . S
C456 C453 1.402 1_545 S
N457 Gd420 2.601 . S
N457 C458 1.359 . S
N457 C461 1.334 . S
C458 C455 1.426 . S
C458 N457 1.359 . S
C458 C462 1.413 . S
C459 H450 0.930 . S
C459 C460 1.359 . S
C459 C461 1.394 . S
C460 C459 1.359 . S
C460 C462 1.391 . S
C460 H463 0.929 . S
C461 H443 0.930 . S
C461 N457 1.334 . S
C461 C459 1.394 . S
C462 C458 1.413 . S
C462 C460 1.391 . S
C462 C477 1.437 1_545 S
H463 C460 0.929 . S
O464 Gd420 2.545 . S
O464 C479 1.258 . S
O465 Gd420 2.606 . S
O465 Gd421 2.362 . S
O465 C476 1.284 . S
O466 Gd421 2.324 . S
O466 C486 1.254 . S
O467 Gd420 2.429 . S
O467 C486 1.268 . S
O468 Gd420 2.545 . S
O468 C476 1.250 . S
O469 Gd420 2.412 . S
O469 C479 1.252 . S
O470 Gd421 2.545 1_565 S
O470 C488 1.258 . S
O471 Gd420 2.362 1_565 S
O471 Gd421 2.606 1_565 S
O471 C487 1.284 . S
O472 Gd420 2.324 . S
O472 C495 1.254 . S
O473 Gd421 2.429 . S
O473 C495 1.268 . S
O474 Gd421 2.545 1_565 S
O474 C487 1.250 . S
O475 Gd421 2.412 1_565 S
O475 C488 1.252 . S
C476 O465 1.284 . S
C476 O468 1.250 . S
C477 H446 0.929 . S
C477 C462 1.437 1_565 S
C477 C478 1.317 . S
C478 H449 0.930 . S
C478 C454 1.431 . S
C478 C477 1.317 . S
C479 Gd420 2.828 . S
C479 O464 1.258 . S
C479 O469 1.252 . S
C479 C480 1.497 . S
C480 C479 1.497 . S
C480 C481 1.395 . S
C480 C482 1.380 . S
C481 C480 1.395 . S
C481 C484 1.398 . S
C481 H496 0.930 . S
C482 C480 1.380 . S
C482 C483 1.391 . S
C482 H497 0.930 . S
C483 C482 1.391 . S
C483 C485 1.387 . S
C484 C481 1.398 . S
C484 C485 1.380 . S
C484 H498 0.930 . S
C485 C483 1.387 . S
C485 C484 1.380 . S
C485 H499 0.930 . S
C486 O466 1.254 . S
C486 O467 1.268 . S
C487 O471 1.284 . S
C487 O474 1.250 . S
C488 Gd421 2.828 1_565 S
C488 O470 1.258 . S
C488 O475 1.252 . S
C488 C489 1.497 . S
C489 C488 1.497 . S
C489 C490 1.395 . S
C489 C491 1.380 . S
C490 C489 1.395 . S
C490 C493 1.398 . S
C490 H500 0.930 . S
C491 C489 1.380 . S
C491 C492 1.391 . S
C491 H501 0.930 . S
C492 C491 1.391 . S
C492 C494 1.387 . S
C493 C490 1.398 . S
C493 C494 1.380 . S
C493 H502 0.930 . S
C494 C492 1.387 . S
C494 C493 1.380 . S
C494 H503 0.930 . S
C495 O472 1.254 . S
C495 O473 1.268 . S
H496 C481 0.930 . S
H497 C482 0.930 . S
H498 C484 0.930 . S
H499 C485 0.930 . S
H500 C490 0.930 . S
H501 C491 0.930 . S
H502 C493 0.930 . S
H503 C494 0.930 . S
Gd504 N535 2.661 . S
Gd504 N541 2.601 . S
Gd504 O548 2.545 1_545 S
Gd504 O549 2.606 1_545 S
Gd504 O551 2.429 . S
Gd504 O552 2.545 1_545 S
Gd504 O553 2.412 1_545 S
Gd504 O555 2.362 . S
Gd504 O556 2.324 . S
Gd504 C563 2.828 1_545 S
Gd505 N514 2.661 . S
Gd505 N518 2.601 . S
Gd505 O549 2.362 1_545 S
Gd505 O550 2.324 . S
Gd505 O554 2.545 . S
Gd505 O555 2.606 . S
Gd505 O557 2.429 . S
Gd505 O558 2.545 . S
Gd505 O559 2.412 . S
Gd505 C572 2.828 . S
C506 C509 1.417 1_565 S
C506 C511 1.431 . S
C506 C512 1.412 . S
C507 C510 1.437 1_565 S
C507 C511 1.317 . S
C507 H526 0.929 . S
C508 C509 1.426 . S
C508 C510 1.413 . S
C508 N518 1.359 . S
C509 C506 1.417 1_545 S
C509 C508 1.426 . S
C509 N514 1.350 . S
C510 C507 1.437 1_545 S
C510 C508 1.413 . S
C510 C520 1.391 . S
C511 C506 1.431 . S
C511 C507 1.317 . S
C511 H522 0.930 . S
C512 C506 1.412 . S
C512 C513 1.355 . S
C512 H524 0.930 . S
C513 C512 1.355 . S
C513 C515 1.402 1_565 S
C513 H525 0.930 . S
N514 Gd505 2.661 . S
N514 C509 1.350 . S
N514 C515 1.307 . S
C515 C513 1.402 1_545 S
C515 N514 1.307 . S
C515 H516 0.930 . S
H516 C515 0.930 . S
C517 N518 1.334 . S
C517 C519 1.394 . S
C517 H521 0.930 . S
N518 Gd505 2.601 . S
N518 C508 1.359 . S
N518 C517 1.334 . S
C519 C517 1.394 . S
C519 C520 1.359 . S
C519 H531 0.930 . S
C520 C510 1.391 . S
C520 C519 1.359 . S
C520 H532 0.929 . S
H521 C517 0.930 . S
H522 C511 0.930 . S
H523 C540 0.930 . S
H524 C512 0.930 . S
H525 C513 0.930 . S
H526 C507 0.929 . S
H527 C545 0.930 . S
H528 C536 0.930 . S
H529 C537 0.930 . S
H530 C561 0.929 . S
H531 C519 0.930 . S
H532 C520 0.929 . S
H533 C562 0.930 . S
H534 C543 0.930 . S
N535 Gd504 2.661 . S
N535 C539 1.350 . S
N535 C540 1.307 . S
C536 H528 0.930 . S
C536 C537 1.355 . S
C536 C538 1.412 . S
C537 H529 0.930 . S
C537 C536 1.355 . S
C537 C540 1.402 . S
C538 C536 1.412 . S
C538 C539 1.417 . S
C538 C562 1.431 . S
C539 N535 1.350 . S
C539 C538 1.417 . S
C539 C542 1.426 . S
C540 H523 0.930 . S
C540 N535 1.307 . S
C540 C537 1.402 . S
N541 Gd504 2.601 . S
N541 C542 1.359 . S
N541 C545 1.334 1_556 S
C542 C539 1.426 . S
C542 N541 1.359 . S
C542 C546 1.413 1_556 S
C543 H534 0.930 . S
C543 C544 1.359 . S
C543 C545 1.394 . S
C544 C543 1.359 . S
C544 C546 1.391 . S
C544 H547 0.929 . S
C545 H527 0.930 . S
C545 N541 1.334 1_554 S
C545 C543 1.394 . S
C546 C542 1.413 1_554 S
C546 C544 1.391 . S
C546 C561 1.437 . S
H547 C544 0.929 . S
O548 Gd504 2.545 1_565 S
O548 C563 1.258 . S
O549 Gd504 2.606 1_565 S
O549 Gd505 2.362 1_565 S
O549 C560 1.284 . S
O550 Gd505 2.324 . S
O550 C570 1.254 . S
O551 Gd504 2.429 . S
O551 C570 1.268 . S
O552 Gd504 2.545 1_565 S
O552 C560 1.250 . S
O553 Gd504 2.412 1_565 S
O553 C563 1.252 . S
O554 Gd505 2.545 . S
O554 C572 1.258 . S
O555 Gd504 2.362 . S
O555 Gd505 2.606 . S
O555 C571 1.284 . S
O556 Gd504 2.324 . S
O556 C579 1.254 . S
O557 Gd505 2.429 . S
O557 C579 1.268 . S
O558 Gd505 2.545 . S
O558 C571 1.250 . S
O559 Gd505 2.412 . S
O559 C572 1.252 . S
C560 O549 1.284 . S
C560 O552 1.250 . S
C561 H530 0.929 . S
C561 C546 1.437 . S
C561 C562 1.317 1_554 S
C562 H533 0.930 . S
C562 C538 1.431 . S
C562 C561 1.317 1_556 S
C563 Gd504 2.828 1_565 S
C563 O548 1.258 . S
C563 O553 1.252 . S
C563 C564 1.497 . S
C564 C563 1.497 . S
C564 C565 1.395 . S
C564 C566 1.380 . S
C565 C564 1.395 . S
C565 C568 1.398 . S
C565 H580 0.930 1_556 S
C566 C564 1.380 . S
C566 C567 1.391 . S
C566 H581 0.930 . S
C567 C566 1.391 . S
C567 C569 1.387 . S
C568 C565 1.398 . S
C568 C569 1.380 . S
C568 H582 0.930 1_556 S
C569 C567 1.387 . S
C569 C568 1.380 . S
C569 H583 0.930 . S
C570 O550 1.254 . S
C570 O551 1.268 . S
C571 O555 1.284 . S
C571 O558 1.250 . S
C572 Gd505 2.828 . S
C572 O554 1.258 . S
C572 O559 1.252 . S
C572 C573 1.497 . S
C573 C572 1.497 . S
C573 C574 1.395 . S
C573 C575 1.380 . S
C574 C573 1.395 . S
C574 C577 1.398 . S
C574 H584 0.930 . S
C575 C573 1.380 . S
C575 C576 1.391 . S
C575 H585 0.930 . S
C576 C575 1.391 . S
C576 C578 1.387 . S
C577 C574 1.398 . S
C577 C578 1.380 . S
C577 H586 0.930 . S
C578 C576 1.387 . S
C578 C577 1.380 . S
C578 H587 0.930 . S
C579 O556 1.254 . S
C579 O557 1.268 . S
H580 C565 0.930 1_554 S
H581 C566 0.930 . S
H582 C568 0.930 1_554 S
H583 C569 0.930 . S
H584 C574 0.930 . S
H585 C575 0.930 . S
H586 C577 0.930 . S
H587 C578 0.930 . S
Gd588 N619 2.661 . S
Gd588 N625 2.601 . S
Gd588 O632 2.545 . S
Gd588 O633 2.606 . S
Gd588 O635 2.429 . S
Gd588 O636 2.545 . S
Gd588 O637 2.412 . S
Gd588 O639 2.362 . S
Gd588 O640 2.324 . S
Gd588 C647 2.828 . S
Gd589 N598 2.661 . S
Gd589 N602 2.601 . S
Gd589 O633 2.362 . S
Gd589 O634 2.324 . S
Gd589 O638 2.545 1_455 S
Gd589 O639 2.606 . S
Gd589 O641 2.429 . S
Gd589 O642 2.545 1_455 S
Gd589 O643 2.412 1_455 S
Gd589 C656 2.828 1_455 S
C590 C593 1.417 . S
C590 C595 1.431 . S
C590 C596 1.412 . S
C591 C594 1.437 . S
C591 C595 1.317 . S
C591 H610 0.929 . S
C592 C593 1.426 . S
C592 C594 1.413 . S
C592 N602 1.359 . S
C593 C590 1.417 . S
C593 C592 1.426 . S
C593 N598 1.350 . S
C594 C591 1.437 . S
C594 C592 1.413 . S
C594 C604 1.391 . S
C595 C590 1.431 . S
C595 C591 1.317 . S
C595 H606 0.930 . S
C596 C590 1.412 . S
C596 C597 1.355 . S
C596 H608 0.930 . S
C597 C596 1.355 . S
C597 C599 1.402 . S
C597 H609 0.930 . S
N598 Gd589 2.661 . S
N598 C593 1.350 . S
N598 C599 1.307 . S
C599 C597 1.402 . S
C599 N598 1.307 . S
C599 H600 0.930 . S
H600 C599 0.930 . S
C601 N602 1.334 . S
C601 C603 1.394 . S
C601 H605 0.930 . S
N602 Gd589 2.601 . S
N602 C592 1.359 . S
N602 C601 1.334 . S
C603 C601 1.394 . S
C603 C604 1.359 . S
C603 H615 0.930 . S
C604 C594 1.391 . S
C604 C603 1.359 . S
C604 H616 0.929 . S
H605 C601 0.930 . S
H606 C595 0.930 . S
H607 C624 0.930 . S
H608 C596 0.930 . S
H609 C597 0.930 . S
H610 C591 0.929 . S
H611 C629 0.930 . S
H612 C620 0.930 1_655 S
H613 C621 0.930 . S
H614 C645 0.929 . S
H615 C603 0.930 . S
H616 C604 0.929 . S
H617 C646 0.930 1_655 S
H618 C627 0.930 . S
N619 Gd588 2.661 . S
N619 C623 1.350 . S
N619 C624 1.307 . S
C620 H612 0.930 1_455 S
C620 C621 1.355 . S
C620 C622 1.412 . S
C621 H613 0.930 . S
C621 C620 1.355 . S
C621 C624 1.402 . S
C622 C620 1.412 . S
C622 C623 1.417 . S
C622 C646 1.431 . S
C623 N619 1.350 . S
C623 C622 1.417 . S
C623 C626 1.426 . S
C624 H607 0.930 . S
C624 N619 1.307 . S
C624 C621 1.402 . S
N625 Gd588 2.601 . S
N625 C626 1.359 . S
N625 C629 1.334 1_556 S
C626 C623 1.426 . S
C626 N625 1.359 . S
C626 C630 1.413 1_556 S
C627 H618 0.930 . S
C627 C628 1.359 . S
C627 C629 1.394 . S
C628 C627 1.359 . S
C628 C630 1.391 . S
C628 H631 0.929 . S
C629 H611 0.930 . S
C629 N625 1.334 1_554 S
C629 C627 1.394 . S
C630 C626 1.413 1_554 S
C630 C628 1.391 . S
C630 C645 1.437 . S
H631 C628 0.929 . S
O632 Gd588 2.545 . S
O632 C647 1.258 . S
O633 Gd588 2.606 . S
O633 Gd589 2.362 . S
O633 C644 1.284 . S
O634 Gd589 2.324 . S
O634 C654 1.254 . S
O635 Gd588 2.429 . S
O635 C654 1.268 . S
O636 Gd588 2.545 . S
O636 C644 1.250 . S
O637 Gd588 2.412 . S
O637 C647 1.252 . S
O638 Gd589 2.545 1_655 S
O638 C656 1.258 . S
O639 Gd588 2.362 . S
O639 Gd589 2.606 . S
O639 C655 1.284 1_455 S
O640 Gd588 2.324 . S
O640 C663 1.254 . S
O641 Gd589 2.429 . S
O641 C663 1.268 . S
O642 Gd589 2.545 1_655 S
O642 C655 1.250 . S
O643 Gd589 2.412 1_655 S
O643 C656 1.252 . S
C644 O633 1.284 . S
C644 O636 1.250 . S
C645 H614 0.929 . S
C645 C630 1.437 . S
C645 C646 1.317 1_554 S
C646 H617 0.930 1_455 S
C646 C622 1.431 . S
C646 C645 1.317 1_556 S
C647 Gd588 2.828 . S
C647 O632 1.258 . S
C647 O637 1.252 . S
C647 C648 1.497 . S
C648 C647 1.497 . S
C648 C649 1.395 . S
C648 C650 1.380 . S
C649 C648 1.395 . S
C649 C652 1.398 . S
C649 H664 0.930 1_556 S
C650 C648 1.380 . S
C650 C651 1.391 . S
C650 H665 0.930 . S
C651 C650 1.391 . S
C651 C653 1.387 . S
C652 C649 1.398 . S
C652 C653 1.380 . S
C652 H666 0.930 1_556 S
C653 C651 1.387 . S
C653 C652 1.380 . S
C653 H667 0.930 1_565 S
C654 O634 1.254 . S
C654 O635 1.268 . S
C655 O639 1.284 1_655 S
C655 O642 1.250 . S
C656 Gd589 2.828 1_655 S
C656 O638 1.258 . S
C656 O643 1.252 . S
C656 C657 1.497 . S
C657 C656 1.497 . S
C657 C658 1.395 . S
C657 C659 1.380 . S
C658 C657 1.395 . S
C658 C661 1.398 . S
C658 H668 0.930 . S
C659 C657 1.380 . S
C659 C660 1.391 . S
C659 H669 0.930 . S
C660 C659 1.391 . S
C660 C662 1.387 . S
C661 C658 1.398 . S
C661 C662 1.380 . S
C661 H670 0.930 . S
C662 C660 1.387 . S
C662 C661 1.380 . S
C662 H671 0.930 . S
C663 O640 1.254 . S
C663 O641 1.268 . S
H664 C649 0.930 1_554 S
H665 C650 0.930 . S
H666 C652 0.930 1_554 S
H667 C653 0.930 1_545 S
H668 C658 0.930 . S
H669 C659 0.930 . S
H670 C661 0.930 . S
H671 C662 0.930 . S
Gd672 N703 2.661 . S
Gd672 N709 2.601 . S
Gd672 O716 2.545 . S
Gd672 O717 2.606 . S
Gd672 O719 2.429 . S
Gd672 O720 2.545 . S
Gd672 O721 2.412 . S
Gd672 O723 2.362 . S
Gd672 O724 2.324 . S
Gd672 C731 2.828 . S
Gd673 N682 2.661 . S
Gd673 N686 2.601 . S
Gd673 O717 2.362 . S
Gd673 O718 2.324 . S
Gd673 O722 2.545 . S
Gd673 O723 2.606 . S
Gd673 O725 2.429 . S
Gd673 O726 2.545 . S
Gd673 O727 2.412 . S
Gd673 C740 2.828 . S
C674 C677 1.417 . S
C674 C679 1.431 . S
C674 C680 1.412 . S
C675 C678 1.437 . S
C675 C679 1.317 . S
C675 H694 0.929 . S
C676 C677 1.426 . S
C676 C678 1.413 . S
C676 N686 1.359 . S
C677 C674 1.417 . S
C677 C676 1.426 . S
C677 N682 1.350 . S
C678 C675 1.437 . S
C678 C676 1.413 . S
C678 C688 1.391 . S
C679 C674 1.431 . S
C679 C675 1.317 . S
C679 H690 0.930 . S
C680 C674 1.412 . S
C680 C681 1.355 . S
C680 H692 0.930 . S
C681 C680 1.355 . S
C681 C683 1.402 . S
C681 H693 0.930 . S
N682 Gd673 2.661 . S
N682 C677 1.350 . S
N682 C683 1.307 . S
C683 C681 1.402 . S
C683 N682 1.307 . S
C683 H684 0.930 . S
H684 C683 0.930 . S
C685 N686 1.334 . S
C685 C687 1.394 . S
C685 H689 0.930 . S
N686 Gd673 2.601 . S
N686 C676 1.359 . S
N686 C685 1.334 . S
C687 C685 1.394 . S
C687 C688 1.359 . S
C687 H699 0.930 . S
C688 C678 1.391 . S
C688 C687 1.359 . S
C688 H700 0.929 . S
H689 C685 0.930 . S
H690 C679 0.930 . S
H691 C708 0.930 . S
H692 C680 0.930 . S
H693 C681 0.930 . S
H694 C675 0.929 . S
H695 C713 0.930 . S
H696 C704 0.930 . S
H697 C705 0.930 . S
H698 C729 0.929 . S
H699 C687 0.930 . S
H700 C688 0.929 . S
H701 C730 0.930 . S
H702 C711 0.930 . S
N703 Gd672 2.661 . S
N703 C707 1.350 . S
N703 C708 1.307 . S
C704 H696 0.930 . S
C704 C705 1.355 . S
C704 C706 1.412 . S
C705 H697 0.930 . S
C705 C704 1.355 . S
C705 C708 1.402 . S
C706 C704 1.412 . S
C706 C707 1.417 . S
C706 C730 1.431 . S
C707 N703 1.350 . S
C707 C706 1.417 . S
C707 C710 1.426 . S
C708 H691 0.930 . S
C708 N703 1.307 . S
C708 C705 1.402 . S
N709 Gd672 2.601 . S
N709 C710 1.359 . S
N709 C713 1.334 1_556 S
C710 C707 1.426 . S
C710 N709 1.359 . S
C710 C714 1.413 1_556 S
C711 H702 0.930 . S
C711 C712 1.359 . S
C711 C713 1.394 . S
C712 C711 1.359 . S
C712 C714 1.391 . S
C712 H715 0.929 . S
C713 H695 0.930 . S
C713 N709 1.334 1_554 S
C713 C711 1.394 . S
C714 C710 1.413 1_554 S
C714 C712 1.391 . S
C714 C729 1.437 . S
H715 C712 0.929 . S
O716 Gd672 2.545 . S
O716 C731 1.258 . S
O717 Gd672 2.606 . S
O717 Gd673 2.362 . S
O717 C728 1.284 . S
O718 Gd673 2.324 . S
O718 C738 1.254 . S
O719 Gd672 2.429 . S
O719 C738 1.268 . S
O720 Gd672 2.545 . S
O720 C728 1.250 . S
O721 Gd672 2.412 . S
O721 C731 1.252 . S
O722 Gd673 2.545 . S
O722 C740 1.258 . S
O723 Gd672 2.362 . S
O723 Gd673 2.606 . S
O723 C739 1.284 . S
O724 Gd672 2.324 . S
O724 C747 1.254 . S
O725 Gd673 2.429 . S
O725 C747 1.268 . S
O726 Gd673 2.545 . S
O726 C739 1.250 . S
O727 Gd673 2.412 . S
O727 C740 1.252 . S
C728 O717 1.284 . S
C728 O720 1.250 . S
C729 H698 0.929 . S
C729 C714 1.437 . S
C729 C730 1.317 1_554 S
C730 H701 0.930 . S
C730 C706 1.431 . S
C730 C729 1.317 1_556 S
C731 Gd672 2.828 . S
C731 O716 1.258 . S
C731 O721 1.252 . S
C731 C732 1.497 . S
C732 C731 1.497 . S
C732 C733 1.395 . S
C732 C734 1.380 . S
C733 C732 1.395 . S
C733 C736 1.398 . S
C733 H748 0.930 1_556 S
C734 C732 1.380 . S
C734 C735 1.391 . S
C734 H749 0.930 . S
C735 C734 1.391 . S
C735 C737 1.387 . S
C736 C733 1.398 . S
C736 C737 1.380 . S
C736 H750 0.930 1_556 S
C737 C735 1.387 . S
C737 C736 1.380 . S
C737 H751 0.930 . S
C738 O718 1.254 . S
C738 O719 1.268 . S
C739 O723 1.284 . S
C739 O726 1.250 . S
C740 Gd673 2.828 . S
C740 O722 1.258 . S
C740 O727 1.252 . S
C740 C741 1.497 . S
C741 C740 1.497 . S
C741 C742 1.395 . S
C741 C743 1.380 . S
C742 C741 1.395 . S
C742 C745 1.398 . S
C742 H752 0.930 . S
C743 C741 1.380 . S
C743 C744 1.391 . S
C743 H753 0.930 . S
C744 C743 1.391 . S
C744 C746 1.387 . S
C745 C742 1.398 . S
C745 C746 1.380 . S
C745 H754 0.930 . S
C746 C744 1.387 . S
C746 C745 1.380 . S
C746 H755 0.930 . S
C747 O724 1.254 . S
C747 O725 1.268 . S
H748 C733 0.930 1_554 S
H749 C734 0.930 . S
H750 C736 0.930 1_554 S
H751 C737 0.930 . S
H752 C742 0.930 . S
H753 C743 0.930 . S
H754 C745 0.930 . S
H755 C746 0.930 . S
Gd756 N787 2.661 . S
Gd756 N793 2.601 . S
Gd756 O800 2.545 1_455 S
Gd756 O801 2.606 1_455 S
Gd756 O803 2.429 . S
Gd756 O804 2.545 1_455 S
Gd756 O805 2.412 1_455 S
Gd756 O807 2.362 . S
Gd756 O808 2.324 . S
Gd756 C815 2.828 1_455 S
Gd757 N766 2.661 . S
Gd757 N770 2.601 . S
Gd757 O801 2.362 1_455 S
Gd757 O802 2.324 . S
Gd757 O806 2.545 . S
Gd757 O807 2.606 . S
Gd757 O809 2.429 . S
Gd757 O810 2.545 . S
Gd757 O811 2.412 . S
Gd757 C824 2.828 . S
C758 C761 1.417 1_655 S
C758 C763 1.431 . S
C758 C764 1.412 . S
C759 C762 1.437 1_655 S
C759 C763 1.317 . S
C759 H778 0.929 . S
C760 C761 1.426 . S
C760 C762 1.413 . S
C760 N770 1.359 . S
C761 C758 1.417 1_455 S
C761 C760 1.426 . S
C761 N766 1.350 . S
C762 C759 1.437 1_455 S
C762 C760 1.413 . S
C762 C772 1.391 . S
C763 C758 1.431 . S
C763 C759 1.317 . S
C763 H774 0.930 . S
C764 C758 1.412 . S
C764 C765 1.355 . S
C764 H776 0.930 . S
C765 C764 1.355 . S
C765 C767 1.402 1_655 S
C765 H777 0.930 . S
N766 Gd757 2.661 . S
N766 C761 1.350 . S
N766 C767 1.307 . S
C767 C765 1.402 1_455 S
C767 N766 1.307 . S
C767 H768 0.930 . S
H768 C767 0.930 . S
C769 N770 1.334 . S
C769 C771 1.394 . S
C769 H773 0.930 . S
N770 Gd757 2.601 . S
N770 C760 1.359 . S
N770 C769 1.334 . S
C771 C769 1.394 . S
C771 C772 1.359 . S
C771 H783 0.930 . S
C772 C762 1.391 . S
C772 C771 1.359 . S
C772 H784 0.929 . S
H773 C769 0.930 . S
H774 C763 0.930 . S
H775 C792 0.930 . S
H776 C764 0.930 . S
H777 C765 0.930 . S
H778 C759 0.929 . S
H779 C797 0.930 . S
H780 C788 0.930 . S
H781 C789 0.930 . S
H782 C813 0.929 . S
H783 C771 0.930 . S
H784 C772 0.929 . S
H785 C814 0.930 . S
H786 C795 0.930 . S
N787 Gd756 2.661 . S
N787 C791 1.350 . S
N787 C792 1.307 . S
C788 H780 0.930 . S
C788 C789 1.355 . S
C788 C790 1.412 . S
C789 H781 0.930 . S
C789 C788 1.355 . S
C789 C792 1.402 . S
C790 C788 1.412 . S
C790 C791 1.417 . S
C790 C814 1.431 . S
C791 N787 1.350 . S
C791 C790 1.417 . S
C791 C794 1.426 . S
C792 H775 0.930 . S
C792 N787 1.307 . S
C792 C789 1.402 . S
N793 Gd756 2.601 . S
N793 C794 1.359 . S
N793 C797 1.334 . S
C794 C791 1.426 . S
C794 N793 1.359 . S
C794 C798 1.413 . S
C795 H786 0.930 . S
C795 C796 1.359 . S
C795 C797 1.394 . S
C796 C795 1.359 . S
C796 C798 1.391 . S
C796 H799 0.929 . S
C797 H779 0.930 . S
C797 N793 1.334 . S
C797 C795 1.394 . S
C798 C794 1.413 . S
C798 C796 1.391 . S
C798 C813 1.437 . S
H799 C796 0.929 . S
O800 Gd756 2.545 1_655 S
O800 C815 1.258 . S
O801 Gd756 2.606 1_655 S
O801 Gd757 2.362 1_655 S
O801 C812 1.284 . S
O802 Gd757 2.324 . S
O802 C822 1.254 . S
O803 Gd756 2.429 . S
O803 C822 1.268 . S
O804 Gd756 2.545 1_655 S
O804 C812 1.250 . S
O805 Gd756 2.412 1_655 S
O805 C815 1.252 . S
O806 Gd757 2.545 . S
O806 C824 1.258 . S
O807 Gd756 2.362 . S
O807 Gd757 2.606 . S
O807 C823 1.284 . S
O808 Gd756 2.324 . S
O808 C831 1.254 . S
O809 Gd757 2.429 . S
O809 C831 1.268 . S
O810 Gd757 2.545 . S
O810 C823 1.250 . S
O811 Gd757 2.412 . S
O811 C824 1.252 . S
C812 O801 1.284 . S
C812 O804 1.250 . S
C813 H782 0.929 . S
C813 C798 1.437 . S
C813 C814 1.317 . S
C814 H785 0.930 . S
C814 C790 1.431 . S
C814 C813 1.317 . S
C815 Gd756 2.828 1_655 S
C815 O800 1.258 . S
C815 O805 1.252 . S
C815 C816 1.497 . S
C816 C815 1.497 . S
C816 C817 1.395 . S
C816 C818 1.380 . S
C817 C816 1.395 . S
C817 C820 1.398 . S
C817 H832 0.930 . S
C818 C816 1.380 . S
C818 C819 1.391 . S
C818 H833 0.930 . S
C819 C818 1.391 . S
C819 C821 1.387 . S
C820 C817 1.398 . S
C820 C821 1.380 . S
C820 H834 0.930 . S
C821 C819 1.387 . S
C821 C820 1.380 . S
C821 H835 0.930 . S
C822 O802 1.254 . S
C822 O803 1.268 . S
C823 O807 1.284 . S
C823 O810 1.250 . S
C824 Gd757 2.828 . S
C824 O806 1.258 . S
C824 O811 1.252 . S
C824 C825 1.497 . S
C825 C824 1.497 . S
C825 C826 1.395 . S
C825 C827 1.380 . S
C826 C825 1.395 . S
C826 C829 1.398 . S
C826 H836 0.930 . S
C827 C825 1.380 . S
C827 C828 1.391 . S
C827 H837 0.930 . S
C828 C827 1.391 . S
C828 C830 1.387 . S
C829 C826 1.398 . S
C829 C830 1.380 . S
C829 H838 0.930 . S
C830 C828 1.387 . S
C830 C829 1.380 . S
C830 H839 0.930 . S
C831 O808 1.254 . S
C831 O809 1.268 . S
H832 C817 0.930 . S
H833 C818 0.930 . S
H834 C820 0.930 . S
H835 C821 0.930 . S
H836 C826 0.930 . S
H837 C827 0.930 . S
H838 C829 0.930 . S
H839 C830 0.930 . S
Gd840 N871 2.661 . S
Gd840 N877 2.601 . S
Gd840 O884 2.545 . S
Gd840 O885 2.606 . S
Gd840 O887 2.429 . S
Gd840 O888 2.545 . S
Gd840 O889 2.412 . S
Gd840 O891 2.362 . S
Gd840 O892 2.324 . S
Gd840 C899 2.828 . S
Gd841 N850 2.661 . S
Gd841 N854 2.601 . S
Gd841 O885 2.362 . S
Gd841 O886 2.324 . S
Gd841 O890 2.545 . S
Gd841 O891 2.606 . S
Gd841 O893 2.429 . S
Gd841 O894 2.545 . S
Gd841 O895 2.412 . S
Gd841 C908 2.828 . S
C842 C845 1.417 . S
C842 C847 1.431 . S
C842 C848 1.412 . S
C843 C846 1.437 . S
C843 C847 1.317 . S
C843 H862 0.929 . S
C844 C845 1.426 . S
C844 C846 1.413 . S
C844 N854 1.359 . S
C845 C842 1.417 . S
C845 C844 1.426 . S
C845 N850 1.350 . S
C846 C843 1.437 . S
C846 C844 1.413 . S
C846 C856 1.391 . S
C847 C842 1.431 . S
C847 C843 1.317 . S
C847 H858 0.930 . S
C848 C842 1.412 . S
C848 C849 1.355 . S
C848 H860 0.930 . S
C849 C848 1.355 . S
C849 C851 1.402 . S
C849 H861 0.930 . S
N850 Gd841 2.661 . S
N850 C845 1.350 . S
N850 C851 1.307 . S
C851 C849 1.402 . S
C851 N850 1.307 . S
C851 H852 0.930 . S
H852 C851 0.930 . S
C853 N854 1.334 . S
C853 C855 1.394 . S
C853 H857 0.930 . S
N854 Gd841 2.601 . S
N854 C844 1.359 . S
N854 C853 1.334 . S
C855 C853 1.394 . S
C855 C856 1.359 . S
C855 H867 0.930 . S
C856 C846 1.391 . S
C856 C855 1.359 . S
C856 H868 0.929 . S
H857 C853 0.930 . S
H858 C847 0.930 . S
H859 C876 0.930 . S
H860 C848 0.930 . S
H861 C849 0.930 . S
H862 C843 0.929 . S
H863 C881 0.930 . S
H864 C872 0.930 . S
H865 C873 0.930 . S
H866 C897 0.929 . S
H867 C855 0.930 . S
H868 C856 0.929 . S
H869 C898 0.930 . S
H870 C879 0.930 . S
N871 Gd840 2.661 . S
N871 C875 1.350 . S
N871 C876 1.307 . S
C872 H864 0.930 . S
C872 C873 1.355 . S
C872 C874 1.412 . S
C873 H865 0.930 . S
C873 C872 1.355 . S
C873 C876 1.402 . S
C874 C872 1.412 . S
C874 C875 1.417 . S
C874 C898 1.431 . S
C875 N871 1.350 . S
C875 C874 1.417 . S
C875 C878 1.426 . S
C876 H859 0.930 . S
C876 N871 1.307 . S
C876 C873 1.402 . S
N877 Gd840 2.601 . S
N877 C878 1.359 . S
N877 C881 1.334 . S
C878 C875 1.426 . S
C878 N877 1.359 . S
C878 C882 1.413 . S
C879 H870 0.930 . S
C879 C880 1.359 . S
C879 C881 1.394 . S
C880 C879 1.359 . S
C880 C882 1.391 . S
C880 H883 0.929 . S
C881 H863 0.930 . S
C881 N877 1.334 . S
C881 C879 1.394 . S
C882 C878 1.413 . S
C882 C880 1.391 . S
C882 C897 1.437 . S
H883 C880 0.929 . S
O884 Gd840 2.545 . S
O884 C899 1.258 . S
O885 Gd840 2.606 . S
O885 Gd841 2.362 . S
O885 C896 1.284 . S
O886 Gd841 2.324 . S
O886 C906 1.254 . S
O887 Gd840 2.429 . S
O887 C906 1.268 . S
O888 Gd840 2.545 . S
O888 C896 1.250 . S
O889 Gd840 2.412 . S
O889 C899 1.252 . S
O890 Gd841 2.545 . S
O890 C908 1.258 . S
O891 Gd840 2.362 . S
O891 Gd841 2.606 . S
O891 C907 1.284 . S
O892 Gd840 2.324 . S
O892 C915 1.254 . S
O893 Gd841 2.429 . S
O893 C915 1.268 . S
O894 Gd841 2.545 . S
O894 C907 1.250 . S
O895 Gd841 2.412 . S
O895 C908 1.252 . S
C896 O885 1.284 . S
C896 O888 1.250 . S
C897 H866 0.929 . S
C897 C882 1.437 . S
C897 C898 1.317 . S
C898 H869 0.930 . S
C898 C874 1.431 . S
C898 C897 1.317 . S
C899 Gd840 2.828 . S
C899 O884 1.258 . S
C899 O889 1.252 . S
C899 C900 1.497 . S
C900 C899 1.497 . S
C900 C901 1.395 . S
C900 C902 1.380 . S
C901 C900 1.395 . S
C901 C904 1.398 . S
C901 H916 0.930 . S
C902 C900 1.380 . S
C902 C903 1.391 . S
C902 H917 0.930 . S
C903 C902 1.391 . S
C903 C905 1.387 . S
C904 C901 1.398 . S
C904 C905 1.380 . S
C904 H918 0.930 . S
C905 C903 1.387 . S
C905 C904 1.380 . S
C905 H919 0.930 . S
C906 O886 1.254 . S
C906 O887 1.268 . S
C907 O891 1.284 . S
C907 O894 1.250 . S
C908 Gd841 2.828 . S
C908 O890 1.258 . S
C908 O895 1.252 . S
C908 C909 1.497 . S
C909 C908 1.497 . S
C909 C910 1.395 . S
C909 C911 1.380 . S
C910 C909 1.395 . S
C910 C913 1.398 . S
C910 H920 0.930 . S
C911 C909 1.380 . S
C911 C912 1.391 . S
C911 H921 0.930 . S
C912 C911 1.391 . S
C912 C914 1.387 . S
C913 C910 1.398 . S
C913 C914 1.380 . S
C913 H922 0.930 . S
C914 C912 1.387 . S
C914 C913 1.380 . S
C914 H923 0.930 . S
C915 O892 1.254 . S
C915 O893 1.268 . S
H916 C901 0.930 . S
H917 C902 0.930 . S
H918 C904 0.930 . S
H919 C905 0.930 . S
H920 C910 0.930 . S
H921 C911 0.930 . S
H922 C913 0.930 . S
H923 C914 0.930 . S
Gd924 N955 2.661 . S
Gd924 N961 2.601 . S
Gd924 O968 2.545 . S
Gd924 O969 2.606 . S
Gd924 O971 2.429 . S
Gd924 O972 2.545 . S
Gd924 O973 2.412 . S
Gd924 O975 2.362 . S
Gd924 O976 2.324 . S
Gd924 C983 2.828 . S
Gd925 N934 2.661 . S
Gd925 N938 2.601 . S
Gd925 O969 2.362 . S
Gd925 O970 2.324 . S
Gd925 O974 2.545 1_545 S
Gd925 O975 2.606 . S
Gd925 O977 2.429 . S
Gd925 O978 2.545 1_545 S
Gd925 O979 2.412 1_545 S
Gd925 C992 2.828 1_545 S
C926 C929 1.417 . S
C926 C931 1.431 . S
C926 C932 1.412 . S
C927 C930 1.437 . S
C927 C931 1.317 . S
C927 H946 0.929 . S
C928 C929 1.426 . S
C928 C930 1.413 . S
C928 N938 1.359 . S
C929 C926 1.417 . S
C929 C928 1.426 . S
C929 N934 1.350 . S
C930 C927 1.437 . S
C930 C928 1.413 . S
C930 C940 1.391 . S
C931 C926 1.431 . S
C931 C927 1.317 . S
C931 H942 0.930 . S
C932 C926 1.412 . S
C932 C933 1.355 . S
C932 H944 0.930 . S
C933 C932 1.355 . S
C933 C935 1.402 . S
C933 H945 0.930 . S
N934 Gd925 2.661 . S
N934 C929 1.350 . S
N934 C935 1.307 . S
C935 C933 1.402 . S
C935 N934 1.307 . S
C935 H936 0.930 . S
H936 C935 0.930 . S
C937 N938 1.334 . S
C937 C939 1.394 . S
C937 H941 0.930 . S
N938 Gd925 2.601 . S
N938 C928 1.359 . S
N938 C937 1.334 . S
C939 C937 1.394 . S
C939 C940 1.359 . S
C939 H951 0.930 . S
C940 C930 1.391 . S
C940 C939 1.359 . S
C940 H952 0.929 . S
H941 C937 0.930 . S
H942 C931 0.930 . S
H943 C960 0.930 . S
H944 C932 0.930 . S
H945 C933 0.930 . S
H946 C927 0.929 . S
H947 C965 0.930 . S
H948 C956 0.930 1_565 S
H949 C957 0.930 . S
H950 C981 0.929 . S
H951 C939 0.930 . S
H952 C940 0.929 . S
H953 C982 0.930 1_565 S
H954 C963 0.930 . S
N955 Gd924 2.661 . S
N955 C959 1.350 . S
N955 C960 1.307 . S
C956 H948 0.930 1_545 S
C956 C957 1.355 . S
C956 C958 1.412 . S
C957 H949 0.930 . S
C957 C956 1.355 . S
C957 C960 1.402 . S
C958 C956 1.412 . S
C958 C959 1.417 . S
C958 C982 1.431 . S
C959 N955 1.350 . S
C959 C958 1.417 . S
C959 C962 1.426 . S
C960 H943 0.930 . S
C960 N955 1.307 . S
C960 C957 1.402 . S
N961 Gd924 2.601 . S
N961 C962 1.359 . S
N961 C965 1.334 . S
C962 C959 1.426 . S
C962 N961 1.359 . S
C962 C966 1.413 . S
C963 H954 0.930 . S
C963 C964 1.359 . S
C963 C965 1.394 . S
C964 C963 1.359 . S
C964 C966 1.391 . S
C964 H967 0.929 . S
C965 H947 0.930 . S
C965 N961 1.334 . S
C965 C963 1.394 . S
C966 C962 1.413 . S
C966 C964 1.391 . S
C966 C981 1.437 . S
H967 C964 0.929 . S
O968 Gd924 2.545 . S
O968 C983 1.258 . S
O969 Gd924 2.606 . S
O969 Gd925 2.362 . S
O969 C980 1.284 . S
O970 Gd925 2.324 . S
O970 C990 1.254 . S
O971 Gd924 2.429 . S
O971 C990 1.268 . S
O972 Gd924 2.545 . S
O972 C980 1.250 . S
O973 Gd924 2.412 . S
O973 C983 1.252 . S
O974 Gd925 2.545 1_565 S
O974 C992 1.258 . S
O975 Gd924 2.362 . S
O975 Gd925 2.606 . S
O975 C991 1.284 1_545 S
O976 Gd924 2.324 . S
O976 C999 1.254 . S
O977 Gd925 2.429 . S
O977 C999 1.268 . S
O978 Gd925 2.545 1_565 S
O978 C991 1.250 . S
O979 Gd925 2.412 1_565 S
O979 C992 1.252 . S
C980 O969 1.284 . S
C980 O972 1.250 . S
C981 H950 0.929 . S
C981 C966 1.437 . S
C981 C982 1.317 . S
C982 H953 0.930 1_545 S
C982 C958 1.431 . S
C982 C981 1.317 . S
C983 Gd924 2.828 . S
C983 O968 1.258 . S
C983 O973 1.252 . S
C983 C984 1.497 . S
C984 C983 1.497 . S
C984 C985 1.395 . S
C984 C986 1.380 . S
C985 C984 1.395 . S
C985 C988 1.398 . S
C985 H1000 0.930 . S
C986 C984 1.380 . S
C986 C987 1.391 . S
C986 H1001 0.930 . S
C987 C986 1.391 . S
C987 C989 1.387 . S
C988 C985 1.398 . S
C988 C989 1.380 . S
C988 H1002 0.930 . S
C989 C987 1.387 . S
C989 C988 1.380 . S
C989 H1003 0.930 1_655 S
C990 O970 1.254 . S
C990 O971 1.268 . S
C991 O975 1.284 1_565 S
C991 O978 1.250 . S
C992 Gd925 2.828 1_565 S
C992 O974 1.258 . S
C992 O979 1.252 . S
C992 C993 1.497 . S
C993 C992 1.497 . S
C993 C994 1.395 . S
C993 C995 1.380 . S
C994 C993 1.395 . S
C994 C997 1.398 . S
C994 H1004 0.930 . S
C995 C993 1.380 . S
C995 C996 1.391 . S
C995 H1005 0.930 . S
C996 C995 1.391 . S
C996 C998 1.387 . S
C997 C994 1.398 . S
C997 C998 1.380 . S
C997 H1006 0.930 . S
C998 C996 1.387 . S
C998 C997 1.380 . S
C998 H1007 0.930 . S
C999 O976 1.254 . S
C999 O977 1.268 . S
H1000 C985 0.930 . S
H1001 C986 0.930 . S
H1002 C988 0.930 . S
H1003 C989 0.930 1_455 S
H1004 C994 0.930 . S
H1005 C995 0.930 . S
H1006 C997 0.930 . S
H1007 C998 0.930 . S
Gd1008 N1039 2.661 . S
Gd1008 N1045 2.601 . S
Gd1008 O1052 2.545 . S
Gd1008 O1053 2.606 . S
Gd1008 O1055 2.429 . S
Gd1008 O1056 2.545 . S
Gd1008 O1057 2.412 . S
Gd1008 O1059 2.362 . S
Gd1008 O1060 2.324 . S
Gd1008 C1067 2.828 . S
Gd1009 N1018 2.661 . S
Gd1009 N1022 2.601 . S
Gd1009 O1053 2.362 . S
Gd1009 O1054 2.324 . S
Gd1009 O1058 2.545 . S
Gd1009 O1059 2.606 . S
Gd1009 O1061 2.429 . S
Gd1009 O1062 2.545 . S
Gd1009 O1063 2.412 . S
Gd1009 C1076 2.828 . S
C1010 C1013 1.417 1_655 S
C1010 C1015 1.431 . S
C1010 C1016 1.412 . S
C1011 C1014 1.437 . S
C1011 C1015 1.317 . S
C1011 H1030 0.929 . S
C1012 C1013 1.426 . S
C1012 C1014 1.413 1_455 S
C1012 N1022 1.359 . S
C1013 C1010 1.417 1_455 S
C1013 C1012 1.426 . S
C1013 N1018 1.350 . S
C1014 C1011 1.437 . S
C1014 C1012 1.413 1_655 S
C1014 C1024 1.391 1_655 S
C1015 C1010 1.431 . S
C1015 C1011 1.317 . S
C1015 H1026 0.930 . S
C1016 C1010 1.412 . S
C1016 C1017 1.355 . S
C1016 H1028 0.930 . S
C1017 C1016 1.355 . S
C1017 C1019 1.402 1_655 S
C1017 H1029 0.930 . S
N1018 Gd1009 2.661 . S
N1018 C1013 1.350 . S
N1018 C1019 1.307 . S
C1019 C1017 1.402 1_455 S
C1019 N1018 1.307 . S
C1019 H1020 0.930 . S
H1020 C1019 0.930 . S
C1021 N1022 1.334 . S
C1021 C1023 1.394 . S
C1021 H1025 0.930 . S
N1022 Gd1009 2.601 . S
N1022 C1012 1.359 . S
N1022 C1021 1.334 . S
C1023 C1021 1.394 . S
C1023 C1024 1.359 . S
C1023 H1035 0.930 . S
C1024 C1014 1.391 1_455 S
C1024 C1023 1.359 . S
C1024 H1036 0.929 1_455 S
H1025 C1021 0.930 . S
H1026 C1015 0.930 . S
H1027 C1044 0.930 . S
H1028 C1016 0.930 . S
H1029 C1017 0.930 . S
H1030 C1011 0.929 . S
H1031 C1049 0.930 . S
H1032 C1040 0.930 . S
H1033 C1041 0.930 . S
H1034 C1065 0.929 . S
H1035 C1023 0.930 . S
H1036 C1024 0.929 1_655 S
H1037 C1066 0.930 . S
H1038 C1047 0.930 . S
N1039 Gd1008 2.661 . S
N1039 C1043 1.350 . S
N1039 C1044 1.307 . S
C1040 H1032 0.930 . S
C1040 C1041 1.355 . S
C1040 C1042 1.412 . S
C1041 H1033 0.930 . S
C1041 C1040 1.355 . S
C1041 C1044 1.402 . S
C1042 C1040 1.412 . S
C1042 C1043 1.417 . S
C1042 C1066 1.431 . S
C1043 N1039 1.350 . S
C1043 C1042 1.417 . S
C1043 C1046 1.426 . S
C1044 H1027 0.930 . S
C1044 N1039 1.307 . S
C1044 C1041 1.402 . S
N1045 Gd1008 2.601 . S
N1045 C1046 1.359 . S
N1045 C1049 1.334 . S
C1046 C1043 1.426 . S
C1046 N1045 1.359 . S
C1046 C1050 1.413 . S
C1047 H1038 0.930 . S
C1047 C1048 1.359 . S
C1047 C1049 1.394 . S
C1048 C1047 1.359 . S
C1048 C1050 1.391 . S
C1048 H1051 0.929 . S
C1049 H1031 0.930 . S
C1049 N1045 1.334 . S
C1049 C1047 1.394 . S
C1050 C1046 1.413 . S
C1050 C1048 1.391 . S
C1050 C1065 1.437 . S
H1051 C1048 0.929 . S
O1052 Gd1008 2.545 . S
O1052 C1067 1.258 . S
O1053 Gd1008 2.606 . S
O1053 Gd1009 2.362 . S
O1053 C1064 1.284 . S
O1054 Gd1009 2.324 . S
O1054 C1074 1.254 . S
O1055 Gd1008 2.429 . S
O1055 C1074 1.268 . S
O1056 Gd1008 2.545 . S
O1056 C1064 1.250 . S
O1057 Gd1008 2.412 . S
O1057 C1067 1.252 . S
O1058 Gd1009 2.545 . S
O1058 C1076 1.258 . S
O1059 Gd1008 2.362 . S
O1059 Gd1009 2.606 . S
O1059 C1075 1.284 . S
O1060 Gd1008 2.324 . S
O1060 C1083 1.254 . S
O1061 Gd1009 2.429 . S
O1061 C1083 1.268 . S
O1062 Gd1009 2.545 . S
O1062 C1075 1.250 . S
O1063 Gd1009 2.412 . S
O1063 C1076 1.252 . S
C1064 O1053 1.284 . S
C1064 O1056 1.250 . S
C1065 H1034 0.929 . S
C1065 C1050 1.437 . S
C1065 C1066 1.317 . S
C1066 H1037 0.930 . S
C1066 C1042 1.431 . S
C1066 C1065 1.317 . S
C1067 Gd1008 2.828 . S
C1067 O1052 1.258 . S
C1067 O1057 1.252 . S
C1067 C1068 1.497 . S
C1068 C1067 1.497 . S
C1068 C1069 1.395 . S
C1068 C1070 1.380 . S
C1069 C1068 1.395 . S
C1069 C1072 1.398 . S
C1069 H1084 0.930 . S
C1070 C1068 1.380 . S
C1070 C1071 1.391 . S
C1070 H1085 0.930 . S
C1071 C1070 1.391 . S
C1071 C1073 1.387 . S
C1072 C1069 1.398 . S
C1072 C1073 1.380 . S
C1072 H1086 0.930 . S
C1073 C1071 1.387 . S
C1073 C1072 1.380 . S
C1073 H1087 0.930 . S
C1074 O1054 1.254 . S
C1074 O1055 1.268 . S
C1075 O1059 1.284 . S
C1075 O1062 1.250 . S
C1076 Gd1009 2.828 . S
C1076 O1058 1.258 . S
C1076 O1063 1.252 . S
C1076 C1077 1.497 . S
C1077 C1076 1.497 . S
C1077 C1078 1.395 . S
C1077 C1079 1.380 . S
C1078 C1077 1.395 . S
C1078 C1081 1.398 . S
C1078 H1088 0.930 . S
C1079 C1077 1.380 . S
C1079 C1080 1.391 . S
C1079 H1089 0.930 . S
C1080 C1079 1.391 . S
C1080 C1082 1.387 . S
C1081 C1078 1.398 . S
C1081 C1082 1.380 . S
C1081 H1090 0.930 . S
C1082 C1080 1.387 . S
C1082 C1081 1.380 . S
C1082 H1091 0.930 . S
C1083 O1060 1.254 . S
C1083 O1061 1.268 . S
H1084 C1069 0.930 . S
H1085 C1070 0.930 . S
H1086 C1072 0.930 . S
H1087 C1073 0.930 . S
H1088 C1078 0.930 . S
H1089 C1079 0.930 . S
H1090 C1081 0.930 . S
H1091 C1082 0.930 . S
Gd1092 N1123 2.661 1_565 S
Gd1092 N1129 2.601 1_565 S
Gd1092 O1136 2.545 1_565 S
Gd1092 O1137 2.606 . S
Gd1092 O1139 2.429 . S
Gd1092 O1140 2.545 . S
Gd1092 O1141 2.412 1_565 S
Gd1092 O1143 2.362 . S
Gd1092 O1144 2.324 . S
Gd1092 C1151 2.828 1_565 S
Gd1093 N1102 2.661 . S
Gd1093 N1106 2.601 . S
Gd1093 O1137 2.362 . S
Gd1093 O1138 2.324 . S
Gd1093 O1142 2.545 . S
Gd1093 O1143 2.606 . S
Gd1093 O1145 2.429 . S
Gd1093 O1146 2.545 . S
Gd1093 O1147 2.412 . S
Gd1093 C1160 2.828 . S
C1094 C1097 1.417 . S
C1094 C1099 1.431 . S
C1094 C1100 1.412 . S
C1095 C1098 1.437 . S
C1095 C1099 1.317 . S
C1095 H1114 0.929 . S
C1096 C1097 1.426 . S
C1096 C1098 1.413 . S
C1096 N1106 1.359 . S
C1097 C1094 1.417 . S
C1097 C1096 1.426 . S
C1097 N1102 1.350 . S
C1098 C1095 1.437 . S
C1098 C1096 1.413 . S
C1098 C1108 1.391 . S
C1099 C1094 1.431 . S
C1099 C1095 1.317 . S
C1099 H1110 0.930 . S
C1100 C1094 1.412 . S
C1100 C1101 1.355 . S
C1100 H1112 0.930 . S
C1101 C1100 1.355 . S
C1101 C1103 1.402 . S
C1101 H1113 0.930 . S
N1102 Gd1093 2.661 . S
N1102 C1097 1.350 . S
N1102 C1103 1.307 . S
C1103 C1101 1.402 . S
C1103 N1102 1.307 . S
C1103 H1104 0.930 . S
H1104 C1103 0.930 . S
C1105 N1106 1.334 . S
C1105 C1107 1.394 . S
C1105 H1109 0.930 . S
N1106 Gd1093 2.601 . S
N1106 C1096 1.359 . S
N1106 C1105 1.334 . S
C1107 C1105 1.394 . S
C1107 C1108 1.359 . S
C1107 H1119 0.930 . S
C1108 C1098 1.391 . S
C1108 C1107 1.359 . S
C1108 H1120 0.929 . S
H1109 C1105 0.930 . S
H1110 C1099 0.930 . S
H1111 C1128 0.930 . S
H1112 C1100 0.930 . S
H1113 C1101 0.930 . S
H1114 C1095 0.929 . S
H1115 C1133 0.915 1_565 S
H1116 C1124 0.930 . S
H1117 C1125 0.930 . S
H1118 C1149 0.929 . S
H1119 C1107 0.930 . S
H1120 C1108 0.929 . S
H1121 C1150 0.930 . S
H1122 C1131 0.930 . S
N1123 Gd1092 2.661 1_545 S
N1123 C1127 1.350 . S
N1123 C1128 1.307 . S
C1124 H1116 0.930 . S
C1124 C1125 1.355 . S
C1124 C1126 1.412 . S
C1125 H1117 0.930 . S
C1125 C1124 1.355 . S
C1125 C1128 1.402 . S
C1126 C1124 1.412 . S
C1126 C1127 1.417 . S
C1126 C1150 1.431 . S
C1127 N1123 1.350 . S
C1127 C1126 1.417 . S
C1127 C1130 1.426 . S
C1128 H1111 0.930 . S
C1128 N1123 1.307 . S
C1128 C1125 1.402 . S
N1129 Gd1092 2.601 1_545 S
N1129 C1130 1.359 . S
N1129 C1133 1.339 . S
C1130 C1127 1.426 . S
C1130 N1129 1.359 . S
C1130 C1134 1.413 . S
C1131 H1122 0.930 . S
C1131 C1132 1.359 . S
C1131 C1133 1.404 . S
C1132 C1131 1.359 . S
C1132 C1134 1.391 . S
C1132 H1135 0.929 . S
C1133 H1115 0.915 1_545 S
C1133 N1129 1.339 . S
C1133 C1131 1.404 . S
C1134 C1130 1.413 . S
C1134 C1132 1.391 . S
C1134 C1149 1.437 . S
H1135 C1132 0.929 . S
O1136 Gd1092 2.545 1_545 S
O1136 C1151 1.258 . S
O1137 Gd1092 2.606 . S
O1137 Gd1093 2.362 . S
O1137 C1148 1.284 . S
O1138 Gd1093 2.324 . S
O1138 C1158 1.254 . S
O1139 Gd1092 2.429 . S
O1139 C1158 1.268 . S
O1140 Gd1092 2.545 . S
O1140 C1148 1.250 . S
O1141 Gd1092 2.412 1_545 S
O1141 C1151 1.252 . S
O1142 Gd1093 2.545 . S
O1142 C1160 1.258 . S
O1143 Gd1092 2.362 . S
O1143 Gd1093 2.606 . S
O1143 C1159 1.284 . S
O1144 Gd1092 2.324 . S
O1144 C1167 1.254 . S
O1145 Gd1093 2.429 . S
O1145 C1167 1.268 . S
O1146 Gd1093 2.545 . S
O1146 C1159 1.250 . S
O1147 Gd1093 2.412 . S
O1147 C1160 1.252 . S
C1148 O1137 1.284 . S
C1148 O1140 1.250 . S
C1149 H1118 0.929 . S
C1149 C1134 1.437 . S
C1149 C1150 1.317 . S
C1150 H1121 0.930 . S
C1150 C1126 1.431 . S
C1150 C1149 1.317 . S
C1151 Gd1092 2.828 1_545 S
C1151 O1136 1.258 . S
C1151 O1141 1.252 . S
C1151 C1152 1.497 . S
C1152 C1151 1.497 . S
C1152 C1153 1.395 . S
C1152 C1154 1.389 . S
C1153 C1152 1.395 . S
C1153 C1156 1.398 1_655 S
C1153 H1168 0.930 . S
C1154 C1152 1.389 . S
C1154 C1155 1.380 1_655 S
C1154 H1169 0.932 . S
C1155 C1154 1.380 1_455 S
C1155 C1157 1.387 . S
C1156 C1153 1.398 1_455 S
C1156 C1157 1.380 . S
C1156 H1170 0.930 . S
C1157 C1155 1.387 . S
C1157 C1156 1.380 . S
C1157 H1171 0.930 . S
C1158 O1138 1.254 . S
C1158 O1139 1.268 . S
C1159 O1143 1.284 . S
C1159 O1146 1.250 . S
C1160 Gd1093 2.828 . S
C1160 O1142 1.258 . S
C1160 O1147 1.252 . S
C1160 C1161 1.497 . S
C1161 C1160 1.497 . S
C1161 C1162 1.395 . S
C1161 C1163 1.380 . S
C1162 C1161 1.395 . S
C1162 C1165 1.398 . S
C1162 H1172 0.930 . S
C1163 C1161 1.380 . S
C1163 C1164 1.391 . S
C1163 H1173 0.930 . S
C1164 C1163 1.391 . S
C1164 C1166 1.387 . S
C1165 C1162 1.398 . S
C1165 C1166 1.380 . S
C1165 H1174 0.930 . S
C1166 C1164 1.387 . S
C1166 C1165 1.380 . S
C1166 H1175 0.930 . S
C1167 O1144 1.254 . S
C1167 O1145 1.268 . S
H1168 C1153 0.930 . S
H1169 C1154 0.932 . S
H1170 C1156 0.930 . S
H1171 C1157 0.930 . S
H1172 C1162 0.930 . S
H1173 C1163 0.930 . S
H1174 C1165 0.930 . S
H1175 C1166 0.930 . S
Gd1176 N1207 2.661 . S
Gd1176 N1213 2.601 . S
Gd1176 O1220 2.545 . S
Gd1176 O1221 2.606 . S
Gd1176 O1223 2.429 . S
Gd1176 O1224 2.545 . S
Gd1176 O1225 2.412 . S
Gd1176 O1227 2.362 . S
Gd1176 O1228 2.324 . S
Gd1176 C1235 2.828 . S
Gd1177 N1186 2.661 1_565 S
Gd1177 N1190 2.601 1_565 S
Gd1177 O1221 2.362 . S
Gd1177 O1222 2.324 . S
Gd1177 O1226 2.545 . S
Gd1177 O1227 2.606 . S
Gd1177 O1229 2.429 . S
Gd1177 O1230 2.545 . S
Gd1177 O1231 2.412 . S
Gd1177 C1244 2.828 . S
C1178 C1181 1.417 . S
C1178 C1183 1.431 . S
C1178 C1184 1.412 . S
C1179 C1182 1.437 . S
C1179 C1183 1.317 . S
C1179 H1198 0.929 . S
C1180 C1181 1.426 . S
C1180 C1182 1.413 . S
C1180 N1190 1.359 . S
C1181 C1178 1.417 . S
C1181 C1180 1.426 . S
C1181 N1186 1.350 . S
C1182 C1179 1.437 . S
C1182 C1180 1.413 . S
C1182 C1192 1.391 . S
C1183 C1178 1.431 . S
C1183 C1179 1.317 . S
C1183 H1194 0.930 . S
C1184 C1178 1.412 . S
C1184 C1185 1.355 . S
C1184 H1196 0.930 . S
C1185 C1184 1.355 . S
C1185 C1187 1.402 . S
C1185 H1197 0.930 . S
N1186 Gd1177 2.661 1_545 S
N1186 C1181 1.350 . S
N1186 C1187 1.307 . S
C1187 C1185 1.402 . S
C1187 N1186 1.307 . S
C1187 H1188 0.930 . S
H1188 C1187 0.930 . S
C1189 N1190 1.334 . S
C1189 C1191 1.394 . S
C1189 H1193 0.930 1_545 S
N1190 Gd1177 2.601 1_545 S
N1190 C1180 1.359 . S
N1190 C1189 1.334 . S
C1191 C1189 1.394 . S
C1191 C1192 1.359 . S
C1191 H1203 0.930 . S
C1192 C1182 1.391 . S
C1192 C1191 1.359 . S
C1192 H1204 0.929 . S
H1193 C1189 0.930 1_565 S
H1194 C1183 0.930 . S
H1195 C1212 0.930 . S
H1196 C1184 0.930 . S
H1197 C1185 0.930 . S
H1198 C1179 0.929 . S
H1199 C1217 0.930 . S
H1200 C1208 0.930 . S
H1201 C1209 0.930 . S
H1202 C1233 0.929 . S
H1203 C1191 0.930 . S
H1204 C1192 0.929 . S
H1205 C1234 0.930 1_655 S
H1206 C1215 0.930 . S
N1207 Gd1176 2.661 . S
N1207 C1211 1.350 . S
N1207 C1212 1.307 . S
C1208 H1200 0.930 . S
C1208 C1209 1.355 . S
C1208 C1210 1.412 . S
C1209 H1201 0.930 . S
C1209 C1208 1.355 . S
C1209 C1212 1.402 . S
C1210 C1208 1.412 . S
C1210 C1211 1.417 . S
C1210 C1234 1.431 . S
C1211 N1207 1.350 . S
C1211 C1210 1.417 . S
C1211 C1214 1.426 . S
C1212 H1195 0.930 . S
C1212 N1207 1.307 . S
C1212 C1209 1.402 . S
N1213 Gd1176 2.601 . S
N1213 C1214 1.359 . S
N1213 C1217 1.334 . S
C1214 C1211 1.426 . S
C1214 N1213 1.359 . S
C1214 C1218 1.413 . S
C1215 H1206 0.930 . S
C1215 C1216 1.359 . S
C1215 C1217 1.394 . S
C1216 C1215 1.359 . S
C1216 C1218 1.391 . S
C1216 H1219 0.929 . S
C1217 H1199 0.930 . S
C1217 N1213 1.334 . S
C1217 C1215 1.394 . S
C1218 C1214 1.413 . S
C1218 C1216 1.391 . S
C1218 C1233 1.437 . S
H1219 C1216 0.929 . S
O1220 Gd1176 2.545 . S
O1220 C1235 1.258 . S
O1221 Gd1176 2.606 . S
O1221 Gd1177 2.362 . S
O1221 C1232 1.284 1_565 S
O1222 Gd1177 2.324 . S
O1222 C1242 1.254 . S
O1223 Gd1176 2.429 . S
O1223 C1242 1.268 . S
O1224 Gd1176 2.545 . S
O1224 C1232 1.250 1_565 S
O1225 Gd1176 2.412 . S
O1225 C1235 1.252 . S
O1226 Gd1177 2.545 . S
O1226 C1244 1.258 . S
O1227 Gd1176 2.362 . S
O1227 Gd1177 2.606 . S
O1227 C1243 1.284 . S
O1228 Gd1176 2.324 . S
O1228 C1251 1.254 . S
O1229 Gd1177 2.429 . S
O1229 C1251 1.268 . S
O1230 Gd1177 2.545 . S
O1230 C1243 1.250 . S
O1231 Gd1177 2.412 . S
O1231 C1244 1.252 . S
C1232 O1221 1.284 1_545 S
C1232 O1224 1.250 1_545 S
C1233 H1202 0.929 . S
C1233 C1218 1.437 . S
C1233 C1234 1.317 . S
C1234 H1205 0.930 1_455 S
C1234 C1210 1.431 . S
C1234 C1233 1.317 . S
C1235 Gd1176 2.828 . S
C1235 O1220 1.258 . S
C1235 O1225 1.252 . S
C1235 C1236 1.497 1_455 S
C1236 C1235 1.497 1_655 S
C1236 C1237 1.395 . S
C1236 C1238 1.380 . S
C1237 C1236 1.395 . S
C1237 C1240 1.398 . S
C1237 H1252 0.930 . S
C1238 C1236 1.380 . S
C1238 C1239 1.391 . S
C1238 H1253 0.930 . S
C1239 C1238 1.391 . S
C1239 C1241 1.387 . S
C1240 C1237 1.398 . S
C1240 C1241 1.380 . S
C1240 H1254 0.930 . S
C1241 C1239 1.387 . S
C1241 C1240 1.380 . S
C1241 H1255 0.930 . S
C1242 O1222 1.254 . S
C1242 O1223 1.268 . S
C1243 O1227 1.284 . S
C1243 O1230 1.250 . S
C1244 Gd1177 2.828 . S
C1244 O1226 1.258 . S
C1244 O1231 1.252 . S
C1244 C1245 1.497 . S
C1245 C1244 1.497 . S
C1245 C1246 1.395 . S
C1245 C1247 1.380 . S
C1246 C1245 1.395 . S
C1246 C1249 1.398 . S
C1246 H1256 0.930 . S
C1247 C1245 1.380 . S
C1247 C1248 1.391 . S
C1247 H1257 0.930 . S
C1248 C1247 1.391 . S
C1248 C1250 1.387 . S
C1249 C1246 1.398 . S
C1249 C1250 1.380 . S
C1249 H1258 0.930 . S
C1250 C1248 1.387 . S
C1250 C1249 1.380 . S
C1250 H1259 0.930 . S
C1251 O1228 1.254 . S
C1251 O1229 1.268 . S
H1252 C1237 0.930 . S
H1253 C1238 0.930 . S
H1254 C1240 0.930 . S
H1255 C1241 0.930 . S
H1256 C1246 0.930 . S
H1257 C1247 0.930 . S
H1258 C1249 0.930 . S
H1259 C1250 0.930 . S
Gd1260 N1291 2.661 1_565 S
Gd1260 N1297 2.601 1_565 S
Gd1260 O1304 2.545 . S
Gd1260 O1305 2.606 . S
Gd1260 O1307 2.429 . S
Gd1260 O1308 2.545 . S
Gd1260 O1309 2.412 . S
Gd1260 O1311 2.362 . S
Gd1260 O1312 2.324 . S
Gd1260 C1319 2.828 . S
Gd1261 N1270 2.661 . S
Gd1261 N1274 2.601 . S
Gd1261 O1305 2.362 . S
Gd1261 O1306 2.324 . S
Gd1261 O1310 2.545 . S
Gd1261 O1311 2.606 . S
Gd1261 O1313 2.429 . S
Gd1261 O1314 2.545 . S
Gd1261 O1315 2.412 . S
Gd1261 C1328 2.828 . S
C1262 C1265 1.417 . S
C1262 C1267 1.431 . S
C1262 C1268 1.412 . S
C1263 C1266 1.437 . S
C1263 C1267 1.317 . S
C1263 H1282 0.929 . S
C1264 C1265 1.426 . S
C1264 C1266 1.413 . S
C1264 N1274 1.359 . S
C1265 C1262 1.417 . S
C1265 C1264 1.426 . S
C1265 N1270 1.350 . S
C1266 C1263 1.437 . S
C1266 C1264 1.413 . S
C1266 C1276 1.391 . S
C1267 C1262 1.431 . S
C1267 C1263 1.317 . S
C1267 H1278 0.930 . S
C1268 C1262 1.412 . S
C1268 C1269 1.355 . S
C1268 H1280 0.930 . S
C1269 C1268 1.355 . S
C1269 C1271 1.402 . S
C1269 H1281 0.930 . S
N1270 Gd1261 2.661 . S
N1270 C1265 1.350 . S
N1270 C1271 1.307 . S
C1271 C1269 1.402 . S
C1271 N1270 1.307 . S
C1271 H1272 0.930 . S
H1272 C1271 0.930 . S
C1273 N1274 1.334 . S
C1273 C1275 1.394 . S
C1273 H1277 0.930 . S
N1274 Gd1261 2.601 . S
N1274 C1264 1.359 . S
N1274 C1273 1.334 . S
C1275 C1273 1.394 . S
C1275 C1276 1.359 . S
C1275 H1287 0.930 . S
C1276 C1266 1.391 . S
C1276 C1275 1.359 . S
C1276 H1288 0.929 . S
H1277 C1273 0.930 . S
H1278 C1267 0.930 . S
H1279 C1296 0.930 . S
H1280 C1268 0.930 . S
H1281 C1269 0.930 . S
H1282 C1263 0.929 . S
H1283 C1301 0.930 . S
H1284 C1292 0.930 . S
H1285 C1293 0.930 . S
H1286 C1317 0.929 . S
H1287 C1275 0.930 . S
H1288 C1276 0.929 . S
H1289 C1318 0.930 . S
H1290 C1299 0.930 . S
N1291 Gd1260 2.661 1_545 S
N1291 C1295 1.350 . S
N1291 C1296 1.307 . S
C1292 H1284 0.930 . S
C1292 C1293 1.355 . S
C1292 C1294 1.412 . S
C1293 H1285 0.930 . S
C1293 C1292 1.355 . S
C1293 C1296 1.402 . S
C1294 C1292 1.412 . S
C1294 C1295 1.417 . S
C1294 C1318 1.431 . S
C1295 N1291 1.350 . S
C1295 C1294 1.417 . S
C1295 C1298 1.426 . S
C1296 H1279 0.930 . S
C1296 N1291 1.307 . S
C1296 C1293 1.402 . S
N1297 Gd1260 2.601 1_545 S
N1297 C1298 1.359 . S
N1297 C1301 1.334 1_545 S
C1298 C1295 1.426 . S
C1298 N1297 1.359 . S
C1298 C1302 1.413 . S
C1299 H1290 0.930 . S
C1299 C1300 1.359 . S
C1299 C1301 1.394 1_545 S
C1300 C1299 1.359 . S
C1300 C1302 1.391 . S
C1300 H1303 0.929 . S
C1301 H1283 0.930 . S
C1301 N1297 1.334 1_565 S
C1301 C1299 1.394 1_565 S
C1302 C1298 1.413 . S
C1302 C1300 1.391 . S
C1302 C1317 1.437 . S
H1303 C1300 0.929 . S
O1304 Gd1260 2.545 . S
O1304 C1319 1.258 . S
O1305 Gd1260 2.606 . S
O1305 Gd1261 2.362 . S
O1305 C1316 1.284 . S
O1306 Gd1261 2.324 . S
O1306 C1326 1.254 . S
O1307 Gd1260 2.429 . S
O1307 C1326 1.268 . S
O1308 Gd1260 2.545 . S
O1308 C1316 1.250 . S
O1309 Gd1260 2.412 . S
O1309 C1319 1.252 . S
O1310 Gd1261 2.545 . S
O1310 C1328 1.258 . S
O1311 Gd1260 2.362 . S
O1311 Gd1261 2.606 . S
O1311 C1327 1.284 . S
O1312 Gd1260 2.324 . S
O1312 C1335 1.254 . S
O1313 Gd1261 2.429 . S
O1313 C1335 1.268 . S
O1314 Gd1261 2.545 . S
O1314 C1327 1.250 . S
O1315 Gd1261 2.412 . S
O1315 C1328 1.252 . S
C1316 O1305 1.284 . S
C1316 O1308 1.250 . S
C1317 H1286 0.929 . S
C1317 C1302 1.437 . S
C1317 C1318 1.317 . S
C1318 H1289 0.930 . S
C1318 C1294 1.431 . S
C1318 C1317 1.317 . S
C1319 Gd1260 2.828 . S
C1319 O1304 1.258 . S
C1319 O1309 1.252 . S
C1319 C1320 1.497 . S
C1320 C1319 1.497 . S
C1320 C1321 1.395 . S
C1320 C1322 1.380 . S
C1321 C1320 1.395 . S
C1321 C1324 1.398 . S
C1321 H1336 0.930 . S
C1322 C1320 1.380 . S
C1322 C1323 1.391 . S
C1322 H1337 0.930 . S
C1323 C1322 1.391 . S
C1323 C1325 1.387 . S
C1324 C1321 1.398 . S
C1324 C1325 1.380 . S
C1324 H1338 0.930 . S
C1325 C1323 1.387 . S
C1325 C1324 1.380 . S
C1325 H1339 0.930 . S
C1326 O1306 1.254 . S
C1326 O1307 1.268 . S
C1327 O1311 1.284 . S
C1327 O1314 1.250 . S
C1328 Gd1261 2.828 . S
C1328 O1310 1.258 . S
C1328 O1315 1.252 . S
C1328 C1329 1.497 . S
C1329 C1328 1.497 . S
C1329 C1330 1.395 1_655 S
C1329 C1331 1.380 1_655 S
C1330 C1329 1.395 1_455 S
C1330 C1333 1.398 . S
C1330 H1340 0.930 1_455 S
C1331 C1329 1.380 1_455 S
C1331 C1332 1.391 . S
C1331 H1341 0.930 . S
C1332 C1331 1.391 . S
C1332 C1334 1.387 . S
C1333 C1330 1.398 . S
C1333 C1334 1.380 . S
C1333 H1342 0.930 . S
C1334 C1332 1.387 . S
C1334 C1333 1.380 . S
C1334 H1343 0.930 . S
C1335 O1312 1.254 . S
C1335 O1313 1.268 . S
H1336 C1321 0.930 . S
H1337 C1322 0.930 . S
H1338 C1324 0.930 . S
H1339 C1325 0.930 . S
H1340 C1330 0.930 1_655 S
H1341 C1331 0.930 . S
H1342 C1333 0.930 . S
H1343 C1334 0.930 . S
Gd1344 N1375 2.661 . S
Gd1344 N1381 2.601 . S
Gd1344 O1388 2.545 . S
Gd1344 O1389 2.606 . S
Gd1344 O1391 2.429 . S
Gd1344 O1392 2.545 . S
Gd1344 O1393 2.412 . S
Gd1344 O1395 2.362 . S
Gd1344 O1396 2.324 . S
Gd1344 C1403 2.828 . S
Gd1345 N1354 2.661 . S
Gd1345 N1358 2.601 . S
Gd1345 O1389 2.362 1_545 S
Gd1345 O1390 2.324 . S
Gd1345 O1394 2.545 . S
Gd1345 O1395 2.606 1_545 S
Gd1345 O1397 2.429 1_545 S
Gd1345 O1398 2.545 . S
Gd1345 O1399 2.412 . S
Gd1345 C1412 2.828 . S
C1346 C1349 1.417 . S
C1346 C1351 1.431 . S
C1346 C1352 1.412 . S
C1347 C1350 1.437 . S
C1347 C1351 1.317 . S
C1347 H1366 0.929 . S
C1348 C1349 1.426 . S
C1348 C1350 1.413 . S
C1348 N1358 1.359 . S
C1349 C1346 1.417 . S
C1349 C1348 1.426 . S
C1349 N1354 1.350 . S
C1350 C1347 1.437 . S
C1350 C1348 1.413 . S
C1350 C1360 1.391 . S
C1351 C1346 1.431 . S
C1351 C1347 1.317 . S
C1351 H1362 0.930 . S
C1352 C1346 1.412 . S
C1352 C1353 1.355 . S
C1352 H1364 0.930 . S
C1353 C1352 1.355 . S
C1353 C1355 1.402 . S
C1353 H1365 0.930 . S
N1354 Gd1345 2.661 . S
N1354 C1349 1.350 . S
N1354 C1355 1.307 . S
C1355 C1353 1.402 . S
C1355 N1354 1.307 . S
C1355 H1356 0.930 . S
H1356 C1355 0.930 . S
C1357 N1358 1.334 . S
C1357 C1359 1.394 . S
C1357 H1361 0.930 . S
N1358 Gd1345 2.601 . S
N1358 C1348 1.359 . S
N1358 C1357 1.334 . S
C1359 C1357 1.394 . S
C1359 C1360 1.359 . S
C1359 H1371 0.930 . S
C1360 C1350 1.391 . S
C1360 C1359 1.359 . S
C1360 H1372 0.929 . S
H1361 C1357 0.930 . S
H1362 C1351 0.930 . S
H1363 C1380 0.930 . S
H1364 C1352 0.930 . S
H1365 C1353 0.930 . S
H1366 C1347 0.929 . S
H1367 C1385 0.930 . S
H1368 C1376 0.930 . S
H1369 C1377 0.930 . S
H1370 C1401 0.929 . S
H1371 C1359 0.930 . S
H1372 C1360 0.929 . S
H1373 C1402 0.930 . S
H1374 C1383 0.930 . S
N1375 Gd1344 2.661 . S
N1375 C1379 1.350 . S
N1375 C1380 1.307 . S
C1376 H1368 0.930 . S
C1376 C1377 1.355 . S
C1376 C1378 1.412 . S
C1377 H1369 0.930 . S
C1377 C1376 1.355 . S
C1377 C1380 1.402 1_655 S
C1378 C1376 1.412 . S
C1378 C1379 1.417 1_655 S
C1378 C1402 1.431 . S
C1379 N1375 1.350 . S
C1379 C1378 1.417 1_455 S
C1379 C1382 1.426 . S
C1380 H1363 0.930 . S
C1380 N1375 1.307 . S
C1380 C1377 1.402 1_455 S
N1381 Gd1344 2.601 . S
N1381 C1382 1.359 . S
N1381 C1385 1.334 . S
C1382 C1379 1.426 . S
C1382 N1381 1.359 . S
C1382 C1386 1.413 . S
C1383 H1374 0.930 . S
C1383 C1384 1.359 . S
C1383 C1385 1.394 . S
C1384 C1383 1.359 . S
C1384 C1386 1.391 . S
C1384 H1387 0.929 . S
C1385 H1367 0.930 . S
C1385 N1381 1.334 . S
C1385 C1383 1.394 . S
C1386 C1382 1.413 . S
C1386 C1384 1.391 . S
C1386 C1401 1.437 1_455 S
H1387 C1384 0.929 . S
O1388 Gd1344 2.545 . S
O1388 C1403 1.258 . S
O1389 Gd1344 2.606 . S
O1389 Gd1345 2.362 1_565 S
O1389 C1400 1.284 . S
O1390 Gd1345 2.324 . S
O1390 C1410 1.254 1_545 S
O1391 Gd1344 2.429 . S
O1391 C1410 1.268 . S
O1392 Gd1344 2.545 . S
O1392 C1400 1.250 . S
O1393 Gd1344 2.412 . S
O1393 C1403 1.252 . S
O1394 Gd1345 2.545 . S
O1394 C1412 1.258 . S
O1395 Gd1344 2.362 . S
O1395 Gd1345 2.606 1_565 S
O1395 C1411 1.284 . S
O1396 Gd1344 2.324 . S
O1396 C1419 1.254 . S
O1397 Gd1345 2.429 1_565 S
O1397 C1419 1.268 . S
O1398 Gd1345 2.545 . S
O1398 C1411 1.250 1_545 S
O1399 Gd1345 2.412 . S
O1399 C1412 1.252 . S
C1400 O1389 1.284 . S
C1400 O1392 1.250 . S
C1401 H1370 0.929 . S
C1401 C1386 1.437 1_655 S
C1401 C1402 1.317 . S
C1402 H1373 0.930 . S
C1402 C1378 1.431 . S
C1402 C1401 1.317 . S
C1403 Gd1344 2.828 . S
C1403 O1388 1.258 . S
C1403 O1393 1.252 . S
C1403 C1404 1.497 . S
C1404 C1403 1.497 . S
C1404 C1405 1.395 . S
C1404 C1406 1.380 . S
C1405 C1404 1.395 . S
C1405 C1408 1.398 . S
C1405 H1420 0.930 . S
C1406 C1404 1.380 . S
C1406 C1407 1.391 . S
C1406 H1421 0.930 . S
C1407 C1406 1.391 . S
C1407 C1409 1.387 . S
C1408 C1405 1.398 . S
C1408 C1409 1.380 . S
C1408 H1422 0.930 . S
C1409 C1407 1.387 . S
C1409 C1408 1.380 . S
C1409 H1423 0.930 . S
C1410 O1390 1.254 1_565 S
C1410 O1391 1.268 . S
C1411 O1395 1.284 . S
C1411 O1398 1.250 1_565 S
C1412 Gd1345 2.828 . S
C1412 O1394 1.258 . S
C1412 O1399 1.252 . S
C1412 C1413 1.497 . S
C1413 C1412 1.497 . S
C1413 C1414 1.395 . S
C1413 C1415 1.380 . S
C1414 C1413 1.395 . S
C1414 C1417 1.398 . S
C1414 H1424 0.930 . S
C1415 C1413 1.380 . S
C1415 C1416 1.391 . S
C1415 H1425 0.930 . S
C1416 C1415 1.391 . S
C1416 C1418 1.387 . S
C1417 C1414 1.398 . S
C1417 C1418 1.380 . S
C1417 H1426 0.930 . S
C1418 C1416 1.387 . S
C1418 C1417 1.380 . S
C1418 H1427 0.930 . S
C1419 O1396 1.254 . S
C1419 O1397 1.268 . S
H1420 C1405 0.930 . S
H1421 C1406 0.930 . S
H1422 C1408 0.930 . S
H1423 C1409 0.930 . S
H1424 C1414 0.930 . S
H1425 C1415 0.930 . S
H1426 C1417 0.930 . S
H1427 C1418 0.930 . S
Gd1428 N1459 2.661 . S
Gd1428 N1465 2.601 . S
Gd1428 O1472 2.545 . S
Gd1428 O1473 2.606 . S
Gd1428 O1475 2.429 . S
Gd1428 O1476 2.545 . S
Gd1428 O1477 2.412 . S
Gd1428 O1479 2.362 . S
Gd1428 O1480 2.324 . S
Gd1428 C1487 2.828 . S
Gd1429 N1438 2.661 . S
Gd1429 N1442 2.601 . S
Gd1429 O1473 2.362 . S
Gd1429 O1474 2.324 . S
Gd1429 O1478 2.545 . S
Gd1429 O1479 2.606 . S
Gd1429 O1481 2.429 . S
Gd1429 O1482 2.545 . S
Gd1429 O1483 2.412 . S
Gd1429 C1496 2.828 . S
C1430 C1433 1.417 1_655 S
C1430 C1435 1.431 . S
C1430 C1436 1.412 . S
C1431 C1434 1.437 1_655 S
C1431 C1435 1.317 . S
C1431 H1450 0.929 . S
C1432 C1433 1.426 . S
C1432 C1434 1.413 . S
C1432 N1442 1.359 . S
C1433 C1430 1.417 1_455 S
C1433 C1432 1.426 . S
C1433 N1438 1.350 . S
C1434 C1431 1.437 1_455 S
C1434 C1432 1.413 . S
C1434 C1444 1.391 . S
C1435 C1430 1.431 . S
C1435 C1431 1.317 . S
C1435 H1446 0.930 . S
C1436 C1430 1.412 . S
C1436 C1437 1.355 1_655 S
C1436 H1448 0.930 . S
C1437 C1436 1.355 1_455 S
C1437 C1439 1.402 . S
C1437 H1449 0.930 . S
N1438 Gd1429 2.661 . S
N1438 C1433 1.350 . S
N1438 C1439 1.307 . S
C1439 C1437 1.402 . S
C1439 N1438 1.307 . S
C1439 H1440 0.930 . S
H1440 C1439 0.930 . S
C1441 N1442 1.334 . S
C1441 C1443 1.394 . S
C1441 H1445 0.930 . S
N1442 Gd1429 2.601 . S
N1442 C1432 1.359 . S
N1442 C1441 1.334 . S
C1443 C1441 1.394 . S
C1443 C1444 1.359 . S
C1443 H1455 0.930 . S
C1444 C1434 1.391 . S
C1444 C1443 1.359 . S
C1444 H1456 0.929 . S
H1445 C1441 0.930 . S
H1446 C1435 0.930 . S
H1447 C1464 0.930 . S
H1448 C1436 0.930 . S
H1449 C1437 0.930 . S
H1450 C1431 0.929 . S
H1451 C1469 0.930 . S
H1452 C1460 0.930 . S
H1453 C1461 0.930 . S
H1454 C1485 0.929 . S
H1455 C1443 0.930 . S
H1456 C1444 0.929 . S
H1457 C1486 0.930 . S
H1458 C1467 0.930 . S
N1459 Gd1428 2.661 . S
N1459 C1463 1.350 . S
N1459 C1464 1.307 . S
C1460 H1452 0.930 . S
C1460 C1461 1.355 . S
C1460 C1462 1.412 . S
C1461 H1453 0.930 . S
C1461 C1460 1.355 . S
C1461 C1464 1.402 . S
C1462 C1460 1.412 . S
C1462 C1463 1.417 . S
C1462 C1486 1.431 . S
C1463 N1459 1.350 . S
C1463 C1462 1.417 . S
C1463 C1466 1.426 . S
C1464 H1447 0.930 . S
C1464 N1459 1.307 . S
C1464 C1461 1.402 . S
N1465 Gd1428 2.601 . S
N1465 C1466 1.359 . S
N1465 C1469 1.334 . S
C1466 C1463 1.426 . S
C1466 N1465 1.359 . S
C1466 C1470 1.413 . S
C1467 H1458 0.930 . S
C1467 C1468 1.359 . S
C1467 C1469 1.394 . S
C1468 C1467 1.359 . S
C1468 C1470 1.391 . S
C1468 H1471 0.929 . S
C1469 H1451 0.930 . S
C1469 N1465 1.334 . S
C1469 C1467 1.394 . S
C1470 C1466 1.413 . S
C1470 C1468 1.391 . S
C1470 C1485 1.437 . S
H1471 C1468 0.929 . S
O1472 Gd1428 2.545 . S
O1472 C1487 1.258 . S
O1473 Gd1428 2.606 . S
O1473 Gd1429 2.362 . S
O1473 C1484 1.284 . S
O1474 Gd1429 2.324 . S
O1474 C1494 1.254 . S
O1475 Gd1428 2.429 . S
O1475 C1494 1.268 . S
O1476 Gd1428 2.545 . S
O1476 C1484 1.250 . S
O1477 Gd1428 2.412 . S
O1477 C1487 1.252 . S
O1478 Gd1429 2.545 . S
O1478 C1496 1.258 . S
O1479 Gd1428 2.362 . S
O1479 Gd1429 2.606 . S
O1479 C1495 1.284 . S
O1480 Gd1428 2.324 . S
O1480 C1503 1.254 . S
O1481 Gd1429 2.429 . S
O1481 C1503 1.268 . S
O1482 Gd1429 2.545 . S
O1482 C1495 1.250 . S
O1483 Gd1429 2.412 . S
O1483 C1496 1.252 . S
C1484 O1473 1.284 . S
C1484 O1476 1.250 . S
C1485 H1454 0.929 . S
C1485 C1470 1.437 . S
C1485 C1486 1.317 . S
C1486 H1457 0.930 . S
C1486 C1462 1.431 . S
C1486 C1485 1.317 . S
C1487 Gd1428 2.828 . S
C1487 O1472 1.258 . S
C1487 O1477 1.252 . S
C1487 C1488 1.497 . S
C1488 C1487 1.497 . S
C1488 C1489 1.395 . S
C1488 C1490 1.380 . S
C1489 C1488 1.395 . S
C1489 C1492 1.398 . S
C1489 H1504 0.930 . S
C1490 C1488 1.380 . S
C1490 C1491 1.391 . S
C1490 H1505 0.930 . S
C1491 C1490 1.391 . S
C1491 C1493 1.387 . S
C1492 C1489 1.398 . S
C1492 C1493 1.380 . S
C1492 H1506 0.930 . S
C1493 C1491 1.387 . S
C1493 C1492 1.380 . S
C1493 H1507 0.930 . S
C1494 O1474 1.254 . S
C1494 O1475 1.268 . S
C1495 O1479 1.284 . S
C1495 O1482 1.250 . S
C1496 Gd1429 2.828 . S
C1496 O1478 1.258 . S
C1496 O1483 1.252 . S
C1496 C1497 1.497 1_455 S
C1497 C1496 1.497 1_655 S
C1497 C1498 1.395 . S
C1497 C1499 1.380 . S
C1498 C1497 1.395 . S
C1498 C1501 1.398 . S
C1498 H1508 0.930 . S
C1499 C1497 1.380 . S
C1499 C1500 1.391 . S
C1499 H1509 0.930 . S
C1500 C1499 1.391 . S
C1500 C1502 1.387 . S
C1501 C1498 1.398 . S
C1501 C1502 1.380 . S
C1501 H1510 0.930 . S
C1502 C1500 1.387 . S
C1502 C1501 1.380 . S
C1502 H1511 0.930 1_545 S
C1503 O1480 1.254 . S
C1503 O1481 1.268 . S
H1504 C1489 0.930 . S
H1505 C1490 0.930 . S
H1506 C1492 0.930 . S
H1507 C1493 0.930 . S
H1508 C1498 0.930 . S
H1509 C1499 0.930 . S
H1510 C1501 0.930 . S
H1511 C1502 0.930 1_565 S
Gd1512 N1543 2.661 . S
Gd1512 N1549 2.601 . S
Gd1512 O1556 2.545 . S
Gd1512 O1557 2.606 . S
Gd1512 O1559 2.429 . S
Gd1512 O1560 2.545 . S
Gd1512 O1561 2.412 . S
Gd1512 O1563 2.362 . S
Gd1512 O1564 2.324 . S
Gd1512 C1571 2.828 . S
Gd1513 N1522 2.661 . S
Gd1513 N1526 2.601 . S
Gd1513 O1557 2.362 . S
Gd1513 O1558 2.324 . S
Gd1513 O1562 2.545 . S
Gd1513 O1563 2.606 . S
Gd1513 O1565 2.429 . S
Gd1513 O1566 2.545 . S
Gd1513 O1567 2.412 . S
Gd1513 C1580 2.828 . S
C1514 C1517 1.417 1_655 S
C1514 C1519 1.431 . S
C1514 C1520 1.412 . S
C1515 C1518 1.437 1_655 S
C1515 C1519 1.317 . S
C1515 H1534 0.929 . S
C1516 C1517 1.426 . S
C1516 C1518 1.413 . S
C1516 N1526 1.359 . S
C1517 C1514 1.417 1_455 S
C1517 C1516 1.426 . S
C1517 N1522 1.350 . S
C1518 C1515 1.437 1_455 S
C1518 C1516 1.413 . S
C1518 C1528 1.391 . S
C1519 C1514 1.431 . S
C1519 C1515 1.317 . S
C1519 H1530 0.930 . S
C1520 C1514 1.412 . S
C1520 C1521 1.355 . S
C1520 H1532 0.930 . S
C1521 C1520 1.355 . S
C1521 C1523 1.402 1_655 S
C1521 H1533 0.930 . S
N1522 Gd1513 2.661 . S
N1522 C1517 1.350 . S
N1522 C1523 1.307 . S
C1523 C1521 1.402 1_455 S
C1523 N1522 1.307 . S
C1523 H1524 0.930 . S
H1524 C1523 0.930 . S
C1525 N1526 1.334 . S
C1525 C1527 1.394 . S
C1525 H1529 0.930 . S
N1526 Gd1513 2.601 . S
N1526 C1516 1.359 . S
N1526 C1525 1.334 . S
C1527 C1525 1.394 . S
C1527 C1528 1.359 . S
C1527 H1539 0.930 . S
C1528 C1518 1.391 . S
C1528 C1527 1.359 . S
C1528 H1540 0.929 . S
H1529 C1525 0.930 . S
H1530 C1519 0.930 . S
H1531 C1548 0.930 . S
H1532 C1520 0.930 . S
H1533 C1521 0.930 . S
H1534 C1515 0.929 . S
H1535 C1553 0.930 . S
H1536 C1544 0.930 . S
H1537 C1545 0.930 . S
H1538 C1569 0.929 . S
H1539 C1527 0.930 . S
H1540 C1528 0.929 . S
H1541 C1570 0.930 . S
H1542 C1551 0.930 . S
N1543 Gd1512 2.661 . S
N1543 C1547 1.350 . S
N1543 C1548 1.307 . S
C1544 H1536 0.930 . S
C1544 C1545 1.355 . S
C1544 C1546 1.412 . S
C1545 H1537 0.930 . S
C1545 C1544 1.355 . S
C1545 C1548 1.402 . S
C1546 C1544 1.412 . S
C1546 C1547 1.417 . S
C1546 C1570 1.431 . S
C1547 N1543 1.350 . S
C1547 C1546 1.417 . S
C1547 C1550 1.426 . S
C1548 H1531 0.930 . S
C1548 N1543 1.307 . S
C1548 C1545 1.402 . S
N1549 Gd1512 2.601 . S
N1549 C1550 1.359 . S
N1549 C1553 1.334 . S
C1550 C1547 1.426 . S
C1550 N1549 1.359 . S
C1550 C1554 1.413 . S
C1551 H1542 0.930 . S
C1551 C1552 1.359 . S
C1551 C1553 1.394 . S
C1552 C1551 1.359 . S
C1552 C1554 1.391 . S
C1552 H1555 0.929 . S
C1553 H1535 0.930 . S
C1553 N1549 1.334 . S
C1553 C1551 1.394 . S
C1554 C1550 1.413 . S
C1554 C1552 1.391 . S
C1554 C1569 1.437 . S
H1555 C1552 0.929 . S
O1556 Gd1512 2.545 . S
O1556 C1571 1.258 . S
O1557 Gd1512 2.606 . S
O1557 Gd1513 2.362 . S
O1557 C1568 1.284 . S
O1558 Gd1513 2.324 . S
O1558 C1578 1.254 . S
O1559 Gd1512 2.429 . S
O1559 C1578 1.268 . S
O1560 Gd1512 2.545 . S
O1560 C1568 1.250 . S
O1561 Gd1512 2.412 . S
O1561 C1571 1.252 . S
O1562 Gd1513 2.545 . S
O1562 C1580 1.258 . S
O1563 Gd1512 2.362 . S
O1563 Gd1513 2.606 . S
O1563 C1579 1.284 . S
O1564 Gd1512 2.324 . S
O1564 C1587 1.254 . S
O1565 Gd1513 2.429 . S
O1565 C1587 1.268 . S
O1566 Gd1513 2.545 . S
O1566 C1579 1.250 . S
O1567 Gd1513 2.412 . S
O1567 C1580 1.252 . S
C1568 O1557 1.284 . S
C1568 O1560 1.250 . S
C1569 H1538 0.929 . S
C1569 C1554 1.437 . S
C1569 C1570 1.317 . S
C1570 H1541 0.930 . S
C1570 C1546 1.431 . S
C1570 C1569 1.317 . S
C1571 Gd1512 2.828 . S
C1571 O1556 1.258 . S
C1571 O1561 1.252 . S
C1571 C1572 1.497 . S
C1572 C1571 1.497 . S
C1572 C1573 1.395 . S
C1572 C1574 1.380 . S
C1573 C1572 1.395 . S
C1573 C1576 1.398 . S
C1573 H1588 0.930 . S
C1574 C1572 1.380 . S
C1574 C1575 1.391 . S
C1574 H1589 0.930 . S
C1575 C1574 1.391 . S
C1575 C1577 1.387 . S
C1576 C1573 1.398 . S
C1576 C1577 1.380 . S
C1576 H1590 0.930 . S
C1577 C1575 1.387 . S
C1577 C1576 1.380 . S
C1577 H1591 0.930 1_545 S
C1578 O1558 1.254 . S
C1578 O1559 1.268 . S
C1579 O1563 1.284 . S
C1579 O1566 1.250 . S
C1580 Gd1513 2.828 . S
C1580 O1562 1.258 . S
C1580 O1567 1.252 . S
C1580 C1581 1.497 . S
C1581 C1580 1.497 . S
C1581 C1582 1.395 . S
C1581 C1583 1.380 . S
C1582 C1581 1.395 . S
C1582 C1585 1.398 . S
C1582 H1592 0.930 . S
C1583 C1581 1.380 . S
C1583 C1584 1.391 . S
C1583 H1593 0.930 . S
C1584 C1583 1.391 . S
C1584 C1586 1.387 . S
C1585 C1582 1.398 . S
C1585 C1586 1.380 . S
C1585 H1594 0.930 . S
C1586 C1584 1.387 . S
C1586 C1585 1.380 . S
C1586 H1595 0.930 . S
C1587 O1564 1.254 . S
C1587 O1565 1.268 . S
H1588 C1573 0.930 . S
H1589 C1574 0.930 . S
H1590 C1576 0.930 . S
H1591 C1577 0.930 1_565 S
H1592 C1582 0.930 . S
H1593 C1583 0.930 . S
H1594 C1585 0.930 . S
H1595 C1586 0.930 . S
Gd1596 N1627 2.661 . S
Gd1596 N1633 2.601 . S
Gd1596 O1640 2.545 . S
Gd1596 O1641 2.606 1_545 S
Gd1596 O1643 2.429 1_545 S
Gd1596 O1644 2.545 . S
Gd1596 O1645 2.412 . S
Gd1596 O1647 2.362 1_545 S
Gd1596 O1648 2.324 . S
Gd1596 C1655 2.828 . S
Gd1597 N1606 2.661 . S
Gd1597 N1610 2.601 . S
Gd1597 O1641 2.362 . S
Gd1597 O1642 2.324 . S
Gd1597 O1646 2.545 . S
Gd1597 O1647 2.606 . S
Gd1597 O1649 2.429 . S
Gd1597 O1650 2.545 . S
Gd1597 O1651 2.412 . S
Gd1597 C1664 2.828 . S
C1598 C1601 1.417 . S
C1598 C1603 1.431 . S
C1598 C1604 1.412 . S
C1599 C1602 1.437 . S
C1599 C1603 1.317 . S
C1599 H1618 0.929 . S
C1600 C1601 1.426 . S
C1600 C1602 1.413 . S
C1600 N1610 1.359 . S
C1601 C1598 1.417 . S
C1601 C1600 1.426 . S
C1601 N1606 1.350 . S
C1602 C1599 1.437 . S
C1602 C1600 1.413 . S
C1602 C1612 1.391 . S
C1603 C1598 1.431 . S
C1603 C1599 1.317 . S
C1603 H1614 0.930 . S
C1604 C1598 1.412 . S
C1604 C1605 1.355 . S
C1604 H1616 0.930 . S
C1605 C1604 1.355 . S
C1605 C1607 1.402 . S
C1605 H1617 0.930 . S
N1606 Gd1597 2.661 . S
N1606 C1601 1.350 . S
N1606 C1607 1.307 . S
C1607 C1605 1.402 . S
C1607 N1606 1.307 . S
C1607 H1608 0.930 . S
H1608 C1607 0.930 . S
C1609 N1610 1.334 . S
C1609 C1611 1.394 . S
C1609 H1613 0.930 . S
N1610 Gd1597 2.601 . S
N1610 C1600 1.359 . S
N1610 C1609 1.334 . S
C1611 C1609 1.394 . S
C1611 C1612 1.359 . S
C1611 H1623 0.930 . S
C1612 C1602 1.391 . S
C1612 C1611 1.359 . S
C1612 H1624 0.929 . S
H1613 C1609 0.930 . S
H1614 C1603 0.930 . S
H1615 C1632 0.930 . S
H1616 C1604 0.930 . S
H1617 C1605 0.930 . S
H1618 C1599 0.929 . S
H1619 C1637 0.930 . S
H1620 C1628 0.930 . S
H1621 C1629 0.930 . S
H1622 C1653 0.929 . S
H1623 C1611 0.930 . S
H1624 C1612 0.929 . S
H1625 C1654 0.930 . S
H1626 C1635 0.930 . S
N1627 Gd1596 2.661 . S
N1627 C1631 1.350 . S
N1627 C1632 1.307 . S
C1628 H1620 0.930 . S
C1628 C1629 1.355 . S
C1628 C1630 1.412 . S
C1629 H1621 0.930 . S
C1629 C1628 1.355 . S
C1629 C1632 1.402 . S
C1630 C1628 1.412 . S
C1630 C1631 1.417 . S
C1630 C1654 1.431 . S
C1631 N1627 1.350 . S
C1631 C1630 1.417 . S
C1631 C1634 1.426 . S
C1632 H1615 0.930 . S
C1632 N1627 1.307 . S
C1632 C1629 1.402 . S
N1633 Gd1596 2.601 . S
N1633 C1634 1.359 . S
N1633 C1637 1.334 . S
C1634 C1631 1.426 . S
C1634 N1633 1.359 . S
C1634 C1638 1.413 . S
C1635 H1626 0.930 . S
C1635 C1636 1.359 . S
C1635 C1637 1.394 . S
C1636 C1635 1.359 . S
C1636 C1638 1.391 . S
C1636 H1639 0.929 . S
C1637 H1619 0.930 . S
C1637 N1633 1.334 . S
C1637 C1635 1.394 . S
C1638 C1634 1.413 . S
C1638 C1636 1.391 . S
C1638 C1653 1.437 . S
H1639 C1636 0.929 . S
O1640 Gd1596 2.545 . S
O1640 C1655 1.258 . S
O1641 Gd1596 2.606 1_565 S
O1641 Gd1597 2.362 . S
O1641 C1652 1.284 . S
O1642 Gd1597 2.324 . S
O1642 C1662 1.254 . S
O1643 Gd1596 2.429 1_565 S
O1643 C1662 1.268 . S
O1644 Gd1596 2.545 . S
O1644 C1652 1.250 1_545 S
O1645 Gd1596 2.412 . S
O1645 C1655 1.252 . S
O1646 Gd1597 2.545 . S
O1646 C1664 1.258 . S
O1647 Gd1596 2.362 1_565 S
O1647 Gd1597 2.606 . S
O1647 C1663 1.284 . S
O1648 Gd1596 2.324 . S
O1648 C1671 1.254 1_545 S
O1649 Gd1597 2.429 . S
O1649 C1671 1.268 . S
O1650 Gd1597 2.545 . S
O1650 C1663 1.250 . S
O1651 Gd1597 2.412 . S
O1651 C1664 1.252 . S
C1652 O1641 1.284 . S
C1652 O1644 1.250 1_565 S
C1653 H1622 0.929 . S
C1653 C1638 1.437 . S
C1653 C1654 1.317 . S
C1654 H1625 0.930 . S
C1654 C1630 1.431 . S
C1654 C1653 1.317 . S
C1655 Gd1596 2.828 . S
C1655 O1640 1.258 . S
C1655 O1645 1.252 . S
C1655 C1656 1.497 . S
C1656 C1655 1.497 . S
C1656 C1657 1.395 1_655 S
C1656 C1658 1.380 1_655 S
C1657 C1656 1.395 1_455 S
C1657 C1660 1.398 . S
C1657 H1672 0.930 1_455 S
C1658 C1656 1.380 1_455 S
C1658 C1659 1.391 . S
C1658 H1673 0.930 . S
C1659 C1658 1.391 . S
C1659 C1661 1.387 . S
C1660 C1657 1.398 . S
C1660 C1661 1.380 . S
C1660 H1674 0.930 . S
C1661 C1659 1.387 . S
C1661 C1660 1.380 . S
C1661 H1675 0.930 . S
C1662 O1642 1.254 . S
C1662 O1643 1.268 . S
C1663 O1647 1.284 . S
C1663 O1650 1.250 . S
C1664 Gd1597 2.828 . S
C1664 O1646 1.258 . S
C1664 O1651 1.252 . S
C1664 C1665 1.497 . S
C1665 C1664 1.497 . S
C1665 C1666 1.395 . S
C1665 C1667 1.380 . S
C1666 C1665 1.395 . S
C1666 C1669 1.398 . S
C1666 H1676 0.930 . S
C1667 C1665 1.380 . S
C1667 C1668 1.391 . S
C1667 H1677 0.930 . S
C1668 C1667 1.391 . S
C1668 C1670 1.387 . S
C1669 C1666 1.398 . S
C1669 C1670 1.380 . S
C1669 H1678 0.930 . S
C1670 C1668 1.387 . S
C1670 C1669 1.380 . S
C1670 H1679 0.930 . S
C1671 O1648 1.254 1_565 S
C1671 O1649 1.268 . S
H1672 C1657 0.930 1_655 S
H1673 C1658 0.930 . S
H1674 C1660 0.930 . S
H1675 C1661 0.930 . S
H1676 C1666 0.930 . S
H1677 C1667 0.930 . S
H1678 C1669 0.930 . S
H1679 C1670 0.930 . S
Gd1680 N1711 2.661 . S
Gd1680 N1717 2.601 . S
Gd1680 O1724 2.545 . S
Gd1680 O1725 2.606 . S
Gd1680 O1727 2.429 . S
Gd1680 O1728 2.545 . S
Gd1680 O1729 2.412 . S
Gd1680 O1731 2.362 . S
Gd1680 O1732 2.324 . S
Gd1680 C1739 2.828 . S
Gd1681 N1690 2.661 1_565 S
Gd1681 N1694 2.601 1_565 S
Gd1681 O1725 2.362 . S
Gd1681 O1726 2.324 . S
Gd1681 O1730 2.545 . S
Gd1681 O1731 2.606 . S
Gd1681 O1733 2.429 . S
Gd1681 O1734 2.545 . S
Gd1681 O1735 2.412 . S
Gd1681 C1748 2.828 . S
C1682 C1685 1.417 . S
C1682 C1687 1.431 . S
C1682 C1688 1.412 . S
C1683 C1686 1.437 . S
C1683 C1687 1.317 . S
C1683 H1702 0.929 . S
C1684 C1685 1.426 . S
C1684 C1686 1.413 . S
C1684 N1694 1.359 . S
C1685 C1682 1.417 . S
C1685 C1684 1.426 . S
C1685 N1690 1.350 . S
C1686 C1683 1.437 . S
C1686 C1684 1.413 . S
C1686 C1696 1.391 . S
C1687 C1682 1.431 . S
C1687 C1683 1.317 . S
C1687 H1698 0.930 . S
C1688 C1682 1.412 . S
C1688 C1689 1.355 . S
C1688 H1700 0.930 . S
C1689 C1688 1.355 . S
C1689 C1691 1.402 . S
C1689 H1701 0.930 . S
N1690 Gd1681 2.661 1_545 S
N1690 C1685 1.350 . S
N1690 C1691 1.307 . S
C1691 C1689 1.402 . S
C1691 N1690 1.307 . S
C1691 H1692 0.930 . S
H1692 C1691 0.930 . S
C1693 N1694 1.334 1_565 S
C1693 C1695 1.394 1_565 S
C1693 H1697 0.930 . S
N1694 Gd1681 2.601 1_545 S
N1694 C1684 1.359 . S
N1694 C1693 1.334 1_545 S
C1695 C1693 1.394 1_545 S
C1695 C1696 1.359 . S
C1695 H1707 0.930 . S
C1696 C1686 1.391 . S
C1696 C1695 1.359 . S
C1696 H1708 0.929 . S
H1697 C1693 0.930 . S
H1698 C1687 0.930 . S
H1699 C1716 0.930 . S
H1700 C1688 0.930 . S
H1701 C1689 0.930 . S
H1702 C1683 0.929 . S
H1703 C1721 0.930 . S
H1704 C1712 0.930 . S
H1705 C1713 0.930 . S
H1706 C1737 0.929 . S
H1707 C1695 0.930 . S
H1708 C1696 0.929 . S
H1709 C1738 0.930 . S
H1710 C1719 0.930 . S
N1711 Gd1680 2.661 . S
N1711 C1715 1.350 . S
N1711 C1716 1.307 . S
C1712 H1704 0.930 . S
C1712 C1713 1.355 1_655 S
C1712 C1714 1.412 . S
C1713 H1705 0.930 . S
C1713 C1712 1.355 1_455 S
C1713 C1716 1.402 . S
C1714 C1712 1.412 . S
C1714 C1715 1.417 1_655 S
C1714 C1738 1.431 . S
C1715 N1711 1.350 . S
C1715 C1714 1.417 1_455 S
C1715 C1718 1.426 . S
C1716 H1699 0.930 . S
C1716 N1711 1.307 . S
C1716 C1713 1.402 . S
N1717 Gd1680 2.601 . S
N1717 C1718 1.359 . S
N1717 C1721 1.334 . S
C1718 C1715 1.426 . S
C1718 N1717 1.359 . S
C1718 C1722 1.413 . S
C1719 H1710 0.930 . S
C1719 C1720 1.359 . S
C1719 C1721 1.394 . S
C1720 C1719 1.359 . S
C1720 C1722 1.391 . S
C1720 H1723 0.929 . S
C1721 H1703 0.930 . S
C1721 N1717 1.334 . S
C1721 C1719 1.394 . S
C1722 C1718 1.413 . S
C1722 C1720 1.391 . S
C1722 C1737 1.437 1_455 S
H1723 C1720 0.929 . S
O1724 Gd1680 2.545 . S
O1724 C1739 1.258 . S
O1725 Gd1680 2.606 . S
O1725 Gd1681 2.362 . S
O1725 C1736 1.284 . S
O1726 Gd1681 2.324 . S
O1726 C1746 1.254 . S
O1727 Gd1680 2.429 . S
O1727 C1746 1.268 . S
O1728 Gd1680 2.545 . S
O1728 C1736 1.250 . S
O1729 Gd1680 2.412 . S
O1729 C1739 1.252 . S
O1730 Gd1681 2.545 . S
O1730 C1748 1.258 . S
O1731 Gd1680 2.362 . S
O1731 Gd1681 2.606 . S
O1731 C1747 1.284 . S
O1732 Gd1680 2.324 . S
O1732 C1755 1.254 . S
O1733 Gd1681 2.429 . S
O1733 C1755 1.268 . S
O1734 Gd1681 2.545 . S
O1734 C1747 1.250 . S
O1735 Gd1681 2.412 . S
O1735 C1748 1.252 . S
C1736 O1725 1.284 . S
C1736 O1728 1.250 . S
C1737 H1706 0.929 . S
C1737 C1722 1.437 1_655 S
C1737 C1738 1.317 . S
C1738 H1709 0.930 . S
C1738 C1714 1.431 . S
C1738 C1737 1.317 . S
C1739 Gd1680 2.828 . S
C1739 O1724 1.258 . S
C1739 O1729 1.252 . S
C1739 C1740 1.497 1_455 S
C1740 C1739 1.497 1_655 S
C1740 C1741 1.395 . S
C1740 C1742 1.380 . S
C1741 C1740 1.395 . S
C1741 C1744 1.398 . S
C1741 H1756 0.930 . S
C1742 C1740 1.380 . S
C1742 C1743 1.391 . S
C1742 H1757 0.930 . S
C1743 C1742 1.391 . S
C1743 C1745 1.387 . S
C1744 C1741 1.398 . S
C1744 C1745 1.380 . S
C1744 H1758 0.930 . S
C1745 C1743 1.387 . S
C1745 C1744 1.380 . S
C1745 H1759 0.930 . S
C1746 O1726 1.254 . S
C1746 O1727 1.268 . S
C1747 O1731 1.284 . S
C1747 O1734 1.250 . S
C1748 Gd1681 2.828 . S
C1748 O1730 1.258 . S
C1748 O1735 1.252 . S
C1748 C1749 1.497 . S
C1749 C1748 1.497 . S
C1749 C1750 1.395 . S
C1749 C1751 1.380 . S
C1750 C1749 1.395 . S
C1750 C1753 1.398 . S
C1750 H1760 0.930 . S
C1751 C1749 1.380 . S
C1751 C1752 1.391 . S
C1751 H1761 0.930 . S
C1752 C1751 1.391 . S
C1752 C1754 1.387 . S
C1753 C1750 1.398 . S
C1753 C1754 1.380 . S
C1753 H1762 0.930 . S
C1754 C1752 1.387 . S
C1754 C1753 1.380 . S
C1754 H1763 0.930 . S
C1755 O1732 1.254 . S
C1755 O1733 1.268 . S
H1756 C1741 0.930 . S
H1757 C1742 0.930 . S
H1758 C1744 0.930 . S
H1759 C1745 0.930 . S
H1760 C1750 0.930 . S
H1761 C1751 0.930 . S
H1762 C1753 0.930 . S
H1763 C1754 0.930 . S
Gd1764 N1795 2.661 1_565 S
Gd1764 N1801 2.601 1_565 S
Gd1764 O1808 2.545 . S
Gd1764 O1809 2.606 . S
Gd1764 O1811 2.429 . S
Gd1764 O1812 2.545 . S
Gd1764 O1813 2.412 . S
Gd1764 O1815 2.362 . S
Gd1764 O1816 2.324 . S
Gd1764 C1823 2.828 . S
Gd1765 N1774 2.661 . S
Gd1765 N1778 2.601 . S
Gd1765 O1809 2.362 . S
Gd1765 O1810 2.324 . S
Gd1765 O1814 2.545 . S
Gd1765 O1815 2.606 . S
Gd1765 O1817 2.429 . S
Gd1765 O1818 2.545 . S
Gd1765 O1819 2.412 . S
Gd1765 C1832 2.828 . S
C1766 C1769 1.417 . S
C1766 C1771 1.431 . S
C1766 C1772 1.412 . S
C1767 C1770 1.437 . S
C1767 C1771 1.317 . S
C1767 H1786 0.929 . S
C1768 C1769 1.426 . S
C1768 C1770 1.413 . S
C1768 N1778 1.359 . S
C1769 C1766 1.417 . S
C1769 C1768 1.426 . S
C1769 N1774 1.350 . S
C1770 C1767 1.437 . S
C1770 C1768 1.413 . S
C1770 C1780 1.391 . S
C1771 C1766 1.431 . S
C1771 C1767 1.317 . S
C1771 H1782 0.930 . S
C1772 C1766 1.412 . S
C1772 C1773 1.355 . S
C1772 H1784 0.930 . S
C1773 C1772 1.355 . S
C1773 C1775 1.402 . S
C1773 H1785 0.930 . S
N1774 Gd1765 2.661 . S
N1774 C1769 1.350 . S
N1774 C1775 1.307 . S
C1775 C1773 1.402 . S
C1775 N1774 1.307 . S
C1775 H1776 0.930 . S
H1776 C1775 0.930 . S
C1777 N1778 1.334 . S
C1777 C1779 1.394 . S
C1777 H1781 0.930 . S
N1778 Gd1765 2.601 . S
N1778 C1768 1.359 . S
N1778 C1777 1.334 . S
C1779 C1777 1.394 . S
C1779 C1780 1.359 . S
C1779 H1791 0.930 . S
C1780 C1770 1.391 . S
C1780 C1779 1.359 . S
C1780 H1792 0.929 . S
H1781 C1777 0.930 . S
H1782 C1771 0.930 . S
H1783 C1800 0.930 . S
H1784 C1772 0.930 . S
H1785 C1773 0.930 . S
H1786 C1767 0.929 . S
H1787 C1805 0.930 1_565 S
H1788 C1796 0.930 . S
H1789 C1797 0.930 . S
H1790 C1821 0.929 . S
H1791 C1779 0.930 . S
H1792 C1780 0.929 . S
H1793 C1822 0.930 . S
H1794 C1803 0.930 . S
N1795 Gd1764 2.661 1_545 S
N1795 C1799 1.350 . S
N1795 C1800 1.307 . S
C1796 H1788 0.930 . S
C1796 C1797 1.355 . S
C1796 C1798 1.412 . S
C1797 H1789 0.930 . S
C1797 C1796 1.355 . S
C1797 C1800 1.402 . S
C1798 C1796 1.412 . S
C1798 C1799 1.417 . S
C1798 C1822 1.431 . S
C1799 N1795 1.350 . S
C1799 C1798 1.417 . S
C1799 C1802 1.426 . S
C1800 H1783 0.930 . S
C1800 N1795 1.307 . S
C1800 C1797 1.402 . S
N1801 Gd1764 2.601 1_545 S
N1801 C1802 1.359 . S
N1801 C1805 1.334 . S
C1802 C1799 1.426 . S
C1802 N1801 1.359 . S
C1802 C1806 1.413 . S
C1803 H1794 0.930 . S
C1803 C1804 1.359 . S
C1803 C1805 1.394 . S
C1804 C1803 1.359 . S
C1804 C1806 1.391 . S
C1804 H1807 0.929 . S
C1805 H1787 0.930 1_545 S
C1805 N1801 1.334 . S
C1805 C1803 1.394 . S
C1806 C1802 1.413 . S
C1806 C1804 1.391 . S
C1806 C1821 1.437 . S
H1807 C1804 0.929 . S
O1808 Gd1764 2.545 . S
O1808 C1823 1.258 . S
O1809 Gd1764 2.606 . S
O1809 Gd1765 2.362 . S
O1809 C1820 1.284 . S
O1810 Gd1765 2.324 . S
O1810 C1830 1.254 . S
O1811 Gd1764 2.429 . S
O1811 C1830 1.268 . S
O1812 Gd1764 2.545 . S
O1812 C1820 1.250 . S
O1813 Gd1764 2.412 . S
O1813 C1823 1.252 . S
O1814 Gd1765 2.545 . S
O1814 C1832 1.258 . S
O1815 Gd1764 2.362 . S
O1815 Gd1765 2.606 . S
O1815 C1831 1.284 1_565 S
O1816 Gd1764 2.324 . S
O1816 C1839 1.254 . S
O1817 Gd1765 2.429 . S
O1817 C1839 1.268 . S
O1818 Gd1765 2.545 . S
O1818 C1831 1.250 1_565 S
O1819 Gd1765 2.412 . S
O1819 C1832 1.252 . S
C1820 O1809 1.284 . S
C1820 O1812 1.250 . S
C1821 H1790 0.929 . S
C1821 C1806 1.437 . S
C1821 C1822 1.317 . S
C1822 H1793 0.930 . S
C1822 C1798 1.431 . S
C1822 C1821 1.317 . S
C1823 Gd1764 2.828 . S
C1823 O1808 1.258 . S
C1823 O1813 1.252 . S
C1823 C1824 1.497 . S
C1824 C1823 1.497 . S
C1824 C1825 1.395 . S
C1824 C1826 1.380 . S
C1825 C1824 1.395 . S
C1825 C1828 1.398 . S
C1825 H1840 0.930 . S
C1826 C1824 1.380 . S
C1826 C1827 1.391 . S
C1826 H1841 0.930 . S
C1827 C1826 1.391 . S
C1827 C1829 1.387 . S
C1828 C1825 1.398 . S
C1828 C1829 1.380 . S
C1828 H1842 0.930 . S
C1829 C1827 1.387 . S
C1829 C1828 1.380 . S
C1829 H1843 0.930 . S
C1830 O1810 1.254 . S
C1830 O1811 1.268 . S
C1831 O1815 1.284 1_545 S
C1831 O1818 1.250 1_545 S
C1832 Gd1765 2.828 . S
C1832 O1814 1.258 . S
C1832 O1819 1.252 . S
C1832 C1833 1.497 . S
C1833 C1832 1.497 . S
C1833 C1834 1.395 . S
C1833 C1835 1.380 . S
C1834 C1833 1.395 . S
C1834 C1837 1.398 1_655 S
C1834 H1844 0.930 . S
C1835 C1833 1.380 . S
C1835 C1836 1.391 1_655 S
C1835 H1845 0.930 . S
C1836 C1835 1.391 1_455 S
C1836 C1838 1.387 . S
C1837 C1834 1.398 1_455 S
C1837 C1838 1.380 . S
C1837 H1846 0.930 . S
C1838 C1836 1.387 . S
C1838 C1837 1.380 . S
C1838 H1847 0.930 . S
C1839 O1816 1.254 . S
C1839 O1817 1.268 . S
H1840 C1825 0.930 . S
H1841 C1826 0.930 . S
H1842 C1828 0.930 . S
H1843 C1829 0.930 . S
H1844 C1834 0.930 . S
H1845 C1835 0.930 . S
H1846 C1837 0.930 . S
H1847 C1838 0.930 . S
Gd1848 N1879 2.661 . S
Gd1848 N1885 2.601 . S
Gd1848 O1892 2.545 . S
Gd1848 O1893 2.606 . S
Gd1848 O1895 2.429 . S
Gd1848 O1896 2.545 . S
Gd1848 O1897 2.412 . S
Gd1848 O1899 2.362 . S
Gd1848 O1900 2.324 . S
Gd1848 C1907 2.828 . S
Gd1849 N1858 2.661 1_565 S
Gd1849 N1862 2.601 1_565 S
Gd1849 O1893 2.362 . S
Gd1849 O1894 2.324 . S
Gd1849 O1898 2.545 1_565 S
Gd1849 O1899 2.606 . S
Gd1849 O1901 2.429 . S
Gd1849 O1902 2.545 . S
Gd1849 O1903 2.412 1_565 S
Gd1849 C1916 2.828 1_565 S
C1850 C1853 1.417 . S
C1850 C1855 1.431 . S
C1850 C1856 1.412 . S
C1851 C1854 1.437 . S
C1851 C1855 1.317 . S
C1851 H1870 0.929 . S
C1852 C1853 1.426 . S
C1852 C1854 1.413 . S
C1852 N1862 1.359 . S
C1853 C1850 1.417 . S
C1853 C1852 1.426 . S
C1853 N1858 1.350 . S
C1854 C1851 1.437 . S
C1854 C1852 1.413 . S
C1854 C1864 1.391 . S
C1855 C1850 1.431 . S
C1855 C1851 1.317 . S
C1855 H1866 0.930 . S
C1856 C1850 1.412 . S
C1856 C1857 1.355 . S
C1856 H1868 0.930 . S
C1857 C1856 1.355 . S
C1857 C1859 1.402 . S
C1857 H1869 0.930 . S
N1858 Gd1849 2.661 1_545 S
N1858 C1853 1.350 . S
N1858 C1859 1.307 . S
C1859 C1857 1.402 . S
C1859 N1858 1.307 . S
C1859 H1860 0.930 . S
H1860 C1859 0.930 . S
C1861 N1862 1.334 . S
C1861 C1863 1.397 . S
C1861 H1865 0.928 1_545 S
N1862 Gd1849 2.601 1_545 S
N1862 C1852 1.359 . S
N1862 C1861 1.334 . S
C1863 C1861 1.397 . S
C1863 C1864 1.359 . S
C1863 H1875 0.930 . S
C1864 C1854 1.391 . S
C1864 C1863 1.359 . S
C1864 H1876 0.929 . S
H1865 C1861 0.928 1_565 S
H1866 C1855 0.930 . S
H1867 C1884 0.930 . S
H1868 C1856 0.930 . S
H1869 C1857 0.930 . S
H1870 C1851 0.929 . S
H1871 C1889 0.930 . S
H1872 C1880 0.930 . S
H1873 C1881 0.930 . S
H1874 C1905 0.929 . S
H1875 C1863 0.930 . S
H1876 C1864 0.929 . S
H1877 C1906 0.930 . S
H1878 C1887 0.930 . S
N1879 Gd1848 2.661 . S
N1879 C1883 1.350 . S
N1879 C1884 1.307 . S
C1880 H1872 0.930 . S
C1880 C1881 1.355 . S
C1880 C1882 1.412 . S
C1881 H1873 0.930 . S
C1881 C1880 1.355 . S
C1881 C1884 1.402 1_655 S
C1882 C1880 1.412 . S
C1882 C1883 1.417 1_655 S
C1882 C1906 1.431 . S
C1883 N1879 1.350 . S
C1883 C1882 1.417 1_455 S
C1883 C1886 1.426 . S
C1884 H1867 0.930 . S
C1884 N1879 1.307 . S
C1884 C1881 1.402 1_455 S
N1885 Gd1848 2.601 . S
N1885 C1886 1.359 . S
N1885 C1889 1.334 . S
C1886 C1883 1.426 . S
C1886 N1885 1.359 . S
C1886 C1890 1.413 1_455 S
C1887 H1878 0.930 . S
C1887 C1888 1.359 . S
C1887 C1889 1.394 . S
C1888 C1887 1.359 . S
C1888 C1890 1.391 1_455 S
C1888 H1891 0.929 1_455 S
C1889 H1871 0.930 . S
C1889 N1885 1.334 . S
C1889 C1887 1.394 . S
C1890 C1886 1.413 1_655 S
C1890 C1888 1.391 1_655 S
C1890 C1905 1.437 . S
H1891 C1888 0.929 1_655 S
O1892 Gd1848 2.545 . S
O1892 C1907 1.258 . S
O1893 Gd1848 2.606 . S
O1893 Gd1849 2.362 . S
O1893 C1904 1.284 . S
O1894 Gd1849 2.324 . S
O1894 C1914 1.254 . S
O1895 Gd1848 2.429 . S
O1895 C1914 1.268 . S
O1896 Gd1848 2.545 . S
O1896 C1904 1.250 . S
O1897 Gd1848 2.412 . S
O1897 C1907 1.252 . S
O1898 Gd1849 2.545 1_545 S
O1898 C1916 1.258 . S
O1899 Gd1848 2.362 . S
O1899 Gd1849 2.606 . S
O1899 C1915 1.284 . S
O1900 Gd1848 2.324 . S
O1900 C1923 1.254 . S
O1901 Gd1849 2.429 . S
O1901 C1923 1.268 . S
O1902 Gd1849 2.545 . S
O1902 C1915 1.250 . S
O1903 Gd1849 2.412 1_545 S
O1903 C1916 1.252 . S
C1904 O1893 1.284 . S
C1904 O1896 1.250 . S
C1905 H1874 0.929 . S
C1905 C1890 1.437 . S
C1905 C1906 1.317 . S
C1906 H1877 0.930 . S
C1906 C1882 1.431 . S
C1906 C1905 1.317 . S
C1907 Gd1848 2.828 . S
C1907 O1892 1.258 . S
C1907 O1897 1.252 . S
C1907 C1908 1.497 . S
C1908 C1907 1.497 . S
C1908 C1909 1.395 . S
C1908 C1910 1.380 . S
C1909 C1908 1.395 . S
C1909 C1912 1.398 . S
C1909 H1924 0.930 . S
C1910 C1908 1.380 . S
C1910 C1911 1.391 . S
C1910 H1925 0.930 . S
C1911 C1910 1.391 . S
C1911 C1913 1.387 . S
C1912 C1909 1.398 . S
C1912 C1913 1.380 . S
C1912 H1926 0.930 . S
C1913 C1911 1.387 . S
C1913 C1912 1.380 . S
C1913 H1927 0.930 . S
C1914 O1894 1.254 . S
C1914 O1895 1.268 . S
C1915 O1899 1.284 . S
C1915 O1902 1.250 . S
C1916 Gd1849 2.828 1_545 S
C1916 O1898 1.258 . S
C1916 O1903 1.252 . S
C1916 C1917 1.497 . S
C1917 C1916 1.497 . S
C1917 C1918 1.395 . S
C1917 C1919 1.380 . S
C1918 C1917 1.395 . S
C1918 C1921 1.398 . S
C1918 H1928 0.930 . S
C1919 C1917 1.380 . S
C1919 C1920 1.391 . S
C1919 H1929 0.930 . S
C1920 C1919 1.391 . S
C1920 C1922 1.387 . S
C1921 C1918 1.398 . S
C1921 C1922 1.380 . S
C1921 H1930 0.930 . S
C1922 C1920 1.387 . S
C1922 C1921 1.380 . S
C1922 H1931 0.930 . S
C1923 O1900 1.254 . S
C1923 O1901 1.268 . S
H1924 C1909 0.930 . S
H1925 C1910 0.930 . S
H1926 C1912 0.930 . S
H1927 C1913 0.930 . S
H1928 C1918 0.930 . S
H1929 C1919 0.930 . S
H1930 C1921 0.930 . S
H1931 C1922 0.930 . S
Gd1932 N1963 2.661 . S
Gd1932 N1969 2.601 . S
Gd1932 O1976 2.545 . S
Gd1932 O1977 2.606 . S
Gd1932 O1979 2.429 . S
Gd1932 O1980 2.545 . S
Gd1932 O1981 2.412 . S
Gd1932 O1983 2.362 . S
Gd1932 O1984 2.324 . S
Gd1932 C1991 2.828 . S
Gd1933 N1942 2.661 . S
Gd1933 N1946 2.601 . S
Gd1933 O1977 2.362 . S
Gd1933 O1978 2.324 . S
Gd1933 O1982 2.545 . S
Gd1933 O1983 2.606 . S
Gd1933 O1985 2.429 . S
Gd1933 O1986 2.545 . S
Gd1933 O1987 2.412 . S
Gd1933 C2000 2.828 . S
C1934 C1937 1.417 . S
C1934 C1939 1.431 . S
C1934 C1940 1.412 . S
C1935 C1938 1.437 . S
C1935 C1939 1.317 . S
C1935 H1954 0.929 . S
C1936 C1937 1.426 . S
C1936 C1938 1.413 . S
C1936 N1946 1.359 . S
C1937 C1934 1.417 . S
C1937 C1936 1.426 . S
C1937 N1942 1.350 . S
C1938 C1935 1.437 . S
C1938 C1936 1.413 . S
C1938 C1948 1.391 . S
C1939 C1934 1.431 . S
C1939 C1935 1.317 . S
C1939 H1950 0.930 1_455 S
C1940 C1934 1.412 . S
C1940 C1941 1.355 . S
C1940 H1952 0.930 . S
C1941 C1940 1.355 . S
C1941 C1943 1.402 . S
C1941 H1953 0.930 . S
N1942 Gd1933 2.661 . S
N1942 C1937 1.350 . S
N1942 C1943 1.307 . S
C1943 C1941 1.402 . S
C1943 N1942 1.307 . S
C1943 H1944 0.930 . S
H1944 C1943 0.930 . S
C1945 N1946 1.334 . S
C1945 C1947 1.394 . S
C1945 H1949 0.930 . S
N1946 Gd1933 2.601 . S
N1946 C1936 1.359 . S
N1946 C1945 1.334 . S
C1947 C1945 1.394 . S
C1947 C1948 1.359 . S
C1947 H1959 0.930 . S
C1948 C1938 1.391 . S
C1948 C1947 1.359 . S
C1948 H1960 0.929 . S
H1949 C1945 0.930 . S
H1950 C1939 0.930 1_655 S
H1951 C1968 0.930 . S
H1952 C1940 0.930 . S
H1953 C1941 0.930 . S
H1954 C1935 0.929 . S
H1955 C1973 0.930 . S
H1956 C1964 0.930 . S
H1957 C1965 0.930 . S
H1958 C1989 0.929 . S
H1959 C1947 0.930 . S
H1960 C1948 0.929 . S
H1961 C1990 0.930 . S
H1962 C1971 0.930 . S
N1963 Gd1932 2.661 . S
N1963 C1967 1.350 . S
N1963 C1968 1.307 . S
C1964 H1956 0.930 . S
C1964 C1965 1.355 . S
C1964 C1966 1.412 . S
C1965 H1957 0.930 . S
C1965 C1964 1.355 . S
C1965 C1968 1.402 . S
C1966 C1964 1.412 . S
C1966 C1967 1.417 . S
C1966 C1990 1.431 . S
C1967 N1963 1.350 . S
C1967 C1966 1.417 . S
C1967 C1970 1.426 . S
C1968 H1951 0.930 . S
C1968 N1963 1.307 . S
C1968 C1965 1.402 . S
N1969 Gd1932 2.601 . S
N1969 C1970 1.359 . S
N1969 C1973 1.334 . S
C1970 C1967 1.426 . S
C1970 N1969 1.359 . S
C1970 C1974 1.413 . S
C1971 H1962 0.930 . S
C1971 C1972 1.359 . S
C1971 C1973 1.394 . S
C1972 C1971 1.359 . S
C1972 C1974 1.391 . S
C1972 H1975 0.929 . S
C1973 H1955 0.930 . S
C1973 N1969 1.334 . S
C1973 C1971 1.394 . S
C1974 C1970 1.413 . S
C1974 C1972 1.391 . S
C1974 C1989 1.437 . S
H1975 C1972 0.929 . S
O1976 Gd1932 2.545 . S
O1976 C1991 1.258 . S
O1977 Gd1932 2.606 . S
O1977 Gd1933 2.362 . S
O1977 C1988 1.284 . S
O1978 Gd1933 2.324 . S
O1978 C1998 1.254 . S
O1979 Gd1932 2.429 . S
O1979 C1998 1.268 . S
O1980 Gd1932 2.545 . S
O1980 C1988 1.250 . S
O1981 Gd1932 2.412 . S
O1981 C1991 1.252 . S
O1982 Gd1933 2.545 . S
O1982 C2000 1.258 . S
O1983 Gd1932 2.362 . S
O1983 Gd1933 2.606 . S
O1983 C1999 1.284 . S
O1984 Gd1932 2.324 . S
O1984 C2007 1.254 . S
O1985 Gd1933 2.429 . S
O1985 C2007 1.268 . S
O1986 Gd1933 2.545 . S
O1986 C1999 1.250 . S
O1987 Gd1933 2.412 . S
O1987 C2000 1.252 . S
C1988 O1977 1.284 . S
C1988 O1980 1.250 . S
C1989 H1958 0.929 . S
C1989 C1974 1.437 . S
C1989 C1990 1.317 . S
C1990 H1961 0.930 . S
C1990 C1966 1.431 . S
C1990 C1989 1.317 . S
C1991 Gd1932 2.828 . S
C1991 O1976 1.258 . S
C1991 O1981 1.252 . S
C1991 C1992 1.497 . S
C1992 C1991 1.497 . S
C1992 C1993 1.395 . S
C1992 C1994 1.380 . S
C1993 C1992 1.395 . S
C1993 C1996 1.398 . S
C1993 H2008 0.930 . S
C1994 C1992 1.380 . S
C1994 C1995 1.391 . S
C1994 H2009 0.930 . S
C1995 C1994 1.391 . S
C1995 C1997 1.387 . S
C1996 C1993 1.398 . S
C1996 C1997 1.380 . S
C1996 H2010 0.930 . S
C1997 C1995 1.387 . S
C1997 C1996 1.380 . S
C1997 H2011 0.930 . S
C1998 O1978 1.254 . S
C1998 O1979 1.268 . S
C1999 O1983 1.284 . S
C1999 O1986 1.250 . S
C2000 Gd1933 2.828 . S
C2000 O1982 1.258 . S
C2000 O1987 1.252 . S
C2000 C2001 1.497 1_455 S
C2001 C2000 1.497 1_655 S
C2001 C2002 1.395 . S
C2001 C2003 1.380 . S
C2002 C2001 1.395 . S
C2002 C2005 1.398 . S
C2002 H2012 0.930 . S
C2003 C2001 1.380 . S
C2003 C2004 1.391 . S
C2003 H2013 0.930 . S
C2004 C2003 1.391 . S
C2004 C2006 1.387 . S
C2005 C2002 1.398 . S
C2005 C2006 1.380 . S
C2005 H2014 0.930 . S
C2006 C2004 1.387 . S
C2006 C2005 1.380 . S
C2006 H2015 0.930 . S
C2007 O1984 1.254 . S
C2007 O1985 1.268 . S
H2008 C1993 0.930 . S
H2009 C1994 0.930 . S
H2010 C1996 0.930 . S
H2011 C1997 0.930 . S
H2012 C2002 0.930 . S
H2013 C2003 0.930 . S
H2014 C2005 0.930 . S
H2015 C2006 0.930 . S
Gd2016 N2047 2.661 1_655 S
Gd2016 N2053 2.601 1_655 S
Gd2016 O2060 2.545 . S
Gd2016 O2061 2.606 . S
Gd2016 O2063 2.429 . S
Gd2016 O2064 2.545 . S
Gd2016 O2065 2.412 . S
Gd2016 O2067 2.362 . S
Gd2016 O2068 2.324 . S
Gd2016 C2075 2.828 . S
Gd2017 N2026 2.661 . S
Gd2017 N2030 2.601 . S
Gd2017 O2061 2.362 . S
Gd2017 O2062 2.324 . S
Gd2017 O2066 2.545 . S
Gd2017 O2067 2.606 . S
Gd2017 O2069 2.429 . S
Gd2017 O2070 2.545 . S
Gd2017 O2071 2.412 . S
Gd2017 C2084 2.828 . S
C2018 C2021 1.417 . S
C2018 C2023 1.431 . S
C2018 C2024 1.412 . S
C2019 C2022 1.437 . S
C2019 C2023 1.317 . S
C2019 H2038 0.929 . S
C2020 C2021 1.426 . S
C2020 C2022 1.413 . S
C2020 N2030 1.359 . S
C2021 C2018 1.417 . S
C2021 C2020 1.426 . S
C2021 N2026 1.350 . S
C2022 C2019 1.437 . S
C2022 C2020 1.413 . S
C2022 C2032 1.391 . S
C2023 C2018 1.431 . S
C2023 C2019 1.317 . S
C2023 H2034 0.930 . S
C2024 C2018 1.412 . S
C2024 C2025 1.355 . S
C2024 H2036 0.930 . S
C2025 C2024 1.355 . S
C2025 C2027 1.402 . S
C2025 H2037 0.930 . S
N2026 Gd2017 2.661 . S
N2026 C2021 1.350 . S
N2026 C2027 1.307 . S
C2027 C2025 1.402 . S
C2027 N2026 1.307 . S
C2027 H2028 0.930 . S
H2028 C2027 0.930 . S
C2029 N2030 1.334 . S
C2029 C2031 1.394 . S
C2029 H2033 0.930 . S
N2030 Gd2017 2.601 . S
N2030 C2020 1.359 . S
N2030 C2029 1.334 . S
C2031 C2029 1.394 . S
C2031 C2032 1.359 . S
C2031 H2043 0.930 . S
C2032 C2022 1.391 . S
C2032 C2031 1.359 . S
C2032 H2044 0.929 . S
H2033 C2029 0.930 . S
H2034 C2023 0.930 . S
H2035 C2052 0.930 . S
H2036 C2024 0.930 . S
H2037 C2025 0.930 . S
H2038 C2019 0.929 . S
H2039 C2057 0.930 . S
H2040 C2048 0.930 . S
H2041 C2049 0.930 . S
H2042 C2073 0.929 . S
H2043 C2031 0.930 . S
H2044 C2032 0.929 . S
H2045 C2074 0.930 . S
H2046 C2055 0.930 . S
N2047 Gd2016 2.661 1_455 S
N2047 C2051 1.350 . S
N2047 C2052 1.307 . S
C2048 H2040 0.930 . S
C2048 C2049 1.355 . S
C2048 C2050 1.412 . S
C2049 H2041 0.930 . S
C2049 C2048 1.355 . S
C2049 C2052 1.402 . S
C2050 C2048 1.412 . S
C2050 C2051 1.417 . S
C2050 C2074 1.431 . S
C2051 N2047 1.350 . S
C2051 C2050 1.417 . S
C2051 C2054 1.426 . S
C2052 H2035 0.930 . S
C2052 N2047 1.307 . S
C2052 C2049 1.402 . S
N2053 Gd2016 2.601 1_455 S
N2053 C2054 1.359 . S
N2053 C2057 1.334 1_455 S
C2054 C2051 1.426 . S
C2054 N2053 1.359 . S
C2054 C2058 1.413 . S
C2055 H2046 0.930 . S
C2055 C2056 1.359 . S
C2055 C2057 1.394 1_455 S
C2056 C2055 1.359 . S
C2056 C2058 1.391 . S
C2056 H2059 0.929 . S
C2057 H2039 0.930 . S
C2057 N2053 1.334 1_655 S
C2057 C2055 1.394 1_655 S
C2058 C2054 1.413 . S
C2058 C2056 1.391 . S
C2058 C2073 1.437 . S
H2059 C2056 0.929 . S
O2060 Gd2016 2.545 . S
O2060 C2075 1.258 . S
O2061 Gd2016 2.606 . S
O2061 Gd2017 2.362 . S
O2061 C2072 1.284 . S
O2062 Gd2017 2.324 . S
O2062 C2082 1.254 . S
O2063 Gd2016 2.429 . S
O2063 C2082 1.268 . S
O2064 Gd2016 2.545 . S
O2064 C2072 1.250 . S
O2065 Gd2016 2.412 . S
O2065 C2075 1.252 . S
O2066 Gd2017 2.545 . S
O2066 C2084 1.258 . S
O2067 Gd2016 2.362 . S
O2067 Gd2017 2.606 . S
O2067 C2083 1.284 . S
O2068 Gd2016 2.324 . S
O2068 C2091 1.254 . S
O2069 Gd2017 2.429 . S
O2069 C2091 1.268 . S
O2070 Gd2017 2.545 . S
O2070 C2083 1.250 . S
O2071 Gd2017 2.412 . S
O2071 C2084 1.252 . S
C2072 O2061 1.284 . S
C2072 O2064 1.250 . S
C2073 H2042 0.929 . S
C2073 C2058 1.437 . S
C2073 C2074 1.317 . S
C2074 H2045 0.930 . S
C2074 C2050 1.431 . S
C2074 C2073 1.317 . S
C2075 Gd2016 2.828 . S
C2075 O2060 1.258 . S
C2075 O2065 1.252 . S
C2075 C2076 1.497 . S
C2076 C2075 1.497 . S
C2076 C2077 1.395 . S
C2076 C2078 1.380 . S
C2077 C2076 1.395 . S
C2077 C2080 1.398 . S
C2077 H2092 0.930 . S
C2078 C2076 1.380 . S
C2078 C2079 1.391 . S
C2078 H2093 0.930 . S
C2079 C2078 1.391 . S
C2079 C2081 1.387 . S
C2080 C2077 1.398 . S
C2080 C2081 1.380 . S
C2080 H2094 0.930 . S
C2081 C2079 1.387 . S
C2081 C2080 1.380 . S
C2081 H2095 0.930 . S
C2082 O2062 1.254 . S
C2082 O2063 1.268 . S
C2083 O2067 1.284 . S
C2083 O2070 1.250 . S
C2084 Gd2017 2.828 . S
C2084 O2066 1.258 . S
C2084 O2071 1.252 . S
C2084 C2085 1.497 . S
C2085 C2084 1.497 . S
C2085 C2086 1.395 1_565 S
C2085 C2087 1.380 1_565 S
C2086 C2085 1.395 1_545 S
C2086 C2089 1.398 . S
C2086 H2096 0.930 1_545 S
C2087 C2085 1.380 1_545 S
C2087 C2088 1.391 . S
C2087 H2097 0.930 . S
C2088 C2087 1.391 . S
C2088 C2090 1.387 . S
C2089 C2086 1.398 . S
C2089 C2090 1.380 . S
C2089 H2098 0.930 . S
C2090 C2088 1.387 . S
C2090 C2089 1.380 . S
C2090 H2099 0.930 . S
C2091 O2068 1.254 . S
C2091 O2069 1.268 . S
H2092 C2077 0.930 . S
H2093 C2078 0.930 . S
H2094 C2080 0.930 . S
H2095 C2081 0.930 . S
H2096 C2086 0.930 1_565 S
H2097 C2087 0.930 . S
H2098 C2089 0.930 . S
H2099 C2090 0.930 . S
Gd2100 N2131 2.661 . S
Gd2100 N2137 2.601 . S
Gd2100 O2144 2.545 . S
Gd2100 O2145 2.606 . S
Gd2100 O2147 2.429 . S
Gd2100 O2148 2.545 . S
Gd2100 O2149 2.412 . S
Gd2100 O2151 2.362 . S
Gd2100 O2152 2.324 . S
Gd2100 C2159 2.828 . S
Gd2101 N2110 2.661 . S
Gd2101 N2114 2.601 . S
Gd2101 O2145 2.362 . S
Gd2101 O2146 2.324 . S
Gd2101 O2150 2.545 . S
Gd2101 O2151 2.606 . S
Gd2101 O2153 2.429 . S
Gd2101 O2154 2.545 . S
Gd2101 O2155 2.412 . S
Gd2101 C2168 2.828 . S
C2102 C2105 1.417 1_565 S
C2102 C2107 1.431 . S
C2102 C2108 1.412 . S
C2103 C2106 1.437 1_565 S
C2103 C2107 1.317 . S
C2103 H2122 0.929 . S
C2104 C2105 1.426 . S
C2104 C2106 1.413 . S
C2104 N2114 1.359 . S
C2105 C2102 1.417 1_545 S
C2105 C2104 1.426 . S
C2105 N2110 1.350 . S
C2106 C2103 1.437 1_545 S
C2106 C2104 1.413 . S
C2106 C2116 1.391 . S
C2107 C2102 1.431 . S
C2107 C2103 1.317 . S
C2107 H2118 0.930 . S
C2108 C2102 1.412 . S
C2108 C2109 1.355 1_565 S
C2108 H2120 0.930 . S
C2109 C2108 1.355 1_545 S
C2109 C2111 1.402 . S
C2109 H2121 0.930 . S
N2110 Gd2101 2.661 . S
N2110 C2105 1.350 . S
N2110 C2111 1.307 . S
C2111 C2109 1.402 . S
C2111 N2110 1.307 . S
C2111 H2112 0.930 . S
H2112 C2111 0.930 . S
C2113 N2114 1.334 . S
C2113 C2115 1.394 . S
C2113 H2117 0.930 . S
N2114 Gd2101 2.601 . S
N2114 C2104 1.359 . S
N2114 C2113 1.334 . S
C2115 C2113 1.394 . S
C2115 C2116 1.359 . S
C2115 H2127 0.930 . S
C2116 C2106 1.391 . S
C2116 C2115 1.359 . S
C2116 H2128 0.929 . S
H2117 C2113 0.930 . S
H2118 C2107 0.930 . S
H2119 C2136 0.930 . S
H2120 C2108 0.930 . S
H2121 C2109 0.930 . S
H2122 C2103 0.929 . S
H2123 C2141 0.930 . S
H2124 C2132 0.930 . S
H2125 C2133 0.930 . S
H2126 C2157 0.929 . S
H2127 C2115 0.930 . S
H2128 C2116 0.929 . S
H2129 C2158 0.930 . S
H2130 C2139 0.930 . S
N2131 Gd2100 2.661 . S
N2131 C2135 1.350 . S
N2131 C2136 1.307 . S
C2132 H2124 0.930 . S
C2132 C2133 1.355 . S
C2132 C2134 1.412 . S
C2133 H2125 0.930 . S
C2133 C2132 1.355 . S
C2133 C2136 1.402 . S
C2134 C2132 1.412 . S
C2134 C2135 1.417 . S
C2134 C2158 1.431 . S
C2135 N2131 1.350 . S
C2135 C2134 1.417 . S
C2135 C2138 1.426 . S
C2136 H2119 0.930 . S
C2136 N2131 1.307 . S
C2136 C2133 1.402 . S
N2137 Gd2100 2.601 . S
N2137 C2138 1.359 . S
N2137 C2141 1.334 . S
C2138 C2135 1.426 . S
C2138 N2137 1.359 . S
C2138 C2142 1.413 . S
C2139 H2130 0.930 . S
C2139 C2140 1.359 . S
C2139 C2141 1.394 . S
C2140 C2139 1.359 . S
C2140 C2142 1.391 . S
C2140 H2143 0.929 . S
C2141 H2123 0.930 . S
C2141 N2137 1.334 . S
C2141 C2139 1.394 . S
C2142 C2138 1.413 . S
C2142 C2140 1.391 . S
C2142 C2157 1.437 . S
H2143 C2140 0.929 . S
O2144 Gd2100 2.545 . S
O2144 C2159 1.258 . S
O2145 Gd2100 2.606 . S
O2145 Gd2101 2.362 . S
O2145 C2156 1.284 . S
O2146 Gd2101 2.324 . S
O2146 C2166 1.254 . S
O2147 Gd2100 2.429 . S
O2147 C2166 1.268 . S
O2148 Gd2100 2.545 . S
O2148 C2156 1.250 . S
O2149 Gd2100 2.412 . S
O2149 C2159 1.252 . S
O2150 Gd2101 2.545 . S
O2150 C2168 1.258 . S
O2151 Gd2100 2.362 . S
O2151 Gd2101 2.606 . S
O2151 C2167 1.284 . S
O2152 Gd2100 2.324 . S
O2152 C2175 1.254 . S
O2153 Gd2101 2.429 . S
O2153 C2175 1.268 . S
O2154 Gd2101 2.545 . S
O2154 C2167 1.250 . S
O2155 Gd2101 2.412 . S
O2155 C2168 1.252 . S
C2156 O2145 1.284 . S
C2156 O2148 1.250 . S
C2157 H2126 0.929 . S
C2157 C2142 1.437 . S
C2157 C2158 1.317 . S
C2158 H2129 0.930 . S
C2158 C2134 1.431 . S
C2158 C2157 1.317 . S
C2159 Gd2100 2.828 . S
C2159 O2144 1.258 . S
C2159 O2149 1.252 . S
C2159 C2160 1.497 . S
C2160 C2159 1.497 . S
C2160 C2161 1.395 . S
C2160 C2162 1.380 . S
C2161 C2160 1.395 . S
C2161 C2164 1.398 . S
C2161 H2176 0.930 . S
C2162 C2160 1.380 . S
C2162 C2163 1.391 . S
C2162 H2177 0.930 . S
C2163 C2162 1.391 . S
C2163 C2165 1.387 . S
C2164 C2161 1.398 . S
C2164 C2165 1.380 . S
C2164 H2178 0.930 . S
C2165 C2163 1.387 . S
C2165 C2164 1.380 . S
C2165 H2179 0.930 . S
C2166 O2146 1.254 . S
C2166 O2147 1.268 . S
C2167 O2151 1.284 . S
C2167 O2154 1.250 . S
C2168 Gd2101 2.828 . S
C2168 O2150 1.258 . S
C2168 O2155 1.252 . S
C2168 C2169 1.497 1_545 S
C2169 C2168 1.497 1_565 S
C2169 C2170 1.395 . S
C2169 C2171 1.380 . S
C2170 C2169 1.395 . S
C2170 C2173 1.398 . S
C2170 H2180 0.930 . S
C2171 C2169 1.380 . S
C2171 C2172 1.391 . S
C2171 H2181 0.930 . S
C2172 C2171 1.391 . S
C2172 C2174 1.387 . S
C2173 C2170 1.398 . S
C2173 C2174 1.380 . S
C2173 H2182 0.930 . S
C2174 C2172 1.387 . S
C2174 C2173 1.380 . S
C2174 H2183 0.930 1_455 S
C2175 O2152 1.254 . S
C2175 O2153 1.268 . S
H2176 C2161 0.930 . S
H2177 C2162 0.930 . S
H2178 C2164 0.930 . S
H2179 C2165 0.930 . S
H2180 C2170 0.930 . S
H2181 C2171 0.930 . S
H2182 C2173 0.930 . S
H2183 C2174 0.930 1_655 S
Gd2184 N2215 2.661 . S
Gd2184 N2221 2.601 . S
Gd2184 O2228 2.545 . S
Gd2184 O2229 2.606 . S
Gd2184 O2231 2.429 . S
Gd2184 O2232 2.545 . S
Gd2184 O2233 2.412 . S
Gd2184 O2235 2.362 . S
Gd2184 O2236 2.324 . S
Gd2184 C2243 2.828 . S
Gd2185 N2194 2.661 . S
Gd2185 N2198 2.601 . S
Gd2185 O2229 2.362 1_455 S
Gd2185 O2230 2.324 . S
Gd2185 O2234 2.545 . S
Gd2185 O2235 2.606 1_455 S
Gd2185 O2237 2.429 1_455 S
Gd2185 O2238 2.545 . S
Gd2185 O2239 2.412 . S
Gd2185 C2252 2.828 . S
C2186 C2189 1.417 . S
C2186 C2191 1.431 . S
C2186 C2192 1.412 . S
C2187 C2190 1.437 . S
C2187 C2191 1.317 . S
C2187 H2206 0.929 . S
C2188 C2189 1.426 . S
C2188 C2190 1.413 . S
C2188 N2198 1.359 . S
C2189 C2186 1.417 . S
C2189 C2188 1.426 . S
C2189 N2194 1.350 . S
C2190 C2187 1.437 . S
C2190 C2188 1.413 . S
C2190 C2200 1.391 . S
C2191 C2186 1.431 . S
C2191 C2187 1.317 . S
C2191 H2202 0.930 . S
C2192 C2186 1.412 . S
C2192 C2193 1.355 . S
C2192 H2204 0.930 . S
C2193 C2192 1.355 . S
C2193 C2195 1.402 . S
C2193 H2205 0.930 . S
N2194 Gd2185 2.661 . S
N2194 C2189 1.350 . S
N2194 C2195 1.307 . S
C2195 C2193 1.402 . S
C2195 N2194 1.307 . S
C2195 H2196 0.930 . S
H2196 C2195 0.930 . S
C2197 N2198 1.334 . S
C2197 C2199 1.394 . S
C2197 H2201 0.930 . S
N2198 Gd2185 2.601 . S
N2198 C2188 1.359 . S
N2198 C2197 1.334 . S
C2199 C2197 1.394 . S
C2199 C2200 1.359 . S
C2199 H2211 0.930 . S
C2200 C2190 1.391 . S
C2200 C2199 1.359 . S
C2200 H2212 0.929 . S
H2201 C2197 0.930 . S
H2202 C2191 0.930 . S
H2203 C2220 0.930 . S
H2204 C2192 0.930 . S
H2205 C2193 0.930 . S
H2206 C2187 0.929 . S
H2207 C2225 0.930 . S
H2208 C2216 0.930 . S
H2209 C2217 0.930 . S
H2210 C2241 0.929 . S
H2211 C2199 0.930 . S
H2212 C2200 0.929 . S
H2213 C2242 0.930 . S
H2214 C2223 0.930 . S
N2215 Gd2184 2.661 . S
N2215 C2219 1.350 . S
N2215 C2220 1.307 . S
C2216 H2208 0.930 . S
C2216 C2217 1.355 . S
C2216 C2218 1.412 . S
C2217 H2209 0.930 . S
C2217 C2216 1.355 . S
C2217 C2220 1.402 1_565 S
C2218 C2216 1.412 . S
C2218 C2219 1.417 1_565 S
C2218 C2242 1.431 . S
C2219 N2215 1.350 . S
C2219 C2218 1.417 1_545 S
C2219 C2222 1.426 . S
C2220 H2203 0.930 . S
C2220 N2215 1.307 . S
C2220 C2217 1.402 1_545 S
N2221 Gd2184 2.601 . S
N2221 C2222 1.359 . S
N2221 C2225 1.334 . S
C2222 C2219 1.426 . S
C2222 N2221 1.359 . S
C2222 C2226 1.413 . S
C2223 H2214 0.930 . S
C2223 C2224 1.359 . S
C2223 C2225 1.394 . S
C2224 C2223 1.359 . S
C2224 C2226 1.391 . S
C2224 H2227 0.929 . S
C2225 H2207 0.930 . S
C2225 N2221 1.334 . S
C2225 C2223 1.394 . S
C2226 C2222 1.413 . S
C2226 C2224 1.391 . S
C2226 C2241 1.437 1_545 S
H2227 C2224 0.929 . S
O2228 Gd2184 2.545 . S
O2228 C2243 1.258 . S
O2229 Gd2184 2.606 . S
O2229 Gd2185 2.362 1_655 S
O2229 C2240 1.284 . S
O2230 Gd2185 2.324 . S
O2230 C2250 1.254 1_455 S
O2231 Gd2184 2.429 . S
O2231 C2250 1.268 . S
O2232 Gd2184 2.545 . S
O2232 C2240 1.250 . S
O2233 Gd2184 2.412 . S
O2233 C2243 1.252 . S
O2234 Gd2185 2.545 . S
O2234 C2252 1.258 . S
O2235 Gd2184 2.362 . S
O2235 Gd2185 2.606 1_655 S
O2235 C2251 1.284 . S
O2236 Gd2184 2.324 . S
O2236 C2259 1.254 . S
O2237 Gd2185 2.429 1_655 S
O2237 C2259 1.268 . S
O2238 Gd2185 2.545 . S
O2238 C2251 1.250 1_455 S
O2239 Gd2185 2.412 . S
O2239 C2252 1.252 . S
C2240 O2229 1.284 . S
C2240 O2232 1.250 . S
C2241 H2210 0.929 . S
C2241 C2226 1.437 1_565 S
C2241 C2242 1.317 . S
C2242 H2213 0.930 . S
C2242 C2218 1.431 . S
C2242 C2241 1.317 . S
C2243 Gd2184 2.828 . S
C2243 O2228 1.258 . S
C2243 O2233 1.252 . S
C2243 C2244 1.497 . S
C2244 C2243 1.497 . S
C2244 C2245 1.395 . S
C2244 C2246 1.380 . S
C2245 C2244 1.395 . S
C2245 C2248 1.398 . S
C2245 H2260 0.930 . S
C2246 C2244 1.380 . S
C2246 C2247 1.391 . S
C2246 H2261 0.930 . S
C2247 C2246 1.391 . S
C2247 C2249 1.387 . S
C2248 C2245 1.398 . S
C2248 C2249 1.380 . S
C2248 H2262 0.930 . S
C2249 C2247 1.387 . S
C2249 C2248 1.380 . S
C2249 H2263 0.930 . S
C2250 O2230 1.254 1_655 S
C2250 O2231 1.268 . S
C2251 O2235 1.284 . S
C2251 O2238 1.250 1_655 S
C2252 Gd2185 2.828 . S
C2252 O2234 1.258 . S
C2252 O2239 1.252 . S
C2252 C2253 1.497 . S
C2253 C2252 1.497 . S
C2253 C2254 1.395 . S
C2253 C2255 1.380 . S
C2254 C2253 1.395 . S
C2254 C2257 1.398 . S
C2254 H2264 0.930 . S
C2255 C2253 1.380 . S
C2255 C2256 1.391 . S
C2255 H2265 0.930 . S
C2256 C2255 1.391 . S
C2256 C2258 1.387 . S
C2257 C2254 1.398 . S
C2257 C2258 1.380 . S
C2257 H2266 0.930 . S
C2258 C2256 1.387 . S
C2258 C2257 1.380 . S
C2258 H2267 0.930 . S
C2259 O2236 1.254 . S
C2259 O2237 1.268 . S
H2260 C2245 0.930 . S
H2261 C2246 0.930 . S
H2262 C2248 0.930 . S
H2263 C2249 0.930 . S
H2264 C2254 0.930 . S
H2265 C2255 0.930 . S
H2266 C2257 0.930 . S
H2267 C2258 0.930 . S
Gd2268 N2299 2.661 . S
Gd2268 N2305 2.601 . S
Gd2268 O2312 2.545 . S
Gd2268 O2313 2.606 . S
Gd2268 O2315 2.429 . S
Gd2268 O2316 2.545 . S
Gd2268 O2317 2.412 . S
Gd2268 O2319 2.362 . S
Gd2268 O2320 2.324 . S
Gd2268 C2327 2.828 . S
Gd2269 N2278 2.661 . S
Gd2269 N2282 2.601 . S
Gd2269 O2313 2.362 . S
Gd2269 O2314 2.324 . S
Gd2269 O2318 2.545 . S
Gd2269 O2319 2.606 . S
Gd2269 O2321 2.429 . S
Gd2269 O2322 2.545 . S
Gd2269 O2323 2.412 . S
Gd2269 C2336 2.828 . S
C2270 C2273 1.417 1_565 S
C2270 C2275 1.431 . S
C2270 C2276 1.412 . S
C2271 C2274 1.437 . S
C2271 C2275 1.317 . S
C2271 H2290 0.929 . S
C2272 C2273 1.426 . S
C2272 C2274 1.413 1_545 S
C2272 N2282 1.359 . S
C2273 C2270 1.417 1_545 S
C2273 C2272 1.426 . S
C2273 N2278 1.350 . S
C2274 C2271 1.437 . S
C2274 C2272 1.413 1_565 S
C2274 C2284 1.391 1_565 S
C2275 C2270 1.431 . S
C2275 C2271 1.317 . S
C2275 H2286 0.930 . S
C2276 C2270 1.412 . S
C2276 C2277 1.355 . S
C2276 H2288 0.930 . S
C2277 C2276 1.355 . S
C2277 C2279 1.402 1_565 S
C2277 H2289 0.930 . S
N2278 Gd2269 2.661 . S
N2278 C2273 1.350 . S
N2278 C2279 1.307 . S
C2279 C2277 1.402 1_545 S
C2279 N2278 1.307 . S
C2279 H2280 0.930 . S
H2280 C2279 0.930 . S
C2281 N2282 1.334 . S
C2281 C2283 1.394 . S
C2281 H2285 0.930 . S
N2282 Gd2269 2.601 . S
N2282 C2272 1.359 . S
N2282 C2281 1.334 . S
C2283 C2281 1.394 . S
C2283 C2284 1.359 . S
C2283 H2295 0.930 . S
C2284 C2274 1.391 1_545 S
C2284 C2283 1.359 . S
C2284 H2296 0.929 1_545 S
H2285 C2281 0.930 . S
H2286 C2275 0.930 . S
H2287 C2304 0.930 . S
H2288 C2276 0.930 . S
H2289 C2277 0.930 . S
H2290 C2271 0.929 . S
H2291 C2309 0.930 . S
H2292 C2300 0.930 . S
H2293 C2301 0.930 . S
H2294 C2325 0.929 . S
H2295 C2283 0.930 . S
H2296 C2284 0.929 1_565 S
H2297 C2326 0.930 . S
H2298 C2307 0.930 . S
N2299 Gd2268 2.661 . S
N2299 C2303 1.350 . S
N2299 C2304 1.307 . S
C2300 H2292 0.930 . S
C2300 C2301 1.355 . S
C2300 C2302 1.412 . S
C2301 H2293 0.930 . S
C2301 C2300 1.355 . S
C2301 C2304 1.402 . S
C2302 C2300 1.412 . S
C2302 C2303 1.417 . S
C2302 C2326 1.431 . S
C2303 N2299 1.350 . S
C2303 C2302 1.417 . S
C2303 C2306 1.426 . S
C2304 H2287 0.930 . S
C2304 N2299 1.307 . S
C2304 C2301 1.402 . S
N2305 Gd2268 2.601 . S
N2305 C2306 1.359 . S
N2305 C2309 1.334 . S
C2306 C2303 1.426 . S
C2306 N2305 1.359 . S
C2306 C2310 1.413 . S
C2307 H2298 0.930 . S
C2307 C2308 1.359 . S
C2307 C2309 1.394 . S
C2308 C2307 1.359 . S
C2308 C2310 1.391 . S
C2308 H2311 0.929 . S
C2309 H2291 0.930 . S
C2309 N2305 1.334 . S
C2309 C2307 1.394 . S
C2310 C2306 1.413 . S
C2310 C2308 1.391 . S
C2310 C2325 1.437 . S
H2311 C2308 0.929 . S
O2312 Gd2268 2.545 . S
O2312 C2327 1.258 . S
O2313 Gd2268 2.606 . S
O2313 Gd2269 2.362 . S
O2313 C2324 1.284 . S
O2314 Gd2269 2.324 . S
O2314 C2334 1.254 . S
O2315 Gd2268 2.429 . S
O2315 C2334 1.268 . S
O2316 Gd2268 2.545 . S
O2316 C2324 1.250 . S
O2317 Gd2268 2.412 . S
O2317 C2327 1.252 . S
O2318 Gd2269 2.545 . S
O2318 C2336 1.258 . S
O2319 Gd2268 2.362 . S
O2319 Gd2269 2.606 . S
O2319 C2335 1.284 . S
O2320 Gd2268 2.324 . S
O2320 C2343 1.254 . S
O2321 Gd2269 2.429 . S
O2321 C2343 1.268 . S
O2322 Gd2269 2.545 . S
O2322 C2335 1.250 . S
O2323 Gd2269 2.412 . S
O2323 C2336 1.252 . S
C2324 O2313 1.284 . S
C2324 O2316 1.250 . S
C2325 H2294 0.929 . S
C2325 C2310 1.437 . S
C2325 C2326 1.317 . S
C2326 H2297 0.930 . S
C2326 C2302 1.431 . S
C2326 C2325 1.317 . S
C2327 Gd2268 2.828 . S
C2327 O2312 1.258 . S
C2327 O2317 1.252 . S
C2327 C2328 1.497 . S
C2328 C2327 1.497 . S
C2328 C2329 1.395 . S
C2328 C2330 1.380 . S
C2329 C2328 1.395 . S
C2329 C2332 1.398 . S
C2329 H2344 0.930 . S
C2330 C2328 1.380 . S
C2330 C2331 1.391 . S
C2330 H2345 0.930 . S
C2331 C2330 1.391 . S
C2331 C2333 1.387 . S
C2332 C2329 1.398 . S
C2332 C2333 1.380 . S
C2332 H2346 0.930 . S
C2333 C2331 1.387 . S
C2333 C2332 1.380 . S
C2333 H2347 0.930 . S
C2334 O2314 1.254 . S
C2334 O2315 1.268 . S
C2335 O2319 1.284 . S
C2335 O2322 1.250 . S
C2336 Gd2269 2.828 . S
C2336 O2318 1.258 . S
C2336 O2323 1.252 . S
C2336 C2337 1.497 . S
C2337 C2336 1.497 . S
C2337 C2338 1.395 . S
C2337 C2339 1.380 . S
C2338 C2337 1.395 . S
C2338 C2341 1.398 . S
C2338 H2348 0.930 . S
C2339 C2337 1.380 . S
C2339 C2340 1.391 . S
C2339 H2349 0.930 . S
C2340 C2339 1.391 . S
C2340 C2342 1.387 . S
C2341 C2338 1.398 . S
C2341 C2342 1.380 . S
C2341 H2350 0.930 . S
C2342 C2340 1.387 . S
C2342 C2341 1.380 . S
C2342 H2351 0.930 . S
C2343 O2320 1.254 . S
C2343 O2321 1.268 . S
H2344 C2329 0.930 . S
H2345 C2330 0.930 . S
H2346 C2332 0.930 . S
H2347 C2333 0.930 . S
H2348 C2338 0.930 . S
H2349 C2339 0.930 . S
H2350 C2341 0.930 . S
H2351 C2342 0.930 . S
Gd2352 N2383 2.661 . S
Gd2352 N2389 2.601 . S
Gd2352 O2396 2.545 . S
Gd2352 O2397 2.606 . S
Gd2352 O2399 2.429 . S
Gd2352 O2400 2.545 . S
Gd2352 O2401 2.412 . S
Gd2352 O2403 2.362 . S
Gd2352 O2404 2.324 . S
Gd2352 C2411 2.828 . S
Gd2353 N2362 2.661 1_655 S
Gd2353 N2366 2.601 1_655 S
Gd2353 O2397 2.362 . S
Gd2353 O2398 2.324 . S
Gd2353 O2402 2.545 . S
Gd2353 O2403 2.606 . S
Gd2353 O2405 2.429 . S
Gd2353 O2406 2.545 . S
Gd2353 O2407 2.412 . S
Gd2353 C2420 2.828 . S
C2354 C2357 1.417 . S
C2354 C2359 1.431 . S
C2354 C2360 1.412 . S
C2355 C2358 1.437 . S
C2355 C2359 1.317 . S
C2355 H2374 0.929 . S
C2356 C2357 1.426 . S
C2356 C2358 1.413 . S
C2356 N2366 1.359 . S
C2357 C2354 1.417 . S
C2357 C2356 1.426 . S
C2357 N2362 1.350 . S
C2358 C2355 1.437 . S
C2358 C2356 1.413 . S
C2358 C2368 1.391 . S
C2359 C2354 1.431 . S
C2359 C2355 1.317 . S
C2359 H2370 0.930 . S
C2360 C2354 1.412 . S
C2360 C2361 1.355 . S
C2360 H2372 0.930 . S
C2361 C2360 1.355 . S
C2361 C2363 1.402 . S
C2361 H2373 0.930 . S
N2362 Gd2353 2.661 1_455 S
N2362 C2357 1.350 . S
N2362 C2363 1.307 . S
C2363 C2361 1.402 . S
C2363 N2362 1.307 . S
C2363 H2364 0.930 . S
H2364 C2363 0.930 . S
C2365 N2366 1.334 . S
C2365 C2367 1.394 . S
C2365 H2369 0.930 1_455 S
N2366 Gd2353 2.601 1_455 S
N2366 C2356 1.359 . S
N2366 C2365 1.334 . S
C2367 C2365 1.394 . S
C2367 C2368 1.359 . S
C2367 H2379 0.930 . S
C2368 C2358 1.391 . S
C2368 C2367 1.359 . S
C2368 H2380 0.929 . S
H2369 C2365 0.930 1_655 S
H2370 C2359 0.930 . S
H2371 C2388 0.930 . S
H2372 C2360 0.930 . S
H2373 C2361 0.930 . S
H2374 C2355 0.929 . S
H2375 C2393 0.930 . S
H2376 C2384 0.930 . S
H2377 C2385 0.930 . S
H2378 C2409 0.929 . S
H2379 C2367 0.930 . S
H2380 C2368 0.929 . S
H2381 C2410 0.930 1_565 S
H2382 C2391 0.930 . S
N2383 Gd2352 2.661 . S
N2383 C2387 1.350 . S
N2383 C2388 1.307 . S
C2384 H2376 0.930 . S
C2384 C2385 1.355 . S
C2384 C2386 1.412 . S
C2385 H2377 0.930 . S
C2385 C2384 1.355 . S
C2385 C2388 1.402 . S
C2386 C2384 1.412 . S
C2386 C2387 1.417 . S
C2386 C2410 1.431 . S
C2387 N2383 1.350 . S
C2387 C2386 1.417 . S
C2387 C2390 1.426 . S
C2388 H2371 0.930 . S
C2388 N2383 1.307 . S
C2388 C2385 1.402 . S
N2389 Gd2352 2.601 . S
N2389 C2390 1.359 . S
N2389 C2393 1.334 . S
C2390 C2387 1.426 . S
C2390 N2389 1.359 . S
C2390 C2394 1.413 . S
C2391 H2382 0.930 . S
C2391 C2392 1.359 . S
C2391 C2393 1.394 . S
C2392 C2391 1.359 . S
C2392 C2394 1.391 . S
C2392 H2395 0.929 . S
C2393 H2375 0.930 . S
C2393 N2389 1.334 . S
C2393 C2391 1.394 . S
C2394 C2390 1.413 . S
C2394 C2392 1.391 . S
C2394 C2409 1.437 . S
H2395 C2392 0.929 . S
O2396 Gd2352 2.545 . S
O2396 C2411 1.258 . S
O2397 Gd2352 2.606 . S
O2397 Gd2353 2.362 . S
O2397 C2408 1.284 1_655 S
O2398 Gd2353 2.324 . S
O2398 C2418 1.254 . S
O2399 Gd2352 2.429 . S
O2399 C2418 1.268 . S
O2400 Gd2352 2.545 . S
O2400 C2408 1.250 1_655 S
O2401 Gd2352 2.412 . S
O2401 C2411 1.252 . S
O2402 Gd2353 2.545 . S
O2402 C2420 1.258 . S
O2403 Gd2352 2.362 . S
O2403 Gd2353 2.606 . S
O2403 C2419 1.284 . S
O2404 Gd2352 2.324 . S
O2404 C2427 1.254 . S
O2405 Gd2353 2.429 . S
O2405 C2427 1.268 . S
O2406 Gd2353 2.545 . S
O2406 C2419 1.250 . S
O2407 Gd2353 2.412 . S
O2407 C2420 1.252 . S
C2408 O2397 1.284 1_455 S
C2408 O2400 1.250 1_455 S
C2409 H2378 0.929 . S
C2409 C2394 1.437 . S
C2409 C2410 1.317 . S
C2410 H2381 0.930 1_545 S
C2410 C2386 1.431 . S
C2410 C2409 1.317 . S
C2411 Gd2352 2.828 . S
C2411 O2396 1.258 . S
C2411 O2401 1.252 . S
C2411 C2412 1.497 1_545 S
C2412 C2411 1.497 1_565 S
C2412 C2413 1.395 . S
C2412 C2414 1.380 . S
C2413 C2412 1.395 . S
C2413 C2416 1.398 . S
C2413 H2428 0.930 . S
C2414 C2412 1.380 . S
C2414 C2415 1.391 . S
C2414 H2429 0.930 . S
C2415 C2414 1.391 . S
C2415 C2417 1.387 . S
C2416 C2413 1.398 . S
C2416 C2417 1.380 . S
C2416 H2430 0.930 . S
C2417 C2415 1.387 . S
C2417 C2416 1.380 . S
C2417 H2431 0.930 . S
C2418 O2398 1.254 . S
C2418 O2399 1.268 . S
C2419 O2403 1.284 . S
C2419 O2406 1.250 . S
C2420 Gd2353 2.828 . S
C2420 O2402 1.258 . S
C2420 O2407 1.252 . S
C2420 C2421 1.497 . S
C2421 C2420 1.497 . S
C2421 C2422 1.395 . S
C2421 C2423 1.380 . S
C2422 C2421 1.395 . S
C2422 C2425 1.398 . S
C2422 H2432 0.930 . S
C2423 C2421 1.380 . S
C2423 C2424 1.391 . S
C2423 H2433 0.930 . S
C2424 C2423 1.391 . S
C2424 C2426 1.387 . S
C2425 C2422 1.398 . S
C2425 C2426 1.380 . S
C2425 H2434 0.930 . S
C2426 C2424 1.387 . S
C2426 C2425 1.380 . S
C2426 H2435 0.930 . S
C2427 O2404 1.254 . S
C2427 O2405 1.268 . S
H2428 C2413 0.930 . S
H2429 C2414 0.930 . S
H2430 C2416 0.930 . S
H2431 C2417 0.930 . S
H2432 C2422 0.930 . S
H2433 C2423 0.930 . S
H2434 C2425 0.930 . S
H2435 C2426 0.930 . S
Gd2436 N2467 2.661 1_655 S
Gd2436 N2473 2.601 1_655 S
Gd2436 O2480 2.545 1_655 S
Gd2436 O2481 2.606 . S
Gd2436 O2483 2.429 . S
Gd2436 O2484 2.545 . S
Gd2436 O2485 2.412 1_655 S
Gd2436 O2487 2.362 . S
Gd2436 O2488 2.324 . S
Gd2436 C2495 2.828 1_655 S
Gd2437 N2446 2.661 . S
Gd2437 N2450 2.601 . S
Gd2437 O2481 2.362 . S
Gd2437 O2482 2.324 . S
Gd2437 O2486 2.545 . S
Gd2437 O2487 2.606 . S
Gd2437 O2489 2.429 . S
Gd2437 O2490 2.545 . S
Gd2437 O2491 2.412 . S
Gd2437 C2504 2.828 . S
C2438 C2441 1.417 . S
C2438 C2443 1.431 . S
C2438 C2444 1.412 . S
C2439 C2442 1.437 . S
C2439 C2443 1.317 . S
C2439 H2458 0.929 . S
C2440 C2441 1.426 . S
C2440 C2442 1.413 . S
C2440 N2450 1.359 . S
C2441 C2438 1.417 . S
C2441 C2440 1.426 . S
C2441 N2446 1.350 . S
C2442 C2439 1.437 . S
C2442 C2440 1.413 . S
C2442 C2452 1.391 . S
C2443 C2438 1.431 . S
C2443 C2439 1.317 . S
C2443 H2454 0.930 . S
C2444 C2438 1.412 . S
C2444 C2445 1.355 . S
C2444 H2456 0.930 . S
C2445 C2444 1.355 . S
C2445 C2447 1.402 . S
C2445 H2457 0.930 . S
N2446 Gd2437 2.661 . S
N2446 C2441 1.350 . S
N2446 C2447 1.307 . S
C2447 C2445 1.402 . S
C2447 N2446 1.307 . S
C2447 H2448 0.930 . S
H2448 C2447 0.930 . S
C2449 N2450 1.334 . S
C2449 C2451 1.394 . S
C2449 H2453 0.930 . S
N2450 Gd2437 2.601 . S
N2450 C2440 1.359 . S
N2450 C2449 1.334 . S
C2451 C2449 1.394 . S
C2451 C2452 1.359 . S
C2451 H2463 0.930 . S
C2452 C2442 1.391 . S
C2452 C2451 1.359 . S
C2452 H2464 0.929 . S
H2453 C2449 0.930 . S
H2454 C2443 0.930 . S
H2455 C2472 0.930 . S
H2456 C2444 0.930 . S
H2457 C2445 0.930 . S
H2458 C2439 0.929 . S
H2459 C2477 0.915 1_655 S
H2460 C2468 0.930 . S
H2461 C2469 0.930 . S
H2462 C2493 0.929 . S
H2463 C2451 0.930 . S
H2464 C2452 0.929 . S
H2465 C2494 0.930 . S
H2466 C2475 0.930 . S
N2467 Gd2436 2.661 1_455 S
N2467 C2471 1.350 . S
N2467 C2472 1.307 . S
C2468 H2460 0.930 . S
C2468 C2469 1.355 . S
C2468 C2470 1.412 . S
C2469 H2461 0.930 . S
C2469 C2468 1.355 . S
C2469 C2472 1.402 . S
C2470 C2468 1.412 . S
C2470 C2471 1.417 . S
C2470 C2494 1.431 . S
C2471 N2467 1.350 . S
C2471 C2470 1.417 . S
C2471 C2474 1.426 . S
C2472 H2455 0.930 . S
C2472 N2467 1.307 . S
C2472 C2469 1.402 . S
N2473 Gd2436 2.601 1_455 S
N2473 C2474 1.359 . S
N2473 C2477 1.339 . S
C2474 C2471 1.426 . S
C2474 N2473 1.359 . S
C2474 C2478 1.413 . S
C2475 H2466 0.930 . S
C2475 C2476 1.359 . S
C2475 C2477 1.404 . S
C2476 C2475 1.359 . S
C2476 C2478 1.391 . S
C2476 H2479 0.929 . S
C2477 H2459 0.915 1_455 S
C2477 N2473 1.339 . S
C2477 C2475 1.404 . S
C2478 C2474 1.413 . S
C2478 C2476 1.391 . S
C2478 C2493 1.437 . S
H2479 C2476 0.929 . S
O2480 Gd2436 2.545 1_455 S
O2480 C2495 1.258 . S
O2481 Gd2436 2.606 . S
O2481 Gd2437 2.362 . S
O2481 C2492 1.284 . S
O2482 Gd2437 2.324 . S
O2482 C2502 1.254 . S
O2483 Gd2436 2.429 . S
O2483 C2502 1.268 . S
O2484 Gd2436 2.545 . S
O2484 C2492 1.250 . S
O2485 Gd2436 2.412 1_455 S
O2485 C2495 1.252 . S
O2486 Gd2437 2.545 . S
O2486 C2504 1.258 . S
O2487 Gd2436 2.362 . S
O2487 Gd2437 2.606 . S
O2487 C2503 1.284 . S
O2488 Gd2436 2.324 . S
O2488 C2511 1.254 . S
O2489 Gd2437 2.429 . S
O2489 C2511 1.268 . S
O2490 Gd2437 2.545 . S
O2490 C2503 1.250 . S
O2491 Gd2437 2.412 . S
O2491 C2504 1.252 . S
C2492 O2481 1.284 . S
C2492 O2484 1.250 . S
C2493 H2462 0.929 . S
C2493 C2478 1.437 . S
C2493 C2494 1.317 . S
C2494 H2465 0.930 . S
C2494 C2470 1.431 . S
C2494 C2493 1.317 . S
C2495 Gd2436 2.828 1_455 S
C2495 O2480 1.258 . S
C2495 O2485 1.252 . S
C2495 C2496 1.497 . S
C2496 C2495 1.497 . S
C2496 C2497 1.395 . S
C2496 C2498 1.389 . S
C2497 C2496 1.395 . S
C2497 C2500 1.398 1_565 S
C2497 H2512 0.930 . S
C2498 C2496 1.389 . S
C2498 C2499 1.380 1_565 S
C2498 H2513 0.932 . S
C2499 C2498 1.380 1_545 S
C2499 C2501 1.387 . S
C2500 C2497 1.398 1_545 S
C2500 C2501 1.380 . S
C2500 H2514 0.930 . S
C2501 C2499 1.387 . S
C2501 C2500 1.380 . S
C2501 H2515 0.930 . S
C2502 O2482 1.254 . S
C2502 O2483 1.268 . S
C2503 O2487 1.284 . S
C2503 O2490 1.250 . S
C2504 Gd2437 2.828 . S
C2504 O2486 1.258 . S
C2504 O2491 1.252 . S
C2504 C2505 1.497 . S
C2505 C2504 1.497 . S
C2505 C2506 1.395 . S
C2505 C2507 1.380 . S
C2506 C2505 1.395 . S
C2506 C2509 1.398 . S
C2506 H2516 0.930 . S
C2507 C2505 1.380 . S
C2507 C2508 1.391 . S
C2507 H2517 0.930 . S
C2508 C2507 1.391 . S
C2508 C2510 1.387 . S
C2509 C2506 1.398 . S
C2509 C2510 1.380 . S
C2509 H2518 0.930 . S
C2510 C2508 1.387 . S
C2510 C2509 1.380 . S
C2510 H2519 0.930 . S
C2511 O2488 1.254 . S
C2511 O2489 1.268 . S
H2512 C2497 0.930 . S
H2513 C2498 0.932 . S
H2514 C2500 0.930 . S
H2515 C2501 0.930 . S
H2516 C2506 0.930 . S
H2517 C2507 0.930 . S
H2518 C2509 0.930 . S
H2519 C2510 0.930 . S
Gd2520 N2551 2.661 1_655 S
Gd2520 N2557 2.601 1_655 S
Gd2520 O2564 2.545 . S
Gd2520 O2565 2.606 . S
Gd2520 O2567 2.429 . S
Gd2520 O2568 2.545 . S
Gd2520 O2569 2.412 . S
Gd2520 O2571 2.362 . S
Gd2520 O2572 2.324 . S
Gd2520 C2579 2.828 . S
Gd2521 N2530 2.661 . S
Gd2521 N2534 2.601 . S
Gd2521 O2565 2.362 . S
Gd2521 O2566 2.324 . S
Gd2521 O2570 2.545 . S
Gd2521 O2571 2.606 . S
Gd2521 O2573 2.429 . S
Gd2521 O2574 2.545 . S
Gd2521 O2575 2.412 . S
Gd2521 C2588 2.828 . S
C2522 C2525 1.417 . S
C2522 C2527 1.431 . S
C2522 C2528 1.412 . S
C2523 C2526 1.437 . S
C2523 C2527 1.317 . S
C2523 H2542 0.929 . S
C2524 C2525 1.426 . S
C2524 C2526 1.413 . S
C2524 N2534 1.359 . S
C2525 C2522 1.417 . S
C2525 C2524 1.426 . S
C2525 N2530 1.350 . S
C2526 C2523 1.437 . S
C2526 C2524 1.413 . S
C2526 C2536 1.391 . S
C2527 C2522 1.431 . S
C2527 C2523 1.317 . S
C2527 H2538 0.930 . S
C2528 C2522 1.412 . S
C2528 C2529 1.355 . S
C2528 H2540 0.930 . S
C2529 C2528 1.355 . S
C2529 C2531 1.402 . S
C2529 H2541 0.930 . S
N2530 Gd2521 2.661 . S
N2530 C2525 1.350 . S
N2530 C2531 1.307 . S
C2531 C2529 1.402 . S
C2531 N2530 1.307 . S
C2531 H2532 0.930 . S
H2532 C2531 0.930 . S
C2533 N2534 1.334 . S
C2533 C2535 1.394 . S
C2533 H2537 0.930 . S
N2534 Gd2521 2.601 . S
N2534 C2524 1.359 . S
N2534 C2533 1.334 . S
C2535 C2533 1.394 . S
C2535 C2536 1.359 . S
C2535 H2547 0.930 . S
C2536 C2526 1.391 . S
C2536 C2535 1.359 . S
C2536 H2548 0.929 . S
H2537 C2533 0.930 . S
H2538 C2527 0.930 . S
H2539 C2556 0.930 . S
H2540 C2528 0.930 . S
H2541 C2529 0.930 . S
H2542 C2523 0.929 . S
H2543 C2561 0.930 1_655 S
H2544 C2552 0.930 . S
H2545 C2553 0.930 . S
H2546 C2577 0.929 . S
H2547 C2535 0.930 . S
H2548 C2536 0.929 . S
H2549 C2578 0.930 . S
H2550 C2559 0.930 . S
N2551 Gd2520 2.661 1_455 S
N2551 C2555 1.350 . S
N2551 C2556 1.307 . S
C2552 H2544 0.930 . S
C2552 C2553 1.355 . S
C2552 C2554 1.412 . S
C2553 H2545 0.930 . S
C2553 C2552 1.355 . S
C2553 C2556 1.402 . S
C2554 C2552 1.412 . S
C2554 C2555 1.417 . S
C2554 C2578 1.431 . S
C2555 N2551 1.350 . S
C2555 C2554 1.417 . S
C2555 C2558 1.426 . S
C2556 H2539 0.930 . S
C2556 N2551 1.307 . S
C2556 C2553 1.402 . S
N2557 Gd2520 2.601 1_455 S
N2557 C2558 1.359 . S
N2557 C2561 1.334 . S
C2558 C2555 1.426 . S
C2558 N2557 1.359 . S
C2558 C2562 1.413 . S
C2559 H2550 0.930 . S
C2559 C2560 1.359 . S
C2559 C2561 1.394 . S
C2560 C2559 1.359 . S
C2560 C2562 1.391 . S
C2560 H2563 0.929 . S
C2561 H2543 0.930 1_455 S
C2561 N2557 1.334 . S
C2561 C2559 1.394 . S
C2562 C2558 1.413 . S
C2562 C2560 1.391 . S
C2562 C2577 1.437 . S
H2563 C2560 0.929 . S
O2564 Gd2520 2.545 . S
O2564 C2579 1.258 . S
O2565 Gd2520 2.606 . S
O2565 Gd2521 2.362 . S
O2565 C2576 1.284 . S
O2566 Gd2521 2.324 . S
O2566 C2586 1.254 . S
O2567 Gd2520 2.429 . S
O2567 C2586 1.268 . S
O2568 Gd2520 2.545 . S
O2568 C2576 1.250 . S
O2569 Gd2520 2.412 . S
O2569 C2579 1.252 . S
O2570 Gd2521 2.545 . S
O2570 C2588 1.258 . S
O2571 Gd2520 2.362 . S
O2571 Gd2521 2.606 . S
O2571 C2587 1.284 1_655 S
O2572 Gd2520 2.324 . S
O2572 C2595 1.254 . S
O2573 Gd2521 2.429 . S
O2573 C2595 1.268 . S
O2574 Gd2521 2.545 . S
O2574 C2587 1.250 1_655 S
O2575 Gd2521 2.412 . S
O2575 C2588 1.252 . S
C2576 O2565 1.284 . S
C2576 O2568 1.250 . S
C2577 H2546 0.929 . S
C2577 C2562 1.437 . S
C2577 C2578 1.317 . S
C2578 H2549 0.930 . S
C2578 C2554 1.431 . S
C2578 C2577 1.317 . S
C2579 Gd2520 2.828 . S
C2579 O2564 1.258 . S
C2579 O2569 1.252 . S
C2579 C2580 1.497 . S
C2580 C2579 1.497 . S
C2580 C2581 1.395 . S
C2580 C2582 1.380 . S
C2581 C2580 1.395 . S
C2581 C2584 1.398 . S
C2581 H2596 0.930 . S
C2582 C2580 1.380 . S
C2582 C2583 1.391 . S
C2582 H2597 0.930 . S
C2583 C2582 1.391 . S
C2583 C2585 1.387 . S
C2584 C2581 1.398 . S
C2584 C2585 1.380 . S
C2584 H2598 0.930 . S
C2585 C2583 1.387 . S
C2585 C2584 1.380 . S
C2585 H2599 0.930 . S
C2586 O2566 1.254 . S
C2586 O2567 1.268 . S
C2587 O2571 1.284 1_455 S
C2587 O2574 1.250 1_455 S
C2588 Gd2521 2.828 . S
C2588 O2570 1.258 . S
C2588 O2575 1.252 . S
C2588 C2589 1.497 . S
C2589 C2588 1.497 . S
C2589 C2590 1.395 . S
C2589 C2591 1.380 . S
C2590 C2589 1.395 . S
C2590 C2593 1.398 1_565 S
C2590 H2600 0.930 . S
C2591 C2589 1.380 . S
C2591 C2592 1.391 1_565 S
C2591 H2601 0.930 . S
C2592 C2591 1.391 1_545 S
C2592 C2594 1.387 . S
C2593 C2590 1.398 1_545 S
C2593 C2594 1.380 . S
C2593 H2602 0.930 . S
C2594 C2592 1.387 . S
C2594 C2593 1.380 . S
C2594 H2603 0.930 . S
C2595 O2572 1.254 . S
C2595 O2573 1.268 . S
H2596 C2581 0.930 . S
H2597 C2582 0.930 . S
H2598 C2584 0.930 . S
H2599 C2585 0.930 . S
H2600 C2590 0.930 . S
H2601 C2591 0.930 . S
H2602 C2593 0.930 . S
H2603 C2594 0.930 . S
Gd2604 N2635 2.661 . S
Gd2604 N2641 2.601 . S
Gd2604 O2648 2.545 . S
Gd2604 O2649 2.606 . S
Gd2604 O2651 2.429 . S
Gd2604 O2652 2.545 . S
Gd2604 O2653 2.412 . S
Gd2604 O2655 2.362 . S
Gd2604 O2656 2.324 . S
Gd2604 C2663 2.828 . S
Gd2605 N2614 2.661 . S
Gd2605 N2618 2.601 . S
Gd2605 O2649 2.362 . S
Gd2605 O2650 2.324 . S
Gd2605 O2654 2.545 . S
Gd2605 O2655 2.606 . S
Gd2605 O2657 2.429 . S
Gd2605 O2658 2.545 . S
Gd2605 O2659 2.412 . S
Gd2605 C2672 2.828 . S
C2606 C2609 1.417 . S
C2606 C2611 1.431 . S
C2606 C2612 1.412 . S
C2607 C2610 1.437 . S
C2607 C2611 1.317 . S
C2607 H2626 0.929 . S
C2608 C2609 1.426 . S
C2608 C2610 1.413 . S
C2608 N2618 1.359 . S
C2609 C2606 1.417 . S
C2609 C2608 1.426 . S
C2609 N2614 1.350 . S
C2610 C2607 1.437 . S
C2610 C2608 1.413 . S
C2610 C2620 1.391 . S
C2611 C2606 1.431 . S
C2611 C2607 1.317 . S
C2611 H2622 0.930 1_545 S
C2612 C2606 1.412 . S
C2612 C2613 1.355 . S
C2612 H2624 0.930 . S
C2613 C2612 1.355 . S
C2613 C2615 1.402 . S
C2613 H2625 0.930 . S
N2614 Gd2605 2.661 . S
N2614 C2609 1.350 . S
N2614 C2615 1.307 . S
C2615 C2613 1.402 . S
C2615 N2614 1.307 . S
C2615 H2616 0.930 . S
H2616 C2615 0.930 . S
C2617 N2618 1.334 . S
C2617 C2619 1.394 . S
C2617 H2621 0.930 . S
N2618 Gd2605 2.601 . S
N2618 C2608 1.359 . S
N2618 C2617 1.334 . S
C2619 C2617 1.394 . S
C2619 C2620 1.359 . S
C2619 H2631 0.930 . S
C2620 C2610 1.391 . S
C2620 C2619 1.359 . S
C2620 H2632 0.929 . S
H2621 C2617 0.930 . S
H2622 C2611 0.930 1_565 S
H2623 C2640 0.930 . S
H2624 C2612 0.930 . S
H2625 C2613 0.930 . S
H2626 C2607 0.929 . S
H2627 C2645 0.930 . S
H2628 C2636 0.930 . S
H2629 C2637 0.930 . S
H2630 C2661 0.929 . S
H2631 C2619 0.930 . S
H2632 C2620 0.929 . S
H2633 C2662 0.930 . S
H2634 C2643 0.930 . S
N2635 Gd2604 2.661 . S
N2635 C2639 1.350 . S
N2635 C2640 1.307 . S
C2636 H2628 0.930 . S
C2636 C2637 1.355 . S
C2636 C2638 1.412 . S
C2637 H2629 0.930 . S
C2637 C2636 1.355 . S
C2637 C2640 1.402 . S
C2638 C2636 1.412 . S
C2638 C2639 1.417 . S
C2638 C2662 1.431 . S
C2639 N2635 1.350 . S
C2639 C2638 1.417 . S
C2639 C2642 1.426 . S
C2640 H2623 0.930 . S
C2640 N2635 1.307 . S
C2640 C2637 1.402 . S
N2641 Gd2604 2.601 . S
N2641 C2642 1.359 . S
N2641 C2645 1.334 . S
C2642 C2639 1.426 . S
C2642 N2641 1.359 . S
C2642 C2646 1.413 . S
C2643 H2634 0.930 . S
C2643 C2644 1.359 . S
C2643 C2645 1.394 . S
C2644 C2643 1.359 . S
C2644 C2646 1.391 . S
C2644 H2647 0.929 . S
C2645 H2627 0.930 . S
C2645 N2641 1.334 . S
C2645 C2643 1.394 . S
C2646 C2642 1.413 . S
C2646 C2644 1.391 . S
C2646 C2661 1.437 . S
H2647 C2644 0.929 . S
O2648 Gd2604 2.545 . S
O2648 C2663 1.258 . S
O2649 Gd2604 2.606 . S
O2649 Gd2605 2.362 . S
O2649 C2660 1.284 . S
O2650 Gd2605 2.324 . S
O2650 C2670 1.254 . S
O2651 Gd2604 2.429 . S
O2651 C2670 1.268 . S
O2652 Gd2604 2.545 . S
O2652 C2660 1.250 . S
O2653 Gd2604 2.412 . S
O2653 C2663 1.252 . S
O2654 Gd2605 2.545 . S
O2654 C2672 1.258 . S
O2655 Gd2604 2.362 . S
O2655 Gd2605 2.606 . S
O2655 C2671 1.284 . S
O2656 Gd2604 2.324 . S
O2656 C2679 1.254 . S
O2657 Gd2605 2.429 . S
O2657 C2679 1.268 . S
O2658 Gd2605 2.545 . S
O2658 C2671 1.250 . S
O2659 Gd2605 2.412 . S
O2659 C2672 1.252 . S
C2660 O2649 1.284 . S
C2660 O2652 1.250 . S
C2661 H2630 0.929 . S
C2661 C2646 1.437 . S
C2661 C2662 1.317 . S
C2662 H2633 0.930 . S
C2662 C2638 1.431 . S
C2662 C2661 1.317 . S
C2663 Gd2604 2.828 . S
C2663 O2648 1.258 . S
C2663 O2653 1.252 . S
C2663 C2664 1.497 . S
C2664 C2663 1.497 . S
C2664 C2665 1.395 . S
C2664 C2666 1.380 . S
C2665 C2664 1.395 . S
C2665 C2668 1.398 . S
C2665 H2680 0.930 . S
C2666 C2664 1.380 . S
C2666 C2667 1.391 . S
C2666 H2681 0.930 . S
C2667 C2666 1.391 . S
C2667 C2669 1.387 . S
C2668 C2665 1.398 . S
C2668 C2669 1.380 . S
C2668 H2682 0.930 . S
C2669 C2667 1.387 . S
C2669 C2668 1.380 . S
C2669 H2683 0.930 . S
C2670 O2650 1.254 . S
C2670 O2651 1.268 . S
C2671 O2655 1.284 . S
C2671 O2658 1.250 . S
C2672 Gd2605 2.828 . S
C2672 O2654 1.258 . S
C2672 O2659 1.252 . S
C2672 C2673 1.497 1_545 S
C2673 C2672 1.497 1_565 S
C2673 C2674 1.395 . S
C2673 C2675 1.380 . S
C2674 C2673 1.395 . S
C2674 C2677 1.398 . S
C2674 H2684 0.930 . S
C2675 C2673 1.380 . S
C2675 C2676 1.391 . S
C2675 H2685 0.930 . S
C2676 C2675 1.391 . S
C2676 C2678 1.387 . S
C2677 C2674 1.398 . S
C2677 C2678 1.380 . S
C2677 H2686 0.930 . S
C2678 C2676 1.387 . S
C2678 C2677 1.380 . S
C2678 H2687 0.930 . S
C2679 O2656 1.254 . S
C2679 O2657 1.268 . S
H2680 C2665 0.930 . S
H2681 C2666 0.930 . S
H2682 C2668 0.930 . S
H2683 C2669 0.930 . S
H2684 C2674 0.930 . S
H2685 C2675 0.930 . S
H2686 C2677 0.930 . S
H2687 C2678 0.930 . S
Gd2688 N2719 2.661 . S
Gd2688 N2725 2.601 . S
Gd2688 O2732 2.545 . S
Gd2688 O2733 2.606 . S
Gd2688 O2735 2.429 . S
Gd2688 O2736 2.545 . S
Gd2688 O2737 2.412 . S
Gd2688 O2739 2.362 . S
Gd2688 O2740 2.324 . S
Gd2688 C2747 2.828 . S
Gd2689 N2698 2.661 1_655 S
Gd2689 N2702 2.601 1_655 S
Gd2689 O2733 2.362 . S
Gd2689 O2734 2.324 . S
Gd2689 O2738 2.545 1_655 S
Gd2689 O2739 2.606 . S
Gd2689 O2741 2.429 . S
Gd2689 O2742 2.545 . S
Gd2689 O2743 2.412 1_655 S
Gd2689 C2756 2.828 1_655 S
C2690 C2693 1.417 . S
C2690 C2695 1.431 . S
C2690 C2696 1.412 . S
C2691 C2694 1.437 . S
C2691 C2695 1.317 . S
C2691 H2710 0.929 . S
C2692 C2693 1.426 . S
C2692 C2694 1.413 . S
C2692 N2702 1.359 . S
C2693 C2690 1.417 . S
C2693 C2692 1.426 . S
C2693 N2698 1.350 . S
C2694 C2691 1.437 . S
C2694 C2692 1.413 . S
C2694 C2704 1.391 . S
C2695 C2690 1.431 . S
C2695 C2691 1.317 . S
C2695 H2706 0.930 . S
C2696 C2690 1.412 . S
C2696 C2697 1.355 . S
C2696 H2708 0.930 . S
C2697 C2696 1.355 . S
C2697 C2699 1.402 . S
C2697 H2709 0.930 . S
N2698 Gd2689 2.661 1_455 S
N2698 C2693 1.350 . S
N2698 C2699 1.307 . S
C2699 C2697 1.402 . S
C2699 N2698 1.307 . S
C2699 H2700 0.930 . S
H2700 C2699 0.930 . S
C2701 N2702 1.334 . S
C2701 C2703 1.397 . S
C2701 H2705 0.928 1_455 S
N2702 Gd2689 2.601 1_455 S
N2702 C2692 1.359 . S
N2702 C2701 1.334 . S
C2703 C2701 1.397 . S
C2703 C2704 1.359 . S
C2703 H2715 0.930 . S
C2704 C2694 1.391 . S
C2704 C2703 1.359 . S
C2704 H2716 0.929 . S
H2705 C2701 0.928 1_655 S
H2706 C2695 0.930 . S
H2707 C2724 0.930 . S
H2708 C2696 0.930 . S
H2709 C2697 0.930 . S
H2710 C2691 0.929 . S
H2711 C2729 0.930 . S
H2712 C2720 0.930 . S
H2713 C2721 0.930 . S
H2714 C2745 0.929 . S
H2715 C2703 0.930 . S
H2716 C2704 0.929 . S
H2717 C2746 0.930 . S
H2718 C2727 0.930 . S
N2719 Gd2688 2.661 . S
N2719 C2723 1.350 . S
N2719 C2724 1.307 . S
C2720 H2712 0.930 . S
C2720 C2721 1.355 . S
C2720 C2722 1.412 . S
C2721 H2713 0.930 . S
C2721 C2720 1.355 . S
C2721 C2724 1.402 1_565 S
C2722 C2720 1.412 . S
C2722 C2723 1.417 1_565 S
C2722 C2746 1.431 . S
C2723 N2719 1.350 . S
C2723 C2722 1.417 1_545 S
C2723 C2726 1.426 . S
C2724 H2707 0.930 . S
C2724 N2719 1.307 . S
C2724 C2721 1.402 1_545 S
N2725 Gd2688 2.601 . S
N2725 C2726 1.359 . S
N2725 C2729 1.334 . S
C2726 C2723 1.426 . S
C2726 N2725 1.359 . S
C2726 C2730 1.413 1_545 S
C2727 H2718 0.930 . S
C2727 C2728 1.359 . S
C2727 C2729 1.394 . S
C2728 C2727 1.359 . S
C2728 C2730 1.391 1_545 S
C2728 H2731 0.929 1_545 S
C2729 H2711 0.930 . S
C2729 N2725 1.334 . S
C2729 C2727 1.394 . S
C2730 C2726 1.413 1_565 S
C2730 C2728 1.391 1_565 S
C2730 C2745 1.437 . S
H2731 C2728 0.929 1_565 S
O2732 Gd2688 2.545 . S
O2732 C2747 1.258 . S
O2733 Gd2688 2.606 . S
O2733 Gd2689 2.362 . S
O2733 C2744 1.284 . S
O2734 Gd2689 2.324 . S
O2734 C2754 1.254 . S
O2735 Gd2688 2.429 . S
O2735 C2754 1.268 . S
O2736 Gd2688 2.545 . S
O2736 C2744 1.250 . S
O2737 Gd2688 2.412 . S
O2737 C2747 1.252 . S
O2738 Gd2689 2.545 1_455 S
O2738 C2756 1.258 . S
O2739 Gd2688 2.362 . S
O2739 Gd2689 2.606 . S
O2739 C2755 1.284 . S
O2740 Gd2688 2.324 . S
O2740 C2763 1.254 . S
O2741 Gd2689 2.429 . S
O2741 C2763 1.268 . S
O2742 Gd2689 2.545 . S
O2742 C2755 1.250 . S
O2743 Gd2689 2.412 1_455 S
O2743 C2756 1.252 . S
C2744 O2733 1.284 . S
C2744 O2736 1.250 . S
C2745 H2714 0.929 . S
C2745 C2730 1.437 . S
C2745 C2746 1.317 . S
C2746 H2717 0.930 . S
C2746 C2722 1.431 . S
C2746 C2745 1.317 . S
C2747 Gd2688 2.828 . S
C2747 O2732 1.258 . S
C2747 O2737 1.252 . S
C2747 C2748 1.497 . S
C2748 C2747 1.497 . S
C2748 C2749 1.395 . S
C2748 C2750 1.380 . S
C2749 C2748 1.395 . S
C2749 C2752 1.398 . S
C2749 H2764 0.930 . S
C2750 C2748 1.380 . S
C2750 C2751 1.391 . S
C2750 H2765 0.930 . S
C2751 C2750 1.391 . S
C2751 C2753 1.387 . S
C2752 C2749 1.398 . S
C2752 C2753 1.380 . S
C2752 H2766 0.930 . S
C2753 C2751 1.387 . S
C2753 C2752 1.380 . S
C2753 H2767 0.930 . S
C2754 O2734 1.254 . S
C2754 O2735 1.268 . S
C2755 O2739 1.284 . S
C2755 O2742 1.250 . S
C2756 Gd2689 2.828 1_455 S
C2756 O2738 1.258 . S
C2756 O2743 1.252 . S
C2756 C2757 1.497 . S
C2757 C2756 1.497 . S
C2757 C2758 1.395 . S
C2757 C2759 1.380 . S
C2758 C2757 1.395 . S
C2758 C2761 1.398 . S
C2758 H2768 0.930 . S
C2759 C2757 1.380 . S
C2759 C2760 1.391 . S
C2759 H2769 0.930 . S
C2760 C2759 1.391 . S
C2760 C2762 1.387 . S
C2761 C2758 1.398 . S
C2761 C2762 1.380 . S
C2761 H2770 0.930 . S
C2762 C2760 1.387 . S
C2762 C2761 1.380 . S
C2762 H2771 0.930 . S
C2763 O2740 1.254 . S
C2763 O2741 1.268 . S
H2764 C2749 0.930 . S
H2765 C2750 0.930 . S
H2766 C2752 0.930 . S
H2767 C2753 0.930 . S
H2768 C2758 0.930 . S
H2769 C2759 0.930 . S
H2770 C2761 0.930 . S
H2771 C2762 0.930 . S
Gd2772 N2803 2.661 . S
Gd2772 N2809 2.601 . S
Gd2772 O2816 2.545 . S
Gd2772 O2817 2.606 . S
Gd2772 O2819 2.429 . S
Gd2772 O2820 2.545 . S
Gd2772 O2821 2.412 . S
Gd2772 O2823 2.362 . S
Gd2772 O2824 2.324 . S
Gd2772 C2831 2.828 . S
Gd2773 N2782 2.661 . S
Gd2773 N2786 2.601 . S
Gd2773 O2817 2.362 . S
Gd2773 O2818 2.324 . S
Gd2773 O2822 2.545 . S
Gd2773 O2823 2.606 . S
Gd2773 O2825 2.429 . S
Gd2773 O2826 2.545 . S
Gd2773 O2827 2.412 . S
Gd2773 C2840 2.828 . S
C2774 C2777 1.417 1_565 S
C2774 C2779 1.431 . S
C2774 C2780 1.412 . S
C2775 C2778 1.437 1_565 S
C2775 C2779 1.317 . S
C2775 H2794 0.929 . S
C2776 C2777 1.426 . S
C2776 C2778 1.413 . S
C2776 N2786 1.359 . S
C2777 C2774 1.417 1_545 S
C2777 C2776 1.426 . S
C2777 N2782 1.350 . S
C2778 C2775 1.437 1_545 S
C2778 C2776 1.413 . S
C2778 C2788 1.391 . S
C2779 C2774 1.431 . S
C2779 C2775 1.317 . S
C2779 H2790 0.930 . S
C2780 C2774 1.412 . S
C2780 C2781 1.355 . S
C2780 H2792 0.930 . S
C2781 C2780 1.355 . S
C2781 C2783 1.402 1_565 S
C2781 H2793 0.930 . S
N2782 Gd2773 2.661 . S
N2782 C2777 1.350 . S
N2782 C2783 1.307 . S
C2783 C2781 1.402 1_545 S
C2783 N2782 1.307 . S
C2783 H2784 0.930 . S
H2784 C2783 0.930 . S
C2785 N2786 1.334 . S
C2785 C2787 1.394 . S
C2785 H2789 0.930 . S
N2786 Gd2773 2.601 . S
N2786 C2776 1.359 . S
N2786 C2785 1.334 . S
C2787 C2785 1.394 . S
C2787 C2788 1.359 . S
C2787 H2799 0.930 . S
C2788 C2778 1.391 . S
C2788 C2787 1.359 . S
C2788 H2800 0.929 . S
H2789 C2785 0.930 . S
H2790 C2779 0.930 . S
H2791 C2808 0.930 . S
H2792 C2780 0.930 . S
H2793 C2781 0.930 . S
H2794 C2775 0.929 . S
H2795 C2813 0.930 . S
H2796 C2804 0.930 . S
H2797 C2805 0.930 . S
H2798 C2829 0.929 . S
H2799 C2787 0.930 . S
H2800 C2788 0.929 . S
H2801 C2830 0.930 . S
H2802 C2811 0.930 . S
N2803 Gd2772 2.661 . S
N2803 C2807 1.350 . S
N2803 C2808 1.307 . S
C2804 H2796 0.930 . S
C2804 C2805 1.355 . S
C2804 C2806 1.412 . S
C2805 H2797 0.930 . S
C2805 C2804 1.355 . S
C2805 C2808 1.402 . S
C2806 C2804 1.412 . S
C2806 C2807 1.417 . S
C2806 C2830 1.431 . S
C2807 N2803 1.350 . S
C2807 C2806 1.417 . S
C2807 C2810 1.426 . S
C2808 H2791 0.930 . S
C2808 N2803 1.307 . S
C2808 C2805 1.402 . S
N2809 Gd2772 2.601 . S
N2809 C2810 1.359 . S
N2809 C2813 1.334 . S
C2810 C2807 1.426 . S
C2810 N2809 1.359 . S
C2810 C2814 1.413 . S
C2811 H2802 0.930 . S
C2811 C2812 1.359 . S
C2811 C2813 1.394 . S
C2812 C2811 1.359 . S
C2812 C2814 1.391 . S
C2812 H2815 0.929 . S
C2813 H2795 0.930 . S
C2813 N2809 1.334 . S
C2813 C2811 1.394 . S
C2814 C2810 1.413 . S
C2814 C2812 1.391 . S
C2814 C2829 1.437 . S
H2815 C2812 0.929 . S
O2816 Gd2772 2.545 . S
O2816 C2831 1.258 . S
O2817 Gd2772 2.606 . S
O2817 Gd2773 2.362 . S
O2817 C2828 1.284 . S
O2818 Gd2773 2.324 . S
O2818 C2838 1.254 . S
O2819 Gd2772 2.429 . S
O2819 C2838 1.268 . S
O2820 Gd2772 2.545 . S
O2820 C2828 1.250 . S
O2821 Gd2772 2.412 . S
O2821 C2831 1.252 . S
O2822 Gd2773 2.545 . S
O2822 C2840 1.258 . S
O2823 Gd2772 2.362 . S
O2823 Gd2773 2.606 . S
O2823 C2839 1.284 . S
O2824 Gd2772 2.324 . S
O2824 C2847 1.254 . S
O2825 Gd2773 2.429 . S
O2825 C2847 1.268 . S
O2826 Gd2773 2.545 . S
O2826 C2839 1.250 . S
O2827 Gd2773 2.412 . S
O2827 C2840 1.252 . S
C2828 O2817 1.284 . S
C2828 O2820 1.250 . S
C2829 H2798 0.929 . S
C2829 C2814 1.437 . S
C2829 C2830 1.317 . S
C2830 H2801 0.930 . S
C2830 C2806 1.431 . S
C2830 C2829 1.317 . S
C2831 Gd2772 2.828 . S
C2831 O2816 1.258 . S
C2831 O2821 1.252 . S
C2831 C2832 1.497 . S
C2832 C2831 1.497 . S
C2832 C2833 1.395 . S
C2832 C2834 1.380 . S
C2833 C2832 1.395 . S
C2833 C2836 1.398 . S
C2833 H2848 0.930 . S
C2834 C2832 1.380 . S
C2834 C2835 1.391 . S
C2834 H2849 0.930 . S
C2835 C2834 1.391 . S
C2835 C2837 1.387 . S
C2836 C2833 1.398 . S
C2836 C2837 1.380 . S
C2836 H2850 0.930 . S
C2837 C2835 1.387 . S
C2837 C2836 1.380 . S
C2837 H2851 0.930 1_455 S
C2838 O2818 1.254 . S
C2838 O2819 1.268 . S
C2839 O2823 1.284 . S
C2839 O2826 1.250 . S
C2840 Gd2773 2.828 . S
C2840 O2822 1.258 . S
C2840 O2827 1.252 . S
C2840 C2841 1.497 . S
C2841 C2840 1.497 . S
C2841 C2842 1.395 . S
C2841 C2843 1.380 . S
C2842 C2841 1.395 . S
C2842 C2845 1.398 . S
C2842 H2852 0.930 . S
C2843 C2841 1.380 . S
C2843 C2844 1.391 . S
C2843 H2853 0.930 . S
C2844 C2843 1.391 . S
C2844 C2846 1.387 . S
C2845 C2842 1.398 . S
C2845 C2846 1.380 . S
C2845 H2854 0.930 . S
C2846 C2844 1.387 . S
C2846 C2845 1.380 . S
C2846 H2855 0.930 . S
C2847 O2824 1.254 . S
C2847 O2825 1.268 . S
H2848 C2833 0.930 . S
H2849 C2834 0.930 . S
H2850 C2836 0.930 . S
H2851 C2837 0.930 1_655 S
H2852 C2842 0.930 . S
H2853 C2843 0.930 . S
H2854 C2845 0.930 . S
H2855 C2846 0.930 . S
Gd2856 N2887 2.661 . S
Gd2856 N2893 2.601 . S
Gd2856 O2900 2.545 . S
Gd2856 O2901 2.606 . S
Gd2856 O2903 2.429 . S
Gd2856 O2904 2.545 . S
Gd2856 O2905 2.412 . S
Gd2856 O2907 2.362 . S
Gd2856 O2908 2.324 . S
Gd2856 C2915 2.828 . S
Gd2857 N2866 2.661 1_655 S
Gd2857 N2870 2.601 1_655 S
Gd2857 O2901 2.362 . S
Gd2857 O2902 2.324 . S
Gd2857 O2906 2.545 . S
Gd2857 O2907 2.606 . S
Gd2857 O2909 2.429 . S
Gd2857 O2910 2.545 . S
Gd2857 O2911 2.412 . S
Gd2857 C2924 2.828 . S
C2858 C2861 1.417 . S
C2858 C2863 1.431 . S
C2858 C2864 1.412 . S
C2859 C2862 1.437 . S
C2859 C2863 1.317 . S
C2859 H2878 0.929 . S
C2860 C2861 1.426 . S
C2860 C2862 1.413 . S
C2860 N2870 1.359 . S
C2861 C2858 1.417 . S
C2861 C2860 1.426 . S
C2861 N2866 1.350 . S
C2862 C2859 1.437 . S
C2862 C2860 1.413 . S
C2862 C2872 1.391 . S
C2863 C2858 1.431 . S
C2863 C2859 1.317 . S
C2863 H2874 0.930 . S
C2864 C2858 1.412 . S
C2864 C2865 1.355 . S
C2864 H2876 0.930 . S
C2865 C2864 1.355 . S
C2865 C2867 1.402 . S
C2865 H2877 0.930 . S
N2866 Gd2857 2.661 1_455 S
N2866 C2861 1.350 . S
N2866 C2867 1.307 . S
C2867 C2865 1.402 . S
C2867 N2866 1.307 . S
C2867 H2868 0.930 . S
H2868 C2867 0.930 . S
C2869 N2870 1.334 1_655 S
C2869 C2871 1.394 1_655 S
C2869 H2873 0.930 . S
N2870 Gd2857 2.601 1_455 S
N2870 C2860 1.359 . S
N2870 C2869 1.334 1_455 S
C2871 C2869 1.394 1_455 S
C2871 C2872 1.359 . S
C2871 H2883 0.930 . S
C2872 C2862 1.391 . S
C2872 C2871 1.359 . S
C2872 H2884 0.929 . S
H2873 C2869 0.930 . S
H2874 C2863 0.930 . S
H2875 C2892 0.930 . S
H2876 C2864 0.930 . S
H2877 C2865 0.930 . S
H2878 C2859 0.929 . S
H2879 C2897 0.930 . S
H2880 C2888 0.930 . S
H2881 C2889 0.930 . S
H2882 C2913 0.929 . S
H2883 C2871 0.930 . S
H2884 C2872 0.929 . S
H2885 C2914 0.930 . S
H2886 C2895 0.930 . S
N2887 Gd2856 2.661 . S
N2887 C2891 1.350 . S
N2887 C2892 1.307 . S
C2888 H2880 0.930 . S
C2888 C2889 1.355 1_565 S
C2888 C2890 1.412 . S
C2889 H2881 0.930 . S
C2889 C2888 1.355 1_545 S
C2889 C2892 1.402 . S
C2890 C2888 1.412 . S
C2890 C2891 1.417 1_565 S
C2890 C2914 1.431 . S
C2891 N2887 1.350 . S
C2891 C2890 1.417 1_545 S
C2891 C2894 1.426 . S
C2892 H2875 0.930 . S
C2892 N2887 1.307 . S
C2892 C2889 1.402 . S
N2893 Gd2856 2.601 . S
N2893 C2894 1.359 . S
N2893 C2897 1.334 . S
C2894 C2891 1.426 . S
C2894 N2893 1.359 . S
C2894 C2898 1.413 . S
C2895 H2886 0.930 . S
C2895 C2896 1.359 . S
C2895 C2897 1.394 . S
C2896 C2895 1.359 . S
C2896 C2898 1.391 . S
C2896 H2899 0.929 . S
C2897 H2879 0.930 . S
C2897 N2893 1.334 . S
C2897 C2895 1.394 . S
C2898 C2894 1.413 . S
C2898 C2896 1.391 . S
C2898 C2913 1.437 1_545 S
H2899 C2896 0.929 . S
O2900 Gd2856 2.545 . S
O2900 C2915 1.258 . S
O2901 Gd2856 2.606 . S
O2901 Gd2857 2.362 . S
O2901 C2912 1.284 . S
O2902 Gd2857 2.324 . S
O2902 C2922 1.254 . S
O2903 Gd2856 2.429 . S
O2903 C2922 1.268 . S
O2904 Gd2856 2.545 . S
O2904 C2912 1.250 . S
O2905 Gd2856 2.412 . S
O2905 C2915 1.252 . S
O2906 Gd2857 2.545 . S
O2906 C2924 1.258 . S
O2907 Gd2856 2.362 . S
O2907 Gd2857 2.606 . S
O2907 C2923 1.284 . S
O2908 Gd2856 2.324 . S
O2908 C2931 1.254 . S
O2909 Gd2857 2.429 . S
O2909 C2931 1.268 . S
O2910 Gd2857 2.545 . S
O2910 C2923 1.250 . S
O2911 Gd2857 2.412 . S
O2911 C2924 1.252 . S
C2912 O2901 1.284 . S
C2912 O2904 1.250 . S
C2913 H2882 0.929 . S
C2913 C2898 1.437 1_565 S
C2913 C2914 1.317 . S
C2914 H2885 0.930 . S
C2914 C2890 1.431 . S
C2914 C2913 1.317 . S
C2915 Gd2856 2.828 . S
C2915 O2900 1.258 . S
C2915 O2905 1.252 . S
C2915 C2916 1.497 1_545 S
C2916 C2915 1.497 1_565 S
C2916 C2917 1.395 . S
C2916 C2918 1.380 . S
C2917 C2916 1.395 . S
C2917 C2920 1.398 . S
C2917 H2932 0.930 . S
C2918 C2916 1.380 . S
C2918 C2919 1.391 . S
C2918 H2933 0.930 . S
C2919 C2918 1.391 . S
C2919 C2921 1.387 . S
C2920 C2917 1.398 . S
C2920 C2921 1.380 . S
C2920 H2934 0.930 . S
C2921 C2919 1.387 . S
C2921 C2920 1.380 . S
C2921 H2935 0.930 . S
C2922 O2902 1.254 . S
C2922 O2903 1.268 . S
C2923 O2907 1.284 . S
C2923 O2910 1.250 . S
C2924 Gd2857 2.828 . S
C2924 O2906 1.258 . S
C2924 O2911 1.252 . S
C2924 C2925 1.497 . S
C2925 C2924 1.497 . S
C2925 C2926 1.395 . S
C2925 C2927 1.380 . S
C2926 C2925 1.395 . S
C2926 C2929 1.398 . S
C2926 H2936 0.930 . S
C2927 C2925 1.380 . S
C2927 C2928 1.391 . S
C2927 H2937 0.930 . S
C2928 C2927 1.391 . S
C2928 C2930 1.387 . S
C2929 C2926 1.398 . S
C2929 C2930 1.380 . S
C2929 H2938 0.930 . S
C2930 C2928 1.387 . S
C2930 C2929 1.380 . S
C2930 H2939 0.930 . S
C2931 O2908 1.254 . S
C2931 O2909 1.268 . S
H2932 C2917 0.930 . S
H2933 C2918 0.930 . S
H2934 C2920 0.930 . S
H2935 C2921 0.930 . S
H2936 C2926 0.930 . S
H2937 C2927 0.930 . S
H2938 C2929 0.930 . S
H2939 C2930 0.930 . S
Gd2940 N2971 2.661 . S
Gd2940 N2977 2.601 . S
Gd2940 O2984 2.545 . S
Gd2940 O2985 2.606 1_455 S
Gd2940 O2987 2.429 1_455 S
Gd2940 O2988 2.545 . S
Gd2940 O2989 2.412 . S
Gd2940 O2991 2.362 1_455 S
Gd2940 O2992 2.324 . S
Gd2940 C2999 2.828 . S
Gd2941 N2950 2.661 . S
Gd2941 N2954 2.601 . S
Gd2941 O2985 2.362 . S
Gd2941 O2986 2.324 . S
Gd2941 O2990 2.545 . S
Gd2941 O2991 2.606 . S
Gd2941 O2993 2.429 . S
Gd2941 O2994 2.545 . S
Gd2941 O2995 2.412 . S
Gd2941 C3008 2.828 . S
C2942 C2945 1.417 . S
C2942 C2947 1.431 . S
C2942 C2948 1.412 . S
C2943 C2946 1.437 . S
C2943 C2947 1.317 . S
C2943 H2962 0.929 . S
C2944 C2945 1.426 . S
C2944 C2946 1.413 . S
C2944 N2954 1.359 . S
C2945 C2942 1.417 . S
C2945 C2944 1.426 . S
C2945 N2950 1.350 . S
C2946 C2943 1.437 . S
C2946 C2944 1.413 . S
C2946 C2956 1.391 . S
C2947 C2942 1.431 . S
C2947 C2943 1.317 . S
C2947 H2958 0.930 . S
C2948 C2942 1.412 . S
C2948 C2949 1.355 . S
C2948 H2960 0.930 . S
C2949 C2948 1.355 . S
C2949 C2951 1.402 . S
C2949 H2961 0.930 . S
N2950 Gd2941 2.661 . S
N2950 C2945 1.350 . S
N2950 C2951 1.307 . S
C2951 C2949 1.402 . S
C2951 N2950 1.307 . S
C2951 H2952 0.930 . S
H2952 C2951 0.930 . S
C2953 N2954 1.334 . S
C2953 C2955 1.394 . S
C2953 H2957 0.930 . S
N2954 Gd2941 2.601 . S
N2954 C2944 1.359 . S
N2954 C2953 1.334 . S
C2955 C2953 1.394 . S
C2955 C2956 1.359 . S
C2955 H2967 0.930 . S
C2956 C2946 1.391 . S
C2956 C2955 1.359 . S
C2956 H2968 0.929 . S
H2957 C2953 0.930 . S
H2958 C2947 0.930 . S
H2959 C2976 0.930 . S
H2960 C2948 0.930 . S
H2961 C2949 0.930 . S
H2962 C2943 0.929 . S
H2963 C2981 0.930 . S
H2964 C2972 0.930 . S
H2965 C2973 0.930 . S
H2966 C2997 0.929 . S
H2967 C2955 0.930 . S
H2968 C2956 0.929 . S
H2969 C2998 0.930 . S
H2970 C2979 0.930 . S
N2971 Gd2940 2.661 . S
N2971 C2975 1.350 . S
N2971 C2976 1.307 . S
C2972 H2964 0.930 . S
C2972 C2973 1.355 . S
C2972 C2974 1.412 . S
C2973 H2965 0.930 . S
C2973 C2972 1.355 . S
C2973 C2976 1.402 . S
C2974 C2972 1.412 . S
C2974 C2975 1.417 . S
C2974 C2998 1.431 . S
C2975 N2971 1.350 . S
C2975 C2974 1.417 . S
C2975 C2978 1.426 . S
C2976 H2959 0.930 . S
C2976 N2971 1.307 . S
C2976 C2973 1.402 . S
N2977 Gd2940 2.601 . S
N2977 C2978 1.359 . S
N2977 C2981 1.334 . S
C2978 C2975 1.426 . S
C2978 N2977 1.359 . S
C2978 C2982 1.413 . S
C2979 H2970 0.930 . S
C2979 C2980 1.359 . S
C2979 C2981 1.394 . S
C2980 C2979 1.359 . S
C2980 C2982 1.391 . S
C2980 H2983 0.929 . S
C2981 H2963 0.930 . S
C2981 N2977 1.334 . S
C2981 C2979 1.394 . S
C2982 C2978 1.413 . S
C2982 C2980 1.391 . S
C2982 C2997 1.437 . S
H2983 C2980 0.929 . S
O2984 Gd2940 2.545 . S
O2984 C2999 1.258 . S
O2985 Gd2940 2.606 1_655 S
O2985 Gd2941 2.362 . S
O2985 C2996 1.284 . S
O2986 Gd2941 2.324 . S
O2986 C3006 1.254 . S
O2987 Gd2940 2.429 1_655 S
O2987 C3006 1.268 . S
O2988 Gd2940 2.545 . S
O2988 C2996 1.250 1_455 S
O2989 Gd2940 2.412 . S
O2989 C2999 1.252 . S
O2990 Gd2941 2.545 . S
O2990 C3008 1.258 . S
O2991 Gd2940 2.362 1_655 S
O2991 Gd2941 2.606 . S
O2991 C3007 1.284 . S
O2992 Gd2940 2.324 . S
O2992 C3015 1.254 1_455 S
O2993 Gd2941 2.429 . S
O2993 C3015 1.268 . S
O2994 Gd2941 2.545 . S
O2994 C3007 1.250 . S
O2995 Gd2941 2.412 . S
O2995 C3008 1.252 . S
C2996 O2985 1.284 . S
C2996 O2988 1.250 1_655 S
C2997 H2966 0.929 . S
C2997 C2982 1.437 . S
C2997 C2998 1.317 . S
C2998 H2969 0.930 . S
C2998 C2974 1.431 . S
C2998 C2997 1.317 . S
C2999 Gd2940 2.828 . S
C2999 O2984 1.258 . S
C2999 O2989 1.252 . S
C2999 C3000 1.497 . S
C3000 C2999 1.497 . S
C3000 C3001 1.395 1_565 S
C3000 C3002 1.380 1_565 S
C3001 C3000 1.395 1_545 S
C3001 C3004 1.398 . S
C3001 H3016 0.930 1_545 S
C3002 C3000 1.380 1_545 S
C3002 C3003 1.391 . S
C3002 H3017 0.930 . S
C3003 C3002 1.391 . S
C3003 C3005 1.387 . S
C3004 C3001 1.398 . S
C3004 C3005 1.380 . S
C3004 H3018 0.930 . S
C3005 C3003 1.387 . S
C3005 C3004 1.380 . S
C3005 H3019 0.930 . S
C3006 O2986 1.254 . S
C3006 O2987 1.268 . S
C3007 O2991 1.284 . S
C3007 O2994 1.250 . S
C3008 Gd2941 2.828 . S
C3008 O2990 1.258 . S
C3008 O2995 1.252 . S
C3008 C3009 1.497 . S
C3009 C3008 1.497 . S
C3009 C3010 1.395 . S
C3009 C3011 1.380 . S
C3010 C3009 1.395 . S
C3010 C3013 1.398 . S
C3010 H3020 0.930 . S
C3011 C3009 1.380 . S
C3011 C3012 1.391 . S
C3011 H3021 0.930 . S
C3012 C3011 1.391 . S
C3012 C3014 1.387 . S
C3013 C3010 1.398 . S
C3013 C3014 1.380 . S
C3013 H3022 0.930 . S
C3014 C3012 1.387 . S
C3014 C3013 1.380 . S
C3014 H3023 0.930 . S
C3015 O2992 1.254 1_655 S
C3015 O2993 1.268 . S
H3016 C3001 0.930 1_565 S
H3017 C3002 0.930 . S
H3018 C3004 0.930 . S
H3019 C3005 0.930 . S
H3020 C3010 0.930 . S
H3021 C3011 0.930 . S
H3022 C3013 0.930 . S
H3023 C3014 0.930 . S
C2334 C66 3.292 . S
C2418 C150 3.292 1_655 S
C234 C2502 3.293 . S
C318 C1074 3.292 . S
C402 C1158 3.293 . S
C1242 C486 3.292 1_565 S
C579 C1839 3.293 1_545 S
C1923 C663 3.292 . S
C747 C2007 3.292 . S
C2595 C831 3.293 1_655 S
C915 C2679 3.292 . S
C2763 C999 3.292 . S
C2082 C1326 3.293 . S
C1410 C2166 3.292 1_565 S
C2250 C1494 3.292 1_655 S
C1587 C2847 3.292 . S
C1671 C2931 3.292 1_565 S
C3015 C1755 3.292 1_655 S
C75 C570 2.504 1_554 S
C654 C159 2.504 1_556 S
C243 C738 2.504 1_554 S
C822 C327 2.504 . S
C411 C906 2.504 . S
C990 C495 2.504 . S
C1578 C1083 2.504 . S
C1167 C1662 2.504 . S
C1746 C1251 2.504 . S
C1335 C1830 2.504 . S
C1914 C1419 2.504 . S
C1503 C1998 2.504 . S
C2091 C2586 2.504 . S
C2670 C2175 2.504 . S
C2754 C2259 2.504 . S
C2838 C2343 2.504 . S
C2427 C2922 2.504 . S
C2511 C3006 2.504 . S
C63 C224 1.778 . S
C147 C56 1.778 . S
C140 C231 1.778 . S
C315 C392 1.778 . S
C476 C399 1.778 . S
C308 C483 1.778 . S
C739 C576 1.778 . S
C660 C571 1.778 . S
C744 C655 1.778 . S
C907 C828 1.778 . S
C912 C991 1.778 . S
C996 C823 1.778 . S
C1232 C1071 1.778 . S
C1064 C1155 1.778 . S
C1148 C1239 1.778 . S
C1400 C1323 1.778 . S
C1407 C1484 1.778 . S
C1316 C1491 1.778 . S
C1584 C1747 1.778 . S
C1579 C1668 1.778 . S
C1752 C1663 1.778 . S
C1915 C1836 1.778 . S
C1999 C1920 1.778 . S
C1831 C2004 1.778 . S
C2240 C2079 1.778 . S
C2163 C2072 1.778 . S
C2156 C2247 1.778 . S
C2331 C2408 1.778 . S
C2415 C2492 1.778 . S
C2324 C2499 1.778 . S
C2592 C2755 1.778 . S
C2676 C2587 1.778 . S
C2671 C2760 1.778 . S
C2844 C2923 1.778 . S
C3007 C2928 1.778 . S
C2839 C3012 1.778 . S
C235 C72 1.828 . S
C156 C67 1.828 . S
C151 C240 1.828 . S
C403 C324 1.828 . S
C408 C487 1.828 . S
C492 C319 1.828 . S
C728 C567 1.828 . S
C651 C560 1.828 . S
C644 C735 1.828 . S
C896 C819 1.828 . S
C980 C903 1.828 . S
C812 C987 1.828 . S
C1080 C1243 1.828 . S
C1164 C1075 1.828 . S
C1248 C1159 1.828 . S
C1411 C1332 1.828 . S
C1416 C1495 1.828 . S
C1500 C1327 1.828 1_545 S
C1736 C1575 1.828 1_565 S
C1568 C1659 1.828 . S
C1743 C1652 1.828 . S
C1904 C1827 1.829 . S
C1911 C1988 1.828 . S
C1995 C1820 1.828 . S
C2088 C2251 1.828 . S
C2083 C2172 1.828 1_655 S
C2167 C2256 1.828 . S
C2419 C2340 1.828 . S
C2424 C2503 1.828 . S
C2508 C2335 1.828 . S
C2744 C2583 1.829 . S
C2576 C2667 1.828 . S
C2751 C2660 1.828 . S
C2912 C2835 1.828 1_655 S
C2919 C2996 1.828 . S
C3003 C2828 1.828 . S
