# Generated by pormake.
# Topology uns, (4)-cn, num edge types: 1
# Building blocks:
#     Node 0, Type 0, BuildingBlock: NAWXER_clean_sbu_0, # of connection points: 4
#     Node 1, Type 0, BuildingBlock: NAWXER_clean_sbu_0, # of connection points: 4
#     Node 2, Type 0, BuildingBlock: NAWXER_clean_sbu_0, # of connection points: 4
#     Node 3, Type 0, BuildingBlock: NAWXER_clean_sbu_0, # of connection points: 4
#     Node 4, Type 0, BuildingBlock: NAWXER_clean_sbu_0, # of connection points: 4
#     Node 5, Type 0, BuildingBlock: NAWXER_clean_sbu_0, # of connection points: 4
#     Node 6, Type 0, BuildingBlock: NAWXER_clean_sbu_0, # of connection points: 4
#     Node 7, Type 0, BuildingBlock: NAWXER_clean_sbu_0, # of connection points: 4
#     Node 8, Type 0, BuildingBlock: NAWXER_clean_sbu_0, # of connection points: 4
#     Node 9, Type 0, BuildingBlock: NAWXER_clean_sbu_0, # of connection points: 4
#     Node 10, Type 0, BuildingBlock: NAWXER_clean_sbu_0, # of connection points: 4
#     Node 11, Type 0, BuildingBlock: NAWXER_clean_sbu_0, # of connection points: 4
#     Node 12, Type 0, BuildingBlock: NAWXER_clean_sbu_0, # of connection points: 4
#     Node 13, Type 0, BuildingBlock: NAWXER_clean_sbu_0, # of connection points: 4
#     Node 14, Type 0, BuildingBlock: NAWXER_clean_sbu_0, # of connection points: 4
#     Node 15, Type 0, BuildingBlock: NAWXER_clean_sbu_0, # of connection points: 4
#     Node 16, Type 0, BuildingBlock: NAWXER_clean_sbu_0, # of connection points: 4
#     Node 17, Type 0, BuildingBlock: NAWXER_clean_sbu_0, # of connection points: 4
#     Node 18, Type 0, BuildingBlock: NAWXER_clean_sbu_0, # of connection points: 4
#     Node 19, Type 0, BuildingBlock: NAWXER_clean_sbu_0, # of connection points: 4
#     Node 20, Type 0, BuildingBlock: NAWXER_clean_sbu_0, # of connection points: 4
#     Node 21, Type 0, BuildingBlock: NAWXER_clean_sbu_0, # of connection points: 4
#     Node 22, Type 0, BuildingBlock: NAWXER_clean_sbu_0, # of connection points: 4
#     Node 23, Type 0, BuildingBlock: NAWXER_clean_sbu_0, # of connection points: 4
#     Node 24, Type 0, BuildingBlock: NAWXER_clean_sbu_0, # of connection points: 4
#     Node 25, Type 0, BuildingBlock: NAWXER_clean_sbu_0, # of connection points: 4
#     Node 26, Type 0, BuildingBlock: NAWXER_clean_sbu_0, # of connection points: 4
#     Node 27, Type 0, BuildingBlock: NAWXER_clean_sbu_0, # of connection points: 4
#     Node 28, Type 0, BuildingBlock: NAWXER_clean_sbu_0, # of connection points: 4
#     Node 29, Type 0, BuildingBlock: NAWXER_clean_sbu_0, # of connection points: 4
#     Node 30, Type 0, BuildingBlock: NAWXER_clean_sbu_0, # of connection points: 4
#     Node 31, Type 0, BuildingBlock: NAWXER_clean_sbu_0, # of connection points: 4
#     Node 32, Type 0, BuildingBlock: NAWXER_clean_sbu_0, # of connection points: 4
#     Node 33, Type 0, BuildingBlock: NAWXER_clean_sbu_0, # of connection points: 4
#     Node 34, Type 0, BuildingBlock: NAWXER_clean_sbu_0, # of connection points: 4
#     Node 35, Type 0, BuildingBlock: NAWXER_clean_sbu_0, # of connection points: 4
#     Edge 36, Type (0, 0), BuildingBlock: ZUJKAS_clean_linker_0, # of connection points: 2
#     Edge 37, Type (0, 0), BuildingBlock: ZUJKAS_clean_linker_0, # of connection points: 2
#     Edge 38, Type (0, 0), BuildingBlock: ZUJKAS_clean_linker_0, # of connection points: 2
#     Edge 39, Type (0, 0), BuildingBlock: ZUJKAS_clean_linker_0, # of connection points: 2
#     Edge 40, Type (0, 0), BuildingBlock: ZUJKAS_clean_linker_0, # of connection points: 2
#     Edge 41, Type (0, 0), BuildingBlock: ZUJKAS_clean_linker_0, # of connection points: 2
#     Edge 42, Type (0, 0), BuildingBlock: ZUJKAS_clean_linker_0, # of connection points: 2
#     Edge 43, Type (0, 0), BuildingBlock: ZUJKAS_clean_linker_0, # of connection points: 2
#     Edge 44, Type (0, 0), BuildingBlock: ZUJKAS_clean_linker_0, # of connection points: 2
#     Edge 45, Type (0, 0), BuildingBlock: ZUJKAS_clean_linker_0, # of connection points: 2
#     Edge 46, Type (0, 0), BuildingBlock: ZUJKAS_clean_linker_0, # of connection points: 2
#     Edge 47, Type (0, 0), BuildingBlock: ZUJKAS_clean_linker_0, # of connection points: 2
#     Edge 48, Type (0, 0), BuildingBlock: ZUJKAS_clean_linker_0, # of connection points: 2
#     Edge 49, Type (0, 0), BuildingBlock: ZUJKAS_clean_linker_0, # of connection points: 2
#     Edge 50, Type (0, 0), BuildingBlock: ZUJKAS_clean_linker_0, # of connection points: 2
#     Edge 51, Type (0, 0), BuildingBlock: ZUJKAS_clean_linker_0, # of connection points: 2
#     Edge 52, Type (0, 0), BuildingBlock: ZUJKAS_clean_linker_0, # of connection points: 2
#     Edge 53, Type (0, 0), BuildingBlock: ZUJKAS_clean_linker_0, # of connection points: 2
#     Edge 54, Type (0, 0), BuildingBlock: ZUJKAS_clean_linker_0, # of connection points: 2
#     Edge 55, Type (0, 0), BuildingBlock: ZUJKAS_clean_linker_0, # of connection points: 2
#     Edge 56, Type (0, 0), BuildingBlock: ZUJKAS_clean_linker_0, # of connection points: 2
#     Edge 57, Type (0, 0), BuildingBlock: ZUJKAS_clean_linker_0, # of connection points: 2
#     Edge 58, Type (0, 0), BuildingBlock: ZUJKAS_clean_linker_0, # of connection points: 2
#     Edge 59, Type (0, 0), BuildingBlock: ZUJKAS_clean_linker_0, # of connection points: 2
#     Edge 60, Type (0, 0), BuildingBlock: ZUJKAS_clean_linker_0, # of connection points: 2
#     Edge 61, Type (0, 0), BuildingBlock: ZUJKAS_clean_linker_0, # of connection points: 2
#     Edge 62, Type (0, 0), BuildingBlock: ZUJKAS_clean_linker_0, # of connection points: 2
#     Edge 63, Type (0, 0), BuildingBlock: ZUJKAS_clean_linker_0, # of connection points: 2
#     Edge 64, Type (0, 0), BuildingBlock: ZUJKAS_clean_linker_0, # of connection points: 2
#     Edge 65, Type (0, 0), BuildingBlock: ZUJKAS_clean_linker_0, # of connection points: 2
#     Edge 66, Type (0, 0), BuildingBlock: ZUJKAS_clean_linker_0, # of connection points: 2
#     Edge 67, Type (0, 0), BuildingBlock: ZUJKAS_clean_linker_0, # of connection points: 2
#     Edge 68, Type (0, 0), BuildingBlock: ZUJKAS_clean_linker_0, # of connection points: 2
#     Edge 69, Type (0, 0), BuildingBlock: ZUJKAS_clean_linker_0, # of connection points: 2
#     Edge 70, Type (0, 0), BuildingBlock: ZUJKAS_clean_linker_0, # of connection points: 2
#     Edge 71, Type (0, 0), BuildingBlock: ZUJKAS_clean_linker_0, # of connection points: 2
#     Edge 72, Type (0, 0), BuildingBlock: ZUJKAS_clean_linker_0, # of connection points: 2
#     Edge 73, Type (0, 0), BuildingBlock: ZUJKAS_clean_linker_0, # of connection points: 2
#     Edge 74, Type (0, 0), BuildingBlock: ZUJKAS_clean_linker_0, # of connection points: 2
#     Edge 75, Type (0, 0), BuildingBlock: ZUJKAS_clean_linker_0, # of connection points: 2
#     Edge 76, Type (0, 0), BuildingBlock: ZUJKAS_clean_linker_0, # of connection points: 2
#     Edge 77, Type (0, 0), BuildingBlock: ZUJKAS_clean_linker_0, # of connection points: 2
#     Edge 78, Type (0, 0), BuildingBlock: ZUJKAS_clean_linker_0, # of connection points: 2
#     Edge 79, Type (0, 0), BuildingBlock: ZUJKAS_clean_linker_0, # of connection points: 2
#     Edge 80, Type (0, 0), BuildingBlock: ZUJKAS_clean_linker_0, # of connection points: 2
#     Edge 81, Type (0, 0), BuildingBlock: ZUJKAS_clean_linker_0, # of connection points: 2
#     Edge 82, Type (0, 0), BuildingBlock: ZUJKAS_clean_linker_0, # of connection points: 2
#     Edge 83, Type (0, 0), BuildingBlock: ZUJKAS_clean_linker_0, # of connection points: 2
#     Edge 84, Type (0, 0), BuildingBlock: ZUJKAS_clean_linker_0, # of connection points: 2
#     Edge 85, Type (0, 0), BuildingBlock: ZUJKAS_clean_linker_0, # of connection points: 2
#     Edge 86, Type (0, 0), BuildingBlock: ZUJKAS_clean_linker_0, # of connection points: 2
#     Edge 87, Type (0, 0), BuildingBlock: ZUJKAS_clean_linker_0, # of connection points: 2
#     Edge 88, Type (0, 0), BuildingBlock: ZUJKAS_clean_linker_0, # of connection points: 2
#     Edge 89, Type (0, 0), BuildingBlock: ZUJKAS_clean_linker_0, # of connection points: 2
#     Edge 90, Type (0, 0), BuildingBlock: ZUJKAS_clean_linker_0, # of connection points: 2
#     Edge 91, Type (0, 0), BuildingBlock: ZUJKAS_clean_linker_0, # of connection points: 2
#     Edge 92, Type (0, 0), BuildingBlock: ZUJKAS_clean_linker_0, # of connection points: 2
#     Edge 93, Type (0, 0), BuildingBlock: ZUJKAS_clean_linker_0, # of connection points: 2
#     Edge 94, Type (0, 0), BuildingBlock: ZUJKAS_clean_linker_0, # of connection points: 2
#     Edge 95, Type (0, 0), BuildingBlock: ZUJKAS_clean_linker_0, # of connection points: 2
#     Edge 96, Type (0, 0), BuildingBlock: ZUJKAS_clean_linker_0, # of connection points: 2
#     Edge 97, Type (0, 0), BuildingBlock: ZUJKAS_clean_linker_0, # of connection points: 2
#     Edge 98, Type (0, 0), BuildingBlock: ZUJKAS_clean_linker_0, # of connection points: 2
#     Edge 99, Type (0, 0), BuildingBlock: ZUJKAS_clean_linker_0, # of connection points: 2
#     Edge 100, Type (0, 0), BuildingBlock: ZUJKAS_clean_linker_0, # of connection points: 2
#     Edge 101, Type (0, 0), BuildingBlock: ZUJKAS_clean_linker_0, # of connection points: 2
#     Edge 102, Type (0, 0), BuildingBlock: ZUJKAS_clean_linker_0, # of connection points: 2
#     Edge 103, Type (0, 0), BuildingBlock: ZUJKAS_clean_linker_0, # of connection points: 2
#     Edge 104, Type (0, 0), BuildingBlock: ZUJKAS_clean_linker_0, # of connection points: 2
#     Edge 105, Type (0, 0), BuildingBlock: ZUJKAS_clean_linker_0, # of connection points: 2
#     Edge 106, Type (0, 0), BuildingBlock: ZUJKAS_clean_linker_0, # of connection points: 2
#     Edge 107, Type (0, 0), BuildingBlock: ZUJKAS_clean_linker_0, # of connection points: 2
# Relax obj value: 0.008
# Max RMSD: 0.156
# Mean RMSD: 0.156
data_MOF--net-uns--node1-NAWXER_clean_sbu_0--edge1-ZUJKAS_clean_linker_0
_symmetry_space_group_name_H-M    P1
_symmetry_Int_Tables_number       1
_symmetry_cell_setting            triclinic
loop_
_symmetry_equiv_pos_as_xyz
'x, y, z'
_cell_length_a     78.79448
_cell_length_b     78.785525
_cell_length_c     59.343963
_cell_angle_alpha  90.017894
_cell_angle_beta   89.989809
_cell_angle_gamma 120.00801
loop_
_atom_site_label
_atom_site_type_symbol
_atom_site_fract_x
_atom_site_fract_y
_atom_site_fract_z
_atom_type_partial_charge
C0 C 0.27292 0.18452 0.09379 0.0
C1 C 0.22436 0.19479 0.05491 0.0
O2 O 0.25649 0.18159 0.10101 0.0
Zn3 Zn 0.24843 0.18907 0.07401 0.0
O4 O 0.27815 0.19062 0.07353 0.0
Zn5 Zn 0.26622 0.19833 0.0451 0.0
O6 O 0.2856 0.22535 0.04036 0.0
O7 O 0.26913 0.2202 0.07209 0.0
O8 O 0.23921 0.19894 0.04234 0.0
O9 O 0.22363 0.18826 0.07466 0.0
O10 O 0.24349 0.16593 0.0508 0.0
O11 O 0.26377 0.17987 0.02235 0.0
C12 C 0.28239 0.23201 0.05836 0.0
C13 C 0.2504 0.16451 0.03176 0.0
C14 C 0.8097 0.02991 0.05419 0.0
C15 C 0.81981 0.0887 0.09314 0.0
O16 O 0.81601 0.03557 0.07404 0.0
Zn17 Zn 0.81525 0.05961 0.07341 0.0
O18 O 0.80562 0.04065 0.04163 0.0
Zn19 Zn 0.80607 0.06817 0.04443 0.0
O20 O 0.82456 0.08421 0.02175 0.0
O21 O 0.83842 0.07782 0.05026 0.0
O22 O 0.81374 0.08781 0.07286 0.0
O23 O 0.82271 0.0752 0.10041 0.0
O24 O 0.78417 0.04928 0.07143 0.0
O25 O 0.77904 0.06046 0.03958 0.0
C26 C 0.83989 0.08618 0.03122 0.0
C27 C 0.77237 0.05068 0.05764 0.0
C28 C 0.91779 0.7544 0.03159 0.0
C29 C 0.95315 0.72236 0.05838 0.0
O30 O 0.91976 0.741 0.02223 0.0
Zn31 Zn 0.9357 0.73856 0.04504 0.0
O32 O 0.92611 0.76133 0.05064 0.0
Zn33 Zn 0.94427 0.75641 0.07393 0.0
O34 O 0.96834 0.78121 0.07449 0.0
O35 O 0.96329 0.76556 0.0422 0.0
O36 O 0.9546 0.73563 0.07209 0.0
O37 O 0.94332 0.71917 0.04035 0.0
O38 O 0.916 0.72673 0.07342 0.0
O39 O 0.92865 0.74839 0.10091 0.0
C40 C 0.97404 0.78043 0.0547 0.0
C41 C 0.91511 0.73199 0.09366 0.0
C42 C 0.16538 0.24899 0.46728 0.0
C43 C 0.23277 0.28092 0.44039 0.0
O44 O 0.18077 0.26242 0.47658 0.0
Zn45 Zn 0.19914 0.26471 0.45382 0.0
O46 O 0.16675 0.24194 0.44831 0.0
Zn47 Zn 0.18982 0.24672 0.42508 0.0
O48 O 0.18904 0.22192 0.4247 0.0
O49 O 0.19982 0.23776 0.45686 0.0
O50 O 0.22093 0.26756 0.42676 0.0
O51 O 0.22615 0.28417 0.4584 0.0
O52 O 0.19125 0.27638 0.42526 0.0
O53 O 0.18219 0.25452 0.39799 0.0
C54 C 0.19563 0.22281 0.44445 0.0
C55 C 0.18507 0.27097 0.40506 0.0
C56 C 0.78098 0.97306 0.44684 0.0
C57 C 0.73264 0.91436 0.40745 0.0
O58 O 0.78176 0.96748 0.42698 0.0
Zn59 Zn 0.75701 0.94339 0.42742 0.0
O60 O 0.76613 0.96221 0.45932 0.0
Zn61 Zn 0.73917 0.93458 0.45632 0.0
O62 O 0.74165 0.91845 0.47887 0.0
O63 O 0.76201 0.92512 0.45042 0.0
O64 O 0.72737 0.91508 0.42773 0.0
O65 O 0.74903 0.92797 0.40029 0.0
O66 O 0.73614 0.95357 0.42951 0.0
O67 O 0.71973 0.94211 0.46124 0.0
C68 C 0.75509 0.91662 0.46938 0.0
C69 C 0.72286 0.95201 0.44328 0.0
C70 C 0.03084 0.80814 0.44626 0.0
C71 C 0.08982 0.81933 0.40695 0.0
O72 O 0.03655 0.81481 0.42654 0.0
Zn73 Zn 0.06069 0.81428 0.42697 0.0
O74 O 0.04166 0.80405 0.45867 0.0
Zn75 Zn 0.06945 0.80502 0.45564 0.0
O76 O 0.08532 0.82334 0.47852 0.0
O77 O 0.07875 0.83735 0.45034 0.0
O78 O 0.08909 0.81314 0.42713 0.0
O79 O 0.07617 0.82209 0.39991 0.0
O80 O 0.05058 0.78319 0.42859 0.0
O81 O 0.06213 0.77809 0.46017 0.0
C82 C 0.08712 0.83871 0.46934 0.0
C83 C 0.05223 0.77141 0.44219 0.0
C84 C 0.75499 0.8387 0.96859 0.0
C85 C 0.72277 0.77112 0.9423 0.0
O86 O 0.76186 0.83717 0.94955 0.0
Zn87 Zn 0.75682 0.81395 0.92645 0.0
O88 O 0.7416 0.8234 0.97807 0.0
Zn89 Zn 0.73906 0.80484 0.9554 0.0
O90 O 0.76603 0.80414 0.95819 0.0
O91 O 0.78159 0.81467 0.92584 0.0
O92 O 0.71964 0.77787 0.96029 0.0
O93 O 0.73602 0.78287 0.92851 0.0
O94 O 0.74876 0.8214 0.89942 0.0
O95 O 0.72716 0.81255 0.92693 0.0
C96 C 0.78085 0.80821 0.94562 0.0
C97 C 0.73238 0.81858 0.90665 0.0
C98 C 0.19591 0.9733 0.94629 0.0
C99 C 0.1855 0.91443 0.90728 0.0
O100 O 0.19998 0.96255 0.95884 0.0
Zn101 Zn 0.19926 0.93487 0.95604 0.0
O102 O 0.18941 0.96756 0.92651 0.0
Zn103 Zn 0.19012 0.9435 0.9271 0.0
O104 O 0.16691 0.92528 0.95019 0.0
O105 O 0.18071 0.91886 0.97872 0.0
O106 O 0.18266 0.92798 0.90006 0.0
O107 O 0.19154 0.91525 0.92756 0.0
O108 O 0.22625 0.94244 0.96087 0.0
O109 O 0.22121 0.9538 0.92911 0.0
C110 C 0.1654 0.9169 0.96922 0.0
C111 C 0.23297 0.95231 0.94287 0.0
C112 C 0.08745 0.24912 0.97018 0.0
C113 C 0.05214 0.2813 0.94368 0.0
O114 O 0.07918 0.2423 0.95107 0.0
Zn115 Zn 0.06111 0.24738 0.92784 0.0
O116 O 0.08544 0.26246 0.97965 0.0
Zn117 Zn 0.06957 0.26503 0.95686 0.0
O118 O 0.04192 0.23803 0.95943 0.0
O119 O 0.03709 0.22259 0.92702 0.0
O120 O 0.06194 0.2844 0.96172 0.0
O121 O 0.05074 0.26811 0.92986 0.0
O122 O 0.07678 0.25555 0.90093 0.0
O123 O 0.08937 0.27705 0.92857 0.0
C124 C 0.03125 0.22324 0.94677 0.0
C125 C 0.09031 0.2719 0.9083 0.0
C126 C 0.83977 0.75373 0.53213 0.0
C127 C 0.77222 0.72213 0.55844 0.0
O128 O 0.83834 0.7607 0.55113 0.0
Zn129 Zn 0.81518 0.75593 0.57422 0.0
O130 O 0.82441 0.74039 0.52267 0.0
Zn131 Zn 0.80594 0.73811 0.5453 0.0
O132 O 0.80568 0.76526 0.54236 0.0
O133 O 0.81611 0.78082 0.57473 0.0
O134 O 0.77887 0.71889 0.54045 0.0
O135 O 0.78406 0.73534 0.5722 0.0
O136 O 0.82251 0.7478 0.60129 0.0
O137 O 0.81348 0.72613 0.57382 0.0
C138 C 0.80983 0.78014 0.55486 0.0
C139 C 0.81954 0.73135 0.59409 0.0
C140 C 0.2721 0.08918 0.59294 0.0
C141 C 0.22348 0.0298 0.55492 0.0
O142 O 0.27722 0.0881 0.57269 0.0
Zn143 Zn 0.26517 0.0681 0.54455 0.0
O144 O 0.25575 0.07571 0.6004 0.0
Zn145 Zn 0.24757 0.05985 0.57364 0.0
O146 O 0.26845 0.04965 0.57188 0.0
O147 O 0.28457 0.06048 0.53986 0.0
O148 O 0.22282 0.03575 0.57462 0.0
O149 O 0.23823 0.04041 0.54222 0.0
O150 O 0.26247 0.08376 0.52158 0.0
O151 O 0.24244 0.07776 0.55023 0.0
C152 C 0.28161 0.05095 0.55809 0.0
C153 C 0.24918 0.08586 0.53104 0.0
C154 C 0.91619 0.18469 0.59379 0.0
C155 C 0.97471 0.19529 0.55385 0.0
O156 O 0.9167 0.19055 0.57349 0.0
Zn157 Zn 0.93601 0.19837 0.54478 0.0
O158 O 0.92997 0.18216 0.60085 0.0
Zn159 Zn 0.94515 0.1895 0.57351 0.0
O160 O 0.95546 0.22058 0.57123 0.0
O161 O 0.94306 0.22523 0.54005 0.0
O162 O 0.96919 0.18883 0.57368 0.0
O163 O 0.96379 0.19929 0.54148 0.0
O164 O 0.91984 0.1797 0.5223 0.0
O165 O 0.92669 0.16611 0.55069 0.0
C166 C 0.95347 0.23215 0.55765 0.0
C167 C 0.91807 0.16446 0.5318 0.0
C168 C 0.93919 0.51697 0.42637 0.0
C169 C 0.89193 0.52907 0.38717 0.0
O170 O 0.92273 0.51409 0.43338 0.0
Zn171 Zn 0.91518 0.52229 0.40642 0.0
O172 O 0.94475 0.5234 0.4063 0.0
Zn173 Zn 0.93352 0.53175 0.37788 0.0
O174 O 0.95333 0.55868 0.37372 0.0
O175 O 0.93637 0.55336 0.40513 0.0
O176 O 0.90697 0.53328 0.37493 0.0
O177 O 0.89054 0.52186 0.40668 0.0
O178 O 0.90992 0.49948 0.38272 0.0
O179 O 0.9311 0.51334 0.355 0.0
C180 C 0.94997 0.56522 0.39174 0.0
C181 C 0.91712 0.49809 0.36388 0.0
C182 C 0.47623 0.36317 0.38878 0.0
C183 C 0.48684 0.42183 0.42845 0.0
O184 O 0.48252 0.36864 0.40869 0.0
Zn185 Zn 0.4821 0.39281 0.40828 0.0
O186 O 0.47239 0.37415 0.37631 0.0
Zn187 Zn 0.47322 0.40191 0.37952 0.0
O188 O 0.49194 0.41833 0.35722 0.0
O189 O 0.50542 0.41076 0.38514 0.0
O190 O 0.48082 0.42117 0.4082 0.0
O191 O 0.48964 0.40821 0.43548 0.0
O192 O 0.45104 0.38267 0.40609 0.0
O193 O 0.4463 0.39452 0.37453 0.0
C194 C 0.50708 0.41959 0.3664 0.0
C195 C 0.43942 0.38441 0.39234 0.0
C196 C 0.58509 0.08751 0.36543 0.0
C197 C 0.61987 0.05532 0.39353 0.0
O198 O 0.58641 0.0735 0.35675 0.0
Zn199 Zn 0.60265 0.07151 0.37959 0.0
O200 O 0.59383 0.09502 0.38411 0.0
Zn201 Zn 0.61175 0.09023 0.40777 0.0
O202 O 0.63587 0.11492 0.40751 0.0
O203 O 0.63065 0.09806 0.37605 0.0
O204 O 0.62176 0.0691 0.40673 0.0
O205 O 0.60974 0.05169 0.37568 0.0
O206 O 0.58334 0.06065 0.40828 0.0
O207 O 0.59631 0.08305 0.43495 0.0
C208 C 0.64153 0.11329 0.38801 0.0
C209 C 0.58266 0.06649 0.42827 0.0
C210 C 0.83266 0.58259 0.80176 0.0
C211 C 0.89969 0.61457 0.77383 0.0
O212 O 0.848 0.59662 0.81042 0.0
Zn213 Zn 0.86625 0.59848 0.78767 0.0
O214 O 0.83391 0.57502 0.78313 0.0
Zn215 Zn 0.85665 0.57969 0.75957 0.0
O216 O 0.85599 0.55496 0.75996 0.0
O217 O 0.86755 0.57186 0.79141 0.0
O218 O 0.8878 0.60079 0.76064 0.0
O219 O 0.89317 0.61824 0.79164 0.0
O220 O 0.85791 0.60931 0.75884 0.0
O221 O 0.84847 0.5868 0.73229 0.0
C222 C 0.86318 0.55659 0.77952 0.0
C223 C 0.85142 0.60341 0.73885 0.0
C224 C 0.39097 0.28651 0.77384 0.0
C225 C 0.4225 0.2503 0.79928 0.0
O226 O 0.38723 0.27585 0.79125 0.0
Zn227 Zn 0.40683 0.26854 0.7864 0.0
O228 O 0.40455 0.2885 0.76028 0.0
Zn229 Zn 0.42503 0.27782 0.75782 0.0
O230 O 0.41717 0.26289 0.73029 0.0
O231 O 0.39533 0.24956 0.75747 0.0
O232 O 0.42967 0.25906 0.7805 0.0
O233 O 0.409 0.25208 0.80869 0.0
O234 O 0.43388 0.29612 0.79007 0.0
O235 O 0.44988 0.30173 0.75793 0.0
C236 C 0.40074 0.24916 0.73717 0.0
C237 C 0.4489 0.30706 0.77786 0.0
C238 C 0.75398 0.17245 0.80133 0.0
C239 C 0.71896 0.10519 0.77394 0.0
O240 O 0.75195 0.15703 0.81059 0.0
Zn241 Zn 0.73616 0.13871 0.78758 0.0
O242 O 0.7457 0.17115 0.78228 0.0
Zn243 Zn 0.72756 0.14821 0.75892 0.0
O244 O 0.70352 0.14905 0.75866 0.0
O245 O 0.70825 0.13743 0.79039 0.0
O246 O 0.71736 0.11704 0.7604 0.0
O247 O 0.72884 0.11179 0.79195 0.0
O248 O 0.75585 0.14688 0.75915 0.0
O249 O 0.74314 0.15604 0.73191 0.0
C250 C 0.69758 0.14182 0.77813 0.0
C251 C 0.75671 0.15318 0.739 0.0
C252 C 0.42268 0.17271 0.30152 0.0
C253 C 0.39071 0.10555 0.27385 0.0
O254 O 0.42983 0.17149 0.28256 0.0
Zn255 Zn 0.42526 0.14864 0.25918 0.0
O256 O 0.4092 0.15725 0.31062 0.0
Zn257 Zn 0.4069 0.13901 0.28763 0.0
O258 O 0.4335 0.1377 0.29074 0.0
O259 O 0.45014 0.14951 0.25921 0.0
O260 O 0.38725 0.11208 0.2918 0.0
O261 O 0.40429 0.11744 0.26046 0.0
O262 O 0.41774 0.15653 0.23205 0.0
O263 O 0.39559 0.14718 0.25902 0.0
C264 C 0.44867 0.14217 0.27865 0.0
C265 C 0.4012 0.15354 0.23892 0.0
C266 C 0.86223 0.30692 0.2782 0.0
C267 C 0.85135 0.24846 0.2379 0.0
O268 O 0.86676 0.29621 0.29022 0.0
Zn269 Zn 0.8659 0.26849 0.28666 0.0
O270 O 0.85515 0.30122 0.25862 0.0
Zn271 Zn 0.85616 0.27734 0.25842 0.0
O272 O 0.83346 0.25911 0.28195 0.0
O273 O 0.84772 0.252 0.3094 0.0
O274 O 0.84818 0.26194 0.23121 0.0
O275 O 0.85784 0.24923 0.25792 0.0
O276 O 0.89291 0.276 0.29072 0.0
O277 O 0.88736 0.28774 0.25956 0.0
C278 C 0.83229 0.2504 0.30063 0.0
C279 C 0.89934 0.28608 0.27282 0.0
C280 C 0.75446 0.5831 0.30194 0.0
C281 C 0.71853 0.61441 0.27474 0.0
O282 O 0.74559 0.57553 0.28334 0.0
Zn283 Zn 0.72721 0.58 0.26002 0.0
O284 O 0.75296 0.59696 0.3108 0.0
Zn285 Zn 0.7363 0.59863 0.28826 0.0
O286 O 0.70863 0.57171 0.29206 0.0
O287 O 0.70336 0.55508 0.26041 0.0
O288 O 0.72879 0.61811 0.2925 0.0
O289 O 0.71677 0.60076 0.26142 0.0
O290 O 0.74243 0.58739 0.23267 0.0
O291 O 0.75539 0.60976 0.25937 0.0
C292 C 0.69784 0.55645 0.2801 0.0
C293 C 0.75601 0.60401 0.23932 0.0
C294 C 0.48703 0.06583 0.92685 0.0
C295 C 0.47598 0.1133 0.8865 0.0
O296 O 0.48065 0.06013 0.90678 0.0
Zn297 Zn 0.4726 0.0713 0.87801 0.0
O298 O 0.49005 0.08242 0.93358 0.0
Zn299 Zn 0.48205 0.08982 0.90637 0.0
O300 O 0.45099 0.06886 0.90508 0.0
O301 O 0.44555 0.05173 0.87382 0.0
O302 O 0.48257 0.11446 0.90631 0.0
O303 O 0.47186 0.09823 0.87435 0.0
O304 O 0.49095 0.07313 0.85543 0.0
O305 O 0.50492 0.09465 0.88284 0.0
C306 C 0.43906 0.05525 0.89176 0.0
C307 C 0.50625 0.08713 0.8642 0.0
C308 C 0.93806 0.42138 0.92942 0.0
C309 C 0.89047 0.36287 0.88912 0.0
O310 O 0.94371 0.42072 0.90932 0.0
Zn311 Zn 0.93245 0.4015 0.88053 0.0
O312 O 0.9215 0.40778 0.93619 0.0
Zn313 Zn 0.91404 0.39245 0.90894 0.0
O314 O 0.93498 0.3823 0.90748 0.0
O315 O 0.95199 0.39404 0.87616 0.0
O316 O 0.88938 0.36834 0.90894 0.0
O317 O 0.9055 0.37381 0.87691 0.0
O318 O 0.93061 0.41802 0.85803 0.0
O319 O 0.90925 0.41062 0.88557 0.0
C320 C 0.94853 0.38401 0.89407 0.0
C321 C 0.91673 0.41946 0.86692 0.0
C322 C 0.58271 0.51656 0.92845 0.0
C323 C 0.64172 0.52812 0.88891 0.0
O324 O 0.58347 0.52286 0.90832 0.0
Zn325 Zn 0.60304 0.53111 0.87978 0.0
O326 O 0.59634 0.51375 0.93544 0.0
Zn327 Zn 0.61181 0.52164 0.90834 0.0
O328 O 0.62191 0.55279 0.90693 0.0
O329 O 0.61023 0.55801 0.87551 0.0
O330 O 0.63587 0.52087 0.90839 0.0
O331 O 0.63097 0.5325 0.87676 0.0
O332 O 0.58716 0.51278 0.85682 0.0
O333 O 0.59362 0.49871 0.88502 0.0
C334 C 0.62019 0.56461 0.89347 0.0
C335 C 0.58524 0.49738 0.86604 0.0
C336 C 0.58279 0.83106 0.69899 0.0
C337 C 0.61556 0.89854 0.72563 0.0
O338 O 0.59688 0.84619 0.69006 0.0
Zn339 Zn 0.59916 0.86481 0.71249 0.0
O340 O 0.57551 0.83266 0.71768 0.0
Zn341 Zn 0.58092 0.85585 0.74105 0.0
O342 O 0.55645 0.85565 0.7413 0.0
O343 O 0.57233 0.86584 0.70906 0.0
O344 O 0.60203 0.88688 0.7392 0.0
O345 O 0.61888 0.89173 0.70782 0.0
O346 O 0.61045 0.85686 0.74123 0.0
O347 O 0.58844 0.848 0.76826 0.0
C348 C 0.55745 0.86203 0.72141 0.0
C349 C 0.60488 0.85073 0.76139 0.0
C350 C 0.10627 0.71797 0.72542 0.0
C351 C 0.17375 0.75329 0.69899 0.0
O352 O 0.11309 0.72828 0.70774 0.0
Zn353 Zn 0.13997 0.73558 0.71244 0.0
O354 O 0.11794 0.71608 0.73896 0.0
Zn355 Zn 0.1491 0.72633 0.74085 0.0
O356 O 0.15679 0.74155 0.76819 0.0
O357 O 0.14772 0.75465 0.74132 0.0
O358 O 0.17221 0.74441 0.71764 0.0
O359 O 0.15855 0.75207 0.69002 0.0
O360 O 0.13889 0.70772 0.70887 0.0
O361 O 0.14985 0.70232 0.74074 0.0
C362 C 0.15388 0.75519 0.76146 0.0
C363 C 0.14308 0.69681 0.72101 0.0
C364 C 0.28674 0.38931 0.72667 0.0
C365 C 0.25111 0.42122 0.70046 0.0
O366 O 0.27596 0.38539 0.70934 0.0
Zn367 Zn 0.26889 0.40522 0.71382 0.0
O368 O 0.28889 0.40309 0.74 0.0
Zn369 Zn 0.27843 0.42376 0.7421 0.0
O370 O 0.26339 0.41629 0.76961 0.0
O371 O 0.24997 0.39417 0.74275 0.0
O372 O 0.26018 0.42872 0.719 0.0
O373 O 0.25225 0.40718 0.69155 0.0
O374 O 0.29672 0.43214 0.70991 0.0
O375 O 0.30245 0.44839 0.74191 0.0
C376 C 0.24959 0.39983 0.76292 0.0
C377 C 0.30778 0.4472 0.72205 0.0
C378 C 0.49898 0.91667 0.13564 0.0
C379 C 0.56614 0.94839 0.108 0.0
O380 O 0.51445 0.93016 0.14475 0.0
Zn381 Zn 0.53268 0.93239 0.12177 0.0
O382 O 0.5002 0.90951 0.11669 0.0
Zn383 Zn 0.52298 0.91402 0.09329 0.0
O384 O 0.522 0.88907 0.09332 0.0
O385 O 0.53381 0.90569 0.12487 0.0
O386 O 0.55419 0.93484 0.09462 0.0
O387 O 0.55966 0.95193 0.12595 0.0
O388 O 0.52462 0.94381 0.09319 0.0
O389 O 0.51516 0.92168 0.06618 0.0
C390 C 0.52929 0.8905 0.11278 0.0
C391 C 0.51824 0.93825 0.07308 0.0
C392 C 0.1143 0.64019 0.11353 0.0
C393 C 0.06615 0.58149 0.07394 0.0
O394 O 0.11522 0.63461 0.09372 0.0
Zn395 Zn 0.09042 0.61054 0.09397 0.0
O396 O 0.09933 0.6294 0.12585 0.0
Zn397 Zn 0.07232 0.60185 0.12268 0.0
O398 O 0.07453 0.58573 0.14545 0.0
O399 O 0.09513 0.59228 0.11728 0.0
O400 O 0.06072 0.58231 0.09412 0.0
O401 O 0.08263 0.59503 0.06689 0.0
O402 O 0.0696 0.6208 0.09554 0.0
O403 O 0.05291 0.60949 0.12713 0.0
C404 C 0.08803 0.58384 0.13623 0.0
C405 C 0.05621 0.61932 0.10909 0.0
C406 C 0.38516 0.43837 0.10828 0.0
C407 C 0.42092 0.50606 0.1343 0.0
O408 O 0.39501 0.44508 0.12629 0.0
Zn409 Zn 0.40269 0.47213 0.12142 0.0
O410 O 0.38366 0.45013 0.09454 0.0
Zn411 Zn 0.39387 0.48116 0.09249 0.0
O412 O 0.40921 0.48852 0.06532 0.0
O413 O 0.4221 0.47975 0.09277 0.0
O414 O 0.41236 0.50445 0.11536 0.0
O415 O 0.41898 0.49078 0.14388 0.0
O416 O 0.37522 0.47171 0.12456 0.0
O417 O 0.36982 0.48192 0.09221 0.0
C418 C 0.42281 0.48573 0.07248 0.0
C419 C 0.36436 0.47573 0.11214 0.0
C420 C 0.06759 0.4865 0.57201 0.0
C421 C 0.11447 0.47516 0.61324 0.0
O422 O 0.06177 0.48027 0.59208 0.0
Zn423 Zn 0.0725 0.47211 0.62103 0.0
O424 O 0.08413 0.48926 0.56545 0.0
Zn425 Zn 0.09133 0.48137 0.59296 0.0
O426 O 0.07044 0.45022 0.59453 0.0
O427 O 0.0525 0.44526 0.62505 0.0
O428 O 0.11605 0.48211 0.59355 0.0
O429 O 0.09919 0.47086 0.62508 0.0
O430 O 0.0744 0.4906 0.6435 0.0
O431 O 0.09611 0.50434 0.61626 0.0
C432 C 0.05646 0.43853 0.60762 0.0
C433 C 0.08854 0.50581 0.63477 0.0
C434 C 0.52842 0.64039 0.61234 0.0
C435 C 0.51831 0.58183 0.57282 0.0
O436 O 0.53295 0.62981 0.62458 0.0
Zn437 Zn 0.53226 0.6022 0.62157 0.0
O438 O 0.52149 0.63456 0.59274 0.0
Zn439 Zn 0.52275 0.61075 0.59286 0.0
O440 O 0.49979 0.59226 0.61599 0.0
O441 O 0.51389 0.58605 0.64436 0.0
O442 O 0.51526 0.59529 0.56573 0.0
O443 O 0.52452 0.58269 0.59302 0.0
O444 O 0.55927 0.60987 0.62609 0.0
O445 O 0.55396 0.62134 0.59457 0.0
C446 C 0.49845 0.5839 0.63498 0.0
C447 C 0.56585 0.61986 0.60815 0.0
C448 C 0.42104 0.9168 0.63534 0.0
C449 C 0.3851 0.94829 0.60864 0.0
O450 O 0.41259 0.90975 0.61639 0.0
Zn451 Zn 0.39405 0.9142 0.59335 0.0
O452 O 0.41896 0.93012 0.64476 0.0
Zn453 Zn 0.40275 0.93235 0.62203 0.0
O454 O 0.37509 0.90545 0.62515 0.0
O455 O 0.37025 0.88916 0.59333 0.0
O456 O 0.39518 0.95178 0.62652 0.0
O457 O 0.38351 0.93485 0.59511 0.0
O458 O 0.40942 0.92207 0.56617 0.0
O459 O 0.42218 0.94398 0.5934 0.0
C460 C 0.36447 0.89032 0.61295 0.0
C461 C 0.42295 0.93856 0.5732 0.0
C462 C 0.15308 0.39887 0.26035 0.0
C463 C 0.14284 0.44741 0.22142 0.0
O464 O 0.14719 0.3937 0.24001 0.0
Zn465 Zn 0.13965 0.40572 0.21149 0.0
O466 O 0.15581 0.41521 0.26761 0.0
Zn467 Zn 0.14853 0.42334 0.24052 0.0
O468 O 0.11745 0.40252 0.23814 0.0
O469 O 0.11275 0.3863 0.2063 0.0
O470 O 0.1492 0.44807 0.24124 0.0
O471 O 0.13889 0.43266 0.20876 0.0
O472 O 0.15832 0.40836 0.18897 0.0
O473 O 0.17194 0.42851 0.21761 0.0
C474 C 0.10584 0.38934 0.2242 0.0
C475 C 0.17357 0.42171 0.19858 0.0
C476 C 0.60538 0.75527 0.26127 0.0
C477 C 0.55769 0.69712 0.22053 0.0
O478 O 0.61101 0.75477 0.24111 0.0
Zn479 Zn 0.59971 0.73576 0.21215 0.0
O480 O 0.58883 0.74162 0.26798 0.0
Zn481 Zn 0.58132 0.72648 0.24059 0.0
O482 O 0.6022 0.71628 0.23876 0.0
O483 O 0.6192 0.72825 0.20748 0.0
O484 O 0.55666 0.70239 0.24047 0.0
O485 O 0.5727 0.70816 0.20835 0.0
O486 O 0.59783 0.75246 0.18989 0.0
O487 O 0.57645 0.74477 0.21747 0.0
C488 C 0.61572 0.71805 0.22525 0.0
C489 C 0.58391 0.75376 0.19888 0.0
C490 C 0.24936 0.85168 0.26128 0.0
C491 C 0.30802 0.86201 0.22192 0.0
O492 O 0.25002 0.8576 0.24097 0.0
Zn493 Zn 0.26948 0.86518 0.21232 0.0
O494 O 0.263 0.84894 0.26842 0.0
Zn495 Zn 0.2783 0.85625 0.24124 0.0
O496 O 0.28849 0.88732 0.23903 0.0
O497 O 0.27695 0.89213 0.20727 0.0
O498 O 0.30238 0.85562 0.24175 0.0
O499 O 0.29718 0.86597 0.20938 0.0
O500 O 0.25336 0.8465 0.18982 0.0
O501 O 0.25993 0.83287 0.21839 0.0
C502 C 0.28689 0.89897 0.22519 0.0
C503 C 0.25144 0.83124 0.19941 0.0
H504 H 0.2667 0.17181 0.13759 0.0
H505 H 0.28891 0.16696 0.16209 0.0
H506 H 0.33096 0.18457 0.10804 0.0
H507 H 0.30901 0.18967 0.08351 0.0
H508 H 0.30447 0.14193 0.15554 0.0
H509 H 0.36333 0.21992 0.16056 0.0
H510 H 0.33897 0.21256 0.15055 0.0
H511 H 0.35623 0.2107 0.1324 0.0
C512 C 0.28069 0.17471 0.13092 0.0
C513 C 0.28612 0.18123 0.10862 0.0
C514 C 0.29335 0.17192 0.14494 0.0
C515 C 0.31169 0.17571 0.13697 0.0
C516 C 0.31704 0.18195 0.11465 0.0
H517 H 0.40799 0.1665 0.19519 0.0
H518 H 0.38608 0.17149 0.1703 0.0
C519 C 0.30441 0.18474 0.10062 0.0
C520 C 0.32507 0.17274 0.15187 0.0
H521 H 0.37039 0.19645 0.17625 0.0
C522 C 0.31885 0.15385 0.16017 0.0
C523 C 0.34384 0.18833 0.15778 0.0
C524 C 0.35098 0.20906 0.15005 0.0
C525 C 0.33103 0.15005 0.17397 0.0
C526 C 0.34977 0.16564 0.17994 0.0
C527 C 0.35602 0.18453 0.1716 0.0
C528 C 0.36303 0.1627 0.19507 0.0
C529 C 0.32388 0.1293 0.18169 0.0
C530 C 0.35745 0.15642 0.21733 0.0
C531 C 0.3699 0.15354 0.23158 0.0
C532 C 0.38825 0.15702 0.22387 0.0
C533 C 0.39394 0.16363 0.20164 0.0
C534 C 0.38146 0.1665 0.1874 0.0
H535 H 0.31166 0.11846 0.17102 0.0
H536 H 0.33592 0.12586 0.18141 0.0
H537 H 0.31842 0.1276 0.19925 0.0
H538 H 0.34346 0.1538 0.22373 0.0
H539 H 0.36509 0.14856 0.24863 0.0
H540 H 0.8327 0.09541 0.13688 0.0
H541 H 0.83767 0.12262 0.16123 0.0
H542 H 0.81975 0.14674 0.10715 0.0
H543 H 0.81455 0.11956 0.08277 0.0
H544 H 0.86269 0.16323 0.15425 0.0
H545 H 0.78473 0.14406 0.15993 0.0
H546 H 0.79203 0.12699 0.15001 0.0
H547 H 0.79375 0.14595 0.1317 0.0
C548 C 0.82976 0.10647 0.13017 0.0
C549 C 0.82313 0.10525 0.1079 0.0
C550 C 0.83262 0.12201 0.14411 0.0
C551 C 0.82879 0.13651 0.13609 0.0
C552 C 0.82242 0.13548 0.1138 0.0
H553 H 0.83814 0.24223 0.19425 0.0
H554 H 0.83309 0.21532 0.16928 0.0
C555 C 0.81956 0.11998 0.09986 0.0
C556 C 0.83185 0.15296 0.15088 0.0
H557 H 0.80829 0.17468 0.17536 0.0
C558 C 0.8508 0.16571 0.15896 0.0
C559 C 0.8163 0.15616 0.15689 0.0
C560 C 0.79551 0.14249 0.14937 0.0
C561 C 0.85469 0.18178 0.17267 0.0
C562 C 0.83913 0.18494 0.17875 0.0
C563 C 0.82019 0.17223 0.17061 0.0
C564 C 0.84215 0.20118 0.19389 0.0
C565 C 0.87549 0.19545 0.18016 0.0
C566 C 0.84861 0.20195 0.21608 0.0
C567 C 0.85152 0.21727 0.23036 0.0
C568 C 0.84789 0.23208 0.22276 0.0
C569 C 0.84112 0.2311 0.2006 0.0
C570 C 0.83822 0.21574 0.18632 0.0
H571 H 0.88626 0.19408 0.16934 0.0
H572 H 0.87889 0.21093 0.17987 0.0
H573 H 0.87736 0.19176 0.19768 0.0
H574 H 0.85133 0.19063 0.2224 0.0
H575 H 0.85663 0.21748 0.24735 0.0
H576 H 0.76204 0.59685 0.19565 0.0
H577 H 0.78926 0.61827 0.17081 0.0
H578 H 0.81402 0.66157 0.22359 0.0
H579 H 0.78708 0.64026 0.24858 0.0
H580 H 0.80065 0.65666 0.1567 0.0
H581 H 0.86016 0.6546 0.20445 0.0
H582 H 0.83456 0.63717 0.20912 0.0
H583 H 0.8454 0.66135 0.22107 0.0
C584 C 0.77333 0.61089 0.20201 0.0
C585 C 0.77243 0.61679 0.22415 0.0
C586 C 0.78885 0.62311 0.18779 0.0
C587 C 0.8038 0.64136 0.19549 0.0
C588 C 0.80285 0.64737 0.21747 0.0
H589 H 0.90844 0.73831 0.13738 0.0
H590 H 0.88101 0.71635 0.16162 0.0
C591 C 0.78736 0.63519 0.23169 0.0
C592 C 0.82013 0.65441 0.18036 0.0
H593 H 0.86994 0.67801 0.17493 0.0
C594 C 0.8158 0.66125 0.16058 0.0
C595 C 0.83987 0.66039 0.18554 0.0
C596 C 0.84533 0.65288 0.20609 0.0
C597 C 0.83072 0.67426 0.14606 0.0
C598 C 0.85046 0.6803 0.15129 0.0
C599 C 0.85479 0.6734 0.17102 0.0
C600 C 0.86686 0.69367 0.13642 0.0
C601 C 0.82527 0.6818 0.12552 0.0
C602 C 0.86808 0.68809 0.1143 0.0
C603 C 0.88369 0.70059 0.1004 0.0
C604 C 0.89848 0.71888 0.10841 0.0
C605 C 0.89728 0.72437 0.13065 0.0
C606 C 0.88164 0.71184 0.14454 0.0
H607 H 0.81036 0.67989 0.12706 0.0
H608 H 0.83593 0.69756 0.12266 0.0
H609 H 0.82541 0.67349 0.11049 0.0
H610 H 0.85705 0.67396 0.10785 0.0
H611 H 0.88421 0.69585 0.08341 0.0
H612 H 0.17267 0.2646 0.36113 0.0
H613 H 0.16757 0.28655 0.33645 0.0
H614 H 0.18414 0.32848 0.39051 0.0
H615 H 0.18952 0.30682 0.41521 0.0
H616 H 0.14206 0.30145 0.34227 0.0
H617 H 0.21963 0.36136 0.33855 0.0
H618 H 0.21258 0.33711 0.34867 0.0
H619 H 0.21017 0.35418 0.3666 0.0
C620 C 0.17528 0.27852 0.36776 0.0
C621 C 0.18161 0.284 0.39012 0.0
C622 C 0.17235 0.29102 0.35364 0.0
C623 C 0.17578 0.30926 0.36155 0.0
C624 C 0.18181 0.31465 0.38393 0.0
H625 H 0.16523 0.40492 0.30436 0.0
H626 H 0.17028 0.38285 0.32887 0.0
C627 C 0.18476 0.30218 0.39806 0.0
C628 C 0.17269 0.3225 0.34654 0.0
H629 H 0.19592 0.36807 0.32275 0.0
C630 C 0.15384 0.31598 0.33789 0.0
C631 C 0.18809 0.34145 0.34092 0.0
C632 C 0.20881 0.34893 0.34898 0.0
C633 C 0.1499 0.32806 0.32408 0.0
C634 C 0.1653 0.34702 0.31849 0.0
C635 C 0.18415 0.35353 0.32712 0.0
C636 C 0.16219 0.3603 0.30358 0.0
C637 C 0.1292 0.32059 0.31599 0.0
C638 C 0.15624 0.35504 0.28116 0.0
C639 C 0.15333 0.36759 0.26712 0.0
C640 C 0.15643 0.38572 0.2752 0.0
C641 C 0.16265 0.39106 0.29761 0.0
C642 C 0.16556 0.37848 0.31164 0.0
H643 H 0.11837 0.30807 0.32632 0.0
H644 H 0.12538 0.33238 0.31644 0.0
H645 H 0.12788 0.31547 0.29832 0.0
H646 H 0.15395 0.34126 0.27447 0.0
H647 H 0.14865 0.36307 0.24992 0.0
H648 H 0.64135 0.78671 0.25178 0.0
H649 H 0.66281 0.81346 0.27693 0.0
H650 H 0.62036 0.78761 0.3304 0.0
H651 H 0.5986 0.76083 0.30525 0.0
H652 H 0.63544 0.82813 0.32508 0.0
H653 H 0.69516 0.81026 0.32909 0.0
H654 H 0.68825 0.81277 0.30099 0.0
H655 H 0.67098 0.79318 0.31864 0.0
C656 C 0.63655 0.78665 0.2689 0.0
C657 C 0.61827 0.77156 0.27653 0.0
C658 C 0.64891 0.80191 0.28329 0.0
C659 C 0.64332 0.80233 0.30563 0.0
C660 C 0.62499 0.78747 0.31324 0.0
H661 H 0.69681 0.88299 0.41773 0.0
H662 H 0.67505 0.85591 0.3931 0.0
C663 C 0.61259 0.77218 0.29885 0.0
C664 C 0.65645 0.81851 0.32088 0.0
H665 H 0.70192 0.8407 0.34493 0.0
C666 C 0.64993 0.83083 0.32955 0.0
C667 C 0.67536 0.822 0.3266 0.0
C668 C 0.68284 0.80876 0.31853 0.0
C669 C 0.66198 0.84681 0.34345 0.0
C670 C 0.68091 0.85033 0.34911 0.0
C671 C 0.68741 0.83798 0.34049 0.0
C672 C 0.69418 0.86671 0.36407 0.0
C673 C 0.65451 0.86005 0.35153 0.0
C674 C 0.71239 0.8815 0.35608 0.0
C675 C 0.72494 0.89698 0.37016 0.0
C676 C 0.71955 0.89786 0.39254 0.0
C677 C 0.70138 0.88284 0.40055 0.0
C678 C 0.68886 0.86739 0.38647 0.0
H679 H 0.64203 0.8584 0.34116 0.0
H680 H 0.64934 0.85622 0.36918 0.0
H681 H 0.66632 0.87565 0.35114 0.0
H682 H 0.71681 0.88116 0.33888 0.0
H683 H 0.73884 0.90827 0.36347 0.0
H684 H 0.0958 0.83185 0.36307 0.0
H685 H 0.12286 0.8371 0.3383 0.0
H686 H 0.14839 0.82058 0.39218 0.0
H687 H 0.12135 0.81507 0.41697 0.0
H688 H 0.16329 0.86267 0.344 0.0
H689 H 0.14568 0.78512 0.34009 0.0
H690 H 0.12848 0.79213 0.35032 0.0
H691 H 0.14801 0.79457 0.36816 0.0
C692 C 0.10715 0.82929 0.36965 0.0
C693 C 0.10635 0.82293 0.39198 0.0
C694 C 0.12259 0.83231 0.35547 0.0
C695 C 0.13744 0.82892 0.3633 0.0
C696 C 0.13686 0.82288 0.38566 0.0
H697 H 0.24343 0.83949 0.30528 0.0
H698 H 0.21643 0.83445 0.33 0.0
C699 C 0.12144 0.81985 0.39984 0.0
C700 C 0.15375 0.83205 0.34821 0.0
H701 H 0.176 0.80884 0.32413 0.0
C702 C 0.16603 0.8509 0.33955 0.0
C703 C 0.15728 0.81665 0.34249 0.0
C704 C 0.14408 0.79593 0.35056 0.0
C705 C 0.182 0.85486 0.32562 0.0
C706 C 0.18555 0.83946 0.31993 0.0
C707 C 0.17326 0.82061 0.32858 0.0
C708 C 0.20188 0.84259 0.30489 0.0
C709 C 0.1952 0.87557 0.31753 0.0
C710 C 0.20249 0.84856 0.2825 0.0
C711 C 0.21789 0.85147 0.26834 0.0
C712 C 0.23293 0.84833 0.27626 0.0
C713 C 0.23213 0.84209 0.29865 0.0
C714 C 0.21671 0.83919 0.3128 0.0
H715 H 0.19355 0.88639 0.32794 0.0
H716 H 0.2108 0.87939 0.31784 0.0
H717 H 0.19131 0.87689 0.2999 0.0
H718 H 0.19098 0.85087 0.27593 0.0
H719 H 0.21797 0.85617 0.25117 0.0
H720 H 0.59815 0.8382 0.8053 0.0
H721 H 0.61992 0.83305 0.83026 0.0
H722 H 0.66225 0.84974 0.77663 0.0
H723 H 0.64077 0.85514 0.75166 0.0
H724 H 0.63502 0.80757 0.8246 0.0
H725 H 0.69465 0.88523 0.8289 0.0
H726 H 0.67044 0.87812 0.81859 0.0
H727 H 0.68767 0.87589 0.80077 0.0
C728 C 0.61211 0.84082 0.79882 0.0
C729 C 0.61776 0.84719 0.77651 0.0
C730 C 0.62452 0.83786 0.8131 0.0
C731 C 0.64282 0.84132 0.80539 0.0
C732 C 0.64836 0.84738 0.78306 0.0
H733 H 0.73851 0.83101 0.86274 0.0
H734 H 0.71642 0.83607 0.83828 0.0
C735 C 0.636 0.85035 0.76877 0.0
C736 C 0.65598 0.83824 0.82054 0.0
H737 H 0.70145 0.86154 0.84459 0.0
C738 C 0.6495 0.81938 0.8291 0.0
C739 C 0.67488 0.85368 0.8263 0.0
C740 C 0.68231 0.87442 0.81835 0.0
C741 C 0.66158 0.81543 0.84292 0.0
C742 C 0.6805 0.83086 0.84863 0.0
C743 C 0.68696 0.84974 0.84012 0.0
C744 C 0.69379 0.82774 0.86351 0.0
C745 C 0.65416 0.7947 0.85087 0.0
C746 C 0.6885 0.82165 0.88588 0.0
C747 C 0.70106 0.81873 0.89989 0.0
C748 C 0.71924 0.82197 0.89183 0.0
C749 C 0.72461 0.82833 0.86947 0.0
C750 C 0.71202 0.83125 0.85547 0.0
H751 H 0.64169 0.78389 0.84047 0.0
H752 H 0.666 0.79095 0.8504 0.0
H753 H 0.64899 0.79328 0.86853 0.0
H754 H 0.67467 0.81926 0.89256 0.0
H755 H 0.6965 0.81394 0.91705 0.0
H756 H 0.19027 0.88325 0.91762 0.0
H757 H 0.18498 0.85611 0.8931 0.0
H758 H 0.16791 0.8809 0.83892 0.0
H759 H 0.17295 0.90806 0.8634 0.0
H760 H 0.14257 0.8404 0.84529 0.0
H761 H 0.22031 0.85867 0.84086 0.0
H762 H 0.21098 0.85657 0.86895 0.0
H763 H 0.21317 0.87585 0.85083 0.0
C764 C 0.18542 0.88299 0.90048 0.0
C765 C 0.18211 0.89789 0.89245 0.0
C766 C 0.18252 0.86751 0.88645 0.0
C767 C 0.17637 0.86668 0.8641 0.0
C768 C 0.17279 0.88136 0.8561 0.0
H769 H 0.1491 0.78648 0.75203 0.0
H770 H 0.15435 0.81322 0.77717 0.0
C771 C 0.17569 0.89686 0.87011 0.0
C772 C 0.17329 0.85028 0.8492 0.0
H773 H 0.1967 0.8283 0.82496 0.0
C774 C 0.1544 0.83779 0.84075 0.0
C775 C 0.18876 0.84689 0.8434 0.0
C776 C 0.20949 0.86028 0.85129 0.0
C777 C 0.1505 0.82179 0.82689 0.0
C778 C 0.16599 0.81844 0.82103 0.0
C779 C 0.18486 0.8309 0.82953 0.0
C780 C 0.16297 0.80226 0.80579 0.0
C781 C 0.12977 0.8084 0.81901 0.0
C782 C 0.16659 0.78749 0.81336 0.0
C783 C 0.16371 0.7722 0.79898 0.0
C784 C 0.15728 0.77149 0.77671 0.0
C785 C 0.15395 0.78649 0.76911 0.0
C786 C 0.15682 0.80175 0.78349 0.0
H787 H 0.11895 0.80984 0.82965 0.0
H788 H 0.1282 0.81231 0.80147 0.0
H789 H 0.12616 0.79285 0.81916 0.0
H790 H 0.17147 0.78771 0.83048 0.0
H791 H 0.16647 0.76092 0.80535 0.0
H792 H 0.09692 0.26589 0.86446 0.0
H793 H 0.12441 0.28794 0.84035 0.0
H794 H 0.1486 0.32983 0.89459 0.0
H795 H 0.12136 0.30786 0.91889 0.0
H796 H 0.13572 0.32657 0.82765 0.0
H797 H 0.19502 0.32353 0.87481 0.0
H798 H 0.16941 0.30595 0.87907 0.0
H799 H 0.18006 0.32988 0.89163 0.0
C800 C 0.10814 0.27975 0.87131 0.0
C801 C 0.10698 0.28507 0.89365 0.0
C802 C 0.12382 0.29233 0.8575 0.0
C803 C 0.13867 0.31037 0.86579 0.0
C804 C 0.1375 0.31579 0.88801 0.0
H805 H 0.24397 0.40686 0.8068 0.0
H806 H 0.21674 0.38554 0.8317 0.0
C807 C 0.12184 0.30324 0.90183 0.0
C808 C 0.1551 0.32379 0.851 0.0
H809 H 0.20487 0.34694 0.84537 0.0
C810 C 0.15084 0.33098 0.83146 0.0
C811 C 0.17479 0.32956 0.8561 0.0
C812 C 0.18016 0.32172 0.87643 0.0
C813 C 0.16579 0.34399 0.81698 0.0
C814 C 0.18548 0.34969 0.82201 0.0
C815 C 0.18975 0.34258 0.84161 0.0
C816 C 0.20182 0.36267 0.80686 0.0
C817 C 0.16041 0.35181 0.79664 0.0
C818 C 0.20255 0.35675 0.78477 0.0
C819 C 0.21804 0.36886 0.77052 0.0
C820 C 0.23319 0.38711 0.77813 0.0
C821 C 0.23251 0.39293 0.80038 0.0
C822 C 0.21699 0.38077 0.81463 0.0
H823 H 0.14569 0.35032 0.79847 0.0
H824 H 0.17134 0.36749 0.79371 0.0
H825 H 0.16011 0.34338 0.78152 0.0
H826 H 0.19121 0.34265 0.77859 0.0
H827 H 0.21814 0.36386 0.75355 0.0
H828 H 0.81441 0.69526 0.5838 0.0
H829 H 0.81926 0.67318 0.60842 0.0
H830 H 0.83709 0.71535 0.66238 0.0
H831 H 0.83207 0.73748 0.63797 0.0
H832 H 0.85349 0.67981 0.63045 0.0
H833 H 0.79418 0.66476 0.69153 0.0
H834 H 0.79589 0.67579 0.66434 0.0
H835 H 0.8113 0.69032 0.68717 0.0
C836 C 0.81932 0.69985 0.60092 0.0
C837 C 0.82276 0.71811 0.60895 0.0
C838 C 0.82209 0.6872 0.61496 0.0
C839 C 0.82825 0.6925 0.63731 0.0
C840 C 0.83195 0.71081 0.64531 0.0
H841 H 0.8561 0.63948 0.74805 0.0
H842 H 0.8505 0.6607 0.72285 0.0
C843 C 0.82918 0.72349 0.63129 0.0
C844 C 0.83116 0.67901 0.65208 0.0
H845 H 0.81568 0.65295 0.70108 0.0
C846 C 0.84516 0.67384 0.64584 0.0
C847 C 0.82025 0.67126 0.67212 0.0
C848 C 0.80443 0.67564 0.67915 0.0
C849 C 0.84887 0.66144 0.65938 0.0
C850 C 0.83803 0.65377 0.67948 0.0
C851 C 0.82397 0.65887 0.68566 0.0
C852 C 0.84131 0.64071 0.69458 0.0
C853 C 0.86469 0.65705 0.65237 0.0
C854 C 0.83776 0.62231 0.6871 0.0
C855 C 0.84096 0.61011 0.70147 0.0
C856 C 0.84768 0.61608 0.72361 0.0
C857 C 0.85098 0.63443 0.7311 0.0
C858 C 0.84777 0.64659 0.71673 0.0
H859 H 0.87471 0.66767 0.63963 0.0
H860 H 0.87348 0.65733 0.66713 0.0
H861 H 0.85779 0.64218 0.64483 0.0
H862 H 0.83242 0.61734 0.67019 0.0
H863 H 0.83819 0.59603 0.69521 0.0
H864 H 0.40726 0.24354 0.69311 0.0
H865 H 0.38532 0.21673 0.66808 0.0
H866 H 0.34312 0.19108 0.72183 0.0
H867 H 0.36477 0.21783 0.74686 0.0
H868 H 0.37011 0.17608 0.67371 0.0
H869 H 0.31068 0.19438 0.6697 0.0
H870 H 0.33496 0.21144 0.6799 0.0
H871 H 0.31773 0.19205 0.6978 0.0
C872 C 0.39328 0.23223 0.69959 0.0
C873 C 0.38773 0.23289 0.72196 0.0
C874 C 0.38078 0.21693 0.68527 0.0
C875 C 0.36248 0.20212 0.69301 0.0
C876 C 0.35701 0.20259 0.71539 0.0
H877 H 0.26631 0.09596 0.63681 0.0
H878 H 0.28863 0.12335 0.66087 0.0
C879 C 0.36947 0.21785 0.72971 0.0
C880 C 0.34925 0.1859 0.67787 0.0
H881 H 0.30365 0.16375 0.65415 0.0
C882 C 0.35563 0.17344 0.66929 0.0
C883 C 0.33035 0.18249 0.67221 0.0
C884 C 0.32304 0.19588 0.68019 0.0
C885 C 0.34343 0.15737 0.65559 0.0
C886 C 0.3245 0.15391 0.65002 0.0
C887 C 0.31816 0.16642 0.65851 0.0
C888 C 0.31105 0.13738 0.63536 0.0
C889 C 0.35073 0.14395 0.64764 0.0
C890 C 0.31615 0.13637 0.61296 0.0
C891 C 0.30346 0.12075 0.59918 0.0
C892 C 0.28535 0.10589 0.6075 0.0
C893 C 0.28016 0.10711 0.62988 0.0
C894 C 0.29288 0.12276 0.64365 0.0
H895 H 0.36327 0.14565 0.65793 0.0
H896 H 0.33887 0.12838 0.64829 0.0
H897 H 0.35575 0.14755 0.62992 0.0
H898 H 0.32993 0.14772 0.60609 0.0
H899 H 0.30788 0.12033 0.582 0.0
H900 H 0.91025 0.17226 0.63773 0.0
H901 H 0.88291 0.16654 0.66229 0.0
H902 H 0.85772 0.18361 0.60856 0.0
H903 H 0.88478 0.18915 0.58382 0.0
H904 H 0.87113 0.19334 0.67546 0.0
H905 H 0.81195 0.13069 0.62861 0.0
H906 H 0.8376 0.13908 0.62398 0.0
H907 H 0.82649 0.152 0.61163 0.0
C908 C 0.89884 0.1747 0.63109 0.0
C909 C 0.89966 0.18107 0.60876 0.0
C910 C 0.88325 0.17144 0.64516 0.0
C911 C 0.86815 0.17437 0.63713 0.0
C912 C 0.86901 0.18087 0.61494 0.0
H913 H 0.76306 0.16596 0.6952 0.0
H914 H 0.79049 0.17164 0.67083 0.0
C915 C 0.88456 0.18413 0.60087 0.0
C916 C 0.85176 0.17114 0.65213 0.0
H917 H 0.802 0.14446 0.6578 0.0
C918 C 0.85602 0.18258 0.6717 0.0
C919 C 0.83207 0.15713 0.6471 0.0
C920 C 0.8267 0.14388 0.6268 0.0
C921 C 0.84106 0.18064 0.68618 0.0
C922 C 0.82137 0.16666 0.68112 0.0
C923 C 0.81711 0.15521 0.66157 0.0
C924 C 0.80497 0.16352 0.69604 0.0
C925 C 0.84642 0.19386 0.7065 0.0
C926 C 0.80394 0.15688 0.7182 0.0
C927 C 0.78832 0.15364 0.73216 0.0
C928 C 0.77335 0.15686 0.72418 0.0
C929 C 0.77437 0.16339 0.7019 0.0
C930 C 0.79001 0.16663 0.68794 0.0
H931 H 0.86124 0.20698 0.70481 0.0
H932 H 0.83561 0.19879 0.70921 0.0
H933 H 0.84644 0.18566 0.72169 0.0
H934 H 0.81513 0.15401 0.72463 0.0
H935 H 0.78795 0.1485 0.74918 0.0
H936 H 0.97499 0.5214 0.41613 0.0
H937 H 0.9966 0.51576 0.44063 0.0
H938 H 0.9547 0.499 0.49474 0.0
H939 H 0.93281 0.50436 0.47026 0.0
H940 H 0.01325 0.53394 0.48154 0.0
H941 H 0.96586 0.45352 0.49223 0.0
H942 H 0.96162 0.46704 0.47054 0.0
H943 H 0.95417 0.46744 0.49908 0.0
C944 C 0.97028 0.5164 0.4332 0.0
C945 C 0.95211 0.51324 0.4412 0.0
C946 C 0.98268 0.51322 0.44718 0.0
C947 C 0.97714 0.50672 0.46939 0.0
C948 C 0.95908 0.50364 0.4775 0.0
H949 H 0.03173 0.48222 0.58135 0.0
H950 H 0.01046 0.48773 0.55616 0.0
C951 C 0.94663 0.50681 0.46352 0.0
C952 C 0.99056 0.50371 0.4842 0.0
H953 H 0.99429 0.46921 0.51516 0.0
C954 C 0.00917 0.51978 0.48881 0.0
C955 C 0.98516 0.48521 0.49364 0.0
C956 C 0.96569 0.46725 0.4885 0.0
C957 C 0.02241 0.51793 0.50301 0.0
C958 C 0.01698 0.49945 0.51253 0.0
C959 C 0.9984 0.48336 0.50784 0.0
C960 C 0.03023 0.49651 0.52771 0.0
C961 C 0.04188 0.53588 0.50816 0.0
C962 C 0.04837 0.49949 0.52 0.0
C963 C 0.06063 0.4964 0.53439 0.0
C964 C 0.05489 0.49014 0.55671 0.0
C965 C 0.03665 0.48708 0.56429 0.0
C966 C 0.02444 0.49019 0.54991 0.0
H967 H 0.04184 0.54962 0.50411 0.0
H968 H 0.04578 0.53622 0.5262 0.0
H969 H 0.05346 0.53552 0.49787 0.0
H970 H 0.05295 0.50401 0.50278 0.0
H971 H 0.07452 0.49877 0.52798 0.0
H972 H 0.49942 0.42802 0.47234 0.0
H973 H 0.50441 0.45506 0.49702 0.0
H974 H 0.48721 0.47998 0.44312 0.0
H975 H 0.48198 0.45298 0.41842 0.0
H976 H 0.52967 0.49569 0.49075 0.0
H977 H 0.45186 0.47706 0.49555 0.0
H978 H 0.45909 0.45997 0.48548 0.0
H979 H 0.46105 0.47917 0.46738 0.0
C980 C 0.49664 0.43922 0.46575 0.0
C981 C 0.4902 0.43827 0.44344 0.0
C982 C 0.49952 0.45466 0.47987 0.0
C983 C 0.49588 0.46933 0.47199 0.0
C984 C 0.48971 0.46858 0.44967 0.0
H985 H 0.50558 0.57536 0.52899 0.0
H986 H 0.50059 0.54822 0.5045 0.0
C987 C 0.48684 0.45318 0.43554 0.0
C988 C 0.49892 0.48568 0.48696 0.0
H989 H 0.47547 0.50772 0.51096 0.0
C990 C 0.51782 0.49827 0.49529 0.0
C991 C 0.48342 0.48903 0.49276 0.0
C992 C 0.46267 0.47551 0.48502 0.0
C993 C 0.52173 0.51438 0.50896 0.0
C994 C 0.50623 0.51773 0.51474 0.0
C995 C 0.48732 0.50512 0.50643 0.0
C996 C 0.50929 0.53414 0.5296 0.0
C997 C 0.54249 0.5279 0.51668 0.0
C998 C 0.51555 0.53505 0.55192 0.0
C999 C 0.51843 0.55051 0.56593 0.0
C1000 C 0.51497 0.56533 0.55795 0.0
C1001 C 0.50843 0.56423 0.53565 0.0
C1002 C 0.50556 0.54874 0.52164 0.0
H1003 H 0.55329 0.52633 0.50615 0.0
H1004 H 0.54607 0.54344 0.51619 0.0
H1005 H 0.54411 0.52427 0.53432 0.0
H1006 H 0.51812 0.52372 0.55854 0.0
H1007 H 0.52336 0.55083 0.58304 0.0
H1008 H 0.55135 0.03043 0.41885 0.0
H1009 H 0.52425 0.00924 0.44374 0.0
H1010 H 0.54948 0.05221 0.4968 0.0
H1011 H 0.5766 0.07369 0.47192 0.0
H1012 H 0.5262 0.99355 0.48532 0.0
H1013 H 0.49263 0.04067 0.49388 0.0
H1014 H 0.51029 0.04451 0.47222 0.0
H1015 H 0.51828 0.05258 0.50056 0.0
C1016 C 0.55112 0.03547 0.43577 0.0
C1017 C 0.56613 0.05381 0.44336 0.0
C1018 C 0.53562 0.02331 0.44997 0.0
C1019 C 0.53473 0.02926 0.47199 0.0
C1020 C 0.5497 0.0475 0.47971 0.0
H1021 H 0.45396 0.9747 0.58318 0.0
H1022 H 0.4812 0.99629 0.55863 0.0
C1023 C 0.56524 0.05971 0.4655 0.0
C1024 C 0.51838 0.01608 0.48702 0.0
H1025 H 0.47971 0.01242 0.51704 0.0
C1026 C 0.51598 0.99763 0.49221 0.0
C1027 C 0.50511 0.02148 0.49598 0.0
C1028 C 0.50653 0.04081 0.49026 0.0
C1029 C 0.50082 0.9845 0.5064 0.0
C1030 C 0.48752 0.98988 0.51531 0.0
C1031 C 0.48994 0.00836 0.51017 0.0
C1032 C 0.47102 0.97657 0.53009 0.0
C1033 C 0.4994 0.96517 0.5121 0.0
C1034 C 0.45616 0.9584 0.52208 0.0
C1035 C 0.44055 0.94598 0.53608 0.0
C1036 C 0.43948 0.95158 0.5583 0.0
C1037 C 0.45434 0.96989 0.56618 0.0
C1038 C 0.46992 0.98227 0.55218 0.0
H1039 H 0.51336 0.96537 0.50865 0.0
H1040 H 0.49549 0.96138 0.5301 0.0
H1041 H 0.48776 0.95344 0.50166 0.0
H1042 H 0.45655 0.95389 0.50494 0.0
H1043 H 0.4293 0.93204 0.52944 0.0
H1044 H 0.48186 0.0296 0.9174 0.0
H1045 H 0.48708 0.00804 0.94243 0.0
H1046 H 0.50509 0.05095 0.99558 0.0
H1047 H 0.50011 0.07281 0.97056 0.0
H1048 H 0.52994 0.0351 0.98963 0.0
H1049 H 0.45192 0.97654 0.99537 0.0
H1050 H 0.46095 0.98315 0.96709 0.0
H1051 H 0.45933 1.00077 0.98486 0.0
C1052 C 0.48691 0.03449 0.93442 0.0
C1053 C 0.49048 0.05292 0.94201 0.0
C1054 C 0.48977 0.02207 0.94874 0.0
C1055 C 0.49614 0.02776 0.97096 0.0
C1056 C 0.50003 0.04625 0.97852 0.0
H1057 H 0.52351 0.97447 0.08285 0.0
H1058 H 0.51832 0.9962 0.05806 0.0
C1059 C 0.49717 0.0587 0.9642 0.0
C1060 C 0.4991 0.01454 0.98615 0.0
H1061 H 0.4754 0.96935 0.01086 0.0
C1062 C 0.51801 0.02077 0.99439 0.0
C1063 C 0.4835 0.99583 0.99225 0.0
C1064 C 0.46274 0.98869 0.98462 0.0
C1065 C 0.52183 0.00862 0.00826 0.0
C1066 C 0.50623 0.9899 0.01433 0.0
C1067 C 0.48732 0.98369 0.00611 0.0
C1068 C 0.50921 0.97662 0.02939 0.0
C1069 C 0.54259 0.01576 0.01588 0.0
C1070 C 0.50529 0.95816 0.02168 0.0
C1071 C 0.50813 0.94562 0.03587 0.0
C1072 C 0.51483 0.95128 0.05807 0.0
C1073 C 0.51845 0.96968 0.06581 0.0
C1074 C 0.51561 0.98219 0.05163 0.0
H1075 H 0.55341 0.02797 0.00519 0.0
H1076 H 0.54436 0.02121 0.03345 0.0
H1077 H 0.54602 0.00369 0.01554 0.0
H1078 H 0.50021 0.95354 0.0046 0.0
H1079 H 0.50516 0.93153 0.02939 0.0
H1080 H 0.97429 0.45243 0.91998 0.0
H1081 H 0.99581 0.47929 0.94499 0.0
H1082 H 0.9526 0.45472 0.99786 0.0
H1083 H 0.931 0.4276 0.97305 0.0
H1084 H 0.98866 0.50677 0.96643 0.0
H1085 H 0.00266 0.46244 0.02853 0.0
H1086 H 0.99215 0.45315 0.00113 0.0
H1087 H 0.97721 0.4541 0.02343 0.0
C1088 C 0.96934 0.45267 0.93695 0.0
C1089 C 0.95094 0.43779 0.94455 0.0
C1090 C 0.98167 0.46806 0.9512 0.0
C1091 C 0.97592 0.46884 0.97336 0.0
C1092 C 0.95748 0.45418 0.98095 0.0
H1093 H 0.02996 0.55054 0.08386 0.0
H1094 H 0.00815 0.52358 0.05911 0.0
C1095 C 0.94511 0.43875 0.9667 0.0
C1096 C 0.98913 0.48524 0.98833 0.0
H1097 H 0.01488 0.49587 0.03758 0.0
C1098 C 0.99446 0.50442 0.98196 0.0
C1099 C 0.99665 0.48209 0.00857 0.0
C1100 C 0.99205 0.46186 0.01579 0.0
C1101 C 0.00687 0.52055 0.99546 0.0
C1102 C 0.01442 0.51741 0.01567 0.0
C1103 C 0.00907 0.49822 0.02207 0.0
C1104 C 0.02779 0.53383 0.03052 0.0
C1105 C 0.01147 0.54078 0.98823 0.0
C1106 C 0.0462 0.5484 0.02272 0.0
C1107 C 0.05873 0.56388 0.03681 0.0
C1108 C 0.0531 0.56498 0.05902 0.0
C1109 C 0.03474 0.55019 0.06684 0.0
C1110 C 0.02225 0.53474 0.05274 0.0
H1111 H 1.00076 0.54018 0.97562 0.0
H1112 H 0.01152 0.54955 0.0029 0.0
H1113 H 0.02624 0.54848 0.98041 0.0
H1114 H 0.05092 0.54775 0.00576 0.0
H1115 H 0.0728 0.57496 0.03029 0.0
H1116 H 0.57664 0.50398 0.97233 0.0
H1117 H 0.54942 0.4985 0.99692 0.0
H1118 H 0.52405 0.51517 0.943 0.0
H1119 H 0.55127 0.52092 0.91837 0.0
H1120 H 0.52573 0.53333 0.98408 0.0
H1121 H 0.49278 0.45286 0.99443 0.0
H1122 H 0.51841 0.46687 0.00117 0.0
H1123 H 0.51045 0.46646 0.97269 0.0
C1124 C 0.56522 0.50639 0.96565 0.0
C1125 C 0.56611 0.51283 0.94335 0.0
C1126 C 0.54963 0.50315 0.9797 0.0
C1127 C 0.53459 0.50617 0.97167 0.0
C1128 C 0.53547 0.51267 0.94948 0.0
H1129 H 0.4289 0.49793 0.02847 0.0
H1130 H 0.45612 0.50317 0.00401 0.0
C1131 C 0.55104 0.51593 0.93543 0.0
C1132 C 0.51818 0.50309 0.98654 0.0
H1133 H 0.47978 0.4684 0.01717 0.0
C1134 C 0.51562 0.51913 0.99126 0.0
C1135 C 0.50506 0.48454 0.99588 0.0
C1136 C 0.50664 0.46663 0.99067 0.0
C1137 C 0.50046 0.5172 0.00537 0.0
C1138 C 0.48732 0.49864 0.01468 0.0
C1139 C 0.48989 0.48261 0.01 0.0
C1140 C 0.47085 0.49556 0.02945 0.0
C1141 C 0.49888 0.53511 0.01058 0.0
C1142 C 0.46991 0.48915 0.05169 0.0
C1143 C 0.45435 0.48604 0.06567 0.0
C1144 C 0.43934 0.48918 0.05762 0.0
C1145 C 0.44026 0.49548 0.03524 0.0
C1146 C 0.45585 0.49858 0.02127 0.0
H1147 H 0.51276 0.54888 0.00687 0.0
H1148 H 0.48714 0.5349 1.00005 0.0
H1149 H 0.49502 0.53526 0.02855 0.0
H1150 H 0.4813 0.48665 0.05828 0.0
H1151 H 0.45408 0.48114 0.08278 0.0
H1152 H 0.19025 1.0005 0.92384 0.0
H1153 H 0.19853 0.03327 0.93687 0.0
H1154 H 0.21814 0.02256 0.00032 0.0
H1155 H 0.21013 0.98993 0.98744 0.0
H1156 H 0.1855 0.04521 0.97498 0.0
H1157 H 0.26566 0.07356 0.97759 0.0
H1158 H 0.24883 0.05118 0.96319 0.0
H1159 H 0.25144 0.05135 0.9933 0.0
C1160 C 0.19626 0.00508 0.9406 0.0
C1161 C 0.19967 0.99264 0.95453 0.0
C1162 C 0.20097 0.0238 0.94801 0.0
C1163 C 0.20925 0.03043 0.9694 0.0
C1164 C 0.21212 0.01785 0.98358 0.0
H1165 H 0.22271 0.12875 0.04803 0.0
H1166 H 0.21207 0.09653 0.0316 0.0
C1167 C 0.20743 0.99916 0.97622 0.0
C1168 C 0.21506 0.05057 0.97687 0.0
H1169 H 0.25441 0.09359 0.99425 0.0
C1170 C 0.20057 0.05584 0.97909 0.0
C1171 C 0.23479 0.06449 0.98188 0.0
C1172 C 0.25113 0.05998 0.97868 0.0
C1173 C 0.20521 0.07454 0.9868 0.0
C1174 C 0.22481 0.08818 0.99269 0.0
C1175 C 0.23937 0.08306 0.9899 0.0
C1176 C 0.23056 0.10777 0.00209 0.0
C1177 C 0.18912 0.07959 0.98837 0.0
C1178 C 0.24474 0.12479 0.99115 0.0
C1179 C 0.25097 0.14326 0.00058 0.0
C1180 C 0.24322 0.14503 0.02122 0.0
C1181 C 0.22892 0.12794 0.03206 0.0
C1182 C 0.22271 0.10949 0.02262 0.0
H1183 H 0.17643 0.06988 0.97753 0.0
H1184 H 0.18387 0.07768 0.00604 0.0
H1185 H 0.19454 0.09505 0.98341 0.0
H1186 H 0.25107 0.12378 0.97535 0.0
H1187 H 0.26203 0.15611 0.9918 0.0
H1188 H 0.00422 0.19042 0.9241 0.0
H1189 H 0.97143 0.16582 0.93692 0.0
H1190 H 0.98179 0.19592 0.0005 0.0
H1191 H 0.01444 0.22064 0.98784 0.0
H1192 H 0.95939 0.14073 0.97502 0.0
H1193 H 0.93085 0.19239 0.97734 0.0
H1194 H 0.9533 0.198 0.96307 0.0
H1195 H 0.953 0.20042 0.99317 0.0
C1196 C 0.99956 0.19177 0.94085 0.0
C1197 C 0.0119 0.20759 0.95488 0.0
C1198 C 0.98083 0.1777 0.94813 0.0
C1199 C 0.97409 0.17926 0.96949 0.0
C1200 C 0.98658 0.19468 0.98378 0.0
H1201 H 0.8756 0.09426 0.04766 0.0
H1202 H 0.90786 0.11585 0.03134 0.0
C1203 C 0.00528 0.20874 0.97654 0.0
C1204 C 0.95394 0.16488 0.97683 0.0
H1205 H 0.9108 0.16108 0.9939 0.0
C1206 C 0.94871 0.14512 0.97905 0.0
C1207 C 0.93997 0.17064 0.98172 0.0
C1208 C 0.94444 0.19148 0.97852 0.0
C1209 C 0.92999 0.13102 0.98665 0.0
C1210 C 0.9163 0.13694 0.99244 0.0
C1211 C 0.92138 0.15661 0.98963 0.0
C1212 C 0.89669 0.12307 0.00175 0.0
C1213 C 0.925 0.10991 0.98824 0.0
C1214 C 0.8797 0.1202 0.99072 0.0
C1215 C 0.86121 0.10797 1.00008 0.0
C1216 C 0.85939 0.09846 0.02075 0.0
C1217 C 0.87646 0.10127 0.03167 0.0
C1218 C 0.89492 0.11351 0.02229 0.0
H1219 H 0.93476 0.10696 0.97746 0.0
H1220 H 0.92686 0.10657 0.00593 0.0
H1221 H 0.90956 0.09983 0.98321 0.0
H1222 H 0.88076 0.12754 0.9749 0.0
H1223 H 0.84839 0.10615 0.99124 0.0
H1224 H 0.89831 0.74315 0.99129 0.0
H1225 H 0.87698 0.75408 0.97471 0.0
H1226 H 0.88771 0.79231 0.03151 0.0
H1227 H 0.90927 0.78172 0.04807 0.0
H1228 H 0.84314 0.75014 0.99306 0.0
H1229 H 0.89699 0.82857 0.97811 0.0
H1230 H 0.90424 0.81059 0.98391 0.0
H1231 H 0.89701 0.8208 0.00654 0.0
C1232 C 0.8963 0.75404 1.00016 0.0
C1233 C 0.90554 0.76159 0.021 0.0
C1234 C 0.8841 0.76025 0.99066 0.0
C1235 C 0.88098 0.77421 0.00172 0.0
C1236 C 0.89025 0.78186 0.02244 0.0
H1237 H 0.78305 0.79363 0.98661 0.0
H1238 H 0.80777 0.78579 0.99951 0.0
C1239 C 0.90248 0.77568 0.03195 0.0
C1240 C 0.86712 0.77989 0.99224 0.0
H1241 H 0.86318 0.81917 0.97511 0.0
C1242 C 0.84755 0.76522 0.98899 0.0
C1243 C 0.87296 0.79954 0.98671 0.0
C1244 C 0.89398 0.81577 0.98877 0.0
C1245 C 0.83353 0.76971 0.9809 0.0
C1246 C 0.83918 0.78945 0.97627 0.0
C1247 C 0.85886 0.80408 0.97893 0.0
C1248 C 0.82479 0.79515 0.96878 0.0
C1249 C 0.8128 0.75326 0.97722 0.0
C1250 C 0.82654 0.80362 0.94749 0.0
C1251 C 0.81247 0.80822 0.94006 0.0
C1252 C 0.79646 0.80452 0.95388 0.0
C1253 C 0.79511 0.79656 0.97547 0.0
C1254 C 0.80917 0.79197 0.98285 0.0
H1255 H 0.81203 0.73882 0.97594 0.0
H1256 H 0.80359 0.75264 0.9917 0.0
H1257 H 0.80647 0.75569 0.96167 0.0
H1258 H 0.83858 0.80629 0.93645 0.0
H1259 H 0.81398 0.81438 0.92338 0.0
H1260 H 1.00237 0.1903 0.57615 0.0
H1261 H 0.03497 0.1985 0.56268 0.0
H1262 H 0.02316 0.2167 0.49889 0.0
H1263 H 0.99068 0.2088 0.51224 0.0
H1264 H 0.04652 0.18484 0.52522 0.0
H1265 H 0.0743 0.2648 0.51969 0.0
H1266 H 0.0521 0.24826 0.53457 0.0
H1267 H 0.05198 0.25007 0.50438 0.0
C1268 C 0.00667 0.19599 0.55923 0.0
C1269 C 0.99396 0.19903 0.54534 0.0
C1270 C 0.0253 0.20065 0.55156 0.0
C1271 C 0.03158 0.20852 0.52995 0.0
C1272 C 0.01873 0.21103 0.51581 0.0
H1273 H 0.12963 0.22083 0.45151 0.0
H1274 H 0.09744 0.21038 0.46793 0.0
C1275 C 1.00013 0.20639 0.52344 0.0
C1276 C 0.05163 0.21426 0.52221 0.0
H1277 H 0.09433 0.25332 0.5036 0.0
C1278 C 0.05703 0.19981 0.52058 0.0
C1279 C 0.06538 0.23387 0.5165 0.0
C1280 C 0.06077 0.2502 0.51905 0.0
C1281 C 0.07569 0.20438 0.51284 0.0
C1282 C 0.08916 0.22385 0.5063 0.0
C1283 C 0.08391 0.23837 0.50845 0.0
C1284 C 0.10873 0.2295 0.49693 0.0
C1285 C 0.08089 0.18838 0.51195 0.0
C1286 C 0.12576 0.24394 0.50761 0.0
C1287 C 0.1442 0.25005 0.4982 0.0
C1288 C 0.14594 0.24191 0.47783 0.0
C1289 C 0.12884 0.22734 0.46726 0.0
C1290 C 0.11041 0.22125 0.47669 0.0
H1291 H 0.07127 0.17589 0.5231 0.0
H1292 H 0.079 0.18275 0.49444 0.0
H1293 H 0.09638 0.19403 0.51696 0.0
H1294 H 0.12476 0.25057 0.52319 0.0
H1295 H 0.15705 0.26132 0.50677 0.0
H1296 H 0.79797 0.78365 0.51274 0.0
H1297 H 0.79066 0.80857 0.49923 0.0
H1298 H 0.80614 0.8369 0.56417 0.0
H1299 H 0.81379 0.81217 0.5778 0.0
H1300 H 0.76268 0.81631 0.51627 0.0
H1301 H 0.83662 0.88257 0.52066 0.0
H1302 H 0.83284 0.85802 0.52203 0.0
H1303 H 0.82853 0.86885 0.54644 0.0
C1304 C 0.80003 0.79528 0.52412 0.0
C1305 C 0.8065 0.79592 0.54636 0.0
C1306 C 0.79581 0.80951 0.51636 0.0
C1307 C 0.79804 0.8247 0.53061 0.0
C1308 C 0.80468 0.82552 0.55275 0.0
H1309 H 0.74262 0.89525 0.50839 0.0
H1310 H 0.75343 0.87353 0.52414 0.0
C1311 C 0.80895 0.81131 0.56054 0.0
C1312 C 0.79242 0.83901 0.52254 0.0
H1313 H 0.81 0.8877 0.51255 0.0
C1314 C 0.77303 0.83192 0.51545 0.0
C1315 C 0.806 0.85935 0.52132 0.0
C1316 C 0.82721 0.86769 0.52782 0.0
C1317 C 0.7668 0.8446 0.50725 0.0
C1318 C 0.78025 0.86497 0.50647 0.0
C1319 C 0.79969 0.87209 0.51341 0.0
C1320 C 0.77452 0.87901 0.49775 0.0
C1321 C 0.74598 0.83605 0.49901 0.0
C1322 C 0.78322 0.88971 0.47808 0.0
C1323 C 0.77713 0.90218 0.46907 0.0
C1324 C 0.76228 0.90425 0.47965 0.0
C1325 C 0.754 0.89392 0.49975 0.0
C1326 C 0.7601 0.88143 0.50873 0.0
H1327 H 0.73895 0.82002 0.49593 0.0
H1328 H 0.73723 0.83847 0.51194 0.0
H1329 H 0.74545 0.8433 0.4832 0.0
H1330 H 0.79443 0.88809 0.46942 0.0
H1331 H 0.78388 0.90998 0.45363 0.0
H1332 H 0.19083 0.00269 0.57781 0.0
H1333 H 0.16626 0.96983 0.5651 0.0
H1334 H 0.19607 0.98024 0.50132 0.0
H1335 H 0.22075 0.01294 0.51387 0.0
H1336 H 0.14098 0.95765 0.52717 0.0
H1337 H 0.19287 0.92941 0.52428 0.0
H1338 H 0.19846 0.95184 0.5386 0.0
H1339 H 0.2008 0.95156 0.50849 0.0
C1340 C 0.19213 0.99802 0.56105 0.0
C1341 C 0.20785 0.0104 0.54692 0.0
C1342 C 0.17807 0.97925 0.55382 0.0
C1343 C 0.17956 0.97251 0.53243 0.0
C1344 C 0.19489 0.98503 0.51806 0.0
H1345 H 0.09492 0.87452 0.45354 0.0
H1346 H 0.11629 0.90663 0.47035 0.0
C1347 C 0.20893 0.00376 0.52524 0.0
C1348 C 0.16522 0.95234 0.52512 0.0
H1349 H 0.1616 0.9094 0.50754 0.0
C1350 C 0.14543 0.94704 0.523 0.0
C1351 C 0.17104 0.93845 0.52003 0.0
C1352 C 0.19191 0.94299 0.52315 0.0
C1353 C 0.13138 0.92835 0.51526 0.0
C1354 C 0.13738 0.91476 0.50923 0.0
C1355 C 0.15707 0.9199 0.51198 0.0
C1356 C 0.12358 0.89523 0.49967 0.0
C1357 C 0.11024 0.92327 0.51377 0.0
C1358 C 0.12083 0.87815 0.51039 0.0
C1359 C 0.10873 0.85976 0.50075 0.0
C1360 C 0.09924 0.8581 0.48011 0.0
C1361 C 0.10192 0.87525 0.4695 0.0
C1362 C 0.11404 0.89363 0.47916 0.0
H1363 H 0.10724 0.93288 0.52476 0.0
H1364 H 0.10689 0.9253 0.49615 0.0
H1365 H 0.10022 0.90776 0.5186 0.0
H1366 H 0.12816 0.87908 0.52617 0.0
H1367 H 0.10701 0.84687 0.50935 0.0
H1368 H 0.74273 0.84746 0.00785 0.0
H1369 H 0.7535 0.87995 0.02373 0.0
H1370 H 0.79406 0.90661 0.96867 0.0
H1371 H 0.78355 0.87421 0.95274 0.0
H1372 H 0.8099 0.92261 0.01167 0.0
H1373 H 0.73851 0.91875 0.9961 0.0
H1374 H 0.73705 0.89866 0.01199 0.0
H1375 H 0.74502 0.90206 0.98314 0.0
C1376 C 0.75401 0.86022 0.99916 0.0
C1377 C 0.76217 0.85824 0.97893 0.0
C1378 C 0.76008 0.87877 0.00821 0.0
C1379 C 0.77436 0.89567 0.99719 0.0
C1380 C 0.78295 0.89373 0.97738 0.0
H1381 H 0.79751 0.01432 0.01221 0.0
H1382 H 0.79015 0.98205 0.99879 0.0
C1383 C 0.77689 0.8752 0.96829 0.0
C1384 C 0.78005 0.91541 0.00598 0.0
H1385 H 0.76233 0.94631 0.01621 0.0
C1386 C 0.79953 0.92782 0.01271 0.0
C1387 C 0.76652 0.92221 0.007 0.0
C1388 C 0.74564 0.90983 0.999 0.0
C1389 C 0.80581 0.94687 0.02064 0.0
C1390 C 0.79217 0.95352 0.02209 0.0
C1391 C 0.77273 0.94112 0.01522 0.0
C1392 C 0.79777 0.97347 0.03011 0.0
C1393 C 0.82707 0.95985 0.0269 0.0
C1394 C 0.80456 0.97938 0.05219 0.0
C1395 C 0.80885 0.99789 0.05993 0.0
C1396 C 0.80628 0.01075 0.04576 0.0
C1397 C 0.79966 0.00481 0.02358 0.0
C1398 C 0.79542 0.98635 0.01587 0.0
H1399 H 0.83647 0.9544 0.01967 0.0
H1400 H 0.83259 0.97511 0.02103 0.0
H1401 H 0.82854 0.96014 0.04551 0.0
H1402 H 0.80612 0.96952 0.0636 0.0
H1403 H 0.81382 0.00196 0.07714 0.0
H1404 H 0.15672 0.89648 0.00893 0.0
H1405 H 0.12425 0.87472 0.02484 0.0
H1406 H 0.09742 0.88728 0.96884 0.0
H1407 H 0.12979 0.90923 0.95291 0.0
H1408 H 0.08108 0.8876 0.01109 0.0
H1409 H 0.08604 0.8203 0.9987 0.0
H1410 H 0.10585 0.83936 0.01451 0.0
H1411 H 0.1027 0.84331 0.98536 0.0
C1412 C 0.14393 0.89469 1.00003 0.0
C1413 C 0.14586 0.90449 0.97955 0.0
C1414 C 0.12539 0.88218 0.0091 0.0
C1415 C 0.10845 0.87917 0.99783 0.0
C1416 C 0.11033 0.88935 0.97775 0.0
H1417 H 0.99009 0.78317 0.01313 0.0
H1418 H 0.02243 0.80799 0.99979 0.0
C1419 C 0.12885 0.90186 0.96866 0.0
C1420 C 0.08872 0.86512 0.00668 0.0
H1421 H 0.05822 0.81663 0.01817 0.0
C1422 C 0.07606 0.87208 0.01269 0.0
C1423 C 0.08216 0.84486 0.00845 0.0
C1424 C 0.09479 0.83642 0.00124 0.0
C1425 C 0.057 0.85931 0.02058 0.0
C1426 C 0.05059 0.83911 0.02275 0.0
C1427 C 0.06323 0.83215 0.01663 0.0
C1428 C 0.03062 0.82476 0.03073 0.0
C1429 C 0.04376 0.86746 0.02602 0.0
C1430 C 0.02448 0.82597 0.05257 0.0
C1431 C 0.00593 0.8118 0.06027 0.0
C1432 C 0.99326 0.7961 0.04629 0.0
C1433 C 0.99944 0.79506 0.02435 0.0
C1434 C 0.01794 0.80922 0.01668 0.0
H1435 H 0.04913 0.88215 0.01837 0.0
H1436 H 0.0286 0.85746 0.01999 0.0
H1437 H 0.04321 0.86896 0.04456 0.0
H1438 H 0.03417 0.83764 0.06383 0.0
H1439 H 1.00168 0.81298 0.0773 0.0
H1440 H 0.09514 0.22113 0.95403 0.0
H1441 H 0.11674 0.21048 0.97036 0.0
H1442 H 0.12918 0.25 0.02624 0.0
H1443 H 0.10777 0.26095 0.00991 0.0
H1444 H 0.1625 0.25305 0.00673 0.0
H1445 H 0.10815 0.17536 0.02496 0.0
H1446 H 0.10743 0.18253 0.99642 0.0
H1447 H 0.10115 0.19352 0.01911 0.0
C1448 C 0.10231 0.22745 0.9699 0.0
C1449 C 0.0997 0.2419 0.98067 0.0
C1450 C 0.11457 0.22124 0.97928 0.0
C1451 C 0.12434 0.22925 0.99966 0.0
C1452 C 0.12167 0.24356 0.01055 0.0
H1453 H 0.19174 0.18945 0.07763 0.0
H1454 H 0.16722 0.19768 0.06469 0.0
C1455 C 0.10942 0.24978 0.00119 0.0
C1456 C 0.13822 0.22353 0.00894 0.0
H1457 H 0.14186 0.18432 0.02708 0.0
C1458 C 0.15797 0.23805 0.01131 0.0
C1459 C 0.13223 0.20398 0.01514 0.0
C1460 C 0.11105 0.18796 0.014 0.0
C1461 C 0.17199 0.23348 0.01921 0.0
C1462 C 0.16615 0.21381 0.02453 0.0
C1463 C 0.14632 0.19935 0.02273 0.0
C1464 C 0.18048 0.208 0.03195 0.0
C1465 C 0.19292 0.2498 0.02196 0.0
C1466 C 0.19578 0.21066 0.01762 0.0
C1467 C 0.20981 0.20601 0.02494 0.0
C1468 C 0.20874 0.19848 0.04672 0.0
C1469 C 0.19304 0.19527 0.06079 0.0
C1470 C 0.179 0.19995 0.05343 0.0
H1471 H 0.19396 0.26438 0.02289 0.0
H1472 H 0.19961 0.24767 0.03739 0.0
H1473 H 0.20163 0.24988 0.00722 0.0
H1474 H 0.19695 0.21649 0.0008 0.0
H1475 H 0.22163 0.20855 0.0136 0.0
H1476 H 0.87555 0.78113 0.54866 0.0
H1477 H 0.90777 0.79169 0.5323 0.0
H1478 H 0.88051 0.75311 0.47572 0.0
H1479 H 0.84818 0.74222 0.4921 0.0
H1480 H 0.91056 0.74948 0.49442 0.0
H1481 H 0.93462 0.82768 0.4786 0.0
H1482 H 0.9268 0.82005 0.50706 0.0
H1483 H 0.90942 0.80961 0.4844 0.0
C1484 C 0.87636 0.775 0.53263 0.0
C1485 C 0.85926 0.76083 0.52168 0.0
C1486 C 0.89481 0.78116 0.52324 0.0
C1487 C 0.89652 0.77341 0.50263 0.0
C1488 C 0.8795 0.75936 0.49158 0.0
H1489 H 0.00362 0.81399 0.42417 0.0
H1490 H 0.97091 0.80566 0.43739 0.0
C1491 C 0.86103 0.75316 0.50097 0.0
C1492 C 0.91611 0.77915 0.49323 0.0
H1493 H 0.95916 0.81848 0.47577 0.0
C1494 C 0.92114 0.76455 0.49021 0.0
C1495 C 0.92981 0.79878 0.48752 0.0
C1496 C 0.92487 0.81492 0.48934 0.0
C1497 C 0.93968 0.76911 0.48213 0.0
C1498 C 0.95366 0.78885 0.47729 0.0
C1499 C 0.94848 0.80339 0.47975 0.0
C1500 C 0.97375 0.79463 0.4697 0.0
C1501 C 0.94409 0.75272 0.47867 0.0
C1502 C 0.98633 0.79158 0.4837 0.0
C1503 C 0.00499 0.7963 0.47622 0.0
C1504 C 0.0115 0.80427 0.45462 0.0
C1505 C 0.99906 0.80782 0.44087 0.0
C1506 C 0.98037 0.80309 0.44838 0.0
H1507 H 0.93047 0.73823 0.47748 0.0
H1508 H 0.95286 0.7551 0.46313 0.0
H1509 H 0.95271 0.75226 0.4932 0.0
H1510 H 0.98164 0.78542 0.50039 0.0
H1511 H 0.01422 0.79348 0.48731 0.0
H1512 H 0.21077 0.22106 0.48524 0.0
H1513 H 0.21851 0.19632 0.49833 0.0
H1514 H 0.19679 0.16463 0.43596 0.0
H1515 H 0.18882 0.18926 0.4227 0.0
H1516 H 0.1843 0.14063 0.47524 0.0
H1517 H 0.26478 0.19112 0.47398 0.0
H1518 H 0.2514 0.20003 0.4898 0.0
H1519 H 0.24782 0.19665 0.45987 0.0
C1520 C 0.20755 0.20881 0.4743 0.0
C1521 C 0.19929 0.20722 0.45284 0.0
C1522 C 0.21208 0.19473 0.48178 0.0
C1523 C 0.20852 0.17884 0.46795 0.0
C1524 C 0.19976 0.17687 0.44681 0.0
H1525 H 0.25981 0.10469 0.49031 0.0
H1526 H 0.24885 0.12599 0.47371 0.0
C1527 C 0.19523 0.19097 0.43927 0.0
C1528 C 0.21414 0.16442 0.47554 0.0
H1529 H 0.25347 0.16021 0.49158 0.0
C1530 C 0.19942 0.14485 0.47871 0.0
C1531 C 0.23391 0.16994 0.47971 0.0
C1532 C 0.25044 0.19053 0.47548 0.0
C1533 C 0.20391 0.13073 0.48656 0.0
C1534 C 0.2236 0.13644 0.49162 0.0
C1535 C 0.23836 0.1559 0.48786 0.0
C1536 C 0.22927 0.12258 0.50112 0.0
C1537 C 0.18756 0.10982 0.48918 0.0
C1538 C 0.22194 0.11363 0.52206 0.0
C1539 C 0.22813 0.10142 0.53158 0.0
C1540 C 0.24193 0.09805 0.52042 0.0
C1541 C 0.24916 0.10694 0.49935 0.0
C1542 C 0.24292 0.11913 0.48984 0.0
H1543 H 0.17461 0.10678 0.47879 0.0
H1544 H 0.19248 0.09934 0.48436 0.0
H1545 H 0.18285 0.10713 0.50708 0.0
H1546 H 0.21173 0.11643 0.5313 0.0
H1547 H 0.22235 0.0949 0.54788 0.0
H1548 H 0.81394 1.00043 0.42467 0.0
H1549 H 0.83866 0.03285 0.43827 0.0
H1550 H 0.80815 0.02158 0.50168 0.0
H1551 H 0.78329 0.98929 0.48821 0.0
H1552 H 0.81751 0.05752 0.48268 0.0
H1553 H 0.88233 0.04732 0.48496 0.0
H1554 H 0.8695 0.04132 0.45852 0.0
H1555 H 0.85754 0.02702 0.48312 0.0
C1556 C 0.81258 0.00477 0.44158 0.0
C1557 C 0.79663 0.99224 0.45536 0.0
C1558 C 0.82678 0.02327 0.44936 0.0
C1559 C 0.82534 0.02952 0.47107 0.0
C1560 C 0.80956 0.017 0.4849 0.0
H1561 H 0.90992 0.12888 0.54873 0.0
H1562 H 0.88779 0.09644 0.5331 0.0
C1563 C 0.79538 0.99853 0.47717 0.0
C1564 C 0.83975 0.04945 0.47908 0.0
H1565 H 0.88814 0.0795 0.49157 0.0
C1566 C 0.83296 0.06235 0.48463 0.0
C1567 C 0.85984 0.05561 0.48179 0.0
C1568 C 0.86778 0.04207 0.47699 0.0
C1569 C 0.84574 0.08128 0.49273 0.0
C1570 C 0.86591 0.0876 0.495 0.0
C1571 C 0.8727 0.07467 0.48959 0.0
C1572 C 0.88005 0.10736 0.50371 0.0
C1573 C 0.83745 0.0942 0.4993 0.0
C1574 C 0.88333 0.12426 0.49212 0.0
C1575 C 0.89593 0.14285 0.50104 0.0
C1576 C 0.90558 0.14486 0.52166 0.0
C1577 C 0.90269 0.12788 0.53286 0.0
C1578 C 0.89007 0.10931 0.52394 0.0
H1579 H 0.8213 0.08562 0.50168 0.0
H1580 H 0.84427 0.1023 0.51511 0.0
H1581 H 0.8406 0.10509 0.48575 0.0
H1582 H 0.87602 0.12307 0.47625 0.0
H1583 H 0.89793 0.15561 0.49189 0.0
H1584 H 0.93565 0.48708 0.33321 0.0
H1585 H 0.92403 0.45436 0.31766 0.0
H1586 H 0.86971 0.43272 0.3542 0.0
H1587 H 0.88167 0.46521 0.37064 0.0
H1588 H 0.88246 0.40861 0.35914 0.0
H1589 H 0.88664 0.42554 0.26832 0.0
H1590 H 0.90995 0.4402 0.28164 0.0
H1591 H 0.88943 0.44303 0.2897 0.0
C1592 C 0.92114 0.47539 0.33772 0.0
C1593 C 0.90955 0.4787 0.3531 0.0
C1594 C 0.91444 0.4567 0.32868 0.0
C1595 C 0.89581 0.4411 0.33436 0.0
C1596 C 0.88411 0.44451 0.34947 0.0
H1597 H 0.84613 0.32872 0.26359 0.0
H1598 H 0.85262 0.36058 0.27788 0.0
C1599 C 0.89095 0.46309 0.35885 0.0
C1600 C 0.88901 0.42098 0.32572 0.0
H1601 H 0.88431 0.39483 0.27793 0.0
C1602 C 0.88266 0.40558 0.34134 0.0
C1603 C 0.88889 0.41686 0.30247 0.0
C1604 C 0.89389 0.43226 0.28458 0.0
C1605 C 0.87673 0.38637 0.33446 0.0
C1606 C 0.8779 0.38253 0.31137 0.0
C1607 C 0.88369 0.39779 0.29567 0.0
C1608 C 0.87349 0.3629 0.30318 0.0
C1609 C 0.86898 0.37038 0.35205 0.0
C1610 C 0.88315 0.35363 0.31247 0.0
C1611 C 0.87918 0.33528 0.30463 0.0
C1612 C 0.86585 0.32604 0.28691 0.0
C1613 C 0.85645 0.33547 0.2773 0.0
C1614 C 0.86017 0.35369 0.28544 0.0
H1615 H 0.86269 0.37418 0.36665 0.0
H1616 H 0.85752 0.35617 0.34501 0.0
H1617 H 0.88122 0.36858 0.35845 0.0
H1618 H 0.89398 0.36069 0.32563 0.0
H1619 H 0.88689 0.32853 0.31215 0.0
H1620 H 0.51823 0.44927 0.33596 0.0
H1621 H 0.55097 0.47046 0.32061 0.0
H1622 H 0.57266 0.43799 0.35747 0.0
H1623 H 0.54011 0.41736 0.37374 0.0
H1624 H 0.59688 0.47492 0.36204 0.0
H1625 H 0.57957 0.46153 0.27136 0.0
H1626 H 0.56493 0.47024 0.28457 0.0
H1627 H 0.56217 0.44697 0.29287 0.0
C1628 C 0.52994 0.44653 0.34061 0.0
C1629 C 0.5266 0.43162 0.356 0.0
C1630 C 0.54864 0.45857 0.33167 0.0
C1631 C 0.56426 0.4556 0.33745 0.0
C1632 C 0.56086 0.44055 0.35265 0.0
H1633 H 0.67613 0.51847 0.26571 0.0
H1634 H 0.64448 0.49299 0.28036 0.0
C1635 C 0.54225 0.42875 0.36193 0.0
C1636 C 0.58435 0.46887 0.3287 0.0
H1637 H 0.61022 0.49014 0.2807 0.0
C1638 C 0.59981 0.47805 0.34421 0.0
C1639 C 0.58835 0.47274 0.30541 0.0
C1640 C 0.5729 0.46216 0.28761 0.0
C1641 C 0.61897 0.49137 0.33719 0.0
C1642 C 0.62269 0.49628 0.31407 0.0
C1643 C 0.60736 0.48665 0.29847 0.0
C1644 C 0.64223 0.51155 0.30571 0.0
C1645 C 0.63504 0.49976 0.35468 0.0
C1646 C 0.65147 0.53052 0.31492 0.0
C1647 C 0.6697 0.54496 0.30687 0.0
C1648 C 0.67884 0.5409 0.28901 0.0
C1649 C 0.66945 0.52203 0.2795 0.0
C1650 C 0.65136 0.50747 0.28785 0.0
H1651 H 0.63137 0.48972 0.36931 0.0
H1652 H 0.64925 0.5026 0.34756 0.0
H1653 H 0.63677 0.51378 0.36106 0.0
H1654 H 0.64447 0.53428 0.32816 0.0
H1655 H 0.67642 0.55945 0.31432 0.0
H1656 H 0.58721 0.12285 0.37154 0.0
H1657 H 0.56588 0.13394 0.35536 0.0
H1658 H 0.53355 0.07906 0.31979 0.0
H1659 H 0.55543 0.06828 0.33508 0.0
H1660 H 0.53827 0.10795 0.29376 0.0
H1661 H 0.51192 0.1172 0.37687 0.0
H1662 H 0.53797 0.13221 0.374 0.0
H1663 H 0.52681 0.1059 0.37381 0.0
C1664 C 0.5756 0.11319 0.36019 0.0
C1665 C 0.57288 0.09464 0.35471 0.0
C1666 C 0.56332 0.11949 0.35108 0.0
C1667 C 0.54775 0.10713 0.33684 0.0
C1668 C 0.54537 0.08881 0.33085 0.0
H1669 H 0.44487 0.11661 0.31177 0.0
H1670 H 0.46933 0.10852 0.3248 0.0
C1671 C 0.55788 0.08266 0.3396 0.0
C1672 C 0.5338 0.11315 0.3283 0.0
H1673 H 0.50261 0.12898 0.34514 0.0
C1674 C 0.53042 0.11249 0.305 0.0
C1675 C 0.52331 0.11879 0.34299 0.0
C1676 C 0.52501 0.11838 0.3683 0.0
C1677 C 0.51686 0.11728 0.29597 0.0
C1678 C 0.50693 0.12363 0.31059 0.0
C1679 C 0.51036 0.12433 0.33389 0.0
C1680 C 0.49221 0.12872 0.30234 0.0
C1681 C 0.51287 0.11481 0.27096 0.0
C1682 C 0.49692 0.14295 0.28551 0.0
C1683 C 0.48279 0.14734 0.27771 0.0
C1684 C 0.46386 0.13797 0.28704 0.0
C1685 C 0.45935 0.12415 0.3043 0.0
C1686 C 0.47334 0.1195 0.31176 0.0
H1687 H 0.51702 0.10445 0.26349 0.0
H1688 H 0.49716 0.10933 0.26728 0.0
H1689 H 0.52173 0.12918 0.2625 0.0
H1690 H 0.51154 0.15072 0.27845 0.0
H1691 H 0.48675 0.15821 0.26455 0.0
H1692 H 0.66385 0.51225 0.90317 0.0
H1693 H 0.69611 0.5197 0.88921 0.0
H1694 H 0.6959 0.56157 0.84251 0.0
H1695 H 0.66337 0.55351 0.85561 0.0
H1696 H 0.70867 0.54098 0.82233 0.0
H1697 H 0.74789 0.56611 0.90374 0.0
H1698 H 0.72789 0.54138 0.90495 0.0
H1699 H 0.72312 0.56118 0.90001 0.0
C1700 C 0.67072 0.52304 0.88993 0.0
C1701 C 0.66111 0.53233 0.88051 0.0
C1702 C 0.68923 0.52741 0.88209 0.0
C1703 C 0.69868 0.54153 0.86514 0.0
C1704 C 0.68898 0.55067 0.85564 0.0
H1705 H 0.82222 0.60197 0.83189 0.0
H1706 H 0.78958 0.59122 0.84723 0.0
C1707 C 0.67036 0.54604 0.86314 0.0
C1708 C 0.71846 0.54659 0.85682 0.0
H1709 H 0.76556 0.56248 0.87349 0.0
C1710 C 0.72112 0.54573 0.83353 0.0
C1711 C 0.7348 0.55306 0.87138 0.0
C1712 C 0.73337 0.5557 0.89637 0.0
C1713 C 0.73958 0.55125 0.82437 0.0
C1714 C 0.75577 0.55703 0.83899 0.0
C1715 C 0.75312 0.55783 0.8623 0.0
C1716 C 0.77572 0.56305 0.83039 0.0
C1717 C 0.74161 0.5515 0.79905 0.0
C1718 C 0.77894 0.55064 0.81624 0.0
C1719 C 0.7975 0.55692 0.8071 0.0
C1720 C 0.81333 0.57551 0.81246 0.0
C1721 C 0.81031 0.58756 0.82746 0.0
C1722 C 0.79165 0.58142 0.83624 0.0
H1723 H 0.72964 0.55258 0.79049 0.0
H1724 H 0.75585 0.56396 0.79342 0.0
H1725 H 0.74075 0.53765 0.79347 0.0
H1726 H 0.76706 0.53615 0.81208 0.0
H1727 H 0.79945 0.54721 0.79584 0.0
H1728 H 0.41118 0.23043 0.83932 0.0
H1729 H 0.42202 0.2089 0.85549 0.0
H1730 H 0.46013 0.2199 0.79852 0.0
H1731 H 0.44963 0.24169 0.78236 0.0
H1732 H 0.41802 0.17515 0.83697 0.0
H1733 H 0.49652 0.22897 0.85165 0.0
H1734 H 0.47855 0.23625 0.84597 0.0
H1735 H 0.48862 0.22894 0.82327 0.0
C1736 C 0.42201 0.22843 0.83031 0.0
C1737 C 0.42957 0.23783 0.80956 0.0
C1738 C 0.42817 0.2161 0.83958 0.0
C1739 C 0.44207 0.213 0.82837 0.0
C1740 C 0.44971 0.22241 0.80771 0.0
H1741 H 0.46126 0.11478 0.84529 0.0
H1742 H 0.45348 0.13933 0.83157 0.0
C1743 C 0.44359 0.23478 0.79843 0.0
C1744 C 0.44778 0.19912 0.83771 0.0
H1745 H 0.48703 0.19519 0.85501 0.0
C1746 C 0.4331 0.17955 0.84103 0.0
C1747 C 0.46743 0.20494 0.84321 0.0
C1748 C 0.48368 0.22596 0.84107 0.0
C1749 C 0.43757 0.16555 0.84927 0.0
C1750 C 0.4573 0.17122 0.85397 0.0
C1751 C 0.47195 0.19087 0.85114 0.0
C1752 C 0.46295 0.1569 0.86191 0.0
C1753 C 0.42109 0.14487 0.85312 0.0
C1754 C 0.47147 0.159 0.88324 0.0
C1755 C 0.47603 0.14503 0.89112 0.0
C1756 C 0.47226 0.12876 0.87774 0.0
C1757 C 0.46425 0.12704 0.85611 0.0
C1758 C 0.45969 0.141 0.84826 0.0
H1759 H 0.40666 0.14413 0.85425 0.0
H1760 H 0.42049 0.13552 0.8388 0.0
H1761 H 0.42348 0.13867 0.86881 0.0
H1762 H 0.4742 0.17124 0.89397 0.0
H1763 H 0.48225 0.14683 0.90783 0.0
H1764 H 0.85723 0.3355 0.91078 0.0
H1765 H 0.83288 0.30294 0.89713 0.0
H1766 H 0.8642 0.31423 0.83429 0.0
H1767 H 0.88871 0.34668 0.84782 0.0
H1768 H 0.80851 0.29154 0.85872 0.0
H1769 H 0.86004 0.26283 0.85646 0.0
H1770 H 0.86555 0.28512 0.87106 0.0
H1771 H 0.86829 0.28519 0.84098 0.0
C1772 C 0.85892 0.33109 0.89402 0.0
C1773 C 0.87502 0.34365 0.88046 0.0
C1774 C 0.84498 0.31249 0.88626 0.0
C1775 C 0.84694 0.30607 0.86487 0.0
C1776 C 0.86265 0.31876 0.85104 0.0
H1777 H 0.76228 0.20832 0.78519 0.0
H1778 H 0.7839 0.24044 0.8018 0.0
C1779 C 0.87658 0.33735 0.85877 0.0
C1780 C 0.83264 0.28604 0.85703 0.0
H1781 H 0.82888 0.24303 0.83948 0.0
C1782 C 0.81291 0.28088 0.8546 0.0
C1783 C 0.83839 0.27209 0.85202 0.0
C1784 C 0.85918 0.27647 0.85545 0.0
C1785 C 0.79885 0.26225 0.84671 0.0
C1786 C 0.80477 0.24857 0.84085 0.0
C1787 C 0.8244 0.25359 0.84382 0.0
C1788 C 0.79092 0.22903 0.83132 0.0
C1789 C 0.77777 0.25732 0.84495 0.0
C1790 C 0.78793 0.21194 0.84222 0.0
C1791 C 0.77568 0.19353 0.83269 0.0
C1792 C 0.76626 0.19187 0.81199 0.0
C1793 C 0.7692 0.20904 0.80121 0.0
C1794 C 0.78147 0.22743 0.81074 0.0
H1795 H 0.77476 0.26702 0.85579 0.0
H1796 H 0.77458 0.25934 0.82726 0.0
H1797 H 0.76762 0.24184 0.84978 0.0
H1798 H 0.79518 0.21286 0.85806 0.0
H1799 H 0.77377 0.18062 0.84143 0.0
H1800 H 0.45067 0.2086 0.28592 0.0
H1801 H 0.46105 0.24067 0.30261 0.0
H1802 H 0.42108 0.21294 0.35795 0.0
H1803 H 0.41039 0.18075 0.34123 0.0
H1804 H 0.41813 0.24337 0.33897 0.0
H1805 H 0.49575 0.26674 0.35753 0.0
H1806 H 0.48881 0.25919 0.32885 0.0
H1807 H 0.4777 0.24163 0.35123 0.0
C1808 C 0.4442 0.20927 0.30175 0.0
C1809 C 0.42971 0.19208 0.31225 0.0
C1810 C 0.45025 0.22763 0.31134 0.0
C1811 C 0.44205 0.22917 0.33169 0.0
C1812 C 0.42768 0.21206 0.3423 0.0
H1813 H 0.48142 0.33562 0.41106 0.0
H1814 H 0.4732 0.30298 0.39766 0.0
C1815 C 0.4216 0.19368 0.33272 0.0
C1816 C 0.44767 0.24868 0.34123 0.0
H1817 H 0.48672 0.29143 0.35988 0.0
C1818 C 0.4331 0.25383 0.34368 0.0
C1819 C 0.46717 0.26223 0.34759 0.0
C1820 C 0.48324 0.25715 0.34639 0.0
C1821 C 0.43758 0.27234 0.35181 0.0
C1822 C 0.45722 0.28618 0.35729 0.0
C1823 C 0.47172 0.28087 0.35541 0.0
C1824 C 0.46295 0.30623 0.36501 0.0
C1825 C 0.42121 0.27686 0.35465 0.0
C1826 C 0.46031 0.31901 0.35089 0.0
C1827 C 0.46497 0.33764 0.35848 0.0
C1828 C 0.47247 0.34389 0.38031 0.0
C1829 C 0.47562 0.33125 0.39418 0.0
C1830 C 0.47095 0.3126 0.38656 0.0
H1831 H 0.40665 0.26329 0.3554 0.0
H1832 H 0.42326 0.28552 0.37021 0.0
H1833 H 0.42118 0.28564 0.34004 0.0
H1834 H 0.45453 0.31452 0.33403 0.0
H1835 H 0.46247 0.34703 0.3473 0.0
H1836 H 0.66304 0.10921 0.35476 0.0
H1837 H 0.69558 0.13356 0.34146 0.0
H1838 H 0.69591 0.17611 0.38756 0.0
H1839 H 0.66368 0.15144 0.40172 0.0
H1840 H 0.7085 0.16676 0.3209 0.0
H1841 H 0.74761 0.18152 0.40243 0.0
H1842 H 0.72283 0.16168 0.39879 0.0
H1843 H 0.72763 0.18628 0.40349 0.0
C1844 C 0.67006 0.12375 0.36211 0.0
C1845 C 0.66087 0.12839 0.37939 0.0
C1846 C 0.68868 0.13767 0.35449 0.0
C1847 C 0.69843 0.1566 0.36379 0.0
C1848 C 0.68901 0.16144 0.38061 0.0
H1849 H 0.79875 0.25188 0.29434 0.0
H1850 H 0.76639 0.23018 0.31044 0.0
C1851 C 0.67051 0.14739 0.38856 0.0
C1852 C 0.71823 0.17125 0.35543 0.0
H1853 H 0.76522 0.20285 0.37212 0.0
C1854 C 0.72091 0.17459 0.33212 0.0
C1855 C 0.73453 0.18129 0.37 0.0
C1856 C 0.73309 0.17738 0.39503 0.0
C1857 C 0.73937 0.1876 0.32296 0.0
C1858 C 0.7555 0.19824 0.3376 0.0
C1859 C 0.75283 0.1949 0.36091 0.0
C1860 C 0.7754 0.21234 0.32902 0.0
C1861 C 0.74143 0.18923 0.29764 0.0
C1862 C 0.7915 0.21025 0.33505 0.0
C1863 C 0.81013 0.22299 0.32635 0.0
C1864 C 0.81296 0.23792 0.31125 0.0
C1865 C 0.79696 0.24032 0.3057 0.0
C1866 C 0.77841 0.22783 0.31475 0.0
H1867 H 0.7296 0.17603 0.28914 0.0
H1868 H 0.74037 0.20206 0.29189 0.0
H1869 H 0.75577 0.1912 0.29212 0.0
H1870 H 0.78959 0.1985 0.34613 0.0
H1871 H 0.82219 0.22076 0.33092 0.0
H1872 H 0.89564 0.55443 0.35382 0.0
H1873 H 0.87122 0.56266 0.34095 0.0
H1874 H 0.82927 0.521 0.38794 0.0
H1875 H 0.85402 0.5134 0.40166 0.0
H1876 H 0.83774 0.54234 0.32104 0.0
H1877 H 0.82427 0.56755 0.40272 0.0
H1878 H 0.84398 0.56246 0.39877 0.0
H1879 H 0.8194 0.54278 0.40392 0.0
C1880 C 0.88123 0.54705 0.36147 0.0
C1881 C 0.87678 0.53335 0.37885 0.0
C1882 C 0.86726 0.55177 0.35409 0.0
C1883 C 0.84847 0.54275 0.36375 0.0
C1884 C 0.84382 0.52864 0.3807 0.0
H1885 H 0.75268 0.54793 0.29572 0.0
H1886 H 0.77441 0.53718 0.31152 0.0
C1887 C 0.85793 0.52417 0.3884 0.0
C1888 C 0.83377 0.54792 0.35562 0.0
H1889 H 0.8026 0.56372 0.37276 0.0
C1890 C 0.83012 0.54708 0.33236 0.0
C1891 C 0.824 0.55439 0.37033 0.0
C1892 C 0.82825 0.55706 0.39528 0.0
C1893 C 0.81707 0.55255 0.3234 0.0
C1894 C 0.80671 0.55827 0.33818 0.0
C1895 C 0.81035 0.55911 0.36144 0.0
C1896 C 0.79259 0.56412 0.32981 0.0
C1897 C 0.81512 0.55279 0.2981 0.0
C1898 C 0.79485 0.5824 0.33579 0.0
C1899 C 0.78211 0.58835 0.32726 0.0
C1900 C 0.76698 0.57621 0.31239 0.0
C1901 C 0.76439 0.55771 0.30689 0.0
C1902 C 0.7769 0.55162 0.31578 0.0
H1903 H 0.82817 0.55401 0.28939 0.0
H1904 H 0.80217 0.53888 0.29259 0.0
H1905 H 0.81317 0.56517 0.29258 0.0
H1906 H 0.80676 0.59228 0.34669 0.0
H1907 H 0.78447 0.6027 0.33179 0.0
H1908 H 0.51696 0.06772 0.83445 0.0
H1909 H 0.54967 0.07859 0.81927 0.0
H1910 H 0.57174 0.13389 0.85381 0.0
H1911 H 0.53928 0.1227 0.86993 0.0
H1912 H 0.57359 0.10713 0.79282 0.0
H1913 H 0.60948 0.11817 0.87602 0.0
H1914 H 0.58327 0.10659 0.87303 0.0
H1915 H 0.59822 0.13292 0.87261 0.0
C1916 C 0.52879 0.08221 0.83878 0.0
C1917 C 0.52563 0.09427 0.85359 0.0
C1918 C 0.54749 0.08842 0.83009 0.0
C1919 C 0.56332 0.10689 0.83582 0.0
C1920 C 0.55995 0.11932 0.84975 0.0
H1921 H 0.67538 0.15746 0.76331 0.0
H1922 H 0.64307 0.15006 0.77704 0.0
C1923 C 0.54135 0.11297 0.85882 0.0
C1924 C 0.58333 0.113 0.82732 0.0
H1925 H 0.63047 0.12952 0.84419 0.0
C1926 C 0.58602 0.11197 0.80406 0.0
C1927 C 0.59952 0.11904 0.84201 0.0
C1928 C 0.59747 0.11905 0.86731 0.0
C1929 C 0.60439 0.11676 0.79509 0.0
C1930 C 0.62072 0.12348 0.8097 0.0
C1931 C 0.61802 0.12457 0.83294 0.0
C1932 C 0.64054 0.12852 0.80153 0.0
C1933 C 0.60588 0.11387 0.77017 0.0
C1934 C 0.65028 0.11953 0.81132 0.0
C1935 C 0.66892 0.12413 0.80393 0.0
C1936 C 0.67817 0.13767 0.7864 0.0
C1937 C 0.66852 0.14681 0.77669 0.0
C1938 C 0.64998 0.14247 0.7844 0.0
H1939 H 0.59138 0.10334 0.76283 0.0
H1940 H 0.61133 0.12809 0.76137 0.0
H1941 H 0.61617 0.1084 0.76677 0.0
H1942 H 0.64336 0.10877 0.82459 0.0
H1943 H 0.67593 0.11677 0.8117 0.0
H1944 H 0.93615 0.44925 0.83682 0.0
H1945 H 0.92565 0.47142 0.82177 0.0
H1946 H 0.87078 0.43938 0.8574 0.0
H1947 H 0.88161 0.41777 0.87338 0.0
H1948 H 0.89699 0.46691 0.79577 0.0
H1949 H 0.88763 0.49338 0.87875 0.0
H1950 H 0.89879 0.47834 0.8758 0.0
H1951 H 0.8725 0.46734 0.87586 0.0
C1952 C 0.92184 0.44693 0.84143 0.0
C1953 C 0.90978 0.43191 0.85647 0.0
C1954 C 0.91585 0.45961 0.83281 0.0
C1955 C 0.8976 0.45738 0.83885 0.0
C1956 C 0.88518 0.44183 0.85309 0.0
H1957 H 0.8471 0.51843 0.76582 0.0
H1958 H 0.85445 0.49367 0.78013 0.0
C1959 C 0.89133 0.42938 0.86206 0.0
C1960 C 0.8917 0.4714 0.83027 0.0
H1961 H 0.87601 0.50276 0.84692 0.0
C1962 C 0.89246 0.4748 0.80696 0.0
C1963 C 0.88608 0.48196 0.8449 0.0
C1964 C 0.88639 0.48024 0.87022 0.0
C1965 C 0.88779 0.48842 0.79787 0.0
C1966 C 0.88144 0.4984 0.81242 0.0
C1967 C 0.88065 0.49497 0.83572 0.0
C1968 C 0.87636 0.51309 0.80405 0.0
C1969 C 0.8904 0.49242 0.77286 0.0
C1970 C 0.88554 0.53201 0.81338 0.0
C1971 C 0.88097 0.54599 0.80567 0.0
C1972 C 0.86727 0.54142 0.78827 0.0
C1973 C 0.85789 0.52243 0.77908 0.0
C1974 C 0.86221 0.50832 0.78711 0.0
H1975 H 0.9008 0.48829 0.76552 0.0
H1976 H 0.87608 0.48356 0.7643 0.0
H1977 H 0.89588 0.50814 0.76917 0.0
H1978 H 0.89646 0.53605 0.82651 0.0
H1979 H 0.88849 0.56051 0.81305 0.0
H1980 H 0.56452 0.489 0.82657 0.0
H1981 H 0.54273 0.45664 0.81039 0.0
H1982 H 0.55591 0.42944 0.86547 0.0
H1983 H 0.57789 0.46168 0.88166 0.0
H1984 H 0.55598 0.41355 0.82282 0.0
H1985 H 0.48859 0.41798 0.83693 0.0
H1986 H 0.50745 0.43801 0.82119 0.0
H1987 H 0.51169 0.43458 0.85015 0.0
C1988 C 0.56286 0.47615 0.8352 0.0
C1989 C 0.57285 0.47793 0.8555 0.0
C1990 C 0.55033 0.45767 0.82598 0.0
C1991 C 0.54749 0.44066 0.83693 0.0
C1992 C 0.55785 0.4424 0.85682 0.0
H1993 H 0.45149 0.32231 0.81991 0.0
H1994 H 0.47627 0.35441 0.83396 0.0
C1995 C 0.57038 0.46085 0.86606 0.0
C1996 C 0.53344 0.42099 0.82794 0.0
H1997 H 0.4849 0.39045 0.81675 0.0
C1998 C 0.54044 0.40847 0.82145 0.0
C1999 C 0.51315 0.41435 0.82649 0.0
C2000 C 0.50467 0.42683 0.83423 0.0
C2001 C 0.52767 0.38949 0.81336 0.0
C2002 C 0.50744 0.38301 0.81146 0.0
C2003 C 0.50045 0.39551 0.81809 0.0
C2004 C 0.49313 0.36317 0.80309 0.0
C2005 C 0.53588 0.37639 0.80739 0.0
C2006 C 0.4944 0.35743 0.78105 0.0
C2007 C 0.48027 0.33903 0.77296 0.0
C2008 C 0.46452 0.3261 0.78673 0.0
C2009 C 0.46341 0.33187 0.80886 0.0
C2010 C 0.47755 0.35024 0.81692 0.0
H2011 H 0.55055 0.38164 0.81504 0.0
H2012 H 0.52591 0.36111 0.81303 0.0
H2013 H 0.53746 0.37624 0.78882 0.0
H2014 H 0.50609 0.36734 0.76995 0.0
H2015 H 0.4815 0.3351 0.7558 0.0
H2016 H 0.55253 0.66198 0.64665 0.0
H2017 H 0.55916 0.69395 0.6602 0.0
H2018 H 0.5185 0.69389 0.61145 0.0
H2019 H 0.51246 0.66218 0.5971 0.0
H2020 H 0.55003 0.72832 0.61234 0.0
H2021 H 0.52683 0.70669 0.70045 0.0
H2022 H 0.54556 0.70122 0.69276 0.0
H2023 H 0.52216 0.68892 0.67867 0.0
C2024 C 0.54487 0.66869 0.63891 0.0
C2025 C 0.53186 0.65949 0.62091 0.0
C2026 C 0.54858 0.68693 0.6468 0.0
C2027 C 0.53896 0.69615 0.63727 0.0
C2028 C 0.526 0.68702 0.6192 0.0
H2029 H 0.54714 0.79832 0.70558 0.0
H2030 H 0.53493 0.76587 0.68889 0.0
C2031 C 0.52254 0.66889 0.61103 0.0
C2032 C 0.54308 0.71565 0.6456 0.0
H2033 H 0.54699 0.74123 0.6936 0.0
C2034 C 0.54913 0.73108 0.63009 0.0
C2035 C 0.54153 0.71924 0.66868 0.0
C2036 C 0.53345 0.70306 0.68603 0.0
C2037 C 0.5543 0.7501 0.6371 0.0
C2038 C 0.55413 0.75398 0.66038 0.0
C2039 C 0.54744 0.7384 0.67578 0.0
C2040 C 0.5611 0.77406 0.66927 0.0
C2041 C 0.55962 0.7657 0.61938 0.0
C2042 C 0.57988 0.78954 0.66386 0.0
C2043 C 0.58672 0.8082 0.67303 0.0
C2044 C 0.57514 0.81162 0.68831 0.0
C2045 C 0.55641 0.79612 0.69387 0.0
C2046 C 0.54943 0.77756 0.68435 0.0
H2047 H 0.55247 0.75918 0.60302 0.0
H2048 H 0.5553 0.77656 0.62456 0.0
H2049 H 0.5757 0.7735 0.61661 0.0
H2050 H 0.58946 0.78712 0.65291 0.0
H2051 H 0.60132 0.81979 0.66867 0.0
H2052 H 0.18479 0.78304 0.66863 0.0
H2053 H 0.21747 0.80417 0.65305 0.0
H2054 H 0.23917 0.77142 0.68931 0.0
H2055 H 0.20671 0.75086 0.7058 0.0
H2056 H 0.26342 0.80828 0.6941 0.0
H2057 H 0.24591 0.79543 0.60342 0.0
H2058 H 0.23134 0.80411 0.61687 0.0
H2059 H 0.22854 0.78078 0.62491 0.0
C2060 C 0.19649 0.78023 0.6731 0.0
C2061 C 0.19319 0.76528 0.6884 0.0
C2062 C 0.21515 0.79222 0.66403 0.0
C2063 C 0.23076 0.78916 0.66958 0.0
C2064 C 0.22738 0.77405 0.68467 0.0
H2065 H 0.34278 0.85248 0.59799 0.0
H2066 H 0.31104 0.82687 0.61233 0.0
C2067 C 0.20882 0.7623 0.69408 0.0
C2068 C 0.25083 0.80245 0.66079 0.0
H2069 H 0.27663 0.82394 0.61283 0.0
C2070 C 0.26632 0.8115 0.67628 0.0
C2071 C 0.25479 0.80643 0.63751 0.0
C2072 C 0.23928 0.79599 0.61973 0.0
C2073 C 0.28548 0.82482 0.66926 0.0
C2074 C 0.28915 0.82987 0.64616 0.0
C2075 C 0.2738 0.82035 0.63058 0.0
C2076 C 0.30867 0.84522 0.63787 0.0
C2077 C 0.30157 0.83309 0.68671 0.0
C2078 C 0.31785 0.86412 0.64726 0.0
C2079 C 0.33611 0.87862 0.63939 0.0
C2080 C 0.34537 0.8747 0.62154 0.0
C2081 C 0.33602 0.85592 0.6118 0.0
C2082 C 0.31788 0.84129 0.61996 0.0
H2083 H 0.29793 0.82295 0.70124 0.0
H2084 H 0.31577 0.83596 0.67951 0.0
H2085 H 0.30333 0.84707 0.69326 0.0
H2086 H 0.31078 0.86776 0.66053 0.0
H2087 H 0.34279 0.89304 0.64701 0.0
H2088 H 0.22125 0.4023 0.67029 0.0
H2089 H 0.19989 0.4136 0.65484 0.0
H2090 H 0.23241 0.46813 0.69104 0.0
H2091 H 0.25324 0.45649 0.70739 0.0
H2092 H 0.19539 0.45525 0.69578 0.0
H2093 H 0.20863 0.45075 0.60515 0.0
H2094 H 0.20003 0.42752 0.61865 0.0
H2095 H 0.22329 0.44816 0.62673 0.0
C2096 C 0.22397 0.41678 0.67478 0.0
C2097 C 0.23896 0.42854 0.69 0.0
C2098 C 0.21183 0.42329 0.66579 0.0
C2099 C 0.21476 0.44192 0.67135 0.0
C2100 C 0.22988 0.45375 0.6864 0.0
H2101 H 0.15246 0.4911 0.59908 0.0
H2102 H 0.17768 0.48464 0.61393 0.0
C2103 C 0.24179 0.44709 0.69572 0.0
C2104 C 0.20142 0.4486 0.66251 0.0
H2105 H 0.18016 0.453 0.61441 0.0
C2106 C 0.19224 0.45496 0.67795 0.0
C2107 C 0.19753 0.4486 0.63921 0.0
C2108 C 0.20807 0.4436 0.62149 0.0
C2109 C 0.17894 0.46079 0.67084 0.0
C2110 C 0.17405 0.45952 0.6477 0.0
C2111 C 0.18364 0.4537 0.63219 0.0
C2112 C 0.15891 0.46392 0.63922 0.0
C2113 C 0.17056 0.46856 0.68823 0.0
C2114 C 0.13991 0.45434 0.64834 0.0
C2115 C 0.12561 0.4583 0.64017 0.0
C2116 C 0.12985 0.47152 0.62229 0.0
C2117 C 0.14876 0.48084 0.61288 0.0
C2118 C 0.16317 0.47715 0.62134 0.0
H2119 H 0.18055 0.47489 0.70292 0.0
H2120 H 0.16785 0.47999 0.68105 0.0
H2121 H 0.15648 0.45633 0.69455 0.0
H2122 H 0.13602 0.44358 0.6616 0.0
H2123 H 0.11109 0.45065 0.64754 0.0
H2124 H 0.33573 0.85742 0.24471 0.0
H2125 H 0.36851 0.86587 0.23161 0.0
H2126 H 0.35678 0.88344 0.16736 0.0
H2127 H 0.32414 0.87529 0.18033 0.0
H2128 H 0.38055 0.85224 0.19456 0.0
H2129 H 0.40752 0.932 0.18815 0.0
H2130 H 0.38531 0.91537 0.20297 0.0
H2131 H 0.38532 0.91702 0.17274 0.0
C2132 C 0.34009 0.86301 0.22776 0.0
C2133 C 0.32736 0.86582 0.21363 0.0
C2134 C 0.35882 0.86783 0.22031 0.0
C2135 C 0.36518 0.87561 0.19868 0.0
C2136 C 0.3523 0.87785 0.1843 0.0
H2137 H 0.4632 0.88816 0.12042 0.0
H2138 H 0.43111 0.87764 0.13712 0.0
C2139 C 0.3336 0.87307 0.19171 0.0
C2140 C 0.38532 0.88152 0.19114 0.0
H2141 H 0.4278 0.9207 0.17225 0.0
C2142 C 0.39094 0.86722 0.18979 0.0
C2143 C 0.39893 0.90113 0.18527 0.0
C2144 C 0.39408 0.91733 0.18754 0.0
C2145 C 0.40966 0.87193 0.1821 0.0
C2146 C 0.42296 0.89138 0.17533 0.0
C2147 C 0.41751 0.90577 0.17727 0.0
C2148 C 0.4425 0.89711 0.16582 0.0
C2149 C 0.41508 0.85608 0.18146 0.0
C2150 C 0.45956 0.91178 0.17623 0.0
C2151 C 0.47796 0.91793 0.16665 0.0
C2152 C 0.47961 0.90961 0.14639 0.0
C2153 C 0.46248 0.89482 0.13609 0.0
C2154 C 0.44411 0.88869 0.14568 0.0
H2155 H 0.40563 0.8437 0.19283 0.0
H2156 H 0.41312 0.85023 0.16406 0.0
H2157 H 0.43063 0.86194 0.18636 0.0
H2158 H 0.45862 0.91856 0.19171 0.0
H2159 H 0.49084 0.92938 0.175 0.0
H2160 H 0.14786 0.47986 0.24427 0.0
H2161 H 0.13944 0.50427 0.23139 0.0
H2162 H 0.12104 0.47474 0.16732 0.0
H2163 H 0.12918 0.45019 0.18006 0.0
H2164 H 0.15281 0.52977 0.19395 0.0
H2165 H 0.07287 0.47731 0.18922 0.0
H2166 H 0.08962 0.47175 0.20377 0.0
H2167 H 0.08753 0.46981 0.17359 0.0
C2168 C 0.14209 0.47859 0.2274 0.0
C2169 C 0.13905 0.46298 0.21325 0.0
C2170 C 0.1373 0.49256 0.22008 0.0
C2171 C 0.1293 0.4911 0.19856 0.0
C2172 C 0.12682 0.4759 0.18417 0.0
H2173 H 0.11623 0.57631 0.1205 0.0
H2174 H 0.12685 0.55476 0.13704 0.0
C2175 C 0.13159 0.46194 0.19145 0.0
C2176 C 0.12341 0.50536 0.19117 0.0
H2177 H 0.0841 0.50878 0.17308 0.0
C2178 C 0.13778 0.52523 0.18949 0.0
C2179 C 0.10373 0.49942 0.18572 0.0
C2180 C 0.08749 0.47845 0.18835 0.0
C2181 C 0.13308 0.53926 0.18187 0.0
C2182 C 0.11355 0.53317 0.17551 0.0
C2183 C 0.0991 0.51339 0.17778 0.0
C2184 C 0.10779 0.54698 0.16609 0.0
C2185 C 0.14901 0.56048 0.18087 0.0
C2186 C 0.09331 0.54952 0.17674 0.0
C2187 C 0.08709 0.56174 0.16726 0.0
C2188 C 0.09517 0.57155 0.14684 0.0
C2189 C 0.10977 0.56906 0.1363 0.0
C2190 C 0.11596 0.55684 0.14579 0.0
H2191 H 0.16153 0.56344 0.19202 0.0
H2192 H 0.15461 0.56416 0.16336 0.0
H2193 H 0.14333 0.57031 0.18583 0.0
H2194 H 0.08673 0.54195 0.19236 0.0
H2195 H 0.0758 0.5633 0.17581 0.0
H2196 H 0.5556 0.68159 0.17875 0.0
H2197 H 0.53088 0.64945 0.16469 0.0
H2198 H 0.50021 0.63705 0.2281 0.0
H2199 H 0.52474 0.6693 0.24226 0.0
H2200 H 0.5217 0.61335 0.18259 0.0
H2201 H 0.45649 0.62289 0.18185 0.0
H2202 H 0.4812 0.64329 0.18404 0.0
H2203 H 0.46922 0.62848 0.20833 0.0
C2204 C 0.5435 0.67213 0.18966 0.0
C2205 C 0.54214 0.67805 0.21163 0.0
C2206 C 0.5294 0.65375 0.18159 0.0
C2207 C 0.51361 0.64095 0.19525 0.0
C2208 C 0.51208 0.64684 0.21712 0.0
H2209 H 0.44163 0.51498 0.17382 0.0
H2210 H 0.46363 0.54755 0.18933 0.0
C2211 C 0.52618 0.66526 0.22522 0.0
C2212 C 0.49929 0.6211 0.18692 0.0
H2213 H 0.45083 0.59077 0.17498 0.0
C2214 C 0.5062 0.6084 0.1809 0.0
C2215 C 0.47913 0.61478 0.18455 0.0
C2216 C 0.47103 0.6281 0.18983 0.0
C2217 C 0.49348 0.58948 0.17271 0.0
C2218 C 0.47324 0.58298 0.17085 0.0
C2219 C 0.46633 0.59573 0.17667 0.0
C2220 C 0.45912 0.5632 0.16217 0.0
C2221 C 0.50187 0.57677 0.16565 0.0
C2222 C 0.44883 0.5612 0.14215 0.0
C2223 C 0.43617 0.54262 0.1333 0.0
C2224 C 0.4335 0.52567 0.14438 0.0
C2225 C 0.44344 0.52772 0.16478 0.0
C2226 C 0.4561 0.54633 0.17362 0.0
H2227 H 0.51798 0.58549 0.16303 0.0
H2228 H 0.49897 0.56582 0.17905 0.0
H2229 H 0.49491 0.56873 0.14985 0.0
H2230 H 0.45091 0.57405 0.13312 0.0
H2231 H 0.42871 0.54158 0.1176 0.0
H2232 H 0.15861 0.67462 0.73602 0.0
H2233 H 0.15209 0.64278 0.72159 0.0
H2234 H 0.11181 0.6435 0.67286 0.0
H2235 H 0.11894 0.67562 0.68649 0.0
H2236 H 0.12023 0.60869 0.72081 0.0
H2237 H 0.14354 0.62996 0.63261 0.0
H2238 H 0.14847 0.64783 0.65435 0.0
H2239 H 0.12501 0.6357 0.64036 0.0
C2240 C 0.14852 0.66805 0.72207 0.0
C2241 C 0.13944 0.6777 0.71223 0.0
C2242 C 0.14479 0.64985 0.71386 0.0
C2243 C 0.13177 0.64088 0.6958 0.0
C2244 C 0.12242 0.65037 0.68627 0.0
H2245 H 0.06949 0.51688 0.66463 0.0
H2246 H 0.08093 0.54956 0.68019 0.0
C2247 C 0.12641 0.6687 0.69419 0.0
C2248 C 0.12734 0.62127 0.68752 0.0
H2249 H 0.12345 0.5955 0.63969 0.0
C2250 C 0.12115 0.60586 0.70309 0.0
C2251 C 0.12889 0.61759 0.66447 0.0
C2252 C 0.13705 0.63371 0.64706 0.0
C2253 C 0.11594 0.58681 0.6962 0.0
C2254 C 0.11621 0.58286 0.67295 0.0
C2255 C 0.12294 0.5984 0.65747 0.0
C2256 C 0.10946 0.56279 0.66419 0.0
C2257 C 0.11051 0.57125 0.71399 0.0
C2258 C 0.12138 0.55938 0.64943 0.0
C2259 C 0.11464 0.54082 0.64004 0.0
C2260 C 0.09592 0.52522 0.64542 0.0
C2261 C 0.08408 0.52855 0.66041 0.0
C2262 C 0.09068 0.54722 0.66946 0.0
H2263 H 0.11747 0.5778 0.73042 0.0
H2264 H 0.0944 0.56337 0.71653 0.0
H2265 H 0.11497 0.56045 0.70901 0.0
H2266 H 0.13588 0.57114 0.64503 0.0
H2267 H 0.12411 0.53869 0.62856 0.0
H2268 H 0.32392 0.44873 0.68076 0.0
H2269 H 0.3564 0.47313 0.66718 0.0
H2270 H 0.36779 0.50469 0.72986 0.0
H2271 H 0.33522 0.48048 0.74355 0.0
H2272 H 0.37921 0.52894 0.69156 0.0
H2273 H 0.40778 0.4773 0.68926 0.0
H2274 H 0.38545 0.46911 0.67374 0.0
H2275 H 0.38549 0.4718 0.70383 0.0
C2276 C 0.33328 0.46089 0.69165 0.0
C2277 C 0.327 0.46257 0.71331 0.0
C2278 C 0.35189 0.47476 0.6839 0.0
C2279 C 0.36462 0.49051 0.69767 0.0
C2280 C 0.35822 0.49256 0.71903 0.0
H2281 H 0.49015 0.5638 0.67489 0.0
H2282 H 0.45783 0.54219 0.69125 0.0
C2283 C 0.3396 0.4787 0.72682 0.0
C2284 C 0.38464 0.50477 0.68983 0.0
H2285 H 0.42769 0.5085 0.67245 0.0
C2286 C 0.38985 0.52452 0.68746 0.0
C2287 C 0.39859 0.49899 0.68485 0.0
C2288 C 0.39417 0.47819 0.68823 0.0
C2289 C 0.40851 0.53858 0.67968 0.0
C2290 C 0.42219 0.53265 0.67385 0.0
C2291 C 0.41712 0.51299 0.67675 0.0
C2292 C 0.44176 0.54651 0.66445 0.0
C2293 C 0.41349 0.55968 0.67801 0.0
C2294 C 0.44343 0.55604 0.64391 0.0
C2295 C 0.46186 0.56842 0.63454 0.0
C2296 C 0.479 0.5714 0.64544 0.0
C2297 C 0.47727 0.56187 0.66607 0.0
C2298 C 0.45881 0.5495 0.67544 0.0
H2299 H 0.40377 0.56267 0.68882 0.0
H2300 H 0.42895 0.56979 0.68294 0.0
H2301 H 0.41154 0.56295 0.66032 0.0
H2302 H 0.43046 0.55362 0.6349 0.0
H2303 H 0.46264 0.57543 0.61857 0.0
H2304 H 0.52485 0.85735 0.74358 0.0
H2305 H 0.50045 0.86538 0.72978 0.0
H2306 H 0.53065 0.88333 0.66607 0.0
H2307 H 0.55525 0.8756 0.67976 0.0
H2308 H 0.5218 0.91046 0.68414 0.0
H2309 H 0.45636 0.83582 0.68395 0.0
H2310 H 0.46929 0.84303 0.7103 0.0
H2311 H 0.48104 0.84002 0.68589 0.0
C2312 C 0.52622 0.86284 0.72655 0.0
C2313 C 0.542 0.86581 0.71276 0.0
C2314 C 0.5122 0.86733 0.71866 0.0
C2315 C 0.51362 0.87473 0.69681 0.0
C2316 C 0.52926 0.87757 0.68296 0.0
H2317 H 0.42886 0.88897 0.61908 0.0
H2318 H 0.45104 0.87882 0.63489 0.0
C2319 C 0.54329 0.87311 0.69082 0.0
C2320 C 0.49932 0.88034 0.68864 0.0
H2321 H 0.45085 0.86233 0.67692 0.0
C2322 C 0.50628 0.89995 0.68255 0.0
C2323 C 0.47913 0.86655 0.68641 0.0
C2324 C 0.47097 0.84513 0.69178 0.0
C2325 C 0.49358 0.90617 0.67438 0.0
C2326 C 0.47332 0.89247 0.6726 0.0
C2327 C 0.46636 0.87283 0.67854 0.0
C2328 C 0.45925 0.89812 0.66375 0.0
C2329 C 0.50202 0.92726 0.66721 0.0
C2330 C 0.45624 0.91207 0.67499 0.0
C2331 C 0.44359 0.91796 0.66598 0.0
C2332 C 0.43365 0.9099 0.64561 0.0
C2333 C 0.43633 0.89553 0.63475 0.0
C2334 C 0.44897 0.88968 0.64377 0.0
H2335 H 0.51813 0.93462 0.66464 0.0
H2336 H 0.4951 0.92829 0.65136 0.0
H2337 H 0.49911 0.93537 0.68052 0.0
H2338 H 0.46377 0.91851 0.69066 0.0
H2339 H 0.44178 0.92897 0.67484 0.0
H2340 H 0.18245 0.4096 0.15929 0.0
H2341 H 0.21497 0.42032 0.14359 0.0
H2342 H 0.24152 0.46057 0.19895 0.0
H2343 H 0.20907 0.45011 0.21472 0.0
H2344 H 0.25771 0.47658 0.156 0.0
H2345 H 0.25353 0.405 0.17127 0.0
H2346 H 0.23348 0.40364 0.15537 0.0
H2347 H 0.23688 0.41156 0.18424 0.0
C2348 C 0.19518 0.4208 0.1681 0.0
C2349 C 0.19315 0.42889 0.18836 0.0
C2350 C 0.21376 0.42684 0.15914 0.0
C2351 C 0.23063 0.44102 0.17029 0.0
C2352 C 0.22866 0.44955 0.19014 0.0
H2353 H 0.34911 0.4636 0.15426 0.0
H2354 H 0.31701 0.45643 0.16811 0.0
C2355 C 0.2101 0.44351 0.19914 0.0
C2356 C 0.25038 0.44668 0.16156 0.0
H2357 H 0.28106 0.42875 0.151 0.0
C2358 C 0.26285 0.46616 0.15488 0.0
C2359 C 0.25709 0.43307 0.16043 0.0
C2360 C 0.24465 0.41218 0.16838 0.0
C2361 C 0.28185 0.47236 0.14684 0.0
C2362 C 0.28839 0.45863 0.14524 0.0
C2363 C 0.27595 0.4392 0.15211 0.0
C2364 C 0.30824 0.46413 0.13697 0.0
C2365 C 0.29488 0.49361 0.1406 0.0
C2366 C 0.31399 0.47088 0.11485 0.0
C2367 C 0.33239 0.47506 0.10687 0.0
C2368 C 0.34531 0.47241 0.12083 0.0
C2369 C 0.33954 0.46581 0.14305 0.0
C2370 C 0.32119 0.46168 0.151 0.0
H2371 H 0.28956 0.50307 0.14799 0.0
H2372 H 0.31017 0.49904 0.14632 0.0
H2373 H 0.29505 0.49512 0.122 0.0
H2374 H 0.30407 0.47252 0.10361 0.0
H2375 H 0.33633 0.48001 0.08964 0.0
H2376 H 0.55469 0.89417 0.14605 0.0
H2377 H 0.56264 0.86962 0.15914 0.0
H2378 H 0.52053 0.82753 0.1126 0.0
H2379 H 0.51319 0.85241 0.09864 0.0
H2380 H 0.54213 0.83629 0.17939 0.0
H2381 H 0.56679 0.82203 0.09774 0.0
H2382 H 0.56192 0.84189 0.10156 0.0
H2383 H 0.54207 0.81734 0.09671 0.0
C2384 C 0.54714 0.87969 0.13855 0.0
C2385 C 0.53339 0.87525 0.12122 0.0
C2386 C 0.55171 0.86566 0.14605 0.0
C2387 C 0.54248 0.84679 0.13659 0.0
C2388 C 0.52832 0.84214 0.11969 0.0
H2389 H 0.54865 0.75173 0.20552 0.0
H2390 H 0.53747 0.77309 0.18965 0.0
C2391 C 0.524 0.85632 0.11186 0.0
C2392 C 0.54754 0.83204 0.14484 0.0
H2393 H 0.56332 0.80079 0.12797 0.0
C2394 C 0.54681 0.82857 0.16813 0.0
C2395 C 0.55393 0.82214 0.13021 0.0
C2396 C 0.55644 0.82617 0.1052 0.0
C2397 C 0.55238 0.81563 0.17722 0.0
C2398 C 0.55808 0.80519 0.16253 0.0
C2399 C 0.55874 0.8086 0.13922 0.0
C2400 C 0.56419 0.79131 0.17103 0.0
C2401 C 0.55276 0.8139 0.20253 0.0
C2402 C 0.58251 0.79373 0.16493 0.0
C2403 C 0.5887 0.7812 0.1735 0.0
C2404 C 0.57679 0.76612 0.18854 0.0
C2405 C 0.55826 0.76339 0.19421 0.0
C2406 C 0.55192 0.7757 0.18528 0.0
H2407 H 0.55388 0.82696 0.21111 0.0
H2408 H 0.53895 0.80091 0.20819 0.0
H2409 H 0.56526 0.81214 0.20805 0.0
H2410 H 0.59221 0.80559 0.15387 0.0
H2411 H 0.60305 0.78367 0.16883 0.0
H2412 H 0.23096 0.82241 0.15974 0.0
H2413 H 0.20903 0.78988 0.1441 0.0
H2414 H 0.22147 0.76323 0.20038 0.0
H2415 H 0.2436 0.79567 0.21605 0.0
H2416 H 0.22159 0.74654 0.15833 0.0
H2417 H 0.15459 0.75207 0.17036 0.0
H2418 H 0.17368 0.77175 0.15444 0.0
H2419 H 0.17765 0.76871 0.18362 0.0
C2420 C 0.22911 0.80964 0.16877 0.0
C2421 C 0.23894 0.81165 0.18925 0.0
C2422 C 0.2165 0.79107 0.15984 0.0
C2423 C 0.2134 0.77416 0.17127 0.0
C2424 C 0.2236 0.7761 0.19135 0.0
H2425 H 0.11674 0.65604 0.15516 0.0
H2426 H 0.14162 0.68822 0.1689 0.0
C2427 C 0.23622 0.79466 0.2003 0.0
C2428 C 0.19926 0.75441 0.16254 0.0
H2429 H 0.15077 0.7242 0.15079 0.0
C2430 C 0.2061 0.74163 0.15665 0.0
C2431 C 0.17903 0.74799 0.16068 0.0
C2432 C 0.1707 0.76074 0.16778 0.0
C2433 C 0.19325 0.72261 0.14872 0.0
C2434 C 0.1731 0.71635 0.14638 0.0
C2435 C 0.16626 0.7291 0.15244 0.0
C2436 C 0.1587 0.69648 0.13819 0.0
C2437 C 0.20128 0.70923 0.14338 0.0
C2438 C 0.16006 0.69043 0.11634 0.0
C2439 C 0.14585 0.67199 0.10842 0.0
C2440 C 0.12996 0.65932 0.12217 0.0
C2441 C 0.12877 0.6654 0.14412 0.0
C2442 C 0.14297 0.6838 0.15201 0.0
H2443 H 0.21586 0.71444 0.15123 0.0
H2444 H 0.19112 0.69407 0.14926 0.0
H2445 H 0.20295 0.70877 0.12486 0.0
H2446 H 0.17188 0.70013 0.10525 0.0
H2447 H 0.14715 0.66781 0.09139 0.0
H2448 H 0.2784 0.2509 0.09485 0.0
H2449 H 0.29653 0.28598 0.10306 0.0
H2450 H 0.32986 0.29638 0.04189 0.0
H2451 H 0.31191 0.26122 0.03358 0.0
H2452 H 0.35276 0.31625 0.08017 0.0
H2453 H 0.28922 0.32781 0.06987 0.0
H2454 H 0.28515 0.30857 0.08917 0.0
H2455 H 0.28905 0.3061 0.0598 0.0
C2456 C 0.28958 0.26062 0.08311 0.0
C2457 C 0.29363 0.25325 0.06348 0.0
C2458 C 0.29986 0.28068 0.08779 0.0
C2459 C 0.31432 0.29378 0.07292 0.0
C2460 C 0.31867 0.28649 0.05352 0.0
H2461 H 0.36462 0.41984 0.07033 0.0
H2462 H 0.34829 0.38488 0.06168 0.0
C2463 C 0.30837 0.26641 0.04879 0.0
C2464 C 0.32494 0.31509 0.07766 0.0
H2465 H 0.31831 0.35436 0.0849 0.0
C2466 C 0.34527 0.32462 0.08115 0.0
C2467 C 0.31513 0.32598 0.07866 0.0
C2468 C 0.29346 0.31668 0.07398 0.0
C2469 C 0.35604 0.34476 0.08598 0.0
C2470 C 0.34613 0.35553 0.08765 0.0
C2471 C 0.32584 0.34603 0.08382 0.0
C2472 C 0.35654 0.37677 0.09291 0.0
C2473 C 0.37795 0.35439 0.08886 0.0
C2474 C 0.36649 0.38381 0.11343 0.0
C2475 C 0.37592 0.40384 0.11843 0.0
C2476 C 0.37541 0.41716 0.10305 0.0
C2477 C 0.36532 0.41001 0.08256 0.0
C2478 C 0.35596 0.39002 0.07757 0.0
H2479 H 0.38382 0.34542 0.08141 0.0
H2480 H 0.38552 0.36914 0.08094 0.0
H2481 H 0.38153 0.35617 0.1071 0.0
H2482 H 0.36676 0.37378 0.12571 0.0
H2483 H 0.38345 0.40884 0.13441 0.0
H2484 H 0.58459 0.94465 0.0709 0.0
H2485 H 0.61962 0.96261 0.06237 0.0
H2486 H 0.63076 0.99517 0.12428 0.0
H2487 H 0.59567 0.97746 0.13287 0.0
H2488 H 0.65062 0.01855 0.08689 0.0
H2489 H 0.66126 0.95419 0.0937 0.0
H2490 H 0.64218 0.95087 0.07456 0.0
H2491 H 0.63962 0.95395 0.10415 0.0
C2492 C 0.59446 0.95562 0.08273 0.0
C2493 C 0.58733 0.95954 0.10264 0.0
C2494 C 0.61449 0.9658 0.07787 0.0
C2495 C 0.62779 0.97998 0.09287 0.0
C2496 C 0.62072 0.9842 0.11254 0.0
H2497 H 0.7537 0.0293 0.09509 0.0
H2498 H 0.71871 0.0129 0.10365 0.0
C2499 C 0.60067 0.97404 0.11743 0.0
C2500 C 0.64908 0.9905 0.08798 0.0
H2501 H 0.688 0.98353 0.07941 0.0
C2502 C 0.65883 0.01093 0.0853 0.0
C2503 C 0.65976 0.98051 0.08619 0.0
C2504 C 0.65025 0.9587 0.09 0.0
C2505 C 0.67898 0.02163 0.08054 0.0
C2506 C 0.68953 0.01157 0.07809 0.0
C2507 C 0.67982 0.99117 0.08109 0.0
C2508 C 0.71077 0.02194 0.07288 0.0
C2509 C 0.68885 0.04365 0.07857 0.0
C2510 C 0.71788 0.03234 0.05264 0.0
C2511 C 0.73791 0.04179 0.04768 0.0
C2512 C 0.75116 0.04087 0.06284 0.0
C2513 C 0.74393 0.03034 0.08305 0.0
C2514 C 0.72393 0.02093 0.08798 0.0
H2515 H 0.67997 0.04944 0.08642 0.0
H2516 H 0.70353 0.05081 0.08664 0.0
H2517 H 0.69082 0.04778 0.06049 0.0
H2518 H 0.70791 0.03297 0.04055 0.0
H2519 H 0.74298 0.04968 0.03192 0.0
H2520 H 0.97498 0.72548 0.09557 0.0
H2521 H 0.99188 0.70732 0.1038 0.0
H2522 H 0.97097 0.6757 0.04125 0.0
H2523 H 0.95377 0.69364 0.03293 0.0
H2524 H 0.96701 0.65175 0.07835 0.0
H2525 H 0.04216 0.716 0.07268 0.0
H2526 H 0.0263 0.71921 0.09177 0.0
H2527 H 0.02089 0.71644 0.06213 0.0
C2528 C 0.97395 0.71467 0.08352 0.0
C2529 C 0.9631 0.71109 0.06351 0.0
C2530 C 0.98371 0.70438 0.08822 0.0
C2531 C 0.98292 0.6904 0.07297 0.0
C2532 C 0.97183 0.68652 0.05318 0.0
H2533 H 0.05939 0.64085 0.07161 0.0
H2534 H 0.0409 0.65727 0.06265 0.0
C2535 C 0.96205 0.6968 0.04845 0.0
C2536 C 0.99359 0.67977 0.07774 0.0
H2537 H 0.03933 0.68652 0.08685 0.0
C2538 C 0.98283 0.65932 0.08015 0.0
C2539 C 0.01424 0.68968 0.07979 0.0
C2540 C 0.02663 0.71152 0.07626 0.0
C2541 C 0.99216 0.64852 0.08496 0.0
C2542 C 0.01275 0.65851 0.08772 0.0
C2543 C 0.02353 0.67892 0.08494 0.0
C2544 C 0.0235 0.64806 0.09311 0.0
C2545 C 0.97995 0.6265 0.08668 0.0
C2546 C 0.01993 0.63755 0.11331 0.0
C2547 C 0.03046 0.62809 0.1185 0.0
C2548 C 0.04485 0.62911 0.10362 0.0
C2549 C 0.04841 0.63974 0.08344 0.0
C2550 C 0.03787 0.64915 0.07828 0.0
H2551 H 0.96539 0.6208 0.07857 0.0
H2552 H 0.98754 0.61936 0.07873 0.0
H2553 H 0.97752 0.62222 0.10472 0.0
H2554 H 0.00917 0.63685 0.1252 0.0
H2555 H 0.02743 0.62012 0.13423 0.0
H2556 H 0.26219 0.30958 0.46582 0.0
H2557 H 0.29723 0.32787 0.45711 0.0
H2558 H 0.28635 0.29649 0.39435 0.0
H2559 H 0.25136 0.27795 0.403 0.0
H2560 H 0.317 0.29794 0.41866 0.0
H2561 H 0.32535 0.37196 0.411 0.0
H2562 H 0.31446 0.35968 0.43702 0.0
H2563 H 0.30174 0.3498 0.41092 0.0
C2564 C 0.26723 0.30663 0.45011 0.0
C2565 C 0.25396 0.29233 0.43508 0.0
C2566 C 0.28725 0.31718 0.4451 0.0
C2567 C 0.29434 0.31373 0.42494 0.0
C2568 C 0.28115 0.29944 0.40996 0.0
H2569 H 0.41042 0.3842 0.36663 0.0
H2570 H 0.37517 0.36691 0.37436 0.0
C2571 C 0.26116 0.28887 0.41494 0.0
C2572 C 0.31558 0.32452 0.41975 0.0
H2573 H 0.35469 0.37035 0.41118 0.0
C2574 C 0.32524 0.31376 0.41695 0.0
C2575 C 0.32623 0.34514 0.41726 0.0
C2576 C 0.31642 0.35735 0.41899 0.0
C2577 C 0.34535 0.3231 0.41209 0.0
C2578 C 0.35612 0.34377 0.41034 0.0
C2579 C 0.34641 0.35451 0.41275 0.0
C2580 C 0.37749 0.35449 0.40593 0.0
C2581 C 0.35482 0.31073 0.40854 0.0
C2582 C 0.39047 0.35348 0.4213 0.0
C2583 C 0.41059 0.36329 0.41693 0.0
C2584 C 0.41813 0.37442 0.39715 0.0
C2585 C 0.4051 0.37571 0.38198 0.0
C2586 C 0.38496 0.36586 0.38637 0.0
H2587 H 0.3438 0.29525 0.40465 0.0
H2588 H 0.36567 0.31664 0.39461 0.0
H2589 H 0.36261 0.31085 0.42416 0.0
H2590 H 0.38504 0.34509 0.43671 0.0
H2591 H 0.42021 0.36208 0.42905 0.0
H2592 H 0.64207 0.05903 0.43061 0.0
H2593 H 0.65888 0.04083 0.43922 0.0
H2594 H 0.63699 0.00797 0.37757 0.0
H2595 H 0.61989 0.02592 0.3689 0.0
H2596 H 0.63347 0.98471 0.41498 0.0
H2597 H 0.70865 0.04871 0.40773 0.0
H2598 H 0.69306 0.05221 0.42696 0.0
H2599 H 0.6873 0.0491 0.3974 0.0
C2600 C 0.64081 0.04793 0.41885 0.0
C2601 C 0.62972 0.04401 0.39898 0.0
C2602 C 0.65051 0.03762 0.42377 0.0
C2603 C 0.64943 0.02329 0.40886 0.0
C2604 C 0.63808 0.01906 0.38923 0.0
H2605 H 0.72545 0.97341 0.40591 0.0
H2606 H 0.70693 0.98992 0.3976 0.0
C2607 C 0.62835 0.02935 0.3843 0.0
C2608 C 0.66009 0.01266 0.41375 0.0
H2609 H 0.7059 0.01931 0.42198 0.0
C2610 C 0.64931 0.99224 0.41648 0.0
C2611 C 0.68077 0.02253 0.4154 0.0
C2612 C 0.69318 0.04432 0.41152 0.0
C2613 C 0.65864 0.98142 0.42113 0.0
C2614 C 0.67928 0.99137 0.42343 0.0
C2615 C 0.69007 0.01176 0.42041 0.0
C2616 C 0.69006 0.98088 0.42846 0.0
C2617 C 0.64639 0.95942 0.42313 0.0
C2618 C 0.6868 0.97043 0.44866 0.0
C2619 C 0.69735 0.96091 0.45346 0.0
C2620 C 0.71144 0.96181 0.4382 0.0
C2621 C 0.7147 0.97239 0.41803 0.0
C2622 C 0.70414 0.98185 0.41325 0.0
H2623 H 0.63169 0.95372 0.41538 0.0
H2624 H 0.65379 0.95217 0.41498 0.0
H2625 H 0.64428 0.9553 0.44122 0.0
H2626 H 0.67627 0.96982 0.46083 0.0
H2627 H 0.69455 0.95299 0.4692 0.0
H2628 H 0.02989 0.75251 0.40536 0.0
H2629 H 0.0132 0.71744 0.39711 0.0
H2630 H 0.03547 0.70715 0.45886 0.0
H2631 H 0.05243 0.74228 0.46719 0.0
H2632 H 0.03908 0.68732 0.42126 0.0
H2633 H 0.9637 0.67547 0.42929 0.0
H2634 H 0.97909 0.69462 0.41002 0.0
H2635 H 0.98502 0.6973 0.43952 0.0
C2636 C 0.03126 0.74282 0.41722 0.0
C2637 C 0.04242 0.7502 0.43701 0.0
C2638 C 0.02163 0.72276 0.41251 0.0
C2639 C 0.02287 0.70969 0.42754 0.0
C2640 C 0.03426 0.71701 0.4471 0.0
H2641 H 0.94728 0.58351 0.42956 0.0
H2642 H 0.96574 0.61845 0.43846 0.0
C2643 C 0.04391 0.73708 0.45184 0.0
C2644 C 0.01233 0.68838 0.4228 0.0
H2645 H 0.96663 0.64898 0.41477 0.0
C2646 C 0.02324 0.6789 0.41989 0.0
C2647 C 0.99165 0.67742 0.42132 0.0
C2648 C 0.97912 0.68664 0.4254 0.0
C2649 C 0.01402 0.65875 0.41516 0.0
C2650 C 0.99338 0.64792 0.41298 0.0
C2651 C 0.98246 0.65736 0.41625 0.0
C2652 C 0.98273 0.62669 0.40768 0.0
C2653 C 0.02642 0.64919 0.41291 0.0
C2654 C 0.98608 0.61975 0.38734 0.0
C2655 C 0.97559 0.59975 0.3822 0.0
C2656 C 0.96143 0.58636 0.39726 0.0
C2657 C 0.95809 0.59341 0.41759 0.0
C2658 C 0.96861 0.61338 0.42271 0.0
H2659 H 0.04109 0.6582 0.42074 0.0
H2660 H 0.01911 0.63444 0.42083 0.0
H2661 H 0.02862 0.64743 0.39478 0.0
H2662 H 0.99663 0.62984 0.37529 0.0
H2663 H 0.97844 0.59484 0.36634 0.0
H2664 H 0.62081 0.59396 0.86812 0.0
H2665 H 0.63789 0.62907 0.87655 0.0
H2666 H 0.65853 0.61831 0.93925 0.0
H2667 H 0.64176 0.58325 0.93088 0.0
H2668 H 0.63375 0.64904 0.91325 0.0
H2669 H 0.70895 0.65996 0.90873 0.0
H2670 H 0.68778 0.63818 0.89815 0.0
H2671 H 0.69295 0.641 0.92785 0.0
C2672 C 0.62899 0.59905 0.8837 0.0
C2673 C 0.63003 0.58581 0.89875 0.0
C2674 C 0.63871 0.61911 0.88849 0.0
C2675 C 0.6497 0.6263 0.90835 0.0
C2676 C 0.65045 0.6131 0.92362 0.0
H2677 H 0.69404 0.74189 0.96787 0.0
H2678 H 0.67585 0.70676 0.95955 0.0
C2679 C 0.64077 0.59305 0.91884 0.0
C2680 C 0.66033 0.64761 0.91312 0.0
H2681 H 0.70602 0.68673 0.92223 0.0
C2682 C 0.64955 0.65731 0.91518 0.0
C2683 C 0.68097 0.65838 0.91534 0.0
C2684 C 0.6934 0.64892 0.91221 0.0
C2685 C 0.65885 0.67749 0.91971 0.0
C2686 C 0.67943 0.68814 0.92257 0.0
C2687 C 0.69022 0.67848 0.92023 0.0
C2688 C 0.69015 0.70941 0.92755 0.0
C2689 C 0.64663 0.68731 0.921 0.0
C2690 C 0.70447 0.72249 0.91253 0.0
C2691 C 0.71497 0.74253 0.91728 0.0
C2692 C 0.71141 0.74989 0.93723 0.0
C2693 C 0.69708 0.73673 0.9523 0.0
C2694 C 0.68659 0.71666 0.94753 0.0
H2695 H 0.63206 0.6783 0.91296 0.0
H2696 H 0.64423 0.68947 0.93895 0.0
H2697 H 0.65422 0.70191 0.91272 0.0
H2698 H 0.7075 0.71717 0.89707 0.0
H2699 H 0.72592 0.75223 0.90531 0.0
H2700 H 0.26225 0.95292 0.96844 0.0
H2701 H 0.29742 0.97011 0.96022 0.0
H2702 H 0.28687 0.99101 0.89759 0.0
H2703 H 0.25179 0.97413 0.90573 0.0
H2704 H 0.3175 0.96613 0.92326 0.0
H2705 H 0.32845 0.0413 0.92863 0.0
H2706 H 0.30671 0.02006 0.93916 0.0
H2707 H 0.3094 0.02544 0.90951 0.0
C2708 C 0.26741 0.9612 0.95293 0.0
C2709 C 0.25422 0.96226 0.93782 0.0
C2710 C 0.2875 0.97098 0.94825 0.0
C2711 C 0.29475 0.98206 0.92847 0.0
C2712 C 0.28161 0.98285 0.91316 0.0
H2713 H 0.40939 0.02619 0.86697 0.0
H2714 H 0.37445 0.00796 0.8762 0.0
C2715 C 0.26154 0.9731 0.91781 0.0
C2716 C 0.31607 0.99271 0.92373 0.0
H2717 H 0.35506 0.03843 0.91438 0.0
C2718 C 0.32575 0.98194 0.92138 0.0
C2719 C 0.32681 0.01336 0.92158 0.0
C2720 C 0.31739 0.02577 0.92505 0.0
C2721 C 0.34588 0.99126 0.91653 0.0
C2722 C 0.35648 0.01184 0.91364 0.0
C2723 C 0.34685 0.02263 0.91638 0.0
C2724 C 0.37767 0.02256 0.90813 0.0
C2725 C 0.35568 0.97903 0.91489 0.0
C2726 C 0.391 0.03709 0.92279 0.0
C2727 C 0.41093 0.04762 0.9175 0.0
C2728 C 0.41793 0.04389 0.89736 0.0
C2729 C 0.40451 0.02935 0.88266 0.0
C2730 C 0.38455 0.01884 0.88797 0.0
H2731 H 0.34685 0.96454 0.92316 0.0
H2732 H 0.35741 0.97644 0.89687 0.0
H2733 H 0.37045 0.98669 0.92272 0.0
H2734 H 0.38597 0.04025 0.93838 0.0
H2735 H 0.42084 0.05872 0.9292 0.0
H2736 H 0.05126 0.3097 0.96949 0.0
H2737 H 0.03393 0.32756 0.96143 0.0
H2738 H 0.01341 0.29651 0.89848 0.0
H2739 H 0.03044 0.27843 0.90646 0.0
H2740 H 0.0379 0.35182 0.92477 0.0
H2741 H 0.96289 0.28724 0.9294 0.0
H2742 H 0.98416 0.2868 0.93992 0.0
H2743 H 0.97891 0.28436 0.91023 0.0
C2744 C 0.04304 0.30665 0.95394 0.0
C2745 C 0.04213 0.29254 0.93869 0.0
C2746 C 0.03318 0.31688 0.94936 0.0
C2747 C 0.02216 0.31313 0.92954 0.0
C2748 C 0.02152 0.29934 0.91409 0.0
H2749 H 0.97763 0.38365 0.86911 0.0
H2750 H 0.99593 0.36695 0.87803 0.0
C2751 C 0.03135 0.2891 0.91865 0.0
C2752 C 0.01141 0.32372 0.92492 0.0
H2753 H 0.96563 0.31681 0.91562 0.0
C2754 C 0.02209 0.3442 0.92283 0.0
C2755 C 0.99078 0.31373 0.92269 0.0
C2756 C 0.97846 0.29184 0.92588 0.0
C2757 C 0.0127 0.35496 0.91817 0.0
C2758 C 0.99213 0.3449 0.91521 0.0
C2759 C 0.98143 0.32445 0.91768 0.0
C2760 C 0.98132 0.35531 0.90989 0.0
C2761 C 0.02482 0.37701 0.9168 0.0
C2762 C 0.96677 0.35397 0.92461 0.0
C2763 C 0.9562 0.36336 0.91951 0.0
C2764 C 0.95992 0.37423 0.89949 0.0
C2765 C 0.97447 0.37549 0.88472 0.0
C2766 C 0.98503 0.36606 0.88984 0.0
H2767 H 0.03931 0.38267 0.92508 0.0
H2768 H 0.02741 0.3815 0.89884 0.0
H2769 H 0.01708 0.38398 0.92479 0.0
H2770 H 0.96363 0.34567 0.94012 0.0
H2771 H 0.94509 0.36206 0.93125 0.0
H2772 H 0.7536 0.72523 0.59572 0.0
H2773 H 0.71858 0.70699 0.60417 0.0
H2774 H 0.70764 0.67576 0.54129 0.0
H2775 H 0.74273 0.69377 0.53277 0.0
H2776 H 0.6881 0.70589 0.57965 0.0
H2777 H 0.67921 0.63164 0.5874 0.0
H2778 H 0.7029 0.65369 0.5876 0.0
H2779 H 0.69022 0.64397 0.56144 0.0
C2780 C 0.74379 0.71442 0.58371 0.0
C2781 C 0.75099 0.71091 0.56359 0.0
C2782 C 0.72377 0.70402 0.58857 0.0
C2783 C 0.71056 0.68985 0.5735 0.0
C2784 C 0.71764 0.68636 0.55335 0.0
H2785 H 0.58451 0.64194 0.57106 0.0
H2786 H 0.61956 0.65881 0.56267 0.0
C2787 C 0.73769 0.69675 0.54846 0.0
C2788 C 0.68931 0.67919 0.57865 0.0
H2789 H 0.65007 0.63354 0.58767 0.0
C2790 C 0.67978 0.69007 0.58144 0.0
C2791 C 0.67856 0.65859 0.58124 0.0
C2792 C 0.68824 0.64626 0.57948 0.0
C2793 C 0.65971 0.68088 0.5865 0.0
C2794 C 0.64885 0.66022 0.58845 0.0
C2795 C 0.65842 0.64936 0.58596 0.0
C2796 C 0.62755 0.64965 0.59332 0.0
C2797 C 0.65039 0.69338 0.5901 0.0
C2798 C 0.62038 0.63849 0.61306 0.0
C2799 C 0.60032 0.62873 0.61787 0.0
C2800 C 0.58707 0.62988 0.60294 0.0
C2801 C 0.59431 0.64084 0.583 0.0
C2802 C 0.61435 0.65058 0.57821 0.0
H2803 H 0.66151 0.70888 0.5937 0.0
H2804 H 0.64238 0.69312 0.57461 0.0
H2805 H 0.63975 0.68768 0.60424 0.0
H2806 H 0.63034 0.63752 0.62488 0.0
H2807 H 0.59524 0.62037 0.63334 0.0
H2808 H 0.27989 0.03094 0.5964 0.0
H2809 H 0.29849 0.0146 0.6052 0.0
H2810 H 0.32751 0.03217 0.54077 0.0
H2811 H 0.30918 0.04885 0.53192 0.0
H2812 H 0.29865 0.98424 0.58228 0.0
H2813 H 0.37327 0.04958 0.58465 0.0
H2814 H 0.35132 0.0514 0.58524 0.0
H2815 H 0.36005 0.04709 0.55907 0.0
C2816 C 0.29031 0.03144 0.58412 0.0
C2817 C 0.29309 0.04126 0.56347 0.0
C2818 C 0.30091 0.02208 0.58919 0.0
C2819 C 0.31457 0.0224 0.57378 0.0
C2820 C 0.31735 0.0321 0.5531 0.0
H2821 H 0.36183 0.94385 0.57239 0.0
H2822 H 0.34486 0.96194 0.56408 0.0
C2823 C 0.30677 0.04153 0.54802 0.0
C2824 C 0.32535 0.01196 0.57909 0.0
H2825 H 0.37125 0.01847 0.58618 0.0
C2826 C 0.31452 0.99172 0.58318 0.0
C2827 C 0.34604 0.02182 0.58052 0.0
C2828 C 0.35838 0.0437 0.57735 0.0
C2829 C 0.32383 0.98099 0.58836 0.0
C2830 C 0.34453 0.99073 0.58912 0.0
C2831 C 0.35537 0.01103 0.58537 0.0
C2832 C 0.35519 0.98009 0.59393 0.0
C2833 C 0.31143 0.95937 0.59333 0.0
C2834 C 0.36701 0.98466 0.61319 0.0
C2835 C 0.37681 0.97439 0.61797 0.0
C2836 C 0.37504 0.95946 0.60347 0.0
C2837 C 0.36343 0.95518 0.58398 0.0
C2838 C 0.35364 0.96544 0.57925 0.0
H2839 H 0.2961 0.95523 0.59758 0.0
H2840 H 0.31105 0.95089 0.57822 0.0
H2841 H 0.31767 0.95506 0.60751 0.0
H2842 H 0.36845 0.996 0.62467 0.0
H2843 H 0.38568 0.9781 0.63307 0.0
H2844 H 0.06721 0.41761 0.5804 0.0
H2845 H 0.04855 0.38262 0.57187 0.0
H2846 H 1.00108 0.37677 0.61365 0.0
H2847 H 0.02009 0.41164 0.62307 0.0
H2848 H 0.00719 0.34783 0.62146 0.0
H2849 H 0.00422 0.35481 0.52907 0.0
H2850 H 0.02902 0.36675 0.53897 0.0
H2851 H 0.01291 0.3756 0.54769 0.0
C2852 C 0.05276 0.40888 0.58769 0.0
C2853 C 0.04506 0.41738 0.60232 0.0
C2854 C 0.04203 0.38889 0.58265 0.0
C2855 C 0.02318 0.37711 0.59164 0.0
C2856 C 0.01553 0.38557 0.60638 0.0
H2857 H 0.94457 0.25908 0.54082 0.0
H2858 H 0.96041 0.29404 0.54985 0.0
C2859 C 0.02641 0.4055 0.61176 0.0
C2860 C 0.01175 0.35584 0.58634 0.0
H2861 H 0.9958 0.32299 0.54293 0.0
C2862 C 0.00455 0.34241 0.60427 0.0
C2863 C 0.00793 0.34872 0.56392 0.0
C2864 C 0.01374 0.36224 0.54384 0.0
C2865 C 0.99407 0.32212 0.60044 0.0
C2866 C 0.99136 0.31499 0.57804 0.0
C2867 C 0.99812 0.32841 0.5601 0.0
C2868 C 0.98161 0.29371 0.57282 0.0
C2869 C 0.98574 0.3086 0.62046 0.0
C2870 C 0.98839 0.28192 0.58246 0.0
C2871 C 0.97914 0.2619 0.57763 0.0
C2872 C 0.96325 0.25336 0.5626 0.0
C2873 C 0.95679 0.26525 0.55247 0.0
C2874 C 0.96583 0.28523 0.55762 0.0
H2875 H 0.98329 0.31607 0.63494 0.0
H2876 H 0.97163 0.29528 0.61625 0.0
H2877 H 0.99631 0.30402 0.62597 0.0
H2878 H 1.00094 0.28822 0.59362 0.0
H2879 H 0.98463 0.25317 0.58545 0.0
H2880 H 0.92916 0.64371 0.79867 0.0
H2881 H 0.96415 0.66188 0.7898 0.0
H2882 H 0.95312 0.62946 0.72778 0.0
H2883 H 0.91815 0.61101 0.73664 0.0
H2884 H 0.98387 0.63139 0.75214 0.0
H2885 H 0.9921 0.70524 0.74302 0.0
H2886 H 0.98136 0.69342 0.76928 0.0
H2887 H 0.9685 0.68309 0.74334 0.0
C2888 C 0.93415 0.6405 0.78308 0.0
C2889 C 0.92084 0.62593 0.76833 0.0
C2890 C 0.95414 0.65099 0.77798 0.0
C2891 C 0.96118 0.64722 0.75797 0.0
C2892 C 0.94796 0.63266 0.74326 0.0
H2893 H 0.07722 0.71763 0.69973 0.0
H2894 H 0.04199 0.70025 0.70745 0.0
C2895 C 0.92798 0.62214 0.74835 0.0
C2896 C 0.98241 0.65796 0.75272 0.0
H2897 H 0.0215 0.70373 0.74378 0.0
C2898 C 0.99209 0.6472 0.75023 0.0
C2899 C 0.99304 0.67856 0.74997 0.0
C2900 C 0.98321 0.69077 0.75132 0.0
C2901 C 0.01221 0.65651 0.74543 0.0
C2902 C 0.02298 0.67717 0.74345 0.0
C2903 C 0.01324 0.68791 0.74554 0.0
C2904 C 0.04435 0.68788 0.73903 0.0
C2905 C 0.02169 0.64411 0.74217 0.0
C2906 C 0.05736 0.68692 0.75442 0.0
C2907 C 0.07748 0.69677 0.75005 0.0
C2908 C 0.08499 0.70791 0.73026 0.0
C2909 C 0.07193 0.70914 0.71509 0.0
C2910 C 0.0518 0.69924 0.71947 0.0
H2911 H 0.01069 0.62862 0.73833 0.0
H2912 H 0.03262 0.64995 0.72831 0.0
H2913 H 0.02939 0.64429 0.7579 0.0
H2914 H 0.05195 0.67856 0.76985 0.0
H2915 H 0.08712 0.69562 0.76217 0.0
H2916 H 0.31867 0.40055 0.75352 0.0
H2917 H 0.33617 0.38283 0.76085 0.0
H2918 H 0.29502 0.33517 0.71892 0.0
H2919 H 0.27798 0.35326 0.71069 0.0
H2920 H 0.32565 0.34959 0.78079 0.0
H2921 H 0.34517 0.34368 0.69265 0.0
H2922 H 0.33497 0.35884 0.7005 0.0
H2923 H 0.31922 0.33287 0.69642 0.0
C2924 C 0.3134 0.38633 0.74577 0.0
C2925 C 0.29704 0.37835 0.73139 0.0
C2926 C 0.32342 0.37621 0.74999 0.0
C2927 C 0.31717 0.35781 0.74011 0.0
C2928 C 0.30052 0.3496 0.72618 0.0
H2929 H 0.35509 0.2778 0.7903 0.0
H2930 H 0.33677 0.2946 0.78213 0.0
C2931 C 0.2907 0.35988 0.72161 0.0
C2932 C 0.32787 0.34713 0.74488 0.0
H2933 H 0.3504 0.3246 0.71988 0.0
C2934 C 0.33115 0.34421 0.76746 0.0
C2935 C 0.33533 0.34036 0.72751 0.0
C2936 C 0.33369 0.34427 0.70293 0.0
C2937 C 0.34157 0.33467 0.77315 0.0
C2938 C 0.34827 0.32715 0.75578 0.0
C2939 C 0.34508 0.33015 0.73321 0.0
C2940 C 0.35912 0.31662 0.76056 0.0
C2941 C 0.34576 0.33333 0.7977 0.0
C2942 C 0.37744 0.32287 0.75047 0.0
C2943 C 0.38769 0.31298 0.75466 0.0
C2944 C 0.37993 0.29675 0.76923 0.0
C2945 C 0.36156 0.29042 0.77924 0.0
C2946 C 0.35114 0.30011 0.7747 0.0
H2947 H 0.34518 0.34487 0.80788 0.0
H2948 H 0.33449 0.31891 0.80445 0.0
H2949 H 0.3604 0.33475 0.8 0.0
H2950 H 0.38389 0.33552 0.73943 0.0
H2951 H 0.40183 0.31823 0.74672 0.0
H2952 H 0.64526 0.92753 0.70082 0.0
H2953 H 0.66358 0.96266 0.70911 0.0
H2954 H 0.63015 0.95275 0.77011 0.0
H2955 H 0.61163 0.91768 0.76189 0.0
H2956 H 0.63284 0.98337 0.74401 0.0
H2957 H 0.70599 0.99077 0.7574 0.0
H2958 H 0.69455 0.97956 0.73112 0.0
H2959 H 0.68364 0.96733 0.75717 0.0
C2960 C 0.64186 0.9328 0.71606 0.0
C2961 C 0.62701 0.91978 0.73072 0.0
C2962 C 0.65242 0.95287 0.72082 0.0
C2963 C 0.64839 0.96025 0.74037 0.0
C2964 C 0.63355 0.94732 0.75499 0.0
H2965 H 0.71734 0.07571 0.79996 0.0
H2966 H 0.7001 0.04058 0.79165 0.0
C2967 C 0.62299 0.92727 0.75026 0.0
C2968 C 0.65919 0.98154 0.7453 0.0
H2969 H 0.70479 0.02026 0.75606 0.0
C2970 C 0.64857 0.99145 0.74668 0.0
C2971 C 0.67966 0.99196 0.74905 0.0
C2972 C 0.69165 0.98187 0.74883 0.0
C2973 C 0.6579 0.01157 0.75145 0.0
C2974 C 0.67846 0.02212 0.75455 0.0
C2975 C 0.68905 0.01217 0.75346 0.0
C2976 C 0.68919 0.04345 0.75926 0.0
C2977 C 0.64561 0.02128 0.75354 0.0
C2978 C 0.68903 0.05673 0.74363 0.0
C2979 C 0.69879 0.07679 0.74835 0.0
C2980 C 0.70906 0.08398 0.76873 0.0
C2981 C 0.70953 0.07067 0.78414 0.0
C2982 C 0.69971 0.05059 0.77942 0.0
H2983 H 0.62993 0.01041 0.75655 0.0
H2984 H 0.65095 0.03213 0.76749 0.0
H2985 H 0.6466 0.02913 0.73763 0.0
H2986 H 0.68134 0.05156 0.72776 0.0
H2987 H 0.69825 0.08664 0.73602 0.0
H2988 H 0.30866 0.918 0.26229 0.0
H2989 H 0.32529 0.9531 0.27033 0.0
H2990 H 0.3046 0.9633 0.20733 0.0
H2991 H 0.28765 0.92813 0.19923 0.0
H2992 H 0.35448 0.98338 0.24542 0.0
H2993 H 0.28899 0.99207 0.25306 0.0
H2994 H 0.28744 0.96842 0.25354 0.0
H2995 H 0.29027 0.98086 0.22723 0.0
C2996 C 0.30753 0.92767 0.25016 0.0
C2997 C 0.29676 0.92024 0.23013 0.0
C2998 C 0.31707 0.94773 0.2548 0.0
C2999 C 0.31597 0.96076 0.23957 0.0
C3000 C 0.30531 0.95344 0.21951 0.0
H3001 H 0.39407 0.08697 0.23662 0.0
H3002 H 0.37582 0.05193 0.22811 0.0
C3003 C 0.29573 0.93335 0.21486 0.0
C3004 C 0.32653 0.98206 0.24444 0.0
H3005 H 0.31999 0.02126 0.25312 0.0
C3006 C 0.34695 0.99167 0.24713 0.0
C3007 C 0.31662 0.99276 0.24692 0.0
C3008 C 0.2946 0.98301 0.24525 0.0
C3009 C 0.35779 0.01178 0.25201 0.0
C3010 C 0.34795 0.02259 0.25389 0.0
C3011 C 0.3275 0.01295 0.25146 0.0
C3012 C 0.35862 0.0439 0.25873 0.0
C3013 C 0.37962 0.02118 0.25554 0.0
C3014 C 0.3546 0.05105 0.27847 0.0
C3015 C 0.36493 0.0711 0.28334 0.0
C3016 C 0.3794 0.08436 0.26848 0.0
C3017 C 0.38312 0.07716 0.24851 0.0
C3018 C 0.37277 0.05712 0.24365 0.0
H3019 H 0.38407 0.01011 0.25917 0.0
H3020 H 0.38732 0.02915 0.24001 0.0
H3021 H 0.38457 0.03187 0.26965 0.0
H3022 H 0.34365 0.04107 0.29027 0.0
H3023 H 0.36165 0.07615 0.29883 0.0
H3024 H 0.91765 0.30817 0.23562 0.0
H3025 H 0.95257 0.32466 0.22654 0.0
H3026 H 0.96388 0.30326 0.28834 0.0
H3027 H 0.92893 0.28647 0.29746 0.0
H3028 H 0.9835 0.35348 0.25094 0.0
H3029 H 0.99147 0.28777 0.241 0.0
H3030 H 0.9679 0.2864 0.24149 0.0
H3031 H 0.98079 0.28878 0.26735 0.0
C3032 C 0.92753 0.30686 0.24725 0.0
C3033 C 0.92048 0.29593 0.26724 0.0
C3034 C 0.94748 0.31631 0.24202 0.0
C3035 C 0.96076 0.31495 0.2566 0.0
C3036 C 0.95382 0.30416 0.27662 0.0
H3037 H 0.08657 0.39199 0.26115 0.0
H3038 H 0.05137 0.37383 0.26861 0.0
C3039 C 0.93385 0.29467 0.28187 0.0
C3040 C 0.98196 0.32542 0.2512 0.0
H3041 H 0.02093 0.31865 0.24177 0.0
C3042 C 0.99168 0.34587 0.24885 0.0
C3043 C 0.99252 0.31541 0.24821 0.0
C3044 C 0.98263 0.29336 0.24942 0.0
C3045 C 0.01178 0.35666 0.24398 0.0
C3046 C 0.02249 0.34673 0.24178 0.0
C3047 C 0.0127 0.32623 0.24369 0.0
C3048 C 0.04387 0.35738 0.23745 0.0
C3049 C 0.02133 0.37856 0.24094 0.0
C3050 C 0.05136 0.35374 0.21774 0.0
C3051 C 0.07152 0.36401 0.21346 0.0
C3052 C 0.08453 0.37805 0.2289 0.0
C3053 C 0.07696 0.38139 0.24882 0.0
C3054 C 0.05683 0.3711 0.25308 0.0
H3055 H 0.01036 0.38313 0.23727 0.0
H3056 H 0.02907 0.38597 0.2567 0.0
H3057 H 0.03223 0.38372 0.22705 0.0
H3058 H 0.04159 0.34312 0.20553 0.0
H3059 H 0.07686 0.36105 0.19799 0.0
H3060 H 0.71811 0.64342 0.29977 0.0
H3061 H 0.70088 0.66128 0.29131 0.0
H3062 H 0.67936 0.6289 0.2293 0.0
H3063 H 0.69629 0.61078 0.23772 0.0
H3064 H 0.70461 0.68485 0.25439 0.0
H3065 H 0.62937 0.62078 0.26018 0.0
H3066 H 0.65061 0.62022 0.27058 0.0
H3067 H 0.6451 0.6175 0.24095 0.0
C3068 C 0.70969 0.64006 0.28435 0.0
C3069 C 0.70847 0.62557 0.2695 0.0
C3070 C 0.69988 0.6503 0.27953 0.0
C3071 C 0.68861 0.6462 0.25986 0.0
C3072 C 0.68765 0.63201 0.24481 0.0
H3073 H 0.64442 0.71739 0.19978 0.0
H3074 H 0.66252 0.70039 0.20823 0.0
C3075 C 0.69742 0.62174 0.24961 0.0
C3076 C 0.67798 0.65688 0.25501 0.0
H3077 H 0.63228 0.65033 0.24617 0.0
C3078 C 0.68879 0.67733 0.25264 0.0
C3079 C 0.65733 0.64703 0.25301 0.0
C3080 C 0.64487 0.62519 0.25651 0.0
C3081 C 0.67951 0.68821 0.248 0.0
C3082 C 0.65891 0.6783 0.24534 0.0
C3083 C 0.64809 0.65787 0.24801 0.0
C3084 C 0.6482 0.68885 0.24024 0.0
C3085 C 0.69178 0.71023 0.24641 0.0
C3086 C 0.63386 0.68766 0.25521 0.0
C3087 C 0.6234 0.69722 0.25037 0.0
C3088 C 0.62702 0.70811 0.23039 0.0
C3089 C 0.64135 0.70922 0.21537 0.0
C3090 C 0.65179 0.69961 0.22023 0.0
H3091 H 0.70635 0.71584 0.25447 0.0
H3092 H 0.69421 0.7146 0.22841 0.0
H3093 H 0.68425 0.71738 0.25449 0.0
H3094 H 0.6308 0.67935 0.2707 0.0
H3095 H 0.61245 0.69603 0.2623 0.0
loop_
_geom_bond_atom_site_label_1
_geom_bond_atom_site_label_2
_geom_bond_distance
_geom_bond_site_symmetry_2
_ccdc_geom_bond_type
C0 O2 1.247 . S
C0 O4 1.258 . S
C1 O8 1.247 . S
C1 O9 1.258 . S
O2 C0 1.247 . S
O2 Zn3 2.028 . S
Zn3 O2 2.028 . S
Zn3 O7 2.035 . S
Zn3 O9 2.035 . S
Zn3 O10 2.028 . S
O4 C0 1.258 . S
O4 Zn5 2.035 . S
Zn5 O4 2.035 . S
Zn5 O6 2.028 . S
Zn5 O8 2.028 . S
Zn5 O11 2.035 . S
O6 Zn5 2.028 . S
O6 C12 1.247 . S
O7 Zn3 2.035 . S
O7 C12 1.258 . S
O8 C1 1.247 . S
O8 Zn5 2.028 . S
O9 C1 1.258 . S
O9 Zn3 2.035 . S
O10 Zn3 2.028 . S
O10 C13 1.247 . S
O11 Zn5 2.035 . S
O11 C13 1.258 . S
C12 O6 1.247 . S
C12 O7 1.258 . S
C13 O10 1.247 . S
C13 O11 1.258 . S
C14 O16 1.247 . S
C14 O18 1.258 . S
C15 O22 1.247 . S
C15 O23 1.258 . S
O16 C14 1.247 . S
O16 Zn17 2.028 . S
Zn17 O16 2.028 . S
Zn17 O21 2.035 . S
Zn17 O23 2.035 . S
Zn17 O24 2.028 . S
O18 C14 1.258 . S
O18 Zn19 2.035 . S
Zn19 O18 2.035 . S
Zn19 O20 2.028 . S
Zn19 O22 2.028 . S
Zn19 O25 2.035 . S
O20 Zn19 2.028 . S
O20 C26 1.247 . S
O21 Zn17 2.035 . S
O21 C26 1.258 . S
O22 C15 1.247 . S
O22 Zn19 2.028 . S
O23 C15 1.258 . S
O23 Zn17 2.035 . S
O24 Zn17 2.028 . S
O24 C27 1.247 . S
O25 Zn19 2.035 . S
O25 C27 1.258 . S
C26 O20 1.247 . S
C26 O21 1.258 . S
C27 O24 1.247 . S
C27 O25 1.258 . S
C28 O30 1.247 . S
C28 O32 1.258 . S
C29 O36 1.247 . S
C29 O37 1.258 . S
O30 C28 1.247 . S
O30 Zn31 2.028 . S
Zn31 O30 2.028 . S
Zn31 O35 2.035 . S
Zn31 O37 2.035 . S
Zn31 O38 2.028 . S
O32 C28 1.258 . S
O32 Zn33 2.035 . S
Zn33 O32 2.035 . S
Zn33 O34 2.028 . S
Zn33 O36 2.028 . S
Zn33 O39 2.035 . S
O34 Zn33 2.028 . S
O34 C40 1.247 . S
O35 Zn31 2.035 . S
O35 C40 1.258 . S
O36 C29 1.247 . S
O36 Zn33 2.028 . S
O37 C29 1.258 . S
O37 Zn31 2.035 . S
O38 Zn31 2.028 . S
O38 C41 1.247 . S
O39 Zn33 2.035 . S
O39 C41 1.258 . S
C40 O34 1.247 . S
C40 O35 1.258 . S
C41 O38 1.247 . S
C41 O39 1.258 . S
C42 O44 1.247 . S
C42 O46 1.258 . S
C43 O50 1.247 . S
C43 O51 1.258 . S
O44 C42 1.247 . S
O44 Zn45 2.028 . S
Zn45 O44 2.028 . S
Zn45 O49 2.035 . S
Zn45 O51 2.035 . S
Zn45 O52 2.028 . S
O46 C42 1.258 . S
O46 Zn47 2.035 . S
Zn47 O46 2.035 . S
Zn47 O48 2.028 . S
Zn47 O50 2.028 . S
Zn47 O53 2.035 . S
O48 Zn47 2.028 . S
O48 C54 1.247 . S
O49 Zn45 2.035 . S
O49 C54 1.258 . S
O50 C43 1.247 . S
O50 Zn47 2.028 . S
O51 C43 1.258 . S
O51 Zn45 2.035 . S
O52 Zn45 2.028 . S
O52 C55 1.247 . S
O53 Zn47 2.035 . S
O53 C55 1.258 . S
C54 O48 1.247 . S
C54 O49 1.258 . S
C55 O52 1.247 . S
C55 O53 1.258 . S
C56 O58 1.247 . S
C56 O60 1.258 . S
C57 O64 1.247 . S
C57 O65 1.258 . S
O58 C56 1.247 . S
O58 Zn59 2.028 . S
Zn59 O58 2.028 . S
Zn59 O63 2.035 . S
Zn59 O65 2.035 . S
Zn59 O66 2.028 . S
O60 C56 1.258 . S
O60 Zn61 2.035 . S
Zn61 O60 2.035 . S
Zn61 O62 2.028 . S
Zn61 O64 2.028 . S
Zn61 O67 2.035 . S
O62 Zn61 2.028 . S
O62 C68 1.247 . S
O63 Zn59 2.035 . S
O63 C68 1.258 . S
O64 C57 1.247 . S
O64 Zn61 2.028 . S
O65 C57 1.258 . S
O65 Zn59 2.035 . S
O66 Zn59 2.028 . S
O66 C69 1.247 . S
O67 Zn61 2.035 . S
O67 C69 1.258 . S
C68 O62 1.247 . S
C68 O63 1.258 . S
C69 O66 1.247 . S
C69 O67 1.258 . S
C70 O72 1.247 . S
C70 O74 1.258 . S
C71 O78 1.247 . S
C71 O79 1.258 . S
O72 C70 1.247 . S
O72 Zn73 2.028 . S
Zn73 O72 2.028 . S
Zn73 O77 2.035 . S
Zn73 O79 2.035 . S
Zn73 O80 2.028 . S
O74 C70 1.258 . S
O74 Zn75 2.035 . S
Zn75 O74 2.035 . S
Zn75 O76 2.028 . S
Zn75 O78 2.028 . S
Zn75 O81 2.035 . S
O76 Zn75 2.028 . S
O76 C82 1.247 . S
O77 Zn73 2.035 . S
O77 C82 1.258 . S
O78 C71 1.247 . S
O78 Zn75 2.028 . S
O79 C71 1.258 . S
O79 Zn73 2.035 . S
O80 Zn73 2.028 . S
O80 C83 1.247 . S
O81 Zn75 2.035 . S
O81 C83 1.258 . S
C82 O76 1.247 . S
C82 O77 1.258 . S
C83 O80 1.247 . S
C83 O81 1.258 . S
C84 O86 1.247 . S
C84 O88 1.258 . S
C85 O92 1.247 . S
C85 O93 1.258 . S
O86 C84 1.247 . S
O86 Zn87 2.028 . S
Zn87 O86 2.028 . S
Zn87 O91 2.035 . S
Zn87 O93 2.035 . S
Zn87 O94 2.028 . S
O88 C84 1.258 . S
O88 Zn89 2.035 . S
Zn89 O88 2.035 . S
Zn89 O90 2.028 . S
Zn89 O92 2.028 . S
Zn89 O95 2.035 . S
O90 Zn89 2.028 . S
O90 C96 1.247 . S
O91 Zn87 2.035 . S
O91 C96 1.258 . S
O92 C85 1.247 . S
O92 Zn89 2.028 . S
O93 C85 1.258 . S
O93 Zn87 2.035 . S
O94 Zn87 2.028 . S
O94 C97 1.247 . S
O95 Zn89 2.035 . S
O95 C97 1.258 . S
C96 O90 1.247 . S
C96 O91 1.258 . S
C97 O94 1.247 . S
C97 O95 1.258 . S
C98 O100 1.247 . S
C98 O102 1.258 . S
C99 O106 1.247 . S
C99 O107 1.258 . S
O100 C98 1.247 . S
O100 Zn101 2.028 . S
Zn101 O100 2.028 . S
Zn101 O105 2.035 . S
Zn101 O107 2.035 . S
Zn101 O108 2.028 . S
O102 C98 1.258 . S
O102 Zn103 2.035 . S
Zn103 O102 2.035 . S
Zn103 O104 2.028 . S
Zn103 O106 2.028 . S
Zn103 O109 2.035 . S
O104 Zn103 2.028 . S
O104 C110 1.247 . S
O105 Zn101 2.035 . S
O105 C110 1.258 . S
O106 C99 1.247 . S
O106 Zn103 2.028 . S
O107 C99 1.258 . S
O107 Zn101 2.035 . S
O108 Zn101 2.028 . S
O108 C111 1.247 . S
O109 Zn103 2.035 . S
O109 C111 1.258 . S
C110 O104 1.247 . S
C110 O105 1.258 . S
C111 O108 1.247 . S
C111 O109 1.258 . S
C112 O114 1.247 . S
C112 O116 1.258 . S
C113 O120 1.247 . S
C113 O121 1.258 . S
O114 C112 1.247 . S
O114 Zn115 2.028 . S
Zn115 O114 2.028 . S
Zn115 O119 2.035 . S
Zn115 O121 2.035 . S
Zn115 O122 2.028 . S
O116 C112 1.258 . S
O116 Zn117 2.035 . S
Zn117 O116 2.035 . S
Zn117 O118 2.028 . S
Zn117 O120 2.028 . S
Zn117 O123 2.035 . S
O118 Zn117 2.028 . S
O118 C124 1.247 . S
O119 Zn115 2.035 . S
O119 C124 1.258 . S
O120 C113 1.247 . S
O120 Zn117 2.028 . S
O121 C113 1.258 . S
O121 Zn115 2.035 . S
O122 Zn115 2.028 . S
O122 C125 1.247 . S
O123 Zn117 2.035 . S
O123 C125 1.258 . S
C124 O118 1.247 . S
C124 O119 1.258 . S
C125 O122 1.247 . S
C125 O123 1.258 . S
C126 O128 1.247 . S
C126 O130 1.258 . S
C127 O134 1.247 . S
C127 O135 1.258 . S
O128 C126 1.247 . S
O128 Zn129 2.028 . S
Zn129 O128 2.028 . S
Zn129 O133 2.035 . S
Zn129 O135 2.035 . S
Zn129 O136 2.028 . S
O130 C126 1.258 . S
O130 Zn131 2.035 . S
Zn131 O130 2.035 . S
Zn131 O132 2.028 . S
Zn131 O134 2.028 . S
Zn131 O137 2.035 . S
O132 Zn131 2.028 . S
O132 C138 1.247 . S
O133 Zn129 2.035 . S
O133 C138 1.258 . S
O134 C127 1.247 . S
O134 Zn131 2.028 . S
O135 C127 1.258 . S
O135 Zn129 2.035 . S
O136 Zn129 2.028 . S
O136 C139 1.247 . S
O137 Zn131 2.035 . S
O137 C139 1.258 . S
C138 O132 1.247 . S
C138 O133 1.258 . S
C139 O136 1.247 . S
C139 O137 1.258 . S
C140 O142 1.247 . S
C140 O144 1.258 . S
C141 O148 1.247 . S
C141 O149 1.258 . S
O142 C140 1.247 . S
O142 Zn143 2.028 . S
Zn143 O142 2.028 . S
Zn143 O147 2.035 . S
Zn143 O149 2.035 . S
Zn143 O150 2.028 . S
O144 C140 1.258 . S
O144 Zn145 2.035 . S
Zn145 O144 2.035 . S
Zn145 O146 2.028 . S
Zn145 O148 2.028 . S
Zn145 O151 2.035 . S
O146 Zn145 2.028 . S
O146 C152 1.247 . S
O147 Zn143 2.035 . S
O147 C152 1.258 . S
O148 C141 1.247 . S
O148 Zn145 2.028 . S
O149 C141 1.258 . S
O149 Zn143 2.035 . S
O150 Zn143 2.028 . S
O150 C153 1.247 . S
O151 Zn145 2.035 . S
O151 C153 1.258 . S
C152 O146 1.247 . S
C152 O147 1.258 . S
C153 O150 1.247 . S
C153 O151 1.258 . S
C154 O156 1.247 . S
C154 O158 1.258 . S
C155 O162 1.247 . S
C155 O163 1.258 . S
O156 C154 1.247 . S
O156 Zn157 2.028 . S
Zn157 O156 2.028 . S
Zn157 O161 2.035 . S
Zn157 O163 2.035 . S
Zn157 O164 2.028 . S
O158 C154 1.258 . S
O158 Zn159 2.035 . S
Zn159 O158 2.035 . S
Zn159 O160 2.028 . S
Zn159 O162 2.028 . S
Zn159 O165 2.035 . S
O160 Zn159 2.028 . S
O160 C166 1.247 . S
O161 Zn157 2.035 . S
O161 C166 1.258 . S
O162 C155 1.247 . S
O162 Zn159 2.028 . S
O163 C155 1.258 . S
O163 Zn157 2.035 . S
O164 Zn157 2.028 . S
O164 C167 1.247 . S
O165 Zn159 2.035 . S
O165 C167 1.258 . S
C166 O160 1.247 . S
C166 O161 1.258 . S
C167 O164 1.247 . S
C167 O165 1.258 . S
C168 O170 1.247 . S
C168 O172 1.258 . S
C169 O176 1.247 . S
C169 O177 1.258 . S
O170 C168 1.247 . S
O170 Zn171 2.028 . S
Zn171 O170 2.028 . S
Zn171 O175 2.035 . S
Zn171 O177 2.035 . S
Zn171 O178 2.028 . S
O172 C168 1.258 . S
O172 Zn173 2.035 . S
Zn173 O172 2.035 . S
Zn173 O174 2.028 . S
Zn173 O176 2.028 . S
Zn173 O179 2.035 . S
O174 Zn173 2.028 . S
O174 C180 1.247 . S
O175 Zn171 2.035 . S
O175 C180 1.258 . S
O176 C169 1.247 . S
O176 Zn173 2.028 . S
O177 C169 1.258 . S
O177 Zn171 2.035 . S
O178 Zn171 2.028 . S
O178 C181 1.247 . S
O179 Zn173 2.035 . S
O179 C181 1.258 . S
C180 O174 1.247 . S
C180 O175 1.258 . S
C181 O178 1.247 . S
C181 O179 1.258 . S
C182 O184 1.247 . S
C182 O186 1.258 . S
C183 O190 1.247 . S
C183 O191 1.258 . S
O184 C182 1.247 . S
O184 Zn185 2.028 . S
Zn185 O184 2.028 . S
Zn185 O189 2.035 . S
Zn185 O191 2.035 . S
Zn185 O192 2.028 . S
O186 C182 1.258 . S
O186 Zn187 2.035 . S
Zn187 O186 2.035 . S
Zn187 O188 2.028 . S
Zn187 O190 2.028 . S
Zn187 O193 2.035 . S
O188 Zn187 2.028 . S
O188 C194 1.247 . S
O189 Zn185 2.035 . S
O189 C194 1.258 . S
O190 C183 1.247 . S
O190 Zn187 2.028 . S
O191 C183 1.258 . S
O191 Zn185 2.035 . S
O192 Zn185 2.028 . S
O192 C195 1.247 . S
O193 Zn187 2.035 . S
O193 C195 1.258 . S
C194 O188 1.247 . S
C194 O189 1.258 . S
C195 O192 1.247 . S
C195 O193 1.258 . S
C196 O198 1.247 . S
C196 O200 1.258 . S
C197 O204 1.247 . S
C197 O205 1.258 . S
O198 C196 1.247 . S
O198 Zn199 2.028 . S
Zn199 O198 2.028 . S
Zn199 O203 2.035 . S
Zn199 O205 2.035 . S
Zn199 O206 2.028 . S
O200 C196 1.258 . S
O200 Zn201 2.035 . S
Zn201 O200 2.035 . S
Zn201 O202 2.028 . S
Zn201 O204 2.028 . S
Zn201 O207 2.035 . S
O202 Zn201 2.028 . S
O202 C208 1.247 . S
O203 Zn199 2.035 . S
O203 C208 1.258 . S
O204 C197 1.247 . S
O204 Zn201 2.028 . S
O205 C197 1.258 . S
O205 Zn199 2.035 . S
O206 Zn199 2.028 . S
O206 C209 1.247 . S
O207 Zn201 2.035 . S
O207 C209 1.258 . S
C208 O202 1.247 . S
C208 O203 1.258 . S
C209 O206 1.247 . S
C209 O207 1.258 . S
C210 O212 1.247 . S
C210 O214 1.258 . S
C211 O218 1.247 . S
C211 O219 1.258 . S
O212 C210 1.247 . S
O212 Zn213 2.028 . S
Zn213 O212 2.028 . S
Zn213 O217 2.035 . S
Zn213 O219 2.035 . S
Zn213 O220 2.028 . S
O214 C210 1.258 . S
O214 Zn215 2.035 . S
Zn215 O214 2.035 . S
Zn215 O216 2.028 . S
Zn215 O218 2.028 . S
Zn215 O221 2.035 . S
O216 Zn215 2.028 . S
O216 C222 1.247 . S
O217 Zn213 2.035 . S
O217 C222 1.258 . S
O218 C211 1.247 . S
O218 Zn215 2.028 . S
O219 C211 1.258 . S
O219 Zn213 2.035 . S
O220 Zn213 2.028 . S
O220 C223 1.247 . S
O221 Zn215 2.035 . S
O221 C223 1.258 . S
C222 O216 1.247 . S
C222 O217 1.258 . S
C223 O220 1.247 . S
C223 O221 1.258 . S
C224 O226 1.247 . S
C224 O228 1.258 . S
C225 O232 1.247 . S
C225 O233 1.258 . S
O226 C224 1.247 . S
O226 Zn227 2.028 . S
Zn227 O226 2.028 . S
Zn227 O231 2.035 . S
Zn227 O233 2.035 . S
Zn227 O234 2.028 . S
O228 C224 1.258 . S
O228 Zn229 2.035 . S
Zn229 O228 2.035 . S
Zn229 O230 2.028 . S
Zn229 O232 2.028 . S
Zn229 O235 2.035 . S
O230 Zn229 2.028 . S
O230 C236 1.247 . S
O231 Zn227 2.035 . S
O231 C236 1.258 . S
O232 C225 1.247 . S
O232 Zn229 2.028 . S
O233 C225 1.258 . S
O233 Zn227 2.035 . S
O234 Zn227 2.028 . S
O234 C237 1.247 . S
O235 Zn229 2.035 . S
O235 C237 1.258 . S
C236 O230 1.247 . S
C236 O231 1.258 . S
C237 O234 1.247 . S
C237 O235 1.258 . S
C238 O240 1.247 . S
C238 O242 1.258 . S
C239 O246 1.247 . S
C239 O247 1.258 . S
O240 C238 1.247 . S
O240 Zn241 2.028 . S
Zn241 O240 2.028 . S
Zn241 O245 2.035 . S
Zn241 O247 2.035 . S
Zn241 O248 2.028 . S
O242 C238 1.258 . S
O242 Zn243 2.035 . S
Zn243 O242 2.035 . S
Zn243 O244 2.028 . S
Zn243 O246 2.028 . S
Zn243 O249 2.035 . S
O244 Zn243 2.028 . S
O244 C250 1.247 . S
O245 Zn241 2.035 . S
O245 C250 1.258 . S
O246 C239 1.247 . S
O246 Zn243 2.028 . S
O247 C239 1.258 . S
O247 Zn241 2.035 . S
O248 Zn241 2.028 . S
O248 C251 1.247 . S
O249 Zn243 2.035 . S
O249 C251 1.258 . S
C250 O244 1.247 . S
C250 O245 1.258 . S
C251 O248 1.247 . S
C251 O249 1.258 . S
C252 O254 1.247 . S
C252 O256 1.258 . S
C253 O260 1.247 . S
C253 O261 1.258 . S
O254 C252 1.247 . S
O254 Zn255 2.028 . S
Zn255 O254 2.028 . S
Zn255 O259 2.035 . S
Zn255 O261 2.035 . S
Zn255 O262 2.028 . S
O256 C252 1.258 . S
O256 Zn257 2.035 . S
Zn257 O256 2.035 . S
Zn257 O258 2.028 . S
Zn257 O260 2.028 . S
Zn257 O263 2.035 . S
O258 Zn257 2.028 . S
O258 C264 1.247 . S
O259 Zn255 2.035 . S
O259 C264 1.258 . S
O260 C253 1.247 . S
O260 Zn257 2.028 . S
O261 C253 1.258 . S
O261 Zn255 2.035 . S
O262 Zn255 2.028 . S
O262 C265 1.247 . S
O263 Zn257 2.035 . S
O263 C265 1.258 . S
C264 O258 1.247 . S
C264 O259 1.258 . S
C265 O262 1.247 . S
C265 O263 1.258 . S
C266 O268 1.247 . S
C266 O270 1.258 . S
C267 O274 1.247 . S
C267 O275 1.258 . S
O268 C266 1.247 . S
O268 Zn269 2.028 . S
Zn269 O268 2.028 . S
Zn269 O273 2.035 . S
Zn269 O275 2.035 . S
Zn269 O276 2.028 . S
O270 C266 1.258 . S
O270 Zn271 2.035 . S
Zn271 O270 2.035 . S
Zn271 O272 2.028 . S
Zn271 O274 2.028 . S
Zn271 O277 2.035 . S
O272 Zn271 2.028 . S
O272 C278 1.247 . S
O273 Zn269 2.035 . S
O273 C278 1.258 . S
O274 C267 1.247 . S
O274 Zn271 2.028 . S
O275 C267 1.258 . S
O275 Zn269 2.035 . S
O276 Zn269 2.028 . S
O276 C279 1.247 . S
O277 Zn271 2.035 . S
O277 C279 1.258 . S
C278 O272 1.247 . S
C278 O273 1.258 . S
C279 O276 1.247 . S
C279 O277 1.258 . S
C280 O282 1.247 . S
C280 O284 1.258 . S
C281 O288 1.247 . S
C281 O289 1.258 . S
O282 C280 1.247 . S
O282 Zn283 2.028 . S
Zn283 O282 2.028 . S
Zn283 O287 2.035 . S
Zn283 O289 2.035 . S
Zn283 O290 2.028 . S
O284 C280 1.258 . S
O284 Zn285 2.035 . S
Zn285 O284 2.035 . S
Zn285 O286 2.028 . S
Zn285 O288 2.028 . S
Zn285 O291 2.035 . S
O286 Zn285 2.028 . S
O286 C292 1.247 . S
O287 Zn283 2.035 . S
O287 C292 1.258 . S
O288 C281 1.247 . S
O288 Zn285 2.028 . S
O289 C281 1.258 . S
O289 Zn283 2.035 . S
O290 Zn283 2.028 . S
O290 C293 1.247 . S
O291 Zn285 2.035 . S
O291 C293 1.258 . S
C292 O286 1.247 . S
C292 O287 1.258 . S
C293 O290 1.247 . S
C293 O291 1.258 . S
C294 O296 1.247 . S
C294 O298 1.258 . S
C295 O302 1.247 . S
C295 O303 1.258 . S
O296 C294 1.247 . S
O296 Zn297 2.028 . S
Zn297 O296 2.028 . S
Zn297 O301 2.035 . S
Zn297 O303 2.035 . S
Zn297 O304 2.028 . S
O298 C294 1.258 . S
O298 Zn299 2.035 . S
Zn299 O298 2.035 . S
Zn299 O300 2.028 . S
Zn299 O302 2.028 . S
Zn299 O305 2.035 . S
O300 Zn299 2.028 . S
O300 C306 1.247 . S
O301 Zn297 2.035 . S
O301 C306 1.258 . S
O302 C295 1.247 . S
O302 Zn299 2.028 . S
O303 C295 1.258 . S
O303 Zn297 2.035 . S
O304 Zn297 2.028 . S
O304 C307 1.247 . S
O305 Zn299 2.035 . S
O305 C307 1.258 . S
C306 O300 1.247 . S
C306 O301 1.258 . S
C307 O304 1.247 . S
C307 O305 1.258 . S
C308 O310 1.247 . S
C308 O312 1.258 . S
C309 O316 1.247 . S
C309 O317 1.258 . S
O310 C308 1.247 . S
O310 Zn311 2.028 . S
Zn311 O310 2.028 . S
Zn311 O315 2.035 . S
Zn311 O317 2.035 . S
Zn311 O318 2.028 . S
O312 C308 1.258 . S
O312 Zn313 2.035 . S
Zn313 O312 2.035 . S
Zn313 O314 2.028 . S
Zn313 O316 2.028 . S
Zn313 O319 2.035 . S
O314 Zn313 2.028 . S
O314 C320 1.247 . S
O315 Zn311 2.035 . S
O315 C320 1.258 . S
O316 C309 1.247 . S
O316 Zn313 2.028 . S
O317 C309 1.258 . S
O317 Zn311 2.035 . S
O318 Zn311 2.028 . S
O318 C321 1.247 . S
O319 Zn313 2.035 . S
O319 C321 1.258 . S
C320 O314 1.247 . S
C320 O315 1.258 . S
C321 O318 1.247 . S
C321 O319 1.258 . S
C322 O324 1.247 . S
C322 O326 1.258 . S
C323 O330 1.247 . S
C323 O331 1.258 . S
O324 C322 1.247 . S
O324 Zn325 2.028 . S
Zn325 O324 2.028 . S
Zn325 O329 2.035 . S
Zn325 O331 2.035 . S
Zn325 O332 2.028 . S
O326 C322 1.258 . S
O326 Zn327 2.035 . S
Zn327 O326 2.035 . S
Zn327 O328 2.028 . S
Zn327 O330 2.028 . S
Zn327 O333 2.035 . S
O328 Zn327 2.028 . S
O328 C334 1.247 . S
O329 Zn325 2.035 . S
O329 C334 1.258 . S
O330 C323 1.247 . S
O330 Zn327 2.028 . S
O331 C323 1.258 . S
O331 Zn325 2.035 . S
O332 Zn325 2.028 . S
O332 C335 1.247 . S
O333 Zn327 2.035 . S
O333 C335 1.258 . S
C334 O328 1.247 . S
C334 O329 1.258 . S
C335 O332 1.247 . S
C335 O333 1.258 . S
C336 O338 1.247 . S
C336 O340 1.258 . S
C337 O344 1.247 . S
C337 O345 1.258 . S
O338 C336 1.247 . S
O338 Zn339 2.028 . S
Zn339 O338 2.028 . S
Zn339 O343 2.035 . S
Zn339 O345 2.035 . S
Zn339 O346 2.028 . S
O340 C336 1.258 . S
O340 Zn341 2.035 . S
Zn341 O340 2.035 . S
Zn341 O342 2.028 . S
Zn341 O344 2.028 . S
Zn341 O347 2.035 . S
O342 Zn341 2.028 . S
O342 C348 1.247 . S
O343 Zn339 2.035 . S
O343 C348 1.258 . S
O344 C337 1.247 . S
O344 Zn341 2.028 . S
O345 C337 1.258 . S
O345 Zn339 2.035 . S
O346 Zn339 2.028 . S
O346 C349 1.247 . S
O347 Zn341 2.035 . S
O347 C349 1.258 . S
C348 O342 1.247 . S
C348 O343 1.258 . S
C349 O346 1.247 . S
C349 O347 1.258 . S
C350 O352 1.247 . S
C350 O354 1.258 . S
C351 O358 1.247 . S
C351 O359 1.258 . S
O352 C350 1.247 . S
O352 Zn353 2.028 . S
Zn353 O352 2.028 . S
Zn353 O357 2.035 . S
Zn353 O359 2.035 . S
Zn353 O360 2.028 . S
O354 C350 1.258 . S
O354 Zn355 2.035 . S
Zn355 O354 2.035 . S
Zn355 O356 2.028 . S
Zn355 O358 2.028 . S
Zn355 O361 2.035 . S
O356 Zn355 2.028 . S
O356 C362 1.247 . S
O357 Zn353 2.035 . S
O357 C362 1.258 . S
O358 C351 1.247 . S
O358 Zn355 2.028 . S
O359 C351 1.258 . S
O359 Zn353 2.035 . S
O360 Zn353 2.028 . S
O360 C363 1.247 . S
O361 Zn355 2.035 . S
O361 C363 1.258 . S
C362 O356 1.247 . S
C362 O357 1.258 . S
C363 O360 1.247 . S
C363 O361 1.258 . S
C364 O366 1.247 . S
C364 O368 1.258 . S
C365 O372 1.247 . S
C365 O373 1.258 . S
O366 C364 1.247 . S
O366 Zn367 2.028 . S
Zn367 O366 2.028 . S
Zn367 O371 2.035 . S
Zn367 O373 2.035 . S
Zn367 O374 2.028 . S
O368 C364 1.258 . S
O368 Zn369 2.035 . S
Zn369 O368 2.035 . S
Zn369 O370 2.028 . S
Zn369 O372 2.028 . S
Zn369 O375 2.035 . S
O370 Zn369 2.028 . S
O370 C376 1.247 . S
O371 Zn367 2.035 . S
O371 C376 1.258 . S
O372 C365 1.247 . S
O372 Zn369 2.028 . S
O373 C365 1.258 . S
O373 Zn367 2.035 . S
O374 Zn367 2.028 . S
O374 C377 1.247 . S
O375 Zn369 2.035 . S
O375 C377 1.258 . S
C376 O370 1.247 . S
C376 O371 1.258 . S
C377 O374 1.247 . S
C377 O375 1.258 . S
C378 O380 1.247 . S
C378 O382 1.258 . S
C379 O386 1.247 . S
C379 O387 1.258 . S
O380 C378 1.247 . S
O380 Zn381 2.028 . S
Zn381 O380 2.028 . S
Zn381 O385 2.035 . S
Zn381 O387 2.035 . S
Zn381 O388 2.028 . S
O382 C378 1.258 . S
O382 Zn383 2.035 . S
Zn383 O382 2.035 . S
Zn383 O384 2.028 . S
Zn383 O386 2.028 . S
Zn383 O389 2.035 . S
O384 Zn383 2.028 . S
O384 C390 1.247 . S
O385 Zn381 2.035 . S
O385 C390 1.258 . S
O386 C379 1.247 . S
O386 Zn383 2.028 . S
O387 C379 1.258 . S
O387 Zn381 2.035 . S
O388 Zn381 2.028 . S
O388 C391 1.247 . S
O389 Zn383 2.035 . S
O389 C391 1.258 . S
C390 O384 1.247 . S
C390 O385 1.258 . S
C391 O388 1.247 . S
C391 O389 1.258 . S
C392 O394 1.247 . S
C392 O396 1.258 . S
C393 O400 1.247 . S
C393 O401 1.258 . S
O394 C392 1.247 . S
O394 Zn395 2.028 . S
Zn395 O394 2.028 . S
Zn395 O399 2.035 . S
Zn395 O401 2.035 . S
Zn395 O402 2.028 . S
O396 C392 1.258 . S
O396 Zn397 2.035 . S
Zn397 O396 2.035 . S
Zn397 O398 2.028 . S
Zn397 O400 2.028 . S
Zn397 O403 2.035 . S
O398 Zn397 2.028 . S
O398 C404 1.247 . S
O399 Zn395 2.035 . S
O399 C404 1.258 . S
O400 C393 1.247 . S
O400 Zn397 2.028 . S
O401 C393 1.258 . S
O401 Zn395 2.035 . S
O402 Zn395 2.028 . S
O402 C405 1.247 . S
O403 Zn397 2.035 . S
O403 C405 1.258 . S
C404 O398 1.247 . S
C404 O399 1.258 . S
C405 O402 1.247 . S
C405 O403 1.258 . S
C406 O408 1.247 . S
C406 O410 1.258 . S
C407 O414 1.247 . S
C407 O415 1.258 . S
O408 C406 1.247 . S
O408 Zn409 2.028 . S
Zn409 O408 2.028 . S
Zn409 O413 2.035 . S
Zn409 O415 2.035 . S
Zn409 O416 2.028 . S
O410 C406 1.258 . S
O410 Zn411 2.035 . S
Zn411 O410 2.035 . S
Zn411 O412 2.028 . S
Zn411 O414 2.028 . S
Zn411 O417 2.035 . S
O412 Zn411 2.028 . S
O412 C418 1.247 . S
O413 Zn409 2.035 . S
O413 C418 1.258 . S
O414 C407 1.247 . S
O414 Zn411 2.028 . S
O415 C407 1.258 . S
O415 Zn409 2.035 . S
O416 Zn409 2.028 . S
O416 C419 1.247 . S
O417 Zn411 2.035 . S
O417 C419 1.258 . S
C418 O412 1.247 . S
C418 O413 1.258 . S
C419 O416 1.247 . S
C419 O417 1.258 . S
C420 O422 1.247 . S
C420 O424 1.258 . S
C421 O428 1.247 . S
C421 O429 1.258 . S
O422 C420 1.247 . S
O422 Zn423 2.028 . S
Zn423 O422 2.028 . S
Zn423 O427 2.035 . S
Zn423 O429 2.035 . S
Zn423 O430 2.028 . S
O424 C420 1.258 . S
O424 Zn425 2.035 . S
Zn425 O424 2.035 . S
Zn425 O426 2.028 . S
Zn425 O428 2.028 . S
Zn425 O431 2.035 . S
O426 Zn425 2.028 . S
O426 C432 1.247 . S
O427 Zn423 2.035 . S
O427 C432 1.258 . S
O428 C421 1.247 . S
O428 Zn425 2.028 . S
O429 C421 1.258 . S
O429 Zn423 2.035 . S
O430 Zn423 2.028 . S
O430 C433 1.247 . S
O431 Zn425 2.035 . S
O431 C433 1.258 . S
C432 O426 1.247 . S
C432 O427 1.258 . S
C433 O430 1.247 . S
C433 O431 1.258 . S
C434 O436 1.247 . S
C434 O438 1.258 . S
C435 O442 1.247 . S
C435 O443 1.258 . S
O436 C434 1.247 . S
O436 Zn437 2.028 . S
Zn437 O436 2.028 . S
Zn437 O441 2.035 . S
Zn437 O443 2.035 . S
Zn437 O444 2.028 . S
O438 C434 1.258 . S
O438 Zn439 2.035 . S
Zn439 O438 2.035 . S
Zn439 O440 2.028 . S
Zn439 O442 2.028 . S
Zn439 O445 2.035 . S
O440 Zn439 2.028 . S
O440 C446 1.247 . S
O441 Zn437 2.035 . S
O441 C446 1.258 . S
O442 C435 1.247 . S
O442 Zn439 2.028 . S
O443 C435 1.258 . S
O443 Zn437 2.035 . S
O444 Zn437 2.028 . S
O444 C447 1.247 . S
O445 Zn439 2.035 . S
O445 C447 1.258 . S
C446 O440 1.247 . S
C446 O441 1.258 . S
C447 O444 1.247 . S
C447 O445 1.258 . S
C448 O450 1.247 . S
C448 O452 1.258 . S
C449 O456 1.247 . S
C449 O457 1.258 . S
O450 C448 1.247 . S
O450 Zn451 2.028 . S
Zn451 O450 2.028 . S
Zn451 O455 2.035 . S
Zn451 O457 2.035 . S
Zn451 O458 2.028 . S
O452 C448 1.258 . S
O452 Zn453 2.035 . S
Zn453 O452 2.035 . S
Zn453 O454 2.028 . S
Zn453 O456 2.028 . S
Zn453 O459 2.035 . S
O454 Zn453 2.028 . S
O454 C460 1.247 . S
O455 Zn451 2.035 . S
O455 C460 1.258 . S
O456 C449 1.247 . S
O456 Zn453 2.028 . S
O457 C449 1.258 . S
O457 Zn451 2.035 . S
O458 Zn451 2.028 . S
O458 C461 1.247 . S
O459 Zn453 2.035 . S
O459 C461 1.258 . S
C460 O454 1.247 . S
C460 O455 1.258 . S
C461 O458 1.247 . S
C461 O459 1.258 . S
C462 O464 1.247 . S
C462 O466 1.258 . S
C463 O470 1.247 . S
C463 O471 1.258 . S
O464 C462 1.247 . S
O464 Zn465 2.028 . S
Zn465 O464 2.028 . S
Zn465 O469 2.035 . S
Zn465 O471 2.035 . S
Zn465 O472 2.028 . S
O466 C462 1.258 . S
O466 Zn467 2.035 . S
Zn467 O466 2.035 . S
Zn467 O468 2.028 . S
Zn467 O470 2.028 . S
Zn467 O473 2.035 . S
O468 Zn467 2.028 . S
O468 C474 1.247 . S
O469 Zn465 2.035 . S
O469 C474 1.258 . S
O470 C463 1.247 . S
O470 Zn467 2.028 . S
O471 C463 1.258 . S
O471 Zn465 2.035 . S
O472 Zn465 2.028 . S
O472 C475 1.247 . S
O473 Zn467 2.035 . S
O473 C475 1.258 . S
C474 O468 1.247 . S
C474 O469 1.258 . S
C475 O472 1.247 . S
C475 O473 1.258 . S
C476 O478 1.247 . S
C476 O480 1.258 . S
C477 O484 1.247 . S
C477 O485 1.258 . S
O478 C476 1.247 . S
O478 Zn479 2.028 . S
Zn479 O478 2.028 . S
Zn479 O483 2.035 . S
Zn479 O485 2.035 . S
Zn479 O486 2.028 . S
O480 C476 1.258 . S
O480 Zn481 2.035 . S
Zn481 O480 2.035 . S
Zn481 O482 2.028 . S
Zn481 O484 2.028 . S
Zn481 O487 2.035 . S
O482 Zn481 2.028 . S
O482 C488 1.247 . S
O483 Zn479 2.035 . S
O483 C488 1.258 . S
O484 C477 1.247 . S
O484 Zn481 2.028 . S
O485 C477 1.258 . S
O485 Zn479 2.035 . S
O486 Zn479 2.028 . S
O486 C489 1.247 . S
O487 Zn481 2.035 . S
O487 C489 1.258 . S
C488 O482 1.247 . S
C488 O483 1.258 . S
C489 O486 1.247 . S
C489 O487 1.258 . S
C490 O492 1.247 . S
C490 O494 1.258 . S
C491 O498 1.247 . S
C491 O499 1.258 . S
O492 C490 1.247 . S
O492 Zn493 2.028 . S
Zn493 O492 2.028 . S
Zn493 O497 2.035 . S
Zn493 O499 2.035 . S
Zn493 O500 2.028 . S
O494 C490 1.258 . S
O494 Zn495 2.035 . S
Zn495 O494 2.035 . S
Zn495 O496 2.028 . S
Zn495 O498 2.028 . S
Zn495 O501 2.035 . S
O496 Zn495 2.028 . S
O496 C502 1.247 . S
O497 Zn493 2.035 . S
O497 C502 1.258 . S
O498 C491 1.247 . S
O498 Zn495 2.028 . S
O499 C491 1.258 . S
O499 Zn493 2.035 . S
O500 Zn493 2.028 . S
O500 C503 1.247 . S
O501 Zn495 2.035 . S
O501 C503 1.258 . S
C502 O496 1.247 . S
C502 O497 1.258 . S
C503 O500 1.247 . S
C503 O501 1.258 . S
H504 C512 0.929 . S
H505 C514 0.930 . S
H506 C516 0.930 . S
H507 C519 0.929 . S
H508 C522 0.930 . S
H509 C524 0.960 . S
H510 C524 0.960 . S
H511 C524 0.960 . S
C512 H504 0.929 . S
C512 C513 1.377 . S
C512 C514 1.384 . S
C513 C512 1.377 . S
C513 C519 1.390 . S
C514 H505 0.930 . S
C514 C512 1.384 . S
C514 C515 1.372 . S
C515 C514 1.372 . S
C515 C516 1.400 . S
C515 C520 1.490 . S
C516 H506 0.930 . S
C516 C515 1.400 . S
C516 C519 1.386 . S
H517 C533 0.930 . S
H518 C534 0.931 . S
C519 H507 0.929 . S
C519 C513 1.390 . S
C519 C516 1.386 . S
C520 C515 1.490 . S
C520 C522 1.395 . S
C520 C523 1.403 . S
H521 C527 0.930 . S
C522 H508 0.930 . S
C522 C520 1.395 . S
C522 C525 1.403 . S
C523 C520 1.403 . S
C523 C524 1.524 . S
C523 C527 1.400 . S
C524 H509 0.960 . S
C524 H510 0.960 . S
C524 H511 0.960 . S
C524 C523 1.524 . S
C525 C522 1.403 . S
C525 C526 1.392 . S
C525 C529 1.495 . S
C526 C525 1.392 . S
C526 C527 1.385 . S
C526 C528 1.478 . S
C527 H521 0.930 . S
C527 C523 1.400 . S
C527 C526 1.385 . S
C528 C526 1.478 . S
C528 C530 1.381 . S
C528 C534 1.383 . S
C529 C525 1.495 . S
C529 H535 0.959 . S
C529 H536 0.961 . S
C529 H537 0.960 . S
C530 C528 1.381 . S
C530 C531 1.394 . S
C530 H538 0.930 . S
C531 C530 1.394 . S
C531 C532 1.383 . S
C531 H539 0.929 . S
C532 C531 1.383 . S
C532 C533 1.377 . S
C533 H517 0.930 . S
C533 C532 1.377 . S
C533 C534 1.379 . S
C534 H518 0.931 . S
C534 C528 1.383 . S
C534 C533 1.379 . S
H535 C529 0.959 . S
H536 C529 0.961 . S
H537 C529 0.960 . S
H538 C530 0.930 . S
H539 C531 0.929 . S
H540 C548 0.929 . S
H541 C550 0.930 . S
H542 C552 0.930 . S
H543 C555 0.929 . S
H544 C558 0.930 . S
H545 C560 0.960 . S
H546 C560 0.960 . S
H547 C560 0.960 . S
C548 H540 0.929 . S
C548 C549 1.377 . S
C548 C550 1.384 . S
C549 C548 1.377 . S
C549 C555 1.390 . S
C550 H541 0.930 . S
C550 C548 1.384 . S
C550 C551 1.372 . S
C551 C550 1.372 . S
C551 C552 1.400 . S
C551 C556 1.490 . S
C552 H542 0.930 . S
C552 C551 1.400 . S
C552 C555 1.386 . S
H553 C569 0.930 . S
H554 C570 0.931 . S
C555 H543 0.929 . S
C555 C549 1.390 . S
C555 C552 1.386 . S
C556 C551 1.490 . S
C556 C558 1.395 . S
C556 C559 1.403 . S
H557 C563 0.930 . S
C558 H544 0.930 . S
C558 C556 1.395 . S
C558 C561 1.403 . S
C559 C556 1.403 . S
C559 C560 1.524 . S
C559 C563 1.400 . S
C560 H545 0.960 . S
C560 H546 0.960 . S
C560 H547 0.960 . S
C560 C559 1.524 . S
C561 C558 1.403 . S
C561 C562 1.392 . S
C561 C565 1.495 . S
C562 C561 1.392 . S
C562 C563 1.385 . S
C562 C564 1.478 . S
C563 H557 0.930 . S
C563 C559 1.400 . S
C563 C562 1.385 . S
C564 C562 1.478 . S
C564 C566 1.381 . S
C564 C570 1.383 . S
C565 C561 1.495 . S
C565 H571 0.959 . S
C565 H572 0.961 . S
C565 H573 0.960 . S
C566 C564 1.381 . S
C566 C567 1.394 . S
C566 H574 0.930 . S
C567 C566 1.394 . S
C567 C568 1.383 . S
C567 H575 0.929 . S
C568 C567 1.383 . S
C568 C569 1.377 . S
C569 H553 0.930 . S
C569 C568 1.377 . S
C569 C570 1.379 . S
C570 H554 0.931 . S
C570 C564 1.383 . S
C570 C569 1.379 . S
H571 C565 0.959 . S
H572 C565 0.961 . S
H573 C565 0.960 . S
H574 C566 0.930 . S
H575 C567 0.929 . S
H576 C584 0.929 . S
H577 C586 0.930 . S
H578 C588 0.930 . S
H579 C591 0.929 . S
H580 C594 0.930 . S
H581 C596 0.960 . S
H582 C596 0.960 . S
H583 C596 0.960 . S
C584 H576 0.929 . S
C584 C585 1.377 . S
C584 C586 1.384 . S
C585 C584 1.377 . S
C585 C591 1.390 . S
C586 H577 0.930 . S
C586 C584 1.384 . S
C586 C587 1.372 . S
C587 C586 1.372 . S
C587 C588 1.400 . S
C587 C592 1.490 . S
C588 H578 0.930 . S
C588 C587 1.400 . S
C588 C591 1.386 . S
H589 C605 0.930 . S
H590 C606 0.931 . S
C591 H579 0.929 . S
C591 C585 1.390 . S
C591 C588 1.386 . S
C592 C587 1.490 . S
C592 C594 1.395 . S
C592 C595 1.403 . S
H593 C599 0.930 . S
C594 H580 0.930 . S
C594 C592 1.395 . S
C594 C597 1.403 . S
C595 C592 1.403 . S
C595 C596 1.524 . S
C595 C599 1.400 . S
C596 H581 0.960 . S
C596 H582 0.960 . S
C596 H583 0.960 . S
C596 C595 1.524 . S
C597 C594 1.403 . S
C597 C598 1.392 . S
C597 C601 1.495 . S
C598 C597 1.392 . S
C598 C599 1.385 . S
C598 C600 1.478 . S
C599 H593 0.930 . S
C599 C595 1.400 . S
C599 C598 1.385 . S
C600 C598 1.478 . S
C600 C602 1.381 . S
C600 C606 1.383 . S
C601 C597 1.495 . S
C601 H607 0.959 . S
C601 H608 0.961 . S
C601 H609 0.960 . S
C602 C600 1.381 . S
C602 C603 1.394 . S
C602 H610 0.930 . S
C603 C602 1.394 . S
C603 C604 1.383 . S
C603 H611 0.929 . S
C604 C603 1.383 . S
C604 C605 1.377 . S
C605 H589 0.930 . S
C605 C604 1.377 . S
C605 C606 1.379 . S
C606 H590 0.931 . S
C606 C600 1.383 . S
C606 C605 1.379 . S
H607 C601 0.959 . S
H608 C601 0.961 . S
H609 C601 0.960 . S
H610 C602 0.930 . S
H611 C603 0.929 . S
H612 C620 0.929 . S
H613 C622 0.930 . S
H614 C624 0.930 . S
H615 C627 0.929 . S
H616 C630 0.930 . S
H617 C632 0.960 . S
H618 C632 0.960 . S
H619 C632 0.960 . S
C620 H612 0.929 . S
C620 C621 1.377 . S
C620 C622 1.384 . S
C621 C620 1.377 . S
C621 C627 1.390 . S
C622 H613 0.930 . S
C622 C620 1.384 . S
C622 C623 1.372 . S
C623 C622 1.372 . S
C623 C624 1.400 . S
C623 C628 1.490 . S
C624 H614 0.930 . S
C624 C623 1.400 . S
C624 C627 1.386 . S
H625 C641 0.930 . S
H626 C642 0.931 . S
C627 H615 0.929 . S
C627 C621 1.390 . S
C627 C624 1.386 . S
C628 C623 1.490 . S
C628 C630 1.395 . S
C628 C631 1.403 . S
H629 C635 0.930 . S
C630 H616 0.930 . S
C630 C628 1.395 . S
C630 C633 1.403 . S
C631 C628 1.403 . S
C631 C632 1.524 . S
C631 C635 1.400 . S
C632 H617 0.960 . S
C632 H618 0.960 . S
C632 H619 0.960 . S
C632 C631 1.524 . S
C633 C630 1.403 . S
C633 C634 1.392 . S
C633 C637 1.495 . S
C634 C633 1.392 . S
C634 C635 1.385 . S
C634 C636 1.478 . S
C635 H629 0.930 . S
C635 C631 1.400 . S
C635 C634 1.385 . S
C636 C634 1.478 . S
C636 C638 1.381 . S
C636 C642 1.383 . S
C637 C633 1.495 . S
C637 H643 0.959 . S
C637 H644 0.961 . S
C637 H645 0.960 . S
C638 C636 1.381 . S
C638 C639 1.394 . S
C638 H646 0.930 . S
C639 C638 1.394 . S
C639 C640 1.383 . S
C639 H647 0.929 . S
C640 C639 1.383 . S
C640 C641 1.377 . S
C641 H625 0.930 . S
C641 C640 1.377 . S
C641 C642 1.379 . S
C642 H626 0.931 . S
C642 C636 1.383 . S
C642 C641 1.379 . S
H643 C637 0.959 . S
H644 C637 0.961 . S
H645 C637 0.960 . S
H646 C638 0.930 . S
H647 C639 0.929 . S
H648 C656 0.929 . S
H649 C658 0.930 . S
H650 C660 0.930 . S
H651 C663 0.929 . S
H652 C666 0.930 . S
H653 C668 0.960 . S
H654 C668 0.960 . S
H655 C668 0.960 . S
C656 H648 0.929 . S
C656 C657 1.377 . S
C656 C658 1.384 . S
C657 C656 1.377 . S
C657 C663 1.390 . S
C658 H649 0.930 . S
C658 C656 1.384 . S
C658 C659 1.372 . S
C659 C658 1.372 . S
C659 C660 1.400 . S
C659 C664 1.490 . S
C660 H650 0.930 . S
C660 C659 1.400 . S
C660 C663 1.386 . S
H661 C677 0.930 . S
H662 C678 0.931 . S
C663 H651 0.929 . S
C663 C657 1.390 . S
C663 C660 1.386 . S
C664 C659 1.490 . S
C664 C666 1.395 . S
C664 C667 1.403 . S
H665 C671 0.930 . S
C666 H652 0.930 . S
C666 C664 1.395 . S
C666 C669 1.403 . S
C667 C664 1.403 . S
C667 C668 1.524 . S
C667 C671 1.400 . S
C668 H653 0.960 . S
C668 H654 0.960 . S
C668 H655 0.960 . S
C668 C667 1.524 . S
C669 C666 1.403 . S
C669 C670 1.392 . S
C669 C673 1.495 . S
C670 C669 1.392 . S
C670 C671 1.385 . S
C670 C672 1.478 . S
C671 H665 0.930 . S
C671 C667 1.400 . S
C671 C670 1.385 . S
C672 C670 1.478 . S
C672 C674 1.381 . S
C672 C678 1.383 . S
C673 C669 1.495 . S
C673 H679 0.959 . S
C673 H680 0.961 . S
C673 H681 0.960 . S
C674 C672 1.381 . S
C674 C675 1.394 . S
C674 H682 0.930 . S
C675 C674 1.394 . S
C675 C676 1.383 . S
C675 H683 0.929 . S
C676 C675 1.383 . S
C676 C677 1.377 . S
C677 H661 0.930 . S
C677 C676 1.377 . S
C677 C678 1.379 . S
C678 H662 0.931 . S
C678 C672 1.383 . S
C678 C677 1.379 . S
H679 C673 0.959 . S
H680 C673 0.961 . S
H681 C673 0.960 . S
H682 C674 0.930 . S
H683 C675 0.929 . S
H684 C692 0.929 . S
H685 C694 0.930 . S
H686 C696 0.930 . S
H687 C699 0.929 . S
H688 C702 0.930 . S
H689 C704 0.960 . S
H690 C704 0.960 . S
H691 C704 0.960 . S
C692 H684 0.929 . S
C692 C693 1.377 . S
C692 C694 1.384 . S
C693 C692 1.377 . S
C693 C699 1.390 . S
C694 H685 0.930 . S
C694 C692 1.384 . S
C694 C695 1.372 . S
C695 C694 1.372 . S
C695 C696 1.400 . S
C695 C700 1.490 . S
C696 H686 0.930 . S
C696 C695 1.400 . S
C696 C699 1.386 . S
H697 C713 0.930 . S
H698 C714 0.931 . S
C699 H687 0.929 . S
C699 C693 1.390 . S
C699 C696 1.386 . S
C700 C695 1.490 . S
C700 C702 1.395 . S
C700 C703 1.403 . S
H701 C707 0.930 . S
C702 H688 0.930 . S
C702 C700 1.395 . S
C702 C705 1.403 . S
C703 C700 1.403 . S
C703 C704 1.524 . S
C703 C707 1.400 . S
C704 H689 0.960 . S
C704 H690 0.960 . S
C704 H691 0.960 . S
C704 C703 1.524 . S
C705 C702 1.403 . S
C705 C706 1.392 . S
C705 C709 1.495 . S
C706 C705 1.392 . S
C706 C707 1.385 . S
C706 C708 1.478 . S
C707 H701 0.930 . S
C707 C703 1.400 . S
C707 C706 1.385 . S
C708 C706 1.478 . S
C708 C710 1.381 . S
C708 C714 1.383 . S
C709 C705 1.495 . S
C709 H715 0.959 . S
C709 H716 0.961 . S
C709 H717 0.960 . S
C710 C708 1.381 . S
C710 C711 1.394 . S
C710 H718 0.930 . S
C711 C710 1.394 . S
C711 C712 1.383 . S
C711 H719 0.929 . S
C712 C711 1.383 . S
C712 C713 1.377 . S
C713 H697 0.930 . S
C713 C712 1.377 . S
C713 C714 1.379 . S
C714 H698 0.931 . S
C714 C708 1.383 . S
C714 C713 1.379 . S
H715 C709 0.959 . S
H716 C709 0.961 . S
H717 C709 0.960 . S
H718 C710 0.930 . S
H719 C711 0.929 . S
H720 C728 0.929 . S
H721 C730 0.930 . S
H722 C732 0.930 . S
H723 C735 0.929 . S
H724 C738 0.930 . S
H725 C740 0.960 . S
H726 C740 0.960 . S
H727 C740 0.960 . S
C728 H720 0.929 . S
C728 C729 1.377 . S
C728 C730 1.384 . S
C729 C728 1.377 . S
C729 C735 1.390 . S
C730 H721 0.930 . S
C730 C728 1.384 . S
C730 C731 1.372 . S
C731 C730 1.372 . S
C731 C732 1.400 . S
C731 C736 1.490 . S
C732 H722 0.930 . S
C732 C731 1.400 . S
C732 C735 1.386 . S
H733 C749 0.930 . S
H734 C750 0.931 . S
C735 H723 0.929 . S
C735 C729 1.390 . S
C735 C732 1.386 . S
C736 C731 1.490 . S
C736 C738 1.395 . S
C736 C739 1.403 . S
H737 C743 0.930 . S
C738 H724 0.930 . S
C738 C736 1.395 . S
C738 C741 1.403 . S
C739 C736 1.403 . S
C739 C740 1.524 . S
C739 C743 1.400 . S
C740 H725 0.960 . S
C740 H726 0.960 . S
C740 H727 0.960 . S
C740 C739 1.524 . S
C741 C738 1.403 . S
C741 C742 1.392 . S
C741 C745 1.495 . S
C742 C741 1.392 . S
C742 C743 1.385 . S
C742 C744 1.478 . S
C743 H737 0.930 . S
C743 C739 1.400 . S
C743 C742 1.385 . S
C744 C742 1.478 . S
C744 C746 1.381 . S
C744 C750 1.383 . S
C745 C741 1.495 . S
C745 H751 0.959 . S
C745 H752 0.961 . S
C745 H753 0.960 . S
C746 C744 1.381 . S
C746 C747 1.394 . S
C746 H754 0.930 . S
C747 C746 1.394 . S
C747 C748 1.383 . S
C747 H755 0.929 . S
C748 C747 1.383 . S
C748 C749 1.377 . S
C749 H733 0.930 . S
C749 C748 1.377 . S
C749 C750 1.379 . S
C750 H734 0.931 . S
C750 C744 1.383 . S
C750 C749 1.379 . S
H751 C745 0.959 . S
H752 C745 0.961 . S
H753 C745 0.960 . S
H754 C746 0.930 . S
H755 C747 0.929 . S
H756 C764 0.929 . S
H757 C766 0.930 . S
H758 C768 0.930 . S
H759 C771 0.929 . S
H760 C774 0.930 . S
H761 C776 0.960 . S
H762 C776 0.960 . S
H763 C776 0.960 . S
C764 H756 0.929 . S
C764 C765 1.377 . S
C764 C766 1.384 . S
C765 C764 1.377 . S
C765 C771 1.390 . S
C766 H757 0.930 . S
C766 C764 1.384 . S
C766 C767 1.372 . S
C767 C766 1.372 . S
C767 C768 1.400 . S
C767 C772 1.490 . S
C768 H758 0.930 . S
C768 C767 1.400 . S
C768 C771 1.386 . S
H769 C785 0.930 . S
H770 C786 0.931 . S
C771 H759 0.929 . S
C771 C765 1.390 . S
C771 C768 1.386 . S
C772 C767 1.490 . S
C772 C774 1.395 . S
C772 C775 1.403 . S
H773 C779 0.930 . S
C774 H760 0.930 . S
C774 C772 1.395 . S
C774 C777 1.403 . S
C775 C772 1.403 . S
C775 C776 1.524 . S
C775 C779 1.400 . S
C776 H761 0.960 . S
C776 H762 0.960 . S
C776 H763 0.960 . S
C776 C775 1.524 . S
C777 C774 1.403 . S
C777 C778 1.392 . S
C777 C781 1.495 . S
C778 C777 1.392 . S
C778 C779 1.385 . S
C778 C780 1.478 . S
C779 H773 0.930 . S
C779 C775 1.400 . S
C779 C778 1.385 . S
C780 C778 1.478 . S
C780 C782 1.381 . S
C780 C786 1.383 . S
C781 C777 1.495 . S
C781 H787 0.959 . S
C781 H788 0.961 . S
C781 H789 0.960 . S
C782 C780 1.381 . S
C782 C783 1.394 . S
C782 H790 0.930 . S
C783 C782 1.394 . S
C783 C784 1.383 . S
C783 H791 0.929 . S
C784 C783 1.383 . S
C784 C785 1.377 . S
C785 H769 0.930 . S
C785 C784 1.377 . S
C785 C786 1.379 . S
C786 H770 0.931 . S
C786 C780 1.383 . S
C786 C785 1.379 . S
H787 C781 0.959 . S
H788 C781 0.961 . S
H789 C781 0.960 . S
H790 C782 0.930 . S
H791 C783 0.929 . S
H792 C800 0.929 . S
H793 C802 0.930 . S
H794 C804 0.930 . S
H795 C807 0.929 . S
H796 C810 0.930 . S
H797 C812 0.960 . S
H798 C812 0.960 . S
H799 C812 0.960 . S
C800 H792 0.929 . S
C800 C801 1.377 . S
C800 C802 1.384 . S
C801 C800 1.377 . S
C801 C807 1.390 . S
C802 H793 0.930 . S
C802 C800 1.384 . S
C802 C803 1.372 . S
C803 C802 1.372 . S
C803 C804 1.400 . S
C803 C808 1.490 . S
C804 H794 0.930 . S
C804 C803 1.400 . S
C804 C807 1.386 . S
H805 C821 0.930 . S
H806 C822 0.931 . S
C807 H795 0.929 . S
C807 C801 1.390 . S
C807 C804 1.386 . S
C808 C803 1.490 . S
C808 C810 1.395 . S
C808 C811 1.403 . S
H809 C815 0.930 . S
C810 H796 0.930 . S
C810 C808 1.395 . S
C810 C813 1.403 . S
C811 C808 1.403 . S
C811 C812 1.524 . S
C811 C815 1.400 . S
C812 H797 0.960 . S
C812 H798 0.960 . S
C812 H799 0.960 . S
C812 C811 1.524 . S
C813 C810 1.403 . S
C813 C814 1.392 . S
C813 C817 1.495 . S
C814 C813 1.392 . S
C814 C815 1.385 . S
C814 C816 1.478 . S
C815 H809 0.930 . S
C815 C811 1.400 . S
C815 C814 1.385 . S
C816 C814 1.478 . S
C816 C818 1.381 . S
C816 C822 1.383 . S
C817 C813 1.495 . S
C817 H823 0.959 . S
C817 H824 0.961 . S
C817 H825 0.960 . S
C818 C816 1.381 . S
C818 C819 1.394 . S
C818 H826 0.930 . S
C819 C818 1.394 . S
C819 C820 1.383 . S
C819 H827 0.929 . S
C820 C819 1.383 . S
C820 C821 1.377 . S
C821 H805 0.930 . S
C821 C820 1.377 . S
C821 C822 1.379 . S
C822 H806 0.931 . S
C822 C816 1.383 . S
C822 C821 1.379 . S
H823 C817 0.959 . S
H824 C817 0.961 . S
H825 C817 0.960 . S
H826 C818 0.930 . S
H827 C819 0.929 . S
H828 C836 0.929 . S
H829 C838 0.930 . S
H830 C840 0.930 . S
H831 C843 0.929 . S
H832 C846 0.930 . S
H833 C848 0.960 . S
H834 C848 0.960 . S
H835 C848 0.960 . S
C836 H828 0.929 . S
C836 C837 1.377 . S
C836 C838 1.384 . S
C837 C836 1.377 . S
C837 C843 1.390 . S
C838 H829 0.930 . S
C838 C836 1.384 . S
C838 C839 1.372 . S
C839 C838 1.372 . S
C839 C840 1.400 . S
C839 C844 1.490 . S
C840 H830 0.930 . S
C840 C839 1.400 . S
C840 C843 1.386 . S
H841 C857 0.930 . S
H842 C858 0.931 . S
C843 H831 0.929 . S
C843 C837 1.390 . S
C843 C840 1.386 . S
C844 C839 1.490 . S
C844 C846 1.395 . S
C844 C847 1.403 . S
H845 C851 0.930 . S
C846 H832 0.930 . S
C846 C844 1.395 . S
C846 C849 1.403 . S
C847 C844 1.403 . S
C847 C848 1.524 . S
C847 C851 1.400 . S
C848 H833 0.960 . S
C848 H834 0.960 . S
C848 H835 0.960 . S
C848 C847 1.524 . S
C849 C846 1.403 . S
C849 C850 1.392 . S
C849 C853 1.495 . S
C850 C849 1.392 . S
C850 C851 1.385 . S
C850 C852 1.478 . S
C851 H845 0.930 . S
C851 C847 1.400 . S
C851 C850 1.385 . S
C852 C850 1.478 . S
C852 C854 1.381 . S
C852 C858 1.383 . S
C853 C849 1.495 . S
C853 H859 0.959 . S
C853 H860 0.961 . S
C853 H861 0.960 . S
C854 C852 1.381 . S
C854 C855 1.394 . S
C854 H862 0.930 . S
C855 C854 1.394 . S
C855 C856 1.383 . S
C855 H863 0.929 . S
C856 C855 1.383 . S
C856 C857 1.377 . S
C857 H841 0.930 . S
C857 C856 1.377 . S
C857 C858 1.379 . S
C858 H842 0.931 . S
C858 C852 1.383 . S
C858 C857 1.379 . S
H859 C853 0.959 . S
H860 C853 0.961 . S
H861 C853 0.960 . S
H862 C854 0.930 . S
H863 C855 0.929 . S
H864 C872 0.929 . S
H865 C874 0.930 . S
H866 C876 0.930 . S
H867 C879 0.929 . S
H868 C882 0.930 . S
H869 C884 0.960 . S
H870 C884 0.960 . S
H871 C884 0.960 . S
C872 H864 0.929 . S
C872 C873 1.377 . S
C872 C874 1.384 . S
C873 C872 1.377 . S
C873 C879 1.390 . S
C874 H865 0.930 . S
C874 C872 1.384 . S
C874 C875 1.372 . S
C875 C874 1.372 . S
C875 C876 1.400 . S
C875 C880 1.490 . S
C876 H866 0.930 . S
C876 C875 1.400 . S
C876 C879 1.386 . S
H877 C893 0.930 . S
H878 C894 0.931 . S
C879 H867 0.929 . S
C879 C873 1.390 . S
C879 C876 1.386 . S
C880 C875 1.490 . S
C880 C882 1.395 . S
C880 C883 1.403 . S
H881 C887 0.930 . S
C882 H868 0.930 . S
C882 C880 1.395 . S
C882 C885 1.403 . S
C883 C880 1.403 . S
C883 C884 1.524 . S
C883 C887 1.400 . S
C884 H869 0.960 . S
C884 H870 0.960 . S
C884 H871 0.960 . S
C884 C883 1.524 . S
C885 C882 1.403 . S
C885 C886 1.392 . S
C885 C889 1.495 . S
C886 C885 1.392 . S
C886 C887 1.385 . S
C886 C888 1.478 . S
C887 H881 0.930 . S
C887 C883 1.400 . S
C887 C886 1.385 . S
C888 C886 1.478 . S
C888 C890 1.381 . S
C888 C894 1.383 . S
C889 C885 1.495 . S
C889 H895 0.959 . S
C889 H896 0.961 . S
C889 H897 0.960 . S
C890 C888 1.381 . S
C890 C891 1.394 . S
C890 H898 0.930 . S
C891 C890 1.394 . S
C891 C892 1.383 . S
C891 H899 0.929 . S
C892 C891 1.383 . S
C892 C893 1.377 . S
C893 H877 0.930 . S
C893 C892 1.377 . S
C893 C894 1.379 . S
C894 H878 0.931 . S
C894 C888 1.383 . S
C894 C893 1.379 . S
H895 C889 0.959 . S
H896 C889 0.961 . S
H897 C889 0.960 . S
H898 C890 0.930 . S
H899 C891 0.929 . S
H900 C908 0.929 . S
H901 C910 0.930 . S
H902 C912 0.930 . S
H903 C915 0.929 . S
H904 C918 0.930 . S
H905 C920 0.960 . S
H906 C920 0.960 . S
H907 C920 0.960 . S
C908 H900 0.929 . S
C908 C909 1.377 . S
C908 C910 1.384 . S
C909 C908 1.377 . S
C909 C915 1.390 . S
C910 H901 0.930 . S
C910 C908 1.384 . S
C910 C911 1.372 . S
C911 C910 1.372 . S
C911 C912 1.400 . S
C911 C916 1.490 . S
C912 H902 0.930 . S
C912 C911 1.400 . S
C912 C915 1.386 . S
H913 C929 0.930 . S
H914 C930 0.931 . S
C915 H903 0.929 . S
C915 C909 1.390 . S
C915 C912 1.386 . S
C916 C911 1.490 . S
C916 C918 1.395 . S
C916 C919 1.403 . S
H917 C923 0.930 . S
C918 H904 0.930 . S
C918 C916 1.395 . S
C918 C921 1.403 . S
C919 C916 1.403 . S
C919 C920 1.524 . S
C919 C923 1.400 . S
C920 H905 0.960 . S
C920 H906 0.960 . S
C920 H907 0.960 . S
C920 C919 1.524 . S
C921 C918 1.403 . S
C921 C922 1.392 . S
C921 C925 1.495 . S
C922 C921 1.392 . S
C922 C923 1.385 . S
C922 C924 1.478 . S
C923 H917 0.930 . S
C923 C919 1.400 . S
C923 C922 1.385 . S
C924 C922 1.478 . S
C924 C926 1.381 . S
C924 C930 1.383 . S
C925 C921 1.495 . S
C925 H931 0.959 . S
C925 H932 0.961 . S
C925 H933 0.960 . S
C926 C924 1.381 . S
C926 C927 1.394 . S
C926 H934 0.930 . S
C927 C926 1.394 . S
C927 C928 1.383 . S
C927 H935 0.929 . S
C928 C927 1.383 . S
C928 C929 1.377 . S
C929 H913 0.930 . S
C929 C928 1.377 . S
C929 C930 1.379 . S
C930 H914 0.931 . S
C930 C924 1.383 . S
C930 C929 1.379 . S
H931 C925 0.959 . S
H932 C925 0.961 . S
H933 C925 0.960 . S
H934 C926 0.930 . S
H935 C927 0.929 . S
H936 C944 0.929 . S
H937 C946 0.930 . S
H938 C948 0.930 . S
H939 C951 0.929 . S
H940 C954 0.930 . S
H941 C956 0.960 . S
H942 C956 0.960 . S
H943 C956 0.960 . S
C944 H936 0.929 . S
C944 C945 1.377 . S
C944 C946 1.384 . S
C945 C944 1.377 . S
C945 C951 1.390 . S
C946 H937 0.930 . S
C946 C944 1.384 . S
C946 C947 1.372 . S
C947 C946 1.372 . S
C947 C948 1.400 . S
C947 C952 1.490 . S
C948 H938 0.930 . S
C948 C947 1.400 . S
C948 C951 1.386 . S
H949 C965 0.930 . S
H950 C966 0.931 . S
C951 H939 0.929 . S
C951 C945 1.390 . S
C951 C948 1.386 . S
C952 C947 1.490 . S
C952 C954 1.395 1_655 S
C952 C955 1.403 . S
H953 C959 0.930 . S
C954 H940 0.930 . S
C954 C952 1.395 1_455 S
C954 C957 1.403 . S
C955 C952 1.403 . S
C955 C956 1.524 . S
C955 C959 1.400 . S
C956 H941 0.960 . S
C956 H942 0.960 . S
C956 H943 0.960 . S
C956 C955 1.524 . S
C957 C954 1.403 . S
C957 C958 1.392 . S
C957 C961 1.495 . S
C958 C957 1.392 . S
C958 C959 1.385 1_455 S
C958 C960 1.478 . S
C959 H953 0.930 . S
C959 C955 1.400 . S
C959 C958 1.385 1_655 S
C960 C958 1.478 . S
C960 C962 1.381 . S
C960 C966 1.383 . S
C961 C957 1.495 . S
C961 H967 0.959 . S
C961 H968 0.961 . S
C961 H969 0.960 . S
C962 C960 1.381 . S
C962 C963 1.394 . S
C962 H970 0.930 . S
C963 C962 1.394 . S
C963 C964 1.383 . S
C963 H971 0.929 . S
C964 C963 1.383 . S
C964 C965 1.377 . S
C965 H949 0.930 . S
C965 C964 1.377 . S
C965 C966 1.379 . S
C966 H950 0.931 . S
C966 C960 1.383 . S
C966 C965 1.379 . S
H967 C961 0.959 . S
H968 C961 0.961 . S
H969 C961 0.960 . S
H970 C962 0.930 . S
H971 C963 0.929 . S
H972 C980 0.929 . S
H973 C982 0.930 . S
H974 C984 0.930 . S
H975 C987 0.929 . S
H976 C990 0.930 . S
H977 C992 0.960 . S
H978 C992 0.960 . S
H979 C992 0.960 . S
C980 H972 0.929 . S
C980 C981 1.377 . S
C980 C982 1.384 . S
C981 C980 1.377 . S
C981 C987 1.390 . S
C982 H973 0.930 . S
C982 C980 1.384 . S
C982 C983 1.372 . S
C983 C982 1.372 . S
C983 C984 1.400 . S
C983 C988 1.490 . S
C984 H974 0.930 . S
C984 C983 1.400 . S
C984 C987 1.386 . S
H985 C1001 0.930 . S
H986 C1002 0.931 . S
C987 H975 0.929 . S
C987 C981 1.390 . S
C987 C984 1.386 . S
C988 C983 1.490 . S
C988 C990 1.395 . S
C988 C991 1.403 . S
H989 C995 0.930 . S
C990 H976 0.930 . S
C990 C988 1.395 . S
C990 C993 1.403 . S
C991 C988 1.403 . S
C991 C992 1.524 . S
C991 C995 1.400 . S
C992 H977 0.960 . S
C992 H978 0.960 . S
C992 H979 0.960 . S
C992 C991 1.524 . S
C993 C990 1.403 . S
C993 C994 1.392 . S
C993 C997 1.495 . S
C994 C993 1.392 . S
C994 C995 1.385 . S
C994 C996 1.478 . S
C995 H989 0.930 . S
C995 C991 1.400 . S
C995 C994 1.385 . S
C996 C994 1.478 . S
C996 C998 1.381 . S
C996 C1002 1.383 . S
C997 C993 1.495 . S
C997 H1003 0.959 . S
C997 H1004 0.961 . S
C997 H1005 0.960 . S
C998 C996 1.381 . S
C998 C999 1.394 . S
C998 H1006 0.930 . S
C999 C998 1.394 . S
C999 C1000 1.383 . S
C999 H1007 0.929 . S
C1000 C999 1.383 . S
C1000 C1001 1.377 . S
C1001 H985 0.930 . S
C1001 C1000 1.377 . S
C1001 C1002 1.379 . S
C1002 H986 0.931 . S
C1002 C996 1.383 . S
C1002 C1001 1.379 . S
H1003 C997 0.959 . S
H1004 C997 0.961 . S
H1005 C997 0.960 . S
H1006 C998 0.930 . S
H1007 C999 0.929 . S
H1008 C1016 0.929 . S
H1009 C1018 0.930 . S
H1010 C1020 0.930 . S
H1011 C1023 0.929 . S
H1012 C1026 0.919 . S
H1013 C1028 0.960 . S
H1014 C1028 0.960 . S
H1015 C1028 0.960 . S
C1016 H1008 0.929 . S
C1016 C1017 1.377 . S
C1016 C1018 1.384 . S
C1017 C1016 1.377 . S
C1017 C1023 1.390 . S
C1018 H1009 0.930 . S
C1018 C1016 1.384 . S
C1018 C1019 1.372 . S
C1019 C1018 1.372 . S
C1019 C1020 1.400 . S
C1019 C1024 1.490 . S
C1020 H1010 0.930 . S
C1020 C1019 1.400 . S
C1020 C1023 1.386 . S
H1021 C1037 0.930 . S
H1022 C1038 0.931 . S
C1023 H1011 0.929 . S
C1023 C1017 1.390 . S
C1023 C1020 1.386 . S
C1024 C1019 1.490 . S
C1024 C1026 1.414 . S
C1024 C1027 1.403 . S
H1025 C1031 0.930 . S
C1026 H1012 0.919 . S
C1026 C1024 1.414 . S
C1026 C1029 1.395 1_545 S
C1027 C1024 1.403 . S
C1027 C1028 1.524 . S
C1027 C1031 1.400 1_545 S
C1028 H1013 0.960 . S
C1028 H1014 0.960 . S
C1028 H1015 0.960 . S
C1028 C1027 1.524 . S
C1029 C1026 1.395 1_565 S
C1029 C1030 1.392 . S
C1029 C1033 1.495 . S
C1030 C1029 1.392 . S
C1030 C1031 1.385 . S
C1030 C1032 1.478 . S
C1031 H1025 0.930 . S
C1031 C1027 1.400 1_565 S
C1031 C1030 1.385 . S
C1032 C1030 1.478 . S
C1032 C1034 1.381 . S
C1032 C1038 1.383 . S
C1033 C1029 1.495 . S
C1033 H1039 0.959 . S
C1033 H1040 0.961 . S
C1033 H1041 0.960 . S
C1034 C1032 1.381 . S
C1034 C1035 1.394 . S
C1034 H1042 0.930 . S
C1035 C1034 1.394 . S
C1035 C1036 1.383 . S
C1035 H1043 0.929 . S
C1036 C1035 1.383 . S
C1036 C1037 1.377 . S
C1037 H1021 0.930 . S
C1037 C1036 1.377 . S
C1037 C1038 1.379 . S
C1038 H1022 0.931 . S
C1038 C1032 1.383 . S
C1038 C1037 1.379 . S
H1039 C1033 0.959 . S
H1040 C1033 0.961 . S
H1041 C1033 0.960 . S
H1042 C1034 0.930 . S
H1043 C1035 0.929 . S
H1044 C1052 0.929 . S
H1045 C1054 0.930 . S
H1046 C1056 0.930 . S
H1047 C1059 0.929 . S
H1048 C1062 0.930 . S
H1049 C1064 0.960 . S
H1050 C1064 0.960 . S
H1051 C1064 0.960 . S
C1052 H1044 0.929 . S
C1052 C1053 1.377 . S
C1052 C1054 1.384 . S
C1053 C1052 1.377 . S
C1053 C1059 1.390 . S
C1054 H1045 0.930 . S
C1054 C1052 1.384 . S
C1054 C1055 1.372 . S
C1055 C1054 1.372 . S
C1055 C1056 1.400 . S
C1055 C1060 1.490 . S
C1056 H1046 0.930 . S
C1056 C1055 1.400 . S
C1056 C1059 1.386 . S
H1057 C1073 0.930 . S
H1058 C1074 0.931 . S
C1059 H1047 0.929 . S
C1059 C1053 1.390 . S
C1059 C1056 1.386 . S
C1060 C1055 1.490 . S
C1060 C1062 1.395 . S
C1060 C1063 1.403 1_545 S
H1061 C1067 0.930 . S
C1062 H1048 0.930 . S
C1062 C1060 1.395 . S
C1062 C1065 1.403 1_556 S
C1063 C1060 1.403 1_565 S
C1063 C1064 1.524 . S
C1063 C1067 1.400 1_556 S
C1064 H1049 0.960 . S
C1064 H1050 0.960 . S
C1064 H1051 0.960 . S
C1064 C1063 1.524 . S
C1065 C1062 1.403 1_554 S
C1065 C1066 1.392 1_545 S
C1065 C1069 1.495 . S
C1066 C1065 1.392 1_565 S
C1066 C1067 1.385 . S
C1066 C1068 1.478 . S
C1067 H1061 0.930 . S
C1067 C1063 1.400 1_554 S
C1067 C1066 1.385 . S
C1068 C1066 1.478 . S
C1068 C1070 1.381 . S
C1068 C1074 1.383 . S
C1069 C1065 1.495 . S
C1069 H1075 0.959 . S
C1069 H1076 0.961 . S
C1069 H1077 0.960 . S
C1070 C1068 1.381 . S
C1070 C1071 1.394 . S
C1070 H1078 0.930 . S
C1071 C1070 1.394 . S
C1071 C1072 1.383 . S
C1071 H1079 0.929 . S
C1072 C1071 1.383 . S
C1072 C1073 1.377 . S
C1073 H1057 0.930 . S
C1073 C1072 1.377 . S
C1073 C1074 1.379 . S
C1074 H1058 0.931 . S
C1074 C1068 1.383 . S
C1074 C1073 1.379 . S
H1075 C1069 0.959 . S
H1076 C1069 0.961 . S
H1077 C1069 0.960 . S
H1078 C1070 0.930 . S
H1079 C1071 0.929 . S
H1080 C1088 0.929 . S
H1081 C1090 0.930 . S
H1082 C1092 0.930 . S
H1083 C1095 0.929 . S
H1084 C1098 0.930 . S
H1085 C1100 0.960 . S
H1086 C1100 0.960 . S
H1087 C1100 0.960 . S
C1088 H1080 0.929 . S
C1088 C1089 1.377 . S
C1088 C1090 1.384 . S
C1089 C1088 1.377 . S
C1089 C1095 1.390 . S
C1090 H1081 0.930 . S
C1090 C1088 1.384 . S
C1090 C1091 1.372 . S
C1091 C1090 1.372 . S
C1091 C1092 1.400 . S
C1091 C1096 1.490 . S
C1092 H1082 0.930 . S
C1092 C1091 1.400 . S
C1092 C1095 1.386 . S
H1093 C1109 0.930 . S
H1094 C1110 0.931 . S
C1095 H1083 0.929 . S
C1095 C1089 1.390 . S
C1095 C1092 1.386 . S
C1096 C1091 1.490 . S
C1096 C1098 1.395 1_655 S
C1096 C1099 1.403 1_556 S
H1097 C1103 0.926 1_655 S
C1098 H1084 0.930 . S
C1098 C1096 1.395 1_455 S
C1098 C1101 1.403 . S
C1099 C1096 1.403 1_554 S
C1099 C1100 1.524 . S
C1099 C1103 1.396 1_655 S
C1100 H1085 0.960 . S
C1100 H1086 0.960 . S
C1100 H1087 0.960 . S
C1100 C1099 1.524 . S
C1101 C1098 1.403 . S
C1101 C1102 1.392 1_556 S
C1101 C1105 1.495 . S
C1102 C1101 1.392 1_554 S
C1102 C1103 1.390 . S
C1102 C1104 1.478 . S
C1103 H1097 0.926 1_455 S
C1103 C1099 1.396 1_455 S
C1103 C1102 1.390 . S
C1104 C1102 1.478 . S
C1104 C1106 1.381 . S
C1104 C1110 1.383 . S
C1105 C1101 1.495 . S
C1105 H1111 0.959 . S
C1105 H1112 0.961 . S
C1105 H1113 0.960 . S
C1106 C1104 1.381 . S
C1106 C1107 1.394 . S
C1106 H1114 0.930 . S
C1107 C1106 1.394 . S
C1107 C1108 1.383 . S
C1107 H1115 0.929 . S
C1108 C1107 1.383 . S
C1108 C1109 1.377 . S
C1109 H1093 0.930 . S
C1109 C1108 1.377 . S
C1109 C1110 1.379 . S
C1110 H1094 0.931 . S
C1110 C1104 1.383 . S
C1110 C1109 1.379 . S
H1111 C1105 0.959 . S
H1112 C1105 0.961 . S
H1113 C1105 0.960 . S
H1114 C1106 0.930 . S
H1115 C1107 0.929 . S
H1116 C1124 0.929 . S
H1117 C1126 0.930 . S
H1118 C1128 0.930 . S
H1119 C1131 0.929 . S
H1120 C1134 0.930 . S
H1121 C1136 0.960 . S
H1122 C1136 0.960 . S
H1123 C1136 0.960 1_556 S
C1124 H1116 0.929 . S
C1124 C1125 1.377 . S
C1124 C1126 1.384 . S
C1125 C1124 1.377 . S
C1125 C1131 1.390 . S
C1126 H1117 0.930 . S
C1126 C1124 1.384 . S
C1126 C1127 1.372 . S
C1127 C1126 1.372 . S
C1127 C1128 1.400 . S
C1127 C1132 1.490 . S
C1128 H1118 0.930 . S
C1128 C1127 1.400 . S
C1128 C1131 1.386 . S
H1129 C1145 0.930 . S
H1130 C1146 0.931 . S
C1131 H1119 0.929 . S
C1131 C1125 1.390 . S
C1131 C1128 1.386 . S
C1132 C1127 1.490 . S
C1132 C1134 1.395 . S
C1132 C1135 1.403 1_556 S
H1133 C1139 0.930 . S
C1134 H1120 0.930 . S
C1134 C1132 1.395 . S
C1134 C1137 1.403 . S
C1135 C1132 1.403 1_554 S
C1135 C1136 1.524 . S
C1135 C1139 1.400 . S
C1136 H1121 0.960 . S
C1136 H1122 0.960 . S
C1136 H1123 0.960 1_554 S
C1136 C1135 1.524 . S
C1137 C1134 1.403 . S
C1137 C1138 1.392 1_556 S
C1137 C1141 1.495 . S
C1138 C1137 1.392 1_554 S
C1138 C1139 1.385 . S
C1138 C1140 1.478 . S
C1139 H1133 0.930 . S
C1139 C1135 1.400 . S
C1139 C1138 1.385 . S
C1140 C1138 1.478 . S
C1140 C1142 1.381 . S
C1140 C1146 1.383 . S
C1141 C1137 1.495 . S
C1141 H1147 0.959 . S
C1141 H1148 0.961 . S
C1141 H1149 0.960 1_556 S
C1142 C1140 1.381 . S
C1142 C1143 1.394 . S
C1142 H1150 0.930 . S
C1143 C1142 1.394 . S
C1143 C1144 1.383 . S
C1143 H1151 0.929 . S
C1144 C1143 1.383 . S
C1144 C1145 1.377 . S
C1145 H1129 0.930 . S
C1145 C1144 1.377 . S
C1145 C1146 1.379 . S
C1146 H1130 0.931 . S
C1146 C1140 1.383 . S
C1146 C1145 1.379 . S
H1147 C1141 0.959 . S
H1148 C1141 0.961 . S
H1149 C1141 0.960 1_554 S
H1150 C1142 0.930 . S
H1151 C1143 0.929 . S
H1152 C1160 0.929 . S
H1153 C1162 0.930 . S
H1154 C1164 0.930 1_554 S
H1155 C1167 0.974 . S
H1156 C1170 0.930 . S
H1157 C1172 0.954 1_554 S
H1158 C1172 0.973 . S
H1159 C1172 0.955 1_554 S
C1160 H1152 0.929 . S
C1160 C1161 1.377 1_545 S
C1160 C1162 1.384 . S
C1161 C1160 1.377 1_565 S
C1161 C1167 1.392 . S
C1162 H1153 0.930 . S
C1162 C1160 1.384 . S
C1162 C1163 1.372 . S
C1163 C1162 1.372 . S
C1163 C1164 1.400 . S
C1163 C1168 1.490 . S
C1164 H1154 0.930 1_556 S
C1164 C1163 1.400 . S
C1164 C1167 1.340 1_545 S
H1165 C1181 0.930 . S
H1166 C1182 0.931 . S
C1167 H1155 0.974 . S
C1167 C1161 1.392 . S
C1167 C1164 1.340 1_565 S
C1168 C1163 1.490 . S
C1168 C1170 1.395 . S
C1168 C1171 1.403 1_556 S
H1169 C1175 0.930 . S
C1170 H1156 0.930 . S
C1170 C1168 1.395 . S
C1170 C1173 1.403 1_556 S
C1171 C1168 1.403 1_554 S
C1171 C1172 1.522 1_554 S
C1171 C1175 1.400 . S
C1172 H1157 0.954 1_556 S
C1172 H1158 0.973 . S
C1172 H1159 0.955 1_556 S
C1172 C1171 1.522 1_556 S
C1173 C1170 1.403 1_554 S
C1173 C1174 1.392 . S
C1173 C1177 1.495 . S
C1174 C1173 1.392 . S
C1174 C1175 1.385 . S
C1174 C1176 1.478 . S
C1175 H1169 0.930 . S
C1175 C1171 1.400 . S
C1175 C1174 1.385 . S
C1176 C1174 1.478 . S
C1176 C1178 1.381 . S
C1176 C1182 1.383 . S
C1177 C1173 1.495 . S
C1177 H1183 0.959 . S
C1177 H1184 0.961 . S
C1177 H1185 0.960 . S
C1178 C1176 1.381 . S
C1178 C1179 1.394 . S
C1178 H1186 0.930 . S
C1179 C1178 1.394 . S
C1179 C1180 1.383 . S
C1179 H1187 0.929 . S
C1180 C1179 1.383 . S
C1180 C1181 1.377 . S
C1181 H1165 0.930 . S
C1181 C1180 1.377 . S
C1181 C1182 1.379 . S
C1182 H1166 0.931 . S
C1182 C1176 1.383 . S
C1182 C1181 1.379 . S
H1183 C1177 0.959 . S
H1184 C1177 0.961 . S
H1185 C1177 0.960 . S
H1186 C1178 0.930 . S
H1187 C1179 0.929 . S
H1188 C1196 0.929 . S
H1189 C1198 0.930 . S
H1190 C1200 0.930 1_554 S
H1191 C1203 0.937 . S
H1192 C1206 0.930 . S
H1193 C1208 0.960 1_554 S
H1194 C1208 0.960 . S
H1195 C1208 0.960 1_554 S
C1196 H1188 0.929 . S
C1196 C1197 1.377 1_655 S
C1196 C1198 1.384 . S
C1197 C1196 1.377 1_455 S
C1197 C1203 1.400 . S
C1198 H1189 0.930 . S
C1198 C1196 1.384 . S
C1198 C1199 1.372 . S
C1199 C1198 1.372 . S
C1199 C1200 1.400 . S
C1199 C1204 1.490 . S
C1200 H1190 0.930 1_556 S
C1200 C1199 1.400 . S
C1200 C1203 1.369 1_655 S
H1201 C1217 0.930 . S
H1202 C1218 0.931 . S
C1203 H1191 0.937 . S
C1203 C1197 1.400 . S
C1203 C1200 1.369 1_455 S
C1204 C1199 1.490 . S
C1204 C1206 1.395 . S
C1204 C1207 1.403 1_556 S
H1205 C1211 0.930 . S
C1206 H1192 0.930 . S
C1206 C1204 1.395 . S
C1206 C1209 1.403 1_556 S
C1207 C1204 1.403 1_554 S
C1207 C1208 1.524 1_554 S
C1207 C1211 1.400 . S
C1208 H1193 0.960 1_556 S
C1208 H1194 0.960 . S
C1208 H1195 0.960 1_556 S
C1208 C1207 1.524 1_556 S
C1209 C1206 1.403 1_554 S
C1209 C1210 1.392 . S
C1209 C1213 1.495 . S
C1210 C1209 1.392 . S
C1210 C1211 1.385 . S
C1210 C1212 1.478 . S
C1211 H1205 0.930 . S
C1211 C1207 1.400 . S
C1211 C1210 1.385 . S
C1212 C1210 1.478 . S
C1212 C1214 1.381 . S
C1212 C1218 1.383 . S
C1213 C1209 1.495 . S
C1213 H1219 0.959 . S
C1213 H1220 0.961 . S
C1213 H1221 0.960 . S
C1214 C1212 1.381 . S
C1214 C1215 1.394 . S
C1214 H1222 0.930 . S
C1215 C1214 1.394 . S
C1215 C1216 1.383 . S
C1215 H1223 0.929 . S
C1216 C1215 1.383 . S
C1216 C1217 1.377 . S
C1217 H1201 0.930 . S
C1217 C1216 1.377 . S
C1217 C1218 1.379 . S
C1218 H1202 0.931 . S
C1218 C1212 1.383 . S
C1218 C1217 1.379 . S
H1219 C1213 0.959 . S
H1220 C1213 0.961 . S
H1221 C1213 0.960 . S
H1222 C1214 0.930 . S
H1223 C1215 0.929 . S
H1224 C1232 0.929 . S
H1225 C1234 0.930 . S
H1226 C1236 0.930 . S
H1227 C1239 0.929 . S
H1228 C1242 0.930 . S
H1229 C1244 0.960 . S
H1230 C1244 0.960 . S
H1231 C1244 0.960 . S
C1232 H1224 0.929 . S
C1232 C1233 1.377 . S
C1232 C1234 1.384 . S
C1233 C1232 1.377 . S
C1233 C1239 1.390 . S
C1234 H1225 0.930 . S
C1234 C1232 1.384 . S
C1234 C1235 1.372 . S
C1235 C1234 1.372 . S
C1235 C1236 1.400 . S
C1235 C1240 1.490 . S
C1236 H1226 0.930 . S
C1236 C1235 1.400 . S
C1236 C1239 1.386 . S
H1237 C1253 0.930 . S
H1238 C1254 0.931 1_554 S
C1239 H1227 0.929 . S
C1239 C1233 1.390 . S
C1239 C1236 1.386 . S
C1240 C1235 1.490 . S
C1240 C1242 1.395 1_554 S
C1240 C1243 1.403 . S
H1241 C1247 0.930 . S
C1242 H1228 0.930 . S
C1242 C1240 1.395 1_556 S
C1242 C1245 1.403 . S
C1243 C1240 1.403 . S
C1243 C1244 1.524 . S
C1243 C1247 1.400 . S
C1244 H1229 0.960 . S
C1244 H1230 0.960 . S
C1244 H1231 0.960 . S
C1244 C1243 1.524 . S
C1245 C1242 1.403 . S
C1245 C1246 1.392 . S
C1245 C1249 1.495 . S
C1246 C1245 1.392 . S
C1246 C1247 1.385 1_556 S
C1246 C1248 1.478 . S
C1247 H1241 0.930 . S
C1247 C1243 1.400 . S
C1247 C1246 1.385 1_554 S
C1248 C1246 1.478 . S
C1248 C1250 1.381 . S
C1248 C1254 1.383 . S
C1249 C1245 1.495 . S
C1249 H1255 0.959 . S
C1249 H1256 0.961 . S
C1249 H1257 0.960 . S
C1250 C1248 1.381 . S
C1250 C1251 1.394 . S
C1250 H1258 0.930 . S
C1251 C1250 1.394 . S
C1251 C1252 1.383 . S
C1251 H1259 0.929 . S
C1252 C1251 1.383 . S
C1252 C1253 1.377 . S
C1253 H1237 0.930 . S
C1253 C1252 1.377 . S
C1253 C1254 1.379 . S
C1254 H1238 0.931 1_556 S
C1254 C1248 1.383 . S
C1254 C1253 1.379 . S
H1255 C1249 0.959 . S
H1256 C1249 0.961 . S
H1257 C1249 0.960 . S
H1258 C1250 0.930 . S
H1259 C1251 0.929 . S
H1260 C1268 0.929 . S
H1261 C1270 0.930 . S
H1262 C1272 0.930 . S
H1263 C1275 0.929 . S
H1264 C1278 0.930 . S
H1265 C1280 0.960 . S
H1266 C1280 0.960 . S
H1267 C1280 0.960 . S
C1268 H1260 0.929 . S
C1268 C1269 1.377 1_455 S
C1268 C1270 1.384 . S
C1269 C1268 1.377 1_655 S
C1269 C1275 1.390 . S
C1270 H1261 0.930 . S
C1270 C1268 1.384 . S
C1270 C1271 1.372 . S
C1271 C1270 1.372 . S
C1271 C1272 1.400 . S
C1271 C1276 1.490 . S
C1272 H1262 0.930 . S
C1272 C1271 1.400 . S
C1272 C1275 1.386 1_455 S
H1273 C1289 0.930 . S
H1274 C1290 0.931 . S
C1275 H1263 0.929 . S
C1275 C1269 1.390 . S
C1275 C1272 1.386 1_655 S
C1276 C1271 1.490 . S
C1276 C1278 1.395 . S
C1276 C1279 1.403 . S
H1277 C1283 0.930 . S
C1278 H1264 0.930 . S
C1278 C1276 1.395 . S
C1278 C1281 1.403 . S
C1279 C1276 1.403 . S
C1279 C1280 1.524 . S
C1279 C1283 1.400 . S
C1280 H1265 0.960 . S
C1280 H1266 0.960 . S
C1280 H1267 0.960 . S
C1280 C1279 1.524 . S
C1281 C1278 1.403 . S
C1281 C1282 1.392 . S
C1281 C1285 1.495 . S
C1282 C1281 1.392 . S
C1282 C1283 1.385 . S
C1282 C1284 1.478 . S
C1283 H1277 0.930 . S
C1283 C1279 1.400 . S
C1283 C1282 1.385 . S
C1284 C1282 1.478 . S
C1284 C1286 1.381 . S
C1284 C1290 1.383 . S
C1285 C1281 1.495 . S
C1285 H1291 0.959 . S
C1285 H1292 0.961 . S
C1285 H1293 0.960 . S
C1286 C1284 1.381 . S
C1286 C1287 1.394 . S
C1286 H1294 0.930 . S
C1287 C1286 1.394 . S
C1287 C1288 1.383 . S
C1287 H1295 0.929 . S
C1288 C1287 1.383 . S
C1288 C1289 1.377 . S
C1289 H1273 0.930 . S
C1289 C1288 1.377 . S
C1289 C1290 1.379 . S
C1290 H1274 0.931 . S
C1290 C1284 1.383 . S
C1290 C1289 1.379 . S
H1291 C1285 0.959 . S
H1292 C1285 0.961 . S
H1293 C1285 0.960 . S
H1294 C1286 0.930 . S
H1295 C1287 0.929 . S
H1296 C1304 0.929 . S
H1297 C1306 0.930 . S
H1298 C1308 0.930 . S
H1299 C1311 0.929 . S
H1300 C1314 0.930 . S
H1301 C1316 0.960 . S
H1302 C1316 0.960 . S
H1303 C1316 0.960 . S
C1304 H1296 0.929 . S
C1304 C1305 1.377 . S
C1304 C1306 1.384 . S
C1305 C1304 1.377 . S
C1305 C1311 1.390 . S
C1306 H1297 0.930 . S
C1306 C1304 1.384 . S
C1306 C1307 1.372 . S
C1307 C1306 1.372 . S
C1307 C1308 1.400 . S
C1307 C1312 1.490 . S
C1308 H1298 0.930 . S
C1308 C1307 1.400 . S
C1308 C1311 1.386 . S
H1309 C1325 0.930 . S
H1310 C1326 0.931 . S
C1311 H1299 0.929 . S
C1311 C1305 1.390 . S
C1311 C1308 1.386 . S
C1312 C1307 1.490 . S
C1312 C1314 1.395 . S
C1312 C1315 1.403 . S
H1313 C1319 0.930 . S
C1314 H1300 0.930 . S
C1314 C1312 1.395 . S
C1314 C1317 1.403 . S
C1315 C1312 1.403 . S
C1315 C1316 1.524 . S
C1315 C1319 1.400 . S
C1316 H1301 0.960 . S
C1316 H1302 0.960 . S
C1316 H1303 0.960 . S
C1316 C1315 1.524 . S
C1317 C1314 1.403 . S
C1317 C1318 1.392 . S
C1317 C1321 1.495 . S
C1318 C1317 1.392 . S
C1318 C1319 1.385 . S
C1318 C1320 1.478 . S
C1319 H1313 0.930 . S
C1319 C1315 1.400 . S
C1319 C1318 1.385 . S
C1320 C1318 1.478 . S
C1320 C1322 1.381 . S
C1320 C1326 1.383 . S
C1321 C1317 1.495 . S
C1321 H1327 0.959 . S
C1321 H1328 0.961 . S
C1321 H1329 0.960 . S
C1322 C1320 1.381 . S
C1322 C1323 1.394 . S
C1322 H1330 0.930 . S
C1323 C1322 1.394 . S
C1323 C1324 1.383 . S
C1323 H1331 0.929 . S
C1324 C1323 1.383 . S
C1324 C1325 1.377 . S
C1325 H1309 0.930 . S
C1325 C1324 1.377 . S
C1325 C1326 1.379 . S
C1326 H1310 0.931 . S
C1326 C1320 1.383 . S
C1326 C1325 1.379 . S
H1327 C1321 0.959 . S
H1328 C1321 0.961 . S
H1329 C1321 0.960 . S
H1330 C1322 0.930 . S
H1331 C1323 0.929 . S
H1332 C1340 0.929 . S
H1333 C1342 0.930 . S
H1334 C1344 0.930 . S
H1335 C1347 0.929 . S
H1336 C1350 0.930 . S
H1337 C1352 0.960 . S
H1338 C1352 0.960 . S
H1339 C1352 0.960 . S
C1340 H1332 0.929 . S
C1340 C1341 1.377 1_565 S
C1340 C1342 1.384 . S
C1341 C1340 1.377 1_545 S
C1341 C1347 1.390 . S
C1342 H1333 0.930 . S
C1342 C1340 1.384 . S
C1342 C1343 1.372 . S
C1343 C1342 1.372 . S
C1343 C1344 1.400 . S
C1343 C1348 1.490 . S
C1344 H1334 0.930 . S
C1344 C1343 1.400 . S
C1344 C1347 1.386 1_565 S
H1345 C1361 0.930 . S
H1346 C1362 0.931 . S
C1347 H1335 0.929 . S
C1347 C1341 1.390 . S
C1347 C1344 1.386 1_545 S
C1348 C1343 1.490 . S
C1348 C1350 1.395 . S
C1348 C1351 1.403 . S
H1349 C1355 0.930 . S
C1350 H1336 0.930 . S
C1350 C1348 1.395 . S
C1350 C1353 1.403 . S
C1351 C1348 1.403 . S
C1351 C1352 1.524 . S
C1351 C1355 1.400 . S
C1352 H1337 0.960 . S
C1352 H1338 0.960 . S
C1352 H1339 0.960 . S
C1352 C1351 1.524 . S
C1353 C1350 1.403 . S
C1353 C1354 1.392 . S
C1353 C1357 1.495 . S
C1354 C1353 1.392 . S
C1354 C1355 1.385 . S
C1354 C1356 1.478 . S
C1355 H1349 0.930 . S
C1355 C1351 1.400 . S
C1355 C1354 1.385 . S
C1356 C1354 1.478 . S
C1356 C1358 1.381 . S
C1356 C1362 1.383 . S
C1357 C1353 1.495 . S
C1357 H1363 0.959 . S
C1357 H1364 0.961 . S
C1357 H1365 0.960 . S
C1358 C1356 1.381 . S
C1358 C1359 1.394 . S
C1358 H1366 0.930 . S
C1359 C1358 1.394 . S
C1359 C1360 1.383 . S
C1359 H1367 0.929 . S
C1360 C1359 1.383 . S
C1360 C1361 1.377 . S
C1361 H1345 0.930 . S
C1361 C1360 1.377 . S
C1361 C1362 1.379 . S
C1362 H1346 0.931 . S
C1362 C1356 1.383 . S
C1362 C1361 1.379 . S
H1363 C1357 0.959 . S
H1364 C1357 0.961 . S
H1365 C1357 0.960 . S
H1366 C1358 0.930 . S
H1367 C1359 0.929 . S
H1368 C1376 0.929 . S
H1369 C1378 0.930 . S
H1370 C1380 0.930 . S
H1371 C1383 0.929 . S
H1372 C1386 0.930 . S
H1373 C1388 0.960 . S
H1374 C1388 0.960 . S
H1375 C1388 0.960 . S
C1376 H1368 0.929 . S
C1376 C1377 1.377 . S
C1376 C1378 1.384 . S
C1377 C1376 1.377 . S
C1377 C1383 1.390 . S
C1378 H1369 0.930 . S
C1378 C1376 1.384 . S
C1378 C1379 1.372 . S
C1379 C1378 1.372 . S
C1379 C1380 1.400 . S
C1379 C1384 1.490 . S
C1380 H1370 0.930 . S
C1380 C1379 1.400 . S
C1380 C1383 1.386 . S
H1381 C1397 0.930 . S
H1382 C1398 0.931 . S
C1383 H1371 0.929 . S
C1383 C1377 1.390 . S
C1383 C1380 1.386 . S
C1384 C1379 1.490 . S
C1384 C1386 1.395 1_556 S
C1384 C1387 1.403 . S
H1385 C1391 0.930 . S
C1386 H1372 0.930 . S
C1386 C1384 1.395 1_554 S
C1386 C1389 1.403 . S
C1387 C1384 1.403 . S
C1387 C1388 1.524 . S
C1387 C1391 1.400 . S
C1388 H1373 0.960 . S
C1388 H1374 0.960 . S
C1388 H1375 0.960 . S
C1388 C1387 1.524 . S
C1389 C1386 1.403 . S
C1389 C1390 1.392 . S
C1389 C1393 1.495 . S
C1390 C1389 1.392 . S
C1390 C1391 1.385 1_554 S
C1390 C1392 1.478 . S
C1391 H1385 0.930 . S
C1391 C1387 1.400 . S
C1391 C1390 1.385 1_556 S
C1392 C1390 1.478 . S
C1392 C1394 1.381 . S
C1392 C1398 1.383 . S
C1393 C1389 1.495 . S
C1393 H1399 0.959 . S
C1393 H1400 0.961 . S
C1393 H1401 0.960 . S
C1394 C1392 1.381 . S
C1394 C1395 1.394 . S
C1394 H1402 0.930 . S
C1395 C1394 1.394 . S
C1395 C1396 1.383 1_565 S
C1395 H1403 0.929 . S
C1396 C1395 1.383 1_545 S
C1396 C1397 1.377 . S
C1397 H1381 0.930 . S
C1397 C1396 1.377 . S
C1397 C1398 1.379 1_545 S
C1398 H1382 0.931 . S
C1398 C1392 1.383 . S
C1398 C1397 1.379 1_565 S
H1399 C1393 0.959 . S
H1400 C1393 0.961 . S
H1401 C1393 0.960 . S
H1402 C1394 0.930 . S
H1403 C1395 0.929 . S
H1404 C1412 0.929 . S
H1405 C1414 0.930 . S
H1406 C1416 0.930 . S
H1407 C1419 0.929 . S
H1408 C1422 0.930 . S
H1409 C1424 0.960 . S
H1410 C1424 0.960 . S
H1411 C1424 0.960 . S
C1412 H1404 0.929 . S
C1412 C1413 1.377 . S
C1412 C1414 1.384 . S
C1413 C1412 1.377 . S
C1413 C1419 1.390 . S
C1414 H1405 0.930 . S
C1414 C1412 1.384 . S
C1414 C1415 1.372 . S
C1415 C1414 1.372 . S
C1415 C1416 1.400 . S
C1415 C1420 1.490 . S
C1416 H1406 0.930 . S
C1416 C1415 1.400 . S
C1416 C1419 1.386 . S
H1417 C1433 0.930 . S
H1418 C1434 0.931 1_556 S
C1419 H1407 0.929 . S
C1419 C1413 1.390 . S
C1419 C1416 1.386 . S
C1420 C1415 1.490 . S
C1420 C1422 1.395 . S
C1420 C1423 1.403 . S
H1421 C1427 0.930 . S
C1422 H1408 0.930 . S
C1422 C1420 1.395 . S
C1422 C1425 1.403 1_556 S
C1423 C1420 1.403 . S
C1423 C1424 1.524 . S
C1423 C1427 1.400 . S
C1424 H1409 0.960 . S
C1424 H1410 0.960 . S
C1424 H1411 0.960 . S
C1424 C1423 1.524 . S
C1425 C1422 1.403 1_554 S
C1425 C1426 1.392 . S
C1425 C1429 1.495 . S
C1426 C1425 1.392 . S
C1426 C1427 1.385 1_554 S
C1426 C1428 1.478 . S
C1427 H1421 0.930 . S
C1427 C1423 1.400 . S
C1427 C1426 1.385 1_556 S
C1428 C1426 1.478 . S
C1428 C1430 1.381 . S
C1428 C1434 1.383 . S
C1429 C1425 1.495 . S
C1429 H1435 0.959 . S
C1429 H1436 0.961 . S
C1429 H1437 0.960 . S
C1430 C1428 1.381 . S
C1430 C1431 1.394 . S
C1430 H1438 0.930 . S
C1431 C1430 1.394 . S
C1431 C1432 1.383 1_455 S
C1431 H1439 0.929 . S
C1432 C1431 1.383 1_655 S
C1432 C1433 1.377 . S
C1433 H1417 0.930 . S
C1433 C1432 1.377 . S
C1433 C1434 1.379 1_655 S
C1434 H1418 0.931 1_554 S
C1434 C1428 1.383 . S
C1434 C1433 1.379 1_455 S
H1435 C1429 0.959 . S
H1436 C1429 0.961 . S
H1437 C1429 0.960 . S
H1438 C1430 0.930 . S
H1439 C1431 0.929 . S
H1440 C1448 0.929 . S
H1441 C1450 0.930 . S
H1442 C1452 0.930 . S
H1443 C1455 0.929 . S
H1444 C1458 0.930 . S
H1445 C1460 0.960 . S
H1446 C1460 0.960 . S
H1447 C1460 0.960 . S
C1448 H1440 0.929 . S
C1448 C1449 1.377 . S
C1448 C1450 1.384 . S
C1449 C1448 1.377 . S
C1449 C1455 1.390 . S
C1450 H1441 0.930 . S
C1450 C1448 1.384 . S
C1450 C1451 1.372 . S
C1451 C1450 1.372 . S
C1451 C1452 1.400 . S
C1451 C1456 1.490 . S
C1452 H1442 0.930 . S
C1452 C1451 1.400 . S
C1452 C1455 1.386 . S
H1453 C1469 0.930 . S
H1454 C1470 0.931 . S
C1455 H1443 0.929 . S
C1455 C1449 1.390 . S
C1455 C1452 1.386 . S
C1456 C1451 1.490 . S
C1456 C1458 1.395 . S
C1456 C1459 1.403 1_556 S
H1457 C1463 0.930 . S
C1458 H1444 0.930 . S
C1458 C1456 1.395 . S
C1458 C1461 1.403 . S
C1459 C1456 1.403 1_554 S
C1459 C1460 1.524 . S
C1459 C1463 1.400 . S
C1460 H1445 0.960 . S
C1460 H1446 0.960 . S
C1460 H1447 0.960 . S
C1460 C1459 1.524 . S
C1461 C1458 1.403 . S
C1461 C1462 1.375 1_556 S
C1461 C1465 1.495 . S
C1462 C1461 1.375 1_554 S
C1462 C1463 1.395 . S
C1462 C1464 1.486 . S
C1463 H1457 0.930 . S
C1463 C1459 1.400 . S
C1463 C1462 1.395 . S
C1464 C1462 1.486 . S
C1464 C1466 1.381 . S
C1464 C1470 1.383 . S
C1465 C1461 1.495 . S
C1465 H1471 0.959 . S
C1465 H1472 0.961 . S
C1465 H1473 0.960 . S
C1466 C1464 1.381 . S
C1466 C1467 1.394 . S
C1466 H1474 0.930 1_554 S
C1467 C1466 1.394 . S
C1467 C1468 1.383 . S
C1467 H1475 0.929 . S
C1468 C1467 1.383 . S
C1468 C1469 1.377 . S
C1469 H1453 0.930 . S
C1469 C1468 1.377 . S
C1469 C1470 1.379 . S
C1470 H1454 0.931 . S
C1470 C1464 1.383 . S
C1470 C1469 1.379 . S
H1471 C1465 0.959 . S
H1472 C1465 0.961 . S
H1473 C1465 0.960 . S
H1474 C1466 0.930 1_556 S
H1475 C1467 0.929 . S
H1476 C1484 0.929 . S
H1477 C1486 0.930 . S
H1478 C1488 0.930 . S
H1479 C1491 0.929 . S
H1480 C1494 0.930 . S
H1481 C1496 0.960 . S
H1482 C1496 0.960 . S
H1483 C1496 0.960 . S
C1484 H1476 0.929 . S
C1484 C1485 1.377 . S
C1484 C1486 1.384 . S
C1485 C1484 1.377 . S
C1485 C1491 1.390 . S
C1486 H1477 0.930 . S
C1486 C1484 1.384 . S
C1486 C1487 1.372 . S
C1487 C1486 1.372 . S
C1487 C1488 1.400 . S
C1487 C1492 1.490 . S
C1488 H1478 0.930 . S
C1488 C1487 1.400 . S
C1488 C1491 1.386 . S
H1489 C1505 0.930 . S
H1490 C1506 0.931 . S
C1491 H1479 0.929 . S
C1491 C1485 1.390 . S
C1491 C1488 1.386 . S
C1492 C1487 1.490 . S
C1492 C1494 1.395 . S
C1492 C1495 1.403 . S
H1493 C1499 0.930 . S
C1494 H1480 0.930 . S
C1494 C1492 1.395 . S
C1494 C1497 1.403 . S
C1495 C1492 1.403 . S
C1495 C1496 1.524 . S
C1495 C1499 1.400 . S
C1496 H1481 0.960 . S
C1496 H1482 0.960 . S
C1496 H1483 0.960 . S
C1496 C1495 1.524 . S
C1497 C1494 1.403 . S
C1497 C1498 1.392 . S
C1497 C1501 1.495 . S
C1498 C1497 1.392 . S
C1498 C1499 1.385 . S
C1498 C1500 1.478 . S
C1499 H1493 0.930 . S
C1499 C1495 1.400 . S
C1499 C1498 1.385 . S
C1500 C1498 1.478 . S
C1500 C1502 1.381 . S
C1500 C1506 1.383 . S
C1501 C1497 1.495 . S
C1501 H1507 0.959 . S
C1501 H1508 0.961 . S
C1501 H1509 0.960 . S
C1502 C1500 1.381 . S
C1502 C1503 1.394 . S
C1502 H1510 0.930 . S
C1503 C1502 1.394 . S
C1503 C1504 1.383 1_655 S
C1503 H1511 0.929 1_655 S
C1504 C1503 1.383 1_455 S
C1504 C1505 1.377 1_455 S
C1505 H1489 0.930 . S
C1505 C1504 1.377 1_655 S
C1505 C1506 1.379 . S
C1506 H1490 0.931 . S
C1506 C1500 1.383 . S
C1506 C1505 1.379 . S
H1507 C1501 0.959 . S
H1508 C1501 0.961 . S
H1509 C1501 0.960 . S
H1510 C1502 0.930 . S
H1511 C1503 0.929 1_455 S
H1512 C1520 0.929 . S
H1513 C1522 0.930 . S
H1514 C1524 0.930 . S
H1515 C1527 0.929 . S
H1516 C1530 0.930 . S
H1517 C1532 0.960 . S
H1518 C1532 0.960 . S
H1519 C1532 0.960 . S
C1520 H1512 0.929 . S
C1520 C1521 1.377 . S
C1520 C1522 1.384 . S
C1521 C1520 1.377 . S
C1521 C1527 1.390 . S
C1522 H1513 0.930 . S
C1522 C1520 1.384 . S
C1522 C1523 1.372 . S
C1523 C1522 1.372 . S
C1523 C1524 1.400 . S
C1523 C1528 1.490 . S
C1524 H1514 0.930 . S
C1524 C1523 1.400 . S
C1524 C1527 1.386 . S
H1525 C1541 0.930 . S
H1526 C1542 0.931 . S
C1527 H1515 0.929 . S
C1527 C1521 1.390 . S
C1527 C1524 1.386 . S
C1528 C1523 1.490 . S
C1528 C1530 1.395 . S
C1528 C1531 1.403 . S
H1529 C1535 0.930 . S
C1530 H1516 0.930 . S
C1530 C1528 1.395 . S
C1530 C1533 1.403 . S
C1531 C1528 1.403 . S
C1531 C1532 1.524 . S
C1531 C1535 1.400 . S
C1532 H1517 0.960 . S
C1532 H1518 0.960 . S
C1532 H1519 0.960 . S
C1532 C1531 1.524 . S
C1533 C1530 1.403 . S
C1533 C1534 1.392 . S
C1533 C1537 1.495 . S
C1534 C1533 1.392 . S
C1534 C1535 1.385 . S
C1534 C1536 1.478 . S
C1535 H1529 0.930 . S
C1535 C1531 1.400 . S
C1535 C1534 1.385 . S
C1536 C1534 1.478 . S
C1536 C1538 1.381 . S
C1536 C1542 1.383 . S
C1537 C1533 1.495 . S
C1537 H1543 0.959 . S
C1537 H1544 0.961 . S
C1537 H1545 0.960 . S
C1538 C1536 1.381 . S
C1538 C1539 1.394 . S
C1538 H1546 0.930 . S
C1539 C1538 1.394 . S
C1539 C1540 1.383 . S
C1539 H1547 0.929 . S
C1540 C1539 1.383 . S
C1540 C1541 1.377 . S
C1541 H1525 0.930 . S
C1541 C1540 1.377 . S
C1541 C1542 1.379 . S
C1542 H1526 0.931 . S
C1542 C1536 1.383 . S
C1542 C1541 1.379 . S
H1543 C1537 0.959 . S
H1544 C1537 0.961 . S
H1545 C1537 0.960 . S
H1546 C1538 0.930 . S
H1547 C1539 0.929 . S
H1548 C1556 0.929 . S
H1549 C1558 0.930 . S
H1550 C1560 0.930 . S
H1551 C1563 0.931 . S
H1552 C1566 0.930 . S
H1553 C1568 0.960 . S
H1554 C1568 0.960 . S
H1555 C1568 0.960 . S
C1556 H1548 0.929 . S
C1556 C1557 1.377 1_545 S
C1556 C1558 1.384 . S
C1557 C1556 1.377 1_565 S
C1557 C1563 1.393 . S
C1558 H1549 0.930 . S
C1558 C1556 1.384 . S
C1558 C1559 1.372 . S
C1559 C1558 1.372 . S
C1559 C1560 1.400 . S
C1559 C1564 1.490 . S
C1560 H1550 0.930 . S
C1560 C1559 1.400 . S
C1560 C1563 1.381 1_545 S
H1561 C1577 0.930 . S
H1562 C1578 0.931 . S
C1563 H1551 0.931 . S
C1563 C1557 1.393 . S
C1563 C1560 1.381 1_565 S
C1564 C1559 1.490 . S
C1564 C1566 1.395 . S
C1564 C1567 1.403 . S
H1565 C1571 0.930 . S
C1566 H1552 0.930 . S
C1566 C1564 1.395 . S
C1566 C1569 1.403 . S
C1567 C1564 1.403 . S
C1567 C1568 1.524 . S
C1567 C1571 1.400 . S
C1568 H1553 0.960 . S
C1568 H1554 0.960 . S
C1568 H1555 0.960 . S
C1568 C1567 1.524 . S
C1569 C1566 1.403 . S
C1569 C1570 1.392 . S
C1569 C1573 1.495 . S
C1570 C1569 1.392 . S
C1570 C1571 1.385 . S
C1570 C1572 1.478 . S
C1571 H1565 0.930 . S
C1571 C1567 1.400 . S
C1571 C1570 1.385 . S
C1572 C1570 1.478 . S
C1572 C1574 1.381 . S
C1572 C1578 1.383 . S
C1573 C1569 1.495 . S
C1573 H1579 0.959 . S
C1573 H1580 0.961 . S
C1573 H1581 0.960 . S
C1574 C1572 1.381 . S
C1574 C1575 1.394 . S
C1574 H1582 0.930 . S
C1575 C1574 1.394 . S
C1575 C1576 1.383 . S
C1575 H1583 0.929 . S
C1576 C1575 1.383 . S
C1576 C1577 1.377 . S
C1577 H1561 0.930 . S
C1577 C1576 1.377 . S
C1577 C1578 1.379 . S
C1578 H1562 0.931 . S
C1578 C1572 1.383 . S
C1578 C1577 1.379 . S
H1579 C1573 0.959 . S
H1580 C1573 0.961 . S
H1581 C1573 0.960 . S
H1582 C1574 0.930 . S
H1583 C1575 0.929 . S
H1584 C1592 0.929 . S
H1585 C1594 0.930 . S
H1586 C1596 0.930 . S
H1587 C1599 0.929 . S
H1588 C1602 0.930 . S
H1589 C1604 0.960 . S
H1590 C1604 0.960 . S
H1591 C1604 0.960 . S
C1592 H1584 0.929 . S
C1592 C1593 1.377 . S
C1592 C1594 1.384 . S
C1593 C1592 1.377 . S
C1593 C1599 1.390 . S
C1594 H1585 0.930 . S
C1594 C1592 1.384 . S
C1594 C1595 1.372 . S
C1595 C1594 1.372 . S
C1595 C1596 1.400 . S
C1595 C1600 1.490 . S
C1596 H1586 0.930 . S
C1596 C1595 1.400 . S
C1596 C1599 1.386 . S
H1597 C1613 0.930 . S
H1598 C1614 0.931 . S
C1599 H1587 0.929 . S
C1599 C1593 1.390 . S
C1599 C1596 1.386 . S
C1600 C1595 1.490 . S
C1600 C1602 1.395 . S
C1600 C1603 1.403 . S
H1601 C1607 0.930 . S
C1602 H1588 0.930 . S
C1602 C1600 1.395 . S
C1602 C1605 1.403 . S
C1603 C1600 1.403 . S
C1603 C1604 1.524 . S
C1603 C1607 1.400 . S
C1604 H1589 0.960 . S
C1604 H1590 0.960 . S
C1604 H1591 0.960 . S
C1604 C1603 1.524 . S
C1605 C1602 1.403 . S
C1605 C1606 1.392 . S
C1605 C1609 1.495 . S
C1606 C1605 1.392 . S
C1606 C1607 1.385 . S
C1606 C1608 1.478 . S
C1607 H1601 0.930 . S
C1607 C1603 1.400 . S
C1607 C1606 1.385 . S
C1608 C1606 1.478 . S
C1608 C1610 1.381 . S
C1608 C1614 1.383 . S
C1609 C1605 1.495 . S
C1609 H1615 0.959 . S
C1609 H1616 0.961 . S
C1609 H1617 0.960 . S
C1610 C1608 1.381 . S
C1610 C1611 1.394 . S
C1610 H1618 0.930 . S
C1611 C1610 1.394 . S
C1611 C1612 1.383 . S
C1611 H1619 0.929 . S
C1612 C1611 1.383 . S
C1612 C1613 1.377 . S
C1613 H1597 0.930 . S
C1613 C1612 1.377 . S
C1613 C1614 1.379 . S
C1614 H1598 0.931 . S
C1614 C1608 1.383 . S
C1614 C1613 1.379 . S
H1615 C1609 0.959 . S
H1616 C1609 0.961 . S
H1617 C1609 0.960 . S
H1618 C1610 0.930 . S
H1619 C1611 0.929 . S
H1620 C1628 0.929 . S
H1621 C1630 0.930 . S
H1622 C1632 0.930 . S
H1623 C1635 0.929 . S
H1624 C1638 0.930 . S
H1625 C1640 0.960 . S
H1626 C1640 0.960 . S
H1627 C1640 0.960 . S
C1628 H1620 0.929 . S
C1628 C1629 1.377 . S
C1628 C1630 1.384 . S
C1629 C1628 1.377 . S
C1629 C1635 1.390 . S
C1630 H1621 0.930 . S
C1630 C1628 1.384 . S
C1630 C1631 1.372 . S
C1631 C1630 1.372 . S
C1631 C1632 1.400 . S
C1631 C1636 1.490 . S
C1632 H1622 0.930 . S
C1632 C1631 1.400 . S
C1632 C1635 1.386 . S
H1633 C1649 0.930 . S
H1634 C1650 0.931 . S
C1635 H1623 0.929 . S
C1635 C1629 1.390 . S
C1635 C1632 1.386 . S
C1636 C1631 1.490 . S
C1636 C1638 1.395 . S
C1636 C1639 1.403 . S
H1637 C1643 0.930 . S
C1638 H1624 0.930 . S
C1638 C1636 1.395 . S
C1638 C1641 1.403 . S
C1639 C1636 1.403 . S
C1639 C1640 1.524 . S
C1639 C1643 1.400 . S
C1640 H1625 0.960 . S
C1640 H1626 0.960 . S
C1640 H1627 0.960 . S
C1640 C1639 1.524 . S
C1641 C1638 1.403 . S
C1641 C1642 1.392 . S
C1641 C1645 1.495 . S
C1642 C1641 1.392 . S
C1642 C1643 1.385 . S
C1642 C1644 1.478 . S
C1643 H1637 0.930 . S
C1643 C1639 1.400 . S
C1643 C1642 1.385 . S
C1644 C1642 1.478 . S
C1644 C1646 1.381 . S
C1644 C1650 1.383 . S
C1645 C1641 1.495 . S
C1645 H1651 0.959 . S
C1645 H1652 0.961 . S
C1645 H1653 0.960 . S
C1646 C1644 1.381 . S
C1646 C1647 1.394 . S
C1646 H1654 0.930 . S
C1647 C1646 1.394 . S
C1647 C1648 1.383 . S
C1647 H1655 0.929 . S
C1648 C1647 1.383 . S
C1648 C1649 1.377 . S
C1649 H1633 0.930 . S
C1649 C1648 1.377 . S
C1649 C1650 1.379 . S
C1650 H1634 0.931 . S
C1650 C1644 1.383 . S
C1650 C1649 1.379 . S
H1651 C1645 0.959 . S
H1652 C1645 0.961 . S
H1653 C1645 0.960 . S
H1654 C1646 0.930 . S
H1655 C1647 0.929 . S
H1656 C1664 0.929 . S
H1657 C1666 0.930 . S
H1658 C1668 0.930 . S
H1659 C1671 0.929 . S
H1660 C1674 0.930 . S
H1661 C1676 0.960 . S
H1662 C1676 0.960 . S
H1663 C1676 0.960 . S
C1664 H1656 0.929 . S
C1664 C1665 1.377 . S
C1664 C1666 1.384 . S
C1665 C1664 1.377 . S
C1665 C1671 1.390 . S
C1666 H1657 0.930 . S
C1666 C1664 1.384 . S
C1666 C1667 1.372 . S
C1667 C1666 1.372 . S
C1667 C1668 1.400 . S
C1667 C1672 1.490 . S
C1668 H1658 0.930 . S
C1668 C1667 1.400 . S
C1668 C1671 1.386 . S
H1669 C1685 0.930 . S
H1670 C1686 0.931 . S
C1671 H1659 0.929 . S
C1671 C1665 1.390 . S
C1671 C1668 1.386 . S
C1672 C1667 1.490 . S
C1672 C1674 1.395 . S
C1672 C1675 1.403 . S
H1673 C1679 0.930 . S
C1674 H1660 0.930 . S
C1674 C1672 1.395 . S
C1674 C1677 1.403 . S
C1675 C1672 1.403 . S
C1675 C1676 1.524 . S
C1675 C1679 1.400 . S
C1676 H1661 0.960 . S
C1676 H1662 0.960 . S
C1676 H1663 0.960 . S
C1676 C1675 1.524 . S
C1677 C1674 1.403 . S
C1677 C1678 1.392 . S
C1677 C1681 1.495 . S
C1678 C1677 1.392 . S
C1678 C1679 1.385 . S
C1678 C1680 1.478 . S
C1679 H1673 0.930 . S
C1679 C1675 1.400 . S
C1679 C1678 1.385 . S
C1680 C1678 1.478 . S
C1680 C1682 1.381 . S
C1680 C1686 1.383 . S
C1681 C1677 1.495 . S
C1681 H1687 0.959 . S
C1681 H1688 0.961 . S
C1681 H1689 0.960 . S
C1682 C1680 1.381 . S
C1682 C1683 1.394 . S
C1682 H1690 0.930 . S
C1683 C1682 1.394 . S
C1683 C1684 1.383 . S
C1683 H1691 0.929 . S
C1684 C1683 1.383 . S
C1684 C1685 1.377 . S
C1685 H1669 0.930 . S
C1685 C1684 1.377 . S
C1685 C1686 1.379 . S
C1686 H1670 0.931 . S
C1686 C1680 1.383 . S
C1686 C1685 1.379 . S
H1687 C1681 0.959 . S
H1688 C1681 0.961 . S
H1689 C1681 0.960 . S
H1690 C1682 0.930 . S
H1691 C1683 0.929 . S
H1692 C1700 0.929 . S
H1693 C1702 0.930 . S
H1694 C1704 0.930 . S
H1695 C1707 0.929 . S
H1696 C1710 0.930 . S
H1697 C1712 0.960 . S
H1698 C1712 0.960 . S
H1699 C1712 0.960 . S
C1700 H1692 0.929 . S
C1700 C1701 1.377 . S
C1700 C1702 1.384 . S
C1701 C1700 1.377 . S
C1701 C1707 1.390 . S
C1702 H1693 0.930 . S
C1702 C1700 1.384 . S
C1702 C1703 1.372 . S
C1703 C1702 1.372 . S
C1703 C1704 1.400 . S
C1703 C1708 1.490 . S
C1704 H1694 0.930 . S
C1704 C1703 1.400 . S
C1704 C1707 1.386 . S
H1705 C1721 0.930 . S
H1706 C1722 0.931 . S
C1707 H1695 0.929 . S
C1707 C1701 1.390 . S
C1707 C1704 1.386 . S
C1708 C1703 1.490 . S
C1708 C1710 1.395 . S
C1708 C1711 1.403 . S
H1709 C1715 0.930 . S
C1710 H1696 0.930 . S
C1710 C1708 1.395 . S
C1710 C1713 1.403 . S
C1711 C1708 1.403 . S
C1711 C1712 1.524 . S
C1711 C1715 1.400 . S
C1712 H1697 0.960 . S
C1712 H1698 0.960 . S
C1712 H1699 0.960 . S
C1712 C1711 1.524 . S
C1713 C1710 1.403 . S
C1713 C1714 1.392 . S
C1713 C1717 1.495 . S
C1714 C1713 1.392 . S
C1714 C1715 1.385 . S
C1714 C1716 1.478 . S
C1715 H1709 0.930 . S
C1715 C1711 1.400 . S
C1715 C1714 1.385 . S
C1716 C1714 1.478 . S
C1716 C1718 1.381 . S
C1716 C1722 1.383 . S
C1717 C1713 1.495 . S
C1717 H1723 0.959 . S
C1717 H1724 0.961 . S
C1717 H1725 0.960 . S
C1718 C1716 1.381 . S
C1718 C1719 1.394 . S
C1718 H1726 0.930 . S
C1719 C1718 1.394 . S
C1719 C1720 1.383 . S
C1719 H1727 0.929 . S
C1720 C1719 1.383 . S
C1720 C1721 1.377 . S
C1721 H1705 0.930 . S
C1721 C1720 1.377 . S
C1721 C1722 1.379 . S
C1722 H1706 0.931 . S
C1722 C1716 1.383 . S
C1722 C1721 1.379 . S
H1723 C1717 0.959 . S
H1724 C1717 0.961 . S
H1725 C1717 0.960 . S
H1726 C1718 0.930 . S
H1727 C1719 0.929 . S
H1728 C1736 0.929 . S
H1729 C1738 0.930 . S
H1730 C1740 0.930 . S
H1731 C1743 0.929 . S
H1732 C1746 0.930 . S
H1733 C1748 0.960 . S
H1734 C1748 0.960 . S
H1735 C1748 0.960 . S
C1736 H1728 0.929 . S
C1736 C1737 1.377 . S
C1736 C1738 1.384 . S
C1737 C1736 1.377 . S
C1737 C1743 1.390 . S
C1738 H1729 0.930 . S
C1738 C1736 1.384 . S
C1738 C1739 1.372 . S
C1739 C1738 1.372 . S
C1739 C1740 1.400 . S
C1739 C1744 1.490 . S
C1740 H1730 0.930 . S
C1740 C1739 1.400 . S
C1740 C1743 1.386 . S
H1741 C1757 0.930 . S
H1742 C1758 0.931 . S
C1743 H1731 0.929 . S
C1743 C1737 1.390 . S
C1743 C1740 1.386 . S
C1744 C1739 1.490 . S
C1744 C1746 1.395 . S
C1744 C1747 1.403 . S
H1745 C1751 0.930 . S
C1746 H1732 0.930 . S
C1746 C1744 1.395 . S
C1746 C1749 1.403 . S
C1747 C1744 1.403 . S
C1747 C1748 1.524 . S
C1747 C1751 1.400 . S
C1748 H1733 0.960 . S
C1748 H1734 0.960 . S
C1748 H1735 0.960 . S
C1748 C1747 1.524 . S
C1749 C1746 1.403 . S
C1749 C1750 1.392 . S
C1749 C1753 1.495 . S
C1750 C1749 1.392 . S
C1750 C1751 1.385 . S
C1750 C1752 1.478 . S
C1751 H1745 0.930 . S
C1751 C1747 1.400 . S
C1751 C1750 1.385 . S
C1752 C1750 1.478 . S
C1752 C1754 1.381 . S
C1752 C1758 1.383 . S
C1753 C1749 1.495 . S
C1753 H1759 0.959 . S
C1753 H1760 0.961 . S
C1753 H1761 0.960 . S
C1754 C1752 1.381 . S
C1754 C1755 1.394 . S
C1754 H1762 0.930 . S
C1755 C1754 1.394 . S
C1755 C1756 1.383 . S
C1755 H1763 0.929 . S
C1756 C1755 1.383 . S
C1756 C1757 1.377 . S
C1757 H1741 0.930 . S
C1757 C1756 1.377 . S
C1757 C1758 1.379 . S
C1758 H1742 0.931 . S
C1758 C1752 1.383 . S
C1758 C1757 1.379 . S
H1759 C1753 0.959 . S
H1760 C1753 0.961 . S
H1761 C1753 0.960 . S
H1762 C1754 0.930 . S
H1763 C1755 0.929 . S
H1764 C1772 0.929 . S
H1765 C1774 0.930 . S
H1766 C1776 0.930 . S
H1767 C1779 0.929 . S
H1768 C1782 0.930 . S
H1769 C1784 0.960 . S
H1770 C1784 0.960 . S
H1771 C1784 0.960 . S
C1772 H1764 0.929 . S
C1772 C1773 1.377 . S
C1772 C1774 1.384 . S
C1773 C1772 1.377 . S
C1773 C1779 1.390 . S
C1774 H1765 0.930 . S
C1774 C1772 1.384 . S
C1774 C1775 1.372 . S
C1775 C1774 1.372 . S
C1775 C1776 1.400 . S
C1775 C1780 1.490 . S
C1776 H1766 0.930 . S
C1776 C1775 1.400 . S
C1776 C1779 1.386 . S
H1777 C1793 0.930 . S
H1778 C1794 0.931 . S
C1779 H1767 0.929 . S
C1779 C1773 1.390 . S
C1779 C1776 1.386 . S
C1780 C1775 1.490 . S
C1780 C1782 1.395 . S
C1780 C1783 1.403 . S
H1781 C1787 0.930 . S
C1782 H1768 0.930 . S
C1782 C1780 1.395 . S
C1782 C1785 1.403 . S
C1783 C1780 1.403 . S
C1783 C1784 1.524 . S
C1783 C1787 1.400 . S
C1784 H1769 0.960 . S
C1784 H1770 0.960 . S
C1784 H1771 0.960 . S
C1784 C1783 1.524 . S
C1785 C1782 1.403 . S
C1785 C1786 1.392 . S
C1785 C1789 1.495 . S
C1786 C1785 1.392 . S
C1786 C1787 1.385 . S
C1786 C1788 1.478 . S
C1787 H1781 0.930 . S
C1787 C1783 1.400 . S
C1787 C1786 1.385 . S
C1788 C1786 1.478 . S
C1788 C1790 1.381 . S
C1788 C1794 1.383 . S
C1789 C1785 1.495 . S
C1789 H1795 0.959 . S
C1789 H1796 0.961 . S
C1789 H1797 0.960 . S
C1790 C1788 1.381 . S
C1790 C1791 1.394 . S
C1790 H1798 0.930 . S
C1791 C1790 1.394 . S
C1791 C1792 1.383 . S
C1791 H1799 0.929 . S
C1792 C1791 1.383 . S
C1792 C1793 1.377 . S
C1793 H1777 0.930 . S
C1793 C1792 1.377 . S
C1793 C1794 1.379 . S
C1794 H1778 0.931 . S
C1794 C1788 1.383 . S
C1794 C1793 1.379 . S
H1795 C1789 0.959 . S
H1796 C1789 0.961 . S
H1797 C1789 0.960 . S
H1798 C1790 0.930 . S
H1799 C1791 0.929 . S
H1800 C1808 0.929 . S
H1801 C1810 0.930 . S
H1802 C1812 0.930 . S
H1803 C1815 0.929 . S
H1804 C1818 0.930 . S
H1805 C1820 0.960 . S
H1806 C1820 0.960 . S
H1807 C1820 0.960 . S
C1808 H1800 0.929 . S
C1808 C1809 1.377 . S
C1808 C1810 1.384 . S
C1809 C1808 1.377 . S
C1809 C1815 1.390 . S
C1810 H1801 0.930 . S
C1810 C1808 1.384 . S
C1810 C1811 1.372 . S
C1811 C1810 1.372 . S
C1811 C1812 1.400 . S
C1811 C1816 1.490 . S
C1812 H1802 0.930 . S
C1812 C1811 1.400 . S
C1812 C1815 1.386 . S
H1813 C1829 0.930 . S
H1814 C1830 0.931 . S
C1815 H1803 0.929 . S
C1815 C1809 1.390 . S
C1815 C1812 1.386 . S
C1816 C1811 1.490 . S
C1816 C1818 1.395 . S
C1816 C1819 1.403 . S
H1817 C1823 0.930 . S
C1818 H1804 0.930 . S
C1818 C1816 1.395 . S
C1818 C1821 1.403 . S
C1819 C1816 1.403 . S
C1819 C1820 1.524 . S
C1819 C1823 1.400 . S
C1820 H1805 0.960 . S
C1820 H1806 0.960 . S
C1820 H1807 0.960 . S
C1820 C1819 1.524 . S
C1821 C1818 1.403 . S
C1821 C1822 1.392 . S
C1821 C1825 1.495 . S
C1822 C1821 1.392 . S
C1822 C1823 1.385 . S
C1822 C1824 1.478 . S
C1823 H1817 0.930 . S
C1823 C1819 1.400 . S
C1823 C1822 1.385 . S
C1824 C1822 1.478 . S
C1824 C1826 1.381 . S
C1824 C1830 1.383 . S
C1825 C1821 1.495 . S
C1825 H1831 0.959 . S
C1825 H1832 0.961 . S
C1825 H1833 0.960 . S
C1826 C1824 1.381 . S
C1826 C1827 1.394 . S
C1826 H1834 0.930 . S
C1827 C1826 1.394 . S
C1827 C1828 1.383 . S
C1827 H1835 0.929 . S
C1828 C1827 1.383 . S
C1828 C1829 1.377 . S
C1829 H1813 0.930 . S
C1829 C1828 1.377 . S
C1829 C1830 1.379 . S
C1830 H1814 0.931 . S
C1830 C1824 1.383 . S
C1830 C1829 1.379 . S
H1831 C1825 0.959 . S
H1832 C1825 0.961 . S
H1833 C1825 0.960 . S
H1834 C1826 0.930 . S
H1835 C1827 0.929 . S
H1836 C1844 0.929 . S
H1837 C1846 0.930 . S
H1838 C1848 0.930 . S
H1839 C1851 0.929 . S
H1840 C1854 0.930 . S
H1841 C1856 0.960 . S
H1842 C1856 0.960 . S
H1843 C1856 0.960 . S
C1844 H1836 0.929 . S
C1844 C1845 1.377 . S
C1844 C1846 1.384 . S
C1845 C1844 1.377 . S
C1845 C1851 1.390 . S
C1846 H1837 0.930 . S
C1846 C1844 1.384 . S
C1846 C1847 1.372 . S
C1847 C1846 1.372 . S
C1847 C1848 1.400 . S
C1847 C1852 1.490 . S
C1848 H1838 0.930 . S
C1848 C1847 1.400 . S
C1848 C1851 1.386 . S
H1849 C1865 0.930 . S
H1850 C1866 0.931 . S
C1851 H1839 0.929 . S
C1851 C1845 1.390 . S
C1851 C1848 1.386 . S
C1852 C1847 1.490 . S
C1852 C1854 1.395 . S
C1852 C1855 1.403 . S
H1853 C1859 0.930 . S
C1854 H1840 0.930 . S
C1854 C1852 1.395 . S
C1854 C1857 1.403 . S
C1855 C1852 1.403 . S
C1855 C1856 1.524 . S
C1855 C1859 1.400 . S
C1856 H1841 0.960 . S
C1856 H1842 0.960 . S
C1856 H1843 0.960 . S
C1856 C1855 1.524 . S
C1857 C1854 1.403 . S
C1857 C1858 1.392 . S
C1857 C1861 1.495 . S
C1858 C1857 1.392 . S
C1858 C1859 1.385 . S
C1858 C1860 1.478 . S
C1859 H1853 0.930 . S
C1859 C1855 1.400 . S
C1859 C1858 1.385 . S
C1860 C1858 1.478 . S
C1860 C1862 1.381 . S
C1860 C1866 1.383 . S
C1861 C1857 1.495 . S
C1861 H1867 0.959 . S
C1861 H1868 0.961 . S
C1861 H1869 0.960 . S
C1862 C1860 1.381 . S
C1862 C1863 1.394 . S
C1862 H1870 0.930 . S
C1863 C1862 1.394 . S
C1863 C1864 1.383 . S
C1863 H1871 0.929 . S
C1864 C1863 1.383 . S
C1864 C1865 1.377 . S
C1865 H1849 0.930 . S
C1865 C1864 1.377 . S
C1865 C1866 1.379 . S
C1866 H1850 0.931 . S
C1866 C1860 1.383 . S
C1866 C1865 1.379 . S
H1867 C1861 0.959 . S
H1868 C1861 0.961 . S
H1869 C1861 0.960 . S
H1870 C1862 0.930 . S
H1871 C1863 0.929 . S
H1872 C1880 0.929 . S
H1873 C1882 0.930 . S
H1874 C1884 0.930 . S
H1875 C1887 0.929 . S
H1876 C1890 0.930 . S
H1877 C1892 0.960 . S
H1878 C1892 0.960 . S
H1879 C1892 0.960 . S
C1880 H1872 0.929 . S
C1880 C1881 1.377 . S
C1880 C1882 1.384 . S
C1881 C1880 1.377 . S
C1881 C1887 1.390 . S
C1882 H1873 0.930 . S
C1882 C1880 1.384 . S
C1882 C1883 1.372 . S
C1883 C1882 1.372 . S
C1883 C1884 1.400 . S
C1883 C1888 1.490 . S
C1884 H1874 0.930 . S
C1884 C1883 1.400 . S
C1884 C1887 1.386 . S
H1885 C1901 0.930 . S
H1886 C1902 0.931 . S
C1887 H1875 0.929 . S
C1887 C1881 1.390 . S
C1887 C1884 1.386 . S
C1888 C1883 1.490 . S
C1888 C1890 1.395 . S
C1888 C1891 1.403 . S
H1889 C1895 0.930 . S
C1890 H1876 0.930 . S
C1890 C1888 1.395 . S
C1890 C1893 1.403 . S
C1891 C1888 1.403 . S
C1891 C1892 1.524 . S
C1891 C1895 1.400 . S
C1892 H1877 0.960 . S
C1892 H1878 0.960 . S
C1892 H1879 0.960 . S
C1892 C1891 1.524 . S
C1893 C1890 1.403 . S
C1893 C1894 1.392 . S
C1893 C1897 1.495 . S
C1894 C1893 1.392 . S
C1894 C1895 1.385 . S
C1894 C1896 1.478 . S
C1895 H1889 0.930 . S
C1895 C1891 1.400 . S
C1895 C1894 1.385 . S
C1896 C1894 1.478 . S
C1896 C1898 1.381 . S
C1896 C1902 1.383 . S
C1897 C1893 1.495 . S
C1897 H1903 0.959 . S
C1897 H1904 0.961 . S
C1897 H1905 0.960 . S
C1898 C1896 1.381 . S
C1898 C1899 1.394 . S
C1898 H1906 0.930 . S
C1899 C1898 1.394 . S
C1899 C1900 1.383 . S
C1899 H1907 0.929 . S
C1900 C1899 1.383 . S
C1900 C1901 1.377 . S
C1901 H1885 0.930 . S
C1901 C1900 1.377 . S
C1901 C1902 1.379 . S
C1902 H1886 0.931 . S
C1902 C1896 1.383 . S
C1902 C1901 1.379 . S
H1903 C1897 0.959 . S
H1904 C1897 0.961 . S
H1905 C1897 0.960 . S
H1906 C1898 0.930 . S
H1907 C1899 0.929 . S
H1908 C1916 0.929 . S
H1909 C1918 0.930 . S
H1910 C1920 0.930 . S
H1911 C1923 0.929 . S
H1912 C1926 0.930 . S
H1913 C1928 0.960 . S
H1914 C1928 0.960 . S
H1915 C1928 0.960 . S
C1916 H1908 0.929 . S
C1916 C1917 1.377 . S
C1916 C1918 1.384 . S
C1917 C1916 1.377 . S
C1917 C1923 1.390 . S
C1918 H1909 0.930 . S
C1918 C1916 1.384 . S
C1918 C1919 1.372 . S
C1919 C1918 1.372 . S
C1919 C1920 1.400 . S
C1919 C1924 1.490 . S
C1920 H1910 0.930 . S
C1920 C1919 1.400 . S
C1920 C1923 1.386 . S
H1921 C1937 0.930 . S
H1922 C1938 0.931 . S
C1923 H1911 0.929 . S
C1923 C1917 1.390 . S
C1923 C1920 1.386 . S
C1924 C1919 1.490 . S
C1924 C1926 1.395 . S
C1924 C1927 1.403 . S
H1925 C1931 0.930 . S
C1926 H1912 0.930 . S
C1926 C1924 1.395 . S
C1926 C1929 1.403 . S
C1927 C1924 1.403 . S
C1927 C1928 1.524 . S
C1927 C1931 1.400 . S
C1928 H1913 0.960 . S
C1928 H1914 0.960 . S
C1928 H1915 0.960 . S
C1928 C1927 1.524 . S
C1929 C1926 1.403 . S
C1929 C1930 1.392 . S
C1929 C1933 1.495 . S
C1930 C1929 1.392 . S
C1930 C1931 1.385 . S
C1930 C1932 1.478 . S
C1931 H1925 0.930 . S
C1931 C1927 1.400 . S
C1931 C1930 1.385 . S
C1932 C1930 1.478 . S
C1932 C1934 1.381 . S
C1932 C1938 1.383 . S
C1933 C1929 1.495 . S
C1933 H1939 0.959 . S
C1933 H1940 0.961 . S
C1933 H1941 0.960 . S
C1934 C1932 1.381 . S
C1934 C1935 1.394 . S
C1934 H1942 0.930 . S
C1935 C1934 1.394 . S
C1935 C1936 1.383 . S
C1935 H1943 0.929 . S
C1936 C1935 1.383 . S
C1936 C1937 1.377 . S
C1937 H1921 0.930 . S
C1937 C1936 1.377 . S
C1937 C1938 1.379 . S
C1938 H1922 0.931 . S
C1938 C1932 1.383 . S
C1938 C1937 1.379 . S
H1939 C1933 0.959 . S
H1940 C1933 0.961 . S
H1941 C1933 0.960 . S
H1942 C1934 0.930 . S
H1943 C1935 0.929 . S
H1944 C1952 0.929 . S
H1945 C1954 0.930 . S
H1946 C1956 0.930 . S
H1947 C1959 0.929 . S
H1948 C1962 0.930 . S
H1949 C1964 0.960 . S
H1950 C1964 0.960 . S
H1951 C1964 0.960 . S
C1952 H1944 0.929 . S
C1952 C1953 1.377 . S
C1952 C1954 1.384 . S
C1953 C1952 1.377 . S
C1953 C1959 1.390 . S
C1954 H1945 0.930 . S
C1954 C1952 1.384 . S
C1954 C1955 1.372 . S
C1955 C1954 1.372 . S
C1955 C1956 1.400 . S
C1955 C1960 1.490 . S
C1956 H1946 0.930 . S
C1956 C1955 1.400 . S
C1956 C1959 1.386 . S
H1957 C1973 0.930 . S
H1958 C1974 0.931 . S
C1959 H1947 0.929 . S
C1959 C1953 1.390 . S
C1959 C1956 1.386 . S
C1960 C1955 1.490 . S
C1960 C1962 1.395 . S
C1960 C1963 1.403 . S
H1961 C1967 0.930 . S
C1962 H1948 0.930 . S
C1962 C1960 1.395 . S
C1962 C1965 1.403 . S
C1963 C1960 1.403 . S
C1963 C1964 1.524 . S
C1963 C1967 1.400 . S
C1964 H1949 0.960 . S
C1964 H1950 0.960 . S
C1964 H1951 0.960 . S
C1964 C1963 1.524 . S
C1965 C1962 1.403 . S
C1965 C1966 1.392 . S
C1965 C1969 1.495 . S
C1966 C1965 1.392 . S
C1966 C1967 1.385 . S
C1966 C1968 1.478 . S
C1967 H1961 0.930 . S
C1967 C1963 1.400 . S
C1967 C1966 1.385 . S
C1968 C1966 1.478 . S
C1968 C1970 1.381 . S
C1968 C1974 1.383 . S
C1969 C1965 1.495 . S
C1969 H1975 0.959 . S
C1969 H1976 0.961 . S
C1969 H1977 0.960 . S
C1970 C1968 1.381 . S
C1970 C1971 1.394 . S
C1970 H1978 0.930 . S
C1971 C1970 1.394 . S
C1971 C1972 1.383 . S
C1971 H1979 0.929 . S
C1972 C1971 1.383 . S
C1972 C1973 1.377 . S
C1973 H1957 0.930 . S
C1973 C1972 1.377 . S
C1973 C1974 1.379 . S
C1974 H1958 0.931 . S
C1974 C1968 1.383 . S
C1974 C1973 1.379 . S
H1975 C1969 0.959 . S
H1976 C1969 0.961 . S
H1977 C1969 0.960 . S
H1978 C1970 0.930 . S
H1979 C1971 0.929 . S
H1980 C1988 0.929 . S
H1981 C1990 0.930 . S
H1982 C1992 0.930 . S
H1983 C1995 0.929 . S
H1984 C1998 0.930 . S
H1985 C2000 0.960 . S
H1986 C2000 0.960 . S
H1987 C2000 0.960 . S
C1988 H1980 0.929 . S
C1988 C1989 1.377 . S
C1988 C1990 1.384 . S
C1989 C1988 1.377 . S
C1989 C1995 1.390 . S
C1990 H1981 0.930 . S
C1990 C1988 1.384 . S
C1990 C1991 1.372 . S
C1991 C1990 1.372 . S
C1991 C1992 1.400 . S
C1991 C1996 1.490 . S
C1992 H1982 0.930 . S
C1992 C1991 1.400 . S
C1992 C1995 1.386 . S
H1993 C2009 0.930 . S
H1994 C2010 0.931 . S
C1995 H1983 0.929 . S
C1995 C1989 1.390 . S
C1995 C1992 1.386 . S
C1996 C1991 1.490 . S
C1996 C1998 1.395 . S
C1996 C1999 1.403 . S
H1997 C2003 0.930 . S
C1998 H1984 0.930 . S
C1998 C1996 1.395 . S
C1998 C2001 1.403 . S
C1999 C1996 1.403 . S
C1999 C2000 1.524 . S
C1999 C2003 1.400 . S
C2000 H1985 0.960 . S
C2000 H1986 0.960 . S
C2000 H1987 0.960 . S
C2000 C1999 1.524 . S
C2001 C1998 1.403 . S
C2001 C2002 1.392 . S
C2001 C2005 1.495 . S
C2002 C2001 1.392 . S
C2002 C2003 1.385 . S
C2002 C2004 1.478 . S
C2003 H1997 0.930 . S
C2003 C1999 1.400 . S
C2003 C2002 1.385 . S
C2004 C2002 1.478 . S
C2004 C2006 1.381 . S
C2004 C2010 1.383 . S
C2005 C2001 1.495 . S
C2005 H2011 0.959 . S
C2005 H2012 0.961 . S
C2005 H2013 0.960 . S
C2006 C2004 1.381 . S
C2006 C2007 1.394 . S
C2006 H2014 0.930 . S
C2007 C2006 1.394 . S
C2007 C2008 1.383 . S
C2007 H2015 0.929 . S
C2008 C2007 1.383 . S
C2008 C2009 1.377 . S
C2009 H1993 0.930 . S
C2009 C2008 1.377 . S
C2009 C2010 1.379 . S
C2010 H1994 0.931 . S
C2010 C2004 1.383 . S
C2010 C2009 1.379 . S
H2011 C2005 0.959 . S
H2012 C2005 0.961 . S
H2013 C2005 0.960 . S
H2014 C2006 0.930 . S
H2015 C2007 0.929 . S
H2016 C2024 0.929 . S
H2017 C2026 0.930 . S
H2018 C2028 0.930 . S
H2019 C2031 0.929 . S
H2020 C2034 0.930 . S
H2021 C2036 0.960 . S
H2022 C2036 0.960 . S
H2023 C2036 0.960 . S
C2024 H2016 0.929 . S
C2024 C2025 1.377 . S
C2024 C2026 1.384 . S
C2025 C2024 1.377 . S
C2025 C2031 1.390 . S
C2026 H2017 0.930 . S
C2026 C2024 1.384 . S
C2026 C2027 1.372 . S
C2027 C2026 1.372 . S
C2027 C2028 1.400 . S
C2027 C2032 1.490 . S
C2028 H2018 0.930 . S
C2028 C2027 1.400 . S
C2028 C2031 1.386 . S
H2029 C2045 0.930 . S
H2030 C2046 0.931 . S
C2031 H2019 0.929 . S
C2031 C2025 1.390 . S
C2031 C2028 1.386 . S
C2032 C2027 1.490 . S
C2032 C2034 1.395 . S
C2032 C2035 1.403 . S
H2033 C2039 0.930 . S
C2034 H2020 0.930 . S
C2034 C2032 1.395 . S
C2034 C2037 1.403 . S
C2035 C2032 1.403 . S
C2035 C2036 1.524 . S
C2035 C2039 1.400 . S
C2036 H2021 0.960 . S
C2036 H2022 0.960 . S
C2036 H2023 0.960 . S
C2036 C2035 1.524 . S
C2037 C2034 1.403 . S
C2037 C2038 1.392 . S
C2037 C2041 1.495 . S
C2038 C2037 1.392 . S
C2038 C2039 1.385 . S
C2038 C2040 1.478 . S
C2039 H2033 0.930 . S
C2039 C2035 1.400 . S
C2039 C2038 1.385 . S
C2040 C2038 1.478 . S
C2040 C2042 1.381 . S
C2040 C2046 1.383 . S
C2041 C2037 1.495 . S
C2041 H2047 0.959 . S
C2041 H2048 0.961 . S
C2041 H2049 0.960 . S
C2042 C2040 1.381 . S
C2042 C2043 1.394 . S
C2042 H2050 0.930 . S
C2043 C2042 1.394 . S
C2043 C2044 1.383 . S
C2043 H2051 0.929 . S
C2044 C2043 1.383 . S
C2044 C2045 1.377 . S
C2045 H2029 0.930 . S
C2045 C2044 1.377 . S
C2045 C2046 1.379 . S
C2046 H2030 0.931 . S
C2046 C2040 1.383 . S
C2046 C2045 1.379 . S
H2047 C2041 0.959 . S
H2048 C2041 0.961 . S
H2049 C2041 0.960 . S
H2050 C2042 0.930 . S
H2051 C2043 0.929 . S
H2052 C2060 0.929 . S
H2053 C2062 0.930 . S
H2054 C2064 0.930 . S
H2055 C2067 0.929 . S
H2056 C2070 0.930 . S
H2057 C2072 0.960 . S
H2058 C2072 0.960 . S
H2059 C2072 0.960 . S
C2060 H2052 0.929 . S
C2060 C2061 1.377 . S
C2060 C2062 1.384 . S
C2061 C2060 1.377 . S
C2061 C2067 1.390 . S
C2062 H2053 0.930 . S
C2062 C2060 1.384 . S
C2062 C2063 1.372 . S
C2063 C2062 1.372 . S
C2063 C2064 1.400 . S
C2063 C2068 1.490 . S
C2064 H2054 0.930 . S
C2064 C2063 1.400 . S
C2064 C2067 1.386 . S
H2065 C2081 0.930 . S
H2066 C2082 0.931 . S
C2067 H2055 0.929 . S
C2067 C2061 1.390 . S
C2067 C2064 1.386 . S
C2068 C2063 1.490 . S
C2068 C2070 1.395 . S
C2068 C2071 1.403 . S
H2069 C2075 0.930 . S
C2070 H2056 0.930 . S
C2070 C2068 1.395 . S
C2070 C2073 1.403 . S
C2071 C2068 1.403 . S
C2071 C2072 1.524 . S
C2071 C2075 1.400 . S
C2072 H2057 0.960 . S
C2072 H2058 0.960 . S
C2072 H2059 0.960 . S
C2072 C2071 1.524 . S
C2073 C2070 1.403 . S
C2073 C2074 1.392 . S
C2073 C2077 1.495 . S
C2074 C2073 1.392 . S
C2074 C2075 1.385 . S
C2074 C2076 1.478 . S
C2075 H2069 0.930 . S
C2075 C2071 1.400 . S
C2075 C2074 1.385 . S
C2076 C2074 1.478 . S
C2076 C2078 1.381 . S
C2076 C2082 1.383 . S
C2077 C2073 1.495 . S
C2077 H2083 0.959 . S
C2077 H2084 0.961 . S
C2077 H2085 0.960 . S
C2078 C2076 1.381 . S
C2078 C2079 1.394 . S
C2078 H2086 0.930 . S
C2079 C2078 1.394 . S
C2079 C2080 1.383 . S
C2079 H2087 0.929 . S
C2080 C2079 1.383 . S
C2080 C2081 1.377 . S
C2081 H2065 0.930 . S
C2081 C2080 1.377 . S
C2081 C2082 1.379 . S
C2082 H2066 0.931 . S
C2082 C2076 1.383 . S
C2082 C2081 1.379 . S
H2083 C2077 0.959 . S
H2084 C2077 0.961 . S
H2085 C2077 0.960 . S
H2086 C2078 0.930 . S
H2087 C2079 0.929 . S
H2088 C2096 0.929 . S
H2089 C2098 0.930 . S
H2090 C2100 0.930 . S
H2091 C2103 0.929 . S
H2092 C2106 0.930 . S
H2093 C2108 0.960 . S
H2094 C2108 0.960 . S
H2095 C2108 0.960 . S
C2096 H2088 0.929 . S
C2096 C2097 1.377 . S
C2096 C2098 1.384 . S
C2097 C2096 1.377 . S
C2097 C2103 1.390 . S
C2098 H2089 0.930 . S
C2098 C2096 1.384 . S
C2098 C2099 1.372 . S
C2099 C2098 1.372 . S
C2099 C2100 1.400 . S
C2099 C2104 1.490 . S
C2100 H2090 0.930 . S
C2100 C2099 1.400 . S
C2100 C2103 1.386 . S
H2101 C2117 0.930 . S
H2102 C2118 0.931 . S
C2103 H2091 0.929 . S
C2103 C2097 1.390 . S
C2103 C2100 1.386 . S
C2104 C2099 1.490 . S
C2104 C2106 1.395 . S
C2104 C2107 1.403 . S
H2105 C2111 0.930 . S
C2106 H2092 0.930 . S
C2106 C2104 1.395 . S
C2106 C2109 1.403 . S
C2107 C2104 1.403 . S
C2107 C2108 1.524 . S
C2107 C2111 1.400 . S
C2108 H2093 0.960 . S
C2108 H2094 0.960 . S
C2108 H2095 0.960 . S
C2108 C2107 1.524 . S
C2109 C2106 1.403 . S
C2109 C2110 1.392 . S
C2109 C2113 1.495 . S
C2110 C2109 1.392 . S
C2110 C2111 1.385 . S
C2110 C2112 1.478 . S
C2111 H2105 0.930 . S
C2111 C2107 1.400 . S
C2111 C2110 1.385 . S
C2112 C2110 1.478 . S
C2112 C2114 1.381 . S
C2112 C2118 1.383 . S
C2113 C2109 1.495 . S
C2113 H2119 0.959 . S
C2113 H2120 0.961 . S
C2113 H2121 0.960 . S
C2114 C2112 1.381 . S
C2114 C2115 1.394 . S
C2114 H2122 0.930 . S
C2115 C2114 1.394 . S
C2115 C2116 1.383 . S
C2115 H2123 0.929 . S
C2116 C2115 1.383 . S
C2116 C2117 1.377 . S
C2117 H2101 0.930 . S
C2117 C2116 1.377 . S
C2117 C2118 1.379 . S
C2118 H2102 0.931 . S
C2118 C2112 1.383 . S
C2118 C2117 1.379 . S
H2119 C2113 0.959 . S
H2120 C2113 0.961 . S
H2121 C2113 0.960 . S
H2122 C2114 0.930 . S
H2123 C2115 0.929 . S
H2124 C2132 0.929 . S
H2125 C2134 0.930 . S
H2126 C2136 0.930 . S
H2127 C2139 0.929 . S
H2128 C2142 0.930 . S
H2129 C2144 0.960 . S
H2130 C2144 0.960 . S
H2131 C2144 0.960 . S
C2132 H2124 0.929 . S
C2132 C2133 1.377 . S
C2132 C2134 1.384 . S
C2133 C2132 1.377 . S
C2133 C2139 1.390 . S
C2134 H2125 0.930 . S
C2134 C2132 1.384 . S
C2134 C2135 1.372 . S
C2135 C2134 1.372 . S
C2135 C2136 1.400 . S
C2135 C2140 1.490 . S
C2136 H2126 0.930 . S
C2136 C2135 1.400 . S
C2136 C2139 1.386 . S
H2137 C2153 0.930 . S
H2138 C2154 0.931 . S
C2139 H2127 0.929 . S
C2139 C2133 1.390 . S
C2139 C2136 1.386 . S
C2140 C2135 1.490 . S
C2140 C2142 1.395 . S
C2140 C2143 1.403 . S
H2141 C2147 0.930 . S
C2142 H2128 0.930 . S
C2142 C2140 1.395 . S
C2142 C2145 1.403 . S
C2143 C2140 1.403 . S
C2143 C2144 1.524 . S
C2143 C2147 1.400 . S
C2144 H2129 0.960 . S
C2144 H2130 0.960 . S
C2144 H2131 0.960 . S
C2144 C2143 1.524 . S
C2145 C2142 1.403 . S
C2145 C2146 1.392 . S
C2145 C2149 1.495 . S
C2146 C2145 1.392 . S
C2146 C2147 1.385 . S
C2146 C2148 1.478 . S
C2147 H2141 0.930 . S
C2147 C2143 1.400 . S
C2147 C2146 1.385 . S
C2148 C2146 1.478 . S
C2148 C2150 1.381 . S
C2148 C2154 1.383 . S
C2149 C2145 1.495 . S
C2149 H2155 0.959 . S
C2149 H2156 0.961 . S
C2149 H2157 0.960 . S
C2150 C2148 1.381 . S
C2150 C2151 1.394 . S
C2150 H2158 0.930 . S
C2151 C2150 1.394 . S
C2151 C2152 1.383 . S
C2151 H2159 0.929 . S
C2152 C2151 1.383 . S
C2152 C2153 1.377 . S
C2153 H2137 0.930 . S
C2153 C2152 1.377 . S
C2153 C2154 1.379 . S
C2154 H2138 0.931 . S
C2154 C2148 1.383 . S
C2154 C2153 1.379 . S
H2155 C2149 0.959 . S
H2156 C2149 0.961 . S
H2157 C2149 0.960 . S
H2158 C2150 0.930 . S
H2159 C2151 0.929 . S
H2160 C2168 0.929 . S
H2161 C2170 0.930 . S
H2162 C2172 0.930 . S
H2163 C2175 0.929 . S
H2164 C2178 0.930 . S
H2165 C2180 0.960 . S
H2166 C2180 0.960 . S
H2167 C2180 0.960 . S
C2168 H2160 0.929 . S
C2168 C2169 1.377 . S
C2168 C2170 1.384 . S
C2169 C2168 1.377 . S
C2169 C2175 1.390 . S
C2170 H2161 0.930 . S
C2170 C2168 1.384 . S
C2170 C2171 1.372 . S
C2171 C2170 1.372 . S
C2171 C2172 1.400 . S
C2171 C2176 1.490 . S
C2172 H2162 0.930 . S
C2172 C2171 1.400 . S
C2172 C2175 1.386 . S
H2173 C2189 0.930 . S
H2174 C2190 0.931 . S
C2175 H2163 0.929 . S
C2175 C2169 1.390 . S
C2175 C2172 1.386 . S
C2176 C2171 1.490 . S
C2176 C2178 1.395 . S
C2176 C2179 1.403 . S
H2177 C2183 0.930 . S
C2178 H2164 0.930 . S
C2178 C2176 1.395 . S
C2178 C2181 1.403 . S
C2179 C2176 1.403 . S
C2179 C2180 1.524 . S
C2179 C2183 1.400 . S
C2180 H2165 0.960 . S
C2180 H2166 0.960 . S
C2180 H2167 0.960 . S
C2180 C2179 1.524 . S
C2181 C2178 1.403 . S
C2181 C2182 1.392 . S
C2181 C2185 1.495 . S
C2182 C2181 1.392 . S
C2182 C2183 1.385 . S
C2182 C2184 1.478 . S
C2183 H2177 0.930 . S
C2183 C2179 1.400 . S
C2183 C2182 1.385 . S
C2184 C2182 1.478 . S
C2184 C2186 1.381 . S
C2184 C2190 1.383 . S
C2185 C2181 1.495 . S
C2185 H2191 0.959 . S
C2185 H2192 0.961 . S
C2185 H2193 0.960 . S
C2186 C2184 1.381 . S
C2186 C2187 1.394 . S
C2186 H2194 0.930 . S
C2187 C2186 1.394 . S
C2187 C2188 1.383 . S
C2187 H2195 0.929 . S
C2188 C2187 1.383 . S
C2188 C2189 1.377 . S
C2189 H2173 0.930 . S
C2189 C2188 1.377 . S
C2189 C2190 1.379 . S
C2190 H2174 0.931 . S
C2190 C2184 1.383 . S
C2190 C2189 1.379 . S
H2191 C2185 0.959 . S
H2192 C2185 0.961 . S
H2193 C2185 0.960 . S
H2194 C2186 0.930 . S
H2195 C2187 0.929 . S
H2196 C2204 0.929 . S
H2197 C2206 0.930 . S
H2198 C2208 0.930 . S
H2199 C2211 0.929 . S
H2200 C2214 0.930 . S
H2201 C2216 0.960 . S
H2202 C2216 0.960 . S
H2203 C2216 0.960 . S
C2204 H2196 0.929 . S
C2204 C2205 1.377 . S
C2204 C2206 1.384 . S
C2205 C2204 1.377 . S
C2205 C2211 1.390 . S
C2206 H2197 0.930 . S
C2206 C2204 1.384 . S
C2206 C2207 1.372 . S
C2207 C2206 1.372 . S
C2207 C2208 1.400 . S
C2207 C2212 1.490 . S
C2208 H2198 0.930 . S
C2208 C2207 1.400 . S
C2208 C2211 1.386 . S
H2209 C2225 0.930 . S
H2210 C2226 0.931 . S
C2211 H2199 0.929 . S
C2211 C2205 1.390 . S
C2211 C2208 1.386 . S
C2212 C2207 1.490 . S
C2212 C2214 1.395 . S
C2212 C2215 1.403 . S
H2213 C2219 0.930 . S
C2214 H2200 0.930 . S
C2214 C2212 1.395 . S
C2214 C2217 1.403 . S
C2215 C2212 1.403 . S
C2215 C2216 1.524 . S
C2215 C2219 1.400 . S
C2216 H2201 0.960 . S
C2216 H2202 0.960 . S
C2216 H2203 0.960 . S
C2216 C2215 1.524 . S
C2217 C2214 1.403 . S
C2217 C2218 1.392 . S
C2217 C2221 1.495 . S
C2218 C2217 1.392 . S
C2218 C2219 1.385 . S
C2218 C2220 1.478 . S
C2219 H2213 0.930 . S
C2219 C2215 1.400 . S
C2219 C2218 1.385 . S
C2220 C2218 1.478 . S
C2220 C2222 1.381 . S
C2220 C2226 1.383 . S
C2221 C2217 1.495 . S
C2221 H2227 0.959 . S
C2221 H2228 0.961 . S
C2221 H2229 0.960 . S
C2222 C2220 1.381 . S
C2222 C2223 1.394 . S
C2222 H2230 0.930 . S
C2223 C2222 1.394 . S
C2223 C2224 1.383 . S
C2223 H2231 0.929 . S
C2224 C2223 1.383 . S
C2224 C2225 1.377 . S
C2225 H2209 0.930 . S
C2225 C2224 1.377 . S
C2225 C2226 1.379 . S
C2226 H2210 0.931 . S
C2226 C2220 1.383 . S
C2226 C2225 1.379 . S
H2227 C2221 0.959 . S
H2228 C2221 0.961 . S
H2229 C2221 0.960 . S
H2230 C2222 0.930 . S
H2231 C2223 0.929 . S
H2232 C2240 0.929 . S
H2233 C2242 0.930 . S
H2234 C2244 0.930 . S
H2235 C2247 0.929 . S
H2236 C2250 0.930 . S
H2237 C2252 0.960 . S
H2238 C2252 0.960 . S
H2239 C2252 0.960 . S
C2240 H2232 0.929 . S
C2240 C2241 1.377 . S
C2240 C2242 1.384 . S
C2241 C2240 1.377 . S
C2241 C2247 1.390 . S
C2242 H2233 0.930 . S
C2242 C2240 1.384 . S
C2242 C2243 1.372 . S
C2243 C2242 1.372 . S
C2243 C2244 1.400 . S
C2243 C2248 1.490 . S
C2244 H2234 0.930 . S
C2244 C2243 1.400 . S
C2244 C2247 1.386 . S
H2245 C2261 0.930 . S
H2246 C2262 0.931 . S
C2247 H2235 0.929 . S
C2247 C2241 1.390 . S
C2247 C2244 1.386 . S
C2248 C2243 1.490 . S
C2248 C2250 1.395 . S
C2248 C2251 1.403 . S
H2249 C2255 0.930 . S
C2250 H2236 0.930 . S
C2250 C2248 1.395 . S
C2250 C2253 1.403 . S
C2251 C2248 1.403 . S
C2251 C2252 1.524 . S
C2251 C2255 1.400 . S
C2252 H2237 0.960 . S
C2252 H2238 0.960 . S
C2252 H2239 0.960 . S
C2252 C2251 1.524 . S
C2253 C2250 1.403 . S
C2253 C2254 1.392 . S
C2253 C2257 1.495 . S
C2254 C2253 1.392 . S
C2254 C2255 1.385 . S
C2254 C2256 1.478 . S
C2255 H2249 0.930 . S
C2255 C2251 1.400 . S
C2255 C2254 1.385 . S
C2256 C2254 1.478 . S
C2256 C2258 1.381 . S
C2256 C2262 1.383 . S
C2257 C2253 1.495 . S
C2257 H2263 0.959 . S
C2257 H2264 0.961 . S
C2257 H2265 0.960 . S
C2258 C2256 1.381 . S
C2258 C2259 1.394 . S
C2258 H2266 0.930 . S
C2259 C2258 1.394 . S
C2259 C2260 1.383 . S
C2259 H2267 0.929 . S
C2260 C2259 1.383 . S
C2260 C2261 1.377 . S
C2261 H2245 0.930 . S
C2261 C2260 1.377 . S
C2261 C2262 1.379 . S
C2262 H2246 0.931 . S
C2262 C2256 1.383 . S
C2262 C2261 1.379 . S
H2263 C2257 0.959 . S
H2264 C2257 0.961 . S
H2265 C2257 0.960 . S
H2266 C2258 0.930 . S
H2267 C2259 0.929 . S
H2268 C2276 0.929 . S
H2269 C2278 0.930 . S
H2270 C2280 0.930 . S
H2271 C2283 0.929 . S
H2272 C2286 0.930 . S
H2273 C2288 0.960 . S
H2274 C2288 0.960 . S
H2275 C2288 0.960 . S
C2276 H2268 0.929 . S
C2276 C2277 1.377 . S
C2276 C2278 1.384 . S
C2277 C2276 1.377 . S
C2277 C2283 1.390 . S
C2278 H2269 0.930 . S
C2278 C2276 1.384 . S
C2278 C2279 1.372 . S
C2279 C2278 1.372 . S
C2279 C2280 1.400 . S
C2279 C2284 1.490 . S
C2280 H2270 0.930 . S
C2280 C2279 1.400 . S
C2280 C2283 1.386 . S
H2281 C2297 0.930 . S
H2282 C2298 0.931 . S
C2283 H2271 0.929 . S
C2283 C2277 1.390 . S
C2283 C2280 1.386 . S
C2284 C2279 1.490 . S
C2284 C2286 1.395 . S
C2284 C2287 1.403 . S
H2285 C2291 0.930 . S
C2286 H2272 0.930 . S
C2286 C2284 1.395 . S
C2286 C2289 1.403 . S
C2287 C2284 1.403 . S
C2287 C2288 1.524 . S
C2287 C2291 1.400 . S
C2288 H2273 0.960 . S
C2288 H2274 0.960 . S
C2288 H2275 0.960 . S
C2288 C2287 1.524 . S
C2289 C2286 1.403 . S
C2289 C2290 1.392 . S
C2289 C2293 1.495 . S
C2290 C2289 1.392 . S
C2290 C2291 1.385 . S
C2290 C2292 1.478 . S
C2291 H2285 0.930 . S
C2291 C2287 1.400 . S
C2291 C2290 1.385 . S
C2292 C2290 1.478 . S
C2292 C2294 1.381 . S
C2292 C2298 1.383 . S
C2293 C2289 1.495 . S
C2293 H2299 0.959 . S
C2293 H2300 0.961 . S
C2293 H2301 0.960 . S
C2294 C2292 1.381 . S
C2294 C2295 1.394 . S
C2294 H2302 0.930 . S
C2295 C2294 1.394 . S
C2295 C2296 1.383 . S
C2295 H2303 0.929 . S
C2296 C2295 1.383 . S
C2296 C2297 1.377 . S
C2297 H2281 0.930 . S
C2297 C2296 1.377 . S
C2297 C2298 1.379 . S
C2298 H2282 0.931 . S
C2298 C2292 1.383 . S
C2298 C2297 1.379 . S
H2299 C2293 0.959 . S
H2300 C2293 0.961 . S
H2301 C2293 0.960 . S
H2302 C2294 0.930 . S
H2303 C2295 0.929 . S
H2304 C2312 0.929 . S
H2305 C2314 0.930 . S
H2306 C2316 0.930 . S
H2307 C2319 0.929 . S
H2308 C2322 0.930 . S
H2309 C2324 0.960 . S
H2310 C2324 0.960 . S
H2311 C2324 0.960 . S
C2312 H2304 0.929 . S
C2312 C2313 1.377 . S
C2312 C2314 1.384 . S
C2313 C2312 1.377 . S
C2313 C2319 1.390 . S
C2314 H2305 0.930 . S
C2314 C2312 1.384 . S
C2314 C2315 1.372 . S
C2315 C2314 1.372 . S
C2315 C2316 1.400 . S
C2315 C2320 1.490 . S
C2316 H2306 0.930 . S
C2316 C2315 1.400 . S
C2316 C2319 1.386 . S
H2317 C2333 0.930 . S
H2318 C2334 0.931 . S
C2319 H2307 0.929 . S
C2319 C2313 1.390 . S
C2319 C2316 1.386 . S
C2320 C2315 1.490 . S
C2320 C2322 1.395 . S
C2320 C2323 1.403 . S
H2321 C2327 0.930 . S
C2322 H2308 0.930 . S
C2322 C2320 1.395 . S
C2322 C2325 1.403 . S
C2323 C2320 1.403 . S
C2323 C2324 1.524 . S
C2323 C2327 1.400 . S
C2324 H2309 0.960 . S
C2324 H2310 0.960 . S
C2324 H2311 0.960 . S
C2324 C2323 1.524 . S
C2325 C2322 1.403 . S
C2325 C2326 1.392 . S
C2325 C2329 1.495 . S
C2326 C2325 1.392 . S
C2326 C2327 1.385 . S
C2326 C2328 1.478 . S
C2327 H2321 0.930 . S
C2327 C2323 1.400 . S
C2327 C2326 1.385 . S
C2328 C2326 1.478 . S
C2328 C2330 1.381 . S
C2328 C2334 1.383 . S
C2329 C2325 1.495 . S
C2329 H2335 0.959 . S
C2329 H2336 0.961 . S
C2329 H2337 0.960 . S
C2330 C2328 1.381 . S
C2330 C2331 1.394 . S
C2330 H2338 0.930 . S
C2331 C2330 1.394 . S
C2331 C2332 1.383 . S
C2331 H2339 0.929 . S
C2332 C2331 1.383 . S
C2332 C2333 1.377 . S
C2333 H2317 0.930 . S
C2333 C2332 1.377 . S
C2333 C2334 1.379 . S
C2334 H2318 0.931 . S
C2334 C2328 1.383 . S
C2334 C2333 1.379 . S
H2335 C2329 0.959 . S
H2336 C2329 0.961 . S
H2337 C2329 0.960 . S
H2338 C2330 0.930 . S
H2339 C2331 0.929 . S
H2340 C2348 0.929 . S
H2341 C2350 0.930 . S
H2342 C2352 0.930 . S
H2343 C2355 0.929 . S
H2344 C2358 0.930 . S
H2345 C2360 0.960 . S
H2346 C2360 0.960 . S
H2347 C2360 0.960 . S
C2348 H2340 0.929 . S
C2348 C2349 1.377 . S
C2348 C2350 1.384 . S
C2349 C2348 1.377 . S
C2349 C2355 1.390 . S
C2350 H2341 0.930 . S
C2350 C2348 1.384 . S
C2350 C2351 1.372 . S
C2351 C2350 1.372 . S
C2351 C2352 1.400 . S
C2351 C2356 1.490 . S
C2352 H2342 0.930 . S
C2352 C2351 1.400 . S
C2352 C2355 1.386 . S
H2353 C2369 0.930 . S
H2354 C2370 0.931 . S
C2355 H2343 0.929 . S
C2355 C2349 1.390 . S
C2355 C2352 1.386 . S
C2356 C2351 1.490 . S
C2356 C2358 1.395 . S
C2356 C2359 1.403 . S
H2357 C2363 0.930 . S
C2358 H2344 0.930 . S
C2358 C2356 1.395 . S
C2358 C2361 1.403 . S
C2359 C2356 1.403 . S
C2359 C2360 1.524 . S
C2359 C2363 1.400 . S
C2360 H2345 0.960 . S
C2360 H2346 0.960 . S
C2360 H2347 0.960 . S
C2360 C2359 1.524 . S
C2361 C2358 1.403 . S
C2361 C2362 1.392 . S
C2361 C2365 1.495 . S
C2362 C2361 1.392 . S
C2362 C2363 1.385 . S
C2362 C2364 1.478 . S
C2363 H2357 0.930 . S
C2363 C2359 1.400 . S
C2363 C2362 1.385 . S
C2364 C2362 1.478 . S
C2364 C2366 1.381 . S
C2364 C2370 1.383 . S
C2365 C2361 1.495 . S
C2365 H2371 0.959 . S
C2365 H2372 0.961 . S
C2365 H2373 0.960 . S
C2366 C2364 1.381 . S
C2366 C2367 1.394 . S
C2366 H2374 0.930 . S
C2367 C2366 1.394 . S
C2367 C2368 1.383 . S
C2367 H2375 0.929 . S
C2368 C2367 1.383 . S
C2368 C2369 1.377 . S
C2369 H2353 0.930 . S
C2369 C2368 1.377 . S
C2369 C2370 1.379 . S
C2370 H2354 0.931 . S
C2370 C2364 1.383 . S
C2370 C2369 1.379 . S
H2371 C2365 0.959 . S
H2372 C2365 0.961 . S
H2373 C2365 0.960 . S
H2374 C2366 0.930 . S
H2375 C2367 0.929 . S
H2376 C2384 0.929 . S
H2377 C2386 0.930 . S
H2378 C2388 0.930 . S
H2379 C2391 0.929 . S
H2380 C2394 0.930 . S
H2381 C2396 0.960 . S
H2382 C2396 0.960 . S
H2383 C2396 0.960 . S
C2384 H2376 0.929 . S
C2384 C2385 1.377 . S
C2384 C2386 1.384 . S
C2385 C2384 1.377 . S
C2385 C2391 1.390 . S
C2386 H2377 0.930 . S
C2386 C2384 1.384 . S
C2386 C2387 1.372 . S
C2387 C2386 1.372 . S
C2387 C2388 1.400 . S
C2387 C2392 1.490 . S
C2388 H2378 0.930 . S
C2388 C2387 1.400 . S
C2388 C2391 1.386 . S
H2389 C2405 0.930 . S
H2390 C2406 0.931 . S
C2391 H2379 0.929 . S
C2391 C2385 1.390 . S
C2391 C2388 1.386 . S
C2392 C2387 1.490 . S
C2392 C2394 1.395 . S
C2392 C2395 1.403 . S
H2393 C2399 0.930 . S
C2394 H2380 0.930 . S
C2394 C2392 1.395 . S
C2394 C2397 1.403 . S
C2395 C2392 1.403 . S
C2395 C2396 1.524 . S
C2395 C2399 1.400 . S
C2396 H2381 0.960 . S
C2396 H2382 0.960 . S
C2396 H2383 0.960 . S
C2396 C2395 1.524 . S
C2397 C2394 1.403 . S
C2397 C2398 1.392 . S
C2397 C2401 1.495 . S
C2398 C2397 1.392 . S
C2398 C2399 1.385 . S
C2398 C2400 1.478 . S
C2399 H2393 0.930 . S
C2399 C2395 1.400 . S
C2399 C2398 1.385 . S
C2400 C2398 1.478 . S
C2400 C2402 1.381 . S
C2400 C2406 1.383 . S
C2401 C2397 1.495 . S
C2401 H2407 0.959 . S
C2401 H2408 0.961 . S
C2401 H2409 0.960 . S
C2402 C2400 1.381 . S
C2402 C2403 1.394 . S
C2402 H2410 0.930 . S
C2403 C2402 1.394 . S
C2403 C2404 1.383 . S
C2403 H2411 0.929 . S
C2404 C2403 1.383 . S
C2404 C2405 1.377 . S
C2405 H2389 0.930 . S
C2405 C2404 1.377 . S
C2405 C2406 1.379 . S
C2406 H2390 0.931 . S
C2406 C2400 1.383 . S
C2406 C2405 1.379 . S
H2407 C2401 0.959 . S
H2408 C2401 0.961 . S
H2409 C2401 0.960 . S
H2410 C2402 0.930 . S
H2411 C2403 0.929 . S
H2412 C2420 0.929 . S
H2413 C2422 0.930 . S
H2414 C2424 0.930 . S
H2415 C2427 0.929 . S
H2416 C2430 0.930 . S
H2417 C2432 0.960 . S
H2418 C2432 0.960 . S
H2419 C2432 0.960 . S
C2420 H2412 0.929 . S
C2420 C2421 1.377 . S
C2420 C2422 1.384 . S
C2421 C2420 1.377 . S
C2421 C2427 1.390 . S
C2422 H2413 0.930 . S
C2422 C2420 1.384 . S
C2422 C2423 1.372 . S
C2423 C2422 1.372 . S
C2423 C2424 1.400 . S
C2423 C2428 1.490 . S
C2424 H2414 0.930 . S
C2424 C2423 1.400 . S
C2424 C2427 1.386 . S
H2425 C2441 0.930 . S
H2426 C2442 0.931 . S
C2427 H2415 0.929 . S
C2427 C2421 1.390 . S
C2427 C2424 1.386 . S
C2428 C2423 1.490 . S
C2428 C2430 1.395 . S
C2428 C2431 1.403 . S
H2429 C2435 0.930 . S
C2430 H2416 0.930 . S
C2430 C2428 1.395 . S
C2430 C2433 1.403 . S
C2431 C2428 1.403 . S
C2431 C2432 1.524 . S
C2431 C2435 1.400 . S
C2432 H2417 0.960 . S
C2432 H2418 0.960 . S
C2432 H2419 0.960 . S
C2432 C2431 1.524 . S
C2433 C2430 1.403 . S
C2433 C2434 1.392 . S
C2433 C2437 1.495 . S
C2434 C2433 1.392 . S
C2434 C2435 1.385 . S
C2434 C2436 1.478 . S
C2435 H2429 0.930 . S
C2435 C2431 1.400 . S
C2435 C2434 1.385 . S
C2436 C2434 1.478 . S
C2436 C2438 1.381 . S
C2436 C2442 1.383 . S
C2437 C2433 1.495 . S
C2437 H2443 0.959 . S
C2437 H2444 0.961 . S
C2437 H2445 0.960 . S
C2438 C2436 1.381 . S
C2438 C2439 1.394 . S
C2438 H2446 0.930 . S
C2439 C2438 1.394 . S
C2439 C2440 1.383 . S
C2439 H2447 0.929 . S
C2440 C2439 1.383 . S
C2440 C2441 1.377 . S
C2441 H2425 0.930 . S
C2441 C2440 1.377 . S
C2441 C2442 1.379 . S
C2442 H2426 0.931 . S
C2442 C2436 1.383 . S
C2442 C2441 1.379 . S
H2443 C2437 0.959 . S
H2444 C2437 0.961 . S
H2445 C2437 0.960 . S
H2446 C2438 0.930 . S
H2447 C2439 0.929 . S
H2448 C2456 0.929 . S
H2449 C2458 0.930 . S
H2450 C2460 0.930 . S
H2451 C2463 0.929 . S
H2452 C2466 0.930 . S
H2453 C2468 0.960 . S
H2454 C2468 0.960 . S
H2455 C2468 0.960 . S
C2456 H2448 0.929 . S
C2456 C2457 1.377 . S
C2456 C2458 1.384 . S
C2457 C2456 1.377 . S
C2457 C2463 1.390 . S
C2458 H2449 0.930 . S
C2458 C2456 1.384 . S
C2458 C2459 1.372 . S
C2459 C2458 1.372 . S
C2459 C2460 1.400 . S
C2459 C2464 1.490 . S
C2460 H2450 0.930 . S
C2460 C2459 1.400 . S
C2460 C2463 1.386 . S
H2461 C2477 0.930 . S
H2462 C2478 0.931 . S
C2463 H2451 0.929 . S
C2463 C2457 1.390 . S
C2463 C2460 1.386 . S
C2464 C2459 1.490 . S
C2464 C2466 1.395 . S
C2464 C2467 1.403 . S
H2465 C2471 0.930 . S
C2466 H2452 0.930 . S
C2466 C2464 1.395 . S
C2466 C2469 1.403 . S
C2467 C2464 1.403 . S
C2467 C2468 1.524 . S
C2467 C2471 1.400 . S
C2468 H2453 0.960 . S
C2468 H2454 0.960 . S
C2468 H2455 0.960 . S
C2468 C2467 1.524 . S
C2469 C2466 1.403 . S
C2469 C2470 1.392 . S
C2469 C2473 1.495 . S
C2470 C2469 1.392 . S
C2470 C2471 1.385 . S
C2470 C2472 1.478 . S
C2471 H2465 0.930 . S
C2471 C2467 1.400 . S
C2471 C2470 1.385 . S
C2472 C2470 1.478 . S
C2472 C2474 1.381 . S
C2472 C2478 1.383 . S
C2473 C2469 1.495 . S
C2473 H2479 0.959 . S
C2473 H2480 0.961 . S
C2473 H2481 0.960 . S
C2474 C2472 1.381 . S
C2474 C2475 1.394 . S
C2474 H2482 0.930 . S
C2475 C2474 1.394 . S
C2475 C2476 1.383 . S
C2475 H2483 0.929 . S
C2476 C2475 1.383 . S
C2476 C2477 1.377 . S
C2477 H2461 0.930 . S
C2477 C2476 1.377 . S
C2477 C2478 1.379 . S
C2478 H2462 0.931 . S
C2478 C2472 1.383 . S
C2478 C2477 1.379 . S
H2479 C2473 0.959 . S
H2480 C2473 0.961 . S
H2481 C2473 0.960 . S
H2482 C2474 0.930 . S
H2483 C2475 0.929 . S
H2484 C2492 0.929 . S
H2485 C2494 0.930 . S
H2486 C2496 0.930 . S
H2487 C2499 0.929 . S
H2488 C2502 0.930 . S
H2489 C2504 0.960 . S
H2490 C2504 0.960 . S
H2491 C2504 0.960 . S
C2492 H2484 0.929 . S
C2492 C2493 1.377 . S
C2492 C2494 1.384 . S
C2493 C2492 1.377 . S
C2493 C2499 1.390 . S
C2494 H2485 0.930 . S
C2494 C2492 1.384 . S
C2494 C2495 1.372 . S
C2495 C2494 1.372 . S
C2495 C2496 1.400 . S
C2495 C2500 1.490 . S
C2496 H2486 0.930 . S
C2496 C2495 1.400 . S
C2496 C2499 1.386 . S
H2497 C2513 0.930 . S
H2498 C2514 0.931 1_565 S
C2499 H2487 0.929 . S
C2499 C2493 1.390 . S
C2499 C2496 1.386 . S
C2500 C2495 1.490 . S
C2500 C2502 1.395 . S
C2500 C2503 1.403 . S
H2501 C2507 0.930 . S
C2502 H2488 0.930 . S
C2502 C2500 1.395 . S
C2502 C2505 1.401 1_565 S
C2503 C2500 1.403 . S
C2503 C2504 1.524 . S
C2503 C2507 1.400 . S
C2504 H2489 0.960 . S
C2504 H2490 0.960 . S
C2504 H2491 0.960 . S
C2504 C2503 1.524 . S
C2505 C2502 1.401 1_545 S
C2505 C2506 1.370 1_545 S
C2505 C2509 1.520 . S
C2506 C2505 1.370 1_565 S
C2506 C2507 1.385 . S
C2506 C2508 1.478 1_565 S
C2507 H2501 0.930 . S
C2507 C2503 1.400 . S
C2507 C2506 1.385 . S
C2508 C2506 1.478 1_545 S
C2508 C2510 1.381 . S
C2508 C2514 1.383 . S
C2509 C2505 1.520 . S
C2509 H2515 0.959 . S
C2509 H2516 0.961 . S
C2509 H2517 0.960 . S
C2510 C2508 1.381 . S
C2510 C2511 1.394 . S
C2510 H2518 0.930 . S
C2511 C2510 1.394 . S
C2511 C2512 1.383 . S
C2511 H2519 0.929 . S
C2512 C2511 1.383 . S
C2512 C2513 1.377 . S
C2513 H2497 0.930 . S
C2513 C2512 1.377 . S
C2513 C2514 1.379 . S
C2514 H2498 0.931 1_545 S
C2514 C2508 1.383 . S
C2514 C2513 1.379 . S
H2515 C2509 0.959 . S
H2516 C2509 0.961 . S
H2517 C2509 0.960 . S
H2518 C2510 0.930 . S
H2519 C2511 0.929 . S
H2520 C2528 0.929 . S
H2521 C2530 0.955 . S
H2522 C2532 0.909 1_455 S
H2523 C2535 0.929 . S
H2524 C2538 0.930 1_655 S
H2525 C2540 0.960 . S
H2526 C2540 0.960 . S
H2527 C2540 0.960 . S
C2528 H2520 0.929 . S
C2528 C2529 1.377 . S
C2528 C2530 1.384 . S
C2529 C2528 1.377 . S
C2529 C2535 1.390 . S
C2530 H2521 0.955 . S
C2530 C2528 1.384 . S
C2530 C2531 1.372 1_655 S
C2531 C2530 1.372 1_455 S
C2531 C2532 1.400 1_455 S
C2531 C2536 1.490 . S
C2532 H2522 0.909 1_655 S
C2532 C2531 1.400 1_655 S
C2532 C2535 1.386 . S
H2533 C2549 0.930 . S
H2534 C2550 0.931 . S
C2535 H2523 0.929 . S
C2535 C2529 1.390 . S
C2535 C2532 1.386 . S
C2536 C2531 1.490 . S
C2536 C2538 1.395 . S
C2536 C2539 1.403 . S
H2537 C2543 0.930 . S
C2538 H2524 0.930 1_455 S
C2538 C2536 1.395 . S
C2538 C2541 1.403 . S
C2539 C2536 1.403 . S
C2539 C2540 1.524 . S
C2539 C2543 1.400 . S
C2540 H2525 0.960 . S
C2540 H2526 0.960 . S
C2540 H2527 0.960 . S
C2540 C2539 1.524 . S
C2541 C2538 1.403 . S
C2541 C2542 1.392 . S
C2541 C2545 1.499 . S
C2542 C2541 1.392 . S
C2542 C2543 1.385 . S
C2542 C2544 1.478 . S
C2543 H2537 0.930 . S
C2543 C2539 1.400 . S
C2543 C2542 1.385 . S
C2544 C2542 1.478 . S
C2544 C2546 1.381 . S
C2544 C2550 1.383 . S
C2545 C2541 1.499 . S
C2545 H2551 0.900 1_455 S
C2545 H2552 0.977 1_455 S
C2545 H2553 1.005 . S
C2546 C2544 1.381 . S
C2546 C2547 1.394 . S
C2546 H2554 0.930 . S
C2547 C2546 1.394 . S
C2547 C2548 1.383 . S
C2547 H2555 0.929 . S
C2548 C2547 1.383 . S
C2548 C2549 1.377 . S
C2549 H2533 0.930 . S
C2549 C2548 1.377 . S
C2549 C2550 1.379 . S
C2550 H2534 0.931 . S
C2550 C2544 1.383 . S
C2550 C2549 1.379 . S
H2551 C2545 0.900 1_655 S
H2552 C2545 0.977 1_655 S
H2553 C2545 1.005 . S
H2554 C2546 0.930 . S
H2555 C2547 0.929 . S
H2556 C2564 0.929 . S
H2557 C2566 0.930 . S
H2558 C2568 0.930 . S
H2559 C2571 0.929 . S
H2560 C2574 0.930 . S
H2561 C2576 0.960 . S
H2562 C2576 0.960 . S
H2563 C2576 0.960 . S
C2564 H2556 0.929 . S
C2564 C2565 1.377 . S
C2564 C2566 1.384 . S
C2565 C2564 1.377 . S
C2565 C2571 1.390 . S
C2566 H2557 0.930 . S
C2566 C2564 1.384 . S
C2566 C2567 1.372 . S
C2567 C2566 1.372 . S
C2567 C2568 1.400 . S
C2567 C2572 1.490 . S
C2568 H2558 0.930 . S
C2568 C2567 1.400 . S
C2568 C2571 1.386 . S
H2569 C2585 0.930 . S
H2570 C2586 0.931 . S
C2571 H2559 0.929 . S
C2571 C2565 1.390 . S
C2571 C2568 1.386 . S
C2572 C2567 1.490 . S
C2572 C2574 1.395 . S
C2572 C2575 1.403 . S
H2573 C2579 0.930 . S
C2574 H2560 0.930 . S
C2574 C2572 1.395 . S
C2574 C2577 1.403 . S
C2575 C2572 1.403 . S
C2575 C2576 1.524 . S
C2575 C2579 1.400 . S
C2576 H2561 0.960 . S
C2576 H2562 0.960 . S
C2576 H2563 0.960 . S
C2576 C2575 1.524 . S
C2577 C2574 1.403 . S
C2577 C2578 1.392 . S
C2577 C2581 1.495 . S
C2578 C2577 1.392 . S
C2578 C2579 1.385 . S
C2578 C2580 1.478 . S
C2579 H2573 0.930 . S
C2579 C2575 1.400 . S
C2579 C2578 1.385 . S
C2580 C2578 1.478 . S
C2580 C2582 1.381 . S
C2580 C2586 1.383 . S
C2581 C2577 1.495 . S
C2581 H2587 0.959 . S
C2581 H2588 0.961 . S
C2581 H2589 0.960 . S
C2582 C2580 1.381 . S
C2582 C2583 1.394 . S
C2582 H2590 0.930 . S
C2583 C2582 1.394 . S
C2583 C2584 1.383 . S
C2583 H2591 0.929 . S
C2584 C2583 1.383 . S
C2584 C2585 1.377 . S
C2585 H2569 0.930 . S
C2585 C2584 1.377 . S
C2585 C2586 1.379 . S
C2586 H2570 0.931 . S
C2586 C2580 1.383 . S
C2586 C2585 1.379 . S
H2587 C2581 0.959 . S
H2588 C2581 0.961 . S
H2589 C2581 0.960 . S
H2590 C2582 0.930 . S
H2591 C2583 0.929 . S
H2592 C2600 0.929 . S
H2593 C2602 0.930 . S
H2594 C2604 0.930 . S
H2595 C2607 0.929 . S
H2596 C2610 0.930 . S
H2597 C2612 0.960 . S
H2598 C2612 0.960 . S
H2599 C2612 0.960 . S
C2600 H2592 0.929 . S
C2600 C2601 1.377 . S
C2600 C2602 1.384 . S
C2601 C2600 1.377 . S
C2601 C2607 1.390 . S
C2602 H2593 0.930 . S
C2602 C2600 1.384 . S
C2602 C2603 1.372 . S
C2603 C2602 1.372 . S
C2603 C2604 1.400 . S
C2603 C2608 1.490 . S
C2604 H2594 0.930 . S
C2604 C2603 1.400 . S
C2604 C2607 1.386 . S
H2605 C2621 0.930 . S
H2606 C2622 0.931 . S
C2607 H2595 0.929 . S
C2607 C2601 1.390 . S
C2607 C2604 1.386 . S
C2608 C2603 1.490 . S
C2608 C2610 1.395 . S
C2608 C2611 1.403 . S
H2609 C2615 0.930 . S
C2610 H2596 0.930 . S
C2610 C2608 1.395 . S
C2610 C2613 1.403 . S
C2611 C2608 1.403 . S
C2611 C2612 1.524 . S
C2611 C2615 1.400 . S
C2612 H2597 0.960 . S
C2612 H2598 0.960 . S
C2612 H2599 0.960 . S
C2612 C2611 1.524 . S
C2613 C2610 1.403 . S
C2613 C2614 1.392 . S
C2613 C2617 1.495 1_545 S
C2614 C2613 1.392 . S
C2614 C2615 1.385 . S
C2614 C2616 1.478 1_545 S
C2615 H2609 0.930 . S
C2615 C2611 1.400 . S
C2615 C2614 1.385 . S
C2616 C2614 1.478 1_565 S
C2616 C2618 1.381 . S
C2616 C2622 1.383 . S
C2617 C2613 1.495 1_565 S
C2617 H2623 0.959 . S
C2617 H2624 0.961 . S
C2617 H2625 0.960 . S
C2618 C2616 1.381 . S
C2618 C2619 1.394 . S
C2618 H2626 0.930 . S
C2619 C2618 1.394 . S
C2619 C2620 1.383 . S
C2619 H2627 0.929 . S
C2620 C2619 1.383 . S
C2620 C2621 1.377 . S
C2621 H2605 0.930 . S
C2621 C2620 1.377 . S
C2621 C2622 1.379 . S
C2622 H2606 0.931 . S
C2622 C2616 1.383 . S
C2622 C2621 1.379 . S
H2623 C2617 0.959 . S
H2624 C2617 0.961 . S
H2625 C2617 0.960 . S
H2626 C2618 0.930 . S
H2627 C2619 0.929 . S
H2628 C2636 0.931 . S
H2629 C2638 0.930 . S
H2630 C2640 0.930 . S
H2631 C2643 0.929 . S
H2632 C2646 0.930 . S
H2633 C2648 0.960 . S
H2634 C2648 0.960 . S
H2635 C2648 0.960 . S
C2636 H2628 0.931 . S
C2636 C2637 1.377 . S
C2636 C2638 1.384 1_455 S
C2637 C2636 1.377 . S
C2637 C2643 1.390 . S
C2638 H2629 0.930 . S
C2638 C2636 1.384 1_655 S
C2638 C2639 1.372 . S
C2639 C2638 1.372 . S
C2639 C2640 1.400 1_655 S
C2639 C2644 1.490 . S
C2640 H2630 0.930 . S
C2640 C2639 1.400 1_455 S
C2640 C2643 1.386 . S
H2641 C2657 0.930 . S
H2642 C2658 0.931 . S
C2643 H2631 0.929 . S
C2643 C2637 1.390 . S
C2643 C2640 1.386 . S
C2644 C2639 1.490 . S
C2644 C2646 1.395 . S
C2644 C2647 1.403 . S
H2645 C2651 0.930 . S
C2646 H2632 0.930 . S
C2646 C2644 1.395 . S
C2646 C2649 1.403 . S
C2647 C2644 1.403 . S
C2647 C2648 1.524 . S
C2647 C2651 1.400 . S
C2648 H2633 0.960 . S
C2648 H2634 0.960 . S
C2648 H2635 0.960 . S
C2648 C2647 1.524 . S
C2649 C2646 1.403 . S
C2649 C2650 1.392 . S
C2649 C2653 1.495 . S
C2650 C2649 1.392 . S
C2650 C2651 1.385 . S
C2650 C2652 1.478 . S
C2651 H2645 0.930 . S
C2651 C2647 1.400 . S
C2651 C2650 1.385 . S
C2652 C2650 1.478 . S
C2652 C2654 1.381 . S
C2652 C2658 1.383 . S
C2653 C2649 1.495 . S
C2653 H2659 0.959 . S
C2653 H2660 0.961 . S
C2653 H2661 0.960 . S
C2654 C2652 1.381 . S
C2654 C2655 1.394 . S
C2654 H2662 0.930 . S
C2655 C2654 1.394 . S
C2655 C2656 1.383 . S
C2655 H2663 0.929 . S
C2656 C2655 1.383 . S
C2656 C2657 1.377 . S
C2657 H2641 0.930 . S
C2657 C2656 1.377 . S
C2657 C2658 1.379 . S
C2658 H2642 0.931 . S
C2658 C2652 1.383 . S
C2658 C2657 1.379 . S
H2659 C2653 0.959 . S
H2660 C2653 0.961 . S
H2661 C2653 0.960 . S
H2662 C2654 0.930 . S
H2663 C2655 0.929 . S
H2664 C2672 0.929 . S
H2665 C2674 0.930 . S
H2666 C2676 0.930 . S
H2667 C2679 0.929 . S
H2668 C2682 0.930 . S
H2669 C2684 0.960 . S
H2670 C2684 0.960 . S
H2671 C2684 0.960 . S
C2672 H2664 0.929 . S
C2672 C2673 1.377 . S
C2672 C2674 1.384 . S
C2673 C2672 1.377 . S
C2673 C2679 1.390 . S
C2674 H2665 0.930 . S
C2674 C2672 1.384 . S
C2674 C2675 1.372 . S
C2675 C2674 1.372 . S
C2675 C2676 1.400 . S
C2675 C2680 1.490 . S
C2676 H2666 0.930 . S
C2676 C2675 1.400 . S
C2676 C2679 1.386 . S
H2677 C2693 0.930 . S
H2678 C2694 0.931 . S
C2679 H2667 0.929 . S
C2679 C2673 1.390 . S
C2679 C2676 1.386 . S
C2680 C2675 1.490 . S
C2680 C2682 1.395 . S
C2680 C2683 1.403 . S
H2681 C2687 0.930 . S
C2682 H2668 0.930 . S
C2682 C2680 1.395 . S
C2682 C2685 1.403 . S
C2683 C2680 1.403 . S
C2683 C2684 1.524 . S
C2683 C2687 1.400 . S
C2684 H2669 0.960 . S
C2684 H2670 0.960 . S
C2684 H2671 0.960 . S
C2684 C2683 1.524 . S
C2685 C2682 1.403 . S
C2685 C2686 1.392 . S
C2685 C2689 1.495 . S
C2686 C2685 1.392 . S
C2686 C2687 1.385 . S
C2686 C2688 1.478 . S
C2687 H2681 0.930 . S
C2687 C2683 1.400 . S
C2687 C2686 1.385 . S
C2688 C2686 1.478 . S
C2688 C2690 1.381 . S
C2688 C2694 1.383 . S
C2689 C2685 1.495 . S
C2689 H2695 0.959 . S
C2689 H2696 0.961 . S
C2689 H2697 0.960 . S
C2690 C2688 1.381 . S
C2690 C2691 1.394 . S
C2690 H2698 0.930 . S
C2691 C2690 1.394 . S
C2691 C2692 1.383 . S
C2691 H2699 0.929 . S
C2692 C2691 1.383 . S
C2692 C2693 1.377 . S
C2693 H2677 0.930 . S
C2693 C2692 1.377 . S
C2693 C2694 1.379 . S
C2694 H2678 0.931 . S
C2694 C2688 1.383 . S
C2694 C2693 1.379 . S
H2695 C2689 0.959 . S
H2696 C2689 0.961 . S
H2697 C2689 0.960 . S
H2698 C2690 0.930 . S
H2699 C2691 0.929 . S
H2700 C2708 0.929 . S
H2701 C2710 0.930 . S
H2702 C2712 0.930 . S
H2703 C2715 0.889 1_545 S
H2704 C2718 0.930 1_565 S
H2705 C2720 0.960 . S
H2706 C2720 0.960 . S
H2707 C2720 0.960 . S
C2708 H2700 0.929 . S
C2708 C2709 1.377 . S
C2708 C2710 1.384 . S
C2709 C2708 1.377 . S
C2709 C2715 1.430 . S
C2710 H2701 0.930 . S
C2710 C2708 1.384 . S
C2710 C2711 1.336 1_565 S
C2711 C2710 1.336 1_545 S
C2711 C2712 1.438 . S
C2711 C2716 1.489 . S
C2712 H2702 0.930 . S
C2712 C2711 1.438 . S
C2712 C2715 1.388 1_545 S
H2713 C2729 0.930 . S
H2714 C2730 0.931 . S
C2715 H2703 0.889 1_565 S
C2715 C2709 1.430 . S
C2715 C2712 1.388 1_565 S
C2716 C2711 1.489 . S
C2716 C2718 1.395 . S
C2716 C2719 1.403 . S
H2717 C2723 0.930 . S
C2718 H2704 0.930 1_545 S
C2718 C2716 1.395 . S
C2718 C2721 1.403 . S
C2719 C2716 1.403 . S
C2719 C2720 1.524 . S
C2719 C2723 1.400 . S
C2720 H2705 0.960 . S
C2720 H2706 0.960 . S
C2720 H2707 0.960 . S
C2720 C2719 1.524 . S
C2721 C2718 1.403 . S
C2721 C2722 1.392 . S
C2721 C2725 1.538 . S
C2722 C2721 1.392 . S
C2722 C2723 1.385 . S
C2722 C2724 1.478 . S
C2723 H2717 0.930 . S
C2723 C2719 1.400 . S
C2723 C2722 1.385 . S
C2724 C2722 1.478 . S
C2724 C2726 1.381 . S
C2724 C2730 1.383 . S
C2725 C2721 1.538 . S
C2725 H2731 0.927 1_545 S
C2725 H2732 0.979 . S
C2725 H2733 0.935 1_545 S
C2726 C2724 1.381 . S
C2726 C2727 1.394 . S
C2726 H2734 0.930 . S
C2727 C2726 1.394 . S
C2727 C2728 1.383 . S
C2727 H2735 0.929 . S
C2728 C2727 1.383 . S
C2728 C2729 1.377 . S
C2729 H2713 0.930 . S
C2729 C2728 1.377 . S
C2729 C2730 1.379 . S
C2730 H2714 0.931 . S
C2730 C2724 1.383 . S
C2730 C2729 1.379 . S
H2731 C2725 0.927 1_565 S
H2732 C2725 0.979 . S
H2733 C2725 0.935 1_565 S
H2734 C2726 0.930 . S
H2735 C2727 0.929 . S
H2736 C2744 0.929 . S
H2737 C2746 0.930 . S
H2738 C2748 0.930 . S
H2739 C2751 0.929 . S
H2740 C2754 0.910 1_455 S
H2741 C2756 0.960 . S
H2742 C2756 0.960 . S
H2743 C2756 0.960 . S
C2744 H2736 0.929 . S
C2744 C2745 1.377 . S
C2744 C2746 1.384 . S
C2745 C2744 1.377 . S
C2745 C2751 1.390 . S
C2746 H2737 0.930 . S
C2746 C2744 1.384 . S
C2746 C2747 1.372 1_455 S
C2747 C2746 1.372 1_655 S
C2747 C2748 1.400 . S
C2747 C2752 1.490 . S
C2748 H2738 0.930 . S
C2748 C2747 1.400 . S
C2748 C2751 1.386 1_655 S
H2749 C2765 0.930 . S
H2750 C2766 0.931 . S
C2751 H2739 0.929 . S
C2751 C2745 1.390 . S
C2751 C2748 1.386 1_455 S
C2752 C2747 1.490 . S
C2752 C2754 1.396 . S
C2752 C2755 1.403 . S
H2753 C2759 0.930 . S
C2754 H2740 0.910 1_655 S
C2754 C2752 1.396 . S
C2754 C2757 1.422 . S
C2755 C2752 1.403 . S
C2755 C2756 1.524 . S
C2755 C2759 1.400 . S
C2756 H2741 0.960 . S
C2756 H2742 0.960 . S
C2756 H2743 0.960 . S
C2756 C2755 1.524 . S
C2757 C2754 1.422 . S
C2757 C2758 1.392 . S
C2757 C2761 1.495 1_655 S
C2758 C2757 1.392 . S
C2758 C2759 1.385 . S
C2758 C2760 1.478 . S
C2759 H2753 0.930 . S
C2759 C2755 1.400 . S
C2759 C2758 1.385 . S
C2760 C2758 1.478 . S
C2760 C2762 1.381 . S
C2760 C2766 1.383 . S
C2761 C2757 1.495 1_455 S
C2761 H2767 0.959 . S
C2761 H2768 0.961 . S
C2761 H2769 0.966 . S
C2762 C2760 1.381 . S
C2762 C2763 1.394 . S
C2762 H2770 0.930 . S
C2763 C2762 1.394 . S
C2763 C2764 1.383 . S
C2763 H2771 0.929 . S
C2764 C2763 1.383 . S
C2764 C2765 1.377 . S
C2765 H2749 0.930 . S
C2765 C2764 1.377 . S
C2765 C2766 1.379 . S
C2766 H2750 0.931 . S
C2766 C2760 1.383 . S
C2766 C2765 1.379 . S
H2767 C2761 0.959 . S
H2768 C2761 0.961 . S
H2769 C2761 0.966 . S
H2770 C2762 0.930 . S
H2771 C2763 0.929 . S
H2772 C2780 0.929 . S
H2773 C2782 0.930 . S
H2774 C2784 0.930 . S
H2775 C2787 0.929 . S
H2776 C2790 0.930 . S
H2777 C2792 0.960 . S
H2778 C2792 0.960 . S
H2779 C2792 0.960 . S
C2780 H2772 0.929 . S
C2780 C2781 1.377 . S
C2780 C2782 1.384 . S
C2781 C2780 1.377 . S
C2781 C2787 1.390 . S
C2782 H2773 0.930 . S
C2782 C2780 1.384 . S
C2782 C2783 1.372 . S
C2783 C2782 1.372 . S
C2783 C2784 1.400 . S
C2783 C2788 1.490 . S
C2784 H2774 0.930 . S
C2784 C2783 1.400 . S
C2784 C2787 1.386 . S
H2785 C2801 0.930 . S
H2786 C2802 0.931 . S
C2787 H2775 0.929 . S
C2787 C2781 1.390 . S
C2787 C2784 1.386 . S
C2788 C2783 1.490 . S
C2788 C2790 1.395 . S
C2788 C2791 1.403 . S
H2789 C2795 0.930 . S
C2790 H2776 0.930 . S
C2790 C2788 1.395 . S
C2790 C2793 1.403 . S
C2791 C2788 1.403 . S
C2791 C2792 1.524 . S
C2791 C2795 1.400 . S
C2792 H2777 0.960 . S
C2792 H2778 0.960 . S
C2792 H2779 0.960 . S
C2792 C2791 1.524 . S
C2793 C2790 1.403 . S
C2793 C2794 1.392 . S
C2793 C2797 1.495 . S
C2794 C2793 1.392 . S
C2794 C2795 1.385 . S
C2794 C2796 1.478 . S
C2795 H2789 0.930 . S
C2795 C2791 1.400 . S
C2795 C2794 1.385 . S
C2796 C2794 1.478 . S
C2796 C2798 1.381 . S
C2796 C2802 1.383 . S
C2797 C2793 1.495 . S
C2797 H2803 0.959 . S
C2797 H2804 0.961 . S
C2797 H2805 0.960 . S
C2798 C2796 1.381 . S
C2798 C2799 1.394 . S
C2798 H2806 0.930 . S
C2799 C2798 1.394 . S
C2799 C2800 1.383 . S
C2799 H2807 0.929 . S
C2800 C2799 1.383 . S
C2800 C2801 1.377 . S
C2801 H2785 0.930 . S
C2801 C2800 1.377 . S
C2801 C2802 1.379 . S
C2802 H2786 0.931 . S
C2802 C2796 1.383 . S
C2802 C2801 1.379 . S
H2803 C2797 0.959 . S
H2804 C2797 0.961 . S
H2805 C2797 0.960 . S
H2806 C2798 0.930 . S
H2807 C2799 0.929 . S
H2808 C2816 0.929 . S
H2809 C2818 0.930 . S
H2810 C2820 0.930 . S
H2811 C2823 0.929 1_565 S
H2812 C2826 0.930 . S
H2813 C2828 0.960 . S
H2814 C2828 0.960 1_545 S
H2815 C2828 0.960 . S
C2816 H2808 0.929 . S
C2816 C2817 1.377 . S
C2816 C2818 1.384 . S
C2817 C2816 1.377 . S
C2817 C2823 1.390 . S
C2818 H2809 0.930 . S
C2818 C2816 1.384 . S
C2818 C2819 1.340 1_545 S
C2819 C2818 1.340 1_565 S
C2819 C2820 1.396 . S
C2819 C2824 1.526 . S
C2820 H2810 0.930 . S
C2820 C2819 1.396 . S
C2820 C2823 1.386 1_565 S
H2821 C2837 0.930 . S
H2822 C2838 0.931 . S
C2823 H2811 0.929 1_545 S
C2823 C2817 1.390 . S
C2823 C2820 1.386 1_545 S
C2824 C2819 1.526 . S
C2824 C2826 1.395 . S
C2824 C2827 1.403 . S
H2825 C2831 0.930 . S
C2826 H2812 0.930 . S
C2826 C2824 1.395 . S
C2826 C2829 1.403 . S
C2827 C2824 1.403 . S
C2827 C2828 1.524 . S
C2827 C2831 1.400 . S
C2828 H2813 0.960 . S
C2828 H2814 0.960 1_565 S
C2828 H2815 0.960 . S
C2828 C2827 1.524 . S
C2829 C2826 1.403 . S
C2829 C2830 1.392 . S
C2829 C2833 1.495 . S
C2830 C2829 1.392 . S
C2830 C2831 1.385 . S
C2830 C2832 1.478 . S
C2831 H2825 0.930 . S
C2831 C2827 1.400 . S
C2831 C2830 1.385 . S
C2832 C2830 1.478 . S
C2832 C2834 1.381 . S
C2832 C2838 1.383 . S
C2833 C2829 1.495 . S
C2833 H2839 0.959 . S
C2833 H2840 0.961 . S
C2833 H2841 0.960 . S
C2834 C2832 1.381 . S
C2834 C2835 1.394 . S
C2834 H2842 0.930 . S
C2835 C2834 1.394 . S
C2835 C2836 1.383 . S
C2835 H2843 0.929 . S
C2836 C2835 1.383 . S
C2836 C2837 1.377 . S
C2837 H2821 0.930 . S
C2837 C2836 1.377 . S
C2837 C2838 1.379 . S
C2838 H2822 0.931 . S
C2838 C2832 1.383 . S
C2838 C2837 1.379 . S
H2839 C2833 0.959 . S
H2840 C2833 0.961 . S
H2841 C2833 0.960 . S
H2842 C2834 0.930 . S
H2843 C2835 0.929 . S
H2844 C2852 0.929 . S
H2845 C2854 0.930 . S
H2846 C2856 0.930 . S
H2847 C2859 0.929 . S
H2848 C2862 0.930 . S
H2849 C2864 0.960 . S
H2850 C2864 0.960 . S
H2851 C2864 0.960 . S
C2852 H2844 0.929 . S
C2852 C2853 1.377 . S
C2852 C2854 1.384 . S
C2853 C2852 1.377 . S
C2853 C2859 1.390 . S
C2854 H2845 0.930 . S
C2854 C2852 1.384 . S
C2854 C2855 1.372 . S
C2855 C2854 1.372 . S
C2855 C2856 1.400 . S
C2855 C2860 1.490 . S
C2856 H2846 0.930 . S
C2856 C2855 1.400 . S
C2856 C2859 1.386 . S
H2857 C2873 0.930 . S
H2858 C2874 0.931 . S
C2859 H2847 0.929 . S
C2859 C2853 1.390 . S
C2859 C2856 1.386 . S
C2860 C2855 1.490 . S
C2860 C2862 1.395 . S
C2860 C2863 1.403 . S
H2861 C2867 0.930 . S
C2862 H2848 0.930 . S
C2862 C2860 1.395 . S
C2862 C2865 1.403 . S
C2863 C2860 1.403 . S
C2863 C2864 1.524 . S
C2863 C2867 1.400 . S
C2864 H2849 0.960 . S
C2864 H2850 0.960 . S
C2864 H2851 0.960 . S
C2864 C2863 1.524 . S
C2865 C2862 1.403 . S
C2865 C2866 1.392 . S
C2865 C2869 1.495 . S
C2866 C2865 1.392 . S
C2866 C2867 1.385 . S
C2866 C2868 1.478 . S
C2867 H2861 0.930 . S
C2867 C2863 1.400 . S
C2867 C2866 1.385 . S
C2868 C2866 1.478 . S
C2868 C2870 1.381 . S
C2868 C2874 1.383 1_455 S
C2869 C2865 1.495 . S
C2869 H2875 0.959 . S
C2869 H2876 0.961 . S
C2869 H2877 0.960 . S
C2870 C2868 1.381 . S
C2870 C2871 1.394 . S
C2870 H2878 0.930 . S
C2871 C2870 1.394 . S
C2871 C2872 1.383 1_455 S
C2871 H2879 0.929 . S
C2872 C2871 1.383 1_655 S
C2872 C2873 1.377 . S
C2873 H2857 0.930 . S
C2873 C2872 1.377 . S
C2873 C2874 1.379 . S
C2874 H2858 0.931 . S
C2874 C2868 1.383 1_655 S
C2874 C2873 1.379 . S
H2875 C2869 0.959 . S
H2876 C2869 0.961 . S
H2877 C2869 0.960 . S
H2878 C2870 0.930 . S
H2879 C2871 0.929 . S
H2880 C2888 0.929 . S
H2881 C2890 0.930 . S
H2882 C2892 0.930 . S
H2883 C2895 0.929 . S
H2884 C2898 0.930 . S
H2885 C2900 0.960 . S
H2886 C2900 0.960 . S
H2887 C2900 0.960 . S
C2888 H2880 0.929 . S
C2888 C2889 1.377 . S
C2888 C2890 1.384 . S
C2889 C2888 1.377 . S
C2889 C2895 1.390 . S
C2890 H2881 0.930 . S
C2890 C2888 1.384 . S
C2890 C2891 1.372 . S
C2891 C2890 1.372 . S
C2891 C2892 1.400 . S
C2891 C2896 1.490 . S
C2892 H2882 0.930 . S
C2892 C2891 1.400 . S
C2892 C2895 1.386 . S
H2893 C2909 0.930 . S
H2894 C2910 0.931 . S
C2895 H2883 0.929 . S
C2895 C2889 1.390 . S
C2895 C2892 1.386 . S
C2896 C2891 1.490 . S
C2896 C2898 1.395 . S
C2896 C2899 1.403 . S
H2897 C2903 0.930 . S
C2898 H2884 0.930 . S
C2898 C2896 1.395 . S
C2898 C2901 1.403 1_655 S
C2899 C2896 1.403 . S
C2899 C2900 1.524 . S
C2899 C2903 1.400 1_655 S
C2900 H2885 0.960 . S
C2900 H2886 0.960 . S
C2900 H2887 0.960 . S
C2900 C2899 1.524 . S
C2901 C2898 1.403 1_455 S
C2901 C2902 1.392 . S
C2901 C2905 1.495 . S
C2902 C2901 1.392 . S
C2902 C2903 1.385 . S
C2902 C2904 1.478 . S
C2903 H2897 0.930 . S
C2903 C2899 1.400 1_455 S
C2903 C2902 1.385 . S
C2904 C2902 1.478 . S
C2904 C2906 1.381 . S
C2904 C2910 1.383 . S
C2905 C2901 1.495 . S
C2905 H2911 0.959 . S
C2905 H2912 0.961 . S
C2905 H2913 0.960 . S
C2906 C2904 1.381 . S
C2906 C2907 1.394 . S
C2906 H2914 0.930 . S
C2907 C2906 1.394 . S
C2907 C2908 1.383 . S
C2907 H2915 0.929 . S
C2908 C2907 1.383 . S
C2908 C2909 1.377 . S
C2909 H2893 0.930 . S
C2909 C2908 1.377 . S
C2909 C2910 1.379 . S
C2910 H2894 0.931 . S
C2910 C2904 1.383 . S
C2910 C2909 1.379 . S
H2911 C2905 0.959 . S
H2912 C2905 0.961 . S
H2913 C2905 0.960 . S
H2914 C2906 0.930 . S
H2915 C2907 0.929 . S
H2916 C2924 0.929 . S
H2917 C2926 0.930 . S
H2918 C2928 0.930 . S
H2919 C2931 0.929 . S
H2920 C2934 0.930 . S
H2921 C2936 0.960 . S
H2922 C2936 0.960 . S
H2923 C2936 0.960 . S
C2924 H2916 0.929 . S
C2924 C2925 1.377 . S
C2924 C2926 1.384 . S
C2925 C2924 1.377 . S
C2925 C2931 1.390 . S
C2926 H2917 0.930 . S
C2926 C2924 1.384 . S
C2926 C2927 1.372 . S
C2927 C2926 1.372 . S
C2927 C2928 1.400 . S
C2927 C2932 1.490 . S
C2928 H2918 0.930 . S
C2928 C2927 1.400 . S
C2928 C2931 1.386 . S
H2929 C2945 0.930 . S
H2930 C2946 0.931 . S
C2931 H2919 0.929 . S
C2931 C2925 1.390 . S
C2931 C2928 1.386 . S
C2932 C2927 1.490 . S
C2932 C2934 1.395 . S
C2932 C2935 1.403 . S
H2933 C2939 0.930 . S
C2934 H2920 0.930 . S
C2934 C2932 1.395 . S
C2934 C2937 1.403 . S
C2935 C2932 1.403 . S
C2935 C2936 1.524 . S
C2935 C2939 1.400 . S
C2936 H2921 0.960 . S
C2936 H2922 0.960 . S
C2936 H2923 0.960 . S
C2936 C2935 1.524 . S
C2937 C2934 1.403 . S
C2937 C2938 1.392 . S
C2937 C2941 1.495 . S
C2938 C2937 1.392 . S
C2938 C2939 1.385 . S
C2938 C2940 1.478 . S
C2939 H2933 0.930 . S
C2939 C2935 1.400 . S
C2939 C2938 1.385 . S
C2940 C2938 1.478 . S
C2940 C2942 1.381 . S
C2940 C2946 1.383 . S
C2941 C2937 1.495 . S
C2941 H2947 0.959 . S
C2941 H2948 0.961 . S
C2941 H2949 0.960 . S
C2942 C2940 1.381 . S
C2942 C2943 1.394 . S
C2942 H2950 0.930 . S
C2943 C2942 1.394 . S
C2943 C2944 1.383 . S
C2943 H2951 0.929 . S
C2944 C2943 1.383 . S
C2944 C2945 1.377 . S
C2945 H2929 0.930 . S
C2945 C2944 1.377 . S
C2945 C2946 1.379 . S
C2946 H2930 0.931 . S
C2946 C2940 1.383 . S
C2946 C2945 1.379 . S
H2947 C2941 0.959 . S
H2948 C2941 0.961 . S
H2949 C2941 0.960 . S
H2950 C2942 0.930 . S
H2951 C2943 0.929 . S
H2952 C2960 0.929 . S
H2953 C2962 0.930 . S
H2954 C2964 0.930 . S
H2955 C2967 0.929 . S
H2956 C2970 0.930 . S
H2957 C2972 0.960 . S
H2958 C2972 0.960 . S
H2959 C2972 0.960 . S
C2960 H2952 0.929 . S
C2960 C2961 1.377 . S
C2960 C2962 1.384 . S
C2961 C2960 1.377 . S
C2961 C2967 1.390 . S
C2962 H2953 0.930 . S
C2962 C2960 1.384 . S
C2962 C2963 1.372 . S
C2963 C2962 1.372 . S
C2963 C2964 1.400 . S
C2963 C2968 1.490 . S
C2964 H2954 0.930 . S
C2964 C2963 1.400 . S
C2964 C2967 1.386 . S
H2965 C2981 0.930 . S
H2966 C2982 0.931 . S
C2967 H2955 0.929 . S
C2967 C2961 1.390 . S
C2967 C2964 1.386 . S
C2968 C2963 1.490 . S
C2968 C2970 1.395 . S
C2968 C2971 1.403 . S
H2969 C2975 0.930 . S
C2970 H2956 0.930 . S
C2970 C2968 1.395 . S
C2970 C2973 1.403 1_565 S
C2971 C2968 1.403 . S
C2971 C2972 1.524 . S
C2971 C2975 1.400 1_565 S
C2972 H2957 0.960 . S
C2972 H2958 0.960 . S
C2972 H2959 0.960 . S
C2972 C2971 1.524 . S
C2973 C2970 1.403 1_545 S
C2973 C2974 1.392 . S
C2973 C2977 1.495 . S
C2974 C2973 1.392 . S
C2974 C2975 1.385 . S
C2974 C2976 1.478 . S
C2975 H2969 0.930 . S
C2975 C2971 1.400 1_545 S
C2975 C2974 1.385 . S
C2976 C2974 1.478 . S
C2976 C2978 1.381 . S
C2976 C2982 1.383 . S
C2977 C2973 1.495 . S
C2977 H2983 0.959 . S
C2977 H2984 0.961 . S
C2977 H2985 0.960 . S
C2978 C2976 1.381 . S
C2978 C2979 1.394 . S
C2978 H2986 0.930 . S
C2979 C2978 1.394 . S
C2979 C2980 1.383 . S
C2979 H2987 0.929 . S
C2980 C2979 1.383 . S
C2980 C2981 1.377 . S
C2981 H2965 0.930 . S
C2981 C2980 1.377 . S
C2981 C2982 1.379 . S
C2982 H2966 0.931 . S
C2982 C2976 1.383 . S
C2982 C2981 1.379 . S
H2983 C2977 0.959 . S
H2984 C2977 0.961 . S
H2985 C2977 0.960 . S
H2986 C2978 0.930 . S
H2987 C2979 0.929 . S
H2988 C2996 0.929 . S
H2989 C2998 0.930 . S
H2990 C3000 0.930 . S
H2991 C3003 0.929 . S
H2992 C3006 0.930 . S
H2993 C3008 0.960 . S
H2994 C3008 0.960 . S
H2995 C3008 0.960 . S
C2996 H2988 0.929 . S
C2996 C2997 1.377 . S
C2996 C2998 1.384 . S
C2997 C2996 1.377 . S
C2997 C3003 1.390 . S
C2998 H2989 0.930 . S
C2998 C2996 1.384 . S
C2998 C2999 1.372 . S
C2999 C2998 1.372 . S
C2999 C3000 1.400 . S
C2999 C3004 1.490 . S
C3000 H2990 0.930 . S
C3000 C2999 1.400 . S
C3000 C3003 1.386 . S
H3001 C3017 0.930 . S
H3002 C3018 0.931 . S
C3003 H2991 0.929 . S
C3003 C2997 1.390 . S
C3003 C3000 1.386 . S
C3004 C2999 1.490 . S
C3004 C3006 1.395 . S
C3004 C3007 1.403 . S
H3005 C3011 0.930 . S
C3006 H2992 0.930 . S
C3006 C3004 1.395 . S
C3006 C3009 1.403 1_565 S
C3007 C3004 1.403 . S
C3007 C3008 1.524 . S
C3007 C3011 1.400 1_565 S
C3008 H2993 0.960 . S
C3008 H2994 0.960 . S
C3008 H2995 0.960 . S
C3008 C3007 1.524 . S
C3009 C3006 1.403 1_545 S
C3009 C3010 1.392 . S
C3009 C3013 1.495 . S
C3010 C3009 1.392 . S
C3010 C3011 1.385 . S
C3010 C3012 1.478 . S
C3011 H3005 0.930 . S
C3011 C3007 1.400 1_545 S
C3011 C3010 1.385 . S
C3012 C3010 1.478 . S
C3012 C3014 1.381 . S
C3012 C3018 1.383 . S
C3013 C3009 1.495 . S
C3013 H3019 0.959 . S
C3013 H3020 0.961 . S
C3013 H3021 0.960 . S
C3014 C3012 1.381 . S
C3014 C3015 1.394 . S
C3014 H3022 0.930 . S
C3015 C3014 1.394 . S
C3015 C3016 1.383 . S
C3015 H3023 0.929 . S
C3016 C3015 1.383 . S
C3016 C3017 1.377 . S
C3017 H3001 0.930 . S
C3017 C3016 1.377 . S
C3017 C3018 1.379 . S
C3018 H3002 0.931 . S
C3018 C3012 1.383 . S
C3018 C3017 1.379 . S
H3019 C3013 0.959 . S
H3020 C3013 0.961 . S
H3021 C3013 0.960 . S
H3022 C3014 0.930 . S
H3023 C3015 0.929 . S
H3024 C3032 0.929 . S
H3025 C3034 0.930 . S
H3026 C3036 0.930 . S
H3027 C3039 0.929 . S
H3028 C3042 0.930 . S
H3029 C3044 0.960 . S
H3030 C3044 0.960 . S
H3031 C3044 0.960 . S
C3032 H3024 0.929 . S
C3032 C3033 1.377 . S
C3032 C3034 1.384 . S
C3033 C3032 1.377 . S
C3033 C3039 1.390 . S
C3034 H3025 0.930 . S
C3034 C3032 1.384 . S
C3034 C3035 1.372 . S
C3035 C3034 1.372 . S
C3035 C3036 1.400 . S
C3035 C3040 1.490 . S
C3036 H3026 0.930 . S
C3036 C3035 1.400 . S
C3036 C3039 1.386 . S
H3037 C3053 0.930 . S
H3038 C3054 0.931 . S
C3039 H3027 0.929 . S
C3039 C3033 1.390 . S
C3039 C3036 1.386 . S
C3040 C3035 1.490 . S
C3040 C3042 1.395 . S
C3040 C3043 1.403 . S
H3041 C3047 0.930 . S
C3042 H3028 0.930 . S
C3042 C3040 1.395 . S
C3042 C3045 1.403 1_655 S
C3043 C3040 1.403 . S
C3043 C3044 1.524 . S
C3043 C3047 1.400 1_655 S
C3044 H3029 0.960 . S
C3044 H3030 0.960 . S
C3044 H3031 0.960 . S
C3044 C3043 1.524 . S
C3045 C3042 1.403 1_455 S
C3045 C3046 1.392 . S
C3045 C3049 1.495 . S
C3046 C3045 1.392 . S
C3046 C3047 1.385 . S
C3046 C3048 1.478 . S
C3047 H3041 0.930 . S
C3047 C3043 1.400 1_455 S
C3047 C3046 1.385 . S
C3048 C3046 1.478 . S
C3048 C3050 1.381 . S
C3048 C3054 1.383 . S
C3049 C3045 1.495 . S
C3049 H3055 0.959 . S
C3049 H3056 0.961 . S
C3049 H3057 0.960 . S
C3050 C3048 1.381 . S
C3050 C3051 1.394 . S
C3050 H3058 0.930 . S
C3051 C3050 1.394 . S
C3051 C3052 1.383 . S
C3051 H3059 0.929 . S
C3052 C3051 1.383 . S
C3052 C3053 1.377 . S
C3053 H3037 0.930 . S
C3053 C3052 1.377 . S
C3053 C3054 1.379 . S
C3054 H3038 0.931 . S
C3054 C3048 1.383 . S
C3054 C3053 1.379 . S
H3055 C3049 0.959 . S
H3056 C3049 0.961 . S
H3057 C3049 0.960 . S
H3058 C3050 0.930 . S
H3059 C3051 0.929 . S
H3060 C3068 0.929 . S
H3061 C3070 0.930 . S
H3062 C3072 0.930 . S
H3063 C3075 0.929 . S
H3064 C3078 0.930 . S
H3065 C3080 0.960 . S
H3066 C3080 0.960 . S
H3067 C3080 0.960 . S
C3068 H3060 0.929 . S
C3068 C3069 1.377 . S
C3068 C3070 1.384 . S
C3069 C3068 1.377 . S
C3069 C3075 1.390 . S
C3070 H3061 0.930 . S
C3070 C3068 1.384 . S
C3070 C3071 1.372 . S
C3071 C3070 1.372 . S
C3071 C3072 1.400 . S
C3071 C3076 1.490 . S
C3072 H3062 0.930 . S
C3072 C3071 1.400 . S
C3072 C3075 1.386 . S
H3073 C3089 0.930 . S
H3074 C3090 0.931 . S
C3075 H3063 0.929 . S
C3075 C3069 1.390 . S
C3075 C3072 1.386 . S
C3076 C3071 1.490 . S
C3076 C3078 1.395 . S
C3076 C3079 1.403 . S
H3077 C3083 0.930 . S
C3078 H3064 0.930 . S
C3078 C3076 1.395 . S
C3078 C3081 1.403 . S
C3079 C3076 1.403 . S
C3079 C3080 1.524 . S
C3079 C3083 1.400 . S
C3080 H3065 0.960 . S
C3080 H3066 0.960 . S
C3080 H3067 0.960 . S
C3080 C3079 1.524 . S
C3081 C3078 1.403 . S
C3081 C3082 1.392 . S
C3081 C3085 1.495 . S
C3082 C3081 1.392 . S
C3082 C3083 1.385 . S
C3082 C3084 1.478 . S
C3083 H3077 0.930 . S
C3083 C3079 1.400 . S
C3083 C3082 1.385 . S
C3084 C3082 1.478 . S
C3084 C3086 1.381 . S
C3084 C3090 1.383 . S
C3085 C3081 1.495 . S
C3085 H3091 0.959 . S
C3085 H3092 0.961 . S
C3085 H3093 0.960 . S
C3086 C3084 1.381 . S
C3086 C3087 1.394 . S
C3086 H3094 0.930 . S
C3087 C3086 1.394 . S
C3087 C3088 1.383 . S
C3087 H3095 0.929 . S
C3088 C3087 1.383 . S
C3088 C3089 1.377 . S
C3089 H3073 0.930 . S
C3089 C3088 1.377 . S
C3089 C3090 1.379 . S
C3090 H3074 0.931 . S
C3090 C3084 1.383 . S
C3090 C3089 1.379 . S
H3091 C3085 0.959 . S
H3092 C3085 0.961 . S
H3093 C3085 0.960 . S
H3094 C3086 0.930 . S
H3095 C3087 0.929 . S
C513 C0 1.562 . S
C532 C265 1.554 . S
C549 C15 1.563 . S
C568 C267 1.553 . S
C585 C293 1.565 . S
C604 C41 1.563 . S
C621 C55 1.564 . S
C640 C462 1.565 . S
C657 C476 1.566 . S
C676 C57 1.562 . S
C693 C71 1.563 . S
C712 C490 1.564 . S
C729 C349 1.563 . S
C748 C97 1.561 . S
C765 C99 1.565 . S
C784 C362 1.559 . S
C801 C125 1.565 . S
C820 C376 1.567 . S
C837 C139 1.565 . S
C856 C223 1.556 . S
C873 C236 1.562 . S
C892 C140 1.554 . S
C909 C154 1.565 . S
C928 C251 1.567 . S
C945 C168 1.564 . S
C964 C420 1.556 . S
C981 C183 1.562 . S
C1000 C435 1.556 . S
C1017 C209 1.565 . S
C1036 C461 1.568 . S
C1053 C294 1.565 . S
C1072 C391 1.557 . S
C1089 C308 1.563 . S
C1108 C393 1.555 . S
C1125 C322 1.563 . S
C1144 C418 1.559 . S
C1161 C98 1.636 . S
C1180 C13 1.621 . S
C1197 C124 1.636 . S
C1216 C26 1.621 . S
C1233 C28 1.619 . S
C1252 C96 1.635 . S
C1269 C155 1.636 . S
C1288 C42 1.604 . S
C1305 C138 1.635 . S
C1324 C68 1.627 . S
C1341 C141 1.636 . S
C1360 C82 1.619 . S
C1377 C84 1.618 . S
C1396 C14 1.629 . S
C1413 C110 1.616 . S
C1432 C40 1.627 . S
C1449 C112 1.621 . S
C1468 C1 1.635 . S
C1485 C126 1.622 . S
C1504 C70 1.635 . S
C1521 C54 1.636 . S
C1540 C153 1.629 . S
C1557 C56 1.634 . S
C1576 C167 1.600 . S
C1593 C181 1.616 . S
C1612 C266 1.633 . S
C1629 C194 1.615 . S
C1648 C292 1.631 . S
C1665 C196 1.621 . S
C1684 C264 1.630 . S
C1701 C323 1.634 . S
C1720 C210 1.628 . S
C1737 C225 1.621 . S
C1756 C295 1.633 . S
C1773 C309 1.635 . S
C1792 C238 1.626 . S
C1809 C252 1.621 . S
C1828 C182 1.636 . S
C1845 C208 1.635 . S
C1864 C278 1.623 . S
C1881 C169 1.636 . S
C1900 C280 1.629 . S
C1917 C307 1.620 . S
C1936 C250 1.635 . S
C1953 C321 1.620 . S
C1972 C222 1.634 . S
C1989 C335 1.616 . S
C2008 C237 1.629 . S
C2025 C434 1.635 . S
C2044 C336 1.600 . S
C2061 C351 1.616 . S
C2080 C460 1.635 . S
C2097 C365 1.617 . S
C2116 C421 1.633 . S
C2133 C491 1.636 . S
C2152 C378 1.603 . S
C2169 C463 1.636 . S
C2188 C404 1.610 . S
C2205 C477 1.635 . S
C2224 C407 1.605 . S
C2241 C363 1.635 . S
C2260 C433 1.605 . S
C2277 C377 1.636 . S
C2296 C446 1.626 . S
C2313 C348 1.635 . S
C2332 C448 1.614 . S
C2349 C475 1.616 . S
C2368 C419 1.629 . S
C2385 C390 1.636 . S
C2404 C489 1.627 . S
C2421 C503 1.615 . S
C2440 C392 1.627 . S
C2457 C12 1.748 . S
C2476 C406 1.729 . S
C2493 C379 1.751 . S
C2512 C27 1.736 . S
C2529 C29 1.751 . S
C2548 C405 1.733 . S
C2565 C43 1.746 . S
C2584 C195 1.750 . S
C2601 C197 1.751 . S
C2620 C69 1.733 . S
C2637 C83 1.750 . S
C2656 C180 1.729 . S
C2673 C334 1.750 . S
C2692 C85 1.746 . S
C2709 C111 1.744 . S
C2728 C306 1.731 . S
C2745 C113 1.745 . S
C2764 C320 1.736 . S
C2781 C127 1.748 . S
C2800 C447 1.751 . S
C2817 C152 1.746 . S
C2836 C449 1.734 . S
C2853 C432 1.751 . S
C2872 C166 1.757 . S
C2889 C211 1.746 . S
C2908 C350 1.753 . S
C2925 C364 1.748 . S
C2944 C224 1.730 . S
C2961 C337 1.747 . S
C2980 C239 1.757 . S
C2997 C502 1.750 . S
C3016 C253 1.754 . S
C3033 C279 1.749 . S
C3052 C474 1.757 . S
C3069 C281 1.745 . S
C3088 C488 1.735 . S
