# Generated by pormake.
# Topology soh, (5)-cn, num edge types: 1
# Building blocks:
#     Node 0, Type 0, BuildingBlock: XOMCOT_clean_sbu_1, # of connection points: 5
#     Node 1, Type 0, BuildingBlock: XOMCOT_clean_sbu_1, # of connection points: 5
#     Node 2, Type 0, BuildingBlock: XOMCOT_clean_sbu_1, # of connection points: 5
#     Node 3, Type 0, BuildingBlock: XOMCOT_clean_sbu_1, # of connection points: 5
#     Node 4, Type 0, BuildingBlock: XOMCOT_clean_sbu_1, # of connection points: 5
#     Node 5, Type 0, BuildingBlock: XOMCOT_clean_sbu_1, # of connection points: 5
#     Node 6, Type 0, BuildingBlock: XOMCOT_clean_sbu_1, # of connection points: 5
#     Node 7, Type 0, BuildingBlock: XOMCOT_clean_sbu_1, # of connection points: 5
#     Node 8, Type 0, BuildingBlock: XOMCOT_clean_sbu_1, # of connection points: 5
#     Node 9, Type 0, BuildingBlock: XOMCOT_clean_sbu_1, # of connection points: 5
#     Node 10, Type 0, BuildingBlock: XOMCOT_clean_sbu_1, # of connection points: 5
#     Node 11, Type 0, BuildingBlock: XOMCOT_clean_sbu_1, # of connection points: 5
#     Node 12, Type 0, BuildingBlock: XOMCOT_clean_sbu_1, # of connection points: 5
#     Node 13, Type 0, BuildingBlock: XOMCOT_clean_sbu_1, # of connection points: 5
#     Node 14, Type 0, BuildingBlock: XOMCOT_clean_sbu_1, # of connection points: 5
#     Node 15, Type 0, BuildingBlock: XOMCOT_clean_sbu_1, # of connection points: 5
#     Node 16, Type 0, BuildingBlock: XOMCOT_clean_sbu_1, # of connection points: 5
#     Node 17, Type 0, BuildingBlock: XOMCOT_clean_sbu_1, # of connection points: 5
#     Node 18, Type 0, BuildingBlock: XOMCOT_clean_sbu_1, # of connection points: 5
#     Node 19, Type 0, BuildingBlock: XOMCOT_clean_sbu_1, # of connection points: 5
#     Node 20, Type 0, BuildingBlock: XOMCOT_clean_sbu_1, # of connection points: 5
#     Node 21, Type 0, BuildingBlock: XOMCOT_clean_sbu_1, # of connection points: 5
#     Node 22, Type 0, BuildingBlock: XOMCOT_clean_sbu_1, # of connection points: 5
#     Node 23, Type 0, BuildingBlock: XOMCOT_clean_sbu_1, # of connection points: 5
#     Node 24, Type 0, BuildingBlock: XOMCOT_clean_sbu_1, # of connection points: 5
#     Node 25, Type 0, BuildingBlock: XOMCOT_clean_sbu_1, # of connection points: 5
#     Node 26, Type 0, BuildingBlock: XOMCOT_clean_sbu_1, # of connection points: 5
#     Node 27, Type 0, BuildingBlock: XOMCOT_clean_sbu_1, # of connection points: 5
#     Node 28, Type 0, BuildingBlock: XOMCOT_clean_sbu_1, # of connection points: 5
#     Node 29, Type 0, BuildingBlock: XOMCOT_clean_sbu_1, # of connection points: 5
#     Node 30, Type 0, BuildingBlock: XOMCOT_clean_sbu_1, # of connection points: 5
#     Node 31, Type 0, BuildingBlock: XOMCOT_clean_sbu_1, # of connection points: 5
#     Edge 32, Type (0, 0), BuildingBlock: CIFDUS_clean_linker_0, # of connection points: 2
#     Edge 33, Type (0, 0), BuildingBlock: CIFDUS_clean_linker_0, # of connection points: 2
#     Edge 34, Type (0, 0), BuildingBlock: CIFDUS_clean_linker_0, # of connection points: 2
#     Edge 35, Type (0, 0), BuildingBlock: CIFDUS_clean_linker_0, # of connection points: 2
#     Edge 36, Type (0, 0), BuildingBlock: CIFDUS_clean_linker_0, # of connection points: 2
#     Edge 37, Type (0, 0), BuildingBlock: CIFDUS_clean_linker_0, # of connection points: 2
#     Edge 38, Type (0, 0), BuildingBlock: CIFDUS_clean_linker_0, # of connection points: 2
#     Edge 39, Type (0, 0), BuildingBlock: CIFDUS_clean_linker_0, # of connection points: 2
#     Edge 40, Type (0, 0), BuildingBlock: CIFDUS_clean_linker_0, # of connection points: 2
#     Edge 41, Type (0, 0), BuildingBlock: CIFDUS_clean_linker_0, # of connection points: 2
#     Edge 42, Type (0, 0), BuildingBlock: CIFDUS_clean_linker_0, # of connection points: 2
#     Edge 43, Type (0, 0), BuildingBlock: CIFDUS_clean_linker_0, # of connection points: 2
#     Edge 44, Type (0, 0), BuildingBlock: CIFDUS_clean_linker_0, # of connection points: 2
#     Edge 45, Type (0, 0), BuildingBlock: CIFDUS_clean_linker_0, # of connection points: 2
#     Edge 46, Type (0, 0), BuildingBlock: CIFDUS_clean_linker_0, # of connection points: 2
#     Edge 47, Type (0, 0), BuildingBlock: CIFDUS_clean_linker_0, # of connection points: 2
#     Edge 48, Type (0, 0), BuildingBlock: CIFDUS_clean_linker_0, # of connection points: 2
#     Edge 49, Type (0, 0), BuildingBlock: CIFDUS_clean_linker_0, # of connection points: 2
#     Edge 50, Type (0, 0), BuildingBlock: CIFDUS_clean_linker_0, # of connection points: 2
#     Edge 51, Type (0, 0), BuildingBlock: CIFDUS_clean_linker_0, # of connection points: 2
#     Edge 52, Type (0, 0), BuildingBlock: CIFDUS_clean_linker_0, # of connection points: 2
#     Edge 53, Type (0, 0), BuildingBlock: CIFDUS_clean_linker_0, # of connection points: 2
#     Edge 54, Type (0, 0), BuildingBlock: CIFDUS_clean_linker_0, # of connection points: 2
#     Edge 55, Type (0, 0), BuildingBlock: CIFDUS_clean_linker_0, # of connection points: 2
#     Edge 56, Type (0, 0), BuildingBlock: CIFDUS_clean_linker_0, # of connection points: 2
#     Edge 57, Type (0, 0), BuildingBlock: CIFDUS_clean_linker_0, # of connection points: 2
#     Edge 58, Type (0, 0), BuildingBlock: CIFDUS_clean_linker_0, # of connection points: 2
#     Edge 59, Type (0, 0), BuildingBlock: CIFDUS_clean_linker_0, # of connection points: 2
#     Edge 60, Type (0, 0), BuildingBlock: CIFDUS_clean_linker_0, # of connection points: 2
#     Edge 61, Type (0, 0), BuildingBlock: CIFDUS_clean_linker_0, # of connection points: 2
#     Edge 62, Type (0, 0), BuildingBlock: CIFDUS_clean_linker_0, # of connection points: 2
#     Edge 63, Type (0, 0), BuildingBlock: CIFDUS_clean_linker_0, # of connection points: 2
#     Edge 64, Type (0, 0), BuildingBlock: CIFDUS_clean_linker_0, # of connection points: 2
#     Edge 65, Type (0, 0), BuildingBlock: CIFDUS_clean_linker_0, # of connection points: 2
#     Edge 66, Type (0, 0), BuildingBlock: CIFDUS_clean_linker_0, # of connection points: 2
#     Edge 67, Type (0, 0), BuildingBlock: CIFDUS_clean_linker_0, # of connection points: 2
#     Edge 68, Type (0, 0), BuildingBlock: CIFDUS_clean_linker_0, # of connection points: 2
#     Edge 69, Type (0, 0), BuildingBlock: CIFDUS_clean_linker_0, # of connection points: 2
#     Edge 70, Type (0, 0), BuildingBlock: CIFDUS_clean_linker_0, # of connection points: 2
#     Edge 71, Type (0, 0), BuildingBlock: CIFDUS_clean_linker_0, # of connection points: 2
#     Edge 72, Type (0, 0), BuildingBlock: CIFDUS_clean_linker_0, # of connection points: 2
#     Edge 73, Type (0, 0), BuildingBlock: CIFDUS_clean_linker_0, # of connection points: 2
#     Edge 74, Type (0, 0), BuildingBlock: CIFDUS_clean_linker_0, # of connection points: 2
#     Edge 75, Type (0, 0), BuildingBlock: CIFDUS_clean_linker_0, # of connection points: 2
#     Edge 76, Type (0, 0), BuildingBlock: CIFDUS_clean_linker_0, # of connection points: 2
#     Edge 77, Type (0, 0), BuildingBlock: CIFDUS_clean_linker_0, # of connection points: 2
#     Edge 78, Type (0, 0), BuildingBlock: CIFDUS_clean_linker_0, # of connection points: 2
#     Edge 79, Type (0, 0), BuildingBlock: CIFDUS_clean_linker_0, # of connection points: 2
#     Edge 80, Type (0, 0), BuildingBlock: CIFDUS_clean_linker_0, # of connection points: 2
#     Edge 81, Type (0, 0), BuildingBlock: CIFDUS_clean_linker_0, # of connection points: 2
#     Edge 82, Type (0, 0), BuildingBlock: CIFDUS_clean_linker_0, # of connection points: 2
#     Edge 83, Type (0, 0), BuildingBlock: CIFDUS_clean_linker_0, # of connection points: 2
#     Edge 84, Type (0, 0), BuildingBlock: CIFDUS_clean_linker_0, # of connection points: 2
#     Edge 85, Type (0, 0), BuildingBlock: CIFDUS_clean_linker_0, # of connection points: 2
#     Edge 86, Type (0, 0), BuildingBlock: CIFDUS_clean_linker_0, # of connection points: 2
#     Edge 87, Type (0, 0), BuildingBlock: CIFDUS_clean_linker_0, # of connection points: 2
#     Edge 88, Type (0, 0), BuildingBlock: CIFDUS_clean_linker_0, # of connection points: 2
#     Edge 89, Type (0, 0), BuildingBlock: CIFDUS_clean_linker_0, # of connection points: 2
#     Edge 90, Type (0, 0), BuildingBlock: CIFDUS_clean_linker_0, # of connection points: 2
#     Edge 91, Type (0, 0), BuildingBlock: CIFDUS_clean_linker_0, # of connection points: 2
#     Edge 92, Type (0, 0), BuildingBlock: CIFDUS_clean_linker_0, # of connection points: 2
#     Edge 93, Type (0, 0), BuildingBlock: CIFDUS_clean_linker_0, # of connection points: 2
#     Edge 94, Type (0, 0), BuildingBlock: CIFDUS_clean_linker_0, # of connection points: 2
#     Edge 95, Type (0, 0), BuildingBlock: CIFDUS_clean_linker_0, # of connection points: 2
#     Edge 96, Type (0, 0), BuildingBlock: CIFDUS_clean_linker_0, # of connection points: 2
#     Edge 97, Type (0, 0), BuildingBlock: CIFDUS_clean_linker_0, # of connection points: 2
#     Edge 98, Type (0, 0), BuildingBlock: CIFDUS_clean_linker_0, # of connection points: 2
#     Edge 99, Type (0, 0), BuildingBlock: CIFDUS_clean_linker_0, # of connection points: 2
#     Edge 100, Type (0, 0), BuildingBlock: CIFDUS_clean_linker_0, # of connection points: 2
#     Edge 101, Type (0, 0), BuildingBlock: CIFDUS_clean_linker_0, # of connection points: 2
#     Edge 102, Type (0, 0), BuildingBlock: CIFDUS_clean_linker_0, # of connection points: 2
#     Edge 103, Type (0, 0), BuildingBlock: CIFDUS_clean_linker_0, # of connection points: 2
#     Edge 104, Type (0, 0), BuildingBlock: CIFDUS_clean_linker_0, # of connection points: 2
#     Edge 105, Type (0, 0), BuildingBlock: CIFDUS_clean_linker_0, # of connection points: 2
#     Edge 106, Type (0, 0), BuildingBlock: CIFDUS_clean_linker_0, # of connection points: 2
#     Edge 107, Type (0, 0), BuildingBlock: CIFDUS_clean_linker_0, # of connection points: 2
#     Edge 108, Type (0, 0), BuildingBlock: CIFDUS_clean_linker_0, # of connection points: 2
#     Edge 109, Type (0, 0), BuildingBlock: CIFDUS_clean_linker_0, # of connection points: 2
#     Edge 110, Type (0, 0), BuildingBlock: CIFDUS_clean_linker_0, # of connection points: 2
#     Edge 111, Type (0, 0), BuildingBlock: CIFDUS_clean_linker_0, # of connection points: 2
# Relax obj value: 0.211
# Max RMSD: 0.175
# Mean RMSD: 0.175
data_MOF--net-soh--node1-XOMCOT_clean_sbu_1--edge1-CIFDUS_clean_linker_0
_symmetry_space_group_name_H-M    P1
_symmetry_Int_Tables_number       1
_symmetry_cell_setting            triclinic
loop_
_symmetry_equiv_pos_as_xyz
'x, y, z'
_cell_length_a     74.353659
_cell_length_b     38.785571
_cell_length_c     40.000972
_cell_angle_alpha  90.010598
_cell_angle_beta   90.090168
_cell_angle_gamma 90.157703
loop_
_atom_site_label
_atom_site_type_symbol
_atom_site_fract_x
_atom_site_fract_y
_atom_site_fract_z
_atom_type_partial_charge
C0 C 0.2952 0.37931 0.23074 0.0
C1 C 0.29057 0.39217 0.26146 0.0
N2 N 0.30269 0.38112 0.28408 0.0
N3 N 0.3104 0.36061 0.23358 0.0
C4 C 0.3147 0.36232 0.26646 0.0
H5 H 0.28732 0.38181 0.20814 0.0
Co6 Co 0.31933 0.33128 0.2002 0.0
C7 C 0.35716 0.35787 0.19218 0.0
O8 O 0.3544 0.36151 0.16005 0.0
N9 N 0.32771 0.30006 0.16615 0.0
C10 C 0.33568 0.27742 0.11712 0.0
C11 C 0.33296 0.30729 0.13457 0.0
C12 C 0.32719 0.26496 0.16669 0.0
N13 N 0.33187 0.25042 0.1371 0.0
O14 O 0.32056 0.29526 0.23276 0.0
H15 H 0.33382 0.33263 0.12358 0.0
H16 H 0.32277 0.25024 0.188 0.0
O17 O 0.34453 0.34632 0.211 0.0
C18 C 0.30459 0.2835 0.23556 0.0
O19 O 0.2922 0.29555 0.21522 0.0
N20 N 0.3156 0.36652 0.16854 0.0
C21 C 0.30269 0.41721 0.12514 0.0
C22 C 0.31591 0.4251 0.14913 0.0
C23 C 0.32194 0.39951 0.17108 0.0
C24 C 0.3023 0.35879 0.14619 0.0
C25 C 0.29587 0.38353 0.12394 0.0
H26 H 0.33112 0.40654 0.19092 0.0
H27 H 0.29646 0.33321 0.146 0.0
H28 H 0.32555 0.34773 0.27766 0.0
H29 H 0.2787 0.40725 0.26691 0.0
H30 H 0.33961 0.2763 0.09117 0.0
H31 H 0.32111 0.45107 0.15166 0.0
H32 H 0.28562 0.37628 0.10597 0.0
C33 C 1.01182 0.91146 0.23197 0.0
C34 C 1.01411 0.8976 0.26347 0.0
N35 N 1.00223 0.91269 0.2841 0.0
N36 N 0.99842 0.93488 0.2329 0.0
C37 C 0.99279 0.93471 0.26497 0.0
H38 H 1.02016 0.90633 0.21043 0.0
Co39 Co 0.9913 0.96739 0.20101 0.0
C40 C 0.95226 0.95017 0.19089 0.0
O41 O 0.95361 0.95699 0.15888 0.0
N42 N 0.98415 1.00183 0.16897 0.0
C43 C 0.97841 0.03131 0.12211 0.0
C44 C 0.98195 0.99932 0.13542 0.0
C45 C 0.9817 0.03598 0.17508 0.0
N46 N 0.97833 0.05446 0.14712 0.0
O47 O 0.99099 1.00134 0.23572 0.0
H48 H 0.98277 0.97581 0.12104 0.0
H49 H 0.98293 0.04771 0.19944 0.0
O50 O 0.96602 0.95411 0.20983 0.0
C51 C 1.00727 1.01121 0.23927 0.0
O52 O 1.01937 0.99873 0.21863 0.0
N53 N 0.99428 0.93413 0.16741 0.0
C54 C 1.0066 0.88496 0.12183 0.0
C55 C 0.9912 0.87867 0.14135 0.0
C56 C 0.98541 0.9034 0.16446 0.0
C57 C 1.00946 0.94025 0.14926 0.0
C58 C 1.01573 0.9163 0.12608 0.0
H59 H 0.97439 0.89707 0.1809 0.0
H60 H 1.0169 0.96392 0.15319 0.0
H61 H 0.9827 0.95208 0.2747 0.0
H62 H 1.02458 0.87994 0.27117 0.0
H63 H 0.9761 0.03699 0.09597 0.0
H64 H 0.98405 0.85438 0.1396 0.0
H65 H 1.02761 0.92236 0.1116 0.0
C66 C 0.29235 0.91779 0.03594 0.0
C67 C 0.28664 0.90329 0.00634 0.0
N68 N 0.29908 0.90983 0.98263 0.0
N69 N 0.30844 0.93304 0.03109 0.0
C70 C 0.31223 0.92761 0.9985 0.0
H71 H 0.28481 0.91877 0.05902 0.0
Co72 Co 0.32035 0.96352 0.05974 0.0
C73 C 0.35635 0.93137 0.0665 0.0
O74 O 0.35458 0.93544 0.09897 0.0
N75 N 0.33205 0.99657 0.08745 0.0
C76 C 0.35142 0.03856 0.10038 0.0
C77 C 0.34923 1.00777 0.08416 0.0
C78 C 0.32395 0.02235 0.10479 0.0
N79 N 0.33553 0.0479 0.11325 0.0
O80 O 0.32141 0.99634 0.02404 0.0
H81 H 0.3591 0.99723 0.06734 0.0
H82 H 0.30952 0.02457 0.10741 0.0
O83 O 0.34384 0.94218 0.04694 0.0
C84 C 0.3061 1.01116 0.02394 0.0
O85 O 0.29454 1.00267 0.0474 0.0
N86 N 0.31712 0.93177 0.09541 0.0
C87 C 0.30504 0.88372 0.14258 0.0
C88 C 0.31574 0.87338 0.11561 0.0
C89 C 0.32128 0.89759 0.09194 0.0
C90 C 0.30663 0.9422 0.12149 0.0
C91 C 0.30048 0.91861 0.14542 0.0
H92 H 0.32817 0.88845 0.0699 0.0
H93 H 0.30212 0.96853 0.12292 0.0
H94 H 0.32373 0.93898 0.98612 0.0
H95 H 0.27396 0.89016 1.00242 0.0
H96 H 0.36325 0.0549 0.0993 0.0
H97 H 0.31914 0.84649 0.11202 0.0
H98 H 0.29204 0.92751 0.16569 0.0
C99 C 1.01577 0.39707 0.03693 0.0
C100 C 1.02041 0.41351 0.00766 0.0
N101 N 1.00849 0.40437 0.98376 0.0
N102 N 1.00093 0.37778 0.03156 0.0
C103 C 0.99669 0.38318 0.99915 0.0
H104 H 1.02341 0.39742 0.05994 0.0
Co105 Co 0.99116 0.34348 0.05889 0.0
C106 C 0.95218 0.34939 0.03972 0.0
O107 O 0.95048 0.31616 0.03412 0.0
N108 N 0.9815 0.30844 0.08586 0.0
C109 C 0.96489 0.27629 0.12014 0.0
C110 C 0.96788 0.30923 0.10812 0.0
C111 C 0.98671 0.2751 0.08528 0.0
N112 N 0.97669 0.25479 0.10541 0.0
O113 O 0.99069 0.31281 0.02116 0.0
H114 H 0.96031 0.33208 0.1145 0.0
H115 H 0.99766 0.2657 0.07014 0.0
O116 O 0.9673 0.36157 0.0492 0.0
C117 C 1.00686 0.30285 0.01658 0.0
O118 O 1.01927 0.31373 0.03756 0.0
N119 N 0.99353 0.37247 0.09593 0.0
C120 C 1.00524 0.418 0.14541 0.0
C121 C 0.99101 0.42687 0.12395 0.0
C122 C 0.98542 0.40382 0.09915 0.0
C123 C 1.00691 0.36287 0.11728 0.0
C124 C 1.013 0.38527 0.14222 0.0
H125 H 0.97537 0.41213 0.08147 0.0
H126 H 1.0135 0.33831 0.1138 0.0
H127 H 0.98609 0.36925 0.98637 0.0
H128 H 0.03218 0.4295 1.00393 0.0
H129 H 0.95442 0.26862 0.1374 0.0
H130 H 0.98481 0.45207 0.12524 0.0
H131 H 1.02391 0.3773 0.15842 0.0
C132 C 0.76327 0.6592 0.7782 0.0
C133 C 0.76656 0.64262 0.74836 0.0
N134 N 0.75259 0.64855 0.72763 0.0
N135 N 0.74731 0.67544 0.77616 0.0
C136 C 0.7411 0.66829 0.74523 0.0
H137 H 0.7723 0.66065 0.79939 0.0
Co138 Co 0.73719 0.70665 0.80595 0.0
C139 C 0.69806 0.69658 0.78855 0.0
O140 O 0.69505 0.72969 0.78455 0.0
N141 N 0.72696 0.7384 0.8356 0.0
C142 C 0.70917 0.76362 0.87284 0.0
C143 C 0.71373 0.7328 0.85801 0.0
C144 C 0.73049 0.77259 0.8378 0.0
N145 N 0.71972 0.78864 0.86003 0.0
O146 O 0.73505 0.73938 0.77011 0.0
H147 H 0.70747 0.70805 0.86261 0.0
H148 H 0.74027 0.78581 0.82244 0.0
O149 O 0.71372 0.68624 0.79668 0.0
C150 C 0.75081 0.75142 0.76517 0.0
O151 O 0.76383 0.74157 0.78528 0.0
N152 N 0.74113 0.67562 0.84093 0.0
C153 C 0.75369 0.62897 0.88849 0.0
C154 C 0.73959 0.61996 0.8668 0.0
C155 C 0.73361 0.64354 0.84293 0.0
C156 C 0.7546 0.68511 0.86219 0.0
C157 C 0.76114 0.66212 0.88618 0.0
H158 H 0.72355 0.63528 0.82522 0.0
H159 H 0.76075 0.71028 0.85964 0.0
H160 H 0.72894 0.67944 0.73501 0.0
H161 H 0.77857 0.62833 0.74208 0.0
H162 H 0.69873 0.76739 0.8913 0.0
H163 H 0.73368 0.59441 0.86743 0.0
H164 H 0.77198 0.67011 0.90258 0.0
C165 C 0.04483 0.14042 0.78299 0.0
C166 C 0.04059 0.15411 0.75233 0.0
N167 N 0.05255 0.14236 0.7298 0.0
N168 N 0.05953 0.12036 0.77998 0.0
C169 C 0.06404 0.12238 0.74733 0.0
H170 H 0.03692 0.1431 0.80549 0.0
Co171 Co 0.06796 0.08877 0.81151 0.0
C172 C 0.10687 0.108 0.81959 0.0
O173 O 0.1054 0.10323 0.85188 0.0
N174 N 0.07594 0.05527 0.84367 0.0
C175 C 0.08419 0.02806 0.89061 0.0
C176 C 0.07987 0.05929 0.87661 0.0
C177 C 0.0775 0.02071 0.83888 0.0
N178 N 0.08254 1.00393 0.86685 0.0
O179 O 0.06817 0.0543 0.77713 0.0
H180 H 0.07982 0.08343 0.89009 0.0
H181 H 0.07502 1.00764 0.81547 0.0
O182 O 0.09315 0.10284 0.80074 0.0
C183 C 0.05205 0.04387 0.77265 0.0
O184 O 0.03943 0.05618 0.79226 0.0
N185 N 0.06545 0.12254 0.84465 0.0
C186 C 0.0539 0.17334 0.889 0.0
C187 C 0.0683 0.17963 0.8671 0.0
C188 C 0.07369 0.15405 0.84467 0.0
C189 C 0.05125 0.11624 0.86532 0.0
C190 C 0.04541 0.14106 0.88799 0.0
H191 H 0.08377 0.16031 0.82623 0.0
H192 H 0.04417 0.09189 0.86362 0.0
H193 H 0.07453 0.10695 0.73611 0.0
H194 H 1.02902 0.17 0.74678 0.0
H195 H 0.08793 0.0233 0.91636 0.0
H196 H 0.07485 0.20459 0.86637 0.0
H197 H 0.03426 0.13508 0.9044 0.0
C198 C 0.76636 0.11575 0.9849 0.0
C199 C 0.76951 0.12889 0.01634 0.0
N200 N 0.75514 0.12181 0.03572 0.0
N201 N 0.74997 0.10081 0.98427 0.0
C202 C 0.74346 0.10495 0.01554 0.0
H203 H 0.77573 0.11566 0.96424 0.0
Co204 Co 0.74066 0.07223 0.95059 0.0
C205 C 0.70452 0.10839 0.946 0.0
O206 O 0.70848 0.12056 0.91628 0.0
N207 N 0.73151 0.04126 0.91747 0.0
C208 C 0.71399 1.01074 0.88297 0.0
C209 C 0.71634 0.04194 0.89872 0.0
C210 C 0.73828 1.00932 0.91171 0.0
N211 N 0.72775 0.99011 0.89137 0.0
O212 O 0.73914 0.0358 0.98304 0.0
H213 H 0.70689 0.0627 0.8973 0.0
H214 H 0.75021 0.99938 0.92369 0.0
O215 O 0.71568 0.08858 0.96133 0.0
C216 C 0.75524 0.02456 0.98541 0.0
O217 O 0.76748 0.03816 0.96565 0.0
N218 N 0.74485 0.10749 0.91846 0.0
C219 C 0.75841 0.15798 0.87517 0.0
C220 C 0.74891 0.16726 0.90401 0.0
C221 C 0.74261 0.14173 0.92566 0.0
C222 C 0.75434 0.09809 0.8907 0.0
C223 C 0.76113 0.12289 0.86863 0.0
H224 H 0.73606 0.14954 0.94856 0.0
H225 H 0.75735 0.07126 0.88617 0.0
H226 H 0.73096 0.09355 0.02394 0.0
H227 H 0.7817 0.14171 0.02448 0.0
H228 H 0.70268 1.0034 0.8674 0.0
H229 H 0.74682 0.19411 0.91033 0.0
H230 H 0.76854 0.11468 0.84674 0.0
C231 C 0.04293 0.66892 0.97997 0.0
C232 C 0.04067 0.6527 0.01041 0.0
N233 N 0.05528 0.65926 0.02935 0.0
N234 N 0.05906 0.68497 0.97968 0.0
C235 C 0.0662 0.67861 0.01008 0.0
H236 H 0.03312 0.67037 0.96003 0.0
Co237 Co 0.06851 0.71676 0.94917 0.0
C238 C 0.10398 0.6791 0.94166 0.0
O239 O 0.09996 0.66985 0.91097 0.0
N240 N 0.07817 0.75052 0.9198 0.0
C241 C 0.09607 0.78377 0.88874 0.0
C242 C 0.09407 0.75199 0.90342 0.0
C243 C 0.07072 0.78186 0.91413 0.0
N244 N 0.08138 0.80254 0.89555 0.0
O245 O 0.07034 0.74948 0.98528 0.0
H246 H 0.10413 0.73222 0.90283 0.0
H247 H 0.05803 0.78999 0.92462 0.0
O248 O 0.09313 0.69827 0.9583 0.0
C249 C 0.05434 0.7608 0.98926 0.0
O250 O 0.04186 0.75 0.96837 0.0
N251 N 0.06397 0.68565 0.9132 0.0
C252 C 0.05033 0.64319 0.86265 0.0
C253 C 0.05815 0.62879 0.89123 0.0
C254 C 0.06489 0.65049 0.9163 0.0
C255 C 0.05583 0.6997 0.88576 0.0
C256 C 0.04935 0.67902 0.85989 0.0
H257 H 0.07066 0.63897 0.93847 0.0
H258 H 0.05356 0.7271 0.88418 0.0
H259 H 0.07879 0.68962 0.01862 0.0
H260 H 1.02874 0.63917 0.01875 0.0
H261 H 0.10764 0.79271 0.87477 0.0
H262 H 0.05902 0.60108 0.89417 0.0
H263 H 0.04302 0.69094 0.8384 0.0
C264 C 0.29535 0.8776 0.73529 0.0
C265 C 0.29209 0.89178 0.76631 0.0
N266 N 0.30621 0.88473 0.78636 0.0
N267 N 0.31145 0.86175 0.73588 0.0
C268 C 0.31776 0.86672 0.76717 0.0
H269 H 0.28621 0.87736 0.71423 0.0
Co270 Co 0.32139 0.8322 0.70421 0.0
C271 C 0.36066 0.83917 0.72187 0.0
O272 O 0.36297 0.80567 0.72393 0.0
N273 N 0.33145 0.80176 0.6727 0.0
C274 C 0.34931 0.77849 0.6343 0.0
C275 C 0.34459 0.80856 0.65039 0.0
C276 C 0.32815 0.76757 0.6691 0.0
N277 N 0.33895 0.75269 0.64617 0.0
O278 O 0.32286 0.79733 0.73807 0.0
H279 H 0.35076 0.83358 0.64685 0.0
H280 H 0.31858 0.75334 0.68404 0.0
O281 O 0.34516 0.85114 0.71464 0.0
C282 C 0.30693 0.78503 0.73952 0.0
O283 O 0.29507 0.79615 0.71761 0.0
N284 N 0.31782 0.86551 0.67105 0.0
C285 C 0.30568 0.91513 0.62582 0.0
C286 C 0.31911 0.9231 0.64936 0.0
C287 C 0.3249 0.898 0.67197 0.0
C288 C 0.30495 0.85711 0.64813 0.0
C289 C 0.29869 0.88152 0.62523 0.0
H290 H 0.33439 0.90525 0.69114 0.0
H291 H 0.29908 0.83156 0.6484 0.0
H292 H 0.33004 0.85514 0.77638 0.0
H293 H 0.28002 0.90527 0.77379 0.0
H294 H 0.35979 0.77572 0.61575 0.0
H295 H 0.32464 0.9489 0.65112 0.0
H296 H 0.28841 0.87418 0.60736 0.0
C297 C 1.0138 0.41869 0.736 0.0
C298 C 1.01645 0.40661 0.76798 0.0
N299 N 1.00202 0.41516 0.78654 0.0
N300 N 0.99774 0.43466 0.73442 0.0
C301 C 0.99082 0.43183 0.7655 0.0
H302 H 1.02347 0.41791 0.71585 0.0
Co303 Co 0.98964 0.46356 0.70062 0.0
C304 C 0.95126 0.44067 0.69054 0.0
O305 O 0.95291 0.44455 0.65816 0.0
N306 N 0.98181 0.49469 0.66595 0.0
C307 C 0.97561 0.51845 0.61639 0.0
C308 C 0.97886 0.48824 0.63312 0.0
C309 C 0.98036 0.52957 0.66801 0.0
N310 N 0.97675 0.54476 0.63825 0.0
O311 O 0.98772 0.49934 0.73333 0.0
H312 H 0.97926 0.46315 0.62142 0.0
H313 H 0.98263 0.54393 0.69067 0.0
O314 O 0.96462 0.44775 0.70966 0.0
C315 C 1.00324 0.51325 0.73564 0.0
O316 O 1.01577 0.50362 0.71445 0.0
N317 N 0.994 0.4285 0.66947 0.0
C318 C 1.00706 0.37833 0.62578 0.0
C319 C 0.9924 0.37126 0.64689 0.0
C320 C 0.98624 0.39656 0.66903 0.0
C321 C 1.00865 0.43533 0.65009 0.0
C322 C 1.01524 0.41086 0.62776 0.0
H323 H 0.97574 0.39 0.68652 0.0
H324 H 1.01529 0.4601 0.6521 0.0
H325 H 0.97856 0.44448 0.77327 0.0
H326 H 1.02842 0.39397 0.77723 0.0
H327 H 0.97294 0.52057 0.5899 0.0
H328 H 0.98605 0.3461 0.64695 0.0
H329 H 1.02657 0.41752 0.61203 0.0
C330 C 0.29702 0.41646 0.52998 0.0
C331 C 0.29451 0.40062 0.49953 0.0
N332 N 0.30904 0.4069 0.4803 0.0
N333 N 0.31317 0.43233 0.53015 0.0
C334 C 0.32018 0.426 0.49962 0.0
H335 H 0.28736 0.41772 0.55014 0.0
Co336 Co 0.32187 0.46385 0.56185 0.0
C337 C 0.35816 0.42884 0.56968 0.0
O338 O 0.35436 0.41916 0.60032 0.0
N339 N 0.33049 0.49765 0.59278 0.0
C340 C 0.34754 0.53111 0.62549 0.0
C341 C 0.3456 0.49886 0.61165 0.0
C342 C 0.32335 0.52966 0.5964 0.0
N343 N 0.33358 0.55059 0.61569 0.0
O344 O 0.32342 0.49753 0.5268 0.0
H345 H 0.35526 0.47862 0.61447 0.0
H346 H 0.31135 0.53823 0.58367 0.0
O347 O 0.34695 0.4473 0.55298 0.0
C348 C 0.30724 0.50774 0.52267 0.0
O349 O 0.29487 0.4957 0.54307 0.0
N350 N 0.31768 0.43115 0.59635 0.0
C351 C 0.30391 0.38348 0.64225 0.0
C352 C 0.31397 0.37248 0.6147 0.0
C353 C 0.32038 0.39657 0.59171 0.0
C354 C 0.30769 0.44222 0.62289 0.0
C355 C 0.30074 0.41883 0.64623 0.0
H356 H 0.32729 0.3873 0.56972 0.0
H357 H 0.30437 0.4692 0.62535 0.0
H358 H 0.33259 0.43748 0.49086 0.0
H359 H 0.28258 0.38668 0.49178 0.0
H360 H 0.35865 0.53985 0.64084 0.0
H361 H 0.3164 0.34532 0.61035 0.0
H362 H 0.29287 0.42828 0.66706 0.0
C363 C 1.01276 0.88121 0.53044 0.0
C364 C 1.01529 0.89328 0.49835 0.0
N365 N 1.00258 0.87912 0.47866 0.0
N366 N 0.9983 0.86007 0.53087 0.0
C367 C 0.99241 0.85943 0.49894 0.0
H368 H 1.02146 0.88603 0.55163 0.0
Co369 Co 0.99037 0.83077 0.56485 0.0
C370 C 0.95236 0.85739 0.57117 0.0
O371 O 0.95497 0.86643 0.60236 0.0
N372 N 0.98231 0.79963 0.59898 0.0
C373 C 0.97172 0.77601 0.64595 0.0
C374 C 0.97523 0.80637 0.62943 0.0
C375 C 0.98302 0.76467 0.59806 0.0
N376 N 0.97664 0.74962 0.62617 0.0
O377 O 0.98982 0.79426 0.53254 0.0
H378 H 0.9732 0.83171 0.63987 0.0
H379 H 0.98855 0.75024 0.5775 0.0
O380 O 0.96498 0.84315 0.5543 0.0
C381 C 1.00594 0.78337 0.52955 0.0
O382 O 1.01815 0.79537 0.55036 0.0
N383 N 0.99362 0.86661 0.59611 0.0
C384 C 1.00591 0.91796 0.63957 0.0
C385 C 0.99338 0.92563 0.61433 0.0
C386 C 0.98773 0.89973 0.59231 0.0
C387 C 1.0063 0.85911 0.61969 0.0
C388 C 1.01242 0.8842 0.64196 0.0
H389 H 0.97908 0.90648 0.57159 0.0
H390 H 1.01195 0.83347 0.62085 0.0
H391 H 0.98148 0.84321 0.4903 0.0
H392 H 1.02633 0.90922 0.48973 0.0
H393 H 0.96603 0.77376 0.67073 0.0
H394 H 0.98846 0.95166 0.61097 0.0
H395 H 1.02219 0.87719 0.66086 0.0
C396 C 0.7699 0.16597 0.28373 0.0
C397 C 0.77569 0.15001 0.25496 0.0
N398 N 0.76281 0.15324 0.23135 0.0
N399 N 0.7533 0.17878 0.27854 0.0
C400 C 0.74933 0.1705 0.24655 0.0
H401 H 0.77765 0.16963 0.30637 0.0
Co402 Co 0.74059 0.20995 0.30519 0.0
C403 C 0.70607 0.17254 0.31393 0.0
O404 O 0.70818 0.1768 0.34631 0.0
N405 N 0.72785 0.24362 0.33052 0.0
C406 C 0.70689 0.28238 0.34366 0.0
C407 C 0.71006 0.25089 0.3294 0.0
C408 C 0.7352 0.27233 0.34452 0.0
N409 N 0.72273 0.29621 0.35281 0.0
O410 O 0.73878 0.23999 0.26736 0.0
H411 H 0.69997 0.23664 0.31585 0.0
H412 H 0.74953 0.27711 0.34558 0.0
O413 O 0.71782 0.18518 0.29382 0.0
C414 C 0.75392 0.2556 0.26689 0.0
O415 O 0.76538 0.24923 0.29119 0.0
N416 N 0.74474 0.18149 0.34323 0.0
C417 C 0.75857 0.14104 0.39511 0.0
C418 C 0.75022 0.12558 0.3675 0.0
C419 C 0.74333 0.14627 0.34183 0.0
C420 C 0.75305 0.19666 0.36993 0.0
C421 C 0.75967 0.177 0.39644 0.0
H422 H 0.7376 0.1339 0.32004 0.0
H423 H 0.75552 0.22398 0.3702 0.0
H424 H 0.73737 0.17958 0.23393 0.0
H425 H 0.78873 0.13825 0.25145 0.0
H426 H 0.69398 0.29517 0.34488 0.0
H427 H 0.74922 0.09778 0.36561 0.0
H428 H 0.76633 0.18977 0.41715 0.0
C429 C 0.06468 0.66123 0.27905 0.0
C430 C 0.06442 0.67749 0.24851 0.0
N431 N 0.06932 0.65454 0.22513 0.0
N432 N 0.06989 0.62801 0.27517 0.0
C433 C 0.07273 0.62507 0.2418 0.0
H434 H 0.06074 0.67317 0.30227 0.0
Co435 Co 0.07148 0.59201 0.3074 0.0
C436 C 0.11002 0.59062 0.32944 0.0
O437 O 0.10496 0.57571 0.35733 0.0
N438 N 0.07265 0.55498 0.33916 0.0
C439 C 0.06984 0.52153 0.38434 0.0
C440 C 0.06788 0.5543 0.37185 0.0
C441 C 0.07754 0.52191 0.33276 0.0
N442 N 0.07581 0.50107 0.35965 0.0
O443 O 0.07213 0.55858 0.27195 0.0
H444 H 0.06321 0.57594 0.38631 0.0
H445 H 0.08234 0.51303 0.30878 0.0
O446 O 0.09815 0.59819 0.30736 0.0
C447 C 0.05565 0.55097 0.26661 0.0
O448 O 0.04339 0.56707 0.2843 0.0
N449 N 0.06806 0.62407 0.3419 0.0
C450 C 0.05564 0.66808 0.39211 0.0
C451 C 0.0739 0.66805 0.38271 0.0
C452 C 0.07988 0.64589 0.35735 0.0
C453 C 0.05023 0.62494 0.34966 0.0
C454 C 0.04379 0.64621 0.37491 0.0
H455 H 0.09379 0.64699 0.34991 0.0
H456 H 0.04098 0.60804 0.3367 0.0
H457 H 0.07706 0.6017 0.22954 0.0
H458 H 0.06018 0.7037 0.24369 0.0
H459 H 0.06652 0.51323 0.40942 0.0
H460 H 0.08348 0.68523 0.39456 0.0
H461 H 1.02967 0.64475 0.38133 0.0
C462 C 0.76931 0.62088 0.47894 0.0
C463 C 0.77428 0.63311 0.50978 0.0
N464 N 0.76181 0.62309 0.53222 0.0
N465 N 0.7536 0.60365 0.48162 0.0
C466 C 0.74932 0.60552 0.5144 0.0
H467 H 0.77717 0.62292 0.45631 0.0
Co468 Co 0.74354 0.57583 0.44839 0.0
C469 C 0.70599 0.60356 0.443 0.0
O470 O 0.70837 0.60783 0.41083 0.0
N471 N 0.73384 0.54605 0.41441 0.0
C472 C 0.72359 0.52411 0.36631 0.0
C473 C 0.72864 0.55364 0.38276 0.0
C474 C 0.73199 0.5112 0.416 0.0
N475 N 0.72579 0.49738 0.38721 0.0
O476 O 0.74253 0.53895 0.48029 0.0
H477 H 0.72883 0.57892 0.37148 0.0
H478 H 0.73512 0.49581 0.43772 0.0
O479 O 0.71877 0.59141 0.46112 0.0
C480 C 0.75823 0.52578 0.48174 0.0
O481 O 0.77048 0.53727 0.4608 0.0
N482 N 0.74709 0.61192 0.41753 0.0
C483 C 0.76032 0.66439 0.37639 0.0
C484 C 0.74746 0.67149 0.40113 0.0
C485 C 0.74128 0.64501 0.42192 0.0
C486 C 0.75999 0.60483 0.39432 0.0
C487 C 0.76659 0.63051 0.37318 0.0
H488 H 0.73249 0.6514 0.44248 0.0
H489 H 0.76547 0.57908 0.3927 0.0
H490 H 0.73801 0.59202 0.52531 0.0
H491 H 0.78649 0.64723 0.51538 0.0
H492 H 0.71916 0.52232 0.34057 0.0
H493 H 0.7427 0.69751 0.40521 0.0
H494 H 0.77655 0.62385 0.35456 0.0
C495 C 0.04893 0.16112 0.48286 0.0
C496 C 0.0467 0.14514 0.51331 0.0
N497 N 0.06063 0.15404 0.53316 0.0
N498 N 0.06419 0.17996 0.48362 0.0
C499 C 0.07109 0.17486 0.51444 0.0
H500 H 0.03944 0.16086 0.46235 0.0
Co501 Co 0.07159 0.2133 0.45322 0.0
C502 C 0.11069 0.19619 0.44371 0.0
O503 O 0.10963 0.20325 0.41173 0.0
N504 N 0.07885 0.24854 0.42223 0.0
C505 C 0.08524 0.2785 0.37598 0.0
C506 C 0.08229 0.24622 0.38905 0.0
C507 C 0.07977 0.28294 0.42833 0.0
N508 N 0.08355 0.30172 0.40072 0.0
O509 O 0.07192 0.24605 0.48915 0.0
H510 H 0.08256 0.22263 0.3747 0.0
H511 H 0.07698 0.29448 0.45229 0.0
O512 O 0.0968 0.19987 0.46221 0.0
C513 C 0.05565 0.25547 0.49353 0.0
O514 O 0.04335 0.24345 0.47291 0.0
N515 N 0.06875 0.18118 0.41878 0.0
C516 C 0.05662 0.1334 0.3717 0.0
C517 C 0.07166 0.12622 0.39187 0.0
C518 C 0.07735 0.15029 0.41576 0.0
C519 C 0.05394 0.18822 0.39985 0.0
C520 C 0.0478 0.16495 0.37589 0.0
H521 H 0.08805 0.14335 0.43272 0.0
H522 H 0.04669 0.21201 0.40385 0.0
H523 H 0.08266 0.18871 0.52399 0.0
H524 H 0.03525 0.12973 0.52086 0.0
H525 H 0.08825 0.2843 0.35012 0.0
H526 H 0.07854 0.10172 0.39008 0.0
H527 H 0.03618 0.17162 0.36088 0.0
C528 C 0.7997 0.38483 0.72358 0.0
C529 C 0.79688 0.40251 0.753 0.0
N530 N 0.80724 0.38814 0.77675 0.0
N531 N 0.81204 0.35983 0.72875 0.0
C532 C 0.81632 0.36267 0.76147 0.0
H533 H 0.7926 0.3891 0.70035 0.0
Co534 Co 0.81967 0.32465 0.69973 0.0
C535 C 0.85789 0.34157 0.72399 0.0
O536 O 0.85685 0.32679 0.75345 0.0
N537 N 0.82729 0.28941 0.67131 0.0
C538 C 0.84383 0.2566 0.6378 0.0
C539 C 0.8419 0.28902 0.65134 0.0
C540 C 0.8203 0.2573 0.66885 0.0
N541 N 0.83022 0.23675 0.64891 0.0
O542 O 0.82135 0.29332 0.73697 0.0
H543 H 0.8509 0.31058 0.64754 0.0
H544 H 0.80862 0.2486 0.68261 0.0
O545 O 0.84446 0.34067 0.70407 0.0
C546 C 0.80526 0.28417 0.74382 0.0
O547 O 0.79214 0.29669 0.7254 0.0
N548 N 0.81617 0.35372 0.66296 0.0
C549 C 0.80491 0.39708 0.61145 0.0
C550 C 0.81982 0.4058 0.63136 0.0
C551 C 0.82515 0.3839 0.65728 0.0
C552 C 0.80186 0.34454 0.64354 0.0
C553 C 0.79596 0.36589 0.61766 0.0
H554 H 0.8359 0.39212 0.67363 0.0
H555 H 0.79464 0.32094 0.6489 0.0
H556 H 0.82538 0.34546 0.77439 0.0
H557 H 0.78724 0.42295 0.75709 0.0
H558 H 0.85454 0.2481 0.62147 0.0
H559 H 0.82689 0.42995 0.62773 0.0
H560 H 0.78447 0.35814 0.60276 0.0
C561 C 0.51932 0.90878 0.72608 0.0
C562 C 0.52451 0.89504 0.75634 0.0
N563 N 0.51188 0.90284 0.77928 0.0
N564 N 0.50346 0.92502 0.72996 0.0
C565 C 0.4992 0.92065 0.76245 0.0
H566 H 0.5271 0.90865 0.70326 0.0
Co567 Co 0.49196 0.95487 0.70051 0.0
C568 C 0.45355 0.94573 0.72221 0.0
O569 O 0.45118 0.97909 0.72568 0.0
N570 N 0.48044 0.98541 0.67121 0.0
C571 C 0.46113 1.00947 0.63575 0.0
C572 C 0.46643 0.97907 0.6506 0.0
C573 C 0.48369 1.01957 0.66781 0.0
N574 N 0.47202 0.03493 0.64668 0.0
O575 O 0.49105 0.98885 0.7356 0.0
H576 H 0.46013 0.95412 0.64734 0.0
H577 H 0.49395 0.03334 0.68158 0.0
O578 O 0.46886 0.93432 0.71307 0.0
C579 C 0.50681 1.00196 0.73738 0.0
O580 O 0.51878 0.99214 0.71517 0.0
N581 N 0.49482 0.92279 0.66598 0.0
C582 C 0.50627 0.87526 0.61819 0.0
C583 C 0.49307 0.8663 0.64175 0.0
C584 C 0.48765 0.89035 0.66571 0.0
C585 C 0.50732 0.93223 0.64283 0.0
C586 C 0.51328 0.90884 0.61872 0.0
H587 H 0.47838 0.88224 0.68487 0.0
H588 H 0.51322 0.95774 0.64395 0.0
H589 H 0.48773 0.93283 0.77409 0.0
H590 H 0.53698 0.88163 0.7613 0.0
H591 H 0.44999 1.01267 0.61858 0.0
H592 H 0.48751 0.84047 0.64251 0.0
H593 H 0.5234 0.91686 0.60087 0.0
C594 C 0.7911 0.92051 0.51805 0.0
C595 C 0.78871 0.9082 0.48607 0.0
N596 N 0.80429 0.91221 0.46929 0.0
N597 N 0.80814 0.93195 0.52138 0.0
C598 C 0.81584 0.9265 0.49135 0.0
H599 H 0.78086 0.92267 0.53712 0.0
Co600 Co 0.81727 0.95852 0.55608 0.0
C601 C 0.85285 0.91925 0.56062 0.0
O602 O 0.84791 0.90217 0.58734 0.0
N603 N 0.82657 0.9871 0.59059 0.0
C604 C 0.84285 1.00871 0.63257 0.0
C605 C 0.83828 0.97924 0.61533 0.0
C606 C 0.82393 0.02147 0.59408 0.0
N607 N 0.83379 0.03524 0.61907 0.0
O608 O 0.82031 0.99525 0.52427 0.0
H609 H 0.84337 0.95388 0.62065 0.0
H610 H 0.81553 0.03674 0.57784 0.0
O611 O 0.84229 0.94147 0.54709 0.0
C612 C 0.80503 1.00991 0.52118 0.0
O613 O 0.79194 1.00033 0.54124 0.0
N614 N 0.81158 0.92287 0.58692 0.0
C615 C 0.79694 0.87298 0.6295 0.0
C616 C 0.80617 0.8633 0.6005 0.0
C617 C 0.81294 0.88861 0.5791 0.0
C618 C 0.80193 0.93263 0.61438 0.0
C619 C 0.79466 0.90812 0.63618 0.0
H620 H 0.8194 0.88061 0.55617 0.0
H621 H 0.79935 0.9596 0.61908 0.0
H622 H 0.82921 0.93545 0.48499 0.0
H623 H 0.77629 0.89831 0.47562 0.0
H624 H 0.85226 1.01056 0.65318 0.0
H625 H 0.80783 0.83637 0.59406 0.0
H626 H 0.78738 0.91662 0.6581 0.0
C627 C 0.51053 0.38328 0.53542 0.0
C628 C 0.51345 0.39945 0.50519 0.0
N629 N 0.50485 0.38133 0.48131 0.0
N630 N 0.49989 0.35536 0.53064 0.0
C631 C 0.49686 0.3549 0.4973 0.0
H632 H 0.51596 0.39153 0.55917 0.0
Co633 Co 0.49139 0.32188 0.56108 0.0
C634 C 0.45792 0.36126 0.53925 0.0
O635 O 0.46733 0.38717 0.52738 0.0
N636 N 0.48321 0.28802 0.59081 0.0
C637 C 0.46606 0.25749 0.62549 0.0
C638 C 0.46867 0.28932 0.61093 0.0
C639 C 0.48948 0.2555 0.59426 0.0
N640 N 0.47917 0.23626 0.61487 0.0
O641 O 0.49096 0.28846 0.52561 0.0
H642 H 0.4602 0.31168 0.61413 0.0
H643 H 0.50091 0.2455 0.58074 0.0
O644 O 0.46599 0.33539 0.55254 0.0
C645 C 0.5072 0.2787 0.52156 0.0
O646 O 0.51955 0.29167 0.54153 0.0
N647 N 0.49402 0.35278 0.59667 0.0
C648 C 0.50578 0.39749 0.64686 0.0
C649 C 0.4888 0.40176 0.63187 0.0
C650 C 0.48311 0.379 0.60682 0.0
C651 C 0.51016 0.34738 0.61196 0.0
C652 C 0.51635 0.36948 0.63696 0.0
H653 H 0.47015 0.38308 0.5956 0.0
H654 H 0.51856 0.32627 0.6038 0.0
H655 H 0.48834 0.33612 0.48498 0.0
H656 H 0.52148 0.42236 0.50104 0.0
H657 H 0.45523 0.25036 0.64219 0.0
H658 H 0.48016 0.423 0.63882 0.0
H659 H 0.52933 0.36468 0.64833 0.0
C660 C 0.26173 0.65235 0.28077 0.0
C661 C 0.26338 0.63505 0.25093 0.0
N662 N 0.2513 0.64817 0.22941 0.0
N663 N 0.24842 0.67586 0.2782 0.0
C664 C 0.24237 0.67269 0.24651 0.0
H665 H 0.27028 0.64896 0.30239 0.0
Co666 Co 0.24191 0.70961 0.30922 0.0
C667 C 0.20354 0.69207 0.32411 0.0
O668 O 0.20687 0.69721 0.35589 0.0
N669 N 0.23567 0.74506 0.34075 0.0
C670 C 0.23131 0.77549 0.38751 0.0
C671 C 0.23384 0.74317 0.37443 0.0
C672 C 0.23409 0.77932 0.33436 0.0
N673 N 0.23158 0.7983 0.36227 0.0
O674 O 0.24107 0.74274 0.27345 0.0
H675 H 0.23438 0.71987 0.38917 0.0
H676 H 0.23546 0.7907 0.30988 0.0
O677 O 0.2161 0.69664 0.3026 0.0
C678 C 0.25733 0.75206 0.26839 0.0
O679 O 0.26993 0.73847 0.28733 0.0
N680 N 0.2454 0.67738 0.34359 0.0
C681 C 0.25821 0.62969 0.39006 0.0
C682 C 0.24287 0.62241 0.37068 0.0
C683 C 0.23686 0.64637 0.34708 0.0
C684 C 0.26065 0.68429 0.3614 0.0
C685 C 0.26713 0.66112 0.3851 0.0
H686 H 0.22595 0.63924 0.33062 0.0
H687 H 0.26794 0.708 0.35682 0.0
H688 H 0.23212 0.68906 0.23572 0.0
H689 H 0.27343 0.6159 0.24485 0.0
H690 H 0.22954 0.78166 0.41369 0.0
H691 H 0.23595 0.59791 0.37291 0.0
H692 H 0.27902 0.66782 0.39938 0.0
C693 C 0.54746 0.12999 0.27818 0.0
C694 C 0.54478 0.14631 0.248 0.0
N695 N 0.55862 0.13838 0.22776 0.0
N696 N 0.56287 0.11178 0.27679 0.0
C697 C 0.56942 0.1177 0.24587 0.0
H698 H 0.5381 0.12934 0.29885 0.0
Co699 Co 0.57018 0.07732 0.30632 0.0
C700 C 0.60892 0.08731 0.28363 0.0
O701 O 0.60798 0.06711 0.25732 0.0
N702 N 0.57751 0.0424 0.3356 0.0
C703 C 0.59274 1.01134 0.37278 0.0
C704 C 0.5904 0.04376 0.35934 0.0
C705 C 0.57203 1.00918 0.33547 0.0
N706 N 0.58124 0.98952 0.35744 0.0
O707 O 0.57135 0.04558 0.26952 0.0
H708 H 0.59803 0.06661 0.36573 0.0
H709 H 0.56165 0.99936 0.31913 0.0
O710 O 0.59512 0.09177 0.30205 0.0
C711 C 0.55501 0.03672 0.26445 0.0
O712 O 0.54266 0.04937 0.28447 0.0
N713 N 0.56693 0.10739 0.34213 0.0
C714 C 0.55545 0.15307 0.3914 0.0
C715 C 0.5701 0.16137 0.37072 0.0
C716 C 0.57555 0.13825 0.34593 0.0
C717 C 0.5529 0.09864 0.36229 0.0
C718 C 0.54694 0.12108 0.38715 0.0
H719 H 0.58612 0.14587 0.32894 0.0
H720 H 0.5459 0.0745 0.35826 0.0
H721 H 0.58091 0.10439 0.23562 0.0
H722 H 0.53311 0.16125 0.24086 0.0
H723 H 0.60269 1.00418 0.39127 0.0
H724 H 0.57685 0.18605 0.37284 0.0
H725 H 0.53569 0.11355 0.40272 0.0
C726 C 0.26233 0.14682 0.48207 0.0
C727 C 0.26422 0.16469 0.51169 0.0
N728 N 0.25302 0.15051 0.53423 0.0
N729 N 0.2498 0.12185 0.48594 0.0
C730 C 0.2444 0.12494 0.518 0.0
H731 H 0.2702 0.15085 0.45969 0.0
Co732 Co 0.2431 0.08635 0.45656 0.0
C733 C 0.20425 0.09926 0.47822 0.0
O734 O 0.20485 0.08251 0.50672 0.0
N735 N 0.23625 0.0508 0.42763 0.0
C736 C 0.22142 1.01879 0.39059 0.0
C737 C 0.2233 0.05133 0.40397 0.0
C738 C 0.24221 1.01797 0.42779 0.0
N739 N 0.23326 0.99771 0.40584 0.0
O740 O 0.24154 0.05487 0.49376 0.0
H741 H 0.21535 0.07368 0.39756 0.0
H742 H 0.25276 1.00891 0.44413 0.0
O743 O 0.21813 0.10067 0.45954 0.0
C744 C 0.25783 0.04668 0.50023 0.0
O745 O 0.27056 0.06025 0.48156 0.0
N746 N 0.24665 0.11562 0.42016 0.0
C747 C 0.25777 0.15877 0.3685 0.0
C748 C 0.24287 0.16742 0.38832 0.0
C749 C 0.23759 0.14559 0.41433 0.0
C750 C 0.26101 0.10663 0.40097 0.0
C751 C 0.2668 0.12782 0.37496 0.0
H752 H 0.22677 0.15356 0.43054 0.0
H753 H 0.26828 0.08319 0.4065 0.0
H754 H 0.23488 0.10775 0.52982 0.0
H755 H 0.27382 0.18506 0.51683 0.0
H756 H 0.21154 1.01104 0.37216 0.0
H757 H 0.23574 0.19142 0.38451 0.0
H758 H 0.27828 0.1201 0.36012 0.0
C759 C 0.5509 0.64503 0.48029 0.0
C760 C 0.54609 0.63106 0.51048 0.0
N761 N 0.55632 0.64564 0.53445 0.0
N762 N 0.56432 0.66808 0.4849 0.0
C763 C 0.56748 0.66749 0.51822 0.0
H764 H 0.54398 0.64041 0.45695 0.0
Co765 Co 0.57183 0.70156 0.45396 0.0
C766 C 0.61078 0.68772 0.44323 0.0
O767 O 0.60803 0.69134 0.41108 0.0
N768 N 0.57876 0.73692 0.42262 0.0
C769 C 0.58405 0.76725 0.37609 0.0
C770 C 0.58114 0.73497 0.38906 0.0
C771 C 0.58041 0.7712 0.42904 0.0
N772 N 0.58344 0.79014 0.40126 0.0
O773 O 0.57123 0.73528 0.48914 0.0
H774 H 0.58085 0.71165 0.37433 0.0
H775 H 0.57872 0.78265 0.45341 0.0
O776 O 0.59759 0.69048 0.4637 0.0
C777 C 0.55493 0.74489 0.49267 0.0
O778 O 0.54274 0.73145 0.47267 0.0
N779 N 0.56986 0.66858 0.41976 0.0
C780 C 0.55819 0.61852 0.37436 0.0
C781 C 0.57331 0.61272 0.39477 0.0
C782 C 0.57878 0.63792 0.41777 0.0
C783 C 0.55503 0.67435 0.40046 0.0
C784 C 0.54916 0.65001 0.37728 0.0
H785 H 0.58948 0.63196 0.43511 0.0
H786 H 0.54745 0.69789 0.40374 0.0
H787 H 0.57655 0.68519 0.5307 0.0
H788 H 0.53517 0.61307 0.51463 0.0
H789 H 0.58629 0.77333 0.35002 0.0
H790 H 0.58038 0.58835 0.39403 0.0
H791 H 0.53749 0.65574 0.36205 0.0
C792 C 0.7993 0.88578 0.21869 0.0
C793 C 0.79442 0.90378 0.24681 0.0
N794 N 0.8049 0.89339 0.27238 0.0
N795 N 0.813 0.86432 0.2262 0.0
C796 C 0.81619 0.86989 0.25905 0.0
H797 H 0.79243 0.88683 0.19489 0.0
Co798 Co 0.8219 0.82803 0.19971 0.0
C799 C 0.85933 0.84919 0.2243 0.0
O800 O 0.85789 0.83673 0.2547 0.0
N801 N 0.83064 0.79169 0.17358 0.0
C802 C 0.84538 0.76086 0.13561 0.0
C803 C 0.84246 0.7935 0.14804 0.0
C804 C 0.82664 0.75777 0.17625 0.0
N805 N 0.83548 0.73843 0.15357 0.0
O806 O 0.82375 0.79949 0.23892 0.0
H807 H 0.84862 0.81705 0.13912 0.0
H808 H 0.8173 0.7473 0.19429 0.0
O809 O 0.84631 0.846 0.20368 0.0
C810 C 0.80768 0.7897 0.24517 0.0
O811 O 0.79482 0.79963 0.22474 0.0
N812 N 0.81814 0.85449 0.1613 0.0
C813 C 0.80556 0.89539 0.10912 0.0
C814 C 0.82038 0.90593 0.1284 0.0
C815 C 0.82637 0.88526 0.1547 0.0
C816 C 0.8041 0.84332 0.14217 0.0
C817 C 0.79751 0.86348 0.11599 0.0
H818 H 0.83689 0.895 0.17078 0.0
H819 H 0.79747 0.81928 0.1483 0.0
H820 H 0.82547 0.85467 0.27365 0.0
H821 H 0.78337 0.92178 0.24857 0.0
H822 H 0.85438 0.75405 0.11542 0.0
H823 H 0.82676 0.93068 0.12415 0.0
H824 H 0.7861 0.85443 0.10155 0.0
C825 C 0.50805 0.38857 0.23191 0.0
C826 C 0.50952 0.37109 0.26165 0.0
N827 N 0.49917 0.38711 0.28433 0.0
N828 N 0.49656 0.41524 0.23563 0.0
C829 C 0.49137 0.41354 0.26795 0.0
H830 H 0.51568 0.383 0.20961 0.0
Co831 Co 0.49172 0.45096 0.20536 0.0
C832 C 0.45244 0.44508 0.1905 0.0
O833 O 0.45573 0.45398 0.15952 0.0
N834 N 0.48734 0.48832 0.17468 0.0
C835 C 0.48473 0.5203 0.12848 0.0
C836 C 0.4868 0.48761 0.14079 0.0
C837 C 0.48553 0.52238 0.18198 0.0
N838 N 0.48408 0.54232 0.15437 0.0
O839 O 0.49224 0.48301 0.2418 0.0
H840 H 0.4874 0.46482 0.12536 0.0
H841 H 0.48576 0.53278 0.20703 0.0
O842 O 0.46543 0.4424 0.21142 0.0
C843 C 0.50874 0.49049 0.24702 0.0
O844 O 0.52089 0.47629 0.22759 0.0
N845 N 0.49382 0.41957 0.17017 0.0
C846 C 0.50519 0.37246 0.12202 0.0
C847 C 0.48858 0.36809 0.13837 0.0
C848 C 0.4832 0.39182 0.16282 0.0
C849 C 0.51008 0.42373 0.15501 0.0
C850 C 0.51589 0.4009 0.13055 0.0
H851 H 0.47101 0.38698 0.17668 0.0
H852 H 0.51867 0.44501 0.16227 0.0
H853 H 0.48264 0.43225 0.2797 0.0
H854 H 0.51843 0.34969 0.2668 0.0
H855 H 0.48364 0.52718 0.10234 0.0
H856 H 0.48012 0.34597 0.13314 0.0
H857 H 0.52869 0.40558 0.11849 0.0
C858 C 0.79582 0.39929 0.02621 0.0
C859 C 0.79291 0.38226 0.99641 0.0
N860 N 0.80459 0.39476 0.97378 0.0
N861 N 0.80945 0.42202 0.02228 0.0
C862 C 0.81452 0.41847 0.99009 0.0
H863 H 0.78806 0.39613 0.04884 0.0
Co864 Co 0.81848 0.45522 0.05179 0.0
C865 C 0.85803 0.4507 0.03756 0.0
O866 O 0.85999 0.48434 0.03612 0.0
N867 N 0.82764 0.48893 0.08119 0.0
C868 C 0.84195 0.51662 0.12224 0.0
C869 C 0.83838 0.48481 0.10817 0.0
C870 C 0.82493 0.52335 0.07942 0.0
N871 N 0.83355 0.54076 0.10384 0.0
O872 O 0.81944 0.48771 0.01546 0.0
H873 H 0.8435 0.4603 0.11684 0.0
H874 H 0.81676 0.53576 0.06065 0.0
O875 O 0.84254 0.43777 0.04318 0.0
C876 C 0.80321 0.49779 0.01181 0.0
O877 O 0.79105 0.48566 0.03261 0.0
N878 N 0.81538 0.42462 0.0873 0.0
C879 C 0.80342 0.37882 0.13609 0.0
C880 C 0.81847 0.37093 0.11635 0.0
C881 C 0.82417 0.39411 0.09176 0.0
C882 C 0.80107 0.43309 0.10682 0.0
C883 C 0.79481 0.41052 0.13134 0.0
H884 H 0.8351 0.38679 0.07557 0.0
H885 H 0.79406 0.45707 0.10241 0.0
H886 H 0.82496 0.43381 0.97846 0.0
H887 H 0.78244 0.36351 0.9913 0.0
H888 H 0.85046 0.5217 0.14368 0.0
H889 H 0.82536 0.34652 0.11907 0.0
H890 H 0.78328 0.41772 0.14629 0.0
C891 C 0.51192 0.88245 0.02681 0.0
C892 C 0.51452 0.89775 0.99612 0.0
N893 N 0.50131 0.88709 0.97545 0.0
N894 N 0.49712 0.86227 0.02544 0.0
C895 C 0.4909 0.86592 0.99392 0.0
H896 H 0.52095 0.88404 0.04798 0.0
Co897 Co 0.4903 0.82847 0.05627 0.0
C898 C 0.4513 0.83918 0.03422 0.0
O899 O 0.45181 0.81998 0.0072 0.0
N900 N 0.48357 0.79418 0.08674 0.0
C901 C 0.46885 0.76176 0.12358 0.0
C902 C 0.47004 0.79403 0.10919 0.0
C903 C 0.49059 0.76219 0.08848 0.0
N904 N 0.48172 0.74163 0.11019 0.0
O905 O 0.48873 0.79547 0.02049 0.0
H906 H 0.4612 0.81556 0.11394 0.0
H907 H 0.50184 0.75384 0.07353 0.0
O908 O 0.46528 0.84248 0.05252 0.0
C909 C 0.50505 0.78695 0.01495 0.0
O910 O 0.51763 0.80116 0.03361 0.0
N911 N 0.49385 0.85963 0.09115 0.0
C912 C 0.50582 0.90729 0.1384 0.0
C913 C 0.49109 0.91479 0.11759 0.0
C914 C 0.48537 0.89066 0.09389 0.0
C915 C 0.50795 0.85163 0.11147 0.0
C916 C 0.51414 0.87505 0.13536 0.0
H917 H 0.47476 0.89766 0.07673 0.0
H918 H 0.51485 0.82734 0.10826 0.0
H919 H 0.48001 0.85073 0.98368 0.0
H920 H 0.52575 0.91399 0.98908 0.0
H921 H 0.45873 0.7534 0.14124 0.0
H922 H 0.48449 0.93961 0.11871 0.0
H923 H 0.52543 0.86808 0.15109 0.0
C924 C 0.26007 0.15637 0.78419 0.0
C925 C 0.26233 0.13987 0.75403 0.0
N926 N 0.25167 0.15533 0.73142 0.0
N927 N 0.24776 0.18172 0.78072 0.0
C928 C 0.24299 0.18041 0.74812 0.0
H929 H 0.26749 0.15088 0.80682 0.0
Co930 Co 0.24067 0.21495 0.81233 0.0
C931 C 0.20215 0.20105 0.78901 0.0
O932 O 0.20317 0.21807 0.76069 0.0
N933 N 0.23355 0.24811 0.84368 0.0
C934 C 0.22071 0.2735 0.8874 0.0
C935 C 0.2225 0.24309 0.87001 0.0
C936 C 0.23819 0.28181 0.84546 0.0
N937 N 0.23054 0.29783 0.8718 0.0
O938 O 0.23865 0.24863 0.77718 0.0
H939 H 0.21613 0.21882 0.87619 0.0
H940 H 0.24714 0.29445 0.82805 0.0
O941 O 0.21574 0.19977 0.80853 0.0
C942 C 0.25489 0.25789 0.77165 0.0
O943 O 0.26761 0.24446 0.79043 0.0
N944 N 0.24474 0.18339 0.84685 0.0
C945 C 0.25692 0.13716 0.89511 0.0
C946 C 0.24152 0.12973 0.876 0.0
C947 C 0.2357 0.1531 0.85168 0.0
C948 C 0.25954 0.19125 0.8655 0.0
C949 C 0.26589 0.16849 0.88975 0.0
H950 H 0.22446 0.14614 0.83593 0.0
H951 H 0.26674 0.21504 0.86081 0.0
H952 H 0.23377 0.19823 0.73643 0.0
H953 H 0.27172 0.11931 0.74872 0.0
H954 H 0.21253 0.2776 0.9094 0.0
H955 H 0.23437 0.10558 0.87908 0.0
H956 H 0.27772 0.17533 0.90415 0.0
C957 C 0.54334 0.62195 0.78038 0.0
C958 C 0.54111 0.63844 0.75008 0.0
N959 N 0.55591 0.63286 0.73145 0.0
N960 N 0.55942 0.60596 0.78049 0.0
C961 C 0.56675 0.61325 0.7505 0.0
H962 H 0.53353 0.62015 0.80023 0.0
Co963 Co 0.56859 0.57427 0.81079 0.0
C964 C 0.60787 0.58216 0.79177 0.0
O965 O 0.6104 0.54928 0.78556 0.0
N966 N 0.5779 0.54181 0.84089 0.0
C967 C 0.59546 0.51229 0.87564 0.0
C968 C 0.59276 0.54369 0.86023 0.0
C969 C 0.57153 0.5095 0.84574 0.0
N970 N 0.58205 0.49087 0.86642 0.0
O971 O 0.56986 0.54091 0.77538 0.0
H972 H 0.60136 0.56612 0.86232 0.0
H973 H 0.55978 0.49921 0.83329 0.0
O974 O 0.59254 0.5926 0.80172 0.0
C975 C 0.55384 0.5293 0.7724 0.0
O976 O 0.54156 0.54098 0.79312 0.0
N977 N 0.56531 0.60584 0.84538 0.0
C978 C 0.55338 0.6536 0.89242 0.0
C979 C 0.56745 0.66183 0.87041 0.0
C980 C 0.57313 0.63766 0.84685 0.0
C981 C 0.55184 0.59713 0.86689 0.0
C982 C 0.54566 0.62064 0.89067 0.0
H983 H 0.58316 0.64527 0.82889 0.0
H984 H 0.54542 0.57217 0.86471 0.0
H985 H 0.5792 0.60208 0.74173 0.0
H986 H 0.52925 0.65223 0.74189 0.0
H987 H 0.60652 0.5056 0.89201 0.0
H988 H 0.57355 0.68721 0.87052 0.0
H989 H 0.53485 0.61318 0.9073 0.0
C990 C 0.25828 0.6454 0.9785 0.0
C991 C 0.26092 0.66147 0.00882 0.0
N992 N 0.25245 0.64286 0.0324 0.0
N993 N 0.24788 0.61708 0.98286 0.0
C994 C 0.24479 0.61618 0.01617 0.0
H995 H 0.26386 0.65389 0.95497 0.0
Co996 Co 0.24027 0.58377 0.95133 0.0
C997 C 0.20568 0.62049 0.97154 0.0
O998 O 0.21414 0.64539 0.9873 0.0
N999 N 0.23297 0.5504 0.92024 0.0
C1000 C 0.21955 0.52445 0.87729 0.0
C1001 C 0.22134 0.55489 0.89465 0.0
C1002 C 0.23797 0.51696 0.91803 0.0
N1003 N 0.22997 0.5006 0.89215 0.0
O1004 O 0.2391 0.54992 0.98636 0.0
H1005 H 0.2145 0.57878 0.88904 0.0
H1006 H 0.24739 0.50475 0.93484 0.0
O1007 O 0.21464 0.5964 0.95727 0.0
C1008 C 0.25531 0.54068 0.99188 0.0
O1009 O 0.26802 0.55381 0.97287 0.0
N1010 N 0.24365 0.61522 0.91652 0.0
C1011 C 0.25625 0.65956 0.86694 0.0
C1012 C 0.23965 0.6656 0.88268 0.0
C1013 C 0.23356 0.64308 0.90757 0.0
C1014 C 0.25951 0.60848 0.90084 0.0
C1015 C 0.26609 0.63031 0.87606 0.0
H1016 H 0.22104 0.64867 0.91983 0.0
H1017 H 0.26732 0.5863 0.90835 0.0
H1018 H 0.23659 0.59682 0.02833 0.0
H1019 H 0.26877 0.68456 0.0133 0.0
H1020 H 0.21093 0.51995 0.85587 0.0
H1021 H 0.23166 0.688 0.87643 0.0
H1022 H 0.27877 0.62429 0.86417 0.0
C1023 C 0.54619 0.15251 0.97683 0.0
C1024 C 0.54091 0.1392 0.00723 0.0
N1025 N 0.55122 0.15351 0.03122 0.0
N1026 N 0.55985 0.175 0.98162 0.0
C1027 C 0.56249 0.17505 0.01507 0.0
H1028 H 0.53981 0.14728 0.95307 0.0
Co1029 Co 0.56978 0.20667 0.95114 0.0
C1030 C 0.60312 0.16794 0.97691 0.0
O1031 O 0.59413 0.14366 0.99255 0.0
N1032 N 0.5795 0.23898 0.92114 0.0
C1033 C 0.59801 0.26414 0.88491 0.0
C1034 C 0.593 0.23336 0.89932 0.0
C1035 C 0.5763 0.27328 0.91902 0.0
N1036 N 0.58752 0.28927 0.89744 0.0
O1037 O 0.57024 0.24058 0.98595 0.0
H1038 H 0.5993 0.20864 0.8951 0.0
H1039 H 0.56658 0.28672 0.93425 0.0
O1040 O 0.59465 0.19181 0.96129 0.0
C1041 C 0.55419 0.25194 0.98838 0.0
O1042 O 0.54222 0.241 0.96657 0.0
N1043 N 0.56715 0.17472 0.91628 0.0
C1044 C 0.55542 0.12881 0.86705 0.0
C1045 C 0.57056 0.12128 0.88679 0.0
C1046 C 0.57617 0.14452 0.91149 0.0
C1047 C 0.55279 0.18291 0.89664 0.0
C1048 C 0.54664 0.1603 0.87199 0.0
H1049 H 0.58735 0.13749 0.92711 0.0
H1050 H 0.54566 0.20675 0.90104 0.0
H1051 H 0.57201 0.19183 0.02758 0.0
H1052 H 0.53003 0.12111 0.0114 0.0
H1053 H 0.6088 0.26785 0.86712 0.0
H1054 H 0.57767 0.09713 0.8839 0.0
H1055 H 0.53507 0.16736 0.85703 0.0
H1056 H 0.32982 0.38355 0.32928 0.0
H1057 H 0.27201 0.38517 0.31986 0.0
H1058 H 0.26896 0.39233 0.37993 0.0
H1059 H 0.28248 0.39993 0.43496 0.0
H1060 H 0.34016 0.39835 0.44594 0.0
H1061 H 0.34349 0.3894 0.38565 0.0
C1062 C 0.31659 0.38524 0.34049 0.0
C1063 C 0.3012 0.38429 0.31993 0.0
C1064 C 0.31488 0.38943 0.37536 0.0
C1065 C 0.28411 0.38663 0.33485 0.0
C1066 C 0.28233 0.39048 0.36932 0.0
C1067 C 0.29579 0.39706 0.42437 0.0
C1068 C 0.31103 0.3997 0.44507 0.0
C1069 C 0.29759 0.39216 0.38978 0.0
C1070 C 0.32819 0.39669 0.43057 0.0
C1071 C 0.3301 0.39148 0.3961 0.0
H1072 H 1.00498 0.93479 0.43938 0.0
H1073 H 0.99907 0.82439 0.43784 0.0
H1074 H 0.99897 0.82462 0.37661 0.0
H1075 H 1.00066 0.85667 0.32319 0.0
H1076 H 1.00437 0.96741 0.32496 0.0
H1077 H 1.00525 0.96699 0.38616 0.0
C1078 C 1.00366 0.91093 0.42544 0.0
C1079 C 1.00202 0.87967 0.44278 0.0
C1080 C 1.00322 0.91142 0.39033 0.0
C1081 C 1.00017 0.84876 0.42479 0.0
C1082 C 1.00019 0.84889 0.38986 0.0
C1083 C 1.00165 0.88053 0.3372 0.0
C1084 C 1.00245 0.91197 0.31996 0.0
C1085 C 1.00171 0.88007 0.37234 0.0
C1086 C 1.00359 0.94297 0.338 0.0
C1087 C 1.00416 0.94271 0.37288 0.0
H1088 H 0.27922 0.88836 0.83121 0.0
H1089 H 0.33689 0.89424 0.82155 0.0
H1090 H 0.33989 0.90156 0.882 0.0
H1091 H 0.32611 0.90577 0.93765 0.0
H1092 H 0.26831 0.90108 0.94685 0.0
H1093 H 0.26543 0.89341 0.88672 0.0
C1094 C 0.29242 0.89172 0.84225 0.0
C1095 C 0.3078 0.89086 0.82182 0.0
C1096 C 0.29405 0.89575 0.87705 0.0
C1097 C 0.32485 0.89454 0.83671 0.0
C1098 C 0.32657 0.89879 0.87128 0.0
C1099 C 0.31287 0.90331 0.92654 0.0
C1100 C 0.29748 0.90397 0.94704 0.0
C1101 C 0.31126 0.8993 0.89172 0.0
C1102 C 0.28045 0.90016 0.93204 0.0
C1103 C 0.27875 0.89607 0.89748 0.0
H1104 H 0.98158 0.40373 0.93839 0.0
H1105 H 0.039 0.41666 0.94856 0.0
H1106 H 0.04201 0.42105 0.88813 0.0
H1107 H 1.02855 0.41948 0.83215 0.0
H1108 H 0.97128 0.40605 0.82134 0.0
H1109 H 0.968 0.40316 0.8822 0.0
C1110 C 0.99475 0.40744 0.92739 0.0
C1111 C 1.01002 0.40982 0.94817 0.0
C1112 C 0.99644 0.40952 0.89245 0.0
C1113 C 1.02696 0.41522 0.93341 0.0
C1114 C 1.02874 0.41738 0.89874 0.0
C1115 C 1.01539 0.4155 0.8431 0.0
C1116 C 1.0002 0.41255 0.82229 0.0
C1117 C 1.01361 0.41418 0.87801 0.0
C1118 C 0.98316 0.40836 0.83689 0.0
C1119 C 0.98129 0.4067 0.87164 0.0
H1120 H 0.77999 0.64221 0.68423 0.0
H1121 H 0.72221 0.63757 0.69185 0.0
H1122 H 0.71983 0.62877 0.63144 0.0
H1123 H 0.73425 0.62452 0.5761 0.0
H1124 H 0.79214 0.62883 0.5694 0.0
H1125 H 0.79437 0.6357 0.62968 0.0
C1126 C 0.76689 0.63867 0.6728 0.0
C1127 C 0.75131 0.64051 0.69253 0.0
C1128 C 0.76563 0.63395 0.6381 0.0
C1129 C 0.73441 0.63656 0.67714 0.0
C1130 C 0.73304 0.63148 0.64263 0.0
C1131 C 0.74734 0.62667 0.58788 0.0
C1132 C 0.76296 0.62654 0.56807 0.0
C1133 C 0.74857 0.6305 0.62278 0.0
C1134 C 0.77984 0.62962 0.58379 0.0
C1135 C 0.78117 0.63326 0.61838 0.0
H1136 H 0.07983 0.14082 0.6855 0.0
H1137 H 1.02213 0.14889 0.69326 0.0
H1138 H 1.01954 0.15167 0.63266 0.0
H1139 H 0.03357 0.15252 0.5774 0.0
H1140 H 0.09118 0.14552 0.56869 0.0
H1141 H 0.09395 0.14119 0.62964 0.0
C1142 C 0.06671 0.14306 0.67385 0.0
C1143 C 0.05123 0.14493 0.69395 0.0
C1144 C 0.0653 0.1446 0.63883 0.0
C1145 C 0.03431 0.14811 0.67851 0.0
C1146 C 0.03278 0.14937 0.6438 0.0
C1147 C 0.04669 0.14945 0.58883 0.0
C1148 C 0.06214 0.14896 0.56867 0.0
C1149 C 0.04817 0.14765 0.62373 0.0
C1150 C 0.07912 0.14591 0.58383 0.0
C1151 C 0.08069 0.14349 0.6186 0.0
H1152 H 0.73554 0.14485 0.18698 0.0
H1153 H 0.79346 0.14405 0.19545 0.0
H1154 H 0.79607 0.13379 0.13575 0.0
H1155 H 0.78214 0.12635 0.08076 0.0
H1156 H 0.72437 0.12917 0.07126 0.0
H1157 H 0.72153 0.13759 0.1316 0.0
C1158 C 0.74875 0.14265 0.17584 0.0
C1159 C 0.76425 0.1453 0.19608 0.0
C1160 C 0.75022 0.13727 0.14114 0.0
C1161 C 0.78123 0.1417 0.18096 0.0
C1162 C 0.78278 0.13611 0.14659 0.0
C1163 C 0.76892 0.12922 0.09173 0.0
C1164 C 0.7535 0.12734 0.07132 0.0
C1165 C 0.76739 0.13415 0.12641 0.0
C1166 C 0.73647 0.13029 0.08631 0.0
C1167 C 0.73484 0.13522 0.12084 0.0
H1168 H 0.05788 0.60934 0.17868 0.0
H1169 H 0.07976 0.71143 0.1918 0.0
H1170 H 0.07797 0.72155 0.13147 0.0
H1171 H 0.06924 0.70199 0.07539 0.0
H1172 H 0.04584 0.60118 0.06217 0.0
H1173 H 0.04907 0.58972 0.12222 0.0
C1174 C 0.06246 0.63358 0.16817 0.0
C1175 C 0.06907 0.65958 0.18949 0.0
C1176 C 0.061 0.63942 0.13359 0.0
C1177 C 0.0746 0.69117 0.17578 0.0
C1178 C 0.07359 0.69691 0.14136 0.0
C1179 C 0.06508 0.67735 0.08563 0.0
C1180 C 0.05749 0.65226 0.06445 0.0
C1181 C 0.06669 0.67132 0.12008 0.0
C1182 C 0.0517 0.6208 0.07811 0.0
C1183 C 0.05359 0.61427 0.11234 0.0
H1184 H 0.80696 0.44142 0.9247 0.0
H1185 H 0.80248 0.33256 0.94414 0.0
H1186 H 0.80334 0.32053 0.88391 0.0
H1187 H 0.80544 0.34138 0.82583 0.0
H1188 H 0.80784 0.45045 0.8063 0.0
H1189 H 0.8077 0.4624 0.86657 0.0
C1190 C 0.80631 0.4151 0.91561 0.0
C1191 C 0.8049 0.38779 0.93854 0.0
C1192 C 0.80641 0.40861 0.88111 0.0
C1193 C 0.8036 0.35382 0.92672 0.0
C1194 C 0.80413 0.34702 0.89242 0.0
C1195 C 0.80605 0.3677 0.83493 0.0
C1196 C 0.80688 0.39508 0.81198 0.0
C1197 C 0.80557 0.37422 0.86942 0.0
C1198 C 0.80723 0.42914 0.82375 0.0
C1199 C 0.80719 0.43588 0.85807 0.0
H1200 H 0.52908 0.89144 0.9326 0.0
H1201 H 0.47121 0.8915 0.93808 0.0
H1202 H 0.46928 0.89542 0.87709 0.0
H1203 H 0.48413 0.89823 0.82231 0.0
H1204 H 0.54208 0.89815 0.81709 0.0
H1205 H 0.54392 0.89426 0.87783 0.0
C1206 C 0.51607 0.89283 0.92045 0.0
C1207 C 0.5003 0.89153 0.93977 0.0
C1208 C 0.51509 0.89459 0.88543 0.0
C1209 C 0.48351 0.89246 0.92365 0.0
C1210 C 0.48241 0.89467 0.88885 0.0
C1211 C 0.49716 0.89752 0.83446 0.0
C1212 C 0.51292 0.89847 0.81505 0.0
C1213 C 0.49812 0.8956 0.86948 0.0
C1214 C 0.52971 0.89695 0.83124 0.0
C1215 C 0.53079 0.89507 0.86606 0.0
H1216 H 0.78002 0.91964 0.41993 0.0
H1217 H 0.83549 0.89461 0.43941 0.0
H1218 H 0.84092 0.88798 0.37942 0.0
H1219 H 0.82972 0.88889 0.3215 0.0
H1220 H 0.77396 0.91298 0.30275 0.0
H1221 H 0.76891 0.92089 0.36229 0.0
C1222 C 0.79323 0.91231 0.41108 0.0
C1223 C 0.80729 0.9073 0.43407 0.0
C1224 C 0.79625 0.90876 0.37665 0.0
C1225 C 0.82447 0.89868 0.42215 0.0
C1226 C 0.82757 0.89485 0.38789 0.0
C1227 C 0.81646 0.89575 0.33043 0.0
C1228 C 0.80229 0.90032 0.30748 0.0
C1229 C 0.81354 0.89981 0.3649 0.0
C1230 C 0.78523 0.90978 0.31957 0.0
C1231 C 0.78225 0.91399 0.35376 0.0
H1232 H 0.49987 0.43447 0.33334 0.0
H1233 H 0.4989 0.32514 0.31436 0.0
H1234 H 0.50065 0.31351 0.37444 0.0
H1235 H 0.50306 0.33457 0.43203 0.0
H1236 H 0.50491 0.44385 0.45133 0.0
H1237 H 0.50246 0.4556 0.39132 0.0
C1238 C 0.49976 0.40816 0.3425 0.0
C1239 C 0.49905 0.38062 0.31968 0.0
C1240 C 0.50115 0.40177 0.37696 0.0
C1241 C 0.4994 0.34662 0.33163 0.0
C1242 C 0.50042 0.34002 0.36588 0.0
C1243 C 0.50276 0.36095 0.4231 0.0
C1244 C 0.50404 0.38833 0.44602 0.0
C1245 C 0.5014 0.3674 0.38872 0.0
C1246 C 0.50408 0.42239 0.4341 0.0
C1247 C 0.50255 0.42908 0.39986 0.0
H1248 H 0.24868 0.69514 0.18059 0.0
H1249 H 0.25264 0.58615 0.19956 0.0
H1250 H 0.25295 0.57453 0.1393 0.0
H1251 H 0.25292 0.59578 0.08143 0.0
H1252 H 0.25053 0.70502 0.06244 0.0
H1253 H 0.24892 0.71645 0.12259 0.0
C1254 C 0.24934 0.66888 0.17138 0.0
C1255 C 0.25041 0.64143 0.19418 0.0
C1256 C 0.24998 0.6626 0.13686 0.0
C1257 C 0.25175 0.60753 0.18223 0.0
C1258 C 0.25195 0.60095 0.14791 0.0
C1259 C 0.25189 0.62203 0.09054 0.0
C1260 C 0.25175 0.64955 0.0677 0.0
C1261 C 0.25119 0.62832 0.12503 0.0
C1262 C 0.25079 0.68352 0.07969 0.0
C1263 C 0.24977 0.69001 0.11398 0.0
H1264 H 0.57788 0.15785 0.07649 0.0
H1265 H 0.52083 0.14061 0.06626 0.0
H1266 H 0.51788 0.13607 0.12696 0.0
H1267 H 0.53163 0.13664 0.18302 0.0
H1268 H 0.58876 0.15218 0.19313 0.0
H1269 H 0.59162 0.15834 0.1324 0.0
C1270 C 0.56479 0.15332 0.0876 0.0
C1271 C 0.5496 0.1496 0.06691 0.0
C1272 C 0.56323 0.15071 0.12247 0.0
C1273 C 0.53276 0.14314 0.0816 0.0
C1274 C 0.53105 0.14083 0.11631 0.0
C1275 C 0.54463 0.14192 0.17188 0.0
C1276 C 0.55996 0.14438 0.19238 0.0
C1277 C 0.54618 0.14463 0.13699 0.0
C1278 C 0.57682 0.15031 0.17769 0.0
C1279 C 0.57844 0.15375 0.14307 0.0
H1280 H 0.25149 0.10349 0.58313 0.0
H1281 H 0.25362 0.21274 0.56428 0.0
H1282 H 0.25262 0.22428 0.6246 0.0
H1283 H 0.25149 0.20282 0.68267 0.0
H1284 H 0.25126 0.09344 0.70118 0.0
H1285 H 0.25107 0.08209 0.6409 0.0
C1286 C 0.25154 0.1298 0.59231 0.0
C1287 C 0.2524 0.15732 0.56952 0.0
C1288 C 0.25132 0.13605 0.62683 0.0
C1289 C 0.25295 0.19128 0.58155 0.0
C1290 C 0.25233 0.19781 0.61592 0.0
C1291 C 0.25121 0.17657 0.67335 0.0
C1292 C 0.2512 0.14892 0.69607 0.0
C1293 C 0.25153 0.17037 0.63878 0.0
C1294 C 0.25127 0.11498 0.68396 0.0
C1295 C 0.25114 0.10855 0.64961 0.0
H1296 H 0.58106 0.65352 0.58322 0.0
H1297 H 0.52466 0.63404 0.56583 0.0
H1298 H 0.51934 0.63072 0.62574 0.0
H1299 H 0.53078 0.63145 0.68325 0.0
H1300 H 0.58713 0.64954 0.70133 0.0
H1301 H 0.5924 0.65589 0.6412 0.0
C1302 C 0.56761 0.64874 0.59262 0.0
C1303 C 0.55336 0.64362 0.57001 0.0
C1304 C 0.56462 0.64683 0.62728 0.0
C1305 C 0.53599 0.63728 0.58256 0.0
C1306 C 0.53287 0.6357 0.61689 0.0
C1307 C 0.54413 0.63742 0.67401 0.0
C1308 C 0.55853 0.64023 0.69656 0.0
C1309 C 0.54709 0.64023 0.63947 0.0
C1310 C 0.57586 0.64722 0.68429 0.0
C1311 C 0.57887 0.65077 0.64998 0.0
H1312 H 0.36946 0.42189 0.1832 0.0
H1313 H 0.38328 0.32539 0.22943 0.0
H1314 H 0.41435 0.34586 0.23788 0.0
H1315 H 0.4386 0.38856 0.22381 0.0
H1316 H 0.42375 0.48358 0.17524 0.0
H1317 H 0.39216 0.46686 0.17658 0.0
C1318 C 0.37917 0.40573 0.19602 0.0
C1319 C 0.37414 0.37228 0.20575 0.0
C1320 C 0.39693 0.41743 0.20005 0.0
C1321 C 0.38681 0.35143 0.22211 0.0
C1322 C 0.40462 0.36305 0.22658 0.0
C1323 C 0.42834 0.40594 0.21454 0.0
C1324 C 0.43349 0.43733 0.1994 0.0
C1325 C 0.41002 0.39562 0.21454 0.0
C1326 C 0.42011 0.45935 0.18695 0.0
C1327 C 0.40204 0.44973 0.18756 0.0
H1328 H 0.92285 0.93092 0.15493 0.0
H1329 H 0.9443 0.9297 0.25521 0.0
H1330 H 0.91764 0.89827 0.27458 0.0
H1331 H 0.88823 0.87015 0.26265 0.0
H1332 H 0.86781 0.87096 0.16149 0.0
H1333 H 0.89402 0.90327 0.14308 0.0
C1334 C 0.92173 0.92404 0.18111 0.0
C1335 C 0.93564 0.9329 0.20353 0.0
C1336 C 0.90649 0.90561 0.19197 0.0
C1337 C 0.93384 0.92342 0.23733 0.0
C1338 C 0.91858 0.9053 0.24842 0.0
C1339 C 0.88953 0.87732 0.23657 0.0
C1340 C 0.87587 0.86812 0.21362 0.0
C1341 C 0.90484 0.89603 0.22591 0.0
C1342 C 0.8779 0.87778 0.17991 0.0
C1343 C 0.89296 0.8963 0.16925 0.0
H1344 H 0.38703 0.91972 0.10079 0.0
H1345 H 0.36308 0.90513 1.00353 0.0
H1346 H 0.39022 0.87477 0.98472 0.0
H1347 H 0.42079 0.85142 0.99671 0.0
H1348 H 0.44404 0.86832 0.09443 0.0
H1349 H 0.41713 0.89846 0.11214 0.0
C1350 C 0.38766 0.90997 0.0754 0.0
C1351 C 0.37295 0.9146 0.05367 0.0
C1352 C 0.40323 0.89274 0.06486 0.0
C1353 C 0.3742 0.90202 0.02078 0.0
C1354 C 0.3897 0.88453 0.01009 0.0
C1355 C 0.41993 0.86163 0.02189 0.0
C1356 C 0.43451 0.85734 0.04419 0.0
C1357 C 0.4043 0.87952 0.03201 0.0
C1358 C 0.43315 0.8711 0.07663 0.0
C1359 C 0.41771 0.88842 0.08687 0.0
H1360 H 0.91656 0.33207 0.03347 0.0
H1361 H 0.9522 0.41986 0.0394 0.0
H1362 H 0.92652 0.45878 0.03828 0.0
H1363 H 0.89376 0.46821 0.03756 0.0
H1364 H 0.85809 0.38047 0.03138 0.0
H1365 H 0.88382 0.34162 0.03048 0.0
C1366 C 0.91874 0.35972 0.0343 0.0
C1367 C 0.93638 0.37284 0.03692 0.0
C1368 C 0.90382 0.38215 0.0337 0.0
C1369 C 0.93884 0.40884 0.03793 0.0
C1370 C 0.92412 0.43123 0.03715 0.0
C1371 C 0.89159 0.44062 0.03579 0.0
C1372 C 0.87392 0.42744 0.03487 0.0
C1373 C 0.90652 0.41822 0.03538 0.0
C1374 C 0.87147 0.3915 0.03256 0.0
C1375 C 0.88622 0.36915 0.03195 0.0
H1376 H 0.66181 0.70885 0.78627 0.0
H1377 H 0.70063 0.62639 0.7845 0.0
H1378 H 0.67643 0.58385 0.78458 0.0
H1379 H 0.64408 0.56964 0.78735 0.0
H1380 H 0.60533 0.65222 0.7876 0.0
H1381 H 0.6295 0.69469 0.78582 0.0
C1382 C 0.665 0.68159 0.78565 0.0
C1383 C 0.6831 0.67101 0.78595 0.0
C1384 C 0.65095 0.65706 0.78563 0.0
C1385 C 0.68688 0.63546 0.78502 0.0
C1386 C 0.67301 0.61099 0.78489 0.0
C1387 C 0.64091 0.59691 0.78681 0.0
C1388 C 0.62284 0.60757 0.78833 0.0
C1389 C 0.65497 0.62143 0.78561 0.0
C1390 C 0.61906 0.64312 0.78739 0.0
C1391 C 0.63292 0.66754 0.78612 0.0
H1392 H 0.13766 0.11902 0.85409 0.0
H1393 H 0.1142 0.13351 0.7564 0.0
H1394 H 0.14154 0.16371 0.73804 0.0
H1395 H 0.17202 0.18749 0.75064 0.0
H1396 H 0.19429 0.1727 0.84943 0.0
H1397 H 0.16748 0.14144 0.86631 0.0
C1398 C 0.13844 0.1286 0.82866 0.0
C1399 C 0.12379 0.12394 0.80672 0.0
C1400 C 0.15404 0.14618 0.81849 0.0
C1401 C 0.12525 0.13653 0.77385 0.0
C1402 C 0.14087 0.15399 0.7634 0.0
C1403 C 0.17098 0.17748 0.77587 0.0
C1404 C 0.18532 0.18253 0.79864 0.0
C1405 C 0.15533 0.15928 0.78564 0.0
C1406 C 0.18367 0.16917 0.83119 0.0
C1407 C 0.16827 0.15124 0.84097 0.0
H1408 H 0.62536 0.1185 1.00328 0.0
H1409 H 0.62559 0.20881 0.94007 0.0
H1410 H 0.65716 0.19922 0.92701 0.0
H1411 H 0.68403 0.16326 0.93008 0.0
H1412 H 0.68461 0.0731 0.99314 0.0
H1413 H 0.65347 0.08486 0.01009 0.0
C1414 C 0.63234 0.13631 0.9869 0.0
C1415 C 0.62291 0.16415 0.97235 0.0
C1416 C 0.65064 0.1306 0.97937 0.0
C1417 C 0.63233 0.18704 0.95143 0.0
C1418 C 0.65043 0.18155 0.94389 0.0
C1419 C 0.67741 0.1462 0.94772 0.0
C1420 C 0.68658 0.11704 0.95999 0.0
C1421 C 0.6596 0.15307 0.95715 0.0
C1422 C 0.67788 0.09566 0.98328 0.0
C1423 C 0.66004 0.10232 0.99281 0.0
H1424 H 0.12558 0.62785 0.91962 0.0
H1425 H 0.1229 0.70879 0.99343 0.0
H1426 H 0.15388 0.69627 0.0106 0.0
H1427 H 0.18237 0.66495 1.00175 0.0
H1428 H 0.1846 0.58372 0.92803 0.0
H1429 H 0.15308 0.59364 0.91391 0.0
C1430 C 0.13171 0.64269 0.93963 0.0
C1431 C 0.12198 0.66955 0.95494 0.0
C1432 C 0.14947 0.63535 0.94929 0.0
C1433 C 0.13006 0.68807 0.98117 0.0
C1434 C 0.14781 0.68098 0.99089 0.0
C1435 C 0.17594 0.64919 0.98277 0.0
C1436 C 0.18598 0.62381 0.96575 0.0
C1437 C 0.15775 0.65509 0.97469 0.0
C1438 C 0.1773 0.60345 0.9415 0.0
C1439 C 0.15926 0.6092 0.93331 0.0
H1440 H 0.41769 0.961 0.72734 0.0
H1441 H 0.45449 0.87522 0.7247 0.0
H1442 H 0.42928 0.83486 0.72542 0.0
H1443 H 0.3966 0.82359 0.72432 0.0
H1444 H 0.35985 0.90943 0.72766 0.0
H1445 H 0.38507 0.94967 0.72928 0.0
C1446 C 0.42024 0.93348 0.72721 0.0
C1447 C 0.43807 0.92135 0.72553 0.0
C1448 C 0.40559 0.91022 0.72758 0.0
C1449 C 0.44098 0.88549 0.72543 0.0
C1450 C 0.42653 0.86227 0.72595 0.0
C1451 C 0.39409 0.85108 0.72565 0.0
C1452 C 0.37624 0.8633 0.72539 0.0
C1453 C 0.40875 0.8743 0.72659 0.0
C1454 C 0.37335 0.89911 0.72722 0.0
C1455 C 0.38782 0.92227 0.72829 0.0
H1456 H 0.92129 0.42395 0.65552 0.0
H1457 H 0.94388 0.41851 0.75479 0.0
H1458 H 0.91714 0.38708 0.77412 0.0
H1459 H 0.88737 0.35998 0.76218 0.0
H1460 H 0.86585 0.36601 0.66196 0.0
H1461 H 0.89215 0.39804 0.64384 0.0
C1462 C 0.92044 0.41608 0.68148 0.0
C1463 C 0.93467 0.42369 0.7036 0.0
C1464 C 0.90517 0.39782 0.69227 0.0
C1465 C 0.93314 0.4132 0.73716 0.0
C1466 C 0.91787 0.39506 0.7482 0.0
C1467 C 0.88847 0.36821 0.73637 0.0
C1468 C 0.87449 0.36044 0.71357 0.0
C1469 C 0.90381 0.38696 0.72588 0.0
C1470 C 0.87621 0.37157 0.68024 0.0
C1471 C 0.89131 0.38997 0.66974 0.0
H1472 H 0.37727 0.37233 0.5862 0.0
H1473 H 0.37859 0.46143 0.52179 0.0
H1474 H 0.40933 0.44673 0.50462 0.0
H1475 H 0.43661 0.41116 0.51187 0.0
H1476 H 0.43459 0.32138 0.57561 0.0
H1477 H 0.40324 0.33362 0.58885 0.0
C1478 C 0.38423 0.38846 0.5682 0.0
C1479 C 0.37577 0.41827 0.55566 0.0
C1480 C 0.40178 0.37978 0.55848 0.0
C1481 C 0.38482 0.43845 0.53187 0.0
C1482 C 0.40242 0.4301 0.5222 0.0
C1483 C 0.42928 0.39401 0.52839 0.0
C1484 C 0.43815 0.36566 0.5432 0.0
C1485 C 0.41117 0.40122 0.53591 0.0
C1486 C 0.42828 0.34353 0.56412 0.0
C1487 C 0.41031 0.35057 0.57178 0.0
H1488 H 0.8696 0.85984 0.54496 0.0
H1489 H 0.8785 0.96909 0.55517 0.0
H1490 H 0.91113 0.9598 0.55521 0.0
H1491 H 0.93665 0.91937 0.56194 0.0
H1492 H 0.92778 0.81032 0.54987 0.0
H1493 H 0.89562 0.82053 0.54041 0.0
C1494 C 0.87874 0.88167 0.54593 0.0
C1495 C 0.87174 0.91512 0.54995 0.0
C1496 C 0.89744 0.87602 0.54608 0.0
C1497 C 0.88362 0.94322 0.55155 0.0
C1498 C 0.90226 0.93782 0.552 0.0
C1499 C 0.92772 0.89803 0.55611 0.0
C1500 C 0.93446 0.86414 0.55653 0.0
C1501 C 0.90928 0.90421 0.55065 0.0
C1502 C 0.92286 0.83659 0.54927 0.0
C1503 C 0.90447 0.84244 0.54418 0.0
H1504 H 0.63941 0.0971 0.24554 0.0
H1505 H 0.61719 0.11626 0.34351 0.0
H1506 H 0.645 0.14389 0.36085 0.0
H1507 H 0.67557 0.1624 0.34906 0.0
H1508 H 0.69843 0.14621 0.25131 0.0
H1509 H 0.67047 0.11788 0.23303 0.0
C1510 C 0.64069 0.10729 0.27068 0.0
C1511 C 0.62614 0.10438 0.29317 0.0
C1512 C 0.65684 0.12376 0.28057 0.0
C1513 C 0.62803 0.11807 0.32556 0.0
C1514 C 0.644 0.1339 0.3356 0.0
C1515 C 0.67454 0.15265 0.32371 0.0
C1516 C 0.68917 0.15623 0.30168 0.0
C1517 C 0.65847 0.13683 0.31341 0.0
C1518 C 0.68739 0.14382 0.26881 0.0
C1519 C 0.67141 0.12754 0.2584 0.0
H1520 H 0.18994 0.63717 0.35559 0.0
H1521 H 0.17921 0.70577 0.27343 0.0
H1522 H 0.14938 0.67893 0.26564 0.0
H1523 H 0.12528 0.63865 0.28613 0.0
H1524 H 0.13788 0.56973 0.36771 0.0
H1525 H 0.16793 0.59371 0.37148 0.0
C1526 C 0.18114 0.64605 0.33571 0.0
C1527 C 0.18664 0.67364 0.31537 0.0
C1528 C 0.16423 0.63046 0.3314 0.0
C1529 C 0.17525 0.68454 0.28941 0.0
C1530 C 0.15817 0.66928 0.28512 0.0
C1531 C 0.13472 0.62853 0.30431 0.0
C1532 C 0.12908 0.60264 0.32694 0.0
C1533 C 0.15233 0.64259 0.30648 0.0
C1534 C 0.1416 0.58988 0.35026 0.0
C1535 C 0.15888 0.60359 0.35251 0.0
H1536 H 0.69372 0.66823 0.43881 0.0
H1537 H 0.67983 0.56801 0.47705 0.0
H1538 H 0.64867 0.5871 0.48607 0.0
H1539 H 0.6244 0.62998 0.47395 0.0
H1540 H 0.63914 0.7292 0.43386 0.0
H1541 H 0.67086 0.71338 0.43536 0.0
C1542 C 0.68398 0.65095 0.45016 0.0
C1543 C 0.68903 0.61687 0.45742 0.0
C1544 C 0.66615 0.662 0.45466 0.0
C1545 C 0.6763 0.59452 0.47173 0.0
C1546 C 0.65844 0.60539 0.47652 0.0
C1547 C 0.63467 0.64849 0.46685 0.0
C1548 C 0.62948 0.68091 0.45414 0.0
C1549 C 0.65303 0.63874 0.4669 0.0
C1550 C 0.64284 0.70432 0.44409 0.0
C1551 C 0.66098 0.69516 0.44466 0.0
H1552 H 0.17403 0.11443 0.51521 0.0
H1553 H 0.19707 0.12593 0.41676 0.0
H1554 H 0.17081 0.15786 0.39841 0.0
H1555 H 0.14129 0.18226 0.4095 0.0
H1556 H 0.11729 0.171 0.50705 0.0
H1557 H 0.14391 0.13964 0.52648 0.0
C1558 C 0.17327 0.12382 0.48973 0.0
C1559 C 0.18766 0.11774 0.46752 0.0
C1560 C 0.15796 0.14244 0.47913 0.0
C1561 C 0.18638 0.1303 0.43459 0.0
C1562 C 0.1713 0.14862 0.42397 0.0
C1563 C 0.14183 0.17316 0.43511 0.0
C1564 C 0.12723 0.17914 0.45673 0.0
C1565 C 0.15705 0.15489 0.44597 0.0
C1566 C 0.12831 0.16697 0.48982 0.0
C1567 C 0.14353 0.14887 0.50092 0.0
H1568 H 0.3372 0.10238 0.07325 0.0
H1569 H 0.32488 0.07127 0.17372 0.0
H1570 H 0.32219 0.13216 0.19067 0.0
H1571 H 0.32545 0.1941 0.177 0.0
H1572 H 0.33773 0.22328 0.07501 0.0
H1573 H 0.33846 0.16358 0.05887 0.0
C1574 C 0.33366 0.10913 0.09871 0.0
C1575 C 0.33117 0.08276 0.12226 0.0
C1576 C 0.3324 0.14387 0.10812 0.0
C1577 C 0.32665 0.09138 0.15523 0.0
C1578 C 0.32528 0.12611 0.16487 0.0
C1579 C 0.32818 0.18774 0.15119 0.0
C1580 C 0.33174 0.21416 0.12765 0.0
C1581 C 0.32847 0.15267 0.14159 0.0
C1582 C 0.33519 0.20443 0.09426 0.0
C1583 C 0.33553 0.1699 0.08469 0.0
H1584 H 0.98667 0.09435 0.09402 0.0
H1585 H 0.96564 0.09842 0.19434 0.0
H1586 H 0.96316 0.16113 0.19043 0.0
H1587 H 0.9673 0.21522 0.15851 0.0
H1588 H 0.98806 0.21015 0.05795 0.0
H1589 H 0.99024 0.14771 0.06198 0.0
C1590 C 0.98133 0.10882 0.11492 0.0
C1591 C 0.97634 0.09148 0.14442 0.0
C1592 C 0.97997 0.14491 0.11252 0.0
C1593 C 0.96978 0.11098 0.17144 0.0
C1594 C 0.96827 0.1469 0.16917 0.0
C1595 C 0.97219 0.20042 0.13743 0.0
C1596 C 0.97765 0.21762 0.1081 0.0
C1597 C 0.97339 0.16421 0.13985 0.0
C1598 C 0.98409 0.1979 0.0811 0.0
C1599 C 0.98523 0.16204 0.08327 0.0
H1600 H 0.70088 0.94377 0.88804 0.0
H1601 H 0.75836 0.95448 0.8798 0.0
H1602 H 0.76112 0.89248 0.86865 0.0
H1603 H 0.74697 0.83493 0.86153 0.0
H1604 H 0.68953 0.82477 0.87248 0.0
H1605 H 0.68692 0.88667 0.88229 0.0
C1606 C 0.71398 0.93257 0.88344 0.0
C1607 C 0.72938 0.95373 0.88434 0.0
C1608 C 0.71545 0.89693 0.87772 0.0
C1609 C 0.74633 0.9387 0.87921 0.0
C1610 C 0.74789 0.9033 0.8728 0.0
C1611 C 0.73391 0.84638 0.86596 0.0
C1612 C 0.71846 0.82523 0.8663 0.0
C1613 C 0.73253 0.88211 0.87203 0.0
C1614 C 0.70163 0.84035 0.87247 0.0
C1615 C 0.70012 0.8758 0.8779 0.0
H1616 H 0.05808 0.95375 0.85851 0.0
H1617 H 0.11314 0.97347 0.88567 0.0
H1618 H 0.118 0.91178 0.89571 0.0
H1619 H 0.1062 0.85262 0.89839 0.0
H1620 H 0.05046 0.83293 0.87605 0.0
H1621 H 0.04598 0.89413 0.86273 0.0
C1622 C 0.07112 0.94421 0.86632 0.0
C1623 C 0.08535 0.96762 0.87104 0.0
C1624 C 0.07356 0.90892 0.87313 0.0
C1625 C 0.10214 0.95555 0.8818 0.0
C1626 C 0.10486 0.92045 0.88756 0.0
C1627 C 0.09313 0.86177 0.89032 0.0
C1628 C 0.0787 0.83842 0.88785 0.0
C1629 C 0.09064 0.89694 0.88353 0.0
C1630 C 0.06171 0.85058 0.87813 0.0
C1631 C 0.0592 0.88547 0.87044 0.0
H1632 H 0.31224 0.70519 0.64379 0.0
H1633 H 0.36952 0.71812 0.63264 0.0
H1634 H 0.37291 0.65643 0.62246 0.0
H1635 H 0.35974 0.59855 0.61736 0.0
H1636 H 0.30243 0.58498 0.62594 0.0
H1637 H 0.29882 0.64696 0.6364 0.0
C1638 C 0.32544 0.69441 0.63916 0.0
C1639 C 0.34061 0.7163 0.63899 0.0
C1640 C 0.32727 0.65877 0.63292 0.0
C1641 C 0.35761 0.70201 0.63254 0.0
C1642 C 0.35957 0.66666 0.62692 0.0
C1643 C 0.34648 0.60914 0.62176 0.0
C1644 C 0.33138 0.58715 0.62129 0.0
C1645 C 0.34452 0.64477 0.62718 0.0
C1646 C 0.31423 0.60139 0.62619 0.0
C1647 C 0.31219 0.6368 0.63225 0.0
H1648 H 0.97381 0.59816 0.68228 0.0
H1649 H 0.97817 0.57525 0.57679 0.0
H1650 H 0.97783 0.63625 0.56399 0.0
H1651 H 0.97693 0.69638 0.58222 0.0
H1652 H 0.97456 0.71976 0.68767 0.0
H1653 H 0.9735 0.65847 0.70063 0.0
C1654 C 0.97483 0.60621 0.65646 0.0
C1655 C 0.97602 0.58138 0.63073 0.0
C1656 C 0.97499 0.64172 0.64907 0.0
C1657 C 0.97702 0.5931 0.5974 0.0
C1658 C 0.97695 0.62827 0.58991 0.0
C1659 C 0.97638 0.68828 0.60809 0.0
C1660 C 0.97586 0.71311 0.63381 0.0
C1661 C 0.97606 0.65283 0.61552 0.0
C1662 C 0.97476 0.7016 0.66716 0.0
C1663 C 0.97426 0.66638 0.67468 0.0
H1664 H 0.74513 0.44244 0.40819 0.0
H1665 H 0.69929 0.47186 0.34864 0.0
H1666 H 0.69425 0.41181 0.33295 0.0
H1667 H 0.7032 0.35148 0.33488 0.0
H1668 H 0.74925 0.32066 0.39307 0.0
H1669 H 0.75407 0.38076 0.41036 0.0
C1670 C 0.73395 0.43553 0.39209 0.0
C1671 C 0.72257 0.46155 0.37958 0.0
C1672 C 0.73127 0.40083 0.38276 0.0
C1673 C 0.7083 0.45236 0.35832 0.0
C1674 C 0.70539 0.41803 0.34941 0.0
C1675 C 0.71415 0.35771 0.35174 0.0
C1676 C 0.72573 0.3315 0.363 0.0
C1677 C 0.71684 0.39212 0.3613 0.0
C1678 C 0.74018 0.34036 0.38402 0.0
C1679 C 0.74288 0.37468 0.39399 0.0
H1680 H 0.07767 0.34002 0.34518 0.0
H1681 H 0.09085 0.34781 0.45006 0.0
H1682 H 0.0901 0.41052 0.44633 0.0
H1683 H 0.08495 0.46328 0.41366 0.0
H1684 H 0.07188 0.45541 0.30883 0.0
H1685 H 0.07392 0.3927 0.31198 0.0
C1686 C 0.08065 0.3553 0.36716 0.0
C1687 C 0.08417 0.33891 0.39794 0.0
C1688 C 0.0803 0.39147 0.36482 0.0
C1689 C 0.08776 0.35948 0.42618 0.0
C1690 C 0.08745 0.39545 0.42403 0.0
C1691 C 0.08252 0.44785 0.39152 0.0
C1692 C 0.07821 0.46415 0.36109 0.0
C1693 C 0.08354 0.41172 0.39358 0.0
C1694 C 0.07542 0.4437 0.33249 0.0
C1695 C 0.07644 0.40776 0.33433 0.0
H1696 H 0.80773 0.08329 0.61963 0.0
H1697 H 0.86448 0.06819 0.63568 0.0
H1698 H 0.86849 0.12991 0.64586 0.0
H1699 H 0.85592 0.18844 0.64921 0.0
H1700 H 0.79899 0.20359 0.63654 0.0
H1701 H 0.79486 0.14172 0.62597 0.0
C1702 C 0.82094 0.09365 0.6254 0.0
C1703 C 0.8358 0.07132 0.62684 0.0
C1704 C 0.82308 0.12912 0.63168 0.0
C1705 C 0.85283 0.08485 0.63475 0.0
C1706 C 0.85514 0.12014 0.64036 0.0
C1707 C 0.84265 0.1781 0.64396 0.0
C1708 C 0.82779 0.2004 0.64321 0.0
C1709 C 0.84039 0.14254 0.6387 0.0
C1710 C 0.81058 0.18676 0.63717 0.0
C1711 C 0.80825 0.15149 0.63109 0.0
H1712 H 0.49907 0.08116 0.64192 0.0
H1713 H 0.44141 0.07078 0.63648 0.0
H1714 H 0.43847 0.13274 0.62697 0.0
H1715 H 0.45228 0.19011 0.62041 0.0
H1716 H 0.50994 0.2005 0.6234 0.0
H1717 H 0.51297 0.1385 0.63379 0.0
C1718 C 0.48588 0.09255 0.63874 0.0
C1719 C 0.47048 0.07137 0.63993 0.0
C1720 C 0.48431 0.12823 0.63294 0.0
C1721 C 0.45348 0.0864 0.6353 0.0
C1722 C 0.45178 0.12189 0.63008 0.0
C1723 C 0.46548 0.17879 0.62364 0.0
C1724 C 0.48086 0.19985 0.62147 0.0
C1725 C 0.46709 0.14307 0.62894 0.0
C1726 C 0.49792 0.18476 0.62494 0.0
C1727 C 0.49964 0.14936 0.63092 0.0
H1728 H 0.24226 0.83711 0.41452 0.0
H1729 H 0.21941 0.84328 0.31555 0.0
H1730 H 0.21842 0.90614 0.3198 0.0
H1731 H 0.2238 0.95933 0.35203 0.0
H1732 H 0.2458 0.95217 0.45177 0.0
H1733 H 0.24747 0.88984 0.44665 0.0
C1734 C 0.23686 0.85211 0.39401 0.0
C1735 C 0.23082 0.83539 0.36484 0.0
C1736 C 0.2363 0.88817 0.39666 0.0
C1737 C 0.22427 0.85544 0.3382 0.0
C1738 C 0.22364 0.8914 0.34067 0.0
C1739 C 0.22886 0.94418 0.37273 0.0
C1740 C 0.23471 0.96074 0.40219 0.0
C1741 C 0.22958 0.90806 0.36984 0.0
C1742 C 0.24148 0.94049 0.42855 0.0
C1743 C 0.2423 0.90467 0.42579 0.0
H1744 H 0.59027 0.95158 0.41173 0.0
H1745 H 0.57038 0.94346 0.31055 0.0
H1746 H 0.5692 0.88106 0.3155 0.0
H1747 H 0.57393 0.82862 0.34808 0.0
H1748 H 0.59454 0.83557 0.44871 0.0
H1749 H 0.59535 0.89846 0.4444 0.0
C1750 C 0.58577 0.93616 0.39072 0.0
C1751 C 0.58032 0.95247 0.36091 0.0
C1752 C 0.58528 0.89999 0.39357 0.0
C1753 C 0.57433 0.93194 0.33405 0.0
C1754 C 0.5738 0.89609 0.33672 0.0
C1755 C 0.57882 0.84378 0.36896 0.0
C1756 C 0.58425 0.82725 0.39861 0.0
C1757 C 0.57928 0.87985 0.36629 0.0
C1758 C 0.59014 0.84754 0.42567 0.0
C1759 C 0.59068 0.88353 0.42318 0.0
H1760 H 0.83292 0.57641 0.16165 0.0
H1761 H 0.83586 0.58797 0.05469 0.0
H1762 H 0.83701 0.65067 0.0606 0.0
H1763 H 0.837 0.7024 0.09624 0.0
H1764 H 0.83257 0.69135 0.20307 0.0
H1765 H 0.83208 0.6285 0.19735 0.0
C1766 C 0.83391 0.59277 0.13975 0.0
C1767 C 0.83435 0.57766 0.1078 0.0
C1768 C 0.83422 0.62889 0.14335 0.0
C1769 C 0.83537 0.59906 0.07951 0.0
C1770 C 0.83608 0.63488 0.08289 0.0
C1771 C 0.83602 0.68616 0.11822 0.0
C1772 C 0.83489 0.70145 0.15001 0.0
C1773 C 0.83549 0.6501 0.11467 0.0
C1774 C 0.83332 0.68016 0.17831 0.0
C1775 C 0.83313 0.64424 0.17506 0.0
H1776 H 0.49529 0.58237 0.10356 0.0
H1777 H 0.47054 0.58635 0.20091 0.0
H1778 H 0.4681 0.64913 0.19648 0.0
H1779 H 0.47238 0.70288 0.16396 0.0
H1780 H 0.49609 0.69692 0.06561 0.0
H1781 H 0.49949 0.63506 0.0715 0.0
C1782 C 0.48916 0.59679 0.12372 0.0
C1783 C 0.48295 0.57946 0.15238 0.0
C1784 C 0.48766 0.6327 0.12086 0.0
C1785 C 0.47553 0.59893 0.17862 0.0
C1786 C 0.47404 0.63485 0.17601 0.0
C1787 C 0.47823 0.68804 0.14379 0.0
C1788 C 0.48407 0.7049 0.11449 0.0
C1789 C 0.47996 0.65202 0.14711 0.0
C1790 C 0.49179 0.6851 0.08876 0.0
C1791 C 0.49362 0.64951 0.09194 0.0
H1792 H 0.23184 0.35198 0.82986 0.0
H1793 H 0.23207 0.32419 0.93412 0.0
H1794 H 0.23301 0.38516 0.94991 0.0
H1795 H 0.23253 0.44654 0.93395 0.0
H1796 H 0.2305 0.4743 0.82976 0.0
H1797 H 0.23158 0.41337 0.8139 0.0
C1798 C 0.23231 0.35937 0.85599 0.0
C1799 C 0.23193 0.33371 0.88082 0.0
C1800 C 0.23245 0.39447 0.86483 0.0
C1801 C 0.23223 0.34355 0.91462 0.0
C1802 C 0.23281 0.37836 0.92363 0.0
C1803 C 0.23254 0.43916 0.90781 0.0
C1804 C 0.23149 0.46479 0.88303 0.0
C1805 C 0.23275 0.40407 0.89896 0.0
C1806 C 0.23119 0.45496 0.84923 0.0
C1807 C 0.23185 0.42017 0.84018 0.0
H1808 H 0.56095 0.33651 0.89566 0.0
H1809 H 0.61836 0.32451 0.88693 0.0
H1810 H 0.62185 0.38644 0.87797 0.0
H1811 H 0.60857 0.44417 0.8718 0.0
H1812 H 0.55111 0.45624 0.87776 0.0
H1813 H 0.54759 0.39443 0.88877 0.0
C1814 C 0.5742 0.34757 0.89194 0.0
C1815 C 0.58936 0.3259 0.89188 0.0
C1816 C 0.57609 0.38327 0.88636 0.0
C1817 C 0.60645 0.34051 0.88665 0.0
C1818 C 0.60847 0.37598 0.88173 0.0
C1819 C 0.59532 0.43327 0.87589 0.0
C1820 C 0.58013 0.45473 0.87423 0.0
C1821 C 0.5934 0.39762 0.88146 0.0
C1822 C 0.56299 0.44017 0.87885 0.0
C1823 C 0.56098 0.40487 0.88518 0.0
H1824 H 0.29221 0.17839 0.35439 0.0
H1825 H 0.23724 0.19162 0.32213 0.0
H1826 H 0.24712 0.23065 0.27796 0.0
H1827 H 0.27105 0.26115 0.24902 0.0
H1828 H 0.3262 0.24964 0.28085 0.0
H1829 H 0.31657 0.20931 0.32464 0.0
C1830 C 0.28244 0.18962 0.33748 0.0
C1831 C 0.264 0.18214 0.34151 0.0
C1832 C 0.28823 0.2122 0.31216 0.0
C1833 C 0.25146 0.19725 0.31976 0.0
C1834 C 0.25711 0.21942 0.29442 0.0
C1835 C 0.28106 0.24978 0.26537 0.0
C1836 C 0.29935 0.25832 0.26159 0.0
C1837 C 0.27542 0.22711 0.29049 0.0
C1838 C 0.31205 0.24344 0.2832 0.0
C1839 C 0.30654 0.22044 0.30823 0.0
H1840 H 1.02184 0.11511 0.35826 0.0
H1841 H 0.07663 0.09503 0.32858 0.0
H1842 H 0.06601 0.05524 0.2856 0.0
H1843 H 0.04141 0.02763 0.25557 0.0
H1844 H 0.98641 0.04701 0.28419 0.0
H1845 H 0.9969 0.08605 0.32845 0.0
C1846 C 0.03145 0.10215 0.34225 0.0
C1847 C 0.05003 0.10816 0.34654 0.0
C1848 C 1.02522 0.07941 0.31739 0.0
C1849 C 0.0623 0.09066 0.32603 0.0
C1850 C 0.05623 0.06807 0.30131 0.0
C1851 C 0.03163 0.0404 0.27137 0.0
C1852 C 1.01312 0.03466 0.26639 0.0
C1853 C 0.03775 0.0625 0.29664 0.0
C1854 C 1.00072 0.05113 0.28741 0.0
C1855 C 1.00672 0.07341 0.3127 0.0
H1856 H 0.27232 0.03235 0.01168 0.0
H1857 H 0.32678 0.0436 0.97608 0.0
H1858 H 0.31634 0.08388 0.93284 0.0
H1859 H 0.29151 0.11604 0.90561 0.0
H1860 H 0.23724 0.10281 0.94167 0.0
H1861 H 0.24788 0.06279 0.98434 0.0
C1862 C 0.282 0.04363 0.99459 0.0
C1863 C 0.30035 0.03521 0.99728 0.0
C1864 C 0.2759 0.06629 0.96986 0.0
C1865 C 0.3126 0.04974 0.97457 0.0
C1866 C 0.30662 0.07276 0.94991 0.0
C1867 C 0.28206 0.10448 0.92295 0.0
C1868 C 0.2636 0.11243 0.92055 0.0
C1869 C 0.28828 0.0813 0.94741 0.0
C1870 C 0.25146 0.0969 0.94282 0.0
C1871 C 0.25755 0.07416 0.96731 0.0
H1872 H 1.01927 0.19111 0.90389 0.0
H1873 H 0.07452 0.21629 0.92692 0.0
H1874 H 0.06459 0.25963 0.96694 0.0
H1875 H 0.04054 0.28861 0.99675 0.0
H1876 H 0.98508 0.26378 0.9755 0.0
H1877 H 0.99479 0.22184 0.93324 0.0
C1878 C 1.02912 0.20597 0.91782 0.0
C1879 C 0.04764 0.20035 0.91253 0.0
C1880 C 1.02329 0.23077 0.94102 0.0
C1881 C 0.06023 0.22028 0.93028 0.0
C1882 C 0.05456 0.24494 0.9533 0.0
C1883 C 0.0305 0.27409 0.98291 0.0
C1884 C 1.0121 0.27907 0.98944 0.0
C1885 C 0.03617 0.25015 0.95903 0.0
C1886 C 0.99932 0.26037 0.97093 0.0
C1887 C 1.00488 0.23635 0.94689 0.0
H1888 H 0.78221 0.7541 0.73287 0.0
H1889 H 0.72955 0.80022 0.73459 0.0
H1890 H 0.73912 0.84221 0.692 0.0
H1891 H 0.76329 0.8674 0.65654 0.0
H1892 H 0.81547 0.81905 0.65496 0.0
H1893 H 0.80528 0.77619 0.69539 0.0
C1894 C 0.77278 0.77328 0.72384 0.0
C1895 C 0.75529 0.77445 0.73702 0.0
C1896 C 0.77835 0.79695 0.69956 0.0
C1897 C 0.74309 0.7989 0.7247 0.0
C1898 C 0.7486 0.82296 0.70056 0.0
C1899 C 0.77236 0.84742 0.66512 0.0
C1900 C 0.79015 0.84645 0.653 0.0
C1901 C 0.76632 0.82256 0.68821 0.0
C1902 C 0.80173 0.8202 0.66384 0.0
C1903 C 0.79593 0.79577 0.687 0.0
H1904 H 1.01882 0.03351 0.74773 0.0
H1905 H 0.07383 1.00046 0.73649 0.0
H1906 H 0.06445 0.95893 0.69349 0.0
H1907 H 0.04028 0.93098 0.66044 0.0
H1908 H 0.98548 0.96532 0.67217 0.0
H1909 H 0.99518 1.00777 0.71353 0.0
C1910 C 1.02881 1.01722 0.73594 0.0
C1911 C 0.04698 1.01976 0.74554 0.0
C1912 C 1.02334 0.99374 0.71131 0.0
C1913 C 0.05976 0.9989 0.72958 0.0
C1914 C 0.05438 0.97514 0.70508 0.0
C1915 C 0.03048 0.94773 0.67214 0.0
C1916 C 1.01215 0.94487 0.66337 0.0
C1917 C 0.03616 0.97213 0.69598 0.0
C1918 C 0.99965 0.96715 0.67828 0.0
C1919 C 1.00517 0.99129 0.70207 0.0
H1920 H 0.77063 0.91428 0.09879 0.0
H1921 H 0.8244 0.92777 0.06035 0.0
H1922 H 0.81319 0.96778 0.01819 0.0
H1923 H 0.78868 0.99995 0.99361 0.0
H1924 H 0.7347 0.98927 0.03184 0.0
H1925 H 0.74542 0.94672 0.07278 0.0
C1926 C 0.77981 0.92576 0.08089 0.0
C1927 C 0.79833 0.91816 0.08262 0.0
C1928 C 0.77328 0.94918 0.05692 0.0
C1929 C 0.81014 0.93346 0.05964 0.0
C1930 C 0.80374 0.95625 0.03553 0.0
C1931 C 0.77913 0.98834 0.01074 0.0
C1932 C 0.76088 0.99784 0.00967 0.0
C1933 C 0.78541 0.9645 0.03419 0.0
C1934 C 0.74881 0.98241 0.03215 0.0
C1935 C 0.75495 0.95814 0.05554 0.0
H1936 H 1.02058 0.7779 0.00648 0.0
H1937 H 0.0759 0.79571 0.03449 0.0
H1938 H 0.06597 0.83525 0.07879 0.0
H1939 H 0.04133 0.86552 0.10854 0.0
H1940 H 0.98629 0.84669 0.07892 0.0
H1941 H 0.99643 0.80627 0.03637 0.0
C1942 C 0.03057 0.79039 0.02215 0.0
C1943 C 0.04901 0.7841 0.01691 0.0
C1944 C 1.02478 0.81279 0.04735 0.0
C1945 C 0.06165 0.80022 0.03787 0.0
C1946 C 0.05596 0.82282 0.06315 0.0
C1947 C 0.03157 0.85267 0.09266 0.0
C1948 C 1.01303 0.85925 0.09693 0.0
C1949 C 0.03753 0.82948 0.06794 0.0
C1950 C 1.00057 0.84189 0.07651 0.0
C1951 C 1.00637 0.81893 0.05199 0.0
H1952 H 0.2735 0.75969 0.74746 0.0
H1953 H 0.32681 0.75515 0.79009 0.0
H1954 H 0.31577 0.71565 0.83351 0.0
H1955 H 0.29066 0.68332 0.85956 0.0
H1956 H 0.23759 0.68925 0.81595 0.0
H1957 H 0.24889 0.72796 0.77276 0.0
C1958 C 0.28282 0.75007 0.76611 0.0
C1959 C 0.301 0.76029 0.76546 0.0
C1960 C 0.27636 0.72788 0.79092 0.0
C1961 C 0.31278 0.74759 0.78998 0.0
C1962 C 0.30645 0.7251 0.81481 0.0
C1963 C 0.28161 0.69291 0.84044 0.0
C1964 C 0.26327 0.68343 0.841 0.0
C1965 C 0.28823 0.71516 0.81555 0.0
C1966 C 0.25167 0.69647 0.81636 0.0
C1967 C 0.25815 0.71842 0.79154 0.0
H1968 H 1.02252 0.59761 0.86604 0.0
H1969 H 0.06173 0.64085 0.79868 0.0
H1970 H 0.04977 0.60583 0.75285 0.0
H1971 H 1.02882 0.56208 0.73243 0.0
H1972 H 0.98868 0.51951 0.79834 0.0
H1973 H 1.00002 0.55564 0.84425 0.0
C1974 C 1.02841 0.5991 0.8413 0.0
C1975 C 0.0431 0.62127 0.8356 0.0
C1976 C 1.02118 0.57942 0.8149 0.0
C1977 C 0.0505 0.62369 0.80347 0.0
C1978 C 0.04364 0.6038 0.77734 0.0
C1979 C 1.02243 0.56093 0.75679 0.0
C1980 C 1.00798 0.53819 0.76211 0.0
C1981 C 1.02905 0.58154 0.78281 0.0
C1982 C 0.99972 0.53712 0.79363 0.0
C1983 C 1.00632 0.5575 0.81991 0.0
H1984 H 0.27332 0.5247 0.50645 0.0
H1985 H 0.3284 0.54325 0.47748 0.0
H1986 H 0.31802 0.58235 0.43315 0.0
H1987 H 0.29308 0.61147 0.40328 0.0
H1988 H 0.2383 0.59203 0.43388 0.0
H1989 H 0.24887 0.55245 0.47686 0.0
C1990 C 0.28317 0.53728 0.49058 0.0
C1991 C 0.30165 0.53126 0.49545 0.0
C1992 C 0.27712 0.55937 0.46537 0.0
C1993 C 0.31411 0.54756 0.47433 0.0
C1994 C 0.30817 0.56987 0.44902 0.0
C1995 C 0.28347 0.59871 0.4195 0.0
C1996 C 0.26489 0.60477 0.41538 0.0
C1997 C 0.28968 0.57606 0.44443 0.0
C1998 C 0.25262 0.58756 0.43621 0.0
C1999 C 0.25866 0.5651 0.46095 0.0
H2000 H 0.03773 0.75056 0.52404 0.0
H2001 H 0.98723 0.76545 0.47279 0.0
H2002 H 0.99845 0.73216 0.42509 0.0
H2003 H 1.02301 0.70058 0.39753 0.0
H2004 H 0.07299 0.68429 0.45048 0.0
H2005 H 0.0617 0.7176 0.49755 0.0
C2006 C 1.02908 0.74639 0.50254 0.0
C2007 C 1.01165 0.76045 0.50198 0.0
C2008 C 0.03564 0.72752 0.47531 0.0
C2009 C 1.00064 0.75466 0.47397 0.0
C2010 C 1.00711 0.73586 0.44661 0.0
C2011 C 0.03141 0.7039 0.41947 0.0
C2012 C 0.04891 0.68983 0.42021 0.0
C2013 C 1.02465 0.72239 0.44694 0.0
C2014 C 0.05964 0.69523 0.44873 0.0
C2015 C 0.05311 0.71397 0.4759 0.0
H2016 H 0.76872 0.35847 0.14704 0.0
H2017 H 0.82311 0.3437 0.18199 0.0
H2018 H 0.81238 0.30387 0.22479 0.0
H2019 H 0.78782 0.27449 0.25286 0.0
H2020 H 0.7332 0.28735 0.2186 0.0
H2021 H 0.74376 0.32684 0.17467 0.0
C2022 C 0.77818 0.34659 0.16416 0.0
C2023 C 0.79669 0.3541 0.16148 0.0
C2024 C 0.77189 0.32351 0.18868 0.0
C2025 C 0.80884 0.33814 0.18342 0.0
C2026 C 0.80271 0.3155 0.20795 0.0
C2027 C 0.77813 0.28593 0.23589 0.0
C2028 C 0.75971 0.27832 0.2392 0.0
C2029 C 0.7843 0.30819 0.21088 0.0
C2030 C 0.74744 0.2929 0.21659 0.0
C2031 C 0.75348 0.3155 0.19158 0.0
H2032 H 1.02151 0.53338 0.25193 0.0
H2033 H 0.07639 0.50891 0.22648 0.0
H2034 H 0.06563 0.46477 0.1871 0.0
H2035 H 0.04034 0.43368 0.15972 0.0
H2036 H 0.98577 0.4593 0.18659 0.0
H2037 H 0.99678 0.50268 0.22575 0.0
C2038 C 0.03122 0.51849 0.23784 0.0
C2039 C 0.04977 0.5245 0.24215 0.0
C2040 C 1.02496 0.49336 0.21554 0.0
C2041 C 0.06206 0.50487 0.22358 0.0
C2042 C 0.05589 0.47961 0.20114 0.0
C2043 C 0.03089 0.44853 0.17444 0.0
C2044 C 1.01223 0.44327 0.17021 0.0
C2045 C 0.03734 0.47362 0.19696 0.0
C2046 C 1.00015 0.46306 0.18909 0.0
C2047 C 1.00644 0.48779 0.21156 0.0
H2048 H 0.77049 0.41759 0.59826 0.0
H2049 H 0.82528 0.42972 0.56474 0.0
H2050 H 0.81542 0.4697 0.52137 0.0
H2051 H 0.7916 0.50169 0.49369 0.0
H2052 H 0.73668 0.49179 0.52714 0.0
H2053 H 0.74621 0.45011 0.56978 0.0
C2054 C 0.78021 0.42879 0.58123 0.0
C2055 C 0.79861 0.42071 0.5847 0.0
C2056 C 0.77445 0.45208 0.55646 0.0
C2057 C 0.8111 0.43577 0.56279 0.0
C2058 C 0.80546 0.45852 0.53792 0.0
C2059 C 0.78162 0.49036 0.51013 0.0
C2060 C 0.76341 0.49978 0.50712 0.0
C2061 C 0.78722 0.46695 0.53465 0.0
C2062 C 0.75076 0.48495 0.52888 0.0
C2063 C 0.75622 0.46116 0.55326 0.0
H2064 H 0.04195 0.36246 0.61023 0.0
H2065 H 0.98698 0.33564 0.58653 0.0
H2066 H 0.99738 0.29471 0.54462 0.0
H2067 H 1.02174 0.26828 0.51335 0.0
H2068 H 0.07691 0.29458 0.53553 0.0
H2069 H 0.06674 0.33431 0.57937 0.0
C2070 C 0.03225 0.34775 0.59579 0.0
C2071 C 1.01367 0.35223 0.6015 0.0
C2072 C 0.03834 0.32437 0.57142 0.0
C2073 C 1.00132 0.33248 0.58297 0.0
C2074 C 1.00725 0.30924 0.55882 0.0
C2075 C 0.03162 0.28268 0.52769 0.0
C2076 C 0.05007 0.27871 0.52097 0.0
C2077 C 1.02569 0.30524 0.55265 0.0
C2078 C 0.06263 0.29725 0.54016 0.0
C2079 C 0.05681 0.31997 0.56516 0.0
H2080 H 0.79211 0.16405 0.84814 0.0
H2081 H 0.73996 0.21257 0.85059 0.0
H2082 H 0.75044 0.25697 0.81204 0.0
H2083 H 0.77376 0.28066 0.7761 0.0
H2084 H 0.82625 0.23388 0.77291 0.0
H2085 H 0.81643 0.19033 0.81374 0.0
C2086 C 0.78308 0.18434 0.8401 0.0
C2087 C 0.76523 0.18494 0.85203 0.0
C2088 C 0.78927 0.21008 0.81802 0.0
C2089 C 0.75374 0.21164 0.84188 0.0
C2090 C 0.75971 0.23698 0.81979 0.0
C2091 C 0.78312 0.26102 0.78441 0.0
C2092 C 0.80065 0.26022 0.77129 0.0
C2093 C 0.77736 0.23628 0.80755 0.0
C2094 C 0.8127 0.23502 0.78273 0.0
C2095 C 0.80703 0.21003 0.80586 0.0
H2096 H 0.54062 0.0224 0.75126 0.0
H2097 H 0.48575 0.03609 0.78349 0.0
H2098 H 0.49596 0.07689 0.82659 0.0
H2099 H 0.52073 0.10871 0.85476 0.0
H2100 H 0.57538 0.09322 0.82185 0.0
H2101 H 0.56495 0.05275 0.77931 0.0
C2102 C 0.5308 0.03431 0.76757 0.0
C2103 C 0.5124 0.02639 0.76397 0.0
C2104 C 0.53677 0.05732 0.7922 0.0
C2105 C 0.49997 0.04181 0.78568 0.0
C2106 C 0.50582 0.06513 0.81027 0.0
C2107 C 0.53032 0.09659 0.83811 0.0
C2108 C 0.54883 0.10402 0.84144 0.0
C2109 C 0.52421 0.07315 0.81368 0.0
C2110 C 0.56112 0.08773 0.82004 0.0
C2111 C 0.55515 0.06472 0.79561 0.0
H2112 H 0.78192 0.06262 0.52591 0.0
H2113 H 0.81856 1.01368 0.45748 0.0
H2114 H 0.80723 0.04998 0.41174 0.0
H2115 H 0.78526 0.09323 0.39077 0.0
H2116 H 0.74953 0.14273 0.46053 0.0
H2117 H 0.76197 0.10838 0.50629 0.0
C2118 C 0.78761 0.06026 0.50105 0.0
C2119 C 0.80103 0.03559 0.49497 0.0
C2120 C 0.78096 0.08093 0.47511 0.0
C2121 C 0.80838 0.03284 0.46278 0.0
C2122 C 0.80174 0.05329 0.43661 0.0
C2123 C 0.78025 0.09631 0.41604 0.0
C2124 C 0.76635 0.12002 0.42238 0.0
C2125 C 0.78776 0.07693 0.44236 0.0
C2126 C 0.76013 0.12443 0.45519 0.0
C2127 C 0.76726 0.10489 0.48129 0.0
H2128 H 0.5411 0.26073 0.50592 0.0
H2129 H 0.4859 0.242 0.47755 0.0
H2130 H 0.49599 0.20118 0.43458 0.0
H2131 H 0.52073 0.17083 0.40544 0.0
H2132 H 0.57568 0.19087 0.43476 0.0
H2133 H 0.56538 0.23155 0.47706 0.0
C2134 C 0.53118 0.24776 0.49045 0.0
C2135 C 0.51273 0.25426 0.49509 0.0
C2136 C 0.53707 0.22465 0.46596 0.0
C2137 C 0.50016 0.23737 0.47455 0.0
C2138 C 0.50594 0.21405 0.45003 0.0
C2139 C 0.53042 0.18395 0.42128 0.0
C2140 C 0.54897 0.17779 0.417 0.0
C2141 C 0.52438 0.20741 0.44561 0.0
C2142 C 0.56137 0.19538 0.43732 0.0
C2143 C 0.55549 0.21852 0.4616 0.0
H2144 H 0.2907 0.76381 0.2452 0.0
H2145 H 0.23592 0.79843 0.2344 0.0
H2146 H 0.24589 0.84319 0.19499 0.0
H2147 H 0.27058 0.87289 0.16424 0.0
H2148 H 0.32496 0.83611 0.17533 0.0
H2149 H 0.31475 0.79187 0.21435 0.0
C2150 C 0.28086 0.7811 0.23428 0.0
C2151 C 0.26259 0.7779 0.24287 0.0
C2152 C 0.28668 0.8065 0.21187 0.0
C2153 C 0.25005 0.80029 0.22813 0.0
C2154 C 0.25578 0.82597 0.20575 0.0
C2155 C 0.28015 0.85529 0.17547 0.0
C2156 C 0.29853 0.85782 0.16708 0.0
C2157 C 0.27411 0.82947 0.19761 0.0
C2158 C 0.31078 0.83458 0.18133 0.0
C2159 C 0.30495 0.80931 0.20363 0.0
H2160 H 0.52106 0.02062 0.24736 0.0
H2161 H 0.57618 0.99747 0.22247 0.0
H2162 H 0.56578 0.95516 0.1809 0.0
H2163 H 0.54077 0.92443 0.15243 0.0
H2164 H 0.48596 0.94823 0.17929 0.0
H2165 H 0.49659 0.99095 0.21941 0.0
C2166 C 0.53091 1.00639 0.23293 0.0
C2167 C 0.5494 1.01207 0.23814 0.0
C2168 C 0.52485 0.98227 0.20947 0.0
C2169 C 0.56188 0.99356 0.21893 0.0
C2170 C 0.55592 0.96935 0.19527 0.0
C2171 C 0.53118 0.9388 0.16727 0.0
C2172 C 0.51256 0.93312 0.16285 0.0
C2173 C 0.53741 0.96335 0.1905 0.0
C2174 C 0.50031 0.95234 0.18189 0.0
C2175 C 0.50638 0.97666 0.20495 0.0
H2176 H 0.27085 0.92889 0.60745 0.0
H2177 H 0.3257 0.9615 0.591 0.0
H2178 H 0.31542 1.0058 0.55236 0.0
H2179 H 0.2913 0.03435 0.52248 0.0
H2180 H 0.23619 1.00268 0.53694 0.0
H2181 H 0.24612 0.95892 0.57739 0.0
C2182 C 0.28053 0.94557 0.59521 0.0
C2183 C 0.29906 0.94184 0.60214 0.0
C2184 C 0.2745 0.97114 0.57284 0.0
C2185 C 0.3114 0.96401 0.58645 0.0
C2186 C 0.30553 0.98927 0.56423 0.0
C2187 C 0.28136 1.01797 0.53442 0.0
C2188 C 0.26301 0.02166 0.52652 0.0
C2189 C 0.28717 0.99297 0.55721 0.0
C2190 C 0.25039 1.0004 0.5426 0.0
C2191 C 0.25609 0.97531 0.56559 0.0
H2192 H 0.54105 0.86102 0.60108 0.0
H2193 H 0.48617 0.83139 0.58037 0.0
H2194 H 0.49656 0.78832 0.5404 0.0
H2195 H 0.52096 0.75947 0.51118 0.0
H2196 H 0.57609 0.78757 0.53143 0.0
H2197 H 0.56589 0.83092 0.57188 0.0
C2198 C 0.5314 0.84527 0.5876 0.0
C2199 C 0.51284 0.84946 0.59362 0.0
C2200 C 0.5375 0.8203 0.56473 0.0
C2201 C 0.50049 0.82851 0.57639 0.0
C2202 C 0.50643 0.80396 0.55346 0.0
C2203 C 0.53082 0.77505 0.52436 0.0
C2204 C 0.54928 0.7704 0.51815 0.0
C2205 C 0.52486 0.79966 0.54746 0.0
C2206 C 0.56181 0.79061 0.53577 0.0
C2207 C 0.55597 0.81544 0.55881 0.0
H2208 H 0.79501 0.67635 0.35624 0.0
H2209 H 0.74081 0.71469 0.34602 0.0
H2210 H 0.7512 0.75845 0.3068 0.0
H2211 H 0.77505 0.78345 0.27297 0.0
H2212 H 0.82935 0.74561 0.28121 0.0
H2213 H 0.81959 0.70404 0.32394 0.0
C2214 C 0.78548 0.69426 0.34535 0.0
C2215 C 0.7671 0.69208 0.35393 0.0
C2216 C 0.79156 0.71935 0.32254 0.0
C2217 C 0.755 0.71591 0.34011 0.0
C2218 C 0.76092 0.74084 0.31752 0.0
C2219 C 0.78482 0.76622 0.28418 0.0
C2220 C 0.80286 0.76729 0.27371 0.0
C2221 C 0.77908 0.74245 0.30825 0.0
C2222 C 0.81539 0.74526 0.2889 0.0
C2223 C 0.80977 0.7214 0.31314 0.0
H2224 H 0.54295 0.506 0.26407 0.0
H2225 H 0.48793 0.52894 0.28993 0.0
H2226 H 0.49844 0.56989 0.33249 0.0
H2227 H 0.52338 0.59987 0.36132 0.0
H2228 H 0.57822 0.57706 0.33383 0.0
H2229 H 0.56758 0.53479 0.29313 0.0
C2230 C 0.53318 0.51988 0.27897 0.0
C2231 C 0.51464 0.51455 0.27366 0.0
C2232 C 0.53931 0.54329 0.30314 0.0
C2233 C 0.50225 0.53262 0.29345 0.0
C2234 C 0.50827 0.55604 0.31774 0.0
C2235 C 0.53301 0.58583 0.34625 0.0
C2236 C 0.55161 0.59183 0.35054 0.0
C2237 C 0.52678 0.56176 0.32259 0.0
C2238 C 0.56387 0.57281 0.33131 0.0
C2239 C 0.55779 0.54878 0.30787 0.0
H2240 H 0.78872 0.61264 0.90231 0.0
H2241 H 0.73402 0.58825 0.92976 0.0
H2242 H 0.74474 0.54518 0.96936 0.0
H2243 H 0.76925 0.51479 0.99613 0.0
H2244 H 0.82429 0.53762 0.96996 0.0
H2245 H 0.81383 0.58102 0.92962 0.0
C2246 C 0.7792 0.59804 0.9172 0.0
C2247 C 0.76058 0.60362 0.91314 0.0
C2248 C 0.78549 0.57305 0.9399 0.0
C2249 C 0.74838 0.58423 0.93222 0.0
C2250 C 0.7545 0.55967 0.95491 0.0
C2251 C 0.77906 0.52921 0.9817 0.0
C2252 C 0.79755 0.52309 0.98618 0.0
C2253 C 0.77297 0.55387 0.95888 0.0
C2254 C 0.80998 0.54183 0.96696 0.0
C2255 C 0.80399 0.56668 0.94401 0.0
H2256 H 0.51847 0.66948 0.90771 0.0
H2257 H 0.57345 0.69609 0.93156 0.0
H2258 H 0.56308 0.74003 0.97047 0.0
H2259 H 0.53882 0.7705 0.9977 0.0
H2260 H 0.48352 0.74503 0.97569 0.0
H2261 H 0.49362 0.70085 0.93586 0.0
C2262 C 0.52815 0.68473 0.92168 0.0
C2263 C 0.54673 0.67955 0.9167 0.0
C2264 C 0.52206 0.71011 0.94413 0.0
C2265 C 0.55911 0.69981 0.93462 0.0
C2266 C 0.55319 0.72485 0.95696 0.0
C2267 C 0.52887 0.75537 0.98429 0.0
C2268 C 0.51042 0.761 0.98975 0.0
C2269 C 0.53475 0.73021 0.96182 0.0
C2270 C 0.4978 0.74122 0.9719 0.0
C2271 C 0.50358 0.71593 0.94924 0.0
H2272 H 0.28761 0.26441 0.74452 0.0
H2273 H 0.23412 0.30675 0.73946 0.0
H2274 H 0.24462 0.3502 0.69904 0.0
H2275 H 0.26958 0.3769 0.66638 0.0
H2276 H 0.32263 0.33243 0.67228 0.0
H2277 H 0.31174 0.28909 0.71151 0.0
C2278 C 0.27817 0.28311 0.73463 0.0
C2279 C 0.26014 0.28259 0.74518 0.0
C2280 C 0.2843 0.30772 0.71174 0.0
C2281 C 0.24806 0.30663 0.73166 0.0
C2282 C 0.2541 0.33153 0.70874 0.0
C2283 C 0.27871 0.35778 0.67648 0.0
C2284 C 0.29692 0.35789 0.66659 0.0
C2285 C 0.27227 0.33255 0.69887 0.0
C2286 C 0.30858 0.33274 0.67941 0.0
C2287 C 0.30237 0.308 0.70185 0.0
H2288 H 0.52102 0.50089 0.76493 0.0
H2289 H 0.57428 0.50035 0.72214 0.0
H2290 H 0.56409 0.45913 0.67942 0.0
H2291 H 0.53969 0.42424 0.6539 0.0
H2292 H 0.48674 0.42569 0.69816 0.0
H2293 H 0.49721 0.46619 0.74055 0.0
C2294 C 0.53051 0.49184 0.74635 0.0
C2295 C 0.54842 0.50374 0.74674 0.0
C2296 C 0.52456 0.4685 0.72203 0.0
C2297 C 0.56044 0.49156 0.72243 0.0
C2298 C 0.5546 0.46807 0.698 0.0
C2299 C 0.53049 0.43319 0.67302 0.0
C2300 C 0.5124 0.42198 0.67275 0.0
C2301 C 0.53664 0.45645 0.69753 0.0
C2302 C 0.50062 0.43423 0.69743 0.0
C2303 C 0.50663 0.45722 0.72182 0.0
H2304 H 0.26803 0.42936 0.10512 0.0
H2305 H 0.32264 0.46479 0.09156 0.0
H2306 H 0.31247 0.50681 0.05043 0.0
H2307 H 0.28856 0.53169 0.01677 0.0
H2308 H 0.23376 0.49712 0.02889 0.0
H2309 H 0.24353 0.45632 0.07223 0.0
C2310 C 0.2777 0.44622 0.09305 0.0
C2311 C 0.29612 0.4438 0.10133 0.0
C2312 C 0.27175 0.47029 0.06918 0.0
C2313 C 0.30841 0.46628 0.08593 0.0
C2314 C 0.30262 0.49017 0.06224 0.0
C2315 C 0.27868 0.51525 0.02881 0.0
C2316 C 0.26047 0.51713 0.01936 0.0
C2317 C 0.28438 0.49212 0.05346 0.0
C2318 C 0.24786 0.49607 0.03567 0.0
C2319 C 0.25346 0.47273 0.06035 0.0
H2320 H 0.52043 0.27407 1.00008 0.0
H2321 H 0.57457 0.28067 0.03876 0.0
H2322 H 0.56398 0.31758 0.08444 0.0
H2323 H 0.53926 0.34795 0.11294 0.0
H2324 H 0.48537 0.34143 0.07294 0.0
H2325 H 0.49596 0.30353 0.02849 0.0
C2326 C 0.53001 0.28359 0.01839 0.0
C2327 C 0.54832 0.27482 0.01586 0.0
C2328 C 0.52382 0.30447 0.04448 0.0
C2329 C 0.56044 0.28721 0.04002 0.0
C2330 C 0.55437 0.30821 0.06616 0.0
C2331 C 0.52984 0.33845 0.09436 0.0
C2332 C 0.51153 0.34773 0.09621 0.0
C2333 C 0.53608 0.31705 0.06855 0.0
C2334 C 0.49946 0.33448 0.07236 0.0
C2335 C 0.50554 0.31304 0.04677 0.0
loop_
_geom_bond_atom_site_label_1
_geom_bond_atom_site_label_2
_geom_bond_distance
_geom_bond_site_symmetry_2
_ccdc_geom_bond_type
C0 C1 1.351 . S
C0 N3 1.368 . S
C0 H5 0.931 . S
C1 C0 1.351 . S
C1 N2 1.373 . S
C1 H29 0.930 . S
N2 C1 1.373 . S
N2 C4 1.340 . S
N3 C0 1.368 . S
N3 C4 1.321 . S
N3 Co6 2.135 . S
C4 N2 1.340 . S
C4 N3 1.321 . S
C4 H28 0.930 . S
H5 C0 0.931 . S
Co6 N3 2.135 . S
Co6 N9 2.121 . S
Co6 O14 2.055 . S
Co6 O17 2.039 . S
Co6 N20 2.140 . S
C7 O8 1.227 . S
C7 O17 1.265 . S
O8 C7 1.227 . S
N9 Co6 2.121 . S
N9 C11 1.375 . S
N9 C12 1.313 . S
C10 C11 1.338 . S
C10 N13 1.377 . S
C10 H30 0.930 . S
C11 N9 1.375 . S
C11 C10 1.338 . S
C11 H15 0.931 . S
C12 N9 1.313 . S
C12 N13 1.344 . S
C12 H16 0.930 . S
N13 C10 1.377 . S
N13 C12 1.344 . S
O14 Co6 2.055 . S
O14 C18 1.253 . S
H15 C11 0.931 . S
H16 C12 0.930 . S
O17 Co6 2.039 . S
O17 C7 1.265 . S
C18 O14 1.253 . S
C18 O19 1.227 . S
O19 C18 1.227 . S
N20 Co6 2.140 . S
N20 C23 1.346 . S
N20 C24 1.345 . S
C21 C22 1.387 . S
C21 C25 1.391 . S
C22 C21 1.387 . S
C22 C23 1.369 . S
C22 H31 0.929 . S
C23 N20 1.346 . S
C23 C22 1.369 . S
C23 H26 0.928 . S
C24 N20 1.345 . S
C24 C25 1.371 . S
C24 H27 0.931 . S
C25 C21 1.391 . S
C25 C24 1.371 . S
C25 H32 0.930 . S
H26 C23 0.928 . S
H27 C24 0.931 . S
H28 C4 0.930 . S
H29 C1 0.930 . S
H30 C10 0.930 . S
H31 C22 0.929 . S
H32 C25 0.930 . S
C33 C34 1.351 . S
C33 N36 1.368 . S
C33 H38 0.931 . S
C34 C33 1.351 . S
C34 N35 1.373 . S
C34 H62 0.930 . S
N35 C34 1.373 . S
N35 C37 1.340 . S
N36 C33 1.368 . S
N36 C37 1.321 . S
N36 Co39 2.135 . S
C37 N35 1.340 . S
C37 N36 1.321 . S
C37 H61 0.930 . S
H38 C33 0.931 . S
Co39 N36 2.135 . S
Co39 N42 2.121 1_565 S
Co39 O47 2.055 1_565 S
Co39 O50 2.039 . S
Co39 N53 2.140 . S
C40 O41 1.227 . S
C40 O50 1.265 . S
O41 C40 1.227 . S
N42 Co39 2.121 1_545 S
N42 C44 1.375 1_545 S
N42 C45 1.313 . S
C43 C44 1.338 1_545 S
C43 N46 1.377 . S
C43 H63 0.930 . S
C44 N42 1.375 1_565 S
C44 C43 1.338 1_565 S
C44 H48 0.931 . S
C45 N42 1.313 . S
C45 N46 1.344 . S
C45 H49 0.930 . S
N46 C43 1.377 . S
N46 C45 1.344 . S
O47 Co39 2.055 1_545 S
O47 C51 1.253 . S
H48 C44 0.931 . S
H49 C45 0.930 . S
O50 Co39 2.039 . S
O50 C40 1.265 . S
C51 O47 1.253 . S
C51 O52 1.227 . S
O52 C51 1.227 . S
N53 Co39 2.140 . S
N53 C56 1.346 . S
N53 C57 1.345 . S
C54 C55 1.387 . S
C54 C58 1.391 . S
C55 C54 1.387 . S
C55 C56 1.369 . S
C55 H64 0.929 . S
C56 N53 1.346 . S
C56 C55 1.369 . S
C56 H59 0.928 . S
C57 N53 1.345 . S
C57 C58 1.371 . S
C57 H60 0.931 . S
C58 C54 1.391 . S
C58 C57 1.371 . S
C58 H65 0.930 . S
H59 C56 0.928 . S
H60 C57 0.931 . S
H61 C37 0.930 . S
H62 C34 0.930 . S
H63 C43 0.930 . S
H64 C55 0.929 . S
H65 C58 0.930 . S
C66 C67 1.351 . S
C66 N69 1.368 . S
C66 H71 0.931 . S
C67 C66 1.351 . S
C67 N68 1.373 . S
C67 H95 0.930 . S
N68 C67 1.373 . S
N68 C70 1.340 . S
N69 C66 1.368 . S
N69 C70 1.321 . S
N69 Co72 2.135 1_556 S
C70 N68 1.340 . S
C70 N69 1.321 . S
C70 H94 0.930 . S
H71 C66 0.931 . S
Co72 N69 2.135 1_554 S
Co72 N75 2.121 1_565 S
Co72 O80 2.055 1_564 S
Co72 O83 2.039 . S
Co72 N86 2.140 . S
C73 O74 1.227 . S
C73 O83 1.265 . S
O74 C73 1.227 . S
N75 Co72 2.121 1_545 S
N75 C77 1.375 1_545 S
N75 C78 1.313 . S
C76 C77 1.338 1_545 S
C76 N79 1.377 . S
C76 H96 0.930 . S
C77 N75 1.375 1_565 S
C77 C76 1.338 1_565 S
C77 H81 0.931 . S
C78 N75 1.313 . S
C78 N79 1.344 . S
C78 H82 0.930 . S
N79 C76 1.377 . S
N79 C78 1.344 . S
O80 Co72 2.055 1_546 S
O80 C84 1.253 . S
H81 C77 0.931 . S
H82 C78 0.930 . S
O83 Co72 2.039 . S
O83 C73 1.265 . S
C84 O80 1.253 . S
C84 O85 1.227 1_556 S
O85 C84 1.227 1_554 S
N86 Co72 2.140 . S
N86 C89 1.346 . S
N86 C90 1.345 . S
C87 C88 1.387 . S
C87 C91 1.391 . S
C88 C87 1.387 . S
C88 C89 1.369 . S
C88 H97 0.929 . S
C89 N86 1.346 . S
C89 C88 1.369 . S
C89 H92 0.928 . S
C90 N86 1.345 . S
C90 C91 1.371 . S
C90 H93 0.931 . S
C91 C87 1.391 . S
C91 C90 1.371 . S
C91 H98 0.930 . S
H92 C89 0.928 . S
H93 C90 0.931 . S
H94 C70 0.930 . S
H95 C67 0.930 . S
H96 C76 0.930 . S
H97 C88 0.929 . S
H98 C91 0.930 . S
C99 C100 1.351 . S
C99 N102 1.368 . S
C99 H104 0.931 . S
C100 C99 1.351 . S
C100 N101 1.373 . S
C100 H128 0.930 . S
N101 C100 1.373 . S
N101 C103 1.340 . S
N102 C99 1.368 . S
N102 C103 1.321 . S
N102 Co105 2.135 1_556 S
C103 N101 1.340 . S
C103 N102 1.321 . S
C103 H127 0.930 . S
H104 C99 0.931 . S
Co105 N102 2.135 1_554 S
Co105 N108 2.121 . S
Co105 O113 2.055 1_554 S
Co105 O116 2.039 . S
Co105 N119 2.140 . S
C106 O107 1.227 . S
C106 O116 1.265 . S
O107 C106 1.227 . S
N108 Co105 2.121 . S
N108 C110 1.375 . S
N108 C111 1.313 . S
C109 C110 1.338 . S
C109 N112 1.377 . S
C109 H129 0.930 . S
C110 N108 1.375 . S
C110 C109 1.338 . S
C110 H114 0.931 . S
C111 N108 1.313 . S
C111 N112 1.344 . S
C111 H115 0.930 . S
N112 C109 1.377 . S
N112 C111 1.344 . S
O113 Co105 2.055 1_556 S
O113 C117 1.253 . S
H114 C110 0.931 . S
H115 C111 0.930 . S
O116 Co105 2.039 . S
O116 C106 1.265 . S
C117 O113 1.253 . S
C117 O118 1.227 1_556 S
O118 C117 1.227 1_554 S
N119 Co105 2.140 . S
N119 C122 1.346 . S
N119 C123 1.345 . S
C120 C121 1.387 . S
C120 C124 1.391 . S
C121 C120 1.387 . S
C121 C122 1.369 . S
C121 H130 0.929 . S
C122 N119 1.346 . S
C122 C121 1.369 . S
C122 H125 0.928 . S
C123 N119 1.345 . S
C123 C124 1.371 . S
C123 H126 0.931 . S
C124 C120 1.391 . S
C124 C123 1.371 . S
C124 H131 0.930 . S
H125 C122 0.928 . S
H126 C123 0.931 . S
H127 C103 0.930 . S
H128 C100 0.930 . S
H129 C109 0.930 . S
H130 C121 0.929 . S
H131 C124 0.930 . S
C132 C133 1.351 . S
C132 N135 1.368 . S
C132 H137 0.931 . S
C133 C132 1.351 . S
C133 N134 1.373 . S
C133 H161 0.930 . S
N134 C133 1.373 . S
N134 C136 1.340 . S
N135 C132 1.368 . S
N135 C136 1.321 . S
N135 Co138 2.135 . S
C136 N134 1.340 . S
C136 N135 1.321 . S
C136 H160 0.930 . S
H137 C132 0.931 . S
Co138 N135 2.135 . S
Co138 N141 2.121 . S
Co138 O146 2.055 . S
Co138 O149 2.039 . S
Co138 N152 2.140 . S
C139 O140 1.227 . S
C139 O149 1.265 . S
O140 C139 1.227 . S
N141 Co138 2.121 . S
N141 C143 1.375 . S
N141 C144 1.313 . S
C142 C143 1.338 . S
C142 N145 1.377 . S
C142 H162 0.930 . S
C143 N141 1.375 . S
C143 C142 1.338 . S
C143 H147 0.931 . S
C144 N141 1.313 . S
C144 N145 1.344 . S
C144 H148 0.930 . S
N145 C142 1.377 . S
N145 C144 1.344 . S
O146 Co138 2.055 . S
O146 C150 1.253 . S
H147 C143 0.931 . S
H148 C144 0.930 . S
O149 Co138 2.039 . S
O149 C139 1.265 . S
C150 O146 1.253 . S
C150 O151 1.227 . S
O151 C150 1.227 . S
N152 Co138 2.140 . S
N152 C155 1.346 . S
N152 C156 1.345 . S
C153 C154 1.387 . S
C153 C157 1.391 . S
C154 C153 1.387 . S
C154 C155 1.369 . S
C154 H163 0.929 . S
C155 N152 1.346 . S
C155 C154 1.369 . S
C155 H158 0.928 . S
C156 N152 1.345 . S
C156 C157 1.371 . S
C156 H159 0.931 . S
C157 C153 1.391 . S
C157 C156 1.371 . S
C157 H164 0.930 . S
H158 C155 0.928 . S
H159 C156 0.931 . S
H160 C136 0.930 . S
H161 C133 0.930 . S
H162 C142 0.930 . S
H163 C154 0.929 . S
H164 C157 0.930 . S
C165 C166 1.351 . S
C165 N168 1.368 . S
C165 H170 0.931 . S
C166 C165 1.351 . S
C166 N167 1.373 . S
C166 H194 0.930 . S
N167 C166 1.373 . S
N167 C169 1.340 . S
N168 C165 1.368 . S
N168 C169 1.321 . S
N168 Co171 2.135 . S
C169 N167 1.340 . S
C169 N168 1.321 . S
C169 H193 0.930 . S
H170 C165 0.931 . S
Co171 N168 2.135 . S
Co171 N174 2.121 1_545 S
Co171 O179 2.055 1_545 S
Co171 O182 2.039 . S
Co171 N185 2.140 . S
C172 O173 1.227 . S
C172 O182 1.265 . S
O173 C172 1.227 . S
N174 Co171 2.121 1_565 S
N174 C176 1.375 1_565 S
N174 C177 1.313 . S
C175 C176 1.338 1_565 S
C175 N178 1.377 . S
C175 H195 0.930 . S
C176 N174 1.375 1_545 S
C176 C175 1.338 1_545 S
C176 H180 0.931 . S
C177 N174 1.313 . S
C177 N178 1.344 . S
C177 H181 0.930 . S
N178 C175 1.377 . S
N178 C177 1.344 . S
O179 Co171 2.055 1_565 S
O179 C183 1.253 . S
H180 C176 0.931 . S
H181 C177 0.930 . S
O182 Co171 2.039 . S
O182 C172 1.265 . S
C183 O179 1.253 . S
C183 O184 1.227 . S
O184 C183 1.227 . S
N185 Co171 2.140 . S
N185 C188 1.346 . S
N185 C189 1.345 . S
C186 C187 1.387 . S
C186 C190 1.391 . S
C187 C186 1.387 . S
C187 C188 1.369 . S
C187 H196 0.929 . S
C188 N185 1.346 . S
C188 C187 1.369 . S
C188 H191 0.928 . S
C189 N185 1.345 . S
C189 C190 1.371 . S
C189 H192 0.931 . S
C190 C186 1.391 . S
C190 C189 1.371 . S
C190 H197 0.930 . S
H191 C188 0.928 . S
H192 C189 0.931 . S
H193 C169 0.930 . S
H194 C166 0.930 . S
H195 C175 0.930 . S
H196 C187 0.929 . S
H197 C190 0.930 . S
C198 C199 1.351 . S
C198 N201 1.368 . S
C198 H203 0.931 . S
C199 C198 1.351 . S
C199 N200 1.373 . S
C199 H227 0.930 . S
N200 C199 1.373 . S
N200 C202 1.340 . S
N201 C198 1.368 . S
N201 C202 1.321 . S
N201 Co204 2.135 1_554 S
C202 N200 1.340 . S
C202 N201 1.321 . S
C202 H226 0.930 . S
H203 C198 0.931 . S
Co204 N201 2.135 1_556 S
Co204 N207 2.121 1_545 S
Co204 O212 2.055 1_546 S
Co204 O215 2.039 . S
Co204 N218 2.140 . S
C205 O206 1.227 . S
C205 O215 1.265 . S
O206 C205 1.227 . S
N207 Co204 2.121 1_565 S
N207 C209 1.375 1_565 S
N207 C210 1.313 . S
C208 C209 1.338 1_565 S
C208 N211 1.377 . S
C208 H228 0.930 . S
C209 N207 1.375 1_545 S
C209 C208 1.338 1_545 S
C209 H213 0.931 . S
C210 N207 1.313 . S
C210 N211 1.344 . S
C210 H214 0.930 . S
N211 C208 1.377 . S
N211 C210 1.344 . S
O212 Co204 2.055 1_564 S
O212 C216 1.253 . S
H213 C209 0.931 . S
H214 C210 0.930 . S
O215 Co204 2.039 . S
O215 C205 1.265 . S
C216 O212 1.253 . S
C216 O217 1.227 1_554 S
O217 C216 1.227 1_556 S
N218 Co204 2.140 . S
N218 C221 1.346 . S
N218 C222 1.345 . S
C219 C220 1.387 . S
C219 C223 1.391 . S
C220 C219 1.387 . S
C220 C221 1.369 . S
C220 H229 0.929 . S
C221 N218 1.346 . S
C221 C220 1.369 . S
C221 H224 0.928 . S
C222 N218 1.345 . S
C222 C223 1.371 . S
C222 H225 0.931 . S
C223 C219 1.391 . S
C223 C222 1.371 . S
C223 H230 0.930 . S
H224 C221 0.928 . S
H225 C222 0.931 . S
H226 C202 0.930 . S
H227 C199 0.930 . S
H228 C208 0.930 . S
H229 C220 0.929 . S
H230 C223 0.930 . S
C231 C232 1.351 . S
C231 N234 1.368 . S
C231 H236 0.931 . S
C232 C231 1.351 . S
C232 N233 1.373 . S
C232 H260 0.930 . S
N233 C232 1.373 . S
N233 C235 1.340 . S
N234 C231 1.368 . S
N234 C235 1.321 . S
N234 Co237 2.135 1_554 S
C235 N233 1.340 . S
C235 N234 1.321 . S
C235 H259 0.930 . S
H236 C231 0.931 . S
Co237 N234 2.135 1_556 S
Co237 N240 2.121 . S
Co237 O245 2.055 1_556 S
Co237 O248 2.039 . S
Co237 N251 2.140 . S
C238 O239 1.227 . S
C238 O248 1.265 . S
O239 C238 1.227 . S
N240 Co237 2.121 . S
N240 C242 1.375 . S
N240 C243 1.313 . S
C241 C242 1.338 . S
C241 N244 1.377 . S
C241 H261 0.930 . S
C242 N240 1.375 . S
C242 C241 1.338 . S
C242 H246 0.931 . S
C243 N240 1.313 . S
C243 N244 1.344 . S
C243 H247 0.930 . S
N244 C241 1.377 . S
N244 C243 1.344 . S
O245 Co237 2.055 1_554 S
O245 C249 1.253 . S
H246 C242 0.931 . S
H247 C243 0.930 . S
O248 Co237 2.039 . S
O248 C238 1.265 . S
C249 O245 1.253 . S
C249 O250 1.227 1_554 S
O250 C249 1.227 1_556 S
N251 Co237 2.140 . S
N251 C254 1.346 . S
N251 C255 1.345 . S
C252 C253 1.387 . S
C252 C256 1.391 . S
C253 C252 1.387 . S
C253 C254 1.369 . S
C253 H262 0.929 . S
C254 N251 1.346 . S
C254 C253 1.369 . S
C254 H257 0.928 . S
C255 N251 1.345 . S
C255 C256 1.371 . S
C255 H258 0.931 . S
C256 C252 1.391 . S
C256 C255 1.371 . S
C256 H263 0.930 . S
H257 C254 0.928 . S
H258 C255 0.931 . S
H259 C235 0.930 . S
H260 C232 0.930 . S
H261 C241 0.930 . S
H262 C253 0.929 . S
H263 C256 0.930 . S
C264 C265 1.351 . S
C264 N267 1.368 . S
C264 H269 0.931 . S
C265 C264 1.351 . S
C265 N266 1.373 . S
C265 H293 0.930 . S
N266 C265 1.373 . S
N266 C268 1.340 . S
N267 C264 1.368 . S
N267 C268 1.321 . S
N267 Co270 2.135 . S
C268 N266 1.340 . S
C268 N267 1.321 . S
C268 H292 0.930 . S
H269 C264 0.931 . S
Co270 N267 2.135 . S
Co270 N273 2.121 . S
Co270 O278 2.055 . S
Co270 O281 2.039 . S
Co270 N284 2.140 . S
C271 O272 1.227 . S
C271 O281 1.265 . S
O272 C271 1.227 . S
N273 Co270 2.121 . S
N273 C275 1.375 . S
N273 C276 1.313 . S
C274 C275 1.338 . S
C274 N277 1.377 . S
C274 H294 0.930 . S
C275 N273 1.375 . S
C275 C274 1.338 . S
C275 H279 0.931 . S
C276 N273 1.313 . S
C276 N277 1.344 . S
C276 H280 0.930 . S
N277 C274 1.377 . S
N277 C276 1.344 . S
O278 Co270 2.055 . S
O278 C282 1.253 . S
H279 C275 0.931 . S
H280 C276 0.930 . S
O281 Co270 2.039 . S
O281 C271 1.265 . S
C282 O278 1.253 . S
C282 O283 1.227 . S
O283 C282 1.227 . S
N284 Co270 2.140 . S
N284 C287 1.346 . S
N284 C288 1.345 . S
C285 C286 1.387 . S
C285 C289 1.391 . S
C286 C285 1.387 . S
C286 C287 1.369 . S
C286 H295 0.929 . S
C287 N284 1.346 . S
C287 C286 1.369 . S
C287 H290 0.928 . S
C288 N284 1.345 . S
C288 C289 1.371 . S
C288 H291 0.931 . S
C289 C285 1.391 . S
C289 C288 1.371 . S
C289 H296 0.930 . S
H290 C287 0.928 . S
H291 C288 0.931 . S
H292 C268 0.930 . S
H293 C265 0.930 . S
H294 C274 0.930 . S
H295 C286 0.929 . S
H296 C289 0.930 . S
C297 C298 1.351 . S
C297 N300 1.368 . S
C297 H302 0.931 . S
C298 C297 1.351 . S
C298 N299 1.373 . S
C298 H326 0.930 . S
N299 C298 1.373 . S
N299 C301 1.340 . S
N300 C297 1.368 . S
N300 C301 1.321 . S
N300 Co303 2.135 . S
C301 N299 1.340 . S
C301 N300 1.321 . S
C301 H325 0.930 . S
H302 C297 0.931 . S
Co303 N300 2.135 . S
Co303 N306 2.121 . S
Co303 O311 2.055 . S
Co303 O314 2.039 . S
Co303 N317 2.140 . S
C304 O305 1.227 . S
C304 O314 1.265 . S
O305 C304 1.227 . S
N306 Co303 2.121 . S
N306 C308 1.375 . S
N306 C309 1.313 . S
C307 C308 1.338 . S
C307 N310 1.377 . S
C307 H327 0.930 . S
C308 N306 1.375 . S
C308 C307 1.338 . S
C308 H312 0.931 . S
C309 N306 1.313 . S
C309 N310 1.344 . S
C309 H313 0.930 . S
N310 C307 1.377 . S
N310 C309 1.344 . S
O311 Co303 2.055 . S
O311 C315 1.253 . S
H312 C308 0.931 . S
H313 C309 0.930 . S
O314 Co303 2.039 . S
O314 C304 1.265 . S
C315 O311 1.253 . S
C315 O316 1.227 . S
O316 C315 1.227 . S
N317 Co303 2.140 . S
N317 C320 1.346 . S
N317 C321 1.345 . S
C318 C319 1.387 . S
C318 C322 1.391 . S
C319 C318 1.387 . S
C319 C320 1.369 . S
C319 H328 0.929 . S
C320 N317 1.346 . S
C320 C319 1.369 . S
C320 H323 0.928 . S
C321 N317 1.345 . S
C321 C322 1.371 . S
C321 H324 0.931 . S
C322 C318 1.391 . S
C322 C321 1.371 . S
C322 H329 0.930 . S
H323 C320 0.928 . S
H324 C321 0.931 . S
H325 C301 0.930 . S
H326 C298 0.930 . S
H327 C307 0.930 . S
H328 C319 0.929 . S
H329 C322 0.930 . S
C330 C331 1.351 . S
C330 N333 1.368 . S
C330 H335 0.931 . S
C331 C330 1.351 . S
C331 N332 1.373 . S
C331 H359 0.930 . S
N332 C331 1.373 . S
N332 C334 1.340 . S
N333 C330 1.368 . S
N333 C334 1.321 . S
N333 Co336 2.135 . S
C334 N332 1.340 . S
C334 N333 1.321 . S
C334 H358 0.930 . S
H335 C330 0.931 . S
Co336 N333 2.135 . S
Co336 N339 2.121 . S
Co336 O344 2.055 . S
Co336 O347 2.039 . S
Co336 N350 2.140 . S
C337 O338 1.227 . S
C337 O347 1.265 . S
O338 C337 1.227 . S
N339 Co336 2.121 . S
N339 C341 1.375 . S
N339 C342 1.313 . S
C340 C341 1.338 . S
C340 N343 1.377 . S
C340 H360 0.930 . S
C341 N339 1.375 . S
C341 C340 1.338 . S
C341 H345 0.931 . S
C342 N339 1.313 . S
C342 N343 1.344 . S
C342 H346 0.930 . S
N343 C340 1.377 . S
N343 C342 1.344 . S
O344 Co336 2.055 . S
O344 C348 1.253 . S
H345 C341 0.931 . S
H346 C342 0.930 . S
O347 Co336 2.039 . S
O347 C337 1.265 . S
C348 O344 1.253 . S
C348 O349 1.227 . S
O349 C348 1.227 . S
N350 Co336 2.140 . S
N350 C353 1.346 . S
N350 C354 1.345 . S
C351 C352 1.387 . S
C351 C355 1.391 . S
C352 C351 1.387 . S
C352 C353 1.369 . S
C352 H361 0.929 . S
C353 N350 1.346 . S
C353 C352 1.369 . S
C353 H356 0.928 . S
C354 N350 1.345 . S
C354 C355 1.371 . S
C354 H357 0.931 . S
C355 C351 1.391 . S
C355 C354 1.371 . S
C355 H362 0.930 . S
H356 C353 0.928 . S
H357 C354 0.931 . S
H358 C334 0.930 . S
H359 C331 0.930 . S
H360 C340 0.930 . S
H361 C352 0.929 . S
H362 C355 0.930 . S
C363 C364 1.351 . S
C363 N366 1.368 . S
C363 H368 0.931 . S
C364 C363 1.351 . S
C364 N365 1.373 . S
C364 H392 0.930 . S
N365 C364 1.373 . S
N365 C367 1.340 . S
N366 C363 1.368 . S
N366 C367 1.321 . S
N366 Co369 2.135 . S
C367 N365 1.340 . S
C367 N366 1.321 . S
C367 H391 0.930 . S
H368 C363 0.931 . S
Co369 N366 2.135 . S
Co369 N372 2.121 . S
Co369 O377 2.055 . S
Co369 O380 2.039 . S
Co369 N383 2.140 . S
C370 O371 1.227 . S
C370 O380 1.265 . S
O371 C370 1.227 . S
N372 Co369 2.121 . S
N372 C374 1.375 . S
N372 C375 1.313 . S
C373 C374 1.338 . S
C373 N376 1.377 . S
C373 H393 0.930 . S
C374 N372 1.375 . S
C374 C373 1.338 . S
C374 H378 0.931 . S
C375 N372 1.313 . S
C375 N376 1.344 . S
C375 H379 0.930 . S
N376 C373 1.377 . S
N376 C375 1.344 . S
O377 Co369 2.055 . S
O377 C381 1.253 . S
H378 C374 0.931 . S
H379 C375 0.930 . S
O380 Co369 2.039 . S
O380 C370 1.265 . S
C381 O377 1.253 . S
C381 O382 1.227 . S
O382 C381 1.227 . S
N383 Co369 2.140 . S
N383 C386 1.346 . S
N383 C387 1.345 . S
C384 C385 1.387 . S
C384 C388 1.391 . S
C385 C384 1.387 . S
C385 C386 1.369 . S
C385 H394 0.929 . S
C386 N383 1.346 . S
C386 C385 1.369 . S
C386 H389 0.928 . S
C387 N383 1.345 . S
C387 C388 1.371 . S
C387 H390 0.931 . S
C388 C384 1.391 . S
C388 C387 1.371 . S
C388 H395 0.930 . S
H389 C386 0.928 . S
H390 C387 0.931 . S
H391 C367 0.930 . S
H392 C364 0.930 . S
H393 C373 0.930 . S
H394 C385 0.929 . S
H395 C388 0.930 . S
C396 C397 1.351 . S
C396 N399 1.368 . S
C396 H401 0.931 . S
C397 C396 1.351 . S
C397 N398 1.373 . S
C397 H425 0.930 . S
N398 C397 1.373 . S
N398 C400 1.340 . S
N399 C396 1.368 . S
N399 C400 1.321 . S
N399 Co402 2.135 . S
C400 N398 1.340 . S
C400 N399 1.321 . S
C400 H424 0.930 . S
H401 C396 0.931 . S
Co402 N399 2.135 . S
Co402 N405 2.121 . S
Co402 O410 2.055 . S
Co402 O413 2.039 . S
Co402 N416 2.140 . S
C403 O404 1.227 . S
C403 O413 1.265 . S
O404 C403 1.227 . S
N405 Co402 2.121 . S
N405 C407 1.375 . S
N405 C408 1.313 . S
C406 C407 1.338 . S
C406 N409 1.377 . S
C406 H426 0.930 . S
C407 N405 1.375 . S
C407 C406 1.338 . S
C407 H411 0.931 . S
C408 N405 1.313 . S
C408 N409 1.344 . S
C408 H412 0.930 . S
N409 C406 1.377 . S
N409 C408 1.344 . S
O410 Co402 2.055 . S
O410 C414 1.253 . S
H411 C407 0.931 . S
H412 C408 0.930 . S
O413 Co402 2.039 . S
O413 C403 1.265 . S
C414 O410 1.253 . S
C414 O415 1.227 . S
O415 C414 1.227 . S
N416 Co402 2.140 . S
N416 C419 1.346 . S
N416 C420 1.345 . S
C417 C418 1.387 . S
C417 C421 1.391 . S
C418 C417 1.387 . S
C418 C419 1.369 . S
C418 H427 0.929 . S
C419 N416 1.346 . S
C419 C418 1.369 . S
C419 H422 0.928 . S
C420 N416 1.345 . S
C420 C421 1.371 . S
C420 H423 0.931 . S
C421 C417 1.391 . S
C421 C420 1.371 . S
C421 H428 0.930 . S
H422 C419 0.928 . S
H423 C420 0.931 . S
H424 C400 0.930 . S
H425 C397 0.930 . S
H426 C406 0.930 . S
H427 C418 0.929 . S
H428 C421 0.930 . S
C429 C430 1.351 . S
C429 N432 1.368 . S
C429 H434 0.931 . S
C430 C429 1.351 . S
C430 N431 1.373 . S
C430 H458 0.930 . S
N431 C430 1.373 . S
N431 C433 1.340 . S
N432 C429 1.368 . S
N432 C433 1.321 . S
N432 Co435 2.135 . S
C433 N431 1.340 . S
C433 N432 1.321 . S
C433 H457 0.930 . S
H434 C429 0.931 . S
Co435 N432 2.135 . S
Co435 N438 2.121 . S
Co435 O443 2.055 . S
Co435 O446 2.039 . S
Co435 N449 2.140 . S
C436 O437 1.227 . S
C436 O446 1.265 . S
O437 C436 1.227 . S
N438 Co435 2.121 . S
N438 C440 1.375 . S
N438 C441 1.313 . S
C439 C440 1.338 . S
C439 N442 1.377 . S
C439 H459 0.930 . S
C440 N438 1.375 . S
C440 C439 1.338 . S
C440 H444 0.931 . S
C441 N438 1.313 . S
C441 N442 1.344 . S
C441 H445 0.930 . S
N442 C439 1.377 . S
N442 C441 1.344 . S
O443 Co435 2.055 . S
O443 C447 1.253 . S
H444 C440 0.931 . S
H445 C441 0.930 . S
O446 Co435 2.039 . S
O446 C436 1.265 . S
C447 O443 1.253 . S
C447 O448 1.227 . S
O448 C447 1.227 . S
N449 Co435 2.140 . S
N449 C452 1.346 . S
N449 C453 1.345 . S
C450 C451 1.387 . S
C450 C454 1.391 . S
C451 C450 1.387 . S
C451 C452 1.369 . S
C451 H460 0.929 . S
C452 N449 1.346 . S
C452 C451 1.369 . S
C452 H455 0.928 . S
C453 N449 1.345 . S
C453 C454 1.371 . S
C453 H456 0.931 . S
C454 C450 1.391 . S
C454 C453 1.371 . S
C454 H461 0.930 . S
H455 C452 0.928 . S
H456 C453 0.931 . S
H457 C433 0.930 . S
H458 C430 0.930 . S
H459 C439 0.930 . S
H460 C451 0.929 . S
H461 C454 0.930 . S
C462 C463 1.351 . S
C462 N465 1.368 . S
C462 H467 0.931 . S
C463 C462 1.351 . S
C463 N464 1.373 . S
C463 H491 0.930 . S
N464 C463 1.373 . S
N464 C466 1.340 . S
N465 C462 1.368 . S
N465 C466 1.321 . S
N465 Co468 2.135 . S
C466 N464 1.340 . S
C466 N465 1.321 . S
C466 H490 0.930 . S
H467 C462 0.931 . S
Co468 N465 2.135 . S
Co468 N471 2.121 . S
Co468 O476 2.055 . S
Co468 O479 2.039 . S
Co468 N482 2.140 . S
C469 O470 1.227 . S
C469 O479 1.265 . S
O470 C469 1.227 . S
N471 Co468 2.121 . S
N471 C473 1.375 . S
N471 C474 1.313 . S
C472 C473 1.338 . S
C472 N475 1.377 . S
C472 H492 0.930 . S
C473 N471 1.375 . S
C473 C472 1.338 . S
C473 H477 0.931 . S
C474 N471 1.313 . S
C474 N475 1.344 . S
C474 H478 0.930 . S
N475 C472 1.377 . S
N475 C474 1.344 . S
O476 Co468 2.055 . S
O476 C480 1.253 . S
H477 C473 0.931 . S
H478 C474 0.930 . S
O479 Co468 2.039 . S
O479 C469 1.265 . S
C480 O476 1.253 . S
C480 O481 1.227 . S
O481 C480 1.227 . S
N482 Co468 2.140 . S
N482 C485 1.346 . S
N482 C486 1.345 . S
C483 C484 1.387 . S
C483 C487 1.391 . S
C484 C483 1.387 . S
C484 C485 1.369 . S
C484 H493 0.929 . S
C485 N482 1.346 . S
C485 C484 1.369 . S
C485 H488 0.928 . S
C486 N482 1.345 . S
C486 C487 1.371 . S
C486 H489 0.931 . S
C487 C483 1.391 . S
C487 C486 1.371 . S
C487 H494 0.930 . S
H488 C485 0.928 . S
H489 C486 0.931 . S
H490 C466 0.930 . S
H491 C463 0.930 . S
H492 C472 0.930 . S
H493 C484 0.929 . S
H494 C487 0.930 . S
C495 C496 1.351 . S
C495 N498 1.368 . S
C495 H500 0.931 . S
C496 C495 1.351 . S
C496 N497 1.373 . S
C496 H524 0.930 . S
N497 C496 1.373 . S
N497 C499 1.340 . S
N498 C495 1.368 . S
N498 C499 1.321 . S
N498 Co501 2.135 . S
C499 N497 1.340 . S
C499 N498 1.321 . S
C499 H523 0.930 . S
H500 C495 0.931 . S
Co501 N498 2.135 . S
Co501 N504 2.121 . S
Co501 O509 2.055 . S
Co501 O512 2.039 . S
Co501 N515 2.140 . S
C502 O503 1.227 . S
C502 O512 1.265 . S
O503 C502 1.227 . S
N504 Co501 2.121 . S
N504 C506 1.375 . S
N504 C507 1.313 . S
C505 C506 1.338 . S
C505 N508 1.377 . S
C505 H525 0.930 . S
C506 N504 1.375 . S
C506 C505 1.338 . S
C506 H510 0.931 . S
C507 N504 1.313 . S
C507 N508 1.344 . S
C507 H511 0.930 . S
N508 C505 1.377 . S
N508 C507 1.344 . S
O509 Co501 2.055 . S
O509 C513 1.253 . S
H510 C506 0.931 . S
H511 C507 0.930 . S
O512 Co501 2.039 . S
O512 C502 1.265 . S
C513 O509 1.253 . S
C513 O514 1.227 . S
O514 C513 1.227 . S
N515 Co501 2.140 . S
N515 C518 1.346 . S
N515 C519 1.345 . S
C516 C517 1.387 . S
C516 C520 1.391 . S
C517 C516 1.387 . S
C517 C518 1.369 . S
C517 H526 0.929 . S
C518 N515 1.346 . S
C518 C517 1.369 . S
C518 H521 0.928 . S
C519 N515 1.345 . S
C519 C520 1.371 . S
C519 H522 0.931 . S
C520 C516 1.391 . S
C520 C519 1.371 . S
C520 H527 0.930 . S
H521 C518 0.928 . S
H522 C519 0.931 . S
H523 C499 0.930 . S
H524 C496 0.930 . S
H525 C505 0.930 . S
H526 C517 0.929 . S
H527 C520 0.930 . S
C528 C529 1.351 . S
C528 N531 1.368 . S
C528 H533 0.931 . S
C529 C528 1.351 . S
C529 N530 1.373 . S
C529 H557 0.930 . S
N530 C529 1.373 . S
N530 C532 1.340 . S
N531 C528 1.368 . S
N531 C532 1.321 . S
N531 Co534 2.135 . S
C532 N530 1.340 . S
C532 N531 1.321 . S
C532 H556 0.930 . S
H533 C528 0.931 . S
Co534 N531 2.135 . S
Co534 N537 2.121 . S
Co534 O542 2.055 . S
Co534 O545 2.039 . S
Co534 N548 2.140 . S
C535 O536 1.227 . S
C535 O545 1.265 . S
O536 C535 1.227 . S
N537 Co534 2.121 . S
N537 C539 1.375 . S
N537 C540 1.313 . S
C538 C539 1.338 . S
C538 N541 1.377 . S
C538 H558 0.930 . S
C539 N537 1.375 . S
C539 C538 1.338 . S
C539 H543 0.931 . S
C540 N537 1.313 . S
C540 N541 1.344 . S
C540 H544 0.930 . S
N541 C538 1.377 . S
N541 C540 1.344 . S
O542 Co534 2.055 . S
O542 C546 1.253 . S
H543 C539 0.931 . S
H544 C540 0.930 . S
O545 Co534 2.039 . S
O545 C535 1.265 . S
C546 O542 1.253 . S
C546 O547 1.227 . S
O547 C546 1.227 . S
N548 Co534 2.140 . S
N548 C551 1.346 . S
N548 C552 1.345 . S
C549 C550 1.387 . S
C549 C553 1.391 . S
C550 C549 1.387 . S
C550 C551 1.369 . S
C550 H559 0.929 . S
C551 N548 1.346 . S
C551 C550 1.369 . S
C551 H554 0.928 . S
C552 N548 1.345 . S
C552 C553 1.371 . S
C552 H555 0.931 . S
C553 C549 1.391 . S
C553 C552 1.371 . S
C553 H560 0.930 . S
H554 C551 0.928 . S
H555 C552 0.931 . S
H556 C532 0.930 . S
H557 C529 0.930 . S
H558 C538 0.930 . S
H559 C550 0.929 . S
H560 C553 0.930 . S
C561 C562 1.351 . S
C561 N564 1.368 . S
C561 H566 0.931 . S
C562 C561 1.351 . S
C562 N563 1.373 . S
C562 H590 0.930 . S
N563 C562 1.373 . S
N563 C565 1.340 . S
N564 C561 1.368 . S
N564 C565 1.321 . S
N564 Co567 2.135 . S
C565 N563 1.340 . S
C565 N564 1.321 . S
C565 H589 0.930 . S
H566 C561 0.931 . S
Co567 N564 2.135 . S
Co567 N570 2.121 1_565 S
Co567 O575 2.055 1_565 S
Co567 O578 2.039 . S
Co567 N581 2.140 . S
C568 O569 1.227 . S
C568 O578 1.265 . S
O569 C568 1.227 . S
N570 Co567 2.121 1_545 S
N570 C572 1.375 1_545 S
N570 C573 1.313 . S
C571 C572 1.338 1_545 S
C571 N574 1.377 . S
C571 H591 0.930 . S
C572 N570 1.375 1_565 S
C572 C571 1.338 1_565 S
C572 H576 0.931 . S
C573 N570 1.313 . S
C573 N574 1.344 . S
C573 H577 0.930 . S
N574 C571 1.377 . S
N574 C573 1.344 . S
O575 Co567 2.055 1_545 S
O575 C579 1.253 . S
H576 C572 0.931 . S
H577 C573 0.930 . S
O578 Co567 2.039 . S
O578 C568 1.265 . S
C579 O575 1.253 . S
C579 O580 1.227 . S
O580 C579 1.227 . S
N581 Co567 2.140 . S
N581 C584 1.346 . S
N581 C585 1.345 . S
C582 C583 1.387 . S
C582 C586 1.391 . S
C583 C582 1.387 . S
C583 C584 1.369 . S
C583 H592 0.929 . S
C584 N581 1.346 . S
C584 C583 1.369 . S
C584 H587 0.928 . S
C585 N581 1.345 . S
C585 C586 1.371 . S
C585 H588 0.931 . S
C586 C582 1.391 . S
C586 C585 1.371 . S
C586 H593 0.930 . S
H587 C584 0.928 . S
H588 C585 0.931 . S
H589 C565 0.930 . S
H590 C562 0.930 . S
H591 C571 0.930 . S
H592 C583 0.929 . S
H593 C586 0.930 . S
C594 C595 1.351 . S
C594 N597 1.368 . S
C594 H599 0.931 . S
C595 C594 1.351 . S
C595 N596 1.373 . S
C595 H623 0.930 . S
N596 C595 1.373 . S
N596 C598 1.340 . S
N597 C594 1.368 . S
N597 C598 1.321 . S
N597 Co600 2.135 . S
C598 N596 1.340 . S
C598 N597 1.321 . S
C598 H622 0.930 . S
H599 C594 0.931 . S
Co600 N597 2.135 . S
Co600 N603 2.121 1_565 S
Co600 O608 2.055 1_565 S
Co600 O611 2.039 . S
Co600 N614 2.140 . S
C601 O602 1.227 . S
C601 O611 1.265 . S
O602 C601 1.227 . S
N603 Co600 2.121 1_545 S
N603 C605 1.375 1_545 S
N603 C606 1.313 . S
C604 C605 1.338 1_545 S
C604 N607 1.377 . S
C604 H624 0.930 . S
C605 N603 1.375 1_565 S
C605 C604 1.338 1_565 S
C605 H609 0.931 . S
C606 N603 1.313 . S
C606 N607 1.344 . S
C606 H610 0.930 . S
N607 C604 1.377 . S
N607 C606 1.344 . S
O608 Co600 2.055 1_545 S
O608 C612 1.253 . S
H609 C605 0.931 . S
H610 C606 0.930 . S
O611 Co600 2.039 . S
O611 C601 1.265 . S
C612 O608 1.253 . S
C612 O613 1.227 . S
O613 C612 1.227 . S
N614 Co600 2.140 . S
N614 C617 1.346 . S
N614 C618 1.345 . S
C615 C616 1.387 . S
C615 C619 1.391 . S
C616 C615 1.387 . S
C616 C617 1.369 . S
C616 H625 0.929 . S
C617 N614 1.346 . S
C617 C616 1.369 . S
C617 H620 0.928 . S
C618 N614 1.345 . S
C618 C619 1.371 . S
C618 H621 0.931 . S
C619 C615 1.391 . S
C619 C618 1.371 . S
C619 H626 0.930 . S
H620 C617 0.928 . S
H621 C618 0.931 . S
H622 C598 0.930 . S
H623 C595 0.930 . S
H624 C604 0.930 . S
H625 C616 0.929 . S
H626 C619 0.930 . S
C627 C628 1.351 . S
C627 N630 1.368 . S
C627 H632 0.931 . S
C628 C627 1.351 . S
C628 N629 1.373 . S
C628 H656 0.930 . S
N629 C628 1.373 . S
N629 C631 1.340 . S
N630 C627 1.368 . S
N630 C631 1.321 . S
N630 Co633 2.135 . S
C631 N629 1.340 . S
C631 N630 1.321 . S
C631 H655 0.930 . S
H632 C627 0.931 . S
Co633 N630 2.135 . S
Co633 N636 2.121 . S
Co633 O641 2.055 . S
Co633 O644 2.039 . S
Co633 N647 2.140 . S
C634 O635 1.227 . S
C634 O644 1.265 . S
O635 C634 1.227 . S
N636 Co633 2.121 . S
N636 C638 1.375 . S
N636 C639 1.313 . S
C637 C638 1.338 . S
C637 N640 1.377 . S
C637 H657 0.930 . S
C638 N636 1.375 . S
C638 C637 1.338 . S
C638 H642 0.931 . S
C639 N636 1.313 . S
C639 N640 1.344 . S
C639 H643 0.930 . S
N640 C637 1.377 . S
N640 C639 1.344 . S
O641 Co633 2.055 . S
O641 C645 1.253 . S
H642 C638 0.931 . S
H643 C639 0.930 . S
O644 Co633 2.039 . S
O644 C634 1.265 . S
C645 O641 1.253 . S
C645 O646 1.227 . S
O646 C645 1.227 . S
N647 Co633 2.140 . S
N647 C650 1.346 . S
N647 C651 1.345 . S
C648 C649 1.387 . S
C648 C652 1.391 . S
C649 C648 1.387 . S
C649 C650 1.369 . S
C649 H658 0.929 . S
C650 N647 1.346 . S
C650 C649 1.369 . S
C650 H653 0.928 . S
C651 N647 1.345 . S
C651 C652 1.371 . S
C651 H654 0.931 . S
C652 C648 1.391 . S
C652 C651 1.371 . S
C652 H659 0.930 . S
H653 C650 0.928 . S
H654 C651 0.931 . S
H655 C631 0.930 . S
H656 C628 0.930 . S
H657 C637 0.930 . S
H658 C649 0.929 . S
H659 C652 0.930 . S
C660 C661 1.351 . S
C660 N663 1.368 . S
C660 H665 0.931 . S
C661 C660 1.351 . S
C661 N662 1.373 . S
C661 H689 0.930 . S
N662 C661 1.373 . S
N662 C664 1.340 . S
N663 C660 1.368 . S
N663 C664 1.321 . S
N663 Co666 2.135 . S
C664 N662 1.340 . S
C664 N663 1.321 . S
C664 H688 0.930 . S
H665 C660 0.931 . S
Co666 N663 2.135 . S
Co666 N669 2.121 . S
Co666 O674 2.055 . S
Co666 O677 2.039 . S
Co666 N680 2.140 . S
C667 O668 1.227 . S
C667 O677 1.265 . S
O668 C667 1.227 . S
N669 Co666 2.121 . S
N669 C671 1.375 . S
N669 C672 1.313 . S
C670 C671 1.338 . S
C670 N673 1.377 . S
C670 H690 0.930 . S
C671 N669 1.375 . S
C671 C670 1.338 . S
C671 H675 0.931 . S
C672 N669 1.313 . S
C672 N673 1.344 . S
C672 H676 0.930 . S
N673 C670 1.377 . S
N673 C672 1.344 . S
O674 Co666 2.055 . S
O674 C678 1.253 . S
H675 C671 0.931 . S
H676 C672 0.930 . S
O677 Co666 2.039 . S
O677 C667 1.265 . S
C678 O674 1.253 . S
C678 O679 1.227 . S
O679 C678 1.227 . S
N680 Co666 2.140 . S
N680 C683 1.346 . S
N680 C684 1.345 . S
C681 C682 1.387 . S
C681 C685 1.391 . S
C682 C681 1.387 . S
C682 C683 1.369 . S
C682 H691 0.929 . S
C683 N680 1.346 . S
C683 C682 1.369 . S
C683 H686 0.928 . S
C684 N680 1.345 . S
C684 C685 1.371 . S
C684 H687 0.931 . S
C685 C681 1.391 . S
C685 C684 1.371 . S
C685 H692 0.930 . S
H686 C683 0.928 . S
H687 C684 0.931 . S
H688 C664 0.930 . S
H689 C661 0.930 . S
H690 C670 0.930 . S
H691 C682 0.929 . S
H692 C685 0.930 . S
C693 C694 1.351 . S
C693 N696 1.368 . S
C693 H698 0.931 . S
C694 C693 1.351 . S
C694 N695 1.373 . S
C694 H722 0.930 . S
N695 C694 1.373 . S
N695 C697 1.340 . S
N696 C693 1.368 . S
N696 C697 1.321 . S
N696 Co699 2.135 . S
C697 N695 1.340 . S
C697 N696 1.321 . S
C697 H721 0.930 . S
H698 C693 0.931 . S
Co699 N696 2.135 . S
Co699 N702 2.121 1_545 S
Co699 O707 2.055 1_545 S
Co699 O710 2.039 . S
Co699 N713 2.140 . S
C700 O701 1.227 . S
C700 O710 1.265 . S
O701 C700 1.227 . S
N702 Co699 2.121 1_565 S
N702 C704 1.375 1_565 S
N702 C705 1.313 . S
C703 C704 1.338 1_565 S
C703 N706 1.377 . S
C703 H723 0.930 . S
C704 N702 1.375 1_545 S
C704 C703 1.338 1_545 S
C704 H708 0.931 . S
C705 N702 1.313 . S
C705 N706 1.344 . S
C705 H709 0.930 . S
N706 C703 1.377 . S
N706 C705 1.344 . S
O707 Co699 2.055 1_565 S
O707 C711 1.253 . S
H708 C704 0.931 . S
H709 C705 0.930 . S
O710 Co699 2.039 . S
O710 C700 1.265 . S
C711 O707 1.253 . S
C711 O712 1.227 . S
O712 C711 1.227 . S
N713 Co699 2.140 . S
N713 C716 1.346 . S
N713 C717 1.345 . S
C714 C715 1.387 . S
C714 C718 1.391 . S
C715 C714 1.387 . S
C715 C716 1.369 . S
C715 H724 0.929 . S
C716 N713 1.346 . S
C716 C715 1.369 . S
C716 H719 0.928 . S
C717 N713 1.345 . S
C717 C718 1.371 . S
C717 H720 0.931 . S
C718 C714 1.391 . S
C718 C717 1.371 . S
C718 H725 0.930 . S
H719 C716 0.928 . S
H720 C717 0.931 . S
H721 C697 0.930 . S
H722 C694 0.930 . S
H723 C703 0.930 . S
H724 C715 0.929 . S
H725 C718 0.930 . S
C726 C727 1.351 . S
C726 N729 1.368 . S
C726 H731 0.931 . S
C727 C726 1.351 . S
C727 N728 1.373 . S
C727 H755 0.930 . S
N728 C727 1.373 . S
N728 C730 1.340 . S
N729 C726 1.368 . S
N729 C730 1.321 . S
N729 Co732 2.135 . S
C730 N728 1.340 . S
C730 N729 1.321 . S
C730 H754 0.930 . S
H731 C726 0.931 . S
Co732 N729 2.135 . S
Co732 N735 2.121 1_545 S
Co732 O740 2.055 1_545 S
Co732 O743 2.039 . S
Co732 N746 2.140 . S
C733 O734 1.227 . S
C733 O743 1.265 . S
O734 C733 1.227 . S
N735 Co732 2.121 1_565 S
N735 C737 1.375 1_565 S
N735 C738 1.313 . S
C736 C737 1.338 1_565 S
C736 N739 1.377 . S
C736 H756 0.930 . S
C737 N735 1.375 1_545 S
C737 C736 1.338 1_545 S
C737 H741 0.931 . S
C738 N735 1.313 . S
C738 N739 1.344 . S
C738 H742 0.930 . S
N739 C736 1.377 . S
N739 C738 1.344 . S
O740 Co732 2.055 1_565 S
O740 C744 1.253 . S
H741 C737 0.931 . S
H742 C738 0.930 . S
O743 Co732 2.039 . S
O743 C733 1.265 . S
C744 O740 1.253 . S
C744 O745 1.227 . S
O745 C744 1.227 . S
N746 Co732 2.140 . S
N746 C749 1.346 . S
N746 C750 1.345 . S
C747 C748 1.387 . S
C747 C751 1.391 . S
C748 C747 1.387 . S
C748 C749 1.369 . S
C748 H757 0.929 . S
C749 N746 1.346 . S
C749 C748 1.369 . S
C749 H752 0.928 . S
C750 N746 1.345 . S
C750 C751 1.371 . S
C750 H753 0.931 . S
C751 C747 1.391 . S
C751 C750 1.371 . S
C751 H758 0.930 . S
H752 C749 0.928 . S
H753 C750 0.931 . S
H754 C730 0.930 . S
H755 C727 0.930 . S
H756 C736 0.930 . S
H757 C748 0.929 . S
H758 C751 0.930 . S
C759 C760 1.351 . S
C759 N762 1.368 . S
C759 H764 0.931 . S
C760 C759 1.351 . S
C760 N761 1.373 . S
C760 H788 0.930 . S
N761 C760 1.373 . S
N761 C763 1.340 . S
N762 C759 1.368 . S
N762 C763 1.321 . S
N762 Co765 2.135 . S
C763 N761 1.340 . S
C763 N762 1.321 . S
C763 H787 0.930 . S
H764 C759 0.931 . S
Co765 N762 2.135 . S
Co765 N768 2.121 . S
Co765 O773 2.055 . S
Co765 O776 2.039 . S
Co765 N779 2.140 . S
C766 O767 1.227 . S
C766 O776 1.265 . S
O767 C766 1.227 . S
N768 Co765 2.121 . S
N768 C770 1.375 . S
N768 C771 1.313 . S
C769 C770 1.338 . S
C769 N772 1.377 . S
C769 H789 0.930 . S
C770 N768 1.375 . S
C770 C769 1.338 . S
C770 H774 0.931 . S
C771 N768 1.313 . S
C771 N772 1.344 . S
C771 H775 0.930 . S
N772 C769 1.377 . S
N772 C771 1.344 . S
O773 Co765 2.055 . S
O773 C777 1.253 . S
H774 C770 0.931 . S
H775 C771 0.930 . S
O776 Co765 2.039 . S
O776 C766 1.265 . S
C777 O773 1.253 . S
C777 O778 1.227 . S
O778 C777 1.227 . S
N779 Co765 2.140 . S
N779 C782 1.346 . S
N779 C783 1.345 . S
C780 C781 1.387 . S
C780 C784 1.391 . S
C781 C780 1.387 . S
C781 C782 1.369 . S
C781 H790 0.929 . S
C782 N779 1.346 . S
C782 C781 1.369 . S
C782 H785 0.928 . S
C783 N779 1.345 . S
C783 C784 1.371 . S
C783 H786 0.931 . S
C784 C780 1.391 . S
C784 C783 1.371 . S
C784 H791 0.930 . S
H785 C782 0.928 . S
H786 C783 0.931 . S
H787 C763 0.930 . S
H788 C760 0.930 . S
H789 C769 0.930 . S
H790 C781 0.929 . S
H791 C784 0.930 . S
C792 C793 1.351 . S
C792 N795 1.368 . S
C792 H797 0.931 . S
C793 C792 1.351 . S
C793 N794 1.373 . S
C793 H821 0.930 . S
N794 C793 1.373 . S
N794 C796 1.340 . S
N795 C792 1.368 . S
N795 C796 1.321 . S
N795 Co798 2.135 . S
C796 N794 1.340 . S
C796 N795 1.321 . S
C796 H820 0.930 . S
H797 C792 0.931 . S
Co798 N795 2.135 . S
Co798 N801 2.121 . S
Co798 O806 2.055 . S
Co798 O809 2.039 . S
Co798 N812 2.140 . S
C799 O800 1.227 . S
C799 O809 1.265 . S
O800 C799 1.227 . S
N801 Co798 2.121 . S
N801 C803 1.375 . S
N801 C804 1.313 . S
C802 C803 1.338 . S
C802 N805 1.377 . S
C802 H822 0.930 . S
C803 N801 1.375 . S
C803 C802 1.338 . S
C803 H807 0.931 . S
C804 N801 1.313 . S
C804 N805 1.344 . S
C804 H808 0.930 . S
N805 C802 1.377 . S
N805 C804 1.344 . S
O806 Co798 2.055 . S
O806 C810 1.253 . S
H807 C803 0.931 . S
H808 C804 0.930 . S
O809 Co798 2.039 . S
O809 C799 1.265 . S
C810 O806 1.253 . S
C810 O811 1.227 . S
O811 C810 1.227 . S
N812 Co798 2.140 . S
N812 C815 1.346 . S
N812 C816 1.345 . S
C813 C814 1.387 . S
C813 C817 1.391 . S
C814 C813 1.387 . S
C814 C815 1.369 . S
C814 H823 0.929 . S
C815 N812 1.346 . S
C815 C814 1.369 . S
C815 H818 0.928 . S
C816 N812 1.345 . S
C816 C817 1.371 . S
C816 H819 0.931 . S
C817 C813 1.391 . S
C817 C816 1.371 . S
C817 H824 0.930 . S
H818 C815 0.928 . S
H819 C816 0.931 . S
H820 C796 0.930 . S
H821 C793 0.930 . S
H822 C802 0.930 . S
H823 C814 0.929 . S
H824 C817 0.930 . S
C825 C826 1.351 . S
C825 N828 1.368 . S
C825 H830 0.931 . S
C826 C825 1.351 . S
C826 N827 1.373 . S
C826 H854 0.930 . S
N827 C826 1.373 . S
N827 C829 1.340 . S
N828 C825 1.368 . S
N828 C829 1.321 . S
N828 Co831 2.135 . S
C829 N827 1.340 . S
C829 N828 1.321 . S
C829 H853 0.930 . S
H830 C825 0.931 . S
Co831 N828 2.135 . S
Co831 N834 2.121 . S
Co831 O839 2.055 . S
Co831 O842 2.039 . S
Co831 N845 2.140 . S
C832 O833 1.227 . S
C832 O842 1.265 . S
O833 C832 1.227 . S
N834 Co831 2.121 . S
N834 C836 1.375 . S
N834 C837 1.313 . S
C835 C836 1.338 . S
C835 N838 1.377 . S
C835 H855 0.930 . S
C836 N834 1.375 . S
C836 C835 1.338 . S
C836 H840 0.931 . S
C837 N834 1.313 . S
C837 N838 1.344 . S
C837 H841 0.930 . S
N838 C835 1.377 . S
N838 C837 1.344 . S
O839 Co831 2.055 . S
O839 C843 1.253 . S
H840 C836 0.931 . S
H841 C837 0.930 . S
O842 Co831 2.039 . S
O842 C832 1.265 . S
C843 O839 1.253 . S
C843 O844 1.227 . S
O844 C843 1.227 . S
N845 Co831 2.140 . S
N845 C848 1.346 . S
N845 C849 1.345 . S
C846 C847 1.387 . S
C846 C850 1.391 . S
C847 C846 1.387 . S
C847 C848 1.369 . S
C847 H856 0.929 . S
C848 N845 1.346 . S
C848 C847 1.369 . S
C848 H851 0.928 . S
C849 N845 1.345 . S
C849 C850 1.371 . S
C849 H852 0.931 . S
C850 C846 1.391 . S
C850 C849 1.371 . S
C850 H857 0.930 . S
H851 C848 0.928 . S
H852 C849 0.931 . S
H853 C829 0.930 . S
H854 C826 0.930 . S
H855 C835 0.930 . S
H856 C847 0.929 . S
H857 C850 0.930 . S
C858 C859 1.351 . S
C858 N861 1.368 . S
C858 H863 0.931 . S
C859 C858 1.351 . S
C859 N860 1.373 . S
C859 H887 0.930 . S
N860 C859 1.373 . S
N860 C862 1.340 . S
N861 C858 1.368 . S
N861 C862 1.321 . S
N861 Co864 2.135 1_556 S
C862 N860 1.340 . S
C862 N861 1.321 . S
C862 H886 0.930 . S
H863 C858 0.931 . S
Co864 N861 2.135 1_554 S
Co864 N867 2.121 . S
Co864 O872 2.055 1_554 S
Co864 O875 2.039 . S
Co864 N878 2.140 . S
C865 O866 1.227 . S
C865 O875 1.265 . S
O866 C865 1.227 . S
N867 Co864 2.121 . S
N867 C869 1.375 . S
N867 C870 1.313 . S
C868 C869 1.338 . S
C868 N871 1.377 . S
C868 H888 0.930 . S
C869 N867 1.375 . S
C869 C868 1.338 . S
C869 H873 0.931 . S
C870 N867 1.313 . S
C870 N871 1.344 . S
C870 H874 0.930 . S
N871 C868 1.377 . S
N871 C870 1.344 . S
O872 Co864 2.055 1_556 S
O872 C876 1.253 . S
H873 C869 0.931 . S
H874 C870 0.930 . S
O875 Co864 2.039 . S
O875 C865 1.265 . S
C876 O872 1.253 . S
C876 O877 1.227 1_556 S
O877 C876 1.227 1_554 S
N878 Co864 2.140 . S
N878 C881 1.346 . S
N878 C882 1.345 . S
C879 C880 1.387 . S
C879 C883 1.391 . S
C880 C879 1.387 . S
C880 C881 1.369 . S
C880 H889 0.929 . S
C881 N878 1.346 . S
C881 C880 1.369 . S
C881 H884 0.928 . S
C882 N878 1.345 . S
C882 C883 1.371 . S
C882 H885 0.931 . S
C883 C879 1.391 . S
C883 C882 1.371 . S
C883 H890 0.930 . S
H884 C881 0.928 . S
H885 C882 0.931 . S
H886 C862 0.930 . S
H887 C859 0.930 . S
H888 C868 0.930 . S
H889 C880 0.929 . S
H890 C883 0.930 . S
C891 C892 1.351 . S
C891 N894 1.368 . S
C891 H896 0.931 . S
C892 C891 1.351 . S
C892 N893 1.373 . S
C892 H920 0.930 . S
N893 C892 1.373 . S
N893 C895 1.340 . S
N894 C891 1.368 . S
N894 C895 1.321 . S
N894 Co897 2.135 1_556 S
C895 N893 1.340 . S
C895 N894 1.321 . S
C895 H919 0.930 . S
H896 C891 0.931 . S
Co897 N894 2.135 1_554 S
Co897 N900 2.121 . S
Co897 O905 2.055 1_554 S
Co897 O908 2.039 . S
Co897 N911 2.140 . S
C898 O899 1.227 . S
C898 O908 1.265 . S
O899 C898 1.227 . S
N900 Co897 2.121 . S
N900 C902 1.375 . S
N900 C903 1.313 . S
C901 C902 1.338 . S
C901 N904 1.377 . S
C901 H921 0.930 . S
C902 N900 1.375 . S
C902 C901 1.338 . S
C902 H906 0.931 . S
C903 N900 1.313 . S
C903 N904 1.344 . S
C903 H907 0.930 . S
N904 C901 1.377 . S
N904 C903 1.344 . S
O905 Co897 2.055 1_556 S
O905 C909 1.253 . S
H906 C902 0.931 . S
H907 C903 0.930 . S
O908 Co897 2.039 . S
O908 C898 1.265 . S
C909 O905 1.253 . S
C909 O910 1.227 1_556 S
O910 C909 1.227 1_554 S
N911 Co897 2.140 . S
N911 C914 1.346 . S
N911 C915 1.345 . S
C912 C913 1.387 . S
C912 C916 1.391 . S
C913 C912 1.387 . S
C913 C914 1.369 . S
C913 H922 0.929 . S
C914 N911 1.346 . S
C914 C913 1.369 . S
C914 H917 0.928 . S
C915 N911 1.345 . S
C915 C916 1.371 . S
C915 H918 0.931 . S
C916 C912 1.391 . S
C916 C915 1.371 . S
C916 H923 0.930 . S
H917 C914 0.928 . S
H918 C915 0.931 . S
H919 C895 0.930 . S
H920 C892 0.930 . S
H921 C901 0.930 . S
H922 C913 0.929 . S
H923 C916 0.930 . S
C924 C925 1.351 . S
C924 N927 1.368 . S
C924 H929 0.931 . S
C925 C924 1.351 . S
C925 N926 1.373 . S
C925 H953 0.930 . S
N926 C925 1.373 . S
N926 C928 1.340 . S
N927 C924 1.368 . S
N927 C928 1.321 . S
N927 Co930 2.135 . S
C928 N926 1.340 . S
C928 N927 1.321 . S
C928 H952 0.930 . S
H929 C924 0.931 . S
Co930 N927 2.135 . S
Co930 N933 2.121 . S
Co930 O938 2.055 . S
Co930 O941 2.039 . S
Co930 N944 2.140 . S
C931 O932 1.227 . S
C931 O941 1.265 . S
O932 C931 1.227 . S
N933 Co930 2.121 . S
N933 C935 1.375 . S
N933 C936 1.313 . S
C934 C935 1.338 . S
C934 N937 1.377 . S
C934 H954 0.930 . S
C935 N933 1.375 . S
C935 C934 1.338 . S
C935 H939 0.931 . S
C936 N933 1.313 . S
C936 N937 1.344 . S
C936 H940 0.930 . S
N937 C934 1.377 . S
N937 C936 1.344 . S
O938 Co930 2.055 . S
O938 C942 1.253 . S
H939 C935 0.931 . S
H940 C936 0.930 . S
O941 Co930 2.039 . S
O941 C931 1.265 . S
C942 O938 1.253 . S
C942 O943 1.227 . S
O943 C942 1.227 . S
N944 Co930 2.140 . S
N944 C947 1.346 . S
N944 C948 1.345 . S
C945 C946 1.387 . S
C945 C949 1.391 . S
C946 C945 1.387 . S
C946 C947 1.369 . S
C946 H955 0.929 . S
C947 N944 1.346 . S
C947 C946 1.369 . S
C947 H950 0.928 . S
C948 N944 1.345 . S
C948 C949 1.371 . S
C948 H951 0.931 . S
C949 C945 1.391 . S
C949 C948 1.371 . S
C949 H956 0.930 . S
H950 C947 0.928 . S
H951 C948 0.931 . S
H952 C928 0.930 . S
H953 C925 0.930 . S
H954 C934 0.930 . S
H955 C946 0.929 . S
H956 C949 0.930 . S
C957 C958 1.351 . S
C957 N960 1.368 . S
C957 H962 0.931 . S
C958 C957 1.351 . S
C958 N959 1.373 . S
C958 H986 0.930 . S
N959 C958 1.373 . S
N959 C961 1.340 . S
N960 C957 1.368 . S
N960 C961 1.321 . S
N960 Co963 2.135 . S
C961 N959 1.340 . S
C961 N960 1.321 . S
C961 H985 0.930 . S
H962 C957 0.931 . S
Co963 N960 2.135 . S
Co963 N966 2.121 . S
Co963 O971 2.055 . S
Co963 O974 2.039 . S
Co963 N977 2.140 . S
C964 O965 1.227 . S
C964 O974 1.265 . S
O965 C964 1.227 . S
N966 Co963 2.121 . S
N966 C968 1.375 . S
N966 C969 1.313 . S
C967 C968 1.338 . S
C967 N970 1.377 . S
C967 H987 0.930 . S
C968 N966 1.375 . S
C968 C967 1.338 . S
C968 H972 0.931 . S
C969 N966 1.313 . S
C969 N970 1.344 . S
C969 H973 0.930 . S
N970 C967 1.377 . S
N970 C969 1.344 . S
O971 Co963 2.055 . S
O971 C975 1.253 . S
H972 C968 0.931 . S
H973 C969 0.930 . S
O974 Co963 2.039 . S
O974 C964 1.265 . S
C975 O971 1.253 . S
C975 O976 1.227 . S
O976 C975 1.227 . S
N977 Co963 2.140 . S
N977 C980 1.346 . S
N977 C981 1.345 . S
C978 C979 1.387 . S
C978 C982 1.391 . S
C979 C978 1.387 . S
C979 C980 1.369 . S
C979 H988 0.929 . S
C980 N977 1.346 . S
C980 C979 1.369 . S
C980 H983 0.928 . S
C981 N977 1.345 . S
C981 C982 1.371 . S
C981 H984 0.931 . S
C982 C978 1.391 . S
C982 C981 1.371 . S
C982 H989 0.930 . S
H983 C980 0.928 . S
H984 C981 0.931 . S
H985 C961 0.930 . S
H986 C958 0.930 . S
H987 C967 0.930 . S
H988 C979 0.929 . S
H989 C982 0.930 . S
C990 C991 1.351 . S
C990 N993 1.368 . S
C990 H995 0.931 . S
C991 C990 1.351 . S
C991 N992 1.373 . S
C991 H1019 0.930 . S
N992 C991 1.373 . S
N992 C994 1.340 . S
N993 C990 1.368 . S
N993 C994 1.321 . S
N993 Co996 2.135 1_554 S
C994 N992 1.340 . S
C994 N993 1.321 . S
C994 H1018 0.930 . S
H995 C990 0.931 . S
Co996 N993 2.135 1_556 S
Co996 N999 2.121 . S
Co996 O1004 2.055 1_556 S
Co996 O1007 2.039 . S
Co996 N1010 2.140 . S
C997 O998 1.227 . S
C997 O1007 1.265 . S
O998 C997 1.227 . S
N999 Co996 2.121 . S
N999 C1001 1.375 . S
N999 C1002 1.313 . S
C1000 C1001 1.338 . S
C1000 N1003 1.377 . S
C1000 H1020 0.930 . S
C1001 N999 1.375 . S
C1001 C1000 1.338 . S
C1001 H1005 0.931 . S
C1002 N999 1.313 . S
C1002 N1003 1.344 . S
C1002 H1006 0.930 . S
N1003 C1000 1.377 . S
N1003 C1002 1.344 . S
O1004 Co996 2.055 1_554 S
O1004 C1008 1.253 . S
H1005 C1001 0.931 . S
H1006 C1002 0.930 . S
O1007 Co996 2.039 . S
O1007 C997 1.265 . S
C1008 O1004 1.253 . S
C1008 O1009 1.227 1_554 S
O1009 C1008 1.227 1_556 S
N1010 Co996 2.140 . S
N1010 C1013 1.346 . S
N1010 C1014 1.345 . S
C1011 C1012 1.387 . S
C1011 C1015 1.391 . S
C1012 C1011 1.387 . S
C1012 C1013 1.369 . S
C1012 H1021 0.929 . S
C1013 N1010 1.346 . S
C1013 C1012 1.369 . S
C1013 H1016 0.928 . S
C1014 N1010 1.345 . S
C1014 C1015 1.371 . S
C1014 H1017 0.931 . S
C1015 C1011 1.391 . S
C1015 C1014 1.371 . S
C1015 H1022 0.930 . S
H1016 C1013 0.928 . S
H1017 C1014 0.931 . S
H1018 C994 0.930 . S
H1019 C991 0.930 . S
H1020 C1000 0.930 . S
H1021 C1012 0.929 . S
H1022 C1015 0.930 . S
C1023 C1024 1.351 . S
C1023 N1026 1.368 . S
C1023 H1028 0.931 . S
C1024 C1023 1.351 . S
C1024 N1025 1.373 . S
C1024 H1052 0.930 . S
N1025 C1024 1.373 . S
N1025 C1027 1.340 . S
N1026 C1023 1.368 . S
N1026 C1027 1.321 . S
N1026 Co1029 2.135 1_554 S
C1027 N1025 1.340 . S
C1027 N1026 1.321 . S
C1027 H1051 0.930 . S
H1028 C1023 0.931 . S
Co1029 N1026 2.135 1_556 S
Co1029 N1032 2.121 . S
Co1029 O1037 2.055 1_556 S
Co1029 O1040 2.039 . S
Co1029 N1043 2.140 . S
C1030 O1031 1.227 . S
C1030 O1040 1.265 . S
O1031 C1030 1.227 . S
N1032 Co1029 2.121 . S
N1032 C1034 1.375 . S
N1032 C1035 1.313 . S
C1033 C1034 1.338 . S
C1033 N1036 1.377 . S
C1033 H1053 0.930 . S
C1034 N1032 1.375 . S
C1034 C1033 1.338 . S
C1034 H1038 0.931 . S
C1035 N1032 1.313 . S
C1035 N1036 1.344 . S
C1035 H1039 0.930 . S
N1036 C1033 1.377 . S
N1036 C1035 1.344 . S
O1037 Co1029 2.055 1_554 S
O1037 C1041 1.253 . S
H1038 C1034 0.931 . S
H1039 C1035 0.930 . S
O1040 Co1029 2.039 . S
O1040 C1030 1.265 . S
C1041 O1037 1.253 . S
C1041 O1042 1.227 1_554 S
O1042 C1041 1.227 1_556 S
N1043 Co1029 2.140 . S
N1043 C1046 1.346 . S
N1043 C1047 1.345 . S
C1044 C1045 1.387 . S
C1044 C1048 1.391 . S
C1045 C1044 1.387 . S
C1045 C1046 1.369 . S
C1045 H1054 0.929 . S
C1046 N1043 1.346 . S
C1046 C1045 1.369 . S
C1046 H1049 0.928 . S
C1047 N1043 1.345 . S
C1047 C1048 1.371 . S
C1047 H1050 0.931 . S
C1048 C1044 1.391 . S
C1048 C1047 1.371 . S
C1048 H1055 0.930 . S
H1049 C1046 0.928 . S
H1050 C1047 0.931 . S
H1051 C1027 0.930 . S
H1052 C1024 0.930 . S
H1053 C1033 0.930 . S
H1054 C1045 0.929 . S
H1055 C1048 0.930 . S
H1056 C1062 0.930 . S
H1057 C1065 0.930 . S
H1058 C1066 0.930 . S
H1059 C1067 0.930 . S
H1060 C1070 0.930 . S
H1061 C1071 0.930 . S
C1062 H1056 0.930 . S
C1062 C1063 1.355 . S
C1062 C1064 1.415 . S
C1063 C1062 1.355 . S
C1063 C1065 1.419 . S
C1064 C1062 1.415 . S
C1064 C1069 1.425 . S
C1064 C1071 1.409 . S
C1065 H1057 0.930 . S
C1065 C1063 1.419 . S
C1065 C1066 1.362 . S
C1066 H1058 0.930 . S
C1066 C1065 1.362 . S
C1066 C1069 1.409 . S
C1067 H1059 0.930 . S
C1067 C1068 1.355 . S
C1067 C1069 1.415 . S
C1068 C1067 1.355 . S
C1068 C1070 1.419 . S
C1069 C1064 1.425 . S
C1069 C1066 1.409 . S
C1069 C1067 1.415 . S
C1070 H1060 0.930 . S
C1070 C1068 1.419 . S
C1070 C1071 1.362 . S
C1071 H1061 0.930 . S
C1071 C1064 1.409 . S
C1071 C1070 1.362 . S
H1072 C1078 0.930 . S
H1073 C1081 0.930 . S
H1074 C1082 0.930 . S
H1075 C1083 0.930 . S
H1076 C1086 0.930 . S
H1077 C1087 0.930 . S
C1078 H1072 0.930 . S
C1078 C1079 1.355 . S
C1078 C1080 1.415 . S
C1079 C1078 1.355 . S
C1079 C1081 1.419 . S
C1080 C1078 1.415 . S
C1080 C1085 1.425 . S
C1080 C1087 1.409 . S
C1081 H1073 0.930 . S
C1081 C1079 1.419 . S
C1081 C1082 1.362 . S
C1082 H1074 0.930 . S
C1082 C1081 1.362 . S
C1082 C1085 1.409 . S
C1083 H1075 0.930 . S
C1083 C1084 1.355 . S
C1083 C1085 1.415 . S
C1084 C1083 1.355 . S
C1084 C1086 1.419 . S
C1085 C1080 1.425 . S
C1085 C1082 1.409 . S
C1085 C1083 1.415 . S
C1086 H1076 0.930 . S
C1086 C1084 1.419 . S
C1086 C1087 1.362 . S
C1087 H1077 0.930 . S
C1087 C1080 1.409 . S
C1087 C1086 1.362 . S
H1088 C1094 0.930 . S
H1089 C1097 0.930 . S
H1090 C1098 0.930 . S
H1091 C1099 0.930 . S
H1092 C1102 0.930 . S
H1093 C1103 0.930 . S
C1094 H1088 0.930 . S
C1094 C1095 1.355 . S
C1094 C1096 1.415 . S
C1095 C1094 1.355 . S
C1095 C1097 1.419 . S
C1096 C1094 1.415 . S
C1096 C1101 1.425 . S
C1096 C1103 1.409 . S
C1097 H1089 0.930 . S
C1097 C1095 1.419 . S
C1097 C1098 1.362 . S
C1098 H1090 0.930 . S
C1098 C1097 1.362 . S
C1098 C1101 1.409 . S
C1099 H1091 0.930 . S
C1099 C1100 1.355 . S
C1099 C1101 1.415 . S
C1100 C1099 1.355 . S
C1100 C1102 1.419 . S
C1101 C1096 1.425 . S
C1101 C1098 1.409 . S
C1101 C1099 1.415 . S
C1102 H1092 0.930 . S
C1102 C1100 1.419 . S
C1102 C1103 1.362 . S
C1103 H1093 0.930 . S
C1103 C1096 1.409 . S
C1103 C1102 1.362 . S
H1104 C1110 0.930 . S
H1105 C1113 0.930 . S
H1106 C1114 0.930 . S
H1107 C1115 0.930 . S
H1108 C1118 0.930 . S
H1109 C1119 0.930 . S
C1110 H1104 0.930 . S
C1110 C1111 1.355 . S
C1110 C1112 1.415 . S
C1111 C1110 1.355 . S
C1111 C1113 1.419 . S
C1112 C1110 1.415 . S
C1112 C1117 1.425 . S
C1112 C1119 1.409 . S
C1113 H1105 0.930 . S
C1113 C1111 1.419 . S
C1113 C1114 1.362 . S
C1114 H1106 0.930 . S
C1114 C1113 1.362 . S
C1114 C1117 1.409 . S
C1115 H1107 0.930 . S
C1115 C1116 1.355 . S
C1115 C1117 1.415 . S
C1116 C1115 1.355 . S
C1116 C1118 1.419 . S
C1117 C1112 1.425 . S
C1117 C1114 1.409 . S
C1117 C1115 1.415 . S
C1118 H1108 0.930 . S
C1118 C1116 1.419 . S
C1118 C1119 1.362 . S
C1119 H1109 0.930 . S
C1119 C1112 1.409 . S
C1119 C1118 1.362 . S
H1120 C1126 0.930 . S
H1121 C1129 0.930 . S
H1122 C1130 0.930 . S
H1123 C1131 0.930 . S
H1124 C1134 0.930 . S
H1125 C1135 0.930 . S
C1126 H1120 0.930 . S
C1126 C1127 1.355 . S
C1126 C1128 1.415 . S
C1127 C1126 1.355 . S
C1127 C1129 1.419 . S
C1128 C1126 1.415 . S
C1128 C1133 1.425 . S
C1128 C1135 1.409 . S
C1129 H1121 0.930 . S
C1129 C1127 1.419 . S
C1129 C1130 1.362 . S
C1130 H1122 0.930 . S
C1130 C1129 1.362 . S
C1130 C1133 1.409 . S
C1131 H1123 0.930 . S
C1131 C1132 1.355 . S
C1131 C1133 1.415 . S
C1132 C1131 1.355 . S
C1132 C1134 1.419 . S
C1133 C1128 1.425 . S
C1133 C1130 1.409 . S
C1133 C1131 1.415 . S
C1134 H1124 0.930 . S
C1134 C1132 1.419 . S
C1134 C1135 1.362 . S
C1135 H1125 0.930 . S
C1135 C1128 1.409 . S
C1135 C1134 1.362 . S
H1136 C1142 0.930 . S
H1137 C1145 0.930 . S
H1138 C1146 0.930 . S
H1139 C1147 0.930 . S
H1140 C1150 0.930 . S
H1141 C1151 0.930 . S
C1142 H1136 0.930 . S
C1142 C1143 1.355 . S
C1142 C1144 1.415 . S
C1143 C1142 1.355 . S
C1143 C1145 1.419 . S
C1144 C1142 1.415 . S
C1144 C1149 1.425 . S
C1144 C1151 1.409 . S
C1145 H1137 0.930 . S
C1145 C1143 1.419 . S
C1145 C1146 1.362 . S
C1146 H1138 0.930 . S
C1146 C1145 1.362 . S
C1146 C1149 1.409 . S
C1147 H1139 0.930 . S
C1147 C1148 1.355 . S
C1147 C1149 1.415 . S
C1148 C1147 1.355 . S
C1148 C1150 1.419 . S
C1149 C1144 1.425 . S
C1149 C1146 1.409 . S
C1149 C1147 1.415 . S
C1150 H1140 0.930 . S
C1150 C1148 1.419 . S
C1150 C1151 1.362 . S
C1151 H1141 0.930 . S
C1151 C1144 1.409 . S
C1151 C1150 1.362 . S
H1152 C1158 0.930 . S
H1153 C1161 0.930 . S
H1154 C1162 0.930 . S
H1155 C1163 0.930 . S
H1156 C1166 0.930 . S
H1157 C1167 0.930 . S
C1158 H1152 0.930 . S
C1158 C1159 1.355 . S
C1158 C1160 1.415 . S
C1159 C1158 1.355 . S
C1159 C1161 1.419 . S
C1160 C1158 1.415 . S
C1160 C1165 1.425 . S
C1160 C1167 1.409 . S
C1161 H1153 0.930 . S
C1161 C1159 1.419 . S
C1161 C1162 1.362 . S
C1162 H1154 0.930 . S
C1162 C1161 1.362 . S
C1162 C1165 1.409 . S
C1163 H1155 0.930 . S
C1163 C1164 1.355 . S
C1163 C1165 1.415 . S
C1164 C1163 1.355 . S
C1164 C1166 1.419 . S
C1165 C1160 1.425 . S
C1165 C1162 1.409 . S
C1165 C1163 1.415 . S
C1166 H1156 0.930 . S
C1166 C1164 1.419 . S
C1166 C1167 1.362 . S
C1167 H1157 0.930 . S
C1167 C1160 1.409 . S
C1167 C1166 1.362 . S
H1168 C1174 0.930 . S
H1169 C1177 0.930 . S
H1170 C1178 0.930 . S
H1171 C1179 0.930 . S
H1172 C1182 0.930 . S
H1173 C1183 0.930 . S
C1174 H1168 0.930 . S
C1174 C1175 1.355 . S
C1174 C1176 1.415 . S
C1175 C1174 1.355 . S
C1175 C1177 1.419 . S
C1176 C1174 1.415 . S
C1176 C1181 1.425 . S
C1176 C1183 1.409 . S
C1177 H1169 0.930 . S
C1177 C1175 1.419 . S
C1177 C1178 1.362 . S
C1178 H1170 0.930 . S
C1178 C1177 1.362 . S
C1178 C1181 1.409 . S
C1179 H1171 0.930 . S
C1179 C1180 1.355 . S
C1179 C1181 1.415 . S
C1180 C1179 1.355 . S
C1180 C1182 1.419 . S
C1181 C1176 1.425 . S
C1181 C1178 1.409 . S
C1181 C1179 1.415 . S
C1182 H1172 0.930 . S
C1182 C1180 1.419 . S
C1182 C1183 1.362 . S
C1183 H1173 0.930 . S
C1183 C1176 1.409 . S
C1183 C1182 1.362 . S
H1184 C1190 0.930 . S
H1185 C1193 0.930 . S
H1186 C1194 0.930 . S
H1187 C1195 0.930 . S
H1188 C1198 0.930 . S
H1189 C1199 0.930 . S
C1190 H1184 0.930 . S
C1190 C1191 1.355 . S
C1190 C1192 1.415 . S
C1191 C1190 1.355 . S
C1191 C1193 1.419 . S
C1192 C1190 1.415 . S
C1192 C1197 1.425 . S
C1192 C1199 1.409 . S
C1193 H1185 0.930 . S
C1193 C1191 1.419 . S
C1193 C1194 1.362 . S
C1194 H1186 0.930 . S
C1194 C1193 1.362 . S
C1194 C1197 1.409 . S
C1195 H1187 0.930 . S
C1195 C1196 1.355 . S
C1195 C1197 1.415 . S
C1196 C1195 1.355 . S
C1196 C1198 1.419 . S
C1197 C1192 1.425 . S
C1197 C1194 1.409 . S
C1197 C1195 1.415 . S
C1198 H1188 0.930 . S
C1198 C1196 1.419 . S
C1198 C1199 1.362 . S
C1199 H1189 0.930 . S
C1199 C1192 1.409 . S
C1199 C1198 1.362 . S
H1200 C1206 0.930 . S
H1201 C1209 0.930 . S
H1202 C1210 0.930 . S
H1203 C1211 0.930 . S
H1204 C1214 0.930 . S
H1205 C1215 0.930 . S
C1206 H1200 0.930 . S
C1206 C1207 1.355 . S
C1206 C1208 1.415 . S
C1207 C1206 1.355 . S
C1207 C1209 1.419 . S
C1208 C1206 1.415 . S
C1208 C1213 1.425 . S
C1208 C1215 1.409 . S
C1209 H1201 0.930 . S
C1209 C1207 1.419 . S
C1209 C1210 1.362 . S
C1210 H1202 0.930 . S
C1210 C1209 1.362 . S
C1210 C1213 1.409 . S
C1211 H1203 0.930 . S
C1211 C1212 1.355 . S
C1211 C1213 1.415 . S
C1212 C1211 1.355 . S
C1212 C1214 1.419 . S
C1213 C1208 1.425 . S
C1213 C1210 1.409 . S
C1213 C1211 1.415 . S
C1214 H1204 0.930 . S
C1214 C1212 1.419 . S
C1214 C1215 1.362 . S
C1215 H1205 0.930 . S
C1215 C1208 1.409 . S
C1215 C1214 1.362 . S
H1216 C1222 0.930 . S
H1217 C1225 0.930 . S
H1218 C1226 0.930 . S
H1219 C1227 0.930 . S
H1220 C1230 0.930 . S
H1221 C1231 0.930 . S
C1222 H1216 0.930 . S
C1222 C1223 1.355 . S
C1222 C1224 1.415 . S
C1223 C1222 1.355 . S
C1223 C1225 1.419 . S
C1224 C1222 1.415 . S
C1224 C1229 1.425 . S
C1224 C1231 1.409 . S
C1225 H1217 0.930 . S
C1225 C1223 1.419 . S
C1225 C1226 1.362 . S
C1226 H1218 0.930 . S
C1226 C1225 1.362 . S
C1226 C1229 1.409 . S
C1227 H1219 0.930 . S
C1227 C1228 1.355 . S
C1227 C1229 1.415 . S
C1228 C1227 1.355 . S
C1228 C1230 1.419 . S
C1229 C1224 1.425 . S
C1229 C1226 1.409 . S
C1229 C1227 1.415 . S
C1230 H1220 0.930 . S
C1230 C1228 1.419 . S
C1230 C1231 1.362 . S
C1231 H1221 0.930 . S
C1231 C1224 1.409 . S
C1231 C1230 1.362 . S
H1232 C1238 0.930 . S
H1233 C1241 0.930 . S
H1234 C1242 0.930 . S
H1235 C1243 0.930 . S
H1236 C1246 0.930 . S
H1237 C1247 0.930 . S
C1238 H1232 0.930 . S
C1238 C1239 1.355 . S
C1238 C1240 1.415 . S
C1239 C1238 1.355 . S
C1239 C1241 1.419 . S
C1240 C1238 1.415 . S
C1240 C1245 1.425 . S
C1240 C1247 1.409 . S
C1241 H1233 0.930 . S
C1241 C1239 1.419 . S
C1241 C1242 1.362 . S
C1242 H1234 0.930 . S
C1242 C1241 1.362 . S
C1242 C1245 1.409 . S
C1243 H1235 0.930 . S
C1243 C1244 1.355 . S
C1243 C1245 1.415 . S
C1244 C1243 1.355 . S
C1244 C1246 1.419 . S
C1245 C1240 1.425 . S
C1245 C1242 1.409 . S
C1245 C1243 1.415 . S
C1246 H1236 0.930 . S
C1246 C1244 1.419 . S
C1246 C1247 1.362 . S
C1247 H1237 0.930 . S
C1247 C1240 1.409 . S
C1247 C1246 1.362 . S
H1248 C1254 0.930 . S
H1249 C1257 0.930 . S
H1250 C1258 0.930 . S
H1251 C1259 0.930 . S
H1252 C1262 0.930 . S
H1253 C1263 0.930 . S
C1254 H1248 0.930 . S
C1254 C1255 1.355 . S
C1254 C1256 1.415 . S
C1255 C1254 1.355 . S
C1255 C1257 1.419 . S
C1256 C1254 1.415 . S
C1256 C1261 1.425 . S
C1256 C1263 1.409 . S
C1257 H1249 0.930 . S
C1257 C1255 1.419 . S
C1257 C1258 1.362 . S
C1258 H1250 0.930 . S
C1258 C1257 1.362 . S
C1258 C1261 1.409 . S
C1259 H1251 0.930 . S
C1259 C1260 1.355 . S
C1259 C1261 1.415 . S
C1260 C1259 1.355 . S
C1260 C1262 1.419 . S
C1261 C1256 1.425 . S
C1261 C1258 1.409 . S
C1261 C1259 1.415 . S
C1262 H1252 0.930 . S
C1262 C1260 1.419 . S
C1262 C1263 1.362 . S
C1263 H1253 0.930 . S
C1263 C1256 1.409 . S
C1263 C1262 1.362 . S
H1264 C1270 0.930 . S
H1265 C1273 0.930 . S
H1266 C1274 0.930 . S
H1267 C1275 0.930 . S
H1268 C1278 0.930 . S
H1269 C1279 0.930 . S
C1270 H1264 0.930 . S
C1270 C1271 1.355 . S
C1270 C1272 1.415 . S
C1271 C1270 1.355 . S
C1271 C1273 1.419 . S
C1272 C1270 1.415 . S
C1272 C1277 1.425 . S
C1272 C1279 1.409 . S
C1273 H1265 0.930 . S
C1273 C1271 1.419 . S
C1273 C1274 1.362 . S
C1274 H1266 0.930 . S
C1274 C1273 1.362 . S
C1274 C1277 1.409 . S
C1275 H1267 0.930 . S
C1275 C1276 1.355 . S
C1275 C1277 1.415 . S
C1276 C1275 1.355 . S
C1276 C1278 1.419 . S
C1277 C1272 1.425 . S
C1277 C1274 1.409 . S
C1277 C1275 1.415 . S
C1278 H1268 0.930 . S
C1278 C1276 1.419 . S
C1278 C1279 1.362 . S
C1279 H1269 0.930 . S
C1279 C1272 1.409 . S
C1279 C1278 1.362 . S
H1280 C1286 0.930 . S
H1281 C1289 0.930 . S
H1282 C1290 0.930 . S
H1283 C1291 0.930 . S
H1284 C1294 0.930 . S
H1285 C1295 0.930 . S
C1286 H1280 0.930 . S
C1286 C1287 1.355 . S
C1286 C1288 1.415 . S
C1287 C1286 1.355 . S
C1287 C1289 1.419 . S
C1288 C1286 1.415 . S
C1288 C1293 1.425 . S
C1288 C1295 1.409 . S
C1289 H1281 0.930 . S
C1289 C1287 1.419 . S
C1289 C1290 1.362 . S
C1290 H1282 0.930 . S
C1290 C1289 1.362 . S
C1290 C1293 1.409 . S
C1291 H1283 0.930 . S
C1291 C1292 1.355 . S
C1291 C1293 1.415 . S
C1292 C1291 1.355 . S
C1292 C1294 1.419 . S
C1293 C1288 1.425 . S
C1293 C1290 1.409 . S
C1293 C1291 1.415 . S
C1294 H1284 0.930 . S
C1294 C1292 1.419 . S
C1294 C1295 1.362 . S
C1295 H1285 0.930 . S
C1295 C1288 1.409 . S
C1295 C1294 1.362 . S
H1296 C1302 0.930 . S
H1297 C1305 0.930 . S
H1298 C1306 0.930 . S
H1299 C1307 0.930 . S
H1300 C1310 0.930 . S
H1301 C1311 0.930 . S
C1302 H1296 0.930 . S
C1302 C1303 1.355 . S
C1302 C1304 1.415 . S
C1303 C1302 1.355 . S
C1303 C1305 1.419 . S
C1304 C1302 1.415 . S
C1304 C1309 1.425 . S
C1304 C1311 1.409 . S
C1305 H1297 0.930 . S
C1305 C1303 1.419 . S
C1305 C1306 1.362 . S
C1306 H1298 0.930 . S
C1306 C1305 1.362 . S
C1306 C1309 1.409 . S
C1307 H1299 0.930 . S
C1307 C1308 1.355 . S
C1307 C1309 1.415 . S
C1308 C1307 1.355 . S
C1308 C1310 1.419 . S
C1309 C1304 1.425 . S
C1309 C1306 1.409 . S
C1309 C1307 1.415 . S
C1310 H1300 0.930 . S
C1310 C1308 1.419 . S
C1310 C1311 1.362 . S
C1311 H1301 0.930 . S
C1311 C1304 1.409 . S
C1311 C1310 1.362 . S
H1312 C1318 0.930 . S
H1313 C1321 0.930 . S
H1314 C1322 0.930 . S
H1315 C1323 0.930 . S
H1316 C1326 0.930 . S
H1317 C1327 0.930 . S
C1318 H1312 0.930 . S
C1318 C1319 1.355 . S
C1318 C1320 1.415 . S
C1319 C1318 1.355 . S
C1319 C1321 1.419 . S
C1320 C1318 1.415 . S
C1320 C1325 1.425 . S
C1320 C1327 1.409 . S
C1321 H1313 0.930 . S
C1321 C1319 1.419 . S
C1321 C1322 1.362 . S
C1322 H1314 0.930 . S
C1322 C1321 1.362 . S
C1322 C1325 1.409 . S
C1323 H1315 0.930 . S
C1323 C1324 1.355 . S
C1323 C1325 1.415 . S
C1324 C1323 1.355 . S
C1324 C1326 1.419 . S
C1325 C1320 1.425 . S
C1325 C1322 1.409 . S
C1325 C1323 1.415 . S
C1326 H1316 0.930 . S
C1326 C1324 1.419 . S
C1326 C1327 1.362 . S
C1327 H1317 0.930 . S
C1327 C1320 1.409 . S
C1327 C1326 1.362 . S
H1328 C1334 0.930 . S
H1329 C1337 0.930 . S
H1330 C1338 0.930 . S
H1331 C1339 0.930 . S
H1332 C1342 0.930 . S
H1333 C1343 0.930 . S
C1334 H1328 0.930 . S
C1334 C1335 1.355 . S
C1334 C1336 1.415 . S
C1335 C1334 1.355 . S
C1335 C1337 1.419 . S
C1336 C1334 1.415 . S
C1336 C1341 1.425 . S
C1336 C1343 1.409 . S
C1337 H1329 0.930 . S
C1337 C1335 1.419 . S
C1337 C1338 1.362 . S
C1338 H1330 0.930 . S
C1338 C1337 1.362 . S
C1338 C1341 1.409 . S
C1339 H1331 0.930 . S
C1339 C1340 1.355 . S
C1339 C1341 1.415 . S
C1340 C1339 1.355 . S
C1340 C1342 1.419 . S
C1341 C1336 1.425 . S
C1341 C1338 1.409 . S
C1341 C1339 1.415 . S
C1342 H1332 0.930 . S
C1342 C1340 1.419 . S
C1342 C1343 1.362 . S
C1343 H1333 0.930 . S
C1343 C1336 1.409 . S
C1343 C1342 1.362 . S
H1344 C1350 0.930 1_556 S
H1345 C1353 0.930 . S
H1346 C1354 0.930 . S
H1347 C1355 0.930 . S
H1348 C1358 0.930 . S
H1349 C1359 0.930 . S
C1350 H1344 0.930 1_554 S
C1350 C1351 1.355 . S
C1350 C1352 1.415 . S
C1351 C1350 1.355 . S
C1351 C1353 1.419 . S
C1352 C1350 1.415 . S
C1352 C1357 1.425 . S
C1352 C1359 1.409 1_554 S
C1353 H1345 0.930 . S
C1353 C1351 1.419 . S
C1353 C1354 1.362 . S
C1354 H1346 0.930 . S
C1354 C1353 1.362 . S
C1354 C1357 1.409 . S
C1355 H1347 0.930 . S
C1355 C1356 1.355 . S
C1355 C1357 1.415 . S
C1356 C1355 1.355 . S
C1356 C1358 1.419 1_554 S
C1357 C1352 1.425 . S
C1357 C1354 1.409 . S
C1357 C1355 1.415 . S
C1358 H1348 0.930 . S
C1358 C1356 1.419 1_556 S
C1358 C1359 1.362 . S
C1359 H1349 0.930 . S
C1359 C1352 1.409 1_556 S
C1359 C1358 1.362 . S
H1360 C1366 0.930 . S
H1361 C1369 0.930 1_556 S
H1362 C1370 0.934 . S
H1363 C1371 0.930 . S
H1364 C1374 0.930 . S
H1365 C1375 0.930 . S
C1366 H1360 0.930 . S
C1366 C1367 1.355 . S
C1366 C1368 1.415 . S
C1367 C1366 1.355 . S
C1367 C1369 1.419 . S
C1368 C1366 1.415 . S
C1368 C1373 1.425 . S
C1368 C1375 1.409 . S
C1369 H1361 0.930 1_554 S
C1369 C1367 1.419 . S
C1369 C1370 1.362 1_554 S
C1370 H1362 0.934 . S
C1370 C1369 1.362 1_556 S
C1370 C1373 1.406 1_556 S
C1371 H1363 0.930 . S
C1371 C1372 1.355 . S
C1371 C1373 1.415 . S
C1372 C1371 1.355 . S
C1372 C1374 1.419 . S
C1373 C1368 1.425 . S
C1373 C1370 1.406 1_554 S
C1373 C1371 1.415 . S
C1374 H1364 0.930 . S
C1374 C1372 1.419 . S
C1374 C1375 1.362 . S
C1375 H1365 0.930 . S
C1375 C1368 1.409 . S
C1375 C1374 1.362 . S
H1376 C1382 0.930 . S
H1377 C1385 0.930 . S
H1378 C1386 0.930 . S
H1379 C1387 0.930 . S
H1380 C1390 0.930 . S
H1381 C1391 0.930 . S
C1382 H1376 0.930 . S
C1382 C1383 1.355 . S
C1382 C1384 1.415 . S
C1383 C1382 1.355 . S
C1383 C1385 1.419 . S
C1384 C1382 1.415 . S
C1384 C1389 1.425 . S
C1384 C1391 1.409 . S
C1385 H1377 0.930 . S
C1385 C1383 1.419 . S
C1385 C1386 1.362 . S
C1386 H1378 0.930 . S
C1386 C1385 1.362 . S
C1386 C1389 1.409 . S
C1387 H1379 0.930 . S
C1387 C1388 1.355 . S
C1387 C1389 1.415 . S
C1388 C1387 1.355 . S
C1388 C1390 1.419 . S
C1389 C1384 1.425 . S
C1389 C1386 1.409 . S
C1389 C1387 1.415 . S
C1390 H1380 0.930 . S
C1390 C1388 1.419 . S
C1390 C1391 1.362 . S
C1391 H1381 0.930 . S
C1391 C1384 1.409 . S
C1391 C1390 1.362 . S
H1392 C1398 0.930 . S
H1393 C1401 0.930 . S
H1394 C1402 0.930 . S
H1395 C1403 0.930 . S
H1396 C1406 0.930 . S
H1397 C1407 0.930 . S
C1398 H1392 0.930 . S
C1398 C1399 1.355 . S
C1398 C1400 1.415 . S
C1399 C1398 1.355 . S
C1399 C1401 1.419 . S
C1400 C1398 1.415 . S
C1400 C1405 1.425 . S
C1400 C1407 1.409 . S
C1401 H1393 0.930 . S
C1401 C1399 1.419 . S
C1401 C1402 1.362 . S
C1402 H1394 0.930 . S
C1402 C1401 1.362 . S
C1402 C1405 1.409 . S
C1403 H1395 0.930 . S
C1403 C1404 1.355 . S
C1403 C1405 1.415 . S
C1404 C1403 1.355 . S
C1404 C1406 1.419 . S
C1405 C1400 1.425 . S
C1405 C1402 1.409 . S
C1405 C1403 1.415 . S
C1406 H1396 0.930 . S
C1406 C1404 1.419 . S
C1406 C1407 1.362 . S
C1407 H1397 0.930 . S
C1407 C1400 1.409 . S
C1407 C1406 1.362 . S
H1408 C1414 0.930 1_554 S
H1409 C1417 0.930 . S
H1410 C1418 0.930 . S
H1411 C1419 0.930 . S
H1412 C1422 0.930 . S
H1413 C1423 0.930 . S
C1414 H1408 0.930 1_556 S
C1414 C1415 1.355 . S
C1414 C1416 1.415 . S
C1415 C1414 1.355 . S
C1415 C1417 1.419 . S
C1416 C1414 1.415 . S
C1416 C1421 1.425 . S
C1416 C1423 1.409 1_556 S
C1417 H1409 0.930 . S
C1417 C1415 1.419 . S
C1417 C1418 1.362 . S
C1418 H1410 0.930 . S
C1418 C1417 1.362 . S
C1418 C1421 1.409 . S
C1419 H1411 0.930 . S
C1419 C1420 1.355 . S
C1419 C1421 1.415 . S
C1420 C1419 1.355 . S
C1420 C1422 1.419 1_556 S
C1421 C1416 1.425 . S
C1421 C1418 1.409 . S
C1421 C1419 1.415 . S
C1422 H1412 0.930 . S
C1422 C1420 1.419 1_554 S
C1422 C1423 1.362 . S
C1423 H1413 0.930 . S
C1423 C1416 1.409 1_554 S
C1423 C1422 1.362 . S
H1424 C1430 0.930 . S
H1425 C1433 0.930 . S
H1426 C1434 0.930 . S
H1427 C1435 0.930 1_554 S
H1428 C1438 0.930 . S
H1429 C1439 0.930 . S
C1430 H1424 0.930 . S
C1430 C1431 1.355 . S
C1430 C1432 1.415 . S
C1431 C1430 1.355 . S
C1431 C1433 1.419 1_556 S
C1432 C1430 1.415 . S
C1432 C1437 1.425 . S
C1432 C1439 1.409 . S
C1433 H1425 0.930 . S
C1433 C1431 1.419 1_554 S
C1433 C1434 1.362 . S
C1434 H1426 0.930 . S
C1434 C1433 1.362 . S
C1434 C1437 1.409 1_554 S
C1435 H1427 0.930 1_556 S
C1435 C1436 1.355 . S
C1435 C1437 1.415 . S
C1436 C1435 1.355 . S
C1436 C1438 1.419 . S
C1437 C1432 1.425 . S
C1437 C1434 1.409 1_556 S
C1437 C1435 1.415 . S
C1438 H1428 0.930 . S
C1438 C1436 1.419 . S
C1438 C1439 1.362 . S
C1439 H1429 0.930 . S
C1439 C1432 1.409 . S
C1439 C1438 1.362 . S
H1440 C1446 0.930 . S
H1441 C1449 0.930 . S
H1442 C1450 0.930 . S
H1443 C1451 0.930 . S
H1444 C1454 0.930 . S
H1445 C1455 0.930 . S
C1446 H1440 0.930 . S
C1446 C1447 1.355 . S
C1446 C1448 1.415 . S
C1447 C1446 1.355 . S
C1447 C1449 1.419 . S
C1448 C1446 1.415 . S
C1448 C1453 1.425 . S
C1448 C1455 1.409 . S
C1449 H1441 0.930 . S
C1449 C1447 1.419 . S
C1449 C1450 1.362 . S
C1450 H1442 0.930 . S
C1450 C1449 1.362 . S
C1450 C1453 1.409 . S
C1451 H1443 0.930 . S
C1451 C1452 1.355 . S
C1451 C1453 1.415 . S
C1452 C1451 1.355 . S
C1452 C1454 1.419 . S
C1453 C1448 1.425 . S
C1453 C1450 1.409 . S
C1453 C1451 1.415 . S
C1454 H1444 0.930 . S
C1454 C1452 1.419 . S
C1454 C1455 1.362 . S
C1455 H1445 0.930 . S
C1455 C1448 1.409 . S
C1455 C1454 1.362 . S
H1456 C1462 0.930 . S
H1457 C1465 0.930 . S
H1458 C1466 0.930 . S
H1459 C1467 0.930 . S
H1460 C1470 0.930 . S
H1461 C1471 0.930 . S
C1462 H1456 0.930 . S
C1462 C1463 1.355 . S
C1462 C1464 1.415 . S
C1463 C1462 1.355 . S
C1463 C1465 1.419 . S
C1464 C1462 1.415 . S
C1464 C1469 1.425 . S
C1464 C1471 1.409 . S
C1465 H1457 0.930 . S
C1465 C1463 1.419 . S
C1465 C1466 1.362 . S
C1466 H1458 0.930 . S
C1466 C1465 1.362 . S
C1466 C1469 1.409 . S
C1467 H1459 0.930 . S
C1467 C1468 1.355 . S
C1467 C1469 1.415 . S
C1468 C1467 1.355 . S
C1468 C1470 1.419 . S
C1469 C1464 1.425 . S
C1469 C1466 1.409 . S
C1469 C1467 1.415 . S
C1470 H1460 0.930 . S
C1470 C1468 1.419 . S
C1470 C1471 1.362 . S
C1471 H1461 0.930 . S
C1471 C1464 1.409 . S
C1471 C1470 1.362 . S
H1472 C1478 0.930 . S
H1473 C1481 0.930 . S
H1474 C1482 0.930 . S
H1475 C1483 0.930 . S
H1476 C1486 0.930 . S
H1477 C1487 0.930 . S
C1478 H1472 0.930 . S
C1478 C1479 1.355 . S
C1478 C1480 1.415 . S
C1479 C1478 1.355 . S
C1479 C1481 1.419 . S
C1480 C1478 1.415 . S
C1480 C1485 1.425 . S
C1480 C1487 1.409 . S
C1481 H1473 0.930 . S
C1481 C1479 1.419 . S
C1481 C1482 1.362 . S
C1482 H1474 0.930 . S
C1482 C1481 1.362 . S
C1482 C1485 1.409 . S
C1483 H1475 0.930 . S
C1483 C1484 1.355 . S
C1483 C1485 1.415 . S
C1484 C1483 1.355 . S
C1484 C1486 1.419 . S
C1485 C1480 1.425 . S
C1485 C1482 1.409 . S
C1485 C1483 1.415 . S
C1486 H1476 0.930 . S
C1486 C1484 1.419 . S
C1486 C1487 1.362 . S
C1487 H1477 0.930 . S
C1487 C1480 1.409 . S
C1487 C1486 1.362 . S
H1488 C1494 0.930 . S
H1489 C1497 0.930 . S
H1490 C1498 0.930 . S
H1491 C1499 0.930 . S
H1492 C1502 0.930 . S
H1493 C1503 0.930 . S
C1494 H1488 0.930 . S
C1494 C1495 1.355 . S
C1494 C1496 1.415 . S
C1495 C1494 1.355 . S
C1495 C1497 1.419 . S
C1496 C1494 1.415 . S
C1496 C1501 1.425 . S
C1496 C1503 1.409 . S
C1497 H1489 0.930 . S
C1497 C1495 1.419 . S
C1497 C1498 1.362 . S
C1498 H1490 0.930 . S
C1498 C1497 1.362 . S
C1498 C1501 1.409 . S
C1499 H1491 0.930 . S
C1499 C1500 1.355 . S
C1499 C1501 1.415 . S
C1500 C1499 1.355 . S
C1500 C1502 1.419 . S
C1501 C1496 1.425 . S
C1501 C1498 1.409 . S
C1501 C1499 1.415 . S
C1502 H1492 0.930 . S
C1502 C1500 1.419 . S
C1502 C1503 1.362 . S
C1503 H1493 0.930 . S
C1503 C1496 1.409 . S
C1503 C1502 1.362 . S
H1504 C1510 0.930 . S
H1505 C1513 0.930 . S
H1506 C1514 0.930 . S
H1507 C1515 0.930 . S
H1508 C1518 0.930 . S
H1509 C1519 0.930 . S
C1510 H1504 0.930 . S
C1510 C1511 1.355 . S
C1510 C1512 1.415 . S
C1511 C1510 1.355 . S
C1511 C1513 1.419 . S
C1512 C1510 1.415 . S
C1512 C1517 1.425 . S
C1512 C1519 1.409 . S
C1513 H1505 0.930 . S
C1513 C1511 1.419 . S
C1513 C1514 1.362 . S
C1514 H1506 0.930 . S
C1514 C1513 1.362 . S
C1514 C1517 1.409 . S
C1515 H1507 0.930 . S
C1515 C1516 1.355 . S
C1515 C1517 1.415 . S
C1516 C1515 1.355 . S
C1516 C1518 1.419 . S
C1517 C1512 1.425 . S
C1517 C1514 1.409 . S
C1517 C1515 1.415 . S
C1518 H1508 0.930 . S
C1518 C1516 1.419 . S
C1518 C1519 1.362 . S
C1519 H1509 0.930 . S
C1519 C1512 1.409 . S
C1519 C1518 1.362 . S
H1520 C1526 0.930 . S
H1521 C1529 0.930 . S
H1522 C1530 0.930 . S
H1523 C1531 0.930 . S
H1524 C1534 0.930 . S
H1525 C1535 0.930 . S
C1526 H1520 0.930 . S
C1526 C1527 1.355 . S
C1526 C1528 1.415 . S
C1527 C1526 1.355 . S
C1527 C1529 1.419 . S
C1528 C1526 1.415 . S
C1528 C1533 1.425 . S
C1528 C1535 1.409 . S
C1529 H1521 0.930 . S
C1529 C1527 1.419 . S
C1529 C1530 1.362 . S
C1530 H1522 0.930 . S
C1530 C1529 1.362 . S
C1530 C1533 1.409 . S
C1531 H1523 0.930 . S
C1531 C1532 1.355 . S
C1531 C1533 1.415 . S
C1532 C1531 1.355 . S
C1532 C1534 1.419 . S
C1533 C1528 1.425 . S
C1533 C1530 1.409 . S
C1533 C1531 1.415 . S
C1534 H1524 0.930 . S
C1534 C1532 1.419 . S
C1534 C1535 1.362 . S
C1535 H1525 0.930 . S
C1535 C1528 1.409 . S
C1535 C1534 1.362 . S
H1536 C1542 0.930 . S
H1537 C1545 0.930 . S
H1538 C1546 0.930 . S
H1539 C1547 0.930 . S
H1540 C1550 0.930 . S
H1541 C1551 0.930 . S
C1542 H1536 0.930 . S
C1542 C1543 1.355 . S
C1542 C1544 1.415 . S
C1543 C1542 1.355 . S
C1543 C1545 1.419 . S
C1544 C1542 1.415 . S
C1544 C1549 1.425 . S
C1544 C1551 1.409 . S
C1545 H1537 0.930 . S
C1545 C1543 1.419 . S
C1545 C1546 1.362 . S
C1546 H1538 0.930 . S
C1546 C1545 1.362 . S
C1546 C1549 1.409 . S
C1547 H1539 0.930 . S
C1547 C1548 1.355 . S
C1547 C1549 1.415 . S
C1548 C1547 1.355 . S
C1548 C1550 1.419 . S
C1549 C1544 1.425 . S
C1549 C1546 1.409 . S
C1549 C1547 1.415 . S
C1550 H1540 0.930 . S
C1550 C1548 1.419 . S
C1550 C1551 1.362 . S
C1551 H1541 0.930 . S
C1551 C1544 1.409 . S
C1551 C1550 1.362 . S
H1552 C1558 0.930 . S
H1553 C1561 0.930 . S
H1554 C1562 0.930 . S
H1555 C1563 0.930 . S
H1556 C1566 0.930 . S
H1557 C1567 0.930 . S
C1558 H1552 0.930 . S
C1558 C1559 1.355 . S
C1558 C1560 1.415 . S
C1559 C1558 1.355 . S
C1559 C1561 1.419 . S
C1560 C1558 1.415 . S
C1560 C1565 1.425 . S
C1560 C1567 1.409 . S
C1561 H1553 0.930 . S
C1561 C1559 1.419 . S
C1561 C1562 1.362 . S
C1562 H1554 0.930 . S
C1562 C1561 1.362 . S
C1562 C1565 1.409 . S
C1563 H1555 0.930 . S
C1563 C1564 1.355 . S
C1563 C1565 1.415 . S
C1564 C1563 1.355 . S
C1564 C1566 1.419 . S
C1565 C1560 1.425 . S
C1565 C1562 1.409 . S
C1565 C1563 1.415 . S
C1566 H1556 0.930 . S
C1566 C1564 1.419 . S
C1566 C1567 1.362 . S
C1567 H1557 0.930 . S
C1567 C1560 1.409 . S
C1567 C1566 1.362 . S
H1568 C1574 0.930 . S
H1569 C1577 0.930 . S
H1570 C1578 0.930 . S
H1571 C1579 0.930 . S
H1572 C1582 0.930 . S
H1573 C1583 0.930 . S
C1574 H1568 0.930 . S
C1574 C1575 1.355 . S
C1574 C1576 1.415 . S
C1575 C1574 1.355 . S
C1575 C1577 1.419 . S
C1576 C1574 1.415 . S
C1576 C1581 1.425 . S
C1576 C1583 1.409 . S
C1577 H1569 0.930 . S
C1577 C1575 1.419 . S
C1577 C1578 1.362 . S
C1578 H1570 0.930 . S
C1578 C1577 1.362 . S
C1578 C1581 1.409 . S
C1579 H1571 0.930 . S
C1579 C1580 1.355 . S
C1579 C1581 1.415 . S
C1580 C1579 1.355 . S
C1580 C1582 1.419 . S
C1581 C1576 1.425 . S
C1581 C1578 1.409 . S
C1581 C1579 1.415 . S
C1582 H1572 0.930 . S
C1582 C1580 1.419 . S
C1582 C1583 1.362 . S
C1583 H1573 0.930 . S
C1583 C1576 1.409 . S
C1583 C1582 1.362 . S
H1584 C1590 0.930 . S
H1585 C1593 0.930 . S
H1586 C1594 0.930 . S
H1587 C1595 0.930 . S
H1588 C1598 0.930 . S
H1589 C1599 0.930 . S
C1590 H1584 0.930 . S
C1590 C1591 1.355 . S
C1590 C1592 1.415 . S
C1591 C1590 1.355 . S
C1591 C1593 1.419 . S
C1592 C1590 1.415 . S
C1592 C1597 1.425 . S
C1592 C1599 1.409 . S
C1593 H1585 0.930 . S
C1593 C1591 1.419 . S
C1593 C1594 1.362 . S
C1594 H1586 0.930 . S
C1594 C1593 1.362 . S
C1594 C1597 1.409 . S
C1595 H1587 0.930 . S
C1595 C1596 1.355 . S
C1595 C1597 1.415 . S
C1596 C1595 1.355 . S
C1596 C1598 1.419 . S
C1597 C1592 1.425 . S
C1597 C1594 1.409 . S
C1597 C1595 1.415 . S
C1598 H1588 0.930 . S
C1598 C1596 1.419 . S
C1598 C1599 1.362 . S
C1599 H1589 0.930 . S
C1599 C1592 1.409 . S
C1599 C1598 1.362 . S
H1600 C1606 0.930 . S
H1601 C1609 0.930 . S
H1602 C1610 0.930 . S
H1603 C1611 0.930 . S
H1604 C1614 0.930 . S
H1605 C1615 0.930 . S
C1606 H1600 0.930 . S
C1606 C1607 1.355 . S
C1606 C1608 1.415 . S
C1607 C1606 1.355 . S
C1607 C1609 1.419 . S
C1608 C1606 1.415 . S
C1608 C1613 1.425 . S
C1608 C1615 1.409 . S
C1609 H1601 0.930 . S
C1609 C1607 1.419 . S
C1609 C1610 1.362 . S
C1610 H1602 0.930 . S
C1610 C1609 1.362 . S
C1610 C1613 1.409 . S
C1611 H1603 0.930 . S
C1611 C1612 1.355 . S
C1611 C1613 1.415 . S
C1612 C1611 1.355 . S
C1612 C1614 1.419 . S
C1613 C1608 1.425 . S
C1613 C1610 1.409 . S
C1613 C1611 1.415 . S
C1614 H1604 0.930 . S
C1614 C1612 1.419 . S
C1614 C1615 1.362 . S
C1615 H1605 0.930 . S
C1615 C1608 1.409 . S
C1615 C1614 1.362 . S
H1616 C1622 0.930 . S
H1617 C1625 0.930 . S
H1618 C1626 0.930 . S
H1619 C1627 0.930 . S
H1620 C1630 0.930 . S
H1621 C1631 0.930 . S
C1622 H1616 0.930 . S
C1622 C1623 1.355 . S
C1622 C1624 1.415 . S
C1623 C1622 1.355 . S
C1623 C1625 1.419 . S
C1624 C1622 1.415 . S
C1624 C1629 1.425 . S
C1624 C1631 1.409 . S
C1625 H1617 0.930 . S
C1625 C1623 1.419 . S
C1625 C1626 1.362 . S
C1626 H1618 0.930 . S
C1626 C1625 1.362 . S
C1626 C1629 1.409 . S
C1627 H1619 0.930 . S
C1627 C1628 1.355 . S
C1627 C1629 1.415 . S
C1628 C1627 1.355 . S
C1628 C1630 1.419 . S
C1629 C1624 1.425 . S
C1629 C1626 1.409 . S
C1629 C1627 1.415 . S
C1630 H1620 0.930 . S
C1630 C1628 1.419 . S
C1630 C1631 1.362 . S
C1631 H1621 0.930 . S
C1631 C1624 1.409 . S
C1631 C1630 1.362 . S
H1632 C1638 0.930 . S
H1633 C1641 0.930 . S
H1634 C1642 0.930 . S
H1635 C1643 0.930 . S
H1636 C1646 0.930 . S
H1637 C1647 0.930 . S
C1638 H1632 0.930 . S
C1638 C1639 1.355 . S
C1638 C1640 1.415 . S
C1639 C1638 1.355 . S
C1639 C1641 1.419 . S
C1640 C1638 1.415 . S
C1640 C1645 1.425 . S
C1640 C1647 1.409 . S
C1641 H1633 0.930 . S
C1641 C1639 1.419 . S
C1641 C1642 1.362 . S
C1642 H1634 0.930 . S
C1642 C1641 1.362 . S
C1642 C1645 1.409 . S
C1643 H1635 0.930 . S
C1643 C1644 1.355 . S
C1643 C1645 1.415 . S
C1644 C1643 1.355 . S
C1644 C1646 1.419 . S
C1645 C1640 1.425 . S
C1645 C1642 1.409 . S
C1645 C1643 1.415 . S
C1646 H1636 0.930 . S
C1646 C1644 1.419 . S
C1646 C1647 1.362 . S
C1647 H1637 0.930 . S
C1647 C1640 1.409 . S
C1647 C1646 1.362 . S
H1648 C1654 0.930 . S
H1649 C1657 0.930 . S
H1650 C1658 0.930 . S
H1651 C1659 0.930 . S
H1652 C1662 0.930 . S
H1653 C1663 0.930 . S
C1654 H1648 0.930 . S
C1654 C1655 1.355 . S
C1654 C1656 1.415 . S
C1655 C1654 1.355 . S
C1655 C1657 1.419 . S
C1656 C1654 1.415 . S
C1656 C1661 1.425 . S
C1656 C1663 1.409 . S
C1657 H1649 0.930 . S
C1657 C1655 1.419 . S
C1657 C1658 1.362 . S
C1658 H1650 0.930 . S
C1658 C1657 1.362 . S
C1658 C1661 1.409 . S
C1659 H1651 0.930 . S
C1659 C1660 1.355 . S
C1659 C1661 1.415 . S
C1660 C1659 1.355 . S
C1660 C1662 1.419 . S
C1661 C1656 1.425 . S
C1661 C1658 1.409 . S
C1661 C1659 1.415 . S
C1662 H1652 0.930 . S
C1662 C1660 1.419 . S
C1662 C1663 1.362 . S
C1663 H1653 0.930 . S
C1663 C1656 1.409 . S
C1663 C1662 1.362 . S
H1664 C1670 0.930 . S
H1665 C1673 0.930 . S
H1666 C1674 0.930 . S
H1667 C1675 0.930 . S
H1668 C1678 0.930 . S
H1669 C1679 0.930 . S
C1670 H1664 0.930 . S
C1670 C1671 1.355 . S
C1670 C1672 1.415 . S
C1671 C1670 1.355 . S
C1671 C1673 1.419 . S
C1672 C1670 1.415 . S
C1672 C1677 1.425 . S
C1672 C1679 1.409 . S
C1673 H1665 0.930 . S
C1673 C1671 1.419 . S
C1673 C1674 1.362 . S
C1674 H1666 0.930 . S
C1674 C1673 1.362 . S
C1674 C1677 1.409 . S
C1675 H1667 0.930 . S
C1675 C1676 1.355 . S
C1675 C1677 1.415 . S
C1676 C1675 1.355 . S
C1676 C1678 1.419 . S
C1677 C1672 1.425 . S
C1677 C1674 1.409 . S
C1677 C1675 1.415 . S
C1678 H1668 0.930 . S
C1678 C1676 1.419 . S
C1678 C1679 1.362 . S
C1679 H1669 0.930 . S
C1679 C1672 1.409 . S
C1679 C1678 1.362 . S
H1680 C1686 0.930 . S
H1681 C1689 0.930 . S
H1682 C1690 0.930 . S
H1683 C1691 0.930 . S
H1684 C1694 0.930 . S
H1685 C1695 0.930 . S
C1686 H1680 0.930 . S
C1686 C1687 1.355 . S
C1686 C1688 1.415 . S
C1687 C1686 1.355 . S
C1687 C1689 1.419 . S
C1688 C1686 1.415 . S
C1688 C1693 1.425 . S
C1688 C1695 1.409 . S
C1689 H1681 0.930 . S
C1689 C1687 1.419 . S
C1689 C1690 1.362 . S
C1690 H1682 0.930 . S
C1690 C1689 1.362 . S
C1690 C1693 1.409 . S
C1691 H1683 0.930 . S
C1691 C1692 1.355 . S
C1691 C1693 1.415 . S
C1692 C1691 1.355 . S
C1692 C1694 1.419 . S
C1693 C1688 1.425 . S
C1693 C1690 1.409 . S
C1693 C1691 1.415 . S
C1694 H1684 0.930 . S
C1694 C1692 1.419 . S
C1694 C1695 1.362 . S
C1695 H1685 0.930 . S
C1695 C1688 1.409 . S
C1695 C1694 1.362 . S
H1696 C1702 0.930 . S
H1697 C1705 0.930 . S
H1698 C1706 0.930 . S
H1699 C1707 0.930 . S
H1700 C1710 0.930 . S
H1701 C1711 0.930 . S
C1702 H1696 0.930 . S
C1702 C1703 1.355 . S
C1702 C1704 1.415 . S
C1703 C1702 1.355 . S
C1703 C1705 1.419 . S
C1704 C1702 1.415 . S
C1704 C1709 1.425 . S
C1704 C1711 1.409 . S
C1705 H1697 0.930 . S
C1705 C1703 1.419 . S
C1705 C1706 1.362 . S
C1706 H1698 0.930 . S
C1706 C1705 1.362 . S
C1706 C1709 1.409 . S
C1707 H1699 0.930 . S
C1707 C1708 1.355 . S
C1707 C1709 1.415 . S
C1708 C1707 1.355 . S
C1708 C1710 1.419 . S
C1709 C1704 1.425 . S
C1709 C1706 1.409 . S
C1709 C1707 1.415 . S
C1710 H1700 0.930 . S
C1710 C1708 1.419 . S
C1710 C1711 1.362 . S
C1711 H1701 0.930 . S
C1711 C1704 1.409 . S
C1711 C1710 1.362 . S
H1712 C1718 0.930 . S
H1713 C1721 0.930 . S
H1714 C1722 0.930 . S
H1715 C1723 0.930 . S
H1716 C1726 0.930 . S
H1717 C1727 0.930 . S
C1718 H1712 0.930 . S
C1718 C1719 1.355 . S
C1718 C1720 1.415 . S
C1719 C1718 1.355 . S
C1719 C1721 1.419 . S
C1720 C1718 1.415 . S
C1720 C1725 1.425 . S
C1720 C1727 1.409 . S
C1721 H1713 0.930 . S
C1721 C1719 1.419 . S
C1721 C1722 1.362 . S
C1722 H1714 0.930 . S
C1722 C1721 1.362 . S
C1722 C1725 1.409 . S
C1723 H1715 0.930 . S
C1723 C1724 1.355 . S
C1723 C1725 1.415 . S
C1724 C1723 1.355 . S
C1724 C1726 1.419 . S
C1725 C1720 1.425 . S
C1725 C1722 1.409 . S
C1725 C1723 1.415 . S
C1726 H1716 0.930 . S
C1726 C1724 1.419 . S
C1726 C1727 1.362 . S
C1727 H1717 0.930 . S
C1727 C1720 1.409 . S
C1727 C1726 1.362 . S
H1728 C1734 0.930 . S
H1729 C1737 0.930 . S
H1730 C1738 0.930 . S
H1731 C1739 0.930 . S
H1732 C1742 0.930 . S
H1733 C1743 0.930 . S
C1734 H1728 0.930 . S
C1734 C1735 1.355 . S
C1734 C1736 1.415 . S
C1735 C1734 1.355 . S
C1735 C1737 1.419 . S
C1736 C1734 1.415 . S
C1736 C1741 1.425 . S
C1736 C1743 1.409 . S
C1737 H1729 0.930 . S
C1737 C1735 1.419 . S
C1737 C1738 1.362 . S
C1738 H1730 0.930 . S
C1738 C1737 1.362 . S
C1738 C1741 1.409 . S
C1739 H1731 0.930 . S
C1739 C1740 1.355 . S
C1739 C1741 1.415 . S
C1740 C1739 1.355 . S
C1740 C1742 1.419 . S
C1741 C1736 1.425 . S
C1741 C1738 1.409 . S
C1741 C1739 1.415 . S
C1742 H1732 0.930 . S
C1742 C1740 1.419 . S
C1742 C1743 1.362 . S
C1743 H1733 0.930 . S
C1743 C1736 1.409 . S
C1743 C1742 1.362 . S
H1744 C1750 0.930 . S
H1745 C1753 0.930 . S
H1746 C1754 0.930 . S
H1747 C1755 0.930 . S
H1748 C1758 0.930 . S
H1749 C1759 0.930 . S
C1750 H1744 0.930 . S
C1750 C1751 1.355 . S
C1750 C1752 1.415 . S
C1751 C1750 1.355 . S
C1751 C1753 1.419 . S
C1752 C1750 1.415 . S
C1752 C1757 1.425 . S
C1752 C1759 1.409 . S
C1753 H1745 0.930 . S
C1753 C1751 1.419 . S
C1753 C1754 1.362 . S
C1754 H1746 0.930 . S
C1754 C1753 1.362 . S
C1754 C1757 1.409 . S
C1755 H1747 0.930 . S
C1755 C1756 1.355 . S
C1755 C1757 1.415 . S
C1756 C1755 1.355 . S
C1756 C1758 1.419 . S
C1757 C1752 1.425 . S
C1757 C1754 1.409 . S
C1757 C1755 1.415 . S
C1758 H1748 0.930 . S
C1758 C1756 1.419 . S
C1758 C1759 1.362 . S
C1759 H1749 0.930 . S
C1759 C1752 1.409 . S
C1759 C1758 1.362 . S
H1760 C1766 0.930 . S
H1761 C1769 0.930 . S
H1762 C1770 0.930 . S
H1763 C1771 0.930 . S
H1764 C1774 0.930 . S
H1765 C1775 0.930 . S
C1766 H1760 0.930 . S
C1766 C1767 1.355 . S
C1766 C1768 1.415 . S
C1767 C1766 1.355 . S
C1767 C1769 1.419 . S
C1768 C1766 1.415 . S
C1768 C1773 1.425 . S
C1768 C1775 1.409 . S
C1769 H1761 0.930 . S
C1769 C1767 1.419 . S
C1769 C1770 1.362 . S
C1770 H1762 0.930 . S
C1770 C1769 1.362 . S
C1770 C1773 1.409 . S
C1771 H1763 0.930 . S
C1771 C1772 1.355 . S
C1771 C1773 1.415 . S
C1772 C1771 1.355 . S
C1772 C1774 1.419 . S
C1773 C1768 1.425 . S
C1773 C1770 1.409 . S
C1773 C1771 1.415 . S
C1774 H1764 0.930 . S
C1774 C1772 1.419 . S
C1774 C1775 1.362 . S
C1775 H1765 0.930 . S
C1775 C1768 1.409 . S
C1775 C1774 1.362 . S
H1776 C1782 0.930 . S
H1777 C1785 0.930 . S
H1778 C1786 0.930 . S
H1779 C1787 0.930 . S
H1780 C1790 0.930 . S
H1781 C1791 0.930 . S
C1782 H1776 0.930 . S
C1782 C1783 1.355 . S
C1782 C1784 1.415 . S
C1783 C1782 1.355 . S
C1783 C1785 1.419 . S
C1784 C1782 1.415 . S
C1784 C1789 1.425 . S
C1784 C1791 1.409 . S
C1785 H1777 0.930 . S
C1785 C1783 1.419 . S
C1785 C1786 1.362 . S
C1786 H1778 0.930 . S
C1786 C1785 1.362 . S
C1786 C1789 1.409 . S
C1787 H1779 0.930 . S
C1787 C1788 1.355 . S
C1787 C1789 1.415 . S
C1788 C1787 1.355 . S
C1788 C1790 1.419 . S
C1789 C1784 1.425 . S
C1789 C1786 1.409 . S
C1789 C1787 1.415 . S
C1790 H1780 0.930 . S
C1790 C1788 1.419 . S
C1790 C1791 1.362 . S
C1791 H1781 0.930 . S
C1791 C1784 1.409 . S
C1791 C1790 1.362 . S
H1792 C1798 0.930 . S
H1793 C1801 0.930 . S
H1794 C1802 0.930 . S
H1795 C1803 0.930 . S
H1796 C1806 0.930 . S
H1797 C1807 0.930 . S
C1798 H1792 0.930 . S
C1798 C1799 1.355 . S
C1798 C1800 1.415 . S
C1799 C1798 1.355 . S
C1799 C1801 1.419 . S
C1800 C1798 1.415 . S
C1800 C1805 1.425 . S
C1800 C1807 1.409 . S
C1801 H1793 0.930 . S
C1801 C1799 1.419 . S
C1801 C1802 1.362 . S
C1802 H1794 0.930 . S
C1802 C1801 1.362 . S
C1802 C1805 1.409 . S
C1803 H1795 0.930 . S
C1803 C1804 1.355 . S
C1803 C1805 1.415 . S
C1804 C1803 1.355 . S
C1804 C1806 1.419 . S
C1805 C1800 1.425 . S
C1805 C1802 1.409 . S
C1805 C1803 1.415 . S
C1806 H1796 0.930 . S
C1806 C1804 1.419 . S
C1806 C1807 1.362 . S
C1807 H1797 0.930 . S
C1807 C1800 1.409 . S
C1807 C1806 1.362 . S
H1808 C1814 0.930 . S
H1809 C1817 0.930 . S
H1810 C1818 0.930 . S
H1811 C1819 0.930 . S
H1812 C1822 0.930 . S
H1813 C1823 0.930 . S
C1814 H1808 0.930 . S
C1814 C1815 1.355 . S
C1814 C1816 1.415 . S
C1815 C1814 1.355 . S
C1815 C1817 1.419 . S
C1816 C1814 1.415 . S
C1816 C1821 1.425 . S
C1816 C1823 1.409 . S
C1817 H1809 0.930 . S
C1817 C1815 1.419 . S
C1817 C1818 1.362 . S
C1818 H1810 0.930 . S
C1818 C1817 1.362 . S
C1818 C1821 1.409 . S
C1819 H1811 0.930 . S
C1819 C1820 1.355 . S
C1819 C1821 1.415 . S
C1820 C1819 1.355 . S
C1820 C1822 1.419 . S
C1821 C1816 1.425 . S
C1821 C1818 1.409 . S
C1821 C1819 1.415 . S
C1822 H1812 0.930 . S
C1822 C1820 1.419 . S
C1822 C1823 1.362 . S
C1823 H1813 0.930 . S
C1823 C1816 1.409 . S
C1823 C1822 1.362 . S
H1824 C1830 0.930 . S
H1825 C1833 0.930 . S
H1826 C1834 0.930 . S
H1827 C1835 0.930 . S
H1828 C1838 0.930 . S
H1829 C1839 0.930 . S
C1830 H1824 0.930 . S
C1830 C1831 1.355 . S
C1830 C1832 1.415 . S
C1831 C1830 1.355 . S
C1831 C1833 1.419 . S
C1832 C1830 1.415 . S
C1832 C1837 1.425 . S
C1832 C1839 1.409 . S
C1833 H1825 0.930 . S
C1833 C1831 1.419 . S
C1833 C1834 1.362 . S
C1834 H1826 0.930 . S
C1834 C1833 1.362 . S
C1834 C1837 1.409 . S
C1835 H1827 0.930 . S
C1835 C1836 1.355 . S
C1835 C1837 1.415 . S
C1836 C1835 1.355 . S
C1836 C1838 1.419 . S
C1837 C1832 1.425 . S
C1837 C1834 1.409 . S
C1837 C1835 1.415 . S
C1838 H1828 0.930 . S
C1838 C1836 1.419 . S
C1838 C1839 1.362 . S
C1839 H1829 0.930 . S
C1839 C1832 1.409 . S
C1839 C1838 1.362 . S
H1840 C1846 0.930 . S
H1841 C1849 0.923 1_455 S
H1842 C1850 0.930 . S
H1843 C1851 0.930 . S
H1844 C1854 0.930 . S
H1845 C1855 0.930 . S
C1846 H1840 0.930 . S
C1846 C1847 1.355 . S
C1846 C1848 1.415 1_455 S
C1847 C1846 1.355 . S
C1847 C1849 1.410 1_455 S
C1848 C1846 1.415 1_655 S
C1848 C1853 1.425 . S
C1848 C1855 1.409 . S
C1849 H1841 0.923 1_655 S
C1849 C1847 1.410 1_655 S
C1849 C1850 1.376 . S
C1850 H1842 0.930 . S
C1850 C1849 1.376 . S
C1850 C1853 1.409 . S
C1851 H1843 0.930 . S
C1851 C1852 1.355 . S
C1851 C1853 1.415 . S
C1852 C1851 1.355 . S
C1852 C1854 1.419 . S
C1853 C1848 1.425 . S
C1853 C1850 1.409 . S
C1853 C1851 1.415 . S
C1854 H1844 0.930 . S
C1854 C1852 1.419 . S
C1854 C1855 1.362 . S
C1855 H1845 0.930 . S
C1855 C1848 1.409 . S
C1855 C1854 1.362 . S
H1856 C1862 0.930 . S
H1857 C1865 0.930 . S
H1858 C1866 0.930 . S
H1859 C1867 0.930 . S
H1860 C1870 0.930 . S
H1861 C1871 0.930 . S
C1862 H1856 0.930 . S
C1862 C1863 1.355 . S
C1862 C1864 1.415 . S
C1863 C1862 1.355 . S
C1863 C1865 1.419 . S
C1864 C1862 1.415 . S
C1864 C1869 1.425 . S
C1864 C1871 1.409 . S
C1865 H1857 0.930 . S
C1865 C1863 1.419 . S
C1865 C1866 1.362 . S
C1866 H1858 0.930 . S
C1866 C1865 1.362 . S
C1866 C1869 1.409 . S
C1867 H1859 0.930 . S
C1867 C1868 1.355 . S
C1867 C1869 1.415 . S
C1868 C1867 1.355 . S
C1868 C1870 1.419 . S
C1869 C1864 1.425 . S
C1869 C1866 1.409 . S
C1869 C1867 1.415 . S
C1870 H1860 0.930 . S
C1870 C1868 1.419 . S
C1870 C1871 1.362 . S
C1871 H1861 0.930 . S
C1871 C1864 1.409 . S
C1871 C1870 1.362 . S
H1872 C1878 0.930 . S
H1873 C1881 0.930 . S
H1874 C1882 0.930 . S
H1875 C1883 0.909 1_455 S
H1876 C1886 0.930 . S
H1877 C1887 0.930 . S
C1878 H1872 0.930 . S
C1878 C1879 1.355 1_655 S
C1878 C1880 1.415 . S
C1879 C1878 1.355 1_455 S
C1879 C1881 1.419 . S
C1880 C1878 1.415 . S
C1880 C1885 1.425 . S
C1880 C1887 1.409 . S
C1881 H1873 0.930 . S
C1881 C1879 1.419 . S
C1881 C1882 1.362 . S
C1882 H1874 0.930 . S
C1882 C1881 1.362 . S
C1882 C1885 1.409 1_455 S
C1883 H1875 0.909 1_655 S
C1883 C1884 1.355 . S
C1883 C1885 1.415 . S
C1884 C1883 1.355 . S
C1884 C1886 1.419 . S
C1885 C1880 1.425 . S
C1885 C1882 1.409 1_655 S
C1885 C1883 1.415 . S
C1886 H1876 0.930 . S
C1886 C1884 1.419 . S
C1886 C1887 1.362 . S
C1887 H1877 0.930 . S
C1887 C1880 1.409 . S
C1887 C1886 1.362 . S
H1888 C1894 0.930 . S
H1889 C1897 0.930 . S
H1890 C1898 0.930 . S
H1891 C1899 0.930 . S
H1892 C1902 0.930 . S
H1893 C1903 0.930 . S
C1894 H1888 0.930 . S
C1894 C1895 1.355 . S
C1894 C1896 1.415 . S
C1895 C1894 1.355 . S
C1895 C1897 1.419 . S
C1896 C1894 1.415 . S
C1896 C1901 1.425 . S
C1896 C1903 1.409 . S
C1897 H1889 0.930 . S
C1897 C1895 1.419 . S
C1897 C1898 1.362 . S
C1898 H1890 0.930 . S
C1898 C1897 1.362 . S
C1898 C1901 1.409 . S
C1899 H1891 0.930 . S
C1899 C1900 1.355 . S
C1899 C1901 1.415 . S
C1900 C1899 1.355 . S
C1900 C1902 1.419 . S
C1901 C1896 1.425 . S
C1901 C1898 1.409 . S
C1901 C1899 1.415 . S
C1902 H1892 0.930 . S
C1902 C1900 1.419 . S
C1902 C1903 1.362 . S
C1903 H1893 0.930 . S
C1903 C1896 1.409 . S
C1903 C1902 1.362 . S
H1904 C1910 0.930 1_655 S
H1905 C1913 0.930 . S
H1906 C1914 0.930 . S
H1907 C1915 0.930 . S
H1908 C1918 0.930 . S
H1909 C1919 0.930 . S
C1910 H1904 0.930 1_455 S
C1910 C1911 1.355 . S
C1910 C1912 1.415 . S
C1911 C1910 1.355 . S
C1911 C1913 1.419 . S
C1912 C1910 1.415 . S
C1912 C1917 1.425 . S
C1912 C1919 1.409 1_455 S
C1913 H1905 0.930 . S
C1913 C1911 1.419 . S
C1913 C1914 1.362 . S
C1914 H1906 0.930 . S
C1914 C1913 1.362 . S
C1914 C1917 1.409 . S
C1915 H1907 0.930 . S
C1915 C1916 1.355 1_455 S
C1915 C1917 1.415 . S
C1916 C1915 1.355 1_655 S
C1916 C1918 1.419 . S
C1917 C1912 1.425 . S
C1917 C1914 1.409 . S
C1917 C1915 1.415 . S
C1918 H1908 0.930 . S
C1918 C1916 1.419 . S
C1918 C1919 1.362 . S
C1919 H1909 0.930 . S
C1919 C1912 1.409 1_655 S
C1919 C1918 1.362 . S
H1920 C1926 0.930 . S
H1921 C1929 0.930 . S
H1922 C1930 0.930 . S
H1923 C1931 0.930 . S
H1924 C1934 0.930 . S
H1925 C1935 0.930 . S
C1926 H1920 0.930 . S
C1926 C1927 1.355 . S
C1926 C1928 1.415 . S
C1927 C1926 1.355 . S
C1927 C1929 1.419 . S
C1928 C1926 1.415 . S
C1928 C1933 1.425 . S
C1928 C1935 1.409 . S
C1929 H1921 0.930 . S
C1929 C1927 1.419 . S
C1929 C1930 1.362 . S
C1930 H1922 0.930 . S
C1930 C1929 1.362 . S
C1930 C1933 1.409 . S
C1931 H1923 0.930 . S
C1931 C1932 1.355 . S
C1931 C1933 1.415 . S
C1932 C1931 1.355 . S
C1932 C1934 1.419 . S
C1933 C1928 1.425 . S
C1933 C1930 1.409 . S
C1933 C1931 1.415 . S
C1934 H1924 0.930 . S
C1934 C1932 1.419 . S
C1934 C1935 1.362 . S
C1935 H1925 0.930 . S
C1935 C1928 1.409 . S
C1935 C1934 1.362 . S
H1936 C1942 0.930 . S
H1937 C1945 0.930 . S
H1938 C1946 0.930 . S
H1939 C1947 0.930 . S
H1940 C1950 0.930 . S
H1941 C1951 0.930 . S
C1942 H1936 0.930 . S
C1942 C1943 1.355 . S
C1942 C1944 1.415 . S
C1943 C1942 1.355 . S
C1943 C1945 1.419 . S
C1944 C1942 1.415 . S
C1944 C1949 1.425 . S
C1944 C1951 1.409 1_455 S
C1945 H1937 0.930 . S
C1945 C1943 1.419 . S
C1945 C1946 1.362 . S
C1946 H1938 0.930 . S
C1946 C1945 1.362 . S
C1946 C1949 1.409 . S
C1947 H1939 0.930 . S
C1947 C1948 1.355 1_455 S
C1947 C1949 1.415 . S
C1948 C1947 1.355 1_655 S
C1948 C1950 1.419 . S
C1949 C1944 1.425 . S
C1949 C1946 1.409 . S
C1949 C1947 1.415 . S
C1950 H1940 0.930 . S
C1950 C1948 1.419 . S
C1950 C1951 1.362 . S
C1951 H1941 0.930 . S
C1951 C1944 1.409 1_655 S
C1951 C1950 1.362 . S
H1952 C1958 0.930 . S
H1953 C1961 0.930 . S
H1954 C1962 0.930 . S
H1955 C1963 0.930 . S
H1956 C1966 0.930 . S
H1957 C1967 0.930 . S
C1958 H1952 0.930 . S
C1958 C1959 1.355 . S
C1958 C1960 1.415 . S
C1959 C1958 1.355 . S
C1959 C1961 1.419 . S
C1960 C1958 1.415 . S
C1960 C1965 1.425 . S
C1960 C1967 1.409 . S
C1961 H1953 0.930 . S
C1961 C1959 1.419 . S
C1961 C1962 1.362 . S
C1962 H1954 0.930 . S
C1962 C1961 1.362 . S
C1962 C1965 1.409 . S
C1963 H1955 0.930 . S
C1963 C1964 1.355 . S
C1963 C1965 1.415 . S
C1964 C1963 1.355 . S
C1964 C1966 1.419 . S
C1965 C1960 1.425 . S
C1965 C1962 1.409 . S
C1965 C1963 1.415 . S
C1966 H1956 0.930 . S
C1966 C1964 1.419 . S
C1966 C1967 1.362 . S
C1967 H1957 0.930 . S
C1967 C1960 1.409 . S
C1967 C1966 1.362 . S
H1968 C1974 0.930 . S
H1969 C1977 0.930 . S
H1970 C1978 0.930 . S
H1971 C1979 0.930 . S
H1972 C1982 0.930 1_455 S
H1973 C1983 0.930 . S
C1974 H1968 0.930 . S
C1974 C1975 1.355 . S
C1974 C1976 1.448 . S
C1975 C1974 1.355 . S
C1975 C1977 1.419 1_455 S
C1976 C1974 1.448 . S
C1976 C1981 1.367 1_455 S
C1976 C1983 1.434 . S
C1977 H1969 0.930 . S
C1977 C1975 1.419 1_655 S
C1977 C1978 1.362 . S
C1978 H1970 0.930 . S
C1978 C1977 1.362 . S
C1978 C1981 1.409 . S
C1979 H1971 0.930 . S
C1979 C1980 1.355 . S
C1979 C1981 1.415 . S
C1980 C1979 1.355 . S
C1980 C1982 1.419 . S
C1981 C1976 1.367 1_655 S
C1981 C1978 1.409 . S
C1981 C1979 1.415 . S
C1982 H1972 0.930 1_655 S
C1982 C1980 1.419 . S
C1982 C1983 1.362 1_655 S
C1983 H1973 0.930 . S
C1983 C1976 1.434 . S
C1983 C1982 1.362 1_455 S
H1984 C1990 0.930 . S
H1985 C1993 0.930 . S
H1986 C1994 0.930 . S
H1987 C1995 0.930 . S
H1988 C1998 0.930 . S
H1989 C1999 0.930 . S
C1990 H1984 0.930 . S
C1990 C1991 1.355 . S
C1990 C1992 1.415 . S
C1991 C1990 1.355 . S
C1991 C1993 1.419 . S
C1992 C1990 1.415 . S
C1992 C1997 1.425 . S
C1992 C1999 1.409 . S
C1993 H1985 0.930 . S
C1993 C1991 1.419 . S
C1993 C1994 1.362 . S
C1994 H1986 0.930 . S
C1994 C1993 1.362 . S
C1994 C1997 1.409 . S
C1995 H1987 0.930 . S
C1995 C1996 1.355 . S
C1995 C1997 1.415 . S
C1996 C1995 1.355 . S
C1996 C1998 1.419 . S
C1997 C1992 1.425 . S
C1997 C1994 1.409 . S
C1997 C1995 1.415 . S
C1998 H1988 0.930 . S
C1998 C1996 1.419 . S
C1998 C1999 1.362 . S
C1999 H1989 0.930 . S
C1999 C1992 1.409 . S
C1999 C1998 1.362 . S
H2000 C2006 0.930 . S
H2001 C2009 0.930 . S
H2002 C2010 0.930 . S
H2003 C2011 0.930 . S
H2004 C2014 0.930 . S
H2005 C2015 0.930 . S
C2006 H2000 0.930 . S
C2006 C2007 1.355 . S
C2006 C2008 1.415 . S
C2007 C2006 1.355 . S
C2007 C2009 1.419 . S
C2008 C2006 1.415 . S
C2008 C2013 1.425 . S
C2008 C2015 1.409 . S
C2009 H2001 0.930 . S
C2009 C2007 1.419 . S
C2009 C2010 1.362 . S
C2010 H2002 0.930 . S
C2010 C2009 1.362 . S
C2010 C2013 1.409 . S
C2011 H2003 0.930 . S
C2011 C2012 1.355 . S
C2011 C2013 1.415 1_455 S
C2012 C2011 1.355 . S
C2012 C2014 1.419 . S
C2013 C2008 1.425 . S
C2013 C2010 1.409 . S
C2013 C2011 1.415 1_655 S
C2014 H2004 0.930 . S
C2014 C2012 1.419 . S
C2014 C2015 1.362 1_455 S
C2015 H2005 0.930 . S
C2015 C2008 1.409 . S
C2015 C2014 1.362 1_655 S
H2016 C2022 0.930 . S
H2017 C2025 0.930 . S
H2018 C2026 0.930 . S
H2019 C2027 0.930 . S
H2020 C2030 0.930 . S
H2021 C2031 0.930 . S
C2022 H2016 0.930 . S
C2022 C2023 1.355 . S
C2022 C2024 1.415 . S
C2023 C2022 1.355 . S
C2023 C2025 1.419 . S
C2024 C2022 1.415 . S
C2024 C2029 1.425 . S
C2024 C2031 1.409 . S
C2025 H2017 0.930 . S
C2025 C2023 1.419 . S
C2025 C2026 1.362 . S
C2026 H2018 0.930 . S
C2026 C2025 1.362 . S
C2026 C2029 1.409 . S
C2027 H2019 0.930 . S
C2027 C2028 1.355 . S
C2027 C2029 1.415 . S
C2028 C2027 1.355 . S
C2028 C2030 1.419 . S
C2029 C2024 1.425 . S
C2029 C2026 1.409 . S
C2029 C2027 1.415 . S
C2030 H2020 0.930 . S
C2030 C2028 1.419 . S
C2030 C2031 1.362 . S
C2031 H2021 0.930 . S
C2031 C2024 1.409 . S
C2031 C2030 1.362 . S
H2032 C2038 0.930 1_655 S
H2033 C2041 0.930 . S
H2034 C2042 0.930 . S
H2035 C2043 0.930 . S
H2036 C2046 0.930 . S
H2037 C2047 0.930 . S
C2038 H2032 0.930 1_455 S
C2038 C2039 1.355 . S
C2038 C2040 1.415 . S
C2039 C2038 1.355 . S
C2039 C2041 1.419 . S
C2040 C2038 1.415 . S
C2040 C2045 1.425 . S
C2040 C2047 1.409 1_455 S
C2041 H2033 0.930 . S
C2041 C2039 1.419 . S
C2041 C2042 1.362 . S
C2042 H2034 0.930 . S
C2042 C2041 1.362 . S
C2042 C2045 1.409 . S
C2043 H2035 0.930 . S
C2043 C2044 1.355 1_455 S
C2043 C2045 1.415 . S
C2044 C2043 1.355 1_655 S
C2044 C2046 1.419 . S
C2045 C2040 1.425 . S
C2045 C2042 1.409 . S
C2045 C2043 1.415 . S
C2046 H2036 0.930 . S
C2046 C2044 1.419 . S
C2046 C2047 1.362 . S
C2047 H2037 0.930 . S
C2047 C2040 1.409 1_655 S
C2047 C2046 1.362 . S
H2048 C2054 0.930 . S
H2049 C2057 0.930 . S
H2050 C2058 0.930 . S
H2051 C2059 0.930 . S
H2052 C2062 0.930 . S
H2053 C2063 0.930 . S
C2054 H2048 0.930 . S
C2054 C2055 1.355 . S
C2054 C2056 1.415 . S
C2055 C2054 1.355 . S
C2055 C2057 1.419 . S
C2056 C2054 1.415 . S
C2056 C2061 1.425 . S
C2056 C2063 1.409 . S
C2057 H2049 0.930 . S
C2057 C2055 1.419 . S
C2057 C2058 1.362 . S
C2058 H2050 0.930 . S
C2058 C2057 1.362 . S
C2058 C2061 1.409 . S
C2059 H2051 0.930 . S
C2059 C2060 1.355 . S
C2059 C2061 1.415 . S
C2060 C2059 1.355 . S
C2060 C2062 1.419 . S
C2061 C2056 1.425 . S
C2061 C2058 1.409 . S
C2061 C2059 1.415 . S
C2062 H2052 0.930 . S
C2062 C2060 1.419 . S
C2062 C2063 1.362 . S
C2063 H2053 0.930 . S
C2063 C2056 1.409 . S
C2063 C2062 1.362 . S
H2064 C2070 0.930 . S
H2065 C2073 0.930 . S
H2066 C2074 0.930 . S
H2067 C2075 0.930 . S
H2068 C2078 0.930 . S
H2069 C2079 0.930 . S
C2070 H2064 0.930 . S
C2070 C2071 1.355 . S
C2070 C2072 1.415 1_655 S
C2071 C2070 1.355 . S
C2071 C2073 1.419 . S
C2072 C2070 1.415 1_455 S
C2072 C2077 1.425 . S
C2072 C2079 1.409 . S
C2073 H2065 0.930 . S
C2073 C2071 1.419 . S
C2073 C2074 1.362 1_655 S
C2074 H2066 0.930 . S
C2074 C2073 1.362 1_455 S
C2074 C2077 1.409 . S
C2075 H2067 0.930 . S
C2075 C2076 1.355 . S
C2075 C2077 1.415 . S
C2076 C2075 1.355 . S
C2076 C2078 1.419 . S
C2077 C2072 1.425 . S
C2077 C2074 1.409 . S
C2077 C2075 1.415 . S
C2078 H2068 0.930 . S
C2078 C2076 1.419 . S
C2078 C2079 1.362 . S
C2079 H2069 0.930 . S
C2079 C2072 1.409 . S
C2079 C2078 1.362 . S
H2080 C2086 0.930 . S
H2081 C2089 0.930 . S
H2082 C2090 0.930 . S
H2083 C2091 0.930 . S
H2084 C2094 0.930 . S
H2085 C2095 0.930 . S
C2086 H2080 0.930 . S
C2086 C2087 1.355 . S
C2086 C2088 1.415 . S
C2087 C2086 1.355 . S
C2087 C2089 1.419 . S
C2088 C2086 1.415 . S
C2088 C2093 1.425 . S
C2088 C2095 1.409 . S
C2089 H2081 0.930 . S
C2089 C2087 1.419 . S
C2089 C2090 1.362 . S
C2090 H2082 0.930 . S
C2090 C2089 1.362 . S
C2090 C2093 1.409 . S
C2091 H2083 0.930 . S
C2091 C2092 1.355 . S
C2091 C2093 1.415 . S
C2092 C2091 1.355 . S
C2092 C2094 1.419 . S
C2093 C2088 1.425 . S
C2093 C2090 1.409 . S
C2093 C2091 1.415 . S
C2094 H2084 0.930 . S
C2094 C2092 1.419 . S
C2094 C2095 1.362 . S
C2095 H2085 0.930 . S
C2095 C2088 1.409 . S
C2095 C2094 1.362 . S
H2096 C2102 0.930 . S
H2097 C2105 0.930 . S
H2098 C2106 0.930 . S
H2099 C2107 0.930 . S
H2100 C2110 0.930 . S
H2101 C2111 0.930 . S
C2102 H2096 0.930 . S
C2102 C2103 1.355 . S
C2102 C2104 1.415 . S
C2103 C2102 1.355 . S
C2103 C2105 1.419 . S
C2104 C2102 1.415 . S
C2104 C2109 1.425 . S
C2104 C2111 1.409 . S
C2105 H2097 0.930 . S
C2105 C2103 1.419 . S
C2105 C2106 1.362 . S
C2106 H2098 0.930 . S
C2106 C2105 1.362 . S
C2106 C2109 1.409 . S
C2107 H2099 0.930 . S
C2107 C2108 1.355 . S
C2107 C2109 1.415 . S
C2108 C2107 1.355 . S
C2108 C2110 1.419 . S
C2109 C2104 1.425 . S
C2109 C2106 1.409 . S
C2109 C2107 1.415 . S
C2110 H2100 0.930 . S
C2110 C2108 1.419 . S
C2110 C2111 1.362 . S
C2111 H2101 0.930 . S
C2111 C2104 1.409 . S
C2111 C2110 1.362 . S
H2112 C2118 0.930 . S
H2113 C2121 0.930 . S
H2114 C2122 0.930 . S
H2115 C2123 0.930 . S
H2116 C2126 0.930 . S
H2117 C2127 0.930 . S
C2118 H2112 0.930 . S
C2118 C2119 1.355 . S
C2118 C2120 1.415 . S
C2119 C2118 1.355 . S
C2119 C2121 1.419 . S
C2120 C2118 1.415 . S
C2120 C2125 1.425 . S
C2120 C2127 1.409 . S
C2121 H2113 0.930 . S
C2121 C2119 1.419 . S
C2121 C2122 1.362 . S
C2122 H2114 0.930 . S
C2122 C2121 1.362 . S
C2122 C2125 1.409 . S
C2123 H2115 0.930 . S
C2123 C2124 1.355 . S
C2123 C2125 1.415 . S
C2124 C2123 1.355 . S
C2124 C2126 1.419 . S
C2125 C2120 1.425 . S
C2125 C2122 1.409 . S
C2125 C2123 1.415 . S
C2126 H2116 0.930 . S
C2126 C2124 1.419 . S
C2126 C2127 1.362 . S
C2127 H2117 0.930 . S
C2127 C2120 1.409 . S
C2127 C2126 1.362 . S
H2128 C2134 0.930 . S
H2129 C2137 0.930 . S
H2130 C2138 0.930 . S
H2131 C2139 0.930 . S
H2132 C2142 0.930 . S
H2133 C2143 0.930 . S
C2134 H2128 0.930 . S
C2134 C2135 1.355 . S
C2134 C2136 1.415 . S
C2135 C2134 1.355 . S
C2135 C2137 1.419 . S
C2136 C2134 1.415 . S
C2136 C2141 1.425 . S
C2136 C2143 1.409 . S
C2137 H2129 0.930 . S
C2137 C2135 1.419 . S
C2137 C2138 1.362 . S
C2138 H2130 0.930 . S
C2138 C2137 1.362 . S
C2138 C2141 1.409 . S
C2139 H2131 0.930 . S
C2139 C2140 1.355 . S
C2139 C2141 1.415 . S
C2140 C2139 1.355 . S
C2140 C2142 1.419 . S
C2141 C2136 1.425 . S
C2141 C2138 1.409 . S
C2141 C2139 1.415 . S
C2142 H2132 0.930 . S
C2142 C2140 1.419 . S
C2142 C2143 1.362 . S
C2143 H2133 0.930 . S
C2143 C2136 1.409 . S
C2143 C2142 1.362 . S
H2144 C2150 0.930 . S
H2145 C2153 0.930 . S
H2146 C2154 0.930 . S
H2147 C2155 0.930 . S
H2148 C2158 0.930 . S
H2149 C2159 0.930 . S
C2150 H2144 0.930 . S
C2150 C2151 1.355 . S
C2150 C2152 1.415 . S
C2151 C2150 1.355 . S
C2151 C2153 1.419 . S
C2152 C2150 1.415 . S
C2152 C2157 1.425 . S
C2152 C2159 1.409 . S
C2153 H2145 0.930 . S
C2153 C2151 1.419 . S
C2153 C2154 1.362 . S
C2154 H2146 0.930 . S
C2154 C2153 1.362 . S
C2154 C2157 1.409 . S
C2155 H2147 0.930 . S
C2155 C2156 1.355 . S
C2155 C2157 1.415 . S
C2156 C2155 1.355 . S
C2156 C2158 1.419 . S
C2157 C2152 1.425 . S
C2157 C2154 1.409 . S
C2157 C2155 1.415 . S
C2158 H2148 0.930 . S
C2158 C2156 1.419 . S
C2158 C2159 1.362 . S
C2159 H2149 0.930 . S
C2159 C2152 1.409 . S
C2159 C2158 1.362 . S
H2160 C2166 0.930 . S
H2161 C2169 0.930 . S
H2162 C2170 0.930 . S
H2163 C2171 0.930 . S
H2164 C2174 0.930 . S
H2165 C2175 0.930 . S
C2166 H2160 0.930 . S
C2166 C2167 1.355 . S
C2166 C2168 1.415 . S
C2167 C2166 1.355 . S
C2167 C2169 1.419 . S
C2168 C2166 1.415 . S
C2168 C2173 1.425 . S
C2168 C2175 1.409 . S
C2169 H2161 0.930 . S
C2169 C2167 1.419 . S
C2169 C2170 1.362 . S
C2170 H2162 0.930 . S
C2170 C2169 1.362 . S
C2170 C2173 1.409 . S
C2171 H2163 0.930 . S
C2171 C2172 1.355 . S
C2171 C2173 1.415 . S
C2172 C2171 1.355 . S
C2172 C2174 1.419 . S
C2173 C2168 1.425 . S
C2173 C2170 1.409 . S
C2173 C2171 1.415 . S
C2174 H2164 0.930 . S
C2174 C2172 1.419 . S
C2174 C2175 1.362 . S
C2175 H2165 0.930 . S
C2175 C2168 1.409 . S
C2175 C2174 1.362 . S
H2176 C2182 0.930 . S
H2177 C2185 0.930 . S
H2178 C2186 0.930 . S
H2179 C2187 0.930 . S
H2180 C2190 0.930 . S
H2181 C2191 0.930 . S
C2182 H2176 0.930 . S
C2182 C2183 1.355 . S
C2182 C2184 1.415 . S
C2183 C2182 1.355 . S
C2183 C2185 1.419 . S
C2184 C2182 1.415 . S
C2184 C2189 1.425 . S
C2184 C2191 1.409 . S
C2185 H2177 0.930 . S
C2185 C2183 1.419 . S
C2185 C2186 1.362 . S
C2186 H2178 0.930 . S
C2186 C2185 1.362 . S
C2186 C2189 1.409 . S
C2187 H2179 0.930 . S
C2187 C2188 1.355 . S
C2187 C2189 1.415 . S
C2188 C2187 1.355 . S
C2188 C2190 1.419 . S
C2189 C2184 1.425 . S
C2189 C2186 1.409 . S
C2189 C2187 1.415 . S
C2190 H2180 0.930 . S
C2190 C2188 1.419 . S
C2190 C2191 1.362 . S
C2191 H2181 0.930 . S
C2191 C2184 1.409 . S
C2191 C2190 1.362 . S
H2192 C2198 0.930 . S
H2193 C2201 0.930 . S
H2194 C2202 0.930 . S
H2195 C2203 0.930 . S
H2196 C2206 0.930 . S
H2197 C2207 0.930 . S
C2198 H2192 0.930 . S
C2198 C2199 1.355 . S
C2198 C2200 1.415 . S
C2199 C2198 1.355 . S
C2199 C2201 1.419 . S
C2200 C2198 1.415 . S
C2200 C2205 1.425 . S
C2200 C2207 1.409 . S
C2201 H2193 0.930 . S
C2201 C2199 1.419 . S
C2201 C2202 1.362 . S
C2202 H2194 0.930 . S
C2202 C2201 1.362 . S
C2202 C2205 1.409 . S
C2203 H2195 0.930 . S
C2203 C2204 1.355 . S
C2203 C2205 1.415 . S
C2204 C2203 1.355 . S
C2204 C2206 1.419 . S
C2205 C2200 1.425 . S
C2205 C2202 1.409 . S
C2205 C2203 1.415 . S
C2206 H2196 0.930 . S
C2206 C2204 1.419 . S
C2206 C2207 1.362 . S
C2207 H2197 0.930 . S
C2207 C2200 1.409 . S
C2207 C2206 1.362 . S
H2208 C2214 0.930 . S
H2209 C2217 0.930 . S
H2210 C2218 0.930 . S
H2211 C2219 0.930 . S
H2212 C2222 0.930 . S
H2213 C2223 0.930 . S
C2214 H2208 0.930 . S
C2214 C2215 1.355 . S
C2214 C2216 1.415 . S
C2215 C2214 1.355 . S
C2215 C2217 1.419 . S
C2216 C2214 1.415 . S
C2216 C2221 1.425 . S
C2216 C2223 1.409 . S
C2217 H2209 0.930 . S
C2217 C2215 1.419 . S
C2217 C2218 1.362 . S
C2218 H2210 0.930 . S
C2218 C2217 1.362 . S
C2218 C2221 1.409 . S
C2219 H2211 0.930 . S
C2219 C2220 1.355 . S
C2219 C2221 1.415 . S
C2220 C2219 1.355 . S
C2220 C2222 1.419 . S
C2221 C2216 1.425 . S
C2221 C2218 1.409 . S
C2221 C2219 1.415 . S
C2222 H2212 0.930 . S
C2222 C2220 1.419 . S
C2222 C2223 1.362 . S
C2223 H2213 0.930 . S
C2223 C2216 1.409 . S
C2223 C2222 1.362 . S
H2224 C2230 0.930 . S
H2225 C2233 0.930 . S
H2226 C2234 0.930 . S
H2227 C2235 0.930 . S
H2228 C2238 0.930 . S
H2229 C2239 0.930 . S
C2230 H2224 0.930 . S
C2230 C2231 1.355 . S
C2230 C2232 1.415 . S
C2231 C2230 1.355 . S
C2231 C2233 1.419 . S
C2232 C2230 1.415 . S
C2232 C2237 1.425 . S
C2232 C2239 1.409 . S
C2233 H2225 0.930 . S
C2233 C2231 1.419 . S
C2233 C2234 1.362 . S
C2234 H2226 0.930 . S
C2234 C2233 1.362 . S
C2234 C2237 1.409 . S
C2235 H2227 0.930 . S
C2235 C2236 1.355 . S
C2235 C2237 1.415 . S
C2236 C2235 1.355 . S
C2236 C2238 1.419 . S
C2237 C2232 1.425 . S
C2237 C2234 1.409 . S
C2237 C2235 1.415 . S
C2238 H2228 0.930 . S
C2238 C2236 1.419 . S
C2238 C2239 1.362 . S
C2239 H2229 0.930 . S
C2239 C2232 1.409 . S
C2239 C2238 1.362 . S
H2240 C2246 0.930 . S
H2241 C2249 0.930 . S
H2242 C2250 0.930 . S
H2243 C2251 0.930 . S
H2244 C2254 0.930 . S
H2245 C2255 0.930 . S
C2246 H2240 0.930 . S
C2246 C2247 1.355 . S
C2246 C2248 1.415 . S
C2247 C2246 1.355 . S
C2247 C2249 1.419 . S
C2248 C2246 1.415 . S
C2248 C2253 1.425 . S
C2248 C2255 1.409 . S
C2249 H2241 0.930 . S
C2249 C2247 1.419 . S
C2249 C2250 1.362 . S
C2250 H2242 0.930 . S
C2250 C2249 1.362 . S
C2250 C2253 1.409 . S
C2251 H2243 0.930 . S
C2251 C2252 1.355 . S
C2251 C2253 1.415 . S
C2252 C2251 1.355 . S
C2252 C2254 1.419 . S
C2253 C2248 1.425 . S
C2253 C2250 1.409 . S
C2253 C2251 1.415 . S
C2254 H2244 0.930 . S
C2254 C2252 1.419 . S
C2254 C2255 1.362 . S
C2255 H2245 0.930 . S
C2255 C2248 1.409 . S
C2255 C2254 1.362 . S
H2256 C2262 0.930 . S
H2257 C2265 0.930 . S
H2258 C2266 0.930 . S
H2259 C2267 0.930 . S
H2260 C2270 0.930 . S
H2261 C2271 0.930 . S
C2262 H2256 0.930 . S
C2262 C2263 1.355 . S
C2262 C2264 1.415 . S
C2263 C2262 1.355 . S
C2263 C2265 1.419 . S
C2264 C2262 1.415 . S
C2264 C2269 1.425 . S
C2264 C2271 1.409 . S
C2265 H2257 0.930 . S
C2265 C2263 1.419 . S
C2265 C2266 1.362 . S
C2266 H2258 0.930 . S
C2266 C2265 1.362 . S
C2266 C2269 1.409 . S
C2267 H2259 0.930 . S
C2267 C2268 1.355 . S
C2267 C2269 1.415 . S
C2268 C2267 1.355 . S
C2268 C2270 1.419 . S
C2269 C2264 1.425 . S
C2269 C2266 1.409 . S
C2269 C2267 1.415 . S
C2270 H2260 0.930 . S
C2270 C2268 1.419 . S
C2270 C2271 1.362 . S
C2271 H2261 0.930 . S
C2271 C2264 1.409 . S
C2271 C2270 1.362 . S
H2272 C2278 0.930 . S
H2273 C2281 0.930 . S
H2274 C2282 0.930 . S
H2275 C2283 0.930 . S
H2276 C2286 0.930 . S
H2277 C2287 0.930 . S
C2278 H2272 0.930 . S
C2278 C2279 1.355 . S
C2278 C2280 1.415 . S
C2279 C2278 1.355 . S
C2279 C2281 1.419 . S
C2280 C2278 1.415 . S
C2280 C2285 1.425 . S
C2280 C2287 1.409 . S
C2281 H2273 0.930 . S
C2281 C2279 1.419 . S
C2281 C2282 1.362 . S
C2282 H2274 0.930 . S
C2282 C2281 1.362 . S
C2282 C2285 1.409 . S
C2283 H2275 0.930 . S
C2283 C2284 1.355 . S
C2283 C2285 1.415 . S
C2284 C2283 1.355 . S
C2284 C2286 1.419 . S
C2285 C2280 1.425 . S
C2285 C2282 1.409 . S
C2285 C2283 1.415 . S
C2286 H2276 0.930 . S
C2286 C2284 1.419 . S
C2286 C2287 1.362 . S
C2287 H2277 0.930 . S
C2287 C2280 1.409 . S
C2287 C2286 1.362 . S
H2288 C2294 0.930 . S
H2289 C2297 0.930 . S
H2290 C2298 0.930 . S
H2291 C2299 0.930 . S
H2292 C2302 0.930 . S
H2293 C2303 0.930 . S
C2294 H2288 0.930 . S
C2294 C2295 1.355 . S
C2294 C2296 1.415 . S
C2295 C2294 1.355 . S
C2295 C2297 1.419 . S
C2296 C2294 1.415 . S
C2296 C2301 1.425 . S
C2296 C2303 1.409 . S
C2297 H2289 0.930 . S
C2297 C2295 1.419 . S
C2297 C2298 1.362 . S
C2298 H2290 0.930 . S
C2298 C2297 1.362 . S
C2298 C2301 1.409 . S
C2299 H2291 0.930 . S
C2299 C2300 1.355 . S
C2299 C2301 1.415 . S
C2300 C2299 1.355 . S
C2300 C2302 1.419 . S
C2301 C2296 1.425 . S
C2301 C2298 1.409 . S
C2301 C2299 1.415 . S
C2302 H2292 0.930 . S
C2302 C2300 1.419 . S
C2302 C2303 1.362 . S
C2303 H2293 0.930 . S
C2303 C2296 1.409 . S
C2303 C2302 1.362 . S
H2304 C2310 0.930 . S
H2305 C2313 0.930 . S
H2306 C2314 0.930 . S
H2307 C2315 0.930 . S
H2308 C2318 0.930 . S
H2309 C2319 0.930 . S
C2310 H2304 0.930 . S
C2310 C2311 1.355 . S
C2310 C2312 1.415 . S
C2311 C2310 1.355 . S
C2311 C2313 1.419 . S
C2312 C2310 1.415 . S
C2312 C2317 1.425 . S
C2312 C2319 1.409 . S
C2313 H2305 0.930 . S
C2313 C2311 1.419 . S
C2313 C2314 1.362 . S
C2314 H2306 0.930 . S
C2314 C2313 1.362 . S
C2314 C2317 1.409 . S
C2315 H2307 0.930 . S
C2315 C2316 1.355 . S
C2315 C2317 1.415 . S
C2316 C2315 1.355 . S
C2316 C2318 1.419 . S
C2317 C2312 1.425 . S
C2317 C2314 1.409 . S
C2317 C2315 1.415 . S
C2318 H2308 0.930 . S
C2318 C2316 1.419 . S
C2318 C2319 1.362 . S
C2319 H2309 0.930 . S
C2319 C2312 1.409 . S
C2319 C2318 1.362 . S
H2320 C2326 0.930 . S
H2321 C2329 0.930 . S
H2322 C2330 0.930 . S
H2323 C2331 0.930 . S
H2324 C2334 0.930 . S
H2325 C2335 0.930 . S
C2326 H2320 0.930 . S
C2326 C2327 1.355 . S
C2326 C2328 1.415 . S
C2327 C2326 1.355 . S
C2327 C2329 1.419 . S
C2328 C2326 1.415 . S
C2328 C2333 1.425 . S
C2328 C2335 1.409 . S
C2329 H2321 0.930 . S
C2329 C2327 1.419 . S
C2329 C2330 1.362 . S
C2330 H2322 0.930 . S
C2330 C2329 1.362 . S
C2330 C2333 1.409 . S
C2331 H2323 0.930 . S
C2331 C2332 1.355 . S
C2331 C2333 1.415 . S
C2332 C2331 1.355 . S
C2332 C2334 1.419 . S
C2333 C2328 1.425 . S
C2333 C2330 1.409 . S
C2333 C2331 1.415 . S
C2334 H2324 0.930 . S
C2334 C2332 1.419 . S
C2334 C2335 1.362 . S
C2335 H2325 0.930 . S
C2335 C2328 1.409 . S
C2335 C2334 1.362 . S
C1063 N2 0.587 . S
C1068 N332 0.660 . S
C1079 N365 0.573 . S
C1084 N35 0.545 . S
C1095 N266 0.669 . S
C1100 N68 0.595 . S
C1111 N101 0.550 . S
C1116 N299 0.553 . S
C1127 N134 0.564 . S
C1132 N464 0.545 . S
C1143 N167 0.607 . S
C1148 N497 0.683 . S
C1159 N398 0.799 . S
C1164 N200 0.809 . S
C1175 N431 0.785 . S
C1180 N233 0.810 . S
C1191 N860 0.732 . S
C1196 N530 0.788 . S
C1207 N893 0.786 . S
C1212 N563 0.729 . S
C1223 N596 0.656 . S
C1228 N794 0.584 . S
C1239 N827 0.707 . S
C1244 N629 0.772 . S
C1255 N662 0.726 . S
C1260 N992 0.784 . S
C1271 N1025 0.597 . S
C1276 N695 0.672 . S
C1287 N728 0.806 . S
C1292 N926 0.770 . S
C1303 N761 0.585 . S
C1308 N959 0.658 . S
C1319 C7 1.816 . S
C1324 C832 1.819 . S
C1335 C40 1.803 . S
C1340 C799 1.807 . S
C1351 C73 1.760 . S
C1356 C898 1.759 . S
C1367 C106 1.768 . S
C1372 C865 1.772 . S
C1383 C139 1.759 . S
C1388 C964 1.758 . S
C1399 C172 1.830 . S
C1404 C931 1.829 . S
C1415 C1030 1.801 . S
C1420 C205 1.797 . S
C1431 C238 1.802 . S
C1436 C997 1.806 . S
C1447 C568 1.767 . S
C1452 C271 1.770 . S
C1463 C304 1.830 . S
C1468 C535 1.830 . S
C1479 C337 1.828 . S
C1484 C634 1.829 . S
C1495 C601 1.831 . S
C1500 C370 1.831 . S
C1511 C700 1.757 . S
C1516 C403 1.759 . S
C1527 C667 1.826 . S
C1532 C436 1.823 . S
C1543 C469 1.831 . S
C1548 C766 1.831 . S
C1559 C733 1.831 . S
C1564 C502 1.830 . S
C1575 N79 1.085 . S
C1580 N13 1.091 . S
C1591 N46 1.102 . S
C1596 N112 1.061 . S
C1607 N211 1.103 . S
C1612 N145 1.060 . S
C1623 N178 1.060 . S
C1628 N244 1.107 . S
C1639 N277 1.060 . S
C1644 N343 1.105 . S
C1655 N310 1.066 . S
C1660 N376 1.106 . S
C1671 N475 1.060 . S
C1676 N409 1.107 . S
C1687 N508 1.093 . S
C1692 N442 1.067 . S
C1703 N607 1.064 . S
C1708 N541 1.097 . S
C1719 N574 1.066 . S
C1724 N640 1.106 . S
C1735 N673 1.060 . S
C1740 N739 1.103 . S
C1751 N706 1.084 . S
C1756 N772 1.075 . S
C1767 N871 1.099 . S
C1772 N805 1.063 . S
C1783 N838 1.107 . S
C1788 N904 1.062 . S
C1799 N937 1.088 . S
C1804 N1003 1.088 . S
C1815 N1036 1.060 . S
C1820 N970 1.105 . S
C1831 C747 1.941 . S
C1836 C18 1.930 . S
C1847 C516 1.932 . S
C1852 C51 1.927 . S
C1863 C84 1.936 . S
C1868 C945 1.944 . S
C1879 C186 1.929 . S
C1884 C117 1.942 . S
C1895 C150 1.938 . S
C1900 C615 1.943 . S
C1911 C183 1.936 . S
C1916 C384 1.925 . S
C1927 C813 1.943 . S
C1932 C216 1.933 . S
C1943 C249 1.929 . S
C1948 C54 1.927 . S
C1959 C282 1.934 . S
C1964 C1011 1.943 . S
C1975 C252 1.943 . S
C1980 C315 1.933 . S
C1991 C348 1.938 . S
C1996 C681 1.926 . S
C2007 C381 1.944 . S
C2012 C450 1.933 . S
C2023 C879 1.925 . S
C2028 C414 1.933 . S
C2039 C447 1.940 . S
C2044 C120 1.927 . S
C2055 C549 1.943 . S
C2060 C480 1.932 . S
C2071 C318 1.933 . S
C2076 C513 1.944 . S
C2087 C219 1.927 . S
C2092 C546 1.940 . S
C2103 C579 1.933 . S
C2108 C1044 1.943 . S
C2119 C612 1.928 . S
C2124 C417 1.930 . S
C2135 C645 1.930 . S
C2140 C714 1.941 . S
C2151 C678 1.939 . S
C2156 C87 1.943 . S
C2167 C711 1.943 . S
C2172 C912 1.931 . S
C2183 C285 1.942 . S
C2188 C744 1.932 . S
C2199 C582 1.926 . S
C2204 C777 1.938 . S
C2215 C483 1.936 . S
C2220 C810 1.944 . S
C2231 C843 1.936 . S
C2236 C780 1.925 . S
C2247 C153 1.940 . S
C2252 C876 1.929 . S
C2263 C978 1.930 . S
C2268 C909 1.943 . S
C2279 C942 1.937 . S
C2284 C351 1.925 . S
C2295 C975 1.928 . S
C2300 C648 1.938 . S
C2311 C21 1.926 . S
C2316 C1008 1.938 . S
C2327 C1041 1.942 . S
C2332 C846 1.941 . S
