# Generated by pormake.
# Topology zff, (5)-cn, num edge types: 1
# Building blocks:
#     Node 0, Type 0, BuildingBlock: BEQFEK_clean_sbu_0, # of connection points: 5
#     Node 1, Type 0, BuildingBlock: BEQFEK_clean_sbu_0, # of connection points: 5
#     Node 2, Type 0, BuildingBlock: BEQFEK_clean_sbu_0, # of connection points: 5
#     Node 3, Type 0, BuildingBlock: BEQFEK_clean_sbu_0, # of connection points: 5
#     Node 4, Type 0, BuildingBlock: BEQFEK_clean_sbu_0, # of connection points: 5
#     Node 5, Type 0, BuildingBlock: BEQFEK_clean_sbu_0, # of connection points: 5
#     Node 6, Type 0, BuildingBlock: BEQFEK_clean_sbu_0, # of connection points: 5
#     Node 7, Type 0, BuildingBlock: BEQFEK_clean_sbu_0, # of connection points: 5
#     Node 8, Type 0, BuildingBlock: BEQFEK_clean_sbu_0, # of connection points: 5
#     Node 9, Type 0, BuildingBlock: BEQFEK_clean_sbu_0, # of connection points: 5
#     Node 10, Type 0, BuildingBlock: BEQFEK_clean_sbu_0, # of connection points: 5
#     Node 11, Type 0, BuildingBlock: BEQFEK_clean_sbu_0, # of connection points: 5
#     Node 12, Type 0, BuildingBlock: BEQFEK_clean_sbu_0, # of connection points: 5
#     Node 13, Type 0, BuildingBlock: BEQFEK_clean_sbu_0, # of connection points: 5
#     Node 14, Type 0, BuildingBlock: BEQFEK_clean_sbu_0, # of connection points: 5
#     Node 15, Type 0, BuildingBlock: BEQFEK_clean_sbu_0, # of connection points: 5
#     Edge 16, Type (0, 0), BuildingBlock: TEMPAE_clean_linker_10, # of connection points: 2
#     Edge 17, Type (0, 0), BuildingBlock: TEMPAE_clean_linker_10, # of connection points: 2
#     Edge 18, Type (0, 0), BuildingBlock: TEMPAE_clean_linker_10, # of connection points: 2
#     Edge 19, Type (0, 0), BuildingBlock: TEMPAE_clean_linker_10, # of connection points: 2
#     Edge 20, Type (0, 0), BuildingBlock: TEMPAE_clean_linker_10, # of connection points: 2
#     Edge 21, Type (0, 0), BuildingBlock: TEMPAE_clean_linker_10, # of connection points: 2
#     Edge 22, Type (0, 0), BuildingBlock: TEMPAE_clean_linker_10, # of connection points: 2
#     Edge 23, Type (0, 0), BuildingBlock: TEMPAE_clean_linker_10, # of connection points: 2
#     Edge 24, Type (0, 0), BuildingBlock: TEMPAE_clean_linker_10, # of connection points: 2
#     Edge 25, Type (0, 0), BuildingBlock: TEMPAE_clean_linker_10, # of connection points: 2
#     Edge 26, Type (0, 0), BuildingBlock: TEMPAE_clean_linker_10, # of connection points: 2
#     Edge 27, Type (0, 0), BuildingBlock: TEMPAE_clean_linker_10, # of connection points: 2
#     Edge 28, Type (0, 0), BuildingBlock: TEMPAE_clean_linker_10, # of connection points: 2
#     Edge 29, Type (0, 0), BuildingBlock: TEMPAE_clean_linker_10, # of connection points: 2
#     Edge 30, Type (0, 0), BuildingBlock: TEMPAE_clean_linker_10, # of connection points: 2
#     Edge 31, Type (0, 0), BuildingBlock: TEMPAE_clean_linker_10, # of connection points: 2
#     Edge 32, Type (0, 0), BuildingBlock: TEMPAE_clean_linker_10, # of connection points: 2
#     Edge 33, Type (0, 0), BuildingBlock: TEMPAE_clean_linker_10, # of connection points: 2
#     Edge 34, Type (0, 0), BuildingBlock: TEMPAE_clean_linker_10, # of connection points: 2
#     Edge 35, Type (0, 0), BuildingBlock: TEMPAE_clean_linker_10, # of connection points: 2
#     Edge 36, Type (0, 0), BuildingBlock: TEMPAE_clean_linker_10, # of connection points: 2
#     Edge 37, Type (0, 0), BuildingBlock: TEMPAE_clean_linker_10, # of connection points: 2
#     Edge 38, Type (0, 0), BuildingBlock: TEMPAE_clean_linker_10, # of connection points: 2
#     Edge 39, Type (0, 0), BuildingBlock: TEMPAE_clean_linker_10, # of connection points: 2
#     Edge 40, Type (0, 0), BuildingBlock: TEMPAE_clean_linker_10, # of connection points: 2
#     Edge 41, Type (0, 0), BuildingBlock: TEMPAE_clean_linker_10, # of connection points: 2
#     Edge 42, Type (0, 0), BuildingBlock: TEMPAE_clean_linker_10, # of connection points: 2
#     Edge 43, Type (0, 0), BuildingBlock: TEMPAE_clean_linker_10, # of connection points: 2
#     Edge 44, Type (0, 0), BuildingBlock: TEMPAE_clean_linker_10, # of connection points: 2
#     Edge 45, Type (0, 0), BuildingBlock: TEMPAE_clean_linker_10, # of connection points: 2
#     Edge 46, Type (0, 0), BuildingBlock: TEMPAE_clean_linker_10, # of connection points: 2
#     Edge 47, Type (0, 0), BuildingBlock: TEMPAE_clean_linker_10, # of connection points: 2
#     Edge 48, Type (0, 0), BuildingBlock: TEMPAE_clean_linker_10, # of connection points: 2
#     Edge 49, Type (0, 0), BuildingBlock: TEMPAE_clean_linker_10, # of connection points: 2
#     Edge 50, Type (0, 0), BuildingBlock: TEMPAE_clean_linker_10, # of connection points: 2
#     Edge 51, Type (0, 0), BuildingBlock: TEMPAE_clean_linker_10, # of connection points: 2
#     Edge 52, Type (0, 0), BuildingBlock: TEMPAE_clean_linker_10, # of connection points: 2
#     Edge 53, Type (0, 0), BuildingBlock: TEMPAE_clean_linker_10, # of connection points: 2
#     Edge 54, Type (0, 0), BuildingBlock: TEMPAE_clean_linker_10, # of connection points: 2
#     Edge 55, Type (0, 0), BuildingBlock: TEMPAE_clean_linker_10, # of connection points: 2
# Relax obj value: 0.062
# Max RMSD: 0.101
# Mean RMSD: 0.101
data_MOF--net-zff--node1-BEQFEK_clean_sbu_0--edge1-TEMPAE_clean_linker_10
_symmetry_space_group_name_H-M    P1
_symmetry_Int_Tables_number       1
_symmetry_cell_setting            triclinic
loop_
_symmetry_equiv_pos_as_xyz
'x, y, z'
_cell_length_a     37.419572
_cell_length_b     37.453324
_cell_length_c     73.984866
_cell_angle_alpha  89.970191
_cell_angle_beta   90.033443
_cell_angle_gamma 90.031347
loop_
_atom_site_label
_atom_site_type_symbol
_atom_site_fract_x
_atom_site_fract_y
_atom_site_fract_z
_atom_type_partial_charge
Co0 Co 0.03959 0.26489 0.40443 0.0
Co1 Co 0.04209 0.27418 0.362 0.0
C2 C 0.09165 0.22472 0.38229 0.0
O3 O 0.07919 0.23282 0.39778 0.0
O4 O 0.07951 0.2385 0.36777 0.0
C5 C 0.05269 0.25937 0.44389 0.0
O6 O 0.08599 0.25076 0.44035 0.0
C7 C 0.07423 0.29932 0.32781 0.0
C8 C 0.02725 0.2994 0.30971 0.0
C9 C 0.06337 0.30745 0.3103 0.0
N10 N 0.04577 0.28716 0.33706 0.0
N11 N 0.01788 0.28695 0.32609 0.0
C12 C 0.11011 0.30559 0.33613 0.0
H13 H 0.10779 0.30734 0.35107 0.0
H14 H 0.12228 0.3304 0.33069 0.0
H15 H 0.12791 0.28286 0.33279 0.0
C16 C 0.04565 0.34257 0.40298 0.0
N17 N 0.04692 0.31062 0.3948 0.0
N18 N 0.04547 0.31507 0.37717 0.0
C19 C 0.04194 0.35014 0.37358 0.0
C20 C 0.04193 0.36876 0.38986 0.0
C21 C 0.04549 0.34744 0.42306 0.0
H22 H 0.06614 0.33006 0.42924 0.0
H23 H 0.0509 0.37561 0.42682 0.0
H24 H 0.01908 0.33934 0.42851 0.0
O25 O 0.99373 0.24629 0.39513 0.0
O26 O -0.00494 0.25157 0.36523 0.0
H27 H 0.01952 0.39112 0.3561 0.0
H28 H 0.05687 0.36665 0.34698 0.0
C29 C 0.03231 0.36449 0.3553 0.0
H30 H 0.01358 0.34597 0.34847 0.0
H31 H 0.99223 0.27909 0.32991 0.0
O32 O 0.03151 0.2665 0.43096 0.0
C33 C 0.97922 0.24248 0.3797 0.0
Co34 Co 0.7223 0.0381 0.40847 0.0
Co35 Co 0.70931 0.04416 0.36625 0.0
C36 C 0.75932 0.0931 0.38671 0.0
O37 O 0.75323 0.07831 0.40191 0.0
O38 O 0.74402 0.08289 0.37217 0.0
C39 C 0.73365 0.04678 0.44783 0.0
O40 O 0.74723 0.07845 0.44447 0.0
C41 C 0.68406 0.07671 0.33193 0.0
C42 C 0.67973 0.02888 0.3146 0.0
C43 C 0.67426 0.06544 0.31471 0.0
N44 N 0.69468 0.04803 0.3415 0.0
N45 N 0.69238 0.01963 0.33096 0.0
C46 C 0.68102 0.11345 0.33967 0.0
H47 H 0.67922 0.11219 0.35464 0.0
H48 H 0.65732 0.12739 0.33405 0.0
H49 H 0.70524 0.12896 0.33601 0.0
C50 C 0.644 0.04185 0.40832 0.0
N51 N 0.67542 0.04447 0.39964 0.0
N52 N 0.66965 0.0452 0.38209 0.0
C53 C 0.63436 0.04185 0.37901 0.0
C54 C 0.61687 0.03965 0.39557 0.0
C55 C 0.64048 0.03956 0.42844 0.0
H56 H 0.65835 0.05948 0.43487 0.0
H57 H 0.61256 0.04454 0.43282 0.0
H58 H 0.64887 0.01262 0.43302 0.0
O59 O 0.74342 -0.00516 0.39803 0.0
O60 O 0.73295 -0.00273 0.36849 0.0
H61 H 0.59141 0.02374 0.36133 0.0
H62 H 0.6187 0.05968 0.35272 0.0
C63 C 0.61891 0.03457 0.36068 0.0
H64 H 0.63585 0.01491 0.35351 0.0
H65 H 0.69869 -0.00625 0.33507 0.0
O66 O 0.7219 0.02793 0.43485 0.0
C67 C 0.74553 0.98147 0.38229 0.0
Co68 Co 0.94019 0.72084 0.40419 0.0
Co69 Co 0.94276 0.71038 0.36191 0.0
C70 C 0.88926 0.75846 0.38086 0.0
O71 O 0.89922 0.75017 0.39678 0.0
O72 O 0.90456 0.74575 0.3669 0.0
C73 C 0.95755 0.74546 0.43939 0.0
O74 O 0.96387 0.77506 0.4304 0.0
C75 C 0.91176 0.6845 0.32776 0.0
C76 C 0.95728 0.69043 0.309 0.0
C77 C 0.92191 0.67944 0.30982 0.0
N78 N 0.93991 0.69753 0.33696 0.0
N79 N 0.967 0.70106 0.32565 0.0
C80 C 0.87572 0.67885 0.33603 0.0
H81 H 0.87278 0.69511 0.34846 0.0
H82 H 0.87282 0.65038 0.3399 0.0
H83 H 0.85428 0.68575 0.32626 0.0
C84 C 0.93836 0.64259 0.40283 0.0
N85 N 0.93639 0.67445 0.39455 0.0
N86 N 0.93897 0.66985 0.37697 0.0
C87 C 0.94396 0.63494 0.37351 0.0
C88 C 0.94361 0.61645 0.38981 0.0
C89 C 0.93757 0.6378 0.42291 0.0
H90 H 0.91648 0.65499 0.42883 0.0
H91 H 0.93235 0.60956 0.42663 0.0
H92 H 0.96366 0.64617 0.42867 0.0
O93 O 0.9851 0.74346 0.39563 0.0
O94 O 0.98948 0.73267 0.36616 0.0
H95 H 0.97314 0.64058 0.34869 0.0
H96 H 0.97032 0.59537 0.35668 0.0
C97 C 0.95556 0.6209 0.35547 0.0
H98 H 0.93166 0.61654 0.34688 0.0
H99 H 0.99212 0.71078 0.32931 0.0
O100 O 0.945 0.71868 0.43094 0.0
C101 C 0.00204 0.74549 0.38074 0.0
Co102 Co 0.26319 0.9407 0.40658 0.0
Co103 Co 0.27481 0.94332 0.36439 0.0
C104 C 0.22641 0.88941 0.3832 0.0
O105 O 0.23429 0.89949 0.39917 0.0
O106 O 0.23949 0.90457 0.36924 0.0
C107 C 0.24934 0.93113 0.44573 0.0
O108 O 0.22937 0.90332 0.44182 0.0
C109 C 0.29963 0.91357 0.3297 0.0
C110 C 0.30283 0.96206 0.31276 0.0
C111 C 0.30889 0.92558 0.31256 0.0
N112 N 0.28866 0.9417 0.33953 0.0
N113 N 0.2903 0.97053 0.32925 0.0
C114 C 0.30363 0.87667 0.33715 0.0
H115 H 0.30559 0.87749 0.35212 0.0
H116 H 0.32758 0.86347 0.33137 0.0
H117 H 0.27975 0.86071 0.33343 0.0
C118 C 0.34146 0.93852 0.40585 0.0
N119 N 0.30984 0.93711 0.39727 0.0
N120 N 0.31506 0.93991 0.37976 0.0
C121 C 0.35018 0.94459 0.37663 0.0
C122 C 0.36815 0.94382 0.39311 0.0
C123 C 0.34557 0.93646 0.42595 0.0
H124 H 0.32755 0.91556 0.43143 0.0
H125 H 0.37354 0.93018 0.42981 0.0
H126 H 0.33781 0.96241 0.43201 0.0
O127 O 0.23999 0.98496 0.3978 0.0
O128 O 0.25185 0.98967 0.36847 0.0
H129 H 0.39165 0.96827 0.35983 0.0
H130 H 0.36682 0.93203 0.34974 0.0
C131 C 0.36492 0.95575 0.35866 0.0
H132 H 0.34664 0.97526 0.35225 0.0
H133 H 0.28363 -0.00386 0.33363 0.0
O134 O 0.26515 0.94786 0.43312 0.0
C135 C 0.23826 0.00191 0.38292 0.0
Co136 Co 0.04144 0.72719 0.6067 0.0
Co137 Co 0.05257 0.71408 0.6487 0.0
C138 C 0.10042 0.76241 0.62714 0.0
O139 O 0.08395 0.7562 0.61239 0.0
O140 O 0.0911 0.74792 0.64201 0.0
C141 C 0.05169 0.72519 0.5671 0.0
O142 O 0.08595 0.72024 0.57007 0.0
C143 C 0.08568 0.6917 0.68382 0.0
C144 C 0.03695 0.68482 0.7003 0.0
C145 C 0.07384 0.68209 0.70103 0.0
N146 N 0.05695 0.6993 0.67349 0.0
N147 N 0.02801 0.69525 0.68351 0.0
C148 C 0.12345 0.69467 0.67735 0.0
H149 H 0.12536 0.71357 0.66589 0.0
H150 H 0.1326 0.66815 0.67256 0.0
H151 H 0.14127 0.70359 0.68847 0.0
C152 C 0.03734 0.64867 0.60749 0.0
N153 N 0.04543 0.67994 0.61548 0.0
N154 N 0.05149 0.67443 0.6328 0.0
C155 C 0.04825 0.63934 0.63628 0.0
C156 C 0.03867 0.62193 0.62046 0.0
C157 C 0.02278 0.64573 0.58869 0.0
H158 H 0.00169 0.66613 0.58663 0.0
H159 H 0.04457 0.65108 0.5789 0.0
H160 H 0.01138 0.61897 0.58591 0.0
O161 O 0.00026 0.75023 0.6179 0.0
O162 O 0.00575 0.73898 0.64727 0.0
H163 H 0.02834 0.63139 0.66307 0.0
H164 H 0.05247 0.59355 0.65406 0.0
C165 C 0.0515 0.62314 0.65471 0.0
H166 H 0.07626 0.63285 0.66127 0.0
H167 H 0.00206 0.69942 0.67886 0.0
O168 O 0.03052 0.72827 0.58042 0.0
C169 C 0.9888 0.75239 0.634 0.0
Co170 Co 0.26936 0.04282 0.60829 0.0
Co171 Co 0.27439 0.04969 0.65073 0.0
C172 C 0.22589 0.09601 0.62846 0.0
O173 O 0.23433 0.08058 0.61374 0.0
O174 O 0.23996 0.08731 0.64351 0.0
C175 C 0.24627 0.03442 0.57178 0.0
O176 O 0.21498 0.04222 0.57879 0.0
C177 C 0.2967 0.08289 0.68531 0.0
C178 C 0.289 0.03788 0.70421 0.0
C179 C 0.3001 0.07317 0.70343 0.0
N180 N 0.2845 0.05452 0.67599 0.0
N181 N 0.27985 0.0278 0.6874 0.0
C182 C 0.30319 0.1187 0.67695 0.0
H183 H 0.28759 0.12154 0.66428 0.0
H184 H 0.33192 0.12127 0.6735 0.0
H185 H 0.29597 0.14034 0.68652 0.0
C186 C 0.34668 0.04935 0.6116 0.0
N187 N 0.31402 0.05216 0.61895 0.0
N188 N 0.31681 0.05209 0.63669 0.0
C189 C 0.35144 0.04796 0.64121 0.0
C190 C 0.37155 0.04604 0.62542 0.0
C191 C 0.35331 0.04646 0.5917 0.0
H192 H 0.33657 0.06621 0.5844 0.0
H193 H 0.38187 0.05121 0.58843 0.0
H194 H 0.34557 0.01939 0.58702 0.0
O195 O 0.25204 -0.00317 0.6175 0.0
O196 O 0.25201 0.00218 0.64743 0.0
H197 H 0.38993 0.02512 0.65995 0.0
H198 H 0.36629 0.06393 0.6679 0.0
C199 C 0.36377 0.03897 0.65995 0.0
H200 H 0.34388 0.02152 0.66667 0.0
H201 H 0.27055 0.00258 0.68371 0.0
O202 O 0.2738 0.03511 0.58185 0.0
C203 C 0.24601 0.98422 0.63315 0.0
Co204 Co 0.94527 0.26946 0.60738 0.0
Co205 Co 0.94208 0.27694 0.64992 0.0
C206 C 0.89325 0.22783 0.62968 0.0
O207 O 0.90584 0.23671 0.61431 0.0
O208 O 0.90495 0.24128 0.64435 0.0
C209 C 0.95881 0.24517 0.57173 0.0
O210 O 0.96121 0.21435 0.58014 0.0
C211 C 0.9124 0.29554 0.68581 0.0
C212 C 0.96193 0.30567 0.70126 0.0
C213 C 0.92501 0.30637 0.70263 0.0
N214 N 0.94065 0.28905 0.67504 0.0
N215 N 0.97012 0.29468 0.68446 0.0
C216 C 0.87449 0.29484 0.67941 0.0
H217 H 0.8734 0.29686 0.66445 0.0
H218 H 0.85903 0.31698 0.68559 0.0
H219 H 0.86204 0.2692 0.68352 0.0
C220 C 0.94188 0.3473 0.60981 0.0
N221 N 0.93885 0.31492 0.61752 0.0
N222 N 0.93732 0.31842 0.63521 0.0
C223 C 0.93885 0.35341 0.6393 0.0
C224 C 0.9422 0.37282 0.62338 0.0
C225 C 0.95082 0.35268 0.59027 0.0
H226 H 0.97587 0.33816 0.58707 0.0
H227 H 0.92919 0.34119 0.58181 0.0
H228 H 0.95434 0.38122 0.58675 0.0
O229 O 0.99137 0.2504 0.61573 0.0
O230 O 0.98914 0.2544 0.64568 0.0
H231 H 0.96513 0.35879 0.66484 0.0
H232 H 0.9392 0.39748 0.65829 0.0
C233 C 0.94022 0.36788 0.65814 0.0
H234 H 0.91715 0.35758 0.66592 0.0
H235 H -0.00413 0.29207 0.67925 0.0
O236 O 0.95001 0.27273 0.5807 0.0
C237 C 0.00536 0.24585 0.63121 0.0
Co238 Co 0.72244 0.93953 0.61111 0.0
Co239 Co 0.71503 0.94576 0.6534 0.0
C240 C 0.76256 0.89122 0.63468 0.0
O241 O 0.75294 0.89939 0.61868 0.0
O242 O 0.75045 0.90771 0.64842 0.0
C243 C 0.7459 0.94698 0.57461 0.0
O244 O 0.77759 0.94489 0.58219 0.0
C245 C 0.69169 0.91637 0.68826 0.0
C246 C 0.70026 0.962 0.70666 0.0
C247 C 0.68857 0.92685 0.70625 0.0
N248 N 0.7043 0.94412 0.67863 0.0
N249 N 0.70942 0.97128 0.68972 0.0
C250 C 0.68472 0.8803 0.68031 0.0
H251 H 0.69997 0.87679 0.66759 0.0
H252 H 0.65589 0.87788 0.67702 0.0
H253 H 0.69193 0.85895 0.69006 0.0
C254 C 0.64417 0.93785 0.61401 0.0
N255 N 0.67667 0.93638 0.62171 0.0
N256 N 0.67337 0.94046 0.63929 0.0
C257 C 0.63874 0.94594 0.64331 0.0
C258 C 0.619 0.94436 0.6274 0.0
C259 C 0.63788 0.93559 0.59407 0.0
H260 H 0.65476 0.91419 0.58821 0.0
H261 H 0.60938 0.93 0.591 0.0
H262 H 0.64566 0.96126 0.58768 0.0
O263 O 0.74561 0.98504 0.61828 0.0
O264 O 0.73649 0.99229 0.64776 0.0
H265 H 0.64662 0.97681 0.66745 0.0
H266 H 0.60082 0.97443 0.66021 0.0
C267 C 0.62612 0.95921 0.66132 0.0
H268 H 0.62175 0.9361 0.67044 0.0
H269 H 0.7193 -0.00388 0.68572 0.0
O270 O 0.71825 0.94308 0.58439 0.0
C271 C 0.74841 0.00342 0.63268 0.0
Co272 Co 0.53095 0.76002 0.90624 0.0
Co273 Co 0.546 0.77744 0.86512 0.0
C274 C 0.58884 0.72345 0.88443 0.0
O275 O 0.57062 0.7278 0.89884 0.0
O276 O 0.58287 0.74161 0.8702 0.0
C277 C 0.54043 0.76565 0.9457 0.0
O278 O 0.57085 0.78196 0.94245 0.0
C279 C 0.58009 0.80229 0.83102 0.0
C280 C 0.53228 0.81985 0.81588 0.0
C281 C 0.56918 0.81787 0.81485 0.0
N282 N 0.55088 0.79575 0.84111 0.0
N283 N 0.52243 0.80588 0.83185 0.0
C284 C 0.61752 0.79659 0.83751 0.0
H285 H 0.61834 0.79618 0.85251 0.0
H286 H 0.63547 0.81783 0.83229 0.0
H287 H 0.62726 0.77046 0.83247 0.0
C288 C 0.53288 0.83879 0.90818 0.0
N289 N 0.53951 0.80789 0.89947 0.0
N290 N 0.54767 0.81489 0.8825 0.0
C291 C 0.54815 0.8505 0.88016 0.0
C292 C 0.53839 0.86671 0.89623 0.0
C293 C 0.51426 0.84129 0.92606 0.0
H294 H 0.49666 0.81785 0.92813 0.0
H295 H 0.53451 0.84221 0.93699 0.0
H296 H 0.49787 0.8659 0.92702 0.0
O297 O 0.48678 0.74525 0.89451 0.0
O298 O 0.49806 0.75435 0.86537 0.0
H299 H 0.53086 0.86457 0.85354 0.0
H300 H 0.55841 0.89793 0.86429 0.0
C301 C 0.55431 0.8688 0.86245 0.0
H302 H 0.57827 0.85743 0.85584 0.0
H303 H 0.49631 0.80411 0.83664 0.0
O304 O 0.52146 0.75468 0.93258 0.0
C305 C 0.47748 0.74416 0.87803 0.0
Co306 Co 0.22515 0.54115 0.90456 0.0
Co307 Co 0.21375 0.5426 0.8622 0.0
C308 C 0.25996 0.59618 0.88217 0.0
O309 O 0.25355 0.58302 0.89773 0.0
O310 O 0.24641 0.58302 0.86782 0.0
C311 C 0.23337 0.55291 0.94398 0.0
O312 O 0.24356 0.58575 0.94045 0.0
C313 C 0.18929 0.57395 0.82774 0.0
C314 C 0.18833 0.52653 0.80999 0.0
C315 C 0.18145 0.56288 0.81023 0.0
N316 N 0.20025 0.54542 0.8373 0.0
N317 N 0.1999 0.51725 0.82656 0.0
C318 C 0.18423 0.61027 0.83571 0.0
H319 H 0.18094 0.60835 0.8506 0.0
H320 H 0.16065 0.62365 0.82963 0.0
H321 H 0.20826 0.6267 0.83287 0.0
C322 C 0.14665 0.54102 0.90352 0.0
N323 N 0.17837 0.54406 0.89516 0.0
N324 N 0.17342 0.54309 0.87755 0.0
C325 C 0.13844 0.53824 0.87412 0.0
C326 C 0.12025 0.53684 0.8905 0.0
C327 C 0.14221 0.54066 0.92362 0.0
H328 H 0.15929 0.56163 0.92974 0.0
H329 H 0.11398 0.54536 0.92753 0.0
H330 H 0.15101 0.51442 0.92898 0.0
O331 O 0.24929 0.4985 0.89506 0.0
O332 O 0.23902 0.49689 0.86548 0.0
H333 H 0.09731 0.51664 0.8564 0.0
H334 H 0.12239 0.55397 0.84756 0.0
C335 C 0.12407 0.52923 0.85577 0.0
H336 H 0.14247 0.51048 0.8489 0.0
H337 H 0.20702 0.49154 0.83062 0.0
O338 O 0.2244 0.53242 0.93107 0.0
C339 C 0.25229 0.48346 0.87976 0.0
Co340 Co 0.45102 0.22252 0.90665 0.0
Co341 Co 0.44448 0.20774 0.86461 0.0
C342 C 0.3972 0.25993 0.88332 0.0
O343 O 0.41081 0.25362 0.89881 0.0
O344 O 0.40802 0.24422 0.86909 0.0
C345 C 0.43965 0.21689 0.94648 0.0
O346 O 0.40836 0.20207 0.94352 0.0
C347 C 0.41254 0.1864 0.82956 0.0
C348 C 0.46083 0.17074 0.81433 0.0
C349 C 0.42398 0.17303 0.813 0.0
N350 N 0.44138 0.19156 0.84013 0.0
N351 N 0.47015 0.18251 0.83084 0.0
C352 C 0.37492 0.19136 0.83589 0.0
H353 H 0.37358 0.18939 0.85084 0.0
H354 H 0.35701 0.17116 0.82967 0.0
H355 H 0.36556 0.2183 0.83183 0.0
C356 C 0.44934 0.14368 0.90731 0.0
N357 N 0.44463 0.17507 0.89873 0.0
N358 N 0.44044 0.16911 0.88129 0.0
C359 C 0.44113 0.13367 0.87837 0.0
C360 C 0.44706 0.11652 0.89469 0.0
C361 C 0.46293 0.14014 0.92628 0.0
H362 H 0.48153 0.1623 0.92944 0.0
H363 H 0.44002 0.14112 0.93575 0.0
H364 H 0.47705 0.11444 0.9284 0.0
O365 O 0.49609 0.23983 0.89644 0.0
O366 O 0.492 0.23044 0.86685 0.0
H367 H 0.4648 0.12287 0.85266 0.0
H368 H 0.43701 0.08715 0.86113 0.0
C369 C 0.43986 0.11658 0.8601 0.0
H370 H 0.41688 0.12729 0.85238 0.0
H371 H 0.49611 0.18371 0.83593 0.0
O372 O 0.45893 0.22648 0.9332 0.0
C373 C 0.50914 0.24135 0.88062 0.0
Co374 Co 0.76567 0.44897 0.90498 0.0
Co375 Co 0.7752 0.44239 0.86266 0.0
C376 C 0.72555 0.39497 0.88383 0.0
O377 O 0.73227 0.41027 0.89882 0.0
O378 O 0.7407 0.40435 0.86916 0.0
C379 C 0.75274 0.44017 0.9439 0.0
O380 O 0.73581 0.41049 0.93986 0.0
C381 C 0.80006 0.40821 0.82878 0.0
C382 C 0.79545 0.45315 0.80958 0.0
C383 C 0.80528 0.41752 0.8107 0.0
N384 N 0.788 0.4371 0.83773 0.0
N385 N 0.78527 0.46379 0.82614 0.0
C386 C 0.80469 0.37237 0.8374 0.0
H387 H 0.78863 0.37044 0.84995 0.0
H388 H 0.83318 0.36869 0.84112 0.0
H389 H 0.79682 0.35083 0.8279 0.0
C390 C 0.84331 0.44182 0.90377 0.0
N391 N 0.81141 0.44032 0.89551 0.0
N392 N 0.81605 0.44061 0.87788 0.0
C393 C 0.85121 0.44366 0.87434 0.0
C394 C 0.86971 0.44451 0.89067 0.0
C395 C 0.84791 0.44279 0.92387 0.0
H396 H 0.82935 0.42347 0.93027 0.0
H397 H 0.87576 0.43619 0.92781 0.0
H398 H 0.84115 0.46986 0.92891 0.0
O399 O 0.74788 0.49411 0.89502 0.0
O400 O 0.75153 0.48942 0.86514 0.0
H401 H 0.84676 0.46892 0.84838 0.0
H402 H 0.89181 0.466 0.85666 0.0
C403 C 0.8658 0.4519 0.85594 0.0
H404 H 0.86947 0.4266 0.84838 0.0
H405 H 0.77643 0.48933 0.82954 0.0
O406 O 0.76742 0.4582 0.93139 0.0
C407 C 0.74325 0.50687 0.87928 0.0
Co408 Co 0.5466 0.22183 0.10973 0.0
Co409 Co 0.54573 0.21144 0.15215 0.0
C410 C 0.59934 0.25858 0.13228 0.0
O411 O 0.58884 0.25002 0.11647 0.0
O412 O 0.58428 0.24637 0.14646 0.0
C413 C 0.5571 0.21852 0.06942 0.0
O414 O 0.59151 0.21279 0.07144 0.0
C415 C 0.57668 0.18733 0.18705 0.0
C416 C 0.52953 0.19103 0.20489 0.0
C417 C 0.56547 0.18198 0.20486 0.0
N418 N 0.54856 0.1987 0.17724 0.0
N419 N 0.52054 0.2009 0.18802 0.0
C420 C 0.6135 0.18339 0.17945 0.0
H421 H 0.61633 0.19912 0.16684 0.0
H422 H 0.61826 0.15492 0.17609 0.0
H423 H 0.63383 0.19211 0.18945 0.0
C424 C 0.54606 0.14305 0.11129 0.0
N425 N 0.5492 0.17506 0.11936 0.0
N426 N 0.54772 0.17073 0.13701 0.0
C427 C 0.54241 0.13594 0.14072 0.0
C428 C 0.54126 0.11719 0.12451 0.0
C429 C 0.5462 0.13771 0.09125 0.0
H430 H 0.56957 0.15165 0.08539 0.0
H431 H 0.54784 0.10903 0.0876 0.0
H432 H 0.5216 0.14946 0.08535 0.0
O433 O 0.50349 0.24605 0.1191 0.0
O434 O 0.49929 0.23471 0.14849 0.0
H435 H 0.51386 0.14132 0.16567 0.0
H436 H 0.51933 0.09582 0.15851 0.0
C437 C 0.53244 0.12233 0.15909 0.0
H438 H 0.55687 0.12032 0.16752 0.0
H439 H 0.49522 0.20917 0.18387 0.0
O440 O 0.53722 0.222 0.08323 0.0
C441 C 0.48695 0.24835 0.13406 0.0
Co442 Co 0.76442 0.54452 0.10748 0.0
Co443 Co 0.77653 0.54454 0.14965 0.0
C444 C 0.72659 0.59595 0.13121 0.0
O445 O 0.73457 0.58523 0.11536 0.0
O446 O 0.74029 0.58196 0.14531 0.0
C447 C 0.73838 0.53725 0.07103 0.0
O448 O 0.70674 0.54029 0.07856 0.0
C449 C 0.79748 0.57286 0.18536 0.0
C450 C 0.80967 0.52301 0.20012 0.0
C451 C 0.8098 0.55984 0.20183 0.0
N452 N 0.79067 0.54494 0.17446 0.0
N453 N 0.79753 0.51524 0.18346 0.0
C454 C 0.79564 0.61095 0.17935 0.0
H455 H 0.79697 0.61264 0.16438 0.0
H456 H 0.81771 0.62671 0.18543 0.0
H457 H 0.76988 0.62259 0.18385 0.0
C458 C 0.84287 0.54329 0.10827 0.0
N459 N 0.81131 0.54804 0.11664 0.0
N460 N 0.81651 0.54987 0.1342 0.0
C461 C 0.85174 0.54719 0.13755 0.0
C462 C 0.86957 0.5423 0.12129 0.0
C463 C 0.84614 0.53337 0.08873 0.0
H464 H 0.82924 0.50962 0.086 0.0
H465 H 0.83607 0.55567 0.08028 0.0
H466 H 0.87402 0.52722 0.08479 0.0
O467 O 0.74238 0.49973 0.11585 0.0
O468 O 0.75472 0.49729 0.14522 0.0
H469 H 0.85992 0.52112 0.16295 0.0
H470 H 0.8974 0.54794 0.15558 0.0
C471 C 0.86781 0.54624 0.15609 0.0
H472 H 0.85767 0.56905 0.16408 0.0
H473 H 0.79495 0.48967 0.17804 0.0
O474 O 0.76616 0.5404 0.08078 0.0
C475 C 0.74147 0.48363 0.13098 0.0
Co476 Co 0.44063 0.76308 0.10998 0.0
Co477 Co 0.44147 0.77431 0.15226 0.0
C478 C 0.38792 0.72671 0.13273 0.0
O479 O 0.39847 0.73491 0.11689 0.0
O480 O 0.40296 0.7392 0.14684 0.0
C481 C 0.42867 0.76514 0.0699 0.0
O482 O 0.39428 0.77019 0.07237 0.0
C483 C 0.4102 0.79998 0.18664 0.0
C484 C 0.45679 0.7964 0.20489 0.0
C485 C 0.42101 0.80607 0.20445 0.0
N486 N 0.43838 0.78769 0.17721 0.0
N487 N 0.46606 0.78553 0.18823 0.0
C488 C 0.37367 0.80417 0.17869 0.0
H489 H 0.3709 0.78779 0.1663 0.0
H490 H 0.36952 0.83251 0.17486 0.0
H491 H 0.3529 0.79637 0.18865 0.0
C492 C 0.44053 0.84196 0.11105 0.0
N493 N 0.43777 0.81005 0.11929 0.0
N494 N 0.43928 0.81471 0.13691 0.0
C495 C 0.44426 0.84961 0.14045 0.0
C496 C 0.44506 0.8681 0.12415 0.0
C497 C 0.44025 0.84694 0.09099 0.0
H498 H 0.41702 0.83264 0.0852 0.0
H499 H 0.43832 0.87554 0.0872 0.0
H500 H 0.46495 0.83533 0.08515 0.0
O501 O 0.48404 0.7393 0.11945 0.0
O502 O 0.48803 0.75122 0.14879 0.0
H503 H 0.46799 0.88989 0.1579 0.0
H504 H 0.42992 0.86651 0.16706 0.0
C505 C 0.45437 0.86366 0.15872 0.0
H506 H 0.47257 0.8446 0.16553 0.0
H507 H 0.49137 0.7767 0.18437 0.0
O508 O 0.44938 0.76246 0.08345 0.0
C509 C 0.50054 0.73742 0.13445 0.0
Co510 Co 0.22257 0.44241 0.10704 0.0
Co511 Co 0.21052 0.44048 0.14935 0.0
C512 C 0.26146 0.39095 0.13004 0.0
O513 O 0.25296 0.40167 0.11426 0.0
O514 O 0.24776 0.40449 0.14422 0.0
C515 C 0.2488 0.45621 0.07136 0.0
O516 O 0.2798 0.45747 0.07968 0.0
C517 C 0.18965 0.40932 0.18483 0.0
C518 C 0.18209 0.45832 0.20098 0.0
C519 C 0.17993 0.42142 0.20197 0.0
N520 N 0.19666 0.43785 0.1743 0.0
N521 N 0.19228 0.46698 0.18411 0.0
C522 C 0.19317 0.37148 0.17859 0.0
H523 H 0.21224 0.36955 0.16721 0.0
H524 H 0.16681 0.36187 0.17373 0.0
H525 H 0.20219 0.35403 0.18983 0.0
C526 C 0.1442 0.44283 0.10789 0.0
N527 N 0.17579 0.43782 0.11621 0.0
N528 N 0.17065 0.43551 0.13377 0.0
C529 C 0.13546 0.43835 0.13717 0.0
C530 C 0.11757 0.44366 0.12093 0.0
C531 C 0.14088 0.45332 0.08842 0.0
H532 H 0.15725 0.47753 0.08592 0.0
H533 H 0.15155 0.43153 0.07983 0.0
H534 H 0.11291 0.45894 0.08444 0.0
O535 O 0.24413 0.48684 0.1162 0.0
O536 O 0.23151 0.48838 0.14557 0.0
H537 H 0.12854 0.46417 0.16271 0.0
H538 H 0.09001 0.43879 0.15533 0.0
C539 C 0.11965 0.4395 0.15574 0.0
H540 H 0.12913 0.41622 0.16361 0.0
H541 H 0.19597 0.49285 0.17924 0.0
O542 O 0.221 0.44813 0.08034 0.0
C543 C 0.24482 0.50249 0.13145 0.0
C544 C 0.98342 0.57228 0.40487 0.0
C545 C 0.95562 0.57945 0.39271 0.0
C546 C -0.00219 0.53793 0.40633 0.0
C547 C 0.98471 0.51059 0.39495 0.0
C548 C 0.95609 0.51752 0.38293 0.0
C549 C 0.94156 0.55191 0.38212 0.0
C550 C 0.02776 0.5312 0.41959 0.0
C551 C 0.94177 0.48903 0.37042 0.0
C552 C 0.04525 0.43356 0.38259 0.0
C553 C 0.03008 0.40584 0.39266 0.0
C554 C 0.03113 0.46814 0.38346 0.0
C555 C 0.0018 0.47503 0.39503 0.0
C556 C 0.98758 0.44746 0.40591 0.0
C557 C 0.00155 0.41298 0.40436 0.0
C558 C 0.0466 0.49689 0.37147 0.0
C559 C 0.95683 0.45407 0.41869 0.0
H560 H -0.00517 0.59377 0.41279 0.0
H561 H 0.92001 0.55766 0.37276 0.0
H562 H 0.02177 0.50735 0.42796 0.0
H563 H 0.05287 0.52568 0.41214 0.0
H564 H 0.03233 0.55435 0.42869 0.0
H565 H 0.91906 0.49873 0.36209 0.0
H566 H 0.96333 0.47981 0.36125 0.0
H567 H 0.93275 0.46554 0.37833 0.0
H568 H 0.06735 0.42785 0.37357 0.0
H569 H 0.98927 0.39137 0.41187 0.0
H570 H 0.0549 0.5202 0.3797 0.0
H571 H 0.02589 0.50632 0.36184 0.0
H572 H 0.07003 0.48733 0.36363 0.0
H573 H 0.96237 0.47771 0.42728 0.0
H574 H 0.95156 0.43075 0.42759 0.0
H575 H 0.93224 0.45986 0.41084 0.0
C576 C 0.55176 0.04457 0.3892 0.0
C577 C 0.57968 0.02812 0.3986 0.0
C578 C 0.51712 0.03047 0.38979 0.0
C579 C 0.51026 0.0 0.40059 0.0
C580 C 0.53792 0.98472 0.41105 0.0
C581 C 0.57254 -0.00141 0.40966 0.0
C582 C 0.48835 0.04707 0.37819 0.0
C583 C 0.53128 0.95292 0.42316 0.0
C584 C 0.41248 0.98178 0.40931 0.0
C585 C 0.4053 0.95515 0.39651 0.0
C586 C 0.44705 -0.00463 0.41147 0.0
C587 C 0.47463 0.98296 0.40005 0.0
C588 C 0.4677 0.95549 0.38737 0.0
C589 C 0.43312 0.94145 0.38599 0.0
C590 C 0.45375 0.02385 0.42551 0.0
C591 C 0.49638 0.94207 0.37473 0.0
H592 H 0.55741 0.06758 0.38076 0.0
H593 H 0.59423 0.98544 0.41672 0.0
H594 H 0.47874 0.02727 0.36815 0.0
H595 H 0.46512 0.05476 0.38663 0.0
H596 H 0.49799 0.0711 0.37085 0.0
H597 H 0.55445 0.94723 0.4321 0.0
H598 H 0.50733 0.95748 0.43168 0.0
H599 H 0.526 0.92894 0.41478 0.0
H600 H 0.39086 0.99293 0.41723 0.0
H601 H 0.42747 0.92067 0.37619 0.0
H602 H 0.45904 0.04975 0.41875 0.0
H603 H 0.47773 0.01715 0.43367 0.0
H604 H 0.43062 0.02725 0.43476 0.0
H605 H 0.50605 0.96435 0.36612 0.0
H606 H 0.48665 0.92027 0.36582 0.0
H607 H 0.5196 0.93211 0.38256 0.0
C608 C 0.93746 0.43419 0.61053 0.0
C609 C 0.95513 0.40976 0.62169 0.0
C610 C 0.95039 0.46914 0.6086 0.0
C611 C 0.9813 0.47963 0.61828 0.0
C612 C -0.00071 0.45483 0.62947 0.0
C613 C 0.98613 0.42004 0.6309 0.0
C614 C 0.93087 0.49487 0.59638 0.0
C615 C 0.03211 0.46519 0.64017 0.0
C616 C 0.03538 0.56172 0.60618 0.0
C617 C 0.023 0.58599 0.61909 0.0
C618 C 0.02095 0.5272 0.60521 0.0
C619 C 0.99397 0.51701 0.6176 0.0
C620 C 0.98082 0.54188 0.63034 0.0
C621 C -0.00469 0.57625 0.63079 0.0
C622 C 0.03518 0.50141 0.5913 0.0
C623 C 0.9523 0.53185 0.64387 0.0
H624 H 0.91359 0.42589 0.60335 0.0
H625 H 0.00012 0.40074 0.63923 0.0
H626 H 0.91993 0.51727 0.60447 0.0
H627 H 0.94965 0.50653 0.58639 0.0
H628 H 0.90851 0.48187 0.589 0.0
H629 H 0.04312 0.4425 0.64808 0.0
H630 H 0.05321 0.47523 0.63095 0.0
H631 H 0.02546 0.48716 0.64965 0.0
H632 H 0.05664 0.56962 0.59706 0.0
H633 H 0.98522 0.59549 0.64047 0.0
H634 H 0.01281 0.48935 0.58357 0.0
H635 H 0.04952 0.47931 0.59816 0.0
H636 H 0.05383 0.51448 0.58167 0.0
H637 H 0.92835 0.52136 0.6368 0.0
H638 H 0.9441 0.55482 0.65241 0.0
H639 H 0.96234 0.5103 0.65283 0.0
C640 C 0.55489 0.94366 0.63627 0.0
C641 C 0.58188 0.95657 0.62494 0.0
C642 C 0.52045 0.95823 0.63563 0.0
C643 C 0.5129 0.98578 0.62309 0.0
C644 C 0.53973 -0.00212 0.61111 0.0
C645 C 0.57412 0.98342 0.61236 0.0
C646 C 0.49252 0.94499 0.64875 0.0
C647 C 0.53239 0.02674 0.59734 0.0
C648 C 0.4153 0.00245 0.61305 0.0
C649 C 0.40837 0.03247 0.62377 0.0
C650 C 0.44955 0.98761 0.61225 0.0
C651 C 0.47715 0.00261 0.62286 0.0
C652 C 0.47037 0.03309 0.63364 0.0
C653 C 0.43599 0.0479 0.63383 0.0
C654 C 0.45599 0.95547 0.60036 0.0
C655 C 0.49914 0.04944 0.64533 0.0
H656 H 0.56108 0.92289 0.64599 0.0
H657 H 0.59521 -0.00597 0.60388 0.0
H658 H 0.48363 0.96729 0.65753 0.0
H659 H 0.4687 0.93527 0.6413 0.0
H660 H 0.50265 0.92305 0.65747 0.0
H661 H 0.55538 0.03107 0.5881 0.0
H662 H 0.50856 0.01972 0.58914 0.0
H663 H 0.52644 0.05223 0.60433 0.0
H664 H 0.39371 0.9899 0.60564 0.0
H665 H 0.43041 0.07106 0.64216 0.0
H666 H 0.46268 0.93199 0.60886 0.0
H667 H 0.4791 0.96037 0.5913 0.0
H668 H 0.43232 0.94876 0.59195 0.0
H669 H 0.50886 0.02943 0.65524 0.0
H670 H 0.48951 0.07327 0.65281 0.0
H671 H 0.52231 0.05738 0.63689 0.0
C672 C 0.5376 0.92583 0.91155 0.0
C673 C 0.5244 0.90308 0.89815 0.0
C674 C 0.52459 0.96079 0.91309 0.0
C675 C 0.49777 0.97266 0.90099 0.0
C676 C 0.48351 0.94914 0.88789 0.0
C677 C 0.49701 0.9145 0.88667 0.0
C678 C 0.54024 0.9853 0.92722 0.0
C679 C 0.4548 0.96085 0.8748 0.0
C680 C 0.44362 0.05645 0.90891 0.0
C681 C 0.46048 0.08003 0.89701 0.0
C682 C 0.45628 0.02146 0.91093 0.0
C683 C 0.48648 0.0104 0.90087 0.0
C684 C 0.50427 0.03474 0.88934 0.0
C685 C 0.491 0.06938 0.88757 0.0
C686 C 0.43675 -0.00394 0.92332 0.0
C687 C 0.53664 0.02388 0.87845 0.0
H688 H 0.55848 0.91645 0.92054 0.0
H689 H 0.48628 0.8963 0.87664 0.0
H690 H 0.55512 0.00724 0.92051 0.0
H691 H 0.51863 -0.00227 0.93531 0.0
H692 H 0.55875 0.97107 0.9365 0.0
H693 H 0.44522 0.93857 0.86615 0.0
H694 H 0.43167 0.97205 0.88226 0.0
H695 H 0.46533 0.98229 0.86592 0.0
H696 H 0.42027 0.06524 0.91635 0.0
H697 H 0.50438 0.0882 0.87871 0.0
H698 H 0.45578 0.98311 0.93277 0.0
H699 H 0.4241 0.97457 0.91522 0.0
H700 H 0.41565 0.0097 0.93131 0.0
H701 H 0.55728 0.01212 0.88742 0.0
H702 H 0.54864 0.04674 0.87104 0.0
H703 H 0.52898 0.0031 0.86849 0.0
C704 C 0.93439 0.43975 0.88314 0.0
C705 C 0.9072 0.45541 0.89339 0.0
C706 C 0.96938 0.45294 0.88393 0.0
C707 C 0.97732 0.48171 0.89569 0.0
C708 C 0.95031 0.49634 0.90677 0.0
C709 C 0.91537 0.48345 0.90523 0.0
C710 C -0.00254 0.43715 0.87166 0.0
C711 C 0.95804 0.52641 0.9198 0.0
C712 C 0.07541 0.49709 0.90513 0.0
C713 C 0.08301 0.52532 0.89331 0.0
C714 C 0.04068 0.48353 0.90662 0.0
C715 C 0.01338 0.49783 0.89557 0.0
C716 C 0.02079 0.52683 0.88388 0.0
C717 C 0.05552 0.54064 0.88312 0.0
C718 C 0.03344 0.45329 0.91963 0.0
C719 C 0.9924 0.54237 0.87167 0.0
H720 H 0.92796 0.41797 0.87404 0.0
H721 H 0.89424 0.49621 0.91285 0.0
H722 H 0.00738 0.45796 0.86222 0.0
H723 H 0.02066 0.4278 0.8797 0.0
H724 H 0.98704 0.41438 0.8636 0.0
H725 H 0.93511 0.53183 0.92892 0.0
H726 H 0.98183 0.52003 0.92816 0.0
H727 H 0.96415 0.55116 0.91216 0.0
H728 H 0.09681 0.4848 0.91279 0.0
H729 H 0.06153 0.56265 0.87409 0.0
H730 H 0.02703 0.42864 0.91198 0.0
H731 H 0.00994 0.45959 0.9282 0.0
H732 H 0.05669 0.44777 0.92855 0.0
H733 H 0.98219 0.52138 0.86242 0.0
H734 H 0.00261 0.56496 0.86341 0.0
H735 H 0.96944 0.55192 0.8798 0.0
C736 C 0.48485 0.91308 0.10965 0.0
C737 C 0.45664 0.90535 0.12146 0.0
C738 C 0.49849 0.94778 0.10826 0.0
C739 C 0.48433 0.97491 0.11943 0.0
C740 C 0.45536 0.96737 0.13114 0.0
C741 C 0.4415 0.93266 0.13181 0.0
C742 C 0.52876 0.95512 0.09529 0.0
C743 C 0.44 -0.00444 0.14348 0.0
C744 C 0.54394 0.05255 0.13219 0.0
C745 C 0.52901 0.08013 0.12193 0.0
C746 C 0.52986 0.01793 0.13136 0.0
C747 C 0.50088 0.01078 0.11958 0.0
C748 C 0.48679 0.03824 0.10858 0.0
C749 C 0.50065 0.07281 0.11012 0.0
C750 C 0.54513 0.98938 0.14353 0.0
C751 C 0.45649 0.03133 0.09554 0.0
H752 H 0.49705 0.89179 0.1019 0.0
H753 H 0.41961 0.92652 0.14089 0.0
H754 H 0.52264 0.9789 0.08688 0.0
H755 H 0.55352 0.96106 0.10297 0.0
H756 H 0.53403 0.9321 0.08621 0.0
H757 H 0.41711 0.98542 0.15155 0.0
H758 H 0.461 0.00514 0.15291 0.0
H759 H 0.43092 0.01891 0.13549 0.0
H760 H 0.56595 0.05836 0.14126 0.0
H761 H 0.4886 0.09432 0.10245 0.0
H762 H 0.5544 0.96635 0.13538 0.0
H763 H 0.52403 0.97939 0.15279 0.0
H764 H 0.56788 -0.00069 0.15178 0.0
H765 H 0.46265 0.0079 0.08692 0.0
H766 H 0.45113 0.05468 0.08668 0.0
H767 H 0.43177 0.02502 0.10317 0.0
C768 C 0.92991 0.54306 0.10691 0.0
C769 C 0.90579 0.52765 0.11907 0.0
C770 C 0.96447 0.52911 0.10497 0.0
C771 C 0.97503 0.49974 0.11579 0.0
C772 C 0.95043 0.4838 0.12786 0.0
C773 C 0.91589 0.49765 0.12912 0.0
C774 C 0.98986 0.54614 0.09167 0.0
C775 C 0.96091 0.45287 0.13987 0.0
C776 C 0.0571 0.44351 0.1067 0.0
C777 C 0.08149 0.45869 0.11878 0.0
C778 C 0.02264 0.45776 0.10484 0.0
C779 C 0.01247 0.48721 0.11567 0.0
C780 C 0.03738 0.503 0.12762 0.0
C781 C 0.07182 0.48883 0.12882 0.0
C782 C -0.00309 0.44086 0.09166 0.0
C783 C 0.02732 0.53402 0.13964 0.0
H784 H 0.92179 0.56614 0.09907 0.0
H785 H 0.8968 0.48523 0.13817 0.0
H786 H 0.01197 0.55943 0.09906 0.0
H787 H 0.002 0.52546 0.08288 0.0
H788 H 0.97638 0.5663 0.08302 0.0
H789 H 0.93831 0.44327 0.1483 0.0
H790 H 0.97078 0.4303 0.13156 0.0
H791 H 0.98305 0.46107 0.14895 0.0
H792 H 0.06491 0.42034 0.09886 0.0
H793 H 0.09114 0.50107 0.13781 0.0
H794 H 0.98454 0.46163 0.08297 0.0
H795 H 0.975 0.42749 0.09915 0.0
H796 H 0.01016 0.42079 0.08288 0.0
H797 H 0.01712 0.55652 0.13138 0.0
H798 H 0.05022 0.54371 0.14786 0.0
H799 H 0.00553 0.52586 0.14894 0.0
C800 C 0.06757 0.34931 0.28428 0.0
C801 C 0.08395 0.32364 0.29529 0.0
C802 C 0.08556 0.36421 0.26947 0.0
C803 C 0.12065 0.35269 0.26533 0.0
C804 C 0.13739 0.32673 0.27641 0.0
C805 C 0.11886 0.31259 0.29133 0.0
C806 C 0.06689 0.39218 0.25818 0.0
C807 C 0.17454 0.31339 0.27226 0.0
C808 C 0.14797 0.36967 0.21661 0.0
C809 C 0.16796 0.40122 0.21818 0.0
C810 C 0.13401 0.35253 0.23197 0.0
C811 C 0.13937 0.36776 0.24928 0.0
C812 C 0.16007 0.3992 0.25099 0.0
C813 C 0.17414 0.41547 0.23544 0.0
C814 C 0.1122 0.31893 0.22957 0.0
C815 C 0.1661 0.41653 0.26916 0.0
H816 H 0.04058 0.35793 0.28732 0.0
H817 H 0.1313 0.29213 0.29954 0.0
H818 H 0.08322 0.4169 0.25768 0.0
H819 H 0.06383 0.38253 0.24409 0.0
H820 H 0.04002 0.39898 0.26354 0.0
H821 H 0.18416 0.29381 0.28244 0.0
H822 H 0.17484 0.30053 0.25876 0.0
H823 H 0.19357 0.33609 0.27175 0.0
H824 H 0.14173 0.35908 0.2034 0.0
H825 H 0.18945 0.43991 0.23679 0.0
H826 H 0.08376 0.32456 0.23269 0.0
H827 H 0.12136 0.29796 0.23909 0.0
H828 H 0.11386 0.30832 0.21557 0.0
H829 H 0.14024 0.42621 0.27462 0.0
H830 H 0.18487 0.43947 0.26836 0.0
H831 H 0.17685 0.39679 0.27894 0.0
C832 C 0.57349 0.17902 0.23835 0.0
C833 C 0.58547 0.16925 0.22105 0.0
C834 C 0.58924 0.16494 0.25403 0.0
C835 C 0.61801 0.14067 0.25246 0.0
C836 C 0.63114 0.13164 0.2351 0.0
C837 C 0.61441 0.14561 0.21961 0.0
C838 C 0.57403 0.17487 0.27225 0.0
C839 C 0.66199 0.10606 0.23285 0.0
C840 C 0.67338 0.1192 0.29439 0.0
C841 C 0.65902 0.08614 0.2995 0.0
C842 C 0.6604 0.13736 0.27907 0.0
C843 C 0.63213 0.12226 0.26885 0.0
C844 C 0.61718 0.08918 0.27422 0.0
C845 C 0.63108 0.07139 0.28935 0.0
C846 C 0.67745 0.17223 0.27357 0.0
C847 C 0.58656 0.07244 0.26394 0.0
H848 H 0.55114 0.19723 0.23966 0.0
H849 H 0.62321 0.13666 0.20648 0.0
H850 H 0.56209 0.15089 0.27867 0.0
H851 H 0.59554 0.18454 0.28133 0.0
H852 H 0.55314 0.19584 0.27123 0.0
H853 H 0.67173 0.10506 0.21867 0.0
H854 H 0.68452 0.11384 0.24178 0.0
H855 H 0.6535 0.07881 0.23688 0.0
H856 H 0.69551 0.13029 0.30198 0.0
H857 H 0.61992 0.04583 0.2933 0.0
H858 H 0.65694 0.19355 0.27278 0.0
H859 H 0.68933 0.16955 0.2599 0.0
H860 H 0.69868 0.18077 0.28314 0.0
H861 H 0.56378 0.09133 0.26321 0.0
H862 H 0.57716 0.04723 0.27028 0.0
H863 H 0.59492 0.06659 0.24987 0.0
C864 C 0.80728 0.61059 0.22397 0.0
C865 C 0.82415 0.57974 0.21751 0.0
C866 C 0.82064 0.62877 0.23917 0.0
C867 C 0.85174 0.61589 0.24794 0.0
C868 C 0.86888 0.58479 0.24138 0.0
C869 C 0.85467 0.56695 0.22636 0.0
C870 C 0.80133 0.66147 0.24597 0.0
C871 C 0.90237 0.57044 0.25017 0.0
C872 C 0.90967 0.67665 0.2767 0.0
C873 C 0.90116 0.6653 0.29426 0.0
C874 C 0.89287 0.66171 0.26152 0.0
C875 C 0.86676 0.63479 0.26393 0.0
C876 C 0.85724 0.62393 0.28162 0.0
C877 C 0.87486 0.63898 0.29656 0.0
C878 C 0.90408 0.67376 0.24288 0.0
C879 C 0.82942 0.59537 0.28475 0.0
H880 H 0.7832 0.62007 0.2174 0.0
H881 H 0.86779 0.54311 0.22136 0.0
H882 H 0.79259 0.65716 0.26013 0.0
H883 H 0.81965 0.68476 0.24598 0.0
H884 H 0.77754 0.66808 0.23762 0.0
H885 H 0.91273 0.54627 0.24323 0.0
H886 H 0.92356 0.59118 0.25009 0.0
H887 H 0.89696 0.5636 0.2645 0.0
H888 H 0.93001 0.69693 0.27478 0.0
H889 H 0.86895 0.62893 0.30991 0.0
H890 H 0.88037 0.68187 0.23487 0.0
H891 H 0.91695 0.65125 0.23563 0.0
H892 H 0.92316 0.69648 0.24334 0.0
H893 H 0.80483 0.60138 0.27693 0.0
H894 H 0.82225 0.59275 0.29926 0.0
H895 H 0.83968 0.56928 0.27993 0.0
C896 C 0.41197 0.81098 0.23779 0.0
C897 C 0.40077 0.82005 0.22025 0.0
C898 C 0.39579 0.82599 0.2531 0.0
C899 C 0.36734 0.85047 0.25091 0.0
C900 C 0.3551 0.85895 0.23331 0.0
C901 C 0.3723 0.84408 0.2182 0.0
C902 C 0.41005 0.81666 0.27161 0.0
C903 C 0.32462 0.88473 0.23041 0.0
C904 C 0.31002 0.87239 0.29198 0.0
C905 C 0.32423 0.90541 0.29724 0.0
C906 C 0.32356 0.85422 0.27683 0.0
C907 C 0.35231 0.86925 0.26694 0.0
C908 C 0.36697 0.9024 0.27239 0.0
C909 C 0.35245 0.92026 0.28734 0.0
C910 C 0.30674 0.81931 0.2712 0.0
C911 C 0.39808 0.91903 0.26247 0.0
H912 H 0.43399 0.79251 0.23957 0.0
H913 H 0.36417 0.85256 0.20486 0.0
H914 H 0.42139 0.8409 0.27806 0.0
H915 H 0.38811 0.807 0.28042 0.0
H916 H 0.43118 0.79586 0.27107 0.0
H917 H 0.31573 0.88549 0.21608 0.0
H918 H 0.30151 0.8773 0.23901 0.0
H919 H 0.33305 0.912 0.23441 0.0
H920 H 0.28767 0.86126 0.29939 0.0
H921 H 0.36347 0.9458 0.29142 0.0
H922 H 0.32716 0.79786 0.27106 0.0
H923 H 0.29609 0.82166 0.25725 0.0
H924 H 0.28465 0.81117 0.28034 0.0
H925 H 0.42098 0.90021 0.26223 0.0
H926 H 0.40701 0.94444 0.26876 0.0
H927 H 0.39054 0.92445 0.24823 0.0
C928 C 0.17961 0.61808 0.79089 0.0
C929 C 0.16707 0.58366 0.79482 0.0
C930 C 0.16696 0.6369 0.77572 0.0
C931 C 0.14101 0.62096 0.76434 0.0
C932 C 0.12819 0.58627 0.76834 0.0
C933 C 0.14161 0.56797 0.78342 0.0
C934 C 0.18167 0.6736 0.77173 0.0
C935 C 0.10018 0.56845 0.75671 0.0
C936 C 0.07995 0.67633 0.73447 0.0
C937 C 0.0941 0.66996 0.7172 0.0
C938 C 0.0958 0.66177 0.75001 0.0
C939 C 0.12676 0.64038 0.74829 0.0
C940 C 0.14207 0.63499 0.731 0.0
C941 C 0.12533 0.6495 0.71564 0.0
C942 C 0.07841 0.66793 0.76816 0.0
C943 C 0.1752 0.61251 0.72862 0.0
H944 H 0.2 0.62994 0.79938 0.0
H945 H 0.13189 0.54134 0.78642 0.0
H946 H 0.19459 0.6737 0.75823 0.0
H947 H 0.15963 0.69338 0.77128 0.0
H948 H 0.20154 0.68236 0.78197 0.0
H949 H 0.09268 0.54159 0.76184 0.0
H950 H 0.07579 0.58525 0.75615 0.0
H951 H 0.11018 0.56562 0.74268 0.0
H952 H 0.05581 0.69209 0.73583 0.0
H953 H 0.1359 0.64326 0.70242 0.0
H954 H 0.09833 0.67794 0.77804 0.0
H955 H 0.06792 0.64226 0.77346 0.0
H956 H 0.056 0.68731 0.76737 0.0
H957 H 0.19619 0.62082 0.73834 0.0
H958 H 0.18617 0.61441 0.7147 0.0
H959 H 0.16878 0.58413 0.73146 0.0
C960 C 0.41337 0.13029 0.78785 0.0
C961 C 0.40267 0.1609 0.79728 0.0
C962 C 0.39463 0.11847 0.77257 0.0
C963 C 0.36472 0.1381 0.76635 0.0
C964 C 0.35387 0.16922 0.77574 0.0
C965 C 0.37294 0.18021 0.79117 0.0
C966 C 0.40684 0.08488 0.76312 0.0
C967 C 0.32246 0.19111 0.76934 0.0
C968 C 0.34102 0.11913 0.71732 0.0
C969 C 0.31371 0.09373 0.71918 0.0
C970 C 0.35648 0.13542 0.73255 0.0
C971 C 0.34488 0.12552 0.75008 0.0
C972 C 0.31658 0.10076 0.75202 0.0
C973 C 0.30134 0.08525 0.73657 0.0
C974 C 0.38648 0.16187 0.72991 0.0
C975 C 0.30358 0.08924 0.77044 0.0
H976 H 0.43636 0.1153 0.79255 0.0
H977 H 0.36512 0.20438 0.79815 0.0
H978 H 0.38476 0.0651 0.76279 0.0
H979 H 0.41405 0.09098 0.74891 0.0
H980 H 0.43029 0.07246 0.76984 0.0
H981 H 0.31724 0.21443 0.77823 0.0
H982 H 0.32747 0.20087 0.75541 0.0
H983 H 0.29806 0.1743 0.76885 0.0
H984 H 0.3517 0.12511 0.70409 0.0
H985 H 0.28023 0.06566 0.73815 0.0
H986 H 0.41205 0.14976 0.73438 0.0
H987 H 0.38197 0.18603 0.73827 0.0
H988 H 0.38929 0.17011 0.71555 0.0
H989 H 0.325 0.07411 0.77745 0.0
H990 H 0.27942 0.07206 0.76964 0.0
H991 H 0.29732 0.11288 0.77889 0.0
C992 C 0.84389 0.36869 0.79758 0.0
C993 C 0.8187 0.39604 0.79522 0.0
C994 C 0.85878 0.35088 0.78265 0.0
C995 C 0.84894 0.36126 0.76491 0.0
C996 C 0.82295 0.38824 0.76245 0.0
C997 C 0.80811 0.40517 0.7776 0.0
C998 C 0.88624 0.32204 0.78585 0.0
C999 C 0.812 0.40042 0.74379 0.0
C1000 C 0.91812 0.3496 0.72789 0.0
C1001 C 0.90484 0.32009 0.71838 0.0
C1002 C 0.9001 0.36322 0.74299 0.0
C1003 C 0.86828 0.3465 0.74898 0.0
C1004 C 0.85493 0.31636 0.73957 0.0
C1005 C 0.8733 0.30359 0.72429 0.0
C1006 C 0.91499 0.39575 0.75244 0.0
C1007 C 0.82146 0.29747 0.74574 0.0
H1008 H 0.85333 0.36213 0.81097 0.0
H1009 H 0.78867 0.42625 0.7756 0.0
H1010 H 0.88001 0.29812 0.77758 0.0
H1011 H 0.91297 0.33178 0.78163 0.0
H1012 H 0.88766 0.31401 0.80029 0.0
H1013 H 0.78965 0.41993 0.74416 0.0
H1014 H 0.83514 0.41312 0.73695 0.0
H1015 H 0.80377 0.37725 0.73543 0.0
H1016 H 0.94248 0.36244 0.72333 0.0
H1017 H 0.86342 0.28027 0.71722 0.0
H1018 H 0.92094 0.38935 0.76676 0.0
H1019 H 0.89485 0.41749 0.75238 0.0
H1020 H 0.93981 0.40578 0.74596 0.0
H1021 H 0.82488 0.28801 0.75985 0.0
H1022 H 0.81473 0.27425 0.73704 0.0
H1023 H 0.79857 0.31628 0.74567 0.0
C1024 C 0.58002 0.86439 0.79155 0.0
C1025 C 0.59084 0.83255 0.79986 0.0
C1026 C 0.59845 0.87821 0.77663 0.0
C1027 C 0.62818 0.85942 0.76962 0.0
C1028 C 0.63949 0.82735 0.77804 0.0
C1029 C 0.6207 0.81432 0.79314 0.0
C1030 C 0.58576 0.91272 0.76822 0.0
C1031 C 0.67078 0.80639 0.7708 0.0
C1032 C 0.64785 0.88137 0.72053 0.0
C1033 C 0.67542 0.90654 0.72216 0.0
C1034 C 0.63357 0.86433 0.73582 0.0
C1035 C 0.64661 0.87324 0.75321 0.0
C1036 C 0.67494 0.89804 0.75494 0.0
C1037 C 0.68897 0.91437 0.7394 0.0
C1038 C 0.60337 0.83799 0.7334 0.0
C1039 C 0.6894 0.9085 0.77324 0.0
H1040 H 0.55699 0.8786 0.79676 0.0
H1041 H 0.62867 0.78929 0.79928 0.0
H1042 H 0.60795 0.93236 0.76781 0.0
H1043 H 0.57718 0.9079 0.75408 0.0
H1044 H 0.56304 0.92471 0.77574 0.0
H1045 H 0.6772 0.78286 0.77935 0.0
H1046 H 0.66473 0.79701 0.75691 0.0
H1047 H 0.69479 0.82369 0.76993 0.0
H1048 H 0.6362 0.87601 0.70743 0.0
H1049 H 0.71024 0.93384 0.74079 0.0
H1050 H 0.57828 0.84956 0.73882 0.0
H1051 H 0.60886 0.81315 0.74109 0.0
H1052 H 0.59902 0.83098 0.71897 0.0
H1053 H 0.66851 0.92304 0.78092 0.0
H1054 H 0.71339 0.92587 0.7722 0.0
H1055 H 0.69646 0.88437 0.78117 0.0
C1056 C 0.14412 0.19159 0.39451 0.0
C1057 C 0.11831 0.19605 0.38099 0.0
C1058 C 0.16727 0.16216 0.39425 0.0
C1059 C 0.16334 0.13605 0.38056 0.0
C1060 C 0.13786 0.14096 0.36664 0.0
C1061 C 0.11605 0.1713 0.36686 0.0
C1062 C 0.19505 0.15841 0.40894 0.0
C1063 C 0.13213 0.11315 0.35213 0.0
C1064 C 0.23309 0.06461 0.37206 0.0
C1065 C 0.21971 0.03642 0.38249 0.0
C1066 C 0.21572 0.09778 0.37179 0.0
C1067 C 0.18358 0.10213 0.38162 0.0
C1068 C 0.16987 0.07353 0.39205 0.0
C1069 C 0.18852 0.04116 0.39262 0.0
C1070 C 0.23172 0.12812 0.36106 0.0
C1071 C 0.13509 0.0768 0.40228 0.0
H1072 H 0.14596 0.21096 0.40536 0.0
H1073 H 0.0958 0.17464 0.3565 0.0
H1074 H 0.1875 0.1363 0.41816 0.0
H1075 H 0.22141 0.15162 0.40299 0.0
H1076 H 0.19785 0.18321 0.41705 0.0
H1077 H 0.11228 0.1218 0.34185 0.0
H1078 H 0.15765 0.10704 0.3452 0.0
H1079 H 0.12253 0.08799 0.35841 0.0
H1080 H 0.2575 0.06089 0.3644 0.0
H1081 H 0.17818 0.01917 0.4006 0.0
H1082 H 0.23518 0.15188 0.36985 0.0
H1083 H 0.2134 0.13589 0.34995 0.0
H1084 H 0.25804 0.121 0.35512 0.0
H1085 H 0.13703 0.09849 0.41244 0.0
H1086 H 0.12773 0.05168 0.40936 0.0
H1087 H 0.1132 0.08397 0.39283 0.0
C1088 C 0.93552 0.20132 0.36533 0.0
C1089 C 0.94349 0.22639 0.37875 0.0
C1090 C 0.90313 0.1825 0.36568 0.0
C1091 C 0.87785 0.19001 0.37941 0.0
C1092 C 0.88486 0.2172 0.39221 0.0
C1093 C 0.91798 0.23461 0.39193 0.0
C1094 C 0.89708 0.15295 0.35214 0.0
C1095 C 0.85807 0.22677 0.40667 0.0
C1096 C 0.78566 0.14894 0.37388 0.0
C1097 C 0.78812 0.11966 0.38559 0.0
C1098 C 0.81426 0.173 0.37216 0.0
C1099 C 0.84634 0.16649 0.38178 0.0
C1100 C 0.84884 0.13681 0.39356 0.0
C1101 C 0.81941 0.11415 0.39557 0.0
C1102 C 0.81026 0.2052 0.36005 0.0
C1103 C 0.88294 0.12833 0.40364 0.0
H1104 H 0.95544 0.19498 0.35519 0.0
H1105 H 0.92411 0.25443 0.40216 0.0
H1106 H 0.89701 0.12684 0.35925 0.0
H1107 H 0.87068 0.15597 0.34551 0.0
H1108 H 0.91808 0.15233 0.34153 0.0
H1109 H 0.86518 0.25204 0.41367 0.0
H1110 H 0.83095 0.22954 0.40075 0.0
H1111 H 0.85688 0.20513 0.41689 0.0
H1112 H 0.76132 0.15311 0.3662 0.0
H1113 H 0.82141 0.09116 0.40443 0.0
H1114 H 0.82928 0.20342 0.3486 0.0
H1115 H 0.81687 0.22986 0.36767 0.0
H1116 H 0.78277 0.20771 0.35452 0.0
H1117 H 0.90534 0.12526 0.39394 0.0
H1118 H 0.88076 0.10346 0.41176 0.0
H1119 H 0.88992 0.15061 0.41285 0.0
C1120 C 0.86394 0.80962 0.36379 0.0
C1121 C 0.86181 0.78617 0.37851 0.0
C1122 C 0.84189 0.83975 0.36281 0.0
C1123 C 0.81649 0.84582 0.37662 0.0
C1124 C 0.81226 0.82062 0.39073 0.0
C1125 C 0.83546 0.79132 0.39169 0.0
C1126 C 0.84784 0.86648 0.34781 0.0
C1127 C 0.78462 0.82565 0.40537 0.0
C1128 C 0.79577 0.94115 0.38946 0.0
C1129 C 0.76378 0.94715 0.38018 0.0
C1130 C 0.81348 0.90844 0.38808 0.0
C1131 C 0.79802 0.88069 0.37768 0.0
C1132 C 0.76543 0.88651 0.36841 0.0
C1133 C 0.74894 0.92009 0.36951 0.0
C1134 C 0.84878 0.90363 0.39771 0.0
C1135 C 0.74765 0.85709 0.35775 0.0
H1136 H 0.88443 0.80572 0.35362 0.0
H1137 H 0.83355 0.7729 0.40296 0.0
H1138 H 0.82212 0.87419 0.34149 0.0
H1139 H 0.85994 0.89108 0.35352 0.0
H1140 H 0.86588 0.856 0.33714 0.0
H1141 H 0.78076 0.80102 0.41351 0.0
H1142 H 0.79319 0.8474 0.41457 0.0
H1143 H 0.75857 0.83357 0.39942 0.0
H1144 H 0.80718 0.96234 0.39762 0.0
H1145 H 0.72392 0.92486 0.36251 0.0
H1146 H 0.86958 0.89483 0.388 0.0
H1147 H 0.84631 0.88256 0.40817 0.0
H1148 H 0.85803 0.92858 0.40435 0.0
H1149 H 0.76592 0.84714 0.34708 0.0
H1150 H 0.72239 0.86605 0.35129 0.0
H1151 H 0.74167 0.83423 0.3668 0.0
C1152 C 0.06467 0.75033 0.36965 0.0
C1153 C 0.03694 0.76342 0.38048 0.0
C1154 C 0.09822 0.76707 0.36954 0.0
C1155 C 0.10344 0.79831 0.37997 0.0
C1156 C 0.07529 0.81175 0.3908 0.0
C1157 C 0.04254 0.7937 0.39117 0.0
C1158 C 0.12804 0.75131 0.35837 0.0
C1159 C 0.0795 0.84559 0.4017 0.0
C1160 C 0.1936 0.83525 0.39366 0.0
C1161 C 0.19824 0.8624 0.38085 0.0
C1162 C 0.16396 0.81238 0.39279 0.0
C1163 C 0.13785 0.81786 0.37922 0.0
C1164 C 0.14311 0.84446 0.36589 0.0
C1165 C 0.17363 0.86605 0.3667 0.0
C1166 C 0.15984 0.78342 0.40684 0.0
C1167 C 0.11536 0.85181 0.35152 0.0
H1168 H 0.06032 0.72659 0.36155 0.0
H1169 H 0.02092 0.80384 0.39947 0.0
H1170 H 0.13621 0.77041 0.34768 0.0
H1171 H 0.15179 0.74646 0.36702 0.0
H1172 H 0.12017 0.72578 0.35185 0.0
H1173 H 0.05461 0.85296 0.40898 0.0
H1174 H 0.10124 0.84237 0.41176 0.0
H1175 H 0.08712 0.86801 0.39267 0.0
H1176 H 0.21282 0.83232 0.40453 0.0
H1177 H 0.17707 0.8873 0.35689 0.0
H1178 H 0.15218 0.75782 0.40036 0.0
H1179 H 0.13819 0.79071 0.41638 0.0
H1180 H 0.1848 0.77928 0.41471 0.0
H1181 H 0.10838 0.82693 0.34422 0.0
H1182 H 0.12454 0.87197 0.34153 0.0
H1183 H 0.09054 0.86179 0.358 0.0
C1184 C 0.24311 0.92127 0.62291 0.0
C1185 C 0.23092 0.94817 0.6345 0.0
C1186 C 0.22657 0.88773 0.6226 0.0
C1187 C 0.19632 0.88166 0.63363 0.0
C1188 C 0.18474 0.90839 0.64585 0.0
C1189 C 0.20267 0.94125 0.64636 0.0
C1190 C 0.24047 0.85944 0.60989 0.0
C1191 C 0.15199 0.90322 0.65748 0.0
C1192 C 0.12496 0.81961 0.6157 0.0
C1193 C 0.12797 0.79047 0.62747 0.0
C1194 C 0.14744 0.84926 0.61744 0.0
C1195 C 0.17432 0.84919 0.63091 0.0
C1196 C 0.17885 0.81896 0.64217 0.0
C1197 C 0.15512 0.79011 0.64053 0.0
C1198 C 0.14127 0.88133 0.60543 0.0
C1199 C 0.20813 0.81747 0.65619 0.0
H1200 H 0.26532 0.92667 0.6139 0.0
H1201 H 0.19328 0.96226 0.65524 0.0
H1202 H 0.24207 0.83323 0.61685 0.0
H1203 H 0.22183 0.85639 0.59833 0.0
H1204 H 0.26731 0.86629 0.60448 0.0
H1205 H 0.14784 0.92575 0.66702 0.0
H1206 H 0.12801 0.90087 0.64872 0.0
H1207 H 0.15412 0.87813 0.66536 0.0
H1208 H 0.10373 0.82009 0.60572 0.0
H1209 H 0.15756 0.76745 0.64957 0.0
H1210 H 0.1659 0.88773 0.59775 0.0
H1211 H 0.13476 0.90497 0.61384 0.0
H1212 H 0.11916 0.87701 0.59564 0.0
H1213 H 0.23415 0.8249 0.65005 0.0
H1214 H 0.21059 0.79054 0.66237 0.0
H1215 H 0.20254 0.83703 0.66707 0.0
C1216 C 0.19728 0.15142 0.64026 0.0
C1217 C 0.1968 0.12237 0.62835 0.0
C1218 C 0.16837 0.17521 0.64103 0.0
C1219 C 0.1379 0.16877 0.63016 0.0
C1220 C 0.1375 0.13957 0.61802 0.0
C1221 C 0.16729 0.11707 0.61703 0.0
C1222 C 0.17022 0.2069 0.6536 0.0
C1223 C 0.1051 0.13124 0.60657 0.0
C1224 C 0.04725 0.20243 0.64515 0.0
C1225 C 0.04068 0.22898 0.63228 0.0
C1226 C 0.0793 0.18308 0.6449 0.0
C1227 C 0.10571 0.19156 0.63188 0.0
C1228 C 0.09997 0.21989 0.61956 0.0
C1229 C 0.06712 0.23782 0.61966 0.0
C1230 C 0.08401 0.15232 0.65789 0.0
C1231 C 0.12803 0.23053 0.60591 0.0
H1232 H 0.22029 0.15553 0.64893 0.0
H1233 H 0.16684 0.09433 0.60797 0.0
H1234 H 0.16368 0.23177 0.64614 0.0
H1235 H 0.15016 0.20392 0.66452 0.0
H1236 H 0.19704 0.2099 0.65987 0.0
H1237 H 0.10904 0.10724 0.59798 0.0
H1238 H 0.08156 0.12669 0.6154 0.0
H1239 H 0.09872 0.15421 0.59767 0.0
H1240 H 0.02655 0.19553 0.6548 0.0
H1241 H 0.06199 0.25866 0.60982 0.0
H1242 H 0.10918 0.15541 0.66564 0.0
H1243 H 0.086 0.12696 0.6502 0.0
H1244 H 0.06146 0.15007 0.66759 0.0
H1245 H 0.15444 0.23344 0.61259 0.0
H1246 H 0.1213 0.256 0.599 0.0
H1247 H 0.13067 0.20937 0.59552 0.0
C1248 C 0.79688 0.04234 0.62108 0.0
C1249 C 0.76639 0.03821 0.63182 0.0
C1250 C 0.81536 0.07485 0.62066 0.0
C1251 C 0.80212 0.10418 0.6307 0.0
C1252 C 0.77044 0.1005 0.64099 0.0
C1253 C 0.7533 0.06722 0.64172 0.0
C1254 C 0.84969 0.0774 0.61001 0.0
C1255 C 0.75487 0.13158 0.65131 0.0
C1256 C 0.86983 0.17371 0.64488 0.0
C1257 C 0.86726 0.19845 0.63073 0.0
C1258 C 0.84835 0.14313 0.64515 0.0
C1259 C 0.82281 0.13791 0.63129 0.0
C1260 C 0.81878 0.1638 0.61748 0.0
C1261 C 0.84165 0.19351 0.61715 0.0
C1262 C 0.85426 0.11557 0.65978 0.0
C1263 C 0.79091 0.1597 0.60287 0.0
H1264 H 0.80697 0.01972 0.61349 0.0
H1265 H 0.72939 0.06398 0.64984 0.0
H1266 H 0.84773 0.09895 0.59978 0.0
H1267 H 0.8721 0.08434 0.61919 0.0
H1268 H 0.8563 0.05204 0.60298 0.0
H1269 H 0.72832 0.12518 0.6572 0.0
H1270 H 0.77316 0.13935 0.66244 0.0
H1271 H 0.75206 0.15508 0.64228 0.0
H1272 H 0.88995 0.17737 0.65527 0.0
H1273 H 0.83959 0.21283 0.60628 0.0
H1274 H 0.86281 0.08998 0.65358 0.0
H1275 H 0.829 0.11034 0.66714 0.0
H1276 H 0.87489 0.124 0.6697 0.0
H1277 H 0.79805 0.13704 0.59393 0.0
H1278 H 0.78841 0.18413 0.59444 0.0
H1279 H 0.7645 0.15356 0.60894 0.0
C1280 C 0.92781 0.75518 0.64732 0.0
C1281 C 0.95493 0.77098 0.63705 0.0
C1282 C 0.89395 0.77118 0.64847 0.0
C1283 C 0.88788 0.80414 0.6396 0.0
C1284 C 0.91584 0.82079 0.62984 0.0
C1285 C 0.94888 0.80363 0.62842 0.0
C1286 C 0.86442 0.75223 0.65852 0.0
C1287 C 0.91076 0.8565 0.62067 0.0
C1288 C 0.79825 0.83892 0.6241 0.0
C1289 C 0.79116 0.86468 0.63733 0.0
C1290 C 0.82834 0.81679 0.62546 0.0
C1291 C 0.85228 0.8214 0.6401 0.0
C1292 C 0.84425 0.84609 0.65397 0.0
C1293 C 0.81347 0.86714 0.65252 0.0
C1294 C 0.83555 0.78993 0.6107 0.0
C1295 C 0.86952 0.85234 0.66957 0.0
H1296 H 0.93262 0.72962 0.65377 0.0
H1297 H 0.9701 0.81573 0.62053 0.0
H1298 H 0.85232 0.77021 0.66873 0.0
H1299 H 0.84293 0.74473 0.6489 0.0
H1300 H 0.87402 0.7277 0.66543 0.0
H1301 H 0.93599 0.86688 0.61474 0.0
H1302 H 0.8907 0.85401 0.6097 0.0
H1303 H 0.90046 0.87639 0.63047 0.0
H1304 H 0.78077 0.83666 0.61246 0.0
H1305 H 0.80813 0.8871 0.66278 0.0
H1306 H 0.84363 0.7639 0.61659 0.0
H1307 H 0.85795 0.79946 0.60214 0.0
H1308 H 0.81184 0.78572 0.60191 0.0
H1309 H 0.87782 0.82667 0.67574 0.0
H1310 H 0.85744 0.86938 0.68023 0.0
H1311 H 0.89404 0.86572 0.66453 0.0
C1312 C 0.61091 0.66388 0.89407 0.0
C1313 C 0.61572 0.69481 0.88373 0.0
C1314 C 0.63419 0.63485 0.89232 0.0
C1315 C 0.66354 0.63732 0.88031 0.0
C1316 C 0.66931 0.66901 0.87032 0.0
C1317 C 0.64493 0.69727 0.87194 0.0
C1318 C 0.62677 0.60118 0.90294 0.0
C1319 C 0.70101 0.67294 0.85786 0.0
C1320 C 0.73464 0.56867 0.89041 0.0
C1321 C 0.72658 0.5422 0.87769 0.0
C1322 C 0.71592 0.601 0.8906 0.0
C1323 C 0.68771 0.6063 0.87815 0.0
C1324 C 0.68042 0.58017 0.8648 0.0
C1325 C 0.70042 0.54851 0.86456 0.0
C1326 C 0.72521 0.62872 0.90466 0.0
C1327 C 0.65 0.58456 0.85157 0.0
H1328 H 0.58811 0.66182 0.90305 0.0
H1329 H 0.64873 0.72133 0.864 0.0
H1330 H 0.62348 0.57829 0.89357 0.0
H1331 H 0.64972 0.59499 0.9119 0.0
H1332 H 0.60234 0.6034 0.91139 0.0
H1333 H 0.70278 0.7001 0.85188 0.0
H1334 H 0.72611 0.66734 0.86534 0.0
H1335 H 0.69917 0.6532 0.84673 0.0
H1336 H 0.75521 0.56378 0.90045 0.0
H1337 H 0.69415 0.52783 0.85481 0.0
H1338 H 0.70382 0.62981 0.91502 0.0
H1339 H 0.72704 0.65559 0.89839 0.0
H1340 H 0.7509 0.62272 0.91156 0.0
H1341 H 0.62424 0.58419 0.859 0.0
H1342 H 0.64951 0.56303 0.84125 0.0
H1343 H 0.6519 0.61067 0.84458 0.0
C1344 C 0.43892 0.698 0.86423 0.0
C1345 C 0.4421 0.72996 0.8738 0.0
C1346 C 0.40614 0.67992 0.86361 0.0
C1347 C 0.376 0.69491 0.87239 0.0
C1348 C 0.37856 0.72893 0.88058 0.0
C1349 C 0.41192 0.74577 0.88153 0.0
C1350 C 0.40465 0.64335 0.85506 0.0
C1351 C 0.34677 0.74633 0.88951 0.0
C1352 C 0.28822 0.64637 0.86505 0.0
C1353 C 0.28682 0.62477 0.88052 0.0
C1354 C 0.31628 0.67074 0.86252 0.0
C1355 C 0.34393 0.6726 0.87554 0.0
C1356 C 0.34202 0.6516 0.89143 0.0
C1357 C 0.31321 0.62831 0.89383 0.0
C1358 C 0.31688 0.69369 0.84575 0.0
C1359 C 0.37125 0.65249 0.90554 0.0
H1360 H 0.4626 0.68588 0.85842 0.0
H1361 H 0.41471 0.77067 0.88887 0.0
H1362 H 0.40155 0.62286 0.8658 0.0
H1363 H 0.38122 0.64109 0.84596 0.0
H1364 H 0.4292 0.63721 0.84722 0.0
H1365 H 0.35139 0.77522 0.89199 0.0
H1366 H 0.32245 0.74319 0.88108 0.0
H1367 H 0.34153 0.73322 0.9027 0.0
H1368 H 0.26765 0.64387 0.85479 0.0
H1369 H 0.31235 0.61152 0.90577 0.0
H1370 H 0.33863 0.68469 0.83666 0.0
H1371 H 0.32244 0.72192 0.84934 0.0
H1372 H 0.29123 0.69242 0.83821 0.0
H1373 H 0.39704 0.64445 0.89937 0.0
H1374 H 0.36562 0.63443 0.91712 0.0
H1375 H 0.37461 0.68 0.91081 0.0
C1376 C 0.3469 0.29656 0.89537 0.0
C1377 C 0.37095 0.28887 0.88142 0.0
C1378 C 0.32416 0.32623 0.8942 0.0
C1379 C 0.32673 0.34927 0.87907 0.0
C1380 C 0.35036 0.34104 0.86476 0.0
C1381 C 0.37178 0.31053 0.86598 0.0
C1382 C 0.29835 0.33359 0.90942 0.0
C1383 C 0.35471 0.36559 0.8487 0.0
C1384 C 0.25673 0.42022 0.86987 0.0
C1385 C 0.27164 0.44957 0.87881 0.0
C1386 C 0.27397 0.38697 0.87016 0.0
C1387 C 0.30739 0.38374 0.87899 0.0
C1388 C 0.3229 0.41373 0.88761 0.0
C1389 C 0.30442 0.44617 0.88771 0.0
C1390 C 0.25615 0.35521 0.86139 0.0
C1391 C 0.35907 0.41164 0.89664 0.0
H1392 H 0.34611 0.27956 0.90723 0.0
H1393 H 0.39063 0.30471 0.85526 0.0
H1394 H 0.3074 0.35728 0.91716 0.0
H1395 H 0.27141 0.33973 0.90396 0.0
H1396 H 0.29616 0.31066 0.91888 0.0
H1397 H 0.37271 0.35423 0.83825 0.0
H1398 H 0.32843 0.37126 0.8424 0.0
H1399 H 0.36596 0.39149 0.85327 0.0
H1400 H 0.23106 0.42301 0.86321 0.0
H1401 H 0.3158 0.46912 0.89457 0.0
H1402 H 0.25225 0.33375 0.87155 0.0
H1403 H 0.27348 0.34419 0.8506 0.0
H1404 H 0.2298 0.36211 0.85542 0.0
H1405 H 0.35812 0.3925 0.90806 0.0
H1406 H 0.36809 0.43794 0.90188 0.0
H1407 H 0.3793 0.40165 0.88691 0.0
C1408 C 0.66736 0.37114 0.89428 0.0
C1409 C 0.69734 0.36772 0.88313 0.0
C1410 C 0.63847 0.34766 0.89265 0.0
C1411 C 0.64025 0.31939 0.87999 0.0
C1412 C 0.67113 0.31491 0.8692 0.0
C1413 C 0.69916 0.33964 0.87066 0.0
C1414 C 0.60561 0.3538 0.90411 0.0
C1415 C 0.67441 0.28425 0.85607 0.0
C1416 C 0.57204 0.24815 0.89037 0.0
C1417 C 0.54459 0.25729 0.87839 0.0
C1418 C 0.60471 0.26634 0.89003 0.0
C1419 C 0.6092 0.29523 0.87791 0.0
C1420 C 0.58199 0.30357 0.86527 0.0
C1421 C 0.55008 0.28396 0.86546 0.0
C1422 C 0.63361 0.25587 0.90325 0.0
C1423 C 0.58545 0.33482 0.85249 0.0
H1424 H 0.66586 0.39312 0.90379 0.0
H1425 H 0.72254 0.33697 0.86211 0.0
H1426 H 0.58187 0.35739 0.89529 0.0
H1427 H 0.60049 0.33019 0.91278 0.0
H1428 H 0.60823 0.37764 0.91294 0.0
H1429 H 0.70124 0.2831 0.84967 0.0
H1430 H 0.6693 0.25859 0.86311 0.0
H1431 H 0.65403 0.28687 0.84526 0.0
H1432 H 0.56766 0.22718 0.90025 0.0
H1433 H 0.52856 0.29101 0.85631 0.0
H1434 H 0.63537 0.27613 0.91415 0.0
H1435 H 0.66 0.25492 0.89643 0.0
H1436 H 0.62826 0.22948 0.90956 0.0
H1437 H 0.58557 0.36005 0.86036 0.0
H1438 H 0.56317 0.33593 0.84257 0.0
H1439 H 0.61107 0.33349 0.845 0.0
C1440 C 0.65336 0.29086 0.12114 0.0
C1441 C 0.62662 0.28663 0.1342 0.0
C1442 C 0.67633 0.32046 0.1216 0.0
C1443 C 0.67136 0.34692 0.13502 0.0
C1444 C 0.64532 0.34197 0.14866 0.0
C1445 C 0.62363 0.31151 0.14825 0.0
C1446 C 0.70471 0.32424 0.10723 0.0
C1447 C 0.6385 0.37007 0.16289 0.0
C1448 C 0.73826 0.42149 0.14293 0.0
C1449 C 0.72412 0.44851 0.13197 0.0
C1450 C 0.72208 0.38771 0.14363 0.0
C1451 C 0.69039 0.38153 0.13365 0.0
C1452 C 0.67589 0.40897 0.1227 0.0
C1453 C 0.69335 0.44196 0.12174 0.0
C1454 C 0.73892 0.35864 0.15491 0.0
C1455 C 0.64154 0.40376 0.11227 0.0
H1456 H 0.65583 0.27141 0.11036 0.0
H1457 H 0.60275 0.30838 0.15828 0.0
H1458 H 0.69676 0.34529 0.09748 0.0
H1459 H 0.73049 0.33252 0.11336 0.0
H1460 H 0.70884 0.29897 0.09966 0.0
H1461 H 0.61911 0.36095 0.17328 0.0
H1462 H 0.66375 0.37764 0.16974 0.0
H1463 H 0.62774 0.39449 0.15636 0.0
H1464 H 0.76235 0.42659 0.15067 0.0
H1465 H 0.68241 0.46303 0.11334 0.0
H1466 H 0.74378 0.33466 0.14646 0.0
H1467 H 0.72049 0.35056 0.16591 0.0
H1468 H 0.76465 0.36721 0.16104 0.0
H1469 H 0.64466 0.38174 0.10239 0.0
H1470 H 0.63334 0.42822 0.10485 0.0
H1471 H 0.61971 0.3961 0.12166 0.0
C1472 C 0.54011 0.68778 0.12503 0.0
C1473 C 0.53517 0.71909 0.13501 0.0
C1474 C 0.57298 0.66997 0.12522 0.0
C1475 C 0.60188 0.68468 0.1351 0.0
C1476 C 0.5972 0.71677 0.14492 0.0
C1477 C 0.56356 0.73329 0.14504 0.0
C1478 C 0.57661 0.6352 0.11504 0.0
C1479 C 0.62778 0.73381 0.15507 0.0
C1480 C 0.67441 0.61935 0.14814 0.0
C1481 C 0.69772 0.62226 0.1334 0.0
C1482 C 0.64357 0.64038 0.14917 0.0
C1483 C 0.63662 0.66572 0.13543 0.0
C1484 C 0.66135 0.67045 0.12114 0.0
C1485 C 0.69137 0.64813 0.12011 0.0
C1486 C 0.61731 0.6338 0.16432 0.0
C1487 C 0.65539 0.69809 0.10659 0.0
H1488 H 0.51797 0.67683 0.11735 0.0
H1489 H 0.55968 0.75783 0.15256 0.0
H1490 H 0.59717 0.63784 0.10434 0.0
H1491 H 0.58559 0.61377 0.12437 0.0
H1492 H 0.55111 0.62675 0.10864 0.0
H1493 H 0.62001 0.75952 0.16143 0.0
H1494 H 0.63754 0.71551 0.16577 0.0
H1495 H 0.65044 0.73872 0.14572 0.0
H1496 H 0.67915 0.59911 0.15835 0.0
H1497 H 0.70958 0.65054 0.10878 0.0
H1498 H 0.59209 0.6229 0.15865 0.0
H1499 H 0.61061 0.65916 0.17125 0.0
H1500 H 0.62774 0.61464 0.1745 0.0
H1501 H 0.63284 0.68974 0.09781 0.0
H1502 H 0.67942 0.70183 0.09798 0.0
H1503 H 0.6481 0.72415 0.1127 0.0
C1504 C 0.29341 0.54394 0.12273 0.0
C1505 C 0.26231 0.5375 0.1327 0.0
C1506 C 0.31094 0.57686 0.1238 0.0
C1507 C 0.29621 0.60437 0.1346 0.0
C1508 C 0.26425 0.59828 0.14436 0.0
C1509 C 0.24798 0.56453 0.14357 0.0
C1510 C 0.34556 0.58196 0.1136 0.0
C1511 C 0.24716 0.62743 0.15547 0.0
C1512 C 0.36301 0.67443 0.14905 0.0
C1513 C 0.36041 0.69892 0.13479 0.0
C1514 C 0.34105 0.64417 0.14962 0.0
C1515 C 0.31515 0.63903 0.13592 0.0
C1516 C 0.31053 0.66517 0.12229 0.0
C1517 C 0.33374 0.69456 0.12168 0.0
C1518 C 0.34752 0.6164 0.16408 0.0
C1519 C 0.28232 0.66119 0.10784 0.0
H1520 H 0.3045 0.52285 0.11441 0.0
H1521 H 0.22364 0.5595 0.1511 0.0
H1522 H 0.34263 0.60375 0.10356 0.0
H1523 H 0.36713 0.58989 0.12309 0.0
H1524 H 0.35403 0.55737 0.10639 0.0
H1525 H 0.22149 0.61878 0.16161 0.0
H1526 H 0.26551 0.63589 0.16643 0.0
H1527 H 0.24214 0.65118 0.14686 0.0
H1528 H 0.38381 0.67767 0.15912 0.0
H1529 H 0.33154 0.71373 0.11075 0.0
H1530 H 0.35861 0.59191 0.15778 0.0
H1531 H 0.32209 0.60884 0.17074 0.0
H1532 H 0.36654 0.62583 0.17458 0.0
H1533 H 0.2904 0.64001 0.0982 0.0
H1534 H 0.27831 0.68635 0.10014 0.0
H1535 H 0.25645 0.65301 0.11389 0.0
C1536 C 0.29684 0.33891 0.11892 0.0
C1537 C 0.29069 0.36502 0.13209 0.0
C1538 C 0.32679 0.31651 0.12003 0.0
C1539 C 0.35167 0.32144 0.13425 0.0
C1540 C 0.34503 0.34719 0.14781 0.0
C1541 C 0.31425 0.36828 0.14673 0.0
C1542 C 0.33245 0.28845 0.10567 0.0
C1543 C 0.37148 0.354 0.16286 0.0
C1544 C 0.42396 0.25344 0.14454 0.0
C1545 C 0.45252 0.26704 0.13444 0.0
C1546 C 0.39049 0.27027 0.14421 0.0
C1547 C 0.38617 0.30207 0.13408 0.0
C1548 C 0.41524 0.31618 0.12413 0.0
C1549 C 0.44793 0.29807 0.12417 0.0
C1550 C 0.35971 0.25389 0.15447 0.0
C1551 C 0.41198 0.35065 0.11364 0.0
H1552 H 0.27842 0.33626 0.10768 0.0
H1553 H 0.30965 0.38872 0.15684 0.0
H1554 H 0.35517 0.29625 0.0969 0.0
H1555 H 0.33933 0.26245 0.11198 0.0
H1556 H 0.30843 0.28483 0.09703 0.0
H1557 H 0.36142 0.37375 0.17283 0.0
H1558 H 0.37778 0.32883 0.17008 0.0
H1559 H 0.39686 0.36422 0.15707 0.0
H1560 H 0.42757 0.22912 0.15228 0.0
H1561 H 0.4702 0.30855 0.11643 0.0
H1562 H 0.33697 0.24902 0.14516 0.0
H1563 H 0.35021 0.27259 0.16504 0.0
H1564 H 0.36716 0.22826 0.16103 0.0
H1565 H 0.39134 0.34791 0.10297 0.0
H1566 H 0.43756 0.35858 0.10715 0.0
H1567 H 0.4033 0.37249 0.12277 0.0
C1568 C 0.00211 0.26264 0.46591 0.0
C1569 C 0.03895 0.25933 0.4627 0.0
C1570 C 0.98818 0.26114 0.4835 0.0
C1571 C 0.01165 0.25665 0.49832 0.0
C1572 C 0.04894 0.25399 0.49524 0.0
C1573 C 0.06214 0.25516 0.47745 0.0
C1574 C 0.94825 0.26372 0.48618 0.0
C1575 C 0.07484 0.2496 0.51073 0.0
C1576 C 0.97806 0.2819 0.54514 0.0
C1577 C 0.97015 0.24836 0.5526 0.0
C1578 C 0.9917 0.28501 0.52752 0.0
C1579 C -0.00295 0.25389 0.517 0.0
C1580 C 0.98829 0.22004 0.52431 0.0
C1581 C 0.97518 0.21767 0.54205 0.0
C1582 C 0.001 0.32155 0.52027 0.0
C1583 C 0.99303 0.18627 0.51343 0.0
H1584 H 0.98391 0.26579 0.45462 0.0
H1585 H 0.09062 0.25273 0.47511 0.0
H1586 H 0.9382 0.239 0.49271 0.0
H1587 H 0.94184 0.28628 0.49533 0.0
H1588 H 0.93367 0.26764 0.47324 0.0
H1589 H 0.1031 0.24934 0.50614 0.0
H1590 H 0.07135 0.27165 0.52059 0.0
H1591 H 0.06927 0.22427 0.51798 0.0
H1592 H 0.97449 0.30575 0.55323 0.0
H1593 H 0.96904 0.19167 0.5477 0.0
H1594 H 0.98584 0.32688 0.50767 0.0
H1595 H 0.02983 0.32261 0.5168 0.0
H1596 H -0.00489 0.34312 0.53013 0.0
H1597 H 0.97772 0.18815 0.50061 0.0
H1598 H 0.98402 0.16215 0.52089 0.0
H1599 H 0.02158 0.18285 0.50979 0.0
C1600 C 0.77211 0.95754 0.54394 0.0
C1601 C 0.74243 0.9584 0.5555 0.0
C1602 C 0.77002 0.97105 0.52625 0.0
C1603 C 0.73763 0.98635 0.52006 0.0
C1604 C 0.70741 0.98679 0.53157 0.0
C1605 C 0.71008 0.97254 0.54909 0.0
C1606 C 0.80263 0.96943 0.51427 0.0
C1607 C 0.67251 0.00318 0.52555 0.0
C1608 C 0.74403 0.05287 0.48125 0.0
C1609 C 0.73348 0.03195 0.46646 0.0
C1610 C 0.74501 0.03851 0.49881 0.0
C1611 C 0.73555 0.00229 0.50162 0.0
C1612 C 0.72462 0.98114 0.48677 0.0
C1613 C 0.72353 -0.00375 0.46942 0.0
C1614 C 0.75641 0.06204 0.51434 0.0
C1615 C 0.71462 0.94235 0.48917 0.0
H1616 H 0.79715 0.94654 0.54877 0.0
H1617 H 0.68707 0.97353 0.55797 0.0
H1618 H 0.79605 0.95568 0.50141 0.0
H1619 H 0.81144 -0.00313 0.51079 0.0
H1620 H 0.82526 0.95522 0.52082 0.0
H1621 H 0.65131 0.00076 0.53599 0.0
H1622 H 0.67654 0.03189 0.52245 0.0
H1623 H 0.66303 0.99016 0.51297 0.0
H1624 H 0.75164 0.08047 0.47911 0.0
H1625 H 0.71538 0.9798 0.45809 0.0
H1626 H 0.78099 0.05113 0.52066 0.0
H1627 H 0.73535 0.06236 0.5249 0.0
H1628 H 0.76176 0.08994 0.51001 0.0
H1629 H 0.73768 0.92733 0.49475 0.0
H1630 H 0.70634 0.92964 0.47626 0.0
H1631 H 0.6924 0.93984 0.499 0.0
C1632 C 0.00086 0.73401 0.54554 0.0
C1633 C 0.03731 0.72708 0.54841 0.0
C1634 C 0.98667 0.73649 0.52802 0.0
C1635 C 0.00941 0.73177 0.51294 0.0
C1636 C 0.04614 0.72436 0.51571 0.0
C1637 C 0.05968 0.72218 0.53341 0.0
C1638 C 0.9474 0.74455 0.52566 0.0
C1639 C 0.0712 0.71901 0.49995 0.0
C1640 C 0.9678 0.70908 0.4674 0.0
C1641 C 0.96858 0.74226 0.45859 0.0
C1642 C 0.98088 0.70527 0.48511 0.0
C1643 C -0.00513 0.73539 0.49427 0.0
C1644 C -0.00497 0.76908 0.48559 0.0
C1645 C 0.98197 0.77209 0.46786 0.0
C1646 C 0.98026 0.66889 0.49391 0.0
C1647 C 0.00943 0.80191 0.49495 0.0
H1648 H 0.98328 0.73781 0.55702 0.0
H1649 H 0.08782 0.7167 0.53548 0.0
H1650 H 0.94406 0.7699 0.51808 0.0
H1651 H 0.93444 0.72319 0.51759 0.0
H1652 H 0.9332 0.74692 0.53879 0.0
H1653 H 0.09883 0.71256 0.50437 0.0
H1654 H 0.0613 0.69706 0.49121 0.0
H1655 H 0.07202 0.74354 0.49155 0.0
H1656 H 0.95762 0.68585 0.46034 0.0
H1657 H 0.98265 0.79785 0.46118 0.0
H1658 H 0.96506 0.67001 0.50677 0.0
H1659 H 0.0079 0.6605 0.49729 0.0
H1660 H 0.96802 0.64826 0.48508 0.0
H1661 H -0.00507 0.80637 0.50783 0.0
H1662 H 0.00694 0.82629 0.48648 0.0
H1663 H 0.03803 0.79796 0.49836 0.0
C1664 C 0.27853 0.00098 0.54748 0.0
C1665 C 0.24878 0.021 0.553 0.0
C1666 C 0.27991 0.9855 0.53021 0.0
C1667 C 0.25117 0.99074 0.51804 0.0
C1668 C 0.2215 0.01171 0.52337 0.0
C1669 C 0.22052 0.0263 0.54084 0.0
C1670 C 0.3118 0.96297 0.52511 0.0
C1671 C 0.19068 0.01854 0.51065 0.0
C1672 C 0.26757 0.97835 0.46778 0.0
C1673 C 0.2514 0.94513 0.46447 0.0
C1674 C 0.26792 0.99333 0.48515 0.0
C1675 C 0.25215 0.97448 0.49967 0.0
C1676 C 0.2366 0.94052 0.49655 0.0
C1677 C 0.23621 0.92634 0.47895 0.0
C1678 C 0.28445 0.02974 0.48787 0.0
C1679 C 0.21998 0.91939 0.51176 0.0
H1680 H 0.30035 -0.00348 0.55685 0.0
H1681 H 0.19752 0.04184 0.545 0.0
H1682 H 0.30294 0.93546 0.52181 0.0
H1683 H 0.3248 0.97399 0.51284 0.0
H1684 H 0.33197 0.96156 0.53611 0.0
H1685 H 0.17015 0.03634 0.51666 0.0
H1686 H 0.20059 0.03092 0.49797 0.0
H1687 H 0.17779 0.9929 0.50692 0.0
H1688 H 0.27937 0.99316 0.4567 0.0
H1689 H 0.2238 0.90062 0.47654 0.0
H1690 H 0.3057 0.02839 0.49831 0.0
H1691 H 0.26389 0.04869 0.49283 0.0
H1692 H 0.2962 0.04063 0.47523 0.0
H1693 H 0.23963 0.91574 0.52285 0.0
H1694 H 0.21053 0.8927 0.50727 0.0
H1695 H 0.19695 0.93427 0.51743 0.0
C1696 C 0.50033 0.73781 0.96871 0.0
C1697 C 0.52574 0.7639 0.96425 0.0
C1698 C 0.48436 0.73702 0.98588 0.0
C1699 C 0.49336 0.76352 0.99875 0.0
C1700 C 0.51904 0.78993 0.99431 0.0
C1701 C 0.53525 0.78955 0.97718 0.0
C1702 C 0.45781 0.70788 0.99022 0.0
C1703 C 0.52886 0.81901 1.00754 0.0
C1704 C 0.42737 0.78089 0.03695 0.0
C1705 C 0.44416 0.76379 0.05151 0.0
C1706 C 0.4432 0.78127 0.01971 0.0
C1707 C 0.47613 0.76339 0.01691 0.0
C1708 C 0.49271 0.7454 0.03149 0.0
C1709 C 0.47675 0.74618 0.04864 0.0
C1710 C 0.42505 0.80131 1.00457 0.0
C1711 C 0.52735 0.7253 0.02899 0.0
H1712 H 0.49298 0.71787 0.95876 0.0
H1713 H 0.55453 0.81004 0.9737 0.0
H1714 H 0.46648 0.69312 1.00247 0.0
H1715 H 0.43133 0.71975 0.99323 0.0
H1716 H 0.45467 0.68857 0.97894 0.0
H1717 H 0.54888 0.8379 1.00192 0.0
H1718 H 0.5046 0.83426 0.01139 0.0
H1719 H 0.53988 0.8071 0.02009 0.0
H1720 H 0.40234 0.79477 0.03914 0.0
H1721 H 0.48973 0.73269 0.05983 0.0
H1722 H 0.41897 0.78288 0.99325 0.0
H1723 H 0.44323 0.82222 0.99923 0.0
H1724 H 0.39979 0.81419 0.009 0.0
H1725 H 0.52431 0.70507 0.01815 0.0
H1726 H 0.53609 0.7116 0.04156 0.0
H1727 H 0.54875 0.74396 0.0247 0.0
C1728 C 0.27626 0.47156 0.04148 0.0
C1729 C 0.24569 0.46802 0.05228 0.0
C1730 C 0.27396 0.48494 0.02377 0.0
C1731 C 0.24035 0.4956 0.01679 0.0
C1732 C 0.20935 0.49181 0.02759 0.0
C1733 C 0.21234 0.47778 0.04514 0.0
C1734 C 0.30755 0.48792 0.01256 0.0
C1735 C 0.17309 0.50321 0.02073 0.0
C1736 C 0.24044 0.56134 0.97749 0.0
C1737 C 0.23401 0.53875 0.96273 0.0
C1738 C 0.2421 0.54774 0.9952 0.0
C1739 C 0.23765 0.51062 0.99818 0.0
C1740 C 0.23099 0.48774 0.98335 0.0
C1741 C 0.22904 0.50209 0.96585 0.0
C1742 C 0.24879 0.57306 0.01071 0.0
C1743 C 0.22645 0.44798 0.98592 0.0
H1744 H 0.3021 0.46398 0.04688 0.0
H1745 H 0.1886 0.47538 0.05343 0.0
H1746 H 0.30428 0.47297 0.99972 0.0
H1747 H 0.31249 0.51626 0.00898 0.0
H1748 H 0.33141 0.47743 0.01976 0.0
H1749 H 0.15158 0.49844 0.03079 0.0
H1750 H 0.17353 0.53206 0.01731 0.0
H1751 H 0.1664 0.48851 0.00816 0.0
H1752 H 0.24419 0.58969 0.97523 0.0
H1753 H 0.22416 0.48434 0.95454 0.0
H1754 H 0.27408 0.56586 0.01764 0.0
H1755 H 0.227 0.57073 0.02081 0.0
H1756 H 0.25058 0.6013 1.0062 0.0
H1757 H 0.25086 0.4366 0.99219 0.0
H1758 H 0.22133 0.43385 0.97297 0.0
H1759 H 0.20389 0.44258 0.99525 0.0
C1760 C 0.50847 0.23824 0.04862 0.0
C1761 C 0.54056 0.21957 0.05125 0.0
C1762 C 0.4915 0.23879 0.0317 0.0
C1763 C 0.50648 0.21946 0.01713 0.0
C1764 C 0.53885 0.20044 0.01971 0.0
C1765 C 0.55576 0.2011 0.0367 0.0
C1766 C 0.45757 0.26015 0.02942 0.0
C1767 C 0.5553 0.17896 1.00459 0.0
C1768 C 0.44464 0.19423 0.97825 0.0
C1769 C 0.45479 0.21887 0.96494 0.0
C1770 C 0.46142 0.19392 0.99526 0.0
C1771 C 0.48837 0.2194 0.99917 0.0
C1772 C 0.49796 0.24496 0.98593 0.0
C1773 C 0.48137 0.2441 0.96892 0.0
C1774 C 0.45091 0.16584 0.00891 0.0
C1775 C 0.52588 0.27313 0.9897 0.0
H1776 H 0.49672 0.25277 0.05981 0.0
H1777 H 0.58037 0.18637 0.03872 0.0
H1778 H 0.46089 0.27989 0.01836 0.0
H1779 H 0.43524 0.24223 0.02555 0.0
H1780 H 0.44999 0.2746 0.04196 0.0
H1781 H 0.58013 0.16507 0.00888 0.0
H1782 H 0.5359 0.15874 0.99969 0.0
H1783 H 0.5617 0.19665 0.99301 0.0
H1784 H 0.42443 0.17441 0.97515 0.0
H1785 H 0.48921 0.26328 0.95868 0.0
H1786 H 0.44114 0.17871 0.02147 0.0
H1787 H 0.4746 0.14959 0.0126 0.0
H1788 H 0.42972 0.14774 1.00372 0.0
H1789 H 0.51844 0.28861 1.00192 0.0
H1790 H 0.52923 0.29194 0.97821 0.0
H1791 H 0.552 0.26027 0.9925 0.0
C1792 C 0.73994 0.43348 0.97703 0.0
C1793 C 0.75249 0.45434 0.96262 0.0
C1794 C 0.73829 0.44735 0.99466 0.0
C1795 C 0.74899 0.48308 0.9979 0.0
C1796 C 0.76183 0.50419 0.98343 0.0
C1797 C 0.76366 0.48951 0.96601 0.0
C1798 C 0.72497 0.42383 0.00981 0.0
C1799 C 0.77312 0.54251 0.98629 0.0
C1800 C 0.71248 0.528 0.04015 0.0
C1801 C 0.74172 0.52574 0.05195 0.0
C1802 C 0.71469 0.51485 0.02239 0.0
C1803 C 0.74668 0.49842 0.01644 0.0
C1804 C 0.7764 0.49639 0.02824 0.0
C1805 C 0.77367 0.51038 0.04578 0.0
C1806 C 0.68269 0.5182 0.01008 0.0
C1807 C 0.81081 0.47868 0.02249 0.0
H1808 H 0.73136 0.40628 0.97454 0.0
H1809 H 0.77326 0.50592 0.95496 0.0
H1810 H 0.74539 0.42222 0.02066 0.0
H1811 H 0.70056 0.4356 0.01586 0.0
H1812 H 0.71866 0.39635 1.00515 0.0
H1813 H 0.7824 0.55537 0.9736 0.0
H1814 H 0.7504 0.55816 0.99176 0.0
H1815 H 0.795 0.54383 0.99639 0.0
H1816 H 0.68777 0.53995 0.04481 0.0
H1817 H 0.79633 0.50828 0.05484 0.0
H1818 H 0.67294 0.49127 1.00624 0.0
H1819 H 0.69037 0.53214 0.99742 0.0
H1820 H 0.66038 0.53307 0.0165 0.0
H1821 H 0.80562 0.45034 0.01897 0.0
H1822 H 0.83155 0.47958 0.03323 0.0
H1823 H 0.82154 0.49186 0.01021 0.0
loop_
_geom_bond_atom_site_label_1
_geom_bond_atom_site_label_2
_geom_bond_distance
_geom_bond_site_symmetry_2
_ccdc_geom_bond_type
Co0 O3 1.970 . S
Co0 N17 1.989 . S
Co0 O25 1.967 1_455 S
Co0 O32 1.920 . S
Co1 O4 1.966 . S
Co1 N10 2.022 . S
Co1 N18 1.993 . S
Co1 O26 1.941 1_455 S
C2 O3 1.258 . S
C2 O4 1.263 . S
O3 Co0 1.970 . S
O3 C2 1.258 . S
O4 Co1 1.966 . S
O4 C2 1.263 . S
C5 O6 1.235 . S
C5 O32 1.289 . S
O6 C5 1.235 . S
C7 C9 1.400 . S
C7 N10 1.351 . S
C7 C12 1.501 . S
C8 C9 1.387 . S
C8 N11 1.341 . S
C9 C7 1.400 . S
C9 C8 1.387 . S
N10 Co1 2.022 . S
N10 C7 1.351 . S
N10 N11 1.365 . S
N11 C8 1.341 . S
N11 N10 1.365 . S
N11 H31 0.862 . S
C12 C7 1.501 . S
C12 H13 0.961 . S
C12 H14 0.961 . S
C12 H15 0.960 . S
H13 C12 0.961 . S
H14 C12 0.961 . S
H15 C12 0.960 . S
C16 N17 1.342 . S
C16 C20 1.401 . S
C16 C21 1.499 . S
N17 Co0 1.989 . S
N17 C16 1.342 . S
N17 N18 1.388 . S
N18 Co1 1.993 . S
N18 N17 1.388 . S
N18 C19 1.346 . S
C19 N18 1.346 . S
C19 C20 1.396 . S
C19 C29 1.510 . S
C20 C16 1.401 . S
C20 C19 1.396 . S
C21 C16 1.499 . S
C21 H22 0.959 . S
C21 H23 0.960 . S
C21 H24 0.961 1_455 S
H22 C21 0.959 . S
H23 C21 0.960 . S
H24 C21 0.961 1_655 S
O25 Co0 1.967 1_655 S
O25 C33 1.258 . S
O26 Co1 1.941 1_655 S
O26 C33 1.266 . S
H27 C29 0.959 . S
H28 C29 0.961 . S
C29 C19 1.510 . S
C29 H27 0.959 . S
C29 H28 0.961 . S
C29 H30 0.960 . S
H30 C29 0.960 . S
H31 N11 0.862 . S
O32 Co0 1.920 . S
O32 C5 1.289 . S
C33 O25 1.258 . S
C33 O26 1.266 . S
Co34 O37 1.970 . S
Co34 N51 1.989 . S
Co34 O59 1.967 1_545 S
Co34 O66 1.920 . S
Co35 O38 1.966 . S
Co35 N44 2.022 . S
Co35 N52 1.993 . S
Co35 O60 1.941 1_545 S
C36 O37 1.258 . S
C36 O38 1.263 . S
O37 Co34 1.970 . S
O37 C36 1.258 . S
O38 Co35 1.966 . S
O38 C36 1.263 . S
C39 O40 1.235 . S
C39 O66 1.289 . S
O40 C39 1.235 . S
C41 C43 1.400 . S
C41 N44 1.351 . S
C41 C46 1.501 . S
C42 C43 1.387 . S
C42 N45 1.341 . S
C43 C41 1.400 . S
C43 C42 1.387 . S
N44 Co35 2.022 . S
N44 C41 1.351 . S
N44 N45 1.365 . S
N45 C42 1.341 . S
N45 N44 1.365 . S
N45 H65 0.862 . S
C46 C41 1.501 . S
C46 H47 0.961 . S
C46 H48 0.961 . S
C46 H49 0.960 . S
H47 C46 0.961 . S
H48 C46 0.961 . S
H49 C46 0.960 . S
C50 N51 1.342 . S
C50 C54 1.401 . S
C50 C55 1.499 . S
N51 Co34 1.989 . S
N51 C50 1.342 . S
N51 N52 1.388 . S
N52 Co35 1.993 . S
N52 N51 1.388 . S
N52 C53 1.346 . S
C53 N52 1.346 . S
C53 C54 1.396 . S
C53 C63 1.510 . S
C54 C50 1.401 . S
C54 C53 1.396 . S
C55 C50 1.499 . S
C55 H56 0.959 . S
C55 H57 0.960 . S
C55 H58 0.961 1_545 S
H56 C55 0.959 . S
H57 C55 0.960 . S
H58 C55 0.961 1_565 S
O59 Co34 1.967 1_565 S
O59 C67 1.258 . S
O60 Co35 1.941 1_565 S
O60 C67 1.266 . S
H61 C63 0.959 . S
H62 C63 0.961 . S
C63 C53 1.510 . S
C63 H61 0.959 . S
C63 H62 0.961 . S
C63 H64 0.960 . S
H64 C63 0.960 . S
H65 N45 0.862 . S
O66 Co34 1.920 . S
O66 C39 1.289 . S
C67 O59 1.258 . S
C67 O60 1.266 . S
Co68 O71 1.970 . S
Co68 N85 1.989 . S
Co68 O93 1.967 1_655 S
Co68 O100 1.920 . S
Co69 O72 1.966 . S
Co69 N78 2.022 . S
Co69 N86 1.993 . S
Co69 O94 1.941 1_655 S
C70 O71 1.258 . S
C70 O72 1.263 . S
O71 Co68 1.970 . S
O71 C70 1.258 . S
O72 Co69 1.966 . S
O72 C70 1.263 . S
C73 O74 1.235 . S
C73 O100 1.289 . S
O74 C73 1.235 . S
C75 C77 1.400 . S
C75 N78 1.351 . S
C75 C80 1.501 . S
C76 C77 1.387 . S
C76 N79 1.341 . S
C77 C75 1.400 . S
C77 C76 1.387 . S
N78 Co69 2.022 . S
N78 C75 1.351 . S
N78 N79 1.365 . S
N79 C76 1.341 . S
N79 N78 1.365 . S
N79 H99 0.862 . S
C80 C75 1.501 . S
C80 H81 0.961 . S
C80 H82 0.961 . S
C80 H83 0.960 . S
H81 C80 0.961 . S
H82 C80 0.961 . S
H83 C80 0.960 . S
C84 N85 1.342 . S
C84 C88 1.401 . S
C84 C89 1.499 . S
N85 Co68 1.989 . S
N85 C84 1.342 . S
N85 N86 1.388 . S
N86 Co69 1.993 . S
N86 N85 1.388 . S
N86 C87 1.346 . S
C87 N86 1.346 . S
C87 C88 1.396 . S
C87 C97 1.510 . S
C88 C84 1.401 . S
C88 C87 1.396 . S
C89 C84 1.499 . S
C89 H90 0.959 . S
C89 H91 0.960 . S
C89 H92 0.961 1_655 S
H90 C89 0.959 . S
H91 C89 0.960 . S
H92 C89 0.961 1_455 S
O93 Co68 1.967 1_455 S
O93 C101 1.258 . S
O94 Co69 1.941 1_455 S
O94 C101 1.266 . S
H95 C97 0.959 . S
H96 C97 0.961 . S
C97 C87 1.510 . S
C97 H95 0.959 . S
C97 H96 0.961 . S
C97 H98 0.960 . S
H98 C97 0.960 . S
H99 N79 0.862 . S
O100 Co68 1.920 . S
O100 C73 1.289 . S
C101 O93 1.258 . S
C101 O94 1.266 . S
Co102 O105 1.970 . S
Co102 N119 1.989 . S
Co102 O127 1.967 1_565 S
Co102 O134 1.920 . S
Co103 O106 1.966 . S
Co103 N112 2.022 . S
Co103 N120 1.993 . S
Co103 O128 1.941 1_565 S
C104 O105 1.258 . S
C104 O106 1.263 . S
O105 Co102 1.970 . S
O105 C104 1.258 . S
O106 Co103 1.966 . S
O106 C104 1.263 . S
C107 O108 1.235 . S
C107 O134 1.289 . S
O108 C107 1.235 . S
C109 C111 1.400 . S
C109 N112 1.351 . S
C109 C114 1.501 . S
C110 C111 1.387 . S
C110 N113 1.341 . S
C111 C109 1.400 . S
C111 C110 1.387 . S
N112 Co103 2.022 . S
N112 C109 1.351 . S
N112 N113 1.365 . S
N113 C110 1.341 . S
N113 N112 1.365 . S
N113 H133 0.862 . S
C114 C109 1.501 . S
C114 H115 0.961 . S
C114 H116 0.961 . S
C114 H117 0.960 . S
H115 C114 0.961 . S
H116 C114 0.961 . S
H117 C114 0.960 . S
C118 N119 1.342 . S
C118 C122 1.401 . S
C118 C123 1.499 . S
N119 Co102 1.989 . S
N119 C118 1.342 . S
N119 N120 1.388 . S
N120 Co103 1.993 . S
N120 N119 1.388 . S
N120 C121 1.346 . S
C121 N120 1.346 . S
C121 C122 1.396 . S
C121 C131 1.510 . S
C122 C118 1.401 . S
C122 C121 1.396 . S
C123 C118 1.499 . S
C123 H124 0.959 . S
C123 H125 0.960 . S
C123 H126 0.961 1_565 S
H124 C123 0.959 . S
H125 C123 0.960 . S
H126 C123 0.961 1_545 S
O127 Co102 1.967 1_545 S
O127 C135 1.258 . S
O128 Co103 1.941 1_545 S
O128 C135 1.266 . S
H129 C131 0.959 . S
H130 C131 0.961 . S
C131 C121 1.510 . S
C131 H129 0.959 . S
C131 H130 0.961 . S
C131 H132 0.960 . S
H132 C131 0.960 . S
H133 N113 0.862 . S
O134 Co102 1.920 . S
O134 C107 1.289 . S
C135 O127 1.258 . S
C135 O128 1.266 . S
Co136 O139 1.970 . S
Co136 N153 1.989 . S
Co136 O161 1.967 1_455 S
Co136 O168 1.920 . S
Co137 O140 1.966 . S
Co137 N146 2.022 . S
Co137 N154 1.993 . S
Co137 O162 1.941 1_455 S
C138 O139 1.258 . S
C138 O140 1.263 . S
O139 Co136 1.970 . S
O139 C138 1.258 . S
O140 Co137 1.966 . S
O140 C138 1.263 . S
C141 O142 1.235 . S
C141 O168 1.289 . S
O142 C141 1.235 . S
C143 C145 1.400 . S
C143 N146 1.351 . S
C143 C148 1.501 . S
C144 C145 1.387 . S
C144 N147 1.341 . S
C145 C143 1.400 . S
C145 C144 1.387 . S
N146 Co137 2.022 . S
N146 C143 1.351 . S
N146 N147 1.365 . S
N147 C144 1.341 . S
N147 N146 1.365 . S
N147 H167 0.862 . S
C148 C143 1.501 . S
C148 H149 0.961 . S
C148 H150 0.961 . S
C148 H151 0.960 . S
H149 C148 0.961 . S
H150 C148 0.961 . S
H151 C148 0.960 . S
C152 N153 1.342 . S
C152 C156 1.401 . S
C152 C157 1.499 . S
N153 Co136 1.989 . S
N153 C152 1.342 . S
N153 N154 1.388 . S
N154 Co137 1.993 . S
N154 N153 1.388 . S
N154 C155 1.346 . S
C155 N154 1.346 . S
C155 C156 1.396 . S
C155 C165 1.510 . S
C156 C152 1.401 . S
C156 C155 1.396 . S
C157 C152 1.499 . S
C157 H158 0.959 . S
C157 H159 0.960 . S
C157 H160 0.961 1_455 S
H158 C157 0.959 . S
H159 C157 0.960 . S
H160 C157 0.961 1_655 S
O161 Co136 1.967 1_655 S
O161 C169 1.258 . S
O162 Co137 1.941 1_655 S
O162 C169 1.266 . S
H163 C165 0.959 . S
H164 C165 0.961 . S
C165 C155 1.510 . S
C165 H163 0.959 . S
C165 H164 0.961 . S
C165 H166 0.960 . S
H166 C165 0.960 . S
H167 N147 0.862 . S
O168 Co136 1.920 . S
O168 C141 1.289 . S
C169 O161 1.258 . S
C169 O162 1.266 . S
Co170 O173 1.970 . S
Co170 N187 1.989 . S
Co170 O195 1.967 1_545 S
Co170 O202 1.920 . S
Co171 O174 1.966 . S
Co171 N180 2.022 . S
Co171 N188 1.993 . S
Co171 O196 1.941 1_545 S
C172 O173 1.258 . S
C172 O174 1.263 . S
O173 Co170 1.970 . S
O173 C172 1.258 . S
O174 Co171 1.966 . S
O174 C172 1.263 . S
C175 O176 1.235 . S
C175 O202 1.289 . S
O176 C175 1.235 . S
C177 C179 1.400 . S
C177 N180 1.351 . S
C177 C182 1.501 . S
C178 C179 1.387 . S
C178 N181 1.341 . S
C179 C177 1.400 . S
C179 C178 1.387 . S
N180 Co171 2.022 . S
N180 C177 1.351 . S
N180 N181 1.365 . S
N181 C178 1.341 . S
N181 N180 1.365 . S
N181 H201 0.862 . S
C182 C177 1.501 . S
C182 H183 0.961 . S
C182 H184 0.961 . S
C182 H185 0.960 . S
H183 C182 0.961 . S
H184 C182 0.961 . S
H185 C182 0.960 . S
C186 N187 1.342 . S
C186 C190 1.401 . S
C186 C191 1.499 . S
N187 Co170 1.989 . S
N187 C186 1.342 . S
N187 N188 1.388 . S
N188 Co171 1.993 . S
N188 N187 1.388 . S
N188 C189 1.346 . S
C189 N188 1.346 . S
C189 C190 1.396 . S
C189 C199 1.510 . S
C190 C186 1.401 . S
C190 C189 1.396 . S
C191 C186 1.499 . S
C191 H192 0.959 . S
C191 H193 0.960 . S
C191 H194 0.961 1_545 S
H192 C191 0.959 . S
H193 C191 0.960 . S
H194 C191 0.961 1_565 S
O195 Co170 1.967 1_565 S
O195 C203 1.258 . S
O196 Co171 1.941 1_565 S
O196 C203 1.266 . S
H197 C199 0.959 . S
H198 C199 0.961 . S
C199 C189 1.510 . S
C199 H197 0.959 . S
C199 H198 0.961 . S
C199 H200 0.960 . S
H200 C199 0.960 . S
H201 N181 0.862 . S
O202 Co170 1.920 . S
O202 C175 1.289 . S
C203 O195 1.258 . S
C203 O196 1.266 . S
Co204 O207 1.970 . S
Co204 N221 1.989 . S
Co204 O229 1.967 1_655 S
Co204 O236 1.920 . S
Co205 O208 1.966 . S
Co205 N214 2.022 . S
Co205 N222 1.993 . S
Co205 O230 1.941 1_655 S
C206 O207 1.258 . S
C206 O208 1.263 . S
O207 Co204 1.970 . S
O207 C206 1.258 . S
O208 Co205 1.966 . S
O208 C206 1.263 . S
C209 O210 1.235 . S
C209 O236 1.289 . S
O210 C209 1.235 . S
C211 C213 1.400 . S
C211 N214 1.351 . S
C211 C216 1.501 . S
C212 C213 1.387 . S
C212 N215 1.341 . S
C213 C211 1.400 . S
C213 C212 1.387 . S
N214 Co205 2.022 . S
N214 C211 1.351 . S
N214 N215 1.365 . S
N215 C212 1.341 . S
N215 N214 1.365 . S
N215 H235 0.862 . S
C216 C211 1.501 . S
C216 H217 0.961 . S
C216 H218 0.961 . S
C216 H219 0.960 . S
H217 C216 0.961 . S
H218 C216 0.961 . S
H219 C216 0.960 . S
C220 N221 1.342 . S
C220 C224 1.401 . S
C220 C225 1.499 . S
N221 Co204 1.989 . S
N221 C220 1.342 . S
N221 N222 1.388 . S
N222 Co205 1.993 . S
N222 N221 1.388 . S
N222 C223 1.346 . S
C223 N222 1.346 . S
C223 C224 1.396 . S
C223 C233 1.510 . S
C224 C220 1.401 . S
C224 C223 1.396 . S
C225 C220 1.499 . S
C225 H226 0.959 . S
C225 H227 0.960 . S
C225 H228 0.961 1_655 S
H226 C225 0.959 . S
H227 C225 0.960 . S
H228 C225 0.961 1_455 S
O229 Co204 1.967 1_455 S
O229 C237 1.258 . S
O230 Co205 1.941 1_455 S
O230 C237 1.266 . S
H231 C233 0.959 . S
H232 C233 0.961 . S
C233 C223 1.510 . S
C233 H231 0.959 . S
C233 H232 0.961 . S
C233 H234 0.960 . S
H234 C233 0.960 . S
H235 N215 0.862 . S
O236 Co204 1.920 . S
O236 C209 1.289 . S
C237 O229 1.258 . S
C237 O230 1.266 . S
Co238 O241 1.970 . S
Co238 N255 1.989 . S
Co238 O263 1.967 1_565 S
Co238 O270 1.920 . S
Co239 O242 1.966 . S
Co239 N248 2.022 . S
Co239 N256 1.993 . S
Co239 O264 1.941 1_565 S
C240 O241 1.258 . S
C240 O242 1.263 . S
O241 Co238 1.970 . S
O241 C240 1.258 . S
O242 Co239 1.966 . S
O242 C240 1.263 . S
C243 O244 1.235 . S
C243 O270 1.289 . S
O244 C243 1.235 . S
C245 C247 1.400 . S
C245 N248 1.351 . S
C245 C250 1.501 . S
C246 C247 1.387 . S
C246 N249 1.341 . S
C247 C245 1.400 . S
C247 C246 1.387 . S
N248 Co239 2.022 . S
N248 C245 1.351 . S
N248 N249 1.365 . S
N249 C246 1.341 . S
N249 N248 1.365 . S
N249 H269 0.862 . S
C250 C245 1.501 . S
C250 H251 0.961 . S
C250 H252 0.961 . S
C250 H253 0.960 . S
H251 C250 0.961 . S
H252 C250 0.961 . S
H253 C250 0.960 . S
C254 N255 1.342 . S
C254 C258 1.401 . S
C254 C259 1.499 . S
N255 Co238 1.989 . S
N255 C254 1.342 . S
N255 N256 1.388 . S
N256 Co239 1.993 . S
N256 N255 1.388 . S
N256 C257 1.346 . S
C257 N256 1.346 . S
C257 C258 1.396 . S
C257 C267 1.510 . S
C258 C254 1.401 . S
C258 C257 1.396 . S
C259 C254 1.499 . S
C259 H260 0.959 . S
C259 H261 0.960 . S
C259 H262 0.961 1_565 S
H260 C259 0.959 . S
H261 C259 0.960 . S
H262 C259 0.961 1_545 S
O263 Co238 1.967 1_545 S
O263 C271 1.258 . S
O264 Co239 1.941 1_545 S
O264 C271 1.266 . S
H265 C267 0.959 . S
H266 C267 0.961 . S
C267 C257 1.510 . S
C267 H265 0.959 . S
C267 H266 0.961 . S
C267 H268 0.960 . S
H268 C267 0.960 . S
H269 N249 0.862 . S
O270 Co238 1.920 . S
O270 C243 1.289 . S
C271 O263 1.258 . S
C271 O264 1.266 . S
Co272 O275 1.970 . S
Co272 N289 1.989 . S
Co272 O297 1.967 . S
Co272 O304 1.920 . S
Co273 O276 1.966 . S
Co273 N282 2.022 . S
Co273 N290 1.993 . S
Co273 O298 1.941 . S
C274 O275 1.258 . S
C274 O276 1.263 . S
O275 Co272 1.970 . S
O275 C274 1.258 . S
O276 Co273 1.966 . S
O276 C274 1.263 . S
C277 O278 1.235 . S
C277 O304 1.289 . S
O278 C277 1.235 . S
C279 C281 1.400 . S
C279 N282 1.351 . S
C279 C284 1.501 . S
C280 C281 1.387 . S
C280 N283 1.341 . S
C281 C279 1.400 . S
C281 C280 1.387 . S
N282 Co273 2.022 . S
N282 C279 1.351 . S
N282 N283 1.365 . S
N283 C280 1.341 . S
N283 N282 1.365 . S
N283 H303 0.862 . S
C284 C279 1.501 . S
C284 H285 0.961 . S
C284 H286 0.961 . S
C284 H287 0.960 . S
H285 C284 0.961 . S
H286 C284 0.961 . S
H287 C284 0.960 . S
C288 N289 1.342 . S
C288 C292 1.401 . S
C288 C293 1.499 . S
N289 Co272 1.989 . S
N289 C288 1.342 . S
N289 N290 1.388 . S
N290 Co273 1.993 . S
N290 N289 1.388 . S
N290 C291 1.346 . S
C291 N290 1.346 . S
C291 C292 1.396 . S
C291 C301 1.510 . S
C292 C288 1.401 . S
C292 C291 1.396 . S
C293 C288 1.499 . S
C293 H294 0.959 . S
C293 H295 0.960 . S
C293 H296 0.961 . S
H294 C293 0.959 . S
H295 C293 0.960 . S
H296 C293 0.961 . S
O297 Co272 1.967 . S
O297 C305 1.258 . S
O298 Co273 1.941 . S
O298 C305 1.266 . S
H299 C301 0.959 . S
H300 C301 0.961 . S
C301 C291 1.510 . S
C301 H299 0.959 . S
C301 H300 0.961 . S
C301 H302 0.960 . S
H302 C301 0.960 . S
H303 N283 0.862 . S
O304 Co272 1.920 . S
O304 C277 1.289 . S
C305 O297 1.258 . S
C305 O298 1.266 . S
Co306 O309 1.970 . S
Co306 N323 1.989 . S
Co306 O331 1.967 . S
Co306 O338 1.920 . S
Co307 O310 1.966 . S
Co307 N316 2.022 . S
Co307 N324 1.993 . S
Co307 O332 1.941 . S
C308 O309 1.258 . S
C308 O310 1.263 . S
O309 Co306 1.970 . S
O309 C308 1.258 . S
O310 Co307 1.966 . S
O310 C308 1.263 . S
C311 O312 1.235 . S
C311 O338 1.289 . S
O312 C311 1.235 . S
C313 C315 1.400 . S
C313 N316 1.351 . S
C313 C318 1.501 . S
C314 C315 1.387 . S
C314 N317 1.341 . S
C315 C313 1.400 . S
C315 C314 1.387 . S
N316 Co307 2.022 . S
N316 C313 1.351 . S
N316 N317 1.365 . S
N317 C314 1.341 . S
N317 N316 1.365 . S
N317 H337 0.862 . S
C318 C313 1.501 . S
C318 H319 0.961 . S
C318 H320 0.961 . S
C318 H321 0.960 . S
H319 C318 0.961 . S
H320 C318 0.961 . S
H321 C318 0.960 . S
C322 N323 1.342 . S
C322 C326 1.401 . S
C322 C327 1.499 . S
N323 Co306 1.989 . S
N323 C322 1.342 . S
N323 N324 1.388 . S
N324 Co307 1.993 . S
N324 N323 1.388 . S
N324 C325 1.346 . S
C325 N324 1.346 . S
C325 C326 1.396 . S
C325 C335 1.510 . S
C326 C322 1.401 . S
C326 C325 1.396 . S
C327 C322 1.499 . S
C327 H328 0.959 . S
C327 H329 0.960 . S
C327 H330 0.961 . S
H328 C327 0.959 . S
H329 C327 0.960 . S
H330 C327 0.961 . S
O331 Co306 1.967 . S
O331 C339 1.258 . S
O332 Co307 1.941 . S
O332 C339 1.266 . S
H333 C335 0.959 . S
H334 C335 0.961 . S
C335 C325 1.510 . S
C335 H333 0.959 . S
C335 H334 0.961 . S
C335 H336 0.960 . S
H336 C335 0.960 . S
H337 N317 0.862 . S
O338 Co306 1.920 . S
O338 C311 1.289 . S
C339 O331 1.258 . S
C339 O332 1.266 . S
Co340 O343 1.970 . S
Co340 N357 1.989 . S
Co340 O365 1.967 . S
Co340 O372 1.920 . S
Co341 O344 1.966 . S
Co341 N350 2.022 . S
Co341 N358 1.993 . S
Co341 O366 1.941 . S
C342 O343 1.258 . S
C342 O344 1.263 . S
O343 Co340 1.970 . S
O343 C342 1.258 . S
O344 Co341 1.966 . S
O344 C342 1.263 . S
C345 O346 1.235 . S
C345 O372 1.289 . S
O346 C345 1.235 . S
C347 C349 1.400 . S
C347 N350 1.351 . S
C347 C352 1.501 . S
C348 C349 1.387 . S
C348 N351 1.341 . S
C349 C347 1.400 . S
C349 C348 1.387 . S
N350 Co341 2.022 . S
N350 C347 1.351 . S
N350 N351 1.365 . S
N351 C348 1.341 . S
N351 N350 1.365 . S
N351 H371 0.862 . S
C352 C347 1.501 . S
C352 H353 0.961 . S
C352 H354 0.961 . S
C352 H355 0.960 . S
H353 C352 0.961 . S
H354 C352 0.961 . S
H355 C352 0.960 . S
C356 N357 1.342 . S
C356 C360 1.401 . S
C356 C361 1.499 . S
N357 Co340 1.989 . S
N357 C356 1.342 . S
N357 N358 1.388 . S
N358 Co341 1.993 . S
N358 N357 1.388 . S
N358 C359 1.346 . S
C359 N358 1.346 . S
C359 C360 1.396 . S
C359 C369 1.510 . S
C360 C356 1.401 . S
C360 C359 1.396 . S
C361 C356 1.499 . S
C361 H362 0.959 . S
C361 H363 0.960 . S
C361 H364 0.961 . S
H362 C361 0.959 . S
H363 C361 0.960 . S
H364 C361 0.961 . S
O365 Co340 1.967 . S
O365 C373 1.258 . S
O366 Co341 1.941 . S
O366 C373 1.266 . S
H367 C369 0.959 . S
H368 C369 0.961 . S
C369 C359 1.510 . S
C369 H367 0.959 . S
C369 H368 0.961 . S
C369 H370 0.960 . S
H370 C369 0.960 . S
H371 N351 0.862 . S
O372 Co340 1.920 . S
O372 C345 1.289 . S
C373 O365 1.258 . S
C373 O366 1.266 . S
Co374 O377 1.970 . S
Co374 N391 1.989 . S
Co374 O399 1.967 . S
Co374 O406 1.920 . S
Co375 O378 1.966 . S
Co375 N384 2.022 . S
Co375 N392 1.993 . S
Co375 O400 1.941 . S
C376 O377 1.258 . S
C376 O378 1.263 . S
O377 Co374 1.970 . S
O377 C376 1.258 . S
O378 Co375 1.966 . S
O378 C376 1.263 . S
C379 O380 1.235 . S
C379 O406 1.289 . S
O380 C379 1.235 . S
C381 C383 1.400 . S
C381 N384 1.351 . S
C381 C386 1.501 . S
C382 C383 1.387 . S
C382 N385 1.341 . S
C383 C381 1.400 . S
C383 C382 1.387 . S
N384 Co375 2.022 . S
N384 C381 1.351 . S
N384 N385 1.365 . S
N385 C382 1.341 . S
N385 N384 1.365 . S
N385 H405 0.862 . S
C386 C381 1.501 . S
C386 H387 0.961 . S
C386 H388 0.961 . S
C386 H389 0.960 . S
H387 C386 0.961 . S
H388 C386 0.961 . S
H389 C386 0.960 . S
C390 N391 1.342 . S
C390 C394 1.401 . S
C390 C395 1.499 . S
N391 Co374 1.989 . S
N391 C390 1.342 . S
N391 N392 1.388 . S
N392 Co375 1.993 . S
N392 N391 1.388 . S
N392 C393 1.346 . S
C393 N392 1.346 . S
C393 C394 1.396 . S
C393 C403 1.510 . S
C394 C390 1.401 . S
C394 C393 1.396 . S
C395 C390 1.499 . S
C395 H396 0.959 . S
C395 H397 0.960 . S
C395 H398 0.961 . S
H396 C395 0.959 . S
H397 C395 0.960 . S
H398 C395 0.961 . S
O399 Co374 1.967 . S
O399 C407 1.258 . S
O400 Co375 1.941 . S
O400 C407 1.266 . S
H401 C403 0.959 . S
H402 C403 0.961 . S
C403 C393 1.510 . S
C403 H401 0.959 . S
C403 H402 0.961 . S
C403 H404 0.960 . S
H404 C403 0.960 . S
H405 N385 0.862 . S
O406 Co374 1.920 . S
O406 C379 1.289 . S
C407 O399 1.258 . S
C407 O400 1.266 . S
Co408 O411 1.970 . S
Co408 N425 1.989 . S
Co408 O433 1.967 . S
Co408 O440 1.920 . S
Co409 O412 1.966 . S
Co409 N418 2.022 . S
Co409 N426 1.993 . S
Co409 O434 1.941 . S
C410 O411 1.258 . S
C410 O412 1.263 . S
O411 Co408 1.970 . S
O411 C410 1.258 . S
O412 Co409 1.966 . S
O412 C410 1.263 . S
C413 O414 1.235 . S
C413 O440 1.289 . S
O414 C413 1.235 . S
C415 C417 1.400 . S
C415 N418 1.351 . S
C415 C420 1.501 . S
C416 C417 1.387 . S
C416 N419 1.341 . S
C417 C415 1.400 . S
C417 C416 1.387 . S
N418 Co409 2.022 . S
N418 C415 1.351 . S
N418 N419 1.365 . S
N419 C416 1.341 . S
N419 N418 1.365 . S
N419 H439 0.862 . S
C420 C415 1.501 . S
C420 H421 0.961 . S
C420 H422 0.961 . S
C420 H423 0.960 . S
H421 C420 0.961 . S
H422 C420 0.961 . S
H423 C420 0.960 . S
C424 N425 1.342 . S
C424 C428 1.401 . S
C424 C429 1.499 . S
N425 Co408 1.989 . S
N425 C424 1.342 . S
N425 N426 1.388 . S
N426 Co409 1.993 . S
N426 N425 1.388 . S
N426 C427 1.346 . S
C427 N426 1.346 . S
C427 C428 1.396 . S
C427 C437 1.510 . S
C428 C424 1.401 . S
C428 C427 1.396 . S
C429 C424 1.499 . S
C429 H430 0.959 . S
C429 H431 0.960 . S
C429 H432 0.961 . S
H430 C429 0.959 . S
H431 C429 0.960 . S
H432 C429 0.961 . S
O433 Co408 1.967 . S
O433 C441 1.258 . S
O434 Co409 1.941 . S
O434 C441 1.266 . S
H435 C437 0.959 . S
H436 C437 0.961 . S
C437 C427 1.510 . S
C437 H435 0.959 . S
C437 H436 0.961 . S
C437 H438 0.960 . S
H438 C437 0.960 . S
H439 N419 0.862 . S
O440 Co408 1.920 . S
O440 C413 1.289 . S
C441 O433 1.258 . S
C441 O434 1.266 . S
Co442 O445 1.970 . S
Co442 N459 1.989 . S
Co442 O467 1.967 . S
Co442 O474 1.920 . S
Co443 O446 1.966 . S
Co443 N452 2.022 . S
Co443 N460 1.993 . S
Co443 O468 1.941 . S
C444 O445 1.258 . S
C444 O446 1.263 . S
O445 Co442 1.970 . S
O445 C444 1.258 . S
O446 Co443 1.966 . S
O446 C444 1.263 . S
C447 O448 1.235 . S
C447 O474 1.289 . S
O448 C447 1.235 . S
C449 C451 1.400 . S
C449 N452 1.351 . S
C449 C454 1.501 . S
C450 C451 1.387 . S
C450 N453 1.341 . S
C451 C449 1.400 . S
C451 C450 1.387 . S
N452 Co443 2.022 . S
N452 C449 1.351 . S
N452 N453 1.365 . S
N453 C450 1.341 . S
N453 N452 1.365 . S
N453 H473 0.862 . S
C454 C449 1.501 . S
C454 H455 0.961 . S
C454 H456 0.961 . S
C454 H457 0.960 . S
H455 C454 0.961 . S
H456 C454 0.961 . S
H457 C454 0.960 . S
C458 N459 1.342 . S
C458 C462 1.401 . S
C458 C463 1.499 . S
N459 Co442 1.989 . S
N459 C458 1.342 . S
N459 N460 1.388 . S
N460 Co443 1.993 . S
N460 N459 1.388 . S
N460 C461 1.346 . S
C461 N460 1.346 . S
C461 C462 1.396 . S
C461 C471 1.510 . S
C462 C458 1.401 . S
C462 C461 1.396 . S
C463 C458 1.499 . S
C463 H464 0.959 . S
C463 H465 0.960 . S
C463 H466 0.961 . S
H464 C463 0.959 . S
H465 C463 0.960 . S
H466 C463 0.961 . S
O467 Co442 1.967 . S
O467 C475 1.258 . S
O468 Co443 1.941 . S
O468 C475 1.266 . S
H469 C471 0.959 . S
H470 C471 0.961 . S
C471 C461 1.510 . S
C471 H469 0.959 . S
C471 H470 0.961 . S
C471 H472 0.960 . S
H472 C471 0.960 . S
H473 N453 0.862 . S
O474 Co442 1.920 . S
O474 C447 1.289 . S
C475 O467 1.258 . S
C475 O468 1.266 . S
Co476 O479 1.970 . S
Co476 N493 1.989 . S
Co476 O501 1.967 . S
Co476 O508 1.920 . S
Co477 O480 1.966 . S
Co477 N486 2.022 . S
Co477 N494 1.993 . S
Co477 O502 1.941 . S
C478 O479 1.258 . S
C478 O480 1.263 . S
O479 Co476 1.970 . S
O479 C478 1.258 . S
O480 Co477 1.966 . S
O480 C478 1.263 . S
C481 O482 1.235 . S
C481 O508 1.289 . S
O482 C481 1.235 . S
C483 C485 1.400 . S
C483 N486 1.351 . S
C483 C488 1.501 . S
C484 C485 1.387 . S
C484 N487 1.341 . S
C485 C483 1.400 . S
C485 C484 1.387 . S
N486 Co477 2.022 . S
N486 C483 1.351 . S
N486 N487 1.365 . S
N487 C484 1.341 . S
N487 N486 1.365 . S
N487 H507 0.862 . S
C488 C483 1.501 . S
C488 H489 0.961 . S
C488 H490 0.961 . S
C488 H491 0.960 . S
H489 C488 0.961 . S
H490 C488 0.961 . S
H491 C488 0.960 . S
C492 N493 1.342 . S
C492 C496 1.401 . S
C492 C497 1.499 . S
N493 Co476 1.989 . S
N493 C492 1.342 . S
N493 N494 1.388 . S
N494 Co477 1.993 . S
N494 N493 1.388 . S
N494 C495 1.346 . S
C495 N494 1.346 . S
C495 C496 1.396 . S
C495 C505 1.510 . S
C496 C492 1.401 . S
C496 C495 1.396 . S
C497 C492 1.499 . S
C497 H498 0.959 . S
C497 H499 0.960 . S
C497 H500 0.961 . S
H498 C497 0.959 . S
H499 C497 0.960 . S
H500 C497 0.961 . S
O501 Co476 1.967 . S
O501 C509 1.258 . S
O502 Co477 1.941 . S
O502 C509 1.266 . S
H503 C505 0.959 . S
H504 C505 0.961 . S
C505 C495 1.510 . S
C505 H503 0.959 . S
C505 H504 0.961 . S
C505 H506 0.960 . S
H506 C505 0.960 . S
H507 N487 0.862 . S
O508 Co476 1.920 . S
O508 C481 1.289 . S
C509 O501 1.258 . S
C509 O502 1.266 . S
Co510 O513 1.970 . S
Co510 N527 1.989 . S
Co510 O535 1.967 . S
Co510 O542 1.920 . S
Co511 O514 1.966 . S
Co511 N520 2.022 . S
Co511 N528 1.993 . S
Co511 O536 1.941 . S
C512 O513 1.258 . S
C512 O514 1.263 . S
O513 Co510 1.970 . S
O513 C512 1.258 . S
O514 Co511 1.966 . S
O514 C512 1.263 . S
C515 O516 1.235 . S
C515 O542 1.289 . S
O516 C515 1.235 . S
C517 C519 1.400 . S
C517 N520 1.351 . S
C517 C522 1.501 . S
C518 C519 1.387 . S
C518 N521 1.341 . S
C519 C517 1.400 . S
C519 C518 1.387 . S
N520 Co511 2.022 . S
N520 C517 1.351 . S
N520 N521 1.365 . S
N521 C518 1.341 . S
N521 N520 1.365 . S
N521 H541 0.862 . S
C522 C517 1.501 . S
C522 H523 0.961 . S
C522 H524 0.961 . S
C522 H525 0.960 . S
H523 C522 0.961 . S
H524 C522 0.961 . S
H525 C522 0.960 . S
C526 N527 1.342 . S
C526 C530 1.401 . S
C526 C531 1.499 . S
N527 Co510 1.989 . S
N527 C526 1.342 . S
N527 N528 1.388 . S
N528 Co511 1.993 . S
N528 N527 1.388 . S
N528 C529 1.346 . S
C529 N528 1.346 . S
C529 C530 1.396 . S
C529 C539 1.510 . S
C530 C526 1.401 . S
C530 C529 1.396 . S
C531 C526 1.499 . S
C531 H532 0.959 . S
C531 H533 0.960 . S
C531 H534 0.961 . S
H532 C531 0.959 . S
H533 C531 0.960 . S
H534 C531 0.961 . S
O535 Co510 1.967 . S
O535 C543 1.258 . S
O536 Co511 1.941 . S
O536 C543 1.266 . S
H537 C539 0.959 . S
H538 C539 0.961 . S
C539 C529 1.510 . S
C539 H537 0.959 . S
C539 H538 0.961 . S
C539 H540 0.960 . S
H540 C539 0.960 . S
H541 N521 0.862 . S
O542 Co510 1.920 . S
O542 C515 1.289 . S
C543 O535 1.258 . S
C543 O536 1.266 . S
C544 C545 1.391 1_455 S
C544 C546 1.394 . S
C544 H560 0.931 . S
C545 C544 1.391 1_655 S
C545 C549 1.376 . S
C546 C544 1.394 . S
C546 C547 1.369 1_455 S
C546 C550 1.531 . S
C547 C546 1.369 1_655 S
C547 C548 1.410 . S
C547 C555 1.503 1_655 S
C548 C547 1.410 . S
C548 C549 1.392 . S
C548 C551 1.511 . S
C549 C545 1.376 . S
C549 C548 1.392 . S
C549 H561 0.929 . S
C550 C546 1.531 . S
C550 H562 0.960 . S
C550 H563 0.962 . S
C550 H564 0.960 . S
C551 C548 1.511 . S
C551 H565 0.961 . S
C551 H566 0.961 . S
C551 H567 0.961 . S
C552 C553 1.370 . S
C552 C554 1.363 . S
C552 H568 0.931 . S
C553 C552 1.370 . S
C553 C557 1.399 1_455 S
C554 C552 1.363 . S
C554 C555 1.370 . S
C554 C558 1.524 . S
C555 C547 1.503 1_455 S
C555 C554 1.370 . S
C555 C556 1.403 1_455 S
C556 C555 1.403 1_655 S
C556 C557 1.408 . S
C556 C559 1.539 . S
C557 C553 1.399 1_655 S
C557 C556 1.408 . S
C557 H569 0.935 . S
C558 C554 1.524 . S
C558 H570 0.956 . S
C558 H571 0.961 . S
C558 H572 0.961 . S
C559 C556 1.539 . S
C559 H573 0.958 . S
C559 H574 0.961 . S
C559 H575 0.960 . S
H560 C544 0.931 . S
H561 C549 0.929 . S
H562 C550 0.960 . S
H563 C550 0.962 . S
H564 C550 0.960 . S
H565 C551 0.961 . S
H566 C551 0.961 . S
H567 C551 0.961 . S
H568 C552 0.931 . S
H569 C557 0.935 . S
H570 C558 0.956 . S
H571 C558 0.961 . S
H572 C558 0.961 . S
H573 C559 0.958 . S
H574 C559 0.961 . S
H575 C559 0.960 . S
C576 C577 1.391 . S
C576 C578 1.394 . S
C576 H592 0.931 . S
C577 C576 1.391 . S
C577 C581 1.376 1_545 S
C578 C576 1.394 . S
C578 C579 1.371 . S
C578 C582 1.531 . S
C579 C578 1.371 . S
C579 C580 1.408 1_545 S
C579 C587 1.503 1_545 S
C580 C579 1.408 1_565 S
C580 C581 1.392 . S
C580 C583 1.511 . S
C581 C577 1.376 1_565 S
C581 C580 1.392 . S
C581 H593 0.929 . S
C582 C578 1.531 . S
C582 H594 0.960 . S
C582 H595 0.962 . S
C582 H596 0.960 . S
C583 C580 1.511 . S
C583 H597 0.961 . S
C583 H598 0.961 . S
C583 H599 0.961 . S
C584 C585 1.368 . S
C584 C586 1.364 1_565 S
C584 H600 0.933 1_565 S
C585 C584 1.368 . S
C585 C589 1.408 . S
C586 C584 1.364 1_545 S
C586 C587 1.370 1_545 S
C586 C590 1.524 . S
C587 C579 1.503 1_565 S
C587 C586 1.370 1_565 S
C587 C588 1.403 . S
C588 C587 1.403 . S
C588 C589 1.404 . S
C588 C591 1.539 . S
C589 C585 1.408 . S
C589 C588 1.404 . S
C589 H601 0.930 . S
C590 C586 1.524 . S
C590 H602 0.956 . S
C590 H603 0.961 . S
C590 H604 0.961 . S
C591 C588 1.539 . S
C591 H605 0.958 . S
C591 H606 0.961 . S
C591 H607 0.960 . S
H592 C576 0.931 . S
H593 C581 0.929 . S
H594 C582 0.960 . S
H595 C582 0.962 . S
H596 C582 0.960 . S
H597 C583 0.961 . S
H598 C583 0.961 . S
H599 C583 0.961 . S
H600 C584 0.933 1_545 S
H601 C589 0.930 . S
H602 C590 0.956 . S
H603 C590 0.961 . S
H604 C590 0.961 . S
H605 C591 0.958 . S
H606 C591 0.961 . S
H607 C591 0.960 . S
C608 C609 1.391 . S
C608 C610 1.394 . S
C608 H624 0.931 . S
C609 C608 1.391 . S
C609 C613 1.376 1_655 S
C610 C608 1.394 . S
C610 C611 1.369 . S
C610 C614 1.531 . S
C611 C610 1.369 . S
C611 C612 1.410 1_655 S
C611 C619 1.503 1_655 S
C612 C611 1.410 1_455 S
C612 C613 1.392 . S
C612 C615 1.511 . S
C613 C609 1.376 1_455 S
C613 C612 1.392 . S
C613 H625 0.929 . S
C614 C610 1.531 . S
C614 H626 0.960 . S
C614 H627 0.962 . S
C614 H628 0.960 . S
C615 C612 1.511 . S
C615 H629 0.961 . S
C615 H630 0.961 . S
C615 H631 0.961 . S
C616 C617 1.370 . S
C616 C618 1.363 . S
C616 H632 0.931 . S
C617 C616 1.370 . S
C617 C621 1.408 . S
C618 C616 1.363 . S
C618 C619 1.370 . S
C618 C622 1.524 . S
C619 C611 1.503 1_455 S
C619 C618 1.370 . S
C619 C620 1.403 . S
C620 C619 1.403 . S
C620 C621 1.404 . S
C620 C623 1.539 . S
C621 C617 1.408 . S
C621 C620 1.404 . S
C621 H633 0.930 . S
C622 C618 1.524 . S
C622 H634 0.956 1_455 S
C622 H635 0.961 . S
C622 H636 0.961 . S
C623 C620 1.539 . S
C623 H637 0.958 1_455 S
C623 H638 0.961 . S
C623 H639 0.960 . S
H624 C608 0.931 . S
H625 C613 0.929 . S
H626 C614 0.960 . S
H627 C614 0.962 . S
H628 C614 0.960 . S
H629 C615 0.961 . S
H630 C615 0.961 . S
H631 C615 0.961 . S
H632 C616 0.931 . S
H633 C621 0.930 . S
H634 C622 0.956 1_655 S
H635 C622 0.961 . S
H636 C622 0.961 . S
H637 C623 0.958 1_655 S
H638 C623 0.961 . S
H639 C623 0.960 . S
C640 C641 1.391 . S
C640 C642 1.394 . S
C640 H656 0.931 . S
C641 C640 1.391 . S
C641 C645 1.376 1_565 S
C642 C640 1.394 . S
C642 C643 1.369 . S
C642 C646 1.531 . S
C643 C642 1.369 . S
C643 C644 1.410 1_565 S
C643 C651 1.503 1_565 S
C644 C643 1.410 1_545 S
C644 C645 1.392 . S
C644 C647 1.511 . S
C645 C641 1.376 1_545 S
C645 C644 1.392 . S
C645 H657 0.929 . S
C646 C642 1.531 . S
C646 H658 0.960 . S
C646 H659 0.962 . S
C646 H660 0.960 . S
C647 C644 1.511 . S
C647 H661 0.961 . S
C647 H662 0.961 . S
C647 H663 0.961 . S
C648 C649 1.370 . S
C648 C650 1.363 1_545 S
C648 H664 0.931 1_545 S
C649 C648 1.370 . S
C649 C653 1.408 . S
C650 C648 1.363 1_565 S
C650 C651 1.370 1_565 S
C650 C654 1.524 . S
C651 C643 1.503 1_545 S
C651 C650 1.370 1_545 S
C651 C652 1.403 . S
C652 C651 1.403 . S
C652 C653 1.404 . S
C652 C655 1.539 . S
C653 C649 1.408 . S
C653 C652 1.404 . S
C653 H665 0.930 . S
C654 C650 1.524 . S
C654 H666 0.956 . S
C654 H667 0.961 . S
C654 H668 0.961 . S
C655 C652 1.539 . S
C655 H669 0.958 . S
C655 H670 0.961 . S
C655 H671 0.960 . S
H656 C640 0.931 . S
H657 C645 0.929 . S
H658 C646 0.960 . S
H659 C646 0.962 . S
H660 C646 0.960 . S
H661 C647 0.961 . S
H662 C647 0.961 . S
H663 C647 0.961 . S
H664 C648 0.931 1_565 S
H665 C653 0.930 . S
H666 C654 0.956 . S
H667 C654 0.961 . S
H668 C654 0.961 . S
H669 C655 0.958 . S
H670 C655 0.961 . S
H671 C655 0.960 . S
C672 C673 1.391 . S
C672 C674 1.394 . S
C672 H688 0.931 . S
C673 C672 1.391 . S
C673 C677 1.376 . S
C674 C672 1.394 . S
C674 C675 1.369 . S
C674 C678 1.531 . S
C675 C674 1.369 . S
C675 C676 1.410 . S
C675 C683 1.503 1_565 S
C676 C675 1.410 . S
C676 C677 1.392 . S
C676 C679 1.511 . S
C677 C673 1.376 . S
C677 C676 1.392 . S
C677 H689 0.929 . S
C678 C674 1.531 . S
C678 H690 0.960 1_565 S
C678 H691 0.962 . S
C678 H692 0.960 . S
C679 C676 1.511 . S
C679 H693 0.961 . S
C679 H694 0.961 1_565 S
C679 H695 0.970 . S
C680 C681 1.370 . S
C680 C682 1.363 . S
C680 H696 0.931 . S
C681 C680 1.370 . S
C681 C685 1.408 . S
C682 C680 1.363 . S
C682 C683 1.370 . S
C682 C686 1.524 1_545 S
C683 C675 1.503 1_545 S
C683 C682 1.370 . S
C683 C684 1.403 . S
C684 C683 1.403 . S
C684 C685 1.404 . S
C684 C687 1.539 . S
C685 C681 1.408 . S
C685 C684 1.404 . S
C685 H697 0.930 . S
C686 C682 1.524 1_565 S
C686 H698 0.956 . S
C686 H699 0.961 . S
C686 H700 0.961 1_565 S
C687 C684 1.539 . S
C687 H701 0.958 . S
C687 H702 0.961 . S
C687 H703 0.960 . S
H688 C672 0.931 . S
H689 C677 0.929 . S
H690 C678 0.960 1_545 S
H691 C678 0.962 . S
H692 C678 0.960 . S
H693 C679 0.961 . S
H694 C679 0.961 1_545 S
H695 C679 0.970 . S
H696 C680 0.931 . S
H697 C685 0.930 . S
H698 C686 0.956 . S
H699 C686 0.961 . S
H700 C686 0.961 1_545 S
H701 C687 0.958 . S
H702 C687 0.961 . S
H703 C687 0.960 . S
C704 C705 1.391 . S
C704 C706 1.394 . S
C704 H720 0.931 . S
C705 C704 1.391 . S
C705 C709 1.376 . S
C706 C704 1.394 . S
C706 C707 1.369 . S
C706 C710 1.531 . S
C707 C706 1.369 . S
C707 C708 1.410 . S
C707 C715 1.503 1_655 S
C708 C707 1.410 . S
C708 C709 1.392 . S
C708 C711 1.511 . S
C709 C705 1.376 . S
C709 C708 1.392 . S
C709 H721 0.929 . S
C710 C706 1.531 . S
C710 H722 0.960 1_655 S
C710 H723 0.962 1_655 S
C710 H724 0.960 . S
C711 C708 1.511 . S
C711 H725 0.961 . S
C711 H726 0.961 . S
C711 H727 0.961 . S
C712 C713 1.370 . S
C712 C714 1.363 . S
C712 H728 0.931 . S
C713 C712 1.370 . S
C713 C717 1.408 . S
C714 C712 1.363 . S
C714 C715 1.370 . S
C714 C718 1.524 . S
C715 C707 1.503 1_455 S
C715 C714 1.370 . S
C715 C716 1.403 . S
C716 C715 1.403 . S
C716 C717 1.404 . S
C716 C719 1.539 . S
C717 C713 1.408 . S
C717 C716 1.404 . S
C717 H729 0.930 . S
C718 C714 1.524 . S
C718 H730 0.956 . S
C718 H731 0.961 . S
C718 H732 0.961 . S
C719 C716 1.539 . S
C719 H733 0.958 . S
C719 H734 0.961 . S
C719 H735 0.960 1_455 S
H720 C704 0.931 . S
H721 C709 0.929 . S
H722 C710 0.960 1_455 S
H723 C710 0.962 1_455 S
H724 C710 0.960 . S
H725 C711 0.961 . S
H726 C711 0.961 . S
H727 C711 0.961 . S
H728 C712 0.931 . S
H729 C717 0.930 . S
H730 C718 0.956 . S
H731 C718 0.961 . S
H732 C718 0.961 . S
H733 C719 0.958 . S
H734 C719 0.961 . S
H735 C719 0.960 1_655 S
C736 C737 1.391 . S
C736 C738 1.394 . S
C736 H752 0.931 . S
C737 C736 1.391 . S
C737 C741 1.376 . S
C738 C736 1.394 . S
C738 C739 1.369 . S
C738 C742 1.531 . S
C739 C738 1.369 . S
C739 C740 1.410 . S
C739 C747 1.503 1_565 S
C740 C739 1.410 . S
C740 C741 1.392 . S
C740 C743 1.511 . S
C741 C737 1.376 . S
C741 C740 1.392 . S
C741 H753 0.929 . S
C742 C738 1.531 . S
C742 H754 0.960 . S
C742 H755 0.962 . S
C742 H756 0.960 . S
C743 C740 1.511 . S
C743 H757 0.961 . S
C743 H758 0.961 1_565 S
C743 H759 0.961 1_565 S
C744 C745 1.370 . S
C744 C746 1.363 . S
C744 H760 0.931 . S
C745 C744 1.370 . S
C745 C749 1.408 . S
C746 C744 1.363 . S
C746 C747 1.370 . S
C746 C750 1.524 . S
C747 C739 1.503 1_545 S
C747 C746 1.370 . S
C747 C748 1.403 . S
C748 C747 1.403 . S
C748 C749 1.404 . S
C748 C751 1.539 . S
C749 C745 1.408 . S
C749 C748 1.404 . S
C749 H761 0.930 . S
C750 C746 1.524 . S
C750 H762 0.956 1_545 S
C750 H763 0.961 1_545 S
C750 H764 0.961 . S
C751 C748 1.539 . S
C751 H765 0.958 . S
C751 H766 0.961 . S
C751 H767 0.960 . S
H752 C736 0.931 . S
H753 C741 0.929 . S
H754 C742 0.960 . S
H755 C742 0.962 . S
H756 C742 0.960 . S
H757 C743 0.961 . S
H758 C743 0.961 1_545 S
H759 C743 0.961 1_545 S
H760 C744 0.931 . S
H761 C749 0.930 . S
H762 C750 0.956 1_565 S
H763 C750 0.961 1_565 S
H764 C750 0.961 . S
H765 C751 0.958 . S
H766 C751 0.961 . S
H767 C751 0.960 . S
C768 C769 1.391 . S
C768 C770 1.394 . S
C768 H784 0.931 . S
C769 C768 1.391 . S
C769 C773 1.376 . S
C770 C768 1.394 . S
C770 C771 1.369 . S
C770 C774 1.531 . S
C771 C770 1.369 . S
C771 C772 1.410 . S
C771 C779 1.503 1_655 S
C772 C771 1.410 . S
C772 C773 1.392 . S
C772 C775 1.511 . S
C773 C769 1.376 . S
C773 C772 1.392 . S
C773 H785 0.929 . S
C774 C770 1.531 . S
C774 H786 0.960 1_655 S
C774 H787 0.962 . S
C774 H788 0.960 . S
C775 C772 1.511 . S
C775 H789 0.961 . S
C775 H790 0.961 1_655 S
C775 H791 0.961 . S
C776 C777 1.370 . S
C776 C778 1.363 . S
C776 H792 0.931 . S
C777 C776 1.370 . S
C777 C781 1.408 . S
C778 C776 1.363 . S
C778 C779 1.370 . S
C778 C782 1.524 1_455 S
C779 C771 1.503 1_455 S
C779 C778 1.370 . S
C779 C780 1.403 . S
C780 C779 1.403 . S
C780 C781 1.404 . S
C780 C783 1.539 . S
C781 C777 1.408 . S
C781 C780 1.404 . S
C781 H793 0.930 . S
C782 C778 1.524 1_655 S
C782 H794 0.956 . S
C782 H795 0.961 . S
C782 H796 0.961 1_655 S
C783 C780 1.539 . S
C783 H797 0.958 . S
C783 H798 0.961 . S
C783 H799 0.960 . S
H784 C768 0.931 . S
H785 C773 0.929 . S
H786 C774 0.960 1_455 S
H787 C774 0.962 . S
H788 C774 0.960 . S
H789 C775 0.961 . S
H790 C775 0.961 1_455 S
H791 C775 0.961 . S
H792 C776 0.931 . S
H793 C781 0.930 . S
H794 C782 0.956 . S
H795 C782 0.961 . S
H796 C782 0.961 1_455 S
H797 C783 0.958 . S
H798 C783 0.961 . S
H799 C783 0.960 . S
C800 C801 1.391 . S
C800 C802 1.394 . S
C800 H816 0.931 . S
C801 C800 1.391 . S
C801 C805 1.376 . S
C802 C800 1.394 . S
C802 C803 1.369 . S
C802 C806 1.531 . S
C803 C802 1.369 . S
C803 C804 1.410 . S
C803 C811 1.503 . S
C804 C803 1.410 . S
C804 C805 1.392 . S
C804 C807 1.511 . S
C805 C801 1.376 . S
C805 C804 1.392 . S
C805 H817 0.929 . S
C806 C802 1.531 . S
C806 H818 0.960 . S
C806 H819 0.962 . S
C806 H820 0.960 . S
C807 C804 1.511 . S
C807 H821 0.961 . S
C807 H822 0.961 . S
C807 H823 0.961 . S
C808 C809 1.370 . S
C808 C810 1.363 . S
C808 H824 0.931 . S
C809 C808 1.370 . S
C809 C813 1.408 . S
C810 C808 1.363 . S
C810 C811 1.370 . S
C810 C814 1.524 . S
C811 C803 1.503 . S
C811 C810 1.370 . S
C811 C812 1.403 . S
C812 C811 1.403 . S
C812 C813 1.404 . S
C812 C815 1.539 . S
C813 C809 1.408 . S
C813 C812 1.404 . S
C813 H825 0.930 . S
C814 C810 1.524 . S
C814 H826 0.956 . S
C814 H827 0.961 . S
C814 H828 0.961 . S
C815 C812 1.539 . S
C815 H829 0.958 . S
C815 H830 0.961 . S
C815 H831 0.960 . S
H816 C800 0.931 . S
H817 C805 0.929 . S
H818 C806 0.960 . S
H819 C806 0.962 . S
H820 C806 0.960 . S
H821 C807 0.961 . S
H822 C807 0.961 . S
H823 C807 0.961 . S
H824 C808 0.931 . S
H825 C813 0.930 . S
H826 C814 0.956 . S
H827 C814 0.961 . S
H828 C814 0.961 . S
H829 C815 0.958 . S
H830 C815 0.961 . S
H831 C815 0.960 . S
C832 C833 1.391 . S
C832 C834 1.394 . S
C832 H848 0.931 . S
C833 C832 1.391 . S
C833 C837 1.376 . S
C834 C832 1.394 . S
C834 C835 1.369 . S
C834 C838 1.531 . S
C835 C834 1.369 . S
C835 C836 1.410 . S
C835 C843 1.503 . S
C836 C835 1.410 . S
C836 C837 1.392 . S
C836 C839 1.511 . S
C837 C833 1.376 . S
C837 C836 1.392 . S
C837 H849 0.929 . S
C838 C834 1.531 . S
C838 H850 0.960 . S
C838 H851 0.962 . S
C838 H852 0.960 . S
C839 C836 1.511 . S
C839 H853 0.961 . S
C839 H854 0.961 . S
C839 H855 0.961 . S
C840 C841 1.370 . S
C840 C842 1.363 . S
C840 H856 0.931 . S
C841 C840 1.370 . S
C841 C845 1.408 . S
C842 C840 1.363 . S
C842 C843 1.370 . S
C842 C846 1.524 . S
C843 C835 1.503 . S
C843 C842 1.370 . S
C843 C844 1.403 . S
C844 C843 1.403 . S
C844 C845 1.404 . S
C844 C847 1.539 . S
C845 C841 1.408 . S
C845 C844 1.404 . S
C845 H857 0.930 . S
C846 C842 1.524 . S
C846 H858 0.956 . S
C846 H859 0.961 . S
C846 H860 0.961 . S
C847 C844 1.539 . S
C847 H861 0.958 . S
C847 H862 0.961 . S
C847 H863 0.960 . S
H848 C832 0.931 . S
H849 C837 0.929 . S
H850 C838 0.960 . S
H851 C838 0.962 . S
H852 C838 0.960 . S
H853 C839 0.961 . S
H854 C839 0.961 . S
H855 C839 0.961 . S
H856 C840 0.931 . S
H857 C845 0.930 . S
H858 C846 0.956 . S
H859 C846 0.961 . S
H860 C846 0.961 . S
H861 C847 0.958 . S
H862 C847 0.961 . S
H863 C847 0.960 . S
C864 C865 1.391 . S
C864 C866 1.394 . S
C864 H880 0.931 . S
C865 C864 1.391 . S
C865 C869 1.376 . S
C866 C864 1.394 . S
C866 C867 1.369 . S
C866 C870 1.531 . S
C867 C866 1.369 . S
C867 C868 1.410 . S
C867 C875 1.503 . S
C868 C867 1.410 . S
C868 C869 1.392 . S
C868 C871 1.511 . S
C869 C865 1.376 . S
C869 C868 1.392 . S
C869 H881 0.929 . S
C870 C866 1.531 . S
C870 H882 0.960 . S
C870 H883 0.962 . S
C870 H884 0.960 . S
C871 C868 1.511 . S
C871 H885 0.961 . S
C871 H886 0.961 . S
C871 H887 0.961 . S
C872 C873 1.370 . S
C872 C874 1.363 . S
C872 H888 0.931 . S
C873 C872 1.370 . S
C873 C877 1.408 . S
C874 C872 1.363 . S
C874 C875 1.370 . S
C874 C878 1.524 . S
C875 C867 1.503 . S
C875 C874 1.370 . S
C875 C876 1.403 . S
C876 C875 1.403 . S
C876 C877 1.404 . S
C876 C879 1.539 . S
C877 C873 1.408 . S
C877 C876 1.404 . S
C877 H889 0.930 . S
C878 C874 1.524 . S
C878 H890 0.956 . S
C878 H891 0.961 . S
C878 H892 0.961 . S
C879 C876 1.539 . S
C879 H893 0.958 . S
C879 H894 0.961 . S
C879 H895 0.960 . S
H880 C864 0.931 . S
H881 C869 0.929 . S
H882 C870 0.960 . S
H883 C870 0.962 . S
H884 C870 0.960 . S
H885 C871 0.961 . S
H886 C871 0.961 . S
H887 C871 0.961 . S
H888 C872 0.931 . S
H889 C877 0.930 . S
H890 C878 0.956 . S
H891 C878 0.961 . S
H892 C878 0.961 . S
H893 C879 0.958 . S
H894 C879 0.961 . S
H895 C879 0.960 . S
C896 C897 1.391 . S
C896 C898 1.394 . S
C896 H912 0.931 . S
C897 C896 1.391 . S
C897 C901 1.376 . S
C898 C896 1.394 . S
C898 C899 1.369 . S
C898 C902 1.531 . S
C899 C898 1.369 . S
C899 C900 1.410 . S
C899 C907 1.503 . S
C900 C899 1.410 . S
C900 C901 1.392 . S
C900 C903 1.511 . S
C901 C897 1.376 . S
C901 C900 1.392 . S
C901 H913 0.929 . S
C902 C898 1.531 . S
C902 H914 0.960 . S
C902 H915 0.962 . S
C902 H916 0.960 . S
C903 C900 1.511 . S
C903 H917 0.961 . S
C903 H918 0.961 . S
C903 H919 0.961 . S
C904 C905 1.370 . S
C904 C906 1.363 . S
C904 H920 0.931 . S
C905 C904 1.370 . S
C905 C909 1.408 . S
C906 C904 1.363 . S
C906 C907 1.370 . S
C906 C910 1.524 . S
C907 C899 1.503 . S
C907 C906 1.370 . S
C907 C908 1.403 . S
C908 C907 1.403 . S
C908 C909 1.404 . S
C908 C911 1.539 . S
C909 C905 1.408 . S
C909 C908 1.404 . S
C909 H921 0.930 . S
C910 C906 1.524 . S
C910 H922 0.956 . S
C910 H923 0.961 . S
C910 H924 0.961 . S
C911 C908 1.539 . S
C911 H925 0.958 . S
C911 H926 0.961 . S
C911 H927 0.960 . S
H912 C896 0.931 . S
H913 C901 0.929 . S
H914 C902 0.960 . S
H915 C902 0.962 . S
H916 C902 0.960 . S
H917 C903 0.961 . S
H918 C903 0.961 . S
H919 C903 0.961 . S
H920 C904 0.931 . S
H921 C909 0.930 . S
H922 C910 0.956 . S
H923 C910 0.961 . S
H924 C910 0.961 . S
H925 C911 0.958 . S
H926 C911 0.961 . S
H927 C911 0.960 . S
C928 C929 1.391 . S
C928 C930 1.394 . S
C928 H944 0.931 . S
C929 C928 1.391 . S
C929 C933 1.376 . S
C930 C928 1.394 . S
C930 C931 1.369 . S
C930 C934 1.531 . S
C931 C930 1.369 . S
C931 C932 1.410 . S
C931 C939 1.503 . S
C932 C931 1.410 . S
C932 C933 1.392 . S
C932 C935 1.511 . S
C933 C929 1.376 . S
C933 C932 1.392 . S
C933 H945 0.929 . S
C934 C930 1.531 . S
C934 H946 0.960 . S
C934 H947 0.962 . S
C934 H948 0.960 . S
C935 C932 1.511 . S
C935 H949 0.961 . S
C935 H950 0.961 . S
C935 H951 0.961 . S
C936 C937 1.370 . S
C936 C938 1.363 . S
C936 H952 0.931 . S
C937 C936 1.370 . S
C937 C941 1.408 . S
C938 C936 1.363 . S
C938 C939 1.370 . S
C938 C942 1.524 . S
C939 C931 1.503 . S
C939 C938 1.370 . S
C939 C940 1.403 . S
C940 C939 1.403 . S
C940 C941 1.404 . S
C940 C943 1.539 . S
C941 C937 1.408 . S
C941 C940 1.404 . S
C941 H953 0.930 . S
C942 C938 1.524 . S
C942 H954 0.956 . S
C942 H955 0.961 . S
C942 H956 0.961 . S
C943 C940 1.539 . S
C943 H957 0.958 . S
C943 H958 0.961 . S
C943 H959 0.960 . S
H944 C928 0.931 . S
H945 C933 0.929 . S
H946 C934 0.960 . S
H947 C934 0.962 . S
H948 C934 0.960 . S
H949 C935 0.961 . S
H950 C935 0.961 . S
H951 C935 0.961 . S
H952 C936 0.931 . S
H953 C941 0.930 . S
H954 C942 0.956 . S
H955 C942 0.961 . S
H956 C942 0.961 . S
H957 C943 0.958 . S
H958 C943 0.961 . S
H959 C943 0.960 . S
C960 C961 1.391 . S
C960 C962 1.394 . S
C960 H976 0.931 . S
C961 C960 1.391 . S
C961 C965 1.376 . S
C962 C960 1.394 . S
C962 C963 1.369 . S
C962 C966 1.531 . S
C963 C962 1.369 . S
C963 C964 1.410 . S
C963 C971 1.503 . S
C964 C963 1.410 . S
C964 C965 1.392 . S
C964 C967 1.511 . S
C965 C961 1.376 . S
C965 C964 1.392 . S
C965 H977 0.929 . S
C966 C962 1.531 . S
C966 H978 0.960 . S
C966 H979 0.962 . S
C966 H980 0.960 . S
C967 C964 1.511 . S
C967 H981 0.961 . S
C967 H982 0.961 . S
C967 H983 0.961 . S
C968 C969 1.370 . S
C968 C970 1.363 . S
C968 H984 0.931 . S
C969 C968 1.370 . S
C969 C973 1.408 . S
C970 C968 1.363 . S
C970 C971 1.370 . S
C970 C974 1.524 . S
C971 C963 1.503 . S
C971 C970 1.370 . S
C971 C972 1.403 . S
C972 C971 1.403 . S
C972 C973 1.404 . S
C972 C975 1.539 . S
C973 C969 1.408 . S
C973 C972 1.404 . S
C973 H985 0.930 . S
C974 C970 1.524 . S
C974 H986 0.956 . S
C974 H987 0.961 . S
C974 H988 0.961 . S
C975 C972 1.539 . S
C975 H989 0.958 . S
C975 H990 0.961 . S
C975 H991 0.960 . S
H976 C960 0.931 . S
H977 C965 0.929 . S
H978 C966 0.960 . S
H979 C966 0.962 . S
H980 C966 0.960 . S
H981 C967 0.961 . S
H982 C967 0.961 . S
H983 C967 0.961 . S
H984 C968 0.931 . S
H985 C973 0.930 . S
H986 C974 0.956 . S
H987 C974 0.961 . S
H988 C974 0.961 . S
H989 C975 0.958 . S
H990 C975 0.961 . S
H991 C975 0.960 . S
C992 C993 1.391 . S
C992 C994 1.394 . S
C992 H1008 0.931 . S
C993 C992 1.391 . S
C993 C997 1.376 . S
C994 C992 1.394 . S
C994 C995 1.369 . S
C994 C998 1.531 . S
C995 C994 1.369 . S
C995 C996 1.410 . S
C995 C1003 1.503 . S
C996 C995 1.410 . S
C996 C997 1.392 . S
C996 C999 1.511 . S
C997 C993 1.376 . S
C997 C996 1.392 . S
C997 H1009 0.929 . S
C998 C994 1.531 . S
C998 H1010 0.960 . S
C998 H1011 0.962 . S
C998 H1012 0.960 . S
C999 C996 1.511 . S
C999 H1013 0.961 . S
C999 H1014 0.961 . S
C999 H1015 0.961 . S
C1000 C1001 1.370 . S
C1000 C1002 1.363 . S
C1000 H1016 0.931 . S
C1001 C1000 1.370 . S
C1001 C1005 1.408 . S
C1002 C1000 1.363 . S
C1002 C1003 1.370 . S
C1002 C1006 1.524 . S
C1003 C995 1.503 . S
C1003 C1002 1.370 . S
C1003 C1004 1.403 . S
C1004 C1003 1.403 . S
C1004 C1005 1.404 . S
C1004 C1007 1.539 . S
C1005 C1001 1.408 . S
C1005 C1004 1.404 . S
C1005 H1017 0.930 . S
C1006 C1002 1.524 . S
C1006 H1018 0.956 . S
C1006 H1019 0.961 . S
C1006 H1020 0.961 . S
C1007 C1004 1.539 . S
C1007 H1021 0.958 . S
C1007 H1022 0.961 . S
C1007 H1023 0.960 . S
H1008 C992 0.931 . S
H1009 C997 0.929 . S
H1010 C998 0.960 . S
H1011 C998 0.962 . S
H1012 C998 0.960 . S
H1013 C999 0.961 . S
H1014 C999 0.961 . S
H1015 C999 0.961 . S
H1016 C1000 0.931 . S
H1017 C1005 0.930 . S
H1018 C1006 0.956 . S
H1019 C1006 0.961 . S
H1020 C1006 0.961 . S
H1021 C1007 0.958 . S
H1022 C1007 0.961 . S
H1023 C1007 0.960 . S
C1024 C1025 1.391 . S
C1024 C1026 1.394 . S
C1024 H1040 0.931 . S
C1025 C1024 1.391 . S
C1025 C1029 1.376 . S
C1026 C1024 1.394 . S
C1026 C1027 1.369 . S
C1026 C1030 1.531 . S
C1027 C1026 1.369 . S
C1027 C1028 1.410 . S
C1027 C1035 1.503 . S
C1028 C1027 1.410 . S
C1028 C1029 1.392 . S
C1028 C1031 1.511 . S
C1029 C1025 1.376 . S
C1029 C1028 1.392 . S
C1029 H1041 0.929 . S
C1030 C1026 1.531 . S
C1030 H1042 0.960 . S
C1030 H1043 0.962 . S
C1030 H1044 0.960 . S
C1031 C1028 1.511 . S
C1031 H1045 0.961 . S
C1031 H1046 0.961 . S
C1031 H1047 0.961 . S
C1032 C1033 1.370 . S
C1032 C1034 1.363 . S
C1032 H1048 0.931 . S
C1033 C1032 1.370 . S
C1033 C1037 1.408 . S
C1034 C1032 1.363 . S
C1034 C1035 1.370 . S
C1034 C1038 1.524 . S
C1035 C1027 1.503 . S
C1035 C1034 1.370 . S
C1035 C1036 1.403 . S
C1036 C1035 1.403 . S
C1036 C1037 1.404 . S
C1036 C1039 1.539 . S
C1037 C1033 1.408 . S
C1037 C1036 1.404 . S
C1037 H1049 0.930 . S
C1038 C1034 1.524 . S
C1038 H1050 0.956 . S
C1038 H1051 0.961 . S
C1038 H1052 0.961 . S
C1039 C1036 1.539 . S
C1039 H1053 0.958 . S
C1039 H1054 0.961 . S
C1039 H1055 0.960 . S
H1040 C1024 0.931 . S
H1041 C1029 0.929 . S
H1042 C1030 0.960 . S
H1043 C1030 0.962 . S
H1044 C1030 0.960 . S
H1045 C1031 0.961 . S
H1046 C1031 0.961 . S
H1047 C1031 0.961 . S
H1048 C1032 0.931 . S
H1049 C1037 0.930 . S
H1050 C1038 0.956 . S
H1051 C1038 0.961 . S
H1052 C1038 0.961 . S
H1053 C1039 0.958 . S
H1054 C1039 0.961 . S
H1055 C1039 0.960 . S
C1056 C1057 1.391 . S
C1056 C1058 1.394 . S
C1056 H1072 0.931 . S
C1057 C1056 1.391 . S
C1057 C1061 1.376 . S
C1058 C1056 1.394 . S
C1058 C1059 1.369 . S
C1058 C1062 1.531 . S
C1059 C1058 1.369 . S
C1059 C1060 1.410 . S
C1059 C1067 1.503 . S
C1060 C1059 1.410 . S
C1060 C1061 1.392 . S
C1060 C1063 1.511 . S
C1061 C1057 1.376 . S
C1061 C1060 1.392 . S
C1061 H1073 0.929 . S
C1062 C1058 1.531 . S
C1062 H1074 0.960 . S
C1062 H1075 0.962 . S
C1062 H1076 0.960 . S
C1063 C1060 1.511 . S
C1063 H1077 0.961 . S
C1063 H1078 0.961 . S
C1063 H1079 0.961 . S
C1064 C1065 1.370 . S
C1064 C1066 1.363 . S
C1064 H1080 0.931 . S
C1065 C1064 1.370 . S
C1065 C1069 1.408 . S
C1066 C1064 1.363 . S
C1066 C1067 1.370 . S
C1066 C1070 1.524 . S
C1067 C1059 1.503 . S
C1067 C1066 1.370 . S
C1067 C1068 1.403 . S
C1068 C1067 1.403 . S
C1068 C1069 1.404 . S
C1068 C1071 1.539 . S
C1069 C1065 1.408 . S
C1069 C1068 1.404 . S
C1069 H1081 0.930 . S
C1070 C1066 1.524 . S
C1070 H1082 0.956 . S
C1070 H1083 0.961 . S
C1070 H1084 0.961 . S
C1071 C1068 1.539 . S
C1071 H1085 0.958 . S
C1071 H1086 0.961 . S
C1071 H1087 0.960 . S
H1072 C1056 0.931 . S
H1073 C1061 0.929 . S
H1074 C1062 0.960 . S
H1075 C1062 0.962 . S
H1076 C1062 0.960 . S
H1077 C1063 0.961 . S
H1078 C1063 0.961 . S
H1079 C1063 0.961 . S
H1080 C1064 0.931 . S
H1081 C1069 0.930 . S
H1082 C1070 0.956 . S
H1083 C1070 0.961 . S
H1084 C1070 0.961 . S
H1085 C1071 0.958 . S
H1086 C1071 0.961 . S
H1087 C1071 0.960 . S
C1088 C1089 1.391 . S
C1088 C1090 1.394 . S
C1088 H1104 0.931 . S
C1089 C1088 1.391 . S
C1089 C1093 1.376 . S
C1090 C1088 1.394 . S
C1090 C1091 1.369 . S
C1090 C1094 1.531 . S
C1091 C1090 1.369 . S
C1091 C1092 1.410 . S
C1091 C1099 1.503 . S
C1092 C1091 1.410 . S
C1092 C1093 1.392 . S
C1092 C1095 1.511 . S
C1093 C1089 1.376 . S
C1093 C1092 1.392 . S
C1093 H1105 0.929 . S
C1094 C1090 1.531 . S
C1094 H1106 0.960 . S
C1094 H1107 0.962 . S
C1094 H1108 0.960 . S
C1095 C1092 1.511 . S
C1095 H1109 0.961 . S
C1095 H1110 0.961 . S
C1095 H1111 0.961 . S
C1096 C1097 1.370 . S
C1096 C1098 1.363 . S
C1096 H1112 0.931 . S
C1097 C1096 1.370 . S
C1097 C1101 1.408 . S
C1098 C1096 1.363 . S
C1098 C1099 1.370 . S
C1098 C1102 1.524 . S
C1099 C1091 1.503 . S
C1099 C1098 1.370 . S
C1099 C1100 1.403 . S
C1100 C1099 1.403 . S
C1100 C1101 1.404 . S
C1100 C1103 1.539 . S
C1101 C1097 1.408 . S
C1101 C1100 1.404 . S
C1101 H1113 0.930 . S
C1102 C1098 1.524 . S
C1102 H1114 0.956 . S
C1102 H1115 0.961 . S
C1102 H1116 0.961 . S
C1103 C1100 1.539 . S
C1103 H1117 0.958 . S
C1103 H1118 0.961 . S
C1103 H1119 0.960 . S
H1104 C1088 0.931 . S
H1105 C1093 0.929 . S
H1106 C1094 0.960 . S
H1107 C1094 0.962 . S
H1108 C1094 0.960 . S
H1109 C1095 0.961 . S
H1110 C1095 0.961 . S
H1111 C1095 0.961 . S
H1112 C1096 0.931 . S
H1113 C1101 0.930 . S
H1114 C1102 0.956 . S
H1115 C1102 0.961 . S
H1116 C1102 0.961 . S
H1117 C1103 0.958 . S
H1118 C1103 0.961 . S
H1119 C1103 0.960 . S
C1120 C1121 1.391 . S
C1120 C1122 1.394 . S
C1120 H1136 0.931 . S
C1121 C1120 1.391 . S
C1121 C1125 1.376 . S
C1122 C1120 1.394 . S
C1122 C1123 1.369 . S
C1122 C1126 1.531 . S
C1123 C1122 1.369 . S
C1123 C1124 1.410 . S
C1123 C1131 1.503 . S
C1124 C1123 1.410 . S
C1124 C1125 1.392 . S
C1124 C1127 1.511 . S
C1125 C1121 1.376 . S
C1125 C1124 1.392 . S
C1125 H1137 0.929 . S
C1126 C1122 1.531 . S
C1126 H1138 0.960 . S
C1126 H1139 0.962 . S
C1126 H1140 0.960 . S
C1127 C1124 1.511 . S
C1127 H1141 0.961 . S
C1127 H1142 0.961 . S
C1127 H1143 0.961 . S
C1128 C1129 1.370 . S
C1128 C1130 1.363 . S
C1128 H1144 0.931 . S
C1129 C1128 1.370 . S
C1129 C1133 1.408 . S
C1130 C1128 1.363 . S
C1130 C1131 1.370 . S
C1130 C1134 1.524 . S
C1131 C1123 1.503 . S
C1131 C1130 1.370 . S
C1131 C1132 1.403 . S
C1132 C1131 1.403 . S
C1132 C1133 1.404 . S
C1132 C1135 1.539 . S
C1133 C1129 1.408 . S
C1133 C1132 1.404 . S
C1133 H1145 0.930 . S
C1134 C1130 1.524 . S
C1134 H1146 0.956 . S
C1134 H1147 0.961 . S
C1134 H1148 0.961 . S
C1135 C1132 1.539 . S
C1135 H1149 0.958 . S
C1135 H1150 0.961 . S
C1135 H1151 0.960 . S
H1136 C1120 0.931 . S
H1137 C1125 0.929 . S
H1138 C1126 0.960 . S
H1139 C1126 0.962 . S
H1140 C1126 0.960 . S
H1141 C1127 0.961 . S
H1142 C1127 0.961 . S
H1143 C1127 0.961 . S
H1144 C1128 0.931 . S
H1145 C1133 0.930 . S
H1146 C1134 0.956 . S
H1147 C1134 0.961 . S
H1148 C1134 0.961 . S
H1149 C1135 0.958 . S
H1150 C1135 0.961 . S
H1151 C1135 0.960 . S
C1152 C1153 1.391 . S
C1152 C1154 1.394 . S
C1152 H1168 0.931 . S
C1153 C1152 1.391 . S
C1153 C1157 1.376 . S
C1154 C1152 1.394 . S
C1154 C1155 1.369 . S
C1154 C1158 1.531 . S
C1155 C1154 1.369 . S
C1155 C1156 1.410 . S
C1155 C1163 1.503 . S
C1156 C1155 1.410 . S
C1156 C1157 1.392 . S
C1156 C1159 1.511 . S
C1157 C1153 1.376 . S
C1157 C1156 1.392 . S
C1157 H1169 0.929 . S
C1158 C1154 1.531 . S
C1158 H1170 0.960 . S
C1158 H1171 0.962 . S
C1158 H1172 0.960 . S
C1159 C1156 1.511 . S
C1159 H1173 0.961 . S
C1159 H1174 0.961 . S
C1159 H1175 0.961 . S
C1160 C1161 1.370 . S
C1160 C1162 1.363 . S
C1160 H1176 0.931 . S
C1161 C1160 1.370 . S
C1161 C1165 1.408 . S
C1162 C1160 1.363 . S
C1162 C1163 1.370 . S
C1162 C1166 1.524 . S
C1163 C1155 1.503 . S
C1163 C1162 1.370 . S
C1163 C1164 1.403 . S
C1164 C1163 1.403 . S
C1164 C1165 1.404 . S
C1164 C1167 1.539 . S
C1165 C1161 1.408 . S
C1165 C1164 1.404 . S
C1165 H1177 0.930 . S
C1166 C1162 1.524 . S
C1166 H1178 0.956 . S
C1166 H1179 0.961 . S
C1166 H1180 0.961 . S
C1167 C1164 1.539 . S
C1167 H1181 0.958 . S
C1167 H1182 0.961 . S
C1167 H1183 0.960 . S
H1168 C1152 0.931 . S
H1169 C1157 0.929 . S
H1170 C1158 0.960 . S
H1171 C1158 0.962 . S
H1172 C1158 0.960 . S
H1173 C1159 0.961 . S
H1174 C1159 0.961 . S
H1175 C1159 0.961 . S
H1176 C1160 0.931 . S
H1177 C1165 0.930 . S
H1178 C1166 0.956 . S
H1179 C1166 0.961 . S
H1180 C1166 0.961 . S
H1181 C1167 0.958 . S
H1182 C1167 0.961 . S
H1183 C1167 0.960 . S
C1184 C1185 1.391 . S
C1184 C1186 1.394 . S
C1184 H1200 0.931 . S
C1185 C1184 1.391 . S
C1185 C1189 1.376 . S
C1186 C1184 1.394 . S
C1186 C1187 1.369 . S
C1186 C1190 1.531 . S
C1187 C1186 1.369 . S
C1187 C1188 1.410 . S
C1187 C1195 1.503 . S
C1188 C1187 1.410 . S
C1188 C1189 1.392 . S
C1188 C1191 1.511 . S
C1189 C1185 1.376 . S
C1189 C1188 1.392 . S
C1189 H1201 0.929 . S
C1190 C1186 1.531 . S
C1190 H1202 0.960 . S
C1190 H1203 0.962 . S
C1190 H1204 0.960 . S
C1191 C1188 1.511 . S
C1191 H1205 0.961 . S
C1191 H1206 0.961 . S
C1191 H1207 0.961 . S
C1192 C1193 1.370 . S
C1192 C1194 1.363 . S
C1192 H1208 0.931 . S
C1193 C1192 1.370 . S
C1193 C1197 1.408 . S
C1194 C1192 1.363 . S
C1194 C1195 1.370 . S
C1194 C1198 1.524 . S
C1195 C1187 1.503 . S
C1195 C1194 1.370 . S
C1195 C1196 1.403 . S
C1196 C1195 1.403 . S
C1196 C1197 1.404 . S
C1196 C1199 1.539 . S
C1197 C1193 1.408 . S
C1197 C1196 1.404 . S
C1197 H1209 0.930 . S
C1198 C1194 1.524 . S
C1198 H1210 0.956 . S
C1198 H1211 0.961 . S
C1198 H1212 0.961 . S
C1199 C1196 1.539 . S
C1199 H1213 0.958 . S
C1199 H1214 0.961 . S
C1199 H1215 0.960 . S
H1200 C1184 0.931 . S
H1201 C1189 0.929 . S
H1202 C1190 0.960 . S
H1203 C1190 0.962 . S
H1204 C1190 0.960 . S
H1205 C1191 0.961 . S
H1206 C1191 0.961 . S
H1207 C1191 0.961 . S
H1208 C1192 0.931 . S
H1209 C1197 0.930 . S
H1210 C1198 0.956 . S
H1211 C1198 0.961 . S
H1212 C1198 0.961 . S
H1213 C1199 0.958 . S
H1214 C1199 0.961 . S
H1215 C1199 0.960 . S
C1216 C1217 1.391 . S
C1216 C1218 1.394 . S
C1216 H1232 0.931 . S
C1217 C1216 1.391 . S
C1217 C1221 1.376 . S
C1218 C1216 1.394 . S
C1218 C1219 1.369 . S
C1218 C1222 1.531 . S
C1219 C1218 1.369 . S
C1219 C1220 1.410 . S
C1219 C1227 1.503 . S
C1220 C1219 1.410 . S
C1220 C1221 1.392 . S
C1220 C1223 1.511 . S
C1221 C1217 1.376 . S
C1221 C1220 1.392 . S
C1221 H1233 0.929 . S
C1222 C1218 1.531 . S
C1222 H1234 0.960 . S
C1222 H1235 0.962 . S
C1222 H1236 0.960 . S
C1223 C1220 1.511 . S
C1223 H1237 0.961 . S
C1223 H1238 0.961 . S
C1223 H1239 0.961 . S
C1224 C1225 1.370 . S
C1224 C1226 1.363 . S
C1224 H1240 0.931 . S
C1225 C1224 1.370 . S
C1225 C1229 1.408 . S
C1226 C1224 1.363 . S
C1226 C1227 1.370 . S
C1226 C1230 1.524 . S
C1227 C1219 1.503 . S
C1227 C1226 1.370 . S
C1227 C1228 1.403 . S
C1228 C1227 1.403 . S
C1228 C1229 1.404 . S
C1228 C1231 1.539 . S
C1229 C1225 1.408 . S
C1229 C1228 1.404 . S
C1229 H1241 0.930 . S
C1230 C1226 1.524 . S
C1230 H1242 0.956 . S
C1230 H1243 0.961 . S
C1230 H1244 0.961 . S
C1231 C1228 1.539 . S
C1231 H1245 0.958 . S
C1231 H1246 0.961 . S
C1231 H1247 0.960 . S
H1232 C1216 0.931 . S
H1233 C1221 0.929 . S
H1234 C1222 0.960 . S
H1235 C1222 0.962 . S
H1236 C1222 0.960 . S
H1237 C1223 0.961 . S
H1238 C1223 0.961 . S
H1239 C1223 0.961 . S
H1240 C1224 0.931 . S
H1241 C1229 0.930 . S
H1242 C1230 0.956 . S
H1243 C1230 0.961 . S
H1244 C1230 0.961 . S
H1245 C1231 0.958 . S
H1246 C1231 0.961 . S
H1247 C1231 0.960 . S
C1248 C1249 1.391 . S
C1248 C1250 1.394 . S
C1248 H1264 0.931 . S
C1249 C1248 1.391 . S
C1249 C1253 1.376 . S
C1250 C1248 1.394 . S
C1250 C1251 1.369 . S
C1250 C1254 1.531 . S
C1251 C1250 1.369 . S
C1251 C1252 1.410 . S
C1251 C1259 1.503 . S
C1252 C1251 1.410 . S
C1252 C1253 1.392 . S
C1252 C1255 1.511 . S
C1253 C1249 1.376 . S
C1253 C1252 1.392 . S
C1253 H1265 0.929 . S
C1254 C1250 1.531 . S
C1254 H1266 0.960 . S
C1254 H1267 0.962 . S
C1254 H1268 0.960 . S
C1255 C1252 1.511 . S
C1255 H1269 0.961 . S
C1255 H1270 0.961 . S
C1255 H1271 0.961 . S
C1256 C1257 1.370 . S
C1256 C1258 1.363 . S
C1256 H1272 0.931 . S
C1257 C1256 1.370 . S
C1257 C1261 1.408 . S
C1258 C1256 1.363 . S
C1258 C1259 1.370 . S
C1258 C1262 1.524 . S
C1259 C1251 1.503 . S
C1259 C1258 1.370 . S
C1259 C1260 1.403 . S
C1260 C1259 1.403 . S
C1260 C1261 1.404 . S
C1260 C1263 1.539 . S
C1261 C1257 1.408 . S
C1261 C1260 1.404 . S
C1261 H1273 0.930 . S
C1262 C1258 1.524 . S
C1262 H1274 0.956 . S
C1262 H1275 0.961 . S
C1262 H1276 0.961 . S
C1263 C1260 1.539 . S
C1263 H1277 0.958 . S
C1263 H1278 0.961 . S
C1263 H1279 0.960 . S
H1264 C1248 0.931 . S
H1265 C1253 0.929 . S
H1266 C1254 0.960 . S
H1267 C1254 0.962 . S
H1268 C1254 0.960 . S
H1269 C1255 0.961 . S
H1270 C1255 0.961 . S
H1271 C1255 0.961 . S
H1272 C1256 0.931 . S
H1273 C1261 0.930 . S
H1274 C1262 0.956 . S
H1275 C1262 0.961 . S
H1276 C1262 0.961 . S
H1277 C1263 0.958 . S
H1278 C1263 0.961 . S
H1279 C1263 0.960 . S
C1280 C1281 1.391 . S
C1280 C1282 1.394 . S
C1280 H1296 0.931 . S
C1281 C1280 1.391 . S
C1281 C1285 1.376 . S
C1282 C1280 1.394 . S
C1282 C1283 1.369 . S
C1282 C1286 1.531 . S
C1283 C1282 1.369 . S
C1283 C1284 1.410 . S
C1283 C1291 1.503 . S
C1284 C1283 1.410 . S
C1284 C1285 1.392 . S
C1284 C1287 1.511 . S
C1285 C1281 1.376 . S
C1285 C1284 1.392 . S
C1285 H1297 0.929 . S
C1286 C1282 1.531 . S
C1286 H1298 0.960 . S
C1286 H1299 0.962 . S
C1286 H1300 0.960 . S
C1287 C1284 1.511 . S
C1287 H1301 0.961 . S
C1287 H1302 0.961 . S
C1287 H1303 0.961 . S
C1288 C1289 1.370 . S
C1288 C1290 1.363 . S
C1288 H1304 0.931 . S
C1289 C1288 1.370 . S
C1289 C1293 1.408 . S
C1290 C1288 1.363 . S
C1290 C1291 1.370 . S
C1290 C1294 1.524 . S
C1291 C1283 1.503 . S
C1291 C1290 1.370 . S
C1291 C1292 1.403 . S
C1292 C1291 1.403 . S
C1292 C1293 1.404 . S
C1292 C1295 1.539 . S
C1293 C1289 1.408 . S
C1293 C1292 1.404 . S
C1293 H1305 0.930 . S
C1294 C1290 1.524 . S
C1294 H1306 0.956 . S
C1294 H1307 0.961 . S
C1294 H1308 0.961 . S
C1295 C1292 1.539 . S
C1295 H1309 0.958 . S
C1295 H1310 0.961 . S
C1295 H1311 0.960 . S
H1296 C1280 0.931 . S
H1297 C1285 0.929 . S
H1298 C1286 0.960 . S
H1299 C1286 0.962 . S
H1300 C1286 0.960 . S
H1301 C1287 0.961 . S
H1302 C1287 0.961 . S
H1303 C1287 0.961 . S
H1304 C1288 0.931 . S
H1305 C1293 0.930 . S
H1306 C1294 0.956 . S
H1307 C1294 0.961 . S
H1308 C1294 0.961 . S
H1309 C1295 0.958 . S
H1310 C1295 0.961 . S
H1311 C1295 0.960 . S
C1312 C1313 1.391 . S
C1312 C1314 1.394 . S
C1312 H1328 0.931 . S
C1313 C1312 1.391 . S
C1313 C1317 1.376 . S
C1314 C1312 1.394 . S
C1314 C1315 1.369 . S
C1314 C1318 1.531 . S
C1315 C1314 1.369 . S
C1315 C1316 1.410 . S
C1315 C1323 1.503 . S
C1316 C1315 1.410 . S
C1316 C1317 1.392 . S
C1316 C1319 1.511 . S
C1317 C1313 1.376 . S
C1317 C1316 1.392 . S
C1317 H1329 0.929 . S
C1318 C1314 1.531 . S
C1318 H1330 0.960 . S
C1318 H1331 0.962 . S
C1318 H1332 0.960 . S
C1319 C1316 1.511 . S
C1319 H1333 0.961 . S
C1319 H1334 0.961 . S
C1319 H1335 0.961 . S
C1320 C1321 1.370 . S
C1320 C1322 1.363 . S
C1320 H1336 0.931 . S
C1321 C1320 1.370 . S
C1321 C1325 1.408 . S
C1322 C1320 1.363 . S
C1322 C1323 1.370 . S
C1322 C1326 1.524 . S
C1323 C1315 1.503 . S
C1323 C1322 1.370 . S
C1323 C1324 1.403 . S
C1324 C1323 1.403 . S
C1324 C1325 1.404 . S
C1324 C1327 1.539 . S
C1325 C1321 1.408 . S
C1325 C1324 1.404 . S
C1325 H1337 0.930 . S
C1326 C1322 1.524 . S
C1326 H1338 0.956 . S
C1326 H1339 0.961 . S
C1326 H1340 0.961 . S
C1327 C1324 1.539 . S
C1327 H1341 0.958 . S
C1327 H1342 0.961 . S
C1327 H1343 0.960 . S
H1328 C1312 0.931 . S
H1329 C1317 0.929 . S
H1330 C1318 0.960 . S
H1331 C1318 0.962 . S
H1332 C1318 0.960 . S
H1333 C1319 0.961 . S
H1334 C1319 0.961 . S
H1335 C1319 0.961 . S
H1336 C1320 0.931 . S
H1337 C1325 0.930 . S
H1338 C1326 0.956 . S
H1339 C1326 0.961 . S
H1340 C1326 0.961 . S
H1341 C1327 0.958 . S
H1342 C1327 0.961 . S
H1343 C1327 0.960 . S
C1344 C1345 1.391 . S
C1344 C1346 1.394 . S
C1344 H1360 0.931 . S
C1345 C1344 1.391 . S
C1345 C1349 1.376 . S
C1346 C1344 1.394 . S
C1346 C1347 1.369 . S
C1346 C1350 1.531 . S
C1347 C1346 1.369 . S
C1347 C1348 1.410 . S
C1347 C1355 1.503 . S
C1348 C1347 1.410 . S
C1348 C1349 1.392 . S
C1348 C1351 1.511 . S
C1349 C1345 1.376 . S
C1349 C1348 1.392 . S
C1349 H1361 0.929 . S
C1350 C1346 1.531 . S
C1350 H1362 0.960 . S
C1350 H1363 0.962 . S
C1350 H1364 0.960 . S
C1351 C1348 1.511 . S
C1351 H1365 0.961 . S
C1351 H1366 0.961 . S
C1351 H1367 0.961 . S
C1352 C1353 1.370 . S
C1352 C1354 1.363 . S
C1352 H1368 0.931 . S
C1353 C1352 1.370 . S
C1353 C1357 1.408 . S
C1354 C1352 1.363 . S
C1354 C1355 1.370 . S
C1354 C1358 1.524 . S
C1355 C1347 1.503 . S
C1355 C1354 1.370 . S
C1355 C1356 1.403 . S
C1356 C1355 1.403 . S
C1356 C1357 1.404 . S
C1356 C1359 1.539 . S
C1357 C1353 1.408 . S
C1357 C1356 1.404 . S
C1357 H1369 0.930 . S
C1358 C1354 1.524 . S
C1358 H1370 0.956 . S
C1358 H1371 0.961 . S
C1358 H1372 0.961 . S
C1359 C1356 1.539 . S
C1359 H1373 0.958 . S
C1359 H1374 0.961 . S
C1359 H1375 0.960 . S
H1360 C1344 0.931 . S
H1361 C1349 0.929 . S
H1362 C1350 0.960 . S
H1363 C1350 0.962 . S
H1364 C1350 0.960 . S
H1365 C1351 0.961 . S
H1366 C1351 0.961 . S
H1367 C1351 0.961 . S
H1368 C1352 0.931 . S
H1369 C1357 0.930 . S
H1370 C1358 0.956 . S
H1371 C1358 0.961 . S
H1372 C1358 0.961 . S
H1373 C1359 0.958 . S
H1374 C1359 0.961 . S
H1375 C1359 0.960 . S
C1376 C1377 1.391 . S
C1376 C1378 1.394 . S
C1376 H1392 0.931 . S
C1377 C1376 1.391 . S
C1377 C1381 1.376 . S
C1378 C1376 1.394 . S
C1378 C1379 1.369 . S
C1378 C1382 1.531 . S
C1379 C1378 1.369 . S
C1379 C1380 1.410 . S
C1379 C1387 1.503 . S
C1380 C1379 1.410 . S
C1380 C1381 1.392 . S
C1380 C1383 1.511 . S
C1381 C1377 1.376 . S
C1381 C1380 1.392 . S
C1381 H1393 0.929 . S
C1382 C1378 1.531 . S
C1382 H1394 0.960 . S
C1382 H1395 0.962 . S
C1382 H1396 0.960 . S
C1383 C1380 1.511 . S
C1383 H1397 0.961 . S
C1383 H1398 0.961 . S
C1383 H1399 0.961 . S
C1384 C1385 1.370 . S
C1384 C1386 1.363 . S
C1384 H1400 0.931 . S
C1385 C1384 1.370 . S
C1385 C1389 1.408 . S
C1386 C1384 1.363 . S
C1386 C1387 1.370 . S
C1386 C1390 1.524 . S
C1387 C1379 1.503 . S
C1387 C1386 1.370 . S
C1387 C1388 1.403 . S
C1388 C1387 1.403 . S
C1388 C1389 1.404 . S
C1388 C1391 1.539 . S
C1389 C1385 1.408 . S
C1389 C1388 1.404 . S
C1389 H1401 0.930 . S
C1390 C1386 1.524 . S
C1390 H1402 0.956 . S
C1390 H1403 0.961 . S
C1390 H1404 0.961 . S
C1391 C1388 1.539 . S
C1391 H1405 0.958 . S
C1391 H1406 0.961 . S
C1391 H1407 0.960 . S
H1392 C1376 0.931 . S
H1393 C1381 0.929 . S
H1394 C1382 0.960 . S
H1395 C1382 0.962 . S
H1396 C1382 0.960 . S
H1397 C1383 0.961 . S
H1398 C1383 0.961 . S
H1399 C1383 0.961 . S
H1400 C1384 0.931 . S
H1401 C1389 0.930 . S
H1402 C1390 0.956 . S
H1403 C1390 0.961 . S
H1404 C1390 0.961 . S
H1405 C1391 0.958 . S
H1406 C1391 0.961 . S
H1407 C1391 0.960 . S
C1408 C1409 1.391 . S
C1408 C1410 1.394 . S
C1408 H1424 0.931 . S
C1409 C1408 1.391 . S
C1409 C1413 1.376 . S
C1410 C1408 1.394 . S
C1410 C1411 1.369 . S
C1410 C1414 1.531 . S
C1411 C1410 1.369 . S
C1411 C1412 1.410 . S
C1411 C1419 1.503 . S
C1412 C1411 1.410 . S
C1412 C1413 1.392 . S
C1412 C1415 1.511 . S
C1413 C1409 1.376 . S
C1413 C1412 1.392 . S
C1413 H1425 0.929 . S
C1414 C1410 1.531 . S
C1414 H1426 0.960 . S
C1414 H1427 0.962 . S
C1414 H1428 0.960 . S
C1415 C1412 1.511 . S
C1415 H1429 0.961 . S
C1415 H1430 0.961 . S
C1415 H1431 0.961 . S
C1416 C1417 1.370 . S
C1416 C1418 1.363 . S
C1416 H1432 0.931 . S
C1417 C1416 1.370 . S
C1417 C1421 1.408 . S
C1418 C1416 1.363 . S
C1418 C1419 1.370 . S
C1418 C1422 1.524 . S
C1419 C1411 1.503 . S
C1419 C1418 1.370 . S
C1419 C1420 1.403 . S
C1420 C1419 1.403 . S
C1420 C1421 1.404 . S
C1420 C1423 1.539 . S
C1421 C1417 1.408 . S
C1421 C1420 1.404 . S
C1421 H1433 0.930 . S
C1422 C1418 1.524 . S
C1422 H1434 0.956 . S
C1422 H1435 0.961 . S
C1422 H1436 0.961 . S
C1423 C1420 1.539 . S
C1423 H1437 0.958 . S
C1423 H1438 0.961 . S
C1423 H1439 0.960 . S
H1424 C1408 0.931 . S
H1425 C1413 0.929 . S
H1426 C1414 0.960 . S
H1427 C1414 0.962 . S
H1428 C1414 0.960 . S
H1429 C1415 0.961 . S
H1430 C1415 0.961 . S
H1431 C1415 0.961 . S
H1432 C1416 0.931 . S
H1433 C1421 0.930 . S
H1434 C1422 0.956 . S
H1435 C1422 0.961 . S
H1436 C1422 0.961 . S
H1437 C1423 0.958 . S
H1438 C1423 0.961 . S
H1439 C1423 0.960 . S
C1440 C1441 1.391 . S
C1440 C1442 1.394 . S
C1440 H1456 0.931 . S
C1441 C1440 1.391 . S
C1441 C1445 1.376 . S
C1442 C1440 1.394 . S
C1442 C1443 1.369 . S
C1442 C1446 1.531 . S
C1443 C1442 1.369 . S
C1443 C1444 1.410 . S
C1443 C1451 1.503 . S
C1444 C1443 1.410 . S
C1444 C1445 1.392 . S
C1444 C1447 1.511 . S
C1445 C1441 1.376 . S
C1445 C1444 1.392 . S
C1445 H1457 0.929 . S
C1446 C1442 1.531 . S
C1446 H1458 0.960 . S
C1446 H1459 0.962 . S
C1446 H1460 0.960 . S
C1447 C1444 1.511 . S
C1447 H1461 0.961 . S
C1447 H1462 0.961 . S
C1447 H1463 0.961 . S
C1448 C1449 1.370 . S
C1448 C1450 1.363 . S
C1448 H1464 0.931 . S
C1449 C1448 1.370 . S
C1449 C1453 1.408 . S
C1450 C1448 1.363 . S
C1450 C1451 1.370 . S
C1450 C1454 1.524 . S
C1451 C1443 1.503 . S
C1451 C1450 1.370 . S
C1451 C1452 1.403 . S
C1452 C1451 1.403 . S
C1452 C1453 1.404 . S
C1452 C1455 1.539 . S
C1453 C1449 1.408 . S
C1453 C1452 1.404 . S
C1453 H1465 0.930 . S
C1454 C1450 1.524 . S
C1454 H1466 0.956 . S
C1454 H1467 0.961 . S
C1454 H1468 0.961 . S
C1455 C1452 1.539 . S
C1455 H1469 0.958 . S
C1455 H1470 0.961 . S
C1455 H1471 0.960 . S
H1456 C1440 0.931 . S
H1457 C1445 0.929 . S
H1458 C1446 0.960 . S
H1459 C1446 0.962 . S
H1460 C1446 0.960 . S
H1461 C1447 0.961 . S
H1462 C1447 0.961 . S
H1463 C1447 0.961 . S
H1464 C1448 0.931 . S
H1465 C1453 0.930 . S
H1466 C1454 0.956 . S
H1467 C1454 0.961 . S
H1468 C1454 0.961 . S
H1469 C1455 0.958 . S
H1470 C1455 0.961 . S
H1471 C1455 0.960 . S
C1472 C1473 1.391 . S
C1472 C1474 1.394 . S
C1472 H1488 0.931 . S
C1473 C1472 1.391 . S
C1473 C1477 1.376 . S
C1474 C1472 1.394 . S
C1474 C1475 1.369 . S
C1474 C1478 1.531 . S
C1475 C1474 1.369 . S
C1475 C1476 1.410 . S
C1475 C1483 1.503 . S
C1476 C1475 1.410 . S
C1476 C1477 1.392 . S
C1476 C1479 1.511 . S
C1477 C1473 1.376 . S
C1477 C1476 1.392 . S
C1477 H1489 0.929 . S
C1478 C1474 1.531 . S
C1478 H1490 0.960 . S
C1478 H1491 0.962 . S
C1478 H1492 0.960 . S
C1479 C1476 1.511 . S
C1479 H1493 0.961 . S
C1479 H1494 0.961 . S
C1479 H1495 0.961 . S
C1480 C1481 1.370 . S
C1480 C1482 1.363 . S
C1480 H1496 0.931 . S
C1481 C1480 1.370 . S
C1481 C1485 1.408 . S
C1482 C1480 1.363 . S
C1482 C1483 1.370 . S
C1482 C1486 1.524 . S
C1483 C1475 1.503 . S
C1483 C1482 1.370 . S
C1483 C1484 1.403 . S
C1484 C1483 1.403 . S
C1484 C1485 1.404 . S
C1484 C1487 1.539 . S
C1485 C1481 1.408 . S
C1485 C1484 1.404 . S
C1485 H1497 0.930 . S
C1486 C1482 1.524 . S
C1486 H1498 0.956 . S
C1486 H1499 0.961 . S
C1486 H1500 0.961 . S
C1487 C1484 1.539 . S
C1487 H1501 0.958 . S
C1487 H1502 0.961 . S
C1487 H1503 0.960 . S
H1488 C1472 0.931 . S
H1489 C1477 0.929 . S
H1490 C1478 0.960 . S
H1491 C1478 0.962 . S
H1492 C1478 0.960 . S
H1493 C1479 0.961 . S
H1494 C1479 0.961 . S
H1495 C1479 0.961 . S
H1496 C1480 0.931 . S
H1497 C1485 0.930 . S
H1498 C1486 0.956 . S
H1499 C1486 0.961 . S
H1500 C1486 0.961 . S
H1501 C1487 0.958 . S
H1502 C1487 0.961 . S
H1503 C1487 0.960 . S
C1504 C1505 1.391 . S
C1504 C1506 1.394 . S
C1504 H1520 0.931 . S
C1505 C1504 1.391 . S
C1505 C1509 1.376 . S
C1506 C1504 1.394 . S
C1506 C1507 1.369 . S
C1506 C1510 1.531 . S
C1507 C1506 1.369 . S
C1507 C1508 1.410 . S
C1507 C1515 1.503 . S
C1508 C1507 1.410 . S
C1508 C1509 1.392 . S
C1508 C1511 1.511 . S
C1509 C1505 1.376 . S
C1509 C1508 1.392 . S
C1509 H1521 0.929 . S
C1510 C1506 1.531 . S
C1510 H1522 0.960 . S
C1510 H1523 0.962 . S
C1510 H1524 0.960 . S
C1511 C1508 1.511 . S
C1511 H1525 0.961 . S
C1511 H1526 0.961 . S
C1511 H1527 0.961 . S
C1512 C1513 1.370 . S
C1512 C1514 1.363 . S
C1512 H1528 0.931 . S
C1513 C1512 1.370 . S
C1513 C1517 1.408 . S
C1514 C1512 1.363 . S
C1514 C1515 1.370 . S
C1514 C1518 1.524 . S
C1515 C1507 1.503 . S
C1515 C1514 1.370 . S
C1515 C1516 1.403 . S
C1516 C1515 1.403 . S
C1516 C1517 1.404 . S
C1516 C1519 1.539 . S
C1517 C1513 1.408 . S
C1517 C1516 1.404 . S
C1517 H1529 0.930 . S
C1518 C1514 1.524 . S
C1518 H1530 0.956 . S
C1518 H1531 0.961 . S
C1518 H1532 0.961 . S
C1519 C1516 1.539 . S
C1519 H1533 0.958 . S
C1519 H1534 0.961 . S
C1519 H1535 0.960 . S
H1520 C1504 0.931 . S
H1521 C1509 0.929 . S
H1522 C1510 0.960 . S
H1523 C1510 0.962 . S
H1524 C1510 0.960 . S
H1525 C1511 0.961 . S
H1526 C1511 0.961 . S
H1527 C1511 0.961 . S
H1528 C1512 0.931 . S
H1529 C1517 0.930 . S
H1530 C1518 0.956 . S
H1531 C1518 0.961 . S
H1532 C1518 0.961 . S
H1533 C1519 0.958 . S
H1534 C1519 0.961 . S
H1535 C1519 0.960 . S
C1536 C1537 1.391 . S
C1536 C1538 1.394 . S
C1536 H1552 0.931 . S
C1537 C1536 1.391 . S
C1537 C1541 1.376 . S
C1538 C1536 1.394 . S
C1538 C1539 1.369 . S
C1538 C1542 1.531 . S
C1539 C1538 1.369 . S
C1539 C1540 1.410 . S
C1539 C1547 1.503 . S
C1540 C1539 1.410 . S
C1540 C1541 1.392 . S
C1540 C1543 1.511 . S
C1541 C1537 1.376 . S
C1541 C1540 1.392 . S
C1541 H1553 0.929 . S
C1542 C1538 1.531 . S
C1542 H1554 0.960 . S
C1542 H1555 0.962 . S
C1542 H1556 0.960 . S
C1543 C1540 1.511 . S
C1543 H1557 0.961 . S
C1543 H1558 0.961 . S
C1543 H1559 0.961 . S
C1544 C1545 1.370 . S
C1544 C1546 1.363 . S
C1544 H1560 0.931 . S
C1545 C1544 1.370 . S
C1545 C1549 1.408 . S
C1546 C1544 1.363 . S
C1546 C1547 1.370 . S
C1546 C1550 1.524 . S
C1547 C1539 1.503 . S
C1547 C1546 1.370 . S
C1547 C1548 1.403 . S
C1548 C1547 1.403 . S
C1548 C1549 1.404 . S
C1548 C1551 1.539 . S
C1549 C1545 1.408 . S
C1549 C1548 1.404 . S
C1549 H1561 0.930 . S
C1550 C1546 1.524 . S
C1550 H1562 0.956 . S
C1550 H1563 0.961 . S
C1550 H1564 0.961 . S
C1551 C1548 1.539 . S
C1551 H1565 0.958 . S
C1551 H1566 0.961 . S
C1551 H1567 0.960 . S
H1552 C1536 0.931 . S
H1553 C1541 0.929 . S
H1554 C1542 0.960 . S
H1555 C1542 0.962 . S
H1556 C1542 0.960 . S
H1557 C1543 0.961 . S
H1558 C1543 0.961 . S
H1559 C1543 0.961 . S
H1560 C1544 0.931 . S
H1561 C1549 0.930 . S
H1562 C1550 0.956 . S
H1563 C1550 0.961 . S
H1564 C1550 0.961 . S
H1565 C1551 0.958 . S
H1566 C1551 0.961 . S
H1567 C1551 0.960 . S
C1568 C1569 1.391 1_655 S
C1568 C1570 1.394 . S
C1568 H1584 0.931 . S
C1569 C1568 1.391 1_455 S
C1569 C1573 1.376 . S
C1570 C1568 1.394 . S
C1570 C1571 1.369 1_655 S
C1570 C1574 1.531 . S
C1571 C1570 1.369 1_455 S
C1571 C1572 1.410 . S
C1571 C1579 1.503 1_455 S
C1572 C1571 1.410 . S
C1572 C1573 1.392 . S
C1572 C1575 1.511 . S
C1573 C1569 1.376 . S
C1573 C1572 1.392 . S
C1573 H1585 0.929 . S
C1574 C1570 1.531 . S
C1574 H1586 0.960 . S
C1574 H1587 0.962 . S
C1574 H1588 0.960 . S
C1575 C1572 1.511 . S
C1575 H1589 0.961 . S
C1575 H1590 0.961 . S
C1575 H1591 0.961 . S
C1576 C1577 1.370 . S
C1576 C1578 1.363 . S
C1576 H1592 0.931 . S
C1577 C1576 1.370 . S
C1577 C1581 1.408 . S
C1578 C1576 1.363 . S
C1578 C1579 1.370 . S
C1578 C1582 1.524 1_655 S
C1579 C1571 1.503 1_655 S
C1579 C1578 1.370 . S
C1579 C1580 1.403 . S
C1580 C1579 1.403 . S
C1580 C1581 1.404 . S
C1580 C1583 1.539 . S
C1581 C1577 1.408 . S
C1581 C1580 1.404 . S
C1581 H1593 0.930 . S
C1582 C1578 1.524 1_455 S
C1582 H1594 0.956 1_455 S
C1582 H1595 0.961 . S
C1582 H1596 0.961 . S
C1583 C1580 1.539 . S
C1583 H1597 0.958 . S
C1583 H1598 0.961 . S
C1583 H1599 0.960 . S
H1584 C1568 0.931 . S
H1585 C1573 0.929 . S
H1586 C1574 0.960 . S
H1587 C1574 0.962 . S
H1588 C1574 0.960 . S
H1589 C1575 0.961 . S
H1590 C1575 0.961 . S
H1591 C1575 0.961 . S
H1592 C1576 0.931 . S
H1593 C1581 0.930 . S
H1594 C1582 0.956 1_655 S
H1595 C1582 0.961 . S
H1596 C1582 0.961 . S
H1597 C1583 0.958 . S
H1598 C1583 0.961 . S
H1599 C1583 0.960 . S
C1600 C1601 1.391 . S
C1600 C1602 1.394 . S
C1600 H1616 0.931 . S
C1601 C1600 1.391 . S
C1601 C1605 1.376 . S
C1602 C1600 1.394 . S
C1602 C1603 1.369 . S
C1602 C1606 1.531 . S
C1603 C1602 1.369 . S
C1603 C1604 1.410 1_565 S
C1603 C1611 1.503 1_565 S
C1604 C1603 1.410 1_545 S
C1604 C1605 1.392 1_545 S
C1604 C1607 1.511 . S
C1605 C1601 1.376 . S
C1605 C1604 1.392 1_565 S
C1605 H1617 0.935 . S
C1606 C1602 1.531 . S
C1606 H1618 0.960 . S
C1606 H1619 0.962 . S
C1606 H1620 0.960 . S
C1607 C1604 1.511 . S
C1607 H1621 0.961 . S
C1607 H1622 0.961 . S
C1607 H1623 0.961 . S
C1608 C1609 1.370 . S
C1608 C1610 1.363 . S
C1608 H1624 0.931 . S
C1609 C1608 1.370 . S
C1609 C1613 1.408 1_545 S
C1610 C1608 1.363 . S
C1610 C1611 1.370 . S
C1610 C1614 1.524 . S
C1611 C1603 1.503 1_545 S
C1611 C1610 1.370 . S
C1611 C1612 1.403 1_545 S
C1612 C1611 1.403 1_565 S
C1612 C1613 1.404 . S
C1612 C1615 1.539 . S
C1613 C1609 1.408 1_565 S
C1613 C1612 1.404 . S
C1613 H1625 0.930 . S
C1614 C1610 1.524 . S
C1614 H1626 0.956 . S
C1614 H1627 0.961 . S
C1614 H1628 0.961 . S
C1615 C1612 1.539 . S
C1615 H1629 0.958 . S
C1615 H1630 0.961 . S
C1615 H1631 0.960 . S
H1616 C1600 0.931 . S
H1617 C1605 0.935 . S
H1618 C1606 0.960 . S
H1619 C1606 0.962 . S
H1620 C1606 0.960 . S
H1621 C1607 0.961 . S
H1622 C1607 0.961 . S
H1623 C1607 0.961 . S
H1624 C1608 0.931 . S
H1625 C1613 0.930 . S
H1626 C1614 0.956 . S
H1627 C1614 0.961 . S
H1628 C1614 0.961 . S
H1629 C1615 0.958 . S
H1630 C1615 0.961 . S
H1631 C1615 0.960 . S
C1632 C1633 1.391 1_655 S
C1632 C1634 1.394 . S
C1632 H1648 0.931 . S
C1633 C1632 1.391 1_455 S
C1633 C1637 1.376 . S
C1634 C1632 1.394 . S
C1634 C1635 1.369 1_655 S
C1634 C1638 1.531 . S
C1635 C1634 1.369 1_455 S
C1635 C1636 1.410 . S
C1635 C1643 1.503 1_455 S
C1636 C1635 1.410 . S
C1636 C1637 1.392 . S
C1636 C1639 1.511 . S
C1637 C1633 1.376 . S
C1637 C1636 1.392 . S
C1637 H1649 0.929 . S
C1638 C1634 1.531 . S
C1638 H1650 0.960 . S
C1638 H1651 0.962 . S
C1638 H1652 0.960 . S
C1639 C1636 1.511 . S
C1639 H1653 0.961 . S
C1639 H1654 0.961 . S
C1639 H1655 0.961 . S
C1640 C1641 1.370 . S
C1640 C1642 1.363 . S
C1640 H1656 0.931 . S
C1641 C1640 1.370 . S
C1641 C1645 1.408 . S
C1642 C1640 1.363 . S
C1642 C1643 1.370 . S
C1642 C1646 1.524 . S
C1643 C1635 1.503 1_655 S
C1643 C1642 1.370 . S
C1643 C1644 1.403 . S
C1644 C1643 1.403 . S
C1644 C1645 1.404 . S
C1644 C1647 1.546 . S
C1645 C1641 1.408 . S
C1645 C1644 1.404 . S
C1645 H1657 0.930 . S
C1646 C1642 1.524 . S
C1646 H1658 0.956 . S
C1646 H1659 0.961 1_655 S
C1646 H1660 0.961 . S
C1647 C1644 1.546 . S
C1647 H1661 0.983 . S
C1647 H1662 0.951 1_655 S
C1647 H1663 0.939 1_655 S
H1648 C1632 0.931 . S
H1649 C1637 0.929 . S
H1650 C1638 0.960 . S
H1651 C1638 0.962 . S
H1652 C1638 0.960 . S
H1653 C1639 0.961 . S
H1654 C1639 0.961 . S
H1655 C1639 0.961 . S
H1656 C1640 0.931 . S
H1657 C1645 0.930 . S
H1658 C1646 0.956 . S
H1659 C1646 0.961 1_455 S
H1660 C1646 0.961 . S
H1661 C1647 0.983 . S
H1662 C1647 0.951 1_455 S
H1663 C1647 0.939 1_455 S
C1664 C1665 1.391 . S
C1664 C1666 1.394 1_545 S
C1664 H1680 0.931 1_545 S
C1665 C1664 1.391 . S
C1665 C1669 1.376 . S
C1666 C1664 1.394 1_565 S
C1666 C1667 1.369 . S
C1666 C1670 1.531 . S
C1667 C1666 1.369 . S
C1667 C1668 1.410 1_565 S
C1667 C1675 1.503 . S
C1668 C1667 1.410 1_545 S
C1668 C1669 1.392 . S
C1668 C1671 1.511 . S
C1669 C1665 1.376 . S
C1669 C1668 1.392 . S
C1669 H1681 0.929 . S
C1670 C1666 1.531 . S
C1670 H1682 0.960 . S
C1670 H1683 0.962 . S
C1670 H1684 0.960 . S
C1671 C1668 1.511 . S
C1671 H1685 0.961 . S
C1671 H1686 0.961 . S
C1671 H1687 0.961 . S
C1672 C1673 1.347 1_545 S
C1672 C1674 1.371 . S
C1672 H1688 0.948 . S
C1673 C1672 1.347 1_565 S
C1673 C1677 1.408 . S
C1674 C1672 1.371 . S
C1674 C1675 1.370 1_545 S
C1674 C1678 1.524 . S
C1675 C1667 1.503 . S
C1675 C1674 1.370 1_565 S
C1675 C1676 1.403 . S
C1676 C1675 1.403 . S
C1676 C1677 1.404 . S
C1676 C1679 1.539 . S
C1677 C1673 1.408 . S
C1677 C1676 1.404 . S
C1677 H1689 0.930 . S
C1678 C1674 1.524 . S
C1678 H1690 0.956 . S
C1678 H1691 0.961 . S
C1678 H1692 0.961 . S
C1679 C1676 1.539 . S
C1679 H1693 0.958 . S
C1679 H1694 0.961 . S
C1679 H1695 0.960 . S
H1680 C1664 0.931 1_565 S
H1681 C1669 0.929 . S
H1682 C1670 0.960 . S
H1683 C1670 0.962 . S
H1684 C1670 0.960 . S
H1685 C1671 0.961 . S
H1686 C1671 0.961 . S
H1687 C1671 0.961 . S
H1688 C1672 0.948 . S
H1689 C1677 0.930 . S
H1690 C1678 0.956 . S
H1691 C1678 0.961 . S
H1692 C1678 0.961 . S
H1693 C1679 0.958 . S
H1694 C1679 0.961 . S
H1695 C1679 0.960 . S
C1696 C1697 1.391 . S
C1696 C1698 1.394 . S
C1696 H1712 0.931 . S
C1697 C1696 1.391 . S
C1697 C1701 1.376 . S
C1698 C1696 1.394 . S
C1698 C1699 1.369 . S
C1698 C1702 1.531 . S
C1699 C1698 1.369 . S
C1699 C1700 1.410 . S
C1699 C1707 1.503 1_556 S
C1700 C1699 1.410 . S
C1700 C1701 1.392 . S
C1700 C1703 1.512 1_556 S
C1701 C1697 1.376 . S
C1701 C1700 1.392 . S
C1701 H1713 0.929 . S
C1702 C1698 1.531 . S
C1702 H1714 0.960 . S
C1702 H1715 0.962 . S
C1702 H1716 0.960 . S
C1703 C1700 1.512 1_554 S
C1703 H1717 0.961 1_554 S
C1703 H1718 0.960 . S
C1703 H1719 0.960 . S
C1704 C1705 1.370 . S
C1704 C1706 1.363 . S
C1704 H1720 0.931 . S
C1705 C1704 1.370 . S
C1705 C1709 1.408 . S
C1706 C1704 1.363 . S
C1706 C1707 1.370 . S
C1706 C1710 1.524 . S
C1707 C1699 1.503 1_554 S
C1707 C1706 1.370 . S
C1707 C1708 1.403 . S
C1708 C1707 1.403 . S
C1708 C1709 1.404 . S
C1708 C1711 1.539 . S
C1709 C1705 1.408 . S
C1709 C1708 1.404 . S
C1709 H1721 0.930 . S
C1710 C1706 1.524 . S
C1710 H1722 0.956 1_554 S
C1710 H1723 0.961 1_554 S
C1710 H1724 0.961 . S
C1711 C1708 1.539 . S
C1711 H1725 0.958 . S
C1711 H1726 0.961 . S
C1711 H1727 0.960 . S
H1712 C1696 0.931 . S
H1713 C1701 0.929 . S
H1714 C1702 0.960 . S
H1715 C1702 0.962 . S
H1716 C1702 0.960 . S
H1717 C1703 0.961 1_556 S
H1718 C1703 0.960 . S
H1719 C1703 0.960 . S
H1720 C1704 0.931 . S
H1721 C1709 0.930 . S
H1722 C1710 0.956 1_556 S
H1723 C1710 0.961 1_556 S
H1724 C1710 0.961 . S
H1725 C1711 0.958 . S
H1726 C1711 0.961 . S
H1727 C1711 0.960 . S
C1728 C1729 1.391 . S
C1728 C1730 1.394 . S
C1728 H1744 0.931 . S
C1729 C1728 1.391 . S
C1729 C1733 1.376 . S
C1730 C1728 1.394 . S
C1730 C1731 1.369 . S
C1730 C1734 1.531 . S
C1731 C1730 1.369 . S
C1731 C1732 1.410 . S
C1731 C1739 1.503 1_554 S
C1732 C1731 1.410 . S
C1732 C1733 1.392 . S
C1732 C1735 1.511 . S
C1733 C1729 1.376 . S
C1733 C1732 1.392 . S
C1733 H1745 0.929 . S
C1734 C1730 1.531 . S
C1734 H1746 0.960 1_554 S
C1734 H1747 0.962 . S
C1734 H1748 0.960 . S
C1735 C1732 1.511 . S
C1735 H1749 0.961 . S
C1735 H1750 0.961 . S
C1735 H1751 0.961 . S
C1736 C1737 1.370 . S
C1736 C1738 1.363 . S
C1736 H1752 0.931 . S
C1737 C1736 1.370 . S
C1737 C1741 1.408 . S
C1738 C1736 1.363 . S
C1738 C1739 1.370 . S
C1738 C1742 1.524 1_556 S
C1739 C1731 1.503 1_556 S
C1739 C1738 1.370 . S
C1739 C1740 1.403 . S
C1740 C1739 1.403 . S
C1740 C1741 1.404 . S
C1740 C1743 1.539 . S
C1741 C1737 1.408 . S
C1741 C1740 1.404 . S
C1741 H1753 0.930 . S
C1742 C1738 1.524 1_554 S
C1742 H1754 0.956 . S
C1742 H1755 0.961 . S
C1742 H1756 0.961 1_554 S
C1743 C1740 1.539 . S
C1743 H1757 0.958 . S
C1743 H1758 0.961 . S
C1743 H1759 0.960 . S
H1744 C1728 0.931 . S
H1745 C1733 0.929 . S
H1746 C1734 0.960 1_556 S
H1747 C1734 0.962 . S
H1748 C1734 0.960 . S
H1749 C1735 0.961 . S
H1750 C1735 0.961 . S
H1751 C1735 0.961 . S
H1752 C1736 0.931 . S
H1753 C1741 0.930 . S
H1754 C1742 0.956 . S
H1755 C1742 0.961 . S
H1756 C1742 0.961 1_556 S
H1757 C1743 0.958 . S
H1758 C1743 0.961 . S
H1759 C1743 0.960 . S
C1760 C1761 1.391 . S
C1760 C1762 1.394 . S
C1760 H1776 0.931 . S
C1761 C1760 1.391 . S
C1761 C1765 1.376 . S
C1762 C1760 1.394 . S
C1762 C1763 1.369 . S
C1762 C1766 1.531 . S
C1763 C1762 1.369 . S
C1763 C1764 1.410 . S
C1763 C1771 1.503 1_554 S
C1764 C1763 1.410 . S
C1764 C1765 1.392 . S
C1764 C1767 1.511 . S
C1765 C1761 1.376 . S
C1765 C1764 1.392 . S
C1765 H1777 0.929 . S
C1766 C1762 1.531 . S
C1766 H1778 0.960 . S
C1766 H1779 0.962 . S
C1766 H1780 0.960 . S
C1767 C1764 1.511 . S
C1767 H1781 0.961 . S
C1767 H1782 0.961 1_554 S
C1767 H1783 0.961 1_554 S
C1768 C1769 1.370 . S
C1768 C1770 1.363 . S
C1768 H1784 0.931 . S
C1769 C1768 1.370 . S
C1769 C1773 1.408 . S
C1770 C1768 1.363 . S
C1770 C1771 1.370 . S
C1770 C1774 1.531 . S
C1771 C1763 1.503 1_556 S
C1771 C1770 1.370 . S
C1771 C1772 1.403 . S
C1772 C1771 1.403 . S
C1772 C1773 1.404 . S
C1772 C1775 1.539 . S
C1773 C1769 1.408 . S
C1773 C1772 1.404 . S
C1773 H1785 0.930 . S
C1774 C1770 1.531 . S
C1774 H1786 0.949 1_556 S
C1774 H1787 0.956 1_556 S
C1774 H1788 0.965 . S
C1775 C1772 1.539 . S
C1775 H1789 0.958 . S
C1775 H1790 0.961 . S
C1775 H1791 0.960 . S
H1776 C1760 0.931 . S
H1777 C1765 0.929 . S
H1778 C1766 0.960 . S
H1779 C1766 0.962 . S
H1780 C1766 0.960 . S
H1781 C1767 0.961 . S
H1782 C1767 0.961 1_556 S
H1783 C1767 0.961 1_556 S
H1784 C1768 0.931 . S
H1785 C1773 0.930 . S
H1786 C1774 0.949 1_554 S
H1787 C1774 0.956 1_554 S
H1788 C1774 0.965 . S
H1789 C1775 0.958 . S
H1790 C1775 0.961 . S
H1791 C1775 0.960 . S
C1792 C1793 1.391 . S
C1792 C1794 1.394 . S
C1792 H1808 0.931 . S
C1793 C1792 1.391 . S
C1793 C1797 1.376 . S
C1794 C1792 1.394 . S
C1794 C1795 1.369 . S
C1794 C1798 1.534 . S
C1795 C1794 1.369 . S
C1795 C1796 1.410 . S
C1795 C1803 1.503 1_556 S
C1796 C1795 1.410 . S
C1796 C1797 1.392 . S
C1796 C1799 1.511 . S
C1797 C1793 1.376 . S
C1797 C1796 1.392 . S
C1797 H1809 0.929 . S
C1798 C1794 1.534 . S
C1798 H1810 0.956 1_556 S
C1798 H1811 0.961 1_556 S
C1798 H1812 0.962 . S
C1799 C1796 1.511 . S
C1799 H1813 0.961 . S
C1799 H1814 0.961 . S
C1799 H1815 0.961 . S
C1800 C1801 1.370 . S
C1800 C1802 1.363 . S
C1800 H1816 0.931 . S
C1801 C1800 1.370 . S
C1801 C1805 1.408 . S
C1802 C1800 1.363 . S
C1802 C1803 1.370 . S
C1802 C1806 1.524 . S
C1803 C1795 1.503 1_554 S
C1803 C1802 1.370 . S
C1803 C1804 1.403 . S
C1804 C1803 1.403 . S
C1804 C1805 1.404 . S
C1804 C1807 1.539 . S
C1805 C1801 1.408 . S
C1805 C1804 1.404 . S
C1805 H1817 0.930 . S
C1806 C1802 1.524 . S
C1806 H1818 0.956 1_554 S
C1806 H1819 0.961 1_554 S
C1806 H1820 0.961 . S
C1807 C1804 1.539 . S
C1807 H1821 0.958 . S
C1807 H1822 0.961 . S
C1807 H1823 0.960 . S
H1808 C1792 0.931 . S
H1809 C1797 0.929 . S
H1810 C1798 0.956 1_554 S
H1811 C1798 0.961 1_554 S
H1812 C1798 0.962 . S
H1813 C1799 0.961 . S
H1814 C1799 0.961 . S
H1815 C1799 0.961 . S
H1816 C1800 0.931 . S
H1817 C1805 0.930 . S
H1818 C1806 0.956 1_556 S
H1819 C1806 0.961 1_556 S
H1820 C1806 0.961 . S
H1821 C1807 0.958 . S
H1822 C1807 0.961 . S
H1823 C1807 0.960 . S
C545 C88 0.996 . S
C553 C20 0.992 . S
C577 C54 0.987 . S
C585 C122 0.996 . S
C609 C224 0.992 . S
C617 C156 0.994 . S
C641 C258 0.988 . S
C649 C190 0.995 . S
C673 C292 0.998 . S
C681 C360 0.991 . S
C705 C394 0.988 . S
C713 C326 0.995 . S
C737 C496 0.997 . S
C745 C428 0.992 . S
C769 C462 0.998 . S
C777 C530 0.991 . S
C801 C9 1.578 . S
C809 C519 1.574 . S
C833 C417 1.567 . S
C841 C43 1.572 . S
C865 C451 1.553 . S
C873 C77 1.578 . S
C897 C485 1.553 . S
C905 C111 1.576 . S
C929 C315 1.582 . S
C937 C145 1.591 . S
C961 C349 1.593 . S
C969 C179 1.579 . S
C993 C383 1.589 . S
C1001 C213 1.592 . S
C1025 C281 1.594 . S
C1033 C247 1.580 . S
C1057 C2 1.418 . S
C1065 C135 1.424 . S
C1089 C33 1.424 . S
C1097 C36 1.418 . S
C1121 C70 1.429 . S
C1129 C67 1.427 . S
C1153 C101 1.430 . S
C1161 C104 1.418 . S
C1185 C203 1.430 . S
C1193 C138 1.422 . S
C1217 C172 1.428 . S
C1225 C237 1.424 . S
C1249 C271 1.418 . S
C1257 C206 1.428 . S
C1281 C169 1.430 . S
C1289 C240 1.419 . S
C1313 C274 1.408 . S
C1321 C407 1.429 . S
C1345 C305 1.416 . S
C1353 C308 1.425 . S
C1377 C342 1.410 . S
C1385 C339 1.426 . S
C1409 C376 1.413 . S
C1417 C373 1.430 . S
C1441 C410 1.419 . S
C1449 C475 1.424 . S
C1473 C509 1.417 . S
C1481 C444 1.427 . S
C1505 C543 1.419 . S
C1513 C478 1.428 . S
C1537 C512 1.419 . S
C1545 C441 1.424 . S
C1569 C5 1.609 . S
C1577 C209 1.609 . S
C1601 C243 1.597 . S
C1609 C39 1.605 . S
C1633 C141 1.609 . S
C1641 C73 1.610 . S
C1665 C175 1.608 . S
C1673 C107 1.608 . S
C1697 C277 1.607 . S
C1705 C481 1.609 . S
C1729 C515 1.598 . S
C1737 C311 1.606 . S
C1761 C413 1.606 . S
C1769 C345 1.609 . S
C1793 C379 1.596 . S
C1801 C447 1.605 . S
