# Generated by pormake.
# Topology ske, (6)-cn, num edge types: 1
# Building blocks:
#     Node 0, Type 0, BuildingBlock: MIDCAF_clean_sbu_0, # of connection points: 6
#     Node 1, Type 0, BuildingBlock: MIDCAF_clean_sbu_0, # of connection points: 6
#     Node 2, Type 0, BuildingBlock: MIDCAF_clean_sbu_0, # of connection points: 6
#     Node 3, Type 0, BuildingBlock: MIDCAF_clean_sbu_0, # of connection points: 6
#     Node 4, Type 0, BuildingBlock: MIDCAF_clean_sbu_0, # of connection points: 6
#     Node 5, Type 0, BuildingBlock: MIDCAF_clean_sbu_0, # of connection points: 6
#     Node 6, Type 0, BuildingBlock: MIDCAF_clean_sbu_0, # of connection points: 6
#     Node 7, Type 0, BuildingBlock: MIDCAF_clean_sbu_0, # of connection points: 6
#     Edge 8, Type (0, 0), BuildingBlock: XIVTED_clean_linker_0, # of connection points: 2
#     Edge 9, Type (0, 0), BuildingBlock: XIVTED_clean_linker_0, # of connection points: 2
#     Edge 10, Type (0, 0), BuildingBlock: XIVTED_clean_linker_0, # of connection points: 2
#     Edge 11, Type (0, 0), BuildingBlock: XIVTED_clean_linker_0, # of connection points: 2
#     Edge 12, Type (0, 0), BuildingBlock: XIVTED_clean_linker_0, # of connection points: 2
#     Edge 13, Type (0, 0), BuildingBlock: XIVTED_clean_linker_0, # of connection points: 2
#     Edge 14, Type (0, 0), BuildingBlock: XIVTED_clean_linker_0, # of connection points: 2
#     Edge 15, Type (0, 0), BuildingBlock: XIVTED_clean_linker_0, # of connection points: 2
#     Edge 16, Type (0, 0), BuildingBlock: XIVTED_clean_linker_0, # of connection points: 2
#     Edge 17, Type (0, 0), BuildingBlock: XIVTED_clean_linker_0, # of connection points: 2
#     Edge 18, Type (0, 0), BuildingBlock: XIVTED_clean_linker_0, # of connection points: 2
#     Edge 19, Type (0, 0), BuildingBlock: XIVTED_clean_linker_0, # of connection points: 2
#     Edge 20, Type (0, 0), BuildingBlock: XIVTED_clean_linker_0, # of connection points: 2
#     Edge 21, Type (0, 0), BuildingBlock: XIVTED_clean_linker_0, # of connection points: 2
#     Edge 22, Type (0, 0), BuildingBlock: XIVTED_clean_linker_0, # of connection points: 2
#     Edge 23, Type (0, 0), BuildingBlock: XIVTED_clean_linker_0, # of connection points: 2
#     Edge 24, Type (0, 0), BuildingBlock: XIVTED_clean_linker_0, # of connection points: 2
#     Edge 25, Type (0, 0), BuildingBlock: XIVTED_clean_linker_0, # of connection points: 2
#     Edge 26, Type (0, 0), BuildingBlock: XIVTED_clean_linker_0, # of connection points: 2
#     Edge 27, Type (0, 0), BuildingBlock: XIVTED_clean_linker_0, # of connection points: 2
#     Edge 28, Type (0, 0), BuildingBlock: XIVTED_clean_linker_0, # of connection points: 2
#     Edge 29, Type (0, 0), BuildingBlock: XIVTED_clean_linker_0, # of connection points: 2
#     Edge 30, Type (0, 0), BuildingBlock: XIVTED_clean_linker_0, # of connection points: 2
#     Edge 31, Type (0, 0), BuildingBlock: XIVTED_clean_linker_0, # of connection points: 2
# Relax obj value: 0.101
# Max RMSD: 0.160
# Mean RMSD: 0.160
data_MOF--net-ske--node1-MIDCAF_clean_sbu_0--edge1-XIVTED_clean_linker_0
_symmetry_space_group_name_H-M    P1
_symmetry_Int_Tables_number       1
_symmetry_cell_setting            triclinic
loop_
_symmetry_equiv_pos_as_xyz
'x, y, z'
_cell_length_a     60.651227
_cell_length_b     30.068358
_cell_length_c     15.128719
_cell_angle_alpha  90.014414
_cell_angle_beta   90.012376
_cell_angle_gamma 89.990486
loop_
_atom_site_label
_atom_site_type_symbol
_atom_site_fract_x
_atom_site_fract_y
_atom_site_fract_z
_atom_type_partial_charge
Zn0 Zn 0.15037 0.1931 0.47862 0.0
Zn1 Zn 0.1096 0.30471 0.62556 0.0
Zn2 Zn 0.12995 0.2537 0.55092 0.0
C3 C 0.08066 0.24291 0.62847 0.0
C4 C 0.11556 0.34721 0.47659 0.0
O5 O 0.15875 0.2371 0.63574 0.0
O6 O 0.17207 0.17746 0.56968 0.0
C7 C 0.1092 0.15844 0.48657 0.0
O8 O 0.09444 0.23216 0.56691 0.0
O9 O 0.08648 0.27075 0.68601 0.0
O10 O 0.09913 0.34182 0.52631 0.0
O11 O 0.13076 0.31729 0.47601 0.0
O12 O 0.12743 0.14955 0.45083 0.0
O13 O 0.10684 0.19536 0.52923 0.0
O14 O 0.14198 0.28262 0.42341 0.0
O15 O 0.16222 0.22624 0.37804 0.0
C16 C 0.15513 0.26519 0.36614 0.0
O17 O 0.14531 0.26837 0.68413 0.0
O18 O 0.13029 0.33387 0.70679 0.0
C19 C 0.17326 0.20587 0.63074 0.0
C20 C 0.14347 0.304 0.7315 0.0
Zn21 Zn 0.84926 0.32232 0.48236 0.0
Zn22 Zn 0.8904 0.2117 0.62985 0.0
Zn23 Zn 0.86969 0.26201 0.55501 0.0
C24 C 0.91906 0.27378 0.63194 0.0
C25 C 0.88426 0.16833 0.48216 0.0
O26 O 0.84087 0.27855 0.63975 0.0
O27 O 0.82759 0.33812 0.57337 0.0
C28 C 0.89027 0.35735 0.48956 0.0
O29 O 0.90515 0.28404 0.5705 0.0
O30 O 0.91349 0.246 0.68992 0.0
O31 O 0.90088 0.1746 0.53052 0.0
O32 O 0.86896 0.19804 0.48134 0.0
O33 O 0.87204 0.36606 0.45369 0.0
O34 O 0.89267 0.32054 0.53255 0.0
O35 O 0.85773 0.2326 0.42781 0.0
O36 O 0.83739 0.28878 0.38226 0.0
C37 C 0.84453 0.24986 0.37052 0.0
O38 O 0.85439 0.24746 0.68833 0.0
O39 O 0.86983 0.1824 0.71129 0.0
C40 C 0.82637 0.30977 0.63453 0.0
C41 C 0.85644 0.21193 0.73582 0.0
Zn42 Zn 0.10956 0.71366 0.36747 0.0
Zn43 Zn 0.15054 0.82352 0.51844 0.0
Zn44 Zn 0.13008 0.76352 0.44423 0.0
C45 C 0.15516 0.75022 0.62829 0.0
C46 C 0.1094 0.85839 0.5113 0.0
O47 O 0.14561 0.74964 0.31119 0.0
O48 O 0.13025 0.6847 0.286 0.0
C49 C 0.11538 0.66953 0.51464 0.0
O50 O 0.14194 0.73342 0.57059 0.0
O51 O 0.16237 0.78917 0.61758 0.0
O52 O 0.12758 0.86685 0.54785 0.0
O53 O 0.10706 0.82185 0.46735 0.0
O54 O 0.0989 0.67599 0.4656 0.0
O55 O 0.13069 0.69919 0.5166 0.0
O56 O 0.09458 0.78525 0.42897 0.0
O57 O 0.08659 0.74844 0.30772 0.0
C58 C 0.08075 0.77534 0.367 0.0
O59 O 0.15893 0.7807 0.36035 0.0
O60 O 0.17219 0.84002 0.42777 0.0
C61 C 0.1437 0.71437 0.26281 0.0
C62 C 0.1734 0.81196 0.36607 0.0
Zn63 Zn 0.89057 0.80348 0.37418 0.0
Zn64 Zn 0.84963 0.69211 0.52104 0.0
Zn65 Zn 0.87009 0.75254 0.44867 0.0
C66 C 0.84471 0.76434 0.633 0.0
C67 C 0.89078 0.65742 0.51427 0.0
O68 O 0.85479 0.76716 0.31532 0.0
O69 O 0.86994 0.83252 0.29255 0.0
C70 C 0.88439 0.84622 0.52275 0.0
O71 O 0.85801 0.78157 0.57606 0.0
O72 O 0.83749 0.72551 0.62084 0.0
O73 O 0.87256 0.64877 0.5503 0.0
O74 O 0.89315 0.69414 0.47096 0.0
O75 O 0.90091 0.84072 0.47351 0.0
O76 O 0.86921 0.81626 0.52322 0.0
O77 O 0.90557 0.73079 0.43307 0.0
O78 O 0.91374 0.7694 0.3142 0.0
C79 C 0.9194 0.74137 0.37161 0.0
O80 O 0.84143 0.73574 0.36348 0.0
O81 O 0.82822 0.6759 0.42919 0.0
C82 C 0.8567 0.80274 0.26788 0.0
C83 C 0.82705 0.70427 0.36805 0.0
Zn84 Zn 0.61039 0.80538 0.13221 0.0
Zn85 Zn 0.65095 0.69246 0.98432 0.0
Zn86 Zn 0.63065 0.75353 0.05706 0.0
C87 C 0.65597 0.76507 0.87297 0.0
C88 C 0.6095 0.65882 0.99137 0.0
O89 O 0.6461 0.76699 0.19018 0.0
O90 O 0.63106 0.83215 0.21661 0.0
C91 C 0.61769 0.84876 0.98484 0.0
O92 O 0.64293 0.78255 0.93053 0.0
O93 O 0.66282 0.72589 0.88406 0.0
O94 O 0.62777 0.64946 0.95646 0.0
O95 O 0.60724 0.69579 0.03396 0.0
O96 O 0.60113 0.84455 0.03435 0.0
O97 O 0.6322 0.81749 0.98347 0.0
O98 O 0.59501 0.73261 0.07167 0.0
O99 O 0.58644 0.77231 0.1887 0.0
C100 C 0.58092 0.74396 0.13167 0.0
O101 O 0.65942 0.73587 0.14127 0.0
O102 O 0.67269 0.67629 0.07479 0.0
C103 C 0.64433 0.80203 0.23924 0.0
C104 C 0.67392 0.70463 0.13599 0.0
Zn105 Zn 0.34918 0.8205 0.98188 0.0
Zn106 Zn 0.39076 0.71111 0.13351 0.0
Zn107 Zn 0.36993 0.76091 0.05634 0.0
C108 C 0.41944 0.77352 0.13166 0.0
C109 C 0.38434 0.66642 0.98655 0.0
O110 O 0.34108 0.77816 0.14037 0.0
O111 O 0.32779 0.8375 0.07314 0.0
C112 C 0.39027 0.85561 0.98694 0.0
O113 O 0.40536 0.78333 0.0706 0.0
O114 O 0.41412 0.7459 0.19032 0.0
O115 O 0.40078 0.67234 0.03611 0.0
O116 O 0.36923 0.69649 0.98421 0.0
O117 O 0.37204 0.86372 0.95042 0.0
O118 O 0.39272 0.81939 0.03178 0.0
O119 O 0.35795 0.73054 0.9303 0.0
O120 O 0.33692 0.78561 0.88422 0.0
C121 C 0.34436 0.74684 0.87341 0.0
O122 O 0.35457 0.74754 0.18991 0.0
O123 O 0.37038 0.68329 0.2176 0.0
C124 C 0.3266 0.80942 0.1348 0.0
C125 C 0.35675 0.71284 0.23967 0.0
Zn126 Zn 0.60926 0.21236 0.86999 0.0
Zn127 Zn 0.65035 0.32597 0.01378 0.0
Zn128 Zn 0.62982 0.26474 0.94294 0.0
C129 C 0.6555 0.25427 0.12699 0.0
C130 C 0.60895 0.35985 0.00773 0.0
O131 O 0.64494 0.25045 0.80936 0.0
O132 O 0.62965 0.18535 0.78482 0.0
C133 C 0.61718 0.1698 0.01783 0.0
O134 O 0.64231 0.23654 0.07024 0.0
O135 O 0.66249 0.29324 0.11446 0.0
O136 O 0.62731 0.3692 0.0419 0.0
O137 O 0.60653 0.32275 0.96572 0.0
O138 O 0.60044 0.17361 0.96913 0.0
O139 O 0.63161 0.20122 0.0179 0.0
O140 O 0.59418 0.28595 0.92891 0.0
O141 O 0.58506 0.24499 0.81417 0.0
C142 C 0.5799 0.27422 0.86993 0.0
O143 O 0.65839 0.28177 0.85717 0.0
O144 O 0.67177 0.34175 0.9219 0.0
C145 C 0.64293 0.21521 0.761 0.0
C146 C 0.67285 0.31313 0.86119 0.0
Zn147 Zn 0.38919 0.30216 0.87222 0.0
Zn148 Zn 0.34882 0.18972 0.02051 0.0
Zn149 Zn 0.36923 0.25081 0.94751 0.0
C150 C 0.34449 0.2619 0.13354 0.0
C151 C 0.39032 0.15581 0.01019 0.0
O152 O 0.35362 0.26539 0.81494 0.0
O153 O 0.36809 0.33141 0.79254 0.0
C154 C 0.38346 0.34433 0.02169 0.0
O155 O 0.35727 0.27947 0.07513 0.0
O156 O 0.33753 0.22279 0.12247 0.0
O157 O 0.37209 0.14638 0.04541 0.0
O158 O 0.39261 0.19299 0.9685 0.0
O159 O 0.39983 0.33902 0.97158 0.0
O160 O 0.36829 0.31437 0.02246 0.0
O161 O 0.40485 0.23025 0.93103 0.0
O162 O 0.41229 0.26838 0.81089 0.0
C163 C 0.41847 0.24116 0.86903 0.0
O164 O 0.34052 0.23368 0.86277 0.0
O165 O 0.32689 0.17461 0.92983 0.0
C166 C 0.35503 0.30126 0.76813 0.0
C167 C 0.32592 0.20266 0.86805 0.0
H168 H 0.19577 0.27854 0.69272 0.0
H169 H 0.30178 0.13188 0.81404 0.0
H170 H 0.19798 0.1353 0.68189 0.0
H171 H 0.30321 0.27519 0.80693 0.0
H172 H 0.26366 0.13335 0.7635 0.0
H173 H 0.23431 0.27903 0.74275 0.0
C174 C 0.20415 0.24719 0.70347 0.0
C175 C 0.19369 0.20678 0.68359 0.0
C176 C 0.27231 0.16457 0.77175 0.0
C177 C 0.23781 0.20713 0.73741 0.0
C178 C 0.29418 0.16368 0.79957 0.0
C179 C 0.30566 0.20343 0.81427 0.0
C180 C 0.26166 0.20559 0.75952 0.0
C181 C 0.29499 0.24377 0.79534 0.0
C182 C 0.22624 0.24751 0.73045 0.0
C183 C 0.20543 0.16717 0.69666 0.0
N184 N 0.27344 0.24388 0.76994 0.0
N185 N 0.22686 0.16836 0.72209 0.0
H186 H 0.69681 0.3835 0.80393 0.0
H187 H 0.80382 0.23706 0.69605 0.0
H188 H 0.69602 0.24014 0.80551 0.0
H189 H 0.80147 0.38027 0.68464 0.0
H190 H 0.76507 0.2364 0.74324 0.0
H191 H 0.73516 0.38195 0.75641 0.0
C192 C 0.70461 0.35164 0.79192 0.0
C193 C 0.69324 0.31192 0.80825 0.0
C194 C 0.77315 0.26796 0.7315 0.0
C195 C 0.73751 0.30972 0.75714 0.0
C196 C 0.79536 0.26837 0.70616 0.0
C197 C 0.80585 0.30882 0.68677 0.0
C198 C 0.76148 0.30828 0.73726 0.0
C199 C 0.794 0.34838 0.69901 0.0
C200 C 0.72661 0.35071 0.76592 0.0
C201 C 0.70416 0.27151 0.7926 0.0
N202 N 0.77245 0.34709 0.72274 0.0
N203 N 0.72584 0.2714 0.76891 0.0
H204 H 0.30422 0.73697 0.19814 0.0
H205 H 0.19747 0.88289 0.3123 0.0
H206 H 0.30165 0.88011 0.18386 0.0
H207 H 0.19658 0.73954 0.30769 0.0
H208 H 0.23576 0.88174 0.26376 0.0
H209 H 0.26562 0.73635 0.24717 0.0
C210 C 0.29574 0.76829 0.20795 0.0
C211 C 0.30613 0.80869 0.18734 0.0
C212 C 0.22719 0.85044 0.27213 0.0
C213 C 0.26192 0.80818 0.23999 0.0
C214 C 0.20523 0.85115 0.29878 0.0
C215 C 0.19385 0.81129 0.3135 0.0
C216 C 0.23802 0.80952 0.26113 0.0
C217 C 0.20473 0.77103 0.29599 0.0
C218 C 0.27362 0.76789 0.23436 0.0
C219 C 0.29425 0.84825 0.19921 0.0
N220 N 0.22635 0.77112 0.27167 0.0
N221 N 0.27279 0.84698 0.22408 0.0
H222 H 0.69612 0.77752 0.19852 0.0
H223 H 0.80346 0.63319 0.31168 0.0
H224 H 0.69919 0.63439 0.18497 0.0
H225 H 0.80365 0.77657 0.31054 0.0
H226 H 0.76523 0.63384 0.26245 0.0
H227 H 0.73473 0.77877 0.24728 0.0
C228 C 0.70472 0.74633 0.20843 0.0
C229 C 0.69446 0.70574 0.18815 0.0
C230 C 0.77363 0.66527 0.27172 0.0
C231 C 0.73869 0.70699 0.24043 0.0
C232 C 0.79556 0.66486 0.29876 0.0
C233 C 0.80672 0.70485 0.31474 0.0
C234 C 0.76259 0.70603 0.26159 0.0
C235 C 0.79567 0.74499 0.2979 0.0
C236 C 0.72685 0.7471 0.23468 0.0
C237 C 0.70648 0.66638 0.20008 0.0
N238 N 0.77407 0.74461 0.27321 0.0
N239 N 0.72796 0.66802 0.22477 0.0
H240 H 0.08817 0.89426 0.36851 0.0
H241 H 0.08827 0.12263 0.62999 0.0
H242 H 0.0953 0.9077 0.65041 0.0
H243 H 0.09473 0.10933 0.34783 0.0
H244 H 0.07573 0.04509 0.63783 0.0
H245 H 0.07549 0.97174 0.36104 0.0
C246 C 0.086 0.91279 0.42932 0.0
C247 C 0.09298 0.89477 0.51007 0.0
C248 C 0.07911 0.0596 0.57375 0.0
C249 C 0.07913 0.98365 0.50205 0.0
C250 C 0.08596 0.10412 0.56923 0.0
C251 C 0.09272 0.12221 0.48825 0.0
C252 C 0.07906 0.03323 0.49669 0.0
C253 C 0.08978 0.09645 0.41166 0.0
C254 C 0.07906 0.95727 0.42501 0.0
C255 C 0.09019 0.92054 0.58673 0.0
N256 N 0.08364 0.05307 0.41788 0.0
N257 N 0.08395 0.96387 0.5807 0.0
H258 H 0.91149 0.3931 0.63251 0.0
H259 H 0.91179 0.62146 0.37111 0.0
H260 H 0.90447 0.40656 0.35058 0.0
H261 H 0.90506 0.6082 0.65318 0.0
H262 H 0.92425 0.54385 0.3634 0.0
H263 H 0.92424 0.47052 0.64011 0.0
C264 C 0.9137 0.41162 0.57172 0.0
C265 C 0.90673 0.39362 0.49091 0.0
C266 C 0.92082 0.55838 0.42744 0.0
C267 C 0.92066 0.48244 0.49909 0.0
C268 C 0.91402 0.60294 0.4319 0.0
C269 C 0.9072 0.62106 0.51279 0.0
C270 C 0.92078 0.53202 0.50448 0.0
C271 C 0.91005 0.5953 0.5894 0.0
C272 C 0.92068 0.45606 0.57611 0.0
C273 C 0.90957 0.41938 0.41429 0.0
N274 N 0.91615 0.55188 0.58324 0.0
N275 N 0.91586 0.46268 0.42039 0.0
H276 H 0.914 0.90541 0.58633 0.0
H277 H 0.84499 0.12311 0.48514 0.0
H278 H 0.84563 0.89262 0.51288 0.0
H279 H 0.91429 0.10695 0.43047 0.0
H280 H 0.84214 0.04245 0.51062 0.0
H281 H 0.9115 0.98551 0.56333 0.0
C282 C 0.89819 0.91977 0.56902 0.0
C283 C 0.88007 0.89234 0.55086 0.0
C284 C 0.85781 0.0566 0.49097 0.0
C285 C 0.8773 0.98376 0.52068 0.0
C286 C 0.85937 0.10242 0.47453 0.0
C287 C 0.87998 0.12178 0.45633 0.0
C288 C 0.87704 0.03059 0.49006 0.0
C289 C 0.89813 0.09345 0.44491 0.0
C290 C 0.89689 0.96533 0.55381 0.0
C291 C 0.85998 0.91268 0.5279 0.0
N292 N 0.89636 0.04955 0.46405 0.0
N293 N 0.85919 0.95729 0.51178 0.0
H294 H 0.15461 0.62412 0.51383 0.0
H295 H 0.08583 0.40594 0.41215 0.0
H296 H 0.0851 0.60827 0.56425 0.0
H297 H 0.15421 0.39391 0.48601 0.0
H298 H 0.08816 0.48612 0.43423 0.0
H299 H 0.15749 0.54342 0.48877 0.0
C300 C 0.14017 0.60349 0.52356 0.0
C301 C 0.11951 0.62294 0.54048 0.0
C302 C 0.10281 0.46609 0.44404 0.0
C303 C 0.12251 0.5317 0.50724 0.0
C304 C 0.10161 0.42047 0.42934 0.0
C305 C 0.11979 0.39325 0.44786 0.0
C306 C 0.12235 0.48478 0.47709 0.0
C307 C 0.13983 0.41382 0.47069 0.0
C308 C 0.14176 0.55765 0.50736 0.0
C309 C 0.1013 0.5947 0.55081 0.0
N310 N 0.14051 0.45848 0.48637 0.0
N311 N 0.10311 0.55077 0.53198 0.0
H312 H 0.58828 0.62255 0.13361 0.0
H313 H 0.58776 0.39637 0.86565 0.0
H314 H 0.59475 0.6112 0.85114 0.0
H315 H 0.59436 0.40755 0.14811 0.0
H316 H 0.57513 0.4739 0.86019 0.0
H317 H 0.57534 0.54523 0.13916 0.0
C318 C 0.58589 0.60454 0.07231 0.0
C319 C 0.59276 0.62308 0.9919 0.0
C320 C 0.57855 0.45892 0.92383 0.0
C321 C 0.57865 0.53434 0.99771 0.0
C322 C 0.58545 0.41439 0.92697 0.0
C323 C 0.59228 0.39573 0.00735 0.0
C324 C 0.57854 0.48472 0.00164 0.0
C325 C 0.58934 0.42088 0.08472 0.0
C326 C 0.5788 0.56014 0.07551 0.0
C327 C 0.5897 0.59796 0.91456 0.0
N328 N 0.58317 0.46429 0.07983 0.0
N329 N 0.58335 0.55466 0.91949 0.0
H330 H 0.40528 0.90189 0.84547 0.0
H331 H 0.40671 0.11015 0.14992 0.0
H332 H 0.4103 0.89483 0.12891 0.0
H333 H 0.40943 0.11704 0.86601 0.0
H334 H 0.41933 0.03311 0.14368 0.0
H335 H 0.41804 0.97884 0.85024 0.0
C336 C 0.41004 0.91603 0.90854 0.0
C337 C 0.40663 0.89205 0.98696 0.0
C338 C 0.41795 0.0517 0.08264 0.0
C339 C 0.42021 0.98112 0.99357 0.0
C340 C 0.41099 0.09598 0.08632 0.0
C341 C 0.40696 0.11993 0.00834 0.0
C342 C 0.42032 0.03076 1.00015 0.0
C343 C 0.41243 0.0998 0.92769 0.0
C344 C 0.41711 0.96025 0.9114 0.0
C345 C 0.41278 0.91211 0.06691 0.0
N346 N 0.41821 0.05597 0.92548 0.0
N347 N 0.41865 0.9559 0.06845 0.0
H348 H 0.41321 0.40271 0.08701 0.0
H349 H 0.34496 0.62165 0.98723 0.0
H350 H 0.34487 0.3912 0.01241 0.0
H351 H 0.41436 0.60497 0.93531 0.0
H352 H 0.34185 0.54093 0.01154 0.0
H353 H 0.411 0.48295 0.06546 0.0
C354 C 0.39746 0.41738 0.06978 0.0
C355 C 0.37927 0.3903 0.05086 0.0
C356 C 0.3576 0.55499 0.99274 0.0
C357 C 0.37683 0.48186 0.02224 0.0
C358 C 0.35932 0.60084 0.97695 0.0
C359 C 0.38002 0.62004 0.95987 0.0
C360 C 0.37677 0.52879 0.9923 0.0
C361 C 0.39813 0.59158 0.94887 0.0
C362 C 0.39633 0.46302 0.05538 0.0
C363 C 0.35926 0.411 0.02801 0.0
N364 N 0.3962 0.54764 0.96735 0.0
N365 N 0.35864 0.45569 0.01262 0.0
H366 H 0.65731 0.12843 0.01062 0.0
H367 H 0.65769 0.89071 0.99015 0.0
H368 H 0.5891 0.10656 0.0774 0.0
H369 H 0.58915 0.91173 0.92758 0.0
H370 H 0.66199 0.971 0.01336 0.0
H371 H 0.66181 0.04818 0.98752 0.0
C372 C 0.64358 0.10653 0.02492 0.0
C373 C 0.62275 0.12416 0.04569 0.0
C374 C 0.64621 0.95824 0.99164 0.0
C375 C 0.62753 0.03287 0.0162 0.0
C376 C 0.64383 0.91244 0.97681 0.0
C377 C 0.62298 0.89455 0.95716 0.0
C378 C 0.62755 0.98587 0.9868 0.0
C379 C 0.60548 0.92413 0.9428 0.0
C380 C 0.64607 0.06075 0.01015 0.0
C381 C 0.60541 0.09436 0.06128 0.0
N382 N 0.60803 0.96808 0.96002 0.0
N383 N 0.60805 0.05042 0.04409 0.0
H384 H 0.18914 0.24493 0.25692 0.0
H385 H 0.14158 0.37566 0.84205 0.0
H386 H 0.13275 0.33196 0.2773 0.0
H387 H 0.16629 0.24114 0.82826 0.0
H388 H 0.1492 0.3765 0.00052 0.0
H389 H 0.19183 0.26213 0.09994 0.0
C390 C 0.17761 0.26858 0.22893 0.0
C391 C 0.16034 0.28629 0.28013 0.0
C392 C 0.15338 0.34726 0.96219 0.0
C393 C 0.16358 0.30618 0.10017 0.0
C394 C 0.14916 0.34662 0.87158 0.0
C395 C 0.15316 0.308 0.82128 0.0
C396 C 0.16213 0.30941 0.00277 0.0
C397 C 0.16308 0.27167 0.86372 0.0
C398 C 0.17917 0.27814 0.13919 0.0
C399 C 0.14619 0.31731 0.24033 0.0
N400 N 0.16709 0.27317 0.95222 0.0
N401 N 0.14793 0.32584 0.15203 0.0
H402 H 0.81042 0.26964 0.26147 0.0
H403 H 0.85868 0.14027 0.84613 0.0
H404 H 0.86711 0.18341 0.28152 0.0
H405 H 0.83317 0.2742 0.8326 0.0
H406 H 0.85102 0.13912 0.00449 0.0
H407 H 0.80781 0.25263 0.10434 0.0
C408 C 0.82203 0.24618 0.23336 0.0
C409 C 0.83936 0.22867 0.28453 0.0
C410 C 0.84668 0.1683 0.96627 0.0
C411 C 0.83623 0.20901 0.1044 0.0
C412 C 0.85092 0.16911 0.8757 0.0
C413 C 0.84673 0.20768 0.82551 0.0
C414 C 0.83771 0.20591 0.00695 0.0
C415 C 0.83658 0.24373 0.868 0.0
C416 C 0.82052 0.23674 0.14354 0.0
C417 C 0.85362 0.19791 0.24459 0.0
N418 N 0.83254 0.24207 0.9565 0.0
N419 N 0.85193 0.18949 0.15622 0.0
H420 H 0.16712 0.77735 0.1691 0.0
H421 H 0.1324 0.68326 0.71438 0.0
H422 H 0.14185 0.64341 0.1506 0.0
H423 H 0.18904 0.7693 0.739 0.0
H424 H 0.13559 0.66565 0.87262 0.0
H425 H 0.1758 0.77485 0.01127 0.0
C426 C 0.164 0.747 0.13281 0.0
C427 C 0.1537 0.71068 0.17357 0.0
C428 C 0.14761 0.68756 0.84253 0.0
C429 C 0.16266 0.70828 0.99212 0.0
C430 C 0.14586 0.69736 0.75217 0.0
C431 C 0.16017 0.72849 0.71384 0.0
C432 C 0.16352 0.70963 0.89431 0.0
C433 C 0.17731 0.74588 0.76625 0.0
C434 C 0.1688 0.74567 0.04242 0.0
C435 C 0.14961 0.67248 0.12204 0.0
N436 N 0.17817 0.73713 0.85408 0.0
N437 N 0.15361 0.67265 0.03371 0.0
H438 H 0.81072 0.74419 0.74243 0.0
H439 H 0.85876 0.87433 0.15729 0.0
H440 H 0.86721 0.83092 0.72194 0.0
H441 H 0.83366 0.74013 0.17118 0.0
H442 H 0.85108 0.87526 0.9989 0.0
H443 H 0.80815 0.76125 0.89953 0.0
C444 C 0.82229 0.76776 0.77042 0.0
C445 C 0.83956 0.78542 0.71913 0.0
C446 C 0.84683 0.84607 0.03723 0.0
C447 C 0.83645 0.80514 0.89924 0.0
C448 C 0.85109 0.84538 0.1278 0.0
C449 C 0.847 0.80681 0.17811 0.0
C450 C 0.83796 0.80833 0.99666 0.0
C451 C 0.83696 0.77061 0.13572 0.0
C452 C 0.82081 0.77723 0.86024 0.0
C453 C 0.85376 0.81631 0.75896 0.0
N454 N 0.83291 0.77215 0.04722 0.0
N455 N 0.85209 0.82476 0.84731 0.0
H456 H 0.66696 0.73774 0.33239 0.0
H457 H 0.63408 0.83336 0.78739 0.0
H458 H 0.64357 0.87305 0.35148 0.0
H459 H 0.68945 0.74406 0.76174 0.0
H460 H 0.63744 0.85109 0.62933 0.0
H461 H 0.67597 0.73975 0.4899 0.0
C462 C 0.66434 0.76827 0.36873 0.0
C463 C 0.65447 0.80516 0.32827 0.0
C464 C 0.64916 0.82843 0.65916 0.0
C465 C 0.66378 0.80703 0.50939 0.0
C466 C 0.64731 0.81854 0.74942 0.0
C467 C 0.66119 0.78649 0.78737 0.0
C468 C 0.66472 0.80553 0.60713 0.0
C469 C 0.67805 0.7682 0.73475 0.0
C470 C 0.66932 0.76932 0.45895 0.0
C471 C 0.65098 0.84357 0.37987 0.0
N472 N 0.67899 0.7771 0.647 0.0
N473 N 0.65513 0.84316 0.46808 0.0
H474 H 0.30786 0.75895 0.77286 0.0
H475 H 0.33344 0.77644 0.33215 0.0
H476 H 0.36932 0.68673 0.77821 0.0
H477 H 0.35845 0.64239 0.35305 0.0
H478 H 0.32428 0.77441 0.48944 0.0
H479 H 0.30464 0.74391 0.61489 0.0
C480 C 0.32044 0.73893 0.74118 0.0
C481 C 0.33918 0.72492 0.78836 0.0
C482 C 0.33117 0.74497 0.45885 0.0
C483 C 0.3357 0.7084 0.60725 0.0
C484 C 0.33631 0.74609 0.36875 0.0
C485 C 0.34663 0.70956 0.32877 0.0
C486 C 0.33684 0.70742 0.5096 0.0
C487 C 0.35057 0.67151 0.3809 0.0
C488 C 0.31866 0.73083 0.65087 0.0
C489 C 0.35472 0.69846 0.74425 0.0
N490 N 0.34618 0.67183 0.46894 0.0
N491 N 0.35281 0.6916 0.65546 0.0
H492 H 0.68909 0.27606 0.23737 0.0
H493 H 0.64144 0.1437 0.65005 0.0
H494 H 0.6337 0.18659 0.21514 0.0
H495 H 0.66584 0.27839 0.66546 0.0
H496 H 0.64952 0.14303 0.492 0.0
H497 H 0.69169 0.25886 0.39438 0.0
C498 C 0.67777 0.2519 0.26496 0.0
C499 C 0.66078 0.23347 0.21323 0.0
C500 C 0.65353 0.17229 0.53059 0.0
C501 C 0.66392 0.2136 0.3932 0.0
C502 C 0.64903 0.17283 0.62096 0.0
C503 C 0.6528 0.21145 0.67155 0.0
C504 C 0.6623 0.21025 0.49053 0.0
C505 C 0.66278 0.24787 0.62974 0.0
C506 C 0.67927 0.24233 0.35472 0.0
C507 C 0.64691 0.20181 0.25252 0.0
N508 N 0.66704 0.24649 0.54142 0.0
N509 N 0.64858 0.19331 0.34083 0.0
H510 H 0.36603 0.33167 0.21582 0.0
H511 H 0.35326 0.37513 0.66354 0.0
H512 H 0.31229 0.23911 0.24955 0.0
H513 H 0.33497 0.23639 0.66729 0.0
H514 H 0.3461 0.37722 0.50486 0.0
H515 H 0.3631 0.35105 0.37291 0.0
C516 C 0.35319 0.31652 0.25532 0.0
C517 C 0.33963 0.28327 0.21967 0.0
C518 C 0.34345 0.34649 0.54062 0.0
C519 C 0.3363 0.30476 0.39917 0.0
C520 C 0.3473 0.34524 0.63147 0.0
C521 C 0.34507 0.3052 0.67892 0.0
C522 C 0.33713 0.30752 0.49679 0.0
C523 C 0.33699 0.26789 0.63373 0.0
C524 C 0.35151 0.32752 0.34514 0.0
C525 C 0.32337 0.26439 0.27448 0.0
N526 N 0.3335 0.26986 0.54491 0.0
N527 N 0.32254 0.27456 0.36174 0.0
H528 H 0.05521 0.23705 0.47915 0.0
H529 H 0.94747 0.28985 0.76611 0.0
H530 H 0.05185 0.23254 0.76358 0.0
H531 H 0.94466 0.27501 0.48304 0.0
H532 H 0.98707 0.27667 0.76149 0.0
H533 H 0.01528 0.25123 0.47437 0.0
C534 C 0.04594 0.23724 0.54033 0.0
C535 C 0.05682 0.23362 0.62196 0.0
C536 C 0.97795 0.2769 0.69996 0.0
C537 C 0.01156 0.25181 0.61721 0.0
C538 C 0.95539 0.28535 0.70251 0.0
C539 C 0.94281 0.28364 0.6249 0.0
C540 C 0.98809 0.26625 0.61918 0.0
C541 C 0.95384 0.27711 0.54429 0.0
C542 C 0.02325 0.24628 0.53766 0.0
C543 C 0.0441 0.23515 0.69928 0.0
N544 N 0.97587 0.26793 0.54354 0.0
N545 N 0.02228 0.24474 0.69504 0.0
H546 H 0.94748 0.72478 0.23672 0.0
H547 H 0.05583 0.78011 0.51791 0.0
H548 H 0.94532 0.74089 0.51958 0.0
H549 H 0.05133 0.78541 0.23375 0.0
H550 H 0.01602 0.76495 0.52491 0.0
H551 H 0.98704 0.73857 0.23955 0.0
C552 C 0.95554 0.72965 0.29992 0.0
C553 C 0.94315 0.73156 0.37798 0.0
C554 C 0.02371 0.77028 0.46121 0.0
C555 C 0.98837 0.74969 0.3816 0.0
C556 C 0.04633 0.77986 0.45727 0.0
C557 C 0.05688 0.78398 0.37503 0.0
C558 C 0.01175 0.76469 0.38232 0.0
C559 C 0.04386 0.78239 0.29848 0.0
C560 C 0.97807 0.73847 0.30144 0.0
C561 C 0.95436 0.73861 0.45804 0.0
N562 N 0.02211 0.77225 0.30394 0.0
N563 N 0.97635 0.74815 0.45775 0.0
H564 H 0.5559 0.7377 0.98127 0.0
H565 H 0.44781 0.79204 0.26457 0.0
H566 H 0.55184 0.73321 0.26554 0.0
H567 H 0.44493 0.77322 0.98247 0.0
H568 H 0.48744 0.77917 0.26042 0.0
H569 H 0.51594 0.75167 0.97492 0.0
C570 C 0.54646 0.73783 0.04207 0.0
C571 C 0.55715 0.7343 0.12413 0.0
C572 C 0.47829 0.77846 0.19896 0.0
C573 C 0.51189 0.75228 0.1176 0.0
C574 C 0.45572 0.78676 0.20119 0.0
C575 C 0.44312 0.78382 0.1238 0.0
C576 C 0.48843 0.76674 0.11875 0.0
C577 C 0.45413 0.77629 0.0435 0.0
C578 C 0.52377 0.74674 0.0385 0.0
C579 C 0.54424 0.73576 0.20094 0.0
N580 N 0.47618 0.76728 0.0431 0.0
N581 N 0.52242 0.74526 0.19584 0.0
H582 H 0.44382 0.23518 0.01878 0.0
H583 H 0.55175 0.29248 0.73628 0.0
H584 H 0.44763 0.23353 0.73428 0.0
H585 H 0.5543 0.27459 0.0186 0.0
H586 H 0.51213 0.27942 0.73973 0.0
H587 H 0.48363 0.25054 0.02506 0.0
C588 C 0.45317 0.23631 0.95782 0.0
C589 C 0.44243 0.23308 0.8758 0.0
C590 C 0.52119 0.27901 0.80141 0.0
C591 C 0.48756 0.25259 0.88237 0.0
C592 C 0.54375 0.28744 0.79956 0.0
C593 C 0.55626 0.28483 0.87724 0.0
C594 C 0.51097 0.26741 0.88151 0.0
C595 C 0.54516 0.27747 0.95738 0.0
C596 C 0.47579 0.246 0.9614 0.0
C597 C 0.45525 0.23581 0.79887 0.0
N598 N 0.52313 0.26826 0.9574 0.0
N599 N 0.477 0.24599 0.80403 0.0
loop_
_geom_bond_atom_site_label_1
_geom_bond_atom_site_label_2
_geom_bond_distance
_geom_bond_site_symmetry_2
_ccdc_geom_bond_type
Zn0 O6 1.920 . S
Zn0 O12 1.898 . S
Zn0 O15 1.905 . S
Zn1 O9 1.905 . S
Zn1 O10 1.898 . S
Zn1 O18 1.920 . S
Zn2 O5 2.080 . S
Zn2 O8 2.114 . S
Zn2 O11 2.120 . S
Zn2 O13 2.120 . S
Zn2 O14 2.114 . S
Zn2 O17 2.080 . S
C3 O8 1.166 . S
C3 O9 1.182 . S
C4 O10 1.167 . S
C4 O11 1.299 . S
O5 Zn2 2.080 . S
O5 C19 1.305 . S
O6 Zn0 1.920 . S
O6 C19 1.234 . S
C7 O12 1.167 . S
C7 O13 1.299 . S
O8 Zn2 2.114 . S
O8 C3 1.166 . S
O9 Zn1 1.905 . S
O9 C3 1.182 . S
O10 Zn1 1.898 . S
O10 C4 1.167 . S
O11 Zn2 2.120 . S
O11 C4 1.299 . S
O12 Zn0 1.898 . S
O12 C7 1.167 . S
O13 Zn2 2.120 . S
O13 C7 1.299 . S
O14 Zn2 2.114 . S
O14 C16 1.166 . S
O15 Zn0 1.905 . S
O15 C16 1.182 . S
C16 O14 1.166 . S
C16 O15 1.182 . S
O17 Zn2 2.080 . S
O17 C20 1.305 . S
O18 Zn1 1.920 . S
O18 C20 1.234 . S
C19 O5 1.305 . S
C19 O6 1.234 . S
C20 O17 1.305 . S
C20 O18 1.234 . S
Zn21 O27 1.920 . S
Zn21 O33 1.898 . S
Zn21 O36 1.905 . S
Zn22 O30 1.905 . S
Zn22 O31 1.898 . S
Zn22 O39 1.920 . S
Zn23 O26 2.080 . S
Zn23 O29 2.114 . S
Zn23 O32 2.120 . S
Zn23 O34 2.120 . S
Zn23 O35 2.114 . S
Zn23 O38 2.080 . S
C24 O29 1.166 . S
C24 O30 1.182 . S
C25 O31 1.167 . S
C25 O32 1.299 . S
O26 Zn23 2.080 . S
O26 C40 1.305 . S
O27 Zn21 1.920 . S
O27 C40 1.234 . S
C28 O33 1.167 . S
C28 O34 1.299 . S
O29 Zn23 2.114 . S
O29 C24 1.166 . S
O30 Zn22 1.905 . S
O30 C24 1.182 . S
O31 Zn22 1.898 . S
O31 C25 1.167 . S
O32 Zn23 2.120 . S
O32 C25 1.299 . S
O33 Zn21 1.898 . S
O33 C28 1.167 . S
O34 Zn23 2.120 . S
O34 C28 1.299 . S
O35 Zn23 2.114 . S
O35 C37 1.166 . S
O36 Zn21 1.905 . S
O36 C37 1.182 . S
C37 O35 1.166 . S
C37 O36 1.182 . S
O38 Zn23 2.080 . S
O38 C41 1.305 . S
O39 Zn22 1.920 . S
O39 C41 1.234 . S
C40 O26 1.305 . S
C40 O27 1.234 . S
C41 O38 1.305 . S
C41 O39 1.234 . S
Zn42 O48 1.920 . S
Zn42 O54 1.898 . S
Zn42 O57 1.905 . S
Zn43 O51 1.905 . S
Zn43 O52 1.898 . S
Zn43 O60 1.920 . S
Zn44 O47 2.080 . S
Zn44 O50 2.114 . S
Zn44 O53 2.120 . S
Zn44 O55 2.120 . S
Zn44 O56 2.114 . S
Zn44 O59 2.080 . S
C45 O50 1.166 . S
C45 O51 1.182 . S
C46 O52 1.167 . S
C46 O53 1.299 . S
O47 Zn44 2.080 . S
O47 C61 1.305 . S
O48 Zn42 1.920 . S
O48 C61 1.234 . S
C49 O54 1.167 . S
C49 O55 1.299 . S
O50 Zn44 2.114 . S
O50 C45 1.166 . S
O51 Zn43 1.905 . S
O51 C45 1.182 . S
O52 Zn43 1.898 . S
O52 C46 1.167 . S
O53 Zn44 2.120 . S
O53 C46 1.299 . S
O54 Zn42 1.898 . S
O54 C49 1.167 . S
O55 Zn44 2.120 . S
O55 C49 1.299 . S
O56 Zn44 2.114 . S
O56 C58 1.166 . S
O57 Zn42 1.905 . S
O57 C58 1.182 . S
C58 O56 1.166 . S
C58 O57 1.182 . S
O59 Zn44 2.080 . S
O59 C62 1.305 . S
O60 Zn43 1.920 . S
O60 C62 1.234 . S
C61 O47 1.305 . S
C61 O48 1.234 . S
C62 O59 1.305 . S
C62 O60 1.234 . S
Zn63 O69 1.920 . S
Zn63 O75 1.898 . S
Zn63 O78 1.905 . S
Zn64 O72 1.905 . S
Zn64 O73 1.898 . S
Zn64 O81 1.920 . S
Zn65 O68 2.080 . S
Zn65 O71 2.114 . S
Zn65 O74 2.120 . S
Zn65 O76 2.120 . S
Zn65 O77 2.114 . S
Zn65 O80 2.080 . S
C66 O71 1.166 . S
C66 O72 1.182 . S
C67 O73 1.167 . S
C67 O74 1.299 . S
O68 Zn65 2.080 . S
O68 C82 1.305 . S
O69 Zn63 1.920 . S
O69 C82 1.234 . S
C70 O75 1.167 . S
C70 O76 1.299 . S
O71 Zn65 2.114 . S
O71 C66 1.166 . S
O72 Zn64 1.905 . S
O72 C66 1.182 . S
O73 Zn64 1.898 . S
O73 C67 1.167 . S
O74 Zn65 2.120 . S
O74 C67 1.299 . S
O75 Zn63 1.898 . S
O75 C70 1.167 . S
O76 Zn65 2.120 . S
O76 C70 1.299 . S
O77 Zn65 2.114 . S
O77 C79 1.166 . S
O78 Zn63 1.905 . S
O78 C79 1.182 . S
C79 O77 1.166 . S
C79 O78 1.182 . S
O80 Zn65 2.080 . S
O80 C83 1.305 . S
O81 Zn64 1.920 . S
O81 C83 1.234 . S
C82 O68 1.305 . S
C82 O69 1.234 . S
C83 O80 1.305 . S
C83 O81 1.234 . S
Zn84 O90 1.920 . S
Zn84 O96 1.898 . S
Zn84 O99 1.905 . S
Zn85 O93 1.905 . S
Zn85 O94 1.898 1_556 S
Zn85 O102 1.920 1_556 S
Zn86 O89 2.080 . S
Zn86 O92 2.114 1_554 S
Zn86 O95 2.120 . S
Zn86 O97 2.120 . S
Zn86 O98 2.114 . S
Zn86 O101 2.080 . S
C87 O92 1.166 . S
C87 O93 1.182 . S
C88 O94 1.167 . S
C88 O95 1.299 . S
O89 Zn86 2.080 . S
O89 C103 1.305 . S
O90 Zn84 1.920 . S
O90 C103 1.234 . S
C91 O96 1.167 . S
C91 O97 1.299 . S
O92 Zn86 2.114 1_556 S
O92 C87 1.166 . S
O93 Zn85 1.905 . S
O93 C87 1.182 . S
O94 Zn85 1.898 1_554 S
O94 C88 1.167 . S
O95 Zn86 2.120 . S
O95 C88 1.299 . S
O96 Zn84 1.898 . S
O96 C91 1.167 . S
O97 Zn86 2.120 . S
O97 C91 1.299 . S
O98 Zn86 2.114 . S
O98 C100 1.166 . S
O99 Zn84 1.905 . S
O99 C100 1.182 . S
C100 O98 1.166 . S
C100 O99 1.182 . S
O101 Zn86 2.080 . S
O101 C104 1.305 . S
O102 Zn85 1.920 1_554 S
O102 C104 1.234 . S
C103 O89 1.305 . S
C103 O90 1.234 . S
C104 O101 1.305 . S
C104 O102 1.234 . S
Zn105 O111 1.920 1_556 S
Zn105 O117 1.898 1_556 S
Zn105 O120 1.905 . S
Zn106 O114 1.905 . S
Zn106 O115 1.898 . S
Zn106 O123 1.920 . S
Zn107 O110 2.080 . S
Zn107 O113 2.114 . S
Zn107 O116 2.120 . S
Zn107 O118 2.120 . S
Zn107 O119 2.114 1_554 S
Zn107 O122 2.080 . S
C108 O113 1.166 . S
C108 O114 1.182 . S
C109 O115 1.167 . S
C109 O116 1.299 . S
O110 Zn107 2.080 . S
O110 C124 1.305 . S
O111 Zn105 1.920 1_554 S
O111 C124 1.234 . S
C112 O117 1.167 . S
C112 O118 1.299 . S
O113 Zn107 2.114 . S
O113 C108 1.166 . S
O114 Zn106 1.905 . S
O114 C108 1.182 . S
O115 Zn106 1.898 . S
O115 C109 1.167 . S
O116 Zn107 2.120 . S
O116 C109 1.299 . S
O117 Zn105 1.898 1_554 S
O117 C112 1.167 . S
O118 Zn107 2.120 . S
O118 C112 1.299 . S
O119 Zn107 2.114 1_556 S
O119 C121 1.166 . S
O120 Zn105 1.905 . S
O120 C121 1.182 . S
C121 O119 1.166 . S
C121 O120 1.182 . S
O122 Zn107 2.080 . S
O122 C125 1.305 . S
O123 Zn106 1.920 . S
O123 C125 1.234 . S
C124 O110 1.305 . S
C124 O111 1.234 . S
C125 O122 1.305 . S
C125 O123 1.234 . S
Zn126 O132 1.920 . S
Zn126 O138 1.898 . S
Zn126 O141 1.905 . S
Zn127 O135 1.905 . S
Zn127 O136 1.898 1_554 S
Zn127 O144 1.920 1_554 S
Zn128 O131 2.080 . S
Zn128 O134 2.114 1_556 S
Zn128 O137 2.120 . S
Zn128 O139 2.120 . S
Zn128 O140 2.114 . S
Zn128 O143 2.080 . S
C129 O134 1.166 . S
C129 O135 1.182 . S
C130 O136 1.167 . S
C130 O137 1.299 . S
O131 Zn128 2.080 . S
O131 C145 1.305 . S
O132 Zn126 1.920 . S
O132 C145 1.234 . S
C133 O138 1.167 . S
C133 O139 1.299 . S
O134 Zn128 2.114 1_554 S
O134 C129 1.166 . S
O135 Zn127 1.905 . S
O135 C129 1.182 . S
O136 Zn127 1.898 1_556 S
O136 C130 1.167 . S
O137 Zn128 2.120 . S
O137 C130 1.299 . S
O138 Zn126 1.898 . S
O138 C133 1.167 . S
O139 Zn128 2.120 . S
O139 C133 1.299 . S
O140 Zn128 2.114 . S
O140 C142 1.166 . S
O141 Zn126 1.905 . S
O141 C142 1.182 . S
C142 O140 1.166 . S
C142 O141 1.182 . S
O143 Zn128 2.080 . S
O143 C146 1.305 . S
O144 Zn127 1.920 1_556 S
O144 C146 1.234 . S
C145 O131 1.305 . S
C145 O132 1.234 . S
C146 O143 1.305 . S
C146 O144 1.234 . S
Zn147 O153 1.920 . S
Zn147 O159 1.898 . S
Zn147 O162 1.905 . S
Zn148 O156 1.905 . S
Zn148 O157 1.898 1_554 S
Zn148 O165 1.920 1_554 S
Zn149 O152 2.080 . S
Zn149 O155 2.114 1_556 S
Zn149 O158 2.120 . S
Zn149 O160 2.120 . S
Zn149 O161 2.114 . S
Zn149 O164 2.080 . S
C150 O155 1.166 . S
C150 O156 1.182 . S
C151 O157 1.167 . S
C151 O158 1.299 . S
O152 Zn149 2.080 . S
O152 C166 1.305 . S
O153 Zn147 1.920 . S
O153 C166 1.234 . S
C154 O159 1.167 . S
C154 O160 1.299 . S
O155 Zn149 2.114 1_554 S
O155 C150 1.166 . S
O156 Zn148 1.905 . S
O156 C150 1.182 . S
O157 Zn148 1.898 1_556 S
O157 C151 1.167 . S
O158 Zn149 2.120 . S
O158 C151 1.299 . S
O159 Zn147 1.898 . S
O159 C154 1.167 . S
O160 Zn149 2.120 . S
O160 C154 1.299 . S
O161 Zn149 2.114 . S
O161 C163 1.166 . S
O162 Zn147 1.905 . S
O162 C163 1.182 . S
C163 O161 1.166 . S
C163 O162 1.182 . S
O164 Zn149 2.080 . S
O164 C167 1.305 . S
O165 Zn148 1.920 1_556 S
O165 C167 1.234 . S
C166 O152 1.305 . S
C166 O153 1.234 . S
C167 O164 1.305 . S
C167 O165 1.234 . S
H168 C174 0.930 . S
H169 C178 0.930 . S
H170 C183 0.929 . S
H171 C181 0.929 . S
H172 C176 0.929 . S
H173 C182 0.929 . S
C174 H168 0.930 . S
C174 C175 1.367 . S
C174 C182 1.378 . S
C175 C174 1.367 . S
C175 C183 1.433 . S
C176 H172 0.929 . S
C176 C178 1.378 . S
C176 C180 1.350 . S
C177 C180 1.463 . S
C177 C182 1.350 . S
C177 N185 1.427 . S
C178 H169 0.930 . S
C178 C176 1.378 . S
C178 C179 1.367 . S
C179 C178 1.367 . S
C179 C181 1.433 . S
C180 C176 1.350 . S
C180 C177 1.463 . S
C180 N184 1.427 . S
C181 H171 0.929 . S
C181 C179 1.433 . S
C181 N184 1.384 . S
C182 H173 0.929 . S
C182 C174 1.378 . S
C182 C177 1.350 . S
C183 H170 0.929 . S
C183 C175 1.433 . S
C183 N185 1.384 . S
N184 C180 1.427 . S
N184 C181 1.384 . S
N185 C177 1.427 . S
N185 C183 1.384 . S
H186 C192 0.930 . S
H187 C196 0.930 . S
H188 C201 0.929 . S
H189 C199 0.929 . S
H190 C194 0.929 . S
H191 C200 0.929 . S
C192 H186 0.930 . S
C192 C193 1.367 . S
C192 C200 1.378 . S
C193 C192 1.367 . S
C193 C201 1.433 . S
C194 H190 0.929 . S
C194 C196 1.378 . S
C194 C198 1.350 . S
C195 C198 1.463 . S
C195 C200 1.350 . S
C195 N203 1.427 . S
C196 H187 0.930 . S
C196 C194 1.378 . S
C196 C197 1.367 . S
C197 C196 1.367 . S
C197 C199 1.433 . S
C198 C194 1.350 . S
C198 C195 1.463 . S
C198 N202 1.427 . S
C199 H189 0.929 . S
C199 C197 1.433 . S
C199 N202 1.384 . S
C200 H191 0.929 . S
C200 C192 1.378 . S
C200 C195 1.350 . S
C201 H188 0.929 . S
C201 C193 1.433 . S
C201 N203 1.384 . S
N202 C198 1.427 . S
N202 C199 1.384 . S
N203 C195 1.427 . S
N203 C201 1.384 . S
H204 C210 0.930 . S
H205 C214 0.930 . S
H206 C219 0.929 . S
H207 C217 0.929 . S
H208 C212 0.929 . S
H209 C218 0.929 . S
C210 H204 0.930 . S
C210 C211 1.367 . S
C210 C218 1.378 . S
C211 C210 1.367 . S
C211 C219 1.433 . S
C212 H208 0.929 . S
C212 C214 1.378 . S
C212 C216 1.350 . S
C213 C216 1.463 . S
C213 C218 1.350 . S
C213 N221 1.427 . S
C214 H205 0.930 . S
C214 C212 1.378 . S
C214 C215 1.367 . S
C215 C214 1.367 . S
C215 C217 1.433 . S
C216 C212 1.350 . S
C216 C213 1.463 . S
C216 N220 1.427 . S
C217 H207 0.929 . S
C217 C215 1.433 . S
C217 N220 1.384 . S
C218 H209 0.929 . S
C218 C210 1.378 . S
C218 C213 1.350 . S
C219 H206 0.929 . S
C219 C211 1.433 . S
C219 N221 1.384 . S
N220 C216 1.427 . S
N220 C217 1.384 . S
N221 C213 1.427 . S
N221 C219 1.384 . S
H222 C228 0.930 . S
H223 C232 0.930 . S
H224 C237 0.929 . S
H225 C235 0.929 . S
H226 C230 0.929 . S
H227 C236 0.929 . S
C228 H222 0.930 . S
C228 C229 1.367 . S
C228 C236 1.378 . S
C229 C228 1.367 . S
C229 C237 1.433 . S
C230 H226 0.929 . S
C230 C232 1.378 . S
C230 C234 1.350 . S
C231 C234 1.463 . S
C231 C236 1.350 . S
C231 N239 1.427 . S
C232 H223 0.930 . S
C232 C230 1.378 . S
C232 C233 1.367 . S
C233 C232 1.367 . S
C233 C235 1.433 . S
C234 C230 1.350 . S
C234 C231 1.463 . S
C234 N238 1.427 . S
C235 H225 0.929 . S
C235 C233 1.433 . S
C235 N238 1.384 . S
C236 H227 0.929 . S
C236 C228 1.378 . S
C236 C231 1.350 . S
C237 H224 0.929 . S
C237 C229 1.433 . S
C237 N239 1.384 . S
N238 C234 1.427 . S
N238 C235 1.384 . S
N239 C231 1.427 . S
N239 C237 1.384 . S
H240 C246 0.930 . S
H241 C250 0.930 . S
H242 C255 0.929 . S
H243 C253 0.929 . S
H244 C248 0.929 . S
H245 C254 0.929 . S
C246 H240 0.930 . S
C246 C247 1.367 . S
C246 C254 1.378 . S
C247 C246 1.367 . S
C247 C255 1.433 . S
C248 H244 0.929 . S
C248 C250 1.378 . S
C248 C252 1.350 . S
C249 C252 1.463 1_565 S
C249 C254 1.350 . S
C249 N257 1.427 . S
C250 H241 0.930 . S
C250 C248 1.378 . S
C250 C251 1.367 . S
C251 C250 1.367 . S
C251 C253 1.433 . S
C252 C248 1.350 . S
C252 C249 1.463 1_545 S
C252 N256 1.427 . S
C253 H243 0.929 . S
C253 C251 1.433 . S
C253 N256 1.384 . S
C254 H245 0.929 . S
C254 C246 1.378 . S
C254 C249 1.350 . S
C255 H242 0.929 . S
C255 C247 1.433 . S
C255 N257 1.384 . S
N256 C252 1.427 . S
N256 C253 1.384 . S
N257 C249 1.427 . S
N257 C255 1.384 . S
H258 C264 0.930 . S
H259 C268 0.930 . S
H260 C273 0.929 . S
H261 C271 0.929 . S
H262 C266 0.929 . S
H263 C272 0.929 . S
C264 H258 0.930 . S
C264 C265 1.367 . S
C264 C272 1.378 . S
C265 C264 1.367 . S
C265 C273 1.433 . S
C266 H262 0.929 . S
C266 C268 1.378 . S
C266 C270 1.350 . S
C267 C270 1.463 . S
C267 C272 1.350 . S
C267 N275 1.427 . S
C268 H259 0.930 . S
C268 C266 1.378 . S
C268 C269 1.367 . S
C269 C268 1.367 . S
C269 C271 1.433 . S
C270 C266 1.350 . S
C270 C267 1.463 . S
C270 N274 1.427 . S
C271 H261 0.929 . S
C271 C269 1.433 . S
C271 N274 1.384 . S
C272 H263 0.929 . S
C272 C264 1.378 . S
C272 C267 1.350 . S
C273 H260 0.929 . S
C273 C265 1.433 . S
C273 N275 1.384 . S
N274 C270 1.427 . S
N274 C271 1.384 . S
N275 C267 1.427 . S
N275 C273 1.384 . S
H276 C282 0.930 . S
H277 C286 0.930 . S
H278 C291 0.929 . S
H279 C289 0.929 . S
H280 C284 0.929 . S
H281 C290 0.929 . S
C282 H276 0.930 . S
C282 C283 1.367 . S
C282 C290 1.378 . S
C283 C282 1.367 . S
C283 C291 1.433 . S
C284 H280 0.929 . S
C284 C286 1.378 . S
C284 C288 1.350 . S
C285 C288 1.463 1_565 S
C285 C290 1.350 . S
C285 N293 1.427 . S
C286 H277 0.930 . S
C286 C284 1.378 . S
C286 C287 1.367 . S
C287 C286 1.367 . S
C287 C289 1.433 . S
C288 C284 1.350 . S
C288 C285 1.463 1_545 S
C288 N292 1.427 . S
C289 H279 0.929 . S
C289 C287 1.433 . S
C289 N292 1.384 . S
C290 H281 0.929 . S
C290 C282 1.378 . S
C290 C285 1.350 . S
C291 H278 0.929 . S
C291 C283 1.433 . S
C291 N293 1.384 . S
N292 C288 1.427 . S
N292 C289 1.384 . S
N293 C285 1.427 . S
N293 C291 1.384 . S
H294 C300 0.930 . S
H295 C304 0.930 . S
H296 C309 0.929 . S
H297 C307 0.929 . S
H298 C302 0.929 . S
H299 C308 0.929 . S
C300 H294 0.930 . S
C300 C301 1.367 . S
C300 C308 1.378 . S
C301 C300 1.367 . S
C301 C309 1.433 . S
C302 H298 0.929 . S
C302 C304 1.378 . S
C302 C306 1.350 . S
C303 C306 1.463 . S
C303 C308 1.350 . S
C303 N311 1.427 . S
C304 H295 0.930 . S
C304 C302 1.378 . S
C304 C305 1.367 . S
C305 C304 1.367 . S
C305 C307 1.433 . S
C306 C302 1.350 . S
C306 C303 1.463 . S
C306 N310 1.427 . S
C307 H297 0.929 . S
C307 C305 1.433 . S
C307 N310 1.384 . S
C308 H299 0.929 . S
C308 C300 1.378 . S
C308 C303 1.350 . S
C309 H296 0.929 . S
C309 C301 1.433 . S
C309 N311 1.384 . S
N310 C306 1.427 . S
N310 C307 1.384 . S
N311 C303 1.427 . S
N311 C309 1.384 . S
H312 C318 0.930 . S
H313 C322 0.930 . S
H314 C327 0.929 . S
H315 C325 0.929 . S
H316 C320 0.929 . S
H317 C326 0.929 . S
C318 H312 0.930 . S
C318 C319 1.367 . S
C318 C326 1.378 . S
C319 C318 1.367 . S
C319 C327 1.433 1_554 S
C320 H316 0.929 . S
C320 C322 1.378 . S
C320 C324 1.350 . S
C321 C324 1.463 1_554 S
C321 C326 1.350 . S
C321 N329 1.427 1_554 S
C322 H313 0.930 . S
C322 C320 1.378 . S
C322 C323 1.367 . S
C323 C322 1.367 . S
C323 C325 1.433 1_556 S
C324 C320 1.350 . S
C324 C321 1.463 1_556 S
C324 N328 1.427 1_556 S
C325 H315 0.929 . S
C325 C323 1.433 1_554 S
C325 N328 1.384 . S
C326 H317 0.929 . S
C326 C318 1.378 . S
C326 C321 1.350 . S
C327 H314 0.929 . S
C327 C319 1.433 1_556 S
C327 N329 1.384 . S
N328 C324 1.427 1_554 S
N328 C325 1.384 . S
N329 C321 1.427 1_556 S
N329 C327 1.384 . S
H330 C336 0.930 . S
H331 C340 0.930 . S
H332 C345 0.929 . S
H333 C343 0.929 . S
H334 C338 0.929 . S
H335 C344 0.929 . S
C336 H330 0.930 . S
C336 C337 1.367 1_556 S
C336 C344 1.378 . S
C337 C336 1.367 1_554 S
C337 C345 1.433 . S
C338 H334 0.929 . S
C338 C340 1.378 . S
C338 C342 1.350 1_554 S
C339 C342 1.463 1_564 S
C339 C344 1.350 1_554 S
C339 N347 1.427 . S
C340 H331 0.930 . S
C340 C338 1.378 . S
C340 C341 1.367 1_554 S
C341 C340 1.367 1_556 S
C341 C343 1.433 . S
C342 C338 1.350 1_556 S
C342 C339 1.463 1_546 S
C342 N346 1.427 . S
C343 H333 0.929 . S
C343 C341 1.433 . S
C343 N346 1.384 . S
C344 H335 0.929 . S
C344 C336 1.378 . S
C344 C339 1.350 1_556 S
C345 H332 0.929 . S
C345 C337 1.433 . S
C345 N347 1.384 . S
N346 C342 1.427 . S
N346 C343 1.384 . S
N347 C339 1.427 . S
N347 C345 1.384 . S
H348 C354 0.930 . S
H349 C358 0.930 . S
H350 C363 0.929 . S
H351 C361 0.929 . S
H352 C356 0.929 . S
H353 C362 0.929 . S
C354 H348 0.930 . S
C354 C355 1.367 1_554 S
C354 C362 1.378 . S
C355 C354 1.367 1_556 S
C355 C363 1.433 . S
C356 H352 0.929 . S
C356 C358 1.378 . S
C356 C360 1.350 1_556 S
C357 C360 1.463 1_556 S
C357 C362 1.350 1_556 S
C357 N365 1.427 . S
C358 H349 0.930 . S
C358 C356 1.378 . S
C358 C359 1.367 1_556 S
C359 C358 1.367 1_554 S
C359 C361 1.433 . S
C360 C356 1.350 1_554 S
C360 C357 1.463 1_554 S
C360 N364 1.427 . S
C361 H351 0.929 . S
C361 C359 1.433 . S
C361 N364 1.384 . S
C362 H353 0.929 . S
C362 C354 1.378 . S
C362 C357 1.350 1_554 S
C363 H350 0.929 . S
C363 C355 1.433 . S
C363 N365 1.384 . S
N364 C360 1.427 . S
N364 C361 1.384 . S
N365 C357 1.427 . S
N365 C363 1.384 . S
H366 C372 0.930 . S
H367 C376 0.930 . S
H368 C381 0.929 . S
H369 C379 0.929 . S
H370 C374 0.929 . S
H371 C380 0.929 . S
C372 H366 0.930 . S
C372 C373 1.367 . S
C372 C380 1.378 . S
C373 C372 1.367 . S
C373 C381 1.433 1_556 S
C374 H370 0.929 . S
C374 C376 1.378 . S
C374 C378 1.350 . S
C375 C378 1.463 1_546 S
C375 C380 1.350 . S
C375 N383 1.427 1_556 S
C376 H367 0.930 . S
C376 C374 1.378 . S
C376 C377 1.367 . S
C377 C376 1.367 . S
C377 C379 1.433 1_554 S
C378 C374 1.350 . S
C378 C375 1.463 1_564 S
C378 N382 1.427 1_554 S
C379 H369 0.929 . S
C379 C377 1.433 1_556 S
C379 N382 1.384 . S
C380 H371 0.929 . S
C380 C372 1.378 . S
C380 C375 1.350 . S
C381 H368 0.929 . S
C381 C373 1.433 1_554 S
C381 N383 1.384 . S
N382 C378 1.427 1_556 S
N382 C379 1.384 . S
N383 C375 1.427 1_554 S
N383 C381 1.384 . S
H384 C390 0.930 . S
H385 C394 0.930 . S
H386 C399 0.929 . S
H387 C397 0.929 . S
H388 C392 0.929 . S
H389 C398 0.929 . S
C390 H384 0.930 . S
C390 C391 1.367 . S
C390 C398 1.378 . S
C391 C390 1.367 . S
C391 C399 1.433 . S
C392 H388 0.929 . S
C392 C394 1.378 1_554 S
C392 C396 1.350 . S
C393 C396 1.463 . S
C393 C398 1.350 . S
C393 N401 1.427 . S
C394 H385 0.930 . S
C394 C392 1.378 1_556 S
C394 C395 1.367 . S
C395 C394 1.367 . S
C395 C397 1.433 . S
C396 C392 1.350 . S
C396 C393 1.463 . S
C396 N400 1.427 . S
C397 H387 0.929 . S
C397 C395 1.433 . S
C397 N400 1.384 1_556 S
C398 H389 0.929 . S
C398 C390 1.378 . S
C398 C393 1.350 . S
C399 H386 0.929 . S
C399 C391 1.433 . S
C399 N401 1.384 . S
N400 C396 1.427 . S
N400 C397 1.384 1_554 S
N401 C393 1.427 . S
N401 C399 1.384 . S
H402 C408 0.930 . S
H403 C412 0.930 . S
H404 C417 0.929 . S
H405 C415 0.929 . S
H406 C410 0.929 . S
H407 C416 0.929 . S
C408 H402 0.930 . S
C408 C409 1.367 . S
C408 C416 1.378 . S
C409 C408 1.367 . S
C409 C417 1.433 . S
C410 H406 0.929 . S
C410 C412 1.378 1_554 S
C410 C414 1.350 . S
C411 C414 1.463 . S
C411 C416 1.350 . S
C411 N419 1.427 . S
C412 H403 0.930 . S
C412 C410 1.378 1_556 S
C412 C413 1.367 . S
C413 C412 1.367 . S
C413 C415 1.433 . S
C414 C410 1.350 . S
C414 C411 1.463 . S
C414 N418 1.427 . S
C415 H405 0.929 . S
C415 C413 1.433 . S
C415 N418 1.384 1_556 S
C416 H407 0.929 . S
C416 C408 1.378 . S
C416 C411 1.350 . S
C417 H404 0.929 . S
C417 C409 1.433 . S
C417 N419 1.384 . S
N418 C414 1.427 . S
N418 C415 1.384 1_554 S
N419 C411 1.427 . S
N419 C417 1.384 . S
H420 C426 0.930 . S
H421 C430 0.930 . S
H422 C435 0.929 . S
H423 C433 0.929 . S
H424 C428 0.929 . S
H425 C434 0.929 . S
C426 H420 0.930 . S
C426 C427 1.367 . S
C426 C434 1.378 1_554 S
C427 C426 1.367 . S
C427 C435 1.433 . S
C428 H424 0.929 . S
C428 C430 1.378 . S
C428 C432 1.350 . S
C429 C432 1.463 . S
C429 C434 1.350 . S
C429 N437 1.427 . S
C430 H421 0.930 . S
C430 C428 1.378 . S
C430 C431 1.367 . S
C431 C430 1.367 . S
C431 C433 1.433 . S
C432 C428 1.350 . S
C432 C429 1.463 . S
C432 N436 1.427 . S
C433 H423 0.929 . S
C433 C431 1.433 . S
C433 N436 1.384 . S
C434 H425 0.929 . S
C434 C426 1.378 1_556 S
C434 C429 1.350 . S
C435 H422 0.929 . S
C435 C427 1.433 . S
C435 N437 1.384 1_554 S
N436 C432 1.427 . S
N436 C433 1.384 . S
N437 C429 1.427 . S
N437 C435 1.384 1_556 S
H438 C444 0.930 . S
H439 C448 0.930 . S
H440 C453 0.929 . S
H441 C451 0.929 . S
H442 C446 0.929 . S
H443 C452 0.929 . S
C444 H438 0.930 . S
C444 C445 1.367 . S
C444 C452 1.378 . S
C445 C444 1.367 . S
C445 C453 1.433 . S
C446 H442 0.929 . S
C446 C448 1.378 1_556 S
C446 C450 1.350 . S
C447 C450 1.463 . S
C447 C452 1.350 . S
C447 N455 1.427 . S
C448 H439 0.930 . S
C448 C446 1.378 1_554 S
C448 C449 1.367 . S
C449 C448 1.367 . S
C449 C451 1.433 . S
C450 C446 1.350 . S
C450 C447 1.463 . S
C450 N454 1.427 . S
C451 H441 0.929 . S
C451 C449 1.433 . S
C451 N454 1.384 1_554 S
C452 H443 0.929 . S
C452 C444 1.378 . S
C452 C447 1.350 . S
C453 H440 0.929 . S
C453 C445 1.433 . S
C453 N455 1.384 . S
N454 C450 1.427 . S
N454 C451 1.384 1_556 S
N455 C447 1.427 . S
N455 C453 1.384 . S
H456 C462 0.930 . S
H457 C466 0.930 . S
H458 C471 0.929 . S
H459 C469 0.929 . S
H460 C464 0.929 . S
H461 C470 0.929 . S
C462 H456 0.930 . S
C462 C463 1.367 . S
C462 C470 1.378 . S
C463 C462 1.367 . S
C463 C471 1.433 . S
C464 H460 0.929 . S
C464 C466 1.378 . S
C464 C468 1.350 . S
C465 C468 1.463 . S
C465 C470 1.350 . S
C465 N473 1.427 . S
C466 H457 0.930 . S
C466 C464 1.378 . S
C466 C467 1.367 . S
C467 C466 1.367 . S
C467 C469 1.433 . S
C468 C464 1.350 . S
C468 C465 1.463 . S
C468 N472 1.427 . S
C469 H459 0.929 . S
C469 C467 1.433 . S
C469 N472 1.384 . S
C470 H461 0.929 . S
C470 C462 1.378 . S
C470 C465 1.350 . S
C471 H458 0.929 . S
C471 C463 1.433 . S
C471 N473 1.384 . S
N472 C468 1.427 . S
N472 C469 1.384 . S
N473 C465 1.427 . S
N473 C471 1.384 . S
H474 C480 0.930 . S
H475 C484 0.930 . S
H476 C489 0.929 . S
H477 C487 0.929 . S
H478 C482 0.929 . S
H479 C488 0.929 . S
C480 H474 0.930 . S
C480 C481 1.367 . S
C480 C488 1.378 . S
C481 C480 1.367 . S
C481 C489 1.433 . S
C482 H478 0.929 . S
C482 C484 1.378 . S
C482 C486 1.350 . S
C483 C486 1.463 . S
C483 C488 1.350 . S
C483 N491 1.427 . S
C484 H475 0.930 . S
C484 C482 1.378 . S
C484 C485 1.367 . S
C485 C484 1.367 . S
C485 C487 1.433 . S
C486 C482 1.350 . S
C486 C483 1.463 . S
C486 N490 1.427 . S
C487 H477 0.929 . S
C487 C485 1.433 . S
C487 N490 1.384 . S
C488 H479 0.929 . S
C488 C480 1.378 . S
C488 C483 1.350 . S
C489 H476 0.929 . S
C489 C481 1.433 . S
C489 N491 1.384 . S
N490 C486 1.427 . S
N490 C487 1.384 . S
N491 C483 1.427 . S
N491 C489 1.384 . S
H492 C498 0.930 . S
H493 C502 0.930 . S
H494 C507 0.929 . S
H495 C505 0.929 . S
H496 C500 0.929 . S
H497 C506 0.929 . S
C498 H492 0.930 . S
C498 C499 1.367 . S
C498 C506 1.378 . S
C499 C498 1.367 . S
C499 C507 1.433 . S
C500 H496 0.929 . S
C500 C502 1.378 . S
C500 C504 1.350 . S
C501 C504 1.463 . S
C501 C506 1.350 . S
C501 N509 1.427 . S
C502 H493 0.930 . S
C502 C500 1.378 . S
C502 C503 1.367 . S
C503 C502 1.367 . S
C503 C505 1.433 . S
C504 C500 1.350 . S
C504 C501 1.463 . S
C504 N508 1.427 . S
C505 H495 0.929 . S
C505 C503 1.433 . S
C505 N508 1.384 . S
C506 H497 0.929 . S
C506 C498 1.378 . S
C506 C501 1.350 . S
C507 H494 0.929 . S
C507 C499 1.433 . S
C507 N509 1.384 . S
N508 C504 1.427 . S
N508 C505 1.384 . S
N509 C501 1.427 . S
N509 C507 1.384 . S
H510 C516 0.930 . S
H511 C520 0.930 . S
H512 C525 0.929 . S
H513 C523 0.929 . S
H514 C518 0.929 . S
H515 C524 0.929 . S
C516 H510 0.930 . S
C516 C517 1.367 . S
C516 C524 1.378 . S
C517 C516 1.367 . S
C517 C525 1.433 . S
C518 H514 0.929 . S
C518 C520 1.378 . S
C518 C522 1.350 . S
C519 C522 1.463 . S
C519 C524 1.350 . S
C519 N527 1.427 . S
C520 H511 0.930 . S
C520 C518 1.378 . S
C520 C521 1.367 . S
C521 C520 1.367 . S
C521 C523 1.433 . S
C522 C518 1.350 . S
C522 C519 1.463 . S
C522 N526 1.427 . S
C523 H513 0.929 . S
C523 C521 1.433 . S
C523 N526 1.384 . S
C524 H515 0.929 . S
C524 C516 1.378 . S
C524 C519 1.350 . S
C525 H512 0.929 . S
C525 C517 1.433 . S
C525 N527 1.384 . S
N526 C522 1.427 . S
N526 C523 1.384 . S
N527 C519 1.427 . S
N527 C525 1.384 . S
H528 C534 0.930 . S
H529 C538 0.930 . S
H530 C543 0.929 . S
H531 C541 0.929 . S
H532 C536 0.929 . S
H533 C542 0.929 . S
C534 H528 0.930 . S
C534 C535 1.367 . S
C534 C542 1.378 . S
C535 C534 1.367 . S
C535 C543 1.433 . S
C536 H532 0.929 . S
C536 C538 1.378 . S
C536 C540 1.350 . S
C537 C540 1.463 1_455 S
C537 C542 1.350 . S
C537 N545 1.427 . S
C538 H529 0.930 . S
C538 C536 1.378 . S
C538 C539 1.367 . S
C539 C538 1.367 . S
C539 C541 1.433 . S
C540 C536 1.350 . S
C540 C537 1.463 1_655 S
C540 N544 1.427 . S
C541 H531 0.929 . S
C541 C539 1.433 . S
C541 N544 1.384 . S
C542 H533 0.929 . S
C542 C534 1.378 . S
C542 C537 1.350 . S
C543 H530 0.929 . S
C543 C535 1.433 . S
C543 N545 1.384 . S
N544 C540 1.427 . S
N544 C541 1.384 . S
N545 C537 1.427 . S
N545 C543 1.384 . S
H546 C552 0.930 . S
H547 C556 0.930 . S
H548 C561 0.929 . S
H549 C559 0.929 . S
H550 C554 0.929 . S
H551 C560 0.929 . S
C552 H546 0.930 . S
C552 C553 1.367 . S
C552 C560 1.378 . S
C553 C552 1.367 . S
C553 C561 1.433 . S
C554 H550 0.929 . S
C554 C556 1.378 . S
C554 C558 1.350 . S
C555 C558 1.463 1_655 S
C555 C560 1.350 . S
C555 N563 1.427 . S
C556 H547 0.930 . S
C556 C554 1.378 . S
C556 C557 1.367 . S
C557 C556 1.367 . S
C557 C559 1.433 . S
C558 C554 1.350 . S
C558 C555 1.463 1_455 S
C558 N562 1.427 . S
C559 H549 0.929 . S
C559 C557 1.433 . S
C559 N562 1.384 . S
C560 H551 0.929 . S
C560 C552 1.378 . S
C560 C555 1.350 . S
C561 H548 0.929 . S
C561 C553 1.433 . S
C561 N563 1.384 . S
N562 C558 1.427 . S
N562 C559 1.384 . S
N563 C555 1.427 . S
N563 C561 1.384 . S
H564 C570 0.930 . S
H565 C574 0.930 . S
H566 C579 0.929 . S
H567 C577 0.929 . S
H568 C572 0.929 . S
H569 C578 0.929 . S
C570 H564 0.930 . S
C570 C571 1.367 . S
C570 C578 1.378 . S
C571 C570 1.367 . S
C571 C579 1.433 . S
C572 H568 0.929 . S
C572 C574 1.378 . S
C572 C576 1.350 . S
C573 C576 1.463 . S
C573 C578 1.350 . S
C573 N581 1.427 . S
C574 H565 0.930 . S
C574 C572 1.378 . S
C574 C575 1.367 . S
C575 C574 1.367 . S
C575 C577 1.433 . S
C576 C572 1.350 . S
C576 C573 1.463 . S
C576 N580 1.427 . S
C577 H567 0.929 . S
C577 C575 1.433 . S
C577 N580 1.384 . S
C578 H569 0.929 . S
C578 C570 1.378 . S
C578 C573 1.350 . S
C579 H566 0.929 . S
C579 C571 1.433 . S
C579 N581 1.384 . S
N580 C576 1.427 . S
N580 C577 1.384 . S
N581 C573 1.427 . S
N581 C579 1.384 . S
H582 C588 0.930 1_554 S
H583 C592 0.930 . S
H584 C597 0.929 . S
H585 C595 0.929 1_554 S
H586 C590 0.929 . S
H587 C596 0.929 1_554 S
C588 H582 0.930 1_556 S
C588 C589 1.367 . S
C588 C596 1.378 . S
C589 C588 1.367 . S
C589 C597 1.433 . S
C590 H586 0.929 . S
C590 C592 1.378 . S
C590 C594 1.350 . S
C591 C594 1.463 . S
C591 C596 1.350 . S
C591 N599 1.427 . S
C592 H583 0.930 . S
C592 C590 1.378 . S
C592 C593 1.367 . S
C593 C592 1.367 . S
C593 C595 1.433 . S
C594 C590 1.350 . S
C594 C591 1.463 . S
C594 N598 1.427 . S
C595 H585 0.929 1_556 S
C595 C593 1.433 . S
C595 N598 1.384 . S
C596 H587 0.929 1_556 S
C596 C588 1.378 . S
C596 C591 1.350 . S
C597 H584 0.929 . S
C597 C589 1.433 . S
C597 N599 1.384 . S
N598 C594 1.427 . S
N598 C595 1.384 . S
N599 C591 1.427 . S
N599 C597 1.384 . S
C175 C19 1.400 . S
C179 C167 1.392 . S
C193 C146 1.398 . S
C197 C40 1.398 . S
C211 C124 1.399 . S
C215 C62 1.391 . S
C229 C104 1.400 . S
C233 C83 1.396 . S
C247 C46 1.583 . S
C251 C7 1.568 . S
C265 C28 1.584 . S
C269 C67 1.568 . S
C283 C70 1.190 . S
C287 C25 1.202 . S
C301 C49 1.188 . S
C305 C4 1.180 . S
C319 C88 1.582 . S
C323 C130 1.572 . S
C337 C112 1.562 . S
C341 C151 1.573 . S
C355 C154 1.196 . S
C359 C109 1.204 . S
C373 C133 1.182 . S
C377 C91 1.183 . S
C391 C16 1.241 . S
C395 C20 1.262 . S
C409 C37 1.240 . S
C413 C41 1.260 . S
C427 C61 1.278 . S
C431 C45 1.265 . S
C445 C66 1.241 . S
C449 C82 1.262 . S
C463 C103 1.280 . S
C467 C87 1.263 . S
C481 C121 1.260 . S
C485 C125 1.267 . S
C499 C129 1.242 . S
C503 C145 1.257 . S
C517 C150 1.247 . S
C521 C166 1.271 . S
C535 C3 1.331 . S
C539 C24 1.320 . S
C553 C79 1.323 . S
C557 C58 1.333 . S
C571 C100 1.311 . S
C575 C108 1.308 . S
C589 C163 1.332 . S
C593 C142 1.322 . S
