# Generated by pormake.
# Topology snk, (6)-cn, num edge types: 1
# Building blocks:
#     Node 0, Type 0, BuildingBlock: KUMBOL_clean_sbu_0, # of connection points: 6
#     Node 1, Type 0, BuildingBlock: KUMBOL_clean_sbu_0, # of connection points: 6
#     Node 2, Type 0, BuildingBlock: KUMBOL_clean_sbu_0, # of connection points: 6
#     Node 3, Type 0, BuildingBlock: KUMBOL_clean_sbu_0, # of connection points: 6
#     Node 4, Type 0, BuildingBlock: KUMBOL_clean_sbu_0, # of connection points: 6
#     Node 5, Type 0, BuildingBlock: KUMBOL_clean_sbu_0, # of connection points: 6
#     Node 6, Type 0, BuildingBlock: KUMBOL_clean_sbu_0, # of connection points: 6
#     Node 7, Type 0, BuildingBlock: KUMBOL_clean_sbu_0, # of connection points: 6
#     Edge 8, Type (0, 0), BuildingBlock: KIFKEQ_clean_linker_1, # of connection points: 2
#     Edge 9, Type (0, 0), BuildingBlock: KIFKEQ_clean_linker_1, # of connection points: 2
#     Edge 10, Type (0, 0), BuildingBlock: KIFKEQ_clean_linker_1, # of connection points: 2
#     Edge 11, Type (0, 0), BuildingBlock: KIFKEQ_clean_linker_1, # of connection points: 2
#     Edge 12, Type (0, 0), BuildingBlock: KIFKEQ_clean_linker_1, # of connection points: 2
#     Edge 13, Type (0, 0), BuildingBlock: KIFKEQ_clean_linker_1, # of connection points: 2
#     Edge 14, Type (0, 0), BuildingBlock: KIFKEQ_clean_linker_1, # of connection points: 2
#     Edge 15, Type (0, 0), BuildingBlock: KIFKEQ_clean_linker_1, # of connection points: 2
#     Edge 16, Type (0, 0), BuildingBlock: KIFKEQ_clean_linker_1, # of connection points: 2
#     Edge 17, Type (0, 0), BuildingBlock: KIFKEQ_clean_linker_1, # of connection points: 2
#     Edge 18, Type (0, 0), BuildingBlock: KIFKEQ_clean_linker_1, # of connection points: 2
#     Edge 19, Type (0, 0), BuildingBlock: KIFKEQ_clean_linker_1, # of connection points: 2
#     Edge 20, Type (0, 0), BuildingBlock: KIFKEQ_clean_linker_1, # of connection points: 2
#     Edge 21, Type (0, 0), BuildingBlock: KIFKEQ_clean_linker_1, # of connection points: 2
#     Edge 22, Type (0, 0), BuildingBlock: KIFKEQ_clean_linker_1, # of connection points: 2
#     Edge 23, Type (0, 0), BuildingBlock: KIFKEQ_clean_linker_1, # of connection points: 2
#     Edge 24, Type (0, 0), BuildingBlock: KIFKEQ_clean_linker_1, # of connection points: 2
#     Edge 25, Type (0, 0), BuildingBlock: KIFKEQ_clean_linker_1, # of connection points: 2
#     Edge 26, Type (0, 0), BuildingBlock: KIFKEQ_clean_linker_1, # of connection points: 2
#     Edge 27, Type (0, 0), BuildingBlock: KIFKEQ_clean_linker_1, # of connection points: 2
#     Edge 28, Type (0, 0), BuildingBlock: KIFKEQ_clean_linker_1, # of connection points: 2
#     Edge 29, Type (0, 0), BuildingBlock: KIFKEQ_clean_linker_1, # of connection points: 2
#     Edge 30, Type (0, 0), BuildingBlock: KIFKEQ_clean_linker_1, # of connection points: 2
#     Edge 31, Type (0, 0), BuildingBlock: KIFKEQ_clean_linker_1, # of connection points: 2
# Relax obj value: 0.006
# Max RMSD: 0.053
# Mean RMSD: 0.051
data_MOF--net-snk--node1-KUMBOL_clean_sbu_0--edge1-KIFKEQ_clean_linker_1
_symmetry_space_group_name_H-M    P1
_symmetry_Int_Tables_number       1
_symmetry_cell_setting            triclinic
loop_
_symmetry_equiv_pos_as_xyz
'x, y, z'
_cell_length_a     38.502917
_cell_length_b     38.484897
_cell_length_c     24.677568
_cell_angle_alpha  87.246325
_cell_angle_beta   87.309335
_cell_angle_gamma 89.718637
loop_
_atom_site_label
_atom_site_type_symbol
_atom_site_fract_x
_atom_site_fract_y
_atom_site_fract_z
_atom_type_partial_charge
Gd0 Gd 0.00607 0.0352 0.58097 0.0
Gd1 Gd 1.00433 0.97671 0.46837 0.0
C2 C 0.94545 0.87365 0.48365 0.0
C3 C 0.99248 0.83134 0.48035 0.0
C4 C 1.0051 0.89328 0.47279 0.0
C5 C 0.97006 0.90078 0.47847 0.0
C6 C 0.01671 0.85849 0.47226 0.0
C7 C 0.95689 0.83892 0.48609 0.0
C8 C 0.91009 0.88223 0.48407 0.0
C9 C 0.90014 0.91702 0.47698 0.0
N10 N 0.95995 0.9346 0.47497 0.0
C11 C 0.92557 0.94297 0.47166 0.0
H12 H 0.91748 0.96975 0.46651 0.0
C13 C 0.06202 0.91405 0.45132 0.0
N14 N 0.02767 0.92014 0.46427 0.0
C15 C 0.07482 0.87999 0.45059 0.0
C16 C 0.05215 0.85207 0.46183 0.0
H17 H 0.07975 0.93547 0.4429 0.0
H18 H 0.9384 0.81773 0.49066 0.0
H19 H 0.09309 0.04042 0.58478 0.0
H20 H 0.89035 0.86219 0.48811 0.0
H21 H 0.87289 0.9239 0.47589 0.0
H22 H 1.00091 0.80443 0.48064 0.0
H23 H 0.93157 0.07799 0.60524 0.0
H24 H 0.12252 0.14729 0.56252 0.0
H25 H 0.13859 0.08527 0.57592 0.0
H26 H 0.01319 0.20736 0.56771 0.0
H27 H 0.10217 0.8753 0.44149 0.0
H28 H 0.06212 0.82571 0.46105 0.0
H29 H 0.07544 0.19273 0.55864 0.0
H30 H 0.91034 0.13866 0.60605 0.0
N31 N 0.05139 0.07636 0.57475 0.0
C32 C 0.10236 0.12767 0.5663 0.0
C33 C 0.11151 0.09271 0.57407 0.0
C34 C 0.0672 0.13698 0.56588 0.0
C35 C 0.04202 0.11038 0.5708 0.0
C36 C 0.08553 0.06731 0.57907 0.0
N37 N 0.98403 0.09226 0.58474 0.0
C38 C 0.00716 0.11862 0.57622 0.0
C39 C 0.93763 0.13339 0.59741 0.0
C40 C 0.96091 0.16082 0.58628 0.0
C41 C 0.94975 0.09908 0.59709 0.0
C42 C 0.99625 0.15365 0.57634 0.0
H43 H 0.95148 0.18738 0.58672 0.0
O44 O 0.98059 0.03615 0.66153 0.0
O45 O 0.98495 0.98543 0.5531 0.0
O46 O 0.96026 0.01671 0.46606 0.0
O47 O 0.97948 0.06375 0.51223 0.0
O48 O 0.95085 0.01555 0.59695 0.0
O49 O 0.03537 0.02362 0.65262 0.0
O50 O 0.03024 0.98035 0.38822 0.0
O51 O 0.02515 0.02672 0.49611 0.0
O52 O 0.04987 0.99488 0.58335 0.0
O53 O 0.03082 0.94787 0.53687 0.0
O54 O 0.05952 0.99646 0.45289 0.0
O55 O 0.97413 0.98351 0.39628 0.0
C56 C 0.95413 0.98656 0.57332 0.0
C57 C 0.02105 0.18027 0.5683 0.0
C58 C 0.05649 0.17194 0.56306 0.0
C59 C 0.00914 0.02936 0.68638 0.0
C60 C 0.01633 0.05082 0.73229 0.0
C61 C 0.02872 0.08491 0.72334 0.0
C62 C 0.01191 0.03662 0.78573 0.0
C63 C 0.02052 0.05611 0.83006 0.0
C64 C 0.03703 0.10445 0.76713 0.0
C65 C 0.03318 0.09014 0.82016 0.0
C66 C 0.95922 0.05018 0.47689 0.0
C67 C 0.05608 0.02555 0.47622 0.0
C68 C 1.00132 0.98241 0.36288 0.0
C69 C 0.9989 0.96022 0.31629 0.0
C70 C 0.99686 0.92399 0.32401 0.0
C71 C 0.99963 0.97547 0.26332 0.0
C72 C 0.99898 0.95464 0.21777 0.0
C73 C 0.99608 0.90315 0.27941 0.0
C74 C 0.99736 0.91822 0.22672 0.0
C75 C 0.05091 0.9614 0.57247 0.0
H76 H 0.03227 0.09629 0.68263 0.0
H77 H 1.00259 0.01016 0.7927 0.0
H78 H 0.04667 0.13072 0.75992 0.0
H79 H 0.03981 0.10576 0.85353 0.0
H80 H 0.99614 0.91181 0.36437 0.0
H81 H 1.00057 1.00356 0.25786 0.0
H82 H 0.99486 0.87514 0.28566 0.0
H83 H 0.99768 0.90118 0.19306 0.0
Gd84 Gd 0.22477 0.76185 0.83984 0.0
Gd85 Gd 0.2838 0.75155 0.7179 0.0
C86 C 0.38088 0.68308 0.72189 0.0
C87 C 0.42722 0.72578 0.70878 0.0
C88 C 0.36672 0.74427 0.71004 0.0
C89 C 0.35611 0.71014 0.71888 0.0
C90 C 0.40237 0.75244 0.7036 0.0
C91 C 0.41648 0.69115 0.71799 0.0
C92 C 0.36912 0.64869 0.72741 0.0
C93 C 0.3335 0.64198 0.72794 0.0
N94 N 0.32152 0.70328 0.72203 0.0
C95 C 0.30995 0.66971 0.72442 0.0
H96 H 0.28251 0.66412 0.72514 0.0
C97 C 0.3511 0.80278 0.68958 0.0
N98 N 0.34204 0.76931 0.70488 0.0
C99 C 0.38613 0.81221 0.68294 0.0
C100 C 0.41191 0.78701 0.69065 0.0
H101 H 0.33125 0.82237 0.68387 0.0
H102 H 0.4359 0.67075 0.72074 0.0
H103 H 0.22941 0.84961 0.83266 0.0
H104 H 0.3873 0.62717 0.73012 0.0
H105 H 0.32415 0.61546 0.73127 0.0
H106 H 0.45475 0.73155 0.70449 0.0
H107 H 0.17449 0.69453 0.87991 0.0
H108 H 0.12643 0.89071 0.82515 0.0
H109 H 0.18997 0.89974 0.82522 0.0
H110 H 0.05463 0.78944 0.85305 0.0
H111 H 0.39323 0.83889 0.67198 0.0
H112 H 0.43903 0.79436 0.68535 0.0
H113 H 0.07602 0.84925 0.83473 0.0
H114 H 0.11186 0.68051 0.89231 0.0
N115 N 0.18895 0.81184 0.83504 0.0
C116 C 0.14367 0.86844 0.82839 0.0
C117 C 0.1795 0.87364 0.82855 0.0
C118 C 0.13048 0.83461 0.83426 0.0
C119 C 0.15409 0.80655 0.83798 0.0
C120 C 0.20184 0.84495 0.83278 0.0
N121 N 0.16573 0.74727 0.85469 0.0
C122 C 0.14208 0.77309 0.84808 0.0
C123 C 0.11998 0.70664 0.87953 0.0
C124 C 0.0952 0.73256 0.86988 0.0
C125 C 0.15536 0.71464 0.87258 0.0
C126 C 0.10612 0.76647 0.85495 0.0
H127 H 0.06781 0.72638 0.87557 0.0
O128 O 0.22328 0.73822 0.92191 0.0
O129 O 0.27171 0.7362 0.80458 0.0
O130 O 0.24045 0.71176 0.72362 0.0
O131 O 0.19513 0.73252 0.78039 0.0
O132 O 0.24114 0.70598 0.85828 0.0
O133 O 0.23998 0.79157 0.90722 0.0
O134 O 0.28171 0.77635 0.63719 0.0
O135 O 0.23591 0.77625 0.75243 0.0
O136 O 0.26851 0.80146 0.8313 0.0
O137 O 0.31407 0.77675 0.78071 0.0
O138 O 0.26727 0.8074 0.70083 0.0
O139 O 0.27513 0.72055 0.64848 0.0
C140 C 0.26955 0.70654 0.8285 0.0
C141 C 0.08239 0.79403 0.84853 0.0
C142 C 0.09456 0.82807 0.83814 0.0
C143 C 0.23271 0.76668 0.94359 0.0
C144 C 0.21258 0.77678 0.99251 0.0
C145 C 0.18063 0.79413 0.98829 0.0
C146 C 0.22604 0.7701 0.04397 0.0
C147 C 0.20806 0.78133 0.09103 0.0
C148 C 0.16255 0.80507 0.03481 0.0
C149 C 0.17622 0.79894 0.08586 0.0
C150 C 0.20759 0.7123 0.74211 0.0
C151 C 0.2383 0.80613 0.72919 0.0
C152 C 0.27782 0.74711 0.61366 0.0
C153 C 0.29968 0.7424 0.56402 0.0
C154 C 0.33531 0.73548 0.56687 0.0
C155 C 0.28485 0.74584 0.51305 0.0
C156 C 0.30555 0.74298 0.46467 0.0
C157 C 0.35601 0.7325 0.51941 0.0
C158 C 0.34141 0.73641 0.46872 0.0
C159 C 0.30198 0.79837 0.81716 0.0
H160 H 0.16986 0.79952 0.9491 0.0
H161 H 0.25088 0.75693 0.04724 0.0
H162 H 0.13796 0.81854 0.03127 0.0
H163 H 0.16175 0.80769 0.1214 0.0
H164 H 0.34715 0.73261 0.60563 0.0
H165 H 0.25715 0.75059 0.51135 0.0
H166 H 0.38359 0.72747 0.5219 0.0
H167 H 0.35842 0.73484 0.43273 0.0
Gd168 Gd 0.49932 0.03371 0.96352 0.0
Gd169 Gd 0.51396 0.9774 0.0875 0.0
C170 C 0.58889 0.88506 0.08033 0.0
C171 C 0.54991 0.836 0.09882 0.0
C172 C 0.52734 0.89514 0.09743 0.0
C173 C 0.56031 0.90798 0.08499 0.0
C174 C 0.52187 0.85907 0.10612 0.0
C175 C 0.58337 0.84899 0.08585 0.0
C176 C 0.62225 0.89913 0.07189 0.0
C177 C 0.62655 0.93515 0.07045 0.0
N178 N 0.56469 0.94298 0.08059 0.0
C179 C 0.59739 0.95679 0.07571 0.0
H180 H 0.60124 0.98455 0.07422 0.0
C181 C 0.46921 0.90715 0.1257 0.0
N182 N 0.50101 0.91816 0.1049 0.0
C183 C 0.46237 0.87161 0.13448 0.0
C184 C 0.48868 0.8474 0.12382 0.0
H185 H 0.44884 0.92585 0.1339 0.0
H186 H 0.60495 0.83097 0.08178 0.0
H187 H 0.41207 0.02327 0.97574 0.0
H188 H 0.64487 0.88244 0.06783 0.0
H189 H 0.6523 0.9463 0.06506 0.0
H190 H 0.54618 0.80816 0.10469 0.0
H191 H 0.56273 0.08793 0.91972 0.0
H192 H 0.3646 0.12359 0.98179 0.0
H193 H 0.35967 0.05949 0.98424 0.0
H194 H 0.4605 0.20165 0.94707 0.0
H195 H 0.43686 0.86292 0.14951 0.0
H196 H 0.4834 0.8199 0.13099 0.0
H197 H 0.40252 0.17655 0.96868 0.0
H198 H 0.57238 0.15132 0.90501 0.0
N199 N 0.44716 0.06616 0.96997 0.0
C200 C 0.38787 0.10778 0.97798 0.0
C201 C 0.38499 0.07163 0.97925 0.0
C202 C 0.42068 0.12311 0.97005 0.0
C203 C 0.45016 0.10132 0.96569 0.0
C204 C 0.41498 0.05112 0.97437 0.0
N205 N 0.50989 0.09348 0.9468 0.0
C206 C 0.48263 0.11543 0.95378 0.0
C207 C 0.54704 0.14161 0.91906 0.0
C208 C 0.51966 0.16473 0.92903 0.0
C209 C 0.54151 0.10581 0.92731 0.0
C210 C 0.48677 0.15172 0.94563 0.0
H211 H 0.52393 0.19244 0.92233 0.0
O212 O 0.52192 0.03671 0.88078 0.0
O213 O 0.52676 0.98788 0.99933 0.0
O214 O 0.55147 0.02263 0.07819 0.0
O215 O 0.52833 0.06586 1.01998 0.0
O216 O 0.55543 0.01907 0.9441 0.0
O217 O 0.46992 0.01647 0.89716 0.0
O218 O 0.49042 0.98015 0.169 0.0
O219 O 0.48695 0.02362 0.05175 0.0
O220 O 0.46263 0.98772 0.97217 0.0
O221 O 0.48517 0.94481 0.03166 0.0
O222 O 0.4579 0.99236 0.1065 0.0
O223 O 0.54566 0.98872 0.15504 0.0
C224 C 0.55598 0.99078 0.9742 0.0
C225 C 0.45781 0.17368 0.95257 0.0
C226 C 0.4248 0.15938 0.96483 0.0
C227 C 0.49386 0.02535 0.86004 0.0
C228 C 0.4818 0.04456 0.81141 0.0
C229 C 0.46096 0.07436 0.81621 0.0
C230 C 0.48975 0.03199 0.75969 0.0
C231 C 0.4762 0.04856 0.71309 0.0
C232 C 0.44777 0.09109 0.77008 0.0
C233 C 0.45507 0.07816 0.71883 0.0
C234 C 0.54947 0.05506 0.05804 0.0
C235 C 0.45761 0.02075 0.07655 0.0
C236 C 0.51988 0.9854 0.19109 0.0
C237 C 0.52629 0.96404 0.24073 0.0
C238 C 0.53773 0.92952 0.23761 0.0
C239 C 0.51978 0.97795 0.29191 0.0
C240 C 0.5239 0.95719 0.33979 0.0
C241 C 0.54203 0.9089 0.28493 0.0
C242 C 0.53493 0.92251 0.33575 0.0
C243 C 0.46436 0.95544 0.99311 0.0
H244 H 0.45449 0.0844 0.85558 0.0
H245 H 0.5056 0.00879 0.75586 0.0
H246 H 0.43156 0.11396 0.77411 0.0
H247 H 0.44442 0.09141 0.68358 0.0
H248 H 0.54319 0.91846 0.19873 0.0
H249 H 0.5108 1.00459 0.29448 0.0
H250 H 0.55075 0.88223 0.28221 0.0
H251 H 0.53842 0.90606 0.37197 0.0
Gd252 Gd 0.22673 0.25223 0.21889 0.0
Gd253 Gd 0.28483 0.25701 0.33143 0.0
C254 C 0.38657 0.31811 0.32038 0.0
C255 C 0.42972 0.27199 0.32731 0.0
C256 C 0.3681 0.25802 0.3309 0.0
C257 C 0.35996 0.29292 0.32438 0.0
C258 C 0.40303 0.24718 0.33373 0.0
C259 C 0.4215 0.30741 0.32063 0.0
C260 C 0.37726 0.35331 0.31774 0.0
C261 C 0.34216 0.36262 0.32074 0.0
N262 N 0.32593 0.30234 0.32478 0.0
C263 C 0.31672 0.33667 0.32499 0.0
H264 H 0.28975 0.34435 0.32713 0.0
C265 C 0.34825 0.20063 0.35138 0.0
N266 N 0.34167 0.23484 0.33787 0.0
C267 C 0.38247 0.18857 0.35418 0.0
C268 C 0.41002 0.21187 0.34464 0.0
H269 H 0.3271 0.18243 0.35863 0.0
H270 H 0.44231 0.32635 0.31707 0.0
H271 H 0.22336 0.16482 0.2189 0.0
H272 H 0.3969 0.37346 0.31449 0.0
H273 H 0.33466 0.38977 0.31959 0.0
H274 H 0.45674 0.26416 0.32887 0.0
H275 H 0.18243 0.32536 0.19107 0.0
H276 H 0.11718 0.13338 0.24176 0.0
H277 H 0.17951 0.11845 0.22939 0.0
H278 H 0.05486 0.24139 0.23177 0.0
H279 H 0.38757 0.16133 0.36367 0.0
H280 H 0.43651 0.20249 0.34711 0.0
H281 H 0.07078 0.17955 0.24353 0.0
H282 H 0.12135 0.34522 0.18906 0.0
N283 N 0.18657 0.20599 0.22685 0.0
C284 C 0.13636 0.15394 0.23721 0.0
C285 C 0.17149 0.14542 0.23004 0.0
C286 C 0.12632 0.18894 0.23612 0.0
C287 C 0.15237 0.21467 0.23025 0.0
C288 C 0.19634 0.17191 0.2241 0.0
N289 N 0.16925 0.27291 0.21399 0.0
C290 C 0.1434 0.2493 0.22337 0.0
C291 C 0.12718 0.31818 0.19898 0.0
C292 C 0.10026 0.29446 0.2111 0.0
C293 C 0.16172 0.30684 0.19998 0.0
C294 C 0.10817 0.25941 0.22263 0.0
H295 H 0.07352 0.30328 0.21012 0.0
O296 O 0.22557 0.27655 0.1375 0.0
O297 O 0.27644 0.27466 0.24549 0.0
O298 O 0.24451 0.30069 0.33108 0.0
O299 O 0.19768 0.28009 0.28595 0.0
O300 O 0.24543 0.30734 0.20043 0.0
O301 O 0.23851 0.22193 0.14842 0.0
O302 O 0.28099 0.23209 0.41236 0.0
O303 O 0.23512 0.23509 0.30454 0.0
O304 O 0.26772 0.20902 0.2188 0.0
O305 O 0.31437 0.22957 0.26459 0.0
O306 O 0.26565 0.20172 0.34917 0.0
O307 O 0.277 0.28809 0.40236 0.0
C308 C 0.27474 0.30507 0.2234 0.0
C309 C 0.08209 0.23412 0.23162 0.0
C310 C 0.09115 0.19892 0.23838 0.0
C311 C 0.23255 0.24765 0.11374 0.0
C312 C 0.21115 0.23967 0.06808 0.0
C313 C 0.1778 0.22552 0.07739 0.0
C314 C 0.2247 0.24526 1.01447 0.0
C315 C 0.20533 0.23607 0.97031 0.0
C316 C 0.15837 0.21663 0.03378 0.0
C317 C 0.17206 0.22163 0.98056 0.0
C318 C 0.21106 0.30115 0.32037 0.0
C319 C 0.2365 0.20452 0.32581 0.0
C320 C 0.27823 0.26134 0.43669 0.0
C321 C 0.29995 0.26471 0.48368 0.0
C322 C 0.33605 0.26843 0.47649 0.0
C323 C 0.28446 0.26315 0.53651 0.0
C324 C 0.30496 0.26466 0.58235 0.0
C325 C 0.35656 0.27002 0.52137 0.0
C326 C 0.34128 0.26793 0.57386 0.0
C327 C 0.30115 0.20857 0.22995 0.0
H328 H 0.16691 0.22105 0.11824 0.0
H329 H 0.25059 0.25597 1.00721 0.0
H330 H 0.13267 0.20563 0.04126 0.0
H331 H 0.15653 0.21452 0.94735 0.0
H332 H 0.34842 0.26982 0.43633 0.0
H333 H 0.25645 0.26088 0.54162 0.0
H334 H 0.38449 0.27253 0.51547 0.0
H335 H 0.35812 0.26829 0.60774 0.0
Gd336 Gd 0.727 0.26251 0.3333 0.0
Gd337 Gd 0.78649 0.251 0.21228 0.0
C338 C 0.88248 0.18087 0.2161 0.0
C339 C 0.92952 0.22291 0.20541 0.0
C340 C 0.86933 0.24233 0.20561 0.0
C341 C 0.85815 0.20835 0.21331 0.0
C342 C 0.90513 0.25002 0.20063 0.0
C343 C 0.91821 0.18838 0.21314 0.0
C344 C 0.87017 0.14667 0.22071 0.0
C345 C 0.83446 0.14056 0.22076 0.0
N346 N 0.82345 0.20206 0.21591 0.0
C347 C 0.81137 0.16869 0.21759 0.0
H348 H 0.78389 0.16345 0.21784 0.0
C349 C 0.85478 0.30142 0.18788 0.0
N350 N 0.84509 0.26781 0.20092 0.0
C351 C 0.88998 0.31041 0.18293 0.0
C352 C 0.91529 0.28464 0.18987 0.0
H353 H 0.83525 0.32142 0.18283 0.0
H354 H 0.93728 0.16765 0.21574 0.0
H355 H 0.72588 0.34993 0.3236 0.0
H356 H 0.88799 0.12484 0.22321 0.0
H357 H 0.82468 0.11419 0.22343 0.0
H358 H 0.95715 0.22829 0.20214 0.0
H359 H 0.68134 0.1909 0.37053 0.0
H360 H 0.62019 0.38405 0.31873 0.0
H361 H 0.68304 0.3974 0.31634 0.0
H362 H 0.5555 0.27819 0.3489 0.0
H363 H 0.89756 0.33717 0.17379 0.0
H364 H 0.94255 0.29164 0.18583 0.0
H365 H 0.57272 0.33929 0.33031 0.0
H366 H 0.61993 0.17293 0.38388 0.0
N367 N 0.68791 0.30972 0.32841 0.0
C368 C 0.63892 0.36303 0.32189 0.0
C369 C 0.67435 0.37066 0.32065 0.0
C370 C 0.62805 0.32839 0.32871 0.0
C371 C 0.65352 0.30201 0.33226 0.0
C372 C 0.6986 0.34358 0.32478 0.0
N373 N 0.66919 0.24348 0.34814 0.0
C374 C 0.64383 0.26776 0.3425 0.0
C375 C 0.62628 0.19966 0.37201 0.0
C376 C 0.59982 0.22407 0.36393 0.0
C377 C 0.66104 0.20995 0.36452 0.0
C378 C 0.60842 0.25872 0.34973 0.0
H379 H 0.57292 0.21606 0.36986 0.0
O380 O 0.73137 0.23947 0.41481 0.0
O381 O 0.77446 0.23684 0.29925 0.0
O382 O 0.74309 0.21104 0.22115 0.0
O383 O 0.69717 0.23569 0.27146 0.0
O384 O 0.74369 0.20685 0.35307 0.0
O385 O 0.73627 0.29517 0.40069 0.0
O386 O 0.78916 0.27436 0.13008 0.0
O387 O 0.73918 0.27666 0.24613 0.0
O388 O 0.76914 0.30372 0.32203 0.0
O389 O 0.81549 0.27676 0.27626 0.0
O390 O 0.76973 0.30659 0.19197 0.0
O391 O 0.77245 0.22087 0.14468 0.0
C392 C 0.77218 0.20729 0.32354 0.0
C393 C 0.58287 0.28465 0.34401 0.0
C394 C 0.59267 0.31943 0.33344 0.0
C395 C 0.73481 0.26927 0.43679 0.0
C396 C 0.71335 0.27426 0.48681 0.0
C397 C 0.67776 0.28151 0.48437 0.0
C398 C 0.72837 0.27048 0.53767 0.0
C399 C 0.70789 0.27344 0.5863 0.0
C400 C 0.65729 0.28456 0.53204 0.0
C401 C 0.67208 0.28037 0.58257 0.0
C402 C 0.70958 0.21383 0.23547 0.0
C403 C 0.74109 0.306 0.22117 0.0
C404 C 0.77985 0.24582 0.10835 0.0
C405 C 0.79993 0.23582 0.05927 0.0
C406 C 0.83173 0.2182 0.06325 0.0
C407 C 0.78651 0.24294 1.00782 0.0
C408 C 0.80439 0.23185 0.96055 0.0
C409 C 0.8497 0.20739 1.01654 0.0
C410 C 0.83609 0.21395 0.96553 0.0
C411 C 0.8027 0.30031 0.30901 0.0
H412 H 0.66576 0.28454 0.44572 0.0
H413 H 0.75602 0.26538 0.53909 0.0
H414 H 0.62974 0.28984 0.52985 0.0
H415 H 0.65519 0.28199 0.61869 0.0
H416 H 0.84248 0.21252 0.10237 0.0
H417 H 0.76179 0.25634 1.00472 0.0
H418 H 0.8742 0.19371 1.01989 0.0
H419 H 0.85051 0.20531 0.92987 0.0
Gd420 Gd 0.7273 0.75364 0.71867 0.0
Gd421 Gd 0.78545 0.75824 0.83119 0.0
C422 C 0.88655 0.82039 0.81434 0.0
C423 C 0.93029 0.77473 0.8192 0.0
C424 C 0.86881 0.76022 0.82712 0.0
C425 C 0.86022 0.79495 0.8201 0.0
C426 C 0.90392 0.74973 0.82804 0.0
C427 C 0.92161 0.81003 0.81234 0.0
C428 C 0.87688 0.85549 0.81307 0.0
C429 C 0.84183 0.8644 0.82 0.0
N430 N 0.82611 0.80401 0.82327 0.0
C431 C 0.8167 0.83818 0.8259 0.0
H432 H 0.78974 0.84554 0.83095 0.0
C433 C 0.84983 0.70286 0.85023 0.0
N434 N 0.84269 0.73689 0.83633 0.0
C435 C 0.88424 0.69114 0.85139 0.0
C436 C 0.91143 0.71459 0.83954 0.0
H437 H 0.82893 0.68454 0.85897 0.0
H438 H 0.9422 0.82918 0.80729 0.0
H439 H 0.72262 0.6663 0.72265 0.0
H440 H 0.89629 0.87585 0.80858 0.0
H441 H 0.83411 0.89146 0.82052 0.0
H442 H 0.95743 0.76717 0.81921 0.0
H443 H 0.68478 0.82811 0.69177 0.0
H444 H 0.61555 0.63688 0.73563 0.0
H445 H 0.67784 0.62075 0.73021 0.0
H446 H 0.55539 0.74604 0.72198 0.0
H447 H 0.88976 0.66403 0.86125 0.0
H448 H 0.93807 0.70547 0.84063 0.0
H449 H 0.57001 0.68387 0.73346 0.0
H450 H 0.62425 0.84907 0.68708 0.0
N451 N 0.68632 0.7082 0.72529 0.0
C452 C 0.63514 0.65709 0.73236 0.0
C453 C 0.67026 0.64788 0.72919 0.0
C454 C 0.62573 0.69226 0.72989 0.0
C455 C 0.65227 0.71753 0.72587 0.0
C456 C 0.69563 0.67389 0.72492 0.0
N457 N 0.67039 0.77567 0.71255 0.0
C458 C 0.64402 0.75241 0.71957 0.0
C459 C 0.62943 0.82183 0.6965 0.0
C460 C 0.60195 0.79846 0.70615 0.0
C461 C 0.6637 0.80986 0.69911 0.0
C462 C 0.60905 0.76316 0.71694 0.0
H463 H 0.57544 0.80777 0.70383 0.0
O464 O 0.73117 0.77878 0.63791 0.0
O465 O 0.77706 0.77558 0.74555 0.0
O466 O 0.74472 0.80166 0.83118 0.0
O467 O 0.69794 0.78119 0.78562 0.0
O468 O 0.7463 0.80895 0.70115 0.0
O469 O 0.73489 0.72275 0.64747 0.0
O470 O 0.78618 0.73404 0.9127 0.0
O471 O 0.73576 0.73596 0.80449 0.0
O472 O 0.76781 0.71006 0.71869 0.0
O473 O 0.81457 0.73065 0.76398 0.0
O474 O 0.76649 0.70318 0.84968 0.0
O475 O 0.774 0.78881 0.90146 0.0
C476 C 0.77548 0.80619 0.72441 0.0
C477 C 0.58244 0.73827 0.72338 0.0
C478 C 0.59076 0.70287 0.72987 0.0
C479 C 0.73373 0.74961 0.61334 0.0
C480 C 0.7119 0.74652 0.56641 0.0
C481 C 0.67577 0.74318 0.57372 0.0
C482 C 0.72731 0.74805 0.51353 0.0
C483 C 0.7067 0.74688 0.46775 0.0
C484 C 0.65515 0.74195 0.52891 0.0
C485 C 0.67035 0.74401 0.47636 0.0
C486 C 0.71128 0.80221 0.82014 0.0
C487 C 0.73724 0.70554 0.82657 0.0
C488 C 0.77955 0.76306 0.93629 0.0
C489 C 0.80096 0.77081 0.98204 0.0
C490 C 0.83452 0.78449 0.97287 0.0
C491 C 0.78723 0.76547 0.03559 0.0
C492 C 0.80664 0.77444 0.07984 0.0
C493 C 0.85399 0.79316 1.01656 0.0
C494 C 0.84012 0.78839 0.06972 0.0
C495 C 0.80127 0.70964 0.72946 0.0
H496 H 0.66345 0.74182 0.61391 0.0
H497 H 0.75534 0.75002 0.50833 0.0
H498 H 0.6272 0.73974 0.5349 0.0
H499 H 0.65345 0.74394 0.44255 0.0
H500 H 0.84555 0.78876 0.93207 0.0
H501 H 0.76119 0.75513 0.04274 0.0
H502 H 0.87985 0.80379 1.00919 0.0
H503 H 0.85569 0.79531 0.103 0.0
Gd504 Gd 0.50869 0.53493 0.08082 0.0
Gd505 Gd 0.50176 0.47706 0.96855 0.0
C506 C 0.43778 0.37699 0.98079 0.0
C507 C 0.48253 0.3326 0.97198 0.0
C508 C 0.49822 0.39384 0.96842 0.0
C509 C 0.46369 0.40291 0.97632 0.0
C510 C 0.50802 0.35862 0.96504 0.0
C511 C 0.44745 0.34178 0.97983 0.0
C512 C 0.40289 0.38728 0.98451 0.0
C513 C 0.39457 0.42263 0.982 0.0
N514 N 0.45526 0.4372 0.97651 0.0
C515 C 0.42118 0.44736 0.97718 0.0
H516 H 0.41419 0.47451 0.97536 0.0
C517 C 0.55594 0.41216 0.94689 0.0
N518 N 0.52206 0.41962 0.96111 0.0
C519 C 0.56699 0.37763 0.94344 0.0
C520 C 0.543 0.35069 0.9532 0.0
H521 H 0.57466 0.43285 0.93957 0.0
H522 H 0.42795 0.3215 0.98377 0.0
H523 H 0.59603 0.53914 0.07412 0.0
H524 H 0.38221 0.36819 0.98816 0.0
H525 H 0.36764 0.43089 0.98391 0.0
H526 H 0.48957 0.30538 0.96998 0.0
H527 H 0.43488 0.5778 0.11062 0.0
H528 H 0.62596 0.64612 0.06066 0.0
H529 H 0.64178 0.58371 0.06536 0.0
H530 H 0.51737 0.70685 0.07815 0.0
H531 H 0.59398 0.37182 0.93333 0.0
H532 H 0.55158 0.32397 0.95028 0.0
H533 H 0.57929 0.69191 0.06448 0.0
H534 H 0.41442 0.63844 0.11649 0.0
N535 N 0.55432 0.57569 0.07281 0.0
C536 C 0.60567 0.62662 0.06443 0.0
C537 C 0.6147 0.59143 0.06721 0.0
C538 C 0.57058 0.63622 0.06798 0.0
C539 C 0.54519 0.6098 0.07264 0.0
C540 C 0.58858 0.56619 0.07214 0.0
N541 N 0.4871 0.59197 0.0879 0.0
C542 C 0.51044 0.61822 0.08019 0.0
C543 C 0.44147 0.63313 0.10598 0.0
C544 C 0.46487 0.66052 0.0956 0.0
C545 C 0.45317 0.5988 0.1027 0.0
C546 C 0.49996 0.65326 0.08344 0.0
H547 H 0.45578 0.68709 0.09845 0.0
O548 O 0.4848 0.53096 0.1624 0.0
O549 O 0.48594 0.48504 0.05512 0.0
O550 O 0.45873 0.51802 0.97059 0.0
O551 O 0.48029 0.5647 1.01504 0.0
O552 O 0.45371 0.51629 0.10051 0.0
O553 O 0.5407 0.52735 0.15082 0.0
O554 O 0.52508 0.47689 0.88645 0.0
O555 O 0.52494 0.52653 0.99451 0.0
O556 O 0.55193 0.49422 0.07881 0.0
O557 O 0.53037 0.4475 0.03439 0.0
O558 O 0.5568 0.4955 0.94839 0.0
O559 O 0.47052 0.4894 0.89925 0.0
C560 C 0.45577 0.48684 0.07793 0.0
C561 C 0.52494 0.67976 0.07629 0.0
C562 C 0.56019 0.67125 0.06856 0.0
C563 C 0.51435 0.52846 0.18588 0.0
C564 C 0.51811 0.55034 0.23259 0.0
C565 C 0.52283 0.58632 0.22489 0.0
C566 C 0.51576 0.53518 0.28564 0.0
C567 C 0.51748 0.55591 0.33118 0.0
C568 C 0.52461 0.60705 0.26946 0.0
C569 C 0.52173 0.59212 0.32216 0.0
C570 C 0.45871 0.5515 0.98124 0.0
C571 C 0.55503 0.52478 0.97147 0.0
C572 C 0.49586 0.48398 0.86369 0.0
C573 C 0.48748 0.4631 0.81759 0.0
C574 C 0.47238 0.4301 0.8263 0.0
C575 C 0.49371 0.47677 0.76415 0.0
C576 C 0.48424 0.45789 0.71961 0.0
C577 C 0.46327 0.41112 0.78235 0.0
C578 C 0.46894 0.42495 0.72933 0.0
C579 C 0.552 0.46075 0.06812 0.0
H580 H 0.52486 0.59844 0.18457 0.0
H581 H 0.51271 0.50725 0.29117 0.0
H582 H 0.52787 0.6349 0.26315 0.0
H583 H 0.52226 0.60914 0.35576 0.0
H584 H 0.46733 0.41914 0.86694 0.0
H585 H 0.50513 0.5024 0.7573 0.0
H586 H 0.45158 0.38569 0.78941 0.0
H587 H 0.46164 0.40976 0.69583 0.0
Gd588 Gd 1.00005 0.53447 0.46507 0.0
Gd589 Gd 0.01223 0.47539 0.58638 0.0
C590 C 0.07888 0.37705 0.58151 0.0
C591 C 0.03539 0.33144 0.59418 0.0
C592 C 0.01802 0.39228 0.5938 0.0
C593 C 0.0523 0.40231 0.58493 0.0
C594 C 0.00919 0.35674 0.59955 0.0
C595 C 0.07018 0.34158 0.58514 0.0
C596 C 0.11344 0.38822 0.57561 0.0
C597 C 0.12079 0.42373 0.57488 0.0
N598 N 0.05976 0.43679 0.58178 0.0
C599 C 0.09351 0.44776 0.57872 0.0
H600 H 0.09961 0.47511 0.57787 0.0
C601 C 0.95974 0.40883 0.6136 0.0
N602 N 0.99344 0.41739 0.59909 0.0
C603 C 0.94965 0.37394 0.61934 0.0
C604 C 0.97441 0.34776 0.61173 0.0
H605 H 0.94047 0.42898 0.61923 0.0
H606 H 0.09021 0.32181 0.5821 0.0
H607 H 0.91249 0.53422 0.47499 0.0
H608 H 0.13462 0.36966 0.57258 0.0
H609 H 0.14745 0.43263 0.57114 0.0
H610 H 0.02911 0.30399 0.59802 0.0
H611 H 0.0706 0.58106 0.42688 0.0
H612 H 0.87671 0.6394 0.47813 0.0
H613 H 0.86443 0.57629 0.4816 0.0
H614 H 0.98136 0.70575 0.44627 0.0
H615 H 0.92279 0.36726 0.62964 0.0
H616 H 0.96656 0.32074 0.61642 0.0
H617 H 0.92062 0.6876 0.46549 0.0
H618 H 0.08757 0.64277 0.41217 0.0
N619 N 0.95215 0.57282 0.46964 0.0
C620 C 0.89803 0.621 0.47528 0.0
C621 C 0.891 0.58541 0.47715 0.0
C622 C 0.93245 0.63242 0.46815 0.0
C623 C 0.95923 0.60736 0.46502 0.0
C624 C 0.91847 0.56158 0.47342 0.0
N625 N 0.01789 0.59256 0.449 0.0
C626 C 0.99324 0.61756 0.45426 0.0
C627 C 0.06097 0.63605 0.4242 0.0
C628 C 0.03616 0.66219 0.43184 0.0
C629 C 0.05125 0.60115 0.43242 0.0
C630 C 1.00169 0.65311 0.44633 0.0
H631 H 0.04372 0.68921 0.42537 0.0
O632 O 0.02184 0.53413 0.38206 0.0
O633 O 0.02602 0.48725 0.49916 0.0
O634 O 0.05288 0.51801 0.57596 0.0
O635 O 0.02814 0.56411 0.52604 0.0
O636 O 0.0554 0.51749 0.44392 0.0
O637 O 0.96805 0.51977 0.39989 0.0
O638 O 0.98897 0.4778 0.66801 0.0
O639 O 0.98701 0.52326 0.55279 0.0
O640 O 0.95886 0.49232 0.47788 0.0
O641 O 0.9859 0.44597 0.52364 0.0
O642 O 0.95696 0.49274 0.6071 0.0
O643 O 0.04455 0.4845 0.6542 0.0
C644 C 0.05524 0.48918 0.47392 0.0
C645 C 0.97537 0.67828 0.45171 0.0
C646 C 0.94079 0.66795 0.46266 0.0
C647 C 0.99249 0.52555 0.36217 0.0
C648 C 0.98235 0.54527 0.31275 0.0
C649 C 0.96424 0.57684 0.31625 0.0
C650 C 0.98999 0.53185 0.26146 0.0
C651 C 0.97891 0.54947 0.2139 0.0
C652 C 0.95344 0.59456 0.26927 0.0
C653 C 0.9605 0.58093 0.21844 0.0
C654 C 0.05049 0.55151 0.56123 0.0
C655 C 0.95773 0.52144 0.57794 0.0
C656 C 0.01863 0.48194 0.69018 0.0
C657 C 0.02421 0.46036 0.73991 0.0
C658 C 0.03228 0.42496 0.73713 0.0
C659 C 0.02021 0.47514 0.79091 0.0
C660 C 0.02371 0.45458 0.83937 0.0
C661 C 0.03596 0.40442 0.78464 0.0
C662 C 0.03153 0.41894 0.83533 0.0
C663 C 0.96221 0.45875 0.49113 0.0
H664 H 0.95817 0.58763 0.35523 0.0
H665 H 1.00382 0.50733 0.25869 0.0
H666 H 0.93939 0.61887 0.27227 0.0
H667 H 0.95186 0.59515 0.18256 0.0
H668 H 0.03545 0.41315 0.69835 0.0
H669 H 0.01447 0.50266 0.79256 0.0
H670 H 0.04189 0.377 0.78221 0.0
H671 H 0.03362 0.40198 0.87131 0.0
H672 H 0.04101 0.09357 0.44087 0.0
H673 H 0.12607 0.02384 0.47299 0.0
H674 H 0.08214 0.13744 0.40163 0.0
H675 H 0.16724 0.06779 0.43912 0.0
H676 H 0.2387 0.13447 0.33415 0.0
H677 H 0.19451 0.09375 0.36868 0.0
H678 H 0.12388 0.17939 0.39805 0.0
H679 H 0.16811 0.21995 0.3583 0.0
C680 C 0.06861 0.08796 0.44079 0.0
C681 C 0.08024 0.05517 0.46039 0.0
C682 C 0.09248 0.11323 0.4182 0.0
C683 C 0.12879 0.10665 0.41521 0.0
C684 C 0.13994 0.07416 0.43752 0.0
C685 C 0.11618 0.04878 0.45826 0.0
C686 C 0.21353 0.14456 0.34734 0.0
C687 C 0.20697 0.18046 0.3427 0.0
C688 C 0.18798 0.12109 0.36841 0.0
C689 C 0.15508 0.13256 0.38853 0.0
C690 C 0.1484 0.16882 0.38322 0.0
C691 C 0.17388 0.19235 0.36034 0.0
H692 H 0.10107 0.97967 0.64126 0.0
H693 H 0.05831 0.89052 0.56829 0.0
H694 H 0.1437 0.94227 0.6849 0.0
H695 H 0.10216 0.85342 0.60932 0.0
H696 H 0.16948 0.78885 0.72207 0.0
H697 H 0.1225 0.8263 0.6899 0.0
H698 H 0.1951 0.91147 0.66347 0.0
H699 H 0.24131 0.87435 0.69807 0.0
C700 C 0.10085 0.95214 0.6341 0.0
C701 C 0.07651 0.93835 0.60022 0.0
C702 C 0.12556 0.93062 0.65893 0.0
C703 C 0.12686 0.89469 0.65037 0.0
C704 C 0.10197 0.88082 0.61744 0.0
C705 C 0.07705 0.90229 0.59305 0.0
C706 C 0.1751 0.8158 0.71052 0.0
C707 C 0.20885 0.82896 0.71389 0.0
C708 C 0.14829 0.83721 0.69127 0.0
C709 C 0.15478 0.87214 0.67394 0.0
C710 C 0.18872 0.88507 0.67739 0.0
C711 C 0.21536 0.86373 0.69689 0.0
H712 H 0.28768 0.84614 0.89361 0.0
H713 H 0.3729 0.79889 0.80277 0.0
H714 H 0.32899 0.88112 0.939 0.0
H715 H 0.41389 0.83499 0.84705 0.0
H716 H 0.46009 0.94454 0.88678 0.0
H717 H 0.42198 0.90377 0.84523 0.0
H718 H 0.38134 0.86847 1.00439 0.0
H719 H 0.4197 0.90926 0.04594 0.0
C720 C 0.31512 0.84324 0.88308 0.0
C721 C 0.32693 0.82004 0.84388 0.0
C722 C 0.3387 0.86314 0.90935 0.0
C723 C 0.37441 0.86056 0.89634 0.0
C724 C 0.38635 0.83744 0.85736 0.0
C725 C 0.36284 0.81704 0.83177 0.0
C726 C 0.44312 0.92786 0.91274 0.0
C727 C 0.44268 0.9297 0.96936 0.0
C728 C 0.42163 0.90449 0.8891 0.0
C729 C 0.39895 0.88315 0.9218 0.0
C730 C 0.39872 0.88477 0.97855 0.0
C731 C 0.42075 0.90776 1.00225 0.0
H732 H 0.47376 0.09013 0.08065 0.0
H733 H 0.39004 0.01682 0.11132 0.0
H734 H 0.43609 0.13688 0.11297 0.0
H735 H 0.35268 0.06296 0.14569 0.0
H736 H 0.37213 0.20171 0.23469 0.0
H737 H 0.40958 0.15762 0.19476 0.0
H738 H 0.32093 0.11391 0.12161 0.0
H739 H 0.28328 0.15694 0.16361 0.0
C740 C 0.44715 0.08411 0.09369 0.0
C741 C 0.43454 0.04999 0.09211 0.0
C742 C 0.42563 0.11082 0.11299 0.0
C743 C 0.39114 0.10391 0.13202 0.0
C744 C 0.37875 0.06961 0.13046 0.0
C745 C 0.40022 0.04303 0.11106 0.0
C746 C 0.3605 0.18249 0.21061 0.0
C747 C 0.32444 0.18261 0.20348 0.0
C748 C 0.38214 0.1574 0.18695 0.0
C749 C 0.36841 0.13186 0.15504 0.0
C750 C 0.33246 0.13262 0.14676 0.0
C751 C 0.31081 0.15755 0.17068 0.0
H752 H 0.88408 0.98783 0.57732 0.0
H753 H 0.96978 0.91871 0.60847 0.0
H754 H 0.84335 0.94355 0.61157 0.0
H755 H 0.92913 0.87451 0.64801 0.0
H756 H 0.84386 0.79128 0.69132 0.0
H757 H 0.88768 0.83225 0.65147 0.0
H758 H 0.81667 0.91733 0.68247 0.0
H759 H 0.77286 0.87622 0.7171 0.0
C760 C 0.8942 0.96296 0.59191 0.0
C761 C 0.93019 0.95684 0.58943 0.0
C762 C 0.87071 0.93739 0.61285 0.0
C763 C 0.8822 0.90497 0.63495 0.0
C764 C 0.91855 0.89866 0.63161 0.0
C765 C 0.94214 0.92412 0.60885 0.0
C766 C 0.83793 0.81884 0.68964 0.0
C767 C 0.80483 0.83047 0.70771 0.0
C768 C 0.86316 0.84261 0.66671 0.0
C769 C 0.85622 0.87883 0.66179 0.0
C770 C 0.82336 0.89003 0.68243 0.0
C771 C 0.79804 0.86634 0.70356 0.0
H772 H 0.90832 0.03187 0.40933 0.0
H773 H 0.9523 0.12108 0.48044 0.0
H774 H 0.86558 0.06942 0.36605 0.0
H775 H 0.90841 0.15828 0.43995 0.0
H776 H 0.84138 0.22335 0.32909 0.0
H777 H 0.88803 0.18529 0.35994 0.0
H778 H 0.81452 0.10095 0.38685 0.0
H779 H 0.7685 0.13881 0.35329 0.0
C780 C 0.90878 0.05945 0.41615 0.0
C781 C 0.93351 0.07323 0.44938 0.0
C782 C 0.88401 0.08104 0.39154 0.0
C783 C 0.88308 0.11704 0.39968 0.0
C784 C 0.90831 0.13086 0.43207 0.0
C785 C 0.93328 0.10932 0.45619 0.0
C786 C 0.83544 0.19647 0.34028 0.0
C787 C 0.80147 0.18383 0.33737 0.0
C788 C 0.8621 0.17467 0.35888 0.0
C789 C 0.85529 0.13982 0.37619 0.0
C790 C 0.82115 0.1273 0.373 0.0
C791 C 0.79463 0.14906 0.35405 0.0
H792 H 0.72436 0.1672 0.15751 0.0
H793 H 0.6388 0.21095 0.25214 0.0
H794 H 0.68354 0.13169 0.11213 0.0
H795 H 0.59832 0.1742 0.20787 0.0
H796 H 0.55581 0.06313 0.16479 0.0
H797 H 0.59317 0.10421 0.20718 0.0
H798 H 0.62931 0.14504 0.04856 0.0
H799 H 0.59158 0.10406 1.00615 0.0
C800 C 0.69696 0.1692 0.16892 0.0
C801 C 0.68492 0.19164 0.2091 0.0
C802 C 0.67366 0.14899 0.14265 0.0
C803 C 0.63802 0.15044 0.15666 0.0
C804 C 0.62583 0.17268 0.19674 0.0
C805 C 0.64905 0.19344 0.22231 0.0
C806 C 0.57162 0.08107 0.13914 0.0
C807 C 0.57095 0.08074 0.08239 0.0
C808 C 0.59268 0.10461 0.16328 0.0
C809 C 0.61386 0.12761 0.13093 0.0
C810 C 0.61305 0.12745 0.07411 0.0
C811 C 0.5914 0.10432 0.04995 0.0
H812 H 0.64031 0.80937 0.81565 0.0
H813 H 0.72952 0.85394 0.886 0.0
H814 H 0.60316 0.85375 0.8554 0.0
H815 H 0.69217 0.89722 0.92791 0.0
H816 H 0.62353 0.9945 0.93905 0.0
H817 H 0.6606 0.94826 0.90426 0.0
H818 H 0.57686 0.87471 0.93694 0.0
H819 H 0.53948 0.92156 0.96957 0.0
C820 C 0.65208 0.82861 0.83953 0.0
C821 C 0.68815 0.82833 0.84651 0.0
C822 C 0.63061 0.85387 0.86309 0.0
C823 C 0.64453 0.87942 0.8948 0.0
C824 C 0.68049 0.87852 0.90292 0.0
C825 C 0.70197 0.85343 0.87906 0.0
C826 C 0.61322 0.96835 0.9392 0.0
C827 C 0.5789 0.96151 0.95826 0.0
C828 C 0.63452 0.94171 0.91955 0.0
C829 C 0.62196 0.90747 0.91789 0.0
C830 C 0.58745 0.90071 0.93698 0.0
C831 C 0.56611 0.92747 0.95649 0.0
H832 H 0.62143 0.51759 0.93559 0.0
H833 H 0.544 0.59696 0.96 0.0
H834 H 0.66162 0.56008 0.8966 0.0
H835 H 0.58612 0.64152 0.92691 0.0
H836 H 0.66524 0.71738 0.83854 0.0
H837 H 0.6203 0.67559 0.87128 0.0
H838 H 0.70088 0.59878 0.89964 0.0
H839 H 0.7437 0.63873 0.86097 0.0
C840 C 0.61335 0.54462 0.93431 0.0
C841 C 0.57972 0.55369 0.95319 0.0
C842 C 0.63697 0.56968 0.91232 0.0
C843 C 0.62869 0.60557 0.90956 0.0
C844 C 0.59446 0.61466 0.92784 0.0
C845 C 0.57018 0.58905 0.94821 0.0
C846 C 0.67286 0.691 0.8498 0.0
C847 C 0.70808 0.68106 0.84442 0.0
C848 C 0.64704 0.6669 0.86997 0.0
C849 C 0.65577 0.63243 0.88767 0.0
C850 C 0.69153 0.62369 0.8844 0.0
C851 C 0.71679 0.64714 0.86259 0.0
H852 H 0.74377 0.37422 0.1901 0.0
H853 H 0.67224 0.28851 0.21482 0.0
H854 H 0.69731 0.41108 0.15561 0.0
H855 H 0.62509 0.32566 0.18279 0.0
H856 H 0.56003 0.38988 0.06186 0.0
H857 H 0.60439 0.35278 0.10197 0.0
H858 H 0.6458 0.44146 0.17814 0.0
H859 H 0.60273 0.47875 0.13576 0.0
C860 C 0.71785 0.36351 0.18919 0.0
C861 C 0.7115 0.32875 0.20638 0.0
C862 C 0.69107 0.38467 0.16969 0.0
C863 C 0.65716 0.37157 0.16646 0.0
C864 C 0.65084 0.33668 0.18402 0.0
C865 C 0.67776 0.31545 0.20328 0.0
C866 C 0.57884 0.40158 0.08657 0.0
C867 C 0.57811 0.43756 0.0944 0.0
C868 C 0.60407 0.38014 0.11036 0.0
C869 C 0.62905 0.394 0.1432 0.0
C870 C 0.62761 0.42984 0.15222 0.0
C871 C 0.60263 0.45129 0.12806 0.0
H872 H 0.89281 0.4659 0.48133 0.0
H873 H 0.97939 0.39758 0.44752 0.0
H874 H 0.85409 0.4266 0.43913 0.0
H875 H 0.94191 0.35984 0.40024 0.0
H876 H 0.86231 0.28201 0.35643 0.0
H877 H 0.90008 0.31912 0.40439 0.0
H878 H 0.8364 0.40824 0.35959 0.0
H879 H 0.79696 0.36997 0.31672 0.0
C880 C 0.90346 0.44252 0.46416 0.0
C881 C 0.9388 0.43452 0.46745 0.0
C882 C 0.88146 0.42013 0.4393 0.0
C883 C 0.89468 0.38998 0.41532 0.0
C884 C 0.93034 0.38223 0.419 0.0
C885 C 0.95202 0.40397 0.44571 0.0
C886 C 0.85661 0.30959 0.35711 0.0
C887 C 0.82691 0.32335 0.33342 0.0
C888 C 0.87837 0.33104 0.38422 0.0
C889 C 0.87151 0.36697 0.38635 0.0
C890 C 0.84216 0.38069 0.3606 0.0
C891 C 0.81972 0.35894 0.33533 0.0
H892 H 0.78334 0.65834 0.66255 0.0
H893 H 0.87226 0.70288 0.73368 0.0
H894 H 0.82097 0.61552 0.61999 0.0
H895 H 0.90965 0.65887 0.6936 0.0
H896 H 0.97437 0.59072 0.58224 0.0
H897 H 0.93666 0.63778 0.61325 0.0
H898 H 0.85227 0.56459 0.64269 0.0
H899 H 0.88964 0.51824 0.6093 0.0
C900 C 0.81088 0.65891 0.66956 0.0
C901 C 0.82453 0.68382 0.7026 0.0
C902 C 0.83253 0.63409 0.64533 0.0
C903 C 0.86849 0.63325 0.65363 0.0
C904 C 0.88223 0.65868 0.68573 0.0
C905 C 0.8606 0.68371 0.70956 0.0
C906 C 0.94753 0.58497 0.59411 0.0
C907 C 0.93468 0.55097 0.59202 0.0
C908 C 0.92597 0.61184 0.61275 0.0
C909 C 0.89119 0.60523 0.63066 0.0
C910 C 0.87855 0.57107 0.62833 0.0
C911 C 0.90003 0.54435 0.60949 0.0
H912 H 0.34681 0.29366 0.21149 0.0
H913 H 0.26789 0.37185 0.18899 0.0
H914 H 0.39152 0.33573 0.17868 0.0
H915 H 0.31051 0.41205 0.15032 0.0
H916 H 0.38957 0.49373 0.11521 0.0
H917 H 0.34968 0.45095 0.15436 0.0
H918 H 0.42522 0.36988 0.12202 0.0
H919 H 0.46707 0.41467 0.08877 0.0
C920 C 0.33904 0.31999 0.2002 0.0
C921 C 0.30375 0.32973 0.20555 0.0
C922 C 0.36472 0.34424 0.17999 0.0
C923 C 0.35577 0.37865 0.16229 0.0
C924 C 0.31998 0.38719 0.16556 0.0
C925 C 0.29485 0.36359 0.18737 0.0
C926 C 0.39773 0.46673 0.11611 0.0
C927 C 0.43129 0.45782 0.09662 0.0
C928 C 0.3743 0.44152 0.13817 0.0
C929 C 0.38269 0.40565 0.1404 0.0
C930 C 0.41683 0.39672 0.12152 0.0
C931 C 0.44094 0.42247 0.10107 0.0
H932 H 0.45072 0.62237 0.98755 0.0
H933 H 0.40786 0.53356 0.91371 0.0
H934 H 0.40627 0.65948 0.94779 0.0
H935 H 0.36477 0.57088 0.87151 0.0
H936 H 0.26693 0.63816 0.85874 0.0
H937 H 0.31332 0.60122 0.89329 0.0
H938 H 0.38543 0.68685 0.86775 0.0
H939 H 0.33836 0.72406 0.83593 0.0
C940 C 0.43185 0.61068 0.96292 0.0
C941 C 0.43257 0.57471 0.95504 0.0
C942 C 0.40656 0.63214 0.9393 0.0
C943 C 0.38153 0.61832 0.9065 0.0
C944 C 0.38297 0.58249 0.89741 0.0
C945 C 0.40798 0.56102 0.92146 0.0
C946 C 0.29282 0.6489 0.86003 0.0
C947 C 0.29914 0.68374 0.8433 0.0
C948 C 0.31956 0.62768 0.87956 0.0
C949 C 0.35343 0.6408 0.88327 0.0
C950 C 0.35973 0.67578 0.86618 0.0
C951 C 0.33283 0.69706 0.84698 0.0
H952 H 0.20171 0.70622 0.63457 0.0
H953 H 0.15976 0.66777 0.79116 0.0
H954 H 0.16226 0.6682 0.58985 0.0
H955 H 0.12042 0.62958 0.74655 0.0
H956 H 0.09778 0.53608 0.63791 0.0
H957 H 0.13425 0.57637 0.68257 0.0
H958 H 0.0925 0.66224 0.58707 0.0
H959 H 0.05482 0.62227 0.54343 0.0
C960 C 0.18394 0.68965 0.65928 0.0
C961 C 0.18339 0.68991 0.71614 0.0
C962 C 0.16134 0.6682 0.63381 0.0
C963 C 0.13845 0.64621 0.66496 0.0
C964 C 0.13793 0.64644 0.72187 0.0
C965 C 0.1601 0.66841 0.74732 0.0
C966 C 0.09624 0.56351 0.62624 0.0
C967 C 0.0736 0.57588 0.58651 0.0
C968 C 0.11703 0.58651 0.65207 0.0
C969 C 0.11599 0.6222 0.6381 0.0
C970 C 0.09377 0.63469 0.59811 0.0
C971 C 0.07242 0.61176 0.57296 0.0
H972 H 0.22927 0.35225 0.38738 0.0
H973 H 0.14009 0.30832 0.31612 0.0
H974 H 0.19191 0.39508 0.43032 0.0
H975 H 0.10295 0.3524 0.35652 0.0
H976 H 0.03859 0.42003 0.4686 0.0
H977 H 0.07611 0.37313 0.43691 0.0
H978 H 0.16073 0.4462 0.40888 0.0
H979 H 0.12345 0.49241 0.44307 0.0
C980 C 0.20172 0.35183 0.38039 0.0
C981 C 0.18793 0.32706 0.34724 0.0
C982 C 0.18023 0.37667 0.40485 0.0
C983 C 0.14427 0.37769 0.39665 0.0
C984 C 0.13038 0.35244 0.36435 0.0
C985 C 0.15186 0.32737 0.34031 0.0
C986 C 0.06543 0.42579 0.45697 0.0
C987 C 0.07835 0.4597 0.45976 0.0
C988 C 0.0869 0.39901 0.43789 0.0
C989 C 0.12168 0.40563 0.42012 0.0
C990 C 0.13444 0.43971 0.42312 0.0
C991 C 0.11302 0.46634 0.44247 0.0
H992 H 0.06878 0.05493 0.90744 0.0
H993 H 0.96401 0.0233 0.88 0.0
H994 H 0.06309 0.03061 1.00034 0.0
H995 H 0.95738 1.00035 0.97383 0.0
H996 H 0.9671 0.93247 0.12808 0.0
H997 H 0.97289 0.95594 0.03516 0.0
H998 H 0.03798 0.03835 0.08629 0.0
H999 H 0.0347 0.01308 0.17835 0.0
C1000 C 0.04436 0.04304 0.92163 0.0
C1001 C 0.01685 0.04098 0.88655 0.0
C1002 C 0.04094 0.02928 0.9751 0.0
C1003 C 0.00966 0.01357 0.99524 0.0
C1004 C 0.98209 0.01163 0.95986 0.0
C1005 C 0.98576 0.02491 0.90606 0.0
C1006 C 0.98314 0.95529 0.11954 0.0
C1007 C 1.00067 0.97056 0.16117 0.0
C1008 C 0.98598 0.96918 0.06607 0.0
C1009 C 0.00599 0.99913 0.05263 0.0
C1010 C 0.02285 0.01489 0.09451 0.0
C1011 C 0.02044 1.00069 0.14784 0.0
H1012 H 0.32346 0.70923 0.37152 0.0
H1013 H 0.25256 0.78683 0.43361 0.0
H1014 H 0.30105 0.71895 0.28182 0.0
H1015 H 0.22809 0.79439 0.34495 0.0
H1016 H 0.21591 0.82851 0.16845 0.0
H1017 H 0.23928 0.81886 0.25795 0.0
H1018 H 0.25478 0.71008 0.22679 0.0
H1019 H 0.23284 0.72044 0.13622 0.0
C1020 C 0.30301 0.72832 0.36626 0.0
C1021 C 0.29015 0.74741 0.4102 0.0
C1022 C 0.28967 0.73349 0.31471 0.0
C1023 C 0.26267 0.75755 0.3056 0.0
C1024 C 0.24929 0.77609 0.34982 0.0
C1025 C 0.26297 0.77128 0.40121 0.0
C1026 C 0.22434 0.80256 0.18089 0.0
C1027 C 0.22257 0.77523 0.14542 0.0
C1028 C 0.23755 0.7969 0.23242 0.0
C1029 C 0.24884 0.76358 0.25023 0.0
C1030 C 0.24696 0.73622 0.21449 0.0
C1031 C 0.23424 0.74206 0.16257 0.0
H1032 H 0.53934 0.03463 0.66348 0.0
H1033 H 0.42909 0.03157 0.63989 0.0
H1034 H 0.5509 0.01334 0.57208 0.0
H1035 H 0.44058 0.00962 0.54917 0.0
H1036 H 0.48121 0.92975 0.42184 0.0
H1037 H 0.46967 0.95203 0.51232 0.0
H1038 H 0.53879 0.03818 0.47105 0.0
H1039 H 0.54981 0.01623 0.37996 0.0
C1040 C 0.51765 0.02918 0.63882 0.0
C1041 C 0.48335 0.03474 0.65857 0.0
C1042 C 0.52424 0.01725 0.58657 0.0
C1043 C 0.49661 0.00991 0.55366 0.0
C1044 C 0.46232 0.01498 0.57379 0.0
C1045 C 0.45576 0.02762 0.6255 0.0
C1046 C 0.49383 0.95349 0.43213 0.0
C1047 C 0.51636 0.97132 0.39401 0.0
C1048 C 0.48716 0.96627 0.48371 0.0
C1049 C 0.50343 0.99674 0.49862 0.0
C1050 C 0.52609 0.01451 0.46061 0.0
C1051 C 0.5322 1.00212 0.40854 0.0
H1052 H 0.20828 0.18857 0.89178 0.0
H1053 H 0.23499 0.29451 0.92105 0.0
H1054 H 0.23183 0.19614 0.79867 0.0
H1055 H 0.25709 0.30297 0.82706 0.0
H1056 H 0.32523 0.29737 0.67242 0.0
H1057 H 0.302 0.29006 0.76523 0.0
H1058 H 0.22288 0.22139 0.71313 0.0
H1059 H 0.24806 0.22627 0.62109 0.0
C1060 C 0.21889 0.21365 0.87794 0.0
C1061 C 0.21984 0.24094 0.91361 0.0
C1062 C 0.2322 0.21814 0.82436 0.0
C1063 C 0.24632 0.25028 0.8047 0.0
C1064 C 0.24707 0.27765 0.84063 0.0
C1065 C 0.23427 0.27292 0.89454 0.0
C1066 C 0.30321 0.28025 0.68071 0.0
C1067 C 0.28889 0.26215 0.63882 0.0
C1068 C 0.28942 0.27651 0.73413 0.0
C1069 C 0.26048 0.25502 0.74728 0.0
C1070 C 0.24557 0.23765 0.70513 0.0
C1071 C 0.2597 0.24096 0.65182 0.0
H1072 H 0.77985 0.29317 0.91624 0.0
H1073 H 0.79659 0.18539 0.88195 0.0
H1074 H 0.75838 0.30439 0.82556 0.0
H1075 H 0.77367 0.19589 0.79231 0.0
H1076 H 0.7607 0.22911 0.61694 0.0
H1077 H 0.78495 0.22078 0.7057 0.0
H1078 H 0.71256 0.29647 0.76956 0.0
H1079 H 0.69041 0.30695 0.67988 0.0
C1080 C 0.77849 0.27179 0.88943 0.0
C1081 C 0.79 0.23846 0.90609 0.0
C1082 C 0.76604 0.27812 0.83741 0.0
C1083 C 0.76424 0.25111 0.80099 0.0
C1084 C 0.77535 0.21762 0.81832 0.0
C1085 C 0.7883 0.21147 0.86996 0.0
C1086 C 0.75038 0.24456 0.64953 0.0
C1087 C 0.7234 0.26869 0.64073 0.0
C1088 C 0.76394 0.2393 0.70099 0.0
C1089 C 0.75063 0.25766 0.74549 0.0
C1090 C 0.72389 0.28203 0.73653 0.0
C1091 C 0.71069 0.28764 0.68494 0.0
H1092 H 0.68584 0.71466 0.3776 0.0
H1093 H 0.76401 0.78465 0.42898 0.0
H1094 H 0.70906 0.72181 0.28477 0.0
H1095 H 0.78915 0.78934 0.3369 0.0
H1096 H 0.80426 0.82198 0.1583 0.0
H1097 H 0.78054 0.81474 0.25136 0.0
H1098 H 0.75377 0.70829 0.22297 0.0
H1099 H 0.77607 0.71644 0.12904 0.0
C1100 C 0.70808 0.73151 0.36932 0.0
C1101 C 0.7227 0.74933 0.41124 0.0
C1102 C 0.72185 0.73515 0.31588 0.0
C1103 C 0.75107 0.75626 0.30274 0.0
C1104 C 0.76625 0.77337 0.3449 0.0
C1105 C 0.75214 0.77016 0.39823 0.0
C1106 C 0.79327 0.79707 0.17212 0.0
C1107 C 0.79197 0.76979 0.13647 0.0
C1108 C 0.77986 0.79276 0.22567 0.0
C1109 C 0.76529 0.76082 0.24533 0.0
C1110 C 0.76416 0.73348 0.2094 0.0
C1111 C 0.77707 0.73803 0.15553 0.0
H1112 H 0.43724 0.46224 0.6404 0.0
H1113 H 0.54354 0.4864 0.67133 0.0
H1114 H 0.44586 0.48553 0.5473 0.0
H1115 H 0.553 0.50826 0.57734 0.0
H1116 H 0.54999 0.57591 0.42162 0.0
H1117 H 0.54152 0.5533 0.51465 0.0
H1118 H 0.4714 0.47552 0.46238 0.0
H1119 H 0.47747 0.50013 0.37006 0.0
C1120 C 0.4626 0.47226 0.62695 0.0
C1121 C 0.48971 0.47252 0.66306 0.0
C1122 C 0.4677 0.48541 0.57337 0.0
C1123 C 0.50025 0.49869 0.55414 0.0
C1124 C 0.52739 0.49887 0.59056 0.0
C1125 C 0.52208 0.48621 0.64447 0.0
C1126 C 0.5323 0.55432 0.42991 0.0
C1127 C 0.51418 0.54021 0.38787 0.0
C1128 C 0.52789 0.54089 0.48346 0.0
C1129 C 0.50566 0.51251 0.49663 0.0
C1130 C 0.48823 0.4978 0.45436 0.0
C1131 C 0.49222 0.51159 0.4009 0.0
H1132 H 0.05746 0.43758 0.93305 0.0
H1133 H 0.97814 0.50626 0.87026 0.0
H1134 H 0.0463 0.45923 1.02289 0.0
H1135 H 0.9691 0.53005 0.95913 0.0
H1136 H 0.93295 0.54055 0.13498 0.0
H1137 H 0.94426 0.51793 0.04539 0.0
H1138 H 0.05286 0.50497 0.07954 0.0
H1139 H 0.04085 0.52612 0.17023 0.0
C1140 C 0.03769 0.4574 0.93816 0.0
C1141 C 0.01853 0.46979 0.89395 0.0
C1142 C 0.03167 0.47031 0.98986 0.0
C1143 C 0.00665 0.49645 0.99891 0.0
C1144 C 0.9881 0.50947 0.95438 0.0
C1145 C 0.99377 0.49619 0.90284 0.0
C1146 C 0.95922 0.53281 0.12322 0.0
C1147 C 0.98601 0.5351 0.15959 0.0
C1148 C 0.96584 0.52004 0.07159 0.0
C1149 C 0.9996 0.50972 0.0545 0.0
C1150 C 0.02641 0.51204 0.09119 0.0
C1151 C 0.01962 0.5243 0.14322 0.0
loop_
_geom_bond_atom_site_label_1
_geom_bond_atom_site_label_2
_geom_bond_distance
_geom_bond_site_symmetry_2
_ccdc_geom_bond_type
Gd0 N31 2.662 1_655 S
Gd0 N37 2.601 1_655 S
Gd0 O44 2.544 . S
Gd0 O45 2.605 1_545 S
Gd0 O47 2.427 . S
Gd0 O48 2.543 1_545 S
Gd0 O49 2.413 1_655 S
Gd0 O51 2.363 1_655 S
Gd0 O52 2.325 1_645 S
Gd0 C59 2.828 . S
Gd1 N10 2.655 1_455 S
Gd1 N14 2.601 1_455 S
Gd1 O45 2.360 1_455 S
Gd1 O46 2.320 1_465 S
Gd1 O50 2.548 . S
Gd1 O51 2.608 1_565 S
Gd1 O53 2.433 . S
Gd1 O54 2.548 1_565 S
Gd1 O55 2.411 1_455 S
Gd1 C68 2.829 . S
C2 C5 1.417 . S
C2 C7 1.431 . S
C2 C8 1.412 . S
C3 C6 1.437 . S
C3 C7 1.317 . S
C3 H22 0.929 . S
C4 C5 1.426 . S
C4 C6 1.413 . S
C4 N14 1.359 . S
C5 C2 1.417 . S
C5 C4 1.426 . S
C5 N10 1.350 . S
C6 C3 1.437 . S
C6 C4 1.413 . S
C6 C16 1.418 . S
C7 C2 1.431 . S
C7 C3 1.317 . S
C7 H18 0.930 . S
C8 C2 1.412 . S
C8 C9 1.355 . S
C8 H20 0.930 . S
C9 C8 1.355 . S
C9 C11 1.402 . S
C9 H21 0.930 . S
N10 Gd1 2.655 1_655 S
N10 C5 1.350 . S
N10 C11 1.307 . S
C11 C9 1.402 . S
C11 N10 1.307 . S
C11 H12 0.930 . S
H12 C11 0.930 . S
C13 N14 1.334 1_455 S
C13 C15 1.394 . S
C13 H17 0.930 . S
N14 Gd1 2.601 1_655 S
N14 C4 1.359 . S
N14 C13 1.334 1_655 S
C15 C13 1.394 . S
C15 C16 1.333 1_455 S
C15 H27 0.930 . S
C16 C6 1.418 . S
C16 C15 1.333 1_655 S
C16 H28 0.929 . S
H17 C13 0.930 . S
H18 C7 0.930 . S
H19 C36 0.930 . S
H20 C8 0.930 . S
H21 C9 0.930 . S
H22 C3 0.929 . S
H23 C41 0.930 . S
H24 C32 0.930 . S
H25 C33 0.930 . S
H26 C57 0.929 . S
H27 C15 0.930 . S
H28 C16 0.929 . S
H29 C58 0.930 . S
H30 C39 0.930 . S
N31 Gd0 2.662 1_455 S
N31 C35 1.350 . S
N31 C36 1.307 . S
C32 H24 0.930 . S
C32 C33 1.355 . S
C32 C34 1.412 . S
C33 H25 0.930 . S
C33 C32 1.355 . S
C33 C36 1.402 . S
C34 C32 1.412 . S
C34 C35 1.417 . S
C34 C58 1.431 . S
C35 N31 1.350 . S
C35 C34 1.417 . S
C35 C38 1.426 . S
C36 H19 0.930 . S
C36 N31 1.307 . S
C36 C33 1.402 . S
N37 Gd0 2.601 1_455 S
N37 C38 1.359 . S
N37 C41 1.334 1_455 S
C38 C35 1.426 . S
C38 N37 1.359 . S
C38 C42 1.413 . S
C39 H30 0.930 . S
C39 C40 1.359 1_655 S
C39 C41 1.394 . S
C40 C39 1.359 1_455 S
C40 C42 1.391 . S
C40 H43 0.930 . S
C41 H23 0.930 . S
C41 N37 1.334 1_655 S
C41 C39 1.394 . S
C42 C38 1.413 . S
C42 C40 1.391 . S
C42 C57 1.437 . S
H43 C40 0.930 . S
O44 Gd0 2.544 . S
O44 C59 1.258 . S
O45 Gd0 2.605 1_565 S
O45 Gd1 2.360 1_655 S
O45 C56 1.284 . S
O46 Gd1 2.320 1_645 S
O46 C66 1.254 . S
O47 Gd0 2.427 . S
O47 C66 1.268 . S
O48 Gd0 2.543 1_565 S
O48 C56 1.250 . S
O49 Gd0 2.413 1_455 S
O49 C59 1.252 1_455 S
O50 Gd1 2.548 . S
O50 C68 1.258 . S
O51 Gd0 2.363 1_455 S
O51 Gd1 2.608 1_545 S
O51 C67 1.284 . S
O52 Gd0 2.325 1_465 S
O52 C75 1.254 . S
O53 Gd1 2.433 . S
O53 C75 1.268 . S
O54 Gd1 2.548 1_545 S
O54 C67 1.250 . S
O55 Gd1 2.411 1_655 S
O55 C68 1.252 1_655 S
C56 O45 1.284 . S
C56 O48 1.250 . S
C57 H26 0.929 . S
C57 C42 1.437 . S
C57 C58 1.317 . S
C58 H29 0.930 . S
C58 C34 1.431 . S
C58 C57 1.317 . S
C59 Gd0 2.828 . S
C59 O44 1.258 . S
C59 O49 1.252 1_655 S
C59 C60 1.497 . S
C60 C59 1.497 . S
C60 C61 1.395 . S
C60 C62 1.380 . S
C61 C60 1.395 . S
C61 C64 1.398 . S
C61 H76 0.930 . S
C62 C60 1.380 . S
C62 C63 1.391 . S
C62 H77 0.930 1_645 S
C63 C62 1.391 . S
C63 C65 1.387 . S
C64 C61 1.398 . S
C64 C65 1.380 . S
C64 H78 0.930 . S
C65 C63 1.387 . S
C65 C64 1.380 . S
C65 H79 0.930 . S
C66 O46 1.254 . S
C66 O47 1.268 . S
C67 O51 1.284 . S
C67 O54 1.250 . S
C68 Gd1 2.829 . S
C68 O50 1.258 . S
C68 O55 1.252 1_455 S
C68 C69 1.497 . S
C69 C68 1.497 . S
C69 C70 1.395 . S
C69 C71 1.380 . S
C70 C69 1.395 . S
C70 C73 1.398 . S
C70 H80 0.930 . S
C71 C69 1.380 . S
C71 C72 1.391 . S
C71 H81 0.930 1_465 S
C72 C71 1.391 . S
C72 C74 1.387 . S
C73 C70 1.398 . S
C73 C74 1.380 . S
C73 H82 0.930 . S
C74 C72 1.387 . S
C74 C73 1.380 . S
C74 H83 0.930 . S
C75 O52 1.254 . S
C75 O53 1.268 . S
H76 C61 0.930 . S
H77 C62 0.930 1_465 S
H78 C64 0.930 . S
H79 C65 0.930 . S
H80 C70 0.930 . S
H81 C71 0.930 1_645 S
H82 C73 0.930 . S
H83 C74 0.930 . S
Gd84 N115 2.661 . S
Gd84 N121 2.601 . S
Gd84 O128 2.545 . S
Gd84 O129 2.606 . S
Gd84 O131 2.429 . S
Gd84 O132 2.545 . S
Gd84 O133 2.412 . S
Gd84 O135 2.362 . S
Gd84 O136 2.324 . S
Gd84 C143 2.828 . S
Gd85 N94 2.661 . S
Gd85 N98 2.601 . S
Gd85 O129 2.362 . S
Gd85 O130 2.324 . S
Gd85 O134 2.545 . S
Gd85 O135 2.606 . S
Gd85 O137 2.429 . S
Gd85 O138 2.545 . S
Gd85 O139 2.412 . S
Gd85 C152 2.828 . S
C86 C89 1.417 . S
C86 C91 1.431 . S
C86 C92 1.412 . S
C87 C90 1.437 . S
C87 C91 1.317 . S
C87 H106 0.929 . S
C88 C89 1.426 . S
C88 C90 1.413 . S
C88 N98 1.359 . S
C89 C86 1.417 . S
C89 C88 1.426 . S
C89 N94 1.350 . S
C90 C87 1.437 . S
C90 C88 1.413 . S
C90 C100 1.391 . S
C91 C86 1.431 . S
C91 C87 1.317 . S
C91 H102 0.930 . S
C92 C86 1.412 . S
C92 C93 1.355 . S
C92 H104 0.930 . S
C93 C92 1.355 . S
C93 C95 1.402 . S
C93 H105 0.930 . S
N94 Gd85 2.661 . S
N94 C89 1.350 . S
N94 C95 1.307 . S
C95 C93 1.402 . S
C95 N94 1.307 . S
C95 H96 0.930 . S
H96 C95 0.930 . S
C97 N98 1.334 . S
C97 C99 1.394 . S
C97 H101 0.930 . S
N98 Gd85 2.601 . S
N98 C88 1.359 . S
N98 C97 1.334 . S
C99 C97 1.394 . S
C99 C100 1.359 . S
C99 H111 0.930 . S
C100 C90 1.391 . S
C100 C99 1.359 . S
C100 H112 0.929 . S
H101 C97 0.930 . S
H102 C91 0.930 . S
H103 C120 0.930 . S
H104 C92 0.930 . S
H105 C93 0.930 . S
H106 C87 0.929 . S
H107 C125 0.930 . S
H108 C116 0.930 . S
H109 C117 0.930 . S
H110 C141 0.929 . S
H111 C99 0.930 . S
H112 C100 0.929 . S
H113 C142 0.930 . S
H114 C123 0.930 . S
N115 Gd84 2.661 . S
N115 C119 1.350 . S
N115 C120 1.307 . S
C116 H108 0.930 . S
C116 C117 1.355 . S
C116 C118 1.412 . S
C117 H109 0.930 . S
C117 C116 1.355 . S
C117 C120 1.402 . S
C118 C116 1.412 . S
C118 C119 1.417 . S
C118 C142 1.431 . S
C119 N115 1.350 . S
C119 C118 1.417 . S
C119 C122 1.426 . S
C120 H103 0.930 . S
C120 N115 1.307 . S
C120 C117 1.402 . S
N121 Gd84 2.601 . S
N121 C122 1.359 . S
N121 C125 1.334 . S
C122 C119 1.426 . S
C122 N121 1.359 . S
C122 C126 1.413 . S
C123 H114 0.930 . S
C123 C124 1.359 . S
C123 C125 1.394 . S
C124 C123 1.359 . S
C124 C126 1.391 . S
C124 H127 0.929 . S
C125 H107 0.930 . S
C125 N121 1.334 . S
C125 C123 1.394 . S
C126 C122 1.413 . S
C126 C124 1.391 . S
C126 C141 1.437 . S
H127 C124 0.929 . S
O128 Gd84 2.545 . S
O128 C143 1.258 . S
O129 Gd84 2.606 . S
O129 Gd85 2.362 . S
O129 C140 1.284 . S
O130 Gd85 2.324 . S
O130 C150 1.254 . S
O131 Gd84 2.429 . S
O131 C150 1.268 . S
O132 Gd84 2.545 . S
O132 C140 1.250 . S
O133 Gd84 2.412 . S
O133 C143 1.252 . S
O134 Gd85 2.545 . S
O134 C152 1.258 . S
O135 Gd84 2.362 . S
O135 Gd85 2.606 . S
O135 C151 1.284 . S
O136 Gd84 2.324 . S
O136 C159 1.254 . S
O137 Gd85 2.429 . S
O137 C159 1.268 . S
O138 Gd85 2.545 . S
O138 C151 1.250 . S
O139 Gd85 2.412 . S
O139 C152 1.252 . S
C140 O129 1.284 . S
C140 O132 1.250 . S
C141 H110 0.929 . S
C141 C126 1.437 . S
C141 C142 1.317 . S
C142 H113 0.930 . S
C142 C118 1.431 . S
C142 C141 1.317 . S
C143 Gd84 2.828 . S
C143 O128 1.258 . S
C143 O133 1.252 . S
C143 C144 1.497 . S
C144 C143 1.497 . S
C144 C145 1.395 1_556 S
C144 C146 1.380 1_556 S
C145 C144 1.395 1_554 S
C145 C148 1.398 . S
C145 H160 0.930 1_554 S
C146 C144 1.380 1_554 S
C146 C147 1.391 . S
C146 H161 0.930 1_554 S
C147 C146 1.391 . S
C147 C149 1.387 . S
C148 C145 1.398 . S
C148 C149 1.380 . S
C148 H162 0.930 . S
C149 C147 1.387 . S
C149 C148 1.380 . S
C149 H163 0.930 . S
C150 O130 1.254 . S
C150 O131 1.268 . S
C151 O135 1.284 . S
C151 O138 1.250 . S
C152 Gd85 2.828 . S
C152 O134 1.258 . S
C152 O139 1.252 . S
C152 C153 1.497 . S
C153 C152 1.497 . S
C153 C154 1.395 . S
C153 C155 1.380 . S
C154 C153 1.395 . S
C154 C157 1.398 . S
C154 H164 0.930 . S
C155 C153 1.380 . S
C155 C156 1.391 . S
C155 H165 0.930 . S
C156 C155 1.391 . S
C156 C158 1.387 . S
C157 C154 1.398 . S
C157 C158 1.380 . S
C157 H166 0.930 . S
C158 C156 1.387 . S
C158 C157 1.380 . S
C158 H167 0.930 . S
C159 O136 1.254 . S
C159 O137 1.268 . S
H160 C145 0.930 1_556 S
H161 C146 0.930 1_556 S
H162 C148 0.930 . S
H163 C149 0.930 . S
H164 C154 0.930 . S
H165 C155 0.930 . S
H166 C157 0.930 . S
H167 C158 0.930 . S
Gd168 N199 2.661 . S
Gd168 N205 2.601 . S
Gd168 O212 2.545 . S
Gd168 O213 2.606 1_545 S
Gd168 O215 2.429 . S
Gd168 O216 2.545 1_545 S
Gd168 O217 2.412 . S
Gd168 O219 2.362 1_556 S
Gd168 O220 2.324 1_545 S
Gd168 C227 2.828 . S
Gd169 N178 2.661 . S
Gd169 N182 2.601 . S
Gd169 O213 2.362 1_554 S
Gd169 O214 2.324 1_565 S
Gd169 O218 2.545 . S
Gd169 O219 2.606 1_565 S
Gd169 O221 2.429 . S
Gd169 O222 2.545 1_565 S
Gd169 O223 2.412 . S
Gd169 C236 2.828 . S
C170 C173 1.417 . S
C170 C175 1.431 . S
C170 C176 1.412 . S
C171 C174 1.437 . S
C171 C175 1.317 . S
C171 H190 0.929 . S
C172 C173 1.426 . S
C172 C174 1.413 . S
C172 N182 1.359 . S
C173 C170 1.417 . S
C173 C172 1.426 . S
C173 N178 1.350 . S
C174 C171 1.437 . S
C174 C172 1.413 . S
C174 C184 1.391 . S
C175 C170 1.431 . S
C175 C171 1.317 . S
C175 H186 0.930 . S
C176 C170 1.412 . S
C176 C177 1.355 . S
C176 H188 0.930 . S
C177 C176 1.355 . S
C177 C179 1.402 . S
C177 H189 0.930 . S
N178 Gd169 2.661 . S
N178 C173 1.350 . S
N178 C179 1.307 . S
C179 C177 1.402 . S
C179 N178 1.307 . S
C179 H180 0.930 . S
H180 C179 0.930 . S
C181 N182 1.334 . S
C181 C183 1.394 . S
C181 H185 0.930 . S
N182 Gd169 2.601 . S
N182 C172 1.359 . S
N182 C181 1.334 . S
C183 C181 1.394 . S
C183 C184 1.359 . S
C183 H195 0.930 . S
C184 C174 1.391 . S
C184 C183 1.359 . S
C184 H196 0.929 . S
H185 C181 0.930 . S
H186 C175 0.930 . S
H187 C204 0.930 . S
H188 C176 0.930 . S
H189 C177 0.930 . S
H190 C171 0.929 . S
H191 C209 0.930 . S
H192 C200 0.930 . S
H193 C201 0.930 . S
H194 C225 0.929 . S
H195 C183 0.930 . S
H196 C184 0.929 . S
H197 C226 0.930 . S
H198 C207 0.930 . S
N199 Gd168 2.661 . S
N199 C203 1.350 . S
N199 C204 1.307 . S
C200 H192 0.930 . S
C200 C201 1.355 . S
C200 C202 1.412 . S
C201 H193 0.930 . S
C201 C200 1.355 . S
C201 C204 1.402 . S
C202 C200 1.412 . S
C202 C203 1.417 . S
C202 C226 1.431 . S
C203 N199 1.350 . S
C203 C202 1.417 . S
C203 C206 1.426 . S
C204 H187 0.930 . S
C204 N199 1.307 . S
C204 C201 1.402 . S
N205 Gd168 2.601 . S
N205 C206 1.359 . S
N205 C209 1.334 . S
C206 C203 1.426 . S
C206 N205 1.359 . S
C206 C210 1.413 . S
C207 H198 0.930 . S
C207 C208 1.359 . S
C207 C209 1.394 . S
C208 C207 1.359 . S
C208 C210 1.391 . S
C208 H211 0.929 . S
C209 H191 0.930 . S
C209 N205 1.334 . S
C209 C207 1.394 . S
C210 C206 1.413 . S
C210 C208 1.391 . S
C210 C225 1.437 . S
H211 C208 0.929 . S
O212 Gd168 2.545 . S
O212 C227 1.258 . S
O213 Gd168 2.606 1_565 S
O213 Gd169 2.362 1_556 S
O213 C224 1.284 . S
O214 Gd169 2.324 1_545 S
O214 C234 1.254 . S
O215 Gd168 2.429 . S
O215 C234 1.268 1_556 S
O216 Gd168 2.545 1_565 S
O216 C224 1.250 . S
O217 Gd168 2.412 . S
O217 C227 1.252 . S
O218 Gd169 2.545 . S
O218 C236 1.258 . S
O219 Gd168 2.362 1_554 S
O219 Gd169 2.606 1_545 S
O219 C235 1.284 . S
O220 Gd168 2.324 1_565 S
O220 C243 1.254 . S
O221 Gd169 2.429 . S
O221 C243 1.268 1_554 S
O222 Gd169 2.545 1_545 S
O222 C235 1.250 . S
O223 Gd169 2.412 . S
O223 C236 1.252 . S
C224 O213 1.284 . S
C224 O216 1.250 . S
C225 H194 0.929 . S
C225 C210 1.437 . S
C225 C226 1.317 . S
C226 H197 0.930 . S
C226 C202 1.431 . S
C226 C225 1.317 . S
C227 Gd168 2.828 . S
C227 O212 1.258 . S
C227 O217 1.252 . S
C227 C228 1.497 . S
C228 C227 1.497 . S
C228 C229 1.395 . S
C228 C230 1.380 . S
C229 C228 1.395 . S
C229 C232 1.398 . S
C229 H244 0.930 . S
C230 C228 1.380 . S
C230 C231 1.391 . S
C230 H245 0.930 1_545 S
C231 C230 1.391 . S
C231 C233 1.387 . S
C232 C229 1.398 . S
C232 C233 1.380 . S
C232 H246 0.930 . S
C233 C231 1.387 . S
C233 C232 1.380 . S
C233 H247 0.930 . S
C234 O214 1.254 . S
C234 O215 1.268 1_554 S
C235 O219 1.284 . S
C235 O222 1.250 . S
C236 Gd169 2.828 . S
C236 O218 1.258 . S
C236 O223 1.252 . S
C236 C237 1.497 . S
C237 C236 1.497 . S
C237 C238 1.395 . S
C237 C239 1.380 . S
C238 C237 1.395 . S
C238 C241 1.398 . S
C238 H248 0.930 . S
C239 C237 1.380 . S
C239 C240 1.391 . S
C239 H249 0.930 1_565 S
C240 C239 1.391 . S
C240 C242 1.387 . S
C241 C238 1.398 . S
C241 C242 1.380 . S
C241 H250 0.930 . S
C242 C240 1.387 . S
C242 C241 1.380 . S
C242 H251 0.930 . S
C243 O220 1.254 . S
C243 O221 1.268 1_556 S
H244 C229 0.930 . S
H245 C230 0.930 1_565 S
H246 C232 0.930 . S
H247 C233 0.930 . S
H248 C238 0.930 . S
H249 C239 0.930 1_545 S
H250 C241 0.930 . S
H251 C242 0.930 . S
Gd252 N283 2.661 . S
Gd252 N289 2.601 . S
Gd252 O296 2.545 . S
Gd252 O297 2.606 . S
Gd252 O299 2.429 . S
Gd252 O300 2.545 . S
Gd252 O301 2.412 . S
Gd252 O303 2.362 . S
Gd252 O304 2.324 . S
Gd252 C311 2.828 . S
Gd253 N262 2.661 . S
Gd253 N266 2.601 . S
Gd253 O297 2.362 . S
Gd253 O298 2.324 . S
Gd253 O302 2.545 . S
Gd253 O303 2.606 . S
Gd253 O305 2.429 . S
Gd253 O306 2.545 . S
Gd253 O307 2.412 . S
Gd253 C320 2.828 . S
C254 C257 1.417 . S
C254 C259 1.431 . S
C254 C260 1.412 . S
C255 C258 1.437 . S
C255 C259 1.317 . S
C255 H274 0.929 . S
C256 C257 1.426 . S
C256 C258 1.413 . S
C256 N266 1.359 . S
C257 C254 1.417 . S
C257 C256 1.426 . S
C257 N262 1.350 . S
C258 C255 1.437 . S
C258 C256 1.413 . S
C258 C268 1.391 . S
C259 C254 1.431 . S
C259 C255 1.317 . S
C259 H270 0.930 . S
C260 C254 1.412 . S
C260 C261 1.355 . S
C260 H272 0.930 . S
C261 C260 1.355 . S
C261 C263 1.402 . S
C261 H273 0.930 . S
N262 Gd253 2.661 . S
N262 C257 1.350 . S
N262 C263 1.307 . S
C263 C261 1.402 . S
C263 N262 1.307 . S
C263 H264 0.930 . S
H264 C263 0.930 . S
C265 N266 1.334 . S
C265 C267 1.394 . S
C265 H269 0.930 . S
N266 Gd253 2.601 . S
N266 C256 1.359 . S
N266 C265 1.334 . S
C267 C265 1.394 . S
C267 C268 1.359 . S
C267 H279 0.930 . S
C268 C258 1.391 . S
C268 C267 1.359 . S
C268 H280 0.929 . S
H269 C265 0.930 . S
H270 C259 0.930 . S
H271 C288 0.930 . S
H272 C260 0.930 . S
H273 C261 0.930 . S
H274 C255 0.929 . S
H275 C293 0.930 . S
H276 C284 0.930 . S
H277 C285 0.930 . S
H278 C309 0.929 . S
H279 C267 0.930 . S
H280 C268 0.929 . S
H281 C310 0.930 . S
H282 C291 0.930 . S
N283 Gd252 2.661 . S
N283 C287 1.350 . S
N283 C288 1.307 . S
C284 H276 0.930 . S
C284 C285 1.355 . S
C284 C286 1.412 . S
C285 H277 0.930 . S
C285 C284 1.355 . S
C285 C288 1.402 . S
C286 C284 1.412 . S
C286 C287 1.417 . S
C286 C310 1.431 . S
C287 N283 1.350 . S
C287 C286 1.417 . S
C287 C290 1.426 . S
C288 H271 0.930 . S
C288 N283 1.307 . S
C288 C285 1.402 . S
N289 Gd252 2.601 . S
N289 C290 1.359 . S
N289 C293 1.334 . S
C290 C287 1.426 . S
C290 N289 1.359 . S
C290 C294 1.413 . S
C291 H282 0.930 . S
C291 C292 1.359 . S
C291 C293 1.394 . S
C292 C291 1.359 . S
C292 C294 1.391 . S
C292 H295 0.929 . S
C293 H275 0.930 . S
C293 N289 1.334 . S
C293 C291 1.394 . S
C294 C290 1.413 . S
C294 C292 1.391 . S
C294 C309 1.437 . S
H295 C292 0.929 . S
O296 Gd252 2.545 . S
O296 C311 1.258 . S
O297 Gd252 2.606 . S
O297 Gd253 2.362 . S
O297 C308 1.284 . S
O298 Gd253 2.324 . S
O298 C318 1.254 . S
O299 Gd252 2.429 . S
O299 C318 1.268 . S
O300 Gd252 2.545 . S
O300 C308 1.250 . S
O301 Gd252 2.412 . S
O301 C311 1.252 . S
O302 Gd253 2.545 . S
O302 C320 1.258 . S
O303 Gd252 2.362 . S
O303 Gd253 2.606 . S
O303 C319 1.284 . S
O304 Gd252 2.324 . S
O304 C327 1.254 . S
O305 Gd253 2.429 . S
O305 C327 1.268 . S
O306 Gd253 2.545 . S
O306 C319 1.250 . S
O307 Gd253 2.412 . S
O307 C320 1.252 . S
C308 O297 1.284 . S
C308 O300 1.250 . S
C309 H278 0.929 . S
C309 C294 1.437 . S
C309 C310 1.317 . S
C310 H281 0.930 . S
C310 C286 1.431 . S
C310 C309 1.317 . S
C311 Gd252 2.828 . S
C311 O296 1.258 . S
C311 O301 1.252 . S
C311 C312 1.497 . S
C312 C311 1.497 . S
C312 C313 1.395 1_554 S
C312 C314 1.380 1_554 S
C313 C312 1.395 1_556 S
C313 C316 1.398 . S
C313 H328 0.930 1_556 S
C314 C312 1.380 1_556 S
C314 C315 1.391 . S
C314 H329 0.930 1_556 S
C315 C314 1.391 . S
C315 C317 1.387 . S
C316 C313 1.398 . S
C316 C317 1.380 . S
C316 H330 0.930 . S
C317 C315 1.387 . S
C317 C316 1.380 . S
C317 H331 0.930 . S
C318 O298 1.254 . S
C318 O299 1.268 . S
C319 O303 1.284 . S
C319 O306 1.250 . S
C320 Gd253 2.828 . S
C320 O302 1.258 . S
C320 O307 1.252 . S
C320 C321 1.497 . S
C321 C320 1.497 . S
C321 C322 1.395 . S
C321 C323 1.380 . S
C322 C321 1.395 . S
C322 C325 1.398 . S
C322 H332 0.930 . S
C323 C321 1.380 . S
C323 C324 1.391 . S
C323 H333 0.930 . S
C324 C323 1.391 . S
C324 C326 1.387 . S
C325 C322 1.398 . S
C325 C326 1.380 . S
C325 H334 0.930 . S
C326 C324 1.387 . S
C326 C325 1.380 . S
C326 H335 0.930 . S
C327 O304 1.254 . S
C327 O305 1.268 . S
H328 C313 0.930 1_554 S
H329 C314 0.930 1_554 S
H330 C316 0.930 . S
H331 C317 0.930 . S
H332 C322 0.930 . S
H333 C323 0.930 . S
H334 C325 0.930 . S
H335 C326 0.930 . S
Gd336 N367 2.661 . S
Gd336 N373 2.601 . S
Gd336 O380 2.545 . S
Gd336 O381 2.606 . S
Gd336 O383 2.429 . S
Gd336 O384 2.545 . S
Gd336 O385 2.412 . S
Gd336 O387 2.362 . S
Gd336 O388 2.324 . S
Gd336 C395 2.828 . S
Gd337 N346 2.661 . S
Gd337 N350 2.601 . S
Gd337 O381 2.362 . S
Gd337 O382 2.324 . S
Gd337 O386 2.545 . S
Gd337 O387 2.606 . S
Gd337 O389 2.429 . S
Gd337 O390 2.545 . S
Gd337 O391 2.412 . S
Gd337 C404 2.828 . S
C338 C341 1.417 . S
C338 C343 1.431 . S
C338 C344 1.412 . S
C339 C342 1.437 . S
C339 C343 1.317 . S
C339 H358 0.929 . S
C340 C341 1.426 . S
C340 C342 1.413 . S
C340 N350 1.359 . S
C341 C338 1.417 . S
C341 C340 1.426 . S
C341 N346 1.350 . S
C342 C339 1.437 . S
C342 C340 1.413 . S
C342 C352 1.391 . S
C343 C338 1.431 . S
C343 C339 1.317 . S
C343 H354 0.930 . S
C344 C338 1.412 . S
C344 C345 1.355 . S
C344 H356 0.930 . S
C345 C344 1.355 . S
C345 C347 1.402 . S
C345 H357 0.930 . S
N346 Gd337 2.661 . S
N346 C341 1.350 . S
N346 C347 1.307 . S
C347 C345 1.402 . S
C347 N346 1.307 . S
C347 H348 0.930 . S
H348 C347 0.930 . S
C349 N350 1.334 . S
C349 C351 1.394 . S
C349 H353 0.930 . S
N350 Gd337 2.601 . S
N350 C340 1.359 . S
N350 C349 1.334 . S
C351 C349 1.394 . S
C351 C352 1.359 . S
C351 H363 0.930 . S
C352 C342 1.391 . S
C352 C351 1.359 . S
C352 H364 0.929 . S
H353 C349 0.930 . S
H354 C343 0.930 . S
H355 C372 0.930 . S
H356 C344 0.930 . S
H357 C345 0.930 . S
H358 C339 0.929 . S
H359 C377 0.930 . S
H360 C368 0.930 . S
H361 C369 0.930 . S
H362 C393 0.929 . S
H363 C351 0.930 . S
H364 C352 0.929 . S
H365 C394 0.930 . S
H366 C375 0.930 . S
N367 Gd336 2.661 . S
N367 C371 1.350 . S
N367 C372 1.307 . S
C368 H360 0.930 . S
C368 C369 1.355 . S
C368 C370 1.412 . S
C369 H361 0.930 . S
C369 C368 1.355 . S
C369 C372 1.402 . S
C370 C368 1.412 . S
C370 C371 1.417 . S
C370 C394 1.431 . S
C371 N367 1.350 . S
C371 C370 1.417 . S
C371 C374 1.426 . S
C372 H355 0.930 . S
C372 N367 1.307 . S
C372 C369 1.402 . S
N373 Gd336 2.601 . S
N373 C374 1.359 . S
N373 C377 1.334 . S
C374 C371 1.426 . S
C374 N373 1.359 . S
C374 C378 1.413 . S
C375 H366 0.930 . S
C375 C376 1.359 . S
C375 C377 1.394 . S
C376 C375 1.359 . S
C376 C378 1.391 . S
C376 H379 0.929 . S
C377 H359 0.930 . S
C377 N373 1.334 . S
C377 C375 1.394 . S
C378 C374 1.413 . S
C378 C376 1.391 . S
C378 C393 1.437 . S
H379 C376 0.929 . S
O380 Gd336 2.545 . S
O380 C395 1.258 . S
O381 Gd336 2.606 . S
O381 Gd337 2.362 . S
O381 C392 1.284 . S
O382 Gd337 2.324 . S
O382 C402 1.254 . S
O383 Gd336 2.429 . S
O383 C402 1.268 . S
O384 Gd336 2.545 . S
O384 C392 1.250 . S
O385 Gd336 2.412 . S
O385 C395 1.252 . S
O386 Gd337 2.545 . S
O386 C404 1.258 . S
O387 Gd336 2.362 . S
O387 Gd337 2.606 . S
O387 C403 1.284 . S
O388 Gd336 2.324 . S
O388 C411 1.254 . S
O389 Gd337 2.429 . S
O389 C411 1.268 . S
O390 Gd337 2.545 . S
O390 C403 1.250 . S
O391 Gd337 2.412 . S
O391 C404 1.252 . S
C392 O381 1.284 . S
C392 O384 1.250 . S
C393 H362 0.929 . S
C393 C378 1.437 . S
C393 C394 1.317 . S
C394 H365 0.930 . S
C394 C370 1.431 . S
C394 C393 1.317 . S
C395 Gd336 2.828 . S
C395 O380 1.258 . S
C395 O385 1.252 . S
C395 C396 1.497 . S
C396 C395 1.497 . S
C396 C397 1.395 . S
C396 C398 1.380 . S
C397 C396 1.395 . S
C397 C400 1.398 . S
C397 H412 0.930 . S
C398 C396 1.380 . S
C398 C399 1.391 . S
C398 H413 0.930 . S
C399 C398 1.391 . S
C399 C401 1.387 . S
C400 C397 1.398 . S
C400 C401 1.380 . S
C400 H414 0.930 . S
C401 C399 1.387 . S
C401 C400 1.380 . S
C401 H415 0.930 . S
C402 O382 1.254 . S
C402 O383 1.268 . S
C403 O387 1.284 . S
C403 O390 1.250 . S
C404 Gd337 2.828 . S
C404 O386 1.258 . S
C404 O391 1.252 . S
C404 C405 1.497 . S
C405 C404 1.497 . S
C405 C406 1.395 1_554 S
C405 C407 1.380 1_554 S
C406 C405 1.395 1_556 S
C406 C409 1.398 . S
C406 H416 0.930 1_556 S
C407 C405 1.380 1_556 S
C407 C408 1.391 . S
C407 H417 0.930 1_556 S
C408 C407 1.391 . S
C408 C410 1.387 . S
C409 C406 1.398 . S
C409 C410 1.380 . S
C409 H418 0.930 . S
C410 C408 1.387 . S
C410 C409 1.380 . S
C410 H419 0.930 . S
C411 O388 1.254 . S
C411 O389 1.268 . S
H412 C397 0.930 . S
H413 C398 0.930 . S
H414 C400 0.930 . S
H415 C401 0.930 . S
H416 C406 0.930 1_554 S
H417 C407 0.930 1_554 S
H418 C409 0.930 . S
H419 C410 0.930 . S
Gd420 N451 2.661 . S
Gd420 N457 2.601 . S
Gd420 O464 2.545 . S
Gd420 O465 2.606 . S
Gd420 O467 2.429 . S
Gd420 O468 2.545 . S
Gd420 O469 2.412 . S
Gd420 O471 2.362 . S
Gd420 O472 2.324 . S
Gd420 C479 2.828 . S
Gd421 N430 2.661 . S
Gd421 N434 2.601 . S
Gd421 O465 2.362 . S
Gd421 O466 2.324 . S
Gd421 O470 2.545 . S
Gd421 O471 2.606 . S
Gd421 O473 2.429 . S
Gd421 O474 2.545 . S
Gd421 O475 2.412 . S
Gd421 C488 2.828 . S
C422 C425 1.417 . S
C422 C427 1.431 . S
C422 C428 1.412 . S
C423 C426 1.437 . S
C423 C427 1.317 . S
C423 H442 0.929 . S
C424 C425 1.426 . S
C424 C426 1.413 . S
C424 N434 1.359 . S
C425 C422 1.417 . S
C425 C424 1.426 . S
C425 N430 1.350 . S
C426 C423 1.437 . S
C426 C424 1.413 . S
C426 C436 1.391 . S
C427 C422 1.431 . S
C427 C423 1.317 . S
C427 H438 0.930 . S
C428 C422 1.412 . S
C428 C429 1.355 . S
C428 H440 0.930 . S
C429 C428 1.355 . S
C429 C431 1.402 . S
C429 H441 0.930 . S
N430 Gd421 2.661 . S
N430 C425 1.350 . S
N430 C431 1.307 . S
C431 C429 1.402 . S
C431 N430 1.307 . S
C431 H432 0.930 . S
H432 C431 0.930 . S
C433 N434 1.334 . S
C433 C435 1.394 . S
C433 H437 0.930 . S
N434 Gd421 2.601 . S
N434 C424 1.359 . S
N434 C433 1.334 . S
C435 C433 1.394 . S
C435 C436 1.359 . S
C435 H447 0.930 . S
C436 C426 1.391 . S
C436 C435 1.359 . S
C436 H448 0.929 . S
H437 C433 0.930 . S
H438 C427 0.930 . S
H439 C456 0.930 . S
H440 C428 0.930 . S
H441 C429 0.930 . S
H442 C423 0.929 . S
H443 C461 0.930 . S
H444 C452 0.930 . S
H445 C453 0.930 . S
H446 C477 0.929 . S
H447 C435 0.930 . S
H448 C436 0.929 . S
H449 C478 0.930 . S
H450 C459 0.930 . S
N451 Gd420 2.661 . S
N451 C455 1.350 . S
N451 C456 1.307 . S
C452 H444 0.930 . S
C452 C453 1.355 . S
C452 C454 1.412 . S
C453 H445 0.930 . S
C453 C452 1.355 . S
C453 C456 1.402 . S
C454 C452 1.412 . S
C454 C455 1.417 . S
C454 C478 1.431 . S
C455 N451 1.350 . S
C455 C454 1.417 . S
C455 C458 1.426 . S
C456 H439 0.930 . S
C456 N451 1.307 . S
C456 C453 1.402 . S
N457 Gd420 2.601 . S
N457 C458 1.359 . S
N457 C461 1.334 . S
C458 C455 1.426 . S
C458 N457 1.359 . S
C458 C462 1.413 . S
C459 H450 0.930 . S
C459 C460 1.359 . S
C459 C461 1.394 . S
C460 C459 1.359 . S
C460 C462 1.391 . S
C460 H463 0.929 . S
C461 H443 0.930 . S
C461 N457 1.334 . S
C461 C459 1.394 . S
C462 C458 1.413 . S
C462 C460 1.391 . S
C462 C477 1.437 . S
H463 C460 0.929 . S
O464 Gd420 2.545 . S
O464 C479 1.258 . S
O465 Gd420 2.606 . S
O465 Gd421 2.362 . S
O465 C476 1.284 . S
O466 Gd421 2.324 . S
O466 C486 1.254 . S
O467 Gd420 2.429 . S
O467 C486 1.268 . S
O468 Gd420 2.545 . S
O468 C476 1.250 . S
O469 Gd420 2.412 . S
O469 C479 1.252 . S
O470 Gd421 2.545 . S
O470 C488 1.258 . S
O471 Gd420 2.362 . S
O471 Gd421 2.606 . S
O471 C487 1.284 . S
O472 Gd420 2.324 . S
O472 C495 1.254 . S
O473 Gd421 2.429 . S
O473 C495 1.268 . S
O474 Gd421 2.545 . S
O474 C487 1.250 . S
O475 Gd421 2.412 . S
O475 C488 1.252 . S
C476 O465 1.284 . S
C476 O468 1.250 . S
C477 H446 0.929 . S
C477 C462 1.437 . S
C477 C478 1.317 . S
C478 H449 0.930 . S
C478 C454 1.431 . S
C478 C477 1.317 . S
C479 Gd420 2.828 . S
C479 O464 1.258 . S
C479 O469 1.252 . S
C479 C480 1.497 . S
C480 C479 1.497 . S
C480 C481 1.395 . S
C480 C482 1.380 . S
C481 C480 1.395 . S
C481 C484 1.398 . S
C481 H496 0.930 . S
C482 C480 1.380 . S
C482 C483 1.391 . S
C482 H497 0.930 . S
C483 C482 1.391 . S
C483 C485 1.387 . S
C484 C481 1.398 . S
C484 C485 1.380 . S
C484 H498 0.930 . S
C485 C483 1.387 . S
C485 C484 1.380 . S
C485 H499 0.930 . S
C486 O466 1.254 . S
C486 O467 1.268 . S
C487 O471 1.284 . S
C487 O474 1.250 . S
C488 Gd421 2.828 . S
C488 O470 1.258 . S
C488 O475 1.252 . S
C488 C489 1.497 . S
C489 C488 1.497 . S
C489 C490 1.395 1_556 S
C489 C491 1.380 1_556 S
C490 C489 1.395 1_554 S
C490 C493 1.398 . S
C490 H500 0.930 1_554 S
C491 C489 1.380 1_554 S
C491 C492 1.391 . S
C491 H501 0.930 1_554 S
C492 C491 1.391 . S
C492 C494 1.387 . S
C493 C490 1.398 . S
C493 C494 1.380 . S
C493 H502 0.930 . S
C494 C492 1.387 . S
C494 C493 1.380 . S
C494 H503 0.930 . S
C495 O472 1.254 . S
C495 O473 1.268 . S
H496 C481 0.930 . S
H497 C482 0.930 . S
H498 C484 0.930 . S
H499 C485 0.930 . S
H500 C490 0.930 1_556 S
H501 C491 0.930 1_556 S
H502 C493 0.930 . S
H503 C494 0.930 . S
Gd504 N535 2.661 . S
Gd504 N541 2.601 . S
Gd504 O548 2.545 . S
Gd504 O549 2.606 . S
Gd504 O551 2.429 . S
Gd504 O552 2.545 . S
Gd504 O553 2.412 . S
Gd504 O555 2.362 1_554 S
Gd504 O556 2.324 . S
Gd504 C563 2.828 . S
Gd505 N514 2.661 . S
Gd505 N518 2.601 . S
Gd505 O549 2.362 1_556 S
Gd505 O550 2.324 . S
Gd505 O554 2.545 . S
Gd505 O555 2.606 . S
Gd505 O557 2.429 . S
Gd505 O558 2.545 . S
Gd505 O559 2.412 . S
Gd505 C572 2.828 . S
C506 C509 1.417 . S
C506 C511 1.431 . S
C506 C512 1.412 . S
C507 C510 1.437 . S
C507 C511 1.317 . S
C507 H526 0.929 . S
C508 C509 1.426 . S
C508 C510 1.413 . S
C508 N518 1.359 . S
C509 C506 1.417 . S
C509 C508 1.426 . S
C509 N514 1.350 . S
C510 C507 1.437 . S
C510 C508 1.413 . S
C510 C520 1.391 . S
C511 C506 1.431 . S
C511 C507 1.317 . S
C511 H522 0.930 . S
C512 C506 1.412 . S
C512 C513 1.355 . S
C512 H524 0.930 . S
C513 C512 1.355 . S
C513 C515 1.402 . S
C513 H525 0.930 . S
N514 Gd505 2.661 . S
N514 C509 1.350 . S
N514 C515 1.307 . S
C515 C513 1.402 . S
C515 N514 1.307 . S
C515 H516 0.930 . S
H516 C515 0.930 . S
C517 N518 1.334 . S
C517 C519 1.394 . S
C517 H521 0.930 . S
N518 Gd505 2.601 . S
N518 C508 1.359 . S
N518 C517 1.334 . S
C519 C517 1.394 . S
C519 C520 1.359 . S
C519 H531 0.930 . S
C520 C510 1.391 . S
C520 C519 1.359 . S
C520 H532 0.929 . S
H521 C517 0.930 . S
H522 C511 0.930 . S
H523 C540 0.930 . S
H524 C512 0.930 . S
H525 C513 0.930 . S
H526 C507 0.929 . S
H527 C545 0.930 . S
H528 C536 0.930 . S
H529 C537 0.930 . S
H530 C561 0.929 . S
H531 C519 0.930 . S
H532 C520 0.929 . S
H533 C562 0.930 . S
H534 C543 0.930 . S
N535 Gd504 2.661 . S
N535 C539 1.350 . S
N535 C540 1.307 . S
C536 H528 0.930 . S
C536 C537 1.355 . S
C536 C538 1.412 . S
C537 H529 0.930 . S
C537 C536 1.355 . S
C537 C540 1.402 . S
C538 C536 1.412 . S
C538 C539 1.417 . S
C538 C562 1.431 . S
C539 N535 1.350 . S
C539 C538 1.417 . S
C539 C542 1.426 . S
C540 H523 0.930 . S
C540 N535 1.307 . S
C540 C537 1.402 . S
N541 Gd504 2.601 . S
N541 C542 1.359 . S
N541 C545 1.334 . S
C542 C539 1.426 . S
C542 N541 1.359 . S
C542 C546 1.413 . S
C543 H534 0.930 . S
C543 C544 1.359 . S
C543 C545 1.394 . S
C544 C543 1.359 . S
C544 C546 1.391 . S
C544 H547 0.929 . S
C545 H527 0.930 . S
C545 N541 1.334 . S
C545 C543 1.394 . S
C546 C542 1.413 . S
C546 C544 1.391 . S
C546 C561 1.437 . S
H547 C544 0.929 . S
O548 Gd504 2.545 . S
O548 C563 1.258 . S
O549 Gd504 2.606 . S
O549 Gd505 2.362 1_554 S
O549 C560 1.284 . S
O550 Gd505 2.324 . S
O550 C570 1.254 . S
O551 Gd504 2.429 . S
O551 C570 1.268 1_554 S
O552 Gd504 2.545 . S
O552 C560 1.250 . S
O553 Gd504 2.412 . S
O553 C563 1.252 . S
O554 Gd505 2.545 . S
O554 C572 1.258 . S
O555 Gd504 2.362 1_556 S
O555 Gd505 2.606 . S
O555 C571 1.284 . S
O556 Gd504 2.324 . S
O556 C579 1.254 . S
O557 Gd505 2.429 . S
O557 C579 1.268 1_556 S
O558 Gd505 2.545 . S
O558 C571 1.250 . S
O559 Gd505 2.412 . S
O559 C572 1.252 . S
C560 O549 1.284 . S
C560 O552 1.250 . S
C561 H530 0.929 . S
C561 C546 1.437 . S
C561 C562 1.317 . S
C562 H533 0.930 . S
C562 C538 1.431 . S
C562 C561 1.317 . S
C563 Gd504 2.828 . S
C563 O548 1.258 . S
C563 O553 1.252 . S
C563 C564 1.497 . S
C564 C563 1.497 . S
C564 C565 1.395 . S
C564 C566 1.380 . S
C565 C564 1.395 . S
C565 C568 1.398 . S
C565 H580 0.930 . S
C566 C564 1.380 . S
C566 C567 1.391 . S
C566 H581 0.930 . S
C567 C566 1.391 . S
C567 C569 1.387 . S
C568 C565 1.398 . S
C568 C569 1.380 . S
C568 H582 0.930 . S
C569 C567 1.387 . S
C569 C568 1.380 . S
C569 H583 0.930 . S
C570 O550 1.254 . S
C570 O551 1.268 1_556 S
C571 O555 1.284 . S
C571 O558 1.250 . S
C572 Gd505 2.828 . S
C572 O554 1.258 . S
C572 O559 1.252 . S
C572 C573 1.497 . S
C573 C572 1.497 . S
C573 C574 1.395 . S
C573 C575 1.380 . S
C574 C573 1.395 . S
C574 C577 1.398 . S
C574 H584 0.930 . S
C575 C573 1.380 . S
C575 C576 1.391 . S
C575 H585 0.930 . S
C576 C575 1.391 . S
C576 C578 1.387 . S
C577 C574 1.398 . S
C577 C578 1.380 . S
C577 H586 0.930 . S
C578 C576 1.387 . S
C578 C577 1.380 . S
C578 H587 0.930 . S
C579 O556 1.254 . S
C579 O557 1.268 1_554 S
H580 C565 0.930 . S
H581 C566 0.930 . S
H582 C568 0.930 . S
H583 C569 0.930 . S
H584 C574 0.930 . S
H585 C575 0.930 . S
H586 C577 0.930 . S
H587 C578 0.930 . S
Gd588 N619 2.655 1_455 S
Gd588 N625 2.601 1_455 S
Gd588 O632 2.548 . S
Gd588 O633 2.608 . S
Gd588 O635 2.433 . S
Gd588 O636 2.548 . S
Gd588 O637 2.411 1_455 S
Gd588 O639 2.360 1_455 S
Gd588 O640 2.320 1_455 S
Gd588 C647 2.829 . S
Gd589 N598 2.662 1_655 S
Gd589 N602 2.601 1_655 S
Gd589 O633 2.363 1_655 S
Gd589 O634 2.325 1_655 S
Gd589 O638 2.544 . S
Gd589 O639 2.605 . S
Gd589 O641 2.427 . S
Gd589 O642 2.543 . S
Gd589 O643 2.413 1_655 S
Gd589 C656 2.828 . S
C590 C593 1.417 . S
C590 C595 1.431 . S
C590 C596 1.412 . S
C591 C594 1.437 . S
C591 C595 1.317 . S
C591 H610 0.929 . S
C592 C593 1.426 . S
C592 C594 1.413 . S
C592 N602 1.359 . S
C593 C590 1.417 . S
C593 C592 1.426 . S
C593 N598 1.350 . S
C594 C591 1.437 . S
C594 C592 1.413 . S
C594 C604 1.391 . S
C595 C590 1.431 . S
C595 C591 1.317 . S
C595 H606 0.930 . S
C596 C590 1.412 . S
C596 C597 1.355 . S
C596 H608 0.930 . S
C597 C596 1.355 . S
C597 C599 1.402 . S
C597 H609 0.930 . S
N598 Gd589 2.662 1_455 S
N598 C593 1.350 . S
N598 C599 1.307 . S
C599 C597 1.402 . S
C599 N598 1.307 . S
C599 H600 0.930 . S
H600 C599 0.930 . S
C601 N602 1.334 1_655 S
C601 C603 1.394 . S
C601 H605 0.930 . S
N602 Gd589 2.601 1_455 S
N602 C592 1.359 . S
N602 C601 1.334 1_455 S
C603 C601 1.394 . S
C603 C604 1.359 1_655 S
C603 H615 0.930 . S
C604 C594 1.391 . S
C604 C603 1.359 1_455 S
C604 H616 0.930 . S
H605 C601 0.930 . S
H606 C595 0.930 . S
H607 C624 0.930 . S
H608 C596 0.930 . S
H609 C597 0.930 . S
H610 C591 0.929 . S
H611 C629 0.930 . S
H612 C620 0.930 . S
H613 C621 0.930 . S
H614 C645 0.929 . S
H615 C603 0.930 . S
H616 C604 0.930 . S
H617 C646 0.930 . S
H618 C627 0.930 . S
N619 Gd588 2.655 1_655 S
N619 C623 1.350 . S
N619 C624 1.307 . S
C620 H612 0.930 . S
C620 C621 1.355 . S
C620 C622 1.412 . S
C621 H613 0.930 . S
C621 C620 1.355 . S
C621 C624 1.402 . S
C622 C620 1.412 . S
C622 C623 1.417 . S
C622 C646 1.431 . S
C623 N619 1.350 . S
C623 C622 1.417 . S
C623 C626 1.426 . S
C624 H607 0.930 . S
C624 N619 1.307 . S
C624 C621 1.402 . S
N625 Gd588 2.601 1_655 S
N625 C626 1.359 . S
N625 C629 1.334 1_655 S
C626 C623 1.426 . S
C626 N625 1.359 . S
C626 C630 1.413 . S
C627 H618 0.930 . S
C627 C628 1.332 1_455 S
C627 C629 1.394 . S
C628 C627 1.332 1_655 S
C628 C630 1.419 . S
C628 H631 0.929 . S
C629 H611 0.930 . S
C629 N625 1.334 1_455 S
C629 C627 1.394 . S
C630 C626 1.413 . S
C630 C628 1.419 . S
C630 C645 1.437 . S
H631 C628 0.929 . S
O632 Gd588 2.548 . S
O632 C647 1.258 . S
O633 Gd588 2.608 . S
O633 Gd589 2.363 1_455 S
O633 C644 1.284 . S
O634 Gd589 2.325 1_455 S
O634 C654 1.254 . S
O635 Gd588 2.433 . S
O635 C654 1.268 . S
O636 Gd588 2.548 . S
O636 C644 1.250 . S
O637 Gd588 2.411 1_655 S
O637 C647 1.252 1_655 S
O638 Gd589 2.544 . S
O638 C656 1.258 . S
O639 Gd588 2.360 1_655 S
O639 Gd589 2.605 . S
O639 C655 1.284 . S
O640 Gd588 2.320 1_655 S
O640 C663 1.254 . S
O641 Gd589 2.427 . S
O641 C663 1.268 . S
O642 Gd589 2.543 . S
O642 C655 1.250 . S
O643 Gd589 2.413 1_455 S
O643 C656 1.252 1_455 S
C644 O633 1.284 . S
C644 O636 1.250 . S
C645 H614 0.929 . S
C645 C630 1.437 . S
C645 C646 1.317 . S
C646 H617 0.930 . S
C646 C622 1.431 . S
C646 C645 1.317 . S
C647 Gd588 2.829 . S
C647 O632 1.258 . S
C647 O637 1.252 1_455 S
C647 C648 1.497 . S
C648 C647 1.497 . S
C648 C649 1.395 . S
C648 C650 1.380 . S
C649 C648 1.395 . S
C649 C652 1.398 . S
C649 H664 0.930 . S
C650 C648 1.380 . S
C650 C651 1.391 . S
C650 H665 0.930 1_455 S
C651 C650 1.391 . S
C651 C653 1.387 . S
C652 C649 1.398 . S
C652 C653 1.380 . S
C652 H666 0.930 . S
C653 C651 1.387 . S
C653 C652 1.380 . S
C653 H667 0.930 . S
C654 O634 1.254 . S
C654 O635 1.268 . S
C655 O639 1.284 . S
C655 O642 1.250 . S
C656 Gd589 2.828 . S
C656 O638 1.258 . S
C656 O643 1.252 1_655 S
C656 C657 1.497 . S
C657 C656 1.497 . S
C657 C658 1.395 . S
C657 C659 1.380 . S
C658 C657 1.395 . S
C658 C661 1.398 . S
C658 H668 0.930 . S
C659 C657 1.380 . S
C659 C660 1.391 . S
C659 H669 0.930 1_655 S
C660 C659 1.391 . S
C660 C662 1.387 . S
C661 C658 1.398 . S
C661 C662 1.380 . S
C661 H670 0.930 . S
C662 C660 1.387 . S
C662 C661 1.380 . S
C662 H671 0.930 . S
C663 O640 1.254 . S
C663 O641 1.268 . S
H664 C649 0.930 . S
H665 C650 0.930 1_655 S
H666 C652 0.930 . S
H667 C653 0.930 . S
H668 C658 0.930 . S
H669 C659 0.930 1_455 S
H670 C661 0.930 . S
H671 C662 0.930 . S
H672 C680 0.950 . S
H673 C685 0.950 . S
H674 C682 0.950 . S
H675 C684 0.950 . S
H676 C686 0.950 . S
H677 C688 0.950 . S
H678 C690 0.950 . S
H679 C691 0.950 . S
C680 H672 0.950 . S
C680 C681 1.386 . S
C680 C682 1.391 . S
C681 C680 1.386 . S
C681 C685 1.393 . S
C682 H674 0.950 . S
C682 C680 1.391 . S
C682 C683 1.400 . S
C683 C682 1.400 . S
C683 C684 1.398 . S
C683 C689 1.491 . S
C684 H675 0.950 . S
C684 C683 1.398 . S
C684 C685 1.391 . S
C685 H673 0.950 . S
C685 C681 1.393 . S
C685 C684 1.391 . S
C686 H676 0.950 . S
C686 C687 1.386 . S
C686 C688 1.391 . S
C687 C686 1.386 . S
C687 C691 1.393 . S
C688 H677 0.950 . S
C688 C686 1.391 . S
C688 C689 1.400 . S
C689 C683 1.491 . S
C689 C688 1.400 . S
C689 C690 1.398 . S
C690 H678 0.950 . S
C690 C689 1.398 . S
C690 C691 1.391 . S
C691 H679 0.950 . S
C691 C687 1.393 . S
C691 C690 1.391 . S
H692 C700 0.950 . S
H693 C705 0.950 . S
H694 C702 0.950 . S
H695 C704 0.950 . S
H696 C706 0.950 . S
H697 C708 0.950 . S
H698 C710 0.950 . S
H699 C711 0.950 . S
C700 H692 0.950 . S
C700 C701 1.386 . S
C700 C702 1.391 . S
C701 C700 1.386 . S
C701 C705 1.393 . S
C702 H694 0.950 . S
C702 C700 1.391 . S
C702 C703 1.400 . S
C703 C702 1.400 . S
C703 C704 1.398 . S
C703 C709 1.491 . S
C704 H695 0.950 . S
C704 C703 1.398 . S
C704 C705 1.391 . S
C705 H693 0.950 . S
C705 C701 1.393 . S
C705 C704 1.391 . S
C706 H696 0.950 . S
C706 C707 1.386 . S
C706 C708 1.391 . S
C707 C706 1.386 . S
C707 C711 1.393 . S
C708 H697 0.950 . S
C708 C706 1.391 . S
C708 C709 1.400 . S
C709 C703 1.491 . S
C709 C708 1.400 . S
C709 C710 1.398 . S
C710 H698 0.950 . S
C710 C709 1.398 . S
C710 C711 1.391 . S
C711 H699 0.950 . S
C711 C707 1.393 . S
C711 C710 1.391 . S
H712 C720 0.950 . S
H713 C725 0.950 . S
H714 C722 0.950 . S
H715 C724 0.950 . S
H716 C726 0.950 . S
H717 C728 0.950 . S
H718 C730 0.950 . S
H719 C731 0.950 . S
C720 H712 0.950 . S
C720 C721 1.386 . S
C720 C722 1.391 . S
C721 C720 1.386 . S
C721 C725 1.393 . S
C722 H714 0.950 . S
C722 C720 1.391 . S
C722 C723 1.400 . S
C723 C722 1.400 . S
C723 C724 1.398 . S
C723 C729 1.491 . S
C724 H715 0.950 . S
C724 C723 1.398 . S
C724 C725 1.391 . S
C725 H713 0.950 . S
C725 C721 1.393 . S
C725 C724 1.391 . S
C726 H716 0.950 . S
C726 C727 1.386 . S
C726 C728 1.391 . S
C727 C726 1.386 . S
C727 C731 1.393 . S
C728 H717 0.950 . S
C728 C726 1.391 . S
C728 C729 1.400 . S
C729 C723 1.491 . S
C729 C728 1.400 . S
C729 C730 1.398 . S
C730 H718 0.950 . S
C730 C729 1.398 . S
C730 C731 1.391 . S
C731 H719 0.950 . S
C731 C727 1.393 . S
C731 C730 1.391 . S
H732 C740 0.950 . S
H733 C745 0.950 . S
H734 C742 0.950 . S
H735 C744 0.950 . S
H736 C746 0.950 . S
H737 C748 0.950 . S
H738 C750 0.950 . S
H739 C751 0.950 . S
C740 H732 0.950 . S
C740 C741 1.386 . S
C740 C742 1.391 . S
C741 C740 1.386 . S
C741 C745 1.393 . S
C742 H734 0.950 . S
C742 C740 1.391 . S
C742 C743 1.400 . S
C743 C742 1.400 . S
C743 C744 1.398 . S
C743 C749 1.491 . S
C744 H735 0.950 . S
C744 C743 1.398 . S
C744 C745 1.391 . S
C745 H733 0.950 . S
C745 C741 1.393 . S
C745 C744 1.391 . S
C746 H736 0.950 . S
C746 C747 1.386 . S
C746 C748 1.391 . S
C747 C746 1.386 . S
C747 C751 1.393 . S
C748 H737 0.950 . S
C748 C746 1.391 . S
C748 C749 1.400 . S
C749 C743 1.491 . S
C749 C748 1.400 . S
C749 C750 1.398 . S
C750 H738 0.950 . S
C750 C749 1.398 . S
C750 C751 1.391 . S
C751 H739 0.950 . S
C751 C747 1.393 . S
C751 C750 1.391 . S
H752 C760 0.950 . S
H753 C765 0.950 . S
H754 C762 0.950 . S
H755 C764 0.950 . S
H756 C766 0.950 . S
H757 C768 0.950 . S
H758 C770 0.950 . S
H759 C771 0.950 . S
C760 H752 0.950 . S
C760 C761 1.386 . S
C760 C762 1.391 . S
C761 C760 1.386 . S
C761 C765 1.393 . S
C762 H754 0.950 . S
C762 C760 1.391 . S
C762 C763 1.400 . S
C763 C762 1.400 . S
C763 C764 1.398 . S
C763 C769 1.491 . S
C764 H755 0.950 . S
C764 C763 1.398 . S
C764 C765 1.391 . S
C765 H753 0.950 . S
C765 C761 1.393 . S
C765 C764 1.391 . S
C766 H756 0.950 . S
C766 C767 1.386 . S
C766 C768 1.391 . S
C767 C766 1.386 . S
C767 C771 1.393 . S
C768 H757 0.950 . S
C768 C766 1.391 . S
C768 C769 1.400 . S
C769 C763 1.491 . S
C769 C768 1.400 . S
C769 C770 1.398 . S
C770 H758 0.950 . S
C770 C769 1.398 . S
C770 C771 1.391 . S
C771 H759 0.950 . S
C771 C767 1.393 . S
C771 C770 1.391 . S
H772 C780 0.950 . S
H773 C785 0.950 . S
H774 C782 0.950 . S
H775 C784 0.950 . S
H776 C786 0.950 . S
H777 C788 0.950 . S
H778 C790 0.950 . S
H779 C791 0.950 . S
C780 H772 0.950 . S
C780 C781 1.386 . S
C780 C782 1.391 . S
C781 C780 1.386 . S
C781 C785 1.393 . S
C782 H774 0.950 . S
C782 C780 1.391 . S
C782 C783 1.400 . S
C783 C782 1.400 . S
C783 C784 1.398 . S
C783 C789 1.491 . S
C784 H775 0.950 . S
C784 C783 1.398 . S
C784 C785 1.391 . S
C785 H773 0.950 . S
C785 C781 1.393 . S
C785 C784 1.391 . S
C786 H776 0.950 . S
C786 C787 1.386 . S
C786 C788 1.391 . S
C787 C786 1.386 . S
C787 C791 1.393 . S
C788 H777 0.950 . S
C788 C786 1.391 . S
C788 C789 1.400 . S
C789 C783 1.491 . S
C789 C788 1.400 . S
C789 C790 1.398 . S
C790 H778 0.950 . S
C790 C789 1.398 . S
C790 C791 1.391 . S
C791 H779 0.950 . S
C791 C787 1.393 . S
C791 C790 1.391 . S
H792 C800 0.950 . S
H793 C805 0.950 . S
H794 C802 0.950 . S
H795 C804 0.950 . S
H796 C806 0.950 . S
H797 C808 0.950 . S
H798 C810 0.950 . S
H799 C811 0.950 . S
C800 H792 0.950 . S
C800 C801 1.386 . S
C800 C802 1.391 . S
C801 C800 1.386 . S
C801 C805 1.393 . S
C802 H794 0.950 . S
C802 C800 1.391 . S
C802 C803 1.400 . S
C803 C802 1.400 . S
C803 C804 1.398 . S
C803 C809 1.491 . S
C804 H795 0.950 . S
C804 C803 1.398 . S
C804 C805 1.391 . S
C805 H793 0.950 . S
C805 C801 1.393 . S
C805 C804 1.391 . S
C806 H796 0.950 . S
C806 C807 1.386 . S
C806 C808 1.391 . S
C807 C806 1.386 . S
C807 C811 1.393 . S
C808 H797 0.950 . S
C808 C806 1.391 . S
C808 C809 1.400 . S
C809 C803 1.491 . S
C809 C808 1.400 . S
C809 C810 1.398 . S
C810 H798 0.950 . S
C810 C809 1.398 . S
C810 C811 1.391 . S
C811 H799 0.950 . S
C811 C807 1.393 . S
C811 C810 1.391 . S
H812 C820 0.950 . S
H813 C825 0.950 . S
H814 C822 0.950 . S
H815 C824 0.950 . S
H816 C826 0.950 . S
H817 C828 0.950 . S
H818 C830 0.950 . S
H819 C831 0.950 . S
C820 H812 0.950 . S
C820 C821 1.386 . S
C820 C822 1.391 . S
C821 C820 1.386 . S
C821 C825 1.393 . S
C822 H814 0.950 . S
C822 C820 1.391 . S
C822 C823 1.400 . S
C823 C822 1.400 . S
C823 C824 1.398 . S
C823 C829 1.491 . S
C824 H815 0.950 . S
C824 C823 1.398 . S
C824 C825 1.391 . S
C825 H813 0.950 . S
C825 C821 1.393 . S
C825 C824 1.391 . S
C826 H816 0.950 . S
C826 C827 1.386 . S
C826 C828 1.391 . S
C827 C826 1.386 . S
C827 C831 1.393 . S
C828 H817 0.950 . S
C828 C826 1.391 . S
C828 C829 1.400 . S
C829 C823 1.491 . S
C829 C828 1.400 . S
C829 C830 1.398 . S
C830 H818 0.950 . S
C830 C829 1.398 . S
C830 C831 1.391 . S
C831 H819 0.950 . S
C831 C827 1.393 . S
C831 C830 1.391 . S
H832 C840 0.950 . S
H833 C845 0.950 . S
H834 C842 0.950 . S
H835 C844 0.950 . S
H836 C846 0.950 . S
H837 C848 0.950 . S
H838 C850 0.950 . S
H839 C851 0.950 . S
C840 H832 0.950 . S
C840 C841 1.386 . S
C840 C842 1.391 . S
C841 C840 1.386 . S
C841 C845 1.393 . S
C842 H834 0.950 . S
C842 C840 1.391 . S
C842 C843 1.400 . S
C843 C842 1.400 . S
C843 C844 1.398 . S
C843 C849 1.491 . S
C844 H835 0.950 . S
C844 C843 1.398 . S
C844 C845 1.391 . S
C845 H833 0.950 . S
C845 C841 1.393 . S
C845 C844 1.391 . S
C846 H836 0.950 . S
C846 C847 1.386 . S
C846 C848 1.391 . S
C847 C846 1.386 . S
C847 C851 1.393 . S
C848 H837 0.950 . S
C848 C846 1.391 . S
C848 C849 1.400 . S
C849 C843 1.491 . S
C849 C848 1.400 . S
C849 C850 1.398 . S
C850 H838 0.950 . S
C850 C849 1.398 . S
C850 C851 1.391 . S
C851 H839 0.950 . S
C851 C847 1.393 . S
C851 C850 1.391 . S
H852 C860 0.950 . S
H853 C865 0.950 . S
H854 C862 0.950 . S
H855 C864 0.950 . S
H856 C866 0.950 . S
H857 C868 0.950 . S
H858 C870 0.950 . S
H859 C871 0.950 . S
C860 H852 0.950 . S
C860 C861 1.386 . S
C860 C862 1.391 . S
C861 C860 1.386 . S
C861 C865 1.393 . S
C862 H854 0.950 . S
C862 C860 1.391 . S
C862 C863 1.400 . S
C863 C862 1.400 . S
C863 C864 1.398 . S
C863 C869 1.491 . S
C864 H855 0.950 . S
C864 C863 1.398 . S
C864 C865 1.391 . S
C865 H853 0.950 . S
C865 C861 1.393 . S
C865 C864 1.391 . S
C866 H856 0.950 . S
C866 C867 1.386 . S
C866 C868 1.391 . S
C867 C866 1.386 . S
C867 C871 1.393 . S
C868 H857 0.950 . S
C868 C866 1.391 . S
C868 C869 1.400 . S
C869 C863 1.491 . S
C869 C868 1.400 . S
C869 C870 1.398 . S
C870 H858 0.950 . S
C870 C869 1.398 . S
C870 C871 1.391 . S
C871 H859 0.950 . S
C871 C867 1.393 . S
C871 C870 1.391 . S
H872 C880 0.950 . S
H873 C885 0.950 . S
H874 C882 0.950 . S
H875 C884 0.950 . S
H876 C886 0.950 . S
H877 C888 0.950 . S
H878 C890 0.950 . S
H879 C891 0.950 . S
C880 H872 0.950 . S
C880 C881 1.386 . S
C880 C882 1.391 . S
C881 C880 1.386 . S
C881 C885 1.393 . S
C882 H874 0.950 . S
C882 C880 1.391 . S
C882 C883 1.400 . S
C883 C882 1.400 . S
C883 C884 1.398 . S
C883 C889 1.491 . S
C884 H875 0.950 . S
C884 C883 1.398 . S
C884 C885 1.391 . S
C885 H873 0.950 . S
C885 C881 1.393 . S
C885 C884 1.391 . S
C886 H876 0.950 . S
C886 C887 1.386 . S
C886 C888 1.391 . S
C887 C886 1.386 . S
C887 C891 1.393 . S
C888 H877 0.950 . S
C888 C886 1.391 . S
C888 C889 1.400 . S
C889 C883 1.491 . S
C889 C888 1.400 . S
C889 C890 1.398 . S
C890 H878 0.950 . S
C890 C889 1.398 . S
C890 C891 1.391 . S
C891 H879 0.950 . S
C891 C887 1.393 . S
C891 C890 1.391 . S
H892 C900 0.950 . S
H893 C905 0.950 . S
H894 C902 0.950 . S
H895 C904 0.950 . S
H896 C906 0.950 . S
H897 C908 0.950 . S
H898 C910 0.950 . S
H899 C911 0.950 . S
C900 H892 0.950 . S
C900 C901 1.386 . S
C900 C902 1.391 . S
C901 C900 1.386 . S
C901 C905 1.393 . S
C902 H894 0.950 . S
C902 C900 1.391 . S
C902 C903 1.400 . S
C903 C902 1.400 . S
C903 C904 1.398 . S
C903 C909 1.491 . S
C904 H895 0.950 . S
C904 C903 1.398 . S
C904 C905 1.391 . S
C905 H893 0.950 . S
C905 C901 1.393 . S
C905 C904 1.391 . S
C906 H896 0.950 . S
C906 C907 1.386 . S
C906 C908 1.391 . S
C907 C906 1.386 . S
C907 C911 1.393 . S
C908 H897 0.950 . S
C908 C906 1.391 . S
C908 C909 1.400 . S
C909 C903 1.491 . S
C909 C908 1.400 . S
C909 C910 1.398 . S
C910 H898 0.950 . S
C910 C909 1.398 . S
C910 C911 1.391 . S
C911 H899 0.950 . S
C911 C907 1.393 . S
C911 C910 1.391 . S
H912 C920 0.950 . S
H913 C925 0.950 . S
H914 C922 0.950 . S
H915 C924 0.950 . S
H916 C926 0.950 . S
H917 C928 0.950 . S
H918 C930 0.950 . S
H919 C931 0.950 . S
C920 H912 0.950 . S
C920 C921 1.386 . S
C920 C922 1.391 . S
C921 C920 1.386 . S
C921 C925 1.393 . S
C922 H914 0.950 . S
C922 C920 1.391 . S
C922 C923 1.400 . S
C923 C922 1.400 . S
C923 C924 1.398 . S
C923 C929 1.491 . S
C924 H915 0.950 . S
C924 C923 1.398 . S
C924 C925 1.391 . S
C925 H913 0.950 . S
C925 C921 1.393 . S
C925 C924 1.391 . S
C926 H916 0.950 . S
C926 C927 1.386 . S
C926 C928 1.391 . S
C927 C926 1.386 . S
C927 C931 1.393 . S
C928 H917 0.950 . S
C928 C926 1.391 . S
C928 C929 1.400 . S
C929 C923 1.491 . S
C929 C928 1.400 . S
C929 C930 1.398 . S
C930 H918 0.950 . S
C930 C929 1.398 . S
C930 C931 1.391 . S
C931 H919 0.950 . S
C931 C927 1.393 . S
C931 C930 1.391 . S
H932 C940 0.950 . S
H933 C945 0.950 . S
H934 C942 0.950 . S
H935 C944 0.950 . S
H936 C946 0.950 . S
H937 C948 0.950 . S
H938 C950 0.950 . S
H939 C951 0.950 . S
C940 H932 0.950 . S
C940 C941 1.386 . S
C940 C942 1.391 . S
C941 C940 1.386 . S
C941 C945 1.393 . S
C942 H934 0.950 . S
C942 C940 1.391 . S
C942 C943 1.400 . S
C943 C942 1.400 . S
C943 C944 1.398 . S
C943 C949 1.491 . S
C944 H935 0.950 . S
C944 C943 1.398 . S
C944 C945 1.391 . S
C945 H933 0.950 . S
C945 C941 1.393 . S
C945 C944 1.391 . S
C946 H936 0.950 . S
C946 C947 1.386 . S
C946 C948 1.391 . S
C947 C946 1.386 . S
C947 C951 1.393 . S
C948 H937 0.950 . S
C948 C946 1.391 . S
C948 C949 1.400 . S
C949 C943 1.491 . S
C949 C948 1.400 . S
C949 C950 1.398 . S
C950 H938 0.950 . S
C950 C949 1.398 . S
C950 C951 1.391 . S
C951 H939 0.950 . S
C951 C947 1.393 . S
C951 C950 1.391 . S
H952 C960 0.950 . S
H953 C965 0.950 . S
H954 C962 0.950 . S
H955 C964 0.950 . S
H956 C966 0.950 . S
H957 C968 0.950 . S
H958 C970 0.950 . S
H959 C971 0.950 . S
C960 H952 0.950 . S
C960 C961 1.386 . S
C960 C962 1.391 . S
C961 C960 1.386 . S
C961 C965 1.393 . S
C962 H954 0.950 . S
C962 C960 1.391 . S
C962 C963 1.400 . S
C963 C962 1.400 . S
C963 C964 1.398 . S
C963 C969 1.491 . S
C964 H955 0.950 . S
C964 C963 1.398 . S
C964 C965 1.391 . S
C965 H953 0.950 . S
C965 C961 1.393 . S
C965 C964 1.391 . S
C966 H956 0.950 . S
C966 C967 1.386 . S
C966 C968 1.391 . S
C967 C966 1.386 . S
C967 C971 1.393 . S
C968 H957 0.950 . S
C968 C966 1.391 . S
C968 C969 1.400 . S
C969 C963 1.491 . S
C969 C968 1.400 . S
C969 C970 1.398 . S
C970 H958 0.950 . S
C970 C969 1.398 . S
C970 C971 1.391 . S
C971 H959 0.950 . S
C971 C967 1.393 . S
C971 C970 1.391 . S
H972 C980 0.950 . S
H973 C985 0.950 . S
H974 C982 0.950 . S
H975 C984 0.950 . S
H976 C986 0.950 . S
H977 C988 0.950 . S
H978 C990 0.950 . S
H979 C991 0.950 . S
C980 H972 0.950 . S
C980 C981 1.386 . S
C980 C982 1.391 . S
C981 C980 1.386 . S
C981 C985 1.393 . S
C982 H974 0.950 . S
C982 C980 1.391 . S
C982 C983 1.400 . S
C983 C982 1.400 . S
C983 C984 1.398 . S
C983 C989 1.491 . S
C984 H975 0.950 . S
C984 C983 1.398 . S
C984 C985 1.391 . S
C985 H973 0.950 . S
C985 C981 1.393 . S
C985 C984 1.391 . S
C986 H976 0.950 . S
C986 C987 1.386 . S
C986 C988 1.391 . S
C987 C986 1.386 . S
C987 C991 1.393 . S
C988 H977 0.950 . S
C988 C986 1.391 . S
C988 C989 1.400 . S
C989 C983 1.491 . S
C989 C988 1.400 . S
C989 C990 1.398 . S
C990 H978 0.950 . S
C990 C989 1.398 . S
C990 C991 1.391 . S
C991 H979 0.950 . S
C991 C987 1.393 . S
C991 C990 1.391 . S
H992 C1000 0.950 . S
H993 C1005 0.950 . S
H994 C1002 0.950 . S
H995 C1004 0.950 . S
H996 C1006 0.950 . S
H997 C1008 0.950 . S
H998 C1010 0.950 . S
H999 C1011 0.950 . S
C1000 H992 0.950 . S
C1000 C1001 1.386 1_445 S
C1000 C1002 1.391 . S
C1001 C1000 1.386 1_665 S
C1001 C1005 1.393 . S
C1002 H994 0.950 . S
C1002 C1000 1.391 . S
C1002 C1003 1.401 1_445 S
C1003 C1002 1.401 1_665 S
C1003 C1004 1.398 . S
C1003 C1009 1.491 1_666 S
C1004 H995 0.950 . S
C1004 C1003 1.398 . S
C1004 C1005 1.391 . S
C1005 H993 0.950 . S
C1005 C1001 1.393 . S
C1005 C1004 1.391 . S
C1006 H996 0.950 . S
C1006 C1007 1.386 1_665 S
C1006 C1008 1.391 . S
C1007 C1006 1.386 1_445 S
C1007 C1011 1.393 . S
C1008 H997 0.950 . S
C1008 C1006 1.391 . S
C1008 C1009 1.396 1_665 S
C1009 C1003 1.491 1_444 S
C1009 C1008 1.396 1_445 S
C1009 C1010 1.403 . S
C1010 H998 0.950 . S
C1010 C1009 1.403 . S
C1010 C1011 1.391 . S
C1011 H999 0.950 . S
C1011 C1007 1.393 . S
C1011 C1010 1.391 . S
H1012 C1020 0.950 . S
H1013 C1025 0.950 . S
H1014 C1022 0.950 . S
H1015 C1024 0.950 . S
H1016 C1026 0.950 . S
H1017 C1028 0.950 . S
H1018 C1030 0.950 . S
H1019 C1031 0.950 . S
C1020 H1012 0.950 . S
C1020 C1021 1.386 . S
C1020 C1022 1.391 . S
C1021 C1020 1.386 . S
C1021 C1025 1.393 . S
C1022 H1014 0.950 . S
C1022 C1020 1.391 . S
C1022 C1023 1.400 . S
C1023 C1022 1.400 . S
C1023 C1024 1.398 . S
C1023 C1029 1.491 . S
C1024 H1015 0.950 . S
C1024 C1023 1.398 . S
C1024 C1025 1.391 . S
C1025 H1013 0.950 . S
C1025 C1021 1.393 . S
C1025 C1024 1.391 . S
C1026 H1016 0.950 . S
C1026 C1027 1.386 . S
C1026 C1028 1.391 . S
C1027 C1026 1.386 . S
C1027 C1031 1.393 . S
C1028 H1017 0.950 . S
C1028 C1026 1.391 . S
C1028 C1029 1.400 . S
C1029 C1023 1.491 . S
C1029 C1028 1.400 . S
C1029 C1030 1.398 . S
C1030 H1018 0.950 . S
C1030 C1029 1.398 . S
C1030 C1031 1.391 . S
C1031 H1019 0.950 . S
C1031 C1027 1.393 . S
C1031 C1030 1.391 . S
H1032 C1040 0.950 . S
H1033 C1045 0.950 . S
H1034 C1042 0.950 . S
H1035 C1044 0.950 . S
H1036 C1046 0.950 . S
H1037 C1048 0.950 . S
H1038 C1050 0.950 . S
H1039 C1051 0.950 . S
C1040 H1032 0.950 . S
C1040 C1041 1.386 1_545 S
C1040 C1042 1.391 . S
C1041 C1040 1.386 1_565 S
C1041 C1045 1.393 . S
C1042 H1034 0.950 . S
C1042 C1040 1.391 . S
C1042 C1043 1.400 1_545 S
C1043 C1042 1.400 1_565 S
C1043 C1044 1.398 . S
C1043 C1049 1.491 1_565 S
C1044 H1035 0.950 . S
C1044 C1043 1.398 . S
C1044 C1045 1.391 . S
C1045 H1033 0.950 . S
C1045 C1041 1.393 . S
C1045 C1044 1.391 . S
C1046 H1036 0.950 . S
C1046 C1047 1.386 1_565 S
C1046 C1048 1.391 . S
C1047 C1046 1.386 1_545 S
C1047 C1051 1.393 . S
C1048 H1037 0.950 . S
C1048 C1046 1.391 . S
C1048 C1049 1.400 1_565 S
C1049 C1043 1.491 1_545 S
C1049 C1048 1.400 1_545 S
C1049 C1050 1.398 . S
C1050 H1038 0.950 . S
C1050 C1049 1.398 . S
C1050 C1051 1.391 . S
C1051 H1039 0.950 . S
C1051 C1047 1.393 . S
C1051 C1050 1.391 . S
H1052 C1060 0.950 . S
H1053 C1065 0.950 . S
H1054 C1062 0.950 . S
H1055 C1064 0.950 . S
H1056 C1066 0.950 . S
H1057 C1068 0.950 . S
H1058 C1070 0.950 . S
H1059 C1071 0.950 . S
C1060 H1052 0.950 . S
C1060 C1061 1.386 . S
C1060 C1062 1.391 . S
C1061 C1060 1.386 . S
C1061 C1065 1.393 . S
C1062 H1054 0.950 . S
C1062 C1060 1.391 . S
C1062 C1063 1.400 . S
C1063 C1062 1.400 . S
C1063 C1064 1.398 . S
C1063 C1069 1.491 . S
C1064 H1055 0.950 . S
C1064 C1063 1.398 . S
C1064 C1065 1.391 . S
C1065 H1053 0.950 . S
C1065 C1061 1.393 . S
C1065 C1064 1.391 . S
C1066 H1056 0.950 . S
C1066 C1067 1.386 . S
C1066 C1068 1.391 . S
C1067 C1066 1.386 . S
C1067 C1071 1.393 . S
C1068 H1057 0.950 . S
C1068 C1066 1.391 . S
C1068 C1069 1.400 . S
C1069 C1063 1.491 . S
C1069 C1068 1.400 . S
C1069 C1070 1.398 . S
C1070 H1058 0.950 . S
C1070 C1069 1.398 . S
C1070 C1071 1.391 . S
C1071 H1059 0.950 . S
C1071 C1067 1.393 . S
C1071 C1070 1.391 . S
H1072 C1080 0.950 . S
H1073 C1085 0.950 . S
H1074 C1082 0.950 . S
H1075 C1084 0.950 . S
H1076 C1086 0.950 . S
H1077 C1088 0.950 . S
H1078 C1090 0.950 . S
H1079 C1091 0.950 . S
C1080 H1072 0.950 . S
C1080 C1081 1.386 . S
C1080 C1082 1.391 . S
C1081 C1080 1.386 . S
C1081 C1085 1.393 . S
C1082 H1074 0.950 . S
C1082 C1080 1.391 . S
C1082 C1083 1.400 . S
C1083 C1082 1.400 . S
C1083 C1084 1.398 . S
C1083 C1089 1.491 . S
C1084 H1075 0.950 . S
C1084 C1083 1.398 . S
C1084 C1085 1.391 . S
C1085 H1073 0.950 . S
C1085 C1081 1.393 . S
C1085 C1084 1.391 . S
C1086 H1076 0.950 . S
C1086 C1087 1.386 . S
C1086 C1088 1.391 . S
C1087 C1086 1.386 . S
C1087 C1091 1.393 . S
C1088 H1077 0.950 . S
C1088 C1086 1.391 . S
C1088 C1089 1.400 . S
C1089 C1083 1.491 . S
C1089 C1088 1.400 . S
C1089 C1090 1.398 . S
C1090 H1078 0.950 . S
C1090 C1089 1.398 . S
C1090 C1091 1.391 . S
C1091 H1079 0.950 . S
C1091 C1087 1.393 . S
C1091 C1090 1.391 . S
H1092 C1100 0.950 . S
H1093 C1105 0.950 . S
H1094 C1102 0.950 . S
H1095 C1104 0.950 . S
H1096 C1106 0.950 . S
H1097 C1108 0.950 . S
H1098 C1110 0.950 . S
H1099 C1111 0.950 . S
C1100 H1092 0.950 . S
C1100 C1101 1.386 . S
C1100 C1102 1.391 . S
C1101 C1100 1.386 . S
C1101 C1105 1.393 . S
C1102 H1094 0.950 . S
C1102 C1100 1.391 . S
C1102 C1103 1.400 . S
C1103 C1102 1.400 . S
C1103 C1104 1.398 . S
C1103 C1109 1.491 . S
C1104 H1095 0.950 . S
C1104 C1103 1.398 . S
C1104 C1105 1.391 . S
C1105 H1093 0.950 . S
C1105 C1101 1.393 . S
C1105 C1104 1.391 . S
C1106 H1096 0.950 . S
C1106 C1107 1.386 . S
C1106 C1108 1.391 . S
C1107 C1106 1.386 . S
C1107 C1111 1.393 . S
C1108 H1097 0.950 . S
C1108 C1106 1.391 . S
C1108 C1109 1.400 . S
C1109 C1103 1.491 . S
C1109 C1108 1.400 . S
C1109 C1110 1.398 . S
C1110 H1098 0.950 . S
C1110 C1109 1.398 . S
C1110 C1111 1.391 . S
C1111 H1099 0.950 . S
C1111 C1107 1.393 . S
C1111 C1110 1.391 . S
H1112 C1120 0.950 . S
H1113 C1125 0.950 . S
H1114 C1122 0.950 . S
H1115 C1124 0.950 . S
H1116 C1126 0.950 . S
H1117 C1128 0.950 . S
H1118 C1130 0.950 . S
H1119 C1131 0.950 . S
C1120 H1112 0.950 . S
C1120 C1121 1.386 . S
C1120 C1122 1.391 . S
C1121 C1120 1.386 . S
C1121 C1125 1.393 . S
C1122 H1114 0.950 . S
C1122 C1120 1.391 . S
C1122 C1123 1.400 . S
C1123 C1122 1.400 . S
C1123 C1124 1.398 . S
C1123 C1129 1.491 . S
C1124 H1115 0.950 . S
C1124 C1123 1.398 . S
C1124 C1125 1.391 . S
C1125 H1113 0.950 . S
C1125 C1121 1.393 . S
C1125 C1124 1.391 . S
C1126 H1116 0.950 . S
C1126 C1127 1.386 . S
C1126 C1128 1.391 . S
C1127 C1126 1.386 . S
C1127 C1131 1.393 . S
C1128 H1117 0.950 . S
C1128 C1126 1.391 . S
C1128 C1129 1.400 . S
C1129 C1123 1.491 . S
C1129 C1128 1.400 . S
C1129 C1130 1.398 . S
C1130 H1118 0.950 . S
C1130 C1129 1.398 . S
C1130 C1131 1.391 . S
C1131 H1119 0.950 . S
C1131 C1127 1.393 . S
C1131 C1130 1.391 . S
H1132 C1140 0.950 . S
H1133 C1145 0.950 . S
H1134 C1142 0.950 . S
H1135 C1144 0.950 . S
H1136 C1146 0.950 . S
H1137 C1148 0.950 . S
H1138 C1150 0.950 . S
H1139 C1151 0.950 . S
C1140 H1132 0.950 . S
C1140 C1141 1.386 1_455 S
C1140 C1142 1.391 . S
C1141 C1140 1.386 1_655 S
C1141 C1145 1.393 . S
C1142 H1134 0.950 . S
C1142 C1140 1.391 . S
C1142 C1143 1.384 1_455 S
C1143 C1142 1.384 1_655 S
C1143 C1144 1.415 . S
C1143 C1149 1.490 1_656 S
C1144 H1135 0.950 . S
C1144 C1143 1.415 . S
C1144 C1145 1.391 . S
C1145 H1133 0.950 . S
C1145 C1141 1.393 . S
C1145 C1144 1.391 . S
C1146 H1136 0.950 . S
C1146 C1147 1.386 1_655 S
C1146 C1148 1.391 . S
C1147 C1146 1.386 1_455 S
C1147 C1151 1.393 . S
C1148 H1137 0.950 . S
C1148 C1146 1.391 . S
C1148 C1149 1.377 1_655 S
C1149 C1143 1.490 1_454 S
C1149 C1148 1.377 1_455 S
C1149 C1150 1.422 . S
C1150 H1138 0.950 . S
C1150 C1149 1.422 . S
C1150 C1151 1.391 . S
C1151 H1139 0.950 . S
C1151 C1147 1.393 . S
C1151 C1150 1.391 . S
C681 C67 1.601 . S
C687 C319 1.598 . S
C701 C75 1.480 . S
C707 C151 1.434 . S
C721 C159 1.335 . S
C727 C243 1.322 . S
C741 C235 1.441 . S
C747 C327 1.474 . S
C761 C56 1.605 . S
C767 C476 1.599 . S
C781 C66 1.459 . S
C787 C392 1.462 . S
C801 C402 1.311 . S
C807 C234 1.324 . S
C821 C486 1.480 . S
C827 C224 1.438 . S
C841 C571 1.596 . S
C847 C487 1.582 . S
C861 C403 1.437 . S
C867 C579 1.478 . S
C881 C663 1.332 . S
C887 C411 1.332 . S
C901 C495 1.479 . S
C907 C655 1.439 . S
C921 C308 1.581 . S
C927 C560 1.591 . S
C941 C570 1.480 . S
C947 C140 1.436 . S
C961 C150 1.317 . S
C967 C654 1.333 . S
C981 C318 1.460 . S
C987 C644 1.458 . S
C1001 C63 1.407 1_565 S
C1007 C72 1.407 1_545 S
C1021 C156 1.431 . S
C1027 C147 1.431 . S
C1041 C231 1.436 1_565 S
C1047 C240 1.436 1_545 S
C1061 C315 1.413 . S
C1067 C324 1.413 . S
C1081 C408 1.395 . S
C1087 C399 1.395 . S
C1101 C483 1.416 . S
C1107 C492 1.416 . S
C1121 C576 1.438 . S
C1127 C567 1.438 . S
C1141 C660 1.437 . S
C1147 C651 1.437 . S
