# Generated by pormake.
# Topology wgu, (5)-cn, num edge types: 1
# Building blocks:
#     Node 0, Type 0, BuildingBlock: BEQFEK_clean_sbu_0, # of connection points: 5
#     Node 1, Type 0, BuildingBlock: BEQFEK_clean_sbu_0, # of connection points: 5
#     Node 2, Type 0, BuildingBlock: BEQFEK_clean_sbu_0, # of connection points: 5
#     Node 3, Type 0, BuildingBlock: BEQFEK_clean_sbu_0, # of connection points: 5
#     Node 4, Type 0, BuildingBlock: BEQFEK_clean_sbu_0, # of connection points: 5
#     Node 5, Type 0, BuildingBlock: BEQFEK_clean_sbu_0, # of connection points: 5
#     Node 6, Type 0, BuildingBlock: BEQFEK_clean_sbu_0, # of connection points: 5
#     Node 7, Type 0, BuildingBlock: BEQFEK_clean_sbu_0, # of connection points: 5
#     Edge 8, Type (0, 0), BuildingBlock: KIFKEQ_clean_linker_1, # of connection points: 2
#     Edge 9, Type (0, 0), BuildingBlock: KIFKEQ_clean_linker_1, # of connection points: 2
#     Edge 10, Type (0, 0), BuildingBlock: KIFKEQ_clean_linker_1, # of connection points: 2
#     Edge 11, Type (0, 0), BuildingBlock: KIFKEQ_clean_linker_1, # of connection points: 2
#     Edge 12, Type (0, 0), BuildingBlock: KIFKEQ_clean_linker_1, # of connection points: 2
#     Edge 13, Type (0, 0), BuildingBlock: KIFKEQ_clean_linker_1, # of connection points: 2
#     Edge 14, Type (0, 0), BuildingBlock: KIFKEQ_clean_linker_1, # of connection points: 2
#     Edge 15, Type (0, 0), BuildingBlock: KIFKEQ_clean_linker_1, # of connection points: 2
#     Edge 16, Type (0, 0), BuildingBlock: KIFKEQ_clean_linker_1, # of connection points: 2
#     Edge 17, Type (0, 0), BuildingBlock: KIFKEQ_clean_linker_1, # of connection points: 2
#     Edge 18, Type (0, 0), BuildingBlock: KIFKEQ_clean_linker_1, # of connection points: 2
#     Edge 19, Type (0, 0), BuildingBlock: KIFKEQ_clean_linker_1, # of connection points: 2
#     Edge 20, Type (0, 0), BuildingBlock: KIFKEQ_clean_linker_1, # of connection points: 2
#     Edge 21, Type (0, 0), BuildingBlock: KIFKEQ_clean_linker_1, # of connection points: 2
#     Edge 22, Type (0, 0), BuildingBlock: KIFKEQ_clean_linker_1, # of connection points: 2
#     Edge 23, Type (0, 0), BuildingBlock: KIFKEQ_clean_linker_1, # of connection points: 2
#     Edge 24, Type (0, 0), BuildingBlock: KIFKEQ_clean_linker_1, # of connection points: 2
#     Edge 25, Type (0, 0), BuildingBlock: KIFKEQ_clean_linker_1, # of connection points: 2
#     Edge 26, Type (0, 0), BuildingBlock: KIFKEQ_clean_linker_1, # of connection points: 2
#     Edge 27, Type (0, 0), BuildingBlock: KIFKEQ_clean_linker_1, # of connection points: 2
# Relax obj value: 0.459
# Max RMSD: 0.226
# Mean RMSD: 0.226
data_MOF--net-wgu--node1-BEQFEK_clean_sbu_0--edge1-KIFKEQ_clean_linker_1
_symmetry_space_group_name_H-M    P1
_symmetry_Int_Tables_number       1
_symmetry_cell_setting            triclinic
loop_
_symmetry_equiv_pos_as_xyz
'x, y, z'
_cell_length_a     33.163996
_cell_length_b     33.205562
_cell_length_c     28.439408
_cell_angle_alpha  90.027625
_cell_angle_beta   90.049507
_cell_angle_gamma 89.99884
loop_
_atom_site_label
_atom_site_type_symbol
_atom_site_fract_x
_atom_site_fract_y
_atom_site_fract_z
_atom_type_partial_charge
Co0 Co 0.30256 0.39401 0.03972 0.0
Co1 Co 0.36399 0.32275 0.04291 0.0
C2 C 0.30497 0.33328 0.96268 0.0
O3 O 0.28933 0.36447 0.98113 0.0
O4 O 0.33424 0.31513 0.98248 0.0
C5 C 0.2478 0.45584 1.01302 0.0
O6 O 0.2634 0.44956 0.9712 0.0
C7 C 0.38425 0.23775 0.04164 0.0
C8 C 0.44304 0.23487 0.07796 0.0
C9 C 0.41354 0.21125 0.0572 0.0
N10 N 0.39588 0.27543 0.05209 0.0
N11 N 0.43139 0.27363 0.07322 0.0
C12 C 0.34322 0.22694 1.02352 0.0
H13 H 0.32163 0.25195 1.02918 0.0
H14 H 0.3317 0.19955 0.04139 0.0
H15 H 0.34537 0.22025 0.98543 0.0
C16 C 0.27904 0.35904 0.13174 0.0
N17 N 0.30169 0.35902 0.09242 0.0
N18 N 0.32718 0.3287 0.09402 0.0
C19 C 0.32142 0.30827 0.13452 0.0
C20 C 0.29065 0.32681 0.15983 0.0
C21 C 0.24869 0.39094 0.14317 0.0
H22 H 0.22261 0.38808 0.11892 0.0
H23 H 0.23802 0.3888 0.18003 0.0
H24 H 0.26234 0.42106 0.13764 0.0
O25 O 0.35589 0.42126 1.03468 0.0
O26 O 0.39998 0.37097 0.03923 0.0
H27 H 0.37653 0.27686 0.14836 0.0
H28 H 0.3341 0.25835 0.18193 0.0
C29 C 0.34369 0.27065 0.14755 0.0
H30 H 0.33789 0.24729 0.12066 0.0
H31 H 0.44689 0.29868 0.08604 0.0
O32 O 0.2606 0.43552 0.04778 0.0
C33 C 0.39216 0.4085 1.03565 0.0
Co34 Co 0.62354 0.30875 0.53558 0.0
Co35 Co 0.69552 0.36949 0.53855 0.0
C36 C 0.68421 0.30966 0.4588 0.0
O37 O 0.65229 0.29478 0.47656 0.0
O38 O 0.70285 0.33843 0.479 0.0
C39 C 0.57658 0.23483 0.52861 0.0
O40 O 0.60598 0.22097 0.50224 0.0
C41 C 0.78125 0.38637 0.5405 0.0
C42 C 0.78502 0.44666 0.573 0.0
C43 C 0.80825 0.41526 0.55584 0.0
N44 N 0.74367 0.4 0.54769 0.0
N45 N 0.74603 0.43639 0.56645 0.0
C46 C 0.79107 0.34429 0.52538 0.0
H47 H 0.76485 0.32407 0.53065 0.0
H48 H 0.81726 0.33251 0.54543 0.0
H49 H 0.79932 0.34453 0.48761 0.0
C50 C 0.6599 0.28345 0.62647 0.0
N51 N 0.65908 0.30692 0.5878 0.0
N52 N 0.68833 0.33363 0.59042 0.0
C53 C 0.70816 0.32846 0.6315 0.0
C54 C 0.69096 0.29636 0.65544 0.0
C55 C 0.63055 0.25027 0.6361 0.0
H56 H 0.59943 0.2625 0.63519 0.0
H57 H 0.63306 0.22714 0.60811 0.0
H58 H 0.63601 0.23604 0.67082 0.0
O59 O 0.59807 0.363 0.53133 0.0
O60 O 0.64867 0.40679 0.53305 0.0
H61 H 0.73681 0.38558 0.64203 0.0
H62 H 0.75086 0.34779 0.68472 0.0
C63 C 0.74342 0.35318 0.64724 0.0
H64 H 0.77014 0.34513 0.62585 0.0
H65 H 0.72109 0.45343 0.57666 0.0
O66 O 0.57887 0.27026 0.54537 0.0
C67 C 0.61104 0.39914 0.5308 0.0
Co68 Co 0.71282 0.61921 0.03922 0.0
Co69 Co 0.65508 0.69342 0.04417 0.0
C70 C 0.71324 0.68153 0.96371 0.0
O71 O 0.72756 0.64952 0.98167 0.0
O72 O 0.68468 0.70057 0.98371 0.0
C73 C 0.78919 0.57777 0.04113 0.0
O74 O 0.80516 0.61395 0.03956 0.0
C75 C 0.6376 0.77941 0.04368 0.0
C76 C 0.57987 0.78378 0.08194 0.0
C77 C 0.6094 0.80668 0.06024 0.0
N78 N 0.62531 0.74202 0.05458 0.0
N79 N 0.59043 0.74475 0.07688 0.0
C80 C 0.67833 0.78916 1.02398 0.0
H81 H 0.69955 0.76378 1.0293 0.0
H82 H 0.6909 0.81651 0.04101 0.0
H83 H 0.6753 0.79539 0.98587 0.0
C84 C 0.7369 0.65079 0.13403 0.0
N85 N 0.71537 0.65267 0.09376 0.0
N86 N 0.69199 0.68472 0.09505 0.0
C87 C 0.6986 0.70468 0.13573 0.0
C88 C 0.72726 0.68381 0.16188 0.0
C89 C 0.7637 0.61639 0.14742 0.0
H90 H 0.75198 0.58787 0.13246 0.0
H91 H 0.79442 0.62186 0.13344 0.0
H92 H 0.76583 0.61343 0.18622 0.0
O93 O 0.65821 0.59541 1.03308 0.0
O94 O 0.61628 0.64725 0.03963 0.0
H95 H 0.6463 0.74002 0.15124 0.0
H96 H 0.69138 0.75708 0.18105 0.0
C97 C 0.67936 0.7441 0.14803 0.0
H98 H 0.68529 0.76602 0.11965 0.0
H99 H 0.5746 0.72011 0.09014 0.0
O100 O 0.7511 0.57377 0.04263 0.0
C101 C 0.62252 0.60955 1.03466 0.0
Co102 Co 0.39085 0.71619 0.53535 0.0
Co103 Co 0.32109 0.65307 0.53785 0.0
C104 C 0.32965 0.71294 0.45849 0.0
O105 O 0.36123 0.72838 0.47645 0.0
O106 O 0.31155 0.68374 0.47844 0.0
C107 C 0.45317 0.77063 0.50979 0.0
O108 O 0.44761 0.75455 0.46806 0.0
C109 C 0.2367 0.63014 0.54014 0.0
C110 C 0.23744 0.57078 0.57509 0.0
C111 C 0.21192 0.59985 0.55679 0.0
N112 N 0.27519 0.61948 0.54763 0.0
N113 N 0.27555 0.58358 0.56777 0.0
C114 C 0.22382 0.67095 0.52349 0.0
H115 H 0.24821 0.69332 0.52891 0.0
H116 H 0.19633 0.68105 0.54236 0.0
H117 H 0.21652 0.66922 0.48549 0.0
C118 C 0.354 0.73997 0.62609 0.0
N119 N 0.35541 0.71651 0.58746 0.0
N120 N 0.32676 0.68916 0.58985 0.0
C121 C 0.30664 0.69398 0.63077 0.0
C122 C 0.32312 0.72646 0.65489 0.0
C123 C 0.38285 0.77361 0.63583 0.0
H124 H 0.41406 0.76158 0.63617 0.0
H125 H 0.38087 0.79615 0.60712 0.0
H126 H 0.3766 0.78843 0.67001 0.0
O127 O 0.41947 0.6635 0.53131 0.0
O128 O 0.36993 0.61845 0.53182 0.0
H129 H 0.27931 0.63643 0.64241 0.0
H130 H 0.26282 0.67503 0.68288 0.0
C131 C 0.27161 0.66875 0.646 0.0
H132 H 0.24539 0.67531 0.62311 0.0
H133 H 0.30169 0.56874 0.5786 0.0
O134 O 0.43189 0.75854 0.54408 0.0
C135 C 0.40738 0.62705 0.53009 0.0
Co136 Co 0.80315 0.12613 0.08766 0.0
Co137 Co 0.86437 0.19769 0.08379 0.0
C138 C 0.80427 0.18754 0.16356 0.0
O139 O 0.78897 0.15574 0.14598 0.0
O140 O 0.83341 0.20562 0.14337 0.0
C141 C 0.72929 0.07903 0.09558 0.0
O142 O 0.7159 0.10812 0.12272 0.0
C143 C 0.8838 0.28293 0.08219 0.0
C144 C 0.94379 0.28479 0.04863 0.0
C145 C 0.9135 0.30893 0.06675 0.0
N146 N 0.89595 0.24499 0.07424 0.0
N147 N 0.93217 0.2462 0.05484 0.0
C148 C 0.84237 0.29419 0.09842 0.0
H149 H 0.82106 0.26881 0.09342 0.0
H150 H 0.83121 0.3209 0.07887 0.0
H151 H 0.84365 0.30225 0.13622 0.0
C152 C 0.77852 0.16169 0.99589 0.0
N153 N 0.80185 0.16109 1.03474 0.0
N154 N 0.82847 0.19042 1.03215 0.0
C155 C 0.82339 0.21008 0.99102 0.0
C156 C 0.79147 0.19265 0.96686 0.0
C157 C 0.74533 0.13231 0.98624 0.0
H158 H 0.7576 0.10124 0.9873 0.0
H159 H 0.72215 0.13487 1.01418 0.0
H160 H 0.73112 0.13766 0.95146 0.0
O161 O 0.85731 0.10039 0.09379 0.0
O162 O 0.90113 0.15075 0.08896 0.0
H163 H 0.88047 0.23851 0.97944 0.0
H164 H 0.84167 0.25381 0.93851 0.0
C165 C 0.84796 0.24547 0.97554 0.0
H166 H 0.84073 0.2717 0.99809 0.0
H167 H 0.94819 0.22079 0.04405 0.0
O168 O 0.76443 0.08153 0.07799 0.0
C169 C 0.89351 0.11331 0.09311 0.0
Co170 Co 0.90161 0.79816 0.59421 0.0
Co171 Co 0.82885 0.8575 0.58883 0.0
C172 C 0.83869 0.7989 0.66907 0.0
O173 O 0.87101 0.78419 0.65216 0.0
O174 O 0.82034 0.82744 0.64829 0.0
C175 C 0.94321 0.72169 0.59505 0.0
O176 O 0.90734 0.70572 0.60095 0.0
C177 C 0.74324 0.87193 0.58438 0.0
C178 C 0.73795 0.93399 0.55717 0.0
C179 C 0.71543 0.9009 0.5711 0.0
N180 N 0.7804 0.88714 0.57902 0.0
N181 N 0.77718 0.92448 0.56332 0.0
C182 C 0.73498 0.82874 0.59624 0.0
H183 H 0.76218 0.80997 0.59044 0.0
H184 H 0.7098 0.81688 0.57455 0.0
H185 H 0.72609 0.82655 0.63371 0.0
C186 C 0.86856 0.77327 0.50027 0.0
N187 N 0.86799 0.7959 0.53977 0.0
N188 N 0.83733 0.8211 0.53756 0.0
C189 C 0.81735 0.81491 0.49679 0.0
C190 C 0.83621 0.78427 0.47219 0.0
C191 C 0.89914 0.74144 0.48965 0.0
H192 H 0.92954 0.75181 0.50043 0.0
H193 H 0.89157 0.71383 0.50966 0.0
H194 H 0.89941 0.7338 0.45167 0.0
O195 O 0.92646 0.85257 0.599 0.0
O196 O 0.8751 0.89541 0.59517 0.0
H197 H 0.77746 0.83553 0.44165 0.0
H198 H 0.7543 0.82815 0.49805 0.0
C199 C 0.78191 0.83893 0.48014 0.0
H200 H 0.78639 0.87121 0.48841 0.0
H201 H 0.80169 0.94294 0.55538 0.0
O202 O 0.9468 0.75958 0.59035 0.0
C203 C 0.9128 0.88846 0.59871 0.0
Co204 Co 0.2129 0.89794 0.08747 0.0
Co205 Co 0.15132 0.82695 0.08327 0.0
C206 C 0.21136 0.83704 0.1634 0.0
O207 O 0.22715 0.86858 0.14591 0.0
O208 O 0.18211 0.81939 0.14295 0.0
C209 C 0.28747 0.9433 0.09505 0.0
O210 O 0.30027 0.91343 0.12139 0.0
C211 C 0.13727 0.74169 0.08069 0.0
C212 C 0.07477 0.7353 0.05488 0.0
C213 C 0.10839 0.71343 0.06865 0.0
N214 N 0.12153 0.77853 0.07491 0.0
N215 N 0.08394 0.77468 0.06001 0.0
C216 C 0.18085 0.7341 0.09152 0.0
H217 H 0.19922 0.76136 0.08459 0.0
H218 H 0.19254 0.70875 0.07004 0.0
H219 H 0.18397 0.72585 0.1291 0.0
C220 C 0.23747 0.86214 0.99564 0.0
N221 N 0.21418 0.86295 1.0345 0.0
N222 N 0.18691 0.83427 1.03149 0.0
C223 C 0.19129 0.81505 0.98996 0.0
C224 C 0.22367 0.83183 0.96614 0.0
C225 C 0.27137 0.89075 0.98637 0.0
H226 H 0.2598 0.92209 0.98736 0.0
H227 H 0.29434 0.88765 1.01452 0.0
H228 H 0.28564 0.88508 0.95171 0.0
O229 O 0.1585 0.92364 0.09339 0.0
O230 O 0.11427 0.87354 0.08821 0.0
H231 H 0.13332 0.78725 0.98194 0.0
H232 H 0.16833 0.77588 0.93514 0.0
C233 C 0.16532 0.78097 0.97349 0.0
H234 H 0.17455 0.75297 0.99174 0.0
H235 H 0.06507 0.79884 0.05191 0.0
O236 O 0.25205 0.94213 0.07794 0.0
C237 C 0.12218 0.91093 0.0925 0.0
Co238 Co 0.11908 0.21291 0.59278 0.0
Co239 Co 0.19274 0.15427 0.58799 0.0
C240 C 0.18177 0.21295 0.66809 0.0
O241 O 0.14941 0.22734 0.65085 0.0
O242 O 0.20051 0.18451 0.64757 0.0
C243 C 0.07643 0.28892 0.59291 0.0
O244 O 0.11205 0.30528 0.5996 0.0
C245 C 0.2787 0.13954 0.58549 0.0
C246 C 0.2842 0.07858 0.55511 0.0
C247 C 0.30652 0.11088 0.57169 0.0
N248 N 0.24152 0.12495 0.57806 0.0
N249 N 0.24489 0.08824 0.56037 0.0
C250 C 0.2874 0.18205 0.59995 0.0
H251 H 0.26068 0.20153 0.59435 0.0
H252 H 0.31325 0.19422 0.57965 0.0
H253 H 0.29578 0.18252 0.63767 0.0
C254 C 0.152 0.2376 0.49899 0.0
N255 N 0.15289 0.21529 0.53868 0.0
N256 N 0.184 0.19062 0.53685 0.0
C257 C 0.20402 0.19692 0.49619 0.0
C258 C 0.18458 0.22695 0.4712 0.0
C259 C 0.12063 0.26845 0.48761 0.0
H260 H 0.09044 0.25734 0.49813 0.0
H261 H 0.12724 0.29644 0.50742 0.0
H262 H 0.1205 0.2757 0.44952 0.0
O263 O 0.09496 0.15828 0.59765 0.0
O264 O 0.14673 0.11592 0.59404 0.0
H265 H 0.24656 0.1789 0.44248 0.0
H266 H 0.26695 0.18379 0.50082 0.0
C267 C 0.24032 0.17384 0.48036 0.0
H268 H 0.2356 0.14124 0.48641 0.0
H269 H 0.22046 0.07032 0.55058 0.0
O270 O 0.0734 0.25098 0.58816 0.0
C271 C 0.10895 0.12253 0.59745 0.0
H272 H 0.36163 0.96063 0.13302 0.0
H273 H 0.27213 1.00583 1.03588 0.0
H274 H 0.40234 0.02112 0.12011 0.0
H275 H 0.31212 0.06603 1.02377 0.0
H276 H 0.3968 0.16098 0.98468 0.0
H277 H 0.37417 0.09119 0.99029 0.0
H278 H 0.3968 0.09306 0.13997 0.0
H279 H 0.42032 0.1627 0.13381 0.0
C280 C 0.35078 0.98329 0.10872 0.0
C281 C 0.31352 0.97856 0.08571 0.0
C282 C 0.37404 0.01794 0.10145 0.0
C283 C 0.36059 0.04831 0.07077 0.0
C284 C 0.3238 0.04294 0.04697 0.0
C285 C 0.3006 1.00854 0.05431 0.0
C286 C 0.39788 0.14599 1.01849 0.0
C287 C 0.40969 0.16708 0.05892 0.0
C288 C 0.38472 0.1062 1.02181 0.0
C289 C 0.38281 0.0869 0.06575 0.0
C290 C 0.39799 0.10701 0.10559 0.0
C291 C 0.41147 0.14684 0.10214 0.0
H292 H 0.99999 0.26687 0.61475 0.0
H293 H 0.07048 0.36756 0.56481 0.0
H294 H 0.93861 0.3072 0.60776 0.0
H295 H 1.00836 0.40758 0.55657 0.0
H296 H 0.86247 0.39757 0.48758 0.0
H297 H 0.93202 0.37422 0.49897 0.0
H298 H 0.9207 0.39373 0.6483 0.0
H299 H 0.85143 0.41814 0.63681 0.0
C300 C 1.00234 0.29764 0.60239 0.0
C301 C 0.03991 0.31413 0.59024 0.0
C302 C 0.96734 0.32066 0.59868 0.0
C303 C 0.96917 0.3603 0.58196 0.0
C304 C 1.00657 0.37708 0.56991 0.0
C305 C 0.04188 0.35426 0.57462 0.0
C306 C 0.87544 0.39814 0.52256 0.0
C307 C 0.852 0.40968 0.56135 0.0
C308 C 0.91503 0.38492 0.52901 0.0
C309 C 0.93136 0.38252 0.57441 0.0
C310 C 0.90864 0.39589 0.61297 0.0
C311 C 0.86927 0.40988 0.6064 0.0
H312 H 0.65567 0.05931 0.13332 0.0
H313 H 0.74694 0.01663 1.03702 0.0
H314 H 0.61732 0.99722 0.12099 0.0
H315 H 0.70938 0.9548 1.0256 0.0
H316 H 0.62747 0.85632 0.98744 0.0
H317 H 0.64897 0.92648 0.99235 0.0
H318 H 0.62469 0.92608 0.14166 0.0
H319 H 0.60231 0.85605 0.13618 0.0
C320 C 0.66742 0.03686 0.10934 0.0
C321 C 0.70449 0.04281 0.08639 0.0
C322 C 0.64553 1.00126 0.10243 0.0
C323 C 0.6602 0.97108 0.07223 0.0
C324 C 0.69676 0.97765 0.04845 0.0
C325 C 0.71857 0.01303 0.05538 0.0
C326 C 0.62602 0.87161 1.02105 0.0
C327 C 0.61396 0.85083 0.06158 0.0
C328 C 0.63848 0.91166 1.02397 0.0
C329 C 0.6394 0.93162 0.06758 0.0
C330 C 0.62425 0.91167 0.1075 0.0
C331 C 0.61146 0.87159 0.10445 0.0
H332 H 0.01835 0.74148 0.62417 0.0
H333 H 0.94974 0.64469 0.56163 0.0
H334 H 0.0797 0.70108 0.6181 0.0
H335 H 0.01191 0.60465 0.55409 0.0
H336 H 0.15457 0.60978 0.48977 0.0
H337 H 0.08452 0.63096 0.50253 0.0
H338 H 0.10216 0.62224 0.65248 0.0
H339 H 0.17184 0.59987 0.63966 0.0
C340 C 0.01643 0.71148 0.60931 0.0
C341 C 0.97946 0.69613 0.5933 0.0
C342 C 0.05139 0.68836 0.60617 0.0
C343 C 0.05017 0.64985 0.58598 0.0
C344 C 0.01327 0.63422 0.57012 0.0
C345 C 0.97792 0.65703 0.57444 0.0
C346 C 0.14284 0.6109 0.52529 0.0
C347 C 0.16814 0.60307 0.56378 0.0
C348 C 0.10296 0.62291 0.53256 0.0
C349 C 0.08829 0.62804 0.57842 0.0
C350 C 0.11294 0.61809 0.61684 0.0
C351 C 0.15255 0.60521 0.60953 0.0
H352 H 0.86475 0.56955 0.07856 0.0
H353 H 0.77133 0.50462 1.00458 0.0
H354 H 0.90506 0.50742 0.08311 0.0
H355 H 0.81203 0.44338 1.0078 0.0
H356 H 0.91309 0.35197 0.98592 0.0
H357 H 0.88994 0.42174 0.97647 0.0
H358 H 0.88011 0.43352 0.12712 0.0
H359 H 0.90206 0.36341 0.13644 0.0
C360 C 0.85322 0.54222 0.06266 0.0
C361 C 0.81495 0.54166 0.04142 0.0
C362 C 0.87619 0.50689 0.06526 0.0
C363 C 0.86162 0.47103 0.04537 0.0
C364 C 0.82399 0.47089 1.02285 0.0
C365 C 0.80066 0.50577 1.02135 0.0
C366 C 0.90725 0.37001 1.01694 0.0
C367 C 0.90935 0.35277 0.06187 0.0
C368 C 0.89392 0.40966 1.01155 0.0
C369 C 0.88347 0.4327 0.05112 0.0
C370 C 0.88849 0.41635 0.09622 0.0
C371 C 0.90093 0.37643 0.10153 0.0
H372 H 0.51229 0.79314 0.44844 0.0
H373 H 0.46798 0.81475 0.58907 0.0
H374 H 0.57079 0.83503 0.46478 0.0
H375 H 0.52595 0.85777 0.60498 0.0
H376 H 0.66389 0.86677 0.63373 0.0
H377 H 0.5956 0.84368 0.6184 0.0
H378 H 0.59889 0.90045 0.48163 0.0
H379 H 0.66831 0.92206 0.49661 0.0
C380 C 0.51463 0.80749 0.48255 0.0
C381 C 0.48588 0.80008 0.51771 0.0
C382 C 0.54804 0.83185 0.49181 0.0
C383 C 0.55325 0.84956 0.53635 0.0
C384 C 0.52321 0.844 0.57059 0.0
C385 C 0.48995 0.81941 0.56144 0.0
C386 C 0.64983 0.87458 0.60059 0.0
C387 C 0.67158 0.89512 0.56581 0.0
C388 C 0.61048 0.86182 0.59196 0.0
C389 C 0.59192 0.86969 0.54844 0.0
C390 C 0.61264 0.89322 0.51514 0.0
C391 C 0.65217 0.90594 0.52383 0.0
H392 H 0.22389 0.51366 0.95074 0.0
H393 H 0.20267 0.46986 0.09163 0.0
H394 H 0.17946 0.57051 0.96569 0.0
H395 H 0.1571 0.52605 0.10612 0.0
H396 H 0.14277 0.66367 0.1328 0.0
H397 H 0.16815 0.59609 0.1189 0.0
H398 H 0.11279 0.59618 0.98115 0.0
H399 H 0.0888 0.66495 0.99477 0.0
C400 C 0.20913 0.51576 0.98461 0.0
C401 C 0.21734 0.48769 1.02026 0.0
C402 C 0.1833 0.54818 0.99307 0.0
C403 C 0.16487 0.55302 1.03725 0.0
C404 C 0.17135 0.5236 0.07199 0.0
C405 C 0.19744 0.49138 0.06366 0.0
C406 C 0.13562 0.64897 0.09983 0.0
C407 C 0.11481 0.66968 0.06437 0.0
C408 C 0.14975 0.61003 0.09198 0.0
C409 C 0.14305 0.59088 0.04856 0.0
C410 C 0.11914 0.61043 1.0146 0.0
C411 C 0.10503 0.64956 1.02252 0.0
H412 H 0.35598 0.13408 0.64248 0.0
H413 H 0.35557 0.10098 0.49586 0.0
H414 H 0.42563 0.15692 0.63561 0.0
H415 H 0.42509 0.12489 0.48825 0.0
H416 H 0.55818 0.15955 0.49463 0.0
H417 H 0.49669 0.12064 0.5089 0.0
H418 H 0.45203 0.21604 0.59819 0.0
H419 H 0.51322 0.25414 0.58494 0.0
C420 C 0.37117 0.13119 0.60894 0.0
C421 C 0.35053 0.1164 0.56953 0.0
C422 C 0.41091 0.14442 0.60488 0.0
C423 C 0.43062 0.14358 0.56112 0.0
C424 C 0.41085 0.12585 0.52248 0.0
C425 C 0.37109 0.11219 0.52674 0.0
C426 C 0.53533 0.17194 0.51765 0.0
C427 C 0.54051 0.21002 0.53847 0.0
C428 C 0.50009 0.14972 0.52567 0.0
C429 C 0.46952 0.16511 0.55486 0.0
C430 C 0.47523 0.20285 0.57627 0.0
C431 C 0.51025 0.22495 0.56827 0.0
H432 H 0.62368 0.53099 1.00618 0.0
H433 H 0.54314 0.62347 0.057 0.0
H434 H 0.56817 0.4833 1.00409 0.0
H435 H 0.48767 0.57522 0.05674 0.0
H436 H 0.3883 0.48845 1.01228 0.0
H437 H 0.44314 0.53714 1.00954 0.0
H438 H 0.5268 0.44466 0.05352 0.0
H439 H 0.47221 0.39572 0.05442 0.0
C440 C 0.59411 0.54115 1.01714 0.0
C441 C 0.58796 0.58112 1.03186 0.0
C442 C 0.56221 0.51361 1.01628 0.0
C443 C 0.52328 0.52508 1.03063 0.0
C444 C 0.51703 0.56528 0.04483 0.0
C445 C 0.54892 0.59299 0.04521 0.0
C446 C 0.41844 0.47846 1.02121 0.0
C447 C 0.42579 0.43807 1.03347 0.0
C448 C 0.44993 0.50652 1.01996 0.0
C449 C 0.48962 0.49507 1.03135 0.0
C450 C 0.49688 0.45461 0.04365 0.0
C451 C 0.46545 0.42647 0.04444 0.0
H452 H 0.53041 0.39625 0.54985 0.0
H453 H 0.62474 0.4781 0.50731 0.0
H454 H 0.48208 0.45116 0.54899 0.0
H455 H 0.57593 0.53293 0.50404 0.0
H456 H 0.488 0.63093 0.5501 0.0
H457 H 0.53694 0.57637 0.54963 0.0
H458 H 0.44435 0.49416 0.50198 0.0
H459 H 0.39509 0.54842 0.50487 0.0
C460 C 0.54076 0.42594 0.53969 0.0
C461 C 0.58151 0.43273 0.52868 0.0
C462 C 0.51288 0.45753 0.53886 0.0
C463 C 0.52478 0.49677 0.52626 0.0
C464 C 0.56558 0.50341 0.51474 0.0
C465 C 0.59362 0.47187 0.51628 0.0
C466 C 0.47812 0.6012 0.53944 0.0
C467 C 0.43755 0.59405 0.52771 0.0
C468 C 0.50632 0.56984 0.53885 0.0
C469 C 0.49487 0.53054 0.52583 0.0
C470 C 0.45434 0.52368 0.51321 0.0
C471 C 0.42602 0.55492 0.51452 0.0
H472 H 0.04242 0.89841 0.07241 0.0
H473 H 0.12578 0.99022 0.11874 0.0
H474 H 0.98782 0.94731 0.07368 0.0
H475 H 0.07088 0.03881 0.12196 0.0
H476 H 0.9732 0.12616 0.07295 0.0
H477 H 0.02795 0.07738 0.07389 0.0
H478 H 0.94532 0.98566 0.12232 0.0
H479 H 0.89031 0.03409 0.11942 0.0
C480 C 0.04903 0.92894 0.08344 0.0
C481 C 0.08855 0.94037 0.09534 0.0
C482 C 0.01759 0.95703 0.08445 0.0
C483 C 0.02473 0.99721 0.09794 0.0
C484 C 0.06423 1.00842 0.11055 0.0
C485 C 0.09575 0.98043 0.10901 0.0
C486 C 0.96674 0.09561 0.08395 0.0
C487 C 0.92729 0.08405 0.09595 0.0
C488 C 0.99826 0.06759 0.08477 0.0
C489 C 0.99126 0.02736 0.09813 0.0
C490 C 0.95185 0.01607 0.11094 0.0
C491 C 0.92026 0.04397 0.1096 0.0
H492 H 0.99348 0.88734 0.57973 0.0
H493 H 0.89735 0.96683 0.62293 0.0
H494 H 0.04046 0.94346 0.58029 0.0
H495 H 0.94477 0.0228 0.62607 0.0
H496 H 0.02832 0.12309 0.57835 0.0
H497 H 0.98155 0.06685 0.5796 0.0
H498 H 0.07768 0.98814 0.62576 0.0
H499 H 0.12491 0.04427 0.62194 0.0
C500 C 0.98248 0.91677 0.59002 0.0
C501 C 0.94161 0.9226 0.60116 0.0
C502 C 1.00957 0.94904 0.59068 0.0
C503 C 0.99669 0.98798 0.60326 0.0
C504 C 0.95583 0.99357 0.61524 0.0
C505 C 0.92858 0.96138 0.61378 0.0
C506 C 0.03947 0.09378 0.58886 0.0
C507 C 0.0804 0.08818 0.59996 0.0
C508 C 0.0125 0.06143 0.58993 0.0
C509 C 0.02553 0.02265 0.60291 0.0
C510 C 0.06648 0.01726 0.61469 0.0
C511 C 0.09363 0.04953 0.61283 0.0
H512 H 0.33199 0.31199 0.24082 0.0
H513 H 0.21178 0.31527 0.18314 0.0
H514 H 0.30524 0.2887 0.31575 0.0
H515 H 0.18428 0.2948 0.25908 0.0
H516 H 0.15289 0.21373 0.38444 0.0
H517 H 0.1779 0.23921 0.30922 0.0
H518 H 0.26979 0.30697 0.38299 0.0
H519 H 0.2457 0.27947 0.4575 0.0
C520 C 0.29973 0.30787 0.2444 0.0
C521 C 0.27398 0.31489 0.20613 0.0
C522 C 0.28423 0.29509 0.28758 0.0
C523 C 0.24243 0.28976 0.29382 0.0
C524 C 0.21663 0.2978 0.25557 0.0
C525 C 0.23228 0.31002 0.21218 0.0
C526 C 0.17826 0.23427 0.38417 0.0
C527 C 0.19745 0.24487 0.42626 0.0
C528 C 0.19253 0.24911 0.34123 0.0
C529 C 0.22606 0.27521 0.33971 0.0
C530 C 0.2445 0.28637 0.38244 0.0
C531 C 0.23054 0.27104 0.4252 0.0
H532 H 0.82836 0.18891 0.88178 0.0
H533 H 0.71745 0.22419 0.94908 0.0
H534 H 0.80213 0.21234 0.80589 0.0
H535 H 0.69109 0.24805 0.87333 0.0
H536 H 0.72285 0.22244 0.67222 0.0
H537 H 0.74583 0.19504 0.74782 0.0
H538 H 0.70953 0.30509 0.81685 0.0
H539 H 0.68696 0.33237 0.7411 0.0
C540 C 0.79826 0.20151 0.88006 0.0
C541 C 0.77482 0.20492 0.92088 0.0
C542 C 0.78319 0.21474 0.83679 0.0
C543 C 0.74459 0.23209 0.83375 0.0
C544 C 0.72104 0.2351 0.87471 0.0
C545 C 0.73594 0.22133 0.91787 0.0
C546 C 0.71975 0.24053 0.70372 0.0
C547 C 0.7034 0.27941 0.70122 0.0
C548 C 0.73299 0.22503 0.7468 0.0
C549 C 0.72947 0.24796 0.7882 0.0
C550 C 0.7123 0.28662 0.78562 0.0
C551 C 0.6996 0.3023 0.74242 0.0
H552 H 0.87177 0.78878 0.38611 0.0
H553 H 0.76947 0.73896 0.45886 0.0
H554 H 0.846 0.76235 0.31164 0.0
H555 H 0.74444 0.71034 0.38535 0.0
H556 H 0.68592 0.70513 0.24097 0.0
H557 H 0.7133 0.72818 0.31567 0.0
H558 H 0.8341 0.70604 0.26445 0.0
H559 H 0.80633 0.68606 0.18844 0.0
C560 C 0.84409 0.77146 0.38603 0.0
C561 C 0.82252 0.7657 0.4278 0.0
C562 C 0.82934 0.75606 0.34351 0.0
C563 C 0.79292 0.73413 0.34209 0.0
C564 C 0.77205 0.72771 0.38458 0.0
C565 C 0.78649 0.7437 0.42683 0.0
C566 C 0.71834 0.70567 0.24564 0.0
C567 C 0.74401 0.69454 0.20867 0.0
C568 C 0.73414 0.71829 0.28877 0.0
C569 C 0.77611 0.71922 0.29646 0.0
C570 C 0.80171 0.70661 0.25977 0.0
C571 C 0.78583 0.69459 0.21634 0.0
H572 H 0.18784 0.83841 0.88057 0.0
H573 H 0.29618 0.79692 0.94888 0.0
H574 H 0.21343 0.81419 0.80477 0.0
H575 H 0.32197 0.77241 0.8732 0.0
H576 H 0.29265 0.80097 0.67186 0.0
H577 H 0.26996 0.82865 0.74735 0.0
H578 H 0.30236 0.71718 0.8159 0.0
H579 H 0.32486 0.68971 0.74027 0.0
C580 C 0.21727 0.82429 0.87909 0.0
C581 C 0.24013 0.81933 0.92017 0.0
C582 C 0.23198 0.81059 0.83586 0.0
C583 C 0.26966 0.7913 0.8331 0.0
C584 C 0.29269 0.78682 0.87434 0.0
C585 C 0.27814 0.80099 0.91747 0.0
C586 C 0.29492 0.7826 0.70322 0.0
C587 C 0.31025 0.74329 0.70058 0.0
C588 C 0.28184 0.79828 0.74626 0.0
C589 C 0.28439 0.77507 0.78752 0.0
C590 C 0.30036 0.73589 0.7848 0.0
C591 C 0.31298 0.72008 0.74164 0.0
H592 H 0.76698 0.64489 0.90408 0.0
H593 H 0.7002 0.75523 0.92381 0.0
H594 H 0.79707 0.67248 0.83291 0.0
H595 H 0.7319 0.78374 0.85472 0.0
H596 H 0.7634 0.81179 0.70459 0.0
H597 H 0.73285 0.78195 0.77357 0.0
H598 H 0.84402 0.71874 0.80327 0.0
H599 H 0.87381 0.74697 0.73217 0.0
C600 C 0.7589 0.67516 0.89345 0.0
C601 C 0.73111 0.69784 0.91979 0.0
C602 C 0.77648 0.69118 0.85278 0.0
C603 C 0.76713 0.7305 0.83775 0.0
C604 C 0.7394 0.75311 0.86436 0.0
C605 C 0.72138 0.73685 0.90446 0.0
C606 C 0.78136 0.79144 0.72568 0.0
C607 C 0.82106 0.78174 0.71265 0.0
C608 C 0.76389 0.7745 0.7657 0.0
C609 C 0.78587 0.74793 0.79451 0.0
C610 C 0.8258 0.73849 0.78168 0.0
C611 C 0.84308 0.75497 0.74107 0.0
H612 H 0.36695 0.76311 0.39568 0.0
H613 H 0.25406 0.70247 0.42214 0.0
H614 H 0.33871 0.79271 0.32457 0.0
H615 H 0.22507 0.73357 0.35265 0.0
H616 H 0.19499 0.76339 0.20169 0.0
H617 H 0.22457 0.73291 0.27108 0.0
H618 H 0.29381 0.84124 0.29584 0.0
H619 H 0.26577 0.87083 0.22457 0.0
C620 C 0.33599 0.75628 0.38647 0.0
C621 C 0.31281 0.7303 0.41459 0.0
C622 C 0.31962 0.77356 0.34582 0.0
C623 C 0.27943 0.76577 0.3326 0.0
C624 C 0.25631 0.73979 0.36094 0.0
C625 C 0.27289 0.72205 0.40112 0.0
C626 C 0.21661 0.78072 0.2218 0.0
C627 C 0.2281 0.81952 0.20731 0.0
C628 C 0.23341 0.76331 0.26203 0.0
C629 C 0.26169 0.78448 0.28947 0.0
C630 C 0.27276 0.8236 0.27528 0.0
C631 C 0.25638 0.84078 0.23455 0.0
H632 H 0.14615 0.26539 0.73024 0.0
H633 H 0.25677 0.20041 0.70469 0.0
H634 H 0.17549 0.29442 0.80125 0.0
H635 H 0.28694 0.23111 0.77341 0.0
H636 H 0.31887 0.25951 0.92346 0.0
H637 H 0.2877 0.23028 0.85438 0.0
H638 H 0.22201 0.34101 0.83091 0.0
H639 H 0.25156 0.36929 0.90212 0.0
C640 C 0.17683 0.25752 0.73955 0.0
C641 C 0.19906 0.2305 0.7117 0.0
C642 C 0.19386 0.27447 0.7801 0.0
C643 C 0.23375 0.26526 0.79341 0.0
C644 C 0.25592 0.23841 0.76518 0.0
C645 C 0.23868 0.22098 0.72527 0.0
C646 C 0.29774 0.27763 0.9037 0.0
C647 C 0.28765 0.31668 0.9186 0.0
C648 C 0.27999 0.26096 0.86362 0.0
C649 C 0.25224 0.28318 0.83658 0.0
C650 C 0.24261 0.32258 0.85113 0.0
C651 C 0.25987 0.33901 0.89181 0.0
H652 H 0.75157 0.15214 0.22535 0.0
H653 H 0.81758 0.26221 0.20077 0.0
H654 H 0.72278 0.18116 0.29654 0.0
H655 H 0.7873 0.29203 0.2701 0.0
H656 H 0.75881 0.32234 0.42101 0.0
H657 H 0.78801 0.29167 0.35156 0.0
H658 H 0.67631 0.2281 0.32591 0.0
H659 H 0.6479 0.25727 0.39723 0.0
C660 C 0.75975 0.18264 0.23495 0.0
C661 C 0.78701 0.20479 0.20732 0.0
C662 C 0.74294 0.19947 0.27563 0.0
C663 C 0.75254 0.2391 0.28938 0.0
C664 C 0.77968 0.2612 0.26144 0.0
C665 C 0.79692 0.24416 0.22128 0.0
C666 C 0.74044 0.3018 0.40064 0.0
C667 C 0.70101 0.29226 0.41487 0.0
C668 C 0.75712 0.28435 0.36041 0.0
C669 C 0.73462 0.25734 0.33267 0.0
C670 C 0.69493 0.24815 0.34666 0.0
C671 C 0.67844 0.26518 0.38742 0.0
loop_
_geom_bond_atom_site_label_1
_geom_bond_atom_site_label_2
_geom_bond_distance
_geom_bond_site_symmetry_2
_ccdc_geom_bond_type
Co0 O3 1.970 1_554 S
Co0 N17 1.989 . S
Co0 O25 1.967 1_554 S
Co0 O32 1.920 . S
Co1 O4 1.966 1_554 S
Co1 N10 2.022 . S
Co1 N18 1.993 . S
Co1 O26 1.941 . S
C2 O3 1.258 . S
C2 O4 1.263 . S
O3 Co0 1.970 1_556 S
O3 C2 1.258 . S
O4 Co1 1.966 1_556 S
O4 C2 1.263 . S
C5 O6 1.235 . S
C5 O32 1.289 . S
O6 C5 1.235 . S
C7 C9 1.400 1_556 S
C7 N10 1.351 1_556 S
C7 C12 1.501 . S
C8 C9 1.387 . S
C8 N11 1.341 . S
C9 C7 1.400 1_554 S
C9 C8 1.387 . S
N10 Co1 2.022 . S
N10 C7 1.351 1_554 S
N10 N11 1.365 . S
N11 C8 1.341 . S
N11 N10 1.365 . S
N11 H31 0.862 . S
C12 C7 1.501 . S
C12 H13 0.961 . S
C12 H14 0.961 . S
C12 H15 0.960 . S
H13 C12 0.961 . S
H14 C12 0.961 . S
H15 C12 0.960 . S
C16 N17 1.342 . S
C16 C20 1.401 . S
C16 C21 1.499 . S
N17 Co0 1.989 . S
N17 C16 1.342 . S
N17 N18 1.388 . S
N18 Co1 1.993 . S
N18 N17 1.388 . S
N18 C19 1.346 . S
C19 N18 1.346 . S
C19 C20 1.396 . S
C19 C29 1.510 . S
C20 C16 1.401 . S
C20 C19 1.396 . S
C21 C16 1.499 . S
C21 H22 0.959 . S
C21 H23 0.960 . S
C21 H24 0.961 . S
H22 C21 0.959 . S
H23 C21 0.960 . S
H24 C21 0.961 . S
O25 Co0 1.967 1_556 S
O25 C33 1.258 . S
O26 Co1 1.941 . S
O26 C33 1.266 1_554 S
H27 C29 0.959 . S
H28 C29 0.961 . S
C29 C19 1.510 . S
C29 H27 0.959 . S
C29 H28 0.961 . S
C29 H30 0.960 . S
H30 C29 0.960 . S
H31 N11 0.862 . S
O32 Co0 1.920 . S
O32 C5 1.289 . S
C33 O25 1.258 . S
C33 O26 1.266 1_556 S
Co34 O37 1.970 . S
Co34 N51 1.989 . S
Co34 O59 1.967 . S
Co34 O66 1.920 . S
Co35 O38 1.966 . S
Co35 N44 2.022 . S
Co35 N52 1.993 . S
Co35 O60 1.941 . S
C36 O37 1.258 . S
C36 O38 1.263 . S
O37 Co34 1.970 . S
O37 C36 1.258 . S
O38 Co35 1.966 . S
O38 C36 1.263 . S
C39 O40 1.235 . S
C39 O66 1.289 . S
O40 C39 1.235 . S
C41 C43 1.400 . S
C41 N44 1.351 . S
C41 C46 1.501 . S
C42 C43 1.387 . S
C42 N45 1.341 . S
C43 C41 1.400 . S
C43 C42 1.387 . S
N44 Co35 2.022 . S
N44 C41 1.351 . S
N44 N45 1.365 . S
N45 C42 1.341 . S
N45 N44 1.365 . S
N45 H65 0.862 . S
C46 C41 1.501 . S
C46 H47 0.961 . S
C46 H48 0.961 . S
C46 H49 0.960 . S
H47 C46 0.961 . S
H48 C46 0.961 . S
H49 C46 0.960 . S
C50 N51 1.342 . S
C50 C54 1.401 . S
C50 C55 1.499 . S
N51 Co34 1.989 . S
N51 C50 1.342 . S
N51 N52 1.388 . S
N52 Co35 1.993 . S
N52 N51 1.388 . S
N52 C53 1.346 . S
C53 N52 1.346 . S
C53 C54 1.396 . S
C53 C63 1.510 . S
C54 C50 1.401 . S
C54 C53 1.396 . S
C55 C50 1.499 . S
C55 H56 0.959 . S
C55 H57 0.960 . S
C55 H58 0.961 . S
H56 C55 0.959 . S
H57 C55 0.960 . S
H58 C55 0.961 . S
O59 Co34 1.967 . S
O59 C67 1.258 . S
O60 Co35 1.941 . S
O60 C67 1.266 . S
H61 C63 0.959 . S
H62 C63 0.961 . S
C63 C53 1.510 . S
C63 H61 0.959 . S
C63 H62 0.961 . S
C63 H64 0.960 . S
H64 C63 0.960 . S
H65 N45 0.862 . S
O66 Co34 1.920 . S
O66 C39 1.289 . S
C67 O59 1.258 . S
C67 O60 1.266 . S
Co68 O71 1.970 1_554 S
Co68 N85 1.989 . S
Co68 O93 1.967 1_554 S
Co68 O100 1.920 . S
Co69 O72 1.966 1_554 S
Co69 N78 2.022 . S
Co69 N86 1.993 . S
Co69 O94 1.941 . S
C70 O71 1.258 . S
C70 O72 1.263 . S
O71 Co68 1.970 1_556 S
O71 C70 1.258 . S
O72 Co69 1.966 1_556 S
O72 C70 1.263 . S
C73 O74 1.235 . S
C73 O100 1.289 . S
O74 C73 1.235 . S
C75 C77 1.400 1_556 S
C75 N78 1.351 1_556 S
C75 C80 1.501 . S
C76 C77 1.387 . S
C76 N79 1.341 . S
C77 C75 1.400 1_554 S
C77 C76 1.387 . S
N78 Co69 2.022 . S
N78 C75 1.351 1_554 S
N78 N79 1.365 . S
N79 C76 1.341 . S
N79 N78 1.365 . S
N79 H99 0.862 . S
C80 C75 1.501 . S
C80 H81 0.961 . S
C80 H82 0.961 . S
C80 H83 0.960 . S
H81 C80 0.961 . S
H82 C80 0.961 . S
H83 C80 0.960 . S
C84 N85 1.342 . S
C84 C88 1.401 . S
C84 C89 1.499 . S
N85 Co68 1.989 . S
N85 C84 1.342 . S
N85 N86 1.388 . S
N86 Co69 1.993 . S
N86 N85 1.388 . S
N86 C87 1.346 . S
C87 N86 1.346 . S
C87 C88 1.396 . S
C87 C97 1.510 . S
C88 C84 1.401 . S
C88 C87 1.396 . S
C89 C84 1.499 . S
C89 H90 0.959 . S
C89 H91 0.960 . S
C89 H92 0.961 . S
H90 C89 0.959 . S
H91 C89 0.960 . S
H92 C89 0.961 . S
O93 Co68 1.967 1_556 S
O93 C101 1.258 . S
O94 Co69 1.941 . S
O94 C101 1.266 1_554 S
H95 C97 0.959 . S
H96 C97 0.961 . S
C97 C87 1.510 . S
C97 H95 0.959 . S
C97 H96 0.961 . S
C97 H98 0.960 . S
H98 C97 0.960 . S
H99 N79 0.862 . S
O100 Co68 1.920 . S
O100 C73 1.289 . S
C101 O93 1.258 . S
C101 O94 1.266 1_556 S
Co102 O105 1.970 . S
Co102 N119 1.989 . S
Co102 O127 1.967 . S
Co102 O134 1.920 . S
Co103 O106 1.966 . S
Co103 N112 2.022 . S
Co103 N120 1.993 . S
Co103 O128 1.941 . S
C104 O105 1.258 . S
C104 O106 1.263 . S
O105 Co102 1.970 . S
O105 C104 1.258 . S
O106 Co103 1.966 . S
O106 C104 1.263 . S
C107 O108 1.235 . S
C107 O134 1.289 . S
O108 C107 1.235 . S
C109 C111 1.400 . S
C109 N112 1.351 . S
C109 C114 1.501 . S
C110 C111 1.387 . S
C110 N113 1.341 . S
C111 C109 1.400 . S
C111 C110 1.387 . S
N112 Co103 2.022 . S
N112 C109 1.351 . S
N112 N113 1.365 . S
N113 C110 1.341 . S
N113 N112 1.365 . S
N113 H133 0.862 . S
C114 C109 1.501 . S
C114 H115 0.961 . S
C114 H116 0.961 . S
C114 H117 0.960 . S
H115 C114 0.961 . S
H116 C114 0.961 . S
H117 C114 0.960 . S
C118 N119 1.342 . S
C118 C122 1.401 . S
C118 C123 1.499 . S
N119 Co102 1.989 . S
N119 C118 1.342 . S
N119 N120 1.388 . S
N120 Co103 1.993 . S
N120 N119 1.388 . S
N120 C121 1.346 . S
C121 N120 1.346 . S
C121 C122 1.396 . S
C121 C131 1.510 . S
C122 C118 1.401 . S
C122 C121 1.396 . S
C123 C118 1.499 . S
C123 H124 0.959 . S
C123 H125 0.960 . S
C123 H126 0.961 . S
H124 C123 0.959 . S
H125 C123 0.960 . S
H126 C123 0.961 . S
O127 Co102 1.967 . S
O127 C135 1.258 . S
O128 Co103 1.941 . S
O128 C135 1.266 . S
H129 C131 0.959 . S
H130 C131 0.961 . S
C131 C121 1.510 . S
C131 H129 0.959 . S
C131 H130 0.961 . S
C131 H132 0.960 . S
H132 C131 0.960 . S
H133 N113 0.862 . S
O134 Co102 1.920 . S
O134 C107 1.289 . S
C135 O127 1.258 . S
C135 O128 1.266 . S
Co136 O139 1.970 . S
Co136 N153 1.989 1_554 S
Co136 O161 1.967 . S
Co136 O168 1.920 . S
Co137 O140 1.966 . S
Co137 N146 2.022 . S
Co137 N154 1.993 1_554 S
Co137 O162 1.941 . S
C138 O139 1.258 . S
C138 O140 1.263 . S
O139 Co136 1.970 . S
O139 C138 1.258 . S
O140 Co137 1.966 . S
O140 C138 1.263 . S
C141 O142 1.235 1_565 S
C141 O168 1.289 1_565 S
O142 C141 1.235 1_545 S
C143 C145 1.400 . S
C143 N146 1.351 . S
C143 C148 1.501 . S
C144 C145 1.387 . S
C144 N147 1.341 . S
C145 C143 1.400 . S
C145 C144 1.387 . S
N146 Co137 2.022 . S
N146 C143 1.351 . S
N146 N147 1.365 . S
N147 C144 1.341 . S
N147 N146 1.365 . S
N147 H167 0.862 1_554 S
C148 C143 1.501 . S
C148 H149 0.961 . S
C148 H150 0.961 . S
C148 H151 0.960 . S
H149 C148 0.961 . S
H150 C148 0.961 . S
H151 C148 0.960 . S
C152 N153 1.342 . S
C152 C156 1.401 . S
C152 C157 1.499 . S
N153 Co136 1.989 1_556 S
N153 C152 1.342 . S
N153 N154 1.388 . S
N154 Co137 1.993 1_556 S
N154 N153 1.388 . S
N154 C155 1.346 . S
C155 N154 1.346 . S
C155 C156 1.396 . S
C155 C165 1.510 . S
C156 C152 1.401 . S
C156 C155 1.396 . S
C157 C152 1.499 . S
C157 H158 0.959 . S
C157 H159 0.960 . S
C157 H160 0.961 . S
H158 C157 0.959 . S
H159 C157 0.960 . S
H160 C157 0.961 . S
O161 Co136 1.967 . S
O161 C169 1.258 . S
O162 Co137 1.941 . S
O162 C169 1.266 . S
H163 C165 0.959 . S
H164 C165 0.961 . S
C165 C155 1.510 . S
C165 H163 0.959 . S
C165 H164 0.961 . S
C165 H166 0.960 . S
H166 C165 0.960 . S
H167 N147 0.862 1_556 S
O168 Co136 1.920 . S
O168 C141 1.289 1_545 S
C169 O161 1.258 . S
C169 O162 1.266 . S
Co170 O173 1.970 . S
Co170 N187 1.989 . S
Co170 O195 1.967 . S
Co170 O202 1.920 . S
Co171 O174 1.966 . S
Co171 N180 2.022 . S
Co171 N188 1.993 . S
Co171 O196 1.941 . S
C172 O173 1.258 . S
C172 O174 1.263 . S
O173 Co170 1.970 . S
O173 C172 1.258 . S
O174 Co171 1.966 . S
O174 C172 1.263 . S
C175 O176 1.235 1_455 S
C175 O202 1.289 1_455 S
O176 C175 1.235 1_655 S
C177 C179 1.400 . S
C177 N180 1.351 . S
C177 C182 1.501 . S
C178 C179 1.387 . S
C178 N181 1.341 . S
C179 C177 1.400 . S
C179 C178 1.387 . S
N180 Co171 2.022 . S
N180 C177 1.351 . S
N180 N181 1.365 . S
N181 C178 1.341 . S
N181 N180 1.365 . S
N181 H201 0.862 . S
C182 C177 1.501 . S
C182 H183 0.961 . S
C182 H184 0.961 . S
C182 H185 0.960 . S
H183 C182 0.961 . S
H184 C182 0.961 . S
H185 C182 0.960 . S
C186 N187 1.342 . S
C186 C190 1.401 . S
C186 C191 1.499 . S
N187 Co170 1.989 . S
N187 C186 1.342 . S
N187 N188 1.388 . S
N188 Co171 1.993 . S
N188 N187 1.388 . S
N188 C189 1.346 . S
C189 N188 1.346 . S
C189 C190 1.396 . S
C189 C199 1.510 . S
C190 C186 1.401 . S
C190 C189 1.396 . S
C191 C186 1.499 . S
C191 H192 0.959 . S
C191 H193 0.960 . S
C191 H194 0.961 . S
H192 C191 0.959 . S
H193 C191 0.960 . S
H194 C191 0.961 . S
O195 Co170 1.967 . S
O195 C203 1.258 . S
O196 Co171 1.941 . S
O196 C203 1.266 . S
H197 C199 0.959 . S
H198 C199 0.961 . S
C199 C189 1.510 . S
C199 H197 0.959 . S
C199 H198 0.961 . S
C199 H200 0.960 . S
H200 C199 0.960 . S
H201 N181 0.862 . S
O202 Co170 1.920 . S
O202 C175 1.289 1_655 S
C203 O195 1.258 . S
C203 O196 1.266 . S
Co204 O207 1.970 . S
Co204 N221 1.989 1_554 S
Co204 O229 1.967 . S
Co204 O236 1.920 . S
Co205 O208 1.966 . S
Co205 N214 2.022 . S
Co205 N222 1.993 1_554 S
Co205 O230 1.941 . S
C206 O207 1.258 . S
C206 O208 1.263 . S
O207 Co204 1.970 . S
O207 C206 1.258 . S
O208 Co205 1.966 . S
O208 C206 1.263 . S
C209 O210 1.235 1_545 S
C209 O236 1.289 1_545 S
O210 C209 1.235 1_565 S
C211 C213 1.400 . S
C211 N214 1.351 . S
C211 C216 1.501 . S
C212 C213 1.387 . S
C212 N215 1.341 . S
C213 C211 1.400 . S
C213 C212 1.387 . S
N214 Co205 2.022 . S
N214 C211 1.351 . S
N214 N215 1.365 . S
N215 C212 1.341 . S
N215 N214 1.365 . S
N215 H235 0.862 1_554 S
C216 C211 1.501 . S
C216 H217 0.961 . S
C216 H218 0.961 . S
C216 H219 0.960 . S
H217 C216 0.961 . S
H218 C216 0.961 . S
H219 C216 0.960 . S
C220 N221 1.342 . S
C220 C224 1.401 . S
C220 C225 1.499 . S
N221 Co204 1.989 1_556 S
N221 C220 1.342 . S
N221 N222 1.388 . S
N222 Co205 1.993 1_556 S
N222 N221 1.388 . S
N222 C223 1.346 . S
C223 N222 1.346 . S
C223 C224 1.396 . S
C223 C233 1.510 . S
C224 C220 1.401 . S
C224 C223 1.396 . S
C225 C220 1.499 . S
C225 H226 0.959 . S
C225 H227 0.960 . S
C225 H228 0.961 . S
H226 C225 0.959 . S
H227 C225 0.960 . S
H228 C225 0.961 . S
O229 Co204 1.967 . S
O229 C237 1.258 . S
O230 Co205 1.941 . S
O230 C237 1.266 . S
H231 C233 0.959 . S
H232 C233 0.961 . S
C233 C223 1.510 . S
C233 H231 0.959 . S
C233 H232 0.961 . S
C233 H234 0.960 . S
H234 C233 0.960 . S
H235 N215 0.862 1_556 S
O236 Co204 1.920 . S
O236 C209 1.289 1_565 S
C237 O229 1.258 . S
C237 O230 1.266 . S
Co238 O241 1.970 . S
Co238 N255 1.989 . S
Co238 O263 1.967 . S
Co238 O270 1.920 . S
Co239 O242 1.966 . S
Co239 N248 2.022 . S
Co239 N256 1.993 . S
Co239 O264 1.941 . S
C240 O241 1.258 . S
C240 O242 1.263 . S
O241 Co238 1.970 . S
O241 C240 1.258 . S
O242 Co239 1.966 . S
O242 C240 1.263 . S
C243 O244 1.235 1_655 S
C243 O270 1.289 1_655 S
O244 C243 1.235 1_455 S
C245 C247 1.400 . S
C245 N248 1.351 . S
C245 C250 1.501 . S
C246 C247 1.387 . S
C246 N249 1.341 . S
C247 C245 1.400 . S
C247 C246 1.387 . S
N248 Co239 2.022 . S
N248 C245 1.351 . S
N248 N249 1.365 . S
N249 C246 1.341 . S
N249 N248 1.365 . S
N249 H269 0.862 . S
C250 C245 1.501 . S
C250 H251 0.961 . S
C250 H252 0.961 . S
C250 H253 0.960 . S
H251 C250 0.961 . S
H252 C250 0.961 . S
H253 C250 0.960 . S
C254 N255 1.342 . S
C254 C258 1.401 . S
C254 C259 1.499 . S
N255 Co238 1.989 . S
N255 C254 1.342 . S
N255 N256 1.388 . S
N256 Co239 1.993 . S
N256 N255 1.388 . S
N256 C257 1.346 . S
C257 N256 1.346 . S
C257 C258 1.396 . S
C257 C267 1.510 . S
C258 C254 1.401 . S
C258 C257 1.396 . S
C259 C254 1.499 . S
C259 H260 0.959 . S
C259 H261 0.960 . S
C259 H262 0.961 . S
H260 C259 0.959 . S
H261 C259 0.960 . S
H262 C259 0.961 . S
O263 Co238 1.967 . S
O263 C271 1.258 . S
O264 Co239 1.941 . S
O264 C271 1.266 . S
H265 C267 0.959 . S
H266 C267 0.961 . S
C267 C257 1.510 . S
C267 H265 0.959 . S
C267 H266 0.961 . S
C267 H268 0.960 . S
H268 C267 0.960 . S
H269 N249 0.862 . S
O270 Co238 1.920 . S
O270 C243 1.289 1_455 S
C271 O263 1.258 . S
C271 O264 1.266 . S
H272 C280 0.950 . S
H273 C285 0.950 1_556 S
H274 C282 0.950 . S
H275 C284 0.950 1_556 S
H276 C286 0.950 . S
H277 C288 0.950 . S
H278 C290 0.950 . S
H279 C291 0.950 . S
C280 H272 0.950 . S
C280 C281 1.386 . S
C280 C282 1.391 . S
C281 C280 1.386 . S
C281 C285 1.393 . S
C282 H274 0.950 . S
C282 C280 1.391 . S
C282 C283 1.400 . S
C283 C282 1.400 . S
C283 C284 1.398 . S
C283 C289 1.491 . S
C284 H275 0.950 1_554 S
C284 C283 1.398 . S
C284 C285 1.391 . S
C285 H273 0.950 1_554 S
C285 C281 1.393 . S
C285 C284 1.391 . S
C286 H276 0.950 . S
C286 C287 1.386 1_556 S
C286 C288 1.391 . S
C287 C286 1.386 1_554 S
C287 C291 1.393 . S
C288 H277 0.950 . S
C288 C286 1.391 . S
C288 C289 1.400 1_556 S
C289 C283 1.491 . S
C289 C288 1.400 1_554 S
C289 C290 1.398 . S
C290 H278 0.950 . S
C290 C289 1.398 . S
C290 C291 1.391 . S
C291 H279 0.950 . S
C291 C287 1.393 . S
C291 C290 1.391 . S
H292 C300 0.950 . S
H293 C305 0.950 . S
H294 C302 0.950 . S
H295 C304 0.950 . S
H296 C306 0.950 . S
H297 C308 0.950 . S
H298 C310 0.950 . S
H299 C311 0.950 . S
C300 H292 0.950 . S
C300 C301 1.386 . S
C300 C302 1.391 . S
C301 C300 1.386 . S
C301 C305 1.393 . S
C302 H294 0.950 . S
C302 C300 1.391 . S
C302 C303 1.400 . S
C303 C302 1.400 . S
C303 C304 1.398 . S
C303 C309 1.491 . S
C304 H295 0.950 . S
C304 C303 1.398 . S
C304 C305 1.391 . S
C305 H293 0.950 . S
C305 C301 1.393 . S
C305 C304 1.391 . S
C306 H296 0.950 . S
C306 C307 1.386 . S
C306 C308 1.391 . S
C307 C306 1.386 . S
C307 C311 1.393 . S
C308 H297 0.950 . S
C308 C306 1.391 . S
C308 C309 1.400 . S
C309 C303 1.491 . S
C309 C308 1.400 . S
C309 C310 1.398 . S
C310 H298 0.950 . S
C310 C309 1.398 . S
C310 C311 1.391 . S
C311 H299 0.950 . S
C311 C307 1.393 . S
C311 C310 1.391 . S
H312 C320 0.950 . S
H313 C325 0.950 1_556 S
H314 C322 0.950 . S
H315 C324 0.950 . S
H316 C326 0.950 . S
H317 C328 0.950 . S
H318 C330 0.950 . S
H319 C331 0.950 . S
C320 H312 0.950 . S
C320 C321 1.386 . S
C320 C322 1.391 . S
C321 C320 1.386 . S
C321 C325 1.393 . S
C322 H314 0.950 . S
C322 C320 1.391 . S
C322 C323 1.400 . S
C323 C322 1.400 . S
C323 C324 1.398 1_554 S
C323 C329 1.491 . S
C324 H315 0.950 . S
C324 C323 1.398 1_556 S
C324 C325 1.391 1_556 S
C325 H313 0.950 1_554 S
C325 C321 1.393 . S
C325 C324 1.391 1_554 S
C326 H316 0.950 . S
C326 C327 1.386 1_556 S
C326 C328 1.391 . S
C327 C326 1.386 1_554 S
C327 C331 1.393 . S
C328 H317 0.950 . S
C328 C326 1.391 . S
C328 C329 1.400 1_556 S
C329 C323 1.491 . S
C329 C328 1.400 1_554 S
C329 C330 1.398 . S
C330 H318 0.950 . S
C330 C329 1.398 . S
C330 C331 1.391 . S
C331 H319 0.950 . S
C331 C327 1.393 . S
C331 C330 1.391 . S
H332 C340 0.950 . S
H333 C345 0.950 . S
H334 C342 0.950 . S
H335 C344 0.950 . S
H336 C346 0.950 . S
H337 C348 0.950 . S
H338 C350 0.950 . S
H339 C351 0.950 . S
C340 H332 0.950 . S
C340 C341 1.386 . S
C340 C342 1.391 . S
C341 C340 1.386 . S
C341 C345 1.393 . S
C342 H334 0.950 . S
C342 C340 1.391 . S
C342 C343 1.400 . S
C343 C342 1.400 . S
C343 C344 1.398 . S
C343 C349 1.491 . S
C344 H335 0.950 . S
C344 C343 1.398 . S
C344 C345 1.391 . S
C345 H333 0.950 . S
C345 C341 1.393 . S
C345 C344 1.391 . S
C346 H336 0.950 . S
C346 C347 1.386 . S
C346 C348 1.391 . S
C347 C346 1.386 . S
C347 C351 1.393 . S
C348 H337 0.950 . S
C348 C346 1.391 . S
C348 C349 1.400 . S
C349 C343 1.491 . S
C349 C348 1.400 . S
C349 C350 1.398 . S
C350 H338 0.950 . S
C350 C349 1.398 . S
C350 C351 1.391 . S
C351 H339 0.950 . S
C351 C347 1.393 . S
C351 C350 1.391 . S
H352 C360 0.950 . S
H353 C365 0.950 . S
H354 C362 0.950 . S
H355 C364 0.950 . S
H356 C366 0.950 . S
H357 C368 0.950 . S
H358 C370 0.950 . S
H359 C371 0.950 . S
C360 H352 0.950 . S
C360 C361 1.386 . S
C360 C362 1.391 . S
C361 C360 1.386 . S
C361 C365 1.393 . S
C362 H354 0.950 . S
C362 C360 1.391 . S
C362 C363 1.400 . S
C363 C362 1.400 . S
C363 C364 1.398 . S
C363 C369 1.491 . S
C364 H355 0.950 . S
C364 C363 1.398 . S
C364 C365 1.391 . S
C365 H353 0.950 . S
C365 C361 1.393 . S
C365 C364 1.391 . S
C366 H356 0.950 . S
C366 C367 1.386 . S
C366 C368 1.391 . S
C367 C366 1.386 . S
C367 C371 1.393 . S
C368 H357 0.950 . S
C368 C366 1.391 . S
C368 C369 1.400 . S
C369 C363 1.491 . S
C369 C368 1.400 . S
C369 C370 1.398 . S
C370 H358 0.950 . S
C370 C369 1.398 . S
C370 C371 1.391 . S
C371 H359 0.950 . S
C371 C367 1.393 . S
C371 C370 1.391 . S
H372 C380 0.950 . S
H373 C385 0.950 . S
H374 C382 0.950 . S
H375 C384 0.950 . S
H376 C386 0.950 . S
H377 C388 0.950 . S
H378 C390 0.950 . S
H379 C391 0.950 . S
C380 H372 0.950 . S
C380 C381 1.386 . S
C380 C382 1.391 . S
C381 C380 1.386 . S
C381 C385 1.393 . S
C382 H374 0.950 . S
C382 C380 1.391 . S
C382 C383 1.400 . S
C383 C382 1.400 . S
C383 C384 1.398 . S
C383 C389 1.491 . S
C384 H375 0.950 . S
C384 C383 1.398 . S
C384 C385 1.391 . S
C385 H373 0.950 . S
C385 C381 1.393 . S
C385 C384 1.391 . S
C386 H376 0.950 . S
C386 C387 1.386 . S
C386 C388 1.391 . S
C387 C386 1.386 . S
C387 C391 1.393 . S
C388 H377 0.950 . S
C388 C386 1.391 . S
C388 C389 1.400 . S
C389 C383 1.491 . S
C389 C388 1.400 . S
C389 C390 1.398 . S
C390 H378 0.950 . S
C390 C389 1.398 . S
C390 C391 1.391 . S
C391 H379 0.950 . S
C391 C387 1.393 . S
C391 C390 1.391 . S
H392 C400 0.950 . S
H393 C405 0.950 . S
H394 C402 0.950 . S
H395 C404 0.950 . S
H396 C406 0.950 . S
H397 C408 0.950 . S
H398 C410 0.950 . S
H399 C411 0.950 1_556 S
C400 H392 0.950 . S
C400 C401 1.386 1_556 S
C400 C402 1.391 . S
C401 C400 1.386 1_554 S
C401 C405 1.393 . S
C402 H394 0.950 . S
C402 C400 1.391 . S
C402 C403 1.400 1_556 S
C403 C402 1.400 1_554 S
C403 C404 1.398 . S
C403 C409 1.491 . S
C404 H395 0.950 . S
C404 C403 1.398 . S
C404 C405 1.391 . S
C405 H393 0.950 . S
C405 C401 1.393 . S
C405 C404 1.391 . S
C406 H396 0.950 . S
C406 C407 1.386 . S
C406 C408 1.391 . S
C407 C406 1.386 . S
C407 C411 1.393 . S
C408 H397 0.950 . S
C408 C406 1.391 . S
C408 C409 1.400 . S
C409 C403 1.491 . S
C409 C408 1.400 . S
C409 C410 1.398 1_554 S
C410 H398 0.950 . S
C410 C409 1.398 1_556 S
C410 C411 1.391 1_556 S
C411 H399 0.950 1_554 S
C411 C407 1.393 . S
C411 C410 1.391 1_554 S
H412 C420 0.950 . S
H413 C425 0.950 . S
H414 C422 0.950 . S
H415 C424 0.950 . S
H416 C426 0.950 . S
H417 C428 0.950 . S
H418 C430 0.950 . S
H419 C431 0.950 . S
C420 H412 0.950 . S
C420 C421 1.386 . S
C420 C422 1.391 . S
C421 C420 1.386 . S
C421 C425 1.393 . S
C422 H414 0.950 . S
C422 C420 1.391 . S
C422 C423 1.400 . S
C423 C422 1.400 . S
C423 C424 1.398 . S
C423 C429 1.491 . S
C424 H415 0.950 . S
C424 C423 1.398 . S
C424 C425 1.391 . S
C425 H413 0.950 . S
C425 C421 1.393 . S
C425 C424 1.391 . S
C426 H416 0.950 . S
C426 C427 1.386 . S
C426 C428 1.391 . S
C427 C426 1.386 . S
C427 C431 1.393 . S
C428 H417 0.950 . S
C428 C426 1.391 . S
C428 C429 1.400 . S
C429 C423 1.491 . S
C429 C428 1.400 . S
C429 C430 1.398 . S
C430 H418 0.950 . S
C430 C429 1.398 . S
C430 C431 1.391 . S
C431 H419 0.950 . S
C431 C427 1.393 . S
C431 C430 1.391 . S
H432 C440 0.950 . S
H433 C445 0.950 . S
H434 C442 0.950 . S
H435 C444 0.950 . S
H436 C446 0.950 . S
H437 C448 0.950 . S
H438 C450 0.950 . S
H439 C451 0.950 . S
C440 H432 0.950 . S
C440 C441 1.386 . S
C440 C442 1.391 . S
C441 C440 1.386 . S
C441 C445 1.393 . S
C442 H434 0.950 . S
C442 C440 1.391 . S
C442 C443 1.400 . S
C443 C442 1.400 . S
C443 C444 1.398 . S
C443 C449 1.491 . S
C444 H435 0.950 . S
C444 C443 1.398 . S
C444 C445 1.391 . S
C445 H433 0.950 . S
C445 C441 1.393 . S
C445 C444 1.391 . S
C446 H436 0.950 . S
C446 C447 1.386 . S
C446 C448 1.391 . S
C447 C446 1.386 . S
C447 C451 1.393 . S
C448 H437 0.950 . S
C448 C446 1.391 . S
C448 C449 1.400 . S
C449 C443 1.491 . S
C449 C448 1.400 . S
C449 C450 1.398 . S
C450 H438 0.950 . S
C450 C449 1.398 . S
C450 C451 1.391 . S
C451 H439 0.950 . S
C451 C447 1.393 . S
C451 C450 1.391 . S
H452 C460 0.950 . S
H453 C465 0.950 . S
H454 C462 0.950 . S
H455 C464 0.950 . S
H456 C466 0.950 . S
H457 C468 0.950 . S
H458 C470 0.950 . S
H459 C471 0.950 . S
C460 H452 0.950 . S
C460 C461 1.386 . S
C460 C462 1.391 . S
C461 C460 1.386 . S
C461 C465 1.393 . S
C462 H454 0.950 . S
C462 C460 1.391 . S
C462 C463 1.400 . S
C463 C462 1.400 . S
C463 C464 1.398 . S
C463 C469 1.491 . S
C464 H455 0.950 . S
C464 C463 1.398 . S
C464 C465 1.391 . S
C465 H453 0.950 . S
C465 C461 1.393 . S
C465 C464 1.391 . S
C466 H456 0.950 . S
C466 C467 1.386 . S
C466 C468 1.391 . S
C467 C466 1.386 . S
C467 C471 1.393 . S
C468 H457 0.950 . S
C468 C466 1.391 . S
C468 C469 1.400 . S
C469 C463 1.491 . S
C469 C468 1.400 . S
C469 C470 1.398 . S
C470 H458 0.950 . S
C470 C469 1.398 . S
C470 C471 1.391 . S
C471 H459 0.950 . S
C471 C467 1.393 . S
C471 C470 1.391 . S
H472 C480 0.950 . S
H473 C485 0.960 . S
H474 C482 0.950 . S
H475 C484 0.950 1_545 S
H476 C486 0.950 1_556 S
H477 C488 0.934 1_556 S
H478 C490 0.950 1_565 S
H479 C491 0.950 . S
C480 H472 0.950 . S
C480 C481 1.386 . S
C480 C482 1.391 . S
C481 C480 1.386 . S
C481 C485 1.393 . S
C482 H474 0.950 . S
C482 C480 1.391 . S
C482 C483 1.400 . S
C483 C482 1.400 . S
C483 C484 1.398 . S
C483 C489 1.491 1_465 S
C484 H475 0.950 1_565 S
C484 C483 1.398 . S
C484 C485 1.391 . S
C485 H473 0.960 . S
C485 C481 1.393 . S
C485 C484 1.391 . S
C486 H476 0.950 1_554 S
C486 C487 1.386 . S
C486 C488 1.391 . S
C487 C486 1.386 . S
C487 C491 1.393 . S
C488 H477 0.934 1_554 S
C488 C486 1.391 . S
C488 C489 1.400 . S
C489 C483 1.491 1_645 S
C489 C488 1.400 . S
C489 C490 1.398 . S
C490 H478 0.950 1_545 S
C490 C489 1.398 . S
C490 C491 1.391 . S
C491 H479 0.950 . S
C491 C487 1.393 . S
C491 C490 1.391 . S
H492 C500 0.950 . S
H493 C505 0.950 . S
H494 C502 0.950 1_455 S
H495 C504 0.950 . S
H496 C506 0.950 . S
H497 C508 0.950 1_655 S
H498 C510 0.950 . S
H499 C511 0.950 . S
C500 H492 0.950 . S
C500 C501 1.386 . S
C500 C502 1.391 . S
C501 C500 1.386 . S
C501 C505 1.393 . S
C502 H494 0.950 1_655 S
C502 C500 1.391 . S
C502 C503 1.400 . S
C503 C502 1.400 . S
C503 C504 1.398 . S
C503 C509 1.491 1_665 S
C504 H495 0.950 . S
C504 C503 1.398 . S
C504 C505 1.391 . S
C505 H493 0.950 . S
C505 C501 1.393 . S
C505 C504 1.391 . S
C506 H496 0.950 . S
C506 C507 1.386 . S
C506 C508 1.391 . S
C507 C506 1.386 . S
C507 C511 1.393 . S
C508 H497 0.950 1_455 S
C508 C506 1.391 . S
C508 C509 1.400 . S
C509 C503 1.491 1_445 S
C509 C508 1.400 . S
C509 C510 1.398 . S
C510 H498 0.950 . S
C510 C509 1.398 . S
C510 C511 1.391 . S
C511 H499 0.950 . S
C511 C507 1.393 . S
C511 C510 1.391 . S
H512 C520 0.950 . S
H513 C525 0.950 . S
H514 C522 0.950 . S
H515 C524 0.950 . S
H516 C526 0.950 . S
H517 C528 0.950 . S
H518 C530 0.950 . S
H519 C531 0.950 . S
C520 H512 0.950 . S
C520 C521 1.386 . S
C520 C522 1.391 . S
C521 C520 1.386 . S
C521 C525 1.393 . S
C522 H514 0.950 . S
C522 C520 1.391 . S
C522 C523 1.400 . S
C523 C522 1.400 . S
C523 C524 1.398 . S
C523 C529 1.491 . S
C524 H515 0.950 . S
C524 C523 1.398 . S
C524 C525 1.391 . S
C525 H513 0.950 . S
C525 C521 1.393 . S
C525 C524 1.391 . S
C526 H516 0.950 . S
C526 C527 1.386 . S
C526 C528 1.391 . S
C527 C526 1.386 . S
C527 C531 1.393 . S
C528 H517 0.950 . S
C528 C526 1.391 . S
C528 C529 1.400 . S
C529 C523 1.491 . S
C529 C528 1.400 . S
C529 C530 1.398 . S
C530 H518 0.950 . S
C530 C529 1.398 . S
C530 C531 1.391 . S
C531 H519 0.950 . S
C531 C527 1.393 . S
C531 C530 1.391 . S
H532 C540 0.950 . S
H533 C545 0.950 . S
H534 C542 0.950 . S
H535 C544 0.950 . S
H536 C546 0.950 . S
H537 C548 0.950 . S
H538 C550 0.950 . S
H539 C551 0.950 . S
C540 H532 0.950 . S
C540 C541 1.386 . S
C540 C542 1.391 . S
C541 C540 1.386 . S
C541 C545 1.393 . S
C542 H534 0.950 . S
C542 C540 1.391 . S
C542 C543 1.400 . S
C543 C542 1.400 . S
C543 C544 1.398 . S
C543 C549 1.491 . S
C544 H535 0.950 . S
C544 C543 1.398 . S
C544 C545 1.391 . S
C545 H533 0.950 . S
C545 C541 1.393 . S
C545 C544 1.391 . S
C546 H536 0.950 . S
C546 C547 1.386 . S
C546 C548 1.391 . S
C547 C546 1.386 . S
C547 C551 1.393 . S
C548 H537 0.950 . S
C548 C546 1.391 . S
C548 C549 1.400 . S
C549 C543 1.491 . S
C549 C548 1.400 . S
C549 C550 1.398 . S
C550 H538 0.950 . S
C550 C549 1.398 . S
C550 C551 1.391 . S
C551 H539 0.950 . S
C551 C547 1.393 . S
C551 C550 1.391 . S
H552 C560 0.950 . S
H553 C565 0.950 . S
H554 C562 0.950 . S
H555 C564 0.950 . S
H556 C566 0.950 . S
H557 C568 0.950 . S
H558 C570 0.950 . S
H559 C571 0.950 . S
C560 H552 0.950 . S
C560 C561 1.386 . S
C560 C562 1.391 . S
C561 C560 1.386 . S
C561 C565 1.393 . S
C562 H554 0.950 . S
C562 C560 1.391 . S
C562 C563 1.400 . S
C563 C562 1.400 . S
C563 C564 1.398 . S
C563 C569 1.491 . S
C564 H555 0.950 . S
C564 C563 1.398 . S
C564 C565 1.391 . S
C565 H553 0.950 . S
C565 C561 1.393 . S
C565 C564 1.391 . S
C566 H556 0.950 . S
C566 C567 1.386 . S
C566 C568 1.391 . S
C567 C566 1.386 . S
C567 C571 1.393 . S
C568 H557 0.950 . S
C568 C566 1.391 . S
C568 C569 1.400 . S
C569 C563 1.491 . S
C569 C568 1.400 . S
C569 C570 1.398 . S
C570 H558 0.950 . S
C570 C569 1.398 . S
C570 C571 1.391 . S
C571 H559 0.950 . S
C571 C567 1.393 . S
C571 C570 1.391 . S
H572 C580 0.950 . S
H573 C585 0.950 . S
H574 C582 0.950 . S
H575 C584 0.950 . S
H576 C586 0.950 . S
H577 C588 0.950 . S
H578 C590 0.950 . S
H579 C591 0.950 . S
C580 H572 0.950 . S
C580 C581 1.386 . S
C580 C582 1.391 . S
C581 C580 1.386 . S
C581 C585 1.393 . S
C582 H574 0.950 . S
C582 C580 1.391 . S
C582 C583 1.400 . S
C583 C582 1.400 . S
C583 C584 1.398 . S
C583 C589 1.491 . S
C584 H575 0.950 . S
C584 C583 1.398 . S
C584 C585 1.391 . S
C585 H573 0.950 . S
C585 C581 1.393 . S
C585 C584 1.391 . S
C586 H576 0.950 . S
C586 C587 1.386 . S
C586 C588 1.391 . S
C587 C586 1.386 . S
C587 C591 1.393 . S
C588 H577 0.950 . S
C588 C586 1.391 . S
C588 C589 1.400 . S
C589 C583 1.491 . S
C589 C588 1.400 . S
C589 C590 1.398 . S
C590 H578 0.950 . S
C590 C589 1.398 . S
C590 C591 1.391 . S
C591 H579 0.950 . S
C591 C587 1.393 . S
C591 C590 1.391 . S
H592 C600 0.950 . S
H593 C605 0.950 . S
H594 C602 0.950 . S
H595 C604 0.950 . S
H596 C606 0.950 . S
H597 C608 0.950 . S
H598 C610 0.950 . S
H599 C611 0.950 . S
C600 H592 0.950 . S
C600 C601 1.386 . S
C600 C602 1.391 . S
C601 C600 1.386 . S
C601 C605 1.393 . S
C602 H594 0.950 . S
C602 C600 1.391 . S
C602 C603 1.400 . S
C603 C602 1.400 . S
C603 C604 1.398 . S
C603 C609 1.491 . S
C604 H595 0.950 . S
C604 C603 1.398 . S
C604 C605 1.391 . S
C605 H593 0.950 . S
C605 C601 1.393 . S
C605 C604 1.391 . S
C606 H596 0.950 . S
C606 C607 1.386 . S
C606 C608 1.391 . S
C607 C606 1.386 . S
C607 C611 1.393 . S
C608 H597 0.950 . S
C608 C606 1.391 . S
C608 C609 1.400 . S
C609 C603 1.491 . S
C609 C608 1.400 . S
C609 C610 1.398 . S
C610 H598 0.950 . S
C610 C609 1.398 . S
C610 C611 1.391 . S
C611 H599 0.950 . S
C611 C607 1.393 . S
C611 C610 1.391 . S
H612 C620 0.950 . S
H613 C625 0.950 . S
H614 C622 0.950 . S
H615 C624 0.950 . S
H616 C626 0.950 . S
H617 C628 0.950 . S
H618 C630 0.950 . S
H619 C631 0.950 . S
C620 H612 0.950 . S
C620 C621 1.386 . S
C620 C622 1.391 . S
C621 C620 1.386 . S
C621 C625 1.393 . S
C622 H614 0.950 . S
C622 C620 1.391 . S
C622 C623 1.400 . S
C623 C622 1.400 . S
C623 C624 1.398 . S
C623 C629 1.491 . S
C624 H615 0.950 . S
C624 C623 1.398 . S
C624 C625 1.391 . S
C625 H613 0.950 . S
C625 C621 1.393 . S
C625 C624 1.391 . S
C626 H616 0.950 . S
C626 C627 1.386 . S
C626 C628 1.391 . S
C627 C626 1.386 . S
C627 C631 1.393 . S
C628 H617 0.950 . S
C628 C626 1.391 . S
C628 C629 1.400 . S
C629 C623 1.491 . S
C629 C628 1.400 . S
C629 C630 1.398 . S
C630 H618 0.950 . S
C630 C629 1.398 . S
C630 C631 1.391 . S
C631 H619 0.950 . S
C631 C627 1.393 . S
C631 C630 1.391 . S
H632 C640 0.950 . S
H633 C645 0.950 . S
H634 C642 0.950 . S
H635 C644 0.950 . S
H636 C646 0.950 . S
H637 C648 0.950 . S
H638 C650 0.950 . S
H639 C651 0.950 . S
C640 H632 0.950 . S
C640 C641 1.386 . S
C640 C642 1.391 . S
C641 C640 1.386 . S
C641 C645 1.393 . S
C642 H634 0.950 . S
C642 C640 1.391 . S
C642 C643 1.400 . S
C643 C642 1.400 . S
C643 C644 1.398 . S
C643 C649 1.491 . S
C644 H635 0.950 . S
C644 C643 1.398 . S
C644 C645 1.391 . S
C645 H633 0.950 . S
C645 C641 1.393 . S
C645 C644 1.391 . S
C646 H636 0.950 . S
C646 C647 1.386 . S
C646 C648 1.391 . S
C647 C646 1.386 . S
C647 C651 1.393 . S
C648 H637 0.950 . S
C648 C646 1.391 . S
C648 C649 1.400 . S
C649 C643 1.491 . S
C649 C648 1.400 . S
C649 C650 1.398 . S
C650 H638 0.950 . S
C650 C649 1.398 . S
C650 C651 1.391 . S
C651 H639 0.950 . S
C651 C647 1.393 . S
C651 C650 1.391 . S
H652 C660 0.950 . S
H653 C665 0.950 . S
H654 C662 0.950 . S
H655 C664 0.950 . S
H656 C666 0.950 . S
H657 C668 0.950 . S
H658 C670 0.950 . S
H659 C671 0.950 . S
C660 H652 0.950 . S
C660 C661 1.386 . S
C660 C662 1.391 . S
C661 C660 1.386 . S
C661 C665 1.393 . S
C662 H654 0.950 . S
C662 C660 1.391 . S
C662 C663 1.400 . S
C663 C662 1.400 . S
C663 C664 1.398 . S
C663 C669 1.491 . S
C664 H655 0.950 . S
C664 C663 1.398 . S
C664 C665 1.391 . S
C665 H653 0.950 . S
C665 C661 1.393 . S
C665 C664 1.391 . S
C666 H656 0.950 . S
C666 C667 1.386 . S
C666 C668 1.391 . S
C667 C666 1.386 . S
C667 C671 1.393 . S
C668 H657 0.950 . S
C668 C666 1.391 . S
C668 C669 1.400 . S
C669 C663 1.491 . S
C669 C668 1.400 . S
C669 C670 1.398 . S
C670 H658 0.950 . S
C670 C669 1.398 . S
C670 C671 1.391 . S
C671 H659 0.950 . S
C671 C667 1.393 . S
C671 C670 1.391 . S
C281 C209 0.268 . S
C287 C9 0.562 . S
C301 C243 0.268 . S
C307 C43 0.560 . S
C321 C141 0.269 . S
C327 C77 0.562 . S
C341 C175 0.268 . S
C347 C111 0.562 . S
C361 C73 0.226 . S
C367 C145 0.496 . S
C381 C107 0.257 . S
C387 C179 0.540 . S
C401 C5 0.254 . S
C407 C213 0.536 . S
C421 C247 0.465 . S
C427 C39 0.200 . S
C441 C101 2.804 . S
C447 C33 2.806 . S
C461 C67 2.807 . S
C467 C135 2.808 . S
C481 C237 2.803 . S
C487 C169 2.802 . S
C501 C203 2.807 . S
C507 C271 2.808 . S
C521 C20 1.728 . S
C527 C258 1.724 . S
C541 C156 1.729 . S
C547 C54 1.729 . S
C561 C190 1.723 . S
C567 C88 1.719 . S
C581 C224 1.730 . S
C587 C122 1.728 . S
C601 C70 2.104 . S
C607 C172 2.105 . S
C621 C104 2.097 . S
C627 C206 2.101 . S
C641 C240 2.099 . S
C647 C2 2.103 . S
C661 C138 2.102 . S
C667 C36 2.099 . S
