# Generated by pormake.
# Topology whk, (6)-cn, num edge types: 1
# Building blocks:
#     Node 0, Type 0, BuildingBlock: MIFKUJ_clean_sbu_0, # of connection points: 6
#     Node 1, Type 0, BuildingBlock: MIFKUJ_clean_sbu_0, # of connection points: 6
#     Node 2, Type 0, BuildingBlock: MIFKUJ_clean_sbu_0, # of connection points: 6
#     Node 3, Type 0, BuildingBlock: MIFKUJ_clean_sbu_0, # of connection points: 6
#     Node 4, Type 0, BuildingBlock: MIFKUJ_clean_sbu_0, # of connection points: 6
#     Node 5, Type 0, BuildingBlock: MIFKUJ_clean_sbu_0, # of connection points: 6
#     Node 6, Type 0, BuildingBlock: MIFKUJ_clean_sbu_0, # of connection points: 6
#     Node 7, Type 0, BuildingBlock: MIFKUJ_clean_sbu_0, # of connection points: 6
#     Node 8, Type 0, BuildingBlock: MIFKUJ_clean_sbu_0, # of connection points: 6
#     Node 9, Type 0, BuildingBlock: MIFKUJ_clean_sbu_0, # of connection points: 6
#     Node 10, Type 0, BuildingBlock: MIFKUJ_clean_sbu_0, # of connection points: 6
#     Node 11, Type 0, BuildingBlock: MIFKUJ_clean_sbu_0, # of connection points: 6
#     Node 12, Type 0, BuildingBlock: MIFKUJ_clean_sbu_0, # of connection points: 6
#     Node 13, Type 0, BuildingBlock: MIFKUJ_clean_sbu_0, # of connection points: 6
#     Node 14, Type 0, BuildingBlock: MIFKUJ_clean_sbu_0, # of connection points: 6
#     Node 15, Type 0, BuildingBlock: MIFKUJ_clean_sbu_0, # of connection points: 6
#     Edge 16, Type (0, 0), BuildingBlock: ZUJKAS_clean_linker_0, # of connection points: 2
#     Edge 17, Type (0, 0), BuildingBlock: ZUJKAS_clean_linker_0, # of connection points: 2
#     Edge 18, Type (0, 0), BuildingBlock: ZUJKAS_clean_linker_0, # of connection points: 2
#     Edge 19, Type (0, 0), BuildingBlock: ZUJKAS_clean_linker_0, # of connection points: 2
#     Edge 20, Type (0, 0), BuildingBlock: ZUJKAS_clean_linker_0, # of connection points: 2
#     Edge 21, Type (0, 0), BuildingBlock: ZUJKAS_clean_linker_0, # of connection points: 2
#     Edge 22, Type (0, 0), BuildingBlock: ZUJKAS_clean_linker_0, # of connection points: 2
#     Edge 23, Type (0, 0), BuildingBlock: ZUJKAS_clean_linker_0, # of connection points: 2
#     Edge 24, Type (0, 0), BuildingBlock: ZUJKAS_clean_linker_0, # of connection points: 2
#     Edge 25, Type (0, 0), BuildingBlock: ZUJKAS_clean_linker_0, # of connection points: 2
#     Edge 26, Type (0, 0), BuildingBlock: ZUJKAS_clean_linker_0, # of connection points: 2
#     Edge 27, Type (0, 0), BuildingBlock: ZUJKAS_clean_linker_0, # of connection points: 2
#     Edge 28, Type (0, 0), BuildingBlock: ZUJKAS_clean_linker_0, # of connection points: 2
#     Edge 29, Type (0, 0), BuildingBlock: ZUJKAS_clean_linker_0, # of connection points: 2
#     Edge 30, Type (0, 0), BuildingBlock: ZUJKAS_clean_linker_0, # of connection points: 2
#     Edge 31, Type (0, 0), BuildingBlock: ZUJKAS_clean_linker_0, # of connection points: 2
#     Edge 32, Type (0, 0), BuildingBlock: ZUJKAS_clean_linker_0, # of connection points: 2
#     Edge 33, Type (0, 0), BuildingBlock: ZUJKAS_clean_linker_0, # of connection points: 2
#     Edge 34, Type (0, 0), BuildingBlock: ZUJKAS_clean_linker_0, # of connection points: 2
#     Edge 35, Type (0, 0), BuildingBlock: ZUJKAS_clean_linker_0, # of connection points: 2
#     Edge 36, Type (0, 0), BuildingBlock: ZUJKAS_clean_linker_0, # of connection points: 2
#     Edge 37, Type (0, 0), BuildingBlock: ZUJKAS_clean_linker_0, # of connection points: 2
#     Edge 38, Type (0, 0), BuildingBlock: ZUJKAS_clean_linker_0, # of connection points: 2
#     Edge 39, Type (0, 0), BuildingBlock: ZUJKAS_clean_linker_0, # of connection points: 2
#     Edge 40, Type (0, 0), BuildingBlock: ZUJKAS_clean_linker_0, # of connection points: 2
#     Edge 41, Type (0, 0), BuildingBlock: ZUJKAS_clean_linker_0, # of connection points: 2
#     Edge 42, Type (0, 0), BuildingBlock: ZUJKAS_clean_linker_0, # of connection points: 2
#     Edge 43, Type (0, 0), BuildingBlock: ZUJKAS_clean_linker_0, # of connection points: 2
#     Edge 44, Type (0, 0), BuildingBlock: ZUJKAS_clean_linker_0, # of connection points: 2
#     Edge 45, Type (0, 0), BuildingBlock: ZUJKAS_clean_linker_0, # of connection points: 2
#     Edge 46, Type (0, 0), BuildingBlock: ZUJKAS_clean_linker_0, # of connection points: 2
#     Edge 47, Type (0, 0), BuildingBlock: ZUJKAS_clean_linker_0, # of connection points: 2
#     Edge 48, Type (0, 0), BuildingBlock: ZUJKAS_clean_linker_0, # of connection points: 2
#     Edge 49, Type (0, 0), BuildingBlock: ZUJKAS_clean_linker_0, # of connection points: 2
#     Edge 50, Type (0, 0), BuildingBlock: ZUJKAS_clean_linker_0, # of connection points: 2
#     Edge 51, Type (0, 0), BuildingBlock: ZUJKAS_clean_linker_0, # of connection points: 2
#     Edge 52, Type (0, 0), BuildingBlock: ZUJKAS_clean_linker_0, # of connection points: 2
#     Edge 53, Type (0, 0), BuildingBlock: ZUJKAS_clean_linker_0, # of connection points: 2
#     Edge 54, Type (0, 0), BuildingBlock: ZUJKAS_clean_linker_0, # of connection points: 2
#     Edge 55, Type (0, 0), BuildingBlock: ZUJKAS_clean_linker_0, # of connection points: 2
#     Edge 56, Type (0, 0), BuildingBlock: ZUJKAS_clean_linker_0, # of connection points: 2
#     Edge 57, Type (0, 0), BuildingBlock: ZUJKAS_clean_linker_0, # of connection points: 2
#     Edge 58, Type (0, 0), BuildingBlock: ZUJKAS_clean_linker_0, # of connection points: 2
#     Edge 59, Type (0, 0), BuildingBlock: ZUJKAS_clean_linker_0, # of connection points: 2
#     Edge 60, Type (0, 0), BuildingBlock: ZUJKAS_clean_linker_0, # of connection points: 2
#     Edge 61, Type (0, 0), BuildingBlock: ZUJKAS_clean_linker_0, # of connection points: 2
#     Edge 62, Type (0, 0), BuildingBlock: ZUJKAS_clean_linker_0, # of connection points: 2
#     Edge 63, Type (0, 0), BuildingBlock: ZUJKAS_clean_linker_0, # of connection points: 2
# Relax obj value: 0.388
# Max RMSD: 0.269
# Mean RMSD: 0.269
data_MOF--net-whk--node1-MIFKUJ_clean_sbu_0--edge1-ZUJKAS_clean_linker_0
_symmetry_space_group_name_H-M    P1
_symmetry_Int_Tables_number       1
_symmetry_cell_setting            triclinic
loop_
_symmetry_equiv_pos_as_xyz
'x, y, z'
_cell_length_a     50.519814
_cell_length_b     50.556126
_cell_length_c     56.675893
_cell_angle_alpha  89.92478
_cell_angle_beta   89.970698
_cell_angle_gamma 89.894115
loop_
_atom_site_label
_atom_site_type_symbol
_atom_site_fract_x
_atom_site_fract_y
_atom_site_fract_z
_atom_type_partial_charge
Zn0 Zn 0.5108 0.15905 0.39362 0.0
Zn1 Zn 0.58271 0.17381 0.39189 0.0
C2 C 0.47349 0.20126 0.38006 0.0
O3 O 0.45541 0.18276 0.38203 0.0
C4 C 0.62099 0.13995 0.41022 0.0
O5 O 0.62677 0.14158 0.38765 0.0
O6 O 0.47822 0.1365 0.40025 0.0
O7 O 0.5316 0.14123 0.3663 0.0
O8 O 0.57453 0.15085 0.36478 0.0
C9 C 0.46808 0.12278 0.38373 0.0
O10 O 0.47968 0.12252 0.363 0.0
O11 O 0.49775 0.1952 0.38278 0.0
C12 C 0.62322 0.21019 0.39899 0.0
O13 O 0.6144 0.20703 0.42062 0.0
O14 O 0.61116 0.19884 0.38218 0.0
O15 O 0.55128 0.19457 0.40187 0.0
O16 O 0.52947 0.16805 0.4249 0.0
O17 O 0.60021 0.15163 0.41763 0.0
C18 C 0.55435 0.1391 0.35658 0.0
C19 C 0.54396 0.1884 0.42244 0.0
Zn20 Zn 0.34704 0.51439 0.39419 0.0
Zn21 Zn 0.33306 0.58543 0.39141 0.0
C22 C 0.30022 0.48573 0.39795 0.0
O23 O 0.31345 0.47902 0.41701 0.0
C24 C 0.36488 0.62539 0.40998 0.0
O25 O 0.36431 0.63073 0.38728 0.0
O26 O 0.36818 0.48081 0.39977 0.0
O27 O 0.36657 0.53354 0.36712 0.0
O28 O 0.35747 0.57644 0.3654 0.0
C29 C 0.37008 0.46638 0.38144 0.0
O30 O 0.35909 0.47472 0.36177 0.0
O31 O 0.31097 0.5016 0.38336 0.0
C32 C 0.29434 0.62457 0.39444 0.0
O33 O 0.29444 0.61571 0.41624 0.0
O34 O 0.3086 0.61302 0.37917 0.0
O35 O 0.31127 0.55527 0.40284 0.0
O36 O 0.33844 0.53339 0.42543 0.0
O37 O 0.35336 0.60452 0.41727 0.0
C38 C 0.36939 0.5562 0.35752 0.0
C39 C 0.31778 0.54763 0.42328 0.0
Zn40 Zn 0.99169 0.35176 0.39853 0.0
Zn41 Zn 0.92445 0.32775 0.39378 0.0
C42 C 0.02071 0.30518 0.40455 0.0
O43 O 0.02506 0.31815 0.42425 0.0
C44 C 0.87869 0.3537 0.41019 0.0
O45 O 0.87287 0.3491 0.38798 0.0
O46 O 0.02409 0.37451 0.40384 0.0
O47 O 0.97169 0.36915 0.37104 0.0
O48 O 0.93143 0.3522 0.3671 0.0
C49 C 0.03805 0.37751 0.38532 0.0
O50 O 0.0299 0.3666 0.36559 0.0
O51 O 0.00659 0.3161 0.38867 0.0
C52 C 0.89298 0.28243 0.39715 0.0
O53 O 0.90265 0.28321 0.41865 0.0
O54 O 0.90147 0.29882 0.38197 0.0
O55 O 0.95642 0.31165 0.40828 0.0
O56 O 0.97205 0.34392 0.4296 0.0
O57 O 0.90145 0.34688 0.41779 0.0
C58 C 0.94963 0.36767 0.3602 0.0
C59 C 0.96099 0.32137 0.42839 0.0
Zn60 Zn 0.15503 0.99521 0.40062 0.0
Zn61 Zn 0.17334 0.92552 0.39641 0.0
C62 C 0.20273 0.02256 0.40529 0.0
O63 O 0.19008 0.02811 0.42495 0.0
C64 C 0.14284 0.88277 0.41294 0.0
O65 O 0.14337 0.87866 0.39005 0.0
O66 O 0.13405 0.02862 0.40681 0.0
O67 O 0.13558 0.97622 0.37367 0.0
O68 O 0.1482 0.93429 0.37066 0.0
C69 C 0.12801 0.04209 0.3886 0.0
O70 O 0.13502 0.03317 0.36774 0.0
O71 O 0.19124 0.00812 0.39002 0.0
C72 C 0.21716 0.89178 0.3975 0.0
O73 O 0.21755 0.90082 0.41922 0.0
O74 O 0.20024 0.90103 0.38315 0.0
O75 O 0.1925 0.95621 0.41021 0.0
O76 O 0.16237 0.97555 0.43169 0.0
O77 O 0.15412 0.90337 0.42105 0.0
C78 C 0.13447 0.95376 0.36352 0.0
C79 C 0.18386 0.9625 0.43038 0.0
Zn80 Zn 0.00704 0.84419 0.10458 0.0
Zn81 Zn 0.07366 0.8245 0.11112 0.0
C82 C 0.97671 0.79851 0.09895 0.0
O83 O 0.97185 0.81193 0.07955 0.0
C84 C 0.10821 0.86472 0.09384 0.0
O85 O 0.10928 0.86964 0.11657 0.0
O86 O 0.97501 0.86697 0.09687 0.0
O87 O 0.0242 0.86257 0.13304 0.0
O88 O 0.06464 0.84682 0.13863 0.0
C89 C 0.95767 0.86697 0.1132 0.0
O90 O 0.96232 0.85315 0.13241 0.0
O91 O 0.99178 0.80873 0.11444 0.0
C92 C 0.11199 0.78489 0.10606 0.0
O93 O 0.10179 0.78476 0.08473 0.0
O94 O 0.10156 0.79952 0.1217 0.0
O95 O 0.04422 0.80335 0.09739 0.0
O96 O 0.02854 0.83464 0.07475 0.0
O97 O 0.09267 0.84673 0.08647 0.0
C98 C 0.04557 0.86153 0.14493 0.0
C99 C 0.03841 0.81155 0.07695 0.0
Zn100 Zn 0.658 0.0241 0.09213 0.0
Zn101 Zn 0.687 0.07349 0.10488 0.0
C102 C 0.70084 0.9881 0.09476 0.0
O103 O 0.6876 0.97905 0.07654 0.0
C104 C 0.65049 0.11589 0.09606 0.0
O105 O 0.65875 0.12243 0.11724 0.0
O106 O 0.63436 0.99266 0.08515 0.0
O107 O 0.63721 0.04486 0.11693 0.0
O108 O 0.67311 0.05809 0.13495 0.0
C109 C 0.63135 0.97793 0.10321 0.0
O110 O 0.64264 0.98496 0.12312 0.0
O111 O 0.69157 0.00778 0.10611 0.0
C112 C 0.72301 0.11466 0.09765 0.0
O113 O 0.71974 0.10661 0.07581 0.0
O114 O 0.71213 0.10178 0.11425 0.0
O115 O 0.70681 0.05035 0.08247 0.0
O116 O 0.6709 0.04267 0.06189 0.0
O117 O 0.65846 0.09415 0.08715 0.0
C118 C 0.64869 0.05248 0.13566 0.0
C119 C 0.69578 0.04688 0.06264 0.0
Zn120 Zn 0.49256 0.67046 0.09911 0.0
Zn121 Zn 0.42398 0.68934 0.10499 0.0
C122 C 0.52583 0.71536 0.0984 0.0
O123 O 0.53714 0.70053 0.08226 0.0
C124 C 0.38359 0.65586 0.08978 0.0
O125 O 0.37926 0.65793 0.11257 0.0
O126 O 0.52516 0.64767 0.09342 0.0
O127 O 0.47357 0.65165 0.12655 0.0
O128 O 0.43267 0.66622 0.13207 0.0
C129 C 0.53852 0.64373 0.11217 0.0
O130 O 0.53016 0.65446 0.13193 0.0
O131 O 0.50617 0.70621 0.10981 0.0
C132 C 0.38556 0.72882 0.1006 0.0
O133 O 0.39406 0.72752 0.07872 0.0
O134 O 0.39725 0.71524 0.11629 0.0
O135 O 0.45425 0.70934 0.0912 0.0
O136 O 0.47289 0.68006 0.06832 0.0
O137 O 0.40373 0.66743 0.08103 0.0
C138 C 0.45197 0.65169 0.13816 0.0
C139 C 0.46053 0.70191 0.07063 0.0
Zn140 Zn 0.83912 0.49118 0.09873 0.0
Zn141 Zn 0.82082 0.42096 0.10472 0.0
C142 C 0.78954 0.50939 0.12463 0.0
O143 O 0.8002 0.50331 0.14507 0.0
C144 C 0.8462 0.37473 0.0877 0.0
O145 O 0.83905 0.36754 0.10906 0.0
O146 O 0.86155 0.52369 0.09327 0.0
O147 O 0.85569 0.47233 0.12743 0.0
O148 O 0.84451 0.43007 0.13126 0.0
C149 C 0.86451 0.53793 0.11159 0.0
O150 O 0.85372 0.53002 0.13148 0.0
O151 O 0.80257 0.50571 0.10574 0.0
C152 C 0.77706 0.3873 0.1023 0.0
O153 O 0.77788 0.39593 0.08044 0.0
O154 O 0.79276 0.39725 0.1173 0.0
O155 O 0.8033 0.45232 0.09044 0.0
O156 O 0.83287 0.47083 0.06794 0.0
O157 O 0.84124 0.39832 0.08099 0.0
C158 C 0.85697 0.45031 0.13841 0.0
C159 C 0.8117 0.45747 0.06994 0.0
Zn160 Zn 0.4132 0.82982 0.61279 0.0
Zn161 Zn 0.48881 0.83919 0.61022 0.0
C162 C 0.3719 0.86326 0.59695 0.0
O163 O 0.36941 0.86529 0.61996 0.0
C164 C 0.51239 0.79005 0.60352 0.0
O165 O 0.51672 0.80246 0.5835 0.0
O166 O 0.38844 0.80582 0.62972 0.0
O167 O 0.44236 0.80919 0.59837 0.0
O168 O 0.46978 0.83403 0.57865 0.0
C169 C 0.38432 0.78159 0.6253 0.0
O170 O 0.39819 0.76971 0.6088 0.0
O171 O 0.39072 0.84927 0.58869 0.0
C172 C 0.53703 0.8621 0.62374 0.0
O173 O 0.52861 0.85168 0.64363 0.0
O174 O 0.52288 0.85948 0.60532 0.0
O175 O 0.4697 0.85878 0.63729 0.0
O176 O 0.42587 0.85469 0.63719 0.0
O177 O 0.50004 0.80222 0.61983 0.0
C178 C 0.4506 0.81779 0.57874 0.0
C179 C 0.44696 0.86417 0.64589 0.0
Zn180 Zn 0.67684 0.41468 0.60977 0.0
Zn181 Zn 0.66125 0.48763 0.6064 0.0
C182 C 0.64813 0.37235 0.59141 0.0
O183 O 0.64859 0.3675 0.6142 0.0
C184 C 0.70577 0.52089 0.60615 0.0
O185 O 0.69098 0.53133 0.5895 0.0
O186 O 0.70211 0.38991 0.62532 0.0
O187 O 0.69608 0.44654 0.59861 0.0
O188 O 0.67061 0.46918 0.5752 0.0
C189 C 0.71701 0.37599 0.61226 0.0
O190 O 0.71716 0.38045 0.58942 0.0
O191 O 0.65911 0.3934 0.58386 0.0
C192 C 0.63144 0.53252 0.61916 0.0
O193 O 0.63906 0.52345 0.63981 0.0
O194 O 0.63839 0.52003 0.60067 0.0
O195 O 0.64161 0.46681 0.63249 0.0
O196 O 0.64966 0.42351 0.63357 0.0
O197 O 0.69687 0.50124 0.61775 0.0
C198 C 0.68989 0.45326 0.57785 0.0
C199 C 0.63771 0.44386 0.64123 0.0
Zn200 Zn 0.08526 0.67343 0.60922 0.0
Zn201 Zn 0.01488 0.65723 0.60394 0.0
C202 C 0.12899 0.64472 0.59198 0.0
O203 O 0.13433 0.64668 0.61461 0.0
C204 C 0.98731 0.70464 0.5983 0.0
O205 O 0.98265 0.6918 0.5786 0.0
O206 O 0.10992 0.69856 0.62467 0.0
O207 O 0.05544 0.69435 0.59576 0.0
O208 O 0.03553 0.66546 0.57339 0.0
C209 C 0.1222 0.71527 0.61209 0.0
O210 O 0.1164 0.71719 0.58954 0.0
O211 O 0.10737 0.65453 0.58435 0.0
C212 C 0.96485 0.6365 0.6139 0.0
O213 O 0.9702 0.65062 0.63275 0.0
O214 O 0.98182 0.63571 0.59729 0.0
O215 O 0.03279 0.6375 0.63147 0.0
O216 O 0.07533 0.64778 0.63398 0.0
O217 O 1.00138 0.69343 0.61407 0.0
C218 C 0.04876 0.68675 0.57538 0.0
C219 C 0.05533 0.63511 0.64135 0.0
Zn220 Zn 0.82924 0.08609 0.60696 0.0
Zn221 Zn 0.8394 0.00895 0.60484 0.0
C222 C 0.85804 0.12998 0.59064 0.0
O223 O 0.85826 0.13332 0.61363 0.0
C224 C 0.79746 0.97551 0.62478 0.0
O225 O 0.81669 0.95844 0.62819 0.0
O226 O 0.80502 0.10964 0.62513 0.0
O227 O 0.80948 0.05562 0.59396 0.0
O228 O 0.83148 0.02688 0.57319 0.0
C229 C 0.78066 0.11376 0.62115 0.0
O230 O 0.76865 0.10054 0.60435 0.0
O231 O 0.84679 0.10949 0.58231 0.0
C232 C 0.87459 0.96562 0.61561 0.0
O233 O 0.87533 0.97817 0.63585 0.0
O234 O 0.86051 0.97509 0.59896 0.0
O235 O 0.86013 0.03026 0.63002 0.0
O236 O 0.85612 0.07416 0.63013 0.0
O237 O 0.80292 0.99834 0.61668 0.0
C238 C 0.8165 0.04708 0.57394 0.0
C239 C 0.86614 0.05298 0.63829 0.0
Zn240 Zn 0.93094 0.18565 0.89026 0.0
Zn241 Zn 0.99648 0.16028 0.89657 0.0
C242 C 0.88798 0.15501 0.90511 0.0
O243 O 0.88278 0.15938 0.88272 0.0
C244 C 0.03039 0.20456 0.89965 0.0
O245 O 0.03912 0.18993 0.91719 0.0
O246 O 0.90571 0.21398 0.88051 0.0
O247 O 0.96255 0.20229 0.90495 0.0
O248 O 0.97618 0.16967 0.92704 0.0
C249 C 0.89521 0.22709 0.89717 0.0
O250 O 0.90432 0.22386 0.91869 0.0
O251 O 0.90957 0.16384 0.9136 0.0
C252 C 0.04468 0.13533 0.88601 0.0
O253 O 0.03978 0.14916 0.86685 0.0
O254 O 0.02805 0.13619 0.9029 0.0
O255 O 0.97701 0.14333 0.86858 0.0
O256 O 0.93832 0.16302 0.86241 0.0
O257 O 0.01205 0.19556 0.88656 0.0
C258 C 0.96675 0.19298 0.92533 0.0
C259 C 0.95598 0.14643 0.85644 0.0
Zn260 Zn 0.31648 0.933 0.89881 0.0
Zn261 Zn 0.34596 0.98309 0.90863 0.0
C262 C 0.35297 0.89079 0.90806 0.0
O263 O 0.34489 0.88429 0.88681 0.0
C264 C 0.30319 0.0189 0.90327 0.0
O265 O 0.31705 0.0303 0.92001 0.0
O266 O 0.29043 0.90499 0.89078 0.0
O267 O 0.2973 0.95757 0.92062 0.0
O268 O 0.33358 0.96716 0.94011 0.0
C269 C 0.28023 0.89299 0.90822 0.0
O270 O 0.2854 0.90143 0.92965 0.0
O271 O 0.34481 0.91247 0.91696 0.0
C272 C 0.37772 0.0252 0.89408 0.0
O273 O 0.37102 0.01388 0.87411 0.0
O274 O 0.36952 0.01514 0.91336 0.0
O275 O 0.36662 0.95982 0.8856 0.0
O276 O 0.3305 0.94657 0.868 0.0
O277 O 0.31223 0.99795 0.89371 0.0
C278 C 0.30873 0.96286 0.93994 0.0
C279 C 0.35504 0.95157 0.86714 0.0
Zn280 Zn 0.58104 0.31438 0.89736 0.0
Zn281 Zn 0.51046 0.33298 0.90264 0.0
C282 C 0.62341 0.34525 0.91143 0.0
O283 O 0.62801 0.34046 0.88902 0.0
C284 C 0.5007 0.28087 0.879 0.0
O285 O 0.52013 0.28619 0.86434 0.0
O286 O 0.6075 0.28799 0.88613 0.0
O287 O 0.55034 0.2953 0.91121 0.0
O288 O 0.53048 0.32426 0.9335 0.0
C289 C 0.61999 0.27565 0.90216 0.0
O290 O 0.61168 0.27757 0.92406 0.0
O291 O 0.60201 0.33664 0.92055 0.0
C292 C 0.46536 0.36091 0.88943 0.0
O293 O 0.47334 0.34966 0.86978 0.0
O294 O 0.47877 0.35702 0.90816 0.0
O295 O 0.52979 0.3493 0.87395 0.0
O296 O 0.5719 0.33726 0.87037 0.0
O297 O 0.49406 0.29783 0.89445 0.0
C298 C 0.54407 0.30312 0.93164 0.0
C299 C 0.5519 0.35008 0.86312 0.0
Zn300 Zn 0.18021 0.58257 0.89794 0.0
Zn301 Zn 0.16471 0.51374 0.90271 0.0
C302 C 0.14506 0.6217 0.91448 0.0
O303 O 0.14678 0.62725 0.89187 0.0
C304 C 0.21565 0.49812 0.87776 0.0
O305 O 0.20625 0.50725 0.85772 0.0
O306 O 0.20546 0.61057 0.88815 0.0
O307 O 0.20149 0.55305 0.91152 0.0
O308 O 0.17067 0.53496 0.93313 0.0
C309 C 0.21872 0.62092 0.90474 0.0
O310 O 0.2172 0.61053 0.92597 0.0
O311 O 0.1571 0.60131 0.92226 0.0
C312 C 0.14381 0.46417 0.89245 0.0
O313 O 0.15894 0.46917 0.87413 0.0
O314 O 0.14226 0.48132 0.90883 0.0
O315 O 0.14804 0.53098 0.87334 0.0
O316 O 0.15873 0.57332 0.86996 0.0
O317 O 0.2015 0.49921 0.89628 0.0
C318 C 0.193 0.54643 0.93166 0.0
C319 C 0.14692 0.55295 0.8623 0.0
H320 H 0.60071 0.12228 0.33736 0.0
H321 H 0.60775 0.10104 0.29943 0.0
H322 H 0.52347 0.09904 0.28757 0.0
H323 H 0.51613 0.12094 0.32574 0.0
H324 H 0.58981 0.0527 0.28111 0.0
H325 H 0.55236 0.13885 0.2294 0.0
H326 H 0.56 0.14131 0.26042 0.0
H327 H 0.5305 0.12467 0.25102 0.0
C328 C 0.58355 0.11727 0.32683 0.0
C329 C 0.55782 0.12359 0.33456 0.0
C330 C 0.58765 0.105 0.30513 0.0
C331 C 0.56619 0.09877 0.29051 0.0
C332 C 0.54035 0.10406 0.29844 0.0
H333 H 0.59488 0.04992 0.14273 0.0
H334 H 0.57073 0.05749 0.17977 0.0
C335 C 0.53618 0.11637 0.32033 0.0
C336 C 0.57161 0.08772 0.26672 0.0
H337 H 0.57305 0.10472 0.20834 0.0
C338 C 0.58572 0.06384 0.26514 0.0
C339 C 0.5662 0.10224 0.24588 0.0
C340 C 0.55158 0.12828 0.24658 0.0
C341 C 0.59566 0.05473 0.24349 0.0
C342 C 0.59166 0.07006 0.22291 0.0
C343 C 0.57614 0.09306 0.22419 0.0
C344 C 0.60592 0.06419 0.20062 0.0
C345 C 0.61106 0.02915 0.24292 0.0
C346 C 0.63363 0.0657 0.20007 0.0
C347 C 0.64741 0.06159 0.17903 0.0
C348 C 0.63378 0.05588 0.15802 0.0
C349 C 0.60597 0.05417 0.15862 0.0
C350 C 0.59214 0.05851 0.17973 0.0
H351 H 0.60565 0.01609 0.25794 0.0
H352 H 0.60762 0.01833 0.22616 0.0
H353 H 0.63251 0.03357 0.24428 0.0
H354 H 0.64462 0.07055 0.21588 0.0
H355 H 0.66879 0.06311 0.17925 0.0
H356 H 0.48949 0.62082 0.16062 0.0
H357 H 0.48362 0.59448 0.19674 0.0
H358 H 0.40182 0.61869 0.20011 0.0
H359 H 0.40727 0.64447 0.16429 0.0
H360 H 0.46942 0.61176 0.24082 0.0
H361 H 0.39545 0.5397 0.20985 0.0
H362 H 0.41483 0.55954 0.18974 0.0
H363 H 0.38514 0.57275 0.2029 0.0
C364 C 0.47019 0.62026 0.16893 0.0
C365 C 0.44887 0.63478 0.15947 0.0
C366 C 0.46687 0.6052 0.18956 0.0
C367 C 0.44213 0.60415 0.20088 0.0
C368 C 0.4209 0.61855 0.19138 0.0
H369 H 0.38559 0.60244 0.33766 0.0
H370 H 0.4086 0.60894 0.30053 0.0
C371 C 0.42417 0.63355 0.17093 0.0
C372 C 0.43847 0.58982 0.22357 0.0
H373 H 0.39486 0.54923 0.25199 0.0
C374 C 0.45353 0.59759 0.24317 0.0
C375 C 0.41817 0.57084 0.22666 0.0
C376 C 0.4027 0.56001 0.20608 0.0
C377 C 0.44731 0.58868 0.266 0.0
C378 C 0.42513 0.57199 0.26936 0.0
C379 C 0.41159 0.56237 0.24953 0.0
C380 C 0.41355 0.56724 0.29312 0.0
C381 C 0.46405 0.59795 0.28639 0.0
C382 C 0.4082 0.54153 0.30133 0.0
C383 C 0.3947 0.53766 0.32274 0.0
C384 C 0.386 0.55949 0.33607 0.0
C385 C 0.39193 0.58512 0.32793 0.0
C386 C 0.40539 0.58892 0.30673 0.0
H387 H 0.48479 0.60151 0.2807 0.0
H388 H 0.45604 0.61696 0.2931 0.0
H389 H 0.46411 0.58336 0.30105 0.0
H390 H 0.41405 0.52449 0.29099 0.0
H391 H 0.39036 0.51768 0.32843 0.0
H392 H 0.90358 0.37212 0.3355 0.0
H393 H 0.8959 0.39528 0.29854 0.0
H394 H 0.97656 0.42303 0.29856 0.0
H395 H 0.98472 0.39933 0.33575 0.0
H396 H 0.9005 0.44856 0.28605 0.0
H397 H 0.96978 0.38469 0.23489 0.0
H398 H 0.95909 0.37615 0.2643 0.0
H399 H 0.98302 0.4019 0.25998 0.0
C400 C 0.91979 0.38317 0.3278 0.0
C401 C 0.9449 0.38358 0.33855 0.0
C402 C 0.91528 0.39654 0.30666 0.0
C403 C 0.9357 0.41065 0.29564 0.0
C404 C 0.96062 0.41193 0.3066 0.0
H405 H 0.88228 0.4896 0.16357 0.0
H406 H 0.90604 0.4848 0.20118 0.0
C407 C 0.9652 0.39847 0.3279 0.0
C408 C 0.93063 0.42277 0.27219 0.0
H409 H 0.94272 0.41365 0.21347 0.0
C410 C 0.91009 0.44139 0.27016 0.0
C411 C 0.94312 0.41325 0.25152 0.0
C412 C 0.96488 0.39279 0.25258 0.0
C413 C 0.90062 0.44956 0.248 0.0
C414 C 0.9123 0.43909 0.22733 0.0
C415 C 0.9339 0.42171 0.22937 0.0
C416 C 0.89986 0.44254 0.20379 0.0
C417 C 0.87701 0.46786 0.24689 0.0
C418 C 0.88917 0.42034 0.19253 0.0
C419 C 0.87576 0.42296 0.17117 0.0
C420 C 0.87273 0.44791 0.16044 0.0
C421 C 0.88414 0.47012 0.17139 0.0
C422 C 0.89762 0.46744 0.19292 0.0
H423 H 0.86809 0.47129 0.26455 0.0
H424 H 0.88325 0.48724 0.23959 0.0
H425 H 0.8616 0.45962 0.23504 0.0
H426 H 0.89065 0.40094 0.20058 0.0
H427 H 0.86745 0.40535 0.16325 0.0
H428 H 0.10878 0.99145 0.33664 0.0
H429 H 0.08379 0.98424 0.30002 0.0
H430 H 0.09753 0.90029 0.30592 0.0
H431 H 0.122 0.90714 0.34227 0.0
H432 H 0.10317 0.96255 0.2591 0.0
H433 H 0.01928 0.90236 0.29054 0.0
H434 H 0.03962 0.9216 0.31031 0.0
H435 H 0.05005 0.88913 0.30103 0.0
C436 C 0.10608 0.97143 0.33032 0.0
C437 C 0.11747 0.9499 0.34241 0.0
C438 C 0.09181 0.96735 0.30939 0.0
C439 C 0.08837 0.94167 0.30043 0.0
C440 C 0.0993 0.9202 0.31276 0.0
H441 H 0.09099 0.86935 0.16974 0.0
H442 H 0.09702 0.89398 0.20607 0.0
C443 C 0.11357 0.92423 0.33349 0.0
C444 C 0.07568 0.93702 0.27715 0.0
H445 H 0.03225 0.89564 0.24954 0.0
C446 C 0.0872 0.94842 0.25703 0.0
C447 C 0.05451 0.91897 0.27437 0.0
C448 C 0.03997 0.90756 0.29527 0.0
C449 C 0.07967 0.94053 0.23425 0.0
C450 C 0.06043 0.92044 0.23155 0.0
C451 C 0.04729 0.91075 0.25159 0.0
C452 C 0.05627 0.90689 0.20862 0.0
C453 C 0.09311 0.9531 0.21329 0.0
C454 C 0.03113 0.90542 0.1981 0.0
C455 C 0.02749 0.89111 0.17712 0.0
C456 C 0.0489 0.87771 0.16659 0.0
C457 C 0.074 0.87936 0.17727 0.0
C458 C 0.07759 0.89369 0.19801 0.0
H459 H 0.09975 0.97351 0.21744 0.0
H460 H 0.11091 0.94133 0.20858 0.0
H461 H 0.07977 0.95381 0.19774 0.0
H462 H 0.01433 0.91523 0.20617 0.0
H463 H 0.00791 0.89016 0.16942 0.0
H464 H 0.40889 0.9528 0.8602 0.0
H465 H 0.43299 0.94455 0.82326 0.0
H466 H 0.35899 0.93264 0.78703 0.0
H467 H 0.33483 0.9406 0.82364 0.0
H468 H 0.42818 0.8962 0.7939 0.0
H469 H 0.40074 0.98802 0.7462 0.0
H470 H 0.39948 0.98525 0.77799 0.0
H471 H 0.37341 0.97159 0.76024 0.0
C472 C 0.39776 0.94857 0.84433 0.0
C473 C 0.36992 0.94737 0.84488 0.0
C474 C 0.41156 0.94386 0.82327 0.0
C475 C 0.39774 0.93833 0.80239 0.0
C476 C 0.37001 0.93728 0.80288 0.0
H477 H 0.40196 0.8858 0.66388 0.0
H478 H 0.39576 0.90674 0.70202 0.0
C479 C 0.35624 0.9417 0.82388 0.0
C480 C 0.41195 0.93239 0.78011 0.0
H481 H 0.41599 0.95183 0.72254 0.0
C482 C 0.4261 0.90858 0.77836 0.0
C483 C 0.4092 0.94867 0.75997 0.0
C484 C 0.39509 0.97495 0.76115 0.0
C485 C 0.43589 0.89963 0.75653 0.0
C486 C 0.43184 0.91525 0.73607 0.0
C487 C 0.4191 0.93986 0.7382 0.0
C488 C 0.43704 0.9048 0.71201 0.0
C489 C 0.44883 0.87274 0.75528 0.0
C490 C 0.46254 0.89739 0.70452 0.0
C491 C 0.46622 0.88518 0.68251 0.0
C492 C 0.44442 0.88024 0.6677 0.0
C493 C 0.4192 0.88898 0.67487 0.0
C494 C 0.41559 0.90109 0.69671 0.0
H495 H 0.44662 0.86146 0.772 0.0
H496 H 0.4402 0.86091 0.7407 0.0
H497 H 0.47028 0.87516 0.7517 0.0
H498 H 0.47948 0.90053 0.71587 0.0
H499 H 0.48591 0.87879 0.67749 0.0
H500 H 0.51388 0.36417 0.83052 0.0
H501 H 0.52155 0.38487 0.79174 0.0
H502 H 0.60446 0.39281 0.80821 0.0
H503 H 0.59718 0.37178 0.84635 0.0
H504 H 0.54556 0.43382 0.7753 0.0
H505 H 0.60325 0.34509 0.74958 0.0
H506 H 0.58236 0.34577 0.7754 0.0
H507 H 0.61496 0.36002 0.77631 0.0
C508 C 0.53364 0.3707 0.82594 0.0
C509 C 0.55501 0.3659 0.84127 0.0
C510 C 0.53799 0.38253 0.80383 0.0
C511 C 0.56368 0.38986 0.79694 0.0
C512 C 0.58459 0.38679 0.81296 0.0
H513 H 0.6301 0.47672 0.67914 0.0
H514 H 0.60761 0.46539 0.7162 0.0
C515 C 0.58037 0.37474 0.83477 0.0
C516 C 0.56946 0.39867 0.77247 0.0
H517 H 0.60737 0.38274 0.72477 0.0
C518 C 0.55883 0.42259 0.76408 0.0
C519 C 0.58644 0.38376 0.75773 0.0
C520 C 0.59721 0.35711 0.76509 0.0
C521 C 0.56551 0.4324 0.74155 0.0
C522 C 0.58363 0.41811 0.72733 0.0
C523 C 0.59358 0.39385 0.73561 0.0
C524 C 0.59303 0.42755 0.70388 0.0
C525 C 0.55294 0.4578 0.73318 0.0
C526 C 0.59215 0.41032 0.68448 0.0
C527 C 0.60551 0.41646 0.66365 0.0
C528 C 0.61971 0.4402 0.66154 0.0
C529 C 0.61907 0.4584 0.68025 0.0
C530 C 0.60609 0.45198 0.70139 0.0
H531 H 0.53386 0.46159 0.74233 0.0
H532 H 0.56639 0.47453 0.73716 0.0
H533 H 0.54936 0.45741 0.71385 0.0
H534 H 0.58218 0.39142 0.68587 0.0
H535 H 0.60556 0.40213 0.64945 0.0
H536 H 0.10176 0.62025 0.66176 0.0
H537 H 0.10836 0.59662 0.69854 0.0
H538 H 0.02395 0.58748 0.70637 0.0
H539 H 0.01701 0.61186 0.66929 0.0
H540 H 0.0465 0.60654 0.74607 0.0
H541 H 0.1043 0.52002 0.71713 0.0
H542 H 0.11877 0.54967 0.70558 0.0
H543 H 0.08582 0.54032 0.69666 0.0
C544 C 0.08448 0.61297 0.67103 0.0
C545 C 0.0588 0.61809 0.66253 0.0
C546 C 0.08835 0.59913 0.69203 0.0
C547 C 0.06671 0.58976 0.70506 0.0
C548 C 0.04098 0.59428 0.69647 0.0
H549 H 0.11985 0.51413 0.83801 0.0
H550 H 0.09498 0.5192 0.80098 0.0
C551 C 0.03704 0.60818 0.67527 0.0
C552 C 0.0714 0.57788 0.72872 0.0
H553 H 0.11281 0.53514 0.75744 0.0
C554 C 0.06048 0.59046 0.74854 0.0
C555 C 0.08921 0.55653 0.7321 0.0
C556 C 0.09993 0.5407 0.71168 0.0
C557 C 0.06868 0.58385 0.77148 0.0
C558 C 0.08871 0.56454 0.77466 0.0
C559 C 0.09784 0.55031 0.75502 0.0
C560 C 0.10255 0.56116 0.79761 0.0
C561 C 0.05641 0.59827 0.79206 0.0
C562 C 0.11541 0.58289 0.80777 0.0
C563 C 0.12957 0.58009 0.82873 0.0
C564 C 0.13148 0.55537 0.84007 0.0
C565 C 0.11872 0.53347 0.82982 0.0
C566 C 0.10448 0.53633 0.80868 0.0
H567 H 0.03584 0.60457 0.78794 0.0
H568 H 0.05612 0.58577 0.80818 0.0
H569 H 0.06808 0.61636 0.7958 0.0
H570 H 0.11489 0.60207 0.79924 0.0
H571 H 0.13919 0.59742 0.83594 0.0
H572 H 0.89068 0.09738 0.65421 0.0
H573 H 0.91396 0.10353 0.69126 0.0
H574 H 0.90505 0.0206 0.70725 0.0
H575 H 0.88084 0.01436 0.67016 0.0
H576 H 0.88884 0.05059 0.74315 0.0
H577 H 0.98667 0.0871 0.7154 0.0
H578 H 0.96115 0.10589 0.70118 0.0
H579 H 0.96432 0.07102 0.69514 0.0
C580 C 0.89402 0.08026 0.66534 0.0
C581 C 0.88381 0.05533 0.65914 0.0
C582 C 0.90766 0.08379 0.68649 0.0
C583 C 0.91174 0.06247 0.70194 0.0
C584 C 0.90239 0.0373 0.69549 0.0
H585 H 0.98933 0.11002 0.83548 0.0
H586 H 0.98106 0.08434 0.79943 0.0
C587 C 0.88866 0.03373 0.67422 0.0
C588 C 0.92285 0.06749 0.72583 0.0
H589 H 0.9714 0.10211 0.7541 0.0
C590 C 0.90723 0.06129 0.74557 0.0
C591 C 0.94708 0.08101 0.7292 0.0
C592 C 0.96587 0.08635 0.70907 0.0
C593 C 0.91409 0.07011 0.76823 0.0
C594 C 0.93688 0.08602 0.77118 0.0
C595 C 0.95366 0.09034 0.7518 0.0
C596 C 0.94198 0.1006 0.79347 0.0
C597 C 0.8964 0.06294 0.78871 0.0
C598 C 0.92298 0.11854 0.80184 0.0
C599 C 0.9276 0.13316 0.82227 0.0
C600 C 0.95149 0.13043 0.83481 0.0
C601 C 0.97067 0.11256 0.82633 0.0
C602 C 0.96599 0.09787 0.80574 0.0
H603 H 0.88604 0.04392 0.78548 0.0
H604 H 0.90779 0.06131 0.8054 0.0
H605 H 0.88108 0.0785 0.7909 0.0
H606 H 0.90461 0.12154 0.79235 0.0
H607 H 0.91237 0.14676 0.82811 0.0
H608 H 0.43414 0.12595 0.42147 0.0
H609 H 0.38975 0.10679 0.42476 0.0
H610 H 0.39869 0.07113 0.35616 0.0
H611 H 0.44302 0.08997 0.35275 0.0
H612 H 0.34734 0.11676 0.39304 0.0
H613 H 0.37159 0.00965 0.39731 0.0
H614 H 0.39578 0.03509 0.40307 0.0
H615 H 0.38665 0.02726 0.37325 0.0
C616 C 0.42682 0.11371 0.40723 0.0
C617 C 0.44216 0.10948 0.38686 0.0
C618 C 0.40143 0.10284 0.40911 0.0
C619 C 0.39103 0.08731 0.39081 0.0
C620 C 0.40648 0.08266 0.37067 0.0
H621 H 0.23634 0.01364 0.36785 0.0
H622 H 0.28195 0.02965 0.36323 0.0
C623 C 0.43179 0.09358 0.36872 0.0
C624 C 0.36345 0.07734 0.39211 0.0
H625 H 0.32626 0.02094 0.39285 0.0
C626 C 0.34273 0.09582 0.39311 0.0
C627 C 0.35749 0.05 0.39192 0.0
C628 C 0.37902 0.02929 0.39152 0.0
C629 C 0.31617 0.08772 0.39377 0.0
C630 C 0.31018 0.06038 0.39392 0.0
C631 C 0.33089 0.04188 0.39267 0.0
C632 C 0.2826 0.05068 0.39646 0.0
C633 C 0.29473 0.10855 0.39395 0.0
C634 C 0.26802 0.05689 0.41677 0.0
C635 C 0.24209 0.04788 0.41941 0.0
C636 C 0.23016 0.03226 0.40186 0.0
C637 C 0.24489 0.02577 0.3816 0.0
C638 C 0.27095 0.03483 0.37898 0.0
H639 H 0.302 0.12775 0.38695 0.0
H640 H 0.27739 0.10223 0.38333 0.0
H641 H 0.28803 0.1118 0.41237 0.0
H642 H 0.27679 0.06858 0.43072 0.0
H643 H 0.23147 0.05309 0.43535 0.0
H644 H 0.3748 0.43117 0.34538 0.0
H645 H 0.39512 0.38745 0.34612 0.0
H646 H 0.41659 0.39853 0.41907 0.0
H647 H 0.39568 0.44239 0.41865 0.0
H648 H 0.44604 0.37187 0.35501 0.0
H649 H 0.37689 0.32847 0.42072 0.0
H650 H 0.37072 0.35987 0.40658 0.0
H651 H 0.39398 0.35759 0.43049 0.0
C652 C 0.38381 0.4244 0.36164 0.0
C653 C 0.38344 0.44025 0.38203 0.0
C654 C 0.3955 0.39937 0.36199 0.0
C655 C 0.40708 0.38955 0.38271 0.0
C656 C 0.40731 0.4055 0.403 0.0
H657 H 0.50423 0.24551 0.38531 0.0
H658 H 0.48951 0.29164 0.38582 0.0
C659 C 0.39549 0.43062 0.4027 0.0
C660 C 0.41857 0.36248 0.38283 0.0
H661 H 0.41171 0.30115 0.40737 0.0
C662 C 0.43863 0.35641 0.36652 0.0
C663 C 0.40862 0.34226 0.39765 0.0
C664 C 0.38621 0.3472 0.41472 0.0
C665 C 0.44887 0.33065 0.36449 0.0
C666 C 0.43913 0.3105 0.3795 0.0
C667 C 0.41923 0.31663 0.39594 0.0
C668 C 0.44857 0.2827 0.37798 0.0
C669 C 0.46939 0.32507 0.34578 0.0
C670 C 0.43044 0.26228 0.37359 0.0
C671 C 0.43873 0.23589 0.37348 0.0
C672 C 0.46536 0.22935 0.37778 0.0
C673 C 0.48363 0.24987 0.38168 0.0
C674 C 0.47526 0.27629 0.38193 0.0
H675 H 0.46962 0.34066 0.33194 0.0
H676 H 0.48927 0.32449 0.35407 0.0
H677 H 0.46578 0.30567 0.33722 0.0
H678 H 0.40975 0.26675 0.3705 0.0
H679 H 0.42415 0.2206 0.37044 0.0
H680 H 0.063 0.40043 0.42327 0.0
H681 H 0.10667 0.42159 0.4237 0.0
H682 H 0.11456 0.40785 0.34896 0.0
H683 H 0.07127 0.38663 0.34835 0.0
H684 H 0.15808 0.39082 0.37534 0.0
H685 H 0.13028 0.49419 0.39753 0.0
H686 H 0.11709 0.46943 0.41703 0.0
H687 H 0.10663 0.47033 0.38675 0.0
C688 C 0.07393 0.40217 0.40689 0.0
C689 C 0.06365 0.3918 0.38579 0.0
C690 C 0.09881 0.41438 0.40715 0.0
C691 C 0.11373 0.41652 0.3863 0.0
C692 C 0.10334 0.40649 0.36522 0.0
H693 H 0.26325 0.50144 0.36513 0.0
H694 H 0.2177 0.48504 0.36091 0.0
C695 C 0.07855 0.39435 0.36493 0.0
C696 C 0.14086 0.42771 0.38658 0.0
H697 H 0.17624 0.48376 0.39813 0.0
C698 C 0.16203 0.41117 0.38021 0.0
C699 C 0.14592 0.45435 0.39267 0.0
C700 C 0.1238 0.47324 0.39869 0.0
C701 C 0.18821 0.42038 0.38032 0.0
C702 C 0.19337 0.44674 0.38716 0.0
C703 C 0.17218 0.46351 0.39298 0.0
C704 C 0.22078 0.45676 0.38946 0.0
C705 C 0.21021 0.40183 0.37313 0.0
C706 C 0.2374 0.44638 0.40697 0.0
C707 C 0.26323 0.45568 0.40945 0.0
C708 C 0.27303 0.47558 0.39444 0.0
C709 C 0.25634 0.48598 0.37685 0.0
C710 C 0.23033 0.47673 0.37448 0.0
H711 H 0.20261 0.38457 0.36311 0.0
H712 H 0.22513 0.41227 0.36216 0.0
H713 H 0.22031 0.39431 0.38919 0.0
H714 H 0.23029 0.43118 0.41886 0.0
H715 H 0.27549 0.44727 0.42323 0.0
H716 H 0.10743 0.07202 0.35297 0.0
H717 H 0.08767 0.11609 0.35567 0.0
H718 H 0.0984 0.11522 0.43112 0.0
H719 H 0.11824 0.07099 0.42864 0.0
H720 H 0.04212 0.13392 0.38454 0.0
H721 H 0.13734 0.18341 0.40615 0.0
H722 H 0.13588 0.15092 0.39299 0.0
H723 H 0.12879 0.15508 0.4238 0.0
C724 C 0.10551 0.08111 0.37019 0.0
C725 C 0.11456 0.06805 0.3906 0.0
C726 C 0.09415 0.10627 0.37167 0.0
C727 C 0.09185 0.11896 0.39354 0.0
C728 C 0.10028 0.10581 0.41404 0.0
H729 H 0.04465 0.27498 0.43812 0.0
H730 H 0.06064 0.22967 0.43465 0.0
C731 C 0.1115 0.08052 0.4126 0.0
C732 C 0.08121 0.14623 0.39474 0.0
H733 H 0.09894 0.21 0.40628 0.0
C734 C 0.05448 0.15061 0.38926 0.0
C735 C 0.09748 0.16788 0.40082 0.0
C736 C 0.12653 0.16429 0.40613 0.0
C737 C 0.04338 0.17611 0.39025 0.0
C738 C 0.05968 0.19782 0.3963 0.0
C739 C 0.08648 0.19336 0.40161 0.0
C740 C 0.04926 0.22523 0.39808 0.0
C741 C 0.01418 0.17943 0.38546 0.0
C742 C 0.03767 0.23797 0.37858 0.0
C743 C 0.02831 0.26398 0.38053 0.0
C744 C 0.03072 0.27779 0.40195 0.0
C745 C 0.04257 0.26501 0.42132 0.0
C746 C 0.05172 0.23905 0.4194 0.0
H747 H 0.00336 0.16042 0.38721 0.0
H748 H 0.00521 0.19406 0.39769 0.0
H749 H 0.0114 0.18671 0.36715 0.0
H750 H 0.0361 0.2279 0.36179 0.0
H751 H 0.01937 0.27332 0.36528 0.0
H752 H 0.91301 0.85992 0.1391 0.0
H753 H 0.87107 0.88344 0.13591 0.0
H754 H 0.90314 0.93151 0.07984 0.0
H755 H 0.9451 0.90712 0.08232 0.0
H756 H 0.85841 0.93327 0.14277 0.0
H757 H 0.83587 0.90727 0.04983 0.0
H758 H 0.86261 0.89203 0.06596 0.0
H759 H 0.86661 0.92449 0.05339 0.0
C760 C 0.91116 0.87541 0.12598 0.0
C761 C 0.93235 0.88155 0.11085 0.0
C762 C 0.88714 0.88892 0.12423 0.0
C763 C 0.88372 0.90907 0.10745 0.0
C764 C 0.90501 0.9156 0.09254 0.0
H765 H 0.74328 0.01296 0.11507 0.0
H766 H 0.78853 0.99573 0.11868 0.0
C767 C 0.92904 0.90175 0.09404 0.0
C768 C 0.8578 0.92302 0.10589 0.0
H769 H 0.8064 0.93669 0.0687 0.0
C770 C 0.84704 0.93405 0.12656 0.0
C771 C 0.84282 0.92384 0.0848 0.0
C772 C 0.85241 0.91107 0.06229 0.0
C773 C 0.82159 0.94534 0.12685 0.0
C774 C 0.80676 0.94644 0.10569 0.0
C775 C 0.81777 0.93594 0.08492 0.0
C776 C 0.77922 0.95693 0.10478 0.0
C777 C 0.8105 0.95495 0.15005 0.0
C778 C 0.75894 0.94109 0.09551 0.0
C779 C 0.73332 0.95106 0.09302 0.0
C780 C 0.72727 0.97701 0.10002 0.0
C781 C 0.74731 0.99272 0.10992 0.0
C782 C 0.77316 0.98286 0.11203 0.0
H783 H 0.82107 0.94605 0.16531 0.0
H784 H 0.81284 0.97672 0.15114 0.0
H785 H 0.78912 0.95022 0.15164 0.0
H786 H 0.76304 0.92103 0.08985 0.0
H787 H 0.71827 0.93851 0.08532 0.0
H788 H 0.49603 0.75759 0.11295 0.0
H789 H 0.50885 0.80438 0.11241 0.0
H790 H 0.58738 0.78238 0.08966 0.0
H791 H 0.57434 0.73591 0.0892 0.0
H792 H 0.54391 0.83273 0.13489 0.0
H793 H 0.56969 0.83571 0.04035 0.0
H794 H 0.55294 0.80787 0.0535 0.0
H795 H 0.58849 0.81057 0.05509 0.0
C796 C 0.51607 0.76279 0.10801 0.0
C797 C 0.53417 0.74318 0.10098 0.0
C798 C 0.52334 0.78952 0.10758 0.0
C799 C 0.54886 0.79701 0.1003 0.0
C800 C 0.56729 0.77724 0.09446 0.0
H801 H 0.63482 0.93685 0.13386 0.0
H802 H 0.61189 0.89466 0.13236 0.0
C803 C 0.55991 0.75065 0.09447 0.0
C804 C 0.55655 0.82537 0.09918 0.0
H805 H 0.58772 0.87076 0.06425 0.0
C806 C 0.55316 0.84114 0.11933 0.0
C807 C 0.56789 0.83672 0.07867 0.0
C808 C 0.56966 0.82189 0.05562 0.0
C809 C 0.56211 0.86741 0.11994 0.0
C810 C 0.57573 0.87791 0.10018 0.0
C811 C 0.57778 0.86263 0.07959 0.0
C812 C 0.58931 0.90398 0.10095 0.0
C813 C 0.55676 0.88357 0.14181 0.0
C814 C 0.58531 0.923 0.08315 0.0
C815 C 0.59903 0.94708 0.08362 0.0
C816 C 0.61682 0.95258 0.10202 0.0
C817 C 0.62092 0.93343 0.11965 0.0
C818 C 0.6076 0.90932 0.11895 0.0
H819 H 0.53838 0.87688 0.15077 0.0
H820 H 0.57334 0.8809 0.15443 0.0
H821 H 0.55477 0.90494 0.13764 0.0
H822 H 0.57153 0.91924 0.06891 0.0
H823 H 0.59554 0.96145 0.06977 0.0
H824 H 0.56509 0.62217 0.07432 0.0
H825 H 0.60655 0.59667 0.07527 0.0
H826 H 0.60914 0.6042 0.15099 0.0
H827 H 0.56797 0.62933 0.15028 0.0
H828 H 0.65614 0.61353 0.09362 0.0
H829 H 0.61971 0.52452 0.1407 0.0
H830 H 0.59772 0.54804 0.12681 0.0
H831 H 0.61185 0.55509 0.15522 0.0
C832 C 0.57441 0.6182 0.09117 0.0
C833 C 0.56316 0.62774 0.11222 0.0
C834 C 0.59808 0.60366 0.09168 0.0
C835 C 0.61069 0.59819 0.11324 0.0
C836 C 0.59948 0.6077 0.13421 0.0
H837 H 0.75762 0.5266 0.16083 0.0
H838 H 0.71404 0.54781 0.15755 0.0
C839 C 0.57598 0.62225 0.13372 0.0
C840 C 0.63622 0.58362 0.11396 0.0
H841 H 0.66653 0.52927 0.13769 0.0
C842 C 0.65838 0.59497 0.10302 0.0
C843 C 0.63911 0.55951 0.12642 0.0
C844 C 0.6158 0.54591 0.13779 0.0
C845 C 0.68354 0.58323 0.10475 0.0
C846 C 0.68649 0.5592 0.11737 0.0
C847 C 0.66426 0.54772 0.12811 0.0
C848 C 0.71248 0.54563 0.11944 0.0
C849 C 0.70688 0.59708 0.09364 0.0
C850 C 0.72576 0.53684 0.09918 0.0
C851 C 0.7506 0.52485 0.10098 0.0
C852 C 0.76265 0.52115 0.12315 0.0
C853 C 0.74896 0.52924 0.14351 0.0
C854 C 0.72407 0.54135 0.14166 0.0
H855 H 0.70263 0.61832 0.09023 0.0
H856 H 0.72467 0.59562 0.10507 0.0
H857 H 0.71153 0.58758 0.07649 0.0
H858 H 0.71692 0.53933 0.08191 0.0
H859 H 0.76038 0.51854 0.08493 0.0
H860 H 0.98856 0.76157 0.133 0.0
H861 H 0.97134 0.71629 0.13606 0.0
H862 H 0.92355 0.72924 0.0741 0.0
H863 H 0.94043 0.77427 0.07093 0.0
H864 H 0.8963 0.70613 0.11326 0.0
H865 H 0.98983 0.6535 0.09095 0.0
H866 H 0.99182 0.67777 0.11407 0.0
H867 H 0.98468 0.68812 0.08445 0.0
C868 C 0.97432 0.75478 0.12009 0.0
C869 C 0.96588 0.77151 0.10172 0.0
C870 C 0.96466 0.72888 0.12176 0.0
C871 C 0.94643 0.71938 0.10512 0.0
C872 C 0.93771 0.73617 0.08703 0.0
H873 H 0.88845 0.56159 0.07345 0.0
H874 H 0.90928 0.60541 0.07213 0.0
C875 C 0.9474 0.76192 0.08528 0.0
C876 C 0.93586 0.69213 0.10663 0.0
H877 H 0.95294 0.627 0.10109 0.0
C878 C 0.90867 0.68881 0.11068 0.0
C879 C 0.95205 0.66965 0.10293 0.0
C880 C 0.9812 0.67226 0.09767 0.0
C881 C 0.89723 0.66357 0.1113 0.0
C882 C 0.91346 0.64106 0.10798 0.0
C883 C 0.94062 0.64434 0.10373 0.0
C884 C 0.90241 0.61398 0.10902 0.0
C885 C 0.86776 0.66115 0.11514 0.0
C886 C 0.8922 0.60418 0.13028 0.0
C887 C 0.88037 0.57927 0.1311 0.0
C888 C 0.87854 0.56362 0.11066 0.0
C889 C 0.88946 0.57319 0.08947 0.0
C890 C 0.90139 0.59817 0.0887 0.0
H891 H 0.85736 0.68027 0.11225 0.0
H892 H 0.85917 0.64609 0.10314 0.0
H893 H 0.86398 0.65473 0.13356 0.0
H894 H 0.89312 0.61596 0.14621 0.0
H895 H 0.87233 0.57248 0.14776 0.0
H896 H 0.77908 0.92781 0.64047 0.0
H897 H 0.73355 0.91167 0.63971 0.0
H898 H 0.70696 0.98696 0.61281 0.0
H899 H 0.75251 0.00347 0.61371 0.0
H900 H 0.67384 0.96571 0.64807 0.0
H901 H 0.6954 0.89218 0.57808 0.0
H902 H 0.71674 0.88947 0.6033 0.0
H903 H 0.7178 0.91875 0.58528 0.0
C904 C 0.76356 0.94107 0.63459 0.0
C905 C 0.76951 0.96688 0.62697 0.0
C906 C 0.73756 0.93173 0.63401 0.0
C907 C 0.71698 0.94791 0.6257 0.0
C908 C 0.7226 0.97407 0.61909 0.0
H909 H 0.56168 0.88508 0.58564 0.0
H910 H 0.60434 0.9082 0.5852 0.0
C911 C 0.74865 0.98348 0.61967 0.0
C912 C 0.68972 0.93731 0.62356 0.0
H913 H 0.65368 0.88835 0.59739 0.0
C914 C 0.66937 0.94891 0.63688 0.0
C915 C 0.68381 0.91572 0.60859 0.0
C916 C 0.70451 0.90343 0.5928 0.0
C917 C 0.64346 0.93885 0.6363 0.0
C918 C 0.63789 0.91638 0.62228 0.0
C919 C 0.65803 0.90541 0.6083 0.0
C920 C 0.61161 0.90329 0.62258 0.0
C921 C 0.62228 0.9524 0.65068 0.0
C922 C 0.60172 0.8926 0.64365 0.0
C923 C 0.57746 0.87942 0.64395 0.0
C924 C 0.5626 0.87645 0.62313 0.0
C925 C 0.57258 0.88708 0.60198 0.0
C926 C 0.59694 0.90029 0.60171 0.0
H927 H 0.6276 0.97326 0.65459 0.0
H928 H 0.60294 0.95213 0.64138 0.0
H929 H 0.61995 0.94187 0.66774 0.0
H930 H 0.61297 0.89412 0.65986 0.0
H931 H 0.57047 0.87138 0.66054 0.0
H932 H 0.6096 0.56016 0.65557 0.0
H933 H 0.58579 0.60216 0.65386 0.0
H934 H 0.59514 0.60384 0.57822 0.0
H935 H 0.61859 0.56142 0.57972 0.0
H936 H 0.60424 0.64935 0.63856 0.0
H937 H 0.51704 0.62032 0.5853 0.0
H938 H 0.53909 0.59635 0.59845 0.0
H939 H 0.54798 0.61259 0.57132 0.0
C940 C 0.6064 0.5693 0.63851 0.0
C941 C 0.61596 0.5574 0.61776 0.0
C942 C 0.59277 0.59334 0.63758 0.0
C943 C 0.58835 0.60601 0.61591 0.0
C944 C 0.59776 0.59414 0.59511 0.0
H945 H 0.53371 0.75811 0.56988 0.0
H946 H 0.55066 0.71322 0.57445 0.0
C947 C 0.6113 0.56996 0.596 0.0
C948 C 0.57521 0.63231 0.6153 0.0
H949 H 0.52375 0.66664 0.59084 0.0
C950 C 0.58648 0.65307 0.62832 0.0
C951 C 0.55199 0.63712 0.60199 0.0
C952 C 0.53814 0.61536 0.58865 0.0
C953 C 0.57566 0.67867 0.62779 0.0
C954 C 0.5528 0.68357 0.6141 0.0
C955 C 0.54128 0.66278 0.60135 0.0
C956 C 0.5415 0.71051 0.61164 0.0
C957 C 0.58929 0.70049 0.64125 0.0
C958 C 0.53036 0.72378 0.63103 0.0
C959 C 0.52057 0.74959 0.62849 0.0
C960 C 0.52184 0.7625 0.60652 0.0
C961 C 0.53259 0.74888 0.58711 0.0
C962 C 0.54222 0.72314 0.58964 0.0
H963 H 0.60934 0.69453 0.64733 0.0
H964 H 0.5911 0.71852 0.63015 0.0
H965 H 0.57729 0.70565 0.65699 0.0
H966 H 0.5293 0.7142 0.64811 0.0
H967 H 0.51228 0.7595 0.64374 0.0
H968 H 0.92119 0.64379 0.64118 0.0
H969 H 0.87948 0.61981 0.63991 0.0
H970 H 0.90922 0.57166 0.58293 0.0
H971 H 0.95098 0.59643 0.58354 0.0
H972 H 0.86034 0.58619 0.57415 0.0
H973 H 0.86289 0.5483 0.66542 0.0
H974 H 0.86582 0.5836 0.66525 0.0
H975 H 0.89126 0.56362 0.65176 0.0
C976 C 0.91897 0.62803 0.62841 0.0
C977 C 0.93949 0.62189 0.61255 0.0
C978 C 0.89513 0.61413 0.62786 0.0
C979 C 0.89141 0.59336 0.61182 0.0
C980 C 0.91172 0.58741 0.59567 0.0
H981 H 0.74849 0.49453 0.62484 0.0
H982 H 0.79466 0.50968 0.62564 0.0
C983 C 0.93555 0.6016 0.596 0.0
C984 C 0.86579 0.57887 0.61128 0.0
H985 H 0.81992 0.54906 0.64676 0.0
C986 C 0.85169 0.57775 0.58997 0.0
C987 C 0.85464 0.56723 0.63177 0.0
C988 C 0.86961 0.56547 0.65475 0.0
C989 C 0.8263 0.56657 0.58884 0.0
C990 C 0.81424 0.55702 0.60977 0.0
C991 C 0.82887 0.55687 0.63082 0.0
C992 C 0.78622 0.54802 0.61028 0.0
C993 C 0.81275 0.56504 0.56515 0.0
C994 C 0.76601 0.56483 0.6022 0.0
C995 C 0.73981 0.55615 0.60151 0.0
C996 C 0.7331 0.53068 0.60943 0.0
C997 C 0.75308 0.5143 0.61869 0.0
C998 C 0.77946 0.52289 0.61905 0.0
H999 H 0.8274 0.5643 0.55054 0.0
H1000 H 0.79979 0.54738 0.56392 0.0
H1001 H 0.80044 0.58301 0.56255 0.0
H1002 H 0.77052 0.58464 0.59616 0.0
H1003 H 0.72481 0.56935 0.59455 0.0
H1004 H 0.90679 0.94155 0.64776 0.0
H1005 H 0.92805 0.89829 0.64489 0.0
H1006 H 0.89472 0.88762 0.57554 0.0
H1007 H 0.87354 0.93119 0.57812 0.0
H1008 H 0.90362 0.84984 0.63943 0.0
H1009 H 0.97269 0.86921 0.56527 0.0
H1010 H 0.95621 0.89543 0.58116 0.0
H1011 H 0.93878 0.87713 0.55889 0.0
C1012 C 0.90412 0.93016 0.63177 0.0
C1013 C 0.88848 0.93989 0.61312 0.0
C1014 C 0.91629 0.90539 0.63019 0.0
C1015 C 0.91324 0.88984 0.60992 0.0
C1016 C 0.89778 0.89951 0.59117 0.0
H1017 H 0.95715 0.73262 0.56726 0.0
H1018 H 0.94006 0.77748 0.57139 0.0
C1019 C 0.88559 0.92437 0.59272 0.0
C1020 C 0.92531 0.86305 0.60891 0.0
H1021 H 0.96816 0.82443 0.57747 0.0
C1022 C 0.91788 0.84432 0.62599 0.0
C1023 C 0.94395 0.85592 0.5914 0.0
C1024 C 0.95361 0.87552 0.57325 0.0
C1025 C 0.92801 0.81842 0.62564 0.0
C1026 C 0.9464 0.81119 0.60795 0.0
C1027 C 0.95406 0.83002 0.59103 0.0
C1028 C 0.95698 0.78387 0.60595 0.0
C1029 C 0.91831 0.79877 0.64373 0.0
C1030 C 0.97237 0.77254 0.624 0.0
C1031 C 0.98218 0.74671 0.62173 0.0
C1032 C 0.97685 0.73185 0.60132 0.0
C1033 C 0.96159 0.74341 0.58327 0.0
C1034 C 0.95183 0.76912 0.58555 0.0
H1035 H 0.9 0.8057 0.65268 0.0
H1036 H 0.91431 0.77929 0.63545 0.0
H1037 H 0.9338 0.79591 0.65738 0.0
H1038 H 0.97697 0.78376 0.63973 0.0
H1039 H 0.99403 0.73846 0.63587 0.0
H1040 H 0.08797 0.13925 0.8577 0.0
H1041 H 0.12943 0.11487 0.86031 0.0
H1042 H 0.0996 0.07164 0.92035 0.0
H1043 H 0.05809 0.09691 0.91836 0.0
H1044 H 0.14823 0.0865 0.92835 0.0
H1045 H 0.14676 0.04175 0.8397 0.0
H1046 H 0.14382 0.07698 0.83752 0.0
H1047 H 0.11823 0.05819 0.85205 0.0
C1048 C 0.09007 0.12443 0.87139 0.0
C1049 C 0.06962 0.11992 0.88775 0.0
C1050 C 0.11378 0.11028 0.87272 0.0
C1051 C 0.11748 0.09082 0.89009 0.0
C1052 C 0.09715 0.08635 0.9066 0.0
H1053 H 0.26101 0.99125 0.88533 0.0
H1054 H 0.21488 0.00638 0.88261 0.0
C1055 C 0.07345 0.10081 0.90548 0.0
C1056 C 0.14317 0.0764 0.89171 0.0
H1057 H 0.18963 0.04414 0.85854 0.0
C1058 C 0.15708 0.07692 0.91315 0.0
C1059 C 0.15463 0.0633 0.87209 0.0
C1060 C 0.13991 0.05975 0.84915 0.0
C1061 C 0.18254 0.06594 0.91517 0.0
C1062 C 0.19489 0.0549 0.89498 0.0
C1063 C 0.18047 0.05311 0.87388 0.0
C1064 C 0.22298 0.04593 0.89531 0.0
C1065 C 0.19585 0.06622 0.939 0.0
C1066 C 0.24302 0.06336 0.90246 0.0
C1067 C 0.26921 0.05472 0.9042 0.0
C1068 C 0.2761 0.02861 0.89831 0.0
C1069 C 0.25632 0.01152 0.88988 0.0
C1070 C 0.22995 0.02011 0.88844 0.0
H1071 H 0.18106 0.06664 0.95352 0.0
H1072 H 0.20881 0.04866 0.94146 0.0
H1073 H 0.20813 0.0843 0.94055 0.0
H1074 H 0.23836 0.08363 0.90704 0.0
H1075 H 0.28405 0.06842 0.91053 0.0
H1076 H 0.38426 0.0616 0.92957 0.0
H1077 H 0.40626 0.10475 0.92671 0.0
H1078 H 0.42809 0.08781 0.85471 0.0
H1079 H 0.40571 0.04521 0.85722 0.0
H1080 H 0.45736 0.11946 0.91673 0.0
H1081 H 0.38972 0.15755 0.84752 0.0
H1082 H 0.38301 0.12766 0.86385 0.0
H1083 H 0.4057 0.12719 0.83936 0.0
C1084 C 0.39389 0.06705 0.9132 0.0
C1085 C 0.39299 0.05015 0.89354 0.0
C1086 C 0.4064 0.0917 0.91157 0.0
C1087 C 0.41824 0.09977 0.8903 0.0
C1088 C 0.41841 0.08236 0.87106 0.0
H1089 H 0.50721 0.23992 0.84766 0.0
H1090 H 0.48782 0.19546 0.85013 0.0
C1091 C 0.40573 0.05792 0.87259 0.0
C1092 C 0.43027 0.12643 0.88806 0.0
H1093 H 0.42787 0.1835 0.85565 0.0
C1094 C 0.45084 0.13349 0.90345 0.0
C1095 C 0.42168 0.14478 0.87073 0.0
C1096 C 0.39864 0.13906 0.85458 0.0
C1097 C 0.46329 0.15824 0.90174 0.0
C1098 C 0.4549 0.17635 0.88425 0.0
C1099 C 0.43439 0.16937 0.86886 0.0
C1100 C 0.46637 0.20317 0.88244 0.0
C1101 C 0.48547 0.16491 0.91851 0.0
C1102 C 0.46026 0.22219 0.89954 0.0
C1103 C 0.47102 0.24754 0.89807 0.0
C1104 C 0.48823 0.25436 0.87949 0.0
C1105 C 0.49406 0.2353 0.86218 0.0
C1106 C 0.48305 0.20993 0.86358 0.0
H1107 H 0.4926 0.14725 0.92833 0.0
H1108 H 0.50236 0.17378 0.90878 0.0
H1109 H 0.47836 0.17973 0.93149 0.0
H1110 H 0.44719 0.21737 0.91408 0.0
H1111 H 0.46611 0.26166 0.91175 0.0
H1112 H 0.43805 0.3816 0.9273 0.0
H1113 H 0.39599 0.40611 0.92626 0.0
H1114 H 0.39566 0.40159 0.8503 0.0
H1115 H 0.43707 0.3769 0.85116 0.0
H1116 H 0.38192 0.45381 0.90445 0.0
H1117 H 0.32385 0.37085 0.86727 0.0
H1118 H 0.35655 0.36637 0.87943 0.0
H1119 H 0.35244 0.37891 0.84993 0.0
C1120 C 0.429 0.38588 0.9104 0.0
C1121 C 0.44078 0.37703 0.88934 0.0
C1122 C 0.40498 0.39987 0.90983 0.0
C1123 C 0.39238 0.40517 0.88821 0.0
C1124 C 0.40462 0.39713 0.8672 0.0
H1125 H 0.24873 0.48424 0.84132 0.0
H1126 H 0.29231 0.46293 0.84418 0.0
C1127 C 0.42843 0.3831 0.86775 0.0
C1128 C 0.36646 0.4191 0.88739 0.0
H1129 H 0.30303 0.41315 0.86714 0.0
C1130 C 0.36461 0.44486 0.89647 0.0
C1131 C 0.34387 0.40739 0.87696 0.0
C1132 C 0.34413 0.37927 0.86805 0.0
C1133 C 0.34095 0.45947 0.89484 0.0
C1134 C 0.31854 0.4479 0.88406 0.0
C1135 C 0.32033 0.42208 0.87518 0.0
C1136 C 0.29278 0.46193 0.88234 0.0
C1137 C 0.34026 0.48739 0.9042 0.0
C1138 C 0.27858 0.46829 0.90283 0.0
C1139 C 0.25371 0.48029 0.90126 0.0
C1140 C 0.24246 0.48618 0.87914 0.0
C1141 C 0.25685 0.48004 0.85861 0.0
C1142 C 0.28172 0.46784 0.86022 0.0
H1143 H 0.36048 0.49549 0.90679 0.0
H1144 H 0.32919 0.50062 0.89205 0.0
H1145 H 0.32999 0.48754 0.92151 0.0
H1146 H 0.28654 0.46352 0.92007 0.0
H1147 H 0.24323 0.4848 0.91745 0.0
H1148 H 0.15326 0.41984 0.8668 0.0
H1149 H 0.12957 0.37799 0.86802 0.0
H1150 H 0.0772 0.40919 0.92136 0.0
H1151 H 0.10169 0.4511 0.92088 0.0
H1152 H 0.09146 0.36091 0.93238 0.0
H1153 H 0.06018 0.35982 0.83919 0.0
H1154 H 0.0954 0.36312 0.84114 0.0
H1155 H 0.07429 0.38879 0.85277 0.0
C1156 C 0.13662 0.4179 0.87874 0.0
C1157 C 0.12922 0.43885 0.89364 0.0
C1158 C 0.12291 0.39399 0.87925 0.0
C1159 C 0.10107 0.39063 0.89425 0.0
C1160 C 0.09381 0.41141 0.90943 0.0
H1161 H 0.0053 0.24654 0.87874 0.0
H1162 H 0.01991 0.29278 0.87818 0.0
C1163 C 0.10782 0.43531 0.90918 0.0
C1164 C 0.08681 0.36493 0.89476 0.0
H1165 H 0.0603 0.31749 0.85905 0.0
C1166 C 0.08431 0.3516 0.91638 0.0
C1167 C 0.07685 0.35294 0.87401 0.0
C1168 C 0.07654 0.36709 0.85054 0.0
C1169 C 0.07336 0.32613 0.91764 0.0
C1170 C 0.06556 0.31323 0.89659 0.0
C1171 C 0.06679 0.32709 0.87514 0.0
C1172 C 0.05685 0.28516 0.89636 0.0
C1173 C 0.07018 0.31343 0.94159 0.0
C1174 C 0.07306 0.26538 0.9061 0.0
C1175 C 0.06463 0.23911 0.90668 0.0
C1176 C 0.04011 0.23194 0.89697 0.0
C1177 C 0.02437 0.2515 0.88624 0.0
C1178 C 0.03265 0.27792 0.88601 0.0
H1179 H 0.06808 0.32859 0.95566 0.0
H1180 H 0.05264 0.30025 0.94218 0.0
H1181 H 0.08809 0.30153 0.94566 0.0
H1182 H 0.09224 0.27027 0.91341 0.0
H1183 H 0.0773 0.22441 0.91484 0.0
H1184 H 0.65095 0.21282 0.35759 0.0
H1185 H 0.69757 0.22476 0.35287 0.0
H1186 H 0.7019 0.24486 0.42669 0.0
H1187 H 0.65537 0.23315 0.43161 0.0
H1188 H 0.72858 0.28069 0.39506 0.0
H1189 H 0.75546 0.17495 0.38127 0.0
H1190 H 0.73018 0.18811 0.36222 0.0
H1191 H 0.72392 0.18505 0.39329 0.0
C1192 C 0.66168 0.22024 0.37273 0.0
C1193 C 0.64959 0.22178 0.39504 0.0
C1194 C 0.68831 0.22687 0.37001 0.0
C1195 C 0.70313 0.23512 0.38955 0.0
C1196 C 0.69072 0.23832 0.41147 0.0
H1197 H 0.86592 0.24994 0.42718 0.0
H1198 H 0.81999 0.23554 0.42281 0.0
C1199 C 0.66414 0.23166 0.41422 0.0
C1200 C 0.73192 0.2391 0.38758 0.0
H1201 H 0.79029 0.20603 0.37985 0.0
C1202 C 0.74208 0.26447 0.39155 0.0
C1203 C 0.74935 0.21768 0.38334 0.0
C1204 C 0.73931 0.18983 0.37996 0.0
C1205 C 0.76941 0.26901 0.39137 0.0
C1206 C 0.78678 0.24765 0.38698 0.0
C1207 C 0.77669 0.22229 0.38297 0.0
C1208 C 0.81558 0.25144 0.3876 0.0
C1209 C 0.77968 0.29647 0.3964 0.0
C1210 C 0.82837 0.26396 0.36875 0.0
C1211 C 0.85457 0.27213 0.37111 0.0
C1212 C 0.86818 0.26806 0.39247 0.0
C1213 C 0.8559 0.25354 0.41059 0.0
C1214 C 0.82971 0.24529 0.40815 0.0
H1215 H 0.76364 0.31033 0.40166 0.0
H1216 H 0.79468 0.29575 0.4107 0.0
H1217 H 0.78953 0.30443 0.38039 0.0
H1218 H 0.81763 0.2687 0.35274 0.0
H1219 H 0.86352 0.28313 0.35677 0.0
H1220 H 0.29969 0.65349 0.35396 0.0
H1221 H 0.28737 0.69986 0.34822 0.0
H1222 H 0.25108 0.70113 0.41708 0.0
H1223 H 0.26325 0.65479 0.42307 0.0
H1224 H 0.22225 0.72788 0.37807 0.0
H1225 H 0.32774 0.75755 0.38886 0.0
H1226 H 0.32064 0.73199 0.3677 0.0
H1227 H 0.31545 0.72583 0.39853 0.0
C1228 C 0.28862 0.66346 0.3677 0.0
C1229 C 0.28268 0.65061 0.3891 0.0
C1230 C 0.28175 0.68994 0.36442 0.0
C1231 C 0.26878 0.70381 0.3824 0.0
C1232 C 0.26127 0.69063 0.4031 0.0
H1233 H 0.24903 0.86232 0.42621 0.0
H1234 H 0.26448 0.81727 0.41891 0.0
C1235 C 0.26822 0.6642 0.40647 0.0
C1236 C 0.26446 0.7325 0.38043 0.0
H1237 H 0.2966 0.79171 0.38335 0.0
C1238 C 0.23844 0.74191 0.3789 0.0
C1239 C 0.28577 0.7505 0.38191 0.0
C1240 C 0.31401 0.74112 0.3845 0.0
C1241 C 0.23306 0.76908 0.37917 0.0
C1242 C 0.25437 0.78713 0.38066 0.0
C1243 C 0.28044 0.77771 0.38188 0.0
C1244 C 0.24959 0.81573 0.38316 0.0
C1245 C 0.20459 0.77824 0.3789 0.0
C1246 C 0.23738 0.83006 0.365 0.0
C1247 C 0.22845 0.85576 0.36911 0.0
C1248 C 0.2317 0.86742 0.39144 0.0
C1249 C 0.24603 0.85379 0.40889 0.0
C1250 C 0.25489 0.82808 0.40476 0.0
H1251 H 0.19056 0.76172 0.38205 0.0
H1252 H 0.20122 0.79365 0.39253 0.0
H1253 H 0.20001 0.78706 0.36143 0.0
H1254 H 0.23356 0.82088 0.34808 0.0
H1255 H 0.21774 0.86589 0.35521 0.0
H1256 H 0.35837 0.72721 0.14225 0.0
H1257 H 0.31153 0.73751 0.14803 0.0
H1258 H 0.3064 0.76599 0.07644 0.0
H1259 H 0.35324 0.75581 0.07039 0.0
H1260 H 0.2776 0.79659 0.11352 0.0
H1261 H 0.25705 0.68835 0.1118 0.0
H1262 H 0.2821 0.69958 0.132 0.0
H1263 H 0.28757 0.70227 0.10081 0.0
C1264 C 0.34746 0.73622 0.12788 0.0
C1265 C 0.35937 0.74033 0.10573 0.0
C1266 C 0.32072 0.74196 0.13121 0.0
C1267 C 0.30562 0.75198 0.11251 0.0
C1268 C 0.31786 0.75806 0.09099 0.0
H1269 H 0.14239 0.7567 0.07514 0.0
H1270 H 0.18945 0.74631 0.07932 0.0
C1271 C 0.34458 0.75225 0.0876 0.0
C1272 C 0.27667 0.75408 0.11464 0.0
H1273 H 0.22043 0.71683 0.11647 0.0
C1274 C 0.26505 0.77923 0.1144 0.0
C1275 C 0.26057 0.73124 0.11542 0.0
C1276 C 0.27231 0.70377 0.11487 0.0
C1277 C 0.23748 0.78218 0.11486 0.0
C1278 C 0.22138 0.75935 0.11575 0.0
C1279 C 0.233 0.73419 0.11606 0.0
C1280 C 0.19235 0.76143 0.11491 0.0
C1281 C 0.22569 0.80961 0.11368 0.0
C1282 C 0.17841 0.77217 0.13398 0.0
C1283 C 0.15156 0.77805 0.13171 0.0
C1284 C 0.13839 0.77336 0.11026 0.0
C1285 C 0.15203 0.76072 0.09182 0.0
C1286 C 0.17888 0.75477 0.09416 0.0
H1287 H 0.24076 0.82486 0.10938 0.0
H1288 H 0.20975 0.81045 0.10021 0.0
H1289 H 0.21676 0.81462 0.13101 0.0
H1290 H 0.18857 0.77711 0.15022 0.0
H1291 H 0.14155 0.7876 0.14631 0.0
H1292 H 0.78011 0.35858 0.14308 0.0
H1293 H 0.76887 0.31189 0.14769 0.0
H1294 H 0.73425 0.31148 0.07819 0.0
H1295 H 0.74542 0.35818 0.07328 0.0
H1296 H 0.70742 0.27952 0.11793 0.0
H1297 H 0.81489 0.2614 0.10207 0.0
H1298 H 0.80602 0.28526 0.12428 0.0
H1299 H 0.79887 0.29201 0.09389 0.0
C1300 C 0.76941 0.34881 0.12902 0.0
C1301 C 0.76409 0.3619 0.10761 0.0
C1302 C 0.76309 0.32215 0.1317 0.0
C1303 C 0.7512 0.30838 0.11312 0.0
C1304 C 0.74357 0.32193 0.09264 0.0
H1305 H 0.74521 0.14876 0.066 0.0
H1306 H 0.75419 0.19575 0.07213 0.0
C1307 C 0.74998 0.34857 0.08989 0.0
C1308 C 0.74973 0.27936 0.11372 0.0
H1309 H 0.78776 0.22402 0.10716 0.0
C1310 C 0.72493 0.26729 0.11585 0.0
C1311 C 0.77272 0.26376 0.11059 0.0
C1312 C 0.79968 0.27612 0.10742 0.0
C1313 C 0.72249 0.23971 0.11482 0.0
C1314 C 0.74549 0.22409 0.11178 0.0
C1315 C 0.77029 0.23619 0.10975 0.0
C1316 C 0.74381 0.19521 0.10916 0.0
C1317 C 0.6953 0.22746 0.11622 0.0
C1318 C 0.73619 0.17937 0.12826 0.0
C1319 C 0.73116 0.15254 0.12488 0.0
C1320 C 0.7336 0.14128 0.10229 0.0
C1321 C 0.74301 0.1569 0.08356 0.0
C1322 C 0.74812 0.18371 0.08701 0.0
H1323 H 0.6793 0.24249 0.11481 0.0
H1324 H 0.69265 0.21263 0.10198 0.0
H1325 H 0.69311 0.21707 0.13337 0.0
H1326 H 0.73314 0.188 0.14554 0.0
H1327 H 0.72406 0.141 0.13969 0.0
H1328 H 0.14109 0.71268 0.65717 0.0
H1329 H 0.18485 0.72627 0.67081 0.0
H1330 H 0.20162 0.75909 0.60213 0.0
H1331 H 0.15787 0.74589 0.58839 0.0
H1332 H 0.23014 0.70614 0.65099 0.0
H1333 H 0.23081 0.81535 0.6462 0.0
H1334 H 0.20051 0.79641 0.64656 0.0
H1335 H 0.2186 0.80088 0.61946 0.0
C1336 C 0.15383 0.72341 0.64513 0.0
C1337 C 0.14614 0.72802 0.62162 0.0
C1338 C 0.17881 0.73111 0.65298 0.0
C1339 C 0.19636 0.74377 0.63752 0.0
C1340 C 0.18816 0.74976 0.61447 0.0
H1341 H 0.35716 0.73919 0.60802 0.0
H1342 H 0.31184 0.72698 0.61809 0.0
C1343 C 0.16319 0.74208 0.6066 0.0
C1344 C 0.22425 0.74775 0.64432 0.0
H1345 H 0.2734 0.79365 0.64314 0.0
C1346 C 0.23956 0.72536 0.64982 0.0
C1347 C 0.23637 0.77285 0.64314 0.0
C1348 C 0.22064 0.79777 0.63876 0.0
C1349 C 0.26707 0.72718 0.65252 0.0
C1350 C 0.27946 0.75193 0.64927 0.0
C1351 C 0.26389 0.77459 0.64544 0.0
C1352 C 0.30847 0.75462 0.64712 0.0
C1353 C 0.28264 0.70249 0.65817 0.0
C1354 C 0.32183 0.77368 0.6605 0.0
C1355 C 0.3476 0.78092 0.65458 0.0
C1356 C 0.36037 0.76921 0.63516 0.0
C1357 C 0.34785 0.74847 0.62312 0.0
C1358 C 0.32196 0.74138 0.62895 0.0
H1359 H 0.27041 0.68811 0.66822 0.0
H1360 H 0.28876 0.69283 0.64146 0.0
H1361 H 0.30068 0.70709 0.66856 0.0
H1362 H 0.31175 0.78411 0.67458 0.0
H1363 H 0.3569 0.79682 0.66431 0.0
H1364 H 0.79591 0.13943 0.66102 0.0
H1365 H 0.78337 0.18424 0.67259 0.0
H1366 H 0.72624 0.18675 0.61605 0.0
H1367 H 0.73824 0.14177 0.60474 0.0
H1368 H 0.79332 0.22345 0.64246 0.0
H1369 H 0.68755 0.22713 0.66676 0.0
H1370 H 0.70616 0.19657 0.66635 0.0
H1371 H 0.69218 0.20973 0.63953 0.0
C1372 C 0.78001 0.14921 0.65158 0.0
C1373 C 0.76826 0.13729 0.63179 0.0
C1374 C 0.77288 0.17478 0.65823 0.0
C1375 C 0.75389 0.18882 0.64521 0.0
C1376 C 0.74057 0.17612 0.62666 0.0
H1377 H 0.74726 0.33999 0.58867 0.0
H1378 H 0.75972 0.29594 0.60223 0.0
C1379 C 0.74754 0.15042 0.62012 0.0
C1380 C 0.75145 0.21777 0.64807 0.0
H1381 H 0.70608 0.26763 0.65032 0.0
C1382 C 0.77432 0.23313 0.6448 0.0
C1383 C 0.72677 0.23041 0.65135 0.0
C1384 C 0.70184 0.21505 0.65645 0.0
C1385 C 0.77285 0.26071 0.64301 0.0
C1386 C 0.74784 0.27312 0.64416 0.0
C1387 C 0.72524 0.25799 0.64919 0.0
C1388 C 0.74418 0.30113 0.63755 0.0
C1389 C 0.79798 0.2762 0.63912 0.0
C1390 C 0.73162 0.31874 0.65301 0.0
C1391 C 0.72436 0.34395 0.64527 0.0
C1392 C 0.72928 0.35176 0.62183 0.0
C1393 C 0.74319 0.33458 0.60681 0.0
C1394 C 0.75047 0.30943 0.61458 0.0
H1395 H 0.81538 0.26567 0.64661 0.0
H1396 H 0.80137 0.27855 0.61988 0.0
H1397 H 0.7967 0.29617 0.64717 0.0
H1398 H 0.72654 0.31261 0.67077 0.0
H1399 H 0.71369 0.35676 0.65728 0.0
H1400 H 0.8649 0.25261 0.92991 0.0
H1401 H 0.81788 0.26331 0.92638 0.0
H1402 H 0.81936 0.24047 0.85312 0.0
H1403 H 0.86636 0.22954 0.85642 0.0
H1404 H 0.78572 0.29575 0.89355 0.0
H1405 H 0.76866 0.1871 0.88821 0.0
H1406 H 0.79955 0.20104 0.8982 0.0
H1407 H 0.79173 0.20074 0.86731 0.0
C1408 C 0.85542 0.25048 0.91288 0.0
C1409 C 0.8692 0.23975 0.89356 0.0
C1410 C 0.82858 0.25661 0.91091 0.0
C1411 C 0.81522 0.25212 0.88963 0.0
C1412 C 0.8294 0.24367 0.86976 0.0
H1413 H 0.64867 0.28124 0.86157 0.0
H1414 H 0.69625 0.27408 0.85694 0.0
C1415 C 0.85625 0.23755 0.87168 0.0
C1416 C 0.78611 0.2535 0.88901 0.0
H1417 H 0.73099 0.21465 0.88632 0.0
C1418 C 0.7737 0.27812 0.89177 0.0
C1419 C 0.77067 0.23027 0.88713 0.0
C1420 C 0.78321 0.20322 0.88523 0.0
C1421 C 0.74603 0.28012 0.89255 0.0
C1422 C 0.73065 0.25693 0.89036 0.0
C1423 C 0.74303 0.23233 0.88769 0.0
C1424 C 0.70161 0.25788 0.89192 0.0
C1425 C 0.73333 0.30685 0.89628 0.0
C1426 C 0.68898 0.25001 0.91278 0.0
C1427 C 0.66183 0.25407 0.91554 0.0
C1428 C 0.64701 0.26595 0.8974 0.0
C1429 C 0.65952 0.27205 0.87588 0.0
C1430 C 0.68669 0.26814 0.87322 0.0
H1431 H 0.74811 0.32241 0.90042 0.0
H1432 H 0.7225 0.31275 0.88006 0.0
H1433 H 0.71871 0.30586 0.9109 0.0
H1434 H 0.70033 0.24189 0.92731 0.0
H1435 H 0.65274 0.24909 0.93227 0.0
H1436 H 0.2707 0.86758 0.86655 0.0
H1437 H 0.25709 0.82154 0.86156 0.0
H1438 H 0.24877 0.81356 0.937 0.0
H1439 H 0.26181 0.85955 0.94215 0.0
H1440 H 0.28578 0.78026 0.87971 0.0
H1441 H 0.1829 0.7767 0.91322 0.0
H1442 H 0.19896 0.80733 0.90527 0.0
H1443 H 0.20495 0.7924 0.93363 0.0
C1444 C 0.26531 0.85622 0.88203 0.0
C1445 C 0.26748 0.86711 0.90477 0.0
C1446 C 0.25761 0.82993 0.87914 0.0
C1447 C 0.25179 0.81427 0.89889 0.0
C1448 C 0.25268 0.82548 0.9215 0.0
H1449 H 0.23975 0.65292 0.93851 0.0
H1450 H 0.25021 0.69984 0.93453 0.0
C1451 C 0.26028 0.85175 0.92441 0.0
C1452 C 0.24769 0.78556 0.89626 0.0
H1453 H 0.20644 0.73527 0.912 0.0
C1454 C 0.26824 0.77042 0.88638 0.0
C1455 C 0.2248 0.77288 0.90502 0.0
C1456 C 0.20155 0.78821 0.91466 0.0
C1457 C 0.26694 0.74274 0.88595 0.0
C1458 C 0.24458 0.73014 0.89564 0.0
C1459 C 0.22368 0.74522 0.90482 0.0
C1460 C 0.24259 0.7012 0.89702 0.0
C1461 C 0.28973 0.72703 0.87599 0.0
C1462 C 0.23569 0.68653 0.87702 0.0
C1463 C 0.22965 0.65972 0.87921 0.0
C1464 C 0.23037 0.64736 0.90146 0.0
C1465 C 0.23899 0.66184 0.92115 0.0
C1466 C 0.2449 0.68864 0.91895 0.0
H1467 H 0.3066 0.73982 0.87074 0.0
H1468 H 0.29674 0.71238 0.88921 0.0
H1469 H 0.28295 0.71587 0.86026 0.0
H1470 H 0.23374 0.69609 0.85999 0.0
H1471 H 0.22314 0.64905 0.86371 0.0
H1472 H 0.66592 0.11323 0.39849 0.0
H1473 H 0.69989 0.09561 0.4247 0.0
H1474 H 0.65445 0.12056 0.48513 0.0
H1475 H 0.62004 0.13833 0.45887 0.0
H1476 H 0.72918 0.12496 0.45756 0.0
H1477 H 0.67416 0.04293 0.50057 0.0
H1478 H 0.66301 0.05845 0.47362 0.0
H1479 H 0.65805 0.07466 0.50146 0.0
C1480 C 0.66289 0.11476 0.41736 0.0
C1481 C 0.64016 0.12718 0.42656 0.0
C1482 C 0.68242 0.10469 0.43232 0.0
C1483 C 0.67968 0.10659 0.45687 0.0
C1484 C 0.6568 0.11851 0.46623 0.0
H1485 H 0.79818 0.09671 0.56568 0.0
H1486 H 0.76673 0.1107 0.53541 0.0
C1487 C 0.63717 0.1287 0.45121 0.0
C1488 C 0.70148 0.09721 0.47243 0.0
H1489 H 0.71676 0.05277 0.51586 0.0
C1490 C 0.72648 0.10912 0.47026 0.0
C1491 C 0.69805 0.07633 0.48877 0.0
C1492 C 0.67196 0.06213 0.4912 0.0
C1493 C 0.74796 0.10109 0.48433 0.0
C1494 C 0.74433 0.08071 0.50112 0.0
C1495 C 0.7195 0.06841 0.50297 0.0
C1496 C 0.76563 0.07279 0.51778 0.0
C1497 C 0.77441 0.1144 0.48106 0.0
C1498 C 0.77584 0.0469 0.51777 0.0
C1499 C 0.79406 0.03888 0.53505 0.0
C1500 C 0.80193 0.05652 0.55287 0.0
C1501 C 0.79243 0.08267 0.55223 0.0
C1502 C 0.7745 0.09073 0.53488 0.0
H1503 H 0.77575 0.12466 0.46375 0.0
H1504 H 0.77716 0.12935 0.49515 0.0
H1505 H 0.79082 0.09982 0.48238 0.0
H1506 H 0.76918 0.03273 0.50475 0.0
H1507 H 0.80078 0.01853 0.53525 0.0
H1508 H 0.40163 0.79902 0.56928 0.0
H1509 H 0.38901 0.7682 0.53809 0.0
H1510 H 0.46737 0.77378 0.50829 0.0
H1511 H 0.48022 0.80459 0.53982 0.0
H1512 H 0.38988 0.77094 0.48799 0.0
H1513 H 0.45773 0.69384 0.52361 0.0
H1514 H 0.4488 0.72304 0.54013 0.0
H1515 H 0.47259 0.7252 0.51667 0.0
C1516 C 0.41606 0.79398 0.55589 0.0
C1517 C 0.44195 0.80401 0.55708 0.0
C1518 C 0.40882 0.77639 0.53806 0.0
C1519 C 0.42739 0.76828 0.52115 0.0
C1520 C 0.45286 0.77947 0.52142 0.0
H1521 H 0.39042 0.67116 0.39884 0.0
H1522 H 0.40631 0.70542 0.42554 0.0
C1523 C 0.46009 0.7973 0.53924 0.0
C1524 C 0.42022 0.74712 0.50414 0.0
H1525 H 0.43296 0.68266 0.48978 0.0
C1526 C 0.39942 0.7517 0.48824 0.0
C1527 C 0.43234 0.72185 0.50486 0.0
C1528 C 0.45397 0.71546 0.52233 0.0
C1529 C 0.39052 0.73176 0.47293 0.0
C1530 C 0.40291 0.70662 0.47339 0.0
C1531 C 0.4236 0.70198 0.48938 0.0
C1532 C 0.39456 0.68495 0.45737 0.0
C1533 C 0.36749 0.73756 0.45675 0.0
C1534 C 0.38346 0.66157 0.46643 0.0
C1535 C 0.37437 0.64175 0.45115 0.0
C1536 C 0.37642 0.64495 0.42655 0.0
C1537 C 0.38837 0.66805 0.41766 0.0
C1538 C 0.39737 0.68778 0.43289 0.0
H1539 H 0.35628 0.75538 0.46242 0.0
H1540 H 0.37503 0.74117 0.43864 0.0
H1541 H 0.3537 0.7205 0.45603 0.0
H1542 H 0.38125 0.65894 0.4853 0.0
H1543 H 0.36526 0.62424 0.45858 0.0
H1544 H 0.88238 0.36399 0.45772 0.0
H1545 H 0.84794 0.38234 0.48353 0.0
H1546 H 0.79496 0.38862 0.42416 0.0
H1547 H 0.82893 0.37007 0.39841 0.0
H1548 H 0.82182 0.43104 0.4809 0.0
H1549 H 0.75028 0.34833 0.47209 0.0
H1550 H 0.78439 0.34552 0.46294 0.0
H1551 H 0.76084 0.3625 0.44459 0.0
C1552 C 0.8634 0.36928 0.45017 0.0
C1553 C 0.85843 0.3655 0.426 0.0
C1554 C 0.84373 0.37975 0.46493 0.0
C1555 C 0.81871 0.38647 0.45585 0.0
C1556 C 0.81387 0.38306 0.43168 0.0
H1557 H 0.67992 0.45494 0.52979 0.0
H1558 H 0.70986 0.4403 0.49789 0.0
C1559 C 0.83345 0.37261 0.41695 0.0
C1560 C 0.79784 0.3975 0.47155 0.0
H1561 H 0.73576 0.38593 0.49339 0.0
C1562 C 0.803 0.42119 0.48357 0.0
C1563 C 0.77316 0.38474 0.4749 0.0
C1564 C 0.76682 0.35875 0.46313 0.0
C1565 C 0.7843 0.43232 0.49901 0.0
C1566 C 0.75989 0.41931 0.50273 0.0
C1567 C 0.7544 0.39598 0.49031 0.0
C1568 C 0.7413 0.42805 0.52144 0.0
C1569 C 0.79087 0.45783 0.51147 0.0
C1570 C 0.74894 0.42564 0.54507 0.0
C1571 C 0.73204 0.43375 0.56309 0.0
C1572 C 0.70692 0.44444 0.558 0.0
C1573 C 0.69912 0.44679 0.53426 0.0
C1574 C 0.71615 0.43842 0.51609 0.0
H1575 H 0.80703 0.46873 0.5024 0.0
H1576 H 0.7732 0.47086 0.51261 0.0
H1577 H 0.79749 0.45332 0.52971 0.0
H1578 H 0.76812 0.41744 0.54961 0.0
H1579 H 0.73888 0.43182 0.58112 0.0
H1580 H 0.06182 0.67444 0.52939 0.0
H1581 H 0.07576 0.70592 0.49841 0.0
H1582 H 0.06078 0.77099 0.54567 0.0
H1583 H 0.04729 0.74002 0.57643 0.0
H1584 H 0.04096 0.77396 0.49331 0.0
H1585 H 0.14791 0.75323 0.50926 0.0
H1586 H 0.12508 0.72598 0.50667 0.0
H1587 H 0.12323 0.74744 0.53174 0.0
C1588 C 0.06108 0.69548 0.53291 0.0
C1589 C 0.0536 0.70481 0.55529 0.0
C1590 C 0.06916 0.71339 0.51533 0.0
C1591 C 0.06942 0.74074 0.51988 0.0
C1592 C 0.06078 0.75 0.54184 0.0
H1593 H 0.14543 0.87947 0.46136 0.0
H1594 H 0.12695 0.8446 0.48667 0.0
C1595 C 0.05313 0.73224 0.55938 0.0
C1596 C 0.07986 0.76001 0.50248 0.0
H1597 H 0.13751 0.78753 0.4827 0.0
C1598 C 0.06204 0.77673 0.49069 0.0
C1599 C 0.10737 0.76389 0.49958 0.0
C1600 C 0.12719 0.74684 0.51247 0.0
C1601 C 0.07105 0.79733 0.47606 0.0
C1602 C 0.0986 0.80126 0.47318 0.0
C1603 C 0.11641 0.78446 0.48494 0.0
C1604 C 0.10928 0.82269 0.45796 0.0
C1605 C 0.05109 0.81524 0.46431 0.0
C1606 C 0.10553 0.82189 0.43347 0.0
C1607 C 0.11609 0.84166 0.41901 0.0
C1608 C 0.13062 0.86274 0.42872 0.0
C1609 C 0.1342 0.86363 0.45333 0.0
C1610 C 0.12375 0.84368 0.46779 0.0
H1611 H 0.03102 0.81302 0.47208 0.0
H1612 H 0.05723 0.83625 0.46578 0.0
H1613 H 0.04989 0.81025 0.44528 0.0
H1614 H 0.09472 0.80573 0.42548 0.0
H1615 H 0.113 0.84027 0.40014 0.0
H1616 H 0.26427 0.98957 0.95102 0.0
H1617 H 0.23132 0.97695 0.98058 0.0
H1618 H 0.28281 0.91424 0.00463 0.0
H1619 H 0.31634 0.92791 0.97583 0.0
H1620 H 0.20595 0.93289 0.9798 0.0
H1621 H 0.25551 0.93878 0.0666 0.0
H1622 H 0.2695 0.95345 0.04039 0.0
H1623 H 0.27377 0.91867 0.04626 0.0
C1624 C 0.26897 0.9739 0.96342 0.0
C1625 C 0.293 0.96008 0.96163 0.0
C1626 C 0.25004 0.96647 0.98011 0.0
C1627 C 0.25449 0.94468 0.99503 0.0
C1628 C 0.27907 0.93155 0.99388 0.0
H1629 H 0.12565 0.84776 0.05063 0.0
H1630 H 0.16077 0.86725 0.02648 0.0
C1631 C 0.2983 0.9394 0.97747 0.0
C1632 C 0.23236 0.93407 0.00965 0.0
H1633 H 0.21557 0.9134 0.06507 0.0
C1634 C 0.20803 0.92891 0.99852 0.0
C1635 C 0.23486 0.92894 0.03411 0.0
C1636 C 0.25974 0.93551 0.04758 0.0
C1637 C 0.1863 0.91872 0.01101 0.0
C1638 C 0.18914 0.91252 0.03524 0.0
C1639 C 0.21338 0.91788 0.04646 0.0
C1640 C 0.16718 0.90089 0.04942 0.0
C1641 C 0.16037 0.91535 0.99815 0.0
C1642 C 0.15935 0.91288 0.07065 0.0
C1643 C 0.13965 0.90148 0.08469 0.0
C1644 C 0.12715 0.87794 0.07773 0.0
C1645 C 0.13459 0.86615 0.05627 0.0
C1646 C 0.15464 0.87735 0.0424 0.0
H1647 H 0.1591 0.9286 0.98253 0.0
H1648 H 0.15879 0.89468 0.99175 0.0
H1649 H 0.14325 0.91954 0.00986 0.0
H1650 H 0.16866 0.93101 0.0765 0.0
H1651 H 0.13441 0.91101 0.10116 0.0
H1652 H 0.63291 0.16473 0.10965 0.0
H1653 H 0.61036 0.19804 0.08566 0.0
H1654 H 0.61094 0.14482 0.02629 0.0
H1655 H 0.63331 0.1112 0.05025 0.0
H1656 H 0.62858 0.22178 0.04501 0.0
H1657 H 0.53423 0.16985 0.02734 0.0
H1658 H 0.55694 0.15932 0.0501 0.0
H1659 H 0.56285 0.15056 0.01979 0.0
C1660 C 0.62793 0.1599 0.09158 0.0
C1661 C 0.6348 0.13515 0.08194 0.0
C1662 C 0.61508 0.17906 0.07786 0.0
C1663 C 0.60861 0.17388 0.05425 0.0
C1664 C 0.61519 0.1491 0.04461 0.0
H1665 H 0.55815 0.25151 0.93018 0.0
H1666 H 0.57185 0.22285 0.96232 0.0
C1667 C 0.62808 0.1299 0.05832 0.0
C1668 C 0.59624 0.19484 0.03936 0.0
H1669 H 0.54374 0.20738 0.00302 0.0
C1670 C 0.60983 0.21882 0.03609 0.0
C1671 C 0.5717 0.19105 0.02784 0.0
C1672 C 0.55543 0.16641 0.03159 0.0
C1673 C 0.60023 0.23848 0.02067 0.0
C1674 C 0.57619 0.23423 0.00848 0.0
C1675 C 0.56214 0.21067 0.01242 0.0
C1676 C 0.56689 0.25239 0.98951 0.0
C1677 C 0.61654 0.26304 0.01661 0.0
C1678 C 0.55914 0.27868 0.99406 0.0
C1679 C 0.55117 0.2954 0.97547 0.0
C1680 C 0.55103 0.28606 0.95211 0.0
C1681 C 0.55828 0.25957 0.94788 0.0
C1682 C 0.56605 0.24301 0.96629 0.0
H1683 H 0.63651 0.26151 0.0247 0.0
H1684 H 0.61885 0.26686 0.99742 0.0
H1685 H 0.60623 0.28031 0.02446 0.0
H1686 H 0.55928 0.28623 0.01192 0.0
H1687 H 0.5456 0.31564 0.97931 0.0
H1688 H 0.17845 0.56555 0.97528 0.0
H1689 H 0.20875 0.58183 0.00619 0.0
H1690 H 0.27568 0.55668 0.96457 0.0
H1691 H 0.24582 0.5408 0.93389 0.0
H1692 H 0.27815 0.54517 0.01591 0.0
H1693 H 0.25624 0.64981 0.9918 0.0
H1694 H 0.2286 0.62855 0.99838 0.0
H1695 H 0.24828 0.62246 0.97263 0.0
C1696 C 0.19961 0.56297 0.97312 0.0
C1697 C 0.20987 0.55196 0.95229 0.0
C1698 C 0.21686 0.57244 0.99061 0.0
C1699 C 0.24445 0.57061 0.98751 0.0
C1700 C 0.25451 0.55829 0.96729 0.0
H1701 H 0.38045 0.6548 0.04134 0.0
H1702 H 0.34623 0.63344 0.01723 0.0
C1703 C 0.23742 0.54924 0.9498 0.0
C1704 C 0.26323 0.58289 0.00432 0.0
H1705 H 0.28906 0.64255 0.02063 0.0
C1706 C 0.28035 0.56645 0.01722 0.0
C1707 C 0.26638 0.61064 0.00552 0.0
C1708 C 0.24908 0.62905 0.99129 0.0
C1709 C 0.30062 0.57707 0.03128 0.0
C1710 C 0.30377 0.60484 0.03248 0.0
C1711 C 0.28657 0.62128 0.01966 0.0
C1712 C 0.32484 0.61719 0.04697 0.0
C1713 C 0.31902 0.55852 0.0442 0.0
C1714 C 0.3241 0.61514 0.07162 0.0
C1715 C 0.34351 0.6273 0.08538 0.0
C1716 C 0.36412 0.64179 0.07478 0.0
C1717 C 0.36497 0.64364 0.05003 0.0
C1718 C 0.34538 0.63156 0.03626 0.0
H1719 H 0.31746 0.5379 0.03759 0.0
H1720 H 0.33988 0.56515 0.04245 0.0
H1721 H 0.31392 0.55851 0.06325 0.0
H1722 H 0.30826 0.60443 0.08026 0.0
H1723 H 0.34217 0.62553 0.10439 0.0
H1724 H 0.85095 0.32158 0.09473 0.0
H1725 H 0.87285 0.28904 0.06957 0.0
H1726 H 0.89254 0.35042 0.01973 0.0
H1727 H 0.87054 0.38332 0.0449 0.0
H1728 H 0.86222 0.27636 0.02083 0.0
H1729 H 0.96444 0.31345 0.03498 0.0
H1730 H 0.93722 0.32214 0.05416 0.0
H1731 H 0.94066 0.33794 0.02593 0.0
C1732 C 0.86001 0.32828 0.07846 0.0
C1733 C 0.85921 0.35517 0.07194 0.0
C1734 C 0.87245 0.30957 0.06406 0.0
C1735 C 0.88464 0.31732 0.04294 0.0
C1736 C 0.8836 0.34407 0.03616 0.0
H1737 H 0.96711 0.24607 0.92821 0.0
H1738 H 0.94792 0.27401 0.95874 0.0
C1739 C 0.87094 0.36283 0.05049 0.0
C1740 C 0.89833 0.29734 0.02804 0.0
H1741 H 0.95891 0.28015 0.00601 0.0
C1742 C 0.88339 0.27702 0.0177 0.0
C1743 C 0.92596 0.29818 0.02412 0.0
C1744 C 0.94314 0.31894 0.0355 0.0
C1745 C 0.89519 0.25813 0.00278 0.0
C1746 C 0.9228 0.25921 0.99858 0.0
C1747 C 0.93779 0.27921 0.00936 0.0
C1748 C 0.93607 0.24152 0.98123 0.0
C1749 C 0.87784 0.23789 0.99085 0.0
C1750 C 0.93655 0.21382 0.98397 0.0
C1751 C 0.9477 0.19762 0.9664 0.0
C1752 C 0.95837 0.209 0.94587 0.0
C1753 C 0.95884 0.23672 0.94377 0.0
C1754 C 0.9479 0.25275 0.96123 0.0
H1755 H 0.85651 0.24306 0.99215 0.0
H1756 H 0.88316 0.23592 0.97191 0.0
H1757 H 0.88083 0.21836 0.99939 0.0
H1758 H 0.92793 0.20473 0.99948 0.0
H1759 H 0.94701 0.17633 0.96842 0.0
H1760 H 0.3332 0.89843 0.60912 0.0
H1761 H 0.2986 0.91712 0.58393 0.0
H1762 H 0.33034 0.87491 0.52421 0.0
H1763 H 0.36515 0.85604 0.54931 0.0
H1764 H 0.30452 0.94806 0.54142 0.0
H1765 H 0.25033 0.854 0.52668 0.0
H1766 H 0.27387 0.85821 0.55036 0.0
H1767 H 0.28528 0.85269 0.52075 0.0
C1768 C 0.33291 0.89313 0.59061 0.0
C1769 C 0.35192 0.87566 0.58124 0.0
C1770 C 0.3131 0.90385 0.57626 0.0
C1771 C 0.31167 0.89711 0.55231 0.0
C1772 C 0.33085 0.88004 0.54276 0.0
H1773 H 0.23718 0.9617 0.43162 0.0
H1774 H 0.26588 0.9479 0.46395 0.0
C1775 C 0.35083 0.86943 0.55708 0.0
C1776 C 0.29031 0.90822 0.53728 0.0
H1777 H 0.23727 0.8909 0.50326 0.0
C1778 C 0.28967 0.93561 0.53324 0.0
C1779 C 0.27071 0.89198 0.52693 0.0
C1780 C 0.26981 0.8626 0.5315 0.0
C1781 C 0.27064 0.94704 0.51829 0.0
C1782 C 0.25178 0.93066 0.50713 0.0
C1783 C 0.25173 0.90342 0.5119 0.0
C1784 C 0.2339 0.94098 0.48853 0.0
C1785 C 0.27107 0.97651 0.51415 0.0
C1786 C 0.20629 0.9418 0.49169 0.0
C1787 C 0.18969 0.95001 0.47317 0.0
C1788 C 0.20057 0.95687 0.45119 0.0
C1789 C 0.22822 0.95642 0.44835 0.0
C1790 C 0.24468 0.94864 0.46682 0.0
H1791 H 0.28236 0.98701 0.5281 0.0
H1792 H 0.28068 0.98063 0.49692 0.0
H1793 H 0.25064 0.98462 0.5135 0.0
H1794 H 0.19762 0.93577 0.50833 0.0
H1795 H 0.16844 0.94998 0.47571 0.0
H1796 H 0.64458 0.37448 0.543 0.0
H1797 H 0.62545 0.3411 0.51666 0.0
H1798 H 0.60611 0.29241 0.57674 0.0
H1799 H 0.62466 0.32563 0.60308 0.0
H1800 H 0.64058 0.2885 0.51132 0.0
H1801 H 0.5361 0.29463 0.54134 0.0
H1802 H 0.56033 0.31953 0.54854 0.0
H1803 H 0.55956 0.28883 0.56457 0.0
C1804 C 0.63602 0.35678 0.5506 0.0
C1805 C 0.63601 0.35283 0.57516 0.0
C1806 C 0.62515 0.3377 0.53554 0.0
C1807 C 0.61395 0.31443 0.54476 0.0
C1808 C 0.61405 0.31044 0.56924 0.0
H1809 H 0.54551 0.17663 0.47025 0.0
H1810 H 0.5628 0.20524 0.50198 0.0
C1811 C 0.62484 0.32945 0.58427 0.0
C1812 C 0.60308 0.29387 0.52876 0.0
H1813 H 0.54662 0.26019 0.51457 0.0
C1814 C 0.62004 0.28232 0.51206 0.0
C1815 C 0.57632 0.2856 0.52988 0.0
C1816 C 0.55692 0.29792 0.54689 0.0
C1817 C 0.61095 0.26294 0.49633 0.0
C1818 C 0.58409 0.25508 0.49712 0.0
C1819 C 0.56725 0.2661 0.51416 0.0
C1820 C 0.57267 0.23772 0.47868 0.0
C1821 C 0.63011 0.25118 0.47878 0.0
C1822 C 0.57185 0.24684 0.45538 0.0
C1823 C 0.56203 0.23079 0.4375 0.0
C1824 C 0.55278 0.20511 0.44241 0.0
C1825 C 0.55268 0.19621 0.46592 0.0
C1826 C 0.56257 0.21249 0.48399 0.0
H1827 H 0.65096 0.25343 0.48467 0.0
H1828 H 0.62602 0.22986 0.47586 0.0
H1829 H 0.62794 0.26161 0.46164 0.0
H1830 H 0.57898 0.26643 0.45096 0.0
H1831 H 0.56195 0.23852 0.41966 0.0
H1832 H 0.26682 0.56381 0.4205 0.0
H1833 H 0.23725 0.57697 0.45216 0.0
H1834 H 0.29777 0.55897 0.50338 0.0
H1835 H 0.3281 0.54593 0.47129 0.0
H1836 H 0.21848 0.54787 0.49049 0.0
H1837 H 0.2761 0.63593 0.51912 0.0
H1838 H 0.28221 0.61947 0.49139 0.0
H1839 H 0.29355 0.6049 0.51846 0.0
C1840 C 0.27405 0.56267 0.43847 0.0
C1841 C 0.30002 0.55412 0.44334 0.0
C1842 C 0.25698 0.57012 0.45658 0.0
C1843 C 0.26533 0.56929 0.48012 0.0
C1844 C 0.29105 0.56017 0.48527 0.0
H1845 H 0.17735 0.62439 0.60352 0.0
H1846 H 0.21032 0.60471 0.57737 0.0
C1847 C 0.30829 0.55257 0.46698 0.0
C1848 C 0.24675 0.57828 0.49884 0.0
H1849 H 0.23568 0.62796 0.53849 0.0
C1850 C 0.22233 0.56526 0.50114 0.0
C1851 C 0.25173 0.60104 0.51262 0.0
C1852 C 0.2772 0.61636 0.51027 0.0
C1853 C 0.20267 0.57453 0.51663 0.0
C1854 C 0.20737 0.59768 0.52995 0.0
C1855 C 0.23206 0.61029 0.52816 0.0
C1856 C 0.18688 0.60925 0.54572 0.0
C1857 C 0.17706 0.5594 0.51865 0.0
C1858 C 0.16271 0.61858 0.53661 0.0
C1859 C 0.1437 0.62992 0.55155 0.0
C1860 C 0.14856 0.6322 0.5759 0.0
C1861 C 0.17284 0.62287 0.58489 0.0
C1862 C 0.19179 0.61164 0.56996 0.0
H1863 H 0.17916 0.53878 0.51214 0.0
H1864 H 0.17004 0.55884 0.53722 0.0
H1865 H 0.16168 0.56938 0.50784 0.0
H1866 H 0.15868 0.61738 0.51787 0.0
H1867 H 0.12532 0.63706 0.54402 0.0
H1868 H 0.85729 0.13267 0.54213 0.0
H1869 H 0.87629 0.16745 0.51704 0.0
H1870 H 0.90393 0.20852 0.57889 0.0
H1871 H 0.88531 0.17399 0.60398 0.0
H1872 H 0.86529 0.22324 0.51748 0.0
H1873 H 0.97077 0.20149 0.53752 0.0
H1874 H 0.94449 0.17835 0.54373 0.0
H1875 H 0.94997 0.20606 0.56291 0.0
C1876 C 0.86757 0.14902 0.55037 0.0
C1877 C 0.86992 0.15042 0.57507 0.0
C1878 C 0.87831 0.16892 0.53602 0.0
C1879 C 0.89178 0.19042 0.5461 0.0
C1880 C 0.894 0.19191 0.57071 0.0
H1881 H 0.93659 0.3363 0.46976 0.0
H1882 H 0.92005 0.30628 0.50083 0.0
C1883 C 0.88324 0.17214 0.58503 0.0
C1884 C 0.90336 0.21146 0.53096 0.0
H1885 H 0.96202 0.23988 0.5149 0.0
C1886 C 0.88642 0.22696 0.51696 0.0
C1887 C 0.93096 0.2162 0.53025 0.0
C1888 C 0.95019 0.19954 0.54423 0.0
C1889 C 0.89637 0.24703 0.50222 0.0
C1890 C 0.92394 0.25188 0.50167 0.0
C1891 C 0.94085 0.23642 0.51569 0.0
C1892 C 0.93581 0.27079 0.48465 0.0
C1893 C 0.87747 0.26237 0.48677 0.0
C1894 C 0.95082 0.26089 0.46584 0.0
C1895 C 0.96011 0.27783 0.44829 0.0
C1896 C 0.95493 0.30512 0.44932 0.0
C1897 C 0.94109 0.31538 0.46877 0.0
C1898 C 0.93144 0.29824 0.48631 0.0
H1899 H 0.85736 0.25351 0.48658 0.0
H1900 H 0.87583 0.28295 0.49341 0.0
H1901 H 0.88501 0.26331 0.46838 0.0
H1902 H 0.95448 0.23984 0.46424 0.0
H1903 H 0.97074 0.26945 0.43345 0.0
H1904 H 0.88821 0.14829 0.9533 0.0
H1905 H 0.85389 0.12725 0.97759 0.0
H1906 H 0.80824 0.11076 0.91509 0.0
H1907 H 0.84226 0.13148 0.89078 0.0
H1908 H 0.79864 0.1415 0.98028 0.0
H1909 H 0.81326 0.03836 0.94906 0.0
H1910 H 0.83782 0.06387 0.94494 0.0
H1911 H 0.80925 0.06263 0.92614 0.0
C1912 C 0.87099 0.13994 0.94473 0.0
C1913 C 0.8681 0.1414 0.92008 0.0
C1914 C 0.85136 0.12804 0.95863 0.0
C1915 C 0.82867 0.11717 0.9481 0.0
C1916 C 0.82577 0.11862 0.92354 0.0
H1917 H 0.68202 0.07347 0.02219 0.0
H1918 H 0.71285 0.08978 0.99179 0.0
C1919 C 0.84525 0.13057 0.90968 0.0
C1920 C 0.80766 0.10483 0.96276 0.0
H1921 H 0.77611 0.04629 0.9736 0.0
C1922 C 0.79366 0.12071 0.9788 0.0
C1923 C 0.80128 0.07767 0.96084 0.0
C1924 C 0.81629 0.05951 0.94448 0.0
C1925 C 0.7734 0.11014 0.99295 0.0
C1926 C 0.76683 0.08306 0.99082 0.0
C1927 C 0.78089 0.06715 0.97486 0.0
C1928 C 0.74725 0.07045 0.00675 0.0
C1929 C 0.75963 0.12779 0.01059 0.0
C1930 C 0.75622 0.05337 0.02452 0.0
C1931 C 0.73878 0.04416 0.04175 0.0
C1932 C 0.71195 0.05155 0.04137 0.0
C1933 C 0.70253 0.06719 0.02266 0.0
C1934 C 0.72015 0.07672 0.00549 0.0
H1935 H 0.76957 0.14727 0.0124 0.0
H1936 H 0.73892 0.13126 0.00482 0.0
H1937 H 0.75895 0.1181 0.02818 0.0
H1938 H 0.77701 0.04825 0.02576 0.0
H1939 H 0.74654 0.03218 0.05605 0.0
H1940 H 0.37228 0.84282 0.89393 0.0
H1941 H 0.39461 0.80932 0.91786 0.0
H1942 H 0.39116 0.86097 0.97823 0.0
H1943 H 0.36889 0.89482 0.95433 0.0
H1944 H 0.44087 0.83488 0.97204 0.0
H1945 H 0.35695 0.76402 0.96799 0.0
H1946 H 0.369 0.77551 0.93996 0.0
H1947 H 0.35347 0.79839 0.95987 0.0
C1948 C 0.37639 0.8472 0.91227 0.0
C1949 C 0.36865 0.87154 0.92222 0.0
C1950 C 0.38903 0.8279 0.92596 0.0
C1951 C 0.39413 0.8324 0.94995 0.0
C1952 C 0.38727 0.85699 0.95978 0.0
H1953 H 0.44977 0.75425 0.07301 0.0
H1954 H 0.43636 0.78404 0.04159 0.0
C1955 C 0.37458 0.87635 0.94608 0.0
C1956 C 0.40633 0.81138 0.96487 0.0
H1957 H 0.39534 0.74982 0.98801 0.0
C1958 C 0.43096 0.81625 0.97544 0.0
C1959 C 0.39353 0.78692 0.96915 0.0
C1960 C 0.36668 0.78085 0.95883 0.0
C1961 C 0.44296 0.79751 0.99038 0.0
C1962 C 0.42977 0.77341 0.99527 0.0
C1963 C 0.40552 0.76819 0.98415 0.0
C1964 C 0.43933 0.75485 0.01386 0.0
C1965 C 0.46965 0.80376 1.00089 0.0
C1966 C 0.44512 0.72817 0.0089 0.0
C1967 C 0.45283 0.71077 0.02708 0.0
C1968 C 0.45436 0.71977 0.05051 0.0
C1969 C 0.44873 0.74654 0.0552 0.0
C1970 C 0.44124 0.76377 0.03718 0.0
H1971 H 0.48074 0.81809 0.98978 0.0
H1972 H 0.46681 0.81286 0.01852 0.0
H1973 H 0.48182 0.78561 0.00306 0.0
H1974 H 0.44354 0.7208 0.99102 0.0
H1975 H 0.45691 0.69026 0.02292 0.0
H1976 H 0.82609 0.44707 0.02374 0.0
H1977 H 0.79659 0.43181 0.99182 0.0
H1978 H 0.72988 0.43664 0.03916 0.0
H1979 H 0.75867 0.45209 0.07046 0.0
H1980 H 0.76502 0.38609 0.99241 0.0
H1981 H 0.70187 0.47458 0.98136 0.0
H1982 H 0.73339 0.47569 0.99633 0.0
H1983 H 0.70414 0.46486 0.01172 0.0
C1984 C 0.80506 0.44531 0.02707 0.0
C1985 C 0.79471 0.45066 0.04958 0.0
C1986 C 0.78827 0.43651 0.00892 0.0
C1987 C 0.76095 0.43346 0.01302 0.0
C1988 C 0.75072 0.43938 0.03537 0.0
H1989 H 0.62018 0.36219 0.95747 0.0
H1990 H 0.65496 0.38398 0.98062 0.0
C1991 C 0.76732 0.448 0.05334 0.0
C1992 C 0.74294 0.42244 0.99483 0.0
H1993 H 0.68294 0.43316 0.96864 0.0
C1994 C 0.74734 0.39655 0.9868 0.0
C1995 C 0.7198 0.43608 0.98761 0.0
C1996 C 0.71465 0.46444 0.99452 0.0
C1997 C 0.72856 0.38346 0.97273 0.0
C1998 C 0.70489 0.39673 0.96646 0.0
C1999 C 0.70094 0.42292 0.97376 0.0
C2000 C 0.68388 0.38367 0.95244 0.0
C2001 C 0.73363 0.35519 0.96548 0.0
C2002 C 0.68855 0.37662 0.92891 0.0
C2003 C 0.66877 0.36437 0.91567 0.0
C2004 C 0.64384 0.3589 0.92568 0.0
C2005 C 0.63913 0.36613 0.94925 0.0
C2006 C 0.65896 0.37857 0.96247 0.0
H2007 H 0.75024 0.34617 0.97551 0.0
H2008 H 0.71562 0.34297 0.96813 0.0
H2009 H 0.73873 0.3546 0.94644 0.0
H2010 H 0.70751 0.38069 0.92074 0.0
H2011 H 0.67315 0.35902 0.89758 0.0
H2012 H 0.03356 0.75857 0.07574 0.0
H2013 H 0.04948 0.72809 0.04549 0.0
H2014 H 0.07403 0.79412 0.00256 0.0
H2015 H 0.05777 0.82502 0.03302 0.0
H2016 H 0.03676 0.72487 0.99459 0.0
H2017 H 0.1423 0.74638 0.01532 0.0
H2018 H 0.1157 0.7545 0.03535 0.0
H2019 H 0.12086 0.77411 0.00939 0.0
C2020 C 0.04199 0.76665 0.05969 0.0
C2021 C 0.04447 0.79415 0.0567 0.0
C2022 C 0.05107 0.7492 0.04243 0.0
C2023 C 0.06318 0.75881 0.02192 0.0
C2024 C 0.06488 0.78632 0.01839 0.0
H2025 H 0.11296 0.66284 0.90216 0.0
H2026 H 0.09272 0.69589 0.92789 0.0
C2027 C 0.0554 0.80393 0.03564 0.0
C2028 C 0.0749 0.73969 0.00498 0.0
H2029 H 0.13397 0.71399 0.98637 0.0
C2030 C 0.058 0.72265 0.99257 0.0
C2031 C 0.10262 0.73648 0.00282 0.0
C2032 C 0.12158 0.75365 0.01648 0.0
C2033 C 0.06809 0.70252 0.97799 0.0
C2034 C 0.09582 0.69941 0.97568 0.0
C2035 C 0.11273 0.71643 0.98814 0.0
C2036 C 0.10762 0.67875 0.96024 0.0
C2037 C 0.04903 0.6843 0.96559 0.0
C2038 C 0.1229 0.65812 0.96985 0.0
C2039 C 0.13447 0.63901 0.95515 0.0
C2040 C 0.13123 0.64041 0.93052 0.0
C2041 C 0.1158 0.66107 0.92103 0.0
C2042 C 0.10413 0.67999 0.93572 0.0
H2043 H 0.0288 0.6855 0.97322 0.0
H2044 H 0.04781 0.68994 0.94669 0.0
H2045 H 0.05599 0.66348 0.96657 0.0
H2046 H 0.12592 0.65686 0.98875 0.0
H2047 H 0.14641 0.62352 0.96301 0.0
loop_
_geom_bond_atom_site_label_1
_geom_bond_atom_site_label_2
_geom_bond_distance
_geom_bond_site_symmetry_2
_ccdc_geom_bond_type
Zn0 O6 1.969 . S
Zn0 O7 1.965 . S
Zn0 O11 2.024 . S
Zn0 O16 1.969 . S
Zn1 O8 1.969 . S
Zn1 O14 1.969 . S
Zn1 O15 1.965 . S
Zn1 O17 2.024 . S
C2 O3 1.229 . S
C2 O11 1.058 . S
O3 C2 1.229 . S
C4 O5 1.229 . S
C4 O17 1.058 . S
O5 C4 1.229 . S
O6 Zn0 1.969 . S
O6 C9 1.267 . S
O7 Zn0 1.965 . S
O7 C18 1.260 . S
O8 Zn1 1.969 . S
O8 C18 1.258 . S
C9 O6 1.267 . S
C9 O10 1.228 . S
O10 C9 1.228 . S
O11 Zn0 2.024 . S
O11 C2 1.058 . S
C12 O13 1.228 . S
C12 O14 1.267 . S
O13 C12 1.228 . S
O14 Zn1 1.969 . S
O14 C12 1.267 . S
O15 Zn1 1.965 . S
O15 C19 1.260 . S
O16 Zn0 1.969 . S
O16 C19 1.258 . S
O17 Zn1 2.024 . S
O17 C4 1.058 . S
C18 O7 1.260 . S
C18 O8 1.258 . S
C19 O15 1.260 . S
C19 O16 1.258 . S
Zn20 O26 1.969 . S
Zn20 O27 1.965 . S
Zn20 O31 2.024 . S
Zn20 O36 1.969 . S
Zn21 O28 1.969 . S
Zn21 O34 1.969 . S
Zn21 O35 1.965 . S
Zn21 O37 2.024 . S
C22 O23 1.229 . S
C22 O31 1.058 . S
O23 C22 1.229 . S
C24 O25 1.229 . S
C24 O37 1.058 . S
O25 C24 1.229 . S
O26 Zn20 1.969 . S
O26 C29 1.267 . S
O27 Zn20 1.965 . S
O27 C38 1.260 . S
O28 Zn21 1.969 . S
O28 C38 1.258 . S
C29 O26 1.267 . S
C29 O30 1.228 . S
O30 C29 1.228 . S
O31 Zn20 2.024 . S
O31 C22 1.058 . S
C32 O33 1.228 . S
C32 O34 1.267 . S
O33 C32 1.228 . S
O34 Zn21 1.969 . S
O34 C32 1.267 . S
O35 Zn21 1.965 . S
O35 C39 1.260 . S
O36 Zn20 1.969 . S
O36 C39 1.258 . S
O37 Zn21 2.024 . S
O37 C24 1.058 . S
C38 O27 1.260 . S
C38 O28 1.258 . S
C39 O35 1.260 . S
C39 O36 1.258 . S
Zn40 O46 1.969 1_655 S
Zn40 O47 1.965 . S
Zn40 O51 2.024 . S
Zn40 O56 1.969 . S
Zn41 O48 1.969 . S
Zn41 O54 1.969 . S
Zn41 O55 1.965 . S
Zn41 O57 2.024 . S
C42 O43 1.229 . S
C42 O51 1.058 1_455 S
O43 C42 1.229 . S
C44 O45 1.229 . S
C44 O57 1.058 . S
O45 C44 1.229 . S
O46 Zn40 1.969 1_455 S
O46 C49 1.267 . S
O47 Zn40 1.965 . S
O47 C58 1.260 . S
O48 Zn41 1.969 . S
O48 C58 1.258 . S
C49 O46 1.267 . S
C49 O50 1.228 . S
O50 C49 1.228 . S
O51 Zn40 2.024 . S
O51 C42 1.058 1_655 S
C52 O53 1.228 . S
C52 O54 1.267 . S
O53 C52 1.228 . S
O54 Zn41 1.969 . S
O54 C52 1.267 . S
O55 Zn41 1.965 . S
O55 C59 1.260 . S
O56 Zn40 1.969 . S
O56 C59 1.258 . S
O57 Zn41 2.024 . S
O57 C44 1.058 . S
C58 O47 1.260 . S
C58 O48 1.258 . S
C59 O55 1.260 . S
C59 O56 1.258 . S
Zn60 O66 1.969 1_565 S
Zn60 O67 1.965 . S
Zn60 O71 2.024 . S
Zn60 O76 1.969 . S
Zn61 O68 1.969 . S
Zn61 O74 1.969 . S
Zn61 O75 1.965 . S
Zn61 O77 2.024 . S
C62 O63 1.229 . S
C62 O71 1.058 1_545 S
O63 C62 1.229 . S
C64 O65 1.229 . S
C64 O77 1.058 . S
O65 C64 1.229 . S
O66 Zn60 1.969 1_545 S
O66 C69 1.267 . S
O67 Zn60 1.965 . S
O67 C78 1.260 . S
O68 Zn61 1.969 . S
O68 C78 1.258 . S
C69 O66 1.267 . S
C69 O70 1.228 . S
O70 C69 1.228 . S
O71 Zn60 2.024 . S
O71 C62 1.058 1_565 S
C72 O73 1.228 . S
C72 O74 1.267 . S
O73 C72 1.228 . S
O74 Zn61 1.969 . S
O74 C72 1.267 . S
O75 Zn61 1.965 . S
O75 C79 1.260 . S
O76 Zn60 1.969 . S
O76 C79 1.258 . S
O77 Zn61 2.024 . S
O77 C64 1.058 . S
C78 O67 1.260 . S
C78 O68 1.258 . S
C79 O75 1.260 . S
C79 O76 1.258 . S
Zn80 O86 1.969 1_455 S
Zn80 O87 1.965 . S
Zn80 O91 2.024 . S
Zn80 O96 1.969 . S
Zn81 O88 1.969 . S
Zn81 O94 1.969 . S
Zn81 O95 1.965 . S
Zn81 O97 2.024 . S
C82 O83 1.229 . S
C82 O91 1.058 1_655 S
O83 C82 1.229 . S
C84 O85 1.229 . S
C84 O97 1.058 . S
O85 C84 1.229 . S
O86 Zn80 1.969 1_655 S
O86 C89 1.267 . S
O87 Zn80 1.965 . S
O87 C98 1.260 . S
O88 Zn81 1.969 . S
O88 C98 1.258 . S
C89 O86 1.267 . S
C89 O90 1.228 . S
O90 C89 1.228 . S
O91 Zn80 2.024 . S
O91 C82 1.058 1_455 S
C92 O93 1.228 . S
C92 O94 1.267 . S
O93 C92 1.228 . S
O94 Zn81 1.969 . S
O94 C92 1.267 . S
O95 Zn81 1.965 . S
O95 C99 1.260 . S
O96 Zn80 1.969 . S
O96 C99 1.258 . S
O97 Zn81 2.024 . S
O97 C84 1.058 . S
C98 O87 1.260 . S
C98 O88 1.258 . S
C99 O95 1.260 . S
C99 O96 1.258 . S
Zn100 O106 1.969 1_545 S
Zn100 O107 1.965 . S
Zn100 O111 2.024 . S
Zn100 O116 1.969 . S
Zn101 O108 1.969 . S
Zn101 O114 1.969 . S
Zn101 O115 1.965 . S
Zn101 O117 2.024 . S
C102 O103 1.229 . S
C102 O111 1.058 1_565 S
O103 C102 1.229 . S
C104 O105 1.229 . S
C104 O117 1.058 . S
O105 C104 1.229 . S
O106 Zn100 1.969 1_565 S
O106 C109 1.267 . S
O107 Zn100 1.965 . S
O107 C118 1.260 . S
O108 Zn101 1.969 . S
O108 C118 1.258 . S
C109 O106 1.267 . S
C109 O110 1.228 . S
O110 C109 1.228 . S
O111 Zn100 2.024 . S
O111 C102 1.058 1_545 S
C112 O113 1.228 . S
C112 O114 1.267 . S
O113 C112 1.228 . S
O114 Zn101 1.969 . S
O114 C112 1.267 . S
O115 Zn101 1.965 . S
O115 C119 1.260 . S
O116 Zn100 1.969 . S
O116 C119 1.258 . S
O117 Zn101 2.024 . S
O117 C104 1.058 . S
C118 O107 1.260 . S
C118 O108 1.258 . S
C119 O115 1.260 . S
C119 O116 1.258 . S
Zn120 O126 1.969 . S
Zn120 O127 1.965 . S
Zn120 O131 2.024 . S
Zn120 O136 1.969 . S
Zn121 O128 1.969 . S
Zn121 O134 1.969 . S
Zn121 O135 1.965 . S
Zn121 O137 2.024 . S
C122 O123 1.229 . S
C122 O131 1.058 . S
O123 C122 1.229 . S
C124 O125 1.229 . S
C124 O137 1.058 . S
O125 C124 1.229 . S
O126 Zn120 1.969 . S
O126 C129 1.267 . S
O127 Zn120 1.965 . S
O127 C138 1.260 . S
O128 Zn121 1.969 . S
O128 C138 1.258 . S
C129 O126 1.267 . S
C129 O130 1.228 . S
O130 C129 1.228 . S
O131 Zn120 2.024 . S
O131 C122 1.058 . S
C132 O133 1.228 . S
C132 O134 1.267 . S
O133 C132 1.228 . S
O134 Zn121 1.969 . S
O134 C132 1.267 . S
O135 Zn121 1.965 . S
O135 C139 1.260 . S
O136 Zn120 1.969 . S
O136 C139 1.258 . S
O137 Zn121 2.024 . S
O137 C124 1.058 . S
C138 O127 1.260 . S
C138 O128 1.258 . S
C139 O135 1.260 . S
C139 O136 1.258 . S
Zn140 O146 1.969 . S
Zn140 O147 1.965 . S
Zn140 O151 2.024 . S
Zn140 O156 1.969 . S
Zn141 O148 1.969 . S
Zn141 O154 1.969 . S
Zn141 O155 1.965 . S
Zn141 O157 2.024 . S
C142 O143 1.229 . S
C142 O151 1.058 . S
O143 C142 1.229 . S
C144 O145 1.229 . S
C144 O157 1.058 . S
O145 C144 1.229 . S
O146 Zn140 1.969 . S
O146 C149 1.267 . S
O147 Zn140 1.965 . S
O147 C158 1.260 . S
O148 Zn141 1.969 . S
O148 C158 1.258 . S
C149 O146 1.267 . S
C149 O150 1.228 . S
O150 C149 1.228 . S
O151 Zn140 2.024 . S
O151 C142 1.058 . S
C152 O153 1.228 . S
C152 O154 1.267 . S
O153 C152 1.228 . S
O154 Zn141 1.969 . S
O154 C152 1.267 . S
O155 Zn141 1.965 . S
O155 C159 1.260 . S
O156 Zn140 1.969 . S
O156 C159 1.258 . S
O157 Zn141 2.024 . S
O157 C144 1.058 . S
C158 O147 1.260 . S
C158 O148 1.258 . S
C159 O155 1.260 . S
C159 O156 1.258 . S
Zn160 O166 1.969 . S
Zn160 O167 1.965 . S
Zn160 O171 2.024 . S
Zn160 O176 1.969 . S
Zn161 O168 1.969 . S
Zn161 O174 1.969 . S
Zn161 O175 1.965 . S
Zn161 O177 2.024 . S
C162 O163 1.229 . S
C162 O171 1.058 . S
O163 C162 1.229 . S
C164 O165 1.229 . S
C164 O177 1.058 . S
O165 C164 1.229 . S
O166 Zn160 1.969 . S
O166 C169 1.267 . S
O167 Zn160 1.965 . S
O167 C178 1.260 . S
O168 Zn161 1.969 . S
O168 C178 1.258 . S
C169 O166 1.267 . S
C169 O170 1.228 . S
O170 C169 1.228 . S
O171 Zn160 2.024 . S
O171 C162 1.058 . S
C172 O173 1.228 . S
C172 O174 1.267 . S
O173 C172 1.228 . S
O174 Zn161 1.969 . S
O174 C172 1.267 . S
O175 Zn161 1.965 . S
O175 C179 1.260 . S
O176 Zn160 1.969 . S
O176 C179 1.258 . S
O177 Zn161 2.024 . S
O177 C164 1.058 . S
C178 O167 1.260 . S
C178 O168 1.258 . S
C179 O175 1.260 . S
C179 O176 1.258 . S
Zn180 O186 1.969 . S
Zn180 O187 1.965 . S
Zn180 O191 2.024 . S
Zn180 O196 1.969 . S
Zn181 O188 1.969 . S
Zn181 O194 1.969 . S
Zn181 O195 1.965 . S
Zn181 O197 2.024 . S
C182 O183 1.229 . S
C182 O191 1.058 . S
O183 C182 1.229 . S
C184 O185 1.229 . S
C184 O197 1.058 . S
O185 C184 1.229 . S
O186 Zn180 1.969 . S
O186 C189 1.267 . S
O187 Zn180 1.965 . S
O187 C198 1.260 . S
O188 Zn181 1.969 . S
O188 C198 1.258 . S
C189 O186 1.267 . S
C189 O190 1.228 . S
O190 C189 1.228 . S
O191 Zn180 2.024 . S
O191 C182 1.058 . S
C192 O193 1.228 . S
C192 O194 1.267 . S
O193 C192 1.228 . S
O194 Zn181 1.969 . S
O194 C192 1.267 . S
O195 Zn181 1.965 . S
O195 C199 1.260 . S
O196 Zn180 1.969 . S
O196 C199 1.258 . S
O197 Zn181 2.024 . S
O197 C184 1.058 . S
C198 O187 1.260 . S
C198 O188 1.258 . S
C199 O195 1.260 . S
C199 O196 1.258 . S
Zn200 O206 1.969 . S
Zn200 O207 1.965 . S
Zn200 O211 2.024 . S
Zn200 O216 1.969 . S
Zn201 O208 1.969 . S
Zn201 O214 1.969 1_455 S
Zn201 O215 1.965 . S
Zn201 O217 2.024 . S
C202 O203 1.229 . S
C202 O211 1.058 . S
O203 C202 1.229 . S
C204 O205 1.229 . S
C204 O217 1.058 1_655 S
O205 C204 1.229 . S
O206 Zn200 1.969 . S
O206 C209 1.267 . S
O207 Zn200 1.965 . S
O207 C218 1.260 . S
O208 Zn201 1.969 . S
O208 C218 1.258 . S
C209 O206 1.267 . S
C209 O210 1.228 . S
O210 C209 1.228 . S
O211 Zn200 2.024 . S
O211 C202 1.058 . S
C212 O213 1.228 . S
C212 O214 1.267 . S
O213 C212 1.228 . S
O214 Zn201 1.969 1_655 S
O214 C212 1.267 . S
O215 Zn201 1.965 . S
O215 C219 1.260 . S
O216 Zn200 1.969 . S
O216 C219 1.258 . S
O217 Zn201 2.024 . S
O217 C204 1.058 1_455 S
C218 O207 1.260 . S
C218 O208 1.258 . S
C219 O215 1.260 . S
C219 O216 1.258 . S
Zn220 O226 1.969 . S
Zn220 O227 1.965 . S
Zn220 O231 2.024 . S
Zn220 O236 1.969 . S
Zn221 O228 1.969 . S
Zn221 O234 1.969 1_545 S
Zn221 O235 1.965 . S
Zn221 O237 2.024 . S
C222 O223 1.229 . S
C222 O231 1.058 . S
O223 C222 1.229 . S
C224 O225 1.229 . S
C224 O237 1.058 1_565 S
O225 C224 1.229 . S
O226 Zn220 1.969 . S
O226 C229 1.267 . S
O227 Zn220 1.965 . S
O227 C238 1.260 . S
O228 Zn221 1.969 . S
O228 C238 1.258 . S
C229 O226 1.267 . S
C229 O230 1.228 . S
O230 C229 1.228 . S
O231 Zn220 2.024 . S
O231 C222 1.058 . S
C232 O233 1.228 . S
C232 O234 1.267 . S
O233 C232 1.228 . S
O234 Zn221 1.969 1_565 S
O234 C232 1.267 . S
O235 Zn221 1.965 . S
O235 C239 1.260 . S
O236 Zn220 1.969 . S
O236 C239 1.258 . S
O237 Zn221 2.024 . S
O237 C224 1.058 1_545 S
C238 O227 1.260 . S
C238 O228 1.258 . S
C239 O235 1.260 . S
C239 O236 1.258 . S
Zn240 O246 1.969 . S
Zn240 O247 1.965 . S
Zn240 O251 2.024 . S
Zn240 O256 1.969 . S
Zn241 O248 1.969 . S
Zn241 O254 1.969 1_655 S
Zn241 O255 1.965 . S
Zn241 O257 2.024 . S
C242 O243 1.229 . S
C242 O251 1.058 . S
O243 C242 1.229 . S
C244 O245 1.229 . S
C244 O257 1.058 1_455 S
O245 C244 1.229 . S
O246 Zn240 1.969 . S
O246 C249 1.267 . S
O247 Zn240 1.965 . S
O247 C258 1.260 . S
O248 Zn241 1.969 . S
O248 C258 1.258 . S
C249 O246 1.267 . S
C249 O250 1.228 . S
O250 C249 1.228 . S
O251 Zn240 2.024 . S
O251 C242 1.058 . S
C252 O253 1.228 . S
C252 O254 1.267 . S
O253 C252 1.228 . S
O254 Zn241 1.969 1_455 S
O254 C252 1.267 . S
O255 Zn241 1.965 . S
O255 C259 1.260 . S
O256 Zn240 1.969 . S
O256 C259 1.258 . S
O257 Zn241 2.024 . S
O257 C244 1.058 1_655 S
C258 O247 1.260 . S
C258 O248 1.258 . S
C259 O255 1.260 . S
C259 O256 1.258 . S
Zn260 O266 1.969 . S
Zn260 O267 1.965 . S
Zn260 O271 2.024 . S
Zn260 O276 1.969 . S
Zn261 O268 1.969 . S
Zn261 O274 1.969 1_565 S
Zn261 O275 1.965 . S
Zn261 O277 2.024 . S
C262 O263 1.229 . S
C262 O271 1.058 . S
O263 C262 1.229 . S
C264 O265 1.229 . S
C264 O277 1.058 1_545 S
O265 C264 1.229 . S
O266 Zn260 1.969 . S
O266 C269 1.267 . S
O267 Zn260 1.965 . S
O267 C278 1.260 . S
O268 Zn261 1.969 . S
O268 C278 1.258 . S
C269 O266 1.267 . S
C269 O270 1.228 . S
O270 C269 1.228 . S
O271 Zn260 2.024 . S
O271 C262 1.058 . S
C272 O273 1.228 . S
C272 O274 1.267 . S
O273 C272 1.228 . S
O274 Zn261 1.969 1_545 S
O274 C272 1.267 . S
O275 Zn261 1.965 . S
O275 C279 1.260 . S
O276 Zn260 1.969 . S
O276 C279 1.258 . S
O277 Zn261 2.024 . S
O277 C264 1.058 1_565 S
C278 O267 1.260 . S
C278 O268 1.258 . S
C279 O275 1.260 . S
C279 O276 1.258 . S
Zn280 O286 1.969 . S
Zn280 O287 1.965 . S
Zn280 O291 2.024 . S
Zn280 O296 1.969 . S
Zn281 O288 1.969 . S
Zn281 O294 1.969 . S
Zn281 O295 1.965 . S
Zn281 O297 2.024 . S
C282 O283 1.229 . S
C282 O291 1.058 . S
O283 C282 1.229 . S
C284 O285 1.229 . S
C284 O297 1.058 . S
O285 C284 1.229 . S
O286 Zn280 1.969 . S
O286 C289 1.267 . S
O287 Zn280 1.965 . S
O287 C298 1.260 . S
O288 Zn281 1.969 . S
O288 C298 1.258 . S
C289 O286 1.267 . S
C289 O290 1.228 . S
O290 C289 1.228 . S
O291 Zn280 2.024 . S
O291 C282 1.058 . S
C292 O293 1.228 . S
C292 O294 1.267 . S
O293 C292 1.228 . S
O294 Zn281 1.969 . S
O294 C292 1.267 . S
O295 Zn281 1.965 . S
O295 C299 1.260 . S
O296 Zn280 1.969 . S
O296 C299 1.258 . S
O297 Zn281 2.024 . S
O297 C284 1.058 . S
C298 O287 1.260 . S
C298 O288 1.258 . S
C299 O295 1.260 . S
C299 O296 1.258 . S
Zn300 O306 1.969 . S
Zn300 O307 1.965 . S
Zn300 O311 2.024 . S
Zn300 O316 1.969 . S
Zn301 O308 1.969 . S
Zn301 O314 1.969 . S
Zn301 O315 1.965 . S
Zn301 O317 2.024 . S
C302 O303 1.229 . S
C302 O311 1.058 . S
O303 C302 1.229 . S
C304 O305 1.229 . S
C304 O317 1.058 . S
O305 C304 1.229 . S
O306 Zn300 1.969 . S
O306 C309 1.267 . S
O307 Zn300 1.965 . S
O307 C318 1.260 . S
O308 Zn301 1.969 . S
O308 C318 1.258 . S
C309 O306 1.267 . S
C309 O310 1.228 . S
O310 C309 1.228 . S
O311 Zn300 2.024 . S
O311 C302 1.058 . S
C312 O313 1.228 . S
C312 O314 1.267 . S
O313 C312 1.228 . S
O314 Zn301 1.969 . S
O314 C312 1.267 . S
O315 Zn301 1.965 . S
O315 C319 1.260 . S
O316 Zn300 1.969 . S
O316 C319 1.258 . S
O317 Zn301 2.024 . S
O317 C304 1.058 . S
C318 O307 1.260 . S
C318 O308 1.258 . S
C319 O315 1.260 . S
C319 O316 1.258 . S
H320 C328 0.929 . S
H321 C330 0.930 . S
H322 C332 0.930 . S
H323 C335 0.929 . S
H324 C338 0.930 . S
H325 C340 0.960 . S
H326 C340 0.960 . S
H327 C340 0.960 . S
C328 H320 0.929 . S
C328 C329 1.377 . S
C328 C330 1.384 . S
C329 C328 1.377 . S
C329 C335 1.390 . S
C330 H321 0.930 . S
C330 C328 1.384 . S
C330 C331 1.372 . S
C331 C330 1.372 . S
C331 C332 1.400 . S
C331 C336 1.490 . S
C332 H322 0.930 . S
C332 C331 1.400 . S
C332 C335 1.386 . S
H333 C349 0.930 . S
H334 C350 0.931 . S
C335 H323 0.929 . S
C335 C329 1.390 . S
C335 C332 1.386 . S
C336 C331 1.490 . S
C336 C338 1.395 . S
C336 C339 1.403 . S
H337 C343 0.930 . S
C338 H324 0.930 . S
C338 C336 1.395 . S
C338 C341 1.403 . S
C339 C336 1.403 . S
C339 C340 1.524 . S
C339 C343 1.400 . S
C340 H325 0.960 . S
C340 H326 0.960 . S
C340 H327 0.960 . S
C340 C339 1.524 . S
C341 C338 1.403 . S
C341 C342 1.392 . S
C341 C345 1.495 . S
C342 C341 1.392 . S
C342 C343 1.385 . S
C342 C344 1.478 . S
C343 H337 0.930 . S
C343 C339 1.400 . S
C343 C342 1.385 . S
C344 C342 1.478 . S
C344 C346 1.381 . S
C344 C350 1.383 . S
C345 C341 1.495 . S
C345 H351 0.959 . S
C345 H352 0.961 . S
C345 H353 0.960 . S
C346 C344 1.381 . S
C346 C347 1.394 . S
C346 H354 0.930 . S
C347 C346 1.394 . S
C347 C348 1.383 . S
C347 H355 0.929 . S
C348 C347 1.383 . S
C348 C349 1.377 . S
C349 H333 0.930 . S
C349 C348 1.377 . S
C349 C350 1.379 . S
C350 H334 0.931 . S
C350 C344 1.383 . S
C350 C349 1.379 . S
H351 C345 0.959 . S
H352 C345 0.961 . S
H353 C345 0.960 . S
H354 C346 0.930 . S
H355 C347 0.929 . S
H356 C364 0.929 . S
H357 C366 0.930 . S
H358 C368 0.930 . S
H359 C371 0.929 . S
H360 C374 0.930 . S
H361 C376 0.960 . S
H362 C376 0.960 . S
H363 C376 0.960 . S
C364 H356 0.929 . S
C364 C365 1.377 . S
C364 C366 1.384 . S
C365 C364 1.377 . S
C365 C371 1.390 . S
C366 H357 0.930 . S
C366 C364 1.384 . S
C366 C367 1.372 . S
C367 C366 1.372 . S
C367 C368 1.400 . S
C367 C372 1.490 . S
C368 H358 0.930 . S
C368 C367 1.400 . S
C368 C371 1.386 . S
H369 C385 0.930 . S
H370 C386 0.931 . S
C371 H359 0.929 . S
C371 C365 1.390 . S
C371 C368 1.386 . S
C372 C367 1.490 . S
C372 C374 1.395 . S
C372 C375 1.403 . S
H373 C379 0.930 . S
C374 H360 0.930 . S
C374 C372 1.395 . S
C374 C377 1.403 . S
C375 C372 1.403 . S
C375 C376 1.524 . S
C375 C379 1.400 . S
C376 H361 0.960 . S
C376 H362 0.960 . S
C376 H363 0.960 . S
C376 C375 1.524 . S
C377 C374 1.403 . S
C377 C378 1.392 . S
C377 C381 1.495 . S
C378 C377 1.392 . S
C378 C379 1.385 . S
C378 C380 1.478 . S
C379 H373 0.930 . S
C379 C375 1.400 . S
C379 C378 1.385 . S
C380 C378 1.478 . S
C380 C382 1.381 . S
C380 C386 1.383 . S
C381 C377 1.495 . S
C381 H387 0.959 . S
C381 H388 0.961 . S
C381 H389 0.960 . S
C382 C380 1.381 . S
C382 C383 1.394 . S
C382 H390 0.930 . S
C383 C382 1.394 . S
C383 C384 1.383 . S
C383 H391 0.929 . S
C384 C383 1.383 . S
C384 C385 1.377 . S
C385 H369 0.930 . S
C385 C384 1.377 . S
C385 C386 1.379 . S
C386 H370 0.931 . S
C386 C380 1.383 . S
C386 C385 1.379 . S
H387 C381 0.959 . S
H388 C381 0.961 . S
H389 C381 0.960 . S
H390 C382 0.930 . S
H391 C383 0.929 . S
H392 C400 0.929 . S
H393 C402 0.930 . S
H394 C404 0.930 . S
H395 C407 0.929 . S
H396 C410 0.930 . S
H397 C412 0.960 . S
H398 C412 0.960 . S
H399 C412 0.960 . S
C400 H392 0.929 . S
C400 C401 1.377 . S
C400 C402 1.384 . S
C401 C400 1.377 . S
C401 C407 1.390 . S
C402 H393 0.930 . S
C402 C400 1.384 . S
C402 C403 1.372 . S
C403 C402 1.372 . S
C403 C404 1.400 . S
C403 C408 1.490 . S
C404 H394 0.930 . S
C404 C403 1.400 . S
C404 C407 1.386 . S
H405 C421 0.930 . S
H406 C422 0.931 . S
C407 H395 0.929 . S
C407 C401 1.390 . S
C407 C404 1.386 . S
C408 C403 1.490 . S
C408 C410 1.395 . S
C408 C411 1.403 . S
H409 C415 0.930 . S
C410 H396 0.930 . S
C410 C408 1.395 . S
C410 C413 1.403 . S
C411 C408 1.403 . S
C411 C412 1.524 . S
C411 C415 1.400 . S
C412 H397 0.960 . S
C412 H398 0.960 . S
C412 H399 0.960 . S
C412 C411 1.524 . S
C413 C410 1.403 . S
C413 C414 1.392 . S
C413 C417 1.495 . S
C414 C413 1.392 . S
C414 C415 1.385 . S
C414 C416 1.478 . S
C415 H409 0.930 . S
C415 C411 1.400 . S
C415 C414 1.385 . S
C416 C414 1.478 . S
C416 C418 1.381 . S
C416 C422 1.383 . S
C417 C413 1.495 . S
C417 H423 0.959 . S
C417 H424 0.961 . S
C417 H425 0.960 . S
C418 C416 1.381 . S
C418 C419 1.394 . S
C418 H426 0.930 . S
C419 C418 1.394 . S
C419 C420 1.383 . S
C419 H427 0.929 . S
C420 C419 1.383 . S
C420 C421 1.377 . S
C421 H405 0.930 . S
C421 C420 1.377 . S
C421 C422 1.379 . S
C422 H406 0.931 . S
C422 C416 1.383 . S
C422 C421 1.379 . S
H423 C417 0.959 . S
H424 C417 0.961 . S
H425 C417 0.960 . S
H426 C418 0.930 . S
H427 C419 0.929 . S
H428 C436 0.929 . S
H429 C438 0.930 . S
H430 C440 0.930 . S
H431 C443 0.929 . S
H432 C446 0.930 . S
H433 C448 0.960 . S
H434 C448 0.960 . S
H435 C448 0.960 . S
C436 H428 0.929 . S
C436 C437 1.377 . S
C436 C438 1.384 . S
C437 C436 1.377 . S
C437 C443 1.390 . S
C438 H429 0.930 . S
C438 C436 1.384 . S
C438 C439 1.372 . S
C439 C438 1.372 . S
C439 C440 1.400 . S
C439 C444 1.490 . S
C440 H430 0.930 . S
C440 C439 1.400 . S
C440 C443 1.386 . S
H441 C457 0.930 . S
H442 C458 0.931 . S
C443 H431 0.929 . S
C443 C437 1.390 . S
C443 C440 1.386 . S
C444 C439 1.490 . S
C444 C446 1.395 . S
C444 C447 1.403 . S
H445 C451 0.930 . S
C446 H432 0.930 . S
C446 C444 1.395 . S
C446 C449 1.403 . S
C447 C444 1.403 . S
C447 C448 1.524 . S
C447 C451 1.400 . S
C448 H433 0.960 . S
C448 H434 0.960 . S
C448 H435 0.960 . S
C448 C447 1.524 . S
C449 C446 1.403 . S
C449 C450 1.392 . S
C449 C453 1.495 . S
C450 C449 1.392 . S
C450 C451 1.385 . S
C450 C452 1.478 . S
C451 H445 0.930 . S
C451 C447 1.400 . S
C451 C450 1.385 . S
C452 C450 1.478 . S
C452 C454 1.381 . S
C452 C458 1.383 . S
C453 C449 1.495 . S
C453 H459 0.959 . S
C453 H460 0.961 . S
C453 H461 0.960 . S
C454 C452 1.381 . S
C454 C455 1.394 . S
C454 H462 0.930 . S
C455 C454 1.394 . S
C455 C456 1.383 . S
C455 H463 0.929 . S
C456 C455 1.383 . S
C456 C457 1.377 . S
C457 H441 0.930 . S
C457 C456 1.377 . S
C457 C458 1.379 . S
C458 H442 0.931 . S
C458 C452 1.383 . S
C458 C457 1.379 . S
H459 C453 0.959 . S
H460 C453 0.961 . S
H461 C453 0.960 . S
H462 C454 0.930 . S
H463 C455 0.929 . S
H464 C472 0.929 . S
H465 C474 0.930 . S
H466 C476 0.930 . S
H467 C479 0.929 . S
H468 C482 0.930 . S
H469 C484 0.960 . S
H470 C484 0.960 . S
H471 C484 0.960 . S
C472 H464 0.929 . S
C472 C473 1.377 . S
C472 C474 1.384 . S
C473 C472 1.377 . S
C473 C479 1.390 . S
C474 H465 0.930 . S
C474 C472 1.384 . S
C474 C475 1.372 . S
C475 C474 1.372 . S
C475 C476 1.400 . S
C475 C480 1.490 . S
C476 H466 0.930 . S
C476 C475 1.400 . S
C476 C479 1.386 . S
H477 C493 0.930 . S
H478 C494 0.931 . S
C479 H467 0.929 . S
C479 C473 1.390 . S
C479 C476 1.386 . S
C480 C475 1.490 . S
C480 C482 1.395 . S
C480 C483 1.403 . S
H481 C487 0.930 . S
C482 H468 0.930 . S
C482 C480 1.395 . S
C482 C485 1.403 . S
C483 C480 1.403 . S
C483 C484 1.524 . S
C483 C487 1.400 . S
C484 H469 0.960 . S
C484 H470 0.960 . S
C484 H471 0.960 . S
C484 C483 1.524 . S
C485 C482 1.403 . S
C485 C486 1.392 . S
C485 C489 1.495 . S
C486 C485 1.392 . S
C486 C487 1.385 . S
C486 C488 1.478 . S
C487 H481 0.930 . S
C487 C483 1.400 . S
C487 C486 1.385 . S
C488 C486 1.478 . S
C488 C490 1.381 . S
C488 C494 1.383 . S
C489 C485 1.495 . S
C489 H495 0.959 . S
C489 H496 0.961 . S
C489 H497 0.960 . S
C490 C488 1.381 . S
C490 C491 1.394 . S
C490 H498 0.930 . S
C491 C490 1.394 . S
C491 C492 1.383 . S
C491 H499 0.929 . S
C492 C491 1.383 . S
C492 C493 1.377 . S
C493 H477 0.930 . S
C493 C492 1.377 . S
C493 C494 1.379 . S
C494 H478 0.931 . S
C494 C488 1.383 . S
C494 C493 1.379 . S
H495 C489 0.959 . S
H496 C489 0.961 . S
H497 C489 0.960 . S
H498 C490 0.930 . S
H499 C491 0.929 . S
H500 C508 0.929 . S
H501 C510 0.930 . S
H502 C512 0.930 . S
H503 C515 0.929 . S
H504 C518 0.930 . S
H505 C520 0.960 . S
H506 C520 0.960 . S
H507 C520 0.960 . S
C508 H500 0.929 . S
C508 C509 1.377 . S
C508 C510 1.384 . S
C509 C508 1.377 . S
C509 C515 1.390 . S
C510 H501 0.930 . S
C510 C508 1.384 . S
C510 C511 1.372 . S
C511 C510 1.372 . S
C511 C512 1.400 . S
C511 C516 1.490 . S
C512 H502 0.930 . S
C512 C511 1.400 . S
C512 C515 1.386 . S
H513 C529 0.930 . S
H514 C530 0.931 . S
C515 H503 0.929 . S
C515 C509 1.390 . S
C515 C512 1.386 . S
C516 C511 1.490 . S
C516 C518 1.395 . S
C516 C519 1.403 . S
H517 C523 0.930 . S
C518 H504 0.930 . S
C518 C516 1.395 . S
C518 C521 1.403 . S
C519 C516 1.403 . S
C519 C520 1.524 . S
C519 C523 1.400 . S
C520 H505 0.960 . S
C520 H506 0.960 . S
C520 H507 0.960 . S
C520 C519 1.524 . S
C521 C518 1.403 . S
C521 C522 1.392 . S
C521 C525 1.495 . S
C522 C521 1.392 . S
C522 C523 1.385 . S
C522 C524 1.478 . S
C523 H517 0.930 . S
C523 C519 1.400 . S
C523 C522 1.385 . S
C524 C522 1.478 . S
C524 C526 1.381 . S
C524 C530 1.383 . S
C525 C521 1.495 . S
C525 H531 0.959 . S
C525 H532 0.961 . S
C525 H533 0.960 . S
C526 C524 1.381 . S
C526 C527 1.394 . S
C526 H534 0.930 . S
C527 C526 1.394 . S
C527 C528 1.383 . S
C527 H535 0.929 . S
C528 C527 1.383 . S
C528 C529 1.377 . S
C529 H513 0.930 . S
C529 C528 1.377 . S
C529 C530 1.379 . S
C530 H514 0.931 . S
C530 C524 1.383 . S
C530 C529 1.379 . S
H531 C525 0.959 . S
H532 C525 0.961 . S
H533 C525 0.960 . S
H534 C526 0.930 . S
H535 C527 0.929 . S
H536 C544 0.929 . S
H537 C546 0.930 . S
H538 C548 0.930 . S
H539 C551 0.929 . S
H540 C554 0.930 . S
H541 C556 0.960 . S
H542 C556 0.960 . S
H543 C556 0.960 . S
C544 H536 0.929 . S
C544 C545 1.377 . S
C544 C546 1.384 . S
C545 C544 1.377 . S
C545 C551 1.390 . S
C546 H537 0.930 . S
C546 C544 1.384 . S
C546 C547 1.372 . S
C547 C546 1.372 . S
C547 C548 1.400 . S
C547 C552 1.490 . S
C548 H538 0.930 . S
C548 C547 1.400 . S
C548 C551 1.386 . S
H549 C565 0.930 . S
H550 C566 0.931 . S
C551 H539 0.929 . S
C551 C545 1.390 . S
C551 C548 1.386 . S
C552 C547 1.490 . S
C552 C554 1.395 . S
C552 C555 1.403 . S
H553 C559 0.930 . S
C554 H540 0.930 . S
C554 C552 1.395 . S
C554 C557 1.403 . S
C555 C552 1.403 . S
C555 C556 1.524 . S
C555 C559 1.400 . S
C556 H541 0.960 . S
C556 H542 0.960 . S
C556 H543 0.960 . S
C556 C555 1.524 . S
C557 C554 1.403 . S
C557 C558 1.392 . S
C557 C561 1.495 . S
C558 C557 1.392 . S
C558 C559 1.385 . S
C558 C560 1.478 . S
C559 H553 0.930 . S
C559 C555 1.400 . S
C559 C558 1.385 . S
C560 C558 1.478 . S
C560 C562 1.381 . S
C560 C566 1.383 . S
C561 C557 1.495 . S
C561 H567 0.959 . S
C561 H568 0.961 . S
C561 H569 0.960 . S
C562 C560 1.381 . S
C562 C563 1.394 . S
C562 H570 0.930 . S
C563 C562 1.394 . S
C563 C564 1.383 . S
C563 H571 0.929 . S
C564 C563 1.383 . S
C564 C565 1.377 . S
C565 H549 0.930 . S
C565 C564 1.377 . S
C565 C566 1.379 . S
C566 H550 0.931 . S
C566 C560 1.383 . S
C566 C565 1.379 . S
H567 C561 0.959 . S
H568 C561 0.961 . S
H569 C561 0.960 . S
H570 C562 0.930 . S
H571 C563 0.929 . S
H572 C580 0.929 . S
H573 C582 0.930 . S
H574 C584 0.930 . S
H575 C587 0.929 . S
H576 C590 0.930 . S
H577 C592 0.960 . S
H578 C592 0.960 . S
H579 C592 0.960 . S
C580 H572 0.929 . S
C580 C581 1.377 . S
C580 C582 1.384 . S
C581 C580 1.377 . S
C581 C587 1.390 . S
C582 H573 0.930 . S
C582 C580 1.384 . S
C582 C583 1.372 . S
C583 C582 1.372 . S
C583 C584 1.400 . S
C583 C588 1.490 . S
C584 H574 0.930 . S
C584 C583 1.400 . S
C584 C587 1.386 . S
H585 C601 0.930 . S
H586 C602 0.931 . S
C587 H575 0.929 . S
C587 C581 1.390 . S
C587 C584 1.386 . S
C588 C583 1.490 . S
C588 C590 1.395 . S
C588 C591 1.403 . S
H589 C595 0.930 . S
C590 H576 0.930 . S
C590 C588 1.395 . S
C590 C593 1.403 . S
C591 C588 1.403 . S
C591 C592 1.524 . S
C591 C595 1.400 . S
C592 H577 0.960 . S
C592 H578 0.960 . S
C592 H579 0.960 . S
C592 C591 1.524 . S
C593 C590 1.403 . S
C593 C594 1.392 . S
C593 C597 1.495 . S
C594 C593 1.392 . S
C594 C595 1.385 . S
C594 C596 1.478 . S
C595 H589 0.930 . S
C595 C591 1.400 . S
C595 C594 1.385 . S
C596 C594 1.478 . S
C596 C598 1.381 . S
C596 C602 1.383 . S
C597 C593 1.495 . S
C597 H603 0.959 . S
C597 H604 0.961 . S
C597 H605 0.960 . S
C598 C596 1.381 . S
C598 C599 1.394 . S
C598 H606 0.930 . S
C599 C598 1.394 . S
C599 C600 1.383 . S
C599 H607 0.929 . S
C600 C599 1.383 . S
C600 C601 1.377 . S
C601 H585 0.930 . S
C601 C600 1.377 . S
C601 C602 1.379 . S
C602 H586 0.931 . S
C602 C596 1.383 . S
C602 C601 1.379 . S
H603 C597 0.959 . S
H604 C597 0.961 . S
H605 C597 0.960 . S
H606 C598 0.930 . S
H607 C599 0.929 . S
H608 C616 0.929 . S
H609 C618 0.930 . S
H610 C620 0.930 . S
H611 C623 0.929 . S
H612 C626 0.930 . S
H613 C628 0.960 . S
H614 C628 0.960 . S
H615 C628 0.960 . S
C616 H608 0.929 . S
C616 C617 1.377 . S
C616 C618 1.384 . S
C617 C616 1.377 . S
C617 C623 1.390 . S
C618 H609 0.930 . S
C618 C616 1.384 . S
C618 C619 1.372 . S
C619 C618 1.372 . S
C619 C620 1.400 . S
C619 C624 1.490 . S
C620 H610 0.930 . S
C620 C619 1.400 . S
C620 C623 1.386 . S
H621 C637 0.930 1_565 S
H622 C638 0.931 . S
C623 H611 0.929 . S
C623 C617 1.390 . S
C623 C620 1.386 . S
C624 C619 1.490 . S
C624 C626 1.395 . S
C624 C627 1.403 . S
H625 C631 0.930 . S
C626 H612 0.930 . S
C626 C624 1.395 . S
C626 C629 1.403 . S
C627 C624 1.403 . S
C627 C628 1.524 . S
C627 C631 1.400 . S
C628 H613 0.960 . S
C628 H614 0.960 . S
C628 H615 0.960 . S
C628 C627 1.524 . S
C629 C626 1.403 . S
C629 C630 1.392 . S
C629 C633 1.495 . S
C630 C629 1.392 . S
C630 C631 1.385 . S
C630 C632 1.478 . S
C631 H625 0.930 . S
C631 C627 1.400 . S
C631 C630 1.385 . S
C632 C630 1.478 . S
C632 C634 1.381 . S
C632 C638 1.383 . S
C633 C629 1.495 . S
C633 H639 0.959 . S
C633 H640 0.961 . S
C633 H641 0.960 . S
C634 C632 1.381 . S
C634 C635 1.394 . S
C634 H642 0.930 . S
C635 C634 1.394 . S
C635 C636 1.383 . S
C635 H643 0.929 . S
C636 C635 1.383 . S
C636 C637 1.377 . S
C637 H621 0.930 1_545 S
C637 C636 1.377 . S
C637 C638 1.379 . S
C638 H622 0.931 . S
C638 C632 1.383 . S
C638 C637 1.379 . S
H639 C633 0.959 . S
H640 C633 0.961 . S
H641 C633 0.960 . S
H642 C634 0.930 . S
H643 C635 0.929 . S
H644 C652 0.929 . S
H645 C654 0.930 . S
H646 C656 0.930 . S
H647 C659 0.929 . S
H648 C662 0.930 . S
H649 C664 0.960 . S
H650 C664 0.960 . S
H651 C664 0.960 . S
C652 H644 0.929 . S
C652 C653 1.377 . S
C652 C654 1.384 . S
C653 C652 1.377 . S
C653 C659 1.390 . S
C654 H645 0.930 . S
C654 C652 1.384 . S
C654 C655 1.372 . S
C655 C654 1.372 . S
C655 C656 1.400 . S
C655 C660 1.490 . S
C656 H646 0.930 . S
C656 C655 1.400 . S
C656 C659 1.386 . S
H657 C673 0.930 . S
H658 C674 0.931 . S
C659 H647 0.929 . S
C659 C653 1.390 . S
C659 C656 1.386 . S
C660 C655 1.490 . S
C660 C662 1.395 . S
C660 C663 1.403 . S
H661 C667 0.930 . S
C662 H648 0.930 . S
C662 C660 1.395 . S
C662 C665 1.403 . S
C663 C660 1.403 . S
C663 C664 1.524 . S
C663 C667 1.400 . S
C664 H649 0.960 . S
C664 H650 0.960 . S
C664 H651 0.960 . S
C664 C663 1.524 . S
C665 C662 1.403 . S
C665 C666 1.392 . S
C665 C669 1.495 . S
C666 C665 1.392 . S
C666 C667 1.385 . S
C666 C668 1.478 . S
C667 H661 0.930 . S
C667 C663 1.400 . S
C667 C666 1.385 . S
C668 C666 1.478 . S
C668 C670 1.381 . S
C668 C674 1.383 . S
C669 C665 1.495 . S
C669 H675 0.959 . S
C669 H676 0.961 . S
C669 H677 0.960 . S
C670 C668 1.381 . S
C670 C671 1.394 . S
C670 H678 0.930 . S
C671 C670 1.394 . S
C671 C672 1.383 . S
C671 H679 0.929 . S
C672 C671 1.383 . S
C672 C673 1.377 . S
C673 H657 0.930 . S
C673 C672 1.377 . S
C673 C674 1.379 . S
C674 H658 0.931 . S
C674 C668 1.383 . S
C674 C673 1.379 . S
H675 C669 0.959 . S
H676 C669 0.961 . S
H677 C669 0.960 . S
H678 C670 0.930 . S
H679 C671 0.929 . S
H680 C688 0.929 . S
H681 C690 0.930 . S
H682 C692 0.930 . S
H683 C695 0.929 . S
H684 C698 0.930 . S
H685 C700 0.960 . S
H686 C700 0.960 . S
H687 C700 0.960 . S
C688 H680 0.929 . S
C688 C689 1.377 . S
C688 C690 1.384 . S
C689 C688 1.377 . S
C689 C695 1.390 . S
C690 H681 0.930 . S
C690 C688 1.384 . S
C690 C691 1.372 . S
C691 C690 1.372 . S
C691 C692 1.400 . S
C691 C696 1.490 . S
C692 H682 0.930 . S
C692 C691 1.400 . S
C692 C695 1.386 . S
H693 C709 0.930 . S
H694 C710 0.931 . S
C695 H683 0.929 . S
C695 C689 1.390 . S
C695 C692 1.386 . S
C696 C691 1.490 . S
C696 C698 1.395 . S
C696 C699 1.403 . S
H697 C703 0.930 . S
C698 H684 0.930 . S
C698 C696 1.395 . S
C698 C701 1.403 . S
C699 C696 1.403 . S
C699 C700 1.524 . S
C699 C703 1.400 . S
C700 H685 0.960 . S
C700 H686 0.960 . S
C700 H687 0.960 . S
C700 C699 1.524 . S
C701 C698 1.403 . S
C701 C702 1.392 . S
C701 C705 1.495 . S
C702 C701 1.392 . S
C702 C703 1.385 . S
C702 C704 1.478 . S
C703 H697 0.930 . S
C703 C699 1.400 . S
C703 C702 1.385 . S
C704 C702 1.478 . S
C704 C706 1.381 . S
C704 C710 1.383 . S
C705 C701 1.495 . S
C705 H711 0.959 . S
C705 H712 0.961 . S
C705 H713 0.960 . S
C706 C704 1.381 . S
C706 C707 1.394 . S
C706 H714 0.930 . S
C707 C706 1.394 . S
C707 C708 1.383 . S
C707 H715 0.929 . S
C708 C707 1.383 . S
C708 C709 1.377 . S
C709 H693 0.930 . S
C709 C708 1.377 . S
C709 C710 1.379 . S
C710 H694 0.931 . S
C710 C704 1.383 . S
C710 C709 1.379 . S
H711 C705 0.959 . S
H712 C705 0.961 . S
H713 C705 0.960 . S
H714 C706 0.930 . S
H715 C707 0.929 . S
H716 C724 0.929 . S
H717 C726 0.930 . S
H718 C728 0.930 . S
H719 C731 0.929 . S
H720 C734 0.930 . S
H721 C736 0.960 . S
H722 C736 0.960 . S
H723 C736 0.960 . S
C724 H716 0.929 . S
C724 C725 1.377 . S
C724 C726 1.384 . S
C725 C724 1.377 . S
C725 C731 1.390 . S
C726 H717 0.930 . S
C726 C724 1.384 . S
C726 C727 1.372 . S
C727 C726 1.372 . S
C727 C728 1.400 . S
C727 C732 1.490 . S
C728 H718 0.930 . S
C728 C727 1.400 . S
C728 C731 1.386 . S
H729 C745 0.930 . S
H730 C746 0.931 . S
C731 H719 0.929 . S
C731 C725 1.390 . S
C731 C728 1.386 . S
C732 C727 1.490 . S
C732 C734 1.395 . S
C732 C735 1.403 . S
H733 C739 0.930 . S
C734 H720 0.930 . S
C734 C732 1.395 . S
C734 C737 1.403 . S
C735 C732 1.403 . S
C735 C736 1.524 . S
C735 C739 1.400 . S
C736 H721 0.960 . S
C736 H722 0.960 . S
C736 H723 0.960 . S
C736 C735 1.524 . S
C737 C734 1.403 . S
C737 C738 1.392 . S
C737 C741 1.495 . S
C738 C737 1.392 . S
C738 C739 1.385 . S
C738 C740 1.478 . S
C739 H733 0.930 . S
C739 C735 1.400 . S
C739 C738 1.385 . S
C740 C738 1.478 . S
C740 C742 1.381 . S
C740 C746 1.383 . S
C741 C737 1.495 . S
C741 H747 0.959 . S
C741 H748 0.961 . S
C741 H749 0.960 . S
C742 C740 1.381 . S
C742 C743 1.394 . S
C742 H750 0.930 . S
C743 C742 1.394 . S
C743 C744 1.383 . S
C743 H751 0.929 . S
C744 C743 1.383 . S
C744 C745 1.377 . S
C745 H729 0.930 . S
C745 C744 1.377 . S
C745 C746 1.379 . S
C746 H730 0.931 . S
C746 C740 1.383 . S
C746 C745 1.379 . S
H747 C741 0.959 . S
H748 C741 0.961 . S
H749 C741 0.960 . S
H750 C742 0.930 . S
H751 C743 0.929 . S
H752 C760 0.929 . S
H753 C762 0.930 . S
H754 C764 0.930 . S
H755 C767 0.929 . S
H756 C770 0.930 . S
H757 C772 0.960 . S
H758 C772 0.960 . S
H759 C772 0.960 . S
C760 H752 0.929 . S
C760 C761 1.377 . S
C760 C762 1.384 . S
C761 C760 1.377 . S
C761 C767 1.390 . S
C762 H753 0.930 . S
C762 C760 1.384 . S
C762 C763 1.372 . S
C763 C762 1.372 . S
C763 C764 1.400 . S
C763 C768 1.490 . S
C764 H754 0.930 . S
C764 C763 1.400 . S
C764 C767 1.386 . S
H765 C781 0.930 1_545 S
H766 C782 0.931 . S
C767 H755 0.929 . S
C767 C761 1.390 . S
C767 C764 1.386 . S
C768 C763 1.490 . S
C768 C770 1.395 . S
C768 C771 1.403 . S
H769 C775 0.930 . S
C770 H756 0.930 . S
C770 C768 1.395 . S
C770 C773 1.403 . S
C771 C768 1.403 . S
C771 C772 1.524 . S
C771 C775 1.400 . S
C772 H757 0.960 . S
C772 H758 0.960 . S
C772 H759 0.960 . S
C772 C771 1.524 . S
C773 C770 1.403 . S
C773 C774 1.392 . S
C773 C777 1.495 . S
C774 C773 1.392 . S
C774 C775 1.385 . S
C774 C776 1.478 . S
C775 H769 0.930 . S
C775 C771 1.400 . S
C775 C774 1.385 . S
C776 C774 1.478 . S
C776 C778 1.381 . S
C776 C782 1.383 . S
C777 C773 1.495 . S
C777 H783 0.959 . S
C777 H784 0.961 . S
C777 H785 0.960 . S
C778 C776 1.381 . S
C778 C779 1.394 . S
C778 H786 0.930 . S
C779 C778 1.394 . S
C779 C780 1.383 . S
C779 H787 0.929 . S
C780 C779 1.383 . S
C780 C781 1.377 . S
C781 H765 0.930 1_565 S
C781 C780 1.377 . S
C781 C782 1.379 . S
C782 H766 0.931 . S
C782 C776 1.383 . S
C782 C781 1.379 . S
H783 C777 0.959 . S
H784 C777 0.961 . S
H785 C777 0.960 . S
H786 C778 0.930 . S
H787 C779 0.929 . S
H788 C796 0.929 . S
H789 C798 0.930 . S
H790 C800 0.930 . S
H791 C803 0.929 . S
H792 C806 0.930 . S
H793 C808 0.960 . S
H794 C808 0.960 . S
H795 C808 0.960 . S
C796 H788 0.929 . S
C796 C797 1.377 . S
C796 C798 1.384 . S
C797 C796 1.377 . S
C797 C803 1.390 . S
C798 H789 0.930 . S
C798 C796 1.384 . S
C798 C799 1.372 . S
C799 C798 1.372 . S
C799 C800 1.400 . S
C799 C804 1.490 . S
C800 H790 0.930 . S
C800 C799 1.400 . S
C800 C803 1.386 . S
H801 C817 0.930 . S
H802 C818 0.931 . S
C803 H791 0.929 . S
C803 C797 1.390 . S
C803 C800 1.386 . S
C804 C799 1.490 . S
C804 C806 1.395 . S
C804 C807 1.403 . S
H805 C811 0.930 . S
C806 H792 0.930 . S
C806 C804 1.395 . S
C806 C809 1.403 . S
C807 C804 1.403 . S
C807 C808 1.524 . S
C807 C811 1.400 . S
C808 H793 0.960 . S
C808 H794 0.960 . S
C808 H795 0.960 . S
C808 C807 1.524 . S
C809 C806 1.403 . S
C809 C810 1.392 . S
C809 C813 1.495 . S
C810 C809 1.392 . S
C810 C811 1.385 . S
C810 C812 1.478 . S
C811 H805 0.930 . S
C811 C807 1.400 . S
C811 C810 1.385 . S
C812 C810 1.478 . S
C812 C814 1.381 . S
C812 C818 1.383 . S
C813 C809 1.495 . S
C813 H819 0.959 . S
C813 H820 0.961 . S
C813 H821 0.960 . S
C814 C812 1.381 . S
C814 C815 1.394 . S
C814 H822 0.930 . S
C815 C814 1.394 . S
C815 C816 1.383 . S
C815 H823 0.929 . S
C816 C815 1.383 . S
C816 C817 1.377 . S
C817 H801 0.930 . S
C817 C816 1.377 . S
C817 C818 1.379 . S
C818 H802 0.931 . S
C818 C812 1.383 . S
C818 C817 1.379 . S
H819 C813 0.959 . S
H820 C813 0.961 . S
H821 C813 0.960 . S
H822 C814 0.930 . S
H823 C815 0.929 . S
H824 C832 0.929 . S
H825 C834 0.930 . S
H826 C836 0.930 . S
H827 C839 0.929 . S
H828 C842 0.930 . S
H829 C844 0.960 . S
H830 C844 0.960 . S
H831 C844 0.960 . S
C832 H824 0.929 . S
C832 C833 1.377 . S
C832 C834 1.384 . S
C833 C832 1.377 . S
C833 C839 1.390 . S
C834 H825 0.930 . S
C834 C832 1.384 . S
C834 C835 1.372 . S
C835 C834 1.372 . S
C835 C836 1.400 . S
C835 C840 1.490 . S
C836 H826 0.930 . S
C836 C835 1.400 . S
C836 C839 1.386 . S
H837 C853 0.930 . S
H838 C854 0.931 . S
C839 H827 0.929 . S
C839 C833 1.390 . S
C839 C836 1.386 . S
C840 C835 1.490 . S
C840 C842 1.395 . S
C840 C843 1.403 . S
H841 C847 0.930 . S
C842 H828 0.930 . S
C842 C840 1.395 . S
C842 C845 1.403 . S
C843 C840 1.403 . S
C843 C844 1.524 . S
C843 C847 1.400 . S
C844 H829 0.960 . S
C844 H830 0.960 . S
C844 H831 0.960 . S
C844 C843 1.524 . S
C845 C842 1.403 . S
C845 C846 1.392 . S
C845 C849 1.495 . S
C846 C845 1.392 . S
C846 C847 1.385 . S
C846 C848 1.478 . S
C847 H841 0.930 . S
C847 C843 1.400 . S
C847 C846 1.385 . S
C848 C846 1.478 . S
C848 C850 1.381 . S
C848 C854 1.383 . S
C849 C845 1.495 . S
C849 H855 0.959 . S
C849 H856 0.961 . S
C849 H857 0.960 . S
C850 C848 1.381 . S
C850 C851 1.394 . S
C850 H858 0.930 . S
C851 C850 1.394 . S
C851 C852 1.383 . S
C851 H859 0.929 . S
C852 C851 1.383 . S
C852 C853 1.377 . S
C853 H837 0.930 . S
C853 C852 1.377 . S
C853 C854 1.379 . S
C854 H838 0.931 . S
C854 C848 1.383 . S
C854 C853 1.379 . S
H855 C849 0.959 . S
H856 C849 0.961 . S
H857 C849 0.960 . S
H858 C850 0.930 . S
H859 C851 0.929 . S
H860 C868 0.929 . S
H861 C870 0.930 . S
H862 C872 0.930 . S
H863 C875 0.929 1_455 S
H864 C878 0.930 . S
H865 C880 0.960 . S
H866 C880 0.960 . S
H867 C880 0.960 . S
C868 H860 0.929 . S
C868 C869 1.377 . S
C868 C870 1.384 . S
C869 C868 1.377 . S
C869 C875 1.390 . S
C870 H861 0.930 . S
C870 C868 1.384 . S
C870 C871 1.372 . S
C871 C870 1.372 . S
C871 C872 1.400 . S
C871 C876 1.490 . S
C872 H862 0.930 . S
C872 C871 1.400 . S
C872 C875 1.386 . S
H873 C889 0.930 . S
H874 C890 0.931 . S
C875 H863 0.929 1_655 S
C875 C869 1.390 . S
C875 C872 1.386 . S
C876 C871 1.490 . S
C876 C878 1.395 . S
C876 C879 1.403 . S
H877 C883 0.930 . S
C878 H864 0.930 . S
C878 C876 1.395 . S
C878 C881 1.403 . S
C879 C876 1.403 . S
C879 C880 1.524 . S
C879 C883 1.400 . S
C880 H865 0.960 . S
C880 H866 0.960 . S
C880 H867 0.960 . S
C880 C879 1.524 . S
C881 C878 1.403 . S
C881 C882 1.392 . S
C881 C885 1.495 . S
C882 C881 1.392 . S
C882 C883 1.385 . S
C882 C884 1.478 . S
C883 H877 0.930 . S
C883 C879 1.400 . S
C883 C882 1.385 . S
C884 C882 1.478 . S
C884 C886 1.381 . S
C884 C890 1.383 . S
C885 C881 1.495 . S
C885 H891 0.959 . S
C885 H892 0.961 . S
C885 H893 0.960 . S
C886 C884 1.381 . S
C886 C887 1.394 . S
C886 H894 0.930 . S
C887 C886 1.394 . S
C887 C888 1.383 . S
C887 H895 0.929 . S
C888 C887 1.383 . S
C888 C889 1.377 . S
C889 H873 0.930 . S
C889 C888 1.377 . S
C889 C890 1.379 . S
C890 H874 0.931 . S
C890 C884 1.383 . S
C890 C889 1.379 . S
H891 C885 0.959 . S
H892 C885 0.961 . S
H893 C885 0.960 . S
H894 C886 0.930 . S
H895 C887 0.929 . S
H896 C904 0.929 . S
H897 C906 0.930 . S
H898 C908 0.930 . S
H899 C911 0.929 . S
H900 C914 0.930 . S
H901 C916 0.960 . S
H902 C916 0.960 . S
H903 C916 0.960 . S
C904 H896 0.929 . S
C904 C905 1.377 . S
C904 C906 1.384 . S
C905 C904 1.377 . S
C905 C911 1.390 . S
C906 H897 0.930 . S
C906 C904 1.384 . S
C906 C907 1.372 . S
C907 C906 1.372 . S
C907 C908 1.400 . S
C907 C912 1.490 . S
C908 H898 0.930 . S
C908 C907 1.400 . S
C908 C911 1.386 . S
H909 C925 0.930 . S
H910 C926 0.931 . S
C911 H899 0.929 . S
C911 C905 1.390 . S
C911 C908 1.386 . S
C912 C907 1.490 . S
C912 C914 1.395 . S
C912 C915 1.403 . S
H913 C919 0.930 . S
C914 H900 0.930 . S
C914 C912 1.395 . S
C914 C917 1.403 . S
C915 C912 1.403 . S
C915 C916 1.524 . S
C915 C919 1.400 . S
C916 H901 0.960 . S
C916 H902 0.960 . S
C916 H903 0.960 . S
C916 C915 1.524 . S
C917 C914 1.403 . S
C917 C918 1.392 . S
C917 C921 1.495 . S
C918 C917 1.392 . S
C918 C919 1.385 . S
C918 C920 1.478 . S
C919 H913 0.930 . S
C919 C915 1.400 . S
C919 C918 1.385 . S
C920 C918 1.478 . S
C920 C922 1.381 . S
C920 C926 1.383 . S
C921 C917 1.495 . S
C921 H927 0.959 . S
C921 H928 0.961 . S
C921 H929 0.960 . S
C922 C920 1.381 . S
C922 C923 1.394 . S
C922 H930 0.930 . S
C923 C922 1.394 . S
C923 C924 1.383 . S
C923 H931 0.929 . S
C924 C923 1.383 . S
C924 C925 1.377 . S
C925 H909 0.930 . S
C925 C924 1.377 . S
C925 C926 1.379 . S
C926 H910 0.931 . S
C926 C920 1.383 . S
C926 C925 1.379 . S
H927 C921 0.959 . S
H928 C921 0.961 . S
H929 C921 0.960 . S
H930 C922 0.930 . S
H931 C923 0.929 . S
H932 C940 0.929 . S
H933 C942 0.930 . S
H934 C944 0.930 . S
H935 C947 0.929 . S
H936 C950 0.930 . S
H937 C952 0.960 . S
H938 C952 0.960 . S
H939 C952 0.960 . S
C940 H932 0.929 . S
C940 C941 1.377 . S
C940 C942 1.384 . S
C941 C940 1.377 . S
C941 C947 1.390 . S
C942 H933 0.930 . S
C942 C940 1.384 . S
C942 C943 1.372 . S
C943 C942 1.372 . S
C943 C944 1.400 . S
C943 C948 1.490 . S
C944 H934 0.930 . S
C944 C943 1.400 . S
C944 C947 1.386 . S
H945 C961 0.930 . S
H946 C962 0.931 . S
C947 H935 0.929 . S
C947 C941 1.390 . S
C947 C944 1.386 . S
C948 C943 1.490 . S
C948 C950 1.395 . S
C948 C951 1.403 . S
H949 C955 0.930 . S
C950 H936 0.930 . S
C950 C948 1.395 . S
C950 C953 1.403 . S
C951 C948 1.403 . S
C951 C952 1.524 . S
C951 C955 1.400 . S
C952 H937 0.960 . S
C952 H938 0.960 . S
C952 H939 0.960 . S
C952 C951 1.524 . S
C953 C950 1.403 . S
C953 C954 1.392 . S
C953 C957 1.495 . S
C954 C953 1.392 . S
C954 C955 1.385 . S
C954 C956 1.478 . S
C955 H949 0.930 . S
C955 C951 1.400 . S
C955 C954 1.385 . S
C956 C954 1.478 . S
C956 C958 1.381 . S
C956 C962 1.383 . S
C957 C953 1.495 . S
C957 H963 0.959 . S
C957 H964 0.961 . S
C957 H965 0.960 . S
C958 C956 1.381 . S
C958 C959 1.394 . S
C958 H966 0.930 . S
C959 C958 1.394 . S
C959 C960 1.383 . S
C959 H967 0.929 . S
C960 C959 1.383 . S
C960 C961 1.377 . S
C961 H945 0.930 . S
C961 C960 1.377 . S
C961 C962 1.379 . S
C962 H946 0.931 . S
C962 C956 1.383 . S
C962 C961 1.379 . S
H963 C957 0.959 . S
H964 C957 0.961 . S
H965 C957 0.960 . S
H966 C958 0.930 . S
H967 C959 0.929 . S
H968 C976 0.929 . S
H969 C978 0.930 . S
H970 C980 0.930 . S
H971 C983 0.929 . S
H972 C986 0.930 . S
H973 C988 0.960 . S
H974 C988 0.960 . S
H975 C988 0.960 . S
C976 H968 0.929 . S
C976 C977 1.377 . S
C976 C978 1.384 . S
C977 C976 1.377 . S
C977 C983 1.390 . S
C978 H969 0.930 . S
C978 C976 1.384 . S
C978 C979 1.372 . S
C979 C978 1.372 . S
C979 C980 1.400 . S
C979 C984 1.490 . S
C980 H970 0.930 . S
C980 C979 1.400 . S
C980 C983 1.386 . S
H981 C997 0.930 . S
H982 C998 0.931 . S
C983 H971 0.929 . S
C983 C977 1.390 . S
C983 C980 1.386 . S
C984 C979 1.490 . S
C984 C986 1.395 . S
C984 C987 1.403 . S
H985 C991 0.930 . S
C986 H972 0.930 . S
C986 C984 1.395 . S
C986 C989 1.403 . S
C987 C984 1.403 . S
C987 C988 1.524 . S
C987 C991 1.400 . S
C988 H973 0.960 . S
C988 H974 0.960 . S
C988 H975 0.960 . S
C988 C987 1.524 . S
C989 C986 1.403 . S
C989 C990 1.392 . S
C989 C993 1.495 . S
C990 C989 1.392 . S
C990 C991 1.385 . S
C990 C992 1.478 . S
C991 H985 0.930 . S
C991 C987 1.400 . S
C991 C990 1.385 . S
C992 C990 1.478 . S
C992 C994 1.381 . S
C992 C998 1.383 . S
C993 C989 1.495 . S
C993 H999 0.959 . S
C993 H1000 0.961 . S
C993 H1001 0.960 . S
C994 C992 1.381 . S
C994 C995 1.394 . S
C994 H1002 0.930 . S
C995 C994 1.394 . S
C995 C996 1.383 . S
C995 H1003 0.929 . S
C996 C995 1.383 . S
C996 C997 1.377 . S
C997 H981 0.930 . S
C997 C996 1.377 . S
C997 C998 1.379 . S
C998 H982 0.931 . S
C998 C992 1.383 . S
C998 C997 1.379 . S
H999 C993 0.959 . S
H1000 C993 0.961 . S
H1001 C993 0.960 . S
H1002 C994 0.930 . S
H1003 C995 0.929 . S
H1004 C1012 0.929 . S
H1005 C1014 0.930 . S
H1006 C1016 0.930 . S
H1007 C1019 0.929 . S
H1008 C1022 0.930 . S
H1009 C1024 0.960 . S
H1010 C1024 0.960 . S
H1011 C1024 0.960 . S
C1012 H1004 0.929 . S
C1012 C1013 1.377 . S
C1012 C1014 1.384 . S
C1013 C1012 1.377 . S
C1013 C1019 1.390 . S
C1014 H1005 0.930 . S
C1014 C1012 1.384 . S
C1014 C1015 1.372 . S
C1015 C1014 1.372 . S
C1015 C1016 1.400 . S
C1015 C1020 1.490 . S
C1016 H1006 0.930 . S
C1016 C1015 1.400 . S
C1016 C1019 1.386 . S
H1017 C1033 0.930 . S
H1018 C1034 0.931 . S
C1019 H1007 0.929 . S
C1019 C1013 1.390 . S
C1019 C1016 1.386 . S
C1020 C1015 1.490 . S
C1020 C1022 1.395 . S
C1020 C1023 1.403 . S
H1021 C1027 0.930 . S
C1022 H1008 0.930 . S
C1022 C1020 1.395 . S
C1022 C1025 1.403 . S
C1023 C1020 1.403 . S
C1023 C1024 1.524 . S
C1023 C1027 1.400 . S
C1024 H1009 0.960 . S
C1024 H1010 0.960 . S
C1024 H1011 0.960 . S
C1024 C1023 1.524 . S
C1025 C1022 1.403 . S
C1025 C1026 1.392 . S
C1025 C1029 1.495 . S
C1026 C1025 1.392 . S
C1026 C1027 1.385 . S
C1026 C1028 1.478 . S
C1027 H1021 0.930 . S
C1027 C1023 1.400 . S
C1027 C1026 1.385 . S
C1028 C1026 1.478 . S
C1028 C1030 1.381 . S
C1028 C1034 1.383 . S
C1029 C1025 1.495 . S
C1029 H1035 0.959 . S
C1029 H1036 0.961 . S
C1029 H1037 0.960 . S
C1030 C1028 1.381 . S
C1030 C1031 1.394 . S
C1030 H1038 0.930 . S
C1031 C1030 1.394 . S
C1031 C1032 1.383 . S
C1031 H1039 0.929 1_655 S
C1032 C1031 1.383 . S
C1032 C1033 1.377 . S
C1033 H1017 0.930 . S
C1033 C1032 1.377 . S
C1033 C1034 1.379 . S
C1034 H1018 0.931 . S
C1034 C1028 1.383 . S
C1034 C1033 1.379 . S
H1035 C1029 0.959 . S
H1036 C1029 0.961 . S
H1037 C1029 0.960 . S
H1038 C1030 0.930 . S
H1039 C1031 0.929 1_455 S
H1040 C1048 0.929 . S
H1041 C1050 0.930 . S
H1042 C1052 0.930 . S
H1043 C1055 0.929 . S
H1044 C1058 0.930 . S
H1045 C1060 0.960 . S
H1046 C1060 0.960 . S
H1047 C1060 0.960 . S
C1048 H1040 0.929 . S
C1048 C1049 1.377 . S
C1048 C1050 1.384 . S
C1049 C1048 1.377 . S
C1049 C1055 1.390 . S
C1050 H1041 0.930 . S
C1050 C1048 1.384 . S
C1050 C1051 1.372 . S
C1051 C1050 1.372 . S
C1051 C1052 1.400 . S
C1051 C1056 1.490 . S
C1052 H1042 0.930 . S
C1052 C1051 1.400 . S
C1052 C1055 1.386 . S
H1053 C1069 0.930 1_565 S
H1054 C1070 0.931 . S
C1055 H1043 0.929 . S
C1055 C1049 1.390 . S
C1055 C1052 1.386 . S
C1056 C1051 1.490 . S
C1056 C1058 1.395 . S
C1056 C1059 1.403 . S
H1057 C1063 0.930 . S
C1058 H1044 0.930 . S
C1058 C1056 1.395 . S
C1058 C1061 1.403 . S
C1059 C1056 1.403 . S
C1059 C1060 1.524 . S
C1059 C1063 1.400 . S
C1060 H1045 0.960 . S
C1060 H1046 0.960 . S
C1060 H1047 0.960 . S
C1060 C1059 1.524 . S
C1061 C1058 1.403 . S
C1061 C1062 1.392 . S
C1061 C1065 1.495 . S
C1062 C1061 1.392 . S
C1062 C1063 1.385 . S
C1062 C1064 1.478 . S
C1063 H1057 0.930 . S
C1063 C1059 1.400 . S
C1063 C1062 1.385 . S
C1064 C1062 1.478 . S
C1064 C1066 1.381 . S
C1064 C1070 1.383 . S
C1065 C1061 1.495 . S
C1065 H1071 0.959 . S
C1065 H1072 0.961 . S
C1065 H1073 0.960 . S
C1066 C1064 1.381 . S
C1066 C1067 1.394 . S
C1066 H1074 0.930 . S
C1067 C1066 1.394 . S
C1067 C1068 1.383 . S
C1067 H1075 0.929 . S
C1068 C1067 1.383 . S
C1068 C1069 1.377 . S
C1069 H1053 0.930 1_545 S
C1069 C1068 1.377 . S
C1069 C1070 1.379 . S
C1070 H1054 0.931 . S
C1070 C1064 1.383 . S
C1070 C1069 1.379 . S
H1071 C1065 0.959 . S
H1072 C1065 0.961 . S
H1073 C1065 0.960 . S
H1074 C1066 0.930 . S
H1075 C1067 0.929 . S
H1076 C1084 0.929 . S
H1077 C1086 0.930 . S
H1078 C1088 0.930 . S
H1079 C1091 0.929 . S
H1080 C1094 0.930 . S
H1081 C1096 0.960 . S
H1082 C1096 0.960 . S
H1083 C1096 0.960 . S
C1084 H1076 0.929 . S
C1084 C1085 1.377 . S
C1084 C1086 1.384 . S
C1085 C1084 1.377 . S
C1085 C1091 1.390 . S
C1086 H1077 0.930 . S
C1086 C1084 1.384 . S
C1086 C1087 1.372 . S
C1087 C1086 1.372 . S
C1087 C1088 1.400 . S
C1087 C1092 1.490 . S
C1088 H1078 0.930 . S
C1088 C1087 1.400 . S
C1088 C1091 1.386 . S
H1089 C1105 0.930 . S
H1090 C1106 0.931 . S
C1091 H1079 0.929 . S
C1091 C1085 1.390 . S
C1091 C1088 1.386 . S
C1092 C1087 1.490 . S
C1092 C1094 1.395 . S
C1092 C1095 1.403 . S
H1093 C1099 0.930 . S
C1094 H1080 0.930 . S
C1094 C1092 1.395 . S
C1094 C1097 1.403 . S
C1095 C1092 1.403 . S
C1095 C1096 1.524 . S
C1095 C1099 1.400 . S
C1096 H1081 0.960 . S
C1096 H1082 0.960 . S
C1096 H1083 0.960 . S
C1096 C1095 1.524 . S
C1097 C1094 1.403 . S
C1097 C1098 1.392 . S
C1097 C1101 1.495 . S
C1098 C1097 1.392 . S
C1098 C1099 1.385 . S
C1098 C1100 1.478 . S
C1099 H1093 0.930 . S
C1099 C1095 1.400 . S
C1099 C1098 1.385 . S
C1100 C1098 1.478 . S
C1100 C1102 1.381 . S
C1100 C1106 1.383 . S
C1101 C1097 1.495 . S
C1101 H1107 0.959 . S
C1101 H1108 0.961 . S
C1101 H1109 0.960 . S
C1102 C1100 1.381 . S
C1102 C1103 1.394 . S
C1102 H1110 0.930 . S
C1103 C1102 1.394 . S
C1103 C1104 1.383 . S
C1103 H1111 0.929 . S
C1104 C1103 1.383 . S
C1104 C1105 1.377 . S
C1105 H1089 0.930 . S
C1105 C1104 1.377 . S
C1105 C1106 1.379 . S
C1106 H1090 0.931 . S
C1106 C1100 1.383 . S
C1106 C1105 1.379 . S
H1107 C1101 0.959 . S
H1108 C1101 0.961 . S
H1109 C1101 0.960 . S
H1110 C1102 0.930 . S
H1111 C1103 0.929 . S
H1112 C1120 0.929 . S
H1113 C1122 0.930 . S
H1114 C1124 0.930 . S
H1115 C1127 0.929 . S
H1116 C1130 0.930 . S
H1117 C1132 0.960 . S
H1118 C1132 0.960 . S
H1119 C1132 0.960 . S
C1120 H1112 0.929 . S
C1120 C1121 1.377 . S
C1120 C1122 1.384 . S
C1121 C1120 1.377 . S
C1121 C1127 1.390 . S
C1122 H1113 0.930 . S
C1122 C1120 1.384 . S
C1122 C1123 1.372 . S
C1123 C1122 1.372 . S
C1123 C1124 1.400 . S
C1123 C1128 1.490 . S
C1124 H1114 0.930 . S
C1124 C1123 1.400 . S
C1124 C1127 1.386 . S
H1125 C1141 0.930 . S
H1126 C1142 0.931 . S
C1127 H1115 0.929 . S
C1127 C1121 1.390 . S
C1127 C1124 1.386 . S
C1128 C1123 1.490 . S
C1128 C1130 1.395 . S
C1128 C1131 1.403 . S
H1129 C1135 0.930 . S
C1130 H1116 0.930 . S
C1130 C1128 1.395 . S
C1130 C1133 1.403 . S
C1131 C1128 1.403 . S
C1131 C1132 1.524 . S
C1131 C1135 1.400 . S
C1132 H1117 0.960 . S
C1132 H1118 0.960 . S
C1132 H1119 0.960 . S
C1132 C1131 1.524 . S
C1133 C1130 1.403 . S
C1133 C1134 1.392 . S
C1133 C1137 1.495 . S
C1134 C1133 1.392 . S
C1134 C1135 1.385 . S
C1134 C1136 1.478 . S
C1135 H1129 0.930 . S
C1135 C1131 1.400 . S
C1135 C1134 1.385 . S
C1136 C1134 1.478 . S
C1136 C1138 1.381 . S
C1136 C1142 1.383 . S
C1137 C1133 1.495 . S
C1137 H1143 0.959 . S
C1137 H1144 0.961 . S
C1137 H1145 0.960 . S
C1138 C1136 1.381 . S
C1138 C1139 1.394 . S
C1138 H1146 0.930 . S
C1139 C1138 1.394 . S
C1139 C1140 1.383 . S
C1139 H1147 0.929 . S
C1140 C1139 1.383 . S
C1140 C1141 1.377 . S
C1141 H1125 0.930 . S
C1141 C1140 1.377 . S
C1141 C1142 1.379 . S
C1142 H1126 0.931 . S
C1142 C1136 1.383 . S
C1142 C1141 1.379 . S
H1143 C1137 0.959 . S
H1144 C1137 0.961 . S
H1145 C1137 0.960 . S
H1146 C1138 0.930 . S
H1147 C1139 0.929 . S
H1148 C1156 0.929 . S
H1149 C1158 0.930 . S
H1150 C1160 0.930 . S
H1151 C1163 0.929 . S
H1152 C1166 0.930 . S
H1153 C1168 0.960 . S
H1154 C1168 0.960 . S
H1155 C1168 0.960 . S
C1156 H1148 0.929 . S
C1156 C1157 1.377 . S
C1156 C1158 1.384 . S
C1157 C1156 1.377 . S
C1157 C1163 1.390 . S
C1158 H1149 0.930 . S
C1158 C1156 1.384 . S
C1158 C1159 1.372 . S
C1159 C1158 1.372 . S
C1159 C1160 1.400 . S
C1159 C1164 1.490 . S
C1160 H1150 0.930 . S
C1160 C1159 1.400 . S
C1160 C1163 1.386 . S
H1161 C1177 0.930 1_655 S
H1162 C1178 0.931 . S
C1163 H1151 0.929 . S
C1163 C1157 1.390 . S
C1163 C1160 1.386 . S
C1164 C1159 1.490 . S
C1164 C1166 1.395 . S
C1164 C1167 1.403 . S
H1165 C1171 0.930 . S
C1166 H1152 0.930 . S
C1166 C1164 1.395 . S
C1166 C1169 1.403 . S
C1167 C1164 1.403 . S
C1167 C1168 1.524 . S
C1167 C1171 1.400 . S
C1168 H1153 0.960 . S
C1168 H1154 0.960 . S
C1168 H1155 0.960 . S
C1168 C1167 1.524 . S
C1169 C1166 1.403 . S
C1169 C1170 1.392 . S
C1169 C1173 1.495 . S
C1170 C1169 1.392 . S
C1170 C1171 1.385 . S
C1170 C1172 1.478 . S
C1171 H1165 0.930 . S
C1171 C1167 1.400 . S
C1171 C1170 1.385 . S
C1172 C1170 1.478 . S
C1172 C1174 1.381 . S
C1172 C1178 1.383 . S
C1173 C1169 1.495 . S
C1173 H1179 0.959 . S
C1173 H1180 0.961 . S
C1173 H1181 0.960 . S
C1174 C1172 1.381 . S
C1174 C1175 1.394 . S
C1174 H1182 0.930 . S
C1175 C1174 1.394 . S
C1175 C1176 1.383 . S
C1175 H1183 0.929 . S
C1176 C1175 1.383 . S
C1176 C1177 1.377 . S
C1177 H1161 0.930 1_455 S
C1177 C1176 1.377 . S
C1177 C1178 1.379 . S
C1178 H1162 0.931 . S
C1178 C1172 1.383 . S
C1178 C1177 1.379 . S
H1179 C1173 0.959 . S
H1180 C1173 0.961 . S
H1181 C1173 0.960 . S
H1182 C1174 0.930 . S
H1183 C1175 0.929 . S
H1184 C1192 0.929 . S
H1185 C1194 0.930 . S
H1186 C1196 0.930 . S
H1187 C1199 0.929 . S
H1188 C1202 0.930 . S
H1189 C1204 0.960 . S
H1190 C1204 0.960 . S
H1191 C1204 0.960 . S
C1192 H1184 0.929 . S
C1192 C1193 1.377 . S
C1192 C1194 1.384 . S
C1193 C1192 1.377 . S
C1193 C1199 1.390 . S
C1194 H1185 0.930 . S
C1194 C1192 1.384 . S
C1194 C1195 1.372 . S
C1195 C1194 1.372 . S
C1195 C1196 1.400 . S
C1195 C1200 1.490 . S
C1196 H1186 0.930 . S
C1196 C1195 1.400 . S
C1196 C1199 1.386 . S
H1197 C1213 0.930 . S
H1198 C1214 0.931 . S
C1199 H1187 0.929 . S
C1199 C1193 1.390 . S
C1199 C1196 1.386 . S
C1200 C1195 1.490 . S
C1200 C1202 1.395 . S
C1200 C1203 1.403 . S
H1201 C1207 0.930 . S
C1202 H1188 0.930 . S
C1202 C1200 1.395 . S
C1202 C1205 1.403 . S
C1203 C1200 1.403 . S
C1203 C1204 1.524 . S
C1203 C1207 1.400 . S
C1204 H1189 0.960 . S
C1204 H1190 0.960 . S
C1204 H1191 0.960 . S
C1204 C1203 1.524 . S
C1205 C1202 1.403 . S
C1205 C1206 1.392 . S
C1205 C1209 1.495 . S
C1206 C1205 1.392 . S
C1206 C1207 1.385 . S
C1206 C1208 1.478 . S
C1207 H1201 0.930 . S
C1207 C1203 1.400 . S
C1207 C1206 1.385 . S
C1208 C1206 1.478 . S
C1208 C1210 1.381 . S
C1208 C1214 1.383 . S
C1209 C1205 1.495 . S
C1209 H1215 0.959 . S
C1209 H1216 0.961 . S
C1209 H1217 0.960 . S
C1210 C1208 1.381 . S
C1210 C1211 1.394 . S
C1210 H1218 0.930 . S
C1211 C1210 1.394 . S
C1211 C1212 1.383 . S
C1211 H1219 0.929 . S
C1212 C1211 1.383 . S
C1212 C1213 1.377 . S
C1213 H1197 0.930 . S
C1213 C1212 1.377 . S
C1213 C1214 1.379 . S
C1214 H1198 0.931 . S
C1214 C1208 1.383 . S
C1214 C1213 1.379 . S
H1215 C1209 0.959 . S
H1216 C1209 0.961 . S
H1217 C1209 0.960 . S
H1218 C1210 0.930 . S
H1219 C1211 0.929 . S
H1220 C1228 0.929 . S
H1221 C1230 0.930 . S
H1222 C1232 0.930 . S
H1223 C1235 0.929 . S
H1224 C1238 0.930 . S
H1225 C1240 0.960 . S
H1226 C1240 0.960 . S
H1227 C1240 0.960 . S
C1228 H1220 0.929 . S
C1228 C1229 1.377 . S
C1228 C1230 1.384 . S
C1229 C1228 1.377 . S
C1229 C1235 1.390 . S
C1230 H1221 0.930 . S
C1230 C1228 1.384 . S
C1230 C1231 1.372 . S
C1231 C1230 1.372 . S
C1231 C1232 1.400 . S
C1231 C1236 1.490 . S
C1232 H1222 0.930 . S
C1232 C1231 1.400 . S
C1232 C1235 1.386 . S
H1233 C1249 0.930 . S
H1234 C1250 0.931 . S
C1235 H1223 0.929 . S
C1235 C1229 1.390 . S
C1235 C1232 1.386 . S
C1236 C1231 1.490 . S
C1236 C1238 1.395 . S
C1236 C1239 1.403 . S
H1237 C1243 0.930 . S
C1238 H1224 0.930 . S
C1238 C1236 1.395 . S
C1238 C1241 1.403 . S
C1239 C1236 1.403 . S
C1239 C1240 1.524 . S
C1239 C1243 1.400 . S
C1240 H1225 0.960 . S
C1240 H1226 0.960 . S
C1240 H1227 0.960 . S
C1240 C1239 1.524 . S
C1241 C1238 1.403 . S
C1241 C1242 1.392 . S
C1241 C1245 1.495 . S
C1242 C1241 1.392 . S
C1242 C1243 1.385 . S
C1242 C1244 1.478 . S
C1243 H1237 0.930 . S
C1243 C1239 1.400 . S
C1243 C1242 1.385 . S
C1244 C1242 1.478 . S
C1244 C1246 1.381 . S
C1244 C1250 1.383 . S
C1245 C1241 1.495 . S
C1245 H1251 0.959 . S
C1245 H1252 0.961 . S
C1245 H1253 0.960 . S
C1246 C1244 1.381 . S
C1246 C1247 1.394 . S
C1246 H1254 0.930 . S
C1247 C1246 1.394 . S
C1247 C1248 1.383 . S
C1247 H1255 0.929 . S
C1248 C1247 1.383 . S
C1248 C1249 1.377 . S
C1249 H1233 0.930 . S
C1249 C1248 1.377 . S
C1249 C1250 1.379 . S
C1250 H1234 0.931 . S
C1250 C1244 1.383 . S
C1250 C1249 1.379 . S
H1251 C1245 0.959 . S
H1252 C1245 0.961 . S
H1253 C1245 0.960 . S
H1254 C1246 0.930 . S
H1255 C1247 0.929 . S
H1256 C1264 0.929 . S
H1257 C1266 0.930 . S
H1258 C1268 0.930 . S
H1259 C1271 0.929 . S
H1260 C1274 0.930 . S
H1261 C1276 0.960 . S
H1262 C1276 0.960 . S
H1263 C1276 0.960 . S
C1264 H1256 0.929 . S
C1264 C1265 1.377 . S
C1264 C1266 1.384 . S
C1265 C1264 1.377 . S
C1265 C1271 1.390 . S
C1266 H1257 0.930 . S
C1266 C1264 1.384 . S
C1266 C1267 1.372 . S
C1267 C1266 1.372 . S
C1267 C1268 1.400 . S
C1267 C1272 1.490 . S
C1268 H1258 0.930 . S
C1268 C1267 1.400 . S
C1268 C1271 1.386 . S
H1269 C1285 0.930 . S
H1270 C1286 0.931 . S
C1271 H1259 0.929 . S
C1271 C1265 1.390 . S
C1271 C1268 1.386 . S
C1272 C1267 1.490 . S
C1272 C1274 1.395 . S
C1272 C1275 1.403 . S
H1273 C1279 0.930 . S
C1274 H1260 0.930 . S
C1274 C1272 1.395 . S
C1274 C1277 1.403 . S
C1275 C1272 1.403 . S
C1275 C1276 1.524 . S
C1275 C1279 1.400 . S
C1276 H1261 0.960 . S
C1276 H1262 0.960 . S
C1276 H1263 0.960 . S
C1276 C1275 1.524 . S
C1277 C1274 1.403 . S
C1277 C1278 1.392 . S
C1277 C1281 1.495 . S
C1278 C1277 1.392 . S
C1278 C1279 1.385 . S
C1278 C1280 1.478 . S
C1279 H1273 0.930 . S
C1279 C1275 1.400 . S
C1279 C1278 1.385 . S
C1280 C1278 1.478 . S
C1280 C1282 1.381 . S
C1280 C1286 1.383 . S
C1281 C1277 1.495 . S
C1281 H1287 0.959 . S
C1281 H1288 0.961 . S
C1281 H1289 0.960 . S
C1282 C1280 1.381 . S
C1282 C1283 1.394 . S
C1282 H1290 0.930 . S
C1283 C1282 1.394 . S
C1283 C1284 1.383 . S
C1283 H1291 0.929 . S
C1284 C1283 1.383 . S
C1284 C1285 1.377 . S
C1285 H1269 0.930 . S
C1285 C1284 1.377 . S
C1285 C1286 1.379 . S
C1286 H1270 0.931 . S
C1286 C1280 1.383 . S
C1286 C1285 1.379 . S
H1287 C1281 0.959 . S
H1288 C1281 0.961 . S
H1289 C1281 0.960 . S
H1290 C1282 0.930 . S
H1291 C1283 0.929 . S
H1292 C1300 0.929 . S
H1293 C1302 0.930 . S
H1294 C1304 0.930 . S
H1295 C1307 0.929 . S
H1296 C1310 0.930 . S
H1297 C1312 0.960 . S
H1298 C1312 0.960 . S
H1299 C1312 0.960 . S
C1300 H1292 0.929 . S
C1300 C1301 1.377 . S
C1300 C1302 1.384 . S
C1301 C1300 1.377 . S
C1301 C1307 1.390 . S
C1302 H1293 0.930 . S
C1302 C1300 1.384 . S
C1302 C1303 1.372 . S
C1303 C1302 1.372 . S
C1303 C1304 1.400 . S
C1303 C1308 1.490 . S
C1304 H1294 0.930 . S
C1304 C1303 1.400 . S
C1304 C1307 1.386 . S
H1305 C1321 0.930 . S
H1306 C1322 0.931 . S
C1307 H1295 0.929 . S
C1307 C1301 1.390 . S
C1307 C1304 1.386 . S
C1308 C1303 1.490 . S
C1308 C1310 1.395 . S
C1308 C1311 1.403 . S
H1309 C1315 0.930 . S
C1310 H1296 0.930 . S
C1310 C1308 1.395 . S
C1310 C1313 1.403 . S
C1311 C1308 1.403 . S
C1311 C1312 1.524 . S
C1311 C1315 1.400 . S
C1312 H1297 0.960 . S
C1312 H1298 0.960 . S
C1312 H1299 0.960 . S
C1312 C1311 1.524 . S
C1313 C1310 1.403 . S
C1313 C1314 1.392 . S
C1313 C1317 1.495 . S
C1314 C1313 1.392 . S
C1314 C1315 1.385 . S
C1314 C1316 1.478 . S
C1315 H1309 0.930 . S
C1315 C1311 1.400 . S
C1315 C1314 1.385 . S
C1316 C1314 1.478 . S
C1316 C1318 1.381 . S
C1316 C1322 1.383 . S
C1317 C1313 1.495 . S
C1317 H1323 0.959 . S
C1317 H1324 0.961 . S
C1317 H1325 0.960 . S
C1318 C1316 1.381 . S
C1318 C1319 1.394 . S
C1318 H1326 0.930 . S
C1319 C1318 1.394 . S
C1319 C1320 1.383 . S
C1319 H1327 0.929 . S
C1320 C1319 1.383 . S
C1320 C1321 1.377 . S
C1321 H1305 0.930 . S
C1321 C1320 1.377 . S
C1321 C1322 1.379 . S
C1322 H1306 0.931 . S
C1322 C1316 1.383 . S
C1322 C1321 1.379 . S
H1323 C1317 0.959 . S
H1324 C1317 0.961 . S
H1325 C1317 0.960 . S
H1326 C1318 0.930 . S
H1327 C1319 0.929 . S
H1328 C1336 0.929 . S
H1329 C1338 0.930 . S
H1330 C1340 0.930 . S
H1331 C1343 0.929 . S
H1332 C1346 0.930 . S
H1333 C1348 0.960 . S
H1334 C1348 0.960 . S
H1335 C1348 0.960 . S
C1336 H1328 0.929 . S
C1336 C1337 1.377 . S
C1336 C1338 1.384 . S
C1337 C1336 1.377 . S
C1337 C1343 1.390 . S
C1338 H1329 0.930 . S
C1338 C1336 1.384 . S
C1338 C1339 1.372 . S
C1339 C1338 1.372 . S
C1339 C1340 1.400 . S
C1339 C1344 1.490 . S
C1340 H1330 0.930 . S
C1340 C1339 1.400 . S
C1340 C1343 1.386 . S
H1341 C1357 0.930 . S
H1342 C1358 0.931 . S
C1343 H1331 0.929 . S
C1343 C1337 1.390 . S
C1343 C1340 1.386 . S
C1344 C1339 1.490 . S
C1344 C1346 1.395 . S
C1344 C1347 1.403 . S
H1345 C1351 0.930 . S
C1346 H1332 0.930 . S
C1346 C1344 1.395 . S
C1346 C1349 1.403 . S
C1347 C1344 1.403 . S
C1347 C1348 1.524 . S
C1347 C1351 1.400 . S
C1348 H1333 0.960 . S
C1348 H1334 0.960 . S
C1348 H1335 0.960 . S
C1348 C1347 1.524 . S
C1349 C1346 1.403 . S
C1349 C1350 1.392 . S
C1349 C1353 1.495 . S
C1350 C1349 1.392 . S
C1350 C1351 1.385 . S
C1350 C1352 1.478 . S
C1351 H1345 0.930 . S
C1351 C1347 1.400 . S
C1351 C1350 1.385 . S
C1352 C1350 1.478 . S
C1352 C1354 1.381 . S
C1352 C1358 1.383 . S
C1353 C1349 1.495 . S
C1353 H1359 0.959 . S
C1353 H1360 0.961 . S
C1353 H1361 0.960 . S
C1354 C1352 1.381 . S
C1354 C1355 1.394 . S
C1354 H1362 0.930 . S
C1355 C1354 1.394 . S
C1355 C1356 1.383 . S
C1355 H1363 0.929 . S
C1356 C1355 1.383 . S
C1356 C1357 1.377 . S
C1357 H1341 0.930 . S
C1357 C1356 1.377 . S
C1357 C1358 1.379 . S
C1358 H1342 0.931 . S
C1358 C1352 1.383 . S
C1358 C1357 1.379 . S
H1359 C1353 0.959 . S
H1360 C1353 0.961 . S
H1361 C1353 0.960 . S
H1362 C1354 0.930 . S
H1363 C1355 0.929 . S
H1364 C1372 0.929 . S
H1365 C1374 0.930 . S
H1366 C1376 0.930 . S
H1367 C1379 0.929 . S
H1368 C1382 0.930 . S
H1369 C1384 0.960 . S
H1370 C1384 0.960 . S
H1371 C1384 0.960 . S
C1372 H1364 0.929 . S
C1372 C1373 1.377 . S
C1372 C1374 1.384 . S
C1373 C1372 1.377 . S
C1373 C1379 1.390 . S
C1374 H1365 0.930 . S
C1374 C1372 1.384 . S
C1374 C1375 1.372 . S
C1375 C1374 1.372 . S
C1375 C1376 1.400 . S
C1375 C1380 1.490 . S
C1376 H1366 0.930 . S
C1376 C1375 1.400 . S
C1376 C1379 1.386 . S
H1377 C1393 0.930 . S
H1378 C1394 0.931 . S
C1379 H1367 0.929 . S
C1379 C1373 1.390 . S
C1379 C1376 1.386 . S
C1380 C1375 1.490 . S
C1380 C1382 1.395 . S
C1380 C1383 1.403 . S
H1381 C1387 0.930 . S
C1382 H1368 0.930 . S
C1382 C1380 1.395 . S
C1382 C1385 1.403 . S
C1383 C1380 1.403 . S
C1383 C1384 1.524 . S
C1383 C1387 1.400 . S
C1384 H1369 0.960 . S
C1384 H1370 0.960 . S
C1384 H1371 0.960 . S
C1384 C1383 1.524 . S
C1385 C1382 1.403 . S
C1385 C1386 1.392 . S
C1385 C1389 1.495 . S
C1386 C1385 1.392 . S
C1386 C1387 1.385 . S
C1386 C1388 1.478 . S
C1387 H1381 0.930 . S
C1387 C1383 1.400 . S
C1387 C1386 1.385 . S
C1388 C1386 1.478 . S
C1388 C1390 1.381 . S
C1388 C1394 1.383 . S
C1389 C1385 1.495 . S
C1389 H1395 0.959 . S
C1389 H1396 0.961 . S
C1389 H1397 0.960 . S
C1390 C1388 1.381 . S
C1390 C1391 1.394 . S
C1390 H1398 0.930 . S
C1391 C1390 1.394 . S
C1391 C1392 1.383 . S
C1391 H1399 0.929 . S
C1392 C1391 1.383 . S
C1392 C1393 1.377 . S
C1393 H1377 0.930 . S
C1393 C1392 1.377 . S
C1393 C1394 1.379 . S
C1394 H1378 0.931 . S
C1394 C1388 1.383 . S
C1394 C1393 1.379 . S
H1395 C1389 0.959 . S
H1396 C1389 0.961 . S
H1397 C1389 0.960 . S
H1398 C1390 0.930 . S
H1399 C1391 0.929 . S
H1400 C1408 0.929 . S
H1401 C1410 0.930 . S
H1402 C1412 0.930 . S
H1403 C1415 0.929 . S
H1404 C1418 0.930 . S
H1405 C1420 0.960 . S
H1406 C1420 0.960 . S
H1407 C1420 0.960 . S
C1408 H1400 0.929 . S
C1408 C1409 1.377 . S
C1408 C1410 1.384 . S
C1409 C1408 1.377 . S
C1409 C1415 1.390 . S
C1410 H1401 0.930 . S
C1410 C1408 1.384 . S
C1410 C1411 1.372 . S
C1411 C1410 1.372 . S
C1411 C1412 1.400 . S
C1411 C1416 1.490 . S
C1412 H1402 0.930 . S
C1412 C1411 1.400 . S
C1412 C1415 1.386 . S
H1413 C1429 0.930 . S
H1414 C1430 0.931 . S
C1415 H1403 0.929 . S
C1415 C1409 1.390 . S
C1415 C1412 1.386 . S
C1416 C1411 1.490 . S
C1416 C1418 1.395 . S
C1416 C1419 1.403 . S
H1417 C1423 0.930 . S
C1418 H1404 0.930 . S
C1418 C1416 1.395 . S
C1418 C1421 1.403 . S
C1419 C1416 1.403 . S
C1419 C1420 1.524 . S
C1419 C1423 1.400 . S
C1420 H1405 0.960 . S
C1420 H1406 0.960 . S
C1420 H1407 0.960 . S
C1420 C1419 1.524 . S
C1421 C1418 1.403 . S
C1421 C1422 1.392 . S
C1421 C1425 1.495 . S
C1422 C1421 1.392 . S
C1422 C1423 1.385 . S
C1422 C1424 1.478 . S
C1423 H1417 0.930 . S
C1423 C1419 1.400 . S
C1423 C1422 1.385 . S
C1424 C1422 1.478 . S
C1424 C1426 1.381 . S
C1424 C1430 1.383 . S
C1425 C1421 1.495 . S
C1425 H1431 0.959 . S
C1425 H1432 0.961 . S
C1425 H1433 0.960 . S
C1426 C1424 1.381 . S
C1426 C1427 1.394 . S
C1426 H1434 0.930 . S
C1427 C1426 1.394 . S
C1427 C1428 1.383 . S
C1427 H1435 0.929 . S
C1428 C1427 1.383 . S
C1428 C1429 1.377 . S
C1429 H1413 0.930 . S
C1429 C1428 1.377 . S
C1429 C1430 1.379 . S
C1430 H1414 0.931 . S
C1430 C1424 1.383 . S
C1430 C1429 1.379 . S
H1431 C1425 0.959 . S
H1432 C1425 0.961 . S
H1433 C1425 0.960 . S
H1434 C1426 0.930 . S
H1435 C1427 0.929 . S
H1436 C1444 0.929 . S
H1437 C1446 0.930 . S
H1438 C1448 0.930 . S
H1439 C1451 0.929 . S
H1440 C1454 0.930 . S
H1441 C1456 0.960 . S
H1442 C1456 0.960 . S
H1443 C1456 0.960 . S
C1444 H1436 0.929 . S
C1444 C1445 1.377 . S
C1444 C1446 1.384 . S
C1445 C1444 1.377 . S
C1445 C1451 1.390 . S
C1446 H1437 0.930 . S
C1446 C1444 1.384 . S
C1446 C1447 1.372 . S
C1447 C1446 1.372 . S
C1447 C1448 1.400 . S
C1447 C1452 1.490 . S
C1448 H1438 0.930 . S
C1448 C1447 1.400 . S
C1448 C1451 1.386 . S
H1449 C1465 0.930 . S
H1450 C1466 0.931 . S
C1451 H1439 0.929 . S
C1451 C1445 1.390 . S
C1451 C1448 1.386 . S
C1452 C1447 1.490 . S
C1452 C1454 1.395 . S
C1452 C1455 1.403 . S
H1453 C1459 0.930 . S
C1454 H1440 0.930 . S
C1454 C1452 1.395 . S
C1454 C1457 1.403 . S
C1455 C1452 1.403 . S
C1455 C1456 1.524 . S
C1455 C1459 1.400 . S
C1456 H1441 0.960 . S
C1456 H1442 0.960 . S
C1456 H1443 0.960 . S
C1456 C1455 1.524 . S
C1457 C1454 1.403 . S
C1457 C1458 1.392 . S
C1457 C1461 1.495 . S
C1458 C1457 1.392 . S
C1458 C1459 1.385 . S
C1458 C1460 1.478 . S
C1459 H1453 0.930 . S
C1459 C1455 1.400 . S
C1459 C1458 1.385 . S
C1460 C1458 1.478 . S
C1460 C1462 1.381 . S
C1460 C1466 1.383 . S
C1461 C1457 1.495 . S
C1461 H1467 0.959 . S
C1461 H1468 0.961 . S
C1461 H1469 0.960 . S
C1462 C1460 1.381 . S
C1462 C1463 1.394 . S
C1462 H1470 0.930 . S
C1463 C1462 1.394 . S
C1463 C1464 1.383 . S
C1463 H1471 0.929 . S
C1464 C1463 1.383 . S
C1464 C1465 1.377 . S
C1465 H1449 0.930 . S
C1465 C1464 1.377 . S
C1465 C1466 1.379 . S
C1466 H1450 0.931 . S
C1466 C1460 1.383 . S
C1466 C1465 1.379 . S
H1467 C1461 0.959 . S
H1468 C1461 0.961 . S
H1469 C1461 0.960 . S
H1470 C1462 0.930 . S
H1471 C1463 0.929 . S
H1472 C1480 0.929 . S
H1473 C1482 0.930 . S
H1474 C1484 0.930 . S
H1475 C1487 0.929 . S
H1476 C1490 0.930 . S
H1477 C1492 0.960 . S
H1478 C1492 0.960 . S
H1479 C1492 0.960 . S
C1480 H1472 0.929 . S
C1480 C1481 1.377 . S
C1480 C1482 1.384 . S
C1481 C1480 1.377 . S
C1481 C1487 1.390 . S
C1482 H1473 0.930 . S
C1482 C1480 1.384 . S
C1482 C1483 1.372 . S
C1483 C1482 1.372 . S
C1483 C1484 1.400 . S
C1483 C1488 1.490 . S
C1484 H1474 0.930 . S
C1484 C1483 1.400 . S
C1484 C1487 1.386 . S
H1485 C1501 0.930 . S
H1486 C1502 0.931 . S
C1487 H1475 0.929 . S
C1487 C1481 1.390 . S
C1487 C1484 1.386 . S
C1488 C1483 1.490 . S
C1488 C1490 1.395 . S
C1488 C1491 1.403 . S
H1489 C1495 0.930 . S
C1490 H1476 0.930 . S
C1490 C1488 1.395 . S
C1490 C1493 1.403 . S
C1491 C1488 1.403 . S
C1491 C1492 1.524 . S
C1491 C1495 1.400 . S
C1492 H1477 0.960 . S
C1492 H1478 0.960 . S
C1492 H1479 0.960 . S
C1492 C1491 1.524 . S
C1493 C1490 1.403 . S
C1493 C1494 1.392 . S
C1493 C1497 1.495 . S
C1494 C1493 1.392 . S
C1494 C1495 1.385 . S
C1494 C1496 1.478 . S
C1495 H1489 0.930 . S
C1495 C1491 1.400 . S
C1495 C1494 1.385 . S
C1496 C1494 1.478 . S
C1496 C1498 1.381 . S
C1496 C1502 1.383 . S
C1497 C1493 1.495 . S
C1497 H1503 0.959 . S
C1497 H1504 0.961 . S
C1497 H1505 0.960 . S
C1498 C1496 1.381 . S
C1498 C1499 1.394 . S
C1498 H1506 0.930 . S
C1499 C1498 1.394 . S
C1499 C1500 1.383 . S
C1499 H1507 0.929 . S
C1500 C1499 1.383 . S
C1500 C1501 1.377 . S
C1501 H1485 0.930 . S
C1501 C1500 1.377 . S
C1501 C1502 1.379 . S
C1502 H1486 0.931 . S
C1502 C1496 1.383 . S
C1502 C1501 1.379 . S
H1503 C1497 0.959 . S
H1504 C1497 0.961 . S
H1505 C1497 0.960 . S
H1506 C1498 0.930 . S
H1507 C1499 0.929 . S
H1508 C1516 0.929 . S
H1509 C1518 0.930 . S
H1510 C1520 0.930 . S
H1511 C1523 0.929 . S
H1512 C1526 0.930 . S
H1513 C1528 0.960 . S
H1514 C1528 0.960 . S
H1515 C1528 0.960 . S
C1516 H1508 0.929 . S
C1516 C1517 1.377 . S
C1516 C1518 1.384 . S
C1517 C1516 1.377 . S
C1517 C1523 1.390 . S
C1518 H1509 0.930 . S
C1518 C1516 1.384 . S
C1518 C1519 1.372 . S
C1519 C1518 1.372 . S
C1519 C1520 1.400 . S
C1519 C1524 1.490 . S
C1520 H1510 0.930 . S
C1520 C1519 1.400 . S
C1520 C1523 1.386 . S
H1521 C1537 0.930 . S
H1522 C1538 0.931 . S
C1523 H1511 0.929 . S
C1523 C1517 1.390 . S
C1523 C1520 1.386 . S
C1524 C1519 1.490 . S
C1524 C1526 1.395 . S
C1524 C1527 1.403 . S
H1525 C1531 0.930 . S
C1526 H1512 0.930 . S
C1526 C1524 1.395 . S
C1526 C1529 1.403 . S
C1527 C1524 1.403 . S
C1527 C1528 1.524 . S
C1527 C1531 1.400 . S
C1528 H1513 0.960 . S
C1528 H1514 0.960 . S
C1528 H1515 0.960 . S
C1528 C1527 1.524 . S
C1529 C1526 1.403 . S
C1529 C1530 1.392 . S
C1529 C1533 1.495 . S
C1530 C1529 1.392 . S
C1530 C1531 1.385 . S
C1530 C1532 1.478 . S
C1531 H1525 0.930 . S
C1531 C1527 1.400 . S
C1531 C1530 1.385 . S
C1532 C1530 1.478 . S
C1532 C1534 1.381 . S
C1532 C1538 1.383 . S
C1533 C1529 1.495 . S
C1533 H1539 0.959 . S
C1533 H1540 0.961 . S
C1533 H1541 0.960 . S
C1534 C1532 1.381 . S
C1534 C1535 1.394 . S
C1534 H1542 0.930 . S
C1535 C1534 1.394 . S
C1535 C1536 1.383 . S
C1535 H1543 0.929 . S
C1536 C1535 1.383 . S
C1536 C1537 1.377 . S
C1537 H1521 0.930 . S
C1537 C1536 1.377 . S
C1537 C1538 1.379 . S
C1538 H1522 0.931 . S
C1538 C1532 1.383 . S
C1538 C1537 1.379 . S
H1539 C1533 0.959 . S
H1540 C1533 0.961 . S
H1541 C1533 0.960 . S
H1542 C1534 0.930 . S
H1543 C1535 0.929 . S
H1544 C1552 0.929 . S
H1545 C1554 0.930 . S
H1546 C1556 0.930 . S
H1547 C1559 0.929 . S
H1548 C1562 0.930 . S
H1549 C1564 0.960 . S
H1550 C1564 0.960 . S
H1551 C1564 0.960 . S
C1552 H1544 0.929 . S
C1552 C1553 1.377 . S
C1552 C1554 1.384 . S
C1553 C1552 1.377 . S
C1553 C1559 1.390 . S
C1554 H1545 0.930 . S
C1554 C1552 1.384 . S
C1554 C1555 1.372 . S
C1555 C1554 1.372 . S
C1555 C1556 1.400 . S
C1555 C1560 1.490 . S
C1556 H1546 0.930 . S
C1556 C1555 1.400 . S
C1556 C1559 1.386 . S
H1557 C1573 0.930 . S
H1558 C1574 0.931 . S
C1559 H1547 0.929 . S
C1559 C1553 1.390 . S
C1559 C1556 1.386 . S
C1560 C1555 1.490 . S
C1560 C1562 1.395 . S
C1560 C1563 1.403 . S
H1561 C1567 0.930 . S
C1562 H1548 0.930 . S
C1562 C1560 1.395 . S
C1562 C1565 1.403 . S
C1563 C1560 1.403 . S
C1563 C1564 1.524 . S
C1563 C1567 1.400 . S
C1564 H1549 0.960 . S
C1564 H1550 0.960 . S
C1564 H1551 0.960 . S
C1564 C1563 1.524 . S
C1565 C1562 1.403 . S
C1565 C1566 1.392 . S
C1565 C1569 1.495 . S
C1566 C1565 1.392 . S
C1566 C1567 1.385 . S
C1566 C1568 1.478 . S
C1567 H1561 0.930 . S
C1567 C1563 1.400 . S
C1567 C1566 1.385 . S
C1568 C1566 1.478 . S
C1568 C1570 1.381 . S
C1568 C1574 1.383 . S
C1569 C1565 1.495 . S
C1569 H1575 0.959 . S
C1569 H1576 0.961 . S
C1569 H1577 0.960 . S
C1570 C1568 1.381 . S
C1570 C1571 1.394 . S
C1570 H1578 0.930 . S
C1571 C1570 1.394 . S
C1571 C1572 1.383 . S
C1571 H1579 0.929 . S
C1572 C1571 1.383 . S
C1572 C1573 1.377 . S
C1573 H1557 0.930 . S
C1573 C1572 1.377 . S
C1573 C1574 1.379 . S
C1574 H1558 0.931 . S
C1574 C1568 1.383 . S
C1574 C1573 1.379 . S
H1575 C1569 0.959 . S
H1576 C1569 0.961 . S
H1577 C1569 0.960 . S
H1578 C1570 0.930 . S
H1579 C1571 0.929 . S
H1580 C1588 0.929 . S
H1581 C1590 0.930 . S
H1582 C1592 0.930 . S
H1583 C1595 0.929 . S
H1584 C1598 0.930 . S
H1585 C1600 0.960 . S
H1586 C1600 0.960 . S
H1587 C1600 0.960 . S
C1588 H1580 0.929 . S
C1588 C1589 1.377 . S
C1588 C1590 1.384 . S
C1589 C1588 1.377 . S
C1589 C1595 1.390 . S
C1590 H1581 0.930 . S
C1590 C1588 1.384 . S
C1590 C1591 1.372 . S
C1591 C1590 1.372 . S
C1591 C1592 1.400 . S
C1591 C1596 1.490 . S
C1592 H1582 0.930 . S
C1592 C1591 1.400 . S
C1592 C1595 1.386 . S
H1593 C1609 0.930 . S
H1594 C1610 0.931 . S
C1595 H1583 0.929 . S
C1595 C1589 1.390 . S
C1595 C1592 1.386 . S
C1596 C1591 1.490 . S
C1596 C1598 1.395 . S
C1596 C1599 1.403 . S
H1597 C1603 0.930 . S
C1598 H1584 0.930 . S
C1598 C1596 1.395 . S
C1598 C1601 1.403 . S
C1599 C1596 1.403 . S
C1599 C1600 1.524 . S
C1599 C1603 1.400 . S
C1600 H1585 0.960 . S
C1600 H1586 0.960 . S
C1600 H1587 0.960 . S
C1600 C1599 1.524 . S
C1601 C1598 1.403 . S
C1601 C1602 1.392 . S
C1601 C1605 1.495 . S
C1602 C1601 1.392 . S
C1602 C1603 1.385 . S
C1602 C1604 1.478 . S
C1603 H1597 0.930 . S
C1603 C1599 1.400 . S
C1603 C1602 1.385 . S
C1604 C1602 1.478 . S
C1604 C1606 1.381 . S
C1604 C1610 1.383 . S
C1605 C1601 1.495 . S
C1605 H1611 0.959 . S
C1605 H1612 0.961 . S
C1605 H1613 0.960 . S
C1606 C1604 1.381 . S
C1606 C1607 1.394 . S
C1606 H1614 0.930 . S
C1607 C1606 1.394 . S
C1607 C1608 1.383 . S
C1607 H1615 0.929 . S
C1608 C1607 1.383 . S
C1608 C1609 1.377 . S
C1609 H1593 0.930 . S
C1609 C1608 1.377 . S
C1609 C1610 1.379 . S
C1610 H1594 0.931 . S
C1610 C1604 1.383 . S
C1610 C1609 1.379 . S
H1611 C1605 0.959 . S
H1612 C1605 0.961 . S
H1613 C1605 0.960 . S
H1614 C1606 0.930 . S
H1615 C1607 0.929 . S
H1616 C1624 0.929 . S
H1617 C1626 0.930 . S
H1618 C1628 0.930 . S
H1619 C1631 0.929 . S
H1620 C1634 0.930 . S
H1621 C1636 0.960 . S
H1622 C1636 0.960 . S
H1623 C1636 0.960 . S
C1624 H1616 0.929 . S
C1624 C1625 1.377 . S
C1624 C1626 1.384 . S
C1625 C1624 1.377 . S
C1625 C1631 1.390 . S
C1626 H1617 0.930 . S
C1626 C1624 1.384 . S
C1626 C1627 1.372 . S
C1627 C1626 1.372 . S
C1627 C1628 1.400 . S
C1627 C1632 1.490 . S
C1628 H1618 0.930 . S
C1628 C1627 1.400 . S
C1628 C1631 1.386 . S
H1629 C1645 0.930 . S
H1630 C1646 0.931 . S
C1631 H1619 0.929 . S
C1631 C1625 1.390 . S
C1631 C1628 1.386 . S
C1632 C1627 1.490 . S
C1632 C1634 1.395 . S
C1632 C1635 1.403 1_556 S
H1633 C1639 0.930 . S
C1634 H1620 0.930 . S
C1634 C1632 1.395 . S
C1634 C1637 1.403 . S
C1635 C1632 1.403 1_554 S
C1635 C1636 1.524 . S
C1635 C1639 1.400 . S
C1636 H1621 0.960 . S
C1636 H1622 0.960 . S
C1636 H1623 0.960 . S
C1636 C1635 1.524 . S
C1637 C1634 1.403 . S
C1637 C1638 1.392 1_556 S
C1637 C1641 1.495 . S
C1638 C1637 1.392 1_554 S
C1638 C1639 1.385 . S
C1638 C1640 1.478 . S
C1639 H1633 0.930 . S
C1639 C1635 1.400 . S
C1639 C1638 1.385 . S
C1640 C1638 1.478 . S
C1640 C1642 1.381 . S
C1640 C1646 1.383 . S
C1641 C1637 1.495 . S
C1641 H1647 0.959 . S
C1641 H1648 0.961 . S
C1641 H1649 0.960 . S
C1642 C1640 1.381 . S
C1642 C1643 1.394 . S
C1642 H1650 0.930 . S
C1643 C1642 1.394 . S
C1643 C1644 1.383 . S
C1643 H1651 0.929 . S
C1644 C1643 1.383 . S
C1644 C1645 1.377 . S
C1645 H1629 0.930 . S
C1645 C1644 1.377 . S
C1645 C1646 1.379 . S
C1646 H1630 0.931 . S
C1646 C1640 1.383 . S
C1646 C1645 1.379 . S
H1647 C1641 0.959 . S
H1648 C1641 0.961 . S
H1649 C1641 0.960 . S
H1650 C1642 0.930 . S
H1651 C1643 0.929 . S
H1652 C1660 0.929 . S
H1653 C1662 0.930 . S
H1654 C1664 0.930 . S
H1655 C1667 0.929 . S
H1656 C1670 0.930 . S
H1657 C1672 0.960 . S
H1658 C1672 0.960 . S
H1659 C1672 0.960 . S
C1660 H1652 0.929 . S
C1660 C1661 1.377 . S
C1660 C1662 1.384 . S
C1661 C1660 1.377 . S
C1661 C1667 1.390 . S
C1662 H1653 0.930 . S
C1662 C1660 1.384 . S
C1662 C1663 1.372 . S
C1663 C1662 1.372 . S
C1663 C1664 1.400 . S
C1663 C1668 1.490 . S
C1664 H1654 0.930 . S
C1664 C1663 1.400 . S
C1664 C1667 1.386 . S
H1665 C1681 0.930 . S
H1666 C1682 0.931 . S
C1667 H1655 0.929 . S
C1667 C1661 1.390 . S
C1667 C1664 1.386 . S
C1668 C1663 1.490 . S
C1668 C1670 1.395 . S
C1668 C1671 1.403 1_554 S
H1669 C1675 0.930 . S
C1670 H1656 0.930 . S
C1670 C1668 1.395 . S
C1670 C1673 1.403 . S
C1671 C1668 1.403 1_556 S
C1671 C1672 1.524 . S
C1671 C1675 1.400 . S
C1672 H1657 0.960 . S
C1672 H1658 0.960 . S
C1672 H1659 0.960 . S
C1672 C1671 1.524 . S
C1673 C1670 1.403 . S
C1673 C1674 1.392 1_554 S
C1673 C1677 1.495 . S
C1674 C1673 1.392 1_556 S
C1674 C1675 1.385 . S
C1674 C1676 1.478 . S
C1675 H1669 0.930 . S
C1675 C1671 1.400 . S
C1675 C1674 1.385 . S
C1676 C1674 1.478 . S
C1676 C1678 1.381 . S
C1676 C1682 1.383 . S
C1677 C1673 1.495 . S
C1677 H1683 0.959 . S
C1677 H1684 0.961 . S
C1677 H1685 0.960 . S
C1678 C1676 1.381 . S
C1678 C1679 1.394 . S
C1678 H1686 0.930 . S
C1679 C1678 1.394 . S
C1679 C1680 1.383 . S
C1679 H1687 0.929 . S
C1680 C1679 1.383 . S
C1680 C1681 1.377 . S
C1681 H1665 0.930 . S
C1681 C1680 1.377 . S
C1681 C1682 1.379 . S
C1682 H1666 0.931 . S
C1682 C1676 1.383 . S
C1682 C1681 1.379 . S
H1683 C1677 0.959 . S
H1684 C1677 0.961 . S
H1685 C1677 0.960 . S
H1686 C1678 0.930 . S
H1687 C1679 0.929 . S
H1688 C1696 0.929 . S
H1689 C1698 0.930 . S
H1690 C1700 0.930 . S
H1691 C1703 0.929 . S
H1692 C1706 0.930 . S
H1693 C1708 0.960 . S
H1694 C1708 0.960 . S
H1695 C1708 0.960 1_556 S
C1696 H1688 0.929 . S
C1696 C1697 1.377 . S
C1696 C1698 1.384 . S
C1697 C1696 1.377 . S
C1697 C1703 1.390 . S
C1698 H1689 0.930 . S
C1698 C1696 1.384 . S
C1698 C1699 1.372 . S
C1699 C1698 1.372 . S
C1699 C1700 1.400 . S
C1699 C1704 1.490 . S
C1700 H1690 0.930 . S
C1700 C1699 1.400 . S
C1700 C1703 1.386 . S
H1701 C1717 0.930 . S
H1702 C1718 0.931 . S
C1703 H1691 0.929 . S
C1703 C1697 1.390 . S
C1703 C1700 1.386 . S
C1704 C1699 1.490 . S
C1704 C1706 1.395 . S
C1704 C1707 1.403 1_556 S
H1705 C1711 0.930 . S
C1706 H1692 0.930 . S
C1706 C1704 1.395 . S
C1706 C1709 1.403 1_556 S
C1707 C1704 1.403 1_554 S
C1707 C1708 1.524 . S
C1707 C1711 1.400 . S
C1708 H1693 0.960 . S
C1708 H1694 0.960 . S
C1708 H1695 0.960 1_554 S
C1708 C1707 1.524 . S
C1709 C1706 1.403 1_554 S
C1709 C1710 1.392 . S
C1709 C1713 1.495 . S
C1710 C1709 1.392 . S
C1710 C1711 1.385 . S
C1710 C1712 1.478 . S
C1711 H1705 0.930 . S
C1711 C1707 1.400 . S
C1711 C1710 1.385 . S
C1712 C1710 1.478 . S
C1712 C1714 1.381 . S
C1712 C1718 1.383 . S
C1713 C1709 1.495 . S
C1713 H1719 0.959 1_554 S
C1713 H1720 0.961 . S
C1713 H1721 0.960 . S
C1714 C1712 1.381 . S
C1714 C1715 1.394 . S
C1714 H1722 0.930 . S
C1715 C1714 1.394 . S
C1715 C1716 1.383 . S
C1715 H1723 0.929 . S
C1716 C1715 1.383 . S
C1716 C1717 1.377 . S
C1717 H1701 0.930 . S
C1717 C1716 1.377 . S
C1717 C1718 1.379 . S
C1718 H1702 0.931 . S
C1718 C1712 1.383 . S
C1718 C1717 1.379 . S
H1719 C1713 0.959 1_556 S
H1720 C1713 0.961 . S
H1721 C1713 0.960 . S
H1722 C1714 0.930 . S
H1723 C1715 0.929 . S
H1724 C1732 0.929 . S
H1725 C1734 0.930 . S
H1726 C1736 0.930 . S
H1727 C1739 0.929 . S
H1728 C1742 0.930 . S
H1729 C1744 0.960 . S
H1730 C1744 0.960 . S
H1731 C1744 0.960 . S
C1732 H1724 0.929 . S
C1732 C1733 1.377 . S
C1732 C1734 1.384 . S
C1733 C1732 1.377 . S
C1733 C1739 1.390 . S
C1734 H1725 0.930 . S
C1734 C1732 1.384 . S
C1734 C1735 1.372 . S
C1735 C1734 1.372 . S
C1735 C1736 1.400 . S
C1735 C1740 1.490 . S
C1736 H1726 0.930 . S
C1736 C1735 1.400 . S
C1736 C1739 1.386 . S
H1737 C1753 0.930 . S
H1738 C1754 0.931 . S
C1739 H1727 0.929 . S
C1739 C1733 1.390 . S
C1739 C1736 1.386 . S
C1740 C1735 1.490 . S
C1740 C1742 1.395 . S
C1740 C1743 1.403 . S
H1741 C1747 0.930 1_556 S
C1742 H1728 0.930 . S
C1742 C1740 1.395 . S
C1742 C1745 1.403 1_554 S
C1743 C1740 1.403 . S
C1743 C1744 1.524 . S
C1743 C1747 1.400 . S
C1744 H1729 0.960 . S
C1744 H1730 0.960 . S
C1744 H1731 0.960 . S
C1744 C1743 1.524 . S
C1745 C1742 1.403 1_556 S
C1745 C1746 1.392 . S
C1745 C1749 1.495 . S
C1746 C1745 1.392 . S
C1746 C1747 1.385 1_556 S
C1746 C1748 1.478 . S
C1747 H1741 0.930 1_554 S
C1747 C1743 1.400 . S
C1747 C1746 1.385 1_554 S
C1748 C1746 1.478 . S
C1748 C1750 1.381 . S
C1748 C1754 1.383 . S
C1749 C1745 1.495 . S
C1749 H1755 0.959 . S
C1749 H1756 0.961 . S
C1749 H1757 0.960 . S
C1750 C1748 1.381 . S
C1750 C1751 1.394 . S
C1750 H1758 0.930 . S
C1751 C1750 1.394 . S
C1751 C1752 1.383 . S
C1751 H1759 0.929 . S
C1752 C1751 1.383 . S
C1752 C1753 1.377 . S
C1753 H1737 0.930 . S
C1753 C1752 1.377 . S
C1753 C1754 1.379 . S
C1754 H1738 0.931 . S
C1754 C1748 1.383 . S
C1754 C1753 1.379 . S
H1755 C1749 0.959 . S
H1756 C1749 0.961 . S
H1757 C1749 0.960 . S
H1758 C1750 0.930 . S
H1759 C1751 0.929 . S
H1760 C1768 0.929 . S
H1761 C1770 0.930 . S
H1762 C1772 0.930 . S
H1763 C1775 0.929 . S
H1764 C1778 0.930 . S
H1765 C1780 0.960 . S
H1766 C1780 0.960 . S
H1767 C1780 0.960 . S
C1768 H1760 0.929 . S
C1768 C1769 1.377 . S
C1768 C1770 1.384 . S
C1769 C1768 1.377 . S
C1769 C1775 1.390 . S
C1770 H1761 0.930 . S
C1770 C1768 1.384 . S
C1770 C1771 1.372 . S
C1771 C1770 1.372 . S
C1771 C1772 1.400 . S
C1771 C1776 1.490 . S
C1772 H1762 0.930 . S
C1772 C1771 1.400 . S
C1772 C1775 1.386 . S
H1773 C1789 0.930 . S
H1774 C1790 0.931 . S
C1775 H1763 0.929 . S
C1775 C1769 1.390 . S
C1775 C1772 1.386 . S
C1776 C1771 1.490 . S
C1776 C1778 1.395 . S
C1776 C1779 1.403 . S
H1777 C1783 0.930 . S
C1778 H1764 0.930 . S
C1778 C1776 1.395 . S
C1778 C1781 1.403 . S
C1779 C1776 1.403 . S
C1779 C1780 1.524 . S
C1779 C1783 1.400 . S
C1780 H1765 0.960 . S
C1780 H1766 0.960 . S
C1780 H1767 0.960 . S
C1780 C1779 1.524 . S
C1781 C1778 1.403 . S
C1781 C1782 1.392 . S
C1781 C1785 1.495 . S
C1782 C1781 1.392 . S
C1782 C1783 1.385 . S
C1782 C1784 1.478 . S
C1783 H1777 0.930 . S
C1783 C1779 1.400 . S
C1783 C1782 1.385 . S
C1784 C1782 1.478 . S
C1784 C1786 1.381 . S
C1784 C1790 1.383 . S
C1785 C1781 1.495 . S
C1785 H1791 0.959 . S
C1785 H1792 0.961 . S
C1785 H1793 0.960 . S
C1786 C1784 1.381 . S
C1786 C1787 1.394 . S
C1786 H1794 0.930 . S
C1787 C1786 1.394 . S
C1787 C1788 1.383 . S
C1787 H1795 0.929 . S
C1788 C1787 1.383 . S
C1788 C1789 1.377 . S
C1789 H1773 0.930 . S
C1789 C1788 1.377 . S
C1789 C1790 1.379 . S
C1790 H1774 0.931 . S
C1790 C1784 1.383 . S
C1790 C1789 1.379 . S
H1791 C1785 0.959 . S
H1792 C1785 0.961 . S
H1793 C1785 0.960 . S
H1794 C1786 0.930 . S
H1795 C1787 0.929 . S
H1796 C1804 0.929 . S
H1797 C1806 0.930 . S
H1798 C1808 0.930 . S
H1799 C1811 0.929 . S
H1800 C1814 0.930 . S
H1801 C1816 0.960 . S
H1802 C1816 0.960 . S
H1803 C1816 0.960 . S
C1804 H1796 0.929 . S
C1804 C1805 1.377 . S
C1804 C1806 1.384 . S
C1805 C1804 1.377 . S
C1805 C1811 1.390 . S
C1806 H1797 0.930 . S
C1806 C1804 1.384 . S
C1806 C1807 1.372 . S
C1807 C1806 1.372 . S
C1807 C1808 1.400 . S
C1807 C1812 1.490 . S
C1808 H1798 0.930 . S
C1808 C1807 1.400 . S
C1808 C1811 1.386 . S
H1809 C1825 0.930 . S
H1810 C1826 0.931 . S
C1811 H1799 0.929 . S
C1811 C1805 1.390 . S
C1811 C1808 1.386 . S
C1812 C1807 1.490 . S
C1812 C1814 1.395 . S
C1812 C1815 1.403 . S
H1813 C1819 0.930 . S
C1814 H1800 0.930 . S
C1814 C1812 1.395 . S
C1814 C1817 1.403 . S
C1815 C1812 1.403 . S
C1815 C1816 1.524 . S
C1815 C1819 1.400 . S
C1816 H1801 0.960 . S
C1816 H1802 0.960 . S
C1816 H1803 0.960 . S
C1816 C1815 1.524 . S
C1817 C1814 1.403 . S
C1817 C1818 1.392 . S
C1817 C1821 1.495 . S
C1818 C1817 1.392 . S
C1818 C1819 1.385 . S
C1818 C1820 1.478 . S
C1819 H1813 0.930 . S
C1819 C1815 1.400 . S
C1819 C1818 1.385 . S
C1820 C1818 1.478 . S
C1820 C1822 1.381 . S
C1820 C1826 1.383 . S
C1821 C1817 1.495 . S
C1821 H1827 0.959 . S
C1821 H1828 0.961 . S
C1821 H1829 0.960 . S
C1822 C1820 1.381 . S
C1822 C1823 1.394 . S
C1822 H1830 0.930 . S
C1823 C1822 1.394 . S
C1823 C1824 1.383 . S
C1823 H1831 0.929 . S
C1824 C1823 1.383 . S
C1824 C1825 1.377 . S
C1825 H1809 0.930 . S
C1825 C1824 1.377 . S
C1825 C1826 1.379 . S
C1826 H1810 0.931 . S
C1826 C1820 1.383 . S
C1826 C1825 1.379 . S
H1827 C1821 0.959 . S
H1828 C1821 0.961 . S
H1829 C1821 0.960 . S
H1830 C1822 0.930 . S
H1831 C1823 0.929 . S
H1832 C1840 0.929 . S
H1833 C1842 0.930 . S
H1834 C1844 0.930 . S
H1835 C1847 0.929 . S
H1836 C1850 0.930 . S
H1837 C1852 0.960 . S
H1838 C1852 0.960 . S
H1839 C1852 0.960 . S
C1840 H1832 0.929 . S
C1840 C1841 1.377 . S
C1840 C1842 1.384 . S
C1841 C1840 1.377 . S
C1841 C1847 1.390 . S
C1842 H1833 0.930 . S
C1842 C1840 1.384 . S
C1842 C1843 1.372 . S
C1843 C1842 1.372 . S
C1843 C1844 1.400 . S
C1843 C1848 1.490 . S
C1844 H1834 0.930 . S
C1844 C1843 1.400 . S
C1844 C1847 1.386 . S
H1845 C1861 0.930 . S
H1846 C1862 0.931 . S
C1847 H1835 0.929 . S
C1847 C1841 1.390 . S
C1847 C1844 1.386 . S
C1848 C1843 1.490 . S
C1848 C1850 1.395 . S
C1848 C1851 1.403 . S
H1849 C1855 0.930 . S
C1850 H1836 0.930 . S
C1850 C1848 1.395 . S
C1850 C1853 1.403 . S
C1851 C1848 1.403 . S
C1851 C1852 1.524 . S
C1851 C1855 1.400 . S
C1852 H1837 0.960 . S
C1852 H1838 0.960 . S
C1852 H1839 0.960 . S
C1852 C1851 1.524 . S
C1853 C1850 1.403 . S
C1853 C1854 1.392 . S
C1853 C1857 1.495 . S
C1854 C1853 1.392 . S
C1854 C1855 1.385 . S
C1854 C1856 1.478 . S
C1855 H1849 0.930 . S
C1855 C1851 1.400 . S
C1855 C1854 1.385 . S
C1856 C1854 1.478 . S
C1856 C1858 1.381 . S
C1856 C1862 1.383 . S
C1857 C1853 1.495 . S
C1857 H1863 0.959 . S
C1857 H1864 0.961 . S
C1857 H1865 0.960 . S
C1858 C1856 1.381 . S
C1858 C1859 1.394 . S
C1858 H1866 0.930 . S
C1859 C1858 1.394 . S
C1859 C1860 1.383 . S
C1859 H1867 0.929 . S
C1860 C1859 1.383 . S
C1860 C1861 1.377 . S
C1861 H1845 0.930 . S
C1861 C1860 1.377 . S
C1861 C1862 1.379 . S
C1862 H1846 0.931 . S
C1862 C1856 1.383 . S
C1862 C1861 1.379 . S
H1863 C1857 0.959 . S
H1864 C1857 0.961 . S
H1865 C1857 0.960 . S
H1866 C1858 0.930 . S
H1867 C1859 0.929 . S
H1868 C1876 0.929 . S
H1869 C1878 0.930 . S
H1870 C1880 0.930 . S
H1871 C1883 0.929 . S
H1872 C1886 0.930 . S
H1873 C1888 0.960 . S
H1874 C1888 0.960 . S
H1875 C1888 0.960 . S
C1876 H1868 0.929 . S
C1876 C1877 1.377 . S
C1876 C1878 1.384 . S
C1877 C1876 1.377 . S
C1877 C1883 1.390 . S
C1878 H1869 0.930 . S
C1878 C1876 1.384 . S
C1878 C1879 1.372 . S
C1879 C1878 1.372 . S
C1879 C1880 1.400 . S
C1879 C1884 1.490 . S
C1880 H1870 0.930 . S
C1880 C1879 1.400 . S
C1880 C1883 1.386 . S
H1881 C1897 0.930 . S
H1882 C1898 0.931 . S
C1883 H1871 0.929 . S
C1883 C1877 1.390 . S
C1883 C1880 1.386 . S
C1884 C1879 1.490 . S
C1884 C1886 1.395 . S
C1884 C1887 1.403 . S
H1885 C1891 0.930 . S
C1886 H1872 0.930 . S
C1886 C1884 1.395 . S
C1886 C1889 1.403 . S
C1887 C1884 1.403 . S
C1887 C1888 1.524 . S
C1887 C1891 1.400 . S
C1888 H1873 0.960 . S
C1888 H1874 0.960 . S
C1888 H1875 0.960 . S
C1888 C1887 1.524 . S
C1889 C1886 1.403 . S
C1889 C1890 1.392 . S
C1889 C1893 1.495 . S
C1890 C1889 1.392 . S
C1890 C1891 1.385 . S
C1890 C1892 1.478 . S
C1891 H1885 0.930 . S
C1891 C1887 1.400 . S
C1891 C1890 1.385 . S
C1892 C1890 1.478 . S
C1892 C1894 1.381 . S
C1892 C1898 1.383 . S
C1893 C1889 1.495 . S
C1893 H1899 0.959 . S
C1893 H1900 0.961 . S
C1893 H1901 0.960 . S
C1894 C1892 1.381 . S
C1894 C1895 1.394 . S
C1894 H1902 0.930 . S
C1895 C1894 1.394 . S
C1895 C1896 1.383 . S
C1895 H1903 0.929 . S
C1896 C1895 1.383 . S
C1896 C1897 1.377 . S
C1897 H1881 0.930 . S
C1897 C1896 1.377 . S
C1897 C1898 1.379 . S
C1898 H1882 0.931 . S
C1898 C1892 1.383 . S
C1898 C1897 1.379 . S
H1899 C1893 0.959 . S
H1900 C1893 0.961 . S
H1901 C1893 0.960 . S
H1902 C1894 0.930 . S
H1903 C1895 0.929 . S
H1904 C1912 0.929 . S
H1905 C1914 0.930 . S
H1906 C1916 0.930 . S
H1907 C1919 0.929 . S
H1908 C1922 0.930 . S
H1909 C1924 0.960 . S
H1910 C1924 0.960 . S
H1911 C1924 0.960 . S
C1912 H1904 0.929 . S
C1912 C1913 1.377 . S
C1912 C1914 1.384 . S
C1913 C1912 1.377 . S
C1913 C1919 1.390 . S
C1914 H1905 0.930 . S
C1914 C1912 1.384 . S
C1914 C1915 1.372 . S
C1915 C1914 1.372 . S
C1915 C1916 1.400 . S
C1915 C1920 1.490 . S
C1916 H1906 0.930 . S
C1916 C1915 1.400 . S
C1916 C1919 1.386 . S
H1917 C1933 0.930 . S
H1918 C1934 0.931 . S
C1919 H1907 0.929 . S
C1919 C1913 1.390 . S
C1919 C1916 1.386 . S
C1920 C1915 1.490 . S
C1920 C1922 1.395 . S
C1920 C1923 1.403 . S
H1921 C1927 0.930 . S
C1922 H1908 0.930 . S
C1922 C1920 1.395 . S
C1922 C1925 1.403 1_556 S
C1923 C1920 1.403 . S
C1923 C1924 1.524 . S
C1923 C1927 1.400 1_556 S
C1924 H1909 0.960 . S
C1924 H1910 0.960 . S
C1924 H1911 0.960 . S
C1924 C1923 1.524 . S
C1925 C1922 1.403 1_554 S
C1925 C1926 1.392 . S
C1925 C1929 1.495 . S
C1926 C1925 1.392 . S
C1926 C1927 1.385 . S
C1926 C1928 1.478 . S
C1927 H1921 0.930 . S
C1927 C1923 1.400 1_554 S
C1927 C1926 1.385 . S
C1928 C1926 1.478 . S
C1928 C1930 1.381 . S
C1928 C1934 1.383 . S
C1929 C1925 1.495 . S
C1929 H1935 0.959 . S
C1929 H1936 0.961 . S
C1929 H1937 0.960 . S
C1930 C1928 1.381 . S
C1930 C1931 1.394 . S
C1930 H1938 0.930 . S
C1931 C1930 1.394 . S
C1931 C1932 1.383 . S
C1931 H1939 0.929 . S
C1932 C1931 1.383 . S
C1932 C1933 1.377 . S
C1933 H1917 0.930 . S
C1933 C1932 1.377 . S
C1933 C1934 1.379 . S
C1934 H1918 0.931 . S
C1934 C1928 1.383 . S
C1934 C1933 1.379 . S
H1935 C1929 0.959 . S
H1936 C1929 0.961 . S
H1937 C1929 0.960 . S
H1938 C1930 0.930 . S
H1939 C1931 0.929 . S
H1940 C1948 0.929 . S
H1941 C1950 0.930 . S
H1942 C1952 0.930 . S
H1943 C1955 0.929 . S
H1944 C1958 0.930 . S
H1945 C1960 0.960 . S
H1946 C1960 0.960 . S
H1947 C1960 0.960 . S
C1948 H1940 0.929 . S
C1948 C1949 1.377 . S
C1948 C1950 1.384 . S
C1949 C1948 1.377 . S
C1949 C1955 1.390 . S
C1950 H1941 0.930 . S
C1950 C1948 1.384 . S
C1950 C1951 1.372 . S
C1951 C1950 1.372 . S
C1951 C1952 1.400 . S
C1951 C1956 1.490 . S
C1952 H1942 0.930 . S
C1952 C1951 1.400 . S
C1952 C1955 1.386 . S
H1953 C1969 0.930 . S
H1954 C1970 0.931 . S
C1955 H1943 0.929 . S
C1955 C1949 1.390 . S
C1955 C1952 1.386 . S
C1956 C1951 1.490 . S
C1956 C1958 1.395 . S
C1956 C1959 1.403 . S
H1957 C1963 0.930 . S
C1958 H1944 0.930 . S
C1958 C1956 1.395 . S
C1958 C1961 1.403 1_556 S
C1959 C1956 1.403 . S
C1959 C1960 1.524 . S
C1959 C1963 1.400 1_556 S
C1960 H1945 0.960 . S
C1960 H1946 0.960 . S
C1960 H1947 0.960 . S
C1960 C1959 1.524 . S
C1961 C1958 1.403 1_554 S
C1961 C1962 1.392 . S
C1961 C1965 1.495 . S
C1962 C1961 1.392 . S
C1962 C1963 1.385 . S
C1962 C1964 1.478 . S
C1963 H1957 0.930 . S
C1963 C1959 1.400 1_554 S
C1963 C1962 1.385 . S
C1964 C1962 1.478 . S
C1964 C1966 1.381 . S
C1964 C1970 1.383 . S
C1965 C1961 1.495 . S
C1965 H1971 0.959 . S
C1965 H1972 0.961 . S
C1965 H1973 0.960 . S
C1966 C1964 1.381 . S
C1966 C1967 1.394 . S
C1966 H1974 0.930 . S
C1967 C1966 1.394 . S
C1967 C1968 1.383 . S
C1967 H1975 0.929 . S
C1968 C1967 1.383 . S
C1968 C1969 1.377 . S
C1969 H1953 0.930 . S
C1969 C1968 1.377 . S
C1969 C1970 1.379 . S
C1970 H1954 0.931 . S
C1970 C1964 1.383 . S
C1970 C1969 1.379 . S
H1971 C1965 0.959 . S
H1972 C1965 0.961 . S
H1973 C1965 0.960 . S
H1974 C1966 0.930 . S
H1975 C1967 0.929 . S
H1976 C1984 0.929 . S
H1977 C1986 0.930 . S
H1978 C1988 0.930 . S
H1979 C1991 0.929 . S
H1980 C1994 0.930 . S
H1981 C1996 0.960 . S
H1982 C1996 0.960 . S
H1983 C1996 0.960 . S
C1984 H1976 0.929 . S
C1984 C1985 1.377 . S
C1984 C1986 1.384 . S
C1985 C1984 1.377 . S
C1985 C1991 1.390 . S
C1986 H1977 0.930 . S
C1986 C1984 1.384 . S
C1986 C1987 1.372 . S
C1987 C1986 1.372 . S
C1987 C1988 1.400 . S
C1987 C1992 1.490 . S
C1988 H1978 0.930 . S
C1988 C1987 1.400 . S
C1988 C1991 1.386 . S
H1989 C2005 0.930 . S
H1990 C2006 0.931 . S
C1991 H1979 0.929 . S
C1991 C1985 1.390 . S
C1991 C1988 1.386 . S
C1992 C1987 1.490 . S
C1992 C1994 1.395 1_554 S
C1992 C1995 1.403 . S
H1993 C1999 0.930 . S
C1994 H1980 0.930 . S
C1994 C1992 1.395 1_556 S
C1994 C1997 1.403 . S
C1995 C1992 1.403 . S
C1995 C1996 1.524 . S
C1995 C1999 1.400 1_554 S
C1996 H1981 0.960 . S
C1996 H1982 0.960 . S
C1996 H1983 0.960 . S
C1996 C1995 1.524 . S
C1997 C1994 1.403 . S
C1997 C1998 1.392 . S
C1997 C2001 1.495 . S
C1998 C1997 1.392 . S
C1998 C1999 1.385 . S
C1998 C2000 1.478 . S
C1999 H1993 0.930 . S
C1999 C1995 1.400 1_556 S
C1999 C1998 1.385 . S
C2000 C1998 1.478 . S
C2000 C2002 1.381 . S
C2000 C2006 1.383 . S
C2001 C1997 1.495 . S
C2001 H2007 0.959 . S
C2001 H2008 0.961 . S
C2001 H2009 0.960 . S
C2002 C2000 1.381 . S
C2002 C2003 1.394 . S
C2002 H2010 0.930 . S
C2003 C2002 1.394 . S
C2003 C2004 1.383 . S
C2003 H2011 0.929 . S
C2004 C2003 1.383 . S
C2004 C2005 1.377 . S
C2005 H1989 0.930 . S
C2005 C2004 1.377 . S
C2005 C2006 1.379 . S
C2006 H1990 0.931 . S
C2006 C2000 1.383 . S
C2006 C2005 1.379 . S
H2007 C2001 0.959 . S
H2008 C2001 0.961 . S
H2009 C2001 0.960 . S
H2010 C2002 0.930 . S
H2011 C2003 0.929 . S
H2012 C2020 0.929 . S
H2013 C2022 0.930 . S
H2014 C2024 0.930 . S
H2015 C2027 0.929 . S
H2016 C2030 0.930 . S
H2017 C2032 0.960 . S
H2018 C2032 0.960 . S
H2019 C2032 0.960 . S
C2020 H2012 0.929 . S
C2020 C2021 1.377 . S
C2020 C2022 1.384 . S
C2021 C2020 1.377 . S
C2021 C2027 1.390 . S
C2022 H2013 0.930 . S
C2022 C2020 1.384 . S
C2022 C2023 1.372 . S
C2023 C2022 1.372 . S
C2023 C2024 1.400 . S
C2023 C2028 1.490 . S
C2024 H2014 0.930 . S
C2024 C2023 1.400 . S
C2024 C2027 1.386 . S
H2025 C2041 0.930 . S
H2026 C2042 0.931 . S
C2027 H2015 0.929 . S
C2027 C2021 1.390 . S
C2027 C2024 1.386 . S
C2028 C2023 1.490 . S
C2028 C2030 1.395 . S
C2028 C2031 1.403 . S
H2029 C2035 0.930 . S
C2030 H2016 0.930 . S
C2030 C2028 1.395 . S
C2030 C2033 1.403 1_554 S
C2031 C2028 1.403 . S
C2031 C2032 1.524 . S
C2031 C2035 1.400 1_554 S
C2032 H2017 0.960 . S
C2032 H2018 0.960 . S
C2032 H2019 0.960 . S
C2032 C2031 1.524 . S
C2033 C2030 1.403 1_556 S
C2033 C2034 1.392 . S
C2033 C2037 1.495 . S
C2034 C2033 1.392 . S
C2034 C2035 1.385 . S
C2034 C2036 1.478 . S
C2035 H2029 0.930 . S
C2035 C2031 1.400 1_556 S
C2035 C2034 1.385 . S
C2036 C2034 1.478 . S
C2036 C2038 1.381 . S
C2036 C2042 1.383 . S
C2037 C2033 1.495 . S
C2037 H2043 0.959 . S
C2037 H2044 0.961 . S
C2037 H2045 0.960 . S
C2038 C2036 1.381 . S
C2038 C2039 1.394 . S
C2038 H2046 0.930 . S
C2039 C2038 1.394 . S
C2039 C2040 1.383 . S
C2039 H2047 0.929 . S
C2040 C2039 1.383 . S
C2040 C2041 1.377 . S
C2041 H2025 0.930 . S
C2041 C2040 1.377 . S
C2041 C2042 1.379 . S
C2042 H2026 0.931 . S
C2042 C2036 1.383 . S
C2042 C2041 1.379 . S
H2043 C2037 0.959 . S
H2044 C2037 0.961 . S
H2045 C2037 0.960 . S
H2046 C2038 0.930 . S
H2047 C2039 0.929 . S
C329 C18 1.945 . S
C348 C118 1.963 . S
C365 C138 1.948 . S
C384 C38 1.929 . S
C401 C58 1.945 . S
C420 C158 1.964 . S
C437 C78 1.945 . S
C456 C98 1.944 . S
C473 C279 1.949 . S
C492 C179 1.941 . S
C509 C299 1.947 . S
C528 C199 1.948 . S
C545 C219 1.945 . S
C564 C319 1.925 . S
C581 C239 1.943 . S
C600 C259 1.922 . S
C617 C9 1.735 . S
C636 C62 1.639 . S
C653 C29 1.731 . S
C672 C2 1.660 . S
C689 C49 1.735 . S
C708 C22 1.638 . S
C725 C69 1.725 . S
C744 C42 1.635 . S
C761 C89 1.729 . S
C780 C102 1.662 . S
C797 C122 1.626 . S
C816 C109 1.710 . S
C833 C129 1.733 . S
C852 C142 1.597 . S
C869 C82 1.637 . S
C888 C149 1.730 . S
C905 C224 1.631 . S
C924 C172 1.719 . S
C941 C192 1.731 . S
C960 C164 1.650 . S
C977 C212 1.726 . S
C996 C184 1.594 . S
C1013 C232 1.733 . S
C1032 C204 1.657 . S
C1049 C252 1.725 . S
C1068 C264 1.596 . S
C1085 C272 1.732 . S
C1104 C284 1.624 . S
C1121 C292 1.732 . S
C1140 C304 1.631 . S
C1157 C312 1.726 . S
C1176 C244 1.591 . S
C1193 C12 0.502 . S
C1212 C52 0.415 . S
C1229 C32 0.498 . S
C1248 C72 0.428 . S
C1265 C132 0.506 . S
C1284 C92 0.414 . S
C1301 C152 0.490 . S
C1320 C112 0.466 . S
C1337 C209 0.505 . S
C1356 C169 0.569 . S
C1373 C229 0.494 . S
C1392 C189 0.469 . S
C1409 C249 0.480 . S
C1428 C289 0.489 . S
C1445 C269 0.505 . S
C1464 C309 0.569 . S
C1481 C4 1.075 . S
C1500 C238 1.144 . S
C1517 C178 1.112 . S
C1536 C24 1.024 . S
C1553 C44 1.063 . S
C1572 C198 1.108 . S
C1589 C218 1.124 . S
C1608 C64 1.115 . S
C1625 C278 1.121 . S
C1644 C84 1.089 . S
C1661 C104 1.076 . S
C1680 C298 1.146 . S
C1697 C318 1.124 . S
C1716 C124 1.114 . S
C1733 C144 1.063 . S
C1752 C258 1.108 . S
C1769 C162 1.062 . S
C1788 C79 1.096 . S
C1805 C182 1.076 . S
C1824 C19 1.094 . S
C1841 C39 1.113 . S
C1860 C202 1.115 . S
C1877 C222 1.070 . S
C1896 C59 1.131 . S
C1913 C242 1.072 . S
C1932 C119 1.124 . S
C1949 C262 1.060 . S
C1968 C139 1.102 . S
C1985 C159 1.121 . S
C2004 C282 1.012 . S
C2021 C99 1.111 . S
C2040 C302 1.107 . S
