# Generated by pormake.
# Topology una, (4)-cn, num edge types: 1
# Building blocks:
#     Node 0, Type 0, BuildingBlock: QUQFOY_clean_sbu_1, # of connection points: 4
#     Node 1, Type 0, BuildingBlock: QUQFOY_clean_sbu_1, # of connection points: 4
#     Node 2, Type 0, BuildingBlock: QUQFOY_clean_sbu_1, # of connection points: 4
#     Node 3, Type 0, BuildingBlock: QUQFOY_clean_sbu_1, # of connection points: 4
#     Node 4, Type 0, BuildingBlock: QUQFOY_clean_sbu_1, # of connection points: 4
#     Node 5, Type 0, BuildingBlock: QUQFOY_clean_sbu_1, # of connection points: 4
#     Node 6, Type 0, BuildingBlock: QUQFOY_clean_sbu_1, # of connection points: 4
#     Node 7, Type 0, BuildingBlock: QUQFOY_clean_sbu_1, # of connection points: 4
#     Node 8, Type 0, BuildingBlock: QUQFOY_clean_sbu_1, # of connection points: 4
#     Node 9, Type 0, BuildingBlock: QUQFOY_clean_sbu_1, # of connection points: 4
#     Node 10, Type 0, BuildingBlock: QUQFOY_clean_sbu_1, # of connection points: 4
#     Node 11, Type 0, BuildingBlock: QUQFOY_clean_sbu_1, # of connection points: 4
#     Edge 12, Type (0, 0), BuildingBlock: AJUNOK_clean_linker_0, # of connection points: 2
#     Edge 13, Type (0, 0), BuildingBlock: AJUNOK_clean_linker_0, # of connection points: 2
#     Edge 14, Type (0, 0), BuildingBlock: AJUNOK_clean_linker_0, # of connection points: 2
#     Edge 15, Type (0, 0), BuildingBlock: AJUNOK_clean_linker_0, # of connection points: 2
#     Edge 16, Type (0, 0), BuildingBlock: AJUNOK_clean_linker_0, # of connection points: 2
#     Edge 17, Type (0, 0), BuildingBlock: AJUNOK_clean_linker_0, # of connection points: 2
#     Edge 18, Type (0, 0), BuildingBlock: AJUNOK_clean_linker_0, # of connection points: 2
#     Edge 19, Type (0, 0), BuildingBlock: AJUNOK_clean_linker_0, # of connection points: 2
#     Edge 20, Type (0, 0), BuildingBlock: AJUNOK_clean_linker_0, # of connection points: 2
#     Edge 21, Type (0, 0), BuildingBlock: AJUNOK_clean_linker_0, # of connection points: 2
#     Edge 22, Type (0, 0), BuildingBlock: AJUNOK_clean_linker_0, # of connection points: 2
#     Edge 23, Type (0, 0), BuildingBlock: AJUNOK_clean_linker_0, # of connection points: 2
#     Edge 24, Type (0, 0), BuildingBlock: AJUNOK_clean_linker_0, # of connection points: 2
#     Edge 25, Type (0, 0), BuildingBlock: AJUNOK_clean_linker_0, # of connection points: 2
#     Edge 26, Type (0, 0), BuildingBlock: AJUNOK_clean_linker_0, # of connection points: 2
#     Edge 27, Type (0, 0), BuildingBlock: AJUNOK_clean_linker_0, # of connection points: 2
#     Edge 28, Type (0, 0), BuildingBlock: AJUNOK_clean_linker_0, # of connection points: 2
#     Edge 29, Type (0, 0), BuildingBlock: AJUNOK_clean_linker_0, # of connection points: 2
#     Edge 30, Type (0, 0), BuildingBlock: AJUNOK_clean_linker_0, # of connection points: 2
#     Edge 31, Type (0, 0), BuildingBlock: AJUNOK_clean_linker_0, # of connection points: 2
#     Edge 32, Type (0, 0), BuildingBlock: AJUNOK_clean_linker_0, # of connection points: 2
#     Edge 33, Type (0, 0), BuildingBlock: AJUNOK_clean_linker_0, # of connection points: 2
#     Edge 34, Type (0, 0), BuildingBlock: AJUNOK_clean_linker_0, # of connection points: 2
#     Edge 35, Type (0, 0), BuildingBlock: AJUNOK_clean_linker_0, # of connection points: 2
# Relax obj value: 0.112
# Max RMSD: 0.096
# Mean RMSD: 0.096
data_MOF--net-una--node1-QUQFOY_clean_sbu_1--edge1-AJUNOK_clean_linker_0
_symmetry_space_group_name_H-M    P1
_symmetry_Int_Tables_number       1
_symmetry_cell_setting            triclinic
loop_
_symmetry_equiv_pos_as_xyz
'x, y, z'
_cell_length_a     43.0709
_cell_length_b     43.13135
_cell_length_c     16.825413
_cell_angle_alpha  89.852177
_cell_angle_beta   89.986897
_cell_angle_gamma 119.75078
loop_
_atom_site_label
_atom_site_type_symbol
_atom_site_fract_x
_atom_site_fract_y
_atom_site_fract_z
_atom_type_partial_charge
O0 O 0.15387 0.49756 0.13583 0.0
Cd1 Cd 0.15417 0.45095 0.10485 0.0
Cd2 Cd 0.2164 0.49633 0.03418 0.0
O3 O 0.19541 0.52993 0.04755 0.0
O4 O 0.1043 0.4121 0.07433 0.0
O5 O 0.14776 0.44097 0.98766 0.0
C6 C 0.11464 0.41794 0.00093 0.0
C7 C 0.24602 0.49802 0.91831 0.0
C8 C 0.17152 0.52648 0.09676 0.0
C9 C 0.22003 0.45439 0.17394 0.0
O10 O 0.23633 0.48129 0.12849 0.0
O11 O 0.18592 0.4359 0.17234 0.0
O12 O 0.25969 0.52421 0.96767 0.0
O13 O 0.21446 0.47169 0.9325 0.0
O14 O 0.69679 0.13233 0.30171 0.0
Cd15 Cd 0.74414 0.13316 0.27166 0.0
Cd16 Cd 0.76038 0.19519 0.20188 0.0
O17 O 0.70575 0.17395 0.21375 0.0
O18 O 0.7338 0.08329 0.24407 0.0
O19 O 0.74814 0.12581 0.1548 0.0
C20 C 0.73825 0.09284 0.17014 0.0
C21 C 0.78885 0.22526 0.08696 0.0
C22 C 0.6853 0.14983 0.2624 0.0
C23 C 0.80556 0.19872 0.34177 0.0
O24 O 0.79476 0.21504 0.2967 0.0
O25 O 0.79031 0.16469 0.34012 0.0
O26 O 0.77566 0.23859 0.13593 0.0
O27 O 0.7839 0.1937 0.10084 0.0
O28 O 0.59945 0.67507 0.45616 0.0
Cd29 Cd 0.64844 0.72104 0.43414 0.0
Cd30 Cd 0.60812 0.74577 0.36648 0.0
O31 O 0.56857 0.69422 0.38783 0.0
O32 O 0.68589 0.70727 0.4091 0.0
O33 O 0.66329 0.72762 0.3189 0.0
C34 C 0.68387 0.71462 0.33539 0.0
C35 C 0.60671 0.77342 0.24996 0.0
C36 C 0.56983 0.66989 0.4279 0.0
C37 C 0.65157 0.78639 0.50812 0.0
O38 O 0.6278 0.78148 0.45755 0.0
O39 O 0.66484 0.76568 0.51017 0.0
O40 O 0.58254 0.765 0.30365 0.0
O41 O 0.63082 0.76437 0.26044 0.0
O42 O 0.9695 0.58097 0.62142 0.0
Cd43 Cd 0.97133 0.62944 0.59662 0.0
Cd44 Cd 0.90563 0.58702 0.53602 0.0
O45 O 0.9181 0.54793 0.56054 0.0
O46 O 1.02258 0.66665 0.57325 0.0
O47 O 0.98081 0.64426 0.4811 0.0
C48 C 1.0141 0.66464 0.499 0.0
C49 C 0.87713 0.58489 0.41869 0.0
C50 C 0.94498 0.5506 0.59757 0.0
C51 C 0.90923 0.6331 0.67259 0.0
O52 O 0.89001 0.6081 0.62518 0.0
O53 O 0.94324 0.6468 0.67181 0.0
O54 O 0.86118 0.56122 0.47324 0.0
O55 O 0.91017 0.60886 0.42894 0.0
O56 O 0.43163 0.94729 0.79074 0.0
Cd57 Cd 0.38326 0.94443 0.75985 0.0
Cd58 Cd 0.37359 0.88688 0.68728 0.0
O59 O 0.42855 0.91234 0.69234 0.0
O60 O 0.39135 0.99367 0.73179 0.0
O61 O 0.37938 0.95175 0.64287 0.0
C62 C 0.38777 0.98432 0.65785 0.0
C63 C 0.34383 0.85392 0.57562 0.0
C64 C 0.44629 0.93393 0.74749 0.0
C65 C 0.32992 0.87694 0.83508 0.0
O66 O 0.34474 0.86478 0.78927 0.0
O67 O 0.33773 0.90952 0.8282 0.0
O68 O 0.36061 0.84368 0.62257 0.0
O69 O 0.34528 0.88395 0.59014 0.0
O70 O 0.53163 0.41113 0.95036 0.0
Cd71 Cd 0.48289 0.36409 0.92912 0.0
Cd72 Cd 0.52442 0.34384 0.86098 0.0
O73 O 0.56066 0.39709 0.86313 0.0
O74 O 0.44426 0.37655 0.90598 0.0
O75 O 0.46792 0.35824 0.81401 0.0
C76 C 0.44665 0.37026 0.83177 0.0
C77 C 0.52264 0.31077 0.75094 0.0
C78 C 0.55995 0.41949 0.91066 0.0
C79 C 0.48944 0.30595 0.0112 0.0
O80 O 0.51574 0.31598 0.96433 0.0
O81 O 0.46858 0.31894 0.00402 0.0
O82 O 0.54983 0.32468 0.79762 0.0
O83 O 0.4967 0.31685 0.76494 0.0
O84 O 0.608 0.95293 0.771 0.0
Cd85 Cd 0.65472 0.95261 0.80145 0.0
Cd86 Cd 0.6093 0.89012 0.87203 0.0
O87 O 0.57536 0.91072 0.85778 0.0
O88 O 0.69362 1.0022 0.83321 0.0
O89 O 0.66474 0.95818 0.9186 0.0
C90 C 0.68785 0.99131 0.90625 0.0
C91 C 0.60748 0.86039 0.98804 0.0
C92 C 0.57889 0.93486 0.8092 0.0
C93 C 0.65154 0.88717 0.73194 0.0
O94 O 0.6249 0.87068 0.77805 0.0
O95 O 0.66972 0.92124 0.73303 0.0
O96 O 0.58149 0.84662 0.93798 0.0
O97 O 0.63362 0.89209 0.9744 0.0
O98 O 0.69817 0.58322 0.94411 0.0
Cd99 Cd 0.74444 0.6312 0.97122 0.0
Cd100 Cd 0.76685 0.58801 0.03573 0.0
O101 O 0.7155 0.54977 0.00853 0.0
O102 O 0.7314 0.66872 0.00195 0.0
O103 O 0.74975 0.64263 0.08789 0.0
C104 C 0.73773 0.66427 0.07501 0.0
C105 C 0.79251 0.58492 0.15365 0.0
C106 C 0.69207 0.55276 0.96871 0.0
C107 C 0.81073 0.63441 0.90003 0.0
O108 O 0.80421 0.60917 0.94786 0.0
O109 O 0.79058 0.64837 0.89855 0.0
O110 O 0.78477 0.56133 0.09913 0.0
O111 O 0.78361 0.60909 0.14327 0.0
O112 O 0.15813 0.67303 0.11191 0.0
Cd113 Cd 0.16062 0.72128 0.14149 0.0
Cd114 Cd 0.21848 0.73159 0.21548 0.0
O115 O 0.19336 0.67672 0.21057 0.0
O116 O 0.11127 0.71308 0.16972 0.0
O117 O 0.15354 0.72542 0.25829 0.0
C118 C 0.12084 0.71689 0.24356 0.0
C119 C 0.2514 0.76137 0.32726 0.0
C120 C 0.17174 0.65872 0.15562 0.0
C121 C 0.22827 0.775 0.06703 0.0
O122 O 0.2406 0.76056 0.11364 0.0
O123 O 0.19549 0.76674 0.07293 0.0
O124 O 0.2618 0.74478 0.28037 0.0
O125 O 0.22123 0.75971 0.31262 0.0
O126 O 0.5237 0.13348 0.27504 0.0
Cd127 Cd 0.47706 0.1344 0.30662 0.0
Cd128 Cd 0.52276 0.19118 0.38194 0.0
O129 O 0.55376 0.16725 0.37625 0.0
O130 O 0.4366 0.08417 0.32885 0.0
O131 O 0.46471 0.12391 0.42276 0.0
C132 C 0.44131 0.09164 0.40382 0.0
C133 C 0.52201 0.22078 0.49599 0.0
C134 C 0.55121 0.14675 0.31964 0.0
C135 C 0.48887 0.20288 0.23843 0.0
O136 O 0.51643 0.21487 0.28218 0.0
O137 O 0.46511 0.16991 0.24358 0.0
O138 O 0.55021 0.23286 0.45225 0.0
O139 O 0.49463 0.19064 0.47722 0.0
O140 O 0.43199 0.5065 0.45208 0.0
Cd141 Cd 0.3862 0.45738 0.47407 0.0
Cd142 Cd 0.36069 0.49749 0.53999 0.0
O143 O 0.41209 0.5373 0.5179 0.0
O144 O 0.40035 0.42041 0.50238 0.0
O145 O 0.37916 0.44325 0.5897 0.0
C146 C 0.39255 0.42286 0.57551 0.0
C147 C 0.33299 0.49902 0.65636 0.0
C148 C 0.43672 0.53611 0.47891 0.0
C149 C 0.32056 0.45355 0.3984 0.0
O150 O 0.32499 0.47713 0.44884 0.0
O151 O 0.34165 0.44067 0.397 0.0
O152 O 0.34091 0.52277 0.60187 0.0
O153 O 0.34255 0.47528 0.64665 0.0
O154 O 0.96746 0.4098 0.62287 0.0
Cd155 Cd 0.96853 0.36262 0.64399 0.0
Cd156 Cd 0.90331 0.34008 0.70826 0.0
O157 O 0.91683 0.39225 0.68734 0.0
O158 O 1.01939 0.37504 0.66797 0.0
O159 O 0.9769 0.35551 0.7589 0.0
C160 C 1.01025 0.36789 0.74182 0.0
C161 C 0.87474 0.31271 0.82546 0.0
C162 C 0.94362 0.41625 0.64978 0.0
C163 C 0.90573 0.29897 0.56684 0.0
O164 O 0.887 0.30454 0.61665 0.0
O165 O 0.93978 0.31859 0.56667 0.0
O166 O 0.85896 0.32142 0.77225 0.0
O167 O 0.90768 0.32136 0.81399 0.0
C168 C 0.27612 0.45263 0.20427 0.0
C169 C 0.24195 0.44592 0.22887 0.0
C170 C 0.30044 0.45128 0.2581 0.0
C171 C 0.29176 0.44384 0.33892 0.0
H172 H 0.28473 0.46052 0.14343 0.0
H173 H 0.3271 0.4588 0.23748 0.0
S174 S 0.2051 0.42145 0.43282 0.0
N175 N 0.19987 0.42855 0.33848 0.0
N176 N 0.24591 0.42726 0.44009 0.0
C177 C 0.25707 0.43516 0.36341 0.0
C178 C 0.23204 0.43579 0.30829 0.0
C179 C 0.85722 0.23736 0.5328 0.0
C180 C 0.88626 0.27026 0.50754 0.0
C181 C 0.83267 0.21265 0.47826 0.0
C182 C 0.83569 0.22045 0.3966 0.0
H183 H 0.85248 0.23141 0.59571 0.0
H184 H 0.80983 0.18855 0.50071 0.0
S185 S 0.90827 0.30139 0.29911 0.0
N186 N 0.91806 0.3078 0.39475 0.0
N187 N 0.87144 0.26215 0.29244 0.0
C188 C 0.86562 0.25237 0.37025 0.0
C189 C 0.89106 0.27707 0.42562 0.0
C190 C 0.65581 0.80758 0.64811 0.0
C191 C 0.66128 0.81548 0.56659 0.0
C192 C 0.65479 0.83198 0.70195 0.0
C193 C 0.65996 0.86547 0.67659 0.0
H194 H 0.64958 0.7814 0.66953 0.0
H195 H 0.64834 0.82392 0.76354 0.0
S196 S 0.67911 0.9003 0.47034 0.0
N197 N 0.67444 0.85998 0.46374 0.0
N198 N 0.67376 0.90618 0.5653 0.0
C199 C 0.66817 0.87469 0.59622 0.0
C200 C 0.66844 0.84956 0.54115 0.0
C201 C 0.85937 0.64478 0.706 0.0
C202 C 0.89029 0.6439 0.73057 0.0
C203 C 0.83526 0.64563 0.76129 0.0
C204 C 0.84081 0.64481 0.8433 0.0
H205 H 0.85268 0.64272 0.64344 0.0
H206 H 0.81074 0.64386 0.73969 0.0
S207 S 0.91936 0.64644 0.9387 0.0
N208 N 0.92675 0.64595 0.84246 0.0
N209 N 0.88118 0.64658 0.94645 0.0
C210 C 0.87286 0.6465 0.86852 0.0
C211 C 0.89771 0.64634 0.81218 0.0
C212 C 0.27478 0.85497 0.9235 0.0
C213 C 0.30435 0.85223 0.89641 0.0
C214 C 0.24943 0.82951 0.97691 0.0
C215 C 0.25308 0.80075 0.00603 0.0
H216 H 0.27085 0.87649 0.90225 0.0
H217 H 0.22722 0.8327 -0.00354 0.0
S218 S 0.32601 0.78184 0.95421 0.0
N219 N 0.33573 0.81847 0.90417 0.0
N220 N 0.28873 0.77123 0.00252 0.0
C221 C 0.28265 0.79801 0.97933 0.0
C222 C 0.30808 0.82355 0.92526 0.0
C223 C 0.51732 0.26132 0.16654 0.0
C224 C 0.48619 0.22842 0.18206 0.0
C225 C 0.51718 0.28654 0.11439 0.0
C226 C 0.48584 0.28065 0.07559 0.0
H227 H 0.54258 0.26761 0.19367 0.0
H228 H 0.54225 0.31082 0.10311 0.0
S229 S 0.39653 0.19989 0.09646 0.0
N230 N 0.42253 0.19181 0.15511 0.0
N231 N 0.42238 0.2398 0.05702 0.0
C232 C 0.45412 0.24847 0.09164 0.0
C233 C 0.4543 0.22223 0.14457 0.0
C234 C 0.16397 0.56799 0.1881 0.0
C235 C 0.16589 0.55723 0.11034 0.0
C236 C 0.1644 0.6003 0.20222 0.0
C237 C 0.16561 0.62238 0.13903 0.0
H238 H 0.16413 0.55235 0.23844 0.0
H239 H 0.1647 0.60852 0.26315 0.0
S240 S 0.1675 0.60433 0.92428 0.0
N241 N 0.16706 0.57004 0.96932 0.0
N242 N 0.16646 0.62998 -0.00424 0.0
C243 C 0.16536 0.61079 0.06096 0.0
C244 C 0.16591 0.57843 0.04666 0.0
C245 C 0.63489 0.14004 0.35235 0.0
C246 C 0.64862 0.14365 0.275 0.0
C247 C 0.60247 0.13955 0.36606 0.0
C248 C 0.58208 0.14152 0.30277 0.0
H249 H 0.6502 0.1395 0.4029 0.0
H250 H 0.59371 0.13854 0.42687 0.0
S251 S 0.60478 0.14777 0.08861 0.0
N252 N 0.63848 0.14718 0.13401 0.0
N253 N 0.57696 0.1449 0.15962 0.0
C254 C 0.59451 0.14298 0.2249 0.0
C255 C 0.62796 0.14444 0.21108 0.0
C256 C 0.50364 0.57076 0.45996 0.0
C257 C 0.47058 0.56996 0.46416 0.0
C258 C 0.5359 0.60322 0.45004 0.0
C259 C 0.53607 0.63583 0.44211 0.0
H260 H 0.50464 0.54625 0.46582 0.0
H261 H 0.56077 0.6027 0.4473 0.0
S262 S 0.45656 0.64802 0.44753 0.0
N263 N 0.44013 0.60465 0.45902 0.0
N264 N 0.50022 0.66512 0.43931 0.0
C265 C 0.50311 0.63521 0.44551 0.0
C266 C 0.47054 0.60244 0.45678 0.0
C267 C 0.91416 0.485 0.62136 0.0
C268 C 0.94644 0.51748 0.61347 0.0
C269 C 0.91381 0.45273 0.63323 0.0
C270 C 0.94571 0.45128 0.63619 0.0
H271 H 0.88876 0.48445 0.61875 0.0
H272 H 0.88814 0.42857 0.63912 0.0
S273 S 1.03757 0.52869 0.61862 0.0
N274 N 1.01133 0.54636 0.61016 0.0
N275 N 1.01068 0.48531 0.63078 0.0
C276 C 0.9783 0.4835 0.62811 0.0
C277 C 0.97867 0.51667 0.61745 0.0
C278 C 0.5053 0.94222 0.70236 0.0
C279 C 0.48268 0.94025 0.76502 0.0
C280 C 0.53769 0.9428 0.71722 0.0
C281 C 0.54798 0.94028 0.79515 0.0
H282 H 0.49744 0.94238 0.64126 0.0
H283 H 0.55376 0.94324 0.66722 0.0
S284 S 0.49932 0.93653 0.98007 0.0
N285 N 0.47402 0.93801 0.90806 0.0
N286 N 0.53412 0.93769 0.93583 0.0
C287 C 0.52622 0.93949 0.85835 0.0
C288 C 0.49378 0.93989 0.84334 0.0
C289 C 0.59285 0.48523 0.94478 0.0
C290 C 0.59344 0.45398 0.92314 0.0
C291 C 0.62487 0.51777 0.95647 0.0
C292 C 0.65838 0.51978 0.94891 0.0
H293 H 0.56755 0.48456 0.9523 0.0
H294 H 0.62338 0.54117 0.97382 0.0
S295 S 0.67468 0.44592 0.89323 0.0
N296 N 0.63075 0.42762 0.89381 0.0
N297 N 0.69025 0.48814 0.91727 0.0
C298 C 0.65924 0.48883 0.92705 0.0
C299 C 0.62697 0.45611 0.91382 0.0
C300 C 0.31461 0.53001 0.7537 0.0
C301 C 0.31162 0.49806 0.7252 0.0
C302 C 0.29303 0.52974 0.81608 0.0
C303 C 0.2671 0.49743 0.85033 0.0
H304 H 0.3339 0.55544 0.72792 0.0
H305 H 0.29647 0.55497 0.83712 0.0
S306 S 0.24834 0.40645 0.79597 0.0
N307 N 0.28095 0.4333 0.73555 0.0
N308 N 0.23959 0.43268 0.85166 0.0
C309 C 0.26358 0.46524 0.82186 0.0
C310 C 0.28614 0.46559 0.75961 0.0
C311 C 0.8037 0.27208 0.98441 0.0
C312 C 0.81074 0.24666 0.01963 0.0
C313 C 0.82497 0.29377 0.92223 0.0
C314 C 0.85454 0.29142 0.89472 0.0
H315 H 0.78135 0.27495 0.00442 0.0
H316 H 0.81825 0.31259 0.89566 0.0
S317 S 0.88508 0.23005 0.96951 0.0
N318 N 0.84954 0.22065 0.0239 0.0
N319 N 0.89015 0.26212 0.90795 0.0
C320 C 0.86231 0.26658 0.93048 0.0
C321 C 0.84016 0.24393 0.99266 0.0
C322 C 0.57556 0.79023 0.14935 0.0
C323 C 0.60771 0.79486 0.18124 0.0
C324 C 0.57574 0.8118 0.08702 0.0
C325 C 0.60808 0.83933 0.05619 0.0
H326 H 0.55008 0.76965 0.17244 0.0
H327 H 0.55037 0.80706 0.0633 0.0
S328 S 0.69951 0.86302 0.12134 0.0
N329 N 0.67267 0.82897 0.17855 0.0
N330 N 0.67309 0.8703 0.06248 0.0
C331 C 0.64044 0.84455 0.08835 0.0
C332 C 0.64024 0.82203 0.15058 0.0
C333 C 0.83008 0.55338 0.3172 0.0
C334 C 0.85699 0.58562 0.34926 0.0
C335 C 0.80899 0.55336 0.25404 0.0
C336 C 0.81342 0.58556 0.22293 0.0
H337 H 0.82548 0.52803 0.3407 0.0
H338 H 0.7889 0.528 0.22986 0.0
S339 S 0.87967 0.67705 0.28761 0.0
N340 N 0.88701 0.65048 0.34585 0.0
N341 N 0.8465 0.65045 0.22847 0.0
C342 C 0.83992 0.61796 0.25517 0.0
C343 C 0.86202 0.61799 0.31803 0.0
C344 C 0.27018 0.81162 0.42259 0.0
C345 C 0.27462 0.78372 0.39224 0.0
C346 C 0.29339 0.83486 0.48031 0.0
C347 C 0.3215 0.83066 0.51067 0.0
H348 H 0.24899 0.81597 0.40072 0.0
H349 H 0.28884 0.85588 0.50218 0.0
S350 S 0.34436 0.76155 0.45147 0.0
N351 N 0.30924 0.75313 0.39676 0.0
N352 N 0.35256 0.79651 0.50616 0.0
C353 C 0.32613 0.80275 0.48118 0.0
C354 C 0.30275 0.77934 0.42174 0.0
C355 C 0.55333 0.29064 0.65676 0.0
C356 C 0.52129 0.28772 0.68514 0.0
C357 C 0.55317 0.26845 0.59632 0.0
C358 C 0.52092 0.2421 0.56295 0.0
H359 H 0.57886 0.31044 0.68094 0.0
H360 H 0.57856 0.27198 0.57572 0.0
S361 S 0.4296 0.22311 0.61725 0.0
N362 N 0.45637 0.25634 0.67593 0.0
N363 N 0.45601 0.21414 0.5626 0.0
C364 C 0.48859 0.23855 0.59128 0.0
C365 C 0.48879 0.26157 0.65219 0.0
C366 C 1.05166 0.38238 0.94881 0.0
C367 C 0.08875 0.40121 0.93386 0.0
C368 C 1.0266 0.37041 0.88646 0.0
C369 C 1.03742 0.37657 0.80611 0.0
H370 H 1.04175 0.37794 0.00932 0.0
H371 H 0.99846 0.35719 0.90171 0.0
S372 S 0.13145 0.42132 0.73419 0.0
N373 N 0.13499 0.42297 0.83195 0.0
N374 N 0.08814 0.40054 0.71535 0.0
C375 C 0.07444 0.3938 0.79023 0.0
C376 C 0.09998 0.40608 0.85378 0.0
C377 C 0.72243 0.05374 0.96089 0.0
C378 C 0.70472 1.01659 0.97411 0.0
C379 C 0.73442 0.0781 0.02443 0.0
C380 C 0.72946 0.06649 0.10424 0.0
H381 H 0.72593 0.06421 0.90096 0.0
H382 H 0.74676 0.10631 0.01063 0.0
S383 S 0.68792 0.97202 0.17134 0.0
N384 N 0.68526 0.96946 0.0735 0.0
N385 N 0.7078 1.01503 0.19236 0.0
C386 C 0.71337 1.02944 0.11824 0.0
C387 C 0.70101 1.0046 0.05347 0.0
C388 C 0.70952 0.69919 0.12777 0.0
C389 C 0.72852 0.68096 0.14231 0.0
C390 C 0.69655 0.71123 0.19039 0.0
C391 C 0.702 0.70567 0.27063 0.0
H392 H 0.70347 0.7032 0.06741 0.0
H393 H 0.68113 0.72404 0.17546 0.0
S394 S 0.75327 0.66255 0.34144 0.0
N395 N 0.75445 0.66036 0.24365 0.0
N396 N 0.73021 0.68287 0.36077 0.0
C397 C 0.72244 0.68898 0.28607 0.0
C398 C 0.73563 0.67668 0.22222 0.0
C399 C 1.05747 0.69107 0.29327 0.0
C400 C 0.09441 0.70839 0.30957 0.0
C401 C 1.03183 0.67838 0.35473 0.0
C402 C 1.0419 0.68254 0.43548 0.0
H403 H 1.0481 0.68601 0.23241 0.0
H404 H 1.00381 0.66419 0.33849 0.0
S405 S 0.13531 0.72924 0.51077 0.0
N406 N 0.13972 0.73136 0.41315 0.0
N407 N 0.09184 0.70776 0.52801 0.0
C408 C 0.0788 0.70139 0.45266 0.0
C409 C 0.10491 0.7142 0.39004 0.0
C410 C 0.4276 0.07353 0.54772 0.0
C411 C 0.42294 0.06371 0.46683 0.0
C412 C 0.41457 0.04778 0.60887 0.0
C413 C 0.39649 1.01093 0.59214 0.0
H414 H 0.44238 0.10144 0.56429 0.0
H415 H 0.42002 0.05695 0.66981 0.0
S416 S 0.37435 0.97073 0.3905 0.0
N417 N 0.39657 1.01419 0.3737 0.0
N418 N 0.37241 0.96601 0.48807 0.0
C419 C 0.39023 1.0007 0.51156 0.0
C420 C 0.40332 1.02696 0.44921 0.0
C421 C 0.42142 0.38804 0.62564 0.0
C422 C 0.40171 0.40542 0.64161 0.0
C423 C 0.4344 0.37542 0.68725 0.0
C424 C 0.4283 0.37953 0.76792 0.0
H425 H 0.42801 0.38517 0.56498 0.0
H426 H 0.45039 0.36337 0.67124 0.0
S427 S 0.37506 0.41988 0.84222 0.0
N428 N 0.3744 0.42357 0.74465 0.0
N429 N 0.3987 0.4 0.85988 0.0
C430 C 0.40714 0.39531 0.7847 0.0
C431 C 0.39391 0.40819 0.72187 0.0
loop_
_geom_bond_atom_site_label_1
_geom_bond_atom_site_label_2
_geom_bond_distance
_geom_bond_site_symmetry_2
_ccdc_geom_bond_type
O0 Cd1 2.223 . S
O0 C8 1.315 . S
Cd1 O0 2.223 . S
Cd1 O4 2.297 . S
Cd1 O5 2.439 1_554 S
Cd1 O11 2.240 . S
Cd2 O3 2.240 1_556 S
Cd2 O10 2.223 1_556 S
Cd2 O12 2.297 . S
Cd2 O13 2.439 . S
O3 Cd2 2.240 1_554 S
O3 C8 1.279 . S
O4 Cd1 2.297 . S
O4 C6 1.247 1_554 S
O5 Cd1 2.439 1_556 S
O5 C6 1.208 . S
C6 O4 1.247 1_556 S
C6 O5 1.208 . S
C7 O12 1.247 . S
C7 O13 1.208 . S
C8 O0 1.315 . S
C8 O3 1.279 . S
C9 O10 1.315 . S
C9 O11 1.279 . S
O10 Cd2 2.223 1_554 S
O10 C9 1.315 . S
O11 Cd1 2.240 . S
O11 C9 1.279 . S
O12 Cd2 2.297 . S
O12 C7 1.247 . S
O13 Cd2 2.439 . S
O13 C7 1.208 . S
O14 Cd15 2.223 . S
O14 C22 1.315 . S
Cd15 O14 2.223 . S
Cd15 O18 2.297 . S
Cd15 O19 2.439 . S
Cd15 O25 2.240 . S
Cd16 O17 2.240 . S
Cd16 O24 2.223 . S
Cd16 O26 2.297 . S
Cd16 O27 2.439 . S
O17 Cd16 2.240 . S
O17 C22 1.279 . S
O18 Cd15 2.297 . S
O18 C20 1.247 . S
O19 Cd15 2.439 . S
O19 C20 1.208 . S
C20 O18 1.247 . S
C20 O19 1.208 . S
C21 O26 1.247 . S
C21 O27 1.208 . S
C22 O14 1.315 . S
C22 O17 1.279 . S
C23 O24 1.315 . S
C23 O25 1.279 . S
O24 Cd16 2.223 . S
O24 C23 1.315 . S
O25 Cd15 2.240 . S
O25 C23 1.279 . S
O26 Cd16 2.297 . S
O26 C21 1.247 . S
O27 Cd16 2.439 . S
O27 C21 1.208 . S
O28 Cd29 2.223 . S
O28 C36 1.315 . S
Cd29 O28 2.223 . S
Cd29 O32 2.297 . S
Cd29 O33 2.439 . S
Cd29 O39 2.240 . S
Cd30 O31 2.240 . S
Cd30 O38 2.223 . S
Cd30 O40 2.297 . S
Cd30 O41 2.439 . S
O31 Cd30 2.240 . S
O31 C36 1.279 . S
O32 Cd29 2.297 . S
O32 C34 1.247 . S
O33 Cd29 2.439 . S
O33 C34 1.208 . S
C34 O32 1.247 . S
C34 O33 1.208 . S
C35 O40 1.247 . S
C35 O41 1.208 . S
C36 O28 1.315 . S
C36 O31 1.279 . S
C37 O38 1.315 . S
C37 O39 1.279 . S
O38 Cd30 2.223 . S
O38 C37 1.315 . S
O39 Cd29 2.240 . S
O39 C37 1.279 . S
O40 Cd30 2.297 . S
O40 C35 1.247 . S
O41 Cd30 2.439 . S
O41 C35 1.208 . S
O42 Cd43 2.223 . S
O42 C50 1.315 . S
Cd43 O42 2.223 . S
Cd43 O46 2.297 . S
Cd43 O47 2.439 . S
Cd43 O53 2.240 . S
Cd44 O45 2.240 . S
Cd44 O52 2.223 . S
Cd44 O54 2.297 . S
Cd44 O55 2.439 . S
O45 Cd44 2.240 . S
O45 C50 1.279 . S
O46 Cd43 2.297 . S
O46 C48 1.247 . S
O47 Cd43 2.439 . S
O47 C48 1.208 . S
C48 O46 1.247 . S
C48 O47 1.208 . S
C49 O54 1.247 . S
C49 O55 1.208 . S
C50 O42 1.315 . S
C50 O45 1.279 . S
C51 O52 1.315 . S
C51 O53 1.279 . S
O52 Cd44 2.223 . S
O52 C51 1.315 . S
O53 Cd43 2.240 . S
O53 C51 1.279 . S
O54 Cd44 2.297 . S
O54 C49 1.247 . S
O55 Cd44 2.439 . S
O55 C49 1.208 . S
O56 Cd57 2.223 . S
O56 C64 1.315 . S
Cd57 O56 2.223 . S
Cd57 O60 2.297 . S
Cd57 O61 2.439 . S
Cd57 O67 2.240 . S
Cd58 O59 2.240 . S
Cd58 O66 2.223 . S
Cd58 O68 2.297 . S
Cd58 O69 2.439 . S
O59 Cd58 2.240 . S
O59 C64 1.279 . S
O60 Cd57 2.297 . S
O60 C62 1.247 . S
O61 Cd57 2.439 . S
O61 C62 1.208 . S
C62 O60 1.247 . S
C62 O61 1.208 . S
C63 O68 1.247 . S
C63 O69 1.208 . S
C64 O56 1.315 . S
C64 O59 1.279 . S
C65 O66 1.315 . S
C65 O67 1.279 . S
O66 Cd58 2.223 . S
O66 C65 1.315 . S
O67 Cd57 2.240 . S
O67 C65 1.279 . S
O68 Cd58 2.297 . S
O68 C63 1.247 . S
O69 Cd58 2.439 . S
O69 C63 1.208 . S
O70 Cd71 2.223 . S
O70 C78 1.315 . S
Cd71 O70 2.223 . S
Cd71 O74 2.297 . S
Cd71 O75 2.439 . S
Cd71 O81 2.240 . S
Cd72 O73 2.240 . S
Cd72 O80 2.223 . S
Cd72 O82 2.297 . S
Cd72 O83 2.439 . S
O73 Cd72 2.240 . S
O73 C78 1.279 . S
O74 Cd71 2.297 . S
O74 C76 1.247 . S
O75 Cd71 2.439 . S
O75 C76 1.208 . S
C76 O74 1.247 . S
C76 O75 1.208 . S
C77 O82 1.247 . S
C77 O83 1.208 . S
C78 O70 1.315 . S
C78 O73 1.279 . S
C79 O80 1.315 . S
C79 O81 1.279 . S
O80 Cd72 2.223 . S
O80 C79 1.315 . S
O81 Cd71 2.240 . S
O81 C79 1.279 . S
O82 Cd72 2.297 . S
O82 C77 1.247 . S
O83 Cd72 2.439 . S
O83 C77 1.208 . S
O84 Cd85 2.223 . S
O84 C92 1.315 . S
Cd85 O84 2.223 . S
Cd85 O88 2.297 . S
Cd85 O89 2.439 . S
Cd85 O95 2.240 . S
Cd86 O87 2.240 . S
Cd86 O94 2.223 . S
Cd86 O96 2.297 . S
Cd86 O97 2.439 1_556 S
O87 Cd86 2.240 . S
O87 C92 1.279 . S
O88 Cd85 2.297 . S
O88 C90 1.247 . S
O89 Cd85 2.439 . S
O89 C90 1.208 . S
C90 O88 1.247 . S
C90 O89 1.208 . S
C91 O96 1.247 1_554 S
C91 O97 1.208 . S
C92 O84 1.315 . S
C92 O87 1.279 . S
C93 O94 1.315 . S
C93 O95 1.279 . S
O94 Cd86 2.223 . S
O94 C93 1.315 . S
O95 Cd85 2.240 . S
O95 C93 1.279 . S
O96 Cd86 2.297 . S
O96 C91 1.247 1_556 S
O97 Cd86 2.439 1_554 S
O97 C91 1.208 . S
O98 Cd99 2.223 . S
O98 C106 1.315 . S
Cd99 O98 2.223 . S
Cd99 O102 2.297 1_556 S
Cd99 O103 2.439 1_556 S
Cd99 O109 2.240 . S
Cd100 O101 2.240 . S
Cd100 O108 2.223 1_554 S
Cd100 O110 2.297 . S
Cd100 O111 2.439 . S
O101 Cd100 2.240 . S
O101 C106 1.279 1_554 S
O102 Cd99 2.297 1_554 S
O102 C104 1.247 . S
O103 Cd99 2.439 1_554 S
O103 C104 1.208 . S
C104 O102 1.247 . S
C104 O103 1.208 . S
C105 O110 1.247 . S
C105 O111 1.208 . S
C106 O98 1.315 . S
C106 O101 1.279 1_556 S
C107 O108 1.315 . S
C107 O109 1.279 . S
O108 Cd100 2.223 1_556 S
O108 C107 1.315 . S
O109 Cd99 2.240 . S
O109 C107 1.279 . S
O110 Cd100 2.297 . S
O110 C105 1.247 . S
O111 Cd100 2.439 . S
O111 C105 1.208 . S
O112 Cd113 2.223 . S
O112 C120 1.315 . S
Cd113 O112 2.223 . S
Cd113 O116 2.297 . S
Cd113 O117 2.439 . S
Cd113 O123 2.240 . S
Cd114 O115 2.240 . S
Cd114 O122 2.223 . S
Cd114 O124 2.297 . S
Cd114 O125 2.439 . S
O115 Cd114 2.240 . S
O115 C120 1.279 . S
O116 Cd113 2.297 . S
O116 C118 1.247 . S
O117 Cd113 2.439 . S
O117 C118 1.208 . S
C118 O116 1.247 . S
C118 O117 1.208 . S
C119 O124 1.247 . S
C119 O125 1.208 . S
C120 O112 1.315 . S
C120 O115 1.279 . S
C121 O122 1.315 . S
C121 O123 1.279 . S
O122 Cd114 2.223 . S
O122 C121 1.315 . S
O123 Cd113 2.240 . S
O123 C121 1.279 . S
O124 Cd114 2.297 . S
O124 C119 1.247 . S
O125 Cd114 2.439 . S
O125 C119 1.208 . S
O126 Cd127 2.223 . S
O126 C134 1.315 . S
Cd127 O126 2.223 . S
Cd127 O130 2.297 . S
Cd127 O131 2.439 . S
Cd127 O137 2.240 . S
Cd128 O129 2.240 . S
Cd128 O136 2.223 . S
Cd128 O138 2.297 . S
Cd128 O139 2.439 . S
O129 Cd128 2.240 . S
O129 C134 1.279 . S
O130 Cd127 2.297 . S
O130 C132 1.247 . S
O131 Cd127 2.439 . S
O131 C132 1.208 . S
C132 O130 1.247 . S
C132 O131 1.208 . S
C133 O138 1.247 . S
C133 O139 1.208 . S
C134 O126 1.315 . S
C134 O129 1.279 . S
C135 O136 1.315 . S
C135 O137 1.279 . S
O136 Cd128 2.223 . S
O136 C135 1.315 . S
O137 Cd127 2.240 . S
O137 C135 1.279 . S
O138 Cd128 2.297 . S
O138 C133 1.247 . S
O139 Cd128 2.439 . S
O139 C133 1.208 . S
O140 Cd141 2.223 . S
O140 C148 1.315 . S
Cd141 O140 2.223 . S
Cd141 O144 2.297 . S
Cd141 O145 2.439 . S
Cd141 O151 2.240 . S
Cd142 O143 2.240 . S
Cd142 O150 2.223 . S
Cd142 O152 2.297 . S
Cd142 O153 2.439 . S
O143 Cd142 2.240 . S
O143 C148 1.279 . S
O144 Cd141 2.297 . S
O144 C146 1.247 . S
O145 Cd141 2.439 . S
O145 C146 1.208 . S
C146 O144 1.247 . S
C146 O145 1.208 . S
C147 O152 1.247 . S
C147 O153 1.208 . S
C148 O140 1.315 . S
C148 O143 1.279 . S
C149 O150 1.315 . S
C149 O151 1.279 . S
O150 Cd142 2.223 . S
O150 C149 1.315 . S
O151 Cd141 2.240 . S
O151 C149 1.279 . S
O152 Cd142 2.297 . S
O152 C147 1.247 . S
O153 Cd142 2.439 . S
O153 C147 1.208 . S
O154 Cd155 2.223 . S
O154 C162 1.315 . S
Cd155 O154 2.223 . S
Cd155 O158 2.297 . S
Cd155 O159 2.439 . S
Cd155 O165 2.240 . S
Cd156 O157 2.240 . S
Cd156 O164 2.223 . S
Cd156 O166 2.297 . S
Cd156 O167 2.439 . S
O157 Cd156 2.240 . S
O157 C162 1.279 . S
O158 Cd155 2.297 . S
O158 C160 1.247 . S
O159 Cd155 2.439 . S
O159 C160 1.208 . S
C160 O158 1.247 . S
C160 O159 1.208 . S
C161 O166 1.247 . S
C161 O167 1.208 . S
C162 O154 1.315 . S
C162 O157 1.279 . S
C163 O164 1.315 . S
C163 O165 1.279 . S
O164 Cd156 2.223 . S
O164 C163 1.315 . S
O165 Cd155 2.240 . S
O165 C163 1.279 . S
O166 Cd156 2.297 . S
O166 C161 1.247 . S
O167 Cd156 2.439 . S
O167 C161 1.208 . S
C168 C169 1.369 . S
C168 C170 1.419 . S
C168 H172 0.930 . S
C169 C168 1.369 . S
C169 C178 1.429 . S
C170 C168 1.419 . S
C170 C171 1.363 . S
C170 H173 0.929 . S
C171 C170 1.363 . S
C171 C177 1.428 . S
H172 C168 0.930 . S
H173 C170 0.929 . S
S174 N175 1.613 . S
S174 N176 1.610 . S
N175 S174 1.613 . S
N175 C178 1.350 . S
N176 S174 1.610 . S
N176 C177 1.351 . S
C177 C171 1.428 . S
C177 N176 1.351 . S
C177 C178 1.434 . S
C178 C169 1.429 . S
C178 N175 1.350 . S
C178 C177 1.434 . S
C179 C180 1.369 . S
C179 C181 1.419 . S
C179 H183 0.930 . S
C180 C179 1.369 . S
C180 C189 1.429 . S
C181 C179 1.419 . S
C181 C182 1.363 . S
C181 H184 0.929 . S
C182 C181 1.363 . S
C182 C188 1.428 . S
H183 C179 0.930 . S
H184 C181 0.929 . S
S185 N186 1.613 . S
S185 N187 1.610 . S
N186 S185 1.613 . S
N186 C189 1.350 . S
N187 S185 1.610 . S
N187 C188 1.351 . S
C188 C182 1.428 . S
C188 N187 1.351 . S
C188 C189 1.434 . S
C189 C180 1.429 . S
C189 N186 1.350 . S
C189 C188 1.434 . S
C190 C191 1.369 . S
C190 C192 1.419 . S
C190 H194 0.930 . S
C191 C190 1.369 . S
C191 C200 1.429 . S
C192 C190 1.419 . S
C192 C193 1.363 . S
C192 H195 0.929 . S
C193 C192 1.363 . S
C193 C199 1.428 . S
H194 C190 0.930 . S
H195 C192 0.929 . S
S196 N197 1.613 . S
S196 N198 1.610 . S
N197 S196 1.613 . S
N197 C200 1.350 . S
N198 S196 1.610 . S
N198 C199 1.351 . S
C199 C193 1.428 . S
C199 N198 1.351 . S
C199 C200 1.434 . S
C200 C191 1.429 . S
C200 N197 1.350 . S
C200 C199 1.434 . S
C201 C202 1.369 . S
C201 C203 1.419 . S
C201 H205 0.930 . S
C202 C201 1.369 . S
C202 C211 1.429 . S
C203 C201 1.419 . S
C203 C204 1.363 . S
C203 H206 0.929 . S
C204 C203 1.363 . S
C204 C210 1.428 . S
H205 C201 0.930 . S
H206 C203 0.929 . S
S207 N208 1.613 . S
S207 N209 1.610 . S
N208 S207 1.613 . S
N208 C211 1.350 . S
N209 S207 1.610 . S
N209 C210 1.351 . S
C210 C204 1.428 . S
C210 N209 1.351 . S
C210 C211 1.434 . S
C211 C202 1.429 . S
C211 N208 1.350 . S
C211 C210 1.434 . S
C212 C213 1.369 . S
C212 C214 1.419 . S
C212 H216 0.930 . S
C213 C212 1.369 . S
C213 C222 1.429 . S
C214 C212 1.419 . S
C214 C215 1.363 1_556 S
C214 H217 0.929 1_556 S
C215 C214 1.363 1_554 S
C215 C221 1.428 1_554 S
H216 C212 0.930 . S
H217 C214 0.929 1_554 S
S218 N219 1.613 . S
S218 N220 1.610 . S
N219 S218 1.613 . S
N219 C222 1.350 . S
N220 S218 1.610 . S
N220 C221 1.351 . S
C221 C215 1.428 1_556 S
C221 N220 1.351 . S
C221 C222 1.434 . S
C222 C213 1.429 . S
C222 N219 1.350 . S
C222 C221 1.434 . S
C223 C224 1.369 . S
C223 C225 1.419 . S
C223 H227 0.930 . S
C224 C223 1.369 . S
C224 C233 1.429 . S
C225 C223 1.419 . S
C225 C226 1.363 . S
C225 H228 0.929 . S
C226 C225 1.363 . S
C226 C232 1.428 . S
H227 C223 0.930 . S
H228 C225 0.929 . S
S229 N230 1.613 . S
S229 N231 1.610 . S
N230 S229 1.613 . S
N230 C233 1.350 . S
N231 S229 1.610 . S
N231 C232 1.351 . S
C232 C226 1.428 . S
C232 N231 1.351 . S
C232 C233 1.434 . S
C233 C224 1.429 . S
C233 N230 1.350 . S
C233 C232 1.434 . S
C234 C235 1.369 . S
C234 C236 1.419 . S
C234 H238 0.930 . S
C235 C234 1.369 . S
C235 C244 1.429 . S
C236 C234 1.419 . S
C236 C237 1.363 . S
C236 H239 0.929 . S
C237 C236 1.363 . S
C237 C243 1.428 . S
H238 C234 0.930 . S
H239 C236 0.929 . S
S240 N241 1.613 . S
S240 N242 1.610 . S
N241 S240 1.613 . S
N241 C244 1.350 1_556 S
N242 S240 1.610 . S
N242 C243 1.351 1_556 S
C243 C237 1.428 . S
C243 N242 1.351 1_554 S
C243 C244 1.434 . S
C244 C235 1.429 . S
C244 N241 1.350 1_554 S
C244 C243 1.434 . S
C245 C246 1.369 . S
C245 C247 1.419 . S
C245 H249 0.930 . S
C246 C245 1.369 . S
C246 C255 1.429 . S
C247 C245 1.419 . S
C247 C248 1.363 . S
C247 H250 0.929 . S
C248 C247 1.363 . S
C248 C254 1.428 . S
H249 C245 0.930 . S
H250 C247 0.929 . S
S251 N252 1.613 . S
S251 N253 1.610 . S
N252 S251 1.613 . S
N252 C255 1.350 . S
N253 S251 1.610 . S
N253 C254 1.351 . S
C254 C248 1.428 . S
C254 N253 1.351 . S
C254 C255 1.434 . S
C255 C246 1.429 . S
C255 N252 1.350 . S
C255 C254 1.434 . S
C256 C257 1.369 . S
C256 C258 1.419 . S
C256 H260 0.930 . S
C257 C256 1.369 . S
C257 C266 1.429 . S
C258 C256 1.419 . S
C258 C259 1.363 . S
C258 H261 0.929 . S
C259 C258 1.363 . S
C259 C265 1.428 . S
H260 C256 0.930 . S
H261 C258 0.929 . S
S262 N263 1.613 . S
S262 N264 1.610 . S
N263 S262 1.613 . S
N263 C266 1.350 . S
N264 S262 1.610 . S
N264 C265 1.351 . S
C265 C259 1.428 . S
C265 N264 1.351 . S
C265 C266 1.434 . S
C266 C257 1.429 . S
C266 N263 1.350 . S
C266 C265 1.434 . S
C267 C268 1.369 . S
C267 C269 1.419 . S
C267 H271 0.930 . S
C268 C267 1.369 . S
C268 C277 1.429 . S
C269 C267 1.419 . S
C269 C270 1.363 . S
C269 H272 0.929 . S
C270 C269 1.363 . S
C270 C276 1.428 . S
H271 C267 0.930 . S
H272 C269 0.929 . S
S273 N274 1.613 . S
S273 N275 1.610 . S
N274 S273 1.613 . S
N274 C277 1.350 . S
N275 S273 1.610 . S
N275 C276 1.351 . S
C276 C270 1.428 . S
C276 N275 1.351 . S
C276 C277 1.434 . S
C277 C268 1.429 . S
C277 N274 1.350 . S
C277 C276 1.434 . S
C278 C279 1.369 . S
C278 C280 1.419 . S
C278 H282 0.930 . S
C279 C278 1.369 . S
C279 C288 1.429 . S
C280 C278 1.419 . S
C280 C281 1.363 . S
C280 H283 0.929 . S
C281 C280 1.363 . S
C281 C287 1.428 . S
H282 C278 0.930 . S
H283 C280 0.929 . S
S284 N285 1.613 . S
S284 N286 1.610 . S
N285 S284 1.613 . S
N285 C288 1.350 . S
N286 S284 1.610 . S
N286 C287 1.351 . S
C287 C281 1.428 . S
C287 N286 1.351 . S
C287 C288 1.434 . S
C288 C279 1.429 . S
C288 N285 1.350 . S
C288 C287 1.434 . S
C289 C290 1.369 . S
C289 C291 1.419 . S
C289 H293 0.930 1_556 S
C290 C289 1.369 . S
C290 C299 1.429 . S
C291 C289 1.419 . S
C291 C292 1.363 . S
C291 H294 0.929 1_556 S
C292 C291 1.363 . S
C292 C298 1.428 . S
H293 C289 0.930 1_554 S
H294 C291 0.929 1_554 S
S295 N296 1.613 . S
S295 N297 1.610 . S
N296 S295 1.613 . S
N296 C299 1.350 . S
N297 S295 1.610 . S
N297 C298 1.351 . S
C298 C292 1.428 . S
C298 N297 1.351 . S
C298 C299 1.434 . S
C299 C290 1.429 . S
C299 N296 1.350 . S
C299 C298 1.434 . S
C300 C301 1.369 . S
C300 C302 1.419 . S
C300 H304 0.930 . S
C301 C300 1.369 . S
C301 C310 1.429 . S
C302 C300 1.419 . S
C302 C303 1.363 . S
C302 H305 0.929 . S
C303 C302 1.363 . S
C303 C309 1.428 . S
H304 C300 0.930 . S
H305 C302 0.929 . S
S306 N307 1.613 . S
S306 N308 1.610 . S
N307 S306 1.613 . S
N307 C310 1.350 . S
N308 S306 1.610 . S
N308 C309 1.351 . S
C309 C303 1.428 . S
C309 N308 1.351 . S
C309 C310 1.434 . S
C310 C301 1.429 . S
C310 N307 1.350 . S
C310 C309 1.434 . S
C311 C312 1.369 1_556 S
C311 C313 1.419 . S
C311 H315 0.930 . S
C312 C311 1.369 1_554 S
C312 C321 1.429 . S
C313 C311 1.419 . S
C313 C314 1.363 . S
C313 H316 0.929 . S
C314 C313 1.363 . S
C314 C320 1.428 . S
H315 C311 0.930 . S
H316 C313 0.929 . S
S317 N318 1.613 . S
S317 N319 1.610 1_554 S
N318 S317 1.613 . S
N318 C321 1.350 . S
N319 S317 1.610 1_556 S
N319 C320 1.351 . S
C320 C314 1.428 . S
C320 N319 1.351 . S
C320 C321 1.434 1_556 S
C321 C312 1.429 . S
C321 N318 1.350 . S
C321 C320 1.434 1_554 S
C322 C323 1.369 . S
C322 C324 1.419 . S
C322 H326 0.930 . S
C323 C322 1.369 . S
C323 C332 1.429 . S
C324 C322 1.419 . S
C324 C325 1.363 . S
C324 H327 0.939 . S
C325 C324 1.363 . S
C325 C331 1.428 . S
H326 C322 0.930 . S
H327 C324 0.939 . S
S328 N329 1.613 . S
S328 N330 1.610 . S
N329 S328 1.613 . S
N329 C332 1.350 . S
N330 S328 1.610 . S
N330 C331 1.351 . S
C331 C325 1.428 . S
C331 N330 1.351 . S
C331 C332 1.434 . S
C332 C323 1.429 . S
C332 N329 1.350 . S
C332 C331 1.434 . S
C333 C334 1.369 . S
C333 C335 1.419 . S
C333 H337 0.930 . S
C334 C333 1.369 . S
C334 C343 1.429 . S
C335 C333 1.419 . S
C335 C336 1.363 . S
C335 H338 0.929 . S
C336 C335 1.363 . S
C336 C342 1.428 . S
H337 C333 0.930 . S
H338 C335 0.929 . S
S339 N340 1.613 . S
S339 N341 1.610 . S
N340 S339 1.613 . S
N340 C343 1.350 . S
N341 S339 1.610 . S
N341 C342 1.351 . S
C342 C336 1.428 . S
C342 N341 1.351 . S
C342 C343 1.434 . S
C343 C334 1.429 . S
C343 N340 1.350 . S
C343 C342 1.434 . S
C344 C345 1.369 . S
C344 C346 1.419 . S
C344 H348 0.930 . S
C345 C344 1.369 . S
C345 C354 1.429 . S
C346 C344 1.419 . S
C346 C347 1.363 . S
C346 H349 0.929 . S
C347 C346 1.363 . S
C347 C353 1.428 . S
H348 C344 0.930 . S
H349 C346 0.929 . S
S350 N351 1.613 . S
S350 N352 1.610 . S
N351 S350 1.613 . S
N351 C354 1.350 . S
N352 S350 1.610 . S
N352 C353 1.351 . S
C353 C347 1.428 . S
C353 N352 1.351 . S
C353 C354 1.434 . S
C354 C345 1.429 . S
C354 N351 1.350 . S
C354 C353 1.434 . S
C355 C356 1.369 . S
C355 C357 1.419 . S
C355 H359 0.930 . S
C356 C355 1.369 . S
C356 C365 1.429 . S
C357 C355 1.419 . S
C357 C358 1.363 . S
C357 H360 0.929 . S
C358 C357 1.363 . S
C358 C364 1.428 . S
H359 C355 0.930 . S
H360 C357 0.929 . S
S361 N362 1.613 . S
S361 N363 1.610 . S
N362 S361 1.613 . S
N362 C365 1.350 . S
N363 S361 1.610 . S
N363 C364 1.351 . S
C364 C358 1.428 . S
C364 N363 1.351 . S
C364 C365 1.434 . S
C365 C356 1.429 . S
C365 N362 1.350 . S
C365 C364 1.434 . S
C366 C367 1.369 . S
C366 C368 1.419 1_455 S
C366 H370 0.930 . S
C367 C366 1.369 . S
C367 C376 1.429 . S
C368 C366 1.419 1_655 S
C368 C369 1.363 . S
C368 H371 0.929 . S
C369 C368 1.363 . S
C369 C375 1.428 . S
H370 C366 0.930 . S
H371 C368 0.929 . S
S372 N373 1.613 . S
S372 N374 1.610 1_455 S
N373 S372 1.613 . S
N373 C376 1.350 . S
N374 S372 1.610 1_655 S
N374 C375 1.351 . S
C375 C369 1.428 . S
C375 N374 1.351 . S
C375 C376 1.434 1_655 S
C376 C367 1.429 . S
C376 N373 1.350 . S
C376 C375 1.434 1_455 S
C377 C378 1.369 1_554 S
C377 C379 1.419 1_565 S
C377 H381 0.930 1_554 S
C378 C377 1.369 1_556 S
C378 C387 1.429 1_556 S
C379 C377 1.419 1_545 S
C379 C380 1.363 . S
C379 H382 0.929 . S
C380 C379 1.363 . S
C380 C386 1.428 . S
H381 C377 0.930 1_556 S
H382 C379 0.929 . S
S383 N384 1.613 1_554 S
S383 N385 1.610 1_565 S
N384 S383 1.613 1_556 S
N384 C387 1.350 1_556 S
N385 S383 1.610 1_545 S
N385 C386 1.351 . S
C386 C380 1.428 . S
C386 N385 1.351 . S
C386 C387 1.434 1_545 S
C387 C378 1.429 1_554 S
C387 N384 1.350 1_554 S
C387 C386 1.434 1_565 S
C388 C389 1.369 . S
C388 C390 1.419 . S
C388 H392 0.930 . S
C389 C388 1.369 . S
C389 C398 1.429 . S
C390 C388 1.419 . S
C390 C391 1.363 . S
C390 H393 0.929 . S
C391 C390 1.363 . S
C391 C397 1.428 . S
H392 C388 0.930 . S
H393 C390 0.929 . S
S394 N395 1.613 . S
S394 N396 1.610 . S
N395 S394 1.613 . S
N395 C398 1.350 . S
N396 S394 1.610 . S
N396 C397 1.351 . S
C397 C391 1.428 . S
C397 N396 1.351 . S
C397 C398 1.434 . S
C398 C389 1.429 . S
C398 N395 1.350 . S
C398 C397 1.434 . S
C399 C400 1.369 1_655 S
C399 C401 1.419 . S
C399 H403 0.930 . S
C400 C399 1.369 1_455 S
C400 C409 1.429 . S
C401 C399 1.419 . S
C401 C402 1.363 . S
C401 H404 0.929 . S
C402 C401 1.363 . S
C402 C408 1.428 1_655 S
H403 C399 0.930 . S
H404 C401 0.929 . S
S405 N406 1.613 . S
S405 N407 1.610 . S
N406 S405 1.613 . S
N406 C409 1.350 . S
N407 S405 1.610 . S
N407 C408 1.351 . S
C408 C402 1.428 1_455 S
C408 N407 1.351 . S
C408 C409 1.434 . S
C409 C400 1.429 . S
C409 N406 1.350 . S
C409 C408 1.434 . S
C410 C411 1.369 . S
C410 C412 1.403 1_545 S
C410 H414 0.930 . S
C411 C410 1.369 . S
C411 C420 1.429 1_545 S
C412 C410 1.403 1_565 S
C412 C413 1.373 . S
C412 H415 0.939 1_565 S
C413 C412 1.373 . S
C413 C419 1.428 . S
H414 C410 0.930 . S
H415 C412 0.939 1_545 S
S416 N417 1.613 . S
S416 N418 1.610 . S
N417 S416 1.613 . S
N417 C420 1.350 . S
N418 S416 1.610 . S
N418 C419 1.351 . S
C419 C413 1.428 . S
C419 N418 1.351 . S
C419 C420 1.434 . S
C420 C411 1.429 1_565 S
C420 N417 1.350 . S
C420 C419 1.434 . S
C421 C422 1.369 . S
C421 C423 1.419 . S
C421 H425 0.930 . S
C422 C421 1.369 . S
C422 C431 1.429 . S
C423 C421 1.419 . S
C423 C424 1.363 . S
C423 H426 0.929 . S
C424 C423 1.363 . S
C424 C430 1.428 . S
H425 C421 0.930 . S
H426 C423 0.929 . S
S427 N428 1.613 . S
S427 N429 1.610 . S
N428 S427 1.613 . S
N428 C431 1.350 . S
N429 S427 1.610 . S
N429 C430 1.351 . S
C430 C424 1.428 . S
C430 N429 1.351 . S
C430 C431 1.434 . S
C431 C422 1.429 . S
C431 N428 1.350 . S
C431 C430 1.434 . S
C169 C9 1.967 . S
C171 C149 1.964 . S
C180 C163 1.967 . S
C182 C23 1.961 . S
C191 C37 1.966 . S
C193 C93 1.965 . S
C202 C51 1.962 . S
C204 C107 1.963 . S
C213 C65 1.961 . S
C215 C121 1.964 . S
C224 C135 1.967 . S
C226 C79 1.965 1_554 S
C235 C8 1.647 . S
C237 C120 1.650 . S
C246 C22 1.647 . S
C248 C134 1.650 . S
C257 C148 1.651 . S
C259 C36 1.648 . S
C268 C50 1.648 . S
C270 C162 1.646 . S
C279 C64 1.650 . S
C281 C92 1.647 . S
C290 C78 1.650 . S
C292 C106 1.650 . S
C301 C147 0.943 . S
C303 C7 0.942 . S
C312 C21 0.940 . S
C314 C161 0.937 . S
C323 C35 0.937 . S
C325 C91 0.935 . S
C334 C49 0.940 . S
C336 C105 0.938 . S
C345 C119 0.933 . S
C347 C63 0.936 . S
C356 C77 0.939 . S
C358 C133 0.937 . S
C367 C6 1.595 . S
C369 C160 1.595 . S
C378 C90 1.595 . S
C380 C20 1.595 . S
C389 C104 1.595 . S
C391 C34 1.595 . S
C400 C118 1.595 . S
C402 C48 1.595 . S
C411 C132 1.595 . S
C413 C62 1.595 . S
C422 C146 1.596 . S
C424 C76 1.595 . S
