# Generated by pormake.
# Topology zfw, (5)-cn, num edge types: 1
# Building blocks:
#     Node 0, Type 0, BuildingBlock: XOMCOT_clean_sbu_0, # of connection points: 5
#     Node 1, Type 0, BuildingBlock: XOMCOT_clean_sbu_0, # of connection points: 5
#     Node 2, Type 0, BuildingBlock: XOMCOT_clean_sbu_0, # of connection points: 5
#     Node 3, Type 0, BuildingBlock: XOMCOT_clean_sbu_0, # of connection points: 5
#     Node 4, Type 0, BuildingBlock: XOMCOT_clean_sbu_0, # of connection points: 5
#     Node 5, Type 0, BuildingBlock: XOMCOT_clean_sbu_0, # of connection points: 5
#     Node 6, Type 0, BuildingBlock: XOMCOT_clean_sbu_0, # of connection points: 5
#     Node 7, Type 0, BuildingBlock: XOMCOT_clean_sbu_0, # of connection points: 5
#     Node 8, Type 0, BuildingBlock: XOMCOT_clean_sbu_0, # of connection points: 5
#     Node 9, Type 0, BuildingBlock: XOMCOT_clean_sbu_0, # of connection points: 5
#     Node 10, Type 0, BuildingBlock: XOMCOT_clean_sbu_0, # of connection points: 5
#     Node 11, Type 0, BuildingBlock: XOMCOT_clean_sbu_0, # of connection points: 5
#     Node 12, Type 0, BuildingBlock: XOMCOT_clean_sbu_0, # of connection points: 5
#     Node 13, Type 0, BuildingBlock: XOMCOT_clean_sbu_0, # of connection points: 5
#     Node 14, Type 0, BuildingBlock: XOMCOT_clean_sbu_0, # of connection points: 5
#     Node 15, Type 0, BuildingBlock: XOMCOT_clean_sbu_0, # of connection points: 5
#     Edge 16, Type (0, 0), BuildingBlock: XIVTED_clean_linker_0, # of connection points: 2
#     Edge 17, Type (0, 0), BuildingBlock: XIVTED_clean_linker_0, # of connection points: 2
#     Edge 18, Type (0, 0), BuildingBlock: XIVTED_clean_linker_0, # of connection points: 2
#     Edge 19, Type (0, 0), BuildingBlock: XIVTED_clean_linker_0, # of connection points: 2
#     Edge 20, Type (0, 0), BuildingBlock: XIVTED_clean_linker_0, # of connection points: 2
#     Edge 21, Type (0, 0), BuildingBlock: XIVTED_clean_linker_0, # of connection points: 2
#     Edge 22, Type (0, 0), BuildingBlock: XIVTED_clean_linker_0, # of connection points: 2
#     Edge 23, Type (0, 0), BuildingBlock: XIVTED_clean_linker_0, # of connection points: 2
#     Edge 24, Type (0, 0), BuildingBlock: XIVTED_clean_linker_0, # of connection points: 2
#     Edge 25, Type (0, 0), BuildingBlock: XIVTED_clean_linker_0, # of connection points: 2
#     Edge 26, Type (0, 0), BuildingBlock: XIVTED_clean_linker_0, # of connection points: 2
#     Edge 27, Type (0, 0), BuildingBlock: XIVTED_clean_linker_0, # of connection points: 2
#     Edge 28, Type (0, 0), BuildingBlock: XIVTED_clean_linker_0, # of connection points: 2
#     Edge 29, Type (0, 0), BuildingBlock: XIVTED_clean_linker_0, # of connection points: 2
#     Edge 30, Type (0, 0), BuildingBlock: XIVTED_clean_linker_0, # of connection points: 2
#     Edge 31, Type (0, 0), BuildingBlock: XIVTED_clean_linker_0, # of connection points: 2
#     Edge 32, Type (0, 0), BuildingBlock: XIVTED_clean_linker_0, # of connection points: 2
#     Edge 33, Type (0, 0), BuildingBlock: XIVTED_clean_linker_0, # of connection points: 2
#     Edge 34, Type (0, 0), BuildingBlock: XIVTED_clean_linker_0, # of connection points: 2
#     Edge 35, Type (0, 0), BuildingBlock: XIVTED_clean_linker_0, # of connection points: 2
#     Edge 36, Type (0, 0), BuildingBlock: XIVTED_clean_linker_0, # of connection points: 2
#     Edge 37, Type (0, 0), BuildingBlock: XIVTED_clean_linker_0, # of connection points: 2
#     Edge 38, Type (0, 0), BuildingBlock: XIVTED_clean_linker_0, # of connection points: 2
#     Edge 39, Type (0, 0), BuildingBlock: XIVTED_clean_linker_0, # of connection points: 2
#     Edge 40, Type (0, 0), BuildingBlock: XIVTED_clean_linker_0, # of connection points: 2
#     Edge 41, Type (0, 0), BuildingBlock: XIVTED_clean_linker_0, # of connection points: 2
#     Edge 42, Type (0, 0), BuildingBlock: XIVTED_clean_linker_0, # of connection points: 2
#     Edge 43, Type (0, 0), BuildingBlock: XIVTED_clean_linker_0, # of connection points: 2
#     Edge 44, Type (0, 0), BuildingBlock: XIVTED_clean_linker_0, # of connection points: 2
#     Edge 45, Type (0, 0), BuildingBlock: XIVTED_clean_linker_0, # of connection points: 2
#     Edge 46, Type (0, 0), BuildingBlock: XIVTED_clean_linker_0, # of connection points: 2
#     Edge 47, Type (0, 0), BuildingBlock: XIVTED_clean_linker_0, # of connection points: 2
#     Edge 48, Type (0, 0), BuildingBlock: XIVTED_clean_linker_0, # of connection points: 2
#     Edge 49, Type (0, 0), BuildingBlock: XIVTED_clean_linker_0, # of connection points: 2
#     Edge 50, Type (0, 0), BuildingBlock: XIVTED_clean_linker_0, # of connection points: 2
#     Edge 51, Type (0, 0), BuildingBlock: XIVTED_clean_linker_0, # of connection points: 2
#     Edge 52, Type (0, 0), BuildingBlock: XIVTED_clean_linker_0, # of connection points: 2
#     Edge 53, Type (0, 0), BuildingBlock: XIVTED_clean_linker_0, # of connection points: 2
#     Edge 54, Type (0, 0), BuildingBlock: XIVTED_clean_linker_0, # of connection points: 2
#     Edge 55, Type (0, 0), BuildingBlock: XIVTED_clean_linker_0, # of connection points: 2
# Relax obj value: 0.254
# Max RMSD: 0.217
# Mean RMSD: 0.201
data_MOF--net-zfw--node1-XOMCOT_clean_sbu_0--edge1-XIVTED_clean_linker_0
_symmetry_space_group_name_H-M    P1
_symmetry_Int_Tables_number       1
_symmetry_cell_setting            triclinic
loop_
_symmetry_equiv_pos_as_xyz
'x, y, z'
_cell_length_a     69.305912
_cell_length_b     68.592804
_cell_length_c     17.177165
_cell_angle_alpha  90.024433
_cell_angle_beta   89.928095
_cell_angle_gamma 89.913305
loop_
_atom_site_label
_atom_site_type_symbol
_atom_site_fract_x
_atom_site_fract_y
_atom_site_fract_z
_atom_type_partial_charge
Co0 Co 0.09332 0.09325 0.24408 0.0
C1 C 0.09809 0.08716 0.4121 0.0
C2 C 0.10169 0.0602 0.35149 0.0
C3 C 0.10489 0.05697 0.42981 0.0
N4 N 0.0967 0.07908 0.34091 0.0
N5 N 0.10278 0.0741 0.46704 0.0
H6 H 0.09656 0.10249 0.42405 0.0
H7 H 0.10372 0.04961 0.30564 0.0
C8 C 0.07551 0.05404 0.19943 0.0
O9 O 0.06538 0.05328 0.26407 0.0
N10 N 0.09066 0.10711 0.14784 0.0
C11 C 0.08297 0.1248 0.13328 0.0
C12 C 0.083 0.1277 0.05348 0.0
C13 C 0.09547 0.09968 0.07835 0.0
N14 N 0.09069 0.11171 0.01992 0.0
C15 C 0.06289 0.11118 0.3304 0.0
C16 C 0.03237 0.09994 0.23782 0.0
C17 C 0.0287 0.11156 0.30362 0.0
C18 C 0.04434 0.11718 0.34964 0.0
C19 C 0.05137 0.09395 0.22113 0.0
N20 N 0.06634 0.09908 0.26885 0.0
H21 H 0.07453 0.11734 0.36316 0.0
H22 H 0.05405 0.08586 0.16829 0.0
H23 H 0.07721 0.13455 0.17708 0.0
H24 H 0.10213 0.08556 0.0704 0.0
O25 O 0.10495 0.11591 0.29087 0.0
O26 O 0.12114 0.09267 0.22908 0.0
O27 O 0.08669 0.06845 0.18601 0.0
C28 C 0.12143 0.10896 0.26804 0.0
H29 H 0.10915 0.04337 0.45676 0.0
H30 H 0.0771 0.14008 0.02252 0.0
H31 H 0.02078 0.09576 0.1991 0.0
H32 H 0.04245 0.12706 0.39832 0.0
Co33 Co 0.23586 0.7745 0.5275 0.0
C34 C 0.24446 0.7709 0.69472 0.0
C35 C 0.26762 0.78475 0.63381 0.0
C36 C 0.27157 0.78529 0.71263 0.0
N37 N 0.25066 0.77551 0.62281 0.0
N38 N 0.25695 0.77642 0.75028 0.0
H39 H 0.23037 0.76527 0.7078 0.0
H40 H 0.27602 0.79153 0.58817 0.0
C41 C 0.27478 0.75815 0.47667 0.0
O42 O 0.276 0.74723 0.53928 0.0
N43 N 0.22149 0.77399 0.43215 0.0
C44 C 0.20445 0.76542 0.41677 0.0
C45 C 0.20138 0.76622 0.3374 0.0
C46 C 0.22832 0.7802 0.36332 0.0
N47 N 0.21648 0.77549 0.30423 0.0
C48 C 0.21579 0.74297 0.59911 0.0
C49 C 0.23098 0.71253 0.51389 0.0
C50 C 0.21811 0.7084 0.57496 0.0
C51 C 0.21027 0.72403 0.61644 0.0
C52 C 0.23638 0.73198 0.49894 0.0
N53 N 0.22957 0.7469 0.5444 0.0
H54 H 0.20843 0.75448 0.62954 0.0
H55 H 0.24553 0.7349 0.44956 0.0
H56 H 0.19541 0.75828 0.45942 0.0
H57 H 0.24234 0.78687 0.35611 0.0
O58 O 0.2141 0.78582 0.58122 0.0
O59 O 0.23677 0.80289 0.52137 0.0
O60 O 0.25996 0.76884 0.46503 0.0
C61 C 0.22094 0.80273 0.56226 0.0
H62 H 0.2838 0.79225 0.74014 0.0
H63 H 0.18936 0.75984 0.30636 0.0
H64 H 0.23675 0.70093 0.47796 0.0
H65 H 0.19936 0.72174 0.66072 0.0
Co66 Co 0.55266 0.91332 0.76135 0.0
C67 C 0.55593 0.92294 0.92814 0.0
C68 C 0.53863 0.94387 0.86775 0.0
C69 C 0.53751 0.94768 0.94656 0.0
N70 N 0.55038 0.92843 0.85626 0.0
N71 N 0.54846 0.93444 0.98415 0.0
H72 H 0.56368 0.90974 0.94077 0.0
H73 H 0.53056 0.95115 0.82236 0.0
C74 C 0.56605 0.95395 0.71298 0.0
O75 O 0.57229 0.95798 0.78329 0.0
N76 N 0.55434 0.89854 0.66657 0.0
C77 C 0.56391 0.88184 0.65187 0.0
C78 C 0.56376 0.87869 0.57241 0.0
C79 C 0.54821 0.90506 0.59711 0.0
N80 N 0.55391 0.8934 0.53839 0.0
C81 C 0.58374 0.89307 0.83459 0.0
C82 C 0.61415 0.91055 0.75811 0.0
C83 C 0.61805 0.89653 0.81555 0.0
C84 C 0.6025 0.88771 0.85321 0.0
C85 C 0.59493 0.91587 0.74222 0.0
N86 N 0.57994 0.90762 0.78244 0.0
H87 H 0.57226 0.88519 0.86266 0.0
H88 H 0.59232 0.92611 0.69591 0.0
H89 H 0.57127 0.87311 0.69503 0.0
H90 H 0.54086 0.91885 0.58933 0.0
O91 O 0.54132 0.8914 0.81475 0.0
O92 O 0.52463 0.91376 0.75083 0.0
O93 O 0.55871 0.93733 0.69753 0.0
C94 C 0.52466 0.898 0.79305 0.0
H95 H 0.52867 0.95873 0.97411 0.0
H96 H 0.57093 0.86691 0.54194 0.0
H97 H 0.6258 0.91722 0.72562 0.0
H98 H 0.60476 0.87616 0.89527 0.0
Co99 Co 0.40956 0.23864 0.00614 0.0
C100 C 0.40285 0.2373 0.17487 0.0
C101 C 0.37594 0.2352 0.11517 0.0
C102 C 0.37248 0.234 0.19439 0.0
N103 N 0.39505 0.23794 0.1032 0.0
N104 N 0.38952 0.23564 0.23101 0.0
H105 H 0.41817 0.23774 0.18672 0.0
H106 H 0.36519 0.2336 0.07024 0.0
C107 C 0.37213 0.25391 0.9401 0.0
O108 O 0.37278 0.26874 0.98845 0.0
N109 N 0.42379 0.23824 0.91012 0.0
C110 C 0.44151 0.24539 0.8953 0.0
C111 C 0.44508 0.24348 0.81664 0.0
C112 C 0.41709 0.23161 0.84181 0.0
N113 N 0.42963 0.23485 0.78343 0.0
C114 C 0.41902 0.27507 0.07918 0.0
C115 C 0.41875 0.29771 0.9465 0.0
C116 C 0.42584 0.30568 0.01606 0.0
C117 C 0.42519 0.29431 0.0833 0.0
C118 C 0.41188 0.27844 0.94557 0.0
N119 N 0.41251 0.2671 0.01124 0.0
H120 H 0.42119 0.26638 0.12992 0.0
H121 H 0.40716 0.2723 0.89086 0.0
H122 H 0.45073 0.2523 0.93789 0.0
H123 H 0.40282 0.22557 0.83412 0.0
O124 O 0.43287 0.23204 0.06011 0.0
O125 O 0.41239 0.21035 0.01242 0.0
O126 O 0.38483 0.2404 0.94368 0.0
C127 C 0.42851 0.21385 0.04914 0.0
H128 H 0.35863 0.23219 0.2227 0.0
H129 H 0.45772 0.24865 0.78601 0.0
H130 H 0.41935 0.30596 0.89281 0.0
H131 H 0.43119 0.2996 0.13757 0.0
Co132 Co 0.09063 0.91043 0.74032 0.0
C133 C 0.0869 0.91983 0.57355 0.0
C134 C 0.10389 0.94111 0.63329 0.0
C135 C 0.1047 0.94496 0.55448 0.0
N136 N 0.09254 0.92541 0.64513 0.0
N137 N 0.09393 0.93151 0.5174 0.0
H138 H 0.07938 0.9065 0.56112 0.0
H139 H 0.11186 0.94857 0.67844 0.0
C140 C 0.0756 0.95055 0.78525 0.0
O141 O 0.0688 0.95346 0.71487 0.0
N142 N 0.08933 0.89582 0.83536 0.0
C143 C 0.08019 0.87893 0.8507 0.0
C144 C 0.08073 0.87584 0.93014 0.0
C145 C 0.09559 0.90251 0.9043 0.0
N146 N 0.09041 0.89074 0.96336 0.0
C147 C 0.06018 0.8892 0.66729 0.0
C148 C 0.0292 0.90661 0.74062 0.0
C149 C 0.02572 0.89257 0.68285 0.0
C150 C 0.04157 0.88367 0.6472 0.0
C151 C 0.04827 0.91201 0.75829 0.0
N152 N 0.06355 0.90394 0.71906 0.0
H153 H 0.07191 0.88145 0.64012 0.0
H154 H 0.05054 0.92227 0.80484 0.0
H155 H 0.07291 0.87001 0.80801 0.0
H156 H 0.10268 0.91644 0.91152 0.0
O157 O 0.10273 0.88874 0.68782 0.0
O158 O 0.11861 0.91175 0.75123 0.0
O159 O 0.08383 0.93448 0.80281 0.0
C160 C 0.11915 0.89591 0.70949 0.0
H161 H 0.11319 0.95619 0.52653 0.0
H162 H 0.07396 0.86394 0.96119 0.0
H163 H 0.01733 0.91334 0.77171 0.0
H164 H 0.03963 0.87208 0.60502 0.0
Co165 Co 0.41204 0.77285 0.99042 0.0
C166 C 0.40514 0.7793 0.82339 0.0
C167 C 0.3783 0.77507 0.88224 0.0
C168 C 0.3746 0.77829 0.80437 0.0
N169 N 0.39759 0.77515 0.89377 0.0
N170 N 0.3916 0.78101 0.76801 0.0
H171 H 0.42039 0.78066 0.81189 0.0
H172 H 0.36744 0.77331 0.92661 0.0
C173 C 0.37535 0.75368 0.05372 0.0
O174 O 0.37649 0.73917 0.00397 0.0
N175 N 0.42586 0.77146 0.08686 0.0
C176 C 0.44334 0.76391 0.10364 0.0
C177 C 0.44575 0.76447 0.18368 0.0
C178 C 0.41819 0.77688 0.1551 0.0
N179 N 0.42971 0.77241 0.21508 0.0
C180 C 0.42549 0.74047 0.90149 0.0
C181 C 0.42236 0.7121 0.01455 0.0
C182 C 0.4305 0.7071 0.94213 0.0
C183 C 0.43189 0.72168 0.8855 0.0
C184 C 0.41599 0.73128 0.02815 0.0
N185 N 0.41726 0.74519 0.97119 0.0
H186 H 0.42832 0.75145 0.85864 0.0
H187 H 0.41049 0.73505 0.08513 0.0
H188 H 0.45314 0.75764 0.0614 0.0
H189 H 0.40407 0.78347 0.1612 0.0
O190 O 0.43476 0.7831 0.94035 0.0
O191 O 0.41238 0.80116 -0.00164 0.0
O192 O 0.38742 0.76774 0.0511 0.0
C193 C 0.42853 0.80032 0.95944 0.0
H194 H 0.36056 0.77877 0.7769 0.0
H195 H 0.45776 0.75856 0.2163 0.0
H196 H 0.42123 0.70142 0.06073 0.0
H197 H 0.4389 0.71897 0.83015 0.0
Co198 Co 0.55271 0.09458 0.23356 0.0
C199 C 0.54533 0.08891 0.06623 0.0
C200 C 0.54444 0.06151 0.1251 0.0
C201 C 0.54082 0.05838 0.04713 0.0
N202 N 0.54804 0.08066 0.1366 0.0
N203 N 0.54137 0.07573 0.01063 0.0
H204 H 0.54625 0.10437 0.05518 0.0
H205 H 0.54381 0.05048 0.16972 0.0
C206 C 0.56739 0.05483 0.28769 0.0
O207 O 0.57969 0.05384 0.22956 0.0
N208 N 0.55641 0.10821 0.32999 0.0
C209 C 0.56581 0.12499 0.34501 0.0
C210 C 0.56566 0.128 0.42474 0.0
C211 C 0.55037 0.10154 0.39909 0.0
N212 N 0.55611 0.11303 0.45785 0.0
C213 C 0.58548 0.10539 0.14305 0.0
C214 C 0.61353 0.09851 0.25348 0.0
C215 C 0.61881 0.10756 0.18312 0.0
C216 C 0.60445 0.11057 0.12731 0.0
C217 C 0.59419 0.09319 0.26651 0.0
N218 N 0.58035 0.09669 0.21139 0.0
H219 H 0.5748 0.10988 0.10188 0.0
H220 H 0.5902 0.0872 0.32245 0.0
H221 H 0.57282 0.13396 0.30162 0.0
H222 H 0.54208 0.08835 0.40653 0.0
O223 O 0.54488 0.11871 0.18634 0.0
O224 O 0.5249 0.09811 0.24436 0.0
O225 O 0.55574 0.06924 0.29326 0.0
C226 C 0.52736 0.11452 0.20725 0.0
H227 H 0.53776 0.04452 0.01972 0.0
H228 H 0.57273 0.13968 0.45602 0.0
H229 H 0.62409 0.09615 0.29893 0.0
H230 H 0.6075 0.11825 0.07359 0.0
Co231 Co 0.23523 0.23188 0.4582 0.0
C232 C 0.24366 0.23582 0.29075 0.0
C233 C 0.2675 0.2232 0.35153 0.0
C234 C 0.27147 0.22281 0.27267 0.0
N235 N 0.2501 0.23161 0.3627 0.0
N236 N 0.25642 0.23091 0.2351 0.0
H237 H 0.22927 0.24064 0.27766 0.0
H238 H 0.27623 0.21682 0.39706 0.0
C239 C 0.2736 0.24878 0.51107 0.0
O240 O 0.27439 0.26045 0.45052 0.0
N241 N 0.22081 0.23164 0.55366 0.0
C242 C 0.20349 0.23966 0.56924 0.0
C243 C 0.20042 0.23871 0.64861 0.0
C244 C 0.22782 0.22558 0.6224 0.0
N245 N 0.21582 0.22989 0.68162 0.0
C246 C 0.21514 0.26371 0.38849 0.0
C247 C 0.22832 0.29337 0.48268 0.0
C248 C 0.21577 0.2979 0.42108 0.0
C249 C 0.20905 0.28267 0.37463 0.0
C250 C 0.23442 0.27397 0.49372 0.0
N251 N 0.22854 0.25948 0.44426 0.0
H252 H 0.20827 0.25238 0.35547 0.0
H253 H 0.24326 0.27064 0.54361 0.0
H254 H 0.19426 0.2466 0.52674 0.0
H255 H 0.24207 0.21937 0.62951 0.0
O256 O 0.21364 0.22063 0.4036 0.0
O257 O 0.23661 0.20353 0.4617 0.0
O258 O 0.2592 0.23747 0.52092 0.0
C259 C 0.22077 0.20372 0.42103 0.0
H260 H 0.28404 0.21644 0.24508 0.0
H261 H 0.18821 0.24473 0.67977 0.0
H262 H 0.2332 0.30462 0.52223 0.0
H263 H 0.19839 0.28521 0.32963 0.0
Co264 Co 0.90931 0.27365 0.47349 0.0
C265 C 0.90254 0.28028 0.30654 0.0
C266 C 0.87565 0.27606 0.36514 0.0
C267 C 0.872 0.27937 0.28733 0.0
N268 N 0.89494 0.27607 0.37676 0.0
N269 N 0.88901 0.28208 0.25111 0.0
H270 H 0.9178 0.28163 0.29521 0.0
H271 H 0.86477 0.27429 0.40942 0.0
C272 C 0.87261 0.25423 0.53545 0.0
O273 O 0.87386 0.23977 0.48558 0.0
N274 N 0.92306 0.27215 0.57004 0.0
C275 C 0.94067 0.26488 0.58664 0.0
C276 C 0.94309 0.26542 0.66666 0.0
C277 C 0.91531 0.27738 0.63836 0.0
N278 N 0.92693 0.27307 0.69822 0.0
C279 C 0.92289 0.2413 0.3842 0.0
C280 C 0.92018 0.21311 0.49824 0.0
C281 C 0.9285 0.20813 0.42621 0.0
C282 C 0.92959 0.22257 0.36887 0.0
C283 C 0.91347 0.23219 0.51109 0.0
N284 N 0.91463 0.24603 0.45385 0.0
H285 H 0.92556 0.25224 0.341 0.0
H286 H 0.90787 0.23597 0.5679 0.0
H287 H 0.95058 0.25887 0.54424 0.0
H288 H 0.90112 0.2838 0.64457 0.0
O289 O 0.93203 0.28412 0.42411 0.0
O290 O 0.90948 0.3019 0.48256 0.0
O291 O 0.88467 0.2683 0.53348 0.0
C292 C 0.92571 0.30124 0.44418 0.0
H293 H 0.85797 0.27991 0.2598 0.0
H294 H 0.95523 0.25974 0.69915 0.0
H295 H 0.91924 0.20252 0.54482 0.0
H296 H 0.93666 0.21982 0.31367 0.0
Co297 Co 0.73102 0.73373 -0.00124 0.0
C298 C 0.74035 0.73696 0.83168 0.0
C299 C 0.76132 0.71982 0.89215 0.0
C300 C 0.76506 0.71865 0.81333 0.0
N301 N 0.7459 0.73152 0.90358 0.0
N302 N 0.75179 0.7295 0.77572 0.0
H303 H 0.72718 0.74459 0.81902 0.0
H304 H 0.76865 0.71182 0.93763 0.0
C305 C 0.77108 0.7476 0.04509 0.0
O306 O 0.77433 0.7546 0.97516 0.0
N307 N 0.71648 0.73532 0.09376 0.0
C308 C 0.69975 0.74466 0.10829 0.0
C309 C 0.69653 0.74435 0.18767 0.0
C310 C 0.72296 0.72916 0.1632 0.0
N311 N 0.71122 0.73462 0.22178 0.0
C312 C 0.71114 0.76528 0.92579 0.0
C313 C 0.7279 0.7958 0.00532 0.0
C314 C 0.71424 0.79988 0.94729 0.0
C315 C 0.70577 0.78427 0.90808 0.0
C316 C 0.73326 0.77635 0.02024 0.0
N317 N 0.72538 0.76132 0.97846 0.0
H318 H 0.70344 0.75374 0.89697 0.0
H319 H 0.74318 0.77356 0.06716 0.0
H320 H 0.69101 0.75193 0.06501 0.0
H321 H 0.7367 0.72192 0.1711 0.0
O322 O 0.70926 0.7224 0.94564 0.0
O323 O 0.73147 0.70541 0.00868 0.0
O324 O 0.75493 0.7397 0.06174 0.0
C325 C 0.71585 0.70553 0.9667 0.0
H326 H 0.77609 0.70982 0.78581 0.0
H327 H 0.68469 0.75131 0.21803 0.0
H328 H 0.73427 0.80747 0.03907 0.0
H329 H 0.69446 0.78665 0.8656 0.0
Co330 Co 0.73271 0.2745 0.00467 0.0
C331 C 0.741 0.27004 0.1717 0.0
C332 C 0.765 0.28252 0.11139 0.0
C333 C 0.76886 0.28281 0.19028 0.0
N334 N 0.74756 0.27429 0.09995 0.0
N335 N 0.7537 0.27483 0.2276 0.0
H336 H 0.72656 0.2653 0.18436 0.0
H337 H 0.77381 0.28888 0.06602 0.0
C338 C 0.77071 0.25623 0.95316 0.0
O339 O 0.77138 0.24509 0.0153 0.0
N340 N 0.71829 0.27517 0.90946 0.0
C341 C 0.70068 0.26785 0.89432 0.0
C342 C 0.69756 0.26893 0.81504 0.0
C343 C 0.72544 0.28094 0.84053 0.0
N344 N 0.71323 0.27713 0.78164 0.0
C345 C 0.7109 0.24389 0.07463 0.0
C346 C 0.72473 0.21291 0.98871 0.0
C347 C 0.71172 0.20926 0.04984 0.0
C348 C 0.70455 0.22518 0.09155 0.0
C349 C 0.73096 0.23211 0.97417 0.0
N350 N 0.72486 0.24726 0.02008 0.0
H351 H 0.70411 0.2557 0.10542 0.0
H352 H 0.74026 0.23468 0.92492 0.0
H353 H 0.69122 0.26133 0.93708 0.0
H354 H 0.73989 0.2866 0.83307 0.0
O355 O 0.7117 0.28698 0.05923 0.0
O356 O 0.73537 0.30277 0.00015 0.0
O357 O 0.75643 0.26765 0.94183 0.0
C358 C 0.71962 0.3035 0.04142 0.0
H359 H 0.78141 0.28908 0.21807 0.0
H360 H 0.68509 0.26344 0.7842 0.0
H361 H 0.73001 0.2011 0.95264 0.0
H362 H 0.69359 0.22329 0.13599 0.0
Co363 Co 0.91212 0.73404 0.51341 0.0
C364 C 0.90721 0.72614 0.68069 0.0
C365 C 0.8801 0.72379 0.62254 0.0
C366 C 0.87735 0.71969 0.70036 0.0
N367 N 0.89877 0.72867 0.61077 0.0
N368 N 0.89452 0.72113 0.73628 0.0
H369 H 0.92247 0.72786 0.6914 0.0
H370 H 0.86919 0.72255 0.5781 0.0
C371 C 0.87228 0.74782 0.46431 0.0
O372 O 0.87144 0.75967 0.52435 0.0
N373 N 0.92523 0.73834 0.41653 0.0
C374 C 0.94176 0.74797 0.40129 0.0
C375 C 0.94457 0.74806 0.32146 0.0
C376 C 0.9185 0.73242 0.34747 0.0
N377 N 0.92972 0.73843 0.2886 0.0
C378 C 0.92157 0.76764 0.60384 0.0
C379 C 0.91436 0.79541 0.49135 0.0
C380 C 0.92314 0.80116 0.56138 0.0
C381 C 0.92624 0.78699 0.61846 0.0
C382 C 0.90947 0.77574 0.47961 0.0
N383 N 0.91327 0.76202 0.53548 0.0
H384 H 0.92617 0.7571 0.6458 0.0
H385 H 0.90367 0.77139 0.42386 0.0
H386 H 0.95072 0.75493 0.44466 0.0
H387 H 0.90547 0.72398 0.34011 0.0
O388 O 0.93637 0.727 0.55946 0.0
O389 O 0.9166 0.7061 0.50206 0.0
O390 O 0.88676 0.73646 0.45538 0.0
C391 C 0.93284 0.70918 0.53844 0.0
H392 H 0.8639 0.71564 0.72804 0.0
H393 H 0.95605 0.75529 0.28999 0.0
H394 H 0.91192 0.80584 0.44509 0.0
H395 H 0.93368 0.79047 0.67212 0.0
Co396 Co 0.59312 0.59122 0.76461 0.0
C397 C 0.5992 0.58465 0.93215 0.0
C398 C 0.59849 0.5573 0.87277 0.0
C399 C 0.60152 0.55387 0.95108 0.0
N400 N 0.59634 0.57669 0.8613 0.0
N401 N 0.60206 0.5712 0.98771 0.0
H402 H 0.59931 0.6001 0.94374 0.0
H403 H 0.59856 0.5463 0.82792 0.0
C404 C 0.57606 0.55257 0.7071 0.0
O405 O 0.5636 0.55182 0.76474 0.0
N406 N 0.59072 0.60539 0.6687 0.0
C407 C 0.58168 0.62238 0.65312 0.0
C408 C 0.58188 0.62519 0.57325 0.0
C409 C 0.59662 0.59844 0.59976 0.0
N410 N 0.59113 0.60993 0.54062 0.0
C411 C 0.56128 0.6051 0.85366 0.0
C412 C 0.53239 0.59824 0.74683 0.0
C413 C 0.52774 0.60772 0.81706 0.0
C414 C 0.54256 0.61095 0.87064 0.0
C415 C 0.55153 0.59232 0.73243 0.0
N416 N 0.56571 0.59555 0.7863 0.0
H417 H 0.57234 0.60949 0.89334 0.0
H418 H 0.55505 0.5859 0.67673 0.0
H419 H 0.57463 0.63148 0.69607 0.0
H420 H 0.60433 0.58486 0.59258 0.0
O421 O 0.60296 0.61433 0.81438 0.0
O422 O 0.62106 0.59229 0.75411 0.0
O423 O 0.58832 0.56644 0.70314 0.0
C424 C 0.62004 0.60844 0.79394 0.0
H425 H 0.60355 0.53982 0.97859 0.0
H426 H 0.57483 0.63682 0.54151 0.0
H427 H 0.52148 0.5958 0.70286 0.0
H428 H 0.54002 0.61905 0.92383 0.0
Co429 Co 0.05169 0.41359 0.26149 0.0
C430 C 0.05466 0.42194 0.42924 0.0
C431 C 0.0428 0.44624 0.36768 0.0
C432 C 0.04218 0.45026 0.44649 0.0
N433 N 0.05091 0.42853 0.35706 0.0
N434 N 0.0498 0.43492 0.48457 0.0
H435 H 0.05917 0.40733 0.44255 0.0
H436 H 0.03687 0.45519 0.32172 0.0
C437 C 0.06885 0.45233 0.21081 0.0
O438 O 0.08003 0.45288 0.27249 0.0
N439 N 0.05197 0.39907 0.16602 0.0
C440 C 0.05971 0.38143 0.15146 0.0
C441 C 0.05901 0.3782 0.07216 0.0
C442 C 0.04637 0.40613 0.09674 0.0
N443 N 0.05065 0.39383 0.03816 0.0
C444 C 0.08296 0.39337 0.33364 0.0
C445 C 0.11267 0.40698 0.24179 0.0
C446 C 0.11699 0.39439 0.30391 0.0
C447 C 0.10172 0.38741 0.34906 0.0
C448 C 0.09347 0.41287 0.22898 0.0
N449 N 0.07894 0.40687 0.27747 0.0
H450 H 0.07162 0.38636 0.36576 0.0
H451 H 0.09035 0.42171 0.17862 0.0
H452 H 0.06619 0.37204 0.19473 0.0
H453 H 0.04039 0.42058 0.0889 0.0
O454 O 0.04028 0.39171 0.31502 0.0
O455 O 0.02365 0.41494 0.25571 0.0
O456 O 0.05758 0.4379 0.19948 0.0
C457 C 0.02362 0.39889 0.29617 0.0
H458 H 0.03604 0.4631 0.47364 0.0
H459 H 0.06481 0.36566 0.04177 0.0
H460 H 0.12395 0.41207 0.20316 0.0
H461 H 0.10411 0.37667 0.39432 0.0
Co462 Co 0.59691 0.4148 0.22803 0.0
C463 C 0.59513 0.42315 0.06129 0.0
C464 C 0.60838 0.4466 0.12328 0.0
C465 C 0.61089 0.44974 0.04451 0.0
N466 N 0.59828 0.42997 0.13352 0.0
N467 N 0.60275 0.43473 0.00626 0.0
H468 H 0.58879 0.40925 0.04846 0.0
H469 H 0.61474 0.45504 0.16983 0.0
C470 C 0.57888 0.45386 0.27456 0.0
O471 O 0.5733 0.45774 0.2032 0.0
N472 N 0.59625 0.40014 0.32275 0.0
C473 C 0.58765 0.38312 0.34056 0.0
C474 C 0.58873 0.38058 0.42036 0.0
C475 C 0.60265 0.40746 0.39022 0.0
N476 N 0.59798 0.39611 0.45105 0.0
C477 C 0.56949 0.39062 0.15137 0.0
C478 C 0.53611 0.40461 0.21866 0.0
C479 C 0.53478 0.38945 0.16364 0.0
C480 C 0.5519 0.38284 0.12936 0.0
C481 C 0.55428 0.41252 0.23775 0.0
N482 N 0.57076 0.40579 0.20264 0.0
H483 H 0.58216 0.38418 0.12586 0.0
H484 H 0.55493 0.42351 0.28243 0.0
H485 H 0.58031 0.37376 0.29956 0.0
H486 H 0.60992 0.42136 0.39463 0.0
O487 O 0.61125 0.39432 0.17729 0.0
O488 O 0.62466 0.41856 0.2425 0.0
O489 O 0.58743 0.43788 0.29068 0.0
C490 C 0.6268 0.4028 0.20113 0.0
H491 H 0.61936 0.46119 0.01791 0.0
H492 H 0.58223 0.36887 0.45342 0.0
H493 H 0.52336 0.40997 0.24824 0.0
H494 H 0.55192 0.37152 0.08543 0.0
Co495 Co 0.05854 0.59149 0.72286 0.0
C496 C 0.05594 0.58479 0.55439 0.0
C497 C 0.05427 0.55757 0.61426 0.0
C498 C 0.05295 0.55405 0.53514 0.0
N499 N 0.05681 0.57691 0.626 0.0
N500 N 0.05432 0.57129 0.49837 0.0
H501 H 0.05602 0.60025 0.54245 0.0
H502 H 0.053 0.54668 0.65927 0.0
C503 C 0.07402 0.55317 0.78623 0.0
O504 O 0.08832 0.55333 0.73595 0.0
N505 N 0.05945 0.60577 0.81871 0.0
C506 C 0.0672 0.62342 0.83256 0.0
C507 C 0.06595 0.62708 0.91138 0.0
C508 C 0.05322 0.59916 0.88776 0.0
N509 N 0.05719 0.61174 0.94566 0.0
C510 C 0.09286 0.60325 0.64394 0.0
C511 C 0.11855 0.59812 0.76468 0.0
C512 C 0.12516 0.6065 0.69486 0.0
C513 C 0.11197 0.60877 0.63408 0.0
C514 C 0.09912 0.59245 0.77175 0.0
N515 N 0.0865 0.59481 0.71112 0.0
H516 H 0.08303 0.60725 0.59879 0.0
H517 H 0.09407 0.58687 0.82697 0.0
H518 H 0.07392 0.63257 0.78904 0.0
H519 H 0.04684 0.58494 0.89603 0.0
O520 O 0.05091 0.61501 0.67066 0.0
O521 O 0.03048 0.59394 0.72297 0.0
O522 O 0.06111 0.56649 0.78481 0.0
C523 C 0.03316 0.61028 0.68555 0.0
H524 H 0.05134 0.54003 0.50697 0.0
H525 H 0.07156 0.63976 0.94125 0.0
H526 H 0.12814 0.59644 0.81395 0.0
H527 H 0.11598 0.61607 0.58055 0.0
H528 H 0.21226 0.17153 0.50806 0.0
H529 H 0.15288 0.11662 0.17618 0.0
H530 H 0.20624 0.19591 0.27815 0.0
H531 H 0.13056 0.12401 0.40864 0.0
H532 H 0.18097 0.13685 0.21192 0.0
H533 H 0.19061 0.14468 0.46988 0.0
C534 C 0.20679 0.17089 0.44905 0.0
C535 C 0.21085 0.18585 0.39607 0.0
C536 C 0.17003 0.13368 0.25519 0.0
C537 C 0.18663 0.15534 0.35208 0.0
C538 C 0.15413 0.12217 0.23501 0.0
C539 C 0.13946 0.11888 0.28956 0.0
C540 C 0.17141 0.14129 0.33094 0.0
C541 C 0.14157 0.12642 0.36494 0.0
C542 C 0.19443 0.15572 0.42753 0.0
C543 C 0.20328 0.18462 0.32056 0.0
N544 N 0.15728 0.13726 0.38358 0.0
N545 N 0.19151 0.1696 0.30065 0.0
H546 H 0.20818 0.81164 0.70683 0.0
H547 H 0.12748 0.8807 0.56802 0.0
H548 H 0.20982 0.83356 0.47193 0.0
H549 H 0.15171 0.88943 0.79632 0.0
H550 H 0.15613 0.86179 0.53114 0.0
H551 H 0.18645 0.83844 0.7432 0.0
C552 C 0.20421 0.82236 0.66338 0.0
C553 C 0.21077 0.82056 0.5865 0.0
C554 C 0.15532 0.86811 0.58886 0.0
C555 C 0.18554 0.85069 0.62683 0.0
C556 C 0.13898 0.87877 0.61004 0.0
C557 C 0.13732 0.88652 0.68529 0.0
C558 C 0.16977 0.86462 0.6442 0.0
C559 C 0.15256 0.8837 0.73766 0.0
C560 C 0.19189 0.83762 0.68414 0.0
C561 C 0.20516 0.83465 0.53198 0.0
N562 N 0.16803 0.87257 0.7167 0.0
N563 N 0.19247 0.84892 0.55276 0.0
H564 H 0.49421 0.88677 0.70243 0.0
H565 H 0.43534 0.83396 0.04145 0.0
H566 H 0.51533 0.88593 0.93825 0.0
H567 H 0.44597 0.80623 0.82022 0.0
H568 H 0.4562 0.86129 0.00065 0.0
H569 H 0.46744 0.86528 0.74237 0.0
C570 C 0.49289 0.88245 0.76285 0.0
C571 C 0.5069 0.88795 0.81725 0.0
C572 C 0.45362 0.84932 0.96088 0.0
C573 C 0.47645 0.86393 0.86317 0.0
C574 C 0.44175 0.83384 0.98391 0.0
C575 C 0.4391 0.81786 0.93419 0.0
C576 C 0.46227 0.84899 0.88685 0.0
C577 C 0.44779 0.81825 0.86037 0.0
C578 C 0.47776 0.87018 0.78543 0.0
C579 C 0.50478 0.88184 0.89472 0.0
N580 N 0.45894 0.8336 0.83874 0.0
N581 N 0.48982 0.87015 0.91555 0.0
H582 H 0.48803 0.10748 0.20304 0.0
H583 H 0.46392 0.21894 0.11203 0.0
H584 H 0.53053 0.15254 0.16814 0.0
H585 H 0.42362 0.17365 0.04944 0.0
H586 H 0.48667 0.19429 0.15438 0.0
H587 H 0.46256 0.131 0.16627 0.0
C588 C 0.49197 0.12229 0.18817 0.0
C589 C 0.51141 0.12809 0.18866 0.0
C590 C 0.47288 0.18965 0.1314 0.0
C591 C 0.48258 0.15486 0.14748 0.0
C592 C 0.45979 0.20376 0.10728 0.0
C593 C 0.44183 0.19838 0.07651 0.0
C594 C 0.4681 0.16985 0.1255 0.0
C595 C 0.43737 0.17842 0.07235 0.0
C596 C 0.47749 0.13562 0.16683 0.0
C597 C 0.51578 0.14738 0.1684 0.0
N598 N 0.45045 0.16479 0.09666 0.0
N599 N 0.50152 0.16002 0.1491 0.0
H600 H 0.92279 0.82401 0.69275 0.0
H601 H 0.01101 0.88741 0.5371 0.0
H602 H 0.94376 0.82287 0.45624 0.0
H603 H 0.99575 0.88236 0.77966 0.0
H604 H 0.98138 0.87028 0.50219 0.0
H605 H 0.94404 0.85161 0.71994 0.0
C606 C 0.93157 0.82983 0.64603 0.0
C607 C 0.93173 0.82086 0.57241 0.0
C608 C 0.98432 0.87316 0.56302 0.0
C609 C 0.95618 0.85243 0.60334 0.0
C610 C 1.00122 0.88295 0.583 0.0
C611 C 0.00599 0.88602 0.66149 0.0
C612 C 0.97207 0.86623 0.62193 0.0
C613 C 0.99266 0.88024 0.71848 0.0
C614 C 0.94372 0.84558 0.66169 0.0
C615 C 0.94314 0.82926 0.51382 0.0
N616 N 0.97644 0.87033 0.69764 0.0
N617 N 0.95514 0.84435 0.53091 0.0
H618 H 0.92891 0.18644 0.29147 0.0
H619 H 0.01139 0.1148 0.44635 0.0
H620 H 0.94994 0.18592 0.5279 0.0
H621 H 1.00186 0.12714 0.20317 0.0
H622 H 0.98304 0.13438 0.47918 0.0
H623 H 0.94973 0.15861 0.26178 0.0
C624 C 0.93772 0.18035 0.3375 0.0
C625 C 0.93791 0.18886 0.41205 0.0
C626 C 0.98697 0.13257 0.41855 0.0
C627 C 0.96164 0.15677 0.37835 0.0
C628 C 1.00314 0.12139 0.39969 0.0
C629 C 0.00924 0.11961 0.32191 0.0
C630 C 0.97669 0.14205 0.35929 0.0
C631 C 0.99774 0.12813 0.26385 0.0
C632 C 0.94957 0.16442 0.32041 0.0
C633 C 0.94926 0.17994 0.46968 0.0
N634 N 0.98217 0.13921 0.28379 0.0
N635 N 0.96082 0.16455 0.45136 0.0
H636 H 0.64145 0.12751 0.28738 0.0
H637 H 0.69908 0.1806 0.9497 0.0
H638 H 0.64024 0.10823 0.0483 0.0
H639 H 0.7072 0.19295 0.19365 0.0
H640 H 0.68108 0.15114 0.98518 0.0
H641 H 0.66904 0.14823 0.25656 0.0
C642 C 0.64728 0.12721 0.22887 0.0
C643 C 0.63824 0.11633 0.17012 0.0
C644 C 0.6871 0.16012 0.03097 0.0
C645 C 0.66958 0.14054 0.13369 0.0
C646 C 0.69748 0.17688 0.01063 0.0
C647 C 0.70437 0.18943 0.06877 0.0
C648 C 0.68351 0.15597 0.10997 0.0
C649 C 0.70177 0.18391 0.1469 0.0
C650 C 0.66297 0.13922 0.21102 0.0
C651 C 0.64644 0.11673 0.0951 0.0
N652 N 0.69132 0.1678 0.16516 0.0
N653 N 0.66137 0.1289 0.07873 0.0
H654 H 0.6463 0.88479 0.71368 0.0
H655 H 0.7018 0.82777 0.05044 0.0
H656 H 0.63451 0.89179 0.95857 0.0
H657 H 0.71006 0.81717 0.80527 0.0
H658 H 0.6831 0.85707 0.01847 0.0
H659 H 0.67537 0.86611 0.74648 0.0
C660 C 0.65014 0.88287 0.77431 0.0
C661 C 0.63786 0.88958 0.83349 0.0
C662 C 0.68934 0.84856 0.97164 0.0
C663 C 0.67084 0.86796 0.8716 0.0
C664 C 0.70015 0.83193 0.98998 0.0
C665 C 0.70723 0.81991 0.93039 0.0
C666 C 0.6856 0.85314 0.89318 0.0
C667 C 0.70456 0.8259 0.85294 0.0
C668 C 0.66664 0.87207 0.79311 0.0
C669 C 0.64345 0.88657 0.91117 0.0
N670 N 0.69372 0.8419 0.83654 0.0
N671 N 0.65934 0.87575 0.92797 0.0
H672 H 0.70486 0.67437 0.05553 0.0
H673 H 0.65324 0.61602 0.71209 0.0
H674 H 0.70412 0.69659 0.82092 0.0
H675 H 0.62572 0.62547 0.93417 0.0
H676 H 0.68015 0.63707 0.75445 0.0
H677 H 0.68385 0.6473 0.01371 0.0
C678 C 0.70065 0.67323 0.99497 0.0
C679 C 0.70603 0.68763 0.94146 0.0
C680 C 0.66831 0.63419 0.79402 0.0
C681 C 0.68259 0.65686 0.89342 0.0
C682 C 0.65307 0.62223 0.77008 0.0
C683 C 0.63727 0.61922 0.81963 0.0
C684 C 0.66792 0.64255 0.86872 0.0
C685 C 0.6376 0.62761 0.89412 0.0
C686 C 0.68867 0.65793 0.97133 0.0
C687 C 0.7001 0.68574 0.86378 0.0
N688 N 0.65271 0.63885 0.91659 0.0
N689 N 0.68869 0.67061 0.8419 0.0
H690 H 0.65467 0.38958 0.2999 0.0
H691 H 0.71625 0.33807 0.96241 0.0
H692 H 0.64076 0.39583 0.05684 0.0
H693 H 0.70308 0.31049 0.1815 0.0
H694 H 0.69754 0.36687 0.00424 0.0
H695 H 0.68191 0.36824 0.26385 0.0
C696 C 0.65783 0.387 0.23896 0.0
C697 C 0.64567 0.39441 0.18105 0.0
C698 C 0.69911 0.35462 0.04348 0.0
C699 C 0.67646 0.37026 0.13968 0.0
C700 C 0.70977 0.33829 0.01984 0.0
C701 C 0.71096 0.32193 0.06844 0.0
C702 C 0.69011 0.35466 0.11688 0.0
C703 C 0.70226 0.32279 0.14213 0.0
C704 C 0.67319 0.37475 0.21849 0.0
C705 C 0.64996 0.39037 0.10291 0.0
N706 N 0.69218 0.33887 0.16416 0.0
N707 N 0.66499 0.37848 0.08436 0.0
H708 H 0.99218 0.39056 0.20633 0.0
H709 H 0.93352 0.33336 0.5334 0.0
H710 H 0.01505 0.3839 0.43799 0.0
H711 H 0.94264 0.30886 0.30517 0.0
H712 H 0.95499 0.36069 0.49829 0.0
H713 H 0.96503 0.36912 0.24227 0.0
C714 C 0.99118 0.38498 0.26519 0.0
C715 C 0.00577 0.38884 0.31938 0.0
C716 C 0.95194 0.34945 0.45575 0.0
C717 C 0.9749 0.36489 0.36086 0.0
C718 C 0.93971 0.33399 0.47552 0.0
C719 C 0.93648 0.3189 0.42209 0.0
C720 C 0.96036 0.35003 0.38134 0.0
C721 C 0.94492 0.3202 0.34803 0.0
C722 C 0.97583 0.37274 0.28543 0.0
C723 C 0.00406 0.38111 0.39466 0.0
N724 N 0.95644 0.33554 0.32963 0.0
N725 N 0.98886 0.36951 0.41338 0.0
H726 H 0.97042 0.71393 0.57492 0.0
H727 H 0.99365 0.60393 0.68979 0.0
H728 H 0.92747 0.66916 0.54339 0.0
H729 H 0.03653 0.64662 0.6259 0.0
H730 H 0.96821 0.62716 0.6501 0.0
H731 H 0.99392 0.68912 0.60904 0.0
C732 C 0.96592 0.69881 0.57505 0.0
C733 C 0.94696 0.69361 0.55604 0.0
C734 C 0.98323 0.63128 0.64458 0.0
C735 C 0.97395 0.66492 0.59585 0.0
C736 C 0.99771 0.61811 0.66745 0.0
C737 C 0.01724 0.62338 0.66147 0.0
C738 C 0.98843 0.64983 0.61685 0.0
C739 C 0.02171 0.64188 0.63181 0.0
C740 C 0.9794 0.68461 0.59436 0.0
C741 C 0.942 0.67374 0.55717 0.0
N742 N 0.00747 0.6544 0.61124 0.0
N743 N 0.95543 0.66005 0.57734 0.0
H744 H 0.45671 0.3146 0.92569 0.0
H745 H 0.49796 0.40556 0.15291 0.0
H746 H 0.42223 0.33704 0.11473 0.0
H747 H 0.5287 0.35106 0.12667 0.0
H748 H 0.46848 0.38917 0.10587 0.0
H749 H 0.48178 0.33847 0.95717 0.0
C750 C 0.45404 0.32511 0.97159 0.0
C751 C 0.43743 0.32383 0.01786 0.0
C752 C 0.48185 0.38105 0.11008 0.0
C753 C 0.46603 0.35096 0.05428 0.0
C754 C 0.49861 0.39027 0.13752 0.0
C755 C 0.51613 0.3799 0.14211 0.0
C756 C 0.48283 0.36156 0.08551 0.0
C757 C 0.51594 0.36004 0.1212 0.0
C758 C 0.46842 0.33855 0.99001 0.0
C759 C 0.4349 0.33758 0.07787 0.0
N760 N 0.49971 0.35168 0.09287 0.0
N761 N 0.4492 0.35048 0.09517 0.0
H762 H 0.43038 0.68618 0.80547 0.0
H763 H 0.50789 0.6085 0.95535 0.0
H764 H 0.45102 0.68349 0.04229 0.0
H765 H 0.50346 0.62694 0.71587 0.0
H766 H 0.48021 0.62909 0.98773 0.0
H767 H 0.45035 0.65789 0.77345 0.0
C768 C 0.43893 0.67954 0.85109 0.0
C769 C 0.4393 0.6876 0.92647 0.0
C770 C 0.48512 0.62838 0.9279 0.0
C771 C 0.46193 0.65488 0.89009 0.0
C772 C 0.50092 0.61663 0.90923 0.0
C773 C 0.50833 0.61628 0.83294 0.0
C774 C 0.47644 0.63974 0.86982 0.0
C775 C 0.49834 0.62676 0.77541 0.0
C776 C 0.45027 0.66334 0.83264 0.0
C777 C 0.45022 0.6779 0.98346 0.0
N778 N 0.48306 0.63826 0.79521 0.0
N779 N 0.46126 0.6622 0.96388 0.0
H780 H 0.20671 0.67942 0.47401 0.0
H781 H 0.14565 0.62775 0.80235 0.0
H782 H 0.21353 0.6919 0.71852 0.0
H783 H 0.14911 0.60577 0.56733 0.0
H784 H 0.17362 0.64838 0.7763 0.0
H785 H 0.18891 0.64977 0.50817 0.0
C786 C 0.2049 0.67567 0.53482 0.0
C787 C 0.21131 0.68834 0.59344 0.0
C788 C 0.1685 0.63878 0.73077 0.0
C789 C 0.19061 0.65469 0.6331 0.0
C790 C 0.15259 0.62684 0.74593 0.0
C791 C 0.14474 0.61525 0.68655 0.0
C792 C 0.17651 0.63931 0.65546 0.0
C793 C 0.15435 0.61485 0.61431 0.0
C794 C 0.19462 0.6588 0.55441 0.0
C795 C 0.20845 0.68277 0.67139 0.0
N796 N 0.16945 0.62699 0.60031 0.0
N797 N 0.19804 0.66659 0.6889 0.0
H798 H 0.20087 0.32361 0.52829 0.0
H799 H 0.1438 0.38091 0.19853 0.0
H800 H 0.21216 0.31716 0.28272 0.0
H801 H 0.13503 0.39016 0.44441 0.0
H802 H 0.17298 0.36218 0.22823 0.0
H803 H 0.18115 0.35243 0.49991 0.0
C804 C 0.19964 0.32858 0.46864 0.0
C805 C 0.20791 0.31781 0.4077 0.0
C806 C 0.16487 0.3686 0.27571 0.0
C807 C 0.18503 0.35048 0.37441 0.0
C808 C 0.14827 0.37943 0.25863 0.0
C809 C 0.13677 0.38683 0.3191 0.0
C810 C 0.16994 0.36507 0.35382 0.0
C811 C 0.14324 0.38434 0.39602 0.0
C812 C 0.18824 0.34494 0.45228 0.0
C813 C 0.20572 0.32484 0.33135 0.0
N814 N 0.15918 0.37343 0.41122 0.0
N815 N 0.19425 0.3405 0.31677 0.0
H816 H 0.06044 0.01697 0.21511 0.0
H817 H 0.07137 0.98993 0.76513 0.0
H818 H 0.08744 0.05514 0.04821 0.0
H819 H 0.07526 0.94588 0.9437 0.0
H820 H 0.07002 0.01504 0.86684 0.0
H821 H 0.059 0.99141 0.11444 0.0
C822 C 0.0659 0.02007 0.15734 0.0
C823 C 0.074 0.03833 0.14004 0.0
C824 C 0.07106 0.99985 0.88358 0.0
C825 C 0.07205 0.00938 0.02479 0.0
C826 C 0.07174 0.98553 0.82566 0.0
C827 C 0.07354 0.96581 0.84592 0.0
C828 C 0.07176 0.99439 0.96239 0.0
C829 C 0.07403 0.96094 0.92547 0.0
C830 C 0.06512 0.00548 0.10013 0.0
C831 C 0.08096 0.04143 0.06419 0.0
N832 N 0.07307 0.97513 0.98085 0.0
N833 N 0.0797 0.02721 0.00939 0.0
H834 H 0.35578 0.72257 0.11615 0.0
H835 H 0.28345 0.78621 0.36986 0.0
H836 H 0.36059 0.78515 0.13152 0.0
H837 H 0.30067 0.7287 0.4443 0.0
H838 H 0.30793 0.78494 0.26716 0.0
H839 H 0.33173 0.72334 0.22155 0.0
C840 C 0.35166 0.73647 0.14113 0.0
C841 C 0.36015 0.75384 0.1147 0.0
C842 C 0.30639 0.77264 0.30614 0.0
C843 C 0.3326 0.75479 0.23456 0.0
C844 C 0.2924 0.7733 0.36466 0.0
C845 C 0.29006 0.75756 0.41605 0.0
C846 C 0.31789 0.75592 0.29747 0.0
C847 C 0.30209 0.74122 0.40639 0.0
C848 C 0.33807 0.73686 0.2016 0.0
C849 C 0.35443 0.77141 0.14995 0.0
N850 N 0.31537 0.74073 0.34773 0.0
N851 N 0.34091 0.77145 0.20746 0.0
H852 H 0.5485 0.05552 0.42777 0.0
H853 H 0.56949 0.94725 0.5565 0.0
H854 H 0.58558 0.01897 0.28806 0.0
H855 H 0.56606 0.99382 0.72483 0.0
H856 H 0.5706 0.97157 0.45171 0.0
H857 H 0.54966 0.03134 0.53173 0.0
C858 C 0.55695 0.04247 0.4188 0.0
C859 C 0.56722 0.03952 0.34917 0.0
C860 C 0.56973 0.97642 0.51163 0.0
C861 C 0.56805 0.01136 0.46773 0.0
C862 C 0.56901 0.96259 0.57143 0.0
C863 C 0.5677 0.96854 0.6496 0.0
C864 C 0.56857 0.99632 0.52992 0.0
C865 C 0.56719 0.98861 0.6655 0.0
C866 C 0.55758 0.02865 0.47838 0.0
C867 C 0.57757 0.02199 0.34083 0.0
N868 N 0.56736 1.00178 0.60615 0.0
N869 N 0.57759 0.00848 0.39915 0.0
H870 H 0.35165 0.28441 0.87861 0.0
H871 H 0.28325 0.21991 0.61299 0.0
H872 H 0.35901 0.22213 0.85912 0.0
H873 H 0.2983 0.27875 0.54854 0.0
H874 H 0.30733 0.22109 0.71701 0.0
H875 H 0.32824 0.28331 0.77156 0.0
C876 C 0.34822 0.27049 0.85236 0.0
C877 C 0.35724 0.25332 0.87814 0.0
C878 C 0.30542 0.2337 0.67986 0.0
C879 C 0.33042 0.25199 0.75608 0.0
C880 C 0.29166 0.23308 0.6206 0.0
C881 C 0.28881 0.24925 0.57176 0.0
C882 C 0.31615 0.25077 0.69179 0.0
C883 C 0.30013 0.26591 0.58443 0.0
C884 C 0.33499 0.26991 0.79091 0.0
C885 C 0.35239 0.23572 0.84122 0.0
N886 N 0.31318 0.26633 0.64378 0.0
N887 N 0.3392 0.23548 0.78256 0.0
H888 H 0.79598 0.22618 0.92159 0.0
H889 H 0.85806 0.28571 0.61342 0.0
H890 H 0.7805 0.28424 0.84783 0.0
H891 H 0.85245 0.22322 0.59601 0.0
H892 H 0.83348 0.28586 0.71584 0.0
H893 H 0.82071 0.22518 0.81849 0.0
C894 C 0.79786 0.23873 0.88414 0.0
C895 C 0.78616 0.25531 0.89332 0.0
C896 C 0.83759 0.27213 0.68939 0.0
C897 C 0.81445 0.25434 0.77639 0.0
C898 C 0.85163 0.27201 0.631 0.0
C899 C 0.85721 0.25443 0.59556 0.0
C900 C 0.82933 0.2545 0.71404 0.0
C901 C 0.84842 0.23712 0.62112 0.0
C902 C 0.81185 0.2381 0.82515 0.0
C903 C 0.78913 0.27113 0.84275 0.0
N904 N 0.83502 0.23756 0.67931 0.0
N905 N 0.80305 0.27031 0.78702 0.0
H906 H 0.81034 0.74902 0.02681 0.0
H907 H 0.83609 0.76437 0.47373 0.0
H908 H 0.76591 0.74903 0.20298 0.0
H909 H 0.8728 0.73141 0.31898 0.0
H910 H 0.8112 0.76507 0.37186 0.0
H911 H 0.83486 0.74929 0.13003 0.0
C912 C 0.80575 0.74927 0.08711 0.0
C913 C 0.78608 0.74893 0.10635 0.0
C914 C 0.82477 0.75774 0.3605 0.0
C915 C 0.81397 0.74949 0.22434 0.0
C916 C 0.83898 0.75735 0.41844 0.0
C917 C 0.85669 0.74793 0.40485 0.0
C918 C 0.82847 0.74909 0.28786 0.0
C919 C 0.85953 0.739 0.33203 0.0
C920 C 0.81972 0.74931 0.14586 0.0
C921 C 0.78094 0.74916 0.18558 0.0
N922 N 0.84569 0.73998 0.2761 0.0
N923 N 0.79479 0.74956 0.2417 0.0
H924 H 0.59582 0.55299 0.56908 0.0
H925 H 0.57233 0.44658 0.42869 0.0
H926 H 0.55601 0.51775 0.70108 0.0
H927 H 0.57888 0.49374 0.26496 0.0
H928 H 0.57034 0.47047 0.53511 0.0
H929 H 0.59421 0.52956 0.46278 0.0
C930 C 0.58664 0.54041 0.57585 0.0
C931 C 0.57576 0.53763 0.64404 0.0
C932 C 0.57202 0.47556 0.47579 0.0
C933 C 0.57444 0.51022 0.5227 0.0
C934 C 0.57324 0.46197 0.41517 0.0
C935 C 0.57581 0.46821 0.33793 0.0
C936 C 0.5739 0.49549 0.45928 0.0
C937 C 0.57679 0.48832 0.32355 0.0
C938 C 0.58577 0.527 0.51489 0.0
C939 C 0.56452 0.52063 0.6495 0.0
N940 N 0.57614 0.50123 0.38377 0.0
N941 N 0.56429 0.50745 0.58991 0.0
H942 H 0.04223 0.54045 0.8657 0.0
H943 H 0.09911 0.47686 0.17723 0.0
H944 H 0.10369 0.53151 0.8473 0.0
H945 H 0.04104 0.46287 0.10666 0.0
H946 H 0.10066 0.5013 0.07252 0.0
H947 H 0.04107 0.51613 0.97014 0.0
C948 C 0.05547 0.53333 0.88349 0.0
C949 C 0.07307 0.5379 0.84727 0.0
C950 C 0.0876 0.49286 0.08028 0.0
C951 C 0.07187 0.51041 0.96796 0.0
C952 C 0.08665 0.47904 0.14023 0.0
C953 C 0.06992 0.46782 0.15069 0.0
C954 C 0.07154 0.49579 0.03178 0.0
C955 C 0.05425 0.47115 0.10057 0.0
C956 C 0.05478 0.51946 0.94299 0.0
C957 C 0.08979 0.52827 0.87302 0.0
N958 N 0.05538 0.48492 0.04378 0.0
N959 N 0.08882 0.5151 0.9323 0.0
H960 H 0.07883 0.07834 0.95495 0.0
H961 H 0.11758 0.10659 0.5323 0.0
H962 H 0.10473 0.13375 0.90216 0.0
H963 H 0.09134 0.05133 0.58686 0.0
H964 H 0.11482 0.11616 0.66868 0.0
H965 H 0.08407 0.06789 0.82086 0.0
C966 C 0.08569 0.08825 0.91461 0.0
C967 C 0.09165 0.10675 0.93914 0.0
C968 C 0.10978 0.10189 0.65113 0.0
C969 C 0.09761 0.0951 0.78574 0.0
C970 C 0.11138 0.09641 0.57342 0.0
C971 C 0.10442 0.07825 0.54854 0.0
C972 C 0.10109 0.08911 0.70426 0.0
C973 C 0.09689 0.06543 0.60403 0.0
C974 C 0.08865 0.08234 0.8382 0.0
C975 C 0.09994 0.11939 0.88481 0.0
N976 N 0.09522 0.07119 0.6794 0.0
N977 N 0.1028 0.11328 0.81034 0.0
H978 H 0.23824 0.80324 0.23467 0.0
H979 H 0.23831 0.74766 0.82565 0.0
H980 H 0.206 0.75076 0.18855 0.0
H981 H 0.26684 0.80273 0.86175 0.0
H982 H 0.22788 0.74785 0.96118 0.0
H983 H 0.24964 0.80314 0.09993 0.0
C984 C 0.23347 0.79176 0.19599 0.0
C985 C 0.22121 0.77694 0.2229 0.0
C986 C 0.23649 0.75988 0.93981 0.0
C987 C 0.23425 0.77667 0.06894 0.0
C988 C 0.24247 0.75975 0.86253 0.0
C989 C 0.25329 0.77528 0.83248 0.0
C990 C 0.24134 0.77569 0.98769 0.0
C991 C 0.2586 0.79043 0.88287 0.0
C992 C 0.23999 0.79171 0.11917 0.0
C993 C 0.21527 0.76257 0.17015 0.0
N994 N 0.25243 0.79034 0.95809 0.0
N995 N 0.22195 0.76273 0.09583 0.0
H996 H 0.5213 0.94217 0.09461 0.0
H997 H 0.57934 0.88398 0.42402 0.0
H998 H 0.5781 0.91772 0.06154 0.0
H999 H 0.52548 0.91372 0.46689 0.0
H1000 H 0.57827 0.89497 0.28885 0.0
H1001 H 0.52224 0.93185 0.23098 0.0
C1002 C 0.53407 0.93489 0.11625 0.0
C1003 C 0.54958 0.93066 0.06647 0.0
C1004 C 0.56665 0.89906 0.32775 0.0
C1005 C 0.55062 0.91846 0.22175 0.0
C1006 C 0.56715 0.89259 0.40472 0.0
C1007 C 0.55249 0.89797 0.45682 0.0
C1008 C 0.55133 0.91093 0.30257 0.0
C1009 C 0.53719 0.90944 0.42885 0.0
C1010 C 0.53454 0.92883 0.1939 0.0
C1011 C 0.56569 0.92097 0.09752 0.0
N1012 N 0.53701 0.91557 0.35369 0.0
N1013 N 0.56574 0.9151 0.17292 0.0
H1014 H 0.41423 0.26 0.3003 0.0
H1015 H 0.40571 0.20862 0.71567 0.0
H1016 H 0.37441 0.21321 0.34616 0.0
H1017 H 0.44316 0.25724 0.66554 0.0
H1018 H 0.3946 0.20908 0.5807 0.0
H1019 H 0.42482 0.25893 0.43511 0.0
C1020 C 0.40765 0.24956 0.33944 0.0
C1021 C 0.39359 0.23656 0.31257 0.0
C1022 C 0.40532 0.21956 0.59921 0.0
C1023 C 0.40569 0.23508 0.46686 0.0
C1024 C 0.41169 0.2193 0.67611 0.0
C1025 C 0.42528 0.23303 0.70202 0.0
C1026 C 0.41263 0.23364 0.54794 0.0
C1027 C 0.43281 0.24631 0.6481 0.0
C1028 C 0.41371 0.24891 0.41627 0.0
C1029 C 0.38525 0.22349 0.36527 0.0
N1030 N 0.42628 0.24635 0.57375 0.0
N1031 N 0.39157 0.22295 0.44024 0.0
H1032 H 0.06398 0.91516 0.4415 0.0
H1033 H 0.11906 0.91105 0.03277 0.0
H1034 H 0.12093 0.93885 0.40619 0.0
H1035 H 0.06532 0.8816 0.07896 0.0
H1036 H 0.11968 0.92242 0.1676 0.0
H1037 H 0.06346 0.90456 0.30602 0.0
C1038 C 0.07635 0.91821 0.40494 0.0
C1039 C 0.09259 0.92773 0.43525 0.0
C1040 C 0.10781 0.91338 0.14841 0.0
C1041 C 0.09215 0.91561 0.28003 0.0
C1042 C 0.10745 0.90689 0.07154 0.0
C1043 C 0.09208 0.89541 0.04467 0.0
C1044 C 0.09262 0.90845 0.19872 0.0
C1045 C 0.07752 0.89024 0.09743 0.0
C1046 C 0.07606 0.91213 0.32766 0.0
C1047 C 0.10808 0.93165 0.38505 0.0
N1048 N 0.07809 0.89691 0.17185 0.0
N1049 N 0.10753 0.92545 0.30989 0.0
H1050 H 0.42146 0.80007 0.70094 0.0
H1051 H 0.39471 0.76413 0.2737 0.0
H1052 H 0.37056 0.76639 0.64871 0.0
H1053 H 0.45179 0.78307 0.33793 0.0
H1054 H 0.38414 0.76841 0.40793 0.0
H1055 H 0.43095 0.79827 0.56432 0.0
C1056 C 0.41222 0.79238 0.66054 0.0
C1057 C 0.39537 0.78304 0.68628 0.0
C1058 C 0.39899 0.77161 0.39295 0.0
C1059 C 0.40608 0.78106 0.53018 0.0
C1060 C 0.40501 0.76922 0.31646 0.0
C1061 C 0.4241 0.77343 0.29519 0.0
C1062 C 0.41213 0.77837 0.44858 0.0
C1063 C 0.43699 0.77964 0.3526 0.0
C1064 C 0.41766 0.79136 0.58271 0.0
C1065 C 0.38364 0.77379 0.63123 0.0
N1066 N 0.43073 0.78207 0.42701 0.0
N1067 N 0.3893 0.77289 0.55565 0.0
H1068 H 0.54638 0.13728 0.57603 0.0
H1069 H 0.55196 0.05182 0.89248 0.0
H1070 H 0.56184 0.07794 0.52259 0.0
H1071 H 0.52878 0.10893 0.94182 0.0
H1072 H 0.55513 0.06097 0.75568 0.0
H1073 H 0.54068 0.12763 0.71214 0.0
C1074 C 0.54867 0.12229 0.5934 0.0
C1075 C 0.5543 0.10829 0.53865 0.0
C1076 C 0.54922 0.07147 0.79637 0.0
C1077 C 0.54776 0.09709 0.69226 0.0
C1078 C 0.54723 0.06616 0.87427 0.0
C1079 C 0.54036 0.07972 0.92866 0.0
C1080 C 0.54435 0.09049 0.77296 0.0
C1081 C 0.53459 0.09819 0.90205 0.0
C1082 C 0.54527 0.11672 0.67045 0.0
C1083 C 0.55706 0.089 0.56313 0.0
N1084 N 0.53689 0.10311 0.82617 0.0
N1085 N 0.55375 0.08395 0.63811 0.0
H1086 H 0.2387 0.20302 0.75119 0.0
H1087 H 0.23644 0.25877 0.15984 0.0
H1088 H 0.20439 0.25428 0.79726 0.0
H1089 H 0.26752 0.20503 0.12364 0.0
H1090 H 0.22601 0.25807 0.02445 0.0
H1091 H 0.25012 0.20365 0.88577 0.0
C1092 C 0.23348 0.21434 0.78982 0.0
C1093 C 0.22062 0.22867 0.76291 0.0
C1094 C 0.23518 0.24645 0.04575 0.0
C1095 C 0.23369 0.22954 0.91671 0.0
C1096 C 0.24116 0.24687 0.12295 0.0
C1097 C 0.2527 0.23185 0.15293 0.0
C1098 C 0.24076 0.23085 -0.00213 0.0
C1099 C 0.2587 0.21693 0.10256 0.0
C1100 C 0.24002 0.2147 0.86655 0.0
C1101 C 0.21413 0.24285 0.81562 0.0
N1102 N 0.25252 0.21672 0.0274 0.0
N1103 N 0.22084 0.24299 0.88985 0.0
H1104 H 0.91899 0.30095 0.18398 0.0
H1105 H 0.89204 0.2646 0.75743 0.0
H1106 H 0.86788 0.26758 0.1319 0.0
H1107 H 0.94905 0.28401 0.82056 0.0
H1108 H 0.88154 0.26903 0.89161 0.0
H1109 H 0.92845 0.29907 0.04734 0.0
C1110 C 0.9097 0.29332 0.14361 0.0
C1111 C 0.89279 0.28408 0.16939 0.0
C1112 C 0.89636 0.2723 0.87641 0.0
C1113 C 0.90347 0.282 0.0133 0.0
C1114 C 0.90234 0.26982 0.79995 0.0
C1115 C 0.92139 0.27412 0.77838 0.0
C1116 C 0.9095 0.27923 0.93173 0.0
C1117 C 0.93428 0.2805 0.83548 0.0
C1118 C 0.91512 0.29224 0.06577 0.0
C1119 C 0.881 0.2749 0.1144 0.0
N1120 N 0.92805 0.28301 0.90989 0.0
N1121 N 0.88665 0.27395 0.03883 0.0
H1122 H 0.75953 0.70197 0.66578 0.0
H1123 H 0.70131 0.75996 0.33644 0.0
H1124 H 0.735 0.75925 0.6981 0.0
H1125 H 0.73161 0.70606 0.29307 0.0
H1126 H 0.71206 0.75889 0.47172 0.0
H1127 H 0.74919 0.70272 0.52955 0.0
C1128 C 0.75223 0.71481 0.64397 0.0
C1129 C 0.74799 0.73052 0.69347 0.0
C1130 C 0.71632 0.74725 0.43268 0.0
C1131 C 0.73577 0.73132 0.53847 0.0
C1132 C 0.70999 0.74776 0.35566 0.0
C1133 C 0.71562 0.73311 0.30339 0.0
C1134 C 0.7283 0.73194 0.45773 0.0
C1135 C 0.72715 0.71777 0.33126 0.0
C1136 C 0.74616 0.71516 0.56644 0.0
C1137 C 0.73826 0.74669 0.6623 0.0
N1138 N 0.73315 0.7176 0.40648 0.0
N1139 N 0.73239 0.74663 0.58703 0.0
H1140 H 0.73679 0.30327 0.71167 0.0
H1141 H 0.73288 0.24762 0.30311 0.0
H1142 H 0.70089 0.25325 0.66611 0.0
H1143 H 0.76523 0.30051 0.33881 0.0
H1144 H 0.72236 0.24873 0.43846 0.0
H1145 H 0.74801 0.30236 0.57673 0.0
C1146 C 0.73118 0.29217 0.67307 0.0
C1147 C 0.71794 0.27826 0.70021 0.0
C1148 C 0.73182 0.26008 0.41701 0.0
C1149 C 0.73077 0.27706 0.54602 0.0
C1150 C 0.73785 0.25942 0.33983 0.0
C1151 C 0.7498 0.27408 0.30972 0.0
C1152 C 0.73776 0.27553 0.46475 0.0
C1153 C 0.7561 0.28887 0.35994 0.0
C1154 C 0.73759 0.29166 0.59613 0.0
C1155 C 0.71095 0.26436 0.64755 0.0
N1156 N 0.74989 0.2893 0.43507 0.0
N1157 N 0.71755 0.26403 0.57311 0.0
H1158 H 0.89507 0.74485 0.22482 0.0
H1159 H 0.92775 0.70888 0.80295 0.0
H1160 H 0.95335 0.72786 0.17017 0.0
H1161 H 0.87101 0.73124 0.85545 0.0
H1162 H 0.93675 0.71296 0.93931 0.0
H1163 H 0.88557 0.73817 0.09095 0.0
C1164 C 0.90583 0.73966 0.18409 0.0
C1165 C 0.92491 0.73664 0.20802 0.0
C1166 C 0.92229 0.71685 0.92116 0.0
C1167 C 0.9143 0.72901 0.05491 0.0
C1168 C 0.91714 0.7145 0.84347 0.0
C1169 C 0.89869 0.72002 0.81791 0.0
C1170 C 0.90888 0.72475 0.97358 0.0
C1171 C 0.88534 0.72678 0.87289 0.0
C1172 C 0.90045 0.73589 0.10781 0.0
C1173 C 0.93852 0.73039 0.15328 0.0
N1174 N 0.89077 0.72914 0.94816 0.0
N1175 N 0.93292 0.72664 0.07893 0.0
H1176 H 0.5806 0.57563 0.4795 0.0
H1177 H 0.61907 0.60242 0.0546 0.0
H1178 H 0.6037 0.63188 0.41994 0.0
H1179 H 0.5883 0.54944 0.10707 0.0
H1180 H 0.61649 0.61215 0.19083 0.0
H1181 H 0.58536 0.56481 0.3454 0.0
C1182 C 0.58673 0.58565 0.43765 0.0
C1183 C 0.59202 0.60453 0.46022 0.0
C1184 C 0.61038 0.59835 0.17276 0.0
C1185 C 0.59744 0.59243 0.30692 0.0
C1186 C 0.61187 0.59278 0.09509 0.0
C1187 C 0.60361 0.57524 0.06949 0.0
C1188 C 0.60059 0.58626 0.22536 0.0
C1189 C 0.59488 0.56305 0.12456 0.0
C1190 C 0.58939 0.57953 0.36125 0.0
C1191 C 0.59944 0.61724 0.40413 0.0
N1192 N 0.59344 0.56888 0.19996 0.0
N1193 N 0.60206 0.61091 0.32979 0.0
H1194 H 0.0745 0.38123 0.92329 0.0
H1195 H 0.02456 0.44724 0.59559 0.0
H1196 H 0.02462 0.41733 0.96713 0.0
H1197 H 0.07665 0.41389 0.56066 0.0
H1198 H 0.02418 0.43689 0.73233 0.0
H1199 H 0.07461 0.39226 0.78834 0.0
C1200 C 0.0634 0.39125 0.90425 0.0
C1201 C 0.04957 0.39842 0.95659 0.0
C1202 C 0.03575 0.43193 0.69474 0.0
C1203 C 0.04982 0.41146 0.80255 0.0
C1204 C 0.03605 0.43799 0.61706 0.0
C1205 C 0.05056 0.43125 0.56686 0.0
C1206 C 0.05007 0.41908 0.72194 0.0
C1207 C 0.06502 0.41913 0.59725 0.0
C1208 C 0.06359 0.39774 0.82738 0.0
C1209 C 0.03569 0.41165 0.9289 0.0
N1210 N 0.06435 0.41334 0.6726 0.0
N1211 N 0.0362 0.4178 0.8538 0.0
H1212 H 0.60106 0.37173 0.57479 0.0
H1213 H 0.60207 0.45939 0.88329 0.0
H1214 H 0.59924 0.4326 0.51148 0.0
H1215 H 0.60791 0.39876 0.94549 0.0
H1216 H 0.60238 0.45001 0.74535 0.0
H1217 H 0.60417 0.38133 0.7116 0.0
C1218 C 0.60133 0.38706 0.58966 0.0
C1219 C 0.60001 0.40133 0.53164 0.0
C1220 C 0.60364 0.43877 0.78932 0.0
C1221 C 0.60361 0.41248 0.68721 0.0
C1222 C 0.60355 0.44416 0.8677 0.0
C1223 C 0.60454 0.42981 0.92541 0.0
C1224 C 0.6048 0.41891 0.7691 0.0
C1225 C 0.6065 0.41024 0.9027 0.0
C1226 C 0.6032 0.39257 0.66751 0.0
C1227 C 0.60055 0.42106 0.55389 0.0
N1228 N 0.60644 0.40535 0.82634 0.0
N1229 N 0.60224 0.42603 0.62985 0.0
H1230 H 0.03314 0.5549 0.38274 0.0
H1231 H 0.07964 0.6255 0.06239 0.0
H1232 H 0.07771 0.59706 0.42923 0.0
H1233 H 0.03102 0.58807 0.01518 0.0
H1234 H 0.07912 0.61485 0.19746 0.0
H1235 H 0.03295 0.56534 0.24552 0.0
C1236 C 0.04299 0.56616 0.36359 0.0
C1237 C 0.05529 0.57533 0.41673 0.0
C1238 C 0.06849 0.60901 0.15767 0.0
C1239 C 0.05509 0.58743 0.26204 0.0
C1240 C 0.06866 0.61528 0.08066 0.0
C1241 C 0.05545 0.60758 0.0273 0.0
C1242 C 0.05503 0.59491 0.18149 0.0
C1243 C 0.0417 0.59411 0.05415 0.0
C1244 C 0.04279 0.57224 0.2859 0.0
C1245 C 0.06778 0.58991 0.38993 0.0
N1246 N 0.04191 0.5881 0.12937 0.0
N1247 N 0.06732 0.59555 0.31457 0.0
loop_
_geom_bond_atom_site_label_1
_geom_bond_atom_site_label_2
_geom_bond_distance
_geom_bond_site_symmetry_2
_ccdc_geom_bond_type
Co0 N4 2.148 . S
Co0 N10 2.128 . S
Co0 N20 2.194 . S
Co0 O25 2.351 . S
Co0 O26 2.155 . S
Co0 O27 2.096 . S
C1 N4 1.301 . S
C1 N5 1.328 . S
C1 H6 0.930 . S
C2 C3 1.333 . S
C2 N4 1.317 . S
C2 H7 0.930 . S
C3 C2 1.333 . S
C3 N5 1.350 . S
C3 H29 0.931 . S
N4 Co0 2.148 . S
N4 C1 1.301 . S
N4 C2 1.317 . S
N5 C1 1.328 . S
N5 C3 1.350 . S
H6 C1 0.930 . S
H7 C2 0.930 . S
C8 O9 1.224 . S
C8 O27 1.247 . S
O9 C8 1.224 . S
N10 Co0 2.128 . S
N10 C11 1.355 . S
N10 C13 1.311 . S
C11 N10 1.355 . S
C11 C12 1.363 . S
C11 H23 0.929 . S
C12 C11 1.363 . S
C12 N14 1.375 . S
C12 H30 0.931 . S
C13 N10 1.311 . S
C13 N14 1.347 . S
C13 H24 0.929 . S
N14 C12 1.375 . S
N14 C13 1.347 . S
C15 C18 1.365 . S
C15 N20 1.328 . S
C15 H21 0.929 . S
C16 C17 1.362 . S
C16 C19 1.378 . S
C16 H31 0.929 . S
C17 C16 1.362 . S
C17 C18 1.366 . S
C18 C15 1.365 . S
C18 C17 1.366 . S
C18 H32 0.930 . S
C19 C16 1.378 . S
C19 N20 1.315 . S
C19 H22 0.930 . S
N20 Co0 2.194 . S
N20 C15 1.328 . S
N20 C19 1.315 . S
H21 C15 0.929 . S
H22 C19 0.930 . S
H23 C11 0.929 . S
H24 C13 0.929 . S
O25 Co0 2.351 . S
O25 C28 1.244 . S
O26 Co0 2.155 . S
O26 C28 1.240 . S
O27 Co0 2.096 . S
O27 C8 1.247 . S
C28 O25 1.244 . S
C28 O26 1.240 . S
H29 C3 0.931 . S
H30 C12 0.931 . S
H31 C16 0.929 . S
H32 C18 0.930 . S
Co33 N37 2.148 . S
Co33 N43 2.128 . S
Co33 N53 2.194 . S
Co33 O58 2.351 . S
Co33 O59 2.155 . S
Co33 O60 2.096 . S
C34 N37 1.301 . S
C34 N38 1.328 . S
C34 H39 0.930 . S
C35 C36 1.333 . S
C35 N37 1.317 . S
C35 H40 0.930 . S
C36 C35 1.333 . S
C36 N38 1.350 . S
C36 H62 0.931 . S
N37 Co33 2.148 . S
N37 C34 1.301 . S
N37 C35 1.317 . S
N38 C34 1.328 . S
N38 C36 1.350 . S
H39 C34 0.930 . S
H40 C35 0.930 . S
C41 O42 1.224 . S
C41 O60 1.247 . S
O42 C41 1.224 . S
N43 Co33 2.128 . S
N43 C44 1.355 . S
N43 C46 1.311 . S
C44 N43 1.355 . S
C44 C45 1.363 . S
C44 H56 0.929 . S
C45 C44 1.363 . S
C45 N47 1.375 . S
C45 H63 0.931 . S
C46 N43 1.311 . S
C46 N47 1.347 . S
C46 H57 0.929 . S
N47 C45 1.375 . S
N47 C46 1.347 . S
C48 C51 1.365 . S
C48 N53 1.328 . S
C48 H54 0.929 . S
C49 C50 1.362 . S
C49 C52 1.378 . S
C49 H64 0.929 . S
C50 C49 1.362 . S
C50 C51 1.366 . S
C51 C48 1.365 . S
C51 C50 1.366 . S
C51 H65 0.930 . S
C52 C49 1.378 . S
C52 N53 1.315 . S
C52 H55 0.930 . S
N53 Co33 2.194 . S
N53 C48 1.328 . S
N53 C52 1.315 . S
H54 C48 0.929 . S
H55 C52 0.930 . S
H56 C44 0.929 . S
H57 C46 0.929 . S
O58 Co33 2.351 . S
O58 C61 1.244 . S
O59 Co33 2.155 . S
O59 C61 1.240 . S
O60 Co33 2.096 . S
O60 C41 1.247 . S
C61 O58 1.244 . S
C61 O59 1.240 . S
H62 C36 0.931 . S
H63 C45 0.931 . S
H64 C49 0.929 . S
H65 C51 0.930 . S
Co66 N70 2.148 . S
Co66 N76 2.128 . S
Co66 N86 2.194 . S
Co66 O91 2.351 . S
Co66 O92 2.155 . S
Co66 O93 2.096 . S
C67 N70 1.301 . S
C67 N71 1.328 1_556 S
C67 H72 0.930 . S
C68 C69 1.333 1_556 S
C68 N70 1.317 . S
C68 H73 0.930 . S
C69 C68 1.333 1_554 S
C69 N71 1.350 . S
C69 H95 0.931 . S
N70 Co66 2.148 . S
N70 C67 1.301 . S
N70 C68 1.317 . S
N71 C67 1.328 1_554 S
N71 C69 1.350 . S
H72 C67 0.930 . S
H73 C68 0.930 . S
C74 O75 1.224 . S
C74 O93 1.247 . S
O75 C74 1.224 . S
N76 Co66 2.128 . S
N76 C77 1.355 . S
N76 C79 1.311 . S
C77 N76 1.355 . S
C77 C78 1.363 . S
C77 H89 0.929 . S
C78 C77 1.363 . S
C78 N80 1.375 . S
C78 H96 0.931 . S
C79 N76 1.311 . S
C79 N80 1.347 . S
C79 H90 0.929 . S
N80 C78 1.375 . S
N80 C79 1.347 . S
C81 C84 1.365 . S
C81 N86 1.328 . S
C81 H87 0.929 . S
C82 C83 1.362 . S
C82 C85 1.378 . S
C82 H97 0.929 . S
C83 C82 1.362 . S
C83 C84 1.366 . S
C84 C81 1.365 . S
C84 C83 1.366 . S
C84 H98 0.930 . S
C85 C82 1.378 . S
C85 N86 1.315 . S
C85 H88 0.930 . S
N86 Co66 2.194 . S
N86 C81 1.328 . S
N86 C85 1.315 . S
H87 C81 0.929 . S
H88 C85 0.930 . S
H89 C77 0.929 . S
H90 C79 0.929 . S
O91 Co66 2.351 . S
O91 C94 1.244 . S
O92 Co66 2.155 . S
O92 C94 1.240 . S
O93 Co66 2.096 . S
O93 C74 1.247 . S
C94 O91 1.244 . S
C94 O92 1.240 . S
H95 C69 0.931 . S
H96 C78 0.931 . S
H97 C82 0.929 . S
H98 C84 0.930 . S
Co99 N103 2.148 1_556 S
Co99 N109 2.128 . S
Co99 N119 2.194 1_556 S
Co99 O124 2.351 1_556 S
Co99 O125 2.155 1_556 S
Co99 O126 2.096 . S
C100 N103 1.301 . S
C100 N104 1.328 . S
C100 H105 0.930 . S
C101 C102 1.333 . S
C101 N103 1.317 . S
C101 H106 0.930 . S
C102 C101 1.333 . S
C102 N104 1.350 . S
C102 H128 0.931 . S
N103 Co99 2.148 1_554 S
N103 C100 1.301 . S
N103 C101 1.317 . S
N104 C100 1.328 . S
N104 C102 1.350 . S
H105 C100 0.930 . S
H106 C101 0.930 . S
C107 O108 1.224 . S
C107 O126 1.247 . S
O108 C107 1.224 . S
N109 Co99 2.128 . S
N109 C110 1.355 . S
N109 C112 1.311 . S
C110 N109 1.355 . S
C110 C111 1.363 . S
C110 H122 0.929 . S
C111 C110 1.363 . S
C111 N113 1.375 . S
C111 H129 0.931 . S
C112 N109 1.311 . S
C112 N113 1.347 . S
C112 H123 0.929 . S
N113 C111 1.375 . S
N113 C112 1.347 . S
C114 C117 1.365 . S
C114 N119 1.328 . S
C114 H120 0.929 . S
C115 C116 1.362 . S
C115 C118 1.377 1_554 S
C115 H130 0.929 1_554 S
C116 C115 1.362 . S
C116 C117 1.366 . S
C117 C114 1.365 . S
C117 C116 1.366 . S
C117 H131 0.930 . S
C118 C115 1.377 1_556 S
C118 N119 1.314 1_556 S
C118 H121 0.931 . S
N119 Co99 2.194 1_554 S
N119 C114 1.328 . S
N119 C118 1.314 1_554 S
H120 C114 0.929 . S
H121 C118 0.931 . S
H122 C110 0.929 . S
H123 C112 0.929 . S
O124 Co99 2.351 1_554 S
O124 C127 1.244 . S
O125 Co99 2.155 1_554 S
O125 C127 1.240 . S
O126 Co99 2.096 . S
O126 C107 1.247 . S
C127 O124 1.244 . S
C127 O125 1.240 . S
H128 C102 0.931 . S
H129 C111 0.931 . S
H130 C115 0.929 1_556 S
H131 C117 0.930 . S
Co132 N136 2.148 . S
Co132 N142 2.128 . S
Co132 N152 2.194 . S
Co132 O157 2.351 . S
Co132 O158 2.155 . S
Co132 O159 2.096 . S
C133 N136 1.301 . S
C133 N137 1.328 . S
C133 H138 0.930 . S
C134 C135 1.333 . S
C134 N136 1.317 . S
C134 H139 0.930 . S
C135 C134 1.333 . S
C135 N137 1.350 . S
C135 H161 0.931 . S
N136 Co132 2.148 . S
N136 C133 1.301 . S
N136 C134 1.317 . S
N137 C133 1.328 . S
N137 C135 1.350 . S
H138 C133 0.930 . S
H139 C134 0.930 . S
C140 O141 1.224 . S
C140 O159 1.247 . S
O141 C140 1.224 . S
N142 Co132 2.128 . S
N142 C143 1.355 . S
N142 C145 1.311 . S
C143 N142 1.355 . S
C143 C144 1.363 . S
C143 H155 0.929 . S
C144 C143 1.363 . S
C144 N146 1.375 . S
C144 H162 0.931 . S
C145 N142 1.311 . S
C145 N146 1.347 . S
C145 H156 0.929 . S
N146 C144 1.375 . S
N146 C145 1.347 . S
C147 C150 1.365 . S
C147 N152 1.328 . S
C147 H153 0.929 . S
C148 C149 1.362 . S
C148 C151 1.378 . S
C148 H163 0.929 . S
C149 C148 1.362 . S
C149 C150 1.366 . S
C150 C147 1.365 . S
C150 C149 1.366 . S
C150 H164 0.930 . S
C151 C148 1.378 . S
C151 N152 1.315 . S
C151 H154 0.930 . S
N152 Co132 2.194 . S
N152 C147 1.328 . S
N152 C151 1.315 . S
H153 C147 0.929 . S
H154 C151 0.930 . S
H155 C143 0.929 . S
H156 C145 0.929 . S
O157 Co132 2.351 . S
O157 C160 1.244 . S
O158 Co132 2.155 . S
O158 C160 1.240 . S
O159 Co132 2.096 . S
O159 C140 1.247 . S
C160 O157 1.244 . S
C160 O158 1.240 . S
H161 C135 0.931 . S
H162 C144 0.931 . S
H163 C148 0.929 . S
H164 C150 0.930 . S
Co165 N169 2.148 1_554 S
Co165 N175 2.128 . S
Co165 N185 2.194 1_554 S
Co165 O190 2.351 1_554 S
Co165 O191 2.155 1_554 S
Co165 O192 2.096 . S
C166 N169 1.301 . S
C166 N170 1.328 . S
C166 H171 0.930 . S
C167 C168 1.333 . S
C167 N169 1.317 . S
C167 H172 0.930 . S
C168 C167 1.333 . S
C168 N170 1.350 . S
C168 H194 0.931 . S
N169 Co165 2.148 1_556 S
N169 C166 1.301 . S
N169 C167 1.317 . S
N170 C166 1.328 . S
N170 C168 1.350 . S
H171 C166 0.930 . S
H172 C167 0.930 . S
C173 O174 1.224 . S
C173 O192 1.247 . S
O174 C173 1.224 . S
N175 Co165 2.128 . S
N175 C176 1.355 . S
N175 C178 1.311 . S
C176 N175 1.355 . S
C176 C177 1.363 . S
C176 H188 0.929 . S
C177 C176 1.363 . S
C177 N179 1.375 . S
C177 H195 0.931 . S
C178 N175 1.311 . S
C178 N179 1.347 . S
C178 H189 0.929 . S
N179 C177 1.375 . S
N179 C178 1.347 . S
C180 C183 1.365 . S
C180 N185 1.328 . S
C180 H186 0.929 . S
C181 C182 1.362 . S
C181 C184 1.377 1_556 S
C181 H196 0.929 1_556 S
C182 C181 1.362 . S
C182 C183 1.366 . S
C183 C180 1.365 . S
C183 C182 1.366 . S
C183 H197 0.930 . S
C184 C181 1.377 1_554 S
C184 N185 1.314 1_554 S
C184 H187 0.931 . S
N185 Co165 2.194 1_556 S
N185 C180 1.328 . S
N185 C184 1.314 1_556 S
H186 C180 0.929 . S
H187 C184 0.931 . S
H188 C176 0.929 . S
H189 C178 0.929 . S
O190 Co165 2.351 1_556 S
O190 C193 1.244 . S
O191 Co165 2.155 1_556 S
O191 C193 1.240 . S
O192 Co165 2.096 . S
O192 C173 1.247 . S
C193 O190 1.244 . S
C193 O191 1.240 . S
H194 C168 0.931 . S
H195 C177 0.931 . S
H196 C181 0.929 1_554 S
H197 C183 0.930 . S
Co198 N202 2.148 . S
Co198 N208 2.128 . S
Co198 N218 2.194 . S
Co198 O223 2.351 . S
Co198 O224 2.155 . S
Co198 O225 2.096 . S
C199 N202 1.301 . S
C199 N203 1.328 1_554 S
C199 H204 0.930 . S
C200 C201 1.333 1_554 S
C200 N202 1.317 . S
C200 H205 0.930 . S
C201 C200 1.333 1_556 S
C201 N203 1.350 . S
C201 H227 0.931 . S
N202 Co198 2.148 . S
N202 C199 1.301 . S
N202 C200 1.317 . S
N203 C199 1.328 1_556 S
N203 C201 1.350 . S
H204 C199 0.930 . S
H205 C200 0.930 . S
C206 O207 1.224 . S
C206 O225 1.247 . S
O207 C206 1.224 . S
N208 Co198 2.128 . S
N208 C209 1.355 . S
N208 C211 1.311 . S
C209 N208 1.355 . S
C209 C210 1.363 . S
C209 H221 0.929 . S
C210 C209 1.363 . S
C210 N212 1.375 . S
C210 H228 0.931 . S
C211 N208 1.311 . S
C211 N212 1.347 . S
C211 H222 0.929 . S
N212 C210 1.375 . S
N212 C211 1.347 . S
C213 C216 1.365 . S
C213 N218 1.328 . S
C213 H219 0.929 . S
C214 C215 1.362 . S
C214 C217 1.378 . S
C214 H229 0.929 . S
C215 C214 1.362 . S
C215 C216 1.366 . S
C216 C213 1.365 . S
C216 C215 1.366 . S
C216 H230 0.930 . S
C217 C214 1.378 . S
C217 N218 1.315 . S
C217 H220 0.930 . S
N218 Co198 2.194 . S
N218 C213 1.328 . S
N218 C217 1.315 . S
H219 C213 0.929 . S
H220 C217 0.930 . S
H221 C209 0.929 . S
H222 C211 0.929 . S
O223 Co198 2.351 . S
O223 C226 1.244 . S
O224 Co198 2.155 . S
O224 C226 1.240 . S
O225 Co198 2.096 . S
O225 C206 1.247 . S
C226 O223 1.244 . S
C226 O224 1.240 . S
H227 C201 0.931 . S
H228 C210 0.931 . S
H229 C214 0.929 . S
H230 C216 0.930 . S
Co231 N235 2.148 . S
Co231 N241 2.128 . S
Co231 N251 2.194 . S
Co231 O256 2.351 . S
Co231 O257 2.155 . S
Co231 O258 2.096 . S
C232 N235 1.301 . S
C232 N236 1.328 . S
C232 H237 0.930 . S
C233 C234 1.333 . S
C233 N235 1.317 . S
C233 H238 0.930 . S
C234 C233 1.333 . S
C234 N236 1.350 . S
C234 H260 0.931 . S
N235 Co231 2.148 . S
N235 C232 1.301 . S
N235 C233 1.317 . S
N236 C232 1.328 . S
N236 C234 1.350 . S
H237 C232 0.930 . S
H238 C233 0.930 . S
C239 O240 1.224 . S
C239 O258 1.247 . S
O240 C239 1.224 . S
N241 Co231 2.128 . S
N241 C242 1.355 . S
N241 C244 1.311 . S
C242 N241 1.355 . S
C242 C243 1.363 . S
C242 H254 0.929 . S
C243 C242 1.363 . S
C243 N245 1.375 . S
C243 H261 0.931 . S
C244 N241 1.311 . S
C244 N245 1.347 . S
C244 H255 0.929 . S
N245 C243 1.375 . S
N245 C244 1.347 . S
C246 C249 1.365 . S
C246 N251 1.328 . S
C246 H252 0.929 . S
C247 C248 1.362 . S
C247 C250 1.378 . S
C247 H262 0.929 . S
C248 C247 1.362 . S
C248 C249 1.366 . S
C249 C246 1.365 . S
C249 C248 1.366 . S
C249 H263 0.930 . S
C250 C247 1.378 . S
C250 N251 1.315 . S
C250 H253 0.930 . S
N251 Co231 2.194 . S
N251 C246 1.328 . S
N251 C250 1.315 . S
H252 C246 0.929 . S
H253 C250 0.930 . S
H254 C242 0.929 . S
H255 C244 0.929 . S
O256 Co231 2.351 . S
O256 C259 1.244 . S
O257 Co231 2.155 . S
O257 C259 1.240 . S
O258 Co231 2.096 . S
O258 C239 1.247 . S
C259 O256 1.244 . S
C259 O257 1.240 . S
H260 C234 0.931 . S
H261 C243 0.931 . S
H262 C247 0.929 . S
H263 C249 0.930 . S
Co264 N268 2.148 . S
Co264 N274 2.128 . S
Co264 N284 2.194 . S
Co264 O289 2.351 . S
Co264 O290 2.155 . S
Co264 O291 2.096 . S
C265 N268 1.301 . S
C265 N269 1.328 . S
C265 H270 0.930 . S
C266 C267 1.333 . S
C266 N268 1.317 . S
C266 H271 0.930 . S
C267 C266 1.333 . S
C267 N269 1.350 . S
C267 H293 0.931 . S
N268 Co264 2.148 . S
N268 C265 1.301 . S
N268 C266 1.317 . S
N269 C265 1.328 . S
N269 C267 1.350 . S
H270 C265 0.930 . S
H271 C266 0.930 . S
C272 O273 1.224 . S
C272 O291 1.247 . S
O273 C272 1.224 . S
N274 Co264 2.128 . S
N274 C275 1.355 . S
N274 C277 1.311 . S
C275 N274 1.355 . S
C275 C276 1.363 . S
C275 H287 0.929 . S
C276 C275 1.363 . S
C276 N278 1.375 . S
C276 H294 0.931 . S
C277 N274 1.311 . S
C277 N278 1.347 . S
C277 H288 0.929 . S
N278 C276 1.375 . S
N278 C277 1.347 . S
C279 C282 1.365 . S
C279 N284 1.328 . S
C279 H285 0.929 . S
C280 C281 1.362 . S
C280 C283 1.378 . S
C280 H295 0.929 . S
C281 C280 1.362 . S
C281 C282 1.366 . S
C282 C279 1.365 . S
C282 C281 1.366 . S
C282 H296 0.930 . S
C283 C280 1.378 . S
C283 N284 1.315 . S
C283 H286 0.930 . S
N284 Co264 2.194 . S
N284 C279 1.328 . S
N284 C283 1.315 . S
H285 C279 0.929 . S
H286 C283 0.930 . S
H287 C275 0.929 . S
H288 C277 0.929 . S
O289 Co264 2.351 . S
O289 C292 1.244 . S
O290 Co264 2.155 . S
O290 C292 1.240 . S
O291 Co264 2.096 . S
O291 C272 1.247 . S
C292 O289 1.244 . S
C292 O290 1.240 . S
H293 C267 0.931 . S
H294 C276 0.931 . S
H295 C280 0.929 . S
H296 C282 0.930 . S
Co297 N301 2.148 1_554 S
Co297 N307 2.128 . S
Co297 N317 2.194 1_554 S
Co297 O322 2.351 1_554 S
Co297 O323 2.155 1_554 S
Co297 O324 2.096 . S
C298 N301 1.301 . S
C298 N302 1.328 . S
C298 H303 0.930 . S
C299 C300 1.333 . S
C299 N301 1.317 . S
C299 H304 0.930 . S
C300 C299 1.333 . S
C300 N302 1.350 . S
C300 H326 0.931 . S
N301 Co297 2.148 1_556 S
N301 C298 1.301 . S
N301 C299 1.317 . S
N302 C298 1.328 . S
N302 C300 1.350 . S
H303 C298 0.930 . S
H304 C299 0.930 . S
C305 O306 1.224 . S
C305 O324 1.247 . S
O306 C305 1.224 . S
N307 Co297 2.128 . S
N307 C308 1.355 . S
N307 C310 1.311 . S
C308 N307 1.355 . S
C308 C309 1.363 . S
C308 H320 0.929 . S
C309 C308 1.363 . S
C309 N311 1.375 . S
C309 H327 0.931 . S
C310 N307 1.311 . S
C310 N311 1.347 . S
C310 H321 0.929 . S
N311 C309 1.375 . S
N311 C310 1.347 . S
C312 C315 1.365 . S
C312 N317 1.328 . S
C312 H318 0.929 . S
C313 C314 1.362 . S
C313 C316 1.377 1_556 S
C313 H328 0.929 1_556 S
C314 C313 1.362 . S
C314 C315 1.366 . S
C315 C312 1.365 . S
C315 C314 1.366 . S
C315 H329 0.930 . S
C316 C313 1.377 1_554 S
C316 N317 1.314 1_554 S
C316 H319 0.931 . S
N317 Co297 2.194 1_556 S
N317 C312 1.328 . S
N317 C316 1.314 1_556 S
H318 C312 0.929 . S
H319 C316 0.931 . S
H320 C308 0.929 . S
H321 C310 0.929 . S
O322 Co297 2.351 1_556 S
O322 C325 1.244 . S
O323 Co297 2.155 1_556 S
O323 C325 1.240 . S
O324 Co297 2.096 . S
O324 C305 1.247 . S
C325 O322 1.244 . S
C325 O323 1.240 . S
H326 C300 0.931 . S
H327 C309 0.931 . S
H328 C313 0.929 1_554 S
H329 C315 0.930 . S
Co330 N334 2.148 1_556 S
Co330 N340 2.128 . S
Co330 N350 2.194 1_556 S
Co330 O355 2.351 1_556 S
Co330 O356 2.155 1_556 S
Co330 O357 2.096 . S
C331 N334 1.301 . S
C331 N335 1.328 . S
C331 H336 0.930 . S
C332 C333 1.333 . S
C332 N334 1.317 . S
C332 H337 0.930 . S
C333 C332 1.333 . S
C333 N335 1.350 . S
C333 H359 0.931 . S
N334 Co330 2.148 1_554 S
N334 C331 1.301 . S
N334 C332 1.317 . S
N335 C331 1.328 . S
N335 C333 1.350 . S
H336 C331 0.930 . S
H337 C332 0.930 . S
C338 O339 1.224 . S
C338 O357 1.247 . S
O339 C338 1.224 . S
N340 Co330 2.128 . S
N340 C341 1.355 . S
N340 C343 1.311 . S
C341 N340 1.355 . S
C341 C342 1.363 . S
C341 H353 0.929 . S
C342 C341 1.363 . S
C342 N344 1.375 . S
C342 H360 0.931 . S
C343 N340 1.311 . S
C343 N344 1.347 . S
C343 H354 0.929 . S
N344 C342 1.375 . S
N344 C343 1.347 . S
C345 C348 1.365 . S
C345 N350 1.328 . S
C345 H351 0.929 . S
C346 C347 1.362 . S
C346 C349 1.377 1_554 S
C346 H361 0.929 1_554 S
C347 C346 1.362 . S
C347 C348 1.366 . S
C348 C345 1.365 . S
C348 C347 1.366 . S
C348 H362 0.930 . S
C349 C346 1.377 1_556 S
C349 N350 1.314 1_556 S
C349 H352 0.931 . S
N350 Co330 2.194 1_554 S
N350 C345 1.328 . S
N350 C349 1.314 1_554 S
H351 C345 0.929 . S
H352 C349 0.931 . S
H353 C341 0.929 . S
H354 C343 0.929 . S
O355 Co330 2.351 1_554 S
O355 C358 1.244 . S
O356 Co330 2.155 1_554 S
O356 C358 1.240 . S
O357 Co330 2.096 . S
O357 C338 1.247 . S
C358 O355 1.244 . S
C358 O356 1.240 . S
H359 C333 0.931 . S
H360 C342 0.931 . S
H361 C346 0.929 1_556 S
H362 C348 0.930 . S
Co363 N367 2.148 . S
Co363 N373 2.128 . S
Co363 N383 2.194 . S
Co363 O388 2.351 . S
Co363 O389 2.155 . S
Co363 O390 2.096 . S
C364 N367 1.301 . S
C364 N368 1.328 . S
C364 H369 0.930 . S
C365 C366 1.333 . S
C365 N367 1.317 . S
C365 H370 0.930 . S
C366 C365 1.333 . S
C366 N368 1.350 . S
C366 H392 0.931 . S
N367 Co363 2.148 . S
N367 C364 1.301 . S
N367 C365 1.317 . S
N368 C364 1.328 . S
N368 C366 1.350 . S
H369 C364 0.930 . S
H370 C365 0.930 . S
C371 O372 1.224 . S
C371 O390 1.247 . S
O372 C371 1.224 . S
N373 Co363 2.128 . S
N373 C374 1.355 . S
N373 C376 1.311 . S
C374 N373 1.355 . S
C374 C375 1.363 . S
C374 H386 0.929 . S
C375 C374 1.363 . S
C375 N377 1.375 . S
C375 H393 0.931 . S
C376 N373 1.311 . S
C376 N377 1.347 . S
C376 H387 0.929 . S
N377 C375 1.375 . S
N377 C376 1.347 . S
C378 C381 1.365 . S
C378 N383 1.328 . S
C378 H384 0.929 . S
C379 C380 1.362 . S
C379 C382 1.378 . S
C379 H394 0.929 . S
C380 C379 1.362 . S
C380 C381 1.366 . S
C381 C378 1.365 . S
C381 C380 1.366 . S
C381 H395 0.930 . S
C382 C379 1.378 . S
C382 N383 1.315 . S
C382 H385 0.930 . S
N383 Co363 2.194 . S
N383 C378 1.328 . S
N383 C382 1.315 . S
H384 C378 0.929 . S
H385 C382 0.930 . S
H386 C374 0.929 . S
H387 C376 0.929 . S
O388 Co363 2.351 . S
O388 C391 1.244 . S
O389 Co363 2.155 . S
O389 C391 1.240 . S
O390 Co363 2.096 . S
O390 C371 1.247 . S
C391 O388 1.244 . S
C391 O389 1.240 . S
H392 C366 0.931 . S
H393 C375 0.931 . S
H394 C379 0.929 . S
H395 C381 0.930 . S
Co396 N400 2.148 . S
Co396 N406 2.128 . S
Co396 N416 2.194 . S
Co396 O421 2.351 . S
Co396 O422 2.155 . S
Co396 O423 2.096 . S
C397 N400 1.301 . S
C397 N401 1.328 1_556 S
C397 H402 0.930 . S
C398 C399 1.333 1_556 S
C398 N400 1.317 . S
C398 H403 0.930 . S
C399 C398 1.333 1_554 S
C399 N401 1.350 . S
C399 H425 0.931 . S
N400 Co396 2.148 . S
N400 C397 1.301 . S
N400 C398 1.317 . S
N401 C397 1.328 1_554 S
N401 C399 1.350 . S
H402 C397 0.930 . S
H403 C398 0.930 . S
C404 O405 1.224 . S
C404 O423 1.247 . S
O405 C404 1.224 . S
N406 Co396 2.128 . S
N406 C407 1.355 . S
N406 C409 1.311 . S
C407 N406 1.355 . S
C407 C408 1.363 . S
C407 H419 0.929 . S
C408 C407 1.363 . S
C408 N410 1.375 . S
C408 H426 0.931 . S
C409 N406 1.311 . S
C409 N410 1.347 . S
C409 H420 0.929 . S
N410 C408 1.375 . S
N410 C409 1.347 . S
C411 C414 1.365 . S
C411 N416 1.328 . S
C411 H417 0.929 . S
C412 C413 1.362 . S
C412 C415 1.378 . S
C412 H427 0.929 . S
C413 C412 1.362 . S
C413 C414 1.366 . S
C414 C411 1.365 . S
C414 C413 1.366 . S
C414 H428 0.930 . S
C415 C412 1.378 . S
C415 N416 1.315 . S
C415 H418 0.930 . S
N416 Co396 2.194 . S
N416 C411 1.328 . S
N416 C415 1.315 . S
H417 C411 0.929 . S
H418 C415 0.930 . S
H419 C407 0.929 . S
H420 C409 0.929 . S
O421 Co396 2.351 . S
O421 C424 1.244 . S
O422 Co396 2.155 . S
O422 C424 1.240 . S
O423 Co396 2.096 . S
O423 C404 1.247 . S
C424 O421 1.244 . S
C424 O422 1.240 . S
H425 C399 0.931 . S
H426 C408 0.931 . S
H427 C412 0.929 . S
H428 C414 0.930 . S
Co429 N433 2.148 . S
Co429 N439 2.128 . S
Co429 N449 2.194 . S
Co429 O454 2.351 . S
Co429 O455 2.155 . S
Co429 O456 2.096 . S
C430 N433 1.301 . S
C430 N434 1.328 . S
C430 H435 0.930 . S
C431 C432 1.333 . S
C431 N433 1.317 . S
C431 H436 0.930 . S
C432 C431 1.333 . S
C432 N434 1.350 . S
C432 H458 0.931 . S
N433 Co429 2.148 . S
N433 C430 1.301 . S
N433 C431 1.317 . S
N434 C430 1.328 . S
N434 C432 1.350 . S
H435 C430 0.930 . S
H436 C431 0.930 . S
C437 O438 1.224 . S
C437 O456 1.247 . S
O438 C437 1.224 . S
N439 Co429 2.128 . S
N439 C440 1.355 . S
N439 C442 1.311 . S
C440 N439 1.355 . S
C440 C441 1.363 . S
C440 H452 0.929 . S
C441 C440 1.363 . S
C441 N443 1.375 . S
C441 H459 0.931 . S
C442 N439 1.311 . S
C442 N443 1.347 . S
C442 H453 0.929 . S
N443 C441 1.375 . S
N443 C442 1.347 . S
C444 C447 1.365 . S
C444 N449 1.328 . S
C444 H450 0.929 . S
C445 C446 1.362 . S
C445 C448 1.378 . S
C445 H460 0.929 . S
C446 C445 1.362 . S
C446 C447 1.366 . S
C447 C444 1.365 . S
C447 C446 1.366 . S
C447 H461 0.930 . S
C448 C445 1.378 . S
C448 N449 1.315 . S
C448 H451 0.930 . S
N449 Co429 2.194 . S
N449 C444 1.328 . S
N449 C448 1.315 . S
H450 C444 0.929 . S
H451 C448 0.930 . S
H452 C440 0.929 . S
H453 C442 0.929 . S
O454 Co429 2.351 . S
O454 C457 1.244 . S
O455 Co429 2.155 . S
O455 C457 1.240 . S
O456 Co429 2.096 . S
O456 C437 1.247 . S
C457 O454 1.244 . S
C457 O455 1.240 . S
H458 C432 0.931 . S
H459 C441 0.931 . S
H460 C445 0.929 . S
H461 C447 0.930 . S
Co462 N466 2.148 . S
Co462 N472 2.128 . S
Co462 N482 2.194 . S
Co462 O487 2.351 . S
Co462 O488 2.155 . S
Co462 O489 2.096 . S
C463 N466 1.301 . S
C463 N467 1.328 1_554 S
C463 H468 0.930 . S
C464 C465 1.333 1_554 S
C464 N466 1.317 . S
C464 H469 0.930 . S
C465 C464 1.333 1_556 S
C465 N467 1.350 . S
C465 H491 0.931 . S
N466 Co462 2.148 . S
N466 C463 1.301 . S
N466 C464 1.317 . S
N467 C463 1.328 1_556 S
N467 C465 1.350 . S
H468 C463 0.930 . S
H469 C464 0.930 . S
C470 O471 1.224 . S
C470 O489 1.247 . S
O471 C470 1.224 . S
N472 Co462 2.128 . S
N472 C473 1.355 . S
N472 C475 1.311 . S
C473 N472 1.355 . S
C473 C474 1.363 . S
C473 H485 0.929 . S
C474 C473 1.363 . S
C474 N476 1.375 . S
C474 H492 0.931 . S
C475 N472 1.311 . S
C475 N476 1.347 . S
C475 H486 0.929 . S
N476 C474 1.375 . S
N476 C475 1.347 . S
C477 C480 1.365 . S
C477 N482 1.328 . S
C477 H483 0.929 . S
C478 C479 1.362 . S
C478 C481 1.378 . S
C478 H493 0.929 . S
C479 C478 1.362 . S
C479 C480 1.366 . S
C480 C477 1.365 . S
C480 C479 1.366 . S
C480 H494 0.930 . S
C481 C478 1.378 . S
C481 N482 1.315 . S
C481 H484 0.930 . S
N482 Co462 2.194 . S
N482 C477 1.328 . S
N482 C481 1.315 . S
H483 C477 0.929 . S
H484 C481 0.930 . S
H485 C473 0.929 . S
H486 C475 0.929 . S
O487 Co462 2.351 . S
O487 C490 1.244 . S
O488 Co462 2.155 . S
O488 C490 1.240 . S
O489 Co462 2.096 . S
O489 C470 1.247 . S
C490 O487 1.244 . S
C490 O488 1.240 . S
H491 C465 0.931 . S
H492 C474 0.931 . S
H493 C478 0.929 . S
H494 C480 0.930 . S
Co495 N499 2.148 . S
Co495 N505 2.128 . S
Co495 N515 2.194 . S
Co495 O520 2.351 . S
Co495 O521 2.155 . S
Co495 O522 2.096 . S
C496 N499 1.301 . S
C496 N500 1.328 . S
C496 H501 0.930 . S
C497 C498 1.333 . S
C497 N499 1.317 . S
C497 H502 0.930 . S
C498 C497 1.333 . S
C498 N500 1.350 . S
C498 H524 0.931 . S
N499 Co495 2.148 . S
N499 C496 1.301 . S
N499 C497 1.317 . S
N500 C496 1.328 . S
N500 C498 1.350 . S
H501 C496 0.930 . S
H502 C497 0.930 . S
C503 O504 1.224 . S
C503 O522 1.247 . S
O504 C503 1.224 . S
N505 Co495 2.128 . S
N505 C506 1.355 . S
N505 C508 1.311 . S
C506 N505 1.355 . S
C506 C507 1.363 . S
C506 H518 0.929 . S
C507 C506 1.363 . S
C507 N509 1.375 . S
C507 H525 0.931 . S
C508 N505 1.311 . S
C508 N509 1.347 . S
C508 H519 0.929 . S
N509 C507 1.375 . S
N509 C508 1.347 . S
C510 C513 1.365 . S
C510 N515 1.328 . S
C510 H516 0.929 . S
C511 C512 1.362 . S
C511 C514 1.378 . S
C511 H526 0.929 . S
C512 C511 1.362 . S
C512 C513 1.366 . S
C513 C510 1.365 . S
C513 C512 1.366 . S
C513 H527 0.930 . S
C514 C511 1.378 . S
C514 N515 1.315 . S
C514 H517 0.930 . S
N515 Co495 2.194 . S
N515 C510 1.328 . S
N515 C514 1.315 . S
H516 C510 0.929 . S
H517 C514 0.930 . S
H518 C506 0.929 . S
H519 C508 0.929 . S
O520 Co495 2.351 . S
O520 C523 1.244 . S
O521 Co495 2.155 . S
O521 C523 1.240 . S
O522 Co495 2.096 . S
O522 C503 1.247 . S
C523 O520 1.244 . S
C523 O521 1.240 . S
H524 C498 0.931 . S
H525 C507 0.931 . S
H526 C511 0.929 . S
H527 C513 0.930 . S
H528 C534 0.930 . S
H529 C538 0.930 . S
H530 C543 0.929 . S
H531 C541 0.929 . S
H532 C536 0.929 . S
H533 C542 0.929 . S
C534 H528 0.930 . S
C534 C535 1.367 . S
C534 C542 1.378 . S
C535 C534 1.367 . S
C535 C543 1.433 . S
C536 H532 0.929 . S
C536 C538 1.378 . S
C536 C540 1.350 . S
C537 C540 1.463 . S
C537 C542 1.350 . S
C537 N545 1.427 . S
C538 H529 0.930 . S
C538 C536 1.378 . S
C538 C539 1.367 . S
C539 C538 1.367 . S
C539 C541 1.433 . S
C540 C536 1.350 . S
C540 C537 1.463 . S
C540 N544 1.427 . S
C541 H531 0.929 . S
C541 C539 1.433 . S
C541 N544 1.384 . S
C542 H533 0.929 . S
C542 C534 1.378 . S
C542 C537 1.350 . S
C543 H530 0.929 . S
C543 C535 1.433 . S
C543 N545 1.384 . S
N544 C540 1.427 . S
N544 C541 1.384 . S
N545 C537 1.427 . S
N545 C543 1.384 . S
H546 C552 0.930 . S
H547 C556 0.930 . S
H548 C561 0.929 . S
H549 C559 0.929 . S
H550 C554 0.929 . S
H551 C560 0.929 . S
C552 H546 0.930 . S
C552 C553 1.367 . S
C552 C560 1.378 . S
C553 C552 1.367 . S
C553 C561 1.433 . S
C554 H550 0.929 . S
C554 C556 1.378 . S
C554 C558 1.350 . S
C555 C558 1.463 . S
C555 C560 1.350 . S
C555 N563 1.427 . S
C556 H547 0.930 . S
C556 C554 1.378 . S
C556 C557 1.367 . S
C557 C556 1.367 . S
C557 C559 1.433 . S
C558 C554 1.350 . S
C558 C555 1.463 . S
C558 N562 1.427 . S
C559 H549 0.929 . S
C559 C557 1.433 . S
C559 N562 1.384 . S
C560 H551 0.929 . S
C560 C552 1.378 . S
C560 C555 1.350 . S
C561 H548 0.929 . S
C561 C553 1.433 . S
C561 N563 1.384 . S
N562 C558 1.427 . S
N562 C559 1.384 . S
N563 C555 1.427 . S
N563 C561 1.384 . S
H564 C570 0.930 . S
H565 C574 0.930 1_554 S
H566 C579 0.929 . S
H567 C577 0.929 . S
H568 C572 0.929 1_554 S
H569 C578 0.929 . S
C570 H564 0.930 . S
C570 C571 1.367 . S
C570 C578 1.378 . S
C571 C570 1.367 . S
C571 C579 1.433 . S
C572 H568 0.929 1_556 S
C572 C574 1.378 . S
C572 C576 1.350 . S
C573 C576 1.463 . S
C573 C578 1.350 . S
C573 N581 1.427 . S
C574 H565 0.930 1_556 S
C574 C572 1.378 . S
C574 C575 1.367 . S
C575 C574 1.367 . S
C575 C577 1.433 . S
C576 C572 1.350 . S
C576 C573 1.463 . S
C576 N580 1.427 . S
C577 H567 0.929 . S
C577 C575 1.433 . S
C577 N580 1.384 . S
C578 H569 0.929 . S
C578 C570 1.378 . S
C578 C573 1.350 . S
C579 H566 0.929 . S
C579 C571 1.433 . S
C579 N581 1.384 . S
N580 C576 1.427 . S
N580 C577 1.384 . S
N581 C573 1.427 . S
N581 C579 1.384 . S
H582 C588 0.930 . S
H583 C592 0.930 . S
H584 C597 0.929 . S
H585 C595 0.929 . S
H586 C590 0.929 . S
H587 C596 0.929 . S
C588 H582 0.930 . S
C588 C589 1.367 . S
C588 C596 1.378 . S
C589 C588 1.367 . S
C589 C597 1.433 . S
C590 H586 0.929 . S
C590 C592 1.378 . S
C590 C594 1.350 . S
C591 C594 1.463 . S
C591 C596 1.350 . S
C591 N599 1.427 . S
C592 H583 0.930 . S
C592 C590 1.378 . S
C592 C593 1.367 . S
C593 C592 1.367 . S
C593 C595 1.433 . S
C594 C590 1.350 . S
C594 C591 1.463 . S
C594 N598 1.427 . S
C595 H585 0.929 . S
C595 C593 1.433 . S
C595 N598 1.384 . S
C596 H587 0.929 . S
C596 C588 1.378 . S
C596 C591 1.350 . S
C597 H584 0.929 . S
C597 C589 1.433 . S
C597 N599 1.384 . S
N598 C594 1.427 . S
N598 C595 1.384 . S
N599 C591 1.427 . S
N599 C597 1.384 . S
H600 C606 0.930 . S
H601 C610 0.930 . S
H602 C615 0.929 . S
H603 C613 0.929 . S
H604 C608 0.929 . S
H605 C614 0.929 . S
C606 H600 0.930 . S
C606 C607 1.367 . S
C606 C614 1.378 . S
C607 C606 1.367 . S
C607 C615 1.433 . S
C608 H604 0.929 . S
C608 C610 1.378 . S
C608 C612 1.350 1_455 S
C609 C612 1.463 . S
C609 C614 1.350 . S
C609 N617 1.427 . S
C610 H601 0.930 . S
C610 C608 1.378 . S
C610 C611 1.367 . S
C611 C610 1.367 . S
C611 C613 1.433 1_455 S
C612 C608 1.350 1_655 S
C612 C609 1.463 . S
C612 N616 1.427 . S
C613 H603 0.929 . S
C613 C611 1.433 1_655 S
C613 N616 1.384 . S
C614 H605 0.929 . S
C614 C606 1.378 . S
C614 C609 1.350 . S
C615 H602 0.929 . S
C615 C607 1.433 . S
C615 N617 1.384 . S
N616 C612 1.427 . S
N616 C613 1.384 . S
N617 C609 1.427 . S
N617 C615 1.384 . S
H618 C624 0.930 . S
H619 C628 0.930 . S
H620 C633 0.929 . S
H621 C631 0.929 . S
H622 C626 0.929 . S
H623 C632 0.929 . S
C624 H618 0.930 . S
C624 C625 1.367 . S
C624 C632 1.378 . S
C625 C624 1.367 . S
C625 C633 1.433 . S
C626 H622 0.929 . S
C626 C628 1.378 1_655 S
C626 C630 1.350 . S
C627 C630 1.463 . S
C627 C632 1.350 . S
C627 N635 1.427 . S
C628 H619 0.930 . S
C628 C626 1.378 1_455 S
C628 C629 1.367 . S
C629 C628 1.367 . S
C629 C631 1.433 . S
C630 C626 1.350 . S
C630 C627 1.463 . S
C630 N634 1.427 . S
C631 H621 0.929 . S
C631 C629 1.433 . S
C631 N634 1.384 1_455 S
C632 H623 0.929 . S
C632 C624 1.378 . S
C632 C627 1.350 . S
C633 H620 0.929 . S
C633 C625 1.433 . S
C633 N635 1.384 . S
N634 C630 1.427 . S
N634 C631 1.384 1_655 S
N635 C627 1.427 . S
N635 C633 1.384 . S
H636 C642 0.930 . S
H637 C646 0.930 . S
H638 C651 0.929 . S
H639 C649 0.929 . S
H640 C644 0.929 1_556 S
H641 C650 0.929 . S
C642 H636 0.930 . S
C642 C643 1.367 . S
C642 C650 1.378 . S
C643 C642 1.367 . S
C643 C651 1.433 . S
C644 H640 0.929 1_554 S
C644 C646 1.378 1_554 S
C644 C648 1.350 . S
C645 C648 1.463 . S
C645 C650 1.350 . S
C645 N653 1.427 . S
C646 H637 0.930 . S
C646 C644 1.378 1_556 S
C646 C647 1.367 1_556 S
C647 C646 1.367 1_554 S
C647 C649 1.433 . S
C648 C644 1.350 . S
C648 C645 1.463 . S
C648 N652 1.427 . S
C649 H639 0.929 . S
C649 C647 1.433 . S
C649 N652 1.384 . S
C650 H641 0.929 . S
C650 C642 1.378 . S
C650 C645 1.350 . S
C651 H638 0.929 . S
C651 C643 1.433 . S
C651 N653 1.384 . S
N652 C648 1.427 . S
N652 C649 1.384 . S
N653 C645 1.427 . S
N653 C651 1.384 . S
H654 C660 0.930 . S
H655 C664 0.930 1_554 S
H656 C669 0.929 . S
H657 C667 0.929 . S
H658 C662 0.929 . S
H659 C668 0.929 . S
C660 H654 0.930 . S
C660 C661 1.367 . S
C660 C668 1.378 . S
C661 C660 1.367 . S
C661 C669 1.433 . S
C662 H658 0.929 . S
C662 C664 1.378 . S
C662 C666 1.350 . S
C663 C666 1.463 . S
C663 C668 1.350 . S
C663 N671 1.427 . S
C664 H655 0.930 1_556 S
C664 C662 1.378 . S
C664 C665 1.367 . S
C665 C664 1.367 . S
C665 C667 1.433 . S
C666 C662 1.350 . S
C666 C663 1.463 . S
C666 N670 1.427 . S
C667 H657 0.929 . S
C667 C665 1.433 . S
C667 N670 1.384 . S
C668 H659 0.929 . S
C668 C660 1.378 . S
C668 C663 1.350 . S
C669 H656 0.929 . S
C669 C661 1.433 . S
C669 N671 1.384 . S
N670 C666 1.427 . S
N670 C667 1.384 . S
N671 C663 1.427 . S
N671 C669 1.384 . S
H672 C678 0.930 . S
H673 C682 0.930 . S
H674 C687 0.929 . S
H675 C685 0.929 . S
H676 C680 0.929 . S
H677 C686 0.929 1_554 S
C678 H672 0.930 . S
C678 C679 1.367 1_554 S
C678 C686 1.378 1_554 S
C679 C678 1.367 1_556 S
C679 C687 1.433 . S
C680 H676 0.929 . S
C680 C682 1.378 . S
C680 C684 1.350 . S
C681 C684 1.463 . S
C681 C686 1.350 . S
C681 N689 1.427 . S
C682 H673 0.930 . S
C682 C680 1.378 . S
C682 C683 1.367 . S
C683 C682 1.367 . S
C683 C685 1.433 . S
C684 C680 1.350 . S
C684 C681 1.463 . S
C684 N688 1.427 . S
C685 H675 0.929 . S
C685 C683 1.433 . S
C685 N688 1.384 . S
C686 H677 0.929 1_556 S
C686 C678 1.378 1_556 S
C686 C681 1.350 . S
C687 H674 0.929 . S
C687 C679 1.433 . S
C687 N689 1.384 . S
N688 C684 1.427 . S
N688 C685 1.384 . S
N689 C681 1.427 . S
N689 C687 1.384 . S
H690 C696 0.930 . S
H691 C700 0.930 . S
H692 C705 0.929 . S
H693 C703 0.929 . S
H694 C698 0.929 1_556 S
H695 C704 0.929 . S
C696 H690 0.930 . S
C696 C697 1.367 . S
C696 C704 1.378 . S
C697 C696 1.367 . S
C697 C705 1.433 . S
C698 H694 0.929 1_554 S
C698 C700 1.378 1_554 S
C698 C702 1.350 . S
C699 C702 1.463 . S
C699 C704 1.350 . S
C699 N707 1.427 . S
C700 H691 0.930 . S
C700 C698 1.378 1_556 S
C700 C701 1.367 1_556 S
C701 C700 1.367 1_554 S
C701 C703 1.433 . S
C702 C698 1.350 . S
C702 C699 1.463 . S
C702 N706 1.427 . S
C703 H693 0.929 . S
C703 C701 1.433 . S
C703 N706 1.384 . S
C704 H695 0.929 . S
C704 C696 1.378 . S
C704 C699 1.350 . S
C705 H692 0.929 . S
C705 C697 1.433 . S
C705 N707 1.384 . S
N706 C702 1.427 . S
N706 C703 1.384 . S
N707 C699 1.427 . S
N707 C705 1.384 . S
H708 C714 0.930 1_455 S
H709 C718 0.930 . S
H710 C723 0.929 . S
H711 C721 0.929 . S
H712 C716 0.929 . S
H713 C722 0.929 . S
C714 H708 0.930 1_655 S
C714 C715 1.370 . S
C714 C722 1.378 . S
C715 C714 1.370 . S
C715 C723 1.441 . S
C716 H712 0.929 . S
C716 C718 1.378 . S
C716 C720 1.350 . S
C717 C720 1.463 . S
C717 C722 1.350 . S
C717 N725 1.427 . S
C718 H709 0.930 . S
C718 C716 1.378 . S
C718 C719 1.367 . S
C719 C718 1.367 . S
C719 C721 1.433 . S
C720 C716 1.350 . S
C720 C717 1.463 . S
C720 N724 1.427 . S
C721 H711 0.929 . S
C721 C719 1.433 . S
C721 N724 1.384 . S
C722 H713 0.929 . S
C722 C714 1.378 . S
C722 C717 1.350 . S
C723 H710 0.929 . S
C723 C715 1.441 . S
C723 N725 1.384 . S
N724 C720 1.427 . S
N724 C721 1.384 . S
N725 C717 1.427 . S
N725 C723 1.384 . S
H726 C732 0.930 . S
H727 C736 0.930 . S
H728 C741 0.929 . S
H729 C739 0.929 . S
H730 C734 0.929 . S
H731 C740 0.929 . S
C732 H726 0.930 . S
C732 C733 1.367 . S
C732 C740 1.378 . S
C733 C732 1.367 . S
C733 C741 1.433 . S
C734 H730 0.929 . S
C734 C736 1.378 . S
C734 C738 1.350 . S
C735 C738 1.463 . S
C735 C740 1.350 . S
C735 N743 1.427 . S
C736 H727 0.930 . S
C736 C734 1.378 . S
C736 C737 1.404 . S
C737 C736 1.404 . S
C737 C739 1.423 1_655 S
C738 C734 1.350 . S
C738 C735 1.463 . S
C738 N742 1.427 . S
C739 H729 0.929 . S
C739 C737 1.423 1_455 S
C739 N742 1.384 1_455 S
C740 H731 0.929 . S
C740 C732 1.378 . S
C740 C735 1.350 . S
C741 H728 0.929 . S
C741 C733 1.433 . S
C741 N743 1.384 . S
N742 C738 1.427 . S
N742 C739 1.384 1_655 S
N743 C735 1.427 . S
N743 C741 1.384 . S
H744 C750 0.930 . S
H745 C754 0.930 . S
H746 C759 0.929 . S
H747 C757 0.929 . S
H748 C752 0.929 . S
H749 C758 0.929 . S
C750 H744 0.930 . S
C750 C751 1.367 . S
C750 C758 1.378 . S
C751 C750 1.367 . S
C751 C759 1.433 . S
C752 H748 0.929 . S
C752 C754 1.378 . S
C752 C756 1.350 . S
C753 C756 1.463 . S
C753 C758 1.350 . S
C753 N761 1.427 . S
C754 H745 0.930 . S
C754 C752 1.378 . S
C754 C755 1.367 . S
C755 C754 1.367 . S
C755 C757 1.433 . S
C756 C752 1.350 . S
C756 C753 1.463 . S
C756 N760 1.427 . S
C757 H747 0.929 . S
C757 C755 1.433 . S
C757 N760 1.384 . S
C758 H749 0.929 . S
C758 C750 1.378 . S
C758 C753 1.350 . S
C759 H746 0.929 . S
C759 C751 1.433 . S
C759 N761 1.384 . S
N760 C756 1.427 . S
N760 C757 1.384 . S
N761 C753 1.427 . S
N761 C759 1.384 . S
H762 C768 0.930 . S
H763 C772 0.930 . S
H764 C777 0.929 1_554 S
H765 C775 0.929 . S
H766 C770 0.929 . S
H767 C776 0.929 . S
C768 H762 0.930 . S
C768 C769 1.367 . S
C768 C776 1.378 . S
C769 C768 1.367 . S
C769 C777 1.433 . S
C770 H766 0.929 . S
C770 C772 1.378 . S
C770 C774 1.350 . S
C771 C774 1.463 . S
C771 C776 1.350 . S
C771 N779 1.427 . S
C772 H763 0.930 . S
C772 C770 1.378 . S
C772 C773 1.367 . S
C773 C772 1.367 . S
C773 C775 1.433 . S
C774 C770 1.350 . S
C774 C771 1.463 . S
C774 N778 1.427 . S
C775 H765 0.929 . S
C775 C773 1.433 . S
C775 N778 1.384 . S
C776 H767 0.929 . S
C776 C768 1.378 . S
C776 C771 1.350 . S
C777 H764 0.929 1_556 S
C777 C769 1.433 . S
C777 N779 1.384 . S
N778 C774 1.427 . S
N778 C775 1.384 . S
N779 C771 1.427 . S
N779 C777 1.384 . S
H780 C786 0.930 . S
H781 C790 0.930 . S
H782 C795 0.929 . S
H783 C793 0.929 . S
H784 C788 0.929 . S
H785 C794 0.929 . S
C786 H780 0.930 . S
C786 C787 1.367 . S
C786 C794 1.378 . S
C787 C786 1.367 . S
C787 C795 1.433 . S
C788 H784 0.929 . S
C788 C790 1.378 . S
C788 C792 1.350 . S
C789 C792 1.463 . S
C789 C794 1.350 . S
C789 N797 1.427 . S
C790 H781 0.930 . S
C790 C788 1.378 . S
C790 C791 1.367 . S
C791 C790 1.367 . S
C791 C793 1.433 . S
C792 C788 1.350 . S
C792 C789 1.463 . S
C792 N796 1.427 . S
C793 H783 0.929 . S
C793 C791 1.433 . S
C793 N796 1.384 . S
C794 H785 0.929 . S
C794 C786 1.378 . S
C794 C789 1.350 . S
C795 H782 0.929 . S
C795 C787 1.433 . S
C795 N797 1.384 . S
N796 C792 1.427 . S
N796 C793 1.384 . S
N797 C789 1.427 . S
N797 C795 1.384 . S
H798 C804 0.930 . S
H799 C808 0.930 . S
H800 C813 0.929 . S
H801 C811 0.929 . S
H802 C806 0.929 . S
H803 C812 0.929 . S
C804 H798 0.930 . S
C804 C805 1.367 . S
C804 C812 1.378 . S
C805 C804 1.367 . S
C805 C813 1.433 . S
C806 H802 0.929 . S
C806 C808 1.378 . S
C806 C810 1.350 . S
C807 C810 1.463 . S
C807 C812 1.350 . S
C807 N815 1.427 . S
C808 H799 0.930 . S
C808 C806 1.378 . S
C808 C809 1.367 . S
C809 C808 1.367 . S
C809 C811 1.433 . S
C810 C806 1.350 . S
C810 C807 1.463 . S
C810 N814 1.427 . S
C811 H801 0.929 . S
C811 C809 1.433 . S
C811 N814 1.384 . S
C812 H803 0.929 . S
C812 C804 1.378 . S
C812 C807 1.350 . S
C813 H800 0.929 . S
C813 C805 1.433 . S
C813 N815 1.384 . S
N814 C810 1.427 . S
N814 C811 1.384 . S
N815 C807 1.427 . S
N815 C813 1.384 . S
H816 C822 0.916 1_565 S
H817 C826 0.916 1_545 S
H818 C831 0.929 . S
H819 C829 0.929 . S
H820 C824 0.929 . S
H821 C830 0.929 . S
C822 H816 0.916 1_545 S
C822 C823 1.367 . S
C822 C830 1.378 1_545 S
C823 C822 1.367 . S
C823 C831 1.433 . S
C824 H820 0.929 . S
C824 C826 1.378 1_545 S
C824 C828 1.350 1_545 S
C825 C828 1.463 1_544 S
C825 C830 1.350 1_545 S
C825 N833 1.427 . S
C826 H817 0.916 1_565 S
C826 C824 1.378 1_565 S
C826 C827 1.367 . S
C827 C826 1.367 . S
C827 C829 1.433 . S
C828 C824 1.350 1_565 S
C828 C825 1.463 1_566 S
C828 N832 1.427 . S
C829 H819 0.929 . S
C829 C827 1.433 . S
C829 N832 1.384 . S
C830 H821 0.929 . S
C830 C822 1.378 1_565 S
C830 C825 1.350 1_565 S
C831 H818 0.929 . S
C831 C823 1.433 . S
C831 N833 1.384 . S
N832 C828 1.427 . S
N832 C829 1.384 . S
N833 C825 1.427 . S
N833 C831 1.384 . S
H834 C840 0.930 . S
H835 C844 0.930 . S
H836 C849 0.929 . S
H837 C847 0.929 . S
H838 C842 0.929 . S
H839 C848 0.929 . S
C840 H834 0.930 . S
C840 C841 1.367 . S
C840 C848 1.378 . S
C841 C840 1.367 . S
C841 C849 1.433 . S
C842 H838 0.929 . S
C842 C844 1.378 . S
C842 C846 1.350 . S
C843 C846 1.463 . S
C843 C848 1.350 . S
C843 N851 1.427 . S
C844 H835 0.930 . S
C844 C842 1.378 . S
C844 C845 1.367 . S
C845 C844 1.367 . S
C845 C847 1.433 . S
C846 C842 1.350 . S
C846 C843 1.463 . S
C846 N850 1.427 . S
C847 H837 0.929 . S
C847 C845 1.433 . S
C847 N850 1.384 . S
C848 H839 0.929 . S
C848 C840 1.378 . S
C848 C843 1.350 . S
C849 H836 0.929 . S
C849 C841 1.433 . S
C849 N851 1.384 . S
N850 C846 1.427 . S
N850 C847 1.384 . S
N851 C843 1.427 . S
N851 C849 1.384 . S
H852 C858 0.930 . S
H853 C862 0.930 . S
H854 C867 0.929 1_565 S
H855 C865 0.929 1_545 S
H856 C860 0.929 . S
H857 C866 0.929 . S
C858 H852 0.930 . S
C858 C859 1.367 . S
C858 C866 1.378 . S
C859 C858 1.367 . S
C859 C867 1.433 . S
C860 H856 0.929 . S
C860 C862 1.378 . S
C860 C864 1.350 . S
C861 C864 1.463 1_545 S
C861 C866 1.350 . S
C861 N869 1.427 1_545 S
C862 H853 0.930 . S
C862 C860 1.378 . S
C862 C863 1.367 . S
C863 C862 1.367 . S
C863 C865 1.433 . S
C864 C860 1.350 . S
C864 C861 1.463 1_565 S
C864 N868 1.427 1_565 S
C865 H855 0.929 1_565 S
C865 C863 1.433 . S
C865 N868 1.384 1_565 S
C866 H857 0.929 . S
C866 C858 1.378 . S
C866 C861 1.350 . S
C867 H854 0.929 1_545 S
C867 C859 1.433 . S
C867 N869 1.384 1_545 S
N868 C864 1.427 1_545 S
N868 C865 1.384 1_545 S
N869 C861 1.427 1_565 S
N869 C867 1.384 1_565 S
H870 C876 0.930 . S
H871 C880 0.930 . S
H872 C885 0.929 . S
H873 C883 0.929 . S
H874 C878 0.929 . S
H875 C884 0.929 . S
C876 H870 0.930 . S
C876 C877 1.367 . S
C876 C884 1.378 . S
C877 C876 1.367 . S
C877 C885 1.433 . S
C878 H874 0.929 . S
C878 C880 1.378 . S
C878 C882 1.350 . S
C879 C882 1.463 . S
C879 C884 1.350 . S
C879 N887 1.427 . S
C880 H871 0.930 . S
C880 C878 1.378 . S
C880 C881 1.367 . S
C881 C880 1.367 . S
C881 C883 1.433 . S
C882 C878 1.350 . S
C882 C879 1.463 . S
C882 N886 1.427 . S
C883 H873 0.929 . S
C883 C881 1.433 . S
C883 N886 1.384 . S
C884 H875 0.929 . S
C884 C876 1.378 . S
C884 C879 1.350 . S
C885 H872 0.929 . S
C885 C877 1.433 . S
C885 N887 1.384 . S
N886 C882 1.427 . S
N886 C883 1.384 . S
N887 C879 1.427 . S
N887 C885 1.384 . S
H888 C894 0.930 . S
H889 C898 0.930 . S
H890 C903 0.929 . S
H891 C901 0.929 . S
H892 C896 0.929 . S
H893 C902 0.929 . S
C894 H888 0.930 . S
C894 C895 1.367 . S
C894 C902 1.378 . S
C895 C894 1.367 . S
C895 C903 1.433 . S
C896 H892 0.929 . S
C896 C898 1.378 . S
C896 C900 1.350 . S
C897 C900 1.463 . S
C897 C902 1.350 . S
C897 N905 1.427 . S
C898 H889 0.930 . S
C898 C896 1.378 . S
C898 C899 1.367 . S
C899 C898 1.367 . S
C899 C901 1.433 . S
C900 C896 1.350 . S
C900 C897 1.463 . S
C900 N904 1.427 . S
C901 H891 0.929 . S
C901 C899 1.433 . S
C901 N904 1.384 . S
C902 H893 0.929 . S
C902 C894 1.378 . S
C902 C897 1.350 . S
C903 H890 0.929 . S
C903 C895 1.433 . S
C903 N905 1.384 . S
N904 C900 1.427 . S
N904 C901 1.384 . S
N905 C897 1.427 . S
N905 C903 1.384 . S
H906 C912 0.930 . S
H907 C916 0.930 . S
H908 C921 0.929 . S
H909 C919 0.929 . S
H910 C914 0.929 . S
H911 C920 0.929 . S
C912 H906 0.930 . S
C912 C913 1.367 . S
C912 C920 1.378 . S
C913 C912 1.367 . S
C913 C921 1.433 . S
C914 H910 0.929 . S
C914 C916 1.378 . S
C914 C918 1.350 . S
C915 C918 1.463 . S
C915 C920 1.350 . S
C915 N923 1.427 . S
C916 H907 0.930 . S
C916 C914 1.378 . S
C916 C917 1.367 . S
C917 C916 1.367 . S
C917 C919 1.433 . S
C918 C914 1.350 . S
C918 C915 1.463 . S
C918 N922 1.427 . S
C919 H909 0.929 . S
C919 C917 1.433 . S
C919 N922 1.384 . S
C920 H911 0.929 . S
C920 C912 1.378 . S
C920 C915 1.350 . S
C921 H908 0.929 . S
C921 C913 1.433 . S
C921 N923 1.384 . S
N922 C918 1.427 . S
N922 C919 1.384 . S
N923 C915 1.427 . S
N923 C921 1.384 . S
H924 C930 0.930 . S
H925 C934 0.930 . S
H926 C939 0.929 . S
H927 C937 0.929 . S
H928 C932 0.929 . S
H929 C938 0.929 . S
C930 H924 0.930 . S
C930 C931 1.367 . S
C930 C938 1.378 . S
C931 C930 1.367 . S
C931 C939 1.433 . S
C932 H928 0.929 . S
C932 C934 1.378 . S
C932 C936 1.350 . S
C933 C936 1.463 . S
C933 C938 1.350 . S
C933 N941 1.427 . S
C934 H925 0.930 . S
C934 C932 1.378 . S
C934 C935 1.367 . S
C935 C934 1.367 . S
C935 C937 1.433 . S
C936 C932 1.350 . S
C936 C933 1.463 . S
C936 N940 1.427 . S
C937 H927 0.929 . S
C937 C935 1.433 . S
C937 N940 1.384 . S
C938 H929 0.929 . S
C938 C930 1.378 . S
C938 C933 1.350 . S
C939 H926 0.929 . S
C939 C931 1.433 . S
C939 N941 1.384 . S
N940 C936 1.427 . S
N940 C937 1.384 . S
N941 C933 1.427 . S
N941 C939 1.384 . S
H942 C948 0.930 . S
H943 C952 0.930 . S
H944 C957 0.929 . S
H945 C955 0.929 . S
H946 C950 0.929 . S
H947 C956 0.929 . S
C948 H942 0.930 . S
C948 C949 1.367 . S
C948 C956 1.378 . S
C949 C948 1.367 . S
C949 C957 1.433 . S
C950 H946 0.929 . S
C950 C952 1.378 . S
C950 C954 1.350 . S
C951 C954 1.463 1_556 S
C951 C956 1.350 . S
C951 N959 1.427 . S
C952 H943 0.930 . S
C952 C950 1.378 . S
C952 C953 1.367 . S
C953 C952 1.367 . S
C953 C955 1.433 . S
C954 C950 1.350 . S
C954 C951 1.463 1_554 S
C954 N958 1.427 . S
C955 H945 0.929 . S
C955 C953 1.433 . S
C955 N958 1.384 . S
C956 H947 0.929 . S
C956 C948 1.378 . S
C956 C951 1.350 . S
C957 H944 0.929 . S
C957 C949 1.433 . S
C957 N959 1.384 . S
N958 C954 1.427 . S
N958 C955 1.384 . S
N959 C951 1.427 . S
N959 C957 1.384 . S
H960 C966 0.930 . S
H961 C970 0.930 . S
H962 C975 0.929 . S
H963 C973 0.929 . S
H964 C968 0.929 . S
H965 C974 0.929 . S
C966 H960 0.930 . S
C966 C967 1.367 . S
C966 C974 1.378 . S
C967 C966 1.367 . S
C967 C975 1.433 . S
C968 H964 0.929 . S
C968 C970 1.378 . S
C968 C972 1.350 . S
C969 C972 1.463 . S
C969 C974 1.350 . S
C969 N977 1.427 . S
C970 H961 0.930 . S
C970 C968 1.378 . S
C970 C971 1.367 . S
C971 C970 1.367 . S
C971 C973 1.433 . S
C972 C968 1.350 . S
C972 C969 1.463 . S
C972 N976 1.427 . S
C973 H963 0.929 . S
C973 C971 1.433 . S
C973 N976 1.384 . S
C974 H965 0.929 . S
C974 C966 1.378 . S
C974 C969 1.350 . S
C975 H962 0.929 . S
C975 C967 1.433 . S
C975 N977 1.384 . S
N976 C972 1.427 . S
N976 C973 1.384 . S
N977 C969 1.427 . S
N977 C975 1.384 . S
H978 C984 0.930 . S
H979 C988 0.930 . S
H980 C993 0.929 . S
H981 C991 0.929 . S
H982 C986 0.929 . S
H983 C992 0.929 . S
C984 H978 0.930 . S
C984 C985 1.367 . S
C984 C992 1.378 . S
C985 C984 1.367 . S
C985 C993 1.433 . S
C986 H982 0.929 . S
C986 C988 1.378 . S
C986 C990 1.350 1_556 S
C987 C990 1.463 . S
C987 C992 1.350 . S
C987 N995 1.427 . S
C988 H979 0.930 . S
C988 C986 1.378 . S
C988 C989 1.367 . S
C989 C988 1.367 . S
C989 C991 1.433 . S
C990 C986 1.350 1_554 S
C990 C987 1.463 . S
C990 N994 1.427 1_554 S
C991 H981 0.929 . S
C991 C989 1.433 . S
C991 N994 1.384 . S
C992 H983 0.929 . S
C992 C984 1.378 . S
C992 C987 1.350 . S
C993 H980 0.929 . S
C993 C985 1.433 . S
C993 N995 1.384 . S
N994 C990 1.427 1_556 S
N994 C991 1.384 . S
N995 C987 1.427 . S
N995 C993 1.384 . S
H996 C1002 0.930 . S
H997 C1006 0.930 . S
H998 C1011 0.929 . S
H999 C1009 0.929 . S
H1000 C1004 0.929 . S
H1001 C1010 0.929 . S
C1002 H996 0.930 . S
C1002 C1003 1.367 . S
C1002 C1010 1.378 . S
C1003 C1002 1.367 . S
C1003 C1011 1.433 . S
C1004 H1000 0.929 . S
C1004 C1006 1.378 . S
C1004 C1008 1.350 . S
C1005 C1008 1.463 . S
C1005 C1010 1.350 . S
C1005 N1013 1.427 . S
C1006 H997 0.930 . S
C1006 C1004 1.378 . S
C1006 C1007 1.367 . S
C1007 C1006 1.367 . S
C1007 C1009 1.433 . S
C1008 C1004 1.350 . S
C1008 C1005 1.463 . S
C1008 N1012 1.427 . S
C1009 H999 0.929 . S
C1009 C1007 1.433 . S
C1009 N1012 1.384 . S
C1010 H1001 0.929 . S
C1010 C1002 1.378 . S
C1010 C1005 1.350 . S
C1011 H998 0.929 . S
C1011 C1003 1.433 . S
C1011 N1013 1.384 . S
N1012 C1008 1.427 . S
N1012 C1009 1.384 . S
N1013 C1005 1.427 . S
N1013 C1011 1.384 . S
H1014 C1020 0.930 . S
H1015 C1024 0.930 . S
H1016 C1029 0.929 . S
H1017 C1027 0.929 . S
H1018 C1022 0.929 . S
H1019 C1028 0.929 . S
C1020 H1014 0.930 . S
C1020 C1021 1.367 . S
C1020 C1028 1.378 . S
C1021 C1020 1.367 . S
C1021 C1029 1.433 . S
C1022 H1018 0.929 . S
C1022 C1024 1.378 . S
C1022 C1026 1.350 . S
C1023 C1026 1.463 . S
C1023 C1028 1.350 . S
C1023 N1031 1.427 . S
C1024 H1015 0.930 . S
C1024 C1022 1.378 . S
C1024 C1025 1.367 . S
C1025 C1024 1.367 . S
C1025 C1027 1.433 . S
C1026 C1022 1.350 . S
C1026 C1023 1.463 . S
C1026 N1030 1.427 . S
C1027 H1017 0.929 . S
C1027 C1025 1.433 . S
C1027 N1030 1.384 . S
C1028 H1019 0.929 . S
C1028 C1020 1.378 . S
C1028 C1023 1.350 . S
C1029 H1016 0.929 . S
C1029 C1021 1.433 . S
C1029 N1031 1.384 . S
N1030 C1026 1.427 . S
N1030 C1027 1.384 . S
N1031 C1023 1.427 . S
N1031 C1029 1.384 . S
H1032 C1038 0.930 . S
H1033 C1042 0.930 . S
H1034 C1047 0.929 . S
H1035 C1045 0.929 . S
H1036 C1040 0.929 . S
H1037 C1046 0.929 . S
C1038 H1032 0.930 . S
C1038 C1039 1.367 . S
C1038 C1046 1.378 . S
C1039 C1038 1.367 . S
C1039 C1047 1.433 . S
C1040 H1036 0.929 . S
C1040 C1042 1.378 . S
C1040 C1044 1.350 . S
C1041 C1044 1.463 . S
C1041 C1046 1.350 . S
C1041 N1049 1.427 . S
C1042 H1033 0.930 . S
C1042 C1040 1.378 . S
C1042 C1043 1.367 . S
C1043 C1042 1.367 . S
C1043 C1045 1.433 . S
C1044 C1040 1.350 . S
C1044 C1041 1.463 . S
C1044 N1048 1.427 . S
C1045 H1035 0.929 . S
C1045 C1043 1.433 . S
C1045 N1048 1.384 . S
C1046 H1037 0.929 . S
C1046 C1038 1.378 . S
C1046 C1041 1.350 . S
C1047 H1034 0.929 . S
C1047 C1039 1.433 . S
C1047 N1049 1.384 . S
N1048 C1044 1.427 . S
N1048 C1045 1.384 . S
N1049 C1041 1.427 . S
N1049 C1047 1.384 . S
H1050 C1056 0.930 . S
H1051 C1060 0.930 . S
H1052 C1065 0.929 . S
H1053 C1063 0.929 . S
H1054 C1058 0.929 . S
H1055 C1064 0.929 . S
C1056 H1050 0.930 . S
C1056 C1057 1.367 . S
C1056 C1064 1.378 . S
C1057 C1056 1.367 . S
C1057 C1065 1.433 . S
C1058 H1054 0.929 . S
C1058 C1060 1.378 . S
C1058 C1062 1.350 . S
C1059 C1062 1.463 . S
C1059 C1064 1.350 . S
C1059 N1067 1.427 . S
C1060 H1051 0.930 . S
C1060 C1058 1.378 . S
C1060 C1061 1.367 . S
C1061 C1060 1.367 . S
C1061 C1063 1.433 . S
C1062 C1058 1.350 . S
C1062 C1059 1.463 . S
C1062 N1066 1.427 . S
C1063 H1053 0.929 . S
C1063 C1061 1.433 . S
C1063 N1066 1.384 . S
C1064 H1055 0.929 . S
C1064 C1056 1.378 . S
C1064 C1059 1.350 . S
C1065 H1052 0.929 . S
C1065 C1057 1.433 . S
C1065 N1067 1.384 . S
N1066 C1062 1.427 . S
N1066 C1063 1.384 . S
N1067 C1059 1.427 . S
N1067 C1065 1.384 . S
H1068 C1074 0.930 . S
H1069 C1078 0.930 . S
H1070 C1083 0.929 . S
H1071 C1081 0.929 . S
H1072 C1076 0.929 . S
H1073 C1082 0.929 . S
C1074 H1068 0.930 . S
C1074 C1075 1.367 . S
C1074 C1082 1.378 . S
C1075 C1074 1.367 . S
C1075 C1083 1.433 . S
C1076 H1072 0.929 . S
C1076 C1078 1.378 . S
C1076 C1080 1.350 . S
C1077 C1080 1.463 . S
C1077 C1082 1.350 . S
C1077 N1085 1.427 . S
C1078 H1069 0.930 . S
C1078 C1076 1.378 . S
C1078 C1079 1.367 . S
C1079 C1078 1.367 . S
C1079 C1081 1.433 . S
C1080 C1076 1.350 . S
C1080 C1077 1.463 . S
C1080 N1084 1.427 . S
C1081 H1071 0.929 . S
C1081 C1079 1.433 . S
C1081 N1084 1.384 . S
C1082 H1073 0.929 . S
C1082 C1074 1.378 . S
C1082 C1077 1.350 . S
C1083 H1070 0.929 . S
C1083 C1075 1.433 . S
C1083 N1085 1.384 . S
N1084 C1080 1.427 . S
N1084 C1081 1.384 . S
N1085 C1077 1.427 . S
N1085 C1083 1.384 . S
H1086 C1092 0.930 . S
H1087 C1096 0.930 . S
H1088 C1101 0.929 . S
H1089 C1099 0.929 . S
H1090 C1094 0.929 . S
H1091 C1100 0.929 . S
C1092 H1086 0.930 . S
C1092 C1093 1.367 . S
C1092 C1100 1.378 . S
C1093 C1092 1.367 . S
C1093 C1101 1.433 . S
C1094 H1090 0.929 . S
C1094 C1096 1.378 . S
C1094 C1098 1.350 1_554 S
C1095 C1098 1.463 . S
C1095 C1100 1.350 . S
C1095 N1103 1.427 . S
C1096 H1087 0.930 . S
C1096 C1094 1.378 . S
C1096 C1097 1.367 . S
C1097 C1096 1.367 . S
C1097 C1099 1.433 . S
C1098 C1094 1.350 1_556 S
C1098 C1095 1.463 . S
C1098 N1102 1.427 1_556 S
C1099 H1089 0.929 . S
C1099 C1097 1.433 . S
C1099 N1102 1.384 . S
C1100 H1091 0.929 . S
C1100 C1092 1.378 . S
C1100 C1095 1.350 . S
C1101 H1088 0.929 . S
C1101 C1093 1.433 . S
C1101 N1103 1.384 . S
N1102 C1098 1.427 1_554 S
N1102 C1099 1.384 . S
N1103 C1095 1.427 . S
N1103 C1101 1.384 . S
H1104 C1110 0.930 . S
H1105 C1114 0.930 . S
H1106 C1119 0.929 . S
H1107 C1117 0.929 . S
H1108 C1112 0.929 . S
H1109 C1118 0.929 . S
C1110 H1104 0.930 . S
C1110 C1111 1.367 . S
C1110 C1118 1.378 . S
C1111 C1110 1.367 . S
C1111 C1119 1.433 . S
C1112 H1108 0.929 . S
C1112 C1114 1.378 . S
C1112 C1116 1.350 . S
C1113 C1116 1.463 . S
C1113 C1118 1.350 1_556 S
C1113 N1121 1.427 1_556 S
C1114 H1105 0.930 . S
C1114 C1112 1.378 . S
C1114 C1115 1.367 . S
C1115 C1114 1.367 . S
C1115 C1117 1.433 . S
C1116 C1112 1.350 . S
C1116 C1113 1.463 . S
C1116 N1120 1.427 . S
C1117 H1107 0.929 . S
C1117 C1115 1.433 . S
C1117 N1120 1.384 . S
C1118 H1109 0.929 . S
C1118 C1110 1.378 . S
C1118 C1113 1.350 1_554 S
C1119 H1106 0.929 . S
C1119 C1111 1.433 . S
C1119 N1121 1.384 . S
N1120 C1116 1.427 . S
N1120 C1117 1.384 . S
N1121 C1113 1.427 1_554 S
N1121 C1119 1.384 . S
H1122 C1128 0.930 . S
H1123 C1132 0.930 . S
H1124 C1137 0.929 . S
H1125 C1135 0.929 . S
H1126 C1130 0.929 . S
H1127 C1136 0.929 . S
C1128 H1122 0.930 . S
C1128 C1129 1.367 . S
C1128 C1136 1.378 . S
C1129 C1128 1.367 . S
C1129 C1137 1.433 . S
C1130 H1126 0.929 . S
C1130 C1132 1.378 . S
C1130 C1134 1.350 . S
C1131 C1134 1.463 . S
C1131 C1136 1.350 . S
C1131 N1139 1.427 . S
C1132 H1123 0.930 . S
C1132 C1130 1.378 . S
C1132 C1133 1.367 . S
C1133 C1132 1.367 . S
C1133 C1135 1.433 . S
C1134 C1130 1.350 . S
C1134 C1131 1.463 . S
C1134 N1138 1.427 . S
C1135 H1125 0.929 . S
C1135 C1133 1.433 . S
C1135 N1138 1.384 . S
C1136 H1127 0.929 . S
C1136 C1128 1.378 . S
C1136 C1131 1.350 . S
C1137 H1124 0.929 . S
C1137 C1129 1.433 . S
C1137 N1139 1.384 . S
N1138 C1134 1.427 . S
N1138 C1135 1.384 . S
N1139 C1131 1.427 . S
N1139 C1137 1.384 . S
H1140 C1146 0.930 . S
H1141 C1150 0.930 . S
H1142 C1155 0.929 . S
H1143 C1153 0.929 . S
H1144 C1148 0.929 . S
H1145 C1154 0.929 . S
C1146 H1140 0.930 . S
C1146 C1147 1.367 . S
C1146 C1154 1.378 . S
C1147 C1146 1.367 . S
C1147 C1155 1.433 . S
C1148 H1144 0.929 . S
C1148 C1150 1.378 . S
C1148 C1152 1.350 . S
C1149 C1152 1.463 . S
C1149 C1154 1.350 . S
C1149 N1157 1.427 . S
C1150 H1141 0.930 . S
C1150 C1148 1.378 . S
C1150 C1151 1.367 . S
C1151 C1150 1.367 . S
C1151 C1153 1.433 . S
C1152 C1148 1.350 . S
C1152 C1149 1.463 . S
C1152 N1156 1.427 . S
C1153 H1143 0.929 . S
C1153 C1151 1.433 . S
C1153 N1156 1.384 . S
C1154 H1145 0.929 . S
C1154 C1146 1.378 . S
C1154 C1149 1.350 . S
C1155 H1142 0.929 . S
C1155 C1147 1.433 . S
C1155 N1157 1.384 . S
N1156 C1152 1.427 . S
N1156 C1153 1.384 . S
N1157 C1149 1.427 . S
N1157 C1155 1.384 . S
H1158 C1164 0.930 . S
H1159 C1168 0.930 . S
H1160 C1173 0.929 . S
H1161 C1171 0.929 . S
H1162 C1166 0.929 . S
H1163 C1172 0.929 . S
C1164 H1158 0.930 . S
C1164 C1165 1.367 . S
C1164 C1172 1.378 . S
C1165 C1164 1.367 . S
C1165 C1173 1.433 . S
C1166 H1162 0.929 . S
C1166 C1168 1.378 . S
C1166 C1170 1.350 1_556 S
C1167 C1170 1.463 . S
C1167 C1172 1.350 . S
C1167 N1175 1.427 . S
C1168 H1159 0.930 . S
C1168 C1166 1.378 . S
C1168 C1169 1.367 . S
C1169 C1168 1.367 . S
C1169 C1171 1.433 . S
C1170 C1166 1.350 1_554 S
C1170 C1167 1.463 . S
C1170 N1174 1.427 1_554 S
C1171 H1161 0.929 . S
C1171 C1169 1.433 . S
C1171 N1174 1.384 . S
C1172 H1163 0.929 . S
C1172 C1164 1.378 . S
C1172 C1167 1.350 . S
C1173 H1160 0.929 . S
C1173 C1165 1.433 . S
C1173 N1175 1.384 . S
N1174 C1170 1.427 1_556 S
N1174 C1171 1.384 . S
N1175 C1167 1.427 . S
N1175 C1173 1.384 . S
H1176 C1182 0.930 . S
H1177 C1186 0.930 . S
H1178 C1191 0.929 . S
H1179 C1189 0.929 . S
H1180 C1184 0.929 . S
H1181 C1190 0.929 . S
C1182 H1176 0.930 . S
C1182 C1183 1.367 . S
C1182 C1190 1.378 . S
C1183 C1182 1.367 . S
C1183 C1191 1.433 . S
C1184 H1180 0.929 . S
C1184 C1186 1.378 . S
C1184 C1188 1.350 . S
C1185 C1188 1.463 . S
C1185 C1190 1.350 . S
C1185 N1193 1.427 . S
C1186 H1177 0.930 . S
C1186 C1184 1.378 . S
C1186 C1187 1.367 . S
C1187 C1186 1.367 . S
C1187 C1189 1.433 . S
C1188 C1184 1.350 . S
C1188 C1185 1.463 . S
C1188 N1192 1.427 . S
C1189 H1179 0.929 . S
C1189 C1187 1.433 . S
C1189 N1192 1.384 . S
C1190 H1181 0.929 . S
C1190 C1182 1.378 . S
C1190 C1185 1.350 . S
C1191 H1178 0.929 . S
C1191 C1183 1.433 . S
C1191 N1193 1.384 . S
N1192 C1188 1.427 . S
N1192 C1189 1.384 . S
N1193 C1185 1.427 . S
N1193 C1191 1.384 . S
H1194 C1200 0.930 . S
H1195 C1204 0.930 . S
H1196 C1209 0.929 . S
H1197 C1207 0.929 . S
H1198 C1202 0.929 . S
H1199 C1208 0.929 . S
C1200 H1194 0.930 . S
C1200 C1201 1.367 . S
C1200 C1208 1.378 . S
C1201 C1200 1.367 . S
C1201 C1209 1.433 . S
C1202 H1198 0.929 . S
C1202 C1204 1.378 . S
C1202 C1206 1.350 . S
C1203 C1206 1.463 . S
C1203 C1208 1.350 . S
C1203 N1211 1.427 . S
C1204 H1195 0.930 . S
C1204 C1202 1.378 . S
C1204 C1205 1.367 . S
C1205 C1204 1.367 . S
C1205 C1207 1.433 . S
C1206 C1202 1.350 . S
C1206 C1203 1.463 . S
C1206 N1210 1.427 . S
C1207 H1197 0.929 . S
C1207 C1205 1.433 . S
C1207 N1210 1.384 . S
C1208 H1199 0.929 . S
C1208 C1200 1.378 . S
C1208 C1203 1.350 . S
C1209 H1196 0.929 . S
C1209 C1201 1.433 . S
C1209 N1211 1.384 . S
N1210 C1206 1.427 . S
N1210 C1207 1.384 . S
N1211 C1203 1.427 . S
N1211 C1209 1.384 . S
H1212 C1218 0.930 . S
H1213 C1222 0.930 . S
H1214 C1227 0.929 . S
H1215 C1225 0.929 . S
H1216 C1220 0.929 . S
H1217 C1226 0.929 . S
C1218 H1212 0.930 . S
C1218 C1219 1.367 . S
C1218 C1226 1.378 . S
C1219 C1218 1.367 . S
C1219 C1227 1.433 . S
C1220 H1216 0.929 . S
C1220 C1222 1.378 . S
C1220 C1224 1.350 . S
C1221 C1224 1.463 . S
C1221 C1226 1.350 . S
C1221 N1229 1.427 . S
C1222 H1213 0.930 . S
C1222 C1220 1.378 . S
C1222 C1223 1.367 . S
C1223 C1222 1.367 . S
C1223 C1225 1.433 . S
C1224 C1220 1.350 . S
C1224 C1221 1.463 . S
C1224 N1228 1.427 . S
C1225 H1215 0.929 . S
C1225 C1223 1.433 . S
C1225 N1228 1.384 . S
C1226 H1217 0.929 . S
C1226 C1218 1.378 . S
C1226 C1221 1.350 . S
C1227 H1214 0.929 . S
C1227 C1219 1.433 . S
C1227 N1229 1.384 . S
N1228 C1224 1.427 . S
N1228 C1225 1.384 . S
N1229 C1221 1.427 . S
N1229 C1227 1.384 . S
H1230 C1236 0.930 . S
H1231 C1240 0.930 . S
H1232 C1245 0.929 . S
H1233 C1243 0.929 . S
H1234 C1238 0.929 . S
H1235 C1244 0.929 . S
C1236 H1230 0.930 . S
C1236 C1237 1.367 . S
C1236 C1244 1.378 . S
C1237 C1236 1.367 . S
C1237 C1245 1.433 . S
C1238 H1234 0.929 . S
C1238 C1240 1.378 . S
C1238 C1242 1.350 . S
C1239 C1242 1.463 . S
C1239 C1244 1.350 . S
C1239 N1247 1.427 . S
C1240 H1231 0.930 . S
C1240 C1238 1.378 . S
C1240 C1241 1.367 . S
C1241 C1240 1.367 . S
C1241 C1243 1.433 . S
C1242 C1238 1.350 . S
C1242 C1239 1.463 . S
C1242 N1246 1.427 . S
C1243 H1233 0.929 . S
C1243 C1241 1.433 . S
C1243 N1246 1.384 . S
C1244 H1235 0.929 . S
C1244 C1236 1.378 . S
C1244 C1239 1.350 . S
C1245 H1232 0.929 . S
C1245 C1237 1.433 . S
C1245 N1247 1.384 . S
N1246 C1242 1.427 . S
N1246 C1243 1.384 . S
N1247 C1239 1.427 . S
N1247 C1245 1.384 . S
C535 C259 1.510 . S
C539 C28 1.514 . S
C553 C61 1.516 . S
C557 C160 1.512 . S
C571 C94 1.565 . S
C575 C193 1.573 . S
C589 C226 1.572 . S
C593 C127 1.570 . S
C607 C380 1.580 . S
C611 C149 1.579 . S
C625 C281 1.577 . S
C629 C17 1.581 . S
C643 C215 1.626 . S
C647 C347 1.632 . S
C661 C83 1.629 . S
C665 C314 1.627 . S
C679 C325 1.570 . S
C683 C424 1.569 . S
C697 C490 1.568 . S
C701 C358 1.570 . S
C715 C457 1.499 1_655 S
C719 C292 1.513 . S
C733 C391 1.509 . S
C737 C523 1.486 1_655 S
C751 C116 1.625 . S
C755 C479 1.628 . S
C769 C182 1.623 . S
C773 C413 1.626 . S
C787 C50 1.585 . S
C791 C512 1.583 . S
C805 C248 1.584 . S
C809 C446 1.585 . S
C823 C8 1.296 . S
C827 C140 1.296 . S
C841 C173 1.291 . S
C845 C41 1.289 . S
C859 C206 1.500 . S
C863 C74 1.499 . S
C877 C107 1.295 . S
C881 C239 1.294 . S
C895 C338 1.294 . S
C899 C272 1.292 . S
C913 C305 1.307 . S
C917 C371 1.304 . S
C931 C404 1.498 . S
C935 C470 1.498 . S
C949 C503 1.282 . S
C953 C437 1.281 . S
C967 N14 0.953 1_556 S
C971 N5 0.953 . S
C985 N47 0.940 . S
C989 N38 0.940 . S
C1003 N71 0.982 . S
C1007 N80 0.980 . S
C1021 N104 0.952 . S
C1025 N113 0.953 . S
C1039 N137 0.948 . S
C1043 N146 0.949 1_554 S
C1057 N170 0.955 . S
C1061 N179 0.955 . S
C1075 N212 0.980 . S
C1079 N203 0.980 . S
C1093 N245 0.944 . S
C1097 N236 0.943 . S
C1111 N269 0.945 . S
C1115 N278 0.944 . S
C1129 N302 0.955 . S
C1133 N311 0.955 . S
C1147 N344 0.955 . S
C1151 N335 0.954 . S
C1165 N377 0.944 . S
C1169 N368 0.945 . S
C1183 N410 0.984 . S
C1187 N401 0.983 . S
C1201 N443 0.948 1_556 S
C1205 N434 0.949 . S
C1219 N476 0.980 . S
C1223 N467 0.980 . S
C1237 N500 0.950 . S
C1241 N509 0.948 1_554 S
