# Generated by pormake.
# Topology smd, (6)-cn, num edge types: 1
# Building blocks:
#     Node 0, Type 0, BuildingBlock: JUFBIX_clean_sbu_0, # of connection points: 6
#     Node 1, Type 0, BuildingBlock: JUFBIX_clean_sbu_0, # of connection points: 6
#     Node 2, Type 0, BuildingBlock: JUFBIX_clean_sbu_0, # of connection points: 6
#     Node 3, Type 0, BuildingBlock: JUFBIX_clean_sbu_0, # of connection points: 6
#     Node 4, Type 0, BuildingBlock: JUFBIX_clean_sbu_0, # of connection points: 6
#     Node 5, Type 0, BuildingBlock: JUFBIX_clean_sbu_0, # of connection points: 6
#     Node 6, Type 0, BuildingBlock: JUFBIX_clean_sbu_0, # of connection points: 6
#     Node 7, Type 0, BuildingBlock: JUFBIX_clean_sbu_0, # of connection points: 6
#     Node 8, Type 0, BuildingBlock: JUFBIX_clean_sbu_0, # of connection points: 6
#     Node 9, Type 0, BuildingBlock: JUFBIX_clean_sbu_0, # of connection points: 6
#     Node 10, Type 0, BuildingBlock: JUFBIX_clean_sbu_0, # of connection points: 6
#     Node 11, Type 0, BuildingBlock: JUFBIX_clean_sbu_0, # of connection points: 6
#     Node 12, Type 0, BuildingBlock: JUFBIX_clean_sbu_0, # of connection points: 6
#     Node 13, Type 0, BuildingBlock: JUFBIX_clean_sbu_0, # of connection points: 6
#     Node 14, Type 0, BuildingBlock: JUFBIX_clean_sbu_0, # of connection points: 6
#     Node 15, Type 0, BuildingBlock: JUFBIX_clean_sbu_0, # of connection points: 6
#     Node 16, Type 0, BuildingBlock: JUFBIX_clean_sbu_0, # of connection points: 6
#     Node 17, Type 0, BuildingBlock: JUFBIX_clean_sbu_0, # of connection points: 6
#     Edge 18, Type (0, 0), BuildingBlock: OJICUG_clean_linker_0, # of connection points: 2
#     Edge 19, Type (0, 0), BuildingBlock: OJICUG_clean_linker_0, # of connection points: 2
#     Edge 20, Type (0, 0), BuildingBlock: OJICUG_clean_linker_0, # of connection points: 2
#     Edge 21, Type (0, 0), BuildingBlock: OJICUG_clean_linker_0, # of connection points: 2
#     Edge 22, Type (0, 0), BuildingBlock: OJICUG_clean_linker_0, # of connection points: 2
#     Edge 23, Type (0, 0), BuildingBlock: OJICUG_clean_linker_0, # of connection points: 2
#     Edge 24, Type (0, 0), BuildingBlock: OJICUG_clean_linker_0, # of connection points: 2
#     Edge 25, Type (0, 0), BuildingBlock: OJICUG_clean_linker_0, # of connection points: 2
#     Edge 26, Type (0, 0), BuildingBlock: OJICUG_clean_linker_0, # of connection points: 2
#     Edge 27, Type (0, 0), BuildingBlock: OJICUG_clean_linker_0, # of connection points: 2
#     Edge 28, Type (0, 0), BuildingBlock: OJICUG_clean_linker_0, # of connection points: 2
#     Edge 29, Type (0, 0), BuildingBlock: OJICUG_clean_linker_0, # of connection points: 2
#     Edge 30, Type (0, 0), BuildingBlock: OJICUG_clean_linker_0, # of connection points: 2
#     Edge 31, Type (0, 0), BuildingBlock: OJICUG_clean_linker_0, # of connection points: 2
#     Edge 32, Type (0, 0), BuildingBlock: OJICUG_clean_linker_0, # of connection points: 2
#     Edge 33, Type (0, 0), BuildingBlock: OJICUG_clean_linker_0, # of connection points: 2
#     Edge 34, Type (0, 0), BuildingBlock: OJICUG_clean_linker_0, # of connection points: 2
#     Edge 35, Type (0, 0), BuildingBlock: OJICUG_clean_linker_0, # of connection points: 2
#     Edge 36, Type (0, 0), BuildingBlock: OJICUG_clean_linker_0, # of connection points: 2
#     Edge 37, Type (0, 0), BuildingBlock: OJICUG_clean_linker_0, # of connection points: 2
#     Edge 38, Type (0, 0), BuildingBlock: OJICUG_clean_linker_0, # of connection points: 2
#     Edge 39, Type (0, 0), BuildingBlock: OJICUG_clean_linker_0, # of connection points: 2
#     Edge 40, Type (0, 0), BuildingBlock: OJICUG_clean_linker_0, # of connection points: 2
#     Edge 41, Type (0, 0), BuildingBlock: OJICUG_clean_linker_0, # of connection points: 2
#     Edge 42, Type (0, 0), BuildingBlock: OJICUG_clean_linker_0, # of connection points: 2
#     Edge 43, Type (0, 0), BuildingBlock: OJICUG_clean_linker_0, # of connection points: 2
#     Edge 44, Type (0, 0), BuildingBlock: OJICUG_clean_linker_0, # of connection points: 2
#     Edge 45, Type (0, 0), BuildingBlock: OJICUG_clean_linker_0, # of connection points: 2
#     Edge 46, Type (0, 0), BuildingBlock: OJICUG_clean_linker_0, # of connection points: 2
#     Edge 47, Type (0, 0), BuildingBlock: OJICUG_clean_linker_0, # of connection points: 2
#     Edge 48, Type (0, 0), BuildingBlock: OJICUG_clean_linker_0, # of connection points: 2
#     Edge 49, Type (0, 0), BuildingBlock: OJICUG_clean_linker_0, # of connection points: 2
#     Edge 50, Type (0, 0), BuildingBlock: OJICUG_clean_linker_0, # of connection points: 2
#     Edge 51, Type (0, 0), BuildingBlock: OJICUG_clean_linker_0, # of connection points: 2
#     Edge 52, Type (0, 0), BuildingBlock: OJICUG_clean_linker_0, # of connection points: 2
#     Edge 53, Type (0, 0), BuildingBlock: OJICUG_clean_linker_0, # of connection points: 2
#     Edge 54, Type (0, 0), BuildingBlock: OJICUG_clean_linker_0, # of connection points: 2
#     Edge 55, Type (0, 0), BuildingBlock: OJICUG_clean_linker_0, # of connection points: 2
#     Edge 56, Type (0, 0), BuildingBlock: OJICUG_clean_linker_0, # of connection points: 2
#     Edge 57, Type (0, 0), BuildingBlock: OJICUG_clean_linker_0, # of connection points: 2
#     Edge 58, Type (0, 0), BuildingBlock: OJICUG_clean_linker_0, # of connection points: 2
#     Edge 59, Type (0, 0), BuildingBlock: OJICUG_clean_linker_0, # of connection points: 2
#     Edge 60, Type (0, 0), BuildingBlock: OJICUG_clean_linker_0, # of connection points: 2
#     Edge 61, Type (0, 0), BuildingBlock: OJICUG_clean_linker_0, # of connection points: 2
#     Edge 62, Type (0, 0), BuildingBlock: OJICUG_clean_linker_0, # of connection points: 2
#     Edge 63, Type (0, 0), BuildingBlock: OJICUG_clean_linker_0, # of connection points: 2
#     Edge 64, Type (0, 0), BuildingBlock: OJICUG_clean_linker_0, # of connection points: 2
#     Edge 65, Type (0, 0), BuildingBlock: OJICUG_clean_linker_0, # of connection points: 2
#     Edge 66, Type (0, 0), BuildingBlock: OJICUG_clean_linker_0, # of connection points: 2
#     Edge 67, Type (0, 0), BuildingBlock: OJICUG_clean_linker_0, # of connection points: 2
#     Edge 68, Type (0, 0), BuildingBlock: OJICUG_clean_linker_0, # of connection points: 2
#     Edge 69, Type (0, 0), BuildingBlock: OJICUG_clean_linker_0, # of connection points: 2
#     Edge 70, Type (0, 0), BuildingBlock: OJICUG_clean_linker_0, # of connection points: 2
#     Edge 71, Type (0, 0), BuildingBlock: OJICUG_clean_linker_0, # of connection points: 2
# Relax obj value: 0.356
# Max RMSD: 0.275
# Mean RMSD: 0.219
data_MOF--net-smd--node1-JUFBIX_clean_sbu_0--edge1-OJICUG_clean_linker_0
_symmetry_space_group_name_H-M    P1
_symmetry_Int_Tables_number       1
_symmetry_cell_setting            triclinic
loop_
_symmetry_equiv_pos_as_xyz
'x, y, z'
_cell_length_a     56.670723
_cell_length_b     64.839053
_cell_length_c     10.885104
_cell_angle_alpha  92.279281
_cell_angle_beta   91.874174
_cell_angle_gamma 120.28736
loop_
_atom_site_label
_atom_site_type_symbol
_atom_site_fract_x
_atom_site_fract_y
_atom_site_fract_z
_atom_type_partial_charge
Co0 Co 0.10583 0.29893 0.58323 0.0
C1 C 0.05468 0.29826 0.58141 0.0
Co2 Co 0.07029 0.26147 0.56942 0.0
C3 C 0.15364 0.33928 0.51032 0.0
C4 C 0.13771 0.34933 0.66203 0.0
N5 N 0.13451 0.33019 0.59396 0.0
N6 N 0.16773 0.3634 0.51783 0.0
C7 C 0.1581 0.3698 0.61521 0.0
H8 H 0.15557 0.3283 0.43858 0.0
H9 H 0.12442 0.34855 0.73306 0.0
C10 C 0.12534 0.26685 0.5715 0.0
N11 N 1.04205 0.22748 0.54757 0.0
C12 C 1.01985 0.21028 0.60385 0.0
C13 C 0.0456 0.21451 0.45734 0.0
N14 N 1.01012 0.18755 0.55154 0.0
C15 C 1.02651 0.1907 0.45908 0.0
C16 C 0.08742 0.28099 0.34209 0.0
O17 O 0.13184 0.28865 0.5791 0.0
O18 O 0.09956 0.25118 0.56769 0.0
O19 O 0.07027 0.2627 0.39459 0.0
O20 O 0.10492 0.29927 0.40816 0.0
O21 O 0.04339 0.27502 0.57261 0.0
H22 H 0.0619 0.22174 0.39464 0.0
H23 H 1.01163 0.2142 0.68403 0.0
O24 O 0.08069 0.31026 0.58693 0.0
O25 O 0.10594 0.29793 0.75776 0.0
O26 O 0.07073 0.26099 0.74373 0.0
C27 C 0.08844 0.27947 0.80972 0.0
H28 H 0.16333 0.3879 0.64296 0.0
H29 H 1.02488 0.1767 0.39562 0.0
Co30 Co 0.85847 0.78597 0.57294 0.0
C31 C 0.81765 0.79725 0.565 0.0
Co32 Co 0.87473 0.82674 0.5808 0.0
C33 C 0.82454 0.7317 0.61004 0.0
C34 C 0.85716 0.74239 0.48974 0.0
N35 N 0.84505 0.75154 0.56015 0.0
N36 N 0.82391 0.71086 0.57417 0.0
C37 C 0.84458 0.71798 0.49819 0.0
H38 H 0.81056 0.73256 0.67254 0.0
H39 H 0.8743 0.75288 0.43461 0.0
C40 C 0.91587 0.81321 0.5875 0.0
N41 N 0.88749 0.86169 0.59258 0.0
C42 C 0.87504 0.87524 0.57836 0.0
C43 C 0.91374 0.8785 0.62327 0.0
N44 N 0.8926 0.89955 0.60026 0.0
C45 C 0.91687 0.90104 0.62743 0.0
C46 C 0.86635 0.80612 0.8103 0.0
O47 O 0.89462 0.79248 0.58086 0.0
O48 O 0.91285 0.83167 0.58955 0.0
O49 O 0.87394 0.82552 0.7563 0.0
O50 O 0.85873 0.78655 0.74675 0.0
O51 O 0.83693 0.81916 0.56987 0.0
H52 H 0.93001 0.87479 0.64267 0.0
H53 H 0.85339 0.86739 0.55444 0.0
O54 O 0.82312 0.78049 0.56598 0.0
O55 O 0.8589 0.78722 0.39719 0.0
O56 O 0.87483 0.82626 0.40705 0.0
C57 C 0.86685 0.80665 0.34332 0.0
H58 H 0.85007 0.7063 0.44928 0.0
H59 H 0.93614 0.91747 0.64826 0.0
Co60 Co 0.29688 1.01714 0.58652 0.0
C61 C 0.34064 0.06531 0.60664 0.0
Co62 Co 0.28255 0.04373 0.59182 0.0
C63 C 0.32832 0.99467 0.51124 0.0
C64 C 0.30008 0.9759 0.64746 0.0
N65 N 0.30956 0.9955 0.58203 0.0
N66 N 0.33074 0.97523 0.52944 0.0
C67 C 0.31297 0.96347 0.61551 0.0
H68 H 0.3396 1.00787 0.44603 0.0
H69 H 0.28455 0.97084 0.71364 0.0
C70 C 0.23946 0.99306 0.57437 0.0
N71 N 0.26949 0.06619 0.59727 0.0
C72 C 0.28018 0.08945 0.5665 0.0
C73 C 0.24512 0.06065 0.64081 0.0
N74 N 0.26305 0.09815 0.58763 0.0
C75 C 0.24111 0.07982 0.63439 0.0
C76 C 0.28947 0.03052 0.35546 0.0
O77 O 0.26041 0.99079 0.57484 0.0
O78 O 0.24352 1.01458 0.57956 0.0
O79 O 0.28252 0.04359 0.41669 0.0
O80 O 0.29645 1.01745 0.41226 0.0
O81 O 0.32166 0.07067 0.60548 0.0
H82 H 0.23102 0.04368 0.67661 0.0
H83 H 0.2999 0.09966 0.52789 0.0
O84 O 0.33349 0.04325 0.59848 0.0
O85 O 0.29699 1.01746 0.76196 0.0
O86 O 0.28283 0.04342 0.76602 0.0
C87 C 0.28992 0.03045 0.82303 0.0
H88 H 0.30977 0.94721 0.65437 0.0
H89 H 0.2233 0.08029 0.66375 0.0
Co90 Co 0.07584 0.82836 0.58146 0.0
C91 C 1.01882 0.81144 0.58769 0.0
Co92 Co 0.04869 0.78716 0.57235 0.0
C93 C 0.12518 0.87963 0.56141 0.0
C94 C 0.09186 0.87767 0.65619 0.0
N95 N 0.09942 0.8635 0.59622 0.0
N96 N 0.1335 0.90306 0.59636 0.0
C97 C 0.11217 0.90137 0.65605 0.0
H98 H 0.13764 0.87425 0.51169 0.0
H99 H 0.07279 0.8712 0.70045 0.0
C100 C 0.104 0.80354 0.55362 0.0
N101 N 1.02637 0.75192 0.56198 0.0
C102 C 1.03058 0.73421 0.60436 0.0
C103 C 1.00126 0.73947 0.50413 0.0
N104 N 1.00898 0.71142 0.57596 0.0
C105 C 0.99075 0.71519 0.51248 0.0
C106 C 0.05975 0.80803 0.34294 0.0
O107 O 0.10711 0.82448 0.56709 0.0
O108 O 0.08044 0.78518 0.56223 0.0
O109 O 0.04723 0.7883 0.3961 0.0
O110 O 0.07296 0.82789 0.40759 0.0
O111 O 1.01697 0.79086 0.58068 0.0
H112 H 0.99111 0.74754 0.45737 0.0
H113 H 0.04913 0.738 0.65597 0.0
O114 O 1.04257 0.83031 0.59035 0.0
O115 O 0.07763 0.82713 0.75753 0.0
O116 O 0.05129 0.78773 0.74617 0.0
C117 C 0.06483 0.80749 0.81083 0.0
H118 H 0.1114 0.91621 0.70071 0.0
H119 H 0.9711 0.70131 0.47188 0.0
Co120 Co 0.27658 0.25709 0.58025 0.0
C121 C 0.22836 0.26389 0.57568 0.0
Co122 Co 0.28467 0.29458 0.59233 0.0
C123 C 0.27815 0.21008 0.55272 0.0
C124 C 0.24459 0.20858 0.64432 0.0
N125 N 0.26716 0.22391 0.58772 0.0
N126 N 0.26281 0.18687 0.58405 0.0
C127 C 0.24182 0.18627 0.64143 0.0
H128 H 0.29675 0.21678 0.50423 0.0
H129 H 0.23093 0.21333 0.68745 0.0
C130 C 0.33379 0.29244 0.59323 0.0
N131 N 0.29406 0.32627 0.58451 0.0
C132 C 0.30988 0.34023 0.49801 0.0
C133 C 0.28578 0.33975 0.64602 0.0
N134 N 0.31139 0.36159 0.5001 0.0
C135 C 0.29658 0.36166 0.59433 0.0
C136 C 0.28177 0.27793 0.82068 0.0
O137 O 0.31807 0.26942 0.58699 0.0
O138 O 0.3222 0.30478 0.59812 0.0
O139 O 0.28579 0.29657 0.76802 0.0
O140 O 0.27768 0.25961 0.75513 0.0
O141 O 0.24753 0.28552 0.58583 0.0
H142 H 0.27202 0.33375 0.72012 0.0
H143 H 0.31981 0.33462 0.43233 0.0
O144 O 0.23529 0.24764 0.57206 0.0
O145 O 0.27562 0.25494 0.40478 0.0
O146 O 0.28307 0.29161 0.41698 0.0
C147 C 0.27923 0.27338 0.35169 0.0
H148 H 0.22552 0.17065 0.68021 0.0
H149 H 0.29286 0.37602 0.62035 0.0
Co150 Co 0.8696 0.04414 0.55638 0.0
C151 C 0.9117 0.09441 0.58656 0.0
Co152 Co 0.85457 0.07106 0.56391 0.0
C153 C 0.87049 0.99635 0.57529 0.0
C154 C 0.90775 0.02638 0.5258 0.0
N155 N 0.88216 1.02039 0.55435 0.0
N156 N 0.88805 0.98764 0.56191 0.0
C157 C 0.91139 1.0069 0.53135 0.0
H158 H 0.84971 0.98555 0.60229 0.0
H159 H 0.92318 0.044 0.50198 0.0
C160 C 0.81202 1.02384 0.53092 0.0
N161 N 0.84255 0.09396 0.56256 0.0
C162 C 0.82337 0.0968 0.62156 0.0
C163 C 0.85473 0.1133 0.49501 0.0
N164 N 0.82358 0.11728 0.59387 0.0
C165 C 0.84336 0.12743 0.51385 0.0
C166 C 0.86369 0.05829 0.3268 0.0
O167 O 0.83078 1.01821 0.5335 0.0
O168 O 0.8187 0.04572 0.54527 0.0
O169 O 0.85616 0.07094 0.38832 0.0
O170 O 0.87093 0.04528 0.38296 0.0
O171 O 0.8906 0.09639 0.58293 0.0
H172 H 0.87118 0.11705 0.43552 0.0
H173 H 0.80985 0.08432 0.68491 0.0
O174 O 0.90841 0.07313 0.5769 0.0
O175 O 0.86774 0.04391 0.7315 0.0
O176 O 0.85351 0.07006 0.73739 0.0
C177 C 0.86048 0.05679 0.79319 0.0
H178 H 0.93015 1.00697 0.51413 0.0
H179 H 0.84901 0.14383 0.4697 0.0
Co180 Co 0.69163 0.57102 0.64516 0.0
C181 C 0.74679 0.60927 0.64732 0.0
Co182 Co 0.72143 0.55822 0.64755 0.0
C183 C 0.65586 0.58285 0.76689 0.0
C184 C 0.67073 0.60265 0.60729 0.0
N185 N 0.66824 0.5834 0.66195 0.0
N186 N 0.65276 0.60198 0.78576 0.0
C187 C 0.66156 0.61425 0.68399 0.0
H188 H 0.65317 0.57083 0.83823 0.0
H189 H 0.68257 0.61005 0.52803 0.0
C190 C 0.66389 0.52053 0.64286 0.0
N191 N 0.74567 0.54619 0.63261 0.0
C192 C 0.77236 0.55459 0.66997 0.0
C193 C 0.73795 0.52524 0.5692 0.0
N194 N 0.78108 0.53933 0.63369 0.0
C195 C 0.7593 0.52098 0.57027 0.0
C196 C 0.71029 0.56568 0.88113 0.0
O197 O 0.66102 0.53881 0.64158 0.0
O198 O 0.6885 0.52433 0.64588 0.0
O199 O 0.72483 0.55912 0.82354 0.0
O200 O 0.69549 0.5716 0.8198 0.0
O201 O 0.75256 0.59243 0.64799 0.0
H202 H 0.71806 0.51384 0.52234 0.0
H203 H 0.78505 0.57142 0.72292 0.0
O204 O 0.72175 0.60324 0.64861 0.0
O205 O 0.68879 0.57027 0.46902 0.0
O206 O 0.71799 0.55739 0.4734 0.0
C207 C 0.70336 0.56357 0.41197 0.0
H208 H 0.66509 0.63213 0.67432 0.0
H209 H 0.75898 0.50566 0.52498 0.0
Co210 Co 0.51152 0.13115 0.69589 0.0
C211 C 0.46075 0.12893 0.67513 0.0
Co212 Co 0.51651 0.16742 0.70445 0.0
C213 C 0.52257 0.09687 0.7851 0.0
C214 C 0.48929 0.07942 0.64899 0.0
N215 N 0.50839 0.10122 0.6982 0.0
N216 N 0.51241 0.0734 0.79812 0.0
C217 C 0.49172 0.06222 0.71051 0.0
H218 H 0.53845 0.11081 0.84669 0.0
H219 H 0.47304 0.07615 0.58211 0.0
C220 C 0.56685 0.167 0.72135 0.0
N221 N 0.5218 0.19876 0.71795 0.0
C222 C 0.51196 0.21098 0.65616 0.0
C223 C 0.53832 0.21448 0.81061 0.0
N224 N 0.52134 0.2333 0.70969 0.0
C225 C 0.53789 0.23535 0.80643 0.0
C226 C 0.51226 0.14894 0.93427 0.0
O227 O 0.54976 0.14481 0.71169 0.0
O228 O 0.55755 0.18138 0.7198 0.0
O229 O 0.51514 0.16686 0.87949 0.0
O230 O 0.50995 0.13121 0.87051 0.0
O231 O 0.47528 0.15196 0.68699 0.0
H232 H 0.55005 0.21098 0.87827 0.0
H233 H 0.49796 0.2036 0.57526 0.0
O234 O 0.47316 0.11717 0.67888 0.0
O235 O 0.51282 0.13144 0.5213 0.0
O236 O 0.51762 0.16746 0.53044 0.0
C237 C 0.51535 0.1495 0.46695 0.0
H238 H 0.47753 0.04311 0.70023 0.0
H239 H 0.54933 0.25113 0.86867 0.0
Co240 Co 1.01861 0.41336 0.60745 0.0
C241 C 1.00894 0.36516 0.59564 0.0
Co242 Co 0.97441 0.38694 0.5959 0.0
C243 C 0.07239 0.44239 0.72513 0.0
C244 C 0.06917 0.45398 0.54758 0.0
N245 N 0.05537 0.43639 0.62391 0.0
N246 N 0.09604 0.46322 0.71641 0.0
C247 C 0.0942 0.4704 0.60379 0.0
H248 H 0.06693 0.43226 0.80621 0.0
H249 H 0.06106 0.45554 0.45935 0.0
C250 C 0.98717 0.43689 0.61039 0.0
N251 N 0.93666 0.36453 0.57605 0.0
C252 C 0.92055 0.34425 0.63344 0.0
C253 C 0.91969 0.36533 0.48891 0.0
N254 N 0.89445 0.33232 0.58342 0.0
C255 C 0.89398 0.34562 0.49262 0.0
C256 C 0.99523 0.39949 0.83518 0.0
O257 O 1.01094 0.43942 0.61154 0.0
O258 O 0.96688 0.41512 0.60312 0.0
O259 O 0.97323 0.3861 0.76983 0.0
O260 O 1.01701 0.41273 0.78204 0.0
O261 O 0.98372 0.36 0.58997 0.0
H262 H 0.9257 0.37933 0.42544 0.0
H263 H 0.9279 0.33811 0.70858 0.0
O264 O 1.02712 0.38747 0.60426 0.0
O265 O 1.01952 0.41357 0.43298 0.0
O266 O 0.97563 0.38772 0.4214 0.0
C267 C 0.99744 0.40055 0.36789 0.0
H268 H 0.10956 0.48651 0.56499 0.0
H269 H 0.87613 0.34152 0.43414 0.0
Co270 Co 0.7288 0.18475 0.72113 0.0
C271 C 0.67375 0.17481 0.72556 0.0
Co272 Co 0.69775 0.14608 0.70894 0.0
C273 C 0.77951 0.22949 0.67595 0.0
C274 C 0.75595 0.23381 0.81357 0.0
N275 N 0.75559 0.21743 0.73188 0.0
N276 N 0.79483 0.25256 0.72152 0.0
C277 C 0.77995 0.25525 0.80786 0.0
H278 H 0.78603 0.22131 0.60657 0.0
H279 H 0.74006 0.23019 0.8762 0.0
C280 C 0.75069 0.15361 0.70326 0.0
N281 N 0.67178 0.11367 0.70653 0.0
C282 C 0.65688 0.10324 0.80339 0.0
C283 C 0.6717 0.09575 0.63945 0.0
N284 N 0.64968 0.08 0.80696 0.0
C285 C 0.65823 0.0751 0.70086 0.0
C286 C 0.71106 0.16514 0.48082 0.0
O287 O 0.75765 0.17579 0.71348 0.0
O288 O 0.72545 0.13808 0.70078 0.0
O289 O 0.69563 0.14587 0.53275 0.0
O290 O 0.72675 0.18424 0.547 0.0
O291 O 0.66955 0.1536 0.71788 0.0
H292 H 0.68392 0.0982 0.56108 0.0
H293 H 0.65437 0.11337 0.87773 0.0
O294 O 0.69855 0.19226 0.72678 0.0
O295 O 0.73082 0.18525 0.89711 0.0
O296 O 0.70092 0.14706 0.88438 0.0
C297 C 0.71631 0.16613 0.95014 0.0
H298 H 0.78603 0.27161 0.86308 0.0
H299 H 0.65826 0.05877 0.67669 0.0
Co300 Co 0.96508 0.56339 0.64643 0.0
C301 C 0.98462 0.52921 0.64686 0.0
Co302 Co 1.01037 0.58066 0.65863 0.0
C303 C 0.90927 0.55638 0.66294 0.0
C304 C 0.90998 0.52725 0.56693 0.0
N305 N 0.92654 0.54873 0.62691 0.0
N306 N 0.88266 0.54029 0.62889 0.0
C307 C 0.88328 0.52202 0.5685 0.0
H308 H 0.91603 0.57329 0.71402 0.0
H309 H 0.91686 0.51612 0.52309 0.0
C310 C 0.99248 0.61491 0.65033 0.0
N311 N 0.04835 0.59648 0.68677 0.0
C312 C 0.06233 0.6152 0.77095 0.0
C313 C 0.06713 0.59119 0.64794 0.0
N314 N 0.08893 0.62173 0.78783 0.0
C315 C 0.09209 0.60666 0.71004 0.0
C316 C 0.9895 0.57179 0.41917 0.0
O317 O 0.96875 0.59591 0.64606 0.0
O318 O 1.01312 0.61208 0.6593 0.0
O319 O 1.01213 0.58066 0.48362 0.0
O320 O 0.96716 0.56326 0.47305 0.0
O321 O 1.00764 0.54893 0.65485 0.0
H322 H 0.06276 0.57653 0.58248 0.0
H323 H 0.05273 0.6231 0.82416 0.0
O324 O 0.96292 0.53092 0.64416 0.0
O325 O 0.96337 0.56366 0.82155 0.0
O326 O 1.00795 0.58031 0.83196 0.0
C327 C 0.9858 0.57216 0.8861 0.0
H328 H 0.86562 0.50608 0.52599 0.0
H329 H 0.11097 0.60657 0.6998 0.0
Co330 Co 0.51427 0.37761 0.61485 0.0
C331 C 0.55881 0.42665 0.62855 0.0
Co332 Co 0.50062 0.40406 0.61704 0.0
C333 C 0.51408 0.33225 0.64072 0.0
C334 C 0.54403 0.35599 0.52235 0.0
N335 N 0.52487 0.35443 0.59781 0.0
N336 N 0.52556 0.31991 0.5932 0.0
C337 C 0.54446 0.33495 0.51911 0.0
H338 H 0.49752 0.325 0.70228 0.0
H339 H 0.55645 0.37127 0.46997 0.0
C340 C 0.45519 0.35697 0.60349 0.0
N341 N 0.49149 0.42766 0.63429 0.0
C342 C 0.50239 0.44509 0.72607 0.0
C343 C 0.47507 0.43264 0.5649 0.0
N344 N 0.4934 0.46065 0.71831 0.0
C345 C 0.47616 0.45296 0.6167 0.0
C346 C 0.50631 0.39158 0.3821 0.0
O347 O 0.47412 0.35152 0.6067 0.0
O348 O 0.46275 0.37917 0.60609 0.0
O349 O 0.49996 0.40513 0.44229 0.0
O350 O 0.51271 0.37835 0.44043 0.0
O351 O 0.53796 0.42904 0.62748 0.0
H352 H 0.46296 0.42211 0.48302 0.0
H353 H 0.51682 0.4464 0.79797 0.0
O354 O 0.55434 0.40508 0.62352 0.0
O355 O 0.51571 0.37695 0.78971 0.0
O356 O 0.50128 0.40255 0.79129 0.0
C357 C 0.5085 0.38989 0.84977 0.0
H358 H 0.55781 0.33106 0.46658 0.0
H359 H 0.46439 0.46088 0.58494 0.0
Co360 Co 0.46324 0.9628 0.34705 0.0
C361 C 0.40939 0.95099 0.35927 0.0
Co362 Co 0.43526 0.92372 0.33444 0.0
C363 C 0.5028 1.00537 0.24693 0.0
C364 C 0.4862 1.01357 0.40248 0.0
N365 N 0.48718 0.99548 0.34263 0.0
N366 N 0.50988 0.02846 0.23781 0.0
C367 C 0.50008 0.03384 0.33824 0.0
H368 H 0.50622 0.99495 0.17743 0.0
H369 H 0.47343 1.01149 0.47821 0.0
C370 C 0.49014 0.93687 0.32381 0.0
N371 N 0.41144 0.89112 0.33527 0.0
C372 C 0.3855 0.87779 0.28595 0.0
C373 C 0.41648 0.87561 0.39293 0.0
N374 N 0.37425 0.85453 0.31024 0.0
C375 C 0.39375 0.85314 0.37744 0.0
C376 C 0.44458 0.94142 0.10533 0.0
O377 O 0.49293 0.95756 0.33548 0.0
O378 O 0.4662 0.91858 0.32303 0.0
O379 O 0.43145 0.92194 0.15805 0.0
O380 O 0.45874 0.96071 0.1715 0.0
O381 O 0.40488 0.9296 0.34754 0.0
H382 H 0.43534 0.88041 0.44492 0.0
H383 H 0.37512 0.885 0.23312 0.0
O384 O 0.4338 0.96822 0.35819 0.0
O385 O 0.46687 0.96431 0.52377 0.0
O386 O 0.43903 0.92539 0.50909 0.0
C387 C 0.45318 0.94471 0.5757 0.0
H388 H 0.49981 0.05026 0.35616 0.0
H389 H 0.39154 0.83711 0.41531 0.0
Co390 Co 0.23438 0.4914 0.03503 0.0
C391 C 0.19385 0.50233 0.01101 0.0
Co392 Co 0.25019 0.53018 0.04565 0.0
C393 C 0.22628 0.44846 0.13242 0.0
C394 C 0.20129 0.44079 0.96621 0.0
N395 N 0.22131 0.45895 0.03849 0.0
N396 N 0.20933 0.42454 0.12571 0.0
C397 C 0.19385 0.41961 0.01968 0.0
H398 H 0.24084 0.45847 0.20901 0.0
H399 H 0.19121 0.44298 0.88587 0.0
C400 C 0.29014 0.5181 0.06953 0.0
N401 N 0.26383 0.56255 0.04019 0.0
C402 C 0.2536 0.57599 0.08381 0.0
C403 C 0.28481 0.57724 0.97309 0.0
N404 N 0.26709 0.59829 0.04422 0.0
C405 C 0.28676 0.59921 0.97491 0.0
C406 C 0.24029 0.51243 0.27438 0.0
O407 O 0.26975 0.49711 0.05245 0.0
O408 O 0.28658 0.53591 0.06876 0.0
O409 O 0.24828 0.53182 0.22116 0.0
O410 O 0.23326 0.49335 0.20916 0.0
O411 O 0.21344 0.52396 0.02093 0.0
H412 H 0.2972 0.57199 0.92195 0.0
H413 H 0.23587 0.56927 0.13855 0.0
O414 O 0.19897 0.48553 0.01856 0.0
O415 O 0.2354 0.4898 0.85898 0.0
O416 O 0.25201 0.5285 0.87215 0.0
C417 C 0.24405 0.50932 0.80631 0.0
H418 H 0.17662 0.40228 0.98862 0.0
H419 H 0.3013 0.61462 0.92826 0.0
Co420 Co 0.65877 0.70432 0.40332 0.0
C421 C 0.70387 0.74927 0.4409 0.0
Co422 Co 0.64819 0.73279 0.40493 0.0
C423 C 0.65419 0.66372 0.2763 0.0
C424 C 0.68615 0.67595 0.41823 0.0
N425 N 0.66627 0.67975 0.37398 0.0
N426 N 0.66604 0.65056 0.25407 0.0
C427 C 0.68612 0.65803 0.34435 0.0
H428 H 0.63848 0.66331 0.2153 0.0
H429 H 0.70086 0.68658 0.49338 0.0
C430 C 0.60325 0.68704 0.37137 0.0
N431 N 0.63899 0.75623 0.42981 0.0
C432 C 0.64953 0.77824 0.38668 0.0
C433 C 0.62044 0.75475 0.50911 0.0
N434 N 0.63855 0.79056 0.43815 0.0
C435 C 0.62023 0.77581 0.51483 0.0
C436 C 0.65544 0.72239 0.17151 0.0
O437 O 0.62176 0.68172 0.38278 0.0
O438 O 0.60992 0.70896 0.37799 0.0
O439 O 0.6499 0.73652 0.23137 0.0
O440 O 0.66016 0.70824 0.23034 0.0
O441 O 0.68657 0.75629 0.43172 0.0
H442 H 0.60803 0.73936 0.56083 0.0
H443 H 0.66524 0.78523 0.32083 0.0
O444 O 0.69586 0.72711 0.42653 0.0
O445 O 0.65755 0.70085 0.57689 0.0
O446 O 0.64668 0.72887 0.57796 0.0
C447 C 0.65174 0.71486 0.63671 0.0
H448 H 0.70069 0.65197 0.3529 0.0
H449 H 0.6072 0.77982 0.56916 0.0
Co450 Co 0.44804 0.53859 0.0976 0.0
C451 C 0.3933 0.52266 0.10886 0.0
Co452 Co 0.42235 0.49939 0.08875 0.0
C453 C 0.49117 0.58542 0.18348 0.0
C454 C 0.46591 0.58689 0.03801 0.0
N455 N 0.46948 0.5715 0.10481 0.0
N456 N 0.50148 0.609 0.16887 0.0
C457 C 0.4856 0.60994 0.07681 0.0
H458 H 0.49888 0.57821 0.25137 0.0
H459 H 0.4499 0.58169 0.96628 0.0
C460 C 0.47628 0.51418 0.06692 0.0
N461 N 0.40015 0.46657 0.08547 0.0
C462 C 0.38145 0.45483 0.16828 0.0
C463 C 0.40131 0.44937 0.01703 0.0
N464 N 0.37132 0.43102 0.15727 0.0
C465 C 0.38359 0.42746 0.06101 0.0
C466 C 0.43165 0.51836 0.85852 0.0
O467 O 0.47947 0.53513 0.07538 0.0
O468 O 0.45297 0.49625 0.08182 0.0
O469 O 0.42003 0.49876 0.91186 0.0
O470 O 0.44394 0.53799 0.92392 0.0
O471 O 0.39165 0.50249 0.09511 0.0
H472 H 0.41523 0.45266 0.94476 0.0
H473 H 0.37622 0.46383 0.23872 0.0
O474 O 0.41659 0.54161 0.11396 0.0
O475 O 0.45203 0.53898 0.27456 0.0
O476 O 0.42498 0.5002 0.26271 0.0
C477 C 0.43898 0.51957 0.32812 0.0
H478 H 0.48817 0.62604 0.03846 0.0
H479 H 0.38127 0.41047 0.02923 0.0
Co480 Co 0.64092 0.93778 0.33014 0.0
C481 C 0.59481 0.9425 0.3088 0.0
Co482 Co 0.6511 0.97545 0.34029 0.0
C483 C 0.64463 0.89498 0.37209 0.0
C484 C 0.6148 0.89009 0.23035 0.0
N485 N 0.63301 0.9063 0.31709 0.0
N486 N 0.63462 0.87258 0.32059 0.0
C487 C 0.61583 0.86947 0.232 0.0
H488 H 0.6607 0.90321 0.44495 0.0
H489 H 0.60213 0.89334 0.16682 0.0
C490 C 0.69743 0.97214 0.37129 0.0
N491 N 0.65701 1.00636 0.33588 0.0
C492 C 0.64346 1.01125 0.24831 0.0
C493 C 0.67649 0.02799 0.38575 0.0
N494 N 0.65403 0.03477 0.23673 0.0
C495 C 0.67468 0.04558 0.32468 0.0
C496 C 0.64356 0.95639 0.56831 0.0
O497 O 0.68047 0.94967 0.35261 0.0
O498 O 0.68866 0.98669 0.36451 0.0
O499 O 0.64859 0.97523 0.51455 0.0
O500 O 0.63907 0.93772 0.5041 0.0
O501 O 0.61356 0.96419 0.31943 0.0
H502 H 0.69233 0.03083 0.45404 0.0
H503 H 0.62743 0.99764 0.186 0.0
O504 O 0.60152 0.92652 0.31196 0.0
O505 O 0.64292 0.93807 0.15524 0.0
O506 O 0.65391 0.97544 0.16598 0.0
C507 C 0.64886 0.95688 0.10128 0.0
H508 H 0.60367 0.85335 0.17283 0.0
H509 H 0.68895 0.06465 0.33655 0.0
Co510 Co 0.22956 0.72559 0.15706 0.0
C511 C 0.26596 0.77459 0.19482 0.0
Co512 Co 0.20964 0.7473 0.15798 0.0
C513 C 0.24196 0.68773 0.10446 0.0
C514 C 0.26825 0.7138 0.24726 0.0
N515 N 0.24767 0.70864 0.16287 0.0
N516 N 0.2579 0.67966 0.15137 0.0
C517 C 0.27447 0.69597 0.24074 0.0
H518 H 0.22554 0.678 0.0342 0.0
H519 H 0.27728 0.72902 0.31383 0.0
C520 C 0.17383 0.6979 0.10754 0.0
N521 N 0.19248 0.76536 0.16442 0.0
C522 C 0.17546 0.76454 0.25066 0.0
C523 C 0.19874 0.78518 0.10506 0.0
N524 N 0.17143 0.78337 0.25045 0.0
C525 C 0.18582 0.79626 0.15751 0.0
C526 C 0.22285 0.73902 0.92496 0.0
O527 O 0.19557 0.6971 0.12741 0.0
O528 O 0.17482 0.71797 0.12373 0.0
O529 O 0.21268 0.74971 0.98468 0.0
O530 O 0.23225 0.72776 0.9833 0.0
O531 O 0.24457 0.77628 0.18792 0.0
H532 H 0.21311 0.79197 0.03354 0.0
H533 H 0.16766 0.75119 0.31804 0.0
O534 O 0.26342 0.75406 0.18306 0.0
O535 O 0.22674 0.72336 0.33064 0.0
O536 O 0.20695 0.74469 0.33197 0.0
C537 C 0.21643 0.7337 0.39061 0.0
H538 H 0.28949 0.6947 0.29894 0.0
H539 H 0.18764 0.81291 0.13135 0.0
C540 C 0.18872 0.38403 0.20184 0.0
C541 C 0.20361 0.40894 0.2254 0.0
H542 H 0.16582 0.35 0.27491 0.0
C543 C 0.21007 0.4183 0.34892 0.0
H544 H 0.18392 0.37617 0.10828 0.0
C545 C 0.19974 0.40323 0.44559 0.0
C546 C 0.18285 0.37844 0.42134 0.0
H547 H 0.22176 0.43733 0.3718 0.0
H548 H 0.20402 0.41109 0.53905 0.0
C549 C 0.1785 0.36896 0.29842 0.0
C550 C 0.7704 0.77007 0.61694 0.0
C551 C 0.78855 0.79009 0.55511 0.0
H552 H 0.7293 0.74166 0.62815 0.0
C553 C 0.77808 0.79918 0.46702 0.0
H554 H 0.77798 0.76281 0.6856 0.0
C555 C 0.74984 0.78692 0.43376 0.0
C556 C 0.73226 0.76553 0.48807 0.0
H557 H 0.79182 0.81447 0.41732 0.0
H558 H 0.74212 0.7931 0.36016 0.0
C559 C 0.7426 0.75788 0.58346 0.0
C560 C 0.37415 0.98625 0.43204 0.0
C561 C 0.3491 0.96866 0.47375 0.0
H562 H 0.41257 0.99443 0.36245 0.0
C563 C 0.34293 0.94466 0.46591 0.0
H564 H 0.37969 1.00487 0.43708 0.0
C565 C 0.36184 0.93858 0.42265 0.0
C566 C 0.38743 0.95638 0.38678 0.0
H567 H 0.32362 0.93056 0.49505 0.0
H568 H 0.35681 0.92008 0.42176 0.0
C569 C 0.39307 0.9802 0.38952 0.0
C570 C 0.38937 0.07521 0.59464 0.0
C571 C 0.37112 0.08348 0.61748 0.0
H572 H 0.43032 0.08242 0.59296 0.0
C573 C 0.38283 0.10806 0.65473 0.0
H574 H 0.38174 0.05668 0.56446 0.0
C575 C 0.41184 0.12344 0.67169 0.0
C576 C 0.4298 0.11458 0.65211 0.0
H577 H 0.36965 0.11527 0.6734 0.0
H578 H 0.4201 0.14202 0.70263 0.0
C579 C 0.41774 0.09025 0.61147 0.0
C580 C 0.04668 0.35447 0.60495 0.0
C581 C 1.0184 0.34637 0.59274 0.0
H582 H 0.07917 0.34692 0.61188 0.0
C583 C 1.00099 0.32098 0.57769 0.0
H584 H 0.06131 0.37348 0.61706 0.0
C585 C 1.01167 0.30487 0.57436 0.0
C586 C 1.04028 0.31341 0.58609 0.0
H587 H 0.97905 0.31349 0.56779 0.0
H588 H 0.99748 0.28579 0.56195 0.0
C589 C 0.05712 0.33873 0.60186 0.0
C590 C 0.81351 0.66847 0.5944 0.0
C591 C 0.80537 0.6859 0.60377 0.0
H592 H 0.80234 0.63137 0.60143 0.0
C593 C 0.77829 0.67778 0.63513 0.0
H594 H 0.83419 0.67371 0.57237 0.0
C595 C 0.75994 0.65326 0.6518 0.0
C596 C 0.76785 0.63573 0.63924 0.0
H597 H 0.77093 0.69024 0.64284 0.0
H598 H 0.73916 0.64798 0.67273 0.0
C599 C 0.7952 0.64396 0.61205 0.0
C600 C 0.97859 0.66696 0.59836 0.0
C601 C 1.00511 0.68769 0.60268 0.0
H602 H 0.95374 0.6287 0.61006 0.0
C603 C 1.02729 0.68404 0.62863 0.0
H604 H 0.96066 0.66848 0.58105 0.0
C605 C 1.02314 0.66078 0.64584 0.0
C606 C 0.99662 0.64005 0.63894 0.0
H607 H 0.04802 0.69909 0.63275 0.0
H608 H 1.04096 0.65904 0.6632 0.0
C609 C 0.97447 0.6438 0.61607 0.0
C610 C 0.37754 0.33157 0.57324 0.0
C611 C 0.36517 0.30679 0.5908 0.0
H612 H 0.41359 0.36561 0.56282 0.0
C613 C 0.38335 0.298 0.60865 0.0
H614 H 0.36511 0.33966 0.55757 0.0
C615 C 0.41252 0.31367 0.61132 0.0
C616 C 0.42442 0.33861 0.59631 0.0
H617 H 0.37515 0.27921 0.6226 0.0
H618 H 0.4257 0.30632 0.62703 0.0
C619 C 0.40601 0.34687 0.57613 0.0
C620 C 0.79809 0.16049 0.66134 0.0
C621 C 0.77075 0.14503 0.68786 0.0
H622 H 0.83628 0.16399 0.61293 0.0
C623 C 0.76182 0.12036 0.69171 0.0
H624 H 0.80582 0.1795 0.65754 0.0
C625 C 0.77929 0.11137 0.66605 0.0
C626 C 0.80628 0.12667 0.63438 0.0
H627 H 0.74095 0.10775 0.71209 0.0
H628 H 0.77129 0.09228 0.66637 0.0
C629 C 0.81552 0.15146 0.63475 0.0
C630 C 0.7439 0.97439 0.37677 0.0
C631 C 0.72612 0.98182 0.42157 0.0
H632 H 0.7857 0.98187 0.3766 0.0
C633 C 0.73628 1.00026 0.51519 0.0
H634 H 0.73658 0.9601 0.30512 0.0
C635 C 0.7637 1.01211 0.55745 0.0
C636 C 0.78222 1.00624 0.50674 0.0
H637 H 0.72306 1.00608 0.55396 0.0
H638 H 0.77076 0.02691 0.62611 0.0
C639 C 0.77191 0.98668 0.41854 0.0
C640 C 0.1213 0.77662 0.48574 0.0
C641 C 0.12533 0.79987 0.49886 0.0
H642 H 0.13193 0.75301 0.39459 0.0
C643 C 0.14647 0.81812 0.43687 0.0
H644 H 0.10512 0.76208 0.5316 0.0
C645 C 0.16198 0.81287 0.35739 0.0
C646 C 0.15673 0.78926 0.33825 0.0
H647 H 0.15 0.83618 0.444 0.0
H648 H 0.17767 0.82726 0.30918 0.0
C649 C 0.1367 0.77138 0.40635 0.0
C650 C 0.33981 0.3892 0.20483 0.0
C651 C 0.35428 0.41368 0.24164 0.0
H652 H 0.3145 0.35352 0.25788 0.0
C653 C 0.35283 0.42083 0.36406 0.0
H654 H 0.33996 0.38305 0.11115 0.0
C655 C 0.33796 0.40381 0.44816 0.0
C656 C 0.32452 0.37935 0.41203 0.0
H657 H 0.36393 0.43948 0.39679 0.0
H658 H 0.33786 0.40971 0.54252 0.0
C659 C 0.32519 0.37226 0.28902 0.0
C660 C 0.13876 0.49932 0.80094 0.0
C661 C 0.11839 0.47516 0.80864 0.0
H662 H 0.17897 0.52748 0.86368 0.0
C663 C 0.12102 0.46242 0.90447 0.0
H664 H 0.13704 0.50998 0.7312 0.0
C665 C 0.14461 0.4727 0.9822 0.0
C666 C 0.16621 0.49582 0.96513 0.0
H667 H 0.10586 0.44392 0.91489 0.0
H668 H 0.14694 0.46175 0.04876 0.0
C669 C 0.16255 0.50959 0.87876 0.0
C670 C 0.63354 0.61465 0.95317 0.0
C671 C 0.65525 0.61301 0.90634 0.0
H672 H 0.61952 0.62704 0.10347 0.0
C673 C 0.67992 0.62238 0.97852 0.0
H674 H 0.61434 0.60735 0.89903 0.0
C675 C 0.6831 0.6337 0.09497 0.0
C676 C 0.66168 0.63604 0.14165 0.0
H677 H 0.69693 0.62127 0.94319 0.0
H678 H 0.70271 0.6414 0.14597 0.0
C679 C 0.63665 0.62594 0.07003 0.0
C680 C 0.51121 0.03958 0.90109 0.0
C681 C 0.51688 0.06327 0.90614 0.0
H682 H 0.50634 1.01032 0.00091 0.0
C683 C 0.52486 0.07641 0.02126 0.0
H684 H 0.50572 0.02919 0.81375 0.0
C685 C 0.52456 0.06547 0.12951 0.0
C686 C 0.51654 0.04114 0.12587 0.0
H687 H 0.52983 0.09484 0.02966 0.0
H688 H 0.52941 0.07585 0.21654 0.0
C689 C 0.51152 0.02877 0.00938 0.0
C690 C 0.63917 0.04319 0.90984 0.0
C691 C 0.6449 0.06696 0.91746 0.0
H692 H 0.63783 1.01454 0.00351 0.0
C693 C 0.64982 0.07867 0.0359 0.0
H694 H 0.63433 0.03314 0.82186 0.0
C695 C 0.65237 0.06806 0.14123 0.0
C696 C 0.64887 0.04509 0.13143 0.0
H697 H 0.65293 0.09646 0.04813 0.0
H698 H 0.65754 0.07795 0.22997 0.0
C699 C 0.64111 0.03243 0.0151 0.0
C700 C 0.12717 0.67835 -0.00473 0.0
C701 C 0.14963 0.67681 0.042 0.0
H702 H 0.09053 0.66227 0.87666 0.0
C703 C 0.15083 0.65614 0.00866 0.0
H704 H 0.12567 0.69406 0.01754 0.0
C705 C 0.1309 0.63808 0.92657 0.0
C706 C 0.10901 0.64001 0.87618 0.0
H707 H 0.16782 0.65426 0.04222 0.0
H708 H 0.13278 0.62266 0.90188 0.0
C709 C 0.10707 0.66013 0.91379 0.0
C710 C 0.49589 0.51461 0.86954 0.0
C711 C 0.4941 0.50896 -0.00641 0.0
H712 H 0.49599 0.50283 0.68252 0.0
C713 C 0.498 0.49017 0.02693 0.0
H714 H 0.49242 0.52873 0.841 0.0
C715 C 0.50006 0.47539 0.93633 0.0
C716 C 0.49784 0.47897 0.81078 0.0
H717 H 0.4961 0.48515 0.12146 0.0
H718 H 0.50058 0.45979 0.96435 0.0
C719 C 0.49724 0.49945 0.77844 0.0
C720 C 0.17174 0.27797 0.49735 0.0
C721 C 0.14874 0.26158 0.5587 0.0
H722 H 0.21308 0.29085 0.45166 0.0
C723 C 0.15097 0.24326 0.61593 0.0
H724 H 0.17133 0.29231 0.45129 0.0
C725 C 0.17587 0.24243 0.61655 0.0
C726 C 0.19925 0.25983 0.55943 0.0
H727 H 0.13407 0.23036 0.66567 0.0
H728 H 0.17723 0.22899 0.66712 0.0
C729 C 0.19606 0.27709 0.49747 0.0
C730 C 0.90611 0.96349 0.65718 0.0
C731 C 0.88554 0.96423 0.58434 0.0
H732 H 0.92384 0.94344 0.72377 0.0
C733 C 0.8656 0.94223 0.522 0.0
H734 H 0.92191 0.97973 0.7066 0.0
C735 C 0.86699 0.92077 0.52952 0.0
C736 C 0.88841 0.92047 0.59964 0.0
H737 H 0.84961 0.94184 0.463 0.0
H738 H 0.85186 0.90469 0.47674 0.0
C739 C 0.90737 0.94234 0.66561 0.0
C740 C 0.18401 0.92566 0.5604 0.0
C741 C 0.15955 0.92551 0.58172 0.0
H742 H 0.22739 0.94627 0.54166 0.0
C743 C 0.16153 0.94828 0.59453 0.0
H744 H 0.18389 0.90894 0.55037 0.0
C745 C 0.18682 0.97008 0.5895 0.0
C746 C 0.21138 0.97017 0.57162 0.0
H747 H 0.14343 0.94943 0.60904 0.0
H748 H 0.18716 0.98688 0.6018 0.0
C749 C 0.20925 0.94741 0.55595 0.0
C750 C 0.24214 0.14372 0.52287 0.0
C751 C 0.26557 0.16579 0.56118 0.0
H752 H 0.2232 0.10559 0.49847 0.0
C753 C 0.2897 0.16546 0.59471 0.0
H754 H 0.22322 0.14313 0.49608 0.0
C755 C 0.28969 0.14347 0.59646 0.0
C756 C 0.26552 0.1213 0.56517 0.0
H757 H 0.30806 0.18198 0.62645 0.0
H758 H 0.30808 0.14371 0.62901 0.0
C759 C 0.24211 0.12206 0.52474 0.0
C760 C 0.93981 0.13927 0.63602 0.0
C761 C 0.93896 0.11773 0.59664 0.0
H762 H 0.9625 0.17786 0.65427 0.0
C763 C 0.96325 0.11981 0.55537 0.0
H764 H 0.9217 0.13869 0.66941 0.0
C765 C 0.98686 0.14261 0.54703 0.0
C766 C 0.98713 0.16419 0.57976 0.0
H767 H 0.96368 0.10394 0.5242 0.0
H768 H 1.00483 0.14328 0.51159 0.0
C769 C 0.96338 0.16199 0.62818 0.0
C770 C 0.96764 0.79193 0.59217 0.0
C771 C 0.99317 0.81302 0.59102 0.0
H772 H 0.92436 0.77557 0.59279 0.0
C773 C 0.99341 0.83498 0.59117 0.0
H774 H 0.96628 0.77466 0.59234 0.0
C775 C 0.96871 0.83561 0.59117 0.0
C776 C 0.94316 0.81428 0.59119 0.0
H777 H 1.01267 0.85167 0.59029 0.0
H778 H 0.96963 0.85269 0.59019 0.0
C779 C 0.94331 0.79254 0.5924 0.0
C780 C 0.85752 0.56287 0.64373 0.0
C781 C 0.85808 0.54141 0.64935 0.0
H782 H 0.83236 0.57916 0.63441 0.0
C783 C 0.83333 0.5202 0.665 0.0
H784 H 0.8762 0.57952 0.63154 0.0
C785 C 0.80859 0.52003 0.66712 0.0
C786 C 0.80752 0.54103 0.65334 0.0
H787 H 0.83299 0.50346 0.67253 0.0
H788 H 0.78996 0.50313 0.67588 0.0
C789 C 0.83244 0.56268 0.64559 0.0
C790 C 0.52284 0.28162 0.52547 0.0
C791 C 0.51996 0.29606 0.61734 0.0
H792 H 0.52473 0.24978 0.48216 0.0
C793 C 0.51383 0.28759 0.73554 0.0
H794 H 0.52726 0.28749 0.433 0.0
C795 C 0.51258 0.26613 0.76339 0.0
C796 C 0.51685 0.25232 0.67327 0.0
H797 H 0.51159 0.29824 0.80831 0.0
H798 H 0.50938 0.26073 0.85712 0.0
C799 C 0.52107 0.25988 0.55289 0.0
C800 C 0.8276 0.27383 0.56308 0.0
C801 C 0.82146 0.27092 0.68732 0.0
H802 H 0.85573 0.29592 0.4327 0.0
C803 C 0.841 0.28743 0.77755 0.0
H804 H 0.81292 0.26149 0.49175 0.0
C805 C 0.86573 0.30685 0.74409 0.0
C806 C 0.87115 0.31051 0.61947 0.0
H807 H 0.83689 0.28553 0.87413 0.0
H808 H 0.87998 0.31967 0.81515 0.0
C809 C 0.85201 0.29358 0.52948 0.0
C810 C 0.95948 0.48209 0.62784 0.0
C811 C 0.9839 0.50491 0.63852 0.0
H812 H 0.94068 0.44329 0.61088 0.0
C813 C 1.00856 0.50439 0.63936 0.0
H814 H 0.93987 0.48118 0.62632 0.0
C815 C 1.00901 0.48266 0.63009 0.0
C816 C 0.98484 0.4598 0.6194 0.0
H817 H 1.02799 0.52104 0.64697 0.0
H818 H 1.02883 0.48396 0.63145 0.0
C819 C 0.95993 0.46009 0.61868 0.0
C820 C 0.58783 0.47191 0.64698 0.0
C821 C 0.58697 0.44972 0.63504 0.0
H822 H 0.61118 0.51012 0.65884 0.0
C823 C 0.61261 0.45098 0.62765 0.0
H824 H 0.5691 0.47242 0.65369 0.0
C825 C 0.63774 0.47355 0.63103 0.0
C826 C 0.63811 0.49563 0.6416 0.0
H827 H 0.61328 0.43461 0.61829 0.0
H828 H 0.65683 0.47367 0.62424 0.0
C829 C 0.61246 0.49402 0.64998 0.0
C830 C 0.62842 0.16151 0.81252 0.0
C831 C 0.64921 0.17773 0.74092 0.0
H832 H 0.58725 0.1463 0.86544 0.0
C833 C 0.64397 0.19349 0.67478 0.0
H834 H 0.63155 0.14916 0.86526 0.0
C835 C 0.61785 0.19173 0.67434 0.0
C836 C 0.5966 0.17427 0.74062 0.0
H837 H 0.65934 0.20606 0.61747 0.0
H838 H 0.6138 0.2029 0.61622 0.0
C839 C 0.60283 0.15988 0.8127 0.0
C840 C 0.54387 0.91766 0.34358 0.0
C841 C 0.56611 0.93736 0.29416 0.0
H842 H 0.50179 0.9018 0.39208 0.0
C843 C 0.56175 0.95479 0.24278 0.0
H844 H 0.54662 0.90398 0.38423 0.0
C845 C 0.5367 0.95374 0.24864 0.0
C846 C 0.51492 0.93508 0.30505 0.0
H847 H 0.57819 0.97 0.20194 0.0
H848 H 0.53466 0.96809 0.21172 0.0
C849 C 0.51831 0.91648 0.34857 0.0
C850 C 0.25504 0.64271 0.21503 0.0
C851 C 0.25656 0.65746 0.12101 0.0
H852 H 0.25671 0.61169 0.26273 0.0
C853 C 0.25935 0.65143 -0.00038 0.0
H854 H 0.25284 0.6472 0.30922 0.0
C855 C 0.2622 0.63156 0.9737 0.0
C856 C 0.26157 0.61724 0.06851 0.0
H857 H 0.26069 0.66276 0.92652 0.0
H858 H 0.26537 0.62757 0.88023 0.0
C859 C 0.25716 0.62252 0.18864 0.0
C860 C 0.55559 0.67173 0.27995 0.0
C861 C 0.57508 0.6675 0.33793 0.0
H862 H 0.51653 0.65632 0.18148 0.0
C863 C 0.5688 0.6438 0.34975 0.0
H864 H 0.55991 0.68984 0.26958 0.0
C865 C 0.54442 0.62474 0.29772 0.0
C866 C 0.52541 0.62877 0.23308 0.0
H867 H 0.58333 0.6399 0.39468 0.0
H868 H 0.54127 0.60695 0.30399 0.0
C869 C 0.5309 0.65249 0.22801 0.0
C870 C 0.6426 0.82903 0.50483 0.0
C871 C 0.64309 0.81373 0.4109 0.0
H872 H 0.64015 0.86045 0.54902 0.0
C873 C 0.64472 0.82009 0.28861 0.0
H874 H 0.64156 0.82451 0.59997 0.0
C875 C 0.64355 0.84036 0.25971 0.0
C876 C 0.64131 0.85482 0.35286 0.0
H877 H 0.64498 0.80852 0.21481 0.0
H878 H 0.64319 0.84422 0.16402 0.0
C879 C 0.64199 0.84959 0.47609 0.0
C880 C 0.34265 0.81175 0.25563 0.0
C881 C 0.34713 0.83501 0.27441 0.0
H882 H 0.31388 0.77477 0.21546 0.0
C883 C 0.32467 0.8386 0.262 0.0
H884 H 0.35954 0.80845 0.26231 0.0
C885 C 0.29813 0.81911 0.23479 0.0
C886 C 0.29373 0.79577 0.21878 0.0
H887 H 0.32752 0.85635 0.27669 0.0
H888 H 0.28111 0.82225 0.22791 0.0
C889 C 0.31638 0.79243 0.22811 0.0
C890 C 0.34395 0.50243 0.14007 0.0
C891 C 0.36795 0.52338 0.11451 0.0
H892 H 0.30072 0.48457 0.14676 0.0
C893 C 0.36674 0.54375 0.0854 0.0
H894 H 0.34436 0.48659 0.16514 0.0
C895 C 0.3414 0.54258 0.07462 0.0
C896 C 0.31729 0.52102 0.09274 0.0
H897 H 0.38508 0.56013 0.06576 0.0
H898 H 0.34056 0.5581 0.04743 0.0
C899 C 0.31892 0.50125 0.12921 0.0
C900 C 0.10627 0.30103 0.14731 0.0
C901 C 0.08745 0.2807 0.20589 0.0
H902 H 0.12147 0.31659 0.97687 0.0
C903 C 0.06901 0.25991 0.13304 0.0
H904 H 0.12068 0.31734 0.20065 0.0
C905 C 0.06942 0.25945 0.00457 0.0
C906 C 0.0883 0.27977 0.94598 0.0
H907 H 0.05428 0.2439 0.17519 0.0
H908 H 0.0549 0.24315 0.95128 0.0
C909 C 0.10673 0.30057 0.01889 0.0
C910 C 0.85814 0.78513 0.13511 0.0
C911 C 0.86672 0.80649 0.20694 0.0
H912 H 0.85127 0.76823 0.95416 0.0
C913 C 0.87513 0.82774 0.14706 0.0
H914 H 0.85153 0.76843 0.1781 0.0
C915 C 0.87499 0.82764 0.01849 0.0
C916 C 0.86643 0.80628 0.94666 0.0
H917 H 0.88185 0.84453 0.19943 0.0
H918 H 0.88162 0.84433 0.97552 0.0
C919 C 0.858 0.78502 0.00654 0.0
C920 C 0.28183 0.04479 0.15506 0.0
C921 C 0.28955 0.03051 0.21924 0.0
H922 H 0.27589 0.05597 0.98012 0.0
C923 C 0.29743 1.01622 0.15189 0.0
H924 H 0.27566 0.05601 0.20399 0.0
C925 C 0.29757 1.0162 0.02341 0.0
C926 C 0.28985 0.03047 0.95924 0.0
H927 H 0.30353 1.00502 0.19835 0.0
H928 H 0.30374 1.00497 0.97448 0.0
C929 C 0.28197 0.04476 0.02658 0.0
C930 C 0.04933 0.7861 0.00561 0.0
C931 C 0.06417 0.80765 0.94726 0.0
H932 H 1.03605 0.76929 0.1753 0.0
C933 C 0.07721 0.82931 0.02023 0.0
H934 H 1.03892 0.76907 0.95238 0.0
C935 C 0.07542 0.82943 0.14822 0.0
C936 C 0.06053 0.80789 0.20655 0.0
H937 H 0.08868 0.84624 0.9785 0.0
H938 H 0.08584 0.84647 0.20146 0.0
C939 C 0.04754 0.78622 0.1336 0.0
C940 C 0.28331 0.29491 0.16001 0.0
C941 C 0.27957 0.27429 0.21568 0.0
H942 H 0.2871 0.31237 -0.00749 0.0
C943 C 0.27663 0.25498 0.14024 0.0
H944 H 0.28552 0.3101 0.2153 0.0
C945 C 0.27745 0.25628 0.01229 0.0
C946 C 0.2813 0.27695 0.95666 0.0
H947 H 0.27375 0.23887 0.17993 0.0
H948 H 0.27507 0.24101 0.95697 0.0
C949 C 0.28422 0.29625 0.03212 0.0
C950 C 0.85468 0.072 0.12729 0.0
C951 C 0.86317 0.05811 0.19035 0.0
H952 H 0.84704 0.0824 0.95306 0.0
C953 C 0.87053 0.04362 0.1215 0.0
H954 H 0.8488 0.08333 0.17731 0.0
C955 C 0.86944 0.04303 -0.00728 0.0
C956 C 0.86097 0.05693 0.92965 0.0
H957 H 0.87708 0.03263 0.16698 0.0
H958 H 0.87532 0.03171 0.94272 0.0
C959 C 0.8536 0.07142 -0.00148 0.0
C960 C 0.69267 0.57292 0.07719 0.0
C961 C 0.70913 0.56554 0.01734 0.0
H962 H 0.67779 0.57807 0.24751 0.0
C963 C 0.72341 0.55731 0.08856 0.0
H964 H 0.68126 0.57928 0.02553 0.0
C965 C 0.72121 0.55645 0.21626 0.0
C966 C 0.70471 0.56382 0.27594 0.0
H967 H 0.73614 0.55139 0.0457 0.0
H968 H 0.73256 0.55001 0.26824 0.0
C969 C 0.69051 0.57212 0.20478 0.0
C970 C 0.5195 0.16988 0.27099 0.0
C971 C 0.51478 0.14939 0.33065 0.0
H972 H 0.52242 0.18584 0.0994 0.0
C973 C 0.50876 0.12864 0.25865 0.0
H974 H 0.5241 0.18615 0.32361 0.0
C975 C 0.50752 0.12841 0.13004 0.0
C976 C 0.51252 0.14897 0.07044 0.0
H977 H 0.50477 0.11248 0.30148 0.0
H978 H 0.50252 0.11207 0.07731 0.0
C979 C 0.51844 0.16969 0.14237 0.0
C980 C 1.02024 0.41455 0.04282 0.0
C981 C 0.99571 0.39974 0.97146 0.0
H982 H 1.04006 0.42642 0.2235 0.0
C983 C 0.9718 0.38521 0.03171 0.0
H984 H 1.03906 0.42599 -0.00052 0.0
C985 C 0.97239 0.38549 0.16034 0.0
C986 C 0.99692 0.40028 0.23164 0.0
H987 H 0.95258 0.37359 0.9796 0.0
H988 H 0.95357 0.37407 0.20381 0.0
C989 C 1.02084 0.4148 0.1714 0.0
C990 C 0.70385 0.1443 0.1439 0.0
C991 C 0.716 0.16606 0.08629 0.0
H992 H 0.69219 0.1268 0.31284 0.0
C993 C 0.72671 0.18753 0.15968 0.0
H994 H 0.6963 0.12758 0.09014 0.0
C995 C 0.72485 0.18718 0.28761 0.0
C996 C 0.71206 0.16534 0.34488 0.0
H997 H 0.73621 0.20461 0.11823 0.0
H998 H 0.7333 0.20405 0.34159 0.0
C999 C 0.70162 0.14389 0.27153 0.0
C1000 C 0.96243 0.56229 0.08546 0.0
C1001 C 0.98662 0.57224 0.02253 0.0
H1002 H 0.94437 0.55423 0.25941 0.0
C1003 C 1.01187 0.58198 0.09124 0.0
H1004 H 0.94267 0.55461 0.03553 0.0
C1005 C 1.0129 0.58173 0.21977 0.0
C1006 C 0.9887 0.57176 0.28272 0.0
H1007 H 1.03095 0.5898 0.04577 0.0
H1008 H 1.03266 0.58942 0.26968 0.0
C1009 C 0.96346 0.56204 0.21398 0.0
C1010 C 0.51507 0.37593 0.05332 0.0
C1011 C 0.5081 0.39032 0.98601 0.0
H1012 H 0.51991 0.36502 0.23068 0.0
C1013 C 0.50046 0.40515 0.05016 0.0
H1014 H 0.521 0.3643 0.00692 0.0
C1015 C 0.49979 0.40557 0.17856 0.0
C1016 C 0.50673 0.39116 0.24587 0.0
H1017 H 0.49495 0.41649 0.00123 0.0
H1018 H 0.49385 0.4172 0.22494 0.0
C1019 C 0.51439 0.37634 0.18172 0.0
C1020 C 0.45931 0.96493 0.78597 0.0
C1021 C 0.45167 0.94407 0.71165 0.0
H1022 H 0.46145 0.98008 0.96733 0.0
C1023 C 0.44052 0.92207 0.76745 0.0
H1024 H 0.46735 0.98206 0.7458 0.0
C1025 C 0.43751 0.92101 0.8947 0.0
C1026 C 0.44541 0.94191 0.96913 0.0
H1027 H 0.43419 0.90559 0.71273 0.0
H1028 H 0.4294 0.90388 0.93492 0.0
C1029 C 0.45596 0.9638 0.91293 0.0
C1030 C 0.25392 0.53207 0.61528 0.0
C1031 C 0.24348 0.51001 0.67011 0.0
H1032 H 0.26095 0.55021 0.448 0.0
C1033 C 0.2314 0.48885 0.59364 0.0
H1034 H 0.26324 0.54876 0.67145 0.0
C1035 C 0.22989 0.48974 0.46554 0.0
C1036 C 0.24053 0.51179 0.41062 0.0
H1037 H 0.22289 0.47157 0.63261 0.0
H1038 H 0.22033 0.47308 0.40937 0.0
C1039 C 0.25246 0.53295 0.48709 0.0
C1040 C 0.66062 0.70453 0.9723 0.0
C1041 C 0.65502 0.72095 0.0347 0.0
H1042 H 0.66383 0.68955 0.79861 0.0
C1043 C 0.64797 0.73498 0.96484 0.0
H1044 H 0.666 0.69329 0.02304 0.0
C1045 C 0.64657 0.73267 0.83595 0.0
C1046 C 0.6522 0.71628 0.77353 0.0
H1047 H 0.64338 0.74766 0.0096 0.0
H1048 H 0.64115 0.74388 0.78523 0.0
C1049 C 0.65925 0.70224 0.84338 0.0
C1050 C 0.44756 0.54042 0.66612 0.0
C1051 C 0.43303 0.51858 0.72252 0.0
H1052 H 0.46117 0.55792 0.49819 0.0
C1053 C 0.42129 0.49713 0.64832 0.0
H1054 H 0.45711 0.55731 0.72057 0.0
C1055 C 0.42375 0.49751 0.52078 0.0
C1056 C 0.43812 0.51936 0.46429 0.0
H1057 H 0.41024 0.48 0.68869 0.0
H1058 H 0.4142 0.48061 0.46635 0.0
C1059 C 0.4501 0.5408 0.53861 0.0
C1060 C 0.65562 0.97803 0.9061 0.0
C1061 C 0.64826 0.95686 0.96494 0.0
H1062 H 0.65957 0.99449 0.73533 0.0
C1063 C 0.63919 0.93552 0.89215 0.0
H1064 H 0.66298 0.99482 0.9594 0.0
C1065 C 0.63737 0.93534 0.76357 0.0
C1066 C 0.64447 0.95647 0.70471 0.0
H1067 H 0.63327 0.91888 0.93444 0.0
H1068 H 0.63037 0.91859 0.71033 0.0
C1069 C 0.65363 0.97783 0.77754 0.0
C1070 C 0.22946 0.72353 0.59242 0.0
C1071 C 0.21736 0.73449 0.52724 0.0
H1072 H 0.24093 0.71654 0.76848 0.0
C1073 C 0.20751 0.74731 0.59412 0.0
H1074 H 0.23741 0.71364 0.54388 0.0
C1075 C 0.20974 0.74913 0.72304 0.0
C1076 C 0.22185 0.73818 0.78826 0.0
H1077 H 0.19821 0.75609 0.54693 0.0
H1078 H 0.20179 0.75904 0.77152 0.0
C1079 C 0.23165 0.72533 0.72134 0.0
loop_
_geom_bond_atom_site_label_1
_geom_bond_atom_site_label_2
_geom_bond_distance
_geom_bond_site_symmetry_2
_ccdc_geom_bond_type
Co0 N5 2.057 . S
Co0 O17 2.021 . S
Co0 O20 2.062 . S
Co0 O24 2.117 . S
Co0 O25 2.020 . S
C1 O21 1.259 . S
C1 O24 1.258 . S
Co2 N11 2.059 . S
Co2 O18 2.117 . S
Co2 O19 2.020 . S
Co2 O21 2.047 . S
Co2 O26 2.062 . S
C3 N5 1.316 . S
C3 N6 1.347 . S
C3 H8 0.931 . S
C4 N5 1.375 . S
C4 C7 1.350 . S
C4 H9 0.930 . S
N5 Co0 2.057 . S
N5 C3 1.316 . S
N5 C4 1.375 . S
N6 C3 1.347 . S
N6 C7 1.373 . S
C7 C4 1.350 . S
C7 N6 1.373 . S
C7 H28 0.931 . S
H8 C3 0.931 . S
H9 C4 0.930 . S
C10 O17 1.259 . S
C10 O18 1.258 . S
N11 Co2 2.059 . S
N11 C12 1.300 1_455 S
N11 C13 1.389 . S
C12 N11 1.300 1_655 S
C12 N14 1.347 . S
C12 H23 0.931 . S
C13 N11 1.389 . S
C13 C15 1.350 1_455 S
C13 H22 0.930 . S
N14 C12 1.347 . S
N14 C15 1.373 . S
C15 C13 1.350 1_655 S
C15 N14 1.373 . S
C15 H29 0.931 . S
C16 O19 1.256 . S
C16 O20 1.255 . S
O17 Co0 2.021 . S
O17 C10 1.259 . S
O18 Co2 2.117 . S
O18 C10 1.258 . S
O19 Co2 2.020 . S
O19 C16 1.256 . S
O20 Co0 2.062 . S
O20 C16 1.255 . S
O21 C1 1.259 . S
O21 Co2 2.047 . S
H22 C13 0.930 . S
H23 C12 0.931 . S
O24 Co0 2.117 . S
O24 C1 1.258 . S
O25 Co0 2.020 . S
O25 C27 1.256 . S
O26 Co2 2.062 . S
O26 C27 1.255 . S
C27 O25 1.256 . S
C27 O26 1.255 . S
H28 C7 0.931 . S
H29 C15 0.931 . S
Co30 N35 2.057 . S
Co30 O47 2.021 . S
Co30 O50 2.062 . S
Co30 O54 2.117 . S
Co30 O55 2.020 . S
C31 O51 1.259 . S
C31 O54 1.258 . S
Co32 N41 2.057 . S
Co32 O48 2.117 . S
Co32 O49 2.020 . S
Co32 O51 2.021 . S
Co32 O56 2.062 . S
C33 N35 1.316 . S
C33 N36 1.347 . S
C33 H38 0.931 . S
C34 N35 1.375 . S
C34 C37 1.350 . S
C34 H39 0.930 . S
N35 Co30 2.057 . S
N35 C33 1.316 . S
N35 C34 1.375 . S
N36 C33 1.347 . S
N36 C37 1.373 . S
C37 C34 1.350 . S
C37 N36 1.373 . S
C37 H58 0.931 . S
H38 C33 0.931 . S
H39 C34 0.930 . S
C40 O47 1.259 . S
C40 O48 1.258 . S
N41 Co32 2.057 . S
N41 C42 1.316 . S
N41 C43 1.375 . S
C42 N41 1.316 . S
C42 N44 1.347 . S
C42 H53 0.931 . S
C43 N41 1.375 . S
C43 C45 1.350 . S
C43 H52 0.930 . S
N44 C42 1.347 . S
N44 C45 1.373 . S
C45 C43 1.350 . S
C45 N44 1.373 . S
C45 H59 0.931 . S
C46 O49 1.256 . S
C46 O50 1.255 . S
O47 Co30 2.021 . S
O47 C40 1.259 . S
O48 Co32 2.117 . S
O48 C40 1.258 . S
O49 Co32 2.020 . S
O49 C46 1.256 . S
O50 Co30 2.062 . S
O50 C46 1.255 . S
O51 C31 1.259 . S
O51 Co32 2.021 . S
H52 C43 0.930 . S
H53 C42 0.931 . S
O54 Co30 2.117 . S
O54 C31 1.258 . S
O55 Co30 2.020 . S
O55 C57 1.256 . S
O56 Co32 2.062 . S
O56 C57 1.255 . S
C57 O55 1.256 . S
C57 O56 1.255 . S
H58 C37 0.931 . S
H59 C45 0.931 . S
Co60 N65 2.057 . S
Co60 O77 2.021 . S
Co60 O80 2.062 . S
Co60 O84 2.117 1_565 S
Co60 O85 2.020 . S
C61 O81 1.259 . S
C61 O84 1.258 . S
Co62 N71 2.057 . S
Co62 O78 2.117 1_545 S
Co62 O79 2.020 . S
Co62 O81 2.021 . S
Co62 O86 2.062 . S
C63 N65 1.316 . S
C63 N66 1.347 . S
C63 H68 0.931 . S
C64 N65 1.375 . S
C64 C67 1.350 . S
C64 H69 0.930 1_565 S
N65 Co60 2.057 . S
N65 C63 1.316 . S
N65 C64 1.375 . S
N66 C63 1.347 . S
N66 C67 1.373 . S
C67 C64 1.350 . S
C67 N66 1.373 . S
C67 H88 0.931 . S
H68 C63 0.931 . S
H69 C64 0.930 1_545 S
C70 O77 1.259 . S
C70 O78 1.258 . S
N71 Co62 2.057 . S
N71 C72 1.316 . S
N71 C73 1.375 . S
C72 N71 1.316 . S
C72 N74 1.347 . S
C72 H83 0.931 . S
C73 N71 1.375 . S
C73 C75 1.350 . S
C73 H82 0.930 . S
N74 C72 1.347 . S
N74 C75 1.373 . S
C75 C73 1.350 . S
C75 N74 1.373 . S
C75 H89 0.931 . S
C76 O79 1.256 . S
C76 O80 1.255 1_545 S
O77 Co60 2.021 . S
O77 C70 1.259 . S
O78 Co62 2.117 1_565 S
O78 C70 1.258 . S
O79 Co62 2.020 . S
O79 C76 1.256 . S
O80 Co60 2.062 . S
O80 C76 1.255 1_565 S
O81 C61 1.259 . S
O81 Co62 2.021 . S
H82 C73 0.930 . S
H83 C72 0.931 . S
O84 Co60 2.117 1_545 S
O84 C61 1.258 . S
O85 Co60 2.020 . S
O85 C87 1.256 1_565 S
O86 Co62 2.062 . S
O86 C87 1.255 . S
C87 O85 1.256 1_545 S
C87 O86 1.255 . S
H88 C67 0.931 . S
H89 C75 0.931 . S
Co90 N95 2.057 . S
Co90 O107 2.021 . S
Co90 O110 2.062 . S
Co90 O114 2.117 . S
Co90 O115 2.020 . S
C91 O111 1.259 . S
C91 O114 1.258 1_655 S
Co92 N101 2.057 1_455 S
Co92 O108 2.117 . S
Co92 O109 2.020 . S
Co92 O111 2.021 1_455 S
Co92 O116 2.062 . S
C93 N95 1.316 . S
C93 N96 1.347 . S
C93 H98 0.931 . S
C94 N95 1.375 . S
C94 C97 1.350 . S
C94 H99 0.930 . S
N95 Co90 2.057 . S
N95 C93 1.316 . S
N95 C94 1.375 . S
N96 C93 1.347 . S
N96 C97 1.373 . S
C97 C94 1.350 . S
C97 N96 1.373 . S
C97 H118 0.931 . S
H98 C93 0.931 . S
H99 C94 0.930 . S
C100 O107 1.259 . S
C100 O108 1.258 . S
N101 Co92 2.057 1_655 S
N101 C102 1.316 . S
N101 C103 1.375 1_655 S
C102 N101 1.316 . S
C102 N104 1.347 . S
C102 H113 0.931 . S
C103 N101 1.375 1_455 S
C103 C105 1.350 1_455 S
C103 H112 0.930 . S
N104 C102 1.347 . S
N104 C105 1.373 . S
C105 C103 1.350 1_655 S
C105 N104 1.373 . S
C105 H119 0.931 . S
C106 O109 1.256 . S
C106 O110 1.255 . S
O107 Co90 2.021 . S
O107 C100 1.259 . S
O108 Co92 2.117 . S
O108 C100 1.258 . S
O109 Co92 2.020 . S
O109 C106 1.256 . S
O110 Co90 2.062 . S
O110 C106 1.255 . S
O111 C91 1.259 . S
O111 Co92 2.021 1_655 S
H112 C103 0.930 . S
H113 C102 0.931 . S
O114 Co90 2.117 . S
O114 C91 1.258 1_455 S
O115 Co90 2.020 . S
O115 C117 1.256 . S
O116 Co92 2.062 . S
O116 C117 1.255 . S
C117 O115 1.256 . S
C117 O116 1.255 . S
H118 C97 0.931 . S
H119 C105 0.931 . S
Co120 N125 2.057 . S
Co120 O137 2.021 . S
Co120 O140 2.062 . S
Co120 O144 2.117 . S
Co120 O145 2.020 . S
C121 O141 1.259 . S
C121 O144 1.258 . S
Co122 N131 2.057 . S
Co122 O138 2.117 . S
Co122 O139 2.020 . S
Co122 O141 2.021 . S
Co122 O146 2.062 . S
C123 N125 1.316 . S
C123 N126 1.347 . S
C123 H128 0.931 . S
C124 N125 1.375 . S
C124 C127 1.350 . S
C124 H129 0.930 . S
N125 Co120 2.057 . S
N125 C123 1.316 . S
N125 C124 1.375 . S
N126 C123 1.347 . S
N126 C127 1.373 . S
C127 C124 1.350 . S
C127 N126 1.373 . S
C127 H148 0.931 . S
H128 C123 0.931 . S
H129 C124 0.930 . S
C130 O137 1.259 . S
C130 O138 1.258 . S
N131 Co122 2.057 . S
N131 C132 1.316 . S
N131 C133 1.375 . S
C132 N131 1.316 . S
C132 N134 1.347 . S
C132 H143 0.931 . S
C133 N131 1.375 . S
C133 C135 1.350 . S
C133 H142 0.930 . S
N134 C132 1.347 . S
N134 C135 1.373 . S
C135 C133 1.350 . S
C135 N134 1.373 . S
C135 H149 0.931 . S
C136 O139 1.256 . S
C136 O140 1.255 . S
O137 Co120 2.021 . S
O137 C130 1.259 . S
O138 Co122 2.117 . S
O138 C130 1.258 . S
O139 Co122 2.020 . S
O139 C136 1.256 . S
O140 Co120 2.062 . S
O140 C136 1.255 . S
O141 C121 1.259 . S
O141 Co122 2.021 . S
H142 C133 0.930 . S
H143 C132 0.931 . S
O144 Co120 2.117 . S
O144 C121 1.258 . S
O145 Co120 2.020 . S
O145 C147 1.256 . S
O146 Co122 2.062 . S
O146 C147 1.255 . S
C147 O145 1.256 . S
C147 O146 1.255 . S
H148 C127 0.931 . S
H149 C135 0.931 . S
Co150 N155 2.057 1_545 S
Co150 O167 2.021 1_545 S
Co150 O170 2.062 . S
Co150 O174 2.117 . S
Co150 O175 2.020 . S
C151 O171 1.259 . S
C151 O174 1.258 . S
Co152 N161 2.057 . S
Co152 O168 2.117 . S
Co152 O169 2.020 . S
Co152 O171 2.021 . S
Co152 O176 2.062 . S
C153 N155 1.316 . S
C153 N156 1.347 . S
C153 H158 0.931 . S
C154 N155 1.375 . S
C154 C157 1.350 . S
C154 H159 0.930 1_565 S
N155 Co150 2.057 1_565 S
N155 C153 1.316 . S
N155 C154 1.375 . S
N156 C153 1.347 . S
N156 C157 1.373 . S
C157 C154 1.350 . S
C157 N156 1.373 . S
C157 H178 0.931 . S
H158 C153 0.931 . S
H159 C154 0.930 1_545 S
C160 O167 1.259 . S
C160 O168 1.258 1_565 S
N161 Co152 2.057 . S
N161 C162 1.316 . S
N161 C163 1.375 . S
C162 N161 1.316 . S
C162 N164 1.347 . S
C162 H173 0.931 . S
C163 N161 1.375 . S
C163 C165 1.350 . S
C163 H172 0.930 . S
N164 C162 1.347 . S
N164 C165 1.373 . S
C165 C163 1.350 . S
C165 N164 1.373 . S
C165 H179 0.931 . S
C166 O169 1.256 . S
C166 O170 1.255 . S
O167 Co150 2.021 1_565 S
O167 C160 1.259 . S
O168 Co152 2.117 . S
O168 C160 1.258 1_545 S
O169 Co152 2.020 . S
O169 C166 1.256 . S
O170 Co150 2.062 . S
O170 C166 1.255 . S
O171 C151 1.259 . S
O171 Co152 2.021 . S
H172 C163 0.930 . S
H173 C162 0.931 . S
O174 Co150 2.117 . S
O174 C151 1.258 . S
O175 Co150 2.020 . S
O175 C177 1.256 . S
O176 Co152 2.062 . S
O176 C177 1.255 . S
C177 O175 1.256 . S
C177 O176 1.255 . S
H178 C157 0.931 . S
H179 C165 0.931 . S
Co180 N185 2.057 . S
Co180 O197 2.021 . S
Co180 O200 2.062 . S
Co180 O204 2.117 . S
Co180 O205 2.020 . S
C181 O201 1.259 . S
C181 O204 1.258 . S
Co182 N191 2.057 . S
Co182 O198 2.117 . S
Co182 O199 2.020 . S
Co182 O201 2.021 . S
Co182 O206 2.062 . S
C183 N185 1.316 . S
C183 N186 1.347 . S
C183 H188 0.931 . S
C184 N185 1.375 . S
C184 C187 1.350 . S
C184 H189 0.930 . S
N185 Co180 2.057 . S
N185 C183 1.316 . S
N185 C184 1.375 . S
N186 C183 1.347 . S
N186 C187 1.373 . S
C187 C184 1.350 . S
C187 N186 1.373 . S
C187 H208 0.931 . S
H188 C183 0.931 . S
H189 C184 0.930 . S
C190 O197 1.259 . S
C190 O198 1.258 . S
N191 Co182 2.057 . S
N191 C192 1.316 . S
N191 C193 1.375 . S
C192 N191 1.316 . S
C192 N194 1.347 . S
C192 H203 0.931 . S
C193 N191 1.375 . S
C193 C195 1.350 . S
C193 H202 0.930 . S
N194 C192 1.347 . S
N194 C195 1.373 . S
C195 C193 1.350 . S
C195 N194 1.373 . S
C195 H209 0.931 . S
C196 O199 1.256 . S
C196 O200 1.255 . S
O197 Co180 2.021 . S
O197 C190 1.259 . S
O198 Co182 2.117 . S
O198 C190 1.258 . S
O199 Co182 2.020 . S
O199 C196 1.256 . S
O200 Co180 2.062 . S
O200 C196 1.255 . S
O201 C181 1.259 . S
O201 Co182 2.021 . S
H202 C193 0.930 . S
H203 C192 0.931 . S
O204 Co180 2.117 . S
O204 C181 1.258 . S
O205 Co180 2.020 . S
O205 C207 1.256 . S
O206 Co182 2.062 . S
O206 C207 1.255 . S
C207 O205 1.256 . S
C207 O206 1.255 . S
H208 C187 0.931 . S
H209 C195 0.931 . S
Co210 N215 2.057 . S
Co210 O227 2.021 . S
Co210 O230 2.062 . S
Co210 O234 2.117 . S
Co210 O235 2.020 . S
C211 O231 1.259 . S
C211 O234 1.258 . S
Co212 N221 2.057 . S
Co212 O228 2.117 . S
Co212 O229 2.020 . S
Co212 O231 2.021 . S
Co212 O236 2.062 . S
C213 N215 1.316 . S
C213 N216 1.347 . S
C213 H218 0.931 . S
C214 N215 1.375 . S
C214 C217 1.350 . S
C214 H219 0.930 . S
N215 Co210 2.057 . S
N215 C213 1.316 . S
N215 C214 1.375 . S
N216 C213 1.347 . S
N216 C217 1.373 . S
C217 C214 1.350 . S
C217 N216 1.373 . S
C217 H238 0.931 . S
H218 C213 0.931 . S
H219 C214 0.930 . S
C220 O227 1.259 . S
C220 O228 1.258 . S
N221 Co212 2.057 . S
N221 C222 1.316 . S
N221 C223 1.375 . S
C222 N221 1.316 . S
C222 N224 1.347 . S
C222 H233 0.931 . S
C223 N221 1.375 . S
C223 C225 1.350 . S
C223 H232 0.930 . S
N224 C222 1.347 . S
N224 C225 1.373 . S
C225 C223 1.350 . S
C225 N224 1.373 . S
C225 H239 0.931 . S
C226 O229 1.256 1_554 S
C226 O230 1.255 1_554 S
O227 Co210 2.021 . S
O227 C220 1.259 . S
O228 Co212 2.117 . S
O228 C220 1.258 . S
O229 Co212 2.020 . S
O229 C226 1.256 1_556 S
O230 Co210 2.062 . S
O230 C226 1.255 1_556 S
O231 C211 1.259 . S
O231 Co212 2.021 . S
H232 C223 0.930 . S
H233 C222 0.931 . S
O234 Co210 2.117 . S
O234 C211 1.258 . S
O235 Co210 2.020 . S
O235 C237 1.256 . S
O236 Co212 2.062 . S
O236 C237 1.255 . S
C237 O235 1.256 . S
C237 O236 1.255 . S
H238 C217 0.931 . S
H239 C225 0.931 . S
Co240 N245 2.057 1_655 S
Co240 O257 2.021 . S
Co240 O260 2.062 . S
Co240 O264 2.117 . S
Co240 O265 2.020 . S
C241 O261 1.259 . S
C241 O264 1.258 . S
Co242 N251 2.057 . S
Co242 O258 2.117 . S
Co242 O259 2.020 . S
Co242 O261 2.021 . S
Co242 O266 2.062 . S
C243 N245 1.316 . S
C243 N246 1.347 . S
C243 H248 0.931 . S
C244 N245 1.375 . S
C244 C247 1.350 . S
C244 H249 0.930 . S
N245 Co240 2.057 1_455 S
N245 C243 1.316 . S
N245 C244 1.375 . S
N246 C243 1.347 . S
N246 C247 1.373 . S
C247 C244 1.350 . S
C247 N246 1.373 . S
C247 H268 0.931 . S
H248 C243 0.931 . S
H249 C244 0.930 . S
C250 O257 1.259 . S
C250 O258 1.258 . S
N251 Co242 2.057 . S
N251 C252 1.316 . S
N251 C253 1.375 . S
C252 N251 1.316 . S
C252 N254 1.347 . S
C252 H263 0.931 . S
C253 N251 1.375 . S
C253 C255 1.350 . S
C253 H262 0.930 . S
N254 C252 1.347 . S
N254 C255 1.373 . S
C255 C253 1.350 . S
C255 N254 1.373 . S
C255 H269 0.931 . S
C256 O259 1.256 . S
C256 O260 1.255 . S
O257 Co240 2.021 . S
O257 C250 1.259 . S
O258 Co242 2.117 . S
O258 C250 1.258 . S
O259 Co242 2.020 . S
O259 C256 1.256 . S
O260 Co240 2.062 . S
O260 C256 1.255 . S
O261 C241 1.259 . S
O261 Co242 2.021 . S
H262 C253 0.930 . S
H263 C252 0.931 . S
O264 Co240 2.117 . S
O264 C241 1.258 . S
O265 Co240 2.020 . S
O265 C267 1.256 . S
O266 Co242 2.062 . S
O266 C267 1.255 . S
C267 O265 1.256 . S
C267 O266 1.255 . S
H268 C247 0.931 . S
H269 C255 0.931 . S
Co270 N275 2.057 . S
Co270 O287 2.021 . S
Co270 O290 2.062 . S
Co270 O294 2.117 . S
Co270 O295 2.020 . S
C271 O291 1.259 . S
C271 O294 1.258 . S
Co272 N281 2.057 . S
Co272 O288 2.117 . S
Co272 O289 2.020 . S
Co272 O291 2.021 . S
Co272 O296 2.062 . S
C273 N275 1.316 . S
C273 N276 1.347 . S
C273 H278 0.931 . S
C274 N275 1.375 . S
C274 C277 1.350 . S
C274 H279 0.930 . S
N275 Co270 2.057 . S
N275 C273 1.316 . S
N275 C274 1.375 . S
N276 C273 1.347 . S
N276 C277 1.373 . S
C277 C274 1.350 . S
C277 N276 1.373 . S
C277 H298 0.931 . S
H278 C273 0.931 . S
H279 C274 0.930 . S
C280 O287 1.259 . S
C280 O288 1.258 . S
N281 Co272 2.057 . S
N281 C282 1.316 . S
N281 C283 1.375 . S
C282 N281 1.316 . S
C282 N284 1.347 . S
C282 H293 0.931 . S
C283 N281 1.375 . S
C283 C285 1.350 . S
C283 H292 0.930 . S
N284 C282 1.347 . S
N284 C285 1.373 . S
C285 C283 1.350 . S
C285 N284 1.373 . S
C285 H299 0.931 . S
C286 O289 1.256 . S
C286 O290 1.255 . S
O287 Co270 2.021 . S
O287 C280 1.259 . S
O288 Co272 2.117 . S
O288 C280 1.258 . S
O289 Co272 2.020 . S
O289 C286 1.256 . S
O290 Co270 2.062 . S
O290 C286 1.255 . S
O291 C271 1.259 . S
O291 Co272 2.021 . S
H292 C283 0.930 . S
H293 C282 0.931 . S
O294 Co270 2.117 . S
O294 C271 1.258 . S
O295 Co270 2.020 . S
O295 C297 1.256 1_556 S
O296 Co272 2.062 . S
O296 C297 1.255 1_556 S
C297 O295 1.256 1_554 S
C297 O296 1.255 1_554 S
H298 C277 0.931 . S
H299 C285 0.931 . S
Co300 N305 2.057 . S
Co300 O317 2.021 . S
Co300 O320 2.062 . S
Co300 O324 2.117 . S
Co300 O325 2.020 . S
C301 O321 1.259 . S
C301 O324 1.258 . S
Co302 N311 2.057 1_655 S
Co302 O318 2.117 . S
Co302 O319 2.020 . S
Co302 O321 2.021 . S
Co302 O326 2.062 . S
C303 N305 1.316 . S
C303 N306 1.347 . S
C303 H308 0.931 . S
C304 N305 1.375 . S
C304 C307 1.350 . S
C304 H309 0.930 . S
N305 Co300 2.057 . S
N305 C303 1.316 . S
N305 C304 1.375 . S
N306 C303 1.347 . S
N306 C307 1.373 . S
C307 C304 1.350 . S
C307 N306 1.373 . S
C307 H328 0.931 . S
H308 C303 0.931 . S
H309 C304 0.930 . S
C310 O317 1.259 . S
C310 O318 1.258 . S
N311 Co302 2.057 1_455 S
N311 C312 1.316 . S
N311 C313 1.375 . S
C312 N311 1.316 . S
C312 N314 1.347 . S
C312 H323 0.931 . S
C313 N311 1.375 . S
C313 C315 1.350 . S
C313 H322 0.930 . S
N314 C312 1.347 . S
N314 C315 1.373 . S
C315 C313 1.350 . S
C315 N314 1.373 . S
C315 H329 0.931 . S
C316 O319 1.256 . S
C316 O320 1.255 . S
O317 Co300 2.021 . S
O317 C310 1.259 . S
O318 Co302 2.117 . S
O318 C310 1.258 . S
O319 Co302 2.020 . S
O319 C316 1.256 . S
O320 Co300 2.062 . S
O320 C316 1.255 . S
O321 C301 1.259 . S
O321 Co302 2.021 . S
H322 C313 0.930 . S
H323 C312 0.931 . S
O324 Co300 2.117 . S
O324 C301 1.258 . S
O325 Co300 2.020 . S
O325 C327 1.256 . S
O326 Co302 2.062 . S
O326 C327 1.255 . S
C327 O325 1.256 . S
C327 O326 1.255 . S
H328 C307 0.931 . S
H329 C315 0.931 . S
Co330 N335 2.057 . S
Co330 O347 2.021 . S
Co330 O350 2.062 . S
Co330 O354 2.117 . S
Co330 O355 2.020 . S
C331 O351 1.259 . S
C331 O354 1.258 . S
Co332 N341 2.057 . S
Co332 O348 2.117 . S
Co332 O349 2.020 . S
Co332 O351 2.021 . S
Co332 O356 2.062 . S
C333 N335 1.316 . S
C333 N336 1.347 . S
C333 H338 0.931 . S
C334 N335 1.375 . S
C334 C337 1.350 . S
C334 H339 0.930 . S
N335 Co330 2.057 . S
N335 C333 1.316 . S
N335 C334 1.375 . S
N336 C333 1.347 . S
N336 C337 1.373 . S
C337 C334 1.350 . S
C337 N336 1.373 . S
C337 H358 0.931 . S
H338 C333 0.931 . S
H339 C334 0.930 . S
C340 O347 1.259 . S
C340 O348 1.258 . S
N341 Co332 2.057 . S
N341 C342 1.316 . S
N341 C343 1.375 . S
C342 N341 1.316 . S
C342 N344 1.347 . S
C342 H353 0.931 . S
C343 N341 1.375 . S
C343 C345 1.350 . S
C343 H352 0.930 . S
N344 C342 1.347 . S
N344 C345 1.373 . S
C345 C343 1.350 . S
C345 N344 1.373 . S
C345 H359 0.931 . S
C346 O349 1.256 . S
C346 O350 1.255 . S
O347 Co330 2.021 . S
O347 C340 1.259 . S
O348 Co332 2.117 . S
O348 C340 1.258 . S
O349 Co332 2.020 . S
O349 C346 1.256 . S
O350 Co330 2.062 . S
O350 C346 1.255 . S
O351 C331 1.259 . S
O351 Co332 2.021 . S
H352 C343 0.930 . S
H353 C342 0.931 . S
O354 Co330 2.117 . S
O354 C331 1.258 . S
O355 Co330 2.020 . S
O355 C357 1.256 1_556 S
O356 Co332 2.062 . S
O356 C357 1.255 1_556 S
C357 O355 1.256 1_554 S
C357 O356 1.255 1_554 S
H358 C337 0.931 . S
H359 C345 0.931 . S
Co360 N365 2.057 . S
Co360 O377 2.021 . S
Co360 O380 2.062 . S
Co360 O384 2.117 . S
Co360 O385 2.020 . S
C361 O381 1.259 . S
C361 O384 1.258 . S
Co362 N371 2.057 . S
Co362 O378 2.117 . S
Co362 O379 2.020 . S
Co362 O381 2.021 . S
Co362 O386 2.062 . S
C363 N365 1.316 . S
C363 N366 1.347 . S
C363 H368 0.931 . S
C364 N365 1.375 . S
C364 C367 1.350 . S
C364 H369 0.930 . S
N365 Co360 2.057 . S
N365 C363 1.316 . S
N365 C364 1.375 . S
N366 C363 1.347 . S
N366 C367 1.373 . S
C367 C364 1.350 . S
C367 N366 1.373 . S
C367 H388 0.931 1_565 S
H368 C363 0.931 . S
H369 C364 0.930 . S
C370 O377 1.259 . S
C370 O378 1.258 . S
N371 Co362 2.057 . S
N371 C372 1.316 . S
N371 C373 1.375 . S
C372 N371 1.316 . S
C372 N374 1.347 . S
C372 H383 0.931 . S
C373 N371 1.375 . S
C373 C375 1.350 . S
C373 H382 0.930 . S
N374 C372 1.347 . S
N374 C375 1.373 . S
C375 C373 1.350 . S
C375 N374 1.373 . S
C375 H389 0.931 . S
C376 O379 1.256 1_556 S
C376 O380 1.255 1_556 S
O377 Co360 2.021 . S
O377 C370 1.259 . S
O378 Co362 2.117 . S
O378 C370 1.258 . S
O379 Co362 2.020 . S
O379 C376 1.256 1_554 S
O380 Co360 2.062 . S
O380 C376 1.255 1_554 S
O381 C361 1.259 . S
O381 Co362 2.021 . S
H382 C373 0.930 . S
H383 C372 0.931 . S
O384 Co360 2.117 . S
O384 C361 1.258 . S
O385 Co360 2.020 . S
O385 C387 1.256 . S
O386 Co362 2.062 . S
O386 C387 1.255 . S
C387 O385 1.256 . S
C387 O386 1.255 . S
H388 C367 0.931 1_545 S
H389 C375 0.931 . S
Co390 N395 2.057 . S
Co390 O407 2.021 . S
Co390 O410 2.062 . S
Co390 O414 2.117 . S
Co390 O415 2.020 1_554 S
C391 O411 1.259 . S
C391 O414 1.258 . S
Co392 N401 2.057 . S
Co392 O408 2.117 . S
Co392 O409 2.020 . S
Co392 O411 2.021 . S
Co392 O416 2.062 1_554 S
C393 N395 1.316 . S
C393 N396 1.347 . S
C393 H398 0.931 . S
C394 N395 1.375 . S
C394 C397 1.350 . S
C394 H399 0.930 . S
N395 Co390 2.057 . S
N395 C393 1.316 . S
N395 C394 1.375 . S
N396 C393 1.347 . S
N396 C397 1.373 . S
C397 C394 1.350 . S
C397 N396 1.373 . S
C397 H418 0.931 . S
H398 C393 0.931 . S
H399 C394 0.930 . S
C400 O407 1.259 . S
C400 O408 1.258 . S
N401 Co392 2.057 . S
N401 C402 1.316 . S
N401 C403 1.375 . S
C402 N401 1.316 . S
C402 N404 1.347 . S
C402 H413 0.931 . S
C403 N401 1.375 . S
C403 C405 1.350 . S
C403 H412 0.930 . S
N404 C402 1.347 . S
N404 C405 1.373 . S
C405 C403 1.350 . S
C405 N404 1.373 . S
C405 H419 0.931 . S
C406 O409 1.256 . S
C406 O410 1.255 . S
O407 Co390 2.021 . S
O407 C400 1.259 . S
O408 Co392 2.117 . S
O408 C400 1.258 . S
O409 Co392 2.020 . S
O409 C406 1.256 . S
O410 Co390 2.062 . S
O410 C406 1.255 . S
O411 C391 1.259 . S
O411 Co392 2.021 . S
H412 C403 0.930 . S
H413 C402 0.931 . S
O414 Co390 2.117 . S
O414 C391 1.258 . S
O415 Co390 2.020 1_556 S
O415 C417 1.256 . S
O416 Co392 2.062 1_556 S
O416 C417 1.255 . S
C417 O415 1.256 . S
C417 O416 1.255 . S
H418 C397 0.931 . S
H419 C405 0.931 . S
Co420 N425 2.057 . S
Co420 O437 2.021 . S
Co420 O440 2.062 . S
Co420 O444 2.117 . S
Co420 O445 2.020 . S
C421 O441 1.259 . S
C421 O444 1.258 . S
Co422 N431 2.057 . S
Co422 O438 2.117 . S
Co422 O439 2.020 . S
Co422 O441 2.021 . S
Co422 O446 2.062 . S
C423 N425 1.316 . S
C423 N426 1.347 . S
C423 H428 0.931 . S
C424 N425 1.375 . S
C424 C427 1.350 . S
C424 H429 0.930 . S
N425 Co420 2.057 . S
N425 C423 1.316 . S
N425 C424 1.375 . S
N426 C423 1.347 . S
N426 C427 1.373 . S
C427 C424 1.350 . S
C427 N426 1.373 . S
C427 H448 0.931 . S
H428 C423 0.931 . S
H429 C424 0.930 . S
C430 O437 1.259 . S
C430 O438 1.258 . S
N431 Co422 2.057 . S
N431 C432 1.316 . S
N431 C433 1.375 . S
C432 N431 1.316 . S
C432 N434 1.347 . S
C432 H443 0.931 . S
C433 N431 1.375 . S
C433 C435 1.350 . S
C433 H442 0.930 . S
N434 C432 1.347 . S
N434 C435 1.373 . S
C435 C433 1.350 . S
C435 N434 1.373 . S
C435 H449 0.931 . S
C436 O439 1.254 1_556 S
C436 O440 1.253 1_556 S
O437 Co420 2.021 . S
O437 C430 1.259 . S
O438 Co422 2.117 . S
O438 C430 1.258 . S
O439 Co422 2.020 . S
O439 C436 1.254 1_554 S
O440 Co420 2.062 . S
O440 C436 1.253 1_554 S
O441 C421 1.259 . S
O441 Co422 2.021 . S
H442 C433 0.930 . S
H443 C432 0.931 . S
O444 Co420 2.117 . S
O444 C421 1.258 . S
O445 Co420 2.020 . S
O445 C447 1.256 . S
O446 Co422 2.062 . S
O446 C447 1.255 . S
C447 O445 1.256 . S
C447 O446 1.255 . S
H448 C427 0.931 . S
H449 C435 0.931 . S
Co450 N455 2.057 . S
Co450 O467 2.021 . S
Co450 O470 2.057 1_554 S
Co450 O474 2.117 . S
Co450 O475 2.020 . S
C451 O471 1.259 . S
C451 O474 1.258 . S
Co452 N461 2.057 . S
Co452 O468 2.117 . S
Co452 O469 2.020 1_554 S
Co452 O471 2.021 . S
Co452 O476 2.062 . S
C453 N455 1.316 . S
C453 N456 1.347 . S
C453 H458 0.931 . S
C454 N455 1.375 . S
C454 C457 1.350 . S
C454 H459 0.930 . S
N455 Co450 2.057 . S
N455 C453 1.316 . S
N455 C454 1.375 . S
N456 C453 1.347 . S
N456 C457 1.373 . S
C457 C454 1.350 . S
C457 N456 1.373 . S
C457 H478 0.931 . S
H458 C453 0.931 . S
H459 C454 0.930 . S
C460 O467 1.259 . S
C460 O468 1.258 . S
N461 Co452 2.057 . S
N461 C462 1.316 . S
N461 C463 1.375 . S
C462 N461 1.316 . S
C462 N464 1.347 . S
C462 H473 0.931 . S
C463 N461 1.375 . S
C463 C465 1.350 . S
C463 H472 0.930 . S
N464 C462 1.347 . S
N464 C465 1.373 . S
C465 C463 1.350 . S
C465 N464 1.373 . S
C465 H479 0.931 . S
C466 O469 1.256 . S
C466 O470 1.257 . S
O467 Co450 2.021 . S
O467 C460 1.259 . S
O468 Co452 2.117 . S
O468 C460 1.258 . S
O469 Co452 2.020 1_556 S
O469 C466 1.256 . S
O470 Co450 2.057 1_556 S
O470 C466 1.257 . S
O471 C451 1.259 . S
O471 Co452 2.021 . S
H472 C463 0.930 . S
H473 C462 0.931 . S
O474 Co450 2.117 . S
O474 C451 1.258 . S
O475 Co450 2.020 . S
O475 C477 1.256 . S
O476 Co452 2.062 . S
O476 C477 1.255 . S
C477 O475 1.256 . S
C477 O476 1.255 . S
H478 C457 0.931 . S
H479 C465 0.931 . S
Co480 N485 2.057 . S
Co480 O497 2.021 . S
Co480 O500 2.062 . S
Co480 O504 2.117 . S
Co480 O505 2.020 . S
C481 O501 1.259 . S
C481 O504 1.258 . S
Co482 N491 2.057 . S
Co482 O498 2.117 . S
Co482 O499 2.020 . S
Co482 O501 2.021 . S
Co482 O506 2.062 . S
C483 N485 1.316 . S
C483 N486 1.347 . S
C483 H488 0.931 . S
C484 N485 1.375 . S
C484 C487 1.350 . S
C484 H489 0.930 . S
N485 Co480 2.057 . S
N485 C483 1.316 . S
N485 C484 1.375 . S
N486 C483 1.347 . S
N486 C487 1.373 . S
C487 C484 1.350 . S
C487 N486 1.373 . S
C487 H508 0.931 . S
H488 C483 0.931 . S
H489 C484 0.930 . S
C490 O497 1.259 . S
C490 O498 1.258 . S
N491 Co482 2.057 . S
N491 C492 1.316 . S
N491 C493 1.375 . S
C492 N491 1.316 . S
C492 N494 1.347 1_565 S
C492 H503 0.931 . S
C493 N491 1.375 . S
C493 C495 1.350 1_565 S
C493 H502 0.930 . S
N494 C492 1.347 1_545 S
N494 C495 1.373 . S
C495 C493 1.350 1_545 S
C495 N494 1.373 . S
C495 H509 0.931 . S
C496 O499 1.256 . S
C496 O500 1.255 . S
O497 Co480 2.021 . S
O497 C490 1.259 . S
O498 Co482 2.117 . S
O498 C490 1.258 . S
O499 Co482 2.020 . S
O499 C496 1.256 . S
O500 Co480 2.062 . S
O500 C496 1.255 . S
O501 C481 1.259 . S
O501 Co482 2.021 . S
H502 C493 0.930 . S
H503 C492 0.931 . S
O504 Co480 2.117 . S
O504 C481 1.258 . S
O505 Co480 2.020 . S
O505 C507 1.256 . S
O506 Co482 2.062 . S
O506 C507 1.255 . S
C507 O505 1.256 . S
C507 O506 1.255 . S
H508 C487 0.931 . S
H509 C495 0.931 . S
Co510 N515 2.057 . S
Co510 O527 2.021 . S
Co510 O530 2.062 . S
Co510 O534 2.117 . S
Co510 O535 2.020 . S
C511 O531 1.259 . S
C511 O534 1.258 . S
Co512 N521 2.057 . S
Co512 O528 2.117 . S
Co512 O529 2.020 . S
Co512 O531 2.021 . S
Co512 O536 2.062 . S
C513 N515 1.316 . S
C513 N516 1.347 . S
C513 H518 0.931 . S
C514 N515 1.375 . S
C514 C517 1.350 . S
C514 H519 0.930 . S
N515 Co510 2.057 . S
N515 C513 1.316 . S
N515 C514 1.375 . S
N516 C513 1.347 . S
N516 C517 1.373 . S
C517 C514 1.350 . S
C517 N516 1.373 . S
C517 H538 0.931 . S
H518 C513 0.931 . S
H519 C514 0.930 . S
C520 O527 1.259 . S
C520 O528 1.258 . S
N521 Co512 2.057 . S
N521 C522 1.316 . S
N521 C523 1.375 . S
C522 N521 1.316 . S
C522 N524 1.347 . S
C522 H533 0.931 . S
C523 N521 1.375 . S
C523 C525 1.350 . S
C523 H532 0.930 . S
N524 C522 1.347 . S
N524 C525 1.373 . S
C525 C523 1.350 . S
C525 N524 1.373 . S
C525 H539 0.931 . S
C526 O529 1.256 1_556 S
C526 O530 1.255 1_556 S
O527 Co510 2.021 . S
O527 C520 1.259 . S
O528 Co512 2.117 . S
O528 C520 1.258 . S
O529 Co512 2.020 . S
O529 C526 1.256 1_554 S
O530 Co510 2.062 . S
O530 C526 1.255 1_554 S
O531 C511 1.259 . S
O531 Co512 2.021 . S
H532 C523 0.930 . S
H533 C522 0.931 . S
O534 Co510 2.117 . S
O534 C511 1.258 . S
O535 Co510 2.020 . S
O535 C537 1.256 . S
O536 Co512 2.062 . S
O536 C537 1.255 . S
C537 O535 1.256 . S
C537 O536 1.255 . S
H538 C517 0.931 . S
H539 C525 0.931 . S
C540 C541 1.387 . S
C540 H544 0.950 . S
C540 C549 1.390 . S
C541 C540 1.387 . S
C541 C543 1.387 . S
H542 C549 0.950 . S
C543 C541 1.387 . S
C543 C545 1.390 . S
C543 H547 0.950 . S
H544 C540 0.950 . S
C545 C543 1.390 . S
C545 C546 1.387 . S
C545 H548 0.950 . S
C546 C545 1.387 . S
C546 C549 1.387 . S
H547 C543 0.950 . S
H548 C545 0.950 . S
C549 C540 1.390 . S
C549 H542 0.950 . S
C549 C546 1.387 . S
C550 C551 1.387 . S
C550 H554 0.950 . S
C550 C559 1.390 . S
C551 C550 1.387 . S
C551 C553 1.387 . S
H552 C559 0.950 . S
C553 C551 1.387 . S
C553 C555 1.390 . S
C553 H557 0.950 . S
H554 C550 0.950 . S
C555 C553 1.390 . S
C555 C556 1.387 . S
C555 H558 0.950 . S
C556 C555 1.387 . S
C556 C559 1.387 . S
H557 C553 0.950 . S
H558 C555 0.950 . S
C559 C550 1.390 . S
C559 H552 0.950 . S
C559 C556 1.387 . S
C560 C561 1.387 . S
C560 H564 0.950 . S
C560 C569 1.390 . S
C561 C560 1.387 . S
C561 C563 1.387 . S
H562 C569 0.950 . S
C563 C561 1.387 . S
C563 C565 1.390 . S
C563 H567 0.950 . S
H564 C560 0.950 . S
C565 C563 1.390 . S
C565 C566 1.387 . S
C565 H568 0.950 . S
C566 C565 1.387 . S
C566 C569 1.387 . S
H567 C563 0.950 . S
H568 C565 0.950 . S
C569 C560 1.390 . S
C569 H562 0.950 . S
C569 C566 1.387 . S
C570 C571 1.387 . S
C570 H574 0.950 . S
C570 C579 1.390 . S
C571 C570 1.387 . S
C571 C573 1.387 . S
H572 C579 0.950 . S
C573 C571 1.387 . S
C573 C575 1.390 . S
C573 H577 0.950 . S
H574 C570 0.950 . S
C575 C573 1.390 . S
C575 C576 1.387 . S
C575 H578 0.950 . S
C576 C575 1.387 . S
C576 C579 1.387 . S
H577 C573 0.950 . S
H578 C575 0.950 . S
C579 C570 1.390 . S
C579 H572 0.950 . S
C579 C576 1.387 . S
C580 C581 1.387 . S
C580 H584 0.950 . S
C580 C589 1.390 . S
C581 C580 1.387 . S
C581 C583 1.387 . S
H582 C589 0.950 . S
C583 C581 1.387 . S
C583 C585 1.390 . S
C583 H587 0.950 . S
H584 C580 0.950 . S
C585 C583 1.390 . S
C585 C586 1.387 . S
C585 H588 0.950 . S
C586 C585 1.387 . S
C586 C589 1.387 . S
H587 C583 0.950 . S
H588 C585 0.950 . S
C589 C580 1.390 . S
C589 H582 0.950 . S
C589 C586 1.387 . S
C590 C591 1.387 . S
C590 H594 0.950 . S
C590 C599 1.390 . S
C591 C590 1.387 . S
C591 C593 1.387 . S
H592 C599 0.950 . S
C593 C591 1.387 . S
C593 C595 1.390 . S
C593 H597 0.950 . S
H594 C590 0.950 . S
C595 C593 1.390 . S
C595 C596 1.387 . S
C595 H598 0.950 . S
C596 C595 1.387 . S
C596 C599 1.387 . S
H597 C593 0.950 . S
H598 C595 0.950 . S
C599 C590 1.390 . S
C599 H592 0.950 . S
C599 C596 1.387 . S
C600 C601 1.387 . S
C600 H604 0.950 . S
C600 C609 1.390 . S
C601 C600 1.387 . S
C601 C603 1.387 . S
H602 C609 0.950 . S
C603 C601 1.387 . S
C603 C605 1.390 . S
C603 H607 0.950 . S
H604 C600 0.950 . S
C605 C603 1.390 . S
C605 C606 1.387 . S
C605 H608 0.950 . S
C606 C605 1.387 . S
C606 C609 1.387 . S
H607 C603 0.950 . S
H608 C605 0.950 . S
C609 C600 1.390 . S
C609 H602 0.950 . S
C609 C606 1.387 . S
C610 C611 1.387 . S
C610 H614 0.950 . S
C610 C619 1.390 . S
C611 C610 1.387 . S
C611 C613 1.387 . S
H612 C619 0.950 . S
C613 C611 1.387 . S
C613 C615 1.390 . S
C613 H617 0.950 . S
H614 C610 0.950 . S
C615 C613 1.390 . S
C615 C616 1.387 . S
C615 H618 0.950 . S
C616 C615 1.387 . S
C616 C619 1.387 . S
H617 C613 0.950 . S
H618 C615 0.950 . S
C619 C610 1.390 . S
C619 H612 0.950 . S
C619 C616 1.387 . S
C620 C621 1.387 . S
C620 H624 0.950 . S
C620 C629 1.390 . S
C621 C620 1.387 . S
C621 C623 1.387 . S
H622 C629 0.950 . S
C623 C621 1.387 . S
C623 C625 1.390 . S
C623 H627 0.950 . S
H624 C620 0.950 . S
C625 C623 1.390 . S
C625 C626 1.387 . S
C625 H628 0.950 . S
C626 C625 1.387 . S
C626 C629 1.387 . S
H627 C623 0.950 . S
H628 C625 0.950 . S
C629 C620 1.390 . S
C629 H622 0.950 . S
C629 C626 1.387 . S
C630 C631 1.387 . S
C630 H634 0.950 . S
C630 C639 1.390 . S
C631 C630 1.387 . S
C631 C633 1.387 . S
H632 C639 0.950 . S
C633 C631 1.387 . S
C633 C635 1.390 . S
C633 H637 0.950 . S
H634 C630 0.950 . S
C635 C633 1.390 . S
C635 C636 1.387 . S
C635 H638 0.950 . S
C636 C635 1.387 . S
C636 C639 1.387 . S
H637 C633 0.950 . S
H638 C635 0.950 . S
C639 C630 1.390 . S
C639 H632 0.950 . S
C639 C636 1.387 . S
C640 C641 1.387 . S
C640 H644 0.950 . S
C640 C649 1.390 . S
C641 C640 1.387 . S
C641 C643 1.387 . S
H642 C649 0.950 . S
C643 C641 1.387 . S
C643 C645 1.390 . S
C643 H647 0.950 . S
H644 C640 0.950 . S
C645 C643 1.390 . S
C645 C646 1.387 . S
C645 H648 0.950 . S
C646 C645 1.387 . S
C646 C649 1.387 . S
H647 C643 0.950 . S
H648 C645 0.950 . S
C649 C640 1.390 . S
C649 H642 0.950 . S
C649 C646 1.387 . S
C650 C651 1.387 . S
C650 H654 0.950 . S
C650 C659 1.390 . S
C651 C650 1.387 . S
C651 C653 1.387 . S
H652 C659 0.950 . S
C653 C651 1.387 . S
C653 C655 1.390 . S
C653 H657 0.950 . S
H654 C650 0.950 . S
C655 C653 1.390 . S
C655 C656 1.387 . S
C655 H658 0.950 . S
C656 C655 1.387 . S
C656 C659 1.387 . S
H657 C653 0.950 . S
H658 C655 0.950 . S
C659 C650 1.390 . S
C659 H652 0.950 . S
C659 C656 1.387 . S
C660 C661 1.387 . S
C660 H664 0.950 . S
C660 C669 1.390 . S
C661 C660 1.387 . S
C661 C663 1.387 . S
H662 C669 0.950 . S
C663 C661 1.387 . S
C663 C665 1.390 1_556 S
C663 H667 0.950 . S
H664 C660 0.950 . S
C665 C663 1.390 1_554 S
C665 C666 1.387 . S
C665 H668 0.950 . S
C666 C665 1.387 . S
C666 C669 1.387 1_554 S
H667 C663 0.950 . S
H668 C665 0.950 . S
C669 C660 1.390 . S
C669 H662 0.950 . S
C669 C666 1.387 1_556 S
C670 C671 1.387 . S
C670 H674 0.950 . S
C670 C679 1.390 1_556 S
C671 C670 1.387 . S
C671 C673 1.387 . S
H672 C679 0.950 . S
C673 C671 1.387 . S
C673 C675 1.390 . S
C673 H677 0.950 . S
H674 C670 0.950 . S
C675 C673 1.390 . S
C675 C676 1.387 1_556 S
C675 H678 0.950 . S
C676 C675 1.387 1_554 S
C676 C679 1.387 . S
H677 C673 0.950 . S
H678 C675 0.950 . S
C679 C670 1.390 1_554 S
C679 H672 0.950 . S
C679 C676 1.387 . S
C680 C681 1.387 . S
C680 H684 0.950 . S
C680 C689 1.390 . S
C681 C680 1.387 . S
C681 C683 1.387 . S
H682 C689 0.950 1_565 S
C683 C681 1.387 . S
C683 C685 1.390 1_556 S
C683 H687 0.950 . S
H684 C680 0.950 . S
C685 C683 1.390 1_554 S
C685 C686 1.387 . S
C685 H688 0.950 . S
C686 C685 1.387 . S
C686 C689 1.387 1_554 S
H687 C683 0.950 . S
H688 C685 0.950 . S
C689 C680 1.390 . S
C689 H682 0.950 1_545 S
C689 C686 1.387 1_556 S
C690 C691 1.387 . S
C690 H694 0.950 . S
C690 C699 1.390 1_556 S
C691 C690 1.387 . S
C691 C693 1.387 1_556 S
H692 C699 0.950 . S
C693 C691 1.387 1_554 S
C693 C695 1.390 . S
C693 H697 0.950 . S
H694 C690 0.950 . S
C695 C693 1.390 . S
C695 C696 1.387 . S
C695 H698 0.950 . S
C696 C695 1.387 . S
C696 C699 1.387 . S
H697 C693 0.950 . S
H698 C695 0.950 . S
C699 C690 1.390 1_554 S
C699 H692 0.950 . S
C699 C696 1.387 . S
C700 C701 1.387 1_556 S
C700 H704 0.950 . S
C700 C709 1.390 . S
C701 C700 1.387 1_554 S
C701 C703 1.387 . S
H702 C709 0.950 . S
C703 C701 1.387 . S
C703 C705 1.390 . S
C703 H707 0.950 . S
H704 C700 0.950 . S
C705 C703 1.390 . S
C705 C706 1.387 1_554 S
C705 H708 0.950 . S
C706 C705 1.387 1_556 S
C706 C709 1.387 . S
H707 C703 0.950 . S
H708 C705 0.950 . S
C709 C700 1.390 . S
C709 H702 0.950 . S
C709 C706 1.387 . S
C710 C711 1.387 . S
C710 H714 0.950 . S
C710 C719 1.390 1_554 S
C711 C710 1.387 . S
C711 C713 1.387 . S
H712 C719 0.950 . S
C713 C711 1.387 . S
C713 C715 1.390 . S
C713 H717 0.950 . S
H714 C710 0.950 . S
C715 C713 1.390 . S
C715 C716 1.387 1_554 S
C715 H718 0.950 . S
C716 C715 1.387 1_556 S
C716 C719 1.387 . S
H717 C713 0.950 . S
H718 C715 0.950 . S
C719 C710 1.390 1_556 S
C719 H712 0.950 . S
C719 C716 1.387 . S
C720 C721 1.387 . S
C720 H724 0.950 . S
C720 C729 1.390 . S
C721 C720 1.387 . S
C721 C723 1.387 . S
H722 C729 0.950 . S
C723 C721 1.387 . S
C723 C725 1.390 . S
C723 H727 0.950 . S
H724 C720 0.950 . S
C725 C723 1.390 . S
C725 C726 1.387 . S
C725 H728 0.950 . S
C726 C725 1.387 . S
C726 C729 1.387 . S
H727 C723 0.950 . S
H728 C725 0.950 . S
C729 C720 1.390 . S
C729 H722 0.950 . S
C729 C726 1.387 . S
C730 C731 1.387 . S
C730 H734 0.950 . S
C730 C739 1.390 . S
C731 C730 1.387 . S
C731 C733 1.387 . S
H732 C739 0.950 . S
C733 C731 1.387 . S
C733 C735 1.390 . S
C733 H737 0.950 . S
H734 C730 0.950 . S
C735 C733 1.390 . S
C735 C736 1.387 . S
C735 H738 0.950 . S
C736 C735 1.387 . S
C736 C739 1.387 . S
H737 C733 0.950 . S
H738 C735 0.950 . S
C739 C730 1.390 . S
C739 H732 0.950 . S
C739 C736 1.387 . S
C740 C741 1.387 . S
C740 H744 0.950 . S
C740 C749 1.390 . S
C741 C740 1.387 . S
C741 C743 1.387 . S
H742 C749 0.950 . S
C743 C741 1.387 . S
C743 C745 1.390 . S
C743 H747 0.950 . S
H744 C740 0.950 . S
C745 C743 1.390 . S
C745 C746 1.387 . S
C745 H748 0.950 . S
C746 C745 1.387 . S
C746 C749 1.387 . S
H747 C743 0.950 . S
H748 C745 0.950 . S
C749 C740 1.390 . S
C749 H742 0.950 . S
C749 C746 1.387 . S
C750 C751 1.387 . S
C750 H754 0.950 . S
C750 C759 1.390 . S
C751 C750 1.387 . S
C751 C753 1.387 . S
H752 C759 0.950 . S
C753 C751 1.387 . S
C753 C755 1.390 . S
C753 H757 0.950 . S
H754 C750 0.950 . S
C755 C753 1.390 . S
C755 C756 1.387 . S
C755 H758 0.950 . S
C756 C755 1.387 . S
C756 C759 1.387 . S
H757 C753 0.950 . S
H758 C755 0.950 . S
C759 C750 1.390 . S
C759 H752 0.950 . S
C759 C756 1.387 . S
C760 C761 1.387 . S
C760 H764 0.950 . S
C760 C769 1.390 . S
C761 C760 1.387 . S
C761 C763 1.387 . S
H762 C769 0.950 . S
C763 C761 1.387 . S
C763 C765 1.390 . S
C763 H767 0.950 . S
H764 C760 0.950 . S
C765 C763 1.390 . S
C765 C766 1.387 . S
C765 H768 0.950 . S
C766 C765 1.387 . S
C766 C769 1.387 . S
H767 C763 0.950 . S
H768 C765 0.950 . S
C769 C760 1.390 . S
C769 H762 0.950 . S
C769 C766 1.387 . S
C770 C771 1.387 . S
C770 H774 0.950 . S
C770 C779 1.390 . S
C771 C770 1.387 . S
C771 C773 1.387 . S
H772 C779 0.950 . S
C773 C771 1.387 . S
C773 C775 1.390 . S
C773 H777 0.950 . S
H774 C770 0.950 . S
C775 C773 1.390 . S
C775 C776 1.387 . S
C775 H778 0.950 . S
C776 C775 1.387 . S
C776 C779 1.387 . S
H777 C773 0.950 . S
H778 C775 0.950 . S
C779 C770 1.390 . S
C779 H772 0.950 . S
C779 C776 1.387 . S
C780 C781 1.387 . S
C780 H784 0.950 . S
C780 C789 1.390 . S
C781 C780 1.387 . S
C781 C783 1.387 . S
H782 C789 0.950 . S
C783 C781 1.387 . S
C783 C785 1.390 . S
C783 H787 0.950 . S
H784 C780 0.950 . S
C785 C783 1.390 . S
C785 C786 1.387 . S
C785 H788 0.950 . S
C786 C785 1.387 . S
C786 C789 1.387 . S
H787 C783 0.950 . S
H788 C785 0.950 . S
C789 C780 1.390 . S
C789 H782 0.950 . S
C789 C786 1.387 . S
C790 C791 1.387 . S
C790 H794 0.950 . S
C790 C799 1.390 . S
C791 C790 1.387 . S
C791 C793 1.387 . S
H792 C799 0.950 . S
C793 C791 1.387 . S
C793 C795 1.390 . S
C793 H797 0.950 . S
H794 C790 0.950 . S
C795 C793 1.390 . S
C795 C796 1.387 . S
C795 H798 0.950 . S
C796 C795 1.387 . S
C796 C799 1.387 . S
H797 C793 0.950 . S
H798 C795 0.950 . S
C799 C790 1.390 . S
C799 H792 0.950 . S
C799 C796 1.387 . S
C800 C801 1.387 . S
C800 H804 0.950 . S
C800 C809 1.390 . S
C801 C800 1.387 . S
C801 C803 1.387 . S
H802 C809 0.950 . S
C803 C801 1.387 . S
C803 C805 1.390 . S
C803 H807 0.950 . S
H804 C800 0.950 . S
C805 C803 1.390 . S
C805 C806 1.387 . S
C805 H808 0.950 . S
C806 C805 1.387 . S
C806 C809 1.387 . S
H807 C803 0.950 . S
H808 C805 0.950 . S
C809 C800 1.390 . S
C809 H802 0.950 . S
C809 C806 1.387 . S
C810 C811 1.387 . S
C810 H814 0.950 . S
C810 C819 1.390 . S
C811 C810 1.387 . S
C811 C813 1.387 . S
H812 C819 0.950 . S
C813 C811 1.387 . S
C813 C815 1.390 . S
C813 H817 0.950 . S
H814 C810 0.950 . S
C815 C813 1.390 . S
C815 C816 1.387 . S
C815 H818 0.950 . S
C816 C815 1.387 . S
C816 C819 1.387 . S
H817 C813 0.950 . S
H818 C815 0.950 . S
C819 C810 1.390 . S
C819 H812 0.950 . S
C819 C816 1.387 . S
C820 C821 1.387 . S
C820 H824 0.950 . S
C820 C829 1.390 . S
C821 C820 1.387 . S
C821 C823 1.387 . S
H822 C829 0.950 . S
C823 C821 1.387 . S
C823 C825 1.390 . S
C823 H827 0.950 . S
H824 C820 0.950 . S
C825 C823 1.390 . S
C825 C826 1.387 . S
C825 H828 0.950 . S
C826 C825 1.387 . S
C826 C829 1.387 . S
H827 C823 0.950 . S
H828 C825 0.950 . S
C829 C820 1.390 . S
C829 H822 0.950 . S
C829 C826 1.387 . S
C830 C831 1.387 . S
C830 H834 0.950 . S
C830 C839 1.390 . S
C831 C830 1.387 . S
C831 C833 1.387 . S
H832 C839 0.950 . S
C833 C831 1.387 . S
C833 C835 1.390 . S
C833 H837 0.950 . S
H834 C830 0.950 . S
C835 C833 1.390 . S
C835 C836 1.387 . S
C835 H838 0.950 . S
C836 C835 1.387 . S
C836 C839 1.387 . S
H837 C833 0.950 . S
H838 C835 0.950 . S
C839 C830 1.390 . S
C839 H832 0.950 . S
C839 C836 1.387 . S
C840 C841 1.387 . S
C840 H844 0.950 . S
C840 C849 1.390 . S
C841 C840 1.387 . S
C841 C843 1.387 . S
H842 C849 0.950 . S
C843 C841 1.387 . S
C843 C845 1.390 . S
C843 H847 0.950 . S
H844 C840 0.950 . S
C845 C843 1.390 . S
C845 C846 1.387 . S
C845 H848 0.950 . S
C846 C845 1.387 . S
C846 C849 1.387 . S
H847 C843 0.950 . S
H848 C845 0.950 . S
C849 C840 1.390 . S
C849 H842 0.950 . S
C849 C846 1.387 . S
C850 C851 1.387 . S
C850 H854 0.950 . S
C850 C859 1.390 . S
C851 C850 1.387 . S
C851 C853 1.387 1_554 S
H852 C859 0.950 . S
C853 C851 1.387 1_556 S
C853 C855 1.390 . S
C853 H857 0.950 . S
H854 C850 0.950 . S
C855 C853 1.390 . S
C855 C856 1.387 1_556 S
C855 H858 0.950 . S
C856 C855 1.387 1_554 S
C856 C859 1.387 . S
H857 C853 0.950 . S
H858 C855 0.950 . S
C859 C850 1.390 . S
C859 H852 0.950 . S
C859 C856 1.387 . S
C860 C861 1.387 . S
C860 H864 0.950 1_554 S
C860 C869 1.390 . S
C861 C860 1.387 . S
C861 C863 1.387 . S
H862 C869 0.950 1_556 S
C863 C861 1.387 . S
C863 C865 1.390 . S
C863 H867 0.950 . S
H864 C860 0.950 1_556 S
C865 C863 1.390 . S
C865 C866 1.387 . S
C865 H868 0.950 . S
C866 C865 1.387 . S
C866 C869 1.387 . S
H867 C863 0.950 . S
H868 C865 0.950 . S
C869 C860 1.390 . S
C869 H862 0.950 1_554 S
C869 C866 1.387 . S
C870 C871 1.387 . S
C870 H874 0.950 . S
C870 C879 1.390 . S
C871 C870 1.387 . S
C871 C873 1.387 . S
H872 C879 0.950 . S
C873 C871 1.387 . S
C873 C875 1.390 . S
C873 H877 0.950 . S
H874 C870 0.950 . S
C875 C873 1.390 . S
C875 C876 1.387 . S
C875 H878 0.950 . S
C876 C875 1.387 . S
C876 C879 1.387 . S
H877 C873 0.950 . S
H878 C875 0.950 . S
C879 C870 1.390 . S
C879 H872 0.950 . S
C879 C876 1.387 . S
C880 C881 1.387 . S
C880 H884 0.950 . S
C880 C889 1.390 . S
C881 C880 1.387 . S
C881 C883 1.387 . S
H882 C889 0.950 . S
C883 C881 1.387 . S
C883 C885 1.390 . S
C883 H887 0.950 . S
H884 C880 0.950 . S
C885 C883 1.390 . S
C885 C886 1.387 . S
C885 H888 0.950 . S
C886 C885 1.387 . S
C886 C889 1.387 . S
H887 C883 0.950 . S
H888 C885 0.950 . S
C889 C880 1.390 . S
C889 H882 0.950 . S
C889 C886 1.387 . S
C890 C891 1.387 . S
C890 H894 0.950 . S
C890 C899 1.390 . S
C891 C890 1.387 . S
C891 C893 1.387 . S
H892 C899 0.950 . S
C893 C891 1.387 . S
C893 C895 1.390 . S
C893 H897 0.950 . S
H894 C890 0.950 . S
C895 C893 1.390 . S
C895 C896 1.387 . S
C895 H898 0.950 . S
C896 C895 1.387 . S
C896 C899 1.387 . S
H897 C893 0.950 . S
H898 C895 0.950 . S
C899 C890 1.390 . S
C899 H892 0.950 . S
C899 C896 1.387 . S
C900 C901 1.387 . S
C900 H904 0.950 . S
C900 C909 1.390 1_554 S
C901 C900 1.387 . S
C901 C903 1.387 . S
H902 C909 0.950 . S
C903 C901 1.387 . S
C903 C905 1.390 1_554 S
C903 H907 0.950 . S
H904 C900 0.950 . S
C905 C903 1.390 1_556 S
C905 C906 1.387 . S
C905 H908 0.950 . S
C906 C905 1.387 . S
C906 C909 1.387 . S
H907 C903 0.950 . S
H908 C905 0.950 . S
C909 C900 1.390 1_556 S
C909 H902 0.950 . S
C909 C906 1.387 . S
C910 C911 1.387 . S
C910 H914 0.950 . S
C910 C919 1.390 1_554 S
C911 C910 1.387 . S
C911 C913 1.387 . S
H912 C919 0.950 . S
C913 C911 1.387 . S
C913 C915 1.390 1_554 S
C913 H917 0.950 . S
H914 C910 0.950 . S
C915 C913 1.390 1_556 S
C915 C916 1.387 . S
C915 H918 0.950 . S
C916 C915 1.387 . S
C916 C919 1.387 . S
H917 C913 0.950 . S
H918 C915 0.950 . S
C919 C910 1.390 1_556 S
C919 H912 0.950 . S
C919 C916 1.387 . S
C920 C921 1.387 . S
C920 H924 0.950 . S
C920 C929 1.390 1_554 S
C921 C920 1.387 . S
C921 C923 1.387 1_545 S
H922 C929 0.950 . S
C923 C921 1.387 1_565 S
C923 C925 1.390 1_554 S
C923 H927 0.950 . S
H924 C920 0.950 . S
C925 C923 1.390 1_556 S
C925 C926 1.387 1_565 S
C925 H928 0.950 . S
C926 C925 1.387 1_545 S
C926 C929 1.387 . S
H927 C923 0.950 . S
H928 C925 0.950 . S
C929 C920 1.390 1_556 S
C929 H922 0.950 . S
C929 C926 1.387 . S
C930 C931 1.387 . S
C930 H934 0.950 . S
C930 C939 1.390 1_556 S
C931 C930 1.387 . S
C931 C933 1.387 . S
H932 C939 0.950 . S
C933 C931 1.387 . S
C933 C935 1.390 1_556 S
C933 H937 0.950 . S
H934 C930 0.950 . S
C935 C933 1.390 1_554 S
C935 C936 1.387 . S
C935 H938 0.950 . S
C936 C935 1.387 . S
C936 C939 1.387 . S
H937 C933 0.950 . S
H938 C935 0.950 . S
C939 C930 1.390 1_554 S
C939 H932 0.950 . S
C939 C936 1.387 . S
C940 C941 1.387 . S
C940 H944 0.950 . S
C940 C949 1.390 . S
C941 C940 1.387 . S
C941 C943 1.387 . S
H942 C949 0.950 1_556 S
C943 C941 1.387 . S
C943 C945 1.390 . S
C943 H947 0.950 . S
H944 C940 0.950 . S
C945 C943 1.390 . S
C945 C946 1.387 1_554 S
C945 H948 0.950 1_554 S
C946 C945 1.387 1_556 S
C946 C949 1.387 1_556 S
H947 C943 0.950 . S
H948 C945 0.950 1_556 S
C949 C940 1.390 . S
C949 H942 0.950 1_554 S
C949 C946 1.387 1_554 S
C950 C951 1.387 . S
C950 H954 0.950 . S
C950 C959 1.390 1_554 S
C951 C950 1.387 . S
C951 C953 1.387 . S
H952 C959 0.950 . S
C953 C951 1.387 . S
C953 C955 1.390 1_554 S
C953 H957 0.950 . S
H954 C950 0.950 . S
C955 C953 1.390 1_556 S
C955 C956 1.387 . S
C955 H958 0.950 . S
C956 C955 1.387 . S
C956 C959 1.387 . S
H957 C953 0.950 . S
H958 C955 0.950 . S
C959 C950 1.390 1_556 S
C959 H952 0.950 . S
C959 C956 1.387 . S
C960 C961 1.387 . S
C960 H964 0.950 . S
C960 C969 1.390 . S
C961 C960 1.387 . S
C961 C963 1.387 . S
H962 C969 0.950 . S
C963 C961 1.387 . S
C963 C965 1.390 . S
C963 H967 0.950 . S
H964 C960 0.950 . S
C965 C963 1.390 . S
C965 C966 1.387 . S
C965 H968 0.950 . S
C966 C965 1.387 . S
C966 C969 1.387 . S
H967 C963 0.950 . S
H968 C965 0.950 . S
C969 C960 1.390 . S
C969 H962 0.950 . S
C969 C966 1.387 . S
C970 C971 1.387 . S
C970 H974 0.950 . S
C970 C979 1.390 . S
C971 C970 1.387 . S
C971 C973 1.387 . S
H972 C979 0.950 . S
C973 C971 1.387 . S
C973 C975 1.390 . S
C973 H977 0.950 . S
H974 C970 0.950 . S
C975 C973 1.390 . S
C975 C976 1.387 . S
C975 H978 0.950 . S
C976 C975 1.387 . S
C976 C979 1.387 . S
H977 C973 0.950 . S
H978 C975 0.950 . S
C979 C970 1.390 . S
C979 H972 0.950 . S
C979 C976 1.387 . S
C980 C981 1.387 . S
C980 H984 0.950 1_655 S
C980 C989 1.390 . S
C981 C980 1.387 . S
C981 C983 1.387 . S
H982 C989 0.950 1_455 S
C983 C981 1.387 . S
C983 C985 1.390 . S
C983 H987 0.950 . S
H984 C980 0.950 1_455 S
C985 C983 1.390 . S
C985 C986 1.387 . S
C985 H988 0.950 . S
C986 C985 1.387 . S
C986 C989 1.387 . S
H987 C983 0.950 . S
H988 C985 0.950 . S
C989 C980 1.390 . S
C989 H982 0.950 1_655 S
C989 C986 1.387 . S
C990 C991 1.387 . S
C990 H994 0.950 . S
C990 C999 1.390 . S
C991 C990 1.387 . S
C991 C993 1.387 . S
H992 C999 0.950 . S
C993 C991 1.387 . S
C993 C995 1.390 . S
C993 H997 0.950 . S
H994 C990 0.950 . S
C995 C993 1.390 . S
C995 C996 1.387 . S
C995 H998 0.950 . S
C996 C995 1.387 . S
C996 C999 1.387 . S
H997 C993 0.950 . S
H998 C995 0.950 . S
C999 C990 1.390 . S
C999 H992 0.950 . S
C999 C996 1.387 . S
C1000 C1001 1.387 . S
C1000 H1004 0.950 . S
C1000 C1009 1.390 . S
C1001 C1000 1.387 . S
C1001 C1003 1.387 . S
H1002 C1009 0.950 . S
C1003 C1001 1.387 . S
C1003 C1005 1.390 . S
C1003 H1007 0.950 . S
H1004 C1000 0.950 . S
C1005 C1003 1.390 . S
C1005 C1006 1.387 . S
C1005 H1008 0.950 . S
C1006 C1005 1.387 . S
C1006 C1009 1.387 . S
H1007 C1003 0.950 . S
H1008 C1005 0.950 . S
C1009 C1000 1.390 . S
C1009 H1002 0.950 . S
C1009 C1006 1.387 . S
C1010 C1011 1.387 . S
C1010 H1014 0.950 . S
C1010 C1019 1.390 . S
C1011 C1010 1.387 . S
C1011 C1013 1.387 . S
H1012 C1019 0.950 . S
C1013 C1011 1.387 . S
C1013 C1015 1.390 . S
C1013 H1017 0.950 . S
H1014 C1010 0.950 . S
C1015 C1013 1.390 . S
C1015 C1016 1.387 . S
C1015 H1018 0.950 . S
C1016 C1015 1.387 . S
C1016 C1019 1.387 . S
H1017 C1013 0.950 . S
H1018 C1015 0.950 . S
C1019 C1010 1.390 . S
C1019 H1012 0.950 . S
C1019 C1016 1.387 . S
C1020 C1021 1.387 . S
C1020 H1024 0.950 . S
C1020 C1029 1.390 . S
C1021 C1020 1.387 . S
C1021 C1023 1.387 . S
H1022 C1029 0.950 . S
C1023 C1021 1.387 . S
C1023 C1025 1.390 . S
C1023 H1027 0.950 . S
H1024 C1020 0.950 . S
C1025 C1023 1.390 . S
C1025 C1026 1.387 . S
C1025 H1028 0.950 . S
C1026 C1025 1.387 . S
C1026 C1029 1.387 . S
H1027 C1023 0.950 . S
H1028 C1025 0.950 . S
C1029 C1020 1.390 . S
C1029 H1022 0.950 . S
C1029 C1026 1.387 . S
C1030 C1031 1.387 . S
C1030 H1034 0.950 . S
C1030 C1039 1.390 . S
C1031 C1030 1.387 . S
C1031 C1033 1.387 . S
H1032 C1039 0.950 . S
C1033 C1031 1.387 . S
C1033 C1035 1.390 . S
C1033 H1037 0.950 . S
H1034 C1030 0.950 . S
C1035 C1033 1.390 . S
C1035 C1036 1.387 . S
C1035 H1038 0.950 . S
C1036 C1035 1.387 . S
C1036 C1039 1.387 . S
H1037 C1033 0.950 . S
H1038 C1035 0.950 . S
C1039 C1030 1.390 . S
C1039 H1032 0.950 . S
C1039 C1036 1.387 . S
C1040 C1041 1.387 . S
C1040 H1044 0.950 . S
C1040 C1049 1.390 . S
C1041 C1040 1.387 . S
C1041 C1043 1.387 . S
H1042 C1049 0.950 . S
C1043 C1041 1.387 . S
C1043 C1045 1.390 . S
C1043 H1047 0.950 . S
H1044 C1040 0.950 . S
C1045 C1043 1.390 . S
C1045 C1046 1.387 . S
C1045 H1048 0.950 . S
C1046 C1045 1.387 . S
C1046 C1049 1.387 . S
H1047 C1043 0.950 . S
H1048 C1045 0.950 . S
C1049 C1040 1.390 . S
C1049 H1042 0.950 . S
C1049 C1046 1.387 . S
C1050 C1051 1.387 . S
C1050 H1054 0.950 . S
C1050 C1059 1.390 . S
C1051 C1050 1.387 . S
C1051 C1053 1.387 . S
H1052 C1059 0.950 . S
C1053 C1051 1.387 . S
C1053 C1055 1.390 . S
C1053 H1057 0.950 . S
H1054 C1050 0.950 . S
C1055 C1053 1.390 . S
C1055 C1056 1.387 . S
C1055 H1058 0.950 . S
C1056 C1055 1.387 . S
C1056 C1059 1.387 . S
H1057 C1053 0.950 . S
H1058 C1055 0.950 . S
C1059 C1050 1.390 . S
C1059 H1052 0.950 . S
C1059 C1056 1.387 . S
C1060 C1061 1.387 . S
C1060 H1064 0.950 . S
C1060 C1069 1.390 . S
C1061 C1060 1.387 . S
C1061 C1063 1.387 . S
H1062 C1069 0.950 . S
C1063 C1061 1.387 . S
C1063 C1065 1.390 . S
C1063 H1067 0.950 . S
H1064 C1060 0.950 . S
C1065 C1063 1.390 . S
C1065 C1066 1.387 . S
C1065 H1068 0.950 . S
C1066 C1065 1.387 . S
C1066 C1069 1.387 . S
H1067 C1063 0.950 . S
H1068 C1065 0.950 . S
C1069 C1060 1.390 . S
C1069 H1062 0.950 . S
C1069 C1066 1.387 . S
C1070 C1071 1.387 . S
C1070 H1074 0.950 . S
C1070 C1079 1.390 . S
C1071 C1070 1.387 . S
C1071 C1073 1.387 . S
H1072 C1079 0.950 . S
C1073 C1071 1.387 . S
C1073 C1075 1.390 . S
C1073 H1077 0.950 . S
H1074 C1070 0.950 . S
C1075 C1073 1.390 . S
C1075 C1076 1.387 . S
C1075 H1078 0.950 . S
C1076 C1075 1.387 . S
C1076 C1079 1.387 . S
H1077 C1073 0.950 . S
H1078 C1075 0.950 . S
C1079 C1070 1.390 . S
C1079 H1072 0.950 . S
C1079 C1076 1.387 . S
C541 N396 1.465 . S
C546 N6 1.577 . S
C551 C31 2.038 . S
C556 C421 2.027 . S
C561 N66 1.612 . S
C566 C361 1.661 . S
C571 C61 2.230 . S
C576 C211 2.219 . S
C581 C241 2.768 . S
C586 C1 2.735 1_655 S
C591 N36 2.015 . S
C596 C181 2.152 . S
C601 N104 2.129 . S
C606 C310 2.371 . S
C611 C130 2.321 . S
C616 C340 2.335 . S
C621 C280 1.760 . S
C626 N164 1.689 . S
C631 C490 2.059 . S
C636 C160 2.060 . S
C641 C100 1.660 . S
C646 N524 1.552 . S
C651 N464 1.477 . S
C656 N134 1.507 . S
C661 N246 1.381 . S
C666 C391 1.455 . S
C671 N186 1.232 . S
C676 N426 1.437 . S
C681 N216 1.505 . S
C686 N366 1.431 1_545 S
C691 N284 1.464 . S
C696 N494 1.570 . S
C701 C520 1.659 . S
C706 N314 1.467 . S
C711 C460 1.731 . S
C716 N344 1.693 . S
C721 C10 1.696 . S
C726 C121 1.723 . S
C731 N156 2.085 . S
C736 N44 2.104 . S
C741 N96 2.095 . S
C746 C70 2.133 . S
C751 N126 1.757 . S
C756 N74 1.760 . S
C761 C151 1.957 . S
C766 N14 1.927 . S
C771 C91 2.243 . S
C776 C40 2.255 . S
C781 N306 1.394 . S
C786 N194 1.395 . S
C791 N336 1.588 . S
C796 N224 1.599 . S
C801 N276 1.558 . S
C806 N254 1.479 . S
C811 C301 2.175 . S
C816 C250 2.183 . S
C821 C331 1.849 . S
C826 C190 1.806 . S
C831 C271 1.339 . S
C836 C220 1.363 . S
C841 C481 1.050 . S
C846 C370 1.025 . S
C851 N516 1.311 . S
C856 N404 1.304 . S
C861 C430 1.273 . S
C866 N456 1.226 . S
C871 N434 1.324 . S
C876 N486 1.349 . S
C881 N374 1.205 . S
C886 C511 1.250 . S
C891 C451 0.570 . S
C896 C400 0.536 . S
C901 C16 1.367 . S
C906 C27 1.367 . S
C911 C57 1.362 . S
C916 C46 1.362 . S
C921 C76 1.362 . S
C926 C87 1.362 . S
C931 C117 1.371 . S
C936 C106 1.371 . S
C941 C147 1.363 . S
C946 C136 1.363 . S
C951 C166 1.363 . S
C956 C177 1.363 . S
C961 C196 1.384 1_554 S
C966 C207 1.384 . S
C971 C237 1.365 . S
C976 C226 1.365 . S
C981 C256 1.364 1_554 S
C986 C267 1.364 . S
C991 C297 1.381 . S
C996 C286 1.381 . S
C1001 C327 1.368 1_554 S
C1006 C316 1.368 . S
C1011 C357 1.364 . S
C1016 C346 1.364 . S
C1021 C387 1.378 . S
C1026 C376 1.378 . S
C1031 C417 1.372 . S
C1036 C406 1.372 . S
C1041 C436 1.367 . S
C1046 C447 1.363 . S
C1051 C466 1.382 . S
C1056 C477 1.382 . S
C1061 C507 1.367 1_556 S
C1066 C496 1.367 . S
C1071 C537 1.368 . S
C1076 C526 1.368 . S
