# Generated by pormake.
# Topology umm, (4)-cn, num edge types: 1
# Building blocks:
#     Node 0, Type 0, BuildingBlock: ICAMEG_clean_sbu_1, # of connection points: 4
#     Node 1, Type 0, BuildingBlock: ICAMEG_clean_sbu_1, # of connection points: 4
#     Node 2, Type 0, BuildingBlock: ICAMEG_clean_sbu_1, # of connection points: 4
#     Node 3, Type 0, BuildingBlock: ICAMEG_clean_sbu_1, # of connection points: 4
#     Node 4, Type 0, BuildingBlock: ICAMEG_clean_sbu_1, # of connection points: 4
#     Node 5, Type 0, BuildingBlock: ICAMEG_clean_sbu_1, # of connection points: 4
#     Node 6, Type 0, BuildingBlock: ICAMEG_clean_sbu_1, # of connection points: 4
#     Node 7, Type 0, BuildingBlock: ICAMEG_clean_sbu_1, # of connection points: 4
#     Node 8, Type 0, BuildingBlock: ICAMEG_clean_sbu_1, # of connection points: 4
#     Node 9, Type 0, BuildingBlock: ICAMEG_clean_sbu_1, # of connection points: 4
#     Node 10, Type 0, BuildingBlock: ICAMEG_clean_sbu_1, # of connection points: 4
#     Node 11, Type 0, BuildingBlock: ICAMEG_clean_sbu_1, # of connection points: 4
#     Edge 12, Type (0, 0), BuildingBlock: TEMPAE_clean_linker_10, # of connection points: 2
#     Edge 13, Type (0, 0), BuildingBlock: TEMPAE_clean_linker_10, # of connection points: 2
#     Edge 14, Type (0, 0), BuildingBlock: TEMPAE_clean_linker_10, # of connection points: 2
#     Edge 15, Type (0, 0), BuildingBlock: TEMPAE_clean_linker_10, # of connection points: 2
#     Edge 16, Type (0, 0), BuildingBlock: TEMPAE_clean_linker_10, # of connection points: 2
#     Edge 17, Type (0, 0), BuildingBlock: TEMPAE_clean_linker_10, # of connection points: 2
#     Edge 18, Type (0, 0), BuildingBlock: TEMPAE_clean_linker_10, # of connection points: 2
#     Edge 19, Type (0, 0), BuildingBlock: TEMPAE_clean_linker_10, # of connection points: 2
#     Edge 20, Type (0, 0), BuildingBlock: TEMPAE_clean_linker_10, # of connection points: 2
#     Edge 21, Type (0, 0), BuildingBlock: TEMPAE_clean_linker_10, # of connection points: 2
#     Edge 22, Type (0, 0), BuildingBlock: TEMPAE_clean_linker_10, # of connection points: 2
#     Edge 23, Type (0, 0), BuildingBlock: TEMPAE_clean_linker_10, # of connection points: 2
#     Edge 24, Type (0, 0), BuildingBlock: TEMPAE_clean_linker_10, # of connection points: 2
#     Edge 25, Type (0, 0), BuildingBlock: TEMPAE_clean_linker_10, # of connection points: 2
#     Edge 26, Type (0, 0), BuildingBlock: TEMPAE_clean_linker_10, # of connection points: 2
#     Edge 27, Type (0, 0), BuildingBlock: TEMPAE_clean_linker_10, # of connection points: 2
#     Edge 28, Type (0, 0), BuildingBlock: TEMPAE_clean_linker_10, # of connection points: 2
#     Edge 29, Type (0, 0), BuildingBlock: TEMPAE_clean_linker_10, # of connection points: 2
#     Edge 30, Type (0, 0), BuildingBlock: TEMPAE_clean_linker_10, # of connection points: 2
#     Edge 31, Type (0, 0), BuildingBlock: TEMPAE_clean_linker_10, # of connection points: 2
#     Edge 32, Type (0, 0), BuildingBlock: TEMPAE_clean_linker_10, # of connection points: 2
#     Edge 33, Type (0, 0), BuildingBlock: TEMPAE_clean_linker_10, # of connection points: 2
#     Edge 34, Type (0, 0), BuildingBlock: TEMPAE_clean_linker_10, # of connection points: 2
#     Edge 35, Type (0, 0), BuildingBlock: TEMPAE_clean_linker_10, # of connection points: 2
# Relax obj value: 0.064
# Max RMSD: 0.165
# Mean RMSD: 0.165
data_MOF--net-umm--node1-ICAMEG_clean_sbu_1--edge1-TEMPAE_clean_linker_10
_symmetry_space_group_name_H-M    P1
_symmetry_Int_Tables_number       1
_symmetry_cell_setting            triclinic
loop_
_symmetry_equiv_pos_as_xyz
'x, y, z'
_cell_length_a     61.158917
_cell_length_b     61.140464
_cell_length_c     30.56422
_cell_angle_alpha  89.971463
_cell_angle_beta   90.008237
_cell_angle_gamma 120.00158
loop_
_atom_site_label
_atom_site_type_symbol
_atom_site_fract_x
_atom_site_fract_y
_atom_site_fract_z
_atom_type_partial_charge
Co0 Co 0.37505 0.50035 0.03632 0.0
Co1 Co 0.41582 0.5617 0.06947 0.0
O2 O 0.38367 0.53019 0.07157 0.0
C3 C 0.33833 0.51532 0.00982 0.0
O4 O 0.35785 0.53793 0.00384 0.0
C5 C 0.41213 0.54528 0.16076 0.0
O6 O 0.40473 0.52254 0.1456 0.0
O7 O 0.43491 0.54322 0.07153 0.0
O8 O 0.40848 0.50339 0.04903 0.0
H9 H 0.50395 0.62019 0.01588 0.0
H10 H 0.34007 0.49779 0.10606 0.0
O11 O 0.34147 0.4973 0.02302 0.0
H12 H 0.36388 0.4344 0.14666 0.0
H13 H 0.31595 0.41247 0.98148 0.0
H14 H 0.40186 0.48613 0.97148 0.0
H15 H 0.38054 0.45959 0.07923 0.0
H16 H 0.32811 0.45055 0.02593 0.0
O17 O 0.41657 0.56323 0.13461 0.0
H18 H 0.46295 0.58055 0.018 0.0
H19 H 0.43743 0.61018 0.11875 0.0
H20 H 0.3906 0.44839 0.92671 0.0
H21 H 0.32278 0.47285 0.17356 0.0
H22 H 0.34735 0.4112 0.93157 0.0
H23 H 0.33475 0.44095 0.1943 0.0
O24 O 0.38961 0.52094 0.98239 0.0
H25 H 0.34767 0.57971 0.11635 0.0
H26 H 0.41883 0.60364 0.01499 0.0
H27 H 0.39409 0.62537 0.01026 0.0
H28 H 0.3582 0.6134 0.06121 0.0
H29 H 0.37282 0.55835 0.11965 0.0
H30 H 0.47823 0.65006 0.11802 0.0
H31 H 0.51178 0.65528 0.06617 0.0
O32 O 0.41592 0.56078 0.0045 0.0
C33 C 0.42998 0.52084 0.06239 0.0
C34 C 0.48944 0.61818 0.03851 0.0
C35 C 0.47502 0.63493 0.09588 0.0
N36 N 0.44776 0.59315 0.06818 0.0
C37 C 0.46617 0.59581 0.03975 0.0
C38 C 0.45198 0.61229 0.09621 0.0
C39 C 0.49384 0.63785 0.06677 0.0
C40 C 0.34517 0.48377 0.11465 0.0
N41 N 0.36116 0.48003 0.0886 0.0
C42 C 0.3354 0.46978 0.153 0.0
C43 C 0.34215 0.4519 0.16465 0.0
C44 C 0.35851 0.44823 0.13794 0.0
C45 C 0.36792 0.46258 0.09985 0.0
C46 C 0.33487 0.42852 0.97917 0.0
C47 C 0.38308 0.46994 0.97402 0.0
C48 C 0.34185 0.45014 0.0042 0.0
N49 N 0.36575 0.47042 0.00161 0.0
C50 C 0.37677 0.44867 0.94847 0.0
C51 C 0.3525 0.42782 0.95118 0.0
C52 C 0.4055 0.5441 0.97477 0.0
C53 C 0.36328 0.58511 0.094 0.0
C54 C 0.40319 0.59828 0.03712 0.0
C55 C 0.38929 0.6107 0.0344 0.0
C56 C 0.36918 0.60399 0.06302 0.0
N57 N 0.39725 0.57974 0.06751 0.0
C58 C 0.37763 0.57314 0.09581 0.0
Co59 Co 0.87239 0.37649 0.38524 0.0
Co60 Co 0.85395 0.42075 0.4035 0.0
O61 O 0.85168 0.38822 0.41408 0.0
C62 C 0.82058 0.34078 0.35729 0.0
O63 O 0.81845 0.36071 0.34943 0.0
C64 C 0.86692 0.42198 0.49637 0.0
O65 O 0.88086 0.41226 0.48438 0.0
O66 O 0.8916 0.43869 0.40308 0.0
O67 O 0.9035 0.40934 0.39743 0.0
H68 H 0.88549 0.50435 0.32834 0.0
H69 H 0.83655 0.34538 0.45506 0.0
O70 O 0.84116 0.34335 0.37245 0.0
H71 H 0.92073 0.36583 0.50874 0.0
H72 H 0.89748 0.31177 0.34881 0.0
H73 H 0.91607 0.39917 0.32451 0.0
H74 H 0.91585 0.38069 0.4363 0.0
H75 H 0.87202 0.32758 0.38501 0.0
O76 O 0.85442 0.42645 0.46796 0.0
H77 H 0.88244 0.46312 0.34166 0.0
H78 H 0.82991 0.44779 0.44436 0.0
H79 H 0.9421 0.3842 0.28787 0.0
H80 H 0.84054 0.32993 0.52753 0.0
H81 H 0.93286 0.3402 0.29996 0.0
H82 H 0.88289 0.34024 0.55486 0.0
O83 O 0.86925 0.38973 0.32713 0.0
H84 H 0.76754 0.35983 0.46141 0.0
H85 H 0.8152 0.42111 0.34476 0.0
H86 H 0.76864 0.39807 0.34285 0.0
H87 H 0.7445 0.36717 0.40152 0.0
H88 H 0.81412 0.38313 0.46179 0.0
H89 H 0.83254 0.48895 0.43239 0.0
H90 H 0.86042 0.5175 0.3739 0.0
O91 O 0.85376 0.41572 0.33946 0.0
C92 C 0.90836 0.4321 0.40152 0.0
C93 C 0.87322 0.49204 0.35384 0.0
C94 C 0.84353 0.48342 0.41228 0.0
N95 N 0.85589 0.453 0.39355 0.0
C96 C 0.87136 0.46865 0.36146 0.0
C97 C 0.84216 0.46016 0.41898 0.0
C98 C 0.85917 0.49942 0.37945 0.0
C99 C 0.85501 0.34971 0.46655 0.0
N100 N 0.87592 0.36378 0.44139 0.0
C101 C 0.85717 0.34101 0.50768 0.0
C102 C 0.88094 0.34682 0.52302 0.0
C103 C 0.90218 0.36119 0.49717 0.0
C104 C 0.8993 0.36958 0.45621 0.0
C105 C 0.90172 0.33099 0.34334 0.0
C106 C 0.91203 0.38004 0.33011 0.0
C107 C 0.88734 0.34002 0.36367 0.0
N108 N 0.89268 0.36431 0.35708 0.0
C109 C 0.92679 0.37166 0.30919 0.0
C110 C 0.92158 0.34696 0.31595 0.0
C111 C 0.86131 0.40437 0.31402 0.0
C112 C 0.77785 0.37328 0.43571 0.0
C113 C 0.80482 0.40766 0.37032 0.0
C114 C 0.77847 0.39471 0.36913 0.0
C115 C 0.76493 0.37739 0.40207 0.0
N116 N 0.81735 0.40351 0.40341 0.0
C117 C 0.80422 0.38659 0.43585 0.0
Co118 Co 0.501 0.87503 0.71899 0.0
Co119 Co 0.44017 0.85385 0.75615 0.0
O120 O 0.47193 0.85355 0.75592 0.0
C121 C 0.48583 0.82298 0.69536 0.0
O122 O 0.46265 0.81889 0.69622 0.0
C123 C 0.45761 0.86504 0.84729 0.0
O124 O 0.48008 0.8812 0.83202 0.0
O125 O 0.45844 0.89137 0.75948 0.0
O126 O 0.49765 0.90512 0.73333 0.0
H127 H 0.38058 0.88361 0.70962 0.0
H128 H 0.50549 0.84285 0.78695 0.0
O129 O 0.50438 0.84491 0.70339 0.0
H130 H 0.56876 0.93032 0.82616 0.0
H131 H 0.58788 0.90514 0.6578 0.0
H132 H 0.51321 0.91595 0.65479 0.0
H133 H 0.54218 0.92154 0.7605 0.0
H134 H 0.55096 0.87881 0.7045 0.0
O135 O 0.43946 0.85209 0.82118 0.0
H136 H 0.42039 0.88259 0.70853 0.0
H137 H 0.39232 0.82595 0.80699 0.0
H138 H 0.54977 0.94283 0.60785 0.0
H139 H 0.53181 0.85075 0.85272 0.0
H140 H 0.58746 0.9375 0.60917 0.0
H141 H 0.56367 0.89476 0.87274 0.0
O142 O 0.47936 0.8686 0.66671 0.0
H143 H 0.42234 0.76715 0.79939 0.0
H144 H 0.3982 0.81549 0.70102 0.0
H145 H 0.3764 0.76908 0.69493 0.0
H146 H 0.38846 0.74459 0.74437 0.0
H147 H 0.44384 0.81362 0.80401 0.0
H148 H 0.35229 0.82651 0.80942 0.0
H149 H 0.34619 0.85543 0.76036 0.0
O150 O 0.44016 0.85576 0.69125 0.0
C151 C 0.48045 0.90898 0.74874 0.0
C152 C 0.38297 0.87086 0.73104 0.0
C153 C 0.36711 0.83884 0.7871 0.0
N154 N 0.40858 0.85407 0.75737 0.0
C155 C 0.40544 0.87014 0.73047 0.0
C156 C 0.38983 0.83864 0.78563 0.0
C157 C 0.3637 0.85507 0.75955 0.0
C158 C 0.51948 0.86202 0.79524 0.0
N159 N 0.52242 0.88169 0.76979 0.0
C160 C 0.53426 0.86639 0.83261 0.0
C161 C 0.55211 0.89109 0.84385 0.0
C162 C 0.55496 0.91106 0.81775 0.0
C163 C 0.53983 0.90597 0.78065 0.0
C164 C 0.5716 0.9077 0.65704 0.0
C165 C 0.52963 0.91368 0.65583 0.0
C166 C 0.55064 0.89283 0.68335 0.0
N167 N 0.53008 0.89605 0.6827 0.0
C168 C 0.55024 0.92888 0.62905 0.0
C169 C 0.57136 0.92586 0.62976 0.0
C170 C 0.45622 0.86178 0.66051 0.0
C171 C 0.41687 0.77761 0.77776 0.0
C172 C 0.40361 0.80498 0.72253 0.0
C173 C 0.39115 0.77869 0.71903 0.0
C174 C 0.3979 0.76496 0.74681 0.0
N175 N 0.42225 0.81725 0.75287 0.0
C176 C 0.42891 0.80391 0.78034 0.0
Co177 Co 0.62775 0.50379 0.04558 0.0
Co178 Co 0.58584 0.44234 0.07679 0.0
O179 O 0.61836 0.47337 0.07969 0.0
C180 C 0.6637 0.48808 0.01792 0.0
O181 O 0.64387 0.46577 0.0112 0.0
C182 C 0.58998 0.45756 0.16886 0.0
O183 O 0.59746 0.48054 0.15487 0.0
O184 O 0.56745 0.46152 0.08004 0.0
O185 O 0.5946 0.50134 0.05835 0.0
H186 H 0.49738 0.38611 0.02244 0.0
H187 H 0.6621 0.50466 0.11505 0.0
O188 O 0.66103 0.50622 0.03206 0.0
H189 H 0.63986 0.56877 0.15856 0.0
H190 H 0.68849 0.592 0.99403 0.0
H191 H 0.60196 0.51964 0.98138 0.0
H192 H 0.62308 0.54457 0.09025 0.0
H193 H 0.67534 0.55318 0.03696 0.0
O194 O 0.58509 0.43992 0.14177 0.0
H195 H 0.53886 0.42516 0.02555 0.0
H196 H 0.5632 0.39315 0.12416 0.0
H197 H 0.61421 0.55814 0.93813 0.0
H198 H 0.67948 0.52859 0.18341 0.0
H199 H 0.65776 0.59468 0.94433 0.0
H200 H 0.66831 0.56086 0.20562 0.0
O201 O 0.61304 0.48399 0.99098 0.0
H202 H 0.65269 0.42182 0.12084 0.0
H203 H 0.58169 0.40057 0.02051 0.0
H204 H 0.60555 0.37801 0.01399 0.0
H205 H 0.64136 0.38862 0.06442 0.0
H206 H 0.62843 0.44404 0.1259 0.0
H207 H 0.52192 0.35384 0.12242 0.0
H208 H 0.48871 0.35011 0.07114 0.0
O209 O 0.5858 0.44414 0.01198 0.0
C210 C 0.57287 0.4841 0.07123 0.0
C211 C 0.51173 0.38747 0.04481 0.0
C212 C 0.52549 0.36937 0.10097 0.0
N213 N 0.55349 0.41134 0.07472 0.0
C214 C 0.53528 0.4095 0.04662 0.0
C215 C 0.54881 0.39169 0.10188 0.0
C216 C 0.50687 0.36729 0.07218 0.0
C217 C 0.65735 0.51884 0.12428 0.0
N218 N 0.64174 0.52333 0.09856 0.0
C219 C 0.66716 0.53226 0.16312 0.0
C220 C 0.66086 0.55034 0.17559 0.0
C221 C 0.64489 0.55478 0.14921 0.0
C222 C 0.63541 0.54099 0.11061 0.0
C223 C 0.66943 0.57624 0.99114 0.0
C224 C 0.62088 0.53554 0.98451 0.0
C225 C 0.6619 0.5542 0.01532 0.0
N226 N 0.63783 0.53429 0.01202 0.0
C227 C 0.62773 0.55725 0.95982 0.0
C228 C 0.65218 0.57773 0.96327 0.0
C229 C 0.59663 0.46108 0.98277 0.0
C230 C 0.63712 0.41701 0.0987 0.0
C231 C 0.59731 0.40535 0.0424 0.0
C232 C 0.6107 0.39246 0.03868 0.0
C233 C 0.63077 0.39841 0.067 0.0
N234 N 0.60369 0.42362 0.07347 0.0
C235 C 0.62327 0.42947 0.1015 0.0
Co236 Co 0.12555 0.62312 0.38197 0.0
Co237 Co 0.14587 0.58034 0.40082 0.0
O238 O 0.14717 0.61247 0.41081 0.0
C239 C 0.17683 0.65994 0.35299 0.0
O240 O 0.17965 0.64043 0.34498 0.0
C241 C 0.13321 0.57923 0.49381 0.0
O242 O 0.11877 0.58838 0.48181 0.0
O243 O 0.1082 0.56142 0.4011 0.0
O244 O 0.09514 0.58986 0.3949 0.0
H245 H 0.1162 0.49664 0.32732 0.0
H246 H 0.16124 0.65529 0.45108 0.0
O247 O 0.15607 0.65671 0.36852 0.0
H248 H 0.0766 0.63257 0.50571 0.0
H249 H 0.09755 0.68557 0.34485 0.0
H250 H 0.08165 0.59898 0.32189 0.0
H251 H 0.08174 0.61777 0.43344 0.0
H252 H 0.12418 0.67115 0.38107 0.0
O253 O 0.14593 0.57511 0.46538 0.0
H254 H 0.11797 0.53733 0.33998 0.0
H255 H 0.17148 0.55486 0.44183 0.0
H256 H 0.05446 0.61255 0.28524 0.0
H257 H 0.15699 0.67072 0.52336 0.0
H258 H 0.06235 0.65613 0.29665 0.0
H259 H 0.11441 0.65927 0.55118 0.0
O260 O 0.12894 0.60989 0.32401 0.0
H261 H 0.23196 0.64354 0.45682 0.0
H262 H 0.18494 0.5809 0.34171 0.0
H263 H 0.23147 0.60513 0.33895 0.0
H264 H 0.2553 0.63672 0.39683 0.0
H265 H 0.18541 0.61905 0.45807 0.0
H266 H 0.17013 0.51425 0.43052 0.0
H267 H 0.14241 0.48487 0.37279 0.0
O268 O 0.14553 0.58487 0.33669 0.0
C269 C 0.09096 0.56736 0.39956 0.0
C270 C 0.1284 0.50931 0.35249 0.0
C271 C 0.15865 0.51918 0.41046 0.0
N272 N 0.14493 0.54851 0.3914 0.0
C273 C 0.12953 0.5324 0.35973 0.0
C274 C 0.15928 0.54211 0.41678 0.0
C275 C 0.1431 0.50271 0.37804 0.0
C276 C 0.14268 0.65046 0.46277 0.0
N277 N 0.12178 0.63578 0.43797 0.0
C278 C 0.14038 0.65915 0.5038 0.0
C279 C 0.11648 0.6527 0.51941 0.0
C280 C 0.09526 0.63771 0.49392 0.0
C281 C 0.09828 0.62935 0.45306 0.0
C282 C 0.0939 0.66652 0.33967 0.0
C283 C 0.08511 0.61793 0.32719 0.0
C284 C 0.10895 0.65827 0.36002 0.0
N285 N 0.10436 0.6342 0.3538 0.0
C286 C 0.0697 0.62552 0.30627 0.0
C287 C 0.07415 0.64999 0.31265 0.0
C288 C 0.13739 0.59565 0.3111 0.0
C289 C 0.2218 0.6298 0.43147 0.0
C290 C 0.19518 0.59465 0.36693 0.0
C291 C 0.22152 0.60827 0.36527 0.0
C292 C 0.23488 0.62598 0.39777 0.0
N293 N 0.18249 0.59852 0.40007 0.0
C294 C 0.19545 0.61581 0.43209 0.0
Co295 Co 0.50037 0.12548 0.71546 0.0
Co296 Co 0.56111 0.14193 0.74548 0.0
O297 O 0.53169 0.14632 0.74729 0.0
C298 C 0.51717 0.17683 0.68417 0.0
O299 O 0.53881 0.17812 0.67561 0.0
C300 C 0.54817 0.13771 0.83848 0.0
O301 O 0.52479 0.12241 0.82619 0.0
O302 O 0.53993 0.10517 0.75661 0.0
O303 O 0.50152 0.09402 0.72946 0.0
H304 H 0.61042 0.09996 0.7013 0.0
H305 H 0.50217 0.16098 0.78342 0.0
O306 O 0.49906 0.15681 0.70076 0.0
H307 H 0.43675 0.07645 0.83291 0.0
H308 H 0.412 0.10022 0.66827 0.0
H309 H 0.48197 0.08251 0.65356 0.0
H310 H 0.45939 0.08168 0.76345 0.0
H311 H 0.45186 0.12562 0.70864 0.0
O312 O 0.56557 0.14806 0.80993 0.0
H313 H 0.57337 0.10586 0.70262 0.0
H314 H 0.61184 0.16885 0.78745 0.0
H315 H 0.44237 0.05647 0.61294 0.0
H316 H 0.47981 0.15664 0.85287 0.0
H317 H 0.40704 0.06528 0.62018 0.0
H318 H 0.4469 0.11412 0.87811 0.0
O319 O 0.51904 0.1291 0.66023 0.0
H320 H 0.5902 0.23367 0.77059 0.0
H321 H 0.60108 0.17293 0.68034 0.0
H322 H 0.62629 0.21846 0.66387 0.0
H323 H 0.62092 0.24917 0.70917 0.0
H324 H 0.56525 0.18796 0.78573 0.0
H325 H 0.64926 0.16352 0.78734 0.0
H326 H 0.64873 0.12893 0.74389 0.0
O327 O 0.55703 0.13529 0.68133 0.0
C328 C 0.51738 0.08867 0.74644 0.0
C329 C 0.61093 0.11517 0.7202 0.0
C330 C 0.63272 0.15082 0.76854 0.0
N331 N 0.59056 0.13784 0.74468 0.0
C332 C 0.59004 0.11866 0.72095 0.0
C333 C 0.61147 0.15373 0.76853 0.0
C334 C 0.6324 0.13141 0.74415 0.0
C335 C 0.48768 0.14245 0.79395 0.0
N336 N 0.48199 0.12163 0.7693 0.0
C337 C 0.47517 0.14009 0.83341 0.0
C338 C 0.45673 0.11622 0.84758 0.0
C339 C 0.45104 0.09508 0.82225 0.0
C340 C 0.46396 0.09815 0.783 0.0
C341 C 0.42723 0.09615 0.66495 0.0
C342 C 0.46659 0.08631 0.65714 0.0
C343 C 0.44984 0.11049 0.68766 0.0
N344 N 0.46908 0.10534 0.68382 0.0
C345 C 0.44426 0.07157 0.63394 0.0
C346 C 0.42445 0.07654 0.63798 0.0
C347 C 0.54058 0.13147 0.65224 0.0
C348 C 0.59277 0.22048 0.75071 0.0
C349 C 0.59865 0.18618 0.70021 0.0
C350 C 0.613 0.21194 0.69076 0.0
C351 C 0.60998 0.22916 0.7162 0.0
N352 N 0.58183 0.17783 0.73413 0.0
C353 C 0.57878 0.19459 0.75925 0.0
Co354 Co 0.50205 0.62707 0.60143 0.0
Co355 Co 0.44039 0.58549 0.57018 0.0
O356 O 0.4721 0.61746 0.56546 0.0
C357 C 0.48702 0.6648 0.61902 0.0
O358 O 0.46379 0.64581 0.61951 0.0
C359 C 0.45577 0.58629 0.47872 0.0
O360 O 0.47867 0.59382 0.49314 0.0
O361 O 0.45871 0.56621 0.57098 0.0
O362 O 0.49874 0.59323 0.59181 0.0
H363 H 0.38204 0.49934 0.632 0.0
H364 H 0.5046 0.66028 0.52849 0.0
O365 O 0.50546 0.66106 0.61238 0.0
H366 H 0.56747 0.63498 0.49283 0.0
H367 H 0.59012 0.68708 0.65439 0.0
H368 H 0.51615 0.60168 0.66933 0.0
H369 H 0.54255 0.62025 0.56087 0.0
H370 H 0.55205 0.67405 0.60943 0.0
O371 O 0.43825 0.58264 0.50526 0.0
H372 H 0.4218 0.54006 0.62629 0.0
H373 H 0.39144 0.56251 0.52197 0.0
H374 H 0.55388 0.61381 0.71467 0.0
H375 H 0.52925 0.67562 0.46025 0.0
H376 H 0.59122 0.65681 0.70734 0.0
H377 H 0.5609 0.6629 0.44201 0.0
O378 O 0.48165 0.61423 0.65577 0.0
H379 H 0.42181 0.65167 0.51369 0.0
H380 H 0.39925 0.58478 0.62386 0.0
H381 H 0.37761 0.60967 0.62454 0.0
H382 H 0.38888 0.64342 0.56916 0.0
H383 H 0.44315 0.62648 0.51451 0.0
H384 H 0.35144 0.52194 0.52626 0.0
H385 H 0.34652 0.49008 0.58172 0.0
O386 O 0.44171 0.58745 0.63507 0.0
C387 C 0.48114 0.57136 0.58029 0.0
C388 C 0.38392 0.51311 0.60779 0.0
C389 C 0.36676 0.52578 0.54841 0.0
N390 N 0.40885 0.55371 0.57409 0.0
C391 C 0.40636 0.53622 0.6045 0.0
C392 C 0.38947 0.54869 0.54607 0.0
C393 C 0.36401 0.50791 0.57954 0.0
C394 C 0.51851 0.65488 0.52097 0.0
N395 N 0.52226 0.63954 0.54874 0.0
C396 C 0.53234 0.66353 0.4822 0.0
C397 C 0.55007 0.65635 0.47196 0.0
C398 C 0.55376 0.64068 0.50045 0.0
C399 C 0.53957 0.63237 0.53889 0.0
C400 C 0.574 0.66828 0.6578 0.0
C401 C 0.5324 0.62034 0.66572 0.0
C402 C 0.55238 0.66081 0.6325 0.0
N403 N 0.53201 0.63705 0.63649 0.0
C404 C 0.55367 0.62714 0.69159 0.0
C405 C 0.57461 0.65128 0.6875 0.0
C406 C 0.45854 0.59876 0.66424 0.0
C407 C 0.4167 0.63699 0.53793 0.0
C408 C 0.40432 0.59949 0.59979 0.0
C409 C 0.39194 0.61347 0.60023 0.0
C410 C 0.39826 0.63238 0.56911 0.0
N411 N 0.42246 0.60419 0.56921 0.0
C412 C 0.42864 0.6226 0.53844 0.0
Co413 Co 0.8765 0.50216 0.94487 0.0
Co414 Co 0.85536 0.44174 0.90618 0.0
O415 O 0.85453 0.47314 0.90864 0.0
C416 C 0.82548 0.48692 0.97595 0.0
O417 O 0.82249 0.46424 0.98049 0.0
C418 C 0.8652 0.46023 0.81564 0.0
O419 O 0.88116 0.48252 0.83178 0.0
O420 O 0.89281 0.4604 0.90085 0.0
O421 O 0.90654 0.49931 0.92832 0.0
H422 H 0.88665 0.38244 0.94632 0.0
H423 H 0.84293 0.50635 0.87938 0.0
O424 O 0.84636 0.50504 0.96201 0.0
H425 H 0.92944 0.57041 0.83657 0.0
H426 H 0.90668 0.58883 0.0071 0.0
H427 H 0.91854 0.51477 0.00675 0.0
H428 H 0.92204 0.54376 0.90173 0.0
H429 H 0.87988 0.55181 0.96096 0.0
O430 O 0.85255 0.44161 0.84112 0.0
H431 H 0.88524 0.42202 0.95009 0.0
H432 H 0.82707 0.39431 0.8545 0.0
H433 H 0.9459 0.55143 0.0531 0.0
H434 H 0.84946 0.53276 0.81423 0.0
H435 H 0.94004 0.58882 0.05346 0.0
H436 H 0.89298 0.56501 0.79238 0.0
O437 O 0.87139 0.48037 -0.0033 0.0
H438 H 0.76777 0.42399 0.87071 0.0
H439 H 0.81829 0.39892 0.96142 0.0
H440 H 0.77204 0.37687 0.97061 0.0
H441 H 0.74646 0.3894 0.92505 0.0
H442 H 0.8141 0.44564 0.86283 0.0
H443 H 0.828 0.35451 0.8494 0.0
H444 H 0.85788 0.34835 0.89568 0.0
O445 O 0.85846 0.44134 0.97092 0.0
C446 C 0.91041 0.48242 0.91158 0.0
C447 C 0.87349 0.38486 0.92611 0.0
C448 C 0.84059 0.3692 0.87166 0.0
N449 N 0.85594 0.41037 0.90284 0.0
C450 C 0.87255 0.4072 0.9282 0.0
C451 C 0.84018 0.39179 0.87463 0.0
C452 C 0.85736 0.36576 0.89765 0.0
C453 C 0.8619 0.52052 0.87033 0.0
N454 N 0.88206 0.52363 0.89448 0.0
C455 C 0.86549 0.53534 0.8333 0.0
C456 C 0.88992 0.55341 0.82102 0.0
C457 C 0.91039 0.55644 0.84579 0.0
C458 C 0.90608 0.54127 0.8826 0.0
C459 C 0.90947 0.57269 0.00713 0.0
C460 C 0.91603 0.53105 0.00646 0.0
C461 C 0.89433 0.55167 0.98112 0.0
N462 N 0.89785 0.53129 0.98081 0.0
C463 C 0.93151 0.55172 0.0329 0.0
C464 C 0.92819 0.57267 0.03312 0.0
C465 C 0.86498 0.45722 0.0021 0.0
C466 C 0.7787 0.41832 0.89069 0.0
C467 C 0.80729 0.4045 0.94155 0.0
C468 C 0.7811 0.39191 0.94682 0.0
C469 C 0.76676 0.39894 0.92123 0.0
N470 N 0.81887 0.42351 0.91158 0.0
C471 C 0.80493 0.43045 0.88627 0.0
Co472 Co 0.37512 0.87399 0.28203 0.0
Co473 Co 0.41604 0.85208 0.25752 0.0
O474 O 0.38413 0.85164 0.25124 0.0
C475 C 0.33807 0.82318 0.31191 0.0
O476 O 0.35755 0.82025 0.31943 0.0
C477 C 0.41425 0.86298 0.16465 0.0
O478 O 0.4062 0.87824 0.17732 0.0
O479 O 0.43551 0.88959 0.25341 0.0
O480 O 0.40882 0.90392 0.26864 0.0
H481 H 0.50255 0.88213 0.31953 0.0
H482 H 0.34097 0.83931 0.21359 0.0
O483 O 0.34129 0.84393 0.29625 0.0
H484 H 0.36596 0.92506 0.16168 0.0
H485 H 0.31556 0.9047 0.32449 0.0
H486 H 0.40109 0.91707 0.34344 0.0
H487 H 0.38148 0.91878 0.23242 0.0
H488 H 0.32818 0.87724 0.28608 0.0
O489 O 0.41842 0.85012 0.19272 0.0
H490 H 0.46186 0.88104 0.31189 0.0
H491 H 0.43851 0.82408 0.21463 0.0
H492 H 0.38937 0.9451 0.38217 0.0
H493 H 0.32482 0.84472 0.14285 0.0
H494 H 0.34631 0.939 0.37278 0.0
H495 H 0.3374 0.88785 0.1164 0.0
O496 O 0.38886 0.86972 0.33853 0.0
H497 H 0.34855 0.76523 0.21232 0.0
H498 H 0.41731 0.81408 0.31712 0.0
H499 H 0.39208 0.76774 0.32439 0.0
H500 H 0.35739 0.743 0.27173 0.0
H501 H 0.37413 0.81164 0.20654 0.0
H502 H 0.47904 0.82471 0.22092 0.0
H503 H 0.51135 0.85382 0.27382 0.0
O504 O 0.41446 0.8543 0.32212 0.0
C505 C 0.4306 0.90741 0.25853 0.0
C506 C 0.48859 0.8693 0.29648 0.0
C507 C 0.47541 0.8371 0.24109 0.0
N508 N 0.44776 0.85236 0.26314 0.0
C509 C 0.46549 0.86854 0.29212 0.0
C510 C 0.45252 0.83686 0.2376 0.0
C511 C 0.49352 0.85343 0.27078 0.0
C512 C 0.34631 0.85812 0.20252 0.0
N513 N 0.36201 0.87869 0.22722 0.0
C514 C 0.3372 0.86107 0.16234 0.0
C515 C 0.34429 0.88528 0.1475 0.0
C516 C 0.36033 0.90617 0.17287 0.0
C517 C 0.36909 0.9025 0.21286 0.0
C518 C 0.33439 0.9076 0.32875 0.0
C519 C 0.3824 0.91443 0.33894 0.0
C520 C 0.34163 0.89209 0.30715 0.0
N521 N 0.36544 0.89575 0.31217 0.0
C522 C 0.37583 0.9303 0.36108 0.0
C523 C 0.35166 0.92684 0.35583 0.0
C524 C 0.40395 0.86194 0.34932 0.0
C525 C 0.36362 0.7758 0.23544 0.0
C526 C 0.4022 0.80345 0.29421 0.0
C527 C 0.38802 0.77721 0.29839 0.0
C528 C 0.36858 0.76334 0.26881 0.0
N529 N 0.39717 0.81553 0.26148 0.0
C530 C 0.37822 0.80206 0.23224 0.0
Co531 Co 0.50159 0.37511 0.60916 0.0
Co532 Co 0.56281 0.41798 0.57829 0.0
O533 O 0.5322 0.38509 0.57525 0.0
C534 C 0.51829 0.33989 0.63698 0.0
O535 O 0.54044 0.36001 0.64333 0.0
C536 C 0.54766 0.41364 0.48619 0.0
O537 O 0.52455 0.4055 0.50015 0.0
O538 O 0.543 0.43569 0.57479 0.0
O539 O 0.50329 0.40795 0.59619 0.0
H540 H 0.61749 0.50665 0.63295 0.0
H541 H 0.50163 0.34109 0.53995 0.0
O542 O 0.49988 0.34215 0.62294 0.0
H543 H 0.43642 0.36162 0.49559 0.0
H544 H 0.41373 0.31301 0.6603 0.0
H545 H 0.48483 0.40024 0.67303 0.0
H546 H 0.46033 0.37875 0.56406 0.0
H547 H 0.45275 0.32691 0.61763 0.0
O548 O 0.56537 0.41886 0.51331 0.0
H549 H 0.57898 0.46476 0.62957 0.0
H550 H 0.61213 0.44154 0.53127 0.0
H551 H 0.44611 0.38724 0.71602 0.0
H552 H 0.478 0.32336 0.47143 0.0
H553 H 0.4102 0.34333 0.70978 0.0
H554 H 0.44518 0.33367 0.44879 0.0
O555 O 0.52116 0.3901 0.66384 0.0
H556 H 0.58537 0.35256 0.53431 0.0
H557 H 0.60477 0.42294 0.63502 0.0
H558 H 0.62818 0.39993 0.64167 0.0
H559 H 0.61851 0.36444 0.59104 0.0
H560 H 0.56228 0.37596 0.52913 0.0
H561 H 0.65092 0.48326 0.53329 0.0
H562 H 0.65381 0.51612 0.58455 0.0
O563 O 0.56086 0.41793 0.64308 0.0
C564 C 0.52026 0.42982 0.5833 0.0
C565 C 0.6165 0.49246 0.61059 0.0
C566 C 0.63524 0.47934 0.55461 0.0
N567 N 0.5934 0.45067 0.58054 0.0
C568 C 0.59477 0.46869 0.60863 0.0
C569 C 0.61322 0.45578 0.55354 0.0
C570 C 0.63685 0.49777 0.58339 0.0
C571 C 0.4872 0.34546 0.53053 0.0
N572 N 0.48225 0.3608 0.5561 0.0
C573 C 0.47396 0.33545 0.49161 0.0
C574 C 0.45557 0.34128 0.4789 0.0
C575 C 0.45065 0.35696 0.50513 0.0
C576 C 0.46429 0.36665 0.54381 0.0
C577 C 0.42921 0.33222 0.6632 0.0
C578 C 0.46921 0.38117 0.66988 0.0
C579 C 0.45136 0.34018 0.63918 0.0
N580 N 0.47092 0.36444 0.6425 0.0
C581 C 0.44737 0.37389 0.69443 0.0
C582 C 0.42724 0.34924 0.69095 0.0
C583 C 0.54393 0.40684 0.6722 0.0
C584 C 0.58977 0.368 0.55653 0.0
C585 C 0.60039 0.40745 0.61305 0.0
C586 C 0.61376 0.39455 0.61685 0.0
C587 C 0.60834 0.37465 0.58841 0.0
N588 N 0.58216 0.40077 0.58179 0.0
C589 C 0.57682 0.38136 0.55367 0.0
Co590 Co 0.12365 0.49793 0.94213 0.0
Co591 Co 0.14395 0.55824 0.90359 0.0
O592 O 0.14528 0.5271 0.90588 0.0
C593 C 0.17488 0.51368 0.97273 0.0
O594 O 0.17755 0.5362 0.97777 0.0
C595 C 0.13446 0.54004 0.81285 0.0
O596 O 0.1186 0.51764 0.82874 0.0
O597 O 0.10651 0.53914 0.89817 0.0
O598 O 0.09332 0.50039 0.92604 0.0
H599 H 0.11135 0.61642 0.94397 0.0
H600 H 0.15729 0.49432 0.87609 0.0
O601 O 0.15408 0.49545 0.95876 0.0
H602 H 0.07093 0.42957 0.83396 0.0
H603 H 0.09461 0.41136 0.00394 0.0
H604 H 0.08169 0.48476 0.0045 0.0
H605 H 0.07823 0.45607 0.89924 0.0
H606 H 0.12096 0.44855 0.95777 0.0
O607 O 0.14689 0.5586 0.83854 0.0
H608 H 0.11343 0.57719 0.94756 0.0
H609 H 0.17178 0.60588 0.85222 0.0
H610 H 0.05478 0.44791 0.05088 0.0
H611 H 0.15087 0.46807 0.8108 0.0
H612 H 0.06118 0.41086 0.05078 0.0
H613 H 0.10742 0.43547 0.78928 0.0
O614 O 0.12865 0.51957 0.99411 0.0
H615 H 0.23199 0.5773 0.86836 0.0
H616 H 0.18056 0.60119 0.95907 0.0
H617 H 0.22681 0.62376 0.96843 0.0
H618 H 0.25285 0.61183 0.92287 0.0
H619 H 0.18566 0.55512 0.8603 0.0
H620 H 0.17018 0.64533 0.84731 0.0
H621 H 0.13987 0.65082 0.89355 0.0
O622 O 0.14074 0.55844 0.96834 0.0
C623 C 0.08913 0.51706 0.90918 0.0
C624 C 0.1247 0.61429 0.92378 0.0
C625 C 0.1577 0.6305 0.86948 0.0
N626 N 0.14286 0.58935 0.90042 0.0
C627 C 0.12602 0.59215 0.92577 0.0
C628 C 0.15849 0.60811 0.87234 0.0
C629 C 0.14069 0.63357 0.89544 0.0
C630 C 0.13835 0.48 0.86719 0.0
N631 N 0.11818 0.47661 0.8916 0.0
C632 C 0.13482 0.46527 0.83007 0.0
C633 C 0.11044 0.44701 0.81799 0.0
C634 C 0.08995 0.44369 0.84303 0.0
C635 C 0.0942 0.45878 0.87991 0.0
C636 C 0.09159 0.42735 0.00416 0.0
C637 C 0.08443 0.46862 0.004 0.0
C638 C 0.10647 0.44847 0.97814 0.0
N639 N 0.10265 0.46866 0.97809 0.0
C640 C 0.06921 0.44785 0.03046 0.0
C641 C 0.07283 0.42708 0.03043 0.0
C642 C 0.1346 0.54259 -0.00047 0.0
C643 C 0.22086 0.58271 0.88834 0.0
C644 C 0.19176 0.59586 0.9392 0.0
C645 C 0.21795 0.60875 0.94457 0.0
C646 C 0.23254 0.60206 0.91897 0.0
N647 N 0.18044 0.5769 0.90912 0.0
C648 C 0.19463 0.57028 0.88381 0.0
Co649 Co 0.62669 0.12477 0.27784 0.0
Co650 Co 0.58115 0.13966 0.24872 0.0
O651 O 0.61526 0.14489 0.24611 0.0
C652 C 0.66054 0.17644 0.30795 0.0
O653 O 0.63994 0.17726 0.31653 0.0
C654 C 0.58951 0.13572 0.1554 0.0
O655 O 0.59792 0.1206 0.16717 0.0
O656 O 0.56631 0.10297 0.23776 0.0
O657 O 0.59431 0.09284 0.26507 0.0
H658 H 0.49012 0.09587 0.2949 0.0
H659 H 0.65929 0.1602 0.20879 0.0
O660 O 0.65907 0.15658 0.29152 0.0
H661 H 0.64138 0.07591 0.16026 0.0
H662 H 0.69159 0.10155 0.32322 0.0
H663 H 0.60358 0.08229 0.34102 0.0
H664 H 0.62435 0.08111 0.23019 0.0
H665 H 0.67594 0.12605 0.28313 0.0
O666 O 0.58229 0.14572 0.18431 0.0
H667 H 0.53347 0.10287 0.2926 0.0
H668 H 0.55598 0.16547 0.20745 0.0
H669 H 0.61833 0.05715 0.38139 0.0
H670 H 0.6769 0.15589 0.13884 0.0
H671 H 0.66264 0.06674 0.37259 0.0
H672 H 0.66788 0.11349 0.1141 0.0
O673 O 0.61192 0.12837 0.33341 0.0
H674 H 0.64191 0.2318 0.2227 0.0
H675 H 0.57163 0.17008 0.31426 0.0
H676 H 0.59105 0.21554 0.33054 0.0
H677 H 0.62646 0.24675 0.28457 0.0
H678 H 0.62205 0.18614 0.20778 0.0
H679 H 0.51281 0.15904 0.20855 0.0
H680 H 0.47956 0.12409 0.25266 0.0
O681 O 0.57916 0.13315 0.3129 0.0
C682 C 0.57289 0.08691 0.24836 0.0
C683 C 0.50446 0.11123 0.27571 0.0
C684 C 0.51719 0.14667 0.2272 0.0
N685 N 0.54728 0.13471 0.2503 0.0
C686 C 0.52906 0.11534 0.2744 0.0
C687 C 0.54159 0.15019 0.22665 0.0
C688 C 0.49855 0.12705 0.25196 0.0
C689 C 0.65551 0.14173 0.19846 0.0
N690 N 0.64093 0.12096 0.22364 0.0
C691 C 0.66543 0.13939 0.15873 0.0
C692 C 0.66034 0.11558 0.14484 0.0
C693 C 0.64545 0.09449 0.17071 0.0
C694 C 0.63582 0.09754 0.21022 0.0
C695 C 0.67222 0.09714 0.32721 0.0
C696 C 0.62281 0.08642 0.33674 0.0
C697 C 0.66327 0.11096 0.30465 0.0
N698 N 0.63878 0.10537 0.30933 0.0
C699 C 0.63109 0.07219 0.35982 0.0
C700 C 0.65596 0.0776 0.3549 0.0
C701 C 0.5924 0.13006 0.34177 0.0
C702 C 0.62644 0.21839 0.24287 0.0
C703 C 0.58702 0.18354 0.29411 0.0
C704 C 0.59793 0.20926 0.30345 0.0
C705 C 0.61779 0.22676 0.27763 0.0
N706 N 0.59561 0.17549 0.25994 0.0
C707 C 0.61505 0.19253 0.23446 0.0
C708 C 0.41514 0.53197 0.23682 0.0
C709 C 0.41738 0.55076 0.20782 0.0
C710 C 0.42155 0.53748 0.28109 0.0
C711 C 0.43031 0.56232 0.29654 0.0
C712 C 0.43232 0.58127 0.26756 0.0
C713 C 0.42581 0.57526 0.22354 0.0
C714 C 0.4191 0.51681 0.31126 0.0
C715 C 0.44148 0.60795 0.283 0.0
C716 C 0.42489 0.57214 0.4173 0.0
C717 C 0.44964 0.58076 0.43188 0.0
C718 C 0.41834 0.56594 0.37336 0.0
C719 C 0.437 0.56847 0.34324 0.0
C720 C 0.46205 0.57726 0.35758 0.0
C721 C 0.4681 0.58333 0.40184 0.0
C722 C 0.39144 0.55668 0.35918 0.0
C723 C 0.48241 0.58022 0.32617 0.0
H724 H 0.40867 0.51301 0.22487 0.0
H725 H 0.42757 0.58989 0.20135 0.0
H726 H 0.43772 0.52222 0.32595 0.0
H727 H 0.40605 0.51421 0.33854 0.0
H728 H 0.41196 0.49847 0.29407 0.0
H729 H 0.44203 0.62048 0.25618 0.0
H730 H 0.42896 0.6079 0.3093 0.0
H731 H 0.46071 0.61604 0.29707 0.0
H732 H 0.41049 0.57009 0.44028 0.0
H733 H 0.48724 0.58994 0.41291 0.0
H734 H 0.38338 0.53768 0.34414 0.0
H735 H 0.391 0.5695 0.33394 0.0
H736 H 0.37915 0.55556 0.38686 0.0
H737 H 0.47689 0.56185 0.31035 0.0
H738 H 0.50092 0.58715 0.34262 0.0
H739 H 0.48469 0.59368 0.29981 0.0
C740 C 0.85073 0.43812 0.55587 0.0
C741 C 0.86594 0.42811 0.54278 0.0
C742 C 0.84976 0.44421 0.59976 0.0
C743 C 0.86439 0.44024 0.63119 0.0
C744 C 0.87982 0.4302 0.61821 0.0
C745 C 0.88038 0.42421 0.57413 0.0
C746 C 0.83302 0.45479 0.61252 0.0
C747 C 0.8957 0.42574 0.65092 0.0
C748 C 0.8804 0.47499 0.73956 0.0
C749 C 0.86353 0.45599 0.76791 0.0
C750 C 0.88052 0.47031 0.69467 0.0
C751 C 0.86328 0.44612 0.67789 0.0
C752 C 0.84561 0.42717 0.70608 0.0
C753 C 0.84597 0.43232 0.75079 0.0
C754 C 0.89963 0.49097 0.66547 0.0
C755 C 0.82682 0.4012 0.68925 0.0
H756 H 0.8395 0.44118 0.53182 0.0
H757 H 0.89219 0.41651 0.56427 0.0
H758 H 0.81875 0.44215 0.63672 0.0
H759 H 0.84443 0.47347 0.62841 0.0
H760 H 0.82305 0.457 0.58398 0.0
H761 H 0.90695 0.41814 0.63537 0.0
H762 H 0.90882 0.44366 0.66778 0.0
H763 H 0.8834 0.4122 0.67634 0.0
H764 H 0.894 0.49334 0.75256 0.0
H765 H 0.83276 0.41758 0.77247 0.0
H766 H 0.89002 0.49407 0.63736 0.0
H767 H 0.91282 0.4852 0.65193 0.0
H768 H 0.91079 0.50912 0.68318 0.0
H769 H 0.81581 0.40271 0.66175 0.0
H770 H 0.81346 0.38903 0.71505 0.0
H771 H 0.83697 0.39176 0.67644 0.0
C772 C 0.4287 0.84487 0.91049 0.0
C773 C 0.45252 0.86302 0.89471 0.0
C774 C 0.42261 0.84393 0.95481 0.0
C775 C 0.44079 0.86156 0.98403 0.0
C776 C 0.46514 0.87942 0.96867 0.0
C777 C 0.47075 0.87991 0.92406 0.0
C778 C 0.3965 0.82451 0.97013 0.0
C779 C 0.48499 0.89843 -0.0009 0.0
C780 C 0.41643 0.87655 0.087 0.0
C781 C 0.42024 0.86199 0.11822 0.0
C782 C 0.42317 0.87666 0.04316 0.0
C783 C 0.43393 0.86184 0.03039 0.0
C784 C 0.43765 0.84696 0.06163 0.0
C785 C 0.43073 0.84718 0.10523 0.0
C786 C 0.41883 0.89267 0.01054 0.0
C787 C 0.44902 0.83087 0.04904 0.0
H788 H 0.41456 0.83161 0.88805 0.0
H789 H 0.4892 0.89394 0.91207 0.0
H790 H 0.39778 0.81324 -0.00257 0.0
H791 H 0.3865 0.83415 0.98278 0.0
H792 H 0.38496 0.81142 0.94354 0.0
H793 H 0.50339 0.9102 0.9824 0.0
H794 H 0.47852 0.91108 0.01262 0.0
H795 H 0.4879 0.88865 0.02717 0.0
H796 H 0.40834 0.88802 0.09682 0.0
H797 H 0.43378 0.8359 0.1292 0.0
H798 H 0.40608 0.88057 0.98412 0.0
H799 H 0.43698 0.90643 -0.00501 0.0
H800 H 0.4104 0.90322 0.02587 0.0
H801 H 0.43717 0.81694 0.02376 0.0
H802 H 0.4508 0.82051 0.07742 0.0
H803 H 0.46801 0.84288 0.03457 0.0
C804 C 0.57764 0.42685 0.23035 0.0
C805 C 0.58536 0.45145 0.21584 0.0
C806 C 0.5716 0.42015 0.2743 0.0
C807 C 0.57334 0.43849 0.30442 0.0
C808 C 0.58153 0.46345 0.29023 0.0
C809 C 0.5875 0.46967 0.24601 0.0
C810 C 0.56308 0.39338 0.28839 0.0
C811 C 0.58364 0.48348 0.32165 0.0
C812 C 0.53525 0.41581 0.40912 0.0
C813 C 0.55377 0.4187 0.43928 0.0
C814 C 0.54135 0.42214 0.36497 0.0
C815 C 0.56652 0.43148 0.35084 0.0
C816 C 0.5852 0.43403 0.38095 0.0
C817 C 0.57859 0.4276 0.42484 0.0
C818 C 0.52096 0.41913 0.33356 0.0
C819 C 0.61221 0.4438 0.36691 0.0
H820 H 0.57602 0.41267 0.20725 0.0
H821 H 0.59345 0.48869 0.235 0.0
H822 H 0.57559 0.39335 0.31465 0.0
H823 H 0.5437 0.38456 0.30207 0.0
H824 H 0.56312 0.3815 0.26092 0.0
H825 H 0.59068 0.50209 0.30549 0.0
H826 H 0.56491 0.47761 0.33633 0.0
H827 H 0.59662 0.48572 0.34884 0.0
H828 H 0.51604 0.40896 0.42008 0.0
H829 H 0.59302 0.42983 0.44793 0.0
H830 H 0.51928 0.40635 0.30638 0.0
H831 H 0.52606 0.43768 0.31886 0.0
H832 H 0.50226 0.41137 0.34973 0.0
H833 H 0.61293 0.43165 0.34067 0.0
H834 H 0.62439 0.44442 0.39441 0.0
H835 H 0.62019 0.46311 0.3532 0.0
C836 C 0.11964 0.57668 0.57158 0.0
C837 C 0.13431 0.57313 0.54023 0.0
C838 C 0.12018 0.57057 0.61561 0.0
C839 C 0.13582 0.56076 0.62854 0.0
C840 C 0.15071 0.55718 0.59711 0.0
C841 C 0.14977 0.5634 0.55327 0.0
C842 C 0.10403 0.57463 0.64831 0.0
C843 C 0.16767 0.54685 0.60982 0.0
C844 C 0.15376 0.56828 0.74836 0.0
C845 C 0.1363 0.54447 0.76516 0.0
C846 C 0.15427 0.57361 0.70369 0.0
C847 C 0.13685 0.55469 0.67519 0.0
C848 C 0.11974 0.53036 0.69164 0.0
C849 C 0.1197 0.52551 0.7365 0.0
C850 C 0.17292 0.59973 0.68723 0.0
C851 C 0.10091 0.50972 0.6621 0.0
H852 H 0.10764 0.58418 0.56175 0.0
H853 H 0.16116 0.5606 0.52922 0.0
H854 H 0.09099 0.55656 0.66486 0.0
H855 H 0.11614 0.58808 0.67396 0.0
H856 H 0.09269 0.58214 0.63282 0.0
H857 H 0.17788 0.54498 0.5813 0.0
H858 H 0.18176 0.55945 0.63428 0.0
H859 H 0.15638 0.52804 0.62537 0.0
H860 H 0.16677 0.583 0.77026 0.0
H861 H 0.10619 0.50705 0.74925 0.0
H862 H 0.16263 0.60905 0.67449 0.0
H863 H 0.18411 0.5985 0.65976 0.0
H864 H 0.18612 0.61185 0.71323 0.0
H865 H 0.08758 0.51532 0.64856 0.0
H866 H 0.08987 0.49145 0.67956 0.0
H867 H 0.11074 0.50694 0.63401 0.0
C868 C 0.57871 0.15668 0.0958 0.0
C869 C 0.58637 0.13949 0.1086 0.0
C870 C 0.5736 0.15891 0.05182 0.0
C871 C 0.57603 0.14344 0.02006 0.0
C872 C 0.58451 0.12663 0.03257 0.0
C873 C 0.5897 0.12495 0.07671 0.0
C874 C 0.56491 0.17728 0.03954 0.0
C875 C 0.58724 0.10977 -0.00044 0.0
C876 C 0.53666 0.12605 0.91676 0.0
C877 C 0.55474 0.14101 0.88543 0.0
C878 C 0.54323 0.12714 0.96094 0.0
C879 C 0.56843 0.14376 0.97409 0.0
C880 C 0.58654 0.15968 0.94295 0.0
C881 C 0.5795 0.15804 0.89889 0.0
C882 C 0.52342 0.10982 0.99327 0.0
C883 C 0.6135 0.17786 0.95594 0.0
H884 H 0.57627 0.16812 0.12026 0.0
H885 H 0.59567 0.11167 0.08634 0.0
H886 H 0.57662 0.18968 0.01244 0.0
H887 H 0.54513 0.16674 0.02767 0.0
H888 H 0.56586 0.18929 0.06756 0.0
H889 H 0.59511 0.09855 0.01432 0.0
H890 H 0.56853 0.09655 0.98518 0.0
H891 H 0.59975 0.12124 0.97238 0.0
H892 H 0.51748 0.11289 0.90662 0.0
H893 H 0.59354 0.16979 0.87487 0.0
H894 H 0.52221 0.1209 0.02094 0.0
H895 H 0.52881 0.09639 0.00708 0.0
H896 H 0.50444 0.09882 0.9781 0.0
H897 H 0.61401 0.18986 0.98358 0.0
H898 H 0.62474 0.19029 0.92842 0.0
H899 H 0.62269 0.16717 0.96731 0.0
C900 C 0.30908 0.52649 0.97277 0.0
C901 C 0.31275 0.51129 0.00273 0.0
C902 C 0.28528 0.52419 0.96737 0.0
C903 C 0.26484 0.50675 0.9935 0.0
C904 C 0.26832 0.491 0.02329 0.0
C905 C 0.29224 0.49323 0.02715 0.0
C906 C 0.28219 0.54091 0.93449 0.0
C907 C 0.24711 0.47261 0.05239 0.0
C908 C 0.21533 0.52578 0.01065 0.0
C909 C 0.19659 0.51005 0.98095 0.0
C910 C 0.23705 0.52393 0.01669 0.0
C911 C 0.2404 0.5064 0.99149 0.0
C912 C 0.22125 0.49005 0.96214 0.0
C913 C 0.19936 0.49186 0.95761 0.0
C914 C 0.25678 0.5413 0.04908 0.0
C915 C 0.22443 0.47154 0.934 0.0
H916 H 0.3249 0.5403 0.95357 0.0
H917 H 0.29514 0.48158 0.05055 0.0
H918 H 0.2659 0.52939 0.9127 0.0
H919 H 0.27823 0.5545 0.9518 0.0
H920 H 0.29932 0.55176 0.914 0.0
H921 H 0.25246 0.46063 0.07177 0.0
H922 H 0.24172 0.48319 0.07532 0.0
H923 H 0.23017 0.46019 0.03258 0.0
H924 H 0.21307 0.5397 0.02901 0.0
H925 H 0.18492 0.47978 0.93442 0.0
H926 H 0.2741 0.55504 0.03136 0.0
H927 H 0.26207 0.53032 0.07124 0.0
H928 H 0.25015 0.55199 0.06919 0.0
H929 H 0.24015 0.48204 0.91057 0.0
H930 H 0.20706 0.45894 0.91518 0.0
H931 H 0.22949 0.45973 0.95442 0.0
C932 C 0.79617 0.29428 0.37155 0.0
C933 C 0.79884 0.31543 0.34895 0.0
C934 C 0.77465 0.27041 0.3656 0.0
C935 C 0.75577 0.26768 0.33566 0.0
C936 C 0.75889 0.28885 0.31163 0.0
C937 C 0.78025 0.31252 0.31895 0.0
C938 C 0.77171 0.24836 0.39242 0.0
C939 C 0.73941 0.2866 0.27877 0.0
C940 C 0.70679 0.20306 0.29328 0.0
C941 C 0.68536 0.1988 0.31688 0.0
C942 C 0.73008 0.22521 0.29966 0.0
C943 C 0.732 0.24311 0.33106 0.0
C944 C 0.71062 0.23833 0.35621 0.0
C945 C 0.68748 0.21637 0.34842 0.0
C946 C 0.75235 0.2299 0.27165 0.0
C947 C 0.71202 0.25672 0.39063 0.0
H948 H 0.81049 0.29653 0.39491 0.0
H949 H 0.7824 0.32881 0.30109 0.0
H950 H 0.75514 0.24171 0.4144 0.0
H951 H 0.76811 0.23234 0.37078 0.0
H952 H 0.78866 0.25335 0.41267 0.0
H953 H 0.74562 0.30445 0.26042 0.0
H954 H 0.73537 0.27132 0.25502 0.0
H955 H 0.72146 0.28151 0.29579 0.0
H956 H 0.70514 0.18951 0.26876 0.0
H957 H 0.67098 0.21296 0.36707 0.0
H958 H 0.76888 0.23424 0.29247 0.0
H959 H 0.75781 0.24659 0.25043 0.0
H960 H 0.74814 0.21347 0.25052 0.0
H961 H 0.7279 0.26139 0.4134 0.0
H962 H 0.6943 0.24915 0.40991 0.0
H963 H 0.71571 0.27458 0.37483 0.0
C964 C 0.47377 0.77806 0.70401 0.0
C965 C 0.49003 0.8018 0.68593 0.0
C966 C 0.47627 0.75712 0.6936 0.0
C967 C 0.49486 0.75983 0.66299 0.0
C968 C 0.51157 0.78392 0.64503 0.0
C969 C 0.50924 0.8048 0.6574 0.0
C970 C 0.45861 0.73197 0.71462 0.0
C971 C 0.53103 0.78738 0.6112 0.0
C972 C 0.50923 0.70619 0.65752 0.0
C973 C 0.49144 0.6904 0.62663 0.0
C974 C 0.5111 0.72931 0.66906 0.0
C975 C 0.49546 0.73703 0.64789 0.0
C976 C 0.47859 0.72172 0.61466 0.0
C977 C 0.4764 0.6983 0.60512 0.0
C978 C 0.52866 0.74466 0.70567 0.0
C979 C 0.46221 0.72964 0.59024 0.0
H980 H 0.45906 0.7759 0.7264 0.0
H981 H 0.52166 0.82322 0.64326 0.0
H982 H 0.44564 0.71868 0.6896 0.0
H983 H 0.46949 0.72355 0.72856 0.0
H984 H 0.44707 0.73367 0.74105 0.0
H985 H 0.54355 0.80755 0.60243 0.0
H986 H 0.54284 0.77957 0.62323 0.0
H987 H 0.52134 0.77678 0.58113 0.0
H988 H 0.52066 0.69982 0.67432 0.0
H989 H 0.46277 0.68602 0.58099 0.0
H990 H 0.51736 0.7446 0.73414 0.0
H991 H 0.54076 0.76461 0.69547 0.0
H992 H 0.54095 0.7371 0.71635 0.0
H993 H 0.4476 0.72901 0.61255 0.0
H994 H 0.45256 0.71718 0.5618 0.0
H995 H 0.47372 0.74937 0.57841 0.0
C996 C 0.6923 0.47652 0.97957 0.0
C997 C 0.68907 0.49165 0.0103 0.0
C998 C 0.71589 0.47843 0.9735 0.0
C999 C 0.73656 0.49538 -0.00029 0.0
C1000 C 0.73352 0.51107 0.03028 0.0
C1001 C 0.7098 0.50924 0.03483 0.0
C1002 C 0.71851 0.46181 0.93982 0.0
C1003 C 0.75498 0.52894 0.05946 0.0
C1004 C 0.78527 0.47508 0.01451 0.0
C1005 C 0.80404 0.49088 0.98489 0.0
C1006 C 0.76381 0.47729 0.02129 0.0
C1007 C 0.76075 0.49528 -0.00308 0.0
C1008 C 0.77993 0.51169 0.96765 0.0
C1009 C 0.80156 0.5095 0.96237 0.0
C1010 C 0.74404 0.45984 0.05356 0.0
C1011 C 0.77706 0.5307 0.94038 0.0
H1012 H 0.67631 0.46309 0.96027 0.0
H1013 H 0.70724 0.52084 0.05881 0.0
H1014 H 0.73479 0.47333 0.91798 0.0
H1015 H 0.72224 0.44786 0.9564 0.0
H1016 H 0.70126 0.45138 0.91944 0.0
H1017 H 0.74998 0.54095 0.07955 0.0
H1018 H 0.7602 0.51795 0.08174 0.0
H1019 H 0.77191 0.54135 0.03962 0.0
H1020 H 0.7873 0.46084 0.03226 0.0
H1021 H 0.81602 0.52163 0.93924 0.0
H1022 H 0.72656 0.44649 0.03582 0.0
H1023 H 0.7391 0.47082 0.07637 0.0
H1024 H 0.75045 0.44872 0.07298 0.0
H1025 H 0.76121 0.52062 0.91703 0.0
H1026 H 0.79443 0.54325 0.92153 0.0
H1027 H 0.77235 0.54253 0.96146 0.0
C1028 C 0.21714 0.68918 0.31544 0.0
C1029 C 0.19813 0.68561 0.34501 0.0
C1030 C 0.23835 0.7131 0.30915 0.0
C1031 C 0.24087 0.73385 0.33377 0.0
C1032 C 0.22142 0.7305 0.3629 0.0
C1033 C 0.2001 0.7064 0.36787 0.0
C1034 C 0.25846 0.71598 0.27717 0.0
C1035 C 0.22368 0.75208 0.39026 0.0
C1036 C 0.30911 0.78372 0.35169 0.0
C1037 C 0.3125 0.80188 0.32034 0.0
C1038 C 0.28547 0.76215 0.358 0.0
C1039 C 0.26487 0.75836 0.33153 0.0
C1040 C 0.26799 0.77701 0.30068 0.0
C1041 C 0.2918 0.79877 0.29577 0.0
C1042 C 0.28281 0.74297 0.39189 0.0
C1043 C 0.24657 0.77339 0.27137 0.0
H1044 H 0.21552 0.67319 0.29734 0.0
H1045 H 0.18543 0.70364 0.39087 0.0
H1046 H 0.26316 0.73189 0.25442 0.0
H1047 H 0.27596 0.72046 0.29516 0.0
H1048 H 0.25252 0.69858 0.25765 0.0
H1049 H 0.20605 0.74688 0.40857 0.0
H1050 H 0.23932 0.75793 0.4141 0.0
H1051 H 0.22837 0.76869 0.36934 0.0
H1052 H 0.32506 0.78626 0.37108 0.0
H1053 H 0.29446 0.81277 0.27137 0.0
H1054 H 0.27944 0.72539 0.37541 0.0
H1055 H 0.26631 0.73799 0.41329 0.0
H1056 H 0.29991 0.74996 0.4127 0.0
H1057 H 0.24181 0.75756 0.24845 0.0
H1058 H 0.2514 0.79059 0.25194 0.0
H1059 H 0.22941 0.76828 0.29098 0.0
C1060 C 0.52937 0.2167 0.64391 0.0
C1061 C 0.51424 0.19896 0.67552 0.0
C1062 C 0.52779 0.23849 0.63652 0.0
C1063 C 0.51112 0.24293 0.66217 0.0
C1064 C 0.49547 0.22485 0.69368 0.0
C1065 C 0.49701 0.20288 0.69963 0.0
C1066 C 0.54439 0.25705 0.60195 0.0
C1067 C 0.47787 0.2292 0.72227 0.0
C1068 C 0.53125 0.31211 0.67468 0.0
C1069 C 0.51511 0.31469 0.64527 0.0
C1070 C 0.52943 0.28861 0.68171 0.0
C1071 C 0.51145 0.2673 0.6579 0.0
C1072 C 0.49486 0.26972 0.62853 0.0
C1073 C 0.49669 0.29339 0.62294 0.0
C1074 C 0.5471 0.2867 0.71402 0.0
C1075 C 0.47582 0.24754 0.6019 0.0
H1076 H 0.54252 0.21356 0.62489 0.0
H1077 H 0.48537 0.18921 0.72425 0.0
H1078 H 0.53288 0.26153 0.57956 0.0
H1079 H 0.55848 0.27498 0.61765 0.0
H1080 H 0.55463 0.24973 0.58227 0.0
H1081 H 0.46599 0.2127 0.74354 0.0
H1082 H 0.48905 0.24593 0.74338 0.0
H1083 H 0.46534 0.23327 0.70187 0.0
H1084 H 0.54536 0.32852 0.69229 0.0
H1085 H 0.48429 0.29541 0.59998 0.0
H1086 H 0.56007 0.28195 0.69653 0.0
H1087 H 0.53621 0.27131 0.73783 0.0
H1088 H 0.5586 0.30457 0.73234 0.0
H1089 H 0.48583 0.24116 0.57957 0.0
H1090 H 0.46354 0.25228 0.58203 0.0
H1091 H 0.46373 0.23143 0.62363 0.0
C1092 C 0.46989 0.52812 0.09775 0.0
C1093 C 0.45039 0.51481 0.06756 0.0
C1094 C 0.48976 0.52304 0.1021 0.0
C1095 C 0.49043 0.5047 0.07479 0.0
C1096 C 0.47067 0.49106 0.04451 0.0
C1097 C 0.45071 0.49606 0.04167 0.0
C1098 C 0.51016 0.53748 0.13555 0.0
C1099 C 0.47098 0.47171 0.0142 0.0
C1100 C 0.55377 0.51033 0.05001 0.0
C1101 C 0.55256 0.49043 0.07475 0.0
C1102 C 0.53377 0.51532 0.05009 0.0
C1103 C 0.5123 0.50046 0.07642 0.0
C1104 C 0.51138 0.48098 0.10282 0.0
C1105 C 0.5314 0.47599 0.10126 0.0
C1106 C 0.53525 0.53596 0.02086 0.0
C1107 C 0.48907 0.46518 0.13216 0.0
H1108 H 0.46954 0.54243 0.11821 0.0
H1109 H 0.43572 0.48579 0.0182 0.0
H1110 H 0.5126 0.52417 0.1569 0.0
H1111 H 0.52844 0.54949 0.11878 0.0
H1112 H 0.50588 0.54975 0.1564 0.0
H1113 H 0.45403 0.46257 0.99284 0.0
H1114 H 0.48804 0.48086 0.99315 0.0
H1115 H 0.47198 0.45684 0.03342 0.0
H1116 H 0.57001 0.52153 0.02936 0.0
H1117 H 0.53048 0.46074 0.12079 0.0
H1118 H 0.533 0.54995 0.04051 0.0
H1119 H 0.5196 0.52776 -0.00326 0.0
H1120 H 0.55343 0.546 0.00281 0.0
H1121 H 0.48523 0.47756 0.15349 0.0
H1122 H 0.49215 0.45211 0.15312 0.0
H1123 H 0.47196 0.45385 0.112 0.0
C1124 C 0.94368 0.47389 0.37882 0.0
C1125 C 0.93497 0.45202 0.40412 0.0
C1126 C 0.96928 0.49251 0.37895 0.0
C1127 C 0.98629 0.48952 0.40635 0.0
C1128 C 0.97736 0.46774 0.433 0.0
C1129 C 0.95182 0.44895 0.43088 0.0
C1130 C 0.97822 0.51505 0.34899 0.0
C1131 C 0.99474 0.46432 0.46375 0.0
C1132 C 0.05598 0.52519 0.37765 0.0
C1133 C 0.06459 0.54701 0.40305 0.0
C1134 C 0.03046 0.50631 0.37832 0.0
C1135 C 0.0135 0.50898 0.40636 0.0
C1136 C 0.0224 0.53064 0.43327 0.0
C1137 C 0.04781 0.54969 0.43062 0.0
C1138 C 0.02153 0.48393 0.34805 0.0
C1139 C 0.00509 0.53373 0.46468 0.0
H1140 H 0.93057 0.47603 0.35782 0.0
H1141 H 0.9449 0.43203 0.45064 0.0
H1142 H 0.98683 0.53273 0.3684 0.0
H1143 H 0.99302 0.5161 0.32665 0.0
H1144 H 0.96264 0.5142 0.32899 0.0
H1145 H 0.98449 0.44706 0.48417 0.0
H1146 H 0.00953 0.46303 0.44484 0.0
H1147 H 0.00449 0.48096 0.48565 0.0
H1148 H 0.06904 0.52336 0.35606 0.0
H1149 H 0.05467 0.56657 0.45046 0.0
H1150 H 0.00681 0.48306 0.32571 0.0
H1151 H 0.0128 0.46613 0.36717 0.0
H1152 H 0.03712 0.48483 0.32805 0.0
H1153 H 0.99034 0.53534 0.44623 0.0
H1154 H 0.01541 0.55074 0.48566 0.0
H1155 H 0.9953 0.51684 0.48603 0.0
C1156 C 0.49039 0.04305 0.72727 0.0
C1157 C 0.50974 0.06181 0.75276 0.0
C1158 C 0.48494 0.01789 0.72929 0.0
C1159 C 0.49882 0.01128 0.75816 0.0
C1160 C 0.5175 0.02989 0.78556 0.0
C1161 C 0.52293 0.05499 0.78221 0.0
C1162 C 0.46512 0.99863 0.69909 0.0
C1163 C 0.53229 0.02345 0.81747 0.0
C1164 C 0.47167 0.94137 0.78133 0.0
C1165 C 0.48607 0.93539 0.75324 0.0
C1166 C 0.47604 0.96615 0.78419 0.0
C1167 C 0.49487 0.98524 0.75764 0.0
C1168 C 0.50964 0.97937 0.72958 0.0
C1169 C 0.50525 0.95458 0.72809 0.0
C1170 C 0.46034 0.97185 0.81526 0.0
C1171 C 0.52966 0.99914 0.70026 0.0
H1172 H 0.48019 0.04818 0.70435 0.0
H1173 H 0.53774 0.06937 0.80233 0.0
H1174 H 0.47409 0.99152 0.67588 0.0
H1175 H 0.45089 0.98219 0.71809 0.0
H1176 H 0.45526 0.00659 0.67998 0.0
H1177 H 0.54437 0.03953 0.83936 0.0
H1178 H 0.51928 0.00702 0.83787 0.0
H1179 H 0.54456 0.01803 0.79927 0.0
H1180 H 0.45696 0.92666 0.80116 0.0
H1181 H 0.5164 0.95011 0.70621 0.0
H1182 H 0.44881 0.97799 0.79655 0.0
H1183 H 0.47281 0.98762 0.83733 0.0
H1184 H 0.44749 0.95522 0.8355 0.0
H1185 H 0.52095 0.0069 0.6778 0.0
H1186 H 0.53951 0.99148 0.68037 0.0
H1187 H 0.54389 0.01509 0.72017 0.0
C1188 C 0.50626 0.55141 0.60372 0.0
C1189 C 0.48707 0.55075 0.57767 0.0
C1190 C 0.51137 0.53148 0.60307 0.0
C1191 C 0.4974 0.5107 0.57483 0.0
C1192 C 0.47847 0.51024 0.54755 0.0
C1193 C 0.4733 0.53014 0.5497 0.0
C1194 C 0.53136 0.53241 0.63332 0.0
C1195 C 0.46364 0.4887 0.51623 0.0
C1196 C 0.52701 0.47026 0.55078 0.0
C1197 C 0.51339 0.4497 0.57893 0.0
C1198 C 0.52144 0.48987 0.54798 0.0
C1199 C 0.50223 0.48917 0.5748 0.0
C1200 C 0.48823 0.46832 0.60291 0.0
C1201 C 0.49376 0.44867 0.6042 0.0
C1202 C 0.53633 0.51149 0.51679 0.0
C1203 C 0.46794 0.46713 0.63266 0.0
H1204 H 0.51687 0.56724 0.62552 0.0
H1205 H 0.45863 0.52969 0.52916 0.0
H1206 H 0.52283 0.51585 0.65559 0.0
H1207 H 0.54619 0.53136 0.61412 0.0
H1208 H 0.54043 0.54988 0.65342 0.0
H1209 H 0.45054 0.49189 0.49556 0.0
H1210 H 0.47671 0.48608 0.49457 0.0
H1211 H 0.45247 0.47087 0.53474 0.0
H1212 H 0.54204 0.47101 0.53084 0.0
H1213 H 0.48324 0.43289 0.62614 0.0
H1214 H 0.54763 0.52922 0.53548 0.0
H1215 H 0.52332 0.51432 0.49533 0.0
H1216 H 0.54933 0.50826 0.49593 0.0
H1217 H 0.4763 0.48342 0.6555 0.0
H1218 H 0.45857 0.44943 0.65215 0.0
H1219 H 0.45338 0.46851 0.61319 0.0
C1220 C 0.05639 0.52467 0.87474 0.0
C1221 C 0.0626 0.51075 0.90361 0.0
C1222 C 0.0315 0.51992 0.87149 0.0
C1223 C 0.01256 0.50122 0.89844 0.0
C1224 C 0.01861 0.48675 0.92692 0.0
C1225 C 0.0435 0.4915 0.92878 0.0
C1226 C 0.02561 0.5353 0.84 0.0
C1227 C 0.999 0.46691 0.95672 0.0
C1228 C 0.95619 0.50765 0.93034 0.0
C1229 C 0.93683 0.48844 0.90552 0.0
C1230 C 0.98101 0.51226 0.92776 0.0
C1231 C 0.98672 0.4977 0.89893 0.0
C1232 C 0.96749 0.47898 0.87243 0.0
C1233 C 0.94268 0.47437 0.8764 0.0
C1234 C 0.00093 0.5321 0.9571 0.0
C1235 C 0.97302 0.4635 0.84059 0.0
H1236 H 0.07103 0.5394 0.85485 0.0
H1237 H 0.04813 0.48069 0.9512 0.0
H1238 H 0.00925 0.52267 0.81913 0.0
H1239 H 0.0203 0.54756 0.8585 0.0
H1240 H 0.04191 0.54745 0.81855 0.0
H1241 H 0.00664 0.45683 0.97605 0.0
H1242 H 0.99182 0.4759 0.97973 0.0
H1243 H 0.98267 0.45284 0.93733 0.0
H1244 H 0.95182 0.51856 0.95296 0.0
H1245 H 0.92783 0.45967 0.85679 0.0
H1246 H 0.01703 0.54619 0.93727 0.0
H1247 H 0.00839 0.52314 0.97961 0.0
H1248 H 0.9935 0.54217 0.97696 0.0
H1249 H 0.98911 0.47608 0.81916 0.0
H1250 H 0.95647 0.45126 0.81973 0.0
H1251 H 0.97859 0.45134 0.85877 0.0
C1252 C 0.45119 0.95354 0.27455 0.0
C1253 C 0.45145 0.93359 0.25247 0.0
C1254 C 0.47155 0.97828 0.27119 0.0
C1255 C 0.49236 0.98326 0.24419 0.0
C1256 C 0.49235 0.96333 0.22064 0.0
C1257 C 0.47202 0.93865 0.2255 0.0
C1258 C 0.47107 0.99897 0.29744 0.0
C1259 C 0.51388 0.96805 0.19063 0.0
C1260 C 0.53409 0.05215 0.2135 0.0
C1261 C 0.55393 0.05988 0.24359 0.0
C1262 C 0.51448 0.02694 0.2119 0.0
C1263 C 0.51442 0.00924 0.24183 0.0
C1264 C 0.53477 0.01678 0.27139 0.0
C1265 C 0.55445 0.04196 0.27154 0.0
C1266 C 0.49344 0.01945 0.17912 0.0
C1267 C 0.53517 0.99856 0.30432 0.0
H1268 H 0.43538 0.94971 0.29552 0.0
H1269 H 0.47215 0.92331 0.20797 0.0
H1270 H 0.48744 0.00757 0.3201 0.0
H1271 H 0.4728 0.01415 0.27535 0.0
H1272 H 0.45347 0.99192 0.3169 0.0
H1273 H 0.51021 0.95079 0.17251 0.0
H1274 H 0.51725 0.98304 0.16663 0.0
H1275 H 0.53148 0.97485 0.20989 0.0
H1276 H 0.53373 0.0659 0.19155 0.0
H1277 H 0.56965 0.04784 0.295 0.0
H1278 H 0.47569 0.01476 0.19646 0.0
H1279 H 0.49004 0.00231 0.16098 0.0
H1280 H 0.49764 0.03475 0.1552 0.0
H1281 H 0.51896 0.99218 0.32707 0.0
H1282 H 0.55288 0.00714 0.32381 0.0
H1283 H 0.53308 0.98154 0.28754 0.0
C1284 C 0.42556 0.5833 0.72241 0.0
C1285 C 0.45084 0.59274 0.71038 0.0
C1286 C 0.4176 0.5759 0.76556 0.0
C1287 C 0.43526 0.5775 0.7971 0.0
C1288 C 0.46086 0.58725 0.7853 0.0
C1289 C 0.46841 0.59503 0.7421 0.0
C1290 C 0.39026 0.56612 0.77728 0.0
C1291 C 0.48013 0.58887 0.81802 0.0
C1292 C 0.4212 0.57764 0.9176 0.0
C1293 C 0.41211 0.55231 0.92896 0.0
C1294 C 0.42839 0.58601 0.87458 0.0
C1295 C 0.42691 0.56872 0.84241 0.0
C1296 C 0.41767 0.54309 0.85358 0.0
C1297 C 0.41011 0.53512 0.89673 0.0
C1298 C 0.43764 0.61336 0.8636 0.0
C1299 C 0.41623 0.52422 0.82015 0.0
H1300 H 0.41195 0.58165 0.69807 0.0
H1301 H 0.48793 0.60213 0.73287 0.0
H1302 H 0.38143 0.54617 0.78809 0.0
H1303 H 0.38895 0.57713 0.80499 0.0
H1304 H 0.37922 0.56721 0.74933 0.0
H1305 H 0.4993 0.59697 0.80354 0.0
H1306 H 0.4811 0.60071 0.84627 0.0
H1307 H 0.47436 0.56976 0.83088 0.0
H1308 H 0.42259 0.59096 0.9423 0.0
H1309 H 0.40326 0.51556 0.90545 0.0
H1310 H 0.42619 0.61464 0.83663 0.0
H1311 H 0.45747 0.62254 0.85202 0.0
H1312 H 0.43671 0.62413 0.89212 0.0
H1313 H 0.40395 0.52309 0.7925 0.0
H1314 H 0.40871 0.50503 0.83425 0.0
H1315 H 0.43529 0.53052 0.80654 0.0
C1316 C 0.87896 0.40891 0.23883 0.0
C1317 C 0.86063 0.40855 0.26676 0.0
C1318 C 0.88003 0.4157 0.19469 0.0
C1319 C 0.86202 0.42172 0.17825 0.0
C1320 C 0.84279 0.42023 0.20593 0.0
C1321 C 0.84248 0.41388 0.24998 0.0
C1322 C 0.90097 0.41741 0.16615 0.0
C1323 C 0.82294 0.426 0.18934 0.0
C1324 C 0.8773 0.46532 0.08091 0.0
C1325 C 0.86467 0.44812 0.04701 0.0
C1326 C 0.8772 0.45691 0.1236 0.0
C1327 C 0.86381 0.43069 0.13265 0.0
C1328 C 0.85116 0.41321 0.09859 0.0
C1329 C 0.85192 0.42212 0.05608 0.0
C1330 C 0.89118 0.47608 0.1591 0.0
C1331 C 0.83637 0.38513 0.10724 0.0
H1332 H 0.89309 0.40493 0.2519 0.0
H1333 H 0.82809 0.41329 0.27146 0.0
H1334 H 0.89306 0.406 0.13605 0.0
H1335 H 0.91342 0.43728 0.15576 0.0
H1336 H 0.91264 0.41082 0.18332 0.0
H1337 H 0.80829 0.42223 0.21436 0.0
H1338 H 0.83196 0.44614 0.17957 0.0
H1339 H 0.81357 0.4145 0.15988 0.0
H1340 H 0.88742 0.48542 0.0741 0.0
H1341 H 0.84214 0.40868 0.0301 0.0
H1342 H 0.90457 0.47163 0.17593 0.0
H1343 H 0.87762 0.47527 0.18404 0.0
H1344 H 0.90188 0.49566 0.14613 0.0
H1345 H 0.84866 0.37882 0.1228 0.0
H1346 H 0.82822 0.37401 0.07686 0.0
H1347 H 0.82075 0.38081 0.13042 0.0
C1348 C 0.46513 0.87376 0.58173 0.0
C1349 C 0.44755 0.86129 0.61525 0.0
C1350 C 0.45717 0.8742 0.53895 0.0
C1351 C 0.43103 0.86151 0.52942 0.0
C1352 C 0.41318 0.84881 0.56297 0.0
C1353 C 0.42166 0.84902 0.60561 0.0
C1354 C 0.47672 0.8882 0.50396 0.0
C1355 C 0.38517 0.83477 0.55373 0.0
C1356 C 0.41031 0.8793 0.42493 0.0
C1357 C 0.40919 0.86102 0.39599 0.0
C1358 C 0.41719 0.8796 0.46878 0.0
C1359 C 0.42247 0.86083 0.4839 0.0
C1360 C 0.42043 0.8418 0.45512 0.0
C1361 C 0.41406 0.84228 0.41135 0.0
C1362 C 0.41958 0.9004 0.49851 0.0
C1363 C 0.42539 0.82116 0.47037 0.0
H1364 H 0.48516 0.88351 0.58897 0.0
H1365 H 0.40795 0.83937 0.63132 0.0
H1366 H 0.47544 0.87482 0.47824 0.0
H1367 H 0.47307 0.90238 0.48801 0.0
H1368 H 0.49625 0.89802 0.51723 0.0
H1369 H 0.37376 0.82605 0.58365 0.0
H1370 H 0.37939 0.84779 0.53945 0.0
H1371 H 0.38065 0.81968 0.5293 0.0
H1372 H 0.40665 0.89386 0.41293 0.0
H1373 H 0.41283 0.82792 0.38911 0.0
H1374 H 0.43941 0.9119 0.50981 0.0
H1375 H 0.40765 0.89224 0.52801 0.0
H1376 H 0.414 0.91306 0.48198 0.0
H1377 H 0.44539 0.8295 0.48065 0.0
H1378 H 0.42151 0.80694 0.44444 0.0
H1379 H 0.41349 0.81137 0.49926 0.0
C1380 C 0.57671 0.42413 0.73047 0.0
C1381 C 0.55138 0.41388 0.71813 0.0
C1382 C 0.5844 0.43185 0.77353 0.0
C1383 C 0.56638 0.4297 0.80474 0.0
C1384 C 0.54076 0.4194 0.79256 0.0
C1385 C 0.53349 0.41134 0.74937 0.0
C1386 C 0.6118 0.44223 0.78565 0.0
C1387 C 0.52112 0.4172 0.82498 0.0
C1388 C 0.58077 0.42827 0.92459 0.0
C1389 C 0.58977 0.45343 0.93689 0.0
C1390 C 0.57327 0.42034 0.88153 0.0
C1391 C 0.57435 0.43792 0.85032 0.0
C1392 C 0.58337 0.46336 0.86248 0.0
C1393 C 0.59127 0.4709 0.90566 0.0
C1394 C 0.56429 0.39319 0.86944 0.0
C1395 C 0.58439 0.4825 0.83006 0.0
H1396 H 0.59057 0.42597 0.70651 0.0
H1397 H 0.51392 0.40363 0.73983 0.0
H1398 H 0.61999 0.4619 0.79767 0.0
H1399 H 0.61332 0.43091 0.81262 0.0
H1400 H 0.6233 0.44213 0.75759 0.0
H1401 H 0.5021 0.40922 0.80999 0.0
H1402 H 0.51996 0.40497 0.85274 0.0
H1403 H 0.52666 0.43608 0.83867 0.0
H1404 H 0.57978 0.41476 0.94855 0.0
H1405 H 0.59801 0.49032 0.91521 0.0
H1406 H 0.57605 0.39243 0.8425 0.0
H1407 H 0.54456 0.38404 0.85736 0.0
H1408 H 0.56509 0.38206 0.89751 0.0
H1409 H 0.59691 0.4844 0.80231 0.0
H1410 H 0.59141 0.5014 0.84505 0.0
H1411 H 0.5653 0.47595 0.81637 0.0
C1412 C 0.12256 0.53432 0.07848 0.0
C1413 C 0.13476 0.55161 0.04445 0.0
C1414 C 0.12246 0.54267 0.12114 0.0
C1415 C 0.1352 0.5689 0.13003 0.0
C1416 C 0.14743 0.58645 0.09586 0.0
C1417 C 0.14688 0.57759 0.05338 0.0
C1418 C 0.10894 0.52341 0.15677 0.0
C1419 C 0.16154 0.61455 0.10432 0.0
C1420 C 0.11934 0.59019 0.23603 0.0
C1421 C 0.13804 0.59129 0.2639 0.0
C1422 C 0.11834 0.58326 0.19199 0.0
C1423 C 0.13679 0.57786 0.17558 0.0
C1424 C 0.15634 0.58006 0.20321 0.0
C1425 C 0.15659 0.58653 0.24716 0.0
C1426 C 0.09704 0.58078 0.16352 0.0
C1427 C 0.17666 0.57498 0.18664 0.0
H1428 H 0.11293 0.51422 0.07179 0.0
H1429 H 0.15631 0.5911 0.02731 0.0
H1430 H 0.12273 0.52471 0.18169 0.0
H1431 H 0.09521 0.52736 0.1736 0.0
H1432 H 0.09872 0.50379 0.14393 0.0
H1433 H 0.16943 0.62571 0.07387 0.0
H1434 H 0.14885 0.62038 0.11982 0.0
H1435 H 0.17728 0.61935 0.12749 0.0
H1436 H 0.1049 0.59371 0.24908 0.0
H1437 H 0.17126 0.58769 0.26858 0.0
H1438 H 0.08508 0.56081 0.15325 0.0
H1439 H 0.10465 0.59222 0.13335 0.0
H1440 H 0.08496 0.58686 0.18069 0.0
H1441 H 0.16812 0.55486 0.177 0.0
H1442 H 0.19144 0.57919 0.21163 0.0
H1443 H 0.18578 0.58654 0.1571 0.0
C1444 C 0.55769 0.11522 0.59548 0.0
C1445 C 0.54723 0.13024 0.60665 0.0
C1446 C 0.5646 0.11413 0.55221 0.0
C1447 C 0.56184 0.1292 0.51996 0.0
C1448 C 0.55151 0.14463 0.53133 0.0
C1449 C 0.54385 0.1446 0.57457 0.0
C1450 C 0.57471 0.09679 0.54097 0.0
C1451 C 0.54904 0.16155 0.49807 0.0
C1452 C 0.60269 0.14468 0.41861 0.0
C1453 C 0.58494 0.12911 0.38752 0.0
C1454 C 0.59535 0.14514 0.46189 0.0
C1455 C 0.5699 0.12893 0.47435 0.0
C1456 C 0.5521 0.11261 0.44315 0.0
C1457 C 0.55977 0.11328 0.39976 0.0
C1458 C 0.61465 0.16336 0.49396 0.0
C1459 C 0.52502 0.09445 0.4556 0.0
H1460 H 0.56008 0.10403 0.62055 0.0
H1461 H 0.53596 0.15638 0.58363 0.0
H1462 H 0.56333 0.08376 0.51426 0.0
H1463 H 0.5944 0.10798 0.52893 0.0
H1464 H 0.57446 0.08539 0.5695 0.0
H1465 H 0.54139 0.173 0.51263 0.0
H1466 H 0.56776 0.17452 0.48345 0.0
H1467 H 0.5364 0.15005 0.47107 0.0
H1468 H 0.6221 0.15708 0.40868 0.0
H1469 H 0.54617 0.10118 0.37543 0.0
H1470 H 0.6167 0.15287 0.52176 0.0
H1471 H 0.60818 0.17599 0.50762 0.0
H1472 H 0.63347 0.17518 0.47863 0.0
H1473 H 0.52439 0.08239 0.48329 0.0
H1474 H 0.51397 0.08207 0.42792 0.0
H1475 H 0.51573 0.10507 0.46673 0.0
loop_
_geom_bond_atom_site_label_1
_geom_bond_atom_site_label_2
_geom_bond_distance
_geom_bond_site_symmetry_2
_ccdc_geom_bond_type
Co0 O2 2.143 . S
Co0 O8 2.074 . S
Co0 O11 2.093 . S
Co0 O24 2.097 1_554 S
Co0 N41 2.151 . S
Co0 N49 2.214 1_554 S
Co1 O2 2.160 . S
Co1 O7 2.058 . S
Co1 O17 2.057 . S
Co1 O32 2.037 . S
Co1 N36 2.145 . S
Co1 N57 2.257 . S
O2 Co0 2.143 . S
O2 Co1 2.160 . S
C3 O4 1.278 . S
C3 O11 1.224 . S
O4 C3 1.278 . S
C5 O6 1.245 . S
C5 O17 1.232 . S
O6 C5 1.245 . S
O7 Co1 2.058 . S
O7 C33 1.269 . S
O8 Co0 2.074 . S
O8 C33 1.257 . S
H9 C34 0.930 . S
H10 C40 0.930 . S
O11 Co0 2.093 . S
O11 C3 1.224 . S
H12 C44 0.929 . S
H13 C46 0.930 . S
H14 C47 0.930 . S
H15 C45 0.929 . S
H16 C48 0.928 . S
O17 Co1 2.057 . S
O17 C5 1.232 . S
H18 C37 0.929 . S
H19 C38 0.929 . S
H20 C50 0.931 . S
H21 C42 0.929 . S
H22 C51 0.930 . S
H23 C43 0.931 . S
O24 Co0 2.097 1_556 S
O24 C52 1.214 . S
H25 C53 0.929 . S
H26 C54 0.929 . S
H27 C55 0.930 . S
H28 C56 0.929 . S
H29 C58 0.930 . S
H30 C35 0.930 . S
H31 C39 0.930 . S
O32 Co1 2.037 . S
O32 C52 1.234 1_554 S
C33 O7 1.269 . S
C33 O8 1.257 . S
C34 H9 0.930 . S
C34 C37 1.388 . S
C34 C39 1.418 . S
C35 H30 0.930 . S
C35 C38 1.404 . S
C35 C39 1.353 . S
N36 Co1 2.145 . S
N36 C37 1.397 . S
N36 C38 1.334 . S
C37 H18 0.929 . S
C37 C34 1.388 . S
C37 N36 1.397 . S
C38 H19 0.929 . S
C38 C35 1.404 . S
C38 N36 1.334 . S
C39 H31 0.930 . S
C39 C34 1.418 . S
C39 C35 1.353 . S
C40 H10 0.930 . S
C40 N41 1.330 . S
C40 C42 1.446 . S
N41 Co0 2.151 . S
N41 C40 1.330 . S
N41 C45 1.418 . S
C42 H21 0.929 . S
C42 C40 1.446 . S
C42 C43 1.332 . S
C43 H23 0.931 . S
C43 C42 1.332 . S
C43 C44 1.267 . S
C44 H12 0.929 . S
C44 C43 1.267 . S
C44 C45 1.251 . S
C45 H15 0.929 . S
C45 N41 1.418 . S
C45 C44 1.251 . S
C46 H13 0.930 . S
C46 C48 1.406 . S
C46 C51 1.261 . S
C47 H14 0.930 . S
C47 N49 1.325 . S
C47 C50 1.357 . S
C48 H16 0.928 . S
C48 C46 1.406 . S
C48 N49 1.261 . S
N49 Co0 2.214 1_556 S
N49 C47 1.325 . S
N49 C48 1.261 . S
C50 H20 0.931 . S
C50 C47 1.357 . S
C50 C51 1.312 . S
C51 H22 0.930 . S
C51 C46 1.261 . S
C51 C50 1.312 . S
C52 O24 1.214 . S
C52 O32 1.234 1_556 S
C53 H25 0.929 . S
C53 C56 1.391 . S
C53 C58 1.391 . S
C54 H26 0.929 . S
C54 C55 1.390 . S
C54 N57 1.391 . S
C55 H27 0.930 . S
C55 C54 1.390 . S
C55 C56 1.392 . S
C56 H28 0.929 . S
C56 C53 1.391 . S
C56 C55 1.392 . S
N57 Co1 2.257 . S
N57 C54 1.391 . S
N57 C58 1.388 . S
C58 H29 0.930 . S
C58 C53 1.391 . S
C58 N57 1.388 . S
Co59 O61 2.143 . S
Co59 O67 2.074 . S
Co59 O70 2.093 . S
Co59 O83 2.097 . S
Co59 N100 2.151 . S
Co59 N108 2.214 . S
Co60 O61 2.160 . S
Co60 O66 2.058 . S
Co60 O76 2.057 . S
Co60 O91 2.037 . S
Co60 N95 2.145 . S
Co60 N116 2.257 . S
O61 Co59 2.143 . S
O61 Co60 2.160 . S
C62 O63 1.278 . S
C62 O70 1.224 . S
O63 C62 1.278 . S
C64 O65 1.245 . S
C64 O76 1.232 . S
O65 C64 1.245 . S
O66 Co60 2.058 . S
O66 C92 1.269 . S
O67 Co59 2.074 . S
O67 C92 1.257 . S
H68 C93 0.930 . S
H69 C99 0.930 . S
O70 Co59 2.093 . S
O70 C62 1.224 . S
H71 C103 0.929 . S
H72 C105 0.930 . S
H73 C106 0.930 . S
H74 C104 0.929 . S
H75 C107 0.928 . S
O76 Co60 2.057 . S
O76 C64 1.232 . S
H77 C96 0.929 . S
H78 C97 0.929 . S
H79 C109 0.931 . S
H80 C101 0.929 . S
H81 C110 0.930 . S
H82 C102 0.931 . S
O83 Co59 2.097 . S
O83 C111 1.214 . S
H84 C112 0.929 . S
H85 C113 0.929 . S
H86 C114 0.930 . S
H87 C115 0.929 . S
H88 C117 0.930 . S
H89 C94 0.930 . S
H90 C98 0.930 . S
O91 Co60 2.037 . S
O91 C111 1.234 . S
C92 O66 1.269 . S
C92 O67 1.257 . S
C93 H68 0.930 . S
C93 C96 1.388 . S
C93 C98 1.418 . S
C94 H89 0.930 . S
C94 C97 1.404 . S
C94 C98 1.353 . S
N95 Co60 2.145 . S
N95 C96 1.397 . S
N95 C97 1.334 . S
C96 H77 0.929 . S
C96 C93 1.388 . S
C96 N95 1.397 . S
C97 H78 0.929 . S
C97 C94 1.404 . S
C97 N95 1.334 . S
C98 H90 0.930 . S
C98 C93 1.418 . S
C98 C94 1.353 . S
C99 H69 0.930 . S
C99 N100 1.330 . S
C99 C101 1.446 . S
N100 Co59 2.151 . S
N100 C99 1.330 . S
N100 C104 1.418 . S
C101 H80 0.929 . S
C101 C99 1.446 . S
C101 C102 1.332 . S
C102 H82 0.931 . S
C102 C101 1.332 . S
C102 C103 1.267 . S
C103 H71 0.929 . S
C103 C102 1.267 . S
C103 C104 1.251 . S
C104 H74 0.929 . S
C104 N100 1.418 . S
C104 C103 1.251 . S
C105 H72 0.930 . S
C105 C107 1.406 . S
C105 C110 1.261 . S
C106 H73 0.930 . S
C106 N108 1.325 . S
C106 C109 1.357 . S
C107 H75 0.928 . S
C107 C105 1.406 . S
C107 N108 1.261 . S
N108 Co59 2.214 . S
N108 C106 1.325 . S
N108 C107 1.261 . S
C109 H79 0.931 . S
C109 C106 1.357 . S
C109 C110 1.312 . S
C110 H81 0.930 . S
C110 C105 1.261 . S
C110 C109 1.312 . S
C111 O83 1.214 . S
C111 O91 1.234 . S
C112 H84 0.929 . S
C112 C115 1.391 . S
C112 C117 1.391 . S
C113 H85 0.929 . S
C113 C114 1.390 . S
C113 N116 1.391 . S
C114 H86 0.930 . S
C114 C113 1.390 . S
C114 C115 1.392 . S
C115 H87 0.929 . S
C115 C112 1.391 . S
C115 C114 1.392 . S
N116 Co60 2.257 . S
N116 C113 1.391 . S
N116 C117 1.388 . S
C117 H88 0.930 . S
C117 C112 1.391 . S
C117 N116 1.388 . S
Co118 O120 2.143 . S
Co118 O126 2.074 . S
Co118 O129 2.093 . S
Co118 O142 2.097 . S
Co118 N159 2.151 . S
Co118 N167 2.214 . S
Co119 O120 2.160 . S
Co119 O125 2.058 . S
Co119 O135 2.057 . S
Co119 O150 2.037 . S
Co119 N154 2.145 . S
Co119 N175 2.257 . S
O120 Co118 2.143 . S
O120 Co119 2.160 . S
C121 O122 1.278 . S
C121 O129 1.224 . S
O122 C121 1.278 . S
C123 O124 1.245 . S
C123 O135 1.232 . S
O124 C123 1.245 . S
O125 Co119 2.058 . S
O125 C151 1.269 . S
O126 Co118 2.074 . S
O126 C151 1.257 . S
H127 C152 0.930 . S
H128 C158 0.930 . S
O129 Co118 2.093 . S
O129 C121 1.224 . S
H130 C162 0.929 . S
H131 C164 0.930 . S
H132 C165 0.930 . S
H133 C163 0.929 . S
H134 C166 0.928 . S
O135 Co119 2.057 . S
O135 C123 1.232 . S
H136 C155 0.929 . S
H137 C156 0.929 . S
H138 C168 0.931 . S
H139 C160 0.929 . S
H140 C169 0.930 . S
H141 C161 0.931 . S
O142 Co118 2.097 . S
O142 C170 1.214 . S
H143 C171 0.929 . S
H144 C172 0.929 . S
H145 C173 0.930 . S
H146 C174 0.929 . S
H147 C176 0.930 . S
H148 C153 0.930 . S
H149 C157 0.930 . S
O150 Co119 2.037 . S
O150 C170 1.234 . S
C151 O125 1.269 . S
C151 O126 1.257 . S
C152 H127 0.930 . S
C152 C155 1.388 . S
C152 C157 1.418 . S
C153 H148 0.930 . S
C153 C156 1.404 . S
C153 C157 1.353 . S
N154 Co119 2.145 . S
N154 C155 1.397 . S
N154 C156 1.334 . S
C155 H136 0.929 . S
C155 C152 1.388 . S
C155 N154 1.397 . S
C156 H137 0.929 . S
C156 C153 1.404 . S
C156 N154 1.334 . S
C157 H149 0.930 . S
C157 C152 1.418 . S
C157 C153 1.353 . S
C158 H128 0.930 . S
C158 N159 1.330 . S
C158 C160 1.446 . S
N159 Co118 2.151 . S
N159 C158 1.330 . S
N159 C163 1.418 . S
C160 H139 0.929 . S
C160 C158 1.446 . S
C160 C161 1.332 . S
C161 H141 0.931 . S
C161 C160 1.332 . S
C161 C162 1.267 . S
C162 H130 0.929 . S
C162 C161 1.267 . S
C162 C163 1.251 . S
C163 H133 0.929 . S
C163 N159 1.418 . S
C163 C162 1.251 . S
C164 H131 0.930 . S
C164 C166 1.406 . S
C164 C169 1.261 . S
C165 H132 0.930 . S
C165 N167 1.325 . S
C165 C168 1.357 . S
C166 H134 0.928 . S
C166 C164 1.406 . S
C166 N167 1.261 . S
N167 Co118 2.214 . S
N167 C165 1.325 . S
N167 C166 1.261 . S
C168 H138 0.931 . S
C168 C165 1.357 . S
C168 C169 1.312 . S
C169 H140 0.930 . S
C169 C164 1.261 . S
C169 C168 1.312 . S
C170 O142 1.214 . S
C170 O150 1.234 . S
C171 H143 0.929 . S
C171 C174 1.391 . S
C171 C176 1.391 . S
C172 H144 0.929 . S
C172 C173 1.390 . S
C172 N175 1.391 . S
C173 H145 0.930 . S
C173 C172 1.390 . S
C173 C174 1.392 . S
C174 H146 0.929 . S
C174 C171 1.391 . S
C174 C173 1.392 . S
N175 Co119 2.257 . S
N175 C172 1.391 . S
N175 C176 1.388 . S
C176 H147 0.930 . S
C176 C171 1.391 . S
C176 N175 1.388 . S
Co177 O179 2.143 . S
Co177 O185 2.074 . S
Co177 O188 2.093 . S
Co177 O201 2.097 1_554 S
Co177 N218 2.151 . S
Co177 N226 2.214 1_554 S
Co178 O179 2.160 . S
Co178 O184 2.058 . S
Co178 O194 2.057 . S
Co178 O209 2.037 . S
Co178 N213 2.145 . S
Co178 N234 2.257 . S
O179 Co177 2.143 . S
O179 Co178 2.160 . S
C180 O181 1.278 . S
C180 O188 1.224 . S
O181 C180 1.278 . S
C182 O183 1.245 . S
C182 O194 1.232 . S
O183 C182 1.245 . S
O184 Co178 2.058 . S
O184 C210 1.269 . S
O185 Co177 2.074 . S
O185 C210 1.257 . S
H186 C211 0.930 . S
H187 C217 0.930 . S
O188 Co177 2.093 . S
O188 C180 1.224 . S
H189 C221 0.929 . S
H190 C223 0.930 . S
H191 C224 0.930 . S
H192 C222 0.929 . S
H193 C225 0.928 . S
O194 Co178 2.057 . S
O194 C182 1.232 . S
H195 C214 0.929 . S
H196 C215 0.929 . S
H197 C227 0.931 . S
H198 C219 0.929 . S
H199 C228 0.930 . S
H200 C220 0.931 . S
O201 Co177 2.097 1_556 S
O201 C229 1.214 . S
H202 C230 0.929 . S
H203 C231 0.929 . S
H204 C232 0.930 . S
H205 C233 0.929 . S
H206 C235 0.930 . S
H207 C212 0.930 . S
H208 C216 0.930 . S
O209 Co178 2.037 . S
O209 C229 1.234 1_554 S
C210 O184 1.269 . S
C210 O185 1.257 . S
C211 H186 0.930 . S
C211 C214 1.388 . S
C211 C216 1.418 . S
C212 H207 0.930 . S
C212 C215 1.404 . S
C212 C216 1.353 . S
N213 Co178 2.145 . S
N213 C214 1.397 . S
N213 C215 1.334 . S
C214 H195 0.929 . S
C214 C211 1.388 . S
C214 N213 1.397 . S
C215 H196 0.929 . S
C215 C212 1.404 . S
C215 N213 1.334 . S
C216 H208 0.930 . S
C216 C211 1.418 . S
C216 C212 1.353 . S
C217 H187 0.930 . S
C217 N218 1.330 . S
C217 C219 1.446 . S
N218 Co177 2.151 . S
N218 C217 1.330 . S
N218 C222 1.418 . S
C219 H198 0.929 . S
C219 C217 1.446 . S
C219 C220 1.332 . S
C220 H200 0.931 . S
C220 C219 1.332 . S
C220 C221 1.267 . S
C221 H189 0.929 . S
C221 C220 1.267 . S
C221 C222 1.251 . S
C222 H192 0.929 . S
C222 N218 1.418 . S
C222 C221 1.251 . S
C223 H190 0.930 . S
C223 C225 1.406 . S
C223 C228 1.261 . S
C224 H191 0.930 . S
C224 N226 1.325 . S
C224 C227 1.357 . S
C225 H193 0.928 . S
C225 C223 1.406 . S
C225 N226 1.261 . S
N226 Co177 2.214 1_556 S
N226 C224 1.325 . S
N226 C225 1.261 . S
C227 H197 0.931 . S
C227 C224 1.357 . S
C227 C228 1.312 . S
C228 H199 0.930 . S
C228 C223 1.261 . S
C228 C227 1.312 . S
C229 O201 1.214 . S
C229 O209 1.234 1_556 S
C230 H202 0.929 . S
C230 C233 1.391 . S
C230 C235 1.391 . S
C231 H203 0.929 . S
C231 C232 1.390 . S
C231 N234 1.391 . S
C232 H204 0.930 . S
C232 C231 1.390 . S
C232 C233 1.392 . S
C233 H205 0.929 . S
C233 C230 1.391 . S
C233 C232 1.392 . S
N234 Co178 2.257 . S
N234 C231 1.391 . S
N234 C235 1.388 . S
C235 H206 0.930 . S
C235 C230 1.391 . S
C235 N234 1.388 . S
Co236 O238 2.143 . S
Co236 O244 2.074 . S
Co236 O247 2.093 . S
Co236 O260 2.097 . S
Co236 N277 2.151 . S
Co236 N285 2.214 . S
Co237 O238 2.160 . S
Co237 O243 2.058 . S
Co237 O253 2.057 . S
Co237 O268 2.037 . S
Co237 N272 2.145 . S
Co237 N293 2.257 . S
O238 Co236 2.143 . S
O238 Co237 2.160 . S
C239 O240 1.278 . S
C239 O247 1.224 . S
O240 C239 1.278 . S
C241 O242 1.245 . S
C241 O253 1.232 . S
O242 C241 1.245 . S
O243 Co237 2.058 . S
O243 C269 1.269 . S
O244 Co236 2.074 . S
O244 C269 1.257 . S
H245 C270 0.930 . S
H246 C276 0.930 . S
O247 Co236 2.093 . S
O247 C239 1.224 . S
H248 C280 0.929 . S
H249 C282 0.930 . S
H250 C283 0.930 . S
H251 C281 0.929 . S
H252 C284 0.928 . S
O253 Co237 2.057 . S
O253 C241 1.232 . S
H254 C273 0.929 . S
H255 C274 0.929 . S
H256 C286 0.931 . S
H257 C278 0.929 . S
H258 C287 0.930 . S
H259 C279 0.931 . S
O260 Co236 2.097 . S
O260 C288 1.214 . S
H261 C289 0.929 . S
H262 C290 0.929 . S
H263 C291 0.930 . S
H264 C292 0.929 . S
H265 C294 0.930 . S
H266 C271 0.930 . S
H267 C275 0.930 . S
O268 Co237 2.037 . S
O268 C288 1.234 . S
C269 O243 1.269 . S
C269 O244 1.257 . S
C270 H245 0.930 . S
C270 C273 1.388 . S
C270 C275 1.418 . S
C271 H266 0.930 . S
C271 C274 1.404 . S
C271 C275 1.353 . S
N272 Co237 2.145 . S
N272 C273 1.397 . S
N272 C274 1.334 . S
C273 H254 0.929 . S
C273 C270 1.388 . S
C273 N272 1.397 . S
C274 H255 0.929 . S
C274 C271 1.404 . S
C274 N272 1.334 . S
C275 H267 0.930 . S
C275 C270 1.418 . S
C275 C271 1.353 . S
C276 H246 0.930 . S
C276 N277 1.330 . S
C276 C278 1.446 . S
N277 Co236 2.151 . S
N277 C276 1.330 . S
N277 C281 1.418 . S
C278 H257 0.929 . S
C278 C276 1.446 . S
C278 C279 1.332 . S
C279 H259 0.931 . S
C279 C278 1.332 . S
C279 C280 1.267 . S
C280 H248 0.929 . S
C280 C279 1.267 . S
C280 C281 1.251 . S
C281 H251 0.929 . S
C281 N277 1.418 . S
C281 C280 1.251 . S
C282 H249 0.930 . S
C282 C284 1.406 . S
C282 C287 1.261 . S
C283 H250 0.930 . S
C283 N285 1.325 . S
C283 C286 1.357 . S
C284 H252 0.928 . S
C284 C282 1.406 . S
C284 N285 1.261 . S
N285 Co236 2.214 . S
N285 C283 1.325 . S
N285 C284 1.261 . S
C286 H256 0.931 . S
C286 C283 1.357 . S
C286 C287 1.312 . S
C287 H258 0.930 . S
C287 C282 1.261 . S
C287 C286 1.312 . S
C288 O260 1.214 . S
C288 O268 1.234 . S
C289 H261 0.929 . S
C289 C292 1.391 . S
C289 C294 1.391 . S
C290 H262 0.929 . S
C290 C291 1.390 . S
C290 N293 1.391 . S
C291 H263 0.930 . S
C291 C290 1.390 . S
C291 C292 1.392 . S
C292 H264 0.929 . S
C292 C289 1.391 . S
C292 C291 1.392 . S
N293 Co237 2.257 . S
N293 C290 1.391 . S
N293 C294 1.388 . S
C294 H265 0.930 . S
C294 C289 1.391 . S
C294 N293 1.388 . S
Co295 O297 2.143 . S
Co295 O303 2.074 . S
Co295 O306 2.093 . S
Co295 O319 2.097 . S
Co295 N336 2.151 . S
Co295 N344 2.214 . S
Co296 O297 2.160 . S
Co296 O302 2.058 . S
Co296 O312 2.057 . S
Co296 O327 2.037 . S
Co296 N331 2.145 . S
Co296 N352 2.257 . S
O297 Co295 2.143 . S
O297 Co296 2.160 . S
C298 O299 1.278 . S
C298 O306 1.224 . S
O299 C298 1.278 . S
C300 O301 1.245 . S
C300 O312 1.232 . S
O301 C300 1.245 . S
O302 Co296 2.058 . S
O302 C328 1.269 . S
O303 Co295 2.074 . S
O303 C328 1.257 . S
H304 C329 0.930 . S
H305 C335 0.930 . S
O306 Co295 2.093 . S
O306 C298 1.224 . S
H307 C339 0.929 . S
H308 C341 0.930 . S
H309 C342 0.930 . S
H310 C340 0.929 . S
H311 C343 0.928 . S
O312 Co296 2.057 . S
O312 C300 1.232 . S
H313 C332 0.929 . S
H314 C333 0.929 . S
H315 C345 0.931 . S
H316 C337 0.929 . S
H317 C346 0.930 . S
H318 C338 0.931 . S
O319 Co295 2.097 . S
O319 C347 1.214 . S
H320 C348 0.929 . S
H321 C349 0.929 . S
H322 C350 0.930 . S
H323 C351 0.929 . S
H324 C353 0.930 . S
H325 C330 0.930 . S
H326 C334 0.930 . S
O327 Co296 2.037 . S
O327 C347 1.234 . S
C328 O302 1.269 . S
C328 O303 1.257 . S
C329 H304 0.930 . S
C329 C332 1.388 . S
C329 C334 1.418 . S
C330 H325 0.930 . S
C330 C333 1.404 . S
C330 C334 1.353 . S
N331 Co296 2.145 . S
N331 C332 1.397 . S
N331 C333 1.334 . S
C332 H313 0.929 . S
C332 C329 1.388 . S
C332 N331 1.397 . S
C333 H314 0.929 . S
C333 C330 1.404 . S
C333 N331 1.334 . S
C334 H326 0.930 . S
C334 C329 1.418 . S
C334 C330 1.353 . S
C335 H305 0.930 . S
C335 N336 1.330 . S
C335 C337 1.446 . S
N336 Co295 2.151 . S
N336 C335 1.330 . S
N336 C340 1.418 . S
C337 H316 0.929 . S
C337 C335 1.446 . S
C337 C338 1.332 . S
C338 H318 0.931 . S
C338 C337 1.332 . S
C338 C339 1.267 . S
C339 H307 0.929 . S
C339 C338 1.267 . S
C339 C340 1.251 . S
C340 H310 0.929 . S
C340 N336 1.418 . S
C340 C339 1.251 . S
C341 H308 0.930 . S
C341 C343 1.406 . S
C341 C346 1.261 . S
C342 H309 0.930 . S
C342 N344 1.325 . S
C342 C345 1.357 . S
C343 H311 0.928 . S
C343 C341 1.406 . S
C343 N344 1.261 . S
N344 Co295 2.214 . S
N344 C342 1.325 . S
N344 C343 1.261 . S
C345 H315 0.931 . S
C345 C342 1.357 . S
C345 C346 1.312 . S
C346 H317 0.930 . S
C346 C341 1.261 . S
C346 C345 1.312 . S
C347 O319 1.214 . S
C347 O327 1.234 . S
C348 H320 0.929 . S
C348 C351 1.391 . S
C348 C353 1.391 . S
C349 H321 0.929 . S
C349 C350 1.390 . S
C349 N352 1.391 . S
C350 H322 0.930 . S
C350 C349 1.390 . S
C350 C351 1.392 . S
C351 H323 0.929 . S
C351 C348 1.391 . S
C351 C350 1.392 . S
N352 Co296 2.257 . S
N352 C349 1.391 . S
N352 C353 1.388 . S
C353 H324 0.930 . S
C353 C348 1.391 . S
C353 N352 1.388 . S
Co354 O356 2.143 . S
Co354 O362 2.074 . S
Co354 O365 2.093 . S
Co354 O378 2.097 . S
Co354 N395 2.151 . S
Co354 N403 2.214 . S
Co355 O356 2.160 . S
Co355 O361 2.058 . S
Co355 O371 2.057 . S
Co355 O386 2.037 . S
Co355 N390 2.145 . S
Co355 N411 2.257 . S
O356 Co354 2.143 . S
O356 Co355 2.160 . S
C357 O358 1.278 . S
C357 O365 1.224 . S
O358 C357 1.278 . S
C359 O360 1.245 . S
C359 O371 1.232 . S
O360 C359 1.245 . S
O361 Co355 2.058 . S
O361 C387 1.269 . S
O362 Co354 2.074 . S
O362 C387 1.257 . S
H363 C388 0.930 . S
H364 C394 0.930 . S
O365 Co354 2.093 . S
O365 C357 1.224 . S
H366 C398 0.929 . S
H367 C400 0.930 . S
H368 C401 0.930 . S
H369 C399 0.929 . S
H370 C402 0.928 . S
O371 Co355 2.057 . S
O371 C359 1.232 . S
H372 C391 0.929 . S
H373 C392 0.929 . S
H374 C404 0.931 . S
H375 C396 0.929 . S
H376 C405 0.930 . S
H377 C397 0.931 . S
O378 Co354 2.097 . S
O378 C406 1.214 . S
H379 C407 0.929 . S
H380 C408 0.929 . S
H381 C409 0.930 . S
H382 C410 0.929 . S
H383 C412 0.930 . S
H384 C389 0.930 . S
H385 C393 0.930 . S
O386 Co355 2.037 . S
O386 C406 1.234 . S
C387 O361 1.269 . S
C387 O362 1.257 . S
C388 H363 0.930 . S
C388 C391 1.388 . S
C388 C393 1.418 . S
C389 H384 0.930 . S
C389 C392 1.404 . S
C389 C393 1.353 . S
N390 Co355 2.145 . S
N390 C391 1.397 . S
N390 C392 1.334 . S
C391 H372 0.929 . S
C391 C388 1.388 . S
C391 N390 1.397 . S
C392 H373 0.929 . S
C392 C389 1.404 . S
C392 N390 1.334 . S
C393 H385 0.930 . S
C393 C388 1.418 . S
C393 C389 1.353 . S
C394 H364 0.930 . S
C394 N395 1.330 . S
C394 C396 1.446 . S
N395 Co354 2.151 . S
N395 C394 1.330 . S
N395 C399 1.418 . S
C396 H375 0.929 . S
C396 C394 1.446 . S
C396 C397 1.332 . S
C397 H377 0.931 . S
C397 C396 1.332 . S
C397 C398 1.267 . S
C398 H366 0.929 . S
C398 C397 1.267 . S
C398 C399 1.251 . S
C399 H369 0.929 . S
C399 N395 1.418 . S
C399 C398 1.251 . S
C400 H367 0.930 . S
C400 C402 1.406 . S
C400 C405 1.261 . S
C401 H368 0.930 . S
C401 N403 1.325 . S
C401 C404 1.357 . S
C402 H370 0.928 . S
C402 C400 1.406 . S
C402 N403 1.261 . S
N403 Co354 2.214 . S
N403 C401 1.325 . S
N403 C402 1.261 . S
C404 H374 0.931 . S
C404 C401 1.357 . S
C404 C405 1.312 . S
C405 H376 0.930 . S
C405 C400 1.261 . S
C405 C404 1.312 . S
C406 O378 1.214 . S
C406 O386 1.234 . S
C407 H379 0.929 . S
C407 C410 1.391 . S
C407 C412 1.391 . S
C408 H380 0.929 . S
C408 C409 1.390 . S
C408 N411 1.391 . S
C409 H381 0.930 . S
C409 C408 1.390 . S
C409 C410 1.392 . S
C410 H382 0.929 . S
C410 C407 1.391 . S
C410 C409 1.392 . S
N411 Co355 2.257 . S
N411 C408 1.391 . S
N411 C412 1.388 . S
C412 H383 0.930 . S
C412 C407 1.391 . S
C412 N411 1.388 . S
Co413 O415 2.143 . S
Co413 O421 2.074 . S
Co413 O424 2.093 . S
Co413 O437 2.097 1_556 S
Co413 N454 2.151 . S
Co413 N462 2.214 1_556 S
Co414 O415 2.160 . S
Co414 O420 2.058 . S
Co414 O430 2.057 . S
Co414 O445 2.037 . S
Co414 N449 2.145 . S
Co414 N470 2.257 . S
O415 Co413 2.143 . S
O415 Co414 2.160 . S
C416 O417 1.278 . S
C416 O424 1.224 . S
O417 C416 1.278 . S
C418 O419 1.245 . S
C418 O430 1.232 . S
O419 C418 1.245 . S
O420 Co414 2.058 . S
O420 C446 1.269 . S
O421 Co413 2.074 . S
O421 C446 1.257 . S
H422 C447 0.930 . S
H423 C453 0.930 . S
O424 Co413 2.093 . S
O424 C416 1.224 . S
H425 C457 0.929 . S
H426 C459 0.930 . S
H427 C460 0.930 . S
H428 C458 0.929 . S
H429 C461 0.928 . S
O430 Co414 2.057 . S
O430 C418 1.232 . S
H431 C450 0.929 . S
H432 C451 0.929 . S
H433 C463 0.931 . S
H434 C455 0.929 . S
H435 C464 0.930 . S
H436 C456 0.931 . S
O437 Co413 2.097 1_554 S
O437 C465 1.214 . S
H438 C466 0.929 . S
H439 C467 0.929 . S
H440 C468 0.930 . S
H441 C469 0.929 . S
H442 C471 0.930 . S
H443 C448 0.930 . S
H444 C452 0.930 . S
O445 Co414 2.037 . S
O445 C465 1.234 1_556 S
C446 O420 1.269 . S
C446 O421 1.257 . S
C447 H422 0.930 . S
C447 C450 1.388 . S
C447 C452 1.418 . S
C448 H443 0.930 . S
C448 C451 1.404 . S
C448 C452 1.353 . S
N449 Co414 2.145 . S
N449 C450 1.397 . S
N449 C451 1.334 . S
C450 H431 0.929 . S
C450 C447 1.388 . S
C450 N449 1.397 . S
C451 H432 0.929 . S
C451 C448 1.404 . S
C451 N449 1.334 . S
C452 H444 0.930 . S
C452 C447 1.418 . S
C452 C448 1.353 . S
C453 H423 0.930 . S
C453 N454 1.330 . S
C453 C455 1.446 . S
N454 Co413 2.151 . S
N454 C453 1.330 . S
N454 C458 1.418 . S
C455 H434 0.929 . S
C455 C453 1.446 . S
C455 C456 1.332 . S
C456 H436 0.931 . S
C456 C455 1.332 . S
C456 C457 1.267 . S
C457 H425 0.929 . S
C457 C456 1.267 . S
C457 C458 1.251 . S
C458 H428 0.929 . S
C458 N454 1.418 . S
C458 C457 1.251 . S
C459 H426 0.930 . S
C459 C461 1.406 . S
C459 C464 1.261 . S
C460 H427 0.930 . S
C460 N462 1.325 . S
C460 C463 1.357 . S
C461 H429 0.928 . S
C461 C459 1.406 . S
C461 N462 1.261 . S
N462 Co413 2.214 1_554 S
N462 C460 1.325 . S
N462 C461 1.261 . S
C463 H433 0.931 . S
C463 C460 1.357 . S
C463 C464 1.312 . S
C464 H435 0.930 . S
C464 C459 1.261 . S
C464 C463 1.312 . S
C465 O437 1.214 . S
C465 O445 1.234 1_554 S
C466 H438 0.929 . S
C466 C469 1.391 . S
C466 C471 1.391 . S
C467 H439 0.929 . S
C467 C468 1.390 . S
C467 N470 1.391 . S
C468 H440 0.930 . S
C468 C467 1.390 . S
C468 C469 1.392 . S
C469 H441 0.929 . S
C469 C466 1.391 . S
C469 C468 1.392 . S
N470 Co414 2.257 . S
N470 C467 1.391 . S
N470 C471 1.388 . S
C471 H442 0.930 . S
C471 C466 1.391 . S
C471 N470 1.388 . S
Co472 O474 2.143 . S
Co472 O480 2.074 . S
Co472 O483 2.093 . S
Co472 O496 2.097 . S
Co472 N513 2.151 . S
Co472 N521 2.214 . S
Co473 O474 2.160 . S
Co473 O479 2.058 . S
Co473 O489 2.057 . S
Co473 O504 2.037 . S
Co473 N508 2.145 . S
Co473 N529 2.257 . S
O474 Co472 2.143 . S
O474 Co473 2.160 . S
C475 O476 1.278 . S
C475 O483 1.224 . S
O476 C475 1.278 . S
C477 O478 1.245 . S
C477 O489 1.232 . S
O478 C477 1.245 . S
O479 Co473 2.058 . S
O479 C505 1.269 . S
O480 Co472 2.074 . S
O480 C505 1.257 . S
H481 C506 0.930 . S
H482 C512 0.930 . S
O483 Co472 2.093 . S
O483 C475 1.224 . S
H484 C516 0.929 . S
H485 C518 0.930 . S
H486 C519 0.930 . S
H487 C517 0.929 . S
H488 C520 0.928 . S
O489 Co473 2.057 . S
O489 C477 1.232 . S
H490 C509 0.929 . S
H491 C510 0.929 . S
H492 C522 0.931 . S
H493 C514 0.929 . S
H494 C523 0.930 . S
H495 C515 0.931 . S
O496 Co472 2.097 . S
O496 C524 1.214 . S
H497 C525 0.929 . S
H498 C526 0.929 . S
H499 C527 0.930 . S
H500 C528 0.929 . S
H501 C530 0.930 . S
H502 C507 0.930 . S
H503 C511 0.930 . S
O504 Co473 2.037 . S
O504 C524 1.234 . S
C505 O479 1.269 . S
C505 O480 1.257 . S
C506 H481 0.930 . S
C506 C509 1.388 . S
C506 C511 1.418 . S
C507 H502 0.930 . S
C507 C510 1.404 . S
C507 C511 1.353 . S
N508 Co473 2.145 . S
N508 C509 1.397 . S
N508 C510 1.334 . S
C509 H490 0.929 . S
C509 C506 1.388 . S
C509 N508 1.397 . S
C510 H491 0.929 . S
C510 C507 1.404 . S
C510 N508 1.334 . S
C511 H503 0.930 . S
C511 C506 1.418 . S
C511 C507 1.353 . S
C512 H482 0.930 . S
C512 N513 1.330 . S
C512 C514 1.446 . S
N513 Co472 2.151 . S
N513 C512 1.330 . S
N513 C517 1.418 . S
C514 H493 0.929 . S
C514 C512 1.446 . S
C514 C515 1.332 . S
C515 H495 0.931 . S
C515 C514 1.332 . S
C515 C516 1.267 . S
C516 H484 0.929 . S
C516 C515 1.267 . S
C516 C517 1.251 . S
C517 H487 0.929 . S
C517 N513 1.418 . S
C517 C516 1.251 . S
C518 H485 0.930 . S
C518 C520 1.406 . S
C518 C523 1.261 . S
C519 H486 0.930 . S
C519 N521 1.325 . S
C519 C522 1.357 . S
C520 H488 0.928 . S
C520 C518 1.406 . S
C520 N521 1.261 . S
N521 Co472 2.214 . S
N521 C519 1.325 . S
N521 C520 1.261 . S
C522 H492 0.931 . S
C522 C519 1.357 . S
C522 C523 1.312 . S
C523 H494 0.930 . S
C523 C518 1.261 . S
C523 C522 1.312 . S
C524 O496 1.214 . S
C524 O504 1.234 . S
C525 H497 0.929 . S
C525 C528 1.391 . S
C525 C530 1.391 . S
C526 H498 0.929 . S
C526 C527 1.390 . S
C526 N529 1.391 . S
C527 H499 0.930 . S
C527 C526 1.390 . S
C527 C528 1.392 . S
C528 H500 0.929 . S
C528 C525 1.391 . S
C528 C527 1.392 . S
N529 Co473 2.257 . S
N529 C526 1.391 . S
N529 C530 1.388 . S
C530 H501 0.930 . S
C530 C525 1.391 . S
C530 N529 1.388 . S
Co531 O533 2.143 . S
Co531 O539 2.074 . S
Co531 O542 2.093 . S
Co531 O555 2.097 . S
Co531 N572 2.151 . S
Co531 N580 2.214 . S
Co532 O533 2.160 . S
Co532 O538 2.058 . S
Co532 O548 2.057 . S
Co532 O563 2.037 . S
Co532 N567 2.145 . S
Co532 N588 2.257 . S
O533 Co531 2.143 . S
O533 Co532 2.160 . S
C534 O535 1.278 . S
C534 O542 1.224 . S
O535 C534 1.278 . S
C536 O537 1.245 . S
C536 O548 1.232 . S
O537 C536 1.245 . S
O538 Co532 2.058 . S
O538 C564 1.269 . S
O539 Co531 2.074 . S
O539 C564 1.257 . S
H540 C565 0.930 . S
H541 C571 0.930 . S
O542 Co531 2.093 . S
O542 C534 1.224 . S
H543 C575 0.929 . S
H544 C577 0.930 . S
H545 C578 0.930 . S
H546 C576 0.929 . S
H547 C579 0.928 . S
O548 Co532 2.057 . S
O548 C536 1.232 . S
H549 C568 0.929 . S
H550 C569 0.929 . S
H551 C581 0.931 . S
H552 C573 0.929 . S
H553 C582 0.930 . S
H554 C574 0.931 . S
O555 Co531 2.097 . S
O555 C583 1.214 . S
H556 C584 0.929 . S
H557 C585 0.929 . S
H558 C586 0.930 . S
H559 C587 0.929 . S
H560 C589 0.930 . S
H561 C566 0.930 . S
H562 C570 0.930 . S
O563 Co532 2.037 . S
O563 C583 1.234 . S
C564 O538 1.269 . S
C564 O539 1.257 . S
C565 H540 0.930 . S
C565 C568 1.388 . S
C565 C570 1.418 . S
C566 H561 0.930 . S
C566 C569 1.404 . S
C566 C570 1.353 . S
N567 Co532 2.145 . S
N567 C568 1.397 . S
N567 C569 1.334 . S
C568 H549 0.929 . S
C568 C565 1.388 . S
C568 N567 1.397 . S
C569 H550 0.929 . S
C569 C566 1.404 . S
C569 N567 1.334 . S
C570 H562 0.930 . S
C570 C565 1.418 . S
C570 C566 1.353 . S
C571 H541 0.930 . S
C571 N572 1.330 . S
C571 C573 1.446 . S
N572 Co531 2.151 . S
N572 C571 1.330 . S
N572 C576 1.418 . S
C573 H552 0.929 . S
C573 C571 1.446 . S
C573 C574 1.332 . S
C574 H554 0.931 . S
C574 C573 1.332 . S
C574 C575 1.267 . S
C575 H543 0.929 . S
C575 C574 1.267 . S
C575 C576 1.251 . S
C576 H546 0.929 . S
C576 N572 1.418 . S
C576 C575 1.251 . S
C577 H544 0.930 . S
C577 C579 1.406 . S
C577 C582 1.261 . S
C578 H545 0.930 . S
C578 N580 1.325 . S
C578 C581 1.357 . S
C579 H547 0.928 . S
C579 C577 1.406 . S
C579 N580 1.261 . S
N580 Co531 2.214 . S
N580 C578 1.325 . S
N580 C579 1.261 . S
C581 H551 0.931 . S
C581 C578 1.357 . S
C581 C582 1.312 . S
C582 H553 0.930 . S
C582 C577 1.261 . S
C582 C581 1.312 . S
C583 O555 1.214 . S
C583 O563 1.234 . S
C584 H556 0.929 . S
C584 C587 1.391 . S
C584 C589 1.391 . S
C585 H557 0.929 . S
C585 C586 1.390 . S
C585 N588 1.391 . S
C586 H558 0.930 . S
C586 C585 1.390 . S
C586 C587 1.392 . S
C587 H559 0.929 . S
C587 C584 1.391 . S
C587 C586 1.392 . S
N588 Co532 2.257 . S
N588 C585 1.391 . S
N588 C589 1.388 . S
C589 H560 0.930 . S
C589 C584 1.391 . S
C589 N588 1.388 . S
Co590 O592 2.143 . S
Co590 O598 2.074 . S
Co590 O601 2.093 . S
Co590 O614 2.097 1_556 S
Co590 N631 2.151 . S
Co590 N639 2.214 1_556 S
Co591 O592 2.160 . S
Co591 O597 2.058 . S
Co591 O607 2.057 . S
Co591 O622 2.037 . S
Co591 N626 2.145 . S
Co591 N647 2.257 . S
O592 Co590 2.143 . S
O592 Co591 2.160 . S
C593 O594 1.278 . S
C593 O601 1.224 . S
O594 C593 1.278 . S
C595 O596 1.245 . S
C595 O607 1.232 . S
O596 C595 1.245 . S
O597 Co591 2.058 . S
O597 C623 1.269 . S
O598 Co590 2.074 . S
O598 C623 1.257 . S
H599 C624 0.930 . S
H600 C630 0.930 . S
O601 Co590 2.093 . S
O601 C593 1.224 . S
H602 C634 0.929 . S
H603 C636 0.930 . S
H604 C637 0.930 . S
H605 C635 0.929 . S
H606 C638 0.928 . S
O607 Co591 2.057 . S
O607 C595 1.232 . S
H608 C627 0.929 . S
H609 C628 0.929 . S
H610 C640 0.931 . S
H611 C632 0.929 . S
H612 C641 0.930 . S
H613 C633 0.931 . S
O614 Co590 2.097 1_554 S
O614 C642 1.214 . S
H615 C643 0.929 . S
H616 C644 0.929 . S
H617 C645 0.930 . S
H618 C646 0.929 . S
H619 C648 0.930 . S
H620 C625 0.930 . S
H621 C629 0.930 . S
O622 Co591 2.037 . S
O622 C642 1.234 1_556 S
C623 O597 1.269 . S
C623 O598 1.257 . S
C624 H599 0.930 . S
C624 C627 1.388 . S
C624 C629 1.418 . S
C625 H620 0.930 . S
C625 C628 1.404 . S
C625 C629 1.353 . S
N626 Co591 2.145 . S
N626 C627 1.397 . S
N626 C628 1.334 . S
C627 H608 0.929 . S
C627 C624 1.388 . S
C627 N626 1.397 . S
C628 H609 0.929 . S
C628 C625 1.404 . S
C628 N626 1.334 . S
C629 H621 0.930 . S
C629 C624 1.418 . S
C629 C625 1.353 . S
C630 H600 0.930 . S
C630 N631 1.330 . S
C630 C632 1.446 . S
N631 Co590 2.151 . S
N631 C630 1.330 . S
N631 C635 1.418 . S
C632 H611 0.929 . S
C632 C630 1.446 . S
C632 C633 1.332 . S
C633 H613 0.931 . S
C633 C632 1.332 . S
C633 C634 1.267 . S
C634 H602 0.929 . S
C634 C633 1.267 . S
C634 C635 1.251 . S
C635 H605 0.929 . S
C635 N631 1.418 . S
C635 C634 1.251 . S
C636 H603 0.930 . S
C636 C638 1.406 . S
C636 C641 1.261 . S
C637 H604 0.930 . S
C637 N639 1.325 . S
C637 C640 1.357 . S
C638 H606 0.928 . S
C638 C636 1.406 . S
C638 N639 1.261 . S
N639 Co590 2.214 1_554 S
N639 C637 1.325 . S
N639 C638 1.261 . S
C640 H610 0.931 . S
C640 C637 1.357 . S
C640 C641 1.312 . S
C641 H612 0.930 . S
C641 C636 1.261 . S
C641 C640 1.312 . S
C642 O614 1.214 . S
C642 O622 1.234 1_554 S
C643 H615 0.929 . S
C643 C646 1.391 . S
C643 C648 1.391 . S
C644 H616 0.929 . S
C644 C645 1.390 . S
C644 N647 1.391 . S
C645 H617 0.930 . S
C645 C644 1.390 . S
C645 C646 1.392 . S
C646 H618 0.929 . S
C646 C643 1.391 . S
C646 C645 1.392 . S
N647 Co591 2.257 . S
N647 C644 1.391 . S
N647 C648 1.388 . S
C648 H619 0.930 . S
C648 C643 1.391 . S
C648 N647 1.388 . S
Co649 O651 2.143 . S
Co649 O657 2.074 . S
Co649 O660 2.093 . S
Co649 O673 2.097 . S
Co649 N690 2.151 . S
Co649 N698 2.214 . S
Co650 O651 2.160 . S
Co650 O656 2.058 . S
Co650 O666 2.057 . S
Co650 O681 2.037 . S
Co650 N685 2.145 . S
Co650 N706 2.257 . S
O651 Co649 2.143 . S
O651 Co650 2.160 . S
C652 O653 1.278 . S
C652 O660 1.224 . S
O653 C652 1.278 . S
C654 O655 1.245 . S
C654 O666 1.232 . S
O655 C654 1.245 . S
O656 Co650 2.058 . S
O656 C682 1.269 . S
O657 Co649 2.074 . S
O657 C682 1.257 . S
H658 C683 0.930 . S
H659 C689 0.930 . S
O660 Co649 2.093 . S
O660 C652 1.224 . S
H661 C693 0.929 . S
H662 C695 0.930 . S
H663 C696 0.930 . S
H664 C694 0.929 . S
H665 C697 0.928 . S
O666 Co650 2.057 . S
O666 C654 1.232 . S
H667 C686 0.929 . S
H668 C687 0.929 . S
H669 C699 0.931 . S
H670 C691 0.929 . S
H671 C700 0.930 . S
H672 C692 0.931 . S
O673 Co649 2.097 . S
O673 C701 1.214 . S
H674 C702 0.929 . S
H675 C703 0.929 . S
H676 C704 0.930 . S
H677 C705 0.929 . S
H678 C707 0.930 . S
H679 C684 0.930 . S
H680 C688 0.930 . S
O681 Co650 2.037 . S
O681 C701 1.234 . S
C682 O656 1.269 . S
C682 O657 1.257 . S
C683 H658 0.930 . S
C683 C686 1.388 . S
C683 C688 1.418 . S
C684 H679 0.930 . S
C684 C687 1.404 . S
C684 C688 1.353 . S
N685 Co650 2.145 . S
N685 C686 1.397 . S
N685 C687 1.334 . S
C686 H667 0.929 . S
C686 C683 1.388 . S
C686 N685 1.397 . S
C687 H668 0.929 . S
C687 C684 1.404 . S
C687 N685 1.334 . S
C688 H680 0.930 . S
C688 C683 1.418 . S
C688 C684 1.353 . S
C689 H659 0.930 . S
C689 N690 1.330 . S
C689 C691 1.446 . S
N690 Co649 2.151 . S
N690 C689 1.330 . S
N690 C694 1.418 . S
C691 H670 0.929 . S
C691 C689 1.446 . S
C691 C692 1.332 . S
C692 H672 0.931 . S
C692 C691 1.332 . S
C692 C693 1.267 . S
C693 H661 0.929 . S
C693 C692 1.267 . S
C693 C694 1.251 . S
C694 H664 0.929 . S
C694 N690 1.418 . S
C694 C693 1.251 . S
C695 H662 0.930 . S
C695 C697 1.406 . S
C695 C700 1.261 . S
C696 H663 0.930 . S
C696 N698 1.325 . S
C696 C699 1.357 . S
C697 H665 0.928 . S
C697 C695 1.406 . S
C697 N698 1.261 . S
N698 Co649 2.214 . S
N698 C696 1.325 . S
N698 C697 1.261 . S
C699 H669 0.931 . S
C699 C696 1.357 . S
C699 C700 1.312 . S
C700 H671 0.930 . S
C700 C695 1.261 . S
C700 C699 1.312 . S
C701 O673 1.214 . S
C701 O681 1.234 . S
C702 H674 0.929 . S
C702 C705 1.391 . S
C702 C707 1.391 . S
C703 H675 0.929 . S
C703 C704 1.390 . S
C703 N706 1.391 . S
C704 H676 0.930 . S
C704 C703 1.390 . S
C704 C705 1.392 . S
C705 H677 0.929 . S
C705 C702 1.391 . S
C705 C704 1.392 . S
N706 Co650 2.257 . S
N706 C703 1.391 . S
N706 C707 1.388 . S
C707 H678 0.930 . S
C707 C702 1.391 . S
C707 N706 1.388 . S
C708 C709 1.391 . S
C708 C710 1.394 . S
C708 H724 0.931 . S
C709 C708 1.391 . S
C709 C713 1.376 . S
C710 C708 1.394 . S
C710 C711 1.369 . S
C710 C714 1.531 . S
C711 C710 1.369 . S
C711 C712 1.410 . S
C711 C719 1.503 . S
C712 C711 1.410 . S
C712 C713 1.392 . S
C712 C715 1.511 . S
C713 C709 1.376 . S
C713 C712 1.392 . S
C713 H725 0.929 . S
C714 C710 1.531 . S
C714 H726 0.960 . S
C714 H727 0.962 . S
C714 H728 0.960 . S
C715 C712 1.511 . S
C715 H729 0.961 . S
C715 H730 0.961 . S
C715 H731 0.961 . S
C716 C717 1.370 . S
C716 C718 1.363 . S
C716 H732 0.931 . S
C717 C716 1.370 . S
C717 C721 1.408 . S
C718 C716 1.363 . S
C718 C719 1.370 . S
C718 C722 1.524 . S
C719 C711 1.503 . S
C719 C718 1.370 . S
C719 C720 1.403 . S
C720 C719 1.403 . S
C720 C721 1.404 . S
C720 C723 1.539 . S
C721 C717 1.408 . S
C721 C720 1.404 . S
C721 H733 0.930 . S
C722 C718 1.524 . S
C722 H734 0.956 . S
C722 H735 0.961 . S
C722 H736 0.961 . S
C723 C720 1.539 . S
C723 H737 0.958 . S
C723 H738 0.961 . S
C723 H739 0.960 . S
H724 C708 0.931 . S
H725 C713 0.929 . S
H726 C714 0.960 . S
H727 C714 0.962 . S
H728 C714 0.960 . S
H729 C715 0.961 . S
H730 C715 0.961 . S
H731 C715 0.961 . S
H732 C716 0.931 . S
H733 C721 0.930 . S
H734 C722 0.956 . S
H735 C722 0.961 . S
H736 C722 0.961 . S
H737 C723 0.958 . S
H738 C723 0.961 . S
H739 C723 0.960 . S
C740 C741 1.391 . S
C740 C742 1.394 . S
C740 H756 0.931 . S
C741 C740 1.391 . S
C741 C745 1.376 . S
C742 C740 1.394 . S
C742 C743 1.369 . S
C742 C746 1.531 . S
C743 C742 1.369 . S
C743 C744 1.410 . S
C743 C751 1.503 . S
C744 C743 1.410 . S
C744 C745 1.392 . S
C744 C747 1.511 . S
C745 C741 1.376 . S
C745 C744 1.392 . S
C745 H757 0.929 . S
C746 C742 1.531 . S
C746 H758 0.960 . S
C746 H759 0.962 . S
C746 H760 0.960 . S
C747 C744 1.511 . S
C747 H761 0.961 . S
C747 H762 0.961 . S
C747 H763 0.961 . S
C748 C749 1.370 . S
C748 C750 1.363 . S
C748 H764 0.931 . S
C749 C748 1.370 . S
C749 C753 1.408 . S
C750 C748 1.363 . S
C750 C751 1.370 . S
C750 C754 1.524 . S
C751 C743 1.503 . S
C751 C750 1.370 . S
C751 C752 1.403 . S
C752 C751 1.403 . S
C752 C753 1.404 . S
C752 C755 1.539 . S
C753 C749 1.408 . S
C753 C752 1.404 . S
C753 H765 0.930 . S
C754 C750 1.524 . S
C754 H766 0.956 . S
C754 H767 0.961 . S
C754 H768 0.961 . S
C755 C752 1.539 . S
C755 H769 0.958 . S
C755 H770 0.961 . S
C755 H771 0.960 . S
H756 C740 0.931 . S
H757 C745 0.929 . S
H758 C746 0.960 . S
H759 C746 0.962 . S
H760 C746 0.960 . S
H761 C747 0.961 . S
H762 C747 0.961 . S
H763 C747 0.961 . S
H764 C748 0.931 . S
H765 C753 0.930 . S
H766 C754 0.956 . S
H767 C754 0.961 . S
H768 C754 0.961 . S
H769 C755 0.958 . S
H770 C755 0.961 . S
H771 C755 0.960 . S
C772 C773 1.391 . S
C772 C774 1.394 . S
C772 H788 0.931 . S
C773 C772 1.391 . S
C773 C777 1.376 . S
C774 C772 1.394 . S
C774 C775 1.369 . S
C774 C778 1.531 . S
C775 C774 1.369 . S
C775 C776 1.410 . S
C775 C783 1.503 1_556 S
C776 C775 1.410 . S
C776 C777 1.392 . S
C776 C779 1.511 . S
C777 C773 1.376 . S
C777 C776 1.392 . S
C777 H789 0.929 . S
C778 C774 1.531 . S
C778 H790 0.960 . S
C778 H791 0.962 . S
C778 H792 0.960 . S
C779 C776 1.511 . S
C779 H793 0.961 . S
C779 H794 0.961 1_556 S
C779 H795 0.960 1_556 S
C780 C781 1.370 . S
C780 C782 1.363 . S
C780 H796 0.931 . S
C781 C780 1.370 . S
C781 C785 1.408 . S
C782 C780 1.363 . S
C782 C783 1.370 . S
C782 C786 1.524 . S
C783 C775 1.503 1_554 S
C783 C782 1.370 . S
C783 C784 1.403 . S
C784 C783 1.403 . S
C784 C785 1.404 . S
C784 C787 1.539 . S
C785 C781 1.408 . S
C785 C784 1.404 . S
C785 H797 0.930 . S
C786 C782 1.524 . S
C786 H798 0.956 1_554 S
C786 H799 0.961 1_554 S
C786 H800 0.961 . S
C787 C784 1.539 . S
C787 H801 0.958 . S
C787 H802 0.961 . S
C787 H803 0.960 . S
H788 C772 0.931 . S
H789 C777 0.929 . S
H790 C778 0.960 . S
H791 C778 0.962 . S
H792 C778 0.960 . S
H793 C779 0.961 . S
H794 C779 0.961 1_554 S
H795 C779 0.960 1_554 S
H796 C780 0.931 . S
H797 C785 0.930 . S
H798 C786 0.956 1_556 S
H799 C786 0.961 1_556 S
H800 C786 0.961 . S
H801 C787 0.958 . S
H802 C787 0.961 . S
H803 C787 0.960 . S
C804 C805 1.391 . S
C804 C806 1.394 . S
C804 H820 0.931 . S
C805 C804 1.391 . S
C805 C809 1.376 . S
C806 C804 1.394 . S
C806 C807 1.369 . S
C806 C810 1.531 . S
C807 C806 1.369 . S
C807 C808 1.410 . S
C807 C815 1.503 . S
C808 C807 1.410 . S
C808 C809 1.392 . S
C808 C811 1.511 . S
C809 C805 1.376 . S
C809 C808 1.392 . S
C809 H821 0.929 . S
C810 C806 1.531 . S
C810 H822 0.960 . S
C810 H823 0.962 . S
C810 H824 0.960 . S
C811 C808 1.511 . S
C811 H825 0.961 . S
C811 H826 0.961 . S
C811 H827 0.961 . S
C812 C813 1.370 . S
C812 C814 1.363 . S
C812 H828 0.931 . S
C813 C812 1.370 . S
C813 C817 1.408 . S
C814 C812 1.363 . S
C814 C815 1.370 . S
C814 C818 1.524 . S
C815 C807 1.503 . S
C815 C814 1.370 . S
C815 C816 1.403 . S
C816 C815 1.403 . S
C816 C817 1.404 . S
C816 C819 1.539 . S
C817 C813 1.408 . S
C817 C816 1.404 . S
C817 H829 0.930 . S
C818 C814 1.524 . S
C818 H830 0.956 . S
C818 H831 0.961 . S
C818 H832 0.961 . S
C819 C816 1.539 . S
C819 H833 0.958 . S
C819 H834 0.961 . S
C819 H835 0.960 . S
H820 C804 0.931 . S
H821 C809 0.929 . S
H822 C810 0.960 . S
H823 C810 0.962 . S
H824 C810 0.960 . S
H825 C811 0.961 . S
H826 C811 0.961 . S
H827 C811 0.961 . S
H828 C812 0.931 . S
H829 C817 0.930 . S
H830 C818 0.956 . S
H831 C818 0.961 . S
H832 C818 0.961 . S
H833 C819 0.958 . S
H834 C819 0.961 . S
H835 C819 0.960 . S
C836 C837 1.391 . S
C836 C838 1.394 . S
C836 H852 0.931 . S
C837 C836 1.391 . S
C837 C841 1.376 . S
C838 C836 1.394 . S
C838 C839 1.369 . S
C838 C842 1.531 . S
C839 C838 1.369 . S
C839 C840 1.410 . S
C839 C847 1.503 . S
C840 C839 1.410 . S
C840 C841 1.392 . S
C840 C843 1.511 . S
C841 C837 1.376 . S
C841 C840 1.392 . S
C841 H853 0.929 . S
C842 C838 1.531 . S
C842 H854 0.960 . S
C842 H855 0.962 . S
C842 H856 0.960 . S
C843 C840 1.511 . S
C843 H857 0.961 . S
C843 H858 0.961 . S
C843 H859 0.961 . S
C844 C845 1.370 . S
C844 C846 1.363 . S
C844 H860 0.931 . S
C845 C844 1.370 . S
C845 C849 1.408 . S
C846 C844 1.363 . S
C846 C847 1.370 . S
C846 C850 1.524 . S
C847 C839 1.503 . S
C847 C846 1.370 . S
C847 C848 1.403 . S
C848 C847 1.403 . S
C848 C849 1.404 . S
C848 C851 1.539 . S
C849 C845 1.408 . S
C849 C848 1.404 . S
C849 H861 0.930 . S
C850 C846 1.524 . S
C850 H862 0.956 . S
C850 H863 0.961 . S
C850 H864 0.961 . S
C851 C848 1.539 . S
C851 H865 0.958 . S
C851 H866 0.961 . S
C851 H867 0.960 . S
H852 C836 0.931 . S
H853 C841 0.929 . S
H854 C842 0.960 . S
H855 C842 0.962 . S
H856 C842 0.960 . S
H857 C843 0.961 . S
H858 C843 0.961 . S
H859 C843 0.961 . S
H860 C844 0.931 . S
H861 C849 0.930 . S
H862 C850 0.956 . S
H863 C850 0.961 . S
H864 C850 0.961 . S
H865 C851 0.958 . S
H866 C851 0.961 . S
H867 C851 0.960 . S
C868 C869 1.391 . S
C868 C870 1.394 . S
C868 H884 0.931 . S
C869 C868 1.391 . S
C869 C873 1.376 . S
C870 C868 1.394 . S
C870 C871 1.369 . S
C870 C874 1.531 . S
C871 C870 1.369 . S
C871 C872 1.410 . S
C871 C879 1.503 1_554 S
C872 C871 1.410 . S
C872 C873 1.392 . S
C872 C875 1.511 . S
C873 C869 1.376 . S
C873 C872 1.392 . S
C873 H885 0.929 . S
C874 C870 1.531 . S
C874 H886 0.960 . S
C874 H887 0.962 . S
C874 H888 0.960 . S
C875 C872 1.511 . S
C875 H889 0.961 . S
C875 H890 0.961 1_554 S
C875 H891 0.961 1_554 S
C876 C877 1.370 . S
C876 C878 1.363 . S
C876 H892 0.931 . S
C877 C876 1.370 . S
C877 C881 1.408 . S
C878 C876 1.363 . S
C878 C879 1.370 . S
C878 C882 1.524 . S
C879 C871 1.503 1_556 S
C879 C878 1.370 . S
C879 C880 1.403 . S
C880 C879 1.403 . S
C880 C881 1.404 . S
C880 C883 1.539 . S
C881 C877 1.408 . S
C881 C880 1.404 . S
C881 H893 0.930 . S
C882 C878 1.524 . S
C882 H894 0.956 1_556 S
C882 H895 0.961 1_556 S
C882 H896 0.961 . S
C883 C880 1.539 . S
C883 H897 0.958 . S
C883 H898 0.961 . S
C883 H899 0.960 . S
H884 C868 0.931 . S
H885 C873 0.929 . S
H886 C874 0.960 . S
H887 C874 0.962 . S
H888 C874 0.960 . S
H889 C875 0.961 . S
H890 C875 0.961 1_556 S
H891 C875 0.961 1_556 S
H892 C876 0.931 . S
H893 C881 0.930 . S
H894 C882 0.956 1_554 S
H895 C882 0.961 1_554 S
H896 C882 0.961 . S
H897 C883 0.958 . S
H898 C883 0.961 . S
H899 C883 0.960 . S
C900 C901 1.391 1_556 S
C900 C902 1.394 . S
C900 H916 0.931 . S
C901 C900 1.391 1_554 S
C901 C905 1.376 . S
C902 C900 1.394 . S
C902 C903 1.369 . S
C902 C906 1.531 . S
C903 C902 1.369 . S
C903 C904 1.409 1_556 S
C903 C911 1.504 . S
C904 C903 1.409 1_554 S
C904 C905 1.392 . S
C904 C907 1.511 . S
C905 C901 1.376 . S
C905 C904 1.392 . S
C905 H917 0.929 . S
C906 C902 1.531 . S
C906 H918 0.960 . S
C906 H919 0.962 . S
C906 H920 0.960 . S
C907 C904 1.511 . S
C907 H921 0.961 . S
C907 H922 0.961 . S
C907 H923 0.961 . S
C908 C909 1.370 . S
C908 C910 1.363 1_556 S
C908 H924 0.931 1_556 S
C909 C908 1.370 . S
C909 C913 1.408 . S
C910 C908 1.363 1_554 S
C910 C911 1.370 1_554 S
C910 C914 1.524 . S
C911 C903 1.504 . S
C911 C910 1.370 1_556 S
C911 C912 1.403 . S
C912 C911 1.403 . S
C912 C913 1.404 . S
C912 C915 1.539 . S
C913 C909 1.408 . S
C913 C912 1.404 . S
C913 H925 0.930 . S
C914 C910 1.524 . S
C914 H926 0.956 . S
C914 H927 0.961 . S
C914 H928 0.961 . S
C915 C912 1.539 . S
C915 H929 0.958 . S
C915 H930 0.961 . S
C915 H931 0.960 . S
H916 C900 0.931 . S
H917 C905 0.929 . S
H918 C906 0.960 . S
H919 C906 0.962 . S
H920 C906 0.960 . S
H921 C907 0.961 . S
H922 C907 0.961 . S
H923 C907 0.961 . S
H924 C908 0.931 1_554 S
H925 C913 0.930 . S
H926 C914 0.956 . S
H927 C914 0.961 . S
H928 C914 0.961 . S
H929 C915 0.958 . S
H930 C915 0.961 . S
H931 C915 0.960 . S
C932 C933 1.391 . S
C932 C934 1.394 . S
C932 H948 0.931 . S
C933 C932 1.391 . S
C933 C937 1.376 . S
C934 C932 1.394 . S
C934 C935 1.369 . S
C934 C938 1.531 . S
C935 C934 1.369 . S
C935 C936 1.410 . S
C935 C943 1.503 . S
C936 C935 1.410 . S
C936 C937 1.392 . S
C936 C939 1.511 . S
C937 C933 1.376 . S
C937 C936 1.392 . S
C937 H949 0.929 . S
C938 C934 1.531 . S
C938 H950 0.960 . S
C938 H951 0.962 . S
C938 H952 0.960 . S
C939 C936 1.511 . S
C939 H953 0.961 . S
C939 H954 0.961 . S
C939 H955 0.961 . S
C940 C941 1.370 . S
C940 C942 1.363 . S
C940 H956 0.931 . S
C941 C940 1.370 . S
C941 C945 1.408 . S
C942 C940 1.363 . S
C942 C943 1.370 . S
C942 C946 1.524 . S
C943 C935 1.503 . S
C943 C942 1.370 . S
C943 C944 1.403 . S
C944 C943 1.403 . S
C944 C945 1.404 . S
C944 C947 1.539 . S
C945 C941 1.408 . S
C945 C944 1.404 . S
C945 H957 0.930 . S
C946 C942 1.524 . S
C946 H958 0.956 . S
C946 H959 0.961 . S
C946 H960 0.961 . S
C947 C944 1.539 . S
C947 H961 0.958 . S
C947 H962 0.961 . S
C947 H963 0.960 . S
H948 C932 0.931 . S
H949 C937 0.929 . S
H950 C938 0.960 . S
H951 C938 0.962 . S
H952 C938 0.960 . S
H953 C939 0.961 . S
H954 C939 0.961 . S
H955 C939 0.961 . S
H956 C940 0.931 . S
H957 C945 0.930 . S
H958 C946 0.956 . S
H959 C946 0.961 . S
H960 C946 0.961 . S
H961 C947 0.958 . S
H962 C947 0.961 . S
H963 C947 0.960 . S
C964 C965 1.391 . S
C964 C966 1.394 . S
C964 H980 0.931 . S
C965 C964 1.391 . S
C965 C969 1.376 . S
C966 C964 1.394 . S
C966 C967 1.369 . S
C966 C970 1.531 . S
C967 C966 1.369 . S
C967 C968 1.410 . S
C967 C975 1.503 . S
C968 C967 1.410 . S
C968 C969 1.392 . S
C968 C971 1.511 . S
C969 C965 1.376 . S
C969 C968 1.392 . S
C969 H981 0.929 . S
C970 C966 1.531 . S
C970 H982 0.960 . S
C970 H983 0.962 . S
C970 H984 0.960 . S
C971 C968 1.511 . S
C971 H985 0.961 . S
C971 H986 0.961 . S
C971 H987 0.961 . S
C972 C973 1.370 . S
C972 C974 1.363 . S
C972 H988 0.931 . S
C973 C972 1.370 . S
C973 C977 1.408 . S
C974 C972 1.363 . S
C974 C975 1.370 . S
C974 C978 1.524 . S
C975 C967 1.503 . S
C975 C974 1.370 . S
C975 C976 1.403 . S
C976 C975 1.403 . S
C976 C977 1.404 . S
C976 C979 1.539 . S
C977 C973 1.408 . S
C977 C976 1.404 . S
C977 H989 0.930 . S
C978 C974 1.524 . S
C978 H990 0.956 . S
C978 H991 0.961 . S
C978 H992 0.961 . S
C979 C976 1.539 . S
C979 H993 0.958 . S
C979 H994 0.961 . S
C979 H995 0.960 . S
H980 C964 0.931 . S
H981 C969 0.929 . S
H982 C970 0.960 . S
H983 C970 0.962 . S
H984 C970 0.960 . S
H985 C971 0.961 . S
H986 C971 0.961 . S
H987 C971 0.961 . S
H988 C972 0.931 . S
H989 C977 0.930 . S
H990 C978 0.956 . S
H991 C978 0.961 . S
H992 C978 0.961 . S
H993 C979 0.958 . S
H994 C979 0.961 . S
H995 C979 0.960 . S
C996 C997 1.391 . S
C996 C998 1.394 1_554 S
C996 H1012 0.931 . S
C997 C996 1.391 . S
C997 C1001 1.376 . S
C998 C996 1.394 1_556 S
C998 C999 1.369 . S
C998 C1002 1.531 . S
C999 C998 1.369 . S
C999 C1000 1.410 1_556 S
C999 C1007 1.503 . S
C1000 C999 1.410 1_554 S
C1000 C1001 1.392 . S
C1000 C1003 1.511 . S
C1001 C997 1.376 . S
C1001 C1000 1.392 . S
C1001 H1013 0.929 . S
C1002 C998 1.531 . S
C1002 H1014 0.960 . S
C1002 H1015 0.962 . S
C1002 H1016 0.960 . S
C1003 C1000 1.511 . S
C1003 H1017 0.961 . S
C1003 H1018 0.961 . S
C1003 H1019 0.961 . S
C1004 C1005 1.370 1_554 S
C1004 C1006 1.363 . S
C1004 H1020 0.931 . S
C1005 C1004 1.370 1_556 S
C1005 C1009 1.408 . S
C1006 C1004 1.363 . S
C1006 C1007 1.370 1_554 S
C1006 C1010 1.524 . S
C1007 C999 1.503 . S
C1007 C1006 1.370 1_556 S
C1007 C1008 1.403 . S
C1008 C1007 1.403 . S
C1008 C1009 1.404 . S
C1008 C1011 1.539 . S
C1009 C1005 1.408 . S
C1009 C1008 1.404 . S
C1009 H1021 0.930 . S
C1010 C1006 1.524 . S
C1010 H1022 0.956 . S
C1010 H1023 0.961 . S
C1010 H1024 0.961 . S
C1011 C1008 1.539 . S
C1011 H1025 0.958 . S
C1011 H1026 0.961 . S
C1011 H1027 0.960 . S
H1012 C996 0.931 . S
H1013 C1001 0.929 . S
H1014 C1002 0.960 . S
H1015 C1002 0.962 . S
H1016 C1002 0.960 . S
H1017 C1003 0.961 . S
H1018 C1003 0.961 . S
H1019 C1003 0.961 . S
H1020 C1004 0.931 . S
H1021 C1009 0.930 . S
H1022 C1010 0.956 . S
H1023 C1010 0.961 . S
H1024 C1010 0.961 . S
H1025 C1011 0.958 . S
H1026 C1011 0.961 . S
H1027 C1011 0.960 . S
C1028 C1029 1.391 . S
C1028 C1030 1.394 . S
C1028 H1044 0.931 . S
C1029 C1028 1.391 . S
C1029 C1033 1.376 . S
C1030 C1028 1.394 . S
C1030 C1031 1.369 . S
C1030 C1034 1.531 . S
C1031 C1030 1.369 . S
C1031 C1032 1.410 . S
C1031 C1039 1.503 . S
C1032 C1031 1.410 . S
C1032 C1033 1.392 . S
C1032 C1035 1.511 . S
C1033 C1029 1.376 . S
C1033 C1032 1.392 . S
C1033 H1045 0.929 . S
C1034 C1030 1.531 . S
C1034 H1046 0.960 . S
C1034 H1047 0.962 . S
C1034 H1048 0.960 . S
C1035 C1032 1.511 . S
C1035 H1049 0.961 . S
C1035 H1050 0.961 . S
C1035 H1051 0.961 . S
C1036 C1037 1.370 . S
C1036 C1038 1.363 . S
C1036 H1052 0.931 . S
C1037 C1036 1.370 . S
C1037 C1041 1.408 . S
C1038 C1036 1.363 . S
C1038 C1039 1.370 . S
C1038 C1042 1.524 . S
C1039 C1031 1.503 . S
C1039 C1038 1.370 . S
C1039 C1040 1.403 . S
C1040 C1039 1.403 . S
C1040 C1041 1.404 . S
C1040 C1043 1.539 . S
C1041 C1037 1.408 . S
C1041 C1040 1.404 . S
C1041 H1053 0.930 . S
C1042 C1038 1.524 . S
C1042 H1054 0.956 . S
C1042 H1055 0.961 . S
C1042 H1056 0.961 . S
C1043 C1040 1.539 . S
C1043 H1057 0.958 . S
C1043 H1058 0.961 . S
C1043 H1059 0.960 . S
H1044 C1028 0.931 . S
H1045 C1033 0.929 . S
H1046 C1034 0.960 . S
H1047 C1034 0.962 . S
H1048 C1034 0.960 . S
H1049 C1035 0.961 . S
H1050 C1035 0.961 . S
H1051 C1035 0.961 . S
H1052 C1036 0.931 . S
H1053 C1041 0.930 . S
H1054 C1042 0.956 . S
H1055 C1042 0.961 . S
H1056 C1042 0.961 . S
H1057 C1043 0.958 . S
H1058 C1043 0.961 . S
H1059 C1043 0.960 . S
C1060 C1061 1.391 . S
C1060 C1062 1.394 . S
C1060 H1076 0.931 . S
C1061 C1060 1.391 . S
C1061 C1065 1.376 . S
C1062 C1060 1.394 . S
C1062 C1063 1.369 . S
C1062 C1066 1.531 . S
C1063 C1062 1.369 . S
C1063 C1064 1.410 . S
C1063 C1071 1.503 . S
C1064 C1063 1.410 . S
C1064 C1065 1.392 . S
C1064 C1067 1.511 . S
C1065 C1061 1.376 . S
C1065 C1064 1.392 . S
C1065 H1077 0.929 . S
C1066 C1062 1.531 . S
C1066 H1078 0.960 . S
C1066 H1079 0.962 . S
C1066 H1080 0.960 . S
C1067 C1064 1.511 . S
C1067 H1081 0.961 . S
C1067 H1082 0.961 . S
C1067 H1083 0.961 . S
C1068 C1069 1.370 . S
C1068 C1070 1.363 . S
C1068 H1084 0.931 . S
C1069 C1068 1.370 . S
C1069 C1073 1.408 . S
C1070 C1068 1.363 . S
C1070 C1071 1.370 . S
C1070 C1074 1.524 . S
C1071 C1063 1.503 . S
C1071 C1070 1.370 . S
C1071 C1072 1.403 . S
C1072 C1071 1.403 . S
C1072 C1073 1.404 . S
C1072 C1075 1.539 . S
C1073 C1069 1.408 . S
C1073 C1072 1.404 . S
C1073 H1085 0.930 . S
C1074 C1070 1.524 . S
C1074 H1086 0.956 . S
C1074 H1087 0.961 . S
C1074 H1088 0.961 . S
C1075 C1072 1.539 . S
C1075 H1089 0.958 . S
C1075 H1090 0.961 . S
C1075 H1091 0.960 . S
H1076 C1060 0.931 . S
H1077 C1065 0.929 . S
H1078 C1066 0.960 . S
H1079 C1066 0.962 . S
H1080 C1066 0.960 . S
H1081 C1067 0.961 . S
H1082 C1067 0.961 . S
H1083 C1067 0.961 . S
H1084 C1068 0.931 . S
H1085 C1073 0.930 . S
H1086 C1074 0.956 . S
H1087 C1074 0.961 . S
H1088 C1074 0.961 . S
H1089 C1075 0.958 . S
H1090 C1075 0.961 . S
H1091 C1075 0.960 . S
C1092 C1093 1.391 . S
C1092 C1094 1.394 . S
C1092 H1108 0.931 . S
C1093 C1092 1.391 . S
C1093 C1097 1.376 . S
C1094 C1092 1.394 . S
C1094 C1095 1.369 . S
C1094 C1098 1.531 . S
C1095 C1094 1.369 . S
C1095 C1096 1.410 . S
C1095 C1103 1.503 . S
C1096 C1095 1.410 . S
C1096 C1097 1.392 . S
C1096 C1099 1.511 1_554 S
C1097 C1093 1.376 . S
C1097 C1096 1.392 . S
C1097 H1109 0.929 1_554 S
C1098 C1094 1.531 . S
C1098 H1110 0.960 . S
C1098 H1111 0.962 . S
C1098 H1112 0.960 . S
C1099 C1096 1.511 1_556 S
C1099 H1113 0.961 . S
C1099 H1114 0.961 . S
C1099 H1115 0.961 . S
C1100 C1101 1.370 . S
C1100 C1102 1.363 . S
C1100 H1116 0.931 . S
C1101 C1100 1.370 . S
C1101 C1105 1.408 . S
C1102 C1100 1.363 . S
C1102 C1103 1.370 . S
C1102 C1106 1.524 . S
C1103 C1095 1.503 . S
C1103 C1102 1.370 . S
C1103 C1104 1.403 . S
C1104 C1103 1.403 . S
C1104 C1105 1.404 . S
C1104 C1107 1.539 . S
C1105 C1101 1.408 . S
C1105 C1104 1.404 . S
C1105 H1117 0.930 . S
C1106 C1102 1.524 . S
C1106 H1118 0.956 . S
C1106 H1119 0.961 1_554 S
C1106 H1120 0.961 . S
C1107 C1104 1.539 . S
C1107 H1121 0.958 . S
C1107 H1122 0.961 . S
C1107 H1123 0.960 . S
H1108 C1092 0.931 . S
H1109 C1097 0.929 1_556 S
H1110 C1098 0.960 . S
H1111 C1098 0.962 . S
H1112 C1098 0.960 . S
H1113 C1099 0.961 . S
H1114 C1099 0.961 . S
H1115 C1099 0.961 . S
H1116 C1100 0.931 . S
H1117 C1105 0.930 . S
H1118 C1106 0.956 . S
H1119 C1106 0.961 1_556 S
H1120 C1106 0.961 . S
H1121 C1107 0.958 . S
H1122 C1107 0.961 . S
H1123 C1107 0.960 . S
C1124 C1125 1.391 . S
C1124 C1126 1.394 . S
C1124 H1140 0.931 . S
C1125 C1124 1.391 . S
C1125 C1129 1.376 . S
C1126 C1124 1.394 . S
C1126 C1127 1.369 . S
C1126 C1130 1.531 . S
C1127 C1126 1.369 . S
C1127 C1128 1.410 . S
C1127 C1135 1.503 1_655 S
C1128 C1127 1.410 . S
C1128 C1129 1.392 . S
C1128 C1131 1.511 1_655 S
C1129 C1125 1.376 . S
C1129 C1128 1.392 . S
C1129 H1141 0.929 . S
C1130 C1126 1.531 . S
C1130 H1142 0.960 . S
C1130 H1143 0.962 . S
C1130 H1144 0.960 . S
C1131 C1128 1.511 1_455 S
C1131 H1145 0.961 . S
C1131 H1146 0.961 . S
C1131 H1147 0.961 . S
C1132 C1133 1.370 . S
C1132 C1134 1.363 . S
C1132 H1148 0.931 . S
C1133 C1132 1.370 . S
C1133 C1137 1.408 . S
C1134 C1132 1.363 . S
C1134 C1135 1.370 . S
C1134 C1138 1.524 . S
C1135 C1127 1.503 1_455 S
C1135 C1134 1.370 . S
C1135 C1136 1.403 . S
C1136 C1135 1.403 . S
C1136 C1137 1.404 . S
C1136 C1139 1.539 . S
C1137 C1133 1.408 . S
C1137 C1136 1.404 . S
C1137 H1149 0.930 . S
C1138 C1134 1.524 . S
C1138 H1150 0.956 . S
C1138 H1151 0.961 . S
C1138 H1152 0.961 . S
C1139 C1136 1.539 . S
C1139 H1153 0.958 1_455 S
C1139 H1154 0.961 . S
C1139 H1155 0.960 1_455 S
H1140 C1124 0.931 . S
H1141 C1129 0.929 . S
H1142 C1130 0.960 . S
H1143 C1130 0.962 . S
H1144 C1130 0.960 . S
H1145 C1131 0.961 . S
H1146 C1131 0.961 . S
H1147 C1131 0.961 . S
H1148 C1132 0.931 . S
H1149 C1137 0.930 . S
H1150 C1138 0.956 . S
H1151 C1138 0.961 . S
H1152 C1138 0.961 . S
H1153 C1139 0.958 1_655 S
H1154 C1139 0.961 . S
H1155 C1139 0.960 1_655 S
C1156 C1157 1.391 . S
C1156 C1158 1.394 . S
C1156 H1172 0.931 . S
C1157 C1156 1.391 . S
C1157 C1161 1.376 . S
C1158 C1156 1.394 . S
C1158 C1159 1.369 . S
C1158 C1162 1.531 . S
C1159 C1158 1.369 . S
C1159 C1160 1.410 . S
C1159 C1167 1.503 1_545 S
C1160 C1159 1.410 . S
C1160 C1161 1.392 . S
C1160 C1163 1.511 . S
C1161 C1157 1.376 . S
C1161 C1160 1.392 . S
C1161 H1173 0.929 . S
C1162 C1158 1.531 . S
C1162 H1174 0.960 1_545 S
C1162 H1175 0.962 1_545 S
C1162 H1176 0.960 . S
C1163 C1160 1.511 . S
C1163 H1177 0.961 . S
C1163 H1178 0.961 . S
C1163 H1179 0.961 . S
C1164 C1165 1.370 . S
C1164 C1166 1.363 . S
C1164 H1180 0.931 . S
C1165 C1164 1.370 . S
C1165 C1169 1.408 . S
C1166 C1164 1.363 . S
C1166 C1167 1.370 . S
C1166 C1170 1.524 . S
C1167 C1159 1.503 1_565 S
C1167 C1166 1.370 . S
C1167 C1168 1.403 . S
C1168 C1167 1.403 . S
C1168 C1169 1.404 . S
C1168 C1171 1.539 1_565 S
C1169 C1165 1.408 . S
C1169 C1168 1.404 . S
C1169 H1181 0.930 . S
C1170 C1166 1.524 . S
C1170 H1182 0.956 . S
C1170 H1183 0.961 . S
C1170 H1184 0.961 . S
C1171 C1168 1.539 1_545 S
C1171 H1185 0.958 . S
C1171 H1186 0.961 . S
C1171 H1187 0.960 . S
H1172 C1156 0.931 . S
H1173 C1161 0.929 . S
H1174 C1162 0.960 1_565 S
H1175 C1162 0.962 1_565 S
H1176 C1162 0.960 . S
H1177 C1163 0.961 . S
H1178 C1163 0.961 . S
H1179 C1163 0.961 . S
H1180 C1164 0.931 . S
H1181 C1169 0.930 . S
H1182 C1170 0.956 . S
H1183 C1170 0.961 . S
H1184 C1170 0.961 . S
H1185 C1171 0.958 . S
H1186 C1171 0.961 . S
H1187 C1171 0.960 . S
C1188 C1189 1.391 . S
C1188 C1190 1.394 . S
C1188 H1204 0.931 . S
C1189 C1188 1.391 . S
C1189 C1193 1.376 . S
C1190 C1188 1.394 . S
C1190 C1191 1.369 . S
C1190 C1194 1.531 . S
C1191 C1190 1.369 . S
C1191 C1192 1.410 . S
C1191 C1199 1.503 . S
C1192 C1191 1.410 . S
C1192 C1193 1.392 . S
C1192 C1195 1.511 . S
C1193 C1189 1.376 . S
C1193 C1192 1.392 . S
C1193 H1205 0.929 . S
C1194 C1190 1.531 . S
C1194 H1206 0.960 . S
C1194 H1207 0.962 . S
C1194 H1208 0.960 . S
C1195 C1192 1.511 . S
C1195 H1209 0.961 . S
C1195 H1210 0.961 . S
C1195 H1211 0.961 . S
C1196 C1197 1.370 . S
C1196 C1198 1.363 . S
C1196 H1212 0.931 . S
C1197 C1196 1.370 . S
C1197 C1201 1.408 . S
C1198 C1196 1.363 . S
C1198 C1199 1.370 . S
C1198 C1202 1.524 . S
C1199 C1191 1.503 . S
C1199 C1198 1.370 . S
C1199 C1200 1.403 . S
C1200 C1199 1.403 . S
C1200 C1201 1.404 . S
C1200 C1203 1.539 . S
C1201 C1197 1.408 . S
C1201 C1200 1.404 . S
C1201 H1213 0.930 . S
C1202 C1198 1.524 . S
C1202 H1214 0.956 . S
C1202 H1215 0.961 . S
C1202 H1216 0.961 . S
C1203 C1200 1.539 . S
C1203 H1217 0.958 . S
C1203 H1218 0.961 . S
C1203 H1219 0.960 . S
H1204 C1188 0.931 . S
H1205 C1193 0.929 . S
H1206 C1194 0.960 . S
H1207 C1194 0.962 . S
H1208 C1194 0.960 . S
H1209 C1195 0.961 . S
H1210 C1195 0.961 . S
H1211 C1195 0.961 . S
H1212 C1196 0.931 . S
H1213 C1201 0.930 . S
H1214 C1202 0.956 . S
H1215 C1202 0.961 . S
H1216 C1202 0.961 . S
H1217 C1203 0.958 . S
H1218 C1203 0.961 . S
H1219 C1203 0.960 . S
C1220 C1221 1.391 . S
C1220 C1222 1.394 . S
C1220 H1236 0.931 . S
C1221 C1220 1.391 . S
C1221 C1225 1.376 . S
C1222 C1220 1.394 . S
C1222 C1223 1.369 . S
C1222 C1226 1.531 . S
C1223 C1222 1.369 . S
C1223 C1224 1.410 . S
C1223 C1231 1.503 1_455 S
C1224 C1223 1.410 . S
C1224 C1225 1.392 . S
C1224 C1227 1.511 1_556 S
C1225 C1221 1.376 . S
C1225 C1224 1.392 . S
C1225 H1237 0.929 1_556 S
C1226 C1222 1.531 . S
C1226 H1238 0.960 1_455 S
C1226 H1239 0.962 . S
C1226 H1240 0.960 . S
C1227 C1224 1.511 1_554 S
C1227 H1241 0.961 . S
C1227 H1242 0.961 . S
C1227 H1243 0.961 . S
C1228 C1229 1.370 . S
C1228 C1230 1.363 . S
C1228 H1244 0.931 . S
C1229 C1228 1.370 . S
C1229 C1233 1.408 . S
C1230 C1228 1.363 . S
C1230 C1231 1.370 . S
C1230 C1234 1.524 1_655 S
C1231 C1223 1.503 1_655 S
C1231 C1230 1.370 . S
C1231 C1232 1.403 . S
C1232 C1231 1.403 . S
C1232 C1233 1.404 . S
C1232 C1235 1.539 . S
C1233 C1229 1.408 . S
C1233 C1232 1.404 . S
C1233 H1245 0.930 . S
C1234 C1230 1.524 1_455 S
C1234 H1246 0.956 . S
C1234 H1247 0.961 . S
C1234 H1248 0.961 . S
C1235 C1232 1.539 . S
C1235 H1249 0.958 . S
C1235 H1250 0.961 . S
C1235 H1251 0.960 . S
H1236 C1220 0.931 . S
H1237 C1225 0.929 1_554 S
H1238 C1226 0.960 1_655 S
H1239 C1226 0.962 . S
H1240 C1226 0.960 . S
H1241 C1227 0.961 . S
H1242 C1227 0.961 . S
H1243 C1227 0.961 . S
H1244 C1228 0.931 . S
H1245 C1233 0.930 . S
H1246 C1234 0.956 . S
H1247 C1234 0.961 . S
H1248 C1234 0.961 . S
H1249 C1235 0.958 . S
H1250 C1235 0.961 . S
H1251 C1235 0.960 . S
C1252 C1253 1.391 . S
C1252 C1254 1.394 . S
C1252 H1268 0.931 . S
C1253 C1252 1.391 . S
C1253 C1257 1.376 . S
C1254 C1252 1.394 . S
C1254 C1255 1.369 . S
C1254 C1258 1.531 . S
C1255 C1254 1.369 . S
C1255 C1256 1.410 . S
C1255 C1263 1.503 1_565 S
C1256 C1255 1.410 . S
C1256 C1257 1.392 . S
C1256 C1259 1.511 . S
C1257 C1253 1.376 . S
C1257 C1256 1.392 . S
C1257 H1269 0.929 . S
C1258 C1254 1.531 . S
C1258 H1270 0.961 . S
C1258 H1271 0.962 1_565 S
C1258 H1272 0.960 . S
C1259 C1256 1.511 . S
C1259 H1273 0.961 . S
C1259 H1274 0.961 . S
C1259 H1275 0.961 . S
C1260 C1261 1.370 . S
C1260 C1262 1.363 . S
C1260 H1276 0.931 . S
C1261 C1260 1.370 . S
C1261 C1265 1.408 . S
C1262 C1260 1.363 . S
C1262 C1263 1.370 . S
C1262 C1266 1.524 . S
C1263 C1255 1.503 1_545 S
C1263 C1262 1.370 . S
C1263 C1264 1.403 . S
C1264 C1263 1.403 . S
C1264 C1265 1.404 . S
C1264 C1267 1.539 1_545 S
C1265 C1261 1.408 . S
C1265 C1264 1.404 . S
C1265 H1277 0.930 . S
C1266 C1262 1.524 . S
C1266 H1278 0.956 . S
C1266 H1279 0.961 . S
C1266 H1280 0.961 . S
C1267 C1264 1.539 1_565 S
C1267 H1281 0.958 . S
C1267 H1282 0.961 . S
C1267 H1283 0.960 . S
H1268 C1252 0.931 . S
H1269 C1257 0.929 . S
H1270 C1258 0.961 . S
H1271 C1258 0.962 1_545 S
H1272 C1258 0.960 . S
H1273 C1259 0.961 . S
H1274 C1259 0.961 . S
H1275 C1259 0.961 . S
H1276 C1260 0.931 . S
H1277 C1265 0.930 . S
H1278 C1266 0.956 . S
H1279 C1266 0.961 . S
H1280 C1266 0.961 . S
H1281 C1267 0.958 . S
H1282 C1267 0.961 . S
H1283 C1267 0.960 . S
C1284 C1285 1.391 . S
C1284 C1286 1.394 . S
C1284 H1300 0.931 . S
C1285 C1284 1.391 . S
C1285 C1289 1.376 . S
C1286 C1284 1.394 . S
C1286 C1287 1.369 . S
C1286 C1290 1.531 . S
C1287 C1286 1.369 . S
C1287 C1288 1.410 . S
C1287 C1295 1.503 . S
C1288 C1287 1.410 . S
C1288 C1289 1.392 . S
C1288 C1291 1.511 . S
C1289 C1285 1.376 . S
C1289 C1288 1.392 . S
C1289 H1301 0.929 . S
C1290 C1286 1.531 . S
C1290 H1302 0.960 . S
C1290 H1303 0.962 . S
C1290 H1304 0.960 . S
C1291 C1288 1.511 . S
C1291 H1305 0.961 . S
C1291 H1306 0.961 . S
C1291 H1307 0.961 . S
C1292 C1293 1.370 . S
C1292 C1294 1.363 . S
C1292 H1308 0.931 . S
C1293 C1292 1.370 . S
C1293 C1297 1.408 . S
C1294 C1292 1.363 . S
C1294 C1295 1.370 . S
C1294 C1298 1.524 . S
C1295 C1287 1.503 . S
C1295 C1294 1.370 . S
C1295 C1296 1.403 . S
C1296 C1295 1.403 . S
C1296 C1297 1.404 . S
C1296 C1299 1.539 . S
C1297 C1293 1.408 . S
C1297 C1296 1.404 . S
C1297 H1309 0.930 . S
C1298 C1294 1.524 . S
C1298 H1310 0.956 . S
C1298 H1311 0.961 . S
C1298 H1312 0.961 . S
C1299 C1296 1.539 . S
C1299 H1313 0.958 . S
C1299 H1314 0.961 . S
C1299 H1315 0.960 . S
H1300 C1284 0.931 . S
H1301 C1289 0.929 . S
H1302 C1290 0.960 . S
H1303 C1290 0.962 . S
H1304 C1290 0.960 . S
H1305 C1291 0.961 . S
H1306 C1291 0.961 . S
H1307 C1291 0.961 . S
H1308 C1292 0.931 . S
H1309 C1297 0.930 . S
H1310 C1298 0.956 . S
H1311 C1298 0.961 . S
H1312 C1298 0.961 . S
H1313 C1299 0.958 . S
H1314 C1299 0.961 . S
H1315 C1299 0.960 . S
C1316 C1317 1.391 . S
C1316 C1318 1.394 . S
C1316 H1332 0.931 . S
C1317 C1316 1.391 . S
C1317 C1321 1.376 . S
C1318 C1316 1.394 . S
C1318 C1319 1.369 . S
C1318 C1322 1.531 . S
C1319 C1318 1.369 . S
C1319 C1320 1.410 . S
C1319 C1327 1.503 . S
C1320 C1319 1.410 . S
C1320 C1321 1.392 . S
C1320 C1323 1.511 . S
C1321 C1317 1.376 . S
C1321 C1320 1.392 . S
C1321 H1333 0.929 . S
C1322 C1318 1.531 . S
C1322 H1334 0.960 . S
C1322 H1335 0.962 . S
C1322 H1336 0.960 . S
C1323 C1320 1.511 . S
C1323 H1337 0.961 . S
C1323 H1338 0.961 . S
C1323 H1339 0.961 . S
C1324 C1325 1.370 . S
C1324 C1326 1.363 . S
C1324 H1340 0.931 . S
C1325 C1324 1.370 . S
C1325 C1329 1.408 . S
C1326 C1324 1.363 . S
C1326 C1327 1.370 . S
C1326 C1330 1.524 . S
C1327 C1319 1.503 . S
C1327 C1326 1.370 . S
C1327 C1328 1.403 . S
C1328 C1327 1.403 . S
C1328 C1329 1.404 . S
C1328 C1331 1.539 . S
C1329 C1325 1.408 . S
C1329 C1328 1.404 . S
C1329 H1341 0.930 . S
C1330 C1326 1.524 . S
C1330 H1342 0.956 . S
C1330 H1343 0.961 . S
C1330 H1344 0.961 . S
C1331 C1328 1.539 . S
C1331 H1345 0.958 . S
C1331 H1346 0.961 . S
C1331 H1347 0.960 . S
H1332 C1316 0.931 . S
H1333 C1321 0.929 . S
H1334 C1322 0.960 . S
H1335 C1322 0.962 . S
H1336 C1322 0.960 . S
H1337 C1323 0.961 . S
H1338 C1323 0.961 . S
H1339 C1323 0.961 . S
H1340 C1324 0.931 . S
H1341 C1329 0.930 . S
H1342 C1330 0.956 . S
H1343 C1330 0.961 . S
H1344 C1330 0.961 . S
H1345 C1331 0.958 . S
H1346 C1331 0.961 . S
H1347 C1331 0.960 . S
C1348 C1349 1.391 . S
C1348 C1350 1.394 . S
C1348 H1364 0.931 . S
C1349 C1348 1.391 . S
C1349 C1353 1.376 . S
C1350 C1348 1.394 . S
C1350 C1351 1.369 . S
C1350 C1354 1.531 . S
C1351 C1350 1.369 . S
C1351 C1352 1.410 . S
C1351 C1359 1.503 . S
C1352 C1351 1.410 . S
C1352 C1353 1.392 . S
C1352 C1355 1.511 . S
C1353 C1349 1.376 . S
C1353 C1352 1.392 . S
C1353 H1365 0.929 . S
C1354 C1350 1.531 . S
C1354 H1366 0.960 . S
C1354 H1367 0.962 . S
C1354 H1368 0.960 . S
C1355 C1352 1.511 . S
C1355 H1369 0.961 . S
C1355 H1370 0.961 . S
C1355 H1371 0.961 . S
C1356 C1357 1.370 . S
C1356 C1358 1.363 . S
C1356 H1372 0.931 . S
C1357 C1356 1.370 . S
C1357 C1361 1.408 . S
C1358 C1356 1.363 . S
C1358 C1359 1.370 . S
C1358 C1362 1.524 . S
C1359 C1351 1.503 . S
C1359 C1358 1.370 . S
C1359 C1360 1.403 . S
C1360 C1359 1.403 . S
C1360 C1361 1.404 . S
C1360 C1363 1.539 . S
C1361 C1357 1.408 . S
C1361 C1360 1.404 . S
C1361 H1373 0.930 . S
C1362 C1358 1.524 . S
C1362 H1374 0.956 . S
C1362 H1375 0.961 . S
C1362 H1376 0.961 . S
C1363 C1360 1.539 . S
C1363 H1377 0.958 . S
C1363 H1378 0.961 . S
C1363 H1379 0.960 . S
H1364 C1348 0.931 . S
H1365 C1353 0.929 . S
H1366 C1354 0.960 . S
H1367 C1354 0.962 . S
H1368 C1354 0.960 . S
H1369 C1355 0.961 . S
H1370 C1355 0.961 . S
H1371 C1355 0.961 . S
H1372 C1356 0.931 . S
H1373 C1361 0.930 . S
H1374 C1362 0.956 . S
H1375 C1362 0.961 . S
H1376 C1362 0.961 . S
H1377 C1363 0.958 . S
H1378 C1363 0.961 . S
H1379 C1363 0.960 . S
C1380 C1381 1.391 . S
C1380 C1382 1.394 . S
C1380 H1396 0.931 . S
C1381 C1380 1.391 . S
C1381 C1385 1.376 . S
C1382 C1380 1.394 . S
C1382 C1383 1.369 . S
C1382 C1386 1.531 . S
C1383 C1382 1.369 . S
C1383 C1384 1.410 . S
C1383 C1391 1.503 . S
C1384 C1383 1.410 . S
C1384 C1385 1.392 . S
C1384 C1387 1.511 . S
C1385 C1381 1.376 . S
C1385 C1384 1.392 . S
C1385 H1397 0.929 . S
C1386 C1382 1.531 . S
C1386 H1398 0.960 . S
C1386 H1399 0.962 . S
C1386 H1400 0.960 . S
C1387 C1384 1.511 . S
C1387 H1401 0.961 . S
C1387 H1402 0.961 . S
C1387 H1403 0.961 . S
C1388 C1389 1.370 . S
C1388 C1390 1.363 . S
C1388 H1404 0.931 . S
C1389 C1388 1.370 . S
C1389 C1393 1.408 . S
C1390 C1388 1.363 . S
C1390 C1391 1.370 . S
C1390 C1394 1.524 . S
C1391 C1383 1.503 . S
C1391 C1390 1.370 . S
C1391 C1392 1.403 . S
C1392 C1391 1.403 . S
C1392 C1393 1.404 . S
C1392 C1395 1.539 . S
C1393 C1389 1.408 . S
C1393 C1392 1.404 . S
C1393 H1405 0.930 . S
C1394 C1390 1.524 . S
C1394 H1406 0.956 . S
C1394 H1407 0.961 . S
C1394 H1408 0.961 . S
C1395 C1392 1.539 . S
C1395 H1409 0.958 . S
C1395 H1410 0.961 . S
C1395 H1411 0.960 . S
H1396 C1380 0.931 . S
H1397 C1385 0.929 . S
H1398 C1386 0.960 . S
H1399 C1386 0.962 . S
H1400 C1386 0.960 . S
H1401 C1387 0.961 . S
H1402 C1387 0.961 . S
H1403 C1387 0.961 . S
H1404 C1388 0.931 . S
H1405 C1393 0.930 . S
H1406 C1394 0.956 . S
H1407 C1394 0.961 . S
H1408 C1394 0.961 . S
H1409 C1395 0.958 . S
H1410 C1395 0.961 . S
H1411 C1395 0.960 . S
C1412 C1413 1.391 . S
C1412 C1414 1.394 . S
C1412 H1428 0.931 . S
C1413 C1412 1.391 . S
C1413 C1417 1.376 . S
C1414 C1412 1.394 . S
C1414 C1415 1.369 . S
C1414 C1418 1.531 . S
C1415 C1414 1.369 . S
C1415 C1416 1.410 . S
C1415 C1423 1.503 . S
C1416 C1415 1.410 . S
C1416 C1417 1.392 . S
C1416 C1419 1.511 . S
C1417 C1413 1.376 . S
C1417 C1416 1.392 . S
C1417 H1429 0.929 . S
C1418 C1414 1.531 . S
C1418 H1430 0.960 . S
C1418 H1431 0.962 . S
C1418 H1432 0.960 . S
C1419 C1416 1.511 . S
C1419 H1433 0.961 . S
C1419 H1434 0.961 . S
C1419 H1435 0.961 . S
C1420 C1421 1.370 . S
C1420 C1422 1.363 . S
C1420 H1436 0.931 . S
C1421 C1420 1.370 . S
C1421 C1425 1.408 . S
C1422 C1420 1.363 . S
C1422 C1423 1.370 . S
C1422 C1426 1.524 . S
C1423 C1415 1.503 . S
C1423 C1422 1.370 . S
C1423 C1424 1.403 . S
C1424 C1423 1.403 . S
C1424 C1425 1.404 . S
C1424 C1427 1.539 . S
C1425 C1421 1.408 . S
C1425 C1424 1.404 . S
C1425 H1437 0.930 . S
C1426 C1422 1.524 . S
C1426 H1438 0.956 . S
C1426 H1439 0.961 . S
C1426 H1440 0.961 . S
C1427 C1424 1.539 . S
C1427 H1441 0.958 . S
C1427 H1442 0.961 . S
C1427 H1443 0.960 . S
H1428 C1412 0.931 . S
H1429 C1417 0.929 . S
H1430 C1418 0.960 . S
H1431 C1418 0.962 . S
H1432 C1418 0.960 . S
H1433 C1419 0.961 . S
H1434 C1419 0.961 . S
H1435 C1419 0.961 . S
H1436 C1420 0.931 . S
H1437 C1425 0.930 . S
H1438 C1426 0.956 . S
H1439 C1426 0.961 . S
H1440 C1426 0.961 . S
H1441 C1427 0.958 . S
H1442 C1427 0.961 . S
H1443 C1427 0.960 . S
C1444 C1445 1.391 . S
C1444 C1446 1.394 . S
C1444 H1460 0.931 . S
C1445 C1444 1.391 . S
C1445 C1449 1.376 . S
C1446 C1444 1.394 . S
C1446 C1447 1.369 . S
C1446 C1450 1.531 . S
C1447 C1446 1.369 . S
C1447 C1448 1.410 . S
C1447 C1455 1.503 . S
C1448 C1447 1.410 . S
C1448 C1449 1.392 . S
C1448 C1451 1.511 . S
C1449 C1445 1.376 . S
C1449 C1448 1.392 . S
C1449 H1461 0.929 . S
C1450 C1446 1.531 . S
C1450 H1462 0.960 . S
C1450 H1463 0.962 . S
C1450 H1464 0.960 . S
C1451 C1448 1.511 . S
C1451 H1465 0.961 . S
C1451 H1466 0.961 . S
C1451 H1467 0.961 . S
C1452 C1453 1.370 . S
C1452 C1454 1.363 . S
C1452 H1468 0.931 . S
C1453 C1452 1.370 . S
C1453 C1457 1.408 . S
C1454 C1452 1.363 . S
C1454 C1455 1.370 . S
C1454 C1458 1.524 . S
C1455 C1447 1.503 . S
C1455 C1454 1.370 . S
C1455 C1456 1.403 . S
C1456 C1455 1.403 . S
C1456 C1457 1.404 . S
C1456 C1459 1.539 . S
C1457 C1453 1.408 . S
C1457 C1456 1.404 . S
C1457 H1469 0.930 . S
C1458 C1454 1.524 . S
C1458 H1470 0.956 . S
C1458 H1471 0.961 . S
C1458 H1472 0.961 . S
C1459 C1456 1.539 . S
C1459 H1473 0.958 . S
C1459 H1474 0.961 . S
C1459 H1475 0.960 . S
H1460 C1444 0.931 . S
H1461 C1449 0.929 . S
H1462 C1450 0.960 . S
H1463 C1450 0.962 . S
H1464 C1450 0.960 . S
H1465 C1451 0.961 . S
H1466 C1451 0.961 . S
H1467 C1451 0.961 . S
H1468 C1452 0.931 . S
H1469 C1457 0.930 . S
H1470 C1458 0.956 . S
H1471 C1458 0.961 . S
H1472 C1458 0.961 . S
H1473 C1459 0.958 . S
H1474 C1459 0.961 . S
H1475 C1459 0.960 . S
C709 C5 1.596 . S
C717 C359 1.592 . S
C741 C64 1.591 . S
C749 C418 1.595 . S
C773 C123 1.591 . S
C781 C477 1.595 . S
C805 C182 1.578 . S
C813 C536 1.591 . S
C837 C241 1.597 . S
C845 C595 1.593 . S
C869 C654 1.596 . S
C877 C300 1.596 . S
C901 C3 1.364 . S
C909 C593 1.386 . S
C933 C62 1.380 . S
C941 C652 1.364 . S
C965 C121 1.342 . S
C973 C357 1.384 . S
C997 C180 1.355 . S
C1005 C416 1.387 . S
C1029 C239 1.353 . S
C1037 C475 1.387 . S
C1061 C298 1.357 . S
C1069 C534 1.386 . S
C1093 C33 1.387 . S
C1101 C210 1.353 . S
C1125 C92 1.344 . S
C1133 C269 1.370 . S
C1157 C328 1.338 . S
C1165 C151 1.379 . S
C1189 C387 1.352 . S
C1197 C564 1.375 . S
C1221 C623 1.392 . S
C1229 C446 1.355 . S
C1253 C505 1.333 . S
C1261 C682 1.377 . S
C1285 C406 0.930 . S
C1293 C52 0.909 . S
C1317 C111 0.896 . S
C1325 C465 0.913 . S
C1349 C170 0.916 . S
C1357 C524 0.905 . S
C1381 C583 0.911 . S
C1389 C229 0.918 . S
C1413 C642 0.889 . S
C1421 C288 0.917 . S
C1445 C347 0.900 . S
C1453 C701 0.921 . S
