# Generated by pormake.
# Topology unt, (4)-cn, num edge types: 1
# Building blocks:
#     Node 0, Type 0, BuildingBlock: NAWXER_clean_sbu_0, # of connection points: 4
#     Node 1, Type 0, BuildingBlock: NAWXER_clean_sbu_0, # of connection points: 4
#     Node 2, Type 0, BuildingBlock: NAWXER_clean_sbu_0, # of connection points: 4
#     Node 3, Type 0, BuildingBlock: NAWXER_clean_sbu_0, # of connection points: 4
#     Node 4, Type 0, BuildingBlock: NAWXER_clean_sbu_0, # of connection points: 4
#     Node 5, Type 0, BuildingBlock: NAWXER_clean_sbu_0, # of connection points: 4
#     Node 6, Type 0, BuildingBlock: NAWXER_clean_sbu_0, # of connection points: 4
#     Node 7, Type 0, BuildingBlock: NAWXER_clean_sbu_0, # of connection points: 4
#     Node 8, Type 0, BuildingBlock: NAWXER_clean_sbu_0, # of connection points: 4
#     Node 9, Type 0, BuildingBlock: NAWXER_clean_sbu_0, # of connection points: 4
#     Node 10, Type 0, BuildingBlock: NAWXER_clean_sbu_0, # of connection points: 4
#     Node 11, Type 0, BuildingBlock: NAWXER_clean_sbu_0, # of connection points: 4
#     Node 12, Type 0, BuildingBlock: NAWXER_clean_sbu_0, # of connection points: 4
#     Node 13, Type 0, BuildingBlock: NAWXER_clean_sbu_0, # of connection points: 4
#     Node 14, Type 0, BuildingBlock: NAWXER_clean_sbu_0, # of connection points: 4
#     Node 15, Type 0, BuildingBlock: NAWXER_clean_sbu_0, # of connection points: 4
#     Node 16, Type 0, BuildingBlock: NAWXER_clean_sbu_0, # of connection points: 4
#     Node 17, Type 0, BuildingBlock: NAWXER_clean_sbu_0, # of connection points: 4
#     Node 18, Type 0, BuildingBlock: NAWXER_clean_sbu_0, # of connection points: 4
#     Node 19, Type 0, BuildingBlock: NAWXER_clean_sbu_0, # of connection points: 4
#     Node 20, Type 0, BuildingBlock: NAWXER_clean_sbu_0, # of connection points: 4
#     Node 21, Type 0, BuildingBlock: NAWXER_clean_sbu_0, # of connection points: 4
#     Node 22, Type 0, BuildingBlock: NAWXER_clean_sbu_0, # of connection points: 4
#     Node 23, Type 0, BuildingBlock: NAWXER_clean_sbu_0, # of connection points: 4
#     Node 24, Type 0, BuildingBlock: NAWXER_clean_sbu_0, # of connection points: 4
#     Node 25, Type 0, BuildingBlock: NAWXER_clean_sbu_0, # of connection points: 4
#     Node 26, Type 0, BuildingBlock: NAWXER_clean_sbu_0, # of connection points: 4
#     Node 27, Type 0, BuildingBlock: NAWXER_clean_sbu_0, # of connection points: 4
#     Node 28, Type 0, BuildingBlock: NAWXER_clean_sbu_0, # of connection points: 4
#     Node 29, Type 0, BuildingBlock: NAWXER_clean_sbu_0, # of connection points: 4
#     Node 30, Type 0, BuildingBlock: NAWXER_clean_sbu_0, # of connection points: 4
#     Node 31, Type 0, BuildingBlock: NAWXER_clean_sbu_0, # of connection points: 4
#     Node 32, Type 0, BuildingBlock: NAWXER_clean_sbu_0, # of connection points: 4
#     Node 33, Type 0, BuildingBlock: NAWXER_clean_sbu_0, # of connection points: 4
#     Node 34, Type 0, BuildingBlock: NAWXER_clean_sbu_0, # of connection points: 4
#     Node 35, Type 0, BuildingBlock: NAWXER_clean_sbu_0, # of connection points: 4
#     Node 36, Type 0, BuildingBlock: NAWXER_clean_sbu_0, # of connection points: 4
#     Node 37, Type 0, BuildingBlock: NAWXER_clean_sbu_0, # of connection points: 4
#     Node 38, Type 0, BuildingBlock: NAWXER_clean_sbu_0, # of connection points: 4
#     Node 39, Type 0, BuildingBlock: NAWXER_clean_sbu_0, # of connection points: 4
#     Node 40, Type 0, BuildingBlock: NAWXER_clean_sbu_0, # of connection points: 4
#     Node 41, Type 0, BuildingBlock: NAWXER_clean_sbu_0, # of connection points: 4
#     Node 42, Type 0, BuildingBlock: NAWXER_clean_sbu_0, # of connection points: 4
#     Node 43, Type 0, BuildingBlock: NAWXER_clean_sbu_0, # of connection points: 4
#     Node 44, Type 0, BuildingBlock: NAWXER_clean_sbu_0, # of connection points: 4
#     Node 45, Type 0, BuildingBlock: NAWXER_clean_sbu_0, # of connection points: 4
#     Node 46, Type 0, BuildingBlock: NAWXER_clean_sbu_0, # of connection points: 4
#     Node 47, Type 0, BuildingBlock: NAWXER_clean_sbu_0, # of connection points: 4
#     Node 48, Type 0, BuildingBlock: NAWXER_clean_sbu_0, # of connection points: 4
#     Node 49, Type 0, BuildingBlock: NAWXER_clean_sbu_0, # of connection points: 4
#     Node 50, Type 0, BuildingBlock: NAWXER_clean_sbu_0, # of connection points: 4
#     Node 51, Type 0, BuildingBlock: NAWXER_clean_sbu_0, # of connection points: 4
#     Node 52, Type 0, BuildingBlock: NAWXER_clean_sbu_0, # of connection points: 4
#     Node 53, Type 0, BuildingBlock: NAWXER_clean_sbu_0, # of connection points: 4
#     Node 54, Type 0, BuildingBlock: NAWXER_clean_sbu_0, # of connection points: 4
#     Node 55, Type 0, BuildingBlock: NAWXER_clean_sbu_0, # of connection points: 4
#     Node 56, Type 0, BuildingBlock: NAWXER_clean_sbu_0, # of connection points: 4
#     Node 57, Type 0, BuildingBlock: NAWXER_clean_sbu_0, # of connection points: 4
#     Node 58, Type 0, BuildingBlock: NAWXER_clean_sbu_0, # of connection points: 4
#     Node 59, Type 0, BuildingBlock: NAWXER_clean_sbu_0, # of connection points: 4
#     Node 60, Type 0, BuildingBlock: NAWXER_clean_sbu_0, # of connection points: 4
#     Node 61, Type 0, BuildingBlock: NAWXER_clean_sbu_0, # of connection points: 4
#     Node 62, Type 0, BuildingBlock: NAWXER_clean_sbu_0, # of connection points: 4
#     Node 63, Type 0, BuildingBlock: NAWXER_clean_sbu_0, # of connection points: 4
#     Node 64, Type 0, BuildingBlock: NAWXER_clean_sbu_0, # of connection points: 4
#     Node 65, Type 0, BuildingBlock: NAWXER_clean_sbu_0, # of connection points: 4
#     Node 66, Type 0, BuildingBlock: NAWXER_clean_sbu_0, # of connection points: 4
#     Node 67, Type 0, BuildingBlock: NAWXER_clean_sbu_0, # of connection points: 4
#     Node 68, Type 0, BuildingBlock: NAWXER_clean_sbu_0, # of connection points: 4
#     Node 69, Type 0, BuildingBlock: NAWXER_clean_sbu_0, # of connection points: 4
#     Node 70, Type 0, BuildingBlock: NAWXER_clean_sbu_0, # of connection points: 4
#     Node 71, Type 0, BuildingBlock: NAWXER_clean_sbu_0, # of connection points: 4
#     Node 72, Type 0, BuildingBlock: NAWXER_clean_sbu_0, # of connection points: 4
#     Node 73, Type 0, BuildingBlock: NAWXER_clean_sbu_0, # of connection points: 4
#     Node 74, Type 0, BuildingBlock: NAWXER_clean_sbu_0, # of connection points: 4
#     Node 75, Type 0, BuildingBlock: NAWXER_clean_sbu_0, # of connection points: 4
#     Node 76, Type 0, BuildingBlock: NAWXER_clean_sbu_0, # of connection points: 4
#     Node 77, Type 0, BuildingBlock: NAWXER_clean_sbu_0, # of connection points: 4
#     Node 78, Type 0, BuildingBlock: NAWXER_clean_sbu_0, # of connection points: 4
#     Node 79, Type 0, BuildingBlock: NAWXER_clean_sbu_0, # of connection points: 4
#     Node 80, Type 0, BuildingBlock: NAWXER_clean_sbu_0, # of connection points: 4
#     Node 81, Type 0, BuildingBlock: NAWXER_clean_sbu_0, # of connection points: 4
#     Node 82, Type 0, BuildingBlock: NAWXER_clean_sbu_0, # of connection points: 4
#     Node 83, Type 0, BuildingBlock: NAWXER_clean_sbu_0, # of connection points: 4
#     Node 84, Type 0, BuildingBlock: NAWXER_clean_sbu_0, # of connection points: 4
#     Node 85, Type 0, BuildingBlock: NAWXER_clean_sbu_0, # of connection points: 4
#     Node 86, Type 0, BuildingBlock: NAWXER_clean_sbu_0, # of connection points: 4
#     Node 87, Type 0, BuildingBlock: NAWXER_clean_sbu_0, # of connection points: 4
#     Node 88, Type 0, BuildingBlock: NAWXER_clean_sbu_0, # of connection points: 4
#     Node 89, Type 0, BuildingBlock: NAWXER_clean_sbu_0, # of connection points: 4
#     Node 90, Type 0, BuildingBlock: NAWXER_clean_sbu_0, # of connection points: 4
#     Node 91, Type 0, BuildingBlock: NAWXER_clean_sbu_0, # of connection points: 4
#     Node 92, Type 0, BuildingBlock: NAWXER_clean_sbu_0, # of connection points: 4
#     Node 93, Type 0, BuildingBlock: NAWXER_clean_sbu_0, # of connection points: 4
#     Node 94, Type 0, BuildingBlock: NAWXER_clean_sbu_0, # of connection points: 4
#     Node 95, Type 0, BuildingBlock: NAWXER_clean_sbu_0, # of connection points: 4
#     Node 96, Type 0, BuildingBlock: NAWXER_clean_sbu_0, # of connection points: 4
#     Node 97, Type 0, BuildingBlock: NAWXER_clean_sbu_0, # of connection points: 4
#     Node 98, Type 0, BuildingBlock: NAWXER_clean_sbu_0, # of connection points: 4
#     Node 99, Type 0, BuildingBlock: NAWXER_clean_sbu_0, # of connection points: 4
#     Node 100, Type 0, BuildingBlock: NAWXER_clean_sbu_0, # of connection points: 4
#     Node 101, Type 0, BuildingBlock: NAWXER_clean_sbu_0, # of connection points: 4
#     Node 102, Type 0, BuildingBlock: NAWXER_clean_sbu_0, # of connection points: 4
#     Node 103, Type 0, BuildingBlock: NAWXER_clean_sbu_0, # of connection points: 4
#     Node 104, Type 0, BuildingBlock: NAWXER_clean_sbu_0, # of connection points: 4
#     Node 105, Type 0, BuildingBlock: NAWXER_clean_sbu_0, # of connection points: 4
#     Node 106, Type 0, BuildingBlock: NAWXER_clean_sbu_0, # of connection points: 4
#     Node 107, Type 0, BuildingBlock: NAWXER_clean_sbu_0, # of connection points: 4
#     Node 108, Type 0, BuildingBlock: NAWXER_clean_sbu_0, # of connection points: 4
#     Node 109, Type 0, BuildingBlock: NAWXER_clean_sbu_0, # of connection points: 4
#     Node 110, Type 0, BuildingBlock: NAWXER_clean_sbu_0, # of connection points: 4
#     Node 111, Type 0, BuildingBlock: NAWXER_clean_sbu_0, # of connection points: 4
#     Node 112, Type 0, BuildingBlock: NAWXER_clean_sbu_0, # of connection points: 4
#     Node 113, Type 0, BuildingBlock: NAWXER_clean_sbu_0, # of connection points: 4
#     Node 114, Type 0, BuildingBlock: NAWXER_clean_sbu_0, # of connection points: 4
#     Node 115, Type 0, BuildingBlock: NAWXER_clean_sbu_0, # of connection points: 4
#     Node 116, Type 0, BuildingBlock: NAWXER_clean_sbu_0, # of connection points: 4
#     Node 117, Type 0, BuildingBlock: NAWXER_clean_sbu_0, # of connection points: 4
#     Node 118, Type 0, BuildingBlock: NAWXER_clean_sbu_0, # of connection points: 4
#     Node 119, Type 0, BuildingBlock: NAWXER_clean_sbu_0, # of connection points: 4
#     Node 120, Type 0, BuildingBlock: NAWXER_clean_sbu_0, # of connection points: 4
#     Node 121, Type 0, BuildingBlock: NAWXER_clean_sbu_0, # of connection points: 4
#     Node 122, Type 0, BuildingBlock: NAWXER_clean_sbu_0, # of connection points: 4
#     Node 123, Type 0, BuildingBlock: NAWXER_clean_sbu_0, # of connection points: 4
#     Node 124, Type 0, BuildingBlock: NAWXER_clean_sbu_0, # of connection points: 4
#     Node 125, Type 0, BuildingBlock: NAWXER_clean_sbu_0, # of connection points: 4
#     Node 126, Type 0, BuildingBlock: NAWXER_clean_sbu_0, # of connection points: 4
#     Node 127, Type 0, BuildingBlock: NAWXER_clean_sbu_0, # of connection points: 4
#     Node 128, Type 0, BuildingBlock: NAWXER_clean_sbu_0, # of connection points: 4
#     Node 129, Type 0, BuildingBlock: NAWXER_clean_sbu_0, # of connection points: 4
#     Node 130, Type 0, BuildingBlock: NAWXER_clean_sbu_0, # of connection points: 4
#     Node 131, Type 0, BuildingBlock: NAWXER_clean_sbu_0, # of connection points: 4
#     Node 132, Type 0, BuildingBlock: NAWXER_clean_sbu_0, # of connection points: 4
#     Node 133, Type 0, BuildingBlock: NAWXER_clean_sbu_0, # of connection points: 4
#     Node 134, Type 0, BuildingBlock: NAWXER_clean_sbu_0, # of connection points: 4
#     Node 135, Type 0, BuildingBlock: NAWXER_clean_sbu_0, # of connection points: 4
#     Node 136, Type 0, BuildingBlock: NAWXER_clean_sbu_0, # of connection points: 4
#     Node 137, Type 0, BuildingBlock: NAWXER_clean_sbu_0, # of connection points: 4
#     Node 138, Type 0, BuildingBlock: NAWXER_clean_sbu_0, # of connection points: 4
#     Node 139, Type 0, BuildingBlock: NAWXER_clean_sbu_0, # of connection points: 4
#     Node 140, Type 0, BuildingBlock: NAWXER_clean_sbu_0, # of connection points: 4
#     Node 141, Type 0, BuildingBlock: NAWXER_clean_sbu_0, # of connection points: 4
#     Node 142, Type 0, BuildingBlock: NAWXER_clean_sbu_0, # of connection points: 4
#     Node 143, Type 0, BuildingBlock: NAWXER_clean_sbu_0, # of connection points: 4
#     Node 144, Type 0, BuildingBlock: NAWXER_clean_sbu_0, # of connection points: 4
#     Node 145, Type 0, BuildingBlock: NAWXER_clean_sbu_0, # of connection points: 4
#     Node 146, Type 0, BuildingBlock: NAWXER_clean_sbu_0, # of connection points: 4
#     Node 147, Type 0, BuildingBlock: NAWXER_clean_sbu_0, # of connection points: 4
#     Node 148, Type 0, BuildingBlock: NAWXER_clean_sbu_0, # of connection points: 4
#     Node 149, Type 0, BuildingBlock: NAWXER_clean_sbu_0, # of connection points: 4
#     Node 150, Type 0, BuildingBlock: NAWXER_clean_sbu_0, # of connection points: 4
#     Node 151, Type 0, BuildingBlock: NAWXER_clean_sbu_0, # of connection points: 4
#     Node 152, Type 0, BuildingBlock: NAWXER_clean_sbu_0, # of connection points: 4
#     Node 153, Type 0, BuildingBlock: NAWXER_clean_sbu_0, # of connection points: 4
#     Node 154, Type 0, BuildingBlock: NAWXER_clean_sbu_0, # of connection points: 4
#     Node 155, Type 0, BuildingBlock: NAWXER_clean_sbu_0, # of connection points: 4
#     Node 156, Type 0, BuildingBlock: NAWXER_clean_sbu_0, # of connection points: 4
#     Node 157, Type 0, BuildingBlock: NAWXER_clean_sbu_0, # of connection points: 4
#     Node 158, Type 0, BuildingBlock: NAWXER_clean_sbu_0, # of connection points: 4
#     Node 159, Type 0, BuildingBlock: NAWXER_clean_sbu_0, # of connection points: 4
#     Node 160, Type 0, BuildingBlock: NAWXER_clean_sbu_0, # of connection points: 4
#     Node 161, Type 0, BuildingBlock: NAWXER_clean_sbu_0, # of connection points: 4
#     Node 162, Type 0, BuildingBlock: NAWXER_clean_sbu_0, # of connection points: 4
#     Node 163, Type 0, BuildingBlock: NAWXER_clean_sbu_0, # of connection points: 4
#     Node 164, Type 0, BuildingBlock: NAWXER_clean_sbu_0, # of connection points: 4
#     Node 165, Type 0, BuildingBlock: NAWXER_clean_sbu_0, # of connection points: 4
#     Node 166, Type 0, BuildingBlock: NAWXER_clean_sbu_0, # of connection points: 4
#     Node 167, Type 0, BuildingBlock: NAWXER_clean_sbu_0, # of connection points: 4
#     Node 168, Type 0, BuildingBlock: NAWXER_clean_sbu_0, # of connection points: 4
#     Node 169, Type 0, BuildingBlock: NAWXER_clean_sbu_0, # of connection points: 4
#     Node 170, Type 0, BuildingBlock: NAWXER_clean_sbu_0, # of connection points: 4
#     Node 171, Type 0, BuildingBlock: NAWXER_clean_sbu_0, # of connection points: 4
#     Node 172, Type 0, BuildingBlock: NAWXER_clean_sbu_0, # of connection points: 4
#     Node 173, Type 0, BuildingBlock: NAWXER_clean_sbu_0, # of connection points: 4
#     Node 174, Type 0, BuildingBlock: NAWXER_clean_sbu_0, # of connection points: 4
#     Node 175, Type 0, BuildingBlock: NAWXER_clean_sbu_0, # of connection points: 4
#     Node 176, Type 0, BuildingBlock: NAWXER_clean_sbu_0, # of connection points: 4
#     Node 177, Type 0, BuildingBlock: NAWXER_clean_sbu_0, # of connection points: 4
#     Node 178, Type 0, BuildingBlock: NAWXER_clean_sbu_0, # of connection points: 4
#     Node 179, Type 0, BuildingBlock: NAWXER_clean_sbu_0, # of connection points: 4
#     Node 180, Type 0, BuildingBlock: NAWXER_clean_sbu_0, # of connection points: 4
#     Node 181, Type 0, BuildingBlock: NAWXER_clean_sbu_0, # of connection points: 4
#     Node 182, Type 0, BuildingBlock: NAWXER_clean_sbu_0, # of connection points: 4
#     Node 183, Type 0, BuildingBlock: NAWXER_clean_sbu_0, # of connection points: 4
#     Node 184, Type 0, BuildingBlock: NAWXER_clean_sbu_0, # of connection points: 4
#     Node 185, Type 0, BuildingBlock: NAWXER_clean_sbu_0, # of connection points: 4
#     Node 186, Type 0, BuildingBlock: NAWXER_clean_sbu_0, # of connection points: 4
#     Node 187, Type 0, BuildingBlock: NAWXER_clean_sbu_0, # of connection points: 4
#     Node 188, Type 0, BuildingBlock: NAWXER_clean_sbu_0, # of connection points: 4
#     Node 189, Type 0, BuildingBlock: NAWXER_clean_sbu_0, # of connection points: 4
#     Node 190, Type 0, BuildingBlock: NAWXER_clean_sbu_0, # of connection points: 4
#     Node 191, Type 0, BuildingBlock: NAWXER_clean_sbu_0, # of connection points: 4
#     Edge 192, Type (0, 0), None
#     Edge 193, Type (0, 0), None
#     Edge 194, Type (0, 0), None
#     Edge 195, Type (0, 0), None
#     Edge 196, Type (0, 0), None
#     Edge 197, Type (0, 0), None
#     Edge 198, Type (0, 0), None
#     Edge 199, Type (0, 0), None
#     Edge 200, Type (0, 0), None
#     Edge 201, Type (0, 0), None
#     Edge 202, Type (0, 0), None
#     Edge 203, Type (0, 0), None
#     Edge 204, Type (0, 0), None
#     Edge 205, Type (0, 0), None
#     Edge 206, Type (0, 0), None
#     Edge 207, Type (0, 0), None
#     Edge 208, Type (0, 0), None
#     Edge 209, Type (0, 0), None
#     Edge 210, Type (0, 0), None
#     Edge 211, Type (0, 0), None
#     Edge 212, Type (0, 0), None
#     Edge 213, Type (0, 0), None
#     Edge 214, Type (0, 0), None
#     Edge 215, Type (0, 0), None
#     Edge 216, Type (0, 0), None
#     Edge 217, Type (0, 0), None
#     Edge 218, Type (0, 0), None
#     Edge 219, Type (0, 0), None
#     Edge 220, Type (0, 0), None
#     Edge 221, Type (0, 0), None
#     Edge 222, Type (0, 0), None
#     Edge 223, Type (0, 0), None
#     Edge 224, Type (0, 0), None
#     Edge 225, Type (0, 0), None
#     Edge 226, Type (0, 0), None
#     Edge 227, Type (0, 0), None
#     Edge 228, Type (0, 0), None
#     Edge 229, Type (0, 0), None
#     Edge 230, Type (0, 0), None
#     Edge 231, Type (0, 0), None
#     Edge 232, Type (0, 0), None
#     Edge 233, Type (0, 0), None
#     Edge 234, Type (0, 0), None
#     Edge 235, Type (0, 0), None
#     Edge 236, Type (0, 0), None
#     Edge 237, Type (0, 0), None
#     Edge 238, Type (0, 0), None
#     Edge 239, Type (0, 0), None
#     Edge 240, Type (0, 0), None
#     Edge 241, Type (0, 0), None
#     Edge 242, Type (0, 0), None
#     Edge 243, Type (0, 0), None
#     Edge 244, Type (0, 0), None
#     Edge 245, Type (0, 0), None
#     Edge 246, Type (0, 0), None
#     Edge 247, Type (0, 0), None
#     Edge 248, Type (0, 0), None
#     Edge 249, Type (0, 0), None
#     Edge 250, Type (0, 0), None
#     Edge 251, Type (0, 0), None
#     Edge 252, Type (0, 0), None
#     Edge 253, Type (0, 0), None
#     Edge 254, Type (0, 0), None
#     Edge 255, Type (0, 0), None
#     Edge 256, Type (0, 0), None
#     Edge 257, Type (0, 0), None
#     Edge 258, Type (0, 0), None
#     Edge 259, Type (0, 0), None
#     Edge 260, Type (0, 0), None
#     Edge 261, Type (0, 0), None
#     Edge 262, Type (0, 0), None
#     Edge 263, Type (0, 0), None
#     Edge 264, Type (0, 0), None
#     Edge 265, Type (0, 0), None
#     Edge 266, Type (0, 0), None
#     Edge 267, Type (0, 0), None
#     Edge 268, Type (0, 0), None
#     Edge 269, Type (0, 0), None
#     Edge 270, Type (0, 0), None
#     Edge 271, Type (0, 0), None
#     Edge 272, Type (0, 0), None
#     Edge 273, Type (0, 0), None
#     Edge 274, Type (0, 0), None
#     Edge 275, Type (0, 0), None
#     Edge 276, Type (0, 0), None
#     Edge 277, Type (0, 0), None
#     Edge 278, Type (0, 0), None
#     Edge 279, Type (0, 0), None
#     Edge 280, Type (0, 0), None
#     Edge 281, Type (0, 0), None
#     Edge 282, Type (0, 0), None
#     Edge 283, Type (0, 0), None
#     Edge 284, Type (0, 0), None
#     Edge 285, Type (0, 0), None
#     Edge 286, Type (0, 0), None
#     Edge 287, Type (0, 0), None
#     Edge 288, Type (0, 0), None
#     Edge 289, Type (0, 0), None
#     Edge 290, Type (0, 0), None
#     Edge 291, Type (0, 0), None
#     Edge 292, Type (0, 0), None
#     Edge 293, Type (0, 0), None
#     Edge 294, Type (0, 0), None
#     Edge 295, Type (0, 0), None
#     Edge 296, Type (0, 0), None
#     Edge 297, Type (0, 0), None
#     Edge 298, Type (0, 0), None
#     Edge 299, Type (0, 0), None
#     Edge 300, Type (0, 0), None
#     Edge 301, Type (0, 0), None
#     Edge 302, Type (0, 0), None
#     Edge 303, Type (0, 0), None
#     Edge 304, Type (0, 0), None
#     Edge 305, Type (0, 0), None
#     Edge 306, Type (0, 0), None
#     Edge 307, Type (0, 0), None
#     Edge 308, Type (0, 0), None
#     Edge 309, Type (0, 0), None
#     Edge 310, Type (0, 0), None
#     Edge 311, Type (0, 0), None
#     Edge 312, Type (0, 0), None
#     Edge 313, Type (0, 0), None
#     Edge 314, Type (0, 0), None
#     Edge 315, Type (0, 0), None
#     Edge 316, Type (0, 0), None
#     Edge 317, Type (0, 0), None
#     Edge 318, Type (0, 0), None
#     Edge 319, Type (0, 0), None
#     Edge 320, Type (0, 0), None
#     Edge 321, Type (0, 0), None
#     Edge 322, Type (0, 0), None
#     Edge 323, Type (0, 0), None
#     Edge 324, Type (0, 0), None
#     Edge 325, Type (0, 0), None
#     Edge 326, Type (0, 0), None
#     Edge 327, Type (0, 0), None
#     Edge 328, Type (0, 0), None
#     Edge 329, Type (0, 0), None
#     Edge 330, Type (0, 0), None
#     Edge 331, Type (0, 0), None
#     Edge 332, Type (0, 0), None
#     Edge 333, Type (0, 0), None
#     Edge 334, Type (0, 0), None
#     Edge 335, Type (0, 0), None
#     Edge 336, Type (0, 0), None
#     Edge 337, Type (0, 0), None
#     Edge 338, Type (0, 0), None
#     Edge 339, Type (0, 0), None
#     Edge 340, Type (0, 0), None
#     Edge 341, Type (0, 0), None
#     Edge 342, Type (0, 0), None
#     Edge 343, Type (0, 0), None
#     Edge 344, Type (0, 0), None
#     Edge 345, Type (0, 0), None
#     Edge 346, Type (0, 0), None
#     Edge 347, Type (0, 0), None
#     Edge 348, Type (0, 0), None
#     Edge 349, Type (0, 0), None
#     Edge 350, Type (0, 0), None
#     Edge 351, Type (0, 0), None
#     Edge 352, Type (0, 0), None
#     Edge 353, Type (0, 0), None
#     Edge 354, Type (0, 0), None
#     Edge 355, Type (0, 0), None
#     Edge 356, Type (0, 0), None
#     Edge 357, Type (0, 0), None
#     Edge 358, Type (0, 0), None
#     Edge 359, Type (0, 0), None
#     Edge 360, Type (0, 0), None
#     Edge 361, Type (0, 0), None
#     Edge 362, Type (0, 0), None
#     Edge 363, Type (0, 0), None
#     Edge 364, Type (0, 0), None
#     Edge 365, Type (0, 0), None
#     Edge 366, Type (0, 0), None
#     Edge 367, Type (0, 0), None
#     Edge 368, Type (0, 0), None
#     Edge 369, Type (0, 0), None
#     Edge 370, Type (0, 0), None
#     Edge 371, Type (0, 0), None
#     Edge 372, Type (0, 0), None
#     Edge 373, Type (0, 0), None
#     Edge 374, Type (0, 0), None
#     Edge 375, Type (0, 0), None
#     Edge 376, Type (0, 0), None
#     Edge 377, Type (0, 0), None
#     Edge 378, Type (0, 0), None
#     Edge 379, Type (0, 0), None
#     Edge 380, Type (0, 0), None
#     Edge 381, Type (0, 0), None
#     Edge 382, Type (0, 0), None
#     Edge 383, Type (0, 0), None
#     Edge 384, Type (0, 0), None
#     Edge 385, Type (0, 0), None
#     Edge 386, Type (0, 0), None
#     Edge 387, Type (0, 0), None
#     Edge 388, Type (0, 0), None
#     Edge 389, Type (0, 0), None
#     Edge 390, Type (0, 0), None
#     Edge 391, Type (0, 0), None
#     Edge 392, Type (0, 0), None
#     Edge 393, Type (0, 0), None
#     Edge 394, Type (0, 0), None
#     Edge 395, Type (0, 0), None
#     Edge 396, Type (0, 0), None
#     Edge 397, Type (0, 0), None
#     Edge 398, Type (0, 0), None
#     Edge 399, Type (0, 0), None
#     Edge 400, Type (0, 0), None
#     Edge 401, Type (0, 0), None
#     Edge 402, Type (0, 0), None
#     Edge 403, Type (0, 0), None
#     Edge 404, Type (0, 0), None
#     Edge 405, Type (0, 0), None
#     Edge 406, Type (0, 0), None
#     Edge 407, Type (0, 0), None
#     Edge 408, Type (0, 0), None
#     Edge 409, Type (0, 0), None
#     Edge 410, Type (0, 0), None
#     Edge 411, Type (0, 0), None
#     Edge 412, Type (0, 0), None
#     Edge 413, Type (0, 0), None
#     Edge 414, Type (0, 0), None
#     Edge 415, Type (0, 0), None
#     Edge 416, Type (0, 0), None
#     Edge 417, Type (0, 0), None
#     Edge 418, Type (0, 0), None
#     Edge 419, Type (0, 0), None
#     Edge 420, Type (0, 0), None
#     Edge 421, Type (0, 0), None
#     Edge 422, Type (0, 0), None
#     Edge 423, Type (0, 0), None
#     Edge 424, Type (0, 0), None
#     Edge 425, Type (0, 0), None
#     Edge 426, Type (0, 0), None
#     Edge 427, Type (0, 0), None
#     Edge 428, Type (0, 0), None
#     Edge 429, Type (0, 0), None
#     Edge 430, Type (0, 0), None
#     Edge 431, Type (0, 0), None
#     Edge 432, Type (0, 0), None
#     Edge 433, Type (0, 0), None
#     Edge 434, Type (0, 0), None
#     Edge 435, Type (0, 0), None
#     Edge 436, Type (0, 0), None
#     Edge 437, Type (0, 0), None
#     Edge 438, Type (0, 0), None
#     Edge 439, Type (0, 0), None
#     Edge 440, Type (0, 0), None
#     Edge 441, Type (0, 0), None
#     Edge 442, Type (0, 0), None
#     Edge 443, Type (0, 0), None
#     Edge 444, Type (0, 0), None
#     Edge 445, Type (0, 0), None
#     Edge 446, Type (0, 0), None
#     Edge 447, Type (0, 0), None
#     Edge 448, Type (0, 0), None
#     Edge 449, Type (0, 0), None
#     Edge 450, Type (0, 0), None
#     Edge 451, Type (0, 0), None
#     Edge 452, Type (0, 0), None
#     Edge 453, Type (0, 0), None
#     Edge 454, Type (0, 0), None
#     Edge 455, Type (0, 0), None
#     Edge 456, Type (0, 0), None
#     Edge 457, Type (0, 0), None
#     Edge 458, Type (0, 0), None
#     Edge 459, Type (0, 0), None
#     Edge 460, Type (0, 0), None
#     Edge 461, Type (0, 0), None
#     Edge 462, Type (0, 0), None
#     Edge 463, Type (0, 0), None
#     Edge 464, Type (0, 0), None
#     Edge 465, Type (0, 0), None
#     Edge 466, Type (0, 0), None
#     Edge 467, Type (0, 0), None
#     Edge 468, Type (0, 0), None
#     Edge 469, Type (0, 0), None
#     Edge 470, Type (0, 0), None
#     Edge 471, Type (0, 0), None
#     Edge 472, Type (0, 0), None
#     Edge 473, Type (0, 0), None
#     Edge 474, Type (0, 0), None
#     Edge 475, Type (0, 0), None
#     Edge 476, Type (0, 0), None
#     Edge 477, Type (0, 0), None
#     Edge 478, Type (0, 0), None
#     Edge 479, Type (0, 0), None
#     Edge 480, Type (0, 0), None
#     Edge 481, Type (0, 0), None
#     Edge 482, Type (0, 0), None
#     Edge 483, Type (0, 0), None
#     Edge 484, Type (0, 0), None
#     Edge 485, Type (0, 0), None
#     Edge 486, Type (0, 0), None
#     Edge 487, Type (0, 0), None
#     Edge 488, Type (0, 0), None
#     Edge 489, Type (0, 0), None
#     Edge 490, Type (0, 0), None
#     Edge 491, Type (0, 0), None
#     Edge 492, Type (0, 0), None
#     Edge 493, Type (0, 0), None
#     Edge 494, Type (0, 0), None
#     Edge 495, Type (0, 0), None
#     Edge 496, Type (0, 0), None
#     Edge 497, Type (0, 0), None
#     Edge 498, Type (0, 0), None
#     Edge 499, Type (0, 0), None
#     Edge 500, Type (0, 0), None
#     Edge 501, Type (0, 0), None
#     Edge 502, Type (0, 0), None
#     Edge 503, Type (0, 0), None
#     Edge 504, Type (0, 0), None
#     Edge 505, Type (0, 0), None
#     Edge 506, Type (0, 0), None
#     Edge 507, Type (0, 0), None
#     Edge 508, Type (0, 0), None
#     Edge 509, Type (0, 0), None
#     Edge 510, Type (0, 0), None
#     Edge 511, Type (0, 0), None
#     Edge 512, Type (0, 0), None
#     Edge 513, Type (0, 0), None
#     Edge 514, Type (0, 0), None
#     Edge 515, Type (0, 0), None
#     Edge 516, Type (0, 0), None
#     Edge 517, Type (0, 0), None
#     Edge 518, Type (0, 0), None
#     Edge 519, Type (0, 0), None
#     Edge 520, Type (0, 0), None
#     Edge 521, Type (0, 0), None
#     Edge 522, Type (0, 0), None
#     Edge 523, Type (0, 0), None
#     Edge 524, Type (0, 0), None
#     Edge 525, Type (0, 0), None
#     Edge 526, Type (0, 0), None
#     Edge 527, Type (0, 0), None
#     Edge 528, Type (0, 0), None
#     Edge 529, Type (0, 0), None
#     Edge 530, Type (0, 0), None
#     Edge 531, Type (0, 0), None
#     Edge 532, Type (0, 0), None
#     Edge 533, Type (0, 0), None
#     Edge 534, Type (0, 0), None
#     Edge 535, Type (0, 0), None
#     Edge 536, Type (0, 0), None
#     Edge 537, Type (0, 0), None
#     Edge 538, Type (0, 0), None
#     Edge 539, Type (0, 0), None
#     Edge 540, Type (0, 0), None
#     Edge 541, Type (0, 0), None
#     Edge 542, Type (0, 0), None
#     Edge 543, Type (0, 0), None
#     Edge 544, Type (0, 0), None
#     Edge 545, Type (0, 0), None
#     Edge 546, Type (0, 0), None
#     Edge 547, Type (0, 0), None
#     Edge 548, Type (0, 0), None
#     Edge 549, Type (0, 0), None
#     Edge 550, Type (0, 0), None
#     Edge 551, Type (0, 0), None
#     Edge 552, Type (0, 0), None
#     Edge 553, Type (0, 0), None
#     Edge 554, Type (0, 0), None
#     Edge 555, Type (0, 0), None
#     Edge 556, Type (0, 0), None
#     Edge 557, Type (0, 0), None
#     Edge 558, Type (0, 0), None
#     Edge 559, Type (0, 0), None
#     Edge 560, Type (0, 0), None
#     Edge 561, Type (0, 0), None
#     Edge 562, Type (0, 0), None
#     Edge 563, Type (0, 0), None
#     Edge 564, Type (0, 0), None
#     Edge 565, Type (0, 0), None
#     Edge 566, Type (0, 0), None
#     Edge 567, Type (0, 0), None
#     Edge 568, Type (0, 0), None
#     Edge 569, Type (0, 0), None
#     Edge 570, Type (0, 0), None
#     Edge 571, Type (0, 0), None
#     Edge 572, Type (0, 0), None
#     Edge 573, Type (0, 0), None
#     Edge 574, Type (0, 0), None
#     Edge 575, Type (0, 0), None
# Relax obj value: 0.144
# Max RMSD: 0.284
# Mean RMSD: 0.284
data_MOF--net-unt--node1-NAWXER_clean_sbu_0--edge1-none
_symmetry_space_group_name_H-M    P1
_symmetry_Int_Tables_number       1
_symmetry_cell_setting            triclinic
loop_
_symmetry_equiv_pos_as_xyz
'x, y, z'
_cell_length_a     46.468075
_cell_length_b     46.468153
_cell_length_c     46.468167
_cell_angle_alpha  89.999923
_cell_angle_beta   90.000027
_cell_angle_gamma 89.999883
loop_
_atom_site_label
_atom_site_type_symbol
_atom_site_fract_x
_atom_site_fract_y
_atom_site_fract_z
_atom_type_partial_charge
C0 C 0.08866 0.23911 0.09776 0.0
C1 C 0.07273 0.147 0.14425 0.0
O2 O 0.0822 0.21989 0.07905 0.0
Zn3 Zn 0.07035 0.17496 0.08058 0.0
O4 O 0.08896 0.23281 0.12427 0.0
Zn5 Zn 0.07871 0.19306 0.1209 0.0
O6 O 0.11549 0.17403 0.09925 0.0
O7 O 0.0996 0.15602 0.05824 0.0
O8 O 0.07953 0.17079 0.15585 0.0
O9 O 0.06824 0.14569 0.11704 0.0
O10 O 0.03243 0.1737 0.06523 0.0
O11 O 0.03344 0.19233 0.10892 0.0
C12 C 0.12008 0.16025 0.07578 0.0
C13 C 0.01922 0.18415 0.08667 0.0
C14 C 0.32272 0.01922 0.08667 0.0
C15 C 0.34662 0.12008 0.07579 0.0
O16 O 0.31453 0.03344 0.10892 0.0
Zn17 Zn 0.3138 0.07871 0.1209 0.0
O18 O 0.33316 0.03243 0.06523 0.0
Zn19 Zn 0.3319 0.07035 0.08059 0.0
O20 O 0.36117 0.06824 0.11704 0.0
O21 O 0.33607 0.07953 0.15585 0.0
O22 O 0.35085 0.0996 0.05824 0.0
O23 O 0.33283 0.11548 0.09926 0.0
O24 O 0.27405 0.08896 0.12427 0.0
O25 O 0.28697 0.0822 0.07905 0.0
C26 C 0.35986 0.07273 0.14426 0.0
C27 C 0.26776 0.08866 0.09776 0.0
C28 C 0.38678 0.34662 0.07578 0.0
C29 C 0.48765 0.32271 0.08667 0.0
O30 O 0.39138 0.33283 0.09925 0.0
Zn31 Zn 0.42815 0.3138 0.1209 0.0
O32 O 0.40727 0.35085 0.05824 0.0
Zn33 Zn 0.43651 0.3319 0.08058 0.0
O34 O 0.42466 0.28697 0.07905 0.0
O35 O 0.4179 0.27406 0.12427 0.0
O36 O 0.47444 0.33316 0.06523 0.0
O37 O 0.47343 0.31453 0.10892 0.0
O38 O 0.42733 0.33608 0.15585 0.0
O39 O 0.43863 0.36117 0.11704 0.0
C40 C 0.4182 0.26776 0.09776 0.0
C41 C 0.43413 0.35986 0.14425 0.0
C42 C 0.147 0.43413 0.14426 0.0
C43 C 0.23911 0.4182 0.09776 0.0
O44 O 0.14569 0.43863 0.11704 0.0
Zn45 Zn 0.17496 0.43651 0.08059 0.0
O46 O 0.17079 0.42733 0.15585 0.0
Zn47 Zn 0.19307 0.42815 0.1209 0.0
O48 O 0.19233 0.47342 0.10892 0.0
O49 O 0.1737 0.47443 0.06523 0.0
O50 O 0.23281 0.41791 0.12427 0.0
O51 O 0.21989 0.42466 0.07905 0.0
O52 O 0.15602 0.40726 0.05824 0.0
O53 O 0.17404 0.39138 0.09926 0.0
C54 C 0.18415 0.48765 0.08667 0.0
C55 C 0.16025 0.38678 0.07579 0.0
C56 C 0.08866 0.76775 0.9091 0.0
C57 C 0.07274 0.85986 0.86261 0.0
O58 O 0.0822 0.78697 0.92781 0.0
Zn59 Zn 0.07035 0.8319 0.92628 0.0
O60 O 0.08896 0.77405 0.88259 0.0
Zn61 Zn 0.07871 0.8138 0.88596 0.0
O62 O 0.11549 0.83283 0.90761 0.0
O63 O 0.0996 0.85084 0.94862 0.0
O64 O 0.07954 0.83608 0.85102 0.0
O65 O 0.06824 0.86117 0.88982 0.0
O66 O 0.03243 0.83316 0.94163 0.0
O67 O 0.03344 0.81453 0.89794 0.0
C68 C 0.12008 0.84661 0.93108 0.0
C69 C 0.01922 0.82271 0.92019 0.0
C70 C 0.73911 0.08866 0.9091 0.0
C71 C 0.647 0.07273 0.86261 0.0
O72 O 0.71989 0.0822 0.92781 0.0
Zn73 Zn 0.67496 0.07035 0.92628 0.0
O74 O 0.73281 0.08896 0.88259 0.0
Zn75 Zn 0.69306 0.07871 0.88596 0.0
O76 O 0.67404 0.11548 0.90761 0.0
O77 O 0.65602 0.09959 0.94862 0.0
O78 O 0.67079 0.07953 0.85102 0.0
O79 O 0.64569 0.06824 0.88982 0.0
O80 O 0.6737 0.03243 0.94163 0.0
O81 O 0.69233 0.03344 0.89794 0.0
C82 C 0.66025 0.12008 0.93108 0.0
C83 C 0.68415 0.01922 0.92019 0.0
C84 C 0.4182 0.73911 0.9091 0.0
C85 C 0.43413 0.647 0.86261 0.0
O86 O 0.42466 0.71989 0.92781 0.0
Zn87 Zn 0.43651 0.67496 0.92628 0.0
O88 O 0.4179 0.73281 0.88259 0.0
Zn89 Zn 0.42815 0.69306 0.88596 0.0
O90 O 0.39138 0.67403 0.90761 0.0
O91 O 0.40727 0.65602 0.94862 0.0
O92 O 0.42733 0.67079 0.85102 0.0
O93 O 0.43863 0.64569 0.88982 0.0
O94 O 0.47444 0.6737 0.94163 0.0
O95 O 0.47342 0.69233 0.89794 0.0
C96 C 0.38678 0.66025 0.93108 0.0
C97 C 0.48765 0.68415 0.92019 0.0
C98 C 0.76776 0.4182 0.9091 0.0
C99 C 0.85986 0.43413 0.86261 0.0
O100 O 0.78697 0.42466 0.92781 0.0
Zn101 Zn 0.8319 0.43651 0.92628 0.0
O102 O 0.77406 0.4179 0.88259 0.0
Zn103 Zn 0.8138 0.42815 0.88596 0.0
O104 O 0.83283 0.39138 0.90761 0.0
O105 O 0.85085 0.40727 0.94862 0.0
O106 O 0.83608 0.42733 0.85102 0.0
O107 O 0.86117 0.43863 0.88982 0.0
O108 O 0.83316 0.47443 0.94163 0.0
O109 O 0.81453 0.47342 0.89794 0.0
C110 C 0.84662 0.38678 0.93108 0.0
C111 C 0.82272 0.48765 0.92019 0.0
C112 C 0.09776 0.08866 0.23911 0.0
C113 C 0.14425 0.07274 0.147 0.0
O114 O 0.07905 0.0822 0.21989 0.0
Zn115 Zn 0.08058 0.07035 0.17496 0.0
O116 O 0.12427 0.08896 0.23281 0.0
Zn117 Zn 0.1209 0.07871 0.19306 0.0
O118 O 0.09925 0.11549 0.17404 0.0
O119 O 0.05824 0.0996 0.15602 0.0
O120 O 0.15585 0.07953 0.17079 0.0
O121 O 0.11704 0.06824 0.14569 0.0
O122 O 0.06523 0.03243 0.1737 0.0
O123 O 0.10892 0.03344 0.19233 0.0
C124 C 0.07578 0.12008 0.16025 0.0
C125 C 0.08667 0.01922 0.18415 0.0
C126 C 0.4182 0.09776 0.23911 0.0
C127 C 0.43413 0.14425 0.147 0.0
O128 O 0.42466 0.07905 0.21989 0.0
Zn129 Zn 0.43651 0.08058 0.17496 0.0
O130 O 0.41791 0.12427 0.23281 0.0
Zn131 Zn 0.42815 0.1209 0.19306 0.0
O132 O 0.39138 0.09925 0.17404 0.0
O133 O 0.40727 0.05824 0.15602 0.0
O134 O 0.42733 0.15585 0.17078 0.0
O135 O 0.43863 0.11704 0.14569 0.0
O136 O 0.47443 0.06523 0.1737 0.0
O137 O 0.47342 0.10892 0.19233 0.0
C138 C 0.38678 0.07578 0.16025 0.0
C139 C 0.48765 0.08667 0.18415 0.0
C140 C 0.4091 0.4182 0.23911 0.0
C141 C 0.36261 0.43413 0.147 0.0
O142 O 0.42781 0.42466 0.21989 0.0
Zn143 Zn 0.42628 0.43651 0.17496 0.0
O144 O 0.3826 0.41791 0.23281 0.0
Zn145 Zn 0.38596 0.42815 0.19306 0.0
O146 O 0.40761 0.39138 0.17404 0.0
O147 O 0.44863 0.40727 0.15602 0.0
O148 O 0.35102 0.42733 0.17078 0.0
O149 O 0.38983 0.43862 0.14569 0.0
O150 O 0.44164 0.47443 0.1737 0.0
O151 O 0.39794 0.47342 0.19233 0.0
C152 C 0.43108 0.38678 0.16025 0.0
C153 C 0.42019 0.48765 0.18415 0.0
C154 C 0.08866 0.4091 0.23911 0.0
C155 C 0.07274 0.36261 0.147 0.0
O156 O 0.0822 0.42781 0.21989 0.0
Zn157 Zn 0.07035 0.42628 0.17496 0.0
O158 O 0.08896 0.38259 0.23281 0.0
Zn159 Zn 0.07871 0.38596 0.19306 0.0
O160 O 0.11549 0.40761 0.17404 0.0
O161 O 0.0996 0.44862 0.15602 0.0
O162 O 0.07954 0.35102 0.17079 0.0
O163 O 0.06824 0.38982 0.14569 0.0
O164 O 0.03243 0.44163 0.1737 0.0
O165 O 0.03344 0.39794 0.19233 0.0
C166 C 0.12008 0.43108 0.16025 0.0
C167 C 0.01922 0.42019 0.18415 0.0
C168 C 0.14426 0.93413 0.85986 0.0
C169 C 0.09776 0.9182 0.76775 0.0
O170 O 0.11704 0.93862 0.86117 0.0
Zn171 Zn 0.08059 0.93651 0.8319 0.0
O172 O 0.15585 0.92733 0.83607 0.0
Zn173 Zn 0.1209 0.92815 0.8138 0.0
O174 O 0.10892 0.97342 0.81453 0.0
O175 O 0.06523 0.97443 0.83316 0.0
O176 O 0.12427 0.91791 0.77405 0.0
O177 O 0.07905 0.92466 0.78697 0.0
O178 O 0.05824 0.90726 0.85085 0.0
O179 O 0.09926 0.89138 0.83282 0.0
C180 C 0.08667 0.98765 0.82272 0.0
C181 C 0.07579 0.88678 0.84661 0.0
C182 C 0.58866 0.09776 0.76776 0.0
C183 C 0.57274 0.14425 0.85986 0.0
O184 O 0.5822 0.07905 0.78697 0.0
Zn185 Zn 0.57035 0.08058 0.8319 0.0
O186 O 0.58896 0.12427 0.77406 0.0
Zn187 Zn 0.57871 0.1209 0.8138 0.0
O188 O 0.61549 0.09925 0.83283 0.0
O189 O 0.5996 0.05824 0.85085 0.0
O190 O 0.57953 0.15585 0.83608 0.0
O191 O 0.56824 0.11704 0.86117 0.0
O192 O 0.53243 0.06523 0.83316 0.0
O193 O 0.53344 0.10892 0.81453 0.0
C194 C 0.62008 0.07578 0.84661 0.0
C195 C 0.51922 0.08667 0.82271 0.0
C196 C 0.4091 0.58866 0.76776 0.0
C197 C 0.36261 0.57273 0.85986 0.0
O198 O 0.42781 0.5822 0.78697 0.0
Zn199 Zn 0.42628 0.57035 0.8319 0.0
O200 O 0.38259 0.58896 0.77406 0.0
Zn201 Zn 0.38596 0.57871 0.8138 0.0
O202 O 0.40761 0.61549 0.83283 0.0
O203 O 0.44863 0.5996 0.85085 0.0
O204 O 0.35102 0.57953 0.83608 0.0
O205 O 0.38983 0.56824 0.86117 0.0
O206 O 0.44164 0.53243 0.83316 0.0
O207 O 0.39794 0.53344 0.81453 0.0
C208 C 0.43108 0.62008 0.84661 0.0
C209 C 0.42019 0.51922 0.82271 0.0
C210 C 0.9182 0.4091 0.76775 0.0
C211 C 0.93413 0.36261 0.85986 0.0
O212 O 0.92466 0.42781 0.78697 0.0
Zn213 Zn 0.93651 0.42628 0.8319 0.0
O214 O 0.91791 0.38259 0.77405 0.0
Zn215 Zn 0.92815 0.38596 0.8138 0.0
O216 O 0.89138 0.40761 0.83283 0.0
O217 O 0.90727 0.44862 0.85085 0.0
O218 O 0.92733 0.35102 0.83608 0.0
O219 O 0.93862 0.38982 0.86117 0.0
O220 O 0.97443 0.44163 0.83316 0.0
O221 O 0.97342 0.39794 0.81453 0.0
C222 C 0.88678 0.43108 0.84661 0.0
C223 C 0.98765 0.42019 0.82271 0.0
C224 C 0.18415 0.08667 0.01922 0.0
C225 C 0.16025 0.07579 0.12008 0.0
O226 O 0.19233 0.10892 0.03344 0.0
Zn227 Zn 0.19306 0.1209 0.07871 0.0
O228 O 0.1737 0.06523 0.03243 0.0
Zn229 Zn 0.17496 0.08059 0.07035 0.0
O230 O 0.14569 0.11704 0.06824 0.0
O231 O 0.17079 0.15585 0.07953 0.0
O232 O 0.15601 0.05824 0.0996 0.0
O233 O 0.17404 0.09926 0.11548 0.0
O234 O 0.23281 0.12427 0.08895 0.0
O235 O 0.21989 0.07905 0.0822 0.0
C236 C 0.147 0.14425 0.07273 0.0
C237 C 0.23911 0.09776 0.08866 0.0
C238 C 0.23911 0.4091 0.4182 0.0
C239 C 0.147 0.36261 0.43413 0.0
O240 O 0.21989 0.42781 0.42466 0.0
Zn241 Zn 0.17496 0.42628 0.43651 0.0
O242 O 0.23281 0.38259 0.4179 0.0
Zn243 Zn 0.19306 0.38596 0.42815 0.0
O244 O 0.17403 0.40761 0.39138 0.0
O245 O 0.15602 0.44862 0.40727 0.0
O246 O 0.17079 0.35102 0.42733 0.0
O247 O 0.14569 0.38982 0.43863 0.0
O248 O 0.1737 0.44163 0.47443 0.0
O249 O 0.19233 0.39794 0.47342 0.0
C250 C 0.16025 0.43108 0.38678 0.0
C251 C 0.18415 0.42019 0.48765 0.0
C252 C 0.07578 0.16024 0.38678 0.0
C253 C 0.08667 0.18415 0.48765 0.0
O254 O 0.09925 0.17403 0.39138 0.0
Zn255 Zn 0.1209 0.19306 0.42815 0.0
O256 O 0.05824 0.15602 0.40727 0.0
Zn257 Zn 0.08059 0.17496 0.43651 0.0
O258 O 0.07905 0.21989 0.42466 0.0
O259 O 0.12427 0.23281 0.4179 0.0
O260 O 0.06523 0.1737 0.47444 0.0
O261 O 0.10892 0.19233 0.47342 0.0
O262 O 0.15585 0.17078 0.42733 0.0
O263 O 0.11704 0.14569 0.43863 0.0
C264 C 0.09776 0.23911 0.4182 0.0
C265 C 0.14425 0.147 0.43413 0.0
C266 C 0.32272 0.08667 0.48765 0.0
C267 C 0.34662 0.07579 0.38678 0.0
O268 O 0.31453 0.10892 0.47342 0.0
Zn269 Zn 0.3138 0.1209 0.42815 0.0
O270 O 0.33316 0.06523 0.47443 0.0
Zn271 Zn 0.3319 0.08059 0.43651 0.0
O272 O 0.36117 0.11704 0.43863 0.0
O273 O 0.33607 0.15585 0.42733 0.0
O274 O 0.35085 0.05824 0.40727 0.0
O275 O 0.33283 0.09926 0.39138 0.0
O276 O 0.27405 0.12427 0.41791 0.0
O277 O 0.28697 0.07905 0.42466 0.0
C278 C 0.35986 0.14426 0.43413 0.0
C279 C 0.26776 0.09776 0.4182 0.0
C280 C 0.42019 0.82272 0.98765 0.0
C281 C 0.43107 0.84662 0.88678 0.0
O282 O 0.39794 0.81453 0.97342 0.0
Zn283 Zn 0.38596 0.8138 0.92815 0.0
O284 O 0.44163 0.83316 0.97443 0.0
Zn285 Zn 0.42628 0.8319 0.93651 0.0
O286 O 0.38982 0.86117 0.93863 0.0
O287 O 0.35101 0.83607 0.92733 0.0
O288 O 0.44862 0.85085 0.90726 0.0
O289 O 0.40761 0.83283 0.89138 0.0
O290 O 0.38259 0.77405 0.91791 0.0
O291 O 0.42781 0.78697 0.92466 0.0
C292 C 0.36261 0.85986 0.93413 0.0
C293 C 0.4091 0.76776 0.9182 0.0
C294 C 0.76776 0.9091 0.08866 0.0
C295 C 0.85986 0.86261 0.07273 0.0
O296 O 0.78697 0.92781 0.0822 0.0
Zn297 Zn 0.8319 0.92628 0.07035 0.0
O298 O 0.77406 0.88259 0.08896 0.0
Zn299 Zn 0.8138 0.88596 0.07871 0.0
O300 O 0.83283 0.90761 0.11548 0.0
O301 O 0.85085 0.94862 0.0996 0.0
O302 O 0.83608 0.85102 0.07953 0.0
O303 O 0.86117 0.88982 0.06824 0.0
O304 O 0.83316 0.94163 0.03243 0.0
O305 O 0.81453 0.89794 0.03344 0.0
C306 C 0.84662 0.93108 0.12008 0.0
C307 C 0.82271 0.92019 0.01922 0.0
C308 C 0.07578 0.84662 0.62008 0.0
C309 C 0.08667 0.82271 0.51922 0.0
O310 O 0.09925 0.83283 0.61548 0.0
Zn311 Zn 0.1209 0.8138 0.57871 0.0
O312 O 0.05824 0.85085 0.59959 0.0
Zn313 Zn 0.08059 0.8319 0.57035 0.0
O314 O 0.07905 0.78697 0.5822 0.0
O315 O 0.12427 0.77406 0.58896 0.0
O316 O 0.06523 0.83316 0.53243 0.0
O317 O 0.10892 0.81453 0.53344 0.0
O318 O 0.15585 0.83608 0.57953 0.0
O319 O 0.11704 0.86117 0.56824 0.0
C320 C 0.09776 0.76776 0.58866 0.0
C321 C 0.14425 0.85986 0.57273 0.0
C322 C 0.4091 0.73911 0.58866 0.0
C323 C 0.36261 0.647 0.57273 0.0
O324 O 0.42781 0.71989 0.5822 0.0
Zn325 Zn 0.42628 0.67496 0.57035 0.0
O326 O 0.38259 0.73281 0.58896 0.0
Zn327 Zn 0.38596 0.69306 0.57871 0.0
O328 O 0.40761 0.67403 0.61548 0.0
O329 O 0.44862 0.65602 0.5996 0.0
O330 O 0.35102 0.67079 0.57953 0.0
O331 O 0.38982 0.64569 0.56824 0.0
O332 O 0.44163 0.6737 0.53243 0.0
O333 O 0.39794 0.69233 0.53344 0.0
C334 C 0.43108 0.66025 0.62008 0.0
C335 C 0.42019 0.68415 0.51922 0.0
C336 C 0.98765 0.82271 0.92019 0.0
C337 C 0.88678 0.84662 0.93108 0.0
O338 O 0.97444 0.83316 0.94163 0.0
Zn339 Zn 0.93651 0.8319 0.92628 0.0
O340 O 0.97343 0.81453 0.89794 0.0
Zn341 Zn 0.92815 0.8138 0.88596 0.0
O342 O 0.92733 0.83608 0.85102 0.0
O343 O 0.93863 0.86117 0.88982 0.0
O344 O 0.89138 0.83283 0.90761 0.0
O345 O 0.90727 0.85085 0.94862 0.0
O346 O 0.92466 0.78697 0.92781 0.0
O347 O 0.9179 0.77406 0.88259 0.0
C348 C 0.93413 0.85986 0.86261 0.0
C349 C 0.9182 0.76776 0.9091 0.0
C350 C 0.647 0.93413 0.86261 0.0
C351 C 0.73911 0.9182 0.9091 0.0
O352 O 0.67079 0.92733 0.85102 0.0
Zn353 Zn 0.69306 0.92815 0.88596 0.0
O354 O 0.64569 0.93863 0.88982 0.0
Zn355 Zn 0.67496 0.93651 0.92628 0.0
O356 O 0.6737 0.97443 0.94163 0.0
O357 O 0.69233 0.97342 0.89794 0.0
O358 O 0.71989 0.92466 0.92781 0.0
O359 O 0.73281 0.9179 0.88259 0.0
O360 O 0.67404 0.89138 0.90761 0.0
O361 O 0.65602 0.90727 0.94862 0.0
C362 C 0.68415 0.98765 0.92019 0.0
C363 C 0.66025 0.88678 0.93108 0.0
C364 C 0.57273 0.647 0.86261 0.0
C365 C 0.58866 0.73911 0.9091 0.0
O366 O 0.57953 0.67079 0.85102 0.0
Zn367 Zn 0.57871 0.69306 0.88596 0.0
O368 O 0.56824 0.64569 0.88982 0.0
Zn369 Zn 0.57035 0.67496 0.92628 0.0
O370 O 0.53243 0.6737 0.94163 0.0
O371 O 0.53344 0.69233 0.89794 0.0
O372 O 0.5822 0.71989 0.92781 0.0
O373 O 0.58896 0.73281 0.88259 0.0
O374 O 0.61549 0.67403 0.90761 0.0
O375 O 0.5996 0.65602 0.94862 0.0
C376 C 0.51922 0.68415 0.92019 0.0
C377 C 0.62008 0.66025 0.93108 0.0
C378 C 0.76776 0.58866 0.9091 0.0
C379 C 0.85986 0.57273 0.8626 0.0
O380 O 0.77405 0.58896 0.88259 0.0
Zn381 Zn 0.8138 0.57871 0.88596 0.0
O382 O 0.78697 0.5822 0.92781 0.0
Zn383 Zn 0.8319 0.57035 0.92627 0.0
O384 O 0.85085 0.5996 0.94862 0.0
O385 O 0.83283 0.61549 0.90761 0.0
O386 O 0.86117 0.56824 0.88982 0.0
O387 O 0.83607 0.57953 0.85101 0.0
O388 O 0.81453 0.53344 0.89794 0.0
O389 O 0.83316 0.53243 0.94163 0.0
C390 C 0.84662 0.62008 0.93107 0.0
C391 C 0.82272 0.51922 0.92019 0.0
C392 C 0.98765 0.18415 0.08667 0.0
C393 C 0.88678 0.16025 0.07578 0.0
O394 O 0.97444 0.1737 0.06523 0.0
Zn395 Zn 0.93651 0.17496 0.08058 0.0
O396 O 0.97342 0.19233 0.10892 0.0
Zn397 Zn 0.92815 0.19306 0.1209 0.0
O398 O 0.92733 0.17079 0.15585 0.0
O399 O 0.93863 0.14569 0.11704 0.0
O400 O 0.89138 0.17403 0.09925 0.0
O401 O 0.90727 0.15602 0.05824 0.0
O402 O 0.92466 0.21989 0.07905 0.0
O403 O 0.9179 0.23281 0.12427 0.0
C404 C 0.93413 0.147 0.14425 0.0
C405 C 0.9182 0.23911 0.09776 0.0
C406 C 0.34662 0.88678 0.07579 0.0
C407 C 0.32272 0.98765 0.08667 0.0
O408 O 0.35085 0.90726 0.05824 0.0
Zn409 Zn 0.3319 0.93651 0.08059 0.0
O410 O 0.33283 0.89138 0.09926 0.0
Zn411 Zn 0.3138 0.92815 0.1209 0.0
O412 O 0.27405 0.91791 0.12427 0.0
O413 O 0.28697 0.92466 0.07905 0.0
O414 O 0.31453 0.97342 0.10892 0.0
O415 O 0.33316 0.97443 0.06523 0.0
O416 O 0.36117 0.93863 0.11704 0.0
O417 O 0.33607 0.92733 0.15585 0.0
C418 C 0.26776 0.9182 0.09776 0.0
C419 C 0.35986 0.93413 0.14426 0.0
C420 C 0.51922 0.32271 0.08667 0.0
C421 C 0.62008 0.34661 0.07578 0.0
O422 O 0.53243 0.33316 0.06523 0.0
Zn423 Zn 0.57035 0.3319 0.08058 0.0
O424 O 0.53344 0.31453 0.10892 0.0
Zn425 Zn 0.57871 0.3138 0.1209 0.0
O426 O 0.57954 0.33608 0.15585 0.0
O427 O 0.56824 0.36117 0.11704 0.0
O428 O 0.61549 0.33283 0.09925 0.0
O429 O 0.5996 0.35084 0.05824 0.0
O430 O 0.5822 0.28697 0.07905 0.0
O431 O 0.58896 0.27406 0.12427 0.0
C432 C 0.57273 0.35986 0.14425 0.0
C433 C 0.58866 0.26775 0.09776 0.0
C434 C 0.147 0.57273 0.14425 0.0
C435 C 0.23911 0.58866 0.09776 0.0
O436 O 0.17079 0.57953 0.15585 0.0
Zn437 Zn 0.19306 0.57871 0.1209 0.0
O438 O 0.14569 0.56824 0.11704 0.0
Zn439 Zn 0.17496 0.57035 0.08058 0.0
O440 O 0.1737 0.53243 0.06523 0.0
O441 O 0.19233 0.53344 0.10892 0.0
O442 O 0.21989 0.5822 0.07905 0.0
O443 O 0.23281 0.58896 0.12427 0.0
O444 O 0.17404 0.61548 0.09925 0.0
O445 O 0.15602 0.5996 0.05824 0.0
C446 C 0.18415 0.51922 0.08667 0.0
C447 C 0.16025 0.62008 0.07578 0.0
C448 C 0.86261 0.93413 0.85986 0.0
C449 C 0.9091 0.9182 0.76776 0.0
O450 O 0.85102 0.92733 0.83608 0.0
Zn451 Zn 0.88596 0.92815 0.8138 0.0
O452 O 0.88983 0.93862 0.86117 0.0
Zn453 Zn 0.92628 0.93651 0.8319 0.0
O454 O 0.94163 0.97443 0.83316 0.0
O455 O 0.89794 0.97342 0.81453 0.0
O456 O 0.92781 0.92466 0.78697 0.0
O457 O 0.8826 0.91791 0.77406 0.0
O458 O 0.90761 0.89138 0.83283 0.0
O459 O 0.94863 0.90727 0.85085 0.0
C460 C 0.92019 0.98765 0.82271 0.0
C461 C 0.93108 0.88678 0.84661 0.0
C462 C 0.57274 0.86261 0.85986 0.0
C463 C 0.58866 0.9091 0.76776 0.0
O464 O 0.57953 0.85102 0.83608 0.0
Zn465 Zn 0.57871 0.88596 0.8138 0.0
O466 O 0.56824 0.88982 0.86117 0.0
Zn467 Zn 0.57035 0.92628 0.8319 0.0
O468 O 0.53243 0.94163 0.83316 0.0
O469 O 0.53344 0.89794 0.81453 0.0
O470 O 0.5822 0.92781 0.78697 0.0
O471 O 0.58896 0.8826 0.77405 0.0
O472 O 0.61549 0.90761 0.83283 0.0
O473 O 0.5996 0.94862 0.85085 0.0
C474 C 0.51922 0.92019 0.82271 0.0
C475 C 0.62008 0.93108 0.84661 0.0
C476 C 0.58667 0.51922 0.82271 0.0
C477 C 0.57578 0.62008 0.84661 0.0
O478 O 0.56523 0.53243 0.83316 0.0
Zn479 Zn 0.58058 0.57035 0.8319 0.0
O480 O 0.60892 0.53344 0.81453 0.0
Zn481 Zn 0.6209 0.57871 0.8138 0.0
O482 O 0.65585 0.57953 0.83608 0.0
O483 O 0.61704 0.56824 0.86117 0.0
O484 O 0.59925 0.61549 0.83283 0.0
O485 O 0.55824 0.5996 0.85085 0.0
O486 O 0.57905 0.5822 0.78697 0.0
O487 O 0.62427 0.58896 0.77406 0.0
C488 C 0.64425 0.57273 0.85986 0.0
C489 C 0.59776 0.58866 0.76776 0.0
C490 C 0.93413 0.64425 0.85986 0.0
C491 C 0.9182 0.59776 0.76776 0.0
O492 O 0.92733 0.65585 0.83608 0.0
Zn493 Zn 0.92815 0.6209 0.8138 0.0
O494 O 0.93862 0.61704 0.86117 0.0
Zn495 Zn 0.93651 0.58058 0.8319 0.0
O496 O 0.97443 0.56523 0.83316 0.0
O497 O 0.97342 0.60892 0.81453 0.0
O498 O 0.92466 0.57905 0.78697 0.0
O499 O 0.91791 0.62427 0.77405 0.0
O500 O 0.89138 0.59925 0.83282 0.0
O501 O 0.90727 0.55824 0.85085 0.0
C502 C 0.98765 0.58667 0.82271 0.0
C503 C 0.88678 0.57578 0.84661 0.0
C504 C 0.9091 0.08866 0.23911 0.0
C505 C 0.86261 0.07273 0.147 0.0
O506 O 0.88259 0.08895 0.23281 0.0
Zn507 Zn 0.88596 0.07871 0.19306 0.0
O508 O 0.92781 0.0822 0.21989 0.0
Zn509 Zn 0.92628 0.07035 0.17496 0.0
O510 O 0.94862 0.0996 0.15601 0.0
O511 O 0.90761 0.11548 0.17404 0.0
O512 O 0.88982 0.06824 0.14569 0.0
O513 O 0.85101 0.07953 0.17079 0.0
O514 O 0.89794 0.03344 0.19233 0.0
O515 O 0.94163 0.03243 0.1737 0.0
C516 C 0.93107 0.12008 0.16025 0.0
C517 C 0.92019 0.01922 0.18415 0.0
C518 C 0.48765 0.92019 0.18415 0.0
C519 C 0.38678 0.93108 0.16025 0.0
O520 O 0.47443 0.94163 0.1737 0.0
Zn521 Zn 0.43651 0.92628 0.17496 0.0
O522 O 0.47342 0.89794 0.19233 0.0
Zn523 Zn 0.42815 0.88596 0.19306 0.0
O524 O 0.42733 0.85102 0.17079 0.0
O525 O 0.43862 0.88982 0.14569 0.0
O526 O 0.39138 0.90761 0.17404 0.0
O527 O 0.40727 0.94862 0.15602 0.0
O528 O 0.42466 0.92781 0.21989 0.0
O529 O 0.41791 0.8826 0.23281 0.0
C530 C 0.43413 0.86261 0.147 0.0
C531 C 0.4182 0.9091 0.23911 0.0
C532 C 0.64425 0.43413 0.147 0.0
C533 C 0.59776 0.4182 0.23911 0.0
O534 O 0.65585 0.42733 0.17078 0.0
Zn535 Zn 0.6209 0.42815 0.19306 0.0
O536 O 0.61704 0.43862 0.14569 0.0
Zn537 Zn 0.58058 0.43651 0.17496 0.0
O538 O 0.56523 0.47443 0.1737 0.0
O539 O 0.60892 0.47342 0.19233 0.0
O540 O 0.57905 0.42466 0.21989 0.0
O541 O 0.62427 0.41791 0.23281 0.0
O542 O 0.59925 0.39138 0.17404 0.0
O543 O 0.55824 0.40727 0.15601 0.0
C544 C 0.58667 0.48765 0.18415 0.0
C545 C 0.57578 0.38678 0.16025 0.0
C546 C 0.07274 0.64425 0.147 0.0
C547 C 0.08866 0.59776 0.23911 0.0
O548 O 0.07953 0.65585 0.17079 0.0
Zn549 Zn 0.07871 0.6209 0.19306 0.0
O550 O 0.06824 0.61704 0.14569 0.0
Zn551 Zn 0.07035 0.58058 0.17496 0.0
O552 O 0.03243 0.56523 0.1737 0.0
O553 O 0.03344 0.60892 0.19233 0.0
O554 O 0.0822 0.57905 0.21989 0.0
O555 O 0.08896 0.62427 0.23281 0.0
O556 O 0.11549 0.59925 0.17404 0.0
O557 O 0.0996 0.55824 0.15602 0.0
C558 C 0.01922 0.58667 0.18415 0.0
C559 C 0.12008 0.57578 0.16025 0.0
C560 C 0.85986 0.86261 0.93413 0.0
C561 C 0.76776 0.9091 0.9182 0.0
O562 O 0.83608 0.85101 0.92733 0.0
Zn563 Zn 0.8138 0.88596 0.92815 0.0
O564 O 0.86117 0.88983 0.93863 0.0
Zn565 Zn 0.8319 0.92628 0.93651 0.0
O566 O 0.83316 0.94163 0.97443 0.0
O567 O 0.81453 0.89794 0.97342 0.0
O568 O 0.78697 0.92781 0.92466 0.0
O569 O 0.77406 0.88259 0.9179 0.0
O570 O 0.83283 0.90761 0.89138 0.0
O571 O 0.85085 0.94862 0.90727 0.0
C572 C 0.82271 0.92019 0.98765 0.0
C573 C 0.84661 0.93108 0.88678 0.0
C574 C 0.76776 0.59776 0.58866 0.0
C575 C 0.85986 0.64426 0.57273 0.0
O576 O 0.77405 0.62427 0.58896 0.0
Zn577 Zn 0.8138 0.6209 0.57871 0.0
O578 O 0.78697 0.57905 0.5822 0.0
Zn579 Zn 0.8319 0.58059 0.57035 0.0
O580 O 0.85085 0.55824 0.5996 0.0
O581 O 0.83283 0.59926 0.61548 0.0
O582 O 0.86117 0.61704 0.56824 0.0
O583 O 0.83607 0.65585 0.57953 0.0
O584 O 0.81453 0.60892 0.53344 0.0
O585 O 0.83316 0.56523 0.53243 0.0
C586 C 0.84662 0.57579 0.62008 0.0
C587 C 0.82272 0.58667 0.51922 0.0
C588 C 0.92019 0.82271 0.51922 0.0
C589 C 0.93108 0.84662 0.62008 0.0
O590 O 0.94164 0.83316 0.53243 0.0
Zn591 Zn 0.92628 0.8319 0.57035 0.0
O592 O 0.89794 0.81453 0.53344 0.0
Zn593 Zn 0.88596 0.8138 0.57871 0.0
O594 O 0.85102 0.83608 0.57953 0.0
O595 O 0.88983 0.86117 0.56823 0.0
O596 O 0.90761 0.83283 0.61548 0.0
O597 O 0.94862 0.85085 0.59959 0.0
O598 O 0.92781 0.78697 0.5822 0.0
O599 O 0.8826 0.77406 0.58896 0.0
C600 C 0.86261 0.85986 0.57273 0.0
C601 C 0.9091 0.76776 0.58866 0.0
C602 C 0.66025 0.93107 0.62008 0.0
C603 C 0.68415 0.92019 0.51922 0.0
O604 O 0.65602 0.94862 0.5996 0.0
Zn605 Zn 0.67496 0.92627 0.57035 0.0
O606 O 0.67404 0.90761 0.61548 0.0
Zn607 Zn 0.69306 0.88596 0.57871 0.0
O608 O 0.73281 0.88259 0.58895 0.0
O609 O 0.71989 0.92781 0.5822 0.0
O610 O 0.69233 0.89794 0.53344 0.0
O611 O 0.6737 0.94163 0.53243 0.0
O612 O 0.64569 0.88982 0.56824 0.0
O613 O 0.67079 0.85101 0.57953 0.0
C614 C 0.73911 0.9091 0.58866 0.0
C615 C 0.647 0.86261 0.57273 0.0
C616 C 0.64425 0.147 0.07273 0.0
C617 C 0.59776 0.23911 0.08866 0.0
O618 O 0.65585 0.17078 0.07953 0.0
Zn619 Zn 0.6209 0.19306 0.07871 0.0
O620 O 0.61704 0.14569 0.06824 0.0
Zn621 Zn 0.58059 0.17496 0.07035 0.0
O622 O 0.56523 0.1737 0.03243 0.0
O623 O 0.60892 0.19233 0.03344 0.0
O624 O 0.57905 0.21989 0.0822 0.0
O625 O 0.62427 0.2328 0.08896 0.0
O626 O 0.59925 0.17403 0.11548 0.0
O627 O 0.55824 0.15602 0.09959 0.0
C628 C 0.58667 0.18415 0.01922 0.0
C629 C 0.57578 0.16024 0.12008 0.0
C630 C 0.16024 0.07579 0.88678 0.0
C631 C 0.18415 0.08667 0.98765 0.0
O632 O 0.15601 0.05824 0.90727 0.0
Zn633 Zn 0.17496 0.08059 0.93651 0.0
O634 O 0.17404 0.09926 0.89138 0.0
Zn635 Zn 0.19306 0.1209 0.92815 0.0
O636 O 0.23281 0.12427 0.91791 0.0
O637 O 0.21989 0.07905 0.92466 0.0
O638 O 0.19233 0.10892 0.97343 0.0
O639 O 0.1737 0.06523 0.97443 0.0
O640 O 0.14569 0.11704 0.93863 0.0
O641 O 0.17079 0.15585 0.92733 0.0
C642 C 0.23911 0.09776 0.9182 0.0
C643 C 0.147 0.14426 0.93413 0.0
C644 C 0.93107 0.16024 0.38678 0.0
C645 C 0.92019 0.18415 0.48765 0.0
O646 O 0.94862 0.15601 0.40726 0.0
Zn647 Zn 0.92627 0.17496 0.43651 0.0
O648 O 0.90761 0.17404 0.39138 0.0
Zn649 Zn 0.88596 0.19306 0.42815 0.0
O650 O 0.88259 0.23281 0.41791 0.0
O651 O 0.92781 0.21989 0.42466 0.0
O652 O 0.89794 0.19233 0.47342 0.0
O653 O 0.94163 0.1737 0.47443 0.0
O654 O 0.88982 0.14569 0.43862 0.0
O655 O 0.85101 0.17079 0.42733 0.0
C656 C 0.9091 0.23911 0.4182 0.0
C657 C 0.86261 0.147 0.43413 0.0
C658 C 0.59776 0.26775 0.4182 0.0
C659 C 0.64426 0.35986 0.43413 0.0
O660 O 0.62427 0.27405 0.41791 0.0
Zn661 Zn 0.6209 0.3138 0.42815 0.0
O662 O 0.57905 0.28697 0.42466 0.0
Zn663 Zn 0.58059 0.3319 0.43651 0.0
O664 O 0.55824 0.35085 0.40726 0.0
O665 O 0.59926 0.33283 0.39138 0.0
O666 O 0.61704 0.36117 0.43863 0.0
O667 O 0.65585 0.33607 0.42733 0.0
O668 O 0.60892 0.31453 0.47342 0.0
O669 O 0.56523 0.33316 0.47443 0.0
C670 C 0.57579 0.34662 0.38678 0.0
C671 C 0.58667 0.32272 0.48765 0.0
C672 C 0.08866 0.73911 0.59776 0.0
C673 C 0.07273 0.647 0.64425 0.0
O674 O 0.0822 0.71989 0.57905 0.0
Zn675 Zn 0.07035 0.67496 0.58058 0.0
O676 O 0.08896 0.73281 0.62427 0.0
Zn677 Zn 0.07871 0.69306 0.6209 0.0
O678 O 0.11548 0.67403 0.59925 0.0
O679 O 0.0996 0.65602 0.55824 0.0
O680 O 0.07953 0.67079 0.65585 0.0
O681 O 0.06824 0.64569 0.61704 0.0
O682 O 0.03243 0.6737 0.56523 0.0
O683 O 0.03344 0.69233 0.60892 0.0
C684 C 0.12008 0.66025 0.57578 0.0
C685 C 0.01922 0.68415 0.58667 0.0
C686 C 0.26776 0.58866 0.59776 0.0
C687 C 0.35986 0.57273 0.64425 0.0
O688 O 0.28697 0.5822 0.57905 0.0
Zn689 Zn 0.3319 0.57035 0.58058 0.0
O690 O 0.27406 0.58896 0.62427 0.0
Zn691 Zn 0.3138 0.57871 0.6209 0.0
O692 O 0.33283 0.61549 0.59925 0.0
O693 O 0.35085 0.5996 0.55824 0.0
O694 O 0.33608 0.57953 0.65585 0.0
O695 O 0.36117 0.56824 0.61704 0.0
O696 O 0.33316 0.53243 0.56523 0.0
O697 O 0.31453 0.53344 0.60892 0.0
C698 C 0.34661 0.62008 0.57578 0.0
C699 C 0.32271 0.51922 0.58667 0.0
C700 C 0.4182 0.76776 0.59776 0.0
C701 C 0.43413 0.85986 0.64425 0.0
O702 O 0.42466 0.78697 0.57905 0.0
Zn703 Zn 0.43651 0.8319 0.58058 0.0
O704 O 0.4179 0.77406 0.62427 0.0
Zn705 Zn 0.42815 0.8138 0.6209 0.0
O706 O 0.39138 0.83283 0.59925 0.0
O707 O 0.40727 0.85085 0.55824 0.0
O708 O 0.42733 0.83608 0.65585 0.0
O709 O 0.43863 0.86117 0.61704 0.0
O710 O 0.47444 0.83316 0.56523 0.0
O711 O 0.47343 0.81453 0.60892 0.0
C712 C 0.38678 0.84662 0.57578 0.0
C713 C 0.48765 0.82271 0.58667 0.0
C714 C 0.18415 0.98765 0.58667 0.0
C715 C 0.16025 0.88678 0.57579 0.0
O716 O 0.19233 0.97342 0.60892 0.0
Zn717 Zn 0.19307 0.92815 0.6209 0.0
O718 O 0.1737 0.97443 0.56523 0.0
Zn719 Zn 0.17496 0.93651 0.58059 0.0
O720 O 0.14569 0.93863 0.61704 0.0
O721 O 0.17079 0.92733 0.65585 0.0
O722 O 0.15601 0.90726 0.55824 0.0
O723 O 0.17404 0.89138 0.59926 0.0
O724 O 0.23281 0.91791 0.62427 0.0
O725 O 0.21989 0.92466 0.57905 0.0
C726 C 0.147 0.93413 0.64426 0.0
C727 C 0.23911 0.9182 0.59776 0.0
C728 C 0.08866 0.26775 0.4091 0.0
C729 C 0.07274 0.35986 0.36261 0.0
O730 O 0.0822 0.28697 0.42781 0.0
Zn731 Zn 0.07035 0.3319 0.42628 0.0
O732 O 0.08896 0.27405 0.38259 0.0
Zn733 Zn 0.07871 0.3138 0.38596 0.0
O734 O 0.11549 0.33283 0.40761 0.0
O735 O 0.0996 0.35085 0.44862 0.0
O736 O 0.07953 0.33608 0.35102 0.0
O737 O 0.06824 0.36117 0.38982 0.0
O738 O 0.03243 0.33316 0.44163 0.0
O739 O 0.03344 0.31453 0.39794 0.0
C740 C 0.12008 0.34661 0.43108 0.0
C741 C 0.01922 0.32271 0.42019 0.0
C742 C 0.73911 0.58866 0.4091 0.0
C743 C 0.647 0.57273 0.36261 0.0
O744 O 0.71989 0.5822 0.42781 0.0
Zn745 Zn 0.67496 0.57035 0.42628 0.0
O746 O 0.73281 0.58896 0.38259 0.0
Zn747 Zn 0.69306 0.57871 0.38596 0.0
O748 O 0.67403 0.61548 0.40761 0.0
O749 O 0.65602 0.59959 0.44862 0.0
O750 O 0.67079 0.57953 0.35102 0.0
O751 O 0.64569 0.56824 0.38982 0.0
O752 O 0.6737 0.53243 0.44163 0.0
O753 O 0.69233 0.53344 0.39794 0.0
C754 C 0.66025 0.62008 0.43108 0.0
C755 C 0.68415 0.51921 0.42019 0.0
C756 C 0.4182 0.23911 0.4091 0.0
C757 C 0.43413 0.147 0.36261 0.0
O758 O 0.42466 0.21989 0.42781 0.0
Zn759 Zn 0.43651 0.17496 0.42628 0.0
O760 O 0.4179 0.23281 0.38259 0.0
Zn761 Zn 0.42815 0.19306 0.38596 0.0
O762 O 0.39138 0.17404 0.40761 0.0
O763 O 0.40727 0.15602 0.44862 0.0
O764 O 0.42733 0.17079 0.35102 0.0
O765 O 0.43862 0.14569 0.38982 0.0
O766 O 0.47443 0.1737 0.44163 0.0
O767 O 0.47342 0.19233 0.39794 0.0
C768 C 0.38678 0.16025 0.43108 0.0
C769 C 0.48765 0.18415 0.42019 0.0
C770 C 0.76776 0.9182 0.4091 0.0
C771 C 0.85986 0.93413 0.36261 0.0
O772 O 0.78697 0.92466 0.42781 0.0
Zn773 Zn 0.8319 0.93651 0.42628 0.0
O774 O 0.77406 0.9179 0.3826 0.0
Zn775 Zn 0.8138 0.92815 0.38596 0.0
O776 O 0.83283 0.89138 0.40761 0.0
O777 O 0.85085 0.90727 0.44862 0.0
O778 O 0.83608 0.92733 0.35102 0.0
O779 O 0.86117 0.93863 0.38982 0.0
O780 O 0.83316 0.97444 0.44163 0.0
O781 O 0.81453 0.97342 0.39794 0.0
C782 C 0.84662 0.88678 0.43108 0.0
C783 C 0.82272 0.98765 0.42019 0.0
C784 C 0.09776 0.58866 0.73911 0.0
C785 C 0.14425 0.57273 0.647 0.0
O786 O 0.07905 0.5822 0.71989 0.0
Zn787 Zn 0.08058 0.57035 0.67496 0.0
O788 O 0.12427 0.58896 0.73281 0.0
Zn789 Zn 0.1209 0.57871 0.69306 0.0
O790 O 0.09925 0.61548 0.67404 0.0
O791 O 0.05824 0.5996 0.65602 0.0
O792 O 0.15585 0.57953 0.67079 0.0
O793 O 0.11704 0.56824 0.64569 0.0
O794 O 0.06523 0.53243 0.6737 0.0
O795 O 0.10892 0.53344 0.69233 0.0
C796 C 0.07578 0.62008 0.66025 0.0
C797 C 0.08667 0.51922 0.68415 0.0
C798 C 0.38678 0.57578 0.66025 0.0
C799 C 0.48765 0.58667 0.68415 0.0
O800 O 0.39138 0.59925 0.67404 0.0
Zn801 Zn 0.42815 0.6209 0.69306 0.0
O802 O 0.40727 0.55824 0.65602 0.0
Zn803 Zn 0.43651 0.58058 0.67496 0.0
O804 O 0.42466 0.57905 0.71989 0.0
O805 O 0.41791 0.62427 0.73281 0.0
O806 O 0.47443 0.56523 0.6737 0.0
O807 O 0.47342 0.60892 0.69233 0.0
O808 O 0.42733 0.65585 0.67079 0.0
O809 O 0.43863 0.61704 0.64569 0.0
C810 C 0.4182 0.59776 0.73911 0.0
C811 C 0.43413 0.64425 0.647 0.0
C812 C 0.4091 0.9182 0.73911 0.0
C813 C 0.36261 0.93413 0.647 0.0
O814 O 0.42781 0.92466 0.71989 0.0
Zn815 Zn 0.42628 0.93651 0.67496 0.0
O816 O 0.3826 0.91791 0.73281 0.0
Zn817 Zn 0.38596 0.92815 0.69306 0.0
O818 O 0.40761 0.89138 0.67403 0.0
O819 O 0.44863 0.90727 0.65601 0.0
O820 O 0.35102 0.92733 0.67078 0.0
O821 O 0.38983 0.93863 0.64569 0.0
O822 O 0.44163 0.97443 0.6737 0.0
O823 O 0.39794 0.97342 0.69233 0.0
C824 C 0.43108 0.88678 0.66025 0.0
C825 C 0.42019 0.98765 0.68415 0.0
C826 C 0.08866 0.9091 0.73911 0.0
C827 C 0.07273 0.86261 0.647 0.0
O828 O 0.0822 0.92781 0.71989 0.0
Zn829 Zn 0.07035 0.92628 0.67496 0.0
O830 O 0.08896 0.88259 0.73281 0.0
Zn831 Zn 0.07871 0.88596 0.69306 0.0
O832 O 0.11549 0.90761 0.67404 0.0
O833 O 0.0996 0.94862 0.65602 0.0
O834 O 0.07953 0.85101 0.67079 0.0
O835 O 0.06824 0.88983 0.64569 0.0
O836 O 0.03243 0.94164 0.6737 0.0
O837 O 0.03344 0.89794 0.69233 0.0
C838 C 0.12008 0.93108 0.66025 0.0
C839 C 0.01922 0.92019 0.68415 0.0
C840 C 0.14426 0.43413 0.35986 0.0
C841 C 0.09776 0.4182 0.26776 0.0
O842 O 0.11704 0.43863 0.36117 0.0
Zn843 Zn 0.08059 0.43651 0.3319 0.0
O844 O 0.15585 0.42733 0.33607 0.0
Zn845 Zn 0.1209 0.42815 0.3138 0.0
O846 O 0.10892 0.47342 0.31453 0.0
O847 O 0.06523 0.47443 0.33316 0.0
O848 O 0.12427 0.41791 0.27405 0.0
O849 O 0.07905 0.42466 0.28697 0.0
O850 O 0.05824 0.40726 0.35085 0.0
O851 O 0.09926 0.39138 0.33283 0.0
C852 C 0.08667 0.48765 0.32271 0.0
C853 C 0.07579 0.38678 0.34661 0.0
C854 C 0.62008 0.57578 0.34661 0.0
C855 C 0.51922 0.58667 0.32271 0.0
O856 O 0.61549 0.59925 0.33283 0.0
Zn857 Zn 0.57871 0.6209 0.3138 0.0
O858 O 0.5996 0.55824 0.35085 0.0
Zn859 Zn 0.57035 0.58058 0.3319 0.0
O860 O 0.5822 0.57905 0.28697 0.0
O861 O 0.58896 0.62427 0.27405 0.0
O862 O 0.53243 0.56523 0.33316 0.0
O863 O 0.53344 0.60892 0.31453 0.0
O864 O 0.57953 0.65585 0.33608 0.0
O865 O 0.56824 0.61704 0.36117 0.0
C866 C 0.58866 0.59776 0.26775 0.0
C867 C 0.57274 0.64425 0.35986 0.0
C868 C 0.4091 0.08866 0.26776 0.0
C869 C 0.36261 0.07273 0.35986 0.0
O870 O 0.42781 0.0822 0.28697 0.0
Zn871 Zn 0.42628 0.07035 0.3319 0.0
O872 O 0.3826 0.08896 0.27406 0.0
Zn873 Zn 0.38596 0.07871 0.3138 0.0
O874 O 0.40761 0.11548 0.33283 0.0
O875 O 0.44863 0.0996 0.35085 0.0
O876 O 0.35102 0.07953 0.33608 0.0
O877 O 0.38983 0.06824 0.36117 0.0
O878 O 0.44164 0.03243 0.33316 0.0
O879 O 0.39794 0.03344 0.31453 0.0
C880 C 0.43108 0.12008 0.34661 0.0
C881 C 0.42019 0.01922 0.32271 0.0
C882 C 0.9182 0.9091 0.26776 0.0
C883 C 0.93413 0.86261 0.35986 0.0
O884 O 0.92466 0.92781 0.28697 0.0
Zn885 Zn 0.93651 0.92628 0.3319 0.0
O886 O 0.91791 0.8826 0.27406 0.0
Zn887 Zn 0.92815 0.88596 0.3138 0.0
O888 O 0.89138 0.90761 0.33283 0.0
O889 O 0.90727 0.94862 0.35085 0.0
O890 O 0.92733 0.85102 0.33608 0.0
O891 O 0.93863 0.88982 0.36117 0.0
O892 O 0.97444 0.94163 0.33316 0.0
O893 O 0.97342 0.89794 0.31453 0.0
C894 C 0.88678 0.93108 0.34661 0.0
C895 C 0.98765 0.92019 0.32271 0.0
C896 C 0.23911 0.59776 0.58866 0.0
C897 C 0.147 0.64425 0.57273 0.0
O898 O 0.21989 0.57905 0.5822 0.0
Zn899 Zn 0.17496 0.58058 0.57035 0.0
O900 O 0.23281 0.62427 0.58896 0.0
Zn901 Zn 0.19306 0.6209 0.57871 0.0
O902 O 0.17403 0.59925 0.61548 0.0
O903 O 0.15602 0.55824 0.5996 0.0
O904 O 0.17079 0.65585 0.57953 0.0
O905 O 0.14569 0.61704 0.56824 0.0
O906 O 0.1737 0.56523 0.53243 0.0
O907 O 0.19233 0.60892 0.53344 0.0
C908 C 0.16025 0.57578 0.62008 0.0
C909 C 0.18415 0.58667 0.51922 0.0
C910 C 0.147 0.86261 0.93413 0.0
C911 C 0.23911 0.9091 0.9182 0.0
O912 O 0.14569 0.88982 0.93863 0.0
Zn913 Zn 0.17496 0.92628 0.93651 0.0
O914 O 0.17079 0.85101 0.92733 0.0
Zn915 Zn 0.19307 0.88596 0.92815 0.0
O916 O 0.19233 0.89794 0.97342 0.0
O917 O 0.1737 0.94163 0.97443 0.0
O918 O 0.23281 0.88259 0.91791 0.0
O919 O 0.21989 0.92781 0.92466 0.0
O920 O 0.15602 0.94862 0.90726 0.0
O921 O 0.17404 0.9076 0.89138 0.0
C922 C 0.18415 0.92019 0.98765 0.0
C923 C 0.16025 0.93107 0.88678 0.0
C924 C 0.07578 0.66025 0.88678 0.0
C925 C 0.08667 0.68415 0.98765 0.0
O926 O 0.09925 0.67403 0.89138 0.0
Zn927 Zn 0.1209 0.69306 0.92815 0.0
O928 O 0.05824 0.65602 0.90727 0.0
Zn929 Zn 0.08059 0.67496 0.93651 0.0
O930 O 0.07905 0.71989 0.92466 0.0
O931 O 0.12427 0.7328 0.9179 0.0
O932 O 0.06523 0.6737 0.97443 0.0
O933 O 0.10892 0.69233 0.97342 0.0
O934 O 0.15585 0.67078 0.92733 0.0
O935 O 0.11704 0.64569 0.93863 0.0
C936 C 0.09776 0.73911 0.9182 0.0
C937 C 0.14425 0.647 0.93413 0.0
C938 C 0.26776 0.59776 0.9182 0.0
C939 C 0.35986 0.64425 0.93413 0.0
O940 O 0.28697 0.57905 0.92466 0.0
Zn941 Zn 0.3319 0.58058 0.93651 0.0
O942 O 0.27406 0.62427 0.91791 0.0
Zn943 Zn 0.3138 0.6209 0.92815 0.0
O944 O 0.33283 0.59925 0.89138 0.0
O945 O 0.35085 0.55824 0.90727 0.0
O946 O 0.33608 0.65585 0.92733 0.0
O947 O 0.36117 0.61704 0.93863 0.0
O948 O 0.33316 0.56523 0.97443 0.0
O949 O 0.31453 0.60892 0.97342 0.0
C950 C 0.34661 0.57578 0.88678 0.0
C951 C 0.32271 0.58667 0.98765 0.0
C952 C 0.42019 0.32272 0.48765 0.0
C953 C 0.43107 0.34662 0.38678 0.0
O954 O 0.39794 0.31453 0.47342 0.0
Zn955 Zn 0.38596 0.3138 0.42815 0.0
O956 O 0.44163 0.33316 0.47443 0.0
Zn957 Zn 0.42627 0.3319 0.43651 0.0
O958 O 0.38982 0.36117 0.43863 0.0
O959 O 0.35101 0.33607 0.42733 0.0
O960 O 0.44862 0.35085 0.40727 0.0
O961 O 0.40761 0.33283 0.39138 0.0
O962 O 0.38259 0.27405 0.41791 0.0
O963 O 0.42781 0.28697 0.42466 0.0
C964 C 0.36261 0.35986 0.43413 0.0
C965 C 0.4091 0.26776 0.4182 0.0
C966 C 0.76776 0.4091 0.58866 0.0
C967 C 0.85986 0.36261 0.57273 0.0
O968 O 0.78697 0.42781 0.5822 0.0
Zn969 Zn 0.8319 0.42628 0.57035 0.0
O970 O 0.77406 0.3826 0.58896 0.0
Zn971 Zn 0.8138 0.38596 0.57871 0.0
O972 O 0.83283 0.40761 0.61548 0.0
O973 O 0.85085 0.44862 0.59959 0.0
O974 O 0.83608 0.35102 0.57953 0.0
O975 O 0.86117 0.38983 0.56823 0.0
O976 O 0.83316 0.44163 0.53243 0.0
O977 O 0.81453 0.39794 0.53344 0.0
C978 C 0.84662 0.43108 0.62008 0.0
C979 C 0.82271 0.42019 0.51922 0.0
C980 C 0.14426 0.35986 0.07273 0.0
C981 C 0.09777 0.26775 0.08866 0.0
O982 O 0.11704 0.36117 0.06824 0.0
Zn983 Zn 0.08059 0.3319 0.07035 0.0
O984 O 0.15585 0.33607 0.07953 0.0
Zn985 Zn 0.1209 0.3138 0.07871 0.0
O986 O 0.10892 0.31453 0.03344 0.0
O987 O 0.06523 0.33316 0.03243 0.0
O988 O 0.12427 0.27405 0.08895 0.0
O989 O 0.07905 0.28697 0.0822 0.0
O990 O 0.05824 0.35085 0.0996 0.0
O991 O 0.09926 0.33282 0.11548 0.0
C992 C 0.08667 0.32271 0.01922 0.0
C993 C 0.07579 0.34661 0.12008 0.0
C994 C 0.43108 0.16025 0.12008 0.0
C995 C 0.42019 0.18415 0.01922 0.0
O996 O 0.40761 0.17404 0.11548 0.0
Zn997 Zn 0.38596 0.19306 0.07871 0.0
O998 O 0.44863 0.15602 0.0996 0.0
Zn999 Zn 0.42628 0.17496 0.07035 0.0
O1000 O 0.42781 0.21989 0.0822 0.0
O1001 O 0.38259 0.23281 0.08896 0.0
O1002 O 0.44163 0.1737 0.03243 0.0
O1003 O 0.39794 0.19233 0.03344 0.0
O1004 O 0.35102 0.17079 0.07953 0.0
O1005 O 0.38983 0.14569 0.06824 0.0
C1006 C 0.4091 0.23911 0.08866 0.0
C1007 C 0.36261 0.147 0.07273 0.0
C1008 C 0.93413 0.35986 0.36261 0.0
C1009 C 0.9182 0.26776 0.4091 0.0
O1010 O 0.92733 0.33608 0.35102 0.0
Zn1011 Zn 0.92815 0.3138 0.38596 0.0
O1012 O 0.93863 0.36117 0.38982 0.0
Zn1013 Zn 0.93651 0.3319 0.42628 0.0
O1014 O 0.97444 0.33316 0.44163 0.0
O1015 O 0.97342 0.31453 0.39794 0.0
O1016 O 0.92466 0.28697 0.42781 0.0
O1017 O 0.9179 0.27406 0.38259 0.0
O1018 O 0.89138 0.33283 0.40761 0.0
O1019 O 0.90727 0.35085 0.44862 0.0
C1020 C 0.98765 0.32271 0.42019 0.0
C1021 C 0.88678 0.34662 0.43108 0.0
C1022 C 0.647 0.43413 0.36261 0.0
C1023 C 0.73911 0.4182 0.4091 0.0
O1024 O 0.67079 0.42733 0.35101 0.0
Zn1025 Zn 0.69306 0.42815 0.38596 0.0
O1026 O 0.64569 0.43862 0.38982 0.0
Zn1027 Zn 0.67496 0.43651 0.42628 0.0
O1028 O 0.6737 0.47443 0.44163 0.0
O1029 O 0.69233 0.47342 0.39794 0.0
O1030 O 0.71989 0.42466 0.42781 0.0
O1031 O 0.73281 0.4179 0.38259 0.0
O1032 O 0.67404 0.39138 0.40761 0.0
O1033 O 0.65602 0.40727 0.44862 0.0
C1034 C 0.68415 0.48764 0.42019 0.0
C1035 C 0.66025 0.38678 0.43108 0.0
C1036 C 0.51922 0.18415 0.42019 0.0
C1037 C 0.62008 0.16024 0.43108 0.0
O1038 O 0.53243 0.1737 0.44163 0.0
Zn1039 Zn 0.57035 0.17496 0.42628 0.0
O1040 O 0.53344 0.19233 0.39794 0.0
Zn1041 Zn 0.57871 0.19306 0.38596 0.0
O1042 O 0.57953 0.17078 0.35102 0.0
O1043 O 0.56824 0.14569 0.38982 0.0
O1044 O 0.61548 0.17403 0.40761 0.0
O1045 O 0.5996 0.15601 0.44862 0.0
O1046 O 0.5822 0.21989 0.42781 0.0
O1047 O 0.58896 0.23281 0.38259 0.0
C1048 C 0.57273 0.147 0.36261 0.0
C1049 C 0.58866 0.23911 0.4091 0.0
C1050 C 0.76775 0.08866 0.4091 0.0
C1051 C 0.85986 0.07273 0.36261 0.0
O1052 O 0.77405 0.08895 0.38259 0.0
Zn1053 Zn 0.8138 0.07871 0.38596 0.0
O1054 O 0.78697 0.0822 0.42781 0.0
Zn1055 Zn 0.8319 0.07035 0.42627 0.0
O1056 O 0.85085 0.0996 0.44862 0.0
O1057 O 0.83282 0.11549 0.40761 0.0
O1058 O 0.86117 0.06824 0.38982 0.0
O1059 O 0.83607 0.07953 0.35101 0.0
O1060 O 0.81453 0.03344 0.39794 0.0
O1061 O 0.83316 0.03243 0.44163 0.0
C1062 C 0.84661 0.12008 0.43107 0.0
C1063 C 0.82272 0.01922 0.42019 0.0
C1064 C 0.98765 0.68415 0.58667 0.0
C1065 C 0.88678 0.66025 0.57578 0.0
O1066 O 0.97443 0.6737 0.56523 0.0
Zn1067 Zn 0.93651 0.67496 0.58058 0.0
O1068 O 0.97342 0.69233 0.60892 0.0
Zn1069 Zn 0.92815 0.69306 0.6209 0.0
O1070 O 0.92733 0.67078 0.65585 0.0
O1071 O 0.93863 0.64569 0.61704 0.0
O1072 O 0.89138 0.67404 0.59925 0.0
O1073 O 0.90727 0.65602 0.55824 0.0
O1074 O 0.92466 0.71989 0.57905 0.0
O1075 O 0.9179 0.73281 0.62427 0.0
C1076 C 0.93413 0.647 0.64425 0.0
C1077 C 0.9182 0.73911 0.59776 0.0
C1078 C 0.26776 0.4182 0.59776 0.0
C1079 C 0.35986 0.43413 0.64426 0.0
O1080 O 0.27405 0.41791 0.62427 0.0
Zn1081 Zn 0.3138 0.42815 0.6209 0.0
O1082 O 0.28697 0.42466 0.57905 0.0
Zn1083 Zn 0.3319 0.43651 0.58059 0.0
O1084 O 0.35085 0.40727 0.55824 0.0
O1085 O 0.33283 0.39138 0.59926 0.0
O1086 O 0.36117 0.43863 0.61704 0.0
O1087 O 0.33607 0.42733 0.65585 0.0
O1088 O 0.31453 0.47342 0.60892 0.0
O1089 O 0.33316 0.47443 0.56523 0.0
C1090 C 0.34662 0.38678 0.57579 0.0
C1091 C 0.32272 0.48765 0.58667 0.0
C1092 C 0.57274 0.85986 0.64425 0.0
C1093 C 0.58866 0.76775 0.59776 0.0
O1094 O 0.57954 0.83608 0.65585 0.0
Zn1095 Zn 0.57871 0.8138 0.6209 0.0
O1096 O 0.56824 0.86117 0.61704 0.0
Zn1097 Zn 0.57035 0.8319 0.58058 0.0
O1098 O 0.53243 0.83316 0.56523 0.0
O1099 O 0.53344 0.81453 0.60892 0.0
O1100 O 0.5822 0.78697 0.57905 0.0
O1101 O 0.58896 0.77405 0.62427 0.0
O1102 O 0.61549 0.83282 0.59925 0.0
O1103 O 0.5996 0.85085 0.55824 0.0
C1104 C 0.51922 0.82271 0.58667 0.0
C1105 C 0.62008 0.84661 0.57578 0.0
C1106 C 0.147 0.07273 0.64425 0.0
C1107 C 0.23911 0.08866 0.59776 0.0
O1108 O 0.17079 0.07953 0.65585 0.0
Zn1109 Zn 0.19306 0.07871 0.6209 0.0
O1110 O 0.14569 0.06824 0.61704 0.0
Zn1111 Zn 0.17496 0.07035 0.58058 0.0
O1112 O 0.1737 0.03243 0.56523 0.0
O1113 O 0.19233 0.03344 0.60892 0.0
O1114 O 0.21989 0.0822 0.57905 0.0
O1115 O 0.23281 0.08896 0.62427 0.0
O1116 O 0.17403 0.11548 0.59925 0.0
O1117 O 0.15602 0.09959 0.55824 0.0
C1118 C 0.18415 0.01922 0.58667 0.0
C1119 C 0.16025 0.12008 0.57578 0.0
C1120 C 0.86261 0.43413 0.35986 0.0
C1121 C 0.9091 0.4182 0.26776 0.0
O1122 O 0.85102 0.42733 0.33608 0.0
Zn1123 Zn 0.88596 0.42815 0.3138 0.0
O1124 O 0.88983 0.43863 0.36117 0.0
Zn1125 Zn 0.92628 0.43651 0.3319 0.0
O1126 O 0.94163 0.47443 0.33316 0.0
O1127 O 0.89794 0.47342 0.31453 0.0
O1128 O 0.92781 0.42466 0.28697 0.0
O1129 O 0.8826 0.41791 0.27406 0.0
O1130 O 0.90761 0.39138 0.33283 0.0
O1131 O 0.94863 0.40727 0.35085 0.0
C1132 C 0.92019 0.48765 0.32271 0.0
C1133 C 0.93108 0.38678 0.34661 0.0
C1134 C 0.51922 0.42019 0.32271 0.0
C1135 C 0.62008 0.43108 0.34661 0.0
O1136 O 0.53243 0.44163 0.33316 0.0
Zn1137 Zn 0.57035 0.42628 0.3319 0.0
O1138 O 0.53344 0.39794 0.31453 0.0
Zn1139 Zn 0.57871 0.38596 0.3138 0.0
O1140 O 0.57953 0.35101 0.33608 0.0
O1141 O 0.56824 0.38983 0.36117 0.0
O1142 O 0.61549 0.40761 0.33283 0.0
O1143 O 0.5996 0.44862 0.35085 0.0
O1144 O 0.5822 0.42781 0.28697 0.0
O1145 O 0.58896 0.38259 0.27405 0.0
C1146 C 0.57273 0.36261 0.35986 0.0
C1147 C 0.58866 0.4091 0.26775 0.0
C1148 C 0.58667 0.01922 0.32271 0.0
C1149 C 0.57578 0.12008 0.34661 0.0
O1150 O 0.56523 0.03243 0.33316 0.0
Zn1151 Zn 0.58058 0.07035 0.3319 0.0
O1152 O 0.60892 0.03344 0.31453 0.0
Zn1153 Zn 0.6209 0.07871 0.3138 0.0
O1154 O 0.65585 0.07953 0.33608 0.0
O1155 O 0.61704 0.06824 0.36117 0.0
O1156 O 0.59925 0.11548 0.33283 0.0
O1157 O 0.55824 0.0996 0.35085 0.0
O1158 O 0.57905 0.0822 0.28697 0.0
O1159 O 0.62427 0.08896 0.27406 0.0
C1160 C 0.64425 0.07273 0.35986 0.0
C1161 C 0.59776 0.08866 0.26776 0.0
C1162 C 0.98765 0.08667 0.32271 0.0
C1163 C 0.88678 0.07578 0.34661 0.0
O1164 O 0.97443 0.06523 0.33316 0.0
Zn1165 Zn 0.93651 0.08058 0.3319 0.0
O1166 O 0.97342 0.10892 0.31453 0.0
Zn1167 Zn 0.92815 0.1209 0.3138 0.0
O1168 O 0.92733 0.15585 0.33608 0.0
O1169 O 0.93863 0.11704 0.36117 0.0
O1170 O 0.89138 0.09925 0.33283 0.0
O1171 O 0.90727 0.05824 0.35085 0.0
O1172 O 0.92466 0.07905 0.28697 0.0
O1173 O 0.91791 0.12427 0.27405 0.0
C1174 C 0.93413 0.14425 0.35986 0.0
C1175 C 0.9182 0.09776 0.26775 0.0
C1176 C 0.86261 0.57273 0.647 0.0
C1177 C 0.9091 0.58866 0.73911 0.0
O1178 O 0.85102 0.57953 0.67079 0.0
Zn1179 Zn 0.88596 0.57871 0.69306 0.0
O1180 O 0.88983 0.56824 0.64569 0.0
Zn1181 Zn 0.92628 0.57035 0.67496 0.0
O1182 O 0.94164 0.53243 0.6737 0.0
O1183 O 0.89794 0.53344 0.69233 0.0
O1184 O 0.92781 0.5822 0.71989 0.0
O1185 O 0.8826 0.58896 0.73281 0.0
O1186 O 0.90761 0.61548 0.67403 0.0
O1187 O 0.94863 0.5996 0.65602 0.0
C1188 C 0.92019 0.51922 0.68415 0.0
C1189 C 0.93108 0.62008 0.66025 0.0
C1190 C 0.48765 0.42019 0.68415 0.0
C1191 C 0.38678 0.43108 0.66025 0.0
O1192 O 0.47443 0.44163 0.6737 0.0
Zn1193 Zn 0.43651 0.42628 0.67496 0.0
O1194 O 0.47342 0.39794 0.69233 0.0
Zn1195 Zn 0.42815 0.38596 0.69306 0.0
O1196 O 0.42733 0.35102 0.67079 0.0
O1197 O 0.43862 0.38982 0.64569 0.0
O1198 O 0.39138 0.40761 0.67404 0.0
O1199 O 0.40727 0.44862 0.65602 0.0
O1200 O 0.42466 0.42781 0.71989 0.0
O1201 O 0.41791 0.38259 0.73281 0.0
C1202 C 0.43413 0.36261 0.647 0.0
C1203 C 0.4182 0.4091 0.73911 0.0
C1204 C 0.59776 0.9182 0.73911 0.0
C1205 C 0.64426 0.93413 0.647 0.0
O1206 O 0.62427 0.91791 0.73281 0.0
Zn1207 Zn 0.6209 0.92815 0.69306 0.0
O1208 O 0.57905 0.92466 0.71989 0.0
Zn1209 Zn 0.58059 0.93651 0.67496 0.0
O1210 O 0.55824 0.90726 0.65601 0.0
O1211 O 0.59926 0.89138 0.67404 0.0
O1212 O 0.61704 0.93863 0.64569 0.0
O1213 O 0.65585 0.92733 0.67079 0.0
O1214 O 0.60892 0.97342 0.69233 0.0
O1215 O 0.56523 0.97443 0.6737 0.0
C1216 C 0.57579 0.88678 0.66025 0.0
C1217 C 0.58667 0.98765 0.68415 0.0
C1218 C 0.07273 0.14425 0.647 0.0
C1219 C 0.08866 0.09776 0.73911 0.0
O1220 O 0.07953 0.15585 0.67079 0.0
Zn1221 Zn 0.07871 0.1209 0.69306 0.0
O1222 O 0.06824 0.11704 0.64569 0.0
Zn1223 Zn 0.07035 0.08058 0.67496 0.0
O1224 O 0.03243 0.06523 0.6737 0.0
O1225 O 0.03344 0.10892 0.69233 0.0
O1226 O 0.0822 0.07905 0.71989 0.0
O1227 O 0.08896 0.12427 0.73281 0.0
O1228 O 0.11549 0.09925 0.67404 0.0
O1229 O 0.0996 0.05824 0.65602 0.0
C1230 C 0.01922 0.08667 0.68415 0.0
C1231 C 0.12008 0.07578 0.66025 0.0
C1232 C 0.85986 0.36261 0.43413 0.0
C1233 C 0.76776 0.4091 0.4182 0.0
O1234 O 0.83608 0.35101 0.42733 0.0
Zn1235 Zn 0.8138 0.38596 0.42815 0.0
O1236 O 0.86117 0.38983 0.43863 0.0
Zn1237 Zn 0.8319 0.42628 0.43651 0.0
O1238 O 0.83316 0.44164 0.47443 0.0
O1239 O 0.81453 0.39794 0.47342 0.0
O1240 O 0.78697 0.42781 0.42466 0.0
O1241 O 0.77406 0.38259 0.4179 0.0
O1242 O 0.83283 0.40761 0.39138 0.0
O1243 O 0.85085 0.44862 0.40727 0.0
C1244 C 0.82271 0.42019 0.48765 0.0
C1245 C 0.84661 0.43108 0.38678 0.0
C1246 C 0.85986 0.14425 0.07273 0.0
C1247 C 0.76776 0.09776 0.08866 0.0
O1248 O 0.83608 0.15585 0.07953 0.0
Zn1249 Zn 0.8138 0.1209 0.07871 0.0
O1250 O 0.86117 0.11704 0.06823 0.0
Zn1251 Zn 0.8319 0.08058 0.07035 0.0
O1252 O 0.83316 0.06523 0.03243 0.0
O1253 O 0.81453 0.10892 0.03344 0.0
O1254 O 0.78697 0.07905 0.0822 0.0
O1255 O 0.77406 0.12427 0.08896 0.0
O1256 O 0.83283 0.09925 0.11548 0.0
O1257 O 0.85085 0.05824 0.0996 0.0
C1258 C 0.82271 0.08667 0.01922 0.0
C1259 C 0.84661 0.07578 0.12008 0.0
C1260 C 0.93107 0.34662 0.12008 0.0
C1261 C 0.92019 0.32272 0.01922 0.0
O1262 O 0.94862 0.35085 0.0996 0.0
Zn1263 Zn 0.92628 0.3319 0.07035 0.0
O1264 O 0.90761 0.33283 0.11548 0.0
Zn1265 Zn 0.88596 0.3138 0.07871 0.0
O1266 O 0.88259 0.27405 0.08896 0.0
O1267 O 0.92781 0.28697 0.0822 0.0
O1268 O 0.89794 0.31453 0.03344 0.0
O1269 O 0.94163 0.33316 0.03243 0.0
O1270 O 0.88982 0.36117 0.06824 0.0
O1271 O 0.85101 0.33607 0.07953 0.0
C1272 C 0.9091 0.26776 0.08866 0.0
C1273 C 0.86261 0.35986 0.07273 0.0
C1274 C 0.73911 0.4091 0.08866 0.0
C1275 C 0.647 0.36261 0.07273 0.0
O1276 O 0.73281 0.38259 0.08895 0.0
Zn1277 Zn 0.69307 0.38596 0.07871 0.0
O1278 O 0.71989 0.42781 0.0822 0.0
Zn1279 Zn 0.67496 0.42628 0.07035 0.0
O1280 O 0.65601 0.44862 0.0996 0.0
O1281 O 0.67404 0.4076 0.11548 0.0
O1282 O 0.64569 0.38982 0.06823 0.0
O1283 O 0.67079 0.35101 0.07953 0.0
O1284 O 0.69233 0.39794 0.03344 0.0
O1285 O 0.6737 0.44163 0.03243 0.0
C1286 C 0.66025 0.43107 0.12008 0.0
C1287 C 0.68415 0.42019 0.01921 0.0
C1288 C 0.57579 0.66024 0.62008 0.0
C1289 C 0.58667 0.68415 0.51921 0.0
O1290 O 0.55824 0.65601 0.5996 0.0
Zn1291 Zn 0.58059 0.67496 0.57035 0.0
O1292 O 0.59926 0.67403 0.61548 0.0
Zn1293 Zn 0.6209 0.69306 0.57871 0.0
O1294 O 0.62427 0.73281 0.58896 0.0
O1295 O 0.57905 0.71989 0.5822 0.0
O1296 O 0.60892 0.69233 0.53344 0.0
O1297 O 0.56523 0.6737 0.53243 0.0
O1298 O 0.61704 0.64569 0.56823 0.0
O1299 O 0.65585 0.67079 0.57953 0.0
C1300 C 0.59776 0.73911 0.58866 0.0
C1301 C 0.64426 0.647 0.57273 0.0
C1302 C 0.23911 0.59776 0.4182 0.0
C1303 C 0.147 0.64426 0.43413 0.0
O1304 O 0.23281 0.62427 0.41791 0.0
Zn1305 Zn 0.19306 0.6209 0.42815 0.0
O1306 O 0.21989 0.57905 0.42466 0.0
Zn1307 Zn 0.17496 0.58059 0.43651 0.0
O1308 O 0.15601 0.55824 0.40727 0.0
O1309 O 0.17403 0.59925 0.39138 0.0
O1310 O 0.14569 0.61704 0.43863 0.0
O1311 O 0.17079 0.65585 0.42733 0.0
O1312 O 0.19233 0.60892 0.47342 0.0
O1313 O 0.1737 0.56523 0.47443 0.0
C1314 C 0.16024 0.57579 0.38678 0.0
C1315 C 0.18415 0.58667 0.48765 0.0
C1316 C 0.93107 0.66025 0.88678 0.0
C1317 C 0.92019 0.68415 0.98765 0.0
O1318 O 0.94862 0.65601 0.90726 0.0
Zn1319 Zn 0.92628 0.67496 0.93651 0.0
O1320 O 0.90761 0.67404 0.89138 0.0
Zn1321 Zn 0.88596 0.69306 0.92815 0.0
O1322 O 0.88259 0.73281 0.91791 0.0
O1323 O 0.92781 0.71989 0.92466 0.0
O1324 O 0.89794 0.69233 0.97342 0.0
O1325 O 0.94163 0.6737 0.97443 0.0
O1326 O 0.88982 0.64569 0.93863 0.0
O1327 O 0.85101 0.67079 0.92733 0.0
C1328 C 0.9091 0.73911 0.9182 0.0
C1329 C 0.86261 0.647 0.93413 0.0
C1330 C 0.59777 0.76775 0.9182 0.0
C1331 C 0.64426 0.85986 0.93413 0.0
O1332 O 0.62427 0.77405 0.91791 0.0
Zn1333 Zn 0.6209 0.8138 0.92815 0.0
O1334 O 0.57905 0.78697 0.92466 0.0
Zn1335 Zn 0.58059 0.8319 0.93651 0.0
O1336 O 0.55824 0.85085 0.90726 0.0
O1337 O 0.59926 0.83283 0.89138 0.0
O1338 O 0.61704 0.86117 0.93863 0.0
O1339 O 0.65585 0.83607 0.92733 0.0
O1340 O 0.60892 0.81453 0.97342 0.0
O1341 O 0.56523 0.83316 0.97443 0.0
C1342 C 0.57579 0.84661 0.88678 0.0
C1343 C 0.58667 0.82271 0.98765 0.0
C1344 C 0.58866 0.23911 0.59776 0.0
C1345 C 0.57273 0.147 0.64425 0.0
O1346 O 0.5822 0.21989 0.57905 0.0
Zn1347 Zn 0.57035 0.17496 0.58058 0.0
O1348 O 0.58896 0.23281 0.62427 0.0
Zn1349 Zn 0.57871 0.19306 0.6209 0.0
O1350 O 0.61549 0.17403 0.59925 0.0
O1351 O 0.5996 0.15602 0.55824 0.0
O1352 O 0.57953 0.17079 0.65585 0.0
O1353 O 0.56824 0.14569 0.61704 0.0
O1354 O 0.53243 0.1737 0.56523 0.0
O1355 O 0.53344 0.19233 0.60892 0.0
C1356 C 0.62008 0.16025 0.57578 0.0
C1357 C 0.51922 0.18415 0.58667 0.0
C1358 C 0.82272 0.01922 0.58667 0.0
C1359 C 0.84662 0.12008 0.57579 0.0
O1360 O 0.81453 0.03344 0.60892 0.0
Zn1361 Zn 0.8138 0.07871 0.6209 0.0
O1362 O 0.83316 0.03243 0.56523 0.0
Zn1363 Zn 0.8319 0.07035 0.58059 0.0
O1364 O 0.86117 0.06824 0.61704 0.0
O1365 O 0.83607 0.07953 0.65585 0.0
O1366 O 0.85085 0.0996 0.55824 0.0
O1367 O 0.83283 0.11548 0.59926 0.0
O1368 O 0.77405 0.08895 0.62427 0.0
O1369 O 0.78697 0.0822 0.57905 0.0
C1370 C 0.85986 0.07273 0.64426 0.0
C1371 C 0.76776 0.08866 0.59776 0.0
C1372 C 0.88678 0.34661 0.57578 0.0
C1373 C 0.98765 0.32271 0.58667 0.0
O1374 O 0.89138 0.33283 0.59925 0.0
Zn1375 Zn 0.92815 0.3138 0.6209 0.0
O1376 O 0.90727 0.35085 0.55824 0.0
Zn1377 Zn 0.93651 0.3319 0.58058 0.0
O1378 O 0.92466 0.28697 0.57905 0.0
O1379 O 0.91791 0.27406 0.62427 0.0
O1380 O 0.97444 0.33316 0.56523 0.0
O1381 O 0.97342 0.31453 0.60892 0.0
O1382 O 0.92733 0.33608 0.65585 0.0
O1383 O 0.93863 0.36117 0.61704 0.0
C1384 C 0.9182 0.26776 0.59776 0.0
C1385 C 0.93413 0.35986 0.64425 0.0
C1386 C 0.647 0.43413 0.64426 0.0
C1387 C 0.73911 0.4182 0.59776 0.0
O1388 O 0.64569 0.43863 0.61704 0.0
Zn1389 Zn 0.67496 0.43651 0.58059 0.0
O1390 O 0.67079 0.42733 0.65585 0.0
Zn1391 Zn 0.69306 0.42815 0.6209 0.0
O1392 O 0.69233 0.47342 0.60892 0.0
O1393 O 0.6737 0.47443 0.56523 0.0
O1394 O 0.73281 0.41791 0.62427 0.0
O1395 O 0.71989 0.42466 0.57905 0.0
O1396 O 0.65602 0.40726 0.55824 0.0
O1397 O 0.67404 0.39138 0.59926 0.0
C1398 C 0.68415 0.48765 0.58667 0.0
C1399 C 0.66025 0.38678 0.57579 0.0
C1400 C 0.62008 0.84662 0.43108 0.0
C1401 C 0.51922 0.82271 0.42019 0.0
O1402 O 0.61549 0.83283 0.40761 0.0
Zn1403 Zn 0.57871 0.8138 0.38596 0.0
O1404 O 0.5996 0.85085 0.44862 0.0
Zn1405 Zn 0.57035 0.8319 0.42628 0.0
O1406 O 0.5822 0.78697 0.42781 0.0
O1407 O 0.58896 0.77406 0.38259 0.0
O1408 O 0.53243 0.83316 0.44163 0.0
O1409 O 0.53344 0.81453 0.39794 0.0
O1410 O 0.57954 0.83608 0.35102 0.0
O1411 O 0.56824 0.86117 0.38982 0.0
C1412 C 0.58866 0.76776 0.4091 0.0
C1413 C 0.57273 0.85986 0.36261 0.0
C1414 C 0.147 0.07273 0.36261 0.0
C1415 C 0.23911 0.08866 0.4091 0.0
O1416 O 0.14569 0.06824 0.38982 0.0
Zn1417 Zn 0.17496 0.07035 0.42627 0.0
O1418 O 0.17079 0.07953 0.35101 0.0
Zn1419 Zn 0.19306 0.07871 0.38596 0.0
O1420 O 0.19233 0.03344 0.39794 0.0
O1421 O 0.1737 0.03243 0.44163 0.0
O1422 O 0.23281 0.08895 0.38259 0.0
O1423 O 0.21989 0.0822 0.42781 0.0
O1424 O 0.15601 0.0996 0.44862 0.0
O1425 O 0.17404 0.11548 0.40761 0.0
C1426 C 0.18415 0.01921 0.42019 0.0
C1427 C 0.16025 0.12008 0.43107 0.0
C1428 C 0.88678 0.66025 0.43108 0.0
C1429 C 0.98765 0.68415 0.42019 0.0
O1430 O 0.89138 0.67403 0.40761 0.0
Zn1431 Zn 0.92815 0.69306 0.38596 0.0
O1432 O 0.90727 0.65602 0.44862 0.0
Zn1433 Zn 0.93651 0.67496 0.42628 0.0
O1434 O 0.92466 0.71989 0.42781 0.0
O1435 O 0.9179 0.73281 0.38259 0.0
O1436 O 0.97443 0.6737 0.44163 0.0
O1437 O 0.97342 0.69233 0.39794 0.0
O1438 O 0.92733 0.67079 0.35102 0.0
O1439 O 0.93863 0.64569 0.38982 0.0
C1440 C 0.9182 0.73911 0.4091 0.0
C1441 C 0.93413 0.647 0.36261 0.0
C1442 C 0.26776 0.4182 0.4091 0.0
C1443 C 0.35986 0.43413 0.36261 0.0
O1444 O 0.28697 0.42466 0.42781 0.0
Zn1445 Zn 0.3319 0.43651 0.42628 0.0
O1446 O 0.27406 0.41791 0.38259 0.0
Zn1447 Zn 0.3138 0.42815 0.38596 0.0
O1448 O 0.33283 0.39138 0.40761 0.0
O1449 O 0.35085 0.40727 0.44862 0.0
O1450 O 0.33608 0.42733 0.35102 0.0
O1451 O 0.36117 0.43862 0.38982 0.0
O1452 O 0.33316 0.47443 0.44163 0.0
O1453 O 0.31453 0.47342 0.39794 0.0
C1454 C 0.34661 0.38678 0.43108 0.0
C1455 C 0.32272 0.48765 0.42019 0.0
C1456 C 0.59776 0.08866 0.73911 0.0
C1457 C 0.64425 0.07273 0.647 0.0
O1458 O 0.57905 0.0822 0.71989 0.0
Zn1459 Zn 0.58058 0.07035 0.67496 0.0
O1460 O 0.62427 0.08896 0.73281 0.0
Zn1461 Zn 0.6209 0.07871 0.69306 0.0
O1462 O 0.59925 0.11548 0.67404 0.0
O1463 O 0.55824 0.0996 0.65602 0.0
O1464 O 0.65585 0.07953 0.67079 0.0
O1465 O 0.61704 0.06824 0.64569 0.0
O1466 O 0.56523 0.03243 0.6737 0.0
O1467 O 0.60892 0.03344 0.69233 0.0
C1468 C 0.57578 0.12008 0.66025 0.0
C1469 C 0.58667 0.01922 0.68415 0.0
C1470 C 0.9182 0.09776 0.73911 0.0
C1471 C 0.93413 0.14425 0.647 0.0
O1472 O 0.92466 0.07905 0.71989 0.0
Zn1473 Zn 0.93651 0.08058 0.67496 0.0
O1474 O 0.91791 0.12427 0.73281 0.0
Zn1475 Zn 0.92815 0.1209 0.69306 0.0
O1476 O 0.89138 0.09925 0.67404 0.0
O1477 O 0.90727 0.05824 0.65602 0.0
O1478 O 0.92733 0.15585 0.67079 0.0
O1479 O 0.93862 0.11704 0.64569 0.0
O1480 O 0.97443 0.06523 0.6737 0.0
O1481 O 0.97342 0.10892 0.69233 0.0
C1482 C 0.88678 0.07578 0.66025 0.0
C1483 C 0.98765 0.08667 0.68415 0.0
C1484 C 0.93108 0.38678 0.66025 0.0
C1485 C 0.92019 0.48765 0.68415 0.0
O1486 O 0.90761 0.39138 0.67403 0.0
Zn1487 Zn 0.88596 0.42815 0.69306 0.0
O1488 O 0.94863 0.40727 0.65602 0.0
Zn1489 Zn 0.92628 0.43651 0.67496 0.0
O1490 O 0.92781 0.42466 0.71989 0.0
O1491 O 0.88259 0.4179 0.73281 0.0
O1492 O 0.94164 0.47443 0.6737 0.0
O1493 O 0.89794 0.47342 0.69233 0.0
O1494 O 0.85102 0.42733 0.67078 0.0
O1495 O 0.88983 0.43863 0.64569 0.0
C1496 C 0.9091 0.4182 0.73911 0.0
C1497 C 0.86261 0.43413 0.647 0.0
C1498 C 0.62008 0.43108 0.66025 0.0
C1499 C 0.51922 0.42019 0.68415 0.0
O1500 O 0.61549 0.40761 0.67404 0.0
Zn1501 Zn 0.57871 0.38596 0.69306 0.0
O1502 O 0.5996 0.44862 0.65601 0.0
Zn1503 Zn 0.57035 0.42628 0.67496 0.0
O1504 O 0.5822 0.42781 0.71989 0.0
O1505 O 0.58896 0.3826 0.73281 0.0
O1506 O 0.53243 0.44163 0.6737 0.0
O1507 O 0.53344 0.39794 0.69233 0.0
O1508 O 0.57954 0.35102 0.67079 0.0
O1509 O 0.56824 0.38982 0.64569 0.0
C1510 C 0.58866 0.4091 0.73911 0.0
C1511 C 0.57274 0.36261 0.647 0.0
C1512 C 0.59776 0.9182 0.26775 0.0
C1513 C 0.64425 0.93413 0.35986 0.0
O1514 O 0.57905 0.92466 0.28697 0.0
Zn1515 Zn 0.58058 0.93651 0.3319 0.0
O1516 O 0.62427 0.91791 0.27405 0.0
Zn1517 Zn 0.6209 0.92815 0.3138 0.0
O1518 O 0.59925 0.89138 0.33283 0.0
O1519 O 0.55824 0.90727 0.35085 0.0
O1520 O 0.65585 0.92733 0.33608 0.0
O1521 O 0.61704 0.93862 0.36117 0.0
O1522 O 0.56523 0.97443 0.33316 0.0
O1523 O 0.60892 0.97342 0.31453 0.0
C1524 C 0.57578 0.88678 0.34661 0.0
C1525 C 0.58667 0.98765 0.32271 0.0
C1526 C 0.08866 0.09776 0.26776 0.0
C1527 C 0.07273 0.14425 0.35986 0.0
O1528 O 0.0822 0.07905 0.28697 0.0
Zn1529 Zn 0.07035 0.08058 0.3319 0.0
O1530 O 0.08896 0.12427 0.27406 0.0
Zn1531 Zn 0.07871 0.1209 0.3138 0.0
O1532 O 0.11549 0.09925 0.33283 0.0
O1533 O 0.0996 0.05824 0.35085 0.0
O1534 O 0.07953 0.15585 0.33608 0.0
O1535 O 0.06824 0.11704 0.36117 0.0
O1536 O 0.03243 0.06523 0.33316 0.0
O1537 O 0.03344 0.10892 0.31453 0.0
C1538 C 0.12008 0.07578 0.34661 0.0
C1539 C 0.01922 0.08667 0.32271 0.0
C1540 C 0.9091 0.58866 0.26776 0.0
C1541 C 0.86261 0.57274 0.35986 0.0
O1542 O 0.92781 0.5822 0.28697 0.0
Zn1543 Zn 0.92628 0.57035 0.3319 0.0
O1544 O 0.8826 0.58896 0.27406 0.0
Zn1545 Zn 0.88596 0.57871 0.3138 0.0
O1546 O 0.90761 0.61549 0.33283 0.0
O1547 O 0.94863 0.5996 0.35085 0.0
O1548 O 0.85102 0.57953 0.33608 0.0
O1549 O 0.88983 0.56824 0.36117 0.0
O1550 O 0.94163 0.53243 0.33316 0.0
O1551 O 0.89794 0.53344 0.31453 0.0
C1552 C 0.93108 0.62008 0.34661 0.0
C1553 C 0.92019 0.51922 0.32271 0.0
C1554 C 0.4182 0.4091 0.26776 0.0
C1555 C 0.43413 0.36261 0.35986 0.0
O1556 O 0.42466 0.42781 0.28697 0.0
Zn1557 Zn 0.43651 0.42628 0.3319 0.0
O1558 O 0.41791 0.38259 0.27405 0.0
Zn1559 Zn 0.42815 0.38596 0.3138 0.0
O1560 O 0.39138 0.40761 0.33283 0.0
O1561 O 0.40727 0.44862 0.35085 0.0
O1562 O 0.42733 0.35101 0.33608 0.0
O1563 O 0.43863 0.38983 0.36117 0.0
O1564 O 0.47443 0.44163 0.33316 0.0
O1565 O 0.47342 0.39794 0.31453 0.0
C1566 C 0.38678 0.43108 0.34661 0.0
C1567 C 0.48765 0.42019 0.32271 0.0
C1568 C 0.647 0.14425 0.57273 0.0
C1569 C 0.73911 0.09776 0.58866 0.0
O1570 O 0.64569 0.11704 0.56823 0.0
Zn1571 Zn 0.67496 0.08058 0.57035 0.0
O1572 O 0.67079 0.15585 0.57953 0.0
Zn1573 Zn 0.69306 0.1209 0.57871 0.0
O1574 O 0.69233 0.10892 0.53344 0.0
O1575 O 0.6737 0.06523 0.53243 0.0
O1576 O 0.73281 0.12427 0.58895 0.0
O1577 O 0.71989 0.07905 0.5822 0.0
O1578 O 0.65601 0.05824 0.5996 0.0
O1579 O 0.67404 0.09926 0.61548 0.0
C1580 C 0.68415 0.08667 0.51922 0.0
C1581 C 0.66025 0.07579 0.62008 0.0
C1582 C 0.68415 0.42019 0.98764 0.0
C1583 C 0.66025 0.43107 0.88678 0.0
O1584 O 0.69233 0.39794 0.97342 0.0
Zn1585 Zn 0.69306 0.38596 0.92815 0.0
O1586 O 0.6737 0.44163 0.97443 0.0
Zn1587 Zn 0.67496 0.42627 0.93651 0.0
O1588 O 0.64569 0.38982 0.93863 0.0
O1589 O 0.67079 0.35101 0.92733 0.0
O1590 O 0.65602 0.44862 0.90726 0.0
O1591 O 0.67404 0.40761 0.89138 0.0
O1592 O 0.73281 0.38259 0.91791 0.0
O1593 O 0.71989 0.42781 0.92466 0.0
C1594 C 0.647 0.36261 0.93413 0.0
C1595 C 0.73911 0.4091 0.9182 0.0
C1596 C 0.58667 0.18415 0.98765 0.0
C1597 C 0.57579 0.16025 0.88678 0.0
O1598 O 0.60892 0.19233 0.97342 0.0
Zn1599 Zn 0.6209 0.19306 0.92815 0.0
O1600 O 0.56523 0.1737 0.97443 0.0
Zn1601 Zn 0.58059 0.17496 0.93651 0.0
O1602 O 0.61704 0.14569 0.93863 0.0
O1603 O 0.65585 0.17079 0.92733 0.0
O1604 O 0.55824 0.15601 0.90726 0.0
O1605 O 0.59926 0.17404 0.89138 0.0
O1606 O 0.62427 0.23281 0.91791 0.0
O1607 O 0.57905 0.21989 0.92466 0.0
C1608 C 0.64426 0.147 0.93413 0.0
C1609 C 0.59776 0.23911 0.9182 0.0
C1610 C 0.76776 0.09776 0.9182 0.0
C1611 C 0.85986 0.14425 0.93413 0.0
O1612 O 0.78697 0.07905 0.92466 0.0
Zn1613 Zn 0.8319 0.08058 0.93651 0.0
O1614 O 0.77406 0.12427 0.9179 0.0
Zn1615 Zn 0.8138 0.1209 0.92815 0.0
O1616 O 0.83283 0.09925 0.89138 0.0
O1617 O 0.85085 0.05824 0.90727 0.0
O1618 O 0.83608 0.15585 0.92733 0.0
O1619 O 0.86117 0.11704 0.93863 0.0
O1620 O 0.83316 0.06523 0.97443 0.0
O1621 O 0.81453 0.10892 0.97342 0.0
C1622 C 0.84662 0.07578 0.88678 0.0
C1623 C 0.82271 0.08667 0.98765 0.0
C1624 C 0.9091 0.76776 0.4182 0.0
C1625 C 0.86261 0.85986 0.43413 0.0
O1626 O 0.92781 0.78697 0.42466 0.0
Zn1627 Zn 0.92628 0.8319 0.43651 0.0
O1628 O 0.88259 0.77406 0.4179 0.0
Zn1629 Zn 0.88596 0.8138 0.42815 0.0
O1630 O 0.90761 0.83283 0.39138 0.0
O1631 O 0.94863 0.85085 0.40727 0.0
O1632 O 0.85102 0.83608 0.42733 0.0
O1633 O 0.88983 0.86117 0.43863 0.0
O1634 O 0.94164 0.83316 0.47443 0.0
O1635 O 0.89794 0.81453 0.47342 0.0
C1636 C 0.93108 0.84661 0.38678 0.0
C1637 C 0.92019 0.82271 0.48765 0.0
C1638 C 0.26776 0.9091 0.58866 0.0
C1639 C 0.35986 0.86261 0.57273 0.0
O1640 O 0.28697 0.92781 0.5822 0.0
Zn1641 Zn 0.3319 0.92628 0.57035 0.0
O1642 O 0.27406 0.88259 0.58896 0.0
Zn1643 Zn 0.3138 0.88596 0.57871 0.0
O1644 O 0.33283 0.90761 0.61548 0.0
O1645 O 0.35085 0.94862 0.59959 0.0
O1646 O 0.33608 0.85101 0.57953 0.0
O1647 O 0.36117 0.88983 0.56823 0.0
O1648 O 0.33316 0.94164 0.53243 0.0
O1649 O 0.31453 0.89794 0.53344 0.0
C1650 C 0.34661 0.93108 0.62008 0.0
C1651 C 0.32271 0.92019 0.51921 0.0
C1652 C 0.57578 0.84662 0.12008 0.0
C1653 C 0.58667 0.82271 0.01922 0.0
O1654 O 0.59925 0.83283 0.11548 0.0
Zn1655 Zn 0.6209 0.8138 0.07871 0.0
O1656 O 0.55824 0.85085 0.09959 0.0
Zn1657 Zn 0.58059 0.8319 0.07035 0.0
O1658 O 0.57905 0.78697 0.0822 0.0
O1659 O 0.62427 0.77406 0.08896 0.0
O1660 O 0.56523 0.83316 0.03243 0.0
O1661 O 0.60892 0.81453 0.03344 0.0
O1662 O 0.65585 0.83608 0.07953 0.0
O1663 O 0.61704 0.86117 0.06823 0.0
C1664 C 0.59776 0.76776 0.08866 0.0
C1665 C 0.64425 0.85986 0.07273 0.0
C1666 C 0.93108 0.66025 0.12008 0.0
C1667 C 0.92019 0.68415 0.01922 0.0
O1668 O 0.90761 0.67403 0.11548 0.0
Zn1669 Zn 0.88596 0.69306 0.07871 0.0
O1670 O 0.94862 0.65602 0.09959 0.0
Zn1671 Zn 0.92628 0.67496 0.07035 0.0
O1672 O 0.92781 0.71989 0.0822 0.0
O1673 O 0.8826 0.73281 0.08896 0.0
O1674 O 0.94163 0.6737 0.03243 0.0
O1675 O 0.89794 0.69233 0.03344 0.0
O1676 O 0.85102 0.67079 0.07953 0.0
O1677 O 0.88983 0.64569 0.06824 0.0
C1678 C 0.9091 0.73911 0.08866 0.0
C1679 C 0.86261 0.647 0.07273 0.0
C1680 C 0.43413 0.85986 0.36261 0.0
C1681 C 0.4182 0.76776 0.4091 0.0
O1682 O 0.42733 0.83608 0.35102 0.0
Zn1683 Zn 0.42815 0.8138 0.38596 0.0
O1684 O 0.43863 0.86117 0.38982 0.0
Zn1685 Zn 0.43651 0.8319 0.42628 0.0
O1686 O 0.47444 0.83316 0.44163 0.0
O1687 O 0.47342 0.81453 0.39794 0.0
O1688 O 0.42466 0.78697 0.42781 0.0
O1689 O 0.4179 0.77406 0.3826 0.0
O1690 O 0.39138 0.83283 0.40761 0.0
O1691 O 0.40727 0.85085 0.44862 0.0
C1692 C 0.48765 0.82271 0.42019 0.0
C1693 C 0.38678 0.84662 0.43108 0.0
C1694 C 0.23911 0.9182 0.4091 0.0
C1695 C 0.147 0.93413 0.3626 0.0
O1696 O 0.23281 0.91791 0.38259 0.0
Zn1697 Zn 0.19306 0.92815 0.38596 0.0
O1698 O 0.21989 0.92466 0.42781 0.0
Zn1699 Zn 0.17496 0.93651 0.42627 0.0
O1700 O 0.15602 0.90726 0.44862 0.0
O1701 O 0.17404 0.89138 0.40761 0.0
O1702 O 0.14569 0.93863 0.38982 0.0
O1703 O 0.17079 0.92733 0.35101 0.0
O1704 O 0.19233 0.97342 0.39794 0.0
O1705 O 0.1737 0.97443 0.44163 0.0
C1706 C 0.16025 0.88678 0.43107 0.0
C1707 C 0.18415 0.98764 0.42019 0.0
C1708 C 0.01922 0.68415 0.42019 0.0
C1709 C 0.12008 0.66025 0.43108 0.0
O1710 O 0.03243 0.6737 0.44163 0.0
Zn1711 Zn 0.07035 0.67496 0.42628 0.0
O1712 O 0.03344 0.69233 0.39794 0.0
Zn1713 Zn 0.07871 0.69306 0.38596 0.0
O1714 O 0.07953 0.67078 0.35102 0.0
O1715 O 0.06824 0.64569 0.38982 0.0
O1716 O 0.11549 0.67404 0.40761 0.0
O1717 O 0.0996 0.65601 0.44862 0.0
O1718 O 0.0822 0.71989 0.42781 0.0
O1719 O 0.08896 0.73281 0.38259 0.0
C1720 C 0.07273 0.647 0.36261 0.0
C1721 C 0.08866 0.73911 0.4091 0.0
C1722 C 0.26776 0.58866 0.4091 0.0
C1723 C 0.35986 0.57273 0.36261 0.0
O1724 O 0.27405 0.58896 0.38259 0.0
Zn1725 Zn 0.3138 0.57871 0.38596 0.0
O1726 O 0.28697 0.5822 0.42781 0.0
Zn1727 Zn 0.3319 0.57035 0.42627 0.0
O1728 O 0.35085 0.5996 0.44862 0.0
O1729 O 0.33283 0.61548 0.40761 0.0
O1730 O 0.36117 0.56824 0.38982 0.0
O1731 O 0.33607 0.57953 0.35101 0.0
O1732 O 0.31453 0.53344 0.39794 0.0
O1733 O 0.33316 0.53243 0.44163 0.0
C1734 C 0.34662 0.62008 0.43107 0.0
C1735 C 0.32272 0.51922 0.42019 0.0
C1736 C 0.48765 0.18415 0.58667 0.0
C1737 C 0.38678 0.16024 0.57578 0.0
O1738 O 0.47444 0.1737 0.56523 0.0
Zn1739 Zn 0.43651 0.17496 0.58058 0.0
O1740 O 0.47342 0.19233 0.60892 0.0
Zn1741 Zn 0.42815 0.19306 0.6209 0.0
O1742 O 0.42733 0.17079 0.65585 0.0
O1743 O 0.43863 0.14569 0.61704 0.0
O1744 O 0.39138 0.17403 0.59925 0.0
O1745 O 0.40727 0.15601 0.55824 0.0
O1746 O 0.42466 0.21989 0.57905 0.0
O1747 O 0.4179 0.23281 0.62427 0.0
C1748 C 0.43413 0.147 0.64425 0.0
C1749 C 0.4182 0.23911 0.59776 0.0
C1750 C 0.85986 0.93413 0.64425 0.0
C1751 C 0.76776 0.9182 0.59776 0.0
O1752 O 0.83608 0.92733 0.65585 0.0
Zn1753 Zn 0.8138 0.92815 0.6209 0.0
O1754 O 0.86117 0.93863 0.61704 0.0
Zn1755 Zn 0.8319 0.93651 0.58058 0.0
O1756 O 0.83316 0.97443 0.56523 0.0
O1757 O 0.81453 0.97342 0.60892 0.0
O1758 O 0.78697 0.92466 0.57905 0.0
O1759 O 0.77406 0.91791 0.62427 0.0
O1760 O 0.83283 0.89138 0.59925 0.0
O1761 O 0.85085 0.90727 0.55824 0.0
C1762 C 0.82272 0.98765 0.58667 0.0
C1763 C 0.84661 0.88678 0.57578 0.0
C1764 C 0.01922 0.32271 0.58667 0.0
C1765 C 0.12008 0.34662 0.57578 0.0
O1766 O 0.03243 0.33316 0.56523 0.0
Zn1767 Zn 0.07035 0.3319 0.58058 0.0
O1768 O 0.03344 0.31453 0.60892 0.0
Zn1769 Zn 0.07871 0.3138 0.6209 0.0
O1770 O 0.07953 0.33608 0.65585 0.0
O1771 O 0.06824 0.36117 0.61704 0.0
O1772 O 0.11549 0.33283 0.59925 0.0
O1773 O 0.0996 0.35085 0.55824 0.0
O1774 O 0.0822 0.28697 0.57905 0.0
O1775 O 0.08896 0.27406 0.62427 0.0
C1776 C 0.07273 0.35986 0.64425 0.0
C1777 C 0.08866 0.26776 0.59776 0.0
C1778 C 0.647 0.57273 0.64425 0.0
C1779 C 0.73911 0.58866 0.59776 0.0
O1780 O 0.67079 0.57953 0.65585 0.0
Zn1781 Zn 0.69306 0.57871 0.6209 0.0
O1782 O 0.64569 0.56824 0.61704 0.0
Zn1783 Zn 0.67496 0.57035 0.58058 0.0
O1784 O 0.6737 0.53243 0.56523 0.0
O1785 O 0.69233 0.53344 0.60892 0.0
O1786 O 0.71989 0.5822 0.57905 0.0
O1787 O 0.73281 0.58896 0.62427 0.0
O1788 O 0.67404 0.61549 0.59925 0.0
O1789 O 0.65602 0.5996 0.55824 0.0
C1790 C 0.68415 0.51922 0.58667 0.0
C1791 C 0.66025 0.62008 0.57578 0.0
C1792 C 0.4091 0.9182 0.26775 0.0
C1793 C 0.36261 0.93413 0.35986 0.0
O1794 O 0.38259 0.91791 0.27405 0.0
Zn1795 Zn 0.38596 0.92815 0.3138 0.0
O1796 O 0.42781 0.92466 0.28697 0.0
Zn1797 Zn 0.42628 0.93651 0.3319 0.0
O1798 O 0.44862 0.90726 0.35085 0.0
O1799 O 0.40761 0.89138 0.33282 0.0
O1800 O 0.38982 0.93863 0.36117 0.0
O1801 O 0.35101 0.92733 0.33607 0.0
O1802 O 0.39794 0.97342 0.31453 0.0
O1803 O 0.44163 0.97443 0.33316 0.0
C1804 C 0.43107 0.88678 0.34661 0.0
C1805 C 0.42019 0.98765 0.32272 0.0
C1806 C 0.01922 0.92019 0.32271 0.0
C1807 C 0.12008 0.93108 0.34661 0.0
O1808 O 0.03243 0.94163 0.33316 0.0
Zn1809 Zn 0.07035 0.92628 0.3319 0.0
O1810 O 0.03344 0.89794 0.31453 0.0
Zn1811 Zn 0.07871 0.88596 0.3138 0.0
O1812 O 0.07954 0.85102 0.33608 0.0
O1813 O 0.06824 0.88982 0.36117 0.0
O1814 O 0.11549 0.90761 0.33282 0.0
O1815 O 0.0996 0.94862 0.35085 0.0
O1816 O 0.0822 0.92781 0.28697 0.0
O1817 O 0.08896 0.88259 0.27405 0.0
C1818 C 0.07274 0.86261 0.35986 0.0
C1819 C 0.08866 0.9091 0.26775 0.0
C1820 C 0.14425 0.57273 0.35986 0.0
C1821 C 0.09776 0.58866 0.26776 0.0
O1822 O 0.15585 0.57953 0.33608 0.0
Zn1823 Zn 0.1209 0.57871 0.3138 0.0
O1824 O 0.11704 0.56824 0.36117 0.0
Zn1825 Zn 0.08058 0.57035 0.3319 0.0
O1826 O 0.06523 0.53243 0.33316 0.0
O1827 O 0.10892 0.53344 0.31453 0.0
O1828 O 0.07905 0.5822 0.28697 0.0
O1829 O 0.12427 0.58896 0.27406 0.0
O1830 O 0.09925 0.61548 0.33283 0.0
O1831 O 0.05824 0.5996 0.35085 0.0
C1832 C 0.08667 0.51922 0.32271 0.0
C1833 C 0.07578 0.62008 0.34661 0.0
C1834 C 0.43413 0.64425 0.35986 0.0
C1835 C 0.4182 0.59776 0.26776 0.0
O1836 O 0.42733 0.65585 0.33608 0.0
Zn1837 Zn 0.42815 0.6209 0.3138 0.0
O1838 O 0.43862 0.61704 0.36117 0.0
Zn1839 Zn 0.43651 0.58058 0.3319 0.0
O1840 O 0.47443 0.56523 0.33316 0.0
O1841 O 0.47342 0.60892 0.31453 0.0
O1842 O 0.42466 0.57905 0.28697 0.0
O1843 O 0.41791 0.62427 0.27406 0.0
O1844 O 0.39138 0.59925 0.33283 0.0
O1845 O 0.40727 0.55824 0.35085 0.0
C1846 C 0.48765 0.58667 0.32272 0.0
C1847 C 0.38678 0.57578 0.34661 0.0
C1848 C 0.42019 0.01922 0.68415 0.0
C1849 C 0.43108 0.12008 0.66025 0.0
O1850 O 0.44164 0.03243 0.6737 0.0
Zn1851 Zn 0.42628 0.07035 0.67496 0.0
O1852 O 0.39794 0.03344 0.69233 0.0
Zn1853 Zn 0.38596 0.07871 0.69306 0.0
O1854 O 0.35102 0.07953 0.67078 0.0
O1855 O 0.38983 0.06824 0.64569 0.0
O1856 O 0.40761 0.11549 0.67404 0.0
O1857 O 0.44863 0.0996 0.65602 0.0
O1858 O 0.42781 0.0822 0.71989 0.0
O1859 O 0.3826 0.08896 0.73281 0.0
C1860 C 0.36261 0.07273 0.647 0.0
C1861 C 0.4091 0.08866 0.73911 0.0
C1862 C 0.98765 0.92019 0.68415 0.0
C1863 C 0.88678 0.93108 0.66025 0.0
O1864 O 0.97443 0.94164 0.6737 0.0
Zn1865 Zn 0.93651 0.92628 0.67496 0.0
O1866 O 0.97343 0.89794 0.69233 0.0
Zn1867 Zn 0.92815 0.88596 0.69306 0.0
O1868 O 0.92733 0.85101 0.67079 0.0
O1869 O 0.93863 0.88983 0.64569 0.0
O1870 O 0.89138 0.90761 0.67403 0.0
O1871 O 0.90727 0.94862 0.65602 0.0
O1872 O 0.92466 0.92781 0.71989 0.0
O1873 O 0.91791 0.88259 0.73281 0.0
C1874 C 0.93413 0.86261 0.647 0.0
C1875 C 0.9182 0.9091 0.73911 0.0
C1876 C 0.14425 0.43413 0.647 0.0
C1877 C 0.09776 0.4182 0.73911 0.0
O1878 O 0.15585 0.42733 0.67079 0.0
Zn1879 Zn 0.1209 0.42815 0.69306 0.0
O1880 O 0.11704 0.43862 0.64569 0.0
Zn1881 Zn 0.08058 0.43651 0.67496 0.0
O1882 O 0.06523 0.47443 0.6737 0.0
O1883 O 0.10892 0.47342 0.69233 0.0
O1884 O 0.07905 0.42466 0.71989 0.0
O1885 O 0.12427 0.4179 0.73281 0.0
O1886 O 0.09925 0.39138 0.67404 0.0
O1887 O 0.05824 0.40727 0.65601 0.0
C1888 C 0.08667 0.48765 0.68415 0.0
C1889 C 0.07578 0.38678 0.66025 0.0
C1890 C 0.51922 0.58667 0.68415 0.0
C1891 C 0.62008 0.57578 0.66025 0.0
O1892 O 0.53243 0.56523 0.6737 0.0
Zn1893 Zn 0.57035 0.58058 0.67496 0.0
O1894 O 0.53344 0.60892 0.69233 0.0
Zn1895 Zn 0.57871 0.6209 0.69306 0.0
O1896 O 0.57953 0.65585 0.67079 0.0
O1897 O 0.56824 0.61704 0.64569 0.0
O1898 O 0.61549 0.59925 0.67403 0.0
O1899 O 0.5996 0.55824 0.65602 0.0
O1900 O 0.5822 0.57905 0.71989 0.0
O1901 O 0.58896 0.62427 0.73281 0.0
C1902 C 0.57273 0.64425 0.647 0.0
C1903 C 0.58866 0.59776 0.73911 0.0
C1904 C 0.35986 0.86261 0.43413 0.0
C1905 C 0.26776 0.9091 0.4182 0.0
O1906 O 0.33608 0.85102 0.42733 0.0
Zn1907 Zn 0.3138 0.88596 0.42815 0.0
O1908 O 0.36117 0.88983 0.43863 0.0
Zn1909 Zn 0.3319 0.92628 0.43651 0.0
O1910 O 0.33316 0.94164 0.47443 0.0
O1911 O 0.31453 0.89794 0.47342 0.0
O1912 O 0.28697 0.92781 0.42466 0.0
O1913 O 0.27406 0.88259 0.4179 0.0
O1914 O 0.33283 0.90761 0.39138 0.0
O1915 O 0.35085 0.94863 0.40727 0.0
C1916 C 0.32271 0.92019 0.48764 0.0
C1917 C 0.34661 0.93108 0.38678 0.0
C1918 C 0.34662 0.57579 0.12008 0.0
C1919 C 0.32272 0.58667 0.01922 0.0
O1920 O 0.35085 0.55824 0.0996 0.0
Zn1921 Zn 0.3319 0.58059 0.07035 0.0
O1922 O 0.33283 0.59926 0.11548 0.0
Zn1923 Zn 0.3138 0.6209 0.07871 0.0
O1924 O 0.27406 0.62427 0.08896 0.0
O1925 O 0.28697 0.57905 0.0822 0.0
O1926 O 0.31453 0.60892 0.03344 0.0
O1927 O 0.33316 0.56523 0.03243 0.0
O1928 O 0.36117 0.61704 0.06824 0.0
O1929 O 0.33607 0.65585 0.07953 0.0
C1930 C 0.26776 0.59776 0.08866 0.0
C1931 C 0.35986 0.64426 0.07273 0.0
C1932 C 0.4091 0.76775 0.08866 0.0
C1933 C 0.36261 0.85986 0.07273 0.0
O1934 O 0.38259 0.77405 0.08895 0.0
Zn1935 Zn 0.38596 0.8138 0.07871 0.0
O1936 O 0.42781 0.78697 0.0822 0.0
Zn1937 Zn 0.42628 0.8319 0.07035 0.0
O1938 O 0.44862 0.85085 0.0996 0.0
O1939 O 0.40761 0.83283 0.11548 0.0
O1940 O 0.38982 0.86117 0.06824 0.0
O1941 O 0.35101 0.83607 0.07953 0.0
O1942 O 0.39794 0.81453 0.03344 0.0
O1943 O 0.44163 0.83316 0.03243 0.0
C1944 C 0.43107 0.84661 0.12008 0.0
C1945 C 0.42019 0.82272 0.01922 0.0
C1946 C 0.23911 0.9091 0.08866 0.0
C1947 C 0.147 0.86261 0.07273 0.0
O1948 O 0.23281 0.88259 0.08896 0.0
Zn1949 Zn 0.19306 0.88596 0.07871 0.0
O1950 O 0.21989 0.92781 0.0822 0.0
Zn1951 Zn 0.17496 0.92628 0.07035 0.0
O1952 O 0.15601 0.94862 0.0996 0.0
O1953 O 0.17404 0.90761 0.11548 0.0
O1954 O 0.14569 0.88982 0.06823 0.0
O1955 O 0.17079 0.85101 0.07953 0.0
O1956 O 0.19233 0.89794 0.03344 0.0
O1957 O 0.1737 0.94163 0.03243 0.0
C1958 C 0.16024 0.93107 0.12008 0.0
C1959 C 0.18415 0.92019 0.01922 0.0
C1960 C 0.14425 0.147 0.57273 0.0
C1961 C 0.09776 0.23911 0.58866 0.0
O1962 O 0.15585 0.17079 0.57953 0.0
Zn1963 Zn 0.1209 0.19306 0.57871 0.0
O1964 O 0.11704 0.14569 0.56824 0.0
Zn1965 Zn 0.08058 0.17496 0.57035 0.0
O1966 O 0.06523 0.1737 0.53243 0.0
O1967 O 0.10892 0.19233 0.53344 0.0
O1968 O 0.07905 0.21989 0.5822 0.0
O1969 O 0.12427 0.23281 0.58896 0.0
O1970 O 0.09925 0.17403 0.61549 0.0
O1971 O 0.05824 0.15602 0.5996 0.0
C1972 C 0.08667 0.18415 0.51922 0.0
C1973 C 0.07578 0.16025 0.62008 0.0
C1974 C 0.647 0.14425 0.43413 0.0
C1975 C 0.73911 0.09776 0.4182 0.0
O1976 O 0.67079 0.15585 0.42733 0.0
Zn1977 Zn 0.69306 0.1209 0.42815 0.0
O1978 O 0.64569 0.11703 0.43863 0.0
Zn1979 Zn 0.67496 0.08058 0.43651 0.0
O1980 O 0.6737 0.06523 0.47443 0.0
O1981 O 0.69233 0.10892 0.47342 0.0
O1982 O 0.71989 0.07905 0.42466 0.0
O1983 O 0.73281 0.12427 0.41791 0.0
O1984 O 0.67403 0.09925 0.39138 0.0
O1985 O 0.65602 0.05824 0.40727 0.0
C1986 C 0.68415 0.08667 0.48765 0.0
C1987 C 0.66025 0.07578 0.38678 0.0
C1988 C 0.36261 0.147 0.93413 0.0
C1989 C 0.4091 0.23911 0.9182 0.0
O1990 O 0.35102 0.17079 0.92733 0.0
Zn1991 Zn 0.38596 0.19306 0.92815 0.0
O1992 O 0.38983 0.14569 0.93862 0.0
Zn1993 Zn 0.42628 0.17496 0.93651 0.0
O1994 O 0.44163 0.1737 0.97443 0.0
O1995 O 0.39794 0.19233 0.97342 0.0
O1996 O 0.42781 0.21989 0.92466 0.0
O1997 O 0.3826 0.23281 0.9179 0.0
O1998 O 0.40761 0.17403 0.89138 0.0
O1999 O 0.44862 0.15602 0.90727 0.0
C2000 C 0.42019 0.18415 0.98765 0.0
C2001 C 0.43108 0.16025 0.88678 0.0
C2002 C 0.08667 0.32271 0.98765 0.0
C2003 C 0.07578 0.34662 0.88678 0.0
O2004 O 0.06523 0.33316 0.97443 0.0
Zn2005 Zn 0.08059 0.3319 0.93651 0.0
O2006 O 0.10892 0.31453 0.97342 0.0
Zn2007 Zn 0.1209 0.3138 0.92815 0.0
O2008 O 0.15585 0.33608 0.92733 0.0
O2009 O 0.11704 0.36117 0.93862 0.0
O2010 O 0.09925 0.33283 0.89138 0.0
O2011 O 0.05824 0.35085 0.90727 0.0
O2012 O 0.07905 0.28697 0.92466 0.0
O2013 O 0.12427 0.27405 0.9179 0.0
C2014 C 0.14425 0.35986 0.93413 0.0
C2015 C 0.09776 0.26775 0.9182 0.0
C2016 C 0.58866 0.73911 0.09776 0.0
C2017 C 0.57273 0.647 0.14425 0.0
O2018 O 0.5822 0.71989 0.07905 0.0
Zn2019 Zn 0.57035 0.67496 0.08058 0.0
O2020 O 0.58896 0.73281 0.12427 0.0
Zn2021 Zn 0.57871 0.69306 0.1209 0.0
O2022 O 0.61549 0.67403 0.09925 0.0
O2023 O 0.5996 0.65602 0.05824 0.0
O2024 O 0.57953 0.67078 0.15585 0.0
O2025 O 0.56824 0.64569 0.11704 0.0
O2026 O 0.53243 0.6737 0.06523 0.0
O2027 O 0.53344 0.69233 0.10892 0.0
C2028 C 0.62008 0.66025 0.07578 0.0
C2029 C 0.51922 0.68415 0.08667 0.0
C2030 C 0.85986 0.57273 0.14426 0.0
C2031 C 0.76776 0.58866 0.09776 0.0
O2032 O 0.86117 0.56824 0.11704 0.0
Zn2033 Zn 0.8319 0.57035 0.08059 0.0
O2034 O 0.83607 0.57953 0.15585 0.0
Zn2035 Zn 0.8138 0.57871 0.1209 0.0
O2036 O 0.81453 0.53344 0.10892 0.0
O2037 O 0.83316 0.53243 0.06523 0.0
O2038 O 0.77405 0.58895 0.12427 0.0
O2039 O 0.78697 0.5822 0.07905 0.0
O2040 O 0.85085 0.5996 0.05824 0.0
O2041 O 0.83283 0.61548 0.09926 0.0
C2042 C 0.82272 0.51922 0.08667 0.0
C2043 C 0.84661 0.62008 0.07579 0.0
C2044 C 0.9182 0.76776 0.09776 0.0
C2045 C 0.93413 0.85986 0.14425 0.0
O2046 O 0.92466 0.78697 0.07905 0.0
Zn2047 Zn 0.93651 0.8319 0.08058 0.0
O2048 O 0.91791 0.77406 0.12427 0.0
Zn2049 Zn 0.92815 0.8138 0.1209 0.0
O2050 O 0.89138 0.83283 0.09925 0.0
O2051 O 0.90727 0.85085 0.05824 0.0
O2052 O 0.92733 0.83608 0.15585 0.0
O2053 O 0.93862 0.86117 0.11704 0.0
O2054 O 0.97444 0.83316 0.06523 0.0
O2055 O 0.97343 0.81453 0.10892 0.0
C2056 C 0.88678 0.84661 0.07578 0.0
C2057 C 0.98765 0.82271 0.08667 0.0
C2058 C 0.73911 0.9182 0.09776 0.0
C2059 C 0.647 0.93413 0.14425 0.0
O2060 O 0.71989 0.92466 0.07905 0.0
Zn2061 Zn 0.67496 0.93651 0.08058 0.0
O2062 O 0.73281 0.9179 0.12427 0.0
Zn2063 Zn 0.69306 0.92815 0.1209 0.0
O2064 O 0.67404 0.89138 0.09925 0.0
O2065 O 0.65602 0.90727 0.05824 0.0
O2066 O 0.67079 0.92733 0.15585 0.0
O2067 O 0.64569 0.93862 0.11704 0.0
O2068 O 0.6737 0.97443 0.06523 0.0
O2069 O 0.69233 0.97342 0.10892 0.0
C2070 C 0.66025 0.88678 0.07578 0.0
C2071 C 0.68415 0.98765 0.08667 0.0
C2072 C 0.62008 0.34661 0.93108 0.0
C2073 C 0.51922 0.32271 0.92019 0.0
O2074 O 0.61549 0.33282 0.90761 0.0
Zn2075 Zn 0.57871 0.3138 0.88596 0.0
O2076 O 0.5996 0.35085 0.94862 0.0
Zn2077 Zn 0.57035 0.3319 0.92628 0.0
O2078 O 0.5822 0.28697 0.92781 0.0
O2079 O 0.58896 0.27405 0.88259 0.0
O2080 O 0.53243 0.33316 0.94163 0.0
O2081 O 0.53344 0.31453 0.89794 0.0
O2082 O 0.57954 0.33608 0.85102 0.0
O2083 O 0.56824 0.36117 0.88982 0.0
C2084 C 0.58866 0.26776 0.9091 0.0
C2085 C 0.57274 0.35986 0.86261 0.0
C2086 C 0.18415 0.51921 0.92019 0.0
C2087 C 0.16025 0.62008 0.93107 0.0
O2088 O 0.19233 0.53344 0.89794 0.0
Zn2089 Zn 0.19306 0.57871 0.88596 0.0
O2090 O 0.1737 0.53243 0.94163 0.0
Zn2091 Zn 0.17496 0.57035 0.92627 0.0
O2092 O 0.14569 0.56824 0.88982 0.0
O2093 O 0.17079 0.57953 0.85101 0.0
O2094 O 0.15601 0.5996 0.94862 0.0
O2095 O 0.17404 0.61548 0.9076 0.0
O2096 O 0.23281 0.58895 0.88259 0.0
O2097 O 0.21989 0.5822 0.92781 0.0
C2098 C 0.147 0.57273 0.8626 0.0
C2099 C 0.23911 0.58866 0.9091 0.0
C2100 C 0.88678 0.16025 0.93108 0.0
C2101 C 0.98765 0.18415 0.92019 0.0
O2102 O 0.89138 0.17404 0.90761 0.0
Zn2103 Zn 0.92815 0.19306 0.88596 0.0
O2104 O 0.90727 0.15601 0.94862 0.0
Zn2105 Zn 0.93651 0.17496 0.92628 0.0
O2106 O 0.92466 0.21989 0.92781 0.0
O2107 O 0.91791 0.23281 0.8826 0.0
O2108 O 0.97444 0.1737 0.94163 0.0
O2109 O 0.97342 0.19233 0.89794 0.0
O2110 O 0.92733 0.17079 0.85102 0.0
O2111 O 0.93862 0.14569 0.88982 0.0
C2112 C 0.9182 0.23911 0.9091 0.0
C2113 C 0.93413 0.147 0.86261 0.0
C2114 C 0.26776 0.9182 0.9091 0.0
C2115 C 0.35986 0.93413 0.86261 0.0
O2116 O 0.28697 0.92466 0.92781 0.0
Zn2117 Zn 0.3319 0.93651 0.92628 0.0
O2118 O 0.27406 0.91791 0.8826 0.0
Zn2119 Zn 0.3138 0.92815 0.88596 0.0
O2120 O 0.33283 0.89138 0.90761 0.0
O2121 O 0.35085 0.90727 0.94862 0.0
O2122 O 0.33608 0.92733 0.85102 0.0
O2123 O 0.36117 0.93862 0.88982 0.0
O2124 O 0.33316 0.97443 0.94163 0.0
O2125 O 0.31453 0.97342 0.89794 0.0
C2126 C 0.34661 0.88678 0.93108 0.0
C2127 C 0.32272 0.98765 0.92019 0.0
C2128 C 0.59776 0.58866 0.23911 0.0
C2129 C 0.64425 0.57273 0.147 0.0
O2130 O 0.57905 0.5822 0.21989 0.0
Zn2131 Zn 0.58058 0.57035 0.17496 0.0
O2132 O 0.62427 0.58896 0.23281 0.0
Zn2133 Zn 0.6209 0.57871 0.19306 0.0
O2134 O 0.59925 0.61548 0.17404 0.0
O2135 O 0.55824 0.5996 0.15601 0.0
O2136 O 0.65585 0.57953 0.17079 0.0
O2137 O 0.61704 0.56824 0.14569 0.0
O2138 O 0.56523 0.53243 0.1737 0.0
O2139 O 0.60892 0.53344 0.19233 0.0
C2140 C 0.57578 0.62008 0.16025 0.0
C2141 C 0.58667 0.51922 0.18415 0.0
C2142 C 0.9182 0.59776 0.23911 0.0
C2143 C 0.93413 0.64425 0.147 0.0
O2144 O 0.92466 0.57905 0.21989 0.0
Zn2145 Zn 0.93651 0.58058 0.17496 0.0
O2146 O 0.91791 0.62427 0.23281 0.0
Zn2147 Zn 0.92815 0.6209 0.19306 0.0
O2148 O 0.89138 0.59925 0.17404 0.0
O2149 O 0.90727 0.55824 0.15602 0.0
O2150 O 0.92733 0.65585 0.17078 0.0
O2151 O 0.93863 0.61704 0.14569 0.0
O2152 O 0.97443 0.56523 0.1737 0.0
O2153 O 0.97342 0.60892 0.19233 0.0
C2154 C 0.88678 0.57578 0.16025 0.0
C2155 C 0.98765 0.58667 0.18415 0.0
C2156 C 0.92019 0.98765 0.18415 0.0
C2157 C 0.93107 0.88678 0.16025 0.0
O2158 O 0.89794 0.97342 0.19233 0.0
Zn2159 Zn 0.88596 0.92815 0.19306 0.0
O2160 O 0.94163 0.97443 0.1737 0.0
Zn2161 Zn 0.92628 0.93651 0.17496 0.0
O2162 O 0.88982 0.93863 0.14569 0.0
O2163 O 0.85101 0.92733 0.17079 0.0
O2164 O 0.94862 0.90726 0.15601 0.0
O2165 O 0.90761 0.89138 0.17404 0.0
O2166 O 0.88259 0.91791 0.23281 0.0
O2167 O 0.92781 0.92466 0.21989 0.0
C2168 C 0.86261 0.93413 0.147 0.0
C2169 C 0.9091 0.9182 0.23911 0.0
C2170 C 0.58866 0.9091 0.23911 0.0
C2171 C 0.57273 0.86261 0.147 0.0
O2172 O 0.5822 0.92781 0.21989 0.0
Zn2173 Zn 0.57035 0.92628 0.17496 0.0
O2174 O 0.58896 0.88259 0.23281 0.0
Zn2175 Zn 0.57871 0.88596 0.19306 0.0
O2176 O 0.61548 0.90761 0.17403 0.0
O2177 O 0.5996 0.94862 0.15601 0.0
O2178 O 0.57953 0.85101 0.17078 0.0
O2179 O 0.56824 0.88983 0.14569 0.0
O2180 O 0.53243 0.94163 0.1737 0.0
O2181 O 0.53344 0.89794 0.19233 0.0
C2182 C 0.62008 0.93108 0.16025 0.0
C2183 C 0.51922 0.92019 0.18415 0.0
C2184 C 0.64426 0.43413 0.85986 0.0
C2185 C 0.59776 0.4182 0.76775 0.0
O2186 O 0.61704 0.43863 0.86117 0.0
Zn2187 Zn 0.58059 0.43651 0.8319 0.0
O2188 O 0.65585 0.42733 0.83607 0.0
Zn2189 Zn 0.6209 0.42815 0.8138 0.0
O2190 O 0.60892 0.47342 0.81453 0.0
O2191 O 0.56523 0.47443 0.83316 0.0
O2192 O 0.62427 0.41791 0.77405 0.0
O2193 O 0.57905 0.42466 0.78697 0.0
O2194 O 0.55824 0.40726 0.85085 0.0
O2195 O 0.59926 0.39138 0.83282 0.0
C2196 C 0.58667 0.48765 0.82272 0.0
C2197 C 0.57579 0.38678 0.84661 0.0
C2198 C 0.12008 0.57578 0.84661 0.0
C2199 C 0.01922 0.58667 0.82271 0.0
O2200 O 0.11549 0.59925 0.83283 0.0
Zn2201 Zn 0.07871 0.6209 0.8138 0.0
O2202 O 0.0996 0.55824 0.85085 0.0
Zn2203 Zn 0.07035 0.58058 0.8319 0.0
O2204 O 0.0822 0.57905 0.78697 0.0
O2205 O 0.08896 0.62427 0.77406 0.0
O2206 O 0.03243 0.56523 0.83316 0.0
O2207 O 0.03344 0.60892 0.81453 0.0
O2208 O 0.07953 0.65585 0.83608 0.0
O2209 O 0.06824 0.61704 0.86117 0.0
C2210 C 0.08866 0.59776 0.76776 0.0
C2211 C 0.07273 0.64425 0.85986 0.0
C2212 C 0.86261 0.07273 0.85986 0.0
C2213 C 0.9091 0.08866 0.76776 0.0
O2214 O 0.88982 0.06823 0.86117 0.0
Zn2215 Zn 0.92628 0.07035 0.8319 0.0
O2216 O 0.85101 0.07953 0.83607 0.0
Zn2217 Zn 0.88596 0.07871 0.8138 0.0
O2218 O 0.89794 0.03344 0.81453 0.0
O2219 O 0.94163 0.03243 0.83316 0.0
O2220 O 0.88259 0.08895 0.77405 0.0
O2221 O 0.92781 0.0822 0.78697 0.0
O2222 O 0.94862 0.0996 0.85085 0.0
O2223 O 0.90761 0.11548 0.83283 0.0
C2224 C 0.92019 0.01922 0.82272 0.0
C2225 C 0.93107 0.12008 0.84661 0.0
C2226 C 0.38678 0.93108 0.84661 0.0
C2227 C 0.48765 0.92019 0.82271 0.0
O2228 O 0.39138 0.90761 0.83283 0.0
Zn2229 Zn 0.42815 0.88596 0.8138 0.0
O2230 O 0.40727 0.94862 0.85085 0.0
Zn2231 Zn 0.43651 0.92628 0.8319 0.0
O2232 O 0.42466 0.92781 0.78697 0.0
O2233 O 0.41791 0.88259 0.77405 0.0
O2234 O 0.47443 0.94163 0.83316 0.0
O2235 O 0.47342 0.89794 0.81453 0.0
O2236 O 0.42733 0.85101 0.83608 0.0
O2237 O 0.43863 0.88983 0.86117 0.0
C2238 C 0.4182 0.9091 0.76775 0.0
C2239 C 0.43413 0.86261 0.85986 0.0
C2240 C 0.68415 0.58667 0.01922 0.0
C2241 C 0.66025 0.57579 0.12008 0.0
O2242 O 0.69233 0.60892 0.03344 0.0
Zn2243 Zn 0.69306 0.6209 0.07871 0.0
O2244 O 0.6737 0.56523 0.03243 0.0
Zn2245 Zn 0.67496 0.58059 0.07035 0.0
O2246 O 0.64569 0.61704 0.06823 0.0
O2247 O 0.67079 0.65585 0.07953 0.0
O2248 O 0.65601 0.55824 0.0996 0.0
O2249 O 0.67404 0.59926 0.11548 0.0
O2250 O 0.73281 0.62427 0.08895 0.0
O2251 O 0.71989 0.57905 0.0822 0.0
C2252 C 0.647 0.64425 0.07273 0.0
C2253 C 0.73911 0.59776 0.08866 0.0
C2254 C 0.68415 0.92019 0.48765 0.0
C2255 C 0.66025 0.93107 0.38678 0.0
O2256 O 0.69233 0.89794 0.47342 0.0
Zn2257 Zn 0.69307 0.88596 0.42815 0.0
O2258 O 0.6737 0.94163 0.47443 0.0
Zn2259 Zn 0.67496 0.92628 0.43651 0.0
O2260 O 0.64569 0.88982 0.43863 0.0
O2261 O 0.67079 0.85101 0.42733 0.0
O2262 O 0.65602 0.94862 0.40726 0.0
O2263 O 0.67404 0.9076 0.39138 0.0
O2264 O 0.73281 0.88259 0.41791 0.0
O2265 O 0.71989 0.92781 0.42466 0.0
C2266 C 0.647 0.86261 0.43413 0.0
C2267 C 0.73911 0.9091 0.4182 0.0
C2268 C 0.58667 0.68415 0.48764 0.0
C2269 C 0.57579 0.66025 0.38678 0.0
O2270 O 0.60892 0.69233 0.47342 0.0
Zn2271 Zn 0.6209 0.69306 0.42815 0.0
O2272 O 0.56523 0.6737 0.47443 0.0
Zn2273 Zn 0.58059 0.67496 0.43651 0.0
O2274 O 0.61704 0.64569 0.43863 0.0
O2275 O 0.65585 0.67079 0.42733 0.0
O2276 O 0.55824 0.65601 0.40726 0.0
O2277 O 0.59926 0.67404 0.39138 0.0
O2278 O 0.62427 0.73281 0.41791 0.0
O2279 O 0.57905 0.71989 0.42466 0.0
C2280 C 0.64426 0.647 0.43413 0.0
C2281 C 0.59777 0.73911 0.4182 0.0
C2282 C 0.82272 0.58667 0.48765 0.0
C2283 C 0.84661 0.57579 0.38678 0.0
O2284 O 0.81453 0.60892 0.47342 0.0
Zn2285 Zn 0.8138 0.6209 0.42815 0.0
O2286 O 0.83316 0.56523 0.47443 0.0
Zn2287 Zn 0.8319 0.58059 0.43651 0.0
O2288 O 0.86117 0.61704 0.43863 0.0
O2289 O 0.83607 0.65585 0.42733 0.0
O2290 O 0.85085 0.55824 0.40726 0.0
O2291 O 0.83283 0.59926 0.39138 0.0
O2292 O 0.77405 0.62427 0.41791 0.0
O2293 O 0.78697 0.57905 0.42466 0.0
C2294 C 0.85986 0.64426 0.43413 0.0
C2295 C 0.76776 0.59776 0.4182 0.0
C2296 C 0.92019 0.32272 0.98765 0.0
C2297 C 0.93107 0.34661 0.88678 0.0
O2298 O 0.89794 0.31453 0.97342 0.0
Zn2299 Zn 0.88596 0.3138 0.92815 0.0
O2300 O 0.94163 0.33316 0.97443 0.0
Zn2301 Zn 0.92628 0.3319 0.93651 0.0
O2302 O 0.88982 0.36117 0.93863 0.0
O2303 O 0.85101 0.33607 0.92733 0.0
O2304 O 0.94862 0.35085 0.90726 0.0
O2305 O 0.90761 0.33283 0.89138 0.0
O2306 O 0.88259 0.27405 0.91791 0.0
O2307 O 0.92781 0.28697 0.92466 0.0
C2308 C 0.86261 0.35986 0.93413 0.0
C2309 C 0.9091 0.26775 0.9182 0.0
C2310 C 0.35986 0.36261 0.07273 0.0
C2311 C 0.26776 0.4091 0.08866 0.0
O2312 O 0.36117 0.38982 0.06823 0.0
Zn2313 Zn 0.3319 0.42628 0.07035 0.0
O2314 O 0.33607 0.35101 0.07953 0.0
Zn2315 Zn 0.3138 0.38596 0.07871 0.0
O2316 O 0.31453 0.39794 0.03344 0.0
O2317 O 0.33316 0.44163 0.03243 0.0
O2318 O 0.27406 0.38259 0.08895 0.0
O2319 O 0.28697 0.42781 0.0822 0.0
O2320 O 0.35085 0.44862 0.0996 0.0
O2321 O 0.33283 0.4076 0.11548 0.0
C2322 C 0.32272 0.42019 0.01921 0.0
C2323 C 0.34662 0.43107 0.12008 0.0
C2324 C 0.58667 0.32272 0.51922 0.0
C2325 C 0.57579 0.34661 0.62008 0.0
O2326 O 0.60892 0.31453 0.53344 0.0
Zn2327 Zn 0.6209 0.3138 0.57871 0.0
O2328 O 0.56523 0.33316 0.53243 0.0
Zn2329 Zn 0.58059 0.3319 0.57035 0.0
O2330 O 0.61704 0.36117 0.56824 0.0
O2331 O 0.65585 0.33607 0.57953 0.0
O2332 O 0.55824 0.35085 0.5996 0.0
O2333 O 0.59926 0.33282 0.61548 0.0
O2334 O 0.62427 0.27405 0.58895 0.0
O2335 O 0.57906 0.28697 0.5822 0.0
C2336 C 0.64426 0.35986 0.57273 0.0
C2337 C 0.59777 0.26775 0.58866 0.0
C2338 C 0.92019 0.18415 0.51922 0.0
C2339 C 0.93107 0.16025 0.62008 0.0
O2340 O 0.89794 0.19233 0.53344 0.0
Zn2341 Zn 0.88596 0.19306 0.57871 0.0
O2342 O 0.94163 0.1737 0.53243 0.0
Zn2343 Zn 0.92628 0.17496 0.57035 0.0
O2344 O 0.88982 0.14569 0.56824 0.0
O2345 O 0.85101 0.17079 0.57953 0.0
O2346 O 0.94862 0.15601 0.5996 0.0
O2347 O 0.9076 0.17404 0.61548 0.0
O2348 O 0.88259 0.23281 0.58895 0.0
O2349 O 0.92781 0.21989 0.5822 0.0
C2350 C 0.86261 0.147 0.57273 0.0
C2351 C 0.9091 0.23911 0.58866 0.0
C2352 C 0.48765 0.32271 0.92019 0.0
C2353 C 0.38678 0.34662 0.93108 0.0
O2354 O 0.47444 0.33316 0.94163 0.0
Zn2355 Zn 0.43651 0.3319 0.92628 0.0
O2356 O 0.47343 0.31453 0.89794 0.0
Zn2357 Zn 0.42815 0.3138 0.88596 0.0
O2358 O 0.42733 0.33608 0.85101 0.0
O2359 O 0.43863 0.36117 0.88982 0.0
O2360 O 0.39138 0.33283 0.90761 0.0
O2361 O 0.40727 0.35085 0.94862 0.0
O2362 O 0.42466 0.28697 0.92781 0.0
O2363 O 0.4179 0.27406 0.88259 0.0
C2364 C 0.43413 0.35986 0.86261 0.0
C2365 C 0.4182 0.26776 0.9091 0.0
C2366 C 0.23911 0.4182 0.9091 0.0
C2367 C 0.147 0.43413 0.8626 0.0
O2368 O 0.23281 0.41791 0.88259 0.0
Zn2369 Zn 0.19306 0.42815 0.88596 0.0
O2370 O 0.21989 0.42466 0.92781 0.0
Zn2371 Zn 0.17496 0.43651 0.92627 0.0
O2372 O 0.15601 0.40726 0.94862 0.0
O2373 O 0.17404 0.39138 0.9076 0.0
O2374 O 0.14569 0.43862 0.88982 0.0
O2375 O 0.17079 0.42733 0.85101 0.0
O2376 O 0.19233 0.47342 0.89794 0.0
O2377 O 0.1737 0.47443 0.94163 0.0
C2378 C 0.16025 0.38678 0.93107 0.0
C2379 C 0.18415 0.48764 0.92019 0.0
C2380 C 0.07273 0.147 0.86261 0.0
C2381 C 0.08866 0.23911 0.9091 0.0
O2382 O 0.07953 0.17078 0.85102 0.0
Zn2383 Zn 0.07871 0.19306 0.88596 0.0
O2384 O 0.06824 0.14569 0.88982 0.0
Zn2385 Zn 0.07035 0.17496 0.92628 0.0
O2386 O 0.03243 0.1737 0.94163 0.0
O2387 O 0.03344 0.19233 0.89794 0.0
O2388 O 0.0822 0.21989 0.92781 0.0
O2389 O 0.08896 0.23281 0.88259 0.0
O2390 O 0.11549 0.17404 0.90761 0.0
O2391 O 0.0996 0.15602 0.94862 0.0
C2392 C 0.01922 0.18415 0.92019 0.0
C2393 C 0.12008 0.16025 0.93108 0.0
C2394 C 0.34661 0.12008 0.93107 0.0
C2395 C 0.32272 0.01922 0.92019 0.0
O2396 O 0.35085 0.0996 0.94862 0.0
Zn2397 Zn 0.3319 0.07035 0.92628 0.0
O2398 O 0.33283 0.11548 0.90761 0.0
Zn2399 Zn 0.3138 0.07871 0.88596 0.0
O2400 O 0.27405 0.08895 0.88259 0.0
O2401 O 0.28697 0.0822 0.92781 0.0
O2402 O 0.31453 0.03344 0.89794 0.0
O2403 O 0.33317 0.03243 0.94163 0.0
O2404 O 0.36117 0.06824 0.88982 0.0
O2405 O 0.33607 0.07953 0.85101 0.0
C2406 C 0.26776 0.08866 0.9091 0.0
C2407 C 0.35986 0.07273 0.86261 0.0
C2408 C 0.48765 0.68415 0.08667 0.0
C2409 C 0.38678 0.66025 0.07578 0.0
O2410 O 0.47443 0.6737 0.06523 0.0
Zn2411 Zn 0.43651 0.67496 0.08058 0.0
O2412 O 0.47342 0.69233 0.10892 0.0
Zn2413 Zn 0.42815 0.69306 0.1209 0.0
O2414 O 0.42733 0.67078 0.15585 0.0
O2415 O 0.43863 0.64569 0.11704 0.0
O2416 O 0.39138 0.67404 0.09925 0.0
O2417 O 0.40727 0.65601 0.05824 0.0
O2418 O 0.42466 0.71989 0.07905 0.0
O2419 O 0.41791 0.73281 0.12427 0.0
C2420 C 0.43413 0.647 0.14425 0.0
C2421 C 0.4182 0.73911 0.09776 0.0
C2422 C 0.85986 0.43413 0.14425 0.0
C2423 C 0.76776 0.4182 0.09776 0.0
O2424 O 0.83608 0.42733 0.15585 0.0
Zn2425 Zn 0.8138 0.42815 0.1209 0.0
O2426 O 0.86117 0.43862 0.11704 0.0
Zn2427 Zn 0.8319 0.43651 0.08058 0.0
O2428 O 0.83316 0.47443 0.06523 0.0
O2429 O 0.81453 0.47342 0.10892 0.0
O2430 O 0.78697 0.42466 0.07905 0.0
O2431 O 0.77406 0.41791 0.12427 0.0
O2432 O 0.83283 0.39138 0.09925 0.0
O2433 O 0.85085 0.40727 0.05824 0.0
C2434 C 0.82272 0.48765 0.08667 0.0
C2435 C 0.84661 0.38678 0.07578 0.0
C2436 C 0.01922 0.82271 0.08667 0.0
C2437 C 0.12008 0.84661 0.07578 0.0
O2438 O 0.03243 0.83316 0.06523 0.0
Zn2439 Zn 0.07035 0.8319 0.08058 0.0
O2440 O 0.03344 0.81453 0.10892 0.0
Zn2441 Zn 0.07871 0.8138 0.1209 0.0
O2442 O 0.07953 0.83608 0.15585 0.0
O2443 O 0.06824 0.86117 0.11704 0.0
O2444 O 0.11549 0.83283 0.09925 0.0
O2445 O 0.0996 0.85085 0.05824 0.0
O2446 O 0.0822 0.78697 0.07905 0.0
O2447 O 0.08896 0.77406 0.12427 0.0
C2448 C 0.07273 0.85986 0.14425 0.0
C2449 C 0.08866 0.76776 0.09776 0.0
C2450 C 0.647 0.07273 0.14425 0.0
C2451 C 0.73911 0.08866 0.09776 0.0
O2452 O 0.67079 0.07953 0.15585 0.0
Zn2453 Zn 0.69306 0.07871 0.1209 0.0
O2454 O 0.64569 0.06824 0.11704 0.0
Zn2455 Zn 0.67496 0.07035 0.08058 0.0
O2456 O 0.6737 0.03243 0.06523 0.0
O2457 O 0.69233 0.03344 0.10892 0.0
O2458 O 0.71989 0.0822 0.07905 0.0
O2459 O 0.73281 0.08896 0.12427 0.0
O2460 O 0.67404 0.11548 0.09925 0.0
O2461 O 0.65602 0.09959 0.05824 0.0
C2462 C 0.68415 0.01922 0.08667 0.0
C2463 C 0.66025 0.12008 0.07578 0.0
C2464 C 0.36261 0.43413 0.85986 0.0
C2465 C 0.4091 0.4182 0.76776 0.0
O2466 O 0.35102 0.42733 0.83608 0.0
Zn2467 Zn 0.38596 0.42815 0.8138 0.0
O2468 O 0.38983 0.43863 0.86117 0.0
Zn2469 Zn 0.42628 0.43651 0.8319 0.0
O2470 O 0.44164 0.47443 0.83316 0.0
O2471 O 0.39794 0.47342 0.81453 0.0
O2472 O 0.42781 0.42466 0.78697 0.0
O2473 O 0.3826 0.41791 0.77406 0.0
O2474 O 0.40761 0.39138 0.83283 0.0
O2475 O 0.44863 0.40727 0.85085 0.0
C2476 C 0.42019 0.48765 0.82271 0.0
C2477 C 0.43108 0.38678 0.84661 0.0
C2478 C 0.07273 0.36261 0.85986 0.0
C2479 C 0.08866 0.4091 0.76776 0.0
O2480 O 0.07953 0.35101 0.83608 0.0
Zn2481 Zn 0.07871 0.38596 0.8138 0.0
O2482 O 0.06824 0.38983 0.86117 0.0
Zn2483 Zn 0.07035 0.42628 0.8319 0.0
O2484 O 0.03243 0.44163 0.83316 0.0
O2485 O 0.03344 0.39794 0.81453 0.0
O2486 O 0.0822 0.42781 0.78697 0.0
O2487 O 0.08896 0.38259 0.77406 0.0
O2488 O 0.11549 0.40761 0.83283 0.0
O2489 O 0.0996 0.44862 0.85085 0.0
C2490 C 0.01922 0.42019 0.82271 0.0
C2491 C 0.12008 0.43108 0.84661 0.0
C2492 C 0.08667 0.01922 0.82271 0.0
C2493 C 0.07578 0.12008 0.84661 0.0
O2494 O 0.06523 0.03243 0.83316 0.0
Zn2495 Zn 0.08058 0.07035 0.8319 0.0
O2496 O 0.10892 0.03344 0.81453 0.0
Zn2497 Zn 0.1209 0.07871 0.8138 0.0
O2498 O 0.15585 0.07953 0.83608 0.0
O2499 O 0.11704 0.06824 0.86117 0.0
O2500 O 0.09925 0.11548 0.83283 0.0
O2501 O 0.05824 0.09959 0.85085 0.0
O2502 O 0.07905 0.0822 0.78697 0.0
O2503 O 0.12427 0.08896 0.77406 0.0
C2504 C 0.14425 0.07273 0.85986 0.0
C2505 C 0.09776 0.08866 0.76776 0.0
C2506 C 0.43413 0.14425 0.85986 0.0
C2507 C 0.4182 0.09776 0.76776 0.0
O2508 O 0.42733 0.15585 0.83608 0.0
Zn2509 Zn 0.42815 0.1209 0.8138 0.0
O2510 O 0.43863 0.11704 0.86117 0.0
Zn2511 Zn 0.43651 0.08058 0.8319 0.0
O2512 O 0.47443 0.06523 0.83316 0.0
O2513 O 0.47342 0.10892 0.81453 0.0
O2514 O 0.42466 0.07905 0.78697 0.0
O2515 O 0.41791 0.12427 0.77406 0.0
O2516 O 0.39138 0.09925 0.83283 0.0
O2517 O 0.40727 0.05824 0.85085 0.0
C2518 C 0.48765 0.08667 0.82271 0.0
C2519 C 0.38678 0.07578 0.84661 0.0
C2520 C 0.36261 0.57273 0.147 0.0
C2521 C 0.4091 0.58866 0.23911 0.0
O2522 O 0.35102 0.57953 0.17079 0.0
Zn2523 Zn 0.38596 0.57871 0.19306 0.0
O2524 O 0.38983 0.56824 0.14569 0.0
Zn2525 Zn 0.42628 0.57035 0.17496 0.0
O2526 O 0.44164 0.53243 0.1737 0.0
O2527 O 0.39794 0.53344 0.19233 0.0
O2528 O 0.42781 0.5822 0.21989 0.0
O2529 O 0.3826 0.58896 0.23281 0.0
O2530 O 0.40761 0.61548 0.17404 0.0
O2531 O 0.44863 0.5996 0.15602 0.0
C2532 C 0.42019 0.51922 0.18415 0.0
C2533 C 0.43108 0.62008 0.16025 0.0
C2534 C 0.93413 0.36261 0.147 0.0
C2535 C 0.9182 0.4091 0.23911 0.0
O2536 O 0.92733 0.35101 0.17079 0.0
Zn2537 Zn 0.92815 0.38596 0.19306 0.0
O2538 O 0.93863 0.38983 0.14569 0.0
Zn2539 Zn 0.93651 0.42628 0.17496 0.0
O2540 O 0.97444 0.44163 0.1737 0.0
O2541 O 0.97343 0.39794 0.19233 0.0
O2542 O 0.92466 0.42781 0.21989 0.0
O2543 O 0.91791 0.38259 0.23281 0.0
O2544 O 0.89138 0.40761 0.17403 0.0
O2545 O 0.90727 0.44862 0.15602 0.0
C2546 C 0.98765 0.42019 0.18415 0.0
C2547 C 0.88678 0.43108 0.16025 0.0
C2548 C 0.14425 0.93413 0.147 0.0
C2549 C 0.09776 0.9182 0.23911 0.0
O2550 O 0.15585 0.92733 0.17079 0.0
Zn2551 Zn 0.1209 0.92815 0.19306 0.0
O2552 O 0.11704 0.93863 0.14569 0.0
Zn2553 Zn 0.08058 0.93651 0.17496 0.0
O2554 O 0.06523 0.97443 0.1737 0.0
O2555 O 0.10892 0.97342 0.19233 0.0
O2556 O 0.07905 0.92466 0.21989 0.0
O2557 O 0.12427 0.91791 0.23281 0.0
O2558 O 0.09925 0.89138 0.17403 0.0
O2559 O 0.05824 0.90727 0.15602 0.0
C2560 C 0.08667 0.98765 0.18415 0.0
C2561 C 0.07578 0.88678 0.16025 0.0
C2562 C 0.51922 0.08667 0.18415 0.0
C2563 C 0.62008 0.07578 0.16025 0.0
O2564 O 0.53243 0.06523 0.1737 0.0
Zn2565 Zn 0.57035 0.08058 0.17496 0.0
O2566 O 0.53344 0.10892 0.19233 0.0
Zn2567 Zn 0.57871 0.1209 0.19306 0.0
O2568 O 0.57953 0.15585 0.17079 0.0
O2569 O 0.56824 0.11704 0.14569 0.0
O2570 O 0.61549 0.09925 0.17403 0.0
O2571 O 0.5996 0.05824 0.15602 0.0
O2572 O 0.5822 0.07905 0.21989 0.0
O2573 O 0.58896 0.12427 0.23281 0.0
C2574 C 0.57273 0.14425 0.147 0.0
C2575 C 0.58866 0.09776 0.23911 0.0
C2576 C 0.35986 0.36261 0.93413 0.0
C2577 C 0.26776 0.4091 0.9182 0.0
O2578 O 0.33608 0.35101 0.92733 0.0
Zn2579 Zn 0.3138 0.38596 0.92815 0.0
O2580 O 0.36117 0.38983 0.93863 0.0
Zn2581 Zn 0.3319 0.42628 0.93651 0.0
O2582 O 0.33316 0.44164 0.97443 0.0
O2583 O 0.31453 0.39794 0.97342 0.0
O2584 O 0.28697 0.42781 0.92466 0.0
O2585 O 0.27406 0.38259 0.9179 0.0
O2586 O 0.33283 0.40761 0.89138 0.0
O2587 O 0.35085 0.44862 0.90727 0.0
C2588 C 0.32272 0.42019 0.98765 0.0
C2589 C 0.34661 0.43108 0.88678 0.0
C2590 C 0.35986 0.14425 0.57273 0.0
C2591 C 0.26776 0.09776 0.58866 0.0
O2592 O 0.33608 0.15585 0.57953 0.0
Zn2593 Zn 0.3138 0.1209 0.57871 0.0
O2594 O 0.36117 0.11704 0.56823 0.0
Zn2595 Zn 0.3319 0.08058 0.57035 0.0
O2596 O 0.33316 0.06523 0.53243 0.0
O2597 O 0.31453 0.10892 0.53344 0.0
O2598 O 0.28697 0.07905 0.5822 0.0
O2599 O 0.27406 0.12427 0.58896 0.0
O2600 O 0.33283 0.09925 0.61548 0.0
O2601 O 0.35085 0.05824 0.5996 0.0
C2602 C 0.32271 0.08667 0.51922 0.0
C2603 C 0.34661 0.07578 0.62008 0.0
C2604 C 0.43107 0.34661 0.62008 0.0
C2605 C 0.42019 0.32272 0.51922 0.0
O2606 O 0.44862 0.35085 0.5996 0.0
Zn2607 Zn 0.42628 0.3319 0.57035 0.0
O2608 O 0.4076 0.33282 0.61548 0.0
Zn2609 Zn 0.38596 0.3138 0.57871 0.0
O2610 O 0.38259 0.27405 0.58895 0.0
O2611 O 0.42781 0.28697 0.5822 0.0
O2612 O 0.39794 0.31453 0.53344 0.0
O2613 O 0.44163 0.33316 0.53243 0.0
O2614 O 0.38982 0.36117 0.56824 0.0
O2615 O 0.35101 0.33607 0.57953 0.0
C2616 C 0.4091 0.26775 0.58866 0.0
C2617 C 0.36261 0.35986 0.57273 0.0
C2618 C 0.16025 0.43107 0.62008 0.0
C2619 C 0.18415 0.42019 0.51922 0.0
O2620 O 0.15601 0.44862 0.5996 0.0
Zn2621 Zn 0.17496 0.42628 0.57035 0.0
O2622 O 0.17404 0.4076 0.61548 0.0
Zn2623 Zn 0.19306 0.38596 0.57871 0.0
O2624 O 0.23281 0.38259 0.58895 0.0
O2625 O 0.21989 0.42781 0.5822 0.0
O2626 O 0.19233 0.39794 0.53344 0.0
O2627 O 0.1737 0.44163 0.53243 0.0
O2628 O 0.14569 0.38982 0.56823 0.0
O2629 O 0.17079 0.35101 0.57953 0.0
C2630 C 0.23911 0.4091 0.58866 0.0
C2631 C 0.147 0.36261 0.57273 0.0
C2632 C 0.07579 0.66025 0.12008 0.0
C2633 C 0.08667 0.68415 0.01922 0.0
O2634 O 0.05824 0.65601 0.0996 0.0
Zn2635 Zn 0.08059 0.67496 0.07035 0.0
O2636 O 0.09926 0.67404 0.11548 0.0
Zn2637 Zn 0.1209 0.69306 0.07871 0.0
O2638 O 0.12427 0.73281 0.08896 0.0
O2639 O 0.07905 0.71989 0.0822 0.0
O2640 O 0.10892 0.69233 0.03344 0.0
O2641 O 0.06523 0.6737 0.03243 0.0
O2642 O 0.11704 0.64569 0.06824 0.0
O2643 O 0.15585 0.67079 0.07953 0.0
C2644 C 0.09776 0.73911 0.08866 0.0
C2645 C 0.14426 0.647 0.07273 0.0
C2646 C 0.66025 0.57579 0.88678 0.0
C2647 C 0.68415 0.58667 0.98765 0.0
O2648 O 0.65601 0.55824 0.90726 0.0
Zn2649 Zn 0.67496 0.58059 0.93651 0.0
O2650 O 0.67404 0.59926 0.89138 0.0
Zn2651 Zn 0.69306 0.6209 0.92815 0.0
O2652 O 0.73281 0.62427 0.91791 0.0
O2653 O 0.71989 0.57905 0.92466 0.0
O2654 O 0.69233 0.60892 0.97342 0.0
O2655 O 0.6737 0.56523 0.97443 0.0
O2656 O 0.64569 0.61704 0.93863 0.0
O2657 O 0.67079 0.65585 0.92733 0.0
C2658 C 0.73911 0.59776 0.9182 0.0
C2659 C 0.647 0.64425 0.93413 0.0
C2660 C 0.43107 0.66025 0.38678 0.0
C2661 C 0.42019 0.68415 0.48765 0.0
O2662 O 0.44862 0.65601 0.40726 0.0
Zn2663 Zn 0.42628 0.67496 0.43651 0.0
O2664 O 0.4076 0.67404 0.39138 0.0
Zn2665 Zn 0.38596 0.69306 0.42815 0.0
O2666 O 0.38259 0.73281 0.41791 0.0
O2667 O 0.42781 0.71989 0.42466 0.0
O2668 O 0.39794 0.69233 0.47342 0.0
O2669 O 0.44163 0.6737 0.47443 0.0
O2670 O 0.38982 0.64569 0.43863 0.0
O2671 O 0.35101 0.67079 0.42733 0.0
C2672 C 0.4091 0.73911 0.4182 0.0
C2673 C 0.36261 0.647 0.43413 0.0
C2674 C 0.07579 0.84661 0.38678 0.0
C2675 C 0.08667 0.82271 0.48765 0.0
O2676 O 0.05824 0.85085 0.40726 0.0
Zn2677 Zn 0.08059 0.8319 0.43651 0.0
O2678 O 0.09926 0.83282 0.39138 0.0
Zn2679 Zn 0.1209 0.8138 0.42815 0.0
O2680 O 0.12427 0.77405 0.41791 0.0
O2681 O 0.07905 0.78697 0.42466 0.0
O2682 O 0.10892 0.81453 0.47342 0.0
O2683 O 0.06523 0.83316 0.47443 0.0
O2684 O 0.11704 0.86117 0.43863 0.0
O2685 O 0.15585 0.83607 0.42733 0.0
C2686 C 0.09776 0.76775 0.4182 0.0
C2687 C 0.14426 0.85986 0.43413 0.0
loop_
_geom_bond_atom_site_label_1
_geom_bond_atom_site_label_2
_geom_bond_distance
_geom_bond_site_symmetry_2
_ccdc_geom_bond_type
C0 O2 1.247 . S
C0 O4 1.258 . S
C1 O8 1.247 . S
C1 O9 1.258 . S
O2 C0 1.247 . S
O2 Zn3 2.028 . S
Zn3 O2 2.028 . S
Zn3 O7 2.035 . S
Zn3 O9 2.035 . S
Zn3 O10 2.028 . S
O4 C0 1.258 . S
O4 Zn5 2.035 . S
Zn5 O4 2.035 . S
Zn5 O6 2.028 . S
Zn5 O8 2.028 . S
Zn5 O11 2.035 . S
O6 Zn5 2.028 . S
O6 C12 1.247 . S
O7 Zn3 2.035 . S
O7 C12 1.258 . S
O8 C1 1.247 . S
O8 Zn5 2.028 . S
O9 C1 1.258 . S
O9 Zn3 2.035 . S
O10 Zn3 2.028 . S
O10 C13 1.247 . S
O11 Zn5 2.035 . S
O11 C13 1.258 . S
C12 O6 1.247 . S
C12 O7 1.258 . S
C13 O10 1.247 . S
C13 O11 1.258 . S
C14 O16 1.247 . S
C14 O18 1.258 . S
C15 O22 1.247 . S
C15 O23 1.258 . S
O16 C14 1.247 . S
O16 Zn17 2.028 . S
Zn17 O16 2.028 . S
Zn17 O21 2.035 . S
Zn17 O23 2.035 . S
Zn17 O24 2.028 . S
O18 C14 1.258 . S
O18 Zn19 2.035 . S
Zn19 O18 2.035 . S
Zn19 O20 2.028 . S
Zn19 O22 2.028 . S
Zn19 O25 2.035 . S
O20 Zn19 2.028 . S
O20 C26 1.247 . S
O21 Zn17 2.035 . S
O21 C26 1.258 . S
O22 C15 1.247 . S
O22 Zn19 2.028 . S
O23 C15 1.258 . S
O23 Zn17 2.035 . S
O24 Zn17 2.028 . S
O24 C27 1.247 . S
O25 Zn19 2.035 . S
O25 C27 1.258 . S
C26 O20 1.247 . S
C26 O21 1.258 . S
C27 O24 1.247 . S
C27 O25 1.258 . S
C28 O30 1.247 . S
C28 O32 1.258 . S
C29 O36 1.247 . S
C29 O37 1.258 . S
O30 C28 1.247 . S
O30 Zn31 2.028 . S
Zn31 O30 2.028 . S
Zn31 O35 2.035 . S
Zn31 O37 2.035 . S
Zn31 O38 2.028 . S
O32 C28 1.258 . S
O32 Zn33 2.035 . S
Zn33 O32 2.035 . S
Zn33 O34 2.028 . S
Zn33 O36 2.028 . S
Zn33 O39 2.035 . S
O34 Zn33 2.028 . S
O34 C40 1.247 . S
O35 Zn31 2.035 . S
O35 C40 1.258 . S
O36 C29 1.247 . S
O36 Zn33 2.028 . S
O37 C29 1.258 . S
O37 Zn31 2.035 . S
O38 Zn31 2.028 . S
O38 C41 1.247 . S
O39 Zn33 2.035 . S
O39 C41 1.258 . S
C40 O34 1.247 . S
C40 O35 1.258 . S
C41 O38 1.247 . S
C41 O39 1.258 . S
C42 O44 1.247 . S
C42 O46 1.258 . S
C43 O50 1.247 . S
C43 O51 1.258 . S
O44 C42 1.247 . S
O44 Zn45 2.028 . S
Zn45 O44 2.028 . S
Zn45 O49 2.035 . S
Zn45 O51 2.035 . S
Zn45 O52 2.028 . S
O46 C42 1.258 . S
O46 Zn47 2.035 . S
Zn47 O46 2.035 . S
Zn47 O48 2.028 . S
Zn47 O50 2.028 . S
Zn47 O53 2.035 . S
O48 Zn47 2.028 . S
O48 C54 1.247 . S
O49 Zn45 2.035 . S
O49 C54 1.258 . S
O50 C43 1.247 . S
O50 Zn47 2.028 . S
O51 C43 1.258 . S
O51 Zn45 2.035 . S
O52 Zn45 2.028 . S
O52 C55 1.247 . S
O53 Zn47 2.035 . S
O53 C55 1.258 . S
C54 O48 1.247 . S
C54 O49 1.258 . S
C55 O52 1.247 . S
C55 O53 1.258 . S
C56 O58 1.247 . S
C56 O60 1.258 . S
C57 O64 1.247 . S
C57 O65 1.258 . S
O58 C56 1.247 . S
O58 Zn59 2.028 . S
Zn59 O58 2.028 . S
Zn59 O63 2.035 . S
Zn59 O65 2.035 . S
Zn59 O66 2.028 . S
O60 C56 1.258 . S
O60 Zn61 2.035 . S
Zn61 O60 2.035 . S
Zn61 O62 2.028 . S
Zn61 O64 2.028 . S
Zn61 O67 2.035 . S
O62 Zn61 2.028 . S
O62 C68 1.247 . S
O63 Zn59 2.035 . S
O63 C68 1.258 . S
O64 C57 1.247 . S
O64 Zn61 2.028 . S
O65 C57 1.258 . S
O65 Zn59 2.035 . S
O66 Zn59 2.028 . S
O66 C69 1.247 . S
O67 Zn61 2.035 . S
O67 C69 1.258 . S
C68 O62 1.247 . S
C68 O63 1.258 . S
C69 O66 1.247 . S
C69 O67 1.258 . S
C70 O72 1.247 . S
C70 O74 1.258 . S
C71 O78 1.247 . S
C71 O79 1.258 . S
O72 C70 1.247 . S
O72 Zn73 2.028 . S
Zn73 O72 2.028 . S
Zn73 O77 2.035 . S
Zn73 O79 2.035 . S
Zn73 O80 2.028 . S
O74 C70 1.258 . S
O74 Zn75 2.035 . S
Zn75 O74 2.035 . S
Zn75 O76 2.028 . S
Zn75 O78 2.028 . S
Zn75 O81 2.035 . S
O76 Zn75 2.028 . S
O76 C82 1.247 . S
O77 Zn73 2.035 . S
O77 C82 1.258 . S
O78 C71 1.247 . S
O78 Zn75 2.028 . S
O79 C71 1.258 . S
O79 Zn73 2.035 . S
O80 Zn73 2.028 . S
O80 C83 1.247 . S
O81 Zn75 2.035 . S
O81 C83 1.258 . S
C82 O76 1.247 . S
C82 O77 1.258 . S
C83 O80 1.247 . S
C83 O81 1.258 . S
C84 O86 1.247 . S
C84 O88 1.258 . S
C85 O92 1.247 . S
C85 O93 1.258 . S
O86 C84 1.247 . S
O86 Zn87 2.028 . S
Zn87 O86 2.028 . S
Zn87 O91 2.035 . S
Zn87 O93 2.035 . S
Zn87 O94 2.028 . S
O88 C84 1.258 . S
O88 Zn89 2.035 . S
Zn89 O88 2.035 . S
Zn89 O90 2.028 . S
Zn89 O92 2.028 . S
Zn89 O95 2.035 . S
O90 Zn89 2.028 . S
O90 C96 1.247 . S
O91 Zn87 2.035 . S
O91 C96 1.258 . S
O92 C85 1.247 . S
O92 Zn89 2.028 . S
O93 C85 1.258 . S
O93 Zn87 2.035 . S
O94 Zn87 2.028 . S
O94 C97 1.247 . S
O95 Zn89 2.035 . S
O95 C97 1.258 . S
C96 O90 1.247 . S
C96 O91 1.258 . S
C97 O94 1.247 . S
C97 O95 1.258 . S
C98 O100 1.247 . S
C98 O102 1.258 . S
C99 O106 1.247 . S
C99 O107 1.258 . S
O100 C98 1.247 . S
O100 Zn101 2.028 . S
Zn101 O100 2.028 . S
Zn101 O105 2.035 . S
Zn101 O107 2.035 . S
Zn101 O108 2.028 . S
O102 C98 1.258 . S
O102 Zn103 2.035 . S
Zn103 O102 2.035 . S
Zn103 O104 2.028 . S
Zn103 O106 2.028 . S
Zn103 O109 2.035 . S
O104 Zn103 2.028 . S
O104 C110 1.247 . S
O105 Zn101 2.035 . S
O105 C110 1.258 . S
O106 C99 1.247 . S
O106 Zn103 2.028 . S
O107 C99 1.258 . S
O107 Zn101 2.035 . S
O108 Zn101 2.028 . S
O108 C111 1.247 . S
O109 Zn103 2.035 . S
O109 C111 1.258 . S
C110 O104 1.247 . S
C110 O105 1.258 . S
C111 O108 1.247 . S
C111 O109 1.258 . S
C112 O114 1.247 . S
C112 O116 1.258 . S
C113 O120 1.247 . S
C113 O121 1.258 . S
O114 C112 1.247 . S
O114 Zn115 2.028 . S
Zn115 O114 2.028 . S
Zn115 O119 2.035 . S
Zn115 O121 2.035 . S
Zn115 O122 2.028 . S
O116 C112 1.258 . S
O116 Zn117 2.035 . S
Zn117 O116 2.035 . S
Zn117 O118 2.028 . S
Zn117 O120 2.028 . S
Zn117 O123 2.035 . S
O118 Zn117 2.028 . S
O118 C124 1.247 . S
O119 Zn115 2.035 . S
O119 C124 1.258 . S
O120 C113 1.247 . S
O120 Zn117 2.028 . S
O121 C113 1.258 . S
O121 Zn115 2.035 . S
O122 Zn115 2.028 . S
O122 C125 1.247 . S
O123 Zn117 2.035 . S
O123 C125 1.258 . S
C124 O118 1.247 . S
C124 O119 1.258 . S
C125 O122 1.247 . S
C125 O123 1.258 . S
C126 O128 1.247 . S
C126 O130 1.258 . S
C127 O134 1.247 . S
C127 O135 1.258 . S
O128 C126 1.247 . S
O128 Zn129 2.028 . S
Zn129 O128 2.028 . S
Zn129 O133 2.035 . S
Zn129 O135 2.035 . S
Zn129 O136 2.028 . S
O130 C126 1.258 . S
O130 Zn131 2.035 . S
Zn131 O130 2.035 . S
Zn131 O132 2.028 . S
Zn131 O134 2.028 . S
Zn131 O137 2.035 . S
O132 Zn131 2.028 . S
O132 C138 1.247 . S
O133 Zn129 2.035 . S
O133 C138 1.258 . S
O134 C127 1.247 . S
O134 Zn131 2.028 . S
O135 C127 1.258 . S
O135 Zn129 2.035 . S
O136 Zn129 2.028 . S
O136 C139 1.247 . S
O137 Zn131 2.035 . S
O137 C139 1.258 . S
C138 O132 1.247 . S
C138 O133 1.258 . S
C139 O136 1.247 . S
C139 O137 1.258 . S
C140 O142 1.247 . S
C140 O144 1.258 . S
C141 O148 1.247 . S
C141 O149 1.258 . S
O142 C140 1.247 . S
O142 Zn143 2.028 . S
Zn143 O142 2.028 . S
Zn143 O147 2.035 . S
Zn143 O149 2.035 . S
Zn143 O150 2.028 . S
O144 C140 1.258 . S
O144 Zn145 2.035 . S
Zn145 O144 2.035 . S
Zn145 O146 2.028 . S
Zn145 O148 2.028 . S
Zn145 O151 2.035 . S
O146 Zn145 2.028 . S
O146 C152 1.247 . S
O147 Zn143 2.035 . S
O147 C152 1.258 . S
O148 C141 1.247 . S
O148 Zn145 2.028 . S
O149 C141 1.258 . S
O149 Zn143 2.035 . S
O150 Zn143 2.028 . S
O150 C153 1.247 . S
O151 Zn145 2.035 . S
O151 C153 1.258 . S
C152 O146 1.247 . S
C152 O147 1.258 . S
C153 O150 1.247 . S
C153 O151 1.258 . S
C154 O156 1.247 . S
C154 O158 1.258 . S
C155 O162 1.247 . S
C155 O163 1.258 . S
O156 C154 1.247 . S
O156 Zn157 2.028 . S
Zn157 O156 2.028 . S
Zn157 O161 2.035 . S
Zn157 O163 2.035 . S
Zn157 O164 2.028 . S
O158 C154 1.258 . S
O158 Zn159 2.035 . S
Zn159 O158 2.035 . S
Zn159 O160 2.028 . S
Zn159 O162 2.028 . S
Zn159 O165 2.035 . S
O160 Zn159 2.028 . S
O160 C166 1.247 . S
O161 Zn157 2.035 . S
O161 C166 1.258 . S
O162 C155 1.247 . S
O162 Zn159 2.028 . S
O163 C155 1.258 . S
O163 Zn157 2.035 . S
O164 Zn157 2.028 . S
O164 C167 1.247 . S
O165 Zn159 2.035 . S
O165 C167 1.258 . S
C166 O160 1.247 . S
C166 O161 1.258 . S
C167 O164 1.247 . S
C167 O165 1.258 . S
C168 O170 1.247 . S
C168 O172 1.258 . S
C169 O176 1.247 . S
C169 O177 1.258 . S
O170 C168 1.247 . S
O170 Zn171 2.028 . S
Zn171 O170 2.028 . S
Zn171 O175 2.035 . S
Zn171 O177 2.035 . S
Zn171 O178 2.028 . S
O172 C168 1.258 . S
O172 Zn173 2.035 . S
Zn173 O172 2.035 . S
Zn173 O174 2.028 . S
Zn173 O176 2.028 . S
Zn173 O179 2.035 . S
O174 Zn173 2.028 . S
O174 C180 1.247 . S
O175 Zn171 2.035 . S
O175 C180 1.258 . S
O176 C169 1.247 . S
O176 Zn173 2.028 . S
O177 C169 1.258 . S
O177 Zn171 2.035 . S
O178 Zn171 2.028 . S
O178 C181 1.247 . S
O179 Zn173 2.035 . S
O179 C181 1.258 . S
C180 O174 1.247 . S
C180 O175 1.258 . S
C181 O178 1.247 . S
C181 O179 1.258 . S
C182 O184 1.247 . S
C182 O186 1.258 . S
C183 O190 1.247 . S
C183 O191 1.258 . S
O184 C182 1.247 . S
O184 Zn185 2.028 . S
Zn185 O184 2.028 . S
Zn185 O189 2.035 . S
Zn185 O191 2.035 . S
Zn185 O192 2.028 . S
O186 C182 1.258 . S
O186 Zn187 2.035 . S
Zn187 O186 2.035 . S
Zn187 O188 2.028 . S
Zn187 O190 2.028 . S
Zn187 O193 2.035 . S
O188 Zn187 2.028 . S
O188 C194 1.247 . S
O189 Zn185 2.035 . S
O189 C194 1.258 . S
O190 C183 1.247 . S
O190 Zn187 2.028 . S
O191 C183 1.258 . S
O191 Zn185 2.035 . S
O192 Zn185 2.028 . S
O192 C195 1.247 . S
O193 Zn187 2.035 . S
O193 C195 1.258 . S
C194 O188 1.247 . S
C194 O189 1.258 . S
C195 O192 1.247 . S
C195 O193 1.258 . S
C196 O198 1.247 . S
C196 O200 1.258 . S
C197 O204 1.247 . S
C197 O205 1.258 . S
O198 C196 1.247 . S
O198 Zn199 2.028 . S
Zn199 O198 2.028 . S
Zn199 O203 2.035 . S
Zn199 O205 2.035 . S
Zn199 O206 2.028 . S
O200 C196 1.258 . S
O200 Zn201 2.035 . S
Zn201 O200 2.035 . S
Zn201 O202 2.028 . S
Zn201 O204 2.028 . S
Zn201 O207 2.035 . S
O202 Zn201 2.028 . S
O202 C208 1.247 . S
O203 Zn199 2.035 . S
O203 C208 1.258 . S
O204 C197 1.247 . S
O204 Zn201 2.028 . S
O205 C197 1.258 . S
O205 Zn199 2.035 . S
O206 Zn199 2.028 . S
O206 C209 1.247 . S
O207 Zn201 2.035 . S
O207 C209 1.258 . S
C208 O202 1.247 . S
C208 O203 1.258 . S
C209 O206 1.247 . S
C209 O207 1.258 . S
C210 O212 1.247 . S
C210 O214 1.258 . S
C211 O218 1.247 . S
C211 O219 1.258 . S
O212 C210 1.247 . S
O212 Zn213 2.028 . S
Zn213 O212 2.028 . S
Zn213 O217 2.035 . S
Zn213 O219 2.035 . S
Zn213 O220 2.028 . S
O214 C210 1.258 . S
O214 Zn215 2.035 . S
Zn215 O214 2.035 . S
Zn215 O216 2.028 . S
Zn215 O218 2.028 . S
Zn215 O221 2.035 . S
O216 Zn215 2.028 . S
O216 C222 1.247 . S
O217 Zn213 2.035 . S
O217 C222 1.258 . S
O218 C211 1.247 . S
O218 Zn215 2.028 . S
O219 C211 1.258 . S
O219 Zn213 2.035 . S
O220 Zn213 2.028 . S
O220 C223 1.247 . S
O221 Zn215 2.035 . S
O221 C223 1.258 . S
C222 O216 1.247 . S
C222 O217 1.258 . S
C223 O220 1.247 . S
C223 O221 1.258 . S
C224 O226 1.247 . S
C224 O228 1.258 . S
C225 O232 1.247 . S
C225 O233 1.258 . S
O226 C224 1.247 . S
O226 Zn227 2.028 . S
Zn227 O226 2.028 . S
Zn227 O231 2.035 . S
Zn227 O233 2.035 . S
Zn227 O234 2.028 . S
O228 C224 1.258 . S
O228 Zn229 2.035 . S
Zn229 O228 2.035 . S
Zn229 O230 2.028 . S
Zn229 O232 2.028 . S
Zn229 O235 2.035 . S
O230 Zn229 2.028 . S
O230 C236 1.247 . S
O231 Zn227 2.035 . S
O231 C236 1.258 . S
O232 C225 1.247 . S
O232 Zn229 2.028 . S
O233 C225 1.258 . S
O233 Zn227 2.035 . S
O234 Zn227 2.028 . S
O234 C237 1.247 . S
O235 Zn229 2.035 . S
O235 C237 1.258 . S
C236 O230 1.247 . S
C236 O231 1.258 . S
C237 O234 1.247 . S
C237 O235 1.258 . S
C238 O240 1.247 . S
C238 O242 1.258 . S
C239 O246 1.247 . S
C239 O247 1.258 . S
O240 C238 1.247 . S
O240 Zn241 2.028 . S
Zn241 O240 2.028 . S
Zn241 O245 2.035 . S
Zn241 O247 2.035 . S
Zn241 O248 2.028 . S
O242 C238 1.258 . S
O242 Zn243 2.035 . S
Zn243 O242 2.035 . S
Zn243 O244 2.028 . S
Zn243 O246 2.028 . S
Zn243 O249 2.035 . S
O244 Zn243 2.028 . S
O244 C250 1.247 . S
O245 Zn241 2.035 . S
O245 C250 1.258 . S
O246 C239 1.247 . S
O246 Zn243 2.028 . S
O247 C239 1.258 . S
O247 Zn241 2.035 . S
O248 Zn241 2.028 . S
O248 C251 1.247 . S
O249 Zn243 2.035 . S
O249 C251 1.258 . S
C250 O244 1.247 . S
C250 O245 1.258 . S
C251 O248 1.247 . S
C251 O249 1.258 . S
C252 O254 1.247 . S
C252 O256 1.258 . S
C253 O260 1.247 . S
C253 O261 1.258 . S
O254 C252 1.247 . S
O254 Zn255 2.028 . S
Zn255 O254 2.028 . S
Zn255 O259 2.035 . S
Zn255 O261 2.035 . S
Zn255 O262 2.028 . S
O256 C252 1.258 . S
O256 Zn257 2.035 . S
Zn257 O256 2.035 . S
Zn257 O258 2.028 . S
Zn257 O260 2.028 . S
Zn257 O263 2.035 . S
O258 Zn257 2.028 . S
O258 C264 1.247 . S
O259 Zn255 2.035 . S
O259 C264 1.258 . S
O260 C253 1.247 . S
O260 Zn257 2.028 . S
O261 C253 1.258 . S
O261 Zn255 2.035 . S
O262 Zn255 2.028 . S
O262 C265 1.247 . S
O263 Zn257 2.035 . S
O263 C265 1.258 . S
C264 O258 1.247 . S
C264 O259 1.258 . S
C265 O262 1.247 . S
C265 O263 1.258 . S
C266 O268 1.247 . S
C266 O270 1.258 . S
C267 O274 1.247 . S
C267 O275 1.258 . S
O268 C266 1.247 . S
O268 Zn269 2.028 . S
Zn269 O268 2.028 . S
Zn269 O273 2.035 . S
Zn269 O275 2.035 . S
Zn269 O276 2.028 . S
O270 C266 1.258 . S
O270 Zn271 2.035 . S
Zn271 O270 2.035 . S
Zn271 O272 2.028 . S
Zn271 O274 2.028 . S
Zn271 O277 2.035 . S
O272 Zn271 2.028 . S
O272 C278 1.247 . S
O273 Zn269 2.035 . S
O273 C278 1.258 . S
O274 C267 1.247 . S
O274 Zn271 2.028 . S
O275 C267 1.258 . S
O275 Zn269 2.035 . S
O276 Zn269 2.028 . S
O276 C279 1.247 . S
O277 Zn271 2.035 . S
O277 C279 1.258 . S
C278 O272 1.247 . S
C278 O273 1.258 . S
C279 O276 1.247 . S
C279 O277 1.258 . S
C280 O282 1.247 . S
C280 O284 1.258 . S
C281 O288 1.247 . S
C281 O289 1.258 . S
O282 C280 1.247 . S
O282 Zn283 2.028 . S
Zn283 O282 2.028 . S
Zn283 O287 2.035 . S
Zn283 O289 2.035 . S
Zn283 O290 2.028 . S
O284 C280 1.258 . S
O284 Zn285 2.035 . S
Zn285 O284 2.035 . S
Zn285 O286 2.028 . S
Zn285 O288 2.028 . S
Zn285 O291 2.035 . S
O286 Zn285 2.028 . S
O286 C292 1.247 . S
O287 Zn283 2.035 . S
O287 C292 1.258 . S
O288 C281 1.247 . S
O288 Zn285 2.028 . S
O289 C281 1.258 . S
O289 Zn283 2.035 . S
O290 Zn283 2.028 . S
O290 C293 1.247 . S
O291 Zn285 2.035 . S
O291 C293 1.258 . S
C292 O286 1.247 . S
C292 O287 1.258 . S
C293 O290 1.247 . S
C293 O291 1.258 . S
C294 O296 1.247 . S
C294 O298 1.258 . S
C295 O302 1.247 . S
C295 O303 1.258 . S
O296 C294 1.247 . S
O296 Zn297 2.028 . S
Zn297 O296 2.028 . S
Zn297 O301 2.035 . S
Zn297 O303 2.035 . S
Zn297 O304 2.028 . S
O298 C294 1.258 . S
O298 Zn299 2.035 . S
Zn299 O298 2.035 . S
Zn299 O300 2.028 . S
Zn299 O302 2.028 . S
Zn299 O305 2.035 . S
O300 Zn299 2.028 . S
O300 C306 1.247 . S
O301 Zn297 2.035 . S
O301 C306 1.258 . S
O302 C295 1.247 . S
O302 Zn299 2.028 . S
O303 C295 1.258 . S
O303 Zn297 2.035 . S
O304 Zn297 2.028 . S
O304 C307 1.247 . S
O305 Zn299 2.035 . S
O305 C307 1.258 . S
C306 O300 1.247 . S
C306 O301 1.258 . S
C307 O304 1.247 . S
C307 O305 1.258 . S
C308 O310 1.247 . S
C308 O312 1.258 . S
C309 O316 1.247 . S
C309 O317 1.258 . S
O310 C308 1.247 . S
O310 Zn311 2.028 . S
Zn311 O310 2.028 . S
Zn311 O315 2.035 . S
Zn311 O317 2.035 . S
Zn311 O318 2.028 . S
O312 C308 1.258 . S
O312 Zn313 2.035 . S
Zn313 O312 2.035 . S
Zn313 O314 2.028 . S
Zn313 O316 2.028 . S
Zn313 O319 2.035 . S
O314 Zn313 2.028 . S
O314 C320 1.247 . S
O315 Zn311 2.035 . S
O315 C320 1.258 . S
O316 C309 1.247 . S
O316 Zn313 2.028 . S
O317 C309 1.258 . S
O317 Zn311 2.035 . S
O318 Zn311 2.028 . S
O318 C321 1.247 . S
O319 Zn313 2.035 . S
O319 C321 1.258 . S
C320 O314 1.247 . S
C320 O315 1.258 . S
C321 O318 1.247 . S
C321 O319 1.258 . S
C322 O324 1.247 . S
C322 O326 1.258 . S
C323 O330 1.247 . S
C323 O331 1.258 . S
O324 C322 1.247 . S
O324 Zn325 2.028 . S
Zn325 O324 2.028 . S
Zn325 O329 2.035 . S
Zn325 O331 2.035 . S
Zn325 O332 2.028 . S
O326 C322 1.258 . S
O326 Zn327 2.035 . S
Zn327 O326 2.035 . S
Zn327 O328 2.028 . S
Zn327 O330 2.028 . S
Zn327 O333 2.035 . S
O328 Zn327 2.028 . S
O328 C334 1.247 . S
O329 Zn325 2.035 . S
O329 C334 1.258 . S
O330 C323 1.247 . S
O330 Zn327 2.028 . S
O331 C323 1.258 . S
O331 Zn325 2.035 . S
O332 Zn325 2.028 . S
O332 C335 1.247 . S
O333 Zn327 2.035 . S
O333 C335 1.258 . S
C334 O328 1.247 . S
C334 O329 1.258 . S
C335 O332 1.247 . S
C335 O333 1.258 . S
C336 O338 1.247 . S
C336 O340 1.258 . S
C337 O344 1.247 . S
C337 O345 1.258 . S
O338 C336 1.247 . S
O338 Zn339 2.028 . S
Zn339 O338 2.028 . S
Zn339 O343 2.035 . S
Zn339 O345 2.035 . S
Zn339 O346 2.028 . S
O340 C336 1.258 . S
O340 Zn341 2.035 . S
Zn341 O340 2.035 . S
Zn341 O342 2.028 . S
Zn341 O344 2.028 . S
Zn341 O347 2.035 . S
O342 Zn341 2.028 . S
O342 C348 1.247 . S
O343 Zn339 2.035 . S
O343 C348 1.258 . S
O344 C337 1.247 . S
O344 Zn341 2.028 . S
O345 C337 1.258 . S
O345 Zn339 2.035 . S
O346 Zn339 2.028 . S
O346 C349 1.247 . S
O347 Zn341 2.035 . S
O347 C349 1.258 . S
C348 O342 1.247 . S
C348 O343 1.258 . S
C349 O346 1.247 . S
C349 O347 1.258 . S
C350 O352 1.247 . S
C350 O354 1.258 . S
C351 O358 1.247 . S
C351 O359 1.258 . S
O352 C350 1.247 . S
O352 Zn353 2.028 . S
Zn353 O352 2.028 . S
Zn353 O357 2.035 . S
Zn353 O359 2.035 . S
Zn353 O360 2.028 . S
O354 C350 1.258 . S
O354 Zn355 2.035 . S
Zn355 O354 2.035 . S
Zn355 O356 2.028 . S
Zn355 O358 2.028 . S
Zn355 O361 2.035 . S
O356 Zn355 2.028 . S
O356 C362 1.247 . S
O357 Zn353 2.035 . S
O357 C362 1.258 . S
O358 C351 1.247 . S
O358 Zn355 2.028 . S
O359 C351 1.258 . S
O359 Zn353 2.035 . S
O360 Zn353 2.028 . S
O360 C363 1.247 . S
O361 Zn355 2.035 . S
O361 C363 1.258 . S
C362 O356 1.247 . S
C362 O357 1.258 . S
C363 O360 1.247 . S
C363 O361 1.258 . S
C364 O366 1.247 . S
C364 O368 1.258 . S
C365 O372 1.247 . S
C365 O373 1.258 . S
O366 C364 1.247 . S
O366 Zn367 2.028 . S
Zn367 O366 2.028 . S
Zn367 O371 2.035 . S
Zn367 O373 2.035 . S
Zn367 O374 2.028 . S
O368 C364 1.258 . S
O368 Zn369 2.035 . S
Zn369 O368 2.035 . S
Zn369 O370 2.028 . S
Zn369 O372 2.028 . S
Zn369 O375 2.035 . S
O370 Zn369 2.028 . S
O370 C376 1.247 . S
O371 Zn367 2.035 . S
O371 C376 1.258 . S
O372 C365 1.247 . S
O372 Zn369 2.028 . S
O373 C365 1.258 . S
O373 Zn367 2.035 . S
O374 Zn367 2.028 . S
O374 C377 1.247 . S
O375 Zn369 2.035 . S
O375 C377 1.258 . S
C376 O370 1.247 . S
C376 O371 1.258 . S
C377 O374 1.247 . S
C377 O375 1.258 . S
C378 O380 1.247 . S
C378 O382 1.258 . S
C379 O386 1.247 . S
C379 O387 1.258 . S
O380 C378 1.247 . S
O380 Zn381 2.028 . S
Zn381 O380 2.028 . S
Zn381 O385 2.035 . S
Zn381 O387 2.035 . S
Zn381 O388 2.028 . S
O382 C378 1.258 . S
O382 Zn383 2.035 . S
Zn383 O382 2.035 . S
Zn383 O384 2.028 . S
Zn383 O386 2.028 . S
Zn383 O389 2.035 . S
O384 Zn383 2.028 . S
O384 C390 1.247 . S
O385 Zn381 2.035 . S
O385 C390 1.258 . S
O386 C379 1.247 . S
O386 Zn383 2.028 . S
O387 C379 1.258 . S
O387 Zn381 2.035 . S
O388 Zn381 2.028 . S
O388 C391 1.247 . S
O389 Zn383 2.035 . S
O389 C391 1.258 . S
C390 O384 1.247 . S
C390 O385 1.258 . S
C391 O388 1.247 . S
C391 O389 1.258 . S
C392 O394 1.247 . S
C392 O396 1.258 . S
C393 O400 1.247 . S
C393 O401 1.258 . S
O394 C392 1.247 . S
O394 Zn395 2.028 . S
Zn395 O394 2.028 . S
Zn395 O399 2.035 . S
Zn395 O401 2.035 . S
Zn395 O402 2.028 . S
O396 C392 1.258 . S
O396 Zn397 2.035 . S
Zn397 O396 2.035 . S
Zn397 O398 2.028 . S
Zn397 O400 2.028 . S
Zn397 O403 2.035 . S
O398 Zn397 2.028 . S
O398 C404 1.247 . S
O399 Zn395 2.035 . S
O399 C404 1.258 . S
O400 C393 1.247 . S
O400 Zn397 2.028 . S
O401 C393 1.258 . S
O401 Zn395 2.035 . S
O402 Zn395 2.028 . S
O402 C405 1.247 . S
O403 Zn397 2.035 . S
O403 C405 1.258 . S
C404 O398 1.247 . S
C404 O399 1.258 . S
C405 O402 1.247 . S
C405 O403 1.258 . S
C406 O408 1.247 . S
C406 O410 1.258 . S
C407 O414 1.247 . S
C407 O415 1.258 . S
O408 C406 1.247 . S
O408 Zn409 2.028 . S
Zn409 O408 2.028 . S
Zn409 O413 2.035 . S
Zn409 O415 2.035 . S
Zn409 O416 2.028 . S
O410 C406 1.258 . S
O410 Zn411 2.035 . S
Zn411 O410 2.035 . S
Zn411 O412 2.028 . S
Zn411 O414 2.028 . S
Zn411 O417 2.035 . S
O412 Zn411 2.028 . S
O412 C418 1.247 . S
O413 Zn409 2.035 . S
O413 C418 1.258 . S
O414 C407 1.247 . S
O414 Zn411 2.028 . S
O415 C407 1.258 . S
O415 Zn409 2.035 . S
O416 Zn409 2.028 . S
O416 C419 1.247 . S
O417 Zn411 2.035 . S
O417 C419 1.258 . S
C418 O412 1.247 . S
C418 O413 1.258 . S
C419 O416 1.247 . S
C419 O417 1.258 . S
C420 O422 1.247 . S
C420 O424 1.258 . S
C421 O428 1.247 . S
C421 O429 1.258 . S
O422 C420 1.247 . S
O422 Zn423 2.028 . S
Zn423 O422 2.028 . S
Zn423 O427 2.035 . S
Zn423 O429 2.035 . S
Zn423 O430 2.028 . S
O424 C420 1.258 . S
O424 Zn425 2.035 . S
Zn425 O424 2.035 . S
Zn425 O426 2.028 . S
Zn425 O428 2.028 . S
Zn425 O431 2.035 . S
O426 Zn425 2.028 . S
O426 C432 1.247 . S
O427 Zn423 2.035 . S
O427 C432 1.258 . S
O428 C421 1.247 . S
O428 Zn425 2.028 . S
O429 C421 1.258 . S
O429 Zn423 2.035 . S
O430 Zn423 2.028 . S
O430 C433 1.247 . S
O431 Zn425 2.035 . S
O431 C433 1.258 . S
C432 O426 1.247 . S
C432 O427 1.258 . S
C433 O430 1.247 . S
C433 O431 1.258 . S
C434 O436 1.247 . S
C434 O438 1.258 . S
C435 O442 1.247 . S
C435 O443 1.258 . S
O436 C434 1.247 . S
O436 Zn437 2.028 . S
Zn437 O436 2.028 . S
Zn437 O441 2.035 . S
Zn437 O443 2.035 . S
Zn437 O444 2.028 . S
O438 C434 1.258 . S
O438 Zn439 2.035 . S
Zn439 O438 2.035 . S
Zn439 O440 2.028 . S
Zn439 O442 2.028 . S
Zn439 O445 2.035 . S
O440 Zn439 2.028 . S
O440 C446 1.247 . S
O441 Zn437 2.035 . S
O441 C446 1.258 . S
O442 C435 1.247 . S
O442 Zn439 2.028 . S
O443 C435 1.258 . S
O443 Zn437 2.035 . S
O444 Zn437 2.028 . S
O444 C447 1.247 . S
O445 Zn439 2.035 . S
O445 C447 1.258 . S
C446 O440 1.247 . S
C446 O441 1.258 . S
C447 O444 1.247 . S
C447 O445 1.258 . S
C448 O450 1.247 . S
C448 O452 1.258 . S
C449 O456 1.247 . S
C449 O457 1.258 . S
O450 C448 1.247 . S
O450 Zn451 2.028 . S
Zn451 O450 2.028 . S
Zn451 O455 2.035 . S
Zn451 O457 2.035 . S
Zn451 O458 2.028 . S
O452 C448 1.258 . S
O452 Zn453 2.035 . S
Zn453 O452 2.035 . S
Zn453 O454 2.028 . S
Zn453 O456 2.028 . S
Zn453 O459 2.035 . S
O454 Zn453 2.028 . S
O454 C460 1.247 . S
O455 Zn451 2.035 . S
O455 C460 1.258 . S
O456 C449 1.247 . S
O456 Zn453 2.028 . S
O457 C449 1.258 . S
O457 Zn451 2.035 . S
O458 Zn451 2.028 . S
O458 C461 1.247 . S
O459 Zn453 2.035 . S
O459 C461 1.258 . S
C460 O454 1.247 . S
C460 O455 1.258 . S
C461 O458 1.247 . S
C461 O459 1.258 . S
C462 O464 1.247 . S
C462 O466 1.258 . S
C463 O470 1.247 . S
C463 O471 1.258 . S
O464 C462 1.247 . S
O464 Zn465 2.028 . S
Zn465 O464 2.028 . S
Zn465 O469 2.035 . S
Zn465 O471 2.035 . S
Zn465 O472 2.028 . S
O466 C462 1.258 . S
O466 Zn467 2.035 . S
Zn467 O466 2.035 . S
Zn467 O468 2.028 . S
Zn467 O470 2.028 . S
Zn467 O473 2.035 . S
O468 Zn467 2.028 . S
O468 C474 1.247 . S
O469 Zn465 2.035 . S
O469 C474 1.258 . S
O470 C463 1.247 . S
O470 Zn467 2.028 . S
O471 C463 1.258 . S
O471 Zn465 2.035 . S
O472 Zn465 2.028 . S
O472 C475 1.247 . S
O473 Zn467 2.035 . S
O473 C475 1.258 . S
C474 O468 1.247 . S
C474 O469 1.258 . S
C475 O472 1.247 . S
C475 O473 1.258 . S
C476 O478 1.247 . S
C476 O480 1.258 . S
C477 O484 1.247 . S
C477 O485 1.258 . S
O478 C476 1.247 . S
O478 Zn479 2.028 . S
Zn479 O478 2.028 . S
Zn479 O483 2.035 . S
Zn479 O485 2.035 . S
Zn479 O486 2.028 . S
O480 C476 1.258 . S
O480 Zn481 2.035 . S
Zn481 O480 2.035 . S
Zn481 O482 2.028 . S
Zn481 O484 2.028 . S
Zn481 O487 2.035 . S
O482 Zn481 2.028 . S
O482 C488 1.247 . S
O483 Zn479 2.035 . S
O483 C488 1.258 . S
O484 C477 1.247 . S
O484 Zn481 2.028 . S
O485 C477 1.258 . S
O485 Zn479 2.035 . S
O486 Zn479 2.028 . S
O486 C489 1.247 . S
O487 Zn481 2.035 . S
O487 C489 1.258 . S
C488 O482 1.247 . S
C488 O483 1.258 . S
C489 O486 1.247 . S
C489 O487 1.258 . S
C490 O492 1.247 . S
C490 O494 1.258 . S
C491 O498 1.247 . S
C491 O499 1.258 . S
O492 C490 1.247 . S
O492 Zn493 2.028 . S
Zn493 O492 2.028 . S
Zn493 O497 2.035 . S
Zn493 O499 2.035 . S
Zn493 O500 2.028 . S
O494 C490 1.258 . S
O494 Zn495 2.035 . S
Zn495 O494 2.035 . S
Zn495 O496 2.028 . S
Zn495 O498 2.028 . S
Zn495 O501 2.035 . S
O496 Zn495 2.028 . S
O496 C502 1.247 . S
O497 Zn493 2.035 . S
O497 C502 1.258 . S
O498 C491 1.247 . S
O498 Zn495 2.028 . S
O499 C491 1.258 . S
O499 Zn493 2.035 . S
O500 Zn493 2.028 . S
O500 C503 1.247 . S
O501 Zn495 2.035 . S
O501 C503 1.258 . S
C502 O496 1.247 . S
C502 O497 1.258 . S
C503 O500 1.247 . S
C503 O501 1.258 . S
C504 O506 1.247 . S
C504 O508 1.258 . S
C505 O512 1.247 . S
C505 O513 1.258 . S
O506 C504 1.247 . S
O506 Zn507 2.028 . S
Zn507 O506 2.028 . S
Zn507 O511 2.035 . S
Zn507 O513 2.035 . S
Zn507 O514 2.028 . S
O508 C504 1.258 . S
O508 Zn509 2.035 . S
Zn509 O508 2.035 . S
Zn509 O510 2.028 . S
Zn509 O512 2.028 . S
Zn509 O515 2.035 . S
O510 Zn509 2.028 . S
O510 C516 1.247 . S
O511 Zn507 2.035 . S
O511 C516 1.258 . S
O512 C505 1.247 . S
O512 Zn509 2.028 . S
O513 C505 1.258 . S
O513 Zn507 2.035 . S
O514 Zn507 2.028 . S
O514 C517 1.247 . S
O515 Zn509 2.035 . S
O515 C517 1.258 . S
C516 O510 1.247 . S
C516 O511 1.258 . S
C517 O514 1.247 . S
C517 O515 1.258 . S
C518 O520 1.247 . S
C518 O522 1.258 . S
C519 O526 1.247 . S
C519 O527 1.258 . S
O520 C518 1.247 . S
O520 Zn521 2.028 . S
Zn521 O520 2.028 . S
Zn521 O525 2.035 . S
Zn521 O527 2.035 . S
Zn521 O528 2.028 . S
O522 C518 1.258 . S
O522 Zn523 2.035 . S
Zn523 O522 2.035 . S
Zn523 O524 2.028 . S
Zn523 O526 2.028 . S
Zn523 O529 2.035 . S
O524 Zn523 2.028 . S
O524 C530 1.247 . S
O525 Zn521 2.035 . S
O525 C530 1.258 . S
O526 C519 1.247 . S
O526 Zn523 2.028 . S
O527 C519 1.258 . S
O527 Zn521 2.035 . S
O528 Zn521 2.028 . S
O528 C531 1.247 . S
O529 Zn523 2.035 . S
O529 C531 1.258 . S
C530 O524 1.247 . S
C530 O525 1.258 . S
C531 O528 1.247 . S
C531 O529 1.258 . S
C532 O534 1.247 . S
C532 O536 1.258 . S
C533 O540 1.247 . S
C533 O541 1.258 . S
O534 C532 1.247 . S
O534 Zn535 2.028 . S
Zn535 O534 2.028 . S
Zn535 O539 2.035 . S
Zn535 O541 2.035 . S
Zn535 O542 2.028 . S
O536 C532 1.258 . S
O536 Zn537 2.035 . S
Zn537 O536 2.035 . S
Zn537 O538 2.028 . S
Zn537 O540 2.028 . S
Zn537 O543 2.035 . S
O538 Zn537 2.028 . S
O538 C544 1.247 . S
O539 Zn535 2.035 . S
O539 C544 1.258 . S
O540 C533 1.247 . S
O540 Zn537 2.028 . S
O541 C533 1.258 . S
O541 Zn535 2.035 . S
O542 Zn535 2.028 . S
O542 C545 1.247 . S
O543 Zn537 2.035 . S
O543 C545 1.258 . S
C544 O538 1.247 . S
C544 O539 1.258 . S
C545 O542 1.247 . S
C545 O543 1.258 . S
C546 O548 1.247 . S
C546 O550 1.258 . S
C547 O554 1.247 . S
C547 O555 1.258 . S
O548 C546 1.247 . S
O548 Zn549 2.028 . S
Zn549 O548 2.028 . S
Zn549 O553 2.035 . S
Zn549 O555 2.035 . S
Zn549 O556 2.028 . S
O550 C546 1.258 . S
O550 Zn551 2.035 . S
Zn551 O550 2.035 . S
Zn551 O552 2.028 . S
Zn551 O554 2.028 . S
Zn551 O557 2.035 . S
O552 Zn551 2.028 . S
O552 C558 1.247 . S
O553 Zn549 2.035 . S
O553 C558 1.258 . S
O554 C547 1.247 . S
O554 Zn551 2.028 . S
O555 C547 1.258 . S
O555 Zn549 2.035 . S
O556 Zn549 2.028 . S
O556 C559 1.247 . S
O557 Zn551 2.035 . S
O557 C559 1.258 . S
C558 O552 1.247 . S
C558 O553 1.258 . S
C559 O556 1.247 . S
C559 O557 1.258 . S
C560 O562 1.247 . S
C560 O564 1.258 . S
C561 O568 1.247 . S
C561 O569 1.258 . S
O562 C560 1.247 . S
O562 Zn563 2.028 . S
Zn563 O562 2.028 . S
Zn563 O567 2.035 . S
Zn563 O569 2.035 . S
Zn563 O570 2.028 . S
O564 C560 1.258 . S
O564 Zn565 2.035 . S
Zn565 O564 2.035 . S
Zn565 O566 2.028 . S
Zn565 O568 2.028 . S
Zn565 O571 2.035 . S
O566 Zn565 2.028 . S
O566 C572 1.247 . S
O567 Zn563 2.035 . S
O567 C572 1.258 . S
O568 C561 1.247 . S
O568 Zn565 2.028 . S
O569 C561 1.258 . S
O569 Zn563 2.035 . S
O570 Zn563 2.028 . S
O570 C573 1.247 . S
O571 Zn565 2.035 . S
O571 C573 1.258 . S
C572 O566 1.247 . S
C572 O567 1.258 . S
C573 O570 1.247 . S
C573 O571 1.258 . S
C574 O576 1.247 . S
C574 O578 1.258 . S
C575 O582 1.247 . S
C575 O583 1.258 . S
O576 C574 1.247 . S
O576 Zn577 2.028 . S
Zn577 O576 2.028 . S
Zn577 O581 2.035 . S
Zn577 O583 2.035 . S
Zn577 O584 2.028 . S
O578 C574 1.258 . S
O578 Zn579 2.035 . S
Zn579 O578 2.035 . S
Zn579 O580 2.028 . S
Zn579 O582 2.028 . S
Zn579 O585 2.035 . S
O580 Zn579 2.028 . S
O580 C586 1.247 . S
O581 Zn577 2.035 . S
O581 C586 1.258 . S
O582 C575 1.247 . S
O582 Zn579 2.028 . S
O583 C575 1.258 . S
O583 Zn577 2.035 . S
O584 Zn577 2.028 . S
O584 C587 1.247 . S
O585 Zn579 2.035 . S
O585 C587 1.258 . S
C586 O580 1.247 . S
C586 O581 1.258 . S
C587 O584 1.247 . S
C587 O585 1.258 . S
C588 O590 1.247 . S
C588 O592 1.258 . S
C589 O596 1.247 . S
C589 O597 1.258 . S
O590 C588 1.247 . S
O590 Zn591 2.028 . S
Zn591 O590 2.028 . S
Zn591 O595 2.035 . S
Zn591 O597 2.035 . S
Zn591 O598 2.028 . S
O592 C588 1.258 . S
O592 Zn593 2.035 . S
Zn593 O592 2.035 . S
Zn593 O594 2.028 . S
Zn593 O596 2.028 . S
Zn593 O599 2.035 . S
O594 Zn593 2.028 . S
O594 C600 1.247 . S
O595 Zn591 2.035 . S
O595 C600 1.258 . S
O596 C589 1.247 . S
O596 Zn593 2.028 . S
O597 C589 1.258 . S
O597 Zn591 2.035 . S
O598 Zn591 2.028 . S
O598 C601 1.247 . S
O599 Zn593 2.035 . S
O599 C601 1.258 . S
C600 O594 1.247 . S
C600 O595 1.258 . S
C601 O598 1.247 . S
C601 O599 1.258 . S
C602 O604 1.247 . S
C602 O606 1.258 . S
C603 O610 1.247 . S
C603 O611 1.258 . S
O604 C602 1.247 . S
O604 Zn605 2.028 . S
Zn605 O604 2.028 . S
Zn605 O609 2.035 . S
Zn605 O611 2.035 . S
Zn605 O612 2.028 . S
O606 C602 1.258 . S
O606 Zn607 2.035 . S
Zn607 O606 2.035 . S
Zn607 O608 2.028 . S
Zn607 O610 2.028 . S
Zn607 O613 2.035 . S
O608 Zn607 2.028 . S
O608 C614 1.247 . S
O609 Zn605 2.035 . S
O609 C614 1.258 . S
O610 C603 1.247 . S
O610 Zn607 2.028 . S
O611 C603 1.258 . S
O611 Zn605 2.035 . S
O612 Zn605 2.028 . S
O612 C615 1.247 . S
O613 Zn607 2.035 . S
O613 C615 1.258 . S
C614 O608 1.247 . S
C614 O609 1.258 . S
C615 O612 1.247 . S
C615 O613 1.258 . S
C616 O618 1.247 . S
C616 O620 1.258 . S
C617 O624 1.247 . S
C617 O625 1.258 . S
O618 C616 1.247 . S
O618 Zn619 2.028 . S
Zn619 O618 2.028 . S
Zn619 O623 2.035 . S
Zn619 O625 2.035 . S
Zn619 O626 2.028 . S
O620 C616 1.258 . S
O620 Zn621 2.035 . S
Zn621 O620 2.035 . S
Zn621 O622 2.028 . S
Zn621 O624 2.028 . S
Zn621 O627 2.035 . S
O622 Zn621 2.028 . S
O622 C628 1.247 . S
O623 Zn619 2.035 . S
O623 C628 1.258 . S
O624 C617 1.247 . S
O624 Zn621 2.028 . S
O625 C617 1.258 . S
O625 Zn619 2.035 . S
O626 Zn619 2.028 . S
O626 C629 1.247 . S
O627 Zn621 2.035 . S
O627 C629 1.258 . S
C628 O622 1.247 . S
C628 O623 1.258 . S
C629 O626 1.247 . S
C629 O627 1.258 . S
C630 O632 1.247 . S
C630 O634 1.258 . S
C631 O638 1.247 . S
C631 O639 1.258 . S
O632 C630 1.247 . S
O632 Zn633 2.028 . S
Zn633 O632 2.028 . S
Zn633 O637 2.035 . S
Zn633 O639 2.035 . S
Zn633 O640 2.028 . S
O634 C630 1.258 . S
O634 Zn635 2.035 . S
Zn635 O634 2.035 . S
Zn635 O636 2.028 . S
Zn635 O638 2.028 . S
Zn635 O641 2.035 . S
O636 Zn635 2.028 . S
O636 C642 1.247 . S
O637 Zn633 2.035 . S
O637 C642 1.258 . S
O638 C631 1.247 . S
O638 Zn635 2.028 . S
O639 C631 1.258 . S
O639 Zn633 2.035 . S
O640 Zn633 2.028 . S
O640 C643 1.247 . S
O641 Zn635 2.035 . S
O641 C643 1.258 . S
C642 O636 1.247 . S
C642 O637 1.258 . S
C643 O640 1.247 . S
C643 O641 1.258 . S
C644 O646 1.247 . S
C644 O648 1.258 . S
C645 O652 1.247 . S
C645 O653 1.258 . S
O646 C644 1.247 . S
O646 Zn647 2.028 . S
Zn647 O646 2.028 . S
Zn647 O651 2.035 . S
Zn647 O653 2.035 . S
Zn647 O654 2.028 . S
O648 C644 1.258 . S
O648 Zn649 2.035 . S
Zn649 O648 2.035 . S
Zn649 O650 2.028 . S
Zn649 O652 2.028 . S
Zn649 O655 2.035 . S
O650 Zn649 2.028 . S
O650 C656 1.247 . S
O651 Zn647 2.035 . S
O651 C656 1.258 . S
O652 C645 1.247 . S
O652 Zn649 2.028 . S
O653 C645 1.258 . S
O653 Zn647 2.035 . S
O654 Zn647 2.028 . S
O654 C657 1.247 . S
O655 Zn649 2.035 . S
O655 C657 1.258 . S
C656 O650 1.247 . S
C656 O651 1.258 . S
C657 O654 1.247 . S
C657 O655 1.258 . S
C658 O660 1.247 . S
C658 O662 1.258 . S
C659 O666 1.247 . S
C659 O667 1.258 . S
O660 C658 1.247 . S
O660 Zn661 2.028 . S
Zn661 O660 2.028 . S
Zn661 O665 2.035 . S
Zn661 O667 2.035 . S
Zn661 O668 2.028 . S
O662 C658 1.258 . S
O662 Zn663 2.035 . S
Zn663 O662 2.035 . S
Zn663 O664 2.028 . S
Zn663 O666 2.028 . S
Zn663 O669 2.035 . S
O664 Zn663 2.028 . S
O664 C670 1.247 . S
O665 Zn661 2.035 . S
O665 C670 1.258 . S
O666 C659 1.247 . S
O666 Zn663 2.028 . S
O667 C659 1.258 . S
O667 Zn661 2.035 . S
O668 Zn661 2.028 . S
O668 C671 1.247 . S
O669 Zn663 2.035 . S
O669 C671 1.258 . S
C670 O664 1.247 . S
C670 O665 1.258 . S
C671 O668 1.247 . S
C671 O669 1.258 . S
C672 O674 1.247 . S
C672 O676 1.258 . S
C673 O680 1.247 . S
C673 O681 1.258 . S
O674 C672 1.247 . S
O674 Zn675 2.028 . S
Zn675 O674 2.028 . S
Zn675 O679 2.035 . S
Zn675 O681 2.035 . S
Zn675 O682 2.028 . S
O676 C672 1.258 . S
O676 Zn677 2.035 . S
Zn677 O676 2.035 . S
Zn677 O678 2.028 . S
Zn677 O680 2.028 . S
Zn677 O683 2.035 . S
O678 Zn677 2.028 . S
O678 C684 1.247 . S
O679 Zn675 2.035 . S
O679 C684 1.258 . S
O680 C673 1.247 . S
O680 Zn677 2.028 . S
O681 C673 1.258 . S
O681 Zn675 2.035 . S
O682 Zn675 2.028 . S
O682 C685 1.247 . S
O683 Zn677 2.035 . S
O683 C685 1.258 . S
C684 O678 1.247 . S
C684 O679 1.258 . S
C685 O682 1.247 . S
C685 O683 1.258 . S
C686 O688 1.247 . S
C686 O690 1.258 . S
C687 O694 1.247 . S
C687 O695 1.258 . S
O688 C686 1.247 . S
O688 Zn689 2.028 . S
Zn689 O688 2.028 . S
Zn689 O693 2.035 . S
Zn689 O695 2.035 . S
Zn689 O696 2.028 . S
O690 C686 1.258 . S
O690 Zn691 2.035 . S
Zn691 O690 2.035 . S
Zn691 O692 2.028 . S
Zn691 O694 2.028 . S
Zn691 O697 2.035 . S
O692 Zn691 2.028 . S
O692 C698 1.247 . S
O693 Zn689 2.035 . S
O693 C698 1.258 . S
O694 C687 1.247 . S
O694 Zn691 2.028 . S
O695 C687 1.258 . S
O695 Zn689 2.035 . S
O696 Zn689 2.028 . S
O696 C699 1.247 . S
O697 Zn691 2.035 . S
O697 C699 1.258 . S
C698 O692 1.247 . S
C698 O693 1.258 . S
C699 O696 1.247 . S
C699 O697 1.258 . S
C700 O702 1.247 . S
C700 O704 1.258 . S
C701 O708 1.247 . S
C701 O709 1.258 . S
O702 C700 1.247 . S
O702 Zn703 2.028 . S
Zn703 O702 2.028 . S
Zn703 O707 2.035 . S
Zn703 O709 2.035 . S
Zn703 O710 2.028 . S
O704 C700 1.258 . S
O704 Zn705 2.035 . S
Zn705 O704 2.035 . S
Zn705 O706 2.028 . S
Zn705 O708 2.028 . S
Zn705 O711 2.035 . S
O706 Zn705 2.028 . S
O706 C712 1.247 . S
O707 Zn703 2.035 . S
O707 C712 1.258 . S
O708 C701 1.247 . S
O708 Zn705 2.028 . S
O709 C701 1.258 . S
O709 Zn703 2.035 . S
O710 Zn703 2.028 . S
O710 C713 1.247 . S
O711 Zn705 2.035 . S
O711 C713 1.258 . S
C712 O706 1.247 . S
C712 O707 1.258 . S
C713 O710 1.247 . S
C713 O711 1.258 . S
C714 O716 1.247 . S
C714 O718 1.258 . S
C715 O722 1.247 . S
C715 O723 1.258 . S
O716 C714 1.247 . S
O716 Zn717 2.028 . S
Zn717 O716 2.028 . S
Zn717 O721 2.035 . S
Zn717 O723 2.035 . S
Zn717 O724 2.028 . S
O718 C714 1.258 . S
O718 Zn719 2.035 . S
Zn719 O718 2.035 . S
Zn719 O720 2.028 . S
Zn719 O722 2.028 . S
Zn719 O725 2.035 . S
O720 Zn719 2.028 . S
O720 C726 1.247 . S
O721 Zn717 2.035 . S
O721 C726 1.258 . S
O722 C715 1.247 . S
O722 Zn719 2.028 . S
O723 C715 1.258 . S
O723 Zn717 2.035 . S
O724 Zn717 2.028 . S
O724 C727 1.247 . S
O725 Zn719 2.035 . S
O725 C727 1.258 . S
C726 O720 1.247 . S
C726 O721 1.258 . S
C727 O724 1.247 . S
C727 O725 1.258 . S
C728 O730 1.247 . S
C728 O732 1.258 . S
C729 O736 1.247 . S
C729 O737 1.258 . S
O730 C728 1.247 . S
O730 Zn731 2.028 . S
Zn731 O730 2.028 . S
Zn731 O735 2.035 . S
Zn731 O737 2.035 . S
Zn731 O738 2.028 . S
O732 C728 1.258 . S
O732 Zn733 2.035 . S
Zn733 O732 2.035 . S
Zn733 O734 2.028 . S
Zn733 O736 2.028 . S
Zn733 O739 2.035 . S
O734 Zn733 2.028 . S
O734 C740 1.247 . S
O735 Zn731 2.035 . S
O735 C740 1.258 . S
O736 C729 1.247 . S
O736 Zn733 2.028 . S
O737 C729 1.258 . S
O737 Zn731 2.035 . S
O738 Zn731 2.028 . S
O738 C741 1.247 . S
O739 Zn733 2.035 . S
O739 C741 1.258 . S
C740 O734 1.247 . S
C740 O735 1.258 . S
C741 O738 1.247 . S
C741 O739 1.258 . S
C742 O744 1.247 . S
C742 O746 1.258 . S
C743 O750 1.247 . S
C743 O751 1.258 . S
O744 C742 1.247 . S
O744 Zn745 2.028 . S
Zn745 O744 2.028 . S
Zn745 O749 2.035 . S
Zn745 O751 2.035 . S
Zn745 O752 2.028 . S
O746 C742 1.258 . S
O746 Zn747 2.035 . S
Zn747 O746 2.035 . S
Zn747 O748 2.028 . S
Zn747 O750 2.028 . S
Zn747 O753 2.035 . S
O748 Zn747 2.028 . S
O748 C754 1.247 . S
O749 Zn745 2.035 . S
O749 C754 1.258 . S
O750 C743 1.247 . S
O750 Zn747 2.028 . S
O751 C743 1.258 . S
O751 Zn745 2.035 . S
O752 Zn745 2.028 . S
O752 C755 1.247 . S
O753 Zn747 2.035 . S
O753 C755 1.258 . S
C754 O748 1.247 . S
C754 O749 1.258 . S
C755 O752 1.247 . S
C755 O753 1.258 . S
C756 O758 1.247 . S
C756 O760 1.258 . S
C757 O764 1.247 . S
C757 O765 1.258 . S
O758 C756 1.247 . S
O758 Zn759 2.028 . S
Zn759 O758 2.028 . S
Zn759 O763 2.035 . S
Zn759 O765 2.035 . S
Zn759 O766 2.028 . S
O760 C756 1.258 . S
O760 Zn761 2.035 . S
Zn761 O760 2.035 . S
Zn761 O762 2.028 . S
Zn761 O764 2.028 . S
Zn761 O767 2.035 . S
O762 Zn761 2.028 . S
O762 C768 1.247 . S
O763 Zn759 2.035 . S
O763 C768 1.258 . S
O764 C757 1.247 . S
O764 Zn761 2.028 . S
O765 C757 1.258 . S
O765 Zn759 2.035 . S
O766 Zn759 2.028 . S
O766 C769 1.247 . S
O767 Zn761 2.035 . S
O767 C769 1.258 . S
C768 O762 1.247 . S
C768 O763 1.258 . S
C769 O766 1.247 . S
C769 O767 1.258 . S
C770 O772 1.247 . S
C770 O774 1.258 . S
C771 O778 1.247 . S
C771 O779 1.258 . S
O772 C770 1.247 . S
O772 Zn773 2.028 . S
Zn773 O772 2.028 . S
Zn773 O777 2.035 . S
Zn773 O779 2.035 . S
Zn773 O780 2.028 . S
O774 C770 1.258 . S
O774 Zn775 2.035 . S
Zn775 O774 2.035 . S
Zn775 O776 2.028 . S
Zn775 O778 2.028 . S
Zn775 O781 2.035 . S
O776 Zn775 2.028 . S
O776 C782 1.247 . S
O777 Zn773 2.035 . S
O777 C782 1.258 . S
O778 C771 1.247 . S
O778 Zn775 2.028 . S
O779 C771 1.258 . S
O779 Zn773 2.035 . S
O780 Zn773 2.028 . S
O780 C783 1.247 . S
O781 Zn775 2.035 . S
O781 C783 1.258 . S
C782 O776 1.247 . S
C782 O777 1.258 . S
C783 O780 1.247 . S
C783 O781 1.258 . S
C784 O786 1.247 . S
C784 O788 1.258 . S
C785 O792 1.247 . S
C785 O793 1.258 . S
O786 C784 1.247 . S
O786 Zn787 2.028 . S
Zn787 O786 2.028 . S
Zn787 O791 2.035 . S
Zn787 O793 2.035 . S
Zn787 O794 2.028 . S
O788 C784 1.258 . S
O788 Zn789 2.035 . S
Zn789 O788 2.035 . S
Zn789 O790 2.028 . S
Zn789 O792 2.028 . S
Zn789 O795 2.035 . S
O790 Zn789 2.028 . S
O790 C796 1.247 . S
O791 Zn787 2.035 . S
O791 C796 1.258 . S
O792 C785 1.247 . S
O792 Zn789 2.028 . S
O793 C785 1.258 . S
O793 Zn787 2.035 . S
O794 Zn787 2.028 . S
O794 C797 1.247 . S
O795 Zn789 2.035 . S
O795 C797 1.258 . S
C796 O790 1.247 . S
C796 O791 1.258 . S
C797 O794 1.247 . S
C797 O795 1.258 . S
C798 O800 1.247 . S
C798 O802 1.258 . S
C799 O806 1.247 . S
C799 O807 1.258 . S
O800 C798 1.247 . S
O800 Zn801 2.028 . S
Zn801 O800 2.028 . S
Zn801 O805 2.035 . S
Zn801 O807 2.035 . S
Zn801 O808 2.028 . S
O802 C798 1.258 . S
O802 Zn803 2.035 . S
Zn803 O802 2.035 . S
Zn803 O804 2.028 . S
Zn803 O806 2.028 . S
Zn803 O809 2.035 . S
O804 Zn803 2.028 . S
O804 C810 1.247 . S
O805 Zn801 2.035 . S
O805 C810 1.258 . S
O806 C799 1.247 . S
O806 Zn803 2.028 . S
O807 C799 1.258 . S
O807 Zn801 2.035 . S
O808 Zn801 2.028 . S
O808 C811 1.247 . S
O809 Zn803 2.035 . S
O809 C811 1.258 . S
C810 O804 1.247 . S
C810 O805 1.258 . S
C811 O808 1.247 . S
C811 O809 1.258 . S
C812 O814 1.247 . S
C812 O816 1.258 . S
C813 O820 1.247 . S
C813 O821 1.258 . S
O814 C812 1.247 . S
O814 Zn815 2.028 . S
Zn815 O814 2.028 . S
Zn815 O819 2.035 . S
Zn815 O821 2.035 . S
Zn815 O822 2.028 . S
O816 C812 1.258 . S
O816 Zn817 2.035 . S
Zn817 O816 2.035 . S
Zn817 O818 2.028 . S
Zn817 O820 2.028 . S
Zn817 O823 2.035 . S
O818 Zn817 2.028 . S
O818 C824 1.247 . S
O819 Zn815 2.035 . S
O819 C824 1.258 . S
O820 C813 1.247 . S
O820 Zn817 2.028 . S
O821 C813 1.258 . S
O821 Zn815 2.035 . S
O822 Zn815 2.028 . S
O822 C825 1.247 . S
O823 Zn817 2.035 . S
O823 C825 1.258 . S
C824 O818 1.247 . S
C824 O819 1.258 . S
C825 O822 1.247 . S
C825 O823 1.258 . S
C826 O828 1.247 . S
C826 O830 1.258 . S
C827 O834 1.247 . S
C827 O835 1.258 . S
O828 C826 1.247 . S
O828 Zn829 2.028 . S
Zn829 O828 2.028 . S
Zn829 O833 2.035 . S
Zn829 O835 2.035 . S
Zn829 O836 2.028 . S
O830 C826 1.258 . S
O830 Zn831 2.035 . S
Zn831 O830 2.035 . S
Zn831 O832 2.028 . S
Zn831 O834 2.028 . S
Zn831 O837 2.035 . S
O832 Zn831 2.028 . S
O832 C838 1.247 . S
O833 Zn829 2.035 . S
O833 C838 1.258 . S
O834 C827 1.247 . S
O834 Zn831 2.028 . S
O835 C827 1.258 . S
O835 Zn829 2.035 . S
O836 Zn829 2.028 . S
O836 C839 1.247 . S
O837 Zn831 2.035 . S
O837 C839 1.258 . S
C838 O832 1.247 . S
C838 O833 1.258 . S
C839 O836 1.247 . S
C839 O837 1.258 . S
C840 O842 1.247 . S
C840 O844 1.258 . S
C841 O848 1.247 . S
C841 O849 1.258 . S
O842 C840 1.247 . S
O842 Zn843 2.028 . S
Zn843 O842 2.028 . S
Zn843 O847 2.035 . S
Zn843 O849 2.035 . S
Zn843 O850 2.028 . S
O844 C840 1.258 . S
O844 Zn845 2.035 . S
Zn845 O844 2.035 . S
Zn845 O846 2.028 . S
Zn845 O848 2.028 . S
Zn845 O851 2.035 . S
O846 Zn845 2.028 . S
O846 C852 1.247 . S
O847 Zn843 2.035 . S
O847 C852 1.258 . S
O848 C841 1.247 . S
O848 Zn845 2.028 . S
O849 C841 1.258 . S
O849 Zn843 2.035 . S
O850 Zn843 2.028 . S
O850 C853 1.247 . S
O851 Zn845 2.035 . S
O851 C853 1.258 . S
C852 O846 1.247 . S
C852 O847 1.258 . S
C853 O850 1.247 . S
C853 O851 1.258 . S
C854 O856 1.247 . S
C854 O858 1.258 . S
C855 O862 1.247 . S
C855 O863 1.258 . S
O856 C854 1.247 . S
O856 Zn857 2.028 . S
Zn857 O856 2.028 . S
Zn857 O861 2.035 . S
Zn857 O863 2.035 . S
Zn857 O864 2.028 . S
O858 C854 1.258 . S
O858 Zn859 2.035 . S
Zn859 O858 2.035 . S
Zn859 O860 2.028 . S
Zn859 O862 2.028 . S
Zn859 O865 2.035 . S
O860 Zn859 2.028 . S
O860 C866 1.247 . S
O861 Zn857 2.035 . S
O861 C866 1.258 . S
O862 C855 1.247 . S
O862 Zn859 2.028 . S
O863 C855 1.258 . S
O863 Zn857 2.035 . S
O864 Zn857 2.028 . S
O864 C867 1.247 . S
O865 Zn859 2.035 . S
O865 C867 1.258 . S
C866 O860 1.247 . S
C866 O861 1.258 . S
C867 O864 1.247 . S
C867 O865 1.258 . S
C868 O870 1.247 . S
C868 O872 1.258 . S
C869 O876 1.247 . S
C869 O877 1.258 . S
O870 C868 1.247 . S
O870 Zn871 2.028 . S
Zn871 O870 2.028 . S
Zn871 O875 2.035 . S
Zn871 O877 2.035 . S
Zn871 O878 2.028 . S
O872 C868 1.258 . S
O872 Zn873 2.035 . S
Zn873 O872 2.035 . S
Zn873 O874 2.028 . S
Zn873 O876 2.028 . S
Zn873 O879 2.035 . S
O874 Zn873 2.028 . S
O874 C880 1.247 . S
O875 Zn871 2.035 . S
O875 C880 1.258 . S
O876 C869 1.247 . S
O876 Zn873 2.028 . S
O877 C869 1.258 . S
O877 Zn871 2.035 . S
O878 Zn871 2.028 . S
O878 C881 1.247 . S
O879 Zn873 2.035 . S
O879 C881 1.258 . S
C880 O874 1.247 . S
C880 O875 1.258 . S
C881 O878 1.247 . S
C881 O879 1.258 . S
C882 O884 1.247 . S
C882 O886 1.258 . S
C883 O890 1.247 . S
C883 O891 1.258 . S
O884 C882 1.247 . S
O884 Zn885 2.028 . S
Zn885 O884 2.028 . S
Zn885 O889 2.035 . S
Zn885 O891 2.035 . S
Zn885 O892 2.028 . S
O886 C882 1.258 . S
O886 Zn887 2.035 . S
Zn887 O886 2.035 . S
Zn887 O888 2.028 . S
Zn887 O890 2.028 . S
Zn887 O893 2.035 . S
O888 Zn887 2.028 . S
O888 C894 1.247 . S
O889 Zn885 2.035 . S
O889 C894 1.258 . S
O890 C883 1.247 . S
O890 Zn887 2.028 . S
O891 C883 1.258 . S
O891 Zn885 2.035 . S
O892 Zn885 2.028 . S
O892 C895 1.247 . S
O893 Zn887 2.035 . S
O893 C895 1.258 . S
C894 O888 1.247 . S
C894 O889 1.258 . S
C895 O892 1.247 . S
C895 O893 1.258 . S
C896 O898 1.247 . S
C896 O900 1.258 . S
C897 O904 1.247 . S
C897 O905 1.258 . S
O898 C896 1.247 . S
O898 Zn899 2.028 . S
Zn899 O898 2.028 . S
Zn899 O903 2.035 . S
Zn899 O905 2.035 . S
Zn899 O906 2.028 . S
O900 C896 1.258 . S
O900 Zn901 2.035 . S
Zn901 O900 2.035 . S
Zn901 O902 2.028 . S
Zn901 O904 2.028 . S
Zn901 O907 2.035 . S
O902 Zn901 2.028 . S
O902 C908 1.247 . S
O903 Zn899 2.035 . S
O903 C908 1.258 . S
O904 C897 1.247 . S
O904 Zn901 2.028 . S
O905 C897 1.258 . S
O905 Zn899 2.035 . S
O906 Zn899 2.028 . S
O906 C909 1.247 . S
O907 Zn901 2.035 . S
O907 C909 1.258 . S
C908 O902 1.247 . S
C908 O903 1.258 . S
C909 O906 1.247 . S
C909 O907 1.258 . S
C910 O912 1.247 . S
C910 O914 1.258 . S
C911 O918 1.247 . S
C911 O919 1.258 . S
O912 C910 1.247 . S
O912 Zn913 2.028 . S
Zn913 O912 2.028 . S
Zn913 O917 2.035 . S
Zn913 O919 2.035 . S
Zn913 O920 2.028 . S
O914 C910 1.258 . S
O914 Zn915 2.035 . S
Zn915 O914 2.035 . S
Zn915 O916 2.028 . S
Zn915 O918 2.028 . S
Zn915 O921 2.035 . S
O916 Zn915 2.028 . S
O916 C922 1.247 . S
O917 Zn913 2.035 . S
O917 C922 1.258 . S
O918 C911 1.247 . S
O918 Zn915 2.028 . S
O919 C911 1.258 . S
O919 Zn913 2.035 . S
O920 Zn913 2.028 . S
O920 C923 1.247 . S
O921 Zn915 2.035 . S
O921 C923 1.258 . S
C922 O916 1.247 . S
C922 O917 1.258 . S
C923 O920 1.247 . S
C923 O921 1.258 . S
C924 O926 1.247 . S
C924 O928 1.258 . S
C925 O932 1.247 . S
C925 O933 1.258 . S
O926 C924 1.247 . S
O926 Zn927 2.028 . S
Zn927 O926 2.028 . S
Zn927 O931 2.035 . S
Zn927 O933 2.035 . S
Zn927 O934 2.028 . S
O928 C924 1.258 . S
O928 Zn929 2.035 . S
Zn929 O928 2.035 . S
Zn929 O930 2.028 . S
Zn929 O932 2.028 . S
Zn929 O935 2.035 . S
O930 Zn929 2.028 . S
O930 C936 1.247 . S
O931 Zn927 2.035 . S
O931 C936 1.258 . S
O932 C925 1.247 . S
O932 Zn929 2.028 . S
O933 C925 1.258 . S
O933 Zn927 2.035 . S
O934 Zn927 2.028 . S
O934 C937 1.247 . S
O935 Zn929 2.035 . S
O935 C937 1.258 . S
C936 O930 1.247 . S
C936 O931 1.258 . S
C937 O934 1.247 . S
C937 O935 1.258 . S
C938 O940 1.247 . S
C938 O942 1.258 . S
C939 O946 1.247 . S
C939 O947 1.258 . S
O940 C938 1.247 . S
O940 Zn941 2.028 . S
Zn941 O940 2.028 . S
Zn941 O945 2.035 . S
Zn941 O947 2.035 . S
Zn941 O948 2.028 . S
O942 C938 1.258 . S
O942 Zn943 2.035 . S
Zn943 O942 2.035 . S
Zn943 O944 2.028 . S
Zn943 O946 2.028 . S
Zn943 O949 2.035 . S
O944 Zn943 2.028 . S
O944 C950 1.247 . S
O945 Zn941 2.035 . S
O945 C950 1.258 . S
O946 C939 1.247 . S
O946 Zn943 2.028 . S
O947 C939 1.258 . S
O947 Zn941 2.035 . S
O948 Zn941 2.028 . S
O948 C951 1.247 . S
O949 Zn943 2.035 . S
O949 C951 1.258 . S
C950 O944 1.247 . S
C950 O945 1.258 . S
C951 O948 1.247 . S
C951 O949 1.258 . S
C952 O954 1.247 . S
C952 O956 1.258 . S
C953 O960 1.247 . S
C953 O961 1.258 . S
O954 C952 1.247 . S
O954 Zn955 2.028 . S
Zn955 O954 2.028 . S
Zn955 O959 2.035 . S
Zn955 O961 2.035 . S
Zn955 O962 2.028 . S
O956 C952 1.258 . S
O956 Zn957 2.035 . S
Zn957 O956 2.035 . S
Zn957 O958 2.028 . S
Zn957 O960 2.028 . S
Zn957 O963 2.035 . S
O958 Zn957 2.028 . S
O958 C964 1.247 . S
O959 Zn955 2.035 . S
O959 C964 1.258 . S
O960 C953 1.247 . S
O960 Zn957 2.028 . S
O961 C953 1.258 . S
O961 Zn955 2.035 . S
O962 Zn955 2.028 . S
O962 C965 1.247 . S
O963 Zn957 2.035 . S
O963 C965 1.258 . S
C964 O958 1.247 . S
C964 O959 1.258 . S
C965 O962 1.247 . S
C965 O963 1.258 . S
C966 O968 1.247 . S
C966 O970 1.258 . S
C967 O974 1.247 . S
C967 O975 1.258 . S
O968 C966 1.247 . S
O968 Zn969 2.028 . S
Zn969 O968 2.028 . S
Zn969 O973 2.035 . S
Zn969 O975 2.035 . S
Zn969 O976 2.028 . S
O970 C966 1.258 . S
O970 Zn971 2.035 . S
Zn971 O970 2.035 . S
Zn971 O972 2.028 . S
Zn971 O974 2.028 . S
Zn971 O977 2.035 . S
O972 Zn971 2.028 . S
O972 C978 1.247 . S
O973 Zn969 2.035 . S
O973 C978 1.258 . S
O974 C967 1.247 . S
O974 Zn971 2.028 . S
O975 C967 1.258 . S
O975 Zn969 2.035 . S
O976 Zn969 2.028 . S
O976 C979 1.247 . S
O977 Zn971 2.035 . S
O977 C979 1.258 . S
C978 O972 1.247 . S
C978 O973 1.258 . S
C979 O976 1.247 . S
C979 O977 1.258 . S
C980 O982 1.247 . S
C980 O984 1.258 . S
C981 O988 1.247 . S
C981 O989 1.258 . S
O982 C980 1.247 . S
O982 Zn983 2.028 . S
Zn983 O982 2.028 . S
Zn983 O987 2.035 . S
Zn983 O989 2.035 . S
Zn983 O990 2.028 . S
O984 C980 1.258 . S
O984 Zn985 2.035 . S
Zn985 O984 2.035 . S
Zn985 O986 2.028 . S
Zn985 O988 2.028 . S
Zn985 O991 2.035 . S
O986 Zn985 2.028 . S
O986 C992 1.247 . S
O987 Zn983 2.035 . S
O987 C992 1.258 . S
O988 C981 1.247 . S
O988 Zn985 2.028 . S
O989 C981 1.258 . S
O989 Zn983 2.035 . S
O990 Zn983 2.028 . S
O990 C993 1.247 . S
O991 Zn985 2.035 . S
O991 C993 1.258 . S
C992 O986 1.247 . S
C992 O987 1.258 . S
C993 O990 1.247 . S
C993 O991 1.258 . S
C994 O996 1.247 . S
C994 O998 1.258 . S
C995 O1002 1.247 . S
C995 O1003 1.258 . S
O996 C994 1.247 . S
O996 Zn997 2.028 . S
Zn997 O996 2.028 . S
Zn997 O1001 2.035 . S
Zn997 O1003 2.035 . S
Zn997 O1004 2.028 . S
O998 C994 1.258 . S
O998 Zn999 2.035 . S
Zn999 O998 2.035 . S
Zn999 O1000 2.028 . S
Zn999 O1002 2.028 . S
Zn999 O1005 2.035 . S
O1000 Zn999 2.028 . S
O1000 C1006 1.247 . S
O1001 Zn997 2.035 . S
O1001 C1006 1.258 . S
O1002 C995 1.247 . S
O1002 Zn999 2.028 . S
O1003 C995 1.258 . S
O1003 Zn997 2.035 . S
O1004 Zn997 2.028 . S
O1004 C1007 1.247 . S
O1005 Zn999 2.035 . S
O1005 C1007 1.258 . S
C1006 O1000 1.247 . S
C1006 O1001 1.258 . S
C1007 O1004 1.247 . S
C1007 O1005 1.258 . S
C1008 O1010 1.247 . S
C1008 O1012 1.258 . S
C1009 O1016 1.247 . S
C1009 O1017 1.258 . S
O1010 C1008 1.247 . S
O1010 Zn1011 2.028 . S
Zn1011 O1010 2.028 . S
Zn1011 O1015 2.035 . S
Zn1011 O1017 2.035 . S
Zn1011 O1018 2.028 . S
O1012 C1008 1.258 . S
O1012 Zn1013 2.035 . S
Zn1013 O1012 2.035 . S
Zn1013 O1014 2.028 . S
Zn1013 O1016 2.028 . S
Zn1013 O1019 2.035 . S
O1014 Zn1013 2.028 . S
O1014 C1020 1.247 . S
O1015 Zn1011 2.035 . S
O1015 C1020 1.258 . S
O1016 C1009 1.247 . S
O1016 Zn1013 2.028 . S
O1017 C1009 1.258 . S
O1017 Zn1011 2.035 . S
O1018 Zn1011 2.028 . S
O1018 C1021 1.247 . S
O1019 Zn1013 2.035 . S
O1019 C1021 1.258 . S
C1020 O1014 1.247 . S
C1020 O1015 1.258 . S
C1021 O1018 1.247 . S
C1021 O1019 1.258 . S
C1022 O1024 1.247 . S
C1022 O1026 1.258 . S
C1023 O1030 1.247 . S
C1023 O1031 1.258 . S
O1024 C1022 1.247 . S
O1024 Zn1025 2.028 . S
Zn1025 O1024 2.028 . S
Zn1025 O1029 2.035 . S
Zn1025 O1031 2.035 . S
Zn1025 O1032 2.028 . S
O1026 C1022 1.258 . S
O1026 Zn1027 2.035 . S
Zn1027 O1026 2.035 . S
Zn1027 O1028 2.028 . S
Zn1027 O1030 2.028 . S
Zn1027 O1033 2.035 . S
O1028 Zn1027 2.028 . S
O1028 C1034 1.247 . S
O1029 Zn1025 2.035 . S
O1029 C1034 1.258 . S
O1030 C1023 1.247 . S
O1030 Zn1027 2.028 . S
O1031 C1023 1.258 . S
O1031 Zn1025 2.035 . S
O1032 Zn1025 2.028 . S
O1032 C1035 1.247 . S
O1033 Zn1027 2.035 . S
O1033 C1035 1.258 . S
C1034 O1028 1.247 . S
C1034 O1029 1.258 . S
C1035 O1032 1.247 . S
C1035 O1033 1.258 . S
C1036 O1038 1.247 . S
C1036 O1040 1.258 . S
C1037 O1044 1.247 . S
C1037 O1045 1.258 . S
O1038 C1036 1.247 . S
O1038 Zn1039 2.028 . S
Zn1039 O1038 2.028 . S
Zn1039 O1043 2.035 . S
Zn1039 O1045 2.035 . S
Zn1039 O1046 2.028 . S
O1040 C1036 1.258 . S
O1040 Zn1041 2.035 . S
Zn1041 O1040 2.035 . S
Zn1041 O1042 2.028 . S
Zn1041 O1044 2.028 . S
Zn1041 O1047 2.035 . S
O1042 Zn1041 2.028 . S
O1042 C1048 1.247 . S
O1043 Zn1039 2.035 . S
O1043 C1048 1.258 . S
O1044 C1037 1.247 . S
O1044 Zn1041 2.028 . S
O1045 C1037 1.258 . S
O1045 Zn1039 2.035 . S
O1046 Zn1039 2.028 . S
O1046 C1049 1.247 . S
O1047 Zn1041 2.035 . S
O1047 C1049 1.258 . S
C1048 O1042 1.247 . S
C1048 O1043 1.258 . S
C1049 O1046 1.247 . S
C1049 O1047 1.258 . S
C1050 O1052 1.247 . S
C1050 O1054 1.258 . S
C1051 O1058 1.247 . S
C1051 O1059 1.258 . S
O1052 C1050 1.247 . S
O1052 Zn1053 2.028 . S
Zn1053 O1052 2.028 . S
Zn1053 O1057 2.035 . S
Zn1053 O1059 2.035 . S
Zn1053 O1060 2.028 . S
O1054 C1050 1.258 . S
O1054 Zn1055 2.035 . S
Zn1055 O1054 2.035 . S
Zn1055 O1056 2.028 . S
Zn1055 O1058 2.028 . S
Zn1055 O1061 2.035 . S
O1056 Zn1055 2.028 . S
O1056 C1062 1.247 . S
O1057 Zn1053 2.035 . S
O1057 C1062 1.258 . S
O1058 C1051 1.247 . S
O1058 Zn1055 2.028 . S
O1059 C1051 1.258 . S
O1059 Zn1053 2.035 . S
O1060 Zn1053 2.028 . S
O1060 C1063 1.247 . S
O1061 Zn1055 2.035 . S
O1061 C1063 1.258 . S
C1062 O1056 1.247 . S
C1062 O1057 1.258 . S
C1063 O1060 1.247 . S
C1063 O1061 1.258 . S
C1064 O1066 1.247 . S
C1064 O1068 1.258 . S
C1065 O1072 1.247 . S
C1065 O1073 1.258 . S
O1066 C1064 1.247 . S
O1066 Zn1067 2.028 . S
Zn1067 O1066 2.028 . S
Zn1067 O1071 2.035 . S
Zn1067 O1073 2.035 . S
Zn1067 O1074 2.028 . S
O1068 C1064 1.258 . S
O1068 Zn1069 2.035 . S
Zn1069 O1068 2.035 . S
Zn1069 O1070 2.028 . S
Zn1069 O1072 2.028 . S
Zn1069 O1075 2.035 . S
O1070 Zn1069 2.028 . S
O1070 C1076 1.247 . S
O1071 Zn1067 2.035 . S
O1071 C1076 1.258 . S
O1072 C1065 1.247 . S
O1072 Zn1069 2.028 . S
O1073 C1065 1.258 . S
O1073 Zn1067 2.035 . S
O1074 Zn1067 2.028 . S
O1074 C1077 1.247 . S
O1075 Zn1069 2.035 . S
O1075 C1077 1.258 . S
C1076 O1070 1.247 . S
C1076 O1071 1.258 . S
C1077 O1074 1.247 . S
C1077 O1075 1.258 . S
C1078 O1080 1.247 . S
C1078 O1082 1.258 . S
C1079 O1086 1.247 . S
C1079 O1087 1.258 . S
O1080 C1078 1.247 . S
O1080 Zn1081 2.028 . S
Zn1081 O1080 2.028 . S
Zn1081 O1085 2.035 . S
Zn1081 O1087 2.035 . S
Zn1081 O1088 2.028 . S
O1082 C1078 1.258 . S
O1082 Zn1083 2.035 . S
Zn1083 O1082 2.035 . S
Zn1083 O1084 2.028 . S
Zn1083 O1086 2.028 . S
Zn1083 O1089 2.035 . S
O1084 Zn1083 2.028 . S
O1084 C1090 1.247 . S
O1085 Zn1081 2.035 . S
O1085 C1090 1.258 . S
O1086 C1079 1.247 . S
O1086 Zn1083 2.028 . S
O1087 C1079 1.258 . S
O1087 Zn1081 2.035 . S
O1088 Zn1081 2.028 . S
O1088 C1091 1.247 . S
O1089 Zn1083 2.035 . S
O1089 C1091 1.258 . S
C1090 O1084 1.247 . S
C1090 O1085 1.258 . S
C1091 O1088 1.247 . S
C1091 O1089 1.258 . S
C1092 O1094 1.247 . S
C1092 O1096 1.258 . S
C1093 O1100 1.247 . S
C1093 O1101 1.258 . S
O1094 C1092 1.247 . S
O1094 Zn1095 2.028 . S
Zn1095 O1094 2.028 . S
Zn1095 O1099 2.035 . S
Zn1095 O1101 2.035 . S
Zn1095 O1102 2.028 . S
O1096 C1092 1.258 . S
O1096 Zn1097 2.035 . S
Zn1097 O1096 2.035 . S
Zn1097 O1098 2.028 . S
Zn1097 O1100 2.028 . S
Zn1097 O1103 2.035 . S
O1098 Zn1097 2.028 . S
O1098 C1104 1.247 . S
O1099 Zn1095 2.035 . S
O1099 C1104 1.258 . S
O1100 C1093 1.247 . S
O1100 Zn1097 2.028 . S
O1101 C1093 1.258 . S
O1101 Zn1095 2.035 . S
O1102 Zn1095 2.028 . S
O1102 C1105 1.247 . S
O1103 Zn1097 2.035 . S
O1103 C1105 1.258 . S
C1104 O1098 1.247 . S
C1104 O1099 1.258 . S
C1105 O1102 1.247 . S
C1105 O1103 1.258 . S
C1106 O1108 1.247 . S
C1106 O1110 1.258 . S
C1107 O1114 1.247 . S
C1107 O1115 1.258 . S
O1108 C1106 1.247 . S
O1108 Zn1109 2.028 . S
Zn1109 O1108 2.028 . S
Zn1109 O1113 2.035 . S
Zn1109 O1115 2.035 . S
Zn1109 O1116 2.028 . S
O1110 C1106 1.258 . S
O1110 Zn1111 2.035 . S
Zn1111 O1110 2.035 . S
Zn1111 O1112 2.028 . S
Zn1111 O1114 2.028 . S
Zn1111 O1117 2.035 . S
O1112 Zn1111 2.028 . S
O1112 C1118 1.247 . S
O1113 Zn1109 2.035 . S
O1113 C1118 1.258 . S
O1114 C1107 1.247 . S
O1114 Zn1111 2.028 . S
O1115 C1107 1.258 . S
O1115 Zn1109 2.035 . S
O1116 Zn1109 2.028 . S
O1116 C1119 1.247 . S
O1117 Zn1111 2.035 . S
O1117 C1119 1.258 . S
C1118 O1112 1.247 . S
C1118 O1113 1.258 . S
C1119 O1116 1.247 . S
C1119 O1117 1.258 . S
C1120 O1122 1.247 . S
C1120 O1124 1.258 . S
C1121 O1128 1.247 . S
C1121 O1129 1.258 . S
O1122 C1120 1.247 . S
O1122 Zn1123 2.028 . S
Zn1123 O1122 2.028 . S
Zn1123 O1127 2.035 . S
Zn1123 O1129 2.035 . S
Zn1123 O1130 2.028 . S
O1124 C1120 1.258 . S
O1124 Zn1125 2.035 . S
Zn1125 O1124 2.035 . S
Zn1125 O1126 2.028 . S
Zn1125 O1128 2.028 . S
Zn1125 O1131 2.035 . S
O1126 Zn1125 2.028 . S
O1126 C1132 1.247 . S
O1127 Zn1123 2.035 . S
O1127 C1132 1.258 . S
O1128 C1121 1.247 . S
O1128 Zn1125 2.028 . S
O1129 C1121 1.258 . S
O1129 Zn1123 2.035 . S
O1130 Zn1123 2.028 . S
O1130 C1133 1.247 . S
O1131 Zn1125 2.035 . S
O1131 C1133 1.258 . S
C1132 O1126 1.247 . S
C1132 O1127 1.258 . S
C1133 O1130 1.247 . S
C1133 O1131 1.258 . S
C1134 O1136 1.247 . S
C1134 O1138 1.258 . S
C1135 O1142 1.247 . S
C1135 O1143 1.258 . S
O1136 C1134 1.247 . S
O1136 Zn1137 2.028 . S
Zn1137 O1136 2.028 . S
Zn1137 O1141 2.035 . S
Zn1137 O1143 2.035 . S
Zn1137 O1144 2.028 . S
O1138 C1134 1.258 . S
O1138 Zn1139 2.035 . S
Zn1139 O1138 2.035 . S
Zn1139 O1140 2.028 . S
Zn1139 O1142 2.028 . S
Zn1139 O1145 2.035 . S
O1140 Zn1139 2.028 . S
O1140 C1146 1.247 . S
O1141 Zn1137 2.035 . S
O1141 C1146 1.258 . S
O1142 C1135 1.247 . S
O1142 Zn1139 2.028 . S
O1143 C1135 1.258 . S
O1143 Zn1137 2.035 . S
O1144 Zn1137 2.028 . S
O1144 C1147 1.247 . S
O1145 Zn1139 2.035 . S
O1145 C1147 1.258 . S
C1146 O1140 1.247 . S
C1146 O1141 1.258 . S
C1147 O1144 1.247 . S
C1147 O1145 1.258 . S
C1148 O1150 1.247 . S
C1148 O1152 1.258 . S
C1149 O1156 1.247 . S
C1149 O1157 1.258 . S
O1150 C1148 1.247 . S
O1150 Zn1151 2.028 . S
Zn1151 O1150 2.028 . S
Zn1151 O1155 2.035 . S
Zn1151 O1157 2.035 . S
Zn1151 O1158 2.028 . S
O1152 C1148 1.258 . S
O1152 Zn1153 2.035 . S
Zn1153 O1152 2.035 . S
Zn1153 O1154 2.028 . S
Zn1153 O1156 2.028 . S
Zn1153 O1159 2.035 . S
O1154 Zn1153 2.028 . S
O1154 C1160 1.247 . S
O1155 Zn1151 2.035 . S
O1155 C1160 1.258 . S
O1156 C1149 1.247 . S
O1156 Zn1153 2.028 . S
O1157 C1149 1.258 . S
O1157 Zn1151 2.035 . S
O1158 Zn1151 2.028 . S
O1158 C1161 1.247 . S
O1159 Zn1153 2.035 . S
O1159 C1161 1.258 . S
C1160 O1154 1.247 . S
C1160 O1155 1.258 . S
C1161 O1158 1.247 . S
C1161 O1159 1.258 . S
C1162 O1164 1.247 . S
C1162 O1166 1.258 . S
C1163 O1170 1.247 . S
C1163 O1171 1.258 . S
O1164 C1162 1.247 . S
O1164 Zn1165 2.028 . S
Zn1165 O1164 2.028 . S
Zn1165 O1169 2.035 . S
Zn1165 O1171 2.035 . S
Zn1165 O1172 2.028 . S
O1166 C1162 1.258 . S
O1166 Zn1167 2.035 . S
Zn1167 O1166 2.035 . S
Zn1167 O1168 2.028 . S
Zn1167 O1170 2.028 . S
Zn1167 O1173 2.035 . S
O1168 Zn1167 2.028 . S
O1168 C1174 1.247 . S
O1169 Zn1165 2.035 . S
O1169 C1174 1.258 . S
O1170 C1163 1.247 . S
O1170 Zn1167 2.028 . S
O1171 C1163 1.258 . S
O1171 Zn1165 2.035 . S
O1172 Zn1165 2.028 . S
O1172 C1175 1.247 . S
O1173 Zn1167 2.035 . S
O1173 C1175 1.258 . S
C1174 O1168 1.247 . S
C1174 O1169 1.258 . S
C1175 O1172 1.247 . S
C1175 O1173 1.258 . S
C1176 O1178 1.247 . S
C1176 O1180 1.258 . S
C1177 O1184 1.247 . S
C1177 O1185 1.258 . S
O1178 C1176 1.247 . S
O1178 Zn1179 2.028 . S
Zn1179 O1178 2.028 . S
Zn1179 O1183 2.035 . S
Zn1179 O1185 2.035 . S
Zn1179 O1186 2.028 . S
O1180 C1176 1.258 . S
O1180 Zn1181 2.035 . S
Zn1181 O1180 2.035 . S
Zn1181 O1182 2.028 . S
Zn1181 O1184 2.028 . S
Zn1181 O1187 2.035 . S
O1182 Zn1181 2.028 . S
O1182 C1188 1.247 . S
O1183 Zn1179 2.035 . S
O1183 C1188 1.258 . S
O1184 C1177 1.247 . S
O1184 Zn1181 2.028 . S
O1185 C1177 1.258 . S
O1185 Zn1179 2.035 . S
O1186 Zn1179 2.028 . S
O1186 C1189 1.247 . S
O1187 Zn1181 2.035 . S
O1187 C1189 1.258 . S
C1188 O1182 1.247 . S
C1188 O1183 1.258 . S
C1189 O1186 1.247 . S
C1189 O1187 1.258 . S
C1190 O1192 1.247 . S
C1190 O1194 1.258 . S
C1191 O1198 1.247 . S
C1191 O1199 1.258 . S
O1192 C1190 1.247 . S
O1192 Zn1193 2.028 . S
Zn1193 O1192 2.028 . S
Zn1193 O1197 2.035 . S
Zn1193 O1199 2.035 . S
Zn1193 O1200 2.028 . S
O1194 C1190 1.258 . S
O1194 Zn1195 2.035 . S
Zn1195 O1194 2.035 . S
Zn1195 O1196 2.028 . S
Zn1195 O1198 2.028 . S
Zn1195 O1201 2.035 . S
O1196 Zn1195 2.028 . S
O1196 C1202 1.247 . S
O1197 Zn1193 2.035 . S
O1197 C1202 1.258 . S
O1198 C1191 1.247 . S
O1198 Zn1195 2.028 . S
O1199 C1191 1.258 . S
O1199 Zn1193 2.035 . S
O1200 Zn1193 2.028 . S
O1200 C1203 1.247 . S
O1201 Zn1195 2.035 . S
O1201 C1203 1.258 . S
C1202 O1196 1.247 . S
C1202 O1197 1.258 . S
C1203 O1200 1.247 . S
C1203 O1201 1.258 . S
C1204 O1206 1.247 . S
C1204 O1208 1.258 . S
C1205 O1212 1.247 . S
C1205 O1213 1.258 . S
O1206 C1204 1.247 . S
O1206 Zn1207 2.028 . S
Zn1207 O1206 2.028 . S
Zn1207 O1211 2.035 . S
Zn1207 O1213 2.035 . S
Zn1207 O1214 2.028 . S
O1208 C1204 1.258 . S
O1208 Zn1209 2.035 . S
Zn1209 O1208 2.035 . S
Zn1209 O1210 2.028 . S
Zn1209 O1212 2.028 . S
Zn1209 O1215 2.035 . S
O1210 Zn1209 2.028 . S
O1210 C1216 1.247 . S
O1211 Zn1207 2.035 . S
O1211 C1216 1.258 . S
O1212 C1205 1.247 . S
O1212 Zn1209 2.028 . S
O1213 C1205 1.258 . S
O1213 Zn1207 2.035 . S
O1214 Zn1207 2.028 . S
O1214 C1217 1.247 . S
O1215 Zn1209 2.035 . S
O1215 C1217 1.258 . S
C1216 O1210 1.247 . S
C1216 O1211 1.258 . S
C1217 O1214 1.247 . S
C1217 O1215 1.258 . S
C1218 O1220 1.247 . S
C1218 O1222 1.258 . S
C1219 O1226 1.247 . S
C1219 O1227 1.258 . S
O1220 C1218 1.247 . S
O1220 Zn1221 2.028 . S
Zn1221 O1220 2.028 . S
Zn1221 O1225 2.035 . S
Zn1221 O1227 2.035 . S
Zn1221 O1228 2.028 . S
O1222 C1218 1.258 . S
O1222 Zn1223 2.035 . S
Zn1223 O1222 2.035 . S
Zn1223 O1224 2.028 . S
Zn1223 O1226 2.028 . S
Zn1223 O1229 2.035 . S
O1224 Zn1223 2.028 . S
O1224 C1230 1.247 . S
O1225 Zn1221 2.035 . S
O1225 C1230 1.258 . S
O1226 C1219 1.247 . S
O1226 Zn1223 2.028 . S
O1227 C1219 1.258 . S
O1227 Zn1221 2.035 . S
O1228 Zn1221 2.028 . S
O1228 C1231 1.247 . S
O1229 Zn1223 2.035 . S
O1229 C1231 1.258 . S
C1230 O1224 1.247 . S
C1230 O1225 1.258 . S
C1231 O1228 1.247 . S
C1231 O1229 1.258 . S
C1232 O1234 1.247 . S
C1232 O1236 1.258 . S
C1233 O1240 1.247 . S
C1233 O1241 1.258 . S
O1234 C1232 1.247 . S
O1234 Zn1235 2.028 . S
Zn1235 O1234 2.028 . S
Zn1235 O1239 2.035 . S
Zn1235 O1241 2.035 . S
Zn1235 O1242 2.028 . S
O1236 C1232 1.258 . S
O1236 Zn1237 2.035 . S
Zn1237 O1236 2.035 . S
Zn1237 O1238 2.028 . S
Zn1237 O1240 2.028 . S
Zn1237 O1243 2.035 . S
O1238 Zn1237 2.028 . S
O1238 C1244 1.247 . S
O1239 Zn1235 2.035 . S
O1239 C1244 1.258 . S
O1240 C1233 1.247 . S
O1240 Zn1237 2.028 . S
O1241 C1233 1.258 . S
O1241 Zn1235 2.035 . S
O1242 Zn1235 2.028 . S
O1242 C1245 1.247 . S
O1243 Zn1237 2.035 . S
O1243 C1245 1.258 . S
C1244 O1238 1.247 . S
C1244 O1239 1.258 . S
C1245 O1242 1.247 . S
C1245 O1243 1.258 . S
C1246 O1248 1.247 . S
C1246 O1250 1.258 . S
C1247 O1254 1.247 . S
C1247 O1255 1.258 . S
O1248 C1246 1.247 . S
O1248 Zn1249 2.028 . S
Zn1249 O1248 2.028 . S
Zn1249 O1253 2.035 . S
Zn1249 O1255 2.035 . S
Zn1249 O1256 2.028 . S
O1250 C1246 1.258 . S
O1250 Zn1251 2.035 . S
Zn1251 O1250 2.035 . S
Zn1251 O1252 2.028 . S
Zn1251 O1254 2.028 . S
Zn1251 O1257 2.035 . S
O1252 Zn1251 2.028 . S
O1252 C1258 1.247 . S
O1253 Zn1249 2.035 . S
O1253 C1258 1.258 . S
O1254 C1247 1.247 . S
O1254 Zn1251 2.028 . S
O1255 C1247 1.258 . S
O1255 Zn1249 2.035 . S
O1256 Zn1249 2.028 . S
O1256 C1259 1.247 . S
O1257 Zn1251 2.035 . S
O1257 C1259 1.258 . S
C1258 O1252 1.247 . S
C1258 O1253 1.258 . S
C1259 O1256 1.247 . S
C1259 O1257 1.258 . S
C1260 O1262 1.247 . S
C1260 O1264 1.258 . S
C1261 O1268 1.247 . S
C1261 O1269 1.258 . S
O1262 C1260 1.247 . S
O1262 Zn1263 2.028 . S
Zn1263 O1262 2.028 . S
Zn1263 O1267 2.035 . S
Zn1263 O1269 2.035 . S
Zn1263 O1270 2.028 . S
O1264 C1260 1.258 . S
O1264 Zn1265 2.035 . S
Zn1265 O1264 2.035 . S
Zn1265 O1266 2.028 . S
Zn1265 O1268 2.028 . S
Zn1265 O1271 2.035 . S
O1266 Zn1265 2.028 . S
O1266 C1272 1.247 . S
O1267 Zn1263 2.035 . S
O1267 C1272 1.258 . S
O1268 C1261 1.247 . S
O1268 Zn1265 2.028 . S
O1269 C1261 1.258 . S
O1269 Zn1263 2.035 . S
O1270 Zn1263 2.028 . S
O1270 C1273 1.247 . S
O1271 Zn1265 2.035 . S
O1271 C1273 1.258 . S
C1272 O1266 1.247 . S
C1272 O1267 1.258 . S
C1273 O1270 1.247 . S
C1273 O1271 1.258 . S
C1274 O1276 1.247 . S
C1274 O1278 1.258 . S
C1275 O1282 1.247 . S
C1275 O1283 1.258 . S
O1276 C1274 1.247 . S
O1276 Zn1277 2.028 . S
Zn1277 O1276 2.028 . S
Zn1277 O1281 2.035 . S
Zn1277 O1283 2.035 . S
Zn1277 O1284 2.028 . S
O1278 C1274 1.258 . S
O1278 Zn1279 2.035 . S
Zn1279 O1278 2.035 . S
Zn1279 O1280 2.028 . S
Zn1279 O1282 2.028 . S
Zn1279 O1285 2.035 . S
O1280 Zn1279 2.028 . S
O1280 C1286 1.247 . S
O1281 Zn1277 2.035 . S
O1281 C1286 1.258 . S
O1282 C1275 1.247 . S
O1282 Zn1279 2.028 . S
O1283 C1275 1.258 . S
O1283 Zn1277 2.035 . S
O1284 Zn1277 2.028 . S
O1284 C1287 1.247 . S
O1285 Zn1279 2.035 . S
O1285 C1287 1.258 . S
C1286 O1280 1.247 . S
C1286 O1281 1.258 . S
C1287 O1284 1.247 . S
C1287 O1285 1.258 . S
C1288 O1290 1.247 . S
C1288 O1292 1.258 . S
C1289 O1296 1.247 . S
C1289 O1297 1.258 . S
O1290 C1288 1.247 . S
O1290 Zn1291 2.028 . S
Zn1291 O1290 2.028 . S
Zn1291 O1295 2.035 . S
Zn1291 O1297 2.035 . S
Zn1291 O1298 2.028 . S
O1292 C1288 1.258 . S
O1292 Zn1293 2.035 . S
Zn1293 O1292 2.035 . S
Zn1293 O1294 2.028 . S
Zn1293 O1296 2.028 . S
Zn1293 O1299 2.035 . S
O1294 Zn1293 2.028 . S
O1294 C1300 1.247 . S
O1295 Zn1291 2.035 . S
O1295 C1300 1.258 . S
O1296 C1289 1.247 . S
O1296 Zn1293 2.028 . S
O1297 C1289 1.258 . S
O1297 Zn1291 2.035 . S
O1298 Zn1291 2.028 . S
O1298 C1301 1.247 . S
O1299 Zn1293 2.035 . S
O1299 C1301 1.258 . S
C1300 O1294 1.247 . S
C1300 O1295 1.258 . S
C1301 O1298 1.247 . S
C1301 O1299 1.258 . S
C1302 O1304 1.247 . S
C1302 O1306 1.258 . S
C1303 O1310 1.247 . S
C1303 O1311 1.258 . S
O1304 C1302 1.247 . S
O1304 Zn1305 2.028 . S
Zn1305 O1304 2.028 . S
Zn1305 O1309 2.035 . S
Zn1305 O1311 2.035 . S
Zn1305 O1312 2.028 . S
O1306 C1302 1.258 . S
O1306 Zn1307 2.035 . S
Zn1307 O1306 2.035 . S
Zn1307 O1308 2.028 . S
Zn1307 O1310 2.028 . S
Zn1307 O1313 2.035 . S
O1308 Zn1307 2.028 . S
O1308 C1314 1.247 . S
O1309 Zn1305 2.035 . S
O1309 C1314 1.258 . S
O1310 C1303 1.247 . S
O1310 Zn1307 2.028 . S
O1311 C1303 1.258 . S
O1311 Zn1305 2.035 . S
O1312 Zn1305 2.028 . S
O1312 C1315 1.247 . S
O1313 Zn1307 2.035 . S
O1313 C1315 1.258 . S
C1314 O1308 1.247 . S
C1314 O1309 1.258 . S
C1315 O1312 1.247 . S
C1315 O1313 1.258 . S
C1316 O1318 1.247 . S
C1316 O1320 1.258 . S
C1317 O1324 1.247 . S
C1317 O1325 1.258 . S
O1318 C1316 1.247 . S
O1318 Zn1319 2.028 . S
Zn1319 O1318 2.028 . S
Zn1319 O1323 2.035 . S
Zn1319 O1325 2.035 . S
Zn1319 O1326 2.028 . S
O1320 C1316 1.258 . S
O1320 Zn1321 2.035 . S
Zn1321 O1320 2.035 . S
Zn1321 O1322 2.028 . S
Zn1321 O1324 2.028 . S
Zn1321 O1327 2.035 . S
O1322 Zn1321 2.028 . S
O1322 C1328 1.247 . S
O1323 Zn1319 2.035 . S
O1323 C1328 1.258 . S
O1324 C1317 1.247 . S
O1324 Zn1321 2.028 . S
O1325 C1317 1.258 . S
O1325 Zn1319 2.035 . S
O1326 Zn1319 2.028 . S
O1326 C1329 1.247 . S
O1327 Zn1321 2.035 . S
O1327 C1329 1.258 . S
C1328 O1322 1.247 . S
C1328 O1323 1.258 . S
C1329 O1326 1.247 . S
C1329 O1327 1.258 . S
C1330 O1332 1.247 . S
C1330 O1334 1.258 . S
C1331 O1338 1.247 . S
C1331 O1339 1.258 . S
O1332 C1330 1.247 . S
O1332 Zn1333 2.028 . S
Zn1333 O1332 2.028 . S
Zn1333 O1337 2.035 . S
Zn1333 O1339 2.035 . S
Zn1333 O1340 2.028 . S
O1334 C1330 1.258 . S
O1334 Zn1335 2.035 . S
Zn1335 O1334 2.035 . S
Zn1335 O1336 2.028 . S
Zn1335 O1338 2.028 . S
Zn1335 O1341 2.035 . S
O1336 Zn1335 2.028 . S
O1336 C1342 1.247 . S
O1337 Zn1333 2.035 . S
O1337 C1342 1.258 . S
O1338 C1331 1.247 . S
O1338 Zn1335 2.028 . S
O1339 C1331 1.258 . S
O1339 Zn1333 2.035 . S
O1340 Zn1333 2.028 . S
O1340 C1343 1.247 . S
O1341 Zn1335 2.035 . S
O1341 C1343 1.258 . S
C1342 O1336 1.247 . S
C1342 O1337 1.258 . S
C1343 O1340 1.247 . S
C1343 O1341 1.258 . S
C1344 O1346 1.247 . S
C1344 O1348 1.258 . S
C1345 O1352 1.247 . S
C1345 O1353 1.258 . S
O1346 C1344 1.247 . S
O1346 Zn1347 2.028 . S
Zn1347 O1346 2.028 . S
Zn1347 O1351 2.035 . S
Zn1347 O1353 2.035 . S
Zn1347 O1354 2.028 . S
O1348 C1344 1.258 . S
O1348 Zn1349 2.035 . S
Zn1349 O1348 2.035 . S
Zn1349 O1350 2.028 . S
Zn1349 O1352 2.028 . S
Zn1349 O1355 2.035 . S
O1350 Zn1349 2.028 . S
O1350 C1356 1.247 . S
O1351 Zn1347 2.035 . S
O1351 C1356 1.258 . S
O1352 C1345 1.247 . S
O1352 Zn1349 2.028 . S
O1353 C1345 1.258 . S
O1353 Zn1347 2.035 . S
O1354 Zn1347 2.028 . S
O1354 C1357 1.247 . S
O1355 Zn1349 2.035 . S
O1355 C1357 1.258 . S
C1356 O1350 1.247 . S
C1356 O1351 1.258 . S
C1357 O1354 1.247 . S
C1357 O1355 1.258 . S
C1358 O1360 1.247 . S
C1358 O1362 1.258 . S
C1359 O1366 1.247 . S
C1359 O1367 1.258 . S
O1360 C1358 1.247 . S
O1360 Zn1361 2.028 . S
Zn1361 O1360 2.028 . S
Zn1361 O1365 2.035 . S
Zn1361 O1367 2.035 . S
Zn1361 O1368 2.028 . S
O1362 C1358 1.258 . S
O1362 Zn1363 2.035 . S
Zn1363 O1362 2.035 . S
Zn1363 O1364 2.028 . S
Zn1363 O1366 2.028 . S
Zn1363 O1369 2.035 . S
O1364 Zn1363 2.028 . S
O1364 C1370 1.247 . S
O1365 Zn1361 2.035 . S
O1365 C1370 1.258 . S
O1366 C1359 1.247 . S
O1366 Zn1363 2.028 . S
O1367 C1359 1.258 . S
O1367 Zn1361 2.035 . S
O1368 Zn1361 2.028 . S
O1368 C1371 1.247 . S
O1369 Zn1363 2.035 . S
O1369 C1371 1.258 . S
C1370 O1364 1.247 . S
C1370 O1365 1.258 . S
C1371 O1368 1.247 . S
C1371 O1369 1.258 . S
C1372 O1374 1.247 . S
C1372 O1376 1.258 . S
C1373 O1380 1.247 . S
C1373 O1381 1.258 . S
O1374 C1372 1.247 . S
O1374 Zn1375 2.028 . S
Zn1375 O1374 2.028 . S
Zn1375 O1379 2.035 . S
Zn1375 O1381 2.035 . S
Zn1375 O1382 2.028 . S
O1376 C1372 1.258 . S
O1376 Zn1377 2.035 . S
Zn1377 O1376 2.035 . S
Zn1377 O1378 2.028 . S
Zn1377 O1380 2.028 . S
Zn1377 O1383 2.035 . S
O1378 Zn1377 2.028 . S
O1378 C1384 1.247 . S
O1379 Zn1375 2.035 . S
O1379 C1384 1.258 . S
O1380 C1373 1.247 . S
O1380 Zn1377 2.028 . S
O1381 C1373 1.258 . S
O1381 Zn1375 2.035 . S
O1382 Zn1375 2.028 . S
O1382 C1385 1.247 . S
O1383 Zn1377 2.035 . S
O1383 C1385 1.258 . S
C1384 O1378 1.247 . S
C1384 O1379 1.258 . S
C1385 O1382 1.247 . S
C1385 O1383 1.258 . S
C1386 O1388 1.247 . S
C1386 O1390 1.258 . S
C1387 O1394 1.247 . S
C1387 O1395 1.258 . S
O1388 C1386 1.247 . S
O1388 Zn1389 2.028 . S
Zn1389 O1388 2.028 . S
Zn1389 O1393 2.035 . S
Zn1389 O1395 2.035 . S
Zn1389 O1396 2.028 . S
O1390 C1386 1.258 . S
O1390 Zn1391 2.035 . S
Zn1391 O1390 2.035 . S
Zn1391 O1392 2.028 . S
Zn1391 O1394 2.028 . S
Zn1391 O1397 2.035 . S
O1392 Zn1391 2.028 . S
O1392 C1398 1.247 . S
O1393 Zn1389 2.035 . S
O1393 C1398 1.258 . S
O1394 C1387 1.247 . S
O1394 Zn1391 2.028 . S
O1395 C1387 1.258 . S
O1395 Zn1389 2.035 . S
O1396 Zn1389 2.028 . S
O1396 C1399 1.247 . S
O1397 Zn1391 2.035 . S
O1397 C1399 1.258 . S
C1398 O1392 1.247 . S
C1398 O1393 1.258 . S
C1399 O1396 1.247 . S
C1399 O1397 1.258 . S
C1400 O1402 1.247 . S
C1400 O1404 1.258 . S
C1401 O1408 1.247 . S
C1401 O1409 1.258 . S
O1402 C1400 1.247 . S
O1402 Zn1403 2.028 . S
Zn1403 O1402 2.028 . S
Zn1403 O1407 2.035 . S
Zn1403 O1409 2.035 . S
Zn1403 O1410 2.028 . S
O1404 C1400 1.258 . S
O1404 Zn1405 2.035 . S
Zn1405 O1404 2.035 . S
Zn1405 O1406 2.028 . S
Zn1405 O1408 2.028 . S
Zn1405 O1411 2.035 . S
O1406 Zn1405 2.028 . S
O1406 C1412 1.247 . S
O1407 Zn1403 2.035 . S
O1407 C1412 1.258 . S
O1408 C1401 1.247 . S
O1408 Zn1405 2.028 . S
O1409 C1401 1.258 . S
O1409 Zn1403 2.035 . S
O1410 Zn1403 2.028 . S
O1410 C1413 1.247 . S
O1411 Zn1405 2.035 . S
O1411 C1413 1.258 . S
C1412 O1406 1.247 . S
C1412 O1407 1.258 . S
C1413 O1410 1.247 . S
C1413 O1411 1.258 . S
C1414 O1416 1.247 . S
C1414 O1418 1.258 . S
C1415 O1422 1.247 . S
C1415 O1423 1.258 . S
O1416 C1414 1.247 . S
O1416 Zn1417 2.028 . S
Zn1417 O1416 2.028 . S
Zn1417 O1421 2.035 . S
Zn1417 O1423 2.035 . S
Zn1417 O1424 2.028 . S
O1418 C1414 1.258 . S
O1418 Zn1419 2.035 . S
Zn1419 O1418 2.035 . S
Zn1419 O1420 2.028 . S
Zn1419 O1422 2.028 . S
Zn1419 O1425 2.035 . S
O1420 Zn1419 2.028 . S
O1420 C1426 1.247 . S
O1421 Zn1417 2.035 . S
O1421 C1426 1.258 . S
O1422 C1415 1.247 . S
O1422 Zn1419 2.028 . S
O1423 C1415 1.258 . S
O1423 Zn1417 2.035 . S
O1424 Zn1417 2.028 . S
O1424 C1427 1.247 . S
O1425 Zn1419 2.035 . S
O1425 C1427 1.258 . S
C1426 O1420 1.247 . S
C1426 O1421 1.258 . S
C1427 O1424 1.247 . S
C1427 O1425 1.258 . S
C1428 O1430 1.247 . S
C1428 O1432 1.258 . S
C1429 O1436 1.247 . S
C1429 O1437 1.258 . S
O1430 C1428 1.247 . S
O1430 Zn1431 2.028 . S
Zn1431 O1430 2.028 . S
Zn1431 O1435 2.035 . S
Zn1431 O1437 2.035 . S
Zn1431 O1438 2.028 . S
O1432 C1428 1.258 . S
O1432 Zn1433 2.035 . S
Zn1433 O1432 2.035 . S
Zn1433 O1434 2.028 . S
Zn1433 O1436 2.028 . S
Zn1433 O1439 2.035 . S
O1434 Zn1433 2.028 . S
O1434 C1440 1.247 . S
O1435 Zn1431 2.035 . S
O1435 C1440 1.258 . S
O1436 C1429 1.247 . S
O1436 Zn1433 2.028 . S
O1437 C1429 1.258 . S
O1437 Zn1431 2.035 . S
O1438 Zn1431 2.028 . S
O1438 C1441 1.247 . S
O1439 Zn1433 2.035 . S
O1439 C1441 1.258 . S
C1440 O1434 1.247 . S
C1440 O1435 1.258 . S
C1441 O1438 1.247 . S
C1441 O1439 1.258 . S
C1442 O1444 1.247 . S
C1442 O1446 1.258 . S
C1443 O1450 1.247 . S
C1443 O1451 1.258 . S
O1444 C1442 1.247 . S
O1444 Zn1445 2.028 . S
Zn1445 O1444 2.028 . S
Zn1445 O1449 2.035 . S
Zn1445 O1451 2.035 . S
Zn1445 O1452 2.028 . S
O1446 C1442 1.258 . S
O1446 Zn1447 2.035 . S
Zn1447 O1446 2.035 . S
Zn1447 O1448 2.028 . S
Zn1447 O1450 2.028 . S
Zn1447 O1453 2.035 . S
O1448 Zn1447 2.028 . S
O1448 C1454 1.247 . S
O1449 Zn1445 2.035 . S
O1449 C1454 1.258 . S
O1450 C1443 1.247 . S
O1450 Zn1447 2.028 . S
O1451 C1443 1.258 . S
O1451 Zn1445 2.035 . S
O1452 Zn1445 2.028 . S
O1452 C1455 1.247 . S
O1453 Zn1447 2.035 . S
O1453 C1455 1.258 . S
C1454 O1448 1.247 . S
C1454 O1449 1.258 . S
C1455 O1452 1.247 . S
C1455 O1453 1.258 . S
C1456 O1458 1.247 . S
C1456 O1460 1.258 . S
C1457 O1464 1.247 . S
C1457 O1465 1.258 . S
O1458 C1456 1.247 . S
O1458 Zn1459 2.028 . S
Zn1459 O1458 2.028 . S
Zn1459 O1463 2.035 . S
Zn1459 O1465 2.035 . S
Zn1459 O1466 2.028 . S
O1460 C1456 1.258 . S
O1460 Zn1461 2.035 . S
Zn1461 O1460 2.035 . S
Zn1461 O1462 2.028 . S
Zn1461 O1464 2.028 . S
Zn1461 O1467 2.035 . S
O1462 Zn1461 2.028 . S
O1462 C1468 1.247 . S
O1463 Zn1459 2.035 . S
O1463 C1468 1.258 . S
O1464 C1457 1.247 . S
O1464 Zn1461 2.028 . S
O1465 C1457 1.258 . S
O1465 Zn1459 2.035 . S
O1466 Zn1459 2.028 . S
O1466 C1469 1.247 . S
O1467 Zn1461 2.035 . S
O1467 C1469 1.258 . S
C1468 O1462 1.247 . S
C1468 O1463 1.258 . S
C1469 O1466 1.247 . S
C1469 O1467 1.258 . S
C1470 O1472 1.247 . S
C1470 O1474 1.258 . S
C1471 O1478 1.247 . S
C1471 O1479 1.258 . S
O1472 C1470 1.247 . S
O1472 Zn1473 2.028 . S
Zn1473 O1472 2.028 . S
Zn1473 O1477 2.035 . S
Zn1473 O1479 2.035 . S
Zn1473 O1480 2.028 . S
O1474 C1470 1.258 . S
O1474 Zn1475 2.035 . S
Zn1475 O1474 2.035 . S
Zn1475 O1476 2.028 . S
Zn1475 O1478 2.028 . S
Zn1475 O1481 2.035 . S
O1476 Zn1475 2.028 . S
O1476 C1482 1.247 . S
O1477 Zn1473 2.035 . S
O1477 C1482 1.258 . S
O1478 C1471 1.247 . S
O1478 Zn1475 2.028 . S
O1479 C1471 1.258 . S
O1479 Zn1473 2.035 . S
O1480 Zn1473 2.028 . S
O1480 C1483 1.247 . S
O1481 Zn1475 2.035 . S
O1481 C1483 1.258 . S
C1482 O1476 1.247 . S
C1482 O1477 1.258 . S
C1483 O1480 1.247 . S
C1483 O1481 1.258 . S
C1484 O1486 1.247 . S
C1484 O1488 1.258 . S
C1485 O1492 1.247 . S
C1485 O1493 1.258 . S
O1486 C1484 1.247 . S
O1486 Zn1487 2.028 . S
Zn1487 O1486 2.028 . S
Zn1487 O1491 2.035 . S
Zn1487 O1493 2.035 . S
Zn1487 O1494 2.028 . S
O1488 C1484 1.258 . S
O1488 Zn1489 2.035 . S
Zn1489 O1488 2.035 . S
Zn1489 O1490 2.028 . S
Zn1489 O1492 2.028 . S
Zn1489 O1495 2.035 . S
O1490 Zn1489 2.028 . S
O1490 C1496 1.247 . S
O1491 Zn1487 2.035 . S
O1491 C1496 1.258 . S
O1492 C1485 1.247 . S
O1492 Zn1489 2.028 . S
O1493 C1485 1.258 . S
O1493 Zn1487 2.035 . S
O1494 Zn1487 2.028 . S
O1494 C1497 1.247 . S
O1495 Zn1489 2.035 . S
O1495 C1497 1.258 . S
C1496 O1490 1.247 . S
C1496 O1491 1.258 . S
C1497 O1494 1.247 . S
C1497 O1495 1.258 . S
C1498 O1500 1.247 . S
C1498 O1502 1.258 . S
C1499 O1506 1.247 . S
C1499 O1507 1.258 . S
O1500 C1498 1.247 . S
O1500 Zn1501 2.028 . S
Zn1501 O1500 2.028 . S
Zn1501 O1505 2.035 . S
Zn1501 O1507 2.035 . S
Zn1501 O1508 2.028 . S
O1502 C1498 1.258 . S
O1502 Zn1503 2.035 . S
Zn1503 O1502 2.035 . S
Zn1503 O1504 2.028 . S
Zn1503 O1506 2.028 . S
Zn1503 O1509 2.035 . S
O1504 Zn1503 2.028 . S
O1504 C1510 1.247 . S
O1505 Zn1501 2.035 . S
O1505 C1510 1.258 . S
O1506 C1499 1.247 . S
O1506 Zn1503 2.028 . S
O1507 C1499 1.258 . S
O1507 Zn1501 2.035 . S
O1508 Zn1501 2.028 . S
O1508 C1511 1.247 . S
O1509 Zn1503 2.035 . S
O1509 C1511 1.258 . S
C1510 O1504 1.247 . S
C1510 O1505 1.258 . S
C1511 O1508 1.247 . S
C1511 O1509 1.258 . S
C1512 O1514 1.247 . S
C1512 O1516 1.258 . S
C1513 O1520 1.247 . S
C1513 O1521 1.258 . S
O1514 C1512 1.247 . S
O1514 Zn1515 2.028 . S
Zn1515 O1514 2.028 . S
Zn1515 O1519 2.035 . S
Zn1515 O1521 2.035 . S
Zn1515 O1522 2.028 . S
O1516 C1512 1.258 . S
O1516 Zn1517 2.035 . S
Zn1517 O1516 2.035 . S
Zn1517 O1518 2.028 . S
Zn1517 O1520 2.028 . S
Zn1517 O1523 2.035 . S
O1518 Zn1517 2.028 . S
O1518 C1524 1.247 . S
O1519 Zn1515 2.035 . S
O1519 C1524 1.258 . S
O1520 C1513 1.247 . S
O1520 Zn1517 2.028 . S
O1521 C1513 1.258 . S
O1521 Zn1515 2.035 . S
O1522 Zn1515 2.028 . S
O1522 C1525 1.247 . S
O1523 Zn1517 2.035 . S
O1523 C1525 1.258 . S
C1524 O1518 1.247 . S
C1524 O1519 1.258 . S
C1525 O1522 1.247 . S
C1525 O1523 1.258 . S
C1526 O1528 1.247 . S
C1526 O1530 1.258 . S
C1527 O1534 1.247 . S
C1527 O1535 1.258 . S
O1528 C1526 1.247 . S
O1528 Zn1529 2.028 . S
Zn1529 O1528 2.028 . S
Zn1529 O1533 2.035 . S
Zn1529 O1535 2.035 . S
Zn1529 O1536 2.028 . S
O1530 C1526 1.258 . S
O1530 Zn1531 2.035 . S
Zn1531 O1530 2.035 . S
Zn1531 O1532 2.028 . S
Zn1531 O1534 2.028 . S
Zn1531 O1537 2.035 . S
O1532 Zn1531 2.028 . S
O1532 C1538 1.247 . S
O1533 Zn1529 2.035 . S
O1533 C1538 1.258 . S
O1534 C1527 1.247 . S
O1534 Zn1531 2.028 . S
O1535 C1527 1.258 . S
O1535 Zn1529 2.035 . S
O1536 Zn1529 2.028 . S
O1536 C1539 1.247 . S
O1537 Zn1531 2.035 . S
O1537 C1539 1.258 . S
C1538 O1532 1.247 . S
C1538 O1533 1.258 . S
C1539 O1536 1.247 . S
C1539 O1537 1.258 . S
C1540 O1542 1.247 . S
C1540 O1544 1.258 . S
C1541 O1548 1.247 . S
C1541 O1549 1.258 . S
O1542 C1540 1.247 . S
O1542 Zn1543 2.028 . S
Zn1543 O1542 2.028 . S
Zn1543 O1547 2.035 . S
Zn1543 O1549 2.035 . S
Zn1543 O1550 2.028 . S
O1544 C1540 1.258 . S
O1544 Zn1545 2.035 . S
Zn1545 O1544 2.035 . S
Zn1545 O1546 2.028 . S
Zn1545 O1548 2.028 . S
Zn1545 O1551 2.035 . S
O1546 Zn1545 2.028 . S
O1546 C1552 1.247 . S
O1547 Zn1543 2.035 . S
O1547 C1552 1.258 . S
O1548 C1541 1.247 . S
O1548 Zn1545 2.028 . S
O1549 C1541 1.258 . S
O1549 Zn1543 2.035 . S
O1550 Zn1543 2.028 . S
O1550 C1553 1.247 . S
O1551 Zn1545 2.035 . S
O1551 C1553 1.258 . S
C1552 O1546 1.247 . S
C1552 O1547 1.258 . S
C1553 O1550 1.247 . S
C1553 O1551 1.258 . S
C1554 O1556 1.247 . S
C1554 O1558 1.258 . S
C1555 O1562 1.247 . S
C1555 O1563 1.258 . S
O1556 C1554 1.247 . S
O1556 Zn1557 2.028 . S
Zn1557 O1556 2.028 . S
Zn1557 O1561 2.035 . S
Zn1557 O1563 2.035 . S
Zn1557 O1564 2.028 . S
O1558 C1554 1.258 . S
O1558 Zn1559 2.035 . S
Zn1559 O1558 2.035 . S
Zn1559 O1560 2.028 . S
Zn1559 O1562 2.028 . S
Zn1559 O1565 2.035 . S
O1560 Zn1559 2.028 . S
O1560 C1566 1.247 . S
O1561 Zn1557 2.035 . S
O1561 C1566 1.258 . S
O1562 C1555 1.247 . S
O1562 Zn1559 2.028 . S
O1563 C1555 1.258 . S
O1563 Zn1557 2.035 . S
O1564 Zn1557 2.028 . S
O1564 C1567 1.247 . S
O1565 Zn1559 2.035 . S
O1565 C1567 1.258 . S
C1566 O1560 1.247 . S
C1566 O1561 1.258 . S
C1567 O1564 1.247 . S
C1567 O1565 1.258 . S
C1568 O1570 1.247 . S
C1568 O1572 1.258 . S
C1569 O1576 1.247 . S
C1569 O1577 1.258 . S
O1570 C1568 1.247 . S
O1570 Zn1571 2.028 . S
Zn1571 O1570 2.028 . S
Zn1571 O1575 2.035 . S
Zn1571 O1577 2.035 . S
Zn1571 O1578 2.028 . S
O1572 C1568 1.258 . S
O1572 Zn1573 2.035 . S
Zn1573 O1572 2.035 . S
Zn1573 O1574 2.028 . S
Zn1573 O1576 2.028 . S
Zn1573 O1579 2.035 . S
O1574 Zn1573 2.028 . S
O1574 C1580 1.247 . S
O1575 Zn1571 2.035 . S
O1575 C1580 1.258 . S
O1576 C1569 1.247 . S
O1576 Zn1573 2.028 . S
O1577 C1569 1.258 . S
O1577 Zn1571 2.035 . S
O1578 Zn1571 2.028 . S
O1578 C1581 1.247 . S
O1579 Zn1573 2.035 . S
O1579 C1581 1.258 . S
C1580 O1574 1.247 . S
C1580 O1575 1.258 . S
C1581 O1578 1.247 . S
C1581 O1579 1.258 . S
C1582 O1584 1.247 . S
C1582 O1586 1.258 . S
C1583 O1590 1.247 . S
C1583 O1591 1.258 . S
O1584 C1582 1.247 . S
O1584 Zn1585 2.028 . S
Zn1585 O1584 2.028 . S
Zn1585 O1589 2.035 . S
Zn1585 O1591 2.035 . S
Zn1585 O1592 2.028 . S
O1586 C1582 1.258 . S
O1586 Zn1587 2.035 . S
Zn1587 O1586 2.035 . S
Zn1587 O1588 2.028 . S
Zn1587 O1590 2.028 . S
Zn1587 O1593 2.035 . S
O1588 Zn1587 2.028 . S
O1588 C1594 1.247 . S
O1589 Zn1585 2.035 . S
O1589 C1594 1.258 . S
O1590 C1583 1.247 . S
O1590 Zn1587 2.028 . S
O1591 C1583 1.258 . S
O1591 Zn1585 2.035 . S
O1592 Zn1585 2.028 . S
O1592 C1595 1.247 . S
O1593 Zn1587 2.035 . S
O1593 C1595 1.258 . S
C1594 O1588 1.247 . S
C1594 O1589 1.258 . S
C1595 O1592 1.247 . S
C1595 O1593 1.258 . S
C1596 O1598 1.247 . S
C1596 O1600 1.258 . S
C1597 O1604 1.247 . S
C1597 O1605 1.258 . S
O1598 C1596 1.247 . S
O1598 Zn1599 2.028 . S
Zn1599 O1598 2.028 . S
Zn1599 O1603 2.035 . S
Zn1599 O1605 2.035 . S
Zn1599 O1606 2.028 . S
O1600 C1596 1.258 . S
O1600 Zn1601 2.035 . S
Zn1601 O1600 2.035 . S
Zn1601 O1602 2.028 . S
Zn1601 O1604 2.028 . S
Zn1601 O1607 2.035 . S
O1602 Zn1601 2.028 . S
O1602 C1608 1.247 . S
O1603 Zn1599 2.035 . S
O1603 C1608 1.258 . S
O1604 C1597 1.247 . S
O1604 Zn1601 2.028 . S
O1605 C1597 1.258 . S
O1605 Zn1599 2.035 . S
O1606 Zn1599 2.028 . S
O1606 C1609 1.247 . S
O1607 Zn1601 2.035 . S
O1607 C1609 1.258 . S
C1608 O1602 1.247 . S
C1608 O1603 1.258 . S
C1609 O1606 1.247 . S
C1609 O1607 1.258 . S
C1610 O1612 1.247 . S
C1610 O1614 1.258 . S
C1611 O1618 1.247 . S
C1611 O1619 1.258 . S
O1612 C1610 1.247 . S
O1612 Zn1613 2.028 . S
Zn1613 O1612 2.028 . S
Zn1613 O1617 2.035 . S
Zn1613 O1619 2.035 . S
Zn1613 O1620 2.028 . S
O1614 C1610 1.258 . S
O1614 Zn1615 2.035 . S
Zn1615 O1614 2.035 . S
Zn1615 O1616 2.028 . S
Zn1615 O1618 2.028 . S
Zn1615 O1621 2.035 . S
O1616 Zn1615 2.028 . S
O1616 C1622 1.247 . S
O1617 Zn1613 2.035 . S
O1617 C1622 1.258 . S
O1618 C1611 1.247 . S
O1618 Zn1615 2.028 . S
O1619 C1611 1.258 . S
O1619 Zn1613 2.035 . S
O1620 Zn1613 2.028 . S
O1620 C1623 1.247 . S
O1621 Zn1615 2.035 . S
O1621 C1623 1.258 . S
C1622 O1616 1.247 . S
C1622 O1617 1.258 . S
C1623 O1620 1.247 . S
C1623 O1621 1.258 . S
C1624 O1626 1.247 . S
C1624 O1628 1.258 . S
C1625 O1632 1.247 . S
C1625 O1633 1.258 . S
O1626 C1624 1.247 . S
O1626 Zn1627 2.028 . S
Zn1627 O1626 2.028 . S
Zn1627 O1631 2.035 . S
Zn1627 O1633 2.035 . S
Zn1627 O1634 2.028 . S
O1628 C1624 1.258 . S
O1628 Zn1629 2.035 . S
Zn1629 O1628 2.035 . S
Zn1629 O1630 2.028 . S
Zn1629 O1632 2.028 . S
Zn1629 O1635 2.035 . S
O1630 Zn1629 2.028 . S
O1630 C1636 1.247 . S
O1631 Zn1627 2.035 . S
O1631 C1636 1.258 . S
O1632 C1625 1.247 . S
O1632 Zn1629 2.028 . S
O1633 C1625 1.258 . S
O1633 Zn1627 2.035 . S
O1634 Zn1627 2.028 . S
O1634 C1637 1.247 . S
O1635 Zn1629 2.035 . S
O1635 C1637 1.258 . S
C1636 O1630 1.247 . S
C1636 O1631 1.258 . S
C1637 O1634 1.247 . S
C1637 O1635 1.258 . S
C1638 O1640 1.247 . S
C1638 O1642 1.258 . S
C1639 O1646 1.247 . S
C1639 O1647 1.258 . S
O1640 C1638 1.247 . S
O1640 Zn1641 2.028 . S
Zn1641 O1640 2.028 . S
Zn1641 O1645 2.035 . S
Zn1641 O1647 2.035 . S
Zn1641 O1648 2.028 . S
O1642 C1638 1.258 . S
O1642 Zn1643 2.035 . S
Zn1643 O1642 2.035 . S
Zn1643 O1644 2.028 . S
Zn1643 O1646 2.028 . S
Zn1643 O1649 2.035 . S
O1644 Zn1643 2.028 . S
O1644 C1650 1.247 . S
O1645 Zn1641 2.035 . S
O1645 C1650 1.258 . S
O1646 C1639 1.247 . S
O1646 Zn1643 2.028 . S
O1647 C1639 1.258 . S
O1647 Zn1641 2.035 . S
O1648 Zn1641 2.028 . S
O1648 C1651 1.247 . S
O1649 Zn1643 2.035 . S
O1649 C1651 1.258 . S
C1650 O1644 1.247 . S
C1650 O1645 1.258 . S
C1651 O1648 1.247 . S
C1651 O1649 1.258 . S
C1652 O1654 1.247 . S
C1652 O1656 1.258 . S
C1653 O1660 1.247 . S
C1653 O1661 1.258 . S
O1654 C1652 1.247 . S
O1654 Zn1655 2.028 . S
Zn1655 O1654 2.028 . S
Zn1655 O1659 2.035 . S
Zn1655 O1661 2.035 . S
Zn1655 O1662 2.028 . S
O1656 C1652 1.258 . S
O1656 Zn1657 2.035 . S
Zn1657 O1656 2.035 . S
Zn1657 O1658 2.028 . S
Zn1657 O1660 2.028 . S
Zn1657 O1663 2.035 . S
O1658 Zn1657 2.028 . S
O1658 C1664 1.247 . S
O1659 Zn1655 2.035 . S
O1659 C1664 1.258 . S
O1660 C1653 1.247 . S
O1660 Zn1657 2.028 . S
O1661 C1653 1.258 . S
O1661 Zn1655 2.035 . S
O1662 Zn1655 2.028 . S
O1662 C1665 1.247 . S
O1663 Zn1657 2.035 . S
O1663 C1665 1.258 . S
C1664 O1658 1.247 . S
C1664 O1659 1.258 . S
C1665 O1662 1.247 . S
C1665 O1663 1.258 . S
C1666 O1668 1.247 . S
C1666 O1670 1.258 . S
C1667 O1674 1.247 . S
C1667 O1675 1.258 . S
O1668 C1666 1.247 . S
O1668 Zn1669 2.028 . S
Zn1669 O1668 2.028 . S
Zn1669 O1673 2.035 . S
Zn1669 O1675 2.035 . S
Zn1669 O1676 2.028 . S
O1670 C1666 1.258 . S
O1670 Zn1671 2.035 . S
Zn1671 O1670 2.035 . S
Zn1671 O1672 2.028 . S
Zn1671 O1674 2.028 . S
Zn1671 O1677 2.035 . S
O1672 Zn1671 2.028 . S
O1672 C1678 1.247 . S
O1673 Zn1669 2.035 . S
O1673 C1678 1.258 . S
O1674 C1667 1.247 . S
O1674 Zn1671 2.028 . S
O1675 C1667 1.258 . S
O1675 Zn1669 2.035 . S
O1676 Zn1669 2.028 . S
O1676 C1679 1.247 . S
O1677 Zn1671 2.035 . S
O1677 C1679 1.258 . S
C1678 O1672 1.247 . S
C1678 O1673 1.258 . S
C1679 O1676 1.247 . S
C1679 O1677 1.258 . S
C1680 O1682 1.247 . S
C1680 O1684 1.258 . S
C1681 O1688 1.247 . S
C1681 O1689 1.258 . S
O1682 C1680 1.247 . S
O1682 Zn1683 2.028 . S
Zn1683 O1682 2.028 . S
Zn1683 O1687 2.035 . S
Zn1683 O1689 2.035 . S
Zn1683 O1690 2.028 . S
O1684 C1680 1.258 . S
O1684 Zn1685 2.035 . S
Zn1685 O1684 2.035 . S
Zn1685 O1686 2.028 . S
Zn1685 O1688 2.028 . S
Zn1685 O1691 2.035 . S
O1686 Zn1685 2.028 . S
O1686 C1692 1.247 . S
O1687 Zn1683 2.035 . S
O1687 C1692 1.258 . S
O1688 C1681 1.247 . S
O1688 Zn1685 2.028 . S
O1689 C1681 1.258 . S
O1689 Zn1683 2.035 . S
O1690 Zn1683 2.028 . S
O1690 C1693 1.247 . S
O1691 Zn1685 2.035 . S
O1691 C1693 1.258 . S
C1692 O1686 1.247 . S
C1692 O1687 1.258 . S
C1693 O1690 1.247 . S
C1693 O1691 1.258 . S
C1694 O1696 1.247 . S
C1694 O1698 1.258 . S
C1695 O1702 1.247 . S
C1695 O1703 1.258 . S
O1696 C1694 1.247 . S
O1696 Zn1697 2.028 . S
Zn1697 O1696 2.028 . S
Zn1697 O1701 2.035 . S
Zn1697 O1703 2.035 . S
Zn1697 O1704 2.028 . S
O1698 C1694 1.258 . S
O1698 Zn1699 2.035 . S
Zn1699 O1698 2.035 . S
Zn1699 O1700 2.028 . S
Zn1699 O1702 2.028 . S
Zn1699 O1705 2.035 . S
O1700 Zn1699 2.028 . S
O1700 C1706 1.247 . S
O1701 Zn1697 2.035 . S
O1701 C1706 1.258 . S
O1702 C1695 1.247 . S
O1702 Zn1699 2.028 . S
O1703 C1695 1.258 . S
O1703 Zn1697 2.035 . S
O1704 Zn1697 2.028 . S
O1704 C1707 1.247 . S
O1705 Zn1699 2.035 . S
O1705 C1707 1.258 . S
C1706 O1700 1.247 . S
C1706 O1701 1.258 . S
C1707 O1704 1.247 . S
C1707 O1705 1.258 . S
C1708 O1710 1.247 . S
C1708 O1712 1.258 . S
C1709 O1716 1.247 . S
C1709 O1717 1.258 . S
O1710 C1708 1.247 . S
O1710 Zn1711 2.028 . S
Zn1711 O1710 2.028 . S
Zn1711 O1715 2.035 . S
Zn1711 O1717 2.035 . S
Zn1711 O1718 2.028 . S
O1712 C1708 1.258 . S
O1712 Zn1713 2.035 . S
Zn1713 O1712 2.035 . S
Zn1713 O1714 2.028 . S
Zn1713 O1716 2.028 . S
Zn1713 O1719 2.035 . S
O1714 Zn1713 2.028 . S
O1714 C1720 1.247 . S
O1715 Zn1711 2.035 . S
O1715 C1720 1.258 . S
O1716 C1709 1.247 . S
O1716 Zn1713 2.028 . S
O1717 C1709 1.258 . S
O1717 Zn1711 2.035 . S
O1718 Zn1711 2.028 . S
O1718 C1721 1.247 . S
O1719 Zn1713 2.035 . S
O1719 C1721 1.258 . S
C1720 O1714 1.247 . S
C1720 O1715 1.258 . S
C1721 O1718 1.247 . S
C1721 O1719 1.258 . S
C1722 O1724 1.247 . S
C1722 O1726 1.258 . S
C1723 O1730 1.247 . S
C1723 O1731 1.258 . S
O1724 C1722 1.247 . S
O1724 Zn1725 2.028 . S
Zn1725 O1724 2.028 . S
Zn1725 O1729 2.035 . S
Zn1725 O1731 2.035 . S
Zn1725 O1732 2.028 . S
O1726 C1722 1.258 . S
O1726 Zn1727 2.035 . S
Zn1727 O1726 2.035 . S
Zn1727 O1728 2.028 . S
Zn1727 O1730 2.028 . S
Zn1727 O1733 2.035 . S
O1728 Zn1727 2.028 . S
O1728 C1734 1.247 . S
O1729 Zn1725 2.035 . S
O1729 C1734 1.258 . S
O1730 C1723 1.247 . S
O1730 Zn1727 2.028 . S
O1731 C1723 1.258 . S
O1731 Zn1725 2.035 . S
O1732 Zn1725 2.028 . S
O1732 C1735 1.247 . S
O1733 Zn1727 2.035 . S
O1733 C1735 1.258 . S
C1734 O1728 1.247 . S
C1734 O1729 1.258 . S
C1735 O1732 1.247 . S
C1735 O1733 1.258 . S
C1736 O1738 1.247 . S
C1736 O1740 1.258 . S
C1737 O1744 1.247 . S
C1737 O1745 1.258 . S
O1738 C1736 1.247 . S
O1738 Zn1739 2.028 . S
Zn1739 O1738 2.028 . S
Zn1739 O1743 2.035 . S
Zn1739 O1745 2.035 . S
Zn1739 O1746 2.028 . S
O1740 C1736 1.258 . S
O1740 Zn1741 2.035 . S
Zn1741 O1740 2.035 . S
Zn1741 O1742 2.028 . S
Zn1741 O1744 2.028 . S
Zn1741 O1747 2.035 . S
O1742 Zn1741 2.028 . S
O1742 C1748 1.247 . S
O1743 Zn1739 2.035 . S
O1743 C1748 1.258 . S
O1744 C1737 1.247 . S
O1744 Zn1741 2.028 . S
O1745 C1737 1.258 . S
O1745 Zn1739 2.035 . S
O1746 Zn1739 2.028 . S
O1746 C1749 1.247 . S
O1747 Zn1741 2.035 . S
O1747 C1749 1.258 . S
C1748 O1742 1.247 . S
C1748 O1743 1.258 . S
C1749 O1746 1.247 . S
C1749 O1747 1.258 . S
C1750 O1752 1.247 . S
C1750 O1754 1.258 . S
C1751 O1758 1.247 . S
C1751 O1759 1.258 . S
O1752 C1750 1.247 . S
O1752 Zn1753 2.028 . S
Zn1753 O1752 2.028 . S
Zn1753 O1757 2.035 . S
Zn1753 O1759 2.035 . S
Zn1753 O1760 2.028 . S
O1754 C1750 1.258 . S
O1754 Zn1755 2.035 . S
Zn1755 O1754 2.035 . S
Zn1755 O1756 2.028 . S
Zn1755 O1758 2.028 . S
Zn1755 O1761 2.035 . S
O1756 Zn1755 2.028 . S
O1756 C1762 1.247 . S
O1757 Zn1753 2.035 . S
O1757 C1762 1.258 . S
O1758 C1751 1.247 . S
O1758 Zn1755 2.028 . S
O1759 C1751 1.258 . S
O1759 Zn1753 2.035 . S
O1760 Zn1753 2.028 . S
O1760 C1763 1.247 . S
O1761 Zn1755 2.035 . S
O1761 C1763 1.258 . S
C1762 O1756 1.247 . S
C1762 O1757 1.258 . S
C1763 O1760 1.247 . S
C1763 O1761 1.258 . S
C1764 O1766 1.247 . S
C1764 O1768 1.258 . S
C1765 O1772 1.247 . S
C1765 O1773 1.258 . S
O1766 C1764 1.247 . S
O1766 Zn1767 2.028 . S
Zn1767 O1766 2.028 . S
Zn1767 O1771 2.035 . S
Zn1767 O1773 2.035 . S
Zn1767 O1774 2.028 . S
O1768 C1764 1.258 . S
O1768 Zn1769 2.035 . S
Zn1769 O1768 2.035 . S
Zn1769 O1770 2.028 . S
Zn1769 O1772 2.028 . S
Zn1769 O1775 2.035 . S
O1770 Zn1769 2.028 . S
O1770 C1776 1.247 . S
O1771 Zn1767 2.035 . S
O1771 C1776 1.258 . S
O1772 C1765 1.247 . S
O1772 Zn1769 2.028 . S
O1773 C1765 1.258 . S
O1773 Zn1767 2.035 . S
O1774 Zn1767 2.028 . S
O1774 C1777 1.247 . S
O1775 Zn1769 2.035 . S
O1775 C1777 1.258 . S
C1776 O1770 1.247 . S
C1776 O1771 1.258 . S
C1777 O1774 1.247 . S
C1777 O1775 1.258 . S
C1778 O1780 1.247 . S
C1778 O1782 1.258 . S
C1779 O1786 1.247 . S
C1779 O1787 1.258 . S
O1780 C1778 1.247 . S
O1780 Zn1781 2.028 . S
Zn1781 O1780 2.028 . S
Zn1781 O1785 2.035 . S
Zn1781 O1787 2.035 . S
Zn1781 O1788 2.028 . S
O1782 C1778 1.258 . S
O1782 Zn1783 2.035 . S
Zn1783 O1782 2.035 . S
Zn1783 O1784 2.028 . S
Zn1783 O1786 2.028 . S
Zn1783 O1789 2.035 . S
O1784 Zn1783 2.028 . S
O1784 C1790 1.247 . S
O1785 Zn1781 2.035 . S
O1785 C1790 1.258 . S
O1786 C1779 1.247 . S
O1786 Zn1783 2.028 . S
O1787 C1779 1.258 . S
O1787 Zn1781 2.035 . S
O1788 Zn1781 2.028 . S
O1788 C1791 1.247 . S
O1789 Zn1783 2.035 . S
O1789 C1791 1.258 . S
C1790 O1784 1.247 . S
C1790 O1785 1.258 . S
C1791 O1788 1.247 . S
C1791 O1789 1.258 . S
C1792 O1794 1.247 . S
C1792 O1796 1.258 . S
C1793 O1800 1.247 . S
C1793 O1801 1.258 . S
O1794 C1792 1.247 . S
O1794 Zn1795 2.028 . S
Zn1795 O1794 2.028 . S
Zn1795 O1799 2.035 . S
Zn1795 O1801 2.035 . S
Zn1795 O1802 2.028 . S
O1796 C1792 1.258 . S
O1796 Zn1797 2.035 . S
Zn1797 O1796 2.035 . S
Zn1797 O1798 2.028 . S
Zn1797 O1800 2.028 . S
Zn1797 O1803 2.035 . S
O1798 Zn1797 2.028 . S
O1798 C1804 1.247 . S
O1799 Zn1795 2.035 . S
O1799 C1804 1.258 . S
O1800 C1793 1.247 . S
O1800 Zn1797 2.028 . S
O1801 C1793 1.258 . S
O1801 Zn1795 2.035 . S
O1802 Zn1795 2.028 . S
O1802 C1805 1.247 . S
O1803 Zn1797 2.035 . S
O1803 C1805 1.258 . S
C1804 O1798 1.247 . S
C1804 O1799 1.258 . S
C1805 O1802 1.247 . S
C1805 O1803 1.258 . S
C1806 O1808 1.247 . S
C1806 O1810 1.258 . S
C1807 O1814 1.247 . S
C1807 O1815 1.258 . S
O1808 C1806 1.247 . S
O1808 Zn1809 2.028 . S
Zn1809 O1808 2.028 . S
Zn1809 O1813 2.035 . S
Zn1809 O1815 2.035 . S
Zn1809 O1816 2.028 . S
O1810 C1806 1.258 . S
O1810 Zn1811 2.035 . S
Zn1811 O1810 2.035 . S
Zn1811 O1812 2.028 . S
Zn1811 O1814 2.028 . S
Zn1811 O1817 2.035 . S
O1812 Zn1811 2.028 . S
O1812 C1818 1.247 . S
O1813 Zn1809 2.035 . S
O1813 C1818 1.258 . S
O1814 C1807 1.247 . S
O1814 Zn1811 2.028 . S
O1815 C1807 1.258 . S
O1815 Zn1809 2.035 . S
O1816 Zn1809 2.028 . S
O1816 C1819 1.247 . S
O1817 Zn1811 2.035 . S
O1817 C1819 1.258 . S
C1818 O1812 1.247 . S
C1818 O1813 1.258 . S
C1819 O1816 1.247 . S
C1819 O1817 1.258 . S
C1820 O1822 1.247 . S
C1820 O1824 1.258 . S
C1821 O1828 1.247 . S
C1821 O1829 1.258 . S
O1822 C1820 1.247 . S
O1822 Zn1823 2.028 . S
Zn1823 O1822 2.028 . S
Zn1823 O1827 2.035 . S
Zn1823 O1829 2.035 . S
Zn1823 O1830 2.028 . S
O1824 C1820 1.258 . S
O1824 Zn1825 2.035 . S
Zn1825 O1824 2.035 . S
Zn1825 O1826 2.028 . S
Zn1825 O1828 2.028 . S
Zn1825 O1831 2.035 . S
O1826 Zn1825 2.028 . S
O1826 C1832 1.247 . S
O1827 Zn1823 2.035 . S
O1827 C1832 1.258 . S
O1828 C1821 1.247 . S
O1828 Zn1825 2.028 . S
O1829 C1821 1.258 . S
O1829 Zn1823 2.035 . S
O1830 Zn1823 2.028 . S
O1830 C1833 1.247 . S
O1831 Zn1825 2.035 . S
O1831 C1833 1.258 . S
C1832 O1826 1.247 . S
C1832 O1827 1.258 . S
C1833 O1830 1.247 . S
C1833 O1831 1.258 . S
C1834 O1836 1.247 . S
C1834 O1838 1.258 . S
C1835 O1842 1.247 . S
C1835 O1843 1.258 . S
O1836 C1834 1.247 . S
O1836 Zn1837 2.028 . S
Zn1837 O1836 2.028 . S
Zn1837 O1841 2.035 . S
Zn1837 O1843 2.035 . S
Zn1837 O1844 2.028 . S
O1838 C1834 1.258 . S
O1838 Zn1839 2.035 . S
Zn1839 O1838 2.035 . S
Zn1839 O1840 2.028 . S
Zn1839 O1842 2.028 . S
Zn1839 O1845 2.035 . S
O1840 Zn1839 2.028 . S
O1840 C1846 1.247 . S
O1841 Zn1837 2.035 . S
O1841 C1846 1.258 . S
O1842 C1835 1.247 . S
O1842 Zn1839 2.028 . S
O1843 C1835 1.258 . S
O1843 Zn1837 2.035 . S
O1844 Zn1837 2.028 . S
O1844 C1847 1.247 . S
O1845 Zn1839 2.035 . S
O1845 C1847 1.258 . S
C1846 O1840 1.247 . S
C1846 O1841 1.258 . S
C1847 O1844 1.247 . S
C1847 O1845 1.258 . S
C1848 O1850 1.247 . S
C1848 O1852 1.258 . S
C1849 O1856 1.247 . S
C1849 O1857 1.258 . S
O1850 C1848 1.247 . S
O1850 Zn1851 2.028 . S
Zn1851 O1850 2.028 . S
Zn1851 O1855 2.035 . S
Zn1851 O1857 2.035 . S
Zn1851 O1858 2.028 . S
O1852 C1848 1.258 . S
O1852 Zn1853 2.035 . S
Zn1853 O1852 2.035 . S
Zn1853 O1854 2.028 . S
Zn1853 O1856 2.028 . S
Zn1853 O1859 2.035 . S
O1854 Zn1853 2.028 . S
O1854 C1860 1.247 . S
O1855 Zn1851 2.035 . S
O1855 C1860 1.258 . S
O1856 C1849 1.247 . S
O1856 Zn1853 2.028 . S
O1857 C1849 1.258 . S
O1857 Zn1851 2.035 . S
O1858 Zn1851 2.028 . S
O1858 C1861 1.247 . S
O1859 Zn1853 2.035 . S
O1859 C1861 1.258 . S
C1860 O1854 1.247 . S
C1860 O1855 1.258 . S
C1861 O1858 1.247 . S
C1861 O1859 1.258 . S
C1862 O1864 1.247 . S
C1862 O1866 1.258 . S
C1863 O1870 1.247 . S
C1863 O1871 1.258 . S
O1864 C1862 1.247 . S
O1864 Zn1865 2.028 . S
Zn1865 O1864 2.028 . S
Zn1865 O1869 2.035 . S
Zn1865 O1871 2.035 . S
Zn1865 O1872 2.028 . S
O1866 C1862 1.258 . S
O1866 Zn1867 2.035 . S
Zn1867 O1866 2.035 . S
Zn1867 O1868 2.028 . S
Zn1867 O1870 2.028 . S
Zn1867 O1873 2.035 . S
O1868 Zn1867 2.028 . S
O1868 C1874 1.247 . S
O1869 Zn1865 2.035 . S
O1869 C1874 1.258 . S
O1870 C1863 1.247 . S
O1870 Zn1867 2.028 . S
O1871 C1863 1.258 . S
O1871 Zn1865 2.035 . S
O1872 Zn1865 2.028 . S
O1872 C1875 1.247 . S
O1873 Zn1867 2.035 . S
O1873 C1875 1.258 . S
C1874 O1868 1.247 . S
C1874 O1869 1.258 . S
C1875 O1872 1.247 . S
C1875 O1873 1.258 . S
C1876 O1878 1.247 . S
C1876 O1880 1.258 . S
C1877 O1884 1.247 . S
C1877 O1885 1.258 . S
O1878 C1876 1.247 . S
O1878 Zn1879 2.028 . S
Zn1879 O1878 2.028 . S
Zn1879 O1883 2.035 . S
Zn1879 O1885 2.035 . S
Zn1879 O1886 2.028 . S
O1880 C1876 1.258 . S
O1880 Zn1881 2.035 . S
Zn1881 O1880 2.035 . S
Zn1881 O1882 2.028 . S
Zn1881 O1884 2.028 . S
Zn1881 O1887 2.035 . S
O1882 Zn1881 2.028 . S
O1882 C1888 1.247 . S
O1883 Zn1879 2.035 . S
O1883 C1888 1.258 . S
O1884 C1877 1.247 . S
O1884 Zn1881 2.028 . S
O1885 C1877 1.258 . S
O1885 Zn1879 2.035 . S
O1886 Zn1879 2.028 . S
O1886 C1889 1.247 . S
O1887 Zn1881 2.035 . S
O1887 C1889 1.258 . S
C1888 O1882 1.247 . S
C1888 O1883 1.258 . S
C1889 O1886 1.247 . S
C1889 O1887 1.258 . S
C1890 O1892 1.247 . S
C1890 O1894 1.258 . S
C1891 O1898 1.247 . S
C1891 O1899 1.258 . S
O1892 C1890 1.247 . S
O1892 Zn1893 2.028 . S
Zn1893 O1892 2.028 . S
Zn1893 O1897 2.035 . S
Zn1893 O1899 2.035 . S
Zn1893 O1900 2.028 . S
O1894 C1890 1.258 . S
O1894 Zn1895 2.035 . S
Zn1895 O1894 2.035 . S
Zn1895 O1896 2.028 . S
Zn1895 O1898 2.028 . S
Zn1895 O1901 2.035 . S
O1896 Zn1895 2.028 . S
O1896 C1902 1.247 . S
O1897 Zn1893 2.035 . S
O1897 C1902 1.258 . S
O1898 C1891 1.247 . S
O1898 Zn1895 2.028 . S
O1899 C1891 1.258 . S
O1899 Zn1893 2.035 . S
O1900 Zn1893 2.028 . S
O1900 C1903 1.247 . S
O1901 Zn1895 2.035 . S
O1901 C1903 1.258 . S
C1902 O1896 1.247 . S
C1902 O1897 1.258 . S
C1903 O1900 1.247 . S
C1903 O1901 1.258 . S
C1904 O1906 1.247 . S
C1904 O1908 1.258 . S
C1905 O1912 1.247 . S
C1905 O1913 1.258 . S
O1906 C1904 1.247 . S
O1906 Zn1907 2.028 . S
Zn1907 O1906 2.028 . S
Zn1907 O1911 2.035 . S
Zn1907 O1913 2.035 . S
Zn1907 O1914 2.028 . S
O1908 C1904 1.258 . S
O1908 Zn1909 2.035 . S
Zn1909 O1908 2.035 . S
Zn1909 O1910 2.028 . S
Zn1909 O1912 2.028 . S
Zn1909 O1915 2.035 . S
O1910 Zn1909 2.028 . S
O1910 C1916 1.247 . S
O1911 Zn1907 2.035 . S
O1911 C1916 1.258 . S
O1912 C1905 1.247 . S
O1912 Zn1909 2.028 . S
O1913 C1905 1.258 . S
O1913 Zn1907 2.035 . S
O1914 Zn1907 2.028 . S
O1914 C1917 1.247 . S
O1915 Zn1909 2.035 . S
O1915 C1917 1.258 . S
C1916 O1910 1.247 . S
C1916 O1911 1.258 . S
C1917 O1914 1.247 . S
C1917 O1915 1.258 . S
C1918 O1920 1.247 . S
C1918 O1922 1.258 . S
C1919 O1926 1.247 . S
C1919 O1927 1.258 . S
O1920 C1918 1.247 . S
O1920 Zn1921 2.028 . S
Zn1921 O1920 2.028 . S
Zn1921 O1925 2.035 . S
Zn1921 O1927 2.035 . S
Zn1921 O1928 2.028 . S
O1922 C1918 1.258 . S
O1922 Zn1923 2.035 . S
Zn1923 O1922 2.035 . S
Zn1923 O1924 2.028 . S
Zn1923 O1926 2.028 . S
Zn1923 O1929 2.035 . S
O1924 Zn1923 2.028 . S
O1924 C1930 1.247 . S
O1925 Zn1921 2.035 . S
O1925 C1930 1.258 . S
O1926 C1919 1.247 . S
O1926 Zn1923 2.028 . S
O1927 C1919 1.258 . S
O1927 Zn1921 2.035 . S
O1928 Zn1921 2.028 . S
O1928 C1931 1.247 . S
O1929 Zn1923 2.035 . S
O1929 C1931 1.258 . S
C1930 O1924 1.247 . S
C1930 O1925 1.258 . S
C1931 O1928 1.247 . S
C1931 O1929 1.258 . S
C1932 O1934 1.247 . S
C1932 O1936 1.258 . S
C1933 O1940 1.247 . S
C1933 O1941 1.258 . S
O1934 C1932 1.247 . S
O1934 Zn1935 2.028 . S
Zn1935 O1934 2.028 . S
Zn1935 O1939 2.035 . S
Zn1935 O1941 2.035 . S
Zn1935 O1942 2.028 . S
O1936 C1932 1.258 . S
O1936 Zn1937 2.035 . S
Zn1937 O1936 2.035 . S
Zn1937 O1938 2.028 . S
Zn1937 O1940 2.028 . S
Zn1937 O1943 2.035 . S
O1938 Zn1937 2.028 . S
O1938 C1944 1.247 . S
O1939 Zn1935 2.035 . S
O1939 C1944 1.258 . S
O1940 C1933 1.247 . S
O1940 Zn1937 2.028 . S
O1941 C1933 1.258 . S
O1941 Zn1935 2.035 . S
O1942 Zn1935 2.028 . S
O1942 C1945 1.247 . S
O1943 Zn1937 2.035 . S
O1943 C1945 1.258 . S
C1944 O1938 1.247 . S
C1944 O1939 1.258 . S
C1945 O1942 1.247 . S
C1945 O1943 1.258 . S
C1946 O1948 1.247 . S
C1946 O1950 1.258 . S
C1947 O1954 1.247 . S
C1947 O1955 1.258 . S
O1948 C1946 1.247 . S
O1948 Zn1949 2.028 . S
Zn1949 O1948 2.028 . S
Zn1949 O1953 2.035 . S
Zn1949 O1955 2.035 . S
Zn1949 O1956 2.028 . S
O1950 C1946 1.258 . S
O1950 Zn1951 2.035 . S
Zn1951 O1950 2.035 . S
Zn1951 O1952 2.028 . S
Zn1951 O1954 2.028 . S
Zn1951 O1957 2.035 . S
O1952 Zn1951 2.028 . S
O1952 C1958 1.247 . S
O1953 Zn1949 2.035 . S
O1953 C1958 1.258 . S
O1954 C1947 1.247 . S
O1954 Zn1951 2.028 . S
O1955 C1947 1.258 . S
O1955 Zn1949 2.035 . S
O1956 Zn1949 2.028 . S
O1956 C1959 1.247 . S
O1957 Zn1951 2.035 . S
O1957 C1959 1.258 . S
C1958 O1952 1.247 . S
C1958 O1953 1.258 . S
C1959 O1956 1.247 . S
C1959 O1957 1.258 . S
C1960 O1962 1.247 . S
C1960 O1964 1.258 . S
C1961 O1968 1.247 . S
C1961 O1969 1.258 . S
O1962 C1960 1.247 . S
O1962 Zn1963 2.028 . S
Zn1963 O1962 2.028 . S
Zn1963 O1967 2.035 . S
Zn1963 O1969 2.035 . S
Zn1963 O1970 2.028 . S
O1964 C1960 1.258 . S
O1964 Zn1965 2.035 . S
Zn1965 O1964 2.035 . S
Zn1965 O1966 2.028 . S
Zn1965 O1968 2.028 . S
Zn1965 O1971 2.035 . S
O1966 Zn1965 2.028 . S
O1966 C1972 1.247 . S
O1967 Zn1963 2.035 . S
O1967 C1972 1.258 . S
O1968 C1961 1.247 . S
O1968 Zn1965 2.028 . S
O1969 C1961 1.258 . S
O1969 Zn1963 2.035 . S
O1970 Zn1963 2.028 . S
O1970 C1973 1.247 . S
O1971 Zn1965 2.035 . S
O1971 C1973 1.258 . S
C1972 O1966 1.247 . S
C1972 O1967 1.258 . S
C1973 O1970 1.247 . S
C1973 O1971 1.258 . S
C1974 O1976 1.247 . S
C1974 O1978 1.258 . S
C1975 O1982 1.247 . S
C1975 O1983 1.258 . S
O1976 C1974 1.247 . S
O1976 Zn1977 2.028 . S
Zn1977 O1976 2.028 . S
Zn1977 O1981 2.035 . S
Zn1977 O1983 2.035 . S
Zn1977 O1984 2.028 . S
O1978 C1974 1.258 . S
O1978 Zn1979 2.035 . S
Zn1979 O1978 2.035 . S
Zn1979 O1980 2.028 . S
Zn1979 O1982 2.028 . S
Zn1979 O1985 2.035 . S
O1980 Zn1979 2.028 . S
O1980 C1986 1.247 . S
O1981 Zn1977 2.035 . S
O1981 C1986 1.258 . S
O1982 C1975 1.247 . S
O1982 Zn1979 2.028 . S
O1983 C1975 1.258 . S
O1983 Zn1977 2.035 . S
O1984 Zn1977 2.028 . S
O1984 C1987 1.247 . S
O1985 Zn1979 2.035 . S
O1985 C1987 1.258 . S
C1986 O1980 1.247 . S
C1986 O1981 1.258 . S
C1987 O1984 1.247 . S
C1987 O1985 1.258 . S
C1988 O1990 1.247 . S
C1988 O1992 1.258 . S
C1989 O1996 1.247 . S
C1989 O1997 1.258 . S
O1990 C1988 1.247 . S
O1990 Zn1991 2.028 . S
Zn1991 O1990 2.028 . S
Zn1991 O1995 2.035 . S
Zn1991 O1997 2.035 . S
Zn1991 O1998 2.028 . S
O1992 C1988 1.258 . S
O1992 Zn1993 2.035 . S
Zn1993 O1992 2.035 . S
Zn1993 O1994 2.028 . S
Zn1993 O1996 2.028 . S
Zn1993 O1999 2.035 . S
O1994 Zn1993 2.028 . S
O1994 C2000 1.247 . S
O1995 Zn1991 2.035 . S
O1995 C2000 1.258 . S
O1996 C1989 1.247 . S
O1996 Zn1993 2.028 . S
O1997 C1989 1.258 . S
O1997 Zn1991 2.035 . S
O1998 Zn1991 2.028 . S
O1998 C2001 1.247 . S
O1999 Zn1993 2.035 . S
O1999 C2001 1.258 . S
C2000 O1994 1.247 . S
C2000 O1995 1.258 . S
C2001 O1998 1.247 . S
C2001 O1999 1.258 . S
C2002 O2004 1.247 . S
C2002 O2006 1.258 . S
C2003 O2010 1.247 . S
C2003 O2011 1.258 . S
O2004 C2002 1.247 . S
O2004 Zn2005 2.028 . S
Zn2005 O2004 2.028 . S
Zn2005 O2009 2.035 . S
Zn2005 O2011 2.035 . S
Zn2005 O2012 2.028 . S
O2006 C2002 1.258 . S
O2006 Zn2007 2.035 . S
Zn2007 O2006 2.035 . S
Zn2007 O2008 2.028 . S
Zn2007 O2010 2.028 . S
Zn2007 O2013 2.035 . S
O2008 Zn2007 2.028 . S
O2008 C2014 1.247 . S
O2009 Zn2005 2.035 . S
O2009 C2014 1.258 . S
O2010 C2003 1.247 . S
O2010 Zn2007 2.028 . S
O2011 C2003 1.258 . S
O2011 Zn2005 2.035 . S
O2012 Zn2005 2.028 . S
O2012 C2015 1.247 . S
O2013 Zn2007 2.035 . S
O2013 C2015 1.258 . S
C2014 O2008 1.247 . S
C2014 O2009 1.258 . S
C2015 O2012 1.247 . S
C2015 O2013 1.258 . S
C2016 O2018 1.247 . S
C2016 O2020 1.258 . S
C2017 O2024 1.247 . S
C2017 O2025 1.258 . S
O2018 C2016 1.247 . S
O2018 Zn2019 2.028 . S
Zn2019 O2018 2.028 . S
Zn2019 O2023 2.035 . S
Zn2019 O2025 2.035 . S
Zn2019 O2026 2.028 . S
O2020 C2016 1.258 . S
O2020 Zn2021 2.035 . S
Zn2021 O2020 2.035 . S
Zn2021 O2022 2.028 . S
Zn2021 O2024 2.028 . S
Zn2021 O2027 2.035 . S
O2022 Zn2021 2.028 . S
O2022 C2028 1.247 . S
O2023 Zn2019 2.035 . S
O2023 C2028 1.258 . S
O2024 C2017 1.247 . S
O2024 Zn2021 2.028 . S
O2025 C2017 1.258 . S
O2025 Zn2019 2.035 . S
O2026 Zn2019 2.028 . S
O2026 C2029 1.247 . S
O2027 Zn2021 2.035 . S
O2027 C2029 1.258 . S
C2028 O2022 1.247 . S
C2028 O2023 1.258 . S
C2029 O2026 1.247 . S
C2029 O2027 1.258 . S
C2030 O2032 1.247 . S
C2030 O2034 1.258 . S
C2031 O2038 1.247 . S
C2031 O2039 1.258 . S
O2032 C2030 1.247 . S
O2032 Zn2033 2.028 . S
Zn2033 O2032 2.028 . S
Zn2033 O2037 2.035 . S
Zn2033 O2039 2.035 . S
Zn2033 O2040 2.028 . S
O2034 C2030 1.258 . S
O2034 Zn2035 2.035 . S
Zn2035 O2034 2.035 . S
Zn2035 O2036 2.028 . S
Zn2035 O2038 2.028 . S
Zn2035 O2041 2.035 . S
O2036 Zn2035 2.028 . S
O2036 C2042 1.247 . S
O2037 Zn2033 2.035 . S
O2037 C2042 1.258 . S
O2038 C2031 1.247 . S
O2038 Zn2035 2.028 . S
O2039 C2031 1.258 . S
O2039 Zn2033 2.035 . S
O2040 Zn2033 2.028 . S
O2040 C2043 1.247 . S
O2041 Zn2035 2.035 . S
O2041 C2043 1.258 . S
C2042 O2036 1.247 . S
C2042 O2037 1.258 . S
C2043 O2040 1.247 . S
C2043 O2041 1.258 . S
C2044 O2046 1.247 . S
C2044 O2048 1.258 . S
C2045 O2052 1.247 . S
C2045 O2053 1.258 . S
O2046 C2044 1.247 . S
O2046 Zn2047 2.028 . S
Zn2047 O2046 2.028 . S
Zn2047 O2051 2.035 . S
Zn2047 O2053 2.035 . S
Zn2047 O2054 2.028 . S
O2048 C2044 1.258 . S
O2048 Zn2049 2.035 . S
Zn2049 O2048 2.035 . S
Zn2049 O2050 2.028 . S
Zn2049 O2052 2.028 . S
Zn2049 O2055 2.035 . S
O2050 Zn2049 2.028 . S
O2050 C2056 1.247 . S
O2051 Zn2047 2.035 . S
O2051 C2056 1.258 . S
O2052 C2045 1.247 . S
O2052 Zn2049 2.028 . S
O2053 C2045 1.258 . S
O2053 Zn2047 2.035 . S
O2054 Zn2047 2.028 . S
O2054 C2057 1.247 . S
O2055 Zn2049 2.035 . S
O2055 C2057 1.258 . S
C2056 O2050 1.247 . S
C2056 O2051 1.258 . S
C2057 O2054 1.247 . S
C2057 O2055 1.258 . S
C2058 O2060 1.247 . S
C2058 O2062 1.258 . S
C2059 O2066 1.247 . S
C2059 O2067 1.258 . S
O2060 C2058 1.247 . S
O2060 Zn2061 2.028 . S
Zn2061 O2060 2.028 . S
Zn2061 O2065 2.035 . S
Zn2061 O2067 2.035 . S
Zn2061 O2068 2.028 . S
O2062 C2058 1.258 . S
O2062 Zn2063 2.035 . S
Zn2063 O2062 2.035 . S
Zn2063 O2064 2.028 . S
Zn2063 O2066 2.028 . S
Zn2063 O2069 2.035 . S
O2064 Zn2063 2.028 . S
O2064 C2070 1.247 . S
O2065 Zn2061 2.035 . S
O2065 C2070 1.258 . S
O2066 C2059 1.247 . S
O2066 Zn2063 2.028 . S
O2067 C2059 1.258 . S
O2067 Zn2061 2.035 . S
O2068 Zn2061 2.028 . S
O2068 C2071 1.247 . S
O2069 Zn2063 2.035 . S
O2069 C2071 1.258 . S
C2070 O2064 1.247 . S
C2070 O2065 1.258 . S
C2071 O2068 1.247 . S
C2071 O2069 1.258 . S
C2072 O2074 1.247 . S
C2072 O2076 1.258 . S
C2073 O2080 1.247 . S
C2073 O2081 1.258 . S
O2074 C2072 1.247 . S
O2074 Zn2075 2.028 . S
Zn2075 O2074 2.028 . S
Zn2075 O2079 2.035 . S
Zn2075 O2081 2.035 . S
Zn2075 O2082 2.028 . S
O2076 C2072 1.258 . S
O2076 Zn2077 2.035 . S
Zn2077 O2076 2.035 . S
Zn2077 O2078 2.028 . S
Zn2077 O2080 2.028 . S
Zn2077 O2083 2.035 . S
O2078 Zn2077 2.028 . S
O2078 C2084 1.247 . S
O2079 Zn2075 2.035 . S
O2079 C2084 1.258 . S
O2080 C2073 1.247 . S
O2080 Zn2077 2.028 . S
O2081 C2073 1.258 . S
O2081 Zn2075 2.035 . S
O2082 Zn2075 2.028 . S
O2082 C2085 1.247 . S
O2083 Zn2077 2.035 . S
O2083 C2085 1.258 . S
C2084 O2078 1.247 . S
C2084 O2079 1.258 . S
C2085 O2082 1.247 . S
C2085 O2083 1.258 . S
C2086 O2088 1.247 . S
C2086 O2090 1.258 . S
C2087 O2094 1.247 . S
C2087 O2095 1.258 . S
O2088 C2086 1.247 . S
O2088 Zn2089 2.028 . S
Zn2089 O2088 2.028 . S
Zn2089 O2093 2.035 . S
Zn2089 O2095 2.035 . S
Zn2089 O2096 2.028 . S
O2090 C2086 1.258 . S
O2090 Zn2091 2.035 . S
Zn2091 O2090 2.035 . S
Zn2091 O2092 2.028 . S
Zn2091 O2094 2.028 . S
Zn2091 O2097 2.035 . S
O2092 Zn2091 2.028 . S
O2092 C2098 1.247 . S
O2093 Zn2089 2.035 . S
O2093 C2098 1.258 . S
O2094 C2087 1.247 . S
O2094 Zn2091 2.028 . S
O2095 C2087 1.258 . S
O2095 Zn2089 2.035 . S
O2096 Zn2089 2.028 . S
O2096 C2099 1.247 . S
O2097 Zn2091 2.035 . S
O2097 C2099 1.258 . S
C2098 O2092 1.247 . S
C2098 O2093 1.258 . S
C2099 O2096 1.247 . S
C2099 O2097 1.258 . S
C2100 O2102 1.247 . S
C2100 O2104 1.258 . S
C2101 O2108 1.247 . S
C2101 O2109 1.258 . S
O2102 C2100 1.247 . S
O2102 Zn2103 2.028 . S
Zn2103 O2102 2.028 . S
Zn2103 O2107 2.035 . S
Zn2103 O2109 2.035 . S
Zn2103 O2110 2.028 . S
O2104 C2100 1.258 . S
O2104 Zn2105 2.035 . S
Zn2105 O2104 2.035 . S
Zn2105 O2106 2.028 . S
Zn2105 O2108 2.028 . S
Zn2105 O2111 2.035 . S
O2106 Zn2105 2.028 . S
O2106 C2112 1.247 . S
O2107 Zn2103 2.035 . S
O2107 C2112 1.258 . S
O2108 C2101 1.247 . S
O2108 Zn2105 2.028 . S
O2109 C2101 1.258 . S
O2109 Zn2103 2.035 . S
O2110 Zn2103 2.028 . S
O2110 C2113 1.247 . S
O2111 Zn2105 2.035 . S
O2111 C2113 1.258 . S
C2112 O2106 1.247 . S
C2112 O2107 1.258 . S
C2113 O2110 1.247 . S
C2113 O2111 1.258 . S
C2114 O2116 1.247 . S
C2114 O2118 1.258 . S
C2115 O2122 1.247 . S
C2115 O2123 1.258 . S
O2116 C2114 1.247 . S
O2116 Zn2117 2.028 . S
Zn2117 O2116 2.028 . S
Zn2117 O2121 2.035 . S
Zn2117 O2123 2.035 . S
Zn2117 O2124 2.028 . S
O2118 C2114 1.258 . S
O2118 Zn2119 2.035 . S
Zn2119 O2118 2.035 . S
Zn2119 O2120 2.028 . S
Zn2119 O2122 2.028 . S
Zn2119 O2125 2.035 . S
O2120 Zn2119 2.028 . S
O2120 C2126 1.247 . S
O2121 Zn2117 2.035 . S
O2121 C2126 1.258 . S
O2122 C2115 1.247 . S
O2122 Zn2119 2.028 . S
O2123 C2115 1.258 . S
O2123 Zn2117 2.035 . S
O2124 Zn2117 2.028 . S
O2124 C2127 1.247 . S
O2125 Zn2119 2.035 . S
O2125 C2127 1.258 . S
C2126 O2120 1.247 . S
C2126 O2121 1.258 . S
C2127 O2124 1.247 . S
C2127 O2125 1.258 . S
C2128 O2130 1.247 . S
C2128 O2132 1.258 . S
C2129 O2136 1.247 . S
C2129 O2137 1.258 . S
O2130 C2128 1.247 . S
O2130 Zn2131 2.028 . S
Zn2131 O2130 2.028 . S
Zn2131 O2135 2.035 . S
Zn2131 O2137 2.035 . S
Zn2131 O2138 2.028 . S
O2132 C2128 1.258 . S
O2132 Zn2133 2.035 . S
Zn2133 O2132 2.035 . S
Zn2133 O2134 2.028 . S
Zn2133 O2136 2.028 . S
Zn2133 O2139 2.035 . S
O2134 Zn2133 2.028 . S
O2134 C2140 1.247 . S
O2135 Zn2131 2.035 . S
O2135 C2140 1.258 . S
O2136 C2129 1.247 . S
O2136 Zn2133 2.028 . S
O2137 C2129 1.258 . S
O2137 Zn2131 2.035 . S
O2138 Zn2131 2.028 . S
O2138 C2141 1.247 . S
O2139 Zn2133 2.035 . S
O2139 C2141 1.258 . S
C2140 O2134 1.247 . S
C2140 O2135 1.258 . S
C2141 O2138 1.247 . S
C2141 O2139 1.258 . S
C2142 O2144 1.247 . S
C2142 O2146 1.258 . S
C2143 O2150 1.247 . S
C2143 O2151 1.258 . S
O2144 C2142 1.247 . S
O2144 Zn2145 2.028 . S
Zn2145 O2144 2.028 . S
Zn2145 O2149 2.035 . S
Zn2145 O2151 2.035 . S
Zn2145 O2152 2.028 . S
O2146 C2142 1.258 . S
O2146 Zn2147 2.035 . S
Zn2147 O2146 2.035 . S
Zn2147 O2148 2.028 . S
Zn2147 O2150 2.028 . S
Zn2147 O2153 2.035 . S
O2148 Zn2147 2.028 . S
O2148 C2154 1.247 . S
O2149 Zn2145 2.035 . S
O2149 C2154 1.258 . S
O2150 C2143 1.247 . S
O2150 Zn2147 2.028 . S
O2151 C2143 1.258 . S
O2151 Zn2145 2.035 . S
O2152 Zn2145 2.028 . S
O2152 C2155 1.247 . S
O2153 Zn2147 2.035 . S
O2153 C2155 1.258 . S
C2154 O2148 1.247 . S
C2154 O2149 1.258 . S
C2155 O2152 1.247 . S
C2155 O2153 1.258 . S
C2156 O2158 1.247 . S
C2156 O2160 1.258 . S
C2157 O2164 1.247 . S
C2157 O2165 1.258 . S
O2158 C2156 1.247 . S
O2158 Zn2159 2.028 . S
Zn2159 O2158 2.028 . S
Zn2159 O2163 2.035 . S
Zn2159 O2165 2.035 . S
Zn2159 O2166 2.028 . S
O2160 C2156 1.258 . S
O2160 Zn2161 2.035 . S
Zn2161 O2160 2.035 . S
Zn2161 O2162 2.028 . S
Zn2161 O2164 2.028 . S
Zn2161 O2167 2.035 . S
O2162 Zn2161 2.028 . S
O2162 C2168 1.247 . S
O2163 Zn2159 2.035 . S
O2163 C2168 1.258 . S
O2164 C2157 1.247 . S
O2164 Zn2161 2.028 . S
O2165 C2157 1.258 . S
O2165 Zn2159 2.035 . S
O2166 Zn2159 2.028 . S
O2166 C2169 1.247 . S
O2167 Zn2161 2.035 . S
O2167 C2169 1.258 . S
C2168 O2162 1.247 . S
C2168 O2163 1.258 . S
C2169 O2166 1.247 . S
C2169 O2167 1.258 . S
C2170 O2172 1.247 . S
C2170 O2174 1.258 . S
C2171 O2178 1.247 . S
C2171 O2179 1.258 . S
O2172 C2170 1.247 . S
O2172 Zn2173 2.028 . S
Zn2173 O2172 2.028 . S
Zn2173 O2177 2.035 . S
Zn2173 O2179 2.035 . S
Zn2173 O2180 2.028 . S
O2174 C2170 1.258 . S
O2174 Zn2175 2.035 . S
Zn2175 O2174 2.035 . S
Zn2175 O2176 2.028 . S
Zn2175 O2178 2.028 . S
Zn2175 O2181 2.035 . S
O2176 Zn2175 2.028 . S
O2176 C2182 1.247 . S
O2177 Zn2173 2.035 . S
O2177 C2182 1.258 . S
O2178 C2171 1.247 . S
O2178 Zn2175 2.028 . S
O2179 C2171 1.258 . S
O2179 Zn2173 2.035 . S
O2180 Zn2173 2.028 . S
O2180 C2183 1.247 . S
O2181 Zn2175 2.035 . S
O2181 C2183 1.258 . S
C2182 O2176 1.247 . S
C2182 O2177 1.258 . S
C2183 O2180 1.247 . S
C2183 O2181 1.258 . S
C2184 O2186 1.247 . S
C2184 O2188 1.258 . S
C2185 O2192 1.247 . S
C2185 O2193 1.258 . S
O2186 C2184 1.247 . S
O2186 Zn2187 2.028 . S
Zn2187 O2186 2.028 . S
Zn2187 O2191 2.035 . S
Zn2187 O2193 2.035 . S
Zn2187 O2194 2.028 . S
O2188 C2184 1.258 . S
O2188 Zn2189 2.035 . S
Zn2189 O2188 2.035 . S
Zn2189 O2190 2.028 . S
Zn2189 O2192 2.028 . S
Zn2189 O2195 2.035 . S
O2190 Zn2189 2.028 . S
O2190 C2196 1.247 . S
O2191 Zn2187 2.035 . S
O2191 C2196 1.258 . S
O2192 C2185 1.247 . S
O2192 Zn2189 2.028 . S
O2193 C2185 1.258 . S
O2193 Zn2187 2.035 . S
O2194 Zn2187 2.028 . S
O2194 C2197 1.247 . S
O2195 Zn2189 2.035 . S
O2195 C2197 1.258 . S
C2196 O2190 1.247 . S
C2196 O2191 1.258 . S
C2197 O2194 1.247 . S
C2197 O2195 1.258 . S
C2198 O2200 1.247 . S
C2198 O2202 1.258 . S
C2199 O2206 1.247 . S
C2199 O2207 1.258 . S
O2200 C2198 1.247 . S
O2200 Zn2201 2.028 . S
Zn2201 O2200 2.028 . S
Zn2201 O2205 2.035 . S
Zn2201 O2207 2.035 . S
Zn2201 O2208 2.028 . S
O2202 C2198 1.258 . S
O2202 Zn2203 2.035 . S
Zn2203 O2202 2.035 . S
Zn2203 O2204 2.028 . S
Zn2203 O2206 2.028 . S
Zn2203 O2209 2.035 . S
O2204 Zn2203 2.028 . S
O2204 C2210 1.247 . S
O2205 Zn2201 2.035 . S
O2205 C2210 1.258 . S
O2206 C2199 1.247 . S
O2206 Zn2203 2.028 . S
O2207 C2199 1.258 . S
O2207 Zn2201 2.035 . S
O2208 Zn2201 2.028 . S
O2208 C2211 1.247 . S
O2209 Zn2203 2.035 . S
O2209 C2211 1.258 . S
C2210 O2204 1.247 . S
C2210 O2205 1.258 . S
C2211 O2208 1.247 . S
C2211 O2209 1.258 . S
C2212 O2214 1.247 . S
C2212 O2216 1.258 . S
C2213 O2220 1.247 . S
C2213 O2221 1.258 . S
O2214 C2212 1.247 . S
O2214 Zn2215 2.028 . S
Zn2215 O2214 2.028 . S
Zn2215 O2219 2.035 . S
Zn2215 O2221 2.035 . S
Zn2215 O2222 2.028 . S
O2216 C2212 1.258 . S
O2216 Zn2217 2.035 . S
Zn2217 O2216 2.035 . S
Zn2217 O2218 2.028 . S
Zn2217 O2220 2.028 . S
Zn2217 O2223 2.035 . S
O2218 Zn2217 2.028 . S
O2218 C2224 1.247 . S
O2219 Zn2215 2.035 . S
O2219 C2224 1.258 . S
O2220 C2213 1.247 . S
O2220 Zn2217 2.028 . S
O2221 C2213 1.258 . S
O2221 Zn2215 2.035 . S
O2222 Zn2215 2.028 . S
O2222 C2225 1.247 . S
O2223 Zn2217 2.035 . S
O2223 C2225 1.258 . S
C2224 O2218 1.247 . S
C2224 O2219 1.258 . S
C2225 O2222 1.247 . S
C2225 O2223 1.258 . S
C2226 O2228 1.247 . S
C2226 O2230 1.258 . S
C2227 O2234 1.247 . S
C2227 O2235 1.258 . S
O2228 C2226 1.247 . S
O2228 Zn2229 2.028 . S
Zn2229 O2228 2.028 . S
Zn2229 O2233 2.035 . S
Zn2229 O2235 2.035 . S
Zn2229 O2236 2.028 . S
O2230 C2226 1.258 . S
O2230 Zn2231 2.035 . S
Zn2231 O2230 2.035 . S
Zn2231 O2232 2.028 . S
Zn2231 O2234 2.028 . S
Zn2231 O2237 2.035 . S
O2232 Zn2231 2.028 . S
O2232 C2238 1.247 . S
O2233 Zn2229 2.035 . S
O2233 C2238 1.258 . S
O2234 C2227 1.247 . S
O2234 Zn2231 2.028 . S
O2235 C2227 1.258 . S
O2235 Zn2229 2.035 . S
O2236 Zn2229 2.028 . S
O2236 C2239 1.247 . S
O2237 Zn2231 2.035 . S
O2237 C2239 1.258 . S
C2238 O2232 1.247 . S
C2238 O2233 1.258 . S
C2239 O2236 1.247 . S
C2239 O2237 1.258 . S
C2240 O2242 1.247 . S
C2240 O2244 1.258 . S
C2241 O2248 1.247 . S
C2241 O2249 1.258 . S
O2242 C2240 1.247 . S
O2242 Zn2243 2.028 . S
Zn2243 O2242 2.028 . S
Zn2243 O2247 2.035 . S
Zn2243 O2249 2.035 . S
Zn2243 O2250 2.028 . S
O2244 C2240 1.258 . S
O2244 Zn2245 2.035 . S
Zn2245 O2244 2.035 . S
Zn2245 O2246 2.028 . S
Zn2245 O2248 2.028 . S
Zn2245 O2251 2.035 . S
O2246 Zn2245 2.028 . S
O2246 C2252 1.247 . S
O2247 Zn2243 2.035 . S
O2247 C2252 1.258 . S
O2248 C2241 1.247 . S
O2248 Zn2245 2.028 . S
O2249 C2241 1.258 . S
O2249 Zn2243 2.035 . S
O2250 Zn2243 2.028 . S
O2250 C2253 1.247 . S
O2251 Zn2245 2.035 . S
O2251 C2253 1.258 . S
C2252 O2246 1.247 . S
C2252 O2247 1.258 . S
C2253 O2250 1.247 . S
C2253 O2251 1.258 . S
C2254 O2256 1.247 . S
C2254 O2258 1.258 . S
C2255 O2262 1.247 . S
C2255 O2263 1.258 . S
O2256 C2254 1.247 . S
O2256 Zn2257 2.028 . S
Zn2257 O2256 2.028 . S
Zn2257 O2261 2.035 . S
Zn2257 O2263 2.035 . S
Zn2257 O2264 2.028 . S
O2258 C2254 1.258 . S
O2258 Zn2259 2.035 . S
Zn2259 O2258 2.035 . S
Zn2259 O2260 2.028 . S
Zn2259 O2262 2.028 . S
Zn2259 O2265 2.035 . S
O2260 Zn2259 2.028 . S
O2260 C2266 1.247 . S
O2261 Zn2257 2.035 . S
O2261 C2266 1.258 . S
O2262 C2255 1.247 . S
O2262 Zn2259 2.028 . S
O2263 C2255 1.258 . S
O2263 Zn2257 2.035 . S
O2264 Zn2257 2.028 . S
O2264 C2267 1.247 . S
O2265 Zn2259 2.035 . S
O2265 C2267 1.258 . S
C2266 O2260 1.247 . S
C2266 O2261 1.258 . S
C2267 O2264 1.247 . S
C2267 O2265 1.258 . S
C2268 O2270 1.247 . S
C2268 O2272 1.258 . S
C2269 O2276 1.247 . S
C2269 O2277 1.258 . S
O2270 C2268 1.247 . S
O2270 Zn2271 2.028 . S
Zn2271 O2270 2.028 . S
Zn2271 O2275 2.035 . S
Zn2271 O2277 2.035 . S
Zn2271 O2278 2.028 . S
O2272 C2268 1.258 . S
O2272 Zn2273 2.035 . S
Zn2273 O2272 2.035 . S
Zn2273 O2274 2.028 . S
Zn2273 O2276 2.028 . S
Zn2273 O2279 2.035 . S
O2274 Zn2273 2.028 . S
O2274 C2280 1.247 . S
O2275 Zn2271 2.035 . S
O2275 C2280 1.258 . S
O2276 C2269 1.247 . S
O2276 Zn2273 2.028 . S
O2277 C2269 1.258 . S
O2277 Zn2271 2.035 . S
O2278 Zn2271 2.028 . S
O2278 C2281 1.247 . S
O2279 Zn2273 2.035 . S
O2279 C2281 1.258 . S
C2280 O2274 1.247 . S
C2280 O2275 1.258 . S
C2281 O2278 1.247 . S
C2281 O2279 1.258 . S
C2282 O2284 1.247 . S
C2282 O2286 1.258 . S
C2283 O2290 1.247 . S
C2283 O2291 1.258 . S
O2284 C2282 1.247 . S
O2284 Zn2285 2.028 . S
Zn2285 O2284 2.028 . S
Zn2285 O2289 2.035 . S
Zn2285 O2291 2.035 . S
Zn2285 O2292 2.028 . S
O2286 C2282 1.258 . S
O2286 Zn2287 2.035 . S
Zn2287 O2286 2.035 . S
Zn2287 O2288 2.028 . S
Zn2287 O2290 2.028 . S
Zn2287 O2293 2.035 . S
O2288 Zn2287 2.028 . S
O2288 C2294 1.247 . S
O2289 Zn2285 2.035 . S
O2289 C2294 1.258 . S
O2290 C2283 1.247 . S
O2290 Zn2287 2.028 . S
O2291 C2283 1.258 . S
O2291 Zn2285 2.035 . S
O2292 Zn2285 2.028 . S
O2292 C2295 1.247 . S
O2293 Zn2287 2.035 . S
O2293 C2295 1.258 . S
C2294 O2288 1.247 . S
C2294 O2289 1.258 . S
C2295 O2292 1.247 . S
C2295 O2293 1.258 . S
C2296 O2298 1.247 . S
C2296 O2300 1.258 . S
C2297 O2304 1.247 . S
C2297 O2305 1.258 . S
O2298 C2296 1.247 . S
O2298 Zn2299 2.028 . S
Zn2299 O2298 2.028 . S
Zn2299 O2303 2.035 . S
Zn2299 O2305 2.035 . S
Zn2299 O2306 2.028 . S
O2300 C2296 1.258 . S
O2300 Zn2301 2.035 . S
Zn2301 O2300 2.035 . S
Zn2301 O2302 2.028 . S
Zn2301 O2304 2.028 . S
Zn2301 O2307 2.035 . S
O2302 Zn2301 2.028 . S
O2302 C2308 1.247 . S
O2303 Zn2299 2.035 . S
O2303 C2308 1.258 . S
O2304 C2297 1.247 . S
O2304 Zn2301 2.028 . S
O2305 C2297 1.258 . S
O2305 Zn2299 2.035 . S
O2306 Zn2299 2.028 . S
O2306 C2309 1.247 . S
O2307 Zn2301 2.035 . S
O2307 C2309 1.258 . S
C2308 O2302 1.247 . S
C2308 O2303 1.258 . S
C2309 O2306 1.247 . S
C2309 O2307 1.258 . S
C2310 O2312 1.247 . S
C2310 O2314 1.258 . S
C2311 O2318 1.247 . S
C2311 O2319 1.258 . S
O2312 C2310 1.247 . S
O2312 Zn2313 2.028 . S
Zn2313 O2312 2.028 . S
Zn2313 O2317 2.035 . S
Zn2313 O2319 2.035 . S
Zn2313 O2320 2.028 . S
O2314 C2310 1.258 . S
O2314 Zn2315 2.035 . S
Zn2315 O2314 2.035 . S
Zn2315 O2316 2.028 . S
Zn2315 O2318 2.028 . S
Zn2315 O2321 2.035 . S
O2316 Zn2315 2.028 . S
O2316 C2322 1.247 . S
O2317 Zn2313 2.035 . S
O2317 C2322 1.258 . S
O2318 C2311 1.247 . S
O2318 Zn2315 2.028 . S
O2319 C2311 1.258 . S
O2319 Zn2313 2.035 . S
O2320 Zn2313 2.028 . S
O2320 C2323 1.247 . S
O2321 Zn2315 2.035 . S
O2321 C2323 1.258 . S
C2322 O2316 1.247 . S
C2322 O2317 1.258 . S
C2323 O2320 1.247 . S
C2323 O2321 1.258 . S
C2324 O2326 1.247 . S
C2324 O2328 1.258 . S
C2325 O2332 1.247 . S
C2325 O2333 1.258 . S
O2326 C2324 1.247 . S
O2326 Zn2327 2.028 . S
Zn2327 O2326 2.028 . S
Zn2327 O2331 2.035 . S
Zn2327 O2333 2.035 . S
Zn2327 O2334 2.028 . S
O2328 C2324 1.258 . S
O2328 Zn2329 2.035 . S
Zn2329 O2328 2.035 . S
Zn2329 O2330 2.028 . S
Zn2329 O2332 2.028 . S
Zn2329 O2335 2.035 . S
O2330 Zn2329 2.028 . S
O2330 C2336 1.247 . S
O2331 Zn2327 2.035 . S
O2331 C2336 1.258 . S
O2332 C2325 1.247 . S
O2332 Zn2329 2.028 . S
O2333 C2325 1.258 . S
O2333 Zn2327 2.035 . S
O2334 Zn2327 2.028 . S
O2334 C2337 1.247 . S
O2335 Zn2329 2.035 . S
O2335 C2337 1.258 . S
C2336 O2330 1.247 . S
C2336 O2331 1.258 . S
C2337 O2334 1.247 . S
C2337 O2335 1.258 . S
C2338 O2340 1.247 . S
C2338 O2342 1.258 . S
C2339 O2346 1.247 . S
C2339 O2347 1.258 . S
O2340 C2338 1.247 . S
O2340 Zn2341 2.028 . S
Zn2341 O2340 2.028 . S
Zn2341 O2345 2.035 . S
Zn2341 O2347 2.035 . S
Zn2341 O2348 2.028 . S
O2342 C2338 1.258 . S
O2342 Zn2343 2.035 . S
Zn2343 O2342 2.035 . S
Zn2343 O2344 2.028 . S
Zn2343 O2346 2.028 . S
Zn2343 O2349 2.035 . S
O2344 Zn2343 2.028 . S
O2344 C2350 1.247 . S
O2345 Zn2341 2.035 . S
O2345 C2350 1.258 . S
O2346 C2339 1.247 . S
O2346 Zn2343 2.028 . S
O2347 C2339 1.258 . S
O2347 Zn2341 2.035 . S
O2348 Zn2341 2.028 . S
O2348 C2351 1.247 . S
O2349 Zn2343 2.035 . S
O2349 C2351 1.258 . S
C2350 O2344 1.247 . S
C2350 O2345 1.258 . S
C2351 O2348 1.247 . S
C2351 O2349 1.258 . S
C2352 O2354 1.247 . S
C2352 O2356 1.258 . S
C2353 O2360 1.247 . S
C2353 O2361 1.258 . S
O2354 C2352 1.247 . S
O2354 Zn2355 2.028 . S
Zn2355 O2354 2.028 . S
Zn2355 O2359 2.035 . S
Zn2355 O2361 2.035 . S
Zn2355 O2362 2.028 . S
O2356 C2352 1.258 . S
O2356 Zn2357 2.035 . S
Zn2357 O2356 2.035 . S
Zn2357 O2358 2.028 . S
Zn2357 O2360 2.028 . S
Zn2357 O2363 2.035 . S
O2358 Zn2357 2.028 . S
O2358 C2364 1.247 . S
O2359 Zn2355 2.035 . S
O2359 C2364 1.258 . S
O2360 C2353 1.247 . S
O2360 Zn2357 2.028 . S
O2361 C2353 1.258 . S
O2361 Zn2355 2.035 . S
O2362 Zn2355 2.028 . S
O2362 C2365 1.247 . S
O2363 Zn2357 2.035 . S
O2363 C2365 1.258 . S
C2364 O2358 1.247 . S
C2364 O2359 1.258 . S
C2365 O2362 1.247 . S
C2365 O2363 1.258 . S
C2366 O2368 1.247 . S
C2366 O2370 1.258 . S
C2367 O2374 1.247 . S
C2367 O2375 1.258 . S
O2368 C2366 1.247 . S
O2368 Zn2369 2.028 . S
Zn2369 O2368 2.028 . S
Zn2369 O2373 2.035 . S
Zn2369 O2375 2.035 . S
Zn2369 O2376 2.028 . S
O2370 C2366 1.258 . S
O2370 Zn2371 2.035 . S
Zn2371 O2370 2.035 . S
Zn2371 O2372 2.028 . S
Zn2371 O2374 2.028 . S
Zn2371 O2377 2.035 . S
O2372 Zn2371 2.028 . S
O2372 C2378 1.247 . S
O2373 Zn2369 2.035 . S
O2373 C2378 1.258 . S
O2374 C2367 1.247 . S
O2374 Zn2371 2.028 . S
O2375 C2367 1.258 . S
O2375 Zn2369 2.035 . S
O2376 Zn2369 2.028 . S
O2376 C2379 1.247 . S
O2377 Zn2371 2.035 . S
O2377 C2379 1.258 . S
C2378 O2372 1.247 . S
C2378 O2373 1.258 . S
C2379 O2376 1.247 . S
C2379 O2377 1.258 . S
C2380 O2382 1.247 . S
C2380 O2384 1.258 . S
C2381 O2388 1.247 . S
C2381 O2389 1.258 . S
O2382 C2380 1.247 . S
O2382 Zn2383 2.028 . S
Zn2383 O2382 2.028 . S
Zn2383 O2387 2.035 . S
Zn2383 O2389 2.035 . S
Zn2383 O2390 2.028 . S
O2384 C2380 1.258 . S
O2384 Zn2385 2.035 . S
Zn2385 O2384 2.035 . S
Zn2385 O2386 2.028 . S
Zn2385 O2388 2.028 . S
Zn2385 O2391 2.035 . S
O2386 Zn2385 2.028 . S
O2386 C2392 1.247 . S
O2387 Zn2383 2.035 . S
O2387 C2392 1.258 . S
O2388 C2381 1.247 . S
O2388 Zn2385 2.028 . S
O2389 C2381 1.258 . S
O2389 Zn2383 2.035 . S
O2390 Zn2383 2.028 . S
O2390 C2393 1.247 . S
O2391 Zn2385 2.035 . S
O2391 C2393 1.258 . S
C2392 O2386 1.247 . S
C2392 O2387 1.258 . S
C2393 O2390 1.247 . S
C2393 O2391 1.258 . S
C2394 O2396 1.247 . S
C2394 O2398 1.258 . S
C2395 O2402 1.247 . S
C2395 O2403 1.258 . S
O2396 C2394 1.247 . S
O2396 Zn2397 2.028 . S
Zn2397 O2396 2.028 . S
Zn2397 O2401 2.035 . S
Zn2397 O2403 2.035 . S
Zn2397 O2404 2.028 . S
O2398 C2394 1.258 . S
O2398 Zn2399 2.035 . S
Zn2399 O2398 2.035 . S
Zn2399 O2400 2.028 . S
Zn2399 O2402 2.028 . S
Zn2399 O2405 2.035 . S
O2400 Zn2399 2.028 . S
O2400 C2406 1.247 . S
O2401 Zn2397 2.035 . S
O2401 C2406 1.258 . S
O2402 C2395 1.247 . S
O2402 Zn2399 2.028 . S
O2403 C2395 1.258 . S
O2403 Zn2397 2.035 . S
O2404 Zn2397 2.028 . S
O2404 C2407 1.247 . S
O2405 Zn2399 2.035 . S
O2405 C2407 1.258 . S
C2406 O2400 1.247 . S
C2406 O2401 1.258 . S
C2407 O2404 1.247 . S
C2407 O2405 1.258 . S
C2408 O2410 1.247 . S
C2408 O2412 1.258 . S
C2409 O2416 1.247 . S
C2409 O2417 1.258 . S
O2410 C2408 1.247 . S
O2410 Zn2411 2.028 . S
Zn2411 O2410 2.028 . S
Zn2411 O2415 2.035 . S
Zn2411 O2417 2.035 . S
Zn2411 O2418 2.028 . S
O2412 C2408 1.258 . S
O2412 Zn2413 2.035 . S
Zn2413 O2412 2.035 . S
Zn2413 O2414 2.028 . S
Zn2413 O2416 2.028 . S
Zn2413 O2419 2.035 . S
O2414 Zn2413 2.028 . S
O2414 C2420 1.247 . S
O2415 Zn2411 2.035 . S
O2415 C2420 1.258 . S
O2416 C2409 1.247 . S
O2416 Zn2413 2.028 . S
O2417 C2409 1.258 . S
O2417 Zn2411 2.035 . S
O2418 Zn2411 2.028 . S
O2418 C2421 1.247 . S
O2419 Zn2413 2.035 . S
O2419 C2421 1.258 . S
C2420 O2414 1.247 . S
C2420 O2415 1.258 . S
C2421 O2418 1.247 . S
C2421 O2419 1.258 . S
C2422 O2424 1.247 . S
C2422 O2426 1.258 . S
C2423 O2430 1.247 . S
C2423 O2431 1.258 . S
O2424 C2422 1.247 . S
O2424 Zn2425 2.028 . S
Zn2425 O2424 2.028 . S
Zn2425 O2429 2.035 . S
Zn2425 O2431 2.035 . S
Zn2425 O2432 2.028 . S
O2426 C2422 1.258 . S
O2426 Zn2427 2.035 . S
Zn2427 O2426 2.035 . S
Zn2427 O2428 2.028 . S
Zn2427 O2430 2.028 . S
Zn2427 O2433 2.035 . S
O2428 Zn2427 2.028 . S
O2428 C2434 1.247 . S
O2429 Zn2425 2.035 . S
O2429 C2434 1.258 . S
O2430 C2423 1.247 . S
O2430 Zn2427 2.028 . S
O2431 C2423 1.258 . S
O2431 Zn2425 2.035 . S
O2432 Zn2425 2.028 . S
O2432 C2435 1.247 . S
O2433 Zn2427 2.035 . S
O2433 C2435 1.258 . S
C2434 O2428 1.247 . S
C2434 O2429 1.258 . S
C2435 O2432 1.247 . S
C2435 O2433 1.258 . S
C2436 O2438 1.247 . S
C2436 O2440 1.258 . S
C2437 O2444 1.247 . S
C2437 O2445 1.258 . S
O2438 C2436 1.247 . S
O2438 Zn2439 2.028 . S
Zn2439 O2438 2.028 . S
Zn2439 O2443 2.035 . S
Zn2439 O2445 2.035 . S
Zn2439 O2446 2.028 . S
O2440 C2436 1.258 . S
O2440 Zn2441 2.035 . S
Zn2441 O2440 2.035 . S
Zn2441 O2442 2.028 . S
Zn2441 O2444 2.028 . S
Zn2441 O2447 2.035 . S
O2442 Zn2441 2.028 . S
O2442 C2448 1.247 . S
O2443 Zn2439 2.035 . S
O2443 C2448 1.258 . S
O2444 C2437 1.247 . S
O2444 Zn2441 2.028 . S
O2445 C2437 1.258 . S
O2445 Zn2439 2.035 . S
O2446 Zn2439 2.028 . S
O2446 C2449 1.247 . S
O2447 Zn2441 2.035 . S
O2447 C2449 1.258 . S
C2448 O2442 1.247 . S
C2448 O2443 1.258 . S
C2449 O2446 1.247 . S
C2449 O2447 1.258 . S
C2450 O2452 1.247 . S
C2450 O2454 1.258 . S
C2451 O2458 1.247 . S
C2451 O2459 1.258 . S
O2452 C2450 1.247 . S
O2452 Zn2453 2.028 . S
Zn2453 O2452 2.028 . S
Zn2453 O2457 2.035 . S
Zn2453 O2459 2.035 . S
Zn2453 O2460 2.028 . S
O2454 C2450 1.258 . S
O2454 Zn2455 2.035 . S
Zn2455 O2454 2.035 . S
Zn2455 O2456 2.028 . S
Zn2455 O2458 2.028 . S
Zn2455 O2461 2.035 . S
O2456 Zn2455 2.028 . S
O2456 C2462 1.247 . S
O2457 Zn2453 2.035 . S
O2457 C2462 1.258 . S
O2458 C2451 1.247 . S
O2458 Zn2455 2.028 . S
O2459 C2451 1.258 . S
O2459 Zn2453 2.035 . S
O2460 Zn2453 2.028 . S
O2460 C2463 1.247 . S
O2461 Zn2455 2.035 . S
O2461 C2463 1.258 . S
C2462 O2456 1.247 . S
C2462 O2457 1.258 . S
C2463 O2460 1.247 . S
C2463 O2461 1.258 . S
C2464 O2466 1.247 . S
C2464 O2468 1.258 . S
C2465 O2472 1.247 . S
C2465 O2473 1.258 . S
O2466 C2464 1.247 . S
O2466 Zn2467 2.028 . S
Zn2467 O2466 2.028 . S
Zn2467 O2471 2.035 . S
Zn2467 O2473 2.035 . S
Zn2467 O2474 2.028 . S
O2468 C2464 1.258 . S
O2468 Zn2469 2.035 . S
Zn2469 O2468 2.035 . S
Zn2469 O2470 2.028 . S
Zn2469 O2472 2.028 . S
Zn2469 O2475 2.035 . S
O2470 Zn2469 2.028 . S
O2470 C2476 1.247 . S
O2471 Zn2467 2.035 . S
O2471 C2476 1.258 . S
O2472 C2465 1.247 . S
O2472 Zn2469 2.028 . S
O2473 C2465 1.258 . S
O2473 Zn2467 2.035 . S
O2474 Zn2467 2.028 . S
O2474 C2477 1.247 . S
O2475 Zn2469 2.035 . S
O2475 C2477 1.258 . S
C2476 O2470 1.247 . S
C2476 O2471 1.258 . S
C2477 O2474 1.247 . S
C2477 O2475 1.258 . S
C2478 O2480 1.247 . S
C2478 O2482 1.258 . S
C2479 O2486 1.247 . S
C2479 O2487 1.258 . S
O2480 C2478 1.247 . S
O2480 Zn2481 2.028 . S
Zn2481 O2480 2.028 . S
Zn2481 O2485 2.035 . S
Zn2481 O2487 2.035 . S
Zn2481 O2488 2.028 . S
O2482 C2478 1.258 . S
O2482 Zn2483 2.035 . S
Zn2483 O2482 2.035 . S
Zn2483 O2484 2.028 . S
Zn2483 O2486 2.028 . S
Zn2483 O2489 2.035 . S
O2484 Zn2483 2.028 . S
O2484 C2490 1.247 . S
O2485 Zn2481 2.035 . S
O2485 C2490 1.258 . S
O2486 C2479 1.247 . S
O2486 Zn2483 2.028 . S
O2487 C2479 1.258 . S
O2487 Zn2481 2.035 . S
O2488 Zn2481 2.028 . S
O2488 C2491 1.247 . S
O2489 Zn2483 2.035 . S
O2489 C2491 1.258 . S
C2490 O2484 1.247 . S
C2490 O2485 1.258 . S
C2491 O2488 1.247 . S
C2491 O2489 1.258 . S
C2492 O2494 1.247 . S
C2492 O2496 1.258 . S
C2493 O2500 1.247 . S
C2493 O2501 1.258 . S
O2494 C2492 1.247 . S
O2494 Zn2495 2.028 . S
Zn2495 O2494 2.028 . S
Zn2495 O2499 2.035 . S
Zn2495 O2501 2.035 . S
Zn2495 O2502 2.028 . S
O2496 C2492 1.258 . S
O2496 Zn2497 2.035 . S
Zn2497 O2496 2.035 . S
Zn2497 O2498 2.028 . S
Zn2497 O2500 2.028 . S
Zn2497 O2503 2.035 . S
O2498 Zn2497 2.028 . S
O2498 C2504 1.247 . S
O2499 Zn2495 2.035 . S
O2499 C2504 1.258 . S
O2500 C2493 1.247 . S
O2500 Zn2497 2.028 . S
O2501 C2493 1.258 . S
O2501 Zn2495 2.035 . S
O2502 Zn2495 2.028 . S
O2502 C2505 1.247 . S
O2503 Zn2497 2.035 . S
O2503 C2505 1.258 . S
C2504 O2498 1.247 . S
C2504 O2499 1.258 . S
C2505 O2502 1.247 . S
C2505 O2503 1.258 . S
C2506 O2508 1.247 . S
C2506 O2510 1.258 . S
C2507 O2514 1.247 . S
C2507 O2515 1.258 . S
O2508 C2506 1.247 . S
O2508 Zn2509 2.028 . S
Zn2509 O2508 2.028 . S
Zn2509 O2513 2.035 . S
Zn2509 O2515 2.035 . S
Zn2509 O2516 2.028 . S
O2510 C2506 1.258 . S
O2510 Zn2511 2.035 . S
Zn2511 O2510 2.035 . S
Zn2511 O2512 2.028 . S
Zn2511 O2514 2.028 . S
Zn2511 O2517 2.035 . S
O2512 Zn2511 2.028 . S
O2512 C2518 1.247 . S
O2513 Zn2509 2.035 . S
O2513 C2518 1.258 . S
O2514 C2507 1.247 . S
O2514 Zn2511 2.028 . S
O2515 C2507 1.258 . S
O2515 Zn2509 2.035 . S
O2516 Zn2509 2.028 . S
O2516 C2519 1.247 . S
O2517 Zn2511 2.035 . S
O2517 C2519 1.258 . S
C2518 O2512 1.247 . S
C2518 O2513 1.258 . S
C2519 O2516 1.247 . S
C2519 O2517 1.258 . S
C2520 O2522 1.247 . S
C2520 O2524 1.258 . S
C2521 O2528 1.247 . S
C2521 O2529 1.258 . S
O2522 C2520 1.247 . S
O2522 Zn2523 2.028 . S
Zn2523 O2522 2.028 . S
Zn2523 O2527 2.035 . S
Zn2523 O2529 2.035 . S
Zn2523 O2530 2.028 . S
O2524 C2520 1.258 . S
O2524 Zn2525 2.035 . S
Zn2525 O2524 2.035 . S
Zn2525 O2526 2.028 . S
Zn2525 O2528 2.028 . S
Zn2525 O2531 2.035 . S
O2526 Zn2525 2.028 . S
O2526 C2532 1.247 . S
O2527 Zn2523 2.035 . S
O2527 C2532 1.258 . S
O2528 C2521 1.247 . S
O2528 Zn2525 2.028 . S
O2529 C2521 1.258 . S
O2529 Zn2523 2.035 . S
O2530 Zn2523 2.028 . S
O2530 C2533 1.247 . S
O2531 Zn2525 2.035 . S
O2531 C2533 1.258 . S
C2532 O2526 1.247 . S
C2532 O2527 1.258 . S
C2533 O2530 1.247 . S
C2533 O2531 1.258 . S
C2534 O2536 1.247 . S
C2534 O2538 1.258 . S
C2535 O2542 1.247 . S
C2535 O2543 1.258 . S
O2536 C2534 1.247 . S
O2536 Zn2537 2.028 . S
Zn2537 O2536 2.028 . S
Zn2537 O2541 2.035 . S
Zn2537 O2543 2.035 . S
Zn2537 O2544 2.028 . S
O2538 C2534 1.258 . S
O2538 Zn2539 2.035 . S
Zn2539 O2538 2.035 . S
Zn2539 O2540 2.028 . S
Zn2539 O2542 2.028 . S
Zn2539 O2545 2.035 . S
O2540 Zn2539 2.028 . S
O2540 C2546 1.247 . S
O2541 Zn2537 2.035 . S
O2541 C2546 1.258 . S
O2542 C2535 1.247 . S
O2542 Zn2539 2.028 . S
O2543 C2535 1.258 . S
O2543 Zn2537 2.035 . S
O2544 Zn2537 2.028 . S
O2544 C2547 1.247 . S
O2545 Zn2539 2.035 . S
O2545 C2547 1.258 . S
C2546 O2540 1.247 . S
C2546 O2541 1.258 . S
C2547 O2544 1.247 . S
C2547 O2545 1.258 . S
C2548 O2550 1.247 . S
C2548 O2552 1.258 . S
C2549 O2556 1.247 . S
C2549 O2557 1.258 . S
O2550 C2548 1.247 . S
O2550 Zn2551 2.028 . S
Zn2551 O2550 2.028 . S
Zn2551 O2555 2.035 . S
Zn2551 O2557 2.035 . S
Zn2551 O2558 2.028 . S
O2552 C2548 1.258 . S
O2552 Zn2553 2.035 . S
Zn2553 O2552 2.035 . S
Zn2553 O2554 2.028 . S
Zn2553 O2556 2.028 . S
Zn2553 O2559 2.035 . S
O2554 Zn2553 2.028 . S
O2554 C2560 1.247 . S
O2555 Zn2551 2.035 . S
O2555 C2560 1.258 . S
O2556 C2549 1.247 . S
O2556 Zn2553 2.028 . S
O2557 C2549 1.258 . S
O2557 Zn2551 2.035 . S
O2558 Zn2551 2.028 . S
O2558 C2561 1.247 . S
O2559 Zn2553 2.035 . S
O2559 C2561 1.258 . S
C2560 O2554 1.247 . S
C2560 O2555 1.258 . S
C2561 O2558 1.247 . S
C2561 O2559 1.258 . S
C2562 O2564 1.247 . S
C2562 O2566 1.258 . S
C2563 O2570 1.247 . S
C2563 O2571 1.258 . S
O2564 C2562 1.247 . S
O2564 Zn2565 2.028 . S
Zn2565 O2564 2.028 . S
Zn2565 O2569 2.035 . S
Zn2565 O2571 2.035 . S
Zn2565 O2572 2.028 . S
O2566 C2562 1.258 . S
O2566 Zn2567 2.035 . S
Zn2567 O2566 2.035 . S
Zn2567 O2568 2.028 . S
Zn2567 O2570 2.028 . S
Zn2567 O2573 2.035 . S
O2568 Zn2567 2.028 . S
O2568 C2574 1.247 . S
O2569 Zn2565 2.035 . S
O2569 C2574 1.258 . S
O2570 C2563 1.247 . S
O2570 Zn2567 2.028 . S
O2571 C2563 1.258 . S
O2571 Zn2565 2.035 . S
O2572 Zn2565 2.028 . S
O2572 C2575 1.247 . S
O2573 Zn2567 2.035 . S
O2573 C2575 1.258 . S
C2574 O2568 1.247 . S
C2574 O2569 1.258 . S
C2575 O2572 1.247 . S
C2575 O2573 1.258 . S
C2576 O2578 1.247 . S
C2576 O2580 1.258 . S
C2577 O2584 1.247 . S
C2577 O2585 1.258 . S
O2578 C2576 1.247 . S
O2578 Zn2579 2.028 . S
Zn2579 O2578 2.028 . S
Zn2579 O2583 2.035 . S
Zn2579 O2585 2.035 . S
Zn2579 O2586 2.028 . S
O2580 C2576 1.258 . S
O2580 Zn2581 2.035 . S
Zn2581 O2580 2.035 . S
Zn2581 O2582 2.028 . S
Zn2581 O2584 2.028 . S
Zn2581 O2587 2.035 . S
O2582 Zn2581 2.028 . S
O2582 C2588 1.247 . S
O2583 Zn2579 2.035 . S
O2583 C2588 1.258 . S
O2584 C2577 1.247 . S
O2584 Zn2581 2.028 . S
O2585 C2577 1.258 . S
O2585 Zn2579 2.035 . S
O2586 Zn2579 2.028 . S
O2586 C2589 1.247 . S
O2587 Zn2581 2.035 . S
O2587 C2589 1.258 . S
C2588 O2582 1.247 . S
C2588 O2583 1.258 . S
C2589 O2586 1.247 . S
C2589 O2587 1.258 . S
C2590 O2592 1.247 . S
C2590 O2594 1.258 . S
C2591 O2598 1.247 . S
C2591 O2599 1.258 . S
O2592 C2590 1.247 . S
O2592 Zn2593 2.028 . S
Zn2593 O2592 2.028 . S
Zn2593 O2597 2.035 . S
Zn2593 O2599 2.035 . S
Zn2593 O2600 2.028 . S
O2594 C2590 1.258 . S
O2594 Zn2595 2.035 . S
Zn2595 O2594 2.035 . S
Zn2595 O2596 2.028 . S
Zn2595 O2598 2.028 . S
Zn2595 O2601 2.035 . S
O2596 Zn2595 2.028 . S
O2596 C2602 1.247 . S
O2597 Zn2593 2.035 . S
O2597 C2602 1.258 . S
O2598 C2591 1.247 . S
O2598 Zn2595 2.028 . S
O2599 C2591 1.258 . S
O2599 Zn2593 2.035 . S
O2600 Zn2593 2.028 . S
O2600 C2603 1.247 . S
O2601 Zn2595 2.035 . S
O2601 C2603 1.258 . S
C2602 O2596 1.247 . S
C2602 O2597 1.258 . S
C2603 O2600 1.247 . S
C2603 O2601 1.258 . S
C2604 O2606 1.247 . S
C2604 O2608 1.258 . S
C2605 O2612 1.247 . S
C2605 O2613 1.258 . S
O2606 C2604 1.247 . S
O2606 Zn2607 2.028 . S
Zn2607 O2606 2.028 . S
Zn2607 O2611 2.035 . S
Zn2607 O2613 2.035 . S
Zn2607 O2614 2.028 . S
O2608 C2604 1.258 . S
O2608 Zn2609 2.035 . S
Zn2609 O2608 2.035 . S
Zn2609 O2610 2.028 . S
Zn2609 O2612 2.028 . S
Zn2609 O2615 2.035 . S
O2610 Zn2609 2.028 . S
O2610 C2616 1.247 . S
O2611 Zn2607 2.035 . S
O2611 C2616 1.258 . S
O2612 C2605 1.247 . S
O2612 Zn2609 2.028 . S
O2613 C2605 1.258 . S
O2613 Zn2607 2.035 . S
O2614 Zn2607 2.028 . S
O2614 C2617 1.247 . S
O2615 Zn2609 2.035 . S
O2615 C2617 1.258 . S
C2616 O2610 1.247 . S
C2616 O2611 1.258 . S
C2617 O2614 1.247 . S
C2617 O2615 1.258 . S
C2618 O2620 1.247 . S
C2618 O2622 1.258 . S
C2619 O2626 1.247 . S
C2619 O2627 1.258 . S
O2620 C2618 1.247 . S
O2620 Zn2621 2.028 . S
Zn2621 O2620 2.028 . S
Zn2621 O2625 2.035 . S
Zn2621 O2627 2.035 . S
Zn2621 O2628 2.028 . S
O2622 C2618 1.258 . S
O2622 Zn2623 2.035 . S
Zn2623 O2622 2.035 . S
Zn2623 O2624 2.028 . S
Zn2623 O2626 2.028 . S
Zn2623 O2629 2.035 . S
O2624 Zn2623 2.028 . S
O2624 C2630 1.247 . S
O2625 Zn2621 2.035 . S
O2625 C2630 1.258 . S
O2626 C2619 1.247 . S
O2626 Zn2623 2.028 . S
O2627 C2619 1.258 . S
O2627 Zn2621 2.035 . S
O2628 Zn2621 2.028 . S
O2628 C2631 1.247 . S
O2629 Zn2623 2.035 . S
O2629 C2631 1.258 . S
C2630 O2624 1.247 . S
C2630 O2625 1.258 . S
C2631 O2628 1.247 . S
C2631 O2629 1.258 . S
C2632 O2634 1.247 . S
C2632 O2636 1.258 . S
C2633 O2640 1.247 . S
C2633 O2641 1.258 . S
O2634 C2632 1.247 . S
O2634 Zn2635 2.028 . S
Zn2635 O2634 2.028 . S
Zn2635 O2639 2.035 . S
Zn2635 O2641 2.035 . S
Zn2635 O2642 2.028 . S
O2636 C2632 1.258 . S
O2636 Zn2637 2.035 . S
Zn2637 O2636 2.035 . S
Zn2637 O2638 2.028 . S
Zn2637 O2640 2.028 . S
Zn2637 O2643 2.035 . S
O2638 Zn2637 2.028 . S
O2638 C2644 1.247 . S
O2639 Zn2635 2.035 . S
O2639 C2644 1.258 . S
O2640 C2633 1.247 . S
O2640 Zn2637 2.028 . S
O2641 C2633 1.258 . S
O2641 Zn2635 2.035 . S
O2642 Zn2635 2.028 . S
O2642 C2645 1.247 . S
O2643 Zn2637 2.035 . S
O2643 C2645 1.258 . S
C2644 O2638 1.247 . S
C2644 O2639 1.258 . S
C2645 O2642 1.247 . S
C2645 O2643 1.258 . S
C2646 O2648 1.247 . S
C2646 O2650 1.258 . S
C2647 O2654 1.247 . S
C2647 O2655 1.258 . S
O2648 C2646 1.247 . S
O2648 Zn2649 2.028 . S
Zn2649 O2648 2.028 . S
Zn2649 O2653 2.035 . S
Zn2649 O2655 2.035 . S
Zn2649 O2656 2.028 . S
O2650 C2646 1.258 . S
O2650 Zn2651 2.035 . S
Zn2651 O2650 2.035 . S
Zn2651 O2652 2.028 . S
Zn2651 O2654 2.028 . S
Zn2651 O2657 2.035 . S
O2652 Zn2651 2.028 . S
O2652 C2658 1.247 . S
O2653 Zn2649 2.035 . S
O2653 C2658 1.258 . S
O2654 C2647 1.247 . S
O2654 Zn2651 2.028 . S
O2655 C2647 1.258 . S
O2655 Zn2649 2.035 . S
O2656 Zn2649 2.028 . S
O2656 C2659 1.247 . S
O2657 Zn2651 2.035 . S
O2657 C2659 1.258 . S
C2658 O2652 1.247 . S
C2658 O2653 1.258 . S
C2659 O2656 1.247 . S
C2659 O2657 1.258 . S
C2660 O2662 1.247 . S
C2660 O2664 1.258 . S
C2661 O2668 1.247 . S
C2661 O2669 1.258 . S
O2662 C2660 1.247 . S
O2662 Zn2663 2.028 . S
Zn2663 O2662 2.028 . S
Zn2663 O2667 2.035 . S
Zn2663 O2669 2.035 . S
Zn2663 O2670 2.028 . S
O2664 C2660 1.258 . S
O2664 Zn2665 2.035 . S
Zn2665 O2664 2.035 . S
Zn2665 O2666 2.028 . S
Zn2665 O2668 2.028 . S
Zn2665 O2671 2.035 . S
O2666 Zn2665 2.028 . S
O2666 C2672 1.247 . S
O2667 Zn2663 2.035 . S
O2667 C2672 1.258 . S
O2668 C2661 1.247 . S
O2668 Zn2665 2.028 . S
O2669 C2661 1.258 . S
O2669 Zn2663 2.035 . S
O2670 Zn2663 2.028 . S
O2670 C2673 1.247 . S
O2671 Zn2665 2.035 . S
O2671 C2673 1.258 . S
C2672 O2666 1.247 . S
C2672 O2667 1.258 . S
C2673 O2670 1.247 . S
C2673 O2671 1.258 . S
C2674 O2676 1.247 . S
C2674 O2678 1.258 . S
C2675 O2682 1.247 . S
C2675 O2683 1.258 . S
O2676 C2674 1.247 . S
O2676 Zn2677 2.028 . S
Zn2677 O2676 2.028 . S
Zn2677 O2681 2.035 . S
Zn2677 O2683 2.035 . S
Zn2677 O2684 2.028 . S
O2678 C2674 1.258 . S
O2678 Zn2679 2.035 . S
Zn2679 O2678 2.035 . S
Zn2679 O2680 2.028 . S
Zn2679 O2682 2.028 . S
Zn2679 O2685 2.035 . S
O2680 Zn2679 2.028 . S
O2680 C2686 1.247 . S
O2681 Zn2677 2.035 . S
O2681 C2686 1.258 . S
O2682 C2675 1.247 . S
O2682 Zn2679 2.028 . S
O2683 C2675 1.258 . S
O2683 Zn2677 2.035 . S
O2684 Zn2677 2.028 . S
O2684 C2687 1.247 . S
O2685 Zn2679 2.035 . S
O2685 C2687 1.258 . S
C2686 O2680 1.247 . S
C2686 O2681 1.258 . S
C2687 O2684 1.247 . S
C2687 O2685 1.258 . S
C13 C392 1.826 1_455 S
C14 C407 1.831 1_545 S
C420 C29 1.826 . S
C54 C446 1.828 . S
C69 C336 1.826 1_455 S
C83 C362 1.826 1_545 S
C97 C376 1.826 . S
C111 C391 1.828 . S
C125 C2560 1.826 1_545 S
C139 C2562 1.826 . S
C153 C2532 1.826 . S
C167 C2546 1.826 1_455 S
C2492 C180 1.828 1_545 S
C2518 C195 1.826 . S
C2476 C209 1.826 . S
C223 C2490 1.826 1_655 S
C224 C631 1.831 1_554 S
C2619 C251 1.828 . S
C253 C1972 1.826 . S
C2602 C266 1.828 . S
C280 C1945 1.831 1_556 S
C572 C307 1.826 1_556 S
C2675 C309 1.828 . S
C335 C2661 1.828 . S
C2224 C460 1.828 1_545 S
C2227 C474 1.826 . S
C476 C2196 1.828 . S
C2199 C502 1.826 1_455 S
C517 C2156 1.831 1_545 S
C2183 C518 1.826 . S
C2141 C544 1.826 . S
C2155 C558 1.826 1_655 S
C2282 C587 1.831 . S
C1637 C588 1.826 . S
C603 C2254 1.831 . S
C628 C1596 1.828 1_554 S
C2338 C645 1.831 . S
C671 C2324 1.831 . S
C685 C1064 1.826 1_455 S
C699 C1091 1.828 . S
C713 C1104 1.826 . S
C1118 C714 1.828 1_545 S
C741 C1020 1.826 1_455 S
C755 C1034 1.826 . S
C1036 C769 1.826 . S
C1063 C783 1.828 1_545 S
C1888 C797 1.826 . S
C799 C1890 1.826 . S
C825 C1848 1.826 1_565 S
C1862 C839 1.826 1_655 S
C852 C1832 1.828 . S
C855 C1846 1.826 . S
C1805 C881 1.828 1_565 S
C895 C1806 1.826 1_655 S
C1315 C909 1.828 . S
C1959 C922 1.831 1_554 S
C925 C2633 1.828 1_556 S
C1919 C951 1.828 1_554 S
C952 C2605 1.831 . S
C979 C1244 1.826 . S
C2002 C992 1.828 1_556 S
C2000 C995 1.826 1_556 S
C1553 C1132 1.826 . S
C1567 C1134 1.826 . S
C1525 C1148 1.826 1_565 S
C1539 C1162 1.826 1_455 S
C1485 C1188 1.826 . S
C1190 C1499 1.826 . S
C1469 C1217 1.828 1_545 S
C1483 C1230 1.826 1_655 S
C1623 C1258 1.826 1_556 S
C1261 C2296 1.831 1_554 S
C1287 C1582 1.831 1_554 S
C2268 C1289 1.831 . S
C1667 C1317 1.828 1_554 S
C1343 C1653 1.828 1_556 S
C1357 C1736 1.826 . S
C1762 C1358 1.828 1_565 S
C1764 C1373 1.826 1_455 S
C1790 C1398 1.828 . S
C1692 C1401 1.826 . S
C1707 C1426 1.831 1_565 S
C1429 C1708 1.826 1_655 S
C1455 C1735 1.828 . S
C1580 C1986 1.828 . S
C1916 C1651 1.826 . S
C2029 C2408 1.826 . S
C2434 C2042 1.828 . S
C2057 C2436 1.826 1_655 S
C2462 C2071 1.826 1_545 S
C2073 C2352 1.826 . S
C2379 C2086 1.831 . S
C2392 C2101 1.826 1_455 S
C2127 C2395 1.828 1_565 S
C2240 C2647 1.831 1_554 S
C2588 C2322 1.828 1_556 S
C0 C981 1.797 . S
C237 C27 1.794 . S
C40 C1006 1.801 . S
C2311 C43 1.794 . S
C936 C56 1.801 . S
C1610 C70 1.801 . S
C84 C293 1.797 . S
C98 C1595 1.797 . S
C1526 C112 1.801 . S
C126 C868 1.801 . S
C1554 C140 1.801 . S
C154 C841 1.797 . S
C826 C169 1.797 . S
C182 C1456 1.801 . S
C810 C196 1.801 . S
C1496 C210 1.801 . S
C1442 C238 1.801 . S
C728 C264 1.801 . S
C1415 C279 1.794 . S
C2058 C294 1.801 . S
C320 C672 1.801 . S
C700 C322 1.801 . S
C349 C1328 1.797 . S
C561 C351 1.801 . S
C365 C1330 1.797 . S
C2658 C378 1.794 . S
C1272 C405 1.797 . S
C1946 C418 1.794 . S
C433 C617 1.801 . S
C1930 C435 1.797 . S
C449 C1875 1.801 . S
C1204 C463 1.797 . S
C489 C1903 1.801 . S
C491 C1177 1.801 . S
C504 C1175 1.797 . S
C531 C1792 1.797 . S
C1147 C533 1.801 . S
C547 C1821 1.801 . S
C574 C1779 1.797 . S
C1077 C601 1.801 . S
C1751 C614 1.797 . S
C2406 C642 1.794 . S
C1009 C656 1.797 . S
C658 C1049 1.797 . S
C896 C686 1.801 . S
C727 C1638 1.797 . S
C2295 C742 1.797 . S
C965 C756 1.797 . S
C770 C2267 1.797 . S
C784 C2210 1.801 . S
C2238 C812 1.801 . S
C2128 C866 1.801 . S
C882 C2169 1.797 . S
C2114 C911 1.797 . S
C938 C2099 1.797 . S
C966 C1387 1.797 . S
C1233 C1023 1.801 . S
C1050 C1975 1.797 . S
C1078 C2630 1.794 . S
C1093 C1300 1.797 . S
C1107 C2591 1.801 . S
C2535 C1121 1.801 . S
C1161 C2575 1.801 . S
C2465 C1203 1.801 . S
C2505 C1219 1.801 . S
C1247 C2451 1.801 . S
C1274 C2423 1.797 . S
C1302 C1722 1.794 . S
C2337 C1344 1.797 . S
C1371 C1569 1.794 . S
C2351 C1384 1.797 . S
C2281 C1412 1.797 . S
C1624 C1440 1.801 . S
C2213 C1470 1.797 . S
C1510 C2185 1.797 . S
C1512 C2170 1.801 . S
C1540 C2142 1.801 . S
C2084 C1609 1.797 . S
C2016 C1664 1.801 . S
C2044 C1678 1.801 . S
C1681 C2672 1.797 . S
C1905 C1694 1.797 . S
C2686 C1721 1.797 . S
C1749 C2616 1.797 . S
C1961 C1777 1.801 . S
C2549 C1819 1.801 . S
C1835 C2521 1.801 . S
C1861 C2507 1.801 . S
C2479 C1877 1.801 . S
C2421 C1932 1.797 . S
C1989 C2365 1.801 . S
C2015 C2381 1.801 . S
C2253 C2031 1.794 . S
C2309 C2112 1.797 . S
C2577 C2366 1.797 . S
C2449 C2644 1.797 . S
C124 C1 2.298 . S
C26 C138 2.306 . S
C152 C41 2.298 . S
C42 C166 2.306 . S
C181 C57 2.291 . S
C194 C71 2.298 . S
C208 C85 2.298 . S
C99 C222 2.298 . S
C113 C225 2.291 . S
C127 C994 2.298 . S
C141 C2323 2.291 . S
C993 C155 2.291 . S
C168 C923 2.299 . S
C183 C1597 2.291 . S
C197 C950 2.298 . S
C211 C2297 2.291 . S
C12 C236 2.306 . S
C239 C740 2.298 . S
C1427 C265 2.291 . S
C278 C768 2.306 . S
C2126 C292 2.306 . S
C295 C2056 2.298 . S
C715 C321 2.291 . S
C698 C323 2.298 . S
C461 C348 2.298 . S
C350 C475 2.298 . S
C364 C477 2.298 . S
C379 C503 2.306 . S
C516 C404 2.291 . S
C519 C419 2.306 . S
C432 C545 2.298 . S
C559 C434 2.298 . S
C448 C573 2.298 . S
C462 C1342 2.291 . S
C2646 C488 2.291 . S
C490 C1316 2.291 . S
C505 C1259 2.306 . S
C1944 C530 2.291 . S
C1286 C532 2.291 . S
C2632 C546 2.291 . S
C337 C560 2.298 . S
C575 C1065 2.306 . S
C1763 C600 2.298 . S
C615 C1105 2.306 . S
C2463 C616 2.298 . S
C2393 C643 2.306 . S
C1062 C657 2.299 . S
C1035 C659 2.306 . S
C796 C673 2.298 . S
C687 C798 2.298 . S
C824 C701 2.298 . S
C726 C838 2.306 . S
C729 C853 2.291 . S
C743 C854 2.298 . S
C880 C757 2.298 . S
C771 C894 2.298 . S
C908 C785 2.298 . S
C334 C811 2.298 . S
C813 C1650 2.298 . S
C308 C827 2.298 . S
C840 C250 2.306 . S
C2269 C867 2.291 . S
C267 C869 2.291 . S
C883 C1636 2.298 . S
C897 C684 2.298 . S
C68 C910 2.306 . S
C937 C2087 2.291 . S
C96 C939 2.298 . S
C964 C1454 2.306 . S
C1372 C967 2.298 . S
C980 C55 2.299 . S
C15 C1007 2.291 . S
C1008 C1133 2.298 . S
C1022 C1135 2.298 . S
C1149 C1048 2.298 . S
C1051 C1163 2.306 . S
C1189 C1076 2.298 . S
C1191 C1079 2.306 . S
C1216 C1092 2.291 . S
C1231 C1106 2.298 . S
C1120 C1245 2.298 . S
C1146 C670 2.291 . S
C1160 C1987 2.298 . S
C644 C1174 2.291 . S
C1176 C586 2.291 . S
C1202 C2604 2.291 . S
C1205 C602 2.299 . S
C1218 C1973 2.298 . S
C1021 C1232 2.298 . S
C1246 C393 2.298 . S
C2435 C1273 2.306 . S
C421 C1275 2.306 . S
C1301 C1791 2.306 . S
C1709 C1303 2.306 . S
C390 C1329 2.299 . S
C1331 C363 2.306 . S
C1345 C1468 2.298 . S
C1370 C1482 2.306 . S
C1484 C1385 2.298 . S
C1498 C1386 2.306 . S
C1524 C1413 2.298 . S
C1538 C1414 2.306 . S
C1441 C1552 2.298 . S
C1443 C1566 2.298 . S
C1581 C1457 2.291 . S
C1471 C2339 2.291 . S
C1497 C978 2.298 . S
C1511 C2325 2.291 . S
C1513 C2255 2.291 . S
C252 C1527 2.298 . S
C1541 C2283 2.291 . S
C953 C1555 2.291 . S
C1356 C1568 2.306 . S
C2072 C1594 2.306 . S
C82 C1608 2.306 . S
C2100 C1611 2.298 . S
C782 C1625 2.298 . S
C712 C1639 2.298 . S
C1665 C2070 2.298 . S
C1679 C2043 2.291 . S
C1680 C1804 2.291 . S
C1807 C1695 2.306 . S
C1720 C1833 2.298 . S
C1847 C1723 2.306 . S
C1849 C1748 2.298 . S
C1863 C1750 2.298 . S
C1776 C1889 2.298 . S
C1891 C1778 2.298 . S
C1793 C1917 2.306 . S
C2674 C1818 2.291 . S
C1314 C1820 2.291 . S
C2660 C1834 2.291 . S
C2603 C1860 2.298 . S
C589 C1874 2.298 . S
C2618 C1876 2.291 . S
C1288 C1902 2.291 . S
C1693 C1904 2.298 . S
C1931 C2409 2.306 . S
C406 C1933 2.299 . S
C1947 C2437 2.306 . S
C1119 C1960 2.298 . S
C1037 C1974 2.298 . S
C1988 C2394 2.291 . S
C2014 C2378 2.291 . S
C2140 C2017 2.298 . S
C2030 C2154 2.306 . S
C2045 C2157 2.291 . S
C2059 C2182 2.298 . S
C2085 C2197 2.291 . S
C2198 C2098 2.306 . S
C2225 C2113 2.291 . S
C2226 C2115 2.298 . S
C2129 C2241 2.291 . S
C2143 C1666 2.298 . S
C306 C2168 2.306 . S
C2171 C1652 2.298 . S
C1583 C2184 2.299 . S
C924 C2211 2.298 . S
C2212 C1622 2.306 . S
C2239 C281 2.291 . S
C2028 C2252 2.306 . S
C2266 C1400 2.306 . S
C754 C2280 2.306 . S
C2294 C1428 2.306 . S
C110 C2308 2.306 . S
C2310 C28 2.306 . S
C1399 C2336 2.299 . S
C2350 C1359 2.299 . S
C2364 C2477 2.298 . S
C2491 C2367 2.306 . S
C2380 C2493 2.298 . S
C2407 C2519 2.306 . S
C2533 C2420 2.298 . S
C2422 C2547 2.298 . S
C2448 C2561 2.298 . S
C2450 C2563 2.298 . S
C2464 C2589 2.298 . S
C2478 C2003 2.298 . S
C630 C2504 2.291 . S
C2506 C2001 2.298 . S
C2520 C1918 2.291 . S
C2534 C1260 2.291 . S
C2548 C1958 2.291 . S
C629 C2574 2.298 . S
C2576 C2353 2.298 . S
C2590 C1737 2.298 . S
C2617 C1090 2.299 . S
C2631 C1765 2.306 . S
C2645 C447 2.306 . S
C2659 C377 2.306 . S
C1734 C2673 2.299 . S
C1706 C2687 2.299 . S
