# Generated by pormake.
# Topology skb, (5)-cn, num edge types: 1
# Building blocks:
#     Node 0, Type 0, BuildingBlock: BEQFEK_clean_sbu_0, # of connection points: 5
#     Node 1, Type 0, BuildingBlock: BEQFEK_clean_sbu_0, # of connection points: 5
#     Node 2, Type 0, BuildingBlock: BEQFEK_clean_sbu_0, # of connection points: 5
#     Node 3, Type 0, BuildingBlock: BEQFEK_clean_sbu_0, # of connection points: 5
#     Node 4, Type 0, BuildingBlock: BEQFEK_clean_sbu_0, # of connection points: 5
#     Node 5, Type 0, BuildingBlock: BEQFEK_clean_sbu_0, # of connection points: 5
#     Node 6, Type 0, BuildingBlock: BEQFEK_clean_sbu_0, # of connection points: 5
#     Node 7, Type 0, BuildingBlock: BEQFEK_clean_sbu_0, # of connection points: 5
#     Node 8, Type 0, BuildingBlock: BEQFEK_clean_sbu_0, # of connection points: 5
#     Node 9, Type 0, BuildingBlock: BEQFEK_clean_sbu_0, # of connection points: 5
#     Node 10, Type 0, BuildingBlock: BEQFEK_clean_sbu_0, # of connection points: 5
#     Node 11, Type 0, BuildingBlock: BEQFEK_clean_sbu_0, # of connection points: 5
#     Node 12, Type 0, BuildingBlock: BEQFEK_clean_sbu_0, # of connection points: 5
#     Node 13, Type 0, BuildingBlock: BEQFEK_clean_sbu_0, # of connection points: 5
#     Node 14, Type 0, BuildingBlock: BEQFEK_clean_sbu_0, # of connection points: 5
#     Node 15, Type 0, BuildingBlock: BEQFEK_clean_sbu_0, # of connection points: 5
#     Edge 16, Type (0, 0), BuildingBlock: OJICUG_clean_linker_0, # of connection points: 2
#     Edge 17, Type (0, 0), BuildingBlock: OJICUG_clean_linker_0, # of connection points: 2
#     Edge 18, Type (0, 0), BuildingBlock: OJICUG_clean_linker_0, # of connection points: 2
#     Edge 19, Type (0, 0), BuildingBlock: OJICUG_clean_linker_0, # of connection points: 2
#     Edge 20, Type (0, 0), BuildingBlock: OJICUG_clean_linker_0, # of connection points: 2
#     Edge 21, Type (0, 0), BuildingBlock: OJICUG_clean_linker_0, # of connection points: 2
#     Edge 22, Type (0, 0), BuildingBlock: OJICUG_clean_linker_0, # of connection points: 2
#     Edge 23, Type (0, 0), BuildingBlock: OJICUG_clean_linker_0, # of connection points: 2
#     Edge 24, Type (0, 0), BuildingBlock: OJICUG_clean_linker_0, # of connection points: 2
#     Edge 25, Type (0, 0), BuildingBlock: OJICUG_clean_linker_0, # of connection points: 2
#     Edge 26, Type (0, 0), BuildingBlock: OJICUG_clean_linker_0, # of connection points: 2
#     Edge 27, Type (0, 0), BuildingBlock: OJICUG_clean_linker_0, # of connection points: 2
#     Edge 28, Type (0, 0), BuildingBlock: OJICUG_clean_linker_0, # of connection points: 2
#     Edge 29, Type (0, 0), BuildingBlock: OJICUG_clean_linker_0, # of connection points: 2
#     Edge 30, Type (0, 0), BuildingBlock: OJICUG_clean_linker_0, # of connection points: 2
#     Edge 31, Type (0, 0), BuildingBlock: OJICUG_clean_linker_0, # of connection points: 2
#     Edge 32, Type (0, 0), BuildingBlock: OJICUG_clean_linker_0, # of connection points: 2
#     Edge 33, Type (0, 0), BuildingBlock: OJICUG_clean_linker_0, # of connection points: 2
#     Edge 34, Type (0, 0), BuildingBlock: OJICUG_clean_linker_0, # of connection points: 2
#     Edge 35, Type (0, 0), BuildingBlock: OJICUG_clean_linker_0, # of connection points: 2
#     Edge 36, Type (0, 0), BuildingBlock: OJICUG_clean_linker_0, # of connection points: 2
#     Edge 37, Type (0, 0), BuildingBlock: OJICUG_clean_linker_0, # of connection points: 2
#     Edge 38, Type (0, 0), BuildingBlock: OJICUG_clean_linker_0, # of connection points: 2
#     Edge 39, Type (0, 0), BuildingBlock: OJICUG_clean_linker_0, # of connection points: 2
#     Edge 40, Type (0, 0), BuildingBlock: OJICUG_clean_linker_0, # of connection points: 2
#     Edge 41, Type (0, 0), BuildingBlock: OJICUG_clean_linker_0, # of connection points: 2
#     Edge 42, Type (0, 0), BuildingBlock: OJICUG_clean_linker_0, # of connection points: 2
#     Edge 43, Type (0, 0), BuildingBlock: OJICUG_clean_linker_0, # of connection points: 2
#     Edge 44, Type (0, 0), BuildingBlock: OJICUG_clean_linker_0, # of connection points: 2
#     Edge 45, Type (0, 0), BuildingBlock: OJICUG_clean_linker_0, # of connection points: 2
#     Edge 46, Type (0, 0), BuildingBlock: OJICUG_clean_linker_0, # of connection points: 2
#     Edge 47, Type (0, 0), BuildingBlock: OJICUG_clean_linker_0, # of connection points: 2
#     Edge 48, Type (0, 0), BuildingBlock: OJICUG_clean_linker_0, # of connection points: 2
#     Edge 49, Type (0, 0), BuildingBlock: OJICUG_clean_linker_0, # of connection points: 2
#     Edge 50, Type (0, 0), BuildingBlock: OJICUG_clean_linker_0, # of connection points: 2
#     Edge 51, Type (0, 0), BuildingBlock: OJICUG_clean_linker_0, # of connection points: 2
#     Edge 52, Type (0, 0), BuildingBlock: OJICUG_clean_linker_0, # of connection points: 2
#     Edge 53, Type (0, 0), BuildingBlock: OJICUG_clean_linker_0, # of connection points: 2
#     Edge 54, Type (0, 0), BuildingBlock: OJICUG_clean_linker_0, # of connection points: 2
#     Edge 55, Type (0, 0), BuildingBlock: OJICUG_clean_linker_0, # of connection points: 2
# Relax obj value: 0.051
# Max RMSD: 0.093
# Mean RMSD: 0.093
data_MOF--net-skb--node1-BEQFEK_clean_sbu_0--edge1-OJICUG_clean_linker_0
_symmetry_space_group_name_H-M    P1
_symmetry_Int_Tables_number       1
_symmetry_cell_setting            triclinic
loop_
_symmetry_equiv_pos_as_xyz
'x, y, z'
_cell_length_a     30.253322
_cell_length_b     22.636453
_cell_length_c     60.513259
_cell_angle_alpha  89.999993
_cell_angle_beta   90.000682
_cell_angle_gamma 89.999691
loop_
_atom_site_label
_atom_site_type_symbol
_atom_site_fract_x
_atom_site_fract_y
_atom_site_fract_z
_atom_type_partial_charge
Co0 Co 0.17239 0.04117 0.09812 0.0
Co1 Co 0.17922 0.03716 0.14977 0.0
C2 C 0.20977 0.14284 0.12521 0.0
O3 O 0.2002 0.11802 0.10688 0.0
O4 O 0.20277 0.11692 0.14356 0.0
C5 C 0.21252 0.02921 0.05508 0.0
O6 O 0.24976 0.03118 0.06623 0.0
C7 C 0.21088 0.03809 0.19636 0.0
C8 C 0.16838 0.9683 0.21055 0.0
C9 C 0.20219 0.00712 0.21572 0.0
N10 N 0.18336 0.01827 0.18051 0.0
N11 N 0.15777 0.97709 0.18923 0.0
C12 C 0.24714 0.08175 0.1924 0.0
H13 H 0.25788 0.08025 0.17488 0.0
H14 H 0.27577 0.07285 0.20337 0.0
H15 H 0.23458 0.12681 0.19597 0.0
C16 C 0.20714 0.92043 0.1045 0.0
N17 N 0.19944 0.97556 0.11182 0.0
N18 N 0.20946 0.97876 0.13284 0.0
C19 C 0.22854 0.92777 0.13913 0.0
C20 C 0.22683 0.88738 0.1215 0.0
C21 C 0.18755 0.89836 0.08329 0.0
H22 H 0.16039 0.92778 0.07781 0.0
H23 H 0.21334 0.89787 0.07025 0.0
H24 H 0.17377 0.85329 0.08536 0.0
O25 O 0.11021 0.03927 0.10622 0.0
O26 O 0.11422 0.03253 0.14277 0.0
H27 H 0.22659 0.90195 0.17319 0.0
H28 H 0.27986 0.89181 0.15994 0.0
C29 C 0.25041 0.92083 0.16118 0.0
H30 H 0.26127 0.9645 0.16743 0.0
H31 H 0.13379 0.9538 0.18041 0.0
O32 O 0.1761 0.03338 0.06544 0.0
C33 C 0.09165 0.03368 0.12496 0.0
Co34 Co 0.82267 0.98026 0.09812 0.0
Co35 Co 0.81584 0.98427 0.14977 0.0
C36 C 0.78529 0.87859 0.12521 0.0
O37 O 0.79486 0.90341 0.10688 0.0
O38 O 0.79229 0.90451 0.14356 0.0
C39 C 0.78253 0.99221 0.05508 0.0
O40 O 0.7453 0.99025 0.06623 0.0
C41 C 0.78418 0.98333 0.19636 0.0
C42 C 0.82669 0.05313 0.21055 0.0
C43 C 0.79288 0.01431 0.21572 0.0
N44 N 0.8117 0.00315 0.18051 0.0
N45 N 0.83729 0.04434 0.18923 0.0
C46 C 0.74792 0.93967 0.1924 0.0
H47 H 0.73718 0.94118 0.17488 0.0
H48 H 0.71929 0.94858 0.20337 0.0
H49 H 0.76049 0.89462 0.19597 0.0
C50 C 0.78792 0.10099 0.1045 0.0
N51 N 0.79562 0.04587 0.11182 0.0
N52 N 0.7856 0.04267 0.13284 0.0
C53 C 0.76652 0.09365 0.13913 0.0
C54 C 0.76823 0.13405 0.1215 0.0
C55 C 0.8075 0.12306 0.08329 0.0
H56 H 0.83467 0.09364 0.07781 0.0
H57 H 0.78172 0.12356 0.07025 0.0
H58 H 0.82129 0.16813 0.08536 0.0
O59 O 0.88485 0.98216 0.10622 0.0
O60 O 0.88084 0.98889 0.14277 0.0
H61 H 0.76847 0.11948 0.17319 0.0
H62 H 0.7152 0.12962 0.15994 0.0
C63 C 0.74465 0.10059 0.16118 0.0
H64 H 0.73379 0.05692 0.16743 0.0
H65 H 0.86127 0.06763 0.18041 0.0
O66 O 0.81896 0.98805 0.06544 0.0
C67 C 0.90341 0.98775 0.12496 0.0
Co68 Co 0.17239 0.98026 0.91726 0.0
Co69 Co 0.17922 0.98427 0.86561 0.0
C70 C 0.20978 0.87859 0.89018 0.0
O71 O 0.2002 0.90341 0.9085 0.0
O72 O 0.20278 0.90451 0.87182 0.0
C73 C 0.21253 0.99221 0.96031 0.0
O74 O 0.24976 0.99024 0.94916 0.0
C75 C 0.21088 0.98333 0.81902 0.0
C76 C 0.16838 0.05313 0.80483 0.0
C77 C 0.20219 0.01431 0.79966 0.0
N78 N 0.18336 0.00316 0.83487 0.0
N79 N 0.15777 0.04434 0.82615 0.0
C80 C 0.24714 0.93967 0.82299 0.0
H81 H 0.25788 0.94118 0.8405 0.0
H82 H 0.27577 0.94858 0.81201 0.0
H83 H 0.23458 0.89462 0.81941 0.0
C84 C 0.20714 0.101 0.91088 0.0
N85 N 0.19944 0.04587 0.90356 0.0
N86 N 0.20946 0.04267 0.88254 0.0
C87 C 0.22854 0.09366 0.87625 0.0
C88 C 0.22683 0.13405 0.89388 0.0
C89 C 0.18756 0.12307 0.93209 0.0
H90 H 0.16039 0.09365 0.93757 0.0
H91 H 0.21334 0.12356 0.94513 0.0
H92 H 0.17377 0.16814 0.93002 0.0
O93 O 0.11021 0.98216 0.90916 0.0
O94 O 0.11422 0.98889 0.87261 0.0
H95 H 0.22659 0.11948 0.84219 0.0
H96 H 0.27986 0.12962 0.85545 0.0
C97 C 0.25041 0.1006 0.85421 0.0
H98 H 0.26127 0.05693 0.84795 0.0
H99 H 0.13379 0.06763 0.83497 0.0
O100 O 0.1761 0.98805 0.94994 0.0
C101 C 0.09165 0.98774 0.89042 0.0
Co102 Co 0.82267 0.04115 0.91726 0.0
Co103 Co 0.81584 0.03714 0.86561 0.0
C104 C 0.78528 0.14282 0.89018 0.0
O105 O 0.79486 0.118 0.9085 0.0
O106 O 0.79228 0.1169 0.87182 0.0
C107 C 0.78254 0.0292 0.9603 0.0
O108 O 0.7453 0.03117 0.94916 0.0
C109 C 0.78418 0.03807 0.81902 0.0
C110 C 0.82668 0.96827 0.80484 0.0
C111 C 0.79287 0.00709 0.79966 0.0
N112 N 0.8117 0.01825 0.83487 0.0
N113 N 0.83729 0.97706 0.82616 0.0
C114 C 0.74792 0.08174 0.82298 0.0
H115 H 0.73718 0.08023 0.8405 0.0
H116 H 0.71929 0.07283 0.81201 0.0
H117 H 0.76049 0.12679 0.81941 0.0
C118 C 0.78792 0.92041 0.91088 0.0
N119 N 0.79562 0.97554 0.90356 0.0
N120 N 0.7856 0.97874 0.88254 0.0
C121 C 0.76651 0.92775 0.87625 0.0
C122 C 0.76823 0.88736 0.89388 0.0
C123 C 0.80751 0.89834 0.93209 0.0
H124 H 0.83467 0.92776 0.93757 0.0
H125 H 0.78172 0.89785 0.94513 0.0
H126 H 0.82129 0.85327 0.93002 0.0
O127 O 0.88485 0.03925 0.90916 0.0
O128 O 0.88084 0.03251 0.87261 0.0
H129 H 0.76846 0.90193 0.84219 0.0
H130 H 0.7152 0.89179 0.85545 0.0
C131 C 0.74465 0.92081 0.85421 0.0
H132 H 0.73379 0.96448 0.84795 0.0
H133 H 0.86127 0.95377 0.83498 0.0
O134 O 0.81896 0.03336 0.94994 0.0
C135 C 0.90341 0.03366 0.89042 0.0
Co136 Co 0.17239 0.54116 0.59812 0.0
Co137 Co 0.17922 0.53715 0.64977 0.0
C138 C 0.20978 0.64283 0.62521 0.0
O139 O 0.2002 0.61801 0.60688 0.0
O140 O 0.20278 0.61691 0.64356 0.0
C141 C 0.21253 0.52919 0.55508 0.0
O142 O 0.24977 0.53114 0.56623 0.0
C143 C 0.21088 0.53809 0.69636 0.0
C144 C 0.16838 0.46829 0.71055 0.0
C145 C 0.20219 0.50711 0.71572 0.0
N146 N 0.18336 0.51827 0.68051 0.0
N147 N 0.15778 0.47708 0.68922 0.0
C148 C 0.24714 0.58175 0.6924 0.0
H149 H 0.25789 0.58024 0.67488 0.0
H150 H 0.27577 0.57284 0.70337 0.0
H151 H 0.23458 0.6268 0.69597 0.0
C152 C 0.20714 0.42043 0.6045 0.0
N153 N 0.19945 0.47555 0.61182 0.0
N154 N 0.20946 0.47875 0.63284 0.0
C155 C 0.22855 0.42777 0.63913 0.0
C156 C 0.22683 0.38737 0.6215 0.0
C157 C 0.18756 0.39835 0.58329 0.0
H158 H 0.16039 0.42778 0.57781 0.0
H159 H 0.21334 0.39786 0.57025 0.0
H160 H 0.17377 0.35328 0.58536 0.0
O161 O 0.11021 0.53926 0.60622 0.0
O162 O 0.11423 0.53252 0.64277 0.0
H163 H 0.2266 0.40194 0.67319 0.0
H164 H 0.27987 0.39181 0.65994 0.0
C165 C 0.25041 0.42083 0.66118 0.0
H166 H 0.26128 0.4645 0.66743 0.0
H167 H 0.13379 0.45379 0.68041 0.0
O168 O 0.1761 0.53337 0.56544 0.0
C169 C 0.09165 0.53367 0.62496 0.0
Co170 Co 0.82268 0.48025 0.59812 0.0
Co171 Co 0.81585 0.48426 0.64977 0.0
C172 C 0.78529 0.37858 0.62521 0.0
O173 O 0.79486 0.4034 0.60688 0.0
O174 O 0.79229 0.4045 0.64356 0.0
C175 C 0.78254 0.4922 0.55508 0.0
O176 O 0.7453 0.49022 0.56622 0.0
C177 C 0.78419 0.48332 0.69636 0.0
C178 C 0.82669 0.55311 0.71055 0.0
C179 C 0.79288 0.51429 0.71572 0.0
N180 N 0.81171 0.50314 0.68051 0.0
N181 N 0.83729 0.54433 0.68923 0.0
C182 C 0.74793 0.43966 0.69239 0.0
H183 H 0.73718 0.44117 0.67488 0.0
H184 H 0.7193 0.44856 0.70337 0.0
H185 H 0.76049 0.39461 0.69597 0.0
C186 C 0.78793 0.60098 0.6045 0.0
N187 N 0.79562 0.54586 0.61182 0.0
N188 N 0.78561 0.54266 0.63284 0.0
C189 C 0.76652 0.59364 0.63913 0.0
C190 C 0.76824 0.63404 0.6215 0.0
C191 C 0.80751 0.62306 0.58329 0.0
H192 H 0.83467 0.59364 0.57781 0.0
H193 H 0.78173 0.62355 0.57025 0.0
H194 H 0.82129 0.66813 0.58536 0.0
O195 O 0.88486 0.48215 0.60622 0.0
O196 O 0.88084 0.48888 0.64277 0.0
H197 H 0.76847 0.61947 0.67319 0.0
H198 H 0.71521 0.62961 0.65994 0.0
C199 C 0.74466 0.60059 0.66118 0.0
H200 H 0.7338 0.55692 0.66743 0.0
H201 H 0.86128 0.56762 0.68041 0.0
O202 O 0.81897 0.48804 0.56544 0.0
C203 C 0.90342 0.48774 0.62496 0.0
Co204 Co 0.17239 0.48025 0.41726 0.0
Co205 Co 0.17922 0.48426 0.36561 0.0
C206 C 0.20978 0.37858 0.39018 0.0
O207 O 0.20021 0.4034 0.4085 0.0
O208 O 0.20278 0.4045 0.37182 0.0
C209 C 0.21253 0.49219 0.46031 0.0
O210 O 0.24977 0.4902 0.44916 0.0
C211 C 0.21088 0.48333 0.31902 0.0
C212 C 0.16838 0.55313 0.30484 0.0
C213 C 0.20219 0.51431 0.29966 0.0
N214 N 0.18336 0.50315 0.33487 0.0
N215 N 0.15778 0.54434 0.32616 0.0
C216 C 0.24714 0.43967 0.32298 0.0
H217 H 0.25788 0.44117 0.3405 0.0
H218 H 0.27577 0.44857 0.31201 0.0
H219 H 0.23458 0.39462 0.31941 0.0
C220 C 0.20714 0.60099 0.41088 0.0
N221 N 0.19945 0.54586 0.40356 0.0
N222 N 0.20946 0.54266 0.38254 0.0
C223 C 0.22855 0.59364 0.37625 0.0
C224 C 0.22683 0.63404 0.39388 0.0
C225 C 0.18756 0.62306 0.43209 0.0
H226 H 0.1604 0.59364 0.43757 0.0
H227 H 0.21335 0.62355 0.44513 0.0
H228 H 0.17378 0.66813 0.43002 0.0
O229 O 0.11021 0.48216 0.40916 0.0
O230 O 0.11423 0.48889 0.37261 0.0
H231 H 0.2266 0.61947 0.34219 0.0
H232 H 0.27987 0.6296 0.35545 0.0
C233 C 0.25041 0.60059 0.35421 0.0
H234 H 0.26127 0.55692 0.34795 0.0
H235 H 0.13379 0.56763 0.33498 0.0
O236 O 0.1761 0.48805 0.44994 0.0
C237 C 0.09165 0.48774 0.39043 0.0
Co238 Co 0.82268 0.54116 0.41726 0.0
Co239 Co 0.81585 0.53715 0.36561 0.0
C240 C 0.78529 0.64283 0.39018 0.0
O241 O 0.79486 0.61801 0.4085 0.0
O242 O 0.79229 0.61691 0.37182 0.0
C243 C 0.78254 0.5292 0.46031 0.0
O244 O 0.7453 0.53116 0.44915 0.0
C245 C 0.78418 0.53809 0.31902 0.0
C246 C 0.82669 0.46829 0.30483 0.0
C247 C 0.79288 0.50711 0.29966 0.0
N248 N 0.8117 0.51827 0.33487 0.0
N249 N 0.83729 0.47708 0.32616 0.0
C250 C 0.74793 0.58175 0.32298 0.0
H251 H 0.73718 0.58024 0.3405 0.0
H252 H 0.7193 0.57284 0.31201 0.0
H253 H 0.76049 0.6268 0.31941 0.0
C254 C 0.78793 0.42043 0.41088 0.0
N255 N 0.79562 0.47555 0.40356 0.0
N256 N 0.78561 0.47875 0.38254 0.0
C257 C 0.76652 0.42777 0.37625 0.0
C258 C 0.76824 0.38737 0.39388 0.0
C259 C 0.80751 0.39835 0.43209 0.0
H260 H 0.83467 0.42778 0.43757 0.0
H261 H 0.78173 0.39786 0.44513 0.0
H262 H 0.8213 0.35328 0.43002 0.0
O263 O 0.88486 0.53926 0.40916 0.0
O264 O 0.88084 0.53253 0.37261 0.0
H265 H 0.76847 0.40194 0.34219 0.0
H266 H 0.71521 0.3918 0.35544 0.0
C267 C 0.74466 0.42083 0.35421 0.0
H268 H 0.7338 0.4645 0.34795 0.0
H269 H 0.86128 0.45379 0.33497 0.0
O270 O 0.81897 0.53337 0.44994 0.0
C271 C 0.90342 0.53367 0.39043 0.0
Co272 Co 0.67239 0.04116 0.59812 0.0
Co273 Co 0.67922 0.03715 0.64977 0.0
C274 C 0.70978 0.14282 0.6252 0.0
O275 O 0.70021 0.118 0.60688 0.0
O276 O 0.70278 0.11691 0.64356 0.0
C277 C 0.71253 0.02921 0.55508 0.0
O278 O 0.74977 0.03118 0.56623 0.0
C279 C 0.71088 0.03808 0.69636 0.0
C280 C 0.66837 0.96829 0.71055 0.0
C281 C 0.70218 0.0071 0.71572 0.0
N282 N 0.68336 0.01826 0.68051 0.0
N283 N 0.65777 0.97707 0.68922 0.0
C284 C 0.74714 0.08173 0.6924 0.0
H285 H 0.75788 0.08023 0.67488 0.0
H286 H 0.77577 0.07282 0.70337 0.0
H287 H 0.73458 0.12679 0.69597 0.0
C288 C 0.70714 0.92042 0.6045 0.0
N289 N 0.69944 0.97554 0.61182 0.0
N290 N 0.70946 0.97874 0.63284 0.0
C291 C 0.72855 0.92776 0.63913 0.0
C292 C 0.72683 0.88736 0.6215 0.0
C293 C 0.68756 0.89835 0.58329 0.0
H294 H 0.6604 0.92777 0.57781 0.0
H295 H 0.71335 0.89785 0.57025 0.0
H296 H 0.67378 0.85328 0.58536 0.0
O297 O 0.61021 0.03925 0.60622 0.0
O298 O 0.61423 0.03252 0.64277 0.0
H299 H 0.7266 0.90193 0.67319 0.0
H300 H 0.77986 0.8918 0.65994 0.0
C301 C 0.75041 0.92082 0.66118 0.0
H302 H 0.76127 0.96449 0.66743 0.0
H303 H 0.63379 0.95379 0.6804 0.0
O304 O 0.6761 0.03336 0.56544 0.0
C305 C 0.59165 0.03367 0.62495 0.0
Co306 Co 0.32267 0.98026 0.59812 0.0
Co307 Co 0.31585 0.98427 0.64977 0.0
C308 C 0.28529 0.87859 0.62521 0.0
O309 O 0.29486 0.90341 0.60688 0.0
O310 O 0.29229 0.90451 0.64356 0.0
C311 C 0.28254 0.99222 0.55508 0.0
O312 O 0.2453 0.99025 0.56623 0.0
C313 C 0.28419 0.98333 0.69636 0.0
C314 C 0.32669 0.05312 0.71055 0.0
C315 C 0.29288 0.01431 0.71572 0.0
N316 N 0.31171 0.00315 0.68051 0.0
N317 N 0.3373 0.04434 0.68923 0.0
C318 C 0.24793 0.93967 0.6924 0.0
H319 H 0.23718 0.94118 0.67488 0.0
H320 H 0.2193 0.94858 0.70337 0.0
H321 H 0.26049 0.89462 0.69597 0.0
C322 C 0.28792 0.10099 0.6045 0.0
N323 N 0.29562 0.04587 0.61182 0.0
N324 N 0.28561 0.04267 0.63284 0.0
C325 C 0.26652 0.09365 0.63913 0.0
C326 C 0.26824 0.13405 0.6215 0.0
C327 C 0.30751 0.12307 0.58329 0.0
H328 H 0.33467 0.09364 0.57781 0.0
H329 H 0.28172 0.12356 0.57025 0.0
H330 H 0.32129 0.16813 0.58536 0.0
O331 O 0.38485 0.98216 0.60622 0.0
O332 O 0.38084 0.98889 0.64277 0.0
H333 H 0.26847 0.11948 0.67319 0.0
H334 H 0.21521 0.12962 0.65994 0.0
C335 C 0.24466 0.10059 0.66118 0.0
H336 H 0.2338 0.05693 0.66743 0.0
H337 H 0.36128 0.06762 0.68041 0.0
O338 O 0.31896 0.98805 0.56544 0.0
C339 C 0.40342 0.98774 0.62496 0.0
Co340 Co 0.67239 0.98026 0.41726 0.0
Co341 Co 0.67922 0.98427 0.36561 0.0
C342 C 0.70978 0.87859 0.39018 0.0
O343 O 0.70021 0.90341 0.4085 0.0
O344 O 0.70278 0.90451 0.37182 0.0
C345 C 0.71253 0.99222 0.4603 0.0
O346 O 0.74977 0.99025 0.44916 0.0
C347 C 0.71088 0.98333 0.31902 0.0
C348 C 0.66838 0.05313 0.30483 0.0
C349 C 0.70219 0.01431 0.29966 0.0
N350 N 0.68336 0.00315 0.33487 0.0
N351 N 0.65777 0.04434 0.32615 0.0
C352 C 0.74714 0.93967 0.32298 0.0
H353 H 0.75789 0.94118 0.3405 0.0
H354 H 0.77577 0.94858 0.31201 0.0
H355 H 0.73458 0.89462 0.31941 0.0
C356 C 0.70714 0.10099 0.41088 0.0
N357 N 0.69945 0.04587 0.40356 0.0
N358 N 0.70946 0.04267 0.38254 0.0
C359 C 0.72855 0.09365 0.37625 0.0
C360 C 0.72684 0.13405 0.39388 0.0
C361 C 0.68756 0.12307 0.43209 0.0
H362 H 0.6604 0.09365 0.43757 0.0
H363 H 0.71335 0.12356 0.44513 0.0
H364 H 0.67378 0.16814 0.43002 0.0
O365 O 0.61022 0.98216 0.40916 0.0
O366 O 0.61423 0.98889 0.37261 0.0
H367 H 0.7266 0.11948 0.34219 0.0
H368 H 0.77986 0.12961 0.35544 0.0
C369 C 0.75041 0.10059 0.3542 0.0
H370 H 0.76127 0.05692 0.34795 0.0
H371 H 0.63379 0.06763 0.33497 0.0
O372 O 0.67611 0.98805 0.44994 0.0
C373 C 0.59165 0.98775 0.39043 0.0
Co374 Co 0.32268 0.04116 0.41726 0.0
Co375 Co 0.31585 0.03715 0.36561 0.0
C376 C 0.28529 0.14282 0.39018 0.0
O377 O 0.29486 0.11801 0.4085 0.0
O378 O 0.29229 0.11691 0.37182 0.0
C379 C 0.28254 0.02921 0.46031 0.0
O380 O 0.2453 0.03119 0.44916 0.0
C381 C 0.28419 0.03809 0.31902 0.0
C382 C 0.32669 0.9683 0.30483 0.0
C383 C 0.29288 0.00711 0.29966 0.0
N384 N 0.31171 0.01826 0.33487 0.0
N385 N 0.3373 0.97708 0.32615 0.0
C386 C 0.24792 0.08174 0.32299 0.0
H387 H 0.23718 0.08023 0.34051 0.0
H388 H 0.21929 0.07283 0.31201 0.0
H389 H 0.26048 0.12679 0.31941 0.0
C390 C 0.28793 0.92042 0.41088 0.0
N391 N 0.29562 0.97555 0.40356 0.0
N392 N 0.28561 0.97874 0.38254 0.0
C393 C 0.26652 0.92776 0.37625 0.0
C394 C 0.26824 0.88736 0.39388 0.0
C395 C 0.30751 0.89835 0.43209 0.0
H396 H 0.33467 0.92777 0.43757 0.0
H397 H 0.28172 0.89786 0.44513 0.0
H398 H 0.32129 0.85328 0.43002 0.0
O399 O 0.38486 0.03926 0.40916 0.0
O400 O 0.38084 0.03252 0.37261 0.0
H401 H 0.26848 0.90193 0.34219 0.0
H402 H 0.21521 0.8918 0.35544 0.0
C403 C 0.24466 0.92082 0.3542 0.0
H404 H 0.2338 0.96449 0.34795 0.0
H405 H 0.36128 0.9538 0.33497 0.0
O406 O 0.31897 0.03336 0.44994 0.0
C407 C 0.40342 0.03367 0.39043 0.0
Co408 Co 0.67239 0.54116 0.09812 0.0
Co409 Co 0.67922 0.53715 0.14977 0.0
C410 C 0.70978 0.64283 0.1252 0.0
O411 O 0.7002 0.61801 0.10688 0.0
O412 O 0.70277 0.61691 0.14356 0.0
C413 C 0.71252 0.52921 0.05507 0.0
O414 O 0.74976 0.53118 0.06622 0.0
C415 C 0.71088 0.53809 0.19636 0.0
C416 C 0.66838 0.46829 0.21055 0.0
C417 C 0.70219 0.50711 0.21572 0.0
N418 N 0.68336 0.51827 0.18051 0.0
N419 N 0.65777 0.47708 0.18922 0.0
C420 C 0.74714 0.58175 0.19239 0.0
H421 H 0.75788 0.58024 0.17488 0.0
H422 H 0.77577 0.57284 0.20337 0.0
H423 H 0.73458 0.6268 0.19597 0.0
C424 C 0.70714 0.42043 0.1045 0.0
N425 N 0.69944 0.47555 0.11182 0.0
N426 N 0.70946 0.47875 0.13284 0.0
C427 C 0.72855 0.42777 0.13913 0.0
C428 C 0.72683 0.38737 0.1215 0.0
C429 C 0.68756 0.39835 0.08329 0.0
H430 H 0.66039 0.42778 0.07781 0.0
H431 H 0.71334 0.39786 0.07025 0.0
H432 H 0.67377 0.35329 0.08536 0.0
O433 O 0.61021 0.53926 0.10622 0.0
O434 O 0.61422 0.53253 0.14277 0.0
H435 H 0.7266 0.40194 0.17319 0.0
H436 H 0.77986 0.39181 0.15994 0.0
C437 C 0.75041 0.42083 0.16117 0.0
H438 H 0.76127 0.4645 0.16743 0.0
H439 H 0.63379 0.45379 0.18041 0.0
O440 O 0.6761 0.53337 0.06544 0.0
C441 C 0.59165 0.53368 0.12496 0.0
Co442 Co 0.32267 0.48026 0.09812 0.0
Co443 Co 0.31584 0.48427 0.14977 0.0
C444 C 0.28528 0.3786 0.12521 0.0
O445 O 0.29486 0.40341 0.10688 0.0
O446 O 0.29229 0.40451 0.14356 0.0
C447 C 0.28253 0.49222 0.05508 0.0
O448 O 0.24529 0.49025 0.06623 0.0
C449 C 0.28418 0.48334 0.19636 0.0
C450 C 0.32669 0.55313 0.21055 0.0
C451 C 0.29288 0.51431 0.21572 0.0
N452 N 0.3117 0.50316 0.18051 0.0
N453 N 0.33729 0.54434 0.18923 0.0
C454 C 0.24792 0.43968 0.1924 0.0
H455 H 0.23718 0.44119 0.17488 0.0
H456 H 0.21929 0.44859 0.20337 0.0
H457 H 0.26048 0.39463 0.19597 0.0
C458 C 0.28792 0.601 0.1045 0.0
N459 N 0.29562 0.54587 0.11182 0.0
N460 N 0.2856 0.54267 0.13284 0.0
C461 C 0.26652 0.59366 0.13913 0.0
C462 C 0.26823 0.63405 0.1215 0.0
C463 C 0.3075 0.62307 0.08329 0.0
H464 H 0.33466 0.59365 0.07781 0.0
H465 H 0.28172 0.62356 0.07025 0.0
H466 H 0.32128 0.66814 0.08536 0.0
O467 O 0.38485 0.48216 0.10622 0.0
O468 O 0.38084 0.4889 0.14277 0.0
H469 H 0.26847 0.61948 0.17319 0.0
H470 H 0.2152 0.62962 0.15994 0.0
C471 C 0.24465 0.6006 0.16118 0.0
H472 H 0.23379 0.55693 0.16743 0.0
H473 H 0.36127 0.56763 0.18041 0.0
O474 O 0.31896 0.48806 0.06544 0.0
C475 C 0.40341 0.48775 0.12496 0.0
Co476 Co 0.67239 0.48024 0.91726 0.0
Co477 Co 0.67922 0.48425 0.86561 0.0
C478 C 0.70977 0.37858 0.89018 0.0
O479 O 0.7002 0.40339 0.9085 0.0
O480 O 0.70277 0.40449 0.87182 0.0
C481 C 0.71253 0.4922 0.96031 0.0
O482 O 0.74977 0.49024 0.94916 0.0
C483 C 0.71088 0.48332 0.81902 0.0
C484 C 0.66837 0.55311 0.80483 0.0
C485 C 0.70218 0.51429 0.79966 0.0
N486 N 0.68336 0.50314 0.83487 0.0
N487 N 0.65777 0.54432 0.82615 0.0
C488 C 0.74714 0.43966 0.82299 0.0
H489 H 0.75788 0.44117 0.84051 0.0
H490 H 0.77577 0.44857 0.81201 0.0
H491 H 0.73458 0.39461 0.81941 0.0
C492 C 0.70714 0.60098 0.91088 0.0
N493 N 0.69944 0.54585 0.90356 0.0
N494 N 0.70946 0.54266 0.88254 0.0
C495 C 0.72854 0.59364 0.87625 0.0
C496 C 0.72683 0.63404 0.89388 0.0
C497 C 0.68756 0.62305 0.93209 0.0
H498 H 0.66039 0.59363 0.93757 0.0
H499 H 0.71334 0.62354 0.94513 0.0
H500 H 0.67377 0.66812 0.93002 0.0
O501 O 0.61021 0.48215 0.90916 0.0
O502 O 0.61422 0.48888 0.87261 0.0
H503 H 0.72659 0.61947 0.84219 0.0
H504 H 0.77985 0.6296 0.85544 0.0
C505 C 0.7504 0.60058 0.8542 0.0
H506 H 0.76126 0.55691 0.84795 0.0
H507 H 0.63378 0.56761 0.83497 0.0
O508 O 0.6761 0.48804 0.94994 0.0
C509 C 0.59165 0.48773 0.89043 0.0
Co510 Co 0.32267 0.54116 0.91726 0.0
Co511 Co 0.31584 0.53716 0.86561 0.0
C512 C 0.28529 0.64283 0.89018 0.0
O513 O 0.29486 0.61802 0.9085 0.0
O514 O 0.29229 0.61692 0.87182 0.0
C515 C 0.28253 0.52921 0.96031 0.0
O516 O 0.2453 0.53118 0.94916 0.0
C517 C 0.28418 0.53809 0.81902 0.0
C518 C 0.32669 0.46829 0.80484 0.0
C519 C 0.29288 0.50711 0.79966 0.0
N520 N 0.3117 0.51827 0.83487 0.0
N521 N 0.33729 0.47708 0.82616 0.0
C522 C 0.24792 0.58175 0.82299 0.0
H523 H 0.23718 0.58024 0.84051 0.0
H524 H 0.21929 0.57284 0.81201 0.0
H525 H 0.26048 0.6268 0.81941 0.0
C526 C 0.28792 0.42043 0.91089 0.0
N527 N 0.29562 0.47555 0.90356 0.0
N528 N 0.2856 0.47875 0.88254 0.0
C529 C 0.26651 0.42777 0.87625 0.0
C530 C 0.26823 0.38737 0.89388 0.0
C531 C 0.3075 0.39836 0.93209 0.0
H532 H 0.33467 0.42778 0.93758 0.0
H533 H 0.28172 0.39786 0.94513 0.0
H534 H 0.32129 0.35329 0.93002 0.0
O535 O 0.38485 0.53926 0.90916 0.0
O536 O 0.38084 0.53253 0.87262 0.0
H537 H 0.26847 0.40194 0.84219 0.0
H538 H 0.2152 0.39181 0.85545 0.0
C539 C 0.24465 0.42083 0.85421 0.0
H540 H 0.23379 0.4645 0.84795 0.0
H541 H 0.36127 0.45379 0.83498 0.0
O542 O 0.31896 0.53337 0.94994 0.0
C543 C 0.40341 0.53367 0.89043 0.0
C544 C 0.23696 0.06219 0.24738 0.0
C545 C 0.22599 0.00858 0.23703 0.0
H546 H 0.26649 0.10394 0.27567 0.0
C547 C 0.23663 0.95519 0.24754 0.0
H548 H 0.22857 0.10394 0.23972 0.0
C549 C 0.25845 0.95518 0.26784 0.0
C550 C 0.26908 0.00858 0.27835 0.0
H551 H 0.22851 0.91326 0.23991 0.0
H552 H 0.26657 0.91325 0.27546 0.0
C553 C 0.25811 0.06219 0.268 0.0
C554 C 0.75811 0.95923 0.24738 0.0
C555 C 0.76908 0.01285 0.23703 0.0
H556 H 0.72858 0.91748 0.27567 0.0
C557 C 0.75844 0.06624 0.24754 0.0
H558 H 0.76649 0.91748 0.23971 0.0
C559 C 0.73662 0.06624 0.26784 0.0
C560 C 0.72599 0.01285 0.27835 0.0
H561 H 0.76656 0.10817 0.23992 0.0
H562 H 0.7285 0.10817 0.27546 0.0
C563 C 0.73696 0.95923 0.268 0.0
C564 C 0.25845 0.06624 0.74754 0.0
C565 C 0.26908 0.01284 0.73703 0.0
H566 H 0.22851 0.10817 0.77546 0.0
C567 C 0.25811 0.95923 0.74738 0.0
H568 H 0.26657 0.10817 0.73992 0.0
C569 C 0.23696 0.95923 0.768 0.0
C570 C 0.22599 0.01285 0.77835 0.0
H571 H 0.26649 0.91748 0.73971 0.0
H572 H 0.22857 0.91748 0.77567 0.0
C573 C 0.23662 0.06624 0.76784 0.0
C574 C 0.73696 0.06217 0.74738 0.0
C575 C 0.72598 0.00856 0.73703 0.0
H576 H 0.76649 0.10392 0.77567 0.0
C577 C 0.73661 0.95517 0.74754 0.0
H578 H 0.72858 0.10393 0.73971 0.0
C579 C 0.75843 0.95517 0.76784 0.0
C580 C 0.76907 0.00856 0.77835 0.0
H581 H 0.72849 0.91324 0.73992 0.0
H582 H 0.76655 0.91324 0.77547 0.0
C583 C 0.7581 0.06217 0.768 0.0
C584 C 0.23696 0.56219 0.74738 0.0
C585 C 0.22599 0.50857 0.73703 0.0
H586 H 0.26649 0.60394 0.77567 0.0
C587 C 0.23662 0.45518 0.74754 0.0
H588 H 0.22857 0.60394 0.73971 0.0
C589 C 0.25845 0.45518 0.76784 0.0
C590 C 0.26908 0.50858 0.77835 0.0
H591 H 0.22851 0.41325 0.73992 0.0
H592 H 0.26657 0.41325 0.77547 0.0
C593 C 0.2581 0.56219 0.768 0.0
C594 C 0.75844 0.56622 0.74754 0.0
C595 C 0.76908 0.51283 0.73703 0.0
H596 H 0.72849 0.60815 0.77546 0.0
C597 C 0.75811 0.45922 0.74738 0.0
H598 H 0.76656 0.60815 0.73992 0.0
C599 C 0.73696 0.45922 0.768 0.0
C600 C 0.72598 0.51283 0.77835 0.0
H601 H 0.76649 0.41747 0.73971 0.0
H602 H 0.72858 0.41746 0.77567 0.0
C603 C 0.73661 0.56622 0.76784 0.0
C604 C 0.25845 0.56624 0.24754 0.0
C605 C 0.26908 0.51285 0.23703 0.0
H606 H 0.22851 0.60817 0.27547 0.0
C607 C 0.2581 0.45923 0.24738 0.0
H608 H 0.26657 0.60817 0.23992 0.0
C609 C 0.23696 0.45923 0.268 0.0
C610 C 0.22598 0.51285 0.27835 0.0
H611 H 0.26649 0.41748 0.23971 0.0
H612 H 0.22857 0.41748 0.27567 0.0
C613 C 0.23662 0.56624 0.26784 0.0
C614 C 0.73662 0.45518 0.24754 0.0
C615 C 0.72599 0.50858 0.23703 0.0
H616 H 0.76657 0.41325 0.27546 0.0
C617 C 0.73696 0.56219 0.24738 0.0
H618 H 0.72851 0.41325 0.23992 0.0
C619 C 0.75811 0.56219 0.268 0.0
C620 C 0.76908 0.50858 0.27835 0.0
H621 H 0.72858 0.60394 0.23971 0.0
H622 H 0.76649 0.60394 0.27567 0.0
C623 C 0.75845 0.45518 0.26784 0.0
C624 C 0.23845 0.23229 0.10518 0.0
C625 C 0.22918 0.20312 0.12518 0.0
H626 H 0.26332 0.3102 0.08946 0.0
C627 C 0.23851 0.23227 0.14517 0.0
H628 H 0.23174 0.21123 0.08946 0.0
C629 C 0.25655 0.28916 0.14517 0.0
C630 C 0.26587 0.31831 0.12518 0.0
H631 H 0.23181 0.21124 0.1609 0.0
H632 H 0.26325 0.3102 0.1609 0.0
C633 C 0.2566 0.28914 0.10518 0.0
C634 C 0.73845 0.73228 0.10518 0.0
C635 C 0.72919 0.70311 0.12517 0.0
H636 H 0.76332 0.81019 0.08946 0.0
C637 C 0.73851 0.73226 0.14517 0.0
H638 H 0.73174 0.71123 0.08946 0.0
C639 C 0.75655 0.78915 0.14517 0.0
C640 C 0.76588 0.81831 0.12518 0.0
H641 H 0.73181 0.71123 0.1609 0.0
H642 H 0.76325 0.81019 0.1609 0.0
C643 C 0.75661 0.78914 0.10518 0.0
C644 C 0.23846 0.78914 0.9102 0.0
C645 C 0.22919 0.81831 0.89021 0.0
H646 H 0.26333 0.71123 0.92592 0.0
C647 C 0.23851 0.78916 0.87021 0.0
H648 H 0.23174 0.8102 0.92592 0.0
C649 C 0.25655 0.73227 0.87021 0.0
C650 C 0.26588 0.70312 0.89021 0.0
H651 H 0.23182 0.81019 0.85448 0.0
H652 H 0.26325 0.71123 0.85448 0.0
C653 C 0.25661 0.73229 0.9102 0.0
C654 C 0.73851 0.28914 0.87021 0.0
C655 C 0.72918 0.31829 0.89021 0.0
H656 H 0.76324 0.21121 0.85448 0.0
C657 C 0.73845 0.28912 0.9102 0.0
H658 H 0.73181 0.31017 0.85448 0.0
C659 C 0.7566 0.23227 0.9102 0.0
C660 C 0.76587 0.2031 0.89021 0.0
H661 H 0.73174 0.31018 0.92592 0.0
H662 H 0.76332 0.21121 0.92592 0.0
C663 C 0.75655 0.23225 0.87021 0.0
C664 C 0.7507 0.79129 0.91368 0.0
C665 C 0.75697 0.8226 0.89384 0.0
H666 H 0.74431 0.70814 0.92947 0.0
C667 C 0.75345 0.7905 0.87401 0.0
H668 H 0.75075 0.81324 0.92947 0.0
C669 C 0.74161 0.7309 0.87401 0.0
C670 C 0.73809 0.69879 0.89384 0.0
H671 H 0.7599 0.8103 0.85819 0.0
H672 H 0.73515 0.7111 0.85819 0.0
C673 C 0.74437 0.7301 0.91368 0.0
C674 C 0.25069 0.2913 0.91368 0.0
C675 C 0.25697 0.32261 0.89384 0.0
H676 H 0.24431 0.20816 0.92947 0.0
C677 C 0.25345 0.29051 0.87401 0.0
H678 H 0.25075 0.31327 0.92947 0.0
C679 C 0.24161 0.23091 0.87401 0.0
C680 C 0.23809 0.19881 0.89384 0.0
H681 H 0.25991 0.31031 0.85819 0.0
H682 H 0.23515 0.21112 0.85819 0.0
C683 C 0.24437 0.23012 0.91368 0.0
C684 C 0.74437 0.2913 0.1017 0.0
C685 C 0.73809 0.32261 0.12154 0.0
H686 H 0.75075 0.20816 0.08591 0.0
C687 C 0.74161 0.29051 0.14137 0.0
H688 H 0.74431 0.31326 0.08591 0.0
C689 C 0.75345 0.23091 0.14137 0.0
C690 C 0.75697 0.19881 0.12154 0.0
H691 H 0.73516 0.31031 0.15719 0.0
H692 H 0.75991 0.21111 0.15719 0.0
C693 C 0.75069 0.23012 0.1017 0.0
C694 C 0.24436 0.79131 0.1017 0.0
C695 C 0.23809 0.82262 0.12155 0.0
H696 H 0.25075 0.70816 0.08591 0.0
C697 C 0.24161 0.79052 0.14137 0.0
H698 H 0.24431 0.81327 0.08591 0.0
C699 C 0.25345 0.73091 0.14137 0.0
C700 C 0.25697 0.69881 0.12155 0.0
H701 H 0.23515 0.81031 0.15719 0.0
H702 H 0.25991 0.71112 0.15719 0.0
C703 C 0.25069 0.73012 0.1017 0.0
C704 C 0.23845 0.73228 0.60518 0.0
C705 C 0.22919 0.70311 0.62518 0.0
H706 H 0.26332 0.81019 0.58946 0.0
C707 C 0.23851 0.73226 0.64517 0.0
H708 H 0.23174 0.71123 0.58946 0.0
C709 C 0.25656 0.78915 0.64517 0.0
C710 C 0.26588 0.81831 0.62518 0.0
H711 H 0.23182 0.71123 0.6609 0.0
H712 H 0.26325 0.81019 0.6609 0.0
C713 C 0.25661 0.78914 0.60518 0.0
C714 C 0.75656 0.28915 0.64517 0.0
C715 C 0.76588 0.3183 0.62518 0.0
H716 H 0.73182 0.21122 0.6609 0.0
C717 C 0.75661 0.28913 0.60518 0.0
H718 H 0.76325 0.31018 0.6609 0.0
C719 C 0.73846 0.23227 0.60518 0.0
C720 C 0.72919 0.2031 0.62518 0.0
H721 H 0.76333 0.31018 0.58946 0.0
H722 H 0.73174 0.21122 0.58946 0.0
C723 C 0.73852 0.23226 0.64517 0.0
C724 C 0.23846 0.28913 0.4102 0.0
C725 C 0.22919 0.3183 0.39021 0.0
H726 H 0.26333 0.21122 0.42592 0.0
C727 C 0.23851 0.28915 0.37021 0.0
H728 H 0.23174 0.31019 0.42592 0.0
C729 C 0.25655 0.23226 0.37021 0.0
C730 C 0.26588 0.20311 0.39021 0.0
H731 H 0.23182 0.31018 0.35448 0.0
H732 H 0.26325 0.21122 0.35448 0.0
C733 C 0.25661 0.23228 0.4102 0.0
C734 C 0.75661 0.73228 0.4102 0.0
C735 C 0.76588 0.70311 0.39021 0.0
H736 H 0.73174 0.81019 0.42592 0.0
C737 C 0.75655 0.73226 0.37021 0.0
H738 H 0.76333 0.71123 0.42592 0.0
C739 C 0.73851 0.78915 0.37021 0.0
C740 C 0.72919 0.81831 0.39021 0.0
H741 H 0.76325 0.71123 0.35448 0.0
H742 H 0.73182 0.81019 0.35448 0.0
C743 C 0.73846 0.78914 0.4102 0.0
C744 C 0.75346 0.29051 0.37401 0.0
C745 C 0.75698 0.32261 0.39384 0.0
H746 H 0.73516 0.21111 0.35819 0.0
C747 C 0.7507 0.2913 0.41368 0.0
H748 H 0.75991 0.31031 0.35819 0.0
C749 C 0.74437 0.23012 0.41368 0.0
C750 C 0.7381 0.19881 0.39384 0.0
H751 H 0.75076 0.31326 0.42947 0.0
H752 H 0.74432 0.20816 0.42947 0.0
C753 C 0.74162 0.23091 0.37401 0.0
C754 C 0.24437 0.73011 0.41368 0.0
C755 C 0.2381 0.6988 0.39384 0.0
H756 H 0.25075 0.81326 0.42947 0.0
C757 C 0.24162 0.7309 0.37401 0.0
H758 H 0.24431 0.70816 0.42947 0.0
C759 C 0.25346 0.7905 0.37401 0.0
C760 C 0.25698 0.8226 0.39384 0.0
H761 H 0.23516 0.7111 0.35819 0.0
H762 H 0.25992 0.8103 0.35819 0.0
C763 C 0.2507 0.7913 0.41368 0.0
C764 C 0.7507 0.73011 0.6017 0.0
C765 C 0.75698 0.6988 0.62154 0.0
H766 H 0.74431 0.81325 0.58591 0.0
C767 C 0.75346 0.7309 0.64137 0.0
H768 H 0.75076 0.70815 0.58591 0.0
C769 C 0.74161 0.7905 0.64137 0.0
C770 C 0.73809 0.8226 0.62154 0.0
H771 H 0.75991 0.7111 0.65719 0.0
H772 H 0.73516 0.8103 0.65719 0.0
C773 C 0.74437 0.79129 0.6017 0.0
C774 C 0.24161 0.29051 0.64137 0.0
C775 C 0.23809 0.32261 0.62155 0.0
H776 H 0.25991 0.21111 0.65719 0.0
C777 C 0.24437 0.2913 0.6017 0.0
H778 H 0.23516 0.31031 0.65719 0.0
C779 C 0.2507 0.23012 0.6017 0.0
C780 C 0.25697 0.19881 0.62155 0.0
H781 H 0.24431 0.31326 0.58591 0.0
H782 H 0.25075 0.20816 0.58591 0.0
C783 C 0.25346 0.23091 0.64137 0.0
C784 C 0.97505 0.00429 0.10559 0.0
C785 C 0.95179 0.99787 0.12554 0.0
H786 H 0.03655 0.02148 0.0898 0.0
C787 C 0.97482 0.00447 0.1456 0.0
H788 H 0.95851 0.99996 0.0898 0.0
C789 C 0.02024 0.01696 0.1456 0.0
C790 C 0.04327 0.02355 0.12554 0.0
H791 H 0.9578 1.00015 0.16126 0.0
H792 H 0.03726 0.02127 0.16126 0.0
C793 C 0.02001 0.01715 0.10559 0.0
C794 C 0.02024 0.00446 0.86978 0.0
C795 C 0.04327 0.99787 0.88984 0.0
H796 H 0.9578 0.02126 0.85412 0.0
C797 C 0.02001 0.00427 0.90979 0.0
H798 H 0.03726 1.00015 0.85412 0.0
C799 C 0.97505 0.01713 0.90979 0.0
C800 C 0.95179 0.02354 0.88984 0.0
H801 H 0.03655 0.99994 0.92558 0.0
H802 H 0.95851 0.02145 0.92558 0.0
C803 C 0.97482 0.01695 0.86978 0.0
C804 C 0.97506 0.50426 0.60559 0.0
C805 C 0.95179 0.49786 0.62555 0.0
H806 H 0.03656 0.52144 0.5898 0.0
C807 C 0.97482 0.50447 0.6456 0.0
H808 H 0.95851 0.49992 0.5898 0.0
C809 C 0.02025 0.51695 0.6456 0.0
C810 C 0.04328 0.52354 0.62554 0.0
H811 H 0.9578 0.50016 0.66127 0.0
H812 H 0.03727 0.52128 0.66126 0.0
C813 C 0.02001 0.51712 0.60559 0.0
C814 C 0.97506 0.51714 0.40979 0.0
C815 C 0.95179 0.52355 0.38984 0.0
H816 H 0.03656 0.49995 0.42558 0.0
C817 C 0.97482 0.51695 0.36978 0.0
H818 H 0.95851 0.52147 0.42558 0.0
C819 C 0.02025 0.50447 0.36978 0.0
C820 C 0.04328 0.49787 0.38984 0.0
H821 H 0.9578 0.52127 0.35412 0.0
H822 H 0.03726 0.50015 0.35412 0.0
C823 C 0.02001 0.50428 0.40979 0.0
C824 C 0.47482 0.00447 0.6456 0.0
C825 C 0.45179 0.99787 0.62554 0.0
H826 H 0.53727 0.02127 0.66126 0.0
C827 C 0.47506 0.00428 0.60559 0.0
H828 H 0.4578 1.00015 0.66126 0.0
C829 C 0.52001 0.01713 0.60559 0.0
C830 C 0.54328 0.02355 0.62554 0.0
H831 H 0.45851 0.99994 0.5898 0.0
H832 H 0.53655 0.02146 0.5898 0.0
C833 C 0.52025 0.01695 0.6456 0.0
C834 C 0.47482 0.01695 0.36978 0.0
C835 C 0.45179 0.02355 0.38984 0.0
H836 H 0.53727 1.00015 0.35412 0.0
C837 C 0.47506 0.01714 0.40979 0.0
H838 H 0.4578 0.02127 0.35412 0.0
C839 C 0.52001 0.00428 0.40979 0.0
C840 C 0.54328 0.99787 0.38984 0.0
H841 H 0.45851 0.02147 0.42558 0.0
H842 H 0.53656 0.99995 0.42558 0.0
C843 C 0.52025 0.00447 0.36978 0.0
C844 C 0.52024 0.51695 0.1456 0.0
C845 C 0.54327 0.52355 0.12554 0.0
H846 H 0.4578 0.50016 0.16126 0.0
C847 C 0.52001 0.51714 0.10559 0.0
H848 H 0.53726 0.52127 0.16126 0.0
C849 C 0.47505 0.50428 0.10559 0.0
C850 C 0.45179 0.49787 0.12555 0.0
H851 H 0.53655 0.52147 0.0898 0.0
H852 H 0.45851 0.49995 0.0898 0.0
C853 C 0.47482 0.50447 0.1456 0.0
C854 C 0.47505 0.51713 0.90979 0.0
C855 C 0.45179 0.52354 0.88984 0.0
H856 H 0.53655 0.49993 0.92558 0.0
C857 C 0.47482 0.51695 0.86978 0.0
H858 H 0.45851 0.52146 0.92558 0.0
C859 C 0.52024 0.50446 0.86978 0.0
C860 C 0.54327 0.49786 0.88984 0.0
H861 H 0.4578 0.52127 0.85412 0.0
H862 H 0.53726 0.50015 0.85412 0.0
C863 C 0.52001 0.50427 0.90979 0.0
C864 C 0.17274 0.00608 0.99627 0.0
C865 C 0.21273 1.00134 0.98457 0.0
H866 H 0.14129 0.01869 0.02757 0.0
C867 C 0.25275 0.0061 0.99625 0.0
H868 H 0.1413 1.00276 0.98781 0.0
C869 C 0.25275 0.01532 0.01913 0.0
C870 C 0.21273 0.02008 0.03081 0.0
H871 H 0.28414 1.00273 0.98775 0.0
H872 H 0.28414 0.01868 0.02764 0.0
C873 C 0.17274 0.01535 0.01911 0.0
C874 C 0.82232 0.01533 0.99627 0.0
C875 C 0.78233 0.02007 0.98457 0.0
H876 H 0.85376 1.00273 0.02757 0.0
C877 C 0.74231 0.01532 0.99625 0.0
H878 H 0.85376 0.01865 0.98781 0.0
C879 C 0.74231 0.00611 0.01913 0.0
C880 C 0.78233 1.00134 0.03081 0.0
H881 H 0.71092 0.01869 0.98775 0.0
H882 H 0.71092 1.00275 0.02764 0.0
C883 C 0.82232 0.00607 0.01911 0.0
C884 C 0.17275 0.51536 0.51911 0.0
C885 C 0.21273 0.52006 0.53081 0.0
H886 H 0.1413 0.50278 0.4878 0.0
C887 C 0.25275 0.51527 0.51913 0.0
H888 H 0.1413 0.51871 0.52757 0.0
C889 C 0.25275 0.50605 0.49625 0.0
C890 C 0.21273 0.50132 0.48457 0.0
H891 H 0.28415 0.51861 0.52764 0.0
H892 H 0.28415 0.50266 0.48775 0.0
C893 C 0.17275 0.50609 0.49627 0.0
C894 C 0.82232 0.51535 0.49627 0.0
C895 C 0.78234 0.52007 0.48457 0.0
H896 H 0.85377 0.50276 0.52758 0.0
C897 C 0.74232 0.51529 0.49625 0.0
H898 H 0.85377 0.51869 0.48781 0.0
C899 C 0.74232 0.50608 0.51913 0.0
C900 C 0.78234 0.50133 0.53081 0.0
H901 H 0.71092 0.51865 0.48774 0.0
H902 H 0.71092 0.5027 0.52763 0.0
C903 C 0.82233 0.50608 0.51911 0.0
C904 C 0.67275 0.01534 0.51911 0.0
C905 C 0.71273 0.02008 0.53081 0.0
H906 H 0.6413 1.00274 0.48781 0.0
C907 C 0.75275 0.01533 0.51913 0.0
H908 H 0.6413 0.01866 0.52757 0.0
C909 C 0.75275 0.00611 0.49625 0.0
C910 C 0.71274 1.00134 0.48457 0.0
H911 H 0.78415 0.0187 0.52764 0.0
H912 H 0.78415 1.00275 0.48775 0.0
C913 C 0.67275 0.00607 0.49627 0.0
C914 C 0.32232 0.01533 0.49627 0.0
C915 C 0.28233 0.02008 0.48457 0.0
H916 H 0.35377 1.00273 0.52757 0.0
C917 C 0.24232 0.01533 0.49625 0.0
H918 H 0.35377 0.01866 0.48781 0.0
C919 C 0.24232 0.00612 0.51913 0.0
C920 C 0.28233 1.00134 0.53081 0.0
H921 H 0.21092 0.01871 0.48775 0.0
H922 H 0.21092 1.00276 0.52764 0.0
C923 C 0.32232 0.00607 0.51911 0.0
C924 C 0.75275 0.51532 0.01913 0.0
C925 C 0.71273 0.52008 0.03081 0.0
H926 H 0.78414 0.50274 0.98775 0.0
C927 C 0.67274 0.51533 0.01911 0.0
H928 H 0.78414 0.5187 0.02763 0.0
C929 C 0.67274 0.50607 0.99627 0.0
C930 C 0.71273 0.50133 0.98457 0.0
H931 H 0.6413 0.51866 0.02757 0.0
H932 H 0.6413 0.50273 0.98781 0.0
C933 C 0.75275 0.5061 0.99625 0.0
C934 C 0.32232 0.51535 0.99627 0.0
C935 C 0.28233 0.52008 0.98457 0.0
H936 H 0.35376 0.50276 0.02758 0.0
C937 C 0.24231 0.51532 0.99625 0.0
H938 H 0.35376 0.51868 0.98781 0.0
C939 C 0.24231 0.5061 0.01913 0.0
C940 C 0.28233 0.50134 0.03081 0.0
H941 H 0.21092 0.51868 0.98775 0.0
H942 H 0.21092 0.50273 0.02763 0.0
C943 C 0.32232 0.50608 0.01911 0.0
loop_
_geom_bond_atom_site_label_1
_geom_bond_atom_site_label_2
_geom_bond_distance
_geom_bond_site_symmetry_2
_ccdc_geom_bond_type
Co0 O3 1.970 . S
Co0 N17 1.989 1_545 S
Co0 O25 1.967 . S
Co0 O32 1.920 . S
Co1 O4 1.966 . S
Co1 N10 2.022 . S
Co1 N18 1.993 1_545 S
Co1 O26 1.941 . S
C2 O3 1.258 . S
C2 O4 1.263 . S
O3 Co0 1.970 . S
O3 C2 1.258 . S
O4 Co1 1.966 . S
O4 C2 1.263 . S
C5 O6 1.235 . S
C5 O32 1.289 . S
O6 C5 1.235 . S
C7 C9 1.400 . S
C7 N10 1.351 . S
C7 C12 1.501 . S
C8 C9 1.387 1_565 S
C8 N11 1.341 . S
C9 C7 1.400 . S
C9 C8 1.387 1_545 S
N10 Co1 2.022 . S
N10 C7 1.351 . S
N10 N11 1.365 1_545 S
N11 C8 1.341 . S
N11 N10 1.365 1_565 S
N11 H31 0.862 . S
C12 C7 1.501 . S
C12 H13 0.961 . S
C12 H14 0.961 . S
C12 H15 0.960 . S
H13 C12 0.961 . S
H14 C12 0.961 . S
H15 C12 0.960 . S
C16 N17 1.342 . S
C16 C20 1.401 . S
C16 C21 1.499 . S
N17 Co0 1.989 1_565 S
N17 C16 1.342 . S
N17 N18 1.388 . S
N18 Co1 1.993 1_565 S
N18 N17 1.388 . S
N18 C19 1.346 . S
C19 N18 1.346 . S
C19 C20 1.396 . S
C19 C29 1.510 . S
C20 C16 1.401 . S
C20 C19 1.396 . S
C21 C16 1.499 . S
C21 H22 0.959 . S
C21 H23 0.960 . S
C21 H24 0.961 . S
H22 C21 0.959 . S
H23 C21 0.960 . S
H24 C21 0.961 . S
O25 Co0 1.967 . S
O25 C33 1.258 . S
O26 Co1 1.941 . S
O26 C33 1.266 . S
H27 C29 0.959 . S
H28 C29 0.961 . S
C29 C19 1.510 . S
C29 H27 0.959 . S
C29 H28 0.961 . S
C29 H30 0.960 . S
H30 C29 0.960 . S
H31 N11 0.862 . S
O32 Co0 1.920 . S
O32 C5 1.289 . S
C33 O25 1.258 . S
C33 O26 1.266 . S
Co34 O37 1.970 . S
Co34 N51 1.989 1_565 S
Co34 O59 1.967 . S
Co34 O66 1.920 1_565 S
Co35 O38 1.966 . S
Co35 N44 2.022 1_565 S
Co35 N52 1.993 1_565 S
Co35 O60 1.941 . S
C36 O37 1.258 . S
C36 O38 1.263 . S
O37 Co34 1.970 . S
O37 C36 1.258 . S
O38 Co35 1.966 . S
O38 C36 1.263 . S
C39 O40 1.236 . S
C39 O66 1.288 1_565 S
O40 C39 1.236 . S
C41 C43 1.400 1_565 S
C41 N44 1.351 1_565 S
C41 C46 1.501 . S
C42 C43 1.387 . S
C42 N45 1.341 . S
C43 C41 1.400 1_545 S
C43 C42 1.387 . S
N44 Co35 2.022 1_545 S
N44 C41 1.351 1_545 S
N44 N45 1.365 . S
N45 C42 1.341 . S
N45 N44 1.365 . S
N45 H65 0.862 . S
C46 C41 1.501 . S
C46 H47 0.961 . S
C46 H48 0.961 . S
C46 H49 0.960 . S
H47 C46 0.961 . S
H48 C46 0.961 . S
H49 C46 0.960 . S
C50 N51 1.342 . S
C50 C54 1.401 . S
C50 C55 1.499 . S
N51 Co34 1.989 1_545 S
N51 C50 1.342 . S
N51 N52 1.388 . S
N52 Co35 1.993 1_545 S
N52 N51 1.388 . S
N52 C53 1.346 . S
C53 N52 1.346 . S
C53 C54 1.396 . S
C53 C63 1.510 . S
C54 C50 1.401 . S
C54 C53 1.396 . S
C55 C50 1.499 . S
C55 H56 0.959 . S
C55 H57 0.960 . S
C55 H58 0.961 . S
H56 C55 0.959 . S
H57 C55 0.960 . S
H58 C55 0.961 . S
O59 Co34 1.967 . S
O59 C67 1.258 . S
O60 Co35 1.941 . S
O60 C67 1.266 . S
H61 C63 0.959 . S
H62 C63 0.961 . S
C63 C53 1.510 . S
C63 H61 0.959 . S
C63 H62 0.961 . S
C63 H64 0.960 . S
H64 C63 0.960 . S
H65 N45 0.862 . S
O66 Co34 1.920 1_545 S
O66 C39 1.288 1_545 S
C67 O59 1.258 . S
C67 O60 1.266 . S
Co68 O71 1.970 . S
Co68 N85 1.989 1_565 S
Co68 O93 1.967 . S
Co68 O100 1.920 1_565 S
Co69 O72 1.966 . S
Co69 N78 2.022 1_565 S
Co69 N86 1.993 1_565 S
Co69 O94 1.941 . S
C70 O71 1.258 . S
C70 O72 1.263 . S
O71 Co68 1.970 . S
O71 C70 1.258 . S
O72 Co69 1.966 . S
O72 C70 1.263 . S
C73 O74 1.236 . S
C73 O100 1.288 1_565 S
O74 C73 1.236 . S
C75 C77 1.400 1_565 S
C75 N78 1.351 1_565 S
C75 C80 1.501 . S
C76 C77 1.387 . S
C76 N79 1.341 . S
C77 C75 1.400 1_545 S
C77 C76 1.387 . S
N78 Co69 2.022 1_545 S
N78 C75 1.351 1_545 S
N78 N79 1.365 . S
N79 C76 1.341 . S
N79 N78 1.365 . S
N79 H99 0.862 . S
C80 C75 1.501 . S
C80 H81 0.961 . S
C80 H82 0.961 . S
C80 H83 0.960 . S
H81 C80 0.961 . S
H82 C80 0.961 . S
H83 C80 0.960 . S
C84 N85 1.342 . S
C84 C88 1.401 . S
C84 C89 1.499 . S
N85 Co68 1.989 1_545 S
N85 C84 1.342 . S
N85 N86 1.388 . S
N86 Co69 1.993 1_545 S
N86 N85 1.388 . S
N86 C87 1.346 . S
C87 N86 1.346 . S
C87 C88 1.396 . S
C87 C97 1.510 . S
C88 C84 1.401 . S
C88 C87 1.396 . S
C89 C84 1.499 . S
C89 H90 0.959 . S
C89 H91 0.960 . S
C89 H92 0.961 . S
H90 C89 0.959 . S
H91 C89 0.960 . S
H92 C89 0.961 . S
O93 Co68 1.967 . S
O93 C101 1.258 . S
O94 Co69 1.941 . S
O94 C101 1.266 . S
H95 C97 0.959 . S
H96 C97 0.961 . S
C97 C87 1.510 . S
C97 H95 0.959 . S
C97 H96 0.961 . S
C97 H98 0.960 . S
H98 C97 0.960 . S
H99 N79 0.862 . S
O100 Co68 1.920 1_545 S
O100 C73 1.288 1_545 S
C101 O93 1.258 . S
C101 O94 1.266 . S
Co102 O105 1.970 . S
Co102 N119 1.989 1_545 S
Co102 O127 1.967 . S
Co102 O134 1.920 . S
Co103 O106 1.966 . S
Co103 N112 2.022 . S
Co103 N120 1.993 1_545 S
Co103 O128 1.941 . S
C104 O105 1.258 . S
C104 O106 1.263 . S
O105 Co102 1.970 . S
O105 C104 1.258 . S
O106 Co103 1.966 . S
O106 C104 1.263 . S
C107 O108 1.235 . S
C107 O134 1.289 . S
O108 C107 1.235 . S
C109 C111 1.400 . S
C109 N112 1.351 . S
C109 C114 1.501 . S
C110 C111 1.387 1_565 S
C110 N113 1.341 . S
C111 C109 1.400 . S
C111 C110 1.387 1_545 S
N112 Co103 2.022 . S
N112 C109 1.351 . S
N112 N113 1.365 1_545 S
N113 C110 1.341 . S
N113 N112 1.365 1_565 S
N113 H133 0.862 . S
C114 C109 1.501 . S
C114 H115 0.961 . S
C114 H116 0.961 . S
C114 H117 0.960 . S
H115 C114 0.961 . S
H116 C114 0.961 . S
H117 C114 0.960 . S
C118 N119 1.342 . S
C118 C122 1.401 . S
C118 C123 1.499 . S
N119 Co102 1.989 1_565 S
N119 C118 1.342 . S
N119 N120 1.388 . S
N120 Co103 1.993 1_565 S
N120 N119 1.388 . S
N120 C121 1.346 . S
C121 N120 1.346 . S
C121 C122 1.396 . S
C121 C131 1.510 . S
C122 C118 1.401 . S
C122 C121 1.396 . S
C123 C118 1.499 . S
C123 H124 0.959 . S
C123 H125 0.960 . S
C123 H126 0.961 . S
H124 C123 0.959 . S
H125 C123 0.960 . S
H126 C123 0.961 . S
O127 Co102 1.967 . S
O127 C135 1.258 . S
O128 Co103 1.941 . S
O128 C135 1.266 . S
H129 C131 0.959 . S
H130 C131 0.961 . S
C131 C121 1.510 . S
C131 H129 0.959 . S
C131 H130 0.961 . S
C131 H132 0.960 . S
H132 C131 0.960 . S
H133 N113 0.862 . S
O134 Co102 1.920 . S
O134 C107 1.289 . S
C135 O127 1.258 . S
C135 O128 1.266 . S
Co136 O139 1.970 . S
Co136 N153 1.989 . S
Co136 O161 1.967 . S
Co136 O168 1.920 . S
Co137 O140 1.966 . S
Co137 N146 2.022 . S
Co137 N154 1.993 . S
Co137 O162 1.941 . S
C138 O139 1.258 . S
C138 O140 1.263 . S
O139 Co136 1.970 . S
O139 C138 1.258 . S
O140 Co137 1.966 . S
O140 C138 1.263 . S
C141 O142 1.235 . S
C141 O168 1.289 . S
O142 C141 1.235 . S
C143 C145 1.400 . S
C143 N146 1.351 . S
C143 C148 1.501 . S
C144 C145 1.387 . S
C144 N147 1.341 . S
C145 C143 1.400 . S
C145 C144 1.387 . S
N146 Co137 2.022 . S
N146 C143 1.351 . S
N146 N147 1.365 . S
N147 C144 1.341 . S
N147 N146 1.365 . S
N147 H167 0.862 . S
C148 C143 1.501 . S
C148 H149 0.961 . S
C148 H150 0.961 . S
C148 H151 0.960 . S
H149 C148 0.961 . S
H150 C148 0.961 . S
H151 C148 0.960 . S
C152 N153 1.342 . S
C152 C156 1.401 . S
C152 C157 1.499 . S
N153 Co136 1.989 . S
N153 C152 1.342 . S
N153 N154 1.388 . S
N154 Co137 1.993 . S
N154 N153 1.388 . S
N154 C155 1.346 . S
C155 N154 1.346 . S
C155 C156 1.396 . S
C155 C165 1.510 . S
C156 C152 1.401 . S
C156 C155 1.396 . S
C157 C152 1.499 . S
C157 H158 0.959 . S
C157 H159 0.960 . S
C157 H160 0.961 . S
H158 C157 0.959 . S
H159 C157 0.960 . S
H160 C157 0.961 . S
O161 Co136 1.967 . S
O161 C169 1.258 . S
O162 Co137 1.941 . S
O162 C169 1.266 . S
H163 C165 0.959 . S
H164 C165 0.961 . S
C165 C155 1.510 . S
C165 H163 0.959 . S
C165 H164 0.961 . S
C165 H166 0.960 . S
H166 C165 0.960 . S
H167 N147 0.862 . S
O168 Co136 1.920 . S
O168 C141 1.289 . S
C169 O161 1.258 . S
C169 O162 1.266 . S
Co170 O173 1.970 . S
Co170 N187 1.989 . S
Co170 O195 1.967 . S
Co170 O202 1.920 . S
Co171 O174 1.966 . S
Co171 N180 2.022 . S
Co171 N188 1.993 . S
Co171 O196 1.941 . S
C172 O173 1.258 . S
C172 O174 1.263 . S
O173 Co170 1.970 . S
O173 C172 1.258 . S
O174 Co171 1.966 . S
O174 C172 1.263 . S
C175 O176 1.235 . S
C175 O202 1.289 . S
O176 C175 1.235 . S
C177 C179 1.400 . S
C177 N180 1.351 . S
C177 C182 1.501 . S
C178 C179 1.387 . S
C178 N181 1.341 . S
C179 C177 1.400 . S
C179 C178 1.387 . S
N180 Co171 2.022 . S
N180 C177 1.351 . S
N180 N181 1.365 . S
N181 C178 1.341 . S
N181 N180 1.365 . S
N181 H201 0.862 . S
C182 C177 1.501 . S
C182 H183 0.961 . S
C182 H184 0.961 . S
C182 H185 0.960 . S
H183 C182 0.961 . S
H184 C182 0.961 . S
H185 C182 0.960 . S
C186 N187 1.342 . S
C186 C190 1.401 . S
C186 C191 1.499 . S
N187 Co170 1.989 . S
N187 C186 1.342 . S
N187 N188 1.388 . S
N188 Co171 1.993 . S
N188 N187 1.388 . S
N188 C189 1.346 . S
C189 N188 1.346 . S
C189 C190 1.396 . S
C189 C199 1.510 . S
C190 C186 1.401 . S
C190 C189 1.396 . S
C191 C186 1.499 . S
C191 H192 0.959 . S
C191 H193 0.960 . S
C191 H194 0.961 . S
H192 C191 0.959 . S
H193 C191 0.960 . S
H194 C191 0.961 . S
O195 Co170 1.967 . S
O195 C203 1.258 . S
O196 Co171 1.941 . S
O196 C203 1.266 . S
H197 C199 0.959 . S
H198 C199 0.961 . S
C199 C189 1.510 . S
C199 H197 0.959 . S
C199 H198 0.961 . S
C199 H200 0.960 . S
H200 C199 0.960 . S
H201 N181 0.862 . S
O202 Co170 1.920 . S
O202 C175 1.289 . S
C203 O195 1.258 . S
C203 O196 1.266 . S
Co204 O207 1.970 . S
Co204 N221 1.989 . S
Co204 O229 1.967 . S
Co204 O236 1.920 . S
Co205 O208 1.966 . S
Co205 N214 2.022 . S
Co205 N222 1.993 . S
Co205 O230 1.941 . S
C206 O207 1.258 . S
C206 O208 1.263 . S
O207 Co204 1.970 . S
O207 C206 1.258 . S
O208 Co205 1.966 . S
O208 C206 1.263 . S
C209 O210 1.235 . S
C209 O236 1.289 . S
O210 C209 1.235 . S
C211 C213 1.400 . S
C211 N214 1.351 . S
C211 C216 1.501 . S
C212 C213 1.387 . S
C212 N215 1.341 . S
C213 C211 1.400 . S
C213 C212 1.387 . S
N214 Co205 2.022 . S
N214 C211 1.351 . S
N214 N215 1.365 . S
N215 C212 1.341 . S
N215 N214 1.365 . S
N215 H235 0.862 . S
C216 C211 1.501 . S
C216 H217 0.961 . S
C216 H218 0.961 . S
C216 H219 0.960 . S
H217 C216 0.961 . S
H218 C216 0.961 . S
H219 C216 0.960 . S
C220 N221 1.342 . S
C220 C224 1.401 . S
C220 C225 1.499 . S
N221 Co204 1.989 . S
N221 C220 1.342 . S
N221 N222 1.388 . S
N222 Co205 1.993 . S
N222 N221 1.388 . S
N222 C223 1.346 . S
C223 N222 1.346 . S
C223 C224 1.396 . S
C223 C233 1.510 . S
C224 C220 1.401 . S
C224 C223 1.396 . S
C225 C220 1.499 . S
C225 H226 0.959 . S
C225 H227 0.960 . S
C225 H228 0.961 . S
H226 C225 0.959 . S
H227 C225 0.960 . S
H228 C225 0.961 . S
O229 Co204 1.967 . S
O229 C237 1.258 . S
O230 Co205 1.941 . S
O230 C237 1.266 . S
H231 C233 0.959 . S
H232 C233 0.961 . S
C233 C223 1.510 . S
C233 H231 0.959 . S
C233 H232 0.961 . S
C233 H234 0.960 . S
H234 C233 0.960 . S
H235 N215 0.862 . S
O236 Co204 1.920 . S
O236 C209 1.289 . S
C237 O229 1.258 . S
C237 O230 1.266 . S
Co238 O241 1.970 . S
Co238 N255 1.989 . S
Co238 O263 1.967 . S
Co238 O270 1.920 . S
Co239 O242 1.966 . S
Co239 N248 2.022 . S
Co239 N256 1.993 . S
Co239 O264 1.941 . S
C240 O241 1.258 . S
C240 O242 1.263 . S
O241 Co238 1.970 . S
O241 C240 1.258 . S
O242 Co239 1.966 . S
O242 C240 1.263 . S
C243 O244 1.235 . S
C243 O270 1.289 . S
O244 C243 1.235 . S
C245 C247 1.400 . S
C245 N248 1.351 . S
C245 C250 1.501 . S
C246 C247 1.387 . S
C246 N249 1.341 . S
C247 C245 1.400 . S
C247 C246 1.387 . S
N248 Co239 2.022 . S
N248 C245 1.351 . S
N248 N249 1.365 . S
N249 C246 1.341 . S
N249 N248 1.365 . S
N249 H269 0.862 . S
C250 C245 1.501 . S
C250 H251 0.961 . S
C250 H252 0.961 . S
C250 H253 0.960 . S
H251 C250 0.961 . S
H252 C250 0.961 . S
H253 C250 0.960 . S
C254 N255 1.342 . S
C254 C258 1.401 . S
C254 C259 1.499 . S
N255 Co238 1.989 . S
N255 C254 1.342 . S
N255 N256 1.388 . S
N256 Co239 1.993 . S
N256 N255 1.388 . S
N256 C257 1.346 . S
C257 N256 1.346 . S
C257 C258 1.396 . S
C257 C267 1.510 . S
C258 C254 1.401 . S
C258 C257 1.396 . S
C259 C254 1.499 . S
C259 H260 0.959 . S
C259 H261 0.960 . S
C259 H262 0.961 . S
H260 C259 0.959 . S
H261 C259 0.960 . S
H262 C259 0.961 . S
O263 Co238 1.967 . S
O263 C271 1.258 . S
O264 Co239 1.941 . S
O264 C271 1.266 . S
H265 C267 0.959 . S
H266 C267 0.961 . S
C267 C257 1.510 . S
C267 H265 0.959 . S
C267 H266 0.961 . S
C267 H268 0.960 . S
H268 C267 0.960 . S
H269 N249 0.862 . S
O270 Co238 1.920 . S
O270 C243 1.289 . S
C271 O263 1.258 . S
C271 O264 1.266 . S
Co272 O275 1.970 . S
Co272 N289 1.989 1_545 S
Co272 O297 1.967 . S
Co272 O304 1.920 . S
Co273 O276 1.966 . S
Co273 N282 2.022 . S
Co273 N290 1.993 1_545 S
Co273 O298 1.941 . S
C274 O275 1.258 . S
C274 O276 1.263 . S
O275 Co272 1.970 . S
O275 C274 1.258 . S
O276 Co273 1.966 . S
O276 C274 1.263 . S
C277 O278 1.235 . S
C277 O304 1.289 . S
O278 C277 1.235 . S
C279 C281 1.400 . S
C279 N282 1.351 . S
C279 C284 1.501 . S
C280 C281 1.387 1_565 S
C280 N283 1.341 . S
C281 C279 1.400 . S
C281 C280 1.387 1_545 S
N282 Co273 2.022 . S
N282 C279 1.351 . S
N282 N283 1.365 1_545 S
N283 C280 1.341 . S
N283 N282 1.365 1_565 S
N283 H303 0.862 . S
C284 C279 1.501 . S
C284 H285 0.961 . S
C284 H286 0.961 . S
C284 H287 0.960 . S
H285 C284 0.961 . S
H286 C284 0.961 . S
H287 C284 0.960 . S
C288 N289 1.342 . S
C288 C292 1.401 . S
C288 C293 1.499 . S
N289 Co272 1.989 1_565 S
N289 C288 1.342 . S
N289 N290 1.388 . S
N290 Co273 1.993 1_565 S
N290 N289 1.388 . S
N290 C291 1.346 . S
C291 N290 1.346 . S
C291 C292 1.396 . S
C291 C301 1.510 . S
C292 C288 1.401 . S
C292 C291 1.396 . S
C293 C288 1.499 . S
C293 H294 0.959 . S
C293 H295 0.960 . S
C293 H296 0.961 . S
H294 C293 0.959 . S
H295 C293 0.960 . S
H296 C293 0.961 . S
O297 Co272 1.967 . S
O297 C305 1.258 . S
O298 Co273 1.941 . S
O298 C305 1.266 . S
H299 C301 0.959 . S
H300 C301 0.961 . S
C301 C291 1.510 . S
C301 H299 0.959 . S
C301 H300 0.961 . S
C301 H302 0.960 . S
H302 C301 0.960 . S
H303 N283 0.862 . S
O304 Co272 1.920 . S
O304 C277 1.289 . S
C305 O297 1.258 . S
C305 O298 1.266 . S
Co306 O309 1.970 . S
Co306 N323 1.989 1_565 S
Co306 O331 1.967 . S
Co306 O338 1.920 1_565 S
Co307 O310 1.966 . S
Co307 N316 2.022 1_565 S
Co307 N324 1.993 1_565 S
Co307 O332 1.941 . S
C308 O309 1.258 . S
C308 O310 1.263 . S
O309 Co306 1.970 . S
O309 C308 1.258 . S
O310 Co307 1.966 . S
O310 C308 1.263 . S
C311 O312 1.236 . S
C311 O338 1.288 1_565 S
O312 C311 1.236 . S
C313 C315 1.400 1_565 S
C313 N316 1.351 1_565 S
C313 C318 1.501 . S
C314 C315 1.387 . S
C314 N317 1.341 . S
C315 C313 1.400 1_545 S
C315 C314 1.387 . S
N316 Co307 2.022 1_545 S
N316 C313 1.351 1_545 S
N316 N317 1.365 . S
N317 C314 1.341 . S
N317 N316 1.365 . S
N317 H337 0.862 . S
C318 C313 1.501 . S
C318 H319 0.961 . S
C318 H320 0.961 . S
C318 H321 0.960 . S
H319 C318 0.961 . S
H320 C318 0.961 . S
H321 C318 0.960 . S
C322 N323 1.342 . S
C322 C326 1.401 . S
C322 C327 1.499 . S
N323 Co306 1.989 1_545 S
N323 C322 1.342 . S
N323 N324 1.388 . S
N324 Co307 1.993 1_545 S
N324 N323 1.388 . S
N324 C325 1.346 . S
C325 N324 1.346 . S
C325 C326 1.396 . S
C325 C335 1.510 . S
C326 C322 1.401 . S
C326 C325 1.396 . S
C327 C322 1.499 . S
C327 H328 0.959 . S
C327 H329 0.960 . S
C327 H330 0.961 . S
H328 C327 0.959 . S
H329 C327 0.960 . S
H330 C327 0.961 . S
O331 Co306 1.967 . S
O331 C339 1.258 . S
O332 Co307 1.941 . S
O332 C339 1.266 . S
H333 C335 0.959 . S
H334 C335 0.961 . S
C335 C325 1.510 . S
C335 H333 0.959 . S
C335 H334 0.961 . S
C335 H336 0.960 . S
H336 C335 0.960 . S
H337 N317 0.862 . S
O338 Co306 1.920 1_545 S
O338 C311 1.288 1_545 S
C339 O331 1.258 . S
C339 O332 1.266 . S
Co340 O343 1.970 . S
Co340 N357 1.989 1_565 S
Co340 O365 1.967 . S
Co340 O372 1.920 1_565 S
Co341 O344 1.966 . S
Co341 N350 2.022 1_565 S
Co341 N358 1.993 1_565 S
Co341 O366 1.941 . S
C342 O343 1.258 . S
C342 O344 1.263 . S
O343 Co340 1.970 . S
O343 C342 1.258 . S
O344 Co341 1.966 . S
O344 C342 1.263 . S
C345 O346 1.236 . S
C345 O372 1.288 1_565 S
O346 C345 1.236 . S
C347 C349 1.400 1_565 S
C347 N350 1.351 1_565 S
C347 C352 1.501 . S
C348 C349 1.387 . S
C348 N351 1.341 . S
C349 C347 1.400 1_545 S
C349 C348 1.387 . S
N350 Co341 2.022 1_545 S
N350 C347 1.351 1_545 S
N350 N351 1.365 . S
N351 C348 1.341 . S
N351 N350 1.365 . S
N351 H371 0.862 . S
C352 C347 1.501 . S
C352 H353 0.961 . S
C352 H354 0.961 . S
C352 H355 0.960 . S
H353 C352 0.961 . S
H354 C352 0.961 . S
H355 C352 0.960 . S
C356 N357 1.342 . S
C356 C360 1.401 . S
C356 C361 1.499 . S
N357 Co340 1.989 1_545 S
N357 C356 1.342 . S
N357 N358 1.388 . S
N358 Co341 1.993 1_545 S
N358 N357 1.388 . S
N358 C359 1.346 . S
C359 N358 1.346 . S
C359 C360 1.396 . S
C359 C369 1.510 . S
C360 C356 1.401 . S
C360 C359 1.396 . S
C361 C356 1.499 . S
C361 H362 0.959 . S
C361 H363 0.960 . S
C361 H364 0.961 . S
H362 C361 0.959 . S
H363 C361 0.960 . S
H364 C361 0.961 . S
O365 Co340 1.967 . S
O365 C373 1.258 . S
O366 Co341 1.941 . S
O366 C373 1.266 . S
H367 C369 0.959 . S
H368 C369 0.961 . S
C369 C359 1.510 . S
C369 H367 0.959 . S
C369 H368 0.961 . S
C369 H370 0.960 . S
H370 C369 0.960 . S
H371 N351 0.862 . S
O372 Co340 1.920 1_545 S
O372 C345 1.288 1_545 S
C373 O365 1.258 . S
C373 O366 1.266 . S
Co374 O377 1.970 . S
Co374 N391 1.989 1_545 S
Co374 O399 1.967 . S
Co374 O406 1.920 . S
Co375 O378 1.966 . S
Co375 N384 2.022 . S
Co375 N392 1.993 1_545 S
Co375 O400 1.941 . S
C376 O377 1.258 . S
C376 O378 1.263 . S
O377 Co374 1.970 . S
O377 C376 1.258 . S
O378 Co375 1.966 . S
O378 C376 1.263 . S
C379 O380 1.235 . S
C379 O406 1.289 . S
O380 C379 1.235 . S
C381 C383 1.400 . S
C381 N384 1.351 . S
C381 C386 1.501 . S
C382 C383 1.387 1_565 S
C382 N385 1.341 . S
C383 C381 1.400 . S
C383 C382 1.387 1_545 S
N384 Co375 2.022 . S
N384 C381 1.351 . S
N384 N385 1.365 1_545 S
N385 C382 1.341 . S
N385 N384 1.365 1_565 S
N385 H405 0.862 . S
C386 C381 1.501 . S
C386 H387 0.961 . S
C386 H388 0.961 . S
C386 H389 0.960 . S
H387 C386 0.961 . S
H388 C386 0.961 . S
H389 C386 0.960 . S
C390 N391 1.342 . S
C390 C394 1.401 . S
C390 C395 1.499 . S
N391 Co374 1.989 1_565 S
N391 C390 1.342 . S
N391 N392 1.388 . S
N392 Co375 1.993 1_565 S
N392 N391 1.388 . S
N392 C393 1.346 . S
C393 N392 1.346 . S
C393 C394 1.396 . S
C393 C403 1.510 . S
C394 C390 1.401 . S
C394 C393 1.396 . S
C395 C390 1.499 . S
C395 H396 0.959 . S
C395 H397 0.960 . S
C395 H398 0.961 . S
H396 C395 0.959 . S
H397 C395 0.960 . S
H398 C395 0.961 . S
O399 Co374 1.967 . S
O399 C407 1.258 . S
O400 Co375 1.941 . S
O400 C407 1.266 . S
H401 C403 0.959 . S
H402 C403 0.961 . S
C403 C393 1.510 . S
C403 H401 0.959 . S
C403 H402 0.961 . S
C403 H404 0.960 . S
H404 C403 0.960 . S
H405 N385 0.862 . S
O406 Co374 1.920 . S
O406 C379 1.289 . S
C407 O399 1.258 . S
C407 O400 1.266 . S
Co408 O411 1.970 . S
Co408 N425 1.989 . S
Co408 O433 1.967 . S
Co408 O440 1.920 . S
Co409 O412 1.966 . S
Co409 N418 2.022 . S
Co409 N426 1.993 . S
Co409 O434 1.941 . S
C410 O411 1.258 . S
C410 O412 1.263 . S
O411 Co408 1.970 . S
O411 C410 1.258 . S
O412 Co409 1.966 . S
O412 C410 1.263 . S
C413 O414 1.235 . S
C413 O440 1.289 . S
O414 C413 1.235 . S
C415 C417 1.400 . S
C415 N418 1.351 . S
C415 C420 1.501 . S
C416 C417 1.387 . S
C416 N419 1.341 . S
C417 C415 1.400 . S
C417 C416 1.387 . S
N418 Co409 2.022 . S
N418 C415 1.351 . S
N418 N419 1.365 . S
N419 C416 1.341 . S
N419 N418 1.365 . S
N419 H439 0.862 . S
C420 C415 1.501 . S
C420 H421 0.961 . S
C420 H422 0.961 . S
C420 H423 0.960 . S
H421 C420 0.961 . S
H422 C420 0.961 . S
H423 C420 0.960 . S
C424 N425 1.342 . S
C424 C428 1.401 . S
C424 C429 1.499 . S
N425 Co408 1.989 . S
N425 C424 1.342 . S
N425 N426 1.388 . S
N426 Co409 1.993 . S
N426 N425 1.388 . S
N426 C427 1.346 . S
C427 N426 1.346 . S
C427 C428 1.396 . S
C427 C437 1.510 . S
C428 C424 1.401 . S
C428 C427 1.396 . S
C429 C424 1.499 . S
C429 H430 0.959 . S
C429 H431 0.960 . S
C429 H432 0.961 . S
H430 C429 0.959 . S
H431 C429 0.960 . S
H432 C429 0.961 . S
O433 Co408 1.967 . S
O433 C441 1.258 . S
O434 Co409 1.941 . S
O434 C441 1.266 . S
H435 C437 0.959 . S
H436 C437 0.961 . S
C437 C427 1.510 . S
C437 H435 0.959 . S
C437 H436 0.961 . S
C437 H438 0.960 . S
H438 C437 0.960 . S
H439 N419 0.862 . S
O440 Co408 1.920 . S
O440 C413 1.289 . S
C441 O433 1.258 . S
C441 O434 1.266 . S
Co442 O445 1.970 . S
Co442 N459 1.989 . S
Co442 O467 1.967 . S
Co442 O474 1.920 . S
Co443 O446 1.966 . S
Co443 N452 2.022 . S
Co443 N460 1.993 . S
Co443 O468 1.941 . S
C444 O445 1.258 . S
C444 O446 1.263 . S
O445 Co442 1.970 . S
O445 C444 1.258 . S
O446 Co443 1.966 . S
O446 C444 1.263 . S
C447 O448 1.235 . S
C447 O474 1.289 . S
O448 C447 1.235 . S
C449 C451 1.400 . S
C449 N452 1.351 . S
C449 C454 1.501 . S
C450 C451 1.387 . S
C450 N453 1.341 . S
C451 C449 1.400 . S
C451 C450 1.387 . S
N452 Co443 2.022 . S
N452 C449 1.351 . S
N452 N453 1.365 . S
N453 C450 1.341 . S
N453 N452 1.365 . S
N453 H473 0.862 . S
C454 C449 1.501 . S
C454 H455 0.961 . S
C454 H456 0.961 . S
C454 H457 0.960 . S
H455 C454 0.961 . S
H456 C454 0.961 . S
H457 C454 0.960 . S
C458 N459 1.342 . S
C458 C462 1.401 . S
C458 C463 1.499 . S
N459 Co442 1.989 . S
N459 C458 1.342 . S
N459 N460 1.388 . S
N460 Co443 1.993 . S
N460 N459 1.388 . S
N460 C461 1.346 . S
C461 N460 1.346 . S
C461 C462 1.396 . S
C461 C471 1.510 . S
C462 C458 1.401 . S
C462 C461 1.396 . S
C463 C458 1.499 . S
C463 H464 0.959 . S
C463 H465 0.960 . S
C463 H466 0.961 . S
H464 C463 0.959 . S
H465 C463 0.960 . S
H466 C463 0.961 . S
O467 Co442 1.967 . S
O467 C475 1.258 . S
O468 Co443 1.941 . S
O468 C475 1.266 . S
H469 C471 0.959 . S
H470 C471 0.961 . S
C471 C461 1.510 . S
C471 H469 0.959 . S
C471 H470 0.961 . S
C471 H472 0.960 . S
H472 C471 0.960 . S
H473 N453 0.862 . S
O474 Co442 1.920 . S
O474 C447 1.289 . S
C475 O467 1.258 . S
C475 O468 1.266 . S
Co476 O479 1.970 . S
Co476 N493 1.989 . S
Co476 O501 1.967 . S
Co476 O508 1.920 . S
Co477 O480 1.966 . S
Co477 N486 2.022 . S
Co477 N494 1.993 . S
Co477 O502 1.941 . S
C478 O479 1.258 . S
C478 O480 1.263 . S
O479 Co476 1.970 . S
O479 C478 1.258 . S
O480 Co477 1.966 . S
O480 C478 1.263 . S
C481 O482 1.235 . S
C481 O508 1.289 . S
O482 C481 1.235 . S
C483 C485 1.400 . S
C483 N486 1.351 . S
C483 C488 1.501 . S
C484 C485 1.387 . S
C484 N487 1.341 . S
C485 C483 1.400 . S
C485 C484 1.387 . S
N486 Co477 2.022 . S
N486 C483 1.351 . S
N486 N487 1.365 . S
N487 C484 1.341 . S
N487 N486 1.365 . S
N487 H507 0.862 . S
C488 C483 1.501 . S
C488 H489 0.961 . S
C488 H490 0.961 . S
C488 H491 0.960 . S
H489 C488 0.961 . S
H490 C488 0.961 . S
H491 C488 0.960 . S
C492 N493 1.342 . S
C492 C496 1.401 . S
C492 C497 1.499 . S
N493 Co476 1.989 . S
N493 C492 1.342 . S
N493 N494 1.388 . S
N494 Co477 1.993 . S
N494 N493 1.388 . S
N494 C495 1.346 . S
C495 N494 1.346 . S
C495 C496 1.396 . S
C495 C505 1.510 . S
C496 C492 1.401 . S
C496 C495 1.396 . S
C497 C492 1.499 . S
C497 H498 0.959 . S
C497 H499 0.960 . S
C497 H500 0.961 . S
H498 C497 0.959 . S
H499 C497 0.960 . S
H500 C497 0.961 . S
O501 Co476 1.967 . S
O501 C509 1.258 . S
O502 Co477 1.941 . S
O502 C509 1.266 . S
H503 C505 0.959 . S
H504 C505 0.961 . S
C505 C495 1.510 . S
C505 H503 0.959 . S
C505 H504 0.961 . S
C505 H506 0.960 . S
H506 C505 0.960 . S
H507 N487 0.862 . S
O508 Co476 1.920 . S
O508 C481 1.289 . S
C509 O501 1.258 . S
C509 O502 1.266 . S
Co510 O513 1.970 . S
Co510 N527 1.989 . S
Co510 O535 1.967 . S
Co510 O542 1.920 . S
Co511 O514 1.966 . S
Co511 N520 2.022 . S
Co511 N528 1.993 . S
Co511 O536 1.941 . S
C512 O513 1.258 . S
C512 O514 1.263 . S
O513 Co510 1.970 . S
O513 C512 1.258 . S
O514 Co511 1.966 . S
O514 C512 1.263 . S
C515 O516 1.235 . S
C515 O542 1.289 . S
O516 C515 1.235 . S
C517 C519 1.400 . S
C517 N520 1.351 . S
C517 C522 1.501 . S
C518 C519 1.387 . S
C518 N521 1.341 . S
C519 C517 1.400 . S
C519 C518 1.387 . S
N520 Co511 2.022 . S
N520 C517 1.351 . S
N520 N521 1.365 . S
N521 C518 1.341 . S
N521 N520 1.365 . S
N521 H541 0.862 . S
C522 C517 1.501 . S
C522 H523 0.961 . S
C522 H524 0.961 . S
C522 H525 0.960 . S
H523 C522 0.961 . S
H524 C522 0.961 . S
H525 C522 0.960 . S
C526 N527 1.342 . S
C526 C530 1.401 . S
C526 C531 1.499 . S
N527 Co510 1.989 . S
N527 C526 1.342 . S
N527 N528 1.388 . S
N528 Co511 1.993 . S
N528 N527 1.388 . S
N528 C529 1.346 . S
C529 N528 1.346 . S
C529 C530 1.396 . S
C529 C539 1.510 . S
C530 C526 1.401 . S
C530 C529 1.396 . S
C531 C526 1.499 . S
C531 H532 0.959 . S
C531 H533 0.960 . S
C531 H534 0.961 . S
H532 C531 0.959 . S
H533 C531 0.960 . S
H534 C531 0.961 . S
O535 Co510 1.967 . S
O535 C543 1.258 . S
O536 Co511 1.941 . S
O536 C543 1.266 . S
H537 C539 0.959 . S
H538 C539 0.961 . S
C539 C529 1.510 . S
C539 H537 0.959 . S
C539 H538 0.961 . S
C539 H540 0.960 . S
H540 C539 0.960 . S
H541 N521 0.862 . S
O542 Co510 1.920 . S
O542 C515 1.289 . S
C543 O535 1.258 . S
C543 O536 1.266 . S
C544 C545 1.387 . S
C544 H548 0.950 . S
C544 C553 1.390 . S
C545 C544 1.387 . S
C545 C547 1.387 1_545 S
H546 C553 0.950 . S
C547 C545 1.387 1_565 S
C547 C549 1.390 . S
C547 H551 0.950 . S
H548 C544 0.950 . S
C549 C547 1.390 . S
C549 C550 1.387 1_565 S
C549 H552 0.950 . S
C550 C549 1.387 1_545 S
C550 C553 1.387 . S
H551 C547 0.950 . S
H552 C549 0.950 . S
C553 C544 1.390 . S
C553 H546 0.950 . S
C553 C550 1.387 . S
C554 C555 1.387 1_565 S
C554 H558 0.950 . S
C554 C563 1.390 . S
C555 C554 1.387 1_545 S
C555 C557 1.387 . S
H556 C563 0.950 . S
C557 C555 1.387 . S
C557 C559 1.390 . S
C557 H561 0.950 . S
H558 C554 0.950 . S
C559 C557 1.390 . S
C559 C560 1.387 . S
C559 H562 0.950 . S
C560 C559 1.387 . S
C560 C563 1.387 1_545 S
H561 C557 0.950 . S
H562 C559 0.950 . S
C563 C554 1.390 . S
C563 H556 0.950 . S
C563 C560 1.387 1_565 S
C564 C565 1.387 . S
C564 H568 0.950 . S
C564 C573 1.390 . S
C565 C564 1.387 . S
C565 C567 1.387 1_545 S
H566 C573 0.950 . S
C567 C565 1.387 1_565 S
C567 C569 1.390 . S
C567 H571 0.950 . S
H568 C564 0.950 . S
C569 C567 1.390 . S
C569 C570 1.387 1_565 S
C569 H572 0.950 . S
C570 C569 1.387 1_545 S
C570 C573 1.387 . S
H571 C567 0.950 . S
H572 C569 0.950 . S
C573 C564 1.390 . S
C573 H566 0.950 . S
C573 C570 1.387 . S
C574 C575 1.387 . S
C574 H578 0.950 . S
C574 C583 1.390 . S
C575 C574 1.387 . S
C575 C577 1.387 1_545 S
H576 C583 0.950 . S
C577 C575 1.387 1_565 S
C577 C579 1.390 . S
C577 H581 0.950 . S
H578 C574 0.950 . S
C579 C577 1.390 . S
C579 C580 1.387 1_565 S
C579 H582 0.950 . S
C580 C579 1.387 1_545 S
C580 C583 1.387 . S
H581 C577 0.950 . S
H582 C579 0.950 . S
C583 C574 1.390 . S
C583 H576 0.950 . S
C583 C580 1.387 . S
C584 C585 1.387 . S
C584 H588 0.950 . S
C584 C593 1.390 . S
C585 C584 1.387 . S
C585 C587 1.387 . S
H586 C593 0.950 . S
C587 C585 1.387 . S
C587 C589 1.390 . S
C587 H591 0.950 . S
H588 C584 0.950 . S
C589 C587 1.390 . S
C589 C590 1.387 . S
C589 H592 0.950 . S
C590 C589 1.387 . S
C590 C593 1.387 . S
H591 C587 0.950 . S
H592 C589 0.950 . S
C593 C584 1.390 . S
C593 H586 0.950 . S
C593 C590 1.387 . S
C594 C595 1.387 . S
C594 H598 0.950 . S
C594 C603 1.390 . S
C595 C594 1.387 . S
C595 C597 1.387 . S
H596 C603 0.950 . S
C597 C595 1.387 . S
C597 C599 1.390 . S
C597 H601 0.950 . S
H598 C594 0.950 . S
C599 C597 1.390 . S
C599 C600 1.387 . S
C599 H602 0.950 . S
C600 C599 1.387 . S
C600 C603 1.387 . S
H601 C597 0.950 . S
H602 C599 0.950 . S
C603 C594 1.390 . S
C603 H596 0.950 . S
C603 C600 1.387 . S
C604 C605 1.387 . S
C604 H608 0.950 . S
C604 C613 1.390 . S
C605 C604 1.387 . S
C605 C607 1.387 . S
H606 C613 0.950 . S
C607 C605 1.387 . S
C607 C609 1.390 . S
C607 H611 0.950 . S
H608 C604 0.950 . S
C609 C607 1.390 . S
C609 C610 1.387 . S
C609 H612 0.950 . S
C610 C609 1.387 . S
C610 C613 1.387 . S
H611 C607 0.950 . S
H612 C609 0.950 . S
C613 C604 1.390 . S
C613 H606 0.950 . S
C613 C610 1.387 . S
C614 C615 1.387 . S
C614 H618 0.950 . S
C614 C623 1.390 . S
C615 C614 1.387 . S
C615 C617 1.387 . S
H616 C623 0.950 . S
C617 C615 1.387 . S
C617 C619 1.390 . S
C617 H621 0.950 . S
H618 C614 0.950 . S
C619 C617 1.390 . S
C619 C620 1.387 . S
C619 H622 0.950 . S
C620 C619 1.387 . S
C620 C623 1.387 . S
H621 C617 0.950 . S
H622 C619 0.950 . S
C623 C614 1.390 . S
C623 H616 0.950 . S
C623 C620 1.387 . S
C624 C625 1.387 . S
C624 H628 0.950 . S
C624 C633 1.390 . S
C625 C624 1.387 . S
C625 C627 1.387 . S
H626 C633 0.950 . S
C627 C625 1.387 . S
C627 C629 1.390 . S
C627 H631 0.950 . S
H628 C624 0.950 . S
C629 C627 1.390 . S
C629 C630 1.387 . S
C629 H632 0.950 . S
C630 C629 1.387 . S
C630 C633 1.387 . S
H631 C627 0.950 . S
H632 C629 0.950 . S
C633 C624 1.390 . S
C633 H626 0.950 . S
C633 C630 1.387 . S
C634 C635 1.387 . S
C634 H638 0.950 . S
C634 C643 1.390 . S
C635 C634 1.387 . S
C635 C637 1.387 . S
H636 C643 0.950 . S
C637 C635 1.387 . S
C637 C639 1.390 . S
C637 H641 0.950 . S
H638 C634 0.950 . S
C639 C637 1.390 . S
C639 C640 1.387 . S
C639 H642 0.950 . S
C640 C639 1.387 . S
C640 C643 1.387 . S
H641 C637 0.950 . S
H642 C639 0.950 . S
C643 C634 1.390 . S
C643 H636 0.950 . S
C643 C640 1.387 . S
C644 C645 1.387 . S
C644 H648 0.950 . S
C644 C653 1.390 . S
C645 C644 1.387 . S
C645 C647 1.387 . S
H646 C653 0.950 . S
C647 C645 1.387 . S
C647 C649 1.390 . S
C647 H651 0.950 . S
H648 C644 0.950 . S
C649 C647 1.390 . S
C649 C650 1.387 . S
C649 H652 0.950 . S
C650 C649 1.387 . S
C650 C653 1.387 . S
H651 C647 0.950 . S
H652 C649 0.950 . S
C653 C644 1.390 . S
C653 H646 0.950 . S
C653 C650 1.387 . S
C654 C655 1.387 . S
C654 H658 0.950 . S
C654 C663 1.390 . S
C655 C654 1.387 . S
C655 C657 1.387 . S
H656 C663 0.950 . S
C657 C655 1.387 . S
C657 C659 1.390 . S
C657 H661 0.950 . S
H658 C654 0.950 . S
C659 C657 1.390 . S
C659 C660 1.387 . S
C659 H662 0.950 . S
C660 C659 1.387 . S
C660 C663 1.387 . S
H661 C657 0.950 . S
H662 C659 0.950 . S
C663 C654 1.390 . S
C663 H656 0.950 . S
C663 C660 1.387 . S
C664 C665 1.387 . S
C664 H668 0.950 . S
C664 C673 1.390 . S
C665 C664 1.387 . S
C665 C667 1.387 . S
H666 C673 0.950 . S
C667 C665 1.387 . S
C667 C669 1.390 . S
C667 H671 0.950 . S
H668 C664 0.950 . S
C669 C667 1.390 . S
C669 C670 1.387 . S
C669 H672 0.950 . S
C670 C669 1.387 . S
C670 C673 1.387 . S
H671 C667 0.950 . S
H672 C669 0.950 . S
C673 C664 1.390 . S
C673 H666 0.950 . S
C673 C670 1.387 . S
C674 C675 1.387 . S
C674 H678 0.950 . S
C674 C683 1.390 . S
C675 C674 1.387 . S
C675 C677 1.387 . S
H676 C683 0.950 . S
C677 C675 1.387 . S
C677 C679 1.390 . S
C677 H681 0.950 . S
H678 C674 0.950 . S
C679 C677 1.390 . S
C679 C680 1.387 . S
C679 H682 0.950 . S
C680 C679 1.387 . S
C680 C683 1.387 . S
H681 C677 0.950 . S
H682 C679 0.950 . S
C683 C674 1.390 . S
C683 H676 0.950 . S
C683 C680 1.387 . S
C684 C685 1.387 . S
C684 H688 0.950 . S
C684 C693 1.390 . S
C685 C684 1.387 . S
C685 C687 1.387 . S
H686 C693 0.950 . S
C687 C685 1.387 . S
C687 C689 1.390 . S
C687 H691 0.950 . S
H688 C684 0.950 . S
C689 C687 1.390 . S
C689 C690 1.387 . S
C689 H692 0.950 . S
C690 C689 1.387 . S
C690 C693 1.387 . S
H691 C687 0.950 . S
H692 C689 0.950 . S
C693 C684 1.390 . S
C693 H686 0.950 . S
C693 C690 1.387 . S
C694 C695 1.387 . S
C694 H698 0.950 . S
C694 C703 1.390 . S
C695 C694 1.387 . S
C695 C697 1.387 . S
H696 C703 0.950 . S
C697 C695 1.387 . S
C697 C699 1.390 . S
C697 H701 0.950 . S
H698 C694 0.950 . S
C699 C697 1.390 . S
C699 C700 1.387 . S
C699 H702 0.950 . S
C700 C699 1.387 . S
C700 C703 1.387 . S
H701 C697 0.950 . S
H702 C699 0.950 . S
C703 C694 1.390 . S
C703 H696 0.950 . S
C703 C700 1.387 . S
C704 C705 1.387 . S
C704 H708 0.950 . S
C704 C713 1.390 . S
C705 C704 1.387 . S
C705 C707 1.387 . S
H706 C713 0.950 . S
C707 C705 1.387 . S
C707 C709 1.390 . S
C707 H711 0.950 . S
H708 C704 0.950 . S
C709 C707 1.390 . S
C709 C710 1.387 . S
C709 H712 0.950 . S
C710 C709 1.387 . S
C710 C713 1.387 . S
H711 C707 0.950 . S
H712 C709 0.950 . S
C713 C704 1.390 . S
C713 H706 0.950 . S
C713 C710 1.387 . S
C714 C715 1.387 . S
C714 H718 0.950 . S
C714 C723 1.390 . S
C715 C714 1.387 . S
C715 C717 1.387 . S
H716 C723 0.950 . S
C717 C715 1.387 . S
C717 C719 1.390 . S
C717 H721 0.950 . S
H718 C714 0.950 . S
C719 C717 1.390 . S
C719 C720 1.387 . S
C719 H722 0.950 . S
C720 C719 1.387 . S
C720 C723 1.387 . S
H721 C717 0.950 . S
H722 C719 0.950 . S
C723 C714 1.390 . S
C723 H716 0.950 . S
C723 C720 1.387 . S
C724 C725 1.387 . S
C724 H728 0.950 . S
C724 C733 1.390 . S
C725 C724 1.387 . S
C725 C727 1.387 . S
H726 C733 0.950 . S
C727 C725 1.387 . S
C727 C729 1.390 . S
C727 H731 0.950 . S
H728 C724 0.950 . S
C729 C727 1.390 . S
C729 C730 1.387 . S
C729 H732 0.950 . S
C730 C729 1.387 . S
C730 C733 1.387 . S
H731 C727 0.950 . S
H732 C729 0.950 . S
C733 C724 1.390 . S
C733 H726 0.950 . S
C733 C730 1.387 . S
C734 C735 1.387 . S
C734 H738 0.950 . S
C734 C743 1.390 . S
C735 C734 1.387 . S
C735 C737 1.387 . S
H736 C743 0.950 . S
C737 C735 1.387 . S
C737 C739 1.390 . S
C737 H741 0.950 . S
H738 C734 0.950 . S
C739 C737 1.390 . S
C739 C740 1.387 . S
C739 H742 0.950 . S
C740 C739 1.387 . S
C740 C743 1.387 . S
H741 C737 0.950 . S
H742 C739 0.950 . S
C743 C734 1.390 . S
C743 H736 0.950 . S
C743 C740 1.387 . S
C744 C745 1.387 . S
C744 H748 0.950 . S
C744 C753 1.390 . S
C745 C744 1.387 . S
C745 C747 1.387 . S
H746 C753 0.950 . S
C747 C745 1.387 . S
C747 C749 1.390 . S
C747 H751 0.950 . S
H748 C744 0.950 . S
C749 C747 1.390 . S
C749 C750 1.387 . S
C749 H752 0.950 . S
C750 C749 1.387 . S
C750 C753 1.387 . S
H751 C747 0.950 . S
H752 C749 0.950 . S
C753 C744 1.390 . S
C753 H746 0.950 . S
C753 C750 1.387 . S
C754 C755 1.387 . S
C754 H758 0.950 . S
C754 C763 1.390 . S
C755 C754 1.387 . S
C755 C757 1.387 . S
H756 C763 0.950 . S
C757 C755 1.387 . S
C757 C759 1.390 . S
C757 H761 0.950 . S
H758 C754 0.950 . S
C759 C757 1.390 . S
C759 C760 1.387 . S
C759 H762 0.950 . S
C760 C759 1.387 . S
C760 C763 1.387 . S
H761 C757 0.950 . S
H762 C759 0.950 . S
C763 C754 1.390 . S
C763 H756 0.950 . S
C763 C760 1.387 . S
C764 C765 1.387 . S
C764 H768 0.950 . S
C764 C773 1.390 . S
C765 C764 1.387 . S
C765 C767 1.387 . S
H766 C773 0.950 . S
C767 C765 1.387 . S
C767 C769 1.390 . S
C767 H771 0.950 . S
H768 C764 0.950 . S
C769 C767 1.390 . S
C769 C770 1.387 . S
C769 H772 0.950 . S
C770 C769 1.387 . S
C770 C773 1.387 . S
H771 C767 0.950 . S
H772 C769 0.950 . S
C773 C764 1.390 . S
C773 H766 0.950 . S
C773 C770 1.387 . S
C774 C775 1.387 . S
C774 H778 0.950 . S
C774 C783 1.390 . S
C775 C774 1.387 . S
C775 C777 1.387 . S
H776 C783 0.950 . S
C777 C775 1.387 . S
C777 C779 1.390 . S
C777 H781 0.950 . S
H778 C774 0.950 . S
C779 C777 1.390 . S
C779 C780 1.387 . S
C779 H782 0.950 . S
C780 C779 1.387 . S
C780 C783 1.387 . S
H781 C777 0.950 . S
H782 C779 0.950 . S
C783 C774 1.390 . S
C783 H776 0.950 . S
C783 C780 1.387 . S
C784 C785 1.389 . S
C784 H788 0.952 . S
C784 C793 1.387 1_665 S
C785 C784 1.389 . S
C785 C787 1.389 . S
H786 C793 0.950 . S
C787 C785 1.389 . S
C787 C789 1.387 1_665 S
C787 H791 0.952 . S
H788 C784 0.952 . S
C789 C787 1.387 1_445 S
C789 C790 1.387 . S
C789 H792 0.950 . S
C790 C789 1.387 . S
C790 C793 1.387 . S
H791 C787 0.952 . S
H792 C789 0.950 . S
C793 C784 1.387 1_445 S
C793 H786 0.950 . S
C793 C790 1.387 . S
C794 C795 1.388 . S
C794 H798 0.950 . S
C794 C803 1.390 1_465 S
C795 C794 1.388 . S
C795 C797 1.388 . S
H796 C803 0.950 . S
C797 C795 1.388 . S
C797 C799 1.389 1_465 S
C797 H801 0.950 . S
H798 C794 0.950 . S
C799 C797 1.389 1_645 S
C799 C800 1.387 . S
C799 H802 0.950 . S
C800 C799 1.387 . S
C800 C803 1.387 . S
H801 C797 0.950 . S
H802 C799 0.950 . S
C803 C794 1.390 1_645 S
C803 H796 0.950 . S
C803 C800 1.387 . S
C804 C805 1.387 . S
C804 H808 0.950 . S
C804 C813 1.390 1_655 S
C805 C804 1.387 . S
C805 C807 1.387 . S
H806 C813 0.950 . S
C807 C805 1.387 . S
C807 C809 1.390 1_655 S
C807 H811 0.950 . S
H808 C804 0.950 . S
C809 C807 1.390 1_455 S
C809 C810 1.387 . S
C809 H812 0.950 . S
C810 C809 1.387 . S
C810 C813 1.387 . S
H811 C807 0.950 . S
H812 C809 0.950 . S
C813 C804 1.390 1_455 S
C813 H806 0.950 . S
C813 C810 1.387 . S
C814 C815 1.387 . S
C814 H818 0.950 . S
C814 C823 1.390 1_655 S
C815 C814 1.387 . S
C815 C817 1.387 . S
H816 C823 0.950 . S
C817 C815 1.387 . S
C817 C819 1.390 1_655 S
C817 H821 0.950 . S
H818 C814 0.950 . S
C819 C817 1.390 1_455 S
C819 C820 1.387 . S
C819 H822 0.950 . S
C820 C819 1.387 . S
C820 C823 1.387 . S
H821 C817 0.950 . S
H822 C819 0.950 . S
C823 C814 1.390 1_455 S
C823 H816 0.950 . S
C823 C820 1.387 . S
C824 C825 1.388 . S
C824 H828 0.950 . S
C824 C833 1.390 1_565 S
C825 C824 1.388 . S
C825 C827 1.388 . S
H826 C833 0.950 . S
C827 C825 1.388 . S
C827 C829 1.389 1_565 S
C827 H831 0.950 . S
H828 C824 0.950 . S
C829 C827 1.389 1_545 S
C829 C830 1.387 . S
C829 H832 0.950 . S
C830 C829 1.387 . S
C830 C833 1.387 . S
H831 C827 0.950 . S
H832 C829 0.950 . S
C833 C824 1.390 1_545 S
C833 H826 0.950 . S
C833 C830 1.387 . S
C834 C835 1.387 . S
C834 H838 0.950 . S
C834 C843 1.389 1_545 S
C835 C834 1.387 . S
C835 C837 1.387 . S
H836 C843 0.950 . S
C837 C835 1.387 . S
C837 C839 1.389 1_545 S
C837 H841 0.950 . S
H838 C834 0.950 . S
C839 C837 1.389 1_565 S
C839 C840 1.388 . S
C839 H842 0.950 . S
C840 C839 1.388 . S
C840 C843 1.388 . S
H841 C837 0.950 . S
H842 C839 0.950 . S
C843 C834 1.389 1_565 S
C843 H836 0.950 . S
C843 C840 1.388 . S
C844 C845 1.387 . S
C844 H848 0.950 . S
C844 C853 1.390 . S
C845 C844 1.387 . S
C845 C847 1.387 . S
H846 C853 0.950 . S
C847 C845 1.387 . S
C847 C849 1.390 . S
C847 H851 0.950 . S
H848 C844 0.950 . S
C849 C847 1.390 . S
C849 C850 1.387 . S
C849 H852 0.950 . S
C850 C849 1.387 . S
C850 C853 1.387 . S
H851 C847 0.950 . S
H852 C849 0.950 . S
C853 C844 1.390 . S
C853 H846 0.950 . S
C853 C850 1.387 . S
C854 C855 1.387 . S
C854 H858 0.950 . S
C854 C863 1.390 . S
C855 C854 1.387 . S
C855 C857 1.387 . S
H856 C863 0.950 . S
C857 C855 1.387 . S
C857 C859 1.390 . S
C857 H861 0.950 . S
H858 C854 0.950 . S
C859 C857 1.390 . S
C859 C860 1.387 . S
C859 H862 0.950 . S
C860 C859 1.387 . S
C860 C863 1.387 . S
H861 C857 0.950 . S
H862 C859 0.950 . S
C863 C854 1.390 . S
C863 H856 0.950 . S
C863 C860 1.387 . S
C864 C865 1.387 . S
C864 H868 0.950 . S
C864 C873 1.390 1_556 S
C865 C864 1.387 . S
C865 C867 1.387 . S
H866 C873 0.950 . S
C867 C865 1.387 . S
C867 C869 1.390 1_556 S
C867 H871 0.950 . S
H868 C864 0.950 . S
C869 C867 1.390 1_554 S
C869 C870 1.387 . S
C869 H872 0.950 . S
C870 C869 1.387 . S
C870 C873 1.387 . S
H871 C867 0.950 . S
H872 C869 0.950 . S
C873 C864 1.390 1_554 S
C873 H866 0.950 . S
C873 C870 1.387 . S
C874 C875 1.387 . S
C874 H878 0.950 . S
C874 C883 1.390 1_556 S
C875 C874 1.387 . S
C875 C877 1.387 . S
H876 C883 0.950 . S
C877 C875 1.387 . S
C877 C879 1.390 1_556 S
C877 H881 0.950 . S
H878 C874 0.950 . S
C879 C877 1.390 1_554 S
C879 C880 1.387 . S
C879 H882 0.950 . S
C880 C879 1.387 . S
C880 C883 1.387 . S
H881 C877 0.950 . S
H882 C879 0.950 . S
C883 C874 1.390 1_554 S
C883 H876 0.950 . S
C883 C880 1.387 . S
C884 C885 1.387 . S
C884 H888 0.950 . S
C884 C893 1.390 . S
C885 C884 1.387 . S
C885 C887 1.387 . S
H886 C893 0.950 . S
C887 C885 1.387 . S
C887 C889 1.390 . S
C887 H891 0.950 . S
H888 C884 0.950 . S
C889 C887 1.390 . S
C889 C890 1.387 . S
C889 H892 0.950 . S
C890 C889 1.387 . S
C890 C893 1.387 . S
H891 C887 0.950 . S
H892 C889 0.950 . S
C893 C884 1.390 . S
C893 H886 0.950 . S
C893 C890 1.387 . S
C894 C895 1.387 . S
C894 H898 0.950 . S
C894 C903 1.390 . S
C895 C894 1.387 . S
C895 C897 1.387 . S
H896 C903 0.950 . S
C897 C895 1.387 . S
C897 C899 1.390 . S
C897 H901 0.950 . S
H898 C894 0.950 . S
C899 C897 1.390 . S
C899 C900 1.387 . S
C899 H902 0.950 . S
C900 C899 1.387 . S
C900 C903 1.387 . S
H901 C897 0.950 . S
H902 C899 0.950 . S
C903 C894 1.390 . S
C903 H896 0.950 . S
C903 C900 1.387 . S
C904 C905 1.387 . S
C904 H908 0.950 . S
C904 C913 1.390 . S
C905 C904 1.387 . S
C905 C907 1.387 . S
H906 C913 0.950 . S
C907 C905 1.387 . S
C907 C909 1.390 . S
C907 H911 0.950 . S
H908 C904 0.950 . S
C909 C907 1.390 . S
C909 C910 1.387 . S
C909 H912 0.950 . S
C910 C909 1.387 . S
C910 C913 1.387 . S
H911 C907 0.950 . S
H912 C909 0.950 . S
C913 C904 1.390 . S
C913 H906 0.950 . S
C913 C910 1.387 . S
C914 C915 1.387 . S
C914 H918 0.950 . S
C914 C923 1.390 . S
C915 C914 1.387 . S
C915 C917 1.387 . S
H916 C923 0.950 . S
C917 C915 1.387 . S
C917 C919 1.390 . S
C917 H921 0.950 . S
H918 C914 0.950 . S
C919 C917 1.390 . S
C919 C920 1.387 . S
C919 H922 0.950 . S
C920 C919 1.387 . S
C920 C923 1.387 . S
H921 C917 0.950 . S
H922 C919 0.950 . S
C923 C914 1.390 . S
C923 H916 0.950 . S
C923 C920 1.387 . S
C924 C925 1.387 . S
C924 H928 0.950 . S
C924 C933 1.390 1_554 S
C925 C924 1.387 . S
C925 C927 1.387 . S
H926 C933 0.950 . S
C927 C925 1.387 . S
C927 C929 1.390 1_554 S
C927 H931 0.950 . S
H928 C924 0.950 . S
C929 C927 1.390 1_556 S
C929 C930 1.387 . S
C929 H932 0.950 . S
C930 C929 1.387 . S
C930 C933 1.387 . S
H931 C927 0.950 . S
H932 C929 0.950 . S
C933 C924 1.390 1_556 S
C933 H926 0.950 . S
C933 C930 1.387 . S
C934 C935 1.387 . S
C934 H938 0.950 . S
C934 C943 1.390 1_556 S
C935 C934 1.387 . S
C935 C937 1.387 . S
H936 C943 0.950 . S
C937 C935 1.387 . S
C937 C939 1.390 1_556 S
C937 H941 0.950 . S
H938 C934 0.950 . S
C939 C937 1.390 1_554 S
C939 C940 1.387 . S
C939 H942 0.950 . S
C940 C939 1.387 . S
C940 C943 1.387 . S
H941 C937 0.950 . S
H942 C939 0.950 . S
C943 C934 1.390 1_554 S
C943 H936 0.950 . S
C943 C940 1.387 . S
C545 C9 1.419 . S
C550 C383 1.419 . S
C555 C43 1.420 . S
C560 C349 1.420 . S
C565 C315 1.416 . S
C570 C77 1.416 . S
C575 C281 1.420 . S
C580 C111 1.420 . S
C585 C145 1.420 . S
C590 C519 1.420 . S
C595 C179 1.416 . S
C600 C485 1.416 . S
C605 C451 1.416 . S
C610 C213 1.416 . S
C615 C417 1.416 . S
C620 C247 1.416 . S
C625 C2 1.952 . S
C630 C444 1.952 . S
C635 C410 1.952 . S
C640 C36 1.952 . S
C645 C70 1.952 . S
C650 C512 1.952 . S
C655 C478 1.952 . S
C660 C104 1.952 . S
C665 C122 1.134 . S
C670 C496 1.134 . S
C675 C530 1.134 . S
C680 C88 1.134 . S
C685 C428 1.134 . S
C690 C54 1.134 . S
C695 C20 1.134 . S
C700 C462 1.134 . S
C705 C138 1.952 . S
C710 C308 1.952 . S
C715 C172 1.952 . S
C720 C274 1.952 . S
C725 C206 1.952 . S
C730 C376 1.952 . S
C735 C240 1.952 . S
C740 C342 1.952 . S
C745 C258 1.135 . S
C750 C360 1.135 . S
C755 C224 1.134 . S
C760 C394 1.134 . S
C765 C190 1.134 . S
C770 C292 1.134 . S
C775 C156 1.135 . S
C780 C326 1.135 . S
C785 C67 1.636 . S
C790 C33 1.636 . S
C795 C101 1.634 . S
C800 C135 1.634 . S
C805 C203 1.636 . S
C810 C169 1.636 . S
C815 C271 1.636 . S
C820 C237 1.636 . S
C825 C339 1.634 . S
C830 C305 1.634 . S
C835 C407 1.634 . S
C840 C373 1.634 . S
C845 C441 1.634 . S
C850 C475 1.634 . S
C855 C543 1.636 . S
C860 C509 1.636 . S
C865 C73 1.480 1_545 S
C870 C5 1.480 . S
C875 C107 1.480 . S
C880 C39 1.479 1_545 S
C885 C141 1.480 . S
C890 C209 1.480 . S
C895 C243 1.480 . S
C900 C175 1.480 . S
C905 C277 1.480 . S
C910 C345 1.479 1_545 S
C915 C379 1.480 . S
C920 C311 1.480 1_545 S
C925 C413 1.480 . S
C930 C481 1.480 . S
C935 C515 1.479 . S
C940 C447 1.479 . S
