# Generated by pormake.
# Topology crr, (4)-cn, num edge types: 1
# Building blocks:
#     Node 0, Type 0, BuildingBlock: MUDLON_clean_sbu_0, # of connection points: 4
#     Node 1, Type 0, BuildingBlock: MUDLON_clean_sbu_0, # of connection points: 4
#     Node 2, Type 0, BuildingBlock: MUDLON_clean_sbu_0, # of connection points: 4
#     Node 3, Type 0, BuildingBlock: MUDLON_clean_sbu_0, # of connection points: 4
#     Node 4, Type 0, BuildingBlock: MUDLON_clean_sbu_0, # of connection points: 4
#     Node 5, Type 0, BuildingBlock: MUDLON_clean_sbu_0, # of connection points: 4
#     Node 6, Type 0, BuildingBlock: MUDLON_clean_sbu_0, # of connection points: 4
#     Node 7, Type 0, BuildingBlock: MUDLON_clean_sbu_0, # of connection points: 4
#     Node 8, Type 0, BuildingBlock: MUDLON_clean_sbu_0, # of connection points: 4
#     Node 9, Type 0, BuildingBlock: MUDLON_clean_sbu_0, # of connection points: 4
#     Node 10, Type 0, BuildingBlock: MUDLON_clean_sbu_0, # of connection points: 4
#     Node 11, Type 0, BuildingBlock: MUDLON_clean_sbu_0, # of connection points: 4
#     Edge 12, Type (0, 0), BuildingBlock: CIFDUS_clean_linker_0, # of connection points: 2
#     Edge 13, Type (0, 0), BuildingBlock: CIFDUS_clean_linker_0, # of connection points: 2
#     Edge 14, Type (0, 0), BuildingBlock: CIFDUS_clean_linker_0, # of connection points: 2
#     Edge 15, Type (0, 0), BuildingBlock: CIFDUS_clean_linker_0, # of connection points: 2
#     Edge 16, Type (0, 0), BuildingBlock: CIFDUS_clean_linker_0, # of connection points: 2
#     Edge 17, Type (0, 0), BuildingBlock: CIFDUS_clean_linker_0, # of connection points: 2
#     Edge 18, Type (0, 0), BuildingBlock: CIFDUS_clean_linker_0, # of connection points: 2
#     Edge 19, Type (0, 0), BuildingBlock: CIFDUS_clean_linker_0, # of connection points: 2
#     Edge 20, Type (0, 0), BuildingBlock: CIFDUS_clean_linker_0, # of connection points: 2
#     Edge 21, Type (0, 0), BuildingBlock: CIFDUS_clean_linker_0, # of connection points: 2
#     Edge 22, Type (0, 0), BuildingBlock: CIFDUS_clean_linker_0, # of connection points: 2
#     Edge 23, Type (0, 0), BuildingBlock: CIFDUS_clean_linker_0, # of connection points: 2
#     Edge 24, Type (0, 0), BuildingBlock: CIFDUS_clean_linker_0, # of connection points: 2
#     Edge 25, Type (0, 0), BuildingBlock: CIFDUS_clean_linker_0, # of connection points: 2
#     Edge 26, Type (0, 0), BuildingBlock: CIFDUS_clean_linker_0, # of connection points: 2
#     Edge 27, Type (0, 0), BuildingBlock: CIFDUS_clean_linker_0, # of connection points: 2
#     Edge 28, Type (0, 0), BuildingBlock: CIFDUS_clean_linker_0, # of connection points: 2
#     Edge 29, Type (0, 0), BuildingBlock: CIFDUS_clean_linker_0, # of connection points: 2
#     Edge 30, Type (0, 0), BuildingBlock: CIFDUS_clean_linker_0, # of connection points: 2
#     Edge 31, Type (0, 0), BuildingBlock: CIFDUS_clean_linker_0, # of connection points: 2
#     Edge 32, Type (0, 0), BuildingBlock: CIFDUS_clean_linker_0, # of connection points: 2
#     Edge 33, Type (0, 0), BuildingBlock: CIFDUS_clean_linker_0, # of connection points: 2
#     Edge 34, Type (0, 0), BuildingBlock: CIFDUS_clean_linker_0, # of connection points: 2
#     Edge 35, Type (0, 0), BuildingBlock: CIFDUS_clean_linker_0, # of connection points: 2
# Relax obj value: 0.161
# Max RMSD: 0.163
# Mean RMSD: 0.146
data_MOF--net-crr--node1-MUDLON_clean_sbu_0--edge1-CIFDUS_clean_linker_0
_symmetry_space_group_name_H-M    P1
_symmetry_Int_Tables_number       1
_symmetry_cell_setting            triclinic
loop_
_symmetry_equiv_pos_as_xyz
'x, y, z'
_cell_length_a     34.5039
_cell_length_b     34.772781
_cell_length_c     34.678462
_cell_angle_alpha  89.569324
_cell_angle_beta   90.501623
_cell_angle_gamma 90.458995
loop_
_atom_site_label
_atom_site_type_symbol
_atom_site_fract_x
_atom_site_fract_y
_atom_site_fract_z
_atom_type_partial_charge
Mg0 Mg 0.05359 0.3621 0.34402 0.0
C1 C 0.12156 0.34098 0.39688 0.0
O2 O 0.09415 0.33303 0.42181 0.0
C3 C 0.04671 0.44278 0.31469 0.0
O4 O 0.07234 0.42922 0.29062 0.0
C5 C 0.08759 0.31704 0.2812 0.0
O6 O 0.10566 0.30342 0.31178 0.0
O7 O 0.0595 0.33999 0.28579 0.0
O8 O 0.11273 0.35879 0.36593 0.0
O9 O 0.01636 0.32933 0.38228 0.0
C10 C 0.0223 0.29414 0.39029 0.0
O11 O 0.04886 0.27554 0.37113 0.0
O12 O 0.03374 0.42088 0.34112 0.0
Mg13 Mg 0.37851 0.87865 0.63633 0.0
C14 C 0.41054 0.79978 0.65209 0.0
O15 O 0.4397 0.82094 0.66456 0.0
C16 C 0.33804 0.93052 0.57893 0.0
O17 O 0.31958 0.93934 0.6106 0.0
C18 C 0.30814 0.87006 0.69036 0.0
O19 O 0.28691 0.88023 0.71978 0.0
O20 O 0.33531 0.89228 0.67923 0.0
O21 O 0.38214 0.81634 0.63553 0.0
O22 O 0.43167 0.90323 0.66012 0.0
C23 C 0.42868 0.93512 0.67751 0.0
O24 O 0.39481 0.95211 0.67787 0.0
O25 O 0.36433 0.90508 0.58067 0.0
Mg26 Mg 0.93524 0.73077 0.33867 0.0
C27 C 0.89104 0.7976 0.36629 0.0
O28 O 0.92532 0.81311 0.36017 0.0
C29 C 0.95946 0.65426 0.32371 0.0
O30 O 0.98193 0.67766 0.30387 0.0
C31 C 0.91563 0.77045 0.26158 0.0
O32 O 0.91341 0.80141 0.28279 0.0
O33 O 0.93075 0.74032 0.2762 0.0
O34 O 0.88649 0.76153 0.36203 0.0
O35 O 0.98687 0.74153 0.37404 0.0
C36 C 0.97977 0.74687 0.40961 0.0
O37 O 0.94365 0.75146 0.42011 0.0
O38 O 0.93223 0.66869 0.34327 0.0
Mg39 Mg 0.66952 0.08426 0.71986 0.0
C40 C 0.65763 0.03396 0.65141 0.0
O41 O 0.66098 0.00833 0.67909 0.0
C42 C 0.61304 0.1487 0.72998 0.0
O43 O 0.58854 0.1199 0.72567 0.0
C44 C 0.63062 0.01198 0.75735 0.0
O45 O 0.66473 0.99545 0.75668 0.0
O46 O 0.62821 0.04774 0.75002 0.0
O47 O 0.66183 0.06938 0.65944 0.0
O48 O 0.73073 0.08327 0.73597 0.0
C49 C 0.75478 0.06504 0.71554 0.0
O50 O 0.74138 0.04217 0.68848 0.0
O51 O 0.6492 0.14239 0.72774 0.0
Mg52 Mg 0.14215 0.62859 0.64561 0.0
C53 C 0.10166 0.55325 0.66043 0.0
O54 O 0.07755 0.57743 0.67629 0.0
C55 C 0.21081 0.67677 0.62259 0.0
O56 O 0.18578 0.68952 0.59691 0.0
C57 C 0.11573 0.64536 0.56517 0.0
O58 O 0.14072 0.61755 0.56012 0.0
O59 O 0.10913 0.65648 0.59939 0.0
O60 O 0.13215 0.56641 0.64446 0.0
O61 O 0.13329 0.65101 0.70342 0.0
C62 C 0.14041 0.62856 0.73173 0.0
O63 O 0.14384 0.59164 0.72509 0.0
O64 O 0.20246 0.64649 0.64168 0.0
Mg65 Mg 0.64887 0.98566 0.34412 0.0
C66 C 0.71846 0.94759 0.36263 0.0
O67 O 0.69225 0.93775 0.38821 0.0
C68 C 0.61156 0.05637 0.31355 0.0
O69 O 0.62827 0.0697 0.34496 0.0
C70 C 0.60411 0.91696 0.31299 0.0
O71 O 0.59183 0.94257 0.28775 0.0
O72 O 0.62434 0.9282 0.34155 0.0
O73 O 0.70967 0.97277 0.33725 0.0
O74 O 0.64308 0.01007 0.40067 0.0
C75 C 0.62764 0.99139 0.42814 0.0
O76 O 0.61352 0.95681 0.4217 0.0
O77 O 0.61948 0.02246 0.30291 0.0
Mg78 Mg 0.94581 0.28693 0.69159 0.0
C79 C 0.01473 0.34171 0.68274 0.0
O80 O 0.0168 0.3249 0.64908 0.0
C81 C 0.93152 0.20209 0.69561 0.0
O82 O 0.92605 0.20846 0.65864 0.0
C83 C 0.96312 0.26815 0.60841 0.0
O84 O 0.98965 0.24697 0.62553 0.0
O85 O 0.93994 0.28733 0.62898 0.0
O86 O 0.99064 0.32887 0.70741 0.0
O87 O 0.89389 0.30745 0.71899 0.0
C88 C 0.8978 0.31468 0.75473 0.0
O89 O 0.9325 0.31264 0.7705 0.0
O90 O 0.94586 0.22895 0.71613 0.0
Mg91 Mg 0.31472 0.11865 0.3373 0.0
C92 C 0.26197 0.1226 0.26693 0.0
O93 O 0.239 0.13891 0.29191 0.0
C94 C 0.33333 0.04358 0.37758 0.0
O95 O 0.36022 0.04365 0.35098 0.0
C96 C 0.26943 0.16925 0.39202 0.0
O97 O 0.27135 0.13842 0.41408 0.0
O98 O 0.28553 0.16899 0.35919 0.0
O99 O 0.29383 0.10854 0.27886 0.0
O100 O 0.37628 0.13076 0.3334 0.0
C101 C 0.39494 0.12068 0.30372 0.0
O102 O 0.37606 0.10453 0.27496 0.0
O103 O 0.30851 0.07046 0.3774 0.0
Mg104 Mg 0.28898 0.28584 0.04521 0.0
C105 C 0.37311 0.28313 0.02837 0.0
O106 O 0.3582 0.26604 0.99792 0.0
C107 C 0.22195 0.30182 0.09637 0.0
O108 O 0.20416 0.28341 0.06831 0.0
C109 C 0.25535 0.34478 0.98831 0.0
O110 O 0.22944 0.34944 0.01536 0.0
O111 O 0.27977 0.31776 0.99172 0.0
O112 O 0.35064 0.29368 0.05507 0.0
O113 O 0.27233 0.22553 0.05053 0.0
C114 C 0.29761 0.20051 0.05948 0.0
O115 O 0.33422 0.20841 0.05288 0.0
O116 O 0.25784 0.30983 0.09316 0.0
Mg117 Mg 0.37533 0.60758 0.87978 0.0
C118 C 0.2906 0.626 0.89677 0.0
O119 O 0.29558 0.60083 0.9248 0.0
C120 C 0.42815 0.6622 0.92559 0.0
O121 O 0.41292 0.68833 0.90262 0.0
C122 C 0.38316 0.62718 0.79505 0.0
O123 O 0.34603 0.61846 0.79512 0.0
O124 O 0.40294 0.62196 0.82571 0.0
O125 O 0.3198 0.63673 0.87724 0.0
O126 O 0.36522 0.54594 0.8879 0.0
C127 C 0.33381 0.52937 0.87752 0.0
O128 O 0.30748 0.54909 0.85849 0.0
O129 O 0.41594 0.62761 0.92374 0.0
Mg130 Mg 0.66045 0.7045 0.11114 0.0
C131 C 0.60154 0.74239 0.05674 0.0
O132 O 0.59466 0.76442 0.08645 0.0
C133 C 0.74715 0.69948 0.12367 0.0
O134 O 0.73844 0.66312 0.1181 0.0
C135 C 0.66873 0.63188 0.07335 0.0
O136 O 0.67955 0.65841 0.0484 0.0
O137 O 0.65923 0.64229 0.10704 0.0
O138 O 0.63046 0.71994 0.05782 0.0
O139 O 0.62505 0.72766 0.15641 0.0
C140 C 0.6373 0.73266 0.19064 0.0
O141 O 0.6714 0.71907 0.20064 0.0
O142 O 0.7204 0.72436 0.12017 0.0
Mg143 Mg 0.64962 0.3624 0.91512 0.0
C144 C 0.73742 0.35903 0.91173 0.0
O145 O 0.73539 0.39252 0.9288 0.0
C146 C 0.58542 0.34408 0.97053 0.0
O147 O 0.58591 0.38175 0.97282 0.0
C148 C 0.59949 0.33786 0.84812 0.0
O149 O 0.57518 0.32919 0.87587 0.0
O150 O 0.62918 0.35819 0.85616 0.0
O151 O 0.70682 0.33892 0.90732 0.0
O152 O 0.65342 0.42102 0.9351 0.0
C153 C 0.66137 0.4279 0.97027 0.0
O154 O 0.66718 0.39902 0.99423 0.0
O155 O 0.61069 0.32757 0.9501 0.0
H156 H 0.14203 0.28419 0.44742 0.0
H157 H 0.18305 0.3475 0.34803 0.0
H158 H 0.23502 0.30129 0.33984 0.0
H159 H 0.26335 0.23858 0.35565 0.0
H160 H 0.22129 0.17429 0.45392 0.0
H161 H 0.17543 0.22533 0.46784 0.0
C162 C 0.16289 0.28849 0.42454 0.0
C163 C 0.15825 0.31908 0.39812 0.0
C164 C 0.1922 0.26123 0.41937 0.0
C165 C 0.1857 0.32413 0.36869 0.0
C166 C 0.21533 0.29753 0.36379 0.0
C167 C 0.24449 0.23591 0.3804 0.0
C168 C 0.24536 0.20235 0.40332 0.0
C169 C 0.21794 0.26522 0.38807 0.0
C170 C 0.22105 0.19964 0.43558 0.0
C171 C 0.19475 0.22882 0.44356 0.0
H172 H 0.2956 0.80045 0.72311 0.0
H173 H 0.30025 0.85892 0.6133 0.0
H174 H 0.27513 0.80138 0.58104 0.0
H175 H 0.24419 0.73744 0.58563 0.0
H176 H 0.24158 0.67828 0.69545 0.0
H177 H 0.27427 0.73263 0.72604 0.0
C178 C 0.29166 0.80022 0.69204 0.0
C179 C 0.29941 0.83371 0.6705 0.0
C180 C 0.27738 0.76703 0.6738 0.0
C181 C 0.29459 0.83329 0.6303 0.0
C182 C 0.28004 0.80049 0.61194 0.0
C183 C 0.25168 0.73608 0.61606 0.0
C184 C 0.23993 0.70411 0.63827 0.0
C185 C 0.27029 0.76758 0.63357 0.0
C186 C 0.25015 0.70255 0.67762 0.0
C187 C 0.26848 0.73384 0.69529 0.0
H188 H 0.73188 0.87835 0.39477 0.0
H189 H 0.78667 0.96795 0.32735 0.0
H190 H 0.84636 0.93015 0.32512 0.0
H191 H 0.88176 0.87062 0.34067 0.0
H192 H 0.82437 0.7795 0.40376 0.0
H193 H 0.76658 0.81925 0.4097 0.0
C194 C 0.75697 0.88987 0.37985 0.0
C195 C 0.75506 0.92602 0.36148 0.0
C196 C 0.79054 0.86771 0.37798 0.0
C197 C 0.78754 0.9402 0.3417 0.0
C198 C 0.82159 0.91863 0.34049 0.0
C199 C 0.85674 0.85972 0.35615 0.0
C200 C 0.85727 0.8224 0.37213 0.0
C201 C 0.82329 0.88226 0.35836 0.0
C202 C 0.82451 0.8082 0.39137 0.0
C203 C 0.79155 0.83086 0.3947 0.0
H204 H 0.91412 0.13284 0.66491 0.0
H205 H 0.89673 0.20165 0.76612 0.0
H206 H 0.84258 0.16023 0.78523 0.0
H207 H 0.79262 0.11284 0.7659 0.0
H208 H 0.81012 0.0447 0.66401 0.0
H209 H 0.87196 0.07692 0.65295 0.0
C210 C 0.89928 0.13795 0.69183 0.0
C211 C 0.90902 0.17052 0.71373 0.0
C212 C 0.86764 0.11454 0.70217 0.0
C213 C 0.88985 0.17671 0.74873 0.0
C214 C 0.85852 0.15329 0.75944 0.0
C215 C 0.8104 0.10436 0.74182 0.0
C216 C 0.79615 0.07712 0.71525 0.0
C217 C 0.84591 0.12339 0.73528 0.0
C218 C 0.81996 0.06597 0.68463 0.0
C219 C 0.85536 0.08452 0.67814 0.0
H220 H 0.23341 0.19639 0.10463 0.0
H221 H 0.34168 0.13963 0.0825 0.0
H222 H 0.33649 0.10455 0.14349 0.0
H223 H 0.30788 0.09982 0.20787 0.0
H224 H 0.20182 0.15999 0.23153 0.0
H225 H 0.19931 0.18347 0.16512 0.0
C226 C 0.25529 0.17545 0.11249 0.0
C227 C 0.28827 0.17116 0.08928 0.0
C228 C 0.25292 0.15652 0.14835 0.0
C229 C 0.31623 0.14381 0.1 0.0
C230 C 0.31342 0.12392 0.13505 0.0
C231 C 0.2837 0.11733 0.19832 0.0
C232 C 0.25554 0.12878 0.22496 0.0
C233 C 0.28295 0.1316 0.1603 0.0
C234 C 0.22419 0.15109 0.21185 0.0
C235 C 0.22277 0.16468 0.17384 0.0
H236 H 0.26772 0.68185 0.8462 0.0
H237 H 0.22605 0.58159 0.9077 0.0
H238 H 0.16964 0.57812 0.86509 0.0
H239 H 0.14039 0.59514 0.80238 0.0
H240 H 0.18184 0.69516 0.74063 0.0
H241 H 0.22946 0.70763 0.79159 0.0
C242 C 0.24566 0.65997 0.851 0.0
C243 C 0.25157 0.63153 0.87953 0.0
C244 C 0.21346 0.65778 0.82597 0.0
C245 C 0.22246 0.60371 0.88582 0.0
C246 C 0.19026 0.60148 0.86121 0.0
C247 C 0.15891 0.62046 0.80084 0.0
C248 C 0.1581 0.64376 0.76753 0.0
C249 C 0.18662 0.6271 0.82998 0.0
C250 C 0.18193 0.67671 0.76593 0.0
C251 C 0.2095 0.68362 0.79492 0.0
H252 H 0.65645 0.75334 0.26408 0.0
H253 H 0.57402 0.77613 0.17248 0.0
H254 H 0.55165 0.8329 0.20608 0.0
H255 H 0.56337 0.88181 0.25558 0.0
H256 H 0.64619 0.85942 0.3469 0.0
H257 H 0.65977 0.79661 0.31974 0.0
C258 C 0.63302 0.77023 0.25186 0.0
C259 C 0.61771 0.761 0.21535 0.0
C260 C 0.62054 0.80326 0.27111 0.0
C261 C 0.58683 0.78284 0.20028 0.0
C262 C 0.57405 0.81548 0.21941 0.0
C263 C 0.58371 0.86282 0.27005 0.0
C264 C 0.60432 0.87572 0.30267 0.0
C265 C 0.59191 0.8269 0.25395 0.0
C266 C 0.63012 0.85047 0.32149 0.0
C267 C 0.63815 0.81455 0.30583 0.0
H268 H 0.73895 0.32415 0.84253 0.0
H269 H 0.81302 0.37515 0.92927 0.0
H270 H 0.86954 0.36572 0.88813 0.0
H271 H 0.89725 0.34481 0.82667 0.0
H272 H 0.82195 0.29834 0.73823 0.0
H273 H 0.76628 0.30473 0.78072 0.0
C274 C 0.76759 0.3326 0.8527 0.0
C275 C 0.77206 0.3497 0.88913 0.0
C276 C 0.79949 0.32852 0.82833 0.0
C277 C 0.80907 0.36156 0.90149 0.0
C278 C 0.84126 0.35638 0.87791 0.0
C279 C 0.86863 0.33617 0.81666 0.0
C280 C 0.86373 0.32115 0.77934 0.0
C281 C 0.83671 0.3403 0.84109 0.0
C282 C 0.82645 0.31029 0.76669 0.0
C283 C 0.79466 0.31367 0.79107 0.0
H284 H 0.45902 0.76028 0.69984 0.0
H285 H 0.35246 0.74842 0.63489 0.0
H286 H 0.33701 0.6892 0.67011 0.0
H287 H 0.34819 0.64814 0.72728 0.0
H288 H 0.45487 0.66081 0.79222 0.0
H289 H 0.47583 0.71213 0.74887 0.0
C290 C 0.43275 0.74441 0.6928 0.0
C291 C 0.40624 0.75951 0.66574 0.0
C292 C 0.42367 0.71087 0.7137 0.0
C293 C 0.37279 0.73804 0.65642 0.0
C294 C 0.36387 0.70423 0.67665 0.0
C295 C 0.37641 0.66151 0.73146 0.0
C296 C 0.39946 0.6512 0.76355 0.0
C297 C 0.38816 0.6915 0.70669 0.0
C298 C 0.43622 0.66846 0.76812 0.0
C299 C 0.44823 0.69799 0.7434 0.0
H300 H 0.7729 0.76997 0.14844 0.0
H301 H 0.80849 0.65198 0.13599 0.0
H302 H 0.86737 0.66513 0.17288 0.0
H303 H 0.90423 0.70749 0.21614 0.0
H304 H 0.86848 0.82527 0.22975 0.0
H305 H 0.81508 0.81499 0.18439 0.0
C306 C 0.79387 0.74731 0.15317 0.0
C307 C 0.78578 0.70987 0.13998 0.0
C308 C 0.82773 0.75493 0.1749 0.0
C309 C 0.81356 0.68098 0.14616 0.0
C310 C 0.84735 0.68843 0.16735 0.0
C311 C 0.88534 0.73121 0.20856 0.0
C312 C 0.89011 0.76689 0.22698 0.0
C313 C 0.85409 0.72493 0.183 0.0
C314 C 0.86544 0.79734 0.21638 0.0
C315 C 0.83463 0.79144 0.19056 0.0
H316 H 0.65201 0.21688 0.72883 0.0
H317 H 0.5432 0.16493 0.76206 0.0
H318 H 0.52567 0.22328 0.79621 0.0
H319 H 0.54623 0.28424 0.8255 0.0
H320 H 0.65557 0.33572 0.79285 0.0
H321 H 0.66724 0.28298 0.74878 0.0
C322 C 0.62416 0.21861 0.74297 0.0
C323 C 0.59937 0.18635 0.74369 0.0
C324 C 0.61437 0.25214 0.76281 0.0
C325 C 0.56303 0.18923 0.76141 0.0
C326 C 0.55301 0.22257 0.78108 0.0
C327 C 0.57213 0.28451 0.80799 0.0
C328 C 0.60041 0.3134 0.81333 0.0
C329 C 0.57917 0.25357 0.78329 0.0
C330 C 0.63348 0.31361 0.78983 0.0
C331 C 0.64039 0.28324 0.76477 0.0
H332 H 0.14427 0.30614 0.1088 0.0
H333 H 0.25524 0.30936 0.16723 0.0
H334 H 0.22301 0.31211 0.22942 0.0
H335 H 0.16374 0.31258 0.26726 0.0
H336 H 0.05235 0.31473 0.21002 0.0
H337 H 0.08424 0.3106 0.14711 0.0
C338 C 0.16132 0.30774 0.13518 0.0
C339 C 0.20207 0.30753 0.13342 0.0
C340 C 0.14255 0.30987 0.17093 0.0
C341 C 0.22386 0.30983 0.16775 0.0
C342 C 0.20546 0.31111 0.20335 0.0
C343 C 0.14639 0.31177 0.24101 0.0
C344 C 0.10577 0.3132 0.24312 0.0
C345 C 0.1649 0.31082 0.20527 0.0
C346 C 0.08367 0.31326 0.20895 0.0
C347 C 0.1019 0.31103 0.1731 0.0
H348 H 1.00163 0.22514 0.55636 0.0
H349 H 0.92503 0.32217 0.56517 0.0
H350 H 0.93258 0.33569 0.49646 0.0
H351 H 0.96689 0.32452 0.43597 0.0
H352 H 0.04437 0.22813 0.42742 0.0
H353 H 0.02983 0.20937 0.4937 0.0
C354 C 0.98623 0.24898 0.54316 0.0
C355 C 0.96332 0.27297 0.56599 0.0
C356 C 0.9909 0.25677 0.50368 0.0
C357 C 0.94306 0.30338 0.54833 0.0
C358 C 0.94744 0.31121 0.50904 0.0
C359 C 0.98008 0.29899 0.44834 0.0
C360 C 0.00712 0.27812 0.4269 0.0
C361 C 0.97216 0.28876 0.48671 0.0
C362 C 0.02358 0.24486 0.44326 0.0
C363 C 0.0155 0.23424 0.4813 0.0
H364 H 0.28956 0.04215 0.44268 0.0
H365 H 0.38199 0.98241 0.38597 0.0
H366 H 0.39031 0.94075 0.44235 0.0
H367 H 0.37426 0.92397 0.50948 0.0
H368 H 0.28268 0.98484 0.5664 0.0
H369 H 0.27116 0.02307 0.50831 0.0
C370 C 0.31123 0.01973 0.44242 0.0
C371 C 0.33522 0.01563 0.41012 0.0
C372 C 0.31628 0.99617 0.47519 0.0
C373 C 0.36318 0.98639 0.41043 0.0
C374 C 0.36805 0.96255 0.44274 0.0
C375 C 0.35159 0.94539 0.5091 0.0
C376 C 0.32961 0.95163 0.54246 0.0
C377 C 0.34525 0.96763 0.47558 0.0
C378 C 0.30026 0.97949 0.54131 0.0
C379 C 0.2936 0.00144 0.50804 0.0
H380 H 0.06628 0.70634 0.56435 0.0
H381 H 0.12253 0.6258 0.4895 0.0
H382 H 0.08965 0.65389 0.43365 0.0
H383 H 0.04079 0.69788 0.40649 0.0
H384 H 0.98255 0.77647 0.48167 0.0
H385 H 0.02089 0.75334 0.53655 0.0
C386 C 0.07149 0.69504 0.53582 0.0
C387 C 0.09655 0.6637 0.53131 0.0
C388 C 0.05231 0.71124 0.50368 0.0
C389 C 0.10318 0.64969 0.49399 0.0
C390 C 0.08445 0.66582 0.46191 0.0
C391 C 0.03731 0.71066 0.43468 0.0
C392 C 0.00904 0.73898 0.44 0.0
C393 C 0.05852 0.69624 0.46643 0.0
C394 C 0.00426 0.75472 0.47686 0.0
C395 C 0.02595 0.74129 0.50832 0.0
H396 H 0.65916 0.07657 0.58515 0.0
H397 H 0.63469 0.96254 0.62926 0.0
H398 H 0.62028 0.94015 0.56435 0.0
H399 H 0.61739 0.95195 0.49488 0.0
H400 H 0.64415 0.06503 0.44988 0.0
H401 H 0.65443 0.08885 0.5153 0.0
C402 C 0.65054 0.04689 0.58052 0.0
C403 C 0.64831 0.02124 0.61192 0.0
C404 C 0.64261 0.034 0.54298 0.0
C405 C 0.63705 0.98284 0.60553 0.0
C406 C 0.62865 0.96997 0.56842 0.0
C407 C 0.62502 0.98191 0.49939 0.0
C408 C 0.63008 0.00664 0.46765 0.0
C409 C 0.63169 0.99519 0.53692 0.0
C410 C 0.64024 0.04535 0.47392 0.0
C411 C 0.6462 0.05899 0.51129 0.0
H412 H 0.44341 0.086 0.25361 0.0
H413 H 0.44278 0.15689 0.35528 0.0
H414 H 0.51267 0.14906 0.36267 0.0
H415 H 0.57139 0.11417 0.34621 0.0
H416 H 0.57094 0.03889 0.24779 0.0
H417 H 0.5043 0.0572 0.23258 0.0
C418 C 0.45864 0.10034 0.27698 0.0
C419 C 0.4378 0.12146 0.30424 0.0
C420 C 0.49865 0.09478 0.28174 0.0
C421 C 0.45805 0.14004 0.33421 0.0
C422 C 0.49803 0.13556 0.33847 0.0
C423 C 0.55712 0.10246 0.32084 0.0
C424 C 0.57593 0.07475 0.2985 0.0
C425 C 0.51832 0.11181 0.31327 0.0
C426 C 0.55698 0.06001 0.26567 0.0
C427 C 0.51878 0.07028 0.25711 0.0
H428 H 0.05799 0.51509 0.71297 0.0
H429 H 0.12721 0.49756 0.61176 0.0
H430 H 0.10918 0.42928 0.61176 0.0
H431 H 0.06968 0.37588 0.63774 0.0
H432 H 1.00182 0.39356 0.74004 0.0
H433 H 0.02403 0.46026 0.7428 0.0
C434 C 0.06926 0.49628 0.691 0.0
C435 C 0.0934 0.51143 0.66204 0.0
C436 C 0.05913 0.45707 0.69146 0.0
C437 C 0.10843 0.48659 0.63423 0.0
C438 C 0.09808 0.44759 0.63421 0.0
C439 C 0.06018 0.39414 0.66099 0.0
C440 C 0.03375 0.37973 0.68838 0.0
C441 C 0.0729 0.43265 0.66231 0.0
C442 C 0.02207 0.40378 0.71851 0.0
C443 C 0.03456 0.44207 0.71998 0.0
H444 H 0.55659 0.0372 0.75832 0.0
H445 H 0.62415 0.93464 0.7428 0.0
H446 H 0.5669 0.901 0.71767 0.0
H447 H 0.49934 0.90316 0.69339 0.0
H448 H 0.43323 0.00695 0.70768 0.0
H449 H 0.4884 0.03771 0.73939 0.0
C450 C 0.55872 0.00724 0.75016 0.0
C451 C 0.59478 0.98866 0.75213 0.0
C452 C 0.52609 0.98851 0.73461 0.0
C453 C 0.59681 0.94971 0.74172 0.0
C454 C 0.56415 0.93056 0.72687 0.0
C455 C 0.49701 0.93247 0.70353 0.0
C456 C 0.46231 0.95286 0.69765 0.0
C457 C 0.52896 0.95011 0.72194 0.0
C458 C 0.45961 0.99063 0.7115 0.0
C459 C 0.49114 0.00827 0.72978 0.0
H460 H 0.01164 0.61711 0.28042 0.0
H461 H 0.92764 0.59817 0.37022 0.0
H462 H 0.94694 0.53062 0.37508 0.0
H463 H 0.98956 0.47774 0.35525 0.0
H464 H 0.07337 0.49802 0.26539 0.0
H465 H 0.05226 0.56448 0.25932 0.0
C466 C 0.99734 0.59825 0.301 0.0
C467 C 0.96835 0.61271 0.32506 0.0
C468 C 0.00875 0.55977 0.3038 0.0
C469 C 0.95001 0.58774 0.35133 0.0
C470 C 0.96116 0.54918 0.35423 0.0
C471 C 1.00318 0.4967 0.33433 0.0
C472 C 0.03318 0.48292 0.31095 0.0
C473 C 0.99082 0.53501 0.33087 0.0
C474 C 0.05032 0.50781 0.28381 0.0
C475 C 0.03826 0.54586 0.28028 0.0
H476 H 0.32389 0.36608 0.95673 0.0
H477 H 0.20253 0.39476 0.9578 0.0
H478 H 0.21577 0.45264 0.9193 0.0
H479 H 0.26278 0.49836 0.89131 0.0
H480 H 0.38482 0.47266 0.89649 0.0
H481 H 0.37046 0.41029 0.92641 0.0
C482 C 0.30019 0.38453 0.9478 0.0
C483 C 0.2622 0.37603 0.95987 0.0
C484 C 0.30829 0.41856 0.92718 0.0
C485 C 0.23196 0.40065 0.94875 0.0
C486 C 0.23957 0.43382 0.9269 0.0
C487 C 0.28616 0.47879 0.89837 0.0
C488 C 0.32482 0.49004 0.89163 0.0
C489 C 0.27776 0.44358 0.91683 0.0
C490 C 0.35486 0.46467 0.90149 0.0
C491 C 0.34665 0.42903 0.91861 0.0
H492 H 0.45211 0.73306 0.95033 0.0
H493 H 0.48129 0.61261 0.95542 0.0
H494 H 0.53955 0.62762 0.99276 0.0
H495 H 0.58152 0.67436 0.02526 0.0
H496 H 0.55012 0.79408 0.02621 0.0
H497 H 0.4938 0.78015 0.98472 0.0
C498 C 0.47122 0.71014 0.95969 0.0
C499 C 0.46227 0.67176 0.95009 0.0
C500 C 0.50449 0.7189 0.98188 0.0
C501 C 0.48723 0.64235 0.96263 0.0
C502 C 0.52074 0.65091 0.98381 0.0
C503 C 0.56274 0.69755 0.01581 0.0
C504 C 0.57031 0.73534 0.02811 0.0
C505 C 0.52964 0.68903 0.99358 0.0
C506 C 0.54508 0.76486 0.01666 0.0
C507 C 0.5128 0.75684 0.99318 0.0
H508 H 0.66017 0.45277 0.04454 0.0
H509 H 0.66706 0.49289 0.9266 0.0
H510 H 0.67032 0.55924 0.94854 0.0
H511 H 0.671 0.60567 1.00063 0.0
H512 H 0.66198 0.56713 0.11881 0.0
H513 H 0.65965 0.50011 0.0973 0.0
C514 C 0.66252 0.47606 0.02369 0.0
C515 C 0.66349 0.46793 0.984 0.0
C516 C 0.66392 0.51429 0.03649 0.0
C517 C 0.66616 0.49837 0.95729 0.0
C518 C 0.66808 0.53632 0.96979 0.0
C519 C 0.66868 0.58266 0.02181 0.0
C520 C 0.66693 0.59129 0.06127 0.0
C521 C 0.66696 0.54456 0.00925 0.0
C522 C 0.6634 0.56116 0.08825 0.0
C523 C 0.66213 0.5229 0.07596 0.0
H524 H 0.43117 0.2498 0.98897 0.0
H525 H 0.4078 0.34113 0.06881 0.0
H526 H 0.47383 0.36582 0.06122 0.0
H527 H 0.53524 0.3659 0.02577 0.0
H528 H 0.55887 0.27395 0.94667 0.0
H529 H 0.49595 0.24467 0.96061 0.0
C530 C 0.44075 0.27479 0.00512 0.0
C531 C 0.41455 0.294 0.02891 0.0
C532 C 0.4787 0.28879 1.00061 0.0
C533 C 0.42743 0.32593 0.05019 0.0
C534 C 0.46511 0.34017 0.04572 0.0
C535 C 0.52687 0.33908 0.01212 0.0
C536 C 0.55139 0.32243 0.98483 0.0
C537 C 0.49057 0.32251 0.0201 0.0
C538 C 0.54048 0.28741 0.96774 0.0
C539 C 0.50438 0.27077 0.97549 0.0
loop_
_geom_bond_atom_site_label_1
_geom_bond_atom_site_label_2
_geom_bond_distance
_geom_bond_site_symmetry_2
_ccdc_geom_bond_type
Mg0 O7 2.141 . S
Mg0 O8 2.048 . S
Mg0 O9 2.048 . S
Mg0 O12 2.141 . S
C1 O2 1.313 . S
C1 O8 1.195 . S
O2 C1 1.313 . S
C3 O4 1.245 1_455 S
C3 O12 1.289 . S
O4 C3 1.245 1_655 S
C5 O6 1.245 . S
C5 O7 1.289 . S
O6 C5 1.245 . S
O7 Mg0 2.141 . S
O7 C5 1.289 . S
O8 Mg0 2.048 . S
O8 C1 1.195 . S
O9 Mg0 2.048 . S
O9 C10 1.195 . S
C10 O9 1.195 . S
C10 O11 1.313 1_455 S
O11 C10 1.313 1_655 S
O12 Mg0 2.141 . S
O12 C3 1.289 . S
Mg13 O20 2.141 . S
Mg13 O21 2.048 . S
Mg13 O22 2.048 . S
Mg13 O25 2.141 . S
C14 O15 1.313 . S
C14 O21 1.195 . S
O15 C14 1.313 . S
C16 O17 1.245 1_565 S
C16 O25 1.289 . S
O17 C16 1.245 1_545 S
C18 O19 1.245 . S
C18 O20 1.289 . S
O19 C18 1.245 . S
O20 Mg13 2.141 . S
O20 C18 1.289 . S
O21 Mg13 2.048 . S
O21 C14 1.195 . S
O22 Mg13 2.048 . S
O22 C23 1.195 . S
C23 O22 1.195 . S
C23 O24 1.313 1_565 S
O24 C23 1.313 1_545 S
O25 Mg13 2.141 . S
O25 C16 1.289 . S
Mg26 O33 2.141 . S
Mg26 O34 2.048 . S
Mg26 O35 2.048 . S
Mg26 O38 2.141 . S
C27 O28 1.313 . S
C27 O34 1.195 . S
O28 C27 1.313 . S
C29 O30 1.245 1_655 S
C29 O38 1.289 . S
O30 C29 1.245 1_455 S
C31 O32 1.245 . S
C31 O33 1.289 . S
O32 C31 1.245 . S
O33 Mg26 2.141 . S
O33 C31 1.289 . S
O34 Mg26 2.048 . S
O34 C27 1.195 . S
O35 Mg26 2.048 . S
O35 C36 1.195 . S
C36 O35 1.195 . S
C36 O37 1.313 1_655 S
O37 C36 1.313 1_455 S
O38 Mg26 2.141 . S
O38 C29 1.289 . S
Mg39 O46 2.141 . S
Mg39 O47 2.048 . S
Mg39 O48 2.048 . S
Mg39 O51 2.141 . S
C40 O41 1.313 . S
C40 O47 1.195 1_565 S
O41 C40 1.313 . S
C42 O43 1.245 . S
C42 O51 1.289 . S
O43 C42 1.245 . S
C44 O45 1.245 . S
C44 O46 1.289 1_565 S
O45 C44 1.245 . S
O46 Mg39 2.141 . S
O46 C44 1.289 1_545 S
O47 Mg39 2.048 . S
O47 C40 1.195 1_545 S
O48 Mg39 2.048 . S
O48 C49 1.195 . S
C49 O48 1.195 . S
C49 O50 1.313 . S
O50 C49 1.313 . S
O51 Mg39 2.141 . S
O51 C42 1.289 . S
Mg52 O59 2.141 . S
Mg52 O60 2.048 . S
Mg52 O61 2.048 . S
Mg52 O64 2.141 . S
C53 O54 1.313 . S
C53 O60 1.195 1_655 S
O54 C53 1.313 . S
C55 O56 1.245 . S
C55 O64 1.289 . S
O56 C55 1.245 . S
C57 O58 1.245 . S
C57 O59 1.289 1_655 S
O58 C57 1.245 . S
O59 Mg52 2.141 . S
O59 C57 1.289 1_455 S
O60 Mg52 2.048 . S
O60 C53 1.195 1_455 S
O61 Mg52 2.048 . S
O61 C62 1.195 . S
C62 O61 1.195 . S
C62 O63 1.313 . S
O63 C62 1.313 . S
O64 Mg52 2.141 . S
O64 C55 1.289 . S
Mg65 O72 2.141 . S
Mg65 O73 2.048 . S
Mg65 O74 2.048 1_565 S
Mg65 O77 2.141 1_565 S
C66 O67 1.313 . S
C66 O73 1.195 . S
O67 C66 1.313 . S
C68 O69 1.245 . S
C68 O77 1.289 1_565 S
O69 C68 1.245 . S
C70 O71 1.245 . S
C70 O72 1.289 . S
O71 C70 1.245 . S
O72 Mg65 2.141 . S
O72 C70 1.289 . S
O73 Mg65 2.048 . S
O73 C66 1.195 . S
O74 Mg65 2.048 1_545 S
O74 C75 1.195 1_545 S
C75 O74 1.195 1_565 S
C75 O76 1.313 . S
O76 C75 1.313 . S
O77 Mg65 2.141 1_545 S
O77 C68 1.289 1_545 S
Mg78 O85 2.141 . S
Mg78 O86 2.048 . S
Mg78 O87 2.048 . S
Mg78 O90 2.141 . S
C79 O80 1.313 1_655 S
C79 O86 1.195 . S
O80 C79 1.313 1_455 S
C81 O82 1.245 . S
C81 O90 1.289 . S
O82 C81 1.245 . S
C83 O84 1.245 . S
C83 O85 1.289 1_455 S
O84 C83 1.245 . S
O85 Mg78 2.141 . S
O85 C83 1.289 1_655 S
O86 Mg78 2.048 . S
O86 C79 1.195 . S
O87 Mg78 2.048 . S
O87 C88 1.195 . S
C88 O87 1.195 . S
C88 O89 1.313 . S
O89 C88 1.313 . S
O90 Mg78 2.141 . S
O90 C81 1.289 . S
Mg91 O98 2.141 . S
Mg91 O99 2.048 . S
Mg91 O100 2.048 . S
Mg91 O103 2.141 . S
C92 O93 1.313 . S
C92 O99 1.195 . S
O93 C92 1.313 . S
C94 O95 1.245 1_545 S
C94 O103 1.289 . S
O95 C94 1.245 1_565 S
C96 O97 1.245 . S
C96 O98 1.289 . S
O97 C96 1.245 . S
O98 Mg91 2.141 . S
O98 C96 1.289 . S
O99 Mg91 2.048 . S
O99 C92 1.195 . S
O100 Mg91 2.048 . S
O100 C101 1.195 . S
C101 O100 1.195 . S
C101 O102 1.306 1_545 S
O102 C101 1.306 1_565 S
O103 Mg91 2.141 . S
O103 C94 1.289 . S
Mg104 O111 2.141 . S
Mg104 O112 2.048 . S
Mg104 O113 2.048 . S
Mg104 O116 2.141 . S
C105 O106 1.313 1_554 S
C105 O112 1.195 . S
O106 C105 1.313 1_556 S
C107 O108 1.245 . S
C107 O116 1.289 . S
O108 C107 1.245 . S
C109 O110 1.245 . S
C109 O111 1.289 1_556 S
O110 C109 1.245 . S
O111 Mg104 2.141 . S
O111 C109 1.289 1_554 S
O112 Mg104 2.048 . S
O112 C105 1.195 . S
O113 Mg104 2.048 . S
O113 C114 1.195 . S
C114 O113 1.195 . S
C114 O115 1.313 . S
O115 C114 1.313 . S
O116 Mg104 2.141 . S
O116 C107 1.289 . S
Mg117 O124 2.141 . S
Mg117 O125 2.048 . S
Mg117 O126 2.048 . S
Mg117 O129 2.141 . S
C118 O119 1.313 . S
C118 O125 1.195 . S
O119 C118 1.313 . S
C120 O121 1.245 1_556 S
C120 O129 1.289 . S
O121 C120 1.245 1_554 S
C122 O123 1.245 . S
C122 O124 1.289 . S
O123 C122 1.245 . S
O124 Mg117 2.141 . S
O124 C122 1.289 . S
O125 Mg117 2.048 . S
O125 C118 1.195 . S
O126 Mg117 2.048 . S
O126 C127 1.195 . S
C127 O126 1.195 . S
C127 O128 1.313 1_556 S
O128 C127 1.313 1_554 S
O129 Mg117 2.141 . S
O129 C120 1.289 . S
Mg130 O137 2.141 . S
Mg130 O138 2.048 . S
Mg130 O139 2.048 . S
Mg130 O142 2.141 . S
C131 O132 1.313 . S
C131 O138 1.195 1_556 S
O132 C131 1.313 . S
C133 O134 1.245 . S
C133 O142 1.289 . S
O134 C133 1.245 . S
C135 O136 1.245 . S
C135 O137 1.289 1_556 S
O136 C135 1.245 . S
O137 Mg130 2.141 . S
O137 C135 1.289 1_554 S
O138 Mg130 2.048 . S
O138 C131 1.195 1_554 S
O139 Mg130 2.048 . S
O139 C140 1.195 . S
C140 O139 1.195 . S
C140 O141 1.313 . S
O141 C140 1.313 . S
O142 Mg130 2.141 . S
O142 C133 1.289 . S
Mg143 O150 2.141 . S
Mg143 O151 2.048 . S
Mg143 O152 2.048 . S
Mg143 O155 2.141 . S
C144 O145 1.313 . S
C144 O151 1.195 . S
O145 C144 1.313 . S
C146 O147 1.245 1_556 S
C146 O155 1.289 . S
O147 C146 1.245 1_554 S
C148 O149 1.245 . S
C148 O150 1.289 . S
O149 C148 1.245 . S
O150 Mg143 2.141 . S
O150 C148 1.289 . S
O151 Mg143 2.048 . S
O151 C144 1.195 . S
O152 Mg143 2.048 . S
O152 C153 1.195 . S
C153 O152 1.195 . S
C153 O154 1.313 1_556 S
O154 C153 1.313 1_554 S
O155 Mg143 2.141 . S
O155 C146 1.289 . S
H156 C162 0.930 . S
H157 C165 0.930 . S
H158 C166 0.930 . S
H159 C167 0.930 . S
H160 C170 0.930 . S
H161 C171 0.930 . S
C162 H156 0.930 . S
C162 C163 1.355 . S
C162 C164 1.415 . S
C163 C162 1.355 . S
C163 C165 1.419 . S
C164 C162 1.415 . S
C164 C169 1.425 . S
C164 C171 1.409 . S
C165 H157 0.930 . S
C165 C163 1.419 . S
C165 C166 1.362 . S
C166 H158 0.930 . S
C166 C165 1.362 . S
C166 C169 1.409 . S
C167 H159 0.930 . S
C167 C168 1.355 . S
C167 C169 1.415 . S
C168 C167 1.355 . S
C168 C170 1.419 . S
C169 C164 1.425 . S
C169 C166 1.409 . S
C169 C167 1.415 . S
C170 H160 0.930 . S
C170 C168 1.419 . S
C170 C171 1.362 . S
C171 H161 0.930 . S
C171 C164 1.409 . S
C171 C170 1.362 . S
H172 C178 0.930 . S
H173 C181 0.930 . S
H174 C182 0.930 . S
H175 C183 0.930 . S
H176 C186 0.930 . S
H177 C187 0.930 . S
C178 H172 0.930 . S
C178 C179 1.355 . S
C178 C180 1.415 . S
C179 C178 1.355 . S
C179 C181 1.419 . S
C180 C178 1.415 . S
C180 C185 1.425 . S
C180 C187 1.409 . S
C181 H173 0.930 . S
C181 C179 1.419 . S
C181 C182 1.362 . S
C182 H174 0.930 . S
C182 C181 1.362 . S
C182 C185 1.409 . S
C183 H175 0.930 . S
C183 C184 1.355 . S
C183 C185 1.415 . S
C184 C183 1.355 . S
C184 C186 1.419 . S
C185 C180 1.425 . S
C185 C182 1.409 . S
C185 C183 1.415 . S
C186 H176 0.930 . S
C186 C184 1.419 . S
C186 C187 1.362 . S
C187 H177 0.930 . S
C187 C180 1.409 . S
C187 C186 1.362 . S
H188 C194 0.930 . S
H189 C197 0.930 . S
H190 C198 0.930 . S
H191 C199 0.930 . S
H192 C202 0.930 . S
H193 C203 0.930 . S
C194 H188 0.930 . S
C194 C195 1.355 . S
C194 C196 1.415 . S
C195 C194 1.355 . S
C195 C197 1.419 . S
C196 C194 1.415 . S
C196 C201 1.425 . S
C196 C203 1.409 . S
C197 H189 0.930 . S
C197 C195 1.419 . S
C197 C198 1.362 . S
C198 H190 0.930 . S
C198 C197 1.362 . S
C198 C201 1.409 . S
C199 H191 0.930 . S
C199 C200 1.355 . S
C199 C201 1.415 . S
C200 C199 1.355 . S
C200 C202 1.419 . S
C201 C196 1.425 . S
C201 C198 1.409 . S
C201 C199 1.415 . S
C202 H192 0.930 . S
C202 C200 1.419 . S
C202 C203 1.362 . S
C203 H193 0.930 . S
C203 C196 1.409 . S
C203 C202 1.362 . S
H204 C210 0.930 . S
H205 C213 0.930 . S
H206 C214 0.930 . S
H207 C215 0.930 . S
H208 C218 0.930 . S
H209 C219 0.930 . S
C210 H204 0.930 . S
C210 C211 1.355 . S
C210 C212 1.415 . S
C211 C210 1.355 . S
C211 C213 1.419 . S
C212 C210 1.415 . S
C212 C217 1.425 . S
C212 C219 1.409 . S
C213 H205 0.930 . S
C213 C211 1.419 . S
C213 C214 1.362 . S
C214 H206 0.930 . S
C214 C213 1.362 . S
C214 C217 1.409 . S
C215 H207 0.930 . S
C215 C216 1.355 . S
C215 C217 1.415 . S
C216 C215 1.355 . S
C216 C218 1.419 . S
C217 C212 1.425 . S
C217 C214 1.409 . S
C217 C215 1.415 . S
C218 H208 0.930 . S
C218 C216 1.419 . S
C218 C219 1.362 . S
C219 H209 0.930 . S
C219 C212 1.409 . S
C219 C218 1.362 . S
H220 C226 0.930 . S
H221 C229 0.930 . S
H222 C230 0.930 . S
H223 C231 0.930 . S
H224 C234 0.930 . S
H225 C235 0.930 . S
C226 H220 0.930 . S
C226 C227 1.355 . S
C226 C228 1.415 . S
C227 C226 1.355 . S
C227 C229 1.419 . S
C228 C226 1.415 . S
C228 C233 1.425 . S
C228 C235 1.409 . S
C229 H221 0.930 . S
C229 C227 1.419 . S
C229 C230 1.362 . S
C230 H222 0.930 . S
C230 C229 1.362 . S
C230 C233 1.409 . S
C231 H223 0.930 . S
C231 C232 1.355 . S
C231 C233 1.415 . S
C232 C231 1.355 . S
C232 C234 1.419 . S
C233 C228 1.425 . S
C233 C230 1.409 . S
C233 C231 1.415 . S
C234 H224 0.930 . S
C234 C232 1.419 . S
C234 C235 1.362 . S
C235 H225 0.930 . S
C235 C228 1.409 . S
C235 C234 1.362 . S
H236 C242 0.930 . S
H237 C245 0.930 . S
H238 C246 0.930 . S
H239 C247 0.930 . S
H240 C250 0.930 . S
H241 C251 0.930 . S
C242 H236 0.930 . S
C242 C243 1.355 . S
C242 C244 1.415 . S
C243 C242 1.355 . S
C243 C245 1.419 . S
C244 C242 1.415 . S
C244 C249 1.425 . S
C244 C251 1.409 . S
C245 H237 0.930 . S
C245 C243 1.419 . S
C245 C246 1.362 . S
C246 H238 0.930 . S
C246 C245 1.362 . S
C246 C249 1.409 . S
C247 H239 0.930 . S
C247 C248 1.355 . S
C247 C249 1.415 . S
C248 C247 1.355 . S
C248 C250 1.419 . S
C249 C244 1.425 . S
C249 C246 1.409 . S
C249 C247 1.415 . S
C250 H240 0.930 . S
C250 C248 1.419 . S
C250 C251 1.362 . S
C251 H241 0.930 . S
C251 C244 1.409 . S
C251 C250 1.362 . S
H252 C258 0.930 . S
H253 C261 0.930 . S
H254 C262 0.930 . S
H255 C263 0.930 . S
H256 C266 0.930 . S
H257 C267 0.930 . S
C258 H252 0.930 . S
C258 C259 1.355 . S
C258 C260 1.415 . S
C259 C258 1.355 . S
C259 C261 1.419 . S
C260 C258 1.415 . S
C260 C265 1.425 . S
C260 C267 1.409 . S
C261 H253 0.930 . S
C261 C259 1.419 . S
C261 C262 1.362 . S
C262 H254 0.930 . S
C262 C261 1.362 . S
C262 C265 1.409 . S
C263 H255 0.930 . S
C263 C264 1.355 . S
C263 C265 1.415 . S
C264 C263 1.355 . S
C264 C266 1.419 . S
C265 C260 1.425 . S
C265 C262 1.409 . S
C265 C263 1.415 . S
C266 H256 0.930 . S
C266 C264 1.419 . S
C266 C267 1.362 . S
C267 H257 0.930 . S
C267 C260 1.409 . S
C267 C266 1.362 . S
H268 C274 0.930 . S
H269 C277 0.930 . S
H270 C278 0.930 . S
H271 C279 0.930 . S
H272 C282 0.930 . S
H273 C283 0.930 . S
C274 H268 0.930 . S
C274 C275 1.355 . S
C274 C276 1.415 . S
C275 C274 1.355 . S
C275 C277 1.419 . S
C276 C274 1.415 . S
C276 C281 1.425 . S
C276 C283 1.409 . S
C277 H269 0.930 . S
C277 C275 1.419 . S
C277 C278 1.362 . S
C278 H270 0.930 . S
C278 C277 1.362 . S
C278 C281 1.409 . S
C279 H271 0.930 . S
C279 C280 1.355 . S
C279 C281 1.415 . S
C280 C279 1.355 . S
C280 C282 1.419 . S
C281 C276 1.425 . S
C281 C278 1.409 . S
C281 C279 1.415 . S
C282 H272 0.930 . S
C282 C280 1.419 . S
C282 C283 1.362 . S
C283 H273 0.930 . S
C283 C276 1.409 . S
C283 C282 1.362 . S
H284 C290 0.930 . S
H285 C293 0.930 . S
H286 C294 0.930 . S
H287 C295 0.930 . S
H288 C298 0.930 . S
H289 C299 0.930 . S
C290 H284 0.930 . S
C290 C291 1.355 . S
C290 C292 1.415 . S
C291 C290 1.355 . S
C291 C293 1.419 . S
C292 C290 1.415 . S
C292 C297 1.425 . S
C292 C299 1.409 . S
C293 H285 0.930 . S
C293 C291 1.419 . S
C293 C294 1.362 . S
C294 H286 0.930 . S
C294 C293 1.362 . S
C294 C297 1.409 . S
C295 H287 0.930 . S
C295 C296 1.355 . S
C295 C297 1.415 . S
C296 C295 1.355 . S
C296 C298 1.419 . S
C297 C292 1.425 . S
C297 C294 1.409 . S
C297 C295 1.415 . S
C298 H288 0.930 . S
C298 C296 1.419 . S
C298 C299 1.362 . S
C299 H289 0.930 . S
C299 C292 1.409 . S
C299 C298 1.362 . S
H300 C306 0.930 . S
H301 C309 0.930 . S
H302 C310 0.930 . S
H303 C311 0.930 . S
H304 C314 0.930 . S
H305 C315 0.930 . S
C306 H300 0.930 . S
C306 C307 1.355 . S
C306 C308 1.415 . S
C307 C306 1.355 . S
C307 C309 1.419 . S
C308 C306 1.415 . S
C308 C313 1.425 . S
C308 C315 1.409 . S
C309 H301 0.930 . S
C309 C307 1.419 . S
C309 C310 1.362 . S
C310 H302 0.930 . S
C310 C309 1.362 . S
C310 C313 1.409 . S
C311 H303 0.930 . S
C311 C312 1.355 . S
C311 C313 1.415 . S
C312 C311 1.355 . S
C312 C314 1.419 . S
C313 C308 1.425 . S
C313 C310 1.409 . S
C313 C311 1.415 . S
C314 H304 0.930 . S
C314 C312 1.419 . S
C314 C315 1.362 . S
C315 H305 0.930 . S
C315 C308 1.409 . S
C315 C314 1.362 . S
H316 C322 0.930 . S
H317 C325 0.930 . S
H318 C326 0.930 . S
H319 C327 0.930 . S
H320 C330 0.930 . S
H321 C331 0.930 . S
C322 H316 0.930 . S
C322 C323 1.355 . S
C322 C324 1.415 . S
C323 C322 1.355 . S
C323 C325 1.419 . S
C324 C322 1.415 . S
C324 C329 1.425 . S
C324 C331 1.409 . S
C325 H317 0.930 . S
C325 C323 1.419 . S
C325 C326 1.362 . S
C326 H318 0.930 . S
C326 C325 1.362 . S
C326 C329 1.409 . S
C327 H319 0.930 . S
C327 C328 1.355 . S
C327 C329 1.415 . S
C328 C327 1.355 . S
C328 C330 1.419 . S
C329 C324 1.425 . S
C329 C326 1.409 . S
C329 C327 1.415 . S
C330 H320 0.930 . S
C330 C328 1.419 . S
C330 C331 1.362 . S
C331 H321 0.930 . S
C331 C324 1.409 . S
C331 C330 1.362 . S
H332 C338 0.930 . S
H333 C341 0.930 . S
H334 C342 0.930 . S
H335 C343 0.930 . S
H336 C346 0.930 . S
H337 C347 0.930 . S
C338 H332 0.930 . S
C338 C339 1.355 . S
C338 C340 1.415 . S
C339 C338 1.355 . S
C339 C341 1.419 . S
C340 C338 1.415 . S
C340 C345 1.425 . S
C340 C347 1.409 . S
C341 H333 0.930 . S
C341 C339 1.419 . S
C341 C342 1.362 . S
C342 H334 0.930 . S
C342 C341 1.362 . S
C342 C345 1.409 . S
C343 H335 0.930 . S
C343 C344 1.355 . S
C343 C345 1.415 . S
C344 C343 1.355 . S
C344 C346 1.419 . S
C345 C340 1.425 . S
C345 C342 1.409 . S
C345 C343 1.415 . S
C346 H336 0.930 . S
C346 C344 1.419 . S
C346 C347 1.362 . S
C347 H337 0.930 . S
C347 C340 1.409 . S
C347 C346 1.362 . S
H348 C354 0.930 . S
H349 C357 0.930 . S
H350 C358 0.930 . S
H351 C359 0.930 . S
H352 C362 0.930 . S
H353 C363 0.930 . S
C354 H348 0.930 . S
C354 C355 1.355 . S
C354 C356 1.415 . S
C355 C354 1.355 . S
C355 C357 1.419 1_455 S
C356 C354 1.415 . S
C356 C361 1.425 1_455 S
C356 C363 1.409 . S
C357 H349 0.930 . S
C357 C355 1.419 1_655 S
C357 C358 1.362 . S
C358 H350 0.930 . S
C358 C357 1.362 . S
C358 C361 1.409 . S
C359 H351 0.930 . S
C359 C360 1.355 1_655 S
C359 C361 1.415 . S
C360 C359 1.355 1_455 S
C360 C362 1.419 . S
C361 C356 1.425 1_655 S
C361 C358 1.409 . S
C361 C359 1.415 . S
C362 H352 0.930 . S
C362 C360 1.419 . S
C362 C363 1.362 . S
C363 H353 0.930 . S
C363 C356 1.409 . S
C363 C362 1.362 . S
H364 C370 0.930 . S
H365 C373 0.930 . S
H366 C374 0.930 . S
H367 C375 0.930 . S
H368 C378 0.930 . S
H369 C379 0.930 . S
C370 H364 0.930 . S
C370 C371 1.355 . S
C370 C372 1.415 . S
C371 C370 1.355 . S
C371 C373 1.419 1_545 S
C372 C370 1.415 . S
C372 C377 1.425 1_545 S
C372 C379 1.409 . S
C373 H365 0.930 . S
C373 C371 1.419 1_565 S
C373 C374 1.362 . S
C374 H366 0.930 . S
C374 C373 1.362 . S
C374 C377 1.409 . S
C375 H367 0.930 . S
C375 C376 1.355 1_565 S
C375 C377 1.415 . S
C376 C375 1.355 1_545 S
C376 C378 1.419 . S
C377 C372 1.425 1_565 S
C377 C374 1.409 . S
C377 C375 1.415 . S
C378 H368 0.930 . S
C378 C376 1.419 . S
C378 C379 1.362 . S
C379 H369 0.930 . S
C379 C372 1.409 . S
C379 C378 1.362 . S
H380 C386 0.930 . S
H381 C389 0.930 . S
H382 C390 0.930 . S
H383 C391 0.930 . S
H384 C394 0.930 . S
H385 C395 0.930 . S
C386 H380 0.930 . S
C386 C387 1.355 1_455 S
C386 C388 1.415 1_455 S
C387 C386 1.355 1_655 S
C387 C389 1.419 . S
C388 C386 1.415 1_655 S
C388 C393 1.425 . S
C388 C395 1.409 1_655 S
C389 H381 0.930 . S
C389 C387 1.419 . S
C389 C390 1.362 . S
C390 H382 0.930 . S
C390 C389 1.362 . S
C390 C393 1.409 . S
C391 H383 0.930 . S
C391 C392 1.355 . S
C391 C393 1.415 . S
C392 C391 1.355 . S
C392 C394 1.419 1_655 S
C393 C388 1.425 . S
C393 C390 1.409 . S
C393 C391 1.415 . S
C394 H384 0.930 . S
C394 C392 1.419 1_455 S
C394 C395 1.362 . S
C395 H385 0.930 . S
C395 C388 1.409 1_455 S
C395 C394 1.362 . S
H396 C402 0.930 . S
H397 C405 0.930 . S
H398 C406 0.930 . S
H399 C407 0.930 . S
H400 C410 0.930 . S
H401 C411 0.930 . S
C402 H396 0.930 . S
C402 C403 1.355 1_545 S
C402 C404 1.415 . S
C403 C402 1.355 1_565 S
C403 C405 1.419 . S
C404 C402 1.415 . S
C404 C409 1.425 1_545 S
C404 C411 1.409 . S
C405 H397 0.930 . S
C405 C403 1.419 . S
C405 C406 1.362 . S
C406 H398 0.930 . S
C406 C405 1.362 . S
C406 C409 1.409 . S
C407 H399 0.930 . S
C407 C408 1.355 1_565 S
C407 C409 1.415 . S
C408 C407 1.355 1_545 S
C408 C410 1.419 . S
C409 C404 1.425 1_565 S
C409 C406 1.409 . S
C409 C407 1.415 . S
C410 H400 0.930 . S
C410 C408 1.419 . S
C410 C411 1.362 . S
C411 H401 0.930 . S
C411 C404 1.409 . S
C411 C410 1.362 . S
H412 C418 0.930 . S
H413 C421 0.930 . S
H414 C422 0.930 . S
H415 C423 0.930 . S
H416 C426 0.930 . S
H417 C427 0.930 . S
C418 H412 0.930 . S
C418 C419 1.355 1_565 S
C418 C420 1.415 . S
C419 C418 1.355 1_545 S
C419 C421 1.419 . S
C420 C418 1.415 . S
C420 C425 1.425 1_565 S
C420 C427 1.409 . S
C421 H413 0.930 . S
C421 C419 1.419 . S
C421 C422 1.362 . S
C422 H414 0.930 . S
C422 C421 1.362 . S
C422 C425 1.409 . S
C423 H415 0.930 . S
C423 C424 1.355 . S
C423 C425 1.415 . S
C424 C423 1.355 . S
C424 C426 1.419 1_545 S
C425 C420 1.425 1_545 S
C425 C422 1.409 . S
C425 C423 1.415 . S
C426 H416 0.930 . S
C426 C424 1.419 1_565 S
C426 C427 1.362 . S
C427 H417 0.930 . S
C427 C420 1.409 . S
C427 C426 1.362 . S
H428 C434 0.930 . S
H429 C437 0.930 . S
H430 C438 0.930 . S
H431 C439 0.930 . S
H432 C442 0.930 . S
H433 C443 0.930 . S
C434 H428 0.930 . S
C434 C435 1.355 . S
C434 C436 1.415 . S
C435 C434 1.355 . S
C435 C437 1.419 1_655 S
C436 C434 1.415 . S
C436 C441 1.425 1_655 S
C436 C443 1.409 . S
C437 H429 0.930 . S
C437 C435 1.419 1_455 S
C437 C438 1.362 . S
C438 H430 0.930 . S
C438 C437 1.362 . S
C438 C441 1.409 . S
C439 H431 0.930 . S
C439 C440 1.354 . S
C439 C441 1.415 . S
C440 C439 1.354 . S
C440 C442 1.420 1_455 S
C441 C436 1.425 1_455 S
C441 C438 1.409 . S
C441 C439 1.415 . S
C442 H432 0.930 . S
C442 C440 1.420 1_655 S
C442 C443 1.362 . S
C443 H433 0.930 . S
C443 C436 1.409 . S
C443 C442 1.362 . S
H444 C450 0.930 . S
H445 C453 0.930 . S
H446 C454 0.930 . S
H447 C455 0.930 . S
H448 C458 0.930 . S
H449 C459 0.930 . S
C450 H444 0.930 . S
C450 C451 1.355 1_545 S
C450 C452 1.415 . S
C451 C450 1.355 1_565 S
C451 C453 1.419 . S
C452 C450 1.415 . S
C452 C457 1.425 1_545 S
C452 C459 1.409 . S
C453 H445 0.930 . S
C453 C451 1.419 . S
C453 C454 1.362 . S
C454 H446 0.930 . S
C454 C453 1.362 . S
C454 C457 1.409 . S
C455 H447 0.930 . S
C455 C456 1.355 . S
C455 C457 1.415 . S
C456 C455 1.355 . S
C456 C458 1.419 1_565 S
C457 C452 1.425 1_565 S
C457 C454 1.409 . S
C457 C455 1.415 . S
C458 H448 0.930 . S
C458 C456 1.419 1_545 S
C458 C459 1.362 . S
C459 H449 0.930 . S
C459 C452 1.409 . S
C459 C458 1.362 . S
H460 C466 0.930 . S
H461 C469 0.930 . S
H462 C470 0.930 . S
H463 C471 0.929 1_455 S
H464 C474 0.930 . S
H465 C475 0.930 . S
C466 H460 0.930 . S
C466 C467 1.355 . S
C466 C468 1.415 . S
C467 C466 1.355 . S
C467 C469 1.419 . S
C468 C466 1.415 . S
C468 C473 1.425 . S
C468 C475 1.409 . S
C469 H461 0.930 . S
C469 C467 1.419 . S
C469 C470 1.362 . S
C470 H462 0.930 . S
C470 C469 1.362 . S
C470 C473 1.409 . S
C471 H463 0.929 1_655 S
C471 C472 1.355 . S
C471 C473 1.415 . S
C472 C471 1.355 . S
C472 C474 1.421 . S
C473 C468 1.425 . S
C473 C470 1.409 . S
C473 C471 1.415 . S
C474 H464 0.930 . S
C474 C472 1.421 . S
C474 C475 1.362 . S
C475 H465 0.930 . S
C475 C468 1.409 . S
C475 C474 1.362 . S
H476 C482 0.930 . S
H477 C485 0.930 . S
H478 C486 0.930 . S
H479 C487 0.930 . S
H480 C490 0.930 . S
H481 C491 0.930 . S
C482 H476 0.930 . S
C482 C483 1.355 1_554 S
C482 C484 1.415 . S
C483 C482 1.355 1_556 S
C483 C485 1.419 . S
C484 C482 1.415 . S
C484 C489 1.425 1_554 S
C484 C491 1.409 . S
C485 H477 0.930 . S
C485 C483 1.419 . S
C485 C486 1.362 . S
C486 H478 0.930 . S
C486 C485 1.362 . S
C486 C489 1.409 . S
C487 H479 0.930 . S
C487 C488 1.355 . S
C487 C489 1.415 . S
C488 C487 1.355 . S
C488 C490 1.419 1_556 S
C489 C484 1.425 1_556 S
C489 C486 1.409 . S
C489 C487 1.415 . S
C490 H480 0.930 . S
C490 C488 1.419 1_554 S
C490 C491 1.362 . S
C491 H481 0.930 . S
C491 C484 1.409 . S
C491 C490 1.362 . S
H492 C498 0.930 . S
H493 C501 0.930 . S
H494 C502 0.930 . S
H495 C503 0.930 . S
H496 C506 0.930 . S
H497 C507 0.930 . S
C498 H492 0.930 . S
C498 C499 1.355 . S
C498 C500 1.415 . S
C499 C498 1.355 . S
C499 C501 1.419 . S
C500 C498 1.415 . S
C500 C505 1.425 . S
C500 C507 1.409 . S
C501 H493 0.930 . S
C501 C499 1.419 . S
C501 C502 1.362 . S
C502 H494 0.930 . S
C502 C501 1.362 . S
C502 C505 1.409 . S
C503 H495 0.930 . S
C503 C504 1.355 . S
C503 C505 1.415 . S
C504 C503 1.355 . S
C504 C506 1.419 . S
C505 C500 1.425 . S
C505 C502 1.409 . S
C505 C503 1.415 . S
C506 H496 0.930 . S
C506 C504 1.419 . S
C506 C507 1.362 . S
C507 H497 0.930 . S
C507 C500 1.409 . S
C507 C506 1.362 . S
H508 C514 0.930 . S
H509 C517 0.930 . S
H510 C518 0.930 . S
H511 C519 0.930 . S
H512 C522 0.930 . S
H513 C523 0.930 . S
C514 H508 0.930 . S
C514 C515 1.355 1_554 S
C514 C516 1.415 . S
C515 C514 1.355 1_556 S
C515 C517 1.419 . S
C516 C514 1.415 . S
C516 C521 1.425 1_554 S
C516 C523 1.409 . S
C517 H509 0.930 . S
C517 C515 1.419 . S
C517 C518 1.362 . S
C518 H510 0.930 . S
C518 C517 1.362 . S
C518 C521 1.409 . S
C519 H511 0.930 . S
C519 C520 1.355 . S
C519 C521 1.415 . S
C520 C519 1.355 . S
C520 C522 1.419 1_556 S
C521 C516 1.425 1_556 S
C521 C518 1.409 . S
C521 C519 1.415 . S
C522 H512 0.930 . S
C522 C520 1.419 1_554 S
C522 C523 1.362 . S
C523 H513 0.930 . S
C523 C516 1.409 . S
C523 C522 1.362 . S
H524 C530 0.930 . S
H525 C533 0.930 . S
H526 C534 0.930 . S
H527 C535 0.930 . S
H528 C538 0.930 . S
H529 C539 0.930 . S
C530 H524 0.930 . S
C530 C531 1.355 1_556 S
C530 C532 1.415 . S
C531 C530 1.355 1_554 S
C531 C533 1.419 . S
C532 C530 1.415 . S
C532 C537 1.425 1_556 S
C532 C539 1.409 . S
C533 H525 0.930 . S
C533 C531 1.419 . S
C533 C534 1.362 . S
C534 H526 0.930 . S
C534 C533 1.362 . S
C534 C537 1.409 . S
C535 H527 0.930 . S
C535 C536 1.355 1_554 S
C535 C537 1.415 . S
C536 C535 1.355 1_556 S
C536 C538 1.419 . S
C537 C532 1.425 1_554 S
C537 C534 1.409 . S
C537 C535 1.415 . S
C538 H528 0.930 . S
C538 C536 1.419 . S
C538 C539 1.362 . S
C539 H529 0.930 . S
C539 C532 1.409 . S
C539 C538 1.362 . S
C163 C1 1.012 . S
C168 C96 1.042 . S
C179 C18 1.417 . S
C184 C55 1.399 . S
C195 C66 1.082 . S
C200 C27 1.047 . S
C211 C81 1.430 . S
C216 C49 1.448 . S
C227 C114 1.045 . S
C232 C92 1.032 . S
C243 C118 1.272 . S
C248 C62 1.230 . S
C259 C140 1.415 . S
C264 C70 1.369 . S
C275 C144 1.206 . S
C280 C88 1.190 . S
C291 C14 1.071 . S
C296 C122 1.050 . S
C307 C133 1.269 . S
C312 C31 1.253 . S
C323 C42 1.419 . S
C328 C148 1.441 . S
C339 C107 1.254 . S
C344 C5 1.277 . S
C355 C83 1.723 . S
C360 C10 1.712 . S
C371 C94 1.732 . S
C376 C16 1.728 1_545 S
C387 C57 1.761 . S
C392 C36 1.763 . S
C403 C40 1.749 . S
C408 C75 1.684 1_545 S
C419 C101 1.787 . S
C424 C68 1.692 1_545 S
C435 C53 1.631 . S
C440 C79 1.637 1_455 S
C451 C44 1.670 . S
C456 C23 1.668 . S
C467 C29 1.808 . S
C472 C3 1.799 1_655 S
C483 C109 1.886 . S
C488 C127 1.885 . S
C499 C120 1.725 . S
C504 C131 1.701 . S
C515 C153 1.540 . S
C520 C135 1.544 . S
C531 C105 1.698 . S
C536 C146 1.711 . S
