# Generated by pormake.
# Topology tsi, (8)-cn, num edge types: 1
# Building blocks:
#     Node 0, Type 0, BuildingBlock: LIZSOE_clean_sbu_0, # of connection points: 8
#     Node 1, Type 0, BuildingBlock: LIZSOE_clean_sbu_0, # of connection points: 8
#     Node 2, Type 0, BuildingBlock: LIZSOE_clean_sbu_0, # of connection points: 8
#     Node 3, Type 0, BuildingBlock: LIZSOE_clean_sbu_0, # of connection points: 8
#     Edge 4, Type (0, 0), BuildingBlock: TEMPAE_clean_linker_10, # of connection points: 2
#     Edge 5, Type (0, 0), BuildingBlock: TEMPAE_clean_linker_10, # of connection points: 2
#     Edge 6, Type (0, 0), BuildingBlock: TEMPAE_clean_linker_10, # of connection points: 2
#     Edge 7, Type (0, 0), BuildingBlock: TEMPAE_clean_linker_10, # of connection points: 2
#     Edge 8, Type (0, 0), BuildingBlock: TEMPAE_clean_linker_10, # of connection points: 2
#     Edge 9, Type (0, 0), BuildingBlock: TEMPAE_clean_linker_10, # of connection points: 2
#     Edge 10, Type (0, 0), BuildingBlock: TEMPAE_clean_linker_10, # of connection points: 2
#     Edge 11, Type (0, 0), BuildingBlock: TEMPAE_clean_linker_10, # of connection points: 2
#     Edge 12, Type (0, 0), BuildingBlock: TEMPAE_clean_linker_10, # of connection points: 2
#     Edge 13, Type (0, 0), BuildingBlock: TEMPAE_clean_linker_10, # of connection points: 2
#     Edge 14, Type (0, 0), BuildingBlock: TEMPAE_clean_linker_10, # of connection points: 2
#     Edge 15, Type (0, 0), BuildingBlock: TEMPAE_clean_linker_10, # of connection points: 2
#     Edge 16, Type (0, 0), BuildingBlock: TEMPAE_clean_linker_10, # of connection points: 2
#     Edge 17, Type (0, 0), BuildingBlock: TEMPAE_clean_linker_10, # of connection points: 2
#     Edge 18, Type (0, 0), BuildingBlock: TEMPAE_clean_linker_10, # of connection points: 2
#     Edge 19, Type (0, 0), BuildingBlock: TEMPAE_clean_linker_10, # of connection points: 2
# Relax obj value: 0.232
# Max RMSD: 0.259
# Mean RMSD: 0.250
data_MOF--net-tsi--node1-LIZSOE_clean_sbu_0--edge1-TEMPAE_clean_linker_10
_symmetry_space_group_name_H-M    P1
_symmetry_Int_Tables_number       1
_symmetry_cell_setting            triclinic
loop_
_symmetry_equiv_pos_as_xyz
'x, y, z'
_cell_length_a     15.732338
_cell_length_b     15.768806
_cell_length_c     66.118147
_cell_angle_alpha  100.35652
_cell_angle_beta   100.39512
_cell_angle_gamma 90.189857
loop_
_atom_site_label
_atom_site_type_symbol
_atom_site_fract_x
_atom_site_fract_y
_atom_site_fract_z
_atom_type_partial_charge
Co0 Co 0.24892 0.44566 0.48598 0.0
N1 N 0.3306 0.38637 0.50176 0.0
C2 C 0.41124 0.41915 0.51005 0.0
N3 N 0.40483 0.2923 0.51946 0.0
C4 C 0.32809 0.30876 0.50796 0.0
C5 C 0.45668 0.36195 0.52087 0.0
Co6 Co 0.04447 0.52311 0.39484 0.0
N7 N 0.96574 0.57291 0.37612 0.0
N8 N 0.89168 0.60408 0.34609 0.0
C9 C 0.86806 0.65804 0.36214 0.0
C10 C 0.91425 0.63943 0.38055 0.0
C11 C 0.9507 0.55318 0.35496 0.0
Co12 Co 0.13839 0.48527 0.44109 0.0
C13 C 0.09129 0.40523 0.39461 0.0
H14 H 0.9104 0.67226 0.39617 0.0
O15 O 0.16378 0.50336 0.47301 0.0
O16 O 1.0117 0.48572 0.44221 0.0
O17 O 0.13255 0.35638 0.43797 0.0
O18 O 0.26577 0.48476 0.4396 0.0
O19 O 0.33302 0.47637 0.47195 0.0
O20 O 0.95783 0.51536 0.41086 0.0
O21 O 0.11826 0.47 0.40986 0.0
O22 O 0.08069 0.63115 0.41051 0.0
O23 O 0.22405 0.34233 0.46667 0.0
O24 O 0.16352 0.42191 0.49756 0.0
O25 O 0.14214 0.61572 0.44313 0.0
O26 O 1.01932 0.41379 0.38193 0.0
C27 C 0.17769 0.30986 0.44932 0.0
C28 C 0.9961 0.48423 0.34283 0.0
H29 H 0.95939 0.42195 0.34049 0.0
H30 H 0.99995 0.4992 0.32724 0.0
H31 H 0.06207 0.47767 0.35162 0.0
C32 C 0.94794 0.50068 0.42856 0.0
C33 C 0.33448 0.48633 0.45341 0.0
H34 H 0.43534 0.48155 0.5085 0.0
H35 H 0.24137 0.2274 0.51859 0.0
H36 H 0.25498 0.19295 0.49209 0.0
H37 H 0.18802 0.27955 0.49813 0.0
C38 C 0.24843 0.25016 0.50402 0.0
C39 C 0.12385 0.47529 0.48664 0.0
C40 C 0.11834 0.66249 0.42912 0.0
H41 H 0.52259 0.37131 0.52939 0.0
H42 H 0.81921 0.70586 0.36066 0.0
Co43 Co 0.14038 0.5871 0.7123 0.0
N44 N 0.07692 0.50707 0.72235 0.0
C45 C 0.07061 0.42123 0.71478 0.0
N46 N 0.99106 0.44196 0.73927 0.0
C47 C 1.02693 0.51788 0.73732 0.0
C48 C 1.01828 0.38157 0.72503 0.0
Co49 Co 0.26765 0.68921 0.6319 0.0
N50 N 0.34852 0.73415 0.61921 0.0
N51 N 0.40349 0.8239 0.60165 0.0
C52 C 0.46816 0.77843 0.61032 0.0
C53 C 0.43441 0.72329 0.62097 0.0
C54 C 0.33115 0.79431 0.60709 0.0
Co55 Co 0.19549 0.65356 0.67367 0.0
C56 C 0.19808 0.58104 0.6258 0.0
H57 H 0.47107 0.67996 0.62983 0.0
O58 O 0.19939 0.6682 0.7051 0.0
O59 O 0.20353 0.7843 0.67647 0.0
O60 O 0.0654 0.65855 0.66851 0.0
O61 O 0.19455 0.52183 0.67025 0.0
O62 O 0.21347 0.50208 0.70341 0.0
O63 O 0.26108 0.7958 0.64831 0.0
O64 O 0.18757 0.64139 0.64178 0.0
O65 O 0.35771 0.66149 0.65071 0.0
O66 O 0.06059 0.55648 0.68657 0.0
O67 O 0.07703 0.67642 0.71879 0.0
O68 O 0.32556 0.64913 0.68093 0.0
O69 O 0.26877 0.58428 0.61824 0.0
C70 C 1.02117 0.60629 0.67541 0.0
C71 C 0.24045 0.81994 0.60009 0.0
H72 H 0.19413 0.76624 0.59979 0.0
H73 H 0.22508 0.87587 0.61147 0.0
H74 H 0.23228 0.83752 0.58437 0.0
C75 C 0.23496 0.82961 0.66495 0.0
C76 C 0.21907 0.47579 0.68436 0.0
H77 H 0.09971 0.38889 0.70206 0.0
H78 H 0.06524 0.64577 0.75404 0.0
H79 H 0.97201 0.60229 0.76145 0.0
H80 H 0.96124 0.63618 0.73693 0.0
C81 C 1.00533 0.60494 0.74824 0.0
C82 C 0.15155 0.70988 0.71794 0.0
C83 C 0.38007 0.64852 0.66897 0.0
H84 H 0.99981 0.31359 0.72192 0.0
H85 H 0.53585 0.78625 0.60957 0.0
Co86 Co 0.29802 0.7783 0.95147 0.0
N87 N 0.25112 0.8619 0.96949 0.0
C88 C 0.20235 0.92796 0.9645 0.0
N89 N 0.22089 0.94196 0.9989 0.0
C90 C 0.26057 0.87166 0.99055 0.0
C91 C 0.1849 0.97779 0.98253 0.0
Co92 Co 0.37706 0.57143 0.86046 0.0
N93 N 0.43835 0.49379 0.84425 0.0
N94 N 0.52727 0.43377 0.82303 0.0
C95 C 0.4701 0.37251 0.82443 0.0
C96 C 0.41528 0.40959 0.83727 0.0
C97 C 0.50763 0.50663 0.83534 0.0
Co98 Co 0.33407 0.67939 0.90545 0.0
C99 C 0.34277 0.69524 0.86006 0.0
H100 H 0.36043 0.37747 0.84083 0.0
O101 O 0.34817 0.69988 0.93682 0.0
O102 O 0.46352 0.6842 0.90899 0.0
O103 O 0.33488 0.80567 0.90391 0.0
O104 O 0.20397 0.67783 0.90313 0.0
O105 O 0.18935 0.75037 0.9349 0.0
O106 O 0.47926 0.60004 0.87943 0.0
O107 O 0.31728 0.6534 0.87365 0.0
O108 O 0.35424 0.48659 0.87514 0.0
O109 O 0.31862 0.86306 0.93611 0.0
O110 O 0.40654 0.79484 0.96539 0.0
O111 O 0.33287 0.5519 0.90676 0.0
O112 O 0.39542 0.65781 0.84856 0.0
C113 C 0.33056 0.87105 0.91812 0.0
C114 C 0.5572 0.59148 0.83854 0.0
H115 H 0.55799 0.63104 0.85412 0.0
H116 H 0.62533 0.58106 0.83672 0.0
H117 H 0.5266 0.6291 0.82669 0.0
C118 C 0.51093 0.64368 0.89712 0.0
C119 C 0.1575 0.70962 0.91662 0.0
H120 H 0.18318 0.94079 0.94881 0.0
H121 H 0.32058 0.75081 0.99308 0.0
H122 H 0.28435 0.80457 1.01651 0.0
H123 H 0.37916 0.84507 1.00924 0.0
C124 C 0.31395 0.81415 1.00305 0.0
C125 C 0.41318 0.72363 0.95232 0.0
C126 C 0.34046 0.48396 0.89335 0.0
H127 H 0.1515 1.03792 0.98365 0.0
H128 H 0.46631 0.30647 0.81612 0.0
Co129 Co 0.43974 0.31781 0.22036 0.0
N130 N 0.3785 0.27505 0.23852 0.0
C131 C 0.30411 0.22681 0.23301 0.0
N132 N 0.33141 0.25448 0.2676 0.0
C133 C 0.39383 0.2902 0.25975 0.0
C134 C 0.27465 0.21515 0.25077 0.0
Co135 Co 0.50653 0.38789 0.1281 0.0
N136 N 0.54819 0.44947 0.10976 0.0
N137 N 0.56615 0.49576 0.08036 0.0
C138 C 0.60726 0.55229 0.09701 0.0
C139 C 0.59728 0.52324 0.11495 0.0
C140 C 0.53119 0.43394 0.08853 0.0
Co141 Co 0.47615 0.34765 0.17409 0.0
C142 C 0.39166 0.32859 0.12817 0.0
H143 H 0.62204 0.55546 0.13078 0.0
O144 O 0.49938 0.36549 0.20547 0.0
O145 O 0.4752 0.47669 0.17643 0.0
O146 O 0.34674 0.34715 0.17195 0.0
O147 O 0.4743 0.21801 0.17292 0.0
O148 O 0.43928 0.20753 0.20404 0.0
O149 O 0.4855 0.49359 0.14424 0.0
O150 O 0.4591 0.3268 0.14285 0.0
O151 O 0.61786 0.38953 0.14446 0.0
O152 O 0.33389 0.34074 0.20456 0.0
O153 O 0.44757 0.42649 0.23381 0.0
O154 O 0.60545 0.3499 0.17505 0.0
O155 O 0.39637 0.37952 0.11485 0.0
C156 C 0.30113 0.34901 0.18612 0.0
C157 C 0.47636 0.359 0.07578 0.0
H158 H 0.40911 0.37987 0.07174 0.0
H159 H 0.49997 0.33541 0.06101 0.0
H160 H 0.47682 0.30637 0.08489 0.0
C161 C 0.47653 0.52404 0.16276 0.0
C162 C 0.45606 0.17331 0.18623 0.0
H163 H 0.27139 0.20444 0.21706 0.0
H164 H 0.52283 0.34274 0.26399 0.0
H165 H 0.49088 0.32061 0.28767 0.0
H166 H 0.449 0.41165 0.27666 0.0
C167 C 0.46902 0.34412 0.27281 0.0
C168 C 0.4965 0.43275 0.22013 0.0
C169 C 0.6509 0.37175 0.16229 0.0
H170 H 0.21422 0.1833 0.25129 0.0
H171 H 0.63987 0.61189 0.09624 0.0
C172 C 1.00058 0.49153 0.50514 0.0
C173 C 0.07065 0.53138 0.49947 0.0
C174 C 0.98748 0.50628 0.52608 0.0
C175 C 0.04757 0.55974 0.54183 0.0
C176 C 0.10881 0.61088 0.53546 0.0
C177 C 0.11694 0.59858 0.51422 0.0
C178 C 0.9143 0.458 0.53145 0.0
C179 C 0.17224 0.67203 0.5513 0.0
C180 C 0.06713 0.61616 0.60143 0.0
C181 C 0.1249 0.55409 0.60785 0.0
C182 C 1.03279 0.61397 0.57999 0.0
C183 C 0.05873 0.54976 0.56451 0.0
C184 C 0.1081 0.48119 0.57118 0.0
C185 C 0.13746 0.48269 0.5927 0.0
C186 C 0.97469 0.68494 0.57419 0.0
C187 C 0.13942 0.41149 0.55565 0.0
H188 H 0.96305 0.44035 0.49388 0.0
H189 H 0.17051 0.63065 0.50999 0.0
H190 H 0.93506 0.39294 0.53393 0.0
H191 H 0.89394 0.49229 0.5459 0.0
H192 H 0.85775 0.44922 0.5184 0.0
H193 H 0.21956 0.70291 0.54402 0.0
H194 H 0.13634 0.7235 0.55947 0.0
H195 H 0.20837 0.63755 0.56321 0.0
H196 H 0.05606 0.67174 0.61281 0.0
H197 H 0.1818 0.43436 0.59746 0.0
H198 H 0.93858 0.66915 0.55785 0.0
H199 H 1.01407 0.74535 0.57614 0.0
H200 H 0.92757 0.69778 0.58493 0.0
H201 H 0.08378 0.37641 0.54461 0.0
H202 H 0.17873 0.36381 0.56335 0.0
H203 H 0.17942 0.44096 0.54632 0.0
C204 C 0.64839 0.3557 0.81041 0.0
C205 C 0.59166 0.42381 0.80994 0.0
C206 C 0.71497 0.34863 0.79868 0.0
C207 C 0.7252 0.41193 0.78649 0.0
C208 C 0.66609 0.47919 0.78547 0.0
C209 C 0.59899 0.48316 0.79689 0.0
C210 C 0.77505 0.27443 0.79958 0.0
C211 C 0.67494 0.54825 0.77275 0.0
C212 C 0.94292 0.45935 0.77323 0.0
C213 C 0.92817 0.4272 0.75169 0.0
C214 C 0.87811 0.45279 0.78497 0.0
C215 C 0.79831 0.40957 0.77503 0.0
C216 C 0.78606 0.37066 0.75363 0.0
C217 C 0.85117 0.38034 0.7422 0.0
C218 C 0.89335 0.49606 0.8077 0.0
C219 C 0.70292 0.32199 0.7426 0.0
H220 H 0.64161 0.30925 0.82032 0.0
H221 H 0.55271 0.53358 0.79586 0.0
H222 H 0.77793 0.24025 0.78352 0.0
H223 H 0.8415 0.29922 0.80701 0.0
H224 H 0.7545 0.22739 0.80856 0.0
H225 H 0.62421 0.59682 0.77391 0.0
H226 H 0.73925 0.58198 0.77818 0.0
H227 H 0.6709 0.51871 0.75605 0.0
H228 H 1.00427 0.49208 0.78068 0.0
H229 H 0.84085 0.35378 0.72561 0.0
H230 H 0.87872 0.4502 0.81761 0.0
H231 H 0.84912 0.55036 0.80976 0.0
H232 H 0.96095 0.52168 0.81341 0.0
H233 H 0.68395 0.27602 0.75203 0.0
H234 H 0.70838 0.28576 0.72687 0.0
H235 H 0.65012 0.36796 0.74069 0.0
C236 C 0.5391 0.68388 0.97695 0.0
C237 C 0.46282 0.65747 0.96244 0.0
C238 C 0.56562 0.64215 0.99404 0.0
C239 C 0.51448 0.57237 0.99681 0.0
C240 C 0.44424 0.53824 0.98067 0.0
C241 C 0.41962 0.58083 0.96359 0.0
C242 C 0.64261 0.6795 1.01039 0.0
C243 C 0.38844 0.46311 0.98255 0.0
C244 C 0.59075 0.46175 1.04383 0.0
C245 C 0.54962 0.50966 0.05904 0.0
C246 C 0.57908 0.47981 1.02334 0.0
C247 C 0.52455 0.54698 1.01797 0.0
C248 C 0.48149 0.59377 1.03333 0.0
C249 C 0.49513 0.57499 0.05363 0.0
C250 C 0.62689 0.42878 1.00765 0.0
C251 C 0.42173 0.66487 1.02843 0.0
H252 H 0.5729 0.74299 0.9762 0.0
H253 H 0.36031 0.55979 0.95259 0.0
H254 H 0.61968 0.71884 1.0239 0.0
H255 H 0.68176 0.62754 1.01622 0.0
H256 H 0.68467 0.72149 1.00422 0.0
H257 H 0.35093 0.43185 0.96708 0.0
H258 H 0.42785 0.41401 0.98959 0.0
H259 H 0.34203 0.48668 0.99291 0.0
H260 H 0.63348 0.41162 0.04815 0.0
H261 H 0.46359 0.61178 0.06548 0.0
H262 H 0.67546 0.47165 1.00385 0.0
H263 H 0.58161 0.40333 0.99286 0.0
H264 H 0.66067 0.37401 1.01362 0.0
H265 H 0.45817 0.71664 1.02392 0.0
H266 H 0.39152 0.6937 1.0419 0.0
H267 H 0.36966 0.6392 1.01499 0.0
C268 C 0.78578 0.52704 0.31686 0.0
C269 C 0.84943 0.59233 0.32456 0.0
C270 C 0.74047 0.51599 0.29621 0.0
C271 C 0.76025 0.57086 0.28272 0.0
C272 C 0.82706 0.63543 0.29032 0.0
C273 C 0.87019 0.64616 0.31132 0.0
C274 C 0.6692 0.44722 0.28909 0.0
C275 C 0.85177 0.69443 0.27656 0.0
C276 C 0.65519 0.46315 0.22834 0.0
C277 C 0.57154 0.49434 0.22791 0.0
C278 C 0.72308 0.49652 0.24491 0.0
C279 C 0.70629 0.56206 0.26127 0.0
C280 C 0.62655 0.60387 0.25868 0.0
C281 C 0.5603 0.56996 0.24186 0.0
C282 C 0.80878 0.45334 0.24632 0.0
C283 C 0.6062 0.67579 0.27529 0.0
H284 H 0.77036 0.48587 0.32728 0.0
H285 H 0.92003 0.69649 0.31744 0.0
H286 H 0.60693 0.47788 0.28464 0.0
H287 H 0.68162 0.40211 0.2751 0.0
H288 H 0.6625 0.40942 0.30141 0.0
H289 H 0.918 0.72336 0.2826 0.0
H290 H 0.84846 0.65965 0.26026 0.0
H291 H 0.80601 0.7477 0.27616 0.0
H292 H 0.66516 0.40534 0.21751 0.0
H293 H 0.49608 0.59528 0.24139 0.0
H294 H 0.80972 0.40377 0.25633 0.0
H295 H 0.86298 0.50065 0.25352 0.0
H296 H 0.81947 0.42093 0.23065 0.0
H297 H 0.59133 0.64808 0.2886 0.0
H298 H 0.54948 0.71185 0.26926 0.0
H299 H 0.66238 0.72164 0.28133 0.0
C300 C 0.25233 0.32812 0.29399 0.0
C301 C 0.31581 0.2709 0.28877 0.0
C302 C 0.23056 0.34091 0.31397 0.0
C303 C 0.27247 0.29439 0.3292 0.0
C304 C 0.33815 0.23733 0.32407 0.0
C305 C 0.35915 0.22634 0.30387 0.0
C306 C 0.16072 0.40271 0.31854 0.0
C307 C 0.3841 0.18591 0.33963 0.0
C308 C 0.23496 0.39592 0.38345 0.0
C309 C 0.15585 0.35519 0.38389 0.0
C310 C 0.27891 0.37142 0.36663 0.0
C311 C 0.24363 0.30382 0.34996 0.0
C312 C 0.1704 0.25517 0.35184 0.0
C313 C 0.12739 0.28152 0.36873 0.0
C314 C 0.35736 0.42459 0.36558 0.0
C315 C 0.1315 0.1811 0.33485 0.0
H316 H 0.21893 0.36205 0.28219 0.0
H317 H 0.40781 0.18147 0.29965 0.0
H318 H 0.10482 0.36649 0.32139 0.0
H319 H 0.18492 0.45098 0.33287 0.0
H320 H 0.13783 0.43742 0.30548 0.0
H321 H 0.43945 0.15147 0.33409 0.0
H322 H 0.4081 0.22856 0.3549 0.0
H323 H 0.33801 0.13764 0.34236 0.0
H324 H 0.25758 0.45334 0.39492 0.0
H325 H 0.06639 0.24964 0.36889 0.0
H326 H 0.33858 0.4687 0.35433 0.0
H327 H 0.4079 0.38279 0.3599 0.0
H328 H 0.38542 0.46413 0.38104 0.0
H329 H 0.09544 0.20694 0.32137 0.0
H330 H 0.08596 0.1402 0.34033 0.0
H331 H 0.18269 0.14017 0.3292 0.0
C332 C 0.26049 0.70903 0.75048 0.0
C333 C 0.19458 0.75197 0.73947 0.0
C334 C 0.27759 0.72305 0.77257 0.0
C335 C 0.22883 0.78279 0.78418 0.0
C336 C 0.16817 0.83241 0.77317 0.0
C337 C 0.15113 0.81573 0.75106 0.0
C338 C 0.34321 0.66849 0.78343 0.0
C339 C 0.11627 0.8987 0.78459 0.0
C340 C 0.21038 0.71538 0.8359 0.0
C341 C 0.28663 0.75347 0.84877 0.0
C342 C 0.18602 0.72991 0.81521 0.0
C343 C 0.23704 0.78683 0.80748 0.0
C344 C 0.30429 0.83731 0.82178 0.0
C345 C 0.32829 0.82001 0.84223 0.0
C346 C 0.11207 0.67608 0.80099 0.0
C347 C 0.3575 0.90267 0.81488 0.0
H348 H 0.29299 0.65809 0.74185 0.0
H349 H 0.09881 0.84804 0.74279 0.0
H350 H 0.39057 0.71003 0.79571 0.0
H351 H 0.30998 0.62511 0.79127 0.0
H352 H 0.37903 0.62838 0.7724 0.0
H353 H 0.09058 0.9465 0.7748 0.0
H354 H 0.06055 0.86591 0.78852 0.0
H355 H 0.15565 0.93344 0.79943 0.0
H356 H 0.17767 0.66379 0.8407 0.0
H357 H 0.38725 0.85017 0.85205 0.0
H358 H 0.13826 0.62563 0.79 0.0
H359 H 0.06993 0.71657 0.79162 0.0
H360 H 0.07205 0.64381 0.80982 0.0
H361 H 0.39199 0.94988 0.82845 0.0
H362 H 0.31636 0.93812 0.80397 0.0
H363 H 0.40641 0.86892 0.80652 0.0
C364 C 0.28213 0.061 1.02682 0.0
C365 C 0.23326 0.98378 1.02048 0.0
C366 C 0.29499 0.10457 1.04759 0.0
C367 C 0.25708 0.07077 0.06253 0.0
C368 C 0.20704 0.99239 0.05615 0.0
C369 C 0.19591 0.94949 1.03512 0.0
C370 C 0.35091 0.18613 0.05359 0.0
C371 C 0.16425 0.95482 0.07137 0.0
C372 C 0.37941 0.17096 0.11599 0.0
C373 C 0.33738 0.24924 0.11926 0.0
C374 C 0.34817 0.10597 0.09864 0.0
C375 C 0.27181 0.11883 0.08464 0.0
C376 C 0.22168 0.19113 0.09005 0.0
C377 C 0.25558 0.25608 0.1072 0.0
C378 C 0.40371 1.02994 0.09368 0.0
C379 C 0.13831 0.20624 0.07609 0.0
H380 H 0.31102 0.08671 1.01538 0.0
H381 H 0.15729 0.88991 1.03 0.0
H382 H 0.31519 0.23983 0.06106 0.0
H383 H 0.40876 0.17591 0.06511 0.0
H384 H 0.37283 0.2056 1.03998 0.0
H385 H 0.13458 0.8896 0.0645 0.0
H386 H 0.21165 0.95065 0.08574 0.0
H387 H 0.11297 0.99787 0.07617 0.0
H388 H 0.44302 0.16529 0.12512 0.0
H389 H 0.2227 0.31638 0.10968 0.0
H390 H 0.43831 0.04008 0.08104 0.0
H391 H 0.3635 0.96957 0.088 0.0
H392 H 0.45264 1.02168 0.10751 0.0
H393 H 0.15327 0.23428 0.06284 0.0
H394 H 0.09772 0.25188 0.08467 0.0
H395 H 0.10065 0.14481 0.06951 0.0
C396 C 0.46922 0.23627 0.55106 0.0
C397 C 0.42473 0.22119 0.53031 0.0
C398 C 0.47918 0.1696 0.56269 0.0
C399 C 0.43954 0.08751 0.55365 0.0
C400 C 0.39955 0.0706 0.5323 0.0
C401 C 0.39621 0.13686 0.52067 0.0
C402 C 0.5301 0.18768 0.58475 0.0
C403 C 0.35661 0.98395 0.52197 0.0
C404 C 0.47819 0.88668 0.57773 0.0
C405 C 0.4136 0.89121 0.58998 0.0
C406 C 0.49069 0.95224 0.56666 0.0
C407 C 0.43383 1.02163 0.56685 0.0
C408 C 0.36868 1.0268 0.57923 0.0
C409 C 0.36204 0.9636 0.59134 0.0
C410 C 0.56426 0.94551 0.55467 0.0
C411 C 0.30447 0.09792 0.57939 0.0
H412 H 0.49387 0.3008 0.55842 0.0
H413 H 0.36863 0.12318 0.50419 0.0
H414 H 0.48532 0.19502 0.59606 0.0
H415 H 0.57211 0.13312 0.58773 0.0
H416 H 0.57111 0.24776 0.58783 0.0
H417 H 0.32191 0.98396 0.50579 0.0
H418 H 0.40584 0.93396 0.52134 0.0
H419 H 0.30973 0.96525 0.53124 0.0
H420 H 0.5193 0.83168 0.57678 0.0
H421 H 0.31629 0.97137 0.60184 0.0
H422 H 0.58574 1.00913 0.55207 0.0
H423 H 0.5434 0.90287 0.53925 0.0
H424 H 0.62057 0.91572 0.5631 0.0
H425 H 0.33766 0.16047 0.58717 0.0
H426 H 0.25155 0.0863 0.58776 0.0
H427 H 0.27543 0.10395 0.56313 0.0
C428 C 0.24601 0.1683 0.44929 0.0
C429 C 0.17214 0.21478 0.44383 0.0
C430 C 0.24091 0.0786 0.44787 0.0
C431 C 0.15981 1.03404 0.4408 0.0
C432 C 0.08521 0.08039 0.43472 0.0
C433 C 0.09237 0.1704 0.43617 0.0
C434 C 0.32213 1.03176 0.45428 0.0
C435 C 0.99755 1.03512 0.42718 0.0
C436 C 0.15347 0.79634 0.41714 0.0
C437 C 0.1371 0.75681 0.43354 0.0
C438 C 0.16248 0.88603 0.41948 0.0
C439 C 0.15404 0.93835 0.43869 0.0
C440 C 0.14017 0.89908 0.45561 0.0
C441 C 0.13229 0.80835 0.45287 0.0
C442 C 0.17959 0.92479 0.40123 0.0
C443 C 0.13022 0.95284 0.47631 0.0
H444 H 0.30777 0.20278 0.4553 0.0
H445 H 1.03505 0.20646 0.43225 0.0
H446 H 0.31386 0.99619 0.46686 0.0
H447 H 0.33451 0.98347 0.4408 0.0
H448 H 0.37975 0.07631 0.45996 0.0
H449 H 0.94573 0.08047 0.42336 0.0
H450 H 0.99881 0.98549 0.41304 0.0
H451 H 0.9811 1.00131 0.43939 0.0
H452 H 0.15838 0.75673 0.40221 0.0
H453 H 0.11903 0.77813 0.46552 0.0
H454 H 0.23891 0.96719 0.40599 0.0
H455 H 0.12523 0.96544 0.39619 0.0
H456 H 0.18764 0.87485 0.3876 0.0
H457 H 0.18086 1.00527 0.48146 0.0
H458 H 0.13343 0.9134 0.48875 0.0
H459 H 0.06671 0.98374 0.47448 0.0
C460 C 0.52763 0.69088 0.68989 0.0
C461 C 0.47214 0.63113 0.67513 0.0
C462 C 0.61791 0.6892 0.69079 0.0
C463 C 0.65264 0.62707 0.67642 0.0
C464 C 0.59665 0.56416 0.66224 0.0
C465 C 0.50737 0.56691 0.66183 0.0
C466 C 0.67586 0.75565 0.70657 0.0
C467 C 0.63054 0.49623 0.64678 0.0
C468 C 0.87471 0.66524 0.66289 0.0
C469 C 0.92581 0.61118 0.67437 0.0
C470 C 0.78559 0.67199 0.66353 0.0
C471 C 0.74758 0.62559 0.67641 0.0
C472 C 0.79937 0.57249 0.68827 0.0
C473 C 0.88655 0.56443 0.6867 0.0
C474 C 0.73184 0.72814 0.65034 0.0
C475 C 0.76285 0.52269 0.70247 0.0
H476 H 0.50028 0.74191 0.69978 0.0
H477 H 0.4641 0.52179 0.65012 0.0
H478 H 0.72716 0.72341 0.71597 0.0
H479 H 0.70847 0.79781 0.69833 0.0
H480 H 0.63951 0.79662 0.71732 0.0
H481 H 0.5783 0.45183 0.63683 0.0
H482 H 0.66387 0.52765 0.63649 0.0
H483 H 0.67874 0.45751 0.65519 0.0
H484 H 0.90412 0.70187 0.6534 0.0
H485 H 0.92433 0.52189 0.69561 0.0
H486 H 0.70088 0.77794 0.66043 0.0
H487 H 0.67914 0.68848 0.63919 0.0
H488 H 0.77086 0.76074 0.64135 0.0
H489 H 0.71876 0.5624 0.71129 0.0
H490 H 0.81476 0.50064 0.71389 0.0
H491 H 0.72507 0.46513 0.69293 0.0
C492 C 0.27412 0.36666 0.90727 0.0
C493 C 0.34182 0.39793 0.89922 0.0
C494 C 0.27106 0.28013 0.91 0.0
C495 C 0.33867 0.225 0.90517 0.0
C496 C 0.40881 0.25794 0.89784 0.0
C497 C 0.40874 0.34343 0.89464 0.0
C498 C 0.19438 0.24697 0.91748 0.0
C499 C 0.48388 0.20283 0.89327 0.0
C500 C 0.3709 1.02699 0.93065 0.0
C501 C 0.33734 0.95998 0.91404 0.0
C502 C 0.37244 0.11311 0.92791 0.0
C503 C 0.33748 0.13339 0.90816 0.0
C504 C 0.30386 0.06595 0.89124 0.0
C505 C 0.30512 0.97981 0.89433 0.0
C506 C 0.41192 0.18234 0.94616 0.0
C507 C 0.26484 0.08495 0.87001 0.0
H508 H 0.22194 0.40864 0.91055 0.0
H509 H 0.46126 0.36794 0.88843 0.0
H510 H 0.16202 0.19165 0.90576 0.0
H511 H 0.21613 0.22308 0.93228 0.0
H512 H 0.14637 0.29736 0.92013 0.0
H513 H 0.53518 0.23952 0.88857 0.0
H514 H 0.51273 0.17619 0.90729 0.0
H515 H 0.46096 0.14734 0.88051 0.0
H516 H 0.39633 1.01193 0.94592 0.0
H517 H 0.27808 0.92838 0.88154 0.0
H518 H 0.36275 0.22965 0.95011 0.0
H519 H 0.46481 0.21818 0.94187 0.0
H520 H 0.43846 0.15548 0.96033 0.0
H521 H 0.21021 0.12863 0.87146 0.0
H522 H 0.24087 1.02545 0.85856 0.0
H523 H 0.31339 0.11872 0.86375 0.0
C524 C 0.16638 0.40461 0.19741 0.0
C525 C 0.2067 0.35998 0.18159 0.0
C526 C 0.07622 0.40979 0.19462 0.0
C527 C 1.02463 0.3673 0.1757 0.0
C528 C 0.06498 0.32302 0.1595 0.0
C529 C 0.15587 0.32083 0.16255 0.0
C530 C 1.03623 0.46021 0.212 0.0
C531 C 1.01215 0.27571 0.13924 0.0
C532 C 0.79039 0.31232 0.17774 0.0
C533 C 0.74639 0.3745 0.16763 0.0
C534 C 0.88099 0.30841 0.18023 0.0
C535 C 0.92851 0.36971 0.17298 0.0
C536 C 0.88433 0.4348 0.16357 0.0
C537 C 0.79385 0.43564 0.16075 0.0
C538 C 0.92566 0.23736 0.1901 0.0
C539 C 0.93255 0.5034 0.15637 0.0
H540 H 0.20568 0.43545 0.21213 0.0
H541 H 0.18691 0.28554 0.1504 0.0
H542 H 0.9935 0.50942 0.20596 0.0
H543 H 0.99544 0.41647 0.21797 0.0
H544 H 0.0857 0.4932 0.22528 0.0
H545 H 0.05328 0.24524 0.12813 0.0
H546 H 0.97039 0.2248 0.14249 0.0
H547 H 0.96885 0.32066 0.13159 0.0
H548 H 0.75372 0.26457 0.18288 0.0
H549 H 0.75991 0.48426 0.15306 0.0
H550 H 0.97267 0.26539 0.20438 0.0
H551 H 0.96265 0.19887 0.17911 0.0
H552 H 0.87931 0.19347 0.19441 0.0
H553 H 0.9813 0.53785 0.16958 0.0
H554 H 0.88872 0.55139 0.15008 0.0
H555 H 0.96794 0.47316 0.14402 0.0
C556 C 0.18485 0.97382 0.68125 0.0
C557 C 0.24046 0.92534 0.66977 0.0
C558 C 0.18391 0.06432 0.68296 0.0
C559 C 0.24005 0.10669 0.67304 0.0
C560 C 0.29785 0.05808 0.66198 0.0
C561 C 0.29761 0.96856 0.66059 0.0
C562 C 0.12159 0.11447 0.69497 0.0
C563 C 0.35914 0.10032 0.65126 0.0
C564 C 0.18588 0.33069 0.66143 0.0
C565 C 0.2364 0.38336 0.67878 0.0
C566 C 0.18691 0.2402 0.65921 0.0
C567 C 0.2403 0.20215 0.67459 0.0
C568 C 0.29509 0.25535 0.69143 0.0
C569 C 0.29219 0.34515 0.69335 0.0
C570 C 0.12815 0.18545 0.64093 0.0
C571 C 0.35459 0.21756 0.70787 0.0
H572 H 0.14024 0.94098 0.68823 0.0
H573 H 0.34167 0.93194 0.65183 0.0
H574 H 0.15748 0.16414 0.70773 0.0
H575 H 0.07702 0.14884 0.68445 0.0
H576 H 0.08265 0.0723 0.70189 0.0
H577 H 0.40151 0.05327 0.6437 0.0
H578 H 0.32189 0.13272 0.6391 0.0
H579 H 0.40055 0.15063 0.66273 0.0
H580 H 0.14168 0.36007 0.65035 0.0
H581 H 0.3312 0.38593 0.7068 0.0
H582 H 0.08004 0.14902 0.64673 0.0
H583 H 0.16601 0.13742 0.63221 0.0
H584 H 0.09307 0.22467 0.62994 0.0
H585 H 0.31585 0.18205 0.71633 0.0
H586 H 0.39587 0.26778 0.71946 0.0
H587 H 0.39709 0.17057 0.7004 0.0
C588 C 0.65351 0.57991 0.89553 0.0
C589 C 0.60598 0.65086 0.90251 0.0
C590 C 0.74317 0.58733 0.89703 0.0
C591 C 0.78636 0.66817 0.90542 0.0
C592 C 0.73893 0.73991 0.91282 0.0
C593 C 0.64904 0.73015 0.91147 0.0
C594 C 0.79148 0.50872 0.8895 0.0
C595 C 0.78285 0.82735 0.92165 0.0
C596 C 1.02463 0.67273 0.92857 0.0
C597 C 0.06319 0.69268 0.91238 0.0
C598 C 0.93489 0.66345 0.92634 0.0
C599 C 0.88189 0.67611 0.90755 0.0
C600 C 0.92029 0.69483 0.89091 0.0
C601 C 1.01108 0.702 0.89344 0.0
C602 C 0.8969 0.64057 0.94418 0.0
C603 C 0.86545 0.70944 0.8707 0.0
H604 H 0.61995 0.51857 0.88848 0.0
H605 H 0.612 0.78533 0.91647 0.0
H606 H 0.82383 0.52042 0.87663 0.0
H607 H 0.84271 0.49578 0.90237 0.0
H608 H 0.74823 0.45022 0.88377 0.0
H609 H 0.73645 0.87712 0.92612 0.0
H610 H 0.83251 0.82352 0.93565 0.0
H611 H 0.81666 0.84838 0.90994 0.0
H612 H 0.06513 0.66458 0.94317 0.0
H613 H 0.04102 0.71801 0.88101 0.0
H614 H 0.85503 0.58115 0.93866 0.0
H615 H 0.85568 0.69298 0.94999 0.0
H616 H 0.94747 0.62998 0.95747 0.0
H617 H 0.82239 0.65205 0.86346 0.0
H618 H 0.90517 0.72289 0.85927 0.0
H619 H 0.82335 0.76469 0.87395 0.0
C620 C 0.39751 0.6581 0.17234 0.0
C621 C 0.47377 0.61848 0.16841 0.0
C622 C 0.39111 0.74822 0.17442 0.0
C623 C 0.46312 0.79938 0.17278 0.0
C624 C 0.54071 0.75915 0.16921 0.0
C625 C 0.54484 0.66917 0.16695 0.0
C626 C 0.30675 0.78856 0.17777 0.0
C627 C 0.61919 0.81107 0.16758 0.0
C628 C 0.43745 1.02885 0.16181 0.0
C629 C 0.45898 0.07775 0.18204 0.0
C630 C 0.43592 0.9379 0.15851 0.0
C631 C 0.45911 0.89531 0.17581 0.0
C632 C 0.48191 0.94472 0.19619 0.0
C633 C 0.48083 1.03486 0.19904 0.0
C634 C 0.41031 0.88802 0.13648 0.0
C635 C 0.50846 0.90241 0.21503 0.0
H636 H 0.34206 0.61836 0.17301 0.0
H637 H 0.60367 0.63806 0.16385 0.0
H638 H 0.31688 0.83611 0.19263 0.0
H639 H 0.28254 0.82407 0.16495 0.0
H640 H 0.25639 0.73985 0.1783 0.0
H641 H 0.67499 0.77004 0.16508 0.0
H642 H 0.60319 0.84636 0.15438 0.0
H643 H 0.63886 0.8599 0.18206 0.0
H644 H 0.41982 0.0614 0.14864 0.0
H645 H 0.49826 0.07211 0.21475 0.0
H646 H 0.37445 0.82682 0.13605 0.0
H647 H 0.46952 0.8718 0.12989 0.0
H648 H 0.36941 0.92655 0.12626 0.0
H649 H 0.45587 0.85773 0.2163 0.0
H650 H 0.52391 0.95015 0.22986 0.0
H651 H 0.56615 0.86349 0.21321 0.0
C652 C 0.79806 0.55379 0.42335 0.0
C653 C 0.85876 0.50133 0.43289 0.0
C654 C 0.71182 0.55315 0.42613 0.0
C655 C 0.68464 0.49695 0.43834 0.0
C656 C 0.74557 0.4436 0.44805 0.0
C657 C 0.83236 0.44733 0.44545 0.0
C658 C 0.65006 0.61343 0.41615 0.0
C659 C 0.71876 0.38163 0.46089 0.0
C660 C 0.48467 0.54797 0.46234 0.0
C661 C 0.42058 0.49564 0.44801 0.0
C662 C 0.5703 0.5502 0.45915 0.0
C663 C 0.59313 0.49654 0.44151 0.0
C664 C 0.52835 0.44388 0.42685 0.0
C665 C 0.44234 0.44502 0.43014 0.0
C666 C 0.63644 0.60947 0.47477 0.0
C667 C 0.55026 0.38462 0.40804 0.0
H668 H 0.81824 0.59626 0.41379 0.0
H669 H 0.87888 0.40615 0.4527 0.0
H670 H 0.59555 0.57595 0.40517 0.0
H671 H 0.62212 0.65611 0.42836 0.0
H672 H 0.68197 0.65434 0.40745 0.0
H673 H 0.77309 0.34236 0.46674 0.0
H674 H 0.69384 0.41763 0.47449 0.0
H675 H 0.66545 0.3376 0.45132 0.0
H676 H 0.46772 0.58684 0.47623 0.0
H677 H 0.39308 0.40322 0.4193 0.0
H678 H 0.6691 0.6521 0.46665 0.0
H679 H 0.68697 0.57103 0.48252 0.0
H680 H 0.60711 0.65039 0.48702 0.0
H681 H 0.5737 0.42313 0.39753 0.0
H682 H 0.49378 0.34342 0.39898 0.0
H683 H 0.60322 0.34237 0.41307 0.0
loop_
_geom_bond_atom_site_label_1
_geom_bond_atom_site_label_2
_geom_bond_distance
_geom_bond_site_symmetry_2
_ccdc_geom_bond_type
Co0 N1 2.034 . S
Co0 O15 2.262 . S
Co0 O19 1.958 . S
Co0 O23 1.950 . S
Co0 O24 2.057 . S
N1 Co0 2.034 . S
N1 C2 1.366 . S
N1 C4 1.332 . S
C2 N1 1.366 . S
C2 C5 1.377 . S
C2 H34 0.931 . S
N3 C4 1.346 . S
N3 C5 1.337 . S
C4 N1 1.332 . S
C4 N3 1.346 . S
C4 C38 1.361 . S
C5 C2 1.377 . S
C5 N3 1.337 . S
C5 H41 0.930 . S
Co6 N7 2.034 . S
Co6 O20 1.950 . S
Co6 O21 2.262 1_655 S
Co6 O22 1.958 1_655 S
Co6 O26 2.057 1_655 S
N7 Co6 2.034 . S
N7 C10 1.366 . S
N7 C11 1.332 . S
N8 C9 1.337 . S
N8 C11 1.346 . S
C9 N8 1.337 . S
C9 C10 1.377 . S
C9 H42 0.930 . S
C10 N7 1.366 . S
C10 C9 1.377 . S
C10 H14 0.931 . S
C11 N7 1.332 . S
C11 N8 1.346 . S
C11 C28 1.361 . S
Co12 O15 2.097 . S
Co12 O16 2.065 1_455 S
Co12 O17 2.065 . S
Co12 O18 2.042 . S
Co12 O21 2.097 . S
Co12 O25 2.042 . S
C13 O21 1.253 . S
C13 O26 1.263 . S
H14 C10 0.931 . S
O15 Co0 2.262 . S
O15 Co12 2.097 . S
O15 C39 1.253 . S
O16 Co12 2.065 1_655 S
O16 C32 1.221 . S
O17 Co12 2.065 . S
O17 C27 1.221 . S
O18 Co12 2.042 . S
O18 C33 1.237 . S
O19 Co0 1.958 . S
O19 C33 1.278 . S
O20 Co6 1.950 . S
O20 C32 1.277 . S
O21 Co6 2.262 1_455 S
O21 Co12 2.097 . S
O21 C13 1.253 . S
O22 Co6 1.958 1_455 S
O22 C40 1.278 . S
O23 Co0 1.950 . S
O23 C27 1.277 . S
O24 Co0 2.057 . S
O24 C39 1.263 . S
O25 Co12 2.042 . S
O25 C40 1.237 . S
O26 Co6 2.057 1_455 S
O26 C13 1.263 . S
C27 O17 1.221 . S
C27 O23 1.277 . S
C28 C11 1.361 . S
C28 H29 0.960 . S
C28 H30 0.961 . S
C28 H31 0.961 . S
H29 C28 0.960 . S
H30 C28 0.961 . S
H31 C28 0.961 . S
C32 O16 1.221 . S
C32 O20 1.277 . S
C33 O18 1.237 . S
C33 O19 1.278 . S
H34 C2 0.931 . S
H35 C38 0.961 . S
H36 C38 0.961 . S
H37 C38 0.960 . S
C38 C4 1.361 . S
C38 H35 0.961 . S
C38 H36 0.961 . S
C38 H37 0.960 . S
C39 O15 1.253 . S
C39 O24 1.263 . S
C40 O22 1.278 . S
C40 O25 1.237 . S
H41 C5 0.930 . S
H42 C9 0.930 . S
Co43 N44 2.034 . S
Co43 O58 2.262 . S
Co43 O62 1.958 . S
Co43 O66 1.950 . S
Co43 O67 2.057 . S
N44 Co43 2.034 . S
N44 C45 1.366 . S
N44 C47 1.332 . S
C45 N44 1.366 . S
C45 C48 1.377 . S
C45 H77 0.931 . S
N46 C47 1.346 1_655 S
N46 C48 1.337 1_655 S
C47 N44 1.332 . S
C47 N46 1.346 1_455 S
C47 C81 1.361 1_455 S
C48 C45 1.377 . S
C48 N46 1.337 1_455 S
C48 H84 0.930 . S
Co49 N50 2.034 . S
Co49 O63 1.950 . S
Co49 O64 2.262 . S
Co49 O65 1.958 . S
Co49 O69 2.057 . S
N50 Co49 2.034 . S
N50 C53 1.366 . S
N50 C54 1.332 . S
N51 C52 1.337 . S
N51 C54 1.346 . S
C52 N51 1.337 . S
C52 C53 1.377 . S
C52 H85 0.930 . S
C53 N50 1.366 . S
C53 C52 1.377 . S
C53 H57 0.931 . S
C54 N50 1.332 . S
C54 N51 1.346 . S
C54 C71 1.361 . S
Co55 O58 2.097 . S
Co55 O59 2.065 . S
Co55 O60 2.065 . S
Co55 O61 2.042 . S
Co55 O64 2.097 . S
Co55 O68 2.042 . S
C56 O64 1.253 . S
C56 O69 1.263 . S
H57 C53 0.931 . S
O58 Co43 2.262 . S
O58 Co55 2.097 . S
O58 C82 1.253 . S
O59 Co55 2.065 . S
O59 C75 1.221 . S
O60 Co55 2.065 . S
O60 C70 1.221 . S
O61 Co55 2.042 . S
O61 C76 1.237 . S
O62 Co43 1.958 . S
O62 C76 1.278 . S
O63 Co49 1.950 . S
O63 C75 1.277 . S
O64 Co49 2.262 . S
O64 Co55 2.097 . S
O64 C56 1.253 . S
O65 Co49 1.958 . S
O65 C83 1.278 . S
O66 Co43 1.950 . S
O66 C70 1.277 . S
O67 Co43 2.057 . S
O67 C82 1.263 . S
O68 Co55 2.042 . S
O68 C83 1.237 . S
O69 Co49 2.057 . S
O69 C56 1.263 . S
C70 O60 1.221 . S
C70 O66 1.277 . S
C71 C54 1.361 . S
C71 H72 0.960 . S
C71 H73 0.961 . S
C71 H74 0.961 . S
H72 C71 0.960 . S
H73 C71 0.961 . S
H74 C71 0.961 . S
C75 O59 1.221 . S
C75 O63 1.277 . S
C76 O61 1.237 . S
C76 O62 1.278 . S
H77 C45 0.931 . S
H78 C81 0.961 1_455 S
H79 C81 0.961 . S
H80 C81 0.960 1_455 S
C81 C47 1.361 1_655 S
C81 H78 0.961 1_655 S
C81 H79 0.961 . S
C81 H80 0.960 1_655 S
C82 O58 1.253 . S
C82 O67 1.263 . S
C83 O65 1.278 . S
C83 O68 1.237 . S
H84 C48 0.930 . S
H85 C52 0.930 . S
Co86 N87 2.034 . S
Co86 O101 2.262 . S
Co86 O105 1.958 . S
Co86 O109 1.950 . S
Co86 O110 2.057 . S
N87 Co86 2.034 . S
N87 C88 1.366 . S
N87 C90 1.332 . S
C88 N87 1.366 . S
C88 C91 1.377 . S
C88 H120 0.931 . S
N89 C90 1.346 . S
N89 C91 1.337 . S
C90 N87 1.332 . S
C90 N89 1.346 . S
C90 C124 1.361 . S
C91 C88 1.377 . S
C91 N89 1.337 . S
C91 H127 0.930 . S
Co92 N93 2.034 . S
Co92 O106 1.950 . S
Co92 O107 2.262 . S
Co92 O108 1.958 . S
Co92 O112 2.057 . S
N93 Co92 2.034 . S
N93 C96 1.366 . S
N93 C97 1.332 . S
N94 C95 1.337 . S
N94 C97 1.346 . S
C95 N94 1.337 . S
C95 C96 1.377 . S
C95 H128 0.930 . S
C96 N93 1.366 . S
C96 C95 1.377 . S
C96 H100 0.931 . S
C97 N93 1.332 . S
C97 N94 1.346 . S
C97 C114 1.361 . S
Co98 O101 2.097 . S
Co98 O102 2.065 . S
Co98 O103 2.065 . S
Co98 O104 2.042 . S
Co98 O107 2.097 . S
Co98 O111 2.042 . S
C99 O107 1.253 . S
C99 O112 1.263 . S
H100 C96 0.931 . S
O101 Co86 2.262 . S
O101 Co98 2.097 . S
O101 C125 1.253 . S
O102 Co98 2.065 . S
O102 C118 1.221 . S
O103 Co98 2.065 . S
O103 C113 1.221 . S
O104 Co98 2.042 . S
O104 C119 1.237 . S
O105 Co86 1.958 . S
O105 C119 1.278 . S
O106 Co92 1.950 . S
O106 C118 1.277 . S
O107 Co92 2.262 . S
O107 Co98 2.097 . S
O107 C99 1.253 . S
O108 Co92 1.958 . S
O108 C126 1.278 . S
O109 Co86 1.950 . S
O109 C113 1.277 . S
O110 Co86 2.057 . S
O110 C125 1.263 . S
O111 Co98 2.042 . S
O111 C126 1.237 . S
O112 Co92 2.057 . S
O112 C99 1.263 . S
C113 O103 1.221 . S
C113 O109 1.277 . S
C114 C97 1.361 . S
C114 H115 0.960 . S
C114 H116 0.961 . S
C114 H117 0.961 . S
H115 C114 0.960 . S
H116 C114 0.961 . S
H117 C114 0.961 . S
C118 O102 1.221 . S
C118 O106 1.277 . S
C119 O104 1.237 . S
C119 O105 1.278 . S
H120 C88 0.931 . S
H121 C124 0.961 . S
H122 C124 0.961 1_545 S
H123 C124 0.960 . S
C124 C90 1.361 . S
C124 H121 0.961 . S
C124 H122 0.961 1_565 S
C124 H123 0.960 . S
C125 O101 1.253 . S
C125 O110 1.263 . S
C126 O108 1.278 . S
C126 O111 1.237 . S
H127 C91 0.930 . S
H128 C95 0.930 . S
Co129 N130 2.034 . S
Co129 O144 2.262 . S
Co129 O148 1.958 . S
Co129 O152 1.950 . S
Co129 O153 2.057 . S
N130 Co129 2.034 . S
N130 C131 1.366 . S
N130 C133 1.332 . S
C131 N130 1.366 . S
C131 C134 1.377 . S
C131 H163 0.931 . S
N132 C133 1.346 . S
N132 C134 1.337 . S
C133 N130 1.332 . S
C133 N132 1.346 . S
C133 C167 1.361 . S
C134 C131 1.377 . S
C134 N132 1.337 . S
C134 H170 0.930 . S
Co135 N136 2.034 . S
Co135 O149 1.950 . S
Co135 O150 2.262 . S
Co135 O151 1.958 . S
Co135 O155 2.057 . S
N136 Co135 2.034 . S
N136 C139 1.366 . S
N136 C140 1.332 . S
N137 C138 1.337 . S
N137 C140 1.346 . S
C138 N137 1.337 . S
C138 C139 1.377 . S
C138 H171 0.930 . S
C139 N136 1.366 . S
C139 C138 1.377 . S
C139 H143 0.931 . S
C140 N136 1.332 . S
C140 N137 1.346 . S
C140 C157 1.361 . S
Co141 O144 2.097 . S
Co141 O145 2.065 . S
Co141 O146 2.065 . S
Co141 O147 2.042 . S
Co141 O150 2.097 . S
Co141 O154 2.042 . S
C142 O150 1.253 . S
C142 O155 1.263 . S
H143 C139 0.931 . S
O144 Co129 2.262 . S
O144 Co141 2.097 . S
O144 C168 1.253 . S
O145 Co141 2.065 . S
O145 C161 1.221 . S
O146 Co141 2.065 . S
O146 C156 1.221 . S
O147 Co141 2.042 . S
O147 C162 1.237 . S
O148 Co129 1.958 . S
O148 C162 1.278 . S
O149 Co135 1.950 . S
O149 C161 1.277 . S
O150 Co135 2.262 . S
O150 Co141 2.097 . S
O150 C142 1.253 . S
O151 Co135 1.958 . S
O151 C169 1.278 . S
O152 Co129 1.950 . S
O152 C156 1.277 . S
O153 Co129 2.057 . S
O153 C168 1.263 . S
O154 Co141 2.042 . S
O154 C169 1.237 . S
O155 Co135 2.057 . S
O155 C142 1.263 . S
C156 O146 1.221 . S
C156 O152 1.277 . S
C157 C140 1.361 . S
C157 H158 0.960 . S
C157 H159 0.961 . S
C157 H160 0.961 . S
H158 C157 0.960 . S
H159 C157 0.961 . S
H160 C157 0.961 . S
C161 O145 1.221 . S
C161 O149 1.277 . S
C162 O147 1.237 . S
C162 O148 1.278 . S
H163 C131 0.931 . S
H164 C167 0.961 . S
H165 C167 0.961 . S
H166 C167 0.960 . S
C167 C133 1.361 . S
C167 H164 0.961 . S
C167 H165 0.961 . S
C167 H166 0.960 . S
C168 O144 1.253 . S
C168 O153 1.263 . S
C169 O151 1.278 . S
C169 O154 1.237 . S
H170 C134 0.930 . S
H171 C138 0.930 . S
C172 C173 1.391 1_655 S
C172 C174 1.394 1_655 S
C172 H188 0.931 . S
C173 C172 1.391 1_455 S
C173 C177 1.376 . S
C174 C172 1.394 1_455 S
C174 C175 1.369 . S
C174 C178 1.531 1_455 S
C175 C174 1.369 . S
C175 C176 1.410 . S
C175 C183 1.503 . S
C176 C175 1.410 . S
C176 C177 1.392 . S
C176 C179 1.511 . S
C177 C173 1.376 . S
C177 C176 1.392 . S
C177 H189 0.929 . S
C178 C174 1.531 1_655 S
C178 H190 0.960 . S
C178 H191 0.962 . S
C178 H192 0.960 . S
C179 C176 1.511 . S
C179 H193 0.961 . S
C179 H194 0.961 . S
C179 H195 0.961 . S
C180 C181 1.370 . S
C180 C182 1.363 . S
C180 H196 0.931 . S
C181 C180 1.370 . S
C181 C185 1.408 . S
C182 C180 1.363 . S
C182 C183 1.370 . S
C182 C186 1.524 . S
C183 C175 1.503 . S
C183 C182 1.370 . S
C183 C184 1.403 . S
C184 C183 1.403 . S
C184 C185 1.404 . S
C184 C187 1.539 . S
C185 C181 1.408 . S
C185 C184 1.404 . S
C185 H197 0.930 . S
C186 C182 1.524 . S
C186 H198 0.956 . S
C186 H199 0.961 . S
C186 H200 0.961 . S
C187 C184 1.539 . S
C187 H201 0.958 . S
C187 H202 0.961 . S
C187 H203 0.960 . S
H188 C172 0.931 . S
H189 C177 0.929 . S
H190 C178 0.960 . S
H191 C178 0.962 . S
H192 C178 0.960 . S
H193 C179 0.961 . S
H194 C179 0.961 . S
H195 C179 0.961 . S
H196 C180 0.931 . S
H197 C185 0.930 . S
H198 C186 0.956 . S
H199 C186 0.961 . S
H200 C186 0.961 . S
H201 C187 0.958 . S
H202 C187 0.961 . S
H203 C187 0.960 . S
C204 C205 1.391 . S
C204 C206 1.394 . S
C204 H220 0.931 . S
C205 C204 1.391 . S
C205 C209 1.376 . S
C206 C204 1.394 . S
C206 C207 1.369 . S
C206 C210 1.531 . S
C207 C206 1.369 . S
C207 C208 1.410 . S
C207 C215 1.503 . S
C208 C207 1.410 . S
C208 C209 1.392 . S
C208 C211 1.511 . S
C209 C205 1.376 . S
C209 C208 1.392 . S
C209 H221 0.929 . S
C210 C206 1.531 . S
C210 H222 0.960 . S
C210 H223 0.962 . S
C210 H224 0.960 . S
C211 C208 1.511 . S
C211 H225 0.961 . S
C211 H226 0.961 . S
C211 H227 0.961 . S
C212 C213 1.370 . S
C212 C214 1.363 . S
C212 H228 0.931 . S
C213 C212 1.370 . S
C213 C217 1.408 . S
C214 C212 1.363 . S
C214 C215 1.370 . S
C214 C218 1.524 . S
C215 C207 1.503 . S
C215 C214 1.370 . S
C215 C216 1.403 . S
C216 C215 1.403 . S
C216 C217 1.404 . S
C216 C219 1.539 . S
C217 C213 1.408 . S
C217 C216 1.404 . S
C217 H229 0.930 . S
C218 C214 1.524 . S
C218 H230 0.956 . S
C218 H231 0.961 . S
C218 H232 0.961 . S
C219 C216 1.539 . S
C219 H233 0.958 . S
C219 H234 0.961 . S
C219 H235 0.960 . S
H220 C204 0.931 . S
H221 C209 0.929 . S
H222 C210 0.960 . S
H223 C210 0.962 . S
H224 C210 0.960 . S
H225 C211 0.961 . S
H226 C211 0.961 . S
H227 C211 0.961 . S
H228 C212 0.931 . S
H229 C217 0.930 . S
H230 C218 0.956 . S
H231 C218 0.961 . S
H232 C218 0.961 . S
H233 C219 0.958 . S
H234 C219 0.961 . S
H235 C219 0.960 . S
C236 C237 1.391 . S
C236 C238 1.394 . S
C236 H252 0.931 . S
C237 C236 1.391 . S
C237 C241 1.376 . S
C238 C236 1.394 . S
C238 C239 1.369 . S
C238 C242 1.531 . S
C239 C238 1.369 . S
C239 C240 1.410 . S
C239 C247 1.503 . S
C240 C239 1.410 . S
C240 C241 1.392 . S
C240 C243 1.511 . S
C241 C237 1.376 . S
C241 C240 1.392 . S
C241 H253 0.929 . S
C242 C238 1.531 . S
C242 H254 0.960 . S
C242 H255 0.962 . S
C242 H256 0.960 . S
C243 C240 1.511 . S
C243 H257 0.961 . S
C243 H258 0.961 . S
C243 H259 0.961 . S
C244 C245 1.370 . S
C244 C246 1.363 1_554 S
C244 H260 0.931 . S
C245 C244 1.370 . S
C245 C249 1.408 . S
C246 C244 1.363 1_556 S
C246 C247 1.370 . S
C246 C250 1.524 . S
C247 C239 1.503 . S
C247 C246 1.370 . S
C247 C248 1.403 1_556 S
C248 C247 1.403 1_554 S
C248 C249 1.404 . S
C248 C251 1.539 1_554 S
C249 C245 1.408 . S
C249 C248 1.404 . S
C249 H261 0.930 . S
C250 C246 1.524 . S
C250 H262 0.956 . S
C250 H263 0.961 . S
C250 H264 0.961 . S
C251 C248 1.539 1_556 S
C251 H265 0.958 1_556 S
C251 H266 0.961 1_556 S
C251 H267 0.960 . S
H252 C236 0.931 . S
H253 C241 0.929 . S
H254 C242 0.960 . S
H255 C242 0.962 . S
H256 C242 0.960 . S
H257 C243 0.961 . S
H258 C243 0.961 . S
H259 C243 0.961 . S
H260 C244 0.931 . S
H261 C249 0.930 . S
H262 C250 0.956 . S
H263 C250 0.961 . S
H264 C250 0.961 . S
H265 C251 0.958 1_554 S
H266 C251 0.961 1_554 S
H267 C251 0.960 . S
C268 C269 1.391 . S
C268 C270 1.394 . S
C268 H284 0.931 . S
C269 C268 1.391 . S
C269 C273 1.376 . S
C270 C268 1.394 . S
C270 C271 1.369 . S
C270 C274 1.531 . S
C271 C270 1.369 . S
C271 C272 1.410 . S
C271 C279 1.503 . S
C272 C271 1.410 . S
C272 C273 1.392 . S
C272 C275 1.511 . S
C273 C269 1.376 . S
C273 C272 1.392 . S
C273 H285 0.929 . S
C274 C270 1.531 . S
C274 H286 0.960 . S
C274 H287 0.962 . S
C274 H288 0.960 . S
C275 C272 1.511 . S
C275 H289 0.961 . S
C275 H290 0.961 . S
C275 H291 0.961 . S
C276 C277 1.370 . S
C276 C278 1.363 . S
C276 H292 0.931 . S
C277 C276 1.370 . S
C277 C281 1.408 . S
C278 C276 1.363 . S
C278 C279 1.370 . S
C278 C282 1.524 . S
C279 C271 1.503 . S
C279 C278 1.370 . S
C279 C280 1.403 . S
C280 C279 1.403 . S
C280 C281 1.404 . S
C280 C283 1.539 . S
C281 C277 1.408 . S
C281 C280 1.404 . S
C281 H293 0.930 . S
C282 C278 1.524 . S
C282 H294 0.956 . S
C282 H295 0.961 . S
C282 H296 0.961 . S
C283 C280 1.539 . S
C283 H297 0.958 . S
C283 H298 0.961 . S
C283 H299 0.960 . S
H284 C268 0.931 . S
H285 C273 0.929 . S
H286 C274 0.960 . S
H287 C274 0.962 . S
H288 C274 0.960 . S
H289 C275 0.961 . S
H290 C275 0.961 . S
H291 C275 0.961 . S
H292 C276 0.931 . S
H293 C281 0.930 . S
H294 C282 0.956 . S
H295 C282 0.961 . S
H296 C282 0.961 . S
H297 C283 0.958 . S
H298 C283 0.961 . S
H299 C283 0.960 . S
C300 C301 1.391 . S
C300 C302 1.394 . S
C300 H316 0.931 . S
C301 C300 1.391 . S
C301 C305 1.376 . S
C302 C300 1.394 . S
C302 C303 1.369 . S
C302 C306 1.531 . S
C303 C302 1.369 . S
C303 C304 1.410 . S
C303 C311 1.503 . S
C304 C303 1.410 . S
C304 C305 1.392 . S
C304 C307 1.511 . S
C305 C301 1.376 . S
C305 C304 1.392 . S
C305 H317 0.929 . S
C306 C302 1.531 . S
C306 H318 0.960 . S
C306 H319 0.962 1_455 S
C306 H320 0.960 . S
C307 C304 1.511 . S
C307 H321 0.961 . S
C307 H322 0.961 . S
C307 H323 0.961 . S
C308 C309 1.370 . S
C308 C310 1.363 . S
C308 H324 0.931 . S
C309 C308 1.370 . S
C309 C313 1.408 . S
C310 C308 1.363 . S
C310 C311 1.370 . S
C310 C314 1.524 . S
C311 C303 1.503 . S
C311 C310 1.370 . S
C311 C312 1.403 . S
C312 C311 1.403 . S
C312 C313 1.404 . S
C312 C315 1.539 . S
C313 C309 1.408 . S
C313 C312 1.404 . S
C313 H325 0.930 . S
C314 C310 1.524 . S
C314 H326 0.956 1_455 S
C314 H327 0.961 . S
C314 H328 0.961 1_455 S
C315 C312 1.539 . S
C315 H329 0.958 . S
C315 H330 0.961 . S
C315 H331 0.960 . S
H316 C300 0.931 . S
H317 C305 0.929 . S
H318 C306 0.960 . S
H319 C306 0.962 1_655 S
H320 C306 0.960 . S
H321 C307 0.961 . S
H322 C307 0.961 . S
H323 C307 0.961 . S
H324 C308 0.931 . S
H325 C313 0.930 . S
H326 C314 0.956 1_655 S
H327 C314 0.961 . S
H328 C314 0.961 1_655 S
H329 C315 0.958 . S
H330 C315 0.961 . S
H331 C315 0.960 . S
C332 C333 1.391 . S
C332 C334 1.394 . S
C332 H348 0.931 . S
C333 C332 1.391 . S
C333 C337 1.376 . S
C334 C332 1.394 . S
C334 C335 1.369 . S
C334 C338 1.531 . S
C335 C334 1.369 . S
C335 C336 1.410 . S
C335 C343 1.503 . S
C336 C335 1.410 . S
C336 C337 1.392 . S
C336 C339 1.511 . S
C337 C333 1.376 . S
C337 C336 1.392 . S
C337 H349 0.929 . S
C338 C334 1.531 . S
C338 H350 0.960 . S
C338 H351 0.962 . S
C338 H352 0.960 . S
C339 C336 1.511 . S
C339 H353 0.961 . S
C339 H354 0.961 . S
C339 H355 0.961 . S
C340 C341 1.370 . S
C340 C342 1.363 . S
C340 H356 0.931 . S
C341 C340 1.370 . S
C341 C345 1.408 . S
C342 C340 1.363 . S
C342 C343 1.370 . S
C342 C346 1.524 . S
C343 C335 1.503 . S
C343 C342 1.370 . S
C343 C344 1.403 . S
C344 C343 1.403 . S
C344 C345 1.404 . S
C344 C347 1.539 . S
C345 C341 1.408 . S
C345 C344 1.404 . S
C345 H357 0.930 . S
C346 C342 1.524 . S
C346 H358 0.956 . S
C346 H359 0.961 . S
C346 H360 0.961 . S
C347 C344 1.539 . S
C347 H361 0.958 . S
C347 H362 0.961 . S
C347 H363 0.960 . S
H348 C332 0.931 . S
H349 C337 0.929 . S
H350 C338 0.960 . S
H351 C338 0.962 . S
H352 C338 0.960 . S
H353 C339 0.961 . S
H354 C339 0.961 . S
H355 C339 0.961 . S
H356 C340 0.931 . S
H357 C345 0.930 . S
H358 C346 0.956 . S
H359 C346 0.961 . S
H360 C346 0.961 . S
H361 C347 0.958 . S
H362 C347 0.961 . S
H363 C347 0.960 . S
C364 C365 1.391 . S
C364 C366 1.394 . S
C364 H380 0.931 . S
C365 C364 1.391 . S
C365 C369 1.376 . S
C366 C364 1.394 . S
C366 C367 1.369 1_556 S
C366 C370 1.531 . S
C367 C366 1.369 1_554 S
C367 C368 1.410 1_554 S
C367 C375 1.503 . S
C368 C367 1.410 1_556 S
C368 C369 1.392 . S
C368 C371 1.511 1_556 S
C369 C365 1.376 . S
C369 C368 1.392 . S
C369 H381 0.929 1_545 S
C370 C366 1.531 . S
C370 H382 0.960 1_556 S
C370 H383 0.962 1_556 S
C370 H384 0.960 . S
C371 C368 1.511 1_554 S
C371 H385 0.961 1_545 S
C371 H386 0.961 . S
C371 H387 0.961 . S
C372 C373 1.370 . S
C372 C374 1.363 . S
C372 H388 0.931 . S
C373 C372 1.370 . S
C373 C377 1.408 . S
C374 C372 1.363 . S
C374 C375 1.370 . S
C374 C378 1.524 . S
C375 C367 1.503 . S
C375 C374 1.370 . S
C375 C376 1.403 . S
C376 C375 1.403 . S
C376 C377 1.404 . S
C376 C379 1.539 . S
C377 C373 1.408 . S
C377 C376 1.404 . S
C377 H389 0.930 . S
C378 C374 1.524 . S
C378 H390 0.956 . S
C378 H391 0.961 . S
C378 H392 0.961 . S
C379 C376 1.539 . S
C379 H393 0.958 . S
C379 H394 0.961 . S
C379 H395 0.960 . S
H380 C364 0.931 . S
H381 C369 0.929 1_565 S
H382 C370 0.960 1_554 S
H383 C370 0.962 1_554 S
H384 C370 0.960 . S
H385 C371 0.961 1_565 S
H386 C371 0.961 . S
H387 C371 0.961 . S
H388 C372 0.931 . S
H389 C377 0.930 . S
H390 C378 0.956 . S
H391 C378 0.961 . S
H392 C378 0.961 . S
H393 C379 0.958 . S
H394 C379 0.961 . S
H395 C379 0.960 . S
C396 C397 1.391 . S
C396 C398 1.394 . S
C396 H412 0.931 . S
C397 C396 1.391 . S
C397 C401 1.376 . S
C398 C396 1.394 . S
C398 C399 1.369 1_545 S
C398 C402 1.531 . S
C399 C398 1.369 1_565 S
C399 C400 1.410 . S
C399 C407 1.503 . S
C400 C399 1.410 . S
C400 C401 1.392 1_565 S
C400 C403 1.511 . S
C401 C397 1.376 . S
C401 C400 1.392 1_545 S
C401 H413 0.929 . S
C402 C398 1.531 . S
C402 H414 0.960 . S
C402 H415 0.962 . S
C402 H416 0.960 . S
C403 C400 1.511 . S
C403 H417 0.961 . S
C403 H418 0.961 . S
C403 H419 0.961 . S
C404 C405 1.370 . S
C404 C406 1.363 . S
C404 H420 0.931 . S
C405 C404 1.370 . S
C405 C409 1.408 . S
C406 C404 1.363 . S
C406 C407 1.370 . S
C406 C410 1.524 . S
C407 C399 1.503 . S
C407 C406 1.370 . S
C407 C408 1.403 . S
C408 C407 1.403 . S
C408 C409 1.404 . S
C408 C411 1.539 1_565 S
C409 C405 1.408 . S
C409 C408 1.404 . S
C409 H421 0.930 . S
C410 C406 1.524 . S
C410 H422 0.956 . S
C410 H423 0.961 . S
C410 H424 0.961 . S
C411 C408 1.539 1_545 S
C411 H425 0.958 . S
C411 H426 0.961 1_545 S
C411 H427 0.960 . S
H412 C396 0.931 . S
H413 C401 0.929 . S
H414 C402 0.960 . S
H415 C402 0.962 . S
H416 C402 0.960 . S
H417 C403 0.961 . S
H418 C403 0.961 . S
H419 C403 0.961 . S
H420 C404 0.931 . S
H421 C409 0.930 . S
H422 C410 0.956 . S
H423 C410 0.961 . S
H424 C410 0.961 . S
H425 C411 0.958 . S
H426 C411 0.961 1_565 S
H427 C411 0.960 . S
C428 C429 1.391 . S
C428 C430 1.394 1_545 S
C428 H444 0.931 . S
C429 C428 1.391 . S
C429 C433 1.376 1_455 S
C430 C428 1.394 1_565 S
C430 C431 1.369 . S
C430 C434 1.531 . S
C431 C430 1.369 . S
C431 C432 1.410 1_455 S
C431 C439 1.503 . S
C432 C431 1.410 1_655 S
C432 C433 1.392 1_565 S
C432 C435 1.511 . S
C433 C429 1.376 1_655 S
C433 C432 1.392 1_545 S
C433 H445 0.929 . S
C434 C430 1.531 . S
C434 H446 0.960 . S
C434 H447 0.962 . S
C434 H448 0.960 . S
C435 C432 1.511 . S
C435 H449 0.961 . S
C435 H450 0.961 . S
C435 H451 0.961 . S
C436 C437 1.370 . S
C436 C438 1.363 . S
C436 H452 0.931 . S
C437 C436 1.370 . S
C437 C441 1.408 . S
C438 C436 1.363 . S
C438 C439 1.370 . S
C438 C442 1.524 . S
C439 C431 1.503 . S
C439 C438 1.370 . S
C439 C440 1.403 . S
C440 C439 1.403 . S
C440 C441 1.404 . S
C440 C443 1.539 . S
C441 C437 1.408 . S
C441 C440 1.404 . S
C441 H453 0.930 . S
C442 C438 1.524 . S
C442 H454 0.956 . S
C442 H455 0.961 . S
C442 H456 0.961 . S
C443 C440 1.539 . S
C443 H457 0.958 . S
C443 H458 0.961 . S
C443 H459 0.960 . S
H444 C428 0.931 . S
H445 C433 0.929 . S
H446 C434 0.960 . S
H447 C434 0.962 . S
H448 C434 0.960 . S
H449 C435 0.961 . S
H450 C435 0.961 . S
H451 C435 0.961 . S
H452 C436 0.931 . S
H453 C441 0.930 . S
H454 C442 0.956 . S
H455 C442 0.961 . S
H456 C442 0.961 . S
H457 C443 0.958 . S
H458 C443 0.961 . S
H459 C443 0.960 . S
C460 C461 1.391 . S
C460 C462 1.394 . S
C460 H476 0.931 . S
C461 C460 1.391 . S
C461 C465 1.376 . S
C462 C460 1.394 . S
C462 C463 1.369 . S
C462 C466 1.531 . S
C463 C462 1.369 . S
C463 C464 1.410 . S
C463 C471 1.503 . S
C464 C463 1.410 . S
C464 C465 1.392 . S
C464 C467 1.511 . S
C465 C461 1.376 . S
C465 C464 1.392 . S
C465 H477 0.929 . S
C466 C462 1.531 . S
C466 H478 0.960 . S
C466 H479 0.962 . S
C466 H480 0.960 . S
C467 C464 1.511 . S
C467 H481 0.961 . S
C467 H482 0.961 . S
C467 H483 0.961 . S
C468 C469 1.370 . S
C468 C470 1.363 . S
C468 H484 0.931 . S
C469 C468 1.370 . S
C469 C473 1.408 . S
C470 C468 1.363 . S
C470 C471 1.370 . S
C470 C474 1.524 . S
C471 C463 1.503 . S
C471 C470 1.370 . S
C471 C472 1.403 . S
C472 C471 1.403 . S
C472 C473 1.404 . S
C472 C475 1.539 . S
C473 C469 1.408 . S
C473 C472 1.404 . S
C473 H485 0.930 . S
C474 C470 1.524 . S
C474 H486 0.956 . S
C474 H487 0.961 . S
C474 H488 0.961 . S
C475 C472 1.539 . S
C475 H489 0.958 . S
C475 H490 0.961 . S
C475 H491 0.960 . S
H476 C460 0.931 . S
H477 C465 0.929 . S
H478 C466 0.960 . S
H479 C466 0.962 . S
H480 C466 0.960 . S
H481 C467 0.961 . S
H482 C467 0.961 . S
H483 C467 0.961 . S
H484 C468 0.931 . S
H485 C473 0.930 . S
H486 C474 0.956 . S
H487 C474 0.961 . S
H488 C474 0.961 . S
H489 C475 0.958 . S
H490 C475 0.961 . S
H491 C475 0.960 . S
C492 C493 1.391 . S
C492 C494 1.394 . S
C492 H508 0.931 . S
C493 C492 1.391 . S
C493 C497 1.376 . S
C494 C492 1.394 . S
C494 C495 1.369 . S
C494 C498 1.531 . S
C495 C494 1.369 . S
C495 C496 1.410 . S
C495 C503 1.503 . S
C496 C495 1.410 . S
C496 C497 1.392 . S
C496 C499 1.511 . S
C497 C493 1.376 . S
C497 C496 1.392 . S
C497 H509 0.929 . S
C498 C494 1.531 . S
C498 H510 0.960 . S
C498 H511 0.962 . S
C498 H512 0.960 . S
C499 C496 1.511 . S
C499 H513 0.961 . S
C499 H514 0.961 . S
C499 H515 0.961 . S
C500 C501 1.370 1_545 S
C500 C502 1.363 . S
C500 H516 0.931 . S
C501 C500 1.370 1_565 S
C501 C505 1.408 . S
C502 C500 1.363 . S
C502 C503 1.370 . S
C502 C506 1.524 . S
C503 C495 1.503 . S
C503 C502 1.370 . S
C503 C504 1.403 . S
C504 C503 1.403 . S
C504 C505 1.404 1_545 S
C504 C507 1.539 . S
C505 C501 1.408 . S
C505 C504 1.404 1_565 S
C505 H517 0.930 . S
C506 C502 1.524 . S
C506 H518 0.956 . S
C506 H519 0.961 . S
C506 H520 0.961 . S
C507 C504 1.539 . S
C507 H521 0.958 . S
C507 H522 0.961 . S
C507 H523 0.960 . S
H508 C492 0.931 . S
H509 C497 0.929 . S
H510 C498 0.960 . S
H511 C498 0.962 . S
H512 C498 0.960 . S
H513 C499 0.961 . S
H514 C499 0.961 . S
H515 C499 0.961 . S
H516 C500 0.931 . S
H517 C505 0.930 . S
H518 C506 0.956 . S
H519 C506 0.961 . S
H520 C506 0.961 . S
H521 C507 0.958 . S
H522 C507 0.961 . S
H523 C507 0.960 . S
C524 C525 1.391 . S
C524 C526 1.394 1_455 S
C524 H540 0.931 . S
C525 C524 1.391 . S
C525 C529 1.376 . S
C526 C524 1.394 1_655 S
C526 C527 1.369 . S
C526 C530 1.531 . S
C527 C526 1.369 . S
C527 C528 1.410 . S
C527 C535 1.503 . S
C528 C527 1.410 . S
C528 C529 1.392 1_655 S
C528 C531 1.511 . S
C529 C525 1.376 . S
C529 C528 1.392 1_455 S
C529 H541 0.929 . S
C530 C526 1.531 . S
C530 H542 0.960 . S
C530 H543 0.962 . S
C530 H544 0.960 . S
C531 C528 1.511 . S
C531 H545 0.961 . S
C531 H546 0.961 . S
C531 H547 0.961 . S
C532 C533 1.370 . S
C532 C534 1.363 . S
C532 H548 0.931 . S
C533 C532 1.370 . S
C533 C537 1.408 . S
C534 C532 1.363 . S
C534 C535 1.370 . S
C534 C538 1.524 . S
C535 C527 1.503 . S
C535 C534 1.370 . S
C535 C536 1.403 . S
C536 C535 1.403 . S
C536 C537 1.404 . S
C536 C539 1.539 . S
C537 C533 1.408 . S
C537 C536 1.404 . S
C537 H549 0.930 . S
C538 C534 1.524 . S
C538 H550 0.956 . S
C538 H551 0.961 . S
C538 H552 0.961 . S
C539 C536 1.539 . S
C539 H553 0.958 . S
C539 H554 0.961 . S
C539 H555 0.960 . S
H540 C524 0.931 . S
H541 C529 0.929 . S
H542 C530 0.960 . S
H543 C530 0.962 . S
H544 C530 0.960 . S
H545 C531 0.961 . S
H546 C531 0.961 . S
H547 C531 0.961 . S
H548 C532 0.931 . S
H549 C537 0.930 . S
H550 C538 0.956 . S
H551 C538 0.961 . S
H552 C538 0.961 . S
H553 C539 0.958 . S
H554 C539 0.961 . S
H555 C539 0.960 . S
C556 C557 1.391 . S
C556 C558 1.394 . S
C556 H572 0.931 . S
C557 C556 1.391 . S
C557 C561 1.376 . S
C558 C556 1.394 . S
C558 C559 1.369 . S
C558 C562 1.531 1_565 S
C559 C558 1.369 . S
C559 C560 1.410 . S
C559 C567 1.503 1_565 S
C560 C559 1.410 . S
C560 C561 1.392 . S
C560 C563 1.511 . S
C561 C557 1.376 . S
C561 C560 1.392 . S
C561 H573 0.929 . S
C562 C558 1.531 1_545 S
C562 H574 0.960 . S
C562 H575 0.962 . S
C562 H576 0.960 1_545 S
C563 C560 1.511 . S
C563 H577 0.961 . S
C563 H578 0.961 1_565 S
C563 H579 0.961 1_565 S
C564 C565 1.370 . S
C564 C566 1.363 . S
C564 H580 0.931 . S
C565 C564 1.370 . S
C565 C569 1.408 . S
C566 C564 1.363 . S
C566 C567 1.370 . S
C566 C570 1.524 . S
C567 C559 1.503 1_545 S
C567 C566 1.370 . S
C567 C568 1.403 . S
C568 C567 1.403 . S
C568 C569 1.404 . S
C568 C571 1.539 . S
C569 C565 1.408 . S
C569 C568 1.404 . S
C569 H581 0.930 . S
C570 C566 1.524 . S
C570 H582 0.956 . S
C570 H583 0.961 . S
C570 H584 0.961 . S
C571 C568 1.539 . S
C571 H585 0.958 . S
C571 H586 0.961 . S
C571 H587 0.960 . S
H572 C556 0.931 . S
H573 C561 0.929 . S
H574 C562 0.960 . S
H575 C562 0.962 . S
H576 C562 0.960 1_565 S
H577 C563 0.961 . S
H578 C563 0.961 1_545 S
H579 C563 0.961 1_545 S
H580 C564 0.931 . S
H581 C569 0.930 . S
H582 C570 0.956 . S
H583 C570 0.961 . S
H584 C570 0.961 . S
H585 C571 0.958 . S
H586 C571 0.961 . S
H587 C571 0.960 . S
C588 C589 1.391 . S
C588 C590 1.394 . S
C588 H604 0.931 . S
C589 C588 1.391 . S
C589 C593 1.376 . S
C590 C588 1.394 . S
C590 C591 1.369 . S
C590 C594 1.531 . S
C591 C590 1.369 . S
C591 C592 1.410 . S
C591 C599 1.503 . S
C592 C591 1.410 . S
C592 C593 1.392 . S
C592 C595 1.511 . S
C593 C589 1.376 . S
C593 C592 1.392 . S
C593 H605 0.929 . S
C594 C590 1.531 . S
C594 H606 0.960 . S
C594 H607 0.962 . S
C594 H608 0.960 . S
C595 C592 1.511 . S
C595 H609 0.961 . S
C595 H610 0.961 . S
C595 H611 0.961 . S
C596 C597 1.370 . S
C596 C598 1.363 1_455 S
C596 H612 0.931 . S
C597 C596 1.370 . S
C597 C601 1.408 . S
C598 C596 1.363 1_655 S
C598 C599 1.370 . S
C598 C602 1.524 . S
C599 C591 1.503 . S
C599 C598 1.370 . S
C599 C600 1.403 . S
C600 C599 1.403 . S
C600 C601 1.404 1_655 S
C600 C603 1.539 . S
C601 C597 1.408 . S
C601 C600 1.404 1_455 S
C601 H613 0.930 . S
C602 C598 1.524 . S
C602 H614 0.956 . S
C602 H615 0.961 . S
C602 H616 0.961 . S
C603 C600 1.539 . S
C603 H617 0.958 . S
C603 H618 0.961 . S
C603 H619 0.960 . S
H604 C588 0.931 . S
H605 C593 0.929 . S
H606 C594 0.960 . S
H607 C594 0.962 . S
H608 C594 0.960 . S
H609 C595 0.961 . S
H610 C595 0.961 . S
H611 C595 0.961 . S
H612 C596 0.931 . S
H613 C601 0.930 . S
H614 C602 0.956 . S
H615 C602 0.961 . S
H616 C602 0.961 . S
H617 C603 0.958 . S
H618 C603 0.961 . S
H619 C603 0.960 . S
C620 C621 1.391 . S
C620 C622 1.394 . S
C620 H636 0.931 . S
C621 C620 1.391 . S
C621 C625 1.376 . S
C622 C620 1.394 . S
C622 C623 1.369 . S
C622 C626 1.531 . S
C623 C622 1.369 . S
C623 C624 1.410 . S
C623 C631 1.503 . S
C624 C623 1.410 . S
C624 C625 1.392 . S
C624 C627 1.511 . S
C625 C621 1.376 . S
C625 C624 1.392 . S
C625 H637 0.929 . S
C626 C622 1.531 . S
C626 H638 0.960 . S
C626 H639 0.962 . S
C626 H640 0.960 . S
C627 C624 1.511 . S
C627 H641 0.961 . S
C627 H642 0.961 . S
C627 H643 0.961 . S
C628 C629 1.370 . S
C628 C630 1.363 1_545 S
C628 H644 0.931 . S
C629 C628 1.370 . S
C629 C633 1.408 . S
C630 C628 1.363 1_565 S
C630 C631 1.370 . S
C630 C634 1.524 . S
C631 C623 1.503 . S
C631 C630 1.370 . S
C631 C632 1.403 1_565 S
C632 C631 1.403 1_545 S
C632 C633 1.404 . S
C632 C635 1.539 1_545 S
C633 C629 1.408 . S
C633 C632 1.404 . S
C633 H645 0.930 . S
C634 C630 1.524 . S
C634 H646 0.956 . S
C634 H647 0.961 . S
C634 H648 0.961 . S
C635 C632 1.539 1_565 S
C635 H649 0.958 . S
C635 H650 0.961 1_565 S
C635 H651 0.960 . S
H636 C620 0.931 . S
H637 C625 0.929 . S
H638 C626 0.960 . S
H639 C626 0.962 . S
H640 C626 0.960 . S
H641 C627 0.961 . S
H642 C627 0.961 . S
H643 C627 0.961 . S
H644 C628 0.931 . S
H645 C633 0.930 . S
H646 C634 0.956 . S
H647 C634 0.961 . S
H648 C634 0.961 . S
H649 C635 0.958 . S
H650 C635 0.961 1_545 S
H651 C635 0.960 . S
C652 C653 1.391 . S
C652 C654 1.394 . S
C652 H668 0.931 . S
C653 C652 1.391 . S
C653 C657 1.376 . S
C654 C652 1.394 . S
C654 C655 1.369 . S
C654 C658 1.531 . S
C655 C654 1.369 . S
C655 C656 1.410 . S
C655 C663 1.503 . S
C656 C655 1.410 . S
C656 C657 1.392 . S
C656 C659 1.511 . S
C657 C653 1.376 . S
C657 C656 1.392 . S
C657 H669 0.929 . S
C658 C654 1.531 . S
C658 H670 0.960 . S
C658 H671 0.962 . S
C658 H672 0.960 . S
C659 C656 1.511 . S
C659 H673 0.961 . S
C659 H674 0.961 . S
C659 H675 0.961 . S
C660 C661 1.370 . S
C660 C662 1.363 . S
C660 H676 0.931 . S
C661 C660 1.370 . S
C661 C665 1.408 . S
C662 C660 1.363 . S
C662 C663 1.370 . S
C662 C666 1.524 . S
C663 C655 1.503 . S
C663 C662 1.370 . S
C663 C664 1.403 . S
C664 C663 1.403 . S
C664 C665 1.404 . S
C664 C667 1.539 . S
C665 C661 1.408 . S
C665 C664 1.404 . S
C665 H677 0.930 . S
C666 C662 1.524 . S
C666 H678 0.956 . S
C666 H679 0.961 . S
C666 H680 0.961 . S
C667 C664 1.539 . S
C667 H681 0.958 . S
C667 H682 0.961 . S
C667 H683 0.960 . S
H668 C652 0.931 . S
H669 C657 0.929 . S
H670 C658 0.960 . S
H671 C658 0.962 . S
H672 C658 0.960 . S
H673 C659 0.961 . S
H674 C659 0.961 . S
H675 C659 0.961 . S
H676 C660 0.931 . S
H677 C665 0.930 . S
H678 C666 0.956 . S
H679 C666 0.961 . S
H680 C666 0.961 . S
H681 C667 0.958 . S
H682 C667 0.961 . S
H683 C667 0.960 . S
C173 C39 1.821 . S
C181 C56 1.864 . S
C205 N94 1.447 . S
C213 N46 1.436 . S
C237 C125 1.305 . S
C245 N137 1.579 . S
C269 N8 1.775 . S
C277 C168 1.558 . S
C301 N132 1.569 . S
C309 C13 1.380 . S
C333 C82 1.883 . S
C341 C99 1.863 . S
C365 N89 1.778 1_545 S
C373 C142 1.566 . S
C397 N3 1.459 . S
C405 N51 1.431 . S
C429 C27 1.356 . S
C437 C40 1.395 . S
C461 C83 1.420 . S
C469 C70 1.380 1_655 S
C493 C126 1.560 . S
C501 C113 1.531 . S
C525 C156 1.472 . S
C533 C169 1.445 . S
C557 C75 1.400 . S
C565 C76 1.389 . S
C589 C118 1.390 . S
C597 C119 1.382 . S
C621 C161 1.444 . S
C629 C162 1.454 . S
C653 C32 1.547 . S
C661 C33 1.549 . S
