# Generated by pormake.
# Topology uow, (4)-cn, num edge types: 1
# Building blocks:
#     Node 0, Type 0, BuildingBlock: QUQFOY_clean_sbu_3, # of connection points: 4
#     Node 1, Type 0, BuildingBlock: QUQFOY_clean_sbu_3, # of connection points: 4
#     Node 2, Type 0, BuildingBlock: QUQFOY_clean_sbu_3, # of connection points: 4
#     Node 3, Type 0, BuildingBlock: QUQFOY_clean_sbu_3, # of connection points: 4
#     Node 4, Type 0, BuildingBlock: QUQFOY_clean_sbu_3, # of connection points: 4
#     Node 5, Type 0, BuildingBlock: QUQFOY_clean_sbu_3, # of connection points: 4
#     Node 6, Type 0, BuildingBlock: QUQFOY_clean_sbu_3, # of connection points: 4
#     Node 7, Type 0, BuildingBlock: QUQFOY_clean_sbu_3, # of connection points: 4
#     Node 8, Type 0, BuildingBlock: QUQFOY_clean_sbu_3, # of connection points: 4
#     Node 9, Type 0, BuildingBlock: QUQFOY_clean_sbu_3, # of connection points: 4
#     Node 10, Type 0, BuildingBlock: QUQFOY_clean_sbu_3, # of connection points: 4
#     Node 11, Type 0, BuildingBlock: QUQFOY_clean_sbu_3, # of connection points: 4
#     Node 12, Type 0, BuildingBlock: QUQFOY_clean_sbu_3, # of connection points: 4
#     Node 13, Type 0, BuildingBlock: QUQFOY_clean_sbu_3, # of connection points: 4
#     Node 14, Type 0, BuildingBlock: QUQFOY_clean_sbu_3, # of connection points: 4
#     Node 15, Type 0, BuildingBlock: QUQFOY_clean_sbu_3, # of connection points: 4
#     Node 16, Type 0, BuildingBlock: QUQFOY_clean_sbu_3, # of connection points: 4
#     Node 17, Type 0, BuildingBlock: QUQFOY_clean_sbu_3, # of connection points: 4
#     Node 18, Type 0, BuildingBlock: QUQFOY_clean_sbu_3, # of connection points: 4
#     Node 19, Type 0, BuildingBlock: QUQFOY_clean_sbu_3, # of connection points: 4
#     Node 20, Type 0, BuildingBlock: QUQFOY_clean_sbu_3, # of connection points: 4
#     Node 21, Type 0, BuildingBlock: QUQFOY_clean_sbu_3, # of connection points: 4
#     Node 22, Type 0, BuildingBlock: QUQFOY_clean_sbu_3, # of connection points: 4
#     Node 23, Type 0, BuildingBlock: QUQFOY_clean_sbu_3, # of connection points: 4
#     Node 24, Type 0, BuildingBlock: QUQFOY_clean_sbu_3, # of connection points: 4
#     Node 25, Type 0, BuildingBlock: QUQFOY_clean_sbu_3, # of connection points: 4
#     Node 26, Type 0, BuildingBlock: QUQFOY_clean_sbu_3, # of connection points: 4
#     Node 27, Type 0, BuildingBlock: QUQFOY_clean_sbu_3, # of connection points: 4
#     Node 28, Type 0, BuildingBlock: QUQFOY_clean_sbu_3, # of connection points: 4
#     Node 29, Type 0, BuildingBlock: QUQFOY_clean_sbu_3, # of connection points: 4
#     Node 30, Type 0, BuildingBlock: QUQFOY_clean_sbu_3, # of connection points: 4
#     Node 31, Type 0, BuildingBlock: QUQFOY_clean_sbu_3, # of connection points: 4
#     Edge 32, Type (0, 0), BuildingBlock: OJICUG_clean_linker_0, # of connection points: 2
#     Edge 33, Type (0, 0), BuildingBlock: OJICUG_clean_linker_0, # of connection points: 2
#     Edge 34, Type (0, 0), BuildingBlock: OJICUG_clean_linker_0, # of connection points: 2
#     Edge 35, Type (0, 0), BuildingBlock: OJICUG_clean_linker_0, # of connection points: 2
#     Edge 36, Type (0, 0), BuildingBlock: OJICUG_clean_linker_0, # of connection points: 2
#     Edge 37, Type (0, 0), BuildingBlock: OJICUG_clean_linker_0, # of connection points: 2
#     Edge 38, Type (0, 0), BuildingBlock: OJICUG_clean_linker_0, # of connection points: 2
#     Edge 39, Type (0, 0), BuildingBlock: OJICUG_clean_linker_0, # of connection points: 2
#     Edge 40, Type (0, 0), BuildingBlock: OJICUG_clean_linker_0, # of connection points: 2
#     Edge 41, Type (0, 0), BuildingBlock: OJICUG_clean_linker_0, # of connection points: 2
#     Edge 42, Type (0, 0), BuildingBlock: OJICUG_clean_linker_0, # of connection points: 2
#     Edge 43, Type (0, 0), BuildingBlock: OJICUG_clean_linker_0, # of connection points: 2
#     Edge 44, Type (0, 0), BuildingBlock: OJICUG_clean_linker_0, # of connection points: 2
#     Edge 45, Type (0, 0), BuildingBlock: OJICUG_clean_linker_0, # of connection points: 2
#     Edge 46, Type (0, 0), BuildingBlock: OJICUG_clean_linker_0, # of connection points: 2
#     Edge 47, Type (0, 0), BuildingBlock: OJICUG_clean_linker_0, # of connection points: 2
#     Edge 48, Type (0, 0), BuildingBlock: OJICUG_clean_linker_0, # of connection points: 2
#     Edge 49, Type (0, 0), BuildingBlock: OJICUG_clean_linker_0, # of connection points: 2
#     Edge 50, Type (0, 0), BuildingBlock: OJICUG_clean_linker_0, # of connection points: 2
#     Edge 51, Type (0, 0), BuildingBlock: OJICUG_clean_linker_0, # of connection points: 2
#     Edge 52, Type (0, 0), BuildingBlock: OJICUG_clean_linker_0, # of connection points: 2
#     Edge 53, Type (0, 0), BuildingBlock: OJICUG_clean_linker_0, # of connection points: 2
#     Edge 54, Type (0, 0), BuildingBlock: OJICUG_clean_linker_0, # of connection points: 2
#     Edge 55, Type (0, 0), BuildingBlock: OJICUG_clean_linker_0, # of connection points: 2
#     Edge 56, Type (0, 0), BuildingBlock: OJICUG_clean_linker_0, # of connection points: 2
#     Edge 57, Type (0, 0), BuildingBlock: OJICUG_clean_linker_0, # of connection points: 2
#     Edge 58, Type (0, 0), BuildingBlock: OJICUG_clean_linker_0, # of connection points: 2
#     Edge 59, Type (0, 0), BuildingBlock: OJICUG_clean_linker_0, # of connection points: 2
#     Edge 60, Type (0, 0), BuildingBlock: OJICUG_clean_linker_0, # of connection points: 2
#     Edge 61, Type (0, 0), BuildingBlock: OJICUG_clean_linker_0, # of connection points: 2
#     Edge 62, Type (0, 0), BuildingBlock: OJICUG_clean_linker_0, # of connection points: 2
#     Edge 63, Type (0, 0), BuildingBlock: OJICUG_clean_linker_0, # of connection points: 2
#     Edge 64, Type (0, 0), BuildingBlock: OJICUG_clean_linker_0, # of connection points: 2
#     Edge 65, Type (0, 0), BuildingBlock: OJICUG_clean_linker_0, # of connection points: 2
#     Edge 66, Type (0, 0), BuildingBlock: OJICUG_clean_linker_0, # of connection points: 2
#     Edge 67, Type (0, 0), BuildingBlock: OJICUG_clean_linker_0, # of connection points: 2
#     Edge 68, Type (0, 0), BuildingBlock: OJICUG_clean_linker_0, # of connection points: 2
#     Edge 69, Type (0, 0), BuildingBlock: OJICUG_clean_linker_0, # of connection points: 2
#     Edge 70, Type (0, 0), BuildingBlock: OJICUG_clean_linker_0, # of connection points: 2
#     Edge 71, Type (0, 0), BuildingBlock: OJICUG_clean_linker_0, # of connection points: 2
#     Edge 72, Type (0, 0), BuildingBlock: OJICUG_clean_linker_0, # of connection points: 2
#     Edge 73, Type (0, 0), BuildingBlock: OJICUG_clean_linker_0, # of connection points: 2
#     Edge 74, Type (0, 0), BuildingBlock: OJICUG_clean_linker_0, # of connection points: 2
#     Edge 75, Type (0, 0), BuildingBlock: OJICUG_clean_linker_0, # of connection points: 2
#     Edge 76, Type (0, 0), BuildingBlock: OJICUG_clean_linker_0, # of connection points: 2
#     Edge 77, Type (0, 0), BuildingBlock: OJICUG_clean_linker_0, # of connection points: 2
#     Edge 78, Type (0, 0), BuildingBlock: OJICUG_clean_linker_0, # of connection points: 2
#     Edge 79, Type (0, 0), BuildingBlock: OJICUG_clean_linker_0, # of connection points: 2
#     Edge 80, Type (0, 0), BuildingBlock: OJICUG_clean_linker_0, # of connection points: 2
#     Edge 81, Type (0, 0), BuildingBlock: OJICUG_clean_linker_0, # of connection points: 2
#     Edge 82, Type (0, 0), BuildingBlock: OJICUG_clean_linker_0, # of connection points: 2
#     Edge 83, Type (0, 0), BuildingBlock: OJICUG_clean_linker_0, # of connection points: 2
#     Edge 84, Type (0, 0), BuildingBlock: OJICUG_clean_linker_0, # of connection points: 2
#     Edge 85, Type (0, 0), BuildingBlock: OJICUG_clean_linker_0, # of connection points: 2
#     Edge 86, Type (0, 0), BuildingBlock: OJICUG_clean_linker_0, # of connection points: 2
#     Edge 87, Type (0, 0), BuildingBlock: OJICUG_clean_linker_0, # of connection points: 2
#     Edge 88, Type (0, 0), BuildingBlock: OJICUG_clean_linker_0, # of connection points: 2
#     Edge 89, Type (0, 0), BuildingBlock: OJICUG_clean_linker_0, # of connection points: 2
#     Edge 90, Type (0, 0), BuildingBlock: OJICUG_clean_linker_0, # of connection points: 2
#     Edge 91, Type (0, 0), BuildingBlock: OJICUG_clean_linker_0, # of connection points: 2
#     Edge 92, Type (0, 0), BuildingBlock: OJICUG_clean_linker_0, # of connection points: 2
#     Edge 93, Type (0, 0), BuildingBlock: OJICUG_clean_linker_0, # of connection points: 2
#     Edge 94, Type (0, 0), BuildingBlock: OJICUG_clean_linker_0, # of connection points: 2
#     Edge 95, Type (0, 0), BuildingBlock: OJICUG_clean_linker_0, # of connection points: 2
# Relax obj value: 0.097
# Max RMSD: 0.129
# Mean RMSD: 0.129
data_MOF--net-uow--node1-QUQFOY_clean_sbu_3--edge1-OJICUG_clean_linker_0
_symmetry_space_group_name_H-M    P1
_symmetry_Int_Tables_number       1
_symmetry_cell_setting            triclinic
loop_
_symmetry_equiv_pos_as_xyz
'x, y, z'
_cell_length_a     48.781225
_cell_length_b     48.458897
_cell_length_c     30.17955
_cell_angle_alpha  89.995926
_cell_angle_beta   89.948114
_cell_angle_gamma 90.074828
loop_
_atom_site_label
_atom_site_type_symbol
_atom_site_fract_x
_atom_site_fract_y
_atom_site_fract_z
_atom_type_partial_charge
C0 C 0.00385 0.30471 0.28102 0.0
O1 O 0.01077 0.28062 0.26885 0.0
Cd2 Cd 0.05593 0.272 0.24029 0.0
O3 O 0.01932 0.32533 0.27332 0.0
Cd4 Cd 0.06205 0.33736 0.2341 0.0
C5 C 0.09245 0.30818 0.32044 0.0
O6 O 0.06158 0.3015 0.1785 0.0
O7 O 0.10025 0.32268 0.18749 0.0
O8 O 0.03431 0.37286 0.20011 0.0
C9 C 0.08614 0.30519 0.16613 0.0
O10 O 0.08598 0.28556 0.30156 0.0
C11 C 0.05213 0.39176 0.20457 0.0
O12 O 0.08482 0.33128 0.30481 0.0
O13 O 0.07466 0.38529 0.22294 0.0
C14 C 0.86122 0.69034 0.47109 0.0
O15 O 0.87991 0.69582 0.44311 0.0
Cd16 Cd 0.88833 0.7435 0.42138 0.0
O17 O 0.84461 0.70907 0.48295 0.0
Cd18 Cd 0.83197 0.75659 0.47004 0.0
C19 C 0.88747 0.76928 0.52838 0.0
O20 O 0.85024 0.7708 0.39862 0.0
O21 O 0.84473 0.80194 0.44965 0.0
O22 O 0.78643 0.74254 0.45072 0.0
C23 C 0.85206 0.79601 0.41053 0.0
O24 O 0.90004 0.76493 0.49197 0.0
C25 C 0.77484 0.75901 0.47757 0.0
O26 O 0.86184 0.76493 0.53261 0.0
O27 O 0.79001 0.77404 0.50188 0.0
C28 C 0.51508 0.64184 0.78372 0.0
O29 O 0.50669 0.66084 0.75823 0.0
Cd30 Cd 0.46072 0.65931 0.72991 0.0
O31 O 0.50058 0.62037 0.78983 0.0
Cd32 Cd 0.45801 0.60012 0.76243 0.0
C33 C 0.42544 0.64326 0.8265 0.0
O34 O 0.45122 0.61882 0.68843 0.0
O35 O 0.41487 0.60831 0.72612 0.0
O36 O 0.48315 0.55969 0.73907 0.0
C37 C 0.42548 0.61491 0.68929 0.0
O38 O 0.43005 0.65969 0.79434 0.0
C39 C 0.46555 0.5428 0.75405 0.0
O40 O 0.43593 0.61925 0.82758 0.0
O41 O 0.44543 0.55262 0.77567 0.0
C42 C 0.54351 0.24546 0.02746 0.0
O43 O 0.53117 0.22808 0.0031 0.0
Cd44 Cd 0.5498 0.18668 0.97539 0.0
O45 O 0.56865 0.24213 0.03822 0.0
Cd46 Cd 0.60446 0.20632 0.0244 0.0
C47 C 0.56364 0.1621 0.07969 0.0
O48 O 0.59321 0.20098 0.9493 0.0
O49 O 0.61495 0.16616 0.97476 0.0
O50 O 0.64302 0.23857 0.01813 0.0
C51 C 0.60486 0.17835 0.94138 0.0
O52 O 0.55071 0.15897 0.04335 0.0
C53 C 0.659 0.22331 0.04062 0.0
O54 O 0.58314 0.17943 0.08281 0.0
O55 O 0.64857 0.20207 0.05863 0.0
C56 C 0.96006 0.59581 0.19643 0.0
O57 O 0.96264 0.60892 0.23262 0.0
Cd58 Cd 0.00684 0.61489 0.26586 0.0
O59 O -0.02068 0.58038 0.18243 0.0
Cd60 Cd 0.02452 0.56265 0.20454 0.0
C61 C 0.04083 0.62394 0.16495 0.0
O62 O 0.02747 0.57245 0.28229 0.0
O63 O 0.06562 0.57341 0.24627 0.0
O64 O 0.00948 0.51531 0.20519 0.0
C65 C 0.05316 0.57651 0.28282 0.0
O66 O 0.03284 0.63302 0.2025 0.0
C67 C 0.02975 0.50641 0.18292 0.0
O68 O 0.03834 0.59865 0.15417 0.0
O69 O 0.04692 0.52407 0.16865 0.0
C70 C 0.56862 0.71149 0.44046 0.0
O71 O 0.54676 0.71714 0.46145 0.0
Cd72 Cd 0.53823 0.7635 0.48571 0.0
O73 O 0.58757 0.72936 0.43664 0.0
Cd74 Cd 0.60128 0.77541 0.46103 0.0
C75 C 0.55583 0.79789 0.38818 0.0
O76 O 0.57617 0.77681 0.52968 0.0
O77 O 0.59248 0.81578 0.50662 0.0
O78 O 0.64244 0.75139 0.48111 0.0
C79 C 0.57953 0.80243 0.53607 0.0
O80 O 0.53818 0.79018 0.41679 0.0
C81 C 0.65843 0.7703 0.46774 0.0
O82 O 0.58133 0.7938 0.39367 0.0
O83 O 0.64778 0.79166 0.45049 0.0
C84 C 0.51426 0.3267 0.67008 0.0
O85 O 0.50801 0.30824 0.69823 0.0
Cd86 Cd 0.46674 0.30848 0.74204 0.0
O87 O 0.5003 0.34879 0.66696 0.0
Cd88 Cd 0.46165 0.37123 0.70465 0.0
C89 C 0.42139 0.32437 0.65695 0.0
O90 O 0.46221 0.35107 0.7782 0.0
O91 O 0.42456 0.37025 0.75714 0.0
O92 O 0.48714 0.4133 0.71834 0.0
C93 C 0.43755 0.3574 0.78697 0.0
O94 O 0.42987 0.3083 0.68746 0.0
C95 C 0.46812 0.42878 0.70394 0.0
O96 O 0.43139 0.34846 0.65171 0.0
O97 O 0.44744 0.41723 0.68627 0.0
C98 C 0.87454 0.26804 0.94499 0.0
O99 O 0.89517 0.2577 0.9645 0.0
Cd100 Cd 0.89666 0.21444 0.00159 0.0
O101 O 0.85096 0.25668 0.94718 0.0
Cd102 Cd 0.83026 0.21688 -0.01263 0.0
C103 C 0.86558 0.17582 0.91857 0.0
O104 O 0.85978 0.21663 0.05097 0.0
O105 O 0.8374 0.17905 0.04069 0.0
O106 O 0.79081 0.24499 0.01048 0.0
C107 C 0.85424 0.19252 0.06416 0.0
O108 O 0.88615 0.18067 0.94346 0.0
C109 C 0.77382 0.2256 0.0034 0.0
O110 O 0.84278 0.18808 0.9243 0.0
O111 O 0.78299 0.20345 -0.01343 0.0
C112 C 0.97662 0.66311 0.66698 0.0
O113 O 0.96015 0.68271 0.67528 0.0
Cd114 Cd 0.91594 0.67819 0.70661 0.0
O115 O 0.97003 0.63814 0.67511 0.0
Cd116 Cd 0.92899 0.61469 0.70575 0.0
C117 C 0.88977 0.63821 0.62322 0.0
O118 O 0.92448 0.6472 0.76493 0.0
O119 O 0.88956 0.62059 0.75699 0.0
O120 O 0.96059 0.57955 0.73427 0.0
C121 C 0.90186 0.63872 0.77978 0.0
O122 O 0.88784 0.66 0.64656 0.0
C123 C 0.94302 0.5603 0.731 0.0
O124 O 0.90581 0.61878 0.63434 0.0
O125 O 0.92005 0.56625 0.71385 0.0
C126 C 0.10069 0.26326 0.48512 0.0
O127 O 0.07914 0.26635 0.50814 0.0
Cd128 Cd 0.05424 0.22349 0.51177 0.0
O129 O 0.11139 0.23945 0.48206 0.0
Cd130 Cd 0.10956 0.19293 0.51329 0.0
C131 C 0.08009 0.19174 0.41622 0.0
O132 O 0.06998 0.18949 0.56279 0.0
O133 O 0.08261 0.1529 0.52631 0.0
O134 O 0.14556 0.20498 0.56462 0.0
C135 C 0.06622 0.16407 0.55356 0.0
O136 O 0.06191 0.20533 0.43729 0.0
C137 C 0.1616 0.18575 0.55255 0.0
O138 O 0.10166 0.18298 0.43533 0.0
O139 O 0.15302 0.16925 0.52279 0.0
C140 C 0.40608 0.33697 0.20952 0.0
O141 O 0.40634 0.31931 0.24042 0.0
Cd142 Cd 0.45304 0.30482 0.25043 0.0
O143 O 0.42826 0.34923 0.19949 0.0
Cd144 Cd 0.47502 0.35323 0.22862 0.0
C145 C 0.48447 0.3117 0.1487 0.0
O146 O 0.48547 0.32819 0.29773 0.0
O147 O 0.51434 0.32564 0.24308 0.0
O148 O 0.46798 0.39843 0.26087 0.0
C149 C 0.50944 0.32224 0.2839 0.0
O150 O 0.47286 0.29586 0.17676 0.0
C151 C 0.48857 0.40907 0.24154 0.0
O152 O 0.48806 0.33707 0.15718 0.0
O153 O 0.50232 0.39382 0.21564 0.0
C154 C 0.37051 0.70509 0.95868 0.0
O155 O 0.38587 0.71387 -0.0104 0.0
Cd156 Cd 0.38018 0.75883 0.0227 0.0
O157 O 0.34905 0.71834 0.94778 0.0
Cd158 Cd 0.32307 0.75932 0.9694 0.0
C159 C 0.37412 0.79415 0.92316 0.0
O160 O 0.33464 0.76669 0.04624 0.0
O161 O 0.32292 0.80259 0.00834 0.0
O162 O 0.28 0.73523 0.9778 0.0
C163 C 0.32995 0.79245 0.04529 0.0
O164 O 0.38696 0.78983 0.95934 0.0
C165 C 0.26689 0.75195 0.95329 0.0
O166 O 0.35087 0.78317 0.91558 0.0
O167 O 0.28051 0.77082 0.934 0.0
C168 C 0.00574 0.34239 0.77887 0.0
O169 O -0.00295 0.3275 0.74725 0.0
Cd170 Cd 0.95276 0.3327 0.7144 0.0
O171 O -0.00734 0.36385 0.79092 0.0
Cd172 Cd 0.95184 0.38952 0.76502 0.0
C173 C 0.91605 0.3393 0.81225 0.0
O174 O 0.948 0.37807 0.68725 0.0
O175 O 0.91014 0.387 0.72107 0.0
O176 O 0.97524 0.43347 0.75594 0.0
C177 C 0.92239 0.3821 0.68489 0.0
O178 O 0.92077 0.32597 0.7766 0.0
C179 C 0.95728 0.447 0.77731 0.0
O180 O 0.92687 0.36282 0.81926 0.0
O181 O 0.93827 0.4333 0.79594 0.0
C182 C 0.36548 0.25448 0.53909 0.0
O183 O 0.37824 0.24982 0.50317 0.0
Cd184 Cd 0.3804 0.20416 0.47277 0.0
O185 O 0.35015 0.236 0.5561 0.0
Cd186 Cd 0.33171 0.18948 0.54233 0.0
C187 C 0.39437 0.171 0.57292 0.0
O188 O 0.33578 0.18637 0.46308 0.0
O189 O 0.33656 0.14778 0.49843 0.0
O190 O 0.28664 0.20869 0.55097 0.0
C191 C 0.33732 0.16028 0.46157 0.0
O192 O 0.40138 0.17803 0.53375 0.0
C193 C 0.2769 0.18843 0.57254 0.0
O194 O 0.3701 0.17481 0.58736 0.0
O195 O 0.29314 0.16883 0.58213 0.0
C196 C 0.46868 0.61955 0.26995 0.0
O197 O 0.4725 0.63775 0.24031 0.0
Cd198 Cd 0.51747 0.64276 0.20927 0.0
O199 O 0.48635 0.60072 0.27657 0.0
Cd200 Cd 0.52886 0.57961 0.24978 0.0
C201 C 0.55279 0.63139 0.30938 0.0
O202 O 0.53143 0.60052 0.17881 0.0
O203 O 0.56951 0.58344 0.20253 0.0
O204 O 0.50025 0.54041 0.23786 0.0
C205 C 0.55691 0.59692 0.17289 0.0
O206 O 0.54474 0.64647 0.27725 0.0
C207 C 0.51677 0.52323 0.25493 0.0
O208 O 0.54839 0.60549 0.3104 0.0
O209 O 0.53945 0.53234 0.26984 0.0
C210 C 0.05886 0.71558 0.05163 0.0
O211 O 0.03655 0.72587 0.03777 0.0
Cd212 Cd 0.03392 0.77237 0.01251 0.0
O213 O 0.08135 0.72879 0.04842 0.0
Cd214 Cd 0.09835 0.77197 0.01497 0.0
C215 C 0.06916 0.8047 0.0982 0.0
O216 O 0.06626 0.77473 0.9543 0.0
O217 O 0.08859 0.81219 0.96857 0.0
O218 O 0.13473 0.74333 -0.01547 0.0
C219 C 0.07243 0.79915 0.94325 0.0
O220 O 0.04714 0.80048 0.07655 0.0
C221 C 0.15289 0.76185 -0.01065 0.0
O222 O 0.09194 0.79492 0.0854 0.0
O223 O 0.14577 0.7843 0.00765 0.0
C224 C 0.44758 0.83406 0.79334 0.0
O225 O 0.45554 0.81392 0.7697 0.0
Cd226 Cd 0.49892 0.81046 0.7337 0.0
O227 O 0.46204 0.85585 0.797 0.0
Cd228 Cd 0.50536 0.87312 0.76539 0.0
C229 C 0.53873 0.82601 0.82494 0.0
O230 O 0.50336 0.8517 0.69321 0.0
O231 O 0.54302 0.86682 0.71296 0.0
O232 O 0.48628 0.91846 0.74996 0.0
C233 C 0.52813 0.85615 0.68317 0.0
O234 O 0.53241 0.80914 0.79418 0.0
C235 C 0.50711 0.93106 0.76516 0.0
O236 O 0.52954 0.85054 0.82534 0.0
O237 O 0.52558 0.91667 0.78357 0.0
C238 C 0.38249 0.21709 0.02622 0.0
O239 O 0.40448 0.22768 0.01148 0.0
Cd240 Cd 0.40555 0.27224 0.9781 0.0
O241 O 0.35927 0.22787 0.01784 0.0
Cd242 Cd 0.34052 0.26536 0.97146 0.0
C243 C 0.362 0.30542 0.053 0.0
O244 O 0.37631 0.27069 0.9167 0.0
O245 O 0.35059 0.30621 0.92732 0.0
O246 O 0.30952 0.23229 0.93602 0.0
C247 C 0.37002 0.2951 0.90591 0.0
O248 O 0.38534 0.30233 0.03458 0.0
C249 C 0.2893 0.24876 0.93676 0.0
O250 O 0.34101 0.29227 0.03954 0.0
O251 O 0.2928 0.27205 0.95517 0.0
C252 C 0.01731 0.16453 0.26955 0.0
O253 O 0.00533 0.1842 0.24961 0.0
Cd254 Cd 0.95915 0.18311 0.22293 0.0
O255 O 0.00548 0.14121 0.27405 0.0
Cd256 Cd 0.96151 0.11932 0.25328 0.0
C257 C 0.93017 0.16276 0.32241 0.0
O258 O 0.95293 0.14182 0.18318 0.0
O259 O 0.91813 0.12195 0.21333 0.0
O260 O -0.01476 0.07668 0.23385 0.0
C261 C 0.9278 0.1354 0.18093 0.0
O262 O 0.93199 0.18019 0.29088 0.0
C263 C 0.96727 0.06152 0.25226 0.0
O264 O 0.94164 0.13924 0.32012 0.0
O265 O 0.94787 0.07338 0.27279 0.0
C266 C 0.0932 0.75819 0.49412 0.0
O267 O 0.08177 0.75969 0.4565 0.0
Cd268 Cd 0.0671 0.71341 0.43861 0.0
O269 O 0.10266 0.73514 0.50697 0.0
Cd270 Cd 0.11243 0.68886 0.47809 0.0
C271 C 0.06196 0.68492 0.54394 0.0
O272 O 0.09543 0.67926 0.40305 0.0
O273 O 0.09161 0.64728 0.45342 0.0
O274 O 0.1568 0.70396 0.45536 0.0
C275 C 0.09015 0.6542 0.41299 0.0
O276 O 0.05132 0.69692 0.51059 0.0
C277 C 0.16972 0.68478 0.4749 0.0
O278 O 0.08702 0.67779 0.54394 0.0
O279 O 0.15583 0.66742 0.49727 0.0
C280 C 0.48705 0.14508 0.68079 0.0
O281 O 0.49676 0.16559 0.70179 0.0
Cd282 Cd 0.54137 0.16635 0.73423 0.0
O283 O 0.4999 0.12221 0.67891 0.0
Cd284 Cd 0.54143 0.10012 0.71035 0.0
C285 C 0.57858 0.14091 0.64436 0.0
O286 O 0.54173 0.12593 0.77681 0.0
O287 O 0.57873 0.10272 0.76628 0.0
O288 O 0.51047 0.0629 0.72883 0.0
C289 C 0.56515 0.11899 0.79067 0.0
O290 O 0.57273 0.16001 0.67186 0.0
C291 C 0.52754 0.04405 0.71942 0.0
O292 O 0.56836 0.11682 0.64801 0.0
O293 O 0.55053 0.05138 0.70338 0.0
C294 C 0.07094 0.18426 0.89639 0.0
O295 O 0.05688 0.19191 0.92965 0.0
Cd296 Cd 0.06645 0.23082 0.97614 0.0
O297 O 0.09365 0.1959 0.88697 0.0
Cd298 Cd 0.1227 0.23252 0.91912 0.0
C299 C 0.07358 0.27841 0.89202 0.0
O300 O 0.11281 0.2271 -0.00284 0.0
O301 O 0.13148 0.26558 0.97847 0.0
O302 O 0.16635 0.20832 0.91379 0.0
C303 C 0.12256 0.25015 0.00912 0.0
O304 O 0.06079 0.2706 0.92671 0.0
C305 C 0.17809 0.22804 0.89339 0.0
O306 O 0.09561 0.2666 0.87974 0.0
O307 O 0.16312 0.24809 0.88127 0.0
C308 C 0.01927 0.84686 0.24711 0.0
O309 O 0.01234 0.82997 0.27731 0.0
Cd310 Cd 0.96524 0.82786 0.30251 0.0
O311 O 0.0028 0.86567 0.23498 0.0
Cd312 Cd 0.95855 0.88641 0.24944 0.0
C313 C 0.93773 0.83027 0.19599 0.0
O314 O 0.94593 0.87084 0.32223 0.0
O315 O 0.91285 0.88078 0.27728 0.0
O316 O -0.01941 0.92985 0.26515 0.0
C317 C 0.92028 0.87165 0.31474 0.0
O318 O 0.94176 0.81795 0.2328 0.0
C319 C 0.96515 0.9437 0.23964 0.0
O320 O 0.94443 0.85548 0.19011 0.0
O321 O 0.94709 0.93065 0.21758 0.0
C322 C 0.3781 0.73965 0.44093 0.0
O323 O 0.39671 0.73633 0.46978 0.0
Cd324 Cd 0.40234 0.69201 0.50389 0.0
O325 O 0.36006 0.72108 0.43468 0.0
Cd326 Cd 0.34406 0.67677 0.46383 0.0
C327 C 0.39627 0.65269 0.40736 0.0
O328 O 0.36089 0.67852 0.53853 0.0
O329 O 0.35553 0.63785 0.51041 0.0
O330 O 0.30072 0.6988 0.47405 0.0
C331 C 0.36103 0.65259 0.54393 0.0
O332 O 0.4103 0.66139 0.44021 0.0
C333 C 0.28659 0.67865 0.45994 0.0
O334 O 0.37067 0.65728 0.4044 0.0
O335 O 0.29935 0.65744 0.44624 0.0
C336 C 0.49266 0.13416 0.2205 0.0
O337 O 0.48748 0.15366 0.24727 0.0
Cd338 Cd 0.4411 0.15857 0.27389 0.0
O339 O 0.47483 0.11552 0.21366 0.0
Cd340 Cd 0.42953 0.10169 0.24063 0.0
C341 C 0.40781 0.15015 0.17422 0.0
O342 O 0.42404 0.12007 0.31511 0.0
O343 O 0.38719 0.11533 0.27569 0.0
O344 O 0.44921 0.05771 0.25939 0.0
C345 C 0.39801 0.11976 0.3132 0.0
O346 O 0.41349 0.16581 0.20689 0.0
C347 C 0.42992 0.04374 0.24229 0.0
O348 O 0.41378 0.12465 0.17476 0.0
O349 O 0.41069 0.05682 0.22322 0.0
C350 C 0.58499 0.76412 0.96505 0.0
O351 O 0.56687 0.75644 -0.00734 0.0
Cd352 Cd 0.56698 0.70996 0.02096 0.0
O353 O 0.60629 0.74957 0.9587 0.0
Cd354 Cd 0.62809 0.70794 -0.01228 0.0
C355 C 0.58385 0.67839 0.92111 0.0
O356 O 0.60746 0.69775 0.05889 0.0
O357 O 0.62232 0.66317 0.02039 0.0
O358 O 0.66839 0.73226 0.01359 0.0
C359 C 0.61198 0.67195 0.05624 0.0
O360 O 0.5672 0.6824 0.95308 0.0
C361 C 0.68479 0.71531 -0.00452 0.0
O362 O 0.60819 0.68784 0.9218 0.0
O363 O 0.67464 0.6965 0.97114 0.0
C364 C 0.961 0.80505 0.66357 0.0
O365 O 0.97089 0.78631 0.68819 0.0
Cd366 Cd 0.01272 0.79313 0.72764 0.0
O367 O 0.97163 0.82907 0.66232 0.0
Cd368 Cd 0.00793 0.85689 0.69708 0.0
C369 C 0.05132 0.81764 0.63863 0.0
O370 O 0.00546 0.83445 0.76745 0.0
O371 O 0.04186 0.85878 0.75748 0.0
O372 O 0.97339 0.89284 0.70564 0.0
C373 C 0.02739 0.84416 0.78333 0.0
O374 O 0.04636 0.79931 0.66791 0.0
C375 C -0.01003 0.91238 0.69735 0.0
O376 O 0.03891 0.84073 0.63898 0.0
O377 O 0.01427 0.90585 0.68637 0.0
C378 C 0.895 0.22812 0.46432 0.0
O379 O 0.91129 0.23276 0.49624 0.0
Cd380 Cd 0.91562 0.28041 0.51874 0.0
O381 O 0.87877 0.24694 0.45133 0.0
Cd382 Cd 0.8614 0.29329 0.46458 0.0
C383 C 0.91922 0.3056 0.41079 0.0
O384 O 0.87315 0.30065 0.54106 0.0
O385 O 0.87065 0.33719 0.49975 0.0
O386 O 0.81824 0.27059 0.47384 0.0
C387 C 0.87356 0.3268 0.53806 0.0
O388 O 0.93044 0.30089 0.4482 0.0
C389 C 0.80443 0.28791 0.45165 0.0
O390 O 0.89349 0.30281 0.40514 0.0
O391 O 0.81726 0.30813 0.43439 0.0
C392 C 0.48644 0.83085 0.25029 0.0
O393 O 0.47938 0.81288 0.22189 0.0
Cd394 Cd 0.4324 0.81053 0.19733 0.0
O395 O 0.46985 0.84986 0.26135 0.0
Cd396 Cd 0.42452 0.8683 0.24462 0.0
C397 C 0.40327 0.81495 0.30239 0.0
O398 O 0.4156 0.85317 0.1698 0.0
O399 O 0.38033 0.85975 0.21207 0.0
O400 O 0.44564 0.91224 0.23054 0.0
C401 C 0.3897 0.85403 0.17401 0.0
O402 O 0.40761 0.80162 0.2666 0.0
C403 C 0.42818 0.92587 0.2527 0.0
O404 O 0.40997 0.84022 0.30632 0.0
O405 O 0.40933 0.91251 0.27241 0.0
C406 C 0.90256 0.75423 0.06283 0.0
O407 O 0.92057 0.74631 0.03521 0.0
Cd408 Cd 0.91563 0.70553 -0.00949 0.0
O409 O 0.87976 0.7416 0.06631 0.0
Cd410 Cd 0.85548 0.7032 0.03064 0.0
C411 C 0.89989 0.65813 0.07253 0.0
O412 O 0.87224 0.70851 0.95578 0.0
O413 O 0.85272 0.66969 0.97108 0.0
O414 O 0.81442 0.73117 0.02604 0.0
C415 C 0.86333 0.68542 0.94228 0.0
O416 O 0.91584 0.66616 0.04159 0.0
C417 C 0.79884 0.71178 0.039 0.0
O418 O 0.87699 0.66992 0.07935 0.0
O419 O 0.81008 0.68952 0.05167 0.0
C420 C 0.90934 0.12746 0.76459 0.0
O421 O 0.91651 0.14713 0.73918 0.0
Cd422 Cd 0.95561 0.14982 0.69042 0.0
O423 O 0.92191 0.10442 0.76391 0.0
Cd424 Cd 0.96049 0.08403 0.72253 0.0
C425 C 0.00277 0.13156 0.76955 0.0
O426 O 0.95969 0.10814 0.65158 0.0
O427 O -0.00467 0.08376 0.66617 0.0
O428 O 0.94216 0.0376 0.70952 0.0
C429 C -0.01645 0.10043 0.64025 0.0
O430 O -0.00559 0.14907 0.7411 0.0
C431 C 0.96253 0.02612 0.72837 0.0
O432 O -0.00785 0.10759 0.77265 0.0
O433 O -0.02023 0.04171 0.74754 0.0
C434 C 0.60631 0.20072 0.49383 0.0
O435 O 0.58559 0.20168 0.46847 0.0
Cd436 Cd 0.57054 0.24386 0.43542 0.0
O437 O 0.62253 0.22126 0.4967 0.0
Cd438 Cd 0.63039 0.26679 0.46237 0.0
C439 C 0.57977 0.28599 0.52821 0.0
O440 O 0.60613 0.26322 0.39328 0.0
O441 O 0.60949 0.30411 0.42082 0.0
O442 O 0.67601 0.25301 0.44072 0.0
C443 C 0.60074 0.28871 0.38998 0.0
O444 O 0.56434 0.27505 0.4989 0.0
C445 C 0.68761 0.27472 0.45504 0.0
O446 O 0.60578 0.28413 0.52631 0.0
O447 O 0.67254 0.29278 0.47345 0.0
C448 C 0.12038 0.29951 0.10546 0.0
C449 C 0.09772 0.28938 0.12909 0.0
H450 H 0.14609 0.29483 0.04839 0.0
C451 C 0.08528 0.26461 0.11571 0.0
H452 H 0.13037 0.31853 0.11529 0.0
C453 C 0.09459 0.2508 0.07811 0.0
C454 C 0.11613 0.26186 0.05282 0.0
H455 H 0.06797 0.25622 0.13375 0.0
H456 H 0.084 0.23225 0.06767 0.0
C457 C 0.12936 0.28598 0.06731 0.0
C458 C 0.88364 0.83603 0.3164 0.0
C459 C 0.90157 0.85369 0.33947 0.0
H460 H 0.8542 0.80317 0.32106 0.0
C461 C 0.90282 0.85249 0.38569 0.0
H462 H 0.88276 0.8363 0.28052 0.0
C463 C 0.88608 0.83407 0.4087 0.0
C464 C 0.86856 0.816 0.38563 0.0
H465 H 0.91672 0.86573 0.40392 0.0
H466 H 0.88742 0.83341 0.44452 0.0
C467 C 0.86751 0.81698 0.33935 0.0
C468 C 0.4166 0.61775 0.60851 0.0
C469 C 0.40816 0.623 0.65206 0.0
H470 H 0.40731 0.62243 0.53955 0.0
C471 C 0.38332 0.63678 0.65995 0.0
H472 H 0.43571 0.60712 0.60193 0.0
C473 C 0.36756 0.64612 0.62451 0.0
C474 C 0.37602 0.64082 0.58105 0.0
H475 H 0.37659 0.64118 0.69344 0.0
H476 H 0.34893 0.65761 0.63096 0.0
C477 C 0.40036 0.62626 0.57311 0.0
C478 C 0.57003 0.16164 0.8343 0.0
C479 C 0.57793 0.13425 0.82711 0.0
H480 H 0.57329 0.19726 0.87477 0.0
C481 C 0.59722 0.12193 0.85537 0.0
H482 H 0.55549 0.17178 0.8127 0.0
C483 C 0.60714 0.1365 0.89215 0.0
C484 C 0.59828 0.16365 0.9001 0.0
H485 H 0.60367 0.1008 0.85009 0.0
H486 H 0.62101 0.12633 0.91489 0.0
C487 C 0.58038 0.1763 0.86992 0.0
C488 C 0.05636 0.59221 0.36097 0.0
C489 C 0.06499 0.59452 0.31688 0.0
H490 H 0.05797 0.60932 0.42621 0.0
C491 C 0.08241 0.61636 0.3045 0.0
H492 H 0.04267 0.57572 0.37102 0.0
C493 C 0.09043 0.63609 0.33562 0.0
C494 C 0.08168 0.63382 0.3797 0.0
H495 H 0.08893 0.61887 0.2704 0.0
H496 H 0.10347 0.65302 0.32528 0.0
C497 C 0.06498 0.61148 0.39231 0.0
C498 C 0.5773 0.84108 0.59016 0.0
C499 C 0.56619 0.81658 0.57309 0.0
H500 H 0.57389 0.87274 0.63936 0.0
C501 C 0.54194 0.80582 0.5912 0.0
H502 H 0.59598 0.84972 0.57652 0.0
C503 C 0.52899 0.81935 0.62607 0.0
C504 C 0.5405 0.84342 0.64403 0.0
H505 H 0.53289 0.78708 0.57819 0.0
H506 H 0.51037 0.81053 0.6398 0.0
C507 C 0.56473 0.85423 0.6259 0.0
C508 C 0.37905 0.33733 0.86134 0.0
C509 C 0.38798 0.3117 0.87732 0.0
H510 H 0.38815 0.37217 0.82043 0.0
C511 C 0.41446 0.30242 0.86672 0.0
H512 H 0.35881 0.34505 0.86938 0.0
C513 C 0.43146 0.3182 0.8395 0.0
C514 C 0.42203 0.34326 0.82193 0.0
H515 H 0.42199 0.28289 0.87921 0.0
H516 H 0.45147 0.31021 0.83072 0.0
C517 C 0.39588 0.3529 0.83364 0.0
C518 C 0.86481 0.15287 0.11411 0.0
C519 C 0.87252 0.17819 0.09525 0.0
H520 H 0.87649 0.11935 0.15639 0.0
C521 C 0.89873 0.18895 0.10394 0.0
H522 H 0.84476 0.14412 0.10771 0.0
C523 C 0.91705 0.17447 0.13054 0.0
C524 C 0.90928 0.14931 0.1498 0.0
H525 H 0.90532 0.20834 0.08956 0.0
H526 H 0.9371 0.18331 0.13676 0.0
C527 C 0.88297 0.13867 0.14163 0.0
C528 C 0.89933 0.67751 0.83304 0.0
C529 C 0.88951 0.65176 0.81878 0.0
H530 H 0.89828 0.70863 0.883 0.0
C531 C 0.86907 0.63827 0.84328 0.0
H532 H 0.91487 0.68851 0.81437 0.0
C533 C 0.85971 0.64972 0.88295 0.0
C534 C 0.87044 0.67495 0.89812 0.0
H535 H 0.86116 0.61843 0.83275 0.0
H536 H 0.84466 0.6385 0.90228 0.0
C537 C 0.88974 0.68911 0.8722 0.0
C538 C 0.04444 0.11909 0.57131 0.0
C539 C 0.04324 0.14803 0.57189 0.0
H540 H 0.02586 0.08127 0.59208 0.0
C541 C 0.0199 0.16109 0.58925 0.0
H542 H 0.06204 0.10845 0.55762 0.0
C543 C -0.00132 0.14537 0.60771 0.0
C544 C 0.00095 0.1165 0.61 0.0
H545 H 0.01825 0.18338 0.58917 0.0
H546 H -0.01856 0.15593 0.62247 0.0
C547 C 0.02362 0.1035 0.59054 0.0
C548 C 0.57342 0.28596 0.32084 0.0
C549 C 0.57756 0.29765 0.3627 0.0
H550 H 0.54824 0.28481 0.26289 0.0
C551 C 0.55813 0.31623 0.3799 0.0
H552 H 0.58796 0.27131 0.30732 0.0
C553 C 0.53492 0.32316 0.35527 0.0
C554 C 0.53129 0.31211 0.31282 0.0
H555 H 0.56064 0.32504 0.41264 0.0
H556 H 0.52038 0.33783 0.3687 0.0
C557 C 0.55066 0.29347 0.29577 0.0
C558 C 0.37582 0.84593 0.09609 0.0
C559 C 0.37207 0.84068 0.14127 0.0
H560 H 0.36438 0.83505 0.02995 0.0
C561 C 0.35285 0.82081 0.15501 0.0
H562 H 0.39069 0.86107 0.08502 0.0
C563 C 0.33846 0.80539 0.12369 0.0
C564 C 0.34244 0.81043 0.07849 0.0
H565 H 0.34998 0.81627 0.18987 0.0
H566 H 0.32461 0.78927 0.13466 0.0
C567 C 0.36073 0.83119 0.06483 0.0
C568 C 0.91534 0.37758 0.60374 0.0
C569 C 0.9071 0.37123 0.64703 0.0
H570 H 0.91023 0.36886 0.53464 0.0
C571 C 0.88621 0.35176 0.65411 0.0
H572 H 0.9316 0.39238 0.5978 0.0
C573 C 0.87472 0.33769 0.61835 0.0
C574 C 0.88334 0.34362 0.5751 0.0
H575 H 0.87989 0.34629 0.68741 0.0
H576 H 0.85952 0.32182 0.6245 0.0
C577 C 0.90314 0.36421 0.56784 0.0
C578 C 0.35737 0.14396 0.34421 0.0
C579 C 0.38118 0.12826 0.35103 0.0
H580 H 0.3248 0.16693 0.37463 0.0
C581 C 0.38916 0.1214 0.39421 0.0
H582 H 0.35095 0.14955 0.31104 0.0
C583 C 0.3737 0.13045 0.43024 0.0
C584 C 0.35056 0.14715 0.42351 0.0
H585 H 0.40742 0.10923 0.40007 0.0
H586 H 0.38062 0.12552 0.46342 0.0
C587 C 0.34242 0.1538 0.38033 0.0
C588 C 0.58743 0.60548 0.1084 0.0
C589 C 0.57229 0.61562 0.1442 0.0
H590 H 0.61217 0.6156 0.05214 0.0
C591 C 0.5722 0.644 0.15325 0.0
H592 H 0.58806 0.58354 0.1015 0.0
C593 C 0.58592 0.66231 0.12547 0.0
C594 C 0.6001 0.65245 0.08831 0.0
H595 H 0.56162 0.6521 0.18189 0.0
H596 H 0.585 0.68419 0.13267 0.0
C597 C 0.60122 0.62381 0.08045 0.0
C598 C 0.02552 0.81143 0.84655 0.0
C599 C 0.03799 0.8342 0.82597 0.0
H600 H 0.02686 0.7824 0.89969 0.0
C601 C 0.06119 0.84633 0.84545 0.0
H602 H 0.00759 0.80165 0.83229 0.0
C603 C 0.07206 0.83544 0.88451 0.0
C604 C 0.06011 0.81204 0.90406 0.0
H605 H 0.07109 0.86398 0.83027 0.0
H606 H 0.09022 0.84482 0.89867 0.0
C607 C 0.0366 0.80032 0.88504 0.0
C608 C 0.12401 0.28711 0.37471 0.0
C609 C 0.10353 0.30648 0.36551 0.0
H610 H 0.14067 0.25932 0.42221 0.0
C611 C 0.08839 0.31789 0.40059 0.0
H612 H 0.13606 0.27825 0.3481 0.0
C613 C 0.09036 0.30647 0.44304 0.0
C614 C 0.10769 0.28378 0.45055 0.0
H615 H 0.07247 0.33293 0.39412 0.0
H616 H 0.07593 0.31312 0.46815 0.0
C617 C 0.12652 0.27625 0.41727 0.0
C618 C 0.90331 0.76699 0.60666 0.0
C619 C 0.90319 0.78035 0.56548 0.0
H620 H 0.92235 0.76424 0.67055 0.0
C621 C 0.9201 0.8033 0.55837 0.0
H622 H 0.89041 0.74913 0.61244 0.0
C623 C 0.93767 0.81235 0.59159 0.0
C624 C 0.93917 0.79805 0.63198 0.0
H625 H 0.92014 0.81385 0.5267 0.0
H626 H 0.95113 0.82963 0.58469 0.0
C627 C 0.92154 0.77557 0.63963 0.0
C628 C 0.3696 0.68101 0.88595 0.0
C629 C 0.38059 0.68311 0.9289 0.0
H630 H 0.37576 0.66687 0.81953 0.0
C631 C 0.40414 0.66774 0.93957 0.0
H632 H 0.35145 0.69245 0.87654 0.0
C633 C 0.41773 0.65253 0.90681 0.0
C634 C 0.40817 0.65303 0.86301 0.0
H635 H 0.41302 0.66887 0.97241 0.0
H636 H 0.43679 0.64225 0.91492 0.0
C637 C 0.38353 0.66647 0.85317 0.0
C638 C 0.53483 0.12653 0.11708 0.0
C639 C 0.55206 0.14965 0.12022 0.0
H640 H 0.50307 0.10282 0.14734 0.0
C641 C 0.55378 0.16386 0.16076 0.0
H642 H 0.53334 0.11502 0.0864 0.0
C643 C 0.53604 0.15722 0.19559 0.0
C644 C 0.51664 0.13599 0.19059 0.0
H645 H 0.56696 0.18175 0.1642 0.0
H646 H 0.53613 0.17004 0.22499 0.0
C647 C 0.51749 0.11958 0.15213 0.0
C648 C 0.069 0.66429 0.14321 0.0
C649 C 0.0497 0.64406 0.13186 0.0
H650 H 0.08773 0.70266 0.12527 0.0
C651 C 0.03579 0.64574 0.09132 0.0
H652 H 0.07972 0.66334 0.17461 0.0
C653 C 0.03964 0.66859 0.06388 0.0
C654 C 0.05808 0.68948 0.07613 0.0
H655 H 0.02054 0.63043 0.08241 0.0
H656 H 0.02753 0.67045 0.03395 0.0
C657 C 0.07355 0.68665 0.11507 0.0
C658 C 0.52627 0.80192 0.27437 0.0
C659 C 0.51112 0.82652 0.27781 0.0
H660 H 0.55313 0.77362 0.30759 0.0
C661 C 0.51612 0.84428 0.31385 0.0
H662 H 0.52301 0.78785 0.24698 0.0
C663 C 0.533 0.83591 0.34855 0.0
C664 C 0.54575 0.8101 0.34709 0.0
H665 H 0.50507 0.86353 0.31734 0.0
H666 H 0.53448 0.84869 0.37792 0.0
C667 C 0.54353 0.79376 0.30894 0.0
C668 C 0.39211 0.29823 0.55014 0.0
C669 C 0.37323 0.27864 0.56626 0.0
H670 H 0.42213 0.3289 0.56697 0.0
C671 C 0.36619 0.27907 0.61144 0.0
H672 H 0.39776 0.29861 0.51543 0.0
C673 C 0.38047 0.29597 0.64077 0.0
C674 C 0.40143 0.31326 0.62527 0.0
H675 H 0.35152 0.26453 0.62497 0.0
H676 H 0.37642 0.29412 0.67597 0.0
C677 C 0.40602 0.31561 0.57955 0.0
C678 C 0.87232 0.15588 0.79904 0.0
C679 C 0.89106 0.13395 0.80211 0.0
H680 H 0.8487 0.18599 0.83439 0.0
C681 C 0.89672 0.12252 0.84391 0.0
H682 H 0.86763 0.16507 0.76721 0.0
C683 C 0.88658 0.13498 0.88224 0.0
C684 C 0.86989 0.15845 0.87925 0.0
H685 H 0.9112 0.10572 0.84738 0.0
H686 H 0.8932 0.12737 0.91425 0.0
C687 C 0.8615 0.16783 0.83742 0.0
C688 C 0.85123 0.64936 0.57332 0.0
C689 C 0.87781 0.63901 0.57863 0.0
H690 H 0.82413 0.67245 0.53229 0.0
C691 C 0.89533 0.63766 0.54175 0.0
H692 H 0.83733 0.65036 0.60131 0.0
C693 C 0.88812 0.65104 0.50234 0.0
C694 C 0.86326 0.66561 0.49971 0.0
H695 H 0.91597 0.62971 0.54519 0.0
H696 H 0.90344 0.65297 0.4765 0.0
C697 C 0.84378 0.66209 0.53371 0.0
C698 C 0.05422 0.14977 0.32199 0.0
C699 C 0.04193 0.17065 0.29639 0.0
H700 H 0.07715 0.14041 0.38072 0.0
C701 C 0.04925 0.1983 0.30433 0.0
H702 H 0.04928 0.12826 0.31634 0.0
C703 C 0.06485 0.20514 0.34141 0.0
C704 C 0.07401 0.18443 0.3702 0.0
H705 H 0.0405 0.21492 0.28494 0.0
H706 H 0.06762 0.22672 0.3498 0.0
C707 C 0.07031 0.15666 0.3587 0.0
C708 C 0.5396 0.28955 0.07004 0.0
C709 C 0.52704 0.2667 0.04992 0.0
H710 H 0.53521 0.3226 0.11662 0.0
C711 C 0.49891 0.26189 0.057 0.0
H712 H 0.56119 0.29374 0.06497 0.0
C713 C 0.48434 0.27787 0.08723 0.0
C714 C 0.49743 0.29944 0.10965 0.0
H715 H 0.48863 0.24441 0.04197 0.0
H716 H 0.46327 0.2725 0.09478 0.0
C717 C 0.52473 0.30609 0.09933 0.0
C718 C 0.38533 0.80102 0.84358 0.0
C719 C 0.38815 0.80946 0.88782 0.0
H720 H 0.40239 0.80242 0.77822 0.0
C721 C 0.40726 0.83005 0.89858 0.0
H722 H 0.37069 0.78516 0.83452 0.0
C723 C 0.42488 0.84043 0.8662 0.0
C724 C 0.42406 0.82976 0.82297 0.0
H725 H 0.40956 0.83703 0.93249 0.0
H726 H 0.44066 0.85494 0.87598 0.0
C727 C 0.40343 0.81086 0.81142 0.0
C728 C 0.86928 0.28925 0.87069 0.0
C729 C 0.87946 0.29089 0.91408 0.0
H730 H 0.87341 0.30335 0.80369 0.0
C731 C 0.89856 0.31148 0.92489 0.0
H732 H 0.85476 0.2733 0.86156 0.0
C733 C 0.90875 0.32902 0.89211 0.0
C734 C 0.90059 0.32558 0.84786 0.0
H735 H 0.90673 0.31298 0.95818 0.0
H736 H 0.92459 0.34375 0.90081 0.0
C737 C 0.88009 0.30624 0.83761 0.0
C738 C 0.4587 0.13659 0.61368 0.0
C739 C 0.46145 0.14853 0.65581 0.0
H740 H 0.43512 0.13483 0.55384 0.0
C741 C 0.44054 0.16562 0.67219 0.0
H742 H 0.47465 0.12346 0.60033 0.0
C743 C 0.4176 0.17141 0.64619 0.0
C744 C 0.41574 0.16089 0.60299 0.0
H745 H 0.44225 0.17498 0.70468 0.0
H746 H 0.40213 0.18538 0.65886 0.0
C747 C 0.4362 0.14311 0.58714 0.0
C748 C 0.58747 0.68542 0.37649 0.0
C749 C 0.57015 0.68609 0.41376 0.0
H750 H 0.59528 0.667 0.31326 0.0
C751 C 0.55142 0.66445 0.42054 0.0
H752 H 0.60222 0.70172 0.37041 0.0
C753 C 0.54813 0.64407 0.38825 0.0
C754 C 0.56315 0.64554 0.34866 0.0
H755 H 0.538 0.66435 0.44915 0.0
H756 H 0.53197 0.6289 0.39224 0.0
C757 C 0.58365 0.66553 0.34379 0.0
C758 C 0.06655 0.80316 0.17991 0.0
C759 C 0.06702 0.81881 0.14084 0.0
H760 H 0.05134 0.80033 0.24626 0.0
C761 C 0.05873 0.8464 0.14178 0.0
H762 H 0.07284 0.78172 0.17954 0.0
C763 C 0.04697 0.8573 0.18005 0.0
C764 C 0.04238 0.84029 0.21719 0.0
H765 H 0.05904 0.85874 0.11183 0.0
H766 H 0.03854 0.87795 0.17854 0.0
C767 C 0.05428 0.81387 0.21809 0.0
C768 C 0.55687 0.80463 0.94087 0.0
C769 C 0.57816 0.78581 0.93259 0.0
H770 H 0.52799 0.83296 0.91261 0.0
C771 C 0.58931 0.78415 0.88965 0.0
H772 H 0.54791 0.80631 0.97362 0.0
C773 C 0.5774 0.79865 0.85478 0.0
C774 C 0.55481 0.81578 0.86252 0.0
H775 H 0.60567 0.7698 0.88207 0.0
H776 H 0.58495 0.79541 0.82141 0.0
C777 C 0.54549 0.81983 0.90606 0.0
C778 C 0.38633 0.35397 0.13891 0.0
C779 C 0.38375 0.33685 0.17636 0.0
H780 H 0.38115 0.35691 0.06868 0.0
C781 C 0.36539 0.31445 0.17461 0.0
H782 H 0.39978 0.37178 0.13943 0.0
C783 C 0.35418 0.30632 0.13398 0.0
C784 C 0.36138 0.3205 0.09512 0.0
H785 H 0.3626 0.30108 0.20303 0.0
H786 H 0.34315 0.28693 0.13218 0.0
C787 C 0.37562 0.34554 0.0983 0.0
C788 C 0.88281 0.20155 0.39672 0.0
C789 C 0.89896 0.20391 0.43517 0.0
H790 H 0.88051 0.18661 0.33012 0.0
C791 C 0.92224 0.18701 0.43955 0.0
H792 H 0.86449 0.21388 0.39248 0.0
C793 C 0.93103 0.17082 0.40384 0.0
C794 C 0.91678 0.17168 0.36348 0.0
H795 H 0.93503 0.18821 0.46881 0.0
H796 H 0.95033 0.15989 0.40635 0.0
C797 C 0.89191 0.18594 0.36092 0.0
C798 C 0.04182 0.65371 0.60091 0.0
C799 C 0.04458 0.68014 0.58258 0.0
H800 H 0.01765 0.62735 0.6425 0.0
C801 C 0.02762 0.70158 0.59715 0.0
H802 H 0.05479 0.63694 0.5898 0.0
C803 C 0.00679 0.69633 0.62741 0.0
C804 C 0.00219 0.66936 0.64289 0.0
H805 H 0.02969 0.72218 0.58353 0.0
H806 H -0.00671 0.71315 0.63644 0.0
C807 C 0.02055 0.64828 0.63078 0.0
C808 C 0.5903 0.15561 0.52457 0.0
C809 C 0.60749 0.17884 0.52782 0.0
H810 H 0.56807 0.12447 0.55996 0.0
C811 C 0.62072 0.18429 0.56826 0.0
H812 H 0.5801 0.1507 0.49368 0.0
C813 C 0.61343 0.16962 0.60622 0.0
C814 C 0.59346 0.14883 0.60398 0.0
H815 H 0.63431 0.20185 0.57183 0.0
H816 H 0.6216 0.17615 0.63792 0.0
C817 C 0.58348 0.14052 0.56248 0.0
C818 C 0.04741 0.31331 0.78903 0.0
C819 C 0.02795 0.33151 0.80689 0.0
H820 H 0.07778 0.28258 0.80235 0.0
C821 C 0.02673 0.33518 0.85303 0.0
H822 H 0.04874 0.31013 0.75355 0.0
C823 C 0.0428 0.31891 0.88096 0.0
C824 C 0.06083 0.29927 0.86314 0.0
H825 H 0.01178 0.34896 0.86771 0.0
H826 H 0.04017 0.32078 0.91649 0.0
C827 C 0.064 0.29756 0.81695 0.0
C828 C 0.89607 0.77712 0.13579 0.0
C829 C 0.90909 0.77653 0.09428 0.0
H830 H 0.89532 0.7947 0.20081 0.0
C831 C 0.92975 0.79593 0.08487 0.0
H832 H 0.88013 0.76239 0.14402 0.0
C833 C 0.93796 0.81491 0.11717 0.0
C834 C 0.92608 0.81416 0.15949 0.0
H835 H 0.94002 0.79595 0.05303 0.0
H836 H 0.9546 0.82904 0.10993 0.0
C837 C 0.90476 0.79553 0.1683 0.0
C838 C 0.4058 0.64783 0.32674 0.0
C839 C 0.41083 0.63952 0.37055 0.0
H840 H 0.4206 0.64807 0.25981 0.0
C841 C 0.43241 0.62135 0.37952 0.0
H842 H 0.38928 0.662 0.31928 0.0
C843 C 0.44981 0.61286 0.34558 0.0
C844 C 0.44638 0.62311 0.30235 0.0
H845 H 0.43654 0.61467 0.41313 0.0
H846 H 0.46713 0.59991 0.35401 0.0
C847 C 0.42371 0.63995 0.29286 0.0
C848 C 0.37576 0.1819 0.136 0.0
C849 C 0.39718 0.16271 0.13365 0.0
H850 H 0.35348 0.21355 0.1023 0.0
C851 C 0.41095 0.15854 0.09339 0.0
H852 H 0.36501 0.1854 0.16693 0.0
C853 C 0.40498 0.17516 0.05688 0.0
C854 C 0.38452 0.1954 0.05993 0.0
H855 H 0.42773 0.14396 0.09118 0.0
H856 H 0.41718 0.17313 0.02705 0.0
C857 C 0.36912 0.19782 0.09906 0.0
C858 C 0.5417 0.63104 0.85169 0.0
C859 C 0.5388 0.64688 0.81293 0.0
H860 H 0.55849 0.62908 0.9171 0.0
C861 C 0.5556 0.67018 0.80687 0.0
H862 H 0.52921 0.61288 0.85735 0.0
C863 C 0.57294 0.679 0.84091 0.0
C864 C 0.57322 0.66484 0.88142 0.0
H865 H 0.55393 0.68267 0.77721 0.0
H866 H 0.58411 0.6982 0.83707 0.0
C867 C 0.55846 0.64023 0.88596 0.0
C868 C 0.06015 0.8164 0.55709 0.0
C869 C 0.06839 0.80966 0.60038 0.0
H870 H 0.0619 0.80531 0.48836 0.0
C871 C 0.08972 0.79067 0.60641 0.0
H872 H 0.04371 0.83101 0.5516 0.0
C873 C 0.10047 0.77637 0.57031 0.0
C874 C 0.08958 0.78026 0.52758 0.0
H875 H 0.09665 0.78537 0.63943 0.0
H876 H 0.11546 0.76037 0.57665 0.0
C877 C 0.07059 0.80167 0.52085 0.0
C878 C 0.95922 0.32834 0.37533 0.0
C879 C 0.93727 0.30975 0.37251 0.0
H880 H -0.00279 0.34185 0.34732 0.0
C881 C 0.93565 0.29157 0.33638 0.0
H882 H 0.96094 0.34228 0.40327 0.0
C883 C 0.95683 0.29061 0.3052 0.0
C884 C -0.02056 0.3084 0.30911 0.0
H885 H 0.91907 0.27673 0.3341 0.0
H886 H 0.95603 0.27533 0.27903 0.0
C887 C -0.02009 0.32802 0.34339 0.0
C888 C 0.37317 0.77876 0.33392 0.0
C889 C 0.39247 0.79978 0.34064 0.0
H890 H 0.35272 0.74378 0.36114 0.0
C891 C 0.40384 0.80364 0.38289 0.0
H892 H 0.36402 0.77561 0.3016 0.0
C893 C 0.39784 0.78503 0.41697 0.0
C894 C 0.37996 0.76277 0.40931 0.0
H895 H 0.41883 0.81975 0.38867 0.0
H896 H 0.40824 0.78725 0.44847 0.0
C897 C 0.36668 0.76064 0.36812 0.0
C898 C 0.94285 0.60091 0.11935 0.0
C899 C 0.93852 0.60456 0.16507 0.0
H900 H 0.93412 0.61554 0.05401 0.0
C901 C 0.91722 0.62202 0.1792 0.0
H902 H 0.95896 0.58752 0.10722 0.0
C903 C 0.90271 0.63785 0.14842 0.0
C904 C 0.90964 0.63672 0.10329 0.0
H905 H 0.91326 0.62511 0.21417 0.0
H906 H 0.88781 0.65264 0.16038 0.0
C907 C 0.9288 0.61714 0.08878 0.0
C908 C 0.06235 0.17008 0.8186 0.0
C909 C 0.05811 0.16556 0.86405 0.0
H910 H 0.04754 0.16301 0.75279 0.0
C911 C 0.03802 0.14655 0.87766 0.0
H912 H 0.07756 0.18478 0.8072 0.0
C913 C 0.02123 0.13365 0.84638 0.0
C914 C 0.02386 0.14025 0.80131 0.0
H915 H 0.03437 0.14275 0.91255 0.0
H916 H 0.00496 0.12013 0.8577 0.0
C917 C 0.04507 0.15783 0.7875 0.0
C918 C 0.54632 0.31971 0.55754 0.0
C919 C 0.56675 0.30006 0.56562 0.0
H920 H 0.51432 0.34443 0.58499 0.0
C921 C 0.5723 0.2918 0.60923 0.0
H922 H 0.5418 0.32628 0.524 0.0
C923 C 0.5561 0.30158 0.64411 0.0
C924 C 0.53478 0.32035 0.63577 0.0
H925 H 0.58791 0.27648 0.61594 0.0
H926 H 0.55954 0.29371 0.67724 0.0
C927 C 0.53076 0.33015 0.59244 0.0
C928 C 0.0677 0.43907 0.18417 0.0
C929 C 0.04621 0.42038 0.19177 0.0
H930 H 0.07911 0.48121 0.17377 0.0
C931 C 0.019 0.42972 0.19029 0.0
H932 H 0.08884 0.43226 0.18474 0.0
C933 C 0.01345 0.45774 0.18476 0.0
C934 C 0.03502 0.47666 0.17953 0.0
H935 H 0.00207 0.41566 0.19593 0.0
H936 H -0.00761 0.46474 0.18634 0.0
C937 C 0.06211 0.46699 0.17753 0.0
C938 C 0.72853 0.73842 0.47048 0.0
C939 C 0.74503 0.76162 0.47831 0.0
H940 H 0.68772 0.72307 0.46193 0.0
C941 C 0.73292 0.78763 0.48377 0.0
H942 H 0.73758 0.71819 0.46614 0.0
C943 C 0.7046 0.79056 0.4799 0.0
C944 C 0.68812 0.76736 0.47195 0.0
H945 H 0.74541 0.80579 0.48947 0.0
H946 H 0.69558 0.81087 0.48334 0.0
C947 C 0.70017 0.74122 0.46806 0.0
C948 C 0.49255 0.47295 0.72028 0.0
C949 C 0.46798 0.45842 0.71369 0.0
H950 H 0.51103 0.5116 0.73804 0.0
C951 C 0.44284 0.47167 0.72125 0.0
H952 H 0.51216 0.463 0.71504 0.0
C953 C 0.44223 0.49885 0.73601 0.0
C954 C 0.46672 0.51349 0.74228 0.0
H955 H 0.42361 0.46075 0.71709 0.0
H956 H 0.42255 0.50859 0.74167 0.0
C957 C 0.49191 0.50053 0.73376 0.0
C958 C 0.72917 0.25084 0.01026 0.0
C959 C 0.74514 0.22724 0.01774 0.0
H960 H 0.68867 0.26818 0.01159 0.0
C961 C 0.73335 0.20416 0.03822 0.0
H962 H 0.73805 0.26893 -0.00524 0.0
C963 C 0.70568 0.20405 0.04924 0.0
C964 C 0.68901 0.22673 0.03874 0.0
H965 H 0.74548 0.18591 0.04498 0.0
H966 H 0.69708 0.18543 0.0635 0.0
C967 C 0.70108 0.25044 0.02011 0.0
C968 C 0.93008 0.49012 0.77934 0.0
C969 C 0.95558 0.47723 0.77352 0.0
H970 H 0.90615 0.52647 0.76927 0.0
C971 C 0.97784 0.49273 0.75738 0.0
H972 H 0.91251 0.47871 0.79151 0.0
C973 C 0.97424 0.52037 0.74528 0.0
C974 C 0.94818 0.53245 0.74804 0.0
H975 H -0.0023 0.48322 0.75251 0.0
H976 H -0.0086 0.5318 0.73169 0.0
C977 C 0.92634 0.51736 0.76614 0.0
C978 C 0.23388 0.16106 0.5709 0.0
C979 C 0.24721 0.18619 0.5794 0.0
H980 H 0.19583 0.14126 0.55492 0.0
C981 C 0.23163 0.21014 0.58596 0.0
H982 H 0.24558 0.14238 0.56533 0.0
C983 C 0.20322 0.20938 0.58104 0.0
C984 C 0.19015 0.18483 0.56808 0.0
H985 H 0.24156 0.22974 0.59245 0.0
H986 H 0.19182 0.22847 0.58393 0.0
C987 C 0.20552 0.16045 0.56463 0.0
C988 C 0.53056 0.47406 0.2492 0.0
C989 C 0.51002 0.49384 0.25564 0.0
H990 H 0.53959 0.43132 0.23862 0.0
C991 C 0.48258 0.4855 0.25971 0.0
H992 H 0.55183 0.48016 0.24575 0.0
C993 C 0.47567 0.45767 0.25671 0.0
C994 C 0.49605 0.43801 0.24823 0.0
H995 H 0.46646 0.50053 0.26482 0.0
H996 H 0.45433 0.45166 0.25941 0.0
C997 C 0.52355 0.44629 0.24484 0.0
C998 C 0.19578 0.78051 0.9576 0.0
C999 C 0.18105 0.75787 0.97404 0.0
H1000 H 0.23455 0.79593 0.93617 0.0
C1001 C 0.19383 0.73207 0.9776 0.0
H1002 H 0.1861 0.8005 0.95402 0.0
C1003 C 0.22175 0.72951 0.96818 0.0
C1004 C 0.23683 0.75257 0.95387 0.0
H1005 H 0.18267 0.71434 -0.00997 0.0
H1006 H 0.23175 0.70988 0.97378 0.0
C1007 C 0.22338 0.77778 0.94695 0.0
C1008 C 0.48974 0.97811 0.7463 0.0
C1009 C 0.51167 0.96046 0.75625 0.0
H1010 H 0.47764 0.01891 0.72701 0.0
C1011 C 0.53866 0.97042 0.7535 0.0
H1012 H 0.46878 0.97077 0.74788 0.0
C1013 C 0.54372 -0.00258 0.74019 0.0
C1014 C 0.52187 0.01515 0.73046 0.0
H1015 H 0.55597 0.95711 0.7604 0.0
H1016 H 0.56475 0.00454 0.73822 0.0
C1017 C 0.49481 0.00547 0.73411 0.0
C1018 C 0.24671 0.26228 0.8981 0.0
C1019 C 0.2627 0.24151 0.91735 0.0
H1020 H 0.20756 0.2738 0.87302 0.0
C1021 C 0.25217 0.21463 0.92071 0.0
H1022 H 0.25466 0.28305 0.89444 0.0
C1023 C 0.2249 0.20933 0.90909 0.0
C1024 C 0.20818 0.23075 0.89311 0.0
H1025 H 0.26434 0.19826 0.93517 0.0
H1026 H 0.21647 0.189 0.91525 0.0
C1027 C 0.21982 0.25686 0.88545 0.0
C1028 C 0.94254 0.01764 0.24017 0.0
C1029 C 0.96742 0.03149 0.24724 0.0
H1030 H 0.92259 0.97878 0.23057 0.0
C1031 C -0.00805 0.0165 0.24913 0.0
H1032 H 0.92343 0.02894 0.23811 0.0
C1033 C -0.00862 -0.01227 0.24594 0.0
C1034 C 0.96642 0.9739 0.23912 0.0
H1035 H 0.01133 0.02692 0.25441 0.0
H1036 H 0.01036 0.9763 0.24898 0.0
C1037 C 0.9421 -0.01092 0.23542 0.0
C1038 C 0.24332 0.70529 0.45873 0.0
C1039 C 0.25662 0.67972 0.46147 0.0
H1040 H 0.20513 0.72678 0.46045 0.0
C1041 C 0.24123 0.65563 0.46854 0.0
H1042 H 0.25485 0.72412 0.45334 0.0
C1043 C 0.21284 0.65724 0.47387 0.0
C1044 C 0.19958 0.68286 0.47099 0.0
H1045 H 0.25119 0.63573 0.47115 0.0
H1046 H 0.20126 0.6385 0.47969 0.0
C1047 C 0.21497 0.7068 0.46287 0.0
C1048 C 0.45421 -0.00118 0.24622 0.0
C1049 C 0.42953 0.01364 0.24563 0.0
H1050 H 0.47302 0.95893 0.24833 0.0
C1051 C 0.4045 -0.00044 0.24929 0.0
H1052 H 0.47373 0.00937 0.24353 0.0
C1053 C 0.40414 0.97093 0.25352 0.0
C1054 C 0.42877 0.95604 0.25279 0.0
H1055 H 0.38526 0.01071 0.24935 0.0
H1056 H 0.3846 0.96039 0.25597 0.0
C1057 C 0.4538 0.97012 0.24904 0.0
C1058 C 0.75486 0.68876 0.02261 0.0
C1059 C 0.76915 0.71317 0.03218 0.0
H1060 H 0.71713 0.67062 0.00186 0.0
C1061 C 0.75552 0.73863 0.0297 0.0
H1062 H 0.76502 0.66889 0.02365 0.0
C1063 C 0.72784 0.73956 0.01781 0.0
C1064 C 0.71395 0.71513 0.00678 0.0
H1065 H 0.76628 0.75771 0.03659 0.0
H1066 H 0.71749 0.7593 0.0164 0.0
C1067 C 0.72762 0.68977 0.00942 0.0
C1068 C 0.94799 0.97756 0.71097 0.0
C1069 C 0.96848 -0.00346 0.72284 0.0
H1070 H 0.93873 0.93551 0.69394 0.0
C1071 C -0.00419 -0.01238 0.72573 0.0
H1072 H 0.92681 -0.01599 0.70819 0.0
C1073 C 0.00268 0.96044 0.71615 0.0
C1074 C -0.0177 0.94136 0.70454 0.0
H1075 H 0.01212 0.00186 0.73423 0.0
H1076 H 0.02397 0.95426 0.71854 0.0
C1077 C 0.95482 0.94997 0.70255 0.0
C1078 C 0.73454 0.25518 0.44955 0.0
C1079 C 0.71742 0.27839 0.45132 0.0
H1080 H 0.77575 0.24018 0.44868 0.0
C1081 C 0.72906 0.30492 0.45027 0.0
H1082 H 0.72604 0.23452 0.45032 0.0
C1083 C 0.7575 0.30814 0.44805 0.0
C1084 C 0.77459 0.28488 0.44814 0.0
H1085 H 0.71619 0.32311 0.45129 0.0
H1086 H 0.76614 0.32875 0.44806 0.0
C1087 C 0.76291 0.25841 0.4486 0.0
loop_
_geom_bond_atom_site_label_1
_geom_bond_atom_site_label_2
_geom_bond_distance
_geom_bond_site_symmetry_2
_ccdc_geom_bond_type
C0 O1 1.306 . S
C0 O3 1.160 . S
O1 C0 1.306 . S
O1 Cd2 2.228 . S
Cd2 O1 2.228 . S
Cd2 O6 2.273 . S
Cd2 O10 2.277 . S
O3 C0 1.160 . S
O3 Cd4 2.203 . S
Cd4 O3 2.203 . S
Cd4 O6 2.411 . S
Cd4 O7 2.333 . S
Cd4 O8 2.352 . S
Cd4 O12 2.277 . S
Cd4 O13 2.356 . S
C5 O10 1.209 . S
C5 O12 1.226 . S
O6 Cd2 2.273 . S
O6 Cd4 2.411 . S
O6 C9 1.320 . S
O7 Cd4 2.333 . S
O7 C9 1.214 . S
O8 Cd4 2.352 . S
O8 C11 1.258 . S
C9 O6 1.320 . S
C9 O7 1.214 . S
O10 Cd2 2.277 . S
O10 C5 1.209 . S
C11 O8 1.258 . S
C11 O13 1.282 . S
O12 Cd4 2.277 . S
O12 C5 1.226 . S
O13 Cd4 2.356 . S
O13 C11 1.282 . S
C14 O15 1.306 . S
C14 O17 1.160 . S
O15 C14 1.306 . S
O15 Cd16 2.228 . S
Cd16 O15 2.228 . S
Cd16 O20 2.273 . S
Cd16 O24 2.277 . S
O17 C14 1.160 . S
O17 Cd18 2.203 . S
Cd18 O17 2.203 . S
Cd18 O20 2.411 . S
Cd18 O21 2.333 . S
Cd18 O22 2.352 . S
Cd18 O26 2.277 . S
Cd18 O27 2.356 . S
C19 O24 1.209 . S
C19 O26 1.226 . S
O20 Cd16 2.273 . S
O20 Cd18 2.411 . S
O20 C23 1.320 . S
O21 Cd18 2.333 . S
O21 C23 1.214 . S
O22 Cd18 2.352 . S
O22 C25 1.258 . S
C23 O20 1.320 . S
C23 O21 1.214 . S
O24 Cd16 2.277 . S
O24 C19 1.209 . S
C25 O22 1.258 . S
C25 O27 1.282 . S
O26 Cd18 2.277 . S
O26 C19 1.226 . S
O27 Cd18 2.356 . S
O27 C25 1.282 . S
C28 O29 1.306 . S
C28 O31 1.160 . S
O29 C28 1.306 . S
O29 Cd30 2.228 . S
Cd30 O29 2.228 . S
Cd30 O34 2.273 . S
Cd30 O38 2.277 . S
O31 C28 1.160 . S
O31 Cd32 2.203 . S
Cd32 O31 2.203 . S
Cd32 O34 2.411 . S
Cd32 O35 2.333 . S
Cd32 O36 2.352 . S
Cd32 O40 2.277 . S
Cd32 O41 2.356 . S
C33 O38 1.209 . S
C33 O40 1.226 . S
O34 Cd30 2.273 . S
O34 Cd32 2.411 . S
O34 C37 1.320 . S
O35 Cd32 2.333 . S
O35 C37 1.214 . S
O36 Cd32 2.352 . S
O36 C39 1.258 . S
C37 O34 1.320 . S
C37 O35 1.214 . S
O38 Cd30 2.277 . S
O38 C33 1.209 . S
C39 O36 1.258 . S
C39 O41 1.282 . S
O40 Cd32 2.277 . S
O40 C33 1.226 . S
O41 Cd32 2.356 . S
O41 C39 1.282 . S
C42 O43 1.306 . S
C42 O45 1.160 . S
O43 C42 1.306 . S
O43 Cd44 2.228 . S
Cd44 O43 2.228 . S
Cd44 O48 2.273 1_554 S
Cd44 O52 2.277 . S
O45 C42 1.160 . S
O45 Cd46 2.203 . S
Cd46 O45 2.203 . S
Cd46 O48 2.411 1_554 S
Cd46 O49 2.333 1_554 S
Cd46 O50 2.352 . S
Cd46 O54 2.277 . S
Cd46 O55 2.356 . S
C47 O52 1.209 . S
C47 O54 1.226 . S
O48 Cd44 2.273 1_556 S
O48 Cd46 2.411 1_556 S
O48 C51 1.320 . S
O49 Cd46 2.333 1_556 S
O49 C51 1.214 . S
O50 Cd46 2.352 . S
O50 C53 1.258 . S
C51 O48 1.320 . S
C51 O49 1.214 . S
O52 Cd44 2.277 . S
O52 C47 1.209 . S
C53 O50 1.258 . S
C53 O55 1.282 . S
O54 Cd46 2.277 . S
O54 C47 1.226 . S
O55 Cd46 2.356 . S
O55 C53 1.282 . S
C56 O57 1.306 . S
C56 O59 1.160 . S
O57 C56 1.306 . S
O57 Cd58 2.228 . S
Cd58 O57 2.228 . S
Cd58 O62 2.273 . S
Cd58 O66 2.277 . S
O59 C56 1.160 . S
O59 Cd60 2.203 . S
Cd60 O59 2.203 . S
Cd60 O62 2.411 . S
Cd60 O63 2.333 . S
Cd60 O64 2.352 . S
Cd60 O68 2.277 . S
Cd60 O69 2.356 . S
C61 O66 1.209 . S
C61 O68 1.226 . S
O62 Cd58 2.273 . S
O62 Cd60 2.411 . S
O62 C65 1.320 . S
O63 Cd60 2.333 . S
O63 C65 1.214 . S
O64 Cd60 2.352 . S
O64 C67 1.258 . S
C65 O62 1.320 . S
C65 O63 1.214 . S
O66 Cd58 2.277 . S
O66 C61 1.209 . S
C67 O64 1.258 . S
C67 O69 1.282 . S
O68 Cd60 2.277 . S
O68 C61 1.226 . S
O69 Cd60 2.356 . S
O69 C67 1.282 . S
C70 O71 1.306 . S
C70 O73 1.160 . S
O71 C70 1.306 . S
O71 Cd72 2.228 . S
Cd72 O71 2.228 . S
Cd72 O76 2.273 . S
Cd72 O80 2.277 . S
O73 C70 1.160 . S
O73 Cd74 2.203 . S
Cd74 O73 2.203 . S
Cd74 O76 2.411 . S
Cd74 O77 2.333 . S
Cd74 O78 2.352 . S
Cd74 O82 2.277 . S
Cd74 O83 2.356 . S
C75 O80 1.209 . S
C75 O82 1.226 . S
O76 Cd72 2.273 . S
O76 Cd74 2.411 . S
O76 C79 1.320 . S
O77 Cd74 2.333 . S
O77 C79 1.214 . S
O78 Cd74 2.352 . S
O78 C81 1.258 . S
C79 O76 1.320 . S
C79 O77 1.214 . S
O80 Cd72 2.277 . S
O80 C75 1.209 . S
C81 O78 1.258 . S
C81 O83 1.282 . S
O82 Cd74 2.277 . S
O82 C75 1.226 . S
O83 Cd74 2.356 . S
O83 C81 1.282 . S
C84 O85 1.306 . S
C84 O87 1.160 . S
O85 C84 1.306 . S
O85 Cd86 2.228 . S
Cd86 O85 2.228 . S
Cd86 O90 2.273 . S
Cd86 O94 2.277 . S
O87 C84 1.160 . S
O87 Cd88 2.203 . S
Cd88 O87 2.203 . S
Cd88 O90 2.411 . S
Cd88 O91 2.333 . S
Cd88 O92 2.352 . S
Cd88 O96 2.277 . S
Cd88 O97 2.356 . S
C89 O94 1.209 . S
C89 O96 1.226 . S
O90 Cd86 2.273 . S
O90 Cd88 2.411 . S
O90 C93 1.320 . S
O91 Cd88 2.333 . S
O91 C93 1.214 . S
O92 Cd88 2.352 . S
O92 C95 1.258 . S
C93 O90 1.320 . S
C93 O91 1.214 . S
O94 Cd86 2.277 . S
O94 C89 1.209 . S
C95 O92 1.258 . S
C95 O97 1.282 . S
O96 Cd88 2.277 . S
O96 C89 1.226 . S
O97 Cd88 2.356 . S
O97 C95 1.282 . S
C98 O99 1.306 . S
C98 O101 1.160 . S
O99 C98 1.306 . S
O99 Cd100 2.228 . S
Cd100 O99 2.228 . S
Cd100 O104 2.273 1_556 S
Cd100 O108 2.277 . S
O101 C98 1.160 . S
O101 Cd102 2.203 . S
Cd102 O101 2.203 . S
Cd102 O104 2.411 1_556 S
Cd102 O105 2.333 1_556 S
Cd102 O106 2.352 . S
Cd102 O110 2.277 . S
Cd102 O111 2.356 . S
C103 O108 1.209 . S
C103 O110 1.226 . S
O104 Cd100 2.273 1_554 S
O104 Cd102 2.411 1_554 S
O104 C107 1.320 . S
O105 Cd102 2.333 1_554 S
O105 C107 1.214 . S
O106 Cd102 2.352 . S
O106 C109 1.258 . S
C107 O104 1.320 . S
C107 O105 1.214 . S
O108 Cd100 2.277 . S
O108 C103 1.209 . S
C109 O106 1.258 . S
C109 O111 1.282 . S
O110 Cd102 2.277 . S
O110 C103 1.226 . S
O111 Cd102 2.356 . S
O111 C109 1.282 . S
C112 O113 1.306 . S
C112 O115 1.160 . S
O113 C112 1.306 . S
O113 Cd114 2.228 . S
Cd114 O113 2.228 . S
Cd114 O118 2.273 . S
Cd114 O122 2.277 . S
O115 C112 1.160 . S
O115 Cd116 2.203 . S
Cd116 O115 2.203 . S
Cd116 O118 2.411 . S
Cd116 O119 2.333 . S
Cd116 O120 2.352 . S
Cd116 O124 2.277 . S
Cd116 O125 2.356 . S
C117 O122 1.209 . S
C117 O124 1.226 . S
O118 Cd114 2.273 . S
O118 Cd116 2.411 . S
O118 C121 1.320 . S
O119 Cd116 2.333 . S
O119 C121 1.214 . S
O120 Cd116 2.352 . S
O120 C123 1.258 . S
C121 O118 1.320 . S
C121 O119 1.214 . S
O122 Cd114 2.277 . S
O122 C117 1.209 . S
C123 O120 1.258 . S
C123 O125 1.282 . S
O124 Cd116 2.277 . S
O124 C117 1.226 . S
O125 Cd116 2.356 . S
O125 C123 1.282 . S
C126 O127 1.306 . S
C126 O129 1.160 . S
O127 C126 1.306 . S
O127 Cd128 2.228 . S
Cd128 O127 2.228 . S
Cd128 O132 2.273 . S
Cd128 O136 2.277 . S
O129 C126 1.160 . S
O129 Cd130 2.203 . S
Cd130 O129 2.203 . S
Cd130 O132 2.411 . S
Cd130 O133 2.333 . S
Cd130 O134 2.352 . S
Cd130 O138 2.277 . S
Cd130 O139 2.356 . S
C131 O136 1.209 . S
C131 O138 1.226 . S
O132 Cd128 2.273 . S
O132 Cd130 2.411 . S
O132 C135 1.320 . S
O133 Cd130 2.333 . S
O133 C135 1.214 . S
O134 Cd130 2.352 . S
O134 C137 1.258 . S
C135 O132 1.320 . S
C135 O133 1.214 . S
O136 Cd128 2.277 . S
O136 C131 1.209 . S
C137 O134 1.258 . S
C137 O139 1.282 . S
O138 Cd130 2.277 . S
O138 C131 1.226 . S
O139 Cd130 2.356 . S
O139 C137 1.282 . S
C140 O141 1.306 . S
C140 O143 1.160 . S
O141 C140 1.306 . S
O141 Cd142 2.228 . S
Cd142 O141 2.228 . S
Cd142 O146 2.273 . S
Cd142 O150 2.277 . S
O143 C140 1.160 . S
O143 Cd144 2.203 . S
Cd144 O143 2.203 . S
Cd144 O146 2.411 . S
Cd144 O147 2.333 . S
Cd144 O148 2.352 . S
Cd144 O152 2.277 . S
Cd144 O153 2.356 . S
C145 O150 1.209 . S
C145 O152 1.226 . S
O146 Cd142 2.273 . S
O146 Cd144 2.411 . S
O146 C149 1.320 . S
O147 Cd144 2.333 . S
O147 C149 1.214 . S
O148 Cd144 2.352 . S
O148 C151 1.258 . S
C149 O146 1.320 . S
C149 O147 1.214 . S
O150 Cd142 2.277 . S
O150 C145 1.209 . S
C151 O148 1.258 . S
C151 O153 1.282 . S
O152 Cd144 2.277 . S
O152 C145 1.226 . S
O153 Cd144 2.356 . S
O153 C151 1.282 . S
C154 O155 1.306 . S
C154 O157 1.160 . S
O155 C154 1.306 . S
O155 Cd156 2.228 . S
Cd156 O155 2.228 . S
Cd156 O160 2.273 1_556 S
Cd156 O164 2.277 . S
O157 C154 1.160 . S
O157 Cd158 2.203 . S
Cd158 O157 2.203 . S
Cd158 O160 2.411 1_556 S
Cd158 O161 2.333 1_556 S
Cd158 O162 2.352 . S
Cd158 O166 2.277 . S
Cd158 O167 2.356 . S
C159 O164 1.209 . S
C159 O166 1.226 . S
O160 Cd156 2.273 1_554 S
O160 Cd158 2.411 1_554 S
O160 C163 1.320 . S
O161 Cd158 2.333 1_554 S
O161 C163 1.214 . S
O162 Cd158 2.352 . S
O162 C165 1.258 . S
C163 O160 1.320 . S
C163 O161 1.214 . S
O164 Cd156 2.277 . S
O164 C159 1.209 . S
C165 O162 1.258 . S
C165 O167 1.282 . S
O166 Cd158 2.277 . S
O166 C159 1.226 . S
O167 Cd158 2.356 . S
O167 C165 1.282 . S
C168 O169 1.306 . S
C168 O171 1.160 . S
O169 C168 1.306 . S
O169 Cd170 2.228 . S
Cd170 O169 2.228 . S
Cd170 O174 2.273 . S
Cd170 O178 2.277 . S
O171 C168 1.160 . S
O171 Cd172 2.203 . S
Cd172 O171 2.203 . S
Cd172 O174 2.411 . S
Cd172 O175 2.333 . S
Cd172 O176 2.352 . S
Cd172 O180 2.277 . S
Cd172 O181 2.356 . S
C173 O178 1.209 . S
C173 O180 1.226 . S
O174 Cd170 2.273 . S
O174 Cd172 2.411 . S
O174 C177 1.320 . S
O175 Cd172 2.333 . S
O175 C177 1.214 . S
O176 Cd172 2.352 . S
O176 C179 1.258 . S
C177 O174 1.320 . S
C177 O175 1.214 . S
O178 Cd170 2.277 . S
O178 C173 1.209 . S
C179 O176 1.258 . S
C179 O181 1.282 . S
O180 Cd172 2.277 . S
O180 C173 1.226 . S
O181 Cd172 2.356 . S
O181 C179 1.282 . S
C182 O183 1.306 . S
C182 O185 1.160 . S
O183 C182 1.306 . S
O183 Cd184 2.228 . S
Cd184 O183 2.228 . S
Cd184 O188 2.273 . S
Cd184 O192 2.277 . S
O185 C182 1.160 . S
O185 Cd186 2.203 . S
Cd186 O185 2.203 . S
Cd186 O188 2.411 . S
Cd186 O189 2.333 . S
Cd186 O190 2.352 . S
Cd186 O194 2.277 . S
Cd186 O195 2.356 . S
C187 O192 1.209 . S
C187 O194 1.226 . S
O188 Cd184 2.273 . S
O188 Cd186 2.411 . S
O188 C191 1.320 . S
O189 Cd186 2.333 . S
O189 C191 1.214 . S
O190 Cd186 2.352 . S
O190 C193 1.258 . S
C191 O188 1.320 . S
C191 O189 1.214 . S
O192 Cd184 2.277 . S
O192 C187 1.209 . S
C193 O190 1.258 . S
C193 O195 1.282 . S
O194 Cd186 2.277 . S
O194 C187 1.226 . S
O195 Cd186 2.356 . S
O195 C193 1.282 . S
C196 O197 1.306 . S
C196 O199 1.160 . S
O197 C196 1.306 . S
O197 Cd198 2.228 . S
Cd198 O197 2.228 . S
Cd198 O202 2.273 . S
Cd198 O206 2.277 . S
O199 C196 1.160 . S
O199 Cd200 2.203 . S
Cd200 O199 2.203 . S
Cd200 O202 2.411 . S
Cd200 O203 2.333 . S
Cd200 O204 2.352 . S
Cd200 O208 2.277 . S
Cd200 O209 2.356 . S
C201 O206 1.209 . S
C201 O208 1.226 . S
O202 Cd198 2.273 . S
O202 Cd200 2.411 . S
O202 C205 1.320 . S
O203 Cd200 2.333 . S
O203 C205 1.214 . S
O204 Cd200 2.352 . S
O204 C207 1.258 . S
C205 O202 1.320 . S
C205 O203 1.214 . S
O206 Cd198 2.277 . S
O206 C201 1.209 . S
C207 O204 1.258 . S
C207 O209 1.282 . S
O208 Cd200 2.277 . S
O208 C201 1.226 . S
O209 Cd200 2.356 . S
O209 C207 1.282 . S
C210 O211 1.306 . S
C210 O213 1.160 . S
O211 C210 1.306 . S
O211 Cd212 2.228 . S
Cd212 O211 2.228 . S
Cd212 O216 2.273 1_554 S
Cd212 O220 2.277 . S
O213 C210 1.160 . S
O213 Cd214 2.203 . S
Cd214 O213 2.203 . S
Cd214 O216 2.411 1_554 S
Cd214 O217 2.333 1_554 S
Cd214 O218 2.352 . S
Cd214 O222 2.277 . S
Cd214 O223 2.356 . S
C215 O220 1.209 . S
C215 O222 1.226 . S
O216 Cd212 2.273 1_556 S
O216 Cd214 2.411 1_556 S
O216 C219 1.320 . S
O217 Cd214 2.333 1_556 S
O217 C219 1.214 . S
O218 Cd214 2.352 . S
O218 C221 1.258 . S
C219 O216 1.320 . S
C219 O217 1.214 . S
O220 Cd212 2.277 . S
O220 C215 1.209 . S
C221 O218 1.258 . S
C221 O223 1.282 . S
O222 Cd214 2.277 . S
O222 C215 1.226 . S
O223 Cd214 2.356 . S
O223 C221 1.282 . S
C224 O225 1.306 . S
C224 O227 1.160 . S
O225 C224 1.306 . S
O225 Cd226 2.228 . S
Cd226 O225 2.228 . S
Cd226 O230 2.273 . S
Cd226 O234 2.277 . S
O227 C224 1.160 . S
O227 Cd228 2.203 . S
Cd228 O227 2.203 . S
Cd228 O230 2.411 . S
Cd228 O231 2.333 . S
Cd228 O232 2.352 . S
Cd228 O236 2.277 . S
Cd228 O237 2.356 . S
C229 O234 1.209 . S
C229 O236 1.226 . S
O230 Cd226 2.273 . S
O230 Cd228 2.411 . S
O230 C233 1.320 . S
O231 Cd228 2.333 . S
O231 C233 1.214 . S
O232 Cd228 2.352 . S
O232 C235 1.258 . S
C233 O230 1.320 . S
C233 O231 1.214 . S
O234 Cd226 2.277 . S
O234 C229 1.209 . S
C235 O232 1.258 . S
C235 O237 1.282 . S
O236 Cd228 2.277 . S
O236 C229 1.226 . S
O237 Cd228 2.356 . S
O237 C235 1.282 . S
C238 O239 1.306 . S
C238 O241 1.160 . S
O239 C238 1.306 . S
O239 Cd240 2.228 . S
Cd240 O239 2.228 . S
Cd240 O244 2.273 1_554 S
Cd240 O248 2.277 . S
O241 C238 1.160 . S
O241 Cd242 2.203 . S
Cd242 O241 2.203 . S
Cd242 O244 2.411 1_554 S
Cd242 O245 2.333 1_554 S
Cd242 O246 2.352 . S
Cd242 O250 2.277 . S
Cd242 O251 2.356 . S
C243 O248 1.209 . S
C243 O250 1.226 . S
O244 Cd240 2.273 1_556 S
O244 Cd242 2.411 1_556 S
O244 C247 1.320 . S
O245 Cd242 2.333 1_556 S
O245 C247 1.214 . S
O246 Cd242 2.352 . S
O246 C249 1.258 . S
C247 O244 1.320 . S
C247 O245 1.214 . S
O248 Cd240 2.277 . S
O248 C243 1.209 . S
C249 O246 1.258 . S
C249 O251 1.282 . S
O250 Cd242 2.277 . S
O250 C243 1.226 . S
O251 Cd242 2.356 . S
O251 C249 1.282 . S
C252 O253 1.306 . S
C252 O255 1.160 . S
O253 C252 1.306 . S
O253 Cd254 2.228 . S
Cd254 O253 2.228 . S
Cd254 O258 2.273 . S
Cd254 O262 2.277 . S
O255 C252 1.160 . S
O255 Cd256 2.203 . S
Cd256 O255 2.203 . S
Cd256 O258 2.411 . S
Cd256 O259 2.333 . S
Cd256 O260 2.352 . S
Cd256 O264 2.277 . S
Cd256 O265 2.356 . S
C257 O262 1.209 . S
C257 O264 1.226 . S
O258 Cd254 2.273 . S
O258 Cd256 2.411 . S
O258 C261 1.320 . S
O259 Cd256 2.333 . S
O259 C261 1.214 . S
O260 Cd256 2.352 . S
O260 C263 1.258 . S
C261 O258 1.320 . S
C261 O259 1.214 . S
O262 Cd254 2.277 . S
O262 C257 1.209 . S
C263 O260 1.258 . S
C263 O265 1.282 . S
O264 Cd256 2.277 . S
O264 C257 1.226 . S
O265 Cd256 2.356 . S
O265 C263 1.282 . S
C266 O267 1.306 . S
C266 O269 1.160 . S
O267 C266 1.306 . S
O267 Cd268 2.228 . S
Cd268 O267 2.228 . S
Cd268 O272 2.273 . S
Cd268 O276 2.277 . S
O269 C266 1.160 . S
O269 Cd270 2.203 . S
Cd270 O269 2.203 . S
Cd270 O272 2.411 . S
Cd270 O273 2.333 . S
Cd270 O274 2.352 . S
Cd270 O278 2.277 . S
Cd270 O279 2.356 . S
C271 O276 1.209 . S
C271 O278 1.226 . S
O272 Cd268 2.273 . S
O272 Cd270 2.411 . S
O272 C275 1.320 . S
O273 Cd270 2.333 . S
O273 C275 1.214 . S
O274 Cd270 2.352 . S
O274 C277 1.258 . S
C275 O272 1.320 . S
C275 O273 1.214 . S
O276 Cd268 2.277 . S
O276 C271 1.209 . S
C277 O274 1.258 . S
C277 O279 1.282 . S
O278 Cd270 2.277 . S
O278 C271 1.226 . S
O279 Cd270 2.356 . S
O279 C277 1.282 . S
C280 O281 1.306 . S
C280 O283 1.160 . S
O281 C280 1.306 . S
O281 Cd282 2.228 . S
Cd282 O281 2.228 . S
Cd282 O286 2.273 . S
Cd282 O290 2.277 . S
O283 C280 1.160 . S
O283 Cd284 2.203 . S
Cd284 O283 2.203 . S
Cd284 O286 2.411 . S
Cd284 O287 2.333 . S
Cd284 O288 2.352 . S
Cd284 O292 2.277 . S
Cd284 O293 2.356 . S
C285 O290 1.209 . S
C285 O292 1.226 . S
O286 Cd282 2.273 . S
O286 Cd284 2.411 . S
O286 C289 1.320 . S
O287 Cd284 2.333 . S
O287 C289 1.214 . S
O288 Cd284 2.352 . S
O288 C291 1.258 . S
C289 O286 1.320 . S
C289 O287 1.214 . S
O290 Cd282 2.277 . S
O290 C285 1.209 . S
C291 O288 1.258 . S
C291 O293 1.282 . S
O292 Cd284 2.277 . S
O292 C285 1.226 . S
O293 Cd284 2.356 . S
O293 C291 1.282 . S
C294 O295 1.306 . S
C294 O297 1.160 . S
O295 C294 1.306 . S
O295 Cd296 2.228 . S
Cd296 O295 2.228 . S
Cd296 O300 2.273 1_556 S
Cd296 O304 2.277 . S
O297 C294 1.160 . S
O297 Cd298 2.203 . S
Cd298 O297 2.203 . S
Cd298 O300 2.411 1_556 S
Cd298 O301 2.333 1_556 S
Cd298 O302 2.352 . S
Cd298 O306 2.277 . S
Cd298 O307 2.356 . S
C299 O304 1.209 . S
C299 O306 1.226 . S
O300 Cd296 2.273 1_554 S
O300 Cd298 2.411 1_554 S
O300 C303 1.320 . S
O301 Cd298 2.333 1_554 S
O301 C303 1.214 . S
O302 Cd298 2.352 . S
O302 C305 1.258 . S
C303 O300 1.320 . S
C303 O301 1.214 . S
O304 Cd296 2.277 . S
O304 C299 1.209 . S
C305 O302 1.258 . S
C305 O307 1.282 . S
O306 Cd298 2.277 . S
O306 C299 1.226 . S
O307 Cd298 2.356 . S
O307 C305 1.282 . S
C308 O309 1.306 . S
C308 O311 1.160 . S
O309 C308 1.306 . S
O309 Cd310 2.228 . S
Cd310 O309 2.228 . S
Cd310 O314 2.273 . S
Cd310 O318 2.277 . S
O311 C308 1.160 . S
O311 Cd312 2.203 . S
Cd312 O311 2.203 . S
Cd312 O314 2.411 . S
Cd312 O315 2.333 . S
Cd312 O316 2.352 . S
Cd312 O320 2.277 . S
Cd312 O321 2.356 . S
C313 O318 1.209 . S
C313 O320 1.226 . S
O314 Cd310 2.273 . S
O314 Cd312 2.411 . S
O314 C317 1.320 . S
O315 Cd312 2.333 . S
O315 C317 1.214 . S
O316 Cd312 2.352 . S
O316 C319 1.258 . S
C317 O314 1.320 . S
C317 O315 1.214 . S
O318 Cd310 2.277 . S
O318 C313 1.209 . S
C319 O316 1.258 . S
C319 O321 1.282 . S
O320 Cd312 2.277 . S
O320 C313 1.226 . S
O321 Cd312 2.356 . S
O321 C319 1.282 . S
C322 O323 1.306 . S
C322 O325 1.160 . S
O323 C322 1.306 . S
O323 Cd324 2.228 . S
Cd324 O323 2.228 . S
Cd324 O328 2.273 . S
Cd324 O332 2.277 . S
O325 C322 1.160 . S
O325 Cd326 2.203 . S
Cd326 O325 2.203 . S
Cd326 O328 2.411 . S
Cd326 O329 2.333 . S
Cd326 O330 2.352 . S
Cd326 O334 2.277 . S
Cd326 O335 2.356 . S
C327 O332 1.209 . S
C327 O334 1.226 . S
O328 Cd324 2.273 . S
O328 Cd326 2.411 . S
O328 C331 1.320 . S
O329 Cd326 2.333 . S
O329 C331 1.214 . S
O330 Cd326 2.352 . S
O330 C333 1.258 . S
C331 O328 1.320 . S
C331 O329 1.214 . S
O332 Cd324 2.277 . S
O332 C327 1.209 . S
C333 O330 1.258 . S
C333 O335 1.282 . S
O334 Cd326 2.277 . S
O334 C327 1.226 . S
O335 Cd326 2.356 . S
O335 C333 1.282 . S
C336 O337 1.306 . S
C336 O339 1.160 . S
O337 C336 1.306 . S
O337 Cd338 2.228 . S
Cd338 O337 2.228 . S
Cd338 O342 2.273 . S
Cd338 O346 2.277 . S
O339 C336 1.160 . S
O339 Cd340 2.203 . S
Cd340 O339 2.203 . S
Cd340 O342 2.411 . S
Cd340 O343 2.333 . S
Cd340 O344 2.352 . S
Cd340 O348 2.277 . S
Cd340 O349 2.356 . S
C341 O346 1.209 . S
C341 O348 1.226 . S
O342 Cd338 2.273 . S
O342 Cd340 2.411 . S
O342 C345 1.320 . S
O343 Cd340 2.333 . S
O343 C345 1.214 . S
O344 Cd340 2.352 . S
O344 C347 1.258 . S
C345 O342 1.320 . S
C345 O343 1.214 . S
O346 Cd338 2.277 . S
O346 C341 1.209 . S
C347 O344 1.258 . S
C347 O349 1.282 . S
O348 Cd340 2.277 . S
O348 C341 1.226 . S
O349 Cd340 2.356 . S
O349 C347 1.282 . S
C350 O351 1.306 . S
C350 O353 1.160 . S
O351 C350 1.306 . S
O351 Cd352 2.228 . S
Cd352 O351 2.228 . S
Cd352 O356 2.273 1_556 S
Cd352 O360 2.277 . S
O353 C350 1.160 . S
O353 Cd354 2.203 . S
Cd354 O353 2.203 . S
Cd354 O356 2.411 1_556 S
Cd354 O357 2.333 1_556 S
Cd354 O358 2.352 . S
Cd354 O362 2.277 . S
Cd354 O363 2.356 . S
C355 O360 1.209 . S
C355 O362 1.226 . S
O356 Cd352 2.273 1_554 S
O356 Cd354 2.411 1_554 S
O356 C359 1.320 . S
O357 Cd354 2.333 1_554 S
O357 C359 1.214 . S
O358 Cd354 2.352 . S
O358 C361 1.258 . S
C359 O356 1.320 . S
C359 O357 1.214 . S
O360 Cd352 2.277 . S
O360 C355 1.209 . S
C361 O358 1.258 . S
C361 O363 1.282 . S
O362 Cd354 2.277 . S
O362 C355 1.226 . S
O363 Cd354 2.356 . S
O363 C361 1.282 . S
C364 O365 1.306 . S
C364 O367 1.160 . S
O365 C364 1.306 . S
O365 Cd366 2.228 . S
Cd366 O365 2.228 . S
Cd366 O370 2.273 . S
Cd366 O374 2.277 . S
O367 C364 1.160 . S
O367 Cd368 2.203 . S
Cd368 O367 2.203 . S
Cd368 O370 2.411 . S
Cd368 O371 2.333 . S
Cd368 O372 2.352 . S
Cd368 O376 2.277 . S
Cd368 O377 2.356 . S
C369 O374 1.209 . S
C369 O376 1.226 . S
O370 Cd366 2.273 . S
O370 Cd368 2.411 . S
O370 C373 1.320 . S
O371 Cd368 2.333 . S
O371 C373 1.214 . S
O372 Cd368 2.352 . S
O372 C375 1.258 . S
C373 O370 1.320 . S
C373 O371 1.214 . S
O374 Cd366 2.277 . S
O374 C369 1.209 . S
C375 O372 1.258 . S
C375 O377 1.282 . S
O376 Cd368 2.277 . S
O376 C369 1.226 . S
O377 Cd368 2.356 . S
O377 C375 1.282 . S
C378 O379 1.306 . S
C378 O381 1.160 . S
O379 C378 1.306 . S
O379 Cd380 2.228 . S
Cd380 O379 2.228 . S
Cd380 O384 2.273 . S
Cd380 O388 2.277 . S
O381 C378 1.160 . S
O381 Cd382 2.203 . S
Cd382 O381 2.203 . S
Cd382 O384 2.411 . S
Cd382 O385 2.333 . S
Cd382 O386 2.352 . S
Cd382 O390 2.277 . S
Cd382 O391 2.356 . S
C383 O388 1.209 . S
C383 O390 1.226 . S
O384 Cd380 2.273 . S
O384 Cd382 2.411 . S
O384 C387 1.320 . S
O385 Cd382 2.333 . S
O385 C387 1.214 . S
O386 Cd382 2.352 . S
O386 C389 1.258 . S
C387 O384 1.320 . S
C387 O385 1.214 . S
O388 Cd380 2.277 . S
O388 C383 1.209 . S
C389 O386 1.258 . S
C389 O391 1.282 . S
O390 Cd382 2.277 . S
O390 C383 1.226 . S
O391 Cd382 2.356 . S
O391 C389 1.282 . S
C392 O393 1.306 . S
C392 O395 1.160 . S
O393 C392 1.306 . S
O393 Cd394 2.228 . S
Cd394 O393 2.228 . S
Cd394 O398 2.273 . S
Cd394 O402 2.277 . S
O395 C392 1.160 . S
O395 Cd396 2.203 . S
Cd396 O395 2.203 . S
Cd396 O398 2.411 . S
Cd396 O399 2.333 . S
Cd396 O400 2.352 . S
Cd396 O404 2.277 . S
Cd396 O405 2.356 . S
C397 O402 1.209 . S
C397 O404 1.226 . S
O398 Cd394 2.273 . S
O398 Cd396 2.411 . S
O398 C401 1.320 . S
O399 Cd396 2.333 . S
O399 C401 1.214 . S
O400 Cd396 2.352 . S
O400 C403 1.258 . S
C401 O398 1.320 . S
C401 O399 1.214 . S
O402 Cd394 2.277 . S
O402 C397 1.209 . S
C403 O400 1.258 . S
C403 O405 1.282 . S
O404 Cd396 2.277 . S
O404 C397 1.226 . S
O405 Cd396 2.356 . S
O405 C403 1.282 . S
C406 O407 1.306 . S
C406 O409 1.160 . S
O407 C406 1.306 . S
O407 Cd408 2.228 . S
Cd408 O407 2.228 . S
Cd408 O412 2.273 1_554 S
Cd408 O416 2.277 . S
O409 C406 1.160 . S
O409 Cd410 2.203 . S
Cd410 O409 2.203 . S
Cd410 O412 2.411 1_554 S
Cd410 O413 2.333 1_554 S
Cd410 O414 2.352 . S
Cd410 O418 2.277 . S
Cd410 O419 2.356 . S
C411 O416 1.209 . S
C411 O418 1.226 . S
O412 Cd408 2.273 1_556 S
O412 Cd410 2.411 1_556 S
O412 C415 1.320 . S
O413 Cd410 2.333 1_556 S
O413 C415 1.214 . S
O414 Cd410 2.352 . S
O414 C417 1.258 . S
C415 O412 1.320 . S
C415 O413 1.214 . S
O416 Cd408 2.277 . S
O416 C411 1.209 . S
C417 O414 1.258 . S
C417 O419 1.282 . S
O418 Cd410 2.277 . S
O418 C411 1.226 . S
O419 Cd410 2.356 . S
O419 C417 1.282 . S
C420 O421 1.306 . S
C420 O423 1.160 . S
O421 C420 1.306 . S
O421 Cd422 2.228 . S
Cd422 O421 2.228 . S
Cd422 O426 2.273 . S
Cd422 O430 2.277 . S
O423 C420 1.160 . S
O423 Cd424 2.203 . S
Cd424 O423 2.203 . S
Cd424 O426 2.411 . S
Cd424 O427 2.333 . S
Cd424 O428 2.352 . S
Cd424 O432 2.277 . S
Cd424 O433 2.356 . S
C425 O430 1.209 . S
C425 O432 1.226 . S
O426 Cd422 2.273 . S
O426 Cd424 2.411 . S
O426 C429 1.320 . S
O427 Cd424 2.333 . S
O427 C429 1.214 . S
O428 Cd424 2.352 . S
O428 C431 1.258 . S
C429 O426 1.320 . S
C429 O427 1.214 . S
O430 Cd422 2.277 . S
O430 C425 1.209 . S
C431 O428 1.258 . S
C431 O433 1.282 . S
O432 Cd424 2.277 . S
O432 C425 1.226 . S
O433 Cd424 2.356 . S
O433 C431 1.282 . S
C434 O435 1.306 . S
C434 O437 1.160 . S
O435 C434 1.306 . S
O435 Cd436 2.228 . S
Cd436 O435 2.228 . S
Cd436 O440 2.273 . S
Cd436 O444 2.277 . S
O437 C434 1.160 . S
O437 Cd438 2.203 . S
Cd438 O437 2.203 . S
Cd438 O440 2.411 . S
Cd438 O441 2.333 . S
Cd438 O442 2.352 . S
Cd438 O446 2.277 . S
Cd438 O447 2.356 . S
C439 O444 1.209 . S
C439 O446 1.226 . S
O440 Cd436 2.273 . S
O440 Cd438 2.411 . S
O440 C443 1.320 . S
O441 Cd438 2.333 . S
O441 C443 1.214 . S
O442 Cd438 2.352 . S
O442 C445 1.258 . S
C443 O440 1.320 . S
C443 O441 1.214 . S
O444 Cd436 2.277 . S
O444 C439 1.209 . S
C445 O442 1.258 . S
C445 O447 1.282 . S
O446 Cd438 2.277 . S
O446 C439 1.226 . S
O447 Cd438 2.356 . S
O447 C445 1.282 . S
C448 C449 1.387 . S
C448 H452 0.950 . S
C448 C457 1.390 . S
C449 C448 1.387 . S
C449 C451 1.387 . S
H450 C457 0.950 . S
C451 C449 1.387 . S
C451 C453 1.390 . S
C451 H455 0.950 . S
H452 C448 0.950 . S
C453 C451 1.390 . S
C453 C454 1.387 . S
C453 H456 0.950 . S
C454 C453 1.387 . S
C454 C457 1.387 . S
H455 C451 0.950 . S
H456 C453 0.950 . S
C457 C448 1.390 . S
C457 H450 0.950 . S
C457 C454 1.387 . S
C458 C459 1.387 . S
C458 H462 0.950 . S
C458 C467 1.390 . S
C459 C458 1.387 . S
C459 C461 1.387 . S
H460 C467 0.950 . S
C461 C459 1.387 . S
C461 C463 1.390 . S
C461 H465 0.950 . S
H462 C458 0.950 . S
C463 C461 1.390 . S
C463 C464 1.387 . S
C463 H466 0.950 . S
C464 C463 1.387 . S
C464 C467 1.387 . S
H465 C461 0.950 . S
H466 C463 0.950 . S
C467 C458 1.390 . S
C467 H460 0.950 . S
C467 C464 1.387 . S
C468 C469 1.387 . S
C468 H472 0.950 . S
C468 C477 1.390 . S
C469 C468 1.387 . S
C469 C471 1.387 . S
H470 C477 0.950 . S
C471 C469 1.387 . S
C471 C473 1.390 . S
C471 H475 0.950 . S
H472 C468 0.950 . S
C473 C471 1.390 . S
C473 C474 1.387 . S
C473 H476 0.950 . S
C474 C473 1.387 . S
C474 C477 1.387 . S
H475 C471 0.950 . S
H476 C473 0.950 . S
C477 C468 1.390 . S
C477 H470 0.950 . S
C477 C474 1.387 . S
C478 C479 1.387 . S
C478 H482 0.950 . S
C478 C487 1.390 . S
C479 C478 1.387 . S
C479 C481 1.387 . S
H480 C487 0.950 . S
C481 C479 1.387 . S
C481 C483 1.390 . S
C481 H485 0.950 . S
H482 C478 0.950 . S
C483 C481 1.390 . S
C483 C484 1.387 . S
C483 H486 0.950 . S
C484 C483 1.387 . S
C484 C487 1.387 . S
H485 C481 0.950 . S
H486 C483 0.950 . S
C487 C478 1.390 . S
C487 H480 0.950 . S
C487 C484 1.387 . S
C488 C489 1.387 . S
C488 H492 0.950 . S
C488 C497 1.390 . S
C489 C488 1.387 . S
C489 C491 1.387 . S
H490 C497 0.950 . S
C491 C489 1.387 . S
C491 C493 1.390 . S
C491 H495 0.950 . S
H492 C488 0.950 . S
C493 C491 1.390 . S
C493 C494 1.387 . S
C493 H496 0.950 . S
C494 C493 1.387 . S
C494 C497 1.387 . S
H495 C491 0.950 . S
H496 C493 0.950 . S
C497 C488 1.390 . S
C497 H490 0.950 . S
C497 C494 1.387 . S
C498 C499 1.387 . S
C498 H502 0.950 . S
C498 C507 1.390 . S
C499 C498 1.387 . S
C499 C501 1.387 . S
H500 C507 0.950 . S
C501 C499 1.387 . S
C501 C503 1.390 . S
C501 H505 0.950 . S
H502 C498 0.950 . S
C503 C501 1.390 . S
C503 C504 1.387 . S
C503 H506 0.950 . S
C504 C503 1.387 . S
C504 C507 1.387 . S
H505 C501 0.950 . S
H506 C503 0.950 . S
C507 C498 1.390 . S
C507 H500 0.950 . S
C507 C504 1.387 . S
C508 C509 1.387 . S
C508 H512 0.950 . S
C508 C517 1.390 . S
C509 C508 1.387 . S
C509 C511 1.387 . S
H510 C517 0.950 . S
C511 C509 1.387 . S
C511 C513 1.390 . S
C511 H515 0.950 . S
H512 C508 0.950 . S
C513 C511 1.390 . S
C513 C514 1.387 . S
C513 H516 0.950 . S
C514 C513 1.387 . S
C514 C517 1.387 . S
H515 C511 0.950 . S
H516 C513 0.950 . S
C517 C508 1.390 . S
C517 H510 0.950 . S
C517 C514 1.387 . S
C518 C519 1.387 . S
C518 H522 0.950 . S
C518 C527 1.390 . S
C519 C518 1.387 . S
C519 C521 1.387 . S
H520 C527 0.950 . S
C521 C519 1.387 . S
C521 C523 1.390 . S
C521 H525 0.950 . S
H522 C518 0.950 . S
C523 C521 1.390 . S
C523 C524 1.387 . S
C523 H526 0.950 . S
C524 C523 1.387 . S
C524 C527 1.387 . S
H525 C521 0.950 . S
H526 C523 0.950 . S
C527 C518 1.390 . S
C527 H520 0.950 . S
C527 C524 1.387 . S
C528 C529 1.387 . S
C528 H532 0.950 . S
C528 C537 1.390 . S
C529 C528 1.387 . S
C529 C531 1.387 . S
H530 C537 0.950 . S
C531 C529 1.387 . S
C531 C533 1.390 . S
C531 H535 0.950 . S
H532 C528 0.950 . S
C533 C531 1.390 . S
C533 C534 1.387 . S
C533 H536 0.950 . S
C534 C533 1.387 . S
C534 C537 1.387 . S
H535 C531 0.950 . S
H536 C533 0.950 . S
C537 C528 1.390 . S
C537 H530 0.950 . S
C537 C534 1.387 . S
C538 C539 1.387 . S
C538 H542 0.950 . S
C538 C547 1.390 . S
C539 C538 1.387 . S
C539 C541 1.387 . S
H540 C547 0.950 . S
C541 C539 1.387 . S
C541 C543 1.390 . S
C541 H545 0.950 . S
H542 C538 0.950 . S
C543 C541 1.390 . S
C543 C544 1.387 . S
C543 H546 0.950 . S
C544 C543 1.387 . S
C544 C547 1.387 . S
H545 C541 0.950 . S
H546 C543 0.950 . S
C547 C538 1.390 . S
C547 H540 0.950 . S
C547 C544 1.387 . S
C548 C549 1.387 . S
C548 H552 0.950 . S
C548 C557 1.390 . S
C549 C548 1.387 . S
C549 C551 1.387 . S
H550 C557 0.950 . S
C551 C549 1.387 . S
C551 C553 1.390 . S
C551 H555 0.950 . S
H552 C548 0.950 . S
C553 C551 1.390 . S
C553 C554 1.387 . S
C553 H556 0.950 . S
C554 C553 1.387 . S
C554 C557 1.387 . S
H555 C551 0.950 . S
H556 C553 0.950 . S
C557 C548 1.390 . S
C557 H550 0.950 . S
C557 C554 1.387 . S
C558 C559 1.387 . S
C558 H562 0.950 . S
C558 C567 1.390 . S
C559 C558 1.387 . S
C559 C561 1.387 . S
H560 C567 0.950 . S
C561 C559 1.387 . S
C561 C563 1.390 . S
C561 H565 0.950 . S
H562 C558 0.950 . S
C563 C561 1.390 . S
C563 C564 1.387 . S
C563 H566 0.950 . S
C564 C563 1.387 . S
C564 C567 1.387 . S
H565 C561 0.950 . S
H566 C563 0.950 . S
C567 C558 1.390 . S
C567 H560 0.950 . S
C567 C564 1.387 . S
C568 C569 1.387 . S
C568 H572 0.950 . S
C568 C577 1.390 . S
C569 C568 1.387 . S
C569 C571 1.387 . S
H570 C577 0.950 . S
C571 C569 1.387 . S
C571 C573 1.390 . S
C571 H575 0.950 . S
H572 C568 0.950 . S
C573 C571 1.390 . S
C573 C574 1.387 . S
C573 H576 0.950 . S
C574 C573 1.387 . S
C574 C577 1.387 . S
H575 C571 0.950 . S
H576 C573 0.950 . S
C577 C568 1.390 . S
C577 H570 0.950 . S
C577 C574 1.387 . S
C578 C579 1.387 . S
C578 H582 0.950 . S
C578 C587 1.390 . S
C579 C578 1.387 . S
C579 C581 1.387 . S
H580 C587 0.950 . S
C581 C579 1.387 . S
C581 C583 1.390 . S
C581 H585 0.950 . S
H582 C578 0.950 . S
C583 C581 1.390 . S
C583 C584 1.387 . S
C583 H586 0.950 . S
C584 C583 1.387 . S
C584 C587 1.387 . S
H585 C581 0.950 . S
H586 C583 0.950 . S
C587 C578 1.390 . S
C587 H580 0.950 . S
C587 C584 1.387 . S
C588 C589 1.387 . S
C588 H592 0.950 . S
C588 C597 1.390 . S
C589 C588 1.387 . S
C589 C591 1.387 . S
H590 C597 0.950 . S
C591 C589 1.387 . S
C591 C593 1.390 . S
C591 H595 0.950 . S
H592 C588 0.950 . S
C593 C591 1.390 . S
C593 C594 1.387 . S
C593 H596 0.950 . S
C594 C593 1.387 . S
C594 C597 1.387 . S
H595 C591 0.950 . S
H596 C593 0.950 . S
C597 C588 1.390 . S
C597 H590 0.950 . S
C597 C594 1.387 . S
C598 C599 1.387 . S
C598 H602 0.950 . S
C598 C607 1.390 . S
C599 C598 1.387 . S
C599 C601 1.387 . S
H600 C607 0.950 . S
C601 C599 1.387 . S
C601 C603 1.390 . S
C601 H605 0.950 . S
H602 C598 0.950 . S
C603 C601 1.390 . S
C603 C604 1.387 . S
C603 H606 0.950 . S
C604 C603 1.387 . S
C604 C607 1.387 . S
H605 C601 0.950 . S
H606 C603 0.950 . S
C607 C598 1.390 . S
C607 H600 0.950 . S
C607 C604 1.387 . S
C608 C609 1.387 . S
C608 H612 0.950 . S
C608 C617 1.390 . S
C609 C608 1.387 . S
C609 C611 1.387 . S
H610 C617 0.950 . S
C611 C609 1.387 . S
C611 C613 1.390 . S
C611 H615 0.950 . S
H612 C608 0.950 . S
C613 C611 1.390 . S
C613 C614 1.387 . S
C613 H616 0.950 . S
C614 C613 1.387 . S
C614 C617 1.387 . S
H615 C611 0.950 . S
H616 C613 0.950 . S
C617 C608 1.390 . S
C617 H610 0.950 . S
C617 C614 1.387 . S
C618 C619 1.387 . S
C618 H622 0.950 . S
C618 C627 1.390 . S
C619 C618 1.387 . S
C619 C621 1.387 . S
H620 C627 0.950 . S
C621 C619 1.387 . S
C621 C623 1.390 . S
C621 H625 0.950 . S
H622 C618 0.950 . S
C623 C621 1.390 . S
C623 C624 1.387 . S
C623 H626 0.950 . S
C624 C623 1.387 . S
C624 C627 1.387 . S
H625 C621 0.950 . S
H626 C623 0.950 . S
C627 C618 1.390 . S
C627 H620 0.950 . S
C627 C624 1.387 . S
C628 C629 1.387 . S
C628 H632 0.950 . S
C628 C637 1.390 . S
C629 C628 1.387 . S
C629 C631 1.387 . S
H630 C637 0.950 . S
C631 C629 1.387 . S
C631 C633 1.390 . S
C631 H635 0.950 . S
H632 C628 0.950 . S
C633 C631 1.390 . S
C633 C634 1.387 . S
C633 H636 0.950 . S
C634 C633 1.387 . S
C634 C637 1.387 . S
H635 C631 0.950 . S
H636 C633 0.950 . S
C637 C628 1.390 . S
C637 H630 0.950 . S
C637 C634 1.387 . S
C638 C639 1.387 . S
C638 H642 0.950 . S
C638 C647 1.390 . S
C639 C638 1.387 . S
C639 C641 1.387 . S
H640 C647 0.950 . S
C641 C639 1.387 . S
C641 C643 1.390 . S
C641 H645 0.950 . S
H642 C638 0.950 . S
C643 C641 1.390 . S
C643 C644 1.387 . S
C643 H646 0.950 . S
C644 C643 1.387 . S
C644 C647 1.387 . S
H645 C641 0.950 . S
H646 C643 0.950 . S
C647 C638 1.390 . S
C647 H640 0.950 . S
C647 C644 1.387 . S
C648 C649 1.387 . S
C648 H652 0.950 . S
C648 C657 1.390 . S
C649 C648 1.387 . S
C649 C651 1.387 . S
H650 C657 0.950 . S
C651 C649 1.387 . S
C651 C653 1.390 . S
C651 H655 0.950 . S
H652 C648 0.950 . S
C653 C651 1.390 . S
C653 C654 1.387 . S
C653 H656 0.950 . S
C654 C653 1.387 . S
C654 C657 1.387 . S
H655 C651 0.950 . S
H656 C653 0.950 . S
C657 C648 1.390 . S
C657 H650 0.950 . S
C657 C654 1.387 . S
C658 C659 1.387 . S
C658 H662 0.950 . S
C658 C667 1.390 . S
C659 C658 1.387 . S
C659 C661 1.387 . S
H660 C667 0.950 . S
C661 C659 1.387 . S
C661 C663 1.390 . S
C661 H665 0.950 . S
H662 C658 0.950 . S
C663 C661 1.390 . S
C663 C664 1.387 . S
C663 H666 0.950 . S
C664 C663 1.387 . S
C664 C667 1.387 . S
H665 C661 0.950 . S
H666 C663 0.950 . S
C667 C658 1.390 . S
C667 H660 0.950 . S
C667 C664 1.387 . S
C668 C669 1.387 . S
C668 H672 0.950 . S
C668 C677 1.390 . S
C669 C668 1.387 . S
C669 C671 1.387 . S
H670 C677 0.950 . S
C671 C669 1.387 . S
C671 C673 1.390 . S
C671 H675 0.950 . S
H672 C668 0.950 . S
C673 C671 1.390 . S
C673 C674 1.387 . S
C673 H676 0.950 . S
C674 C673 1.387 . S
C674 C677 1.387 . S
H675 C671 0.950 . S
H676 C673 0.950 . S
C677 C668 1.390 . S
C677 H670 0.950 . S
C677 C674 1.387 . S
C678 C679 1.387 . S
C678 H682 0.950 . S
C678 C687 1.390 . S
C679 C678 1.387 . S
C679 C681 1.387 . S
H680 C687 0.950 . S
C681 C679 1.387 . S
C681 C683 1.390 . S
C681 H685 0.950 . S
H682 C678 0.950 . S
C683 C681 1.390 . S
C683 C684 1.387 . S
C683 H686 0.950 . S
C684 C683 1.387 . S
C684 C687 1.387 . S
H685 C681 0.950 . S
H686 C683 0.950 . S
C687 C678 1.390 . S
C687 H680 0.950 . S
C687 C684 1.387 . S
C688 C689 1.387 . S
C688 H692 0.950 . S
C688 C697 1.390 . S
C689 C688 1.387 . S
C689 C691 1.387 . S
H690 C697 0.950 . S
C691 C689 1.387 . S
C691 C693 1.390 . S
C691 H695 0.950 . S
H692 C688 0.950 . S
C693 C691 1.390 . S
C693 C694 1.387 . S
C693 H696 0.950 . S
C694 C693 1.387 . S
C694 C697 1.387 . S
H695 C691 0.950 . S
H696 C693 0.950 . S
C697 C688 1.390 . S
C697 H690 0.950 . S
C697 C694 1.387 . S
C698 C699 1.387 . S
C698 H702 0.950 . S
C698 C707 1.390 . S
C699 C698 1.387 . S
C699 C701 1.387 . S
H700 C707 0.950 . S
C701 C699 1.387 . S
C701 C703 1.390 . S
C701 H705 0.950 . S
H702 C698 0.950 . S
C703 C701 1.390 . S
C703 C704 1.387 . S
C703 H706 0.950 . S
C704 C703 1.387 . S
C704 C707 1.387 . S
H705 C701 0.950 . S
H706 C703 0.950 . S
C707 C698 1.390 . S
C707 H700 0.950 . S
C707 C704 1.387 . S
C708 C709 1.387 . S
C708 H712 0.950 . S
C708 C717 1.390 . S
C709 C708 1.387 . S
C709 C711 1.387 . S
H710 C717 0.950 . S
C711 C709 1.387 . S
C711 C713 1.390 . S
C711 H715 0.950 . S
H712 C708 0.950 . S
C713 C711 1.390 . S
C713 C714 1.387 . S
C713 H716 0.950 . S
C714 C713 1.387 . S
C714 C717 1.387 . S
H715 C711 0.950 . S
H716 C713 0.950 . S
C717 C708 1.390 . S
C717 H710 0.950 . S
C717 C714 1.387 . S
C718 C719 1.387 . S
C718 H722 0.950 . S
C718 C727 1.390 . S
C719 C718 1.387 . S
C719 C721 1.387 . S
H720 C727 0.950 . S
C721 C719 1.387 . S
C721 C723 1.390 . S
C721 H725 0.950 . S
H722 C718 0.950 . S
C723 C721 1.390 . S
C723 C724 1.387 . S
C723 H726 0.950 . S
C724 C723 1.387 . S
C724 C727 1.387 . S
H725 C721 0.950 . S
H726 C723 0.950 . S
C727 C718 1.390 . S
C727 H720 0.950 . S
C727 C724 1.387 . S
C728 C729 1.387 . S
C728 H732 0.950 . S
C728 C737 1.390 . S
C729 C728 1.387 . S
C729 C731 1.387 . S
H730 C737 0.950 . S
C731 C729 1.387 . S
C731 C733 1.390 . S
C731 H735 0.950 . S
H732 C728 0.950 . S
C733 C731 1.390 . S
C733 C734 1.387 . S
C733 H736 0.950 . S
C734 C733 1.387 . S
C734 C737 1.387 . S
H735 C731 0.950 . S
H736 C733 0.950 . S
C737 C728 1.390 . S
C737 H730 0.950 . S
C737 C734 1.387 . S
C738 C739 1.387 . S
C738 H742 0.950 . S
C738 C747 1.390 . S
C739 C738 1.387 . S
C739 C741 1.387 . S
H740 C747 0.950 . S
C741 C739 1.387 . S
C741 C743 1.390 . S
C741 H745 0.950 . S
H742 C738 0.950 . S
C743 C741 1.390 . S
C743 C744 1.387 . S
C743 H746 0.950 . S
C744 C743 1.387 . S
C744 C747 1.387 . S
H745 C741 0.950 . S
H746 C743 0.950 . S
C747 C738 1.390 . S
C747 H740 0.950 . S
C747 C744 1.387 . S
C748 C749 1.387 . S
C748 H752 0.950 . S
C748 C757 1.390 . S
C749 C748 1.387 . S
C749 C751 1.387 . S
H750 C757 0.950 . S
C751 C749 1.387 . S
C751 C753 1.390 . S
C751 H755 0.950 . S
H752 C748 0.950 . S
C753 C751 1.390 . S
C753 C754 1.387 . S
C753 H756 0.950 . S
C754 C753 1.387 . S
C754 C757 1.387 . S
H755 C751 0.950 . S
H756 C753 0.950 . S
C757 C748 1.390 . S
C757 H750 0.950 . S
C757 C754 1.387 . S
C758 C759 1.387 . S
C758 H762 0.950 . S
C758 C767 1.390 . S
C759 C758 1.387 . S
C759 C761 1.387 . S
H760 C767 0.950 . S
C761 C759 1.387 . S
C761 C763 1.390 . S
C761 H765 0.950 . S
H762 C758 0.950 . S
C763 C761 1.390 . S
C763 C764 1.387 . S
C763 H766 0.950 . S
C764 C763 1.387 . S
C764 C767 1.387 . S
H765 C761 0.950 . S
H766 C763 0.950 . S
C767 C758 1.390 . S
C767 H760 0.950 . S
C767 C764 1.387 . S
C768 C769 1.387 . S
C768 H772 0.950 . S
C768 C777 1.390 . S
C769 C768 1.387 . S
C769 C771 1.387 . S
H770 C777 0.950 . S
C771 C769 1.387 . S
C771 C773 1.390 . S
C771 H775 0.950 . S
H772 C768 0.950 . S
C773 C771 1.390 . S
C773 C774 1.387 . S
C773 H776 0.950 . S
C774 C773 1.387 . S
C774 C777 1.387 . S
H775 C771 0.950 . S
H776 C773 0.950 . S
C777 C768 1.390 . S
C777 H770 0.950 . S
C777 C774 1.387 . S
C778 C779 1.387 . S
C778 H782 0.950 . S
C778 C787 1.390 . S
C779 C778 1.387 . S
C779 C781 1.387 . S
H780 C787 0.950 . S
C781 C779 1.387 . S
C781 C783 1.390 . S
C781 H785 0.950 . S
H782 C778 0.950 . S
C783 C781 1.390 . S
C783 C784 1.387 . S
C783 H786 0.950 . S
C784 C783 1.387 . S
C784 C787 1.387 . S
H785 C781 0.950 . S
H786 C783 0.950 . S
C787 C778 1.390 . S
C787 H780 0.950 . S
C787 C784 1.387 . S
C788 C789 1.387 . S
C788 H792 0.950 . S
C788 C797 1.390 . S
C789 C788 1.387 . S
C789 C791 1.387 . S
H790 C797 0.950 . S
C791 C789 1.387 . S
C791 C793 1.390 . S
C791 H795 0.950 . S
H792 C788 0.950 . S
C793 C791 1.390 . S
C793 C794 1.387 . S
C793 H796 0.950 . S
C794 C793 1.387 . S
C794 C797 1.387 . S
H795 C791 0.950 . S
H796 C793 0.950 . S
C797 C788 1.390 . S
C797 H790 0.950 . S
C797 C794 1.387 . S
C798 C799 1.387 . S
C798 H802 0.950 . S
C798 C807 1.390 . S
C799 C798 1.387 . S
C799 C801 1.387 . S
H800 C807 0.950 . S
C801 C799 1.387 . S
C801 C803 1.390 . S
C801 H805 0.950 . S
H802 C798 0.950 . S
C803 C801 1.390 . S
C803 C804 1.387 . S
C803 H806 0.950 . S
C804 C803 1.387 . S
C804 C807 1.387 . S
H805 C801 0.950 . S
H806 C803 0.950 . S
C807 C798 1.390 . S
C807 H800 0.950 . S
C807 C804 1.387 . S
C808 C809 1.387 . S
C808 H812 0.950 . S
C808 C817 1.390 . S
C809 C808 1.387 . S
C809 C811 1.387 . S
H810 C817 0.950 . S
C811 C809 1.387 . S
C811 C813 1.390 . S
C811 H815 0.950 . S
H812 C808 0.950 . S
C813 C811 1.390 . S
C813 C814 1.387 . S
C813 H816 0.950 . S
C814 C813 1.387 . S
C814 C817 1.387 . S
H815 C811 0.950 . S
H816 C813 0.950 . S
C817 C808 1.390 . S
C817 H810 0.950 . S
C817 C814 1.387 . S
C818 C819 1.387 . S
C818 H822 0.950 . S
C818 C827 1.390 . S
C819 C818 1.387 . S
C819 C821 1.387 . S
H820 C827 0.950 . S
C821 C819 1.387 . S
C821 C823 1.390 . S
C821 H825 0.950 . S
H822 C818 0.950 . S
C823 C821 1.390 . S
C823 C824 1.387 . S
C823 H826 0.950 . S
C824 C823 1.387 . S
C824 C827 1.387 . S
H825 C821 0.950 . S
H826 C823 0.950 . S
C827 C818 1.390 . S
C827 H820 0.950 . S
C827 C824 1.387 . S
C828 C829 1.387 . S
C828 H832 0.950 . S
C828 C837 1.390 . S
C829 C828 1.387 . S
C829 C831 1.387 . S
H830 C837 0.950 . S
C831 C829 1.387 . S
C831 C833 1.390 . S
C831 H835 0.950 . S
H832 C828 0.950 . S
C833 C831 1.390 . S
C833 C834 1.387 . S
C833 H836 0.950 . S
C834 C833 1.387 . S
C834 C837 1.387 . S
H835 C831 0.950 . S
H836 C833 0.950 . S
C837 C828 1.390 . S
C837 H830 0.950 . S
C837 C834 1.387 . S
C838 C839 1.387 . S
C838 H842 0.950 . S
C838 C847 1.390 . S
C839 C838 1.387 . S
C839 C841 1.387 . S
H840 C847 0.950 . S
C841 C839 1.387 . S
C841 C843 1.390 . S
C841 H845 0.950 . S
H842 C838 0.950 . S
C843 C841 1.390 . S
C843 C844 1.387 . S
C843 H846 0.950 . S
C844 C843 1.387 . S
C844 C847 1.387 . S
H845 C841 0.950 . S
H846 C843 0.950 . S
C847 C838 1.390 . S
C847 H840 0.950 . S
C847 C844 1.387 . S
C848 C849 1.387 . S
C848 H852 0.950 . S
C848 C857 1.390 . S
C849 C848 1.387 . S
C849 C851 1.387 . S
H850 C857 0.950 . S
C851 C849 1.387 . S
C851 C853 1.390 . S
C851 H855 0.950 . S
H852 C848 0.950 . S
C853 C851 1.390 . S
C853 C854 1.387 . S
C853 H856 0.950 . S
C854 C853 1.387 . S
C854 C857 1.387 . S
H855 C851 0.950 . S
H856 C853 0.950 . S
C857 C848 1.390 . S
C857 H850 0.950 . S
C857 C854 1.387 . S
C858 C859 1.387 . S
C858 H862 0.950 . S
C858 C867 1.390 . S
C859 C858 1.387 . S
C859 C861 1.387 . S
H860 C867 0.950 . S
C861 C859 1.387 . S
C861 C863 1.390 . S
C861 H865 0.950 . S
H862 C858 0.950 . S
C863 C861 1.390 . S
C863 C864 1.387 . S
C863 H866 0.950 . S
C864 C863 1.387 . S
C864 C867 1.387 . S
H865 C861 0.950 . S
H866 C863 0.950 . S
C867 C858 1.390 . S
C867 H860 0.950 . S
C867 C864 1.387 . S
C868 C869 1.387 . S
C868 H872 0.950 . S
C868 C877 1.390 . S
C869 C868 1.387 . S
C869 C871 1.387 . S
H870 C877 0.950 . S
C871 C869 1.387 . S
C871 C873 1.390 . S
C871 H875 0.950 . S
H872 C868 0.950 . S
C873 C871 1.390 . S
C873 C874 1.387 . S
C873 H876 0.950 . S
C874 C873 1.387 . S
C874 C877 1.387 . S
H875 C871 0.950 . S
H876 C873 0.950 . S
C877 C868 1.390 . S
C877 H870 0.950 . S
C877 C874 1.387 . S
C878 C879 1.387 . S
C878 H882 0.950 . S
C878 C887 1.390 . S
C879 C878 1.387 . S
C879 C881 1.387 . S
H880 C887 0.950 . S
C881 C879 1.387 . S
C881 C883 1.390 . S
C881 H885 0.950 . S
H882 C878 0.950 . S
C883 C881 1.390 . S
C883 C884 1.387 . S
C883 H886 0.950 . S
C884 C883 1.387 . S
C884 C887 1.387 . S
H885 C881 0.950 . S
H886 C883 0.950 . S
C887 C878 1.390 . S
C887 H880 0.950 . S
C887 C884 1.387 . S
C888 C889 1.387 . S
C888 H892 0.950 . S
C888 C897 1.390 . S
C889 C888 1.387 . S
C889 C891 1.387 . S
H890 C897 0.950 . S
C891 C889 1.387 . S
C891 C893 1.390 . S
C891 H895 0.950 . S
H892 C888 0.950 . S
C893 C891 1.390 . S
C893 C894 1.387 . S
C893 H896 0.950 . S
C894 C893 1.387 . S
C894 C897 1.387 . S
H895 C891 0.950 . S
H896 C893 0.950 . S
C897 C888 1.390 . S
C897 H890 0.950 . S
C897 C894 1.387 . S
C898 C899 1.387 . S
C898 H902 0.950 . S
C898 C907 1.390 . S
C899 C898 1.387 . S
C899 C901 1.387 . S
H900 C907 0.950 . S
C901 C899 1.387 . S
C901 C903 1.390 . S
C901 H905 0.950 . S
H902 C898 0.950 . S
C903 C901 1.390 . S
C903 C904 1.387 . S
C903 H906 0.950 . S
C904 C903 1.387 . S
C904 C907 1.387 . S
H905 C901 0.950 . S
H906 C903 0.950 . S
C907 C898 1.390 . S
C907 H900 0.950 . S
C907 C904 1.387 . S
C908 C909 1.387 . S
C908 H912 0.950 . S
C908 C917 1.390 . S
C909 C908 1.387 . S
C909 C911 1.387 . S
H910 C917 0.950 . S
C911 C909 1.387 . S
C911 C913 1.390 . S
C911 H915 0.950 . S
H912 C908 0.950 . S
C913 C911 1.390 . S
C913 C914 1.387 . S
C913 H916 0.950 . S
C914 C913 1.387 . S
C914 C917 1.387 . S
H915 C911 0.950 . S
H916 C913 0.950 . S
C917 C908 1.390 . S
C917 H910 0.950 . S
C917 C914 1.387 . S
C918 C919 1.387 . S
C918 H922 0.950 . S
C918 C927 1.390 . S
C919 C918 1.387 . S
C919 C921 1.387 . S
H920 C927 0.950 . S
C921 C919 1.387 . S
C921 C923 1.390 . S
C921 H925 0.950 . S
H922 C918 0.950 . S
C923 C921 1.390 . S
C923 C924 1.387 . S
C923 H926 0.950 . S
C924 C923 1.387 . S
C924 C927 1.387 . S
H925 C921 0.950 . S
H926 C923 0.950 . S
C927 C918 1.390 . S
C927 H920 0.950 . S
C927 C924 1.387 . S
C928 C929 1.387 . S
C928 H932 0.950 . S
C928 C937 1.390 . S
C929 C928 1.387 . S
C929 C931 1.387 . S
H930 C937 0.950 . S
C931 C929 1.387 . S
C931 C933 1.390 . S
C931 H935 0.950 . S
H932 C928 0.950 . S
C933 C931 1.390 . S
C933 C934 1.387 . S
C933 H936 0.950 . S
C934 C933 1.387 . S
C934 C937 1.387 . S
H935 C931 0.950 . S
H936 C933 0.950 . S
C937 C928 1.390 . S
C937 H930 0.950 . S
C937 C934 1.387 . S
C938 C939 1.387 . S
C938 H942 0.950 . S
C938 C947 1.390 . S
C939 C938 1.387 . S
C939 C941 1.387 . S
H940 C947 0.950 . S
C941 C939 1.387 . S
C941 C943 1.390 . S
C941 H945 0.950 . S
H942 C938 0.950 . S
C943 C941 1.390 . S
C943 C944 1.387 . S
C943 H946 0.950 . S
C944 C943 1.387 . S
C944 C947 1.387 . S
H945 C941 0.950 . S
H946 C943 0.950 . S
C947 C938 1.390 . S
C947 H940 0.950 . S
C947 C944 1.387 . S
C948 C949 1.387 . S
C948 H952 0.950 . S
C948 C957 1.390 . S
C949 C948 1.387 . S
C949 C951 1.387 . S
H950 C957 0.950 . S
C951 C949 1.387 . S
C951 C953 1.390 . S
C951 H955 0.950 . S
H952 C948 0.950 . S
C953 C951 1.390 . S
C953 C954 1.387 . S
C953 H956 0.950 . S
C954 C953 1.387 . S
C954 C957 1.387 . S
H955 C951 0.950 . S
H956 C953 0.950 . S
C957 C948 1.390 . S
C957 H950 0.950 . S
C957 C954 1.387 . S
C958 C959 1.387 . S
C958 H962 0.950 . S
C958 C967 1.390 1_556 S
C959 C958 1.387 . S
C959 C961 1.387 . S
H960 C967 0.950 . S
C961 C959 1.387 . S
C961 C963 1.390 1_556 S
C961 H965 0.950 . S
H962 C958 0.950 . S
C963 C961 1.390 1_554 S
C963 C964 1.387 . S
C963 H966 0.950 . S
C964 C963 1.387 . S
C964 C967 1.387 . S
H965 C961 0.950 . S
H966 C963 0.950 . S
C967 C958 1.390 1_554 S
C967 H960 0.950 . S
C967 C964 1.387 . S
C968 C969 1.387 . S
C968 H972 0.950 . S
C968 C977 1.390 . S
C969 C968 1.387 . S
C969 C971 1.387 . S
H970 C977 0.950 . S
C971 C969 1.387 . S
C971 C973 1.390 . S
C971 H975 0.950 . S
H972 C968 0.950 . S
C973 C971 1.390 . S
C973 C974 1.387 . S
C973 H976 0.950 . S
C974 C973 1.387 . S
C974 C977 1.387 . S
H975 C971 0.950 . S
H976 C973 0.950 . S
C977 C968 1.390 . S
C977 H970 0.950 . S
C977 C974 1.387 . S
C978 C979 1.387 . S
C978 H982 0.950 . S
C978 C987 1.390 . S
C979 C978 1.387 . S
C979 C981 1.387 . S
H980 C987 0.950 . S
C981 C979 1.387 . S
C981 C983 1.390 . S
C981 H985 0.950 . S
H982 C978 0.950 . S
C983 C981 1.390 . S
C983 C984 1.387 . S
C983 H986 0.950 . S
C984 C983 1.387 . S
C984 C987 1.387 . S
H985 C981 0.950 . S
H986 C983 0.950 . S
C987 C978 1.390 . S
C987 H980 0.950 . S
C987 C984 1.387 . S
C988 C989 1.387 . S
C988 H992 0.950 . S
C988 C997 1.390 . S
C989 C988 1.387 . S
C989 C991 1.387 . S
H990 C997 0.950 . S
C991 C989 1.387 . S
C991 C993 1.390 . S
C991 H995 0.950 . S
H992 C988 0.950 . S
C993 C991 1.390 . S
C993 C994 1.387 . S
C993 H996 0.950 . S
C994 C993 1.387 . S
C994 C997 1.387 . S
H995 C991 0.950 . S
H996 C993 0.950 . S
C997 C988 1.390 . S
C997 H990 0.950 . S
C997 C994 1.387 . S
C998 C999 1.387 . S
C998 H1002 0.950 . S
C998 C1007 1.390 1_554 S
C999 C998 1.387 . S
C999 C1001 1.387 . S
H1000 C1007 0.950 . S
C1001 C999 1.387 . S
C1001 C1003 1.390 1_554 S
C1001 H1005 0.950 . S
H1002 C998 0.950 . S
C1003 C1001 1.390 1_556 S
C1003 C1004 1.387 . S
C1003 H1006 0.950 . S
C1004 C1003 1.387 . S
C1004 C1007 1.387 . S
H1005 C1001 0.950 . S
H1006 C1003 0.950 . S
C1007 C998 1.390 1_556 S
C1007 H1000 0.950 . S
C1007 C1004 1.387 . S
C1008 C1009 1.387 . S
C1008 H1012 0.950 . S
C1008 C1017 1.390 1_565 S
C1009 C1008 1.387 . S
C1009 C1011 1.387 . S
H1010 C1017 0.950 . S
C1011 C1009 1.387 . S
C1011 C1013 1.390 1_565 S
C1011 H1015 0.950 . S
H1012 C1008 0.950 . S
C1013 C1011 1.390 1_545 S
C1013 C1014 1.387 . S
C1013 H1016 0.950 . S
C1014 C1013 1.387 . S
C1014 C1017 1.387 . S
H1015 C1011 0.950 . S
H1016 C1013 0.950 . S
C1017 C1008 1.390 1_545 S
C1017 H1010 0.950 . S
C1017 C1014 1.387 . S
C1018 C1019 1.387 . S
C1018 H1022 0.950 . S
C1018 C1027 1.390 1_554 S
C1019 C1018 1.387 . S
C1019 C1021 1.387 . S
H1020 C1027 0.950 . S
C1021 C1019 1.387 . S
C1021 C1023 1.390 1_554 S
C1021 H1025 0.950 . S
H1022 C1018 0.950 . S
C1023 C1021 1.390 1_556 S
C1023 C1024 1.387 . S
C1023 H1026 0.950 . S
C1024 C1023 1.387 . S
C1024 C1027 1.387 . S
H1025 C1021 0.950 . S
H1026 C1023 0.950 . S
C1027 C1018 1.390 1_556 S
C1027 H1020 0.950 . S
C1027 C1024 1.387 . S
C1028 C1029 1.387 . S
C1028 H1032 0.950 . S
C1028 C1037 1.390 1_545 S
C1029 C1028 1.387 . S
C1029 C1031 1.387 . S
H1030 C1037 0.950 . S
C1031 C1029 1.387 . S
C1031 C1033 1.390 1_545 S
C1031 H1035 0.950 . S
H1032 C1028 0.950 . S
C1033 C1031 1.390 1_565 S
C1033 C1034 1.387 . S
C1033 H1036 0.950 . S
C1034 C1033 1.387 . S
C1034 C1037 1.387 . S
H1035 C1031 0.950 . S
H1036 C1033 0.950 . S
C1037 C1028 1.390 1_565 S
C1037 H1030 0.950 . S
C1037 C1034 1.387 . S
C1038 C1039 1.387 . S
C1038 H1042 0.950 . S
C1038 C1047 1.390 . S
C1039 C1038 1.387 . S
C1039 C1041 1.387 . S
H1040 C1047 0.950 . S
C1041 C1039 1.387 . S
C1041 C1043 1.390 . S
C1041 H1045 0.950 . S
H1042 C1038 0.950 . S
C1043 C1041 1.390 . S
C1043 C1044 1.387 . S
C1043 H1046 0.950 . S
C1044 C1043 1.387 . S
C1044 C1047 1.387 . S
H1045 C1041 0.950 . S
H1046 C1043 0.950 . S
C1047 C1038 1.390 . S
C1047 H1040 0.950 . S
C1047 C1044 1.387 . S
C1048 C1049 1.387 . S
C1048 H1052 0.950 . S
C1048 C1057 1.390 1_545 S
C1049 C1048 1.387 . S
C1049 C1051 1.387 . S
H1050 C1057 0.950 . S
C1051 C1049 1.387 . S
C1051 C1053 1.390 1_545 S
C1051 H1055 0.950 . S
H1052 C1048 0.950 . S
C1053 C1051 1.390 1_565 S
C1053 C1054 1.387 . S
C1053 H1056 0.950 . S
C1054 C1053 1.387 . S
C1054 C1057 1.387 . S
H1055 C1051 0.950 . S
H1056 C1053 0.950 . S
C1057 C1048 1.390 1_565 S
C1057 H1050 0.950 . S
C1057 C1054 1.387 . S
C1058 C1059 1.387 . S
C1058 H1062 0.950 . S
C1058 C1067 1.390 1_554 S
C1059 C1058 1.387 . S
C1059 C1061 1.387 . S
H1060 C1067 0.950 . S
C1061 C1059 1.387 . S
C1061 C1063 1.390 1_554 S
C1061 H1065 0.950 . S
H1062 C1058 0.950 . S
C1063 C1061 1.390 1_556 S
C1063 C1064 1.387 . S
C1063 H1066 0.950 . S
C1064 C1063 1.387 . S
C1064 C1067 1.387 . S
H1065 C1061 0.950 . S
H1066 C1063 0.950 . S
C1067 C1058 1.390 1_556 S
C1067 H1060 0.950 . S
C1067 C1064 1.387 . S
C1068 C1069 1.387 . S
C1068 H1072 0.950 . S
C1068 C1077 1.390 1_545 S
C1069 C1068 1.387 . S
C1069 C1071 1.387 . S
H1070 C1077 0.950 . S
C1071 C1069 1.387 . S
C1071 C1073 1.390 1_545 S
C1071 H1075 0.950 . S
H1072 C1068 0.950 . S
C1073 C1071 1.390 1_565 S
C1073 C1074 1.387 . S
C1073 H1076 0.950 . S
C1074 C1073 1.387 . S
C1074 C1077 1.387 . S
H1075 C1071 0.950 . S
H1076 C1073 0.950 . S
C1077 C1068 1.390 1_565 S
C1077 H1070 0.950 . S
C1077 C1074 1.387 . S
C1078 C1079 1.387 . S
C1078 H1082 0.950 . S
C1078 C1087 1.390 . S
C1079 C1078 1.387 . S
C1079 C1081 1.387 . S
H1080 C1087 0.950 . S
C1081 C1079 1.387 . S
C1081 C1083 1.390 . S
C1081 H1085 0.950 . S
H1082 C1078 0.950 . S
C1083 C1081 1.390 . S
C1083 C1084 1.387 . S
C1083 H1086 0.950 . S
C1084 C1083 1.387 . S
C1084 C1087 1.387 . S
H1085 C1081 0.950 . S
H1086 C1083 0.950 . S
C1087 C1078 1.390 . S
C1087 H1080 0.950 . S
C1087 C1084 1.387 . S
C449 C9 1.408 . S
C454 C303 1.408 . S
C459 C317 1.408 . S
C464 C23 1.408 . S
C469 C37 1.408 . S
C474 C331 1.408 . S
C479 C289 1.408 . S
C484 C51 1.408 . S
C489 C65 1.408 . S
C494 C275 1.408 . S
C499 C79 1.408 . S
C504 C233 1.408 . S
C509 C247 1.408 . S
C514 C93 1.408 . S
C519 C107 1.408 . S
C524 C261 1.408 . S
C529 C121 1.408 . S
C534 C415 1.408 . S
C539 C135 1.408 . S
C544 C429 1.408 . S
C549 C443 1.408 . S
C554 C149 1.408 . S
C559 C401 1.408 . S
C564 C163 1.408 . S
C569 C177 1.408 . S
C574 C387 1.408 . S
C579 C345 1.408 . S
C584 C191 1.408 . S
C589 C205 1.408 . S
C594 C359 1.408 . S
C599 C373 1.408 . S
C604 C219 1.408 . S
C609 C5 1.395 . S
C614 C126 1.415 . S
C619 C19 1.396 . S
C624 C364 1.414 1_655 S
C629 C154 1.415 . S
C634 C33 1.395 . S
C639 C47 1.395 . S
C644 C336 1.415 . S
C649 C61 1.395 . S
C654 C210 1.415 . S
C659 C392 1.415 . S
C664 C75 1.397 . S
C669 C182 1.414 . S
C674 C89 1.396 . S
C679 C420 1.415 1_655 S
C684 C103 1.398 . S
C689 C117 1.397 . S
C694 C14 1.413 . S
C699 C252 1.414 1_455 S
C704 C131 1.398 . S
C709 C42 1.414 . S
C714 C145 1.397 . S
C719 C159 1.395 . S
C724 C224 1.415 . S
C729 C98 1.413 . S
C734 C173 1.397 . S
C739 C280 1.415 . S
C744 C187 1.398 . S
C749 C70 1.414 . S
C754 C201 1.397 . S
C759 C215 1.395 . S
C764 C308 1.415 1_455 S
C769 C350 1.414 . S
C774 C229 1.397 . S
C779 C140 1.415 . S
C784 C243 1.395 . S
C789 C378 1.415 . S
C794 C257 1.395 . S
C799 C271 1.395 . S
C804 C112 1.415 1_455 S
C809 C434 1.414 . S
C814 C285 1.397 . S
C819 C168 1.414 1_455 S
C824 C299 1.398 . S
C829 C406 1.414 . S
C834 C313 1.396 . S
C839 C327 1.398 . S
C844 C196 1.414 . S
C849 C341 1.397 . S
C854 C238 1.414 . S
C859 C28 1.415 . S
C864 C355 1.397 . S
C869 C369 1.395 . S
C874 C266 1.415 . S
C879 C383 1.398 . S
C884 C0 1.415 1_655 S
C889 C397 1.397 . S
C894 C322 1.415 . S
C899 C56 1.414 1_655 S
C904 C411 1.396 . S
C909 C294 1.414 . S
C914 C425 1.397 . S
C919 C439 1.398 . S
C924 C84 1.414 . S
C929 C11 1.404 . S
C934 C67 1.404 . S
C939 C25 1.401 . S
C944 C81 1.401 . S
C949 C95 1.401 . S
C954 C39 1.401 . S
C959 C109 1.401 . S
C964 C53 1.401 . S
C969 C179 1.401 . S
C974 C123 1.401 . S
C979 C193 1.401 . S
C984 C137 1.401 . S
C989 C207 1.401 . S
C994 C151 1.401 . S
C999 C221 1.401 . S
C1004 C165 1.401 . S
C1009 C235 1.401 . S
C1014 C291 1.401 . S
C1019 C249 1.404 . S
C1024 C305 1.404 . S
C1029 C263 1.404 . S
C1034 C319 1.404 . S
C1039 C333 1.401 . S
C1044 C277 1.401 . S
C1049 C347 1.404 . S
C1054 C403 1.404 . S
C1059 C417 1.401 . S
C1064 C361 1.401 . S
C1069 C431 1.404 . S
C1074 C375 1.404 . S
C1079 C445 1.404 . S
C1084 C389 1.404 . S
