# Generated by pormake.
# Topology unl, (4)-cn, num edge types: 1
# Building blocks:
#     Node 0, Type 0, BuildingBlock: ICAMEG_clean_sbu_1, # of connection points: 4
#     Node 1, Type 0, BuildingBlock: ICAMEG_clean_sbu_1, # of connection points: 4
#     Node 2, Type 0, BuildingBlock: ICAMEG_clean_sbu_1, # of connection points: 4
#     Node 3, Type 0, BuildingBlock: ICAMEG_clean_sbu_1, # of connection points: 4
#     Node 4, Type 0, BuildingBlock: ICAMEG_clean_sbu_1, # of connection points: 4
#     Node 5, Type 0, BuildingBlock: ICAMEG_clean_sbu_1, # of connection points: 4
#     Node 6, Type 0, BuildingBlock: ICAMEG_clean_sbu_1, # of connection points: 4
#     Node 7, Type 0, BuildingBlock: ICAMEG_clean_sbu_1, # of connection points: 4
#     Node 8, Type 0, BuildingBlock: ICAMEG_clean_sbu_1, # of connection points: 4
#     Node 9, Type 0, BuildingBlock: ICAMEG_clean_sbu_1, # of connection points: 4
#     Node 10, Type 0, BuildingBlock: ICAMEG_clean_sbu_1, # of connection points: 4
#     Node 11, Type 0, BuildingBlock: ICAMEG_clean_sbu_1, # of connection points: 4
#     Node 12, Type 0, BuildingBlock: ICAMEG_clean_sbu_1, # of connection points: 4
#     Node 13, Type 0, BuildingBlock: ICAMEG_clean_sbu_1, # of connection points: 4
#     Node 14, Type 0, BuildingBlock: ICAMEG_clean_sbu_1, # of connection points: 4
#     Node 15, Type 0, BuildingBlock: ICAMEG_clean_sbu_1, # of connection points: 4
#     Node 16, Type 0, BuildingBlock: ICAMEG_clean_sbu_1, # of connection points: 4
#     Node 17, Type 0, BuildingBlock: ICAMEG_clean_sbu_1, # of connection points: 4
#     Node 18, Type 0, BuildingBlock: ICAMEG_clean_sbu_1, # of connection points: 4
#     Node 19, Type 0, BuildingBlock: ICAMEG_clean_sbu_1, # of connection points: 4
#     Node 20, Type 0, BuildingBlock: ICAMEG_clean_sbu_1, # of connection points: 4
#     Node 21, Type 0, BuildingBlock: ICAMEG_clean_sbu_1, # of connection points: 4
#     Node 22, Type 0, BuildingBlock: ICAMEG_clean_sbu_1, # of connection points: 4
#     Node 23, Type 0, BuildingBlock: ICAMEG_clean_sbu_1, # of connection points: 4
#     Node 24, Type 0, BuildingBlock: ICAMEG_clean_sbu_1, # of connection points: 4
#     Node 25, Type 0, BuildingBlock: ICAMEG_clean_sbu_1, # of connection points: 4
#     Node 26, Type 0, BuildingBlock: ICAMEG_clean_sbu_1, # of connection points: 4
#     Node 27, Type 0, BuildingBlock: ICAMEG_clean_sbu_1, # of connection points: 4
#     Node 28, Type 0, BuildingBlock: ICAMEG_clean_sbu_1, # of connection points: 4
#     Node 29, Type 0, BuildingBlock: ICAMEG_clean_sbu_1, # of connection points: 4
#     Node 30, Type 0, BuildingBlock: ICAMEG_clean_sbu_1, # of connection points: 4
#     Node 31, Type 0, BuildingBlock: ICAMEG_clean_sbu_1, # of connection points: 4
#     Node 32, Type 0, BuildingBlock: ICAMEG_clean_sbu_1, # of connection points: 4
#     Node 33, Type 0, BuildingBlock: ICAMEG_clean_sbu_1, # of connection points: 4
#     Node 34, Type 0, BuildingBlock: ICAMEG_clean_sbu_1, # of connection points: 4
#     Node 35, Type 0, BuildingBlock: ICAMEG_clean_sbu_1, # of connection points: 4
#     Edge 36, Type (0, 0), BuildingBlock: UVAHIK_clean_linker_0, # of connection points: 2
#     Edge 37, Type (0, 0), BuildingBlock: UVAHIK_clean_linker_0, # of connection points: 2
#     Edge 38, Type (0, 0), BuildingBlock: UVAHIK_clean_linker_0, # of connection points: 2
#     Edge 39, Type (0, 0), BuildingBlock: UVAHIK_clean_linker_0, # of connection points: 2
#     Edge 40, Type (0, 0), BuildingBlock: UVAHIK_clean_linker_0, # of connection points: 2
#     Edge 41, Type (0, 0), BuildingBlock: UVAHIK_clean_linker_0, # of connection points: 2
#     Edge 42, Type (0, 0), BuildingBlock: UVAHIK_clean_linker_0, # of connection points: 2
#     Edge 43, Type (0, 0), BuildingBlock: UVAHIK_clean_linker_0, # of connection points: 2
#     Edge 44, Type (0, 0), BuildingBlock: UVAHIK_clean_linker_0, # of connection points: 2
#     Edge 45, Type (0, 0), BuildingBlock: UVAHIK_clean_linker_0, # of connection points: 2
#     Edge 46, Type (0, 0), BuildingBlock: UVAHIK_clean_linker_0, # of connection points: 2
#     Edge 47, Type (0, 0), BuildingBlock: UVAHIK_clean_linker_0, # of connection points: 2
#     Edge 48, Type (0, 0), BuildingBlock: UVAHIK_clean_linker_0, # of connection points: 2
#     Edge 49, Type (0, 0), BuildingBlock: UVAHIK_clean_linker_0, # of connection points: 2
#     Edge 50, Type (0, 0), BuildingBlock: UVAHIK_clean_linker_0, # of connection points: 2
#     Edge 51, Type (0, 0), BuildingBlock: UVAHIK_clean_linker_0, # of connection points: 2
#     Edge 52, Type (0, 0), BuildingBlock: UVAHIK_clean_linker_0, # of connection points: 2
#     Edge 53, Type (0, 0), BuildingBlock: UVAHIK_clean_linker_0, # of connection points: 2
#     Edge 54, Type (0, 0), BuildingBlock: UVAHIK_clean_linker_0, # of connection points: 2
#     Edge 55, Type (0, 0), BuildingBlock: UVAHIK_clean_linker_0, # of connection points: 2
#     Edge 56, Type (0, 0), BuildingBlock: UVAHIK_clean_linker_0, # of connection points: 2
#     Edge 57, Type (0, 0), BuildingBlock: UVAHIK_clean_linker_0, # of connection points: 2
#     Edge 58, Type (0, 0), BuildingBlock: UVAHIK_clean_linker_0, # of connection points: 2
#     Edge 59, Type (0, 0), BuildingBlock: UVAHIK_clean_linker_0, # of connection points: 2
#     Edge 60, Type (0, 0), BuildingBlock: UVAHIK_clean_linker_0, # of connection points: 2
#     Edge 61, Type (0, 0), BuildingBlock: UVAHIK_clean_linker_0, # of connection points: 2
#     Edge 62, Type (0, 0), BuildingBlock: UVAHIK_clean_linker_0, # of connection points: 2
#     Edge 63, Type (0, 0), BuildingBlock: UVAHIK_clean_linker_0, # of connection points: 2
#     Edge 64, Type (0, 0), BuildingBlock: UVAHIK_clean_linker_0, # of connection points: 2
#     Edge 65, Type (0, 0), BuildingBlock: UVAHIK_clean_linker_0, # of connection points: 2
#     Edge 66, Type (0, 0), BuildingBlock: UVAHIK_clean_linker_0, # of connection points: 2
#     Edge 67, Type (0, 0), BuildingBlock: UVAHIK_clean_linker_0, # of connection points: 2
#     Edge 68, Type (0, 0), BuildingBlock: UVAHIK_clean_linker_0, # of connection points: 2
#     Edge 69, Type (0, 0), BuildingBlock: UVAHIK_clean_linker_0, # of connection points: 2
#     Edge 70, Type (0, 0), BuildingBlock: UVAHIK_clean_linker_0, # of connection points: 2
#     Edge 71, Type (0, 0), BuildingBlock: UVAHIK_clean_linker_0, # of connection points: 2
#     Edge 72, Type (0, 0), BuildingBlock: UVAHIK_clean_linker_0, # of connection points: 2
#     Edge 73, Type (0, 0), BuildingBlock: UVAHIK_clean_linker_0, # of connection points: 2
#     Edge 74, Type (0, 0), BuildingBlock: UVAHIK_clean_linker_0, # of connection points: 2
#     Edge 75, Type (0, 0), BuildingBlock: UVAHIK_clean_linker_0, # of connection points: 2
#     Edge 76, Type (0, 0), BuildingBlock: UVAHIK_clean_linker_0, # of connection points: 2
#     Edge 77, Type (0, 0), BuildingBlock: UVAHIK_clean_linker_0, # of connection points: 2
#     Edge 78, Type (0, 0), BuildingBlock: UVAHIK_clean_linker_0, # of connection points: 2
#     Edge 79, Type (0, 0), BuildingBlock: UVAHIK_clean_linker_0, # of connection points: 2
#     Edge 80, Type (0, 0), BuildingBlock: UVAHIK_clean_linker_0, # of connection points: 2
#     Edge 81, Type (0, 0), BuildingBlock: UVAHIK_clean_linker_0, # of connection points: 2
#     Edge 82, Type (0, 0), BuildingBlock: UVAHIK_clean_linker_0, # of connection points: 2
#     Edge 83, Type (0, 0), BuildingBlock: UVAHIK_clean_linker_0, # of connection points: 2
#     Edge 84, Type (0, 0), BuildingBlock: UVAHIK_clean_linker_0, # of connection points: 2
#     Edge 85, Type (0, 0), BuildingBlock: UVAHIK_clean_linker_0, # of connection points: 2
#     Edge 86, Type (0, 0), BuildingBlock: UVAHIK_clean_linker_0, # of connection points: 2
#     Edge 87, Type (0, 0), BuildingBlock: UVAHIK_clean_linker_0, # of connection points: 2
#     Edge 88, Type (0, 0), BuildingBlock: UVAHIK_clean_linker_0, # of connection points: 2
#     Edge 89, Type (0, 0), BuildingBlock: UVAHIK_clean_linker_0, # of connection points: 2
#     Edge 90, Type (0, 0), BuildingBlock: UVAHIK_clean_linker_0, # of connection points: 2
#     Edge 91, Type (0, 0), BuildingBlock: UVAHIK_clean_linker_0, # of connection points: 2
#     Edge 92, Type (0, 0), BuildingBlock: UVAHIK_clean_linker_0, # of connection points: 2
#     Edge 93, Type (0, 0), BuildingBlock: UVAHIK_clean_linker_0, # of connection points: 2
#     Edge 94, Type (0, 0), BuildingBlock: UVAHIK_clean_linker_0, # of connection points: 2
#     Edge 95, Type (0, 0), BuildingBlock: UVAHIK_clean_linker_0, # of connection points: 2
#     Edge 96, Type (0, 0), BuildingBlock: UVAHIK_clean_linker_0, # of connection points: 2
#     Edge 97, Type (0, 0), BuildingBlock: UVAHIK_clean_linker_0, # of connection points: 2
#     Edge 98, Type (0, 0), BuildingBlock: UVAHIK_clean_linker_0, # of connection points: 2
#     Edge 99, Type (0, 0), BuildingBlock: UVAHIK_clean_linker_0, # of connection points: 2
#     Edge 100, Type (0, 0), BuildingBlock: UVAHIK_clean_linker_0, # of connection points: 2
#     Edge 101, Type (0, 0), BuildingBlock: UVAHIK_clean_linker_0, # of connection points: 2
#     Edge 102, Type (0, 0), BuildingBlock: UVAHIK_clean_linker_0, # of connection points: 2
#     Edge 103, Type (0, 0), BuildingBlock: UVAHIK_clean_linker_0, # of connection points: 2
#     Edge 104, Type (0, 0), BuildingBlock: UVAHIK_clean_linker_0, # of connection points: 2
#     Edge 105, Type (0, 0), BuildingBlock: UVAHIK_clean_linker_0, # of connection points: 2
#     Edge 106, Type (0, 0), BuildingBlock: UVAHIK_clean_linker_0, # of connection points: 2
#     Edge 107, Type (0, 0), BuildingBlock: UVAHIK_clean_linker_0, # of connection points: 2
# Relax obj value: 0.004
# Max RMSD: 0.041
# Mean RMSD: 0.040
data_MOF--net-unl--node1-ICAMEG_clean_sbu_1--edge1-UVAHIK_clean_linker_0
_symmetry_space_group_name_H-M    P1
_symmetry_Int_Tables_number       1
_symmetry_cell_setting            triclinic
loop_
_symmetry_equiv_pos_as_xyz
'x, y, z'
_cell_length_a     91.953635
_cell_length_b     91.953124
_cell_length_c     52.418782
_cell_angle_alpha  89.999757
_cell_angle_beta   89.992343
_cell_angle_gamma 120.00475
loop_
_atom_site_label
_atom_site_type_symbol
_atom_site_fract_x
_atom_site_fract_y
_atom_site_fract_z
_atom_type_partial_charge
Co0 Co 0.19635 0.12488 0.10619 0.0
Co1 Co 0.23209 0.16232 0.09334 0.0
O2 O 0.22006 0.13787 0.09689 0.0
C3 C 0.19877 0.10768 0.0601 0.0
O4 O 0.20816 0.12253 0.04978 0.0
C5 C 0.25342 0.15593 0.12837 0.0
O6 O 0.23978 0.14649 0.14168 0.0
O7 O 0.22486 0.16494 0.12799 0.0
O8 O 0.19861 0.14296 0.12987 0.0
H9 H 0.23928 0.22009 0.0995 0.0
H10 H 0.21748 0.10903 0.11 0.0
O11 O 0.19324 0.10639 0.08273 0.0
H12 H 0.19648 0.10732 0.19716 0.0
H13 H 0.14284 0.07193 0.12877 0.0
H14 H 0.16902 0.13278 0.11299 0.0
H15 H 0.18825 0.11937 0.16176 0.0
H16 H 0.17291 0.08875 0.11788 0.0
O17 O 0.25262 0.16331 0.1083 0.0
H18 H 0.22397 0.18922 0.10335 0.0
H19 H 0.26673 0.18752 0.07677 0.0
H20 H 0.13895 0.11648 0.12404 0.0
H21 H 0.22591 0.09673 0.14481 0.0
H22 H 0.12567 0.08582 0.13202 0.0
H23 H 0.21542 0.09587 0.18878 0.0
O24 O 0.19034 0.1353 0.07802 0.0
H25 H 0.25576 0.13917 0.02908 0.0
H26 H 0.23176 0.17607 0.04191 0.0
H27 H 0.24 0.17243 0.99864 0.0
H28 H 0.25213 0.15389 0.99203 0.0
H29 H 0.24719 0.14302 0.07198 0.0
H30 H 0.28255 0.21839 0.07284 0.0
H31 H 0.26879 0.23488 0.08414 0.0
O32 O 0.21179 0.16191 0.07832 0.0
C33 C 0.21033 0.15702 0.13812 0.0
C34 C 0.24539 0.21304 0.09441 0.0
C35 C 0.26968 0.21209 0.07949 0.0
N36 N 0.24439 0.18657 0.09004 0.0
C37 C 0.23676 0.19556 0.09647 0.0
C38 C 0.26067 0.19462 0.08179 0.0
C39 C 0.26195 0.22133 0.08583 0.0
C40 C 0.21273 0.10854 0.12904 0.0
N41 N 0.20233 0.11483 0.13382 0.0
C42 C 0.2176 0.10163 0.14869 0.0
C43 C 0.21174 0.10117 0.17336 0.0
C44 C 0.20112 0.10761 0.17808 0.0
C45 C 0.19654 0.11445 0.15797 0.0
C46 C 0.1485 0.08529 0.12542 0.0
C47 C 0.16336 0.11948 0.11664 0.0
C48 C 0.16551 0.09488 0.11922 0.0
N49 N 0.17275 0.11177 0.11509 0.0
C50 C 0.14632 0.1103 0.1228 0.0
C51 C 0.13887 0.09309 0.12724 0.0
C52 C 0.19702 0.15069 0.07156 0.0
C53 C 0.25054 0.14732 0.03173 0.0
C54 C 0.23696 0.16792 0.03917 0.0
C55 C 0.24165 0.16595 0.01464 0.0
C56 C 0.24847 0.15556 0.01094 0.0
N57 N 0.23904 0.1598 0.05947 0.0
C58 C 0.24574 0.14961 0.056 0.0
Co59 Co 0.8779 0.07286 0.10953 0.0
Co60 Co 0.83995 0.06984 0.09468 0.0
O61 O 0.86443 0.08262 0.09805 0.0
C62 C 0.8941 0.08998 0.06114 0.0
O63 O 0.87909 0.08414 0.05125 0.0
C64 C 0.84621 0.09819 0.12806 0.0
O65 O 0.8559 0.09445 0.14162 0.0
O66 O 0.83734 0.06067 0.12982 0.0
O67 O 0.8605 0.05869 0.13523 0.0
H68 H 0.78249 0.01896 0.10243 0.0
H69 H 0.89313 0.10983 0.10748 0.0
O70 O 0.89581 0.08677 0.0842 0.0
H71 H 0.89755 0.09682 0.19744 0.0
H72 H 0.93172 0.0745 0.1336 0.0
H73 H 0.87052 0.03848 0.12275 0.0
H74 H 0.885 0.07422 0.16535 0.0
H75 H 0.91439 0.08664 0.11983 0.0
O76 O 0.8387 0.08951 0.10842 0.0
H77 H 0.81337 0.03491 0.10608 0.0
H78 H 0.81444 0.0785 0.0768 0.0
H79 H 0.88735 0.02584 0.13676 0.0
H80 H 0.90591 0.13285 0.13891 0.0
H81 H 0.91819 0.0439 0.14226 0.0
H82 H 0.90813 0.12639 0.18427 0.0
O83 O 0.86711 0.05456 0.08389 0.0
H84 H 0.8626 0.11532 0.02821 0.0
H85 H 0.82633 0.05462 0.04376 0.0
H86 H 0.82982 0.06556 -0.00012 0.0
H87 H 0.84805 0.09612 0.9919 0.0
H88 H 0.85889 0.10383 0.07176 0.0
H89 H 0.78356 0.06306 0.07301 0.0
H90 H 0.76738 0.03305 0.08579 0.0
O91 O 0.8407 0.04989 0.08097 0.0
C92 C 0.84598 0.05571 0.14225 0.0
C93 C 0.7894 0.03201 0.0967 0.0
C94 C 0.79 0.05677 0.08021 0.0
N95 N 0.8157 0.05755 0.0914 0.0
C96 C 0.80689 0.04108 0.09863 0.0
C97 C 0.80748 0.06545 0.08244 0.0
C98 C 0.78093 0.03993 0.08738 0.0
C99 C 0.89421 0.10695 0.12714 0.0
N100 N 0.88839 0.09072 0.13455 0.0
C101 C 0.90139 0.12002 0.14487 0.0
C102 C 0.9026 0.11638 0.17032 0.0
C103 C 0.89666 0.09979 0.17773 0.0
C104 C 0.88953 0.08704 0.15948 0.0
C105 C 0.91829 0.06651 0.13132 0.0
C106 C 0.88391 0.04643 0.12525 0.0
C107 C 0.90842 0.0733 0.12348 0.0
N108 N 0.89144 0.06329 0.12068 0.0
C109 C 0.89339 0.0392 0.13312 0.0
C110 C 0.91069 0.04934 0.13618 0.0
C111 C 0.85193 0.04594 0.07636 0.0
C112 C 0.85459 0.10199 0.03146 0.0
C113 C 0.83434 0.06793 0.04043 0.0
C114 C 0.83623 0.07406 0.01555 0.0
C115 C 0.84644 0.09121 0.01109 0.0
N116 N 0.84236 0.07859 0.06032 0.0
C117 C 0.85238 0.09542 0.05609 0.0
Co118 Co 0.92802 0.80479 0.10993 0.0
Co119 Co 0.93067 0.76967 0.09491 0.0
O120 O 0.91806 0.78153 0.09848 0.0
C121 C 0.91093 0.80402 0.06163 0.0
O122 O 0.91666 0.79475 0.05172 0.0
C123 C 0.90246 0.74779 0.12869 0.0
O124 O 0.90635 0.76128 0.14218 0.0
O125 O 0.94007 0.77626 0.12993 0.0
O126 O 0.94212 0.80142 0.13553 0.0
H127 H 0.98133 0.76266 0.1018 0.0
H128 H 0.89101 0.78328 0.10804 0.0
O129 O 0.91417 0.80892 0.08469 0.0
H130 H 0.90428 0.8007 0.19796 0.0
H131 H 0.9269 0.85722 0.13414 0.0
H132 H 0.9625 0.8316 0.12304 0.0
H133 H 0.9268 0.81059 0.16577 0.0
H134 H 0.91453 0.82773 0.12035 0.0
O135 O 0.91099 0.74885 0.10891 0.0
H136 H 0.96559 0.77778 0.10578 0.0
H137 H 0.92165 0.73539 0.07706 0.0
H138 H 0.97538 0.86109 0.13708 0.0
H139 H 0.86806 0.7732 0.13957 0.0
H140 H 0.95753 0.87409 0.14271 0.0
H141 H 0.87465 0.78188 0.18491 0.0
O142 O 0.94625 0.81217 0.08422 0.0
H143 H 0.88478 0.74702 0.02911 0.0
H144 H 0.94551 0.77102 0.04374 0.0
H145 H 0.93428 0.76357 1e-05 0.0
H146 H 0.9037 0.75145 0.99249 0.0
H147 H 0.89656 0.7548 0.0725 0.0
H148 H 0.93687 0.71975 0.07294 0.0
H149 H 0.96695 0.73342 0.08527 0.0
O150 O 0.95062 0.79026 0.08093 0.0
C151 C 0.94508 0.78984 0.14242 0.0
C152 C 0.96824 0.75659 0.09626 0.0
C153 C 0.94328 0.7325 0.0801 0.0
N154 N 0.94278 0.75754 0.0914 0.0
C155 C 0.95929 0.76511 0.09839 0.0
C156 C 0.93473 0.74141 0.08251 0.0
C157 C 0.96016 0.74018 0.08701 0.0
C158 C 0.89395 0.78723 0.12769 0.0
N159 N 0.91021 0.79755 0.13503 0.0
C160 C 0.88091 0.78144 0.14548 0.0
C161 C 0.88462 0.78629 0.17092 0.0
C162 C 0.90124 0.79684 0.17826 0.0
C163 C 0.91396 0.80236 0.15996 0.0
C164 C 0.93481 0.85169 0.13181 0.0
C165 C 0.95464 0.83714 0.1256 0.0
C166 C 0.92788 0.83501 0.12395 0.0
N167 N 0.93777 0.82792 0.12109 0.0
C168 C 0.96201 0.85385 0.13348 0.0
C169 C 0.95199 0.86114 0.13662 0.0
C170 C 0.9547 0.80548 0.07643 0.0
C171 C 0.89812 0.75224 0.03216 0.0
C172 C 0.9322 0.76581 0.04061 0.0
C173 C 0.92591 0.76157 0.01582 0.0
C174 C 0.90875 0.75476 0.01161 0.0
N175 N 0.92169 0.76329 0.06067 0.0
C176 C 0.90485 0.7566 0.0567 0.0
Co177 Co 0.12502 0.19579 0.39187 0.0
Co178 Co 0.16219 0.23177 0.40454 0.0
O179 O 0.13774 0.21954 0.40102 0.0
C180 C 0.10741 0.19811 0.43758 0.0
O181 O 0.12217 0.20762 0.4481 0.0
C182 C 0.15561 0.25311 0.36973 0.0
O183 O 0.1463 0.23954 0.35619 0.0
O184 O 0.16485 0.22468 0.36982 0.0
O185 O 0.14328 0.19818 0.36847 0.0
H186 H 0.22019 0.23958 0.39798 0.0
H187 H 0.10882 0.21657 0.38736 0.0
O188 O 0.10633 0.19254 0.41502 0.0
H189 H 0.10765 0.19528 0.3006 0.0
H190 H 0.07253 0.14184 0.36932 0.0
H191 H 0.13338 0.16874 0.38563 0.0
H192 H 0.11978 0.18744 0.33636 0.0
H193 H 0.089 0.17196 0.37998 0.0
O194 O 0.16296 0.25224 0.38979 0.0
H195 H 0.18932 0.22401 0.39429 0.0
H196 H 0.18717 0.26646 0.42123 0.0
H197 H 0.11742 0.13862 0.37481 0.0
H198 H 0.09643 0.22461 0.35219 0.0
H199 H 0.08676 0.12497 0.36657 0.0
H200 H 0.09584 0.21397 0.30842 0.0
O201 O 0.13547 0.19007 0.42035 0.0
H202 H 0.13871 0.25491 0.46915 0.0
H203 H 0.1761 0.23152 0.45588 0.0
H204 H 0.1724 0.23959 0.49923 0.0
H205 H 0.15362 0.25141 0.50607 0.0
H206 H 0.14262 0.2465 0.42616 0.0
H207 H 0.21804 0.28254 0.42502 0.0
H208 H 0.23476 0.26907 0.41344 0.0
O209 O 0.16204 0.21156 0.41944 0.0
C210 C 0.15717 0.21006 0.35996 0.0
C211 C 0.21305 0.24557 0.40318 0.0
C212 C 0.21184 0.26969 0.41832 0.0
N213 N 0.18645 0.24426 0.40778 0.0
C214 C 0.19555 0.2368 0.40121 0.0
C215 C 0.19437 0.26053 0.4161 0.0
C216 C 0.22121 0.26212 0.41183 0.0
C217 C 0.10845 0.21176 0.36841 0.0
N218 N 0.11493 0.20149 0.36395 0.0
C219 C 0.10149 0.21641 0.34856 0.0
C220 C 0.10118 0.21046 0.324 0.0
C221 C 0.10782 0.19998 0.31959 0.0
C222 C 0.11471 0.19562 0.33991 0.0
C223 C 0.08589 0.14765 0.37279 0.0
C224 C 0.12007 0.16292 0.38187 0.0
C225 C 0.09528 0.1647 0.37887 0.0
N226 N 0.11217 0.17214 0.38315 0.0
C227 C 0.11109 0.14585 0.37584 0.0
C228 C 0.09389 0.13819 0.37125 0.0
C229 C 0.15091 0.19684 0.42656 0.0
C230 C 0.14697 0.24982 0.4664 0.0
C231 C 0.16784 0.23658 0.45871 0.0
C232 C 0.16584 0.24118 0.4833 0.0
C233 C 0.15531 0.24782 0.48712 0.0
N234 N 0.15962 0.23858 0.43849 0.0
C235 C 0.14929 0.24511 0.44209 0.0
Co236 Co 0.804 0.9276 0.39034 0.0
Co237 Co 0.76873 0.93009 0.40433 0.0
O238 O 0.78051 0.91742 0.40071 0.0
C239 C 0.8022 0.909 0.43748 0.0
O240 O 0.79291 0.9146 0.44772 0.0
C241 C 0.74705 0.90223 0.36982 0.0
O242 O 0.76061 0.90624 0.3564 0.0
O243 O 0.77578 0.93988 0.36959 0.0
O244 O 0.80136 0.94269 0.36573 0.0
H245 H 0.76212 0.98102 0.39812 0.0
H246 H 0.78237 0.89059 0.38926 0.0
O247 O 0.80744 0.91284 0.41464 0.0
H248 H 0.80176 0.90691 0.30067 0.0
H249 H 0.85676 0.9269 0.36697 0.0
H250 H 0.83127 0.96244 0.38032 0.0
H251 H 0.81097 0.92831 0.33457 0.0
H252 H 0.82697 0.91425 0.37928 0.0
O253 O 0.748 0.91062 0.38971 0.0
H254 H 0.77714 0.96519 0.39417 0.0
H255 H 0.7343 0.92106 0.42142 0.0
H256 H 0.86107 0.97559 0.36781 0.0
H257 H 0.77297 0.86875 0.35598 0.0
H258 H 0.874 0.95778 0.36106 0.0
H259 H 0.78264 0.87688 0.3113 0.0
O260 O 0.81083 0.94495 0.4174 0.0
H261 H 0.74509 0.8835 0.469 0.0
H262 H 0.76956 0.94442 0.45574 0.0
H263 H 0.76152 0.93273 0.49914 0.0
H264 H 0.74916 0.90205 0.50597 0.0
H265 H 0.75347 0.89574 0.42596 0.0
H266 H 0.71875 0.93638 0.42549 0.0
H267 H 0.7327 0.9666 0.41388 0.0
O268 O 0.78922 0.94986 0.41902 0.0
C269 C 0.78985 0.94558 0.35823 0.0
C270 C 0.75592 0.96787 0.40334 0.0
C271 C 0.73158 0.94281 0.41867 0.0
N272 N 0.75667 0.94228 0.40782 0.0
C273 C 0.76439 0.95886 0.40123 0.0
C274 C 0.74043 0.9342 0.41629 0.0
C275 C 0.73941 0.95977 0.41216 0.0
C276 C 0.78676 0.8942 0.3699 0.0
N277 N 0.79726 0.91069 0.36389 0.0
C278 C 0.78134 0.88179 0.35112 0.0
C279 C 0.78675 0.88636 0.32605 0.0
C280 C 0.79747 0.90321 0.32007 0.0
C281 C 0.80261 0.91528 0.33934 0.0
C282 C 0.85126 0.93479 0.36981 0.0
C283 C 0.83679 0.95459 0.37727 0.0
C284 C 0.83441 0.9277 0.37682 0.0
N285 N 0.82736 0.93759 0.38031 0.0
C286 C 0.85367 0.96212 0.37025 0.0
C287 C 0.86092 0.95212 0.36649 0.0
C288 C 0.8042 0.95356 0.42465 0.0
C289 C 0.75042 0.89688 0.46625 0.0
C290 C 0.76425 0.93107 0.45857 0.0
C291 C 0.75968 0.92451 0.48318 0.0
C292 C 0.75273 0.9073 0.487 0.0
N293 N 0.76193 0.92076 0.43832 0.0
C294 C 0.75511 0.90387 0.44191 0.0
Co295 Co 0.07286 0.87667 0.39012 0.0
Co296 Co 0.07055 0.83902 0.40459 0.0
O297 O 0.08308 0.86346 0.40072 0.0
C298 C 0.09089 0.89321 0.43763 0.0
O299 O 0.08512 0.87822 0.4476 0.0
C300 C 0.09826 0.8452 0.36975 0.0
O301 O 0.09415 0.85468 0.35638 0.0
O302 O 0.06057 0.83606 0.36996 0.0
O303 O 0.05804 0.85896 0.3653 0.0
H304 H 0.01982 0.78129 0.39919 0.0
H305 H 0.1099 0.89227 0.38975 0.0
O306 O 0.08735 0.89483 0.41471 0.0
H307 H 0.09423 0.8954 0.3008 0.0
H308 H 0.07346 0.93005 0.36656 0.0
H309 H 0.03806 0.86895 0.37934 0.0
H310 H 0.07256 0.88303 0.33432 0.0
H311 H 0.08613 0.91301 0.37926 0.0
O312 O 0.09001 0.83783 0.38978 0.0
H313 H 0.03547 0.81214 0.39487 0.0
H314 H 0.07986 0.81386 0.42181 0.0
H315 H 0.02488 0.88549 0.36642 0.0
H316 H 0.132 0.90488 0.35686 0.0
H317 H 0.04262 0.91628 0.35995 0.0
H318 H 0.12419 0.90645 0.312 0.0
O319 O 0.05528 0.86603 0.41685 0.0
H320 H 0.11747 0.8626 0.46868 0.0
H321 H 0.05653 0.82574 0.45622 0.0
H322 H 0.06846 0.82973 0.4995 0.0
H323 H 0.09915 0.84825 0.50593 0.0
H324 H 0.105 0.85839 0.42576 0.0
H325 H 0.06473 0.78301 0.42624 0.0
H326 H 0.03447 0.76653 0.41499 0.0
O327 O 0.0508 0.83968 0.41942 0.0
C328 C 0.05505 0.84445 0.3582 0.0
C329 C 0.03298 0.78834 0.40426 0.0
C330 C 0.0582 0.7893 0.41941 0.0
N331 N 0.05851 0.81479 0.40835 0.0
C332 C 0.0419 0.80581 0.40194 0.0
C333 C 0.06671 0.80676 0.41683 0.0
C334 C 0.04122 0.78006 0.4131 0.0
C335 C 0.10643 0.89307 0.37032 0.0
N336 N 0.08998 0.887 0.36399 0.0
C337 C 0.11899 0.90015 0.35176 0.0
C338 C 0.1146 0.90101 0.32659 0.0
C339 C 0.09779 0.8948 0.32028 0.0
C340 C 0.08557 0.88777 0.33933 0.0
C341 C 0.0656 0.91665 0.36927 0.0
C342 C 0.04587 0.88232 0.3764 0.0
C343 C 0.07269 0.90693 0.3765 0.0
N344 N 0.06285 0.88998 0.37983 0.0
C345 C 0.03833 0.89163 0.36916 0.0
C346 C 0.0483 0.90891 0.36556 0.0
C347 C 0.04687 0.85086 0.42454 0.0
C348 C 0.10409 0.85446 0.46611 0.0
C349 C 0.06989 0.83387 0.45887 0.0
C350 C 0.07658 0.83604 0.48342 0.0
C351 C 0.0938 0.84643 0.48701 0.0
N352 N 0.08007 0.84178 0.43847 0.0
C353 C 0.09697 0.85196 0.44184 0.0
Co354 Co 0.80432 0.87685 0.88964 0.0
Co355 Co 0.76952 0.83886 0.90492 0.0
O356 O 0.78112 0.86332 0.90123 0.0
C357 C 0.80348 0.8931 0.93798 0.0
O358 O 0.79438 0.87811 0.94798 0.0
C359 C 0.74749 0.84486 0.87102 0.0
O360 O 0.76099 0.85453 0.85757 0.0
O361 O 0.77621 0.83606 0.86995 0.0
O362 O 0.80112 0.85943 0.86405 0.0
H363 H 0.76328 0.78149 0.89852 0.0
H364 H 0.78243 0.89191 0.8917 0.0
O365 O 0.80829 0.89477 0.91487 0.0
H366 H 0.79965 0.89616 0.80166 0.0
H367 H 0.85628 0.93075 0.86514 0.0
H368 H 0.83141 0.86961 0.87638 0.0
H369 H 0.8099 0.88382 0.83377 0.0
H370 H 0.82685 0.91333 0.87908 0.0
O371 O 0.74858 0.83742 0.89082 0.0
H372 H 0.77807 0.81233 0.89433 0.0
H373 H 0.73534 0.81334 0.92276 0.0
H374 H 0.86084 0.88653 0.86219 0.0
H375 H 0.77198 0.90448 0.86025 0.0
H376 H 0.87346 0.91734 0.85649 0.0
H377 H 0.78055 0.90661 0.81485 0.0
O378 O 0.81197 0.8662 0.91529 0.0
H379 H 0.74636 0.86177 0.97045 0.0
H380 H 0.77103 0.82559 0.95618 0.0
H381 H 0.76345 0.82932 -0.00015 0.0
H382 H 0.75099 0.8475 0.00719 0.0
H383 H 0.75429 0.85782 0.92713 0.0
H384 H 0.72002 0.78249 0.92707 0.0
H385 H 0.73403 0.76636 0.915 0.0
O386 O 0.79024 0.83982 0.91899 0.0
C387 C 0.7897 0.84478 0.85733 0.0
C388 C 0.75706 0.78838 0.90395 0.0
C389 C 0.73277 0.78894 0.91993 0.0
N390 N 0.75764 0.81463 0.90856 0.0
C391 C 0.7654 0.80585 0.9017 0.0
C392 C 0.7415 0.8064 0.91742 0.0
C393 C 0.74065 0.7799 0.91316 0.0
C394 C 0.78634 0.89295 0.87202 0.0
N395 N 0.79681 0.8872 0.8646 0.0
C396 C 0.78033 0.90001 0.85428 0.0
C397 C 0.78512 0.90118 0.8288 0.0
C398 C 0.79583 0.89531 0.82139 0.0
C399 C 0.80156 0.8883 0.83965 0.0
C400 C 0.85091 0.91733 0.8675 0.0
C401 C 0.83679 0.88299 0.87379 0.0
C402 C 0.83427 0.90741 0.87544 0.0
N403 N 0.82739 0.89045 0.87835 0.0
C404 C 0.85347 0.89252 0.86582 0.0
C405 C 0.86054 0.9098 0.86265 0.0
C406 C 0.80544 0.85111 0.92329 0.0
C407 C 0.75173 0.85378 0.96748 0.0
C408 C 0.76568 0.83357 0.95923 0.0
C409 C 0.76136 0.8356 0.98399 0.0
C410 C 0.75436 0.84579 0.9881 0.0
N411 N 0.76305 0.84144 0.93911 0.0
C412 C 0.75617 0.85143 0.94298 0.0
Co413 Co 0.12414 0.9276 0.89017 0.0
Co414 Co 0.1619 0.93017 0.90469 0.0
O415 O 0.13745 0.91752 0.901 0.0
C416 C 0.10755 0.90967 0.93782 0.0
O417 O 0.1225 0.91539 0.94791 0.0
C418 C 0.15577 0.90226 0.87035 0.0
O419 O 0.14621 0.90622 0.85689 0.0
O420 O 0.16473 0.93987 0.86987 0.0
O421 O 0.14179 0.94232 0.8652 0.0
H422 H 0.21949 0.98103 0.89844 0.0
H423 H 0.1087 0.89058 0.8903 0.0
O424 O 0.10602 0.91319 0.91485 0.0
H425 H 0.10536 0.90568 0.80109 0.0
H426 H 0.07062 0.92663 0.8663 0.0
H427 H 0.13171 0.9623 0.87889 0.0
H428 H 0.11769 0.92755 0.83432 0.0
H429 H 0.08778 0.91413 0.87929 0.0
O430 O 0.16316 0.91066 0.89027 0.0
H431 H 0.18863 0.96521 0.89434 0.0
H432 H 0.18723 0.92115 0.92217 0.0
H433 H 0.11505 0.9753 0.86568 0.0
H434 H 0.09614 0.86829 0.8577 0.0
H435 H 0.08428 0.95741 0.8593 0.0
H436 H 0.09446 0.87581 0.81272 0.0
O437 O 0.13476 0.94533 0.91669 0.0
H438 H 0.13872 0.88374 0.96963 0.0
H439 H 0.17529 0.94462 0.95608 0.0
H440 H 0.1715 0.93304 -0.00043 0.0
H441 H 0.15312 0.90239 0.00656 0.0
H442 H 0.14272 0.89587 0.92649 0.0
H443 H 0.21809 0.93645 0.92639 0.0
H444 H 0.23442 0.96663 0.91457 0.0
O445 O 0.16117 0.94997 0.91913 0.0
C446 C 0.15628 0.94529 0.85803 0.0
C447 C 0.21251 0.9679 0.90376 0.0
C448 C 0.21173 0.94288 0.91941 0.0
N449 N 0.18614 0.94233 0.90828 0.0
C450 C 0.19503 0.9589 0.90157 0.0
C451 C 0.19426 0.93427 0.91695 0.0
C452 C 0.22088 0.95981 0.91278 0.0
C453 C 0.10786 0.89392 0.87081 0.0
N454 N 0.11385 0.91033 0.86425 0.0
C455 C 0.1008 0.88126 0.85242 0.0
C456 C 0.09989 0.88549 0.82717 0.0
C457 C 0.10601 0.90225 0.82063 0.0
C458 C 0.11302 0.91458 0.83952 0.0
C459 C 0.08403 0.93455 0.86896 0.0
C460 C 0.11834 0.95442 0.876 0.0
C461 C 0.0938 0.92755 0.87637 0.0
N462 N 0.11075 0.93747 0.87964 0.0
C463 C 0.10897 0.96186 0.86859 0.0
C464 C 0.0917 0.95182 0.86504 0.0
C465 C 0.14996 0.95386 0.92421 0.0
C466 C 0.1468 0.89711 0.96682 0.0
C467 C 0.16722 0.93128 0.95897 0.0
C468 C 0.16516 0.92478 0.98364 0.0
C469 C 0.15486 0.90758 0.98754 0.0
N470 N 0.15928 0.92092 0.93875 0.0
C471 C 0.14918 0.90404 0.94242 0.0
Co472 Co 0.07343 0.19716 0.88908 0.0
Co473 Co 0.07021 0.23196 0.90409 0.0
O474 O 0.08308 0.22037 0.90056 0.0
C475 C 0.09057 0.19819 0.93744 0.0
O476 O 0.08461 0.20726 0.94733 0.0
C477 C 0.09836 0.25402 0.87036 0.0
O478 O 0.09457 0.24054 0.85689 0.0
O479 O 0.06083 0.22526 0.86907 0.0
O480 O 0.05921 0.2003 0.86342 0.0
H481 H 0.01908 0.23817 0.89722 0.0
H482 H 0.11039 0.21909 0.89111 0.0
O483 O 0.08741 0.19327 0.91437 0.0
H484 H 0.09745 0.20162 0.80116 0.0
H485 H 0.07542 0.14517 0.86497 0.0
H486 H 0.03912 0.17003 0.87586 0.0
H487 H 0.07484 0.19145 0.83326 0.0
H488 H 0.08741 0.17462 0.87875 0.0
O489 O 0.08976 0.25291 0.89007 0.0
H490 H 0.03515 0.22338 0.89325 0.0
H491 H 0.07881 0.26614 0.92184 0.0
H492 H 0.02663 0.14057 0.86183 0.0
H493 H 0.13341 0.22945 0.85968 0.0
H494 H 0.04483 0.12796 0.85631 0.0
H495 H 0.12699 0.22075 0.81432 0.0
O496 O 0.05513 0.18954 0.91473 0.0
H497 H 0.11609 0.25513 0.96992 0.0
H498 H 0.05527 0.23044 0.95524 0.0
H499 H 0.06646 0.23802 0.99897 0.0
H500 H 0.09708 0.25048 0.00652 0.0
H501 H 0.10434 0.24721 0.92653 0.0
H502 H 0.06326 0.28145 0.92593 0.0
H503 H 0.03315 0.26742 0.91366 0.0
O504 O 0.0504 0.21123 0.9181 0.0
C505 C 0.05603 0.21172 0.85655 0.0
C506 C 0.03217 0.24439 0.90273 0.0
C507 C 0.05697 0.26869 0.91881 0.0
N508 N 0.05784 0.24383 0.90757 0.0
C509 C 0.04132 0.23606 0.90061 0.0
C510 C 0.06572 0.25997 0.91642 0.0
C511 C 0.04008 0.26081 0.91193 0.0
C512 C 0.10752 0.21512 0.87145 0.0
N513 N 0.0913 0.20463 0.86405 0.0
C514 C 0.1206 0.22108 0.85372 0.0
C515 C 0.11698 0.21622 0.82827 0.0
C516 C 0.10041 0.2055 0.82087 0.0
C517 C 0.08765 0.19981 0.83912 0.0
C518 C 0.06736 0.15053 0.86726 0.0
C519 C 0.04713 0.16465 0.87335 0.0
C520 C 0.07407 0.16719 0.8751 0.0
N521 N 0.06398 0.17406 0.87791 0.0
C522 C 0.03998 0.14795 0.86547 0.0
C523 C 0.0502 0.14088 0.86239 0.0
C524 C 0.04651 0.19605 0.92255 0.0
C525 C 0.10273 0.24976 0.96686 0.0
C526 C 0.0686 0.2358 0.95838 0.0
C527 C 0.07487 0.24011 0.98317 0.0
C528 C 0.09205 0.24712 0.98739 0.0
N529 N 0.07915 0.23844 0.93834 0.0
C530 C 0.09602 0.24532 0.94232 0.0
Co531 Co 0.87685 0.80452 0.60902 0.0
Co532 Co 0.83931 0.76898 0.59499 0.0
O533 O 0.86377 0.781 0.59867 0.0
C534 C 0.8937 0.80289 0.56185 0.0
O535 O 0.87881 0.79347 0.5517 0.0
C536 C 0.84572 0.74751 0.62966 0.0
O537 O 0.85522 0.76111 0.64301 0.0
O538 O 0.83644 0.77596 0.62968 0.0
O539 O 0.85905 0.80165 0.63367 0.0
H540 H 0.78148 0.76165 0.60107 0.0
H541 H 0.89264 0.78326 0.61007 0.0
O542 O 0.89511 0.80817 0.58466 0.0
H543 H 0.89554 0.80259 0.69865 0.0
H544 H 0.92999 0.85765 0.63223 0.0
H545 H 0.86888 0.8315 0.61909 0.0
H546 H 0.88309 0.81153 0.66477 0.0
H547 H 0.91312 0.82783 0.61997 0.0
O548 O 0.83828 0.74838 0.60971 0.0
H549 H 0.81234 0.77699 0.60505 0.0
H550 H 0.8142 0.73444 0.57789 0.0
H551 H 0.88524 0.86132 0.63156 0.0
H552 H 0.90533 0.77412 0.64332 0.0
H553 H 0.91603 0.87459 0.63821 0.0
H554 H 0.9068 0.78377 0.68799 0.0
O555 O 0.86617 0.81117 0.58199 0.0
H556 H 0.86279 0.74573 0.53054 0.0
H557 H 0.82578 0.76959 0.54351 0.0
H558 H 0.82962 0.76163 0.50016 0.0
H559 H 0.84821 0.74957 0.49348 0.0
H560 H 0.85873 0.75403 0.57353 0.0
H561 H 0.78334 0.71858 0.57379 0.0
H562 H 0.76678 0.73222 0.58533 0.0
O563 O 0.83978 0.78932 0.58023 0.0
C564 C 0.84469 0.79002 0.64111 0.0
C565 C 0.78856 0.75559 0.59587 0.0
C566 C 0.78961 0.73141 0.5806 0.0
N567 N 0.81507 0.75668 0.59145 0.0
C568 C 0.80604 0.76423 0.59801 0.0
C569 C 0.80707 0.74044 0.58299 0.0
C570 C 0.78032 0.73907 0.58707 0.0
C571 C 0.89338 0.78763 0.62942 0.0
N572 N 0.8872 0.79797 0.63545 0.0
C573 C 0.90052 0.78236 0.64818 0.0
C574 C 0.90131 0.78776 0.67325 0.0
C575 C 0.89499 0.79831 0.67925 0.0
C576 C 0.88791 0.8033 0.65999 0.0
C577 C 0.91658 0.85201 0.62945 0.0
C578 C 0.88226 0.83716 0.62211 0.0
C579 C 0.90697 0.83513 0.62246 0.0
N580 N 0.89001 0.8279 0.61902 0.0
C581 C 0.89146 0.85406 0.62909 0.0
C582 C 0.90874 0.8615 0.6328 0.0
C583 C 0.85092 0.80437 0.57468 0.0
C584 C 0.85462 0.75092 0.53322 0.0
C585 C 0.83395 0.76442 0.54074 0.0
C586 C 0.83604 0.75989 0.51616 0.0
C587 C 0.84646 0.75311 0.51243 0.0
N588 N 0.84199 0.76223 0.56105 0.0
C589 C 0.85221 0.75557 0.55754 0.0
Co590 Co 0.19703 0.07263 0.6092 0.0
Co591 Co 0.23195 0.06962 0.59444 0.0
O592 O 0.22034 0.08247 0.59809 0.0
C593 C 0.19841 0.0906 0.5615 0.0
O594 O 0.20751 0.08479 0.55123 0.0
C595 C 0.25392 0.09758 0.62849 0.0
O596 O 0.24042 0.09372 0.64196 0.0
O597 O 0.22516 0.06011 0.62937 0.0
O598 O 0.19993 0.05798 0.63435 0.0
H599 H 0.23818 0.01849 0.601 0.0
H600 H 0.21897 0.10962 0.60858 0.0
O601 O 0.19337 0.08704 0.58446 0.0
H602 H 0.20073 0.09517 0.698 0.0
H603 H 0.14484 0.07423 0.63333 0.0
H604 H 0.16977 0.03811 0.62103 0.0
H605 H 0.19084 0.07311 0.66505 0.0
H606 H 0.17441 0.08644 0.62009 0.0
O607 O 0.25285 0.0891 0.60865 0.0
H608 H 0.22338 0.03453 0.60505 0.0
H609 H 0.26617 0.0783 0.57679 0.0
H610 H 0.14018 0.02539 0.63449 0.0
H611 H 0.22906 0.13211 0.64089 0.0
H612 H 0.12753 0.0435 0.64072 0.0
H613 H 0.21997 0.12492 0.68598 0.0
O614 O 0.18966 0.05475 0.58288 0.0
H615 H 0.25533 0.11577 0.52905 0.0
H616 H 0.23058 0.05489 0.54318 0.0
H617 H 0.23831 0.06627 0.49956 0.0
H618 H 0.25081 0.09692 0.49229 0.0
H619 H 0.24726 0.10384 0.57232 0.0
H620 H 0.2815 0.06277 0.57262 0.0
H621 H 0.26747 0.03262 0.58468 0.0
O622 O 0.21127 0.04987 0.58025 0.0
C623 C 0.21141 0.05495 0.64147 0.0
C624 C 0.24441 0.0316 0.59558 0.0
C625 C 0.26873 0.05646 0.57968 0.0
N626 N 0.24384 0.05727 0.59089 0.0
C627 C 0.23607 0.04073 0.59774 0.0
C628 C 0.26 0.06519 0.58212 0.0
C629 C 0.26085 0.03954 0.58645 0.0
C630 C 0.21483 0.10642 0.62812 0.0
N631 N 0.20428 0.09008 0.6349 0.0
C632 C 0.22064 0.1192 0.64635 0.0
C633 C 0.21556 0.11515 0.67165 0.0
C634 C 0.20477 0.09846 0.67841 0.0
C635 C 0.19924 0.08601 0.65968 0.0
C636 C 0.15022 0.06621 0.63072 0.0
C637 C 0.16438 0.04608 0.62385 0.0
C638 C 0.16694 0.07305 0.62318 0.0
N639 N 0.17384 0.063 0.61997 0.0
C640 C 0.14761 0.0388 0.63141 0.0
C641 C 0.14051 0.04897 0.63488 0.0
C642 C 0.19618 0.0461 0.57532 0.0
C643 C 0.24994 0.1024 0.53198 0.0
C644 C 0.23595 0.06824 0.54016 0.0
C645 C 0.24035 0.07461 0.51543 0.0
C646 C 0.24738 0.09181 0.51136 0.0
N647 N 0.23852 0.07871 0.56029 0.0
C648 C 0.24542 0.09559 0.55646 0.0
Co649 Co 0.92818 0.12364 0.60908 0.0
Co650 Co 0.93018 0.16113 0.59458 0.0
O651 O 0.91775 0.1367 0.59864 0.0
C652 C 0.90957 0.10661 0.56213 0.0
O653 O 0.91515 0.12148 0.55181 0.0
C654 C 0.90256 0.15494 0.62963 0.0
O655 O 0.90678 0.14554 0.643 0.0
O656 O 0.94027 0.16422 0.62914 0.0
O657 O 0.94323 0.14156 0.63349 0.0
H658 H 0.98078 0.21896 0.5995 0.0
H659 H 0.89113 0.10793 0.61042 0.0
O660 O 0.91344 0.10527 0.58497 0.0
H661 H 0.90785 0.10552 0.699 0.0
H662 H 0.92808 0.07056 0.63297 0.0
H663 H 0.96314 0.13157 0.61898 0.0
H664 H 0.92913 0.11771 0.66491 0.0
H665 H 0.91516 0.08742 0.62049 0.0
O666 O 0.91072 0.16227 0.60951 0.0
H667 H 0.96524 0.18813 0.60401 0.0
H668 H 0.92068 0.18615 0.57734 0.0
H669 H 0.97656 0.11522 0.63166 0.0
H670 H 0.86942 0.0955 0.64388 0.0
H671 H 0.95899 0.08448 0.63874 0.0
H672 H 0.87775 0.0943 0.68856 0.0
O673 O 0.94544 0.13416 0.58189 0.0
H674 H 0.88304 0.13724 0.53085 0.0
H675 H 0.944 0.17431 0.54283 0.0
H676 H 0.93192 0.17017 0.49964 0.0
H677 H 0.90122 0.15155 0.49345 0.0
H678 H 0.89567 0.14159 0.57368 0.0
H679 H 0.9357 0.21698 0.57272 0.0
H680 H 0.96599 0.23359 0.58375 0.0
O681 O 0.94993 0.16052 0.57963 0.0
C682 C 0.94607 0.156 0.64068 0.0
C683 C 0.9676 0.21186 0.59452 0.0
C684 C 0.94229 0.21075 0.57953 0.0
N685 N 0.94213 0.18534 0.59067 0.0
C686 C 0.95876 0.19439 0.59695 0.0
C687 C 0.93385 0.1933 0.58222 0.0
C688 C 0.95929 0.22006 0.58572 0.0
C689 C 0.89483 0.10729 0.62977 0.0
N690 N 0.91136 0.11346 0.63568 0.0
C691 C 0.88249 0.10031 0.64866 0.0
C692 C 0.88717 0.09966 0.67373 0.0
C693 C 0.90406 0.10597 0.6796 0.0
C694 C 0.91606 0.11289 0.66023 0.0
C695 C 0.93587 0.08395 0.62999 0.0
C696 C 0.9554 0.11822 0.62218 0.0
C697 C 0.92863 0.09355 0.62288 0.0
N698 N 0.93838 0.11048 0.61921 0.0
C699 C 0.96308 0.10902 0.62928 0.0
C700 C 0.95321 0.09177 0.63323 0.0
C701 C 0.95382 0.14934 0.57426 0.0
C702 C 0.89642 0.14543 0.53332 0.0
C703 C 0.93064 0.16613 0.54028 0.0
C704 C 0.92386 0.16388 0.51579 0.0
C705 C 0.90664 0.15343 0.51233 0.0
N706 N 0.92053 0.15824 0.56077 0.0
C707 C 0.90363 0.148 0.55754 0.0
Co708 Co 0.86341 0.45714 0.44093 0.0
Co709 Co 0.89856 0.49506 0.42684 0.0
O710 O 0.88682 0.47059 0.43027 0.0
C711 C 0.86502 0.44098 0.39302 0.0
O712 O 0.87427 0.45602 0.38325 0.0
C713 C 0.92019 0.48882 0.46133 0.0
O714 O 0.90658 0.47917 0.47456 0.0
O715 O 0.8915 0.49769 0.46162 0.0
O716 O 0.86621 0.4746 0.46619 0.0
H717 H 0.90507 0.55254 0.4335 0.0
H718 H 0.88511 0.44183 0.44049 0.0
O719 O 0.85984 0.43922 0.41594 0.0
H720 H 0.8664 0.4378 0.52968 0.0
H721 H 0.8109 0.40334 0.46395 0.0
H722 H 0.83617 0.4645 0.4524 0.0
H723 H 0.85689 0.4503 0.49668 0.0
H724 H 0.84059 0.42068 0.45124 0.0
O725 O 0.9193 0.49632 0.44146 0.0
H726 H 0.89009 0.52166 0.43728 0.0
H727 H 0.93298 0.52055 0.40982 0.0
H728 H 0.80647 0.44765 0.46534 0.0
H729 H 0.89482 0.42911 0.47285 0.0
H730 H 0.79365 0.41684 0.4712 0.0
H731 H 0.88549 0.42709 0.51783 0.0
O732 O 0.85631 0.46788 0.41462 0.0
H733 H 0.92231 0.47236 0.36193 0.0
H734 H 0.89769 0.50865 0.37554 0.0
H735 H 0.90575 0.50512 0.33208 0.0
H736 H 0.91819 0.48689 0.32508 0.0
H737 H 0.91392 0.4761 0.40504 0.0
H738 H 0.94848 0.55143 0.40593 0.0
H739 H 0.93448 0.56762 0.41772 0.0
O740 O 0.87806 0.49432 0.41225 0.0
C741 C 0.87763 0.48911 0.47343 0.0
C742 C 0.91128 0.54562 0.4282 0.0
C743 C 0.93565 0.545 0.41276 0.0
N744 N 0.91059 0.51931 0.42351 0.0
C745 C 0.90284 0.52813 0.43021 0.0
C746 C 0.92682 0.52752 0.41503 0.0
C747 C 0.92779 0.55407 0.41937 0.0
C748 C 0.88086 0.44083 0.45997 0.0
N749 N 0.87038 0.44672 0.46666 0.0
C750 C 0.88646 0.43369 0.47823 0.0
C751 C 0.88124 0.43258 0.50347 0.0
C752 C 0.87054 0.4386 0.51014 0.0
C753 C 0.86522 0.4457 0.49138 0.0
C754 C 0.81635 0.41676 0.46152 0.0
C755 C 0.8307 0.45111 0.45506 0.0
C756 C 0.83314 0.42664 0.45427 0.0
N757 N 0.84013 0.4436 0.45128 0.0
C758 C 0.81387 0.44163 0.46232 0.0
C759 C 0.80668 0.42434 0.46558 0.0
C760 C 0.86295 0.48309 0.40716 0.0
C761 C 0.91696 0.48038 0.36476 0.0
C762 C 0.90303 0.50064 0.37263 0.0
C763 C 0.90762 0.49873 0.34799 0.0
C764 C 0.91461 0.48851 0.34408 0.0
N765 N 0.90539 0.49263 0.39282 0.0
C766 C 0.91225 0.48261 0.38914 0.0
Co767 Co 0.54392 0.40617 0.4429 0.0
Co768 Co 0.50595 0.40303 0.42774 0.0
O769 O 0.5304 0.41588 0.43142 0.0
C770 C 0.56023 0.42347 0.39469 0.0
O771 O 0.54524 0.41763 0.38469 0.0
C772 C 0.51191 0.43102 0.46171 0.0
O773 O 0.52157 0.4272 0.47517 0.0
O774 O 0.50316 0.39353 0.46269 0.0
O775 O 0.52647 0.39187 0.4684 0.0
H776 H 0.44857 0.35189 0.43415 0.0
H777 H 0.55899 0.44314 0.44113 0.0
O778 O 0.56187 0.42021 0.41776 0.0
H779 H 0.56315 0.42986 0.53105 0.0
H780 H 0.59778 0.40802 0.46731 0.0
H781 H 0.53666 0.3718 0.45588 0.0
H782 H 0.55083 0.40738 0.49876 0.0
H783 H 0.58039 0.42008 0.4535 0.0
O784 O 0.5045 0.42252 0.44188 0.0
H785 H 0.47941 0.36794 0.43832 0.0
H786 H 0.48043 0.4117 0.40993 0.0
H787 H 0.55355 0.35924 0.46993 0.0
H788 H 0.57154 0.46605 0.47276 0.0
H789 H 0.58435 0.3774 0.47572 0.0
H790 H 0.57362 0.45945 0.5181 0.0
O791 O 0.53329 0.38795 0.41711 0.0
H792 H 0.52883 0.44913 0.36227 0.0
H793 H 0.49268 0.38826 0.37646 0.0
H794 H 0.49641 0.39961 0.33281 0.0
H795 H 0.51457 0.43026 0.32551 0.0
H796 H 0.52489 0.43724 0.40557 0.0
H797 H 0.44958 0.39616 0.40564 0.0
H798 H 0.43344 0.36602 0.4177 0.0
O799 O 0.5069 0.38327 0.41363 0.0
C800 C 0.51185 0.38868 0.47521 0.0
C801 C 0.45546 0.365 0.42873 0.0
C802 C 0.45602 0.38986 0.41276 0.0
N803 N 0.48172 0.39068 0.42411 0.0
C804 C 0.47293 0.37413 0.43096 0.0
C805 C 0.47349 0.39859 0.41527 0.0
C806 C 0.44698 0.37294 0.41953 0.0
C807 C 0.56001 0.4402 0.46078 0.0
N808 N 0.55425 0.42395 0.46807 0.0
C809 C 0.56706 0.45321 0.47862 0.0
C810 C 0.5682 0.4495 0.50407 0.0
C811 C 0.56232 0.4329 0.51135 0.0
C812 C 0.55531 0.42021 0.49299 0.0
C813 C 0.58437 0.39998 0.4649 0.0
C814 C 0.55004 0.37979 0.45851 0.0
C815 C 0.57446 0.40673 0.45703 0.0
N816 N 0.55751 0.39667 0.45408 0.0
C817 C 0.55954 0.37261 0.4664 0.0
C818 C 0.57683 0.3828 0.46962 0.0
C819 C 0.51819 0.37937 0.40921 0.0
C820 C 0.52084 0.43576 0.36522 0.0
C821 C 0.50066 0.40161 0.37343 0.0
C822 C 0.50268 0.40796 0.34868 0.0
C823 C 0.51286 0.42516 0.34459 0.0
N824 N 0.50852 0.41209 0.39356 0.0
C825 C 0.5185 0.42897 0.38971 0.0
Co826 Co 0.59505 0.13827 0.44111 0.0
Co827 Co 0.59822 0.10325 0.42765 0.0
O828 O 0.58533 0.11486 0.4305 0.0
C829 C 0.57771 0.13657 0.39264 0.0
O830 O 0.58356 0.12728 0.38319 0.0
C831 C 0.57004 0.08145 0.46164 0.0
O832 O 0.57373 0.09501 0.47481 0.0
O833 O 0.60757 0.11039 0.4626 0.0
O834 O 0.60944 0.13554 0.46698 0.0
H835 H 0.64938 0.09719 0.43584 0.0
H836 H 0.55809 0.11636 0.43972 0.0
O837 O 0.58095 0.14178 0.41556 0.0
H838 H 0.57159 0.13516 0.52906 0.0
H839 H 0.59322 0.19062 0.46321 0.0
H840 H 0.62945 0.1656 0.45341 0.0
H841 H 0.594 0.14481 0.49671 0.0
H842 H 0.58115 0.16096 0.45051 0.0
O843 O 0.57868 0.08244 0.44204 0.0
H844 H 0.63328 0.11199 0.43888 0.0
H845 H 0.58967 0.06887 0.41102 0.0
H846 H 0.64203 0.19527 0.46637 0.0
H847 H 0.53525 0.10651 0.47142 0.0
H848 H 0.62386 0.20796 0.47134 0.0
H849 H 0.54196 0.11588 0.51647 0.0
O850 O 0.6132 0.14547 0.41527 0.0
H851 H 0.55236 0.07919 0.36183 0.0
H852 H 0.61318 0.10414 0.37675 0.0
H853 H 0.60199 0.09598 0.33311 0.0
H854 H 0.57137 0.08338 0.32544 0.0
H855 H 0.56409 0.08769 0.40512 0.0
H856 H 0.60526 0.05355 0.40786 0.0
H857 H 0.63535 0.06775 0.42023 0.0
O858 O 0.61802 0.1238 0.41322 0.0
C859 C 0.61254 0.12418 0.47448 0.0
C860 C 0.63629 0.09089 0.43029 0.0
C861 C 0.61152 0.06639 0.41462 0.0
N862 N 0.61061 0.09136 0.42488 0.0
C863 C 0.62713 0.09923 0.43189 0.0
C864 C 0.60275 0.07512 0.41648 0.0
C865 C 0.62841 0.07436 0.42156 0.0
C866 C 0.56108 0.12062 0.45924 0.0
N867 N 0.57734 0.1312 0.46633 0.0
C868 C 0.54811 0.11494 0.47712 0.0
C869 C 0.55188 0.12018 0.50241 0.0
C870 C 0.5685 0.13099 0.50949 0.0
C871 C 0.58115 0.13639 0.49109 0.0
C872 C 0.60126 0.18522 0.46116 0.0
C873 C 0.62145 0.17101 0.45569 0.0
C874 C 0.5945 0.16845 0.45392 0.0
N875 N 0.60457 0.16153 0.45142 0.0
C876 C 0.62865 0.18783 0.46296 0.0
C877 C 0.61845 0.19495 0.46572 0.0
C878 C 0.62184 0.13887 0.408 0.0
C879 C 0.56571 0.08462 0.36494 0.0
C880 C 0.59985 0.09873 0.37356 0.0
C881 C 0.59358 0.09408 0.34881 0.0
C882 C 0.5764 0.087 0.34453 0.0
N883 N 0.58929 0.09634 0.39348 0.0
C884 C 0.57242 0.08939 0.38943 0.0
Co885 Co 0.79057 0.52955 0.72233 0.0
Co886 Co 0.82872 0.56409 0.73753 0.0
O887 O 0.80429 0.55277 0.73373 0.0
C888 C 0.77415 0.53089 0.77021 0.0
O889 O 0.7891 0.53989 0.7804 0.0
C890 C 0.82316 0.5864 0.70358 0.0
O891 O 0.81343 0.57297 0.69004 0.0
O892 O 0.83144 0.55733 0.70258 0.0
O893 O 0.80805 0.53238 0.69709 0.0
H894 H 0.88577 0.56953 0.73128 0.0
H895 H 0.77593 0.55183 0.72347 0.0
O896 O 0.77257 0.52595 0.74718 0.0
H897 H 0.77198 0.5341 0.63375 0.0
H898 H 0.73645 0.47789 0.69773 0.0
H899 H 0.79742 0.50209 0.70995 0.0
H900 H 0.78391 0.52377 0.66642 0.0
H901 H 0.75409 0.50734 0.71136 0.0
O902 O 0.83048 0.58517 0.72341 0.0
H903 H 0.85494 0.55508 0.72706 0.0
H904 H 0.85454 0.59815 0.75539 0.0
H905 H 0.78027 0.47261 0.69608 0.0
H906 H 0.76378 0.56236 0.69144 0.0
H907 H 0.74955 0.46033 0.6899 0.0
H908 H 0.7618 0.55353 0.6462 0.0
O909 O 0.80088 0.52183 0.74843 0.0
H910 H 0.80629 0.5878 0.80294 0.0
H911 H 0.84181 0.56237 0.78884 0.0
H912 H 0.8382 0.57009 0.83247 0.0
H913 H 0.82035 0.58293 0.83973 0.0
H914 H 0.81011 0.57973 0.75965 0.0
H915 H 0.88539 0.61313 0.75974 0.0
H916 H 0.9012 0.59878 0.74773 0.0
O917 O 0.82745 0.54323 0.75164 0.0
C918 C 0.82269 0.54373 0.69021 0.0
C919 C 0.87902 0.5759 0.73668 0.0
C920 C 0.8788 0.60037 0.75262 0.0
N921 N 0.85294 0.5757 0.74123 0.0
C922 C 0.86155 0.56776 0.73442 0.0
C923 C 0.86134 0.59184 0.75008 0.0
C924 C 0.88767 0.59231 0.74588 0.0
C925 C 0.77495 0.5478 0.70386 0.0
N926 N 0.78056 0.53715 0.69684 0.0
C927 C 0.76813 0.55386 0.6858 0.0
C928 C 0.76705 0.54892 0.66041 0.0
C929 C 0.77277 0.53803 0.6534 0.0
C930 C 0.77955 0.53225 0.67198 0.0
C931 C 0.74982 0.4831 0.70031 0.0
C932 C 0.78408 0.49686 0.70714 0.0
C933 C 0.75987 0.49976 0.70807 0.0
N934 N 0.77679 0.50646 0.71125 0.0
C935 C 0.77442 0.48015 0.69936 0.0
C936 C 0.75718 0.47326 0.69591 0.0
C937 C 0.81597 0.52815 0.75627 0.0
C938 C 0.81414 0.58226 0.80001 0.0
C939 C 0.83397 0.56789 0.79185 0.0
C940 C 0.83201 0.57228 0.81659 0.0
C941 C 0.82201 0.5795 0.82065 0.0
N942 N 0.82622 0.57065 0.7717 0.0
C943 C 0.81641 0.57774 0.77552 0.0
Co944 Co 0.4716 0.26135 0.72369 0.0
Co945 Co 0.43633 0.26381 0.73816 0.0
O946 O 0.44819 0.25122 0.7344 0.0
C947 C 0.47011 0.24343 0.77133 0.0
O948 O 0.46088 0.24919 0.78125 0.0
C949 C 0.41474 0.23603 0.70353 0.0
O950 O 0.42834 0.24006 0.69021 0.0
O951 O 0.44331 0.27366 0.70345 0.0
O952 O 0.46869 0.27609 0.69871 0.0
H953 H 0.42947 0.31459 0.7323 0.0
H954 H 0.45009 0.22432 0.72369 0.0
O955 O 0.47528 0.24694 0.74841 0.0
H956 H 0.46871 0.23958 0.63458 0.0
H957 H 0.52427 0.26053 0.70014 0.0
H958 H 0.49871 0.29608 0.71255 0.0
H959 H 0.47812 0.26139 0.66788 0.0
H960 H 0.49458 0.24797 0.71294 0.0
O961 O 0.41564 0.24434 0.72349 0.0
H962 H 0.44459 0.29887 0.72811 0.0
H963 H 0.4019 0.25463 0.75546 0.0
H964 H 0.52841 0.30916 0.69953 0.0
H965 H 0.44048 0.20208 0.69103 0.0
H966 H 0.54138 0.29133 0.69324 0.0
H967 H 0.44977 0.20968 0.64609 0.0
O968 O 0.47863 0.27905 0.75022 0.0
H969 H 0.41294 0.2171 0.80264 0.0
H970 H 0.4372 0.27802 0.78967 0.0
H971 H 0.42929 0.26625 0.83305 0.0
H972 H 0.41703 0.23557 0.83973 0.0
H973 H 0.42119 0.22942 0.75962 0.0
H974 H 0.38626 0.26984 0.75976 0.0
H975 H 0.40008 0.30006 0.74823 0.0
O976 O 0.4568 0.28358 0.75281 0.0
C977 C 0.45718 0.27909 0.69161 0.0
C978 C 0.42333 0.30145 0.73749 0.0
C979 C 0.39908 0.27632 0.75287 0.0
N980 N 0.4242 0.27591 0.74181 0.0
C981 C 0.43185 0.2925 0.73525 0.0
C982 C 0.40799 0.26777 0.75036 0.0
C983 C 0.40684 0.29328 0.7464 0.0
C984 C 0.45431 0.22769 0.70422 0.0
N985 N 0.46471 0.24411 0.69773 0.0
C986 C 0.44877 0.21506 0.68579 0.0
C987 C 0.45397 0.21933 0.66058 0.0
C988 C 0.46459 0.23611 0.6541 0.0
C989 C 0.46985 0.24841 0.67303 0.0
C990 C 0.51876 0.26843 0.70276 0.0
C991 C 0.50424 0.28824 0.7097 0.0
C992 C 0.50196 0.26139 0.71006 0.0
N993 N 0.49489 0.27127 0.71328 0.0
C994 C 0.52107 0.29571 0.70239 0.0
C995 C 0.52835 0.28571 0.69889 0.0
C996 C 0.47192 0.28752 0.75783 0.0
C997 C 0.41822 0.23048 0.79996 0.0
C998 C 0.43194 0.26467 0.79243 0.0
C999 C 0.42744 0.25807 0.81703 0.0
C1000 C 0.42055 0.24085 0.82077 0.0
N1001 N 0.4296 0.25441 0.77212 0.0
C1002 C 0.42284 0.23751 0.77562 0.0
Co1003 Co 0.7408 0.21051 0.72455 0.0
Co1004 Co 0.7362 0.17186 0.73852 0.0
O1005 O 0.74965 0.19625 0.73573 0.0
C1006 C 0.75617 0.22615 0.77417 0.0
O1007 O 0.7466 0.21156 0.78512 0.0
C1008 C 0.76427 0.17753 0.70504 0.0
O1009 O 0.76076 0.18747 0.69171 0.0
O1010 O 0.72718 0.16988 0.70339 0.0
O1011 O 0.72609 0.19358 0.69865 0.0
H1012 H 0.68418 0.11532 0.72973 0.0
H1013 H 0.77764 0.22433 0.72656 0.0
O1014 O 0.75548 0.22784 0.75016 0.0
H1015 H 0.76515 0.22996 0.63681 0.0
H1016 H 0.74541 0.26586 0.70189 0.0
H1017 H 0.70702 0.20493 0.71134 0.0
H1018 H 0.7425 0.21798 0.66887 0.0
H1019 H 0.7562 0.24727 0.71518 0.0
O1020 O 0.75554 0.17002 0.72465 0.0
H1021 H 0.70098 0.1462 0.72668 0.0
H1022 H 0.7437 0.14541 0.75571 0.0
H1023 H 0.69572 0.22304 0.69781 0.0
H1024 H 0.8007 0.23652 0.69515 0.0
H1025 H 0.71498 0.25374 0.69301 0.0
H1026 H 0.7945 0.23935 0.64989 0.0
O1027 O 0.7222 0.20002 0.74987 0.0
H1028 H 0.78132 0.19313 0.8055 0.0
H1029 H 0.7206 0.15787 0.78909 0.0
H1030 H 0.73126 0.16073 0.83306 0.0
H1031 H 0.76183 0.17844 0.84147 0.0
H1032 H 0.7701 0.19002 0.76185 0.0
H1033 H 0.7274 0.11451 0.75888 0.0
H1034 H 0.69739 0.09927 0.74593 0.0
O1035 O 0.71665 0.17328 0.75232 0.0
C1036 C 0.72255 0.17893 0.69135 0.0
C1037 C 0.69722 0.12182 0.73554 0.0
C1038 C 0.72149 0.12136 0.75186 0.0
N1039 N 0.72324 0.1476 0.74128 0.0
C1040 C 0.70678 0.13931 0.73394 0.0
C1041 C 0.73066 0.13885 0.74999 0.0
C1042 C 0.70465 0.11282 0.7446 0.0
C1043 C 0.77487 0.22568 0.70695 0.0
N1044 N 0.75876 0.22053 0.69959 0.0
C1045 C 0.78797 0.23252 0.68923 0.0
C1046 C 0.78448 0.23408 0.66383 0.0
C1047 C 0.76801 0.22881 0.65648 0.0
C1048 C 0.75523 0.222 0.67471 0.0
C1049 C 0.7369 0.2525 0.70387 0.0
C1050 C 0.71549 0.21826 0.70914 0.0
C1051 C 0.74293 0.24192 0.71143 0.0
N1052 N 0.73226 0.22502 0.71383 0.0
C1053 C 0.70902 0.22846 0.70155 0.0
C1054 C 0.71983 0.24569 0.69888 0.0
C1055 C 0.71313 0.1848 0.75708 0.0
C1056 C 0.76798 0.18534 0.80206 0.0
C1057 C 0.73392 0.16563 0.79261 0.0
C1058 C 0.73988 0.16717 0.81754 0.0
C1059 C 0.75704 0.17711 0.82224 0.0
N1060 N 0.74474 0.17369 0.77291 0.0
C1061 C 0.76157 0.18348 0.77738 0.0
Co1062 Co 0.47127 0.21029 0.22272 0.0
Co1063 Co 0.43629 0.17247 0.23817 0.0
O1064 O 0.4481 0.19694 0.23454 0.0
C1065 C 0.47077 0.22658 0.27123 0.0
O1066 O 0.46153 0.21159 0.28116 0.0
C1067 C 0.41426 0.17873 0.20464 0.0
O1068 O 0.42772 0.18834 0.19108 0.0
O1069 O 0.44275 0.16961 0.20307 0.0
O1070 O 0.46774 0.19284 0.19698 0.0
H1071 H 0.42938 0.11484 0.23132 0.0
H1072 H 0.4497 0.2257 0.22536 0.0
O1073 O 0.47556 0.22824 0.2481 0.0
H1074 H 0.46645 0.22995 0.13508 0.0
H1075 H 0.52344 0.26392 0.19795 0.0
H1076 H 0.49802 0.2027 0.20886 0.0
H1077 H 0.47663 0.21734 0.16685 0.0
H1078 H 0.49407 0.24674 0.21224 0.0
O1079 O 0.41538 0.17126 0.22438 0.0
H1080 H 0.44442 0.14569 0.22716 0.0
H1081 H 0.40211 0.1472 0.25636 0.0
H1082 H 0.5274 0.21938 0.19432 0.0
H1083 H 0.43933 0.23854 0.19425 0.0
H1084 H 0.54029 0.25022 0.18878 0.0
H1085 H 0.44767 0.24067 0.14873 0.0
O1086 O 0.47888 0.19944 0.2481 0.0
H1087 H 0.41382 0.19573 0.30425 0.0
H1088 H 0.43791 0.1591 0.2893 0.0
H1089 H 0.43063 0.16293 0.33312 0.0
H1090 H 0.41846 0.18134 0.3408 0.0
H1091 H 0.42144 0.19168 0.26077 0.0
H1092 H 0.38655 0.11634 0.26065 0.0
H1093 H 0.40022 0.09996 0.24818 0.0
O1094 O 0.45697 0.17319 0.25191 0.0
C1095 C 0.4562 0.17824 0.19031 0.0
C1096 C 0.42331 0.12184 0.23692 0.0
C1097 C 0.39926 0.12268 0.25335 0.0
N1098 N 0.42422 0.14824 0.24178 0.0
C1099 C 0.43179 0.13932 0.2347 0.0
C1100 C 0.40813 0.14015 0.25085 0.0
C1101 C 0.40695 0.1135 0.24636 0.0
C1102 C 0.45351 0.22674 0.20562 0.0
N1103 N 0.46381 0.22084 0.19795 0.0
C1104 C 0.44755 0.23396 0.18808 0.0
C1105 C 0.45221 0.23512 0.16254 0.0
C1106 C 0.46273 0.2291 0.15486 0.0
C1107 C 0.46843 0.22193 0.17293 0.0
C1108 C 0.51796 0.25049 0.20024 0.0
C1109 C 0.50352 0.2161 0.20634 0.0
C1110 C 0.50134 0.2407 0.20838 0.0
N1111 N 0.49431 0.22372 0.21119 0.0
C1112 C 0.52017 0.22548 0.19817 0.0
C1113 C 0.5274 0.24279 0.19509 0.0
C1114 C 0.47225 0.18433 0.25602 0.0
C1115 C 0.41906 0.18763 0.30114 0.0
C1116 C 0.43268 0.16718 0.2925 0.0
C1117 C 0.42854 0.16926 0.31735 0.0
C1118 C 0.4217 0.17958 0.32164 0.0
N1119 N 0.43005 0.17511 0.27249 0.0
C1120 C 0.42333 0.18523 0.27654 0.0
Co1121 Co 0.79148 0.26192 0.22159 0.0
Co1122 Co 0.82887 0.26392 0.2368 0.0
O1123 O 0.80447 0.2515 0.23246 0.0
C1124 C 0.77435 0.24355 0.26862 0.0
O1125 O 0.78922 0.24925 0.27899 0.0
C1126 C 0.82287 0.23621 0.20212 0.0
O1127 O 0.81351 0.24036 0.18851 0.0
O1128 O 0.83213 0.27386 0.20211 0.0
O1129 O 0.80954 0.2769 0.19724 0.0
H1130 H 0.88677 0.31444 0.23212 0.0
H1131 H 0.77569 0.22486 0.22063 0.0
O1132 O 0.77301 0.24728 0.24569 0.0
H1133 H 0.77374 0.24132 0.13171 0.0
H1134 H 0.73852 0.26179 0.19681 0.0
H1135 H 0.79948 0.29686 0.21133 0.0
H1136 H 0.78584 0.26271 0.16565 0.0
H1137 H 0.75531 0.24889 0.20976 0.0
O1138 O 0.83007 0.2444 0.22226 0.0
H1139 H 0.85596 0.29892 0.22722 0.0
H1140 H 0.85376 0.25443 0.2548 0.0
H1141 H 0.78319 0.31027 0.19818 0.0
H1142 H 0.76335 0.20304 0.18731 0.0
H1143 H 0.75248 0.29269 0.19083 0.0
H1144 H 0.76237 0.21124 0.14247 0.0
O1145 O 0.80189 0.27928 0.24865 0.0
H1146 H 0.80459 0.217 0.30091 0.0
H1147 H 0.84177 0.27791 0.28857 0.0
H1148 H 0.83738 0.26598 0.33191 0.0
H1149 H 0.8187 0.23531 0.33827 0.0
H1150 H 0.8092 0.22948 0.25794 0.0
H1151 H 0.88456 0.26943 0.2598 0.0
H1152 H 0.90127 0.29968 0.24852 0.0
O1153 O 0.82823 0.28375 0.25134 0.0
C1154 C 0.82401 0.27967 0.1903 0.0
C1155 C 0.87962 0.30128 0.2372 0.0
C1156 C 0.87838 0.27602 0.25271 0.0
N1157 N 0.85306 0.27585 0.24099 0.0
C1158 C 0.86217 0.29245 0.23456 0.0
C1159 C 0.86095 0.26758 0.24981 0.0
C1160 C 0.88775 0.29299 0.24638 0.0
C1161 C 0.77515 0.2285 0.2012 0.0
N1162 N 0.78139 0.24502 0.19511 0.0
C1163 C 0.76821 0.2161 0.1824 0.0
C1164 C 0.76769 0.22071 0.15723 0.0
C1165 C 0.77409 0.23759 0.15118 0.0
C1166 C 0.78095 0.24965 0.17047 0.0
C1167 C 0.7519 0.26958 0.19989 0.0
C1168 C 0.78614 0.28912 0.208 0.0
C1169 C 0.76147 0.26235 0.20727 0.0
N1170 N 0.77838 0.27211 0.21107 0.0
C1171 C 0.77697 0.29679 0.20063 0.0
C1172 C 0.75974 0.28692 0.19654 0.0
C1173 C 0.81705 0.2877 0.25638 0.0
C1174 C 0.8128 0.23037 0.29837 0.0
C1175 C 0.83357 0.26456 0.2912 0.0
C1176 C 0.83117 0.25787 0.31577 0.0
C1177 C 0.8207 0.24066 0.31933 0.0
N1178 N 0.82579 0.25439 0.27073 0.0
C1179 C 0.81552 0.2375 0.27407 0.0
Co1180 Co 0.73979 0.5295 0.22325 0.0
Co1181 Co 0.73682 0.5645 0.23785 0.0
O1182 O 0.7496 0.5528 0.23444 0.0
C1183 C 0.75699 0.53066 0.27159 0.0
O1184 O 0.75113 0.53986 0.28134 0.0
C1185 C 0.76491 0.58638 0.20387 0.0
O1186 O 0.76109 0.57286 0.1905 0.0
O1187 O 0.72739 0.55769 0.2029 0.0
O1188 O 0.72555 0.5326 0.19759 0.0
H1189 H 0.68586 0.57099 0.23075 0.0
H1190 H 0.77678 0.55127 0.22494 0.0
O1191 O 0.75378 0.52565 0.24858 0.0
H1192 H 0.76343 0.53335 0.13523 0.0
H1193 H 0.74135 0.4772 0.19974 0.0
H1194 H 0.70537 0.50243 0.21042 0.0
H1195 H 0.74095 0.52347 0.1675 0.0
H1196 H 0.75354 0.50674 0.21315 0.0
O1197 O 0.75638 0.58534 0.22365 0.0
H1198 H 0.7018 0.55606 0.22699 0.0
H1199 H 0.7456 0.59879 0.2553 0.0
H1200 H 0.69268 0.47288 0.19677 0.0
H1201 H 0.79968 0.56135 0.19333 0.0
H1202 H 0.71072 0.46008 0.19135 0.0
H1203 H 0.79305 0.55242 0.14809 0.0
O1204 O 0.72158 0.52211 0.24901 0.0
H1205 H 0.78282 0.5878 0.30348 0.0
H1206 H 0.722 0.56327 0.289 0.0
H1207 H 0.73329 0.57101 0.33266 0.0
H1208 H 0.76391 0.5834 0.3401 0.0
H1209 H 0.77099 0.57972 0.26016 0.0
H1210 H 0.73018 0.61424 0.25918 0.0
H1211 H 0.70007 0.6003 0.24695 0.0
O1212 O 0.71699 0.54389 0.25203 0.0
C1213 C 0.72246 0.54407 0.19056 0.0
C1214 C 0.69896 0.57717 0.23624 0.0
C1215 C 0.72383 0.60146 0.25217 0.0
N1216 N 0.72455 0.57648 0.24118 0.0
C1217 C 0.70803 0.56876 0.23424 0.0
C1218 C 0.73251 0.59265 0.2499 0.0
C1219 C 0.70694 0.59362 0.2453 0.0
C1220 C 0.77382 0.54721 0.20534 0.0
N1221 N 0.75756 0.53675 0.1981 0.0
C1222 C 0.78683 0.55301 0.1875 0.0
C1223 C 0.7831 0.54801 0.16212 0.0
C1224 C 0.76648 0.53733 0.15488 0.0
C1225 C 0.7538 0.5318 0.17323 0.0
C1226 C 0.73337 0.48265 0.20199 0.0
C1227 C 0.71331 0.49698 0.20795 0.0
C1228 C 0.74019 0.49936 0.20962 0.0
N1229 N 0.73019 0.50634 0.21237 0.0
C1230 C 0.70605 0.48023 0.20029 0.0
C1231 C 0.71618 0.47305 0.19728 0.0
C1232 C 0.71304 0.52872 0.25669 0.0
C1233 C 0.76946 0.58246 0.30047 0.0
C1234 C 0.73533 0.56859 0.29209 0.0
C1235 C 0.74166 0.57299 0.31685 0.0
C1236 C 0.75884 0.57996 0.32101 0.0
N1237 N 0.74584 0.57109 0.27204 0.0
C1238 C 0.7627 0.57793 0.27596 0.0
Co1239 Co 0.54372 0.13799 0.94312 0.0
Co1240 Co 0.50616 0.10265 0.92821 0.0
O1241 O 0.53059 0.11459 0.93227 0.0
C1242 C 0.5604 0.13685 0.89557 0.0
O1243 O 0.54544 0.12768 0.88551 0.0
C1244 C 0.51225 0.08098 0.96288 0.0
O1245 O 0.52172 0.09453 0.97635 0.0
O1246 O 0.50305 0.10949 0.9629 0.0
O1247 O 0.5259 0.13492 0.96787 0.0
H1248 H 0.44836 0.09549 0.93337 0.0
H1249 H 0.55942 0.11664 0.9433 0.0
O1250 O 0.56197 0.14182 0.91859 0.0
H1251 H 0.56217 0.13496 0.03246 0.0
H1252 H 0.59695 0.19074 0.96732 0.0
H1253 H 0.53588 0.16496 0.95414 0.0
H1254 H 0.54986 0.14436 0.99901 0.0
H1255 H 0.58 0.16107 0.95431 0.0
O1256 O 0.50495 0.08194 0.94283 0.0
H1257 H 0.47919 0.11071 0.93795 0.0
H1258 H 0.48111 0.06824 0.91057 0.0
H1259 H 0.55232 0.19463 0.96736 0.0
H1260 H 0.57197 0.10704 0.97613 0.0
H1261 H 0.58309 0.20771 0.97403 0.0
H1262 H 0.57335 0.11618 0.02109 0.0
O1263 O 0.53313 0.14501 0.91646 0.0
H1264 H 0.53008 0.07973 0.86398 0.0
H1265 H 0.49304 0.10359 0.87654 0.0
H1266 H 0.49722 0.09589 0.8332 0.0
H1267 H 0.51584 0.08384 0.82672 0.0
H1268 H 0.52568 0.08775 0.90696 0.0
H1269 H 0.45028 0.05249 0.90588 0.0
H1270 H 0.43371 0.06616 0.91723 0.0
O1271 O 0.50682 0.12311 0.91357 0.0
C1272 C 0.51138 0.12335 0.97482 0.0
C1273 C 0.45545 0.08942 0.92826 0.0
C1274 C 0.45653 0.06528 0.91286 0.0
N1275 N 0.48195 0.09044 0.92426 0.0
C1276 C 0.47291 0.098 0.93072 0.0
C1277 C 0.47397 0.07425 0.91559 0.0
C1278 C 0.44723 0.07296 0.91923 0.0
C1279 C 0.56014 0.1208 0.96279 0.0
N1280 N 0.554 0.13111 0.96921 0.0
C1281 C 0.56719 0.11527 0.9813 0.0
C1282 C 0.56793 0.12038 0.00653 0.0
C1283 C 0.56165 0.13091 0.01293 0.0
C1284 C 0.55466 0.13616 0.99392 0.0
C1285 C 0.58355 0.18517 0.96453 0.0
C1286 C 0.54924 0.17053 0.95716 0.0
C1287 C 0.57389 0.16839 0.95711 0.0
N1288 N 0.55695 0.16126 0.95368 0.0
C1289 C 0.5585 0.18735 0.96458 0.0
C1290 C 0.57576 0.19469 0.9683 0.0
C1291 C 0.51799 0.13826 0.90866 0.0
C1292 C 0.5219 0.08492 0.86657 0.0
C1293 C 0.50121 0.09841 0.87387 0.0
C1294 C 0.50349 0.09403 0.84929 0.0
C1295 C 0.51392 0.08725 0.84567 0.0
N1296 N 0.50906 0.09606 0.89428 0.0
C1297 C 0.5193 0.08941 0.89088 0.0
Co1298 Co 0.86271 0.40688 0.9452 0.0
Co1299 Co 0.89721 0.40394 0.92604 0.0
O1300 O 0.88551 0.41651 0.93176 0.0
C1301 C 0.86189 0.42228 0.89601 0.0
O1302 O 0.87118 0.41655 0.88621 0.0
C1303 C 0.91916 0.43092 0.96174 0.0
O1304 O 0.90561 0.42705 0.97504 0.0
O1305 O 0.89041 0.39292 0.96024 0.0
O1306 O 0.86737 0.39402 0.9712 0.0
H1307 H 0.90321 0.35255 0.92515 0.0
H1308 H 0.88395 0.44377 0.93945 0.0
O1309 O 0.85742 0.41956 0.91931 0.0
H1310 H 0.87044 0.43429 0.03114 0.0
H1311 H 0.81117 0.40878 0.9724 0.0
H1312 H 0.83681 0.37308 0.96298 0.0
H1313 H 0.85929 0.41045 0.00114 0.0
H1314 H 0.84001 0.4206 0.95582 0.0
O1315 O 0.91811 0.4228 0.94146 0.0
H1316 H 0.88843 0.36841 0.93205 0.0
H1317 H 0.9316 0.41341 0.90803 0.0
H1318 H 0.80799 0.36077 0.97983 0.0
H1319 H 0.89526 0.46799 0.96875 0.0
H1320 H 0.79498 0.37866 0.98462 0.0
H1321 H 0.88856 0.46331 0.01497 0.0
O1322 O 0.85422 0.38742 0.92141 0.0
H1323 H 0.92005 0.45275 0.86534 0.0
H1324 H 0.89673 0.39162 0.87323 0.0
H1325 H 0.90443 0.40484 0.83072 0.0
H1326 H 0.9162 0.43564 0.82659 0.0
H1327 H 0.91202 0.43897 0.90743 0.0
H1328 H 0.94691 0.39807 0.90107 0.0
H1329 H 0.93267 0.36741 0.90955 0.0
O1330 O 0.87659 0.38496 0.91048 0.0
C1331 C 0.87821 0.38952 0.9753 0.0
C1332 C 0.90953 0.3659 0.9213 0.0
C1333 C 0.93407 0.39146 0.90783 0.0
N1334 N 0.9091 0.39178 0.92026 0.0
C1335 C 0.90121 0.37493 0.9251 0.0
C1336 C 0.92535 0.40008 0.91186 0.0
C1337 C 0.92607 0.37425 0.91258 0.0
C1338 C 0.88084 0.44165 0.9595 0.0
N1339 N 0.8709 0.42572 0.96855 0.0
C1340 C 0.88734 0.45541 0.97601 0.0
C1341 C 0.88359 0.45277 0.00195 0.0
C1342 C 0.87344 0.43649 0.01103 0.0
C1343 C 0.86718 0.42303 0.99397 0.0
C1344 C 0.8167 0.40085 0.97042 0.0
C1345 C 0.83126 0.38096 0.96512 0.0
C1346 C 0.83301 0.40747 0.96098 0.0
N1347 N 0.84011 0.39755 0.95854 0.0
C1348 C 0.81493 0.37391 0.97462 0.0
C1349 C 0.80763 0.38396 0.97729 0.0
C1350 C 0.86091 0.38 0.90986 0.0
C1351 C 0.91496 0.43933 0.86689 0.0
C1352 C 0.90175 0.405 0.87156 0.0
C1353 C 0.90614 0.41243 0.84745 0.0
C1354 C 0.91277 0.42971 0.84515 0.0
N1355 N 0.9039 0.41451 0.89278 0.0
C1356 C 0.91045 0.43146 0.89069 0.0
Co1357 Co 0.5952 0.45726 0.94169 0.0
Co1358 Co 0.59733 0.49493 0.92794 0.0
O1359 O 0.5849 0.47046 0.9314 0.0
C1360 C 0.57723 0.44099 0.89398 0.0
O1361 O 0.58284 0.45602 0.88426 0.0
C1362 C 0.5696 0.48826 0.96301 0.0
O1363 O 0.57385 0.47875 0.97602 0.0
O1364 O 0.60734 0.4977 0.9625 0.0
O1365 O 0.60989 0.4748 0.96681 0.0
H1366 H 0.64787 0.55274 0.93398 0.0
H1367 H 0.55814 0.44151 0.94189 0.0
O1368 O 0.58082 0.43927 0.91681 0.0
H1369 H 0.57363 0.43776 0.03071 0.0
H1370 H 0.59483 0.40384 0.96414 0.0
H1371 H 0.63002 0.46506 0.95247 0.0
H1372 H 0.59538 0.45047 0.99736 0.0
H1373 H 0.58206 0.42087 0.95187 0.0
O1374 O 0.5778 0.49587 0.94306 0.0
H1375 H 0.63236 0.52187 0.93778 0.0
H1376 H 0.58781 0.52008 0.91148 0.0
H1377 H 0.6433 0.44853 0.96496 0.0
H1378 H 0.53597 0.42858 0.97461 0.0
H1379 H 0.62566 0.41769 0.97087 0.0
H1380 H 0.54368 0.42669 0.01941 0.0
O1381 O 0.61281 0.46818 0.9151 0.0
H1382 H 0.55037 0.47166 0.8639 0.0
H1383 H 0.61128 0.50863 0.87645 0.0
H1384 H 0.59932 0.50493 0.83324 0.0
H1385 H 0.56865 0.48635 0.82676 0.0
H1386 H 0.56287 0.47558 0.90675 0.0
H1387 H 0.6028 0.55095 0.90758 0.0
H1388 H 0.63307 0.56749 0.91877 0.0
O1389 O 0.61714 0.49448 0.91284 0.0
C1390 C 0.61285 0.48926 0.97412 0.0
C1391 C 0.6347 0.54567 0.92894 0.0
C1392 C 0.6094 0.54467 0.91415 0.0
N1393 N 0.60925 0.51918 0.92459 0.0
C1394 C 0.62587 0.52819 0.93096 0.0
C1395 C 0.60097 0.5272 0.91643 0.0
C1396 C 0.62638 0.55394 0.92043 0.0
C1397 C 0.56157 0.44058 0.9613 0.0
N1398 N 0.57802 0.44666 0.96768 0.0
C1399 C 0.54897 0.43331 0.97976 0.0
C1400 C 0.55331 0.43228 0.0049 0.0
C1401 C 0.57011 0.4385 0.01126 0.0
C1402 C 0.58237 0.44571 0.9923 0.0
C1403 C 0.60265 0.41727 0.96168 0.0
C1404 C 0.62225 0.45166 0.95516 0.0
C1405 C 0.59549 0.42698 0.95469 0.0
N1406 N 0.60528 0.44396 0.95167 0.0
C1407 C 0.62985 0.44236 0.96216 0.0
C1408 C 0.61994 0.42505 0.96545 0.0
C1409 C 0.62115 0.48338 0.90756 0.0
C1410 C 0.56374 0.47982 0.86649 0.0
C1411 C 0.59793 0.50047 0.87378 0.0
C1412 C 0.59123 0.49846 0.84927 0.0
C1413 C 0.57401 0.48805 0.84566 0.0
N1414 N 0.58777 0.49237 0.89412 0.0
C1415 C 0.57088 0.48215 0.89073 0.0
Co1416 Co 0.5299 0.79098 0.77507 0.0
Co1417 Co 0.56515 0.82872 0.76075 0.0
O1418 O 0.55335 0.80428 0.76455 0.0
C1419 C 0.5316 0.77428 0.72778 0.0
O1420 O 0.54084 0.78921 0.71763 0.0
C1421 C 0.58675 0.82263 0.79556 0.0
O1422 O 0.57315 0.81311 0.8089 0.0
O1423 O 0.55809 0.83158 0.79541 0.0
O1424 O 0.53263 0.8087 0.79977 0.0
H1425 H 0.57183 0.8863 0.76634 0.0
H1426 H 0.55151 0.77557 0.77578 0.0
O1427 O 0.52638 0.77279 0.75064 0.0
H1428 H 0.53249 0.77252 0.8646 0.0
H1429 H 0.47723 0.73749 0.7987 0.0
H1430 H 0.50266 0.79852 0.78549 0.0
H1431 H 0.52315 0.78471 0.83088 0.0
H1432 H 0.50697 0.75464 0.78611 0.0
O1433 O 0.58586 0.83 0.77554 0.0
H1434 H 0.55678 0.85546 0.77059 0.0
H1435 H 0.59959 0.85403 0.74357 0.0
H1436 H 0.47292 0.78187 0.79828 0.0
H1437 H 0.56106 0.76316 0.80888 0.0
H1438 H 0.46002 0.75112 0.80497 0.0
H1439 H 0.55158 0.76162 0.85367 0.0
O1440 O 0.52295 0.80151 0.74818 0.0
H1441 H 0.58878 0.80548 0.69653 0.0
H1442 H 0.56434 0.84201 0.70917 0.0
H1443 H 0.57237 0.83817 0.66587 0.0
H1444 H 0.58471 0.81982 0.65935 0.0
H1445 H 0.58042 0.80954 0.73947 0.0
H1446 H 0.61516 0.88488 0.73921 0.0
H1447 H 0.60124 0.90122 0.75054 0.0
O1448 O 0.54468 0.82795 0.74596 0.0
C1449 C 0.54412 0.82318 0.80702 0.0
C1450 C 0.57801 0.87932 0.76123 0.0
C1451 C 0.60234 0.87852 0.74605 0.0
N1452 N 0.57724 0.85295 0.75707 0.0
C1453 C 0.56953 0.86185 0.76352 0.0
C1454 C 0.59347 0.86106 0.74859 0.0
C1455 C 0.59452 0.88768 0.7524 0.0
C1456 C 0.5472 0.77479 0.79518 0.0
N1457 N 0.53672 0.78078 0.80136 0.0
C1458 C 0.5527 0.76782 0.81386 0.0
C1459 C 0.5474 0.76698 0.83899 0.0
C1460 C 0.5367 0.77311 0.84514 0.0
C1461 C 0.53148 0.78003 0.82598 0.0
C1462 C 0.48272 0.75088 0.79589 0.0
C1463 C 0.49716 0.78516 0.78851 0.0
C1464 C 0.49954 0.76065 0.78872 0.0
N1465 N 0.50657 0.77759 0.78527 0.0
C1466 C 0.4803 0.77579 0.79569 0.0
C1467 C 0.47307 0.75854 0.79941 0.0
C1468 C 0.52962 0.81671 0.74067 0.0
C1469 C 0.58346 0.81355 0.69914 0.0
C1470 C 0.56964 0.83395 0.70648 0.0
C1471 C 0.57421 0.83186 0.68192 0.0
C1472 C 0.58115 0.82158 0.67828 0.0
N1473 N 0.57196 0.82605 0.72685 0.0
C1474 C 0.57877 0.81596 0.72343 0.0
Co1475 Co 0.21068 0.73911 0.77538 0.0
Co1476 Co 0.17282 0.73634 0.76106 0.0
O1477 O 0.19727 0.7491 0.76472 0.0
C1478 C 0.22711 0.75718 0.72778 0.0
O1479 O 0.21211 0.75131 0.71781 0.0
C1480 C 0.17884 0.76418 0.79549 0.0
O1481 O 0.18845 0.76025 0.80891 0.0
O1482 O 0.17009 0.72663 0.79584 0.0
O1483 O 0.19306 0.72423 0.80033 0.0
H1484 H 0.11536 0.68531 0.76738 0.0
H1485 H 0.22595 0.77611 0.77553 0.0
O1486 O 0.22876 0.75367 0.75071 0.0
H1487 H 0.22941 0.7608 0.86457 0.0
H1488 H 0.26438 0.74035 0.79891 0.0
H1489 H 0.20332 0.70444 0.78638 0.0
H1490 H 0.21716 0.73903 0.83119 0.0
H1491 H 0.24708 0.75273 0.78616 0.0
O1492 O 0.17146 0.75578 0.77557 0.0
H1493 H 0.14621 0.70124 0.77137 0.0
H1494 H 0.14735 0.74521 0.74375 0.0
H1495 H 0.22012 0.69155 0.79935 0.0
H1496 H 0.23842 0.79831 0.80828 0.0
H1497 H 0.25088 0.70955 0.80569 0.0
H1498 H 0.24016 0.79069 0.85318 0.0
O1499 O 0.20013 0.72145 0.74877 0.0
H1500 H 0.19571 0.78283 0.69621 0.0
H1501 H 0.15942 0.7219 0.70968 0.0
H1502 H 0.1631 0.73351 0.66621 0.0
H1503 H 0.18133 0.76419 0.65928 0.0
H1504 H 0.19182 0.77068 0.73932 0.0
H1505 H 0.11648 0.7298 0.73964 0.0
H1506 H 0.10029 0.6996 0.75141 0.0
O1507 O 0.17364 0.71661 0.74654 0.0
C1508 C 0.17857 0.7212 0.80756 0.0
C1509 C 0.12228 0.69844 0.76209 0.0
C1510 C 0.12291 0.72342 0.74655 0.0
N1511 N 0.14858 0.72408 0.75753 0.0
C1512 C 0.13976 0.70751 0.76422 0.0
C1513 C 0.14038 0.73209 0.74895 0.0
C1514 C 0.11383 0.70648 0.75315 0.0
C1515 C 0.22682 0.77273 0.79498 0.0
N1516 N 0.22091 0.75632 0.80141 0.0
C1517 C 0.23383 0.78534 0.81346 0.0
C1518 C 0.23477 0.78105 0.83866 0.0
C1519 C 0.22873 0.76428 0.84507 0.0
C1520 C 0.22177 0.752 0.82609 0.0
C1521 C 0.25098 0.73238 0.79626 0.0
C1522 C 0.21668 0.71237 0.78926 0.0
C1523 C 0.24113 0.73931 0.78899 0.0
N1524 N 0.22419 0.72933 0.78573 0.0
C1525 C 0.22614 0.70499 0.79653 0.0
C1526 C 0.2434 0.7151 0.80006 0.0
C1527 C 0.18492 0.71283 0.74134 0.0
C1528 C 0.18769 0.76945 0.699 0.0
C1529 C 0.16743 0.73526 0.7068 0.0
C1530 C 0.16943 0.74176 0.68216 0.0
C1531 C 0.17965 0.75898 0.67828 0.0
N1532 N 0.17536 0.74561 0.72703 0.0
C1533 C 0.18538 0.76251 0.72339 0.0
Co1534 Co 0.2626 0.47183 0.77581 0.0
Co1535 Co 0.26509 0.43659 0.76151 0.0
O1536 O 0.25243 0.44837 0.76534 0.0
C1537 C 0.24411 0.47008 0.72863 0.0
O1538 O 0.2498 0.46084 0.71845 0.0
C1539 C 0.23738 0.4149 0.79627 0.0
O1540 O 0.24143 0.42847 0.80968 0.0
O1541 O 0.27498 0.44363 0.79618 0.0
O1542 O 0.27765 0.46913 0.80043 0.0
H1543 H 0.31603 0.42996 0.76715 0.0
H1544 H 0.22559 0.4502 0.77675 0.0
O1545 O 0.24787 0.47531 0.75148 0.0
H1546 H 0.24176 0.46933 0.86546 0.0
H1547 H 0.26181 0.52451 0.79943 0.0
H1548 H 0.29741 0.49909 0.78602 0.0
H1549 H 0.26322 0.47863 0.83162 0.0
H1550 H 0.2492 0.49475 0.78694 0.0
O1551 O 0.24567 0.41585 0.77626 0.0
H1552 H 0.30021 0.44498 0.77139 0.0
H1553 H 0.25601 0.40217 0.74429 0.0
H1554 H 0.31052 0.52886 0.7987 0.0
H1555 H 0.2037 0.44068 0.80997 0.0
H1556 H 0.29267 0.54175 0.80549 0.0
H1557 H 0.21175 0.45022 0.85471 0.0
O1558 O 0.28001 0.47875 0.74883 0.0
H1559 H 0.21828 0.41297 0.69724 0.0
H1560 H 0.27925 0.43745 0.70995 0.0
H1561 H 0.26741 0.42944 0.66663 0.0
H1562 H 0.23671 0.41707 0.66007 0.0
H1563 H 0.23066 0.42131 0.7402 0.0
H1564 H 0.27131 0.38662 0.73995 0.0
H1565 H 0.30156 0.40055 0.75132 0.0
O1566 O 0.28482 0.45709 0.74675 0.0
C1567 C 0.28061 0.45763 0.80773 0.0
C1568 C 0.30287 0.42377 0.76203 0.0
C1569 C 0.27776 0.39944 0.74679 0.0
N1570 N 0.27726 0.42452 0.75783 0.0
C1571 C 0.29386 0.43224 0.7643 0.0
C1572 C 0.26916 0.4083 0.74933 0.0
C1573 C 0.29474 0.40727 0.75318 0.0
C1574 C 0.22916 0.45453 0.79613 0.0
N1575 N 0.24564 0.46502 0.80221 0.0
C1576 C 0.21672 0.44905 0.81488 0.0
C1577 C 0.22126 0.45439 0.83999 0.0
C1578 C 0.23809 0.46509 0.84603 0.0
C1579 C 0.25019 0.47029 0.8268 0.0
C1580 C 0.26971 0.51902 0.79658 0.0
C1581 C 0.28955 0.50459 0.78909 0.0
C1582 C 0.26265 0.50219 0.78947 0.0
N1583 N 0.27255 0.49516 0.78596 0.0
C1584 C 0.29705 0.52146 0.7962 0.0
C1585 C 0.28703 0.52869 0.79998 0.0
C1586 C 0.28858 0.47212 0.74138 0.0
C1587 C 0.23166 0.41829 0.69986 0.0
C1588 C 0.26588 0.43214 0.70724 0.0
C1589 C 0.25925 0.42758 0.68268 0.0
C1590 C 0.24202 0.42063 0.67901 0.0
N1591 N 0.25564 0.4298 0.7276 0.0
C1592 C 0.23874 0.42297 0.72416 0.0
Co1593 Co 0.45702 0.86277 0.05626 0.0
Co1594 Co 0.49502 0.89761 0.07136 0.0
O1595 O 0.47056 0.88597 0.06785 0.0
C1596 C 0.44107 0.86357 0.1049 0.0
O1597 O 0.45616 0.87266 0.1146 0.0
C1598 C 0.48891 0.9197 0.03771 0.0
O1599 O 0.47919 0.90624 0.02424 0.0
O1600 O 0.49771 0.89097 0.0363 0.0
O1601 O 0.47434 0.86605 0.03043 0.0
H1602 H 0.55242 0.90398 0.0643 0.0
H1603 H 0.44186 0.88457 0.05878 0.0
O1604 O 0.4392 0.85874 0.08177 0.0
H1605 H 0.43724 0.86744 0.96864 0.0
H1606 H 0.40307 0.81074 0.03216 0.0
H1607 H 0.46429 0.83577 0.04258 0.0
H1608 H 0.4498 0.85723 0.00045 0.0
H1609 H 0.42049 0.84016 0.04612 0.0
O1610 O 0.49639 0.91856 0.05742 0.0
H1611 H 0.52156 0.88914 0.06036 0.0
H1612 H 0.52055 0.93179 0.0892 0.0
H1613 H 0.44736 0.80634 0.02838 0.0
H1614 H 0.42907 0.89497 0.02763 0.0
H1615 H 0.41652 0.79365 0.02309 0.0
H1616 H 0.42675 0.88644 0.98218 0.0
O1617 O 0.46781 0.85513 0.08167 0.0
H1618 H 0.47223 0.92061 0.13733 0.0
H1619 H 0.50847 0.89607 0.12246 0.0
H1620 H 0.50484 0.90359 0.16623 0.0
H1621 H 0.48663 0.91597 0.17388 0.0
H1622 H 0.47608 0.91277 0.0939 0.0
H1623 H 0.55142 0.94715 0.09327 0.0
H1624 H 0.56756 0.9332 0.08087 0.0
O1625 O 0.49416 0.8769 0.08527 0.0
C1626 C 0.48897 0.8775 0.02364 0.0
C1627 C 0.54553 0.91017 0.06987 0.0
C1628 C 0.54497 0.9344 0.0861 0.0
N1629 N 0.51926 0.90952 0.07481 0.0
C1630 C 0.52805 0.9018 0.06777 0.0
C1631 C 0.5275 0.92565 0.08372 0.0
C1632 C 0.55401 0.92657 0.07914 0.0
C1633 C 0.44074 0.88068 0.03908 0.0
N1634 N 0.44651 0.87026 0.03147 0.0
C1635 C 0.43355 0.88666 0.02151 0.0
C1636 C 0.43228 0.88189 0.996 0.0
C1637 C 0.43817 0.87124 0.98839 0.0
C1638 C 0.44531 0.86553 0.00648 0.0
C1639 C 0.4165 0.81614 0.03435 0.0
C1640 C 0.45089 0.83036 0.04017 0.0
C1641 C 0.42643 0.83278 0.04229 0.0
N1642 N 0.4434 0.8397 0.04497 0.0
C1643 C 0.44136 0.81368 0.03219 0.0
C1644 C 0.42406 0.80656 0.02925 0.0
C1645 C 0.48291 0.86168 0.08956 0.0
C1646 C 0.48024 0.91527 0.13423 0.0
C1647 C 0.50048 0.9014 0.12564 0.0
C1648 C 0.49851 0.90567 0.15046 0.0
C1649 C 0.4883 0.91264 0.15473 0.0
N1650 N 0.49254 0.90404 0.10563 0.0
C1651 C 0.48253 0.91088 0.10967 0.0
Co1652 Co 0.13738 0.59395 0.05686 0.0
Co1653 Co 0.10233 0.59695 0.07093 0.0
O1654 O 0.11406 0.58418 0.06796 0.0
C1655 C 0.13623 0.57706 0.10555 0.0
O1656 O 0.12695 0.58289 0.11507 0.0
C1657 C 0.08048 0.56857 0.03735 0.0
O1658 O 0.094 0.57228 0.02406 0.0
O1659 O 0.10917 0.60617 0.03584 0.0
O1660 O 0.13429 0.60803 0.03087 0.0
H1661 H 0.09579 0.64783 0.06263 0.0
H1662 H 0.11566 0.55697 0.05905 0.0
O1663 O 0.14124 0.58014 0.08252 0.0
H1664 H 0.13366 0.56978 0.96928 0.0
H1665 H 0.18975 0.59234 0.03404 0.0
H1666 H 0.16443 0.62831 0.04369 0.0
H1667 H 0.14347 0.59246 0.0012 0.0
H1668 H 0.16018 0.58019 0.04731 0.0
O1669 O 0.0815 0.57727 0.05689 0.0
H1670 H 0.11076 0.6319 0.05944 0.0
H1671 H 0.068 0.58825 0.08808 0.0
H1672 H 0.194 0.64096 0.03017 0.0
H1673 H 0.10566 0.53387 0.02779 0.0
H1674 H 0.20685 0.62292 0.02527 0.0
H1675 H 0.11462 0.54023 0.98253 0.0
O1676 O 0.1447 0.61229 0.08235 0.0
H1677 H 0.079 0.55139 0.13727 0.0
H1678 H 0.10348 0.6121 0.12175 0.0
H1679 H 0.09568 0.6011 0.16555 0.0
H1680 H 0.08332 0.57054 0.17352 0.0
H1681 H 0.08713 0.56294 0.0938 0.0
H1682 H 0.05252 0.60367 0.0914 0.0
H1683 H 0.06645 0.6337 0.07871 0.0
O1684 O 0.12292 0.6169 0.08496 0.0
C1685 C 0.12283 0.61106 0.02361 0.0
C1686 C 0.08961 0.63477 0.06832 0.0
C1687 C 0.06531 0.60998 0.08443 0.0
N1688 N 0.09033 0.60922 0.07383 0.0
C1689 C 0.09804 0.6257 0.06664 0.0
C1690 C 0.07413 0.6013 0.08248 0.0
C1691 C 0.07314 0.62683 0.07732 0.0
C1692 C 0.11974 0.55981 0.03943 0.0
N1693 N 0.13018 0.57603 0.03198 0.0
C1694 C 0.11398 0.54669 0.0218 0.0
C1695 C 0.119 0.55027 0.9964 0.0
C1696 C 0.12967 0.56685 0.98895 0.0
C1697 C 0.13515 0.57964 0.0071 0.0
C1698 C 0.18429 0.60032 0.03606 0.0
C1699 C 0.1699 0.62037 0.04145 0.0
C1700 C 0.16756 0.59352 0.04361 0.0
N1701 N 0.16056 0.60351 0.04607 0.0
C1702 C 0.18667 0.6276 0.03385 0.0
C1703 C 0.19387 0.61748 0.03113 0.0
C1704 C 0.13808 0.62088 0.08978 0.0
C1705 C 0.08433 0.56473 0.13403 0.0
C1706 C 0.09817 0.59879 0.12507 0.0
C1707 C 0.09373 0.59264 0.14991 0.0
C1708 C 0.08678 0.57548 0.15436 0.0
N1709 N 0.09571 0.58816 0.10522 0.0
C1710 C 0.08888 0.57133 0.10944 0.0
Co1711 Co 0.40807 0.5433 0.05748 0.0
Co1712 Co 0.40292 0.50458 0.07281 0.0
O1713 O 0.41654 0.52894 0.06969 0.0
C1714 C 0.42269 0.55938 0.10734 0.0
O1715 O 0.41261 0.54509 0.11872 0.0
C1716 C 0.43102 0.50993 0.03978 0.0
O1717 O 0.42757 0.51987 0.02633 0.0
O1718 O 0.39408 0.50239 0.03751 0.0
O1719 O 0.39372 0.52636 0.03136 0.0
H1720 H 0.35065 0.4482 0.06447 0.0
H1721 H 0.4448 0.55675 0.06102 0.0
O1722 O 0.42246 0.5607 0.08318 0.0
H1723 H 0.43394 0.56236 0.97046 0.0
H1724 H 0.41354 0.59878 0.0331 0.0
H1725 H 0.37463 0.53794 0.04254 0.0
H1726 H 0.41077 0.55071 0.00168 0.0
H1727 H 0.42388 0.58007 0.04767 0.0
O1728 O 0.42224 0.50249 0.0594 0.0
H1729 H 0.36767 0.47904 0.06094 0.0
H1730 H 0.4101 0.47808 0.09084 0.0
H1731 H 0.36378 0.55618 0.02772 0.0
H1732 H 0.46836 0.56861 0.03048 0.0
H1733 H 0.38329 0.58683 0.02292 0.0
H1734 H 0.46299 0.57142 0.98482 0.0
O1735 O 0.38906 0.53304 0.08216 0.0
H1736 H 0.44772 0.52599 0.14029 0.0
H1737 H 0.38703 0.49104 0.12337 0.0
H1738 H 0.39747 0.4941 0.16751 0.0
H1739 H 0.42803 0.51166 0.17618 0.0
H1740 H 0.43673 0.52267 0.09646 0.0
H1741 H 0.39359 0.44721 0.09451 0.0
H1742 H 0.36362 0.43208 0.08136 0.0
O1743 O 0.38343 0.50631 0.08607 0.0
C1744 C 0.38999 0.51156 0.02465 0.0
C1745 C 0.36367 0.45465 0.07037 0.0
C1746 C 0.38778 0.4541 0.08719 0.0
N1747 N 0.38979 0.48035 0.07595 0.0
C1748 C 0.37335 0.47212 0.0685 0.0
C1749 C 0.39707 0.47157 0.08504 0.0
C1750 C 0.37096 0.44562 0.07982 0.0
C1751 C 0.44239 0.55809 0.04123 0.0
N1752 N 0.42644 0.5531 0.03317 0.0
C1753 C 0.45577 0.56475 0.02401 0.0
C1754 C 0.45274 0.5663 0.99838 0.0
C1755 C 0.43644 0.56121 0.99031 0.0
C1756 C 0.42337 0.55458 0.00807 0.0
C1757 C 0.40491 0.58544 0.03507 0.0
C1758 C 0.38322 0.55126 0.04036 0.0
C1759 C 0.41069 0.57479 0.04336 0.0
N1760 N 0.39989 0.55791 0.04576 0.0
C1761 C 0.37699 0.56152 0.03202 0.0
C1762 C 0.38794 0.57873 0.02935 0.0
C1763 C 0.37993 0.51795 0.08994 0.0
C1764 C 0.43439 0.51826 0.13674 0.0
C1765 C 0.40034 0.49873 0.127 0.0
C1766 C 0.40618 0.50039 0.15203 0.0
C1767 C 0.42333 0.51024 0.15688 0.0
N1768 N 0.41128 0.50659 0.10735 0.0
C1769 C 0.4281 0.51629 0.11195 0.0
Co1770 Co 0.13779 0.54296 0.55658 0.0
Co1771 Co 0.10273 0.50517 0.5717 0.0
O1772 O 0.11452 0.52962 0.56796 0.0
C1773 C 0.1369 0.55949 0.60461 0.0
O1774 O 0.12765 0.54455 0.61472 0.0
C1775 C 0.0809 0.51135 0.53761 0.0
O1776 O 0.09443 0.52093 0.52417 0.0
O1777 O 0.10942 0.50227 0.53679 0.0
O1778 O 0.13455 0.52541 0.53121 0.0
H1779 H 0.09595 0.44756 0.56553 0.0
H1780 H 0.11616 0.55833 0.55796 0.0
O1781 O 0.14181 0.56102 0.58157 0.0
H1782 H 0.13378 0.56217 0.4682 0.0
H1783 H 0.19015 0.59652 0.53216 0.0
H1784 H 0.16473 0.53536 0.54397 0.0
H1785 H 0.14369 0.54974 0.5007 0.0
H1786 H 0.16064 0.57936 0.54583 0.0
O1787 O 0.0819 0.50391 0.55747 0.0
H1788 H 0.11099 0.47841 0.5613 0.0
H1789 H 0.06843 0.47988 0.58946 0.0
H1790 H 0.19425 0.55202 0.53007 0.0
H1791 H 0.10606 0.57098 0.52611 0.0
H1792 H 0.20714 0.58283 0.52408 0.0
H1793 H 0.11483 0.57291 0.48084 0.0
O1794 O 0.14517 0.53225 0.58256 0.0
H1795 H 0.07979 0.52847 0.63695 0.0
H1796 H 0.10401 0.49185 0.62305 0.0
H1797 H 0.09641 0.49572 0.66664 0.0
H1798 H 0.08418 0.51411 0.6738 0.0
H1799 H 0.08771 0.52439 0.5937 0.0
H1800 H 0.05287 0.44903 0.59381 0.0
H1801 H 0.06667 0.43267 0.5819 0.0
O1802 O 0.12332 0.50593 0.58592 0.0
C1803 C 0.12303 0.51084 0.52436 0.0
C1804 C 0.08982 0.45455 0.57089 0.0
C1805 C 0.06564 0.45537 0.58673 0.0
N1806 N 0.09066 0.48094 0.57539 0.0
C1807 C 0.0983 0.47203 0.56862 0.0
C1808 C 0.0745 0.47283 0.58419 0.0
C1809 C 0.07339 0.4462 0.58005 0.0
C1810 C 0.12016 0.55927 0.53835 0.0
N1811 N 0.13055 0.55336 0.53122 0.0
C1812 C 0.11435 0.56639 0.52038 0.0
C1813 C 0.11925 0.56744 0.49497 0.0
C1814 C 0.12987 0.5614 0.48786 0.0
C1815 C 0.13541 0.55434 0.50634 0.0
C1816 C 0.18467 0.5831 0.53466 0.0
C1817 C 0.17023 0.54875 0.54126 0.0
C1818 C 0.16797 0.57332 0.54244 0.0
N1819 N 0.16094 0.55636 0.5455 0.0
C1820 C 0.18696 0.55812 0.53345 0.0
C1821 C 0.19419 0.57541 0.53012 0.0
C1822 C 0.13852 0.51714 0.59046 0.0
C1823 C 0.08506 0.52038 0.63406 0.0
C1824 C 0.09875 0.49993 0.62602 0.0
C1825 C 0.09443 0.50203 0.65074 0.0
C1826 C 0.08755 0.51234 0.65474 0.0
N1827 N 0.09625 0.50784 0.60584 0.0
C1828 C 0.0895 0.51796 0.6096 0.0
Co1829 Co 0.45789 0.595 0.55594 0.0
Co1830 Co 0.49566 0.59753 0.57046 0.0
O1831 O 0.47118 0.58495 0.56704 0.0
C1832 C 0.44166 0.57769 0.60414 0.0
O1833 O 0.45669 0.58347 0.61393 0.0
C1834 C 0.48917 0.56933 0.53654 0.0
O1835 O 0.47956 0.57326 0.52315 0.0
O1836 O 0.49836 0.60696 0.53548 0.0
O1837 O 0.47537 0.60926 0.53039 0.0
H1838 H 0.55334 0.64815 0.56332 0.0
H1839 H 0.44231 0.55797 0.55726 0.0
O1840 O 0.43993 0.581 0.58114 0.0
H1841 H 0.4382 0.57186 0.46766 0.0
H1842 H 0.40435 0.59408 0.53241 0.0
H1843 H 0.46559 0.62958 0.54347 0.0
H1844 H 0.45091 0.59417 0.50015 0.0
H1845 H 0.42146 0.5816 0.54568 0.0
O1846 O 0.49672 0.57784 0.55629 0.0
H1847 H 0.52247 0.63245 0.55957 0.0
H1848 H 0.52093 0.58844 0.58793 0.0
H1849 H 0.44898 0.64257 0.52996 0.0
H1850 H 0.42937 0.53523 0.52541 0.0
H1851 H 0.41812 0.62477 0.52435 0.0
H1852 H 0.42731 0.54213 0.48023 0.0
O1853 O 0.46879 0.61307 0.58188 0.0
H1854 H 0.47256 0.55157 0.63617 0.0
H1855 H 0.50934 0.61231 0.62158 0.0
H1856 H 0.50568 0.60103 0.66526 0.0
H1857 H 0.48721 0.57045 0.67276 0.0
H1858 H 0.47644 0.5634 0.59283 0.0
H1859 H 0.55181 0.60362 0.59181 0.0
H1860 H 0.56822 0.63371 0.57955 0.0
O1861 O 0.49511 0.6175 0.58462 0.0
C1862 C 0.48983 0.61212 0.52325 0.0
C1863 C 0.54633 0.63506 0.56883 0.0
C1864 C 0.54547 0.61006 0.58478 0.0
N1865 N 0.51991 0.60961 0.57378 0.0
C1866 C 0.52884 0.62612 0.56683 0.0
C1867 C 0.528 0.60153 0.58251 0.0
C1868 C 0.55467 0.62695 0.57791 0.0
C1869 C 0.44131 0.56105 0.53768 0.0
N1870 N 0.44729 0.57737 0.5306 0.0
C1871 C 0.43403 0.54813 0.51971 0.0
C1872 C 0.4329 0.55201 0.49436 0.0
C1873 C 0.43902 0.56869 0.48729 0.0
C1874 C 0.44624 0.58128 0.50576 0.0
C1875 C 0.41778 0.60196 0.53474 0.0
C1876 C 0.45218 0.62174 0.54092 0.0
C1877 C 0.42753 0.59497 0.5423 0.0
N1878 N 0.44452 0.60484 0.54515 0.0
C1879 C 0.44284 0.62917 0.53333 0.0
C1880 C 0.42552 0.61918 0.53021 0.0
C1881 C 0.48397 0.62153 0.58947 0.0
C1882 C 0.48069 0.56491 0.63313 0.0
C1883 C 0.50122 0.599 0.6247 0.0
C1884 C 0.49924 0.59268 0.64947 0.0
C1885 C 0.48888 0.57552 0.65366 0.0
N1886 N 0.49315 0.58851 0.60466 0.0
C1887 C 0.48299 0.57167 0.60862 0.0
Co1888 Co 0.4063 0.86323 0.55631 0.0
Co1889 Co 0.40372 0.89844 0.57056 0.0
O1890 O 0.4164 0.88667 0.56691 0.0
C1891 C 0.4244 0.86481 0.60383 0.0
O1892 O 0.41865 0.87402 0.61384 0.0
C1893 C 0.43163 0.92023 0.53615 0.0
O1894 O 0.4277 0.9067 0.52273 0.0
O1895 O 0.394 0.89148 0.53577 0.0
O1896 O 0.39144 0.86602 0.53142 0.0
H1897 H 0.35281 0.90507 0.56429 0.0
H1898 H 0.44332 0.88484 0.556 0.0
O1899 O 0.42084 0.85965 0.58092 0.0
H1900 H 0.4278 0.86597 0.46704 0.0
H1901 H 0.40722 0.81059 0.53282 0.0
H1902 H 0.37157 0.83602 0.5455 0.0
H1903 H 0.40609 0.85659 0.50051 0.0
H1904 H 0.41975 0.84031 0.54547 0.0
O1905 O 0.42322 0.91922 0.55604 0.0
H1906 H 0.36865 0.89006 0.56027 0.0
H1907 H 0.41271 0.93282 0.58787 0.0
H1908 H 0.35852 0.8063 0.53264 0.0
H1909 H 0.46546 0.89442 0.52316 0.0
H1910 H 0.37639 0.7934 0.52621 0.0
H1911 H 0.45773 0.88501 0.4783 0.0
O1912 O 0.3887 0.85622 0.583 0.0
H1913 H 0.4502 0.92188 0.6354 0.0
H1914 H 0.3893 0.89746 0.62195 0.0
H1915 H 0.40091 0.90535 0.66541 0.0
H1916 H 0.43157 0.91768 0.67234 0.0
H1917 H 0.43804 0.91365 0.59229 0.0
H1918 H 0.39738 0.94835 0.59201 0.0
H1919 H 0.36719 0.93444 0.58027 0.0
O1920 O 0.38392 0.87791 0.58511 0.0
C1921 C 0.38849 0.87753 0.52412 0.0
C1922 C 0.36594 0.91125 0.56957 0.0
C1923 C 0.39096 0.93554 0.58509 0.0
N1924 N 0.39153 0.91049 0.57409 0.0
C1925 C 0.37496 0.90279 0.56742 0.0
C1926 C 0.39958 0.9267 0.58268 0.0
C1927 C 0.37402 0.92773 0.57851 0.0
C1928 C 0.43989 0.88057 0.53656 0.0
N1929 N 0.42345 0.87011 0.5302 0.0
C1930 C 0.45247 0.88609 0.51803 0.0
C1931 C 0.44812 0.88082 0.49286 0.0
C1932 C 0.43132 0.87015 0.48652 0.0
C1933 C 0.41908 0.86491 0.50555 0.0
C1934 C 0.3993 0.81608 0.53551 0.0
C1935 C 0.37943 0.83052 0.54259 0.0
C1936 C 0.40632 0.83289 0.54271 0.0
N1937 N 0.39641 0.83992 0.54601 0.0
C1938 C 0.37197 0.81368 0.53537 0.0
C1939 C 0.38201 0.80644 0.5318 0.0
C1940 C 0.38012 0.86285 0.5904 0.0
C1941 C 0.43682 0.91656 0.63262 0.0
C1942 C 0.40265 0.90276 0.62482 0.0
C1943 C 0.40916 0.90725 0.64947 0.0
C1944 C 0.42636 0.91418 0.65334 0.0
N1945 N 0.41299 0.90515 0.60459 0.0
C1946 C 0.42988 0.91196 0.60823 0.0
Co1947 Co 0.21052 0.47158 0.27606 0.0
Co1948 Co 0.17293 0.4364 0.26073 0.0
O1949 O 0.19737 0.44828 0.26477 0.0
C1950 C 0.22734 0.47081 0.22836 0.0
O1951 O 0.21242 0.46166 0.21814 0.0
C1952 C 0.17891 0.41439 0.29482 0.0
O1953 O 0.18832 0.42781 0.30857 0.0
O1954 O 0.16984 0.44295 0.29564 0.0
O1955 O 0.1927 0.46833 0.30092 0.0
H1956 H 0.11518 0.42929 0.26646 0.0
H1957 H 0.22615 0.45017 0.27555 0.0
O1958 O 0.2288 0.47562 0.25146 0.0
H1959 H 0.22891 0.46778 0.36511 0.0
H1960 H 0.26377 0.52409 0.30104 0.0
H1961 H 0.20271 0.49848 0.28784 0.0
H1962 H 0.21665 0.47749 0.33203 0.0
H1963 H 0.2468 0.49454 0.28745 0.0
O1964 O 0.17168 0.41555 0.27482 0.0
H1965 H 0.146 0.44443 0.27106 0.0
H1966 H 0.14785 0.40216 0.24249 0.0
H1967 H 0.21917 0.52803 0.30165 0.0
H1968 H 0.23864 0.44026 0.30799 0.0
H1969 H 0.24993 0.54102 0.30834 0.0
H1970 H 0.24003 0.44904 0.35315 0.0
O1971 O 0.19996 0.47885 0.24968 0.0
H1972 H 0.19676 0.41394 0.19559 0.0
H1973 H 0.15985 0.43783 0.20927 0.0
H1974 H 0.164 0.43048 0.16567 0.0
H1975 H 0.18255 0.41842 0.15863 0.0
H1976 H 0.19239 0.42162 0.23884 0.0
H1977 H 0.11702 0.38651 0.23778 0.0
H1978 H 0.10048 0.40011 0.24971 0.0
O1979 O 0.17363 0.457 0.24665 0.0
C1980 C 0.17818 0.45672 0.30778 0.0
C1981 C 0.12225 0.42326 0.26109 0.0
C1982 C 0.12328 0.39923 0.24503 0.0
N1983 N 0.14872 0.42426 0.25678 0.0
C1984 C 0.13971 0.43179 0.26357 0.0
C1985 C 0.14073 0.40815 0.24777 0.0
C1986 C 0.11401 0.40688 0.25172 0.0
C1987 C 0.22686 0.45417 0.29512 0.0
N1988 N 0.22076 0.46446 0.30186 0.0
C1989 C 0.23389 0.44847 0.31342 0.0
C1990 C 0.23464 0.45338 0.33877 0.0
C1991 C 0.22839 0.46388 0.34549 0.0
C1992 C 0.22143 0.46931 0.32669 0.0
C1993 C 0.25037 0.51856 0.29824 0.0
C1994 C 0.21608 0.50402 0.29086 0.0
C1995 C 0.2407 0.50184 0.2905 0.0
N1996 N 0.22376 0.49476 0.28706 0.0
C1997 C 0.22534 0.52077 0.29861 0.0
C1998 C 0.2426 0.52805 0.30234 0.0
C1999 C 0.18481 0.47219 0.24197 0.0
C2000 C 0.18861 0.41914 0.19843 0.0
C2001 C 0.16799 0.43265 0.20635 0.0
C2002 C 0.17026 0.42847 0.18163 0.0
C2003 C 0.18065 0.42168 0.17769 0.0
N2004 N 0.17582 0.4301 0.22659 0.0
C2005 C 0.18602 0.42344 0.22288 0.0
Co2006 Co 0.52983 0.74029 0.27762 0.0
Co2007 Co 0.56417 0.73694 0.25904 0.0
O2008 O 0.55277 0.74978 0.26491 0.0
C2009 C 0.52997 0.75664 0.22898 0.0
O2010 O 0.53898 0.75058 0.21918 0.0
C2011 C 0.58616 0.76346 0.29533 0.0
O2012 O 0.57261 0.75957 0.30867 0.0
O2013 O 0.55695 0.72562 0.29297 0.0
O2014 O 0.53368 0.72654 0.30305 0.0
H2015 H 0.56926 0.68503 0.25742 0.0
H2016 H 0.55165 0.77723 0.27383 0.0
O2017 O 0.52532 0.75381 0.2522 0.0
H2018 H 0.53685 0.76583 0.36491 0.0
H2019 H 0.47858 0.74291 0.30425 0.0
H2020 H 0.50309 0.70632 0.29335 0.0
H2021 H 0.52578 0.74267 0.33368 0.0
H2022 H 0.50761 0.75452 0.28865 0.0
O2023 O 0.58508 0.75547 0.2749 0.0
H2024 H 0.55481 0.7012 0.26443 0.0
H2025 H 0.59854 0.74605 0.24145 0.0
H2026 H 0.47406 0.69421 0.3092 0.0
H2027 H 0.56292 0.80078 0.30438 0.0
H2028 H 0.46162 0.71256 0.31473 0.0
H2029 H 0.55556 0.79514 0.3503 0.0
O2030 O 0.52137 0.72136 0.2529 0.0
H2031 H 0.58813 0.7863 0.19932 0.0
H2032 H 0.56382 0.72498 0.20603 0.0
H2033 H 0.57199 0.73855 0.1638 0.0
H2034 H 0.58426 0.76944 0.16026 0.0
H2035 H 0.57962 0.77218 0.24112 0.0
H2036 H 0.61351 0.73039 0.23438 0.0
H2037 H 0.59882 0.69964 0.24229 0.0
O2038 O 0.54351 0.71826 0.24302 0.0
C2039 C 0.54438 0.72189 0.3074 0.0
C2040 C 0.57577 0.69841 0.25383 0.0
C2041 C 0.60062 0.72388 0.24094 0.0
N2042 N 0.57579 0.72452 0.25317 0.0
C2043 C 0.56764 0.70763 0.25769 0.0
C2044 C 0.59209 0.73268 0.24502 0.0
C2045 C 0.59237 0.70662 0.24537 0.0
C2046 C 0.54826 0.7747 0.29374 0.0
N2047 N 0.53799 0.75862 0.30193 0.0
C2048 C 0.55473 0.78808 0.31097 0.0
C2049 C 0.55062 0.78489 0.33674 0.0
C2050 C 0.54013 0.76845 0.34495 0.0
C2051 C 0.53392 0.75539 0.32718 0.0
C2052 C 0.48387 0.73479 0.30195 0.0
C2053 C 0.4978 0.7144 0.29583 0.0
C2054 C 0.50028 0.74129 0.29307 0.0
N2055 N 0.50707 0.73112 0.29022 0.0
C2056 C 0.48134 0.70746 0.30476 0.0
C2057 C 0.47436 0.71776 0.30784 0.0
C2058 C 0.52793 0.7137 0.24169 0.0
C2059 C 0.58282 0.77284 0.20061 0.0
C2060 C 0.56905 0.7384 0.20462 0.0
C2061 C 0.57372 0.74603 0.18067 0.0
C2062 C 0.58062 0.76336 0.1787 0.0
N2063 N 0.57122 0.74777 0.22601 0.0
C2064 C 0.57804 0.76478 0.22424 0.0
Co2065 Co 0.26116 0.79009 0.27557 0.0
Co2066 Co 0.26429 0.82805 0.26042 0.0
O2067 O 0.25144 0.8036 0.26408 0.0
C2068 C 0.24381 0.77375 0.2274 0.0
O2069 O 0.24969 0.78873 0.21736 0.0
C2070 C 0.23621 0.82208 0.29422 0.0
O2071 O 0.24001 0.81242 0.30775 0.0
O2072 O 0.27369 0.83081 0.29544 0.0
O2073 O 0.27547 0.80756 0.30107 0.0
H2074 H 0.31538 0.88544 0.2671 0.0
H2075 H 0.22419 0.77501 0.27384 0.0
O2076 O 0.2471 0.77212 0.25045 0.0
H2077 H 0.23749 0.7709 0.36375 0.0
H2078 H 0.25932 0.73624 0.30005 0.0
H2079 H 0.29553 0.79736 0.28855 0.0
H2080 H 0.25997 0.7832 0.33145 0.0
H2081 H 0.24725 0.75362 0.28621 0.0
O2082 O 0.24475 0.82947 0.27441 0.0
H2083 H 0.29933 0.8546 0.27125 0.0
H2084 H 0.25565 0.85356 0.24245 0.0
H2085 H 0.3081 0.78047 0.30262 0.0
H2086 H 0.20129 0.76247 0.30549 0.0
H2087 H 0.28994 0.74967 0.30845 0.0
H2088 H 0.2079 0.76041 0.35083 0.0
O2089 O 0.27938 0.80072 0.24978 0.0
H2090 H 0.21836 0.80519 0.19468 0.0
H2091 H 0.27919 0.84134 0.20922 0.0
H2092 H 0.26796 0.83763 0.16549 0.0
H2093 H 0.23734 0.81947 0.15802 0.0
H2094 H 0.23014 0.80911 0.23806 0.0
H2095 H 0.27119 0.88441 0.23817 0.0
H2096 H 0.30129 0.90056 0.25044 0.0
O2097 O 0.28409 0.82712 0.24649 0.0
C2098 C 0.27859 0.82215 0.30792 0.0
C2099 C 0.30228 0.87855 0.26158 0.0
C2100 C 0.27748 0.87797 0.24538 0.0
N2101 N 0.27663 0.85228 0.25683 0.0
C2102 C 0.29315 0.86107 0.2638 0.0
C2103 C 0.26874 0.86051 0.24787 0.0
C2104 C 0.29437 0.88702 0.25226 0.0
C2105 C 0.22713 0.774 0.29349 0.0
N2106 N 0.24338 0.77977 0.30076 0.0
C2107 C 0.21413 0.76695 0.31134 0.0
C2108 C 0.21785 0.76582 0.33679 0.0
C2109 C 0.23445 0.77172 0.34405 0.0
C2110 C 0.24713 0.77871 0.32568 0.0
C2111 C 0.26735 0.74965 0.29762 0.0
C2112 C 0.28754 0.78398 0.29119 0.0
C2113 C 0.2606 0.75955 0.28974 0.0
N2114 N 0.27067 0.77651 0.28676 0.0
C2115 C 0.29473 0.77448 0.29909 0.0
C2116 C 0.28454 0.7572 0.30234 0.0
C2117 C 0.288 0.81585 0.24202 0.0
C2118 C 0.23172 0.81318 0.1977 0.0
C2119 C 0.26586 0.83336 0.20611 0.0
C2120 C 0.25957 0.83135 0.18132 0.0
C2121 C 0.24238 0.82117 0.17714 0.0
N2122 N 0.25532 0.8255 0.22618 0.0
C2123 C 0.23845 0.81551 0.22224 0.0
C2124 C 0.17948 0.07719 0.05182 0.0
C2125 C 0.19407 0.09226 0.04537 0.0
C2126 C 0.17483 0.06253 0.03801 0.0
C2127 C 0.19116 0.04072 0.00165 0.0
H2128 H 0.14684 0.01615 0.9713 0.0
C2129 C 0.17196 0.98244 0.93862 0.0
C2130 C 0.1551 0.96949 0.93871 0.0
C2131 C 0.1768 0.99755 0.95128 0.0
C2132 C 0.15916 0.02263 0.98001 0.0
H2133 H 0.21536 0.1038 0.01963 0.0
H2134 H 0.20744 0.07785 0.9959 0.0
H2135 H 0.15517 0.04228 0.99404 0.0
H2136 H 0.13017 0.96206 0.95271 0.0
H2137 H 0.13871 0.98806 0.97591 0.0
H2138 H 0.19502 0.02086 0.98885 0.0
C2139 C 0.19955 0.07756 0.01147 0.0
C2140 C 0.16395 0.03769 0.99283 0.0
C2141 C 0.20402 0.09236 0.02494 0.0
C2142 C 0.14324 0.97186 0.95215 0.0
C2143 C 0.14814 0.98686 0.96527 0.0
C2144 C 0.18626 0.02548 0.9893 0.0
C2145 C 0.18486 0.06256 0.01783 0.0
C2146 C 0.17999 0.04687 0.00369 0.0
C2147 C 0.16498 1.0 0.96483 0.0
C2148 C 0.17018 0.01621 0.97823 0.0
H2149 H 0.17152 0.07675 0.06741 0.0
H2150 H 0.1635 0.05108 0.04334 0.0
H2151 H 0.20353 0.0475 0.01017 0.0
H2152 H 0.18139 0.98108 0.92822 0.0
H2153 H 0.1898 0.00741 0.94996 0.0
C2154 C 0.92444 0.10101 0.052 0.0
C2155 C 0.90929 0.10038 0.04574 0.0
C2156 C 0.93903 0.11112 0.03811 0.0
C2157 C 0.95457 0.13585 0.97769 0.0
H2158 H 0.99716 0.15584 0.01356 0.0
C2159 C 0.01779 0.189 0.93713 0.0
C2160 C 0.03091 0.18532 0.93698 0.0
C2161 C 0.00279 0.17857 0.95 0.0
C2162 C 0.98534 0.15027 0.00333 0.0
H2163 H 0.89749 0.10985 0.02011 0.0
H2164 H 0.92315 0.12819 0.99652 0.0
H2165 H 0.97123 0.1382 0.03677 0.0
H2166 H 0.03871 0.16799 0.9506 0.0
H2167 H 0.01263 0.15007 0.97387 0.0
H2168 H 0.96893 0.14868 0.94447 0.0
C2169 C 0.92371 0.12046 0.01162 0.0
C2170 C 0.97045 0.14004 0.01653 0.0
C2171 C 0.90899 0.11002 0.02522 0.0
C2172 C 0.02881 0.17113 0.95031 0.0
C2173 C 0.01395 0.16091 0.96366 0.0
C2174 C 0.96947 0.14639 0.96463 0.0
C2175 C 0.93898 0.12121 0.01795 0.0
C2176 C 0.95483 0.13252 0.00387 0.0
C2177 C 0.00078 0.16448 0.96344 0.0
C2178 C 0.98498 0.15356 0.9773 0.0
H2179 H 0.925 0.09354 0.06755 0.0
H2180 H 0.95033 0.11091 0.04319 0.0
H2181 H 0.94291 0.13012 0.9671 0.0
H2182 H 0.01898 0.19978 0.92693 0.0
H2183 H 0.99282 0.1816 0.94969 0.0
C2184 C 0.83043 0.85836 0.9509 0.0
C2185 C 0.81618 0.84625 0.93771 0.0
C2186 C 0.84065 0.85372 0.96423 0.0
C2187 C 0.85504 0.82368 0.9652 0.0
H2188 H 0.86329 0.83359 0.03734 0.0
C2189 C 0.89096 0.79907 0.02571 0.0
C2190 C 0.90066 0.80896 0.04624 0.0
C2191 C 0.88063 0.8035 0.01213 0.0
C2192 C 0.86144 0.83098 0.0171 0.0
H2193 H 0.80161 0.81982 0.92786 0.0
H2194 H 0.81981 0.81185 0.95057 0.0
H2195 H 0.84575 0.84202 0.01417 0.0
H2196 H 0.90771 0.83155 0.06807 0.0
H2197 H 0.89053 0.83976 0.04372 0.0
H2198 H 0.87118 0.81323 0.96762 0.0
C2199 C 0.82288 0.82487 0.95079 0.0
C2200 C 0.85127 0.83573 0.00392 0.0
C2201 C 0.81245 0.82943 0.93796 0.0
C2202 C 0.9002 0.82357 0.05251 0.0
C2203 C 0.8902 0.82819 0.03864 0.0
C2204 C 0.86552 0.81923 0.97823 0.0
C2205 C 0.83703 0.83696 0.9641 0.0
C2206 C 0.84795 0.83207 0.97791 0.0
C2207 C 0.88005 0.81811 0.01847 0.0
C2208 C 0.86886 0.82279 0.00441 0.0
H2209 H 0.8336 0.87141 0.9511 0.0
H2210 H 0.85154 0.86325 0.97433 0.0
H2211 H 0.85272 0.82083 0.94505 0.0
H2212 H 0.89101 0.78768 0.0206 0.0
H2213 H 0.87286 0.79525 0.99703 0.0
C2214 C 0.97155 0.14263 0.54564 0.0
C2215 C 0.96929 0.15451 0.5593 0.0
C2216 C 0.98641 0.14757 0.53209 0.0
C2217 C 0.03073 0.17811 0.53153 0.0
H2218 H 0.02954 0.16845 0.45936 0.0
C2219 C 0.09171 0.20333 0.47214 0.0
C2220 C 0.09185 0.19339 0.45193 0.0
C2221 C 0.07677 0.19888 0.48518 0.0
C2222 C 0.03016 0.171 0.4796 0.0
H2223 H 0.98091 0.18086 0.56961 0.0
H2224 H 0.00702 0.18932 0.5465 0.0
H2225 H 0.00337 0.1596 0.4823 0.0
H2226 H 0.07663 0.17077 0.42997 0.0
H2227 H 0.05089 0.16258 0.45334 0.0
H2228 H 0.05736 0.1889 0.52936 0.0
C2229 C 0.99719 0.17626 0.54609 0.0
C2230 C 0.01513 0.16601 0.49265 0.0
C2231 C 0.98221 0.17141 0.55917 0.0
C2232 C 0.07686 0.1788 0.44529 0.0
C2233 C 0.06204 0.17417 0.45861 0.0
C2234 C 0.04576 0.18281 0.51863 0.0
C2235 C 0.9994 0.16439 0.53243 0.0
C2236 C 0.0153 0.16956 0.51869 0.0
C2237 C 0.0617 0.18422 0.47861 0.0
C2238 C 0.0457 0.17935 0.49244 0.0
H2239 H 0.96181 0.12953 0.54535 0.0
H2240 H 0.98788 0.13819 0.52171 0.0
H2241 H 0.03113 0.18086 0.5517 0.0
H2242 H 0.10308 0.21471 0.47755 0.0
H2243 H 0.07702 0.20712 0.50014 0.0
C2244 C 0.79707 0.88854 0.47276 0.0
C2245 C 0.80696 0.89837 0.45233 0.0
C2246 C 0.80143 0.87805 0.486 0.0
C2247 C 0.82882 0.85878 0.48033 0.0
H2248 H 0.81938 0.8503 0.55259 0.0
C2249 C 0.85744 0.8287 0.54594 0.0
C2250 C 0.84565 0.81464 0.55986 0.0
C2251 C 0.85242 0.83859 0.5325 0.0
C2252 C 0.82201 0.85254 0.53238 0.0
H2253 H 0.82947 0.90544 0.43027 0.0
H2254 H 0.83755 0.88794 0.45399 0.0
H2255 H 0.81142 0.86856 0.53024 0.0
H2256 H 0.81941 0.80004 0.57079 0.0
H2257 H 0.81081 0.81765 0.54784 0.0
H2258 H 0.84003 0.84323 0.48296 0.0
C2259 C 0.82603 0.88764 0.45927 0.0
C2260 C 0.81736 0.86291 0.51948 0.0
C2261 C 0.82148 0.89782 0.44575 0.0
C2262 C 0.82878 0.81073 0.56013 0.0
C2263 C 0.82385 0.82083 0.54715 0.0
C2264 C 0.83377 0.84871 0.49337 0.0
C2265 C 0.81598 0.87742 0.4794 0.0
C2266 C 0.82071 0.86619 0.49324 0.0
C2267 C 0.83562 0.83482 0.53321 0.0
C2268 C 0.83039 0.8455 0.51947 0.0
H2269 H 0.78574 0.88866 0.47812 0.0
H2270 H 0.79321 0.87021 0.5011 0.0
H2271 H 0.83126 0.86059 0.46004 0.0
H2272 H 0.87051 0.83201 0.54535 0.0
H2273 H 0.86172 0.84936 0.5219 0.0
C2274 C 0.10205 0.92362 0.44661 0.0
C2275 C 0.10134 0.90842 0.45294 0.0
C2276 C 0.11199 0.93813 0.46078 0.0
C2277 C 0.14983 0.95932 0.49781 0.0
H2278 H 0.13043 0.98428 0.52795 0.0
C2279 C 0.18923 0.01738 0.56107 0.0
C2280 C 0.18554 0.03048 0.56089 0.0
C2281 C 0.17885 0.0023 0.54841 0.0
C2282 C 0.13616 0.97768 0.5193 0.0
H2283 H 0.11056 0.89649 0.47886 0.0
H2284 H 0.12846 0.92218 0.50324 0.0
H2285 H 0.11249 0.95828 0.50497 0.0
H2286 H 0.16831 0.03821 0.54674 0.0
H2287 H 0.15066 0.01228 0.52353 0.0
H2288 H 0.17359 0.97894 0.51088 0.0
C2289 C 0.12109 0.92268 0.4875 0.0
C2290 C 0.12582 0.9627 0.50635 0.0
C2291 C 0.11083 0.90803 0.47366 0.0
C2292 C 0.1714 0.02829 0.54738 0.0
C2293 C 0.1612 0.01333 0.53425 0.0
C2294 C 0.16025 0.97449 0.51029 0.0
C2295 C 0.12169 0.93782 0.4812 0.0
C2296 C 0.13256 0.95339 0.49556 0.0
C2297 C 0.16468 1.00004 0.53476 0.0
C2298 C 0.15357 0.98389 0.52128 0.0
H2299 H 0.09482 0.92427 0.43079 0.0
H2300 H 0.11233 0.94969 0.4555 0.0
H2301 H 0.15532 0.95243 0.48934 0.0
H2302 H 0.19994 0.0186 0.57154 0.0
H2303 H 0.18181 0.99233 0.54979 0.0
C2304 C 0.83008 0.0171 0.06262 0.0
C2305 C 0.84687 0.03025 0.06211 0.0
C2306 C 0.82532 0.00205 0.04983 0.0
C2307 C 0.83517 0.98444 0.99574 0.0
H2308 H 0.81367 0.94212 0.03237 0.0
C2309 C 0.82285 0.92347 0.94672 0.0
C2310 C 0.80844 0.90833 0.95337 0.0
C2311 C 0.82751 0.93809 0.96061 0.0
C2312 C 0.81937 0.95376 0.02169 0.0
H2313 H 0.87177 0.03802 0.04749 0.0
H2314 H 0.86325 0.01181 0.02434 0.0
H2315 H 0.82156 0.96822 0.0551 0.0
H2316 H 0.78756 0.89655 0.97973 0.0
H2317 H 0.79522 0.92227 0.00341 0.0
H2318 H 0.83245 0.97021 0.96215 0.0
C2319 C 0.8539 0.01317 0.03499 0.0
C2320 C 0.82399 0.9687 0.0348 0.0
C2321 C 0.85876 0.0281 0.04827 0.0
C2322 C 0.7988 0.90806 0.97431 0.0
C2323 C 0.80327 0.92281 0.98794 0.0
C2324 C 0.83025 0.96951 0.98251 0.0
C2325 C 0.83717 0.99999 0.03583 0.0
C2326 C 0.83205 0.98416 0.02196 0.0
C2327 C 0.81768 0.93807 0.98121 0.0
C2328 C 0.82244 0.95394 0.99532 0.0
H2329 H 0.82065 0.01834 0.07323 0.0
H2330 H 0.81233 0.99207 0.05061 0.0
H2331 H 0.84118 0.99622 0.9854 0.0
H2332 H 0.83065 0.92401 0.93085 0.0
H2333 H 0.83893 0.94939 0.95521 0.0
C2334 C 0.98334 0.81215 0.06209 0.0
C2335 C 0.97035 0.81602 0.06201 0.0
C2336 C 0.99837 0.82236 0.04917 0.0
C2337 C 0.01605 0.85012 0.9954 0.0
H2338 H 0.05846 0.87026 0.0317 0.0
C2339 C 0.07718 0.89869 0.94649 0.0
C2340 C 0.09226 0.89926 0.95298 0.0
C2341 C 0.06253 0.88869 0.96031 0.0
C2342 C 0.0468 0.86452 0.0211 0.0
H2343 H 0.96282 0.83346 0.04798 0.0
H2344 H 0.98896 0.85101 0.02461 0.0
H2345 H 0.03237 0.85213 0.05448 0.0
H2346 H 0.10389 0.88978 0.97895 0.0
H2347 H 0.07812 0.87165 0.00246 0.0
H2348 H 0.03023 0.86174 0.96181 0.0
C2349 C 0.98751 0.84018 0.03503 0.0
C2350 C 0.03186 0.85424 0.03424 0.0
C2351 C 0.97261 0.83018 0.04843 0.0
C2352 C 0.09244 0.88964 0.97365 0.0
C2353 C 0.07765 0.87933 0.9872 0.0
C2354 C 0.03098 0.86009 0.98212 0.0
C2355 C 1.00055 0.83642 0.03546 0.0
C2356 C 0.01637 0.84708 0.02153 0.0
C2357 C 0.06246 0.87868 0.98067 0.0
C2358 C 0.04658 0.8676 0.99481 0.0
H2359 H 0.98202 0.80137 0.07249 0.0
H2360 H 0.00823 0.81918 0.04964 0.0
H2361 H 0.00424 0.84454 0.98515 0.0
H2362 H 0.07671 0.90614 0.93083 0.0
H2363 H 0.05128 0.88897 0.95507 0.0
C2364 C 0.11044 0.20336 0.97361 0.0
C2365 C 0.10101 0.19348 0.95286 0.0
C2366 C 0.12089 0.19912 0.98728 0.0
C2367 C 0.12642 0.16405 0.00505 0.0
H2368 H 0.17406 0.19616 0.00943 0.0
C2369 C 0.17279 0.1443 0.04276 0.0
C2370 C 0.18674 0.15601 0.05689 0.0
C2371 C 0.16254 0.14918 0.03011 0.0
C2372 C 0.16076 0.18711 0.00885 0.0
H2373 H 0.09471 0.17122 0.93053 0.0
H2374 H 0.11253 0.16358 0.95492 0.0
H2375 H 0.15531 0.20424 0.98898 0.0
H2376 H 0.20084 0.18205 0.06887 0.0
H2377 H 0.18265 0.19042 0.04781 0.0
H2378 H 0.13154 0.14704 0.02549 0.0
C2379 C 0.11201 0.17469 0.96037 0.0
C2380 C 0.15006 0.19176 0.99703 0.0
C2381 C 0.1019 0.17911 0.94638 0.0
C2382 C 0.19029 0.17275 0.05793 0.0
C2383 C 0.17986 0.17756 0.0457 0.0
C2384 C 0.13703 0.15949 0.0173 0.0
C2385 C 0.12171 0.18472 0.98077 0.0
C2386 C 0.13284 0.18021 0.9948 0.0
C2387 C 0.16577 0.16584 0.03171 0.0
C2388 C 0.1544 0.17088 0.01913 0.0
H2389 H 0.11003 0.21454 0.97891 0.0
H2390 H 0.12824 0.20701 0.00302 0.0
H2391 H 0.11313 0.15497 0.00369 0.0
H2392 H 0.1698 0.13133 0.04145 0.0
H2393 H 0.1521 0.13985 0.01904 0.0
C2394 C 0.92409 0.82231 0.55328 0.0
C2395 C 0.90907 0.80767 0.54695 0.0
C2396 C 0.93882 0.82687 0.53972 0.0
C2397 C 0.95487 0.81779 0.47982 0.0
H2398 H 0.9973 0.84099 0.51604 0.0
C2399 C 0.01841 0.82886 0.43954 0.0
C2400 C 0.03136 0.84574 0.43935 0.0
C2401 C 0.00341 0.82407 0.45251 0.0
C2402 C 0.98553 0.83458 0.50572 0.0
H2403 H 0.89764 0.78624 0.52157 0.0
H2404 H 0.92354 0.79371 0.49855 0.0
H2405 H 0.97119 0.83237 0.53898 0.0
H2406 H 0.03884 0.87078 0.45306 0.0
H2407 H 0.01274 0.86223 0.4765 0.0
H2408 H 0.96944 0.8195 0.44679 0.0
C2409 C 0.9239 0.80203 0.51346 0.0
C2410 C 0.97053 0.82972 0.51876 0.0
C2411 C 0.90904 0.79766 0.52672 0.0
C2412 C 0.02909 0.85769 0.45282 0.0
C2413 C 0.01421 0.85282 0.46626 0.0
C2414 C 0.96987 0.82235 0.46692 0.0
C2415 C 0.93902 0.8167 0.51982 0.0
C2416 C 0.95497 0.8214 0.50596 0.0
C2417 C 0.0012 0.836 0.466 0.0
C2418 C 0.98531 0.83091 0.47973 0.0
H2419 H 0.92444 0.8304 0.5686 0.0
H2420 H 0.95001 0.83848 0.54481 0.0
H2421 H 0.94325 0.81169 0.46913 0.0
H2422 H 0.01973 0.81937 0.42924 0.0
H2423 H 0.99357 0.81102 0.45218 0.0
C2424 C 0.1731 0.19028 0.44005 0.0
C2425 C 0.15639 0.1868 0.4415 0.0
C2426 C 0.1781 0.18019 0.45288 0.0
C2427 C 0.16898 0.15293 0.5075 0.0
H2428 H 0.1893 0.13156 0.46924 0.0
C2429 C 0.17968 0.10248 0.55375 0.0
C2430 C 0.19383 0.10138 0.54669 0.0
C2431 C 0.17543 0.11298 0.54051 0.0
C2432 C 0.18393 0.13764 0.48036 0.0
H2433 H 0.13191 0.17026 0.45802 0.0
H2434 H 0.14085 0.15293 0.48117 0.0
H2435 H 0.18168 0.15029 0.44748 0.0
H2436 H 0.21467 0.11041 0.52025 0.0
H2437 H 0.20769 0.12936 0.49766 0.0
H2438 H 0.17168 0.14094 0.54054 0.0
C2439 C 0.14997 0.16336 0.46979 0.0
C2440 C 0.17949 0.14829 0.46782 0.0
C2441 C 0.14487 0.17324 0.45652 0.0
C2442 C 0.20362 0.11094 0.52598 0.0
C2443 C 0.19954 0.12174 0.51298 0.0
C2444 C 0.17371 0.14258 0.52015 0.0
C2445 C 0.16658 0.16665 0.46785 0.0
C2446 C 0.17182 0.15586 0.48125 0.0
C2447 C 0.18542 0.12296 0.52016 0.0
C2448 C 0.18106 0.13459 0.50672 0.0
H2449 H 0.18226 0.20058 0.42851 0.0
H2450 H 0.191 0.183 0.45123 0.0
H2451 H 0.16327 0.15882 0.5183 0.0
H2452 H 0.17177 0.09509 0.56945 0.0
H2453 H 0.1642 0.11314 0.54621 0.0
C2454 C 0.89813 0.07607 0.55411 0.0
C2455 C 0.89887 0.0912 0.54736 0.0
C2456 C 0.88792 0.06134 0.5406 0.0
C2457 C 0.8635 0.04543 0.48009 0.0
H2458 H 0.8432 0.00305 0.5166 0.0
C2459 C 0.81094 0.9822 0.43911 0.0
C2460 C 0.81459 0.96906 0.43949 0.0
C2461 C 0.82116 0.99717 0.45215 0.0
C2462 C 0.84886 0.01481 0.5062 0.0
H2463 H 0.88943 0.10281 0.52128 0.0
H2464 H 0.87094 0.07692 0.49831 0.0
H2465 H 0.86069 0.02914 0.5396 0.0
H2466 H 0.83161 0.96119 0.45426 0.0
H2467 H 0.84916 0.98725 0.47781 0.0
H2468 H 0.85096 0.03089 0.44688 0.0
C2469 C 0.87865 0.07648 0.51353 0.0
C2470 C 0.859 0.02979 0.51928 0.0
C2471 C 0.88918 0.09133 0.52677 0.0
C2472 C 0.8285 0.9711 0.45358 0.0
C2473 C 0.8385 0.98595 0.46708 0.0
C2474 C 0.85307 0.03045 0.46713 0.0
C2475 C 0.87786 0.06125 0.52029 0.0
C2476 C 0.86662 0.04532 0.50638 0.0
C2477 C 0.835 0.99916 0.46627 0.0
C2478 C 0.84579 0.01502 0.48005 0.0
H2479 H 0.90563 0.07564 0.56972 0.0
H2480 H 0.88807 0.05006 0.54602 0.0
H2481 H 0.86933 0.05703 0.46933 0.0
H2482 H 0.80038 0.98106 0.42833 0.0
H2483 H 0.81818 0.00717 0.45138 0.0
C2484 C 0.81026 0.30582 0.28389 0.0
C2485 C 0.82219 0.30332 0.27091 0.0
C2486 C 0.81512 0.32088 0.2968 0.0
C2487 C 0.85307 0.35951 0.32111 0.0
H2488 H 0.822 0.3764 0.32438 0.0
C2489 C 0.87036 0.42624 0.35709 0.0
C2490 C 0.86029 0.42585 0.37753 0.0
C2491 C 0.86601 0.4116 0.34321 0.0
C2492 C 0.83078 0.3718 0.32355 0.0
H2493 H 0.84856 0.31474 0.26106 0.0
H2494 H 0.85692 0.34117 0.28245 0.0
H2495 H 0.8139 0.35025 0.30182 0.0
H2496 H 0.8376 0.41005 0.39909 0.0
H2497 H 0.82977 0.38469 0.37428 0.0
H2498 H 0.87011 0.38153 0.34222 0.0
C2499 C 0.84389 0.33136 0.28356 0.0
C2500 C 0.82611 0.35672 0.31086 0.0
C2501 C 0.83908 0.31619 0.27112 0.0
C2502 C 0.84564 0.4107 0.38349 0.0
C2503 C 0.84111 0.39622 0.36927 0.0
C2504 C 0.85785 0.37477 0.33333 0.0
C2505 C 0.83199 0.33396 0.29658 0.0
C2506 C 0.83712 0.35025 0.30968 0.0
C2507 C 0.85132 0.39651 0.34917 0.0
C2508 C 0.84668 0.38093 0.33486 0.0
H2509 H 0.79716 0.29609 0.28423 0.0
H2510 H 0.80562 0.32217 0.30706 0.0
H2511 H 0.86181 0.35486 0.32111 0.0
H2512 H 0.88175 0.43774 0.35218 0.0
H2513 H 0.87404 0.41209 0.32772 0.0
C2514 C 0.57523 0.44346 0.35877 0.0
C2515 C 0.57546 0.43385 0.3794 0.0
C2516 C 0.59 0.45387 0.34526 0.0
C2517 C 0.63669 0.47345 0.35059 0.0
H2518 H 0.63543 0.4817 0.27831 0.0
C2519 C 0.69523 0.50399 0.2847 0.0
C2520 C 0.69741 0.51813 0.27113 0.0
C2521 C 0.68033 0.49389 0.29803 0.0
C2522 C 0.63591 0.47951 0.29853 0.0
H2523 H 0.59109 0.42705 0.40148 0.0
H2524 H 0.6165 0.44437 0.37729 0.0
H2525 H 0.60932 0.46329 0.30085 0.0
H2526 H 0.68559 0.53263 0.26063 0.0
H2527 H 0.65938 0.51465 0.28335 0.0
H2528 H 0.66342 0.4892 0.34778 0.0
C2529 C 0.60522 0.44458 0.37206 0.0
C2530 C 0.62095 0.46906 0.31154 0.0
C2531 C 0.59058 0.43449 0.38585 0.0
C2532 C 0.68434 0.52188 0.27102 0.0
C2533 C 0.66931 0.51157 0.28387 0.0
C2534 C 0.65164 0.48359 0.33745 0.0
C2535 C 0.60524 0.45463 0.35179 0.0
C2536 C 0.62112 0.46587 0.33779 0.0
C2537 C 0.66721 0.49753 0.29754 0.0
C2538 C 0.65136 0.48672 0.31134 0.0
H2539 H 0.56374 0.44328 0.35352 0.0
H2540 H 0.58949 0.46157 0.33006 0.0
H2541 H 0.63739 0.47172 0.37088 0.0
H2542 H 0.70509 0.5008 0.28518 0.0
H2543 H 0.67894 0.48308 0.30843 0.0
C2544 C 0.56701 0.15602 0.38241 0.0
C2545 C 0.56745 0.14129 0.37681 0.0
C2546 C 0.55714 0.16052 0.36792 0.0
C2547 C 0.51895 0.14366 0.33207 0.0
H2548 H 0.53845 0.18738 0.29977 0.0
C2549 C 0.47888 0.16232 0.27028 0.0
C2550 C 0.48298 0.17923 0.26996 0.0
C2551 C 0.48935 0.15752 0.28244 0.0
C2552 C 0.5327 0.17523 0.30901 0.0
H2553 H 0.55785 0.11967 0.35179 0.0
H2554 H 0.54003 0.12732 0.32687 0.0
H2555 H 0.55649 0.17932 0.32246 0.0
H2556 H 0.50105 0.20432 0.2827 0.0
H2557 H 0.51886 0.19589 0.30504 0.0
H2558 H 0.49508 0.13974 0.31998 0.0
C2559 C 0.54758 0.13544 0.34228 0.0
C2560 C 0.5431 0.17059 0.32178 0.0
C2561 C 0.55779 0.13112 0.35643 0.0
C2562 C 0.49762 0.1912 0.28246 0.0
C2563 C 0.50792 0.18635 0.29508 0.0
C2564 C 0.50848 0.14842 0.31978 0.0
C2565 C 0.54723 0.1502 0.34791 0.0
C2566 C 0.53631 0.15478 0.3334 0.0
C2567 C 0.50402 0.16945 0.29506 0.0
C2568 C 0.51519 0.1643 0.30808 0.0
H2569 H 0.57439 0.16414 0.39794 0.0
H2570 H 0.55699 0.17191 0.37268 0.0
H2571 H 0.51343 0.13147 0.3412 0.0
H2572 H 0.46778 0.1528 0.2606 0.0
H2573 H 0.48603 0.14446 0.28147 0.0
C2574 C 0.6389 0.4768 0.87885 0.0
C2575 C 0.63667 0.48863 0.89272 0.0
C2576 C 0.6538 0.48176 0.86542 0.0
C2577 C 0.69817 0.51184 0.86538 0.0
H2578 H 0.69696 0.50277 0.79298 0.0
C2579 C 0.75911 0.53611 0.80584 0.0
C2580 C 0.75886 0.52621 0.78527 0.0
C2581 C 0.7443 0.5319 0.81914 0.0
C2582 C 0.69759 0.50515 0.81329 0.0
H2583 H 0.64838 0.51488 0.90358 0.0
H2584 H 0.67459 0.52338 0.88067 0.0
H2585 H 0.67086 0.49427 0.81583 0.0
H2586 H 0.74316 0.50384 0.76309 0.0
H2587 H 0.71768 0.49602 0.78691 0.0
H2588 H 0.72475 0.52208 0.86332 0.0
C2589 C 0.6647 0.51036 0.88 0.0
C2590 C 0.6826 0.50037 0.82628 0.0
C2591 C 0.64967 0.50549 0.89296 0.0
C2592 C 0.74368 0.51184 0.77867 0.0
C2593 C 0.72901 0.50744 0.79225 0.0
C2594 C 0.71317 0.51632 0.85252 0.0
C2595 C 0.66687 0.49854 0.86611 0.0
C2596 C 0.68277 0.50369 0.8524 0.0
C2597 C 0.72901 0.51752 0.81245 0.0
C2598 C 0.71309 0.51301 0.82626 0.0
H2599 H 0.6291 0.46373 0.87828 0.0
H2600 H 0.65524 0.47243 0.85486 0.0
H2601 H 0.69857 0.51442 0.88561 0.0
H2602 H 0.77064 0.54733 0.81121 0.0
H2603 H 0.74483 0.54013 0.83431 0.0
C2604 C 0.46484 0.22334 0.80721 0.0
C2605 C 0.47483 0.23296 0.78666 0.0
C2606 C 0.46919 0.21304 0.82103 0.0
C2607 C 0.50443 0.20842 0.84035 0.0
H2608 H 0.47324 0.16051 0.84365 0.0
C2609 C 0.5248 0.16303 0.88083 0.0
C2610 C 0.51287 0.14873 0.89405 0.0
C2611 C 0.51997 0.17319 0.86774 0.0
C2612 C 0.48203 0.17389 0.8434 0.0
H2613 H 0.49737 0.23969 0.76481 0.0
H2614 H 0.50521 0.22212 0.7895 0.0
H2615 H 0.46495 0.17881 0.82229 0.0
H2616 H 0.48653 0.13393 0.90414 0.0
H2617 H 0.47822 0.15195 0.88244 0.0
H2618 H 0.52135 0.20381 0.8621 0.0
C2619 C 0.49393 0.22238 0.79464 0.0
C2620 C 0.47726 0.18433 0.83103 0.0
C2621 C 0.4894 0.23235 0.78049 0.0
C2622 C 0.49601 0.14478 0.8939 0.0
C2623 C 0.49122 0.15511 0.88128 0.0
C2624 C 0.50909 0.19805 0.85319 0.0
C2625 C 0.48381 0.21254 0.81488 0.0
C2626 C 0.48848 0.20164 0.82921 0.0
C2627 C 0.50313 0.16948 0.868 0.0
C2628 C 0.49802 0.1806 0.85469 0.0
H2629 H 0.45351 0.22353 0.81229 0.0
H2630 H 0.46123 0.20556 0.83662 0.0
H2631 H 0.51325 0.22178 0.8393 0.0
H2632 H 0.53788 0.16633 0.88043 0.0
H2633 H 0.52947 0.18388 0.85728 0.0
C2634 C 0.85613 0.35925 0.87533 0.0
C2635 C 0.84981 0.36439 0.89567 0.0
C2636 C 0.84588 0.34413 0.86267 0.0
C2637 C 0.80095 0.31043 0.85484 0.0
H2638 H 0.82143 0.28582 0.82707 0.0
C2639 C 0.76367 0.24219 0.81528 0.0
C2640 C 0.7674 0.24101 0.78963 0.0
C2641 C 0.77371 0.25686 0.82922 0.0
C2642 C 0.81559 0.29258 0.83478 0.0
H2643 H 0.8278 0.35762 0.91882 0.0
H2644 H 0.81015 0.3309 0.89767 0.0
H2645 H 0.83878 0.31212 0.84967 0.0
H2646 H 0.78482 0.25395 0.75869 0.0
H2647 H 0.80269 0.27932 0.7834 0.0
H2648 H 0.77763 0.29036 0.84055 0.0
C2649 C 0.82283 0.33877 0.89075 0.0
C2650 C 0.82552 0.30776 0.84752 0.0
C2651 C 0.83299 0.35409 0.90303 0.0
C2652 C 0.78162 0.25454 0.77842 0.0
C2653 C 0.79186 0.26901 0.79252 0.0
C2654 C 0.79098 0.29505 0.84257 0.0
C2655 C 0.82913 0.33352 0.87042 0.0
C2656 C 0.8184 0.31704 0.85748 0.0
C2657 C 0.78786 0.27038 0.81791 0.0
C2658 C 0.79825 0.28611 0.83222 0.0
H2659 H 0.86899 0.36697 0.86905 0.0
H2660 H 0.85113 0.34084 0.8467 0.0
H2661 H 0.79498 0.31725 0.86175 0.0
H2662 H 0.75273 0.23199 0.82434 0.0
H2663 H 0.77044 0.25766 0.84882 0.0
C2664 C 0.52539 0.36161 0.38157 0.0
C2665 C 0.5133 0.36377 0.3948 0.0
C2666 C 0.52073 0.34672 0.36829 0.0
C2667 C 0.49067 0.30228 0.36753 0.0
H2668 H 0.50049 0.3038 0.29537 0.0
C2669 C 0.46594 0.24164 0.30722 0.0
C2670 C 0.47578 0.2418 0.28664 0.0
C2671 C 0.47041 0.25642 0.32078 0.0
C2672 C 0.49791 0.30309 0.31561 0.0
H2673 H 0.48688 0.35191 0.40474 0.0
H2674 H 0.47888 0.32572 0.38211 0.0
H2675 H 0.50897 0.32982 0.31843 0.0
H2676 H 0.49834 0.25729 0.26472 0.0
H2677 H 0.50663 0.28271 0.28902 0.0
H2678 H 0.48022 0.27569 0.36521 0.0
C2679 C 0.4919 0.33566 0.38183 0.0
C2680 C 0.50269 0.31803 0.32873 0.0
C2681 C 0.49648 0.35068 0.39462 0.0
C2682 C 0.49039 0.25685 0.28031 0.0
C2683 C 0.49506 0.27149 0.29417 0.0
C2684 C 0.4862 0.28733 0.35456 0.0
C2685 C 0.50397 0.33358 0.3685 0.0
C2686 C 0.49906 0.31775 0.35476 0.0
C2687 C 0.48502 0.27159 0.31436 0.0
C2688 C 0.48974 0.2875 0.32837 0.0
H2689 H 0.53844 0.37148 0.38132 0.0
H2690 H 0.53025 0.34535 0.35817 0.0
H2691 H 0.48785 0.3018 0.38769 0.0
H2692 H 0.45455 0.23022 0.31237 0.0
H2693 H 0.46219 0.25597 0.33591 0.0
C2694 C 0.75917 0.22335 0.30422 0.0
C2695 C 0.75896 0.2329 0.28349 0.0
C2696 C 0.74439 0.21292 0.31767 0.0
C2697 C 0.69765 0.19332 0.3126 0.0
H2698 H 0.69925 0.18571 0.38503 0.0
C2699 C 0.63941 0.16327 0.37924 0.0
C2700 C 0.63738 0.14934 0.39328 0.0
C2701 C 0.65421 0.17323 0.36559 0.0
C2702 C 0.69868 0.18771 0.36478 0.0
H2703 H 0.7433 0.23947 0.26102 0.0
H2704 H 0.71782 0.22209 0.2851 0.0
H2705 H 0.72524 0.2039 0.36211 0.0
H2706 H 0.64937 0.13508 0.40424 0.0
H2707 H 0.67541 0.15283 0.38096 0.0
H2708 H 0.67093 0.1776 0.31577 0.0
C2709 C 0.72913 0.22197 0.29049 0.0
C2710 C 0.71356 0.19803 0.35154 0.0
C2711 C 0.7438 0.23209 0.27675 0.0
C2712 C 0.6505 0.14567 0.39351 0.0
C2713 C 0.66543 0.15585 0.38033 0.0
C2714 C 0.68276 0.1833 0.32597 0.0
C2715 C 0.72913 0.21209 0.311 0.0
C2716 C 0.71328 0.20099 0.32522 0.0
C2717 C 0.66739 0.16967 0.36621 0.0
C2718 C 0.68316 0.18038 0.35213 0.0
H2719 H 0.77068 0.22365 0.3097 0.0
H2720 H 0.74491 0.20533 0.33302 0.0
H2721 H 0.69685 0.19488 0.29228 0.0
H2722 H 0.6295 0.16639 0.37865 0.0
H2723 H 0.65548 0.18387 0.35487 0.0
C2724 C 0.83808 0.4763 0.37958 0.0
C2725 C 0.85239 0.48821 0.39283 0.0
C2726 C 0.8278 0.48112 0.36684 0.0
C2727 C 0.82666 0.51903 0.34353 0.0
H2728 H 0.77883 0.48751 0.33956 0.0
C2729 C 0.77689 0.53588 0.30775 0.0
C2730 C 0.76734 0.5259 0.28715 0.0
C2731 C 0.78721 0.53156 0.32159 0.0
C2732 C 0.79217 0.49641 0.34059 0.0
H2733 H 0.86704 0.51449 0.40333 0.0
H2734 H 0.8488 0.52276 0.38222 0.0
H2735 H 0.79703 0.47951 0.36189 0.0
H2736 H 0.76071 0.50339 0.26528 0.0
H2737 H 0.7783 0.49561 0.29001 0.0
H2738 H 0.82149 0.53608 0.32284 0.0
C2739 C 0.84574 0.50979 0.38078 0.0
C2740 C 0.80267 0.49181 0.35315 0.0
C2741 C 0.8562 0.50503 0.39306 0.0
C2742 C 0.76799 0.51135 0.28101 0.0
C2743 C 0.77798 0.50685 0.29518 0.0
C2744 C 0.81609 0.52374 0.33143 0.0
C2745 C 0.83137 0.49791 0.36749 0.0
C2746 C 0.82011 0.50298 0.35457 0.0
C2747 C 0.78778 0.51698 0.31543 0.0
C2748 C 0.7988 0.51241 0.32965 0.0
H2749 H 0.83488 0.46325 0.37891 0.0
H2750 H 0.81711 0.47164 0.35636 0.0
H2751 H 0.84001 0.5279 0.34373 0.0
H2752 H 0.77666 0.54719 0.31279 0.0
H2753 H 0.79466 0.53953 0.33719 0.0
C2754 C 0.59084 0.15618 0.88682 0.0
C2755 C 0.57564 0.14176 0.88024 0.0
C2756 C 0.60536 0.16093 0.87256 0.0
C2757 C 0.62643 0.14459 0.83442 0.0
H2758 H 0.65167 0.18933 0.80565 0.0
C2759 C 0.6841 0.16335 0.77046 0.0
C2760 C 0.69743 0.18002 0.77115 0.0
C2761 C 0.66907 0.15875 0.78317 0.0
C2762 C 0.64499 0.17688 0.8139 0.0
H2763 H 0.56373 0.12093 0.85376 0.0
H2764 H 0.58942 0.129 0.82924 0.0
H2765 H 0.62575 0.18116 0.82898 0.0
H2766 H 0.70558 0.20489 0.7861 0.0
H2767 H 0.67967 0.19675 0.80937 0.0
H2768 H 0.64586 0.1404 0.82061 0.0
C2769 C 0.58992 0.13669 0.84524 0.0
C2770 C 0.63006 0.17219 0.82707 0.0
C2771 C 0.57526 0.13213 0.85918 0.0
C2772 C 0.69547 0.19197 0.78507 0.0
C2773 C 0.68053 0.18729 0.79826 0.0
C2774 C 0.64153 0.14937 0.82173 0.0
C2775 C 0.60506 0.15117 0.8518 0.0
C2776 C 0.62064 0.15599 0.83735 0.0
C2777 C 0.66707 0.17062 0.79739 0.0
C2778 C 0.65102 0.16558 0.81119 0.0
H2779 H 0.59149 0.16389 0.9029 0.0
H2780 H 0.61692 0.17208 0.87805 0.0
H2781 H 0.61946 0.13209 0.8425 0.0
H2782 H 0.68514 0.15388 0.75964 0.0
H2783 H 0.65894 0.1459 0.78145 0.0
C2784 C 0.86653 0.44173 0.85951 0.0
C2785 C 0.85679 0.43232 0.88036 0.0
C2786 C 0.86209 0.45198 0.84576 0.0
C2787 C 0.83511 0.47171 0.85072 0.0
H2788 H 0.84491 0.47983 0.77848 0.0
C2789 C 0.80838 0.50327 0.78432 0.0
C2790 C 0.82061 0.5173 0.77085 0.0
C2791 C 0.8128 0.49292 0.79776 0.0
C2792 C 0.84216 0.47768 0.79868 0.0
H2793 H 0.83446 0.4257 0.9026 0.0
H2794 H 0.82621 0.44275 0.87795 0.0
H2795 H 0.85219 0.46119 0.80122 0.0
H2796 H 0.84701 0.53135 0.76067 0.0
H2797 H 0.85458 0.51293 0.78359 0.0
H2798 H 0.82449 0.48776 0.84769 0.0
C2799 C 0.83768 0.44291 0.87272 0.0
C2800 C 0.84642 0.46709 0.8118 0.0
C2801 C 0.84231 0.43298 0.88677 0.0
C2802 C 0.83732 0.52069 0.77097 0.0
C2803 C 0.84165 0.51012 0.78393 0.0
C2804 C 0.83054 0.48199 0.83745 0.0
C2805 C 0.84763 0.45278 0.85225 0.0
C2806 C 0.84301 0.46398 0.83806 0.0
C2807 C 0.82944 0.49619 0.79748 0.0
C2808 C 0.83409 0.48511 0.81138 0.0
H2809 H 0.87784 0.44155 0.8543 0.0
H2810 H 0.87026 0.45956 0.83043 0.0
H2811 H 0.83262 0.47003 0.871 0.0
H2812 H 0.79542 0.50036 0.78462 0.0
H2813 H 0.80318 0.48219 0.80806 0.0
C2814 C 0.56644 0.41074 0.88442 0.0
C2815 C 0.56683 0.42585 0.87853 0.0
C2816 C 0.55649 0.39624 0.87023 0.0
C2817 C 0.5182 0.37469 0.83447 0.0
H2818 H 0.53765 0.35018 0.80299 0.0
C2819 C 0.47841 0.31605 0.77239 0.0
C2820 C 0.48243 0.30318 0.77226 0.0
C2821 C 0.48878 0.33125 0.78478 0.0
C2822 C 0.53191 0.35666 0.81201 0.0
H2823 H 0.55708 0.43764 0.85335 0.0
H2824 H 0.53915 0.41196 0.82895 0.0
H2825 H 0.5557 0.37636 0.82547 0.0
H2826 H 0.50021 0.29597 0.78566 0.0
H2827 H 0.51786 0.3221 0.80839 0.0
H2828 H 0.49434 0.35476 0.82229 0.0
C2829 C 0.54677 0.41153 0.84435 0.0
C2830 C 0.54231 0.37175 0.82467 0.0
C2831 C 0.55705 0.42618 0.8582 0.0
C2832 C 0.49685 0.3057 0.78526 0.0
C2833 C 0.50706 0.32078 0.7981 0.0
C2834 C 0.50773 0.35942 0.82228 0.0
C2835 C 0.54647 0.39647 0.85024 0.0
C2836 C 0.53554 0.38088 0.83597 0.0
C2837 C 0.50327 0.33386 0.79782 0.0
C2838 C 0.51443 0.35017 0.81086 0.0
H2839 H 0.57391 0.41013 0.89993 0.0
H2840 H 0.55638 0.38475 0.87519 0.0
H2841 H 0.51269 0.38145 0.84335 0.0
H2842 H 0.46747 0.31459 0.76232 0.0
H2843 H 0.48556 0.34105 0.78362 0.0
C2844 C 0.47723 0.63933 0.6178 0.0
C2845 C 0.48912 0.63713 0.60406 0.0
C2846 C 0.48213 0.6542 0.63129 0.0
C2847 C 0.51235 0.69858 0.63199 0.0
H2848 H 0.503 0.69695 0.70434 0.0
C2849 C 0.53687 0.75919 0.69229 0.0
C2850 C 0.52695 0.75896 0.7128 0.0
C2851 C 0.5326 0.74441 0.67888 0.0
C2852 C 0.50546 0.69769 0.68405 0.0
H2853 H 0.51541 0.64886 0.59343 0.0
H2854 H 0.52382 0.67502 0.61643 0.0
H2855 H 0.49441 0.67096 0.68109 0.0
H2856 H 0.50449 0.74329 0.73484 0.0
H2857 H 0.49657 0.71785 0.71083 0.0
H2858 H 0.52277 0.72516 0.63445 0.0
C2859 C 0.51078 0.66513 0.61695 0.0
C2860 C 0.50062 0.68277 0.67083 0.0
C2861 C 0.50597 0.65014 0.60394 0.0
C2862 C 0.51251 0.74381 0.7193 0.0
C2863 C 0.50805 0.72915 0.70561 0.0
C2864 C 0.51689 0.71351 0.64508 0.0
C2865 C 0.49892 0.66726 0.63079 0.0
C2866 C 0.50405 0.68309 0.64472 0.0
C2867 C 0.51812 0.72915 0.68539 0.0
C2868 C 0.5135 0.71329 0.67133 0.0
H2869 H 0.46417 0.62952 0.61829 0.0
H2870 H 0.47276 0.65561 0.6418 0.0
H2871 H 0.51502 0.69909 0.61177 0.0
H2872 H 0.54814 0.7707 0.68699 0.0
H2873 H 0.54084 0.74493 0.66373 0.0
C2874 C 0.36229 0.83823 0.61859 0.0
C2875 C 0.36451 0.85234 0.60497 0.0
C2876 C 0.3473 0.82804 0.63167 0.0
C2877 C 0.30829 0.82694 0.65516 0.0
H2878 H 0.29228 0.77923 0.66058 0.0
C2879 C 0.24185 0.77721 0.69177 0.0
C2880 C 0.24231 0.76775 0.71249 0.0
C2881 C 0.25649 0.78756 0.67795 0.0
C2882 C 0.29664 0.79254 0.65917 0.0
H2883 H 0.35267 0.86674 0.59413 0.0
H2884 H 0.32635 0.84864 0.61582 0.0
H2885 H 0.3183 0.79725 0.63772 0.0
H2886 H 0.25828 0.76138 0.73465 0.0
H2887 H 0.28367 0.77905 0.70998 0.0
H2888 H 0.28614 0.8219 0.67597 0.0
C2889 C 0.33632 0.84568 0.6173 0.0
C2890 C 0.31164 0.80294 0.64629 0.0
C2891 C 0.35143 0.85605 0.60469 0.0
C2892 C 0.25756 0.76859 0.71884 0.0
C2893 C 0.27206 0.77861 0.70469 0.0
C2894 C 0.2931 0.81646 0.66757 0.0
C2895 C 0.33401 0.8315 0.63099 0.0
C2896 C 0.3178 0.82034 0.64431 0.0
C2897 C 0.27169 0.78828 0.68426 0.0
C2898 C 0.28725 0.79921 0.66988 0.0
H2899 H 0.3722 0.83512 0.61933 0.0
H2900 H 0.34623 0.8175 0.64244 0.0
H2901 H 0.31268 0.84027 0.65454 0.0
H2902 H 0.23027 0.77683 0.68655 0.0
H2903 H 0.25593 0.7949 0.66221 0.0
C2904 C 0.16327 0.52415 0.61848 0.0
C2905 C 0.14908 0.51214 0.60506 0.0
C2906 C 0.17334 0.51938 0.63195 0.0
C2907 C 0.18752 0.48919 0.63296 0.0
H2908 H 0.1956 0.49894 0.70517 0.0
C2909 C 0.22367 0.46476 0.69327 0.0
C2910 C 0.23345 0.47474 0.71367 0.0
C2911 C 0.21316 0.46904 0.67987 0.0
C2912 C 0.19378 0.49637 0.68491 0.0
H2913 H 0.13445 0.48575 0.595 0.0
H2914 H 0.15238 0.47756 0.61796 0.0
H2915 H 0.17813 0.50745 0.68193 0.0
H2916 H 0.2404 0.4973 0.73553 0.0
H2917 H 0.22289 0.50523 0.71153 0.0
H2918 H 0.20364 0.47872 0.63543 0.0
C2919 C 0.15553 0.4906 0.61825 0.0
C2920 C 0.18366 0.50116 0.6717 0.0
C2921 C 0.14524 0.49529 0.60526 0.0
C2922 C 0.23283 0.48924 0.72007 0.0
C2923 C 0.22264 0.49371 0.70639 0.0
C2924 C 0.19795 0.48469 0.64603 0.0
C2925 C 0.16962 0.50259 0.63175 0.0
C2926 C 0.18042 0.49758 0.64565 0.0
C2927 C 0.21248 0.48358 0.68628 0.0
C2928 C 0.20124 0.48821 0.67223 0.0
H2929 H 0.16653 0.53722 0.61872 0.0
H2930 H 0.1842 0.52884 0.64221 0.0
H2931 H 0.18526 0.4864 0.61278 0.0
H2932 H 0.22384 0.45345 0.68805 0.0
H2933 H 0.20537 0.46075 0.66481 0.0
C2934 C 0.42652 0.86856 0.14146 0.0
C2935 C 0.42601 0.85869 0.12065 0.0
C2936 C 0.41194 0.86414 0.15553 0.0
C2937 C 0.37198 0.82897 0.17482 0.0
H2938 H 0.3555 0.86035 0.1783 0.0
C2939 C 0.30612 0.80886 0.21484 0.0
C2940 C 0.30374 0.82084 0.22791 0.0
C2941 C 0.32119 0.81362 0.20202 0.0
C2942 C 0.36002 0.85151 0.17802 0.0
H2943 H 0.41007 0.83627 0.09863 0.0
H2944 H 0.38479 0.82832 0.12376 0.0
H2945 H 0.38208 0.86857 0.15701 0.0
H2946 H 0.31541 0.84717 0.23812 0.0
H2947 H 0.34186 0.85534 0.21693 0.0
H2948 H 0.35038 0.81207 0.19645 0.0
C2949 C 0.39637 0.83955 0.12892 0.0
C2950 C 0.37523 0.85624 0.16569 0.0
C2951 C 0.4108 0.84416 0.11452 0.0
C2952 C 0.31677 0.83766 0.22798 0.0
C2953 C 0.33195 0.84236 0.21564 0.0
C2954 C 0.35695 0.82435 0.18763 0.0
C2955 C 0.39677 0.84958 0.14937 0.0
C2956 C 0.38124 0.84495 0.16378 0.0
C2957 C 0.3344 0.83043 0.20242 0.0
C2958 C 0.35064 0.83549 0.18921 0.0
H2959 H 0.43807 0.87986 0.14651 0.0
H2960 H 0.41251 0.87204 0.17128 0.0
H2961 H 0.37645 0.8201 0.17368 0.0
H2962 H 0.29626 0.79582 0.21429 0.0
H2963 H 0.32237 0.8041 0.19162 0.0
C2964 C 0.13112 0.55735 0.14194 0.0
C2965 C 0.14113 0.56694 0.12138 0.0
C2966 C 0.13557 0.54722 0.15602 0.0
C2967 C 0.17089 0.54277 0.17577 0.0
H2968 H 0.13993 0.49479 0.17824 0.0
C2969 C 0.19157 0.4973 0.21494 0.0
C2970 C 0.17966 0.4828 0.22781 0.0
C2971 C 0.18669 0.50755 0.20226 0.0
C2972 C 0.14865 0.50818 0.17824 0.0
H2973 H 0.16383 0.57384 0.09985 0.0
H2974 H 0.17183 0.55657 0.12499 0.0
H2975 H 0.13155 0.51311 0.1572 0.0
H2976 H 0.15331 0.46779 0.23774 0.0
H2977 H 0.14491 0.48596 0.21675 0.0
H2978 H 0.18784 0.53814 0.1974 0.0
C2979 C 0.16047 0.55672 0.12995 0.0
C2980 C 0.14383 0.51864 0.16606 0.0
C2981 C 0.15584 0.56652 0.11554 0.0
C2982 C 0.16278 0.47878 0.22776 0.0
C2983 C 0.15794 0.4892 0.21555 0.0
C2984 C 0.17561 0.53239 0.18842 0.0
C2985 C 0.1503 0.54687 0.15013 0.0
C2986 C 0.15497 0.53598 0.1645 0.0
C2987 C 0.16981 0.50375 0.20259 0.0
C2988 C 0.16463 0.5149 0.1896 0.0
H2989 H 0.11969 0.5574 0.14676 0.0
H2990 H 0.12757 0.53971 0.17156 0.0
H2991 H 0.17966 0.55615 0.1749 0.0
H2992 H 0.20467 0.50067 0.2145 0.0
H2993 H 0.19617 0.5184 0.19205 0.0
C2994 C 0.52333 0.69256 0.20785 0.0
C2995 C 0.51678 0.69827 0.22714 0.0
C2996 C 0.51293 0.67759 0.1949 0.0
C2997 C 0.47633 0.63679 0.20221 0.0
H2998 H 0.47248 0.63621 0.12855 0.0
C2999 C 0.42974 0.57658 0.14727 0.0
C3000 C 0.43398 0.57442 0.1224 0.0
C3001 C 0.43981 0.59156 0.1605 0.0
C3002 C 0.47362 0.63601 0.14908 0.0
H3003 H 0.49419 0.69268 0.24804 0.0
H3004 H 0.47616 0.66621 0.22585 0.0
H3005 H 0.49022 0.66266 0.15048 0.0
H3006 H 0.45246 0.5858 0.09229 0.0
H3007 H 0.4705 0.6114 0.11571 0.0
H3008 H 0.4604 0.61013 0.20101 0.0
C3009 C 0.4893 0.67351 0.22063 0.0
C3010 C 0.48369 0.65123 0.1616 0.0
C3011 C 0.4996 0.68868 0.23319 0.0
C3012 C 0.44878 0.58721 0.11136 0.0
C3013 C 0.45904 0.60199 0.12475 0.0
C3014 C 0.46654 0.62148 0.18967 0.0
C3015 C 0.4959 0.66785 0.2014 0.0
C3016 C 0.48509 0.65175 0.18825 0.0
C3017 C 0.45455 0.60457 0.14933 0.0
C3018 C 0.46503 0.62085 0.16288 0.0
H3019 H 0.53648 0.69963 0.20274 0.0
H3020 H 0.51828 0.67342 0.18017 0.0
H3021 H 0.47737 0.6369 0.22281 0.0
H3022 H 0.41831 0.56695 0.15614 0.0
H3023 H 0.43574 0.59307 0.17919 0.0
C3024 C 0.15633 0.58987 0.6131 0.0
C3025 C 0.14184 0.5748 0.61975 0.0
C3026 C 0.16096 0.60459 0.62673 0.0
C3027 C 0.15249 0.62067 0.68711 0.0
H3028 H 0.17463 0.66293 0.6503 0.0
C3029 C 0.16308 0.6841 0.72714 0.0
C3030 C 0.17987 0.69724 0.72677 0.0
C3031 C 0.15836 0.66905 0.71437 0.0
C3032 C 0.16852 0.65121 0.66079 0.0
H3033 H 0.12079 0.56325 0.64582 0.0
H3034 H 0.12839 0.58913 0.66901 0.0
H3035 H 0.16602 0.63678 0.62752 0.0
H3036 H 0.20481 0.70503 0.71232 0.0
H3037 H 0.19637 0.67883 0.6892 0.0
H3038 H 0.15447 0.63532 0.72017 0.0
C3039 C 0.13653 0.58954 0.65377 0.0
C3040 C 0.16367 0.63619 0.64783 0.0
C3041 C 0.13209 0.57469 0.64042 0.0
C3042 C 0.19179 0.69512 0.71298 0.0
C3043 C 0.18698 0.68019 0.69973 0.0
C3044 C 0.15705 0.63569 0.69994 0.0
C3045 C 0.15102 0.60473 0.64703 0.0
C3046 C 0.15574 0.62069 0.66084 0.0
C3047 C 0.17026 0.66699 0.70052 0.0
C3048 C 0.16522 0.65108 0.68691 0.0
H3049 H 0.16422 0.59029 0.59744 0.0
H3050 H 0.17245 0.61583 0.62134 0.0
H3051 H 0.14669 0.6091 0.69794 0.0
H3052 H 0.15361 0.68531 0.73771 0.0
H3053 H 0.14537 0.65907 0.71511 0.0
C3054 C 0.31722 0.47888 0.72689 0.0
C3055 C 0.30416 0.48262 0.72673 0.0
C3056 C 0.33233 0.48928 0.7143 0.0
C3057 C 0.3571 0.53214 0.68575 0.0
H3058 H 0.38257 0.51323 0.65578 0.0
C3059 C 0.4113 0.56664 0.6134 0.0
C3060 C 0.4265 0.56732 0.61962 0.0
C3061 C 0.3968 0.55666 0.62757 0.0
C3062 C 0.37562 0.51866 0.66427 0.0
H3063 H 0.29651 0.49993 0.71261 0.0
H3064 H 0.32249 0.51759 0.68954 0.0
H3065 H 0.35597 0.4948 0.67702 0.0
H3066 H 0.43845 0.55805 0.6454 0.0
H3067 H 0.41278 0.54008 0.66979 0.0
H3068 H 0.37652 0.5559 0.67174 0.0
C3069 C 0.32139 0.50701 0.70019 0.0
C3070 C 0.3604 0.50814 0.67656 0.0
C3071 C 0.3064 0.49679 0.71324 0.0
C3072 C 0.42691 0.5578 0.64028 0.0
C3073 C 0.41227 0.5475 0.65412 0.0
C3074 C 0.37214 0.54257 0.67299 0.0
C3075 C 0.33467 0.50352 0.70076 0.0
C3076 C 0.3509 0.51472 0.68752 0.0
C3077 C 0.39711 0.5469 0.64789 0.0
C3078 C 0.38152 0.53593 0.66218 0.0
H3079 H 0.31596 0.46815 0.73734 0.0
H3080 H 0.34229 0.48629 0.7157 0.0
H3081 H 0.35044 0.5378 0.69441 0.0
H3082 H 0.41063 0.57389 0.59762 0.0
H3083 H 0.38523 0.55632 0.62235 0.0
C3084 C 0.523 0.83865 0.72607 0.0
C3085 C 0.51914 0.82181 0.72604 0.0
C3086 C 0.51267 0.84343 0.71346 0.0
C3087 C 0.4698 0.82555 0.68507 0.0
H3088 H 0.48899 0.86986 0.65477 0.0
C3089 C 0.43548 0.84549 0.61278 0.0
C3090 C 0.43488 0.86004 0.61907 0.0
C3091 C 0.44545 0.84091 0.62685 0.0
C3092 C 0.48349 0.8575 0.66334 0.0
H3093 H 0.50167 0.79684 0.71215 0.0
H3094 H 0.4841 0.80526 0.68903 0.0
H3095 H 0.50729 0.86154 0.67601 0.0
H3096 H 0.4443 0.88128 0.64485 0.0
H3097 H 0.46227 0.87348 0.66904 0.0
H3098 H 0.44608 0.82138 0.67113 0.0
C3099 C 0.49474 0.81474 0.6996 0.0
C3100 C 0.49393 0.85271 0.67564 0.0
C3101 C 0.5049 0.8099 0.71267 0.0
C3102 C 0.4445 0.86997 0.63967 0.0
C3103 C 0.45479 0.86557 0.6534 0.0
C3104 C 0.45943 0.83023 0.67229 0.0
C3105 C 0.49837 0.83155 0.70002 0.0
C3106 C 0.48724 0.83666 0.68673 0.0
C3107 C 0.45528 0.85096 0.64713 0.0
C3108 C 0.46619 0.84624 0.66137 0.0
H3109 H 0.53379 0.84812 0.73642 0.0
H3110 H 0.51576 0.85641 0.71475 0.0
H3111 H 0.46406 0.81324 0.69381 0.0
H3112 H 0.42814 0.83756 0.59706 0.0
H3113 H 0.4457 0.82964 0.6216 0.0
C3114 C 0.25772 0.49038 0.21986 0.0
C3115 C 0.24266 0.4759 0.21316 0.0
C3116 C 0.27237 0.49526 0.20589 0.0
C3117 C 0.28804 0.4874 0.1445 0.0
H3118 H 0.33068 0.50951 0.18029 0.0
C3119 C 0.35081 0.49686 0.10362 0.0
C3120 C 0.36426 0.5135 0.10384 0.0
C3121 C 0.33585 0.49259 0.11634 0.0
C3122 C 0.31885 0.50344 0.17007 0.0
H3123 H 0.23109 0.45506 0.18671 0.0
H3124 H 0.25684 0.46305 0.16297 0.0
H3125 H 0.30477 0.50087 0.20379 0.0
H3126 H 0.37265 0.53867 0.11784 0.0
H3127 H 0.34657 0.53101 0.14088 0.0
H3128 H 0.30234 0.48937 0.11101 0.0
C3129 C 0.25729 0.47104 0.17848 0.0
C3130 C 0.30397 0.49856 0.18346 0.0
C3131 C 0.24252 0.46636 0.19217 0.0
C3132 C 0.36249 0.52576 0.11727 0.0
C3133 C 0.34763 0.52139 0.13049 0.0
C3134 C 0.30292 0.49197 0.13126 0.0
C3135 C 0.27246 0.48556 0.18517 0.0
C3136 C 0.28832 0.49055 0.17085 0.0
C3137 C 0.33417 0.50479 0.12999 0.0
C3138 C 0.31844 0.5001 0.14392 0.0
H3139 H 0.25816 0.49811 0.23578 0.0
H3140 H 0.2836 0.50675 0.2113 0.0
H3141 H 0.27636 0.48158 0.13395 0.0
H3142 H 0.35175 0.48715 0.09335 0.0
H3143 H 0.32566 0.47969 0.11583 0.0
C3144 C 0.51077 0.76778 0.2195 0.0
C3145 C 0.52516 0.76687 0.21325 0.0
C3146 C 0.50622 0.77762 0.205 0.0
C3147 C 0.52295 0.81514 0.16749 0.0
H3148 H 0.47884 0.79572 0.13654 0.0
C3149 C 0.50465 0.8547 0.10389 0.0
C3150 C 0.48785 0.85096 0.10384 0.0
C3151 C 0.5093 0.84427 0.11654 0.0
C3152 C 0.49111 0.80146 0.14541 0.0
H3153 H 0.54616 0.77562 0.18713 0.0
H3154 H 0.53846 0.79337 0.16219 0.0
H3155 H 0.48673 0.7778 0.15994 0.0
H3156 H 0.4628 0.83357 0.11752 0.0
H3157 H 0.47097 0.81584 0.1407 0.0
H3158 H 0.52719 0.83891 0.15428 0.0
C3159 C 0.53062 0.78621 0.1781 0.0
C3160 C 0.49565 0.79112 0.15859 0.0
C3161 C 0.53497 0.77604 0.19226 0.0
C3162 C 0.47583 0.83671 0.11706 0.0
C3163 C 0.48053 0.82646 0.13018 0.0
C3164 C 0.5183 0.82556 0.15479 0.0
C3165 C 0.51619 0.78702 0.18434 0.0
C3166 C 0.5116 0.79788 0.1697 0.0
C3167 C 0.49732 0.83 0.12994 0.0
C3168 C 0.5023 0.81888 0.14352 0.0
H3169 H 0.50295 0.7608 0.23554 0.0
H3170 H 0.49509 0.77813 0.21021 0.0
H3171 H 0.53527 0.82064 0.1762 0.0
H3172 H 0.5142 0.86551 0.09365 0.0
H3173 H 0.52226 0.8473 0.11537 0.0
C3174 C 0.22376 0.75881 0.19151 0.0
C3175 C 0.2333 0.7585 0.21218 0.0
C3176 C 0.21323 0.74405 0.17806 0.0
C3177 C 0.19321 0.69731 0.18361 0.0
H3178 H 0.18516 0.69853 0.11125 0.0
C3179 C 0.16268 0.63869 0.11798 0.0
C3180 C 0.14863 0.63654 0.10417 0.0
C3181 C 0.17274 0.65361 0.1313 0.0
C3182 C 0.18728 0.69807 0.13149 0.0
H3183 H 0.23985 0.74273 0.23441 0.0
H3184 H 0.22231 0.71732 0.21034 0.0
H3185 H 0.20366 0.72463 0.13374 0.0
H3186 H 0.13425 0.6484 0.09323 0.0
H3187 H 0.15218 0.67465 0.11594 0.0
H3188 H 0.17731 0.6706 0.18088 0.0
C3189 C 0.22226 0.72867 0.20502 0.0
C3190 C 0.19779 0.71302 0.14447 0.0
C3191 C 0.23246 0.7433 0.21874 0.0
C3192 C 0.14493 0.64964 0.1038 0.0
C3193 C 0.15522 0.66469 0.11665 0.0
C3194 C 0.18301 0.68237 0.1705 0.0
C3195 C 0.21228 0.72873 0.1847 0.0
C3196 C 0.20093 0.71286 0.17075 0.0
C3197 C 0.16916 0.66677 0.13057 0.0
C3198 C 0.17995 0.68262 0.14437 0.0
H3199 H 0.22409 0.77035 0.18616 0.0
H3200 H 0.2056 0.74463 0.16282 0.0
H3201 H 0.19489 0.69662 0.20392 0.0
H3202 H 0.16582 0.62881 0.11866 0.0
H3203 H 0.18348 0.65498 0.14187 0.0
C3204 C 0.17498 0.21866 0.32038 0.0
C3205 C 0.16478 0.20623 0.33806 0.0
C3206 C 0.18119 0.21446 0.29889 0.0
C3207 C 0.17253 0.17707 0.26025 0.0
H3208 H 0.21552 0.20728 0.22913 0.0
C3209 C 0.18982 0.16075 0.16413 0.0
C3210 C 0.20643 0.16453 0.16008 0.0
C3211 C 0.18568 0.16717 0.18521 0.0
C3212 C 0.20356 0.19862 0.23774 0.0
H3213 H 0.15399 0.17996 0.34808 0.0
H3214 H 0.16533 0.17281 0.31158 0.0
H3215 H 0.20712 0.21576 0.26803 0.0
H3216 H 0.23187 0.17831 0.17461 0.0
H3217 H 0.22453 0.18901 0.21232 0.0
H3218 H 0.1692 0.15961 0.23099 0.0
C3219 C 0.16796 0.18563 0.31342 0.0
C3220 C 0.19863 0.20358 0.25987 0.0
C3221 C 0.16152 0.18974 0.33449 0.0
C3222 C 0.21895 0.17519 0.17731 0.0
C3223 C 0.21473 0.18139 0.19881 0.0
C3224 C 0.17753 0.17204 0.23849 0.0
C3225 C 0.17754 0.19781 0.29497 0.0
C3226 C 0.18304 0.19283 0.27141 0.0
C3227 C 0.19798 0.17725 0.2032 0.0
C3228 C 0.19304 0.18277 0.22676 0.0
H3229 H 0.17768 0.23148 0.32271 0.0
H3230 H 0.18842 0.22416 0.28502 0.0
H3231 H 0.16029 0.16854 0.26818 0.0
H3232 H 0.17995 0.15285 0.1509 0.0
H3233 H 0.17275 0.16413 0.18741 0.0
C3234 C 0.80934 0.96373 0.32387 0.0
C3235 C 0.79356 0.95676 0.33584 0.0
C3236 C 0.81351 0.97515 0.30393 0.0
C3237 C 0.79648 0.98982 0.25365 0.0
H3238 H 0.84103 0.02914 0.25567 0.0
C3239 C 0.82238 0.04069 0.17379 0.0
C3240 C 0.83886 0.04573 0.16584 0.0
C3241 C 0.81569 0.03079 0.19569 0.0
C3242 C 0.82858 0.0182 0.25475 0.0
H3243 H 0.76962 0.95609 0.33562 0.0
H3244 H 0.77697 0.97606 0.30035 0.0
H3245 H 0.83121 0.00966 0.29147 0.0
H3246 H 0.86117 0.04426 0.17482 0.0
H3247 H 0.84953 0.02711 0.21256 0.0
H3248 H 0.79408 0.99819 0.21651 0.0
C3249 C 0.78605 0.97261 0.30665 0.0
C3250 C 0.82295 0.00705 0.27526 0.0
C3251 C 0.78187 0.9612 0.32684 0.0
C3252 C 0.84848 0.04076 0.18037 0.0
C3253 C 0.84184 0.03097 0.20217 0.0
C3254 C 0.80215 0.00098 0.23299 0.0
C3255 C 0.80202 0.97989 0.2953 0.0
C3256 C 0.80703 0.99254 0.27467 0.0
C3257 C 0.82537 0.02585 0.21012 0.0
C3258 C 0.81844 0.01507 0.23308 0.0
H3259 H 0.81866 0.96058 0.33009 0.0
H3260 H 0.82579 0.98029 0.29522 0.0
H3261 H 0.78416 0.9787 0.25268 0.0
H3262 H 0.81459 0.04425 0.16302 0.0
H3263 H 0.80298 0.0271 0.2014 0.0
C3264 C 0.96003 0.80722 0.18058 0.0
C3265 C 0.95506 0.79264 0.16598 0.0
C3266 C 0.96978 0.8103 0.2024 0.0
C3267 C 0.99975 0.80065 0.23319 0.0
H3268 H 0.99089 0.82092 0.29165 0.0
C3269 C 0.03953 0.82066 0.32708 0.0
C3270 C 0.04392 0.83684 0.3358 0.0
C3271 C 0.02813 0.81328 0.30693 0.0
C3272 C 0.99354 0.81528 0.27546 0.0
H3273 H 0.95654 0.76987 0.16303 0.0
H3274 H 0.97364 0.77532 0.20146 0.0
H3275 H 0.97138 0.81108 0.2559 0.0
H3276 H 0.04006 0.85805 0.32957 0.0
H3277 H 0.02034 0.84519 0.29477 0.0
H3278 H 0.02211 0.80515 0.25285 0.0
C3279 C 0.96995 0.78434 0.19578 0.0
C3280 C 0.98238 0.80967 0.25498 0.0
C3281 C 0.96009 0.78119 0.17386 0.0
C3282 C 0.03694 0.84555 0.32357 0.0
C3283 C 0.02553 0.83814 0.30367 0.0
C3284 C 0.01092 0.80624 0.25383 0.0
C3285 C 0.97486 0.79893 0.21029 0.0
C3286 C 0.98559 0.80273 0.2333 0.0
C3287 C 0.02082 0.82186 0.29535 0.0
C3288 C 0.00814 0.81404 0.27482 0.0
H3289 H 0.95654 0.81642 0.17508 0.0
H3290 H 0.97362 0.82183 0.21284 0.0
H3291 H 0.0026 0.79542 0.2167 0.0
H3292 H 0.04466 0.8136 0.33606 0.0
H3293 H 0.0247 0.8007 0.30084 0.0
C3294 C 0.82109 0.78159 0.67265 0.0
C3295 C 0.83709 0.79354 0.66351 0.0
C3296 C 0.81372 0.78555 0.69289 0.0
C3297 C 0.81524 0.82203 0.72412 0.0
H3298 H 0.7962 0.79327 0.78326 0.0
C3299 C 0.80705 0.84741 0.81902 0.0
C3300 C 0.79259 0.83765 0.83378 0.0
C3301 C 0.81022 0.8408 0.7972 0.0
C3302 C 0.8012 0.8013 0.76667 0.0
H3303 H 0.85798 0.81889 0.66905 0.0
H3304 H 0.84515 0.82565 0.704 0.0
H3305 H 0.806 0.78364 0.74701 0.0
H3306 H 0.77013 0.81316 0.83706 0.0
H3307 H 0.77573 0.80161 0.79864 0.0
H3308 H 0.81074 0.83978 0.74368 0.0
C3309 C 0.83823 0.81332 0.69537 0.0
C3310 C 0.80682 0.79579 0.74597 0.0
C3311 C 0.84562 0.80937 0.67539 0.0
C3312 C 0.78135 0.82106 0.82608 0.0
C3313 C 0.78459 0.8144 0.80418 0.0
C3314 C 0.80959 0.82748 0.74467 0.0
C3315 C 0.82214 0.80156 0.70414 0.0
C3316 C 0.81432 0.80632 0.72481 0.0
C3317 C 0.79906 0.82424 0.78949 0.0
C3318 C 0.80294 0.81739 0.76648 0.0
H3319 H 0.81416 0.76929 0.66396 0.0
H3320 H 0.80129 0.77626 0.69931 0.0
H3321 H 0.82063 0.83026 0.70781 0.0
H3322 H 0.81608 0.86019 0.82437 0.0
H3323 H 0.82165 0.84862 0.78662 0.0
C3324 C 0.2198 0.03989 0.67325 0.0
C3325 C 0.20831 0.04475 0.66488 0.0
C3326 C 0.21643 0.02993 0.69512 0.0
C3327 C 0.1903 0.01713 0.75348 0.0
H3328 H 0.19576 0.97794 0.75256 0.0
C3329 C 0.15488 0.96288 0.82282 0.0
C3330 C 0.16378 0.95624 0.83543 0.0
C3331 C 0.16217 0.97415 0.80271 0.0
C3332 C 0.1944 0.98898 0.7532 0.0
H3333 H 0.18421 0.04281 0.67298 0.0
H3334 H 0.17842 0.02557 0.71064 0.0
H3335 H 0.20554 0.99734 0.71626 0.0
H3336 H 0.18725 0.95595 0.83612 0.0
H3337 H 0.19995 0.97566 0.80056 0.0
H3338 H 0.17877 0.0086 0.78999 0.0
C3339 C 0.19014 0.02962 0.70064 0.0
C3340 C 0.20001 1.00009 0.73247 0.0
C3341 C 0.19345 0.03947 0.67888 0.0
C3342 C 0.18003 0.96082 0.82685 0.0
C3343 C 0.18731 0.97207 0.8065 0.0
C3344 C 0.18466 0.00604 0.77405 0.0
C3345 C 0.20157 0.02475 0.70908 0.0
C3346 C 0.19762 0.01405 0.73215 0.0
C3347 C 0.17853 0.97905 0.79455 0.0
C3348 C 0.18626 0.99163 0.77386 0.0
H3349 H 0.23134 0.04368 0.66288 0.0
H3350 H 0.2255 0.02641 0.70123 0.0
H3351 H 0.18863 0.02798 0.75408 0.0
H3352 H 0.14232 0.95962 0.8287 0.0
H3353 H 0.15498 0.97907 0.79354 0.0
C3354 C 0.96138 0.17977 0.67189 0.0
C3355 C 0.95729 0.16373 0.66295 0.0
C3356 C 0.97277 0.18725 0.69202 0.0
C3357 C 0.00778 0.18585 0.72333 0.0
H3358 H 0.99814 0.20514 0.78224 0.0
C3359 C 0.04135 0.19431 0.81829 0.0
C3360 C 0.04605 0.2088 0.83296 0.0
C3361 C 0.0316 0.1911 0.79644 0.0
C3362 C 0.00115 0.20007 0.76571 0.0
H3363 H 0.96174 0.14285 0.66872 0.0
H3364 H 0.98145 0.15586 0.70349 0.0
H3365 H 0.97868 0.19522 0.74604 0.0
H3366 H 0.04407 0.23129 0.83601 0.0
H3367 H 0.02696 0.22562 0.79754 0.0
H3368 H 0.03004 0.1904 0.74291 0.0
C3369 C 0.97602 0.16274 0.69478 0.0
C3370 C 0.99 0.19438 0.74504 0.0
C3371 C 0.96461 0.15525 0.67491 0.0
C3372 C 0.04074 0.22004 0.82512 0.0
C3373 C 0.03087 0.21676 0.80318 0.0
C3374 C 0.0189 0.19157 0.74385 0.0
C3375 C 0.98039 0.17888 0.70337 0.0
C3376 C 0.993 0.18679 0.72397 0.0
C3377 C 0.02623 0.20225 0.7886 0.0
C3378 C 0.01549 0.19831 0.76558 0.0
H3379 H 0.95598 0.18666 0.66313 0.0
H3380 H 0.97594 0.19971 0.6983 0.0
H3381 H 0.01059 0.18039 0.70709 0.0
H3382 H 0.04506 0.18527 0.82375 0.0
H3383 H 0.02797 0.17963 0.78594 0.0
C3384 C 0.84621 0.55201 0.65859 0.0
C3385 C 0.82978 0.54063 0.66679 0.0
C3386 C 0.8528 0.54864 0.63673 0.0
C3387 C 0.83949 0.5227 0.57813 0.0
H3388 H 0.88406 0.52797 0.57932 0.0
C3389 C 0.8585 0.48752 0.50855 0.0
C3390 C 0.87409 0.49648 0.4961 0.0
C3391 C 0.85444 0.4947 0.52871 0.0
C3392 C 0.87168 0.52666 0.57861 0.0
H3393 H 0.80746 0.51673 0.65834 0.0
H3394 H 0.81892 0.51092 0.6207 0.0
H3395 H 0.87437 0.53766 0.61563 0.0
H3396 H 0.89785 0.51995 0.49573 0.0
H3397 H 0.89071 0.53247 0.53138 0.0
H3398 H 0.83658 0.5113 0.54154 0.0
C3399 C 0.82666 0.52256 0.63084 0.0
C3400 C 0.86614 0.53223 0.59934 0.0
C3401 C 0.82011 0.52588 0.65259 0.0
C3402 C 0.88573 0.51269 0.50487 0.0
C3403 C 0.88168 0.51986 0.52528 0.0
C3404 C 0.84497 0.5171 0.55756 0.0
C3405 C 0.84305 0.53389 0.62259 0.0
C3406 C 0.84982 0.52991 0.59956 0.0
C3407 C 0.86587 0.51101 0.53708 0.0
C3408 C 0.86096 0.51864 0.55784 0.0
H3409 H 0.85403 0.56347 0.66911 0.0
H3410 H 0.86546 0.55764 0.63078 0.0
H3411 H 0.827 0.5211 0.57744 0.0
H3412 H 0.84922 0.47498 0.50251 0.0
H3413 H 0.84229 0.48747 0.53777 0.0
C3414 C 0.44884 0.29445 0.66033 0.0
C3415 C 0.46065 0.29012 0.6691 0.0
C3416 C 0.4528 0.30576 0.64005 0.0
C3417 C 0.4893 0.34027 0.60828 0.0
H3418 H 0.46021 0.33097 0.54967 0.0
C3419 C 0.51443 0.37376 0.51328 0.0
C3420 C 0.50473 0.37864 0.49874 0.0
C3421 C 0.50784 0.36399 0.5351 0.0
C3422 C 0.46834 0.33389 0.56611 0.0
H3423 H 0.48573 0.294 0.66286 0.0
H3424 H 0.4925 0.31357 0.62785 0.0
H3425 H 0.45057 0.31155 0.58593 0.0
H3426 H 0.48038 0.37697 0.49589 0.0
H3427 H 0.46887 0.35984 0.53433 0.0
H3428 H 0.50715 0.36241 0.58858 0.0
C3429 C 0.48028 0.3084 0.63679 0.0
C3430 C 0.46283 0.32276 0.58682 0.0
C3431 C 0.47632 0.29707 0.65681 0.0
C3432 C 0.48823 0.37349 0.50668 0.0
C3433 C 0.48159 0.36361 0.5286 0.0
C3434 C 0.49475 0.35138 0.58774 0.0
C3435 C 0.46867 0.31304 0.62841 0.0
C3436 C 0.47346 0.32564 0.60777 0.0
C3437 C 0.49137 0.35879 0.54306 0.0
C3438 C 0.48454 0.34808 0.56611 0.0
H3439 H 0.43665 0.28934 0.66935 0.0
H3440 H 0.44362 0.30914 0.63393 0.0
H3441 H 0.49762 0.34298 0.62444 0.0
H3442 H 0.52713 0.37734 0.50774 0.0
H3443 H 0.5156 0.36022 0.5455 0.0
C3444 C 0.62807 0.14256 0.51153 0.0
C3445 C 0.62273 0.12753 0.49798 0.0
C3446 C 0.63807 0.14617 0.5332 0.0
C3447 C 0.66765 0.13633 0.56538 0.0
H3448 H 0.66026 0.15898 0.62206 0.0
C3449 C 0.70671 0.15556 0.65977 0.0
C3450 C 0.71179 0.17191 0.66844 0.0
C3451 C 0.69554 0.14867 0.63924 0.0
C3452 C 0.66252 0.15273 0.60633 0.0
H3453 H 0.62376 0.10446 0.49678 0.0
H3454 H 0.6412 0.11078 0.53498 0.0
H3455 H 0.64068 0.14907 0.5864 0.0
H3456 H 0.70943 0.19397 0.66168 0.0
H3457 H 0.69008 0.18196 0.62618 0.0
H3458 H 0.68962 0.14015 0.5855 0.0
C3459 C 0.63768 0.11979 0.52857 0.0
C3460 C 0.65132 0.14706 0.58589 0.0
C3461 C 0.6276 0.11614 0.50679 0.0
C3462 C 0.70576 0.18131 0.65572 0.0
C3463 C 0.69457 0.1744 0.63542 0.0
C3464 C 0.67885 0.14195 0.58598 0.0
C3465 C 0.64301 0.13486 0.54202 0.0
C3466 C 0.65396 0.13915 0.56489 0.0
C3467 C 0.68914 0.15794 0.62718 0.0
C3468 C 0.67659 0.15055 0.60637 0.0
H3469 H 0.6247 0.15172 0.50531 0.0
H3470 H 0.64221 0.15805 0.54278 0.0
H3471 H 0.67009 0.13038 0.54942 0.0
H3472 H 0.7111 0.14795 0.66911 0.0
H3473 H 0.69155 0.13593 0.63329 0.0
C3474 C 0.48753 0.11481 0.00593 0.0
C3475 C 0.50364 0.12675 0.99717 0.0
C3476 C 0.48001 0.1187 0.02604 0.0
C3477 C 0.48129 0.15506 0.05708 0.0
H3478 H 0.46221 0.12646 0.11637 0.0
C3479 C 0.47328 0.18075 0.15173 0.0
C3480 C 0.45891 0.17105 0.16669 0.0
C3481 C 0.47633 0.17407 0.1299 0.0
C3482 C 0.46721 0.13443 0.09973 0.0
H3483 H 0.52459 0.15199 0.00328 0.0
H3484 H 0.51148 0.15866 0.03795 0.0
H3485 H 0.47208 0.11675 0.08029 0.0
H3486 H 0.43644 0.14658 0.17026 0.0
H3487 H 0.44183 0.13489 0.13181 0.0
H3488 H 0.47672 0.17284 0.0764 0.0
C3489 C 0.5046 0.14638 0.02914 0.0
C3490 C 0.47288 0.12889 0.07914 0.0
C3491 C 0.51215 0.14248 0.00932 0.0
C3492 C 0.4476 0.15444 0.15913 0.0
C3493 C 0.45072 0.1477 0.13721 0.0
C3494 C 0.47558 0.16054 0.07751 0.0
C3495 C 0.48839 0.13465 0.0375 0.0
C3496 C 0.48041 0.13938 0.05796 0.0
C3497 C 0.46512 0.15748 0.12235 0.0
C3498 C 0.46894 0.15053 0.09939 0.0
H3499 H 0.48063 0.10257 0.99702 0.0
H3500 H 0.4675 0.10943 0.03216 0.0
H3501 H 0.48672 0.16325 0.04074 0.0
H3502 H 0.48236 0.19354 0.15695 0.0
H3503 H 0.48771 0.18184 0.11919 0.0
C3504 C 0.86323 0.3766 0.01608 0.0
C3505 C 0.87615 0.37966 0.99878 0.0
C3506 C 0.86063 0.36687 0.03776 0.0
C3507 C 0.86721 0.3337 0.06416 0.0
H3508 H 0.85298 0.34568 0.12651 0.0
C3509 C 0.84739 0.29374 0.15812 0.0
C3510 C 0.83194 0.29087 0.16808 0.0
C3511 C 0.85511 0.30507 0.13797 0.0
C3512 C 0.85696 0.34219 0.10924 0.0
H3513 H 0.89655 0.37485 0.99095 0.0
H3514 H 0.89197 0.35777 0.02923 0.0
H3515 H 0.86308 0.36529 0.09086 0.0
H3516 H 0.81242 0.29748 0.1642 0.0
H3517 H 0.82594 0.3172 0.12953 0.0
H3518 H 0.86079 0.31042 0.08273 0.0
C3519 C 0.88385 0.36294 0.02573 0.0
C3520 C 0.86272 0.35339 0.08881 0.0
C3521 C 0.88651 0.37279 0.00391 0.0
C3522 C 0.82432 0.29938 0.15718 0.0
C3523 C 0.83211 0.31078 0.13737 0.0
C3524 C 0.86154 0.3225 0.08478 0.0
C3525 C 0.87086 0.35989 0.04289 0.0
C3526 C 0.86737 0.34906 0.06573 0.0
C3527 C 0.84764 0.31388 0.12773 0.0
C3528 C 0.85587 0.32646 0.10719 0.0
H3529 H 0.85489 0.38155 0.0128 0.0
H3530 H 0.85028 0.36449 0.05026 0.0
H3531 H 0.87064 0.32997 0.0466 0.0
H3532 H 0.8536 0.28739 0.16603 0.0
H3533 H 0.86709 0.30725 0.13082 0.0
C3534 C 0.63076 0.48794 0.00887 0.0
C3535 C 0.62389 0.49674 0.99663 0.0
C3536 C 0.64208 0.49523 0.02891 0.0
C3537 C 0.65659 0.52709 0.07892 0.0
H3538 H 0.696 0.52203 0.07737 0.0
C3539 C 0.70737 0.55248 0.15889 0.0
C3540 C 0.71242 0.54108 0.16702 0.0
C3541 C 0.69748 0.54918 0.13698 0.0
C3542 C 0.68503 0.5235 0.07815 0.0
H3543 H 0.62323 0.52002 0.9965 0.0
H3544 H 0.64302 0.53272 0.03193 0.0
H3545 H 0.67658 0.51217 0.04151 0.0
H3546 H 0.71094 0.51725 0.15836 0.0
H3547 H 0.6938 0.51157 0.1206 0.0
H3548 H 0.66486 0.53801 0.11599 0.0
C3549 C 0.63959 0.52016 0.02576 0.0
C3550 C 0.67393 0.51786 0.05761 0.0
C3551 C 0.62828 0.51289 0.00548 0.0
C3552 C 0.70743 0.52641 0.15267 0.0
C3553 C 0.69765 0.52317 0.13085 0.0
C3554 C 0.66771 0.5327 0.09961 0.0
C3555 C 0.64679 0.51149 0.03736 0.0
C3556 C 0.65938 0.51921 0.05804 0.0
C3557 C 0.69255 0.53449 0.12271 0.0
C3558 C 0.68183 0.53055 0.09969 0.0
H3559 H 0.62764 0.47546 0.00276 0.0
H3560 H 0.64719 0.48812 0.03782 0.0
H3561 H 0.64544 0.52826 0.07974 0.0
H3562 H 0.71094 0.56387 0.16953 0.0
H3563 H 0.69379 0.55816 0.1311 0.0
C3564 C 0.5126 0.88599 0.99218 0.0
C3565 C 0.49606 0.87466 0.0 0.0
C3566 C 0.51924 0.8828 0.97021 0.0
C3567 C 0.50616 0.85764 0.91082 0.0
H3568 H 0.55031 0.86192 0.91278 0.0
C3569 C 0.52477 0.82201 0.84148 0.0
C3570 C 0.54053 0.83072 0.82943 0.0
C3571 C 0.52074 0.82933 0.86148 0.0
C3572 C 0.53807 0.8609 0.91185 0.0
H3573 H 0.47359 0.85108 0.99073 0.0
H3574 H 0.48514 0.84559 0.95288 0.0
H3575 H 0.54058 0.87157 0.9491 0.0
H3576 H 0.56458 0.85388 0.82958 0.0
H3577 H 0.55747 0.86661 0.86497 0.0
H3578 H 0.5034 0.84654 0.87401 0.0
C3579 C 0.49293 0.85706 0.96341 0.0
C3580 C 0.53251 0.86644 0.93259 0.0
C3581 C 0.48633 0.86018 0.98528 0.0
C3582 C 0.55233 0.84681 0.83841 0.0
C3583 C 0.54829 0.85411 0.85867 0.0
C3584 C 0.51167 0.85206 0.89024 0.0
C3585 C 0.50944 0.8683 0.95558 0.0
C3586 C 0.51631 0.86446 0.93253 0.0
C3587 C 0.53234 0.84551 0.87009 0.0
C3588 C 0.52749 0.85324 0.8908 0.0
H3589 H 0.52047 0.89724 0.0031 0.0
H3590 H 0.532 0.89173 0.96459 0.0
H3591 H 0.49378 0.8563 0.90993 0.0
H3592 H 0.51537 0.80957 0.83527 0.0
H3593 H 0.50846 0.82227 0.87024 0.0
C3594 C 0.15486 0.70565 0.83879 0.0
C3595 C 0.17106 0.71014 0.83005 0.0
C3596 C 0.14755 0.6943 0.85902 0.0
C3597 C 0.14989 0.65998 0.89089 0.0
H3598 H 0.12925 0.66872 0.94895 0.0
C3599 C 0.14062 0.626 0.98578 0.0
C3600 C 0.1259 0.62105 -2e-05 0.0
C3601 C 0.144 0.63584 0.96398 0.0
C3602 C 0.1347 0.66596 0.93266 0.0
H3603 H 0.19239 0.70649 0.83635 0.0
H3604 H 0.17967 0.68685 0.87132 0.0
H3605 H 0.1392 0.68828 0.91288 0.0
H3606 H 0.10315 0.62261 0.00222 0.0
H3607 H 0.10909 0.63984 0.96382 0.0
H3608 H 0.14565 0.63784 0.91055 0.0
C3609 C 0.17254 0.69193 0.86236 0.0
C3610 C 0.14042 0.67716 0.91206 0.0
C3611 C 0.17987 0.7033 0.84237 0.0
C3612 C 0.11458 0.62615 0.9917 0.0
C3613 C 0.11802 0.63609 0.9698 0.0
C3614 C 0.14414 0.64879 0.91133 0.0
C3615 C 0.15624 0.68713 0.87069 0.0
C3616 C 0.14847 0.67449 0.8913 0.0
C3617 C 0.13278 0.64102 0.9557 0.0
C3618 C 0.13689 0.65186 0.93276 0.0
H3619 H 0.14771 0.71067 0.82975 0.0
H3620 H 0.13496 0.6908 0.86508 0.0
H3621 H 0.15572 0.65741 0.87487 0.0
H3622 H 0.14972 0.62245 0.99158 0.0
H3623 H 0.15565 0.63968 0.95387 0.0
C3624 C 0.37445 0.4881 0.99311 0.0
C3625 C 0.38014 0.50474 0.00088 0.0
C3626 C 0.36462 0.48167 0.97111 0.0
C3627 C 0.35306 0.49523 0.91163 0.0
H3628 H 0.31275 0.45141 0.91371 0.0
C3629 C 0.299 0.47707 0.84194 0.0
C3630 C 0.29176 0.46123 0.83011 0.0
C3631 C 0.31034 0.48108 0.86196 0.0
C3632 C 0.32409 0.46357 0.91274 0.0
H3633 H 0.37993 0.52765 0.99142 0.0
H3634 H 0.36283 0.51646 0.95352 0.0
H3635 H 0.33207 0.46094 0.95004 0.0
H3636 H 0.29052 0.43702 0.83065 0.0
H3637 H 0.31033 0.44408 0.86606 0.0
H3638 H 0.34487 0.49809 0.87475 0.0
C3639 C 0.36614 0.50842 0.96412 0.0
C3640 C 0.33517 0.46901 0.93349 0.0
C3641 C 0.37589 0.51481 0.98603 0.0
C3642 C 0.29586 0.44933 0.8393 0.0
C3643 C 0.30717 0.45334 0.85958 0.0
C3644 C 0.34198 0.48984 0.89103 0.0
C3645 C 0.36036 0.49178 0.95639 0.0
C3646 C 0.34957 0.48508 0.93339 0.0
C3647 C 0.3147 0.46936 0.87082 0.0
C3648 C 0.3272 0.47413 0.89161 0.0
H3649 H 0.37744 0.47997 0.00413 0.0
H3650 H 0.36043 0.46883 0.96556 0.0
H3651 H 0.36424 0.50751 0.91068 0.0
H3652 H 0.29613 0.48655 0.83555 0.0
H3653 H 0.31571 0.49341 0.87056 0.0
C3654 C 0.14055 0.51327 0.48639 0.0
C3655 C 0.1259 0.50367 0.50085 0.0
C3656 C 0.14366 0.50666 0.46454 0.0
C3657 C 0.13394 0.46718 0.43319 0.0
H3658 H 0.15438 0.49666 0.37512 0.0
C3659 C 0.15425 0.44814 0.33876 0.0
C3660 C 0.17048 0.45998 0.33033 0.0
C3661 C 0.14678 0.45195 0.35904 0.0
C3662 C 0.14869 0.48828 0.3912 0.0
H3663 H 0.10306 0.47944 0.50356 0.0
H3664 H 0.10857 0.46788 0.46506 0.0
H3665 H 0.14447 0.50613 0.41104 0.0
H3666 H 0.19172 0.48494 0.33724 0.0
H3667 H 0.17871 0.49147 0.37221 0.0
H3668 H 0.13846 0.44943 0.41323 0.0
C3669 C 0.11761 0.48055 0.47087 0.0
C3670 C 0.14303 0.4937 0.41178 0.0
C3671 C 0.11443 0.48722 0.49283 0.0
C3672 C 0.17917 0.47552 0.343 0.0
C3673 C 0.17169 0.47934 0.363 0.0
C3674 C 0.13956 0.46171 0.41245 0.0
C3675 C 0.13225 0.49026 0.45646 0.0
C3676 C 0.13605 0.48343 0.43333 0.0
C3677 C 0.15535 0.46772 0.37101 0.0
C3678 C 0.14743 0.47242 0.3916 0.0
H3679 H 0.14977 0.52592 0.492 0.0
H3680 H 0.15523 0.51435 0.45418 0.0
H3681 H 0.12867 0.45901 0.44957 0.0
H3682 H 0.1472 0.43605 0.32945 0.0
H3683 H 0.13416 0.44278 0.36489 0.0
C3684 C 0.51305 0.62633 0.49087 0.0
C3685 C 0.49696 0.62213 0.49969 0.0
C3686 C 0.51969 0.63611 0.46884 0.0
C3687 C 0.50658 0.64989 0.41111 0.0
H3688 H 0.55223 0.68746 0.41062 0.0
C3689 C 0.52671 0.70552 0.3445 0.0
C3690 C 0.54134 0.71088 0.32983 0.0
C3691 C 0.52283 0.69406 0.36428 0.0
C3692 C 0.53954 0.67686 0.41039 0.0
H3693 H 0.47531 0.62506 0.49219 0.0
H3694 H 0.48688 0.64206 0.45435 0.0
H3695 H 0.54235 0.66801 0.4469 0.0
H3696 H 0.56369 0.70878 0.32524 0.0
H3697 H 0.5569 0.68879 0.36045 0.0
H3698 H 0.50354 0.65905 0.37518 0.0
C3699 C 0.49429 0.63759 0.46407 0.0
C3700 C 0.53389 0.66572 0.43109 0.0
C3701 C 0.48769 0.6279 0.48596 0.0
C3702 C 0.55231 0.7049 0.33612 0.0
C3703 C 0.54846 0.69349 0.35624 0.0
C3704 C 0.51217 0.66104 0.39063 0.0
C3705 C 0.51034 0.6418 0.45517 0.0
C3706 C 0.51718 0.65238 0.43197 0.0
C3707 C 0.5335 0.68773 0.37012 0.0
C3708 C 0.52855 0.67488 0.39037 0.0
H3709 H 0.52056 0.62215 0.501 0.0
H3710 H 0.53207 0.63908 0.4624 0.0
H3711 H 0.49378 0.6395 0.41088 0.0
H3712 H 0.51798 0.70989 0.34045 0.0
H3713 H 0.51135 0.69005 0.37498 0.0
C3714 C 0.37307 0.88572 0.49269 0.0
C3715 C 0.37743 0.87396 0.50162 0.0
C3716 C 0.36175 0.88167 0.47241 0.0
C3717 C 0.32727 0.84499 0.44082 0.0
H3718 H 0.3364 0.87396 0.3821 0.0
C3719 C 0.29358 0.81963 0.34597 0.0
C3720 C 0.28866 0.8293 0.33143 0.0
C3721 C 0.3034 0.82626 0.36774 0.0
C3722 C 0.33353 0.86586 0.39857 0.0
H3723 H 0.37358 0.84887 0.49564 0.0
H3724 H 0.35399 0.84194 0.46063 0.0
H3725 H 0.35586 0.88373 0.41831 0.0
H3726 H 0.29032 0.85363 0.32852 0.0
H3727 H 0.30753 0.86522 0.36686 0.0
H3728 H 0.30514 0.82705 0.42121 0.0
C3729 C 0.35915 0.8542 0.46945 0.0
C3730 C 0.34468 0.87145 0.41925 0.0
C3731 C 0.37049 0.85825 0.48947 0.0
C3732 C 0.29382 0.84581 0.33931 0.0
C3733 C 0.30375 0.85249 0.36118 0.0
C3734 C 0.31615 0.83946 0.42031 0.0
C3735 C 0.35448 0.86575 0.46091 0.0
C3736 C 0.34187 0.86086 0.44025 0.0
C3737 C 0.30861 0.84275 0.37564 0.0
C3738 C 0.31937 0.84963 0.39864 0.0
H3739 H 0.37818 0.89794 0.50159 0.0
H3740 H 0.35835 0.89081 0.46617 0.0
H3741 H 0.3246 0.83671 0.45702 0.0
H3742 H 0.29 0.80692 0.34047 0.0
H3743 H 0.3072 0.81852 0.37814 0.0
C3744 C 0.27101 0.14972 0.15816 0.0
C3745 C 0.26981 0.15811 0.13655 0.0
C3746 C 0.28656 0.15191 0.16581 0.0
C3747 C 0.33227 0.18101 0.15932 0.0
H3748 H 0.33584 0.14276 0.18188 0.0
C3749 C 0.3963 0.18493 0.17572 0.0
C3750 C 0.39775 0.1765 0.19708 0.0
C3751 C 0.38067 0.18273 0.16857 0.0
C3752 C 0.33503 0.15361 0.17591 0.0
H3753 H 0.28402 0.17529 0.10592 0.0
H3754 H 0.31102 0.17896 0.11915 0.0
H3755 H 0.30857 0.13878 0.16917 0.0
H3756 H 0.3839 0.15923 0.22779 0.0
H3757 H 0.35672 0.15553 0.21545 0.0
H3758 H 0.35871 0.19583 0.16604 0.0
C3759 C 0.3 0.17088 0.1304 0.0
C3760 C 0.31939 0.15132 0.16863 0.0
C3761 C 0.28448 0.16868 0.12273 0.0
C3762 C 0.38323 0.16587 0.21117 0.0
C3763 C 0.36762 0.16366 0.20401 0.0
C3764 C 0.3479 0.18329 0.16661 0.0
C3765 C 0.30125 0.16255 0.15206 0.0
C3766 C 0.31783 0.16499 0.16018 0.0
C3767 C 0.36613 0.17204 0.1826 0.0
C3768 C 0.34948 0.16962 0.17495 0.0
H3769 H 0.25996 0.14148 0.16922 0.0
H3770 H 0.28711 0.14544 0.18273 0.0
H3771 H 0.33146 0.19185 0.1533 0.0
H3772 H 0.40722 0.19321 0.16445 0.0
H3773 H 0.37994 0.18923 0.15182 0.0
C3774 C 0.83575 0.21805 0.20818 0.0
C3775 C 0.82515 0.22202 0.19419 0.0
C3776 C 0.83803 0.20474 0.20074 0.0
C3777 C 0.81861 0.1656 0.16307 0.0
H3778 H 0.8632 0.171 0.16575 0.0
C3779 C 0.8333 0.11627 0.12128 0.0
C3780 C 0.84397 0.11248 0.13546 0.0
C3781 C 0.83107 0.12969 0.12825 0.0
C3782 C 0.85064 0.16922 0.16517 0.0
H3783 H 0.80856 0.21503 0.16145 0.0
H3784 H 0.81265 0.19184 0.14836 0.0
H3785 H 0.85912 0.19428 0.1781 0.0
H3786 H 0.86073 0.11991 0.16803 0.0
H3787 H 0.8567 0.14324 0.18035 0.0
H3788 H 0.81011 0.14053 0.1502 0.0
C3789 C 0.81908 0.19896 0.16522 0.0
C3790 C 0.8483 0.18257 0.17222 0.0
C3791 C 0.81682 0.21231 0.17264 0.0
C3792 C 0.85242 0.12248 0.1567 0.0
C3793 C 0.85019 0.13592 0.16367 0.0
C3794 C 0.82094 0.15225 0.15603 0.0
C3795 C 0.82976 0.19505 0.17916 0.0
C3796 C 0.83225 0.18091 0.17131 0.0
C3797 C 0.83946 0.13966 0.14956 0.0
C3798 C 0.83698 0.15389 0.15702 0.0
H3799 H 0.84232 0.22522 0.22494 0.0
H3800 H 0.84614 0.20191 0.21212 0.0
H3801 H 0.80605 0.16383 0.16251 0.0
H3802 H 0.82665 0.10887 0.10473 0.0
H3803 H 0.8229 0.13237 0.11675 0.0
C3804 C 0.78298 0.61743 0.21011 0.0
C3805 C 0.77911 0.60289 0.1961 0.0
C3806 C 0.79631 0.63305 0.2028 0.0
C3807 C 0.82306 0.65579 0.14766 0.0
H3808 H 0.85234 0.68685 0.19929 0.0
C3809 C 0.88429 0.71677 0.12228 0.0
C3810 C 0.88819 0.7313 0.13635 0.0
C3811 C 0.87092 0.70116 0.12952 0.0
C3812 C 0.84416 0.6784 0.18465 0.0
H3813 H 0.78633 0.59337 0.16352 0.0
H3814 H 0.8097 0.62064 0.15089 0.0
H3815 H 0.8293 0.65944 0.21201 0.0
H3816 H 0.88098 0.74081 0.16896 0.0
H3817 H 0.85755 0.71355 0.18148 0.0
H3818 H 0.83793 0.67475 0.1203 0.0
C3819 C 0.80227 0.61997 0.16734 0.0
C3820 C 0.83096 0.66268 0.19194 0.0
C3821 C 0.78892 0.60433 0.17466 0.0
C3822 C 0.87837 0.72986 0.15778 0.0
C3823 C 0.86499 0.71422 0.16503 0.0
C3824 C 0.83626 0.67151 0.14037 0.0
C3825 C 0.80611 0.63452 0.18132 0.0
C3826 C 0.82024 0.65119 0.17354 0.0
C3827 C 0.86112 0.69968 0.151 0.0
C3828 C 0.84698 0.68301 0.15878 0.0
H3829 H 0.77566 0.61679 0.2267 0.0
H3830 H 0.79879 0.64403 0.2138 0.0
H3831 H 0.81488 0.64734 0.13303 0.0
H3832 H 0.89162 0.71741 0.10569 0.0
H3833 H 0.86843 0.69019 0.11848 0.0
C3834 C 0.16631 0.38343 0.28789 0.0
C3835 C 0.1766 0.39785 0.30242 0.0
C3836 C 0.16401 0.36778 0.29504 0.0
C3837 C 0.18298 0.34786 0.33347 0.0
H3838 H 0.13867 0.30842 0.32862 0.0
C3839 C 0.16793 0.28405 0.3762 0.0
C3840 C 0.15773 0.26953 0.36182 0.0
C3841 C 0.17013 0.29961 0.36877 0.0
C3842 C 0.15116 0.31927 0.32981 0.0
H3843 H 0.19259 0.4071 0.33584 0.0
H3844 H 0.18844 0.37973 0.34845 0.0
H3845 H 0.14275 0.33578 0.31619 0.0
H3846 H 0.14176 0.25998 0.32842 0.0
H3847 H 0.14573 0.28722 0.31532 0.0
H3848 H 0.19138 0.33138 0.34711 0.0
C3849 C 0.18229 0.38058 0.33136 0.0
C3850 C 0.1535 0.33496 0.3227 0.0
C3851 C 0.18459 0.39625 0.32422 0.0
C3852 C 0.1497 0.27092 0.33992 0.0
C3853 C 0.15189 0.28652 0.33249 0.0
C3854 C 0.18063 0.33218 0.34058 0.0
C3855 C 0.17195 0.36615 0.31687 0.0
C3856 C 0.16944 0.34946 0.32447 0.0
C3857 C 0.16219 0.30106 0.34679 0.0
C3858 C 0.16469 0.3177 0.33889 0.0
H3859 H 0.16001 0.38421 0.27092 0.0
H3860 H 0.15615 0.35698 0.28324 0.0
H3861 H 0.19547 0.35872 0.33467 0.0
H3862 H 0.17424 0.28344 0.39326 0.0
H3863 H 0.17792 0.3105 0.38045 0.0
C3864 C 0.61729 0.78125 0.28963 0.0
C3865 C 0.60272 0.77742 0.30351 0.0
C3866 C 0.6329 0.79458 0.29697 0.0
C3867 C 0.65561 0.82183 0.35178 0.0
H3868 H 0.68633 0.85092 0.29966 0.0
C3869 C 0.71605 0.88382 0.37616 0.0
C3870 C 0.73063 0.88784 0.36214 0.0
C3871 C 0.70053 0.87024 0.36908 0.0
C3872 C 0.67799 0.8428 0.31443 0.0
H3873 H 0.59314 0.78464 0.33603 0.0
H3874 H 0.6204 0.80801 0.34874 0.0
H3875 H 0.65907 0.82751 0.28731 0.0
H3876 H 0.74033 0.88063 0.32977 0.0
H3877 H 0.71323 0.85683 0.31751 0.0
H3878 H 0.67453 0.83715 0.37891 0.0
C3879 C 0.61977 0.80054 0.33234 0.0
C3880 C 0.66235 0.82938 0.30736 0.0
C3881 C 0.60413 0.78719 0.32499 0.0
C3882 C 0.72933 0.87794 0.3409 0.0
C3883 C 0.71378 0.86434 0.3338 0.0
C3884 C 0.67125 0.83526 0.35886 0.0
C3885 C 0.63434 0.80443 0.31837 0.0
C3886 C 0.65096 0.81873 0.32594 0.0
C3887 C 0.6992 0.86033 0.34782 0.0
C3888 C 0.68263 0.84592 0.34027 0.0
H3889 H 0.61668 0.77395 0.27302 0.0
H3890 H 0.64389 0.79706 0.286 0.0
H3891 H 0.64725 0.81372 0.36655 0.0
H3892 H 0.71658 0.8912 0.39261 0.0
H3893 H 0.68952 0.86765 0.38009 0.0
C3894 C 0.21817 0.83508 0.28776 0.0
C3895 C 0.22202 0.82443 0.30187 0.0
C3896 C 0.20484 0.83739 0.29498 0.0
C3897 C 0.1781 0.8335 0.3501 0.0
H3898 H 0.14867 0.83501 0.29849 0.0
C3899 C 0.11663 0.83254 0.37574 0.0
C3900 C 0.11254 0.84306 0.36178 0.0
C3901 C 0.13007 0.83047 0.36835 0.0
C3902 C 0.15689 0.83482 0.31311 0.0
H3903 H 0.21476 0.80775 0.33454 0.0
H3904 H 0.19141 0.8117 0.34703 0.0
H3905 H 0.17183 0.83082 0.28576 0.0
H3906 H 0.11946 0.85975 0.32916 0.0
H3907 H 0.14304 0.85621 0.31636 0.0
H3908 H 0.16317 0.83748 0.37746 0.0
C3909 C 0.19885 0.81844 0.33056 0.0
C3910 C 0.17016 0.83241 0.30582 0.0
C3911 C 0.21219 0.81611 0.32333 0.0
C3912 C 0.12223 0.85149 0.34026 0.0
C3913 C 0.13569 0.8494 0.33286 0.0
C3914 C 0.16484 0.83591 0.35739 0.0
C3915 C 0.19503 0.82912 0.31649 0.0
C3916 C 0.18091 0.83169 0.32423 0.0
C3917 C 0.13977 0.83887 0.34683 0.0
C3918 C 0.15405 0.83656 0.339 0.0
H3919 H 0.2255 0.84172 0.27115 0.0
H3920 H 0.20237 0.84587 0.28391 0.0
H3921 H 0.18631 0.83329 0.36473 0.0
H3922 H 0.10941 0.82583 0.39239 0.0
H3923 H 0.13272 0.82208 0.37933 0.0
C3924 C 0.72961 0.85114 0.84205 0.0
C3925 C 0.73099 0.84262 0.86333 0.0
C3926 C 0.71399 0.84895 0.83482 0.0
C3927 C 0.67129 0.83497 0.85944 0.0
H3928 H 0.65944 0.83055 0.78775 0.0
C3929 C 0.60439 0.81623 0.82491 0.0
C3930 C 0.60316 0.82478 0.80354 0.0
C3931 C 0.61993 0.81829 0.83231 0.0
C3932 C 0.66262 0.83194 0.80783 0.0
H3933 H 0.71704 0.82512 0.89375 0.0
H3934 H 0.68984 0.8212 0.88099 0.0
H3935 H 0.6867 0.83454 0.80044 0.0
H3936 H 0.61733 0.84223 0.77318 0.0
H3937 H 0.64438 0.84594 0.78623 0.0
H3938 H 0.64721 0.8324 0.86682 0.0
C3939 C 0.70084 0.82972 0.87006 0.0
C3940 C 0.67826 0.83424 0.81511 0.0
C3941 C 0.71643 0.8319 0.87728 0.0
C3942 C 0.61781 0.83541 0.78971 0.0
C3943 C 0.63332 0.83747 0.7971 0.0
C3944 C 0.65565 0.83268 0.85216 0.0
C3945 C 0.69942 0.8382 0.84873 0.0
C3946 C 0.68279 0.83579 0.841 0.0
C3947 C 0.63458 0.82893 0.81847 0.0
C3948 C 0.65114 0.83117 0.82627 0.0
H3949 H 0.74058 0.85956 0.83098 0.0
H3950 H 0.71337 0.85584 0.8185 0.0
H3951 H 0.67448 0.83637 0.87952 0.0
H3952 H 0.59334 0.80787 0.8359 0.0
H3953 H 0.62043 0.81136 0.84867 0.0
C3954 C 0.16595 0.78232 0.78927 0.0
C3955 C 0.17658 0.77841 0.80328 0.0
C3956 C 0.16376 0.79572 0.79651 0.0
C3957 C 0.16801 0.82267 0.8515 0.0
H3958 H 0.16633 0.85191 0.79969 0.0
C3959 C 0.16863 0.88409 0.87661 0.0
C3960 C 0.15801 0.88802 0.86258 0.0
C3961 C 0.17082 0.87069 0.86937 0.0
C3962 C 0.16657 0.84374 0.81437 0.0
H3963 H 0.19335 0.7856 0.83583 0.0
H3964 H 0.18961 0.80909 0.84837 0.0
H3965 H 0.17052 0.82873 0.78711 0.0
H3966 H 0.14125 0.88083 0.83002 0.0
H3967 H 0.14498 0.85734 0.81749 0.0
H3968 H 0.16406 0.83768 0.87877 0.0
C3969 C 0.1828 0.80164 0.83195 0.0
C3970 C 0.16899 0.83046 0.80716 0.0
C3971 C 0.185 0.78823 0.82469 0.0
C3972 C 0.14959 0.8782 0.84117 0.0
C3973 C 0.15179 0.86478 0.83391 0.0
C3974 C 0.16559 0.83595 0.85871 0.0
C3975 C 0.17215 0.80554 0.81794 0.0
C3976 C 0.16973 0.81976 0.82564 0.0
C3977 C 0.16243 0.86087 0.84793 0.0
C3978 C 0.16485 0.84665 0.84023 0.0
H3979 H 0.15924 0.775 0.7727 0.0
H3980 H 0.15529 0.79824 0.7855 0.0
H3981 H 0.16825 0.81451 0.86618 0.0
H3982 H 0.17534 0.89141 0.89318 0.0
H3983 H 0.17928 0.86817 0.88038 0.0
C3984 C 0.21329 0.39716 0.82554 0.0
C3985 C 0.2231 0.39846 0.80415 0.0
C3986 C 0.19979 0.3816 0.83282 0.0
C3987 C 0.17073 0.33902 0.80797 0.0
H3988 H 0.16308 0.32689 0.87955 0.0
C3989 C 0.12264 0.27195 0.84158 0.0
C3990 C 0.11268 0.27052 0.86282 0.0
C3991 C 0.13613 0.28757 0.8345 0.0
C3992 C 0.16493 0.33015 0.85949 0.0
H3993 H 0.2264 0.38439 0.77366 0.0
H3994 H 0.20301 0.35731 0.78651 0.0
H3995 H 0.18647 0.35417 0.8671 0.0
H3996 H 0.10914 0.28441 0.89334 0.0
H3997 H 0.13254 0.31161 0.88085 0.0
H3998 H 0.14921 0.315 0.80035 0.0
C3999 C 0.2056 0.36833 0.79748 0.0
C4000 C 0.17834 0.3458 0.85236 0.0
C4001 C 0.21909 0.38386 0.79021 0.0
C4002 C 0.11656 0.28505 0.87688 0.0
C4003 C 0.13005 0.30064 0.86982 0.0
C4004 C 0.15734 0.32337 0.8151 0.0
C4005 C 0.19577 0.367 0.81885 0.0
C4006 C 0.18141 0.35042 0.8265 0.0
C4007 C 0.13999 0.3021 0.84853 0.0
C4008 C 0.15428 0.31874 0.84094 0.0
H4009 H 0.21599 0.40817 0.83663 0.0
H4010 H 0.19235 0.38105 0.8492 0.0
H4011 H 0.17257 0.34227 0.78791 0.0
H4012 H 0.12006 0.261 0.83041 0.0
H4013 H 0.14367 0.28822 0.8182 0.0
C4014 C 0.83291 0.71647 0.62378 0.0
C4015 C 0.84359 0.7311 0.63759 0.0
C4016 C 0.83079 0.70093 0.63118 0.0
C4017 C 0.85068 0.68145 0.66833 0.0
H4018 H 0.80614 0.64214 0.6663 0.0
C4019 C 0.83633 0.61746 0.71009 0.0
C4020 C 0.82554 0.60298 0.69605 0.0
C4021 C 0.83858 0.63312 0.70309 0.0
C4022 C 0.81869 0.65295 0.6667 0.0
H4023 H 0.8605 0.74088 0.66994 0.0
H4024 H 0.85668 0.71368 0.68299 0.0
H4025 H 0.81001 0.66943 0.65408 0.0
H4026 H 0.80861 0.59361 0.66366 0.0
H4027 H 0.81266 0.62097 0.65132 0.0
H4028 H 0.85935 0.66495 0.68092 0.0
C4029 C 0.85006 0.71428 0.66629 0.0
C4030 C 0.82091 0.6686 0.65971 0.0
C4031 C 0.85217 0.72985 0.65891 0.0
C4032 C 0.81702 0.60451 0.67488 0.0
C4033 C 0.81926 0.62018 0.6679 0.0
C4034 C 0.84846 0.66579 0.67532 0.0
C4035 C 0.8393 0.69963 0.65255 0.0
C4036 C 0.83694 0.68303 0.66038 0.0
C4037 C 0.83007 0.63467 0.68192 0.0
C4038 C 0.83244 0.65134 0.67454 0.0
H4039 H 0.82616 0.71697 0.60719 0.0
H4040 H 0.82261 0.68995 0.61995 0.0
H4041 H 0.86322 0.69227 0.66871 0.0
H4042 H 0.84305 0.61673 0.72656 0.0
H4043 H 0.84682 0.64398 0.7145 0.0
C4044 C 0.27182 0.12179 0.65739 0.0
C4045 C 0.27042 0.11184 0.63615 0.0
C4046 C 0.28743 0.13524 0.66453 0.0
C4047 C 0.33306 0.15174 0.6575 0.0
H4048 H 0.33663 0.19375 0.67897 0.0
C4049 C 0.39706 0.21199 0.67419 0.0
C4050 C 0.39832 0.22179 0.69555 0.0
C4051 C 0.38149 0.19858 0.66675 0.0
C4052 C 0.33582 0.18205 0.67328 0.0
H4053 H 0.28433 0.10831 0.60565 0.0
H4054 H 0.31148 0.13182 0.618 0.0
H4055 H 0.30937 0.17035 0.66653 0.0
H4056 H 0.3842 0.2251 0.72596 0.0
H4057 H 0.35715 0.20167 0.71311 0.0
H4058 H 0.35952 0.16344 0.66426 0.0
C4059 C 0.30056 0.1291 0.62934 0.0
C4060 C 0.32019 0.16863 0.66616 0.0
C4061 C 0.28496 0.11567 0.62218 0.0
C4062 C 0.38368 0.21786 0.70934 0.0
C4063 C 0.36814 0.20448 0.70189 0.0
C4064 C 0.3487 0.16516 0.66461 0.0
C4065 C 0.30199 0.13904 0.65061 0.0
C4066 C 0.31862 0.15331 0.65821 0.0
C4067 C 0.36684 0.19469 0.68049 0.0
C4068 C 0.35026 0.18046 0.67263 0.0
H4069 H 0.26086 0.11919 0.66855 0.0
H4070 H 0.28813 0.14254 0.68118 0.0
H4071 H 0.33225 0.14003 0.65183 0.0
H4072 H 0.40809 0.21468 0.66316 0.0
H4073 H 0.3809 0.19139 0.65002 0.0
C4074 C 0.8842 0.16762 0.62391 0.0
C4075 C 0.88825 0.157 0.63766 0.0
C4076 C 0.8707 0.1696 0.63133 0.0
C4077 C 0.84349 0.1646 0.6864 0.0
H4078 H 0.81445 0.16669 0.63465 0.0
C4079 C 0.78205 0.16421 0.71131 0.0
C4080 C 0.77842 0.1751 0.69743 0.0
C4081 C 0.79539 0.16188 0.70414 0.0
C4082 C 0.82255 0.16631 0.64933 0.0
H4083 H 0.88122 0.14005 0.66996 0.0
H4084 H 0.85754 0.1434 0.6828 0.0
H4085 H 0.83769 0.16265 0.62196 0.0
H4086 H 0.78608 0.1922 0.66524 0.0
H4087 H 0.80941 0.18821 0.65285 0.0
H4088 H 0.82832 0.16826 0.71376 0.0
C4089 C 0.86496 0.15037 0.66645 0.0
C4090 C 0.83587 0.164 0.64206 0.0
C4091 C 0.87848 0.14839 0.65902 0.0
C4092 C 0.78846 0.18365 0.67626 0.0
C4093 C 0.80179 0.1813 0.66908 0.0
C4094 C 0.83015 0.1669 0.69367 0.0
C4095 C 0.8609 0.161 0.65267 0.0
C4096 C 0.84654 0.16316 0.66049 0.0
C4097 C 0.8054 0.17038 0.68292 0.0
C4098 C 0.81954 0.16783 0.67522 0.0
H4099 H 0.89148 0.17449 0.6074 0.0
H4100 H 0.86808 0.17807 0.62052 0.0
H4101 H 0.85161 0.16426 0.70107 0.0
H4102 H 0.77455 0.1574 0.7277 0.0
H4103 H 0.7977 0.15323 0.71502 0.0
C4104 C 0.04985 0.49848 0.54372 0.0
C4105 C 0.06444 0.50915 0.52982 0.0
C4106 C 0.03428 0.49632 0.53638 0.0
C4107 C 0.01183 0.50078 0.48121 0.0
H4108 H 0.98065 0.49891 0.53272 0.0
C4109 C 0.95126 0.50169 0.4555 0.0
C4110 C 0.93662 0.49101 0.46929 0.0
C4111 C 0.96679 0.50381 0.46293 0.0
C4112 C 0.98913 0.49921 0.51812 0.0
H4113 H 0.07412 0.52604 0.49741 0.0
H4114 H 0.04696 0.52236 0.48473 0.0
H4115 H 0.00792 0.50298 0.54559 0.0
H4116 H 0.92682 0.47407 0.50163 0.0
H4117 H 0.95395 0.47769 0.51448 0.0
H4118 H 0.99304 0.49702 0.45374 0.0
C4119 C 0.04753 0.51549 0.50112 0.0
C4120 C 0.00477 0.50155 0.52549 0.0
C4121 C 0.06312 0.51766 0.50846 0.0
C4122 C 0.93787 0.48246 0.49066 0.0
C4123 C 0.95343 0.4846 0.4981 0.0
C4124 C 0.99619 0.49844 0.47384 0.0
C4125 C 0.03292 0.50478 0.51498 0.0
C4126 C 0.01631 0.50237 0.50713 0.0
C4127 C 0.96808 0.4953 0.48431 0.0
C4128 C 0.98465 0.49764 0.4922 0.0
H4129 H 0.0504 0.4917 0.56025 0.0
H4130 H 0.02325 0.48782 0.54729 0.0
H4131 H 0.0203 0.50108 0.46661 0.0
H4132 H 0.95077 0.5085 0.43897 0.0
H4133 H 0.97785 0.51232 0.45209 0.0
C4134 C 0.48283 0.54519 0.50744 0.0
C4135 C 0.49131 0.55501 0.52882 0.0
C4136 C 0.48498 0.53174 0.50015 0.0
C4137 C 0.51409 0.5152 0.50716 0.0
H4138 H 0.4758 0.47329 0.48497 0.0
C4139 C 0.51803 0.45508 0.49081 0.0
C4140 C 0.50961 0.44524 0.46942 0.0
C4141 C 0.51579 0.46848 0.49805 0.0
C4142 C 0.48665 0.48497 0.49085 0.0
H4143 H 0.50859 0.55831 0.55944 0.0
H4144 H 0.51219 0.53482 0.54687 0.0
H4145 H 0.47184 0.49663 0.49748 0.0
H4146 H 0.49232 0.44183 0.43876 0.0
H4147 H 0.48856 0.46524 0.45126 0.0
H4148 H 0.5289 0.50356 0.50054 0.0
C4149 C 0.50407 0.53764 0.5355 0.0
C4150 C 0.48438 0.49835 0.49802 0.0
C4151 C 0.50192 0.55105 0.5428 0.0
C4152 C 0.49895 0.44911 0.4554 0.0
C4153 C 0.49671 0.46248 0.46265 0.0
C4154 C 0.51635 0.50183 0.5 0.0
C4155 C 0.49566 0.52784 0.51406 0.0
C4156 C 0.49807 0.51363 0.50628 0.0
C4157 C 0.50509 0.47232 0.48408 0.0
C4158 C 0.50267 0.48655 0.49177 0.0
H4159 H 0.47456 0.5479 0.49625 0.0
H4160 H 0.47845 0.52456 0.48338 0.0
H4161 H 0.52494 0.52688 0.51304 0.0
H4162 H 0.52633 0.45245 0.50203 0.0
H4163 H 0.52229 0.47569 0.51482 0.0
C4164 C 0.55201 0.05037 0.45551 0.0
C4165 C 0.55578 0.06494 0.46936 0.0
C4166 C 0.53858 0.03477 0.4627 0.0
C4167 C 0.51126 0.01213 0.51744 0.0
H4168 H 0.48242 0.98104 0.46549 0.0
C4169 C 0.44976 0.95129 0.54229 0.0
C4170 C 0.4459 0.93671 0.52838 0.0
C4171 C 0.46319 0.96688 0.53507 0.0
C4172 C 0.49047 0.98949 0.48022 0.0
H4173 H 0.54829 0.07453 0.50155 0.0
H4174 H 0.52478 0.04729 0.51399 0.0
H4175 H 0.50566 0.00838 0.45297 0.0
H4176 H 0.45323 0.9271 0.49604 0.0
H4177 H 0.47677 0.95431 0.48356 0.0
H4178 H 0.49609 0.99323 0.54469 0.0
C4179 C 0.53236 0.04792 0.49775 0.0
C4180 C 0.50379 0.00517 0.47305 0.0
C4181 C 0.54579 0.06355 0.49054 0.0
C4182 C 0.45581 0.93809 0.5071 0.0
C4183 C 0.46926 0.9537 0.49986 0.0
C4184 C 0.49795 0.99644 0.52462 0.0
C4185 C 0.52859 0.03334 0.48391 0.0
C4186 C 0.51435 0.01669 0.49157 0.0
C4187 C 0.47311 0.96829 0.51377 0.0
C4188 C 0.48738 0.98492 0.5061 0.0
H4189 H 0.55946 0.05097 0.43912 0.0
H4190 H 0.53618 0.02377 0.45182 0.0
H4191 H 0.51931 0.02058 0.53217 0.0
H4192 H 0.44237 0.95071 0.55876 0.0
H4193 H 0.46565 0.97787 0.546 0.0
C4194 C 0.51839 0.06318 0.99232 0.0
C4195 C 0.51 0.06452 0.97082 0.0
C4196 C 0.51615 0.04757 -0.00026 0.0
C4197 C 0.48693 0.00193 0.99288 0.0
H4198 H 0.52513 0.99814 0.015 0.0
C4199 C 0.48277 0.93774 0.00886 0.0
C4200 C 0.49121 0.93624 0.03016 0.0
C4201 C 0.48503 0.95341 0.00176 0.0
C4202 C 0.5143 0.99901 0.00914 0.0
H4203 H 0.49276 0.0505 0.94016 0.0
H4204 H 0.48899 0.0234 0.953 0.0
H4205 H 0.52919 0.02548 0.00255 0.0
H4206 H 0.50857 0.95003 0.06081 0.0
H4207 H 0.51237 0.97726 0.04855 0.0
H4208 H 0.47204 0.97547 -0.00054 0.0
C4209 C 0.49712 0.03435 0.96433 0.0
C4210 C 0.51663 0.01469 0.00202 0.0
C4211 C 0.49937 0.04993 0.95689 0.0
C4212 C 0.50192 0.95074 0.04423 0.0
C4213 C 0.50418 0.96638 0.03712 0.0
C4214 C 0.4846 0.98626 1e-05 0.0
C4215 C 0.50546 0.03296 0.98587 0.0
C4216 C 0.50297 0.01633 0.99375 0.0
C4217 C 0.49579 0.96792 0.01578 0.0
C4218 C 0.49826 0.9846 0.0082 0.0
H4219 H 0.52667 0.07417 0.00346 0.0
H4220 H 0.52263 0.04692 0.01658 0.0
H4221 H 0.4761 0.0028 0.98699 0.0
H4222 H 0.47443 0.92683 0.99761 0.0
H4223 H 0.47852 0.95418 0.98505 0.0
C4224 C 0.93707 0.45465 0.99141 0.0
C4225 C 0.93571 0.44486 0.96998 0.0
C4226 C 0.95271 0.4679 0.99897 0.0
C4227 C 0.99836 0.48409 0.99259 0.0
H4228 H 0.00221 0.52624 0.014 0.0
C4229 C 0.06258 0.54418 0.0087 0.0
C4230 C 0.06398 0.55425 0.02979 0.0
C4231 C 0.04695 0.53072 0.00157 0.0
C4232 C 0.00132 0.51449 0.00835 0.0
H4233 H 0.94975 0.44136 0.93965 0.0
H4234 H 0.97693 0.4645 0.95273 0.0
H4235 H 0.97489 0.50296 0.0015 0.0
H4236 H 0.05004 0.55794 0.06008 0.0
H4237 H 0.02289 0.53443 0.04779 0.0
H4238 H 0.02479 0.49563 -0.00057 0.0
C4239 C 0.96596 0.46182 0.9639 0.0
C4240 C 0.98565 0.50114 0.0012 0.0
C4241 C 0.95034 0.44861 0.95631 0.0
C4242 C 0.04942 0.5505 0.04365 0.0
C4243 C 0.03381 0.53706 0.03652 0.0
C4244 C 0.01403 0.49744 -0.00024 0.0
C4245 C 0.96734 0.47164 0.9853 0.0
C4246 C 0.98398 0.48578 0.9932 0.0
C4247 C 0.03237 0.52703 0.01537 0.0
C4248 C 0.0157 0.51281 0.00771 0.0
H4249 H 0.92605 0.45212 0.00236 0.0
H4250 H 0.95336 0.47511 0.01571 0.0
H4251 H 0.99747 0.47235 0.98689 0.0
H4252 H 0.07354 0.54671 0.99761 0.0
H4253 H 0.04626 0.52336 0.98502 0.0
C4254 C 0.54547 0.48125 0.99251 0.0
C4255 C 0.55521 0.49011 0.97126 0.0
C4256 C 0.53185 0.48302 0.00015 0.0
C4257 C 0.50246 0.4964 0.97639 0.0
H4258 H 0.49493 0.50028 0.04823 0.0
C4259 C 0.45521 0.51601 0.01111 0.0
C4260 C 0.44513 0.50744 0.03223 0.0
C4261 C 0.46849 0.51361 0.00387 0.0
C4262 C 0.49674 0.49902 0.02811 0.0
H4263 H 0.55828 0.50778 0.9414 0.0
H4264 H 0.5347 0.51097 0.95487 0.0
H4265 H 0.51829 0.49648 0.03524 0.0
H4266 H 0.44116 0.48965 0.0624 0.0
H4267 H 0.46426 0.48538 0.04962 0.0
H4268 H 0.48096 0.499 0.96923 0.0
C4269 C 0.53742 0.50249 0.96544 0.0
C4270 C 0.51013 0.49683 0.02066 0.0
C4271 C 0.55102 0.50074 0.95782 0.0
C4272 C 0.44869 0.49647 0.04604 0.0
C4273 C 0.46199 0.49409 0.03881 0.0
C4274 C 0.48909 0.49859 0.98382 0.0
C4275 C 0.52766 0.49365 0.98668 0.0
C4276 C 0.51319 0.49558 0.9947 0.0
C4277 C 0.47202 0.5026 0.0176 0.0
C4278 C 0.48611 0.50001 0.00977 0.0
H4279 H 0.5483 0.4729 0.00321 0.0
H4280 H 0.52446 0.47587 0.01641 0.0
H4281 H 0.50428 0.49518 0.95625 0.0
H4282 H 0.45289 0.52463 0.00015 0.0
H4283 H 0.47613 0.52055 0.98767 0.0
loop_
_geom_bond_atom_site_label_1
_geom_bond_atom_site_label_2
_geom_bond_distance
_geom_bond_site_symmetry_2
_ccdc_geom_bond_type
Co0 O2 2.143 . S
Co0 O8 2.074 . S
Co0 O11 2.093 . S
Co0 O24 2.097 . S
Co0 N41 2.151 . S
Co0 N49 2.214 . S
Co1 O2 2.160 . S
Co1 O7 2.058 . S
Co1 O17 2.057 . S
Co1 O32 2.037 . S
Co1 N36 2.145 . S
Co1 N57 2.257 . S
O2 Co0 2.143 . S
O2 Co1 2.160 . S
C3 O4 1.278 . S
C3 O11 1.224 . S
O4 C3 1.278 . S
C5 O6 1.245 . S
C5 O17 1.232 . S
O6 C5 1.245 . S
O7 Co1 2.058 . S
O7 C33 1.269 . S
O8 Co0 2.074 . S
O8 C33 1.257 . S
H9 C34 0.930 . S
H10 C40 0.930 . S
O11 Co0 2.093 . S
O11 C3 1.224 . S
H12 C44 0.929 . S
H13 C46 0.930 . S
H14 C47 0.930 . S
H15 C45 0.929 . S
H16 C48 0.928 . S
O17 Co1 2.057 . S
O17 C5 1.232 . S
H18 C37 0.929 . S
H19 C38 0.929 . S
H20 C50 0.931 . S
H21 C42 0.929 . S
H22 C51 0.930 . S
H23 C43 0.931 . S
O24 Co0 2.097 . S
O24 C52 1.214 . S
H25 C53 0.929 . S
H26 C54 0.929 . S
H27 C55 0.930 . S
H28 C56 0.929 1_556 S
H29 C58 0.930 . S
H30 C35 0.930 . S
H31 C39 0.930 . S
O32 Co1 2.037 . S
O32 C52 1.234 . S
C33 O7 1.269 . S
C33 O8 1.257 . S
C34 H9 0.930 . S
C34 C37 1.388 . S
C34 C39 1.418 . S
C35 H30 0.930 . S
C35 C38 1.404 . S
C35 C39 1.353 . S
N36 Co1 2.145 . S
N36 C37 1.397 . S
N36 C38 1.334 . S
C37 H18 0.929 . S
C37 C34 1.388 . S
C37 N36 1.397 . S
C38 H19 0.929 . S
C38 C35 1.404 . S
C38 N36 1.334 . S
C39 H31 0.930 . S
C39 C34 1.418 . S
C39 C35 1.353 . S
C40 H10 0.930 . S
C40 N41 1.330 . S
C40 C42 1.446 . S
N41 Co0 2.151 . S
N41 C40 1.330 . S
N41 C45 1.418 . S
C42 H21 0.929 . S
C42 C40 1.446 . S
C42 C43 1.332 . S
C43 H23 0.931 . S
C43 C42 1.332 . S
C43 C44 1.267 . S
C44 H12 0.929 . S
C44 C43 1.267 . S
C44 C45 1.251 . S
C45 H15 0.929 . S
C45 N41 1.418 . S
C45 C44 1.251 . S
C46 H13 0.930 . S
C46 C48 1.406 . S
C46 C51 1.261 . S
C47 H14 0.930 . S
C47 N49 1.325 . S
C47 C50 1.357 . S
C48 H16 0.928 . S
C48 C46 1.406 . S
C48 N49 1.261 . S
N49 Co0 2.214 . S
N49 C47 1.325 . S
N49 C48 1.261 . S
C50 H20 0.931 . S
C50 C47 1.357 . S
C50 C51 1.312 . S
C51 H22 0.930 . S
C51 C46 1.261 . S
C51 C50 1.312 . S
C52 O24 1.214 . S
C52 O32 1.234 . S
C53 H25 0.929 . S
C53 C56 1.391 . S
C53 C58 1.391 . S
C54 H26 0.929 . S
C54 C55 1.390 . S
C54 N57 1.391 . S
C55 H27 0.930 . S
C55 C54 1.390 . S
C55 C56 1.392 . S
C56 H28 0.929 1_554 S
C56 C53 1.391 . S
C56 C55 1.392 . S
N57 Co1 2.257 . S
N57 C54 1.391 . S
N57 C58 1.388 . S
C58 H29 0.930 . S
C58 C53 1.391 . S
C58 N57 1.388 . S
Co59 O61 2.143 . S
Co59 O67 2.074 . S
Co59 O70 2.093 . S
Co59 O83 2.097 . S
Co59 N100 2.151 . S
Co59 N108 2.214 . S
Co60 O61 2.160 . S
Co60 O66 2.058 . S
Co60 O76 2.057 . S
Co60 O91 2.037 . S
Co60 N95 2.145 . S
Co60 N116 2.257 . S
O61 Co59 2.143 . S
O61 Co60 2.160 . S
C62 O63 1.278 . S
C62 O70 1.224 . S
O63 C62 1.278 . S
C64 O65 1.245 . S
C64 O76 1.232 . S
O65 C64 1.245 . S
O66 Co60 2.058 . S
O66 C92 1.269 . S
O67 Co59 2.074 . S
O67 C92 1.257 . S
H68 C93 0.930 . S
H69 C99 0.930 . S
O70 Co59 2.093 . S
O70 C62 1.224 . S
H71 C103 0.929 . S
H72 C105 0.930 . S
H73 C106 0.930 . S
H74 C104 0.929 . S
H75 C107 0.928 . S
O76 Co60 2.057 . S
O76 C64 1.232 . S
H77 C96 0.929 . S
H78 C97 0.929 . S
H79 C109 0.931 . S
H80 C101 0.929 . S
H81 C110 0.930 . S
H82 C102 0.931 . S
O83 Co59 2.097 . S
O83 C111 1.214 . S
H84 C112 0.929 . S
H85 C113 0.929 . S
H86 C114 0.930 . S
H87 C115 0.929 1_556 S
H88 C117 0.930 . S
H89 C94 0.930 . S
H90 C98 0.930 . S
O91 Co60 2.037 . S
O91 C111 1.234 . S
C92 O66 1.269 . S
C92 O67 1.257 . S
C93 H68 0.930 . S
C93 C96 1.388 . S
C93 C98 1.418 . S
C94 H89 0.930 . S
C94 C97 1.404 . S
C94 C98 1.353 . S
N95 Co60 2.145 . S
N95 C96 1.397 . S
N95 C97 1.334 . S
C96 H77 0.929 . S
C96 C93 1.388 . S
C96 N95 1.397 . S
C97 H78 0.929 . S
C97 C94 1.404 . S
C97 N95 1.334 . S
C98 H90 0.930 . S
C98 C93 1.418 . S
C98 C94 1.353 . S
C99 H69 0.930 . S
C99 N100 1.330 . S
C99 C101 1.446 . S
N100 Co59 2.151 . S
N100 C99 1.330 . S
N100 C104 1.418 . S
C101 H80 0.929 . S
C101 C99 1.446 . S
C101 C102 1.332 . S
C102 H82 0.931 . S
C102 C101 1.332 . S
C102 C103 1.267 . S
C103 H71 0.929 . S
C103 C102 1.267 . S
C103 C104 1.251 . S
C104 H74 0.929 . S
C104 N100 1.418 . S
C104 C103 1.251 . S
C105 H72 0.930 . S
C105 C107 1.406 . S
C105 C110 1.261 . S
C106 H73 0.930 . S
C106 N108 1.325 . S
C106 C109 1.357 . S
C107 H75 0.928 . S
C107 C105 1.406 . S
C107 N108 1.261 . S
N108 Co59 2.214 . S
N108 C106 1.325 . S
N108 C107 1.261 . S
C109 H79 0.931 . S
C109 C106 1.357 . S
C109 C110 1.312 . S
C110 H81 0.930 . S
C110 C105 1.261 . S
C110 C109 1.312 . S
C111 O83 1.214 . S
C111 O91 1.234 . S
C112 H84 0.929 . S
C112 C115 1.391 . S
C112 C117 1.391 . S
C113 H85 0.929 . S
C113 C114 1.390 . S
C113 N116 1.391 . S
C114 H86 0.930 . S
C114 C113 1.390 . S
C114 C115 1.392 . S
C115 H87 0.929 1_554 S
C115 C112 1.391 . S
C115 C114 1.392 . S
N116 Co60 2.257 . S
N116 C113 1.391 . S
N116 C117 1.388 . S
C117 H88 0.930 . S
C117 C112 1.391 . S
C117 N116 1.388 . S
Co118 O120 2.143 . S
Co118 O126 2.074 . S
Co118 O129 2.093 . S
Co118 O142 2.097 . S
Co118 N159 2.151 . S
Co118 N167 2.214 . S
Co119 O120 2.160 . S
Co119 O125 2.058 . S
Co119 O135 2.057 . S
Co119 O150 2.037 . S
Co119 N154 2.145 . S
Co119 N175 2.257 . S
O120 Co118 2.143 . S
O120 Co119 2.160 . S
C121 O122 1.278 . S
C121 O129 1.224 . S
O122 C121 1.278 . S
C123 O124 1.245 . S
C123 O135 1.232 . S
O124 C123 1.245 . S
O125 Co119 2.058 . S
O125 C151 1.269 . S
O126 Co118 2.074 . S
O126 C151 1.257 . S
H127 C152 0.930 . S
H128 C158 0.930 . S
O129 Co118 2.093 . S
O129 C121 1.224 . S
H130 C162 0.929 . S
H131 C164 0.930 . S
H132 C165 0.930 . S
H133 C163 0.929 . S
H134 C166 0.928 . S
O135 Co119 2.057 . S
O135 C123 1.232 . S
H136 C155 0.929 . S
H137 C156 0.929 . S
H138 C168 0.931 . S
H139 C160 0.929 . S
H140 C169 0.930 . S
H141 C161 0.931 . S
O142 Co118 2.097 . S
O142 C170 1.214 . S
H143 C171 0.929 . S
H144 C172 0.929 . S
H145 C173 0.930 . S
H146 C174 0.929 1_556 S
H147 C176 0.930 . S
H148 C153 0.930 . S
H149 C157 0.930 . S
O150 Co119 2.037 . S
O150 C170 1.234 . S
C151 O125 1.269 . S
C151 O126 1.257 . S
C152 H127 0.930 . S
C152 C155 1.388 . S
C152 C157 1.418 . S
C153 H148 0.930 . S
C153 C156 1.404 . S
C153 C157 1.353 . S
N154 Co119 2.145 . S
N154 C155 1.397 . S
N154 C156 1.334 . S
C155 H136 0.929 . S
C155 C152 1.388 . S
C155 N154 1.397 . S
C156 H137 0.929 . S
C156 C153 1.404 . S
C156 N154 1.334 . S
C157 H149 0.930 . S
C157 C152 1.418 . S
C157 C153 1.353 . S
C158 H128 0.930 . S
C158 N159 1.330 . S
C158 C160 1.446 . S
N159 Co118 2.151 . S
N159 C158 1.330 . S
N159 C163 1.418 . S
C160 H139 0.929 . S
C160 C158 1.446 . S
C160 C161 1.332 . S
C161 H141 0.931 . S
C161 C160 1.332 . S
C161 C162 1.267 . S
C162 H130 0.929 . S
C162 C161 1.267 . S
C162 C163 1.251 . S
C163 H133 0.929 . S
C163 N159 1.418 . S
C163 C162 1.251 . S
C164 H131 0.930 . S
C164 C166 1.406 . S
C164 C169 1.261 . S
C165 H132 0.930 . S
C165 N167 1.325 . S
C165 C168 1.357 . S
C166 H134 0.928 . S
C166 C164 1.406 . S
C166 N167 1.261 . S
N167 Co118 2.214 . S
N167 C165 1.325 . S
N167 C166 1.261 . S
C168 H138 0.931 . S
C168 C165 1.357 . S
C168 C169 1.312 . S
C169 H140 0.930 . S
C169 C164 1.261 . S
C169 C168 1.312 . S
C170 O142 1.214 . S
C170 O150 1.234 . S
C171 H143 0.929 . S
C171 C174 1.391 . S
C171 C176 1.391 . S
C172 H144 0.929 . S
C172 C173 1.390 . S
C172 N175 1.391 . S
C173 H145 0.930 . S
C173 C172 1.390 . S
C173 C174 1.392 . S
C174 H146 0.929 1_554 S
C174 C171 1.391 . S
C174 C173 1.392 . S
N175 Co119 2.257 . S
N175 C172 1.391 . S
N175 C176 1.388 . S
C176 H147 0.930 . S
C176 C171 1.391 . S
C176 N175 1.388 . S
Co177 O179 2.143 . S
Co177 O185 2.074 . S
Co177 O188 2.093 . S
Co177 O201 2.097 . S
Co177 N218 2.151 . S
Co177 N226 2.214 . S
Co178 O179 2.160 . S
Co178 O184 2.058 . S
Co178 O194 2.057 . S
Co178 O209 2.037 . S
Co178 N213 2.145 . S
Co178 N234 2.257 . S
O179 Co177 2.143 . S
O179 Co178 2.160 . S
C180 O181 1.278 . S
C180 O188 1.224 . S
O181 C180 1.278 . S
C182 O183 1.245 . S
C182 O194 1.232 . S
O183 C182 1.245 . S
O184 Co178 2.058 . S
O184 C210 1.269 . S
O185 Co177 2.074 . S
O185 C210 1.257 . S
H186 C211 0.930 . S
H187 C217 0.930 . S
O188 Co177 2.093 . S
O188 C180 1.224 . S
H189 C221 0.929 . S
H190 C223 0.930 . S
H191 C224 0.930 . S
H192 C222 0.929 . S
H193 C225 0.928 . S
O194 Co178 2.057 . S
O194 C182 1.232 . S
H195 C214 0.929 . S
H196 C215 0.929 . S
H197 C227 0.931 . S
H198 C219 0.929 . S
H199 C228 0.930 . S
H200 C220 0.931 . S
O201 Co177 2.097 . S
O201 C229 1.214 . S
H202 C230 0.929 . S
H203 C231 0.929 . S
H204 C232 0.930 . S
H205 C233 0.929 . S
H206 C235 0.930 . S
H207 C212 0.930 . S
H208 C216 0.930 . S
O209 Co178 2.037 . S
O209 C229 1.234 . S
C210 O184 1.269 . S
C210 O185 1.257 . S
C211 H186 0.930 . S
C211 C214 1.388 . S
C211 C216 1.418 . S
C212 H207 0.930 . S
C212 C215 1.404 . S
C212 C216 1.353 . S
N213 Co178 2.145 . S
N213 C214 1.397 . S
N213 C215 1.334 . S
C214 H195 0.929 . S
C214 C211 1.388 . S
C214 N213 1.397 . S
C215 H196 0.929 . S
C215 C212 1.404 . S
C215 N213 1.334 . S
C216 H208 0.930 . S
C216 C211 1.418 . S
C216 C212 1.353 . S
C217 H187 0.930 . S
C217 N218 1.330 . S
C217 C219 1.446 . S
N218 Co177 2.151 . S
N218 C217 1.330 . S
N218 C222 1.418 . S
C219 H198 0.929 . S
C219 C217 1.446 . S
C219 C220 1.332 . S
C220 H200 0.931 . S
C220 C219 1.332 . S
C220 C221 1.267 . S
C221 H189 0.929 . S
C221 C220 1.267 . S
C221 C222 1.251 . S
C222 H192 0.929 . S
C222 N218 1.418 . S
C222 C221 1.251 . S
C223 H190 0.930 . S
C223 C225 1.406 . S
C223 C228 1.261 . S
C224 H191 0.930 . S
C224 N226 1.325 . S
C224 C227 1.357 . S
C225 H193 0.928 . S
C225 C223 1.406 . S
C225 N226 1.261 . S
N226 Co177 2.214 . S
N226 C224 1.325 . S
N226 C225 1.261 . S
C227 H197 0.931 . S
C227 C224 1.357 . S
C227 C228 1.312 . S
C228 H199 0.930 . S
C228 C223 1.261 . S
C228 C227 1.312 . S
C229 O201 1.214 . S
C229 O209 1.234 . S
C230 H202 0.929 . S
C230 C233 1.391 . S
C230 C235 1.391 . S
C231 H203 0.929 . S
C231 C232 1.390 . S
C231 N234 1.391 . S
C232 H204 0.930 . S
C232 C231 1.390 . S
C232 C233 1.392 . S
C233 H205 0.929 . S
C233 C230 1.391 . S
C233 C232 1.392 . S
N234 Co178 2.257 . S
N234 C231 1.391 . S
N234 C235 1.388 . S
C235 H206 0.930 . S
C235 C230 1.391 . S
C235 N234 1.388 . S
Co236 O238 2.143 . S
Co236 O244 2.074 . S
Co236 O247 2.093 . S
Co236 O260 2.097 . S
Co236 N277 2.151 . S
Co236 N285 2.214 . S
Co237 O238 2.160 . S
Co237 O243 2.058 . S
Co237 O253 2.057 . S
Co237 O268 2.037 . S
Co237 N272 2.145 . S
Co237 N293 2.257 . S
O238 Co236 2.143 . S
O238 Co237 2.160 . S
C239 O240 1.278 . S
C239 O247 1.224 . S
O240 C239 1.278 . S
C241 O242 1.245 . S
C241 O253 1.232 . S
O242 C241 1.245 . S
O243 Co237 2.058 . S
O243 C269 1.269 . S
O244 Co236 2.074 . S
O244 C269 1.257 . S
H245 C270 0.930 . S
H246 C276 0.930 . S
O247 Co236 2.093 . S
O247 C239 1.224 . S
H248 C280 0.929 . S
H249 C282 0.930 . S
H250 C283 0.930 . S
H251 C281 0.929 . S
H252 C284 0.928 . S
O253 Co237 2.057 . S
O253 C241 1.232 . S
H254 C273 0.929 . S
H255 C274 0.929 . S
H256 C286 0.931 . S
H257 C278 0.929 . S
H258 C287 0.930 . S
H259 C279 0.931 . S
O260 Co236 2.097 . S
O260 C288 1.214 . S
H261 C289 0.929 . S
H262 C290 0.929 . S
H263 C291 0.930 . S
H264 C292 0.929 . S
H265 C294 0.930 . S
H266 C271 0.930 . S
H267 C275 0.930 . S
O268 Co237 2.037 . S
O268 C288 1.234 . S
C269 O243 1.269 . S
C269 O244 1.257 . S
C270 H245 0.930 . S
C270 C273 1.388 . S
C270 C275 1.418 . S
C271 H266 0.930 . S
C271 C274 1.404 . S
C271 C275 1.353 . S
N272 Co237 2.145 . S
N272 C273 1.397 . S
N272 C274 1.334 . S
C273 H254 0.929 . S
C273 C270 1.388 . S
C273 N272 1.397 . S
C274 H255 0.929 . S
C274 C271 1.404 . S
C274 N272 1.334 . S
C275 H267 0.930 . S
C275 C270 1.418 . S
C275 C271 1.353 . S
C276 H246 0.930 . S
C276 N277 1.330 . S
C276 C278 1.446 . S
N277 Co236 2.151 . S
N277 C276 1.330 . S
N277 C281 1.418 . S
C278 H257 0.929 . S
C278 C276 1.446 . S
C278 C279 1.332 . S
C279 H259 0.931 . S
C279 C278 1.332 . S
C279 C280 1.267 . S
C280 H248 0.929 . S
C280 C279 1.267 . S
C280 C281 1.251 . S
C281 H251 0.929 . S
C281 N277 1.418 . S
C281 C280 1.251 . S
C282 H249 0.930 . S
C282 C284 1.406 . S
C282 C287 1.261 . S
C283 H250 0.930 . S
C283 N285 1.325 . S
C283 C286 1.357 . S
C284 H252 0.928 . S
C284 C282 1.406 . S
C284 N285 1.261 . S
N285 Co236 2.214 . S
N285 C283 1.325 . S
N285 C284 1.261 . S
C286 H256 0.931 . S
C286 C283 1.357 . S
C286 C287 1.312 . S
C287 H258 0.930 . S
C287 C282 1.261 . S
C287 C286 1.312 . S
C288 O260 1.214 . S
C288 O268 1.234 . S
C289 H261 0.929 . S
C289 C292 1.391 . S
C289 C294 1.391 . S
C290 H262 0.929 . S
C290 C291 1.390 . S
C290 N293 1.391 . S
C291 H263 0.930 . S
C291 C290 1.390 . S
C291 C292 1.392 . S
C292 H264 0.929 . S
C292 C289 1.391 . S
C292 C291 1.392 . S
N293 Co237 2.257 . S
N293 C290 1.391 . S
N293 C294 1.388 . S
C294 H265 0.930 . S
C294 C289 1.391 . S
C294 N293 1.388 . S
Co295 O297 2.143 . S
Co295 O303 2.074 . S
Co295 O306 2.093 . S
Co295 O319 2.097 . S
Co295 N336 2.151 . S
Co295 N344 2.214 . S
Co296 O297 2.160 . S
Co296 O302 2.058 . S
Co296 O312 2.057 . S
Co296 O327 2.037 . S
Co296 N331 2.145 . S
Co296 N352 2.257 . S
O297 Co295 2.143 . S
O297 Co296 2.160 . S
C298 O299 1.278 . S
C298 O306 1.224 . S
O299 C298 1.278 . S
C300 O301 1.245 . S
C300 O312 1.232 . S
O301 C300 1.245 . S
O302 Co296 2.058 . S
O302 C328 1.269 . S
O303 Co295 2.074 . S
O303 C328 1.257 . S
H304 C329 0.930 . S
H305 C335 0.930 . S
O306 Co295 2.093 . S
O306 C298 1.224 . S
H307 C339 0.929 . S
H308 C341 0.930 . S
H309 C342 0.930 . S
H310 C340 0.929 . S
H311 C343 0.928 . S
O312 Co296 2.057 . S
O312 C300 1.232 . S
H313 C332 0.929 . S
H314 C333 0.929 . S
H315 C345 0.931 . S
H316 C337 0.929 . S
H317 C346 0.930 . S
H318 C338 0.931 . S
O319 Co295 2.097 . S
O319 C347 1.214 . S
H320 C348 0.929 . S
H321 C349 0.929 . S
H322 C350 0.930 . S
H323 C351 0.929 . S
H324 C353 0.930 . S
H325 C330 0.930 . S
H326 C334 0.930 . S
O327 Co296 2.037 . S
O327 C347 1.234 . S
C328 O302 1.269 . S
C328 O303 1.257 . S
C329 H304 0.930 . S
C329 C332 1.388 . S
C329 C334 1.418 . S
C330 H325 0.930 . S
C330 C333 1.404 . S
C330 C334 1.353 . S
N331 Co296 2.145 . S
N331 C332 1.397 . S
N331 C333 1.334 . S
C332 H313 0.929 . S
C332 C329 1.388 . S
C332 N331 1.397 . S
C333 H314 0.929 . S
C333 C330 1.404 . S
C333 N331 1.334 . S
C334 H326 0.930 . S
C334 C329 1.418 . S
C334 C330 1.353 . S
C335 H305 0.930 . S
C335 N336 1.330 . S
C335 C337 1.446 . S
N336 Co295 2.151 . S
N336 C335 1.330 . S
N336 C340 1.418 . S
C337 H316 0.929 . S
C337 C335 1.446 . S
C337 C338 1.332 . S
C338 H318 0.931 . S
C338 C337 1.332 . S
C338 C339 1.267 . S
C339 H307 0.929 . S
C339 C338 1.267 . S
C339 C340 1.251 . S
C340 H310 0.929 . S
C340 N336 1.418 . S
C340 C339 1.251 . S
C341 H308 0.930 . S
C341 C343 1.406 . S
C341 C346 1.261 . S
C342 H309 0.930 . S
C342 N344 1.325 . S
C342 C345 1.357 . S
C343 H311 0.928 . S
C343 C341 1.406 . S
C343 N344 1.261 . S
N344 Co295 2.214 . S
N344 C342 1.325 . S
N344 C343 1.261 . S
C345 H315 0.931 . S
C345 C342 1.357 . S
C345 C346 1.312 . S
C346 H317 0.930 . S
C346 C341 1.261 . S
C346 C345 1.312 . S
C347 O319 1.214 . S
C347 O327 1.234 . S
C348 H320 0.929 . S
C348 C351 1.391 . S
C348 C353 1.391 . S
C349 H321 0.929 . S
C349 C350 1.390 . S
C349 N352 1.391 . S
C350 H322 0.930 . S
C350 C349 1.390 . S
C350 C351 1.392 . S
C351 H323 0.929 . S
C351 C348 1.391 . S
C351 C350 1.392 . S
N352 Co296 2.257 . S
N352 C349 1.391 . S
N352 C353 1.388 . S
C353 H324 0.930 . S
C353 C348 1.391 . S
C353 N352 1.388 . S
Co354 O356 2.143 . S
Co354 O362 2.074 . S
Co354 O365 2.093 . S
Co354 O378 2.097 . S
Co354 N395 2.151 . S
Co354 N403 2.214 . S
Co355 O356 2.160 . S
Co355 O361 2.058 . S
Co355 O371 2.057 . S
Co355 O386 2.037 . S
Co355 N390 2.145 . S
Co355 N411 2.257 . S
O356 Co354 2.143 . S
O356 Co355 2.160 . S
C357 O358 1.278 . S
C357 O365 1.224 . S
O358 C357 1.278 . S
C359 O360 1.245 . S
C359 O371 1.232 . S
O360 C359 1.245 . S
O361 Co355 2.058 . S
O361 C387 1.269 . S
O362 Co354 2.074 . S
O362 C387 1.257 . S
H363 C388 0.930 . S
H364 C394 0.930 . S
O365 Co354 2.093 . S
O365 C357 1.224 . S
H366 C398 0.929 . S
H367 C400 0.930 . S
H368 C401 0.930 . S
H369 C399 0.929 . S
H370 C402 0.928 . S
O371 Co355 2.057 . S
O371 C359 1.232 . S
H372 C391 0.929 . S
H373 C392 0.929 . S
H374 C404 0.931 . S
H375 C396 0.929 . S
H376 C405 0.930 . S
H377 C397 0.931 . S
O378 Co354 2.097 . S
O378 C406 1.214 . S
H379 C407 0.929 . S
H380 C408 0.929 . S
H381 C409 0.930 . S
H382 C410 0.929 1_554 S
H383 C412 0.930 . S
H384 C389 0.930 . S
H385 C393 0.930 . S
O386 Co355 2.037 . S
O386 C406 1.234 . S
C387 O361 1.269 . S
C387 O362 1.257 . S
C388 H363 0.930 . S
C388 C391 1.388 . S
C388 C393 1.418 . S
C389 H384 0.930 . S
C389 C392 1.404 . S
C389 C393 1.353 . S
N390 Co355 2.145 . S
N390 C391 1.397 . S
N390 C392 1.334 . S
C391 H372 0.929 . S
C391 C388 1.388 . S
C391 N390 1.397 . S
C392 H373 0.929 . S
C392 C389 1.404 . S
C392 N390 1.334 . S
C393 H385 0.930 . S
C393 C388 1.418 . S
C393 C389 1.353 . S
C394 H364 0.930 . S
C394 N395 1.330 . S
C394 C396 1.446 . S
N395 Co354 2.151 . S
N395 C394 1.330 . S
N395 C399 1.418 . S
C396 H375 0.929 . S
C396 C394 1.446 . S
C396 C397 1.332 . S
C397 H377 0.931 . S
C397 C396 1.332 . S
C397 C398 1.267 . S
C398 H366 0.929 . S
C398 C397 1.267 . S
C398 C399 1.251 . S
C399 H369 0.929 . S
C399 N395 1.418 . S
C399 C398 1.251 . S
C400 H367 0.930 . S
C400 C402 1.406 . S
C400 C405 1.261 . S
C401 H368 0.930 . S
C401 N403 1.325 . S
C401 C404 1.357 . S
C402 H370 0.928 . S
C402 C400 1.406 . S
C402 N403 1.261 . S
N403 Co354 2.214 . S
N403 C401 1.325 . S
N403 C402 1.261 . S
C404 H374 0.931 . S
C404 C401 1.357 . S
C404 C405 1.312 . S
C405 H376 0.930 . S
C405 C400 1.261 . S
C405 C404 1.312 . S
C406 O378 1.214 . S
C406 O386 1.234 . S
C407 H379 0.929 . S
C407 C410 1.391 . S
C407 C412 1.391 . S
C408 H380 0.929 . S
C408 C409 1.390 . S
C408 N411 1.391 . S
C409 H381 0.930 . S
C409 C408 1.390 . S
C409 C410 1.392 . S
C410 H382 0.929 1_556 S
C410 C407 1.391 . S
C410 C409 1.392 . S
N411 Co355 2.257 . S
N411 C408 1.391 . S
N411 C412 1.388 . S
C412 H383 0.930 . S
C412 C407 1.391 . S
C412 N411 1.388 . S
Co413 O415 2.143 . S
Co413 O421 2.074 . S
Co413 O424 2.093 . S
Co413 O437 2.097 . S
Co413 N454 2.151 . S
Co413 N462 2.214 . S
Co414 O415 2.160 . S
Co414 O420 2.058 . S
Co414 O430 2.057 . S
Co414 O445 2.037 . S
Co414 N449 2.145 . S
Co414 N470 2.257 . S
O415 Co413 2.143 . S
O415 Co414 2.160 . S
C416 O417 1.278 . S
C416 O424 1.224 . S
O417 C416 1.278 . S
C418 O419 1.245 . S
C418 O430 1.232 . S
O419 C418 1.245 . S
O420 Co414 2.058 . S
O420 C446 1.269 . S
O421 Co413 2.074 . S
O421 C446 1.257 . S
H422 C447 0.930 . S
H423 C453 0.930 . S
O424 Co413 2.093 . S
O424 C416 1.224 . S
H425 C457 0.929 . S
H426 C459 0.930 . S
H427 C460 0.930 . S
H428 C458 0.929 . S
H429 C461 0.928 . S
O430 Co414 2.057 . S
O430 C418 1.232 . S
H431 C450 0.929 . S
H432 C451 0.929 . S
H433 C463 0.931 . S
H434 C455 0.929 . S
H435 C464 0.930 . S
H436 C456 0.931 . S
O437 Co413 2.097 . S
O437 C465 1.214 . S
H438 C466 0.929 . S
H439 C467 0.929 . S
H440 C468 0.930 . S
H441 C469 0.929 1_554 S
H442 C471 0.930 . S
H443 C448 0.930 . S
H444 C452 0.930 . S
O445 Co414 2.037 . S
O445 C465 1.234 . S
C446 O420 1.269 . S
C446 O421 1.257 . S
C447 H422 0.930 . S
C447 C450 1.388 . S
C447 C452 1.418 . S
C448 H443 0.930 . S
C448 C451 1.404 . S
C448 C452 1.353 . S
N449 Co414 2.145 . S
N449 C450 1.397 . S
N449 C451 1.334 . S
C450 H431 0.929 . S
C450 C447 1.388 . S
C450 N449 1.397 . S
C451 H432 0.929 . S
C451 C448 1.404 . S
C451 N449 1.334 . S
C452 H444 0.930 . S
C452 C447 1.418 . S
C452 C448 1.353 . S
C453 H423 0.930 . S
C453 N454 1.330 . S
C453 C455 1.446 . S
N454 Co413 2.151 . S
N454 C453 1.330 . S
N454 C458 1.418 . S
C455 H434 0.929 . S
C455 C453 1.446 . S
C455 C456 1.332 . S
C456 H436 0.931 . S
C456 C455 1.332 . S
C456 C457 1.267 . S
C457 H425 0.929 . S
C457 C456 1.267 . S
C457 C458 1.251 . S
C458 H428 0.929 . S
C458 N454 1.418 . S
C458 C457 1.251 . S
C459 H426 0.930 . S
C459 C461 1.406 . S
C459 C464 1.261 . S
C460 H427 0.930 . S
C460 N462 1.325 . S
C460 C463 1.357 . S
C461 H429 0.928 . S
C461 C459 1.406 . S
C461 N462 1.261 . S
N462 Co413 2.214 . S
N462 C460 1.325 . S
N462 C461 1.261 . S
C463 H433 0.931 . S
C463 C460 1.357 . S
C463 C464 1.312 . S
C464 H435 0.930 . S
C464 C459 1.261 . S
C464 C463 1.312 . S
C465 O437 1.214 . S
C465 O445 1.234 . S
C466 H438 0.929 . S
C466 C469 1.391 . S
C466 C471 1.391 . S
C467 H439 0.929 . S
C467 C468 1.390 . S
C467 N470 1.391 . S
C468 H440 0.930 . S
C468 C467 1.390 . S
C468 C469 1.392 . S
C469 H441 0.929 1_556 S
C469 C466 1.391 . S
C469 C468 1.392 . S
N470 Co414 2.257 . S
N470 C467 1.391 . S
N470 C471 1.388 . S
C471 H442 0.930 . S
C471 C466 1.391 . S
C471 N470 1.388 . S
Co472 O474 2.143 . S
Co472 O480 2.074 . S
Co472 O483 2.093 . S
Co472 O496 2.097 . S
Co472 N513 2.151 . S
Co472 N521 2.214 . S
Co473 O474 2.160 . S
Co473 O479 2.058 . S
Co473 O489 2.057 . S
Co473 O504 2.037 . S
Co473 N508 2.145 . S
Co473 N529 2.257 . S
O474 Co472 2.143 . S
O474 Co473 2.160 . S
C475 O476 1.278 . S
C475 O483 1.224 . S
O476 C475 1.278 . S
C477 O478 1.245 . S
C477 O489 1.232 . S
O478 C477 1.245 . S
O479 Co473 2.058 . S
O479 C505 1.269 . S
O480 Co472 2.074 . S
O480 C505 1.257 . S
H481 C506 0.930 . S
H482 C512 0.930 . S
O483 Co472 2.093 . S
O483 C475 1.224 . S
H484 C516 0.929 . S
H485 C518 0.930 . S
H486 C519 0.930 . S
H487 C517 0.929 . S
H488 C520 0.928 . S
O489 Co473 2.057 . S
O489 C477 1.232 . S
H490 C509 0.929 . S
H491 C510 0.929 . S
H492 C522 0.931 . S
H493 C514 0.929 . S
H494 C523 0.930 . S
H495 C515 0.931 . S
O496 Co472 2.097 . S
O496 C524 1.214 . S
H497 C525 0.929 . S
H498 C526 0.929 . S
H499 C527 0.930 . S
H500 C528 0.929 1_554 S
H501 C530 0.930 . S
H502 C507 0.930 . S
H503 C511 0.930 . S
O504 Co473 2.037 . S
O504 C524 1.234 . S
C505 O479 1.269 . S
C505 O480 1.257 . S
C506 H481 0.930 . S
C506 C509 1.388 . S
C506 C511 1.418 . S
C507 H502 0.930 . S
C507 C510 1.404 . S
C507 C511 1.353 . S
N508 Co473 2.145 . S
N508 C509 1.397 . S
N508 C510 1.334 . S
C509 H490 0.929 . S
C509 C506 1.388 . S
C509 N508 1.397 . S
C510 H491 0.929 . S
C510 C507 1.404 . S
C510 N508 1.334 . S
C511 H503 0.930 . S
C511 C506 1.418 . S
C511 C507 1.353 . S
C512 H482 0.930 . S
C512 N513 1.330 . S
C512 C514 1.446 . S
N513 Co472 2.151 . S
N513 C512 1.330 . S
N513 C517 1.418 . S
C514 H493 0.929 . S
C514 C512 1.446 . S
C514 C515 1.332 . S
C515 H495 0.931 . S
C515 C514 1.332 . S
C515 C516 1.267 . S
C516 H484 0.929 . S
C516 C515 1.267 . S
C516 C517 1.251 . S
C517 H487 0.929 . S
C517 N513 1.418 . S
C517 C516 1.251 . S
C518 H485 0.930 . S
C518 C520 1.406 . S
C518 C523 1.261 . S
C519 H486 0.930 . S
C519 N521 1.325 . S
C519 C522 1.357 . S
C520 H488 0.928 . S
C520 C518 1.406 . S
C520 N521 1.261 . S
N521 Co472 2.214 . S
N521 C519 1.325 . S
N521 C520 1.261 . S
C522 H492 0.931 . S
C522 C519 1.357 . S
C522 C523 1.312 . S
C523 H494 0.930 . S
C523 C518 1.261 . S
C523 C522 1.312 . S
C524 O496 1.214 . S
C524 O504 1.234 . S
C525 H497 0.929 . S
C525 C528 1.391 . S
C525 C530 1.391 . S
C526 H498 0.929 . S
C526 C527 1.390 . S
C526 N529 1.391 . S
C527 H499 0.930 . S
C527 C526 1.390 . S
C527 C528 1.392 . S
C528 H500 0.929 1_556 S
C528 C525 1.391 . S
C528 C527 1.392 . S
N529 Co473 2.257 . S
N529 C526 1.391 . S
N529 C530 1.388 . S
C530 H501 0.930 . S
C530 C525 1.391 . S
C530 N529 1.388 . S
Co531 O533 2.143 . S
Co531 O539 2.074 . S
Co531 O542 2.093 . S
Co531 O555 2.097 . S
Co531 N572 2.151 . S
Co531 N580 2.214 . S
Co532 O533 2.160 . S
Co532 O538 2.058 . S
Co532 O548 2.057 . S
Co532 O563 2.037 . S
Co532 N567 2.145 . S
Co532 N588 2.257 . S
O533 Co531 2.143 . S
O533 Co532 2.160 . S
C534 O535 1.278 . S
C534 O542 1.224 . S
O535 C534 1.278 . S
C536 O537 1.245 . S
C536 O548 1.232 . S
O537 C536 1.245 . S
O538 Co532 2.058 . S
O538 C564 1.269 . S
O539 Co531 2.074 . S
O539 C564 1.257 . S
H540 C565 0.930 . S
H541 C571 0.930 . S
O542 Co531 2.093 . S
O542 C534 1.224 . S
H543 C575 0.929 . S
H544 C577 0.930 . S
H545 C578 0.930 . S
H546 C576 0.929 . S
H547 C579 0.928 . S
O548 Co532 2.057 . S
O548 C536 1.232 . S
H549 C568 0.929 . S
H550 C569 0.929 . S
H551 C581 0.931 . S
H552 C573 0.929 . S
H553 C582 0.930 . S
H554 C574 0.931 . S
O555 Co531 2.097 . S
O555 C583 1.214 . S
H556 C584 0.929 . S
H557 C585 0.929 . S
H558 C586 0.930 . S
H559 C587 0.929 . S
H560 C589 0.930 . S
H561 C566 0.930 . S
H562 C570 0.930 . S
O563 Co532 2.037 . S
O563 C583 1.234 . S
C564 O538 1.269 . S
C564 O539 1.257 . S
C565 H540 0.930 . S
C565 C568 1.388 . S
C565 C570 1.418 . S
C566 H561 0.930 . S
C566 C569 1.404 . S
C566 C570 1.353 . S
N567 Co532 2.145 . S
N567 C568 1.397 . S
N567 C569 1.334 . S
C568 H549 0.929 . S
C568 C565 1.388 . S
C568 N567 1.397 . S
C569 H550 0.929 . S
C569 C566 1.404 . S
C569 N567 1.334 . S
C570 H562 0.930 . S
C570 C565 1.418 . S
C570 C566 1.353 . S
C571 H541 0.930 . S
C571 N572 1.330 . S
C571 C573 1.446 . S
N572 Co531 2.151 . S
N572 C571 1.330 . S
N572 C576 1.418 . S
C573 H552 0.929 . S
C573 C571 1.446 . S
C573 C574 1.332 . S
C574 H554 0.931 . S
C574 C573 1.332 . S
C574 C575 1.267 . S
C575 H543 0.929 . S
C575 C574 1.267 . S
C575 C576 1.251 . S
C576 H546 0.929 . S
C576 N572 1.418 . S
C576 C575 1.251 . S
C577 H544 0.930 . S
C577 C579 1.406 . S
C577 C582 1.261 . S
C578 H545 0.930 . S
C578 N580 1.325 . S
C578 C581 1.357 . S
C579 H547 0.928 . S
C579 C577 1.406 . S
C579 N580 1.261 . S
N580 Co531 2.214 . S
N580 C578 1.325 . S
N580 C579 1.261 . S
C581 H551 0.931 . S
C581 C578 1.357 . S
C581 C582 1.312 . S
C582 H553 0.930 . S
C582 C577 1.261 . S
C582 C581 1.312 . S
C583 O555 1.214 . S
C583 O563 1.234 . S
C584 H556 0.929 . S
C584 C587 1.391 . S
C584 C589 1.391 . S
C585 H557 0.929 . S
C585 C586 1.390 . S
C585 N588 1.391 . S
C586 H558 0.930 . S
C586 C585 1.390 . S
C586 C587 1.392 . S
C587 H559 0.929 . S
C587 C584 1.391 . S
C587 C586 1.392 . S
N588 Co532 2.257 . S
N588 C585 1.391 . S
N588 C589 1.388 . S
C589 H560 0.930 . S
C589 C584 1.391 . S
C589 N588 1.388 . S
Co590 O592 2.143 . S
Co590 O598 2.074 . S
Co590 O601 2.093 . S
Co590 O614 2.097 . S
Co590 N631 2.151 . S
Co590 N639 2.214 . S
Co591 O592 2.160 . S
Co591 O597 2.058 . S
Co591 O607 2.057 . S
Co591 O622 2.037 . S
Co591 N626 2.145 . S
Co591 N647 2.257 . S
O592 Co590 2.143 . S
O592 Co591 2.160 . S
C593 O594 1.278 . S
C593 O601 1.224 . S
O594 C593 1.278 . S
C595 O596 1.245 . S
C595 O607 1.232 . S
O596 C595 1.245 . S
O597 Co591 2.058 . S
O597 C623 1.269 . S
O598 Co590 2.074 . S
O598 C623 1.257 . S
H599 C624 0.930 . S
H600 C630 0.930 . S
O601 Co590 2.093 . S
O601 C593 1.224 . S
H602 C634 0.929 . S
H603 C636 0.930 . S
H604 C637 0.930 . S
H605 C635 0.929 . S
H606 C638 0.928 . S
O607 Co591 2.057 . S
O607 C595 1.232 . S
H608 C627 0.929 . S
H609 C628 0.929 . S
H610 C640 0.931 . S
H611 C632 0.929 . S
H612 C641 0.930 . S
H613 C633 0.931 . S
O614 Co590 2.097 . S
O614 C642 1.214 . S
H615 C643 0.929 . S
H616 C644 0.929 . S
H617 C645 0.930 . S
H618 C646 0.929 . S
H619 C648 0.930 . S
H620 C625 0.930 . S
H621 C629 0.930 . S
O622 Co591 2.037 . S
O622 C642 1.234 . S
C623 O597 1.269 . S
C623 O598 1.257 . S
C624 H599 0.930 . S
C624 C627 1.388 . S
C624 C629 1.418 . S
C625 H620 0.930 . S
C625 C628 1.404 . S
C625 C629 1.353 . S
N626 Co591 2.145 . S
N626 C627 1.397 . S
N626 C628 1.334 . S
C627 H608 0.929 . S
C627 C624 1.388 . S
C627 N626 1.397 . S
C628 H609 0.929 . S
C628 C625 1.404 . S
C628 N626 1.334 . S
C629 H621 0.930 . S
C629 C624 1.418 . S
C629 C625 1.353 . S
C630 H600 0.930 . S
C630 N631 1.330 . S
C630 C632 1.446 . S
N631 Co590 2.151 . S
N631 C630 1.330 . S
N631 C635 1.418 . S
C632 H611 0.929 . S
C632 C630 1.446 . S
C632 C633 1.332 . S
C633 H613 0.931 . S
C633 C632 1.332 . S
C633 C634 1.267 . S
C634 H602 0.929 . S
C634 C633 1.267 . S
C634 C635 1.251 . S
C635 H605 0.929 . S
C635 N631 1.418 . S
C635 C634 1.251 . S
C636 H603 0.930 . S
C636 C638 1.406 . S
C636 C641 1.261 . S
C637 H604 0.930 . S
C637 N639 1.325 . S
C637 C640 1.357 . S
C638 H606 0.928 . S
C638 C636 1.406 . S
C638 N639 1.261 . S
N639 Co590 2.214 . S
N639 C637 1.325 . S
N639 C638 1.261 . S
C640 H610 0.931 . S
C640 C637 1.357 . S
C640 C641 1.312 . S
C641 H612 0.930 . S
C641 C636 1.261 . S
C641 C640 1.312 . S
C642 O614 1.214 . S
C642 O622 1.234 . S
C643 H615 0.929 . S
C643 C646 1.391 . S
C643 C648 1.391 . S
C644 H616 0.929 . S
C644 C645 1.390 . S
C644 N647 1.391 . S
C645 H617 0.930 . S
C645 C644 1.390 . S
C645 C646 1.392 . S
C646 H618 0.929 . S
C646 C643 1.391 . S
C646 C645 1.392 . S
N647 Co591 2.257 . S
N647 C644 1.391 . S
N647 C648 1.388 . S
C648 H619 0.930 . S
C648 C643 1.391 . S
C648 N647 1.388 . S
Co649 O651 2.143 . S
Co649 O657 2.074 . S
Co649 O660 2.093 . S
Co649 O673 2.097 . S
Co649 N690 2.151 . S
Co649 N698 2.214 . S
Co650 O651 2.160 . S
Co650 O656 2.058 . S
Co650 O666 2.057 . S
Co650 O681 2.037 . S
Co650 N685 2.145 . S
Co650 N706 2.257 . S
O651 Co649 2.143 . S
O651 Co650 2.160 . S
C652 O653 1.278 . S
C652 O660 1.224 . S
O653 C652 1.278 . S
C654 O655 1.245 . S
C654 O666 1.232 . S
O655 C654 1.245 . S
O656 Co650 2.058 . S
O656 C682 1.269 . S
O657 Co649 2.074 . S
O657 C682 1.257 . S
H658 C683 0.930 . S
H659 C689 0.930 . S
O660 Co649 2.093 . S
O660 C652 1.224 . S
H661 C693 0.929 . S
H662 C695 0.930 . S
H663 C696 0.930 . S
H664 C694 0.929 . S
H665 C697 0.928 . S
O666 Co650 2.057 . S
O666 C654 1.232 . S
H667 C686 0.929 . S
H668 C687 0.929 . S
H669 C699 0.931 . S
H670 C691 0.929 . S
H671 C700 0.930 . S
H672 C692 0.931 . S
O673 Co649 2.097 . S
O673 C701 1.214 . S
H674 C702 0.929 . S
H675 C703 0.929 . S
H676 C704 0.930 . S
H677 C705 0.929 . S
H678 C707 0.930 . S
H679 C684 0.930 . S
H680 C688 0.930 . S
O681 Co650 2.037 . S
O681 C701 1.234 . S
C682 O656 1.269 . S
C682 O657 1.257 . S
C683 H658 0.930 . S
C683 C686 1.388 . S
C683 C688 1.418 . S
C684 H679 0.930 . S
C684 C687 1.404 . S
C684 C688 1.353 . S
N685 Co650 2.145 . S
N685 C686 1.397 . S
N685 C687 1.334 . S
C686 H667 0.929 . S
C686 C683 1.388 . S
C686 N685 1.397 . S
C687 H668 0.929 . S
C687 C684 1.404 . S
C687 N685 1.334 . S
C688 H680 0.930 . S
C688 C683 1.418 . S
C688 C684 1.353 . S
C689 H659 0.930 . S
C689 N690 1.330 . S
C689 C691 1.446 . S
N690 Co649 2.151 . S
N690 C689 1.330 . S
N690 C694 1.418 . S
C691 H670 0.929 . S
C691 C689 1.446 . S
C691 C692 1.332 . S
C692 H672 0.931 . S
C692 C691 1.332 . S
C692 C693 1.267 . S
C693 H661 0.929 . S
C693 C692 1.267 . S
C693 C694 1.251 . S
C694 H664 0.929 . S
C694 N690 1.418 . S
C694 C693 1.251 . S
C695 H662 0.930 . S
C695 C697 1.406 . S
C695 C700 1.261 . S
C696 H663 0.930 . S
C696 N698 1.325 . S
C696 C699 1.357 . S
C697 H665 0.928 . S
C697 C695 1.406 . S
C697 N698 1.261 . S
N698 Co649 2.214 . S
N698 C696 1.325 . S
N698 C697 1.261 . S
C699 H669 0.931 . S
C699 C696 1.357 . S
C699 C700 1.312 . S
C700 H671 0.930 . S
C700 C695 1.261 . S
C700 C699 1.312 . S
C701 O673 1.214 . S
C701 O681 1.234 . S
C702 H674 0.929 . S
C702 C705 1.391 . S
C702 C707 1.391 . S
C703 H675 0.929 . S
C703 C704 1.390 . S
C703 N706 1.391 . S
C704 H676 0.930 . S
C704 C703 1.390 . S
C704 C705 1.392 . S
C705 H677 0.929 . S
C705 C702 1.391 . S
C705 C704 1.392 . S
N706 Co650 2.257 . S
N706 C703 1.391 . S
N706 C707 1.388 . S
C707 H678 0.930 . S
C707 C702 1.391 . S
C707 N706 1.388 . S
Co708 O710 2.143 . S
Co708 O716 2.074 . S
Co708 O719 2.093 . S
Co708 O732 2.097 . S
Co708 N749 2.151 . S
Co708 N757 2.214 . S
Co709 O710 2.160 . S
Co709 O715 2.058 . S
Co709 O725 2.057 . S
Co709 O740 2.037 . S
Co709 N744 2.145 . S
Co709 N765 2.257 . S
O710 Co708 2.143 . S
O710 Co709 2.160 . S
C711 O712 1.278 . S
C711 O719 1.224 . S
O712 C711 1.278 . S
C713 O714 1.245 . S
C713 O725 1.232 . S
O714 C713 1.245 . S
O715 Co709 2.058 . S
O715 C741 1.269 . S
O716 Co708 2.074 . S
O716 C741 1.257 . S
H717 C742 0.930 . S
H718 C748 0.930 . S
O719 Co708 2.093 . S
O719 C711 1.224 . S
H720 C752 0.929 . S
H721 C754 0.930 . S
H722 C755 0.930 . S
H723 C753 0.929 . S
H724 C756 0.928 . S
O725 Co709 2.057 . S
O725 C713 1.232 . S
H726 C745 0.929 . S
H727 C746 0.929 . S
H728 C758 0.931 . S
H729 C750 0.929 . S
H730 C759 0.930 . S
H731 C751 0.931 . S
O732 Co708 2.097 . S
O732 C760 1.214 . S
H733 C761 0.929 . S
H734 C762 0.929 . S
H735 C763 0.930 . S
H736 C764 0.929 . S
H737 C766 0.930 . S
H738 C743 0.930 . S
H739 C747 0.930 . S
O740 Co709 2.037 . S
O740 C760 1.234 . S
C741 O715 1.269 . S
C741 O716 1.257 . S
C742 H717 0.930 . S
C742 C745 1.388 . S
C742 C747 1.418 . S
C743 H738 0.930 . S
C743 C746 1.404 . S
C743 C747 1.353 . S
N744 Co709 2.145 . S
N744 C745 1.397 . S
N744 C746 1.334 . S
C745 H726 0.929 . S
C745 C742 1.388 . S
C745 N744 1.397 . S
C746 H727 0.929 . S
C746 C743 1.404 . S
C746 N744 1.334 . S
C747 H739 0.930 . S
C747 C742 1.418 . S
C747 C743 1.353 . S
C748 H718 0.930 . S
C748 N749 1.330 . S
C748 C750 1.446 . S
N749 Co708 2.151 . S
N749 C748 1.330 . S
N749 C753 1.418 . S
C750 H729 0.929 . S
C750 C748 1.446 . S
C750 C751 1.332 . S
C751 H731 0.931 . S
C751 C750 1.332 . S
C751 C752 1.267 . S
C752 H720 0.929 . S
C752 C751 1.267 . S
C752 C753 1.251 . S
C753 H723 0.929 . S
C753 N749 1.418 . S
C753 C752 1.251 . S
C754 H721 0.930 . S
C754 C756 1.406 . S
C754 C759 1.261 . S
C755 H722 0.930 . S
C755 N757 1.325 . S
C755 C758 1.357 . S
C756 H724 0.928 . S
C756 C754 1.406 . S
C756 N757 1.261 . S
N757 Co708 2.214 . S
N757 C755 1.325 . S
N757 C756 1.261 . S
C758 H728 0.931 . S
C758 C755 1.357 . S
C758 C759 1.312 . S
C759 H730 0.930 . S
C759 C754 1.261 . S
C759 C758 1.312 . S
C760 O732 1.214 . S
C760 O740 1.234 . S
C761 H733 0.929 . S
C761 C764 1.391 . S
C761 C766 1.391 . S
C762 H734 0.929 . S
C762 C763 1.390 . S
C762 N765 1.391 . S
C763 H735 0.930 . S
C763 C762 1.390 . S
C763 C764 1.392 . S
C764 H736 0.929 . S
C764 C761 1.391 . S
C764 C763 1.392 . S
N765 Co709 2.257 . S
N765 C762 1.391 . S
N765 C766 1.388 . S
C766 H737 0.930 . S
C766 C761 1.391 . S
C766 N765 1.388 . S
Co767 O769 2.143 . S
Co767 O775 2.074 . S
Co767 O778 2.093 . S
Co767 O791 2.097 . S
Co767 N808 2.151 . S
Co767 N816 2.214 . S
Co768 O769 2.160 . S
Co768 O774 2.058 . S
Co768 O784 2.057 . S
Co768 O799 2.037 . S
Co768 N803 2.145 . S
Co768 N824 2.257 . S
O769 Co767 2.143 . S
O769 Co768 2.160 . S
C770 O771 1.278 . S
C770 O778 1.224 . S
O771 C770 1.278 . S
C772 O773 1.245 . S
C772 O784 1.232 . S
O773 C772 1.245 . S
O774 Co768 2.058 . S
O774 C800 1.269 . S
O775 Co767 2.074 . S
O775 C800 1.257 . S
H776 C801 0.930 . S
H777 C807 0.930 . S
O778 Co767 2.093 . S
O778 C770 1.224 . S
H779 C811 0.929 . S
H780 C813 0.930 . S
H781 C814 0.930 . S
H782 C812 0.929 . S
H783 C815 0.928 . S
O784 Co768 2.057 . S
O784 C772 1.232 . S
H785 C804 0.929 . S
H786 C805 0.929 . S
H787 C817 0.931 . S
H788 C809 0.929 . S
H789 C818 0.930 . S
H790 C810 0.931 . S
O791 Co767 2.097 . S
O791 C819 1.214 . S
H792 C820 0.929 . S
H793 C821 0.929 . S
H794 C822 0.930 . S
H795 C823 0.929 . S
H796 C825 0.930 . S
H797 C802 0.930 . S
H798 C806 0.930 . S
O799 Co768 2.037 . S
O799 C819 1.234 . S
C800 O774 1.269 . S
C800 O775 1.257 . S
C801 H776 0.930 . S
C801 C804 1.388 . S
C801 C806 1.418 . S
C802 H797 0.930 . S
C802 C805 1.404 . S
C802 C806 1.353 . S
N803 Co768 2.145 . S
N803 C804 1.397 . S
N803 C805 1.334 . S
C804 H785 0.929 . S
C804 C801 1.388 . S
C804 N803 1.397 . S
C805 H786 0.929 . S
C805 C802 1.404 . S
C805 N803 1.334 . S
C806 H798 0.930 . S
C806 C801 1.418 . S
C806 C802 1.353 . S
C807 H777 0.930 . S
C807 N808 1.330 . S
C807 C809 1.446 . S
N808 Co767 2.151 . S
N808 C807 1.330 . S
N808 C812 1.418 . S
C809 H788 0.929 . S
C809 C807 1.446 . S
C809 C810 1.332 . S
C810 H790 0.931 . S
C810 C809 1.332 . S
C810 C811 1.267 . S
C811 H779 0.929 . S
C811 C810 1.267 . S
C811 C812 1.251 . S
C812 H782 0.929 . S
C812 N808 1.418 . S
C812 C811 1.251 . S
C813 H780 0.930 . S
C813 C815 1.406 . S
C813 C818 1.261 . S
C814 H781 0.930 . S
C814 N816 1.325 . S
C814 C817 1.357 . S
C815 H783 0.928 . S
C815 C813 1.406 . S
C815 N816 1.261 . S
N816 Co767 2.214 . S
N816 C814 1.325 . S
N816 C815 1.261 . S
C817 H787 0.931 . S
C817 C814 1.357 . S
C817 C818 1.312 . S
C818 H789 0.930 . S
C818 C813 1.261 . S
C818 C817 1.312 . S
C819 O791 1.214 . S
C819 O799 1.234 . S
C820 H792 0.929 . S
C820 C823 1.391 . S
C820 C825 1.391 . S
C821 H793 0.929 . S
C821 C822 1.390 . S
C821 N824 1.391 . S
C822 H794 0.930 . S
C822 C821 1.390 . S
C822 C823 1.392 . S
C823 H795 0.929 . S
C823 C820 1.391 . S
C823 C822 1.392 . S
N824 Co768 2.257 . S
N824 C821 1.391 . S
N824 C825 1.388 . S
C825 H796 0.930 . S
C825 C820 1.391 . S
C825 N824 1.388 . S
Co826 O828 2.143 . S
Co826 O834 2.074 . S
Co826 O837 2.093 . S
Co826 O850 2.097 . S
Co826 N867 2.151 . S
Co826 N875 2.214 . S
Co827 O828 2.160 . S
Co827 O833 2.058 . S
Co827 O843 2.057 . S
Co827 O858 2.037 . S
Co827 N862 2.145 . S
Co827 N883 2.257 . S
O828 Co826 2.143 . S
O828 Co827 2.160 . S
C829 O830 1.278 . S
C829 O837 1.224 . S
O830 C829 1.278 . S
C831 O832 1.245 . S
C831 O843 1.232 . S
O832 C831 1.245 . S
O833 Co827 2.058 . S
O833 C859 1.269 . S
O834 Co826 2.074 . S
O834 C859 1.257 . S
H835 C860 0.930 . S
H836 C866 0.930 . S
O837 Co826 2.093 . S
O837 C829 1.224 . S
H838 C870 0.929 . S
H839 C872 0.930 . S
H840 C873 0.930 . S
H841 C871 0.929 . S
H842 C874 0.928 . S
O843 Co827 2.057 . S
O843 C831 1.232 . S
H844 C863 0.929 . S
H845 C864 0.929 . S
H846 C876 0.931 . S
H847 C868 0.929 . S
H848 C877 0.930 . S
H849 C869 0.931 . S
O850 Co826 2.097 . S
O850 C878 1.214 . S
H851 C879 0.929 . S
H852 C880 0.929 . S
H853 C881 0.930 . S
H854 C882 0.929 . S
H855 C884 0.930 . S
H856 C861 0.930 . S
H857 C865 0.930 . S
O858 Co827 2.037 . S
O858 C878 1.234 . S
C859 O833 1.269 . S
C859 O834 1.257 . S
C860 H835 0.930 . S
C860 C863 1.388 . S
C860 C865 1.418 . S
C861 H856 0.930 . S
C861 C864 1.404 . S
C861 C865 1.353 . S
N862 Co827 2.145 . S
N862 C863 1.397 . S
N862 C864 1.334 . S
C863 H844 0.929 . S
C863 C860 1.388 . S
C863 N862 1.397 . S
C864 H845 0.929 . S
C864 C861 1.404 . S
C864 N862 1.334 . S
C865 H857 0.930 . S
C865 C860 1.418 . S
C865 C861 1.353 . S
C866 H836 0.930 . S
C866 N867 1.330 . S
C866 C868 1.446 . S
N867 Co826 2.151 . S
N867 C866 1.330 . S
N867 C871 1.418 . S
C868 H847 0.929 . S
C868 C866 1.446 . S
C868 C869 1.332 . S
C869 H849 0.931 . S
C869 C868 1.332 . S
C869 C870 1.267 . S
C870 H838 0.929 . S
C870 C869 1.267 . S
C870 C871 1.251 . S
C871 H841 0.929 . S
C871 N867 1.418 . S
C871 C870 1.251 . S
C872 H839 0.930 . S
C872 C874 1.406 . S
C872 C877 1.261 . S
C873 H840 0.930 . S
C873 N875 1.325 . S
C873 C876 1.357 . S
C874 H842 0.928 . S
C874 C872 1.406 . S
C874 N875 1.261 . S
N875 Co826 2.214 . S
N875 C873 1.325 . S
N875 C874 1.261 . S
C876 H846 0.931 . S
C876 C873 1.357 . S
C876 C877 1.312 . S
C877 H848 0.930 . S
C877 C872 1.261 . S
C877 C876 1.312 . S
C878 O850 1.214 . S
C878 O858 1.234 . S
C879 H851 0.929 . S
C879 C882 1.391 . S
C879 C884 1.391 . S
C880 H852 0.929 . S
C880 C881 1.390 . S
C880 N883 1.391 . S
C881 H853 0.930 . S
C881 C880 1.390 . S
C881 C882 1.392 . S
C882 H854 0.929 . S
C882 C879 1.391 . S
C882 C881 1.392 . S
N883 Co827 2.257 . S
N883 C880 1.391 . S
N883 C884 1.388 . S
C884 H855 0.930 . S
C884 C879 1.391 . S
C884 N883 1.388 . S
Co885 O887 2.143 . S
Co885 O893 2.074 . S
Co885 O896 2.093 . S
Co885 O909 2.097 . S
Co885 N926 2.151 . S
Co885 N934 2.214 . S
Co886 O887 2.160 . S
Co886 O892 2.058 . S
Co886 O902 2.057 . S
Co886 O917 2.037 . S
Co886 N921 2.145 . S
Co886 N942 2.257 . S
O887 Co885 2.143 . S
O887 Co886 2.160 . S
C888 O889 1.278 . S
C888 O896 1.224 . S
O889 C888 1.278 . S
C890 O891 1.245 . S
C890 O902 1.232 . S
O891 C890 1.245 . S
O892 Co886 2.058 . S
O892 C918 1.269 . S
O893 Co885 2.074 . S
O893 C918 1.257 . S
H894 C919 0.930 . S
H895 C925 0.930 . S
O896 Co885 2.093 . S
O896 C888 1.224 . S
H897 C929 0.929 . S
H898 C931 0.930 . S
H899 C932 0.930 . S
H900 C930 0.929 . S
H901 C933 0.928 . S
O902 Co886 2.057 . S
O902 C890 1.232 . S
H903 C922 0.929 . S
H904 C923 0.929 . S
H905 C935 0.931 . S
H906 C927 0.929 . S
H907 C936 0.930 . S
H908 C928 0.931 . S
O909 Co885 2.097 . S
O909 C937 1.214 . S
H910 C938 0.929 . S
H911 C939 0.929 . S
H912 C940 0.930 . S
H913 C941 0.929 . S
H914 C943 0.930 . S
H915 C920 0.930 . S
H916 C924 0.930 . S
O917 Co886 2.037 . S
O917 C937 1.234 . S
C918 O892 1.269 . S
C918 O893 1.257 . S
C919 H894 0.930 . S
C919 C922 1.388 . S
C919 C924 1.418 . S
C920 H915 0.930 . S
C920 C923 1.404 . S
C920 C924 1.353 . S
N921 Co886 2.145 . S
N921 C922 1.397 . S
N921 C923 1.334 . S
C922 H903 0.929 . S
C922 C919 1.388 . S
C922 N921 1.397 . S
C923 H904 0.929 . S
C923 C920 1.404 . S
C923 N921 1.334 . S
C924 H916 0.930 . S
C924 C919 1.418 . S
C924 C920 1.353 . S
C925 H895 0.930 . S
C925 N926 1.330 . S
C925 C927 1.446 . S
N926 Co885 2.151 . S
N926 C925 1.330 . S
N926 C930 1.418 . S
C927 H906 0.929 . S
C927 C925 1.446 . S
C927 C928 1.332 . S
C928 H908 0.931 . S
C928 C927 1.332 . S
C928 C929 1.267 . S
C929 H897 0.929 . S
C929 C928 1.267 . S
C929 C930 1.251 . S
C930 H900 0.929 . S
C930 N926 1.418 . S
C930 C929 1.251 . S
C931 H898 0.930 . S
C931 C933 1.406 . S
C931 C936 1.261 . S
C932 H899 0.930 . S
C932 N934 1.325 . S
C932 C935 1.357 . S
C933 H901 0.928 . S
C933 C931 1.406 . S
C933 N934 1.261 . S
N934 Co885 2.214 . S
N934 C932 1.325 . S
N934 C933 1.261 . S
C935 H905 0.931 . S
C935 C932 1.357 . S
C935 C936 1.312 . S
C936 H907 0.930 . S
C936 C931 1.261 . S
C936 C935 1.312 . S
C937 O909 1.214 . S
C937 O917 1.234 . S
C938 H910 0.929 . S
C938 C941 1.391 . S
C938 C943 1.391 . S
C939 H911 0.929 . S
C939 C940 1.390 . S
C939 N942 1.391 . S
C940 H912 0.930 . S
C940 C939 1.390 . S
C940 C941 1.392 . S
C941 H913 0.929 . S
C941 C938 1.391 . S
C941 C940 1.392 . S
N942 Co886 2.257 . S
N942 C939 1.391 . S
N942 C943 1.388 . S
C943 H914 0.930 . S
C943 C938 1.391 . S
C943 N942 1.388 . S
Co944 O946 2.143 . S
Co944 O952 2.074 . S
Co944 O955 2.093 . S
Co944 O968 2.097 . S
Co944 N985 2.151 . S
Co944 N993 2.214 . S
Co945 O946 2.160 . S
Co945 O951 2.058 . S
Co945 O961 2.057 . S
Co945 O976 2.037 . S
Co945 N980 2.145 . S
Co945 N1001 2.257 . S
O946 Co944 2.143 . S
O946 Co945 2.160 . S
C947 O948 1.278 . S
C947 O955 1.224 . S
O948 C947 1.278 . S
C949 O950 1.245 . S
C949 O961 1.232 . S
O950 C949 1.245 . S
O951 Co945 2.058 . S
O951 C977 1.269 . S
O952 Co944 2.074 . S
O952 C977 1.257 . S
H953 C978 0.930 . S
H954 C984 0.930 . S
O955 Co944 2.093 . S
O955 C947 1.224 . S
H956 C988 0.929 . S
H957 C990 0.930 . S
H958 C991 0.930 . S
H959 C989 0.929 . S
H960 C992 0.928 . S
O961 Co945 2.057 . S
O961 C949 1.232 . S
H962 C981 0.929 . S
H963 C982 0.929 . S
H964 C994 0.931 . S
H965 C986 0.929 . S
H966 C995 0.930 . S
H967 C987 0.931 . S
O968 Co944 2.097 . S
O968 C996 1.214 . S
H969 C997 0.929 . S
H970 C998 0.929 . S
H971 C999 0.930 . S
H972 C1000 0.929 . S
H973 C1002 0.930 . S
H974 C979 0.930 . S
H975 C983 0.930 . S
O976 Co945 2.037 . S
O976 C996 1.234 . S
C977 O951 1.269 . S
C977 O952 1.257 . S
C978 H953 0.930 . S
C978 C981 1.388 . S
C978 C983 1.418 . S
C979 H974 0.930 . S
C979 C982 1.404 . S
C979 C983 1.353 . S
N980 Co945 2.145 . S
N980 C981 1.397 . S
N980 C982 1.334 . S
C981 H962 0.929 . S
C981 C978 1.388 . S
C981 N980 1.397 . S
C982 H963 0.929 . S
C982 C979 1.404 . S
C982 N980 1.334 . S
C983 H975 0.930 . S
C983 C978 1.418 . S
C983 C979 1.353 . S
C984 H954 0.930 . S
C984 N985 1.330 . S
C984 C986 1.446 . S
N985 Co944 2.151 . S
N985 C984 1.330 . S
N985 C989 1.418 . S
C986 H965 0.929 . S
C986 C984 1.446 . S
C986 C987 1.332 . S
C987 H967 0.931 . S
C987 C986 1.332 . S
C987 C988 1.267 . S
C988 H956 0.929 . S
C988 C987 1.267 . S
C988 C989 1.251 . S
C989 H959 0.929 . S
C989 N985 1.418 . S
C989 C988 1.251 . S
C990 H957 0.930 . S
C990 C992 1.406 . S
C990 C995 1.261 . S
C991 H958 0.930 . S
C991 N993 1.325 . S
C991 C994 1.357 . S
C992 H960 0.928 . S
C992 C990 1.406 . S
C992 N993 1.261 . S
N993 Co944 2.214 . S
N993 C991 1.325 . S
N993 C992 1.261 . S
C994 H964 0.931 . S
C994 C991 1.357 . S
C994 C995 1.312 . S
C995 H966 0.930 . S
C995 C990 1.261 . S
C995 C994 1.312 . S
C996 O968 1.214 . S
C996 O976 1.234 . S
C997 H969 0.929 . S
C997 C1000 1.391 . S
C997 C1002 1.391 . S
C998 H970 0.929 . S
C998 C999 1.390 . S
C998 N1001 1.391 . S
C999 H971 0.930 . S
C999 C998 1.390 . S
C999 C1000 1.392 . S
C1000 H972 0.929 . S
C1000 C997 1.391 . S
C1000 C999 1.392 . S
N1001 Co945 2.257 . S
N1001 C998 1.391 . S
N1001 C1002 1.388 . S
C1002 H973 0.930 . S
C1002 C997 1.391 . S
C1002 N1001 1.388 . S
Co1003 O1005 2.143 . S
Co1003 O1011 2.074 . S
Co1003 O1014 2.093 . S
Co1003 O1027 2.097 . S
Co1003 N1044 2.151 . S
Co1003 N1052 2.214 . S
Co1004 O1005 2.160 . S
Co1004 O1010 2.058 . S
Co1004 O1020 2.057 . S
Co1004 O1035 2.037 . S
Co1004 N1039 2.145 . S
Co1004 N1060 2.257 . S
O1005 Co1003 2.143 . S
O1005 Co1004 2.160 . S
C1006 O1007 1.278 . S
C1006 O1014 1.224 . S
O1007 C1006 1.278 . S
C1008 O1009 1.245 . S
C1008 O1020 1.232 . S
O1009 C1008 1.245 . S
O1010 Co1004 2.058 . S
O1010 C1036 1.269 . S
O1011 Co1003 2.074 . S
O1011 C1036 1.257 . S
H1012 C1037 0.930 . S
H1013 C1043 0.930 . S
O1014 Co1003 2.093 . S
O1014 C1006 1.224 . S
H1015 C1047 0.929 . S
H1016 C1049 0.930 . S
H1017 C1050 0.930 . S
H1018 C1048 0.929 . S
H1019 C1051 0.928 . S
O1020 Co1004 2.057 . S
O1020 C1008 1.232 . S
H1021 C1040 0.929 . S
H1022 C1041 0.929 . S
H1023 C1053 0.931 . S
H1024 C1045 0.929 . S
H1025 C1054 0.930 . S
H1026 C1046 0.931 . S
O1027 Co1003 2.097 . S
O1027 C1055 1.214 . S
H1028 C1056 0.929 . S
H1029 C1057 0.929 . S
H1030 C1058 0.930 . S
H1031 C1059 0.929 . S
H1032 C1061 0.930 . S
H1033 C1038 0.930 . S
H1034 C1042 0.930 . S
O1035 Co1004 2.037 . S
O1035 C1055 1.234 . S
C1036 O1010 1.269 . S
C1036 O1011 1.257 . S
C1037 H1012 0.930 . S
C1037 C1040 1.388 . S
C1037 C1042 1.418 . S
C1038 H1033 0.930 . S
C1038 C1041 1.404 . S
C1038 C1042 1.353 . S
N1039 Co1004 2.145 . S
N1039 C1040 1.397 . S
N1039 C1041 1.334 . S
C1040 H1021 0.929 . S
C1040 C1037 1.388 . S
C1040 N1039 1.397 . S
C1041 H1022 0.929 . S
C1041 C1038 1.404 . S
C1041 N1039 1.334 . S
C1042 H1034 0.930 . S
C1042 C1037 1.418 . S
C1042 C1038 1.353 . S
C1043 H1013 0.930 . S
C1043 N1044 1.330 . S
C1043 C1045 1.446 . S
N1044 Co1003 2.151 . S
N1044 C1043 1.330 . S
N1044 C1048 1.418 . S
C1045 H1024 0.929 . S
C1045 C1043 1.446 . S
C1045 C1046 1.332 . S
C1046 H1026 0.931 . S
C1046 C1045 1.332 . S
C1046 C1047 1.267 . S
C1047 H1015 0.929 . S
C1047 C1046 1.267 . S
C1047 C1048 1.251 . S
C1048 H1018 0.929 . S
C1048 N1044 1.418 . S
C1048 C1047 1.251 . S
C1049 H1016 0.930 . S
C1049 C1051 1.406 . S
C1049 C1054 1.261 . S
C1050 H1017 0.930 . S
C1050 N1052 1.325 . S
C1050 C1053 1.357 . S
C1051 H1019 0.928 . S
C1051 C1049 1.406 . S
C1051 N1052 1.261 . S
N1052 Co1003 2.214 . S
N1052 C1050 1.325 . S
N1052 C1051 1.261 . S
C1053 H1023 0.931 . S
C1053 C1050 1.357 . S
C1053 C1054 1.312 . S
C1054 H1025 0.930 . S
C1054 C1049 1.261 . S
C1054 C1053 1.312 . S
C1055 O1027 1.214 . S
C1055 O1035 1.234 . S
C1056 H1028 0.929 . S
C1056 C1059 1.391 . S
C1056 C1061 1.391 . S
C1057 H1029 0.929 . S
C1057 C1058 1.390 . S
C1057 N1060 1.391 . S
C1058 H1030 0.930 . S
C1058 C1057 1.390 . S
C1058 C1059 1.392 . S
C1059 H1031 0.929 . S
C1059 C1056 1.391 . S
C1059 C1058 1.392 . S
N1060 Co1004 2.257 . S
N1060 C1057 1.391 . S
N1060 C1061 1.388 . S
C1061 H1032 0.930 . S
C1061 C1056 1.391 . S
C1061 N1060 1.388 . S
Co1062 O1064 2.143 . S
Co1062 O1070 2.074 . S
Co1062 O1073 2.093 . S
Co1062 O1086 2.097 . S
Co1062 N1103 2.151 . S
Co1062 N1111 2.214 . S
Co1063 O1064 2.160 . S
Co1063 O1069 2.058 . S
Co1063 O1079 2.057 . S
Co1063 O1094 2.037 . S
Co1063 N1098 2.145 . S
Co1063 N1119 2.257 . S
O1064 Co1062 2.143 . S
O1064 Co1063 2.160 . S
C1065 O1066 1.278 . S
C1065 O1073 1.224 . S
O1066 C1065 1.278 . S
C1067 O1068 1.245 . S
C1067 O1079 1.232 . S
O1068 C1067 1.245 . S
O1069 Co1063 2.058 . S
O1069 C1095 1.269 . S
O1070 Co1062 2.074 . S
O1070 C1095 1.257 . S
H1071 C1096 0.930 . S
H1072 C1102 0.930 . S
O1073 Co1062 2.093 . S
O1073 C1065 1.224 . S
H1074 C1106 0.929 . S
H1075 C1108 0.930 . S
H1076 C1109 0.930 . S
H1077 C1107 0.929 . S
H1078 C1110 0.928 . S
O1079 Co1063 2.057 . S
O1079 C1067 1.232 . S
H1080 C1099 0.929 . S
H1081 C1100 0.929 . S
H1082 C1112 0.931 . S
H1083 C1104 0.929 . S
H1084 C1113 0.930 . S
H1085 C1105 0.931 . S
O1086 Co1062 2.097 . S
O1086 C1114 1.214 . S
H1087 C1115 0.929 . S
H1088 C1116 0.929 . S
H1089 C1117 0.930 . S
H1090 C1118 0.929 . S
H1091 C1120 0.930 . S
H1092 C1097 0.930 . S
H1093 C1101 0.930 . S
O1094 Co1063 2.037 . S
O1094 C1114 1.234 . S
C1095 O1069 1.269 . S
C1095 O1070 1.257 . S
C1096 H1071 0.930 . S
C1096 C1099 1.388 . S
C1096 C1101 1.418 . S
C1097 H1092 0.930 . S
C1097 C1100 1.404 . S
C1097 C1101 1.353 . S
N1098 Co1063 2.145 . S
N1098 C1099 1.397 . S
N1098 C1100 1.334 . S
C1099 H1080 0.929 . S
C1099 C1096 1.388 . S
C1099 N1098 1.397 . S
C1100 H1081 0.929 . S
C1100 C1097 1.404 . S
C1100 N1098 1.334 . S
C1101 H1093 0.930 . S
C1101 C1096 1.418 . S
C1101 C1097 1.353 . S
C1102 H1072 0.930 . S
C1102 N1103 1.330 . S
C1102 C1104 1.446 . S
N1103 Co1062 2.151 . S
N1103 C1102 1.330 . S
N1103 C1107 1.418 . S
C1104 H1083 0.929 . S
C1104 C1102 1.446 . S
C1104 C1105 1.332 . S
C1105 H1085 0.931 . S
C1105 C1104 1.332 . S
C1105 C1106 1.267 . S
C1106 H1074 0.929 . S
C1106 C1105 1.267 . S
C1106 C1107 1.251 . S
C1107 H1077 0.929 . S
C1107 N1103 1.418 . S
C1107 C1106 1.251 . S
C1108 H1075 0.930 . S
C1108 C1110 1.406 . S
C1108 C1113 1.261 . S
C1109 H1076 0.930 . S
C1109 N1111 1.325 . S
C1109 C1112 1.357 . S
C1110 H1078 0.928 . S
C1110 C1108 1.406 . S
C1110 N1111 1.261 . S
N1111 Co1062 2.214 . S
N1111 C1109 1.325 . S
N1111 C1110 1.261 . S
C1112 H1082 0.931 . S
C1112 C1109 1.357 . S
C1112 C1113 1.312 . S
C1113 H1084 0.930 . S
C1113 C1108 1.261 . S
C1113 C1112 1.312 . S
C1114 O1086 1.214 . S
C1114 O1094 1.234 . S
C1115 H1087 0.929 . S
C1115 C1118 1.391 . S
C1115 C1120 1.391 . S
C1116 H1088 0.929 . S
C1116 C1117 1.390 . S
C1116 N1119 1.391 . S
C1117 H1089 0.930 . S
C1117 C1116 1.390 . S
C1117 C1118 1.392 . S
C1118 H1090 0.929 . S
C1118 C1115 1.391 . S
C1118 C1117 1.392 . S
N1119 Co1063 2.257 . S
N1119 C1116 1.391 . S
N1119 C1120 1.388 . S
C1120 H1091 0.930 . S
C1120 C1115 1.391 . S
C1120 N1119 1.388 . S
Co1121 O1123 2.143 . S
Co1121 O1129 2.074 . S
Co1121 O1132 2.093 . S
Co1121 O1145 2.097 . S
Co1121 N1162 2.151 . S
Co1121 N1170 2.214 . S
Co1122 O1123 2.160 . S
Co1122 O1128 2.058 . S
Co1122 O1138 2.057 . S
Co1122 O1153 2.037 . S
Co1122 N1157 2.145 . S
Co1122 N1178 2.257 . S
O1123 Co1121 2.143 . S
O1123 Co1122 2.160 . S
C1124 O1125 1.278 . S
C1124 O1132 1.224 . S
O1125 C1124 1.278 . S
C1126 O1127 1.245 . S
C1126 O1138 1.232 . S
O1127 C1126 1.245 . S
O1128 Co1122 2.058 . S
O1128 C1154 1.269 . S
O1129 Co1121 2.074 . S
O1129 C1154 1.257 . S
H1130 C1155 0.930 . S
H1131 C1161 0.930 . S
O1132 Co1121 2.093 . S
O1132 C1124 1.224 . S
H1133 C1165 0.929 . S
H1134 C1167 0.930 . S
H1135 C1168 0.930 . S
H1136 C1166 0.929 . S
H1137 C1169 0.928 . S
O1138 Co1122 2.057 . S
O1138 C1126 1.232 . S
H1139 C1158 0.929 . S
H1140 C1159 0.929 . S
H1141 C1171 0.931 . S
H1142 C1163 0.929 . S
H1143 C1172 0.930 . S
H1144 C1164 0.931 . S
O1145 Co1121 2.097 . S
O1145 C1173 1.214 . S
H1146 C1174 0.929 . S
H1147 C1175 0.929 . S
H1148 C1176 0.930 . S
H1149 C1177 0.929 . S
H1150 C1179 0.930 . S
H1151 C1156 0.930 . S
H1152 C1160 0.930 . S
O1153 Co1122 2.037 . S
O1153 C1173 1.234 . S
C1154 O1128 1.269 . S
C1154 O1129 1.257 . S
C1155 H1130 0.930 . S
C1155 C1158 1.388 . S
C1155 C1160 1.418 . S
C1156 H1151 0.930 . S
C1156 C1159 1.404 . S
C1156 C1160 1.353 . S
N1157 Co1122 2.145 . S
N1157 C1158 1.397 . S
N1157 C1159 1.334 . S
C1158 H1139 0.929 . S
C1158 C1155 1.388 . S
C1158 N1157 1.397 . S
C1159 H1140 0.929 . S
C1159 C1156 1.404 . S
C1159 N1157 1.334 . S
C1160 H1152 0.930 . S
C1160 C1155 1.418 . S
C1160 C1156 1.353 . S
C1161 H1131 0.930 . S
C1161 N1162 1.330 . S
C1161 C1163 1.446 . S
N1162 Co1121 2.151 . S
N1162 C1161 1.330 . S
N1162 C1166 1.418 . S
C1163 H1142 0.929 . S
C1163 C1161 1.446 . S
C1163 C1164 1.332 . S
C1164 H1144 0.931 . S
C1164 C1163 1.332 . S
C1164 C1165 1.267 . S
C1165 H1133 0.929 . S
C1165 C1164 1.267 . S
C1165 C1166 1.251 . S
C1166 H1136 0.929 . S
C1166 N1162 1.418 . S
C1166 C1165 1.251 . S
C1167 H1134 0.930 . S
C1167 C1169 1.406 . S
C1167 C1172 1.261 . S
C1168 H1135 0.930 . S
C1168 N1170 1.325 . S
C1168 C1171 1.357 . S
C1169 H1137 0.928 . S
C1169 C1167 1.406 . S
C1169 N1170 1.261 . S
N1170 Co1121 2.214 . S
N1170 C1168 1.325 . S
N1170 C1169 1.261 . S
C1171 H1141 0.931 . S
C1171 C1168 1.357 . S
C1171 C1172 1.312 . S
C1172 H1143 0.930 . S
C1172 C1167 1.261 . S
C1172 C1171 1.312 . S
C1173 O1145 1.214 . S
C1173 O1153 1.234 . S
C1174 H1146 0.929 . S
C1174 C1177 1.391 . S
C1174 C1179 1.391 . S
C1175 H1147 0.929 . S
C1175 C1176 1.390 . S
C1175 N1178 1.391 . S
C1176 H1148 0.930 . S
C1176 C1175 1.390 . S
C1176 C1177 1.392 . S
C1177 H1149 0.929 . S
C1177 C1174 1.391 . S
C1177 C1176 1.392 . S
N1178 Co1122 2.257 . S
N1178 C1175 1.391 . S
N1178 C1179 1.388 . S
C1179 H1150 0.930 . S
C1179 C1174 1.391 . S
C1179 N1178 1.388 . S
Co1180 O1182 2.143 . S
Co1180 O1188 2.074 . S
Co1180 O1191 2.093 . S
Co1180 O1204 2.097 . S
Co1180 N1221 2.151 . S
Co1180 N1229 2.214 . S
Co1181 O1182 2.160 . S
Co1181 O1187 2.058 . S
Co1181 O1197 2.057 . S
Co1181 O1212 2.037 . S
Co1181 N1216 2.145 . S
Co1181 N1237 2.257 . S
O1182 Co1180 2.143 . S
O1182 Co1181 2.160 . S
C1183 O1184 1.278 . S
C1183 O1191 1.224 . S
O1184 C1183 1.278 . S
C1185 O1186 1.245 . S
C1185 O1197 1.232 . S
O1186 C1185 1.245 . S
O1187 Co1181 2.058 . S
O1187 C1213 1.269 . S
O1188 Co1180 2.074 . S
O1188 C1213 1.257 . S
H1189 C1214 0.930 . S
H1190 C1220 0.930 . S
O1191 Co1180 2.093 . S
O1191 C1183 1.224 . S
H1192 C1224 0.929 . S
H1193 C1226 0.930 . S
H1194 C1227 0.930 . S
H1195 C1225 0.929 . S
H1196 C1228 0.928 . S
O1197 Co1181 2.057 . S
O1197 C1185 1.232 . S
H1198 C1217 0.929 . S
H1199 C1218 0.929 . S
H1200 C1230 0.931 . S
H1201 C1222 0.929 . S
H1202 C1231 0.930 . S
H1203 C1223 0.931 . S
O1204 Co1180 2.097 . S
O1204 C1232 1.214 . S
H1205 C1233 0.929 . S
H1206 C1234 0.929 . S
H1207 C1235 0.930 . S
H1208 C1236 0.929 . S
H1209 C1238 0.930 . S
H1210 C1215 0.930 . S
H1211 C1219 0.930 . S
O1212 Co1181 2.037 . S
O1212 C1232 1.234 . S
C1213 O1187 1.269 . S
C1213 O1188 1.257 . S
C1214 H1189 0.930 . S
C1214 C1217 1.388 . S
C1214 C1219 1.418 . S
C1215 H1210 0.930 . S
C1215 C1218 1.404 . S
C1215 C1219 1.353 . S
N1216 Co1181 2.145 . S
N1216 C1217 1.397 . S
N1216 C1218 1.334 . S
C1217 H1198 0.929 . S
C1217 C1214 1.388 . S
C1217 N1216 1.397 . S
C1218 H1199 0.929 . S
C1218 C1215 1.404 . S
C1218 N1216 1.334 . S
C1219 H1211 0.930 . S
C1219 C1214 1.418 . S
C1219 C1215 1.353 . S
C1220 H1190 0.930 . S
C1220 N1221 1.330 . S
C1220 C1222 1.446 . S
N1221 Co1180 2.151 . S
N1221 C1220 1.330 . S
N1221 C1225 1.418 . S
C1222 H1201 0.929 . S
C1222 C1220 1.446 . S
C1222 C1223 1.332 . S
C1223 H1203 0.931 . S
C1223 C1222 1.332 . S
C1223 C1224 1.267 . S
C1224 H1192 0.929 . S
C1224 C1223 1.267 . S
C1224 C1225 1.251 . S
C1225 H1195 0.929 . S
C1225 N1221 1.418 . S
C1225 C1224 1.251 . S
C1226 H1193 0.930 . S
C1226 C1228 1.406 . S
C1226 C1231 1.261 . S
C1227 H1194 0.930 . S
C1227 N1229 1.325 . S
C1227 C1230 1.357 . S
C1228 H1196 0.928 . S
C1228 C1226 1.406 . S
C1228 N1229 1.261 . S
N1229 Co1180 2.214 . S
N1229 C1227 1.325 . S
N1229 C1228 1.261 . S
C1230 H1200 0.931 . S
C1230 C1227 1.357 . S
C1230 C1231 1.312 . S
C1231 H1202 0.930 . S
C1231 C1226 1.261 . S
C1231 C1230 1.312 . S
C1232 O1204 1.214 . S
C1232 O1212 1.234 . S
C1233 H1205 0.929 . S
C1233 C1236 1.391 . S
C1233 C1238 1.391 . S
C1234 H1206 0.929 . S
C1234 C1235 1.390 . S
C1234 N1237 1.391 . S
C1235 H1207 0.930 . S
C1235 C1234 1.390 . S
C1235 C1236 1.392 . S
C1236 H1208 0.929 . S
C1236 C1233 1.391 . S
C1236 C1235 1.392 . S
N1237 Co1181 2.257 . S
N1237 C1234 1.391 . S
N1237 C1238 1.388 . S
C1238 H1209 0.930 . S
C1238 C1233 1.391 . S
C1238 N1237 1.388 . S
Co1239 O1241 2.143 . S
Co1239 O1247 2.074 . S
Co1239 O1250 2.093 . S
Co1239 O1263 2.097 . S
Co1239 N1280 2.151 . S
Co1239 N1288 2.214 . S
Co1240 O1241 2.160 . S
Co1240 O1246 2.058 . S
Co1240 O1256 2.057 . S
Co1240 O1271 2.037 . S
Co1240 N1275 2.145 . S
Co1240 N1296 2.257 . S
O1241 Co1239 2.143 . S
O1241 Co1240 2.160 . S
C1242 O1243 1.278 . S
C1242 O1250 1.224 . S
O1243 C1242 1.278 . S
C1244 O1245 1.245 . S
C1244 O1256 1.232 . S
O1245 C1244 1.245 . S
O1246 Co1240 2.058 . S
O1246 C1272 1.269 . S
O1247 Co1239 2.074 . S
O1247 C1272 1.257 . S
H1248 C1273 0.930 . S
H1249 C1279 0.930 . S
O1250 Co1239 2.093 . S
O1250 C1242 1.224 . S
H1251 C1283 0.929 . S
H1252 C1285 0.930 . S
H1253 C1286 0.930 . S
H1254 C1284 0.929 . S
H1255 C1287 0.928 . S
O1256 Co1240 2.057 . S
O1256 C1244 1.232 . S
H1257 C1276 0.929 . S
H1258 C1277 0.929 . S
H1259 C1289 0.931 . S
H1260 C1281 0.929 . S
H1261 C1290 0.930 . S
H1262 C1282 0.931 . S
O1263 Co1239 2.097 . S
O1263 C1291 1.214 . S
H1264 C1292 0.929 . S
H1265 C1293 0.929 . S
H1266 C1294 0.930 . S
H1267 C1295 0.929 . S
H1268 C1297 0.930 . S
H1269 C1274 0.930 . S
H1270 C1278 0.930 . S
O1271 Co1240 2.037 . S
O1271 C1291 1.234 . S
C1272 O1246 1.269 . S
C1272 O1247 1.257 . S
C1273 H1248 0.930 . S
C1273 C1276 1.388 . S
C1273 C1278 1.418 . S
C1274 H1269 0.930 . S
C1274 C1277 1.404 . S
C1274 C1278 1.353 . S
N1275 Co1240 2.145 . S
N1275 C1276 1.397 . S
N1275 C1277 1.334 . S
C1276 H1257 0.929 . S
C1276 C1273 1.388 . S
C1276 N1275 1.397 . S
C1277 H1258 0.929 . S
C1277 C1274 1.404 . S
C1277 N1275 1.334 . S
C1278 H1270 0.930 . S
C1278 C1273 1.418 . S
C1278 C1274 1.353 . S
C1279 H1249 0.930 . S
C1279 N1280 1.330 . S
C1279 C1281 1.446 . S
N1280 Co1239 2.151 . S
N1280 C1279 1.330 . S
N1280 C1284 1.418 . S
C1281 H1260 0.929 . S
C1281 C1279 1.446 . S
C1281 C1282 1.332 1_556 S
C1282 H1262 0.931 . S
C1282 C1281 1.332 1_554 S
C1282 C1283 1.267 . S
C1283 H1251 0.929 . S
C1283 C1282 1.267 . S
C1283 C1284 1.251 1_554 S
C1284 H1254 0.929 . S
C1284 N1280 1.418 . S
C1284 C1283 1.251 1_556 S
C1285 H1252 0.930 . S
C1285 C1287 1.406 . S
C1285 C1290 1.261 . S
C1286 H1253 0.930 . S
C1286 N1288 1.325 . S
C1286 C1289 1.357 . S
C1287 H1255 0.928 . S
C1287 C1285 1.406 . S
C1287 N1288 1.261 . S
N1288 Co1239 2.214 . S
N1288 C1286 1.325 . S
N1288 C1287 1.261 . S
C1289 H1259 0.931 . S
C1289 C1286 1.357 . S
C1289 C1290 1.312 . S
C1290 H1261 0.930 . S
C1290 C1285 1.261 . S
C1290 C1289 1.312 . S
C1291 O1263 1.214 . S
C1291 O1271 1.234 . S
C1292 H1264 0.929 . S
C1292 C1295 1.391 . S
C1292 C1297 1.391 . S
C1293 H1265 0.929 . S
C1293 C1294 1.390 . S
C1293 N1296 1.391 . S
C1294 H1266 0.930 . S
C1294 C1293 1.390 . S
C1294 C1295 1.392 . S
C1295 H1267 0.929 . S
C1295 C1292 1.391 . S
C1295 C1294 1.392 . S
N1296 Co1240 2.257 . S
N1296 C1293 1.391 . S
N1296 C1297 1.388 . S
C1297 H1268 0.930 . S
C1297 C1292 1.391 . S
C1297 N1296 1.388 . S
Co1298 O1300 2.143 . S
Co1298 O1306 2.074 . S
Co1298 O1309 2.093 . S
Co1298 O1322 2.097 . S
Co1298 N1339 2.151 . S
Co1298 N1347 2.214 . S
Co1299 O1300 2.160 . S
Co1299 O1305 2.058 . S
Co1299 O1315 2.057 . S
Co1299 O1330 2.037 . S
Co1299 N1334 2.145 . S
Co1299 N1355 2.257 . S
O1300 Co1298 2.143 . S
O1300 Co1299 2.160 . S
C1301 O1302 1.278 . S
C1301 O1309 1.224 . S
O1302 C1301 1.278 . S
C1303 O1304 1.245 . S
C1303 O1315 1.232 . S
O1304 C1303 1.245 . S
O1305 Co1299 2.058 . S
O1305 C1331 1.269 . S
O1306 Co1298 2.074 . S
O1306 C1331 1.257 . S
H1307 C1332 0.930 . S
H1308 C1338 0.930 . S
O1309 Co1298 2.093 . S
O1309 C1301 1.224 . S
H1310 C1342 0.929 . S
H1311 C1344 0.930 . S
H1312 C1345 0.930 . S
H1313 C1343 0.929 . S
H1314 C1346 0.928 . S
O1315 Co1299 2.057 . S
O1315 C1303 1.232 . S
H1316 C1335 0.929 . S
H1317 C1336 0.929 . S
H1318 C1348 0.931 . S
H1319 C1340 0.929 . S
H1320 C1349 0.930 . S
H1321 C1341 0.931 . S
O1322 Co1298 2.097 . S
O1322 C1350 1.214 . S
H1323 C1351 0.929 . S
H1324 C1352 0.929 . S
H1325 C1353 0.930 . S
H1326 C1354 0.929 . S
H1327 C1356 0.930 . S
H1328 C1333 0.930 . S
H1329 C1337 0.930 . S
O1330 Co1299 2.037 . S
O1330 C1350 1.234 . S
C1331 O1305 1.269 . S
C1331 O1306 1.257 . S
C1332 H1307 0.930 . S
C1332 C1335 1.388 . S
C1332 C1337 1.418 . S
C1333 H1328 0.930 . S
C1333 C1336 1.404 . S
C1333 C1337 1.353 . S
N1334 Co1299 2.145 . S
N1334 C1335 1.397 . S
N1334 C1336 1.334 . S
C1335 H1316 0.929 . S
C1335 C1332 1.388 . S
C1335 N1334 1.397 . S
C1336 H1317 0.929 . S
C1336 C1333 1.404 . S
C1336 N1334 1.334 . S
C1337 H1329 0.930 . S
C1337 C1332 1.418 . S
C1337 C1333 1.353 . S
C1338 H1308 0.930 . S
C1338 N1339 1.330 . S
C1338 C1340 1.446 . S
N1339 Co1298 2.151 . S
N1339 C1338 1.330 . S
N1339 C1343 1.418 . S
C1340 H1319 0.929 . S
C1340 C1338 1.446 . S
C1340 C1341 1.332 1_556 S
C1341 H1321 0.931 . S
C1341 C1340 1.332 1_554 S
C1341 C1342 1.267 . S
C1342 H1310 0.929 . S
C1342 C1341 1.267 . S
C1342 C1343 1.251 1_554 S
C1343 H1313 0.929 . S
C1343 N1339 1.418 . S
C1343 C1342 1.251 1_556 S
C1344 H1311 0.930 . S
C1344 C1346 1.406 . S
C1344 C1349 1.261 . S
C1345 H1312 0.930 . S
C1345 N1347 1.325 . S
C1345 C1348 1.357 . S
C1346 H1314 0.928 . S
C1346 C1344 1.406 . S
C1346 N1347 1.261 . S
N1347 Co1298 2.214 . S
N1347 C1345 1.325 . S
N1347 C1346 1.261 . S
C1348 H1318 0.931 . S
C1348 C1345 1.357 . S
C1348 C1349 1.312 . S
C1349 H1320 0.930 . S
C1349 C1344 1.261 . S
C1349 C1348 1.312 . S
C1350 O1322 1.214 . S
C1350 O1330 1.234 . S
C1351 H1323 0.929 . S
C1351 C1354 1.391 . S
C1351 C1356 1.391 . S
C1352 H1324 0.929 . S
C1352 C1353 1.390 . S
C1352 N1355 1.391 . S
C1353 H1325 0.930 . S
C1353 C1352 1.390 . S
C1353 C1354 1.392 . S
C1354 H1326 0.929 . S
C1354 C1351 1.391 . S
C1354 C1353 1.392 . S
N1355 Co1299 2.257 . S
N1355 C1352 1.391 . S
N1355 C1356 1.388 . S
C1356 H1327 0.930 . S
C1356 C1351 1.391 . S
C1356 N1355 1.388 . S
Co1357 O1359 2.143 . S
Co1357 O1365 2.074 . S
Co1357 O1368 2.093 . S
Co1357 O1381 2.097 . S
Co1357 N1398 2.151 . S
Co1357 N1406 2.214 . S
Co1358 O1359 2.160 . S
Co1358 O1364 2.058 . S
Co1358 O1374 2.057 . S
Co1358 O1389 2.037 . S
Co1358 N1393 2.145 . S
Co1358 N1414 2.257 . S
O1359 Co1357 2.143 . S
O1359 Co1358 2.160 . S
C1360 O1361 1.278 . S
C1360 O1368 1.224 . S
O1361 C1360 1.278 . S
C1362 O1363 1.245 . S
C1362 O1374 1.232 . S
O1363 C1362 1.245 . S
O1364 Co1358 2.058 . S
O1364 C1390 1.269 . S
O1365 Co1357 2.074 . S
O1365 C1390 1.257 . S
H1366 C1391 0.930 . S
H1367 C1397 0.930 . S
O1368 Co1357 2.093 . S
O1368 C1360 1.224 . S
H1369 C1401 0.929 . S
H1370 C1403 0.930 . S
H1371 C1404 0.930 . S
H1372 C1402 0.929 . S
H1373 C1405 0.928 . S
O1374 Co1358 2.057 . S
O1374 C1362 1.232 . S
H1375 C1394 0.929 . S
H1376 C1395 0.929 . S
H1377 C1407 0.931 . S
H1378 C1399 0.929 . S
H1379 C1408 0.930 . S
H1380 C1400 0.931 . S
O1381 Co1357 2.097 . S
O1381 C1409 1.214 . S
H1382 C1410 0.929 . S
H1383 C1411 0.929 . S
H1384 C1412 0.930 . S
H1385 C1413 0.929 . S
H1386 C1415 0.930 . S
H1387 C1392 0.930 . S
H1388 C1396 0.930 . S
O1389 Co1358 2.037 . S
O1389 C1409 1.234 . S
C1390 O1364 1.269 . S
C1390 O1365 1.257 . S
C1391 H1366 0.930 . S
C1391 C1394 1.388 . S
C1391 C1396 1.418 . S
C1392 H1387 0.930 . S
C1392 C1395 1.404 . S
C1392 C1396 1.353 . S
N1393 Co1358 2.145 . S
N1393 C1394 1.397 . S
N1393 C1395 1.334 . S
C1394 H1375 0.929 . S
C1394 C1391 1.388 . S
C1394 N1393 1.397 . S
C1395 H1376 0.929 . S
C1395 C1392 1.404 . S
C1395 N1393 1.334 . S
C1396 H1388 0.930 . S
C1396 C1391 1.418 . S
C1396 C1392 1.353 . S
C1397 H1367 0.930 . S
C1397 N1398 1.330 . S
C1397 C1399 1.446 . S
N1398 Co1357 2.151 . S
N1398 C1397 1.330 . S
N1398 C1402 1.418 . S
C1399 H1378 0.929 . S
C1399 C1397 1.446 . S
C1399 C1400 1.332 1_556 S
C1400 H1380 0.931 . S
C1400 C1399 1.332 1_554 S
C1400 C1401 1.267 . S
C1401 H1369 0.929 . S
C1401 C1400 1.267 . S
C1401 C1402 1.251 1_554 S
C1402 H1372 0.929 . S
C1402 N1398 1.418 . S
C1402 C1401 1.251 1_556 S
C1403 H1370 0.930 . S
C1403 C1405 1.406 . S
C1403 C1408 1.261 . S
C1404 H1371 0.930 . S
C1404 N1406 1.325 . S
C1404 C1407 1.357 . S
C1405 H1373 0.928 . S
C1405 C1403 1.406 . S
C1405 N1406 1.261 . S
N1406 Co1357 2.214 . S
N1406 C1404 1.325 . S
N1406 C1405 1.261 . S
C1407 H1377 0.931 . S
C1407 C1404 1.357 . S
C1407 C1408 1.312 . S
C1408 H1379 0.930 . S
C1408 C1403 1.261 . S
C1408 C1407 1.312 . S
C1409 O1381 1.214 . S
C1409 O1389 1.234 . S
C1410 H1382 0.929 . S
C1410 C1413 1.391 . S
C1410 C1415 1.391 . S
C1411 H1383 0.929 . S
C1411 C1412 1.390 . S
C1411 N1414 1.391 . S
C1412 H1384 0.930 . S
C1412 C1411 1.390 . S
C1412 C1413 1.392 . S
C1413 H1385 0.929 . S
C1413 C1410 1.391 . S
C1413 C1412 1.392 . S
N1414 Co1358 2.257 . S
N1414 C1411 1.391 . S
N1414 C1415 1.388 . S
C1415 H1386 0.930 . S
C1415 C1410 1.391 . S
C1415 N1414 1.388 . S
Co1416 O1418 2.143 . S
Co1416 O1424 2.074 . S
Co1416 O1427 2.093 . S
Co1416 O1440 2.097 . S
Co1416 N1457 2.151 . S
Co1416 N1465 2.214 . S
Co1417 O1418 2.160 . S
Co1417 O1423 2.058 . S
Co1417 O1433 2.057 . S
Co1417 O1448 2.037 . S
Co1417 N1452 2.145 . S
Co1417 N1473 2.257 . S
O1418 Co1416 2.143 . S
O1418 Co1417 2.160 . S
C1419 O1420 1.278 . S
C1419 O1427 1.224 . S
O1420 C1419 1.278 . S
C1421 O1422 1.245 . S
C1421 O1433 1.232 . S
O1422 C1421 1.245 . S
O1423 Co1417 2.058 . S
O1423 C1449 1.269 . S
O1424 Co1416 2.074 . S
O1424 C1449 1.257 . S
H1425 C1450 0.930 . S
H1426 C1456 0.930 . S
O1427 Co1416 2.093 . S
O1427 C1419 1.224 . S
H1428 C1460 0.929 . S
H1429 C1462 0.930 . S
H1430 C1463 0.930 . S
H1431 C1461 0.929 . S
H1432 C1464 0.928 . S
O1433 Co1417 2.057 . S
O1433 C1421 1.232 . S
H1434 C1453 0.929 . S
H1435 C1454 0.929 . S
H1436 C1466 0.931 . S
H1437 C1458 0.929 . S
H1438 C1467 0.930 . S
H1439 C1459 0.931 . S
O1440 Co1416 2.097 . S
O1440 C1468 1.214 . S
H1441 C1469 0.929 . S
H1442 C1470 0.929 . S
H1443 C1471 0.930 . S
H1444 C1472 0.929 . S
H1445 C1474 0.930 . S
H1446 C1451 0.930 . S
H1447 C1455 0.930 . S
O1448 Co1417 2.037 . S
O1448 C1468 1.234 . S
C1449 O1423 1.269 . S
C1449 O1424 1.257 . S
C1450 H1425 0.930 . S
C1450 C1453 1.388 . S
C1450 C1455 1.418 . S
C1451 H1446 0.930 . S
C1451 C1454 1.404 . S
C1451 C1455 1.353 . S
N1452 Co1417 2.145 . S
N1452 C1453 1.397 . S
N1452 C1454 1.334 . S
C1453 H1434 0.929 . S
C1453 C1450 1.388 . S
C1453 N1452 1.397 . S
C1454 H1435 0.929 . S
C1454 C1451 1.404 . S
C1454 N1452 1.334 . S
C1455 H1447 0.930 . S
C1455 C1450 1.418 . S
C1455 C1451 1.353 . S
C1456 H1426 0.930 . S
C1456 N1457 1.330 . S
C1456 C1458 1.446 . S
N1457 Co1416 2.151 . S
N1457 C1456 1.330 . S
N1457 C1461 1.418 . S
C1458 H1437 0.929 . S
C1458 C1456 1.446 . S
C1458 C1459 1.332 . S
C1459 H1439 0.931 . S
C1459 C1458 1.332 . S
C1459 C1460 1.267 . S
C1460 H1428 0.929 . S
C1460 C1459 1.267 . S
C1460 C1461 1.251 . S
C1461 H1431 0.929 . S
C1461 N1457 1.418 . S
C1461 C1460 1.251 . S
C1462 H1429 0.930 . S
C1462 C1464 1.406 . S
C1462 C1467 1.261 . S
C1463 H1430 0.930 . S
C1463 N1465 1.325 . S
C1463 C1466 1.357 . S
C1464 H1432 0.928 . S
C1464 C1462 1.406 . S
C1464 N1465 1.261 . S
N1465 Co1416 2.214 . S
N1465 C1463 1.325 . S
N1465 C1464 1.261 . S
C1466 H1436 0.931 . S
C1466 C1463 1.357 . S
C1466 C1467 1.312 . S
C1467 H1438 0.930 . S
C1467 C1462 1.261 . S
C1467 C1466 1.312 . S
C1468 O1440 1.214 . S
C1468 O1448 1.234 . S
C1469 H1441 0.929 . S
C1469 C1472 1.391 . S
C1469 C1474 1.391 . S
C1470 H1442 0.929 . S
C1470 C1471 1.390 . S
C1470 N1473 1.391 . S
C1471 H1443 0.930 . S
C1471 C1470 1.390 . S
C1471 C1472 1.392 . S
C1472 H1444 0.929 . S
C1472 C1469 1.391 . S
C1472 C1471 1.392 . S
N1473 Co1417 2.257 . S
N1473 C1470 1.391 . S
N1473 C1474 1.388 . S
C1474 H1445 0.930 . S
C1474 C1469 1.391 . S
C1474 N1473 1.388 . S
Co1475 O1477 2.143 . S
Co1475 O1483 2.074 . S
Co1475 O1486 2.093 . S
Co1475 O1499 2.097 . S
Co1475 N1516 2.151 . S
Co1475 N1524 2.214 . S
Co1476 O1477 2.160 . S
Co1476 O1482 2.058 . S
Co1476 O1492 2.057 . S
Co1476 O1507 2.037 . S
Co1476 N1511 2.145 . S
Co1476 N1532 2.257 . S
O1477 Co1475 2.143 . S
O1477 Co1476 2.160 . S
C1478 O1479 1.278 . S
C1478 O1486 1.224 . S
O1479 C1478 1.278 . S
C1480 O1481 1.245 . S
C1480 O1492 1.232 . S
O1481 C1480 1.245 . S
O1482 Co1476 2.058 . S
O1482 C1508 1.269 . S
O1483 Co1475 2.074 . S
O1483 C1508 1.257 . S
H1484 C1509 0.930 . S
H1485 C1515 0.930 . S
O1486 Co1475 2.093 . S
O1486 C1478 1.224 . S
H1487 C1519 0.929 . S
H1488 C1521 0.930 . S
H1489 C1522 0.930 . S
H1490 C1520 0.929 . S
H1491 C1523 0.928 . S
O1492 Co1476 2.057 . S
O1492 C1480 1.232 . S
H1493 C1512 0.929 . S
H1494 C1513 0.929 . S
H1495 C1525 0.931 . S
H1496 C1517 0.929 . S
H1497 C1526 0.930 . S
H1498 C1518 0.931 . S
O1499 Co1475 2.097 . S
O1499 C1527 1.214 . S
H1500 C1528 0.929 . S
H1501 C1529 0.929 . S
H1502 C1530 0.930 . S
H1503 C1531 0.929 . S
H1504 C1533 0.930 . S
H1505 C1510 0.930 . S
H1506 C1514 0.930 . S
O1507 Co1476 2.037 . S
O1507 C1527 1.234 . S
C1508 O1482 1.269 . S
C1508 O1483 1.257 . S
C1509 H1484 0.930 . S
C1509 C1512 1.388 . S
C1509 C1514 1.418 . S
C1510 H1505 0.930 . S
C1510 C1513 1.404 . S
C1510 C1514 1.353 . S
N1511 Co1476 2.145 . S
N1511 C1512 1.397 . S
N1511 C1513 1.334 . S
C1512 H1493 0.929 . S
C1512 C1509 1.388 . S
C1512 N1511 1.397 . S
C1513 H1494 0.929 . S
C1513 C1510 1.404 . S
C1513 N1511 1.334 . S
C1514 H1506 0.930 . S
C1514 C1509 1.418 . S
C1514 C1510 1.353 . S
C1515 H1485 0.930 . S
C1515 N1516 1.330 . S
C1515 C1517 1.446 . S
N1516 Co1475 2.151 . S
N1516 C1515 1.330 . S
N1516 C1520 1.418 . S
C1517 H1496 0.929 . S
C1517 C1515 1.446 . S
C1517 C1518 1.332 . S
C1518 H1498 0.931 . S
C1518 C1517 1.332 . S
C1518 C1519 1.267 . S
C1519 H1487 0.929 . S
C1519 C1518 1.267 . S
C1519 C1520 1.251 . S
C1520 H1490 0.929 . S
C1520 N1516 1.418 . S
C1520 C1519 1.251 . S
C1521 H1488 0.930 . S
C1521 C1523 1.406 . S
C1521 C1526 1.261 . S
C1522 H1489 0.930 . S
C1522 N1524 1.325 . S
C1522 C1525 1.357 . S
C1523 H1491 0.928 . S
C1523 C1521 1.406 . S
C1523 N1524 1.261 . S
N1524 Co1475 2.214 . S
N1524 C1522 1.325 . S
N1524 C1523 1.261 . S
C1525 H1495 0.931 . S
C1525 C1522 1.357 . S
C1525 C1526 1.312 . S
C1526 H1497 0.930 . S
C1526 C1521 1.261 . S
C1526 C1525 1.312 . S
C1527 O1499 1.214 . S
C1527 O1507 1.234 . S
C1528 H1500 0.929 . S
C1528 C1531 1.391 . S
C1528 C1533 1.391 . S
C1529 H1501 0.929 . S
C1529 C1530 1.390 . S
C1529 N1532 1.391 . S
C1530 H1502 0.930 . S
C1530 C1529 1.390 . S
C1530 C1531 1.392 . S
C1531 H1503 0.929 . S
C1531 C1528 1.391 . S
C1531 C1530 1.392 . S
N1532 Co1476 2.257 . S
N1532 C1529 1.391 . S
N1532 C1533 1.388 . S
C1533 H1504 0.930 . S
C1533 C1528 1.391 . S
C1533 N1532 1.388 . S
Co1534 O1536 2.143 . S
Co1534 O1542 2.074 . S
Co1534 O1545 2.093 . S
Co1534 O1558 2.097 . S
Co1534 N1575 2.151 . S
Co1534 N1583 2.214 . S
Co1535 O1536 2.160 . S
Co1535 O1541 2.058 . S
Co1535 O1551 2.057 . S
Co1535 O1566 2.037 . S
Co1535 N1570 2.145 . S
Co1535 N1591 2.257 . S
O1536 Co1534 2.143 . S
O1536 Co1535 2.160 . S
C1537 O1538 1.278 . S
C1537 O1545 1.224 . S
O1538 C1537 1.278 . S
C1539 O1540 1.245 . S
C1539 O1551 1.232 . S
O1540 C1539 1.245 . S
O1541 Co1535 2.058 . S
O1541 C1567 1.269 . S
O1542 Co1534 2.074 . S
O1542 C1567 1.257 . S
H1543 C1568 0.930 . S
H1544 C1574 0.930 . S
O1545 Co1534 2.093 . S
O1545 C1537 1.224 . S
H1546 C1578 0.929 . S
H1547 C1580 0.930 . S
H1548 C1581 0.930 . S
H1549 C1579 0.929 . S
H1550 C1582 0.928 . S
O1551 Co1535 2.057 . S
O1551 C1539 1.232 . S
H1552 C1571 0.929 . S
H1553 C1572 0.929 . S
H1554 C1584 0.931 . S
H1555 C1576 0.929 . S
H1556 C1585 0.930 . S
H1557 C1577 0.931 . S
O1558 Co1534 2.097 . S
O1558 C1586 1.214 . S
H1559 C1587 0.929 . S
H1560 C1588 0.929 . S
H1561 C1589 0.930 . S
H1562 C1590 0.929 . S
H1563 C1592 0.930 . S
H1564 C1569 0.930 . S
H1565 C1573 0.930 . S
O1566 Co1535 2.037 . S
O1566 C1586 1.234 . S
C1567 O1541 1.269 . S
C1567 O1542 1.257 . S
C1568 H1543 0.930 . S
C1568 C1571 1.388 . S
C1568 C1573 1.418 . S
C1569 H1564 0.930 . S
C1569 C1572 1.404 . S
C1569 C1573 1.353 . S
N1570 Co1535 2.145 . S
N1570 C1571 1.397 . S
N1570 C1572 1.334 . S
C1571 H1552 0.929 . S
C1571 C1568 1.388 . S
C1571 N1570 1.397 . S
C1572 H1553 0.929 . S
C1572 C1569 1.404 . S
C1572 N1570 1.334 . S
C1573 H1565 0.930 . S
C1573 C1568 1.418 . S
C1573 C1569 1.353 . S
C1574 H1544 0.930 . S
C1574 N1575 1.330 . S
C1574 C1576 1.446 . S
N1575 Co1534 2.151 . S
N1575 C1574 1.330 . S
N1575 C1579 1.418 . S
C1576 H1555 0.929 . S
C1576 C1574 1.446 . S
C1576 C1577 1.332 . S
C1577 H1557 0.931 . S
C1577 C1576 1.332 . S
C1577 C1578 1.267 . S
C1578 H1546 0.929 . S
C1578 C1577 1.267 . S
C1578 C1579 1.251 . S
C1579 H1549 0.929 . S
C1579 N1575 1.418 . S
C1579 C1578 1.251 . S
C1580 H1547 0.930 . S
C1580 C1582 1.406 . S
C1580 C1585 1.261 . S
C1581 H1548 0.930 . S
C1581 N1583 1.325 . S
C1581 C1584 1.357 . S
C1582 H1550 0.928 . S
C1582 C1580 1.406 . S
C1582 N1583 1.261 . S
N1583 Co1534 2.214 . S
N1583 C1581 1.325 . S
N1583 C1582 1.261 . S
C1584 H1554 0.931 . S
C1584 C1581 1.357 . S
C1584 C1585 1.312 . S
C1585 H1556 0.930 . S
C1585 C1580 1.261 . S
C1585 C1584 1.312 . S
C1586 O1558 1.214 . S
C1586 O1566 1.234 . S
C1587 H1559 0.929 . S
C1587 C1590 1.391 . S
C1587 C1592 1.391 . S
C1588 H1560 0.929 . S
C1588 C1589 1.390 . S
C1588 N1591 1.391 . S
C1589 H1561 0.930 . S
C1589 C1588 1.390 . S
C1589 C1590 1.392 . S
C1590 H1562 0.929 . S
C1590 C1587 1.391 . S
C1590 C1589 1.392 . S
N1591 Co1535 2.257 . S
N1591 C1588 1.391 . S
N1591 C1592 1.388 . S
C1592 H1563 0.930 . S
C1592 C1587 1.391 . S
C1592 N1591 1.388 . S
Co1593 O1595 2.143 . S
Co1593 O1601 2.074 . S
Co1593 O1604 2.093 . S
Co1593 O1617 2.097 . S
Co1593 N1634 2.151 . S
Co1593 N1642 2.214 . S
Co1594 O1595 2.160 . S
Co1594 O1600 2.058 . S
Co1594 O1610 2.057 . S
Co1594 O1625 2.037 . S
Co1594 N1629 2.145 . S
Co1594 N1650 2.257 . S
O1595 Co1593 2.143 . S
O1595 Co1594 2.160 . S
C1596 O1597 1.278 . S
C1596 O1604 1.224 . S
O1597 C1596 1.278 . S
C1598 O1599 1.245 . S
C1598 O1610 1.232 . S
O1599 C1598 1.245 . S
O1600 Co1594 2.058 . S
O1600 C1626 1.269 . S
O1601 Co1593 2.074 . S
O1601 C1626 1.257 . S
H1602 C1627 0.930 . S
H1603 C1633 0.930 . S
O1604 Co1593 2.093 . S
O1604 C1596 1.224 . S
H1605 C1637 0.929 . S
H1606 C1639 0.930 . S
H1607 C1640 0.930 . S
H1608 C1638 0.929 . S
H1609 C1641 0.928 . S
O1610 Co1594 2.057 . S
O1610 C1598 1.232 . S
H1611 C1630 0.929 . S
H1612 C1631 0.929 . S
H1613 C1643 0.931 . S
H1614 C1635 0.929 . S
H1615 C1644 0.930 . S
H1616 C1636 0.931 . S
O1617 Co1593 2.097 . S
O1617 C1645 1.214 . S
H1618 C1646 0.929 . S
H1619 C1647 0.929 . S
H1620 C1648 0.930 . S
H1621 C1649 0.929 . S
H1622 C1651 0.930 . S
H1623 C1628 0.930 . S
H1624 C1632 0.930 . S
O1625 Co1594 2.037 . S
O1625 C1645 1.234 . S
C1626 O1600 1.269 . S
C1626 O1601 1.257 . S
C1627 H1602 0.930 . S
C1627 C1630 1.388 . S
C1627 C1632 1.418 . S
C1628 H1623 0.930 . S
C1628 C1631 1.404 . S
C1628 C1632 1.353 . S
N1629 Co1594 2.145 . S
N1629 C1630 1.397 . S
N1629 C1631 1.334 . S
C1630 H1611 0.929 . S
C1630 C1627 1.388 . S
C1630 N1629 1.397 . S
C1631 H1612 0.929 . S
C1631 C1628 1.404 . S
C1631 N1629 1.334 . S
C1632 H1624 0.930 . S
C1632 C1627 1.418 . S
C1632 C1628 1.353 . S
C1633 H1603 0.930 . S
C1633 N1634 1.330 . S
C1633 C1635 1.446 . S
N1634 Co1593 2.151 . S
N1634 C1633 1.330 . S
N1634 C1638 1.418 . S
C1635 H1614 0.929 . S
C1635 C1633 1.446 . S
C1635 C1636 1.332 1_554 S
C1636 H1616 0.931 . S
C1636 C1635 1.332 1_556 S
C1636 C1637 1.267 . S
C1637 H1605 0.929 . S
C1637 C1636 1.267 . S
C1637 C1638 1.251 1_556 S
C1638 H1608 0.929 . S
C1638 N1634 1.418 . S
C1638 C1637 1.251 1_554 S
C1639 H1606 0.930 . S
C1639 C1641 1.406 . S
C1639 C1644 1.261 . S
C1640 H1607 0.930 . S
C1640 N1642 1.325 . S
C1640 C1643 1.357 . S
C1641 H1609 0.928 . S
C1641 C1639 1.406 . S
C1641 N1642 1.261 . S
N1642 Co1593 2.214 . S
N1642 C1640 1.325 . S
N1642 C1641 1.261 . S
C1643 H1613 0.931 . S
C1643 C1640 1.357 . S
C1643 C1644 1.312 . S
C1644 H1615 0.930 . S
C1644 C1639 1.261 . S
C1644 C1643 1.312 . S
C1645 O1617 1.214 . S
C1645 O1625 1.234 . S
C1646 H1618 0.929 . S
C1646 C1649 1.391 . S
C1646 C1651 1.391 . S
C1647 H1619 0.929 . S
C1647 C1648 1.390 . S
C1647 N1650 1.391 . S
C1648 H1620 0.930 . S
C1648 C1647 1.390 . S
C1648 C1649 1.392 . S
C1649 H1621 0.929 . S
C1649 C1646 1.391 . S
C1649 C1648 1.392 . S
N1650 Co1594 2.257 . S
N1650 C1647 1.391 . S
N1650 C1651 1.388 . S
C1651 H1622 0.930 . S
C1651 C1646 1.391 . S
C1651 N1650 1.388 . S
Co1652 O1654 2.143 . S
Co1652 O1660 2.074 . S
Co1652 O1663 2.093 . S
Co1652 O1676 2.097 . S
Co1652 N1693 2.151 . S
Co1652 N1701 2.214 . S
Co1653 O1654 2.160 . S
Co1653 O1659 2.058 . S
Co1653 O1669 2.057 . S
Co1653 O1684 2.037 . S
Co1653 N1688 2.145 . S
Co1653 N1709 2.257 . S
O1654 Co1652 2.143 . S
O1654 Co1653 2.160 . S
C1655 O1656 1.278 . S
C1655 O1663 1.224 . S
O1656 C1655 1.278 . S
C1657 O1658 1.245 . S
C1657 O1669 1.232 . S
O1658 C1657 1.245 . S
O1659 Co1653 2.058 . S
O1659 C1685 1.269 . S
O1660 Co1652 2.074 . S
O1660 C1685 1.257 . S
H1661 C1686 0.930 . S
H1662 C1692 0.930 . S
O1663 Co1652 2.093 . S
O1663 C1655 1.224 . S
H1664 C1696 0.929 . S
H1665 C1698 0.930 . S
H1666 C1699 0.930 . S
H1667 C1697 0.929 . S
H1668 C1700 0.928 . S
O1669 Co1653 2.057 . S
O1669 C1657 1.232 . S
H1670 C1689 0.929 . S
H1671 C1690 0.929 . S
H1672 C1702 0.931 . S
H1673 C1694 0.929 . S
H1674 C1703 0.930 . S
H1675 C1695 0.931 . S
O1676 Co1652 2.097 . S
O1676 C1704 1.214 . S
H1677 C1705 0.929 . S
H1678 C1706 0.929 . S
H1679 C1707 0.930 . S
H1680 C1708 0.929 . S
H1681 C1710 0.930 . S
H1682 C1687 0.930 . S
H1683 C1691 0.930 . S
O1684 Co1653 2.037 . S
O1684 C1704 1.234 . S
C1685 O1659 1.269 . S
C1685 O1660 1.257 . S
C1686 H1661 0.930 . S
C1686 C1689 1.388 . S
C1686 C1691 1.418 . S
C1687 H1682 0.930 . S
C1687 C1690 1.404 . S
C1687 C1691 1.353 . S
N1688 Co1653 2.145 . S
N1688 C1689 1.397 . S
N1688 C1690 1.334 . S
C1689 H1670 0.929 . S
C1689 C1686 1.388 . S
C1689 N1688 1.397 . S
C1690 H1671 0.929 . S
C1690 C1687 1.404 . S
C1690 N1688 1.334 . S
C1691 H1683 0.930 . S
C1691 C1686 1.418 . S
C1691 C1687 1.353 . S
C1692 H1662 0.930 . S
C1692 N1693 1.330 . S
C1692 C1694 1.446 . S
N1693 Co1652 2.151 . S
N1693 C1692 1.330 . S
N1693 C1697 1.418 . S
C1694 H1673 0.929 . S
C1694 C1692 1.446 . S
C1694 C1695 1.332 1_554 S
C1695 H1675 0.931 . S
C1695 C1694 1.332 1_556 S
C1695 C1696 1.267 . S
C1696 H1664 0.929 . S
C1696 C1695 1.267 . S
C1696 C1697 1.251 1_556 S
C1697 H1667 0.929 . S
C1697 N1693 1.418 . S
C1697 C1696 1.251 1_554 S
C1698 H1665 0.930 . S
C1698 C1700 1.406 . S
C1698 C1703 1.261 . S
C1699 H1666 0.930 . S
C1699 N1701 1.325 . S
C1699 C1702 1.357 . S
C1700 H1668 0.928 . S
C1700 C1698 1.406 . S
C1700 N1701 1.261 . S
N1701 Co1652 2.214 . S
N1701 C1699 1.325 . S
N1701 C1700 1.261 . S
C1702 H1672 0.931 . S
C1702 C1699 1.357 . S
C1702 C1703 1.312 . S
C1703 H1674 0.930 . S
C1703 C1698 1.261 . S
C1703 C1702 1.312 . S
C1704 O1676 1.214 . S
C1704 O1684 1.234 . S
C1705 H1677 0.929 . S
C1705 C1708 1.391 . S
C1705 C1710 1.391 . S
C1706 H1678 0.929 . S
C1706 C1707 1.390 . S
C1706 N1709 1.391 . S
C1707 H1679 0.930 . S
C1707 C1706 1.390 . S
C1707 C1708 1.392 . S
C1708 H1680 0.929 . S
C1708 C1705 1.391 . S
C1708 C1707 1.392 . S
N1709 Co1653 2.257 . S
N1709 C1706 1.391 . S
N1709 C1710 1.388 . S
C1710 H1681 0.930 . S
C1710 C1705 1.391 . S
C1710 N1709 1.388 . S
Co1711 O1713 2.143 . S
Co1711 O1719 2.074 . S
Co1711 O1722 2.093 . S
Co1711 O1735 2.097 . S
Co1711 N1752 2.151 . S
Co1711 N1760 2.214 . S
Co1712 O1713 2.160 . S
Co1712 O1718 2.058 . S
Co1712 O1728 2.057 . S
Co1712 O1743 2.037 . S
Co1712 N1747 2.145 . S
Co1712 N1768 2.257 . S
O1713 Co1711 2.143 . S
O1713 Co1712 2.160 . S
C1714 O1715 1.278 . S
C1714 O1722 1.224 . S
O1715 C1714 1.278 . S
C1716 O1717 1.245 . S
C1716 O1728 1.232 . S
O1717 C1716 1.245 . S
O1718 Co1712 2.058 . S
O1718 C1744 1.269 . S
O1719 Co1711 2.074 . S
O1719 C1744 1.257 . S
H1720 C1745 0.930 . S
H1721 C1751 0.930 . S
O1722 Co1711 2.093 . S
O1722 C1714 1.224 . S
H1723 C1755 0.929 . S
H1724 C1757 0.930 . S
H1725 C1758 0.930 . S
H1726 C1756 0.929 . S
H1727 C1759 0.928 . S
O1728 Co1712 2.057 . S
O1728 C1716 1.232 . S
H1729 C1748 0.929 . S
H1730 C1749 0.929 . S
H1731 C1761 0.931 . S
H1732 C1753 0.929 . S
H1733 C1762 0.930 . S
H1734 C1754 0.931 . S
O1735 Co1711 2.097 . S
O1735 C1763 1.214 . S
H1736 C1764 0.929 . S
H1737 C1765 0.929 . S
H1738 C1766 0.930 . S
H1739 C1767 0.929 . S
H1740 C1769 0.930 . S
H1741 C1746 0.930 . S
H1742 C1750 0.930 . S
O1743 Co1712 2.037 . S
O1743 C1763 1.234 . S
C1744 O1718 1.269 . S
C1744 O1719 1.257 . S
C1745 H1720 0.930 . S
C1745 C1748 1.388 . S
C1745 C1750 1.418 . S
C1746 H1741 0.930 . S
C1746 C1749 1.404 . S
C1746 C1750 1.353 . S
N1747 Co1712 2.145 . S
N1747 C1748 1.397 . S
N1747 C1749 1.334 . S
C1748 H1729 0.929 . S
C1748 C1745 1.388 . S
C1748 N1747 1.397 . S
C1749 H1730 0.929 . S
C1749 C1746 1.404 . S
C1749 N1747 1.334 . S
C1750 H1742 0.930 . S
C1750 C1745 1.418 . S
C1750 C1746 1.353 . S
C1751 H1721 0.930 . S
C1751 N1752 1.330 . S
C1751 C1753 1.446 . S
N1752 Co1711 2.151 . S
N1752 C1751 1.330 . S
N1752 C1756 1.418 . S
C1753 H1732 0.929 . S
C1753 C1751 1.446 . S
C1753 C1754 1.332 1_554 S
C1754 H1734 0.931 . S
C1754 C1753 1.332 1_556 S
C1754 C1755 1.267 . S
C1755 H1723 0.929 . S
C1755 C1754 1.267 . S
C1755 C1756 1.251 1_556 S
C1756 H1726 0.929 . S
C1756 N1752 1.418 . S
C1756 C1755 1.251 1_554 S
C1757 H1724 0.930 . S
C1757 C1759 1.406 . S
C1757 C1762 1.261 . S
C1758 H1725 0.930 . S
C1758 N1760 1.325 . S
C1758 C1761 1.357 . S
C1759 H1727 0.928 . S
C1759 C1757 1.406 . S
C1759 N1760 1.261 . S
N1760 Co1711 2.214 . S
N1760 C1758 1.325 . S
N1760 C1759 1.261 . S
C1761 H1731 0.931 . S
C1761 C1758 1.357 . S
C1761 C1762 1.312 . S
C1762 H1733 0.930 . S
C1762 C1757 1.261 . S
C1762 C1761 1.312 . S
C1763 O1735 1.214 . S
C1763 O1743 1.234 . S
C1764 H1736 0.929 . S
C1764 C1767 1.391 . S
C1764 C1769 1.391 . S
C1765 H1737 0.929 . S
C1765 C1766 1.390 . S
C1765 N1768 1.391 . S
C1766 H1738 0.930 . S
C1766 C1765 1.390 . S
C1766 C1767 1.392 . S
C1767 H1739 0.929 . S
C1767 C1764 1.391 . S
C1767 C1766 1.392 . S
N1768 Co1712 2.257 . S
N1768 C1765 1.391 . S
N1768 C1769 1.388 . S
C1769 H1740 0.930 . S
C1769 C1764 1.391 . S
C1769 N1768 1.388 . S
Co1770 O1772 2.143 . S
Co1770 O1778 2.074 . S
Co1770 O1781 2.093 . S
Co1770 O1794 2.097 . S
Co1770 N1811 2.151 . S
Co1770 N1819 2.214 . S
Co1771 O1772 2.160 . S
Co1771 O1777 2.058 . S
Co1771 O1787 2.057 . S
Co1771 O1802 2.037 . S
Co1771 N1806 2.145 . S
Co1771 N1827 2.257 . S
O1772 Co1770 2.143 . S
O1772 Co1771 2.160 . S
C1773 O1774 1.278 . S
C1773 O1781 1.224 . S
O1774 C1773 1.278 . S
C1775 O1776 1.245 . S
C1775 O1787 1.232 . S
O1776 C1775 1.245 . S
O1777 Co1771 2.058 . S
O1777 C1803 1.269 . S
O1778 Co1770 2.074 . S
O1778 C1803 1.257 . S
H1779 C1804 0.930 . S
H1780 C1810 0.930 . S
O1781 Co1770 2.093 . S
O1781 C1773 1.224 . S
H1782 C1814 0.929 . S
H1783 C1816 0.930 . S
H1784 C1817 0.930 . S
H1785 C1815 0.929 . S
H1786 C1818 0.928 . S
O1787 Co1771 2.057 . S
O1787 C1775 1.232 . S
H1788 C1807 0.929 . S
H1789 C1808 0.929 . S
H1790 C1820 0.931 . S
H1791 C1812 0.929 . S
H1792 C1821 0.930 . S
H1793 C1813 0.931 . S
O1794 Co1770 2.097 . S
O1794 C1822 1.214 . S
H1795 C1823 0.929 . S
H1796 C1824 0.929 . S
H1797 C1825 0.930 . S
H1798 C1826 0.929 . S
H1799 C1828 0.930 . S
H1800 C1805 0.930 . S
H1801 C1809 0.930 . S
O1802 Co1771 2.037 . S
O1802 C1822 1.234 . S
C1803 O1777 1.269 . S
C1803 O1778 1.257 . S
C1804 H1779 0.930 . S
C1804 C1807 1.388 . S
C1804 C1809 1.418 . S
C1805 H1800 0.930 . S
C1805 C1808 1.404 . S
C1805 C1809 1.353 . S
N1806 Co1771 2.145 . S
N1806 C1807 1.397 . S
N1806 C1808 1.334 . S
C1807 H1788 0.929 . S
C1807 C1804 1.388 . S
C1807 N1806 1.397 . S
C1808 H1789 0.929 . S
C1808 C1805 1.404 . S
C1808 N1806 1.334 . S
C1809 H1801 0.930 . S
C1809 C1804 1.418 . S
C1809 C1805 1.353 . S
C1810 H1780 0.930 . S
C1810 N1811 1.330 . S
C1810 C1812 1.446 . S
N1811 Co1770 2.151 . S
N1811 C1810 1.330 . S
N1811 C1815 1.418 . S
C1812 H1791 0.929 . S
C1812 C1810 1.446 . S
C1812 C1813 1.332 . S
C1813 H1793 0.931 . S
C1813 C1812 1.332 . S
C1813 C1814 1.267 . S
C1814 H1782 0.929 . S
C1814 C1813 1.267 . S
C1814 C1815 1.251 . S
C1815 H1785 0.929 . S
C1815 N1811 1.418 . S
C1815 C1814 1.251 . S
C1816 H1783 0.930 . S
C1816 C1818 1.406 . S
C1816 C1821 1.261 . S
C1817 H1784 0.930 . S
C1817 N1819 1.325 . S
C1817 C1820 1.357 . S
C1818 H1786 0.928 . S
C1818 C1816 1.406 . S
C1818 N1819 1.261 . S
N1819 Co1770 2.214 . S
N1819 C1817 1.325 . S
N1819 C1818 1.261 . S
C1820 H1790 0.931 . S
C1820 C1817 1.357 . S
C1820 C1821 1.312 . S
C1821 H1792 0.930 . S
C1821 C1816 1.261 . S
C1821 C1820 1.312 . S
C1822 O1794 1.214 . S
C1822 O1802 1.234 . S
C1823 H1795 0.929 . S
C1823 C1826 1.391 . S
C1823 C1828 1.391 . S
C1824 H1796 0.929 . S
C1824 C1825 1.390 . S
C1824 N1827 1.391 . S
C1825 H1797 0.930 . S
C1825 C1824 1.390 . S
C1825 C1826 1.392 . S
C1826 H1798 0.929 . S
C1826 C1823 1.391 . S
C1826 C1825 1.392 . S
N1827 Co1771 2.257 . S
N1827 C1824 1.391 . S
N1827 C1828 1.388 . S
C1828 H1799 0.930 . S
C1828 C1823 1.391 . S
C1828 N1827 1.388 . S
Co1829 O1831 2.143 . S
Co1829 O1837 2.074 . S
Co1829 O1840 2.093 . S
Co1829 O1853 2.097 . S
Co1829 N1870 2.151 . S
Co1829 N1878 2.214 . S
Co1830 O1831 2.160 . S
Co1830 O1836 2.058 . S
Co1830 O1846 2.057 . S
Co1830 O1861 2.037 . S
Co1830 N1865 2.145 . S
Co1830 N1886 2.257 . S
O1831 Co1829 2.143 . S
O1831 Co1830 2.160 . S
C1832 O1833 1.278 . S
C1832 O1840 1.224 . S
O1833 C1832 1.278 . S
C1834 O1835 1.245 . S
C1834 O1846 1.232 . S
O1835 C1834 1.245 . S
O1836 Co1830 2.058 . S
O1836 C1862 1.269 . S
O1837 Co1829 2.074 . S
O1837 C1862 1.257 . S
H1838 C1863 0.930 . S
H1839 C1869 0.930 . S
O1840 Co1829 2.093 . S
O1840 C1832 1.224 . S
H1841 C1873 0.929 . S
H1842 C1875 0.930 . S
H1843 C1876 0.930 . S
H1844 C1874 0.929 . S
H1845 C1877 0.928 . S
O1846 Co1830 2.057 . S
O1846 C1834 1.232 . S
H1847 C1866 0.929 . S
H1848 C1867 0.929 . S
H1849 C1879 0.931 . S
H1850 C1871 0.929 . S
H1851 C1880 0.930 . S
H1852 C1872 0.931 . S
O1853 Co1829 2.097 . S
O1853 C1881 1.214 . S
H1854 C1882 0.929 . S
H1855 C1883 0.929 . S
H1856 C1884 0.930 . S
H1857 C1885 0.929 . S
H1858 C1887 0.930 . S
H1859 C1864 0.930 . S
H1860 C1868 0.930 . S
O1861 Co1830 2.037 . S
O1861 C1881 1.234 . S
C1862 O1836 1.269 . S
C1862 O1837 1.257 . S
C1863 H1838 0.930 . S
C1863 C1866 1.388 . S
C1863 C1868 1.418 . S
C1864 H1859 0.930 . S
C1864 C1867 1.404 . S
C1864 C1868 1.353 . S
N1865 Co1830 2.145 . S
N1865 C1866 1.397 . S
N1865 C1867 1.334 . S
C1866 H1847 0.929 . S
C1866 C1863 1.388 . S
C1866 N1865 1.397 . S
C1867 H1848 0.929 . S
C1867 C1864 1.404 . S
C1867 N1865 1.334 . S
C1868 H1860 0.930 . S
C1868 C1863 1.418 . S
C1868 C1864 1.353 . S
C1869 H1839 0.930 . S
C1869 N1870 1.330 . S
C1869 C1871 1.446 . S
N1870 Co1829 2.151 . S
N1870 C1869 1.330 . S
N1870 C1874 1.418 . S
C1871 H1850 0.929 . S
C1871 C1869 1.446 . S
C1871 C1872 1.332 . S
C1872 H1852 0.931 . S
C1872 C1871 1.332 . S
C1872 C1873 1.267 . S
C1873 H1841 0.929 . S
C1873 C1872 1.267 . S
C1873 C1874 1.251 . S
C1874 H1844 0.929 . S
C1874 N1870 1.418 . S
C1874 C1873 1.251 . S
C1875 H1842 0.930 . S
C1875 C1877 1.406 . S
C1875 C1880 1.261 . S
C1876 H1843 0.930 . S
C1876 N1878 1.325 . S
C1876 C1879 1.357 . S
C1877 H1845 0.928 . S
C1877 C1875 1.406 . S
C1877 N1878 1.261 . S
N1878 Co1829 2.214 . S
N1878 C1876 1.325 . S
N1878 C1877 1.261 . S
C1879 H1849 0.931 . S
C1879 C1876 1.357 . S
C1879 C1880 1.312 . S
C1880 H1851 0.930 . S
C1880 C1875 1.261 . S
C1880 C1879 1.312 . S
C1881 O1853 1.214 . S
C1881 O1861 1.234 . S
C1882 H1854 0.929 . S
C1882 C1885 1.391 . S
C1882 C1887 1.391 . S
C1883 H1855 0.929 . S
C1883 C1884 1.390 . S
C1883 N1886 1.391 . S
C1884 H1856 0.930 . S
C1884 C1883 1.390 . S
C1884 C1885 1.392 . S
C1885 H1857 0.929 . S
C1885 C1882 1.391 . S
C1885 C1884 1.392 . S
N1886 Co1830 2.257 . S
N1886 C1883 1.391 . S
N1886 C1887 1.388 . S
C1887 H1858 0.930 . S
C1887 C1882 1.391 . S
C1887 N1886 1.388 . S
Co1888 O1890 2.143 . S
Co1888 O1896 2.074 . S
Co1888 O1899 2.093 . S
Co1888 O1912 2.097 . S
Co1888 N1929 2.151 . S
Co1888 N1937 2.214 . S
Co1889 O1890 2.160 . S
Co1889 O1895 2.058 . S
Co1889 O1905 2.057 . S
Co1889 O1920 2.037 . S
Co1889 N1924 2.145 . S
Co1889 N1945 2.257 . S
O1890 Co1888 2.143 . S
O1890 Co1889 2.160 . S
C1891 O1892 1.278 . S
C1891 O1899 1.224 . S
O1892 C1891 1.278 . S
C1893 O1894 1.245 . S
C1893 O1905 1.232 . S
O1894 C1893 1.245 . S
O1895 Co1889 2.058 . S
O1895 C1921 1.269 . S
O1896 Co1888 2.074 . S
O1896 C1921 1.257 . S
H1897 C1922 0.930 . S
H1898 C1928 0.930 . S
O1899 Co1888 2.093 . S
O1899 C1891 1.224 . S
H1900 C1932 0.929 . S
H1901 C1934 0.930 . S
H1902 C1935 0.930 . S
H1903 C1933 0.929 . S
H1904 C1936 0.928 . S
O1905 Co1889 2.057 . S
O1905 C1893 1.232 . S
H1906 C1925 0.929 . S
H1907 C1926 0.929 . S
H1908 C1938 0.931 . S
H1909 C1930 0.929 . S
H1910 C1939 0.930 . S
H1911 C1931 0.931 . S
O1912 Co1888 2.097 . S
O1912 C1940 1.214 . S
H1913 C1941 0.929 . S
H1914 C1942 0.929 . S
H1915 C1943 0.930 . S
H1916 C1944 0.929 . S
H1917 C1946 0.930 . S
H1918 C1923 0.930 . S
H1919 C1927 0.930 . S
O1920 Co1889 2.037 . S
O1920 C1940 1.234 . S
C1921 O1895 1.269 . S
C1921 O1896 1.257 . S
C1922 H1897 0.930 . S
C1922 C1925 1.388 . S
C1922 C1927 1.418 . S
C1923 H1918 0.930 . S
C1923 C1926 1.404 . S
C1923 C1927 1.353 . S
N1924 Co1889 2.145 . S
N1924 C1925 1.397 . S
N1924 C1926 1.334 . S
C1925 H1906 0.929 . S
C1925 C1922 1.388 . S
C1925 N1924 1.397 . S
C1926 H1907 0.929 . S
C1926 C1923 1.404 . S
C1926 N1924 1.334 . S
C1927 H1919 0.930 . S
C1927 C1922 1.418 . S
C1927 C1923 1.353 . S
C1928 H1898 0.930 . S
C1928 N1929 1.330 . S
C1928 C1930 1.446 . S
N1929 Co1888 2.151 . S
N1929 C1928 1.330 . S
N1929 C1933 1.418 . S
C1930 H1909 0.929 . S
C1930 C1928 1.446 . S
C1930 C1931 1.332 . S
C1931 H1911 0.931 . S
C1931 C1930 1.332 . S
C1931 C1932 1.267 . S
C1932 H1900 0.929 . S
C1932 C1931 1.267 . S
C1932 C1933 1.251 . S
C1933 H1903 0.929 . S
C1933 N1929 1.418 . S
C1933 C1932 1.251 . S
C1934 H1901 0.930 . S
C1934 C1936 1.406 . S
C1934 C1939 1.261 . S
C1935 H1902 0.930 . S
C1935 N1937 1.325 . S
C1935 C1938 1.357 . S
C1936 H1904 0.928 . S
C1936 C1934 1.406 . S
C1936 N1937 1.261 . S
N1937 Co1888 2.214 . S
N1937 C1935 1.325 . S
N1937 C1936 1.261 . S
C1938 H1908 0.931 . S
C1938 C1935 1.357 . S
C1938 C1939 1.312 . S
C1939 H1910 0.930 . S
C1939 C1934 1.261 . S
C1939 C1938 1.312 . S
C1940 O1912 1.214 . S
C1940 O1920 1.234 . S
C1941 H1913 0.929 . S
C1941 C1944 1.391 . S
C1941 C1946 1.391 . S
C1942 H1914 0.929 . S
C1942 C1943 1.390 . S
C1942 N1945 1.391 . S
C1943 H1915 0.930 . S
C1943 C1942 1.390 . S
C1943 C1944 1.392 . S
C1944 H1916 0.929 . S
C1944 C1941 1.391 . S
C1944 C1943 1.392 . S
N1945 Co1889 2.257 . S
N1945 C1942 1.391 . S
N1945 C1946 1.388 . S
C1946 H1917 0.930 . S
C1946 C1941 1.391 . S
C1946 N1945 1.388 . S
Co1947 O1949 2.143 . S
Co1947 O1955 2.074 . S
Co1947 O1958 2.093 . S
Co1947 O1971 2.097 . S
Co1947 N1988 2.151 . S
Co1947 N1996 2.214 . S
Co1948 O1949 2.160 . S
Co1948 O1954 2.058 . S
Co1948 O1964 2.057 . S
Co1948 O1979 2.037 . S
Co1948 N1983 2.145 . S
Co1948 N2004 2.257 . S
O1949 Co1947 2.143 . S
O1949 Co1948 2.160 . S
C1950 O1951 1.278 . S
C1950 O1958 1.224 . S
O1951 C1950 1.278 . S
C1952 O1953 1.245 . S
C1952 O1964 1.232 . S
O1953 C1952 1.245 . S
O1954 Co1948 2.058 . S
O1954 C1980 1.269 . S
O1955 Co1947 2.074 . S
O1955 C1980 1.257 . S
H1956 C1981 0.930 . S
H1957 C1987 0.930 . S
O1958 Co1947 2.093 . S
O1958 C1950 1.224 . S
H1959 C1991 0.929 . S
H1960 C1993 0.930 . S
H1961 C1994 0.930 . S
H1962 C1992 0.929 . S
H1963 C1995 0.928 . S
O1964 Co1948 2.057 . S
O1964 C1952 1.232 . S
H1965 C1984 0.929 . S
H1966 C1985 0.929 . S
H1967 C1997 0.931 . S
H1968 C1989 0.929 . S
H1969 C1998 0.930 . S
H1970 C1990 0.931 . S
O1971 Co1947 2.097 . S
O1971 C1999 1.214 . S
H1972 C2000 0.929 . S
H1973 C2001 0.929 . S
H1974 C2002 0.930 . S
H1975 C2003 0.929 . S
H1976 C2005 0.930 . S
H1977 C1982 0.930 . S
H1978 C1986 0.930 . S
O1979 Co1948 2.037 . S
O1979 C1999 1.234 . S
C1980 O1954 1.269 . S
C1980 O1955 1.257 . S
C1981 H1956 0.930 . S
C1981 C1984 1.388 . S
C1981 C1986 1.418 . S
C1982 H1977 0.930 . S
C1982 C1985 1.404 . S
C1982 C1986 1.353 . S
N1983 Co1948 2.145 . S
N1983 C1984 1.397 . S
N1983 C1985 1.334 . S
C1984 H1965 0.929 . S
C1984 C1981 1.388 . S
C1984 N1983 1.397 . S
C1985 H1966 0.929 . S
C1985 C1982 1.404 . S
C1985 N1983 1.334 . S
C1986 H1978 0.930 . S
C1986 C1981 1.418 . S
C1986 C1982 1.353 . S
C1987 H1957 0.930 . S
C1987 N1988 1.330 . S
C1987 C1989 1.446 . S
N1988 Co1947 2.151 . S
N1988 C1987 1.330 . S
N1988 C1992 1.418 . S
C1989 H1968 0.929 . S
C1989 C1987 1.446 . S
C1989 C1990 1.332 . S
C1990 H1970 0.931 . S
C1990 C1989 1.332 . S
C1990 C1991 1.267 . S
C1991 H1959 0.929 . S
C1991 C1990 1.267 . S
C1991 C1992 1.251 . S
C1992 H1962 0.929 . S
C1992 N1988 1.418 . S
C1992 C1991 1.251 . S
C1993 H1960 0.930 . S
C1993 C1995 1.406 . S
C1993 C1998 1.261 . S
C1994 H1961 0.930 . S
C1994 N1996 1.325 . S
C1994 C1997 1.357 . S
C1995 H1963 0.928 . S
C1995 C1993 1.406 . S
C1995 N1996 1.261 . S
N1996 Co1947 2.214 . S
N1996 C1994 1.325 . S
N1996 C1995 1.261 . S
C1997 H1967 0.931 . S
C1997 C1994 1.357 . S
C1997 C1998 1.312 . S
C1998 H1969 0.930 . S
C1998 C1993 1.261 . S
C1998 C1997 1.312 . S
C1999 O1971 1.214 . S
C1999 O1979 1.234 . S
C2000 H1972 0.929 . S
C2000 C2003 1.391 . S
C2000 C2005 1.391 . S
C2001 H1973 0.929 . S
C2001 C2002 1.390 . S
C2001 N2004 1.391 . S
C2002 H1974 0.930 . S
C2002 C2001 1.390 . S
C2002 C2003 1.392 . S
C2003 H1975 0.929 . S
C2003 C2000 1.391 . S
C2003 C2002 1.392 . S
N2004 Co1948 2.257 . S
N2004 C2001 1.391 . S
N2004 C2005 1.388 . S
C2005 H1976 0.930 . S
C2005 C2000 1.391 . S
C2005 N2004 1.388 . S
Co2006 O2008 2.143 . S
Co2006 O2014 2.074 . S
Co2006 O2017 2.093 . S
Co2006 O2030 2.097 . S
Co2006 N2047 2.151 . S
Co2006 N2055 2.214 . S
Co2007 O2008 2.160 . S
Co2007 O2013 2.058 . S
Co2007 O2023 2.057 . S
Co2007 O2038 2.037 . S
Co2007 N2042 2.145 . S
Co2007 N2063 2.257 . S
O2008 Co2006 2.143 . S
O2008 Co2007 2.160 . S
C2009 O2010 1.278 . S
C2009 O2017 1.224 . S
O2010 C2009 1.278 . S
C2011 O2012 1.245 . S
C2011 O2023 1.232 . S
O2012 C2011 1.245 . S
O2013 Co2007 2.058 . S
O2013 C2039 1.269 . S
O2014 Co2006 2.074 . S
O2014 C2039 1.257 . S
H2015 C2040 0.930 . S
H2016 C2046 0.930 . S
O2017 Co2006 2.093 . S
O2017 C2009 1.224 . S
H2018 C2050 0.929 . S
H2019 C2052 0.930 . S
H2020 C2053 0.930 . S
H2021 C2051 0.929 . S
H2022 C2054 0.928 . S
O2023 Co2007 2.057 . S
O2023 C2011 1.232 . S
H2024 C2043 0.929 . S
H2025 C2044 0.929 . S
H2026 C2056 0.931 . S
H2027 C2048 0.929 . S
H2028 C2057 0.930 . S
H2029 C2049 0.931 . S
O2030 Co2006 2.097 . S
O2030 C2058 1.214 . S
H2031 C2059 0.929 . S
H2032 C2060 0.929 . S
H2033 C2061 0.930 . S
H2034 C2062 0.929 . S
H2035 C2064 0.930 . S
H2036 C2041 0.930 . S
H2037 C2045 0.930 . S
O2038 Co2007 2.037 . S
O2038 C2058 1.234 . S
C2039 O2013 1.269 . S
C2039 O2014 1.257 . S
C2040 H2015 0.930 . S
C2040 C2043 1.388 . S
C2040 C2045 1.418 . S
C2041 H2036 0.930 . S
C2041 C2044 1.404 . S
C2041 C2045 1.353 . S
N2042 Co2007 2.145 . S
N2042 C2043 1.397 . S
N2042 C2044 1.334 . S
C2043 H2024 0.929 . S
C2043 C2040 1.388 . S
C2043 N2042 1.397 . S
C2044 H2025 0.929 . S
C2044 C2041 1.404 . S
C2044 N2042 1.334 . S
C2045 H2037 0.930 . S
C2045 C2040 1.418 . S
C2045 C2041 1.353 . S
C2046 H2016 0.930 . S
C2046 N2047 1.330 . S
C2046 C2048 1.446 . S
N2047 Co2006 2.151 . S
N2047 C2046 1.330 . S
N2047 C2051 1.418 . S
C2048 H2027 0.929 . S
C2048 C2046 1.446 . S
C2048 C2049 1.332 . S
C2049 H2029 0.931 . S
C2049 C2048 1.332 . S
C2049 C2050 1.267 . S
C2050 H2018 0.929 . S
C2050 C2049 1.267 . S
C2050 C2051 1.251 . S
C2051 H2021 0.929 . S
C2051 N2047 1.418 . S
C2051 C2050 1.251 . S
C2052 H2019 0.930 . S
C2052 C2054 1.406 . S
C2052 C2057 1.261 . S
C2053 H2020 0.930 . S
C2053 N2055 1.325 . S
C2053 C2056 1.357 . S
C2054 H2022 0.928 . S
C2054 C2052 1.406 . S
C2054 N2055 1.261 . S
N2055 Co2006 2.214 . S
N2055 C2053 1.325 . S
N2055 C2054 1.261 . S
C2056 H2026 0.931 . S
C2056 C2053 1.357 . S
C2056 C2057 1.312 . S
C2057 H2028 0.930 . S
C2057 C2052 1.261 . S
C2057 C2056 1.312 . S
C2058 O2030 1.214 . S
C2058 O2038 1.234 . S
C2059 H2031 0.929 . S
C2059 C2062 1.391 . S
C2059 C2064 1.391 . S
C2060 H2032 0.929 . S
C2060 C2061 1.390 . S
C2060 N2063 1.391 . S
C2061 H2033 0.930 . S
C2061 C2060 1.390 . S
C2061 C2062 1.392 . S
C2062 H2034 0.929 . S
C2062 C2059 1.391 . S
C2062 C2061 1.392 . S
N2063 Co2007 2.257 . S
N2063 C2060 1.391 . S
N2063 C2064 1.388 . S
C2064 H2035 0.930 . S
C2064 C2059 1.391 . S
C2064 N2063 1.388 . S
Co2065 O2067 2.143 . S
Co2065 O2073 2.074 . S
Co2065 O2076 2.093 . S
Co2065 O2089 2.097 . S
Co2065 N2106 2.151 . S
Co2065 N2114 2.214 . S
Co2066 O2067 2.160 . S
Co2066 O2072 2.058 . S
Co2066 O2082 2.057 . S
Co2066 O2097 2.037 . S
Co2066 N2101 2.145 . S
Co2066 N2122 2.257 . S
O2067 Co2065 2.143 . S
O2067 Co2066 2.160 . S
C2068 O2069 1.278 . S
C2068 O2076 1.224 . S
O2069 C2068 1.278 . S
C2070 O2071 1.245 . S
C2070 O2082 1.232 . S
O2071 C2070 1.245 . S
O2072 Co2066 2.058 . S
O2072 C2098 1.269 . S
O2073 Co2065 2.074 . S
O2073 C2098 1.257 . S
H2074 C2099 0.930 . S
H2075 C2105 0.930 . S
O2076 Co2065 2.093 . S
O2076 C2068 1.224 . S
H2077 C2109 0.929 . S
H2078 C2111 0.930 . S
H2079 C2112 0.930 . S
H2080 C2110 0.929 . S
H2081 C2113 0.928 . S
O2082 Co2066 2.057 . S
O2082 C2070 1.232 . S
H2083 C2102 0.929 . S
H2084 C2103 0.929 . S
H2085 C2115 0.931 . S
H2086 C2107 0.929 . S
H2087 C2116 0.930 . S
H2088 C2108 0.931 . S
O2089 Co2065 2.097 . S
O2089 C2117 1.214 . S
H2090 C2118 0.929 . S
H2091 C2119 0.929 . S
H2092 C2120 0.930 . S
H2093 C2121 0.929 . S
H2094 C2123 0.930 . S
H2095 C2100 0.930 . S
H2096 C2104 0.930 . S
O2097 Co2066 2.037 . S
O2097 C2117 1.234 . S
C2098 O2072 1.269 . S
C2098 O2073 1.257 . S
C2099 H2074 0.930 . S
C2099 C2102 1.388 . S
C2099 C2104 1.418 . S
C2100 H2095 0.930 . S
C2100 C2103 1.404 . S
C2100 C2104 1.353 . S
N2101 Co2066 2.145 . S
N2101 C2102 1.397 . S
N2101 C2103 1.334 . S
C2102 H2083 0.929 . S
C2102 C2099 1.388 . S
C2102 N2101 1.397 . S
C2103 H2084 0.929 . S
C2103 C2100 1.404 . S
C2103 N2101 1.334 . S
C2104 H2096 0.930 . S
C2104 C2099 1.418 . S
C2104 C2100 1.353 . S
C2105 H2075 0.930 . S
C2105 N2106 1.330 . S
C2105 C2107 1.446 . S
N2106 Co2065 2.151 . S
N2106 C2105 1.330 . S
N2106 C2110 1.418 . S
C2107 H2086 0.929 . S
C2107 C2105 1.446 . S
C2107 C2108 1.332 . S
C2108 H2088 0.931 . S
C2108 C2107 1.332 . S
C2108 C2109 1.267 . S
C2109 H2077 0.929 . S
C2109 C2108 1.267 . S
C2109 C2110 1.251 . S
C2110 H2080 0.929 . S
C2110 N2106 1.418 . S
C2110 C2109 1.251 . S
C2111 H2078 0.930 . S
C2111 C2113 1.406 . S
C2111 C2116 1.261 . S
C2112 H2079 0.930 . S
C2112 N2114 1.325 . S
C2112 C2115 1.357 . S
C2113 H2081 0.928 . S
C2113 C2111 1.406 . S
C2113 N2114 1.261 . S
N2114 Co2065 2.214 . S
N2114 C2112 1.325 . S
N2114 C2113 1.261 . S
C2115 H2085 0.931 . S
C2115 C2112 1.357 . S
C2115 C2116 1.312 . S
C2116 H2087 0.930 . S
C2116 C2111 1.261 . S
C2116 C2115 1.312 . S
C2117 O2089 1.214 . S
C2117 O2097 1.234 . S
C2118 H2090 0.929 . S
C2118 C2121 1.391 . S
C2118 C2123 1.391 . S
C2119 H2091 0.929 . S
C2119 C2120 1.390 . S
C2119 N2122 1.391 . S
C2120 H2092 0.930 . S
C2120 C2119 1.390 . S
C2120 C2121 1.392 . S
C2121 H2093 0.929 . S
C2121 C2118 1.391 . S
C2121 C2120 1.392 . S
N2122 Co2066 2.257 . S
N2122 C2119 1.391 . S
N2122 C2123 1.388 . S
C2123 H2094 0.930 . S
C2123 C2118 1.391 . S
C2123 N2122 1.388 . S
C2124 C2125 1.349 . S
C2124 C2126 1.327 . S
C2124 H2149 0.950 . S
C2125 C2124 1.349 . S
C2125 C2141 1.349 . S
C2126 C2124 1.327 . S
C2126 C2145 1.429 . S
C2126 H2150 0.950 . S
C2127 C2144 1.574 . S
C2127 C2146 1.368 1_556 S
C2127 H2151 0.949 . S
H2128 C2132 0.950 1_565 S
C2129 C2130 1.349 . S
C2129 C2131 1.327 . S
C2129 H2152 0.950 . S
C2130 C2129 1.349 . S
C2130 C2142 1.349 . S
C2131 C2129 1.327 . S
C2131 C2147 1.429 . S
C2131 H2153 0.950 1_565 S
C2132 H2128 0.950 1_545 S
C2132 C2140 1.574 . S
C2132 C2148 1.368 1_554 S
H2133 C2141 0.950 . S
H2134 C2139 0.950 . S
H2135 C2140 0.949 . S
H2136 C2142 0.950 . S
H2137 C2143 0.950 . S
H2138 C2144 0.949 . S
C2139 H2134 0.950 . S
C2139 C2141 1.327 . S
C2139 C2145 1.429 . S
C2140 C2132 1.574 . S
C2140 H2135 0.949 . S
C2140 C2146 1.368 . S
C2141 C2125 1.349 . S
C2141 H2133 0.950 . S
C2141 C2139 1.327 . S
C2142 C2130 1.349 . S
C2142 H2136 0.950 . S
C2142 C2143 1.327 . S
C2143 H2137 0.950 . S
C2143 C2142 1.327 . S
C2143 C2147 1.429 . S
C2144 C2127 1.574 . S
C2144 H2138 0.949 . S
C2144 C2148 1.368 . S
C2145 C2126 1.429 . S
C2145 C2139 1.429 . S
C2145 C2146 1.523 . S
C2146 C2127 1.368 1_554 S
C2146 C2140 1.368 . S
C2146 C2145 1.523 . S
C2147 C2131 1.429 . S
C2147 C2143 1.429 . S
C2147 C2148 1.523 1_565 S
C2148 C2132 1.368 1_556 S
C2148 C2144 1.368 . S
C2148 C2147 1.523 1_545 S
H2149 C2124 0.950 . S
H2150 C2126 0.950 . S
H2151 C2127 0.949 . S
H2152 C2129 0.950 . S
H2153 C2131 0.950 1_545 S
C2154 C2155 1.349 . S
C2154 C2156 1.327 . S
C2154 H2179 0.950 . S
C2155 C2154 1.349 . S
C2155 C2171 1.349 . S
C2156 C2154 1.327 . S
C2156 C2175 1.429 . S
C2156 H2180 0.950 . S
C2157 C2174 1.574 . S
C2157 C2176 1.368 1_556 S
C2157 H2181 0.949 . S
H2158 C2162 0.949 1_455 S
C2159 C2160 1.349 . S
C2159 C2161 1.327 . S
C2159 H2182 0.950 . S
C2160 C2159 1.349 . S
C2160 C2172 1.349 . S
C2161 C2159 1.327 . S
C2161 C2177 1.429 . S
C2161 H2183 0.950 1_455 S
C2162 H2158 0.949 1_655 S
C2162 C2170 1.574 . S
C2162 C2178 1.368 1_554 S
H2163 C2171 0.950 . S
H2164 C2169 0.950 1_556 S
H2165 C2170 0.949 . S
H2166 C2172 0.950 . S
H2167 C2173 0.950 . S
H2168 C2174 0.949 . S
C2169 H2164 0.950 1_554 S
C2169 C2171 1.327 . S
C2169 C2175 1.429 . S
C2170 C2162 1.574 . S
C2170 H2165 0.949 . S
C2170 C2176 1.368 . S
C2171 C2155 1.349 . S
C2171 H2163 0.950 . S
C2171 C2169 1.327 . S
C2172 C2160 1.349 . S
C2172 H2166 0.950 . S
C2172 C2173 1.327 . S
C2173 H2167 0.950 . S
C2173 C2172 1.327 . S
C2173 C2177 1.429 . S
C2174 C2157 1.574 . S
C2174 H2168 0.949 . S
C2174 C2178 1.368 . S
C2175 C2156 1.429 . S
C2175 C2169 1.429 . S
C2175 C2176 1.523 . S
C2176 C2157 1.368 1_554 S
C2176 C2170 1.368 . S
C2176 C2175 1.523 . S
C2177 C2161 1.429 . S
C2177 C2173 1.429 . S
C2177 C2178 1.523 1_455 S
C2178 C2162 1.368 1_556 S
C2178 C2174 1.368 . S
C2178 C2177 1.523 1_655 S
H2179 C2154 0.950 . S
H2180 C2156 0.950 . S
H2181 C2157 0.949 . S
H2182 C2159 0.950 . S
H2183 C2161 0.950 1_655 S
C2184 C2185 1.349 . S
C2184 C2186 1.327 . S
C2184 H2209 0.950 . S
C2185 C2184 1.349 . S
C2185 C2201 1.349 . S
C2186 C2184 1.327 . S
C2186 C2205 1.429 . S
C2186 H2210 0.950 . S
C2187 C2204 1.574 . S
C2187 C2206 1.368 . S
C2187 H2211 0.949 . S
H2188 C2192 0.949 . S
C2189 C2190 1.349 . S
C2189 C2191 1.327 . S
C2189 H2212 0.950 . S
C2190 C2189 1.349 . S
C2190 C2202 1.349 . S
C2191 C2189 1.327 . S
C2191 C2207 1.429 . S
C2191 H2213 0.950 1_554 S
C2192 H2188 0.949 . S
C2192 C2200 1.574 . S
C2192 C2208 1.368 . S
H2193 C2201 0.950 . S
H2194 C2199 0.950 . S
H2195 C2200 0.949 . S
H2196 C2202 0.950 . S
H2197 C2203 0.950 . S
H2198 C2204 0.949 . S
C2199 H2194 0.950 . S
C2199 C2201 1.327 . S
C2199 C2205 1.429 . S
C2200 C2192 1.574 . S
C2200 H2195 0.949 . S
C2200 C2206 1.368 1_554 S
C2201 C2185 1.349 . S
C2201 H2193 0.950 . S
C2201 C2199 1.327 . S
C2202 C2190 1.349 . S
C2202 H2196 0.950 . S
C2202 C2203 1.327 . S
C2203 H2197 0.950 . S
C2203 C2202 1.327 . S
C2203 C2207 1.429 . S
C2204 C2187 1.574 . S
C2204 H2198 0.949 . S
C2204 C2208 1.368 1_556 S
C2205 C2186 1.429 . S
C2205 C2199 1.429 . S
C2205 C2206 1.523 . S
C2206 C2187 1.368 . S
C2206 C2200 1.368 1_556 S
C2206 C2205 1.523 . S
C2207 C2191 1.429 . S
C2207 C2203 1.429 . S
C2207 C2208 1.523 . S
C2208 C2192 1.368 . S
C2208 C2204 1.368 1_554 S
C2208 C2207 1.523 . S
H2209 C2184 0.950 . S
H2210 C2186 0.950 . S
H2211 C2187 0.949 . S
H2212 C2189 0.950 . S
H2213 C2191 0.950 1_556 S
C2214 C2215 1.349 . S
C2214 C2216 1.327 . S
C2214 H2239 0.950 . S
C2215 C2214 1.349 . S
C2215 C2231 1.349 . S
C2216 C2214 1.327 . S
C2216 C2235 1.429 . S
C2216 H2240 0.950 . S
C2217 C2234 1.574 . S
C2217 C2236 1.368 . S
C2217 H2241 0.949 . S
H2218 C2222 0.949 . S
C2219 C2220 1.349 . S
C2219 C2221 1.327 . S
C2219 H2242 0.950 . S
C2220 C2219 1.349 . S
C2220 C2232 1.349 . S
C2221 C2219 1.327 . S
C2221 C2237 1.429 . S
C2221 H2243 0.950 . S
C2222 H2218 0.949 . S
C2222 C2230 1.574 . S
C2222 C2238 1.368 . S
H2223 C2231 0.950 . S
H2224 C2229 0.950 1_455 S
H2225 C2230 0.949 1_655 S
H2226 C2232 0.950 . S
H2227 C2233 0.950 . S
H2228 C2234 0.949 . S
C2229 H2224 0.950 1_655 S
C2229 C2231 1.327 . S
C2229 C2235 1.429 . S
C2230 C2222 1.574 . S
C2230 H2225 0.949 1_455 S
C2230 C2236 1.368 . S
C2231 C2215 1.349 . S
C2231 H2223 0.950 . S
C2231 C2229 1.327 . S
C2232 C2220 1.349 . S
C2232 H2226 0.950 . S
C2232 C2233 1.327 . S
C2233 H2227 0.950 . S
C2233 C2232 1.327 . S
C2233 C2237 1.429 . S
C2234 C2217 1.574 . S
C2234 H2228 0.949 . S
C2234 C2238 1.368 . S
C2235 C2216 1.429 . S
C2235 C2229 1.429 . S
C2235 C2236 1.523 1_655 S
C2236 C2217 1.368 . S
C2236 C2230 1.368 . S
C2236 C2235 1.523 1_455 S
C2237 C2221 1.429 . S
C2237 C2233 1.429 . S
C2237 C2238 1.523 . S
C2238 C2222 1.368 . S
C2238 C2234 1.368 . S
C2238 C2237 1.523 . S
H2239 C2214 0.950 . S
H2240 C2216 0.950 . S
H2241 C2217 0.949 . S
H2242 C2219 0.950 . S
H2243 C2221 0.950 . S
C2244 C2245 1.349 . S
C2244 C2246 1.327 . S
C2244 H2269 0.950 . S
C2245 C2244 1.349 . S
C2245 C2261 1.349 . S
C2246 C2244 1.327 . S
C2246 C2265 1.429 . S
C2246 H2270 0.950 . S
C2247 C2264 1.574 . S
C2247 C2266 1.368 . S
C2247 H2271 0.949 . S
H2248 C2252 0.949 . S
C2249 C2250 1.349 . S
C2249 C2251 1.327 . S
C2249 H2272 0.950 . S
C2250 C2249 1.349 . S
C2250 C2262 1.349 . S
C2251 C2249 1.327 . S
C2251 C2267 1.429 . S
C2251 H2273 0.950 . S
C2252 H2248 0.949 . S
C2252 C2260 1.574 . S
C2252 C2268 1.368 . S
H2253 C2261 0.950 . S
H2254 C2259 0.950 . S
H2255 C2260 0.949 . S
H2256 C2262 0.950 . S
H2257 C2263 0.950 . S
H2258 C2264 0.949 . S
C2259 H2254 0.950 . S
C2259 C2261 1.327 . S
C2259 C2265 1.429 . S
C2260 C2252 1.574 . S
C2260 H2255 0.949 . S
C2260 C2266 1.368 . S
C2261 C2245 1.349 . S
C2261 H2253 0.950 . S
C2261 C2259 1.327 . S
C2262 C2250 1.349 . S
C2262 H2256 0.950 . S
C2262 C2263 1.327 . S
C2263 H2257 0.950 . S
C2263 C2262 1.327 . S
C2263 C2267 1.429 . S
C2264 C2247 1.574 . S
C2264 H2258 0.949 . S
C2264 C2268 1.368 . S
C2265 C2246 1.429 . S
C2265 C2259 1.429 . S
C2265 C2266 1.523 . S
C2266 C2247 1.368 . S
C2266 C2260 1.368 . S
C2266 C2265 1.523 . S
C2267 C2251 1.429 . S
C2267 C2263 1.429 . S
C2267 C2268 1.523 . S
C2268 C2252 1.368 . S
C2268 C2264 1.368 . S
C2268 C2267 1.523 . S
H2269 C2244 0.950 . S
H2270 C2246 0.950 . S
H2271 C2247 0.949 . S
H2272 C2249 0.950 . S
H2273 C2251 0.950 . S
C2274 C2275 1.349 . S
C2274 C2276 1.327 . S
C2274 H2299 0.950 . S
C2275 C2274 1.349 . S
C2275 C2291 1.349 . S
C2276 C2274 1.327 . S
C2276 C2295 1.429 . S
C2276 H2300 0.950 . S
C2277 C2294 1.574 . S
C2277 C2296 1.368 . S
C2277 H2301 0.949 . S
H2278 C2282 1.019 . S
C2279 C2280 1.349 . S
C2279 C2281 1.327 . S
C2279 H2302 0.950 . S
C2280 C2279 1.349 . S
C2280 C2292 1.349 . S
C2281 C2279 1.327 . S
C2281 C2297 1.429 . S
C2281 H2303 0.950 1_545 S
C2282 H2278 1.019 . S
C2282 C2290 1.574 . S
C2282 C2298 1.368 . S
H2283 C2291 0.950 . S
H2284 C2289 0.950 . S
H2285 C2290 0.949 . S
H2286 C2292 0.950 . S
H2287 C2293 0.950 . S
H2288 C2294 0.949 . S
C2289 H2284 0.950 . S
C2289 C2291 1.327 . S
C2289 C2295 1.429 . S
C2290 C2282 1.574 . S
C2290 H2285 0.949 . S
C2290 C2296 1.368 . S
C2291 C2275 1.349 . S
C2291 H2283 0.950 . S
C2291 C2289 1.327 . S
C2292 C2280 1.349 . S
C2292 H2286 0.950 . S
C2292 C2293 1.327 . S
C2293 H2287 0.950 . S
C2293 C2292 1.327 . S
C2293 C2297 1.429 . S
C2294 C2277 1.574 . S
C2294 H2288 0.949 . S
C2294 C2298 1.368 . S
C2295 C2276 1.429 . S
C2295 C2289 1.429 . S
C2295 C2296 1.523 . S
C2296 C2277 1.368 . S
C2296 C2290 1.368 . S
C2296 C2295 1.523 . S
C2297 C2281 1.429 . S
C2297 C2293 1.429 . S
C2297 C2298 1.523 1_545 S
C2298 C2282 1.368 . S
C2298 C2294 1.368 . S
C2298 C2297 1.523 1_565 S
H2299 C2274 0.950 . S
H2300 C2276 0.950 . S
H2301 C2277 0.949 . S
H2302 C2279 0.950 . S
H2303 C2281 0.950 1_565 S
C2304 C2305 1.349 . S
C2304 C2306 1.327 . S
C2304 H2329 0.950 . S
C2305 C2304 1.349 . S
C2305 C2321 1.349 . S
C2306 C2304 1.327 . S
C2306 C2325 1.429 . S
C2306 H2330 0.950 1_545 S
C2307 C2324 1.574 . S
C2307 C2326 1.368 1_556 S
C2307 H2331 0.949 . S
H2308 C2312 0.949 . S
C2309 C2310 1.349 . S
C2309 C2311 1.327 . S
C2309 H2332 0.950 . S
C2310 C2309 1.349 . S
C2310 C2322 1.349 . S
C2311 C2309 1.327 . S
C2311 C2327 1.429 . S
C2311 H2333 0.950 . S
C2312 H2308 0.949 . S
C2312 C2320 1.574 . S
C2312 C2328 1.368 1_554 S
H2313 C2321 0.950 . S
H2314 C2319 0.950 . S
H2315 C2320 0.949 . S
H2316 C2322 0.950 . S
H2317 C2323 0.950 1_554 S
H2318 C2324 0.949 . S
C2319 H2314 0.950 . S
C2319 C2321 1.327 . S
C2319 C2325 1.429 . S
C2320 C2312 1.574 . S
C2320 H2315 0.949 . S
C2320 C2326 1.368 . S
C2321 C2305 1.349 . S
C2321 H2313 0.950 . S
C2321 C2319 1.327 . S
C2322 C2310 1.349 . S
C2322 H2316 0.950 . S
C2322 C2323 1.327 . S
C2323 H2317 0.950 1_556 S
C2323 C2322 1.327 . S
C2323 C2327 1.429 . S
C2324 C2307 1.574 . S
C2324 H2318 0.949 . S
C2324 C2328 1.368 . S
C2325 C2306 1.429 . S
C2325 C2319 1.429 . S
C2325 C2326 1.523 1_545 S
C2326 C2307 1.368 1_554 S
C2326 C2320 1.368 . S
C2326 C2325 1.523 1_565 S
C2327 C2311 1.429 . S
C2327 C2323 1.429 . S
C2327 C2328 1.523 . S
C2328 C2312 1.368 1_556 S
C2328 C2324 1.368 . S
C2328 C2327 1.523 . S
H2329 C2304 0.950 . S
H2330 C2306 0.950 1_565 S
H2331 C2307 0.949 . S
H2332 C2309 0.950 . S
H2333 C2311 0.950 . S
C2334 C2335 1.349 . S
C2334 C2336 1.327 . S
C2334 H2359 0.950 . S
C2335 C2334 1.349 . S
C2335 C2351 1.349 . S
C2336 C2334 1.327 . S
C2336 C2355 1.429 . S
C2336 H2360 0.950 1_655 S
C2337 C2354 1.574 . S
C2337 C2356 1.368 1_556 S
C2337 H2361 0.994 . S
H2338 C2342 0.949 . S
C2339 C2340 1.349 . S
C2339 C2341 1.327 . S
C2339 H2362 0.950 . S
C2340 C2339 1.349 . S
C2340 C2352 1.349 . S
C2341 C2339 1.327 . S
C2341 C2357 1.429 . S
C2341 H2363 0.950 . S
C2342 H2338 0.949 . S
C2342 C2350 1.574 . S
C2342 C2358 1.368 1_554 S
H2343 C2351 0.950 . S
H2344 C2349 0.950 . S
H2345 C2350 0.949 . S
H2346 C2352 0.950 . S
H2347 C2353 0.950 1_554 S
H2348 C2354 0.949 . S
C2349 H2344 0.950 . S
C2349 C2351 1.327 . S
C2349 C2355 1.429 . S
C2350 C2342 1.574 . S
C2350 H2345 0.949 . S
C2350 C2356 1.368 . S
C2351 C2335 1.349 . S
C2351 H2343 0.950 . S
C2351 C2349 1.327 . S
C2352 C2340 1.349 . S
C2352 H2346 0.950 . S
C2352 C2353 1.327 . S
C2353 H2347 0.950 1_556 S
C2353 C2352 1.327 . S
C2353 C2357 1.429 . S
C2354 C2337 1.574 . S
C2354 H2348 0.949 . S
C2354 C2358 1.368 . S
C2355 C2336 1.429 . S
C2355 C2349 1.429 . S
C2355 C2356 1.523 1_655 S
C2356 C2337 1.368 1_554 S
C2356 C2350 1.368 . S
C2356 C2355 1.523 1_455 S
C2357 C2341 1.429 . S
C2357 C2353 1.429 . S
C2357 C2358 1.523 . S
C2358 C2342 1.368 1_556 S
C2358 C2354 1.368 . S
C2358 C2357 1.523 . S
H2359 C2334 0.950 . S
H2360 C2336 0.950 1_455 S
H2361 C2337 0.994 . S
H2362 C2339 0.950 . S
H2363 C2341 0.950 . S
C2364 C2365 1.349 . S
C2364 C2366 1.327 . S
C2364 H2389 0.950 . S
C2365 C2364 1.349 . S
C2365 C2381 1.349 . S
C2366 C2364 1.327 . S
C2366 C2385 1.429 . S
C2366 H2390 0.950 . S
C2367 C2384 1.574 1_556 S
C2367 C2386 1.368 . S
C2367 H2391 0.949 . S
H2368 C2372 0.949 . S
C2369 C2370 1.349 . S
C2369 C2371 1.327 . S
C2369 H2392 0.950 . S
C2370 C2369 1.349 . S
C2370 C2382 1.349 . S
C2371 C2369 1.327 . S
C2371 C2387 1.429 . S
C2371 H2393 0.950 . S
C2372 H2368 0.949 . S
C2372 C2380 1.574 . S
C2372 C2388 1.368 . S
H2373 C2381 0.950 . S
H2374 C2379 0.950 . S
H2375 C2380 0.949 . S
H2376 C2382 0.950 . S
H2377 C2383 0.950 . S
H2378 C2384 0.949 . S
C2379 H2374 0.950 . S
C2379 C2381 1.327 . S
C2379 C2385 1.429 . S
C2380 C2372 1.574 . S
C2380 H2375 0.949 . S
C2380 C2386 1.368 1_554 S
C2381 C2365 1.349 . S
C2381 H2373 0.950 . S
C2381 C2379 1.327 . S
C2382 C2370 1.349 . S
C2382 H2376 0.950 . S
C2382 C2383 1.327 . S
C2383 H2377 0.950 . S
C2383 C2382 1.327 . S
C2383 C2387 1.429 . S
C2384 C2367 1.574 1_554 S
C2384 H2378 0.949 . S
C2384 C2388 1.368 . S
C2385 C2366 1.429 . S
C2385 C2379 1.429 . S
C2385 C2386 1.523 . S
C2386 C2367 1.368 . S
C2386 C2380 1.368 1_556 S
C2386 C2385 1.523 . S
C2387 C2371 1.429 . S
C2387 C2383 1.429 . S
C2387 C2388 1.523 . S
C2388 C2372 1.368 . S
C2388 C2384 1.368 . S
C2388 C2387 1.523 . S
H2389 C2364 0.950 . S
H2390 C2366 0.950 . S
H2391 C2367 0.949 . S
H2392 C2369 0.950 . S
H2393 C2371 0.950 . S
C2394 C2395 1.349 . S
C2394 C2396 1.327 . S
C2394 H2419 0.950 . S
C2395 C2394 1.349 . S
C2395 C2411 1.349 . S
C2396 C2394 1.327 . S
C2396 C2415 1.429 . S
C2396 H2420 0.950 . S
C2397 C2414 1.574 . S
C2397 C2416 1.368 . S
C2397 H2421 0.949 . S
H2398 C2402 0.949 1_455 S
C2399 C2400 1.349 . S
C2399 C2401 1.327 . S
C2399 H2422 0.950 . S
C2400 C2399 1.349 . S
C2400 C2412 1.349 . S
C2401 C2399 1.327 . S
C2401 C2417 1.429 . S
C2401 H2423 0.950 1_455 S
C2402 H2398 0.949 1_655 S
C2402 C2410 1.574 . S
C2402 C2418 1.368 . S
H2403 C2411 0.950 . S
H2404 C2409 0.950 . S
H2405 C2410 0.949 . S
H2406 C2412 0.950 . S
H2407 C2413 0.950 . S
H2408 C2414 0.949 . S
C2409 H2404 0.950 . S
C2409 C2411 1.327 . S
C2409 C2415 1.429 . S
C2410 C2402 1.574 . S
C2410 H2405 0.949 . S
C2410 C2416 1.368 . S
C2411 C2395 1.349 . S
C2411 H2403 0.950 . S
C2411 C2409 1.327 . S
C2412 C2400 1.349 . S
C2412 H2406 0.950 . S
C2412 C2413 1.327 . S
C2413 H2407 0.950 . S
C2413 C2412 1.327 . S
C2413 C2417 1.429 . S
C2414 C2397 1.574 . S
C2414 H2408 0.949 . S
C2414 C2418 1.368 . S
C2415 C2396 1.429 . S
C2415 C2409 1.429 . S
C2415 C2416 1.523 . S
C2416 C2397 1.368 . S
C2416 C2410 1.368 . S
C2416 C2415 1.523 . S
C2417 C2401 1.429 . S
C2417 C2413 1.429 . S
C2417 C2418 1.523 1_455 S
C2418 C2402 1.368 . S
C2418 C2414 1.368 . S
C2418 C2417 1.523 1_655 S
H2419 C2394 0.950 . S
H2420 C2396 0.950 . S
H2421 C2397 0.949 . S
H2422 C2399 0.950 . S
H2423 C2401 0.950 1_655 S
C2424 C2425 1.349 . S
C2424 C2426 1.327 . S
C2424 H2449 0.950 . S
C2425 C2424 1.349 . S
C2425 C2441 1.349 . S
C2426 C2424 1.327 . S
C2426 C2445 1.429 . S
C2426 H2450 0.950 . S
C2427 C2444 1.574 . S
C2427 C2446 1.368 . S
C2427 H2451 0.949 . S
H2428 C2432 0.949 . S
C2429 C2430 1.349 . S
C2429 C2431 1.327 . S
C2429 H2452 0.950 . S
C2430 C2429 1.349 . S
C2430 C2442 1.349 . S
C2431 C2429 1.327 . S
C2431 C2447 1.429 . S
C2431 H2453 0.950 . S
C2432 H2428 0.949 . S
C2432 C2440 1.574 . S
C2432 C2448 1.368 . S
H2433 C2441 0.950 . S
H2434 C2439 0.950 . S
H2435 C2440 0.949 . S
H2436 C2442 0.950 . S
H2437 C2443 0.950 . S
H2438 C2444 0.949 . S
C2439 H2434 0.950 . S
C2439 C2441 1.327 . S
C2439 C2445 1.429 . S
C2440 C2432 1.574 . S
C2440 H2435 0.949 . S
C2440 C2446 1.368 . S
C2441 C2425 1.349 . S
C2441 H2433 0.950 . S
C2441 C2439 1.327 . S
C2442 C2430 1.349 . S
C2442 H2436 0.950 . S
C2442 C2443 1.327 . S
C2443 H2437 0.950 . S
C2443 C2442 1.327 . S
C2443 C2447 1.429 . S
C2444 C2427 1.574 . S
C2444 H2438 0.949 . S
C2444 C2448 1.368 . S
C2445 C2426 1.429 . S
C2445 C2439 1.429 . S
C2445 C2446 1.523 . S
C2446 C2427 1.368 . S
C2446 C2440 1.368 . S
C2446 C2445 1.523 . S
C2447 C2431 1.429 . S
C2447 C2443 1.429 . S
C2447 C2448 1.523 . S
C2448 C2432 1.368 . S
C2448 C2444 1.368 . S
C2448 C2447 1.523 . S
H2449 C2424 0.950 . S
H2450 C2426 0.950 . S
H2451 C2427 0.949 . S
H2452 C2429 0.950 . S
H2453 C2431 0.950 . S
C2454 C2455 1.349 . S
C2454 C2456 1.327 . S
C2454 H2479 0.950 . S
C2455 C2454 1.349 . S
C2455 C2471 1.349 . S
C2456 C2454 1.327 . S
C2456 C2475 1.429 . S
C2456 H2480 0.950 . S
C2457 C2474 1.574 . S
C2457 C2476 1.368 . S
C2457 H2481 0.949 . S
H2458 C2462 0.949 . S
C2459 C2460 1.349 . S
C2459 C2461 1.327 . S
C2459 H2482 0.950 . S
C2460 C2459 1.349 . S
C2460 C2472 1.349 . S
C2461 C2459 1.327 . S
C2461 C2477 1.429 . S
C2461 H2483 0.950 1_565 S
C2462 H2458 0.949 . S
C2462 C2470 1.574 . S
C2462 C2478 1.368 . S
H2463 C2471 0.950 . S
H2464 C2469 0.950 . S
H2465 C2470 0.949 . S
H2466 C2472 0.950 . S
H2467 C2473 0.950 . S
H2468 C2474 0.949 . S
C2469 H2464 0.950 . S
C2469 C2471 1.327 . S
C2469 C2475 1.429 . S
C2470 C2462 1.574 . S
C2470 H2465 0.949 . S
C2470 C2476 1.368 . S
C2471 C2455 1.349 . S
C2471 H2463 0.950 . S
C2471 C2469 1.327 . S
C2472 C2460 1.349 . S
C2472 H2466 0.950 . S
C2472 C2473 1.327 . S
C2473 H2467 0.950 . S
C2473 C2472 1.327 . S
C2473 C2477 1.429 . S
C2474 C2457 1.574 . S
C2474 H2468 0.949 . S
C2474 C2478 1.368 . S
C2475 C2456 1.429 . S
C2475 C2469 1.429 . S
C2475 C2476 1.523 . S
C2476 C2457 1.368 . S
C2476 C2470 1.368 . S
C2476 C2475 1.523 . S
C2477 C2461 1.429 . S
C2477 C2473 1.429 . S
C2477 C2478 1.523 1_565 S
C2478 C2462 1.368 . S
C2478 C2474 1.368 . S
C2478 C2477 1.523 1_545 S
H2479 C2454 0.950 . S
H2480 C2456 0.950 . S
H2481 C2457 0.949 . S
H2482 C2459 0.950 . S
H2483 C2461 0.950 1_545 S
C2484 C2485 1.349 . S
C2484 C2486 1.327 . S
C2484 H2509 0.950 . S
C2485 C2484 1.349 . S
C2485 C2501 1.349 . S
C2486 C2484 1.327 . S
C2486 C2505 1.429 . S
C2486 H2510 0.950 . S
C2487 C2504 1.574 . S
C2487 C2506 1.368 . S
C2487 H2511 0.949 . S
H2488 C2492 0.949 . S
C2489 C2490 1.349 . S
C2489 C2491 1.327 . S
C2489 H2512 0.950 . S
C2490 C2489 1.349 . S
C2490 C2502 1.349 . S
C2491 C2489 1.327 . S
C2491 C2507 1.429 . S
C2491 H2513 0.950 . S
C2492 H2488 0.949 . S
C2492 C2500 1.574 . S
C2492 C2508 1.368 . S
H2493 C2501 0.950 . S
H2494 C2499 0.950 . S
H2495 C2500 0.949 . S
H2496 C2502 0.950 . S
H2497 C2503 0.950 . S
H2498 C2504 0.949 . S
C2499 H2494 0.950 . S
C2499 C2501 1.327 . S
C2499 C2505 1.429 . S
C2500 C2492 1.574 . S
C2500 H2495 0.949 . S
C2500 C2506 1.368 . S
C2501 C2485 1.349 . S
C2501 H2493 0.950 . S
C2501 C2499 1.327 . S
C2502 C2490 1.349 . S
C2502 H2496 0.950 . S
C2502 C2503 1.327 . S
C2503 H2497 0.950 . S
C2503 C2502 1.327 . S
C2503 C2507 1.429 . S
C2504 C2487 1.574 . S
C2504 H2498 0.949 . S
C2504 C2508 1.368 . S
C2505 C2486 1.429 . S
C2505 C2499 1.429 . S
C2505 C2506 1.523 . S
C2506 C2487 1.368 . S
C2506 C2500 1.368 . S
C2506 C2505 1.523 . S
C2507 C2491 1.429 . S
C2507 C2503 1.429 . S
C2507 C2508 1.523 . S
C2508 C2492 1.368 . S
C2508 C2504 1.368 . S
C2508 C2507 1.523 . S
H2509 C2484 0.950 . S
H2510 C2486 0.950 . S
H2511 C2487 0.949 . S
H2512 C2489 0.950 . S
H2513 C2491 0.950 . S
C2514 C2515 1.349 . S
C2514 C2516 1.327 . S
C2514 H2539 0.950 . S
C2515 C2514 1.349 . S
C2515 C2531 1.349 . S
C2516 C2514 1.327 . S
C2516 C2535 1.429 . S
C2516 H2540 0.950 . S
C2517 C2534 1.574 . S
C2517 C2536 1.368 . S
C2517 H2541 0.949 . S
H2518 C2522 0.949 . S
C2519 C2520 1.349 . S
C2519 C2521 1.327 . S
C2519 H2542 0.950 . S
C2520 C2519 1.349 . S
C2520 C2532 1.349 . S
C2521 C2519 1.327 . S
C2521 C2537 1.429 . S
C2521 H2543 0.950 . S
C2522 H2518 0.949 . S
C2522 C2530 1.574 . S
C2522 C2538 1.368 . S
H2523 C2531 0.950 . S
H2524 C2529 0.950 . S
H2525 C2530 0.949 . S
H2526 C2532 0.950 . S
H2527 C2533 0.950 . S
H2528 C2534 0.949 . S
C2529 H2524 0.950 . S
C2529 C2531 1.327 . S
C2529 C2535 1.429 . S
C2530 C2522 1.574 . S
C2530 H2525 0.949 . S
C2530 C2536 1.368 . S
C2531 C2515 1.349 . S
C2531 H2523 0.950 . S
C2531 C2529 1.327 . S
C2532 C2520 1.349 . S
C2532 H2526 0.950 . S
C2532 C2533 1.327 . S
C2533 H2527 0.950 . S
C2533 C2532 1.327 . S
C2533 C2537 1.429 . S
C2534 C2517 1.574 . S
C2534 H2528 0.949 . S
C2534 C2538 1.368 . S
C2535 C2516 1.429 . S
C2535 C2529 1.429 . S
C2535 C2536 1.523 . S
C2536 C2517 1.368 . S
C2536 C2530 1.368 . S
C2536 C2535 1.523 . S
C2537 C2521 1.429 . S
C2537 C2533 1.429 . S
C2537 C2538 1.523 . S
C2538 C2522 1.368 . S
C2538 C2534 1.368 . S
C2538 C2537 1.523 . S
H2539 C2514 0.950 . S
H2540 C2516 0.950 . S
H2541 C2517 0.949 . S
H2542 C2519 0.950 . S
H2543 C2521 0.950 . S
C2544 C2545 1.349 . S
C2544 C2546 1.327 . S
C2544 H2569 0.950 . S
C2545 C2544 1.349 . S
C2545 C2561 1.349 . S
C2546 C2544 1.327 . S
C2546 C2565 1.429 . S
C2546 H2570 0.950 . S
C2547 C2564 1.574 . S
C2547 C2566 1.368 . S
C2547 H2571 0.949 . S
H2548 C2552 0.949 . S
C2549 C2550 1.349 . S
C2549 C2551 1.327 . S
C2549 H2572 0.950 . S
C2550 C2549 1.349 . S
C2550 C2562 1.349 . S
C2551 C2549 1.327 . S
C2551 C2567 1.429 . S
C2551 H2573 0.950 . S
C2552 H2548 0.949 . S
C2552 C2560 1.574 . S
C2552 C2568 1.368 . S
H2553 C2561 0.950 . S
H2554 C2559 0.950 . S
H2555 C2560 0.949 . S
H2556 C2562 0.950 . S
H2557 C2563 0.950 . S
H2558 C2564 0.949 . S
C2559 H2554 0.950 . S
C2559 C2561 1.327 . S
C2559 C2565 1.429 . S
C2560 C2552 1.574 . S
C2560 H2555 0.949 . S
C2560 C2566 1.368 . S
C2561 C2545 1.349 . S
C2561 H2553 0.950 . S
C2561 C2559 1.327 . S
C2562 C2550 1.349 . S
C2562 H2556 0.950 . S
C2562 C2563 1.327 . S
C2563 H2557 0.950 . S
C2563 C2562 1.327 . S
C2563 C2567 1.429 . S
C2564 C2547 1.574 . S
C2564 H2558 0.949 . S
C2564 C2568 1.368 . S
C2565 C2546 1.429 . S
C2565 C2559 1.429 . S
C2565 C2566 1.523 . S
C2566 C2547 1.368 . S
C2566 C2560 1.368 . S
C2566 C2565 1.523 . S
C2567 C2551 1.429 . S
C2567 C2563 1.429 . S
C2567 C2568 1.523 . S
C2568 C2552 1.368 . S
C2568 C2564 1.368 . S
C2568 C2567 1.523 . S
H2569 C2544 0.950 . S
H2570 C2546 0.950 . S
H2571 C2547 0.949 . S
H2572 C2549 0.950 . S
H2573 C2551 0.950 . S
C2574 C2575 1.349 . S
C2574 C2576 1.327 . S
C2574 H2599 0.950 . S
C2575 C2574 1.349 . S
C2575 C2591 1.349 . S
C2576 C2574 1.327 . S
C2576 C2595 1.429 . S
C2576 H2600 0.950 . S
C2577 C2594 1.574 . S
C2577 C2596 1.368 . S
C2577 H2601 0.949 . S
H2578 C2582 0.949 . S
C2579 C2580 1.349 . S
C2579 C2581 1.327 . S
C2579 H2602 0.950 . S
C2580 C2579 1.349 . S
C2580 C2592 1.349 . S
C2581 C2579 1.327 . S
C2581 C2597 1.429 . S
C2581 H2603 0.950 . S
C2582 H2578 0.949 . S
C2582 C2590 1.574 . S
C2582 C2598 1.368 . S
H2583 C2591 0.950 . S
H2584 C2589 0.950 . S
H2585 C2590 0.949 . S
H2586 C2592 0.950 . S
H2587 C2593 0.950 . S
H2588 C2594 0.949 . S
C2589 H2584 0.950 . S
C2589 C2591 1.327 . S
C2589 C2595 1.429 . S
C2590 C2582 1.574 . S
C2590 H2585 0.949 . S
C2590 C2596 1.368 . S
C2591 C2575 1.349 . S
C2591 H2583 0.950 . S
C2591 C2589 1.327 . S
C2592 C2580 1.349 . S
C2592 H2586 0.950 . S
C2592 C2593 1.327 . S
C2593 H2587 0.950 . S
C2593 C2592 1.327 . S
C2593 C2597 1.429 . S
C2594 C2577 1.574 . S
C2594 H2588 0.949 . S
C2594 C2598 1.368 . S
C2595 C2576 1.429 . S
C2595 C2589 1.429 . S
C2595 C2596 1.523 . S
C2596 C2577 1.368 . S
C2596 C2590 1.368 . S
C2596 C2595 1.523 . S
C2597 C2581 1.429 . S
C2597 C2593 1.429 . S
C2597 C2598 1.523 . S
C2598 C2582 1.368 . S
C2598 C2594 1.368 . S
C2598 C2597 1.523 . S
H2599 C2574 0.950 . S
H2600 C2576 0.950 . S
H2601 C2577 0.949 . S
H2602 C2579 0.950 . S
H2603 C2581 0.950 . S
C2604 C2605 1.349 . S
C2604 C2606 1.327 . S
C2604 H2629 0.950 . S
C2605 C2604 1.349 . S
C2605 C2621 1.349 . S
C2606 C2604 1.327 . S
C2606 C2625 1.429 . S
C2606 H2630 0.950 . S
C2607 C2624 1.574 . S
C2607 C2626 1.368 . S
C2607 H2631 0.949 . S
H2608 C2612 0.949 . S
C2609 C2610 1.349 . S
C2609 C2611 1.327 . S
C2609 H2632 0.950 . S
C2610 C2609 1.349 . S
C2610 C2622 1.349 . S
C2611 C2609 1.327 . S
C2611 C2627 1.429 . S
C2611 H2633 0.950 . S
C2612 H2608 0.949 . S
C2612 C2620 1.574 . S
C2612 C2628 1.368 . S
H2613 C2621 0.950 . S
H2614 C2619 0.950 . S
H2615 C2620 0.949 . S
H2616 C2622 0.950 . S
H2617 C2623 0.950 . S
H2618 C2624 0.949 . S
C2619 H2614 0.950 . S
C2619 C2621 1.327 . S
C2619 C2625 1.429 . S
C2620 C2612 1.574 . S
C2620 H2615 0.949 . S
C2620 C2626 1.368 . S
C2621 C2605 1.349 . S
C2621 H2613 0.950 . S
C2621 C2619 1.327 . S
C2622 C2610 1.349 . S
C2622 H2616 0.950 . S
C2622 C2623 1.327 . S
C2623 H2617 0.950 . S
C2623 C2622 1.327 . S
C2623 C2627 1.429 . S
C2624 C2607 1.574 . S
C2624 H2618 0.949 . S
C2624 C2628 1.368 . S
C2625 C2606 1.429 . S
C2625 C2619 1.429 . S
C2625 C2626 1.523 . S
C2626 C2607 1.368 . S
C2626 C2620 1.368 . S
C2626 C2625 1.523 . S
C2627 C2611 1.429 . S
C2627 C2623 1.429 . S
C2627 C2628 1.523 . S
C2628 C2612 1.368 . S
C2628 C2624 1.368 . S
C2628 C2627 1.523 . S
H2629 C2604 0.950 . S
H2630 C2606 0.950 . S
H2631 C2607 0.949 . S
H2632 C2609 0.950 . S
H2633 C2611 0.950 . S
C2634 C2635 1.349 . S
C2634 C2636 1.327 . S
C2634 H2659 0.950 . S
C2635 C2634 1.349 . S
C2635 C2651 1.349 . S
C2636 C2634 1.327 . S
C2636 C2655 1.429 . S
C2636 H2660 0.950 . S
C2637 C2654 1.574 . S
C2637 C2656 1.368 . S
C2637 H2661 0.949 . S
H2638 C2642 0.949 . S
C2639 C2640 1.349 . S
C2639 C2641 1.327 . S
C2639 H2662 0.950 . S
C2640 C2639 1.349 . S
C2640 C2652 1.349 . S
C2641 C2639 1.327 . S
C2641 C2657 1.429 . S
C2641 H2663 0.950 . S
C2642 H2638 0.949 . S
C2642 C2650 1.574 . S
C2642 C2658 1.368 . S
H2643 C2651 0.950 . S
H2644 C2649 0.950 . S
H2645 C2650 0.949 . S
H2646 C2652 0.950 . S
H2647 C2653 0.950 . S
H2648 C2654 0.949 . S
C2649 H2644 0.950 . S
C2649 C2651 1.327 . S
C2649 C2655 1.429 . S
C2650 C2642 1.574 . S
C2650 H2645 0.949 . S
C2650 C2656 1.368 . S
C2651 C2635 1.349 . S
C2651 H2643 0.950 . S
C2651 C2649 1.327 . S
C2652 C2640 1.349 . S
C2652 H2646 0.950 . S
C2652 C2653 1.327 . S
C2653 H2647 0.950 . S
C2653 C2652 1.327 . S
C2653 C2657 1.429 . S
C2654 C2637 1.574 . S
C2654 H2648 0.949 . S
C2654 C2658 1.368 . S
C2655 C2636 1.429 . S
C2655 C2649 1.429 . S
C2655 C2656 1.523 . S
C2656 C2637 1.368 . S
C2656 C2650 1.368 . S
C2656 C2655 1.523 . S
C2657 C2641 1.429 . S
C2657 C2653 1.429 . S
C2657 C2658 1.523 . S
C2658 C2642 1.368 . S
C2658 C2654 1.368 . S
C2658 C2657 1.523 . S
H2659 C2634 0.950 . S
H2660 C2636 0.950 . S
H2661 C2637 0.949 . S
H2662 C2639 0.950 . S
H2663 C2641 0.950 . S
C2664 C2665 1.349 . S
C2664 C2666 1.327 . S
C2664 H2689 0.950 . S
C2665 C2664 1.349 . S
C2665 C2681 1.349 . S
C2666 C2664 1.327 . S
C2666 C2685 1.429 . S
C2666 H2690 0.950 . S
C2667 C2684 1.574 . S
C2667 C2686 1.368 . S
C2667 H2691 0.949 . S
H2668 C2672 0.949 . S
C2669 C2670 1.349 . S
C2669 C2671 1.327 . S
C2669 H2692 0.950 . S
C2670 C2669 1.349 . S
C2670 C2682 1.349 . S
C2671 C2669 1.327 . S
C2671 C2687 1.429 . S
C2671 H2693 0.950 . S
C2672 H2668 0.949 . S
C2672 C2680 1.574 . S
C2672 C2688 1.368 . S
H2673 C2681 0.950 . S
H2674 C2679 0.950 . S
H2675 C2680 0.949 . S
H2676 C2682 0.950 . S
H2677 C2683 0.950 . S
H2678 C2684 0.949 . S
C2679 H2674 0.950 . S
C2679 C2681 1.327 . S
C2679 C2685 1.429 . S
C2680 C2672 1.574 . S
C2680 H2675 0.949 . S
C2680 C2686 1.368 . S
C2681 C2665 1.349 . S
C2681 H2673 0.950 . S
C2681 C2679 1.327 . S
C2682 C2670 1.349 . S
C2682 H2676 0.950 . S
C2682 C2683 1.327 . S
C2683 H2677 0.950 . S
C2683 C2682 1.327 . S
C2683 C2687 1.429 . S
C2684 C2667 1.574 . S
C2684 H2678 0.949 . S
C2684 C2688 1.368 . S
C2685 C2666 1.429 . S
C2685 C2679 1.429 . S
C2685 C2686 1.523 . S
C2686 C2667 1.368 . S
C2686 C2680 1.368 . S
C2686 C2685 1.523 . S
C2687 C2671 1.429 . S
C2687 C2683 1.429 . S
C2687 C2688 1.523 . S
C2688 C2672 1.368 . S
C2688 C2684 1.368 . S
C2688 C2687 1.523 . S
H2689 C2664 0.950 . S
H2690 C2666 0.950 . S
H2691 C2667 0.949 . S
H2692 C2669 0.950 . S
H2693 C2671 0.950 . S
C2694 C2695 1.349 . S
C2694 C2696 1.327 . S
C2694 H2719 0.950 . S
C2695 C2694 1.349 . S
C2695 C2711 1.349 . S
C2696 C2694 1.327 . S
C2696 C2715 1.429 . S
C2696 H2720 0.950 . S
C2697 C2714 1.574 . S
C2697 C2716 1.368 . S
C2697 H2721 0.949 . S
H2698 C2702 0.949 . S
C2699 C2700 1.349 . S
C2699 C2701 1.327 . S
C2699 H2722 0.950 . S
C2700 C2699 1.349 . S
C2700 C2712 1.349 . S
C2701 C2699 1.327 . S
C2701 C2717 1.429 . S
C2701 H2723 0.950 . S
C2702 H2698 0.949 . S
C2702 C2710 1.574 . S
C2702 C2718 1.368 . S
H2703 C2711 0.950 . S
H2704 C2709 0.950 . S
H2705 C2710 0.949 . S
H2706 C2712 0.950 . S
H2707 C2713 0.950 . S
H2708 C2714 0.949 . S
C2709 H2704 0.950 . S
C2709 C2711 1.327 . S
C2709 C2715 1.429 . S
C2710 C2702 1.574 . S
C2710 H2705 0.949 . S
C2710 C2716 1.368 . S
C2711 C2695 1.349 . S
C2711 H2703 0.950 . S
C2711 C2709 1.327 . S
C2712 C2700 1.349 . S
C2712 H2706 0.950 . S
C2712 C2713 1.327 . S
C2713 H2707 0.950 . S
C2713 C2712 1.327 . S
C2713 C2717 1.429 . S
C2714 C2697 1.574 . S
C2714 H2708 0.949 . S
C2714 C2718 1.368 . S
C2715 C2696 1.429 . S
C2715 C2709 1.429 . S
C2715 C2716 1.523 . S
C2716 C2697 1.368 . S
C2716 C2710 1.368 . S
C2716 C2715 1.523 . S
C2717 C2701 1.429 . S
C2717 C2713 1.429 . S
C2717 C2718 1.523 . S
C2718 C2702 1.368 . S
C2718 C2714 1.368 . S
C2718 C2717 1.523 . S
H2719 C2694 0.950 . S
H2720 C2696 0.950 . S
H2721 C2697 0.949 . S
H2722 C2699 0.950 . S
H2723 C2701 0.950 . S
C2724 C2725 1.349 . S
C2724 C2726 1.327 . S
C2724 H2749 0.950 . S
C2725 C2724 1.349 . S
C2725 C2741 1.349 . S
C2726 C2724 1.327 . S
C2726 C2745 1.429 . S
C2726 H2750 0.950 . S
C2727 C2744 1.574 . S
C2727 C2746 1.368 . S
C2727 H2751 0.949 . S
H2728 C2732 0.949 . S
C2729 C2730 1.349 . S
C2729 C2731 1.327 . S
C2729 H2752 0.950 . S
C2730 C2729 1.349 . S
C2730 C2742 1.349 . S
C2731 C2729 1.327 . S
C2731 C2747 1.429 . S
C2731 H2753 0.950 . S
C2732 H2728 0.949 . S
C2732 C2740 1.574 . S
C2732 C2748 1.368 . S
H2733 C2741 0.950 . S
H2734 C2739 0.950 . S
H2735 C2740 0.949 . S
H2736 C2742 0.950 . S
H2737 C2743 0.950 . S
H2738 C2744 0.949 . S
C2739 H2734 0.950 . S
C2739 C2741 1.327 . S
C2739 C2745 1.429 . S
C2740 C2732 1.574 . S
C2740 H2735 0.949 . S
C2740 C2746 1.368 . S
C2741 C2725 1.349 . S
C2741 H2733 0.950 . S
C2741 C2739 1.327 . S
C2742 C2730 1.349 . S
C2742 H2736 0.950 . S
C2742 C2743 1.327 . S
C2743 H2737 0.950 . S
C2743 C2742 1.327 . S
C2743 C2747 1.429 . S
C2744 C2727 1.574 . S
C2744 H2738 0.949 . S
C2744 C2748 1.368 . S
C2745 C2726 1.429 . S
C2745 C2739 1.429 . S
C2745 C2746 1.523 . S
C2746 C2727 1.368 . S
C2746 C2740 1.368 . S
C2746 C2745 1.523 . S
C2747 C2731 1.429 . S
C2747 C2743 1.429 . S
C2747 C2748 1.523 . S
C2748 C2732 1.368 . S
C2748 C2744 1.368 . S
C2748 C2747 1.523 . S
H2749 C2724 0.950 . S
H2750 C2726 0.950 . S
H2751 C2727 0.949 . S
H2752 C2729 0.950 . S
H2753 C2731 0.950 . S
C2754 C2755 1.349 . S
C2754 C2756 1.327 . S
C2754 H2779 0.950 . S
C2755 C2754 1.349 . S
C2755 C2771 1.349 . S
C2756 C2754 1.327 . S
C2756 C2775 1.429 . S
C2756 H2780 0.950 . S
C2757 C2774 1.574 . S
C2757 C2776 1.368 . S
C2757 H2781 0.949 . S
H2758 C2762 0.949 . S
C2759 C2760 1.349 . S
C2759 C2761 1.327 . S
C2759 H2782 0.950 . S
C2760 C2759 1.349 . S
C2760 C2772 1.349 . S
C2761 C2759 1.327 . S
C2761 C2777 1.429 . S
C2761 H2783 0.950 . S
C2762 H2758 0.949 . S
C2762 C2770 1.574 . S
C2762 C2778 1.368 . S
H2763 C2771 0.950 . S
H2764 C2769 0.950 . S
H2765 C2770 0.949 . S
H2766 C2772 0.950 . S
H2767 C2773 0.950 . S
H2768 C2774 0.949 . S
C2769 H2764 0.950 . S
C2769 C2771 1.327 . S
C2769 C2775 1.429 . S
C2770 C2762 1.574 . S
C2770 H2765 0.949 . S
C2770 C2776 1.368 . S
C2771 C2755 1.349 . S
C2771 H2763 0.950 . S
C2771 C2769 1.327 . S
C2772 C2760 1.349 . S
C2772 H2766 0.950 . S
C2772 C2773 1.327 . S
C2773 H2767 0.950 . S
C2773 C2772 1.327 . S
C2773 C2777 1.429 . S
C2774 C2757 1.574 . S
C2774 H2768 0.949 . S
C2774 C2778 1.368 . S
C2775 C2756 1.429 . S
C2775 C2769 1.429 . S
C2775 C2776 1.523 . S
C2776 C2757 1.368 . S
C2776 C2770 1.368 . S
C2776 C2775 1.523 . S
C2777 C2761 1.429 . S
C2777 C2773 1.429 . S
C2777 C2778 1.523 . S
C2778 C2762 1.368 . S
C2778 C2774 1.368 . S
C2778 C2777 1.523 . S
H2779 C2754 0.950 . S
H2780 C2756 0.950 . S
H2781 C2757 0.949 . S
H2782 C2759 0.950 . S
H2783 C2761 0.950 . S
C2784 C2785 1.349 . S
C2784 C2786 1.327 . S
C2784 H2809 0.950 . S
C2785 C2784 1.349 . S
C2785 C2801 1.349 . S
C2786 C2784 1.327 . S
C2786 C2805 1.429 . S
C2786 H2810 0.950 . S
C2787 C2804 1.574 . S
C2787 C2806 1.368 . S
C2787 H2811 0.949 . S
H2788 C2792 0.949 . S
C2789 C2790 1.349 . S
C2789 C2791 1.327 . S
C2789 H2812 0.950 . S
C2790 C2789 1.349 . S
C2790 C2802 1.349 . S
C2791 C2789 1.327 . S
C2791 C2807 1.429 . S
C2791 H2813 0.950 . S
C2792 H2788 0.949 . S
C2792 C2800 1.574 . S
C2792 C2808 1.368 . S
H2793 C2801 0.950 . S
H2794 C2799 0.950 . S
H2795 C2800 0.949 . S
H2796 C2802 0.950 . S
H2797 C2803 0.950 . S
H2798 C2804 0.949 . S
C2799 H2794 0.950 . S
C2799 C2801 1.327 . S
C2799 C2805 1.429 . S
C2800 C2792 1.574 . S
C2800 H2795 0.949 . S
C2800 C2806 1.368 . S
C2801 C2785 1.349 . S
C2801 H2793 0.950 . S
C2801 C2799 1.327 . S
C2802 C2790 1.349 . S
C2802 H2796 0.950 . S
C2802 C2803 1.327 . S
C2803 H2797 0.950 . S
C2803 C2802 1.327 . S
C2803 C2807 1.429 . S
C2804 C2787 1.574 . S
C2804 H2798 0.949 . S
C2804 C2808 1.368 . S
C2805 C2786 1.429 . S
C2805 C2799 1.429 . S
C2805 C2806 1.523 . S
C2806 C2787 1.368 . S
C2806 C2800 1.368 . S
C2806 C2805 1.523 . S
C2807 C2791 1.429 . S
C2807 C2803 1.429 . S
C2807 C2808 1.523 . S
C2808 C2792 1.368 . S
C2808 C2804 1.368 . S
C2808 C2807 1.523 . S
H2809 C2784 0.950 . S
H2810 C2786 0.950 . S
H2811 C2787 0.949 . S
H2812 C2789 0.950 . S
H2813 C2791 0.950 . S
C2814 C2815 1.349 . S
C2814 C2816 1.327 . S
C2814 H2839 0.950 . S
C2815 C2814 1.349 . S
C2815 C2831 1.349 . S
C2816 C2814 1.327 . S
C2816 C2835 1.429 . S
C2816 H2840 0.950 . S
C2817 C2834 1.574 . S
C2817 C2836 1.368 . S
C2817 H2841 0.949 . S
H2818 C2822 0.949 . S
C2819 C2820 1.349 . S
C2819 C2821 1.327 . S
C2819 H2842 0.950 . S
C2820 C2819 1.349 . S
C2820 C2832 1.349 . S
C2821 C2819 1.327 . S
C2821 C2837 1.429 . S
C2821 H2843 0.950 . S
C2822 H2818 0.949 . S
C2822 C2830 1.574 . S
C2822 C2838 1.368 . S
H2823 C2831 0.950 . S
H2824 C2829 0.950 . S
H2825 C2830 0.949 . S
H2826 C2832 0.950 . S
H2827 C2833 0.950 . S
H2828 C2834 0.949 . S
C2829 H2824 0.950 . S
C2829 C2831 1.327 . S
C2829 C2835 1.429 . S
C2830 C2822 1.574 . S
C2830 H2825 0.949 . S
C2830 C2836 1.368 . S
C2831 C2815 1.349 . S
C2831 H2823 0.950 . S
C2831 C2829 1.327 . S
C2832 C2820 1.349 . S
C2832 H2826 0.950 . S
C2832 C2833 1.327 . S
C2833 H2827 0.950 . S
C2833 C2832 1.327 . S
C2833 C2837 1.429 . S
C2834 C2817 1.574 . S
C2834 H2828 0.949 . S
C2834 C2838 1.368 . S
C2835 C2816 1.429 . S
C2835 C2829 1.429 . S
C2835 C2836 1.523 . S
C2836 C2817 1.368 . S
C2836 C2830 1.368 . S
C2836 C2835 1.523 . S
C2837 C2821 1.429 . S
C2837 C2833 1.429 . S
C2837 C2838 1.523 . S
C2838 C2822 1.368 . S
C2838 C2834 1.368 . S
C2838 C2837 1.523 . S
H2839 C2814 0.950 . S
H2840 C2816 0.950 . S
H2841 C2817 0.949 . S
H2842 C2819 0.950 . S
H2843 C2821 0.950 . S
C2844 C2845 1.349 . S
C2844 C2846 1.327 . S
C2844 H2869 0.950 . S
C2845 C2844 1.349 . S
C2845 C2861 1.349 . S
C2846 C2844 1.327 . S
C2846 C2865 1.429 . S
C2846 H2870 0.950 . S
C2847 C2864 1.574 . S
C2847 C2866 1.368 . S
C2847 H2871 0.949 . S
H2848 C2852 0.949 . S
C2849 C2850 1.349 . S
C2849 C2851 1.327 . S
C2849 H2872 0.950 . S
C2850 C2849 1.349 . S
C2850 C2862 1.349 . S
C2851 C2849 1.327 . S
C2851 C2867 1.429 . S
C2851 H2873 0.950 . S
C2852 H2848 0.949 . S
C2852 C2860 1.574 . S
C2852 C2868 1.368 . S
H2853 C2861 0.950 . S
H2854 C2859 0.950 . S
H2855 C2860 0.949 . S
H2856 C2862 0.950 . S
H2857 C2863 0.950 . S
H2858 C2864 0.949 . S
C2859 H2854 0.950 . S
C2859 C2861 1.327 . S
C2859 C2865 1.429 . S
C2860 C2852 1.574 . S
C2860 H2855 0.949 . S
C2860 C2866 1.368 . S
C2861 C2845 1.349 . S
C2861 H2853 0.950 . S
C2861 C2859 1.327 . S
C2862 C2850 1.349 . S
C2862 H2856 0.950 . S
C2862 C2863 1.327 . S
C2863 H2857 0.950 . S
C2863 C2862 1.327 . S
C2863 C2867 1.429 . S
C2864 C2847 1.574 . S
C2864 H2858 0.949 . S
C2864 C2868 1.368 . S
C2865 C2846 1.429 . S
C2865 C2859 1.429 . S
C2865 C2866 1.523 . S
C2866 C2847 1.368 . S
C2866 C2860 1.368 . S
C2866 C2865 1.523 . S
C2867 C2851 1.429 . S
C2867 C2863 1.429 . S
C2867 C2868 1.523 . S
C2868 C2852 1.368 . S
C2868 C2864 1.368 . S
C2868 C2867 1.523 . S
H2869 C2844 0.950 . S
H2870 C2846 0.950 . S
H2871 C2847 0.949 . S
H2872 C2849 0.950 . S
H2873 C2851 0.950 . S
C2874 C2875 1.349 . S
C2874 C2876 1.327 . S
C2874 H2899 0.950 . S
C2875 C2874 1.349 . S
C2875 C2891 1.349 . S
C2876 C2874 1.327 . S
C2876 C2895 1.429 . S
C2876 H2900 0.950 . S
C2877 C2894 1.574 . S
C2877 C2896 1.368 . S
C2877 H2901 0.949 . S
H2878 C2882 0.949 . S
C2879 C2880 1.349 . S
C2879 C2881 1.327 . S
C2879 H2902 0.950 . S
C2880 C2879 1.349 . S
C2880 C2892 1.349 . S
C2881 C2879 1.327 . S
C2881 C2897 1.429 . S
C2881 H2903 0.950 . S
C2882 H2878 0.949 . S
C2882 C2890 1.574 . S
C2882 C2898 1.368 . S
H2883 C2891 0.950 . S
H2884 C2889 0.950 . S
H2885 C2890 0.949 . S
H2886 C2892 0.950 . S
H2887 C2893 0.950 . S
H2888 C2894 0.949 . S
C2889 H2884 0.950 . S
C2889 C2891 1.327 . S
C2889 C2895 1.429 . S
C2890 C2882 1.574 . S
C2890 H2885 0.949 . S
C2890 C2896 1.368 . S
C2891 C2875 1.349 . S
C2891 H2883 0.950 . S
C2891 C2889 1.327 . S
C2892 C2880 1.349 . S
C2892 H2886 0.950 . S
C2892 C2893 1.327 . S
C2893 H2887 0.950 . S
C2893 C2892 1.327 . S
C2893 C2897 1.429 . S
C2894 C2877 1.574 . S
C2894 H2888 0.949 . S
C2894 C2898 1.368 . S
C2895 C2876 1.429 . S
C2895 C2889 1.429 . S
C2895 C2896 1.523 . S
C2896 C2877 1.368 . S
C2896 C2890 1.368 . S
C2896 C2895 1.523 . S
C2897 C2881 1.429 . S
C2897 C2893 1.429 . S
C2897 C2898 1.523 . S
C2898 C2882 1.368 . S
C2898 C2894 1.368 . S
C2898 C2897 1.523 . S
H2899 C2874 0.950 . S
H2900 C2876 0.950 . S
H2901 C2877 0.949 . S
H2902 C2879 0.950 . S
H2903 C2881 0.950 . S
C2904 C2905 1.349 . S
C2904 C2906 1.327 . S
C2904 H2929 0.950 . S
C2905 C2904 1.349 . S
C2905 C2921 1.349 . S
C2906 C2904 1.327 . S
C2906 C2925 1.429 . S
C2906 H2930 0.950 . S
C2907 C2924 1.574 . S
C2907 C2926 1.368 . S
C2907 H2931 0.949 . S
H2908 C2912 0.949 . S
C2909 C2910 1.349 . S
C2909 C2911 1.327 . S
C2909 H2932 0.950 . S
C2910 C2909 1.349 . S
C2910 C2922 1.349 . S
C2911 C2909 1.327 . S
C2911 C2927 1.429 . S
C2911 H2933 0.950 . S
C2912 H2908 0.949 . S
C2912 C2920 1.574 . S
C2912 C2928 1.368 . S
H2913 C2921 0.950 . S
H2914 C2919 0.950 . S
H2915 C2920 0.949 . S
H2916 C2922 0.950 . S
H2917 C2923 0.950 . S
H2918 C2924 0.949 . S
C2919 H2914 0.950 . S
C2919 C2921 1.327 . S
C2919 C2925 1.429 . S
C2920 C2912 1.574 . S
C2920 H2915 0.949 . S
C2920 C2926 1.368 . S
C2921 C2905 1.349 . S
C2921 H2913 0.950 . S
C2921 C2919 1.327 . S
C2922 C2910 1.349 . S
C2922 H2916 0.950 . S
C2922 C2923 1.327 . S
C2923 H2917 0.950 . S
C2923 C2922 1.327 . S
C2923 C2927 1.429 . S
C2924 C2907 1.574 . S
C2924 H2918 0.949 . S
C2924 C2928 1.368 . S
C2925 C2906 1.429 . S
C2925 C2919 1.429 . S
C2925 C2926 1.523 . S
C2926 C2907 1.368 . S
C2926 C2920 1.368 . S
C2926 C2925 1.523 . S
C2927 C2911 1.429 . S
C2927 C2923 1.429 . S
C2927 C2928 1.523 . S
C2928 C2912 1.368 . S
C2928 C2924 1.368 . S
C2928 C2927 1.523 . S
H2929 C2904 0.950 . S
H2930 C2906 0.950 . S
H2931 C2907 0.949 . S
H2932 C2909 0.950 . S
H2933 C2911 0.950 . S
C2934 C2935 1.349 . S
C2934 C2936 1.327 . S
C2934 H2959 0.950 . S
C2935 C2934 1.349 . S
C2935 C2951 1.349 . S
C2936 C2934 1.327 . S
C2936 C2955 1.429 . S
C2936 H2960 0.950 . S
C2937 C2954 1.574 . S
C2937 C2956 1.368 . S
C2937 H2961 0.949 . S
H2938 C2942 0.949 . S
C2939 C2940 1.349 . S
C2939 C2941 1.327 . S
C2939 H2962 0.950 . S
C2940 C2939 1.349 . S
C2940 C2952 1.349 . S
C2941 C2939 1.327 . S
C2941 C2957 1.429 . S
C2941 H2963 0.950 . S
C2942 H2938 0.949 . S
C2942 C2950 1.574 . S
C2942 C2958 1.368 . S
H2943 C2951 0.950 . S
H2944 C2949 0.950 . S
H2945 C2950 0.949 . S
H2946 C2952 0.950 . S
H2947 C2953 0.950 . S
H2948 C2954 0.949 . S
C2949 H2944 0.950 . S
C2949 C2951 1.327 . S
C2949 C2955 1.429 . S
C2950 C2942 1.574 . S
C2950 H2945 0.949 . S
C2950 C2956 1.368 . S
C2951 C2935 1.349 . S
C2951 H2943 0.950 . S
C2951 C2949 1.327 . S
C2952 C2940 1.349 . S
C2952 H2946 0.950 . S
C2952 C2953 1.327 . S
C2953 H2947 0.950 . S
C2953 C2952 1.327 . S
C2953 C2957 1.429 . S
C2954 C2937 1.574 . S
C2954 H2948 0.949 . S
C2954 C2958 1.368 . S
C2955 C2936 1.429 . S
C2955 C2949 1.429 . S
C2955 C2956 1.523 . S
C2956 C2937 1.368 . S
C2956 C2950 1.368 . S
C2956 C2955 1.523 . S
C2957 C2941 1.429 . S
C2957 C2953 1.429 . S
C2957 C2958 1.523 . S
C2958 C2942 1.368 . S
C2958 C2954 1.368 . S
C2958 C2957 1.523 . S
H2959 C2934 0.950 . S
H2960 C2936 0.950 . S
H2961 C2937 0.949 . S
H2962 C2939 0.950 . S
H2963 C2941 0.950 . S
C2964 C2965 1.349 . S
C2964 C2966 1.327 . S
C2964 H2989 0.950 . S
C2965 C2964 1.349 . S
C2965 C2981 1.349 . S
C2966 C2964 1.327 . S
C2966 C2985 1.429 . S
C2966 H2990 0.950 . S
C2967 C2984 1.574 . S
C2967 C2986 1.368 . S
C2967 H2991 0.949 . S
H2968 C2972 0.949 . S
C2969 C2970 1.349 . S
C2969 C2971 1.327 . S
C2969 H2992 0.950 . S
C2970 C2969 1.349 . S
C2970 C2982 1.349 . S
C2971 C2969 1.327 . S
C2971 C2987 1.429 . S
C2971 H2993 0.950 . S
C2972 H2968 0.949 . S
C2972 C2980 1.574 . S
C2972 C2988 1.368 . S
H2973 C2981 0.950 . S
H2974 C2979 0.950 . S
H2975 C2980 0.949 . S
H2976 C2982 0.950 . S
H2977 C2983 0.950 . S
H2978 C2984 0.949 . S
C2979 H2974 0.950 . S
C2979 C2981 1.327 . S
C2979 C2985 1.429 . S
C2980 C2972 1.574 . S
C2980 H2975 0.949 . S
C2980 C2986 1.368 . S
C2981 C2965 1.349 . S
C2981 H2973 0.950 . S
C2981 C2979 1.327 . S
C2982 C2970 1.349 . S
C2982 H2976 0.950 . S
C2982 C2983 1.327 . S
C2983 H2977 0.950 . S
C2983 C2982 1.327 . S
C2983 C2987 1.429 . S
C2984 C2967 1.574 . S
C2984 H2978 0.949 . S
C2984 C2988 1.368 . S
C2985 C2966 1.429 . S
C2985 C2979 1.429 . S
C2985 C2986 1.523 . S
C2986 C2967 1.368 . S
C2986 C2980 1.368 . S
C2986 C2985 1.523 . S
C2987 C2971 1.429 . S
C2987 C2983 1.429 . S
C2987 C2988 1.523 . S
C2988 C2972 1.368 . S
C2988 C2984 1.368 . S
C2988 C2987 1.523 . S
H2989 C2964 0.950 . S
H2990 C2966 0.950 . S
H2991 C2967 0.949 . S
H2992 C2969 0.950 . S
H2993 C2971 0.950 . S
C2994 C2995 1.349 . S
C2994 C2996 1.327 . S
C2994 H3019 0.950 . S
C2995 C2994 1.349 . S
C2995 C3011 1.349 . S
C2996 C2994 1.327 . S
C2996 C3015 1.429 . S
C2996 H3020 0.950 . S
C2997 C3014 1.574 . S
C2997 C3016 1.368 . S
C2997 H3021 0.949 . S
H2998 C3002 0.949 . S
C2999 C3000 1.349 . S
C2999 C3001 1.327 . S
C2999 H3022 0.950 . S
C3000 C2999 1.349 . S
C3000 C3012 1.349 . S
C3001 C2999 1.327 . S
C3001 C3017 1.429 . S
C3001 H3023 0.950 . S
C3002 H2998 0.949 . S
C3002 C3010 1.574 . S
C3002 C3018 1.368 . S
H3003 C3011 0.950 . S
H3004 C3009 0.950 . S
H3005 C3010 0.949 . S
H3006 C3012 0.950 . S
H3007 C3013 0.950 . S
H3008 C3014 0.949 . S
C3009 H3004 0.950 . S
C3009 C3011 1.327 . S
C3009 C3015 1.429 . S
C3010 C3002 1.574 . S
C3010 H3005 0.949 . S
C3010 C3016 1.368 . S
C3011 C2995 1.349 . S
C3011 H3003 0.950 . S
C3011 C3009 1.327 . S
C3012 C3000 1.349 . S
C3012 H3006 0.950 . S
C3012 C3013 1.327 . S
C3013 H3007 0.950 . S
C3013 C3012 1.327 . S
C3013 C3017 1.429 . S
C3014 C2997 1.574 . S
C3014 H3008 0.949 . S
C3014 C3018 1.368 . S
C3015 C2996 1.429 . S
C3015 C3009 1.429 . S
C3015 C3016 1.523 . S
C3016 C2997 1.368 . S
C3016 C3010 1.368 . S
C3016 C3015 1.523 . S
C3017 C3001 1.429 . S
C3017 C3013 1.429 . S
C3017 C3018 1.523 . S
C3018 C3002 1.368 . S
C3018 C3014 1.368 . S
C3018 C3017 1.523 . S
H3019 C2994 0.950 . S
H3020 C2996 0.950 . S
H3021 C2997 0.949 . S
H3022 C2999 0.950 . S
H3023 C3001 0.950 . S
C3024 C3025 1.349 . S
C3024 C3026 1.327 . S
C3024 H3049 0.950 . S
C3025 C3024 1.349 . S
C3025 C3041 1.349 . S
C3026 C3024 1.327 . S
C3026 C3045 1.429 . S
C3026 H3050 0.950 . S
C3027 C3044 1.574 . S
C3027 C3046 1.368 . S
C3027 H3051 0.949 . S
H3028 C3032 0.949 . S
C3029 C3030 1.349 . S
C3029 C3031 1.327 . S
C3029 H3052 0.950 . S
C3030 C3029 1.349 . S
C3030 C3042 1.349 . S
C3031 C3029 1.327 . S
C3031 C3047 1.429 . S
C3031 H3053 0.950 . S
C3032 H3028 0.949 . S
C3032 C3040 1.574 . S
C3032 C3048 1.368 . S
H3033 C3041 0.950 . S
H3034 C3039 0.950 . S
H3035 C3040 0.949 . S
H3036 C3042 0.950 . S
H3037 C3043 0.950 . S
H3038 C3044 0.949 . S
C3039 H3034 0.950 . S
C3039 C3041 1.327 . S
C3039 C3045 1.429 . S
C3040 C3032 1.574 . S
C3040 H3035 0.949 . S
C3040 C3046 1.368 . S
C3041 C3025 1.349 . S
C3041 H3033 0.950 . S
C3041 C3039 1.327 . S
C3042 C3030 1.349 . S
C3042 H3036 0.950 . S
C3042 C3043 1.327 . S
C3043 H3037 0.950 . S
C3043 C3042 1.327 . S
C3043 C3047 1.429 . S
C3044 C3027 1.574 . S
C3044 H3038 0.949 . S
C3044 C3048 1.368 . S
C3045 C3026 1.429 . S
C3045 C3039 1.429 . S
C3045 C3046 1.523 . S
C3046 C3027 1.368 . S
C3046 C3040 1.368 . S
C3046 C3045 1.523 . S
C3047 C3031 1.429 . S
C3047 C3043 1.429 . S
C3047 C3048 1.523 . S
C3048 C3032 1.368 . S
C3048 C3044 1.368 . S
C3048 C3047 1.523 . S
H3049 C3024 0.950 . S
H3050 C3026 0.950 . S
H3051 C3027 0.949 . S
H3052 C3029 0.950 . S
H3053 C3031 0.950 . S
C3054 C3055 1.349 . S
C3054 C3056 1.327 . S
C3054 H3079 0.950 . S
C3055 C3054 1.349 . S
C3055 C3071 1.349 . S
C3056 C3054 1.327 . S
C3056 C3075 1.429 . S
C3056 H3080 0.950 . S
C3057 C3074 1.574 . S
C3057 C3076 1.368 . S
C3057 H3081 0.949 . S
H3058 C3062 0.949 . S
C3059 C3060 1.349 . S
C3059 C3061 1.327 . S
C3059 H3082 0.950 . S
C3060 C3059 1.349 . S
C3060 C3072 1.349 . S
C3061 C3059 1.327 . S
C3061 C3077 1.429 . S
C3061 H3083 0.950 . S
C3062 H3058 0.949 . S
C3062 C3070 1.574 . S
C3062 C3078 1.368 . S
H3063 C3071 0.950 . S
H3064 C3069 0.950 . S
H3065 C3070 0.949 . S
H3066 C3072 0.950 . S
H3067 C3073 0.950 . S
H3068 C3074 0.949 . S
C3069 H3064 0.950 . S
C3069 C3071 1.327 . S
C3069 C3075 1.429 . S
C3070 C3062 1.574 . S
C3070 H3065 0.949 . S
C3070 C3076 1.368 . S
C3071 C3055 1.349 . S
C3071 H3063 0.950 . S
C3071 C3069 1.327 . S
C3072 C3060 1.349 . S
C3072 H3066 0.950 . S
C3072 C3073 1.327 . S
C3073 H3067 0.950 . S
C3073 C3072 1.327 . S
C3073 C3077 1.429 . S
C3074 C3057 1.574 . S
C3074 H3068 0.949 . S
C3074 C3078 1.368 . S
C3075 C3056 1.429 . S
C3075 C3069 1.429 . S
C3075 C3076 1.523 . S
C3076 C3057 1.368 . S
C3076 C3070 1.368 . S
C3076 C3075 1.523 . S
C3077 C3061 1.429 . S
C3077 C3073 1.429 . S
C3077 C3078 1.523 . S
C3078 C3062 1.368 . S
C3078 C3074 1.368 . S
C3078 C3077 1.523 . S
H3079 C3054 0.950 . S
H3080 C3056 0.950 . S
H3081 C3057 0.949 . S
H3082 C3059 0.950 . S
H3083 C3061 0.950 . S
C3084 C3085 1.349 . S
C3084 C3086 1.327 . S
C3084 H3109 0.950 . S
C3085 C3084 1.349 . S
C3085 C3101 1.349 . S
C3086 C3084 1.327 . S
C3086 C3105 1.429 . S
C3086 H3110 0.950 . S
C3087 C3104 1.574 . S
C3087 C3106 1.368 . S
C3087 H3111 0.949 . S
H3088 C3092 0.949 . S
C3089 C3090 1.349 . S
C3089 C3091 1.327 . S
C3089 H3112 0.950 . S
C3090 C3089 1.349 . S
C3090 C3102 1.349 . S
C3091 C3089 1.327 . S
C3091 C3107 1.429 . S
C3091 H3113 0.950 . S
C3092 H3088 0.949 . S
C3092 C3100 1.574 . S
C3092 C3108 1.368 . S
H3093 C3101 0.950 . S
H3094 C3099 0.950 . S
H3095 C3100 0.949 . S
H3096 C3102 0.950 . S
H3097 C3103 0.950 . S
H3098 C3104 0.949 . S
C3099 H3094 0.950 . S
C3099 C3101 1.327 . S
C3099 C3105 1.429 . S
C3100 C3092 1.574 . S
C3100 H3095 0.949 . S
C3100 C3106 1.368 . S
C3101 C3085 1.349 . S
C3101 H3093 0.950 . S
C3101 C3099 1.327 . S
C3102 C3090 1.349 . S
C3102 H3096 0.950 . S
C3102 C3103 1.327 . S
C3103 H3097 0.950 . S
C3103 C3102 1.327 . S
C3103 C3107 1.429 . S
C3104 C3087 1.574 . S
C3104 H3098 0.949 . S
C3104 C3108 1.368 . S
C3105 C3086 1.429 . S
C3105 C3099 1.429 . S
C3105 C3106 1.523 . S
C3106 C3087 1.368 . S
C3106 C3100 1.368 . S
C3106 C3105 1.523 . S
C3107 C3091 1.429 . S
C3107 C3103 1.429 . S
C3107 C3108 1.523 . S
C3108 C3092 1.368 . S
C3108 C3104 1.368 . S
C3108 C3107 1.523 . S
H3109 C3084 0.950 . S
H3110 C3086 0.950 . S
H3111 C3087 0.949 . S
H3112 C3089 0.950 . S
H3113 C3091 0.950 . S
C3114 C3115 1.349 . S
C3114 C3116 1.327 . S
C3114 H3139 0.950 . S
C3115 C3114 1.349 . S
C3115 C3131 1.349 . S
C3116 C3114 1.327 . S
C3116 C3135 1.429 . S
C3116 H3140 0.950 . S
C3117 C3134 1.574 . S
C3117 C3136 1.368 . S
C3117 H3141 0.949 . S
H3118 C3122 0.949 . S
C3119 C3120 1.349 . S
C3119 C3121 1.327 . S
C3119 H3142 0.950 . S
C3120 C3119 1.349 . S
C3120 C3132 1.349 . S
C3121 C3119 1.327 . S
C3121 C3137 1.429 . S
C3121 H3143 0.950 . S
C3122 H3118 0.949 . S
C3122 C3130 1.574 . S
C3122 C3138 1.368 . S
H3123 C3131 0.950 . S
H3124 C3129 0.950 . S
H3125 C3130 0.949 . S
H3126 C3132 0.950 . S
H3127 C3133 0.950 . S
H3128 C3134 0.949 . S
C3129 H3124 0.950 . S
C3129 C3131 1.327 . S
C3129 C3135 1.429 . S
C3130 C3122 1.574 . S
C3130 H3125 0.949 . S
C3130 C3136 1.368 . S
C3131 C3115 1.349 . S
C3131 H3123 0.950 . S
C3131 C3129 1.327 . S
C3132 C3120 1.349 . S
C3132 H3126 0.950 . S
C3132 C3133 1.327 . S
C3133 H3127 0.950 . S
C3133 C3132 1.327 . S
C3133 C3137 1.429 . S
C3134 C3117 1.574 . S
C3134 H3128 0.949 . S
C3134 C3138 1.368 . S
C3135 C3116 1.429 . S
C3135 C3129 1.429 . S
C3135 C3136 1.523 . S
C3136 C3117 1.368 . S
C3136 C3130 1.368 . S
C3136 C3135 1.523 . S
C3137 C3121 1.429 . S
C3137 C3133 1.429 . S
C3137 C3138 1.523 . S
C3138 C3122 1.368 . S
C3138 C3134 1.368 . S
C3138 C3137 1.523 . S
H3139 C3114 0.950 . S
H3140 C3116 0.950 . S
H3141 C3117 0.949 . S
H3142 C3119 0.950 . S
H3143 C3121 0.950 . S
C3144 C3145 1.349 . S
C3144 C3146 1.327 . S
C3144 H3169 0.950 . S
C3145 C3144 1.349 . S
C3145 C3161 1.349 . S
C3146 C3144 1.327 . S
C3146 C3165 1.429 . S
C3146 H3170 0.950 . S
C3147 C3164 1.574 . S
C3147 C3166 1.368 . S
C3147 H3171 0.949 . S
H3148 C3152 0.949 . S
C3149 C3150 1.349 . S
C3149 C3151 1.327 . S
C3149 H3172 0.950 . S
C3150 C3149 1.349 . S
C3150 C3162 1.349 . S
C3151 C3149 1.327 . S
C3151 C3167 1.429 . S
C3151 H3173 0.950 . S
C3152 H3148 0.949 . S
C3152 C3160 1.574 . S
C3152 C3168 1.368 . S
H3153 C3161 0.950 . S
H3154 C3159 0.950 . S
H3155 C3160 0.949 . S
H3156 C3162 0.950 . S
H3157 C3163 0.950 . S
H3158 C3164 0.949 . S
C3159 H3154 0.950 . S
C3159 C3161 1.327 . S
C3159 C3165 1.429 . S
C3160 C3152 1.574 . S
C3160 H3155 0.949 . S
C3160 C3166 1.368 . S
C3161 C3145 1.349 . S
C3161 H3153 0.950 . S
C3161 C3159 1.327 . S
C3162 C3150 1.349 . S
C3162 H3156 0.950 . S
C3162 C3163 1.327 . S
C3163 H3157 0.950 . S
C3163 C3162 1.327 . S
C3163 C3167 1.429 . S
C3164 C3147 1.574 . S
C3164 H3158 0.949 . S
C3164 C3168 1.368 . S
C3165 C3146 1.429 . S
C3165 C3159 1.429 . S
C3165 C3166 1.523 . S
C3166 C3147 1.368 . S
C3166 C3160 1.368 . S
C3166 C3165 1.523 . S
C3167 C3151 1.429 . S
C3167 C3163 1.429 . S
C3167 C3168 1.523 . S
C3168 C3152 1.368 . S
C3168 C3164 1.368 . S
C3168 C3167 1.523 . S
H3169 C3144 0.950 . S
H3170 C3146 0.950 . S
H3171 C3147 0.949 . S
H3172 C3149 0.950 . S
H3173 C3151 0.950 . S
C3174 C3175 1.349 . S
C3174 C3176 1.327 . S
C3174 H3199 0.950 . S
C3175 C3174 1.349 . S
C3175 C3191 1.349 . S
C3176 C3174 1.327 . S
C3176 C3195 1.429 . S
C3176 H3200 0.950 . S
C3177 C3194 1.574 . S
C3177 C3196 1.368 . S
C3177 H3201 0.949 . S
H3178 C3182 0.949 . S
C3179 C3180 1.349 . S
C3179 C3181 1.327 . S
C3179 H3202 0.950 . S
C3180 C3179 1.349 . S
C3180 C3192 1.349 . S
C3181 C3179 1.327 . S
C3181 C3197 1.429 . S
C3181 H3203 0.950 . S
C3182 H3178 0.949 . S
C3182 C3190 1.574 . S
C3182 C3198 1.368 . S
H3183 C3191 0.950 . S
H3184 C3189 0.950 . S
H3185 C3190 0.949 . S
H3186 C3192 0.950 . S
H3187 C3193 0.950 . S
H3188 C3194 0.949 . S
C3189 H3184 0.950 . S
C3189 C3191 1.327 . S
C3189 C3195 1.429 . S
C3190 C3182 1.574 . S
C3190 H3185 0.949 . S
C3190 C3196 1.368 . S
C3191 C3175 1.349 . S
C3191 H3183 0.950 . S
C3191 C3189 1.327 . S
C3192 C3180 1.349 . S
C3192 H3186 0.950 . S
C3192 C3193 1.327 . S
C3193 H3187 0.950 . S
C3193 C3192 1.327 . S
C3193 C3197 1.429 . S
C3194 C3177 1.574 . S
C3194 H3188 0.949 . S
C3194 C3198 1.368 . S
C3195 C3176 1.429 . S
C3195 C3189 1.429 . S
C3195 C3196 1.523 . S
C3196 C3177 1.368 . S
C3196 C3190 1.368 . S
C3196 C3195 1.523 . S
C3197 C3181 1.429 . S
C3197 C3193 1.429 . S
C3197 C3198 1.523 . S
C3198 C3182 1.368 . S
C3198 C3194 1.368 . S
C3198 C3197 1.523 . S
H3199 C3174 0.950 . S
H3200 C3176 0.950 . S
H3201 C3177 0.949 . S
H3202 C3179 0.950 . S
H3203 C3181 0.950 . S
C3204 C3205 1.349 . S
C3204 C3206 1.327 . S
C3204 H3229 0.950 . S
C3205 C3204 1.349 . S
C3205 C3221 1.349 . S
C3206 C3204 1.327 . S
C3206 C3225 1.429 . S
C3206 H3230 0.950 . S
C3207 C3224 1.574 . S
C3207 C3226 1.368 . S
C3207 H3231 0.949 . S
H3208 C3212 0.949 . S
C3209 C3210 1.349 . S
C3209 C3211 1.327 . S
C3209 H3232 0.950 . S
C3210 C3209 1.349 . S
C3210 C3222 1.349 . S
C3211 C3209 1.327 . S
C3211 C3227 1.429 . S
C3211 H3233 0.950 . S
C3212 H3208 0.949 . S
C3212 C3220 1.574 . S
C3212 C3228 1.368 . S
H3213 C3221 0.950 . S
H3214 C3219 0.950 . S
H3215 C3220 0.949 . S
H3216 C3222 0.950 . S
H3217 C3223 0.950 . S
H3218 C3224 0.949 . S
C3219 H3214 0.950 . S
C3219 C3221 1.327 . S
C3219 C3225 1.429 . S
C3220 C3212 1.574 . S
C3220 H3215 0.949 . S
C3220 C3226 1.368 . S
C3221 C3205 1.349 . S
C3221 H3213 0.950 . S
C3221 C3219 1.327 . S
C3222 C3210 1.349 . S
C3222 H3216 0.950 . S
C3222 C3223 1.327 . S
C3223 H3217 0.950 . S
C3223 C3222 1.327 . S
C3223 C3227 1.429 . S
C3224 C3207 1.574 . S
C3224 H3218 0.949 . S
C3224 C3228 1.368 . S
C3225 C3206 1.429 . S
C3225 C3219 1.429 . S
C3225 C3226 1.523 . S
C3226 C3207 1.368 . S
C3226 C3220 1.368 . S
C3226 C3225 1.523 . S
C3227 C3211 1.429 . S
C3227 C3223 1.429 . S
C3227 C3228 1.523 . S
C3228 C3212 1.368 . S
C3228 C3224 1.368 . S
C3228 C3227 1.523 . S
H3229 C3204 0.950 . S
H3230 C3206 0.950 . S
H3231 C3207 0.949 . S
H3232 C3209 0.950 . S
H3233 C3211 0.950 . S
C3234 C3235 1.349 . S
C3234 C3236 1.327 . S
C3234 H3259 0.950 . S
C3235 C3234 1.349 . S
C3235 C3251 1.349 . S
C3236 C3234 1.327 . S
C3236 C3255 1.429 . S
C3236 H3260 0.950 . S
C3237 C3254 1.548 1_565 S
C3237 C3256 1.368 . S
C3237 H3261 0.949 . S
H3238 C3242 0.949 . S
C3239 C3240 1.349 . S
C3239 C3241 1.327 . S
C3239 H3262 0.950 . S
C3240 C3239 1.349 . S
C3240 C3252 1.349 . S
C3241 C3239 1.327 . S
C3241 C3257 1.429 . S
C3241 H3263 0.950 . S
C3242 H3238 0.949 . S
C3242 C3250 1.548 1_545 S
C3242 C3258 1.368 . S
H3243 C3251 0.950 . S
H3244 C3249 0.950 . S
H3245 C3250 0.971 . S
H3246 C3252 0.950 . S
H3247 C3253 0.950 . S
H3248 C3254 0.971 . S
C3249 H3244 0.950 . S
C3249 C3251 1.327 . S
C3249 C3255 1.429 . S
C3250 C3242 1.548 1_565 S
C3250 H3245 0.971 . S
C3250 C3256 1.373 . S
C3251 C3235 1.349 . S
C3251 H3243 0.950 . S
C3251 C3249 1.327 . S
C3252 C3240 1.349 . S
C3252 H3246 0.950 . S
C3252 C3253 1.327 . S
C3253 H3247 0.950 . S
C3253 C3252 1.327 . S
C3253 C3257 1.429 . S
C3254 C3237 1.548 1_545 S
C3254 H3248 0.971 . S
C3254 C3258 1.373 . S
C3255 C3236 1.429 . S
C3255 C3249 1.429 . S
C3255 C3256 1.523 . S
C3256 C3237 1.368 . S
C3256 C3250 1.373 . S
C3256 C3255 1.523 . S
C3257 C3241 1.429 . S
C3257 C3253 1.429 . S
C3257 C3258 1.523 . S
C3258 C3242 1.368 . S
C3258 C3254 1.373 . S
C3258 C3257 1.523 . S
H3259 C3234 0.950 . S
H3260 C3236 0.950 . S
H3261 C3237 0.949 . S
H3262 C3239 0.950 . S
H3263 C3241 0.950 . S
C3264 C3265 1.349 . S
C3264 C3266 1.327 . S
C3264 H3289 0.950 . S
C3265 C3264 1.349 . S
C3265 C3281 1.349 . S
C3266 C3264 1.327 . S
C3266 C3285 1.429 . S
C3266 H3290 0.950 . S
C3267 C3284 1.567 1_655 S
C3267 C3286 1.380 . S
C3267 H3291 0.962 . S
H3268 C3272 0.962 . S
C3269 C3270 1.349 . S
C3269 C3271 1.327 . S
C3269 H3292 0.950 . S
C3270 C3269 1.349 . S
C3270 C3282 1.349 . S
C3271 C3269 1.327 . S
C3271 C3287 1.429 . S
C3271 H3293 0.950 . S
C3272 H3268 0.962 . S
C3272 C3280 1.566 1_455 S
C3272 C3288 1.381 . S
H3273 C3281 0.950 . S
H3274 C3279 0.950 . S
H3275 C3280 0.949 . S
H3276 C3282 0.950 . S
H3277 C3283 0.950 . S
H3278 C3284 0.949 . S
C3279 H3274 0.950 . S
C3279 C3281 1.327 . S
C3279 C3285 1.429 . S
C3280 C3272 1.566 1_655 S
C3280 H3275 0.949 . S
C3280 C3286 1.368 . S
C3281 C3265 1.349 . S
C3281 H3273 0.950 . S
C3281 C3279 1.327 . S
C3282 C3270 1.349 . S
C3282 H3276 0.950 . S
C3282 C3283 1.327 . S
C3283 H3277 0.950 . S
C3283 C3282 1.327 . S
C3283 C3287 1.429 . S
C3284 C3267 1.567 1_455 S
C3284 H3278 0.949 . S
C3284 C3288 1.368 . S
C3285 C3266 1.429 . S
C3285 C3279 1.429 . S
C3285 C3286 1.523 . S
C3286 C3267 1.380 . S
C3286 C3280 1.368 . S
C3286 C3285 1.523 . S
C3287 C3271 1.429 . S
C3287 C3283 1.429 . S
C3287 C3288 1.523 . S
C3288 C3272 1.381 . S
C3288 C3284 1.368 . S
C3288 C3287 1.523 . S
H3289 C3264 0.950 . S
H3290 C3266 0.950 . S
H3291 C3267 0.962 . S
H3292 C3269 0.950 . S
H3293 C3271 0.950 . S
C3294 C3295 1.349 . S
C3294 C3296 1.327 . S
C3294 H3319 0.950 . S
C3295 C3294 1.349 . S
C3295 C3311 1.349 . S
C3296 C3294 1.327 . S
C3296 C3315 1.429 . S
C3296 H3320 0.950 . S
C3297 C3314 1.574 . S
C3297 C3316 1.368 . S
C3297 H3321 0.949 . S
H3298 C3302 0.949 . S
C3299 C3300 1.349 . S
C3299 C3301 1.327 . S
C3299 H3322 0.950 . S
C3300 C3299 1.349 . S
C3300 C3312 1.349 . S
C3301 C3299 1.327 . S
C3301 C3317 1.429 . S
C3301 H3323 0.950 . S
C3302 H3298 0.949 . S
C3302 C3310 1.574 . S
C3302 C3318 1.368 . S
H3303 C3311 0.950 . S
H3304 C3309 0.950 . S
H3305 C3310 0.949 . S
H3306 C3312 0.950 . S
H3307 C3313 0.950 . S
H3308 C3314 0.949 . S
C3309 H3304 0.950 . S
C3309 C3311 1.327 . S
C3309 C3315 1.429 . S
C3310 C3302 1.574 . S
C3310 H3305 0.949 . S
C3310 C3316 1.368 . S
C3311 C3295 1.349 . S
C3311 H3303 0.950 . S
C3311 C3309 1.327 . S
C3312 C3300 1.349 . S
C3312 H3306 0.950 . S
C3312 C3313 1.327 . S
C3313 H3307 0.950 . S
C3313 C3312 1.327 . S
C3313 C3317 1.429 . S
C3314 C3297 1.574 . S
C3314 H3308 0.949 . S
C3314 C3318 1.368 . S
C3315 C3296 1.429 . S
C3315 C3309 1.429 . S
C3315 C3316 1.523 . S
C3316 C3297 1.368 . S
C3316 C3310 1.368 . S
C3316 C3315 1.523 . S
C3317 C3301 1.429 . S
C3317 C3313 1.429 . S
C3317 C3318 1.523 . S
C3318 C3302 1.368 . S
C3318 C3314 1.368 . S
C3318 C3317 1.523 . S
H3319 C3294 0.950 . S
H3320 C3296 0.950 . S
H3321 C3297 0.949 . S
H3322 C3299 0.950 . S
H3323 C3301 0.950 . S
C3324 C3325 1.349 . S
C3324 C3326 1.327 . S
C3324 H3349 0.950 . S
C3325 C3324 1.349 . S
C3325 C3341 1.349 . S
C3326 C3324 1.327 . S
C3326 C3345 1.429 . S
C3326 H3350 0.950 . S
C3327 C3344 1.601 . S
C3327 C3346 1.361 1_565 S
C3327 H3351 0.954 . S
H3328 C3332 0.954 . S
C3329 C3330 1.349 . S
C3329 C3331 1.327 . S
C3329 H3352 0.950 . S
C3330 C3329 1.349 . S
C3330 C3342 1.349 . S
C3331 C3329 1.327 . S
C3331 C3347 1.429 . S
C3331 H3353 0.950 . S
C3332 H3328 0.954 . S
C3332 C3340 1.601 . S
C3332 C3348 1.361 1_545 S
H3333 C3341 0.950 . S
H3334 C3339 0.950 . S
H3335 C3340 0.949 . S
H3336 C3342 0.950 . S
H3337 C3343 0.950 . S
H3338 C3344 0.949 . S
C3339 H3334 0.950 . S
C3339 C3341 1.327 . S
C3339 C3345 1.429 . S
C3340 C3332 1.601 . S
C3340 H3335 0.949 . S
C3340 C3346 1.368 . S
C3341 C3325 1.349 . S
C3341 H3333 0.950 . S
C3341 C3339 1.327 . S
C3342 C3330 1.349 . S
C3342 H3336 0.950 . S
C3342 C3343 1.327 . S
C3343 H3337 0.950 . S
C3343 C3342 1.327 . S
C3343 C3347 1.429 . S
C3344 C3327 1.601 . S
C3344 H3338 0.949 . S
C3344 C3348 1.368 . S
C3345 C3326 1.429 . S
C3345 C3339 1.429 . S
C3345 C3346 1.523 . S
C3346 C3327 1.361 1_545 S
C3346 C3340 1.368 . S
C3346 C3345 1.523 . S
C3347 C3331 1.429 . S
C3347 C3343 1.429 . S
C3347 C3348 1.523 . S
C3348 C3332 1.361 1_565 S
C3348 C3344 1.368 . S
C3348 C3347 1.523 . S
H3349 C3324 0.950 . S
H3350 C3326 0.950 . S
H3351 C3327 0.954 . S
H3352 C3329 0.950 . S
H3353 C3331 0.950 . S
C3354 C3355 1.349 . S
C3354 C3356 1.327 . S
C3354 H3379 0.950 . S
C3355 C3354 1.349 . S
C3355 C3371 1.349 . S
C3356 C3354 1.327 . S
C3356 C3375 1.429 . S
C3356 H3380 0.950 . S
C3357 C3374 1.574 . S
C3357 C3376 1.368 1_455 S
C3357 H3381 0.949 . S
H3358 C3362 0.949 . S
C3359 C3360 1.349 . S
C3359 C3361 1.327 . S
C3359 H3382 0.950 . S
C3360 C3359 1.349 . S
C3360 C3372 1.349 . S
C3361 C3359 1.327 . S
C3361 C3377 1.429 . S
C3361 H3383 0.950 . S
C3362 H3358 0.949 . S
C3362 C3370 1.574 . S
C3362 C3378 1.368 1_655 S
H3363 C3371 0.950 . S
H3364 C3369 0.950 . S
H3365 C3370 0.949 . S
H3366 C3372 0.950 . S
H3367 C3373 0.950 . S
H3368 C3374 0.949 . S
C3369 H3364 0.950 . S
C3369 C3371 1.327 . S
C3369 C3375 1.429 . S
C3370 C3362 1.574 . S
C3370 H3365 0.949 . S
C3370 C3376 1.368 . S
C3371 C3355 1.349 . S
C3371 H3363 0.950 . S
C3371 C3369 1.327 . S
C3372 C3360 1.349 . S
C3372 H3366 0.950 . S
C3372 C3373 1.327 . S
C3373 H3367 0.950 . S
C3373 C3372 1.327 . S
C3373 C3377 1.429 . S
C3374 C3357 1.574 . S
C3374 H3368 0.949 . S
C3374 C3378 1.368 . S
C3375 C3356 1.429 . S
C3375 C3369 1.429 . S
C3375 C3376 1.523 . S
C3376 C3357 1.368 1_655 S
C3376 C3370 1.368 . S
C3376 C3375 1.523 . S
C3377 C3361 1.429 . S
C3377 C3373 1.429 . S
C3377 C3378 1.523 . S
C3378 C3362 1.368 1_455 S
C3378 C3374 1.368 . S
C3378 C3377 1.523 . S
H3379 C3354 0.950 . S
H3380 C3356 0.950 . S
H3381 C3357 0.949 . S
H3382 C3359 0.950 . S
H3383 C3361 0.950 . S
C3384 C3385 1.349 . S
C3384 C3386 1.327 . S
C3384 H3409 0.950 . S
C3385 C3384 1.349 . S
C3385 C3401 1.349 . S
C3386 C3384 1.327 . S
C3386 C3405 1.429 . S
C3386 H3410 0.950 . S
C3387 C3404 1.574 . S
C3387 C3406 1.368 . S
C3387 H3411 0.949 . S
H3388 C3392 0.949 . S
C3389 C3390 1.349 . S
C3389 C3391 1.327 . S
C3389 H3412 0.950 . S
C3390 C3389 1.349 . S
C3390 C3402 1.349 . S
C3391 C3389 1.327 . S
C3391 C3407 1.429 . S
C3391 H3413 0.950 . S
C3392 H3388 0.949 . S
C3392 C3400 1.574 . S
C3392 C3408 1.368 . S
H3393 C3401 0.950 . S
H3394 C3399 0.950 . S
H3395 C3400 0.949 . S
H3396 C3402 0.950 . S
H3397 C3403 0.950 . S
H3398 C3404 0.949 . S
C3399 H3394 0.950 . S
C3399 C3401 1.327 . S
C3399 C3405 1.429 . S
C3400 C3392 1.574 . S
C3400 H3395 0.949 . S
C3400 C3406 1.368 . S
C3401 C3385 1.349 . S
C3401 H3393 0.950 . S
C3401 C3399 1.327 . S
C3402 C3390 1.349 . S
C3402 H3396 0.950 . S
C3402 C3403 1.327 . S
C3403 H3397 0.950 . S
C3403 C3402 1.327 . S
C3403 C3407 1.429 . S
C3404 C3387 1.574 . S
C3404 H3398 0.949 . S
C3404 C3408 1.368 . S
C3405 C3386 1.429 . S
C3405 C3399 1.429 . S
C3405 C3406 1.523 . S
C3406 C3387 1.368 . S
C3406 C3400 1.368 . S
C3406 C3405 1.523 . S
C3407 C3391 1.429 . S
C3407 C3403 1.429 . S
C3407 C3408 1.523 . S
C3408 C3392 1.368 . S
C3408 C3404 1.368 . S
C3408 C3407 1.523 . S
H3409 C3384 0.950 . S
H3410 C3386 0.950 . S
H3411 C3387 0.949 . S
H3412 C3389 0.950 . S
H3413 C3391 0.950 . S
C3414 C3415 1.349 . S
C3414 C3416 1.327 . S
C3414 H3439 0.950 . S
C3415 C3414 1.349 . S
C3415 C3431 1.349 . S
C3416 C3414 1.327 . S
C3416 C3435 1.429 . S
C3416 H3440 0.950 . S
C3417 C3434 1.574 . S
C3417 C3436 1.368 . S
C3417 H3441 0.949 . S
H3418 C3422 0.949 . S
C3419 C3420 1.349 . S
C3419 C3421 1.327 . S
C3419 H3442 0.950 . S
C3420 C3419 1.349 . S
C3420 C3432 1.349 . S
C3421 C3419 1.327 . S
C3421 C3437 1.429 . S
C3421 H3443 0.950 . S
C3422 H3418 0.949 . S
C3422 C3430 1.574 . S
C3422 C3438 1.368 . S
H3423 C3431 0.950 . S
H3424 C3429 0.950 . S
H3425 C3430 0.949 . S
H3426 C3432 0.950 . S
H3427 C3433 0.950 . S
H3428 C3434 0.949 . S
C3429 H3424 0.950 . S
C3429 C3431 1.327 . S
C3429 C3435 1.429 . S
C3430 C3422 1.574 . S
C3430 H3425 0.949 . S
C3430 C3436 1.368 . S
C3431 C3415 1.349 . S
C3431 H3423 0.950 . S
C3431 C3429 1.327 . S
C3432 C3420 1.349 . S
C3432 H3426 0.950 . S
C3432 C3433 1.327 . S
C3433 H3427 0.950 . S
C3433 C3432 1.327 . S
C3433 C3437 1.429 . S
C3434 C3417 1.574 . S
C3434 H3428 0.949 . S
C3434 C3438 1.368 . S
C3435 C3416 1.429 . S
C3435 C3429 1.429 . S
C3435 C3436 1.523 . S
C3436 C3417 1.368 . S
C3436 C3430 1.368 . S
C3436 C3435 1.523 . S
C3437 C3421 1.429 . S
C3437 C3433 1.429 . S
C3437 C3438 1.523 . S
C3438 C3422 1.368 . S
C3438 C3434 1.368 . S
C3438 C3437 1.523 . S
H3439 C3414 0.950 . S
H3440 C3416 0.950 . S
H3441 C3417 0.949 . S
H3442 C3419 0.950 . S
H3443 C3421 0.950 . S
C3444 C3445 1.349 . S
C3444 C3446 1.327 . S
C3444 H3469 0.950 . S
C3445 C3444 1.349 . S
C3445 C3461 1.349 . S
C3446 C3444 1.327 . S
C3446 C3465 1.429 . S
C3446 H3470 0.950 . S
C3447 C3464 1.574 . S
C3447 C3466 1.368 . S
C3447 H3471 0.949 . S
H3448 C3452 0.949 . S
C3449 C3450 1.349 . S
C3449 C3451 1.327 . S
C3449 H3472 0.950 . S
C3450 C3449 1.349 . S
C3450 C3462 1.349 . S
C3451 C3449 1.327 . S
C3451 C3467 1.429 . S
C3451 H3473 0.950 . S
C3452 H3448 0.949 . S
C3452 C3460 1.574 . S
C3452 C3468 1.368 . S
H3453 C3461 0.950 . S
H3454 C3459 0.950 . S
H3455 C3460 0.949 . S
H3456 C3462 0.950 . S
H3457 C3463 0.950 . S
H3458 C3464 0.949 . S
C3459 H3454 0.950 . S
C3459 C3461 1.327 . S
C3459 C3465 1.429 . S
C3460 C3452 1.574 . S
C3460 H3455 0.949 . S
C3460 C3466 1.368 . S
C3461 C3445 1.349 . S
C3461 H3453 0.950 . S
C3461 C3459 1.327 . S
C3462 C3450 1.349 . S
C3462 H3456 0.950 . S
C3462 C3463 1.327 . S
C3463 H3457 0.950 . S
C3463 C3462 1.327 . S
C3463 C3467 1.429 . S
C3464 C3447 1.574 . S
C3464 H3458 0.949 . S
C3464 C3468 1.368 . S
C3465 C3446 1.429 . S
C3465 C3459 1.429 . S
C3465 C3466 1.523 . S
C3466 C3447 1.368 . S
C3466 C3460 1.368 . S
C3466 C3465 1.523 . S
C3467 C3451 1.429 . S
C3467 C3463 1.429 . S
C3467 C3468 1.523 . S
C3468 C3452 1.368 . S
C3468 C3464 1.368 . S
C3468 C3467 1.523 . S
H3469 C3444 0.950 . S
H3470 C3446 0.950 . S
H3471 C3447 0.949 . S
H3472 C3449 0.950 . S
H3473 C3451 0.950 . S
C3474 C3475 1.333 1_554 S
C3474 C3476 1.327 . S
C3474 H3499 0.950 . S
C3475 C3474 1.333 1_556 S
C3475 C3491 1.351 . S
C3476 C3474 1.327 . S
C3476 C3495 1.429 . S
C3476 H3500 0.950 . S
C3477 C3494 1.574 . S
C3477 C3496 1.368 . S
C3477 H3501 0.949 . S
H3478 C3482 0.949 . S
C3479 C3480 1.349 . S
C3479 C3481 1.327 . S
C3479 H3502 0.950 . S
C3480 C3479 1.349 . S
C3480 C3492 1.349 . S
C3481 C3479 1.327 . S
C3481 C3497 1.429 . S
C3481 H3503 0.950 . S
C3482 H3478 0.949 . S
C3482 C3490 1.574 . S
C3482 C3498 1.368 . S
H3483 C3491 0.950 . S
H3484 C3489 0.950 . S
H3485 C3490 0.949 . S
H3486 C3492 0.950 . S
H3487 C3493 0.950 . S
H3488 C3494 0.949 . S
C3489 H3484 0.950 . S
C3489 C3491 1.327 1_554 S
C3489 C3495 1.429 . S
C3490 C3482 1.574 . S
C3490 H3485 0.949 . S
C3490 C3496 1.368 . S
C3491 C3475 1.351 . S
C3491 H3483 0.950 . S
C3491 C3489 1.327 1_556 S
C3492 C3480 1.349 . S
C3492 H3486 0.950 . S
C3492 C3493 1.327 . S
C3493 H3487 0.950 . S
C3493 C3492 1.327 . S
C3493 C3497 1.429 . S
C3494 C3477 1.574 . S
C3494 H3488 0.949 . S
C3494 C3498 1.368 . S
C3495 C3476 1.429 . S
C3495 C3489 1.429 . S
C3495 C3496 1.523 . S
C3496 C3477 1.368 . S
C3496 C3490 1.368 . S
C3496 C3495 1.523 . S
C3497 C3481 1.429 . S
C3497 C3493 1.429 . S
C3497 C3498 1.523 . S
C3498 C3482 1.368 . S
C3498 C3494 1.368 . S
C3498 C3497 1.523 . S
H3499 C3474 0.950 . S
H3500 C3476 0.950 . S
H3501 C3477 0.949 . S
H3502 C3479 0.950 . S
H3503 C3481 0.950 . S
C3504 C3505 1.335 1_554 S
C3504 C3506 1.327 . S
C3504 H3529 0.950 . S
C3505 C3504 1.335 1_556 S
C3505 C3521 1.349 . S
C3506 C3504 1.327 . S
C3506 C3525 1.429 . S
C3506 H3530 0.950 . S
C3507 C3524 1.574 . S
C3507 C3526 1.368 . S
C3507 H3531 0.949 . S
H3508 C3512 0.949 . S
C3509 C3510 1.349 . S
C3509 C3511 1.327 . S
C3509 H3532 0.950 . S
C3510 C3509 1.349 . S
C3510 C3522 1.349 . S
C3511 C3509 1.327 . S
C3511 C3527 1.429 . S
C3511 H3533 0.950 . S
C3512 H3508 0.949 . S
C3512 C3520 1.574 . S
C3512 C3528 1.368 . S
H3513 C3521 0.950 . S
H3514 C3519 0.950 . S
H3515 C3520 0.949 . S
H3516 C3522 0.950 . S
H3517 C3523 0.950 . S
H3518 C3524 0.949 . S
C3519 H3514 0.950 . S
C3519 C3521 1.327 1_554 S
C3519 C3525 1.429 . S
C3520 C3512 1.574 . S
C3520 H3515 0.949 . S
C3520 C3526 1.368 . S
C3521 C3505 1.349 . S
C3521 H3513 0.950 . S
C3521 C3519 1.327 1_556 S
C3522 C3510 1.349 . S
C3522 H3516 0.950 . S
C3522 C3523 1.327 . S
C3523 H3517 0.950 . S
C3523 C3522 1.327 . S
C3523 C3527 1.429 . S
C3524 C3507 1.574 . S
C3524 H3518 0.949 . S
C3524 C3528 1.368 . S
C3525 C3506 1.429 . S
C3525 C3519 1.429 . S
C3525 C3526 1.523 . S
C3526 C3507 1.368 . S
C3526 C3520 1.368 . S
C3526 C3525 1.523 . S
C3527 C3511 1.429 . S
C3527 C3523 1.429 . S
C3527 C3528 1.523 . S
C3528 C3512 1.368 . S
C3528 C3524 1.368 . S
C3528 C3527 1.523 . S
H3529 C3504 0.950 . S
H3530 C3506 0.950 . S
H3531 C3507 0.949 . S
H3532 C3509 0.950 . S
H3533 C3511 0.950 . S
C3534 C3535 1.344 1_554 S
C3534 C3536 1.327 . S
C3534 H3559 0.950 1_554 S
C3535 C3534 1.344 1_556 S
C3535 C3551 1.341 1_556 S
C3536 C3534 1.327 . S
C3536 C3555 1.429 . S
C3536 H3560 0.950 . S
C3537 C3554 1.574 . S
C3537 C3556 1.368 . S
C3537 H3561 0.949 . S
H3538 C3542 0.949 . S
C3539 C3540 1.349 . S
C3539 C3541 1.327 . S
C3539 H3562 0.950 . S
C3540 C3539 1.349 . S
C3540 C3552 1.349 . S
C3541 C3539 1.327 . S
C3541 C3557 1.429 . S
C3541 H3563 0.950 . S
C3542 H3538 0.949 . S
C3542 C3550 1.574 . S
C3542 C3558 1.368 . S
H3543 C3551 0.950 . S
H3544 C3549 0.950 . S
H3545 C3550 0.949 . S
H3546 C3552 0.950 . S
H3547 C3553 0.950 . S
H3548 C3554 0.949 . S
C3549 H3544 0.950 . S
C3549 C3551 1.327 . S
C3549 C3555 1.429 . S
C3550 C3542 1.574 . S
C3550 H3545 0.949 . S
C3550 C3556 1.368 . S
C3551 C3535 1.341 1_554 S
C3551 H3543 0.950 . S
C3551 C3549 1.327 . S
C3552 C3540 1.349 . S
C3552 H3546 0.950 . S
C3552 C3553 1.327 . S
C3553 H3547 0.950 . S
C3553 C3552 1.327 . S
C3553 C3557 1.429 . S
C3554 C3537 1.574 . S
C3554 H3548 0.949 . S
C3554 C3558 1.368 . S
C3555 C3536 1.429 . S
C3555 C3549 1.429 . S
C3555 C3556 1.523 . S
C3556 C3537 1.368 . S
C3556 C3550 1.368 . S
C3556 C3555 1.523 . S
C3557 C3541 1.429 . S
C3557 C3553 1.429 . S
C3557 C3558 1.523 . S
C3558 C3542 1.368 . S
C3558 C3554 1.368 . S
C3558 C3557 1.523 . S
H3559 C3534 0.950 1_556 S
H3560 C3536 0.950 . S
H3561 C3537 0.949 . S
H3562 C3539 0.950 . S
H3563 C3541 0.950 . S
C3564 C3565 1.344 1_556 S
C3564 C3566 1.327 . S
C3564 H3589 0.950 1_556 S
C3565 C3564 1.344 1_554 S
C3565 C3581 1.340 1_554 S
C3566 C3564 1.327 . S
C3566 C3585 1.429 . S
C3566 H3590 0.950 . S
C3567 C3584 1.574 . S
C3567 C3586 1.368 . S
C3567 H3591 0.949 . S
H3568 C3572 0.949 . S
C3569 C3570 1.349 . S
C3569 C3571 1.327 . S
C3569 H3592 0.950 . S
C3570 C3569 1.349 . S
C3570 C3582 1.349 . S
C3571 C3569 1.327 . S
C3571 C3587 1.429 . S
C3571 H3593 0.950 . S
C3572 H3568 0.949 . S
C3572 C3580 1.574 . S
C3572 C3588 1.368 . S
H3573 C3581 0.950 . S
H3574 C3579 0.950 . S
H3575 C3580 0.949 . S
H3576 C3582 0.950 . S
H3577 C3583 0.950 . S
H3578 C3584 0.949 . S
C3579 H3574 0.950 . S
C3579 C3581 1.327 . S
C3579 C3585 1.429 . S
C3580 C3572 1.574 . S
C3580 H3575 0.949 . S
C3580 C3586 1.368 . S
C3581 C3565 1.340 1_556 S
C3581 H3573 0.950 . S
C3581 C3579 1.327 . S
C3582 C3570 1.349 . S
C3582 H3576 0.950 . S
C3582 C3583 1.327 . S
C3583 H3577 0.950 . S
C3583 C3582 1.327 . S
C3583 C3587 1.429 . S
C3584 C3567 1.574 . S
C3584 H3578 0.949 . S
C3584 C3588 1.368 . S
C3585 C3566 1.429 . S
C3585 C3579 1.429 . S
C3585 C3586 1.523 . S
C3586 C3567 1.368 . S
C3586 C3580 1.368 . S
C3586 C3585 1.523 . S
C3587 C3571 1.429 . S
C3587 C3583 1.429 . S
C3587 C3588 1.523 . S
C3588 C3572 1.368 . S
C3588 C3584 1.368 . S
C3588 C3587 1.523 . S
H3589 C3564 0.950 1_554 S
H3590 C3566 0.950 . S
H3591 C3567 0.949 . S
H3592 C3569 0.950 . S
H3593 C3571 0.950 . S
C3594 C3595 1.349 . S
C3594 C3596 1.327 . S
C3594 H3619 0.950 . S
C3595 C3594 1.349 . S
C3595 C3611 1.349 . S
C3596 C3594 1.327 . S
C3596 C3615 1.429 . S
C3596 H3620 0.950 . S
C3597 C3614 1.574 . S
C3597 C3616 1.368 . S
C3597 H3621 0.949 . S
H3598 C3602 0.949 . S
C3599 C3600 1.337 1_556 S
C3599 C3601 1.327 . S
C3599 H3622 0.950 . S
C3600 C3599 1.337 1_554 S
C3600 C3612 1.347 1_554 S
C3601 C3599 1.327 . S
C3601 C3617 1.429 . S
C3601 H3623 0.950 . S
C3602 H3598 0.949 . S
C3602 C3610 1.574 . S
C3602 C3618 1.368 . S
H3603 C3611 0.950 . S
H3604 C3609 0.950 . S
H3605 C3610 0.949 . S
H3606 C3612 0.950 1_554 S
H3607 C3613 0.950 . S
H3608 C3614 0.949 . S
C3609 H3604 0.950 . S
C3609 C3611 1.327 . S
C3609 C3615 1.429 . S
C3610 C3602 1.574 . S
C3610 H3605 0.949 . S
C3610 C3616 1.368 . S
C3611 C3595 1.349 . S
C3611 H3603 0.950 . S
C3611 C3609 1.327 . S
C3612 C3600 1.347 1_556 S
C3612 H3606 0.950 1_556 S
C3612 C3613 1.327 . S
C3613 H3607 0.950 . S
C3613 C3612 1.327 . S
C3613 C3617 1.429 . S
C3614 C3597 1.574 . S
C3614 H3608 0.949 . S
C3614 C3618 1.368 . S
C3615 C3596 1.429 . S
C3615 C3609 1.429 . S
C3615 C3616 1.523 . S
C3616 C3597 1.368 . S
C3616 C3610 1.368 . S
C3616 C3615 1.523 . S
C3617 C3601 1.429 . S
C3617 C3613 1.429 . S
C3617 C3618 1.523 . S
C3618 C3602 1.368 . S
C3618 C3614 1.368 . S
C3618 C3617 1.523 . S
H3619 C3594 0.950 . S
H3620 C3596 0.950 . S
H3621 C3597 0.949 . S
H3622 C3599 0.950 . S
H3623 C3601 0.950 . S
C3624 C3625 1.351 . S
C3624 C3626 1.327 1_554 S
C3624 H3649 0.950 . S
C3625 C3624 1.351 . S
C3625 C3641 1.333 1_554 S
C3626 C3624 1.327 1_556 S
C3626 C3645 1.429 . S
C3626 H3650 0.950 . S
C3627 C3644 1.574 . S
C3627 C3646 1.368 . S
C3627 H3651 0.949 . S
H3628 C3632 0.949 . S
C3629 C3630 1.349 . S
C3629 C3631 1.327 . S
C3629 H3652 0.950 . S
C3630 C3629 1.349 . S
C3630 C3642 1.349 . S
C3631 C3629 1.327 . S
C3631 C3647 1.429 . S
C3631 H3653 0.950 . S
C3632 H3628 0.949 . S
C3632 C3640 1.574 . S
C3632 C3648 1.368 . S
H3633 C3641 0.950 . S
H3634 C3639 0.950 . S
H3635 C3640 0.949 . S
H3636 C3642 0.950 . S
H3637 C3643 0.950 . S
H3638 C3644 0.949 . S
C3639 H3634 0.950 . S
C3639 C3641 1.327 . S
C3639 C3645 1.429 . S
C3640 C3632 1.574 . S
C3640 H3635 0.949 . S
C3640 C3646 1.368 . S
C3641 C3625 1.333 1_556 S
C3641 H3633 0.950 . S
C3641 C3639 1.327 . S
C3642 C3630 1.349 . S
C3642 H3636 0.950 . S
C3642 C3643 1.327 . S
C3643 H3637 0.950 . S
C3643 C3642 1.327 . S
C3643 C3647 1.429 . S
C3644 C3627 1.574 . S
C3644 H3638 0.949 . S
C3644 C3648 1.368 . S
C3645 C3626 1.429 . S
C3645 C3639 1.429 . S
C3645 C3646 1.523 . S
C3646 C3627 1.368 . S
C3646 C3640 1.368 . S
C3646 C3645 1.523 . S
C3647 C3631 1.429 . S
C3647 C3643 1.429 . S
C3647 C3648 1.523 . S
C3648 C3632 1.368 . S
C3648 C3644 1.368 . S
C3648 C3647 1.523 . S
H3649 C3624 0.950 . S
H3650 C3626 0.950 . S
H3651 C3627 0.949 . S
H3652 C3629 0.950 . S
H3653 C3631 0.950 . S
C3654 C3655 1.349 . S
C3654 C3656 1.327 . S
C3654 H3679 0.950 . S
C3655 C3654 1.349 . S
C3655 C3671 1.349 . S
C3656 C3654 1.327 . S
C3656 C3675 1.429 . S
C3656 H3680 0.950 . S
C3657 C3674 1.574 . S
C3657 C3676 1.368 . S
C3657 H3681 0.949 . S
H3658 C3662 0.949 . S
C3659 C3660 1.349 . S
C3659 C3661 1.327 . S
C3659 H3682 0.950 . S
C3660 C3659 1.349 . S
C3660 C3672 1.349 . S
C3661 C3659 1.327 . S
C3661 C3677 1.429 . S
C3661 H3683 0.950 . S
C3662 H3658 0.949 . S
C3662 C3670 1.574 . S
C3662 C3678 1.368 . S
H3663 C3671 0.950 . S
H3664 C3669 0.950 . S
H3665 C3670 0.949 . S
H3666 C3672 0.950 . S
H3667 C3673 0.950 . S
H3668 C3674 0.949 . S
C3669 H3664 0.950 . S
C3669 C3671 1.327 . S
C3669 C3675 1.429 . S
C3670 C3662 1.574 . S
C3670 H3665 0.949 . S
C3670 C3676 1.368 . S
C3671 C3655 1.349 . S
C3671 H3663 0.950 . S
C3671 C3669 1.327 . S
C3672 C3660 1.349 . S
C3672 H3666 0.950 . S
C3672 C3673 1.327 . S
C3673 H3667 0.950 . S
C3673 C3672 1.327 . S
C3673 C3677 1.429 . S
C3674 C3657 1.574 . S
C3674 H3668 0.949 . S
C3674 C3678 1.368 . S
C3675 C3656 1.429 . S
C3675 C3669 1.429 . S
C3675 C3676 1.523 . S
C3676 C3657 1.368 . S
C3676 C3670 1.368 . S
C3676 C3675 1.523 . S
C3677 C3661 1.429 . S
C3677 C3673 1.429 . S
C3677 C3678 1.523 . S
C3678 C3662 1.368 . S
C3678 C3674 1.368 . S
C3678 C3677 1.523 . S
H3679 C3654 0.950 . S
H3680 C3656 0.950 . S
H3681 C3657 0.949 . S
H3682 C3659 0.950 . S
H3683 C3661 0.950 . S
C3684 C3685 1.349 . S
C3684 C3686 1.327 . S
C3684 H3709 0.950 . S
C3685 C3684 1.349 . S
C3685 C3701 1.349 . S
C3686 C3684 1.327 . S
C3686 C3705 1.429 . S
C3686 H3710 0.950 . S
C3687 C3704 1.574 . S
C3687 C3706 1.368 . S
C3687 H3711 0.949 . S
H3688 C3692 0.949 . S
C3689 C3690 1.349 . S
C3689 C3691 1.327 . S
C3689 H3712 0.950 . S
C3690 C3689 1.349 . S
C3690 C3702 1.349 . S
C3691 C3689 1.327 . S
C3691 C3707 1.429 . S
C3691 H3713 0.950 . S
C3692 H3688 0.949 . S
C3692 C3700 1.574 . S
C3692 C3708 1.368 . S
H3693 C3701 0.950 . S
H3694 C3699 0.950 . S
H3695 C3700 0.949 . S
H3696 C3702 0.950 . S
H3697 C3703 0.950 . S
H3698 C3704 0.949 . S
C3699 H3694 0.950 . S
C3699 C3701 1.327 . S
C3699 C3705 1.429 . S
C3700 C3692 1.574 . S
C3700 H3695 0.949 . S
C3700 C3706 1.368 . S
C3701 C3685 1.349 . S
C3701 H3693 0.950 . S
C3701 C3699 1.327 . S
C3702 C3690 1.349 . S
C3702 H3696 0.950 . S
C3702 C3703 1.327 . S
C3703 H3697 0.950 . S
C3703 C3702 1.327 . S
C3703 C3707 1.429 . S
C3704 C3687 1.574 . S
C3704 H3698 0.949 . S
C3704 C3708 1.368 . S
C3705 C3686 1.429 . S
C3705 C3699 1.429 . S
C3705 C3706 1.523 . S
C3706 C3687 1.368 . S
C3706 C3700 1.368 . S
C3706 C3705 1.523 . S
C3707 C3691 1.429 . S
C3707 C3703 1.429 . S
C3707 C3708 1.523 . S
C3708 C3692 1.368 . S
C3708 C3704 1.368 . S
C3708 C3707 1.523 . S
H3709 C3684 0.950 . S
H3710 C3686 0.950 . S
H3711 C3687 0.949 . S
H3712 C3689 0.950 . S
H3713 C3691 0.950 . S
C3714 C3715 1.349 . S
C3714 C3716 1.327 . S
C3714 H3739 0.950 . S
C3715 C3714 1.349 . S
C3715 C3731 1.349 . S
C3716 C3714 1.327 . S
C3716 C3735 1.429 . S
C3716 H3740 0.950 . S
C3717 C3734 1.574 . S
C3717 C3736 1.368 . S
C3717 H3741 0.949 . S
H3718 C3722 0.949 . S
C3719 C3720 1.349 . S
C3719 C3721 1.327 . S
C3719 H3742 0.950 . S
C3720 C3719 1.349 . S
C3720 C3732 1.349 . S
C3721 C3719 1.327 . S
C3721 C3737 1.429 . S
C3721 H3743 0.950 . S
C3722 H3718 0.949 . S
C3722 C3730 1.574 . S
C3722 C3738 1.368 . S
H3723 C3731 0.950 . S
H3724 C3729 0.950 . S
H3725 C3730 0.949 . S
H3726 C3732 0.950 . S
H3727 C3733 0.950 . S
H3728 C3734 0.949 . S
C3729 H3724 0.950 . S
C3729 C3731 1.327 . S
C3729 C3735 1.429 . S
C3730 C3722 1.574 . S
C3730 H3725 0.949 . S
C3730 C3736 1.368 . S
C3731 C3715 1.349 . S
C3731 H3723 0.950 . S
C3731 C3729 1.327 . S
C3732 C3720 1.349 . S
C3732 H3726 0.950 . S
C3732 C3733 1.327 . S
C3733 H3727 0.950 . S
C3733 C3732 1.327 . S
C3733 C3737 1.429 . S
C3734 C3717 1.574 . S
C3734 H3728 0.949 . S
C3734 C3738 1.368 . S
C3735 C3716 1.429 . S
C3735 C3729 1.429 . S
C3735 C3736 1.523 . S
C3736 C3717 1.368 . S
C3736 C3730 1.368 . S
C3736 C3735 1.523 . S
C3737 C3721 1.429 . S
C3737 C3733 1.429 . S
C3737 C3738 1.523 . S
C3738 C3722 1.368 . S
C3738 C3734 1.368 . S
C3738 C3737 1.523 . S
H3739 C3714 0.950 . S
H3740 C3716 0.950 . S
H3741 C3717 0.949 . S
H3742 C3719 0.950 . S
H3743 C3721 0.950 . S
C3744 C3745 1.349 . S
C3744 C3746 1.327 . S
C3744 H3769 0.950 . S
C3745 C3744 1.349 . S
C3745 C3761 1.349 . S
C3746 C3744 1.327 . S
C3746 C3765 1.429 . S
C3746 H3770 0.950 . S
C3747 C3764 1.574 . S
C3747 C3766 1.368 . S
C3747 H3771 0.949 . S
H3748 C3752 0.949 . S
C3749 C3750 1.349 . S
C3749 C3751 1.327 . S
C3749 H3772 0.950 . S
C3750 C3749 1.349 . S
C3750 C3762 1.349 . S
C3751 C3749 1.327 . S
C3751 C3767 1.429 . S
C3751 H3773 0.950 . S
C3752 H3748 0.949 . S
C3752 C3760 1.574 . S
C3752 C3768 1.368 . S
H3753 C3761 0.950 . S
H3754 C3759 0.950 . S
H3755 C3760 0.949 . S
H3756 C3762 0.950 . S
H3757 C3763 0.950 . S
H3758 C3764 0.949 . S
C3759 H3754 0.950 . S
C3759 C3761 1.327 . S
C3759 C3765 1.429 . S
C3760 C3752 1.574 . S
C3760 H3755 0.949 . S
C3760 C3766 1.368 . S
C3761 C3745 1.349 . S
C3761 H3753 0.950 . S
C3761 C3759 1.327 . S
C3762 C3750 1.349 . S
C3762 H3756 0.950 . S
C3762 C3763 1.327 . S
C3763 H3757 0.950 . S
C3763 C3762 1.327 . S
C3763 C3767 1.429 . S
C3764 C3747 1.574 . S
C3764 H3758 0.949 . S
C3764 C3768 1.368 . S
C3765 C3746 1.429 . S
C3765 C3759 1.429 . S
C3765 C3766 1.523 . S
C3766 C3747 1.368 . S
C3766 C3760 1.368 . S
C3766 C3765 1.523 . S
C3767 C3751 1.429 . S
C3767 C3763 1.429 . S
C3767 C3768 1.523 . S
C3768 C3752 1.368 . S
C3768 C3764 1.368 . S
C3768 C3767 1.523 . S
H3769 C3744 0.950 . S
H3770 C3746 0.950 . S
H3771 C3747 0.949 . S
H3772 C3749 0.950 . S
H3773 C3751 0.950 . S
C3774 C3775 1.349 . S
C3774 C3776 1.327 . S
C3774 H3799 0.950 . S
C3775 C3774 1.349 . S
C3775 C3791 1.349 . S
C3776 C3774 1.327 . S
C3776 C3795 1.429 . S
C3776 H3800 0.950 . S
C3777 C3794 1.574 . S
C3777 C3796 1.368 . S
C3777 H3801 0.949 . S
H3778 C3782 0.949 . S
C3779 C3780 1.349 . S
C3779 C3781 1.327 . S
C3779 H3802 0.950 . S
C3780 C3779 1.349 . S
C3780 C3792 1.349 . S
C3781 C3779 1.327 . S
C3781 C3797 1.429 . S
C3781 H3803 0.950 . S
C3782 H3778 0.949 . S
C3782 C3790 1.574 . S
C3782 C3798 1.368 . S
H3783 C3791 0.950 . S
H3784 C3789 0.950 . S
H3785 C3790 0.949 . S
H3786 C3792 0.950 . S
H3787 C3793 0.950 . S
H3788 C3794 0.949 . S
C3789 H3784 0.950 . S
C3789 C3791 1.327 . S
C3789 C3795 1.429 . S
C3790 C3782 1.574 . S
C3790 H3785 0.949 . S
C3790 C3796 1.368 . S
C3791 C3775 1.349 . S
C3791 H3783 0.950 . S
C3791 C3789 1.327 . S
C3792 C3780 1.349 . S
C3792 H3786 0.950 . S
C3792 C3793 1.327 . S
C3793 H3787 0.950 . S
C3793 C3792 1.327 . S
C3793 C3797 1.429 . S
C3794 C3777 1.574 . S
C3794 H3788 0.949 . S
C3794 C3798 1.368 . S
C3795 C3776 1.429 . S
C3795 C3789 1.429 . S
C3795 C3796 1.523 . S
C3796 C3777 1.368 . S
C3796 C3790 1.368 . S
C3796 C3795 1.523 . S
C3797 C3781 1.429 . S
C3797 C3793 1.429 . S
C3797 C3798 1.523 . S
C3798 C3782 1.368 . S
C3798 C3794 1.368 . S
C3798 C3797 1.523 . S
H3799 C3774 0.950 . S
H3800 C3776 0.950 . S
H3801 C3777 0.949 . S
H3802 C3779 0.950 . S
H3803 C3781 0.950 . S
C3804 C3805 1.349 . S
C3804 C3806 1.327 . S
C3804 H3829 0.950 . S
C3805 C3804 1.349 . S
C3805 C3821 1.349 . S
C3806 C3804 1.327 . S
C3806 C3825 1.429 . S
C3806 H3830 0.950 . S
C3807 C3824 1.574 . S
C3807 C3826 1.368 . S
C3807 H3831 0.949 . S
H3808 C3812 0.949 . S
C3809 C3810 1.349 . S
C3809 C3811 1.327 . S
C3809 H3832 0.950 . S
C3810 C3809 1.349 . S
C3810 C3822 1.349 . S
C3811 C3809 1.327 . S
C3811 C3827 1.429 . S
C3811 H3833 0.950 . S
C3812 H3808 0.949 . S
C3812 C3820 1.574 . S
C3812 C3828 1.368 . S
H3813 C3821 0.950 . S
H3814 C3819 0.950 . S
H3815 C3820 0.949 . S
H3816 C3822 0.950 . S
H3817 C3823 0.950 . S
H3818 C3824 0.949 . S
C3819 H3814 0.950 . S
C3819 C3821 1.327 . S
C3819 C3825 1.429 . S
C3820 C3812 1.574 . S
C3820 H3815 0.949 . S
C3820 C3826 1.368 . S
C3821 C3805 1.349 . S
C3821 H3813 0.950 . S
C3821 C3819 1.327 . S
C3822 C3810 1.349 . S
C3822 H3816 0.950 . S
C3822 C3823 1.327 . S
C3823 H3817 0.950 . S
C3823 C3822 1.327 . S
C3823 C3827 1.429 . S
C3824 C3807 1.574 . S
C3824 H3818 0.949 . S
C3824 C3828 1.368 . S
C3825 C3806 1.429 . S
C3825 C3819 1.429 . S
C3825 C3826 1.523 . S
C3826 C3807 1.368 . S
C3826 C3820 1.368 . S
C3826 C3825 1.523 . S
C3827 C3811 1.429 . S
C3827 C3823 1.429 . S
C3827 C3828 1.523 . S
C3828 C3812 1.368 . S
C3828 C3824 1.368 . S
C3828 C3827 1.523 . S
H3829 C3804 0.950 . S
H3830 C3806 0.950 . S
H3831 C3807 0.949 . S
H3832 C3809 0.950 . S
H3833 C3811 0.950 . S
C3834 C3835 1.349 . S
C3834 C3836 1.327 . S
C3834 H3859 0.950 . S
C3835 C3834 1.349 . S
C3835 C3851 1.349 . S
C3836 C3834 1.327 . S
C3836 C3855 1.429 . S
C3836 H3860 0.950 . S
C3837 C3854 1.574 . S
C3837 C3856 1.368 . S
C3837 H3861 0.949 . S
H3838 C3842 0.949 . S
C3839 C3840 1.349 . S
C3839 C3841 1.327 . S
C3839 H3862 0.950 . S
C3840 C3839 1.349 . S
C3840 C3852 1.349 . S
C3841 C3839 1.327 . S
C3841 C3857 1.429 . S
C3841 H3863 0.950 . S
C3842 H3838 0.949 . S
C3842 C3850 1.574 . S
C3842 C3858 1.368 . S
H3843 C3851 0.950 . S
H3844 C3849 0.950 . S
H3845 C3850 0.949 . S
H3846 C3852 0.950 . S
H3847 C3853 0.950 . S
H3848 C3854 0.949 . S
C3849 H3844 0.950 . S
C3849 C3851 1.327 . S
C3849 C3855 1.429 . S
C3850 C3842 1.574 . S
C3850 H3845 0.949 . S
C3850 C3856 1.368 . S
C3851 C3835 1.349 . S
C3851 H3843 0.950 . S
C3851 C3849 1.327 . S
C3852 C3840 1.349 . S
C3852 H3846 0.950 . S
C3852 C3853 1.327 . S
C3853 H3847 0.950 . S
C3853 C3852 1.327 . S
C3853 C3857 1.429 . S
C3854 C3837 1.574 . S
C3854 H3848 0.949 . S
C3854 C3858 1.368 . S
C3855 C3836 1.429 . S
C3855 C3849 1.429 . S
C3855 C3856 1.523 . S
C3856 C3837 1.368 . S
C3856 C3850 1.368 . S
C3856 C3855 1.523 . S
C3857 C3841 1.429 . S
C3857 C3853 1.429 . S
C3857 C3858 1.523 . S
C3858 C3842 1.368 . S
C3858 C3854 1.368 . S
C3858 C3857 1.523 . S
H3859 C3834 0.950 . S
H3860 C3836 0.950 . S
H3861 C3837 0.949 . S
H3862 C3839 0.950 . S
H3863 C3841 0.950 . S
C3864 C3865 1.349 . S
C3864 C3866 1.327 . S
C3864 H3889 0.950 . S
C3865 C3864 1.349 . S
C3865 C3881 1.349 . S
C3866 C3864 1.327 . S
C3866 C3885 1.429 . S
C3866 H3890 0.950 . S
C3867 C3884 1.574 . S
C3867 C3886 1.368 . S
C3867 H3891 0.949 . S
H3868 C3872 0.949 . S
C3869 C3870 1.349 . S
C3869 C3871 1.327 . S
C3869 H3892 0.950 . S
C3870 C3869 1.349 . S
C3870 C3882 1.349 . S
C3871 C3869 1.327 . S
C3871 C3887 1.429 . S
C3871 H3893 0.950 . S
C3872 H3868 0.949 . S
C3872 C3880 1.574 . S
C3872 C3888 1.368 . S
H3873 C3881 0.950 . S
H3874 C3879 0.950 . S
H3875 C3880 0.949 . S
H3876 C3882 0.950 . S
H3877 C3883 0.950 . S
H3878 C3884 0.949 . S
C3879 H3874 0.950 . S
C3879 C3881 1.327 . S
C3879 C3885 1.429 . S
C3880 C3872 1.574 . S
C3880 H3875 0.949 . S
C3880 C3886 1.368 . S
C3881 C3865 1.349 . S
C3881 H3873 0.950 . S
C3881 C3879 1.327 . S
C3882 C3870 1.349 . S
C3882 H3876 0.950 . S
C3882 C3883 1.327 . S
C3883 H3877 0.950 . S
C3883 C3882 1.327 . S
C3883 C3887 1.429 . S
C3884 C3867 1.574 . S
C3884 H3878 0.949 . S
C3884 C3888 1.368 . S
C3885 C3866 1.429 . S
C3885 C3879 1.429 . S
C3885 C3886 1.523 . S
C3886 C3867 1.368 . S
C3886 C3880 1.368 . S
C3886 C3885 1.523 . S
C3887 C3871 1.429 . S
C3887 C3883 1.429 . S
C3887 C3888 1.523 . S
C3888 C3872 1.368 . S
C3888 C3884 1.368 . S
C3888 C3887 1.523 . S
H3889 C3864 0.950 . S
H3890 C3866 0.950 . S
H3891 C3867 0.949 . S
H3892 C3869 0.950 . S
H3893 C3871 0.950 . S
C3894 C3895 1.349 . S
C3894 C3896 1.327 . S
C3894 H3919 0.950 . S
C3895 C3894 1.349 . S
C3895 C3911 1.349 . S
C3896 C3894 1.327 . S
C3896 C3915 1.429 . S
C3896 H3920 0.950 . S
C3897 C3914 1.574 . S
C3897 C3916 1.368 . S
C3897 H3921 0.949 . S
H3898 C3902 0.949 . S
C3899 C3900 1.349 . S
C3899 C3901 1.327 . S
C3899 H3922 0.950 . S
C3900 C3899 1.349 . S
C3900 C3912 1.349 . S
C3901 C3899 1.327 . S
C3901 C3917 1.429 . S
C3901 H3923 0.950 . S
C3902 H3898 0.949 . S
C3902 C3910 1.574 . S
C3902 C3918 1.368 . S
H3903 C3911 0.950 . S
H3904 C3909 0.950 . S
H3905 C3910 0.949 . S
H3906 C3912 0.950 . S
H3907 C3913 0.950 . S
H3908 C3914 0.949 . S
C3909 H3904 0.950 . S
C3909 C3911 1.327 . S
C3909 C3915 1.429 . S
C3910 C3902 1.574 . S
C3910 H3905 0.949 . S
C3910 C3916 1.368 . S
C3911 C3895 1.349 . S
C3911 H3903 0.950 . S
C3911 C3909 1.327 . S
C3912 C3900 1.349 . S
C3912 H3906 0.950 . S
C3912 C3913 1.327 . S
C3913 H3907 0.950 . S
C3913 C3912 1.327 . S
C3913 C3917 1.429 . S
C3914 C3897 1.574 . S
C3914 H3908 0.949 . S
C3914 C3918 1.368 . S
C3915 C3896 1.429 . S
C3915 C3909 1.429 . S
C3915 C3916 1.523 . S
C3916 C3897 1.368 . S
C3916 C3910 1.368 . S
C3916 C3915 1.523 . S
C3917 C3901 1.429 . S
C3917 C3913 1.429 . S
C3917 C3918 1.523 . S
C3918 C3902 1.368 . S
C3918 C3914 1.368 . S
C3918 C3917 1.523 . S
H3919 C3894 0.950 . S
H3920 C3896 0.950 . S
H3921 C3897 0.949 . S
H3922 C3899 0.950 . S
H3923 C3901 0.950 . S
C3924 C3925 1.349 . S
C3924 C3926 1.327 . S
C3924 H3949 0.950 . S
C3925 C3924 1.349 . S
C3925 C3941 1.349 . S
C3926 C3924 1.327 . S
C3926 C3945 1.429 . S
C3926 H3950 0.950 . S
C3927 C3944 1.574 . S
C3927 C3946 1.368 . S
C3927 H3951 0.949 . S
H3928 C3932 0.949 . S
C3929 C3930 1.349 . S
C3929 C3931 1.327 . S
C3929 H3952 0.950 . S
C3930 C3929 1.349 . S
C3930 C3942 1.349 . S
C3931 C3929 1.327 . S
C3931 C3947 1.429 . S
C3931 H3953 0.950 . S
C3932 H3928 0.949 . S
C3932 C3940 1.574 . S
C3932 C3948 1.368 . S
H3933 C3941 0.950 . S
H3934 C3939 0.950 . S
H3935 C3940 0.949 . S
H3936 C3942 0.950 . S
H3937 C3943 0.950 . S
H3938 C3944 0.949 . S
C3939 H3934 0.950 . S
C3939 C3941 1.327 . S
C3939 C3945 1.429 . S
C3940 C3932 1.574 . S
C3940 H3935 0.949 . S
C3940 C3946 1.368 . S
C3941 C3925 1.349 . S
C3941 H3933 0.950 . S
C3941 C3939 1.327 . S
C3942 C3930 1.349 . S
C3942 H3936 0.950 . S
C3942 C3943 1.327 . S
C3943 H3937 0.950 . S
C3943 C3942 1.327 . S
C3943 C3947 1.429 . S
C3944 C3927 1.574 . S
C3944 H3938 0.949 . S
C3944 C3948 1.368 . S
C3945 C3926 1.429 . S
C3945 C3939 1.429 . S
C3945 C3946 1.523 . S
C3946 C3927 1.368 . S
C3946 C3940 1.368 . S
C3946 C3945 1.523 . S
C3947 C3931 1.429 . S
C3947 C3943 1.429 . S
C3947 C3948 1.523 . S
C3948 C3932 1.368 . S
C3948 C3944 1.368 . S
C3948 C3947 1.523 . S
H3949 C3924 0.950 . S
H3950 C3926 0.950 . S
H3951 C3927 0.949 . S
H3952 C3929 0.950 . S
H3953 C3931 0.950 . S
C3954 C3955 1.349 . S
C3954 C3956 1.327 . S
C3954 H3979 0.950 . S
C3955 C3954 1.349 . S
C3955 C3971 1.349 . S
C3956 C3954 1.327 . S
C3956 C3975 1.429 . S
C3956 H3980 0.950 . S
C3957 C3974 1.574 . S
C3957 C3976 1.368 . S
C3957 H3981 0.949 . S
H3958 C3962 0.949 . S
C3959 C3960 1.349 . S
C3959 C3961 1.327 . S
C3959 H3982 0.950 . S
C3960 C3959 1.349 . S
C3960 C3972 1.349 . S
C3961 C3959 1.327 . S
C3961 C3977 1.429 . S
C3961 H3983 0.950 . S
C3962 H3958 0.949 . S
C3962 C3970 1.574 . S
C3962 C3978 1.368 . S
H3963 C3971 0.950 . S
H3964 C3969 0.950 . S
H3965 C3970 0.949 . S
H3966 C3972 0.950 . S
H3967 C3973 0.950 . S
H3968 C3974 0.949 . S
C3969 H3964 0.950 . S
C3969 C3971 1.327 . S
C3969 C3975 1.429 . S
C3970 C3962 1.574 . S
C3970 H3965 0.949 . S
C3970 C3976 1.368 . S
C3971 C3955 1.349 . S
C3971 H3963 0.950 . S
C3971 C3969 1.327 . S
C3972 C3960 1.349 . S
C3972 H3966 0.950 . S
C3972 C3973 1.327 . S
C3973 H3967 0.950 . S
C3973 C3972 1.327 . S
C3973 C3977 1.429 . S
C3974 C3957 1.574 . S
C3974 H3968 0.949 . S
C3974 C3978 1.368 . S
C3975 C3956 1.429 . S
C3975 C3969 1.429 . S
C3975 C3976 1.523 . S
C3976 C3957 1.368 . S
C3976 C3970 1.368 . S
C3976 C3975 1.523 . S
C3977 C3961 1.429 . S
C3977 C3973 1.429 . S
C3977 C3978 1.523 . S
C3978 C3962 1.368 . S
C3978 C3974 1.368 . S
C3978 C3977 1.523 . S
H3979 C3954 0.950 . S
H3980 C3956 0.950 . S
H3981 C3957 0.949 . S
H3982 C3959 0.950 . S
H3983 C3961 0.950 . S
C3984 C3985 1.349 . S
C3984 C3986 1.327 . S
C3984 H4009 0.950 . S
C3985 C3984 1.349 . S
C3985 C4001 1.349 . S
C3986 C3984 1.327 . S
C3986 C4005 1.429 . S
C3986 H4010 0.950 . S
C3987 C4004 1.574 . S
C3987 C4006 1.368 . S
C3987 H4011 0.949 . S
H3988 C3992 0.949 . S
C3989 C3990 1.349 . S
C3989 C3991 1.327 . S
C3989 H4012 0.950 . S
C3990 C3989 1.349 . S
C3990 C4002 1.349 . S
C3991 C3989 1.327 . S
C3991 C4007 1.429 . S
C3991 H4013 0.950 . S
C3992 H3988 0.949 . S
C3992 C4000 1.574 . S
C3992 C4008 1.368 . S
H3993 C4001 0.950 . S
H3994 C3999 0.950 . S
H3995 C4000 0.949 . S
H3996 C4002 0.950 . S
H3997 C4003 0.950 . S
H3998 C4004 0.949 . S
C3999 H3994 0.950 . S
C3999 C4001 1.327 . S
C3999 C4005 1.429 . S
C4000 C3992 1.574 . S
C4000 H3995 0.949 . S
C4000 C4006 1.368 . S
C4001 C3985 1.349 . S
C4001 H3993 0.950 . S
C4001 C3999 1.327 . S
C4002 C3990 1.349 . S
C4002 H3996 0.950 . S
C4002 C4003 1.327 . S
C4003 H3997 0.950 . S
C4003 C4002 1.327 . S
C4003 C4007 1.429 . S
C4004 C3987 1.574 . S
C4004 H3998 0.949 . S
C4004 C4008 1.368 . S
C4005 C3986 1.429 . S
C4005 C3999 1.429 . S
C4005 C4006 1.523 . S
C4006 C3987 1.368 . S
C4006 C4000 1.368 . S
C4006 C4005 1.523 . S
C4007 C3991 1.429 . S
C4007 C4003 1.429 . S
C4007 C4008 1.523 . S
C4008 C3992 1.368 . S
C4008 C4004 1.368 . S
C4008 C4007 1.523 . S
H4009 C3984 0.950 . S
H4010 C3986 0.950 . S
H4011 C3987 0.949 . S
H4012 C3989 0.950 . S
H4013 C3991 0.950 . S
C4014 C4015 1.349 . S
C4014 C4016 1.327 . S
C4014 H4039 0.950 . S
C4015 C4014 1.349 . S
C4015 C4031 1.349 . S
C4016 C4014 1.327 . S
C4016 C4035 1.429 . S
C4016 H4040 0.950 . S
C4017 C4034 1.574 . S
C4017 C4036 1.368 . S
C4017 H4041 0.949 . S
H4018 C4022 0.949 . S
C4019 C4020 1.349 . S
C4019 C4021 1.327 . S
C4019 H4042 0.950 . S
C4020 C4019 1.349 . S
C4020 C4032 1.349 . S
C4021 C4019 1.327 . S
C4021 C4037 1.429 . S
C4021 H4043 0.950 . S
C4022 H4018 0.949 . S
C4022 C4030 1.574 . S
C4022 C4038 1.368 . S
H4023 C4031 0.950 . S
H4024 C4029 0.950 . S
H4025 C4030 0.949 . S
H4026 C4032 0.950 . S
H4027 C4033 0.950 . S
H4028 C4034 0.949 . S
C4029 H4024 0.950 . S
C4029 C4031 1.327 . S
C4029 C4035 1.429 . S
C4030 C4022 1.574 . S
C4030 H4025 0.949 . S
C4030 C4036 1.368 . S
C4031 C4015 1.349 . S
C4031 H4023 0.950 . S
C4031 C4029 1.327 . S
C4032 C4020 1.349 . S
C4032 H4026 0.950 . S
C4032 C4033 1.327 . S
C4033 H4027 0.950 . S
C4033 C4032 1.327 . S
C4033 C4037 1.429 . S
C4034 C4017 1.574 . S
C4034 H4028 0.949 . S
C4034 C4038 1.368 . S
C4035 C4016 1.429 . S
C4035 C4029 1.429 . S
C4035 C4036 1.523 . S
C4036 C4017 1.368 . S
C4036 C4030 1.368 . S
C4036 C4035 1.523 . S
C4037 C4021 1.429 . S
C4037 C4033 1.429 . S
C4037 C4038 1.523 . S
C4038 C4022 1.368 . S
C4038 C4034 1.368 . S
C4038 C4037 1.523 . S
H4039 C4014 0.950 . S
H4040 C4016 0.950 . S
H4041 C4017 0.949 . S
H4042 C4019 0.950 . S
H4043 C4021 0.950 . S
C4044 C4045 1.349 . S
C4044 C4046 1.327 . S
C4044 H4069 0.950 . S
C4045 C4044 1.349 . S
C4045 C4061 1.349 . S
C4046 C4044 1.327 . S
C4046 C4065 1.429 . S
C4046 H4070 0.950 . S
C4047 C4064 1.574 . S
C4047 C4066 1.368 . S
C4047 H4071 0.949 . S
H4048 C4052 0.949 . S
C4049 C4050 1.349 . S
C4049 C4051 1.327 . S
C4049 H4072 0.950 . S
C4050 C4049 1.349 . S
C4050 C4062 1.349 . S
C4051 C4049 1.327 . S
C4051 C4067 1.429 . S
C4051 H4073 0.950 . S
C4052 H4048 0.949 . S
C4052 C4060 1.574 . S
C4052 C4068 1.368 . S
H4053 C4061 0.950 . S
H4054 C4059 0.950 . S
H4055 C4060 0.949 . S
H4056 C4062 0.950 . S
H4057 C4063 0.950 . S
H4058 C4064 0.949 . S
C4059 H4054 0.950 . S
C4059 C4061 1.327 . S
C4059 C4065 1.429 . S
C4060 C4052 1.574 . S
C4060 H4055 0.949 . S
C4060 C4066 1.368 . S
C4061 C4045 1.349 . S
C4061 H4053 0.950 . S
C4061 C4059 1.327 . S
C4062 C4050 1.349 . S
C4062 H4056 0.950 . S
C4062 C4063 1.327 . S
C4063 H4057 0.950 . S
C4063 C4062 1.327 . S
C4063 C4067 1.429 . S
C4064 C4047 1.574 . S
C4064 H4058 0.949 . S
C4064 C4068 1.368 . S
C4065 C4046 1.429 . S
C4065 C4059 1.429 . S
C4065 C4066 1.523 . S
C4066 C4047 1.368 . S
C4066 C4060 1.368 . S
C4066 C4065 1.523 . S
C4067 C4051 1.429 . S
C4067 C4063 1.429 . S
C4067 C4068 1.523 . S
C4068 C4052 1.368 . S
C4068 C4064 1.368 . S
C4068 C4067 1.523 . S
H4069 C4044 0.950 . S
H4070 C4046 0.950 . S
H4071 C4047 0.949 . S
H4072 C4049 0.950 . S
H4073 C4051 0.950 . S
C4074 C4075 1.349 . S
C4074 C4076 1.327 . S
C4074 H4099 0.950 . S
C4075 C4074 1.349 . S
C4075 C4091 1.349 . S
C4076 C4074 1.327 . S
C4076 C4095 1.429 . S
C4076 H4100 0.950 . S
C4077 C4094 1.574 . S
C4077 C4096 1.368 . S
C4077 H4101 0.949 . S
H4078 C4082 0.949 . S
C4079 C4080 1.349 . S
C4079 C4081 1.327 . S
C4079 H4102 0.950 . S
C4080 C4079 1.349 . S
C4080 C4092 1.349 . S
C4081 C4079 1.327 . S
C4081 C4097 1.429 . S
C4081 H4103 0.950 . S
C4082 H4078 0.949 . S
C4082 C4090 1.574 . S
C4082 C4098 1.368 . S
H4083 C4091 0.950 . S
H4084 C4089 0.950 . S
H4085 C4090 0.949 . S
H4086 C4092 0.950 . S
H4087 C4093 0.950 . S
H4088 C4094 0.949 . S
C4089 H4084 0.950 . S
C4089 C4091 1.327 . S
C4089 C4095 1.429 . S
C4090 C4082 1.574 . S
C4090 H4085 0.949 . S
C4090 C4096 1.368 . S
C4091 C4075 1.349 . S
C4091 H4083 0.950 . S
C4091 C4089 1.327 . S
C4092 C4080 1.349 . S
C4092 H4086 0.950 . S
C4092 C4093 1.327 . S
C4093 H4087 0.950 . S
C4093 C4092 1.327 . S
C4093 C4097 1.429 . S
C4094 C4077 1.574 . S
C4094 H4088 0.949 . S
C4094 C4098 1.368 . S
C4095 C4076 1.429 . S
C4095 C4089 1.429 . S
C4095 C4096 1.523 . S
C4096 C4077 1.368 . S
C4096 C4090 1.368 . S
C4096 C4095 1.523 . S
C4097 C4081 1.429 . S
C4097 C4093 1.429 . S
C4097 C4098 1.523 . S
C4098 C4082 1.368 . S
C4098 C4094 1.368 . S
C4098 C4097 1.523 . S
H4099 C4074 0.950 . S
H4100 C4076 0.950 . S
H4101 C4077 0.949 . S
H4102 C4079 0.950 . S
H4103 C4081 0.950 . S
C4104 C4105 1.349 . S
C4104 C4106 1.327 . S
C4104 H4129 0.950 . S
C4105 C4104 1.349 . S
C4105 C4121 1.349 . S
C4106 C4104 1.327 . S
C4106 C4125 1.429 . S
C4106 H4130 0.950 . S
C4107 C4124 1.574 1_455 S
C4107 C4126 1.368 . S
C4107 H4131 0.949 . S
H4108 C4112 0.949 . S
C4109 C4110 1.349 . S
C4109 C4111 1.327 . S
C4109 H4132 0.950 . S
C4110 C4109 1.349 . S
C4110 C4122 1.349 . S
C4111 C4109 1.327 . S
C4111 C4127 1.429 . S
C4111 H4133 0.950 . S
C4112 H4108 0.949 . S
C4112 C4120 1.574 1_655 S
C4112 C4128 1.368 . S
H4113 C4121 0.950 . S
H4114 C4119 0.950 . S
H4115 C4120 0.949 . S
H4116 C4122 0.950 . S
H4117 C4123 0.950 . S
H4118 C4124 0.949 . S
C4119 H4114 0.950 . S
C4119 C4121 1.327 . S
C4119 C4125 1.429 . S
C4120 C4112 1.574 1_455 S
C4120 H4115 0.949 . S
C4120 C4126 1.368 . S
C4121 C4105 1.349 . S
C4121 H4113 0.950 . S
C4121 C4119 1.327 . S
C4122 C4110 1.349 . S
C4122 H4116 0.950 . S
C4122 C4123 1.327 . S
C4123 H4117 0.950 . S
C4123 C4122 1.327 . S
C4123 C4127 1.429 . S
C4124 C4107 1.574 1_655 S
C4124 H4118 0.949 . S
C4124 C4128 1.368 . S
C4125 C4106 1.429 . S
C4125 C4119 1.429 . S
C4125 C4126 1.523 . S
C4126 C4107 1.368 . S
C4126 C4120 1.368 . S
C4126 C4125 1.523 . S
C4127 C4111 1.429 . S
C4127 C4123 1.429 . S
C4127 C4128 1.523 . S
C4128 C4112 1.368 . S
C4128 C4124 1.368 . S
C4128 C4127 1.523 . S
H4129 C4104 0.950 . S
H4130 C4106 0.950 . S
H4131 C4107 0.949 . S
H4132 C4109 0.950 . S
H4133 C4111 0.950 . S
C4134 C4135 1.349 . S
C4134 C4136 1.327 . S
C4134 H4159 0.950 . S
C4135 C4134 1.349 . S
C4135 C4151 1.349 . S
C4136 C4134 1.327 . S
C4136 C4155 1.429 . S
C4136 H4160 0.950 . S
C4137 C4154 1.574 . S
C4137 C4156 1.368 . S
C4137 H4161 0.949 . S
H4138 C4142 0.949 . S
C4139 C4140 1.349 . S
C4139 C4141 1.327 . S
C4139 H4162 0.950 . S
C4140 C4139 1.349 . S
C4140 C4152 1.349 . S
C4141 C4139 1.327 . S
C4141 C4157 1.429 . S
C4141 H4163 0.950 . S
C4142 H4138 0.949 . S
C4142 C4150 1.574 . S
C4142 C4158 1.368 . S
H4143 C4151 0.950 . S
H4144 C4149 0.950 . S
H4145 C4150 0.949 . S
H4146 C4152 0.950 . S
H4147 C4153 0.950 . S
H4148 C4154 0.949 . S
C4149 H4144 0.950 . S
C4149 C4151 1.327 . S
C4149 C4155 1.429 . S
C4150 C4142 1.574 . S
C4150 H4145 0.949 . S
C4150 C4156 1.368 . S
C4151 C4135 1.349 . S
C4151 H4143 0.950 . S
C4151 C4149 1.327 . S
C4152 C4140 1.349 . S
C4152 H4146 0.950 . S
C4152 C4153 1.327 . S
C4153 H4147 0.950 . S
C4153 C4152 1.327 . S
C4153 C4157 1.429 . S
C4154 C4137 1.574 . S
C4154 H4148 0.949 . S
C4154 C4158 1.368 . S
C4155 C4136 1.429 . S
C4155 C4149 1.429 . S
C4155 C4156 1.523 . S
C4156 C4137 1.368 . S
C4156 C4150 1.368 . S
C4156 C4155 1.523 . S
C4157 C4141 1.429 . S
C4157 C4153 1.429 . S
C4157 C4158 1.523 . S
C4158 C4142 1.368 . S
C4158 C4154 1.368 . S
C4158 C4157 1.523 . S
H4159 C4134 0.950 . S
H4160 C4136 0.950 . S
H4161 C4137 0.949 . S
H4162 C4139 0.950 . S
H4163 C4141 0.950 . S
C4164 C4165 1.349 . S
C4164 C4166 1.327 . S
C4164 H4189 0.950 . S
C4165 C4164 1.349 . S
C4165 C4181 1.349 . S
C4166 C4164 1.327 . S
C4166 C4185 1.429 . S
C4166 H4190 0.950 . S
C4167 C4184 1.574 1_545 S
C4167 C4186 1.368 . S
C4167 H4191 0.949 . S
H4168 C4172 0.949 . S
C4169 C4170 1.349 . S
C4169 C4171 1.327 . S
C4169 H4192 0.950 . S
C4170 C4169 1.349 . S
C4170 C4182 1.349 . S
C4171 C4169 1.327 . S
C4171 C4187 1.429 . S
C4171 H4193 0.950 . S
C4172 H4168 0.949 . S
C4172 C4180 1.574 1_565 S
C4172 C4188 1.368 . S
H4173 C4181 0.950 . S
H4174 C4179 0.950 . S
H4175 C4180 0.949 . S
H4176 C4182 0.950 . S
H4177 C4183 0.950 . S
H4178 C4184 0.949 . S
C4179 H4174 0.950 . S
C4179 C4181 1.327 . S
C4179 C4185 1.429 . S
C4180 C4172 1.574 1_545 S
C4180 H4175 0.949 . S
C4180 C4186 1.368 . S
C4181 C4165 1.349 . S
C4181 H4173 0.950 . S
C4181 C4179 1.327 . S
C4182 C4170 1.349 . S
C4182 H4176 0.950 . S
C4182 C4183 1.327 . S
C4183 H4177 0.950 . S
C4183 C4182 1.327 . S
C4183 C4187 1.429 . S
C4184 C4167 1.574 1_565 S
C4184 H4178 0.949 . S
C4184 C4188 1.368 . S
C4185 C4166 1.429 . S
C4185 C4179 1.429 . S
C4185 C4186 1.523 . S
C4186 C4167 1.368 . S
C4186 C4180 1.368 . S
C4186 C4185 1.523 . S
C4187 C4171 1.429 . S
C4187 C4183 1.429 . S
C4187 C4188 1.523 . S
C4188 C4172 1.368 . S
C4188 C4184 1.368 . S
C4188 C4187 1.523 . S
H4189 C4164 0.950 . S
H4190 C4166 0.950 . S
H4191 C4167 0.949 . S
H4192 C4169 0.950 . S
H4193 C4171 0.950 . S
C4194 C4195 1.349 . S
C4194 C4196 1.327 . S
C4194 H4219 0.950 . S
C4195 C4194 1.349 . S
C4195 C4211 1.349 . S
C4196 C4194 1.327 . S
C4196 C4215 1.429 . S
C4196 H4220 0.950 . S
C4197 C4214 1.574 1_545 S
C4197 C4216 1.368 1_554 S
C4197 H4221 0.949 . S
H4198 C4202 0.949 . S
C4199 C4200 1.349 . S
C4199 C4201 1.327 . S
C4199 H4222 0.950 . S
C4200 C4199 1.349 . S
C4200 C4212 1.349 . S
C4201 C4199 1.327 . S
C4201 C4217 1.429 . S
C4201 H4223 0.950 . S
C4202 H4198 0.949 . S
C4202 C4210 1.574 1_565 S
C4202 C4218 1.368 1_556 S
H4203 C4211 0.950 . S
H4204 C4209 0.950 1_554 S
H4205 C4210 0.949 . S
H4206 C4212 0.950 . S
H4207 C4213 0.950 1_556 S
H4208 C4214 0.949 . S
C4209 H4204 0.950 1_556 S
C4209 C4211 1.327 . S
C4209 C4215 1.429 . S
C4210 C4202 1.574 1_545 S
C4210 H4205 0.949 . S
C4210 C4216 1.368 . S
C4211 C4195 1.349 . S
C4211 H4203 0.950 . S
C4211 C4209 1.327 . S
C4212 C4200 1.349 . S
C4212 H4206 0.950 . S
C4212 C4213 1.327 . S
C4213 H4207 0.950 1_554 S
C4213 C4212 1.327 . S
C4213 C4217 1.429 . S
C4214 C4197 1.574 1_565 S
C4214 H4208 0.949 . S
C4214 C4218 1.368 . S
C4215 C4196 1.429 . S
C4215 C4209 1.429 . S
C4215 C4216 1.523 . S
C4216 C4197 1.368 1_556 S
C4216 C4210 1.368 . S
C4216 C4215 1.523 . S
C4217 C4201 1.429 . S
C4217 C4213 1.429 . S
C4217 C4218 1.523 . S
C4218 C4202 1.368 1_554 S
C4218 C4214 1.368 . S
C4218 C4217 1.523 . S
H4219 C4194 0.950 . S
H4220 C4196 0.950 . S
H4221 C4197 0.949 . S
H4222 C4199 0.950 . S
H4223 C4201 0.950 . S
C4224 C4225 1.349 . S
C4224 C4226 1.327 . S
C4224 H4249 0.950 . S
C4225 C4224 1.349 . S
C4225 C4241 1.349 . S
C4226 C4224 1.327 . S
C4226 C4245 1.429 . S
C4226 H4250 0.950 . S
C4227 C4244 1.574 1_655 S
C4227 C4246 1.368 1_554 S
C4227 H4251 0.949 . S
H4228 C4232 0.949 . S
C4229 C4230 1.349 . S
C4229 C4231 1.327 . S
C4229 H4252 0.950 . S
C4230 C4229 1.349 . S
C4230 C4242 1.349 . S
C4231 C4229 1.327 . S
C4231 C4247 1.429 . S
C4231 H4253 0.950 . S
C4232 H4228 0.949 . S
C4232 C4240 1.574 1_455 S
C4232 C4248 1.368 1_556 S
H4233 C4241 0.950 . S
H4234 C4239 0.950 1_554 S
H4235 C4240 0.949 . S
H4236 C4242 0.950 . S
H4237 C4243 0.950 1_556 S
H4238 C4244 0.949 . S
C4239 H4234 0.950 1_556 S
C4239 C4241 1.327 . S
C4239 C4245 1.429 . S
C4240 C4232 1.574 1_655 S
C4240 H4235 0.949 . S
C4240 C4246 1.368 . S
C4241 C4225 1.349 . S
C4241 H4233 0.950 . S
C4241 C4239 1.327 . S
C4242 C4230 1.349 . S
C4242 H4236 0.950 . S
C4242 C4243 1.327 . S
C4243 H4237 0.950 1_554 S
C4243 C4242 1.327 . S
C4243 C4247 1.429 . S
C4244 C4227 1.574 1_455 S
C4244 H4238 0.949 . S
C4244 C4248 1.368 . S
C4245 C4226 1.429 . S
C4245 C4239 1.429 . S
C4245 C4246 1.523 . S
C4246 C4227 1.368 1_556 S
C4246 C4240 1.368 . S
C4246 C4245 1.523 . S
C4247 C4231 1.429 . S
C4247 C4243 1.429 . S
C4247 C4248 1.523 . S
C4248 C4232 1.368 1_554 S
C4248 C4244 1.368 . S
C4248 C4247 1.523 . S
H4249 C4224 0.950 . S
H4250 C4226 0.950 . S
H4251 C4227 0.949 . S
H4252 C4229 0.950 . S
H4253 C4231 0.950 . S
C4254 C4255 1.349 . S
C4254 C4256 1.327 . S
C4254 H4279 0.950 . S
C4255 C4254 1.349 . S
C4255 C4271 1.349 . S
C4256 C4254 1.327 . S
C4256 C4275 1.429 . S
C4256 H4280 0.950 1_556 S
C4257 C4274 1.574 . S
C4257 C4276 1.368 . S
C4257 H4281 0.949 . S
H4258 C4262 0.949 . S
C4259 C4260 1.349 . S
C4259 C4261 1.327 . S
C4259 H4282 0.950 . S
C4260 C4259 1.349 . S
C4260 C4272 1.349 . S
C4261 C4259 1.327 . S
C4261 C4277 1.429 . S
C4261 H4283 0.950 1_554 S
C4262 H4258 0.949 . S
C4262 C4270 1.574 . S
C4262 C4278 1.368 . S
H4263 C4271 0.950 . S
H4264 C4269 0.950 . S
H4265 C4270 0.949 . S
H4266 C4272 0.950 . S
H4267 C4273 0.950 . S
H4268 C4274 0.949 . S
C4269 H4264 0.950 . S
C4269 C4271 1.327 . S
C4269 C4275 1.429 . S
C4270 C4262 1.574 . S
C4270 H4265 0.949 . S
C4270 C4276 1.368 1_554 S
C4271 C4255 1.349 . S
C4271 H4263 0.950 . S
C4271 C4269 1.327 . S
C4272 C4260 1.349 . S
C4272 H4266 0.950 . S
C4272 C4273 1.327 . S
C4273 H4267 0.950 . S
C4273 C4272 1.327 . S
C4273 C4277 1.429 . S
C4274 C4257 1.574 . S
C4274 H4268 0.949 . S
C4274 C4278 1.368 1_556 S
C4275 C4256 1.429 . S
C4275 C4269 1.429 . S
C4275 C4276 1.523 . S
C4276 C4257 1.368 . S
C4276 C4270 1.368 1_556 S
C4276 C4275 1.523 . S
C4277 C4261 1.429 . S
C4277 C4273 1.429 . S
C4277 C4278 1.523 . S
C4278 C4262 1.368 . S
C4278 C4274 1.368 1_554 S
C4278 C4277 1.523 . S
H4279 C4254 0.950 . S
H4280 C4256 0.950 1_554 S
H4281 C4257 0.949 . S
H4282 C4259 0.950 . S
H4283 C4261 0.950 1_556 S
C2125 C3 1.418 . S
C2130 C465 1.428 . S
C2155 C62 1.419 . S
C2160 C524 1.428 . S
C2185 C406 1.428 . S
C2190 C121 1.418 . S
C2215 C701 1.428 . S
C2220 C180 1.418 . S
C2245 C239 1.418 . S
C2250 C583 1.428 . S
C2275 C298 1.419 . S
C2280 C642 1.428 . S
C2305 C111 1.428 . S
C2310 C357 1.418 . S
C2335 C170 1.428 . S
C2340 C416 1.419 . S
C2365 C475 1.418 . S
C2370 C52 1.428 . S
C2395 C534 1.418 . S
C2400 C347 1.428 . S
C2425 C229 1.428 . S
C2430 C593 1.418 . S
C2455 C652 1.419 . S
C2460 C288 1.428 . S
C2485 C1173 1.428 . S
C2490 C711 1.418 . S
C2515 C770 1.419 . S
C2520 C1232 1.428 . S
C2545 C829 1.418 . S
C2550 C1114 1.428 . S
C2575 C1409 1.428 . S
C2580 C888 1.418 . S
C2605 C947 1.418 . S
C2610 C1291 1.428 . S
C2635 C1350 1.428 . S
C2640 C1006 1.419 . S
C2665 C819 1.428 . S
C2670 C1065 1.418 . S
C2695 C1124 1.419 . S
C2700 C878 1.428 . S
C2725 C760 1.428 . S
C2730 C1183 1.419 . S
C2755 C1242 1.419 . S
C2760 C1055 1.428 . S
C2785 C1301 1.418 . S
C2790 C937 1.428 . S
C2815 C1360 1.419 . S
C2820 C996 1.428 . S
C2845 C1881 1.428 . S
C2850 C1419 1.418 . S
C2875 C1940 1.428 . S
C2880 C1478 1.419 . S
C2905 C1822 1.428 . S
C2910 C1537 1.419 . S
C2935 C1596 1.419 . S
C2940 C2117 1.428 . S
C2965 C1655 1.418 . S
C2970 C1999 1.428 . S
C2995 C2058 1.428 . S
C3000 C1714 1.419 . S
C3025 C1773 1.418 . S
C3030 C1527 1.428 . S
C3055 C1586 1.428 . S
C3060 C1832 1.419 . S
C3085 C1468 1.428 . S
C3090 C1891 1.418 . S
C3115 C1950 1.418 . S
C3120 C1763 1.428 . S
C3145 C2009 1.418 . S
C3150 C1645 1.428 . S
C3175 C2068 1.419 . S
C3180 C1704 1.428 . S
C3205 C210 1.599 . S
C3210 C33 1.599 . S
C3235 C269 1.599 . S
C3240 C92 1.599 . S
C3265 C151 1.599 . S
C3270 C328 1.599 . S
C3295 C564 1.599 . S
C3300 C387 1.599 . S
C3325 C623 1.599 . S
C3330 C446 1.599 . S
C3355 C682 1.599 . S
C3360 C505 1.599 . S
C3385 C918 1.599 . S
C3390 C741 1.599 . S
C3415 C977 1.600 . S
C3420 C800 1.600 . S
C3445 C859 1.599 . S
C3450 C1036 1.599 . S
C3475 C1272 1.613 . S
C3480 C1095 1.599 . S
C3505 C1331 1.613 . S
C3510 C1154 1.599 . S
C3535 C1390 1.613 . S
C3540 C1213 1.599 . S
C3565 C1626 1.613 . S
C3570 C1449 1.599 . S
C3595 C1508 1.599 . S
C3600 C1685 1.613 . S
C3625 C1744 1.613 . S
C3630 C1567 1.599 . S
C3655 C1803 1.599 . S
C3660 C1980 1.599 . S
C3685 C1862 1.600 . S
C3690 C2039 1.600 . S
C3715 C1921 1.599 . S
C3720 C2098 1.599 . S
C3745 C5 1.415 . S
C3750 C1067 1.415 . S
C3775 C1126 1.415 . S
C3780 C64 1.415 . S
C3805 C1185 1.415 . S
C3810 C123 1.415 . S
C3835 C1952 1.415 . S
C3840 C182 1.415 . S
C3865 C2011 1.415 . S
C3870 C241 1.415 . S
C3895 C2070 1.415 . S
C3900 C300 1.415 . S
C3925 C359 1.415 . S
C3930 C1421 1.415 . S
C3955 C1480 1.415 . S
C3960 C418 1.415 . S
C3985 C1539 1.415 . S
C3990 C477 1.415 . S
C4015 C536 1.415 . S
C4020 C890 1.415 . S
C4045 C595 1.415 . S
C4050 C949 1.415 . S
C4075 C654 1.415 . S
C4080 C1008 1.415 . S
C4105 C1775 1.415 . S
C4110 C713 1.415 . S
C4135 C1834 1.415 . S
C4140 C772 1.415 . S
C4165 C831 1.415 . S
C4170 C1893 1.415 . S
C4195 C1244 1.415 . S
C4200 C1598 1.415 . S
C4225 C1303 1.415 . S
C4230 C1657 1.415 . S
C4255 C1362 1.415 . S
C4260 C1716 1.415 . S
