# Generated by pormake.
# Topology uoj, (4)-cn, num edge types: 1
# Building blocks:
#     Node 0, Type 0, BuildingBlock: ICAMEG_clean_sbu_1, # of connection points: 4
#     Node 1, Type 0, BuildingBlock: ICAMEG_clean_sbu_1, # of connection points: 4
#     Node 2, Type 0, BuildingBlock: ICAMEG_clean_sbu_1, # of connection points: 4
#     Node 3, Type 0, BuildingBlock: ICAMEG_clean_sbu_1, # of connection points: 4
#     Node 4, Type 0, BuildingBlock: ICAMEG_clean_sbu_1, # of connection points: 4
#     Node 5, Type 0, BuildingBlock: ICAMEG_clean_sbu_1, # of connection points: 4
#     Node 6, Type 0, BuildingBlock: ICAMEG_clean_sbu_1, # of connection points: 4
#     Node 7, Type 0, BuildingBlock: ICAMEG_clean_sbu_1, # of connection points: 4
#     Edge 8, Type (0, 0), BuildingBlock: AJUNOK_clean_linker_0, # of connection points: 2
#     Edge 9, Type (0, 0), BuildingBlock: AJUNOK_clean_linker_0, # of connection points: 2
#     Edge 10, Type (0, 0), BuildingBlock: AJUNOK_clean_linker_0, # of connection points: 2
#     Edge 11, Type (0, 0), BuildingBlock: AJUNOK_clean_linker_0, # of connection points: 2
#     Edge 12, Type (0, 0), BuildingBlock: AJUNOK_clean_linker_0, # of connection points: 2
#     Edge 13, Type (0, 0), BuildingBlock: AJUNOK_clean_linker_0, # of connection points: 2
#     Edge 14, Type (0, 0), BuildingBlock: AJUNOK_clean_linker_0, # of connection points: 2
#     Edge 15, Type (0, 0), BuildingBlock: AJUNOK_clean_linker_0, # of connection points: 2
#     Edge 16, Type (0, 0), BuildingBlock: AJUNOK_clean_linker_0, # of connection points: 2
#     Edge 17, Type (0, 0), BuildingBlock: AJUNOK_clean_linker_0, # of connection points: 2
#     Edge 18, Type (0, 0), BuildingBlock: AJUNOK_clean_linker_0, # of connection points: 2
#     Edge 19, Type (0, 0), BuildingBlock: AJUNOK_clean_linker_0, # of connection points: 2
#     Edge 20, Type (0, 0), BuildingBlock: AJUNOK_clean_linker_0, # of connection points: 2
#     Edge 21, Type (0, 0), BuildingBlock: AJUNOK_clean_linker_0, # of connection points: 2
#     Edge 22, Type (0, 0), BuildingBlock: AJUNOK_clean_linker_0, # of connection points: 2
#     Edge 23, Type (0, 0), BuildingBlock: AJUNOK_clean_linker_0, # of connection points: 2
# Relax obj value: 0.082
# Max RMSD: 0.089
# Mean RMSD: 0.089
data_MOF--net-uoj--node1-ICAMEG_clean_sbu_1--edge1-AJUNOK_clean_linker_0
_symmetry_space_group_name_H-M    P1
_symmetry_Int_Tables_number       1
_symmetry_cell_setting            triclinic
loop_
_symmetry_equiv_pos_as_xyz
'x, y, z'
_cell_length_a     27.546446
_cell_length_b     27.509301
_cell_length_c     24.965759
_cell_angle_alpha  90.043956
_cell_angle_beta   90.019644
_cell_angle_gamma 89.919809
loop_
_atom_site_label
_atom_site_type_symbol
_atom_site_fract_x
_atom_site_fract_y
_atom_site_fract_z
_atom_type_partial_charge
Co0 Co 0.98899 0.31852 0.405 0.0
Co1 Co 0.10148 0.32112 0.461 0.0
O2 O 0.04044 0.28726 0.44645 0.0
C3 C 0.93772 0.27515 0.49879 0.0
O4 O 0.97356 0.28827 0.53015 0.0
C5 C 0.17185 0.24262 0.43347 0.0
O6 O 0.19199 0.27307 0.39963 0.0
O7 O 0.11179 0.32781 0.38263 0.0
O8 O 0.03754 0.35314 0.35859 0.0
H9 H 0.22692 0.45103 0.43288 0.0
H10 H 0.9903 0.21135 0.41631 0.0
O11 O 0.93881 0.28439 0.44886 0.0
H12 H 0.99121 0.24213 0.2217 0.0
H13 H 0.82451 0.3284 0.3172 0.0
H14 H 0.97177 0.41925 0.36725 0.0
H15 H 0.98948 0.31032 0.28581 0.0
H16 H 0.89358 0.28651 0.36005 0.0
O17 O 0.13471 0.25589 0.46037 0.0
H18 H 0.14897 0.40926 0.4176 0.0
H19 H 0.18649 0.30164 0.53232 0.0
H20 H 0.9041 0.46235 0.32345 0.0
H21 H 0.99176 0.14198 0.35356 0.0
H22 H 0.82938 0.41705 0.29899 0.0
H23 H 0.99224 0.1572 0.25549 0.0
O24 O 0.98892 0.37316 0.45634 0.0
H25 H 0.05749 0.23029 0.62872 0.0
H26 H 0.10624 0.38891 0.55443 0.0
H27 H 0.09178 0.38109 0.65148 0.0
H28 H 0.06756 0.30124 0.68931 0.0
H29 H 0.07112 0.24012 0.53173 0.0
H30 H 0.26495 0.34216 0.54875 0.0
H31 H 0.28553 0.41747 0.49889 0.0
O32 O 0.06862 0.38699 0.4625 0.0
C33 C 0.08282 0.34755 0.3493 0.0
C34 C 0.21832 0.4183 0.45494 0.0
C35 C 0.23968 0.35718 0.51995 0.0
N36 N 0.16307 0.35323 0.47425 0.0
C37 C 0.17421 0.39453 0.44651 0.0
C38 C 0.19521 0.3344 0.51049 0.0
C39 C 0.2512 0.39943 0.49196 0.0
C40 C 0.99029 0.21819 0.37368 0.0
N41 N 0.98957 0.26475 0.35476 0.0
C42 C 0.99121 0.17881 0.33835 0.0
C43 C 0.99152 0.18738 0.28333 0.0
C44 C 0.99097 0.23501 0.26433 0.0
C45 C 0.99008 0.27348 0.30085 0.0
C46 C 0.8568 0.34858 0.32786 0.0
C47 C 0.93991 0.39903 0.35563 0.0
C48 C 0.8961 0.32503 0.35199 0.0
N49 N 0.9369 0.35032 0.36584 0.0
C50 C 0.90148 0.42374 0.33128 0.0
C51 C 0.85953 0.39833 0.31772 0.0
C52 C 0.02448 0.40095 0.46711 0.0
C53 C 0.06837 0.2652 0.6128 0.0
C54 C 0.09536 0.35411 0.57048 0.0
C55 C 0.0874 0.34987 0.62553 0.0
C56 C 0.07389 0.30505 0.64674 0.0
N57 N 0.09016 0.31477 0.53746 0.0
C58 C 0.07662 0.27082 0.55796 0.0
Co59 Co 0.31015 0.00906 0.59223 0.0
Co60 Co 0.32696 0.89721 0.53712 0.0
O61 O 0.2869 0.95499 0.5485 0.0
C62 C 0.27989 0.06988 0.49749 0.0
O63 O 0.31596 0.05257 0.46884 0.0
C64 C 0.23078 0.85462 0.56491 0.0
O65 O 0.22908 0.88347 0.6068 0.0
O66 O 0.33053 0.88727 0.61587 0.0
O67 O 0.34626 0.96392 0.64155 0.0
H68 H 0.46558 0.78384 0.57679 0.0
H69 H 0.20493 0.99626 0.57171 0.0
O70 O 0.27318 0.05543 0.54539 0.0
H71 H 0.22182 0.99838 0.76834 0.0
H72 H 0.2963 0.17371 0.67934 0.0
H73 H 0.40543 0.0365 0.63854 0.0
H74 H 0.29366 0.00742 0.7103 0.0
H75 H 0.26522 0.10068 0.63338 0.0
O76 O 0.26696 0.85628 0.5332 0.0
H77 H 0.41591 0.85774 0.58818 0.0
H78 H 0.32187 0.81203 0.46323 0.0
H79 H 0.43789 0.10851 0.68498 0.0
H80 H 0.132 0.98767 0.62824 0.0
H81 H 0.3834 0.17827 0.70461 0.0
H82 H 0.14023 0.98861 0.72733 0.0
O83 O 0.36889 0.01436 0.54654 0.0
H84 H 0.24127 0.9355 0.36459 0.0
H85 H 0.39955 0.89951 0.44809 0.0
H86 H 0.39539 0.91556 0.35104 0.0
H87 H 0.31579 0.93355 0.30863 0.0
H88 H 0.24713 0.91965 0.46163 0.0
H89 H 0.37012 0.73729 0.45086 0.0
H90 H 0.44273 0.72291 0.50778 0.0
O91 O 0.38855 0.93581 0.54 0.0
C92 C 0.34545 0.91814 0.65027 0.0
C93 C 0.43401 0.78965 0.55178 0.0
C94 C 0.3804 0.76349 0.48116 0.0
N95 N 0.36582 0.83907 0.52658 0.0
C96 C 0.40573 0.83145 0.55803 0.0
C97 C 0.35302 0.80573 0.48855 0.0
C98 C 0.42115 0.75547 0.51307 0.0
C99 C 0.20869 0.99723 0.61479 0.0
N100 N 0.25338 1.00287 0.63765 0.0
C101 C 0.16731 0.99212 0.64659 0.0
C102 C 0.17197 0.99258 0.70218 0.0
C103 C 0.21773 0.99805 0.72522 0.0
C104 C 0.25829 1.00308 0.69215 0.0
C105 C 0.32045 0.14363 0.67075 0.0
C106 C 0.3812 0.06612 0.64811 0.0
C107 C 0.30303 0.10212 0.64488 0.0
N108 N 0.33339 0.06408 0.6337 0.0
C109 C 0.39991 0.10704 0.67398 0.0
C110 C 0.36932 0.14618 0.68491 0.0
C111 C 0.39956 0.98072 0.5371 0.0
C112 C 0.27614 0.92755 0.38257 0.0
C113 C 0.36479 0.9075 0.43 0.0
C114 C 0.36265 0.91644 0.37498 0.0
C115 C 0.31798 0.92651 0.35121 0.0
N116 N 0.32354 0.90833 0.46044 0.0
C117 C 0.27966 0.91839 0.43745 0.0
Co118 Co 0.01111 0.69392 0.41 0.0
Co119 Co 0.90058 0.68535 0.47031 0.0
O120 O 0.96015 0.72178 0.45553 0.0
C121 C 0.06504 0.73645 0.50314 0.0
O122 O 0.02976 0.7241 0.53563 0.0
C123 C 0.85998 0.78266 0.44047 0.0
O124 O 0.8848 0.78125 0.3956 0.0
O125 O 0.88766 0.68061 0.3922 0.0
O126 O 0.96207 0.65973 0.36409 0.0
H127 H 0.77986 0.55131 0.44047 0.0
H128 H 0.00702 0.80024 0.42812 0.0
O129 O 0.06229 0.72746 0.45322 0.0
H130 H 0.99623 0.77914 0.23229 0.0
H131 H 0.17225 0.69332 0.3146 0.0
H132 H 0.02865 0.59623 0.36335 0.0
H133 H 0.00468 0.70802 0.29163 0.0
H134 H 0.10367 0.73104 0.3628 0.0
O135 O 0.86309 0.74775 0.47383 0.0
H136 H 0.85561 0.5967 0.42463 0.0
H137 H 0.8165 0.69941 0.54423 0.0
H138 H 0.09613 0.55728 0.31471 0.0
H139 H 0.9989 0.87246 0.3702 0.0
H140 H 0.1691 0.60558 0.29121 0.0
H141 H 0.99331 0.8621 0.27154 0.0
O142 O 0.01529 0.63651 0.45777 0.0
H143 H 0.94353 0.774 0.63983 0.0
H144 H 0.90203 0.61488 0.56141 0.0
H145 H 0.91912 0.6208 0.65808 0.0
H146 H 0.93986 0.70086 0.69799 0.0
H147 H 0.927 0.76624 0.5431 0.0
H148 H 0.74014 0.6553 0.56113 0.0
H149 H 0.72152 0.58053 0.50923 0.0
O150 O 0.93624 0.62123 0.46814 0.0
C151 C 0.91644 0.66387 0.35676 0.0
C152 C 0.78763 0.58373 0.4635 0.0
C153 C 0.76534 0.6421 0.5312 0.0
N154 N 0.84078 0.6503 0.48395 0.0
C155 C 0.83053 0.60954 0.45479 0.0
C156 C 0.80862 0.66695 0.52142 0.0
C157 C 0.75491 0.60016 0.50206 0.0
C158 C 0.00502 0.79552 0.38519 0.0
N159 N 0.00656 0.75003 0.36329 0.0
C160 C 1.00027 0.83651 0.35261 0.0
C161 C 0.99707 0.83067 0.29726 0.0
C162 C 0.99869 0.78413 0.27521 0.0
C163 C 1.00343 0.74399 0.30903 0.0
C164 C 0.14081 0.67179 0.32509 0.0
C165 C 0.05984 0.61781 0.35238 0.0
C166 C 0.10183 0.69296 0.35231 0.0
N167 N 0.06227 0.66583 0.36623 0.0
C168 C 0.09806 0.59545 0.32506 0.0
C169 C 0.13901 0.62257 0.31193 0.0
C170 C 0.98068 0.6078 0.46956 0.0
C171 C 0.93449 0.73891 0.62294 0.0
C172 C 0.9116 0.64972 0.57828 0.0
C173 C 0.92096 0.65291 0.63315 0.0
C174 C 0.9325 0.69786 0.65552 0.0
N175 N 0.91368 0.69013 0.54654 0.0
C176 C 0.92489 0.73433 0.56823 0.0
Co177 Co 0.69141 0.99919 0.59605 0.0
Co178 Co 0.68087 0.10907 0.53506 0.0
O179 O 0.71887 0.05045 0.55078 0.0
C180 C 0.73458 0.94445 0.50371 0.0
O181 O 0.71576 0.97613 0.47033 0.0
C182 C 0.77724 0.15168 0.56279 0.0
O183 O 0.77881 0.12428 0.60581 0.0
O184 O 0.67677 0.12273 0.61308 0.0
O185 O 0.65587 0.04822 0.64116 0.0
H186 H 0.54721 0.23003 0.56775 0.0
H187 H 0.79784 0.0052 0.58029 0.0
O188 O 0.72725 0.94863 0.55384 0.0
H189 H 0.77316 0.01449 0.77569 0.0
H190 H 0.69149 0.83725 0.69024 0.0
H191 H 0.59369 0.98074 0.6415 0.0
H192 H 0.70333 0.00561 0.71468 0.0
H193 H 0.72908 0.90666 0.64351 0.0
O194 O 0.74179 0.14829 0.53027 0.0
H195 H 0.59428 0.15527 0.58416 0.0
H196 H 0.68826 0.18925 0.45477 0.0
H197 H 0.55489 0.91248 0.68873 0.0
H198 H 0.8688 0.01373 0.6399 0.0
H199 H 0.60354 0.83954 0.71215 0.0
H200 H 0.85665 0.01853 0.73836 0.0
O201 O 0.63473 0.99392 0.54717 0.0
H202 H 0.76905 0.06205 0.36673 0.0
H203 H 0.60975 0.10358 0.44439 0.0
H204 H 0.61543 0.08278 0.34856 0.0
H205 H 0.69556 0.06196 0.30906 0.0
H206 H 0.76161 0.08246 0.4626 0.0
H207 H 0.64245 0.2646 0.43717 0.0
H208 H 0.57119 0.28534 0.49377 0.0
O209 O 0.61781 0.07277 0.53871 0.0
C210 C 0.66043 0.09392 0.64874 0.0
C211 C 0.57821 0.22144 0.54283 0.0
C212 C 0.63163 0.24083 0.46955 0.0
N213 N 0.64407 0.16786 0.52051 0.0
C214 C 0.60506 0.17915 0.55197 0.0
C215 C 0.65756 0.19818 0.47983 0.0
C216 C 0.59167 0.25244 0.50131 0.0
C217 C 0.79233 0.00691 0.62311 0.0
N218 N 0.74656 1.00471 0.64397 0.0
C219 C 0.83261 0.01188 0.65666 0.0
C220 C 0.82577 0.01463 0.71189 0.0
C221 C 0.77894 0.01239 0.73287 0.0
C222 C 0.73953 0.00743 0.6981 0.0
C223 C 0.66979 0.86864 0.67966 0.0
C224 C 0.61543 0.94959 0.65248 0.0
C225 C 0.69088 0.90807 0.65325 0.0
N226 N 0.66357 0.94762 0.63934 0.0
C227 C 0.59314 0.91091 0.67897 0.0
C228 C 0.62045 0.86995 0.69201 0.0
C229 C 0.60524 0.02826 0.53633 0.0
C230 C 0.73396 0.07122 0.38343 0.0
C231 C 0.64468 0.0942 0.42767 0.0
C232 C 0.64772 0.08267 0.37328 0.0
C233 C 0.69269 0.07106 0.35113 0.0
N234 N 0.68533 0.0943 0.45912 0.0
C235 C 0.72955 0.08302 0.43764 0.0
Co236 Co 0.51344 0.81233 0.90694 0.0
Co237 Co 0.40272 0.82319 0.96554 0.0
O238 O 0.4611 0.78507 0.95033 0.0
C239 C 0.56537 0.76857 0.00036 0.0
O240 O 0.53374 0.78869 0.03285 0.0
C241 C 0.36174 0.72659 0.93445 0.0
O242 O 0.38785 0.72763 0.89048 0.0
O243 O 0.39075 0.82953 0.88743 0.0
O244 O 0.46606 0.84945 0.86117 0.0
H245 H 0.28597 0.96154 0.9386 0.0
H246 H 0.50551 0.70566 0.92063 0.0
O247 O 0.56214 0.77519 0.95002 0.0
H248 H 0.50031 0.73332 0.72555 0.0
H249 H 0.67698 0.8099 0.81683 0.0
H250 H 0.53614 0.91097 0.86639 0.0
H251 H 0.50929 0.80221 0.78802 0.0
H252 H 0.60545 0.77313 0.86024 0.0
O253 O 0.36385 0.76176 0.96762 0.0
H254 H 0.3607 0.91438 0.92225 0.0
H255 H 0.31773 0.81002 0.03816 0.0
H256 H 0.6065 0.94909 0.82248 0.0
H257 H 0.49674 0.63563 0.85955 0.0
H258 H 0.67818 0.89868 0.79874 0.0
H259 H 0.49399 0.64929 0.76126 0.0
O260 O 0.51836 0.86813 0.95695 0.0
H261 H 0.44564 0.73152 0.13301 0.0
H262 H 0.40518 0.89231 0.05789 0.0
H263 H 0.42301 0.88476 0.15433 0.0
H264 H 0.44334 0.80389 0.19251 0.0
H265 H 0.42803 0.74078 0.03668 0.0
H266 H 0.24233 0.85586 0.05547 0.0
H267 H 0.22615 0.93232 0.00565 0.0
O268 O 0.43975 0.88632 0.96473 0.0
C269 C 0.4203 0.84683 0.85309 0.0
C270 C 0.29268 0.92837 0.96071 0.0
C271 C 0.26816 0.86902 0.02625 0.0
N272 N 0.3438 0.85974 0.97958 0.0
C273 C 0.33501 0.90158 0.95173 0.0
C274 C 0.31089 0.84318 0.01621 0.0
C275 C 0.25912 0.91193 0.99829 0.0
C276 C 0.5047 0.71181 0.87788 0.0
N277 N 0.5081 0.75789 0.85791 0.0
C278 C 0.49959 0.67206 0.8435 0.0
C279 C 0.49799 0.67976 0.78836 0.0
C280 C 0.50151 0.72689 0.76829 0.0
C281 C 0.50651 0.76575 0.80387 0.0
C282 C 0.64613 0.83231 0.82744 0.0
C283 C 0.56658 0.88853 0.85492 0.0
C284 C 0.60545 0.81167 0.85186 0.0
N285 N 0.56654 0.83985 0.86579 0.0
C286 C 0.60655 0.91042 0.8305 0.0
C287 C 0.64679 0.88213 0.8173 0.0
C288 C 0.48449 0.89812 0.96764 0.0
C289 C 0.43668 0.76692 0.11689 0.0
C290 C 0.41421 0.85703 0.07413 0.0
C291 C 0.42412 0.85296 0.12882 0.0
C292 C 0.43547 0.80756 0.15022 0.0
N293 N 0.41546 0.81699 0.04169 0.0
C294 C 0.42647 0.77236 0.06241 0.0
Co295 Co 0.824 0.60527 0.04015 0.0
Co296 Co 0.81772 0.49457 0.09988 0.0
O297 O 0.78863 0.54516 0.05505 0.0
C298 C 0.72599 0.64464 0.06889 0.0
O299 O 0.72736 0.62085 0.11445 0.0
C300 C 0.77601 0.44028 0.00678 0.0
O301 O 0.79419 0.4729 0.97417 0.0
O302 O 0.87457 0.49168 0.05104 0.0
O303 O 0.8887 0.5712 0.04279 0.0
H304 H 0.95646 0.41104 0.19292 0.0
H305 H 0.74444 0.57571 0.96728 0.0
O306 O 0.7611 0.64137 0.03593 0.0
H307 H 0.88998 0.58645 0.85299 0.0
H308 H 0.85129 0.76589 0.94829 0.0
H309 H 0.91051 0.65306 0.08714 0.0
H310 H 0.89483 0.60534 0.94938 0.0
H311 H 0.80902 0.68842 0.96511 0.0
O312 O 0.78348 0.4435 0.05699 0.0
H313 H 0.91611 0.47816 0.14492 0.0
H314 H 0.78274 0.40085 0.1465 0.0
H315 H 0.95404 0.72999 0.07148 0.0
H316 H 0.73782 0.55707 0.8709 0.0
H317 H 0.92452 0.787 0.00151 0.0
H318 H 0.81101 0.56222 0.8131 0.0
O319 O 0.82803 0.61816 0.11827 0.0
H320 H 0.63995 0.50448 0.14352 0.0
H321 H 0.8055 0.4993 0.21857 0.0
H322 H 0.7354 0.50587 0.27953 0.0
H323 H 0.65187 0.50849 0.24205 0.0
H324 H 0.71115 0.49812 0.08397 0.0
H325 H 0.82185 0.33273 0.1942 0.0
H326 H 0.90952 0.33734 0.21703 0.0
O327 O 0.85162 0.54421 0.14557 0.0
C328 C 0.90275 0.52702 0.04003 0.0
C329 C 0.91832 0.40856 0.18294 0.0
C330 C 0.84279 0.36453 0.1835 0.0
N331 N 0.84711 0.44343 0.1427 0.0
C332 C 0.89516 0.44656 0.15598 0.0
C333 C 0.82083 0.40325 0.15654 0.0
C334 C 0.89197 0.36713 0.19632 0.0
C335 C 0.77634 0.57851 0.94228 0.0
N336 N 0.81995 0.59163 0.96397 0.0
C337 C 0.77241 0.56772 0.88778 0.0
C338 C 0.81351 0.57051 0.85539 0.0
C339 C 0.85784 0.58404 0.87777 0.0
C340 C 0.86041 0.5945 0.93245 0.0
C341 C 0.86464 0.74126 0.97872 0.0
C342 C 0.89758 0.67754 0.05645 0.0
C343 C 0.84085 0.69734 0.98843 0.0
N344 N 0.85773 0.66589 0.02652 0.0
C345 C 0.92231 0.72112 0.04785 0.0
C346 C 0.90571 0.75309 0.00861 0.0
C347 C 0.84564 0.5897 0.15358 0.0
C348 C 0.67615 0.50325 0.16033 0.0
C349 C 0.76928 0.50043 0.20194 0.0
C350 C 0.72972 0.5041 0.23667 0.0
C351 C 0.68287 0.50555 0.21562 0.0
N352 N 0.76238 0.4981 0.14775 0.0
C353 C 0.71658 0.49951 0.12682 0.0
Co354 Co 0.49756 0.19221 0.91114 0.0
Co355 Co 0.6096 0.1828 0.96789 0.0
O356 O 0.54932 0.21932 0.95612 0.0
C357 C 0.44543 0.23746 0.00517 0.0
O358 O 0.48303 0.23024 0.03639 0.0
C359 C 0.64935 0.28095 0.94051 0.0
O360 O 0.62405 0.28074 0.89592 0.0
O361 O 0.62068 0.18065 0.88933 0.0
O362 O 0.54596 0.1594 0.86304 0.0
H363 H 0.73129 0.05123 0.92899 0.0
H364 H 0.50158 0.2982 0.93178 0.0
O365 O 0.44651 0.22451 0.9562 0.0
H366 H 0.50733 0.28118 0.73524 0.0
H367 H 0.33509 0.19269 0.81825 0.0
H368 H 0.4798 0.0952 0.86301 0.0
H369 H 0.50101 0.20881 0.793 0.0
H370 H 0.4039 0.22971 0.86655 0.0
O371 O 0.64662 0.24525 0.97283 0.0
H372 H 0.65468 0.09639 0.9171 0.0
H373 H 0.69503 0.1949 0.04034 0.0
H374 H 0.41204 0.05696 0.81427 0.0
H375 H 0.50755 0.37162 0.87549 0.0
H376 H 0.33859 0.10547 0.79263 0.0
H377 H 0.51058 0.36333 0.77646 0.0
O378 O 0.49512 0.13378 0.95762 0.0
H379 H 0.57084 0.26557 0.14225 0.0
H380 H 0.61037 0.10921 0.05596 0.0
H381 H 0.59562 0.1118 0.15326 0.0
H382 H 0.57589 0.19045 0.19712 0.0
H383 H 0.58498 0.26117 0.04482 0.0
H384 H 0.77223 0.15097 0.05337 0.0
H385 H 0.79068 0.07842 0.99763 0.0
O386 O 0.57457 0.11852 0.96423 0.0
C387 C 0.59128 0.16447 0.85425 0.0
C388 C 0.7236 0.08266 0.95369 0.0
C389 C 0.74657 0.13864 0.02348 0.0
N390 N 0.67005 0.14781 0.9785 0.0
C391 C 0.68021 0.10832 0.94723 0.0
C392 C 0.70279 0.16339 0.0159 0.0
C393 C 0.7569 0.09795 0.99218 0.0
C394 C 0.50243 0.29436 0.88872 0.0
N395 N 0.5006 0.24932 0.86574 0.0
C396 C 0.50599 0.33603 0.85705 0.0
C397 C 0.50775 0.33135 0.80149 0.0
C398 C 0.50594 0.28528 0.77833 0.0
C399 C 0.50242 0.24443 0.81127 0.0
C400 C 0.36677 0.17107 0.82786 0.0
C401 C 0.44835 0.11686 0.85295 0.0
C402 C 0.40588 0.19184 0.85515 0.0
N403 N 0.44581 0.16463 0.86787 0.0
C404 C 0.40999 0.0949 0.82555 0.0
C405 C 0.36877 0.12215 0.81346 0.0
C406 C 0.53031 0.10489 0.96713 0.0
C407 C 0.57943 0.23108 0.12362 0.0
C408 C 0.60118 0.14347 0.07455 0.0
C409 C 0.59317 0.14476 0.12977 0.0
C410 C 0.58219 0.18891 0.15436 0.0
N411 N 0.59829 0.18497 0.04462 0.0
C412 C 0.58768 0.2284 0.06849 0.0
Co413 Co 0.18324 0.39969 0.03533 0.0
Co414 Co 0.19639 0.51113 0.09266 0.0
O415 O 0.22244 0.4578 0.04918 0.0
C416 C 0.27955 0.35733 0.0648 0.0
O417 O 0.28096 0.38652 0.10641 0.0
C418 C 0.24049 0.56274 0.99872 0.0
O419 O 0.22207 0.53033 0.96594 0.0
O420 O 0.13981 0.51653 0.04365 0.0
O421 O 0.12108 0.43791 0.03694 0.0
H422 H 0.06253 0.60708 0.17957 0.0
H423 H 0.26512 0.42197 0.9626 0.0
O424 O 0.24363 0.35889 0.03268 0.0
H425 H 0.11964 0.42091 0.84746 0.0
H426 H 0.1436 0.2409 0.94477 0.0
H427 H 0.0934 0.35893 0.08285 0.0
H428 H 0.11292 0.40387 0.94411 0.0
H429 H 0.19093 0.31565 0.96004 0.0
O430 O 0.23321 0.55954 0.04892 0.0
H431 H 0.09855 0.53636 0.13384 0.0
H432 H 0.23773 0.60227 0.13928 0.0
H433 H 0.04466 0.28498 0.06854 0.0
H434 H 0.27356 0.43865 0.86598 0.0
H435 H 0.06973 0.22525 0.99914 0.0
H436 H 0.20043 0.43831 0.80775 0.0
O437 O 0.17769 0.38856 0.11379 0.0
H438 H 0.37351 0.49353 0.13657 0.0
H439 H 0.20834 0.50667 0.21142 0.0
H440 H 0.27812 0.49745 0.2725 0.0
H441 H 0.36145 0.49092 0.23512 0.0
H442 H 0.30262 0.50241 0.0769 0.0
H443 H 0.20309 0.67412 0.18452 0.0
H444 H 0.11472 0.6772 0.20404 0.0
O445 O 0.15937 0.46462 0.13931 0.0
C446 C 0.10949 0.48273 0.03394 0.0
C447 C 0.10105 0.60629 0.17103 0.0
C448 C 0.17992 0.64393 0.17371 0.0
N449 N 0.17025 0.56492 0.13415 0.0
C450 C 0.12175 0.56609 0.14556 0.0
C451 C 0.19936 0.60306 0.14824 0.0
C452 C 0.13034 0.64564 0.18465 0.0
C453 C 0.23321 0.42126 0.93741 0.0
N454 N 0.18864 0.41178 0.95897 0.0
C455 C 0.23818 0.43094 0.88277 0.0
C456 C 0.19712 0.43085 0.85015 0.0
C457 C 0.15178 0.42114 0.87241 0.0
C458 C 0.14818 0.41171 0.92723 0.0
C459 C 0.13234 0.26657 0.97521 0.0
C460 C 0.10456 0.33318 0.05253 0.0
C461 C 0.15917 0.30884 0.98423 0.0
N462 N 0.14516 0.34151 0.02249 0.0
C463 C 0.0768 0.29134 0.04462 0.0
C464 C 0.09089 0.25784 0.0057 0.0
C465 C 0.16085 0.41885 0.14779 0.0
C466 C 0.3374 0.49648 0.15334 0.0
C467 C 0.24448 0.50368 0.19483 0.0
C468 C 0.28386 0.49858 0.22963 0.0
C469 C 0.3306 0.49495 0.20863 0.0
N470 N 0.25147 0.50524 0.14065 0.0
C471 C 0.29716 0.50167 0.11977 0.0
C472 C 0.16007 0.35947 0.22387 0.0
C473 C 0.14006 0.40052 0.19853 0.0
C474 C 0.14191 0.34295 0.27316 0.0
C475 C 0.10248 0.36632 0.2982 0.0
H476 H 0.1905 0.34048 0.20597 0.0
H477 H 0.15843 0.31126 0.29139 0.0
S478 S 0.03665 0.47495 0.2478 0.0
N479 N 0.07824 0.46372 0.20187 0.0
N480 N 0.04426 0.43279 0.29403 0.0
C481 C 0.08194 0.40716 0.27299 0.0
C482 C 0.10071 0.42424 0.22329 0.0
C483 C 0.34364 0.86019 0.7275 0.0
C484 C 0.36494 0.90034 0.7018 0.0
C485 C 0.36105 0.84366 0.77713 0.0
C486 C 0.40101 0.86607 0.80208 0.0
H487 H 0.31292 0.84184 0.70947 0.0
H488 H 0.34368 0.8126 0.79561 0.0
S489 S 0.47009 0.97205 0.75075 0.0
N490 N 0.42831 0.96176 0.70473 0.0
N491 N 0.46109 0.93066 0.79751 0.0
C492 C 0.42273 0.90607 0.77658 0.0
C493 C 0.40466 0.92324 0.72657 0.0
C494 C 0.91709 0.604 0.28219 0.0
C495 C 0.89651 0.64561 0.30576 0.0
C496 C 0.90014 0.58621 0.23317 0.0
C497 C 0.86262 0.60997 0.20518 0.0
H498 H 0.94634 0.5847 0.30201 0.0
H499 H 0.91707 0.55387 0.21682 0.0
S500 S 0.79717 0.72093 0.24952 0.0
N501 N 0.83676 0.71024 0.29784 0.0
N502 N 0.80538 0.67743 0.20475 0.0
C503 C 0.84192 0.65188 0.22814 0.0
C504 C 0.85865 0.66948 0.27873 0.0
C505 C 0.58755 0.10828 0.77618 0.0
C506 C 0.61021 0.14762 0.80207 0.0
C507 C 0.60409 0.09139 0.72659 0.0
C508 C 0.64324 0.11385 0.70033 0.0
H509 H 0.55713 0.08987 0.7947 0.0
H510 H 0.58574 0.06066 0.70851 0.0
S511 S 0.71445 0.21876 0.75053 0.0
N512 N 0.67371 0.20878 0.79779 0.0
N513 N 0.7042 0.17762 0.70364 0.0
C514 C 0.66589 0.15362 0.72534 0.0
C515 C 0.64961 0.17027 0.77651 0.0
C516 C 0.26674 0.14151 0.43672 0.0
C517 C 0.24916 0.11014 0.47672 0.0
C518 C 0.24074 0.18334 0.42162 0.0
C519 C 0.19592 0.19528 0.4456 0.0
H520 H 0.30179 0.13489 0.41844 0.0
H521 H 0.25674 0.2072 0.39202 0.0
S522 S 0.1311 0.1213 0.54755 0.0
N523 N 0.18216 0.09153 0.53665 0.0
N524 N 0.13315 0.16918 0.50789 0.0
C525 C 0.17677 0.16259 0.48353 0.0
C526 C 0.2034 0.12035 0.49918 0.0
C527 C 0.14445 0.82679 0.57815 0.0
C528 C 0.18978 0.82122 0.55259 0.0
C529 C 0.1044 0.79782 0.56378 0.0
C530 C 0.1083 0.76256 0.52318 0.0
H531 H 0.1394 0.85462 0.60836 0.0
H532 H 0.06978 0.80439 0.58307 0.0
S533 S 0.22007 0.7286 0.4492 0.0
N534 N 0.23682 0.77379 0.48849 0.0
N535 N 0.16188 0.7202 0.46161 0.0
C536 C 0.15381 0.75506 0.49924 0.0
C537 C 0.19444 0.78416 0.5139 0.0
C538 C 0.77598 0.86508 0.51988 0.0
C539 C 0.76547 0.90353 0.48454 0.0
C540 C 0.80631 0.82664 0.50494 0.0
C541 C 0.82794 0.82463 0.45389 0.0
H542 H 0.76066 0.86444 0.55982 0.0
H543 H 0.81297 0.79834 0.5342 0.0
S544 S 0.81228 0.91607 0.3458 0.0
N545 N 0.77904 0.9372 0.39573 0.0
N546 N 0.83635 0.86468 0.36747 0.0
C547 C 0.81769 0.86268 0.41778 0.0
C548 C 0.78637 0.90204 0.43307 0.0
C549 C 0.86331 0.18103 0.57392 0.0
C550 C 0.81701 0.18641 0.55058 0.0
C551 C 0.90214 0.21136 0.55899 0.0
C552 C 0.89588 0.2478 0.52008 0.0
H553 H 0.87004 0.15225 0.60258 0.0
H554 H 0.93764 0.2049 0.57628 0.0
S555 S 0.78063 0.28214 0.45332 0.0
N556 N 0.76638 0.23528 0.49136 0.0
N557 N 0.83914 0.29119 0.46309 0.0
C558 C 0.84938 0.2552 0.49869 0.0
C559 C 0.81 0.22478 0.51399 0.0
C560 C 0.27599 0.64504 0.01205 0.0
C561 C 0.26996 0.60418 0.97881 0.0
C562 C 0.30519 0.68412 0.99682 0.0
C563 C 0.33012 0.68435 0.94758 0.0
H564 H 0.25802 0.64707 0.05057 0.0
H565 H 0.30843 0.71426 0.02452 0.0
S566 S 0.32646 0.58621 0.84533 0.0
N567 N 0.29098 0.56628 0.89389 0.0
N568 N 0.34634 0.63996 0.86505 0.0
C569 C 0.32414 0.64392 0.91344 0.0
C570 C 0.29392 0.60391 0.92902 0.0
C571 C 0.68274 0.6968 0.00264 0.0
C572 C 0.68397 0.67597 0.05414 0.0
C573 C 0.64458 0.72678 0.98641 0.0
C574 C 0.60563 0.73771 0.02081 0.0
H575 H 0.7115 0.68986 0.97404 0.0
H576 H 0.64592 0.74158 0.94625 0.0
S577 S 0.59065 0.69264 0.15994 0.0
N578 N 0.64247 0.66847 0.1398 0.0
N579 N 0.57036 0.72519 0.10904 0.0
C580 C 0.60618 0.71748 0.07262 0.0
C581 C 0.6453 0.6865 0.08926 0.0
C582 C 0.73479 0.36069 0.02109 0.0
C583 C 0.74504 0.39989 0.98675 0.0
C584 C 0.70404 0.32289 0.00547 0.0
C585 C 0.68173 0.32234 0.95471 0.0
H586 H 0.75057 0.359 0.06079 0.0
H587 H 0.69758 0.29395 0.03398 0.0
S588 S 0.6965 0.41626 0.84915 0.0
N589 N 0.73051 0.43586 0.89919 0.0
N590 N 0.67244 0.36455 0.86964 0.0
C591 C 0.69174 0.36115 0.91958 0.0
C592 C 0.72348 0.39985 0.93556 0.0
C593 C 0.40635 0.30094 0.06368 0.0
C594 C 0.40209 0.26404 0.02487 0.0
C595 C 0.36632 0.33026 0.07756 0.0
C596 C 0.32059 0.32357 0.05325 0.0
H597 H 0.44123 0.30849 0.08191 0.0
H598 H 0.37168 0.35927 0.1063 0.0
S599 S 0.28911 0.22684 0.9551 0.0
N600 N 0.34759 0.21914 0.96658 0.0
N601 N 0.27276 0.27347 0.99258 0.0
C602 C 0.31554 0.285 0.01648 0.0
C603 C 0.35615 0.25546 0.00233 0.0
C604 C 0.03998 0.53818 0.47094 0.0
C605 C 0.99212 0.5553 0.47807 0.0
C606 C 0.05066 0.48828 0.47056 0.0
C607 C 0.01395 0.45324 0.47728 0.0
H608 H 0.06937 0.56335 0.46329 0.0
H609 H 0.08767 0.47722 0.46238 0.0
S610 S 0.88386 0.47855 0.50537 0.0
N611 N 0.90858 0.5327 0.49798 0.0
N612 N 0.92862 0.43934 0.49729 0.0
C613 C 0.96652 0.46983 0.48803 0.0
C614 C 0.95564 0.52063 0.48844 0.0
C615 C 0.53682 0.96827 0.53273 0.0
C616 C 0.55292 0.01662 0.52826 0.0
C617 C 0.48728 0.95696 0.53303 0.0
C618 C 0.45148 0.99348 0.52909 0.0
H619 H 0.56256 0.93886 0.53804 0.0
H620 H 0.47716 0.91926 0.53852 0.0
S621 S 0.47402 0.12525 0.50938 0.0
N622 N 0.52861 0.10093 0.51412 0.0
N623 N 0.4357 0.07956 0.51535 0.0
C624 C 0.46695 0.04167 0.52154 0.0
C625 C 0.51751 0.05323 0.5209 0.0
C626 C 0.47118 0.03563 0.97303 0.0
C627 C 0.5195 0.05222 0.97523 0.0
C628 C 0.46016 0.98589 0.97344 0.0
C629 C 0.49695 0.9503 0.97587 0.0
H630 H 0.44141 0.06115 0.96904 0.0
H631 H 0.42243 0.97544 0.96963 0.0
S632 S 0.62916 0.97406 0.98897 0.0
N633 N 0.60431 0.02853 0.98516 0.0
N634 N 0.58359 0.93534 0.98559 0.0
C635 C 0.54527 0.96628 0.98114 0.0
C636 C 0.55652 0.01704 0.98092 0.0
C637 C 0.02205 0.4579 0.0301 0.0
C638 C 0.05718 0.49504 0.02705 0.0
C639 C 0.97232 0.46848 0.03189 0.0
C640 C 0.95524 0.5167 0.0304 0.0
H641 H 0.03289 0.42017 0.03336 0.0
H642 H 0.94725 0.43845 0.03635 0.0
S643 S 0.03183 0.6272 0.01529 0.0
N644 N 0.07106 0.5819 0.01752 0.0
N645 N 0.97778 0.60187 0.02025 0.0
C646 C 0.98985 0.5541 0.02398 0.0
C647 C 0.04065 0.54328 0.02247 0.0
loop_
_geom_bond_atom_site_label_1
_geom_bond_atom_site_label_2
_geom_bond_distance
_geom_bond_site_symmetry_2
_ccdc_geom_bond_type
Co0 O2 2.143 . S
Co0 O8 2.074 . S
Co0 O11 2.093 1_455 S
Co0 O24 2.097 . S
Co0 N41 2.151 . S
Co0 N49 2.214 1_455 S
Co1 O2 2.160 . S
Co1 O7 2.058 . S
Co1 O17 2.057 . S
Co1 O32 2.037 . S
Co1 N36 2.145 . S
Co1 N57 2.257 . S
O2 Co0 2.143 . S
O2 Co1 2.160 . S
C3 O4 1.278 . S
C3 O11 1.224 . S
O4 C3 1.278 . S
C5 O6 1.245 . S
C5 O17 1.232 . S
O6 C5 1.245 . S
O7 Co1 2.058 . S
O7 C33 1.269 . S
O8 Co0 2.074 . S
O8 C33 1.257 . S
H9 C34 0.930 . S
H10 C40 0.930 . S
O11 Co0 2.093 1_655 S
O11 C3 1.224 . S
H12 C44 0.927 1_455 S
H13 C46 0.930 . S
H14 C47 0.930 . S
H15 C45 0.929 . S
H16 C48 0.928 . S
O17 Co1 2.057 . S
O17 C5 1.232 . S
H18 C37 0.929 . S
H19 C38 0.929 . S
H20 C50 0.931 . S
H21 C42 0.929 . S
H22 C51 0.930 . S
H23 C43 0.931 . S
O24 Co0 2.097 . S
O24 C52 1.214 . S
H25 C53 0.929 . S
H26 C54 0.929 . S
H27 C55 0.930 . S
H28 C56 0.929 . S
H29 C58 0.930 . S
H30 C35 0.930 . S
H31 C39 0.930 . S
O32 Co1 2.037 . S
O32 C52 1.234 . S
C33 O7 1.269 . S
C33 O8 1.257 . S
C34 H9 0.930 . S
C34 C37 1.388 . S
C34 C39 1.418 . S
C35 H30 0.930 . S
C35 C38 1.404 . S
C35 C39 1.353 . S
N36 Co1 2.145 . S
N36 C37 1.397 . S
N36 C38 1.334 . S
C37 H18 0.929 . S
C37 C34 1.388 . S
C37 N36 1.397 . S
C38 H19 0.929 . S
C38 C35 1.404 . S
C38 N36 1.334 . S
C39 H31 0.930 . S
C39 C34 1.418 . S
C39 C35 1.353 . S
C40 H10 0.930 . S
C40 N41 1.330 1_655 S
C40 C42 1.446 . S
N41 Co0 2.151 . S
N41 C40 1.330 1_455 S
N41 C45 1.418 . S
C42 H21 0.929 . S
C42 C40 1.446 . S
C42 C43 1.332 . S
C43 H23 0.931 . S
C43 C42 1.332 . S
C43 C44 1.267 . S
C44 H12 0.927 1_655 S
C44 C43 1.267 . S
C44 C45 1.251 1_655 S
C45 H15 0.929 . S
C45 N41 1.418 . S
C45 C44 1.251 1_455 S
C46 H13 0.930 . S
C46 C48 1.406 . S
C46 C51 1.261 . S
C47 H14 0.930 . S
C47 N49 1.325 . S
C47 C50 1.357 . S
C48 H16 0.928 . S
C48 C46 1.406 . S
C48 N49 1.261 . S
N49 Co0 2.214 1_655 S
N49 C47 1.325 . S
N49 C48 1.261 . S
C50 H20 0.931 . S
C50 C47 1.357 . S
C50 C51 1.312 . S
C51 H22 0.930 . S
C51 C46 1.261 . S
C51 C50 1.312 . S
C52 O24 1.214 . S
C52 O32 1.234 . S
C53 H25 0.929 . S
C53 C56 1.391 . S
C53 C58 1.391 . S
C54 H26 0.929 . S
C54 C55 1.390 . S
C54 N57 1.391 . S
C55 H27 0.930 . S
C55 C54 1.390 . S
C55 C56 1.392 . S
C56 H28 0.929 . S
C56 C53 1.391 . S
C56 C55 1.392 . S
N57 Co1 2.257 . S
N57 C54 1.391 . S
N57 C58 1.388 . S
C58 H29 0.930 . S
C58 C53 1.391 . S
C58 N57 1.388 . S
Co59 O61 2.143 . S
Co59 O67 2.074 . S
Co59 O70 2.093 1_565 S
Co59 O83 2.097 . S
Co59 N100 2.151 . S
Co59 N108 2.214 1_565 S
Co60 O61 2.160 . S
Co60 O66 2.058 . S
Co60 O76 2.057 . S
Co60 O91 2.037 . S
Co60 N95 2.145 . S
Co60 N116 2.257 . S
O61 Co59 2.143 . S
O61 Co60 2.160 . S
C62 O63 1.278 . S
C62 O70 1.224 . S
O63 C62 1.278 . S
C64 O65 1.245 . S
C64 O76 1.232 . S
O65 C64 1.245 . S
O66 Co60 2.058 . S
O66 C92 1.269 . S
O67 Co59 2.074 . S
O67 C92 1.257 . S
H68 C93 0.930 . S
H69 C99 0.930 . S
O70 Co59 2.093 1_545 S
O70 C62 1.224 . S
H71 C103 0.929 1_565 S
H72 C105 0.930 . S
H73 C106 0.930 . S
H74 C104 0.929 . S
H75 C107 0.928 . S
O76 Co60 2.057 . S
O76 C64 1.232 . S
H77 C96 0.929 . S
H78 C97 0.929 . S
H79 C109 0.931 . S
H80 C101 0.929 . S
H81 C110 0.930 . S
H82 C102 0.931 . S
O83 Co59 2.097 . S
O83 C111 1.214 . S
H84 C112 0.929 . S
H85 C113 0.929 . S
H86 C114 0.930 . S
H87 C115 0.929 . S
H88 C117 0.930 . S
H89 C94 0.930 . S
H90 C98 0.930 . S
O91 Co60 2.037 . S
O91 C111 1.234 . S
C92 O66 1.269 . S
C92 O67 1.257 . S
C93 H68 0.930 . S
C93 C96 1.388 . S
C93 C98 1.418 . S
C94 H89 0.930 . S
C94 C97 1.404 . S
C94 C98 1.353 . S
N95 Co60 2.145 . S
N95 C96 1.397 . S
N95 C97 1.334 . S
C96 H77 0.929 . S
C96 C93 1.388 . S
C96 N95 1.397 . S
C97 H78 0.929 . S
C97 C94 1.404 . S
C97 N95 1.334 . S
C98 H90 0.930 . S
C98 C93 1.418 . S
C98 C94 1.353 . S
C99 H69 0.930 . S
C99 N100 1.330 1_545 S
C99 C101 1.446 . S
N100 Co59 2.151 . S
N100 C99 1.330 1_565 S
N100 C104 1.418 . S
C101 H80 0.929 . S
C101 C99 1.446 . S
C101 C102 1.332 . S
C102 H82 0.931 . S
C102 C101 1.332 . S
C102 C103 1.267 . S
C103 H71 0.929 1_545 S
C103 C102 1.267 . S
C103 C104 1.251 1_545 S
C104 H74 0.929 . S
C104 N100 1.418 . S
C104 C103 1.251 1_565 S
C105 H72 0.930 . S
C105 C107 1.406 . S
C105 C110 1.261 . S
C106 H73 0.930 . S
C106 N108 1.325 . S
C106 C109 1.357 . S
C107 H75 0.928 . S
C107 C105 1.406 . S
C107 N108 1.261 . S
N108 Co59 2.214 1_545 S
N108 C106 1.325 . S
N108 C107 1.261 . S
C109 H79 0.931 . S
C109 C106 1.357 . S
C109 C110 1.312 . S
C110 H81 0.930 . S
C110 C105 1.261 . S
C110 C109 1.312 . S
C111 O83 1.214 . S
C111 O91 1.234 . S
C112 H84 0.929 . S
C112 C115 1.391 . S
C112 C117 1.391 . S
C113 H85 0.929 . S
C113 C114 1.390 . S
C113 N116 1.391 . S
C114 H86 0.930 . S
C114 C113 1.390 . S
C114 C115 1.392 . S
C115 H87 0.929 . S
C115 C112 1.391 . S
C115 C114 1.392 . S
N116 Co60 2.257 . S
N116 C113 1.391 . S
N116 C117 1.388 . S
C117 H88 0.930 . S
C117 C112 1.391 . S
C117 N116 1.388 . S
Co118 O120 2.143 . S
Co118 O126 2.074 . S
Co118 O129 2.093 1_655 S
Co118 O142 2.097 . S
Co118 N159 2.151 . S
Co118 N167 2.214 1_655 S
Co119 O120 2.160 . S
Co119 O125 2.058 . S
Co119 O135 2.057 . S
Co119 O150 2.037 . S
Co119 N154 2.145 . S
Co119 N175 2.257 . S
O120 Co118 2.143 . S
O120 Co119 2.160 . S
C121 O122 1.278 . S
C121 O129 1.224 . S
O122 C121 1.278 . S
C123 O124 1.245 . S
C123 O135 1.232 . S
O124 C123 1.245 . S
O125 Co119 2.058 . S
O125 C151 1.269 . S
O126 Co118 2.074 . S
O126 C151 1.257 . S
H127 C152 0.930 . S
H128 C158 0.930 . S
O129 Co118 2.093 1_455 S
O129 C121 1.224 . S
H130 C162 0.927 1_655 S
H131 C164 0.930 . S
H132 C165 0.930 . S
H133 C163 0.929 . S
H134 C166 0.928 . S
O135 Co119 2.057 . S
O135 C123 1.232 . S
H136 C155 0.929 . S
H137 C156 0.929 . S
H138 C168 0.931 . S
H139 C160 0.929 . S
H140 C169 0.930 . S
H141 C161 0.931 . S
O142 Co118 2.097 . S
O142 C170 1.214 . S
H143 C171 0.929 . S
H144 C172 0.929 . S
H145 C173 0.930 . S
H146 C174 0.929 . S
H147 C176 0.930 . S
H148 C153 0.930 . S
H149 C157 0.930 . S
O150 Co119 2.037 . S
O150 C170 1.234 . S
C151 O125 1.269 . S
C151 O126 1.257 . S
C152 H127 0.930 . S
C152 C155 1.388 . S
C152 C157 1.418 . S
C153 H148 0.930 . S
C153 C156 1.404 . S
C153 C157 1.353 . S
N154 Co119 2.145 . S
N154 C155 1.397 . S
N154 C156 1.334 . S
C155 H136 0.929 . S
C155 C152 1.388 . S
C155 N154 1.397 . S
C156 H137 0.929 . S
C156 C153 1.404 . S
C156 N154 1.334 . S
C157 H149 0.930 . S
C157 C152 1.418 . S
C157 C153 1.353 . S
C158 H128 0.930 . S
C158 N159 1.330 1_455 S
C158 C160 1.446 . S
N159 Co118 2.151 . S
N159 C158 1.330 1_655 S
N159 C163 1.418 . S
C160 H139 0.929 . S
C160 C158 1.446 . S
C160 C161 1.332 . S
C161 H141 0.931 . S
C161 C160 1.332 . S
C161 C162 1.267 . S
C162 H130 0.927 1_455 S
C162 C161 1.267 . S
C162 C163 1.251 1_455 S
C163 H133 0.929 . S
C163 N159 1.418 . S
C163 C162 1.251 1_655 S
C164 H131 0.930 . S
C164 C166 1.406 . S
C164 C169 1.261 . S
C165 H132 0.930 . S
C165 N167 1.325 . S
C165 C168 1.357 . S
C166 H134 0.928 . S
C166 C164 1.406 . S
C166 N167 1.261 . S
N167 Co118 2.214 1_455 S
N167 C165 1.325 . S
N167 C166 1.261 . S
C168 H138 0.931 . S
C168 C165 1.357 . S
C168 C169 1.312 . S
C169 H140 0.930 . S
C169 C164 1.261 . S
C169 C168 1.312 . S
C170 O142 1.214 . S
C170 O150 1.234 . S
C171 H143 0.929 . S
C171 C174 1.391 . S
C171 C176 1.391 . S
C172 H144 0.929 . S
C172 C173 1.390 . S
C172 N175 1.391 . S
C173 H145 0.930 . S
C173 C172 1.390 . S
C173 C174 1.392 . S
C174 H146 0.929 . S
C174 C171 1.391 . S
C174 C173 1.392 . S
N175 Co119 2.257 . S
N175 C172 1.391 . S
N175 C176 1.388 . S
C176 H147 0.930 . S
C176 C171 1.391 . S
C176 N175 1.388 . S
Co177 O179 2.143 . S
Co177 O185 2.074 . S
Co177 O188 2.093 1_545 S
Co177 O201 2.097 . S
Co177 N218 2.151 . S
Co177 N226 2.214 1_545 S
Co178 O179 2.160 . S
Co178 O184 2.058 . S
Co178 O194 2.057 . S
Co178 O209 2.037 . S
Co178 N213 2.145 . S
Co178 N234 2.257 . S
O179 Co177 2.143 . S
O179 Co178 2.160 . S
C180 O181 1.278 . S
C180 O188 1.224 . S
O181 C180 1.278 . S
C182 O183 1.245 . S
C182 O194 1.232 . S
O183 C182 1.245 . S
O184 Co178 2.058 . S
O184 C210 1.269 . S
O185 Co177 2.074 . S
O185 C210 1.257 . S
H186 C211 0.930 . S
H187 C217 0.930 . S
O188 Co177 2.093 1_565 S
O188 C180 1.224 . S
H189 C221 0.929 1_545 S
H190 C223 0.930 . S
H191 C224 0.930 . S
H192 C222 0.929 . S
H193 C225 0.928 . S
O194 Co178 2.057 . S
O194 C182 1.232 . S
H195 C214 0.929 . S
H196 C215 0.929 . S
H197 C227 0.931 . S
H198 C219 0.929 . S
H199 C228 0.930 . S
H200 C220 0.931 . S
O201 Co177 2.097 . S
O201 C229 1.214 . S
H202 C230 0.929 . S
H203 C231 0.929 . S
H204 C232 0.930 . S
H205 C233 0.929 . S
H206 C235 0.930 . S
H207 C212 0.930 . S
H208 C216 0.930 . S
O209 Co178 2.037 . S
O209 C229 1.234 . S
C210 O184 1.269 . S
C210 O185 1.257 . S
C211 H186 0.930 . S
C211 C214 1.388 . S
C211 C216 1.418 . S
C212 H207 0.930 . S
C212 C215 1.404 . S
C212 C216 1.353 . S
N213 Co178 2.145 . S
N213 C214 1.397 . S
N213 C215 1.334 . S
C214 H195 0.929 . S
C214 C211 1.388 . S
C214 N213 1.397 . S
C215 H196 0.929 . S
C215 C212 1.404 . S
C215 N213 1.334 . S
C216 H208 0.930 . S
C216 C211 1.418 . S
C216 C212 1.353 . S
C217 H187 0.930 . S
C217 N218 1.330 1_565 S
C217 C219 1.446 . S
N218 Co177 2.151 . S
N218 C217 1.330 1_545 S
N218 C222 1.418 . S
C219 H198 0.929 . S
C219 C217 1.446 . S
C219 C220 1.332 . S
C220 H200 0.931 . S
C220 C219 1.332 . S
C220 C221 1.267 . S
C221 H189 0.929 1_565 S
C221 C220 1.267 . S
C221 C222 1.251 1_565 S
C222 H192 0.929 . S
C222 N218 1.418 . S
C222 C221 1.251 1_545 S
C223 H190 0.930 . S
C223 C225 1.406 . S
C223 C228 1.261 . S
C224 H191 0.930 . S
C224 N226 1.325 . S
C224 C227 1.357 . S
C225 H193 0.928 . S
C225 C223 1.406 . S
C225 N226 1.261 . S
N226 Co177 2.214 1_565 S
N226 C224 1.325 . S
N226 C225 1.261 . S
C227 H197 0.931 . S
C227 C224 1.357 . S
C227 C228 1.312 . S
C228 H199 0.930 . S
C228 C223 1.261 . S
C228 C227 1.312 . S
C229 O201 1.214 . S
C229 O209 1.234 . S
C230 H202 0.929 . S
C230 C233 1.391 . S
C230 C235 1.391 . S
C231 H203 0.929 . S
C231 C232 1.390 . S
C231 N234 1.391 . S
C232 H204 0.930 . S
C232 C231 1.390 . S
C232 C233 1.392 . S
C233 H205 0.929 . S
C233 C230 1.391 . S
C233 C232 1.392 . S
N234 Co178 2.257 . S
N234 C231 1.391 . S
N234 C235 1.388 . S
C235 H206 0.930 . S
C235 C230 1.391 . S
C235 N234 1.388 . S
Co236 O238 2.143 . S
Co236 O244 2.074 . S
Co236 O247 2.093 . S
Co236 O260 2.097 . S
Co236 N277 2.151 . S
Co236 N285 2.214 . S
Co237 O238 2.160 . S
Co237 O243 2.058 . S
Co237 O253 2.055 1_556 S
Co237 O268 2.037 . S
Co237 N272 2.145 1_556 S
Co237 N293 2.257 1_556 S
O238 Co236 2.143 . S
O238 Co237 2.160 . S
C239 O240 1.278 1_556 S
C239 O247 1.224 . S
O240 C239 1.278 1_554 S
C241 O242 1.245 . S
C241 O253 1.229 1_556 S
O242 C241 1.245 . S
O243 Co237 2.058 . S
O243 C269 1.269 . S
O244 Co236 2.074 . S
O244 C269 1.257 . S
H245 C270 0.930 1_556 S
H246 C276 0.930 . S
O247 Co236 2.093 . S
O247 C239 1.224 . S
H248 C280 0.929 . S
H249 C282 0.930 . S
H250 C283 0.930 . S
H251 C281 0.929 . S
H252 C284 0.928 . S
O253 Co237 2.055 1_554 S
O253 C241 1.229 1_554 S
H254 C273 0.929 . S
H255 C274 0.929 . S
H256 C286 0.931 . S
H257 C278 0.929 . S
H258 C287 0.930 . S
H259 C279 0.931 . S
O260 Co236 2.097 . S
O260 C288 1.214 . S
H261 C289 0.929 . S
H262 C290 0.929 . S
H263 C291 0.930 . S
H264 C292 0.929 . S
H265 C294 0.930 . S
H266 C271 0.930 . S
H267 C275 0.930 . S
O268 Co237 2.037 . S
O268 C288 1.234 . S
C269 O243 1.269 . S
C269 O244 1.257 . S
C270 H245 0.930 1_554 S
C270 C273 1.388 1_554 S
C270 C275 1.418 . S
C271 H266 0.930 . S
C271 C274 1.404 . S
C271 C275 1.353 . S
N272 Co237 2.145 1_554 S
N272 C273 1.397 1_554 S
N272 C274 1.334 . S
C273 H254 0.929 . S
C273 C270 1.388 1_556 S
C273 N272 1.397 1_556 S
C274 H255 0.929 . S
C274 C271 1.404 . S
C274 N272 1.334 . S
C275 H267 0.930 . S
C275 C270 1.418 . S
C275 C271 1.353 . S
C276 H246 0.930 . S
C276 N277 1.330 . S
C276 C278 1.446 . S
N277 Co236 2.151 . S
N277 C276 1.330 . S
N277 C281 1.418 . S
C278 H257 0.929 . S
C278 C276 1.446 . S
C278 C279 1.332 . S
C279 H259 0.931 . S
C279 C278 1.332 . S
C279 C280 1.267 . S
C280 H248 0.929 . S
C280 C279 1.267 . S
C280 C281 1.251 . S
C281 H251 0.929 . S
C281 N277 1.418 . S
C281 C280 1.251 . S
C282 H249 0.930 . S
C282 C284 1.406 . S
C282 C287 1.261 . S
C283 H250 0.930 . S
C283 N285 1.325 . S
C283 C286 1.357 . S
C284 H252 0.928 . S
C284 C282 1.406 . S
C284 N285 1.261 . S
N285 Co236 2.214 . S
N285 C283 1.325 . S
N285 C284 1.261 . S
C286 H256 0.931 . S
C286 C283 1.357 . S
C286 C287 1.312 . S
C287 H258 0.930 . S
C287 C282 1.261 . S
C287 C286 1.312 . S
C288 O260 1.214 . S
C288 O268 1.234 . S
C289 H261 0.929 . S
C289 C292 1.391 . S
C289 C294 1.391 . S
C290 H262 0.929 . S
C290 C291 1.390 . S
C290 N293 1.391 . S
C291 H263 0.930 . S
C291 C290 1.390 . S
C291 C292 1.392 . S
C292 H264 0.929 . S
C292 C289 1.391 . S
C292 C291 1.392 . S
N293 Co237 2.257 1_554 S
N293 C290 1.391 . S
N293 C294 1.388 . S
C294 H265 0.930 . S
C294 C289 1.391 . S
C294 N293 1.388 . S
Co295 O297 2.143 . S
Co295 O303 2.074 . S
Co295 O306 2.093 . S
Co295 O319 2.097 . S
Co295 N336 2.151 1_554 S
Co295 N344 2.214 . S
Co296 O297 2.160 . S
Co296 O302 2.058 . S
Co296 O312 2.057 . S
Co296 O327 2.037 . S
Co296 N331 2.145 . S
Co296 N352 2.257 . S
O297 Co295 2.143 . S
O297 Co296 2.160 . S
C298 O299 1.278 . S
C298 O306 1.224 . S
O299 C298 1.278 . S
C300 O301 1.245 1_554 S
C300 O312 1.232 . S
O301 C300 1.245 1_556 S
O302 Co296 2.058 . S
O302 C328 1.269 . S
O303 Co295 2.074 . S
O303 C328 1.257 . S
H304 C329 0.930 . S
H305 C335 0.930 . S
O306 Co295 2.093 . S
O306 C298 1.224 . S
H307 C339 0.929 . S
H308 C341 0.930 . S
H309 C342 0.930 . S
H310 C340 0.929 . S
H311 C343 0.928 . S
O312 Co296 2.057 . S
O312 C300 1.232 . S
H313 C332 0.929 . S
H314 C333 0.929 . S
H315 C345 0.931 . S
H316 C337 0.929 . S
H317 C346 0.930 . S
H318 C338 0.931 . S
O319 Co295 2.097 . S
O319 C347 1.214 . S
H320 C348 0.929 . S
H321 C349 0.929 . S
H322 C350 0.930 . S
H323 C351 0.929 . S
H324 C353 0.930 . S
H325 C330 0.930 . S
H326 C334 0.930 . S
O327 Co296 2.037 . S
O327 C347 1.234 . S
C328 O302 1.269 . S
C328 O303 1.257 . S
C329 H304 0.930 . S
C329 C332 1.388 . S
C329 C334 1.418 . S
C330 H325 0.930 . S
C330 C333 1.404 . S
C330 C334 1.353 . S
N331 Co296 2.145 . S
N331 C332 1.397 . S
N331 C333 1.334 . S
C332 H313 0.929 . S
C332 C329 1.388 . S
C332 N331 1.397 . S
C333 H314 0.929 . S
C333 C330 1.404 . S
C333 N331 1.334 . S
C334 H326 0.930 . S
C334 C329 1.418 . S
C334 C330 1.353 . S
C335 H305 0.930 . S
C335 N336 1.330 . S
C335 C337 1.446 . S
N336 Co295 2.151 1_556 S
N336 C335 1.330 . S
N336 C340 1.418 . S
C337 H316 0.929 . S
C337 C335 1.446 . S
C337 C338 1.332 . S
C338 H318 0.931 . S
C338 C337 1.332 . S
C338 C339 1.267 . S
C339 H307 0.929 . S
C339 C338 1.267 . S
C339 C340 1.251 . S
C340 H310 0.929 . S
C340 N336 1.418 . S
C340 C339 1.251 . S
C341 H308 0.930 . S
C341 C343 1.406 . S
C341 C346 1.261 1_556 S
C342 H309 0.930 . S
C342 N344 1.325 . S
C342 C345 1.357 . S
C343 H311 0.928 . S
C343 C341 1.406 . S
C343 N344 1.261 1_556 S
N344 Co295 2.214 . S
N344 C342 1.325 . S
N344 C343 1.261 1_554 S
C345 H315 0.931 . S
C345 C342 1.357 . S
C345 C346 1.312 . S
C346 H317 0.930 . S
C346 C341 1.261 1_554 S
C346 C345 1.312 . S
C347 O319 1.214 . S
C347 O327 1.234 . S
C348 H320 0.929 . S
C348 C351 1.391 . S
C348 C353 1.391 . S
C349 H321 0.929 . S
C349 C350 1.390 . S
C349 N352 1.391 . S
C350 H322 0.930 . S
C350 C349 1.390 . S
C350 C351 1.392 . S
C351 H323 0.929 . S
C351 C348 1.391 . S
C351 C350 1.392 . S
N352 Co296 2.257 . S
N352 C349 1.391 . S
N352 C353 1.388 . S
C353 H324 0.930 . S
C353 C348 1.391 . S
C353 N352 1.388 . S
Co354 O356 2.143 . S
Co354 O362 2.074 . S
Co354 O365 2.093 . S
Co354 O378 2.097 . S
Co354 N395 2.151 . S
Co354 N403 2.214 . S
Co355 O356 2.160 . S
Co355 O361 2.058 . S
Co355 O371 2.055 1_556 S
Co355 O386 2.037 . S
Co355 N390 2.145 1_556 S
Co355 N411 2.257 1_556 S
O356 Co354 2.143 . S
O356 Co355 2.160 . S
C357 O358 1.278 1_556 S
C357 O365 1.224 . S
O358 C357 1.278 1_554 S
C359 O360 1.245 . S
C359 O371 1.229 1_556 S
O360 C359 1.245 . S
O361 Co355 2.058 . S
O361 C387 1.269 . S
O362 Co354 2.074 . S
O362 C387 1.257 . S
H363 C388 0.930 1_556 S
H364 C394 0.930 . S
O365 Co354 2.093 . S
O365 C357 1.224 . S
H366 C398 0.929 . S
H367 C400 0.930 . S
H368 C401 0.930 . S
H369 C399 0.929 . S
H370 C402 0.928 . S
O371 Co355 2.055 1_554 S
O371 C359 1.229 1_554 S
H372 C391 0.929 . S
H373 C392 0.929 . S
H374 C404 0.931 . S
H375 C396 0.929 . S
H376 C405 0.930 . S
H377 C397 0.931 . S
O378 Co354 2.097 . S
O378 C406 1.214 . S
H379 C407 0.929 . S
H380 C408 0.929 . S
H381 C409 0.930 . S
H382 C410 0.929 . S
H383 C412 0.930 . S
H384 C389 0.930 . S
H385 C393 0.930 . S
O386 Co355 2.037 . S
O386 C406 1.234 . S
C387 O361 1.269 . S
C387 O362 1.257 . S
C388 H363 0.930 1_554 S
C388 C391 1.388 1_554 S
C388 C393 1.418 . S
C389 H384 0.930 . S
C389 C392 1.404 . S
C389 C393 1.353 . S
N390 Co355 2.145 1_554 S
N390 C391 1.397 1_554 S
N390 C392 1.334 . S
C391 H372 0.929 . S
C391 C388 1.388 1_556 S
C391 N390 1.397 1_556 S
C392 H373 0.929 . S
C392 C389 1.404 . S
C392 N390 1.334 . S
C393 H385 0.930 . S
C393 C388 1.418 . S
C393 C389 1.353 . S
C394 H364 0.930 . S
C394 N395 1.330 . S
C394 C396 1.446 . S
N395 Co354 2.151 . S
N395 C394 1.330 . S
N395 C399 1.418 . S
C396 H375 0.929 . S
C396 C394 1.446 . S
C396 C397 1.332 . S
C397 H377 0.931 . S
C397 C396 1.332 . S
C397 C398 1.267 . S
C398 H366 0.929 . S
C398 C397 1.267 . S
C398 C399 1.251 . S
C399 H369 0.929 . S
C399 N395 1.418 . S
C399 C398 1.251 . S
C400 H367 0.930 . S
C400 C402 1.406 . S
C400 C405 1.261 . S
C401 H368 0.930 . S
C401 N403 1.325 . S
C401 C404 1.357 . S
C402 H370 0.928 . S
C402 C400 1.406 . S
C402 N403 1.261 . S
N403 Co354 2.214 . S
N403 C401 1.325 . S
N403 C402 1.261 . S
C404 H374 0.931 . S
C404 C401 1.357 . S
C404 C405 1.312 . S
C405 H376 0.930 . S
C405 C400 1.261 . S
C405 C404 1.312 . S
C406 O378 1.214 . S
C406 O386 1.234 . S
C407 H379 0.929 . S
C407 C410 1.391 . S
C407 C412 1.391 . S
C408 H380 0.929 . S
C408 C409 1.390 . S
C408 N411 1.391 . S
C409 H381 0.930 . S
C409 C408 1.390 . S
C409 C410 1.392 . S
C410 H382 0.929 . S
C410 C407 1.391 . S
C410 C409 1.392 . S
N411 Co355 2.257 1_554 S
N411 C408 1.391 . S
N411 C412 1.388 . S
C412 H383 0.930 . S
C412 C407 1.391 . S
C412 N411 1.388 . S
Co413 O415 2.143 . S
Co413 O421 2.074 . S
Co413 O424 2.093 . S
Co413 O437 2.097 . S
Co413 N454 2.151 1_554 S
Co413 N462 2.214 . S
Co414 O415 2.160 . S
Co414 O420 2.058 . S
Co414 O430 2.057 . S
Co414 O445 2.037 . S
Co414 N449 2.145 . S
Co414 N470 2.257 . S
O415 Co413 2.143 . S
O415 Co414 2.160 . S
C416 O417 1.278 . S
C416 O424 1.224 . S
O417 C416 1.278 . S
C418 O419 1.245 1_554 S
C418 O430 1.232 . S
O419 C418 1.245 1_556 S
O420 Co414 2.058 . S
O420 C446 1.269 . S
O421 Co413 2.074 . S
O421 C446 1.257 . S
H422 C447 0.930 . S
H423 C453 0.930 . S
O424 Co413 2.093 . S
O424 C416 1.224 . S
H425 C457 0.929 . S
H426 C459 0.930 . S
H427 C460 0.930 . S
H428 C458 0.929 . S
H429 C461 0.928 . S
O430 Co414 2.057 . S
O430 C418 1.232 . S
H431 C450 0.929 . S
H432 C451 0.929 . S
H433 C463 0.931 . S
H434 C455 0.929 . S
H435 C464 0.930 . S
H436 C456 0.931 . S
O437 Co413 2.097 . S
O437 C465 1.214 . S
H438 C466 0.929 . S
H439 C467 0.929 . S
H440 C468 0.930 . S
H441 C469 0.929 . S
H442 C471 0.930 . S
H443 C448 0.930 . S
H444 C452 0.930 . S
O445 Co414 2.037 . S
O445 C465 1.234 . S
C446 O420 1.269 . S
C446 O421 1.257 . S
C447 H422 0.930 . S
C447 C450 1.388 . S
C447 C452 1.418 . S
C448 H443 0.930 . S
C448 C451 1.404 . S
C448 C452 1.353 . S
N449 Co414 2.145 . S
N449 C450 1.397 . S
N449 C451 1.334 . S
C450 H431 0.929 . S
C450 C447 1.388 . S
C450 N449 1.397 . S
C451 H432 0.929 . S
C451 C448 1.404 . S
C451 N449 1.334 . S
C452 H444 0.930 . S
C452 C447 1.418 . S
C452 C448 1.353 . S
C453 H423 0.930 . S
C453 N454 1.330 . S
C453 C455 1.446 . S
N454 Co413 2.151 1_556 S
N454 C453 1.330 . S
N454 C458 1.418 . S
C455 H434 0.929 . S
C455 C453 1.446 . S
C455 C456 1.332 . S
C456 H436 0.931 . S
C456 C455 1.332 . S
C456 C457 1.267 . S
C457 H425 0.929 . S
C457 C456 1.267 . S
C457 C458 1.251 . S
C458 H428 0.929 . S
C458 N454 1.418 . S
C458 C457 1.251 . S
C459 H426 0.930 . S
C459 C461 1.406 . S
C459 C464 1.261 1_556 S
C460 H427 0.930 . S
C460 N462 1.325 . S
C460 C463 1.357 . S
C461 H429 0.928 . S
C461 C459 1.406 . S
C461 N462 1.261 1_556 S
N462 Co413 2.214 . S
N462 C460 1.325 . S
N462 C461 1.261 1_554 S
C463 H433 0.931 . S
C463 C460 1.357 . S
C463 C464 1.312 . S
C464 H435 0.930 . S
C464 C459 1.261 1_554 S
C464 C463 1.312 . S
C465 O437 1.214 . S
C465 O445 1.234 . S
C466 H438 0.929 . S
C466 C469 1.391 . S
C466 C471 1.391 . S
C467 H439 0.929 . S
C467 C468 1.390 . S
C467 N470 1.391 . S
C468 H440 0.930 . S
C468 C467 1.390 . S
C468 C469 1.392 . S
C469 H441 0.929 . S
C469 C466 1.391 . S
C469 C468 1.392 . S
N470 Co414 2.257 . S
N470 C467 1.391 . S
N470 C471 1.388 . S
C471 H442 0.930 . S
C471 C466 1.391 . S
C471 N470 1.388 . S
C472 C473 1.369 . S
C472 C474 1.419 . S
C472 H476 0.930 . S
C473 C472 1.369 . S
C473 C482 1.429 . S
C474 C472 1.419 . S
C474 C475 1.363 . S
C474 H477 0.929 . S
C475 C474 1.363 . S
C475 C481 1.428 . S
H476 C472 0.930 . S
H477 C474 0.929 . S
S478 N479 1.613 . S
S478 N480 1.610 . S
N479 S478 1.613 . S
N479 C482 1.350 . S
N480 S478 1.610 . S
N480 C481 1.351 . S
C481 C475 1.428 . S
C481 N480 1.351 . S
C481 C482 1.434 . S
C482 C473 1.429 . S
C482 N479 1.350 . S
C482 C481 1.434 . S
C483 C484 1.369 . S
C483 C485 1.419 . S
C483 H487 0.930 . S
C484 C483 1.369 . S
C484 C493 1.429 . S
C485 C483 1.419 . S
C485 C486 1.363 . S
C485 H488 0.929 . S
C486 C485 1.363 . S
C486 C492 1.428 . S
H487 C483 0.930 . S
H488 C485 0.929 . S
S489 N490 1.613 . S
S489 N491 1.610 . S
N490 S489 1.613 . S
N490 C493 1.350 . S
N491 S489 1.610 . S
N491 C492 1.351 . S
C492 C486 1.428 . S
C492 N491 1.351 . S
C492 C493 1.434 . S
C493 C484 1.429 . S
C493 N490 1.350 . S
C493 C492 1.434 . S
C494 C495 1.369 . S
C494 C496 1.419 . S
C494 H498 0.930 . S
C495 C494 1.369 . S
C495 C504 1.429 . S
C496 C494 1.419 . S
C496 C497 1.363 . S
C496 H499 0.929 . S
C497 C496 1.363 . S
C497 C503 1.428 . S
H498 C494 0.930 . S
H499 C496 0.929 . S
S500 N501 1.613 . S
S500 N502 1.610 . S
N501 S500 1.613 . S
N501 C504 1.350 . S
N502 S500 1.610 . S
N502 C503 1.351 . S
C503 C497 1.428 . S
C503 N502 1.351 . S
C503 C504 1.434 . S
C504 C495 1.429 . S
C504 N501 1.350 . S
C504 C503 1.434 . S
C505 C506 1.369 . S
C505 C507 1.419 . S
C505 H509 0.930 . S
C506 C505 1.369 . S
C506 C515 1.429 . S
C507 C505 1.419 . S
C507 C508 1.363 . S
C507 H510 0.929 . S
C508 C507 1.363 . S
C508 C514 1.428 . S
H509 C505 0.930 . S
H510 C507 0.929 . S
S511 N512 1.613 . S
S511 N513 1.610 . S
N512 S511 1.613 . S
N512 C515 1.350 . S
N513 S511 1.610 . S
N513 C514 1.351 . S
C514 C508 1.428 . S
C514 N513 1.351 . S
C514 C515 1.434 . S
C515 C506 1.429 . S
C515 N512 1.350 . S
C515 C514 1.434 . S
C516 C517 1.369 . S
C516 C518 1.419 . S
C516 H520 0.930 . S
C517 C516 1.369 . S
C517 C526 1.429 . S
C518 C516 1.419 . S
C518 C519 1.363 . S
C518 H521 0.929 . S
C519 C518 1.363 . S
C519 C525 1.428 . S
H520 C516 0.930 . S
H521 C518 0.929 . S
S522 N523 1.613 . S
S522 N524 1.610 . S
N523 S522 1.613 . S
N523 C526 1.350 . S
N524 S522 1.610 . S
N524 C525 1.351 . S
C525 C519 1.428 . S
C525 N524 1.351 . S
C525 C526 1.434 . S
C526 C517 1.429 . S
C526 N523 1.350 . S
C526 C525 1.434 . S
C527 C528 1.369 . S
C527 C529 1.419 . S
C527 H531 0.930 . S
C528 C527 1.369 . S
C528 C537 1.429 . S
C529 C527 1.419 . S
C529 C530 1.363 . S
C529 H532 0.929 . S
C530 C529 1.363 . S
C530 C536 1.428 . S
H531 C527 0.930 . S
H532 C529 0.929 . S
S533 N534 1.613 . S
S533 N535 1.610 . S
N534 S533 1.613 . S
N534 C537 1.350 . S
N535 S533 1.610 . S
N535 C536 1.351 . S
C536 C530 1.428 . S
C536 N535 1.351 . S
C536 C537 1.434 . S
C537 C528 1.429 . S
C537 N534 1.350 . S
C537 C536 1.434 . S
C538 C539 1.369 . S
C538 C540 1.419 . S
C538 H542 0.930 . S
C539 C538 1.369 . S
C539 C548 1.429 . S
C540 C538 1.419 . S
C540 C541 1.363 . S
C540 H543 0.929 . S
C541 C540 1.363 . S
C541 C547 1.428 . S
H542 C538 0.930 . S
H543 C540 0.929 . S
S544 N545 1.613 . S
S544 N546 1.610 . S
N545 S544 1.613 . S
N545 C548 1.350 . S
N546 S544 1.610 . S
N546 C547 1.351 . S
C547 C541 1.428 . S
C547 N546 1.351 . S
C547 C548 1.434 . S
C548 C539 1.429 . S
C548 N545 1.350 . S
C548 C547 1.434 . S
C549 C550 1.369 . S
C549 C551 1.419 . S
C549 H553 0.930 . S
C550 C549 1.369 . S
C550 C559 1.429 . S
C551 C549 1.419 . S
C551 C552 1.363 . S
C551 H554 0.929 . S
C552 C551 1.363 . S
C552 C558 1.428 . S
H553 C549 0.930 . S
H554 C551 0.929 . S
S555 N556 1.613 . S
S555 N557 1.610 . S
N556 S555 1.613 . S
N556 C559 1.350 . S
N557 S555 1.610 . S
N557 C558 1.351 . S
C558 C552 1.428 . S
C558 N557 1.351 . S
C558 C559 1.434 . S
C559 C550 1.429 . S
C559 N556 1.350 . S
C559 C558 1.434 . S
C560 C561 1.369 1_554 S
C560 C562 1.419 . S
C560 H564 0.930 . S
C561 C560 1.369 1_556 S
C561 C570 1.429 . S
C562 C560 1.419 . S
C562 C563 1.363 1_554 S
C562 H565 0.929 . S
C563 C562 1.363 1_556 S
C563 C569 1.428 . S
H564 C560 0.930 . S
H565 C562 0.929 . S
S566 N567 1.613 . S
S566 N568 1.610 . S
N567 S566 1.613 . S
N567 C570 1.350 . S
N568 S566 1.610 . S
N568 C569 1.351 . S
C569 C563 1.428 . S
C569 N568 1.351 . S
C569 C570 1.434 . S
C570 C561 1.429 . S
C570 N567 1.350 . S
C570 C569 1.434 . S
C571 C572 1.369 . S
C571 C573 1.419 . S
C571 H575 0.930 . S
C572 C571 1.369 . S
C572 C581 1.429 1_554 S
C573 C571 1.419 . S
C573 C574 1.363 . S
C573 H576 0.929 . S
C574 C573 1.363 . S
C574 C580 1.428 1_554 S
H575 C571 0.930 . S
H576 C573 0.929 . S
S577 N578 1.613 . S
S577 N579 1.610 . S
N578 S577 1.613 . S
N578 C581 1.350 . S
N579 S577 1.610 . S
N579 C580 1.351 . S
C580 C574 1.428 1_556 S
C580 N579 1.351 . S
C580 C581 1.434 . S
C581 C572 1.429 1_556 S
C581 N578 1.350 . S
C581 C580 1.434 . S
C582 C583 1.369 1_554 S
C582 C584 1.419 . S
C582 H586 0.930 . S
C583 C582 1.369 1_556 S
C583 C592 1.429 . S
C584 C582 1.419 . S
C584 C585 1.363 1_554 S
C584 H587 0.929 . S
C585 C584 1.363 1_556 S
C585 C591 1.428 . S
H586 C582 0.930 . S
H587 C584 0.929 . S
S588 N589 1.613 . S
S588 N590 1.610 . S
N589 S588 1.613 . S
N589 C592 1.350 . S
N590 S588 1.610 . S
N590 C591 1.351 . S
C591 C585 1.428 . S
C591 N590 1.351 . S
C591 C592 1.434 . S
C592 C583 1.429 . S
C592 N589 1.350 . S
C592 C591 1.434 . S
C593 C594 1.369 1_556 S
C593 C595 1.419 . S
C593 H597 0.930 . S
C594 C593 1.369 1_554 S
C594 C603 1.429 . S
C595 C593 1.419 . S
C595 C596 1.363 1_556 S
C595 H598 0.929 . S
C596 C595 1.363 1_554 S
C596 C602 1.428 . S
H597 C593 0.930 . S
H598 C595 0.929 . S
S599 N600 1.613 . S
S599 N601 1.610 . S
N600 S599 1.613 . S
N600 C603 1.350 . S
N601 S599 1.610 . S
N601 C602 1.351 . S
C602 C596 1.428 . S
C602 N601 1.351 . S
C602 C603 1.434 . S
C603 C594 1.429 . S
C603 N600 1.350 . S
C603 C602 1.434 . S
C604 C605 1.369 1_455 S
C604 C606 1.419 . S
C604 H608 0.930 . S
C605 C604 1.369 1_655 S
C605 C614 1.429 . S
C606 C604 1.419 . S
C606 C607 1.363 . S
C606 H609 0.929 . S
C607 C606 1.363 . S
C607 C613 1.428 1_455 S
H608 C604 0.930 . S
H609 C606 0.929 . S
S610 N611 1.613 . S
S610 N612 1.610 . S
N611 S610 1.613 . S
N611 C614 1.350 . S
N612 S610 1.610 . S
N612 C613 1.351 . S
C613 C607 1.428 1_655 S
C613 N612 1.351 . S
C613 C614 1.434 . S
C614 C605 1.429 . S
C614 N611 1.350 . S
C614 C613 1.434 . S
C615 C616 1.369 1_565 S
C615 C617 1.419 . S
C615 H619 0.930 . S
C616 C615 1.369 1_545 S
C616 C625 1.429 . S
C617 C615 1.419 . S
C617 C618 1.363 . S
C617 H620 0.929 . S
C618 C617 1.363 . S
C618 C624 1.428 1_565 S
H619 C615 0.930 . S
H620 C617 0.929 . S
S621 N622 1.613 . S
S621 N623 1.610 . S
N622 S621 1.613 . S
N622 C625 1.350 . S
N623 S621 1.610 . S
N623 C624 1.351 . S
C624 C618 1.428 1_545 S
C624 N623 1.351 . S
C624 C625 1.434 . S
C625 C616 1.429 . S
C625 N622 1.350 . S
C625 C624 1.434 . S
C626 C627 1.369 . S
C626 C628 1.419 1_545 S
C626 H630 0.930 . S
C627 C626 1.369 . S
C627 C636 1.429 1_556 S
C628 C626 1.419 1_565 S
C628 C629 1.363 . S
C628 H631 0.929 . S
C629 C628 1.363 . S
C629 C635 1.428 1_556 S
H630 C626 0.930 . S
H631 C628 0.929 . S
S632 N633 1.613 1_565 S
S632 N634 1.610 . S
N633 S632 1.613 1_545 S
N633 C636 1.350 . S
N634 S632 1.610 . S
N634 C635 1.351 . S
C635 C629 1.428 1_554 S
C635 N634 1.351 . S
C635 C636 1.434 1_565 S
C636 C627 1.429 1_554 S
C636 N633 1.350 . S
C636 C635 1.434 1_545 S
C637 C638 1.369 1_556 S
C637 C639 1.419 1_455 S
C637 H641 0.930 . S
C638 C637 1.369 1_554 S
C638 C647 1.429 . S
C639 C637 1.419 1_655 S
C639 C640 1.363 1_556 S
C639 H642 0.929 . S
C640 C639 1.363 1_554 S
C640 C646 1.428 . S
H641 C637 0.930 . S
H642 C639 0.929 . S
S643 N644 1.613 . S
S643 N645 1.610 1_455 S
N644 S643 1.613 . S
N644 C647 1.350 . S
N645 S643 1.610 1_655 S
N645 C646 1.351 . S
C646 C640 1.428 . S
C646 N645 1.351 . S
C646 C647 1.434 1_655 S
C647 C638 1.429 . S
C647 N644 1.350 . S
C647 C646 1.434 1_455 S
C473 C465 1.611 . S
C475 C33 1.618 . S
C484 C92 1.617 . S
C486 C269 1.620 . S
C495 C151 1.616 . S
C497 C347 1.612 . S
C506 C387 1.620 . S
C508 C210 1.619 . S
C517 C62 1.553 . S
C519 C5 1.540 . S
C528 C64 1.547 . S
C530 C121 1.554 . S
C539 C180 1.555 . S
C541 C123 1.538 . S
C550 C182 1.546 . S
C552 C3 1.555 . S
C561 C418 1.561 1_556 S
C563 C241 1.539 . S
C572 C298 1.540 . S
C574 C239 1.555 1_554 S
C583 C300 1.563 1_556 S
C585 C359 1.538 . S
C594 C357 1.554 1_554 S
C596 C416 1.539 . S
C605 C170 1.353 . S
C607 C52 1.349 . S
C616 C229 1.351 . S
C618 C111 1.347 . S
C627 C406 1.350 . S
C629 C288 1.348 . S
C638 C446 1.342 . S
C640 C328 1.343 . S
