# Generated by pormake.
# Topology umg, (4)-cn, num edge types: 1
# Building blocks:
#     Node 0, Type 0, BuildingBlock: QUQFOY_clean_sbu_3, # of connection points: 4
#     Node 1, Type 0, BuildingBlock: QUQFOY_clean_sbu_3, # of connection points: 4
#     Node 2, Type 0, BuildingBlock: QUQFOY_clean_sbu_3, # of connection points: 4
#     Node 3, Type 0, BuildingBlock: QUQFOY_clean_sbu_3, # of connection points: 4
#     Node 4, Type 0, BuildingBlock: QUQFOY_clean_sbu_3, # of connection points: 4
#     Node 5, Type 0, BuildingBlock: QUQFOY_clean_sbu_3, # of connection points: 4
#     Node 6, Type 0, BuildingBlock: QUQFOY_clean_sbu_3, # of connection points: 4
#     Node 7, Type 0, BuildingBlock: QUQFOY_clean_sbu_3, # of connection points: 4
#     Node 8, Type 0, BuildingBlock: QUQFOY_clean_sbu_3, # of connection points: 4
#     Node 9, Type 0, BuildingBlock: QUQFOY_clean_sbu_3, # of connection points: 4
#     Node 10, Type 0, BuildingBlock: QUQFOY_clean_sbu_3, # of connection points: 4
#     Node 11, Type 0, BuildingBlock: QUQFOY_clean_sbu_3, # of connection points: 4
#     Edge 12, Type (0, 0), BuildingBlock: XUDNAN_clean_linker_2, # of connection points: 2
#     Edge 13, Type (0, 0), BuildingBlock: XUDNAN_clean_linker_2, # of connection points: 2
#     Edge 14, Type (0, 0), BuildingBlock: XUDNAN_clean_linker_2, # of connection points: 2
#     Edge 15, Type (0, 0), BuildingBlock: XUDNAN_clean_linker_2, # of connection points: 2
#     Edge 16, Type (0, 0), BuildingBlock: XUDNAN_clean_linker_2, # of connection points: 2
#     Edge 17, Type (0, 0), BuildingBlock: XUDNAN_clean_linker_2, # of connection points: 2
#     Edge 18, Type (0, 0), BuildingBlock: XUDNAN_clean_linker_2, # of connection points: 2
#     Edge 19, Type (0, 0), BuildingBlock: XUDNAN_clean_linker_2, # of connection points: 2
#     Edge 20, Type (0, 0), BuildingBlock: XUDNAN_clean_linker_2, # of connection points: 2
#     Edge 21, Type (0, 0), BuildingBlock: XUDNAN_clean_linker_2, # of connection points: 2
#     Edge 22, Type (0, 0), BuildingBlock: XUDNAN_clean_linker_2, # of connection points: 2
#     Edge 23, Type (0, 0), BuildingBlock: XUDNAN_clean_linker_2, # of connection points: 2
#     Edge 24, Type (0, 0), BuildingBlock: XUDNAN_clean_linker_2, # of connection points: 2
#     Edge 25, Type (0, 0), BuildingBlock: XUDNAN_clean_linker_2, # of connection points: 2
#     Edge 26, Type (0, 0), BuildingBlock: XUDNAN_clean_linker_2, # of connection points: 2
#     Edge 27, Type (0, 0), BuildingBlock: XUDNAN_clean_linker_2, # of connection points: 2
#     Edge 28, Type (0, 0), BuildingBlock: XUDNAN_clean_linker_2, # of connection points: 2
#     Edge 29, Type (0, 0), BuildingBlock: XUDNAN_clean_linker_2, # of connection points: 2
#     Edge 30, Type (0, 0), BuildingBlock: XUDNAN_clean_linker_2, # of connection points: 2
#     Edge 31, Type (0, 0), BuildingBlock: XUDNAN_clean_linker_2, # of connection points: 2
#     Edge 32, Type (0, 0), BuildingBlock: XUDNAN_clean_linker_2, # of connection points: 2
#     Edge 33, Type (0, 0), BuildingBlock: XUDNAN_clean_linker_2, # of connection points: 2
#     Edge 34, Type (0, 0), BuildingBlock: XUDNAN_clean_linker_2, # of connection points: 2
#     Edge 35, Type (0, 0), BuildingBlock: XUDNAN_clean_linker_2, # of connection points: 2
# Relax obj value: 0.093
# Max RMSD: 0.206
# Mean RMSD: 0.206
data_MOF--net-umg--node1-QUQFOY_clean_sbu_3--edge1-XUDNAN_clean_linker_2
_symmetry_space_group_name_H-M    P1
_symmetry_Int_Tables_number       1
_symmetry_cell_setting            triclinic
loop_
_symmetry_equiv_pos_as_xyz
'x, y, z'
_cell_length_a     29.503624
_cell_length_b     29.339367
_cell_length_c     88.887761
_cell_angle_alpha  89.959787
_cell_angle_beta   90.207146
_cell_angle_gamma 119.96913
loop_
_atom_site_label
_atom_site_type_symbol
_atom_site_fract_x
_atom_site_fract_y
_atom_site_fract_z
_atom_type_partial_charge
C0 C 0.31178 0.67464 0.08951 0.0
O1 O 0.30031 0.70122 0.08059 0.0
Cd2 Cd 0.26571 0.66784 0.05595 0.0
O3 O 0.31038 0.6328 0.08503 0.0
Cd4 Cd 0.29715 0.57971 0.06242 0.0
C5 C 0.16796 0.54152 0.06499 0.0
O6 O 0.32526 0.64849 0.04314 0.0
O7 O 0.28461 0.56733 0.03566 0.0
O8 O 0.38394 0.59621 0.06843 0.0
C9 C 0.30906 0.61582 0.03232 0.0
O10 O 0.18235 0.58804 0.06052 0.0
C11 C 0.37437 0.54907 0.06762 0.0
O12 O 0.20163 0.52694 0.06734 0.0
O13 O 0.32719 0.51412 0.06479 0.0
C14 C 0.61694 0.30764 0.41808 0.0
O15 O 0.5772 0.31181 0.41496 0.0
Cd16 Cd 0.53834 0.28288 0.39033 0.0
O17 O 0.63652 0.29169 0.40813 0.0
Cd18 Cd 0.62802 0.26814 0.38152 0.0
C19 C 0.5145 0.15559 0.38785 0.0
O20 O 0.59954 0.32631 0.37011 0.0
O21 O 0.59051 0.26025 0.35684 0.0
O22 O 0.71654 0.34033 0.38087 0.0
C23 C 0.59035 0.3034 0.3574 0.0
O24 O 0.49715 0.18738 0.38911 0.0
C25 C 0.73846 0.31515 0.3764 0.0
O26 O 0.56336 0.17321 0.38587 0.0
O27 O 0.70871 0.266 0.37405 0.0
C28 C 0.27918 0.66383 0.757 0.0
O29 O 0.24873 0.61844 0.75165 0.0
Cd30 Cd 0.27005 0.59506 0.72741 0.0
O31 O 0.31953 0.69598 0.74976 0.0
Cd32 Cd 0.36571 0.70467 0.72659 0.0
C33 C 0.38694 0.60389 0.73533 0.0
O34 O 0.29484 0.66076 0.70768 0.0
O35 O 0.37366 0.67956 0.70182 0.0
O36 O 0.37489 0.79171 0.72444 0.0
C37 C 0.32688 0.66335 0.69767 0.0
O38 O 0.3392 0.57389 0.73171 0.0
C39 C 0.42446 0.81711 0.72508 0.0
O40 O 0.40636 0.65373 0.73572 0.0
O41 O 0.44724 0.7901 0.72616 0.0
C42 C 0.62719 0.26201 0.09201 0.0
O43 O 0.62414 0.22379 0.08453 0.0
Cd44 Cd 0.66176 0.24424 0.0595 0.0
O45 O 0.64343 0.30626 0.08573 0.0
Cd46 Cd 0.67011 0.35214 0.06192 0.0
C47 C 0.78326 0.35141 0.06702 0.0
O48 O 0.62861 0.28419 0.042 0.0
O49 O 0.69566 0.36015 0.03646 0.0
O50 O 0.59481 0.36423 0.06349 0.0
C51 C 0.65901 0.31583 0.03201 0.0
O52 O 0.75489 0.30277 0.06385 0.0
C53 C 0.61996 0.41401 0.06441 0.0
O54 O 0.7632 0.38117 0.0678 0.0
O55 O 0.66972 0.43625 0.0641 0.0
C56 C 0.26561 0.62395 0.42136 0.0
O57 O 0.31076 0.63425 0.41709 0.0
Cd58 Cd 0.34204 0.66593 0.39202 0.0
O59 O 0.23349 0.62496 0.41201 0.0
Cd60 Cd 0.22527 0.63694 0.38514 0.0
C61 C 0.31411 0.76708 0.38962 0.0
O62 O 0.28381 0.61157 0.37261 0.0
O63 O 0.26194 0.66252 0.36073 0.0
O64 O 0.15363 0.54778 0.38283 0.0
C65 C 0.28517 0.63597 0.36063 0.0
O66 O 0.34729 0.75138 0.39029 0.0
C67 C 0.11808 0.55857 0.37969 0.0
O68 O 0.26501 0.73395 0.38874 0.0
O69 O 0.1318 0.60722 0.37909 0.0
C70 C 0.68364 0.35848 0.75308 0.0
O71 O 0.7204 0.39343 0.74524 0.0
Cd72 Cd 0.69349 0.41525 0.72196 0.0
O73 O 0.63847 0.33056 0.74737 0.0
Cd74 Cd 0.59287 0.30896 0.72324 0.0
C75 C 0.57795 0.41106 0.73235 0.0
O76 O 0.66114 0.34576 0.70367 0.0
O77 O 0.58186 0.32567 0.69758 0.0
O78 O 0.60644 0.2361 0.72595 0.0
C79 C 0.62835 0.34036 0.69348 0.0
O80 O 0.62656 0.4361 0.72927 0.0
C81 C 0.55925 0.19945 0.72502 0.0
O82 O 0.55177 0.3609 0.73143 0.0
O83 O 0.52472 0.21321 0.72333 0.0
C84 C 0.26421 0.63314 0.53093 0.0
O85 O 0.23779 0.6446 0.53981 0.0
Cd86 Cd 0.27217 0.67821 0.56458 0.0
O87 O 0.30526 0.63365 0.53555 0.0
Cd88 Cd 0.35831 0.645 0.55788 0.0
C89 C 0.39778 0.7752 0.55508 0.0
O90 O 0.29227 0.61909 0.57779 0.0
O91 O 0.37402 0.65962 0.58436 0.0
O92 O 0.34061 0.55708 0.55218 0.0
C93 C 0.32632 0.63635 0.58825 0.0
O94 O 0.35191 0.76153 0.55972 0.0
C95 C 0.38767 0.56702 0.55211 0.0
O96 O 0.41145 0.74075 0.55272 0.0
O97 O 0.42281 0.61467 0.55448 0.0
C98 C 0.65861 0.31029 0.86107 0.0
O99 O 0.61375 0.27793 0.86619 0.0
Cd100 Cd 0.59381 0.2962 0.8913 0.0
O101 O 0.69142 0.3473 0.86934 0.0
Cd102 Cd 0.70661 0.38329 0.89439 0.0
C103 C 0.61825 0.42261 0.8873 0.0
O104 O 0.65472 0.30723 0.91132 0.0
O105 O 0.68625 0.38708 0.91983 0.0
O106 O 0.77672 0.36424 0.89391 0.0
C107 C 0.66382 0.33806 0.92246 0.0
O108 O 0.58523 0.37396 0.88897 0.0
C109 C 0.81441 0.41088 0.89541 0.0
O110 O 0.66736 0.4389 0.88777 0.0
O111 O 0.80258 0.44704 0.89656 0.0
C112 C 0.35359 0.70151 0.19871 0.0
O113 O 0.34258 0.65718 0.20419 0.0
Cd114 Cd 0.31756 0.63669 0.2303 0.0
O115 O 0.35629 0.73758 0.20719 0.0
Cd116 Cd 0.35065 0.75674 0.23356 0.0
C117 C 0.21946 0.66776 0.23142 0.0
O118 O 0.37934 0.70191 0.24723 0.0
O119 O 0.34058 0.73675 0.25958 0.0
O120 O 0.43916 0.82913 0.23136 0.0
C121 C 0.36472 0.7111 0.25976 0.0
O122 O 0.23389 0.63349 0.23189 0.0
C123 C 0.4302 0.86572 0.23492 0.0
O124 O 0.2534 0.71692 0.23109 0.0
O125 O 0.38263 0.85238 0.23744 0.0
C126 C 0.68361 0.31983 0.52534 0.0
O127 O 0.71996 0.32069 0.53322 0.0
Cd128 Cd 0.69838 0.28425 0.55831 0.0
O129 O 0.63902 0.3046 0.53111 0.0
Cd130 Cd 0.5907 0.27679 0.55464 0.0
C131 C 0.59118 0.16196 0.55143 0.0
O132 O 0.65971 0.32344 0.57379 0.0
O133 O 0.58378 0.26034 0.58101 0.0
O134 O 0.57693 0.35084 0.55125 0.0
C135 C 0.62874 0.29798 0.58449 0.0
O136 O 0.63951 0.1904 0.55467 0.0
C137 C 0.52737 0.32486 0.55091 0.0
O138 O 0.56203 0.18249 0.5501 0.0
O139 O 0.506 0.27506 0.5521 0.0
C140 C 0.33497 0.69449 0.8635 0.0
O141 O 0.37003 0.73283 0.87095 0.0
Cd142 Cd 0.3991 0.71209 0.89412 0.0
O143 O 0.31219 0.64873 0.86918 0.0
Cd144 Cd 0.30517 0.60438 0.89297 0.0
C145 C 0.41895 0.60899 0.88526 0.0
O146 O 0.33234 0.67173 0.91309 0.0
O147 O 0.32961 0.59783 0.91799 0.0
O148 O 0.21776 0.59112 0.89328 0.0
C149 C 0.33452 0.64081 0.92277 0.0
O150 O 0.43773 0.65752 0.88837 0.0
C151 C 0.19351 0.54128 0.89334 0.0
O152 O 0.36949 0.57777 0.88522 0.0
O153 O 0.22138 0.51923 0.89312 0.0
C154 C 0.67771 0.36247 0.1971 0.0
O155 O 0.67552 0.40394 0.19945 0.0
Cd156 Cd 0.70717 0.44722 0.22348 0.0
O157 O 0.69383 0.34414 0.20742 0.0
Cd158 Cd 0.7205 0.35745 0.23381 0.0
C159 C 0.83329 0.47058 0.22696 0.0
O160 O 0.6641 0.38899 0.24444 0.0
O161 O 0.72898 0.3975 0.25813 0.0
O162 O 0.6483 0.26912 0.23642 0.0
C163 C 0.68733 0.39989 0.2571 0.0
O164 O 0.80223 0.48837 0.22492 0.0
C165 C 0.67426 0.24697 0.23991 0.0
O166 O 0.81508 0.42165 0.22958 0.0
O167 O 0.72369 0.27666 0.24111 0.0
H168 H 0.32262 0.57271 0.94507 0.0
H169 H 0.3523 0.73137 0.93735 0.0
H170 H 0.35312 0.74478 0.96495 0.0
H171 H 0.23411 0.54285 0.97477 0.0
H172 H 0.25581 0.50397 -0.01507 0.0
H173 H 0.26182 0.50913 0.96478 0.0
H174 H 0.36133 0.54293 0.96703 0.0
H175 H 0.3556 0.53768 -0.01279 0.0
H176 H 0.4015 0.59943 -0.02135 0.0
H177 H 0.34863 0.73879 -0.00623 0.0
H178 H 0.33536 0.7128 0.02068 0.0
H179 H 0.30487 0.55697 0.0083 0.0
C180 C 0.32995 0.61062 0.94912 0.0
C181 C 0.33773 0.65116 0.93909 0.0
C182 C 0.34645 0.69986 0.94488 0.0
C183 C 0.34704 0.7078 0.96051 0.0
C184 C 0.33865 0.66655 0.97007 0.0
C185 C 0.33013 0.61891 0.96452 0.0
C186 C 0.31943 0.57968 -0.02308 0.0
C187 C 0.26454 0.53107 0.97525 0.0
C188 C 0.36201 0.56404 -0.02252 0.0
C189 C 0.32265 0.61234 -0.00961 0.0
C190 C 0.3344 0.66257 -0.01367 0.0
C191 C 0.33941 0.69956 -0.00295 0.0
C192 C 0.33189 0.68453 0.01227 0.0
C193 C 0.31879 0.63283 0.01649 0.0
C194 C 0.3144 0.59663 0.00539 0.0
H195 H 0.55019 0.25759 0.33037 0.0
H196 H 0.63284 0.40906 0.35267 0.0
H197 H 0.65148 0.4535 0.32801 0.0
H198 H 0.63423 0.28221 0.30305 0.0
H199 H 0.58843 0.2476 0.28807 0.0
H200 H 0.56967 0.22851 0.30721 0.0
H201 H 0.48973 0.24176 0.30383 0.0
H202 H 0.50807 0.26055 0.28451 0.0
H203 H 0.49923 0.30381 0.29702 0.0
H204 H 0.68187 0.47892 0.30165 0.0
H205 H 0.7138 0.48327 0.27565 0.0
H206 H 0.60619 0.31676 0.27006 0.0
C207 C 0.57027 0.30017 0.33006 0.0
C208 C 0.59007 0.32997 0.34335 0.0
C209 C 0.61685 0.38555 0.34259 0.0
C210 C 0.6276 0.41111 0.32862 0.0
C211 C 0.60999 0.38047 0.31561 0.0
C212 C 0.5806 0.32614 0.31623 0.0
C213 C 0.57181 0.30188 0.30072 0.0
C214 C 0.5923 0.26282 0.29972 0.0
C215 C 0.51375 0.27545 0.29626 0.0
C216 C 0.6044 0.35064 0.2914 0.0
C217 C 0.62547 0.39577 0.30013 0.0
C218 C 0.66384 0.44435 0.29454 0.0
C219 C 0.68183 0.44656 0.27982 0.0
C220 C 0.66083 0.40069 0.27088 0.0
C221 C 0.62077 0.35265 0.27656 0.0
H222 H 0.38999 0.66649 0.67518 0.0
H223 H 0.23125 0.63154 0.68402 0.0
H224 H 0.21077 0.61488 0.65676 0.0
H225 H 0.40755 0.73692 0.64199 0.0
H226 H 0.44629 0.71298 0.63299 0.0
H227 H 0.44611 0.7174 0.65316 0.0
H228 H 0.41731 0.61839 0.6553 0.0
H229 H 0.41754 0.61367 0.63511 0.0
H230 H 0.35936 0.57035 0.64552 0.0
H231 H 0.2104 0.60645 0.6279 0.0
H232 H 0.23069 0.60936 0.60071 0.0
H233 H 0.39022 0.65193 0.61202 0.0
C234 C 0.35063 0.65479 0.67148 0.0
C235 C 0.31215 0.65023 0.68171 0.0
C236 C 0.26128 0.6351 0.67635 0.0
C237 C 0.24934 0.62552 0.66091 0.0
C238 C 0.28871 0.63112 0.65111 0.0
C239 C 0.33828 0.64534 0.65627 0.0
C240 C 0.37477 0.65145 0.64361 0.0
C241 C 0.4214 0.70804 0.6429 0.0
C242 C 0.39331 0.61105 0.64497 0.0
C243 C 0.33842 0.63941 0.63038 0.0
C244 C 0.28874 0.62715 0.63483 0.0
C245 C 0.24912 0.61574 0.62434 0.0
C246 C 0.26093 0.61743 0.60895 0.0
C247 C 0.31204 0.63103 0.6043 0.0
C248 C 0.35082 0.64157 0.61521 0.0
H249 H 0.71728 0.38049 0.00955 0.0
H250 H 0.58422 0.22525 0.01762 0.0
H251 H 0.57249 0.21018 -0.01 0.0
H252 H 0.66371 0.41278 -0.02086 0.0
H253 H 0.72499 0.44864 0.9693 0.0
H254 H 0.72451 0.44419 -0.01052 0.0
H255 H 0.78639 0.40527 -0.01179 0.0
H256 H 0.78716 0.4097 0.96799 0.0
H257 H 0.76803 0.34753 -0.02307 0.0
H258 H 0.57557 0.21505 0.96075 0.0
H259 H 0.59036 0.24106 0.93376 0.0
H260 H 0.71893 0.39399 0.94658 0.0
C261 C 0.68585 0.34296 0.00561 0.0
C262 C 0.65173 0.30396 0.01573 0.0
C263 C 0.61093 0.25563 0.01003 0.0
C264 C 0.60408 0.24676 -0.00561 0.0
C265 C 0.6384 0.28663 -0.01528 0.0
C266 C 0.6784 0.33375 -0.00977 0.0
C267 C 0.70872 0.37177 -0.02217 0.0
C268 C 0.70523 0.4223 -0.02099 0.0
C269 C 0.76595 0.38427 -0.02226 0.0
C270 C 0.67913 0.33931 0.96436 0.0
C271 C 0.63914 0.28997 0.96838 0.0
C272 C 0.60681 0.25362 0.95754 0.0
C273 C 0.61545 0.26858 0.94227 0.0
C274 C 0.65539 0.31963 0.93817 0.0
C275 C 0.68765 0.35488 0.94939 0.0
H276 H 0.39734 0.76869 0.28491 0.0
H277 H 0.35207 0.61457 0.26712 0.0
H278 H 0.34732 0.58132 0.29308 0.0
H279 H 0.46907 0.75967 0.32044 0.0
H280 H 0.44466 0.79531 0.33098 0.0
H281 H 0.46066 0.80991 0.31136 0.0
H282 H 0.36726 0.79383 0.30621 0.0
H283 H 0.35089 0.77876 0.32563 0.0
H284 H 0.31153 0.73159 0.31139 0.0
H285 H 0.32538 0.56072 0.32058 0.0
H286 H 0.28928 0.55555 0.34612 0.0
H287 H 0.3492 0.72349 0.34545 0.0
C288 C 0.38884 0.72858 0.28652 0.0
C289 C 0.37534 0.6941 0.27422 0.0
C290 C 0.36338 0.64162 0.27652 0.0
C291 C 0.36065 0.62256 0.29121 0.0
C292 C 0.37128 0.65701 0.30329 0.0
C293 C 0.38635 0.70941 0.30101 0.0
C294 C 0.38744 0.73665 0.31551 0.0
C295 C 0.44382 0.77781 0.31983 0.0
C296 C 0.35214 0.76156 0.31462 0.0
C297 C 0.36576 0.69043 0.32613 0.0
C298 C 0.35842 0.6451 0.3191 0.0
C299 C 0.3325 0.59625 0.32631 0.0
C300 C 0.31211 0.59355 0.34078 0.0
C301 C 0.31691 0.63925 0.34758 0.0
C302 C 0.34576 0.68824 0.34043 0.0
H303 H 0.55994 0.30438 0.67007 0.0
H304 H 0.72585 0.38425 0.68051 0.0
H305 H 0.74562 0.38649 0.65332 0.0
H306 H 0.56332 0.2212 0.64223 0.0
H307 H 0.51391 0.22274 0.63061 0.0
H308 H 0.51384 0.23191 0.65061 0.0
H309 H 0.51685 0.32085 0.64634 0.0
H310 H 0.51672 0.31187 0.6263 0.0
H311 H 0.56809 0.37072 0.63495 0.0
H312 H 0.74588 0.37801 0.62456 0.0
H313 H 0.72629 0.35502 0.59751 0.0
H314 H 0.56022 0.27667 0.60721 0.0
C315 C 0.60055 0.32307 0.66667 0.0
C316 C 0.64143 0.34456 0.67735 0.0
C317 C 0.69396 0.36774 0.67245 0.0
C318 C 0.70552 0.36927 0.65706 0.0
C319 C 0.66402 0.3471 0.64682 0.0
C320 C 0.6126 0.32424 0.6515 0.0
C321 C 0.57474 0.30026 0.63854 0.0
C322 C 0.5394 0.2405 0.64063 0.0
C323 C 0.5422 0.32757 0.63641 0.0
C324 C 0.61272 0.31269 0.62579 0.0
C325 C 0.6641 0.34036 0.63065 0.0
C326 C 0.70576 0.35627 0.62067 0.0
C327 C 0.69435 0.34314 0.60536 0.0
C328 C 0.64183 0.31371 0.60036 0.0
C329 C 0.60079 0.29868 0.61074 0.0
H330 H 0.34148 0.6312 0.17644 0.0
H331 H 0.37706 0.79214 0.1838 0.0
H332 H 0.3759 0.80475 0.15646 0.0
H333 H 0.41834 0.65747 0.14139 0.0
H334 H 0.37065 0.59585 0.13306 0.0
H335 H 0.37966 0.60119 0.15318 0.0
H336 H 0.2808 0.56815 0.15661 0.0
H337 H 0.27158 0.56316 0.13653 0.0
H338 H 0.25211 0.60244 0.14735 0.0
H339 H 0.3611 0.797 0.12862 0.0
H340 H 0.3393 0.77067 0.10197 0.0
H341 H 0.31579 0.61595 0.11276 0.0
C342 C 0.35016 0.66945 0.1723 0.0
C343 C 0.35933 0.71061 0.18229 0.0
C344 C 0.36994 0.75993 0.1764 0.0
C345 C 0.36941 0.76756 0.16086 0.0
C346 C 0.35878 0.72574 0.15135 0.0
C347 C 0.35 0.67785 0.15681 0.0
C348 C 0.33692 0.63853 0.14421 0.0
C349 C 0.37891 0.62233 0.14288 0.0
C350 C 0.2821 0.59024 0.14631 0.0
C351 C 0.33837 0.6714 0.1309 0.0
C352 C 0.3512 0.72163 0.13524 0.0
C353 C 0.35184 0.75805 0.12503 0.0
C354 C 0.33917 0.74268 0.10995 0.0
C355 C 0.32625 0.69145 0.10528 0.0
C356 C 0.32625 0.65566 0.11593 0.0
H357 H 0.57608 0.32298 0.44405 0.0
H358 H 0.71212 0.32116 0.42634 0.0
H359 H 0.75013 0.33649 0.45182 0.0
H360 H 0.64623 0.42287 0.47412 0.0
H361 H 0.59297 0.38911 0.48715 0.0
H362 H 0.57993 0.38585 0.46723 0.0
H363 H 0.5309 0.28392 0.46842 0.0
H364 H 0.5437 0.28692 0.48828 0.0
H365 H 0.5639 0.25132 0.47608 0.0
H366 H 0.76909 0.34231 0.47947 0.0
H367 H 0.76518 0.33441 0.5072 0.0
H368 H 0.61691 0.33218 0.50674 0.0
C369 C 0.61438 0.32701 0.44548 0.0
C370 C 0.64112 0.32099 0.43321 0.0
C371 C 0.69079 0.32555 0.43559 0.0
C372 C 0.71295 0.33463 0.45001 0.0
C373 C 0.68512 0.33934 0.46193 0.0
C374 C 0.63697 0.33581 0.45982 0.0
C375 C 0.61287 0.33724 0.47467 0.0
C376 C 0.60772 0.38673 0.47586 0.0
C377 C 0.55973 0.28686 0.477 0.0
C378 C 0.65395 0.33992 0.48545 0.0
C379 C 0.69585 0.34217 0.47791 0.0
C380 C 0.73688 0.34136 0.48553 0.0
C381 C 0.73437 0.3369 0.50127 0.0
C382 C 0.69078 0.33266 0.50913 0.0
C383 C 0.65091 0.33558 0.50108 0.0
H384 H 0.23348 0.59826 0.78097 0.0
H385 H 0.31488 0.76252 0.7679 0.0
H386 H 0.32625 0.78886 0.79456 0.0
H387 H 0.17224 0.6155 0.81705 0.0
H388 H 0.18232 0.567 0.82657 0.0
H389 H 0.16862 0.56101 0.80666 0.0
H390 H 0.25308 0.55692 0.80191 0.0
H391 H 0.26763 0.56388 0.82168 0.0
H392 H 0.31494 0.60976 0.80857 0.0
H393 H 0.34602 0.79754 0.82196 0.0
H394 H 0.36634 0.78731 0.84833 0.0
H395 H 0.27174 0.61766 0.84371 0.0
C396 C 0.25128 0.63964 0.78374 0.0
C397 C 0.27294 0.67833 0.77242 0.0
C398 C 0.29776 0.73224 0.77644 0.0
C399 C 0.30433 0.74762 0.79155 0.0
C400 C 0.28542 0.7086 0.80252 0.0
C401 C 0.25846 0.65564 0.79883 0.0
C402 C 0.24827 0.62176 0.81265 0.0
C403 C 0.18935 0.58942 0.81593 0.0
C404 C 0.27245 0.58603 0.8111 0.0
C405 C 0.27646 0.66389 0.82447 0.0
C406 C 0.29685 0.71373 0.81848 0.0
C407 C 0.32903 0.75873 0.8269 0.0
C408 C 0.34072 0.75257 0.84183 0.0
C409 C 0.32044 0.70176 0.84811 0.0
C410 C 0.28725 0.65711 0.83933 0.0
H411 H 0.61744 0.33234 0.10963 0.0
H412 H 0.61843 0.18501 0.11147 0.0
H413 H 0.62122 0.18998 0.13927 0.0
H414 H 0.70931 0.39577 0.13647 0.0
H415 H 0.68053 0.43149 0.1447 0.0
H416 H 0.66766 0.41137 0.12534 0.0
H417 H 0.56787 0.36185 0.13031 0.0
H418 H 0.58026 0.38262 0.1497 0.0
H419 H 0.54136 0.31369 0.14515 0.0
H420 H 0.63884 0.2187 0.16625 0.0
H421 H 0.66425 0.26548 0.19052 0.0
H422 H 0.65254 0.39482 0.17089 0.0
C423 C 0.61662 0.3002 0.11586 0.0
C424 C 0.61769 0.25822 0.1084 0.0
C425 C 0.6171 0.21726 0.11696 0.0
C426 C 0.6188 0.21985 0.13275 0.0
C427 C 0.62034 0.26324 0.13971 0.0
C428 C 0.61836 0.30225 0.13154 0.0
C429 C 0.62561 0.34726 0.14151 0.0
C430 C 0.67363 0.39952 0.13672 0.0
C431 C 0.5758 0.35158 0.14168 0.0
C432 C 0.63448 0.32873 0.15652 0.0
C433 C 0.63056 0.27987 0.15529 0.0
C434 C 0.64099 0.25645 0.16741 0.0
C435 C 0.6558 0.28361 0.18112 0.0
C436 C 0.66034 0.33389 0.18262 0.0
C437 C 0.64891 0.35629 0.17016 0.0
H438 H 0.32171 0.62333 0.50858 0.0
H439 H 0.17461 0.61887 0.51691 0.0
H440 H 0.15473 0.6066 0.48965 0.0
H441 H 0.35373 0.69943 0.4763 0.0
H442 H 0.38354 0.66687 0.46677 0.0
H443 H 0.38279 0.66825 0.48699 0.0
H444 H 0.33681 0.56643 0.48769 0.0
H445 H 0.33753 0.56469 0.46743 0.0
H446 H 0.27664 0.528 0.4774 0.0
H447 H 0.15447 0.60178 0.46139 0.0
H448 H 0.17503 0.60854 0.43436 0.0
H449 H 0.32375 0.61866 0.44478 0.0
C450 C 0.28476 0.61872 0.50477 0.0
C451 C 0.2495 0.62168 0.51489 0.0
C452 C 0.20208 0.61647 0.50936 0.0
C453 C 0.19039 0.6093 0.49392 0.0
C454 C 0.22653 0.60743 0.48423 0.0
C455 C 0.27275 0.612 0.48946 0.0
C456 C 0.3071 0.61318 0.4767 0.0
C457 C 0.35988 0.66502 0.47669 0.0
C458 C 0.31496 0.56521 0.47735 0.0
C459 C 0.2736 0.60991 0.46339 0.0
C460 C 0.22693 0.60578 0.46797 0.0
C461 C 0.19066 0.6045 0.45768 0.0
C462 C 0.20275 0.60842 0.44234 0.0
C463 C 0.25105 0.61414 0.43743 0.0
C464 C 0.28638 0.614 0.44815 0.0
H465 H 0.59306 0.26546 0.83681 0.0
H466 H 0.75686 0.35456 0.84964 0.0
H467 H 0.78206 0.36848 0.82296 0.0
H468 H 0.61308 0.20611 0.80139 0.0
H469 H 0.56269 0.21208 0.7916 0.0
H470 H 0.55793 0.20066 0.81161 0.0
H471 H 0.54934 0.28352 0.81558 0.0
H472 H 0.55481 0.29565 0.79567 0.0
H473 H 0.59948 0.34601 0.80841 0.0
H474 H 0.78904 0.38573 0.79539 0.0
H475 H 0.77688 0.39915 0.76852 0.0
H476 H 0.60905 0.29793 0.77356 0.0
C477 C 0.63423 0.28611 0.83398 0.0
C478 C 0.67295 0.30879 0.84527 0.0
C479 C 0.72648 0.33684 0.84115 0.0
C480 C 0.74127 0.34487 0.82602 0.0
C481 C 0.70213 0.32417 0.81513 0.0
C482 C 0.64972 0.29461 0.81888 0.0
C483 C 0.61531 0.28114 0.80505 0.0
C484 C 0.5855 0.22145 0.80225 0.0
C485 C 0.57755 0.3029 0.80626 0.0
C486 C 0.65642 0.30973 0.79312 0.0
C487 C 0.70629 0.33382 0.79911 0.0
C488 C 0.75026 0.36608 0.79047 0.0
C489 C 0.74299 0.37377 0.77526 0.0
C490 C 0.69213 0.34936 0.76893 0.0
C491 C 0.64855 0.31657 0.778 0.0
H492 H 0.86399 0.4541 0.06442 0.0
H493 H 0.83128 0.29585 0.07464 0.0
H494 H 0.92579 0.32776 0.07654 0.0
H495 H 0.97231 0.48703 0.04097 0.0
H496 H 0.00965 0.55462 0.04701 0.0
H497 H 0.93932 0.52058 0.04783 0.0
H498 H 0.94369 0.54213 0.07625 0.0
H499 H 0.01413 0.57653 0.07549 0.0
H500 H 0.98011 0.52385 0.08879 0.0
H501 H 0.02424 0.37572 0.07595 0.0
H502 H 0.11918 0.43665 0.07279 0.0
H503 H 0.08781 0.56306 0.06249 0.0
C504 C 0.87673 0.42642 0.06735 0.0
C505 C 0.84012 0.37251 0.06945 0.0
C506 C 0.8585 0.33734 0.07296 0.0
C507 C 0.91218 0.35508 0.07411 0.0
C508 C 0.94728 0.40818 0.07167 0.0
C509 C 0.93038 0.44341 0.0684 0.0
C510 C 0.97636 0.49784 0.06546 0.0
C511 C 0.97427 0.51606 0.04936 0.0
C512 C 0.9787 0.53742 0.0772 0.0
C513 C 0.02152 0.48746 0.06741 0.0
C514 C 0.00399 0.43562 0.07111 0.0
C515 C 0.03849 0.41655 0.07314 0.0
C516 C 0.09237 0.45142 0.07131 0.0
C517 C 0.11121 0.5047 0.06739 0.0
C518 C 0.07497 0.52265 0.06551 0.0
H519 H 0.53393 0.07226 0.38685 0.0
H520 H 0.40823 0.10817 0.39036 0.0
H521 H 0.34378 0.01369 0.3912 0.0
H522 H 0.46462 0.95799 0.36313 0.0
H523 H 0.49152 0.92165 0.37215 0.0
H524 H 0.52837 -0.00752 0.37185 0.0
H525 H 0.53591 -0.00584 0.40092 0.0
H526 H 0.49911 0.92334 0.4013 0.0
H527 H 0.47732 0.96077 0.41208 0.0
H528 H 0.29188 0.91463 0.39131 0.0
H529 H 0.25748 0.81849 0.39123 0.0
H530 H 0.41633 0.8467 0.38804 0.0
C531 C 0.4929 0.06029 0.38781 0.0
C532 C 0.47647 0.09804 0.38853 0.0
C533 C 0.42218 0.08037 0.3898 0.0
C534 C 0.38503 0.0266 0.39028 0.0
C535 C 0.40244 0.99051 0.38952 0.0
C536 C 0.45506 0.00652 0.38836 0.0
C537 C 0.46318 0.95943 0.38779 0.0
C538 C 0.48841 0.9578 0.37284 0.0
C539 C 0.49581 0.95944 0.40133 0.0
C540 C 0.40701 0.91471 0.38881 0.0
C541 C 0.37252 0.93342 0.38975 0.0
C542 C 0.31855 0.89947 0.39062 0.0
C543 C 0.29932 0.84489 0.39056 0.0
C544 C 0.33399 0.82476 0.38969 0.0
C545 C 0.38856 0.86052 0.38881 0.0
H546 H 0.47545 0.3878 0.72827 0.0
H547 H 0.62573 0.50594 0.74626 0.0
H548 H 0.59046 0.56479 0.75111 0.0
H549 H 0.44942 0.47518 0.70873 0.0
H550 H 0.38009 0.44171 0.71235 0.0
H551 H 0.41427 0.40528 0.71216 0.0
H552 H 0.38122 0.371 0.73906 0.0
H553 H 0.34657 0.40711 0.73929 0.0
H554 H 0.39306 0.41733 0.75396 0.0
H555 H 0.54322 0.61499 0.7514 0.0
H556 H 0.48535 0.65237 0.7477 0.0
H557 H 0.36494 0.50271 0.72964 0.0
C558 C 0.50034 0.42544 0.73361 0.0
C559 C 0.55328 0.44218 0.73694 0.0
C560 C 0.58507 0.49229 0.74359 0.0
C561 C 0.56538 0.52601 0.74645 0.0
C562 C 0.51364 0.50919 0.74263 0.0
C563 C 0.4813 0.46 0.73646 0.0
C564 C 0.42843 0.45355 0.73236 0.0
C565 C 0.41744 0.44334 0.7154 0.0
C566 C 0.38473 0.40964 0.74173 0.0
C567 C 0.43684 0.50722 0.73679 0.0
C568 C 0.48611 0.53848 0.74282 0.0
C569 C 0.50419 0.59067 0.7469 0.0
C570 C 0.47111 0.61164 0.74471 0.0
C571 C 0.42047 0.58051 0.73847 0.0
C572 C 0.40312 0.5274 0.73464 0.0
H573 H 0.4886 0.08179 0.55398 0.0
H574 H 0.64574 0.11216 0.54488 0.0
H575 H 0.61289 0.01683 0.54351 0.0
H576 H 0.45338 0.97331 0.57806 0.0
H577 H 0.3864 0.93635 0.57174 0.0
H578 H 0.42116 0.00706 0.57067 0.0
H579 H 0.4011 0.002 0.54212 0.0
H580 H 0.36603 0.93119 0.54311 0.0
H581 H 0.41916 0.96442 0.53001 0.0
H582 H 0.56395 0.91786 0.54434 0.0
H583 H 0.50221 0.82272 0.54768 0.0
H584 H 0.37757 0.85674 0.5568 0.0
C585 C 0.51587 0.06835 0.55143 0.0
C586 C 0.56971 0.10454 0.54948 0.0
C587 C 0.60431 0.08527 0.54644 0.0
C588 C 0.58604 0.03112 0.54559 0.0
C589 C 0.53299 -0.00354 0.54784 0.0
C590 C 0.49835 0.01423 0.55069 0.0
C591 C 0.44379 0.96858 0.55352 0.0
C592 C 0.42511 0.97152 0.56944 0.0
C593 C 0.40525 0.96643 0.54147 0.0
C594 C 0.45341 0.92261 0.55199 0.0
C595 C 0.50499 0.93945 0.54859 0.0
C596 C 0.52333 0.90414 0.54693 0.0
C597 C 0.48799 0.85015 0.54886 0.0
C598 C 0.435 0.83203 0.55252 0.0
C599 C 0.41776 0.86906 0.55401 0.0
H600 H 0.39877 0.50634 0.8857 0.0
H601 H 0.52357 0.66752 0.87942 0.0
H602 H 0.58774 0.63729 0.8779 0.0
H603 H 0.46923 0.46824 0.90945 0.0
H604 H 0.442 0.4026 0.90197 0.0
H605 H 0.40486 0.43599 0.90109 0.0
H606 H 0.39535 0.42243 0.8722 0.0
H607 H 0.43217 0.3886 0.87301 0.0
H608 H 0.45312 0.44472 0.86084 0.0
H609 H 0.63982 0.59039 0.87906 0.0
H610 H 0.67459 0.52959 0.88209 0.0
H611 H 0.51605 0.3995 0.88759 0.0
C612 C 0.4394 0.53514 0.88368 0.0
C613 C 0.45594 0.58931 0.88263 0.0
C614 C 0.50976 0.62578 0.88026 0.0
C615 C 0.54664 0.60902 0.87936 0.0
C616 C 0.52929 0.55556 0.88081 0.0
C617 C 0.4769 0.51909 0.88281 0.0
C618 C 0.46894 0.46428 0.8848 0.0
C619 C 0.44485 0.44147 0.90024 0.0
C620 C 0.43541 0.42787 0.87194 0.0
C621 C 0.52502 0.47583 0.88387 0.0
C622 C 0.55929 0.52864 0.88149 0.0
C623 C 0.61328 0.54881 0.88078 0.0
C624 C 0.63272 0.51402 0.88255 0.0
C625 C 0.59824 0.45968 0.88503 0.0
C626 C 0.54367 0.44069 0.88561 0.0
H627 H 0.13874 0.56628 0.23436 0.0
H628 H 0.17039 0.72585 0.22692 0.0
H629 H 0.07517 0.69241 0.2248 0.0
H630 H 0.03217 0.50264 0.20853 0.0
H631 H -0.00452 0.44549 0.22018 0.0
H632 H 0.06582 0.48202 0.22139 0.0
H633 H 0.06037 0.49442 0.25005 0.0
H634 H -0.01 0.45767 0.24896 0.0
H635 H 0.02262 0.5231 0.2568 0.0
H636 H 0.97653 0.64092 0.22288 0.0
H637 H 0.88224 0.57683 0.22232 0.0
H638 H 0.91483 0.45039 0.23127 0.0
C639 C 0.12588 0.59445 0.23233 0.0
C640 C 0.16234 0.6489 0.23078 0.0
C641 C 0.14343 0.6841 0.22818 0.0
C642 C 0.08939 0.6654 0.22692 0.0
C643 C 0.05474 0.61144 0.22835 0.0
C644 C 0.07226 0.57653 0.23109 0.0
C645 C 0.02703 0.52044 0.23221 0.0
C646 C 0.03034 0.48561 0.21984 0.0
C647 C 0.02489 0.49758 0.24794 0.0
C648 C 0.98109 0.52907 0.22961 0.0
C649 C -0.002 0.58185 0.22737 0.0
C650 C 0.96293 0.59958 0.22466 0.0
C651 C 0.90927 0.56263 0.22434 0.0
C652 C 0.89072 0.50826 0.22676 0.0
C653 C 0.92747 0.49149 0.22937 0.0
H654 H 0.51453 0.37612 0.06174 0.0
H655 H 0.66162 0.51928 0.07045 0.0
H656 H 0.61389 0.56816 0.07332 0.0
H657 H 0.45647 0.43608 0.03978 0.0
H658 H 0.39149 0.39428 0.04698 0.0
H659 H 0.43706 0.37046 0.04611 0.0
H660 H 0.42441 0.34947 0.07461 0.0
H661 H 0.37896 0.37347 0.07559 0.0
H662 H 0.43548 0.40077 0.08778 0.0
H663 H 0.55031 0.60127 0.0751 0.0
H664 H 0.47646 0.61799 0.07438 0.0
H665 H 0.37025 0.45335 0.06406 0.0
C666 C 0.53678 0.41775 0.0643 0.0
C667 C 0.5919 0.44392 0.06592 0.0
C668 C 0.61947 0.49846 0.06916 0.0
C669 C 0.59266 0.52646 0.07085 0.0
C670 C 0.53832 0.49938 0.06923 0.0
C671 C 0.5107 0.44631 0.06594 0.0
C672 C 0.45263 0.42685 0.06431 0.0
C673 C 0.43329 0.40568 0.04834 0.0
C674 C 0.42102 0.38517 0.07629 0.0
C675 C 0.45183 0.47738 0.06714 0.0
C676 C 0.50168 0.51861 0.07005 0.0
C677 C 0.51115 0.56929 0.07284 0.0
C678 C 0.4688 0.57833 0.07241 0.0
C679 C 0.4174 0.53698 0.06917 0.0
C680 C 0.40892 0.48571 0.06665 0.0
H681 H 0.80641 0.42093 0.3781 0.0
H682 H 0.80108 0.27207 0.37079 0.0
H683 H 0.89793 0.31918 0.36949 0.0
H684 H 0.91701 0.49991 0.3533 0.0
H685 H 0.94328 0.55653 0.36552 0.0
H686 H 0.87379 0.51133 0.36497 0.0
H687 H 0.87385 0.49839 0.3938 0.0
H688 H 0.94328 0.54336 0.39444 0.0
H689 H 0.91688 0.47775 0.40185 0.0
H690 H -0.00466 0.38213 0.37086 0.0
H691 H 0.08564 0.45558 0.37395 0.0
H692 H 0.02721 0.56395 0.37978 0.0
C693 C 0.82546 0.39812 0.37607 0.0
C694 C 0.79611 0.34268 0.37455 0.0
C695 C 0.82269 0.31449 0.37193 0.0
C696 C 0.87766 0.34095 0.37119 0.0
C697 C 0.90533 0.39559 0.37295 0.0
C698 C 0.88005 0.42386 0.37521 0.0
C699 C 0.91872 0.48208 0.37719 0.0
C700 C 0.91284 0.51436 0.36448 0.0
C701 C 0.91282 0.50151 0.39275 0.0
C702 C 0.96997 0.48221 0.37597 0.0
C703 C 0.96133 0.43191 0.37349 0.0
C704 C 0.00249 0.42167 0.37264 0.0
C705 C 0.05369 0.46373 0.37445 0.0
C706 C 0.06357 0.51564 0.37704 0.0
C707 C 0.021 0.5249 0.37764 0.0
H708 H 0.46267 0.10774 0.72257 0.0
H709 H 0.62876 0.16542 0.72886 0.0
H710 H 0.61214 0.07477 0.72929 0.0
H711 H 0.41796 -0.00619 0.74693 0.0
H712 H 0.36287 0.95152 0.73517 0.0
H713 H 0.38725 0.02138 0.73539 0.0
H714 H 0.39888 0.0245 0.70646 0.0
H715 H 0.37473 0.95469 0.70616 0.0
H716 H 0.43779 -0.00065 0.69823 0.0
H717 H 0.57919 0.9788 0.72868 0.0
H718 H 0.53021 0.88174 0.72789 0.0
H719 H 0.38517 0.88424 0.72226 0.0
C720 C 0.49541 0.10119 0.72409 0.0
C721 C 0.54702 0.14391 0.72566 0.0
C722 C 0.58883 0.13358 0.72761 0.0
C723 C 0.57989 0.08211 0.72786 0.0
C724 C 0.52886 0.04099 0.72618 0.0
C725 C 0.48718 0.04967 0.7244 0.0
C726 C 0.43621 -0.0021 0.7229 0.0
C727 C 0.39888 0.99074 0.73587 0.0
C728 C 0.4104 -0.00611 0.70752 0.0
C729 C 0.45602 0.95918 0.72408 0.0
C730 C 0.50963 0.98501 0.72593 0.0
C731 C 0.53712 0.95797 0.72725 0.0
C732 C 0.50899 0.90286 0.72677 0.0
C733 C 0.45393 0.87536 0.72501 0.0
C734 C 0.42727 0.9041 0.72361 0.0
H735 H 0.48409 0.57287 0.55304 0.0
H736 H 0.31829 0.46353 0.54659 0.0
H737 H 0.33608 0.3902 0.54463 0.0
H738 H 0.5304 0.50744 0.52725 0.0
H739 H 0.58558 0.52052 0.53898 0.0
H740 H 0.5602 0.56507 0.5391 0.0
H741 H 0.54835 0.55444 0.568 0.0
H742 H 0.57348 0.50975 0.56796 0.0
H743 H 0.51009 0.48953 0.5759 0.0
H744 H 0.37091 0.3275 0.54494 0.0
H745 H 0.42136 0.28097 0.54661 0.0
H746 H 0.56432 0.43085 0.55235 0.0
C747 C 0.45164 0.53361 0.55104 0.0
C748 C 0.3998 0.52408 0.54996 0.0
C749 C 0.35838 0.47197 0.54744 0.0
C750 C 0.36804 0.42993 0.54631 0.0
C751 C 0.4194 0.44048 0.54763 0.0
C752 C 0.4606 0.49105 0.54983 0.0
C753 C 0.51196 0.49135 0.55123 0.0
C754 C 0.54923 0.52297 0.53837 0.0
C755 C 0.53745 0.51251 0.56669 0.0
C756 C 0.49302 0.43307 0.5497 0.0
C757 C 0.43952 0.40437 0.54761 0.0
C758 C 0.41293 0.3496 0.54643 0.0
C759 C 0.44184 0.32348 0.54743 0.0
C760 C 0.49674 0.35219 0.54953 0.0
C761 C 0.52244 0.40773 0.5506 0.0
H762 H 0.12726 0.58119 0.89433 0.0
H763 H 0.12858 0.4339 0.89333 0.0
H764 H 0.03176 0.38498 0.89411 0.0
H765 H 0.0192 0.53928 0.91985 0.0
H766 H -0.00697 0.57563 0.91044 0.0
H767 H 0.06222 0.5989 0.90983 0.0
H768 H 0.05945 0.59937 0.8807 0.0
H769 H -0.00972 0.57619 0.88121 0.0
H770 H 0.01446 0.5401 0.87079 0.0
H771 H 0.93529 0.35254 0.89478 0.0
H772 H 0.84562 0.33787 0.89519 0.0
H773 H 0.90681 0.5067 0.89591 0.0
C774 C 0.1073 0.5386 0.89428 0.0
C775 C 0.13554 0.51128 0.89376 0.0
C776 C 0.10781 0.45561 0.89372 0.0
C777 C 0.05285 0.42755 0.89417 0.0
C778 C 0.02634 0.4558 0.89469 0.0
C779 C 0.05262 0.51008 0.89475 0.0
C780 C 0.01488 0.53103 0.89528 0.0
C781 C 0.02281 0.5631 0.90971 0.0
C782 C 0.02009 0.56359 0.88115 0.0
C783 C 0.96305 0.47996 0.89547 0.0
C784 C 0.97067 0.43711 0.89513 0.0
C785 C 0.9289 0.38578 0.89507 0.0
C786 C 0.87803 0.37794 0.8953 0.0
C787 C 0.86903 0.42115 0.89559 0.0
C788 C 0.91232 0.47288 0.89574 0.0
H789 H 0.42568 0.95723 0.23796 0.0
H790 H 0.53436 0.89841 0.23547 0.0
H791 H 0.60846 0.98867 0.23828 0.0
H792 H 0.50303 0.07316 0.21626 0.0
H793 H 0.48572 0.11403 0.22713 0.0
H794 H 0.44099 0.04433 0.22582 0.0
H795 H 0.43873 0.03765 0.25491 0.0
H796 H 0.48379 0.10735 0.2563 0.0
H797 H 0.49914 0.0615 0.26523 0.0
H798 H 0.67157 0.08602 0.24091 0.0
H799 H 0.71823 0.18349 0.24132 0.0
H800 H 0.56895 0.179 0.24149 0.0
C801 C 0.46504 0.96335 0.2381 0.0
C802 C 0.47408 0.92061 0.23653 0.0
C803 C 0.5263 0.93043 0.23662 0.0
C804 C 0.56877 0.9816 0.23829 0.0
C805 C 0.55863 0.02287 0.2398 0.0
C806 C 0.50809 0.01442 0.23961 0.0
C807 C 0.50817 0.066 0.2407 0.0
C808 C 0.483 0.07489 0.22664 0.0
C809 C 0.48084 0.06824 0.25515 0.0
C810 C 0.56652 0.1046 0.24136 0.0
C811 C 0.595 0.07897 0.24101 0.0
C812 C 0.64966 0.10656 0.24123 0.0
C813 C 0.67587 0.16188 0.24153 0.0
C814 C 0.64736 0.1889 0.24144 0.0
C815 C 0.59197 0.15958 0.24158 0.0
loop_
_geom_bond_atom_site_label_1
_geom_bond_atom_site_label_2
_geom_bond_distance
_geom_bond_site_symmetry_2
_ccdc_geom_bond_type
C0 O1 1.306 . S
C0 O3 1.160 . S
O1 C0 1.306 . S
O1 Cd2 2.228 . S
Cd2 O1 2.228 . S
Cd2 O6 2.273 . S
Cd2 O10 2.277 . S
O3 C0 1.160 . S
O3 Cd4 2.203 . S
Cd4 O3 2.203 . S
Cd4 O6 2.411 . S
Cd4 O7 2.333 . S
Cd4 O8 2.352 . S
Cd4 O12 2.277 . S
Cd4 O13 2.356 . S
C5 O10 1.209 . S
C5 O12 1.226 . S
O6 Cd2 2.273 . S
O6 Cd4 2.411 . S
O6 C9 1.320 . S
O7 Cd4 2.333 . S
O7 C9 1.214 . S
O8 Cd4 2.352 . S
O8 C11 1.258 . S
C9 O6 1.320 . S
C9 O7 1.214 . S
O10 Cd2 2.277 . S
O10 C5 1.209 . S
C11 O8 1.258 . S
C11 O13 1.282 . S
O12 Cd4 2.277 . S
O12 C5 1.226 . S
O13 Cd4 2.356 . S
O13 C11 1.282 . S
C14 O15 1.306 . S
C14 O17 1.160 . S
O15 C14 1.306 . S
O15 Cd16 2.228 . S
Cd16 O15 2.228 . S
Cd16 O20 2.273 . S
Cd16 O24 2.277 . S
O17 C14 1.160 . S
O17 Cd18 2.203 . S
Cd18 O17 2.203 . S
Cd18 O20 2.411 . S
Cd18 O21 2.333 . S
Cd18 O22 2.352 . S
Cd18 O26 2.277 . S
Cd18 O27 2.356 . S
C19 O24 1.209 . S
C19 O26 1.226 . S
O20 Cd16 2.273 . S
O20 Cd18 2.411 . S
O20 C23 1.320 . S
O21 Cd18 2.333 . S
O21 C23 1.214 . S
O22 Cd18 2.352 . S
O22 C25 1.258 . S
C23 O20 1.320 . S
C23 O21 1.214 . S
O24 Cd16 2.277 . S
O24 C19 1.209 . S
C25 O22 1.258 . S
C25 O27 1.282 . S
O26 Cd18 2.277 . S
O26 C19 1.226 . S
O27 Cd18 2.356 . S
O27 C25 1.282 . S
C28 O29 1.306 . S
C28 O31 1.160 . S
O29 C28 1.306 . S
O29 Cd30 2.228 . S
Cd30 O29 2.228 . S
Cd30 O34 2.273 . S
Cd30 O38 2.277 . S
O31 C28 1.160 . S
O31 Cd32 2.203 . S
Cd32 O31 2.203 . S
Cd32 O34 2.411 . S
Cd32 O35 2.333 . S
Cd32 O36 2.352 . S
Cd32 O40 2.277 . S
Cd32 O41 2.356 . S
C33 O38 1.209 . S
C33 O40 1.226 . S
O34 Cd30 2.273 . S
O34 Cd32 2.411 . S
O34 C37 1.320 . S
O35 Cd32 2.333 . S
O35 C37 1.214 . S
O36 Cd32 2.352 . S
O36 C39 1.258 . S
C37 O34 1.320 . S
C37 O35 1.214 . S
O38 Cd30 2.277 . S
O38 C33 1.209 . S
C39 O36 1.258 . S
C39 O41 1.282 . S
O40 Cd32 2.277 . S
O40 C33 1.226 . S
O41 Cd32 2.356 . S
O41 C39 1.282 . S
C42 O43 1.306 . S
C42 O45 1.160 . S
O43 C42 1.306 . S
O43 Cd44 2.228 . S
Cd44 O43 2.228 . S
Cd44 O48 2.273 . S
Cd44 O52 2.277 . S
O45 C42 1.160 . S
O45 Cd46 2.203 . S
Cd46 O45 2.203 . S
Cd46 O48 2.411 . S
Cd46 O49 2.333 . S
Cd46 O50 2.352 . S
Cd46 O54 2.277 . S
Cd46 O55 2.356 . S
C47 O52 1.209 . S
C47 O54 1.226 . S
O48 Cd44 2.273 . S
O48 Cd46 2.411 . S
O48 C51 1.320 . S
O49 Cd46 2.333 . S
O49 C51 1.214 . S
O50 Cd46 2.352 . S
O50 C53 1.258 . S
C51 O48 1.320 . S
C51 O49 1.214 . S
O52 Cd44 2.277 . S
O52 C47 1.209 . S
C53 O50 1.258 . S
C53 O55 1.282 . S
O54 Cd46 2.277 . S
O54 C47 1.226 . S
O55 Cd46 2.356 . S
O55 C53 1.282 . S
C56 O57 1.306 . S
C56 O59 1.160 . S
O57 C56 1.306 . S
O57 Cd58 2.228 . S
Cd58 O57 2.228 . S
Cd58 O62 2.273 . S
Cd58 O66 2.277 . S
O59 C56 1.160 . S
O59 Cd60 2.203 . S
Cd60 O59 2.203 . S
Cd60 O62 2.411 . S
Cd60 O63 2.333 . S
Cd60 O64 2.352 . S
Cd60 O68 2.277 . S
Cd60 O69 2.356 . S
C61 O66 1.209 . S
C61 O68 1.226 . S
O62 Cd58 2.273 . S
O62 Cd60 2.411 . S
O62 C65 1.320 . S
O63 Cd60 2.333 . S
O63 C65 1.214 . S
O64 Cd60 2.352 . S
O64 C67 1.258 . S
C65 O62 1.320 . S
C65 O63 1.214 . S
O66 Cd58 2.277 . S
O66 C61 1.209 . S
C67 O64 1.258 . S
C67 O69 1.282 . S
O68 Cd60 2.277 . S
O68 C61 1.226 . S
O69 Cd60 2.356 . S
O69 C67 1.282 . S
C70 O71 1.306 . S
C70 O73 1.160 . S
O71 C70 1.306 . S
O71 Cd72 2.228 . S
Cd72 O71 2.228 . S
Cd72 O76 2.273 . S
Cd72 O80 2.277 . S
O73 C70 1.160 . S
O73 Cd74 2.203 . S
Cd74 O73 2.203 . S
Cd74 O76 2.411 . S
Cd74 O77 2.333 . S
Cd74 O78 2.352 . S
Cd74 O82 2.277 . S
Cd74 O83 2.356 . S
C75 O80 1.209 . S
C75 O82 1.226 . S
O76 Cd72 2.273 . S
O76 Cd74 2.411 . S
O76 C79 1.320 . S
O77 Cd74 2.333 . S
O77 C79 1.214 . S
O78 Cd74 2.352 . S
O78 C81 1.258 . S
C79 O76 1.320 . S
C79 O77 1.214 . S
O80 Cd72 2.277 . S
O80 C75 1.209 . S
C81 O78 1.258 . S
C81 O83 1.282 . S
O82 Cd74 2.277 . S
O82 C75 1.226 . S
O83 Cd74 2.356 . S
O83 C81 1.282 . S
C84 O85 1.306 . S
C84 O87 1.160 . S
O85 C84 1.306 . S
O85 Cd86 2.228 . S
Cd86 O85 2.228 . S
Cd86 O90 2.273 . S
Cd86 O94 2.277 . S
O87 C84 1.160 . S
O87 Cd88 2.203 . S
Cd88 O87 2.203 . S
Cd88 O90 2.411 . S
Cd88 O91 2.333 . S
Cd88 O92 2.352 . S
Cd88 O96 2.277 . S
Cd88 O97 2.356 . S
C89 O94 1.209 . S
C89 O96 1.226 . S
O90 Cd86 2.273 . S
O90 Cd88 2.411 . S
O90 C93 1.320 . S
O91 Cd88 2.333 . S
O91 C93 1.214 . S
O92 Cd88 2.352 . S
O92 C95 1.258 . S
C93 O90 1.320 . S
C93 O91 1.214 . S
O94 Cd86 2.277 . S
O94 C89 1.209 . S
C95 O92 1.258 . S
C95 O97 1.282 . S
O96 Cd88 2.277 . S
O96 C89 1.226 . S
O97 Cd88 2.356 . S
O97 C95 1.282 . S
C98 O99 1.306 . S
C98 O101 1.160 . S
O99 C98 1.306 . S
O99 Cd100 2.228 . S
Cd100 O99 2.228 . S
Cd100 O104 2.273 . S
Cd100 O108 2.277 . S
O101 C98 1.160 . S
O101 Cd102 2.203 . S
Cd102 O101 2.203 . S
Cd102 O104 2.411 . S
Cd102 O105 2.333 . S
Cd102 O106 2.352 . S
Cd102 O110 2.277 . S
Cd102 O111 2.356 . S
C103 O108 1.209 . S
C103 O110 1.226 . S
O104 Cd100 2.273 . S
O104 Cd102 2.411 . S
O104 C107 1.320 . S
O105 Cd102 2.333 . S
O105 C107 1.214 . S
O106 Cd102 2.352 . S
O106 C109 1.258 . S
C107 O104 1.320 . S
C107 O105 1.214 . S
O108 Cd100 2.277 . S
O108 C103 1.209 . S
C109 O106 1.258 . S
C109 O111 1.282 . S
O110 Cd102 2.277 . S
O110 C103 1.226 . S
O111 Cd102 2.356 . S
O111 C109 1.282 . S
C112 O113 1.306 . S
C112 O115 1.160 . S
O113 C112 1.306 . S
O113 Cd114 2.228 . S
Cd114 O113 2.228 . S
Cd114 O118 2.273 . S
Cd114 O122 2.277 . S
O115 C112 1.160 . S
O115 Cd116 2.203 . S
Cd116 O115 2.203 . S
Cd116 O118 2.411 . S
Cd116 O119 2.333 . S
Cd116 O120 2.352 . S
Cd116 O124 2.277 . S
Cd116 O125 2.356 . S
C117 O122 1.209 . S
C117 O124 1.226 . S
O118 Cd114 2.273 . S
O118 Cd116 2.411 . S
O118 C121 1.320 . S
O119 Cd116 2.333 . S
O119 C121 1.214 . S
O120 Cd116 2.352 . S
O120 C123 1.258 . S
C121 O118 1.320 . S
C121 O119 1.214 . S
O122 Cd114 2.277 . S
O122 C117 1.209 . S
C123 O120 1.258 . S
C123 O125 1.282 . S
O124 Cd116 2.277 . S
O124 C117 1.226 . S
O125 Cd116 2.356 . S
O125 C123 1.282 . S
C126 O127 1.306 . S
C126 O129 1.160 . S
O127 C126 1.306 . S
O127 Cd128 2.228 . S
Cd128 O127 2.228 . S
Cd128 O132 2.273 . S
Cd128 O136 2.277 . S
O129 C126 1.160 . S
O129 Cd130 2.203 . S
Cd130 O129 2.203 . S
Cd130 O132 2.411 . S
Cd130 O133 2.333 . S
Cd130 O134 2.352 . S
Cd130 O138 2.277 . S
Cd130 O139 2.356 . S
C131 O136 1.209 . S
C131 O138 1.226 . S
O132 Cd128 2.273 . S
O132 Cd130 2.411 . S
O132 C135 1.320 . S
O133 Cd130 2.333 . S
O133 C135 1.214 . S
O134 Cd130 2.352 . S
O134 C137 1.258 . S
C135 O132 1.320 . S
C135 O133 1.214 . S
O136 Cd128 2.277 . S
O136 C131 1.209 . S
C137 O134 1.258 . S
C137 O139 1.282 . S
O138 Cd130 2.277 . S
O138 C131 1.226 . S
O139 Cd130 2.356 . S
O139 C137 1.282 . S
C140 O141 1.306 . S
C140 O143 1.160 . S
O141 C140 1.306 . S
O141 Cd142 2.228 . S
Cd142 O141 2.228 . S
Cd142 O146 2.273 . S
Cd142 O150 2.277 . S
O143 C140 1.160 . S
O143 Cd144 2.203 . S
Cd144 O143 2.203 . S
Cd144 O146 2.411 . S
Cd144 O147 2.333 . S
Cd144 O148 2.352 . S
Cd144 O152 2.277 . S
Cd144 O153 2.356 . S
C145 O150 1.209 . S
C145 O152 1.226 . S
O146 Cd142 2.273 . S
O146 Cd144 2.411 . S
O146 C149 1.320 . S
O147 Cd144 2.333 . S
O147 C149 1.214 . S
O148 Cd144 2.352 . S
O148 C151 1.258 . S
C149 O146 1.320 . S
C149 O147 1.214 . S
O150 Cd142 2.277 . S
O150 C145 1.209 . S
C151 O148 1.258 . S
C151 O153 1.282 . S
O152 Cd144 2.277 . S
O152 C145 1.226 . S
O153 Cd144 2.356 . S
O153 C151 1.282 . S
C154 O155 1.306 . S
C154 O157 1.160 . S
O155 C154 1.306 . S
O155 Cd156 2.228 . S
Cd156 O155 2.228 . S
Cd156 O160 2.273 . S
Cd156 O164 2.277 . S
O157 C154 1.160 . S
O157 Cd158 2.203 . S
Cd158 O157 2.203 . S
Cd158 O160 2.411 . S
Cd158 O161 2.333 . S
Cd158 O162 2.352 . S
Cd158 O166 2.277 . S
Cd158 O167 2.356 . S
C159 O164 1.209 . S
C159 O166 1.226 . S
O160 Cd156 2.273 . S
O160 Cd158 2.411 . S
O160 C163 1.320 . S
O161 Cd158 2.333 . S
O161 C163 1.214 . S
O162 Cd158 2.352 . S
O162 C165 1.258 . S
C163 O160 1.320 . S
C163 O161 1.214 . S
O164 Cd156 2.277 . S
O164 C159 1.209 . S
C165 O162 1.258 . S
C165 O167 1.282 . S
O166 Cd158 2.277 . S
O166 C159 1.226 . S
O167 Cd158 2.356 . S
O167 C165 1.282 . S
H168 C180 0.930 . S
H169 C182 0.930 . S
H170 C183 0.930 . S
H171 C187 0.964 . S
H172 C187 1.001 . S
H173 C187 0.917 1_556 S
H174 C188 0.924 1_556 S
H175 C188 0.995 . S
H176 C188 0.963 . S
H177 C191 0.929 . S
H178 C192 0.931 . S
H179 C194 0.930 . S
C180 H168 0.930 . S
C180 C181 1.399 . S
C180 C185 1.399 . S
C181 C180 1.399 . S
C181 C182 1.376 . S
C182 H169 0.930 . S
C182 C181 1.376 . S
C182 C183 1.388 . S
C183 H170 0.930 . S
C183 C182 1.388 . S
C183 C184 1.390 . S
C184 C183 1.390 . S
C184 C185 1.394 . S
C184 C190 1.465 1_556 S
C185 C180 1.399 . S
C185 C184 1.394 . S
C185 C186 1.502 1_556 S
C186 C185 1.502 1_554 S
C186 C187 1.501 . S
C186 C188 1.561 . S
C186 C189 1.540 . S
C187 H171 0.964 . S
C187 H172 1.001 . S
C187 H173 0.917 1_554 S
C187 C186 1.501 . S
C188 H174 0.924 1_554 S
C188 H175 0.995 . S
C188 H176 0.963 . S
C188 C186 1.561 . S
C189 C186 1.540 . S
C189 C190 1.396 . S
C189 C194 1.390 . S
C190 C184 1.465 1_554 S
C190 C189 1.396 . S
C190 C191 1.399 . S
C191 H177 0.929 . S
C191 C190 1.399 . S
C191 C192 1.385 . S
C192 H178 0.931 . S
C192 C191 1.385 . S
C192 C193 1.389 . S
C193 C192 1.389 . S
C193 C194 1.387 . S
C194 H179 0.930 . S
C194 C189 1.390 . S
C194 C193 1.387 . S
H195 C207 0.930 . S
H196 C209 0.930 . S
H197 C210 0.930 . S
H198 C214 0.959 . S
H199 C214 0.959 . S
H200 C214 0.961 . S
H201 C215 0.960 . S
H202 C215 0.961 . S
H203 C215 0.959 . S
H204 C218 0.929 . S
H205 C219 0.931 . S
H206 C221 0.930 . S
C207 H195 0.930 . S
C207 C208 1.399 . S
C207 C212 1.399 . S
C208 C207 1.399 . S
C208 C209 1.376 . S
C209 H196 0.930 . S
C209 C208 1.376 . S
C209 C210 1.388 . S
C210 H197 0.930 . S
C210 C209 1.388 . S
C210 C211 1.390 . S
C211 C210 1.390 . S
C211 C212 1.394 . S
C211 C217 1.465 . S
C212 C207 1.399 . S
C212 C211 1.394 . S
C212 C213 1.516 . S
C213 C212 1.516 . S
C213 C214 1.502 . S
C213 C215 1.561 . S
C213 C216 1.526 . S
C214 H198 0.959 . S
C214 H199 0.959 . S
C214 H200 0.961 . S
C214 C213 1.502 . S
C215 H201 0.960 . S
C215 H202 0.961 . S
C215 H203 0.959 . S
C215 C213 1.561 . S
C216 C213 1.526 . S
C216 C217 1.396 . S
C216 C221 1.390 . S
C217 C211 1.465 . S
C217 C216 1.396 . S
C217 C218 1.399 . S
C218 H204 0.929 . S
C218 C217 1.399 . S
C218 C219 1.385 . S
C219 H205 0.931 . S
C219 C218 1.385 . S
C219 C220 1.389 . S
C220 C219 1.389 . S
C220 C221 1.387 . S
C221 H206 0.930 . S
C221 C216 1.390 . S
C221 C220 1.387 . S
H222 C234 0.930 . S
H223 C236 0.930 . S
H224 C237 0.930 . S
H225 C241 0.959 . S
H226 C241 0.959 . S
H227 C241 0.961 . S
H228 C242 0.960 . S
H229 C242 0.961 . S
H230 C242 0.959 . S
H231 C245 0.929 . S
H232 C246 0.931 . S
H233 C248 0.930 . S
C234 H222 0.930 . S
C234 C235 1.399 . S
C234 C239 1.399 . S
C235 C234 1.399 . S
C235 C236 1.376 . S
C236 H223 0.930 . S
C236 C235 1.376 . S
C236 C237 1.388 . S
C237 H224 0.930 . S
C237 C236 1.388 . S
C237 C238 1.390 . S
C238 C237 1.390 . S
C238 C239 1.394 . S
C238 C244 1.465 . S
C239 C234 1.399 . S
C239 C238 1.394 . S
C239 C240 1.516 . S
C240 C239 1.516 . S
C240 C241 1.502 . S
C240 C242 1.561 . S
C240 C243 1.526 . S
C241 H225 0.959 . S
C241 H226 0.959 . S
C241 H227 0.961 . S
C241 C240 1.502 . S
C242 H228 0.960 . S
C242 H229 0.961 . S
C242 H230 0.959 . S
C242 C240 1.561 . S
C243 C240 1.526 . S
C243 C244 1.396 . S
C243 C248 1.390 . S
C244 C238 1.465 . S
C244 C243 1.396 . S
C244 C245 1.399 . S
C245 H231 0.929 . S
C245 C244 1.399 . S
C245 C246 1.385 . S
C246 H232 0.931 . S
C246 C245 1.385 . S
C246 C247 1.389 . S
C247 C246 1.389 . S
C247 C248 1.387 . S
C248 H233 0.930 . S
C248 C243 1.390 . S
C248 C247 1.387 . S
H249 C261 0.930 . S
H250 C263 0.930 . S
H251 C264 0.930 . S
H252 C268 0.965 . S
H253 C268 0.998 . S
H254 C268 0.919 1_554 S
H255 C269 0.956 . S
H256 C269 0.965 1_556 S
H257 C269 0.957 1_556 S
H258 C272 0.929 . S
H259 C273 0.931 . S
H260 C275 0.930 . S
C261 H249 0.930 . S
C261 C262 1.399 . S
C261 C266 1.399 . S
C262 C261 1.399 . S
C262 C263 1.376 . S
C263 H250 0.930 . S
C263 C262 1.376 . S
C263 C264 1.388 . S
C264 H251 0.930 . S
C264 C263 1.388 . S
C264 C265 1.390 . S
C265 C264 1.390 . S
C265 C266 1.394 . S
C265 C271 1.465 1_554 S
C266 C261 1.399 . S
C266 C265 1.394 . S
C266 C267 1.515 1_554 S
C267 C266 1.515 1_556 S
C267 C268 1.501 . S
C267 C269 1.561 1_556 S
C267 C270 1.526 . S
C268 H252 0.965 . S
C268 H253 0.998 . S
C268 H254 0.919 1_556 S
C268 C267 1.501 . S
C269 H255 0.956 . S
C269 H256 0.965 1_554 S
C269 H257 0.957 1_554 S
C269 C267 1.561 1_554 S
C270 C267 1.526 . S
C270 C271 1.396 . S
C270 C275 1.390 . S
C271 C265 1.465 1_556 S
C271 C270 1.396 . S
C271 C272 1.399 . S
C272 H258 0.929 . S
C272 C271 1.399 . S
C272 C273 1.385 . S
C273 H259 0.931 . S
C273 C272 1.385 . S
C273 C274 1.389 . S
C274 C273 1.389 . S
C274 C275 1.387 . S
C275 H260 0.930 . S
C275 C270 1.390 . S
C275 C274 1.387 . S
H276 C288 0.930 . S
H277 C290 0.930 . S
H278 C291 0.930 . S
H279 C295 0.959 . S
H280 C295 0.959 . S
H281 C295 0.961 . S
H282 C296 0.960 . S
H283 C296 0.961 . S
H284 C296 0.959 . S
H285 C299 0.929 . S
H286 C300 0.931 . S
H287 C302 0.930 . S
C288 H276 0.930 . S
C288 C289 1.399 . S
C288 C293 1.399 . S
C289 C288 1.399 . S
C289 C290 1.376 . S
C290 H277 0.930 . S
C290 C289 1.376 . S
C290 C291 1.388 . S
C291 H278 0.930 . S
C291 C290 1.388 . S
C291 C292 1.390 . S
C292 C291 1.390 . S
C292 C293 1.394 . S
C292 C298 1.465 . S
C293 C288 1.399 . S
C293 C292 1.394 . S
C293 C294 1.516 . S
C294 C293 1.516 . S
C294 C295 1.502 . S
C294 C296 1.561 . S
C294 C297 1.526 . S
C295 H279 0.959 . S
C295 H280 0.959 . S
C295 H281 0.961 . S
C295 C294 1.502 . S
C296 H282 0.960 . S
C296 H283 0.961 . S
C296 H284 0.959 . S
C296 C294 1.561 . S
C297 C294 1.526 . S
C297 C298 1.396 . S
C297 C302 1.390 . S
C298 C292 1.465 . S
C298 C297 1.396 . S
C298 C299 1.399 . S
C299 H285 0.929 . S
C299 C298 1.399 . S
C299 C300 1.385 . S
C300 H286 0.931 . S
C300 C299 1.385 . S
C300 C301 1.389 . S
C301 C300 1.389 . S
C301 C302 1.387 . S
C302 H287 0.930 . S
C302 C297 1.390 . S
C302 C301 1.387 . S
H303 C315 0.930 . S
H304 C317 0.930 . S
H305 C318 0.930 . S
H306 C322 0.959 . S
H307 C322 0.959 . S
H308 C322 0.961 . S
H309 C323 0.960 . S
H310 C323 0.961 . S
H311 C323 0.959 . S
H312 C326 0.929 . S
H313 C327 0.931 . S
H314 C329 0.930 . S
C315 H303 0.930 . S
C315 C316 1.399 . S
C315 C320 1.399 . S
C316 C315 1.399 . S
C316 C317 1.376 . S
C317 H304 0.930 . S
C317 C316 1.376 . S
C317 C318 1.388 . S
C318 H305 0.930 . S
C318 C317 1.388 . S
C318 C319 1.390 . S
C319 C318 1.390 . S
C319 C320 1.394 . S
C319 C325 1.465 . S
C320 C315 1.399 . S
C320 C319 1.394 . S
C320 C321 1.516 . S
C321 C320 1.516 . S
C321 C322 1.502 . S
C321 C323 1.561 . S
C321 C324 1.526 . S
C322 H306 0.959 . S
C322 H307 0.959 . S
C322 H308 0.961 . S
C322 C321 1.502 . S
C323 H309 0.960 . S
C323 H310 0.961 . S
C323 H311 0.959 . S
C323 C321 1.561 . S
C324 C321 1.526 . S
C324 C325 1.396 . S
C324 C329 1.390 . S
C325 C319 1.465 . S
C325 C324 1.396 . S
C325 C326 1.399 . S
C326 H312 0.929 . S
C326 C325 1.399 . S
C326 C327 1.385 . S
C327 H313 0.931 . S
C327 C326 1.385 . S
C327 C328 1.389 . S
C328 C327 1.389 . S
C328 C329 1.387 . S
C329 H314 0.930 . S
C329 C324 1.390 . S
C329 C328 1.387 . S
H330 C342 0.930 . S
H331 C344 0.930 . S
H332 C345 0.930 . S
H333 C349 0.959 . S
H334 C349 0.959 . S
H335 C349 0.961 . S
H336 C350 0.960 . S
H337 C350 0.961 . S
H338 C350 0.959 . S
H339 C353 0.929 . S
H340 C354 0.931 . S
H341 C356 0.930 . S
C342 H330 0.930 . S
C342 C343 1.399 . S
C342 C347 1.399 . S
C343 C342 1.399 . S
C343 C344 1.376 . S
C344 H331 0.930 . S
C344 C343 1.376 . S
C344 C345 1.388 . S
C345 H332 0.930 . S
C345 C344 1.388 . S
C345 C346 1.390 . S
C346 C345 1.390 . S
C346 C347 1.394 . S
C346 C352 1.465 . S
C347 C342 1.399 . S
C347 C346 1.394 . S
C347 C348 1.516 . S
C348 C347 1.516 . S
C348 C349 1.502 . S
C348 C350 1.561 . S
C348 C351 1.526 . S
C349 H333 0.959 . S
C349 H334 0.959 . S
C349 H335 0.961 . S
C349 C348 1.502 . S
C350 H336 0.960 . S
C350 H337 0.961 . S
C350 H338 0.959 . S
C350 C348 1.561 . S
C351 C348 1.526 . S
C351 C352 1.396 . S
C351 C356 1.390 . S
C352 C346 1.465 . S
C352 C351 1.396 . S
C352 C353 1.399 . S
C353 H339 0.929 . S
C353 C352 1.399 . S
C353 C354 1.385 . S
C354 H340 0.931 . S
C354 C353 1.385 . S
C354 C355 1.389 . S
C355 C354 1.389 . S
C355 C356 1.387 . S
C356 H341 0.930 . S
C356 C351 1.390 . S
C356 C355 1.387 . S
H357 C369 0.930 . S
H358 C371 0.930 . S
H359 C372 0.930 . S
H360 C376 0.959 . S
H361 C376 0.959 . S
H362 C376 0.961 . S
H363 C377 0.960 . S
H364 C377 0.961 . S
H365 C377 0.959 . S
H366 C380 0.929 . S
H367 C381 0.931 . S
H368 C383 0.930 . S
C369 H357 0.930 . S
C369 C370 1.399 . S
C369 C374 1.399 . S
C370 C369 1.399 . S
C370 C371 1.376 . S
C371 H358 0.930 . S
C371 C370 1.376 . S
C371 C372 1.388 . S
C372 H359 0.930 . S
C372 C371 1.388 . S
C372 C373 1.390 . S
C373 C372 1.390 . S
C373 C374 1.394 . S
C373 C379 1.465 . S
C374 C369 1.399 . S
C374 C373 1.394 . S
C374 C375 1.516 . S
C375 C374 1.516 . S
C375 C376 1.502 . S
C375 C377 1.561 . S
C375 C378 1.526 . S
C376 H360 0.959 . S
C376 H361 0.959 . S
C376 H362 0.961 . S
C376 C375 1.502 . S
C377 H363 0.960 . S
C377 H364 0.961 . S
C377 H365 0.959 . S
C377 C375 1.561 . S
C378 C375 1.526 . S
C378 C379 1.396 . S
C378 C383 1.390 . S
C379 C373 1.465 . S
C379 C378 1.396 . S
C379 C380 1.399 . S
C380 H366 0.929 . S
C380 C379 1.399 . S
C380 C381 1.385 . S
C381 H367 0.931 . S
C381 C380 1.385 . S
C381 C382 1.389 . S
C382 C381 1.389 . S
C382 C383 1.387 . S
C383 H368 0.930 . S
C383 C378 1.390 . S
C383 C382 1.387 . S
H384 C396 0.930 . S
H385 C398 0.930 . S
H386 C399 0.930 . S
H387 C403 0.959 . S
H388 C403 0.959 . S
H389 C403 0.961 . S
H390 C404 0.960 . S
H391 C404 0.961 . S
H392 C404 0.959 . S
H393 C407 0.929 . S
H394 C408 0.931 . S
H395 C410 0.930 . S
C396 H384 0.930 . S
C396 C397 1.399 . S
C396 C401 1.399 . S
C397 C396 1.399 . S
C397 C398 1.376 . S
C398 H385 0.930 . S
C398 C397 1.376 . S
C398 C399 1.388 . S
C399 H386 0.930 . S
C399 C398 1.388 . S
C399 C400 1.390 . S
C400 C399 1.390 . S
C400 C401 1.394 . S
C400 C406 1.465 . S
C401 C396 1.399 . S
C401 C400 1.394 . S
C401 C402 1.516 . S
C402 C401 1.516 . S
C402 C403 1.502 . S
C402 C404 1.561 . S
C402 C405 1.526 . S
C403 H387 0.959 . S
C403 H388 0.959 . S
C403 H389 0.961 . S
C403 C402 1.502 . S
C404 H390 0.960 . S
C404 H391 0.961 . S
C404 H392 0.959 . S
C404 C402 1.561 . S
C405 C402 1.526 . S
C405 C406 1.396 . S
C405 C410 1.390 . S
C406 C400 1.465 . S
C406 C405 1.396 . S
C406 C407 1.399 . S
C407 H393 0.929 . S
C407 C406 1.399 . S
C407 C408 1.385 . S
C408 H394 0.931 . S
C408 C407 1.385 . S
C408 C409 1.389 . S
C409 C408 1.389 . S
C409 C410 1.387 . S
C410 H395 0.930 . S
C410 C405 1.390 . S
C410 C409 1.387 . S
H411 C423 0.930 . S
H412 C425 0.930 . S
H413 C426 0.930 . S
H414 C430 0.959 . S
H415 C430 0.959 . S
H416 C430 0.961 . S
H417 C431 0.960 . S
H418 C431 0.961 . S
H419 C431 0.959 . S
H420 C434 0.929 . S
H421 C435 0.931 . S
H422 C437 0.930 . S
C423 H411 0.930 . S
C423 C424 1.399 . S
C423 C428 1.399 . S
C424 C423 1.399 . S
C424 C425 1.376 . S
C425 H412 0.930 . S
C425 C424 1.376 . S
C425 C426 1.388 . S
C426 H413 0.930 . S
C426 C425 1.388 . S
C426 C427 1.390 . S
C427 C426 1.390 . S
C427 C428 1.394 . S
C427 C433 1.465 . S
C428 C423 1.399 . S
C428 C427 1.394 . S
C428 C429 1.516 . S
C429 C428 1.516 . S
C429 C430 1.502 . S
C429 C431 1.561 . S
C429 C432 1.526 . S
C430 H414 0.959 . S
C430 H415 0.959 . S
C430 H416 0.961 . S
C430 C429 1.502 . S
C431 H417 0.960 . S
C431 H418 0.961 . S
C431 H419 0.959 . S
C431 C429 1.561 . S
C432 C429 1.526 . S
C432 C433 1.396 . S
C432 C437 1.390 . S
C433 C427 1.465 . S
C433 C432 1.396 . S
C433 C434 1.399 . S
C434 H420 0.929 . S
C434 C433 1.399 . S
C434 C435 1.385 . S
C435 H421 0.931 . S
C435 C434 1.385 . S
C435 C436 1.389 . S
C436 C435 1.389 . S
C436 C437 1.387 . S
C437 H422 0.930 . S
C437 C432 1.390 . S
C437 C436 1.387 . S
H438 C450 0.930 . S
H439 C452 0.930 . S
H440 C453 0.930 . S
H441 C457 0.959 . S
H442 C457 0.959 . S
H443 C457 0.961 . S
H444 C458 0.960 . S
H445 C458 0.961 . S
H446 C458 0.959 . S
H447 C461 0.929 . S
H448 C462 0.931 . S
H449 C464 0.930 . S
C450 H438 0.930 . S
C450 C451 1.399 . S
C450 C455 1.399 . S
C451 C450 1.399 . S
C451 C452 1.376 . S
C452 H439 0.930 . S
C452 C451 1.376 . S
C452 C453 1.388 . S
C453 H440 0.930 . S
C453 C452 1.388 . S
C453 C454 1.390 . S
C454 C453 1.390 . S
C454 C455 1.394 . S
C454 C460 1.465 . S
C455 C450 1.399 . S
C455 C454 1.394 . S
C455 C456 1.516 . S
C456 C455 1.516 . S
C456 C457 1.502 . S
C456 C458 1.561 . S
C456 C459 1.526 . S
C457 H441 0.959 . S
C457 H442 0.959 . S
C457 H443 0.961 . S
C457 C456 1.502 . S
C458 H444 0.960 . S
C458 H445 0.961 . S
C458 H446 0.959 . S
C458 C456 1.561 . S
C459 C456 1.526 . S
C459 C460 1.396 . S
C459 C464 1.390 . S
C460 C454 1.465 . S
C460 C459 1.396 . S
C460 C461 1.399 . S
C461 H447 0.929 . S
C461 C460 1.399 . S
C461 C462 1.385 . S
C462 H448 0.931 . S
C462 C461 1.385 . S
C462 C463 1.389 . S
C463 C462 1.389 . S
C463 C464 1.387 . S
C464 H449 0.930 . S
C464 C459 1.390 . S
C464 C463 1.387 . S
H465 C477 0.930 . S
H466 C479 0.930 . S
H467 C480 0.930 . S
H468 C484 0.959 . S
H469 C484 0.959 . S
H470 C484 0.961 . S
H471 C485 0.960 . S
H472 C485 0.961 . S
H473 C485 0.959 . S
H474 C488 0.929 . S
H475 C489 0.931 . S
H476 C491 0.930 . S
C477 H465 0.930 . S
C477 C478 1.399 . S
C477 C482 1.399 . S
C478 C477 1.399 . S
C478 C479 1.376 . S
C479 H466 0.930 . S
C479 C478 1.376 . S
C479 C480 1.388 . S
C480 H467 0.930 . S
C480 C479 1.388 . S
C480 C481 1.390 . S
C481 C480 1.390 . S
C481 C482 1.394 . S
C481 C487 1.465 . S
C482 C477 1.399 . S
C482 C481 1.394 . S
C482 C483 1.516 . S
C483 C482 1.516 . S
C483 C484 1.502 . S
C483 C485 1.561 . S
C483 C486 1.526 . S
C484 H468 0.959 . S
C484 H469 0.959 . S
C484 H470 0.961 . S
C484 C483 1.502 . S
C485 H471 0.960 . S
C485 H472 0.961 . S
C485 H473 0.959 . S
C485 C483 1.561 . S
C486 C483 1.526 . S
C486 C487 1.396 . S
C486 C491 1.390 . S
C487 C481 1.465 . S
C487 C486 1.396 . S
C487 C488 1.399 . S
C488 H474 0.929 . S
C488 C487 1.399 . S
C488 C489 1.385 . S
C489 H475 0.931 . S
C489 C488 1.385 . S
C489 C490 1.389 . S
C490 C489 1.389 . S
C490 C491 1.387 . S
C491 H476 0.930 . S
C491 C486 1.390 . S
C491 C490 1.387 . S
H492 C504 0.930 . S
H493 C506 0.930 . S
H494 C507 0.930 . S
H495 C511 0.959 . S
H496 C511 0.959 . S
H497 C511 0.961 1_655 S
H498 C512 0.964 . S
H499 C512 0.958 1_455 S
H500 C512 0.957 . S
H501 C515 0.929 . S
H502 C516 0.931 . S
H503 C518 0.930 . S
C504 H492 0.930 . S
C504 C505 1.399 . S
C504 C509 1.399 . S
C505 C504 1.399 . S
C505 C506 1.376 . S
C506 H493 0.930 . S
C506 C505 1.376 . S
C506 C507 1.388 . S
C507 H494 0.930 . S
C507 C506 1.388 . S
C507 C508 1.390 . S
C508 C507 1.390 . S
C508 C509 1.394 . S
C508 C514 1.465 1_655 S
C509 C504 1.399 . S
C509 C508 1.394 . S
C509 C510 1.516 1_655 S
C510 C509 1.516 1_455 S
C510 C511 1.502 . S
C510 C512 1.562 1_455 S
C510 C513 1.526 . S
C511 H495 0.959 . S
C511 H496 0.959 . S
C511 H497 0.961 1_455 S
C511 C510 1.502 . S
C512 H498 0.964 . S
C512 H499 0.958 1_655 S
C512 H500 0.957 . S
C512 C510 1.562 1_655 S
C513 C510 1.526 . S
C513 C514 1.396 . S
C513 C518 1.390 . S
C514 C508 1.465 1_455 S
C514 C513 1.396 . S
C514 C515 1.399 . S
C515 H501 0.929 . S
C515 C514 1.399 . S
C515 C516 1.385 . S
C516 H502 0.931 . S
C516 C515 1.385 . S
C516 C517 1.389 . S
C517 C516 1.389 . S
C517 C518 1.387 . S
C518 H503 0.930 . S
C518 C513 1.390 . S
C518 C517 1.387 . S
H519 C531 0.930 . S
H520 C533 0.930 . S
H521 C534 0.930 . S
H522 C538 0.959 . S
H523 C538 0.959 . S
H524 C538 0.961 1_545 S
H525 C539 0.960 . S
H526 C539 0.961 1_565 S
H527 C539 0.959 . S
H528 C542 0.929 . S
H529 C543 0.931 . S
H530 C545 0.930 . S
C531 H519 0.930 . S
C531 C532 1.399 . S
C531 C536 1.399 . S
C532 C531 1.399 . S
C532 C533 1.376 . S
C533 H520 0.930 . S
C533 C532 1.376 . S
C533 C534 1.388 . S
C534 H521 0.930 . S
C534 C533 1.388 . S
C534 C535 1.390 . S
C535 C534 1.390 . S
C535 C536 1.394 . S
C535 C541 1.465 1_545 S
C536 C531 1.399 . S
C536 C535 1.394 . S
C536 C537 1.516 1_545 S
C537 C536 1.516 1_565 S
C537 C538 1.502 . S
C537 C539 1.561 1_565 S
C537 C540 1.526 . S
C538 H522 0.959 . S
C538 H523 0.959 . S
C538 H524 0.961 1_565 S
C538 C537 1.502 . S
C539 H525 0.960 . S
C539 H526 0.961 1_545 S
C539 H527 0.959 . S
C539 C537 1.561 1_545 S
C540 C537 1.526 . S
C540 C541 1.396 . S
C540 C545 1.390 . S
C541 C535 1.465 1_565 S
C541 C540 1.396 . S
C541 C542 1.399 . S
C542 H528 0.929 . S
C542 C541 1.399 . S
C542 C543 1.385 . S
C543 H529 0.931 . S
C543 C542 1.385 . S
C543 C544 1.389 . S
C544 C543 1.389 . S
C544 C545 1.387 . S
C545 H530 0.930 . S
C545 C540 1.390 . S
C545 C544 1.387 . S
H546 C558 0.930 . S
H547 C560 0.930 . S
H548 C561 0.930 . S
H549 C565 0.959 . S
H550 C565 0.959 . S
H551 C565 0.961 . S
H552 C566 0.960 . S
H553 C566 0.961 . S
H554 C566 0.959 . S
H555 C569 0.929 . S
H556 C570 0.931 . S
H557 C572 0.930 . S
C558 H546 0.930 . S
C558 C559 1.399 . S
C558 C563 1.399 . S
C559 C558 1.399 . S
C559 C560 1.376 . S
C560 H547 0.930 . S
C560 C559 1.376 . S
C560 C561 1.388 . S
C561 H548 0.930 . S
C561 C560 1.388 . S
C561 C562 1.390 . S
C562 C561 1.390 . S
C562 C563 1.394 . S
C562 C568 1.465 . S
C563 C558 1.399 . S
C563 C562 1.394 . S
C563 C564 1.516 . S
C564 C563 1.516 . S
C564 C565 1.502 . S
C564 C566 1.561 . S
C564 C567 1.526 . S
C565 H549 0.959 . S
C565 H550 0.959 . S
C565 H551 0.961 . S
C565 C564 1.502 . S
C566 H552 0.960 . S
C566 H553 0.961 . S
C566 H554 0.959 . S
C566 C564 1.561 . S
C567 C564 1.526 . S
C567 C568 1.396 . S
C567 C572 1.390 . S
C568 C562 1.465 . S
C568 C567 1.396 . S
C568 C569 1.399 . S
C569 H555 0.929 . S
C569 C568 1.399 . S
C569 C570 1.385 . S
C570 H556 0.931 . S
C570 C569 1.385 . S
C570 C571 1.389 . S
C571 C570 1.389 . S
C571 C572 1.387 . S
C572 H557 0.930 . S
C572 C567 1.390 . S
C572 C571 1.387 . S
H573 C585 0.930 . S
H574 C587 0.930 . S
H575 C588 0.930 . S
H576 C592 0.959 . S
H577 C592 0.959 1_565 S
H578 C592 0.961 . S
H579 C593 0.960 1_545 S
H580 C593 0.961 . S
H581 C593 0.959 . S
H582 C596 0.929 . S
H583 C597 0.931 . S
H584 C599 0.930 . S
C585 H573 0.930 . S
C585 C586 1.399 . S
C585 C590 1.399 . S
C586 C585 1.399 . S
C586 C587 1.376 . S
C587 H574 0.930 . S
C587 C586 1.376 . S
C587 C588 1.388 . S
C588 H575 0.930 . S
C588 C587 1.388 . S
C588 C589 1.390 . S
C589 C588 1.390 . S
C589 C590 1.394 . S
C589 C595 1.465 1_545 S
C590 C585 1.399 . S
C590 C589 1.394 . S
C590 C591 1.516 1_545 S
C591 C590 1.516 1_565 S
C591 C592 1.502 1_565 S
C591 C593 1.561 . S
C591 C594 1.526 . S
C592 H576 0.959 . S
C592 H577 0.959 1_545 S
C592 H578 0.961 . S
C592 C591 1.502 1_545 S
C593 H579 0.960 1_565 S
C593 H580 0.961 . S
C593 H581 0.959 . S
C593 C591 1.561 . S
C594 C591 1.526 . S
C594 C595 1.396 . S
C594 C599 1.390 . S
C595 C589 1.465 1_565 S
C595 C594 1.396 . S
C595 C596 1.399 . S
C596 H582 0.929 . S
C596 C595 1.399 . S
C596 C597 1.385 . S
C597 H583 0.931 . S
C597 C596 1.385 . S
C597 C598 1.389 . S
C598 C597 1.389 . S
C598 C599 1.387 . S
C599 H584 0.930 . S
C599 C594 1.390 . S
C599 C598 1.387 . S
H600 C612 0.930 . S
H601 C614 0.930 . S
H602 C615 0.930 . S
H603 C619 0.959 . S
H604 C619 0.959 . S
H605 C619 0.961 . S
H606 C620 0.960 . S
H607 C620 0.961 . S
H608 C620 0.959 . S
H609 C623 0.929 . S
H610 C624 0.931 . S
H611 C626 0.930 . S
C612 H600 0.930 . S
C612 C613 1.399 . S
C612 C617 1.399 . S
C613 C612 1.399 . S
C613 C614 1.376 . S
C614 H601 0.930 . S
C614 C613 1.376 . S
C614 C615 1.388 . S
C615 H602 0.930 . S
C615 C614 1.388 . S
C615 C616 1.390 . S
C616 C615 1.390 . S
C616 C617 1.394 . S
C616 C622 1.465 . S
C617 C612 1.399 . S
C617 C616 1.394 . S
C617 C618 1.516 . S
C618 C617 1.516 . S
C618 C619 1.502 . S
C618 C620 1.561 . S
C618 C621 1.526 . S
C619 H603 0.959 . S
C619 H604 0.959 . S
C619 H605 0.961 . S
C619 C618 1.502 . S
C620 H606 0.960 . S
C620 H607 0.961 . S
C620 H608 0.959 . S
C620 C618 1.561 . S
C621 C618 1.526 . S
C621 C622 1.396 . S
C621 C626 1.390 . S
C622 C616 1.465 . S
C622 C621 1.396 . S
C622 C623 1.399 . S
C623 H609 0.929 . S
C623 C622 1.399 . S
C623 C624 1.385 . S
C624 H610 0.931 . S
C624 C623 1.385 . S
C624 C625 1.389 . S
C625 C624 1.389 . S
C625 C626 1.387 . S
C626 H611 0.930 . S
C626 C621 1.390 . S
C626 C625 1.387 . S
H627 C639 0.930 . S
H628 C641 0.930 . S
H629 C642 0.930 . S
H630 C646 0.959 . S
H631 C646 0.959 1_655 S
H632 C646 0.961 . S
H633 C647 0.962 . S
H634 C647 0.960 1_655 S
H635 C647 0.957 1_655 S
H636 C650 0.929 . S
H637 C651 0.931 . S
H638 C653 0.930 . S
C639 H627 0.930 . S
C639 C640 1.399 . S
C639 C644 1.399 . S
C640 C639 1.399 . S
C640 C641 1.376 . S
C641 H628 0.930 . S
C641 C640 1.376 . S
C641 C642 1.388 . S
C642 H629 0.930 . S
C642 C641 1.388 . S
C642 C643 1.390 . S
C643 C642 1.390 . S
C643 C644 1.394 . S
C643 C649 1.465 1_455 S
C644 C639 1.399 . S
C644 C643 1.394 . S
C644 C645 1.516 . S
C645 C644 1.516 . S
C645 C646 1.502 . S
C645 C647 1.562 . S
C645 C648 1.526 1_455 S
C646 H630 0.959 . S
C646 H631 0.959 1_455 S
C646 H632 0.961 . S
C646 C645 1.502 . S
C647 H633 0.962 . S
C647 H634 0.960 1_455 S
C647 H635 0.957 1_455 S
C647 C645 1.562 . S
C648 C645 1.526 1_655 S
C648 C649 1.396 . S
C648 C653 1.390 . S
C649 C643 1.465 1_655 S
C649 C648 1.396 . S
C649 C650 1.399 . S
C650 H636 0.929 . S
C650 C649 1.399 . S
C650 C651 1.385 . S
C651 H637 0.931 . S
C651 C650 1.385 . S
C651 C652 1.389 . S
C652 C651 1.389 . S
C652 C653 1.387 . S
C653 H638 0.930 . S
C653 C648 1.390 . S
C653 C652 1.387 . S
H654 C666 0.930 . S
H655 C668 0.930 . S
H656 C669 0.930 . S
H657 C673 0.959 . S
H658 C673 0.959 . S
H659 C673 0.961 . S
H660 C674 0.960 . S
H661 C674 0.961 . S
H662 C674 0.959 . S
H663 C677 0.929 . S
H664 C678 0.931 . S
H665 C680 0.930 . S
C666 H654 0.930 . S
C666 C667 1.399 . S
C666 C671 1.399 . S
C667 C666 1.399 . S
C667 C668 1.376 . S
C668 H655 0.930 . S
C668 C667 1.376 . S
C668 C669 1.388 . S
C669 H656 0.930 . S
C669 C668 1.388 . S
C669 C670 1.390 . S
C670 C669 1.390 . S
C670 C671 1.394 . S
C670 C676 1.465 . S
C671 C666 1.399 . S
C671 C670 1.394 . S
C671 C672 1.516 . S
C672 C671 1.516 . S
C672 C673 1.502 . S
C672 C674 1.561 . S
C672 C675 1.526 . S
C673 H657 0.959 . S
C673 H658 0.959 . S
C673 H659 0.961 . S
C673 C672 1.502 . S
C674 H660 0.960 . S
C674 H661 0.961 . S
C674 H662 0.959 . S
C674 C672 1.561 . S
C675 C672 1.526 . S
C675 C676 1.396 . S
C675 C680 1.390 . S
C676 C670 1.465 . S
C676 C675 1.396 . S
C676 C677 1.399 . S
C677 H663 0.929 . S
C677 C676 1.399 . S
C677 C678 1.385 . S
C678 H664 0.931 . S
C678 C677 1.385 . S
C678 C679 1.389 . S
C679 C678 1.389 . S
C679 C680 1.387 . S
C680 H665 0.930 . S
C680 C675 1.390 . S
C680 C679 1.387 . S
H681 C693 0.930 . S
H682 C695 0.930 . S
H683 C696 0.930 . S
H684 C700 0.959 . S
H685 C700 0.959 . S
H686 C700 0.961 1_655 S
H687 C701 0.960 . S
H688 C701 0.961 1_455 S
H689 C701 0.959 . S
H690 C704 0.929 . S
H691 C705 0.931 . S
H692 C707 0.930 . S
C693 H681 0.930 . S
C693 C694 1.399 . S
C693 C698 1.399 . S
C694 C693 1.399 . S
C694 C695 1.376 . S
C695 H682 0.930 . S
C695 C694 1.376 . S
C695 C696 1.388 . S
C696 H683 0.930 . S
C696 C695 1.388 . S
C696 C697 1.390 . S
C697 C696 1.390 . S
C697 C698 1.394 . S
C697 C703 1.465 1_655 S
C698 C693 1.399 . S
C698 C697 1.394 . S
C698 C699 1.516 . S
C699 C698 1.516 . S
C699 C700 1.502 1_655 S
C699 C701 1.561 . S
C699 C702 1.526 1_655 S
C700 H684 0.959 . S
C700 H685 0.959 . S
C700 H686 0.961 1_455 S
C700 C699 1.502 1_455 S
C701 H687 0.960 . S
C701 H688 0.961 1_655 S
C701 H689 0.959 . S
C701 C699 1.561 . S
C702 C699 1.526 1_455 S
C702 C703 1.396 . S
C702 C707 1.390 . S
C703 C697 1.465 1_455 S
C703 C702 1.396 . S
C703 C704 1.399 . S
C704 H690 0.929 . S
C704 C703 1.399 . S
C704 C705 1.385 . S
C705 H691 0.931 . S
C705 C704 1.385 . S
C705 C706 1.389 . S
C706 C705 1.389 . S
C706 C707 1.387 . S
C707 H692 0.930 . S
C707 C702 1.390 . S
C707 C706 1.387 . S
H708 C720 0.930 . S
H709 C722 0.930 . S
H710 C723 0.930 . S
H711 C727 0.959 . S
H712 C727 0.959 . S
H713 C727 0.961 1_545 S
H714 C728 0.960 . S
H715 C728 0.961 1_565 S
H716 C728 0.959 . S
H717 C731 0.929 . S
H718 C732 0.931 . S
H719 C734 0.930 . S
C720 H708 0.930 . S
C720 C721 1.399 . S
C720 C725 1.399 . S
C721 C720 1.399 . S
C721 C722 1.376 . S
C722 H709 0.930 . S
C722 C721 1.376 . S
C722 C723 1.388 . S
C723 H710 0.930 . S
C723 C722 1.388 . S
C723 C724 1.390 . S
C724 C723 1.390 . S
C724 C725 1.394 . S
C724 C730 1.465 1_545 S
C725 C720 1.399 . S
C725 C724 1.394 . S
C725 C726 1.516 1_545 S
C726 C725 1.516 1_565 S
C726 C727 1.502 . S
C726 C728 1.561 1_565 S
C726 C729 1.526 . S
C727 H711 0.959 . S
C727 H712 0.959 . S
C727 H713 0.961 1_565 S
C727 C726 1.502 . S
C728 H714 0.960 . S
C728 H715 0.961 1_545 S
C728 H716 0.959 . S
C728 C726 1.561 1_545 S
C729 C726 1.526 . S
C729 C730 1.396 . S
C729 C734 1.390 . S
C730 C724 1.465 1_565 S
C730 C729 1.396 . S
C730 C731 1.399 . S
C731 H717 0.929 . S
C731 C730 1.399 . S
C731 C732 1.385 . S
C732 H718 0.931 . S
C732 C731 1.385 . S
C732 C733 1.389 . S
C733 C732 1.389 . S
C733 C734 1.387 . S
C734 H719 0.930 . S
C734 C729 1.390 . S
C734 C733 1.387 . S
H735 C747 0.930 . S
H736 C749 0.930 . S
H737 C750 0.930 . S
H738 C754 0.959 . S
H739 C754 0.959 . S
H740 C754 0.961 . S
H741 C755 0.960 . S
H742 C755 0.961 . S
H743 C755 0.959 . S
H744 C758 0.929 . S
H745 C759 0.931 . S
H746 C761 0.930 . S
C747 H735 0.930 . S
C747 C748 1.399 . S
C747 C752 1.399 . S
C748 C747 1.399 . S
C748 C749 1.376 . S
C749 H736 0.930 . S
C749 C748 1.376 . S
C749 C750 1.388 . S
C750 H737 0.930 . S
C750 C749 1.388 . S
C750 C751 1.390 . S
C751 C750 1.390 . S
C751 C752 1.394 . S
C751 C757 1.465 . S
C752 C747 1.399 . S
C752 C751 1.394 . S
C752 C753 1.516 . S
C753 C752 1.516 . S
C753 C754 1.502 . S
C753 C755 1.561 . S
C753 C756 1.526 . S
C754 H738 0.959 . S
C754 H739 0.959 . S
C754 H740 0.961 . S
C754 C753 1.502 . S
C755 H741 0.960 . S
C755 H742 0.961 . S
C755 H743 0.959 . S
C755 C753 1.561 . S
C756 C753 1.526 . S
C756 C757 1.396 . S
C756 C761 1.390 . S
C757 C751 1.465 . S
C757 C756 1.396 . S
C757 C758 1.399 . S
C758 H744 0.929 . S
C758 C757 1.399 . S
C758 C759 1.385 . S
C759 H745 0.931 . S
C759 C758 1.385 . S
C759 C760 1.389 . S
C760 C759 1.389 . S
C760 C761 1.387 . S
C761 H746 0.930 . S
C761 C756 1.390 . S
C761 C760 1.387 . S
H762 C774 0.930 . S
H763 C776 0.930 . S
H764 C777 0.930 . S
H765 C781 0.959 . S
H766 C781 0.959 1_655 S
H767 C781 0.961 . S
H768 C782 0.960 1_455 S
H769 C782 0.961 . S
H770 C782 0.959 . S
H771 C785 0.929 . S
H772 C786 0.931 . S
H773 C788 0.930 . S
C774 H762 0.930 . S
C774 C775 1.399 . S
C774 C779 1.399 . S
C775 C774 1.399 . S
C775 C776 1.376 . S
C776 H763 0.930 . S
C776 C775 1.376 . S
C776 C777 1.388 . S
C777 H764 0.930 . S
C777 C776 1.388 . S
C777 C778 1.390 . S
C778 C777 1.390 . S
C778 C779 1.394 . S
C778 C784 1.465 1_455 S
C779 C774 1.399 . S
C779 C778 1.394 . S
C779 C780 1.516 . S
C780 C779 1.516 . S
C780 C781 1.502 . S
C780 C782 1.561 1_455 S
C780 C783 1.526 1_455 S
C781 H765 0.959 . S
C781 H766 0.959 1_455 S
C781 H767 0.961 . S
C781 C780 1.502 . S
C782 H768 0.960 1_655 S
C782 H769 0.961 . S
C782 H770 0.959 . S
C782 C780 1.561 1_655 S
C783 C780 1.526 1_655 S
C783 C784 1.396 . S
C783 C788 1.390 . S
C784 C778 1.465 1_655 S
C784 C783 1.396 . S
C784 C785 1.399 . S
C785 H771 0.929 . S
C785 C784 1.399 . S
C785 C786 1.385 . S
C786 H772 0.931 . S
C786 C785 1.385 . S
C786 C787 1.389 . S
C787 C786 1.389 . S
C787 C788 1.387 . S
C788 H773 0.930 . S
C788 C783 1.390 . S
C788 C787 1.387 . S
H789 C801 0.930 . S
H790 C803 0.930 . S
H791 C804 0.930 . S
H792 C808 0.959 . S
H793 C808 0.959 . S
H794 C808 0.961 1_565 S
H795 C809 0.960 1_565 S
H796 C809 0.961 . S
H797 C809 0.959 . S
H798 C812 0.929 . S
H799 C813 0.931 . S
H800 C815 0.930 . S
C801 H789 0.930 . S
C801 C802 1.399 . S
C801 C806 1.399 . S
C802 C801 1.399 . S
C802 C803 1.376 . S
C803 H790 0.930 . S
C803 C802 1.376 . S
C803 C804 1.388 . S
C804 H791 0.930 . S
C804 C803 1.388 . S
C804 C805 1.390 . S
C805 C804 1.390 . S
C805 C806 1.394 . S
C805 C811 1.465 1_565 S
C806 C801 1.399 . S
C806 C805 1.394 . S
C806 C807 1.516 1_565 S
C807 C806 1.516 1_545 S
C807 C808 1.502 . S
C807 C809 1.561 . S
C807 C810 1.526 . S
C808 H792 0.959 . S
C808 H793 0.959 . S
C808 H794 0.961 1_545 S
C808 C807 1.502 . S
C809 H795 0.960 1_545 S
C809 H796 0.961 . S
C809 H797 0.959 . S
C809 C807 1.561 . S
C810 C807 1.526 . S
C810 C811 1.396 . S
C810 C815 1.390 . S
C811 C805 1.465 1_545 S
C811 C810 1.396 . S
C811 C812 1.399 . S
C812 H798 0.929 . S
C812 C811 1.399 . S
C812 C813 1.385 . S
C813 H799 0.931 . S
C813 C812 1.385 . S
C813 C814 1.389 . S
C814 C813 1.389 . S
C814 C815 1.387 . S
C815 H800 0.930 . S
C815 C810 1.390 . S
C815 C814 1.387 . S
C181 C149 1.253 . S
C193 C9 1.255 . S
C208 C23 1.176 . S
C220 C163 1.180 . S
C235 C37 1.223 . S
C247 C93 1.228 . S
C262 C51 1.186 . S
C274 C107 1.191 . S
C289 C121 1.224 . S
C301 C65 1.218 . S
C316 C79 1.224 . S
C328 C135 1.231 . S
C343 C112 1.311 . S
C355 C0 1.379 . S
C370 C14 1.331 . S
C382 C126 1.329 . S
C397 C28 1.308 . S
C409 C140 1.378 . S
C424 C42 1.377 . S
C436 C154 1.353 . S
C451 C84 1.356 . S
C463 C56 1.316 . S
C478 C98 1.330 . S
C490 C70 1.338 . S
C505 C47 1.532 . S
C517 C5 1.546 . S
C532 C19 1.534 . S
C544 C61 1.544 . S
C559 C75 1.532 . S
C571 C33 1.550 . S
C586 C131 1.544 . S
C598 C89 1.542 . S
C613 C145 1.545 . S
C625 C103 1.542 . S
C640 C117 1.549 . S
C652 C159 1.536 . S
C667 C53 1.365 . S
C679 C11 1.365 . S
C694 C25 1.365 . S
C706 C67 1.365 . S
C721 C81 1.364 . S
C733 C39 1.364 . S
C748 C95 1.364 . S
C760 C137 1.364 . S
C775 C151 1.352 . S
C787 C109 1.353 . S
C802 C123 1.362 . S
C814 C165 1.361 . S
