# Generated by pormake.
# Topology ukt, (4)-cn, num edge types: 1
# Building blocks:
#     Node 0, Type 0, BuildingBlock: CEKHIL_clean_sbu_0, # of connection points: 4
#     Node 1, Type 0, BuildingBlock: CEKHIL_clean_sbu_0, # of connection points: 4
#     Node 2, Type 0, BuildingBlock: CEKHIL_clean_sbu_0, # of connection points: 4
#     Node 3, Type 0, BuildingBlock: CEKHIL_clean_sbu_0, # of connection points: 4
#     Node 4, Type 0, BuildingBlock: CEKHIL_clean_sbu_0, # of connection points: 4
#     Node 5, Type 0, BuildingBlock: CEKHIL_clean_sbu_0, # of connection points: 4
#     Node 6, Type 0, BuildingBlock: CEKHIL_clean_sbu_0, # of connection points: 4
#     Node 7, Type 0, BuildingBlock: CEKHIL_clean_sbu_0, # of connection points: 4
#     Node 8, Type 0, BuildingBlock: CEKHIL_clean_sbu_0, # of connection points: 4
#     Node 9, Type 0, BuildingBlock: CEKHIL_clean_sbu_0, # of connection points: 4
#     Node 10, Type 0, BuildingBlock: CEKHIL_clean_sbu_0, # of connection points: 4
#     Node 11, Type 0, BuildingBlock: CEKHIL_clean_sbu_0, # of connection points: 4
#     Node 12, Type 0, BuildingBlock: CEKHIL_clean_sbu_0, # of connection points: 4
#     Node 13, Type 0, BuildingBlock: CEKHIL_clean_sbu_0, # of connection points: 4
#     Node 14, Type 0, BuildingBlock: CEKHIL_clean_sbu_0, # of connection points: 4
#     Node 15, Type 0, BuildingBlock: CEKHIL_clean_sbu_0, # of connection points: 4
#     Edge 16, Type (0, 0), BuildingBlock: MIFKUJ_clean_linker_0, # of connection points: 2
#     Edge 17, Type (0, 0), BuildingBlock: MIFKUJ_clean_linker_0, # of connection points: 2
#     Edge 18, Type (0, 0), BuildingBlock: MIFKUJ_clean_linker_0, # of connection points: 2
#     Edge 19, Type (0, 0), BuildingBlock: MIFKUJ_clean_linker_0, # of connection points: 2
#     Edge 20, Type (0, 0), BuildingBlock: MIFKUJ_clean_linker_0, # of connection points: 2
#     Edge 21, Type (0, 0), BuildingBlock: MIFKUJ_clean_linker_0, # of connection points: 2
#     Edge 22, Type (0, 0), BuildingBlock: MIFKUJ_clean_linker_0, # of connection points: 2
#     Edge 23, Type (0, 0), BuildingBlock: MIFKUJ_clean_linker_0, # of connection points: 2
#     Edge 24, Type (0, 0), BuildingBlock: MIFKUJ_clean_linker_0, # of connection points: 2
#     Edge 25, Type (0, 0), BuildingBlock: MIFKUJ_clean_linker_0, # of connection points: 2
#     Edge 26, Type (0, 0), BuildingBlock: MIFKUJ_clean_linker_0, # of connection points: 2
#     Edge 27, Type (0, 0), BuildingBlock: MIFKUJ_clean_linker_0, # of connection points: 2
#     Edge 28, Type (0, 0), BuildingBlock: MIFKUJ_clean_linker_0, # of connection points: 2
#     Edge 29, Type (0, 0), BuildingBlock: MIFKUJ_clean_linker_0, # of connection points: 2
#     Edge 30, Type (0, 0), BuildingBlock: MIFKUJ_clean_linker_0, # of connection points: 2
#     Edge 31, Type (0, 0), BuildingBlock: MIFKUJ_clean_linker_0, # of connection points: 2
#     Edge 32, Type (0, 0), BuildingBlock: MIFKUJ_clean_linker_0, # of connection points: 2
#     Edge 33, Type (0, 0), BuildingBlock: MIFKUJ_clean_linker_0, # of connection points: 2
#     Edge 34, Type (0, 0), BuildingBlock: MIFKUJ_clean_linker_0, # of connection points: 2
#     Edge 35, Type (0, 0), BuildingBlock: MIFKUJ_clean_linker_0, # of connection points: 2
#     Edge 36, Type (0, 0), BuildingBlock: MIFKUJ_clean_linker_0, # of connection points: 2
#     Edge 37, Type (0, 0), BuildingBlock: MIFKUJ_clean_linker_0, # of connection points: 2
#     Edge 38, Type (0, 0), BuildingBlock: MIFKUJ_clean_linker_0, # of connection points: 2
#     Edge 39, Type (0, 0), BuildingBlock: MIFKUJ_clean_linker_0, # of connection points: 2
#     Edge 40, Type (0, 0), BuildingBlock: MIFKUJ_clean_linker_0, # of connection points: 2
#     Edge 41, Type (0, 0), BuildingBlock: MIFKUJ_clean_linker_0, # of connection points: 2
#     Edge 42, Type (0, 0), BuildingBlock: MIFKUJ_clean_linker_0, # of connection points: 2
#     Edge 43, Type (0, 0), BuildingBlock: MIFKUJ_clean_linker_0, # of connection points: 2
#     Edge 44, Type (0, 0), BuildingBlock: MIFKUJ_clean_linker_0, # of connection points: 2
#     Edge 45, Type (0, 0), BuildingBlock: MIFKUJ_clean_linker_0, # of connection points: 2
#     Edge 46, Type (0, 0), BuildingBlock: MIFKUJ_clean_linker_0, # of connection points: 2
#     Edge 47, Type (0, 0), BuildingBlock: MIFKUJ_clean_linker_0, # of connection points: 2
# Relax obj value: 0.284
# Max RMSD: 0.165
# Mean RMSD: 0.165
data_MOF--net-ukt--node1-CEKHIL_clean_sbu_0--edge1-MIFKUJ_clean_linker_0
_symmetry_space_group_name_H-M    P1
_symmetry_Int_Tables_number       1
_symmetry_cell_setting            triclinic
loop_
_symmetry_equiv_pos_as_xyz
'x, y, z'
_cell_length_a     54.125716
_cell_length_b     54.079992
_cell_length_c     44.876053
_cell_angle_alpha  89.985249
_cell_angle_beta   90.01272
_cell_angle_gamma 90.016233
loop_
_atom_site_label
_atom_site_type_symbol
_atom_site_fract_x
_atom_site_fract_y
_atom_site_fract_z
_atom_type_partial_charge
Co0 Co 0.53981 0.14701 0.08572 0.0
O1 O 0.52617 0.11465 0.09072 0.0
O2 O 0.52607 0.13588 0.04836 0.0
C3 C 0.52404 0.16348 0.12728 0.0
O4 O 0.55122 0.18118 0.07285 0.0
Co5 Co 0.57809 0.16643 0.13149 0.0
O6 O 0.57479 0.19791 0.10894 0.0
C7 C 0.59336 0.12929 0.08776 0.0
C8 C 0.52059 0.11564 0.06263 0.0
C9 C 0.56355 0.19929 0.084 0.0
O10 O 0.5726 0.13221 0.07429 0.0
O11 O 0.5984 0.13945 0.11278 0.0
O12 O 0.51055 0.16208 0.10336 0.0
O13 O 0.54528 0.15266 0.12613 0.0
Co14 Co 0.34907 0.53569 0.08748 0.0
O15 O 0.38171 0.52302 0.09303 0.0
O16 O 0.36134 0.52327 0.05007 0.0
C17 C 0.33297 0.51806 0.12812 0.0
O18 O 0.31507 0.54648 0.07347 0.0
Co19 Co 0.32571 0.57133 0.13327 0.0
O20 O 0.29458 0.56447 0.11119 0.0
C21 C 0.3631 0.59021 0.09124 0.0
C22 C 0.38145 0.51813 0.06473 0.0
C23 C 0.2953 0.55563 0.08489 0.0
O24 O 0.36305 0.56917 0.07795 0.0
O25 O 0.35067 0.59444 0.11499 0.0
O26 O 0.33472 0.50544 0.10356 0.0
O27 O 0.3425 0.53995 0.12794 0.0
Co28 Co 0.96238 0.35252 0.0927 0.0
O29 O 0.97528 0.38514 0.09856 0.0
O30 O 0.976 0.3646 0.05576 0.0
C31 C 0.97834 0.33534 0.13379 0.0
O32 O 0.95159 0.31845 0.07867 0.0
Co33 Co 0.92428 0.33123 0.13724 0.0
O34 O 0.92943 0.3 0.11471 0.0
C35 C 0.90805 0.36817 0.09357 0.0
C36 C 0.98083 0.38481 0.07042 0.0
C37 C 0.94022 0.29956 0.08946 0.0
O38 O 0.92945 0.36685 0.08133 0.0
O39 O 0.90263 0.35686 0.11778 0.0
O40 O 0.99184 0.33774 0.11001 0.0
O41 O 0.95687 0.3458 0.13299 0.0
Co42 Co 0.15138 0.95914 0.08942 0.0
O43 O 0.11819 0.97027 0.09547 0.0
O44 O 0.13814 0.97111 0.05224 0.0
C45 C 0.16755 0.97742 0.1296 0.0
O46 O 0.18574 0.9499 0.07481 0.0
Co47 Co 0.17645 0.92419 0.1346 0.0
O48 O 0.20692 0.93154 0.11169 0.0
C49 C 0.13953 0.90401 0.0932 0.0
C50 C 0.1179 0.97508 0.06714 0.0
C51 C 0.20584 0.94093 0.08567 0.0
O52 O 0.13842 0.92515 0.08024 0.0
O53 O 0.15278 0.89985 0.1163 0.0
O54 O 0.16474 0.98994 0.10511 0.0
O55 O 0.15874 0.9552 0.12983 0.0
Co56 Co 0.53838 0.34801 0.41073 0.0
O57 O 0.52679 0.38103 0.40489 0.0
O58 O 0.52312 0.35964 0.4469 0.0
C59 C 0.5241 0.33251 0.36781 0.0
O60 O 0.5474 0.31336 0.42441 0.0
Co61 Co 0.5779 0.32634 0.36825 0.0
O62 O 0.56986 0.29474 0.38878 0.0
C63 C 0.59289 0.36233 0.41384 0.0
C64 C 0.51961 0.38023 0.43246 0.0
C65 C 0.55816 0.2942 0.41344 0.0
O66 O 0.57107 0.36111 0.42501 0.0
O67 O 0.59895 0.35145 0.38957 0.0
O68 O 0.50945 0.33457 0.39063 0.0
O69 O 0.54581 0.34213 0.37079 0.0
Co70 Co 0.1478 0.53329 0.40707 0.0
O71 O 0.1153 0.52169 0.39788 0.0
O72 O 0.13335 0.51894 0.44221 0.0
C73 C 0.16643 0.51788 0.36662 0.0
O74 O 0.18122 0.54247 0.42445 0.0
Co75 Co 0.17402 0.57116 0.36596 0.0
O76 O 0.20386 0.56044 0.38845 0.0
C77 C 0.13464 0.58815 0.40655 0.0
C78 C 0.11399 0.51508 0.42564 0.0
C79 C 0.20184 0.55057 0.41413 0.0
O80 O 0.13393 0.56651 0.41838 0.0
O81 O 0.14816 0.59338 0.38397 0.0
O82 O 0.16247 0.50374 0.38957 0.0
O83 O 0.15693 0.53975 0.36787 0.0
Co84 Co 0.95812 0.15226 0.41423 0.0
O85 O 0.97146 0.11989 0.40794 0.0
O86 O 0.96957 0.1389 0.45168 0.0
C87 C 0.97649 0.17039 0.37535 0.0
O88 O 0.9465 0.18597 0.42887 0.0
Co89 Co 0.92285 0.1751 0.36746 0.0
O90 O 0.92634 0.20551 0.39193 0.0
C91 C 0.90414 0.13643 0.40742 0.0
C92 C 0.97539 0.11925 0.43646 0.0
C93 C 0.93572 0.20519 0.418 0.0
O94 O 0.92462 0.13743 0.42184 0.0
O95 O 0.90026 0.14872 0.38348 0.0
O96 O 0.98853 0.16765 0.40019 0.0
O97 O 0.955 0.1601 0.37388 0.0
Co98 Co 0.34848 0.96031 0.41193 0.0
O99 O 0.3802 0.97502 0.40495 0.0
O100 O 0.36118 0.9734 0.44873 0.0
C101 C 0.32918 0.97656 0.37222 0.0
O102 O 0.31565 0.94747 0.42762 0.0
Co103 Co 0.32637 0.92271 0.36716 0.0
O104 O 0.29594 0.92657 0.39145 0.0
C105 C 0.36616 0.90679 0.40749 0.0
C106 C 0.38057 0.97965 0.43335 0.0
C107 C 0.29655 0.93611 0.41742 0.0
O108 O 0.36489 0.92778 0.42081 0.0
O109 O 0.35346 0.90156 0.38425 0.0
O110 O 0.33173 0.98957 0.39641 0.0
O111 O 0.3404 0.95548 0.37197 0.0
Co112 Co 0.46128 0.84789 0.91087 0.0
O113 O 0.47615 0.87968 0.90591 0.0
O114 O 0.47336 0.85944 0.94884 0.0
C115 C 0.47867 0.83016 0.87117 0.0
O116 O 0.44806 0.81451 0.92409 0.0
Co117 Co 0.42478 0.82833 0.86351 0.0
O118 O 0.42667 0.79705 0.88668 0.0
C119 C 0.40802 0.86636 0.90542 0.0
C120 C 0.48006 0.87925 0.93443 0.0
C121 C 0.43621 0.79621 0.91265 0.0
O122 O 0.42859 0.86401 0.9194 0.0
O123 O 0.40338 0.85511 0.88095 0.0
O124 O 0.49084 0.83148 0.89608 0.0
O125 O 0.45771 0.84155 0.87021 0.0
Co126 Co 0.64933 0.46097 0.91045 0.0
O127 O 0.61659 0.47282 0.90333 0.0
O128 O 0.63637 0.47518 0.94659 0.0
C129 C 0.66584 0.47664 0.86881 0.0
O130 O 0.68343 0.45152 0.92575 0.0
Co131 Co 0.67347 0.4232 0.86769 0.0
O132 O 0.7042 0.43183 0.88951 0.0
C133 C 0.63604 0.40612 0.91072 0.0
C134 C 0.6164 0.47925 0.93118 0.0
C135 C 0.70338 0.44211 0.91504 0.0
O136 O 0.63561 0.42784 0.92231 0.0
O137 O 0.64887 0.40073 0.88763 0.0
O138 O 0.66339 0.49053 0.89227 0.0
O139 O 0.65654 0.4547 0.87056 0.0
Co140 Co 0.03752 0.65136 0.90917 0.0
O141 O 0.02536 0.61847 0.90318 0.0
O142 O 0.02416 0.63886 0.94605 0.0
C143 C 0.02112 0.66798 0.86798 0.0
O144 O 0.0475 0.68567 0.92339 0.0
Co145 Co 0.07504 0.67388 0.86489 0.0
O146 O 0.06952 0.70483 0.88776 0.0
C147 C 0.0921 0.63678 0.90799 0.0
C148 C 0.01979 0.6186 0.93131 0.0
C149 C 0.0586 0.70486 0.91293 0.0
O150 O 0.07073 0.63762 0.92037 0.0
O151 O 0.09725 0.64858 0.88403 0.0
O152 O 0.00773 0.66546 0.89184 0.0
O153 O 0.0429 0.6582 0.86888 0.0
Co154 Co 0.85202 0.0421 0.90683 0.0
O155 O 0.88595 0.03416 0.89953 0.0
O156 O 0.86628 0.02798 0.94232 0.0
C157 C 0.83716 0.02621 0.86443 0.0
O158 O 0.81706 0.04735 0.92234 0.0
Co159 Co 0.82402 0.07858 0.86595 0.0
O160 O 0.79436 0.06646 0.88737 0.0
C161 C 0.85902 0.09802 0.91035 0.0
C162 C 0.8867 0.02685 0.92706 0.0
C163 C 0.79625 0.0553 0.91228 0.0
O164 O 0.86229 0.07602 0.92037 0.0
O165 O 0.84528 0.10303 0.88793 0.0
O166 O 0.84107 0.0119 0.88721 0.0
O167 O 0.84421 0.04893 0.86712 0.0
Co168 Co 0.46041 0.6485 0.58693 0.0
O169 O 0.47132 0.61563 0.59614 0.0
O170 O 0.47535 0.63404 0.55219 0.0
C171 C 0.47499 0.66697 0.6281 0.0
O172 O 0.45216 0.68209 0.56933 0.0
Co173 Co 0.42173 0.67514 0.62653 0.0
O174 O 0.43291 0.7049 0.6042 0.0
C175 C 0.40534 0.63636 0.58484 0.0
C176 C 0.47848 0.61443 0.56855 0.0
C177 C 0.44358 0.70272 0.57903 0.0
O178 O 0.42736 0.63523 0.57423 0.0
O179 O 0.39955 0.64989 0.60721 0.0
O180 O 0.48969 0.66267 0.60577 0.0
O181 O 0.45304 0.65776 0.62592 0.0
Co182 Co 0.85018 0.46744 0.58925 0.0
O183 O 0.88252 0.48107 0.59388 0.0
O184 O 0.86153 0.47984 0.55139 0.0
C185 C 0.83367 0.48495 0.6298 0.0
O186 O 0.81617 0.4556 0.57639 0.0
Co187 Co 0.82921 0.43151 0.63671 0.0
O188 O 0.79765 0.43668 0.61495 0.0
C189 C 0.86611 0.41336 0.59371 0.0
C190 C 0.88171 0.4857 0.56552 0.0
C191 C 0.79715 0.44559 0.58866 0.0
O192 O 0.86495 0.43415 0.57987 0.0
O193 O 0.8546 0.40918 0.61814 0.0
O194 O 0.83517 0.49746 0.60512 0.0
O195 O 0.84419 0.46353 0.62985 0.0
Co196 Co 0.03529 0.84742 0.58516 0.0
O197 O 0.02185 0.87964 0.59237 0.0
O198 O 0.02368 0.86142 0.54814 0.0
C199 C 0.01707 0.82866 0.6237 0.0
O200 O 0.04708 0.81414 0.56944 0.0
Co201 Co 0.07058 0.82327 0.63083 0.0
O202 O 0.06467 0.79287 0.60689 0.0
C203 C 0.08934 0.86274 0.59184 0.0
C204 C 0.01785 0.88078 0.56389 0.0
C205 C 0.0563 0.79416 0.58038 0.0
O206 O 0.06866 0.86242 0.57782 0.0
O207 O 0.09342 0.84968 0.61515 0.0
O208 O 0.00498 0.83169 0.59895 0.0
O209 O 0.0386 0.83886 0.62527 0.0
Co210 Co 0.64737 0.03819 0.59003 0.0
O211 O 0.61541 0.02375 0.59593 0.0
O212 O 0.63514 0.02579 0.55263 0.0
C213 C 0.66594 0.02118 0.62967 0.0
O214 O 0.68065 0.05085 0.57554 0.0
Co215 Co 0.66878 0.07497 0.63628 0.0
O216 O 0.69916 0.07294 0.61163 0.0
C217 C 0.63044 0.09202 0.59474 0.0
C218 C 0.61544 0.01953 0.56744 0.0
C219 C 0.69922 0.06298 0.58589 0.0
O220 O 0.6315 0.07104 0.58137 0.0
O221 O 0.64272 0.09689 0.61841 0.0
O222 O 0.66362 0.00856 0.60516 0.0
O223 O 0.65478 0.04229 0.63031 0.0
H224 H 0.60045 0.23343 0.08651 0.0
H225 H 0.6051 0.27061 0.05643 0.0
H226 H 0.53556 0.25536 0.01297 0.0
H227 H 0.53149 0.21726 0.0421 0.0
H228 H 0.56525 0.26932 0.97345 0.0
H229 H 0.54312 0.30369 0.06607 0.0
H230 H 0.54367 0.31033 0.12042 0.0
H231 H 0.61849 0.33639 0.11524 0.0
H232 H 0.61853 0.32956 0.06091 0.0
H233 H 0.59871 0.41108 0.9514 0.0
H234 H 0.57776 0.37826 0.97901 0.0
H235 H 0.62146 0.3236 0.93286 0.0
H236 H 0.64181 0.35617 0.9045 0.0
H237 H 0.59423 0.34833 0.01737 0.0
H238 H 0.59364 0.26931 0.9278 0.0
H239 H 0.58669 0.26506 0.87373 0.0
H240 H 0.54531 0.33278 0.87316 0.0
H241 H 0.55168 0.33728 0.92727 0.0
C242 C 0.58605 0.23808 0.07072 0.0
C243 C 0.56557 0.22247 0.06672 0.0
C244 C 0.58863 0.25947 0.05363 0.0
C245 C 0.57044 0.26617 0.03279 0.0
C246 C 0.54984 0.25066 0.02892 0.0
C247 C 0.5475 0.22893 0.0456 0.0
C248 C 0.57369 0.2887 0.01417 0.0
C249 C 0.57139 0.28665 0.98309 0.0
C250 C 0.58077 0.31169 0.02669 0.0
C251 C 0.58086 0.31598 0.05939 0.0
C252 C 0.55974 0.3107 0.07654 0.0
C253 C 0.55995 0.31451 0.10735 0.0
C254 C 0.58111 0.32375 0.12128 0.0
C255 C 0.6021 0.32924 0.10441 0.0
C256 C 0.60201 0.32544 0.07359 0.0
C257 C 0.60362 0.39203 0.94685 0.0
C258 C 0.62196 0.38624 0.92575 0.0
C259 C 0.59164 0.37329 0.96269 0.0
C260 C 0.59782 0.34839 0.95789 0.0
C261 C 0.61588 0.34259 0.93651 0.0
C262 C 0.62763 0.36128 0.92039 0.0
C263 C 0.58685 0.32856 0.97663 0.0
C264 C 0.58769 0.33114 0.00774 0.0
C265 C 0.57741 0.30644 0.96417 0.0
C266 C 0.57331 0.3037 0.93161 0.0
C267 C 0.58294 0.28323 0.91619 0.0
C268 C 0.57912 0.28079 0.88551 0.0
C269 C 0.56561 0.29867 0.87001 0.0
C270 C 0.55584 0.31899 0.88517 0.0
C271 C 0.55958 0.32151 0.91584 0.0
H272 H 0.56269 0.29675 0.84626 0.0
H273 H 0.58123 0.32668 0.14513 0.0
H274 H 0.08808 0.60938 0.95899 0.0
H275 H 0.12123 0.58998 0.98733 0.0
H276 H 0.17401 0.61255 0.92074 0.0
H277 H 0.14092 0.63214 0.89199 0.0
H278 H 0.18185 0.56371 0.94374 0.0
H279 H 0.16794 0.64736 0.97944 0.0
H280 H 0.14188 0.68114 0.9988 0.0
H281 H 0.12201 0.63652 0.07425 0.0
H282 H 0.1477 0.60234 0.05509 0.0
H283 H 0.29383 0.56101 0.02466 0.0
H284 H 0.25781 0.56943 0.9937 0.0
H285 H 0.21062 0.56316 0.07092 0.0
H286 H 0.24694 0.55615 0.1023 0.0
H287 H 0.19781 0.60115 0.04283 0.0
H288 H 0.21296 0.51844 0.011 0.0
H289 H 0.23726 0.48312 0.99233 0.0
H290 H 0.25261 0.52262 0.91141 0.0
H291 H 0.22868 0.55831 0.92974 0.0
C292 C 0.10667 0.61007 0.95009 0.0
C293 C 0.11185 0.62267 0.92334 0.0
C294 C 0.12558 0.59891 0.96637 0.0
C295 C 0.15006 0.60012 0.95629 0.0
C296 C 0.1552 0.61148 0.92887 0.0
C297 C 0.13627 0.62274 0.91255 0.0
C298 C 0.17045 0.59123 0.97547 0.0
C299 C 0.18556 0.57195 0.96532 0.0
C300 C 0.17469 0.60154 0.00397 0.0
C301 C 0.15955 0.62223 0.0157 0.0
C302 C 0.15788 0.6447 5e-05 0.0
C303 C 0.1432 0.66393 0.011 0.0
C304 C 0.13025 0.66096 0.0377 0.0
C305 C 0.13202 0.63878 0.05355 0.0
C306 C 0.14666 0.61949 0.04268 0.0
C307 C 0.27573 0.56107 0.03496 0.0
C308 C 0.27316 0.55793 0.06589 0.0
C309 C 0.25508 0.56574 0.01718 0.0
C310 C 0.23133 0.56657 0.02979 0.0
C311 C 0.2287 0.56265 0.06061 0.0
C312 C 0.24944 0.55859 0.07853 0.0
C313 C 0.20955 0.57342 0.01128 0.0
C314 C 0.19412 0.59252 0.02147 0.0
C315 C 0.20485 0.56262 0.98304 0.0
C316 C 0.21917 0.54113 0.97186 0.0
C317 C 0.22165 0.51966 0.9893 0.0
C318 C 0.23534 0.49956 0.97877 0.0
C319 C 0.24651 0.50065 0.95073 0.0
C320 C 0.24396 0.52181 0.93313 0.0
C321 C 0.23031 0.54197 0.94357 0.0
H322 H 0.25711 0.48507 0.94262 0.0
H323 H 0.11888 0.67585 0.04613 0.0
H324 H 0.84071 0.14388 0.92165 0.0
H325 H 0.8602 0.17688 0.95043 0.0
H326 H 0.92523 0.1316 0.9619 0.0
H327 H 0.90494 0.09789 0.93503 0.0
H328 H 0.91759 0.15214 0.01043 0.0
H329 H 0.92162 0.18423 0.91187 0.0
H330 H 0.90618 0.19605 0.86215 0.0
H331 H 0.85641 0.24823 0.90206 0.0
H332 H 0.87132 0.23651 0.95204 0.0
H333 H 0.96123 0.29041 0.03492 0.0
H334 H 0.95469 0.2545 0.00284 0.0
H335 H 0.90739 0.22195 0.06955 0.0
H336 H 0.91424 0.25737 0.10198 0.0
H337 H 0.91423 0.23975 0.97796 0.0
H338 H 0.90774 0.15999 0.06574 0.0
H339 H 0.92796 0.14777 0.11275 0.0
H340 H 0.9921 0.19024 0.08925 0.0
H341 H 0.97245 0.20241 0.04192 0.0
C342 C 0.85923 0.1411 0.93018 0.0
C343 C 0.87141 0.11848 0.92603 0.0
C344 C 0.87046 0.16002 0.94646 0.0
C345 C 0.89449 0.15704 0.95788 0.0
C346 C 0.90673 0.13443 0.95341 0.0
C347 C 0.89518 0.11522 0.93794 0.0
C348 C 0.90639 0.17713 0.97546 0.0
C349 C 0.91697 0.17127 0.00319 0.0
C350 C 0.90635 0.20208 0.96578 0.0
C351 C 0.89751 0.20938 0.93572 0.0
C352 C 0.9073 0.19815 0.91005 0.0
C353 C 0.89865 0.20484 0.88182 0.0
C354 C 0.88031 0.22286 0.87895 0.0
C355 C 0.87063 0.23428 0.90431 0.0
C356 C 0.8792 0.22765 0.93259 0.0
C357 C 0.94971 0.27546 0.04297 0.0
C358 C 0.93818 0.27688 0.07103 0.0
C359 C 0.94595 0.25495 0.02455 0.0
C360 C 0.93066 0.23544 0.03381 0.0
C361 C 0.91963 0.23654 0.06209 0.0
C362 C 0.92346 0.25694 0.08057 0.0
C363 C 0.92467 0.2148 0.01321 0.0
C364 C 0.91516 0.22057 0.98496 0.0
C365 C 0.92645 0.18973 0.02199 0.0
C366 C 0.93849 0.1823 0.05037 0.0
C367 C 0.9262 0.16664 0.07053 0.0
C368 C 0.93756 0.15973 0.09725 0.0
C369 C 0.96127 0.16829 0.10403 0.0
C370 C 0.9737 0.1837 0.08404 0.0
C371 C 0.96244 0.19064 0.05728 0.0
H372 H 0.97002 0.16294 0.12474 0.0
H373 H 0.87362 0.22799 0.85708 0.0
H374 H 0.40853 0.88666 0.96112 0.0
H375 H 0.37409 0.90541 0.98775 0.0
H376 H 0.32826 0.89863 0.90968 0.0
H377 H 0.36256 0.87924 0.88267 0.0
H378 H 0.32926 0.94875 0.95579 0.0
H379 H 0.31107 0.85981 0.94197 0.0
H380 H 0.32454 0.81622 0.94175 0.0
H381 H 0.34939 0.82321 0.03225 0.0
H382 H 0.33636 0.86698 0.03279 0.0
H383 H 0.21042 0.95499 0.02714 0.0
H384 H 0.24575 0.94819 0.99424 0.0
H385 H 0.2869 0.91713 0.06756 0.0
H386 H 0.25171 0.92358 0.10053 0.0
H387 H 0.28786 0.88713 0.02086 0.0
H388 H 0.30222 0.97296 0.03847 0.0
H389 H 0.29227 0.01739 0.04094 0.0
H390 H 0.27781 0.0182 0.94686 0.0
H391 H 0.28736 0.97365 0.94389 0.0
C392 C 0.39131 0.88948 0.94928 0.0
C393 C 0.38824 0.8811 0.9198 0.0
C394 C 0.37169 0.90032 0.96458 0.0
C395 C 0.34877 0.90332 0.95062 0.0
C396 C 0.34595 0.89651 0.92068 0.0
C397 C 0.36552 0.88532 0.90538 0.0
C398 C 0.32719 0.9105 0.96872 0.0
C399 C 0.31977 0.93531 0.96963 0.0
C400 C 0.31559 0.89302 0.98739 0.0
C401 C 0.32299 0.86666 0.98731 0.0
C402 C 0.31959 0.85208 0.96172 0.0
C403 C 0.3271 0.82735 0.96156 0.0
C404 C 0.33788 0.81697 0.98695 0.0
C405 C 0.34107 0.83128 0.01259 0.0
C406 C 0.33361 0.85604 0.01285 0.0
C407 C 0.22709 0.94701 0.0364 0.0
C408 C 0.2281 0.93962 0.06646 0.0
C409 C 0.24731 0.94323 0.01755 0.0
C410 C 0.26895 0.93213 0.02844 0.0
C411 C 0.27033 0.92561 0.05866 0.0
C412 C 0.25017 0.92937 0.07749 0.0
C413 C 0.28945 0.92555 0.00801 0.0
C414 C 0.2969 0.90071 0.0068 0.0
C415 C 0.30112 0.94315 0.98931 0.0
C416 C 0.29521 0.96989 0.99102 0.0
C417 C 0.29667 0.98255 0.01835 0.0
C418 C 0.29116 0.00777 0.01984 0.0
C419 C 0.28433 0.02059 0.99409 0.0
C420 C 0.28306 0.00823 0.9668 0.0
C421 C 0.28853 0.983 0.9652 0.0
H422 H 0.28009 0.04013 0.99528 0.0
H423 H 0.3437 0.79782 0.98678 0.0
H424 H 0.57521 0.24875 0.39629 0.0
H425 H 0.58069 0.21216 0.42729 0.0
H426 H 0.54847 0.25059 0.50199 0.0
H427 H 0.54255 0.28726 0.471 0.0
H428 H 0.60994 0.20971 0.47426 0.0
H429 H 0.52339 0.20783 0.55031 0.0
H430 H 0.47899 0.21791 0.54771 0.0
H431 H 0.47969 0.20616 0.45309 0.0
H432 H 0.52399 0.1957 0.45517 0.0
H433 H 0.63481 0.14183 0.60362 0.0
H434 H 0.61602 0.17476 0.57399 0.0
H435 H 0.57491 0.12064 0.52382 0.0
H436 H 0.59379 0.08746 0.55311 0.0
H437 H 0.5482 0.16678 0.53762 0.0
H438 H 0.62366 0.13604 0.49396 0.0
H439 H 0.6676 0.12403 0.49487 0.0
H440 H 0.68786 0.19803 0.5195 0.0
H441 H 0.64395 0.21036 0.51925 0.0
C442 C 0.56894 0.24938 0.41917 0.0
C443 C 0.55867 0.27108 0.43119 0.0
C444 C 0.5721 0.22841 0.43688 0.0
C445 C 0.56502 0.22864 0.46695 0.0
C446 C 0.55381 0.24989 0.47874 0.0
C447 C 0.55054 0.27089 0.46099 0.0
C448 C 0.57147 0.2075 0.4865 0.0
C449 C 0.59636 0.20033 0.48799 0.0
C450 C 0.55378 0.19515 0.50439 0.0
C451 C 0.52708 0.20122 0.50288 0.0
C452 C 0.51405 0.20732 0.52896 0.0
C453 C 0.4889 0.21311 0.52758 0.0
C454 C 0.47655 0.21275 0.50024 0.0
C455 C 0.4893 0.20653 0.47423 0.0
C456 C 0.51445 0.20072 0.4755 0.0
C457 C 0.62136 0.13692 0.58676 0.0
C458 C 0.61602 0.11201 0.58048 0.0
C459 C 0.61066 0.15576 0.56986 0.0
C460 C 0.59426 0.15004 0.54666 0.0
C461 C 0.58751 0.12536 0.5417 0.0
C462 C 0.59845 0.10646 0.55833 0.0
C463 C 0.58656 0.16945 0.52545 0.0
C464 C 0.56161 0.17627 0.52376 0.0
C465 C 0.60408 0.18134 0.50701 0.0
C466 C 0.63051 0.17405 0.50691 0.0
C467 C 0.63746 0.14969 0.49984 0.0
C468 C 0.66236 0.14283 0.50019 0.0
C469 C 0.68051 0.16024 0.50732 0.0
C470 C 0.67378 0.18456 0.51403 0.0
C471 C 0.64889 0.19149 0.51378 0.0
H472 H 0.69978 0.1549 0.50757 0.0
H473 H 0.45708 0.21725 0.49921 0.0
H474 H 0.35685 0.63067 0.60157 0.0
H475 H 0.32399 0.60976 0.57395 0.0
H476 H 0.37605 0.58963 0.50549 0.0
H477 H 0.40906 0.61027 0.53281 0.0
H478 H 0.33574 0.60926 0.48186 0.0
H479 H 0.35349 0.54625 0.55314 0.0
H480 H 0.3602 0.52868 0.60319 0.0
H481 H 0.28592 0.54755 0.62787 0.0
H482 H 0.27886 0.56556 0.57808 0.0
H483 H 0.24957 0.54069 0.39946 0.0
H484 H 0.28625 0.54805 0.43027 0.0
H485 H 0.23942 0.56933 0.50378 0.0
H486 H 0.20282 0.56128 0.47324 0.0
H487 H 0.2793 0.54592 0.52396 0.0
H488 H 0.26346 0.6124 0.45374 0.0
H489 H 0.25677 0.6291 0.4032 0.0
H490 H 0.32835 0.60312 0.37643 0.0
H491 H 0.33532 0.58594 0.4267 0.0
C492 C 0.36141 0.62156 0.5808 0.0
C493 C 0.38563 0.62223 0.56943 0.0
C494 C 0.34261 0.60951 0.5651 0.0
C495 C 0.34767 0.59791 0.53779 0.0
C496 C 0.37183 0.59831 0.5266 0.0
C497 C 0.39067 0.61015 0.54232 0.0
C498 C 0.32756 0.58652 0.52004 0.0
C499 C 0.32367 0.59511 0.49091 0.0
C500 C 0.31157 0.56834 0.53201 0.0
C501 C 0.31571 0.55745 0.56195 0.0
C502 C 0.33864 0.54683 0.56931 0.0
C503 C 0.3425 0.53676 0.59762 0.0
C504 C 0.32352 0.53705 0.61872 0.0
C505 C 0.30062 0.54736 0.61151 0.0
C506 C 0.29666 0.55748 0.58324 0.0
C507 C 0.24723 0.54674 0.42228 0.0
C508 C 0.22355 0.55101 0.43385 0.0
C509 C 0.26811 0.55086 0.43988 0.0
C510 C 0.26558 0.55991 0.46907 0.0
C511 C 0.24183 0.56249 0.48128 0.0
C512 C 0.22095 0.55793 0.46383 0.0
C513 C 0.2874 0.56885 0.48593 0.0
C514 C 0.29156 0.55989 0.51487 0.0
C515 C 0.3037 0.58672 0.47382 0.0
C516 C 0.29982 0.59771 0.44388 0.0
C517 C 0.27773 0.61019 0.43704 0.0
C518 C 0.27388 0.61972 0.40844 0.0
C519 C 0.2921 0.61713 0.38661 0.0
C520 C 0.31425 0.60508 0.39336 0.0
C521 C 0.31816 0.59546 0.4219 0.0
H522 H 0.28909 0.6245 0.36448 0.0
H523 H 0.32655 0.52924 0.64063 0.0
H524 H 0.87098 0.36575 0.61379 0.0
H525 H 0.88909 0.33074 0.58743 0.0
H526 H 0.91007 0.37879 0.51501 0.0
H527 H 0.89227 0.41406 0.54132 0.0
H528 H 0.87229 0.31413 0.53517 0.0
H529 H 0.96014 0.35283 0.47858 0.0
H530 H 0.99257 0.38387 0.48844 0.0
H531 H 0.98195 0.37495 0.58263 0.0
H532 H 0.94972 0.34365 0.57337 0.0
H533 H 0.90581 0.24511 0.4083 0.0
H534 H 0.89921 0.28061 0.4409 0.0
H535 H 0.95275 0.25181 0.50296 0.0
H536 H 0.95941 0.21591 0.47056 0.0
H537 H 0.95606 0.30504 0.49162 0.0
H538 H 0.89683 0.2422 0.52017 0.0
H539 H 0.86319 0.21204 0.51274 0.0
H540 H 0.81667 0.26934 0.47754 0.0
H541 H 0.85013 0.29979 0.48447 0.0
C542 C 0.8798 0.36903 0.5925 0.0
C543 C 0.8799 0.39274 0.57958 0.0
C544 C 0.89014 0.34895 0.57744 0.0
C545 C 0.90093 0.35214 0.54927 0.0
C546 C 0.90209 0.37593 0.53688 0.0
C547 C 0.89174 0.39607 0.55192 0.0
C548 C 0.90858 0.33024 0.53166 0.0
C549 C 0.89067 0.31213 0.52581 0.0
C550 C 0.93254 0.32765 0.51939 0.0
C551 C 0.95234 0.34603 0.52524 0.0
C552 C 0.96482 0.35739 0.50139 0.0
C553 C 0.98315 0.37505 0.50688 0.0
C554 C 0.98924 0.38143 0.53613 0.0
C555 C 0.97713 0.37007 0.55998 0.0
C556 C 0.9588 0.35239 0.55462 0.0
C557 C 0.91639 0.24634 0.42873 0.0
C558 C 0.93303 0.22753 0.4369 0.0
C559 C 0.91256 0.26667 0.44734 0.0
C560 C 0.9254 0.26872 0.47435 0.0
C561 C 0.94269 0.25052 0.48215 0.0
C562 C 0.94636 0.22998 0.46369 0.0
C563 C 0.91965 0.28922 0.49509 0.0
C564 C 0.93779 0.30707 0.50126 0.0
C565 C 0.89587 0.29169 0.50774 0.0
C566 C 0.87605 0.27322 0.50263 0.0
C567 C 0.87953 0.24831 0.51052 0.0
C568 C 0.86047 0.23118 0.50649 0.0
C569 C 0.83781 0.23879 0.4947 0.0
C570 C 0.83422 0.26349 0.4867 0.0
C571 C 0.85322 0.28069 0.4907 0.0
H572 H 0.82297 0.2256 0.4919 0.0
H573 H 0.00336 0.39515 0.54034 0.0
H574 H 0.08921 0.88814 0.53922 0.0
H575 H 0.12449 0.90635 0.51369 0.0
H576 H 0.1712 0.88919 0.58865 0.0
H577 H 0.13598 0.87044 0.61452 0.0
H578 H 0.17837 0.93968 0.55348 0.0
H579 H 0.17281 0.84937 0.54409 0.0
H580 H 0.14714 0.81267 0.53401 0.0
H581 H 0.13179 0.8396 0.4459 0.0
H582 H 0.15659 0.87699 0.45593 0.0
H583 H 0.29386 0.94273 0.47792 0.0
H584 H 0.25863 0.93454 0.51039 0.0
H585 H 0.21453 0.9151 0.43366 0.0
H586 H 0.25026 0.92131 0.4016 0.0
H587 H 0.20569 0.88381 0.47217 0.0
H588 H 0.20815 0.97182 0.47623 0.0
H589 H 0.22613 0.01327 0.48355 0.0
H590 H 0.2416 0.99587 0.57503 0.0
H591 H 0.224 0.95416 0.56815 0.0
C592 C 0.10682 0.88859 0.55068 0.0
C593 C 0.10983 0.87738 0.57878 0.0
C594 C 0.12693 0.89917 0.53604 0.0
C595 C 0.15036 0.89896 0.54928 0.0
C596 C 0.15316 0.88956 0.57821 0.0
C597 C 0.13305 0.87869 0.59282 0.0
C598 C 0.17225 0.90509 0.53111 0.0
C599 C 0.18472 0.92742 0.53595 0.0
C600 C 0.17972 0.88939 0.50762 0.0
C601 C 0.16634 0.86609 0.50089 0.0
C602 C 0.16385 0.84753 0.52263 0.0
C603 C 0.14941 0.82663 0.51694 0.0
C604 C 0.1378 0.82382 0.48934 0.0
C605 C 0.14076 0.84183 0.4673 0.0
C606 C 0.15495 0.86291 0.473 0.0
C607 C 0.2766 0.93688 0.46796 0.0
C608 C 0.27477 0.93295 0.43705 0.0
C609 C 0.25636 0.93237 0.48656 0.0
C610 C 0.23366 0.92457 0.47455 0.0
C611 C 0.23176 0.92108 0.44361 0.0
C612 C 0.25216 0.9249 0.42517 0.0
C613 C 0.21224 0.91874 0.49418 0.0
C614 C 0.19972 0.89627 0.48968 0.0
C615 C 0.20431 0.93475 0.51736 0.0
C616 C 0.215 0.95977 0.52158 0.0
C617 C 0.21558 0.97675 0.49784 0.0
C618 C 0.22566 0.00031 0.50193 0.0
C619 C 0.23507 0.00717 0.52972 0.0
C620 C 0.23435 0.99051 0.5535 0.0
C621 C 0.2243 0.96691 0.54953 0.0
H622 H 0.24286 0.02542 0.53284 0.0
H623 H 0.1265 0.8077 0.48503 0.0
H624 H 0.45888 0.78385 0.96521 0.0
H625 H 0.45049 0.74794 0.9968 0.0
H626 H 0.39645 0.72202 0.93346 0.0
H627 H 0.40468 0.75774 0.90171 0.0
H628 H 0.37872 0.72267 0.99063 0.0
H629 H 0.44972 0.69333 0.93782 0.0
H630 H 0.49252 0.69475 0.91911 0.0
H631 H 0.51991 0.69578 0.00891 0.0
H632 H 0.47722 0.69476 0.02817 0.0
H633 H 0.39215 0.58851 0.04134 0.0
H634 H 0.40902 0.62338 0.01359 0.0
H635 H 0.38235 0.67356 0.081 0.0
H636 H 0.36489 0.63882 0.10872 0.0
H637 H 0.44121 0.66071 0.02188 0.0
H638 H 0.35779 0.7237 0.0463 0.0
H639 H 0.31406 0.72016 0.06128 0.0
H640 H 0.30997 0.64822 0.0211 0.0
H641 H 0.35355 0.65149 0.00553 0.0
C642 C 0.44532 0.77043 0.95788 0.0
C643 C 0.4324 0.77373 0.93094 0.0
C644 C 0.44063 0.74989 0.97592 0.0
C645 C 0.42287 0.73236 0.96742 0.0
C646 C 0.41019 0.7354 0.94041 0.0
C647 C 0.41501 0.75579 0.92224 0.0
C648 C 0.41674 0.71131 0.98718 0.0
C649 C 0.39241 0.70918 0.99756 0.0
C650 C 0.43457 0.69362 0.99593 0.0
C651 C 0.46026 0.69426 0.98443 0.0
C652 C 0.46486 0.69411 0.95358 0.0
C653 C 0.4891 0.69479 0.94288 0.0
C654 C 0.50892 0.69543 0.96281 0.0
C655 C 0.50454 0.69533 0.9935 0.0
C656 C 0.48032 0.69469 0.00432 0.0
C657 C 0.39006 0.60691 0.05052 0.0
C658 C 0.37667 0.61089 0.07699 0.0
C659 C 0.39989 0.62683 0.03467 0.0
C660 C 0.39651 0.65108 0.04493 0.0
C661 C 0.38476 0.65499 0.07242 0.0
C662 C 0.37483 0.63509 0.08827 0.0
C663 C 0.40323 0.67223 0.02555 0.0
C664 C 0.42762 0.67438 0.01522 0.0
C665 C 0.38535 0.68974 0.01633 0.0
C666 C 0.35899 0.68775 0.02506 0.0
C667 C 0.34751 0.70718 0.04057 0.0
C668 C 0.32276 0.70521 0.04917 0.0
C669 C 0.30927 0.68394 0.04224 0.0
C670 C 0.32046 0.66464 0.02655 0.0
C671 C 0.34519 0.66654 0.01785 0.0
H672 H 0.29013 0.68244 0.04897 0.0
H673 H 0.52768 0.69594 0.95448 0.0
H674 H 0.75097 0.43381 0.89747 0.0
H675 H 0.78693 0.42709 0.92925 0.0
H676 H 0.7424 0.4407 0.00726 0.0
H677 H 0.70642 0.44818 0.97553 0.0
H678 H 0.78789 0.4589 0.01515 0.0
H679 H 0.75323 0.38186 0.98347 0.0
H680 H 0.73765 0.35112 0.94749 0.0
H681 H 0.80893 0.34806 0.90567 0.0
H682 H 0.82485 0.37907 0.94115 0.0
H683 H 0.86215 0.38196 0.11402 0.0
H684 H 0.8286 0.40073 0.08503 0.0
H685 H 0.87575 0.40335 0.0077 0.0
H686 H 0.9094 0.38513 0.03634 0.0
H687 H 0.82886 0.37767 0.00089 0.0
H688 H 0.86329 0.45458 0.03542 0.0
H689 H 0.87781 0.48414 0.07338 0.0
H690 H 0.80554 0.48548 0.11278 0.0
H691 H 0.79066 0.4556 0.07528 0.0
C692 C 0.74887 0.43569 0.92137 0.0
C693 C 0.72575 0.44117 0.93399 0.0
C694 C 0.76944 0.4318 0.93952 0.0
C695 C 0.76721 0.43281 0.97067 0.0
C696 C 0.74451 0.4397 0.98329 0.0
C697 C 0.72395 0.44391 0.9651 0.0
C698 C 0.78805 0.42496 0.98996 0.0
C699 C 0.79669 0.44104 0.01224 0.0
C700 C 0.79964 0.4017 0.98609 0.0
C701 C 0.79016 0.38297 0.96478 0.0
C702 C 0.76553 0.37476 0.96646 0.0
C703 C 0.75665 0.35728 0.94617 0.0
C704 C 0.77227 0.34769 0.92426 0.0
C705 C 0.79684 0.35553 0.92263 0.0
C706 C 0.80581 0.37305 0.94283 0.0
C707 C 0.8655 0.38687 0.09098 0.0
C708 C 0.88843 0.38186 0.07748 0.0
C709 C 0.84635 0.39766 0.07451 0.0
C710 C 0.84979 0.40335 0.04429 0.0
C711 C 0.87281 0.39907 0.03103 0.0
C712 C 0.89202 0.38867 0.04751 0.0
C713 C 0.82885 0.41171 0.02571 0.0
C714 C 0.8201 0.39557 0.00369 0.0
C715 C 0.81703 0.4347 0.03017 0.0
C716 C 0.82594 0.45262 0.05276 0.0
C717 C 0.85055 0.46096 0.05237 0.0
C718 C 0.85884 0.47783 0.07375 0.0
C719 C 0.84263 0.48662 0.09554 0.0
C720 C 0.81808 0.47861 0.09592 0.0
C721 C 0.80971 0.46173 0.0746 0.0
H722 H 0.84907 0.49969 0.11206 0.0
H723 H 0.76536 0.33415 0.90858 0.0
H724 H 0.0331 0.71535 0.96424 0.0
H725 H 0.0385 0.75104 0.99707 0.0
H726 H 0.09398 0.78027 0.93765 0.0
H727 H 0.0882 0.7452 0.90446 0.0
H728 H 0.07544 0.7641 0.02829 0.0
H729 H 0.0991 0.84071 0.94078 0.0
H730 H 0.08485 0.85491 0.89145 0.0
H731 H 0.01461 0.81997 0.90584 0.0
H732 H 0.0284 0.80564 0.95527 0.0
H733 H 0.15247 0.85535 0.09049 0.0
H734 H 0.13132 0.82246 0.06324 0.0
H735 H 0.07294 0.87334 0.03994 0.0
H736 H 0.09495 0.90661 0.06543 0.0
H737 H 0.08382 0.85083 0.99391 0.0
H738 H 0.06542 0.82254 0.09093 0.0
H739 H 0.07281 0.8107 0.14324 0.0
H740 H 0.12067 0.752 0.11467 0.0
H741 H 0.11385 0.76369 0.06219 0.0
C742 C 0.0462 0.72957 0.95796 0.0
C743 C 0.06022 0.72738 0.93168 0.0
C744 C 0.0493 0.74995 0.97679 0.0
C745 C 0.0665 0.76852 0.96979 0.0
C746 C 0.08017 0.76655 0.9433 0.0
C747 C 0.07694 0.74634 0.92435 0.0
C748 C 0.07161 0.789 0.99106 0.0
C749 C 0.07707 0.78311 0.02084 0.0
C750 C 0.07303 0.81395 0.98171 0.0
C751 C 0.06486 0.82195 0.95165 0.0
C752 C 0.08061 0.83606 0.93342 0.0
C753 C 0.07263 0.84412 0.90543 0.0
C754 C 0.04886 0.83833 0.89551 0.0
C755 C 0.03305 0.82438 0.91351 0.0
C756 C 0.04098 0.81619 0.94146 0.0
C757 C 0.13496 0.85937 0.07984 0.0
C758 C 0.12537 0.88348 0.07993 0.0
C759 C 0.12276 0.84052 0.06442 0.0
C760 C 0.10031 0.84525 0.04966 0.0
C761 C 0.09027 0.86919 0.05086 0.0
C762 C 0.10282 0.88818 0.06554 0.0
C763 C 0.08845 0.82586 0.03096 0.0
C764 C 0.08182 0.83192 0.00159 0.0
C765 C 0.08505 0.80127 0.04106 0.0
C766 C 0.08924 0.79412 0.0726 0.0
C767 C 0.07766 0.80721 0.0958 0.0
C768 C 0.08173 0.80051 0.12549 0.0
C769 C 0.09723 0.78064 0.13227 0.0
C770 C 0.10867 0.7674 0.10938 0.0
C771 C 0.10468 0.77403 0.07965 0.0
H772 H 0.10036 0.77548 0.15527 0.0
H773 H 0.04268 0.84466 0.87388 0.0
H774 H 0.59829 0.12156 0.02821 0.0
H775 H 0.63197 0.10093 0.00238 0.0
H776 H 0.66586 0.08303 0.08678 0.0
H777 H 0.63268 0.10504 0.1128 0.0
H778 H 0.69913 0.09935 0.05138 0.0
H779 H 0.63575 0.03817 0.03944 0.0
H780 H 0.59351 0.02449 0.02688 0.0
H781 H 0.60376 0.04842 0.93652 0.0
H782 H 0.64588 0.06259 0.94857 0.0
H783 H 0.79311 0.03848 0.96992 0.0
H784 H 0.75757 0.0416 0.00338 0.0
H785 H 0.7138 0.07194 0.93186 0.0
H786 H 0.74891 0.06854 0.8982 0.0
H787 H 0.68637 0.04179 0.96668 0.0
H788 H 0.74432 0.10952 0.98031 0.0
H789 H 0.78525 0.12728 0.99166 0.0
H790 H 0.78423 0.09267 0.07779 0.0
H791 H 0.74342 0.07443 0.06675 0.0
C792 C 0.61274 0.11298 0.04133 0.0
C793 C 0.61281 0.11486 0.07255 0.0
C794 C 0.63195 0.10099 0.02651 0.0
C795 C 0.65125 0.08984 0.04259 0.0
C796 C 0.65113 0.09134 0.07386 0.0
C797 C 0.63217 0.10389 0.08871 0.0
C798 C 0.67231 0.07823 0.02656 0.0
C799 C 0.69633 0.08623 0.0334 0.0
C800 C 0.66875 0.06144 0.00267 0.0
C801 C 0.64395 0.05158 0.99498 0.0
C802 C 0.629 0.04051 0.01689 0.0
C803 C 0.60507 0.03271 0.00987 0.0
C804 C 0.59596 0.03575 0.98098 0.0
C805 C 0.61086 0.04617 0.95891 0.0
C806 C 0.63478 0.05403 0.9658 0.0
C807 C 0.7758 0.0454 0.96114 0.0
C808 C 0.77401 0.05364 0.93146 0.0
C809 C 0.75552 0.04721 0.98034 0.0
C810 C 0.73318 0.0574 0.97023 0.0
C811 C 0.73088 0.06409 0.94017 0.0
C812 C 0.75107 0.06226 0.92098 0.0
C813 C 0.71289 0.06333 0.99124 0.0
C814 C 0.6891 0.0543 0.98528 0.0
C815 C 0.71658 0.07927 0.01585 0.0
C816 C 0.741 0.09038 0.02257 0.0
C817 C 0.75292 0.10557 0.00158 0.0
C818 C 0.77607 0.11573 0.00796 0.0
C819 C 0.78737 0.11104 0.03539 0.0
C820 C 0.77549 0.09624 0.05653 0.0
C821 C 0.75235 0.08598 0.05022 0.0
H822 H 0.8053 0.11892 0.0403 0.0
H823 H 0.57733 0.03016 0.9757 0.0
H824 H 0.42997 0.7042 0.521 0.0
H825 H 0.42503 0.74088 0.48984 0.0
H826 H 0.45395 0.78634 0.56096 0.0
H827 H 0.45745 0.74948 0.59264 0.0
H828 H 0.416 0.80698 0.54171 0.0
H829 H 0.48591 0.77421 0.49104 0.0
H830 H 0.5114 0.74265 0.46602 0.0
H831 H 0.45609 0.7343 0.39817 0.0
H832 H 0.4301 0.76556 0.42298 0.0
H833 H 0.40156 0.91229 0.45055 0.0
H834 H 0.42366 0.87962 0.47703 0.0
H835 H 0.38804 0.82466 0.42218 0.0
H836 H 0.36626 0.8572 0.39511 0.0
H837 H 0.43579 0.81228 0.43397 0.0
H838 H 0.36432 0.84133 0.49054 0.0
H839 H 0.33982 0.87354 0.51588 0.0
H840 H 0.40122 0.88977 0.57328 0.0
H841 H 0.42616 0.85784 0.54801 0.0
C842 C 0.43564 0.72201 0.52969 0.0
C843 C 0.44394 0.72428 0.55916 0.0
C844 C 0.433 0.74298 0.51183 0.0
C845 C 0.43947 0.76649 0.52277 0.0
C846 C 0.44877 0.7685 0.55195 0.0
C847 C 0.45075 0.74757 0.57006 0.0
C848 C 0.4343 0.78906 0.50484 0.0
C849 C 0.42093 0.8083 0.51833 0.0
C850 C 0.44031 0.79083 0.47416 0.0
C851 C 0.45599 0.77216 0.45899 0.0
C852 C 0.47912 0.76555 0.47088 0.0
C853 C 0.49367 0.74772 0.45671 0.0
C854 C 0.48536 0.73645 0.43055 0.0
C855 C 0.46251 0.74304 0.41844 0.0
C856 C 0.44788 0.76085 0.43251 0.0
C857 C 0.39865 0.89327 0.44383 0.0
C858 C 0.38185 0.88733 0.42097 0.0
C859 C 0.4113 0.87463 0.45902 0.0
C860 C 0.40712 0.8497 0.45195 0.0
C861 C 0.39148 0.84379 0.42804 0.0
C862 C 0.37898 0.86243 0.41264 0.0
C863 C 0.41731 0.82968 0.47086 0.0
C864 C 0.43146 0.81099 0.45753 0.0
C865 C 0.41231 0.82849 0.50178 0.0
C866 C 0.39716 0.84739 0.51722 0.0
C867 C 0.37262 0.85186 0.50847 0.0
C868 C 0.35866 0.87005 0.52282 0.0
C869 C 0.36898 0.88374 0.54612 0.0
C870 C 0.39326 0.87919 0.5552 0.0
C871 C 0.40731 0.86104 0.54089 0.0
H872 H 0.35815 0.89783 0.55719 0.0
H873 H 0.49664 0.72264 0.41963 0.0
H874 H 0.75156 0.43087 0.60814 0.0
H875 H 0.71536 0.42121 0.57795 0.0
H876 H 0.75461 0.44329 0.49865 0.0
H877 H 0.79091 0.45335 0.52874 0.0
H878 H 0.70644 0.45766 0.4964 0.0
H879 H 0.75141 0.3833 0.51677 0.0
H880 H 0.7724 0.35236 0.5482 0.0
H881 H 0.70445 0.33786 0.59438 0.0
H882 H 0.68312 0.369 0.56349 0.0
H883 H 0.63746 0.37986 0.39382 0.0
H884 H 0.67032 0.39907 0.42353 0.0
H885 H 0.62507 0.39325 0.50223 0.0
H886 H 0.59192 0.37473 0.47278 0.0
H887 H 0.67591 0.37131 0.50404 0.0
H888 H 0.63176 0.44691 0.48441 0.0
H889 H 0.61073 0.4771 0.45187 0.0
H890 H 0.67796 0.48792 0.40272 0.0
H891 H 0.69919 0.45745 0.43476 0.0
C892 C 0.75249 0.4339 0.58433 0.0
C893 C 0.77431 0.44252 0.57083 0.0
C894 C 0.73176 0.42835 0.56709 0.0
C895 C 0.73248 0.43107 0.536 0.0
C896 C 0.75372 0.44095 0.5226 0.0
C897 C 0.77447 0.44663 0.53986 0.0
C898 C 0.71165 0.42218 0.51742 0.0
C899 C 0.69995 0.43871 0.49784 0.0
C900 C 0.703 0.39752 0.51952 0.0
C901 C 0.71573 0.37867 0.53803 0.0
C902 C 0.74099 0.37365 0.53378 0.0
C903 C 0.75294 0.35606 0.55148 0.0
C904 C 0.73979 0.3432 0.57333 0.0
C905 C 0.71463 0.34786 0.57748 0.0
C906 C 0.70259 0.36547 0.55987 0.0
C907 C 0.6344 0.38293 0.41738 0.0
C908 C 0.61213 0.37564 0.43095 0.0
C909 C 0.65312 0.39397 0.43425 0.0
C910 C 0.65001 0.39751 0.46498 0.0
C911 C 0.62771 0.39068 0.4785 0.0
C912 C 0.60881 0.38013 0.46159 0.0
C913 C 0.67064 0.40682 0.48338 0.0
C914 C 0.6824 0.39027 0.50275 0.0
C915 C 0.67943 0.43132 0.4809 0.0
C916 C 0.66689 0.44969 0.46167 0.0
C917 C 0.64191 0.45553 0.46642 0.0
C918 C 0.63 0.47273 0.44814 0.0
C919 C 0.64298 0.48436 0.42516 0.0
C920 C 0.66792 0.47885 0.42049 0.0
C921 C 0.6799 0.46163 0.43872 0.0
H922 H 0.63375 0.49768 0.41102 0.0
H923 H 0.74907 0.32958 0.587 0.0
H924 H 0.10909 0.58646 0.45924 0.0
H925 H 0.08979 0.62081 0.48558 0.0
H926 H 0.10795 0.66969 0.41281 0.0
H927 H 0.12786 0.63557 0.38657 0.0
H928 H 0.12323 0.68817 0.4633 0.0
H929 H 0.04728 0.65232 0.42958 0.0
H930 H 0.01671 0.61909 0.42207 0.0
H931 H 0.00939 0.61045 0.51675 0.0
H932 H 0.04021 0.6434 0.52487 0.0
H933 H 0.06067 0.79332 0.51981 0.0
H934 H 0.06898 0.75741 0.48811 0.0
H935 H 0.06587 0.70967 0.56498 0.0
H936 H 0.05806 0.74558 0.59699 0.0
H937 H 0.04081 0.69093 0.5115 0.0
H938 H 0.11833 0.72338 0.54517 0.0
H939 H 0.15155 0.75373 0.55375 0.0
H940 H 0.15709 0.76665 0.4596 0.0
H941 H 0.12348 0.73676 0.45047 0.0
C942 C 0.1087 0.60443 0.44858 0.0
C943 C 0.1203 0.60828 0.42087 0.0
C944 C 0.09746 0.62405 0.46363 0.0
C945 C 0.09727 0.64784 0.45112 0.0
C946 C 0.1079 0.6515 0.42291 0.0
C947 C 0.1193 0.63195 0.40794 0.0
C948 C 0.08842 0.66936 0.46869 0.0
C949 C 0.10496 0.68899 0.47322 0.0
C950 C 0.06494 0.66998 0.48264 0.0
C951 C 0.04626 0.65022 0.47783 0.0
C952 C 0.03932 0.64322 0.44882 0.0
C953 C 0.02191 0.62444 0.44445 0.0
C954 C 0.01117 0.61262 0.46892 0.0
C955 C 0.01775 0.61961 0.49782 0.0
C956 C 0.03517 0.63836 0.50232 0.0
C957 C 0.06142 0.77514 0.52992 0.0
C958 C 0.05886 0.77225 0.5609 0.0
C959 C 0.06622 0.75468 0.5118 0.0
C960 C 0.0681 0.73096 0.52427 0.0
C961 C 0.06443 0.72785 0.55498 0.0
C962 C 0.06012 0.74836 0.57321 0.0
C963 C 0.07554 0.7097 0.50553 0.0
C964 C 0.05886 0.69015 0.50105 0.0
C965 C 0.09895 0.709 0.49163 0.0
C966 C 0.11813 0.72807 0.49717 0.0
C967 C 0.12629 0.73302 0.52633 0.0
C968 C 0.1453 0.75004 0.53128 0.0
C969 C 0.15647 0.76204 0.50722 0.0
C970 C 0.14846 0.75728 0.47819 0.0
C971 C 0.12938 0.74036 0.47313 0.0
H972 H 0.17136 0.775 0.51107 0.0
H973 H 0.99772 0.59807 0.46549 0.0
H974 H 0.71151 0.03786 0.53491 0.0
H975 H 0.74653 0.04584 0.5017 0.0
H976 H 0.77105 0.10459 0.55959 0.0
H977 H 0.73609 0.09701 0.59261 0.0
H978 H 0.77009 0.11898 0.50188 0.0
H979 H 0.80087 0.05065 0.55923 0.0
H980 H 0.80022 0.00856 0.58034 0.0
H981 H 0.79956 0.9777 0.49218 0.0
H982 H 0.79984 0.01966 0.47054 0.0
H983 H 0.90496 0.10855 0.45831 0.0
H984 H 0.86979 0.09058 0.48434 0.0
H985 H 0.8216 0.11289 0.41267 0.0
H986 H 0.85665 0.13145 0.38659 0.0
H987 H 0.83363 0.05658 0.4754 0.0
H988 H 0.76908 0.13776 0.44543 0.0
H989 H 0.77231 0.18062 0.4269 0.0
H990 H 0.84431 0.18732 0.46629 0.0
H991 H 0.84108 0.14496 0.48606 0.0
C992 C 0.72444 0.05239 0.54065 0.0
C993 C 0.72107 0.0667 0.56652 0.0
C994 C 0.74447 0.05686 0.5217 0.0
C995 C 0.76141 0.07575 0.52826 0.0
C996 C 0.75817 0.08993 0.55413 0.0
C997 C 0.73827 0.08541 0.57312 0.0
C998 C 0.78217 0.08135 0.50783 0.0
C999 C 0.78388 0.10528 0.49595 0.0
C1000 C 0.80027 0.06353 0.50031 0.0
C1001 C 0.80008 0.0383 0.51327 0.0
C1002 C 0.80035 0.0349 0.54434 0.0
C1003 C 0.80009 0.01106 0.5564 0.0
C1004 C 0.79977 0.99047 0.53761 0.0
C1005 C 0.79976 0.99367 0.50671 0.0
C1006 C 0.79998 0.01747 0.49453 0.0
C1007 C 0.88698 0.10937 0.44777 0.0
C1008 C 0.88358 0.12196 0.4206 0.0
C1009 C 0.8669 0.09888 0.46264 0.0
C1010 C 0.84304 0.10076 0.45068 0.0
C1011 C 0.83984 0.11155 0.42247 0.0
C1012 C 0.85992 0.12217 0.40761 0.0
C1013 C 0.82143 0.09416 0.46936 0.0
C1014 C 0.81958 0.07012 0.48095 0.0
C1015 C 0.80341 0.11202 0.47714 0.0
C1016 C 0.80497 0.13805 0.46683 0.0
C1017 C 0.78549 0.14849 0.45039 0.0
C1018 C 0.78729 0.17272 0.43973 0.0
C1019 C 0.80851 0.18668 0.44538 0.0
C1020 C 0.82785 0.17654 0.46198 0.0
C1021 C 0.82601 0.15244 0.473 0.0
H1022 H 0.80995 0.20538 0.43693 0.0
H1023 H 0.79959 0.97203 0.54699 0.0
H1024 H 0.50219 0.91911 0.90937 0.0
H1025 H 0.50939 0.95925 0.9324 0.0
H1026 H 0.48414 0.93066 0.01686 0.0
H1027 H 0.47665 0.89024 0.99375 0.0
H1028 H 0.46013 0.97326 0.00031 0.0
H1029 H 0.54491 0.94719 0.01085 0.0
H1030 H 0.58448 0.9294 0.99397 0.0
H1031 H 0.58953 0.98452 0.92532 0.0
H1032 H 0.54979 0.00238 0.94156 0.0
H1033 H 0.49795 0.0762 0.08807 0.0
H1034 H 0.48908 0.03639 0.06485 0.0
H1035 H 0.51355 0.06485 0.98001 0.0
H1036 H 0.52244 0.10494 0.0032 0.0
H1037 H 0.53752 0.02227 0.99676 0.0
H1038 H 0.45432 0.05061 0.98903 0.0
H1039 H 0.41494 0.06852 0.00618 0.0
H1040 H 0.40617 0.00908 0.06873 0.0
H1041 H 0.4457 0.99098 0.05228 0.0
C1042 C 0.49866 0.9212 0.933 0.0
C1043 C 0.48879 0.90163 0.94978 0.0
C1044 C 0.50286 0.94413 0.94614 0.0
C1045 C 0.49731 0.94787 0.97631 0.0
C1046 C 0.48851 0.92806 0.99351 0.0
C1047 C 0.48443 0.90499 0.98037 0.0
C1048 C 0.49881 0.97302 0.98898 0.0
C1049 C 0.47714 0.98389 6e-05 0.0
C1050 C 0.52079 0.98704 0.98756 0.0
C1051 C 0.54443 0.9761 0.97741 0.0
C1052 C 0.5544 0.9554 0.99204 0.0
C1053 C 0.57685 0.94531 0.9826 0.0
C1054 C 0.58951 0.95582 0.95858 0.0
C1055 C 0.5797 0.97638 0.9439 0.0
C1056 C 0.55722 0.98649 0.95322 0.0
C1057 C 0.50091 0.07415 0.06432 0.0
C1058 C 0.51098 0.09356 0.04741 0.0
C1059 C 0.49575 0.05144 0.05108 0.0
C1060 C 0.50066 0.04773 0.02075 0.0
C1061 C 0.50962 0.06744 0.00347 0.0
C1062 C 0.51455 0.09031 0.01668 0.0
C1063 C 0.49886 0.02261 0.00803 0.0
C1064 C 0.5205 0.01171 0.99696 0.0
C1065 C 0.47683 0.00862 0.00945 0.0
C1066 C 0.45313 0.01957 0.01962 0.0
C1067 C 0.44414 0.04148 0.00667 0.0
C1068 C 0.42175 0.05164 0.01621 0.0
C1069 C 0.40809 0.03998 0.03859 0.0
C1070 C 0.41678 0.01811 0.05143 0.0
C1071 C 0.43917 0.00788 0.04198 0.0
H1072 H 0.39075 0.04786 0.04592 0.0
H1073 H 0.60693 0.94802 0.95136 0.0
H1074 H 0.42421 0.50351 0.09092 0.0
H1075 H 0.46391 0.49661 0.06669 0.0
H1076 H 0.43 0.50727 0.98065 0.0
H1077 H 0.38994 0.51419 0.00479 0.0
H1078 H 0.46616 0.4689 0.98252 0.0
H1079 H 0.45689 0.55442 0.00905 0.0
H1080 H 0.44718 0.58876 0.04322 0.0
H1081 H 0.50635 0.56643 0.10103 0.0
H1082 H 0.51618 0.5317 0.06739 0.0
H1083 H 0.57437 0.49332 0.90289 0.0
H1084 H 0.53416 0.50119 0.92542 0.0
H1085 H 0.56597 0.49275 0.01298 0.0
H1086 H 0.60653 0.48499 0.99055 0.0
H1087 H 0.53044 0.53059 0.00944 0.0
H1088 H 0.53909 0.4446 0.98348 0.0
H1089 H 0.54842 0.40988 0.94971 0.0
H1090 H 0.49031 0.43306 0.89088 0.0
H1091 H 0.48079 0.46811 0.92416 0.0
C1092 C 0.42506 0.50398 0.06681 0.0
C1093 C 0.40408 0.50971 0.04971 0.0
C1094 C 0.44775 0.50008 0.05305 0.0
C1095 C 0.44983 0.50192 0.02202 0.0
C1096 C 0.42865 0.50592 0.00469 0.0
C1097 C 0.40584 0.50986 0.01848 0.0
C1098 C 0.47446 0.50152 0.0081 0.0
C1099 C 0.48013 0.48255 0.98803 0.0
C1100 C 0.49268 0.51918 0.01583 0.0
C1101 C 0.48714 0.54034 0.03582 0.0
C1102 C 0.46773 0.55673 0.02914 0.0
C1103 C 0.46222 0.57628 0.0484 0.0
C1104 C 0.47611 0.57974 0.07431 0.0
C1105 C 0.4956 0.56372 0.08095 0.0
C1106 C 0.50117 0.54411 0.06178 0.0
C1107 C 0.57294 0.49355 0.92696 0.0
C1108 C 0.59347 0.48823 0.94501 0.0
C1109 C 0.54995 0.498 0.93976 0.0
C1110 C 0.54712 0.49704 0.97076 0.0
C1111 C 0.56788 0.49343 0.98897 0.0
C1112 C 0.59098 0.48901 0.97615 0.0
C1113 C 0.52218 0.49792 0.9839 0.0
C1114 C 0.51646 0.51699 0.00384 0.0
C1115 C 0.5039 0.48035 0.97603 0.0
C1116 C 0.50938 0.45911 0.95617 0.0
C1117 C 0.52841 0.44239 0.96324 0.0
C1118 C 0.53372 0.42264 0.94421 0.0
C1119 C 0.52003 0.41931 0.91812 0.0
C1120 C 0.50092 0.43568 0.91108 0.0
C1121 C 0.49554 0.45547 0.93004 0.0
H1122 H 0.52419 0.40401 0.90341 0.0
H1123 H 0.47179 0.59487 0.08921 0.0
H1124 H 0.00656 0.57532 0.90497 0.0
H1125 H -0.00077 0.53566 0.92922 0.0
H1126 H 0.00757 0.57013 0.01534 0.0
H1127 H 0.01525 0.61001 0.99112 0.0
H1128 H 0.03638 0.52948 0.00962 0.0
H1129 H 0.95149 0.54984 0.9924 0.0
H1130 H 0.91519 0.56281 0.96312 0.0
H1131 H 0.92376 0.49968 0.90604 0.0
H1132 H 0.96034 0.4865 0.93474 0.0
H1133 H 0.99474 0.42799 0.09649 0.0
H1134 H 0.0026 0.46743 0.07197 0.0
H1135 H 0.99398 0.43262 0.98608 0.0
H1136 H 0.98575 0.39297 0.01057 0.0
H1137 H 0.96545 0.47336 0.99149 0.0
H1138 H 0.05018 0.45284 0.00881 0.0
H1139 H 0.08648 0.43982 0.03805 0.0
H1140 H 0.07827 0.50317 0.09485 0.0
H1141 H 0.04169 0.5164 0.06619 0.0
C1142 C 0.00642 0.57458 0.92909 0.0
C1143 C 0.01155 0.59574 0.94618 0.0
C1144 C 0.00215 0.5519 0.94291 0.0
C1145 C 0.0028 0.54999 0.97406 0.0
C1146 C 0.00701 0.57127 0.99125 0.0
C1147 C 0.01124 0.59403 0.97741 0.0
C1148 C 0.00088 0.52546 0.98843 0.0
C1149 C 0.02068 0.51734 0.00609 0.0
C1150 C 0.98077 0.50939 0.98293 0.0
C1151 C 0.95881 0.51732 0.96557 0.0
C1152 C 0.94578 0.53884 0.97345 0.0
C1153 C 0.92512 0.5462 0.95699 0.0
C1154 C 0.91721 0.53212 0.93269 0.0
C1155 C 0.92992 0.5106 0.92485 0.0
C1156 C 0.9506 0.50316 0.94122 0.0
C1157 C 0.99495 0.4286 0.07237 0.0
C1158 C 0.98953 0.40743 0.05542 0.0
C1159 C -0.00046 0.45115 0.05839 0.0
C1160 C 0.99892 0.45292 0.02722 0.0
C1161 C 0.9945 0.4316 0.01018 0.0
C1162 C 0.98995 0.40897 0.02418 0.0
C1163 C 0.00094 0.47738 0.0127 0.0
C1164 C 0.98116 0.48549 0.995 0.0
C1165 C 0.02107 0.49343 0.01816 0.0
C1166 C 0.04304 0.48549 0.0355 0.0
C1167 C 0.05597 0.46388 0.0277 0.0
C1168 C 0.07663 0.45649 0.04414 0.0
C1169 C 0.08464 0.47063 0.06834 0.0
C1170 C 0.07203 0.49222 0.07611 0.0
C1171 C 0.05135 0.49969 0.05976 0.0
H1172 H 0.10065 0.46488 0.08103 0.0
H1173 H 0.90121 0.53784 0.91999 0.0
H1174 H 0.07142 0.96966 0.08851 0.0
H1175 H 0.03264 0.97828 0.06271 0.0
H1176 H 0.07306 0.00557 0.98674 0.0
H1177 H 0.11225 0.99629 0.01216 0.0
H1178 H 0.02882 0.036 0.01354 0.0
H1179 H 0.05375 0.95796 0.97158 0.0
H1180 H 0.06831 0.91476 0.97237 0.0
H1181 H 0.00516 0.89364 0.02436 0.0
H1182 H 0.99041 0.93683 0.02429 0.0
H1183 H 0.93267 0.03634 0.90604 0.0
H1184 H 0.97207 0.02765 0.93036 0.0
H1185 H 0.93376 0.99264 0.0033 0.0
H1186 H 0.89396 0.00181 0.97935 0.0
H1187 H 0.97731 0.96611 0.97752 0.0
H1188 H 0.95185 0.04375 0.01869 0.0
H1189 H 0.93697 0.08683 0.01793 0.0
H1190 H 0.00096 0.10883 0.96802 0.0
H1191 H 0.01602 0.06576 0.96797 0.0
C1192 C 0.07211 0.9777 0.06641 0.0
C1193 C 0.0948 0.98236 0.05229 0.0
C1194 C 0.04996 0.98249 0.05172 0.0
C1195 C 0.05017 0.99239 0.02291 0.0
C1196 C 0.07272 0.99786 0.00902 0.0
C1197 C 0.09498 0.99257 0.0235 0.0
C1198 C 0.02662 0.99659 0.0074 0.0
C1199 C 0.01769 0.02082 0.00517 0.0
C1200 C 0.012 0.97657 0.99744 0.0
C1201 C 0.02113 0.9507 0.99823 0.0
C1202 C 0.04315 0.94418 0.98356 0.0
C1203 C 0.05139 0.91968 0.98378 0.0
C1204 C 0.03768 0.90147 0.99841 0.0
C1205 C 0.01577 0.90777 0.01302 0.0
C1206 C 0.00745 0.93225 0.0129 0.0
C1207 C 0.93259 0.0266 0.92714 0.0
C1208 C 0.91029 0.01972 0.94086 0.0
C1209 C 0.95509 0.02176 0.941 0.0
C1210 C 0.95566 0.00968 0.96858 0.0
C1211 C 0.93353 0.00204 0.98197 0.0
C1212 C 0.9109 0.00729 0.96834 0.0
C1213 C 0.97952 0.00555 0.98352 0.0
C1214 C 0.98846 0.98131 0.98576 0.0
C1215 C 0.99414 0.02557 0.99351 0.0
C1216 C 0.98492 0.05144 0.99301 0.0
C1217 C 0.9626 0.0577 0.00718 0.0
C1218 C 0.95416 0.08213 0.00698 0.0
C1219 C 0.968 0.10055 0.9929 0.0
C1220 C 0.99025 0.09454 0.97889 0.0
C1221 C 0.99875 0.07011 0.97897 0.0
H1222 H 0.96155 0.11949 0.99299 0.0
H1223 H 0.04395 0.88247 0.99829 0.0
H1224 H 0.48944 0.60475 0.51035 0.0
H1225 H 0.49749 0.56425 0.48816 0.0
H1226 H 0.49469 0.53058 0.57525 0.0
H1227 H 0.48684 0.571 0.59767 0.0
H1228 H 0.53137 0.5104 0.53844 0.0
H1229 H 0.44384 0.53011 0.53423 0.0
H1230 H 0.40796 0.55599 0.52122 0.0
H1231 H 0.4286 0.55346 0.42886 0.0
H1232 H 0.46472 0.52764 0.4414 0.0
H1233 H 0.51121 0.38743 0.49194 0.0
H1234 H 0.50309 0.427 0.51664 0.0
H1235 H 0.50042 0.46333 0.43107 0.0
H1236 H 0.5081 0.424 0.40632 0.0
H1237 H 0.46641 0.48188 0.46824 0.0
H1238 H 0.55235 0.46186 0.47002 0.0
H1239 H 0.58807 0.4351 0.48058 0.0
H1240 H 0.57304 0.43971 0.57437 0.0
H1241 H 0.53651 0.4657 0.56426 0.0
C1242 C 0.491 0.5888 0.52483 0.0
C1243 C 0.48722 0.59096 0.55569 0.0
C1244 C 0.49552 0.5657 0.51213 0.0
C1245 C 0.49624 0.54447 0.53008 0.0
C1246 C 0.49409 0.54679 0.56106 0.0
C1247 C 0.48953 0.56987 0.57379 0.0
C1248 C 0.49725 0.51967 0.51641 0.0
C1249 C 0.51706 0.50399 0.52337 0.0
C1250 C 0.47878 0.51164 0.49631 0.0
C1251 C 0.45706 0.52713 0.48878 0.0
C1252 C 0.44081 0.53522 0.51118 0.0
C1253 C 0.42041 0.54986 0.50388 0.0
C1254 C 0.41604 0.55645 0.47422 0.0
C1255 C 0.43202 0.54836 0.45181 0.0
C1256 C 0.45243 0.53369 0.459 0.0
C1257 C 0.50835 0.40377 0.47842 0.0
C1258 C 0.51056 0.40273 0.44726 0.0
C1259 C 0.50385 0.42634 0.49253 0.0
C1260 C 0.50164 0.44809 0.47564 0.0
C1261 C 0.50219 0.44675 0.44447 0.0
C1262 C 0.50666 0.42427 0.43039 0.0
C1263 C 0.50051 0.47251 0.49025 0.0
C1264 C 0.48069 0.48818 0.48342 0.0
C1265 C 0.51917 0.48061 0.51011 0.0
C1266 C 0.5415 0.4655 0.51635 0.0
C1267 C 0.55651 0.457 0.49289 0.0
C1268 C 0.57692 0.44197 0.4988 0.0
C1269 C 0.5829 0.43577 0.52815 0.0
C1270 C 0.56839 0.44453 0.55164 0.0
C1271 C 0.54777 0.45935 0.54583 0.0
H1272 H 0.59876 0.4242 0.53269 0.0
H1273 H 0.40023 0.56774 0.46852 0.0
H1274 H 0.10372 0.50462 0.48389 0.0
H1275 H 0.06288 0.49731 0.50546 0.0
H1276 H 0.03051 0.49874 0.41761 0.0
H1277 H 0.07116 0.50612 0.39588 0.0
H1278 H 0.00934 0.53193 0.45532 0.0
H1279 H 0.02956 0.44567 0.4561 0.0
H1280 H 0.05448 0.40849 0.46653 0.0
H1281 H 0.05167 0.42414 0.56026 0.0
H1282 H 0.02685 0.4615 0.55038 0.0
H1283 H 0.88797 0.49266 0.50554 0.0
H1284 H 0.92732 0.49936 0.47968 0.0
H1285 H 0.96485 0.50423 0.56426 0.0
H1286 H 0.92583 0.49785 0.59021 0.0
H1287 H 0.98238 0.46676 0.52593 0.0
H1288 H 0.96354 0.55346 0.52529 0.0
H1289 H 0.93944 0.59123 0.51526 0.0
H1290 H 0.94027 0.57518 0.42157 0.0
H1291 H 0.96415 0.53713 0.43108 0.0
C1292 C 0.08799 0.5028 0.46914 0.0
C1293 C 0.09054 0.50621 0.43827 0.0
C1294 C 0.06471 0.49856 0.48146 0.0
C1295 C 0.04377 0.49758 0.46306 0.0
C1296 C 0.0465 0.49954 0.43211 0.0
C1297 C 0.06973 0.50372 0.41978 0.0
C1298 C 0.01886 0.49733 0.47629 0.0
C1299 C 0.0032 0.51743 0.47031 0.0
C1300 C 0.01132 0.47878 0.49647 0.0
C1301 C 0.02655 0.45652 0.50246 0.0
C1302 C 0.03445 0.44131 0.47891 0.0
C1303 C 0.04849 0.42016 0.48473 0.0
C1304 C 0.05472 0.414 0.51402 0.0
C1305 C 0.04688 0.42896 0.53757 0.0
C1306 C 0.03277 0.45009 0.53188 0.0
C1307 C 0.90452 0.4958 0.51859 0.0
C1308 C 0.90393 0.49441 0.54984 0.0
C1309 C 0.92691 0.49964 0.50381 0.0
C1310 C 0.94886 0.50206 0.52018 0.0
C1311 C 0.94804 0.50226 0.55136 0.0
C1312 C 0.92573 0.49862 0.56609 0.0
C1313 C 0.97297 0.50141 0.50507 0.0
C1314 C 0.98845 0.48113 0.51072 0.0
C1315 C 0.98035 0.51981 0.48463 0.0
C1316 C 0.9653 0.54224 0.47895 0.0
C1317 C 0.95828 0.55778 0.50259 0.0
C1318 C 0.94475 0.57931 0.49699 0.0
C1319 C 0.93823 0.58555 0.46781 0.0
C1320 C 0.94526 0.57029 0.44417 0.0
C1321 C 0.9588 0.54875 0.44965 0.0
H1322 H 0.92781 0.60225 0.46352 0.0
H1323 H 0.06556 0.3976 0.51849 0.0
H1324 H -0.00046 0.92129 0.59208 0.0
H1325 H 0.99112 0.96184 0.57048 0.0
H1326 H 0.01007 0.93395 0.48334 0.0
H1327 H 0.01809 0.89311 0.50478 0.0
H1328 H 0.02356 0.99127 0.54416 0.0
H1329 H 0.97956 0.96705 0.43023 0.0
H1330 H 0.95239 0.93534 0.40811 0.0
H1331 H 0.92023 0.92114 0.49389 0.0
H1332 H 0.94696 0.95298 0.51644 0.0
H1333 H 0.99401 0.07843 0.40932 0.0
H1334 H 0.00214 0.03816 0.43173 0.0
H1335 H 0.9825 0.06712 0.51813 0.0
H1336 H 0.97472 0.10773 0.49584 0.0
H1337 H 0.96895 0.0094 0.45817 0.0
H1338 H 0.0126 0.0338 0.57206 0.0
H1339 H 0.03971 0.06552 0.59427 0.0
H1340 H 0.07242 0.07939 0.50872 0.0
H1341 H 0.04575 0.04754 0.48608 0.0
C1342 C 0.00151 0.92367 0.56823 0.0
C1343 C 0.00951 0.90406 0.55009 0.0
C1344 C 0.99679 0.94688 0.55596 0.0
C1345 C -2e-05 0.95093 0.52534 0.0
C1346 C 0.00718 0.93116 0.50698 0.0
C1347 C 0.01177 0.90784 0.51924 0.0
C1348 C 0.99722 0.97619 0.51303 0.0
C1349 C 0.01133 0.99533 0.52563 0.0
C1350 C 0.98176 0.98131 0.4884 0.0
C1351 C 0.96546 0.96222 0.47505 0.0
C1352 C 0.96664 0.95721 0.44435 0.0
C1353 C 0.95132 0.93921 0.43174 0.0
C1354 C 0.93466 0.92617 0.4496 0.0
C1355 C 0.93322 0.93117 0.4801 0.0
C1356 C 0.94848 0.94917 0.49281 0.0
C1357 C 0.99182 0.07636 0.43318 0.0
C1358 C 0.98366 0.09619 0.45085 0.0
C1359 C 0.99638 0.05331 0.44592 0.0
C1360 C 0.99288 0.04962 0.47655 0.0
C1361 C 0.98559 0.06963 0.49448 0.0
C1362 C 0.98115 0.09281 0.48174 0.0
C1363 C 0.99534 0.02446 0.48923 0.0
C1364 C 0.98116 0.00535 0.47672 0.0
C1365 C 0.01072 0.01937 0.51395 0.0
C1366 C 0.02697 0.03847 0.52733 0.0
C1367 C 0.02563 0.04358 0.55801 0.0
C1368 C 0.04091 0.06158 0.57067 0.0
C1369 C 0.05771 0.07452 0.5529 0.0
C1370 C 0.05932 0.06943 0.52244 0.0
C1371 C 0.04409 0.05143 0.50967 0.0
H1372 H 0.06952 0.08846 0.56274 0.0
H1373 H 0.92282 0.91224 0.4398 0.0
H1374 H 0.57359 0.00173 0.59325 0.0
H1375 H 0.53396 0.99397 0.56908 0.0
H1376 H 0.56633 0.01063 0.48354 0.0
H1377 H 0.60614 0.01858 0.50764 0.0
H1378 H 0.52451 0.03731 0.49422 0.0
H1379 H 0.5493 0.95261 0.49929 0.0
H1380 H 0.56463 0.91438 0.52281 0.0
H1381 H 0.50242 0.91399 0.58217 0.0
H1382 H 0.48689 0.95244 0.55929 0.0
H1383 H 0.422 0.99745 0.40643 0.0
H1384 H 0.46194 0.00557 0.42976 0.0
H1385 H 0.43069 0.98967 0.51611 0.0
H1386 H 0.39061 0.98143 0.4929 0.0
H1387 H 0.47217 0.96248 0.50442 0.0
H1388 H 0.44759 0.04733 0.49972 0.0
H1389 H 0.43227 0.08565 0.47638 0.0
H1390 H 0.49405 0.08575 0.41638 0.0
H1391 H 0.50956 0.04721 0.43908 0.0
C1392 C 0.57241 0.00328 0.56922 0.0
C1393 C 0.5929 0.01085 0.55232 0.0
C1394 C 0.54977 0.99878 0.55545 0.0
C1395 C 0.54727 0.00173 0.52455 0.0
C1396 C 0.56795 0.00829 0.50744 0.0
C1397 C 0.59067 0.01268 0.5212 0.0
C1398 C 0.52261 -0.00011 0.5106 0.0
C1399 C 0.51319 0.0208 0.49596 0.0
C1400 C 0.50767 0.97862 0.51379 0.0
C1401 C 0.51706 0.95557 0.52776 0.0
C1402 C 0.53901 0.94452 0.51756 0.0
C1403 C 0.54771 0.92278 0.53073 0.0
C1404 C 0.53455 0.9118 0.55402 0.0
C1405 C 0.51262 0.92253 0.56415 0.0
C1406 C 0.50385 0.94429 0.55107 0.0
C1407 C 0.42349 0.99617 0.43045 0.0
C1408 C 0.40325 0.98869 0.44785 0.0
C1409 C 0.44631 0.00087 0.44374 0.0
C1410 C 0.44921 0.99817 0.47462 0.0
C1411 C 0.42876 0.99179 0.49221 0.0
C1412 C 0.40588 0.98723 0.47895 0.0
C1413 C 0.47404 -9e-05 0.48811 0.0
C1414 C 0.48349 0.97898 0.50265 0.0
C1415 C 0.489 0.02116 0.48482 0.0
C1416 C 0.4796 0.04422 0.47091 0.0
C1417 C 0.45778 0.05537 0.48134 0.0
C1418 C 0.44909 0.07717 0.46828 0.0
C1419 C 0.46214 0.08809 0.44486 0.0
C1420 C 0.48394 0.07725 0.43449 0.0
C1421 C 0.49269 0.05544 0.44747 0.0
H1422 H 0.4554 0.10498 0.43479 0.0
H1423 H 0.5413 0.89495 0.56418 0.0
H1424 H 0.48956 0.29592 0.36408 0.0
H1425 H 0.48354 0.26715 0.32252 0.0
H1426 H 0.53747 0.30739 0.27082 0.0
H1427 H 0.54433 0.3354 0.31271 0.0
H1428 H 0.47044 0.26767 0.26514 0.0
H1429 H 0.57425 0.2685 0.235 0.0
H1430 H 0.61445 0.27695 0.25886 0.0
H1431 H 0.58427 0.25734 0.34408 0.0
H1432 H 0.54396 0.2485 0.32073 0.0
H1433 H 0.49506 0.2047 0.12774 0.0
H1434 H 0.4887 0.23298 0.16968 0.0
H1435 H 0.53019 0.18384 0.22675 0.0
H1436 H 0.53767 0.1564 0.18454 0.0
H1437 H 0.54766 0.2267 0.23191 0.0
H1438 H 0.46539 0.19427 0.2336 0.0
H1439 H 0.42471 0.18283 0.21305 0.0
H1440 H 0.41064 0.25875 0.19078 0.0
H1441 H 0.45139 0.27062 0.21086 0.0
C1442 C 0.49985 0.29877 0.34366 0.0
C1443 C 0.5177 0.31754 0.34163 0.0
C1444 C 0.49633 0.28241 0.31994 0.0
C1445 C 0.51044 0.28486 0.29386 0.0
C1446 C 0.52682 0.30485 0.29103 0.0
C1447 C 0.53071 0.32083 0.31491 0.0
C1448 C 0.50988 0.26529 0.27085 0.0
C1449 C 0.48727 0.25864 0.2578 0.0
C1450 C 0.53179 0.25316 0.26185 0.0
C1451 C 0.55605 0.25806 0.27613 0.0
C1452 C 0.57623 0.2659 0.25882 0.0
C1453 C 0.59902 0.27078 0.27227 0.0
C1454 C 0.60187 0.26777 0.303 0.0
C1455 C 0.58198 0.25976 0.32033 0.0
C1456 C 0.55916 0.25483 0.307 0.0
C1457 C 0.50241 0.19983 0.14941 0.0
C1458 C 0.51699 0.17859 0.15304 0.0
C1459 C 0.49866 0.21589 0.17339 0.0
C1460 C 0.50891 0.21051 0.20143 0.0
C1461 C 0.52227 0.18848 0.20529 0.0
C1462 C 0.52651 0.17281 0.18123 0.0
C1463 C 0.50817 0.22889 0.22591 0.0
C1464 C 0.53069 0.2355 0.2392 0.0
C1465 C 0.48607 0.24038 0.23557 0.0
C1466 C 0.46155 0.2333 0.22351 0.0
C1467 C 0.45371 0.2085 0.22412 0.0
C1468 C 0.43062 0.20194 0.21259 0.0
C1469 C 0.41513 0.22004 0.20056 0.0
C1470 C 0.42267 0.24475 0.20009 0.0
C1471 C 0.44575 0.2514 0.21157 0.0
H1472 H 0.39726 0.21492 0.19165 0.0
H1473 H 0.61952 0.27159 0.31338 0.0
H1474 H 0.20017 0.48016 0.36609 0.0
H1475 H 0.2322 0.47285 0.32834 0.0
H1476 H 0.20308 0.5329 0.27564 0.0
H1477 H 0.17162 0.54063 0.31333 0.0
H1478 H 0.23259 0.46231 0.26824 0.0
H1479 H 0.24745 0.56691 0.24982 0.0
H1480 H 0.2453 0.60608 0.27786 0.0
H1481 H 0.25994 0.56728 0.35933 0.0
H1482 H 0.26193 0.52771 0.33186 0.0
H1483 H 0.28974 0.49239 0.13006 0.0
H1484 H 0.26501 0.4838 0.17461 0.0
H1485 H 0.32333 0.51348 0.22981 0.0
H1486 H 0.34714 0.52352 0.18522 0.0
H1487 H 0.28428 0.53511 0.24298 0.0
H1488 H 0.30419 0.44993 0.23101 0.0
H1489 H 0.30887 0.41024 0.2046 0.0
H1490 H 0.2308 0.4082 0.1878 0.0
H1491 H 0.22568 0.44805 0.21375 0.0
C1492 C 0.20049 0.49156 0.34624 0.0
C1493 C 0.18367 0.51113 0.34269 0.0
C1494 C 0.21873 0.48737 0.32477 0.0
C1495 C 0.22024 0.50267 0.29959 0.0
C1496 C 0.20252 0.52125 0.29527 0.0
C1497 C 0.18454 0.52559 0.31675 0.0
C1498 C 0.2409 0.50034 0.27834 0.0
C1499 C 0.24413 0.47808 0.26277 0.0
C1500 C 0.25623 0.52079 0.27186 0.0
C1501 C 0.25471 0.54435 0.28877 0.0
C1502 C 0.25019 0.56671 0.27373 0.0
C1503 C 0.24891 0.58894 0.28955 0.0
C1504 C 0.25232 0.58909 0.3204 0.0
C1505 C 0.25702 0.567 0.33551 0.0
C1506 C 0.25814 0.54467 0.31984 0.0
C1507 C 0.29736 0.49653 0.15182 0.0
C1508 C 0.32008 0.50878 0.15448 0.0
C1509 C 0.28336 0.49147 0.17727 0.0
C1510 C 0.29233 0.49792 0.20566 0.0
C1511 C 0.31593 0.5085 0.20819 0.0
C1512 C 0.32952 0.51423 0.18279 0.0
C1513 C 0.27591 0.49713 0.23208 0.0
C1514 C 0.27329 0.519 0.24864 0.0
C1515 C 0.26161 0.47614 0.23973 0.0
C1516 C 0.26459 0.45208 0.2242 0.0
C1517 C 0.28804 0.44111 0.22152 0.0
C1518 C 0.29076 0.41856 0.20665 0.0
C1519 C 0.27015 0.40672 0.19449 0.0
C1520 C 0.24675 0.41739 0.19723 0.0
C1521 C 0.24392 0.43994 0.21207 0.0
H1522 H 0.2723 0.38927 0.18298 0.0
H1523 H 0.25139 0.60632 0.3326 0.0
H1524 H 0.96211 0.33763 0.19094 0.0
H1525 H 0.97172 0.30892 0.23159 0.0
H1526 H 0.01965 0.26768 0.17316 0.0
H1527 H 0.0108 0.29686 0.13259 0.0
H1528 H 0.973 0.24371 0.20726 0.0
H1529 H 0.05056 0.28731 0.21699 0.0
H1530 H 0.07621 0.32477 0.22194 0.0
H1531 H 0.0389 0.34344 0.30331 0.0
H1532 H 0.01274 0.30628 0.29859 0.0
H1533 H 0.99099 0.15632 0.32033 0.0
H1534 H 0.00121 0.1834 0.27828 0.0
H1535 H 0.98974 0.24733 0.33434 0.0
H1536 H 0.98136 0.22008 0.37679 0.0
H1537 H 0.0239 0.25798 0.29761 0.0
H1538 H 0.94347 0.2211 0.28724 0.0
H1539 H 0.9132 0.18715 0.28354 0.0
H1540 H 0.94972 0.15986 0.20523 0.0
H1541 H 0.98045 0.19346 0.20874 0.0
C1542 C 0.97502 0.32268 0.18694 0.0
C1543 C 0.98574 0.31938 0.15875 0.0
C1544 C 0.98055 0.30643 0.21013 0.0
C1545 C 0.99649 0.28643 0.20525 0.0
C1546 C 0.00752 0.28324 0.17727 0.0
C1547 C 0.00245 0.29986 0.15423 0.0
C1548 C -0.00063 0.26756 0.22863 0.0
C1549 C 0.98457 0.24642 0.22675 0.0
C1550 C 0.01378 0.27182 0.25432 0.0
C1551 C 0.02952 0.29414 0.25726 0.0
C1552 C 0.04764 0.29954 0.23577 0.0
C1553 C 0.06232 0.32069 0.23857 0.0
C1554 C 0.05914 0.33651 0.26288 0.0
C1555 C 0.04132 0.33118 0.28447 0.0
C1556 C 0.02659 0.31006 0.28176 0.0
C1557 C 0.99126 0.17617 0.32362 0.0
C1558 C 0.98542 0.18634 0.35142 0.0
C1559 C 0.99689 0.19161 0.29965 0.0
C1560 C 0.9956 0.21744 0.3029 0.0
C1561 C 0.99083 0.2275 0.33121 0.0
C1562 C 0.98596 0.212 0.3554 0.0
C1563 C 0.99728 0.23395 0.27655 0.0
C1564 C 0.01273 0.25482 0.2779 0.0
C1565 C 0.98288 0.22982 0.2506 0.0
C1566 C 0.96444 0.20959 0.24848 0.0
C1567 C 0.94516 0.20774 0.26937 0.0
C1568 C 0.9279 0.18858 0.2673 0.0
C1569 C 0.92958 0.17131 0.24423 0.0
C1570 C 0.94848 0.17321 0.22314 0.0
C1571 C 0.96583 0.1923 0.22516 0.0
H1572 H 0.9162 0.15649 0.24265 0.0
H1573 H 0.07053 0.35287 0.26501 0.0
H1574 H 0.2984 0.01683 0.36953 0.0
H1575 H 0.26817 0.02628 0.33023 0.0
H1576 H 0.29261 0.96246 0.28075 0.0
H1577 H 0.32251 0.95286 0.31963 0.0
H1578 H 0.27109 0.03378 0.26615 0.0
H1579 H 0.24511 0.9303 0.26454 0.0
H1580 H 0.24033 0.89549 0.29975 0.0
H1581 H 0.22456 0.94662 0.3705 0.0
H1582 H 0.22979 0.98156 0.33591 0.0
H1583 H 0.21274 0.99928 0.13047 0.0
H1584 H 0.23733 0.00901 0.17479 0.0
H1585 H 0.17559 0.9887 0.23078 0.0
H1586 H 0.15194 0.97716 0.18655 0.0
H1587 H 0.21131 0.96569 0.24896 0.0
H1588 H 0.20124 0.05045 0.2257 0.0
H1589 H 0.20094 0.08827 0.19504 0.0
H1590 H 0.27905 0.08139 0.1806 0.0
H1591 H 0.27979 0.04331 0.21083 0.0
C1592 C 0.29748 0.00503 0.35007 0.0
C1593 C 0.31258 0.98395 0.34776 0.0
C1594 C 0.28032 0.01052 0.32765 0.0
C1595 C 0.2781 0.99492 0.30283 0.0
C1596 C 0.29395 0.97457 0.29992 0.0
C1597 C 0.31098 0.96909 0.32219 0.0
C1598 C 0.25802 0.99826 0.28091 0.0
C1599 C 0.25779 0.01912 0.26234 0.0
C1600 C 0.24028 0.97949 0.27677 0.0
C1601 C 0.23797 0.95847 0.29773 0.0
C1602 C 0.24074 0.93404 0.28767 0.0
C1603 C 0.23807 0.91429 0.30754 0.0
C1604 C 0.23232 0.91881 0.33741 0.0
C1605 C 0.22933 0.94308 0.34749 0.0
C1606 C 0.23229 0.96286 0.32781 0.0
C1607 C 0.20442 0.9974 0.15232 0.0
C1608 C 0.1807 0.98734 0.15543 0.0
C1609 C 0.21835 0.00317 0.17763 0.0
C1610 C 0.20834 -0.0003 0.20628 0.0
C1611 C 0.18385 0.99133 0.20901 0.0
C1612 C 0.17032 0.98477 0.18382 0.0
C1613 C 0.2243 0.00115 0.23315 0.0
C1614 C 0.22404 0.98087 0.2527 0.0
C1615 C 0.24083 0.021 0.23865 0.0
C1616 C 0.24052 0.0439 0.2204 0.0
C1617 C 0.21833 0.05688 0.2158 0.0
C1618 C 0.21809 0.0784 0.19853 0.0
C1619 C 0.23995 0.0872 0.18583 0.0
C1620 C 0.26212 0.07454 0.19044 0.0
C1621 C 0.26247 0.053 0.20769 0.0
H1622 H 0.23972 0.10386 0.17247 0.0
H1623 H 0.23007 0.9035 0.35271 0.0
H1624 H 0.49238 0.78196 0.87109 0.0
H1625 H 0.50069 0.75631 0.82727 0.0
H1626 H 0.49421 0.82084 0.77092 0.0
H1627 H 0.4839 0.84586 0.81455 0.0
H1628 H 0.46793 0.78887 0.74907 0.0
H1629 H 0.55116 0.78597 0.78311 0.0
H1630 H 0.58524 0.78012 0.8189 0.0
H1631 H 0.56471 0.70398 0.83004 0.0
H1632 H 0.53031 0.70944 0.79462 0.0
H1633 H 0.51799 0.69313 0.63564 0.0
H1634 H 0.52697 0.72359 0.67484 0.0
H1635 H 0.45581 0.7093 0.7145 0.0
H1636 H 0.4467 0.67915 0.67574 0.0
H1637 H 0.52791 0.72009 0.73845 0.0
H1638 H 0.42962 0.75777 0.72827 0.0
H1639 H 0.39857 0.76787 0.68977 0.0
H1640 H 0.45652 0.78263 0.6269 0.0
H1641 H 0.4878 0.77157 0.66464 0.0
C1642 C 0.4932 0.79057 0.84931 0.0
C1643 C 0.48747 0.81566 0.84584 0.0
C1644 C 0.49817 0.77601 0.8243 0.0
C1645 C 0.49833 0.78662 0.79566 0.0
C1646 C 0.49405 0.81215 0.79268 0.0
C1647 C 0.48822 0.82645 0.81751 0.0
C1648 C 0.49964 0.7708 0.76866 0.0
C1649 C 0.48139 0.77413 0.74678 0.0
C1650 C 0.51726 0.75161 0.76513 0.0
C1651 C 0.53806 0.74817 0.7863 0.0
C1652 C 0.55382 0.76801 0.79331 0.0
C1653 C 0.57322 0.76476 0.81352 0.0
C1654 C 0.57712 0.7417 0.82676 0.0
C1655 C 0.56167 0.72183 0.81976 0.0
C1656 C 0.54225 0.72498 0.79957 0.0
C1657 C 0.50438 0.69639 0.65288 0.0
C1658 C 0.48157 0.68393 0.65254 0.0
C1659 C 0.50955 0.71372 0.6752 0.0
C1660 C 0.4919 0.71885 0.69722 0.0
C1661 C 0.46951 0.70582 0.6974 0.0
C1662 C 0.46436 0.68856 0.67526 0.0
C1663 C 0.4961 0.73825 0.71979 0.0
C1664 C 0.51507 0.73536 0.74079 0.0
C1665 C 0.47972 0.7584 0.72223 0.0
C1666 C 0.46095 0.76372 0.69913 0.0
C1667 C 0.43566 0.76292 0.70611 0.0
C1668 C 0.41805 0.76864 0.68438 0.0
C1669 C 0.42556 0.77559 0.65577 0.0
C1670 C 0.45071 0.77673 0.64884 0.0
C1671 C 0.46837 0.77055 0.6703 0.0
H1672 H 0.41193 0.78025 0.63905 0.0
H1673 H 0.59213 0.73922 0.84242 0.0
H1674 H 0.83935 0.47278 0.68773 0.0
H1675 H 0.80983 0.47947 0.72805 0.0
H1676 H 0.76233 0.5198 0.66798 0.0
H1677 H 0.79252 0.51406 0.62775 0.0
H1678 H 0.7592 0.53819 0.72437 0.0
H1679 H 0.75242 0.4583 0.67739 0.0
H1680 H 0.76747 0.41816 0.65856 0.0
H1681 H 0.79327 0.39903 0.74601 0.0
H1682 H 0.77824 0.43898 0.76544 0.0
H1683 H 0.66072 0.45906 0.81284 0.0
H1684 H 0.6862 0.4686 0.76955 0.0
H1685 H 0.7283 0.52061 0.82205 0.0
H1686 H 0.70197 0.51183 0.86524 0.0
H1687 H 0.73171 0.45778 0.76608 0.0
H1688 H 0.75806 0.56176 0.7758 0.0
H1689 H 0.73897 0.60114 0.79121 0.0
H1690 H 0.66698 0.57185 0.77193 0.0
H1691 H 0.68565 0.53243 0.75602 0.0
C1692 C 0.82288 0.48357 0.68335 0.0
C1693 C 0.81795 0.49267 0.65471 0.0
C1694 C 0.80605 0.48736 0.70632 0.0
C1695 C 0.78366 0.49959 0.70074 0.0
C1696 C 0.77948 0.51023 0.67266 0.0
C1697 C 0.79666 0.5069 0.64974 0.0
C1698 C 0.76368 0.49863 0.72313 0.0
C1699 C 0.75309 0.52067 0.73357 0.0
C1700 C 0.75532 0.4757 0.73445 0.0
C1701 C 0.76439 0.45168 0.72281 0.0
C1702 C 0.76142 0.44558 0.69256 0.0
C1703 C 0.76992 0.42287 0.68178 0.0
C1704 C 0.78146 0.40615 0.70101 0.0
C1705 C 0.78437 0.41202 0.73112 0.0
C1706 C 0.77579 0.43465 0.74206 0.0
C1707 C 0.67514 0.47285 0.81498 0.0
C1708 C 0.67962 0.48456 0.84231 0.0
C1709 C 0.68964 0.47832 0.79025 0.0
C1710 C 0.7092 0.49526 0.79256 0.0
C1711 C 0.71309 0.50775 0.81961 0.0
C1712 C 0.69818 0.50262 0.84429 0.0
C1713 C 0.72714 0.49738 0.7678 0.0
C1714 C 0.73754 0.47542 0.75693 0.0
C1715 C 0.73468 0.52034 0.75566 0.0
C1716 C 0.72327 0.54404 0.76501 0.0
C1717 C 0.73817 0.56375 0.77475 0.0
C1718 C 0.72741 0.58608 0.78359 0.0
C1719 C 0.70177 0.58897 0.78265 0.0
C1720 C 0.68683 0.56955 0.77278 0.0
C1721 C 0.69749 0.54719 0.7639 0.0
H1722 H 0.69348 0.60627 0.7895 0.0
H1723 H 0.78806 0.3886 0.69259 0.0
H1724 H 0.0094 0.77928 0.62183 0.0
H1725 H 0.00086 0.75213 0.6642 0.0
H1726 H 0.99493 0.81601 0.72168 0.0
H1727 H 0.00547 0.84282 0.67958 0.0
H1728 H 0.02159 0.78672 0.74765 0.0
H1729 H 0.94378 0.77538 0.70248 0.0
H1730 H 0.91314 0.76732 0.66301 0.0
H1731 H 0.94222 0.69413 0.65114 0.0
H1732 H 0.97329 0.70185 0.69026 0.0
H1733 H 0.98665 0.70469 0.86733 0.0
H1734 H 0.97637 0.73195 0.82534 0.0
H1735 H 0.02617 0.69106 0.76888 0.0
H1736 H 0.03716 0.6643 0.81089 0.0
H1737 H 0.97054 0.7105 0.74665 0.0
H1738 H 0.05461 0.73186 0.78826 0.0
H1739 H 0.07988 0.74178 0.83252 0.0
H1740 H 0.02949 0.79997 0.85573 0.0
H1741 H 0.00386 0.79017 0.81193 0.0
C1742 C 0.00579 0.78738 0.64348 0.0
C1743 C 0.00794 0.81293 0.64776 0.0
C1744 C 0.00071 0.77194 0.66766 0.0
C1745 C 0.9969 0.78195 0.69625 0.0
C1746 C 0.99788 0.80776 0.69997 0.0
C1747 C 0.00375 0.82308 0.67599 0.0
C1748 C 0.99475 0.76549 0.72267 0.0
C1749 C 0.00995 0.7704 0.74739 0.0
C1750 C 0.9796 0.74406 0.72283 0.0
C1751 C 0.96101 0.73928 0.69919 0.0
C1752 C 0.94378 0.75763 0.6913 0.0
C1753 C 0.9263 0.75311 0.66902 0.0
C1754 C 0.92576 0.73025 0.65454 0.0
C1755 C 0.94267 0.71184 0.66237 0.0
C1756 C 0.9602 0.71627 0.68463 0.0
C1757 C 0.99506 0.70129 0.84582 0.0
C1758 C 0.01281 0.68259 0.84227 0.0
C1759 C 0.98909 0.71675 0.82193 0.0
C1760 C 0.0004 0.71325 0.79416 0.0
C1761 C 0.01711 0.69376 0.79017 0.0
C1762 C 0.02351 0.67869 0.81417 0.0
C1763 C 0.9976 0.73183 0.77046 0.0
C1764 C 0.98165 0.72719 0.74654 0.0
C1765 C 0.01135 0.75392 0.77131 0.0
C1766 C 0.02728 0.7602 0.79703 0.0
C1767 C 0.04891 0.74669 0.80294 0.0
C1768 C 0.06331 0.7523 0.82793 0.0
C1769 C 0.05632 0.77151 0.84698 0.0
C1770 C 0.03495 0.78514 0.84103 0.0
C1771 C 0.02049 0.77958 0.81612 0.0
H1772 H 0.06747 0.77589 0.86629 0.0
H1773 H 0.91222 0.72678 0.6373 0.0
H1774 H 0.66681 0.03873 0.68611 0.0
H1775 H 0.69824 0.03127 0.72399 0.0
H1776 H 0.73533 0.98026 0.66518 0.0
H1777 H 0.70336 0.9872 0.62723 0.0
H1778 H 0.73865 0.96588 0.72485 0.0
H1779 H 0.75676 0.03641 0.66556 0.0
H1780 H 0.74788 0.0754 0.63932 0.0
H1781 H 0.72922 0.11014 0.72236 0.0
H1782 H 0.73801 0.07124 0.74914 0.0
H1783 H 0.84609 0.03959 0.80752 0.0
H1784 H 0.82144 0.02959 0.76358 0.0
H1785 H 0.77235 0.98584 0.81827 0.0
H1786 H 0.79819 0.99447 0.86183 0.0
H1787 H 0.7794 0.04445 0.75398 0.0
H1788 H 0.73724 0.94683 0.77785 0.0
H1789 H 0.75046 0.90669 0.79852 0.0
H1790 H 0.82594 0.92359 0.7773 0.0
H1791 H 0.81317 0.96367 0.75614 0.0
C1792 C 0.6814 0.02558 0.68143 0.0
C1793 C 0.68291 0.01379 0.65366 0.0
C1794 C 0.6993 0.02131 0.70308 0.0
C1795 C 0.7193 0.00557 0.69711 0.0
C1796 C 0.72003 0.9925 0.67013 0.0
C1797 C 0.70185 0.99655 0.64849 0.0
C1798 C 0.74054 0.00519 0.71778 0.0
C1799 C 0.74775 0.98294 0.73127 0.0
C1800 C 0.75295 0.02734 0.72514 0.0
C1801 C 0.74788 0.05089 0.7093 0.0
C1802 C 0.75065 0.05234 0.6782 0.0
C1803 C 0.74564 0.07443 0.66323 0.0
C1804 C 0.73786 0.09523 0.67912 0.0
C1805 C 0.73522 0.09401 0.71007 0.0
C1806 C 0.74029 0.07196 0.72518 0.0
C1807 C 0.83036 0.02736 0.80989 0.0
C1808 C 0.82387 0.01783 0.83784 0.0
C1809 C 0.81626 0.02166 0.78485 0.0
C1810 C 0.79496 0.00696 0.78748 0.0
C1811 C 0.78896 0.99675 0.81539 0.0
C1812 C 0.80358 0.00183 0.84034 0.0
C1813 C 0.77752 0.0051 0.76203 0.0
C1814 C 0.77081 0.02713 0.74756 0.0
C1815 C 0.76641 0.98254 0.7531 0.0
C1816 C 0.77424 0.95837 0.76563 0.0
C1817 C 0.75665 0.94194 0.77747 0.0
C1818 C 0.76407 0.91921 0.7893 0.0
C1819 C 0.78903 0.91263 0.7893 0.0
C1820 C 0.80662 0.92875 0.7774 0.0
C1821 C 0.79931 0.9515 0.76552 0.0
H1822 H 0.79473 0.89502 0.79847 0.0
H1823 H 0.73393 0.1123 0.66746 0.0
loop_
_geom_bond_atom_site_label_1
_geom_bond_atom_site_label_2
_geom_bond_distance
_geom_bond_site_symmetry_2
_ccdc_geom_bond_type
Co0 O1 2.216 . S
Co0 O2 2.091 . S
Co0 O4 2.004 . S
Co0 O10 2.021 . S
Co0 O12 2.137 . S
Co0 O13 2.244 . S
O1 Co0 2.216 . S
O1 C8 1.247 . S
O2 Co0 2.091 . S
O2 C8 1.261 . S
C3 O12 1.247 . S
C3 O13 1.272 . S
O4 Co0 2.004 . S
O4 C9 1.259 . S
Co5 O6 2.061 . S
Co5 O11 2.052 . S
Co5 O13 2.135 . S
O6 Co5 2.061 . S
O6 C9 1.235 . S
C7 O10 1.238 . S
C7 O11 1.241 . S
C8 O1 1.247 . S
C8 O2 1.261 . S
C9 O4 1.259 . S
C9 O6 1.235 . S
O10 Co0 2.021 . S
O10 C7 1.238 . S
O11 Co5 2.052 . S
O11 C7 1.241 . S
O12 Co0 2.137 . S
O12 C3 1.247 . S
O13 Co0 2.244 . S
O13 C3 1.272 . S
O13 Co5 2.135 . S
Co14 O15 2.216 . S
Co14 O16 2.091 . S
Co14 O18 2.004 . S
Co14 O24 2.021 . S
Co14 O26 2.137 . S
Co14 O27 2.244 . S
O15 Co14 2.216 . S
O15 C22 1.247 . S
O16 Co14 2.091 . S
O16 C22 1.261 . S
C17 O26 1.247 . S
C17 O27 1.272 . S
O18 Co14 2.004 . S
O18 C23 1.259 . S
Co19 O20 2.061 . S
Co19 O25 2.052 . S
Co19 O27 2.135 . S
O20 Co19 2.061 . S
O20 C23 1.235 . S
C21 O24 1.238 . S
C21 O25 1.241 . S
C22 O15 1.247 . S
C22 O16 1.261 . S
C23 O18 1.259 . S
C23 O20 1.235 . S
O24 Co14 2.021 . S
O24 C21 1.238 . S
O25 Co19 2.052 . S
O25 C21 1.241 . S
O26 Co14 2.137 . S
O26 C17 1.247 . S
O27 Co14 2.244 . S
O27 C17 1.272 . S
O27 Co19 2.135 . S
Co28 O29 2.216 . S
Co28 O30 2.091 . S
Co28 O32 2.004 . S
Co28 O38 2.021 . S
Co28 O40 2.137 . S
Co28 O41 2.244 . S
O29 Co28 2.216 . S
O29 C36 1.247 . S
O30 Co28 2.091 . S
O30 C36 1.261 . S
C31 O40 1.247 . S
C31 O41 1.272 . S
O32 Co28 2.004 . S
O32 C37 1.259 . S
Co33 O34 2.061 . S
Co33 O39 2.052 . S
Co33 O41 2.135 . S
O34 Co33 2.061 . S
O34 C37 1.235 . S
C35 O38 1.238 . S
C35 O39 1.241 . S
C36 O29 1.247 . S
C36 O30 1.261 . S
C37 O32 1.259 . S
C37 O34 1.235 . S
O38 Co28 2.021 . S
O38 C35 1.238 . S
O39 Co33 2.052 . S
O39 C35 1.241 . S
O40 Co28 2.137 . S
O40 C31 1.247 . S
O41 Co28 2.244 . S
O41 C31 1.272 . S
O41 Co33 2.135 . S
Co42 O43 2.216 . S
Co42 O44 2.091 . S
Co42 O46 2.004 . S
Co42 O52 2.021 . S
Co42 O54 2.137 . S
Co42 O55 2.244 . S
O43 Co42 2.216 . S
O43 C50 1.247 . S
O44 Co42 2.091 . S
O44 C50 1.261 . S
C45 O54 1.247 . S
C45 O55 1.272 . S
O46 Co42 2.004 . S
O46 C51 1.259 . S
Co47 O48 2.061 . S
Co47 O53 2.052 . S
Co47 O55 2.135 . S
O48 Co47 2.061 . S
O48 C51 1.235 . S
C49 O52 1.238 . S
C49 O53 1.241 . S
C50 O43 1.247 . S
C50 O44 1.261 . S
C51 O46 1.259 . S
C51 O48 1.235 . S
O52 Co42 2.021 . S
O52 C49 1.238 . S
O53 Co47 2.052 . S
O53 C49 1.241 . S
O54 Co42 2.137 . S
O54 C45 1.247 . S
O55 Co42 2.244 . S
O55 C45 1.272 . S
O55 Co47 2.135 . S
Co56 O57 2.216 . S
Co56 O58 2.091 . S
Co56 O60 2.004 . S
Co56 O66 2.021 . S
Co56 O68 2.137 . S
Co56 O69 2.244 . S
O57 Co56 2.216 . S
O57 C64 1.247 . S
O58 Co56 2.091 . S
O58 C64 1.261 . S
C59 O68 1.247 . S
C59 O69 1.272 . S
O60 Co56 2.004 . S
O60 C65 1.259 . S
Co61 O62 2.061 . S
Co61 O67 2.052 . S
Co61 O69 2.135 . S
O62 Co61 2.061 . S
O62 C65 1.235 . S
C63 O66 1.238 . S
C63 O67 1.241 . S
C64 O57 1.247 . S
C64 O58 1.261 . S
C65 O60 1.259 . S
C65 O62 1.235 . S
O66 Co56 2.021 . S
O66 C63 1.238 . S
O67 Co61 2.052 . S
O67 C63 1.241 . S
O68 Co56 2.137 . S
O68 C59 1.247 . S
O69 Co56 2.244 . S
O69 C59 1.272 . S
O69 Co61 2.135 . S
Co70 O71 2.216 . S
Co70 O72 2.091 . S
Co70 O74 2.004 . S
Co70 O80 2.021 . S
Co70 O82 2.137 . S
Co70 O83 2.244 . S
O71 Co70 2.216 . S
O71 C78 1.247 . S
O72 Co70 2.091 . S
O72 C78 1.261 . S
C73 O82 1.247 . S
C73 O83 1.272 . S
O74 Co70 2.004 . S
O74 C79 1.259 . S
Co75 O76 2.061 . S
Co75 O81 2.052 . S
Co75 O83 2.135 . S
O76 Co75 2.061 . S
O76 C79 1.235 . S
C77 O80 1.238 . S
C77 O81 1.241 . S
C78 O71 1.247 . S
C78 O72 1.261 . S
C79 O74 1.259 . S
C79 O76 1.235 . S
O80 Co70 2.021 . S
O80 C77 1.238 . S
O81 Co75 2.052 . S
O81 C77 1.241 . S
O82 Co70 2.137 . S
O82 C73 1.247 . S
O83 Co70 2.244 . S
O83 C73 1.272 . S
O83 Co75 2.135 . S
Co84 O85 2.216 . S
Co84 O86 2.091 . S
Co84 O88 2.004 . S
Co84 O94 2.021 . S
Co84 O96 2.137 . S
Co84 O97 2.244 . S
O85 Co84 2.216 . S
O85 C92 1.247 . S
O86 Co84 2.091 . S
O86 C92 1.261 . S
C87 O96 1.247 . S
C87 O97 1.272 . S
O88 Co84 2.004 . S
O88 C93 1.259 . S
Co89 O90 2.061 . S
Co89 O95 2.052 . S
Co89 O97 2.135 . S
O90 Co89 2.061 . S
O90 C93 1.235 . S
C91 O94 1.238 . S
C91 O95 1.241 . S
C92 O85 1.247 . S
C92 O86 1.261 . S
C93 O88 1.259 . S
C93 O90 1.235 . S
O94 Co84 2.021 . S
O94 C91 1.238 . S
O95 Co89 2.052 . S
O95 C91 1.241 . S
O96 Co84 2.137 . S
O96 C87 1.247 . S
O97 Co84 2.244 . S
O97 C87 1.272 . S
O97 Co89 2.135 . S
Co98 O99 2.216 . S
Co98 O100 2.091 . S
Co98 O102 2.004 . S
Co98 O108 2.021 . S
Co98 O110 2.137 . S
Co98 O111 2.244 . S
O99 Co98 2.216 . S
O99 C106 1.247 . S
O100 Co98 2.091 . S
O100 C106 1.261 . S
C101 O110 1.247 . S
C101 O111 1.272 . S
O102 Co98 2.004 . S
O102 C107 1.259 . S
Co103 O104 2.061 . S
Co103 O109 2.052 . S
Co103 O111 2.135 . S
O104 Co103 2.061 . S
O104 C107 1.235 . S
C105 O108 1.238 . S
C105 O109 1.241 . S
C106 O99 1.247 . S
C106 O100 1.261 . S
C107 O102 1.259 . S
C107 O104 1.235 . S
O108 Co98 2.021 . S
O108 C105 1.238 . S
O109 Co103 2.052 . S
O109 C105 1.241 . S
O110 Co98 2.137 . S
O110 C101 1.247 . S
O111 Co98 2.244 . S
O111 C101 1.272 . S
O111 Co103 2.135 . S
Co112 O113 2.216 . S
Co112 O114 2.091 . S
Co112 O116 2.004 . S
Co112 O122 2.021 . S
Co112 O124 2.137 . S
Co112 O125 2.244 . S
O113 Co112 2.216 . S
O113 C120 1.247 . S
O114 Co112 2.091 . S
O114 C120 1.261 . S
C115 O124 1.247 . S
C115 O125 1.272 . S
O116 Co112 2.004 . S
O116 C121 1.259 . S
Co117 O118 2.061 . S
Co117 O123 2.052 . S
Co117 O125 2.135 . S
O118 Co117 2.061 . S
O118 C121 1.235 . S
C119 O122 1.238 . S
C119 O123 1.241 . S
C120 O113 1.247 . S
C120 O114 1.261 . S
C121 O116 1.259 . S
C121 O118 1.235 . S
O122 Co112 2.021 . S
O122 C119 1.238 . S
O123 Co117 2.052 . S
O123 C119 1.241 . S
O124 Co112 2.137 . S
O124 C115 1.247 . S
O125 Co112 2.244 . S
O125 C115 1.272 . S
O125 Co117 2.135 . S
Co126 O127 2.216 . S
Co126 O128 2.091 . S
Co126 O130 2.004 . S
Co126 O136 2.021 . S
Co126 O138 2.137 . S
Co126 O139 2.244 . S
O127 Co126 2.216 . S
O127 C134 1.247 . S
O128 Co126 2.091 . S
O128 C134 1.261 . S
C129 O138 1.247 . S
C129 O139 1.272 . S
O130 Co126 2.004 . S
O130 C135 1.259 . S
Co131 O132 2.061 . S
Co131 O137 2.052 . S
Co131 O139 2.135 . S
O132 Co131 2.061 . S
O132 C135 1.235 . S
C133 O136 1.238 . S
C133 O137 1.241 . S
C134 O127 1.247 . S
C134 O128 1.261 . S
C135 O130 1.259 . S
C135 O132 1.235 . S
O136 Co126 2.021 . S
O136 C133 1.238 . S
O137 Co131 2.052 . S
O137 C133 1.241 . S
O138 Co126 2.137 . S
O138 C129 1.247 . S
O139 Co126 2.244 . S
O139 C129 1.272 . S
O139 Co131 2.135 . S
Co140 O141 2.216 . S
Co140 O142 2.091 . S
Co140 O144 2.004 . S
Co140 O150 2.021 . S
Co140 O152 2.137 . S
Co140 O153 2.244 . S
O141 Co140 2.216 . S
O141 C148 1.247 . S
O142 Co140 2.091 . S
O142 C148 1.261 . S
C143 O152 1.247 . S
C143 O153 1.272 . S
O144 Co140 2.004 . S
O144 C149 1.259 . S
Co145 O146 2.061 . S
Co145 O151 2.052 . S
Co145 O153 2.135 . S
O146 Co145 2.061 . S
O146 C149 1.235 . S
C147 O150 1.238 . S
C147 O151 1.241 . S
C148 O141 1.247 . S
C148 O142 1.261 . S
C149 O144 1.259 . S
C149 O146 1.235 . S
O150 Co140 2.021 . S
O150 C147 1.238 . S
O151 Co145 2.052 . S
O151 C147 1.241 . S
O152 Co140 2.137 . S
O152 C143 1.247 . S
O153 Co140 2.244 . S
O153 C143 1.272 . S
O153 Co145 2.135 . S
Co154 O155 2.216 . S
Co154 O156 2.091 . S
Co154 O158 2.004 . S
Co154 O164 2.021 . S
Co154 O166 2.137 . S
Co154 O167 2.244 . S
O155 Co154 2.216 . S
O155 C162 1.247 . S
O156 Co154 2.091 . S
O156 C162 1.261 . S
C157 O166 1.247 . S
C157 O167 1.272 . S
O158 Co154 2.004 . S
O158 C163 1.259 . S
Co159 O160 2.061 . S
Co159 O165 2.052 . S
Co159 O167 2.135 . S
O160 Co159 2.061 . S
O160 C163 1.235 . S
C161 O164 1.238 . S
C161 O165 1.241 . S
C162 O155 1.247 . S
C162 O156 1.261 . S
C163 O158 1.259 . S
C163 O160 1.235 . S
O164 Co154 2.021 . S
O164 C161 1.238 . S
O165 Co159 2.052 . S
O165 C161 1.241 . S
O166 Co154 2.137 . S
O166 C157 1.247 . S
O167 Co154 2.244 . S
O167 C157 1.272 . S
O167 Co159 2.135 . S
Co168 O169 2.216 . S
Co168 O170 2.091 . S
Co168 O172 2.004 . S
Co168 O178 2.021 . S
Co168 O180 2.137 . S
Co168 O181 2.244 . S
O169 Co168 2.216 . S
O169 C176 1.247 . S
O170 Co168 2.091 . S
O170 C176 1.261 . S
C171 O180 1.247 . S
C171 O181 1.272 . S
O172 Co168 2.004 . S
O172 C177 1.259 . S
Co173 O174 2.061 . S
Co173 O179 2.052 . S
Co173 O181 2.135 . S
O174 Co173 2.061 . S
O174 C177 1.235 . S
C175 O178 1.238 . S
C175 O179 1.241 . S
C176 O169 1.247 . S
C176 O170 1.261 . S
C177 O172 1.259 . S
C177 O174 1.235 . S
O178 Co168 2.021 . S
O178 C175 1.238 . S
O179 Co173 2.052 . S
O179 C175 1.241 . S
O180 Co168 2.137 . S
O180 C171 1.247 . S
O181 Co168 2.244 . S
O181 C171 1.272 . S
O181 Co173 2.135 . S
Co182 O183 2.216 . S
Co182 O184 2.091 . S
Co182 O186 2.004 . S
Co182 O192 2.021 . S
Co182 O194 2.137 . S
Co182 O195 2.244 . S
O183 Co182 2.216 . S
O183 C190 1.247 . S
O184 Co182 2.091 . S
O184 C190 1.261 . S
C185 O194 1.247 . S
C185 O195 1.272 . S
O186 Co182 2.004 . S
O186 C191 1.259 . S
Co187 O188 2.061 . S
Co187 O193 2.052 . S
Co187 O195 2.135 . S
O188 Co187 2.061 . S
O188 C191 1.235 . S
C189 O192 1.238 . S
C189 O193 1.241 . S
C190 O183 1.247 . S
C190 O184 1.261 . S
C191 O186 1.259 . S
C191 O188 1.235 . S
O192 Co182 2.021 . S
O192 C189 1.238 . S
O193 Co187 2.052 . S
O193 C189 1.241 . S
O194 Co182 2.137 . S
O194 C185 1.247 . S
O195 Co182 2.244 . S
O195 C185 1.272 . S
O195 Co187 2.135 . S
Co196 O197 2.216 . S
Co196 O198 2.091 . S
Co196 O200 2.004 . S
Co196 O206 2.021 . S
Co196 O208 2.137 . S
Co196 O209 2.244 . S
O197 Co196 2.216 . S
O197 C204 1.247 . S
O198 Co196 2.091 . S
O198 C204 1.261 . S
C199 O208 1.247 . S
C199 O209 1.272 . S
O200 Co196 2.004 . S
O200 C205 1.259 . S
Co201 O202 2.061 . S
Co201 O207 2.052 . S
Co201 O209 2.135 . S
O202 Co201 2.061 . S
O202 C205 1.235 . S
C203 O206 1.238 . S
C203 O207 1.241 . S
C204 O197 1.247 . S
C204 O198 1.261 . S
C205 O200 1.259 . S
C205 O202 1.235 . S
O206 Co196 2.021 . S
O206 C203 1.238 . S
O207 Co201 2.052 . S
O207 C203 1.241 . S
O208 Co196 2.137 . S
O208 C199 1.247 . S
O209 Co196 2.244 . S
O209 C199 1.272 . S
O209 Co201 2.135 . S
Co210 O211 2.216 . S
Co210 O212 2.091 . S
Co210 O214 2.004 . S
Co210 O220 2.021 . S
Co210 O222 2.137 . S
Co210 O223 2.244 . S
O211 Co210 2.216 . S
O211 C218 1.247 . S
O212 Co210 2.091 . S
O212 C218 1.261 . S
C213 O222 1.247 . S
C213 O223 1.272 . S
O214 Co210 2.004 . S
O214 C219 1.259 . S
Co215 O216 2.061 . S
Co215 O221 2.052 . S
Co215 O223 2.135 . S
O216 Co215 2.061 . S
O216 C219 1.235 . S
C217 O220 1.238 . S
C217 O221 1.241 . S
C218 O211 1.247 . S
C218 O212 1.261 . S
C219 O214 1.259 . S
C219 O216 1.235 . S
O220 Co210 2.021 . S
O220 C217 1.238 . S
O221 Co215 2.052 . S
O221 C217 1.241 . S
O222 Co210 2.137 . S
O222 C213 1.247 . S
O223 Co210 2.244 . S
O223 C213 1.272 . S
O223 Co215 2.135 . S
H224 C242 0.951 . S
H225 C244 0.951 . S
H226 C246 0.950 1_556 S
H227 C247 0.950 . S
H228 C249 0.950 . S
H229 C252 0.950 . S
H230 C253 0.950 . S
H231 C255 0.950 . S
H232 C256 0.950 . S
H233 C257 0.951 . S
H234 C259 0.951 . S
H235 C261 0.950 . S
H236 C262 0.950 . S
H237 C264 0.950 . S
H238 C267 0.950 . S
H239 C268 0.950 . S
H240 C270 0.950 . S
H241 C271 0.950 . S
C242 H224 0.951 . S
C242 C243 1.366 . S
C242 C244 1.388 . S
C243 C242 1.366 . S
C243 C247 1.385 . S
C244 H225 0.951 . S
C244 C242 1.388 . S
C244 C245 1.366 . S
C245 C244 1.366 . S
C245 C246 1.414 . S
C245 C248 1.499 . S
C246 H226 0.950 1_554 S
C246 C245 1.414 . S
C246 C247 1.374 . S
C247 H227 0.950 . S
C247 C243 1.385 . S
C247 C246 1.374 . S
C248 C245 1.499 . S
C248 C249 1.373 1_554 S
C248 C250 1.389 . S
C249 H228 0.950 . S
C249 C248 1.373 1_556 S
C249 C265 1.377 . S
C250 C248 1.389 . S
C250 C251 1.524 . S
C250 C264 1.377 . S
C251 C250 1.524 . S
C251 C252 1.397 . S
C251 C256 1.363 . S
C252 H229 0.950 . S
C252 C251 1.397 . S
C252 C253 1.334 . S
C253 H230 0.950 . S
C253 C252 1.334 . S
C253 C254 1.287 . S
C254 C253 1.287 . S
C254 C255 1.524 . S
C254 H273 0.913 . S
C255 H231 0.950 . S
C255 C254 1.524 . S
C255 C256 1.415 . S
C256 H232 0.950 . S
C256 C251 1.363 . S
C256 C255 1.415 . S
C257 H233 0.951 . S
C257 C258 1.366 . S
C257 C259 1.388 . S
C258 C257 1.366 . S
C258 C262 1.385 . S
C259 H234 0.951 . S
C259 C257 1.388 . S
C259 C260 1.366 . S
C260 C259 1.366 . S
C260 C261 1.414 . S
C260 C263 1.499 . S
C261 H235 0.950 . S
C261 C260 1.414 . S
C261 C262 1.374 . S
C262 H236 0.950 . S
C262 C258 1.385 . S
C262 C261 1.374 . S
C263 C260 1.499 . S
C263 C264 1.373 1_556 S
C263 C265 1.389 . S
C264 H237 0.950 . S
C264 C250 1.377 . S
C264 C263 1.373 1_554 S
C265 C249 1.377 . S
C265 C263 1.389 . S
C265 C266 1.524 . S
C266 C265 1.524 . S
C266 C267 1.397 . S
C266 C271 1.363 . S
C267 H238 0.950 . S
C267 C266 1.397 . S
C267 C268 1.334 . S
C268 H239 0.950 . S
C268 C267 1.334 . S
C268 C269 1.287 . S
C269 C268 1.287 . S
C269 C270 1.524 . S
C269 H272 0.999 . S
C270 H240 0.950 . S
C270 C269 1.524 . S
C270 C271 1.415 . S
C271 H241 0.950 . S
C271 C266 1.363 . S
C271 C270 1.415 . S
H272 C269 0.999 . S
H273 C254 0.913 . S
H274 C292 0.951 . S
H275 C294 0.951 1_554 S
H276 C296 0.950 . S
H277 C297 0.950 . S
H278 C299 0.950 . S
H279 C302 0.950 . S
H280 C303 0.950 . S
H281 C305 0.950 . S
H282 C306 0.950 . S
H283 C307 0.951 1_556 S
H284 C309 0.951 . S
H285 C311 0.950 . S
H286 C312 0.950 . S
H287 C314 0.950 . S
H288 C317 0.950 . S
H289 C318 0.950 . S
H290 C320 0.950 . S
H291 C321 0.950 . S
C292 H274 0.951 . S
C292 C293 1.366 . S
C292 C294 1.388 . S
C293 C292 1.366 . S
C293 C297 1.385 . S
C294 H275 0.951 1_556 S
C294 C292 1.388 . S
C294 C295 1.366 . S
C295 C294 1.366 . S
C295 C296 1.414 . S
C295 C298 1.499 . S
C296 H276 0.950 . S
C296 C295 1.414 . S
C296 C297 1.374 . S
C297 H277 0.950 . S
C297 C293 1.385 . S
C297 C296 1.374 . S
C298 C295 1.499 . S
C298 C299 1.373 . S
C298 C300 1.389 1_556 S
C299 H278 0.950 . S
C299 C298 1.373 . S
C299 C315 1.377 . S
C300 C298 1.389 1_554 S
C300 C301 1.524 . S
C300 C314 1.377 . S
C301 C300 1.524 . S
C301 C302 1.397 . S
C301 C306 1.363 . S
C302 H279 0.950 . S
C302 C301 1.397 . S
C302 C303 1.334 . S
C303 H280 0.950 . S
C303 C302 1.334 . S
C303 C304 1.287 . S
C304 C303 1.287 . S
C304 C305 1.524 . S
C304 H323 0.913 . S
C305 H281 0.950 . S
C305 C304 1.524 . S
C305 C306 1.415 . S
C306 H282 0.950 . S
C306 C301 1.363 . S
C306 C305 1.415 . S
C307 H283 0.951 1_554 S
C307 C308 1.366 . S
C307 C309 1.388 1_554 S
C308 C307 1.366 . S
C308 C312 1.385 . S
C309 H284 0.951 . S
C309 C307 1.388 1_556 S
C309 C310 1.366 1_556 S
C310 C309 1.366 1_554 S
C310 C311 1.414 . S
C310 C313 1.499 . S
C311 H285 0.950 . S
C311 C310 1.414 . S
C311 C312 1.374 . S
C312 H286 0.950 . S
C312 C308 1.385 . S
C312 C311 1.374 . S
C313 C310 1.499 . S
C313 C314 1.373 . S
C313 C315 1.389 1_554 S
C314 H287 0.950 . S
C314 C300 1.377 . S
C314 C313 1.373 . S
C315 C299 1.377 . S
C315 C313 1.389 1_556 S
C315 C316 1.524 . S
C316 C315 1.524 . S
C316 C317 1.397 . S
C316 C321 1.363 . S
C317 H288 0.950 . S
C317 C316 1.397 . S
C317 C318 1.334 . S
C318 H289 0.950 . S
C318 C317 1.334 . S
C318 C319 1.287 . S
C319 C318 1.287 . S
C319 C320 1.524 . S
C319 H322 0.999 . S
C320 H290 0.950 . S
C320 C319 1.524 . S
C320 C321 1.415 . S
C321 H291 0.950 . S
C321 C316 1.363 . S
C321 C320 1.415 . S
H322 C319 0.999 . S
H323 C304 0.913 . S
H324 C342 0.951 . S
H325 C344 0.951 . S
H326 C346 0.950 . S
H327 C347 0.950 . S
H328 C349 0.950 . S
H329 C352 0.950 . S
H330 C353 0.950 . S
H331 C355 0.950 . S
H332 C356 0.950 . S
H333 C357 0.951 . S
H334 C359 0.951 1_556 S
H335 C361 0.950 . S
H336 C362 0.950 . S
H337 C364 0.950 . S
H338 C367 0.950 . S
H339 C368 0.950 . S
H340 C370 0.927 1_455 S
H341 C371 0.950 . S
C342 H324 0.951 . S
C342 C343 1.366 . S
C342 C344 1.388 . S
C343 C342 1.366 . S
C343 C347 1.385 . S
C344 H325 0.951 . S
C344 C342 1.388 . S
C344 C345 1.366 . S
C345 C344 1.366 . S
C345 C346 1.414 . S
C345 C348 1.499 . S
C346 H326 0.950 . S
C346 C345 1.414 . S
C346 C347 1.374 . S
C347 H327 0.950 . S
C347 C343 1.385 . S
C347 C346 1.374 . S
C348 C345 1.499 . S
C348 C349 1.373 1_556 S
C348 C350 1.389 . S
C349 H328 0.950 . S
C349 C348 1.373 1_554 S
C349 C365 1.377 . S
C350 C348 1.389 . S
C350 C351 1.524 . S
C350 C364 1.377 . S
C351 C350 1.524 . S
C351 C352 1.397 . S
C351 C356 1.363 . S
C352 H329 0.950 . S
C352 C351 1.397 . S
C352 C353 1.334 . S
C353 H330 0.950 . S
C353 C352 1.334 . S
C353 C354 1.287 . S
C354 C353 1.287 . S
C354 C355 1.524 . S
C354 H373 0.913 . S
C355 H331 0.950 . S
C355 C354 1.524 . S
C355 C356 1.415 . S
C356 H332 0.950 . S
C356 C351 1.363 . S
C356 C355 1.415 . S
C357 H333 0.951 . S
C357 C358 1.366 . S
C357 C359 1.388 . S
C358 C357 1.366 . S
C358 C362 1.385 . S
C359 H334 0.951 1_554 S
C359 C357 1.388 . S
C359 C360 1.366 . S
C360 C359 1.366 . S
C360 C361 1.414 . S
C360 C363 1.499 . S
C361 H335 0.950 . S
C361 C360 1.414 . S
C361 C362 1.374 . S
C362 H336 0.950 . S
C362 C358 1.385 . S
C362 C361 1.374 . S
C363 C360 1.499 . S
C363 C364 1.373 1_554 S
C363 C365 1.389 . S
C364 H337 0.950 . S
C364 C350 1.377 . S
C364 C363 1.373 1_556 S
C365 C349 1.377 . S
C365 C363 1.389 . S
C365 C366 1.524 . S
C366 C365 1.524 . S
C366 C367 1.397 . S
C366 C371 1.363 . S
C367 H338 0.950 . S
C367 C366 1.397 . S
C367 C368 1.334 . S
C368 H339 0.950 . S
C368 C367 1.334 . S
C368 C369 1.287 . S
C369 C368 1.287 . S
C369 C370 1.524 . S
C369 H372 0.999 . S
C370 H340 0.927 1_655 S
C370 C369 1.524 . S
C370 C371 1.415 . S
C371 H341 0.950 . S
C371 C366 1.363 . S
C371 C370 1.415 . S
H372 C369 0.999 . S
H373 C354 0.913 . S
H374 C392 0.951 1_554 S
H375 C394 0.951 1_554 S
H376 C396 0.950 . S
H377 C397 0.950 . S
H378 C399 0.950 . S
H379 C402 0.950 . S
H380 C403 0.950 . S
H381 C405 0.950 . S
H382 C406 0.950 . S
H383 C407 0.951 1_556 S
H384 C409 0.951 . S
H385 C411 0.950 . S
H386 C412 0.950 . S
H387 C414 0.950 . S
H388 C417 0.950 . S
H389 C418 0.950 . S
H390 C420 0.950 1_545 S
H391 C421 0.950 . S
C392 H374 0.951 1_556 S
C392 C393 1.366 . S
C392 C394 1.388 . S
C393 C392 1.366 . S
C393 C397 1.385 . S
C394 H375 0.951 1_556 S
C394 C392 1.388 . S
C394 C395 1.366 . S
C395 C394 1.366 . S
C395 C396 1.414 . S
C395 C398 1.499 . S
C396 H376 0.950 . S
C396 C395 1.414 . S
C396 C397 1.374 . S
C397 H377 0.950 . S
C397 C393 1.385 . S
C397 C396 1.374 . S
C398 C395 1.499 . S
C398 C399 1.373 . S
C398 C400 1.389 . S
C399 H378 0.950 . S
C399 C398 1.373 . S
C399 C415 1.377 . S
C400 C398 1.389 . S
C400 C401 1.524 . S
C400 C414 1.377 1_556 S
C401 C400 1.524 . S
C401 C402 1.397 . S
C401 C406 1.363 1_556 S
C402 H379 0.950 . S
C402 C401 1.397 . S
C402 C403 1.334 . S
C403 H380 0.950 . S
C403 C402 1.334 . S
C403 C404 1.287 . S
C404 C403 1.287 . S
C404 C405 1.524 1_556 S
C404 H423 0.913 . S
C405 H381 0.950 . S
C405 C404 1.524 1_554 S
C405 C406 1.415 . S
C406 H382 0.950 . S
C406 C401 1.363 1_554 S
C406 C405 1.415 . S
C407 H383 0.951 1_554 S
C407 C408 1.366 . S
C407 C409 1.388 1_554 S
C408 C407 1.366 . S
C408 C412 1.385 . S
C409 H384 0.951 . S
C409 C407 1.388 1_556 S
C409 C410 1.366 1_556 S
C410 C409 1.366 1_554 S
C410 C411 1.414 . S
C410 C413 1.499 . S
C411 H385 0.950 . S
C411 C410 1.414 . S
C411 C412 1.374 . S
C412 H386 0.950 . S
C412 C408 1.385 . S
C412 C411 1.374 . S
C413 C410 1.499 . S
C413 C414 1.373 . S
C413 C415 1.389 1_554 S
C414 H387 0.950 . S
C414 C400 1.377 1_554 S
C414 C413 1.373 . S
C415 C399 1.377 . S
C415 C413 1.389 1_556 S
C415 C416 1.524 1_556 S
C416 C415 1.524 1_554 S
C416 C417 1.397 . S
C416 C421 1.363 1_554 S
C417 H388 0.950 . S
C417 C416 1.397 . S
C417 C418 1.334 . S
C418 H389 0.950 . S
C418 C417 1.334 . S
C418 C419 1.287 1_565 S
C419 C418 1.287 1_545 S
C419 C420 1.524 1_544 S
C419 H422 0.999 . S
C420 H390 0.950 1_565 S
C420 C419 1.524 1_566 S
C420 C421 1.415 . S
C421 H391 0.950 . S
C421 C416 1.363 1_556 S
C421 C420 1.415 . S
H422 C419 0.999 . S
H423 C404 0.913 . S
H424 C442 0.951 . S
H425 C444 0.951 . S
H426 C446 0.950 . S
H427 C447 0.950 . S
H428 C449 0.950 . S
H429 C452 0.950 . S
H430 C453 0.950 . S
H431 C455 0.950 . S
H432 C456 0.950 . S
H433 C457 0.951 . S
H434 C459 0.951 . S
H435 C461 0.950 . S
H436 C462 0.950 . S
H437 C464 0.950 . S
H438 C467 0.950 . S
H439 C468 0.950 . S
H440 C470 0.950 . S
H441 C471 0.950 . S
C442 H424 0.951 . S
C442 C443 1.366 . S
C442 C444 1.388 . S
C443 C442 1.366 . S
C443 C447 1.385 . S
C444 H425 0.951 . S
C444 C442 1.388 . S
C444 C445 1.366 . S
C445 C444 1.366 . S
C445 C446 1.414 . S
C445 C448 1.499 . S
C446 H426 0.950 . S
C446 C445 1.414 . S
C446 C447 1.374 . S
C447 H427 0.950 . S
C447 C443 1.385 . S
C447 C446 1.374 . S
C448 C445 1.499 . S
C448 C449 1.373 . S
C448 C450 1.389 . S
C449 H428 0.950 . S
C449 C448 1.373 . S
C449 C465 1.377 . S
C450 C448 1.389 . S
C450 C451 1.524 . S
C450 C464 1.377 . S
C451 C450 1.524 . S
C451 C452 1.397 . S
C451 C456 1.363 . S
C452 H429 0.950 . S
C452 C451 1.397 . S
C452 C453 1.334 . S
C453 H430 0.950 . S
C453 C452 1.334 . S
C453 C454 1.287 . S
C454 C453 1.287 . S
C454 C455 1.524 . S
C454 H473 0.913 . S
C455 H431 0.950 . S
C455 C454 1.524 . S
C455 C456 1.415 . S
C456 H432 0.950 . S
C456 C451 1.363 . S
C456 C455 1.415 . S
C457 H433 0.951 . S
C457 C458 1.366 . S
C457 C459 1.388 . S
C458 C457 1.366 . S
C458 C462 1.385 . S
C459 H434 0.951 . S
C459 C457 1.388 . S
C459 C460 1.366 . S
C460 C459 1.366 . S
C460 C461 1.414 . S
C460 C463 1.499 . S
C461 H435 0.950 . S
C461 C460 1.414 . S
C461 C462 1.374 . S
C462 H436 0.950 . S
C462 C458 1.385 . S
C462 C461 1.374 . S
C463 C460 1.499 . S
C463 C464 1.373 . S
C463 C465 1.389 . S
C464 H437 0.950 . S
C464 C450 1.377 . S
C464 C463 1.373 . S
C465 C449 1.377 . S
C465 C463 1.389 . S
C465 C466 1.524 . S
C466 C465 1.524 . S
C466 C467 1.397 . S
C466 C471 1.363 . S
C467 H438 0.950 . S
C467 C466 1.397 . S
C467 C468 1.334 . S
C468 H439 0.950 . S
C468 C467 1.334 . S
C468 C469 1.287 . S
C469 C468 1.287 . S
C469 C470 1.524 . S
C469 H472 0.999 . S
C470 H440 0.950 . S
C470 C469 1.524 . S
C470 C471 1.415 . S
C471 H441 0.950 . S
C471 C466 1.363 . S
C471 C470 1.415 . S
H472 C469 0.999 . S
H473 C454 0.913 . S
H474 C492 0.951 . S
H475 C494 0.951 . S
H476 C496 0.950 . S
H477 C497 0.950 . S
H478 C499 0.950 . S
H479 C502 0.950 . S
H480 C503 0.950 . S
H481 C505 0.950 . S
H482 C506 0.950 . S
H483 C507 0.951 . S
H484 C509 0.951 . S
H485 C511 0.950 . S
H486 C512 0.950 . S
H487 C514 0.950 . S
H488 C517 0.950 . S
H489 C518 0.950 . S
H490 C520 0.950 . S
H491 C521 0.950 . S
C492 H474 0.951 . S
C492 C493 1.366 . S
C492 C494 1.388 . S
C493 C492 1.366 . S
C493 C497 1.385 . S
C494 H475 0.951 . S
C494 C492 1.388 . S
C494 C495 1.366 . S
C495 C494 1.366 . S
C495 C496 1.414 . S
C495 C498 1.499 . S
C496 H476 0.950 . S
C496 C495 1.414 . S
C496 C497 1.374 . S
C497 H477 0.950 . S
C497 C493 1.385 . S
C497 C496 1.374 . S
C498 C495 1.499 . S
C498 C499 1.373 . S
C498 C500 1.389 . S
C499 H478 0.950 . S
C499 C498 1.373 . S
C499 C515 1.377 . S
C500 C498 1.389 . S
C500 C501 1.524 . S
C500 C514 1.377 . S
C501 C500 1.524 . S
C501 C502 1.397 . S
C501 C506 1.363 . S
C502 H479 0.950 . S
C502 C501 1.397 . S
C502 C503 1.334 . S
C503 H480 0.950 . S
C503 C502 1.334 . S
C503 C504 1.287 . S
C504 C503 1.287 . S
C504 C505 1.524 . S
C504 H523 0.913 . S
C505 H481 0.950 . S
C505 C504 1.524 . S
C505 C506 1.415 . S
C506 H482 0.950 . S
C506 C501 1.363 . S
C506 C505 1.415 . S
C507 H483 0.951 . S
C507 C508 1.366 . S
C507 C509 1.388 . S
C508 C507 1.366 . S
C508 C512 1.385 . S
C509 H484 0.951 . S
C509 C507 1.388 . S
C509 C510 1.366 . S
C510 C509 1.366 . S
C510 C511 1.414 . S
C510 C513 1.499 . S
C511 H485 0.950 . S
C511 C510 1.414 . S
C511 C512 1.374 . S
C512 H486 0.950 . S
C512 C508 1.385 . S
C512 C511 1.374 . S
C513 C510 1.499 . S
C513 C514 1.373 . S
C513 C515 1.389 . S
C514 H487 0.950 . S
C514 C500 1.377 . S
C514 C513 1.373 . S
C515 C499 1.377 . S
C515 C513 1.389 . S
C515 C516 1.524 . S
C516 C515 1.524 . S
C516 C517 1.397 . S
C516 C521 1.363 . S
C517 H488 0.950 . S
C517 C516 1.397 . S
C517 C518 1.334 . S
C518 H489 0.950 . S
C518 C517 1.334 . S
C518 C519 1.287 . S
C519 C518 1.287 . S
C519 C520 1.524 . S
C519 H522 0.999 . S
C520 H490 0.950 . S
C520 C519 1.524 . S
C520 C521 1.415 . S
C521 H491 0.950 . S
C521 C516 1.363 . S
C521 C520 1.415 . S
H522 C519 0.999 . S
H523 C504 0.913 . S
H524 C542 0.951 . S
H525 C544 0.951 . S
H526 C546 0.950 . S
H527 C547 0.950 . S
H528 C549 0.950 . S
H529 C552 0.950 . S
H530 C553 0.950 . S
H531 C555 0.950 . S
H532 C556 0.950 . S
H533 C557 0.951 . S
H534 C559 0.951 . S
H535 C561 0.950 . S
H536 C562 0.950 . S
H537 C564 0.950 . S
H538 C567 0.950 . S
H539 C568 0.950 . S
H540 C570 0.950 . S
H541 C571 0.950 . S
C542 H524 0.951 . S
C542 C543 1.366 . S
C542 C544 1.388 . S
C543 C542 1.366 . S
C543 C547 1.385 . S
C544 H525 0.951 . S
C544 C542 1.388 . S
C544 C545 1.366 . S
C545 C544 1.366 . S
C545 C546 1.414 . S
C545 C548 1.499 . S
C546 H526 0.950 . S
C546 C545 1.414 . S
C546 C547 1.374 . S
C547 H527 0.950 . S
C547 C543 1.385 . S
C547 C546 1.374 . S
C548 C545 1.499 . S
C548 C549 1.373 . S
C548 C550 1.389 . S
C549 H528 0.950 . S
C549 C548 1.373 . S
C549 C565 1.377 . S
C550 C548 1.389 . S
C550 C551 1.524 . S
C550 C564 1.377 . S
C551 C550 1.524 . S
C551 C552 1.397 . S
C551 C556 1.363 . S
C552 H529 0.950 . S
C552 C551 1.397 . S
C552 C553 1.334 . S
C553 H530 0.950 . S
C553 C552 1.334 . S
C553 C554 1.287 . S
C554 C553 1.287 . S
C554 C555 1.524 . S
C554 H573 0.913 . S
C555 H531 0.950 . S
C555 C554 1.524 . S
C555 C556 1.415 . S
C556 H532 0.950 . S
C556 C551 1.363 . S
C556 C555 1.415 . S
C557 H533 0.951 . S
C557 C558 1.366 . S
C557 C559 1.388 . S
C558 C557 1.366 . S
C558 C562 1.385 . S
C559 H534 0.951 . S
C559 C557 1.388 . S
C559 C560 1.366 . S
C560 C559 1.366 . S
C560 C561 1.414 . S
C560 C563 1.499 . S
C561 H535 0.950 . S
C561 C560 1.414 . S
C561 C562 1.374 . S
C562 H536 0.950 . S
C562 C558 1.385 . S
C562 C561 1.374 . S
C563 C560 1.499 . S
C563 C564 1.373 . S
C563 C565 1.389 . S
C564 H537 0.950 . S
C564 C550 1.377 . S
C564 C563 1.373 . S
C565 C549 1.377 . S
C565 C563 1.389 . S
C565 C566 1.524 . S
C566 C565 1.524 . S
C566 C567 1.397 . S
C566 C571 1.363 . S
C567 H538 0.950 . S
C567 C566 1.397 . S
C567 C568 1.334 . S
C568 H539 0.950 . S
C568 C567 1.334 . S
C568 C569 1.287 . S
C569 C568 1.287 . S
C569 C570 1.524 . S
C569 H572 0.999 . S
C570 H540 0.950 . S
C570 C569 1.524 . S
C570 C571 1.415 . S
C571 H541 0.950 . S
C571 C566 1.363 . S
C571 C570 1.415 . S
H572 C569 0.999 . S
H573 C554 0.913 . S
H574 C592 0.951 . S
H575 C594 0.951 . S
H576 C596 0.950 . S
H577 C597 0.950 . S
H578 C599 0.950 . S
H579 C602 0.950 . S
H580 C603 0.950 . S
H581 C605 0.950 . S
H582 C606 0.950 . S
H583 C607 0.951 . S
H584 C609 0.951 . S
H585 C611 0.950 . S
H586 C612 0.950 . S
H587 C614 0.950 . S
H588 C617 0.950 . S
H589 C618 0.950 1_545 S
H590 C620 0.950 . S
H591 C621 0.950 . S
C592 H574 0.951 . S
C592 C593 1.366 . S
C592 C594 1.388 . S
C593 C592 1.366 . S
C593 C597 1.385 . S
C594 H575 0.951 . S
C594 C592 1.388 . S
C594 C595 1.366 . S
C595 C594 1.366 . S
C595 C596 1.414 . S
C595 C598 1.499 . S
C596 H576 0.950 . S
C596 C595 1.414 . S
C596 C597 1.374 . S
C597 H577 0.950 . S
C597 C593 1.385 . S
C597 C596 1.374 . S
C598 C595 1.499 . S
C598 C599 1.373 . S
C598 C600 1.389 . S
C599 H578 0.950 . S
C599 C598 1.373 . S
C599 C615 1.377 . S
C600 C598 1.389 . S
C600 C601 1.524 . S
C600 C614 1.377 . S
C601 C600 1.524 . S
C601 C602 1.397 . S
C601 C606 1.363 . S
C602 H579 0.950 . S
C602 C601 1.397 . S
C602 C603 1.334 . S
C603 H580 0.950 . S
C603 C602 1.334 . S
C603 C604 1.287 . S
C604 C603 1.287 . S
C604 C605 1.524 . S
C604 H623 0.913 . S
C605 H581 0.950 . S
C605 C604 1.524 . S
C605 C606 1.415 . S
C606 H582 0.950 . S
C606 C601 1.363 . S
C606 C605 1.415 . S
C607 H583 0.951 . S
C607 C608 1.366 . S
C607 C609 1.388 . S
C608 C607 1.366 . S
C608 C612 1.385 . S
C609 H584 0.951 . S
C609 C607 1.388 . S
C609 C610 1.366 . S
C610 C609 1.366 . S
C610 C611 1.414 . S
C610 C613 1.499 . S
C611 H585 0.950 . S
C611 C610 1.414 . S
C611 C612 1.374 . S
C612 H586 0.950 . S
C612 C608 1.385 . S
C612 C611 1.374 . S
C613 C610 1.499 . S
C613 C614 1.373 . S
C613 C615 1.389 . S
C614 H587 0.950 . S
C614 C600 1.377 . S
C614 C613 1.373 . S
C615 C599 1.377 . S
C615 C613 1.389 . S
C615 C616 1.524 . S
C616 C615 1.524 . S
C616 C617 1.397 . S
C616 C621 1.363 . S
C617 H588 0.950 . S
C617 C616 1.397 . S
C617 C618 1.334 . S
C618 H589 0.950 1_565 S
C618 C617 1.334 . S
C618 C619 1.287 1_565 S
C619 C618 1.287 1_545 S
C619 C620 1.524 1_545 S
C619 H622 0.999 . S
C620 H590 0.950 . S
C620 C619 1.524 1_565 S
C620 C621 1.415 . S
C621 H591 0.950 . S
C621 C616 1.363 . S
C621 C620 1.415 . S
H622 C619 0.999 . S
H623 C604 0.913 . S
H624 C642 0.938 1_554 S
H625 C644 0.944 1_554 S
H626 C646 0.950 . S
H627 C647 0.950 . S
H628 C649 0.950 . S
H629 C652 0.950 . S
H630 C653 0.950 . S
H631 C655 0.950 . S
H632 C656 0.950 1_554 S
H633 C657 0.951 . S
H634 C659 0.951 1_556 S
H635 C661 0.950 . S
H636 C662 0.950 . S
H637 C664 0.950 . S
H638 C667 0.950 . S
H639 C668 0.950 . S
H640 C670 0.950 . S
H641 C671 0.950 1_556 S
C642 H624 0.938 1_556 S
C642 C643 1.366 . S
C642 C644 1.390 . S
C643 C642 1.366 . S
C643 C647 1.385 . S
C644 H625 0.944 1_556 S
C644 C642 1.390 . S
C644 C645 1.370 . S
C645 C644 1.370 . S
C645 C646 1.414 . S
C645 C648 1.499 . S
C646 H626 0.950 . S
C646 C645 1.414 . S
C646 C647 1.374 . S
C647 H627 0.950 . S
C647 C643 1.385 . S
C647 C646 1.374 . S
C648 C645 1.499 . S
C648 C649 1.373 1_556 S
C648 C650 1.389 . S
C649 H628 0.950 . S
C649 C648 1.373 1_554 S
C649 C665 1.377 . S
C650 C648 1.389 . S
C650 C651 1.524 . S
C650 C664 1.377 1_556 S
C651 C650 1.524 . S
C651 C652 1.397 . S
C651 C656 1.363 . S
C652 H629 0.950 . S
C652 C651 1.397 . S
C652 C653 1.334 . S
C653 H630 0.950 . S
C653 C652 1.334 . S
C653 C654 1.287 . S
C654 C653 1.287 . S
C654 C655 1.524 . S
C654 H673 0.913 . S
C655 H631 0.950 . S
C655 C654 1.524 . S
C655 C656 1.415 . S
C656 H632 0.950 1_556 S
C656 C651 1.363 . S
C656 C655 1.415 . S
C657 H633 0.951 . S
C657 C658 1.366 . S
C657 C659 1.388 . S
C658 C657 1.366 . S
C658 C662 1.385 . S
C659 H634 0.951 1_554 S
C659 C657 1.388 . S
C659 C660 1.366 . S
C660 C659 1.366 . S
C660 C661 1.414 . S
C660 C663 1.499 . S
C661 H635 0.950 . S
C661 C660 1.414 . S
C661 C662 1.374 . S
C662 H636 0.950 . S
C662 C658 1.385 . S
C662 C661 1.374 . S
C663 C660 1.499 . S
C663 C664 1.373 . S
C663 C665 1.389 . S
C664 H637 0.950 . S
C664 C650 1.377 1_554 S
C664 C663 1.373 . S
C665 C649 1.377 . S
C665 C663 1.389 . S
C665 C666 1.524 . S
C666 C665 1.524 . S
C666 C667 1.397 . S
C666 C671 1.363 . S
C667 H638 0.950 . S
C667 C666 1.397 . S
C667 C668 1.334 . S
C668 H639 0.950 . S
C668 C667 1.334 . S
C668 C669 1.287 . S
C669 C668 1.287 . S
C669 C670 1.524 . S
C669 H672 0.999 . S
C670 H640 0.950 . S
C670 C669 1.524 . S
C670 C671 1.415 . S
C671 H641 0.950 1_554 S
C671 C666 1.363 . S
C671 C670 1.415 . S
H672 C669 0.999 . S
H673 C654 0.913 . S
H674 C692 0.951 . S
H675 C694 0.951 . S
H676 C696 0.950 . S
H677 C697 0.950 . S
H678 C699 0.950 . S
H679 C702 0.950 . S
H680 C703 0.950 . S
H681 C705 0.950 . S
H682 C706 0.950 . S
H683 C707 0.951 . S
H684 C709 0.951 . S
H685 C711 0.950 . S
H686 C712 0.950 1_556 S
H687 C714 0.950 . S
H688 C717 0.950 . S
H689 C718 0.950 . S
H690 C720 0.950 . S
H691 C721 0.950 . S
C692 H674 0.951 . S
C692 C693 1.366 . S
C692 C694 1.388 . S
C693 C692 1.366 . S
C693 C697 1.385 1_556 S
C694 H675 0.951 . S
C694 C692 1.388 . S
C694 C695 1.366 . S
C695 C694 1.366 . S
C695 C696 1.414 1_556 S
C695 C698 1.499 . S
C696 H676 0.950 . S
C696 C695 1.414 1_554 S
C696 C697 1.374 . S
C697 H677 0.950 . S
C697 C693 1.385 1_554 S
C697 C696 1.374 . S
C698 C695 1.499 . S
C698 C699 1.373 1_556 S
C698 C700 1.389 . S
C699 H678 0.950 . S
C699 C698 1.373 1_554 S
C699 C715 1.377 . S
C700 C698 1.389 . S
C700 C701 1.524 . S
C700 C714 1.377 . S
C701 C700 1.524 . S
C701 C702 1.397 . S
C701 C706 1.363 . S
C702 H679 0.950 . S
C702 C701 1.397 . S
C702 C703 1.334 . S
C703 H680 0.950 . S
C703 C702 1.334 . S
C703 C704 1.287 . S
C704 C703 1.287 . S
C704 C705 1.524 . S
C704 H723 0.913 . S
C705 H681 0.950 . S
C705 C704 1.524 . S
C705 C706 1.415 . S
C706 H682 0.950 . S
C706 C701 1.363 . S
C706 C705 1.415 . S
C707 H683 0.951 . S
C707 C708 1.366 . S
C707 C709 1.388 . S
C708 C707 1.366 . S
C708 C712 1.385 . S
C709 H684 0.951 . S
C709 C707 1.388 . S
C709 C710 1.366 . S
C710 C709 1.366 . S
C710 C711 1.414 1_554 S
C710 C713 1.499 . S
C711 H685 0.950 . S
C711 C710 1.414 1_556 S
C711 C712 1.374 1_556 S
C712 H686 0.950 1_554 S
C712 C708 1.385 . S
C712 C711 1.374 1_554 S
C713 C710 1.499 . S
C713 C714 1.373 1_554 S
C713 C715 1.389 . S
C714 H687 0.950 . S
C714 C700 1.377 . S
C714 C713 1.373 1_556 S
C715 C699 1.377 . S
C715 C713 1.389 . S
C715 C716 1.524 . S
C716 C715 1.524 . S
C716 C717 1.397 . S
C716 C721 1.363 . S
C717 H688 0.950 . S
C717 C716 1.397 . S
C717 C718 1.334 . S
C718 H689 0.950 . S
C718 C717 1.334 . S
C718 C719 1.287 . S
C719 C718 1.287 . S
C719 C720 1.524 . S
C719 H722 0.999 . S
C720 H690 0.950 . S
C720 C719 1.524 . S
C720 C721 1.415 . S
C721 H691 0.950 . S
C721 C716 1.363 . S
C721 C720 1.415 . S
H722 C719 0.999 . S
H723 C704 0.913 . S
H724 C742 0.951 . S
H725 C744 0.951 . S
H726 C746 0.950 . S
H727 C747 0.950 . S
H728 C749 0.950 . S
H729 C752 0.950 . S
H730 C753 0.950 . S
H731 C755 0.950 . S
H732 C756 0.950 . S
H733 C757 0.951 . S
H734 C759 0.951 . S
H735 C761 0.950 . S
H736 C762 0.950 . S
H737 C764 0.950 . S
H738 C767 0.950 . S
H739 C768 0.950 . S
H740 C770 0.950 . S
H741 C771 0.950 . S
C742 H724 0.951 . S
C742 C743 1.366 . S
C742 C744 1.388 . S
C743 C742 1.366 . S
C743 C747 1.385 . S
C744 H725 0.951 . S
C744 C742 1.388 . S
C744 C745 1.366 . S
C745 C744 1.366 . S
C745 C746 1.414 . S
C745 C748 1.499 . S
C746 H726 0.950 . S
C746 C745 1.414 . S
C746 C747 1.374 . S
C747 H727 0.950 . S
C747 C743 1.385 . S
C747 C746 1.374 . S
C748 C745 1.499 . S
C748 C749 1.373 1_556 S
C748 C750 1.389 . S
C749 H728 0.950 . S
C749 C748 1.373 1_554 S
C749 C765 1.377 . S
C750 C748 1.389 . S
C750 C751 1.524 . S
C750 C764 1.377 . S
C751 C750 1.524 . S
C751 C752 1.397 . S
C751 C756 1.363 . S
C752 H729 0.950 . S
C752 C751 1.397 . S
C752 C753 1.334 . S
C753 H730 0.950 . S
C753 C752 1.334 . S
C753 C754 1.287 . S
C754 C753 1.287 . S
C754 C755 1.524 . S
C754 H773 0.913 . S
C755 H731 0.950 . S
C755 C754 1.524 . S
C755 C756 1.415 . S
C756 H732 0.950 . S
C756 C751 1.363 . S
C756 C755 1.415 . S
C757 H733 0.951 . S
C757 C758 1.366 . S
C757 C759 1.388 . S
C758 C757 1.366 . S
C758 C762 1.385 . S
C759 H734 0.951 . S
C759 C757 1.388 . S
C759 C760 1.366 . S
C760 C759 1.366 . S
C760 C761 1.414 . S
C760 C763 1.499 . S
C761 H735 0.950 . S
C761 C760 1.414 . S
C761 C762 1.374 . S
C762 H736 0.950 . S
C762 C758 1.385 . S
C762 C761 1.374 . S
C763 C760 1.499 . S
C763 C764 1.373 1_554 S
C763 C765 1.389 . S
C764 H737 0.950 . S
C764 C750 1.377 . S
C764 C763 1.373 1_556 S
C765 C749 1.377 . S
C765 C763 1.389 . S
C765 C766 1.524 . S
C766 C765 1.524 . S
C766 C767 1.397 . S
C766 C771 1.363 . S
C767 H738 0.950 . S
C767 C766 1.397 . S
C767 C768 1.334 . S
C768 H739 0.950 . S
C768 C767 1.334 . S
C768 C769 1.287 . S
C769 C768 1.287 . S
C769 C770 1.524 . S
C769 H772 0.999 . S
C770 H740 0.950 . S
C770 C769 1.524 . S
C770 C771 1.415 . S
C771 H741 0.950 . S
C771 C766 1.363 . S
C771 C770 1.415 . S
H772 C769 0.999 . S
H773 C754 0.913 . S
H774 C792 0.951 1_556 S
H775 C794 0.951 . S
H776 C796 0.950 . S
H777 C797 0.950 . S
H778 C799 0.950 . S
H779 C802 0.950 . S
H780 C803 0.950 . S
H781 C805 0.950 . S
H782 C806 0.950 . S
H783 C807 0.951 . S
H784 C809 0.951 . S
H785 C811 0.950 . S
H786 C812 0.950 . S
H787 C814 0.950 . S
H788 C817 0.947 . S
H789 C818 0.950 1_556 S
H790 C820 0.950 . S
H791 C821 0.950 . S
C792 H774 0.951 1_554 S
C792 C793 1.366 . S
C792 C794 1.388 1_554 S
C793 C792 1.366 . S
C793 C797 1.385 . S
C794 H775 0.951 . S
C794 C792 1.388 1_556 S
C794 C795 1.366 1_556 S
C795 C794 1.366 1_554 S
C795 C796 1.414 . S
C795 C798 1.499 . S
C796 H776 0.950 . S
C796 C795 1.414 . S
C796 C797 1.374 . S
C797 H777 0.950 . S
C797 C793 1.385 . S
C797 C796 1.374 . S
C798 C795 1.499 . S
C798 C799 1.373 . S
C798 C800 1.389 1_554 S
C799 H778 0.950 . S
C799 C798 1.373 . S
C799 C815 1.377 . S
C800 C798 1.389 1_556 S
C800 C801 1.524 . S
C800 C814 1.377 . S
C801 C800 1.524 . S
C801 C802 1.397 1_556 S
C801 C806 1.363 . S
C802 H779 0.950 . S
C802 C801 1.397 1_554 S
C802 C803 1.334 . S
C803 H780 0.950 . S
C803 C802 1.334 . S
C803 C804 1.287 1_554 S
C804 C803 1.287 1_556 S
C804 C805 1.524 . S
C804 H823 0.913 . S
C805 H781 0.950 . S
C805 C804 1.524 . S
C805 C806 1.415 . S
C806 H782 0.950 . S
C806 C801 1.363 . S
C806 C805 1.415 . S
C807 H783 0.951 . S
C807 C808 1.366 1_554 S
C807 C809 1.388 . S
C808 C807 1.366 1_556 S
C808 C812 1.385 . S
C809 H784 0.951 . S
C809 C807 1.388 . S
C809 C810 1.366 1_554 S
C810 C809 1.366 1_556 S
C810 C811 1.414 . S
C810 C813 1.499 . S
C811 H785 0.950 . S
C811 C810 1.414 . S
C811 C812 1.374 . S
C812 H786 0.950 . S
C812 C808 1.385 . S
C812 C811 1.374 . S
C813 C810 1.499 . S
C813 C814 1.373 . S
C813 C815 1.389 1_556 S
C814 H787 0.950 . S
C814 C800 1.377 . S
C814 C813 1.373 . S
C815 C799 1.377 . S
C815 C813 1.389 1_554 S
C815 C816 1.524 . S
C816 C815 1.524 . S
C816 C817 1.399 1_554 S
C816 C821 1.363 . S
C817 H788 0.947 . S
C817 C816 1.399 1_556 S
C817 C818 1.335 1_556 S
C818 H789 0.950 1_554 S
C818 C817 1.335 1_554 S
C818 C819 1.287 . S
C819 C818 1.287 . S
C819 C820 1.524 . S
C819 H822 0.999 . S
C820 H790 0.950 . S
C820 C819 1.524 . S
C820 C821 1.415 . S
C821 H791 0.950 . S
C821 C816 1.363 . S
C821 C820 1.415 . S
H822 C819 0.999 . S
H823 C804 0.913 . S
H824 C842 0.951 . S
H825 C844 0.951 . S
H826 C846 0.950 . S
H827 C847 0.950 . S
H828 C849 0.950 . S
H829 C852 0.950 . S
H830 C853 0.950 . S
H831 C855 0.950 . S
H832 C856 0.950 . S
H833 C857 0.951 . S
H834 C859 0.951 . S
H835 C861 0.950 . S
H836 C862 0.950 . S
H837 C864 0.950 . S
H838 C867 0.950 . S
H839 C868 0.950 . S
H840 C870 0.950 . S
H841 C871 0.950 . S
C842 H824 0.951 . S
C842 C843 1.366 . S
C842 C844 1.388 . S
C843 C842 1.366 . S
C843 C847 1.385 . S
C844 H825 0.951 . S
C844 C842 1.388 . S
C844 C845 1.366 . S
C845 C844 1.366 . S
C845 C846 1.414 . S
C845 C848 1.499 . S
C846 H826 0.950 . S
C846 C845 1.414 . S
C846 C847 1.374 . S
C847 H827 0.950 . S
C847 C843 1.385 . S
C847 C846 1.374 . S
C848 C845 1.499 . S
C848 C849 1.373 . S
C848 C850 1.389 . S
C849 H828 0.950 . S
C849 C848 1.373 . S
C849 C865 1.377 . S
C850 C848 1.389 . S
C850 C851 1.524 . S
C850 C864 1.377 . S
C851 C850 1.524 . S
C851 C852 1.397 . S
C851 C856 1.363 . S
C852 H829 0.950 . S
C852 C851 1.397 . S
C852 C853 1.334 . S
C853 H830 0.950 . S
C853 C852 1.334 . S
C853 C854 1.287 . S
C854 C853 1.287 . S
C854 C855 1.524 . S
C854 H873 0.913 . S
C855 H831 0.950 . S
C855 C854 1.524 . S
C855 C856 1.415 . S
C856 H832 0.950 . S
C856 C851 1.363 . S
C856 C855 1.415 . S
C857 H833 0.951 . S
C857 C858 1.366 . S
C857 C859 1.388 . S
C858 C857 1.366 . S
C858 C862 1.385 . S
C859 H834 0.951 . S
C859 C857 1.388 . S
C859 C860 1.366 . S
C860 C859 1.366 . S
C860 C861 1.414 . S
C860 C863 1.499 . S
C861 H835 0.950 . S
C861 C860 1.414 . S
C861 C862 1.374 . S
C862 H836 0.950 . S
C862 C858 1.385 . S
C862 C861 1.374 . S
C863 C860 1.499 . S
C863 C864 1.373 . S
C863 C865 1.389 . S
C864 H837 0.950 . S
C864 C850 1.377 . S
C864 C863 1.373 . S
C865 C849 1.377 . S
C865 C863 1.389 . S
C865 C866 1.524 . S
C866 C865 1.524 . S
C866 C867 1.397 . S
C866 C871 1.363 . S
C867 H838 0.950 . S
C867 C866 1.397 . S
C867 C868 1.334 . S
C868 H839 0.950 . S
C868 C867 1.334 . S
C868 C869 1.287 . S
C869 C868 1.287 . S
C869 C870 1.524 . S
C869 H872 0.999 . S
C870 H840 0.950 . S
C870 C869 1.524 . S
C870 C871 1.415 . S
C871 H841 0.950 . S
C871 C866 1.363 . S
C871 C870 1.415 . S
H872 C869 0.999 . S
H873 C854 0.913 . S
H874 C892 0.951 . S
H875 C894 0.951 . S
H876 C896 0.950 . S
H877 C897 0.950 . S
H878 C899 0.950 . S
H879 C902 0.950 . S
H880 C903 0.950 . S
H881 C905 0.950 . S
H882 C906 0.950 . S
H883 C907 0.951 . S
H884 C909 0.951 . S
H885 C911 0.950 . S
H886 C912 0.950 . S
H887 C914 0.950 . S
H888 C917 0.950 . S
H889 C918 0.950 . S
H890 C920 0.950 . S
H891 C921 0.950 . S
C892 H874 0.951 . S
C892 C893 1.366 . S
C892 C894 1.388 . S
C893 C892 1.366 . S
C893 C897 1.385 . S
C894 H875 0.951 . S
C894 C892 1.388 . S
C894 C895 1.366 . S
C895 C894 1.366 . S
C895 C896 1.414 . S
C895 C898 1.499 . S
C896 H876 0.950 . S
C896 C895 1.414 . S
C896 C897 1.374 . S
C897 H877 0.950 . S
C897 C893 1.385 . S
C897 C896 1.374 . S
C898 C895 1.499 . S
C898 C899 1.373 . S
C898 C900 1.389 . S
C899 H878 0.950 . S
C899 C898 1.373 . S
C899 C915 1.377 . S
C900 C898 1.389 . S
C900 C901 1.524 . S
C900 C914 1.377 . S
C901 C900 1.524 . S
C901 C902 1.397 . S
C901 C906 1.363 . S
C902 H879 0.950 . S
C902 C901 1.397 . S
C902 C903 1.334 . S
C903 H880 0.950 . S
C903 C902 1.334 . S
C903 C904 1.287 . S
C904 C903 1.287 . S
C904 C905 1.524 . S
C904 H923 0.913 . S
C905 H881 0.950 . S
C905 C904 1.524 . S
C905 C906 1.415 . S
C906 H882 0.950 . S
C906 C901 1.363 . S
C906 C905 1.415 . S
C907 H883 0.951 . S
C907 C908 1.366 . S
C907 C909 1.388 . S
C908 C907 1.366 . S
C908 C912 1.385 . S
C909 H884 0.951 . S
C909 C907 1.388 . S
C909 C910 1.366 . S
C910 C909 1.366 . S
C910 C911 1.414 . S
C910 C913 1.499 . S
C911 H885 0.950 . S
C911 C910 1.414 . S
C911 C912 1.374 . S
C912 H886 0.950 . S
C912 C908 1.385 . S
C912 C911 1.374 . S
C913 C910 1.499 . S
C913 C914 1.373 . S
C913 C915 1.389 . S
C914 H887 0.950 . S
C914 C900 1.377 . S
C914 C913 1.373 . S
C915 C899 1.377 . S
C915 C913 1.389 . S
C915 C916 1.524 . S
C916 C915 1.524 . S
C916 C917 1.397 . S
C916 C921 1.363 . S
C917 H888 0.950 . S
C917 C916 1.397 . S
C917 C918 1.334 . S
C918 H889 0.950 . S
C918 C917 1.334 . S
C918 C919 1.287 . S
C919 C918 1.287 . S
C919 C920 1.524 . S
C919 H922 0.999 . S
C920 H890 0.950 . S
C920 C919 1.524 . S
C920 C921 1.415 . S
C921 H891 0.950 . S
C921 C916 1.363 . S
C921 C920 1.415 . S
H922 C919 0.999 . S
H923 C904 0.913 . S
H924 C942 0.951 . S
H925 C944 0.951 . S
H926 C946 0.950 . S
H927 C947 0.950 . S
H928 C949 0.950 . S
H929 C952 0.950 . S
H930 C953 0.950 . S
H931 C955 0.950 . S
H932 C956 0.950 . S
H933 C957 0.951 . S
H934 C959 0.951 . S
H935 C961 0.950 . S
H936 C962 0.950 . S
H937 C964 0.950 . S
H938 C967 0.950 . S
H939 C968 0.950 . S
H940 C970 0.950 . S
H941 C971 0.950 . S
C942 H924 0.951 . S
C942 C943 1.366 . S
C942 C944 1.388 . S
C943 C942 1.366 . S
C943 C947 1.385 . S
C944 H925 0.951 . S
C944 C942 1.388 . S
C944 C945 1.366 . S
C945 C944 1.366 . S
C945 C946 1.414 . S
C945 C948 1.499 . S
C946 H926 0.950 . S
C946 C945 1.414 . S
C946 C947 1.374 . S
C947 H927 0.950 . S
C947 C943 1.385 . S
C947 C946 1.374 . S
C948 C945 1.499 . S
C948 C949 1.373 . S
C948 C950 1.389 . S
C949 H928 0.950 . S
C949 C948 1.373 . S
C949 C965 1.377 . S
C950 C948 1.389 . S
C950 C951 1.524 . S
C950 C964 1.377 . S
C951 C950 1.524 . S
C951 C952 1.397 . S
C951 C956 1.363 . S
C952 H929 0.950 . S
C952 C951 1.397 . S
C952 C953 1.334 . S
C953 H930 0.950 . S
C953 C952 1.334 . S
C953 C954 1.287 . S
C954 C953 1.287 . S
C954 C955 1.524 . S
C954 H973 0.913 . S
C955 H931 0.950 . S
C955 C954 1.524 . S
C955 C956 1.415 . S
C956 H932 0.950 . S
C956 C951 1.363 . S
C956 C955 1.415 . S
C957 H933 0.951 . S
C957 C958 1.366 . S
C957 C959 1.388 . S
C958 C957 1.366 . S
C958 C962 1.385 . S
C959 H934 0.951 . S
C959 C957 1.388 . S
C959 C960 1.366 . S
C960 C959 1.366 . S
C960 C961 1.414 . S
C960 C963 1.499 . S
C961 H935 0.950 . S
C961 C960 1.414 . S
C961 C962 1.374 . S
C962 H936 0.950 . S
C962 C958 1.385 . S
C962 C961 1.374 . S
C963 C960 1.499 . S
C963 C964 1.373 . S
C963 C965 1.389 . S
C964 H937 0.950 . S
C964 C950 1.377 . S
C964 C963 1.373 . S
C965 C949 1.377 . S
C965 C963 1.389 . S
C965 C966 1.524 . S
C966 C965 1.524 . S
C966 C967 1.397 . S
C966 C971 1.363 . S
C967 H938 0.950 . S
C967 C966 1.397 . S
C967 C968 1.334 . S
C968 H939 0.950 . S
C968 C967 1.334 . S
C968 C969 1.287 . S
C969 C968 1.287 . S
C969 C970 1.524 . S
C969 H972 0.999 . S
C970 H940 0.950 . S
C970 C969 1.524 . S
C970 C971 1.415 . S
C971 H941 0.950 . S
C971 C966 1.363 . S
C971 C970 1.415 . S
H972 C969 0.999 . S
H973 C954 0.913 . S
H974 C992 0.951 . S
H975 C994 0.951 . S
H976 C996 0.950 . S
H977 C997 0.950 . S
H978 C999 0.950 . S
H979 C1002 0.950 . S
H980 C1003 0.950 . S
H981 C1005 0.950 1_565 S
H982 C1006 0.950 . S
H983 C1007 0.951 . S
H984 C1009 0.951 . S
H985 C1011 0.950 . S
H986 C1012 0.950 . S
H987 C1014 0.950 . S
H988 C1017 0.950 . S
H989 C1018 0.950 . S
H990 C1020 0.950 . S
H991 C1021 0.950 . S
C992 H974 0.951 . S
C992 C993 1.366 . S
C992 C994 1.388 . S
C993 C992 1.366 . S
C993 C997 1.385 . S
C994 H975 0.951 . S
C994 C992 1.388 . S
C994 C995 1.366 . S
C995 C994 1.366 . S
C995 C996 1.414 . S
C995 C998 1.499 . S
C996 H976 0.950 . S
C996 C995 1.414 . S
C996 C997 1.374 . S
C997 H977 0.950 . S
C997 C993 1.385 . S
C997 C996 1.374 . S
C998 C995 1.499 . S
C998 C999 1.373 . S
C998 C1000 1.389 . S
C999 H978 0.950 . S
C999 C998 1.373 . S
C999 C1015 1.377 . S
C1000 C998 1.389 . S
C1000 C1001 1.524 . S
C1000 C1014 1.377 . S
C1001 C1000 1.524 . S
C1001 C1002 1.397 . S
C1001 C1006 1.363 . S
C1002 H979 0.950 . S
C1002 C1001 1.397 . S
C1002 C1003 1.334 . S
C1003 H980 0.950 . S
C1003 C1002 1.334 . S
C1003 C1004 1.287 . S
C1004 C1003 1.287 . S
C1004 C1005 1.524 . S
C1004 H1023 0.913 1_545 S
C1005 H981 0.950 1_545 S
C1005 C1004 1.524 . S
C1005 C1006 1.415 . S
C1006 H982 0.950 . S
C1006 C1001 1.363 . S
C1006 C1005 1.415 . S
C1007 H983 0.951 . S
C1007 C1008 1.366 . S
C1007 C1009 1.388 . S
C1008 C1007 1.366 . S
C1008 C1012 1.385 . S
C1009 H984 0.951 . S
C1009 C1007 1.388 . S
C1009 C1010 1.366 . S
C1010 C1009 1.366 . S
C1010 C1011 1.414 . S
C1010 C1013 1.499 . S
C1011 H985 0.950 . S
C1011 C1010 1.414 . S
C1011 C1012 1.374 . S
C1012 H986 0.950 . S
C1012 C1008 1.385 . S
C1012 C1011 1.374 . S
C1013 C1010 1.499 . S
C1013 C1014 1.373 . S
C1013 C1015 1.389 . S
C1014 H987 0.950 . S
C1014 C1000 1.377 . S
C1014 C1013 1.373 . S
C1015 C999 1.377 . S
C1015 C1013 1.389 . S
C1015 C1016 1.524 . S
C1016 C1015 1.524 . S
C1016 C1017 1.397 . S
C1016 C1021 1.363 . S
C1017 H988 0.950 . S
C1017 C1016 1.397 . S
C1017 C1018 1.334 . S
C1018 H989 0.950 . S
C1018 C1017 1.334 . S
C1018 C1019 1.287 . S
C1019 C1018 1.287 . S
C1019 C1020 1.524 . S
C1019 H1022 0.999 . S
C1020 H990 0.950 . S
C1020 C1019 1.524 . S
C1020 C1021 1.415 . S
C1021 H991 0.950 . S
C1021 C1016 1.363 . S
C1021 C1020 1.415 . S
H1022 C1019 0.999 . S
H1023 C1004 0.913 1_565 S
H1024 C1042 0.951 . S
H1025 C1044 0.951 . S
H1026 C1046 0.917 1_554 S
H1027 C1047 0.950 1_554 S
H1028 C1049 0.950 . S
H1029 C1052 0.950 . S
H1030 C1053 0.950 . S
H1031 C1055 0.950 . S
H1032 C1056 0.950 1_545 S
H1033 C1057 0.951 . S
H1034 C1059 0.951 . S
H1035 C1061 0.917 1_556 S
H1036 C1062 0.950 1_556 S
H1037 C1064 0.950 . S
H1038 C1067 0.950 . S
H1039 C1068 0.950 . S
H1040 C1070 0.950 . S
H1041 C1071 0.950 1_565 S
C1042 H1024 0.951 . S
C1042 C1043 1.366 . S
C1042 C1044 1.388 . S
C1043 C1042 1.366 . S
C1043 C1047 1.385 . S
C1044 H1025 0.951 . S
C1044 C1042 1.388 . S
C1044 C1045 1.366 . S
C1045 C1044 1.366 . S
C1045 C1046 1.436 . S
C1045 C1048 1.499 . S
C1046 H1026 0.917 1_556 S
C1046 C1045 1.436 . S
C1046 C1047 1.387 . S
C1047 H1027 0.950 1_556 S
C1047 C1043 1.385 . S
C1047 C1046 1.387 . S
C1048 C1045 1.499 . S
C1048 C1049 1.372 1_556 S
C1048 C1050 1.389 . S
C1049 H1028 0.950 . S
C1049 C1048 1.372 1_554 S
C1049 C1065 1.378 1_565 S
C1050 C1048 1.389 . S
C1050 C1051 1.524 . S
C1050 C1064 1.378 1_565 S
C1051 C1050 1.524 . S
C1051 C1052 1.397 1_556 S
C1051 C1056 1.363 . S
C1052 H1029 0.950 . S
C1052 C1051 1.397 1_554 S
C1052 C1053 1.334 . S
C1053 H1030 0.950 . S
C1053 C1052 1.334 . S
C1053 C1054 1.287 1_554 S
C1054 C1053 1.287 1_556 S
C1054 C1055 1.524 . S
C1054 H1073 0.913 . S
C1055 H1031 0.950 . S
C1055 C1054 1.524 . S
C1055 C1056 1.415 . S
C1056 H1032 0.950 1_565 S
C1056 C1051 1.363 . S
C1056 C1055 1.415 . S
C1057 H1033 0.951 . S
C1057 C1058 1.366 . S
C1057 C1059 1.388 . S
C1058 C1057 1.366 . S
C1058 C1062 1.385 . S
C1059 H1034 0.951 . S
C1059 C1057 1.388 . S
C1059 C1060 1.366 . S
C1060 C1059 1.366 . S
C1060 C1061 1.436 . S
C1060 C1063 1.499 . S
C1061 H1035 0.917 1_554 S
C1061 C1060 1.436 . S
C1061 C1062 1.387 . S
C1062 H1036 0.950 1_554 S
C1062 C1058 1.385 . S
C1062 C1061 1.387 . S
C1063 C1060 1.499 . S
C1063 C1064 1.372 1_554 S
C1063 C1065 1.389 . S
C1064 H1037 0.950 . S
C1064 C1050 1.378 1_545 S
C1064 C1063 1.372 1_556 S
C1065 C1049 1.378 1_545 S
C1065 C1063 1.389 . S
C1065 C1066 1.524 . S
C1066 C1065 1.524 . S
C1066 C1067 1.397 1_554 S
C1066 C1071 1.363 . S
C1067 H1038 0.950 . S
C1067 C1066 1.397 1_556 S
C1067 C1068 1.334 . S
C1068 H1039 0.950 . S
C1068 C1067 1.334 . S
C1068 C1069 1.287 1_556 S
C1069 C1068 1.287 1_554 S
C1069 C1070 1.524 . S
C1069 H1072 0.999 . S
C1070 H1040 0.950 . S
C1070 C1069 1.524 . S
C1070 C1071 1.415 . S
C1071 H1041 0.950 1_545 S
C1071 C1066 1.363 . S
C1071 C1070 1.415 . S
H1072 C1069 0.999 . S
H1073 C1054 0.913 . S
H1074 C1092 0.951 . S
H1075 C1094 0.951 . S
H1076 C1096 0.950 1_556 S
H1077 C1097 0.950 . S
H1078 C1099 0.950 . S
H1079 C1102 0.950 . S
H1080 C1103 0.950 . S
H1081 C1105 0.950 . S
H1082 C1106 0.950 . S
H1083 C1107 0.951 . S
H1084 C1109 0.951 . S
H1085 C1111 0.950 1_554 S
H1086 C1112 0.950 . S
H1087 C1114 0.950 . S
H1088 C1117 0.950 . S
H1089 C1118 0.950 . S
H1090 C1120 0.950 . S
H1091 C1121 0.950 . S
C1092 H1074 0.951 . S
C1092 C1093 1.366 . S
C1092 C1094 1.388 . S
C1093 C1092 1.366 . S
C1093 C1097 1.385 . S
C1094 H1075 0.951 . S
C1094 C1092 1.388 . S
C1094 C1095 1.366 . S
C1095 C1094 1.366 . S
C1095 C1096 1.414 . S
C1095 C1098 1.499 . S
C1096 H1076 0.950 1_554 S
C1096 C1095 1.414 . S
C1096 C1097 1.374 . S
C1097 H1077 0.950 . S
C1097 C1093 1.385 . S
C1097 C1096 1.374 . S
C1098 C1095 1.499 . S
C1098 C1099 1.373 1_554 S
C1098 C1100 1.389 . S
C1099 H1078 0.950 . S
C1099 C1098 1.373 1_556 S
C1099 C1115 1.377 . S
C1100 C1098 1.389 . S
C1100 C1101 1.524 . S
C1100 C1114 1.377 . S
C1101 C1100 1.524 . S
C1101 C1102 1.397 . S
C1101 C1106 1.363 . S
C1102 H1079 0.950 . S
C1102 C1101 1.397 . S
C1102 C1103 1.334 . S
C1103 H1080 0.950 . S
C1103 C1102 1.334 . S
C1103 C1104 1.287 . S
C1104 C1103 1.287 . S
C1104 C1105 1.524 . S
C1104 H1123 0.913 . S
C1105 H1081 0.950 . S
C1105 C1104 1.524 . S
C1105 C1106 1.415 . S
C1106 H1082 0.950 . S
C1106 C1101 1.363 . S
C1106 C1105 1.415 . S
C1107 H1083 0.951 . S
C1107 C1108 1.366 . S
C1107 C1109 1.388 . S
C1108 C1107 1.366 . S
C1108 C1112 1.385 . S
C1109 H1084 0.951 . S
C1109 C1107 1.388 . S
C1109 C1110 1.366 . S
C1110 C1109 1.366 . S
C1110 C1111 1.414 . S
C1110 C1113 1.499 . S
C1111 H1085 0.950 1_556 S
C1111 C1110 1.414 . S
C1111 C1112 1.374 . S
C1112 H1086 0.950 . S
C1112 C1108 1.385 . S
C1112 C1111 1.374 . S
C1113 C1110 1.499 . S
C1113 C1114 1.373 1_556 S
C1113 C1115 1.389 . S
C1114 H1087 0.950 . S
C1114 C1100 1.377 . S
C1114 C1113 1.373 1_554 S
C1115 C1099 1.377 . S
C1115 C1113 1.389 . S
C1115 C1116 1.524 . S
C1116 C1115 1.524 . S
C1116 C1117 1.397 . S
C1116 C1121 1.363 . S
C1117 H1088 0.950 . S
C1117 C1116 1.397 . S
C1117 C1118 1.334 . S
C1118 H1089 0.950 . S
C1118 C1117 1.334 . S
C1118 C1119 1.287 . S
C1119 C1118 1.287 . S
C1119 C1120 1.524 . S
C1119 H1122 0.999 . S
C1120 H1090 0.950 . S
C1120 C1119 1.524 . S
C1120 C1121 1.415 . S
C1121 H1091 0.950 . S
C1121 C1116 1.363 . S
C1121 C1120 1.415 . S
H1122 C1119 0.999 . S
H1123 C1104 0.913 . S
H1124 C1142 0.951 . S
H1125 C1144 0.951 . S
H1126 C1146 0.951 . S
H1127 C1147 0.950 1_554 S
H1128 C1149 0.950 . S
H1129 C1152 0.950 . S
H1130 C1153 0.950 . S
H1131 C1155 0.950 . S
H1132 C1156 0.950 . S
H1133 C1157 0.951 . S
H1134 C1159 0.951 . S
H1135 C1161 0.951 . S
H1136 C1162 0.950 1_556 S
H1137 C1164 0.950 . S
H1138 C1167 0.950 . S
H1139 C1168 0.950 . S
H1140 C1170 0.950 . S
H1141 C1171 0.950 . S
C1142 H1124 0.951 . S
C1142 C1143 1.366 . S
C1142 C1144 1.388 . S
C1143 C1142 1.366 . S
C1143 C1147 1.385 . S
C1144 H1125 0.951 . S
C1144 C1142 1.388 . S
C1144 C1145 1.368 . S
C1145 C1144 1.368 . S
C1145 C1146 1.415 1_556 S
C1145 C1148 1.497 1_455 S
C1146 H1126 0.951 . S
C1146 C1145 1.415 1_554 S
C1146 C1147 1.374 1_554 S
C1147 H1127 0.950 1_556 S
C1147 C1143 1.385 . S
C1147 C1146 1.374 1_556 S
C1148 C1145 1.497 1_655 S
C1148 C1149 1.361 1_656 S
C1148 C1150 1.402 . S
C1149 H1128 0.950 . S
C1149 C1148 1.361 1_454 S
C1149 C1165 1.377 . S
C1150 C1148 1.402 . S
C1150 C1151 1.524 . S
C1150 C1164 1.377 . S
C1151 C1150 1.524 . S
C1151 C1152 1.397 . S
C1151 C1156 1.363 . S
C1152 H1129 0.950 . S
C1152 C1151 1.397 . S
C1152 C1153 1.334 . S
C1153 H1130 0.950 . S
C1153 C1152 1.334 . S
C1153 C1154 1.287 . S
C1154 C1153 1.287 . S
C1154 C1155 1.524 . S
C1154 H1173 0.913 . S
C1155 H1131 0.950 . S
C1155 C1154 1.524 . S
C1155 C1156 1.415 . S
C1156 H1132 0.950 . S
C1156 C1151 1.363 . S
C1156 C1155 1.415 . S
C1157 H1133 0.951 . S
C1157 C1158 1.366 . S
C1157 C1159 1.388 . S
C1158 C1157 1.366 . S
C1158 C1162 1.385 . S
C1159 H1134 0.951 . S
C1159 C1157 1.388 . S
C1159 C1160 1.368 . S
C1160 C1159 1.368 . S
C1160 C1161 1.415 1_554 S
C1160 C1163 1.497 1_655 S
C1161 H1135 0.951 . S
C1161 C1160 1.415 1_556 S
C1161 C1162 1.374 1_556 S
C1162 H1136 0.950 1_554 S
C1162 C1158 1.385 . S
C1162 C1161 1.374 1_554 S
C1163 C1160 1.497 1_455 S
C1163 C1164 1.361 1_454 S
C1163 C1165 1.402 . S
C1164 H1137 0.950 . S
C1164 C1150 1.377 . S
C1164 C1163 1.361 1_656 S
C1165 C1149 1.377 . S
C1165 C1163 1.402 . S
C1165 C1166 1.524 . S
C1166 C1165 1.524 . S
C1166 C1167 1.397 . S
C1166 C1171 1.363 . S
C1167 H1138 0.950 . S
C1167 C1166 1.397 . S
C1167 C1168 1.334 . S
C1168 H1139 0.950 . S
C1168 C1167 1.334 . S
C1168 C1169 1.287 . S
C1169 C1168 1.287 . S
C1169 C1170 1.524 . S
C1169 H1172 0.999 . S
C1170 H1140 0.950 . S
C1170 C1169 1.524 . S
C1170 C1171 1.415 . S
C1171 H1141 0.950 . S
C1171 C1166 1.363 . S
C1171 C1170 1.415 . S
H1172 C1169 0.999 . S
H1173 C1154 0.913 . S
H1174 C1192 0.951 . S
H1175 C1194 0.951 . S
H1176 C1196 0.950 . S
H1177 C1197 0.950 . S
H1178 C1199 0.950 . S
H1179 C1202 0.950 . S
H1180 C1203 0.950 . S
H1181 C1205 0.950 . S
H1182 C1206 0.950 . S
H1183 C1207 0.951 . S
H1184 C1209 0.951 . S
H1185 C1211 0.950 . S
H1186 C1212 0.950 . S
H1187 C1214 0.950 . S
H1188 C1217 0.950 . S
H1189 C1218 0.950 . S
H1190 C1220 0.950 . S
H1191 C1221 0.950 . S
C1192 H1174 0.951 . S
C1192 C1193 1.366 . S
C1192 C1194 1.388 . S
C1193 C1192 1.366 . S
C1193 C1197 1.385 1_565 S
C1194 H1175 0.951 . S
C1194 C1192 1.388 . S
C1194 C1195 1.366 . S
C1195 C1194 1.366 . S
C1195 C1196 1.414 1_565 S
C1195 C1198 1.501 . S
C1196 H1176 0.950 . S
C1196 C1195 1.414 1_545 S
C1196 C1197 1.374 . S
C1197 H1177 0.950 . S
C1197 C1193 1.385 1_545 S
C1197 C1196 1.374 . S
C1198 C1195 1.501 . S
C1198 C1199 1.352 1_565 S
C1198 C1200 1.410 1_554 S
C1199 H1178 0.950 . S
C1199 C1198 1.352 1_545 S
C1199 C1215 1.377 1_455 S
C1200 C1198 1.410 1_556 S
C1200 C1201 1.524 . S
C1200 C1214 1.377 1_455 S
C1201 C1200 1.524 . S
C1201 C1202 1.397 . S
C1201 C1206 1.363 . S
C1202 H1179 0.950 . S
C1202 C1201 1.397 . S
C1202 C1203 1.334 . S
C1203 H1180 0.950 . S
C1203 C1202 1.334 . S
C1203 C1204 1.287 . S
C1204 C1203 1.287 . S
C1204 C1205 1.524 . S
C1204 H1223 0.913 . S
C1205 H1181 0.950 . S
C1205 C1204 1.524 . S
C1205 C1206 1.415 . S
C1206 H1182 0.950 . S
C1206 C1201 1.363 . S
C1206 C1205 1.415 . S
C1207 H1183 0.951 . S
C1207 C1208 1.366 . S
C1207 C1209 1.388 . S
C1208 C1207 1.366 . S
C1208 C1212 1.385 1_545 S
C1209 H1184 0.951 . S
C1209 C1207 1.388 . S
C1209 C1210 1.366 . S
C1210 C1209 1.366 . S
C1210 C1211 1.414 1_545 S
C1210 C1213 1.501 . S
C1211 H1185 0.950 . S
C1211 C1210 1.414 1_565 S
C1211 C1212 1.374 . S
C1212 H1186 0.950 . S
C1212 C1208 1.385 1_565 S
C1212 C1211 1.374 . S
C1213 C1210 1.501 . S
C1213 C1214 1.352 1_545 S
C1213 C1215 1.410 1_556 S
C1214 H1187 0.950 . S
C1214 C1200 1.377 1_655 S
C1214 C1213 1.352 1_565 S
C1215 C1199 1.377 1_655 S
C1215 C1213 1.410 1_554 S
C1215 C1216 1.524 . S
C1216 C1215 1.524 . S
C1216 C1217 1.397 . S
C1216 C1221 1.363 . S
C1217 H1188 0.950 . S
C1217 C1216 1.397 . S
C1217 C1218 1.334 . S
C1218 H1189 0.950 . S
C1218 C1217 1.334 . S
C1218 C1219 1.287 . S
C1219 C1218 1.287 . S
C1219 C1220 1.524 . S
C1219 H1222 0.999 . S
C1220 H1190 0.950 . S
C1220 C1219 1.524 . S
C1220 C1221 1.415 . S
C1221 H1191 0.950 . S
C1221 C1216 1.363 . S
C1221 C1220 1.415 . S
H1222 C1219 0.999 . S
H1223 C1204 0.913 . S
H1224 C1242 0.951 . S
H1225 C1244 0.951 . S
H1226 C1246 0.950 . S
H1227 C1247 0.950 . S
H1228 C1249 0.950 . S
H1229 C1252 0.950 . S
H1230 C1253 0.950 . S
H1231 C1255 0.950 . S
H1232 C1256 0.950 . S
H1233 C1257 0.951 . S
H1234 C1259 0.951 . S
H1235 C1261 0.950 . S
H1236 C1262 0.950 . S
H1237 C1264 0.950 . S
H1238 C1267 0.950 . S
H1239 C1268 0.950 . S
H1240 C1270 0.950 . S
H1241 C1271 0.950 . S
C1242 H1224 0.951 . S
C1242 C1243 1.366 . S
C1242 C1244 1.388 . S
C1243 C1242 1.366 . S
C1243 C1247 1.385 . S
C1244 H1225 0.951 . S
C1244 C1242 1.388 . S
C1244 C1245 1.366 . S
C1245 C1244 1.366 . S
C1245 C1246 1.414 . S
C1245 C1248 1.499 . S
C1246 H1226 0.950 . S
C1246 C1245 1.414 . S
C1246 C1247 1.374 . S
C1247 H1227 0.950 . S
C1247 C1243 1.385 . S
C1247 C1246 1.374 . S
C1248 C1245 1.499 . S
C1248 C1249 1.373 . S
C1248 C1250 1.389 . S
C1249 H1228 0.950 . S
C1249 C1248 1.373 . S
C1249 C1265 1.377 . S
C1250 C1248 1.389 . S
C1250 C1251 1.524 . S
C1250 C1264 1.377 . S
C1251 C1250 1.524 . S
C1251 C1252 1.397 . S
C1251 C1256 1.363 . S
C1252 H1229 0.950 . S
C1252 C1251 1.397 . S
C1252 C1253 1.334 . S
C1253 H1230 0.950 . S
C1253 C1252 1.334 . S
C1253 C1254 1.287 . S
C1254 C1253 1.287 . S
C1254 C1255 1.524 . S
C1254 H1273 0.913 . S
C1255 H1231 0.950 . S
C1255 C1254 1.524 . S
C1255 C1256 1.415 . S
C1256 H1232 0.950 . S
C1256 C1251 1.363 . S
C1256 C1255 1.415 . S
C1257 H1233 0.951 . S
C1257 C1258 1.366 . S
C1257 C1259 1.388 . S
C1258 C1257 1.366 . S
C1258 C1262 1.385 . S
C1259 H1234 0.951 . S
C1259 C1257 1.388 . S
C1259 C1260 1.366 . S
C1260 C1259 1.366 . S
C1260 C1261 1.414 . S
C1260 C1263 1.499 . S
C1261 H1235 0.950 . S
C1261 C1260 1.414 . S
C1261 C1262 1.374 . S
C1262 H1236 0.950 . S
C1262 C1258 1.385 . S
C1262 C1261 1.374 . S
C1263 C1260 1.499 . S
C1263 C1264 1.373 . S
C1263 C1265 1.389 . S
C1264 H1237 0.950 . S
C1264 C1250 1.377 . S
C1264 C1263 1.373 . S
C1265 C1249 1.377 . S
C1265 C1263 1.389 . S
C1265 C1266 1.524 . S
C1266 C1265 1.524 . S
C1266 C1267 1.397 . S
C1266 C1271 1.363 . S
C1267 H1238 0.950 . S
C1267 C1266 1.397 . S
C1267 C1268 1.334 . S
C1268 H1239 0.950 . S
C1268 C1267 1.334 . S
C1268 C1269 1.287 . S
C1269 C1268 1.287 . S
C1269 C1270 1.524 . S
C1269 H1272 0.999 . S
C1270 H1240 0.950 . S
C1270 C1269 1.524 . S
C1270 C1271 1.415 . S
C1271 H1241 0.950 . S
C1271 C1266 1.363 . S
C1271 C1270 1.415 . S
H1272 C1269 0.999 . S
H1273 C1254 0.913 . S
H1274 C1292 0.951 . S
H1275 C1294 0.951 . S
H1276 C1296 0.950 . S
H1277 C1297 0.950 . S
H1278 C1299 0.950 . S
H1279 C1302 0.950 . S
H1280 C1303 0.950 . S
H1281 C1305 0.950 . S
H1282 C1306 0.950 . S
H1283 C1307 0.951 . S
H1284 C1309 0.951 . S
H1285 C1311 0.950 . S
H1286 C1312 0.950 . S
H1287 C1314 0.950 . S
H1288 C1317 0.950 . S
H1289 C1318 0.950 . S
H1290 C1320 0.950 . S
H1291 C1321 0.950 . S
C1292 H1274 0.951 . S
C1292 C1293 1.366 . S
C1292 C1294 1.388 . S
C1293 C1292 1.366 . S
C1293 C1297 1.385 . S
C1294 H1275 0.951 . S
C1294 C1292 1.388 . S
C1294 C1295 1.366 . S
C1295 C1294 1.366 . S
C1295 C1296 1.414 . S
C1295 C1298 1.499 . S
C1296 H1276 0.950 . S
C1296 C1295 1.414 . S
C1296 C1297 1.374 . S
C1297 H1277 0.950 . S
C1297 C1293 1.385 . S
C1297 C1296 1.374 . S
C1298 C1295 1.499 . S
C1298 C1299 1.373 . S
C1298 C1300 1.389 . S
C1299 H1278 0.950 . S
C1299 C1298 1.373 . S
C1299 C1315 1.377 1_455 S
C1300 C1298 1.389 . S
C1300 C1301 1.524 . S
C1300 C1314 1.377 1_455 S
C1301 C1300 1.524 . S
C1301 C1302 1.397 . S
C1301 C1306 1.363 . S
C1302 H1279 0.950 . S
C1302 C1301 1.397 . S
C1302 C1303 1.334 . S
C1303 H1280 0.950 . S
C1303 C1302 1.334 . S
C1303 C1304 1.287 . S
C1304 C1303 1.287 . S
C1304 C1305 1.524 . S
C1304 H1323 0.913 . S
C1305 H1281 0.950 . S
C1305 C1304 1.524 . S
C1305 C1306 1.415 . S
C1306 H1282 0.950 . S
C1306 C1301 1.363 . S
C1306 C1305 1.415 . S
C1307 H1283 0.951 . S
C1307 C1308 1.366 . S
C1307 C1309 1.388 . S
C1308 C1307 1.366 . S
C1308 C1312 1.385 . S
C1309 H1284 0.951 . S
C1309 C1307 1.388 . S
C1309 C1310 1.366 . S
C1310 C1309 1.366 . S
C1310 C1311 1.414 . S
C1310 C1313 1.499 . S
C1311 H1285 0.950 . S
C1311 C1310 1.414 . S
C1311 C1312 1.374 . S
C1312 H1286 0.950 . S
C1312 C1308 1.385 . S
C1312 C1311 1.374 . S
C1313 C1310 1.499 . S
C1313 C1314 1.373 . S
C1313 C1315 1.389 . S
C1314 H1287 0.950 . S
C1314 C1300 1.377 1_655 S
C1314 C1313 1.373 . S
C1315 C1299 1.377 1_655 S
C1315 C1313 1.389 . S
C1315 C1316 1.524 . S
C1316 C1315 1.524 . S
C1316 C1317 1.397 . S
C1316 C1321 1.363 . S
C1317 H1288 0.950 . S
C1317 C1316 1.397 . S
C1317 C1318 1.334 . S
C1318 H1289 0.950 . S
C1318 C1317 1.334 . S
C1318 C1319 1.287 . S
C1319 C1318 1.287 . S
C1319 C1320 1.524 . S
C1319 H1322 0.999 . S
C1320 H1290 0.950 . S
C1320 C1319 1.524 . S
C1320 C1321 1.415 . S
C1321 H1291 0.950 . S
C1321 C1316 1.363 . S
C1321 C1320 1.415 . S
H1322 C1319 0.999 . S
H1323 C1304 0.913 . S
H1324 C1342 0.951 . S
H1325 C1344 0.951 . S
H1326 C1346 0.950 . S
H1327 C1347 0.950 . S
H1328 C1349 0.950 . S
H1329 C1352 0.950 1_455 S
H1330 C1353 0.950 . S
H1331 C1355 0.950 . S
H1332 C1356 0.950 . S
H1333 C1357 0.951 . S
H1334 C1359 0.951 . S
H1335 C1361 0.950 . S
H1336 C1362 0.950 . S
H1337 C1364 0.950 . S
H1338 C1367 0.950 1_655 S
H1339 C1368 0.950 . S
H1340 C1370 0.950 . S
H1341 C1371 0.950 . S
C1342 H1324 0.951 . S
C1342 C1343 1.366 1_655 S
C1342 C1344 1.388 . S
C1343 C1342 1.366 1_455 S
C1343 C1347 1.385 . S
C1344 H1325 0.951 . S
C1344 C1342 1.388 . S
C1344 C1345 1.366 1_655 S
C1345 C1344 1.366 1_455 S
C1345 C1346 1.414 . S
C1345 C1348 1.499 . S
C1346 H1326 0.950 . S
C1346 C1345 1.414 . S
C1346 C1347 1.374 . S
C1347 H1327 0.950 . S
C1347 C1343 1.385 . S
C1347 C1346 1.374 . S
C1348 C1345 1.499 . S
C1348 C1349 1.373 . S
C1348 C1350 1.389 1_455 S
C1349 H1328 0.950 . S
C1349 C1348 1.373 . S
C1349 C1365 1.377 1_565 S
C1350 C1348 1.389 1_655 S
C1350 C1351 1.524 . S
C1350 C1364 1.377 1_565 S
C1351 C1350 1.524 . S
C1351 C1352 1.397 . S
C1351 C1356 1.363 . S
C1352 H1329 0.950 1_655 S
C1352 C1351 1.397 . S
C1352 C1353 1.334 . S
C1353 H1330 0.950 . S
C1353 C1352 1.334 . S
C1353 C1354 1.287 . S
C1354 C1353 1.287 . S
C1354 C1355 1.524 . S
C1354 H1373 0.913 . S
C1355 H1331 0.950 . S
C1355 C1354 1.524 . S
C1355 C1356 1.415 . S
C1356 H1332 0.950 . S
C1356 C1351 1.363 . S
C1356 C1355 1.415 . S
C1357 H1333 0.951 . S
C1357 C1358 1.366 1_455 S
C1357 C1359 1.388 . S
C1358 C1357 1.366 1_655 S
C1358 C1362 1.385 . S
C1359 H1334 0.951 . S
C1359 C1357 1.388 . S
C1359 C1360 1.366 1_455 S
C1360 C1359 1.366 1_655 S
C1360 C1361 1.414 . S
C1360 C1363 1.499 . S
C1361 H1335 0.950 . S
C1361 C1360 1.414 . S
C1361 C1362 1.374 . S
C1362 H1336 0.950 . S
C1362 C1358 1.385 . S
C1362 C1361 1.374 . S
C1363 C1360 1.499 . S
C1363 C1364 1.373 . S
C1363 C1365 1.389 1_655 S
C1364 H1337 0.950 . S
C1364 C1350 1.377 1_545 S
C1364 C1363 1.373 . S
C1365 C1349 1.377 1_545 S
C1365 C1363 1.389 1_455 S
C1365 C1366 1.524 . S
C1366 C1365 1.524 . S
C1366 C1367 1.397 . S
C1366 C1371 1.363 . S
C1367 H1338 0.950 1_455 S
C1367 C1366 1.397 . S
C1367 C1368 1.334 . S
C1368 H1339 0.950 . S
C1368 C1367 1.334 . S
C1368 C1369 1.287 . S
C1369 C1368 1.287 . S
C1369 C1370 1.524 . S
C1369 H1372 0.999 . S
C1370 H1340 0.950 . S
C1370 C1369 1.524 . S
C1370 C1371 1.415 . S
C1371 H1341 0.950 . S
C1371 C1366 1.363 . S
C1371 C1370 1.415 . S
H1372 C1369 0.999 . S
H1373 C1354 0.913 . S
H1374 C1392 0.951 . S
H1375 C1394 0.951 . S
H1376 C1396 0.950 . S
H1377 C1397 0.950 . S
H1378 C1399 0.950 . S
H1379 C1402 0.950 . S
H1380 C1403 0.950 . S
H1381 C1405 0.950 . S
H1382 C1406 0.950 . S
H1383 C1407 0.951 . S
H1384 C1409 0.951 . S
H1385 C1411 0.950 . S
H1386 C1412 0.950 . S
H1387 C1414 0.950 . S
H1388 C1417 0.950 . S
H1389 C1418 0.950 . S
H1390 C1420 0.950 . S
H1391 C1421 0.950 . S
C1392 H1374 0.951 . S
C1392 C1393 1.366 1_565 S
C1392 C1394 1.388 . S
C1393 C1392 1.366 1_545 S
C1393 C1397 1.385 . S
C1394 H1375 0.951 . S
C1394 C1392 1.388 . S
C1394 C1395 1.357 1_565 S
C1395 C1394 1.357 1_545 S
C1395 C1396 1.427 . S
C1395 C1398 1.498 1_545 S
C1396 H1376 0.950 . S
C1396 C1395 1.427 . S
C1396 C1397 1.374 . S
C1397 H1377 0.950 . S
C1397 C1393 1.385 . S
C1397 C1396 1.374 . S
C1398 C1395 1.498 1_565 S
C1398 C1399 1.373 1_565 S
C1398 C1400 1.389 . S
C1399 H1378 0.950 . S
C1399 C1398 1.373 1_545 S
C1399 C1415 1.377 . S
C1400 C1398 1.389 . S
C1400 C1401 1.524 . S
C1400 C1414 1.377 . S
C1401 C1400 1.524 . S
C1401 C1402 1.397 . S
C1401 C1406 1.363 . S
C1402 H1379 0.950 . S
C1402 C1401 1.397 . S
C1402 C1403 1.334 . S
C1403 H1380 0.950 . S
C1403 C1402 1.334 . S
C1403 C1404 1.287 . S
C1404 C1403 1.287 . S
C1404 C1405 1.524 . S
C1404 H1423 0.913 . S
C1405 H1381 0.950 . S
C1405 C1404 1.524 . S
C1405 C1406 1.415 . S
C1406 H1382 0.950 . S
C1406 C1401 1.363 . S
C1406 C1405 1.415 . S
C1407 H1383 0.951 . S
C1407 C1408 1.366 1_545 S
C1407 C1409 1.388 . S
C1408 C1407 1.366 1_565 S
C1408 C1412 1.385 . S
C1409 H1384 0.951 . S
C1409 C1407 1.388 . S
C1409 C1410 1.357 1_545 S
C1410 C1409 1.357 1_565 S
C1410 C1411 1.427 . S
C1410 C1413 1.498 1_565 S
C1411 H1385 0.950 . S
C1411 C1410 1.427 . S
C1411 C1412 1.374 . S
C1412 H1386 0.950 . S
C1412 C1408 1.385 . S
C1412 C1411 1.374 . S
C1413 C1410 1.498 1_545 S
C1413 C1414 1.373 1_545 S
C1413 C1415 1.389 . S
C1414 H1387 0.950 . S
C1414 C1400 1.377 . S
C1414 C1413 1.373 1_565 S
C1415 C1399 1.377 . S
C1415 C1413 1.389 . S
C1415 C1416 1.524 . S
C1416 C1415 1.524 . S
C1416 C1417 1.397 . S
C1416 C1421 1.363 . S
C1417 H1388 0.950 . S
C1417 C1416 1.397 . S
C1417 C1418 1.334 . S
C1418 H1389 0.950 . S
C1418 C1417 1.334 . S
C1418 C1419 1.287 . S
C1419 C1418 1.287 . S
C1419 C1420 1.524 . S
C1419 H1422 0.999 . S
C1420 H1390 0.950 . S
C1420 C1419 1.524 . S
C1420 C1421 1.415 . S
C1421 H1391 0.950 . S
C1421 C1416 1.363 . S
C1421 C1420 1.415 . S
H1422 C1419 0.999 . S
H1423 C1404 0.913 . S
H1424 C1442 0.951 . S
H1425 C1444 0.951 . S
H1426 C1446 0.950 . S
H1427 C1447 0.950 . S
H1428 C1449 0.950 . S
H1429 C1452 0.950 . S
H1430 C1453 0.950 . S
H1431 C1455 0.950 . S
H1432 C1456 0.950 . S
H1433 C1457 0.951 . S
H1434 C1459 0.951 . S
H1435 C1461 0.950 . S
H1436 C1462 0.950 . S
H1437 C1464 0.950 . S
H1438 C1467 0.950 . S
H1439 C1468 0.950 . S
H1440 C1470 0.950 . S
H1441 C1471 0.950 . S
C1442 H1424 0.951 . S
C1442 C1443 1.366 . S
C1442 C1444 1.388 . S
C1443 C1442 1.366 . S
C1443 C1447 1.385 . S
C1444 H1425 0.951 . S
C1444 C1442 1.388 . S
C1444 C1445 1.366 . S
C1445 C1444 1.366 . S
C1445 C1446 1.414 . S
C1445 C1448 1.499 . S
C1446 H1426 0.950 . S
C1446 C1445 1.414 . S
C1446 C1447 1.374 . S
C1447 H1427 0.950 . S
C1447 C1443 1.385 . S
C1447 C1446 1.374 . S
C1448 C1445 1.499 . S
C1448 C1449 1.373 . S
C1448 C1450 1.389 . S
C1449 H1428 0.950 . S
C1449 C1448 1.373 . S
C1449 C1465 1.377 . S
C1450 C1448 1.389 . S
C1450 C1451 1.524 . S
C1450 C1464 1.377 . S
C1451 C1450 1.524 . S
C1451 C1452 1.397 . S
C1451 C1456 1.363 . S
C1452 H1429 0.950 . S
C1452 C1451 1.397 . S
C1452 C1453 1.334 . S
C1453 H1430 0.950 . S
C1453 C1452 1.334 . S
C1453 C1454 1.287 . S
C1454 C1453 1.287 . S
C1454 C1455 1.524 . S
C1454 H1473 0.913 . S
C1455 H1431 0.950 . S
C1455 C1454 1.524 . S
C1455 C1456 1.415 . S
C1456 H1432 0.950 . S
C1456 C1451 1.363 . S
C1456 C1455 1.415 . S
C1457 H1433 0.951 . S
C1457 C1458 1.366 . S
C1457 C1459 1.388 . S
C1458 C1457 1.366 . S
C1458 C1462 1.385 . S
C1459 H1434 0.951 . S
C1459 C1457 1.388 . S
C1459 C1460 1.366 . S
C1460 C1459 1.366 . S
C1460 C1461 1.414 . S
C1460 C1463 1.499 . S
C1461 H1435 0.950 . S
C1461 C1460 1.414 . S
C1461 C1462 1.374 . S
C1462 H1436 0.950 . S
C1462 C1458 1.385 . S
C1462 C1461 1.374 . S
C1463 C1460 1.499 . S
C1463 C1464 1.373 . S
C1463 C1465 1.389 . S
C1464 H1437 0.950 . S
C1464 C1450 1.377 . S
C1464 C1463 1.373 . S
C1465 C1449 1.377 . S
C1465 C1463 1.389 . S
C1465 C1466 1.524 . S
C1466 C1465 1.524 . S
C1466 C1467 1.397 . S
C1466 C1471 1.363 . S
C1467 H1438 0.950 . S
C1467 C1466 1.397 . S
C1467 C1468 1.334 . S
C1468 H1439 0.950 . S
C1468 C1467 1.334 . S
C1468 C1469 1.287 . S
C1469 C1468 1.287 . S
C1469 C1470 1.524 . S
C1469 H1472 0.999 . S
C1470 H1440 0.950 . S
C1470 C1469 1.524 . S
C1470 C1471 1.415 . S
C1471 H1441 0.950 . S
C1471 C1466 1.363 . S
C1471 C1470 1.415 . S
H1472 C1469 0.999 . S
H1473 C1454 0.913 . S
H1474 C1492 0.951 . S
H1475 C1494 0.951 . S
H1476 C1496 0.950 . S
H1477 C1497 0.950 . S
H1478 C1499 0.950 . S
H1479 C1502 0.950 . S
H1480 C1503 0.950 . S
H1481 C1505 0.950 . S
H1482 C1506 0.950 . S
H1483 C1507 0.951 . S
H1484 C1509 0.951 . S
H1485 C1511 0.950 . S
H1486 C1512 0.950 . S
H1487 C1514 0.950 . S
H1488 C1517 0.950 . S
H1489 C1518 0.950 . S
H1490 C1520 0.950 . S
H1491 C1521 0.950 . S
C1492 H1474 0.951 . S
C1492 C1493 1.366 . S
C1492 C1494 1.388 . S
C1493 C1492 1.366 . S
C1493 C1497 1.385 . S
C1494 H1475 0.951 . S
C1494 C1492 1.388 . S
C1494 C1495 1.366 . S
C1495 C1494 1.366 . S
C1495 C1496 1.414 . S
C1495 C1498 1.499 . S
C1496 H1476 0.950 . S
C1496 C1495 1.414 . S
C1496 C1497 1.374 . S
C1497 H1477 0.950 . S
C1497 C1493 1.385 . S
C1497 C1496 1.374 . S
C1498 C1495 1.499 . S
C1498 C1499 1.373 . S
C1498 C1500 1.389 . S
C1499 H1478 0.950 . S
C1499 C1498 1.373 . S
C1499 C1515 1.377 . S
C1500 C1498 1.389 . S
C1500 C1501 1.524 . S
C1500 C1514 1.377 . S
C1501 C1500 1.524 . S
C1501 C1502 1.397 . S
C1501 C1506 1.363 . S
C1502 H1479 0.950 . S
C1502 C1501 1.397 . S
C1502 C1503 1.334 . S
C1503 H1480 0.950 . S
C1503 C1502 1.334 . S
C1503 C1504 1.287 . S
C1504 C1503 1.287 . S
C1504 C1505 1.524 . S
C1504 H1523 0.913 . S
C1505 H1481 0.950 . S
C1505 C1504 1.524 . S
C1505 C1506 1.415 . S
C1506 H1482 0.950 . S
C1506 C1501 1.363 . S
C1506 C1505 1.415 . S
C1507 H1483 0.951 . S
C1507 C1508 1.366 . S
C1507 C1509 1.388 . S
C1508 C1507 1.366 . S
C1508 C1512 1.385 . S
C1509 H1484 0.951 . S
C1509 C1507 1.388 . S
C1509 C1510 1.366 . S
C1510 C1509 1.366 . S
C1510 C1511 1.414 . S
C1510 C1513 1.499 . S
C1511 H1485 0.950 . S
C1511 C1510 1.414 . S
C1511 C1512 1.374 . S
C1512 H1486 0.950 . S
C1512 C1508 1.385 . S
C1512 C1511 1.374 . S
C1513 C1510 1.499 . S
C1513 C1514 1.373 . S
C1513 C1515 1.389 . S
C1514 H1487 0.950 . S
C1514 C1500 1.377 . S
C1514 C1513 1.373 . S
C1515 C1499 1.377 . S
C1515 C1513 1.389 . S
C1515 C1516 1.524 . S
C1516 C1515 1.524 . S
C1516 C1517 1.397 . S
C1516 C1521 1.363 . S
C1517 H1488 0.950 . S
C1517 C1516 1.397 . S
C1517 C1518 1.334 . S
C1518 H1489 0.950 . S
C1518 C1517 1.334 . S
C1518 C1519 1.287 . S
C1519 C1518 1.287 . S
C1519 C1520 1.524 . S
C1519 H1522 0.999 . S
C1520 H1490 0.950 . S
C1520 C1519 1.524 . S
C1520 C1521 1.415 . S
C1521 H1491 0.950 . S
C1521 C1516 1.363 . S
C1521 C1520 1.415 . S
H1522 C1519 0.999 . S
H1523 C1504 0.913 . S
H1524 C1542 0.951 . S
H1525 C1544 0.951 . S
H1526 C1546 0.950 . S
H1527 C1547 0.950 . S
H1528 C1549 0.950 . S
H1529 C1552 0.950 . S
H1530 C1553 0.950 . S
H1531 C1555 0.942 1_655 S
H1532 C1556 0.950 . S
H1533 C1557 0.951 . S
H1534 C1559 0.951 . S
H1535 C1561 0.950 . S
H1536 C1562 0.950 . S
H1537 C1564 0.950 . S
H1538 C1567 0.950 . S
H1539 C1568 0.950 . S
H1540 C1570 0.950 . S
H1541 C1571 0.950 . S
C1542 H1524 0.951 . S
C1542 C1543 1.366 . S
C1542 C1544 1.388 . S
C1543 C1542 1.366 . S
C1543 C1547 1.385 . S
C1544 H1525 0.951 . S
C1544 C1542 1.388 . S
C1544 C1545 1.366 . S
C1545 C1544 1.366 . S
C1545 C1546 1.414 . S
C1545 C1548 1.499 . S
C1546 H1526 0.950 . S
C1546 C1545 1.414 . S
C1546 C1547 1.374 . S
C1547 H1527 0.950 . S
C1547 C1543 1.385 . S
C1547 C1546 1.374 . S
C1548 C1545 1.499 . S
C1548 C1549 1.373 . S
C1548 C1550 1.389 . S
C1549 H1528 0.950 . S
C1549 C1548 1.373 . S
C1549 C1565 1.377 . S
C1550 C1548 1.389 . S
C1550 C1551 1.524 . S
C1550 C1564 1.377 . S
C1551 C1550 1.524 . S
C1551 C1552 1.397 1_655 S
C1551 C1556 1.363 . S
C1552 H1529 0.950 . S
C1552 C1551 1.397 1_455 S
C1552 C1553 1.334 . S
C1553 H1530 0.950 . S
C1553 C1552 1.334 . S
C1553 C1554 1.287 . S
C1554 C1553 1.287 . S
C1554 C1555 1.524 . S
C1554 H1573 0.913 . S
C1555 H1531 0.942 1_455 S
C1555 C1554 1.524 . S
C1555 C1556 1.415 1_455 S
C1556 H1532 0.950 . S
C1556 C1551 1.363 . S
C1556 C1555 1.415 1_655 S
C1557 H1533 0.951 . S
C1557 C1558 1.366 . S
C1557 C1559 1.388 . S
C1558 C1557 1.366 . S
C1558 C1562 1.385 . S
C1559 H1534 0.951 . S
C1559 C1557 1.388 . S
C1559 C1560 1.366 . S
C1560 C1559 1.366 . S
C1560 C1561 1.414 . S
C1560 C1563 1.499 . S
C1561 H1535 0.950 . S
C1561 C1560 1.414 . S
C1561 C1562 1.374 . S
C1562 H1536 0.950 . S
C1562 C1558 1.385 . S
C1562 C1561 1.374 . S
C1563 C1560 1.499 . S
C1563 C1564 1.373 . S
C1563 C1565 1.389 . S
C1564 H1537 0.950 . S
C1564 C1550 1.377 . S
C1564 C1563 1.373 . S
C1565 C1549 1.377 . S
C1565 C1563 1.389 . S
C1565 C1566 1.524 . S
C1566 C1565 1.524 . S
C1566 C1567 1.397 . S
C1566 C1571 1.363 . S
C1567 H1538 0.950 . S
C1567 C1566 1.397 . S
C1567 C1568 1.334 . S
C1568 H1539 0.950 . S
C1568 C1567 1.334 . S
C1568 C1569 1.287 . S
C1569 C1568 1.287 . S
C1569 C1570 1.524 . S
C1569 H1572 0.999 . S
C1570 H1540 0.950 . S
C1570 C1569 1.524 . S
C1570 C1571 1.415 . S
C1571 H1541 0.950 . S
C1571 C1566 1.363 . S
C1571 C1570 1.415 . S
H1572 C1569 0.999 . S
H1573 C1554 0.913 . S
H1574 C1592 0.951 . S
H1575 C1594 0.951 . S
H1576 C1596 0.950 . S
H1577 C1597 0.950 . S
H1578 C1599 0.950 1_545 S
H1579 C1602 0.950 . S
H1580 C1603 0.950 . S
H1581 C1605 0.950 . S
H1582 C1606 0.950 . S
H1583 C1607 0.951 . S
H1584 C1609 0.951 . S
H1585 C1611 0.950 . S
H1586 C1612 0.950 . S
H1587 C1614 0.950 . S
H1588 C1617 0.950 . S
H1589 C1618 0.950 . S
H1590 C1620 0.950 . S
H1591 C1621 0.950 . S
C1592 H1574 0.951 . S
C1592 C1593 1.366 . S
C1592 C1594 1.388 . S
C1593 C1592 1.366 . S
C1593 C1597 1.385 . S
C1594 H1575 0.951 . S
C1594 C1592 1.388 . S
C1594 C1595 1.366 . S
C1595 C1594 1.366 . S
C1595 C1596 1.414 . S
C1595 C1598 1.499 . S
C1596 H1576 0.950 . S
C1596 C1595 1.414 . S
C1596 C1597 1.374 . S
C1597 H1577 0.950 . S
C1597 C1593 1.385 . S
C1597 C1596 1.374 . S
C1598 C1595 1.499 . S
C1598 C1599 1.373 . S
C1598 C1600 1.389 . S
C1599 H1578 0.950 1_565 S
C1599 C1598 1.373 . S
C1599 C1615 1.377 . S
C1600 C1598 1.389 . S
C1600 C1601 1.524 . S
C1600 C1614 1.377 . S
C1601 C1600 1.524 . S
C1601 C1602 1.397 . S
C1601 C1606 1.363 . S
C1602 H1579 0.950 . S
C1602 C1601 1.397 . S
C1602 C1603 1.334 . S
C1603 H1580 0.950 . S
C1603 C1602 1.334 . S
C1603 C1604 1.287 . S
C1604 C1603 1.287 . S
C1604 C1605 1.524 . S
C1604 H1623 0.913 . S
C1605 H1581 0.950 . S
C1605 C1604 1.524 . S
C1605 C1606 1.415 . S
C1606 H1582 0.950 . S
C1606 C1601 1.363 . S
C1606 C1605 1.415 . S
C1607 H1583 0.951 . S
C1607 C1608 1.366 . S
C1607 C1609 1.388 . S
C1608 C1607 1.366 . S
C1608 C1612 1.385 . S
C1609 H1584 0.951 . S
C1609 C1607 1.388 . S
C1609 C1610 1.366 . S
C1610 C1609 1.366 . S
C1610 C1611 1.414 . S
C1610 C1613 1.499 . S
C1611 H1585 0.950 . S
C1611 C1610 1.414 . S
C1611 C1612 1.374 . S
C1612 H1586 0.950 . S
C1612 C1608 1.385 . S
C1612 C1611 1.374 . S
C1613 C1610 1.499 . S
C1613 C1614 1.373 . S
C1613 C1615 1.389 . S
C1614 H1587 0.950 . S
C1614 C1600 1.377 . S
C1614 C1613 1.373 . S
C1615 C1599 1.377 . S
C1615 C1613 1.389 . S
C1615 C1616 1.524 1_565 S
C1616 C1615 1.524 1_545 S
C1616 C1617 1.397 . S
C1616 C1621 1.363 . S
C1617 H1588 0.950 . S
C1617 C1616 1.397 . S
C1617 C1618 1.334 . S
C1618 H1589 0.950 . S
C1618 C1617 1.334 . S
C1618 C1619 1.287 . S
C1619 C1618 1.287 . S
C1619 C1620 1.524 . S
C1619 H1622 0.999 . S
C1620 H1590 0.950 . S
C1620 C1619 1.524 . S
C1620 C1621 1.415 . S
C1621 H1591 0.950 . S
C1621 C1616 1.363 . S
C1621 C1620 1.415 . S
H1622 C1619 0.999 . S
H1623 C1604 0.913 . S
H1624 C1642 0.951 . S
H1625 C1644 0.951 . S
H1626 C1646 0.950 . S
H1627 C1647 0.950 . S
H1628 C1649 0.950 . S
H1629 C1652 0.950 . S
H1630 C1653 0.950 . S
H1631 C1655 0.950 . S
H1632 C1656 0.950 . S
H1633 C1657 0.951 . S
H1634 C1659 0.951 . S
H1635 C1661 0.950 . S
H1636 C1662 0.950 . S
H1637 C1664 0.950 . S
H1638 C1667 0.950 . S
H1639 C1668 0.950 . S
H1640 C1670 0.950 . S
H1641 C1671 0.950 . S
C1642 H1624 0.951 . S
C1642 C1643 1.366 . S
C1642 C1644 1.388 . S
C1643 C1642 1.366 . S
C1643 C1647 1.385 . S
C1644 H1625 0.951 . S
C1644 C1642 1.388 . S
C1644 C1645 1.366 . S
C1645 C1644 1.366 . S
C1645 C1646 1.414 . S
C1645 C1648 1.499 . S
C1646 H1626 0.950 . S
C1646 C1645 1.414 . S
C1646 C1647 1.374 . S
C1647 H1627 0.950 . S
C1647 C1643 1.385 . S
C1647 C1646 1.374 . S
C1648 C1645 1.499 . S
C1648 C1649 1.373 . S
C1648 C1650 1.389 . S
C1649 H1628 0.950 . S
C1649 C1648 1.373 . S
C1649 C1665 1.377 . S
C1650 C1648 1.389 . S
C1650 C1651 1.524 . S
C1650 C1664 1.377 . S
C1651 C1650 1.524 . S
C1651 C1652 1.397 . S
C1651 C1656 1.363 . S
C1652 H1629 0.950 . S
C1652 C1651 1.397 . S
C1652 C1653 1.334 . S
C1653 H1630 0.950 . S
C1653 C1652 1.334 . S
C1653 C1654 1.287 . S
C1654 C1653 1.287 . S
C1654 C1655 1.524 . S
C1654 H1673 0.913 . S
C1655 H1631 0.950 . S
C1655 C1654 1.524 . S
C1655 C1656 1.415 . S
C1656 H1632 0.950 . S
C1656 C1651 1.363 . S
C1656 C1655 1.415 . S
C1657 H1633 0.951 . S
C1657 C1658 1.366 . S
C1657 C1659 1.388 . S
C1658 C1657 1.366 . S
C1658 C1662 1.385 . S
C1659 H1634 0.951 . S
C1659 C1657 1.388 . S
C1659 C1660 1.366 . S
C1660 C1659 1.366 . S
C1660 C1661 1.414 . S
C1660 C1663 1.499 . S
C1661 H1635 0.950 . S
C1661 C1660 1.414 . S
C1661 C1662 1.374 . S
C1662 H1636 0.950 . S
C1662 C1658 1.385 . S
C1662 C1661 1.374 . S
C1663 C1660 1.499 . S
C1663 C1664 1.373 . S
C1663 C1665 1.389 . S
C1664 H1637 0.950 . S
C1664 C1650 1.377 . S
C1664 C1663 1.373 . S
C1665 C1649 1.377 . S
C1665 C1663 1.389 . S
C1665 C1666 1.524 . S
C1666 C1665 1.524 . S
C1666 C1667 1.397 . S
C1666 C1671 1.363 . S
C1667 H1638 0.950 . S
C1667 C1666 1.397 . S
C1667 C1668 1.334 . S
C1668 H1639 0.950 . S
C1668 C1667 1.334 . S
C1668 C1669 1.287 . S
C1669 C1668 1.287 . S
C1669 C1670 1.524 . S
C1669 H1672 0.999 . S
C1670 H1640 0.950 . S
C1670 C1669 1.524 . S
C1670 C1671 1.415 . S
C1671 H1641 0.950 . S
C1671 C1666 1.363 . S
C1671 C1670 1.415 . S
H1672 C1669 0.999 . S
H1673 C1654 0.913 . S
H1674 C1692 0.951 . S
H1675 C1694 0.951 . S
H1676 C1696 0.950 . S
H1677 C1697 0.950 . S
H1678 C1699 0.950 . S
H1679 C1702 0.950 . S
H1680 C1703 0.950 . S
H1681 C1705 0.950 . S
H1682 C1706 0.950 . S
H1683 C1707 0.951 . S
H1684 C1709 0.951 . S
H1685 C1711 0.950 . S
H1686 C1712 0.950 . S
H1687 C1714 0.950 . S
H1688 C1717 0.950 . S
H1689 C1718 0.950 . S
H1690 C1720 0.950 . S
H1691 C1721 0.950 . S
C1692 H1674 0.951 . S
C1692 C1693 1.366 . S
C1692 C1694 1.388 . S
C1693 C1692 1.366 . S
C1693 C1697 1.385 . S
C1694 H1675 0.951 . S
C1694 C1692 1.388 . S
C1694 C1695 1.366 . S
C1695 C1694 1.366 . S
C1695 C1696 1.414 . S
C1695 C1698 1.499 . S
C1696 H1676 0.950 . S
C1696 C1695 1.414 . S
C1696 C1697 1.374 . S
C1697 H1677 0.950 . S
C1697 C1693 1.385 . S
C1697 C1696 1.374 . S
C1698 C1695 1.499 . S
C1698 C1699 1.373 . S
C1698 C1700 1.389 . S
C1699 H1678 0.950 . S
C1699 C1698 1.373 . S
C1699 C1715 1.377 . S
C1700 C1698 1.389 . S
C1700 C1701 1.524 . S
C1700 C1714 1.377 . S
C1701 C1700 1.524 . S
C1701 C1702 1.397 . S
C1701 C1706 1.363 . S
C1702 H1679 0.950 . S
C1702 C1701 1.397 . S
C1702 C1703 1.334 . S
C1703 H1680 0.950 . S
C1703 C1702 1.334 . S
C1703 C1704 1.287 . S
C1704 C1703 1.287 . S
C1704 C1705 1.524 . S
C1704 H1723 0.913 . S
C1705 H1681 0.950 . S
C1705 C1704 1.524 . S
C1705 C1706 1.415 . S
C1706 H1682 0.950 . S
C1706 C1701 1.363 . S
C1706 C1705 1.415 . S
C1707 H1683 0.951 . S
C1707 C1708 1.366 . S
C1707 C1709 1.388 . S
C1708 C1707 1.366 . S
C1708 C1712 1.385 . S
C1709 H1684 0.951 . S
C1709 C1707 1.388 . S
C1709 C1710 1.366 . S
C1710 C1709 1.366 . S
C1710 C1711 1.414 . S
C1710 C1713 1.499 . S
C1711 H1685 0.950 . S
C1711 C1710 1.414 . S
C1711 C1712 1.374 . S
C1712 H1686 0.950 . S
C1712 C1708 1.385 . S
C1712 C1711 1.374 . S
C1713 C1710 1.499 . S
C1713 C1714 1.373 . S
C1713 C1715 1.389 . S
C1714 H1687 0.950 . S
C1714 C1700 1.377 . S
C1714 C1713 1.373 . S
C1715 C1699 1.377 . S
C1715 C1713 1.389 . S
C1715 C1716 1.524 . S
C1716 C1715 1.524 . S
C1716 C1717 1.397 . S
C1716 C1721 1.363 . S
C1717 H1688 0.950 . S
C1717 C1716 1.397 . S
C1717 C1718 1.334 . S
C1718 H1689 0.950 . S
C1718 C1717 1.334 . S
C1718 C1719 1.287 . S
C1719 C1718 1.287 . S
C1719 C1720 1.524 . S
C1719 H1722 0.999 . S
C1720 H1690 0.950 . S
C1720 C1719 1.524 . S
C1720 C1721 1.415 . S
C1721 H1691 0.950 . S
C1721 C1716 1.363 . S
C1721 C1720 1.415 . S
H1722 C1719 0.999 . S
H1723 C1704 0.913 . S
H1724 C1742 0.951 . S
H1725 C1744 0.951 . S
H1726 C1746 0.950 . S
H1727 C1747 0.950 . S
H1728 C1749 0.950 . S
H1729 C1752 0.950 . S
H1730 C1753 0.950 . S
H1731 C1755 0.950 . S
H1732 C1756 0.950 1_455 S
H1733 C1757 0.951 . S
H1734 C1759 0.951 . S
H1735 C1761 0.950 . S
H1736 C1762 0.950 . S
H1737 C1764 0.950 . S
H1738 C1767 0.950 . S
H1739 C1768 0.950 . S
H1740 C1770 0.950 . S
H1741 C1771 0.950 . S
C1742 H1724 0.951 . S
C1742 C1743 1.366 . S
C1742 C1744 1.388 . S
C1743 C1742 1.366 . S
C1743 C1747 1.385 . S
C1744 H1725 0.951 . S
C1744 C1742 1.388 . S
C1744 C1745 1.366 . S
C1745 C1744 1.366 . S
C1745 C1746 1.414 . S
C1745 C1748 1.499 . S
C1746 H1726 0.950 . S
C1746 C1745 1.414 . S
C1746 C1747 1.374 . S
C1747 H1727 0.950 . S
C1747 C1743 1.385 . S
C1747 C1746 1.374 . S
C1748 C1745 1.499 . S
C1748 C1749 1.373 . S
C1748 C1750 1.389 . S
C1749 H1728 0.950 . S
C1749 C1748 1.373 . S
C1749 C1765 1.377 . S
C1750 C1748 1.389 . S
C1750 C1751 1.524 1_455 S
C1750 C1764 1.377 . S
C1751 C1750 1.524 1_655 S
C1751 C1752 1.397 . S
C1751 C1756 1.363 . S
C1752 H1729 0.950 . S
C1752 C1751 1.397 . S
C1752 C1753 1.334 . S
C1753 H1730 0.950 . S
C1753 C1752 1.334 . S
C1753 C1754 1.287 . S
C1754 C1753 1.287 . S
C1754 C1755 1.524 . S
C1754 H1773 0.913 . S
C1755 H1731 0.950 . S
C1755 C1754 1.524 . S
C1755 C1756 1.416 . S
C1756 H1732 0.950 1_655 S
C1756 C1751 1.363 . S
C1756 C1755 1.416 . S
C1757 H1733 0.951 . S
C1757 C1758 1.366 . S
C1757 C1759 1.388 . S
C1758 C1757 1.366 . S
C1758 C1762 1.385 . S
C1759 H1734 0.951 . S
C1759 C1757 1.388 . S
C1759 C1760 1.366 . S
C1760 C1759 1.366 . S
C1760 C1761 1.414 . S
C1760 C1763 1.499 . S
C1761 H1735 0.950 . S
C1761 C1760 1.414 . S
C1761 C1762 1.374 . S
C1762 H1736 0.950 . S
C1762 C1758 1.385 . S
C1762 C1761 1.374 . S
C1763 C1760 1.499 . S
C1763 C1764 1.373 . S
C1763 C1765 1.389 . S
C1764 H1737 0.950 . S
C1764 C1750 1.377 . S
C1764 C1763 1.373 . S
C1765 C1749 1.377 . S
C1765 C1763 1.389 . S
C1765 C1766 1.524 . S
C1766 C1765 1.524 . S
C1766 C1767 1.397 . S
C1766 C1771 1.363 . S
C1767 H1738 0.950 . S
C1767 C1766 1.397 . S
C1767 C1768 1.334 . S
C1768 H1739 0.950 . S
C1768 C1767 1.334 . S
C1768 C1769 1.287 . S
C1769 C1768 1.287 . S
C1769 C1770 1.524 . S
C1769 H1772 0.999 . S
C1770 H1740 0.950 . S
C1770 C1769 1.524 . S
C1770 C1771 1.415 . S
C1771 H1741 0.950 . S
C1771 C1766 1.363 . S
C1771 C1770 1.415 . S
H1772 C1769 0.999 . S
H1773 C1754 0.913 . S
H1774 C1792 0.951 . S
H1775 C1794 0.951 . S
H1776 C1796 0.950 . S
H1777 C1797 0.950 . S
H1778 C1799 0.950 1_565 S
H1779 C1802 0.950 . S
H1780 C1803 0.950 . S
H1781 C1805 0.950 . S
H1782 C1806 0.950 . S
H1783 C1807 0.951 . S
H1784 C1809 0.951 . S
H1785 C1811 0.950 . S
H1786 C1812 0.950 . S
H1787 C1814 0.950 . S
H1788 C1817 0.950 . S
H1789 C1818 0.950 . S
H1790 C1820 0.950 . S
H1791 C1821 0.950 . S
C1792 H1774 0.951 . S
C1792 C1793 1.366 . S
C1792 C1794 1.388 . S
C1793 C1792 1.366 . S
C1793 C1797 1.385 . S
C1794 H1775 0.951 . S
C1794 C1792 1.388 . S
C1794 C1795 1.366 . S
C1795 C1794 1.366 . S
C1795 C1796 1.414 . S
C1795 C1798 1.499 . S
C1796 H1776 0.950 . S
C1796 C1795 1.414 . S
C1796 C1797 1.374 . S
C1797 H1777 0.950 . S
C1797 C1793 1.385 . S
C1797 C1796 1.374 . S
C1798 C1795 1.499 . S
C1798 C1799 1.373 . S
C1798 C1800 1.389 . S
C1799 H1778 0.950 1_545 S
C1799 C1798 1.373 . S
C1799 C1815 1.377 . S
C1800 C1798 1.389 . S
C1800 C1801 1.524 . S
C1800 C1814 1.377 . S
C1801 C1800 1.524 . S
C1801 C1802 1.397 . S
C1801 C1806 1.363 . S
C1802 H1779 0.950 . S
C1802 C1801 1.397 . S
C1802 C1803 1.334 . S
C1803 H1780 0.950 . S
C1803 C1802 1.334 . S
C1803 C1804 1.287 . S
C1804 C1803 1.287 . S
C1804 C1805 1.524 . S
C1804 H1823 0.913 . S
C1805 H1781 0.950 . S
C1805 C1804 1.524 . S
C1805 C1806 1.415 . S
C1806 H1782 0.950 . S
C1806 C1801 1.363 . S
C1806 C1805 1.415 . S
C1807 H1783 0.951 . S
C1807 C1808 1.366 . S
C1807 C1809 1.388 . S
C1808 C1807 1.366 . S
C1808 C1812 1.385 . S
C1809 H1784 0.951 . S
C1809 C1807 1.388 . S
C1809 C1810 1.366 . S
C1810 C1809 1.366 . S
C1810 C1811 1.414 . S
C1810 C1813 1.499 . S
C1811 H1785 0.950 . S
C1811 C1810 1.414 . S
C1811 C1812 1.374 . S
C1812 H1786 0.950 . S
C1812 C1808 1.385 . S
C1812 C1811 1.374 . S
C1813 C1810 1.499 . S
C1813 C1814 1.373 . S
C1813 C1815 1.389 . S
C1814 H1787 0.950 . S
C1814 C1800 1.377 . S
C1814 C1813 1.373 . S
C1815 C1799 1.377 . S
C1815 C1813 1.389 . S
C1815 C1816 1.524 1_545 S
C1816 C1815 1.524 1_565 S
C1816 C1817 1.397 . S
C1816 C1821 1.363 . S
C1817 H1788 0.950 . S
C1817 C1816 1.397 . S
C1817 C1818 1.334 . S
C1818 H1789 0.950 . S
C1818 C1817 1.334 . S
C1818 C1819 1.287 . S
C1819 C1818 1.287 . S
C1819 C1820 1.524 . S
C1819 H1822 0.999 . S
C1820 H1790 0.950 . S
C1820 C1819 1.524 . S
C1820 C1821 1.415 . S
C1821 H1791 0.950 . S
C1821 C1816 1.363 . S
C1821 C1820 1.415 . S
H1822 C1819 0.999 . S
H1823 C1804 0.913 . S
C243 C9 0.656 . S
C258 C133 0.633 . S
C293 C147 0.632 . S
C308 C23 0.654 . S
C343 C161 0.633 . S
C358 C37 0.655 . S
C393 C119 0.633 . S
C408 C51 0.655 . S
C443 C65 0.654 . S
C458 C217 0.632 . S
C493 C175 0.632 . S
C508 C79 0.657 . S
C543 C189 0.631 . S
C558 C93 0.657 . S
C593 C203 0.633 . S
C608 C107 0.654 . S
C643 C121 0.655 . S
C658 C21 0.633 . S
C693 C135 0.657 . S
C708 C35 0.632 . S
C743 C149 0.656 . S
C758 C49 0.633 . S
C793 C7 0.631 . S
C808 C163 0.657 . S
C843 C177 0.655 . S
C858 C105 0.631 . S
C893 C191 0.657 . S
C908 C63 0.631 . S
C943 C77 0.632 . S
C958 C205 0.657 . S
C993 C219 0.655 . S
C1008 C91 0.633 . S
C1043 C120 1.685 . S
C1058 C8 1.685 . S
C1093 C22 1.686 . S
C1108 C134 1.686 . S
C1143 C148 1.685 . S
C1158 C36 1.685 . S
C1193 C50 1.686 . S
C1208 C162 1.686 . S
C1243 C176 1.686 . S
C1258 C64 1.686 . S
C1293 C78 1.685 . S
C1308 C190 1.685 . S
C1343 C204 1.686 . S
C1358 C92 1.686 . S
C1393 C218 1.685 . S
C1408 C106 1.685 . S
C1443 C59 1.701 . S
C1458 C3 1.701 . S
C1493 C73 1.701 . S
C1508 C17 1.701 . S
C1543 C31 1.701 . S
C1558 C87 1.701 . S
C1593 C101 1.701 . S
C1608 C45 1.701 . S
C1643 C115 1.701 . S
C1658 C171 1.701 . S
C1693 C185 1.701 . S
C1708 C129 1.701 . S
C1743 C199 1.701 . S
C1758 C143 1.701 . S
C1793 C213 1.701 . S
C1808 C157 1.701 . S
