# Generated by pormake.
# Topology ske, (6)-cn, num edge types: 1
# Building blocks:
#     Node 0, Type 0, BuildingBlock: BETFAJ_clean_sbu_0, # of connection points: 6
#     Node 1, Type 0, BuildingBlock: BETFAJ_clean_sbu_0, # of connection points: 6
#     Node 2, Type 0, BuildingBlock: BETFAJ_clean_sbu_0, # of connection points: 6
#     Node 3, Type 0, BuildingBlock: BETFAJ_clean_sbu_0, # of connection points: 6
#     Node 4, Type 0, BuildingBlock: BETFAJ_clean_sbu_0, # of connection points: 6
#     Node 5, Type 0, BuildingBlock: BETFAJ_clean_sbu_0, # of connection points: 6
#     Node 6, Type 0, BuildingBlock: BETFAJ_clean_sbu_0, # of connection points: 6
#     Node 7, Type 0, BuildingBlock: BETFAJ_clean_sbu_0, # of connection points: 6
#     Edge 8, Type (0, 0), BuildingBlock: XIVTED_clean_linker_0, # of connection points: 2
#     Edge 9, Type (0, 0), BuildingBlock: XIVTED_clean_linker_0, # of connection points: 2
#     Edge 10, Type (0, 0), BuildingBlock: XIVTED_clean_linker_0, # of connection points: 2
#     Edge 11, Type (0, 0), BuildingBlock: XIVTED_clean_linker_0, # of connection points: 2
#     Edge 12, Type (0, 0), BuildingBlock: XIVTED_clean_linker_0, # of connection points: 2
#     Edge 13, Type (0, 0), BuildingBlock: XIVTED_clean_linker_0, # of connection points: 2
#     Edge 14, Type (0, 0), BuildingBlock: XIVTED_clean_linker_0, # of connection points: 2
#     Edge 15, Type (0, 0), BuildingBlock: XIVTED_clean_linker_0, # of connection points: 2
#     Edge 16, Type (0, 0), BuildingBlock: XIVTED_clean_linker_0, # of connection points: 2
#     Edge 17, Type (0, 0), BuildingBlock: XIVTED_clean_linker_0, # of connection points: 2
#     Edge 18, Type (0, 0), BuildingBlock: XIVTED_clean_linker_0, # of connection points: 2
#     Edge 19, Type (0, 0), BuildingBlock: XIVTED_clean_linker_0, # of connection points: 2
#     Edge 20, Type (0, 0), BuildingBlock: XIVTED_clean_linker_0, # of connection points: 2
#     Edge 21, Type (0, 0), BuildingBlock: XIVTED_clean_linker_0, # of connection points: 2
#     Edge 22, Type (0, 0), BuildingBlock: XIVTED_clean_linker_0, # of connection points: 2
#     Edge 23, Type (0, 0), BuildingBlock: XIVTED_clean_linker_0, # of connection points: 2
#     Edge 24, Type (0, 0), BuildingBlock: XIVTED_clean_linker_0, # of connection points: 2
#     Edge 25, Type (0, 0), BuildingBlock: XIVTED_clean_linker_0, # of connection points: 2
#     Edge 26, Type (0, 0), BuildingBlock: XIVTED_clean_linker_0, # of connection points: 2
#     Edge 27, Type (0, 0), BuildingBlock: XIVTED_clean_linker_0, # of connection points: 2
#     Edge 28, Type (0, 0), BuildingBlock: XIVTED_clean_linker_0, # of connection points: 2
#     Edge 29, Type (0, 0), BuildingBlock: XIVTED_clean_linker_0, # of connection points: 2
#     Edge 30, Type (0, 0), BuildingBlock: XIVTED_clean_linker_0, # of connection points: 2
#     Edge 31, Type (0, 0), BuildingBlock: XIVTED_clean_linker_0, # of connection points: 2
# Relax obj value: 0.206
# Max RMSD: 0.207
# Mean RMSD: 0.201
data_MOF--net-ske--node1-BETFAJ_clean_sbu_0--edge1-XIVTED_clean_linker_0
_symmetry_space_group_name_H-M    P1
_symmetry_Int_Tables_number       1
_symmetry_cell_setting            triclinic
loop_
_symmetry_equiv_pos_as_xyz
'x, y, z'
_cell_length_a     103.83395
_cell_length_b     29.490721
_cell_length_c     15.789738
_cell_angle_alpha  90.008599
_cell_angle_beta   90.042057
_cell_angle_gamma 84.169336
loop_
_atom_site_label
_atom_site_type_symbol
_atom_site_fract_x
_atom_site_fract_y
_atom_site_fract_z
_atom_type_partial_charge
Sm0 Sm 0.15655 0.25898 0.52545 0.0
Sm1 Sm 0.12585 0.24915 0.5285 0.0
C2 C 0.18004 0.28658 0.53797 0.0
C3 C 0.19268 0.27958 0.5819 0.0
C4 C 0.19811 0.31759 0.61456 0.0
C5 C 0.21055 0.31301 0.64969 0.0
C6 C 0.21789 0.27022 0.65278 0.0
C7 C 0.21232 0.23194 0.62151 0.0
C8 C 0.19984 0.23655 0.58649 0.0
C9 C 0.14981 0.17075 0.51476 0.0
C10 C 0.14173 0.25306 0.71009 0.0
C11 C 0.10292 0.21691 0.52967 0.0
C12 C 0.08913 0.22636 0.50506 0.0
C13 C 0.08336 0.19468 0.45494 0.0
C14 C 0.07 0.19986 0.43941 0.0
C15 C 0.06206 0.23675 0.47419 0.0
C16 C 0.06795 0.26923 0.52224 0.0
C17 C 0.08131 0.26413 0.53745 0.0
C18 C 0.13043 0.34034 0.50932 0.0
C19 C 0.14095 0.25682 0.34826 0.0
O20 O 0.17008 0.30502 0.58102 0.0
O21 O 0.17707 0.25516 0.48483 0.0
O22 O 0.144 0.20247 0.55829 0.0
O23 O 0.16036 0.18387 0.4831 0.0
O24 O 0.15245 0.26035 0.66901 0.0
O25 O 0.13091 0.24503 0.67076 0.0
O26 O 0.11152 0.20705 0.4698 0.0
O27 O 0.10717 0.24132 0.59114 0.0
O28 O 0.13845 0.30568 0.51556 0.0
O29 O 0.11889 0.32703 0.51241 0.0
O30 O 0.13191 0.23695 0.38918 0.0
O31 O 0.15011 0.27626 0.38882 0.0
H32 H 0.19284 0.35118 0.61103 0.0
H33 H 0.21455 0.34333 0.67203 0.0
H34 H 0.21761 0.19838 0.6239 0.0
H35 H 0.19589 0.20659 0.56187 0.0
H36 H 0.08914 0.16515 0.42951 0.0
H37 H 0.06589 0.17457 0.4009 0.0
H38 H 0.06218 0.2978 0.55097 0.0
H39 H 0.08543 0.2891 0.57671 0.0
Sm40 Sm 0.87187 0.2453 0.52844 0.0
Sm41 Sm 0.89999 0.25689 0.53874 0.0
C42 C 0.84797 0.2208 0.53957 0.0
C43 C 0.83548 0.22809 0.58515 0.0
C44 C 0.82926 0.19008 0.60933 0.0
C45 C 0.8168 0.19557 0.64409 0.0
C46 C 0.81025 0.23933 0.65524 0.0
C47 C 0.81666 0.27748 0.63308 0.0
C48 C 0.82915 0.27194 0.59845 0.0
C49 C 0.87723 0.33498 0.51599 0.0
C50 C 0.88496 0.25874 0.7148 0.0
C51 C 0.92402 0.28057 0.53089 0.0
C52 C 0.93755 0.26911 0.50204 0.0
C53 C 0.94335 0.29985 0.44995 0.0
C54 C 0.95666 0.29382 0.43334 0.0
C55 C 0.96454 0.25703 0.46901 0.0
C56 C 0.95861 0.22519 0.51824 0.0
C57 C 0.94529 0.23115 0.53458 0.0
C58 C 0.89456 0.16689 0.54734 0.0
C59 C 0.8866 0.24658 0.35199 0.0
O60 O 0.85787 0.19926 0.57891 0.0
O61 O 0.8512 0.25367 0.49094 0.0
O62 O 0.88248 0.30616 0.56745 0.0
O63 O 0.86846 0.31769 0.47164 0.0
O64 O 0.8761 0.23873 0.67271 0.0
O65 O 0.89401 0.2779 0.67371 0.0
O66 O 0.91509 0.29416 0.47539 0.0
O67 O 0.91974 0.2561 0.59167 0.0
O68 O 0.88939 0.19653 0.49742 0.0
O69 O 0.90341 0.18345 0.5921 0.0
O70 O 0.89549 0.26612 0.39493 0.0
O71 O 0.87757 0.22678 0.39214 0.0
H72 H 0.8339 0.15592 0.59901 0.0
H73 H 0.81214 0.16539 0.6594 0.0
H74 H 0.812 0.31168 0.64195 0.0
H75 H 0.83373 0.30192 0.58051 0.0
H76 H 0.93765 0.32956 0.4245 0.0
H77 H 0.96081 0.31859 0.39387 0.0
H78 H 0.96433 0.1967 0.54759 0.0
H79 H 0.94117 0.20694 0.5755 0.0
Sm80 Sm 0.12692 0.75067 0.49543 0.0
Sm81 Sm 0.15561 0.75857 0.49977 0.0
C82 C 0.10297 0.72687 0.50537 0.0
C83 C 0.08955 0.73907 0.53443 0.0
C84 C 0.08239 0.70437 0.56331 0.0
C85 C 0.06909 0.71311 0.57835 0.0
C86 C 0.06266 0.75684 0.56457 0.0
C87 C 0.07001 0.7921 0.53926 0.0
C88 C 0.08333 0.78331 0.52433 0.0
C89 C 0.13295 0.84029 0.49249 0.0
C90 C 0.14134 0.75593 0.67897 0.0
C91 C 0.17958 0.78193 0.48653 0.0
C92 C 0.19212 0.77356 0.44162 0.0
C93 C 0.19708 0.80972 0.39887 0.0
C94 C 0.20956 0.80447 0.36454 0.0
C95 C 0.21743 0.76293 0.37255 0.0
C96 C 0.21229 0.72628 0.41327 0.0
C97 C 0.19979 0.73154 0.44753 0.0
C98 C 0.14939 0.66927 0.50677 0.0
C99 C 0.14147 0.75089 0.31595 0.0
O100 O 0.11191 0.71416 0.56133 0.0
O101 O 0.10715 0.75086 0.44353 0.0
O102 O 0.13863 0.80853 0.53611 0.0
O103 O 0.12299 0.82636 0.45499 0.0
O104 O 0.13204 0.73821 0.63699 0.0
O105 O 0.15051 0.77481 0.63823 0.0
O106 O 0.16974 0.80283 0.44559 0.0
O107 O 0.17625 0.75042 0.53801 0.0
O108 O 0.14391 0.70033 0.46051 0.0
O109 O 0.15915 0.68386 0.54571 0.0
O110 O 0.15088 0.76814 0.3573 0.0
O111 O 0.13214 0.73333 0.3573 0.0
H112 H 0.08697 0.66991 0.57075 0.0
H113 H 0.06376 0.685 0.59685 0.0
H114 H 0.06541 0.82632 0.52933 0.0
H115 H 0.08865 0.81073 0.50215 0.0
H116 H 0.19141 0.84254 0.39384 0.0
H117 H 0.21309 0.83318 0.33239 0.0
H118 H 0.2181 0.69394 0.4214 0.0
H119 H 0.19629 0.70305 0.4806 0.0
Sm120 Sm 0.89958 0.75158 0.51864 0.0
Sm121 Sm 0.87098 0.75082 0.52483 0.0
C122 C 0.9245 0.76074 0.53646 0.0
C123 C 0.93853 0.76458 0.54714 0.0
C124 C 0.9438 0.80568 0.53015 0.0
C125 C 0.95714 0.80853 0.53835 0.0
C126 C 0.96549 0.77037 0.56392 0.0
C127 C 0.96015 0.72941 0.5814 0.0
C128 C 0.94685 0.72657 0.57312 0.0
C129 C 0.89116 0.66653 0.49899 0.0
C130 C 0.88523 0.74835 0.70195 0.0
C131 C 0.84636 0.73422 0.51118 0.0
C132 C 0.83416 0.7417 0.46167 0.0
C133 C 0.83116 0.71 0.40001 0.0
C134 C 0.81892 0.71343 0.36191 0.0
C135 C 0.80934 0.74849 0.38485 0.0
C136 C 0.81249 0.78096 0.44471 0.0
C137 C 0.82472 0.77751 0.48285 0.0
C138 C 0.879 0.8367 0.54253 0.0
C139 C 0.88549 0.75656 0.33823 0.0
O140 O 0.91617 0.79467 0.51274 0.0
O141 O 0.91952 0.72259 0.55112 0.0
O142 O 0.88697 0.69566 0.55342 0.0
O143 O 0.89998 0.68189 0.45189 0.0
O144 O 0.89445 0.76615 0.65952 0.0
O145 O 0.87589 0.73055 0.66133 0.0
O146 O 0.85602 0.70749 0.47972 0.0
O147 O 0.85014 0.76851 0.5538 0.0
O148 O 0.88352 0.80709 0.48987 0.0
O149 O 0.86965 0.82218 0.58579 0.0
O150 O 0.87505 0.74713 0.38016 0.0
O151 O 0.89616 0.7648 0.37802 0.0
H152 H 0.93763 0.83558 0.51012 0.0
H153 H 0.96089 0.84074 0.52522 0.0
H154 H 0.96628 0.69913 0.59987 0.0
H155 H 0.94312 0.69433 0.58638 0.0
H156 H 0.83814 0.68168 0.38285 0.0
H157 H 0.8169 0.68818 0.31523 0.0
H158 H 0.80533 0.80807 0.46483 0.0
H159 H 0.82661 0.80208 0.53113 0.0
Sm160 Sm 0.65653 0.75777 0.02157 0.0
Sm161 Sm 0.62783 0.75611 0.02453 0.0
C162 C 0.68076 0.77819 0.03798 0.0
C163 C 0.69299 0.77035 0.08706 0.0
C164 C 0.69604 0.80204 0.14858 0.0
C165 C 0.70827 0.7984 0.18683 0.0
C166 C 0.71779 0.76313 0.16413 0.0
C167 C 0.7146 0.73064 0.10444 0.0
C168 C 0.70237 0.73428 0.06619 0.0
C169 C 0.64933 0.67067 1.00533 0.0
C170 C 0.64164 0.75234 0.20664 0.0
C171 C 0.60285 0.74807 1.00625 0.0
C172 C 0.58881 0.74469 0.99483 0.0
C173 C 0.58285 0.70831 0.02987 0.0
C174 C 0.5694 0.7074 0.02448 0.0
C175 C 0.56163 0.74291 0.98406 0.0
C176 C 0.5677 0.77853 0.94695 0.0
C177 C 0.5811 0.77943 0.95237 0.0
C178 C 0.63618 0.84171 0.04159 0.0
C179 C 0.64255 0.75608 0.84322 0.0
O180 O 0.67083 0.80193 0.07313 0.0
O181 O 0.67741 0.74521 0.98992 0.0
O182 O 0.64394 0.70084 0.0542 0.0
O183 O 0.65937 0.68487 0.96908 0.0
O184 O 0.65218 0.76128 0.16554 0.0
O185 O 0.63099 0.74449 0.16614 0.0
O186 O 0.61074 0.71619 0.04182 0.0
O187 O 0.60834 0.78331 0.97929 0.0
O188 O 0.64044 0.81186 0.98882 0.0
O189 O 0.62732 0.82677 0.08876 0.0
O190 O 0.6334 0.73801 0.88586 0.0
O191 O 0.65165 0.77539 0.88362 0.0
H192 H 0.68909 0.83052 0.16551 0.0
H193 H 0.71031 0.82366 0.23341 0.0
H194 H 0.72172 0.70335 0.08456 0.0
H195 H 0.70044 0.70963 0.01816 0.0
H196 H 0.58854 0.6811 0.06322 0.0
H197 H 0.56505 0.67961 0.0543 0.0
H198 H 0.56207 0.80599 0.91391 0.0
H199 H 0.58539 0.80785 0.92431 0.0
Sm200 Sm 0.3711 0.74474 0.03469 0.0
Sm201 Sm 0.39954 0.75643 0.04448 0.0
C202 C 0.34726 0.71988 0.04603 0.0
C203 C 0.33487 0.72733 0.09299 0.0
C204 C 0.33012 0.69053 0.13501 0.0
C205 C 0.3178 0.69521 0.17174 0.0
C206 C 0.30988 0.73679 0.16689 0.0
C207 C 0.31481 0.77403 0.12685 0.0
C208 C 0.32716 0.76936 0.09026 0.0
C209 C 0.37655 0.83422 0.02276 0.0
C210 C 0.38433 0.75631 0.22111 0.0
C211 C 0.42329 0.78233 0.03737 0.0
C212 C 0.43695 0.77137 1.01148 0.0
C213 C 0.44304 0.80368 0.96509 0.0
C214 C 0.45644 0.79819 0.95226 0.0
C215 C 0.46409 0.76032 0.98606 0.0
C216 C 0.45787 0.72677 0.02883 0.0
C217 C 0.44445 0.73225 0.04152 0.0
C218 C 0.39426 0.66609 0.04826 0.0
C219 C 0.38593 0.748 0.85828 0.0
O220 O 0.35722 0.69825 0.08463 0.0
O221 O 0.35044 0.75262 0.99686 0.0
O222 O 0.38189 0.8052 0.07369 0.0
O223 O 0.36757 0.81731 0.97966 0.0
O224 O 0.37529 0.73764 0.17848 0.0
O225 O 0.39364 0.77467 0.18104 0.0
O226 O 0.41453 0.79339 0.97935 0.0
O227 O 0.419 0.75913 0.09992 0.0
O228 O 0.38868 0.69696 1.00258 0.0
O229 O 0.40385 0.68123 0.088 0.0
O230 O 0.3948 0.76736 0.90169 0.0
O231 O 0.37691 0.72764 0.89772 0.0
H232 H 0.33583 0.6577 0.13772 0.0
H233 H 0.31442 0.66602 0.20326 0.0
H234 H 0.30896 0.80643 0.12105 0.0
H235 H 0.33049 0.79837 0.05793 0.0
H236 H 0.4375 0.83421 0.94158 0.0
H237 H 0.46084 0.82426 0.91757 0.0
H238 H 0.46344 0.69733 0.05621 0.0
H239 H 0.44004 0.70678 0.07786 0.0
Sm240 Sm 0.62789 0.25042 0.98556 0.0
Sm241 Sm 0.65638 0.26205 0.99251 0.0
C242 C 0.60417 0.22418 0.99483 0.0
C243 C 0.59059 0.23604 0.02093 0.0
C244 C 0.58349 0.2014 0.05097 0.0
C245 C 0.57013 0.20963 0.06399 0.0
C246 C 0.56354 0.25279 0.047 0.0
C247 C 0.57079 0.28801 0.02012 0.0
C248 C 0.58418 0.27973 1.00721 0.0
C249 C 0.63306 0.3408 0.9803 0.0
C250 C 0.64189 0.25937 0.17024 0.0
C251 C 0.68024 0.28667 0.98009 0.0
C252 C 0.69265 0.27934 0.93358 0.0
C253 C 0.6989 0.3173 0.90944 0.0
C254 C 0.71129 0.31169 0.87373 0.0
C255 C 0.71776 0.26787 0.8616 0.0
C256 C 0.7113 0.22979 0.88362 0.0
C257 C 0.69887 0.23544 0.91918 0.0
C258 C 0.65081 0.17257 1.00523 0.0
C259 C 0.64276 0.25039 0.80745 0.0
O260 O 0.61297 0.21415 0.05308 0.0
O261 O 0.60841 0.24672 0.93117 0.0
O262 O 0.63887 0.31012 0.02549 0.0
O263 O 0.62336 0.3254 0.94216 0.0
O264 O 0.63296 0.23969 0.12794 0.0
O265 O 0.6508 0.27969 0.12963 0.0
O266 O 0.67029 0.30821 0.94131 0.0
O267 O 0.67709 0.25378 0.02897 0.0
O268 O 0.64548 0.20173 0.95462 0.0
O269 O 0.65988 0.18934 0.04775 0.0
O270 O 0.65191 0.2691 0.84905 0.0
O271 O 0.63354 0.23209 0.84858 0.0
H272 H 0.5882 0.16734 0.06115 0.0
H273 H 0.56488 0.18153 0.08375 0.0
H274 H 0.56609 0.32182 1.00768 0.0
H275 H 0.58945 0.30708 0.984 0.0
H276 H 0.69433 0.35148 0.92053 0.0
H277 H 0.71598 0.34181 0.85853 0.0
H278 H 0.71589 0.19554 0.87399 0.0
H279 H 0.69427 0.2055 0.93699 0.0
Sm280 Sm 0.40011 0.25014 1.00667 0.0
Sm281 Sm 0.37123 0.24889 1.00923 0.0
C282 C 0.42507 0.25877 0.02491 0.0
C283 C 0.43912 0.26241 0.03584 0.0
C284 C 0.44454 0.30276 1.01527 0.0
C285 C 0.45792 0.30514 0.02235 0.0
C286 C 0.46618 0.26722 0.05023 0.0
C287 C 0.46067 0.22706 0.07151 0.0
C288 C 0.44733 0.22471 0.06445 0.0
C289 C 0.39166 0.16471 0.99157 0.0
C290 C 0.38523 0.25033 0.18803 0.0
C291 C 0.347 0.22862 0.99231 0.0
C292 C 0.33485 0.23593 0.94257 0.0
C293 C 0.32951 0.19804 0.9085 0.0
C294 C 0.31729 0.20293 0.87012 0.0
C295 C 0.31007 0.24589 0.86526 0.0
C296 C 0.31561 0.28407 0.89722 0.0
C297 C 0.32786 0.27917 0.93547 0.0
C298 C 0.3787 0.33567 0.02417 0.0
C299 C 0.3863 0.25341 0.82447 0.0
O300 O 0.41694 0.29179 0.99524 0.0
O301 O 0.41984 0.22192 0.04593 0.0
O302 O 0.38732 0.19509 0.04315 0.0
O303 O 0.40064 0.17901 0.94448 0.0
O304 O 0.39456 0.26755 0.14564 0.0
O305 O 0.37598 0.23181 0.14759 0.0
O306 O 0.35692 0.20435 0.95824 0.0
O307 O 0.35032 0.26218 0.03903 0.0
O308 O 0.38396 0.3051 0.97566 0.0
O309 O 0.36859 0.32209 0.06063 0.0
O310 O 0.37573 0.24466 0.86552 0.0
O311 O 0.39695 0.26139 0.86496 0.0
H312 H 0.43846 0.33241 0.99309 0.0
H313 H 0.46178 0.3368 1.00634 0.0
H314 H 0.46671 0.19693 0.09187 0.0
H315 H 0.44348 0.19299 0.08033 0.0
H316 H 0.33462 0.16426 0.91397 0.0
H317 H 0.31331 0.17268 0.84722 0.0
H318 H 0.31042 0.31777 0.89346 0.0
H319 H 0.3317 0.30909 0.96115 0.0
H320 H 0.22746 0.31347 0.7901 0.0
H321 H 0.30063 0.20243 0.72746 0.0
H322 H 0.23928 0.21765 0.59145 0.0
H323 H 0.2887 0.2991 0.92449 0.0
H324 H 0.27828 0.20752 0.67654 0.0
H325 H 0.24984 0.30861 0.83993 0.0
C326 C 0.23475 0.29147 0.75673 0.0
C327 C 0.23142 0.26601 0.68621 0.0
C328 C 0.28055 0.22771 0.7308 0.0
C329 C 0.25717 0.26004 0.74357 0.0
C330 C 0.29333 0.2247 0.76015 0.0
C331 C 0.29662 0.25035 0.83056 0.0
C332 C 0.27092 0.25649 0.77213 0.0
C333 C 0.28671 0.27912 0.86939 0.0
C334 C 0.24755 0.28858 0.78549 0.0
C335 C 0.24132 0.23752 0.64662 0.0
N336 N 0.27435 0.28129 0.83988 0.0
N337 N 0.25371 0.2354 0.67566 0.0
H338 H 0.7379 0.20662 0.91406 0.0
H339 H 0.79005 0.30005 0.60139 0.0
H340 H 0.72874 0.31642 0.73646 0.0
H341 H 0.79923 0.19096 0.78044 0.0
H342 H 0.76762 0.30687 0.6505 0.0
H343 H 0.7603 0.19966 0.86443 0.0
C344 C 0.74055 0.22901 0.86403 0.0
C345 C 0.73135 0.26215 0.82944 0.0
C346 C 0.77454 0.28148 0.67918 0.0
C347 C 0.75714 0.25477 0.77301 0.0
C348 C 0.7874 0.27778 0.6516 0.0
C349 C 0.79662 0.24489 0.6868 0.0
C350 C 0.77079 0.2521 0.74262 0.0
C351 C 0.79248 0.21645 0.75062 0.0
C352 C 0.75339 0.22523 0.83616 0.0
C353 C 0.73548 0.29072 0.76581 0.0
N354 N 0.77991 0.22072 0.77638 0.0
N355 N 0.74804 0.28638 0.73976 0.0
H356 H 0.29662 0.80922 0.25019 0.0
H357 H 0.23091 0.68951 0.29362 0.0
H358 H 0.29218 0.67363 0.15924 0.0
H359 H 0.23516 0.8259 0.38098 0.0
H360 H 0.25343 0.6826 0.24607 0.0
H361 H 0.2742 0.81571 0.29964 0.0
C362 C 0.29095 0.78082 0.24039 0.0
C363 C 0.29637 0.74079 0.20035 0.0
C364 C 0.24943 0.71408 0.27552 0.0
C365 C 0.27063 0.7479 0.25762 0.0
C366 C 0.23657 0.71798 0.30308 0.0
C367 C 0.23106 0.7584 0.34131 0.0
C368 C 0.25691 0.7508 0.28627 0.0
C369 C 0.23888 0.79433 0.35072 0.0
C370 C 0.27814 0.78448 0.26904 0.0
C371 C 0.28854 0.70491 0.19076 0.0
N372 N 0.25137 0.78966 0.32354 0.0
N373 N 0.2761 0.70936 0.21896 0.0
H374 H 0.73222 0.83454 0.19444 0.0
H375 H 0.79497 0.67694 0.35441 0.0
H376 H 0.73406 0.68799 0.21293 0.0
H377 H 0.79305 0.82351 0.33622 0.0
H378 H 0.77279 0.68022 0.30138 0.0
H379 H 0.75437 0.83116 0.24761 0.0
C380 C 0.73721 0.80164 0.21044 0.0
C381 C 0.73118 0.76148 0.19926 0.0
C382 C 0.77722 0.71168 0.30881 0.0
C383 C 0.75676 0.75734 0.2591 0.0
C384 C 0.78995 0.70982 0.3385 0.0
C385 C 0.79596 0.75001 0.34973 0.0
C386 C 0.77038 0.75404 0.29003 0.0
C387 C 0.7888 0.79166 0.32955 0.0
C388 C 0.74993 0.79972 0.24022 0.0
C389 C 0.73832 0.71981 0.21955 0.0
N390 N 0.77642 0.79257 0.30075 0.0
N391 N 0.7507 0.71884 0.24842 0.0
H392 H 0.15532 0.87509 0.54037 0.0
H393 H 0.12671 0.13623 0.55053 0.0
H394 H 0.11619 0.9162 0.46005 0.0
H395 H 0.16627 0.09517 0.4797 0.0
H396 H 0.12233 0.05558 0.54647 0.0
H397 H 0.1593 0.95583 0.54788 0.0
C398 C 0.14756 0.9011 0.52467 0.0
C399 C 0.13544 0.88892 0.49906 0.0
C400 C 0.13196 0.06441 0.53194 0.0
C401 C 0.13982 0.98123 0.50939 0.0
C402 C 0.13446 0.11031 0.53438 0.0
C403 C 0.14685 0.12246 0.51487 0.0
C404 C 0.14201 0.03039 0.51227 0.0
C405 C 0.15656 0.08741 0.4947 0.0
C406 C 0.14984 0.94708 0.52879 0.0
C407 C 0.12571 0.92408 0.47957 0.0
N408 N 0.15398 0.04306 0.49466 0.0
N409 N 0.12807 0.96862 0.48579 0.0
H410 H 0.88687 0.38548 0.64239 0.0
H411 H 0.8935 0.60608 0.36805 0.0
H412 H 0.8725 0.39513 0.38608 0.0
H413 H 0.88289 0.61734 0.63172 0.0
H414 H 0.88989 0.52498 0.37168 0.0
H415 H 0.88974 0.46728 0.63868 0.0
C416 C 0.88439 0.40479 0.58529 0.0
C417 C 0.8794 0.38374 0.5145 0.0
C418 C 0.88832 0.54533 0.42854 0.0
C419 C 0.88286 0.47658 0.50943 0.0
C420 C 0.8904 0.59143 0.42659 0.0
C421 C 0.88845 0.6183 0.49962 0.0
C422 C 0.88465 0.52575 0.5047 0.0
C423 C 0.88442 0.59777 0.57393 0.0
C424 C 0.88596 0.45136 0.58341 0.0
C425 C 0.87631 0.41024 0.44211 0.0
N426 N 0.88281 0.55251 0.57493 0.0
N427 N 0.87821 0.45523 0.44106 0.0
H428 H 0.87649 0.89557 0.6753 0.0
H429 H 0.88509 0.11905 0.41667 0.0
H430 H 0.88834 0.88649 0.41372 0.0
H431 H 0.89922 0.10397 0.673 0.0
H432 H 0.88204 0.03738 0.4144 0.0
H433 H 0.88076 0.97601 0.6767 0.0
C434 C 0.88001 0.91057 0.61824 0.0
C435 C 0.8821 0.8845 0.54435 0.0
C436 C 0.88583 0.05207 0.47094 0.0
C437 C 0.88666 0.9764 0.54496 0.0
C438 C 0.8875 0.09856 0.47249 0.0
C439 C 0.89245 0.11808 0.5451 0.0
C440 C 0.88876 0.02537 0.54335 0.0
C441 C 0.89544 0.09008 0.61569 0.0
C442 C 0.88246 0.95629 0.61918 0.0
C443 C 0.88667 0.90546 0.47207 0.0
N444 N 0.89341 0.04521 0.61347 0.0
N445 N 0.88864 0.95045 0.47377 0.0
H446 H 0.16447 0.59554 0.56945 0.0
H447 H 0.11358 0.41547 0.47706 0.0
H448 H 0.12836 0.63213 0.43973 0.0
H449 H 0.15385 0.37525 0.52925 0.0
H450 H 0.11818 0.49537 0.4731 0.0
H451 H 0.16015 0.51544 0.56623 0.0
C452 C 0.15562 0.58671 0.54022 0.0
C453 C 0.14678 0.62062 0.50457 0.0
C454 C 0.12603 0.4691 0.48511 0.0
C455 C 0.1417 0.52873 0.50138 0.0
C456 C 0.12341 0.42345 0.48752 0.0
C457 C 0.13336 0.38858 0.50368 0.0
C458 C 0.13867 0.48022 0.50024 0.0
C459 C 0.14591 0.40097 0.51668 0.0
C460 C 0.15318 0.5409 0.53818 0.0
C461 C 0.13547 0.6071 0.46764 0.0
N462 N 0.14819 0.44572 0.51533 0.0
N463 N 0.13321 0.5623 0.46745 0.0
H464 H 0.66644 0.59701 0.97013 0.0
H465 H 0.61587 0.41483 0.94317 0.0
H466 H 0.62663 0.63377 0.04042 0.0
H467 H 0.65485 0.37791 0.03112 0.0
H468 H 0.61952 0.49574 0.95422 0.0
H469 H 0.66236 0.51666 0.96778 0.0
C470 C 0.65682 0.58816 0.985 0.0
C471 C 0.64685 0.62208 1.0057 0.0
C472 C 0.62724 0.46984 0.97122 0.0
C473 C 0.64208 0.53027 1.00133 0.0
C474 C 0.62521 0.42376 0.96452 0.0
C475 C 0.6351 0.38968 0.98616 0.0
C476 C 0.63936 0.48183 0.99747 0.0
C477 C 0.64698 0.40313 1.01379 0.0
C478 C 0.65453 0.54232 0.98394 0.0
C479 C 0.63459 0.60863 0.02454 0.0
N480 N 0.64884 0.44813 0.01772 0.0
N481 N 0.63249 0.56373 0.02092 0.0
H482 H 0.37274 0.89083 0.88745 0.0
H483 H 0.38276 0.11959 0.12755 0.0
H484 H 0.38622 0.88727 0.14588 0.0
H485 H 0.39473 0.10003 0.86756 0.0
H486 H 0.37957 0.03819 0.13635 0.0
H487 H 0.37652 0.97156 0.87916 0.0
C488 C 0.37648 0.90713 0.94246 0.0
C489 C 0.37919 0.88248 0.01744 0.0
C490 C 0.38288 0.05186 0.07748 0.0
C491 C 0.38323 0.9748 1.00894 0.0
C492 C 0.38461 0.09823 0.07218 0.0
C493 C 0.38903 0.11641 0.99667 0.0
C494 C 0.38522 0.02389 1.00608 0.0
C495 C 0.39135 0.08723 0.92695 0.0
C496 C 0.37866 0.95303 0.93756 0.0
C497 C 0.38407 0.90511 0.08683 0.0
N498 N 0.38929 0.04247 0.93301 0.0
N499 N 0.38578 0.95025 0.08132 0.0
H500 H 0.40149 0.37109 0.98582 0.0
H501 H 0.37241 0.63038 0.99511 0.0
H502 H 0.36202 0.41028 0.06106 0.0
H503 H 0.41109 0.59117 0.08642 0.0
H504 H 0.36875 0.54949 0.98694 0.0
H505 H 0.40563 0.45192 0.99071 0.0
C506 C 0.39371 0.39666 1.00289 0.0
C507 C 0.38143 0.38401 0.02347 0.0
C508 C 0.37803 0.55871 1.00862 0.0
C509 C 0.38599 0.47605 0.02722 0.0
C510 C 0.38013 0.60473 1.01324 0.0
C511 C 0.39202 0.61741 0.04215 0.0
C512 C 0.38803 0.52509 0.03072 0.0
C513 C 0.40174 0.58279 0.06442 0.0
C514 C 0.39608 0.4426 1.00594 0.0
C515 C 0.37166 0.41852 0.04517 0.0
N516 N 0.39957 0.53812 0.05755 0.0
N517 N 0.3741 0.46295 0.04571 0.0
H518 H 0.64052 0.12114 0.88231 0.0
H519 H 0.63362 0.90461 0.1687 0.0
H520 H 0.65529 0.11417 0.13774 0.0
H521 H 0.6443 0.88895 0.90572 0.0
H522 H 0.63713 0.98573 0.16009 0.0
H523 H 0.63724 0.03965 0.89058 0.0
C524 C 0.64299 0.10251 0.94019 0.0
C525 C 0.64824 0.12418 1.00935 0.0
C526 C 0.63871 0.96442 0.10444 0.0
C527 C 0.64429 0.03179 0.01968 0.0
C528 C 0.63671 0.9183 0.10925 0.0
C529 C 0.63873 0.89014 0.03793 0.0
C530 C 0.64239 0.98275 0.02711 0.0
C531 C 0.64272 0.90951 0.9623 0.0
C532 C 0.64118 0.05613 0.94468 0.0
C533 C 0.6513 0.09856 0.08287 0.0
N534 N 0.64427 0.95479 0.95852 0.0
N535 N 0.64916 0.05382 0.08646 0.0
H536 H 0.12268 0.22699 0.24177 0.0
H537 H 0.16117 0.27481 0.81641 0.0
H538 H 0.15905 0.28615 0.23959 0.0
H539 H 0.1226 0.23211 0.81918 0.0
H540 H 0.16101 0.2761 0.9712 0.0
H541 H 0.1229 0.22585 0.08715 0.0
C542 C 0.13072 0.23979 0.20893 0.0
C543 C 0.14087 0.25672 0.25414 0.0
C544 C 0.15258 0.26646 0.93792 0.0
C545 C 0.14119 0.25532 0.07636 0.0
C546 C 0.15267 0.26559 0.84937 0.0
C547 C 0.14188 0.25332 0.80426 0.0
C548 C 0.14165 0.25477 0.98209 0.0
C549 C 0.13114 0.24185 0.85089 0.0
C550 C 0.13083 0.23916 0.12044 0.0
C551 C 0.151 0.27287 0.20768 0.0
N552 N 0.13132 0.2428 0.93703 0.0
N553 N 0.15092 0.27166 0.12149 0.0
H554 H 0.86991 0.20882 0.24484 0.0
H555 H 0.90163 0.29738 0.82121 0.0
H556 H 0.903 0.28642 0.24434 0.0
H557 H 0.8684 0.22046 0.82313 0.0
H558 H 0.90218 0.29438 0.97573 0.0
H559 H 0.86929 0.21272 0.09063 0.0
C560 C 0.87709 0.22658 0.21239 0.0
C561 C 0.88654 0.24731 0.25796 0.0
C562 C 0.89475 0.27825 0.94244 0.0
C563 C 0.88582 0.25206 0.08049 0.0
C564 C 0.8944 0.28002 0.85403 0.0
C565 C 0.88494 0.25912 0.80881 0.0
C566 C 0.88559 0.25537 0.98637 0.0
C567 C 0.87586 0.23709 0.85512 0.0
C568 C 0.8767 0.22885 0.1241 0.0
C569 C 0.89556 0.26987 0.21203 0.0
N570 N 0.87643 0.23573 0.94121 0.0
N571 N 0.89496 0.27168 0.12592 0.0
H572 H 0.12386 0.71716 0.20964 0.0
H573 H 0.15893 0.78925 0.78576 0.0
H574 H 0.15902 0.78375 0.20787 0.0
H575 H 0.12399 0.72134 0.78661 0.0
H576 H 0.15908 0.78751 0.94022 0.0
H577 H 0.12377 0.71811 0.055 0.0
C578 C 0.13158 0.73191 0.17684 0.0
C579 C 0.14147 0.75041 0.22206 0.0
C580 C 0.15137 0.77299 0.90672 0.0
C581 C 0.14139 0.7517 0.04452 0.0
C582 C 0.15126 0.77399 0.81833 0.0
C583 C 0.14142 0.75543 0.77287 0.0
C584 C 0.14156 0.75328 0.95038 0.0
C585 C 0.13177 0.73609 0.81885 0.0
C586 C 0.13152 0.73247 0.08839 0.0
C587 C 0.1512 0.76908 0.17585 0.0
N588 N 0.13209 0.73553 0.905 0.0
N589 N 0.15091 0.76928 0.08972 0.0
H590 H 0.86698 0.71973 0.80915 0.0
H591 H 0.90438 0.78061 0.23107 0.0
H592 H 0.90328 0.77934 0.80872 0.0
H593 H 0.86632 0.73361 0.23112 0.0
H594 H 0.90433 0.77896 0.07663 0.0
H595 H 0.86683 0.72272 0.96364 0.0
C596 C 0.87494 0.73338 0.84147 0.0
C597 C 0.88517 0.74928 0.79573 0.0
C598 C 0.89597 0.76912 0.11035 0.0
C599 C 0.88504 0.75284 0.97301 0.0
C600 C 0.89599 0.77002 0.19871 0.0
C601 C 0.88534 0.75718 0.2444 0.0
C602 C 0.88525 0.75505 0.067 0.0
C603 C 0.87474 0.74386 0.1987 0.0
C604 C 0.87483 0.73517 0.9298 0.0
C605 C 0.8952 0.76668 0.84124 0.0
N606 N 0.87499 0.74301 0.11258 0.0
N607 N 0.89488 0.76794 0.92732 0.0
H608 H 0.62256 0.72917 0.31367 0.0
H609 H 0.6608 0.78434 0.73571 0.0
H610 H 0.66094 0.77346 0.314 0.0
H611 H 0.62444 0.72513 0.73674 0.0
H612 H 0.66072 0.78249 0.5812 0.0
H613 H 0.6228 0.72923 0.46835 0.0
C614 C 0.63105 0.73887 0.34614 0.0
C615 C 0.64175 0.75137 0.30052 0.0
C616 C 0.65276 0.76983 0.61515 0.0
C617 C 0.64206 0.75162 0.478 0.0
C618 C 0.65279 0.77094 0.70352 0.0
C619 C 0.6426 0.7549 0.74944 0.0
C620 C 0.64245 0.75275 0.57206 0.0
C621 C 0.6325 0.73784 0.70406 0.0
C622 C 0.63118 0.73884 0.43459 0.0
C623 C 0.65248 0.76353 0.34632 0.0
N624 N 0.63267 0.73732 0.61792 0.0
N625 N 0.65234 0.76347 0.43243 0.0
H626 H 0.40289 0.78643 0.75313 0.0
H627 H 0.36691 0.72098 0.32696 0.0
H628 H 0.36902 0.71279 0.74893 0.0
H629 H 0.40133 0.79172 0.32989 0.0
H630 H 0.36729 0.71909 0.48169 0.0
H631 H 0.40236 0.78956 0.59832 0.0
C632 C 0.39536 0.77081 0.71978 0.0
C633 C 0.386 0.74924 0.76434 0.0
C634 C 0.37475 0.7351 0.44851 0.0
C635 C 0.3853 0.75291 0.58683 0.0
C636 C 0.37452 0.73628 0.36002 0.0
C637 C 0.3841 0.75652 0.31509 0.0
C638 C 0.38463 0.75428 0.49269 0.0
C639 C 0.39373 0.77574 0.36166 0.0
C640 C 0.39506 0.77267 0.63129 0.0
C641 C 0.37646 0.72972 0.71748 0.0
N642 N 0.39376 0.77408 0.44775 0.0
N643 N 0.37636 0.73205 0.63149 0.0
H644 H 0.6589 0.29572 0.27726 0.0
H645 H 0.62569 0.21379 0.70094 0.0
H646 H 0.62522 0.22102 0.27783 0.0
H647 H 0.65981 0.28615 0.69929 0.0
H648 H 0.6254 0.21577 0.54633 0.0
H649 H 0.6593 0.29269 0.43165 0.0
C650 C 0.65155 0.27875 0.30975 0.0
C651 C 0.64199 0.25863 0.2642 0.0
C652 C 0.63297 0.23113 0.57972 0.0
C653 C 0.64245 0.25493 0.44171 0.0
C654 C 0.63316 0.22998 0.66817 0.0
C655 C 0.64279 0.24986 0.71347 0.0
C656 C 0.64247 0.25239 0.53586 0.0
C657 C 0.6522 0.27036 0.66724 0.0
C658 C 0.65181 0.27698 0.39811 0.0
C659 C 0.63277 0.23706 0.31012 0.0
N660 N 0.65178 0.27115 0.58112 0.0
N661 N 0.63323 0.23578 0.39625 0.0
H662 H 0.36682 0.2231 0.29552 0.0
H663 H 0.40546 0.27584 0.71735 0.0
H664 H 0.40354 0.27996 0.29449 0.0
H665 H 0.36692 0.23281 0.71728 0.0
H666 H 0.40518 0.27589 0.56269 0.0
H667 H 0.36696 0.22467 0.45005 0.0
C668 C 0.37493 0.23593 0.32771 0.0
C669 C 0.3852 0.25139 0.28179 0.0
C670 C 0.39677 0.26653 0.59651 0.0
C671 C 0.38541 0.25321 0.45915 0.0
C672 C 0.39692 0.26643 0.68494 0.0
C673 C 0.3862 0.25426 0.73062 0.0
C674 C 0.38584 0.25417 0.55318 0.0
C675 C 0.37542 0.24247 0.68491 0.0
C676 C 0.37498 0.23687 0.41608 0.0
C677 C 0.39541 0.26771 0.32716 0.0
N678 N 0.37553 0.24261 0.59881 0.0
N679 N 0.39527 0.26809 0.41329 0.0
H680 H 0.04503 0.31392 0.4521 0.0
H681 H 0.98159 0.17961 0.44982 0.0
H682 H 0.04612 0.16762 0.47346 0.0
H683 H 0.9805 0.32606 0.46747 0.0
H684 H 1.00523 0.17451 0.44474 0.0
H685 H 0.02142 0.31889 0.44419 0.0
C686 C 0.04034 0.2828 0.4552 0.0
C687 C 0.04767 0.24027 0.46387 0.0
C688 C 0.99981 0.20778 0.44932 0.0
C689 C 0.02052 0.24576 0.45379 0.0
C690 C 0.98628 0.21073 0.45258 0.0
C691 C 0.97894 0.25334 0.45943 0.0
C692 C 1.00612 0.24769 0.45277 0.0
C693 C 0.98565 0.29246 0.46109 0.0
C694 C 0.02683 0.28568 0.45025 0.0
C695 C 0.04097 0.20114 0.46576 0.0
N696 N 0.99882 0.28867 0.45811 0.0
N697 N 0.02782 0.20486 0.46107 0.0
H698 H 0.98222 0.73185 0.68497 0.0
H699 H 0.04574 0.80806 0.46021 0.0
H700 H 0.98133 0.81401 0.45845 0.0
H701 H 0.04668 0.72272 0.68264 0.0
H702 H 0.02211 0.81551 0.46496 0.0
H703 H 1.00572 0.73213 0.69024 0.0
C704 C 0.98695 0.74994 0.63622 0.0
C705 C 0.97974 0.77268 0.57078 0.0
C706 C 0.02748 0.79537 0.51306 0.0
C707 C 1.00674 0.77349 0.57696 0.0
C708 C 0.041 0.79138 0.51083 0.0
C709 C 0.04827 0.7646 0.57104 0.0
C710 C 0.02111 0.7724 0.57591 0.0
C711 C 0.04152 0.74318 0.63417 0.0
C712 C 1.00039 0.75029 0.63956 0.0
C713 C 0.98643 0.79631 0.51047 0.0
N714 N 0.02835 0.7474 0.63473 0.0
N715 N 0.99954 0.79589 0.51478 0.0
H716 H 0.54673 0.6716 0.96009 0.0
H717 H 0.47952 0.82965 1.00492 0.0
H718 H 0.54362 0.81656 1.00629 0.0
H719 H 0.48163 0.68473 0.95962 0.0
H720 H 0.50306 0.82495 1.00251 0.0
H721 H 0.52304 0.67495 0.95893 0.0
C722 C 0.54109 0.70409 0.97026 0.0
C723 C 0.54723 0.7439 0.98287 0.0
C724 C 0.49841 0.79412 0.99279 0.0
C725 C 0.52009 0.74801 0.98101 0.0
C726 C 0.48492 0.79684 0.99342 0.0
C727 C 0.47851 0.75758 0.98184 0.0
C728 C 0.50567 0.75179 0.98063 0.0
C729 C 0.48612 0.71587 0.96945 0.0
C730 C 0.52756 0.70601 0.96914 0.0
C731 C 0.53938 0.78509 0.99482 0.0
N732 N 0.49928 0.71407 0.96913 0.0
N733 N 0.52627 0.78602 0.99362 0.0
H734 H 0.48305 0.22989 0.17178 0.0
H735 H 0.54654 0.30176 0.93956 0.0
H736 H 0.48204 0.30827 0.94059 0.0
H737 H 0.54755 0.21976 0.16633 0.0
H738 H 0.52291 0.30893 0.94424 0.0
H739 H 0.50658 0.22938 0.17494 0.0
C740 C 0.48776 0.24697 0.12153 0.0
C741 C 0.48049 0.26892 0.05549 0.0
C742 C 0.52829 0.28955 0.99325 0.0
C743 C 0.50755 0.26884 0.05929 0.0
C744 C 0.54182 0.28572 0.99103 0.0
C745 C 0.54912 0.26002 0.05259 0.0
C746 C 0.52193 0.26754 0.05749 0.0
C747 C 0.54237 0.23939 0.11681 0.0
C748 C 0.50122 0.24686 0.12366 0.0
C749 C 0.48718 0.29125 0.99319 0.0
N750 N 0.5292 0.24348 0.11741 0.0
N751 N 0.5003 0.29044 0.99642 0.0
loop_
_geom_bond_atom_site_label_1
_geom_bond_atom_site_label_2
_geom_bond_distance
_geom_bond_site_symmetry_2
_ccdc_geom_bond_type
Sm0 C2 2.846 . S
Sm0 O20 2.543 . S
Sm0 O21 2.450 . S
Sm0 O22 2.681 . S
Sm0 O23 2.464 . S
Sm0 O24 2.396 . S
Sm0 O28 2.386 . S
Sm0 O31 2.408 . S
Sm1 C11 2.846 . S
Sm1 O22 2.386 . S
Sm1 O25 2.408 . S
Sm1 O26 2.543 . S
Sm1 O27 2.450 . S
Sm1 O28 2.681 . S
Sm1 O29 2.464 . S
Sm1 O30 2.396 . S
C2 Sm0 2.846 . S
C2 C3 1.506 . S
C2 O20 1.261 . S
C2 O21 1.242 . S
C3 C2 1.506 . S
C3 C4 1.358 . S
C3 C8 1.382 . S
C4 C3 1.358 . S
C4 C5 1.385 . S
C4 H32 0.930 . S
C5 C4 1.385 . S
C5 C6 1.395 . S
C5 H33 0.929 . S
C6 C5 1.395 . S
C6 C7 1.335 . S
C7 C6 1.335 . S
C7 C8 1.398 . S
C7 H34 0.930 . S
C8 C3 1.382 . S
C8 C7 1.398 . S
C8 H35 0.929 . S
C9 O22 1.271 . S
C9 O23 1.251 . S
C10 O24 1.252 . S
C10 O25 1.272 . S
C11 Sm1 2.846 . S
C11 C12 1.506 . S
C11 O26 1.261 . S
C11 O27 1.242 . S
C12 C11 1.506 . S
C12 C13 1.358 . S
C12 C17 1.382 . S
C13 C12 1.358 . S
C13 C14 1.385 . S
C13 H36 0.930 . S
C14 C13 1.385 . S
C14 C15 1.395 . S
C14 H37 0.929 . S
C15 C14 1.395 . S
C15 C16 1.335 . S
C16 C15 1.335 . S
C16 C17 1.398 . S
C16 H38 0.930 . S
C17 C12 1.382 . S
C17 C16 1.398 . S
C17 H39 0.929 . S
C18 O28 1.271 . S
C18 O29 1.251 . S
C19 O30 1.252 . S
C19 O31 1.272 . S
O20 Sm0 2.543 . S
O20 C2 1.261 . S
O21 Sm0 2.450 . S
O21 C2 1.242 . S
O22 Sm0 2.681 . S
O22 Sm1 2.386 . S
O22 C9 1.271 . S
O23 Sm0 2.464 . S
O23 C9 1.251 . S
O24 Sm0 2.396 . S
O24 C10 1.252 . S
O25 Sm1 2.408 . S
O25 C10 1.272 . S
O26 Sm1 2.543 . S
O26 C11 1.261 . S
O27 Sm1 2.450 . S
O27 C11 1.242 . S
O28 Sm0 2.386 . S
O28 Sm1 2.681 . S
O28 C18 1.271 . S
O29 Sm1 2.464 . S
O29 C18 1.251 . S
O30 Sm1 2.396 . S
O30 C19 1.252 . S
O31 Sm0 2.408 . S
O31 C19 1.272 . S
H32 C4 0.930 . S
H33 C5 0.929 . S
H34 C7 0.930 . S
H35 C8 0.929 . S
H36 C13 0.930 . S
H37 C14 0.929 . S
H38 C16 0.930 . S
H39 C17 0.929 . S
Sm40 C42 2.846 . S
Sm40 O60 2.543 . S
Sm40 O61 2.450 . S
Sm40 O62 2.681 . S
Sm40 O63 2.464 . S
Sm40 O64 2.396 . S
Sm40 O68 2.386 . S
Sm40 O71 2.408 . S
Sm41 C51 2.846 . S
Sm41 O62 2.386 . S
Sm41 O65 2.408 . S
Sm41 O66 2.543 . S
Sm41 O67 2.450 . S
Sm41 O68 2.681 . S
Sm41 O69 2.464 . S
Sm41 O70 2.396 . S
C42 Sm40 2.846 . S
C42 C43 1.506 . S
C42 O60 1.261 . S
C42 O61 1.242 . S
C43 C42 1.506 . S
C43 C44 1.358 . S
C43 C48 1.382 . S
C44 C43 1.358 . S
C44 C45 1.385 . S
C44 H72 0.930 . S
C45 C44 1.385 . S
C45 C46 1.395 . S
C45 H73 0.929 . S
C46 C45 1.395 . S
C46 C47 1.335 . S
C47 C46 1.335 . S
C47 C48 1.398 . S
C47 H74 0.930 . S
C48 C43 1.382 . S
C48 C47 1.398 . S
C48 H75 0.929 . S
C49 O62 1.271 . S
C49 O63 1.251 . S
C50 O64 1.252 . S
C50 O65 1.272 . S
C51 Sm41 2.846 . S
C51 C52 1.506 . S
C51 O66 1.261 . S
C51 O67 1.242 . S
C52 C51 1.506 . S
C52 C53 1.358 . S
C52 C57 1.382 . S
C53 C52 1.358 . S
C53 C54 1.385 . S
C53 H76 0.930 . S
C54 C53 1.385 . S
C54 C55 1.395 . S
C54 H77 0.929 . S
C55 C54 1.395 . S
C55 C56 1.335 . S
C56 C55 1.335 . S
C56 C57 1.398 . S
C56 H78 0.930 . S
C57 C52 1.382 . S
C57 C56 1.398 . S
C57 H79 0.929 . S
C58 O68 1.271 . S
C58 O69 1.251 . S
C59 O70 1.252 . S
C59 O71 1.272 . S
O60 Sm40 2.543 . S
O60 C42 1.261 . S
O61 Sm40 2.450 . S
O61 C42 1.242 . S
O62 Sm40 2.681 . S
O62 Sm41 2.386 . S
O62 C49 1.271 . S
O63 Sm40 2.464 . S
O63 C49 1.251 . S
O64 Sm40 2.396 . S
O64 C50 1.252 . S
O65 Sm41 2.408 . S
O65 C50 1.272 . S
O66 Sm41 2.543 . S
O66 C51 1.261 . S
O67 Sm41 2.450 . S
O67 C51 1.242 . S
O68 Sm40 2.386 . S
O68 Sm41 2.681 . S
O68 C58 1.271 . S
O69 Sm41 2.464 . S
O69 C58 1.251 . S
O70 Sm41 2.396 . S
O70 C59 1.252 . S
O71 Sm40 2.408 . S
O71 C59 1.272 . S
H72 C44 0.930 . S
H73 C45 0.929 . S
H74 C47 0.930 . S
H75 C48 0.929 . S
H76 C53 0.930 . S
H77 C54 0.929 . S
H78 C56 0.930 . S
H79 C57 0.929 . S
Sm80 C82 2.846 . S
Sm80 O100 2.543 . S
Sm80 O101 2.450 . S
Sm80 O102 2.681 . S
Sm80 O103 2.464 . S
Sm80 O104 2.396 . S
Sm80 O108 2.386 . S
Sm80 O111 2.408 . S
Sm81 C91 2.846 . S
Sm81 O102 2.386 . S
Sm81 O105 2.408 . S
Sm81 O106 2.543 . S
Sm81 O107 2.450 . S
Sm81 O108 2.681 . S
Sm81 O109 2.464 . S
Sm81 O110 2.396 . S
C82 Sm80 2.846 . S
C82 C83 1.506 . S
C82 O100 1.261 . S
C82 O101 1.242 . S
C83 C82 1.506 . S
C83 C84 1.358 . S
C83 C88 1.382 . S
C84 C83 1.358 . S
C84 C85 1.385 . S
C84 H112 0.930 . S
C85 C84 1.385 . S
C85 C86 1.395 . S
C85 H113 0.929 . S
C86 C85 1.395 . S
C86 C87 1.335 . S
C87 C86 1.335 . S
C87 C88 1.398 . S
C87 H114 0.930 . S
C88 C83 1.382 . S
C88 C87 1.398 . S
C88 H115 0.929 . S
C89 O102 1.271 . S
C89 O103 1.251 . S
C90 O104 1.252 . S
C90 O105 1.272 . S
C91 Sm81 2.846 . S
C91 C92 1.506 . S
C91 O106 1.261 . S
C91 O107 1.242 . S
C92 C91 1.506 . S
C92 C93 1.358 . S
C92 C97 1.382 . S
C93 C92 1.358 . S
C93 C94 1.385 . S
C93 H116 0.930 . S
C94 C93 1.385 . S
C94 C95 1.395 . S
C94 H117 0.929 . S
C95 C94 1.395 . S
C95 C96 1.335 . S
C96 C95 1.335 . S
C96 C97 1.398 . S
C96 H118 0.930 . S
C97 C92 1.382 . S
C97 C96 1.398 . S
C97 H119 0.929 . S
C98 O108 1.271 . S
C98 O109 1.251 . S
C99 O110 1.252 . S
C99 O111 1.272 . S
O100 Sm80 2.543 . S
O100 C82 1.261 . S
O101 Sm80 2.450 . S
O101 C82 1.242 . S
O102 Sm80 2.681 . S
O102 Sm81 2.386 . S
O102 C89 1.271 . S
O103 Sm80 2.464 . S
O103 C89 1.251 . S
O104 Sm80 2.396 . S
O104 C90 1.252 . S
O105 Sm81 2.408 . S
O105 C90 1.272 . S
O106 Sm81 2.543 . S
O106 C91 1.261 . S
O107 Sm81 2.450 . S
O107 C91 1.242 . S
O108 Sm80 2.386 . S
O108 Sm81 2.681 . S
O108 C98 1.271 . S
O109 Sm81 2.464 . S
O109 C98 1.251 . S
O110 Sm81 2.396 . S
O110 C99 1.252 . S
O111 Sm80 2.408 . S
O111 C99 1.272 . S
H112 C84 0.930 . S
H113 C85 0.929 . S
H114 C87 0.930 . S
H115 C88 0.929 . S
H116 C93 0.930 . S
H117 C94 0.929 . S
H118 C96 0.930 . S
H119 C97 0.929 . S
Sm120 C122 2.846 . S
Sm120 O140 2.543 . S
Sm120 O141 2.450 . S
Sm120 O142 2.681 . S
Sm120 O143 2.464 . S
Sm120 O144 2.396 . S
Sm120 O148 2.386 . S
Sm120 O151 2.408 . S
Sm121 C131 2.846 . S
Sm121 O142 2.386 . S
Sm121 O145 2.408 . S
Sm121 O146 2.543 . S
Sm121 O147 2.450 . S
Sm121 O148 2.681 . S
Sm121 O149 2.464 . S
Sm121 O150 2.396 . S
C122 Sm120 2.846 . S
C122 C123 1.506 . S
C122 O140 1.261 . S
C122 O141 1.242 . S
C123 C122 1.506 . S
C123 C124 1.358 . S
C123 C128 1.382 . S
C124 C123 1.358 . S
C124 C125 1.385 . S
C124 H152 0.930 . S
C125 C124 1.385 . S
C125 C126 1.395 . S
C125 H153 0.929 . S
C126 C125 1.395 . S
C126 C127 1.335 . S
C127 C126 1.335 . S
C127 C128 1.398 . S
C127 H154 0.930 . S
C128 C123 1.382 . S
C128 C127 1.398 . S
C128 H155 0.929 . S
C129 O142 1.271 . S
C129 O143 1.251 . S
C130 O144 1.252 . S
C130 O145 1.272 . S
C131 Sm121 2.846 . S
C131 C132 1.506 . S
C131 O146 1.261 . S
C131 O147 1.242 . S
C132 C131 1.506 . S
C132 C133 1.358 . S
C132 C137 1.382 . S
C133 C132 1.358 . S
C133 C134 1.385 . S
C133 H156 0.930 . S
C134 C133 1.385 . S
C134 C135 1.395 . S
C134 H157 0.929 . S
C135 C134 1.395 . S
C135 C136 1.335 . S
C136 C135 1.335 . S
C136 C137 1.398 . S
C136 H158 0.930 . S
C137 C132 1.382 . S
C137 C136 1.398 . S
C137 H159 0.929 . S
C138 O148 1.271 . S
C138 O149 1.251 . S
C139 O150 1.252 . S
C139 O151 1.272 . S
O140 Sm120 2.543 . S
O140 C122 1.261 . S
O141 Sm120 2.450 . S
O141 C122 1.242 . S
O142 Sm120 2.681 . S
O142 Sm121 2.386 . S
O142 C129 1.271 . S
O143 Sm120 2.464 . S
O143 C129 1.251 . S
O144 Sm120 2.396 . S
O144 C130 1.252 . S
O145 Sm121 2.408 . S
O145 C130 1.272 . S
O146 Sm121 2.543 . S
O146 C131 1.261 . S
O147 Sm121 2.450 . S
O147 C131 1.242 . S
O148 Sm120 2.386 . S
O148 Sm121 2.681 . S
O148 C138 1.271 . S
O149 Sm121 2.464 . S
O149 C138 1.251 . S
O150 Sm121 2.396 . S
O150 C139 1.252 . S
O151 Sm120 2.408 . S
O151 C139 1.272 . S
H152 C124 0.930 . S
H153 C125 0.929 . S
H154 C127 0.930 . S
H155 C128 0.929 . S
H156 C133 0.930 . S
H157 C134 0.929 . S
H158 C136 0.930 . S
H159 C137 0.929 . S
Sm160 C162 2.846 1_556 S
Sm160 O180 2.543 1_556 S
Sm160 O181 2.450 1_556 S
Sm160 O182 2.681 . S
Sm160 O183 2.464 . S
Sm160 O184 2.396 1_556 S
Sm160 O188 2.386 1_556 S
Sm160 O191 2.408 . S
Sm161 C171 2.846 1_554 S
Sm161 O182 2.386 1_554 S
Sm161 O185 2.408 . S
Sm161 O186 2.543 1_554 S
Sm161 O187 2.450 1_554 S
Sm161 O188 2.681 . S
Sm161 O189 2.464 . S
Sm161 O190 2.396 1_554 S
C162 Sm160 2.846 1_554 S
C162 C163 1.506 . S
C162 O180 1.261 . S
C162 O181 1.242 . S
C163 C162 1.506 . S
C163 C164 1.358 . S
C163 C168 1.382 . S
C164 C163 1.358 . S
C164 C165 1.385 . S
C164 H192 0.930 . S
C165 C164 1.385 . S
C165 C166 1.395 . S
C165 H193 0.929 . S
C166 C165 1.395 . S
C166 C167 1.335 . S
C167 C166 1.335 . S
C167 C168 1.398 . S
C167 H194 0.930 . S
C168 C163 1.382 . S
C168 C167 1.398 . S
C168 H195 0.929 . S
C169 O182 1.271 . S
C169 O183 1.251 . S
C170 O184 1.252 . S
C170 O185 1.272 . S
C171 Sm161 2.846 1_556 S
C171 C172 1.506 . S
C171 O186 1.261 . S
C171 O187 1.242 . S
C172 C171 1.506 . S
C172 C173 1.358 . S
C172 C177 1.382 . S
C173 C172 1.358 . S
C173 C174 1.385 . S
C173 H196 0.930 . S
C174 C173 1.385 . S
C174 C175 1.395 . S
C174 H197 0.929 . S
C175 C174 1.395 . S
C175 C176 1.335 . S
C176 C175 1.335 . S
C176 C177 1.398 . S
C176 H198 0.930 . S
C177 C172 1.382 . S
C177 C176 1.398 . S
C177 H199 0.929 . S
C178 O188 1.271 . S
C178 O189 1.251 . S
C179 O190 1.252 . S
C179 O191 1.272 . S
O180 Sm160 2.543 1_554 S
O180 C162 1.261 . S
O181 Sm160 2.450 1_554 S
O181 C162 1.242 . S
O182 Sm160 2.681 . S
O182 Sm161 2.386 1_556 S
O182 C169 1.271 . S
O183 Sm160 2.464 . S
O183 C169 1.251 . S
O184 Sm160 2.396 1_554 S
O184 C170 1.252 . S
O185 Sm161 2.408 . S
O185 C170 1.272 . S
O186 Sm161 2.543 1_556 S
O186 C171 1.261 . S
O187 Sm161 2.450 1_556 S
O187 C171 1.242 . S
O188 Sm160 2.386 1_554 S
O188 Sm161 2.681 . S
O188 C178 1.271 . S
O189 Sm161 2.464 . S
O189 C178 1.251 . S
O190 Sm161 2.396 1_556 S
O190 C179 1.252 . S
O191 Sm160 2.408 . S
O191 C179 1.272 . S
H192 C164 0.930 . S
H193 C165 0.929 . S
H194 C167 0.930 . S
H195 C168 0.929 . S
H196 C173 0.930 . S
H197 C174 0.929 . S
H198 C176 0.930 . S
H199 C177 0.929 . S
Sm200 C202 2.846 1_556 S
Sm200 O220 2.543 1_556 S
Sm200 O221 2.450 1_556 S
Sm200 O222 2.681 . S
Sm200 O223 2.464 . S
Sm200 O224 2.396 1_556 S
Sm200 O228 2.386 1_556 S
Sm200 O231 2.408 . S
Sm201 C211 2.846 1_554 S
Sm201 O222 2.386 1_554 S
Sm201 O225 2.408 . S
Sm201 O226 2.543 1_554 S
Sm201 O227 2.450 1_554 S
Sm201 O228 2.681 . S
Sm201 O229 2.464 . S
Sm201 O230 2.396 1_554 S
C202 Sm200 2.846 1_554 S
C202 C203 1.506 . S
C202 O220 1.261 . S
C202 O221 1.242 . S
C203 C202 1.506 . S
C203 C204 1.358 . S
C203 C208 1.382 . S
C204 C203 1.358 . S
C204 C205 1.385 . S
C204 H232 0.930 . S
C205 C204 1.385 . S
C205 C206 1.395 . S
C205 H233 0.929 . S
C206 C205 1.395 . S
C206 C207 1.335 . S
C207 C206 1.335 . S
C207 C208 1.398 . S
C207 H234 0.930 . S
C208 C203 1.382 . S
C208 C207 1.398 . S
C208 H235 0.929 . S
C209 O222 1.271 . S
C209 O223 1.251 . S
C210 O224 1.252 . S
C210 O225 1.272 . S
C211 Sm201 2.846 1_556 S
C211 C212 1.506 . S
C211 O226 1.261 . S
C211 O227 1.242 . S
C212 C211 1.506 . S
C212 C213 1.358 . S
C212 C217 1.382 . S
C213 C212 1.358 . S
C213 C214 1.385 . S
C213 H236 0.930 . S
C214 C213 1.385 . S
C214 C215 1.395 . S
C214 H237 0.929 . S
C215 C214 1.395 . S
C215 C216 1.335 . S
C216 C215 1.335 . S
C216 C217 1.398 . S
C216 H238 0.930 . S
C217 C212 1.382 . S
C217 C216 1.398 . S
C217 H239 0.929 . S
C218 O228 1.271 . S
C218 O229 1.251 . S
C219 O230 1.252 . S
C219 O231 1.272 . S
O220 Sm200 2.543 1_554 S
O220 C202 1.261 . S
O221 Sm200 2.450 1_554 S
O221 C202 1.242 . S
O222 Sm200 2.681 . S
O222 Sm201 2.386 1_556 S
O222 C209 1.271 . S
O223 Sm200 2.464 . S
O223 C209 1.251 . S
O224 Sm200 2.396 1_554 S
O224 C210 1.252 . S
O225 Sm201 2.408 . S
O225 C210 1.272 . S
O226 Sm201 2.543 1_556 S
O226 C211 1.261 . S
O227 Sm201 2.450 1_556 S
O227 C211 1.242 . S
O228 Sm200 2.386 1_554 S
O228 Sm201 2.681 . S
O228 C218 1.271 . S
O229 Sm201 2.464 . S
O229 C218 1.251 . S
O230 Sm201 2.396 1_556 S
O230 C219 1.252 . S
O231 Sm200 2.408 . S
O231 C219 1.272 . S
H232 C204 0.930 . S
H233 C205 0.929 . S
H234 C207 0.930 . S
H235 C208 0.929 . S
H236 C213 0.930 . S
H237 C214 0.929 . S
H238 C216 0.930 . S
H239 C217 0.929 . S
Sm240 C242 2.846 1_556 S
Sm240 O260 2.543 1_556 S
Sm240 O261 2.450 1_556 S
Sm240 O262 2.681 . S
Sm240 O263 2.464 . S
Sm240 O264 2.396 1_556 S
Sm240 O268 2.386 1_556 S
Sm240 O271 2.408 . S
Sm241 C251 2.846 1_554 S
Sm241 O262 2.386 1_554 S
Sm241 O265 2.408 . S
Sm241 O266 2.543 1_554 S
Sm241 O267 2.450 1_554 S
Sm241 O268 2.681 . S
Sm241 O269 2.464 . S
Sm241 O270 2.396 1_554 S
C242 Sm240 2.846 1_554 S
C242 C243 1.506 . S
C242 O260 1.261 . S
C242 O261 1.242 . S
C243 C242 1.506 . S
C243 C244 1.358 . S
C243 C248 1.382 . S
C244 C243 1.358 . S
C244 C245 1.385 . S
C244 H272 0.930 . S
C245 C244 1.385 . S
C245 C246 1.395 . S
C245 H273 0.929 . S
C246 C245 1.395 . S
C246 C247 1.335 . S
C247 C246 1.335 . S
C247 C248 1.398 . S
C247 H274 0.930 . S
C248 C243 1.382 . S
C248 C247 1.398 . S
C248 H275 0.929 . S
C249 O262 1.271 . S
C249 O263 1.251 . S
C250 O264 1.252 . S
C250 O265 1.272 . S
C251 Sm241 2.846 1_556 S
C251 C252 1.506 . S
C251 O266 1.261 . S
C251 O267 1.242 . S
C252 C251 1.506 . S
C252 C253 1.358 . S
C252 C257 1.382 . S
C253 C252 1.358 . S
C253 C254 1.385 . S
C253 H276 0.930 . S
C254 C253 1.385 . S
C254 C255 1.395 . S
C254 H277 0.929 . S
C255 C254 1.395 . S
C255 C256 1.335 . S
C256 C255 1.335 . S
C256 C257 1.398 . S
C256 H278 0.930 . S
C257 C252 1.382 . S
C257 C256 1.398 . S
C257 H279 0.929 . S
C258 O268 1.271 . S
C258 O269 1.251 . S
C259 O270 1.252 . S
C259 O271 1.272 . S
O260 Sm240 2.543 1_554 S
O260 C242 1.261 . S
O261 Sm240 2.450 1_554 S
O261 C242 1.242 . S
O262 Sm240 2.681 . S
O262 Sm241 2.386 1_556 S
O262 C249 1.271 . S
O263 Sm240 2.464 . S
O263 C249 1.251 . S
O264 Sm240 2.396 1_554 S
O264 C250 1.252 . S
O265 Sm241 2.408 . S
O265 C250 1.272 . S
O266 Sm241 2.543 1_556 S
O266 C251 1.261 . S
O267 Sm241 2.450 1_556 S
O267 C251 1.242 . S
O268 Sm240 2.386 1_554 S
O268 Sm241 2.681 . S
O268 C258 1.271 . S
O269 Sm241 2.464 . S
O269 C258 1.251 . S
O270 Sm241 2.396 1_556 S
O270 C259 1.252 . S
O271 Sm240 2.408 . S
O271 C259 1.272 . S
H272 C244 0.930 . S
H273 C245 0.929 . S
H274 C247 0.930 . S
H275 C248 0.929 . S
H276 C253 0.930 . S
H277 C254 0.929 . S
H278 C256 0.930 . S
H279 C257 0.929 . S
Sm280 C282 2.846 1_556 S
Sm280 O300 2.543 1_556 S
Sm280 O301 2.450 1_556 S
Sm280 O302 2.681 . S
Sm280 O303 2.464 . S
Sm280 O304 2.396 1_556 S
Sm280 O308 2.386 1_556 S
Sm280 O311 2.408 . S
Sm281 C291 2.846 1_554 S
Sm281 O302 2.386 1_554 S
Sm281 O305 2.408 . S
Sm281 O306 2.543 1_554 S
Sm281 O307 2.450 1_554 S
Sm281 O308 2.681 . S
Sm281 O309 2.464 . S
Sm281 O310 2.396 1_554 S
C282 Sm280 2.846 1_554 S
C282 C283 1.506 . S
C282 O300 1.261 . S
C282 O301 1.242 . S
C283 C282 1.506 . S
C283 C284 1.358 . S
C283 C288 1.382 . S
C284 C283 1.358 . S
C284 C285 1.385 . S
C284 H312 0.930 . S
C285 C284 1.385 . S
C285 C286 1.395 . S
C285 H313 0.929 . S
C286 C285 1.395 . S
C286 C287 1.335 . S
C287 C286 1.335 . S
C287 C288 1.398 . S
C287 H314 0.930 . S
C288 C283 1.382 . S
C288 C287 1.398 . S
C288 H315 0.929 . S
C289 O302 1.271 . S
C289 O303 1.251 . S
C290 O304 1.252 . S
C290 O305 1.272 . S
C291 Sm281 2.846 1_556 S
C291 C292 1.506 . S
C291 O306 1.261 . S
C291 O307 1.242 . S
C292 C291 1.506 . S
C292 C293 1.358 . S
C292 C297 1.382 . S
C293 C292 1.358 . S
C293 C294 1.385 . S
C293 H316 0.930 . S
C294 C293 1.385 . S
C294 C295 1.395 . S
C294 H317 0.929 . S
C295 C294 1.395 . S
C295 C296 1.335 . S
C296 C295 1.335 . S
C296 C297 1.398 . S
C296 H318 0.930 . S
C297 C292 1.382 . S
C297 C296 1.398 . S
C297 H319 0.929 . S
C298 O308 1.271 . S
C298 O309 1.251 . S
C299 O310 1.252 . S
C299 O311 1.272 . S
O300 Sm280 2.543 1_554 S
O300 C282 1.261 . S
O301 Sm280 2.450 1_554 S
O301 C282 1.242 . S
O302 Sm280 2.681 . S
O302 Sm281 2.386 1_556 S
O302 C289 1.271 . S
O303 Sm280 2.464 . S
O303 C289 1.251 . S
O304 Sm280 2.396 1_554 S
O304 C290 1.252 . S
O305 Sm281 2.408 . S
O305 C290 1.272 . S
O306 Sm281 2.543 1_556 S
O306 C291 1.261 . S
O307 Sm281 2.450 1_556 S
O307 C291 1.242 . S
O308 Sm280 2.386 1_554 S
O308 Sm281 2.681 . S
O308 C298 1.271 . S
O309 Sm281 2.464 . S
O309 C298 1.251 . S
O310 Sm281 2.396 1_556 S
O310 C299 1.252 . S
O311 Sm280 2.408 . S
O311 C299 1.272 . S
H312 C284 0.930 . S
H313 C285 0.929 . S
H314 C287 0.930 . S
H315 C288 0.929 . S
H316 C293 0.930 . S
H317 C294 0.929 . S
H318 C296 0.930 . S
H319 C297 0.929 . S
H320 C326 0.930 . S
H321 C330 0.930 . S
H322 C335 0.929 . S
H323 C333 0.929 . S
H324 C328 0.929 . S
H325 C334 0.929 . S
C326 H320 0.930 . S
C326 C327 1.367 . S
C326 C334 1.378 . S
C327 C326 1.367 . S
C327 C335 1.433 . S
C328 H324 0.929 . S
C328 C330 1.378 . S
C328 C332 1.350 . S
C329 C332 1.463 . S
C329 C334 1.350 . S
C329 N337 1.427 . S
C330 H321 0.930 . S
C330 C328 1.378 . S
C330 C331 1.367 . S
C331 C330 1.367 . S
C331 C333 1.433 . S
C332 C328 1.350 . S
C332 C329 1.463 . S
C332 N336 1.427 . S
C333 H323 0.929 . S
C333 C331 1.433 . S
C333 N336 1.384 . S
C334 H325 0.929 . S
C334 C326 1.378 . S
C334 C329 1.350 . S
C335 H322 0.929 . S
C335 C327 1.433 . S
C335 N337 1.384 . S
N336 C332 1.427 . S
N336 C333 1.384 . S
N337 C329 1.427 . S
N337 C335 1.384 . S
H338 C344 0.930 . S
H339 C348 0.930 . S
H340 C353 0.929 . S
H341 C351 0.929 . S
H342 C346 0.929 . S
H343 C352 0.929 . S
C344 H338 0.930 . S
C344 C345 1.367 . S
C344 C352 1.378 . S
C345 C344 1.367 . S
C345 C353 1.433 . S
C346 H342 0.929 . S
C346 C348 1.378 . S
C346 C350 1.350 . S
C347 C350 1.463 . S
C347 C352 1.350 . S
C347 N355 1.427 . S
C348 H339 0.930 . S
C348 C346 1.378 . S
C348 C349 1.367 . S
C349 C348 1.367 . S
C349 C351 1.433 . S
C350 C346 1.350 . S
C350 C347 1.463 . S
C350 N354 1.427 . S
C351 H341 0.929 . S
C351 C349 1.433 . S
C351 N354 1.384 . S
C352 H343 0.929 . S
C352 C344 1.378 . S
C352 C347 1.350 . S
C353 H340 0.929 . S
C353 C345 1.433 . S
C353 N355 1.384 . S
N354 C350 1.427 . S
N354 C351 1.384 . S
N355 C347 1.427 . S
N355 C353 1.384 . S
H356 C362 0.930 . S
H357 C366 0.930 . S
H358 C371 0.929 . S
H359 C369 0.929 . S
H360 C364 0.929 . S
H361 C370 0.929 . S
C362 H356 0.930 . S
C362 C363 1.367 . S
C362 C370 1.378 . S
C363 C362 1.367 . S
C363 C371 1.433 . S
C364 H360 0.929 . S
C364 C366 1.378 . S
C364 C368 1.350 . S
C365 C368 1.463 . S
C365 C370 1.350 . S
C365 N373 1.427 . S
C366 H357 0.930 . S
C366 C364 1.378 . S
C366 C367 1.367 . S
C367 C366 1.367 . S
C367 C369 1.433 . S
C368 C364 1.350 . S
C368 C365 1.463 . S
C368 N372 1.427 . S
C369 H359 0.929 . S
C369 C367 1.433 . S
C369 N372 1.384 . S
C370 H361 0.929 . S
C370 C362 1.378 . S
C370 C365 1.350 . S
C371 H358 0.929 . S
C371 C363 1.433 . S
C371 N373 1.384 . S
N372 C368 1.427 . S
N372 C369 1.384 . S
N373 C365 1.427 . S
N373 C371 1.384 . S
H374 C380 0.930 . S
H375 C384 0.930 . S
H376 C389 0.929 . S
H377 C387 0.929 . S
H378 C382 0.929 . S
H379 C388 0.929 . S
C380 H374 0.930 . S
C380 C381 1.367 . S
C380 C388 1.378 . S
C381 C380 1.367 . S
C381 C389 1.433 . S
C382 H378 0.929 . S
C382 C384 1.378 . S
C382 C386 1.350 . S
C383 C386 1.463 . S
C383 C388 1.350 . S
C383 N391 1.427 . S
C384 H375 0.930 . S
C384 C382 1.378 . S
C384 C385 1.367 . S
C385 C384 1.367 . S
C385 C387 1.433 . S
C386 C382 1.350 . S
C386 C383 1.463 . S
C386 N390 1.427 . S
C387 H377 0.929 . S
C387 C385 1.433 . S
C387 N390 1.384 . S
C388 H379 0.929 . S
C388 C380 1.378 . S
C388 C383 1.350 . S
C389 H376 0.929 . S
C389 C381 1.433 . S
C389 N391 1.384 . S
N390 C386 1.427 . S
N390 C387 1.384 . S
N391 C383 1.427 . S
N391 C389 1.384 . S
H392 C398 0.930 . S
H393 C402 0.930 . S
H394 C407 0.929 . S
H395 C405 0.929 . S
H396 C400 0.929 . S
H397 C406 0.929 . S
C398 H392 0.930 . S
C398 C399 1.367 . S
C398 C406 1.378 . S
C399 C398 1.367 . S
C399 C407 1.433 . S
C400 H396 0.929 . S
C400 C402 1.378 . S
C400 C404 1.350 . S
C401 C404 1.463 1_565 S
C401 C406 1.350 . S
C401 N409 1.427 . S
C402 H393 0.930 . S
C402 C400 1.378 . S
C402 C403 1.367 . S
C403 C402 1.367 . S
C403 C405 1.433 . S
C404 C400 1.350 . S
C404 C401 1.463 1_545 S
C404 N408 1.427 . S
C405 H395 0.929 . S
C405 C403 1.433 . S
C405 N408 1.384 . S
C406 H397 0.929 . S
C406 C398 1.378 . S
C406 C401 1.350 . S
C407 H394 0.929 . S
C407 C399 1.433 . S
C407 N409 1.384 . S
N408 C404 1.427 . S
N408 C405 1.384 . S
N409 C401 1.427 . S
N409 C407 1.384 . S
H410 C416 0.930 . S
H411 C420 0.930 . S
H412 C425 0.929 . S
H413 C423 0.929 . S
H414 C418 0.929 . S
H415 C424 0.929 . S
C416 H410 0.930 . S
C416 C417 1.367 . S
C416 C424 1.378 . S
C417 C416 1.367 . S
C417 C425 1.433 . S
C418 H414 0.929 . S
C418 C420 1.378 . S
C418 C422 1.350 . S
C419 C422 1.463 . S
C419 C424 1.350 . S
C419 N427 1.427 . S
C420 H411 0.930 . S
C420 C418 1.378 . S
C420 C421 1.367 . S
C421 C420 1.367 . S
C421 C423 1.433 . S
C422 C418 1.350 . S
C422 C419 1.463 . S
C422 N426 1.427 . S
C423 H413 0.929 . S
C423 C421 1.433 . S
C423 N426 1.384 . S
C424 H415 0.929 . S
C424 C416 1.378 . S
C424 C419 1.350 . S
C425 H412 0.929 . S
C425 C417 1.433 . S
C425 N427 1.384 . S
N426 C422 1.427 . S
N426 C423 1.384 . S
N427 C419 1.427 . S
N427 C425 1.384 . S
H428 C434 0.930 . S
H429 C438 0.930 . S
H430 C443 0.929 . S
H431 C441 0.929 . S
H432 C436 0.929 . S
H433 C442 0.929 . S
C434 H428 0.930 . S
C434 C435 1.367 . S
C434 C442 1.378 . S
C435 C434 1.367 . S
C435 C443 1.433 . S
C436 H432 0.929 . S
C436 C438 1.378 . S
C436 C440 1.350 . S
C437 C440 1.463 1_565 S
C437 C442 1.350 . S
C437 N445 1.427 . S
C438 H429 0.930 . S
C438 C436 1.378 . S
C438 C439 1.367 . S
C439 C438 1.367 . S
C439 C441 1.433 . S
C440 C436 1.350 . S
C440 C437 1.463 1_545 S
C440 N444 1.427 . S
C441 H431 0.929 . S
C441 C439 1.433 . S
C441 N444 1.384 . S
C442 H433 0.929 . S
C442 C434 1.378 . S
C442 C437 1.350 . S
C443 H430 0.929 . S
C443 C435 1.433 . S
C443 N445 1.384 . S
N444 C440 1.427 . S
N444 C441 1.384 . S
N445 C437 1.427 . S
N445 C443 1.384 . S
H446 C452 0.930 . S
H447 C456 0.930 . S
H448 C461 0.929 . S
H449 C459 0.929 . S
H450 C454 0.929 . S
H451 C460 0.929 . S
C452 H446 0.930 . S
C452 C453 1.367 . S
C452 C460 1.378 . S
C453 C452 1.367 . S
C453 C461 1.433 . S
C454 H450 0.929 . S
C454 C456 1.378 . S
C454 C458 1.350 . S
C455 C458 1.463 . S
C455 C460 1.350 . S
C455 N463 1.427 . S
C456 H447 0.930 . S
C456 C454 1.378 . S
C456 C457 1.367 . S
C457 C456 1.367 . S
C457 C459 1.433 . S
C458 C454 1.350 . S
C458 C455 1.463 . S
C458 N462 1.427 . S
C459 H449 0.929 . S
C459 C457 1.433 . S
C459 N462 1.384 . S
C460 H451 0.929 . S
C460 C452 1.378 . S
C460 C455 1.350 . S
C461 H448 0.929 . S
C461 C453 1.433 . S
C461 N463 1.384 . S
N462 C458 1.427 . S
N462 C459 1.384 . S
N463 C455 1.427 . S
N463 C461 1.384 . S
H464 C470 0.930 . S
H465 C474 0.930 . S
H466 C479 0.929 . S
H467 C477 0.929 . S
H468 C472 0.929 . S
H469 C478 0.929 . S
C470 H464 0.930 . S
C470 C471 1.367 . S
C470 C478 1.378 . S
C471 C470 1.367 . S
C471 C479 1.433 1_556 S
C472 H468 0.929 . S
C472 C474 1.378 . S
C472 C476 1.350 1_554 S
C473 C476 1.463 . S
C473 C478 1.350 . S
C473 N481 1.427 1_556 S
C474 H465 0.930 . S
C474 C472 1.378 . S
C474 C475 1.367 1_554 S
C475 C474 1.367 1_556 S
C475 C477 1.433 . S
C476 C472 1.350 1_556 S
C476 C473 1.463 . S
C476 N480 1.427 . S
C477 H467 0.929 . S
C477 C475 1.433 . S
C477 N480 1.384 . S
C478 H469 0.929 . S
C478 C470 1.378 . S
C478 C473 1.350 . S
C479 H466 0.929 . S
C479 C471 1.433 1_554 S
C479 N481 1.384 . S
N480 C476 1.427 . S
N480 C477 1.384 . S
N481 C473 1.427 1_554 S
N481 C479 1.384 . S
H482 C488 0.930 . S
H483 C492 0.930 . S
H484 C497 0.929 . S
H485 C495 0.929 . S
H486 C490 0.929 . S
H487 C496 0.929 . S
C488 H482 0.930 . S
C488 C489 1.367 . S
C488 C496 1.378 . S
C489 C488 1.367 . S
C489 C497 1.433 1_556 S
C490 H486 0.929 . S
C490 C492 1.378 . S
C490 C494 1.350 1_554 S
C491 C494 1.463 1_565 S
C491 C496 1.350 . S
C491 N499 1.427 1_556 S
C492 H483 0.930 . S
C492 C490 1.378 . S
C492 C493 1.367 1_554 S
C493 C492 1.367 1_556 S
C493 C495 1.433 . S
C494 C490 1.350 1_556 S
C494 C491 1.463 1_545 S
C494 N498 1.427 . S
C495 H485 0.929 . S
C495 C493 1.433 . S
C495 N498 1.384 . S
C496 H487 0.929 . S
C496 C488 1.378 . S
C496 C491 1.350 . S
C497 H484 0.929 . S
C497 C489 1.433 1_554 S
C497 N499 1.384 . S
N498 C494 1.427 . S
N498 C495 1.384 . S
N499 C491 1.427 1_554 S
N499 C497 1.384 . S
H500 C506 0.930 . S
H501 C510 0.930 . S
H502 C515 0.929 . S
H503 C513 0.929 . S
H504 C508 0.929 . S
H505 C514 0.929 . S
C506 H500 0.930 . S
C506 C507 1.367 . S
C506 C514 1.378 . S
C507 C506 1.367 . S
C507 C515 1.433 1_554 S
C508 H504 0.929 . S
C508 C510 1.378 . S
C508 C512 1.350 1_556 S
C509 C512 1.463 . S
C509 C514 1.350 . S
C509 N517 1.427 1_554 S
C510 H501 0.930 . S
C510 C508 1.378 . S
C510 C511 1.367 1_556 S
C511 C510 1.367 1_554 S
C511 C513 1.433 . S
C512 C508 1.350 1_554 S
C512 C509 1.463 . S
C512 N516 1.427 . S
C513 H503 0.929 . S
C513 C511 1.433 . S
C513 N516 1.384 . S
C514 H505 0.929 . S
C514 C506 1.378 . S
C514 C509 1.350 . S
C515 H502 0.929 . S
C515 C507 1.433 1_556 S
C515 N517 1.384 . S
N516 C512 1.427 . S
N516 C513 1.384 . S
N517 C509 1.427 1_556 S
N517 C515 1.384 . S
H518 C524 0.930 . S
H519 C528 0.930 . S
H520 C533 0.929 . S
H521 C531 0.929 . S
H522 C526 0.929 . S
H523 C532 0.929 . S
C524 H518 0.930 . S
C524 C525 1.367 1_556 S
C524 C532 1.378 . S
C525 C524 1.367 1_554 S
C525 C533 1.433 . S
C526 H522 0.929 . S
C526 C528 1.378 . S
C526 C530 1.350 . S
C527 C530 1.463 1_545 S
C527 C532 1.350 1_554 S
C527 N535 1.427 . S
C528 H519 0.930 . S
C528 C526 1.378 . S
C528 C529 1.367 . S
C529 C528 1.367 . S
C529 C531 1.433 1_554 S
C530 C526 1.350 . S
C530 C527 1.463 1_565 S
C530 N534 1.427 1_554 S
C531 H521 0.929 . S
C531 C529 1.433 1_556 S
C531 N534 1.384 . S
C532 H523 0.929 . S
C532 C524 1.378 . S
C532 C527 1.350 1_556 S
C533 H520 0.929 . S
C533 C525 1.433 . S
C533 N535 1.384 . S
N534 C530 1.427 1_556 S
N534 C531 1.384 . S
N535 C527 1.427 . S
N535 C533 1.384 . S
H536 C542 0.930 . S
H537 C546 0.930 . S
H538 C551 0.929 . S
H539 C549 0.929 . S
H540 C544 0.929 . S
H541 C550 0.929 1_556 S
C542 H536 0.930 . S
C542 C543 1.367 . S
C542 C550 1.378 . S
C543 C542 1.367 . S
C543 C551 1.433 . S
C544 H540 0.929 . S
C544 C546 1.378 . S
C544 C548 1.350 . S
C545 C548 1.463 . S
C545 C550 1.350 1_556 S
C545 N553 1.427 1_556 S
C546 H537 0.930 . S
C546 C544 1.378 . S
C546 C547 1.367 . S
C547 C546 1.367 . S
C547 C549 1.433 . S
C548 C544 1.350 . S
C548 C545 1.463 . S
C548 N552 1.427 . S
C549 H539 0.929 . S
C549 C547 1.433 . S
C549 N552 1.384 . S
C550 H541 0.929 1_554 S
C550 C542 1.378 . S
C550 C545 1.350 1_554 S
C551 H538 0.929 . S
C551 C543 1.433 . S
C551 N553 1.384 . S
N552 C548 1.427 . S
N552 C549 1.384 . S
N553 C545 1.427 1_554 S
N553 C551 1.384 . S
H554 C560 0.930 . S
H555 C564 0.930 . S
H556 C569 0.929 . S
H557 C567 0.929 . S
H558 C562 0.929 . S
H559 C568 0.929 1_556 S
C560 H554 0.930 . S
C560 C561 1.367 . S
C560 C568 1.378 . S
C561 C560 1.367 . S
C561 C569 1.433 . S
C562 H558 0.929 . S
C562 C564 1.378 . S
C562 C566 1.350 . S
C563 C566 1.463 . S
C563 C568 1.350 1_556 S
C563 N571 1.427 1_556 S
C564 H555 0.930 . S
C564 C562 1.378 . S
C564 C565 1.367 . S
C565 C564 1.367 . S
C565 C567 1.433 . S
C566 C562 1.350 . S
C566 C563 1.463 . S
C566 N570 1.427 . S
C567 H557 0.929 . S
C567 C565 1.433 . S
C567 N570 1.384 . S
C568 H559 0.929 1_554 S
C568 C560 1.378 . S
C568 C563 1.350 1_554 S
C569 H556 0.929 . S
C569 C561 1.433 . S
C569 N571 1.384 . S
N570 C566 1.427 . S
N570 C567 1.384 . S
N571 C563 1.427 1_554 S
N571 C569 1.384 . S
H572 C578 0.930 . S
H573 C582 0.930 . S
H574 C587 0.929 . S
H575 C585 0.929 . S
H576 C580 0.929 1_554 S
H577 C586 0.929 . S
C578 H572 0.930 . S
C578 C579 1.367 . S
C578 C586 1.378 . S
C579 C578 1.367 . S
C579 C587 1.433 . S
C580 H576 0.929 1_556 S
C580 C582 1.378 . S
C580 C584 1.350 1_556 S
C581 C584 1.463 . S
C581 C586 1.350 . S
C581 N589 1.427 . S
C582 H573 0.930 . S
C582 C580 1.378 . S
C582 C583 1.367 . S
C583 C582 1.367 . S
C583 C585 1.433 . S
C584 C580 1.350 1_554 S
C584 C581 1.463 . S
C584 N588 1.427 1_554 S
C585 H575 0.929 . S
C585 C583 1.433 . S
C585 N588 1.384 . S
C586 H577 0.929 . S
C586 C578 1.378 . S
C586 C581 1.350 . S
C587 H574 0.929 . S
C587 C579 1.433 . S
C587 N589 1.384 . S
N588 C584 1.427 1_556 S
N588 C585 1.384 . S
N589 C581 1.427 . S
N589 C587 1.384 . S
H590 C596 0.930 . S
H591 C600 0.930 . S
H592 C605 0.929 . S
H593 C603 0.929 . S
H594 C598 0.929 . S
H595 C604 0.929 . S
C596 H590 0.930 . S
C596 C597 1.367 . S
C596 C604 1.378 . S
C597 C596 1.367 . S
C597 C605 1.433 . S
C598 H594 0.929 . S
C598 C600 1.378 . S
C598 C602 1.350 . S
C599 C602 1.463 . S
C599 C604 1.350 1_554 S
C599 N607 1.427 1_554 S
C600 H591 0.930 . S
C600 C598 1.378 . S
C600 C601 1.367 . S
C601 C600 1.367 . S
C601 C603 1.433 . S
C602 C598 1.350 . S
C602 C599 1.463 . S
C602 N606 1.427 . S
C603 H593 0.929 . S
C603 C601 1.433 . S
C603 N606 1.384 . S
C604 H595 0.929 . S
C604 C596 1.378 . S
C604 C599 1.350 1_556 S
C605 H592 0.929 . S
C605 C597 1.433 . S
C605 N607 1.384 . S
N606 C602 1.427 . S
N606 C603 1.384 . S
N607 C599 1.427 1_556 S
N607 C605 1.384 . S
H608 C614 0.930 . S
H609 C618 0.930 . S
H610 C623 0.929 . S
H611 C621 0.929 . S
H612 C616 0.929 . S
H613 C622 0.929 . S
C614 H608 0.930 . S
C614 C615 1.367 . S
C614 C622 1.378 . S
C615 C614 1.367 . S
C615 C623 1.433 . S
C616 H612 0.929 . S
C616 C618 1.378 . S
C616 C620 1.350 . S
C617 C620 1.463 . S
C617 C622 1.350 . S
C617 N625 1.427 . S
C618 H609 0.930 . S
C618 C616 1.378 . S
C618 C619 1.367 . S
C619 C618 1.367 . S
C619 C621 1.433 . S
C620 C616 1.350 . S
C620 C617 1.463 . S
C620 N624 1.427 . S
C621 H611 0.929 . S
C621 C619 1.433 . S
C621 N624 1.384 . S
C622 H613 0.929 . S
C622 C614 1.378 . S
C622 C617 1.350 . S
C623 H610 0.929 . S
C623 C615 1.433 . S
C623 N625 1.384 . S
N624 C620 1.427 . S
N624 C621 1.384 . S
N625 C617 1.427 . S
N625 C623 1.384 . S
H626 C632 0.930 . S
H627 C636 0.930 . S
H628 C641 0.929 . S
H629 C639 0.929 . S
H630 C634 0.929 . S
H631 C640 0.929 . S
C632 H626 0.930 . S
C632 C633 1.367 . S
C632 C640 1.378 . S
C633 C632 1.367 . S
C633 C641 1.433 . S
C634 H630 0.929 . S
C634 C636 1.378 . S
C634 C638 1.350 . S
C635 C638 1.463 . S
C635 C640 1.350 . S
C635 N643 1.427 . S
C636 H627 0.930 . S
C636 C634 1.378 . S
C636 C637 1.367 . S
C637 C636 1.367 . S
C637 C639 1.433 . S
C638 C634 1.350 . S
C638 C635 1.463 . S
C638 N642 1.427 . S
C639 H629 0.929 . S
C639 C637 1.433 . S
C639 N642 1.384 . S
C640 H631 0.929 . S
C640 C632 1.378 . S
C640 C635 1.350 . S
C641 H628 0.929 . S
C641 C633 1.433 . S
C641 N643 1.384 . S
N642 C638 1.427 . S
N642 C639 1.384 . S
N643 C635 1.427 . S
N643 C641 1.384 . S
H644 C650 0.930 . S
H645 C654 0.930 . S
H646 C659 0.929 . S
H647 C657 0.929 . S
H648 C652 0.929 . S
H649 C658 0.929 . S
C650 H644 0.930 . S
C650 C651 1.367 . S
C650 C658 1.378 . S
C651 C650 1.367 . S
C651 C659 1.433 . S
C652 H648 0.929 . S
C652 C654 1.378 . S
C652 C656 1.350 . S
C653 C656 1.463 . S
C653 C658 1.350 . S
C653 N661 1.427 . S
C654 H645 0.930 . S
C654 C652 1.378 . S
C654 C655 1.367 . S
C655 C654 1.367 . S
C655 C657 1.433 . S
C656 C652 1.350 . S
C656 C653 1.463 . S
C656 N660 1.427 . S
C657 H647 0.929 . S
C657 C655 1.433 . S
C657 N660 1.384 . S
C658 H649 0.929 . S
C658 C650 1.378 . S
C658 C653 1.350 . S
C659 H646 0.929 . S
C659 C651 1.433 . S
C659 N661 1.384 . S
N660 C656 1.427 . S
N660 C657 1.384 . S
N661 C653 1.427 . S
N661 C659 1.384 . S
H662 C668 0.930 . S
H663 C672 0.930 . S
H664 C677 0.929 . S
H665 C675 0.929 . S
H666 C670 0.929 . S
H667 C676 0.929 . S
C668 H662 0.930 . S
C668 C669 1.367 . S
C668 C676 1.378 . S
C669 C668 1.367 . S
C669 C677 1.433 . S
C670 H666 0.929 . S
C670 C672 1.378 . S
C670 C674 1.350 . S
C671 C674 1.463 . S
C671 C676 1.350 . S
C671 N679 1.427 . S
C672 H663 0.930 . S
C672 C670 1.378 . S
C672 C673 1.367 . S
C673 C672 1.367 . S
C673 C675 1.433 . S
C674 C670 1.350 . S
C674 C671 1.463 . S
C674 N678 1.427 . S
C675 H665 0.929 . S
C675 C673 1.433 . S
C675 N678 1.384 . S
C676 H667 0.929 . S
C676 C668 1.378 . S
C676 C671 1.350 . S
C677 H664 0.929 . S
C677 C669 1.433 . S
C677 N679 1.384 . S
N678 C674 1.427 . S
N678 C675 1.384 . S
N679 C671 1.427 . S
N679 C677 1.384 . S
H680 C686 0.930 . S
H681 C690 0.930 . S
H682 C695 0.929 . S
H683 C693 0.929 . S
H684 C688 0.929 . S
H685 C694 0.929 . S
C686 H680 0.930 . S
C686 C687 1.367 . S
C686 C694 1.378 . S
C687 C686 1.367 . S
C687 C695 1.433 . S
C688 H684 0.929 . S
C688 C690 1.378 . S
C688 C692 1.350 . S
C689 C692 1.463 1_455 S
C689 C694 1.350 . S
C689 N697 1.427 . S
C690 H681 0.930 . S
C690 C688 1.378 . S
C690 C691 1.367 . S
C691 C690 1.367 . S
C691 C693 1.433 . S
C692 C688 1.350 . S
C692 C689 1.463 1_655 S
C692 N696 1.427 . S
C693 H683 0.929 . S
C693 C691 1.433 . S
C693 N696 1.384 . S
C694 H685 0.929 . S
C694 C686 1.378 . S
C694 C689 1.350 . S
C695 H682 0.929 . S
C695 C687 1.433 . S
C695 N697 1.384 . S
N696 C692 1.427 . S
N696 C693 1.384 . S
N697 C689 1.427 . S
N697 C695 1.384 . S
H698 C704 0.930 . S
H699 C708 0.930 . S
H700 C713 0.929 . S
H701 C711 0.929 . S
H702 C706 0.929 . S
H703 C712 0.929 . S
C704 H698 0.930 . S
C704 C705 1.367 . S
C704 C712 1.378 . S
C705 C704 1.367 . S
C705 C713 1.433 . S
C706 H702 0.929 . S
C706 C708 1.378 . S
C706 C710 1.350 . S
C707 C710 1.463 1_655 S
C707 C712 1.350 . S
C707 N715 1.427 . S
C708 H699 0.930 . S
C708 C706 1.378 . S
C708 C709 1.367 . S
C709 C708 1.367 . S
C709 C711 1.433 . S
C710 C706 1.350 . S
C710 C707 1.463 1_455 S
C710 N714 1.427 . S
C711 H701 0.929 . S
C711 C709 1.433 . S
C711 N714 1.384 . S
C712 H703 0.929 . S
C712 C704 1.378 . S
C712 C707 1.350 . S
C713 H700 0.929 . S
C713 C705 1.433 . S
C713 N715 1.384 . S
N714 C710 1.427 . S
N714 C711 1.384 . S
N715 C707 1.427 . S
N715 C713 1.384 . S
H716 C722 0.930 . S
H717 C726 0.930 . S
H718 C731 0.929 . S
H719 C729 0.929 . S
H720 C724 0.929 . S
H721 C730 0.929 . S
C722 H716 0.930 . S
C722 C723 1.367 . S
C722 C730 1.378 . S
C723 C722 1.367 . S
C723 C731 1.433 . S
C724 H720 0.929 . S
C724 C726 1.378 . S
C724 C728 1.350 . S
C725 C728 1.463 . S
C725 C730 1.350 . S
C725 N733 1.427 . S
C726 H717 0.930 . S
C726 C724 1.378 . S
C726 C727 1.367 . S
C727 C726 1.367 . S
C727 C729 1.433 . S
C728 C724 1.350 . S
C728 C725 1.463 . S
C728 N732 1.427 . S
C729 H719 0.929 . S
C729 C727 1.433 . S
C729 N732 1.384 . S
C730 H721 0.929 . S
C730 C722 1.378 . S
C730 C725 1.350 . S
C731 H718 0.929 . S
C731 C723 1.433 . S
C731 N733 1.384 . S
N732 C728 1.427 . S
N732 C729 1.384 . S
N733 C725 1.427 . S
N733 C731 1.384 . S
H734 C740 0.930 . S
H735 C744 0.930 . S
H736 C749 0.929 . S
H737 C747 0.929 . S
H738 C742 0.929 . S
H739 C748 0.929 . S
C740 H734 0.930 . S
C740 C741 1.367 . S
C740 C748 1.378 . S
C741 C740 1.367 . S
C741 C749 1.433 . S
C742 H738 0.929 . S
C742 C744 1.378 . S
C742 C746 1.350 . S
C743 C746 1.463 . S
C743 C748 1.350 . S
C743 N751 1.427 . S
C744 H735 0.930 . S
C744 C742 1.378 . S
C744 C745 1.367 . S
C745 C744 1.367 . S
C745 C747 1.433 . S
C746 C742 1.350 . S
C746 C743 1.463 . S
C746 N750 1.427 . S
C747 H737 0.929 . S
C747 C745 1.433 . S
C747 N750 1.384 . S
C748 H739 0.929 . S
C748 C740 1.378 . S
C748 C743 1.350 . S
C749 H736 0.929 . S
C749 C741 1.433 . S
C749 N751 1.384 . S
N750 C746 1.427 . S
N750 C747 1.384 . S
N751 C743 1.427 . S
N751 C749 1.384 . S
C327 C6 1.680 . S
C331 C295 1.680 . S
C345 C255 1.675 . S
C349 C46 1.675 . S
C363 C206 1.677 . S
C367 C95 1.677 . S
C381 C166 1.679 . S
C385 C135 1.679 . S
C399 C89 1.566 . S
C403 C9 1.582 . S
C417 C49 1.569 . S
C421 C129 1.551 . S
C435 C138 1.579 . S
C439 C58 1.564 . S
C453 C98 1.569 . S
C457 C18 1.551 . S
C471 C169 1.436 . S
C475 C249 1.437 . S
C489 C209 1.437 . S
C493 C289 1.439 . S
C507 C298 1.445 . S
C511 C218 1.447 . S
C525 C258 1.442 . S
C529 C178 1.440 . S
C543 C19 2.072 . S
C547 C10 2.072 . S
C561 C59 2.064 . S
C565 C50 2.064 . S
C579 C99 2.067 . S
C583 C90 2.067 . S
C597 C130 2.065 . S
C601 C139 2.065 . S
C615 C170 2.066 . S
C619 C179 2.066 . S
C633 C219 2.072 . S
C637 C210 2.072 . S
C651 C250 2.066 . S
C655 C259 2.066 . S
C669 C290 2.068 . S
C673 C299 2.068 . S
C687 C15 2.314 . S
C691 C55 2.312 . S
C705 C126 2.317 . S
C709 C86 2.309 . S
C723 C175 2.318 . S
C727 C215 2.312 . S
C741 C286 2.317 . S
C745 C246 2.313 . S
