# Generated by pormake.
# Topology ech, (8)-cn, num edge types: 1
# Building blocks:
#     Node 0, Type 0, BuildingBlock: TAGTUT_clean_sbu_1, # of connection points: 8
#     Node 1, Type 0, BuildingBlock: TAGTUT_clean_sbu_1, # of connection points: 8
#     Node 2, Type 0, BuildingBlock: TAGTUT_clean_sbu_1, # of connection points: 8
#     Node 3, Type 0, BuildingBlock: TAGTUT_clean_sbu_1, # of connection points: 8
#     Node 4, Type 0, BuildingBlock: TAGTUT_clean_sbu_1, # of connection points: 8
#     Node 5, Type 0, BuildingBlock: TAGTUT_clean_sbu_1, # of connection points: 8
#     Node 6, Type 0, BuildingBlock: TAGTUT_clean_sbu_1, # of connection points: 8
#     Node 7, Type 0, BuildingBlock: TAGTUT_clean_sbu_1, # of connection points: 8
#     Node 8, Type 0, BuildingBlock: TAGTUT_clean_sbu_1, # of connection points: 8
#     Node 9, Type 0, BuildingBlock: TAGTUT_clean_sbu_1, # of connection points: 8
#     Node 10, Type 0, BuildingBlock: TAGTUT_clean_sbu_1, # of connection points: 8
#     Node 11, Type 0, BuildingBlock: TAGTUT_clean_sbu_1, # of connection points: 8
#     Node 12, Type 0, BuildingBlock: TAGTUT_clean_sbu_1, # of connection points: 8
#     Node 13, Type 0, BuildingBlock: TAGTUT_clean_sbu_1, # of connection points: 8
#     Node 14, Type 0, BuildingBlock: TAGTUT_clean_sbu_1, # of connection points: 8
#     Node 15, Type 0, BuildingBlock: TAGTUT_clean_sbu_1, # of connection points: 8
#     Node 16, Type 0, BuildingBlock: TAGTUT_clean_sbu_1, # of connection points: 8
#     Node 17, Type 0, BuildingBlock: TAGTUT_clean_sbu_1, # of connection points: 8
#     Node 18, Type 0, BuildingBlock: TAGTUT_clean_sbu_1, # of connection points: 8
#     Node 19, Type 0, BuildingBlock: TAGTUT_clean_sbu_1, # of connection points: 8
#     Node 20, Type 0, BuildingBlock: TAGTUT_clean_sbu_1, # of connection points: 8
#     Node 21, Type 0, BuildingBlock: TAGTUT_clean_sbu_1, # of connection points: 8
#     Node 22, Type 0, BuildingBlock: TAGTUT_clean_sbu_1, # of connection points: 8
#     Node 23, Type 0, BuildingBlock: TAGTUT_clean_sbu_1, # of connection points: 8
#     Edge 24, Type (0, 0), BuildingBlock: UVAHIK_clean_linker_0, # of connection points: 2
#     Edge 25, Type (0, 0), BuildingBlock: UVAHIK_clean_linker_0, # of connection points: 2
#     Edge 26, Type (0, 0), BuildingBlock: UVAHIK_clean_linker_0, # of connection points: 2
#     Edge 27, Type (0, 0), BuildingBlock: UVAHIK_clean_linker_0, # of connection points: 2
#     Edge 28, Type (0, 0), BuildingBlock: UVAHIK_clean_linker_0, # of connection points: 2
#     Edge 29, Type (0, 0), BuildingBlock: UVAHIK_clean_linker_0, # of connection points: 2
#     Edge 30, Type (0, 0), BuildingBlock: UVAHIK_clean_linker_0, # of connection points: 2
#     Edge 31, Type (0, 0), BuildingBlock: UVAHIK_clean_linker_0, # of connection points: 2
#     Edge 32, Type (0, 0), BuildingBlock: UVAHIK_clean_linker_0, # of connection points: 2
#     Edge 33, Type (0, 0), BuildingBlock: UVAHIK_clean_linker_0, # of connection points: 2
#     Edge 34, Type (0, 0), BuildingBlock: UVAHIK_clean_linker_0, # of connection points: 2
#     Edge 35, Type (0, 0), BuildingBlock: UVAHIK_clean_linker_0, # of connection points: 2
#     Edge 36, Type (0, 0), BuildingBlock: UVAHIK_clean_linker_0, # of connection points: 2
#     Edge 37, Type (0, 0), BuildingBlock: UVAHIK_clean_linker_0, # of connection points: 2
#     Edge 38, Type (0, 0), BuildingBlock: UVAHIK_clean_linker_0, # of connection points: 2
#     Edge 39, Type (0, 0), BuildingBlock: UVAHIK_clean_linker_0, # of connection points: 2
#     Edge 40, Type (0, 0), BuildingBlock: UVAHIK_clean_linker_0, # of connection points: 2
#     Edge 41, Type (0, 0), BuildingBlock: UVAHIK_clean_linker_0, # of connection points: 2
#     Edge 42, Type (0, 0), BuildingBlock: UVAHIK_clean_linker_0, # of connection points: 2
#     Edge 43, Type (0, 0), BuildingBlock: UVAHIK_clean_linker_0, # of connection points: 2
#     Edge 44, Type (0, 0), BuildingBlock: UVAHIK_clean_linker_0, # of connection points: 2
#     Edge 45, Type (0, 0), BuildingBlock: UVAHIK_clean_linker_0, # of connection points: 2
#     Edge 46, Type (0, 0), BuildingBlock: UVAHIK_clean_linker_0, # of connection points: 2
#     Edge 47, Type (0, 0), BuildingBlock: UVAHIK_clean_linker_0, # of connection points: 2
#     Edge 48, Type (0, 0), BuildingBlock: UVAHIK_clean_linker_0, # of connection points: 2
#     Edge 49, Type (0, 0), BuildingBlock: UVAHIK_clean_linker_0, # of connection points: 2
#     Edge 50, Type (0, 0), BuildingBlock: UVAHIK_clean_linker_0, # of connection points: 2
#     Edge 51, Type (0, 0), BuildingBlock: UVAHIK_clean_linker_0, # of connection points: 2
#     Edge 52, Type (0, 0), BuildingBlock: UVAHIK_clean_linker_0, # of connection points: 2
#     Edge 53, Type (0, 0), BuildingBlock: UVAHIK_clean_linker_0, # of connection points: 2
#     Edge 54, Type (0, 0), BuildingBlock: UVAHIK_clean_linker_0, # of connection points: 2
#     Edge 55, Type (0, 0), BuildingBlock: UVAHIK_clean_linker_0, # of connection points: 2
#     Edge 56, Type (0, 0), BuildingBlock: UVAHIK_clean_linker_0, # of connection points: 2
#     Edge 57, Type (0, 0), BuildingBlock: UVAHIK_clean_linker_0, # of connection points: 2
#     Edge 58, Type (0, 0), BuildingBlock: UVAHIK_clean_linker_0, # of connection points: 2
#     Edge 59, Type (0, 0), BuildingBlock: UVAHIK_clean_linker_0, # of connection points: 2
#     Edge 60, Type (0, 0), BuildingBlock: UVAHIK_clean_linker_0, # of connection points: 2
#     Edge 61, Type (0, 0), BuildingBlock: UVAHIK_clean_linker_0, # of connection points: 2
#     Edge 62, Type (0, 0), BuildingBlock: UVAHIK_clean_linker_0, # of connection points: 2
#     Edge 63, Type (0, 0), BuildingBlock: UVAHIK_clean_linker_0, # of connection points: 2
#     Edge 64, Type (0, 0), BuildingBlock: UVAHIK_clean_linker_0, # of connection points: 2
#     Edge 65, Type (0, 0), BuildingBlock: UVAHIK_clean_linker_0, # of connection points: 2
#     Edge 66, Type (0, 0), BuildingBlock: UVAHIK_clean_linker_0, # of connection points: 2
#     Edge 67, Type (0, 0), BuildingBlock: UVAHIK_clean_linker_0, # of connection points: 2
#     Edge 68, Type (0, 0), BuildingBlock: UVAHIK_clean_linker_0, # of connection points: 2
#     Edge 69, Type (0, 0), BuildingBlock: UVAHIK_clean_linker_0, # of connection points: 2
#     Edge 70, Type (0, 0), BuildingBlock: UVAHIK_clean_linker_0, # of connection points: 2
#     Edge 71, Type (0, 0), BuildingBlock: UVAHIK_clean_linker_0, # of connection points: 2
#     Edge 72, Type (0, 0), BuildingBlock: UVAHIK_clean_linker_0, # of connection points: 2
#     Edge 73, Type (0, 0), BuildingBlock: UVAHIK_clean_linker_0, # of connection points: 2
#     Edge 74, Type (0, 0), BuildingBlock: UVAHIK_clean_linker_0, # of connection points: 2
#     Edge 75, Type (0, 0), BuildingBlock: UVAHIK_clean_linker_0, # of connection points: 2
#     Edge 76, Type (0, 0), BuildingBlock: UVAHIK_clean_linker_0, # of connection points: 2
#     Edge 77, Type (0, 0), BuildingBlock: UVAHIK_clean_linker_0, # of connection points: 2
#     Edge 78, Type (0, 0), BuildingBlock: UVAHIK_clean_linker_0, # of connection points: 2
#     Edge 79, Type (0, 0), BuildingBlock: UVAHIK_clean_linker_0, # of connection points: 2
#     Edge 80, Type (0, 0), BuildingBlock: UVAHIK_clean_linker_0, # of connection points: 2
#     Edge 81, Type (0, 0), BuildingBlock: UVAHIK_clean_linker_0, # of connection points: 2
#     Edge 82, Type (0, 0), BuildingBlock: UVAHIK_clean_linker_0, # of connection points: 2
#     Edge 83, Type (0, 0), BuildingBlock: UVAHIK_clean_linker_0, # of connection points: 2
#     Edge 84, Type (0, 0), BuildingBlock: UVAHIK_clean_linker_0, # of connection points: 2
#     Edge 85, Type (0, 0), BuildingBlock: UVAHIK_clean_linker_0, # of connection points: 2
#     Edge 86, Type (0, 0), BuildingBlock: UVAHIK_clean_linker_0, # of connection points: 2
#     Edge 87, Type (0, 0), BuildingBlock: UVAHIK_clean_linker_0, # of connection points: 2
#     Edge 88, Type (0, 0), BuildingBlock: UVAHIK_clean_linker_0, # of connection points: 2
#     Edge 89, Type (0, 0), BuildingBlock: UVAHIK_clean_linker_0, # of connection points: 2
#     Edge 90, Type (0, 0), BuildingBlock: UVAHIK_clean_linker_0, # of connection points: 2
#     Edge 91, Type (0, 0), BuildingBlock: UVAHIK_clean_linker_0, # of connection points: 2
#     Edge 92, Type (0, 0), BuildingBlock: UVAHIK_clean_linker_0, # of connection points: 2
#     Edge 93, Type (0, 0), BuildingBlock: UVAHIK_clean_linker_0, # of connection points: 2
#     Edge 94, Type (0, 0), BuildingBlock: UVAHIK_clean_linker_0, # of connection points: 2
#     Edge 95, Type (0, 0), BuildingBlock: UVAHIK_clean_linker_0, # of connection points: 2
#     Edge 96, Type (0, 0), BuildingBlock: UVAHIK_clean_linker_0, # of connection points: 2
#     Edge 97, Type (0, 0), BuildingBlock: UVAHIK_clean_linker_0, # of connection points: 2
#     Edge 98, Type (0, 0), BuildingBlock: UVAHIK_clean_linker_0, # of connection points: 2
#     Edge 99, Type (0, 0), BuildingBlock: UVAHIK_clean_linker_0, # of connection points: 2
#     Edge 100, Type (0, 0), BuildingBlock: UVAHIK_clean_linker_0, # of connection points: 2
#     Edge 101, Type (0, 0), BuildingBlock: UVAHIK_clean_linker_0, # of connection points: 2
#     Edge 102, Type (0, 0), BuildingBlock: UVAHIK_clean_linker_0, # of connection points: 2
#     Edge 103, Type (0, 0), BuildingBlock: UVAHIK_clean_linker_0, # of connection points: 2
#     Edge 104, Type (0, 0), BuildingBlock: UVAHIK_clean_linker_0, # of connection points: 2
#     Edge 105, Type (0, 0), BuildingBlock: UVAHIK_clean_linker_0, # of connection points: 2
#     Edge 106, Type (0, 0), BuildingBlock: UVAHIK_clean_linker_0, # of connection points: 2
#     Edge 107, Type (0, 0), BuildingBlock: UVAHIK_clean_linker_0, # of connection points: 2
#     Edge 108, Type (0, 0), BuildingBlock: UVAHIK_clean_linker_0, # of connection points: 2
#     Edge 109, Type (0, 0), BuildingBlock: UVAHIK_clean_linker_0, # of connection points: 2
#     Edge 110, Type (0, 0), BuildingBlock: UVAHIK_clean_linker_0, # of connection points: 2
#     Edge 111, Type (0, 0), BuildingBlock: UVAHIK_clean_linker_0, # of connection points: 2
#     Edge 112, Type (0, 0), BuildingBlock: UVAHIK_clean_linker_0, # of connection points: 2
#     Edge 113, Type (0, 0), BuildingBlock: UVAHIK_clean_linker_0, # of connection points: 2
#     Edge 114, Type (0, 0), BuildingBlock: UVAHIK_clean_linker_0, # of connection points: 2
#     Edge 115, Type (0, 0), BuildingBlock: UVAHIK_clean_linker_0, # of connection points: 2
#     Edge 116, Type (0, 0), BuildingBlock: UVAHIK_clean_linker_0, # of connection points: 2
#     Edge 117, Type (0, 0), BuildingBlock: UVAHIK_clean_linker_0, # of connection points: 2
#     Edge 118, Type (0, 0), BuildingBlock: UVAHIK_clean_linker_0, # of connection points: 2
#     Edge 119, Type (0, 0), BuildingBlock: UVAHIK_clean_linker_0, # of connection points: 2
# Relax obj value: 0.220
# Max RMSD: 0.226
# Mean RMSD: 0.226
data_MOF--net-ech--node1-TAGTUT_clean_sbu_1--edge1-UVAHIK_clean_linker_0
_symmetry_space_group_name_H-M    P1
_symmetry_Int_Tables_number       1
_symmetry_cell_setting            triclinic
loop_
_symmetry_equiv_pos_as_xyz
'x, y, z'
_cell_length_a     59.221098
_cell_length_b     59.222909
_cell_length_c     59.22728
_cell_angle_alpha  90.009061
_cell_angle_beta   89.974131
_cell_angle_gamma 90.022603
loop_
_atom_site_label
_atom_site_type_symbol
_atom_site_fract_x
_atom_site_fract_y
_atom_site_fract_z
_atom_type_partial_charge
C0 C 0.03791 0.31941 0.47044 0.0
C1 C 0.08635 0.27928 0.50772 0.0
C2 C 0.15145 0.31491 0.45964 0.0
Mg3 Mg 0.06381 0.27467 0.46183 0.0
O4 O 0.08302 0.2961 0.44831 0.0
Mg5 Mg 0.09537 0.32019 0.46868 0.0
Mg6 Mg 0.11138 0.2842 0.43525 0.0
O7 O 0.13985 0.27111 0.4229 0.0
Mg8 Mg 0.16372 0.28919 0.41354 0.0
Mg9 Mg 0.12603 0.24921 0.40114 0.0
C10 C 0.07501 0.24814 0.41644 0.0
C11 C 0.11846 0.23297 0.45326 0.0
O12 O 0.0568 0.3302 0.47236 0.0
O13 O 0.03692 0.29812 0.46665 0.0
O14 O 0.09286 0.29852 0.50058 0.0
O15 O 0.07631 0.2654 0.49467 0.0
O16 O 0.06322 0.24977 0.4346 0.0
O17 O 0.09103 0.26196 0.41164 0.0
C18 C 0.10419 0.33566 0.41692 0.0
O19 O 0.10967 0.31544 0.41124 0.0
O20 O 0.09851 0.34076 0.43709 0.0
O21 O 0.16214 0.23679 0.39354 0.0
O22 O 0.18757 0.26288 0.40414 0.0
O23 O 0.12912 0.2752 0.37129 0.0
C24 C 0.18262 0.24341 0.39597 0.0
O25 O 0.15066 0.30392 0.38352 0.0
O26 O 0.16582 0.31018 0.444 0.0
C27 C 0.13815 0.29475 0.36856 0.0
O28 O 0.13143 0.30641 0.45968 0.0
O29 O 0.11307 0.25335 0.45835 0.0
O30 O 0.12354 0.22712 0.43295 0.0
C31 C 0.45791 0.67553 0.97128 0.0
C32 C 0.41311 0.72099 0.00692 0.0
C33 C 0.34463 0.68922 0.96097 0.0
Mg34 Mg 0.43564 0.72168 0.96082 0.0
O35 O 0.41444 0.70166 0.9484 0.0
Mg36 Mg 0.40047 0.67931 0.96968 0.0
Mg37 Mg 0.38703 0.71559 0.93532 0.0
O38 O 0.35966 0.73071 0.92284 0.0
Mg39 Mg 0.33436 0.71447 0.91422 0.0
Mg40 Mg 0.37488 0.75081 0.90031 0.0
C41 C 0.4265 0.74778 0.9148 0.0
C42 C 0.38412 0.7677 0.95189 0.0
O43 O 0.43826 0.66624 0.97347 0.0
O44 O 0.4605 0.6965 0.96673 0.0
O45 O 0.40496 0.70197 0.00086 0.0
O46 O 0.42406 0.73337 0.99312 0.0
O47 O 0.4386 0.74509 0.93261 0.0
O48 O 0.40885 0.73571 0.91099 0.0
C49 C 0.39011 0.66323 0.91834 0.0
O50 O 0.38624 0.68367 0.91216 0.0
O51 O 0.39544 0.6582 0.93863 0.0
O52 O 0.33955 0.76597 0.89253 0.0
O53 O 0.31262 0.74209 0.90452 0.0
O54 O 0.37 0.72383 0.87147 0.0
C55 C 0.31869 0.76088 0.89563 0.0
O56 O 0.3459 0.69777 0.88472 0.0
O57 O 0.33074 0.69498 0.94528 0.0
C58 C 0.35935 0.70499 0.8695 0.0
O59 O 0.36546 0.69552 0.96054 0.0
O60 O 0.38779 0.74708 0.95754 0.0
O61 O 0.37943 0.7735 0.93148 0.0
C62 C 0.54189 0.17939 0.52927 0.0
C63 C 0.58922 0.22128 0.49317 0.0
C64 C 0.65576 0.18927 0.53874 0.0
Mg65 Mg 0.56661 0.2245 0.5393 0.0
O66 O 0.58631 0.20327 0.55234 0.0
Mg67 Mg 0.59938 0.18006 0.5314 0.0
Mg68 Mg 0.61429 0.21561 0.56599 0.0
O69 O 0.64237 0.22915 0.57876 0.0
Mg70 Mg 0.6678 0.21234 0.58613 0.0
Mg71 Mg 0.62777 0.24895 0.60176 0.0
C72 C 0.57712 0.24988 0.5856 0.0
C73 C 0.62008 0.26794 0.55064 0.0
O74 O 0.56104 0.16909 0.52718 0.0
O75 O 0.54037 0.2005 0.5338 0.0
O76 O 0.59648 0.20222 0.50004 0.0
O77 O 0.57861 0.23456 0.50641 0.0
O78 O 0.56561 0.24868 0.56722 0.0
O79 O 0.59317 0.23606 0.59025 0.0
C80 C 0.60863 0.16339 0.58269 0.0
O81 O 0.61356 0.18358 0.58889 0.0
O82 O 0.60299 0.15871 0.56242 0.0
O83 O 0.66327 0.26241 0.61047 0.0
O84 O 0.69016 0.23928 0.59716 0.0
O85 O 0.63171 0.22059 0.62929 0.0
C86 C 0.68409 0.25748 0.60722 0.0
O87 O 0.65583 0.19487 0.61527 0.0
O88 O 0.67072 0.19465 0.55358 0.0
C89 C 0.64228 0.20165 0.63066 0.0
O90 O 0.6349 0.19485 0.54094 0.0
O91 O 0.61515 0.24774 0.54433 0.0
O92 O 0.62487 0.27269 0.57131 0.0
C93 C 0.96319 0.81532 0.02776 0.0
C94 C 0.91351 0.77612 0.99138 0.0
C95 C 0.8488 0.81166 0.03602 0.0
Mg96 Mg 0.93548 0.77192 0.03766 0.0
O97 O 0.9173 0.79453 0.05066 0.0
Mg98 Mg 0.90578 0.81818 0.02933 0.0
Mg99 Mg 0.88854 0.78384 0.06403 0.0
O100 O 0.85969 0.77159 0.07632 0.0
Mg101 Mg 0.83449 0.78888 0.0829 0.0
Mg102 Mg 0.87247 0.75036 0.09903 0.0
C103 C 0.92327 0.74726 0.08389 0.0
C104 C 0.8804 0.73221 0.04759 0.0
O105 O 0.94481 0.82683 0.02507 0.0
O106 O 0.96306 0.79422 0.03258 0.0
O107 O 0.90732 0.79558 0.99816 0.0
O108 O 0.9235 0.76237 0.00458 0.0
O109 O 0.93492 0.74783 0.06557 0.0
O110 O 0.90796 0.76192 0.0885 0.0
C111 C 0.89699 0.83574 0.08052 0.0
O112 O 0.89074 0.81596 0.08692 0.0
O113 O 0.90319 0.83984 0.06026 0.0
O114 O 0.8361 0.73839 0.10684 0.0
O115 O 0.81086 0.7624 0.09193 0.0
O116 O 0.86895 0.77833 0.12706 0.0
C117 C 0.81569 0.74412 0.10246 0.0
O118 O 0.84597 0.8051 0.11301 0.0
O119 O 0.83332 0.80679 0.05049 0.0
C120 C 0.85887 0.79754 0.12861 0.0
O121 O 0.86944 0.8056 0.03879 0.0
O122 O 0.8863 0.75235 0.04207 0.0
O123 O 0.875 0.72695 0.06799 0.0
C124 C 0.47267 0.039 0.32073 0.0
C125 C 0.50859 0.08788 0.27997 0.0
C126 C 0.45792 0.15249 0.31506 0.0
Mg127 Mg 0.46313 0.06408 0.27583 0.0
O128 O 0.44943 0.08339 0.29702 0.0
Mg129 Mg 0.46945 0.09654 0.32095 0.0
Mg130 Mg 0.43519 0.1111 0.28501 0.0
O131 O 0.42154 0.13883 0.27162 0.0
Mg132 Mg 0.41154 0.16283 0.28889 0.0
Mg133 Mg 0.40035 0.12418 0.24975 0.0
C134 C 0.41755 0.07387 0.24918 0.0
C135 C 0.45297 0.1189 0.23375 0.0
O136 O 0.47434 0.05807 0.33125 0.0
O137 O 0.46857 0.03763 0.29954 0.0
O138 O 0.50147 0.09494 0.29906 0.0
O139 O 0.49576 0.07695 0.26658 0.0
O140 O 0.436 0.06256 0.25085 0.0
O141 O 0.41235 0.0898 0.26293 0.0
C142 C 0.41739 0.10332 0.33663 0.0
O143 O 0.41132 0.10844 0.31643 0.0
O144 O 0.43783 0.09861 0.3416 0.0
O145 O 0.39101 0.15985 0.23687 0.0
O146 O 0.40243 0.18592 0.26197 0.0
O147 O 0.37037 0.12623 0.27574 0.0
C148 C 0.39359 0.18048 0.24297 0.0
O149 O 0.38177 0.14921 0.30369 0.0
O150 O 0.44171 0.16596 0.30977 0.0
C151 C 0.36735 0.13573 0.29503 0.0
O152 O 0.45899 0.13227 0.30708 0.0
O153 O 0.45813 0.11368 0.25415 0.0
O154 O 0.43248 0.12305 0.22776 0.0
C155 C 0.02489 0.96099 0.82153 0.0
C156 C 0.99084 0.91168 0.77992 0.0
C157 C 0.04186 0.84844 0.81755 0.0
Mg158 Mg 0.03604 0.93607 0.77686 0.0
O159 O 0.04947 0.91708 0.79849 0.0
Mg160 Mg 0.02902 0.90366 0.82193 0.0
Mg161 Mg 0.06464 0.88955 0.78721 0.0
O162 O 0.07926 0.86184 0.77486 0.0
Mg163 Mg 0.08981 0.83919 0.79385 0.0
Mg164 Mg 0.10081 0.87681 0.75345 0.0
C165 C 0.08268 0.92688 0.75164 0.0
C166 C 0.04891 0.88121 0.73549 0.0
O167 O 0.02319 0.9419 0.83198 0.0
O168 O 0.02956 0.96244 0.80045 0.0
O169 O 0.99766 0.90479 0.79916 0.0
O170 O 0.00382 0.92273 0.76676 0.0
O171 O 0.06396 0.93783 0.75271 0.0
O172 O 0.08782 0.91118 0.76567 0.0
C173 C 0.08059 0.89787 0.83929 0.0
O174 O 0.08737 0.89288 0.81929 0.0
O175 O 0.05992 0.90217 0.84364 0.0
O176 O 0.11087 0.84098 0.74166 0.0
O177 O 0.10133 0.81557 0.76819 0.0
O178 O 0.13011 0.87591 0.7801 0.0
C179 C 0.10954 0.82054 0.74874 0.0
O180 O 0.11859 0.85449 0.80917 0.0
O181 O 0.05879 0.8353 0.81384 0.0
C182 C 0.13299 0.86762 0.79993 0.0
O183 O 0.04055 0.86818 0.80852 0.0
O184 O 0.04274 0.88628 0.75564 0.0
O185 O 0.06966 0.87732 0.73037 0.0
C186 C 0.97283 0.45809 0.67892 0.0
C187 C 0.00888 0.40726 0.71653 0.0
C188 C 0.95363 0.3458 0.68463 0.0
Mg189 Mg 0.96504 0.43304 0.7243 0.0
O190 O 0.9489 0.41474 0.70412 0.0
Mg191 Mg 0.96647 0.40109 0.67852 0.0
Mg192 Mg 0.93441 0.38742 0.71692 0.0
O193 O 0.92071 0.35988 0.73064 0.0
Mg194 Mg 0.90821 0.33753 0.71264 0.0
Mg195 Mg 0.90149 0.37483 0.75411 0.0
C196 C 0.92056 0.42535 0.75391 0.0
C197 C 0.95506 0.37855 0.7668 0.0
O198 O 0.97263 0.4391 0.66819 0.0
O199 O 0.97037 0.45944 0.70038 0.0
O200 O 6e-05 0.40113 0.69784 0.0
O201 O 0.99742 0.41805 0.73124 0.0
O202 O 0.93922 0.43596 0.75052 0.0
O203 O 0.91397 0.40921 0.74095 0.0
C204 C 0.91309 0.3973 0.66711 0.0
O205 O 0.9086 0.39175 0.68759 0.0
O206 O 0.93317 0.40118 0.66034 0.0
O207 O 0.89186 0.33887 0.76658 0.0
O208 O 0.89856 0.31393 0.73877 0.0
O209 O 0.86969 0.37451 0.73015 0.0
C210 C 0.89218 0.31856 0.75895 0.0
O211 O 0.87871 0.3534 0.69996 0.0
O212 O 0.93711 0.33283 0.69022 0.0
C213 C 0.86523 0.36651 0.71047 0.0
O214 O 0.95565 0.3658 0.69289 0.0
O215 O 0.95922 0.38365 0.74613 0.0
O216 O 0.93487 0.37476 0.77393 0.0
C217 C 0.52712 0.53926 0.17647 0.0
C218 C 0.49078 0.58612 0.21924 0.0
C219 C 0.53637 0.65269 0.18879 0.0
Mg220 Mg 0.53653 0.56289 0.22219 0.0
O221 O 0.55009 0.58308 0.20181 0.0
Mg222 Mg 0.52953 0.59663 0.17853 0.0
Mg223 Mg 0.56327 0.61091 0.21508 0.0
O224 O 0.57526 0.63882 0.22962 0.0
Mg225 Mg 0.58244 0.66486 0.21385 0.0
Mg226 Mg 0.59761 0.62448 0.25025 0.0
C227 C 0.58237 0.57263 0.24897 0.0
C228 C 0.54574 0.6158 0.26678 0.0
O229 O 0.52532 0.55864 0.16659 0.0
O230 O 0.5312 0.53725 0.19762 0.0
O231 O 0.49784 0.59364 0.20033 0.0
O232 O 0.50371 0.57497 0.23234 0.0
O233 O 0.56431 0.56085 0.24627 0.0
O234 O 0.58696 0.58974 0.23637 0.0
C235 C 0.58128 0.60581 0.16317 0.0
O236 O 0.58711 0.61049 0.18356 0.0
O237 O 0.56105 0.60043 0.15798 0.0
O238 O 0.60559 0.66012 0.26449 0.0
O239 O 0.59181 0.68689 0.24149 0.0
O240 O 0.62618 0.62933 0.22287 0.0
C241 C 0.60182 0.68092 0.25972 0.0
O242 O 0.61223 0.6536 0.19718 0.0
O243 O 0.55067 0.6678 0.19506 0.0
C244 C 0.62768 0.6402 0.2041 0.0
O245 O 0.5388 0.63176 0.19394 0.0
O246 O 0.54056 0.61121 0.24621 0.0
O247 O 0.56608 0.62074 0.27275 0.0
C248 C 0.3152 0.47295 0.03651 0.0
C249 C 0.27913 0.50876 0.08884 0.0
C250 C 0.31682 0.45764 0.1499 0.0
Mg251 Mg 0.27204 0.46366 0.06494 0.0
O252 O 0.29454 0.44932 0.08208 0.0
Mg253 Mg 0.31973 0.46875 0.0936 0.0
Mg254 Mg 0.28449 0.43448 0.11028 0.0
O255 O 0.27329 0.42037 0.13871 0.0
Mg256 Mg 0.2924 0.41072 0.16159 0.0
Mg257 Mg 0.25146 0.39862 0.12494 0.0
C258 C 0.24674 0.41718 0.07526 0.0
C259 C 0.23323 0.4505 0.12099 0.0
O260 O 0.32725 0.47449 0.05465 0.0
O261 O 0.29394 0.46895 0.03698 0.0
O262 O 0.29844 0.50085 0.09411 0.0
O263 O 0.26446 0.49653 0.07885 0.0
O264 O 0.24729 0.43615 0.06467 0.0
O265 O 0.2617 0.41158 0.08993 0.0
C266 C 0.33506 0.41646 0.09802 0.0
O267 O 0.31542 0.41084 0.10523 0.0
O268 O 0.34009 0.43677 0.09295 0.0
O269 O 0.24092 0.38904 0.16112 0.0
O270 O 0.26726 0.39995 0.18611 0.0
O271 O 0.27856 0.36941 0.12531 0.0
C272 C 0.248 0.39116 0.18147 0.0
O273 O 0.30724 0.3816 0.14689 0.0
O274 O 0.31272 0.44156 0.16395 0.0
C275 C 0.29838 0.36691 0.13383 0.0
O276 O 0.30785 0.45804 0.1301 0.0
O277 O 0.25312 0.4568 0.11494 0.0
O278 O 0.22853 0.42972 0.12523 0.0
C279 C 0.82232 0.02517 0.96116 0.0
C280 C 0.77899 0.99027 0.91344 0.0
C281 C 0.81136 0.03607 0.84766 0.0
Mg282 Mg 0.77693 0.03564 0.93738 0.0
O283 O 0.7976 0.04899 0.91735 0.0
Mg284 Mg 0.82069 0.02821 0.90377 0.0
Mg285 Mg 0.78462 0.0623 0.88951 0.0
O286 O 0.77043 0.07465 0.86159 0.0
Mg287 Mg 0.78673 0.0827 0.83606 0.0
Mg288 Mg 0.74908 0.0964 0.87597 0.0
C289 C 0.75048 0.08153 0.92788 0.0
C290 C 0.73305 0.0443 0.88385 0.0
O291 O 0.83228 0.02351 0.94181 0.0
O292 O 0.80121 0.02946 0.96313 0.0
O293 O 0.79824 0.99681 0.90627 0.0
O294 O 0.76611 0.00349 0.92451 0.0
O295 O 0.75313 0.06356 0.93977 0.0
O296 O 0.76301 0.08587 0.91066 0.0
C297 C 0.83658 0.07995 0.89527 0.0
O298 O 0.81627 0.08602 0.89048 0.0
O299 O 0.84156 0.05961 0.90045 0.0
O300 O 0.73516 0.10428 0.8404 0.0
O301 O 0.7591 0.09181 0.81378 0.0
O302 O 0.7756 0.12558 0.8716 0.0
C303 C 0.7404 0.10103 0.81963 0.0
O304 O 0.80266 0.11279 0.84814 0.0
O305 O 0.80552 0.05086 0.83284 0.0
C306 C 0.79462 0.12789 0.86134 0.0
O307 O 0.80589 0.03803 0.86857 0.0
O308 O 0.75361 0.03931 0.88861 0.0
O309 O 0.72694 0.06462 0.87916 0.0
C310 C 0.67481 0.97271 0.4584 0.0
C311 C 0.71887 0.00855 0.41285 0.0
C312 C 0.68893 0.96347 0.34519 0.0
Mg313 Mg 0.72065 0.96252 0.43546 0.0
O314 O 0.70047 0.94936 0.41492 0.0
Mg315 Mg 0.6778 0.97044 0.40108 0.0
Mg316 Mg 0.71414 0.93607 0.38733 0.0
O317 O 0.72896 0.92388 0.35969 0.0
Mg318 Mg 0.71356 0.9169 0.33333 0.0
Mg319 Mg 0.74925 0.90137 0.37433 0.0
C320 C 0.74731 0.91665 0.42595 0.0
C321 C 0.76614 0.95305 0.38343 0.0
O322 O 0.6652 0.97461 0.4389 0.0
O323 O 0.69584 0.96828 0.46072 0.0
O324 O 0.69994 0.00206 0.40485 0.0
O325 O 0.73155 0.99508 0.42382 0.0
O326 O 0.74451 0.93472 0.43767 0.0
O327 O 0.7348 0.91193 0.40882 0.0
C328 C 0.66192 0.91884 0.3913 0.0
O329 O 0.68232 0.91271 0.38703 0.0
O330 O 0.65692 0.93913 0.39666 0.0
O331 O 0.76408 0.89356 0.33891 0.0
O332 O 0.7417 0.90771 0.31181 0.0
O333 O 0.72184 0.87304 0.36883 0.0
C334 C 0.75977 0.89757 0.31806 0.0
O335 O 0.69674 0.88679 0.34388 0.0
O336 O 0.69515 0.949 0.3302 0.0
C337 C 0.70342 0.87132 0.3574 0.0
O338 O 0.69376 0.96101 0.36619 0.0
O339 O 0.74554 0.95842 0.38768 0.0
O340 O 0.77198 0.93266 0.37857 0.0
C341 C 0.17962 0.52935 0.53907 0.0
C342 C 0.21893 0.49254 0.58797 0.0
C343 C 0.18605 0.54185 0.65279 0.0
Mg344 Mg 0.22438 0.53814 0.56492 0.0
O345 O 0.20293 0.5524 0.58355 0.0
Mg346 Mg 0.1788 0.53245 0.59646 0.0
Mg347 Mg 0.2153 0.56601 0.61142 0.0
O348 O 0.22912 0.57875 0.63935 0.0
Mg349 Mg 0.21235 0.58797 0.66411 0.0
Mg350 Mg 0.25089 0.60012 0.62486 0.0
C351 C 0.25115 0.58374 0.57448 0.0
C352 C 0.26655 0.54777 0.61759 0.0
O353 O 0.16855 0.52778 0.55786 0.0
O354 O 0.20091 0.53317 0.53838 0.0
O355 O 0.19996 0.50025 0.59461 0.0
O356 O 0.23297 0.50503 0.57745 0.0
O357 O 0.24952 0.56514 0.5634 0.0
O358 O 0.23736 0.58912 0.59033 0.0
C359 C 0.16392 0.58456 0.60451 0.0
O360 O 0.18421 0.59019 0.60981 0.0
O361 O 0.15864 0.56437 0.59909 0.0
O362 O 0.26433 0.60831 0.66043 0.0
O363 O 0.23978 0.59675 0.68693 0.0
O364 O 0.22509 0.63009 0.62846 0.0
C365 C 0.25873 0.60554 0.68116 0.0
O366 O 0.19743 0.61826 0.65163 0.0
O367 O 0.1917 0.55739 0.66692 0.0
C368 C 0.20604 0.63303 0.63848 0.0
O369 O 0.19314 0.54208 0.63223 0.0
O370 O 0.24597 0.5428 0.61287 0.0
O371 O 0.27273 0.56808 0.62225 0.0
C372 C 0.82031 0.75477 0.60829 0.0
C373 C 0.86544 0.70305 0.63354 0.0
C374 C 0.92734 0.74854 0.58222 0.0
Mg375 Mg 0.83803 0.7089 0.58968 0.0
O376 O 0.86138 0.72702 0.57913 0.0
Mg377 Mg 0.87657 0.74861 0.60032 0.0
Mg378 Mg 0.88885 0.71364 0.56506 0.0
O379 O 0.91617 0.7011 0.55037 0.0
Mg380 Mg 0.93569 0.72166 0.53627 0.0
Mg381 Mg 0.90236 0.67739 0.53053 0.0
C382 C 0.84724 0.68358 0.54267 0.0
C383 C 0.89586 0.66196 0.58268 0.0
O384 O 0.8409 0.76138 0.60981 0.0
O385 O 0.81497 0.73534 0.60028 0.0
O386 O 0.87453 0.72253 0.63038 0.0
O387 O 0.8523 0.69395 0.61909 0.0
O388 O 0.83392 0.68809 0.55928 0.0
O389 O 0.86719 0.69211 0.54137 0.0
C390 C 0.88158 0.76506 0.54789 0.0
O391 O 0.88634 0.74467 0.54225 0.0
O392 O 0.87777 0.77078 0.5685 0.0
O393 O 0.94038 0.66609 0.52514 0.0
O394 O 0.9615 0.69746 0.53019 0.0
O395 O 0.90426 0.69914 0.49842 0.0
C396 C 0.95966 0.67627 0.52628 0.0
O397 O 0.92245 0.73151 0.50401 0.0
O398 O 0.93834 0.74599 0.56367 0.0
C399 C 0.91142 0.71816 0.49122 0.0
O400 O 0.91087 0.73547 0.58774 0.0
O401 O 0.89132 0.68228 0.58877 0.0
O402 O 0.90014 0.65681 0.56219 0.0
C403 C 0.68267 0.24165 0.10293 0.0
C404 C 0.64098 0.29699 0.12777 0.0
C405 C 0.57465 0.25091 0.08248 0.0
Mg406 Mg 0.66624 0.28728 0.08301 0.0
O407 O 0.64079 0.27069 0.07539 0.0
Mg408 Mg 0.62628 0.2502 0.09784 0.0
Mg409 Mg 0.61293 0.28468 0.0627 0.0
O410 O 0.5852 0.29739 0.04896 0.0
Mg411 Mg 0.56589 0.27606 0.03571 0.0
Mg412 Mg 0.59866 0.3202 0.02777 0.0
C413 C 0.6548 0.31067 0.03577 0.0
C414 C 0.60738 0.33696 0.07924 0.0
O415 O 0.6619 0.23631 0.10606 0.0
O416 O 0.68848 0.26024 0.09347 0.0
O417 O 0.63056 0.27796 0.12614 0.0
O418 O 0.65428 0.30421 0.11237 0.0
O419 O 0.66957 0.30516 0.05072 0.0
O420 O 0.63387 0.3053 0.03779 0.0
C421 C 0.61828 0.23265 0.04625 0.0
O422 O 0.61363 0.25309 0.04066 0.0
O423 O 0.623 0.2271 0.06673 0.0
O424 O 0.5605 0.33149 0.02264 0.0
O425 O 0.54007 0.29993 0.02907 0.0
O426 O 0.59586 0.29773 0.99651 0.0
C427 C 0.54142 0.321 0.02434 0.0
O428 O 0.57857 0.26518 0.00338 0.0
O429 O 0.56322 0.25283 0.06412 0.0
C430 C 0.58887 0.27846 0.98991 0.0
O431 O 0.59164 0.26377 0.08679 0.0
O432 O 0.61215 0.31677 0.08565 0.0
O433 O 0.60208 0.34156 0.05884 0.0
C434 C 0.31869 0.74229 0.39092 0.0
C435 C 0.36411 0.79455 0.36607 0.0
C436 C 0.42637 0.74871 0.41552 0.0
Mg437 Mg 0.33683 0.78767 0.40986 0.0
O438 O 0.36015 0.76954 0.42018 0.0
Mg439 Mg 0.37513 0.74849 0.39837 0.0
Mg440 Mg 0.38781 0.78307 0.43386 0.0
O441 O 0.41532 0.79578 0.44799 0.0
Mg442 Mg 0.43565 0.77552 0.46141 0.0
Mg443 Mg 0.40185 0.81956 0.46799 0.0
C444 C 0.3463 0.81271 0.45694 0.0
C445 C 0.39402 0.83504 0.41613 0.0
O446 O 0.33925 0.73565 0.38897 0.0
O447 O 0.31357 0.7616 0.3993 0.0
O448 O 0.37333 0.7751 0.36889 0.0
O449 O 0.35075 0.8031 0.38064 0.0
O450 O 0.33307 0.80797 0.44036 0.0
O451 O 0.36642 0.80453 0.45816 0.0
C452 C 0.38103 0.73118 0.45038 0.0
O453 O 0.38611 0.75145 0.45634 0.0
O454 O 0.37659 0.72603 0.42975 0.0
O455 O 0.43996 0.8312 0.47233 0.0
O456 O 0.4613 0.80013 0.46645 0.0
O457 O 0.40463 0.79783 0.49989 0.0
C458 C 0.45932 0.82129 0.47049 0.0
O459 O 0.42358 0.76589 0.49434 0.0
O460 O 0.43791 0.75123 0.43375 0.0
C461 C 0.41235 0.77907 0.50715 0.0
O462 O 0.40954 0.76158 0.41073 0.0
O463 O 0.38954 0.81467 0.41015 0.0
O464 O 0.39873 0.84019 0.43651 0.0
C465 C 0.18283 0.25389 0.89427 0.0
C466 C 0.13796 0.20183 0.86924 0.0
C467 C 0.07506 0.24876 0.9171 0.0
Mg468 Mg 0.16446 0.20854 0.91358 0.0
O469 O 0.14088 0.22697 0.92319 0.0
Mg470 Mg 0.12641 0.24804 0.90106 0.0
Mg471 Mg 0.11267 0.21407 0.93642 0.0
O472 O 0.08463 0.202 0.95015 0.0
Mg473 Mg 0.0648 0.22299 0.96332 0.0
Mg474 Mg 0.09745 0.17825 0.97055 0.0
C475 C 0.15321 0.18405 0.96068 0.0
C476 C 0.1057 0.16221 0.91895 0.0
O477 O 0.16226 0.26034 0.89221 0.0
O478 O 0.18807 0.23468 0.90287 0.0
O479 O 0.1289 0.22137 0.87185 0.0
O480 O 0.15081 0.19299 0.8841 0.0
O481 O 0.16723 0.18831 0.94458 0.0
O482 O 0.13323 0.19259 0.96101 0.0
C483 C 0.11977 0.26594 0.95273 0.0
O484 O 0.11444 0.24576 0.95877 0.0
O485 O 0.12456 0.27087 0.93213 0.0
O486 O 0.0591 0.16747 0.97478 0.0
O487 O 0.03853 0.19901 0.96871 0.0
O488 O 0.09479 0.2003 0.0021 0.0
C489 C 0.03998 0.17783 0.97288 0.0
O490 O 0.0772 0.23287 0.99611 0.0
O491 O 0.06324 0.24688 0.93524 0.0
C492 C 0.08779 0.21939 0.00916 0.0
O493 O 0.0917 0.23549 0.9128 0.0
O494 O 0.11081 0.18243 0.91298 0.0
O495 O 0.1005 0.15726 0.93926 0.0
C496 C 0.60482 0.81605 0.75517 0.0
C497 C 0.6332 0.86205 0.7056 0.0
C498 C 0.58366 0.92449 0.75066 0.0
Mg499 Mg 0.58849 0.83573 0.70924 0.0
O500 O 0.57805 0.85888 0.72768 0.0
Mg501 Mg 0.599 0.87271 0.75038 0.0
Mg502 Mg 0.56565 0.88726 0.71451 0.0
O503 O 0.55253 0.91548 0.70229 0.0
Mg504 Mg 0.53837 0.93464 0.72329 0.0
Mg505 Mg 0.53278 0.90283 0.67784 0.0
C506 C 0.54269 0.84719 0.68284 0.0
C507 C 0.5849 0.89474 0.6634 0.0
O508 O 0.60667 0.83636 0.7625 0.0
O509 O 0.5975 0.81157 0.73526 0.0
O510 O 0.62975 0.87045 0.72531 0.0
O511 O 0.61867 0.84965 0.69561 0.0
O512 O 0.55864 0.83316 0.68748 0.0
O513 O 0.54191 0.86697 0.6918 0.0
C514 C 0.54638 0.87963 0.7652 0.0
O515 O 0.54182 0.88517 0.74474 0.0
O516 O 0.56653 0.8746 0.77155 0.0
O517 O 0.52871 0.94122 0.66755 0.0
O518 O 0.53336 0.96128 0.69966 0.0
O519 O 0.50053 0.90491 0.69898 0.0
C520 C 0.53004 0.96016 0.67831 0.0
O521 O 0.50559 0.92152 0.73222 0.0
O522 O 0.56561 0.93627 0.74807 0.0
C523 C 0.49296 0.91125 0.71812 0.0
O524 O 0.58843 0.9078 0.73758 0.0
O525 O 0.5903 0.8894 0.68373 0.0
O526 O 0.56476 0.90009 0.65791 0.0
C527 C 0.89105 0.17956 0.25847 0.0
C528 C 0.86632 0.13479 0.20575 0.0
C529 C 0.9162 0.07217 0.25115 0.0
Mg530 Mg 0.91012 0.16214 0.21286 0.0
O531 O 0.92029 0.1384 0.23048 0.0
Mg532 Mg 0.89861 0.12327 0.25155 0.0
Mg533 Mg 0.93437 0.11094 0.21692 0.0
O534 O 0.9489 0.0836 0.20426 0.0
Mg535 Mg 0.96244 0.06356 0.22469 0.0
Mg536 Mg 0.96893 0.09726 0.1806 0.0
C537 C 0.95726 0.15282 0.18768 0.0
C538 C 0.91701 0.1043 0.16489 0.0
O539 O 0.88876 0.15888 0.26456 0.0
O540 O 0.89997 0.18509 0.23952 0.0
O541 O 0.86912 0.12531 0.22507 0.0
O542 O 0.88081 0.14832 0.19729 0.0
O543 O 0.94067 0.16597 0.19262 0.0
O544 O 0.95853 0.1326 0.19559 0.0
C545 C 0.9507 0.11787 0.26886 0.0
O546 O 0.95673 0.11291 0.24858 0.0
O547 O 0.93001 0.12202 0.27404 0.0
O548 O 0.97389 0.05922 0.16906 0.0
O549 O 0.96814 0.03793 0.20018 0.0
O550 O 0.00085 0.09471 0.20237 0.0
C551 C 0.97231 0.03988 0.17905 0.0
O552 O 0.9951 0.0762 0.23452 0.0
O553 O 0.9346 0.06087 0.24875 0.0
C554 C 0.00804 0.08717 0.22123 0.0
O555 O 0.91132 0.089 0.23831 0.0
O556 O 0.91087 0.10882 0.18522 0.0
O557 O 0.93749 0.09991 0.15984 0.0
C558 C 0.10302 0.68266 0.24149 0.0
C559 C 0.12898 0.6384 0.29379 0.0
C560 C 0.08117 0.57516 0.24645 0.0
Mg561 Mg 0.08421 0.66437 0.28708 0.0
O562 O 0.07542 0.64009 0.26926 0.0
Mg563 Mg 0.09726 0.6261 0.2477 0.0
Mg564 Mg 0.06279 0.61167 0.28232 0.0
O565 O 0.04936 0.58343 0.29427 0.0
Mg566 Mg 0.0358 0.56388 0.27328 0.0
Mg567 Mg 0.02954 0.59588 0.31877 0.0
C568 C 0.03739 0.65238 0.31133 0.0
C569 C 0.08175 0.60331 0.3333 0.0
O570 O 0.10546 0.66211 0.23508 0.0
O571 O 0.09441 0.68779 0.26071 0.0
O572 O 0.12652 0.62919 0.27428 0.0
O573 O 0.11395 0.65112 0.30263 0.0
O574 O 0.05241 0.66722 0.30611 0.0
O575 O 0.03885 0.63175 0.30477 0.0
C576 C 0.04531 0.6189 0.23091 0.0
O577 O 0.03978 0.61363 0.25124 0.0
O578 O 0.06576 0.62381 0.22543 0.0
O579 O 0.02542 0.55741 0.32887 0.0
O580 O 0.0314 0.53722 0.29704 0.0
O581 O 0.99728 0.59401 0.29749 0.0
C582 C 0.02743 0.53843 0.31828 0.0
O583 O 0.00257 0.57599 0.26492 0.0
O584 O 0.06297 0.56341 0.24816 0.0
C585 C 0.9899 0.58683 0.27856 0.0
O586 O 0.08608 0.59115 0.26026 0.0
O587 O 0.08694 0.60924 0.31312 0.0
O588 O 0.06165 0.59794 0.33894 0.0
C589 C 0.39277 0.31884 0.73966 0.0
C590 C 0.36549 0.36398 0.79066 0.0
C591 C 0.41639 0.42654 0.74679 0.0
Mg592 Mg 0.40962 0.33702 0.78586 0.0
O593 O 0.42066 0.36035 0.76813 0.0
Mg594 Mg 0.39976 0.37515 0.74607 0.0
Mg595 Mg 0.43377 0.38815 0.78194 0.0
O596 O 0.44722 0.41581 0.79498 0.0
Mg597 Mg 0.46111 0.43622 0.77519 0.0
Mg598 Mg 0.46608 0.40267 0.81981 0.0
C599 C 0.45525 0.34701 0.81322 0.0
C600 C 0.41336 0.39569 0.83256 0.0
O601 O 0.39115 0.3394 0.73301 0.0
O602 O 0.40022 0.31364 0.75932 0.0
O603 O 0.36895 0.37299 0.77122 0.0
O604 O 0.37982 0.35097 0.80006 0.0
O605 O 0.43905 0.33361 0.80772 0.0
O606 O 0.45688 0.36702 0.80483 0.0
C607 C 0.45253 0.38101 0.73098 0.0
O608 O 0.45769 0.38608 0.75146 0.0
O609 O 0.4321 0.37668 0.725 0.0
O610 O 0.47009 0.44086 0.83118 0.0
O611 O 0.4652 0.46201 0.79983 0.0
O612 O 0.49898 0.40507 0.79921 0.0
C613 C 0.46854 0.46016 0.82111 0.0
O614 O 0.4942 0.42386 0.76697 0.0
O615 O 0.43436 0.43836 0.74987 0.0
C616 C 0.50666 0.4127 0.78054 0.0
O617 O 0.41149 0.4096 0.75945 0.0
O618 O 0.40873 0.39061 0.81201 0.0
O619 O 0.43338 0.40031 0.83904 0.0
C620 C 0.75716 0.60276 0.81934 0.0
C621 C 0.70248 0.6277 0.86144 0.0
C622 C 0.74799 0.58222 0.92767 0.0
Mg623 Mg 0.71144 0.5829 0.83624 0.0
O624 O 0.72845 0.57497 0.86135 0.0
Mg625 Mg 0.74901 0.59749 0.87582 0.0
Mg626 Mg 0.71449 0.56226 0.88929 0.0
O627 O 0.70168 0.54862 0.91709 0.0
Mg628 Mg 0.72238 0.53576 0.93734 0.0
Mg629 Mg 0.67894 0.52741 0.9036 0.0
C630 C 0.68793 0.53565 0.84763 0.0
C631 C 0.66204 0.57875 0.89481 0.0
O632 O 0.76284 0.60563 0.84006 0.0
O633 O 0.73837 0.59355 0.81374 0.0
O634 O 0.72172 0.62595 0.87136 0.0
O635 O 0.6946 0.61228 0.84855 0.0
O636 O 0.69323 0.5507 0.83286 0.0
O637 O 0.69387 0.53736 0.86842 0.0
C638 C 0.76671 0.54609 0.8842 0.0
O639 O 0.74628 0.54013 0.88855 0.0
O640 O 0.77204 0.56662 0.87949 0.0
O641 O 0.66721 0.52275 0.94163 0.0
O642 O 0.69806 0.52954 0.96301 0.0
O643 O 0.70183 0.49634 0.90636 0.0
C644 C 0.67705 0.52482 0.961 0.0
O645 O 0.73362 0.50351 0.92502 0.0
O646 O 0.74565 0.56414 0.93948 0.0
C647 C 0.72104 0.49009 0.91384 0.0
O648 O 0.73534 0.58644 0.91051 0.0
O649 O 0.68225 0.58519 0.89009 0.0
O650 O 0.65743 0.55834 0.90005 0.0
C651 C 0.26152 0.89115 0.17879 0.0
C652 C 0.2073 0.86704 0.13564 0.0
C653 C 0.24929 0.91827 0.07152 0.0
Mg654 Mg 0.21516 0.91034 0.16382 0.0
O655 O 0.2317 0.92104 0.13946 0.0
Mg656 Mg 0.25241 0.89997 0.12305 0.0
Mg657 Mg 0.21711 0.93544 0.11273 0.0
O658 O 0.20317 0.95022 0.08615 0.0
Mg659 Mg 0.22234 0.96449 0.06543 0.0
Mg660 Mg 0.17937 0.96909 0.1011 0.0
C661 C 0.18854 0.95685 0.1561 0.0
C662 C 0.1657 0.91643 0.10658 0.0
O663 O 0.26663 0.88932 0.15782 0.0
O664 O 0.24288 0.89998 0.18543 0.0
O665 O 0.22614 0.87019 0.1253 0.0
O666 O 0.19945 0.8811 0.14997 0.0
O667 O 0.19438 0.94044 0.16909 0.0
O668 O 0.19569 0.95825 0.1356 0.0
C669 C 0.26882 0.95253 0.11853 0.0
O670 O 0.24833 0.95845 0.11438 0.0
O671 O 0.27434 0.9318 0.12199 0.0
O672 O 0.16632 0.97508 0.06375 0.0
O673 O 0.19671 0.97082 0.04112 0.0
O674 O 0.20069 0.00144 0.0989 0.0
C675 C 0.17561 0.97449 0.04402 0.0
O676 O 0.23224 0.99675 0.07896 0.0
O677 O 0.24588 0.93654 0.06029 0.0
C678 C 0.21925 0.00908 0.09097 0.0
O679 O 0.2382 0.91351 0.08959 0.0
O680 O 0.18636 0.91121 0.11053 0.0
O681 O 0.15944 0.93676 0.10312 0.0
C682 C 0.24512 0.10823 0.67975 0.0
C683 C 0.29682 0.13209 0.63323 0.0
C684 C 0.25026 0.0816 0.57262 0.0
Mg685 Mg 0.29044 0.08899 0.6615 0.0
O686 O 0.27195 0.0782 0.63865 0.0
Mg687 Mg 0.25064 0.09963 0.62353 0.0
Mg688 Mg 0.28495 0.06373 0.61114 0.0
O689 O 0.29708 0.04881 0.58378 0.0
Mg690 Mg 0.27616 0.03496 0.5644 0.0
Mg691 Mg 0.32084 0.02892 0.59742 0.0
C692 C 0.31475 0.04135 0.65286 0.0
C693 C 0.337 0.0808 0.60351 0.0
O694 O 0.23823 0.10965 0.65925 0.0
O695 O 0.26457 0.10015 0.68483 0.0
O696 O 0.27711 0.12917 0.62464 0.0
O697 O 0.30586 0.11774 0.6465 0.0
O698 O 0.31036 0.05827 0.66578 0.0
O699 O 0.30649 0.03989 0.63279 0.0
C700 C 0.23305 0.0476 0.61911 0.0
O701 O 0.25322 0.0414 0.61394 0.0
O702 O 0.22807 0.06837 0.62301 0.0
O703 O 0.3317 0.02327 0.5593 0.0
O704 O 0.30022 0.0286 0.53843 0.0
O705 O 0.29885 0.99721 0.59591 0.0
C706 C 0.32139 0.02448 0.54011 0.0
O707 O 0.26632 0.00265 0.57802 0.0
O708 O 0.25229 0.063 0.56156 0.0
C709 C 0.27978 0.98992 0.58902 0.0
O710 O 0.26335 0.08654 0.58923 0.0
O711 O 0.31678 0.0871 0.60825 0.0
O712 O 0.34185 0.06025 0.59926 0.0
C713 C 0.74005 0.3984 0.31702 0.0
C714 C 0.79476 0.37188 0.35807 0.0
C715 C 0.74736 0.41661 0.42459 0.0
Mg716 Mg 0.78565 0.41772 0.3341 0.0
O717 O 0.76937 0.42441 0.35999 0.0
Mg718 Mg 0.74842 0.40184 0.37357 0.0
Mg719 Mg 0.78277 0.43653 0.38841 0.0
O720 O 0.79457 0.44971 0.4168 0.0
Mg721 Mg 0.77256 0.46276 0.43566 0.0
Mg722 Mg 0.81788 0.471 0.40451 0.0
C723 C 0.80953 0.46439 0.3477 0.0
C724 C 0.83479 0.41966 0.39506 0.0
O725 O 0.7351 0.39428 0.33769 0.0
O726 O 0.75826 0.40869 0.3114 0.0
O727 O 0.77596 0.37358 0.36888 0.0
O728 O 0.802 0.38745 0.34495 0.0
O729 O 0.80392 0.45 0.33239 0.0
O730 O 0.80407 0.46173 0.36854 0.0
C731 C 0.73096 0.45336 0.38226 0.0
O732 O 0.75134 0.45873 0.38738 0.0
O733 O 0.72537 0.43299 0.37705 0.0
O734 O 0.82778 0.47526 0.44329 0.0
O735 O 0.7956 0.46821 0.46251 0.0
O736 O 0.79542 0.50228 0.40689 0.0
C737 C 0.8167 0.47293 0.46199 0.0
O738 O 0.76258 0.49569 0.42379 0.0
O739 O 0.74845 0.43489 0.43625 0.0
C740 C 0.77609 0.50899 0.41359 0.0
O741 O 0.76136 0.41212 0.40862 0.0
O742 O 0.81476 0.41346 0.38942 0.0
O743 O 0.83925 0.43987 0.40117 0.0
C744 C 0.02314 0.49667 0.32029 0.0
C745 C 0.02901 0.51704 0.33098 0.0
C746 C 0.03047 0.476 0.32895 0.0
C747 C 0.0786 0.45383 0.35982 0.0
H748 H 0.04435 0.39813 0.36318 0.0
C749 C 0.11011 0.3756 0.4068 0.0
C750 C 0.10282 0.35403 0.40026 0.0
C751 C 0.10303 0.39471 0.3951 0.0
C752 C 0.05429 0.41342 0.36184 0.0
H753 H 0.04585 0.53168 0.35996 0.0
H754 H 0.05869 0.49547 0.37518 0.0
H755 H 0.02548 0.43308 0.35206 0.0
H756 H 0.08387 0.33521 0.37534 0.0
H757 H 0.07168 0.36882 0.35432 0.0
H758 H 0.10744 0.43433 0.36929 0.0
C759 C 0.04849 0.49556 0.36 0.0
C760 C 0.04339 0.43348 0.35573 0.0
C761 C 0.04087 0.51625 0.35149 0.0
C762 C 0.08986 0.35169 0.38058 0.0
C763 C 0.08263 0.37094 0.36881 0.0
C764 C 0.08953 0.43378 0.36568 0.0
C765 C 0.04409 0.47532 0.34833 0.0
C766 C 0.05537 0.45396 0.35503 0.0
C767 C 0.08838 0.39273 0.37654 0.0
C768 C 0.07746 0.41336 0.36717 0.0
H769 H 0.01405 0.49681 0.30441 0.0
H770 H 0.0268 0.46071 0.31959 0.0
H771 H 0.0884 0.46924 0.35882 0.0
H772 H 0.12002 0.37781 0.42203 0.0
H773 H 0.10771 0.41109 0.40172 0.0
C774 C 0.38292 0.6233 0.90895 0.0
C775 C 0.39085 0.64452 0.90198 0.0
C776 C 0.39037 0.60369 0.8983 0.0
C777 C 0.42158 0.57966 0.85002 0.0
H778 H 0.44324 0.53753 0.89533 0.0
C779 C 0.47311 0.50179 0.82428 0.0
C780 C 0.46677 0.48124 0.83433 0.0
C781 C 0.46568 0.52231 0.83318 0.0
C782 C 0.43713 0.54895 0.88244 0.0
H783 H 0.41086 0.6622 0.87703 0.0
H784 H 0.42392 0.62769 0.85812 0.0
H785 H 0.42372 0.57175 0.90699 0.0
H786 H 0.44891 0.46611 0.86241 0.0
H787 H 0.43576 0.50193 0.87798 0.0
H788 H 0.43471 0.5567 0.82543 0.0
C789 C 0.41198 0.62625 0.8719 0.0
C790 C 0.42588 0.56857 0.88911 0.0
C791 C 0.40438 0.64601 0.88258 0.0
C792 C 0.45433 0.48169 0.8545 0.0
C793 C 0.44668 0.50227 0.86332 0.0
C794 C 0.43273 0.55992 0.84332 0.0
C795 C 0.40602 0.60489 0.88053 0.0
C796 C 0.41782 0.58407 0.87299 0.0
C797 C 0.45153 0.52277 0.85222 0.0
C798 C 0.44059 0.54426 0.85945 0.0
H799 H 0.37238 0.62176 0.92383 0.0
H800 H 0.38497 0.58751 0.9049 0.0
H801 H 0.41552 0.59124 0.83724 0.0
H802 H 0.48276 0.50193 0.80873 0.0
H803 H 0.47031 0.53777 0.82458 0.0
C804 C 0.54377 0.9826 0.64535 0.0
C805 C 0.53182 0.98167 0.66581 0.0
C806 C 0.55177 0.0033 0.63718 0.0
C807 C 0.54795 0.06547 0.64302 0.0
H808 H 0.6117 0.0635 0.62815 0.0
C809 C 0.59585 0.14673 0.61938 0.0
C810 C 0.60765 0.14461 0.59894 0.0
C811 C 0.58869 0.12734 0.63098 0.0
C812 C 0.59389 0.06436 0.63218 0.0
H813 H 0.51696 0.00176 0.69256 0.0
H814 H 0.53045 0.03783 0.67805 0.0
H815 H 0.59201 0.02876 0.63807 0.0
H816 H 0.62328 0.12102 0.5758 0.0
H817 H 0.61118 0.08751 0.59589 0.0
H818 H 0.5497 0.10101 0.63662 0.0
C819 C 0.53391 0.02265 0.66845 0.0
C820 C 0.58256 0.04442 0.6377 0.0
C821 C 0.52615 0.00198 0.67674 0.0
C822 C 0.61416 0.12306 0.59155 0.0
C823 C 0.60722 0.10382 0.60312 0.0
C824 C 0.55925 0.08544 0.63732 0.0
C825 C 0.54769 0.02341 0.64918 0.0
C826 C 0.55941 0.04469 0.6429 0.0
C827 C 0.59349 0.10566 0.62238 0.0
C828 C 0.58231 0.08508 0.63154 0.0
H829 H 0.54857 0.96722 0.63667 0.0
H830 H 0.56203 0.00345 0.62203 0.0
H831 H 0.53011 0.06621 0.647 0.0
H832 H 0.59056 0.16319 0.62535 0.0
H833 H 0.57848 0.1293 0.64603 0.0
C834 C 0.91161 0.85324 0.11608 0.0
C835 C 0.89854 0.85481 0.09638 0.0
C836 C 0.91955 0.87294 0.12663 0.0
C837 C 0.93499 0.93046 0.10962 0.0
H838 H 0.94081 0.94282 0.17354 0.0
C839 C 0.9603 0.01796 0.14504 0.0
C840 C 0.97169 0.01875 0.1658 0.0
C841 C 0.95359 0.99718 0.13592 0.0
C842 C 0.93969 0.93946 0.1556 0.0
H843 H 0.88149 0.87778 0.07364 0.0
H844 H 0.89466 0.91193 0.09232 0.0
H845 H 0.92232 0.90811 0.16112 0.0
H846 H 0.98694 0.99849 0.19217 0.0
H847 H 0.9761 0.96233 0.17585 0.0
H848 H 0.95242 0.9616 0.10397 0.0
C849 C 0.89941 0.89571 0.0993 0.0
C850 C 0.92896 0.91961 0.14854 0.0
C851 C 0.89163 0.87617 0.08879 0.0
C852 C 0.97805 0.99838 0.17618 0.0
C853 C 0.97155 0.97766 0.16699 0.0
C854 C 0.94582 0.9502 0.11665 0.0
C855 C 0.91444 0.89434 0.11756 0.0
C856 C 0.92622 0.91505 0.12546 0.0
C857 C 0.95835 0.97682 0.14731 0.0
C858 C 0.94814 0.95509 0.13973 0.0
H859 H 0.91734 0.83694 0.12208 0.0
H860 H 0.931 0.87138 0.1408 0.0
H861 H 0.93362 0.92717 0.09168 0.0
H862 H 0.95491 0.03339 0.13683 0.0
H863 H 0.94339 0.99722 0.12075 0.0
C864 C 0.35492 0.03665 0.5176 0.0
C865 C 0.33435 0.02494 0.51879 0.0
C866 C 0.36366 0.04329 0.49665 0.0
C867 C 0.34303 0.05594 0.43886 0.0
H868 H 0.40663 0.06512 0.42667 0.0
C869 C 0.38252 0.08601 0.35301 0.0
C870 C 0.40094 0.1008 0.35511 0.0
C871 C 0.37203 0.0773 0.37242 0.0
C872 C 0.38877 0.06281 0.42992 0.0
H873 H 0.30797 0.00903 0.49906 0.0
H874 H 0.32371 0.01962 0.46256 0.0
H875 H 0.39519 0.04564 0.46101 0.0
H876 H 0.42136 0.11988 0.37867 0.0
H877 H 0.40285 0.10517 0.41231 0.0
H878 H 0.3368 0.07299 0.40745 0.0
C879 C 0.33268 0.02453 0.47772 0.0
C880 C 0.38221 0.05163 0.44962 0.0
C881 C 0.32382 0.01816 0.49863 0.0
C882 C 0.40718 0.10848 0.37664 0.0
C883 C 0.39679 0.09984 0.39589 0.0
C884 C 0.34963 0.06695 0.41899 0.0
C885 C 0.35212 0.0381 0.47647 0.0
C886 C 0.35925 0.0483 0.45455 0.0
C887 C 0.37995 0.08327 0.39403 0.0
C888 C 0.37256 0.07085 0.41453 0.0
H889 H 0.36323 0.04238 0.53286 0.0
H890 H 0.37863 0.05379 0.49643 0.0
H891 H 0.32516 0.05405 0.4422 0.0
H892 H 0.37761 0.07964 0.33658 0.0
H893 H 0.35897 0.06463 0.37052 0.0
C894 C 0.17087 0.98262 0.00317 0.0
C895 C 0.16164 0.97433 0.0234 0.0
C896 C 0.16169 0.97641 0.98237 0.0
C897 C 0.11337 0.94706 0.95475 0.0
H898 H 0.15913 0.92932 0.91124 0.0
C899 C 0.08981 0.89235 0.87949 0.0
C900 C 0.09641 0.90053 0.85825 0.0
C901 C 0.0997 0.90071 0.89912 0.0
C902 C 0.14617 0.93435 0.92313 0.0
H903 H 0.13461 0.95442 0.03785 0.0
H904 H 0.11856 0.94338 0.00154 0.0
H905 H 0.17034 0.94786 0.9463 0.0
H906 H 0.11972 0.92245 0.84063 0.0
H907 H 0.1374 0.93707 0.87519 0.0
H908 H 0.08927 0.93314 0.93175 0.0
C909 C 0.13277 0.95488 0.00166 0.0
C910 C 0.15253 0.94512 0.94319 0.0
C911 C 0.14186 0.96132 0.02253 0.0
C912 C 0.11457 0.9157 0.85683 0.0
C913 C 0.12452 0.92417 0.8766 0.0
C914 C 0.10705 0.93618 0.93479 0.0
C915 C 0.14322 0.96154 0.98132 0.0
C916 C 0.13621 0.95148 0.95934 0.0
C917 C 0.11633 0.91756 0.89795 0.0
C918 C 0.12339 0.92947 0.91888 0.0
H919 H 0.18611 0.99275 0.00338 0.0
H920 H 0.16974 0.98242 0.96709 0.0
H921 H 0.10033 0.95201 0.96657 0.0
H922 H 0.0758 0.88065 0.88098 0.0
H923 H 0.09347 0.89484 0.91529 0.0
C924 C 0.81551 0.47489 0.50391 0.0
C925 C 0.82846 0.4729 0.48409 0.0
C926 C 0.82453 0.46922 0.52485 0.0
C927 C 0.87005 0.43379 0.54911 0.0
H928 H 0.84538 0.45673 0.60522 0.0
C929 C 0.88731 0.42548 0.65097 0.0
C930 C 0.89509 0.40315 0.6512 0.0
C931 C 0.87727 0.43441 0.63158 0.0
C932 C 0.85271 0.45019 0.58981 0.0
H933 H 0.86181 0.46542 0.47108 0.0
H934 H 0.87808 0.45653 0.508 0.0
H935 H 0.83578 0.47505 0.56999 0.0
H936 H 0.89736 0.37211 0.63219 0.0
H937 H 0.8781 0.38697 0.59889 0.0
H938 H 0.88811 0.40984 0.56903 0.0
C939 C 0.86055 0.46162 0.50717 0.0
C940 C 0.84693 0.46058 0.56942 0.0
C941 C 0.85137 0.46709 0.486 0.0
C942 C 0.89106 0.38928 0.63248 0.0
C943 C 0.88052 0.39803 0.61323 0.0
C944 C 0.87624 0.42371 0.56955 0.0
C945 C 0.84696 0.46172 0.52676 0.0
C946 C 0.85521 0.45233 0.5487 0.0
C947 C 0.87456 0.42107 0.61207 0.0
C948 C 0.86744 0.43156 0.59022 0.0
H949 H 0.79783 0.47953 0.50312 0.0
H950 H 0.81331 0.4694 0.53928 0.0
H951 H 0.87658 0.42663 0.53362 0.0
H952 H 0.89089 0.43665 0.66502 0.0
H953 H 0.87324 0.45223 0.63149 0.0
C954 C 0.67377 0.51902 0.00243 0.0
C955 C 0.66367 0.52566 0.98202 0.0
C956 C 0.66488 0.52608 0.0231 0.0
C957 C 0.61601 0.55521 0.05019 0.0
H958 H 0.66183 0.57622 0.09213 0.0
C959 C 0.5915 0.61205 0.12333 0.0
C960 C 0.5979 0.60423 0.14476 0.0
C961 C 0.60189 0.60369 0.10395 0.0
C962 C 0.64888 0.57032 0.08065 0.0
H963 H 0.63546 0.54356 0.96725 0.0
H964 H 0.61997 0.55616 0.00327 0.0
H965 H 0.67309 0.55644 0.05774 0.0
H966 H 0.62164 0.5833 0.16299 0.0
H967 H 0.64021 0.56874 0.12887 0.0
H968 H 0.59186 0.56955 0.07289 0.0
C969 C 0.63463 0.54524 0.00343 0.0
C970 C 0.65526 0.55881 0.06099 0.0
C971 C 0.6434 0.53791 0.98272 0.0
C972 C 0.61659 0.58977 0.14664 0.0
C973 C 0.62704 0.5813 0.12712 0.0
C974 C 0.60967 0.56686 0.0697 0.0
C975 C 0.64584 0.54023 0.02383 0.0
C976 C 0.6389 0.55121 0.04543 0.0
C977 C 0.61887 0.58724 0.10559 0.0
C978 C 0.62603 0.57475 0.08503 0.0
H979 H 0.68941 0.50951 0.00236 0.0
H980 H 0.67356 0.52129 0.03845 0.0
H981 H 0.60293 0.5493 0.03887 0.0
H982 H 0.57712 0.62322 0.12147 0.0
H983 H 0.59565 0.60904 0.08761 0.0
C984 C 0.36936 0.39358 0.10584 0.0
C985 C 0.35157 0.3993 0.09138 0.0
C986 C 0.38889 0.38341 0.09719 0.0
C987 C 0.4338 0.37977 0.07318 0.0
H988 H 0.43431 0.34353 0.01875 0.0
C989 C 0.5182 0.35596 0.03095 0.0
C990 C 0.51974 0.33342 0.02376 0.0
C991 C 0.49708 0.36535 0.03623 0.0
C992 C 0.4346 0.35349 0.03407 0.0
H993 H 0.33971 0.39871 0.05689 0.0
H994 H 0.37366 0.38169 0.04161 0.0
H995 H 0.39866 0.35277 0.03643 0.0
H996 H 0.5003 0.30382 0.01435 0.0
H997 H 0.46411 0.31965 0.02402 0.0
H998 H 0.46983 0.37921 0.07163 0.0
C999 C 0.37262 0.38406 0.05969 0.0
C1000 C 0.41399 0.35906 0.04412 0.0
C1001 C 0.35303 0.39378 0.06843 0.0
C1002 C 0.49973 0.32119 0.02006 0.0
C1003 C 0.47881 0.33041 0.0255 0.0
C1004 C 0.45444 0.37377 0.0634 0.0
C1005 C 0.39118 0.37945 0.0738 0.0
C1006 C 0.41325 0.37232 0.06382 0.0
C1007 C 0.47719 0.35232 0.03449 0.0
C1008 C 0.45517 0.36047 0.04373 0.0
H1009 H 0.36872 0.39819 0.12354 0.0
H1010 H 0.40254 0.37958 0.10872 0.0
H1011 H 0.43405 0.39046 0.08801 0.0
H1012 H 0.53331 0.3658 0.03398 0.0
H1013 H 0.49647 0.3825 0.04251 0.0
C1014 C 0.01768 0.14422 0.96046 0.0
C1015 C 0.01862 0.16496 0.97188 0.0
C1016 C 0.99686 0.13538 0.95352 0.0
C1017 C 0.93919 0.15558 0.93955 0.0
H1018 H 0.92702 0.09175 0.9322 0.0
C1019 C 0.85325 0.11549 0.91085 0.0
C1020 C 0.85518 0.09638 0.89695 0.0
C1021 C 0.87277 0.12623 0.91902 0.0
C1022 C 0.93027 0.10966 0.93396 0.0
H1023 H 0.99855 0.19163 0.98688 0.0
H1024 H 0.96229 0.17574 0.97574 0.0
H1025 H 0.96129 0.10373 0.95145 0.0
H1026 H 0.87854 0.07499 0.8787 0.0
H1027 H 0.91236 0.09392 0.89242 0.0
H1028 H 0.90786 0.16133 0.92221 0.0
C1029 C 0.97755 0.16669 0.9713 0.0
C1030 C 0.94994 0.11653 0.94502 0.0
C1031 C 0.99832 0.17564 0.97798 0.0
C1032 C 0.87665 0.08967 0.88946 0.0
C1033 C 0.896 0.10032 0.89754 0.0
C1034 C 0.91937 0.14867 0.92865 0.0
C1035 C 0.97658 0.14699 0.9581 0.0
C1036 C 0.95483 0.13959 0.94776 0.0
C1037 C 0.89431 0.11789 0.91335 0.0
C1038 C 0.9149 0.12563 0.92543 0.0
H1039 H 0.03306 0.13579 0.95525 0.0
H1040 H 0.99685 0.12021 0.94331 0.0
H1041 H 0.94252 0.1735 0.94097 0.0
H1042 H 0.83688 0.12081 0.91703 0.0
H1043 H 0.87099 0.13985 0.93108 0.0
C1044 C 0.64494 0.88318 0.40614 0.0
C1045 C 0.64327 0.90244 0.39242 0.0
C1046 C 0.6253 0.87255 0.4141 0.0
C1047 C 0.56771 0.88964 0.42857 0.0
H1048 H 0.55589 0.82596 0.43743 0.0
C1049 C 0.48085 0.85496 0.45701 0.0
C1050 C 0.48035 0.83464 0.46919 0.0
C1051 C 0.50146 0.86387 0.44954 0.0
C1052 C 0.5591 0.84385 0.43546 0.0
H1053 H 0.62023 0.92408 0.37409 0.0
H1054 H 0.58616 0.90522 0.38732 0.0
H1055 H 0.59034 0.83779 0.41806 0.0
H1056 H 0.50097 0.80889 0.48499 0.0
H1057 H 0.53687 0.82492 0.47289 0.0
H1058 H 0.53676 0.89586 0.44612 0.0
C1059 C 0.60243 0.8987 0.39256 0.0
C1060 C 0.57879 0.85057 0.42421 0.0
C1061 C 0.62192 0.90929 0.38474 0.0
C1062 C 0.50087 0.82456 0.47553 0.0
C1063 C 0.52143 0.83356 0.4683 0.0
C1064 C 0.54815 0.88297 0.43994 0.0
C1065 C 0.60385 0.88107 0.40834 0.0
C1066 C 0.58316 0.87353 0.4204 0.0
C1067 C 0.52195 0.85272 0.45432 0.0
C1068 C 0.54347 0.85998 0.44341 0.0
H1069 H 0.66122 0.87774 0.41246 0.0
H1070 H 0.6269 0.85888 0.42613 0.0
H1071 H 0.57087 0.90753 0.42638 0.0
H1072 H 0.46529 0.8629 0.45158 0.0
H1073 H 0.50116 0.87862 0.43875 0.0
C1074 C 0.98196 0.64356 0.54048 0.0
C1075 C 0.98084 0.6632 0.52726 0.0
C1076 C 0.00287 0.63558 0.54811 0.0
C1077 C 0.06488 0.63995 0.54172 0.0
H1078 H 0.065 0.63188 0.6067 0.0
C1079 C 0.14757 0.62004 0.58867 0.0
C1080 C 0.14566 0.6013 0.60303 0.0
C1081 C 0.12807 0.63111 0.58102 0.0
C1082 C 0.06529 0.63396 0.58854 0.0
H1083 H 0.00062 0.68855 0.50979 0.0
H1084 H 0.03707 0.67424 0.52252 0.0
H1085 H 0.02972 0.6402 0.5873 0.0
H1086 H 0.12246 0.58071 0.62234 0.0
H1087 H 0.08875 0.5999 0.6094 0.0
H1088 H 0.10036 0.63314 0.54285 0.0
C1089 C 0.02191 0.66517 0.52727 0.0
C1090 C 0.04502 0.63858 0.5774 0.0
C1091 C 0.00104 0.67331 0.51991 0.0
C1092 C 0.12433 0.59524 0.61137 0.0
C1093 C 0.10498 0.60628 0.60388 0.0
C1094 C 0.08516 0.63509 0.55284 0.0
C1095 C 0.02296 0.64693 0.54236 0.0
C1096 C 0.04454 0.64137 0.55385 0.0
C1097 C 0.10648 0.62364 0.58777 0.0
C1098 C 0.08558 0.63177 0.57638 0.0
H1099 H 0.96667 0.6356 0.54662 0.0
H1100 H 0.00324 0.62125 0.55946 0.0
H1101 H 0.06502 0.64211 0.52356 0.0
H1102 H 0.16386 0.62485 0.58185 0.0
H1103 H 0.12984 0.64472 0.56894 0.0
C1104 C 0.9604 0.481 0.64578 0.0
C1105 C 0.97212 0.47961 0.66633 0.0
C1106 C 0.95402 0.50204 0.63714 0.0
C1107 C 0.94196 0.55985 0.65776 0.0
H1108 H 0.93365 0.57218 0.59409 0.0
C1109 C 0.91305 0.64575 0.61761 0.0
C1110 C 0.89828 0.64359 0.5992 0.0
C1111 C 0.92153 0.62639 0.62832 0.0
C1112 C 0.93573 0.56889 0.61196 0.0
H1113 H 0.98825 0.49908 0.69279 0.0
H1114 H 0.97799 0.53574 0.67724 0.0
H1115 H 0.95276 0.5377 0.60567 0.0
H1116 H 0.87895 0.62002 0.57902 0.0
H1117 H 0.8933 0.58643 0.59789 0.0
H1118 H 0.92505 0.59137 0.66385 0.0
C1119 C 0.97293 0.52066 0.66822 0.0
C1120 C 0.94669 0.54912 0.6186 0.0
C1121 C 0.97907 0.49965 0.67698 0.0
C1122 C 0.89037 0.62208 0.59317 0.0
C1123 C 0.89877 0.60287 0.60378 0.0
C1124 C 0.93117 0.5798 0.65108 0.0
C1125 C 0.95946 0.5221 0.64874 0.0
C1126 C 0.94965 0.54414 0.64159 0.0
C1127 C 0.91533 0.60477 0.62061 0.0
C1128 C 0.92758 0.58427 0.62811 0.0
H1129 H 0.95457 0.46585 0.63735 0.0
H1130 H 0.94356 0.50243 0.62215 0.0
H1131 H 0.9436 0.55645 0.67565 0.0
H1132 H 0.91957 0.66217 0.62237 0.0
H1133 H 0.93419 0.62829 0.64137 0.0
C1134 C 0.54022 0.51774 0.14265 0.0
C1135 C 0.52826 0.51825 0.1631 0.0
C1136 C 0.54755 0.49713 0.13366 0.0
C1137 C 0.56199 0.43969 0.15371 0.0
H1138 H 0.57046 0.42766 0.09 0.0
C1139 C 0.59224 0.35403 0.11474 0.0
C1140 C 0.60578 0.35581 0.09537 0.0
C1141 C 0.58397 0.37361 0.12524 0.0
C1142 C 0.56843 0.43089 0.10789 0.0
H1143 H 0.51262 0.49764 0.18898 0.0
H1144 H 0.52452 0.46173 0.17285 0.0
H1145 H 0.55057 0.46167 0.10172 0.0
H1146 H 0.62347 0.37901 0.07333 0.0
H1147 H 0.6097 0.41297 0.09194 0.0
H1148 H 0.57976 0.40867 0.15975 0.0
C1149 C 0.52904 0.47717 0.16416 0.0
C1150 C 0.55698 0.45038 0.11459 0.0
C1151 C 0.52194 0.49773 0.17323 0.0
C1152 C 0.61295 0.37724 0.0882 0.0
C1153 C 0.60482 0.39667 0.09866 0.0
C1154 C 0.57335 0.42008 0.14698 0.0
C1155 C 0.54285 0.47665 0.14487 0.0
C1156 C 0.55376 0.45516 0.13759 0.0
C1157 C 0.58924 0.39509 0.11645 0.0
C1158 C 0.57695 0.41563 0.124 0.0
H1159 H 0.54559 0.5333 0.13465 0.0
H1160 H 0.5582 0.49742 0.11879 0.0
H1161 H 0.56021 0.44299 0.1716 0.0
H1162 H 0.58633 0.33768 0.12043 0.0
H1163 H 0.5721 0.3719 0.13905 0.0
C1164 C 0.45998 0.01635 0.354 0.0
C1165 C 0.47172 0.01755 0.33345 0.0
C1166 C 0.45299 0.99542 0.36253 0.0
C1167 C 0.43961 0.93783 0.34157 0.0
H1168 H 0.43095 0.92523 0.40514 0.0
C1169 C 0.41017 0.85163 0.3808 0.0
C1170 C 0.39586 0.85354 0.39961 0.0
C1171 C 0.41854 0.87116 0.37023 0.0
C1172 C 0.43309 0.9286 0.38729 0.0
H1173 H 0.48723 0.9978 0.30684 0.0
H1174 H 0.47602 0.96133 0.32222 0.0
H1175 H 0.45041 0.95961 0.3938 0.0
H1176 H 0.377 0.87687 0.4205 0.0
H1177 H 0.39105 0.9107 0.40184 0.0
H1178 H 0.42244 0.90649 0.33525 0.0
C1179 C 0.47137 0.97648 0.33134 0.0
C1180 C 0.44426 0.94833 0.38079 0.0
C1181 C 0.4781 0.99737 0.32269 0.0
C1182 C 0.3881 0.87499 0.40607 0.0
C1183 C 0.39637 0.89435 0.39558 0.0
C1184 C 0.4286 0.91794 0.34812 0.0
C1185 C 0.45784 0.97527 0.3508 0.0
C1186 C 0.44745 0.95339 0.35784 0.0
C1187 C 0.41262 0.8927 0.37842 0.0
C1188 C 0.4249 0.91331 0.37105 0.0
H1189 H 0.45454 0.03163 0.36247 0.0
H1190 H 0.44252 0.99523 0.37752 0.0
H1191 H 0.44138 0.94129 0.32371 0.0
H1192 H 0.41656 0.83528 0.37566 0.0
H1193 H 0.43094 0.86942 0.3569 0.0
C1194 C 0.09076 0.14637 0.88277 0.0
C1195 C 0.10377 0.14378 0.9024 0.0
C1196 C 0.08287 0.12726 0.87119 0.0
C1197 C 0.0878 0.06424 0.86853 0.0
H1198 H 0.02371 0.06672 0.85527 0.0
C1199 C 0.03718 0.98307 0.85519 0.0
C1200 C 0.02579 0.98231 0.83442 0.0
C1201 C 0.04492 0.00371 0.86374 0.0
C1202 C 0.04162 0.06582 0.85886 0.0
H1203 H 0.12044 0.11966 0.92418 0.0
H1204 H 0.10696 0.08662 0.9042 0.0
H1205 H 0.04372 0.10121 0.86598 0.0
H1206 H 0.01148 0.00259 0.80754 0.0
H1207 H 0.0244 0.03861 0.8228 0.0
H1208 H 0.08554 0.02877 0.86202 0.0
C1209 C 0.10273 0.10309 0.89749 0.0
C1210 C 0.05317 0.08561 0.86473 0.0
C1211 C 0.11049 0.12206 0.90901 0.0
C1212 C 0.02022 0.00271 0.82361 0.0
C1213 C 0.02767 0.02333 0.83231 0.0
C1214 C 0.07622 0.04448 0.86294 0.0
C1215 C 0.088 0.10538 0.87904 0.0
C1216 C 0.07637 0.08501 0.86991 0.0
C1217 C 0.04107 0.02391 0.85184 0.0
C1218 C 0.05296 0.045 0.85831 0.0
H1219 H 0.08523 0.16297 0.87747 0.0
H1220 H 0.07189 0.1296 0.85676 0.0
H1221 H 0.10572 0.06318 0.87202 0.0
H1222 H 0.0419 0.96763 0.86378 0.0
H1223 H 0.05492 0.00375 0.87905 0.0
C1224 C 0.64216 0.95777 0.48027 0.0
C1225 C 0.66124 0.97178 0.47925 0.0
C1226 C 0.63408 0.95021 0.50118 0.0
C1227 C 0.63709 0.95798 0.56313 0.0
H1228 H 0.63243 0.89267 0.56457 0.0
C1229 C 0.61953 0.91197 0.6468 0.0
C1230 C 0.60178 0.89635 0.64529 0.0
C1231 C 0.63017 0.91975 0.62711 0.0
C1232 C 0.63353 0.91092 0.56449 0.0
H1233 H 0.6855 0.99064 0.49909 0.0
H1234 H 0.67096 0.9781 0.53553 0.0
H1235 H 0.64 0.91177 0.52894 0.0
H1236 H 0.58251 0.87514 0.62267 0.0
H1237 H 0.60095 0.88834 0.58859 0.0
H1238 H 0.63007 0.95723 0.59856 0.0
C1239 C 0.66238 0.97268 0.52032 0.0
C1240 C 0.63772 0.92188 0.54402 0.0
C1241 C 0.67064 0.97995 0.49946 0.0
C1242 C 0.59635 0.88703 0.62422 0.0
C1243 C 0.60694 0.89469 0.60466 0.0
C1244 C 0.63264 0.94704 0.5836 0.0
C1245 C 0.64477 0.95685 0.52135 0.0
C1246 C 0.63935 0.94553 0.54307 0.0
C1247 C 0.62319 0.91197 0.60571 0.0
C1248 C 0.63061 0.92336 0.58452 0.0
H1249 H 0.63481 0.95098 0.46495 0.0
H1250 H 0.62025 0.93825 0.50153 0.0
H1251 H 0.63833 0.97623 0.5629 0.0
H1252 H 0.62378 0.9196 0.66287 0.0
H1253 H 0.64296 0.93274 0.62855 0.0
C1254 C 0.90671 0.11012 0.12497 0.0
C1255 C 0.90058 0.10204 0.14638 0.0
C1256 C 0.89583 0.10229 0.10564 0.0
C1257 C 0.8663 0.0513 0.08599 0.0
H1258 H 0.8612 0.08576 0.03057 0.0
C1259 C 0.82559 0.01931 0.00262 0.0
C1260 C 0.83563 0.02618 0.98222 0.0
C1261 C 0.83431 0.02653 0.02332 0.0
C1262 C 0.86282 0.07586 0.04586 0.0
H1263 H 0.87718 0.08075 0.16466 0.0
H1264 H 0.85752 0.06736 0.13071 0.0
H1265 H 0.87046 0.10504 0.06569 0.0
H1266 H 0.8636 0.04458 0.96751 0.0
H1267 H 0.87891 0.05723 0.00377 0.0
H1268 H 0.8582 0.02216 0.066 0.0
C1269 C 0.87109 0.07948 0.12886 0.0
C1270 C 0.86801 0.08692 0.06604 0.0
C1271 C 0.88204 0.08741 0.14832 0.0
C1272 C 0.85567 0.03882 0.98296 0.0
C1273 C 0.86422 0.04634 0.00369 0.0
C1274 C 0.86084 0.04026 0.0658 0.0
C1275 C 0.87853 0.08611 0.10722 0.0
C1276 C 0.87016 0.07477 0.08634 0.0
C1277 C 0.85305 0.04103 0.02401 0.0
C1278 C 0.85938 0.05239 0.04546 0.0
H1279 H 0.92111 0.12126 0.12304 0.0
H1280 H 0.90222 0.10771 0.08939 0.0
H1281 H 0.86819 0.04129 0.10117 0.0
H1282 H 0.81005 0.00964 0.00252 0.0
H1283 H 0.82535 0.02214 0.03866 0.0
C1284 C 0.14475 0.53531 0.51532 0.0
C1285 C 0.16773 0.52972 0.51704 0.0
C1286 C 0.13537 0.54088 0.49427 0.0
C1287 C 0.14896 0.54272 0.43197 0.0
H1288 H 0.10572 0.59171 0.43258 0.0
C1289 C 0.1019 0.61219 0.36892 0.0
C1290 C 0.09931 0.59832 0.34995 0.0
C1291 C 0.11249 0.60391 0.38835 0.0
C1292 C 0.11819 0.57837 0.43199 0.0
H1293 H 0.19832 0.52366 0.49771 0.0
H1294 H 0.18259 0.53416 0.46188 0.0
H1295 H 0.11788 0.57522 0.46791 0.0
H1296 H 0.10594 0.56531 0.33593 0.0
H1297 H 0.1235 0.55045 0.36975 0.0
H1298 H 0.15064 0.54696 0.39628 0.0
C1299 C 0.17141 0.534 0.47633 0.0
C1300 C 0.12474 0.56843 0.45239 0.0
C1301 C 0.18059 0.52813 0.49713 0.0
C1302 C 0.10841 0.57651 0.3502 0.0
C1303 C 0.11842 0.56799 0.36976 0.0
C1304 C 0.14291 0.55307 0.41166 0.0
C1305 C 0.14885 0.54117 0.47459 0.0
C1306 C 0.14031 0.55049 0.45272 0.0
C1307 C 0.11989 0.58129 0.38945 0.0
C1308 C 0.12738 0.57104 0.4113 0.0
H1309 H 0.13436 0.53665 0.53032 0.0
H1310 H 0.11775 0.54569 0.4936 0.0
H1311 H 0.16062 0.52867 0.43128 0.0
H1312 H 0.09457 0.62895 0.36917 0.0
H1313 H 0.11391 0.61498 0.40282 0.0
C1314 C 0.31241 0.472 0.99454 0.0
C1315 C 0.32611 0.47243 0.01394 0.0
C1316 C 0.32128 0.46595 0.97362 0.0
C1317 C 0.36964 0.43406 0.94969 0.0
H1318 H 0.34076 0.45052 0.89336 0.0
C1319 C 0.38463 0.42145 0.84789 0.0
C1320 C 0.39535 0.4004 0.84884 0.0
C1321 C 0.37409 0.43032 0.86705 0.0
C1322 C 0.34928 0.44583 0.90882 0.0
H1323 H 0.36047 0.469 0.02602 0.0
H1324 H 0.37634 0.45963 0.98911 0.0
H1325 H 0.33022 0.4698 0.9278 0.0
H1326 H 0.4022 0.37126 0.86966 0.0
H1327 H 0.38203 0.38566 0.9026 0.0
H1328 H 0.38981 0.41122 0.93054 0.0
C1329 C 0.35841 0.46297 0.99031 0.0
C1330 C 0.34296 0.45674 0.92878 0.0
C1331 C 0.3494 0.46872 0.01147 0.0
C1332 C 0.39371 0.38742 0.86853 0.0
C1333 C 0.38261 0.39599 0.88753 0.0
C1334 C 0.37635 0.42355 0.92966 0.0
C1335 C 0.34427 0.46058 0.97128 0.0
C1336 C 0.35278 0.45078 0.94961 0.0
C1337 C 0.37375 0.41809 0.88747 0.0
C1338 C 0.36608 0.42903 0.90892 0.0
H1339 H 0.29439 0.47499 0.99568 0.0
H1340 H 0.30965 0.46419 0.95965 0.0
H1341 H 0.37742 0.42862 0.9653 0.0
H1342 H 0.38626 0.43197 0.83301 0.0
H1343 H 0.36775 0.44743 0.86617 0.0
C1344 C 0.6218 0.58769 0.88865 0.0
C1345 C 0.6431 0.59483 0.8962 0.0
C1346 C 0.60222 0.59854 0.89592 0.0
C1347 C 0.58209 0.6299 0.94539 0.0
H1348 H 0.52657 0.63322 0.91086 0.0
C1349 C 0.47888 0.64166 0.95746 0.0
C1350 C 0.47859 0.66163 0.97024 0.0
C1351 C 0.49944 0.63265 0.94995 0.0
C1352 C 0.54187 0.63207 0.92082 0.0
H1353 H 0.66088 0.61999 0.91582 0.0
H1354 H 0.62647 0.63946 0.92835 0.0
H1355 H 0.56175 0.62338 0.89193 0.0
H1356 H 0.49945 0.68662 0.98693 0.0
H1357 H 0.5352 0.67065 0.97437 0.0
H1358 H 0.56211 0.6388 0.97426 0.0
C1359 C 0.62493 0.62517 0.91705 0.0
C1360 C 0.56209 0.62659 0.90993 0.0
C1361 C 0.64464 0.6143 0.90961 0.0
C1362 C 0.49921 0.67113 0.97718 0.0
C1363 C 0.51971 0.66201 0.96991 0.0
C1364 C 0.56186 0.63553 0.95626 0.0
C1365 C 0.60345 0.61678 0.91104 0.0
C1366 C 0.58244 0.6252 0.92209 0.0
C1367 C 0.52003 0.64331 0.95534 0.0
C1368 C 0.54147 0.63646 0.94414 0.0
H1369 H 0.62018 0.57261 0.8784 0.0
H1370 H 0.5861 0.59147 0.89099 0.0
H1371 H 0.59732 0.62856 0.9554 0.0
H1372 H 0.46325 0.63415 0.95164 0.0
H1373 H 0.49919 0.61797 0.93904 0.0
C1374 C 0.98762 0.85012 0.03112 0.0
C1375 C 0.98555 0.82665 0.02835 0.0
C1376 C 0.00857 0.85968 0.03678 0.0
C1377 C 0.07023 0.8451 0.04476 0.0
H1378 H 0.06734 0.89419 0.08778 0.0
C1379 C 0.12857 0.89851 0.11372 0.0
C1380 C 0.14893 0.89889 0.10169 0.0
C1381 C 0.10969 0.88748 0.10485 0.0
C1382 C 0.06854 0.88012 0.07619 0.0
H1383 H 0.00434 0.79515 0.02738 0.0
H1384 H 0.0399 0.81134 0.03811 0.0
H1385 H 0.03303 0.88094 0.07018 0.0
H1386 H 0.16601 0.88761 0.07149 0.0
H1387 H 0.13305 0.8693 0.05537 0.0
H1388 H 0.10543 0.84309 0.05207 0.0
C1389 C 0.02583 0.8227 0.03564 0.0
C1390 C 0.04876 0.87288 0.06553 0.0
C1391 C 0.00514 0.81329 0.02965 0.0
C1392 C 0.15057 0.88702 0.08131 0.0
C1393 C 0.13152 0.87658 0.07205 0.0
C1394 C 0.0899 0.85191 0.05589 0.0
C1395 C 0.02779 0.84594 0.04003 0.0
C1396 C 0.04924 0.85514 0.04974 0.0
C1397 C 0.11052 0.87742 0.08327 0.0
C1398 C 0.08939 0.86949 0.07187 0.0
H1399 H 0.97291 0.86093 0.03013 0.0
H1400 H 0.00947 0.87776 0.03933 0.0
H1401 H 0.07157 0.83173 0.03237 0.0
H1402 H 0.12693 0.90782 0.12939 0.0
H1403 H 0.09418 0.8878 0.11451 0.0
C1404 C 0.37712 0.0906 0.60885 0.0
C1405 C 0.35568 0.09705 0.60108 0.0
C1406 C 0.3965 0.10118 0.60073 0.0
C1407 C 0.42001 0.14943 0.56987 0.0
H1408 H 0.46292 0.10489 0.54813 0.0
C1409 C 0.50037 0.17721 0.52325 0.0
C1410 C 0.52052 0.16652 0.52977 0.0
C1411 C 0.47944 0.16813 0.52924 0.0
C1412 C 0.45128 0.11758 0.55427 0.0
H1413 H 0.33746 0.12081 0.58015 0.0
H1414 H 0.37163 0.13981 0.56608 0.0
H1415 H 0.42819 0.09259 0.56639 0.0
H1416 H 0.53458 0.13724 0.54649 0.0
H1417 H 0.49809 0.12145 0.5573 0.0
H1418 H 0.44334 0.17448 0.55836 0.0
C1419 C 0.37335 0.12643 0.57842 0.0
C1420 C 0.43135 0.11053 0.56474 0.0
C1421 C 0.35381 0.11572 0.58659 0.0
C1422 C 0.51932 0.14568 0.54097 0.0
C1423 C 0.49833 0.13671 0.54725 0.0
C1424 C 0.4401 0.15653 0.55958 0.0
C1425 C 0.39488 0.11844 0.58459 0.0
C1426 C 0.41562 0.12636 0.57289 0.0
C1427 C 0.47815 0.14829 0.5422 0.0
C1428 C 0.4561 0.14068 0.5518 0.0
H1429 H 0.37899 0.07624 0.62004 0.0
H1430 H 0.41284 0.09505 0.60619 0.0
H1431 H 0.40822 0.16198 0.57604 0.0
H1432 H 0.50081 0.19328 0.5145 0.0
H1433 H 0.46429 0.17717 0.52444 0.0
C1434 C 0.85149 0.38261 0.40693 0.0
C1435 C 0.85371 0.40352 0.39602 0.0
C1436 C 0.87084 0.37073 0.41378 0.0
C1437 C 0.93384 0.36956 0.40856 0.0
H1438 H 0.93192 0.35085 0.47127 0.0
C1439 C 0.99597 0.32071 0.47362 0.0
C1440 C 0.01635 0.3319 0.46874 0.0
C1441 C 0.97537 0.32945 0.4662 0.0
C1442 C 0.93268 0.35591 0.45372 0.0
H1443 H 0.87747 0.42739 0.38178 0.0
H1444 H 0.91087 0.40687 0.39337 0.0
H1445 H 0.89718 0.36266 0.45244 0.0
H1446 H 0.03098 0.36186 0.45368 0.0
H1447 H 0.99488 0.37728 0.44079 0.0
H1448 H 0.9694 0.36331 0.40999 0.0
C1449 C 0.89452 0.39944 0.39684 0.0
C1450 C 0.91274 0.36245 0.44283 0.0
C1451 C 0.87534 0.41128 0.3902 0.0
C1452 C 0.01556 0.35294 0.45785 0.0
C1453 C 0.99492 0.36158 0.45018 0.0
C1454 C 0.95375 0.36321 0.41947 0.0
C1455 C 0.89257 0.37952 0.40957 0.0
C1456 C 0.91312 0.36965 0.42019 0.0
C1457 C 0.97473 0.34948 0.45353 0.0
C1458 C 0.95346 0.35658 0.44225 0.0
H1459 H 0.83498 0.37635 0.4117 0.0
H1460 H 0.86878 0.35521 0.42323 0.0
H1461 H 0.93473 0.37466 0.39102 0.0
H1462 H 0.99607 0.30444 0.48199 0.0
H1463 H 0.96014 0.31973 0.46907 0.0
C1464 C 0.24131 0.38037 0.22197 0.0
C1465 C 0.23307 0.38327 0.19994 0.0
C1466 C 0.22714 0.3723 0.23907 0.0
C1467 C 0.19121 0.36625 0.27488 0.0
H1468 H 0.14801 0.31899 0.26102 0.0
C1469 C 0.1377 0.32978 0.34558 0.0
C1470 C 0.13722 0.3061 0.34647 0.0
C1471 C 0.14387 0.34084 0.32573 0.0
C1472 C 0.15998 0.33217 0.26519 0.0
H1473 H 0.20327 0.38053 0.17874 0.0
H1474 H 0.17856 0.36706 0.20857 0.0
H1475 H 0.17153 0.33454 0.23105 0.0
H1476 H 0.14094 0.27542 0.32697 0.0
H1477 H 0.15246 0.29461 0.29243 0.0
H1478 H 0.18073 0.36307 0.30916 0.0
C1479 C 0.19608 0.37042 0.21258 0.0
C1480 C 0.17334 0.34127 0.24795 0.0
C1481 C 0.21027 0.37828 0.19548 0.0
C1482 C 0.14099 0.29372 0.32664 0.0
C1483 C 0.14765 0.30478 0.30684 0.0
C1484 C 0.17803 0.35705 0.29211 0.0
C1485 C 0.20434 0.36718 0.23457 0.0
C1486 C 0.18933 0.35823 0.25265 0.0
C1487 C 0.15029 0.32843 0.30652 0.0
C1488 C 0.16239 0.33971 0.28757 0.0
H1489 H 0.2588 0.38394 0.22594 0.0
H1490 H 0.23419 0.36968 0.25573 0.0
H1491 H 0.20306 0.37954 0.27908 0.0
H1492 H 0.13478 0.3397 0.36066 0.0
H1493 H 0.14496 0.3591 0.32589 0.0
C1494 C 0.35283 0.66932 0.8483 0.0
C1495 C 0.36063 0.69174 0.84837 0.0
C1496 C 0.34874 0.65811 0.82804 0.0
C1497 C 0.33325 0.67257 0.76969 0.0
H1498 H 0.3292 0.60742 0.76413 0.0
C1499 C 0.29205 0.62859 0.69307 0.0
C1500 C 0.27469 0.61337 0.69875 0.0
C1501 C 0.30674 0.63678 0.70957 0.0
C1502 C 0.3303 0.62563 0.76547 0.0
H1503 H 0.37275 0.71908 0.82729 0.0
H1504 H 0.36628 0.69918 0.7917 0.0
H1505 H 0.35062 0.62395 0.79524 0.0
H1506 H 0.2596 0.59433 0.72615 0.0
H1507 H 0.28562 0.60847 0.75502 0.0
H1508 H 0.31294 0.67411 0.73983 0.0
C1509 C 0.36252 0.69056 0.80737 0.0
C1510 C 0.34252 0.63515 0.78329 0.0
C1511 C 0.36648 0.7019 0.82776 0.0
C1512 C 0.27272 0.6061 0.72125 0.0
C1513 C 0.28769 0.61405 0.73772 0.0
C1514 C 0.3214 0.66304 0.75167 0.0
C1515 C 0.35258 0.66892 0.80726 0.0
C1516 C 0.34353 0.65876 0.78607 0.0
C1517 C 0.30465 0.62967 0.73205 0.0
C1518 C 0.31928 0.63951 0.74976 0.0
H1519 H 0.34855 0.66083 0.86393 0.0
H1520 H 0.34103 0.64155 0.82884 0.0
H1521 H 0.33324 0.69077 0.77136 0.0
H1522 H 0.29405 0.63458 0.67591 0.0
H1523 H 0.31972 0.64876 0.70477 0.0
C1524 C 0.63408 0.1974 0.67209 0.0
C1525 C 0.64088 0.18787 0.65147 0.0
C1526 C 0.63775 0.18578 0.69237 0.0
C1527 C 0.65824 0.13051 0.71613 0.0
H1528 H 0.68565 0.16935 0.76114 0.0
C1529 C 0.72646 0.10138 0.77955 0.0
C1530 C 0.72438 0.10872 0.80203 0.0
C1531 C 0.71163 0.10928 0.76296 0.0
C1532 C 0.67776 0.15829 0.74889 0.0
H1533 H 0.65443 0.15768 0.6357 0.0
H1534 H 0.66138 0.1379 0.67067 0.0
H1535 H 0.66607 0.18609 0.72922 0.0
H1536 H 0.70486 0.12995 0.82471 0.0
H1537 H 0.67935 0.14402 0.79562 0.0
H1538 H 0.67134 0.10274 0.73533 0.0
C1539 C 0.65317 0.15421 0.67152 0.0
C1540 C 0.66635 0.16787 0.73062 0.0
C1541 C 0.64939 0.16571 0.65135 0.0
C1542 C 0.70696 0.12392 0.80757 0.0
C1543 C 0.69237 0.13205 0.79093 0.0
C1544 C 0.66997 0.12095 0.73424 0.0
C1545 C 0.64832 0.16446 0.69237 0.0
C1546 C 0.6569 0.15414 0.71368 0.0
C1547 C 0.69463 0.12492 0.76845 0.0
C1548 C 0.68023 0.13477 0.75053 0.0
H1549 H 0.62725 0.21435 0.67273 0.0
H1550 H 0.63324 0.19396 0.70809 0.0
H1551 H 0.65077 0.11937 0.70371 0.0
H1552 H 0.73962 0.08962 0.77474 0.0
H1553 H 0.71388 0.10369 0.74569 0.0
C1554 C 0.86587 0.80044 0.1704 0.0
C1555 C 0.85994 0.8107 0.14986 0.0
C1556 C 0.86197 0.81162 0.1909 0.0
C1557 C 0.84302 0.867 0.21562 0.0
H1558 H 0.81335 0.8283 0.25931 0.0
C1559 C 0.77494 0.89765 0.27843 0.0
C1560 C 0.77605 0.88965 0.30075 0.0
C1561 C 0.78983 0.88948 0.26201 0.0
C1562 C 0.82188 0.83931 0.24745 0.0
H1563 H 0.84755 0.84163 0.1346 0.0
H1564 H 0.84025 0.86069 0.16993 0.0
H1565 H 0.83282 0.8115 0.22729 0.0
H1566 H 0.79393 0.86699 0.32334 0.0
H1567 H 0.81956 0.85246 0.29452 0.0
H1568 H 0.83074 0.89484 0.23528 0.0
C1569 C 0.84797 0.84414 0.17053 0.0
C1570 C 0.83321 0.82969 0.22911 0.0
C1571 C 0.85196 0.83306 0.15015 0.0
C1572 C 0.7926 0.87354 0.30632 0.0
C1573 C 0.80725 0.86514 0.28983 0.0
C1574 C 0.83139 0.87662 0.23379 0.0
C1575 C 0.85205 0.83325 0.19122 0.0
C1576 C 0.84346 0.84341 0.21262 0.0
C1577 C 0.80592 0.87292 0.26748 0.0
C1578 C 0.82031 0.86287 0.24961 0.0
H1579 H 0.87223 0.7833 0.17075 0.0
H1580 H 0.86584 0.80292 0.2065 0.0
H1581 H 0.85111 0.87812 0.20357 0.0
H1582 H 0.76248 0.91012 0.27359 0.0
H1583 H 0.78829 0.89561 0.24484 0.0
C1584 C 0.32541 0.138 0.29499 0.0
C1585 C 0.34553 0.13391 0.30677 0.0
C1586 C 0.30581 0.14403 0.30676 0.0
C1587 C 0.29216 0.17228 0.3605 0.0
H1588 H 0.23069 0.16683 0.33888 0.0
C1589 C 0.19606 0.2053 0.3835 0.0
C1590 C 0.20091 0.228 0.38858 0.0
C1591 C 0.21292 0.19088 0.3755 0.0
C1592 C 0.24771 0.16831 0.34538 0.0
H1593 H 0.36051 0.13028 0.33989 0.0
H1594 H 0.32608 0.13932 0.36048 0.0
H1595 H 0.26026 0.14375 0.32199 0.0
H1596 H 0.22741 0.25326 0.38943 0.0
H1597 H 0.25673 0.22827 0.375 0.0
H1598 H 0.27966 0.1966 0.38404 0.0
C1599 C 0.32552 0.13895 0.34221 0.0
C1600 C 0.26473 0.15522 0.33551 0.0
C1601 C 0.34517 0.13343 0.33045 0.0
C1602 C 0.22312 0.23585 0.3858 0.0
C1603 C 0.23996 0.22145 0.37763 0.0
C1604 C 0.27516 0.1852 0.37046 0.0
C1605 C 0.30599 0.14572 0.3305 0.0
C1606 C 0.28726 0.15731 0.34268 0.0
C1607 C 0.23504 0.19881 0.37223 0.0
C1608 C 0.25279 0.18374 0.36275 0.0
H1609 H 0.32537 0.13873 0.27671 0.0
H1610 H 0.29116 0.14915 0.29712 0.0
H1611 H 0.30933 0.17474 0.36629 0.0
H1612 H 0.17917 0.1986 0.38563 0.0
H1613 H 0.20859 0.17347 0.37192 0.0
C1614 C 0.15545 0.87122 0.83519 0.0
C1615 C 0.15482 0.87023 0.81153 0.0
C1616 C 0.17553 0.86699 0.84677 0.0
C1617 C 0.23684 0.85208 0.83884 0.0
H1618 H 0.22401 0.81211 0.88906 0.0
C1619 C 0.27838 0.77058 0.88725 0.0
C1620 C 0.30112 0.77722 0.88853 0.0
C1621 C 0.26186 0.78577 0.88005 0.0
C1622 C 0.22794 0.82311 0.875 0.0
H1623 H 0.17487 0.86584 0.78131 0.0
H1624 H 0.20969 0.85737 0.80136 0.0
H1625 H 0.1937 0.8336 0.87228 0.0
H1626 H 0.32423 0.80526 0.88366 0.0
H1627 H 0.29528 0.83191 0.8716 0.0
H1628 H 0.27089 0.8401 0.84065 0.0
C1629 C 0.19499 0.86203 0.81116 0.0
C1630 C 0.21055 0.83589 0.86558 0.0
C1631 C 0.17499 0.86689 0.79957 0.0
C1632 C 0.30688 0.79953 0.88272 0.0
C1633 C 0.29029 0.81481 0.8757 0.0
C1634 C 0.25423 0.83902 0.84811 0.0
C1635 C 0.19523 0.86087 0.83494 0.0
C1636 C 0.2146 0.85019 0.84702 0.0
C1637 C 0.26756 0.80809 0.87418 0.0
C1638 C 0.24984 0.82392 0.86593 0.0
H1639 H 0.1401 0.87387 0.84478 0.0
H1640 H 0.1752 0.86712 0.86505 0.0
H1641 H 0.24075 0.86316 0.82484 0.0
H1642 H 0.27335 0.7535 0.89143 0.0
H1643 H 0.24464 0.77978 0.87863 0.0
C1644 C 0.69508 0.29502 0.62336 0.0
C1645 C 0.70144 0.27344 0.61568 0.0
C1646 C 0.71113 0.30991 0.63215 0.0
C1647 C 0.77285 0.32037 0.6349 0.0
H1648 H 0.75744 0.35509 0.68826 0.0
C1649 C 0.82358 0.36249 0.71264 0.0
C1650 C 0.84271 0.36928 0.70044 0.0
C1651 C 0.80372 0.35663 0.70123 0.0
C1652 C 0.76202 0.34555 0.67335 0.0
H1653 H 0.72976 0.2507 0.61111 0.0
H1654 H 0.7577 0.27647 0.62688 0.0
H1655 H 0.72888 0.33146 0.67037 0.0
H1656 H 0.85547 0.37797 0.66736 0.0
H1657 H 0.82052 0.36921 0.64756 0.0
H1658 H 0.80624 0.33326 0.63853 0.0
C1659 C 0.74034 0.28207 0.6257 0.0
C1660 C 0.74557 0.33214 0.66294 0.0
C1661 C 0.7243 0.26722 0.61676 0.0
C1662 C 0.8409 0.37275 0.67708 0.0
C1663 C 0.82097 0.36736 0.66574 0.0
C1664 C 0.78929 0.33362 0.64536 0.0
C1665 C 0.73393 0.30357 0.63362 0.0
C1666 C 0.75091 0.31908 0.6438 0.0
C1667 C 0.80266 0.35781 0.67748 0.0
C1668 C 0.78421 0.34615 0.66493 0.0
H1669 H 0.67765 0.30049 0.62261 0.0
H1670 H 0.70564 0.32644 0.63772 0.0
H1671 H 0.77747 0.31087 0.61998 0.0
H1672 H 0.8247 0.35939 0.73063 0.0
H1673 H 0.79002 0.34933 0.71088 0.0
C1674 C 0.66987 0.63846 0.20092 0.0
C1675 C 0.64858 0.63945 0.19052 0.0
C1676 C 0.68931 0.6444 0.18876 0.0
C1677 C 0.70291 0.68427 0.14491 0.0
H1678 H 0.76303 0.65854 0.14499 0.0
C1679 C 0.7759 0.72983 0.09995 0.0
C1680 C 0.79724 0.72915 0.11022 0.0
C1681 C 0.75847 0.71585 0.10762 0.0
C1682 C 0.7464 0.6661 0.14501 0.0
H1683 H 0.63114 0.64458 0.15873 0.0
H1684 H 0.66494 0.65478 0.13763 0.0
H1685 H 0.73182 0.63773 0.16239 0.0
H1686 H 0.81708 0.71324 0.13656 0.0
H1687 H 0.78653 0.68972 0.1506 0.0
H1688 H 0.71722 0.71308 0.1288 0.0
C1689 C 0.66663 0.64994 0.1552 0.0
C1690 C 0.72854 0.65407 0.15485 0.0
C1691 C 0.64732 0.64405 0.16727 0.0
C1692 C 0.80084 0.71408 0.12819 0.0
C1693 C 0.78331 0.70042 0.13614 0.0
C1694 C 0.72072 0.69642 0.13546 0.0
C1695 C 0.68761 0.65133 0.1661 0.0
C1696 C 0.70663 0.66307 0.15484 0.0
C1697 C 0.76182 0.70119 0.12606 0.0
C1698 C 0.74275 0.68758 0.13538 0.0
H1699 H 0.67129 0.63501 0.21883 0.0
H1700 H 0.70532 0.64531 0.19754 0.0
H1701 H 0.68626 0.69184 0.1451 0.0
H1702 H 0.77269 0.74105 0.08587 0.0
H1703 H 0.74235 0.7166 0.09904 0.0
C1704 C 0.36831 0.19423 0.21209 0.0
C1705 C 0.3859 0.19844 0.22744 0.0
C1706 C 0.36061 0.21126 0.19769 0.0
C1707 C 0.36197 0.27379 0.1911 0.0
H1708 H 0.33584 0.26042 0.13251 0.0
C1709 C 0.33417 0.34521 0.13466 0.0
C1710 C 0.31062 0.34529 0.13171 0.0
C1711 C 0.34534 0.32543 0.14075 0.0
C1712 C 0.34318 0.2643 0.1488 0.0
H1713 H 0.40985 0.22346 0.23914 0.0
H1714 H 0.3973 0.25286 0.21333 0.0
H1715 H 0.35222 0.22989 0.15508 0.0
H1716 H 0.28072 0.32427 0.13006 0.0
H1717 H 0.30045 0.28941 0.14056 0.0
H1718 H 0.35333 0.3082 0.1846 0.0
C1719 C 0.3887 0.23673 0.21295 0.0
C1720 C 0.35241 0.24686 0.16186 0.0
C1721 C 0.39604 0.21984 0.22772 0.0
C1722 C 0.29888 0.32467 0.13217 0.0
C1723 C 0.31015 0.30475 0.13826 0.0
C1724 C 0.35322 0.29117 0.1779 0.0
C1725 C 0.37064 0.23281 0.19794 0.0
C1726 C 0.36177 0.25134 0.18332 0.0
C1727 C 0.33321 0.30534 0.14388 0.0
C1728 C 0.34363 0.28661 0.15671 0.0
H1729 H 0.36008 0.1779 0.21159 0.0
H1730 H 0.34643 0.2076 0.18677 0.0
H1731 H 0.36836 0.27799 0.2077 0.0
H1732 H 0.34368 0.36083 0.13421 0.0
H1733 H 0.3632 0.32621 0.14469 0.0
C1734 C 0.8305 0.14969 0.86131 0.0
C1735 C 0.80683 0.14954 0.86239 0.0
C1736 C 0.84212 0.16961 0.85641 0.0
C1737 C 0.83495 0.23162 0.84535 0.0
H1738 H 0.88169 0.21995 0.801 0.0
C1739 C 0.88111 0.27816 0.76508 0.0
C1740 C 0.88463 0.29991 0.77388 0.0
C1741 C 0.87347 0.26069 0.77894 0.0
C1742 C 0.8686 0.22356 0.81326 0.0
H1743 H 0.77677 0.17023 0.86086 0.0
H1744 H 0.79686 0.20489 0.8514 0.0
H1745 H 0.86494 0.18871 0.82131 0.0
H1746 H 0.88314 0.32023 0.80436 0.0
H1747 H 0.87024 0.28958 0.82865 0.0
H1748 H 0.83775 0.26646 0.83608 0.0
C1749 C 0.80664 0.18985 0.85485 0.0
C1750 C 0.85923 0.20561 0.82529 0.0
C1751 C 0.79506 0.16997 0.86028 0.0
C1752 C 0.88051 0.3037 0.79697 0.0
C1753 C 0.873 0.28615 0.8109 0.0
C1754 C 0.84422 0.24962 0.83312 0.0
C1755 C 0.83025 0.18968 0.85184 0.0
C1756 C 0.842 0.2093 0.84126 0.0
C1757 C 0.86934 0.26442 0.80205 0.0
C1758 C 0.86084 0.24573 0.81657 0.0
H1759 H 0.83997 0.13414 0.86307 0.0
H1760 H 0.86034 0.16895 0.85502 0.0
H1761 H 0.82193 0.23518 0.85769 0.0
H1762 H 0.88393 0.27465 0.74735 0.0
H1763 H 0.8704 0.24433 0.77139 0.0
C1764 C 0.62591 0.69315 0.29234 0.0
C1765 C 0.60991 0.69852 0.27561 0.0
C1766 C 0.6345 0.7099 0.30659 0.0
C1767 C 0.62355 0.76668 0.32924 0.0
H1768 H 0.68874 0.77225 0.33147 0.0
C1769 C 0.66803 0.85006 0.34918 0.0
C1770 C 0.69009 0.85015 0.35793 0.0
C1771 C 0.65681 0.82978 0.34504 0.0
C1772 C 0.67053 0.7707 0.33161 0.0
H1773 H 0.5899 0.72562 0.26126 0.0
H1774 H 0.60473 0.7548 0.28637 0.0
H1775 H 0.67172 0.74005 0.31245 0.0
H1776 H 0.71685 0.82906 0.37123 0.0
H1777 H 0.69699 0.79346 0.3645 0.0
H1778 H 0.62225 0.79736 0.34825 0.0
C1779 C 0.61062 0.7376 0.28838 0.0
C1780 C 0.66078 0.75226 0.32055 0.0
C1781 C 0.60225 0.72092 0.2739 0.0
C1782 C 0.69993 0.82954 0.3643 0.0
C1783 C 0.68863 0.80914 0.36021 0.0
C1784 C 0.63329 0.78497 0.34057 0.0
C1785 C 0.62704 0.73231 0.30467 0.0
C1786 C 0.63721 0.7504 0.31872 0.0
C1787 C 0.66727 0.80899 0.34971 0.0
C1788 C 0.65692 0.78761 0.34131 0.0
H1789 H 0.63221 0.67608 0.29413 0.0
H1790 H 0.64706 0.70534 0.31907 0.0
H1791 H 0.60532 0.76545 0.32838 0.0
H1792 H 0.65979 0.86567 0.34439 0.0
H1793 H 0.6405 0.8305 0.33683 0.0
C1794 C 0.1232 0.80679 0.71107 0.0
C1795 C 0.11784 0.80224 0.73378 0.0
C1796 C 0.13129 0.78973 0.69693 0.0
C1797 C 0.13509 0.72734 0.69203 0.0
H1798 H 0.18273 0.74072 0.64912 0.0
C1799 C 0.20733 0.67492 0.64171 0.0
C1800 C 0.19479 0.65519 0.63786 0.0
C1801 C 0.19645 0.69476 0.64855 0.0
C1802 C 0.16945 0.73667 0.66102 0.0
H1803 H 0.11694 0.7761 0.75939 0.0
H1804 H 0.13155 0.74646 0.73491 0.0
H1805 H 0.16728 0.77088 0.67247 0.0
H1806 H 0.16109 0.64122 0.63554 0.0
H1807 H 0.14199 0.67609 0.64609 0.0
H1808 H 0.13803 0.69302 0.68166 0.0
C1809 C 0.12901 0.76314 0.72786 0.0
C1810 C 0.1604 0.75404 0.67428 0.0
C1811 C 0.12075 0.78017 0.74197 0.0
C1812 C 0.17113 0.65622 0.63855 0.0
C1813 C 0.16024 0.67613 0.64492 0.0
C1814 C 0.14423 0.71 0.67895 0.0
C1815 C 0.13438 0.76768 0.70514 0.0
C1816 C 0.1433 0.74952 0.69017 0.0
C1817 C 0.17282 0.69525 0.65132 0.0
C1818 C 0.1617 0.71435 0.66341 0.0
H1819 H 0.12103 0.82357 0.70412 0.0
H1820 H 0.1349 0.7938 0.67947 0.0
H1821 H 0.12168 0.72327 0.70378 0.0
H1822 H 0.22562 0.67446 0.64153 0.0
H1823 H 0.20676 0.70907 0.65336 0.0
C1824 C 0.79493 0.61748 0.80674 0.0
C1825 C 0.77274 0.61082 0.80142 0.0
C1826 C 0.80941 0.62573 0.78998 0.0
C1827 C 0.81637 0.62855 0.72755 0.0
H1828 H 0.85578 0.67902 0.74125 0.0
C1829 C 0.86253 0.70396 0.67549 0.0
C1830 C 0.86698 0.69177 0.65567 0.0
C1831 C 0.85634 0.69261 0.69531 0.0
C1832 C 0.84486 0.66495 0.73709 0.0
H1833 H 0.74843 0.60771 0.77422 0.0
H1834 H 0.77338 0.62259 0.7452 0.0
H1835 H 0.83285 0.66237 0.77109 0.0
H1836 H 0.87092 0.65832 0.64152 0.0
H1837 H 0.86182 0.63848 0.67634 0.0
H1838 H 0.82712 0.6319 0.69339 0.0
C1839 C 0.77986 0.62094 0.76221 0.0
C1840 C 0.83187 0.65521 0.7543 0.0
C1841 C 0.76545 0.6125 0.77891 0.0
C1842 C 0.86756 0.6681 0.65661 0.0
C1843 C 0.86194 0.65676 0.6765 0.0
C1844 C 0.82914 0.6384 0.71035 0.0
C1845 C 0.80204 0.6277 0.7675 0.0
C1846 C 0.81716 0.6371 0.74966 0.0
C1847 C 0.85488 0.66885 0.69571 0.0
C1848 C 0.84337 0.65695 0.71477 0.0
H1849 H 0.80118 0.61629 0.82388 0.0
H1850 H 0.82645 0.63044 0.79466 0.0
H1851 H 0.80561 0.61437 0.72337 0.0
H1852 H 0.86167 0.72223 0.67512 0.0
H1853 H 0.85099 0.70258 0.70966 0.0
C1854 C 0.6476 0.33282 0.14878 0.0
C1855 C 0.63983 0.31039 0.14885 0.0
C1856 C 0.65187 0.34412 0.16897 0.0
C1857 C 0.6677 0.3301 0.22742 0.0
H1858 H 0.67058 0.3953 0.23304 0.0
C1859 C 0.70757 0.37434 0.30459 0.0
C1860 C 0.72431 0.39037 0.29927 0.0
C1861 C 0.69326 0.36589 0.28787 0.0
C1862 C 0.66984 0.37707 0.23168 0.0
H1863 H 0.62803 0.2831 0.17017 0.0
H1864 H 0.63481 0.30314 0.20563 0.0
H1865 H 0.64977 0.37842 0.2017 0.0
H1866 H 0.73862 0.41058 0.27228 0.0
H1867 H 0.71331 0.39594 0.24306 0.0
H1868 H 0.68778 0.32887 0.25744 0.0
C1869 C 0.63839 0.31171 0.18988 0.0
C1870 C 0.65796 0.36736 0.21372 0.0
C1871 C 0.63424 0.30029 0.16957 0.0
C1872 C 0.72598 0.39819 0.27692 0.0
C1873 C 0.71141 0.38994 0.26024 0.0
C1874 C 0.67925 0.33982 0.24554 0.0
C1875 C 0.64825 0.33339 0.18983 0.0
C1876 C 0.65729 0.34373 0.21096 0.0
C1877 C 0.69511 0.37349 0.26551 0.0
C1878 C 0.68092 0.36339 0.24753 0.0
H1879 H 0.65172 0.34126 0.13308 0.0
H1880 H 0.65951 0.36071 0.16806 0.0
H1881 H 0.66797 0.3119 0.22575 0.0
H1882 H 0.70578 0.36792 0.32162 0.0
H1883 H 0.68077 0.35331 0.29241 0.0
C1884 C 0.27737 0.89038 0.21809 0.0
C1885 C 0.2778 0.88256 0.19569 0.0
C1886 C 0.29284 0.88215 0.23391 0.0
C1887 C 0.32501 0.83239 0.24796 0.0
H1888 H 0.35871 0.872 0.2877 0.0
C1889 C 0.37093 0.7951 0.32422 0.0
C1890 C 0.36643 0.80673 0.34438 0.0
C1891 C 0.36705 0.80556 0.30334 0.0
C1892 C 0.34937 0.86066 0.27683 0.0
H1893 H 0.29474 0.85991 0.17237 0.0
H1894 H 0.32127 0.84508 0.20025 0.0
H1895 H 0.33651 0.88804 0.2569 0.0
H1896 H 0.35709 0.83919 0.35856 0.0
H1897 H 0.34978 0.85704 0.32267 0.0
H1898 H 0.33634 0.80512 0.26857 0.0
C1899 C 0.30917 0.8578 0.2054 0.0
C1900 C 0.33672 0.86989 0.25917 0.0
C1901 C 0.29401 0.86633 0.18948 0.0
C1902 C 0.36031 0.82962 0.3433 0.0
C1903 C 0.35632 0.83998 0.32256 0.0
C1904 C 0.33729 0.82317 0.26586 0.0
C1905 C 0.30874 0.86564 0.22774 0.0
C1906 C 0.32404 0.85586 0.2449 0.0
C1907 C 0.35856 0.82777 0.30231 0.0
C1908 C 0.34916 0.83722 0.28094 0.0
H1909 H 0.26516 0.90294 0.22336 0.0
H1910 H 0.29204 0.88828 0.25113 0.0
H1911 H 0.31528 0.82122 0.23722 0.0
H1912 H 0.37584 0.77749 0.32451 0.0
H1913 H 0.3696 0.79583 0.28808 0.0
C1914 C 0.13758 0.16656 0.84648 0.0
C1915 C 0.13661 0.19022 0.84727 0.0
C1916 C 0.14294 0.1555 0.82637 0.0
C1917 C 0.15632 0.16448 0.76503 0.0
H1918 H 0.20044 0.11767 0.77713 0.0
C1919 C 0.23813 0.11899 0.72012 0.0
C1920 C 0.22994 0.11605 0.69806 0.0
C1921 C 0.22383 0.12651 0.73731 0.0
C1922 C 0.18829 0.13081 0.77341 0.0
H1923 H 0.13864 0.22083 0.82742 0.0
H1924 H 0.1489 0.20172 0.79249 0.0
H1925 H 0.17882 0.13342 0.808 0.0
H1926 H 0.20014 0.11849 0.67685 0.0
H1927 H 0.17512 0.13109 0.70695 0.0
H1928 H 0.167 0.16274 0.73054 0.0
C1929 C 0.14502 0.19151 0.80715 0.0
C1930 C 0.17548 0.13959 0.79112 0.0
C1931 C 0.13912 0.20254 0.8272 0.0
C1932 C 0.20707 0.1207 0.69363 0.0
C1933 C 0.19271 0.12804 0.71088 0.0
C1934 C 0.16934 0.15582 0.7473 0.0
C1935 C 0.14811 0.16792 0.80678 0.0
C1936 C 0.15953 0.15679 0.78728 0.0
C1937 C 0.20091 0.13107 0.73295 0.0
C1938 C 0.1858 0.13916 0.75136 0.0
H1939 H 0.13559 0.15666 0.86173 0.0
H1940 H 0.14435 0.13727 0.82657 0.0
H1941 H 0.14404 0.17751 0.76135 0.0
H1942 H 0.25568 0.11574 0.72409 0.0
H1943 H 0.23089 0.12909 0.75397 0.0
C1944 C 0.77991 0.76254 0.61855 0.0
C1945 C 0.80227 0.77016 0.61635 0.0
C1946 C 0.76311 0.77693 0.62676 0.0
C1947 C 0.72828 0.81354 0.6331 0.0
H1948 H 0.74144 0.8535 0.68329 0.0
C1949 C 0.65704 0.86489 0.67126 0.0
C1950 C 0.65557 0.86374 0.69488 0.0
C1951 C 0.67718 0.85954 0.66028 0.0
C1952 C 0.73747 0.84245 0.66927 0.0
H1953 H 0.82438 0.7991 0.62071 0.0
H1954 H 0.79499 0.82426 0.63458 0.0
H1955 H 0.77152 0.8305 0.66709 0.0
H1956 H 0.6743 0.85792 0.72569 0.0
H1957 H 0.70933 0.84776 0.70659 0.0
H1958 H 0.69409 0.82431 0.636 0.0
C1959 C 0.79052 0.80703 0.63039 0.0
C1960 C 0.75478 0.82941 0.65982 0.0
C1961 C 0.80735 0.7926 0.62231 0.0
C1962 C 0.6751 0.85914 0.70745 0.0
C1963 C 0.69518 0.85327 0.69644 0.0
C1964 C 0.711 0.82641 0.64262 0.0
C1965 C 0.76819 0.79936 0.6328 0.0
C1966 C 0.75028 0.81449 0.64187 0.0
C1967 C 0.69609 0.85227 0.67268 0.0
C1968 C 0.71526 0.84082 0.66104 0.0
H1969 H 0.77541 0.74533 0.61427 0.0
H1970 H 0.74618 0.7703 0.62877 0.0
H1971 H 0.72427 0.80256 0.61904 0.0
H1972 H 0.64219 0.86848 0.66121 0.0
H1973 H 0.67747 0.85972 0.642 0.0
C1974 C 0.69487 0.20359 0.11697 0.0
C1975 C 0.70039 0.22588 0.11087 0.0
C1976 C 0.71145 0.18887 0.12508 0.0
C1977 C 0.74658 0.16587 0.15466 0.0
H1978 H 0.80796 0.17145 0.13279 0.0
C1979 C 0.82433 0.13654 0.20534 0.0
C1980 C 0.84465 0.13283 0.19375 0.0
C1981 C 0.80471 0.14212 0.19338 0.0
C1982 C 0.79087 0.16915 0.13886 0.0
H1983 H 0.7277 0.25016 0.10857 0.0
H1984 H 0.75642 0.22484 0.12329 0.0
H1985 H 0.77823 0.19279 0.11479 0.0
H1986 H 0.86002 0.12956 0.16078 0.0
H1987 H 0.82558 0.13739 0.13987 0.0
H1988 H 0.75926 0.14183 0.17849 0.0
C1989 C 0.73941 0.21844 0.12127 0.0
C1990 C 0.77381 0.18184 0.12875 0.0
C1991 C 0.72289 0.23306 0.11294 0.0
C1992 C 0.84452 0.13232 0.17008 0.0
C1993 C 0.82484 0.13723 0.15813 0.0
C1994 C 0.76365 0.15292 0.16463 0.0
C1995 C 0.73392 0.19615 0.12748 0.0
C1996 C 0.75155 0.18085 0.13687 0.0
C1997 C 0.80504 0.14364 0.16962 0.0
C1998 C 0.78615 0.15476 0.1572 0.0
H1999 H 0.67771 0.19743 0.11544 0.0
H2000 H 0.70664 0.17176 0.12936 0.0
H2001 H 0.72965 0.16471 0.16146 0.0
H2002 H 0.82409 0.13729 0.22361 0.0
H2003 H 0.7899 0.14698 0.20292 0.0
C2004 C 0.15145 0.63731 0.32923 0.0
C2005 C 0.15086 0.63707 0.30555 0.0
C2006 C 0.17148 0.64227 0.34062 0.0
C2007 C 0.20701 0.67372 0.35812 0.0
H2008 H 0.2676 0.66573 0.33475 0.0
C2009 C 0.27821 0.73536 0.3807 0.0
C2010 C 0.30033 0.72716 0.38311 0.0
C2011 C 0.26097 0.72125 0.37295 0.0
C2012 C 0.25085 0.6679 0.34175 0.0
H2013 H 0.17095 0.64015 0.27518 0.0
H2014 H 0.20574 0.64972 0.29488 0.0
H2015 H 0.23666 0.64365 0.31898 0.0
H2016 H 0.32158 0.69752 0.37957 0.0
H2017 H 0.29137 0.67278 0.36654 0.0
H2018 H 0.22114 0.69763 0.3811 0.0
C2019 C 0.19099 0.64555 0.30484 0.0
C2020 C 0.23303 0.6554 0.33251 0.0
C2021 C 0.17102 0.64005 0.29347 0.0
C2022 C 0.30475 0.70443 0.37778 0.0
C2023 C 0.28744 0.69025 0.3702 0.0
C2024 C 0.2248 0.68599 0.36748 0.0
C2025 C 0.1912 0.64777 0.32854 0.0
C2026 C 0.21077 0.65851 0.34024 0.0
C2027 C 0.26532 0.6985 0.36763 0.0
C2028 C 0.24686 0.6837 0.35906 0.0
H2029 H 0.13612 0.63489 0.33892 0.0
H2030 H 0.17114 0.64303 0.35889 0.0
H2031 H 0.19014 0.67695 0.36438 0.0
H2032 H 0.27422 0.7528 0.38448 0.0
H2033 H 0.24428 0.72837 0.37073 0.0
C2034 C 0.19554 0.29156 0.8798 0.0
C2035 C 0.20083 0.26922 0.88596 0.0
C2036 C 0.21206 0.30588 0.87097 0.0
C2037 C 0.2463 0.32778 0.83974 0.0
H2038 H 0.30787 0.32457 0.86154 0.0
C2039 C 0.32372 0.35983 0.78959 0.0
C2040 C 0.34327 0.36552 0.80168 0.0
C2041 C 0.30416 0.35316 0.80111 0.0
C2042 C 0.29069 0.32609 0.85546 0.0
H2043 H 0.2278 0.24455 0.88782 0.0
H2044 H 0.25659 0.26941 0.87203 0.0
H2045 H 0.27881 0.3022 0.87977 0.0
H2046 H 0.35712 0.37127 0.83498 0.0
H2047 H 0.32273 0.361 0.85508 0.0
H2048 H 0.25824 0.35188 0.81554 0.0
C2049 C 0.23969 0.27599 0.8744 0.0
C2050 C 0.27407 0.31288 0.86571 0.0
C2051 C 0.22316 0.26166 0.88337 0.0
C2052 C 0.34222 0.36692 0.82531 0.0
C2053 C 0.32262 0.36068 0.8368 0.0
C2054 C 0.26295 0.34111 0.82953 0.0
C2055 C 0.23431 0.29824 0.86795 0.0
C2056 C 0.25173 0.31328 0.85779 0.0
C2057 C 0.30382 0.35236 0.8249 0.0
C2058 C 0.28543 0.34023 0.83709 0.0
H2059 H 0.17855 0.29805 0.88173 0.0
H2060 H 0.20739 0.32301 0.8666 0.0
H2061 H 0.2293 0.32839 0.83305 0.0
H2062 H 0.32422 0.35833 0.77136 0.0
H2063 H 0.29006 0.34685 0.79134 0.0
C2064 C 0.61561 0.80122 0.79333 0.0
C2065 C 0.61176 0.7973 0.77022 0.0
C2066 C 0.62291 0.78379 0.80745 0.0
C2067 C 0.65169 0.74801 0.83027 0.0
H2068 H 0.63214 0.6866 0.81913 0.0
C2069 C 0.70145 0.66974 0.85986 0.0
C2070 C 0.68994 0.64917 0.86217 0.0
C2071 C 0.68969 0.68932 0.85381 0.0
C2072 C 0.63751 0.70366 0.82291 0.0
H2073 H 0.61254 0.77189 0.74386 0.0
H2074 H 0.62583 0.74167 0.76827 0.0
H2075 H 0.61527 0.71724 0.798 0.0
H2076 H 0.65701 0.63328 0.86257 0.0
H2077 H 0.63631 0.6676 0.85343 0.0
H2078 H 0.6737 0.73438 0.85549 0.0
C2079 C 0.62269 0.75809 0.77567 0.0
C2080 C 0.62808 0.72125 0.81041 0.0
C2081 C 0.61518 0.77547 0.7616 0.0
C2082 C 0.66628 0.64894 0.86069 0.0
C2083 C 0.65448 0.66856 0.85516 0.0
C2084 C 0.66099 0.73039 0.84297 0.0
C2085 C 0.62672 0.76202 0.79877 0.0
C2086 C 0.63539 0.7436 0.81354 0.0
C2087 C 0.66615 0.6887 0.85036 0.0
C2088 C 0.65435 0.70791 0.83915 0.0
H2089 H 0.61296 0.81781 0.80059 0.0
H2090 H 0.62547 0.78737 0.82519 0.0
H2091 H 0.65786 0.76499 0.83308 0.0
H2092 H 0.71972 0.6703 0.86072 0.0
H2093 H 0.69932 0.70443 0.85021 0.0
C2094 C 0.17151 0.84543 0.13334 0.0
C2095 C 0.1952 0.84542 0.13368 0.0
C2096 C 0.15947 0.82589 0.13869 0.0
C2097 C 0.14042 0.79223 0.17129 0.0
H2098 H 0.16165 0.73064 0.16559 0.0
C2099 C 0.11359 0.72307 0.23405 0.0
C2100 C 0.1109 0.70086 0.22618 0.0
C2101 C 0.12212 0.73988 0.21983 0.0
C2102 C 0.15525 0.74769 0.16713 0.0
H2103 H 0.22495 0.82476 0.13822 0.0
H2104 H 0.20407 0.79076 0.14838 0.0
H2105 H 0.17902 0.76027 0.14294 0.0
H2106 H 0.11445 0.67909 0.19689 0.0
H2107 H 0.12875 0.70848 0.172 0.0
H2108 H 0.11646 0.7797 0.19517 0.0
C2109 C 0.19462 0.8056 0.14345 0.0
C2110 C 0.16541 0.76475 0.1543 0.0
C2111 C 0.20667 0.82509 0.13756 0.0
C2112 C 0.11649 0.69598 0.2036 0.0
C2113 C 0.12482 0.71283 0.18932 0.0
C2114 C 0.13016 0.77518 0.18393 0.0
C2115 C 0.17088 0.8061 0.14519 0.0
C2116 C 0.15841 0.78734 0.1565 0.0
C2117 C 0.12795 0.73496 0.19729 0.0
C2118 C 0.13773 0.75276 0.1824 0.0
H2119 H 0.16231 0.86095 0.1304 0.0
H2120 H 0.14121 0.82675 0.13907 0.0
H2121 H 0.13473 0.80941 0.17385 0.0
H2122 H 0.1096 0.72739 0.25137 0.0
H2123 H 0.12464 0.75663 0.22671 0.0
C2124 C 0.29659 0.17411 0.63364 0.0
C2125 C 0.30854 0.15388 0.63077 0.0
C2126 C 0.30813 0.19404 0.63898 0.0
C2127 C 0.33622 0.23563 0.64967 0.0
H2128 H 0.38376 0.22215 0.69261 0.0
C2129 C 0.38119 0.30554 0.70117 0.0
C2130 C 0.38561 0.30069 0.72401 0.0
C2131 C 0.37392 0.28859 0.68645 0.0
C2132 C 0.37045 0.22624 0.68076 0.0
H2133 H 0.34182 0.13896 0.62848 0.0
H2134 H 0.36204 0.17389 0.63613 0.0
H2135 H 0.36715 0.19187 0.67079 0.0
H2136 H 0.38583 0.27416 0.74924 0.0
H2137 H 0.37265 0.24475 0.72378 0.0
H2138 H 0.33864 0.26989 0.66091 0.0
C2139 C 0.34378 0.17434 0.63543 0.0
C2140 C 0.36117 0.20889 0.66785 0.0
C2141 C 0.33223 0.15437 0.63068 0.0
C2142 C 0.38273 0.27846 0.73174 0.0
C2143 C 0.37529 0.26155 0.71706 0.0
C2144 C 0.3454 0.25301 0.66279 0.0
C2145 C 0.33184 0.19407 0.64113 0.0
C2146 C 0.34364 0.21324 0.65239 0.0
C2147 C 0.37076 0.2664 0.69424 0.0
C2148 C 0.36231 0.24842 0.67884 0.0
H2149 H 0.2783 0.17411 0.634 0.0
H2150 H 0.2983 0.20883 0.64327 0.0
H2151 H 0.32294 0.23968 0.63778 0.0
H2152 H 0.38339 0.32246 0.69459 0.0
H2153 H 0.37091 0.29287 0.66894 0.0
C2154 C 0.82967 0.34993 0.34957 0.0
C2155 C 0.80769 0.35046 0.35852 0.0
C2156 C 0.84031 0.32943 0.34507 0.0
C2157 C 0.82474 0.27085 0.33119 0.0
H2158 H 0.88971 0.26412 0.32626 0.0
C2159 C 0.86737 0.19239 0.29114 0.0
C2160 C 0.88291 0.19751 0.2739 0.0
C2161 C 0.85918 0.20935 0.30537 0.0
C2162 C 0.87154 0.26577 0.3276 0.0
H2163 H 0.78056 0.32986 0.37192 0.0
H2164 H 0.79946 0.2939 0.36466 0.0
H2165 H 0.87405 0.29617 0.34691 0.0
H2166 H 0.90243 0.22439 0.25846 0.0
H2167 H 0.88835 0.25396 0.2836 0.0
H2168 H 0.82237 0.24038 0.3118 0.0
C2169 C 0.80817 0.30941 0.36042 0.0
C2170 C 0.86253 0.28414 0.33937 0.0
C2171 C 0.79742 0.33003 0.36483 0.0
C2172 C 0.89041 0.2199 0.2715 0.0
C2173 C 0.88249 0.23679 0.28599 0.0
C2174 C 0.83378 0.2523 0.31972 0.0
C2175 C 0.82937 0.30885 0.3496 0.0
C2176 C 0.83899 0.28733 0.34072 0.0
C2177 C 0.86665 0.23171 0.30292 0.0
C2178 C 0.85724 0.24993 0.31728 0.0
H2179 H 0.83824 0.36538 0.34481 0.0
H2180 H 0.85653 0.32986 0.33664 0.0
H2181 H 0.80657 0.27281 0.3315 0.0
H2182 H 0.86121 0.17531 0.29342 0.0
H2183 H 0.84702 0.20498 0.31833 0.0
C2184 C 0.17949 0.34176 0.47596 0.0
C2185 C 0.1589 0.33011 0.47806 0.0
C2186 C 0.1879 0.35465 0.49373 0.0
C2187 C 0.20851 0.37106 0.53714 0.0
H2188 H 0.1686 0.41317 0.56729 0.0
C2189 C 0.20646 0.4542 0.59999 0.0
C2190 C 0.22161 0.4677 0.58762 0.0
C2191 C 0.20218 0.43197 0.59339 0.0
C2192 C 0.17997 0.40113 0.55953 0.0
H2193 H 0.13088 0.32316 0.50057 0.0
H2194 H 0.1456 0.3459 0.53179 0.0
H2195 H 0.15289 0.38531 0.54161 0.0
H2196 H 0.24679 0.46738 0.56104 0.0
H2197 H 0.23933 0.42873 0.54951 0.0
H2198 H 0.23572 0.38775 0.55422 0.0
C2199 C 0.15517 0.345 0.51624 0.0
C2200 C 0.17091 0.38517 0.54471 0.0
C2201 C 0.14669 0.33204 0.49833 0.0
C2202 C 0.23487 0.45751 0.5708 0.0
C2203 C 0.23054 0.43527 0.56415 0.0
C2204 C 0.21759 0.38709 0.55191 0.0
C2205 C 0.17603 0.35625 0.51419 0.0
C2206 C 0.18516 0.3705 0.53273 0.0
C2207 C 0.21304 0.42285 0.57437 0.0
C2208 C 0.20348 0.40279 0.5627 0.0
H2209 H 0.18932 0.34084 0.46055 0.0
H2210 H 0.20368 0.3636 0.49131 0.0
H2211 H 0.2199 0.35961 0.52856 0.0
H2212 H 0.19628 0.46144 0.61336 0.0
H2213 H 0.18905 0.42258 0.602 0.0
C2214 C 0.2945 0.54707 0.09699 0.0
C2215 C 0.27653 0.53364 0.08911 0.0
C2216 C 0.29734 0.56908 0.08906 0.0
C2217 C 0.28404 0.59711 0.03581 0.0
H2218 H 0.32262 0.64448 0.05944 0.0
C2219 C 0.31244 0.66977 0.97977 0.0
C2220 C 0.33567 0.67486 0.97944 0.0
C2221 C 0.30332 0.65604 0.99646 0.0
C2222 C 0.31191 0.63129 0.05266 0.0
H2223 H 0.24494 0.53434 0.07062 0.0
H2224 H 0.24927 0.57314 0.05771 0.0
H2225 H 0.30667 0.61624 0.08518 0.0
H2226 H 0.36731 0.67013 0.99723 0.0
H2227 H 0.35122 0.64549 0.02649 0.0
H2228 H 0.28948 0.61177 0.00337 0.0
C2229 C 0.26197 0.56619 0.06888 0.0
C2230 C 0.30267 0.61519 0.06737 0.0
C2231 C 0.25931 0.544 0.07652 0.0
C2232 C 0.34944 0.66634 0.99681 0.0
C2233 C 0.3402 0.65243 0.01366 0.0
C2234 C 0.29307 0.6132 0.02125 0.0
C2235 C 0.28197 0.57824 0.07349 0.0
C2236 C 0.28885 0.59767 0.05905 0.0
C2237 C 0.31708 0.64685 0.01334 0.0
C2238 C 0.30729 0.63032 0.02942 0.0
H2239 H 0.30781 0.53983 0.10724 0.0
H2240 H 0.3128 0.57784 0.09333 0.0
H2241 H 0.27413 0.58358 0.02852 0.0
H2242 H 0.30111 0.67627 0.96697 0.0
H2243 H 0.28539 0.65239 0.99599 0.0
C2244 C 0.68456 0.18086 0.50948 0.0
C2245 C 0.66328 0.17632 0.51889 0.0
C2246 C 0.69281 0.16789 0.49165 0.0
C2247 C 0.67676 0.12257 0.45046 0.0
H2248 H 0.74057 0.10849 0.45424 0.0
C2249 C 0.73527 0.04186 0.43252 0.0
C2250 C 0.72303 0.03312 0.41419 0.0
C2251 C 0.73218 0.06422 0.43928 0.0
C2252 C 0.72272 0.11218 0.45289 0.0
H2253 H 0.63362 0.15512 0.51676 0.0
H2254 H 0.64843 0.13149 0.48643 0.0
H2255 H 0.72477 0.13708 0.47876 0.0
H2256 H 0.70103 0.04185 0.38628 0.0
H2257 H 0.69658 0.08122 0.39735 0.0
H2258 H 0.67432 0.09618 0.42613 0.0
C2259 C 0.65855 0.14557 0.4922 0.0
C2260 C 0.71363 0.12892 0.4668 0.0
C2261 C 0.65005 0.15898 0.50972 0.0
C2262 C 0.71035 0.04802 0.40077 0.0
C2263 C 0.70756 0.07053 0.40731 0.0
C2264 C 0.68578 0.10552 0.43687 0.0
C2265 C 0.68025 0.14962 0.48317 0.0
C2266 C 0.69037 0.13391 0.46625 0.0
C2267 C 0.71713 0.07844 0.42757 0.0
C2268 C 0.70876 0.09958 0.43841 0.0
H2269 H 0.69492 0.19446 0.51602 0.0
H2270 H 0.70924 0.17204 0.48479 0.0
H2271 H 0.65893 0.12631 0.44906 0.0
H2272 H 0.74528 0.03087 0.44317 0.0
H2273 H 0.73995 0.06954 0.45493 0.0
C2274 C 0.82067 0.82126 0.00658 0.0
C2275 C 0.84214 0.82481 0.01605 0.0
C2276 C 0.81283 0.8351 0.98926 0.0
C2277 C 0.81543 0.89274 0.97409 0.0
H2278 H 0.78555 0.87622 0.91809 0.0
C2279 C 0.76142 0.95663 0.93141 0.0
C2280 C 0.77467 0.96571 0.91393 0.0
C2281 C 0.76528 0.93461 0.93884 0.0
C2282 C 0.79372 0.88088 0.93377 0.0
H2283 H 0.87274 0.84474 0.01422 0.0
H2284 H 0.85859 0.86972 0.98428 0.0
H2285 H 0.80503 0.84705 0.94059 0.0
H2286 H 0.79879 0.95757 0.88756 0.0
H2287 H 0.80523 0.91899 0.90047 0.0
H2288 H 0.80371 0.92627 0.96783 0.0
C2289 C 0.84807 0.85594 0.99012 0.0
C2290 C 0.80493 0.86437 0.94649 0.0
C2291 C 0.85614 0.84172 0.00717 0.0
C2292 C 0.78867 0.95115 0.90138 0.0
C2293 C 0.79233 0.92903 0.90869 0.0
C2294 C 0.80386 0.90901 0.96174 0.0
C2295 C 0.82616 0.853 0.98142 0.0
C2296 C 0.81592 0.87027 0.9667 0.0
C2297 C 0.78199 0.92134 0.92853 0.0
C2298 C 0.79284 0.90321 0.94159 0.0
H2299 H 0.80968 0.80811 0.013 0.0
H2300 H 0.79584 0.83264 0.98294 0.0
H2301 H 0.82348 0.89761 0.98979 0.0
H2302 H 0.75027 0.96729 0.94125 0.0
H2303 H 0.75703 0.92884 0.95412 0.0
C2304 C 0.57291 0.24086 0.45955 0.0
C2305 C 0.5879 0.22479 0.46845 0.0
C2306 C 0.56399 0.23794 0.43791 0.0
C2307 C 0.56291 0.19945 0.38753 0.0
H2308 H 0.49841 0.20257 0.39832 0.0
C2309 C 0.49494 0.14908 0.33622 0.0
C2310 C 0.47535 0.16133 0.33071 0.0
C2311 C 0.51134 0.15857 0.35051 0.0
C2312 C 0.51636 0.20181 0.39483 0.0
H2313 H 0.60882 0.19587 0.46 0.0
H2314 H 0.59287 0.19049 0.42275 0.0
H2315 H 0.52407 0.21966 0.42503 0.0
H2316 H 0.45796 0.19333 0.33569 0.0
H2317 H 0.48621 0.20954 0.36 0.0
H2318 H 0.55477 0.18087 0.35743 0.0
C2319 C 0.58766 0.20514 0.43238 0.0
C2320 C 0.53113 0.21184 0.41008 0.0
C2321 C 0.59677 0.2082 0.4539 0.0
C2322 C 0.47266 0.18319 0.33962 0.0
C2323 C 0.48889 0.19257 0.35369 0.0
C2324 C 0.548 0.18935 0.37215 0.0
C2325 C 0.56985 0.21888 0.42495 0.0
C2326 C 0.5546 0.21077 0.40673 0.0
C2327 C 0.5083 0.18037 0.35952 0.0
C2328 C 0.52455 0.19044 0.37571 0.0
H2329 H 0.56615 0.25421 0.47008 0.0
H2330 H 0.55089 0.24937 0.43223 0.0
H2331 H 0.5809 0.19824 0.38452 0.0
H2332 H 0.49764 0.1323 0.32949 0.0
H2333 H 0.52613 0.14874 0.35483 0.0
C2334 C 0.93171 0.75983 0.95712 0.0
C2335 C 0.91403 0.7724 0.9667 0.0
C2336 C 0.93845 0.76393 0.93487 0.0
C2337 C 0.95139 0.77684 0.8869 0.0
H2338 H 0.95719 0.84205 0.88415 0.0
C2339 C 0.00215 0.85048 0.83275 0.0
C2340 C 0.02334 0.83981 0.832 0.0
C2341 C 0.98431 0.84088 0.84501 0.0
C2342 C 0.95536 0.82386 0.88426 0.0
H2343 H 0.88696 0.79594 0.95942 0.0
H2344 H 0.89839 0.80267 0.92048 0.0
H2345 H 0.93164 0.8251 0.91135 0.0
H2346 H 0.04251 0.81096 0.84406 0.0
H2347 H 0.01182 0.79467 0.86562 0.0
H2348 H 0.97594 0.77569 0.8604 0.0
C2349 C 0.90762 0.79034 0.93035 0.0
C2350 C 0.94061 0.81407 0.89985 0.0
C2351 C 0.90096 0.78634 0.95261 0.0
C2352 C 0.02639 0.81961 0.84409 0.0
C2353 C 0.00868 0.81008 0.85629 0.0
C2354 C 0.96612 0.78664 0.87127 0.0
C2355 C 0.92745 0.78048 0.92184 0.0
C2356 C 0.93904 0.79043 0.90191 0.0
C2357 C 0.98736 0.82043 0.85673 0.0
C2358 C 0.96891 0.81024 0.87038 0.0
H2359 H 0.94204 0.74887 0.96749 0.0
H2360 H 0.95373 0.7559 0.92882 0.0
H2361 H 0.95034 0.7586 0.88787 0.0
H2362 H 0.99917 0.86594 0.82348 0.0
H2363 H 0.96807 0.84927 0.84502 0.0
C2364 C 0.07167 0.25868 0.54152 0.0
C2365 C 0.08529 0.27587 0.53246 0.0
C2366 C 0.06282 0.26086 0.56329 0.0
C2367 C 0.05953 0.29932 0.6136 0.0
H2368 H 0.99528 0.29187 0.60349 0.0
C2369 C 0.99032 0.34873 0.66304 0.0
C2370 C 0.97081 0.33655 0.66894 0.0
C2371 C 0.00684 0.33889 0.6492 0.0
C2372 C 0.01316 0.29378 0.60685 0.0
H2373 H 0.10398 0.30636 0.54066 0.0
H2374 H 0.08814 0.31043 0.57812 0.0
H2375 H 0.02177 0.27574 0.577 0.0
H2376 H 0.95358 0.30432 0.66507 0.0
H2377 H 0.98216 0.28741 0.64144 0.0
H2378 H 0.05051 0.31817 0.64323 0.0
C2379 C 0.08395 0.29542 0.56854 0.0
C2380 C 0.02844 0.28433 0.59171 0.0
C2381 C 0.09298 0.29312 0.5469 0.0
C2382 C 0.96824 0.31439 0.66076 0.0
C2383 C 0.98465 0.30462 0.64711 0.0
C2384 C 0.04414 0.30882 0.62886 0.0
C2385 C 0.06738 0.28029 0.57621 0.0
C2386 C 0.05182 0.28718 0.59467 0.0
C2387 C 0.00409 0.31673 0.64103 0.0
C2388 C 0.02077 0.30633 0.62547 0.0
H2389 H 0.06588 0.24483 0.53107 0.0
H2390 H 0.05074 0.24843 0.56912 0.0
H2391 H 0.07743 0.30181 0.61638 0.0
H2392 H 0.99292 0.36574 0.66916 0.0
H2393 H 0.02156 0.34873 0.64461 0.0
C2394 C 0.5097 0.64685 0.15653 0.0
C2395 C 0.51729 0.66002 0.17469 0.0
C2396 C 0.49359 0.6555 0.1416 0.0
C2397 C 0.47901 0.69014 0.10562 0.0
H2398 H 0.41953 0.71378 0.11987 0.0
C2399 C 0.43272 0.73908 0.03941 0.0
C2400 C 0.41498 0.72548 0.03141 0.0
C2401 C 0.4411 0.73589 0.0612 0.0
C2402 C 0.43621 0.70744 0.11585 0.0
H2403 H 0.51302 0.6917 0.19255 0.0
H2404 H 0.48442 0.70652 0.16675 0.0
H2405 H 0.44211 0.69521 0.14953 0.0
H2406 H 0.38935 0.70117 0.04125 0.0
H2407 H 0.40388 0.69594 0.07942 0.0
H2408 H 0.47354 0.70253 0.0722 0.0
C2409 C 0.49109 0.68972 0.16393 0.0
C2410 C 0.44898 0.69675 0.13265 0.0
C2411 C 0.50753 0.68131 0.17852 0.0
C2412 C 0.40333 0.71159 0.04681 0.0
C2413 C 0.41159 0.70861 0.0687 0.0
C2414 C 0.46656 0.70123 0.08907 0.0
C2415 C 0.48449 0.67717 0.14501 0.0
C2416 C 0.47036 0.68782 0.12751 0.0
C2417 C 0.43155 0.71946 0.07537 0.0
C2418 C 0.44505 0.70991 0.09399 0.0
H2419 H 0.51705 0.63045 0.15318 0.0
H2420 H 0.48871 0.6456 0.12701 0.0
H2421 H 0.49558 0.68362 0.10138 0.0
H2422 H 0.44189 0.75017 0.02812 0.0
H2423 H 0.45637 0.74465 0.06618 0.0
C2424 C 0.45211 0.5991 0.209 0.0
C2425 C 0.46608 0.58581 0.22288 0.0
C2426 C 0.42972 0.59281 0.20516 0.0
C2427 C 0.39887 0.55993 0.1817 0.0
H2428 H 0.35918 0.52533 0.22052 0.0
C2429 C 0.34387 0.47377 0.17779 0.0
C2430 C 0.33156 0.4763 0.15765 0.0
C2431 C 0.35595 0.49179 0.18684 0.0
C2432 C 0.37009 0.53497 0.20945 0.0
H2433 H 0.4665 0.55789 0.24655 0.0
H2434 H 0.4276 0.54687 0.23979 0.0
H2435 H 0.3866 0.55116 0.23728 0.0
H2436 H 0.32267 0.49978 0.13106 0.0
H2437 H 0.34407 0.53144 0.14685 0.0
H2438 H 0.38329 0.54286 0.15395 0.0
C2439 C 0.43387 0.562 0.23166 0.0
C2440 C 0.3857 0.54984 0.21906 0.0
C2441 C 0.45627 0.56834 0.23557 0.0
C2442 C 0.3321 0.49722 0.14647 0.0
C2443 C 0.34426 0.51538 0.15558 0.0
C2444 C 0.38331 0.54504 0.1721 0.0
C2445 C 0.42094 0.57319 0.21516 0.0
C2446 C 0.40085 0.56184 0.20533 0.0
C2447 C 0.35606 0.5129 0.17607 0.0
C2448 C 0.3694 0.53171 0.18591 0.0
H2449 H 0.45908 0.613 0.19935 0.0
H2450 H 0.41994 0.60215 0.19285 0.0
H2451 H 0.41047 0.56867 0.17059 0.0
H2452 H 0.34403 0.45786 0.18681 0.0
H2453 H 0.3654 0.48908 0.20226 0.0
C2454 C 0.84221 0.00746 0.85256 0.0
C2455 C 0.82438 0.01637 0.83983 0.0
C2456 C 0.85552 0.99002 0.84373 0.0
C2457 C 0.87044 0.96414 0.78828 0.0
H2458 H 0.90487 0.92414 0.82677 0.0
C2459 C 0.95677 0.93006 0.7637 0.0
C2460 C 0.96618 0.91216 0.77605 0.0
C2461 C 0.93443 0.9366 0.76743 0.0
C2462 C 0.89504 0.93468 0.81555 0.0
H2463 H 0.80528 0.01312 0.80882 0.0
H2464 H 0.8275 0.98201 0.79399 0.0
H2465 H 0.87526 0.94712 0.84305 0.0
H2466 H 0.95856 0.88457 0.79887 0.0
H2467 H 0.91921 0.89518 0.80442 0.0
H2468 H 0.88982 0.95129 0.76069 0.0
C2469 C 0.83213 0.98903 0.81022 0.0
C2470 C 0.87829 0.94832 0.82506 0.0
C2471 C 0.81927 0.0068 0.81877 0.0
C2472 C 0.95187 0.89875 0.78944 0.0
C2473 C 0.92938 0.90504 0.79287 0.0
C2474 C 0.88685 0.95017 0.7787 0.0
C2475 C 0.85088 0.9808 0.82223 0.0
C2476 C 0.86635 0.96388 0.81172 0.0
C2477 C 0.92091 0.92505 0.78325 0.0
C2478 C 0.90005 0.93592 0.79232 0.0
H2479 H 0.84648 0.01463 0.86883 0.0
H2480 H 0.86996 0.98445 0.85343 0.0
H2481 H 0.8618 0.97592 0.77731 0.0
H2482 H 0.96728 0.9407 0.75315 0.0
H2483 H 0.92867 0.95204 0.75955 0.0
C2484 C 0.54281 0.06977 0.26367 0.0
C2485 C 0.53329 0.08739 0.27635 0.0
C2486 C 0.56523 0.0634 0.26716 0.0
C2487 C 0.60501 0.06506 0.31493 0.0
H2488 H 0.63827 0.02466 0.27577 0.0
C2489 C 0.65802 0.9919 0.35042 0.0
C2490 C 0.67589 0.98322 0.33757 0.0
C2491 C 0.6447 0.00946 0.34189 0.0
C2492 C 0.62963 0.03621 0.28699 0.0
H2493 H 0.54074 0.11467 0.29959 0.0
H2494 H 0.58022 0.10439 0.30473 0.0
H2495 H 0.60993 0.04933 0.25977 0.0
H2496 H 0.69498 0.98695 0.30659 0.0
H2497 H 0.67269 0.01826 0.29225 0.0
H2498 H 0.62509 0.05237 0.34205 0.0
C2499 C 0.57009 0.09459 0.29309 0.0
C2500 C 0.61303 0.0502 0.27777 0.0
C2501 C 0.54751 0.1007 0.28991 0.0
C2502 C 0.68098 0.99311 0.31664 0.0
C2503 C 0.66808 0.01099 0.30837 0.0
C2504 C 0.62193 0.05142 0.32408 0.0
C2505 C 0.57873 0.07486 0.28305 0.0
C2506 C 0.5998 0.06411 0.29174 0.0
C2507 C 0.64935 0.01904 0.32056 0.0
C2508 C 0.63385 0.03612 0.31039 0.0
H2509 H 0.53236 0.05923 0.25297 0.0
H2510 H 0.57111 0.04816 0.25898 0.0
H2511 H 0.59519 0.07535 0.3264 0.0
H2512 H 0.6537 0.98447 0.36656 0.0
H2513 H 0.63025 0.01485 0.35169 0.0
C2514 C 0.16499 0.52322 0.6841 0.0
C2515 C 0.17123 0.52347 0.66117 0.0
C2516 C 0.15149 0.50607 0.69275 0.0
C2517 C 0.12965 0.44857 0.6826 0.0
H2518 H 0.08119 0.46928 0.72145 0.0
C2519 C 0.04675 0.40106 0.69915 0.0
C2520 C 0.03386 0.40735 0.71812 0.0
C2521 C 0.06846 0.40974 0.69607 0.0
C2522 C 0.09495 0.46298 0.71118 0.0
H2523 H 0.16844 0.50532 0.62949 0.0
H2524 H 0.14416 0.47538 0.64463 0.0
H2525 H 0.10808 0.49619 0.70676 0.0
H2526 H 0.03539 0.42365 0.75088 0.0
H2527 H 0.07359 0.43804 0.74591 0.0
H2528 H 0.11585 0.41529 0.6866 0.0
C2529 C 0.15009 0.48852 0.65588 0.0
C2530 C 0.11033 0.47853 0.70257 0.0
C2531 C 0.16381 0.50579 0.64715 0.0
C2532 C 0.0446 0.41902 0.73577 0.0
C2533 C 0.06644 0.42746 0.73281 0.0
C2534 C 0.11417 0.43288 0.69129 0.0
C2535 C 0.1436 0.48868 0.67875 0.0
C2536 C 0.12775 0.4716 0.68805 0.0
C2537 C 0.0778 0.4245 0.71212 0.0
C2538 C 0.09648 0.43997 0.70553 0.0
H2539 H 0.17059 0.53631 0.69559 0.0
H2540 H 0.14718 0.50648 0.71053 0.0
H2541 H 0.14305 0.4427 0.67164 0.0
H2542 H 0.03922 0.39161 0.68541 0.0
H2543 H 0.07678 0.40679 0.68006 0.0
C2544 C 0.75956 0.54295 0.43215 0.0
C2545 C 0.77231 0.53365 0.41443 0.0
C2546 C 0.76348 0.56514 0.43917 0.0
C2547 C 0.81342 0.60036 0.44205 0.0
H2548 H 0.77463 0.63949 0.4773 0.0
C2549 C 0.84937 0.66775 0.50329 0.0
C2550 C 0.8386 0.66884 0.52441 0.0
C2551 C 0.83983 0.65526 0.48562 0.0
C2552 C 0.7857 0.62869 0.46753 0.0
H2553 H 0.79598 0.54141 0.38757 0.0
H2554 H 0.8024 0.58025 0.39951 0.0
H2555 H 0.75784 0.61203 0.45151 0.0
H2556 H 0.80962 0.65719 0.54366 0.0
H2557 H 0.79343 0.63513 0.51323 0.0
H2558 H 0.84122 0.6161 0.45883 0.0
C2559 C 0.79007 0.57019 0.40855 0.0
C2560 C 0.77606 0.61307 0.45268 0.0
C2561 C 0.78625 0.54799 0.40161 0.0
C2562 C 0.81834 0.65687 0.52758 0.0
C2563 C 0.80888 0.64439 0.51001 0.0
C2564 C 0.82304 0.61591 0.45692 0.0
C2565 C 0.78003 0.5784 0.42841 0.0
C2566 C 0.7898 0.59823 0.4403 0.0
C2567 C 0.81935 0.64359 0.48875 0.0
C2568 C 0.80928 0.62971 0.47041 0.0
H2569 H 0.74857 0.5324 0.44228 0.0
H2570 H 0.75531 0.57096 0.45446 0.0
H2571 H 0.82456 0.58896 0.43308 0.0
H2572 H 0.86485 0.67695 0.50022 0.0
H2573 H 0.8483 0.65503 0.46941 0.0
C2574 C 0.71362 0.45104 0.89996 0.0
C2575 C 0.72573 0.46561 0.91427 0.0
C2576 C 0.71087 0.42832 0.90566 0.0
C2577 C 0.72449 0.38557 0.95065 0.0
H2578 H 0.6605 0.37271 0.94548 0.0
C2579 C 0.68387 0.3179 0.00654 0.0
C2580 C 0.66271 0.32317 0.01581 0.0
C2581 C 0.69261 0.33045 0.98866 0.0
C2582 C 0.67838 0.37607 0.94722 0.0
H2583 H 0.74717 0.46713 0.94388 0.0
H2584 H 0.74191 0.42803 0.95419 0.0
H2585 H 0.67692 0.40271 0.9231 0.0
H2586 H 0.63366 0.34515 0.01332 0.0
H2587 H 0.64936 0.36809 0.98287 0.0
H2588 H 0.72552 0.36044 0.97634 0.0
C2589 C 0.73455 0.43378 0.93849 0.0
C2590 C 0.68799 0.39305 0.93396 0.0
C2591 C 0.73761 0.45639 0.93257 0.0
C2592 C 0.65001 0.34076 0.0064 0.0
C2593 C 0.65901 0.35376 0.98881 0.0
C2594 C 0.71479 0.3689 0.96421 0.0
C2595 C 0.71989 0.41986 0.92594 0.0
C2596 C 0.71104 0.39858 0.93607 0.0
C2597 C 0.68066 0.34903 0.97999 0.0
C2598 C 0.69145 0.36441 0.96322 0.0
H2599 H 0.70461 0.45762 0.88547 0.0
H2600 H 0.70021 0.41787 0.8951 0.0
H2601 H 0.74236 0.38898 0.95242 0.0
H2602 H 0.69379 0.30407 0.01325 0.0
H2603 H 0.70896 0.3258 0.98194 0.0
C2604 C 0.29372 0.95095 0.5966 0.0
C2605 C 0.27645 0.96513 0.58848 0.0
C2606 C 0.29642 0.92924 0.58782 0.0
C2607 C 0.28604 0.90523 0.5324 0.0
H2608 H 0.32041 0.85436 0.55515 0.0
C2609 C 0.31476 0.83518 0.47327 0.0
C2610 C 0.33722 0.82761 0.47491 0.0
C2611 C 0.30536 0.84877 0.48992 0.0
C2612 C 0.31092 0.86855 0.54861 0.0
H2613 H 0.24568 0.96593 0.56864 0.0
H2614 H 0.24988 0.92773 0.55405 0.0
H2615 H 0.30394 0.88155 0.58172 0.0
H2616 H 0.36724 0.82811 0.49586 0.0
H2617 H 0.3508 0.85262 0.525 0.0
H2618 H 0.29342 0.89286 0.49943 0.0
C2619 C 0.2621 0.93385 0.5662 0.0
C2620 C 0.30136 0.88402 0.56379 0.0
C2621 C 0.25955 0.9557 0.57476 0.0
C2622 C 0.34999 0.83381 0.49395 0.0
C2623 C 0.3405 0.84764 0.51073 0.0
C2624 C 0.2955 0.88987 0.51736 0.0
C2625 C 0.28163 0.92122 0.57111 0.0
C2626 C 0.28894 0.90266 0.55582 0.0
C2627 C 0.31814 0.85545 0.50869 0.0
C2628 C 0.30816 0.87144 0.52521 0.0
H2629 H 0.30673 0.95744 0.60769 0.0
H2630 H 0.31147 0.9199 0.59231 0.0
H2631 H 0.2773 0.91973 0.52551 0.0
H2632 H 0.30419 0.83058 0.45907 0.0
H2633 H 0.28797 0.85412 0.48803 0.0
C2634 C 0.23604 0.04399 0.07432 0.0
C2635 C 0.2224 0.03389 0.09091 0.0
C2636 C 0.23215 0.06632 0.06775 0.0
C2637 C 0.21961 0.11436 0.0549 0.0
H2638 H 0.155 0.11618 0.04423 0.0
C2639 C 0.14886 0.16808 -0.00015 0.0
C2640 C 0.16103 0.16956 0.97952 0.0
C2641 C 0.15744 0.15571 0.01809 0.0
C2642 C 0.173 0.11633 0.04742 0.0
H2643 H 0.19701 0.04048 0.11653 0.0
H2644 H 0.19054 0.07948 0.10529 0.0
H2645 H 0.1704 0.08882 0.07052 0.0
H2646 H 0.19159 0.15879 0.96232 0.0
H2647 H 0.20614 0.13695 0.9937 0.0
H2648 H 0.2222 0.14132 0.03097 0.0
C2649 C 0.2036 0.06993 0.09675 0.0
C2650 C 0.18188 0.10066 0.06261 0.0
C2651 C 0.20744 0.0476 0.10328 0.0
C2652 C 0.18177 0.15815 0.97775 0.0
C2653 C 0.19029 0.14581 0.99587 0.0
C2654 C 0.21071 0.13011 0.03974 0.0
C2655 C 0.21472 0.07893 0.07783 0.0
C2656 C 0.20536 0.09894 0.06592 0.0
C2657 C 0.17836 0.14456 0.01633 0.0
C2658 C 0.18738 0.13067 0.03519 0.0
H2659 H 0.24793 0.03402 0.06463 0.0
H2660 H 0.24118 0.07276 0.05321 0.0
H2661 H 0.23773 0.11365 0.0573 0.0
H2662 H 0.13296 0.17681 0.00187 0.0
H2663 H 0.14784 0.15512 0.03365 0.0
C2664 C 0.50372 0.85099 0.6663 0.0
C2665 C 0.52442 0.83946 0.6676 0.0
C2666 C 0.48587 0.84214 0.65355 0.0
C2667 C 0.46608 0.78862 0.62713 0.0
H2668 H 0.43335 0.82829 0.58678 0.0
C2669 C 0.4304 0.76271 0.54151 0.0
C2670 C 0.41314 0.77585 0.53192 0.0
C2671 C 0.43746 0.76675 0.56366 0.0
C2672 C 0.44183 0.81696 0.59836 0.0
H2673 H 0.54279 0.80994 0.65593 0.0
H2674 H 0.51206 0.79493 0.63347 0.0
H2675 H 0.45949 0.8443 0.61399 0.0
H2676 H 0.38702 0.80048 0.53925 0.0
H2677 H 0.39906 0.80717 0.57798 0.0
H2678 H 0.44918 0.76119 0.61064 0.0
C2679 C 0.5093 0.81044 0.64276 0.0
C2680 C 0.45693 0.82619 0.61393 0.0
C2681 C 0.52704 0.81922 0.65548 0.0
C2682 C 0.40074 0.79044 0.54599 0.0
C2683 C 0.40773 0.79441 0.56815 0.0
C2684 C 0.451 0.77937 0.6115 0.0
C2685 C 0.4884 0.8216 0.64185 0.0
C2686 C 0.46981 0.81209 0.62794 0.0
C2687 C 0.4272 0.78383 0.57661 0.0
C2688 C 0.43925 0.7934 0.59644 0.0
H2689 H 0.50108 0.86649 0.67558 0.0
H2690 H 0.46996 0.85116 0.6532 0.0
H2691 H 0.47538 0.77733 0.63809 0.0
H2692 H 0.44018 0.75116 0.53122 0.0
H2693 H 0.45242 0.75815 0.56969 0.0
C2694 C 0.9941 0.14942 0.1662 0.0
C2695 C 0.97511 0.1621 0.17275 0.0
C2696 C 0.0107 0.15906 0.15226 0.0
C2697 C 0.01657 0.20413 0.11013 0.0
H2698 H 0.08109 0.19624 0.11771 0.0
C2699 C 0.07297 0.23969 0.04311 0.0
C2700 C 0.08695 0.22289 0.03391 0.0
C2701 C 0.06455 0.23734 0.06504 0.0
C2702 C 0.06311 0.19866 0.11544 0.0
H2703 H 0.95922 0.19516 0.17032 0.0
H2704 H 0.98786 0.21162 0.14654 0.0
H2705 H 0.05498 0.17967 0.14528 0.0
H2706 H 0.10665 0.19301 0.04194 0.0
H2707 H 0.09147 0.18856 0.07959 0.0
H2708 H 0.02419 0.2222 0.08006 0.0
C2709 C 0.98983 0.19419 0.15173 0.0
C2710 C 0.0482 0.18905 0.13113 0.0
C2711 C 0.97337 0.18465 0.16545 0.0
C2712 C 0.09535 0.20593 0.04829 0.0
C2713 C 0.0867 0.20341 0.07006 0.0
C2714 C 0.03134 0.21361 0.09453 0.0
C2715 C 0.00851 0.18149 0.14469 0.0
C2716 C 0.02476 0.1916 0.12851 0.0
C2717 C 0.06982 0.21808 0.07796 0.0
C2718 C 0.05481 0.21088 0.09679 0.0
H2719 H 0.99608 0.1321 0.17169 0.0
H2720 H 0.02491 0.14884 0.14699 0.0
H2721 H 0.99858 0.20607 0.10739 0.0
H2722 H 0.06664 0.25333 0.03271 0.0
H2723 H 0.05227 0.24949 0.07105 0.0
C2724 C 0.00875 0.64684 0.34204 0.0
C2725 C 0.01771 0.65995 0.32451 0.0
C2726 C 0.99117 0.65533 0.35541 0.0
C2727 C 0.96456 0.71038 0.37083 0.0
H2728 H 0.92513 0.67098 0.40496 0.0
C2729 C 0.92982 0.73426 0.45706 0.0
C2730 C 0.91214 0.72159 0.4665 0.0
C2731 C 0.93651 0.73054 0.43477 0.0
C2732 C 0.93551 0.68245 0.39522 0.0
H2733 H 0.01443 0.69126 0.30594 0.0
H2734 H 0.98304 0.70547 0.32814 0.0
H2735 H 0.94838 0.65531 0.37525 0.0
H2736 H 0.88508 0.6981 0.45895 0.0
H2737 H 0.89593 0.69258 0.41966 0.0
H2738 H 0.95119 0.73762 0.39031 0.0
C2739 C 0.99014 0.68924 0.33259 0.0
C2740 C 0.94931 0.67328 0.37841 0.0
C2741 C 0.00807 0.68104 0.31972 0.0
C2742 C 0.8991 0.70778 0.45226 0.0
C2743 C 0.90553 0.70438 0.4298 0.0
C2744 C 0.95039 0.71961 0.38726 0.0
C2745 C 0.98183 0.67684 0.35107 0.0
C2746 C 0.9647 0.68696 0.36658 0.0
C2747 C 0.92533 0.71444 0.42129 0.0
C2748 C 0.93636 0.70566 0.40038 0.0
H2749 H 0.01595 0.63051 0.34603 0.0
H2750 H 0.98557 0.64533 0.36964 0.0
H2751 H 0.97618 0.72162 0.36231 0.0
H2752 H 0.94016 0.74514 0.46751 0.0
H2753 H 0.95178 0.73875 0.42901 0.0
C2754 C 0.49246 0.34996 0.834 0.0
C2755 C 0.47234 0.33826 0.82928 0.0
C2756 C 0.5088 0.34038 0.84826 0.0
C2757 C 0.51397 0.29772 0.89336 0.0
H2758 H 0.57824 0.30034 0.88116 0.0
C2759 C 0.572 0.25858 0.95675 0.0
C2760 C 0.5872 0.27471 0.96523 0.0
C2761 C 0.56253 0.26141 0.93533 0.0
C2762 C 0.56033 0.29938 0.88469 0.0
H2763 H 0.45375 0.30725 0.83589 0.0
H2764 H 0.48196 0.29079 0.86013 0.0
H2765 H 0.55159 0.31763 0.8546 0.0
H2766 H 0.6079 0.3036 0.95618 0.0
H2767 H 0.59111 0.30875 0.91924 0.0
H2768 H 0.52235 0.28012 0.92354 0.0
C2769 C 0.48513 0.30743 0.8532 0.0
C2770 C 0.54511 0.30945 0.86961 0.0
C2771 C 0.46893 0.31692 0.83915 0.0
C2772 C 0.59573 0.29122 0.9504 0.0
C2773 C 0.58612 0.29417 0.92908 0.0
C2774 C 0.52906 0.28767 0.90829 0.0
C2775 C 0.5052 0.31901 0.85806 0.0
C2776 C 0.52175 0.30876 0.87387 0.0
C2777 C 0.56811 0.2804 0.92214 0.0
C2778 C 0.55244 0.28843 0.90427 0.0
H2779 H 0.49569 0.36634 0.82655 0.0
H2780 H 0.52407 0.34979 0.85184 0.0
H2781 H 0.49614 0.29727 0.89742 0.0
H2782 H 0.56546 0.2453 0.9675 0.0
H2783 H 0.54926 0.24999 0.93003 0.0
C2784 C 0.54537 0.39991 0.79135 0.0
C2785 C 0.53144 0.41331 0.77758 0.0
C2786 C 0.56795 0.40583 0.79482 0.0
C2787 C 0.61154 0.44975 0.77981 0.0
H2788 H 0.62351 0.44707 0.84409 0.0
C2789 C 0.6798 0.50625 0.81891 0.0
C2790 C 0.67487 0.51594 0.83996 0.0
C2791 C 0.66684 0.48845 0.81058 0.0
C2792 C 0.62038 0.44817 0.82611 0.0
H2793 H 0.53105 0.44153 0.75427 0.0
H2794 H 0.56979 0.45232 0.76083 0.0
H2795 H 0.59332 0.42456 0.82829 0.0
H2796 H 0.65296 0.51443 0.86914 0.0
H2797 H 0.62929 0.48425 0.85413 0.0
H2798 H 0.63705 0.47502 0.77797 0.0
C2799 C 0.56368 0.43711 0.76891 0.0
C2800 C 0.60328 0.43479 0.81688 0.0
C2801 C 0.54126 0.43092 0.76512 0.0
C2802 C 0.65711 0.50714 0.85288 0.0
C2803 C 0.64369 0.48969 0.84427 0.0
C2804 C 0.62828 0.4635 0.78912 0.0
C2805 C 0.57692 0.42549 0.78489 0.0
C2806 C 0.5981 0.43594 0.79369 0.0
C2807 C 0.64815 0.48032 0.82281 0.0
C2808 C 0.63249 0.46343 0.81254 0.0
H2809 H 0.53837 0.38593 0.80087 0.0
H2810 H 0.57787 0.39591 0.80653 0.0
H2811 H 0.60849 0.45074 0.76182 0.0
H2812 H 0.69372 0.51253 0.80882 0.0
H2813 H 0.67133 0.48132 0.79436 0.0
C2814 C 0.04192 0.07216 0.24156 0.0
C2815 C 0.03284 0.08593 0.22451 0.0
C2816 C 0.06376 0.06346 0.23938 0.0
C2817 C 0.11462 0.06163 0.20136 0.0
H2818 H 0.10743 0.99716 0.21016 0.0
C2819 C 0.16653 0.99331 0.15312 0.0
C2820 C 0.17325 0.97427 0.16561 0.0
C2821 C 0.15234 0.00962 0.16282 0.0
C2822 C 0.10996 0.01513 0.20787 0.0
H2823 H 0.04102 0.10473 0.19409 0.0
H2824 H 0.07856 0.08917 0.19002 0.0
H2825 H 0.07955 0.02274 0.22545 0.0
H2826 H 0.1707 0.95788 0.19839 0.0
H2827 H 0.14637 0.98609 0.21504 0.0
H2828 H 0.14477 0.05356 0.18287 0.0
C2829 C 0.06897 0.0848 0.20496 0.0
C2830 C 0.09401 0.0299 0.21684 0.0
C2831 C 0.04726 0.0937 0.20727 0.0
C2832 C 0.16574 0.97213 0.18806 0.0
C2833 C 0.1517 0.98833 0.19769 0.0
C2834 C 0.13063 0.04675 0.19228 0.0
C2835 C 0.07679 0.06828 0.22007 0.0
C2836 C 0.09592 0.05333 0.2135 0.0
C2837 C 0.14461 0.00714 0.18517 0.0
C2838 C 0.12831 0.02331 0.19526 0.0
H2839 H 0.03148 0.06627 0.25538 0.0
H2840 H 0.06966 0.05145 0.25183 0.0
H2841 H 0.11668 0.07957 0.19855 0.0
H2842 H 0.17214 0.99562 0.13589 0.0
H2843 H 0.14702 0.02387 0.15268 0.0
C2844 C 0.45843 0.92441 0.73862 0.0
C2845 C 0.46814 0.91158 0.7212 0.0
C2846 C 0.43632 0.93238 0.73651 0.0
C2847 C 0.38634 0.93456 0.69732 0.0
H2848 H 0.39276 0.99881 0.70808 0.0
C2849 C 0.33615 0.00453 0.64932 0.0
C2850 C 0.32919 0.0232 0.66225 0.0
C2851 C 0.34976 0.98771 0.65899 0.0
C2852 C 0.39043 0.98089 0.70523 0.0
H2853 H 0.46091 0.89336 0.69019 0.0
H2854 H 0.42296 0.90781 0.68616 0.0
H2855 H 0.42027 0.97307 0.72356 0.0
H2856 H 0.33033 0.03818 0.69579 0.0
H2857 H 0.35354 0.00911 0.71233 0.0
H2858 H 0.35678 0.94294 0.67804 0.0
C2859 C 0.43221 0.912 0.70135 0.0
C2860 C 0.40616 0.96602 0.71432 0.0
C2861 C 0.45417 0.90379 0.70362 0.0
C2862 C 0.33563 0.02433 0.6851 0.0
C2863 C 0.34899 0.00761 0.69468 0.0
C2864 C 0.37053 0.94957 0.6881 0.0
C2865 C 0.42371 0.92781 0.71686 0.0
C2866 C 0.40456 0.94268 0.71029 0.0
C2867 C 0.35655 0.9893 0.68172 0.0
C2868 C 0.37258 0.97292 0.69181 0.0
H2869 H 0.46853 0.93022 0.75272 0.0
H2870 H 0.42988 0.9438 0.74926 0.0
H2871 H 0.38454 0.91669 0.69393 0.0
H2872 H 0.33131 0.00302 0.63177 0.0
H2873 H 0.35544 0.97382 0.64854 0.0
C2874 C 0.95534 0.56832 0.26346 0.0
C2875 C 0.96515 0.58628 0.27542 0.0
C2876 C 0.93297 0.56212 0.26761 0.0
C2877 C 0.88509 0.54987 0.27933 0.0
H2878 H 0.87463 0.55285 0.34389 0.0
C2879 C 0.8168 0.49475 0.31987 0.0
C2880 C 0.82231 0.48444 0.34047 0.0
C2881 C 0.82976 0.51252 0.3115 0.0
C2882 C 0.87732 0.55172 0.32585 0.0
H2883 H 0.95826 0.6142 0.29807 0.0
H2884 H 0.91888 0.60411 0.30442 0.0
H2885 H 0.9046 0.57517 0.32723 0.0
H2886 H 0.84508 0.48501 0.36899 0.0
H2887 H 0.86872 0.51529 0.35386 0.0
H2888 H 0.85926 0.52488 0.27821 0.0
C2889 C 0.92874 0.59401 0.2928 0.0
C2890 C 0.89429 0.56495 0.31614 0.0
C2891 C 0.95125 0.59998 0.28893 0.0
C2892 C 0.84053 0.49275 0.35306 0.0
C2893 C 0.85393 0.51022 0.34439 0.0
C2894 C 0.86841 0.53635 0.28909 0.0
C2895 C 0.91984 0.57406 0.28346 0.0
C2896 C 0.89888 0.56368 0.29282 0.0
C2897 C 0.84899 0.52002 0.32323 0.0
C2898 C 0.86471 0.53661 0.31259 0.0
H2899 H 0.96555 0.55746 0.25286 0.0
H2900 H 0.92684 0.54669 0.25997 0.0
H2901 H 0.88779 0.54874 0.26128 0.0
H2902 H 0.80251 0.48888 0.31006 0.0
H2903 H 0.82491 0.52004 0.29557 0.0
C2904 C 0.21608 0.0906 0.5496 0.0
C2905 C 0.23138 0.09688 0.56663 0.0
C2906 C 0.19881 0.10514 0.543 0.0
C2907 C 0.18445 0.16556 0.54242 0.0
H2908 H 0.12847 0.14275 0.51715 0.0
C2909 C 0.12487 0.19346 0.46672 0.0
C2910 C 0.12172 0.21644 0.47167 0.0
C2911 C 0.13246 0.17861 0.48338 0.0
C2912 C 0.14393 0.14937 0.52436 0.0
H2913 H 0.24012 0.12338 0.59037 0.0
H2914 H 0.20948 0.14852 0.57933 0.0
H2915 H 0.15332 0.11728 0.53798 0.0
H2916 H 0.12231 0.24151 0.49845 0.0
H2917 H 0.13589 0.21556 0.52741 0.0
H2918 H 0.17521 0.19753 0.52843 0.0
C2919 C 0.21111 0.13241 0.57083 0.0
C2920 C 0.15825 0.1348 0.53615 0.0
C2921 C 0.2286 0.1179 0.57731 0.0
C2922 C 0.12465 0.22391 0.49404 0.0
C2923 C 0.13252 0.20911 0.51062 0.0
C2924 C 0.16999 0.18017 0.53091 0.0
C2925 C 0.19619 0.12633 0.55336 0.0
C2926 C 0.17911 0.14252 0.54457 0.0
C2927 C 0.13724 0.18652 0.50523 0.0
C2928 C 0.14998 0.17204 0.52111 0.0
H2929 H 0.21765 0.07457 0.54094 0.0
H2930 H 0.18802 0.10001 0.52917 0.0
H2931 H 0.20043 0.17212 0.54841 0.0
H2932 H 0.12257 0.18714 0.44971 0.0
H2933 H 0.13606 0.16129 0.47873 0.0
C2934 C 0.28336 0.89374 0.0774 0.0
C2935 C 0.26682 0.90283 0.06309 0.0
C2936 C 0.30121 0.88107 0.06845 0.0
C2937 C 0.32918 0.86854 0.01314 0.0
H2938 H 0.35418 0.81761 0.04555 0.0
C2939 C 0.38571 0.80759 0.96548 0.0
C2940 C 0.38164 0.7847 0.96986 0.0
C2941 C 0.37857 0.82407 0.98079 0.0
C2942 C 0.3473 0.83165 0.03611 0.0
H2943 H 0.25522 0.90509 0.02853 0.0
H2944 H 0.28518 0.88187 0.01308 0.0
H2945 H 0.32609 0.84125 0.06371 0.0
H2946 H 0.36855 0.76085 0.99433 0.0
H2947 H 0.35469 0.78926 0.02009 0.0
H2948 H 0.34841 0.85793 0.98484 0.0
C2949 C 0.28533 0.88534 0.03103 0.0
C2950 C 0.33137 0.8455 0.04673 0.0
C2951 C 0.26792 0.89841 0.03989 0.0
C2952 C 0.3719 0.77844 0.99053 0.0
C2953 C 0.36405 0.79489 0.00545 0.0
C2954 C 0.34453 0.85438 0.00233 0.0
C2955 C 0.30256 0.8769 0.04507 0.0
C2956 C 0.32154 0.86371 0.03509 0.0
C2957 C 0.36634 0.81801 0.00032 0.0
C2958 C 0.35336 0.83529 0.01338 0.0
H2959 H 0.28308 0.89713 0.09532 0.0
H2960 H 0.31419 0.87505 0.07981 0.0
H2961 H 0.32273 0.88291 0.00387 0.0
H2962 H 0.39357 0.8128 0.9498 0.0
H2963 H 0.38165 0.8416 0.97664 0.0
C2964 C 0.63138 0.30703 0.53946 0.0
C2965 C 0.62302 0.28571 0.53329 0.0
C2966 C 0.63828 0.32239 0.52301 0.0
C2967 C 0.65973 0.32252 0.46463 0.0
H2968 H 0.66294 0.38673 0.47654 0.0
C2969 C 0.70672 0.41061 0.43306 0.0
C2970 C 0.72811 0.40148 0.42864 0.0
C2971 C 0.68902 0.39671 0.44003 0.0
C2972 C 0.66188 0.36895 0.47245 0.0
H2973 H 0.61363 0.26459 0.50485 0.0
H2974 H 0.6249 0.29175 0.47612 0.0
H2975 H 0.63856 0.36326 0.49936 0.0
H2976 H 0.74768 0.37073 0.42668 0.0
H2977 H 0.71728 0.34647 0.44019 0.0
H2978 H 0.68274 0.3283 0.43741 0.0
C2979 C 0.6268 0.29631 0.49373 0.0
C2980 C 0.64809 0.35537 0.48589 0.0
C2981 C 0.62011 0.2808 0.51023 0.0
C2982 C 0.73127 0.37809 0.43005 0.0
C2983 C 0.71373 0.36421 0.43764 0.0
C2984 C 0.67322 0.33618 0.45088 0.0
C2985 C 0.63672 0.31698 0.49992 0.0
C2986 C 0.64758 0.33186 0.4828 0.0
C2987 C 0.69254 0.37345 0.44342 0.0
C2988 C 0.67519 0.35946 0.45518 0.0
H2989 H 0.63382 0.31145 0.55704 0.0
H2990 H 0.64607 0.33797 0.52855 0.0
H2991 H 0.65987 0.30447 0.46171 0.0
H2992 H 0.70382 0.42862 0.43161 0.0
H2993 H 0.6728 0.40438 0.44351 0.0
C2994 C 0.77045 0.61802 0.92213 0.0
C2995 C 0.76702 0.59742 0.93342 0.0
C2996 C 0.78815 0.63237 0.92852 0.0
C2997 C 0.84041 0.63435 0.96419 0.0
H2998 H 0.82446 0.6974 0.97125 0.0
C2999 C 0.87493 0.72273 0.00684 0.0
C3000 C 0.8769 0.71548 0.02939 0.0
C3001 C 0.86709 0.708 0.99019 0.0
C3002 C 0.82939 0.67994 0.96897 0.0
H3003 H 0.77987 0.57563 0.96001 0.0
H3004 H 0.80979 0.60069 0.9715 0.0
H3005 H 0.79933 0.67238 0.95055 0.0
H3006 H 0.87418 0.68659 0.05172 0.0
H3007 H 0.86072 0.66079 0.02253 0.0
H3008 H 0.8697 0.64178 0.98414 0.0
C3009 C 0.79937 0.60566 0.95733 0.0
C3010 C 0.815 0.66557 0.95703 0.0
C3011 C 0.7819 0.59134 0.95088 0.0
C3012 C 0.87268 0.69272 0.03455 0.0
C3013 C 0.8651 0.67792 0.01782 0.0
C3014 C 0.85462 0.64866 0.97642 0.0
C3015 C 0.80266 0.62644 0.9464 0.0
C3016 C 0.81994 0.64243 0.95517 0.0
C3017 C 0.8614 0.68568 0.9957 0.0
C3018 C 0.84888 0.67143 0.97947 0.0
H3019 H 0.75929 0.62327 0.90866 0.0
H3020 H 0.79029 0.6482 0.91964 0.0
H3021 H 0.84504 0.61674 0.96257 0.0
H3022 H 0.87806 0.74015 0.00224 0.0
H3023 H 0.86453 0.71433 0.97322 0.0
C3024 C 0.4667 0.12658 0.19448 0.0
C3025 C 0.47145 0.12313 0.21746 0.0
C3026 C 0.48341 0.13469 0.17992 0.0
C3027 C 0.52488 0.14601 0.15123 0.0
H3028 H 0.54921 0.20251 0.17375 0.0
C3029 C 0.55124 0.2172 0.0921 0.0
C3030 C 0.56856 0.2323 0.0981 0.0
C3031 C 0.54439 0.20024 0.10687 0.0
C3032 C 0.54312 0.18652 0.1673 0.0
H3033 H 0.49793 0.12401 0.24283 0.0
H3034 H 0.52693 0.13848 0.21741 0.0
H3035 H 0.52839 0.17775 0.19912 0.0
H3036 H 0.59266 0.24095 0.12429 0.0
H3037 H 0.58092 0.21089 0.15005 0.0
H3038 H 0.53923 0.15488 0.11932 0.0
C3039 C 0.51027 0.13493 0.21074 0.0
C3040 C 0.53113 0.17235 0.18185 0.0
C3041 C 0.49366 0.12653 0.22523 0.0
C3042 C 0.57929 0.22961 0.1191 0.0
C3043 C 0.57246 0.21246 0.13392 0.0
C3044 C 0.53713 0.16003 0.13674 0.0
C3045 C 0.50511 0.13972 0.18812 0.0
C3046 C 0.52124 0.15235 0.17376 0.0
C3047 C 0.55473 0.19772 0.12805 0.0
C3048 C 0.54563 0.18089 0.14437 0.0
H3049 H 0.44982 0.124 0.18794 0.0
H3050 H 0.47894 0.13835 0.16257 0.0
H3051 H 0.51766 0.13054 0.14466 0.0
H3052 H 0.54254 0.21868 0.07609 0.0
H3053 H 0.53037 0.18961 0.1019 0.0
C3054 C 0.94756 0.78494 0.58799 0.0
C3055 C 0.93354 0.76789 0.59674 0.0
C3056 C 0.956 0.80185 0.60193 0.0
C3057 C 0.95169 0.8307 0.65652 0.0
H3058 H 0.01696 0.83301 0.65168 0.0
C3059 C 0.00994 0.86928 0.72479 0.0
C3060 C 0.03143 0.87695 0.71828 0.0
C3061 C 0.99505 0.86049 0.70874 0.0
C3062 C 0.99872 0.83314 0.65297 0.0
H3063 H 0.91603 0.7562 0.62671 0.0
H3064 H 0.93111 0.78596 0.65134 0.0
H3065 H 0.99571 0.80907 0.62634 0.0
H3066 H 0.05323 0.88395 0.68975 0.0
H3067 H 0.02685 0.86976 0.66158 0.0
H3068 H 0.9548 0.85488 0.68328 0.0
C3069 C 0.93544 0.78607 0.63357 0.0
C3070 C 0.98654 0.81923 0.6385 0.0
C3071 C 0.92692 0.76902 0.61952 0.0
C3072 C 0.03692 0.87773 0.69526 0.0
C3073 C 0.02185 0.86941 0.67917 0.0
C3074 C 0.96392 0.84495 0.67093 0.0
C3075 C 0.95066 0.80217 0.62499 0.0
C3076 C 0.96296 0.81774 0.64017 0.0
C3077 C 0.00123 0.85959 0.68582 0.0
C3078 C 0.98765 0.84622 0.66942 0.0
H3079 H 0.95263 0.78491 0.57041 0.0
H3080 H 0.96737 0.8143 0.59481 0.0
H3081 H 0.93349 0.82989 0.65806 0.0
H3082 H 0.00523 0.86853 0.74246 0.0
H3083 H 0.97939 0.85306 0.71457 0.0
C3084 C 0.99608 0.37121 0.77373 0.0
C3085 C 0.97422 0.37479 0.78231 0.0
C3086 C 0.01338 0.36373 0.7879 0.0
C3087 C 0.03509 0.32751 0.81741 0.0
H3088 H 0.0445 0.34646 0.87934 0.0
C3089 C 0.05357 0.28375 0.9076 0.0
C3090 C 0.07001 0.26772 0.90162 0.0
C3091 C 0.0477 0.30101 0.89276 0.0
C3092 C 0.04207 0.34094 0.86208 0.0
H3093 H 0.95386 0.37529 0.81277 0.0
H3094 H 0.98409 0.3624 0.83748 0.0
H3095 H 0.02325 0.37067 0.85361 0.0
H3096 H 0.09364 0.25772 0.87545 0.0
H3097 H 0.08373 0.28826 0.84968 0.0
H3098 H 0.05236 0.29711 0.8261 0.0
C3099 C 0.98782 0.36526 0.81981 0.0
C3100 C 0.03003 0.35487 0.84736 0.0
C3101 C 0.97046 0.37247 0.80562 0.0
C3102 C 0.08097 0.26981 0.88066 0.0
C3103 C 0.07517 0.28724 0.86581 0.0
C3104 C 0.04689 0.31345 0.83218 0.0
C3105 C 0.0092 0.36004 0.81093 0.0
C3106 C 0.02579 0.34792 0.82511 0.0
C3107 C 0.0582 0.30284 0.87156 0.0
C3108 C 0.04978 0.31962 0.85492 0.0
H3109 H 0.99957 0.37292 0.75586 0.0
H3110 H 0.02977 0.35996 0.7807 0.0
H3111 H 0.03187 0.32162 0.80039 0.0
H3112 H 0.04478 0.28275 0.92362 0.0
H3113 H 0.03423 0.31238 0.89763 0.0
C3114 C 0.50481 0.62079 0.2759 0.0
C3115 C 0.52727 0.61856 0.28337 0.0
C3116 C 0.48803 0.62838 0.29061 0.0
C3117 C 0.46709 0.66602 0.31874 0.0
H3118 H 0.46029 0.65069 0.38198 0.0
C3119 C 0.44907 0.71419 0.40713 0.0
C3120 C 0.43204 0.7294 0.40065 0.0
C3121 C 0.45539 0.69648 0.39301 0.0
C3122 C 0.46203 0.65523 0.36436 0.0
H3123 H 0.54919 0.62034 0.31264 0.0
H3124 H 0.51981 0.63341 0.33835 0.0
H3125 H 0.4814 0.62552 0.35704 0.0
H3126 H 0.40796 0.73749 0.37427 0.0
H3127 H 0.41856 0.70609 0.34984 0.0
H3128 H 0.44928 0.69645 0.32615 0.0
C3129 C 0.51526 0.62943 0.32108 0.0
C3130 C 0.47398 0.64073 0.35009 0.0
C3131 C 0.53212 0.62207 0.30632 0.0
C3132 C 0.42104 0.72606 0.37989 0.0
C3133 C 0.42726 0.70813 0.36578 0.0
C3134 C 0.45543 0.68067 0.33304 0.0
C3135 C 0.4933 0.63358 0.31311 0.0
C3136 C 0.47717 0.64633 0.3273 0.0
C3137 C 0.44475 0.69331 0.37205 0.0
C3138 C 0.45341 0.67585 0.3562 0.0
H3139 H 0.50044 0.61817 0.25835 0.0
H3140 H 0.47117 0.63126 0.28412 0.0
H3141 H 0.46951 0.67088 0.30127 0.0
H3142 H 0.45795 0.71616 0.42299 0.0
H3143 H 0.46926 0.6858 0.39826 0.0
C3144 C 0.11964 0.5708 0.23004 0.0
C3145 C 0.09617 0.57082 0.22716 0.0
C3146 C 0.13372 0.56341 0.21261 0.0
C3147 C 0.16216 0.55024 0.17256 0.0
H3148 H 0.13735 0.49954 0.13945 0.0
C3149 C 0.22003 0.49085 0.12173 0.0
C3150 C 0.21558 0.46774 0.12497 0.0
C3151 C 0.20417 0.50713 0.12818 0.0
C3152 C 0.14462 0.51362 0.14858 0.0
H3153 H 0.06895 0.56551 0.20337 0.0
H3154 H 0.09346 0.55397 0.17244 0.0
H3155 H 0.11282 0.52206 0.16293 0.0
H3156 H 0.19049 0.44364 0.13658 0.0
H3157 H 0.16347 0.47172 0.14849 0.0
H3158 H 0.1944 0.54028 0.15981 0.0
C3159 C 0.10112 0.55837 0.18844 0.0
C3160 C 0.1304 0.52691 0.16182 0.0
C3161 C 0.08704 0.56512 0.20609 0.0
C3162 C 0.19455 0.46127 0.13383 0.0
C3163 C 0.17887 0.47747 0.14049 0.0
C3164 C 0.1765 0.5366 0.15967 0.0
C3165 C 0.12459 0.55646 0.19174 0.0
C3166 C 0.13908 0.54496 0.17463 0.0
C3167 C 0.18362 0.50064 0.13819 0.0
C3168 C 0.16801 0.51761 0.14819 0.0
H3169 H 0.12702 0.57519 0.2462 0.0
H3170 H 0.1516 0.56198 0.21605 0.0
H3171 H 0.16942 0.56437 0.1816 0.0
H3172 H 0.23603 0.49644 0.11491 0.0
H3173 H 0.20826 0.52479 0.12581 0.0
C3174 C 0.6193 0.91889 0.77328 0.0
C3175 C 0.59855 0.92996 0.77003 0.0
C3176 C 0.63363 0.92527 0.79098 0.0
C3177 C 0.63571 0.96038 0.84362 0.0
H3178 H 0.69854 0.96822 0.82708 0.0
C3179 C 0.72438 0.00344 0.87745 0.0
C3180 C 0.71667 0.02571 0.88053 0.0
C3181 C 0.70977 0.98671 0.86949 0.0
C3182 C 0.68115 0.96571 0.83219 0.0
H3183 H 0.57641 0.95603 0.78331 0.0
H3184 H 0.60145 0.96749 0.81337 0.0
H3185 H 0.6734 0.94777 0.80189 0.0
H3186 H 0.68713 0.04734 0.87967 0.0
H3187 H 0.66162 0.01807 0.86598 0.0
H3188 H 0.64333 0.97976 0.87325 0.0
C3189 C 0.60656 0.95353 0.80272 0.0
C3190 C 0.66671 0.95392 0.81775 0.0
C3191 C 0.59225 0.9471 0.78521 0.0
C3192 C 0.69363 0.0304 0.87732 0.0
C3193 C 0.67899 0.0136 0.8696 0.0
C3194 C 0.65011 0.97241 0.85793 0.0
C3195 C 0.62757 0.94292 0.80572 0.0
C3196 C 0.64363 0.95176 0.82292 0.0
C3197 C 0.68713 0.99184 0.86474 0.0
C3198 C 0.67281 0.97575 0.85202 0.0
H3199 H 0.62472 0.90565 0.76191 0.0
H3200 H 0.6496 0.91658 0.79292 0.0
H3201 H 0.61815 0.95855 0.84841 0.0
H3202 H 0.74201 0.9992 0.87974 0.0
H3203 H 0.71642 0.97001 0.86608 0.0
C3204 C 0.80587 0.96627 0.37749 0.0
C3205 C 0.78294 0.97136 0.38088 0.0
C3206 C 0.82083 0.98297 0.37014 0.0
C3207 C 0.85028 0.0239 0.35866 0.0
H3208 H 0.82653 0.04883 0.30297 0.0
C3209 C 0.90763 0.04909 0.2854 0.0
C3210 C 0.90121 0.06626 0.27031 0.0
C3211 C 0.89343 0.0426 0.30299 0.0
C3212 C 0.83338 0.04261 0.31873 0.0
H3213 H 0.75819 0.99845 0.38114 0.0
H3214 H 0.78432 0.02742 0.36809 0.0
H3215 H 0.80149 0.02878 0.32852 0.0
H3216 H 0.87481 0.09034 0.26228 0.0
H3217 H 0.85027 0.07948 0.2935 0.0
H3218 H 0.88228 0.03736 0.34871 0.0
C3219 C 0.79063 0.01051 0.37103 0.0
C3220 C 0.81898 0.03106 0.33339 0.0
C3221 C 0.77572 0.99389 0.3786 0.0
C3222 C 0.8804 0.07717 0.27364 0.0
C3223 C 0.86623 0.0708 0.29145 0.0
C3224 C 0.86464 0.03575 0.34416 0.0
C3225 C 0.81309 0.00499 0.3659 0.0
C3226 C 0.82745 0.02093 0.35308 0.0
C3227 C 0.87245 0.05321 0.30617 0.0
C3228 C 0.85655 0.04447 0.32357 0.0
H3229 H 0.812 0.94913 0.37926 0.0
H3230 H 0.83806 0.97823 0.36623 0.0
H3231 H 0.85716 0.01643 0.37387 0.0
H3232 H 0.92352 0.04025 0.28343 0.0
H3233 H 0.89865 0.02866 0.3136 0.0
C3234 C 0.30607 0.53391 0.62324 0.0
C3235 C 0.28301 0.5292 0.62026 0.0
C3236 C 0.32091 0.5169 0.63 0.0
C3237 C 0.3501 0.47555 0.64003 0.0
H3238 H 0.3272 0.44943 0.69555 0.0
C3239 C 0.38109 0.42099 0.72379 0.0
C3240 C 0.40174 0.43216 0.72733 0.0
C3241 C 0.36694 0.42735 0.70599 0.0
C3242 C 0.33379 0.45597 0.6798 0.0
H3243 H 0.25779 0.50254 0.62029 0.0
H3244 H 0.28373 0.47297 0.63229 0.0
H3245 H 0.30183 0.47017 0.67098 0.0
H3246 H 0.42392 0.45841 0.71447 0.0
H3247 H 0.39904 0.46999 0.68427 0.0
H3248 H 0.38222 0.4618 0.64912 0.0
C3249 C 0.29025 0.48983 0.62947 0.0
C3250 C 0.31921 0.46793 0.66571 0.0
C3251 C 0.27544 0.50679 0.62251 0.0
C3252 C 0.40813 0.44943 0.71234 0.0
C3253 C 0.39394 0.4559 0.69475 0.0
C3254 C 0.36466 0.46333 0.65399 0.0
C3255 C 0.31293 0.49492 0.63406 0.0
C3256 C 0.32739 0.47852 0.64613 0.0
C3257 C 0.37301 0.44518 0.69151 0.0
C3258 C 0.35687 0.45418 0.67451 0.0
H3259 H 0.31246 0.55096 0.62143 0.0
H3260 H 0.33831 0.52132 0.63354 0.0
H3261 H 0.35675 0.48336 0.62488 0.0
H3262 H 0.37555 0.40771 0.73505 0.0
H3263 H 0.35105 0.41855 0.70386 0.0
C3264 C 0.87796 0.80496 0.53488 0.0
C3265 C 0.87727 0.78181 0.52996 0.0
C3266 C 0.86924 0.82063 0.51961 0.0
C3267 C 0.84368 0.82761 0.46206 0.0
H3268 H 0.80778 0.87216 0.49388 0.0
C3269 C 0.76759 0.87922 0.42521 0.0
C3270 C 0.76659 0.90197 0.43196 0.0
C3271 C 0.78457 0.86503 0.43366 0.0
C3272 C 0.81792 0.86 0.4847 0.0
H3273 H 0.86864 0.75698 0.50445 0.0
H3274 H 0.85253 0.78417 0.47823 0.0
H3275 H 0.83214 0.84719 0.51506 0.0
H3276 H 0.78383 0.92815 0.45105 0.0
H3277 H 0.81312 0.90356 0.46558 0.0
H3278 H 0.82826 0.84018 0.43168 0.0
C3279 C 0.86016 0.79039 0.49363 0.0
C3280 C 0.83208 0.84575 0.49683 0.0
C3281 C 0.86934 0.77475 0.50873 0.0
C3282 C 0.78374 0.91058 0.44594 0.0
C3283 C 0.80059 0.89653 0.45425 0.0
C3284 C 0.8292 0.84183 0.44987 0.0
C3285 C 0.8591 0.81343 0.49934 0.0
C3286 C 0.84523 0.82939 0.48575 0.0
C3287 C 0.80075 0.87348 0.44887 0.0
C3288 C 0.81628 0.85821 0.46113 0.0
H3289 H 0.88434 0.8109 0.55097 0.0
H3290 H 0.86947 0.83832 0.52421 0.0
H3291 H 0.85362 0.81527 0.45295 0.0
H3292 H 0.7547 0.87217 0.41433 0.0
H3293 H 0.78435 0.84728 0.42926 0.0
C3294 C 0.62362 0.2228 0.00554 0.0
C3295 C 0.62131 0.21574 0.02811 0.0
C3296 C 0.63129 0.20781 0.98904 0.0
C3297 C 0.66865 0.17927 0.96819 0.0
H3298 H 0.65332 0.11587 0.96301 0.0
C3299 C 0.71664 0.09064 0.9513 0.0
C3300 C 0.73136 0.0966 0.93364 0.0
C3301 C 0.6991 0.10492 0.95769 0.0
C3302 C 0.65785 0.13354 0.96429 0.0
H3303 H 0.62317 0.18689 0.0506 0.0
H3304 H 0.6364 0.1607 0.02173 0.0
H3305 H 0.62844 0.14122 0.98397 0.0
H3306 H 0.73874 0.1222 0.9085 0.0
H3307 H 0.70765 0.147 0.91935 0.0
H3308 H 0.69879 0.17152 0.94997 0.0
C3309 C 0.63239 0.17786 0.01685 0.0
C3310 C 0.64352 0.14803 0.97617 0.0
C3311 C 0.62493 0.1929 0.03341 0.0
C3312 C 0.7277 0.11702 0.92212 0.0
C3313 C 0.70995 0.13131 0.92844 0.0
C3314 C 0.68313 0.16475 0.95657 0.0
C3315 C 0.63652 0.18542 0.99473 0.0
C3316 C 0.64914 0.17089 0.97878 0.0
C3317 C 0.69561 0.12554 0.94651 0.0
C3318 C 0.67829 0.14156 0.95513 0.0
H3319 H 0.62097 0.24026 0.00082 0.0
H3320 H 0.63415 0.21399 0.97206 0.0
H3321 H 0.67353 0.1968 0.97015 0.0
H3322 H 0.71886 0.07505 0.96061 0.0
H3323 H 0.68878 0.10008 0.97199 0.0
C3324 C 0.29191 0.58866 0.56546 0.0
C3325 C 0.27078 0.5983 0.57008 0.0
C3326 C 0.31007 0.60223 0.55899 0.0
C3327 C 0.33882 0.63023 0.52816 0.0
H3328 H 0.34105 0.69456 0.53974 0.0
C3329 C 0.36961 0.69226 0.46185 0.0
C3330 C 0.37779 0.71368 0.46795 0.0
C3331 C 0.36278 0.67692 0.47831 0.0
C3332 C 0.34115 0.67656 0.5366 0.0
H3333 H 0.25214 0.62957 0.57275 0.0
H3334 H 0.28322 0.65324 0.55997 0.0
H3335 H 0.31775 0.67059 0.56342 0.0
H3336 H 0.38688 0.73504 0.4963 0.0
H3337 H 0.37563 0.70788 0.52514 0.0
H3338 H 0.36266 0.63609 0.50177 0.0
C3339 C 0.28629 0.63535 0.56206 0.0
C3340 C 0.32738 0.6628 0.54997 0.0
C3341 C 0.26832 0.6218 0.56918 0.0
C3342 C 0.3805 0.71875 0.49099 0.0
C3343 C 0.37386 0.70324 0.50754 0.0
C3344 C 0.35294 0.64388 0.51516 0.0
C3345 C 0.30729 0.62569 0.55628 0.0
C3346 C 0.3252 0.6396 0.54526 0.0
C3347 C 0.36422 0.6824 0.50138 0.0
C3348 C 0.35344 0.66738 0.51845 0.0
H3349 H 0.29431 0.57055 0.56657 0.0
H3350 H 0.32609 0.59418 0.55551 0.0
H3351 H 0.33771 0.61253 0.52378 0.0
H3352 H 0.36733 0.68769 0.44429 0.0
H3353 H 0.35516 0.66126 0.47276 0.0
C3354 C 0.20597 0.41108 0.06694 0.0
C3355 C 0.22742 0.40207 0.07129 0.0
C3356 C 0.18816 0.39698 0.06065 0.0
C3357 C 0.17249 0.33598 0.05173 0.0
H3358 H 0.13643 0.36161 0.00355 0.0
C3359 C 0.13066 0.30509 0.96393 0.0
C3360 C 0.12284 0.28358 0.97019 0.0
C3361 C 0.13727 0.32065 0.98027 0.0
C3362 C 0.14637 0.35412 0.01694 0.0
H3363 H 0.24699 0.37133 0.07369 0.0
H3364 H 0.21648 0.34678 0.06129 0.0
H3365 H 0.1608 0.38589 0.02544 0.0
H3366 H 0.11425 0.26224 0.99871 0.0
H3367 H 0.12511 0.28977 0.02733 0.0
H3368 H 0.1596 0.30384 0.04163 0.0
C3369 C 0.21292 0.36457 0.06343 0.0
C3370 C 0.16015 0.36818 0.02987 0.0
C3371 C 0.23055 0.37864 0.07035 0.0
C3372 C 0.12031 0.2786 0.99327 0.0
C3373 C 0.12674 0.29433 0.0097 0.0
C3374 C 0.15904 0.32183 0.03845 0.0
C3375 C 0.1916 0.37362 0.05787 0.0
C3376 C 0.17404 0.35922 0.04695 0.0
C3377 C 0.13598 0.31529 0.00338 0.0
C3378 C 0.14647 0.33064 0.02032 0.0
H3379 H 0.20305 0.42911 0.06806 0.0
H3380 H 0.17187 0.40456 0.0573 0.0
H3381 H 0.18238 0.3285 0.06515 0.0
H3382 H 0.13279 0.30959 0.94633 0.0
H3383 H 0.1446 0.33641 0.97461 0.0
C3384 C 0.5319 0.87312 0.80433 0.0
C3385 C 0.52754 0.87629 0.78124 0.0
C3386 C 0.51481 0.86571 0.81878 0.0
C3387 C 0.47333 0.85464 0.84721 0.0
H3388 H 0.44921 0.79825 0.82422 0.0
C3389 C 0.42092 0.76973 0.8788 0.0
C3390 C 0.43226 0.76665 0.89943 0.0
C3391 C 0.42706 0.78735 0.86428 0.0
C3392 C 0.45522 0.81421 0.83081 0.0
H3393 H 0.50139 0.8758 0.75552 0.0
H3394 H 0.47167 0.86253 0.7808 0.0
H3395 H 0.46944 0.8235 0.79894 0.0
H3396 H 0.45868 0.78002 0.92109 0.0
H3397 H 0.46975 0.80996 0.89568 0.0
H3398 H 0.45966 0.84509 0.87924 0.0
C3399 C 0.48832 0.86578 0.78763 0.0
C3400 C 0.46685 0.8287 0.81629 0.0
C3401 C 0.50534 0.87347 0.77322 0.0
C3402 C 0.44956 0.78179 0.90534 0.0
C3403 C 0.45574 0.79924 0.89084 0.0
C3404 C 0.46148 0.84028 0.86169 0.0
C3405 C 0.49311 0.86111 0.81037 0.0
C3406 C 0.47676 0.8486 0.82456 0.0
C3407 C 0.44473 0.80217 0.87004 0.0
C3408 C 0.45312 0.81944 0.85387 0.0
H3409 H 0.54876 0.87532 0.81105 0.0
H3410 H 0.51902 0.86211 0.83621 0.0
H3411 H 0.48059 0.87003 0.85392 0.0
H3412 H 0.4076 0.75833 0.87364 0.0
H3413 H 0.41813 0.7892 0.84843 0.0
C3414 C 0.96215 0.12972 0.30766 0.0
C3415 C 0.96827 0.12143 0.2863 0.0
C3416 C 0.97858 0.13688 0.32289 0.0
C3417 C 0.03671 0.15903 0.32299 0.0
H3418 H 0.02436 0.16215 0.38712 0.0
C3419 C 0.06644 0.20739 0.41106 0.0
C3420 C 0.07093 0.22864 0.40164 0.0
C3421 C 0.05987 0.18941 0.39732 0.0
C3422 C 0.02861 0.16114 0.36938 0.0
H3423 H 0.99667 0.11254 0.26491 0.0
H3424 H 0.02546 0.12434 0.29186 0.0
H3425 H 0.00219 0.1373 0.36362 0.0
H3426 H 0.07331 0.24769 0.3706 0.0
H3427 H 0.06039 0.21688 0.34664 0.0
H3428 H 0.06353 0.18246 0.32886 0.0
C3429 C 0.00786 0.12594 0.29655 0.0
C3430 C 0.01551 0.14707 0.35577 0.0
C3431 C 0.99134 0.11898 0.28116 0.0
C3432 C 0.06988 0.2314 0.37818 0.0
C3433 C 0.06264 0.21359 0.36447 0.0
C3434 C 0.05016 0.17277 0.33671 0.0
C3435 C 0.00165 0.13566 0.31734 0.0
C3436 C 0.01867 0.14664 0.33226 0.0
C3437 C 0.05691 0.19249 0.37393 0.0
C3438 C 0.04566 0.17477 0.35996 0.0
H3439 H 0.94457 0.13183 0.31227 0.0
H3440 H 0.973 0.14455 0.33851 0.0
H3441 H 0.03972 0.1592 0.30496 0.0
H3442 H 0.06763 0.2048 0.42913 0.0
H3443 H 0.05644 0.17328 0.40522 0.0
C3444 C 0.00446 0.61908 0.21947 0.0
C3445 C 0.02738 0.62163 0.21373 0.0
C3446 C 0.98754 0.62528 0.20421 0.0
C3447 C 0.97831 0.64457 0.14467 0.0
H3448 H 0.93195 0.68181 0.17198 0.0
C3449 C 0.92773 0.73068 0.12226 0.0
C3450 C 0.92619 0.72772 0.09886 0.0
C3451 C 0.93399 0.7126 0.13607 0.0
C3452 C 0.94482 0.67155 0.16403 0.0
H3453 H 0.05041 0.63121 0.18687 0.0
H3454 H 0.02125 0.64263 0.1608 0.0
H3455 H 0.95575 0.65846 0.19579 0.0
H3456 H 0.92744 0.7034 0.0716 0.0
H3457 H 0.93697 0.67151 0.09572 0.0
H3458 H 0.96907 0.65921 0.11323 0.0
C3459 C 0.01612 0.63549 0.17682 0.0
C3460 C 0.95826 0.65779 0.17769 0.0
C3461 C 0.03296 0.62912 0.19194 0.0
C3462 C 0.92908 0.70612 0.08962 0.0
C3463 C 0.93466 0.6879 0.10346 0.0
C3464 C 0.96523 0.65865 0.13108 0.0
C3465 C 0.99319 0.63429 0.18298 0.0
C3466 C 0.9758 0.64484 0.16825 0.0
C3467 C 0.93822 0.69108 0.12675 0.0
C3468 C 0.94888 0.67301 0.14067 0.0
H3469 H 0.99954 0.61325 0.23607 0.0
H3470 H 0.97006 0.62373 0.20937 0.0
H3471 H 0.99123 0.63435 0.13673 0.0
H3472 H 0.92549 0.74724 0.12969 0.0
H3473 H 0.93675 0.71593 0.15382 0.0
C3474 C 0.49364 0.37926 0.72042 0.0
C3475 C 0.47077 0.37758 0.71422 0.0
C3476 C 0.51064 0.37229 0.70553 0.0
C3477 C 0.53944 0.33888 0.67936 0.0
H3478 H 0.52961 0.33786 0.61474 0.0
C3479 C 0.57113 0.26613 0.62393 0.0
C3480 C 0.57313 0.26923 0.60058 0.0
C3481 C 0.56429 0.28403 0.63772 0.0
C3482 C 0.53319 0.33826 0.63265 0.0
H3483 H 0.44798 0.36871 0.68691 0.0
H3484 H 0.47717 0.35602 0.66153 0.0
H3485 H 0.5077 0.36316 0.63797 0.0
H3486 H 0.57196 0.29364 0.57343 0.0
H3487 H 0.56151 0.32527 0.59753 0.0
H3488 H 0.56536 0.31437 0.67396 0.0
C3489 C 0.48227 0.36304 0.67761 0.0
C3490 C 0.52023 0.35261 0.64609 0.0
C3491 C 0.46538 0.37016 0.69235 0.0
C3492 C 0.56998 0.29081 0.5914 0.0
C3493 C 0.56384 0.30887 0.60524 0.0
C3494 C 0.5528 0.32486 0.66584 0.0
C3495 C 0.50509 0.3634 0.6842 0.0
C3496 C 0.52238 0.35228 0.66971 0.0
C3497 C 0.55996 0.30555 0.62846 0.0
C3498 C 0.54913 0.32357 0.64239 0.0
H3499 H 0.49842 0.38503 0.73709 0.0
H3500 H 0.52805 0.3732 0.71102 0.0
H3501 H 0.54166 0.33813 0.69749 0.0
H3502 H 0.57356 0.24957 0.63132 0.0
H3503 H 0.56127 0.28056 0.6554 0.0
C3504 C 0.80707 0.53415 0.88345 0.0
C3505 C 0.78415 0.52852 0.88153 0.0
C3506 C 0.82367 0.51913 0.87611 0.0
C3507 C 0.83352 0.46132 0.85194 0.0
H3508 H 0.87838 0.49381 0.81701 0.0
C3509 C 0.91596 0.44635 0.79016 0.0
C3510 C 0.90682 0.4318 0.77377 0.0
C3511 C 0.90253 0.45473 0.80756 0.0
C3512 C 0.86623 0.48441 0.82696 0.0
H3513 H 0.7606 0.50206 0.87224 0.0
H3514 H 0.78944 0.47625 0.85847 0.0
H3515 H 0.85255 0.51459 0.84079 0.0
H3516 H 0.87673 0.41348 0.76371 0.0
H3517 H 0.85311 0.42843 0.79416 0.0
H3518 H 0.84683 0.43114 0.83681 0.0
C3519 C 0.79477 0.49201 0.86604 0.0
C3520 C 0.85143 0.49635 0.84077 0.0
C3521 C 0.77818 0.50687 0.87387 0.0
C3522 C 0.88425 0.42473 0.776 0.0
C3523 C 0.87075 0.43319 0.7935 0.0
C3524 C 0.84829 0.44934 0.83784 0.0
C3525 C 0.81767 0.4984 0.86613 0.0
C3526 C 0.83474 0.48504 0.85335 0.0
C3527 C 0.87962 0.44882 0.80901 0.0
C3528 C 0.8647 0.46084 0.82512 0.0
H3529 H 0.81215 0.55059 0.88968 0.0
H3530 H 0.84118 0.52429 0.87721 0.0
H3531 H 0.82103 0.45202 0.86152 0.0
H3532 H 0.93338 0.45183 0.78923 0.0
H3533 H 0.90992 0.46643 0.81953 0.0
C3534 C 0.28098 0.99322 0.11992 0.0
C3535 C 0.28626 0.97014 0.12184 0.0
C3536 C 0.29657 0.00968 0.12661 0.0
C3537 C 0.35637 0.01697 0.14647 0.0
H3538 H 0.33019 0.06421 0.18335 0.0
C3539 C 0.37941 0.06876 0.23226 0.0
C3540 C 0.40289 0.06961 0.22962 0.0
C3541 C 0.3657 0.06204 0.21427 0.0
C3542 C 0.33783 0.05103 0.17326 0.0
H3543 H 0.31264 0.94638 0.13094 0.0
H3544 H 0.33918 0.97465 0.14327 0.0
H3545 H 0.30587 0.04116 0.15983 0.0
H3546 H 0.43048 0.0664 0.20587 0.0
H3547 H 0.40659 0.05613 0.17403 0.0
H3548 H 0.38792 0.02511 0.16149 0.0
C3549 C 0.32332 0.98032 0.13619 0.0
C3550 C 0.32387 0.03804 0.15935 0.0
C3551 C 0.30791 0.96396 0.12928 0.0
C3552 C 0.41239 0.06531 0.20837 0.0
C3553 C 0.39865 0.05929 0.19019 0.0
C3554 C 0.37022 0.02954 0.16076 0.0
C3555 C 0.31768 0.00339 0.13554 0.0
C3556 C 0.33286 0.02023 0.14645 0.0
C3557 C 0.37518 0.05669 0.19308 0.0
C3558 C 0.36105 0.04623 0.175 0.0
H3559 H 0.26451 0.99858 0.11411 0.0
H3560 H 0.29179 0.02728 0.12544 0.0
H3561 H 0.36402 0.00388 0.13625 0.0
H3562 H 0.37176 0.07209 0.24854 0.0
H3563 H 0.34783 0.06 0.21745 0.0
C3564 C 0.19407 0.03685 0.63102 0.0
C3565 C 0.21548 0.03026 0.62322 0.0
C3566 C 0.17864 0.02084 0.6387 0.0
C3567 C 0.17772 0.96364 0.66317 0.0
H3568 H 0.11367 0.97665 0.66501 0.0
C3569 C 0.0887 0.93562 0.71098 0.0
C3570 C 0.09777 0.93135 0.73242 0.0
C3571 C 0.10273 0.94198 0.69314 0.0
C3572 C 0.13138 0.97222 0.66439 0.0
H3573 H 0.23677 0.00139 0.61577 0.0
H3574 H 0.20946 0.97328 0.62849 0.0
H3575 H 0.13771 0.99765 0.63966 0.0
H3576 H 0.12851 0.9293 0.75199 0.0
H3577 H 0.15296 0.9419 0.72142 0.0
H3578 H 0.17128 0.93773 0.68745 0.0
C3579 C 0.20488 0.99096 0.6293 0.0
C3580 C 0.14531 0.98466 0.65003 0.0
C3581 C 0.22048 0.00708 0.6218 0.0
C3582 C 0.12118 0.93258 0.73556 0.0
C3583 C 0.13519 0.93961 0.71789 0.0
C3584 C 0.16369 0.95083 0.6772 0.0
C3585 C 0.18403 0.9977 0.63852 0.0
C3586 C 0.1688 0.98127 0.64998 0.0
C3587 C 0.12609 0.94494 0.69653 0.0
C3588 C 0.14045 0.95558 0.67874 0.0
H3589 H 0.18955 0.05452 0.63233 0.0
H3590 H 0.16298 0.02684 0.64596 0.0
H3591 H 0.19572 0.96048 0.66366 0.0
H3592 H 0.07069 0.93426 0.70807 0.0
H3593 H 0.09511 0.94512 0.67683 0.0
C3594 C 0.59089 0.54947 0.28312 0.0
C3595 C 0.59717 0.56694 0.26831 0.0
C3596 C 0.60492 0.54314 0.30087 0.0
C3597 C 0.63308 0.53649 0.34238 0.0
H3598 H 0.6964 0.52995 0.32726 0.0
C3599 C 0.72154 0.49419 0.37723 0.0
C3600 C 0.71424 0.47165 0.37927 0.0
C3601 C 0.70679 0.51088 0.36958 0.0
C3602 C 0.67886 0.5321 0.33199 0.0
H3603 H 0.62306 0.59183 0.26101 0.0
H3604 H 0.64743 0.58107 0.29247 0.0
H3605 H 0.67158 0.55036 0.30178 0.0
H3606 H 0.68521 0.44944 0.37699 0.0
H3607 H 0.6594 0.47868 0.36377 0.0
H3608 H 0.64027 0.51672 0.37185 0.0
C3609 C 0.63168 0.57208 0.29007 0.0
C3610 C 0.6646 0.54386 0.31738 0.0
C3611 C 0.61765 0.57835 0.2721 0.0
C3612 C 0.69139 0.46659 0.37541 0.0
C3613 C 0.67657 0.48336 0.36798 0.0
C3614 C 0.6473 0.52446 0.35684 0.0
C3615 C 0.6256 0.55418 0.30449 0.0
C3616 C 0.64137 0.54553 0.322 0.0
C3617 C 0.6844 0.50543 0.36409 0.0
C3618 C 0.67018 0.52159 0.35141 0.0
H3619 H 0.57526 0.54026 0.2808 0.0
H3620 H 0.59984 0.52896 0.31123 0.0
H3621 H 0.61538 0.53795 0.34676 0.0
H3622 H 0.73903 0.49872 0.38008 0.0
H3623 H 0.71316 0.52782 0.3669 0.0
loop_
_geom_bond_atom_site_label_1
_geom_bond_atom_site_label_2
_geom_bond_distance
_geom_bond_site_symmetry_2
_ccdc_geom_bond_type
C0 O12 1.241 . S
C0 O13 1.280 . S
C1 O14 1.277 . S
C1 O15 1.245 . S
C2 O26 1.247 . S
C2 O28 1.289 . S
Mg3 O4 1.926 . S
Mg3 O13 1.984 . S
Mg3 O15 1.988 . S
Mg3 O16 2.061 . S
O4 Mg3 1.926 . S
O4 Mg5 1.986 . S
O4 Mg6 1.917 . S
Mg5 O4 1.986 . S
Mg5 O12 2.042 . S
Mg5 O14 2.041 . S
Mg5 O20 2.038 . S
Mg5 O28 2.238 . S
Mg6 O4 1.917 . S
Mg6 O7 1.917 . S
Mg6 O17 2.106 . S
Mg6 O19 2.079 . S
Mg6 O28 2.106 . S
Mg6 O29 2.079 . S
O7 Mg6 1.917 . S
O7 Mg8 1.926 . S
O7 Mg9 1.986 . S
Mg8 O7 1.926 . S
Mg8 O22 1.984 . S
Mg8 O25 1.988 . S
Mg8 O26 2.061 . S
Mg9 O7 1.986 . S
Mg9 O17 2.238 . S
Mg9 O21 2.042 . S
Mg9 O23 2.041 . S
Mg9 O30 2.038 . S
C10 O16 1.247 . S
C10 O17 1.289 . S
C11 O29 1.245 . S
C11 O30 1.274 . S
O12 C0 1.241 . S
O12 Mg5 2.042 . S
O13 C0 1.280 . S
O13 Mg3 1.984 . S
O14 C1 1.277 . S
O14 Mg5 2.041 . S
O15 C1 1.245 . S
O15 Mg3 1.988 . S
O16 Mg3 2.061 . S
O16 C10 1.247 . S
O17 Mg6 2.106 . S
O17 Mg9 2.238 . S
O17 C10 1.289 . S
C18 O19 1.245 . S
C18 O20 1.274 . S
O19 Mg6 2.079 . S
O19 C18 1.245 . S
O20 Mg5 2.038 . S
O20 C18 1.274 . S
O21 Mg9 2.042 . S
O21 C24 1.241 . S
O22 Mg8 1.984 . S
O22 C24 1.280 . S
O23 Mg9 2.041 . S
O23 C27 1.277 . S
C24 O21 1.241 . S
C24 O22 1.280 . S
O25 Mg8 1.988 . S
O25 C27 1.245 . S
O26 C2 1.247 . S
O26 Mg8 2.061 . S
C27 O23 1.277 . S
C27 O25 1.245 . S
O28 C2 1.289 . S
O28 Mg5 2.238 . S
O28 Mg6 2.106 . S
O29 Mg6 2.079 . S
O29 C11 1.245 . S
O30 Mg9 2.038 . S
O30 C11 1.274 . S
C31 O43 1.241 . S
C31 O44 1.280 . S
C32 O45 1.277 . S
C32 O46 1.245 . S
C33 O57 1.247 . S
C33 O59 1.289 . S
Mg34 O35 1.926 . S
Mg34 O44 1.984 . S
Mg34 O46 1.988 . S
Mg34 O47 2.061 . S
O35 Mg34 1.926 . S
O35 Mg36 1.986 . S
O35 Mg37 1.917 . S
Mg36 O35 1.986 . S
Mg36 O43 2.042 . S
Mg36 O45 2.041 . S
Mg36 O51 2.038 . S
Mg36 O59 2.238 . S
Mg37 O35 1.917 . S
Mg37 O38 1.917 . S
Mg37 O48 2.106 . S
Mg37 O50 2.079 . S
Mg37 O59 2.106 . S
Mg37 O60 2.079 . S
O38 Mg37 1.917 . S
O38 Mg39 1.926 . S
O38 Mg40 1.986 . S
Mg39 O38 1.926 . S
Mg39 O53 1.984 . S
Mg39 O56 1.988 . S
Mg39 O57 2.061 . S
Mg40 O38 1.986 . S
Mg40 O48 2.238 . S
Mg40 O52 2.042 . S
Mg40 O54 2.041 . S
Mg40 O61 2.038 . S
C41 O47 1.247 . S
C41 O48 1.289 . S
C42 O60 1.245 . S
C42 O61 1.274 . S
O43 C31 1.241 . S
O43 Mg36 2.042 . S
O44 C31 1.280 . S
O44 Mg34 1.984 . S
O45 C32 1.277 . S
O45 Mg36 2.041 . S
O46 C32 1.245 . S
O46 Mg34 1.988 . S
O47 Mg34 2.061 . S
O47 C41 1.247 . S
O48 Mg37 2.106 . S
O48 Mg40 2.238 . S
O48 C41 1.289 . S
C49 O50 1.245 . S
C49 O51 1.274 . S
O50 Mg37 2.079 . S
O50 C49 1.245 . S
O51 Mg36 2.038 . S
O51 C49 1.274 . S
O52 Mg40 2.042 . S
O52 C55 1.241 . S
O53 Mg39 1.984 . S
O53 C55 1.280 . S
O54 Mg40 2.041 . S
O54 C58 1.277 . S
C55 O52 1.241 . S
C55 O53 1.280 . S
O56 Mg39 1.988 . S
O56 C58 1.245 . S
O57 C33 1.247 . S
O57 Mg39 2.061 . S
C58 O54 1.277 . S
C58 O56 1.245 . S
O59 C33 1.289 . S
O59 Mg36 2.238 . S
O59 Mg37 2.106 . S
O60 Mg37 2.079 . S
O60 C42 1.245 . S
O61 Mg40 2.038 . S
O61 C42 1.274 . S
C62 O74 1.241 . S
C62 O75 1.280 . S
C63 O76 1.277 . S
C63 O77 1.245 . S
C64 O88 1.247 . S
C64 O90 1.289 . S
Mg65 O66 1.926 . S
Mg65 O75 1.984 . S
Mg65 O77 1.988 . S
Mg65 O78 2.061 . S
O66 Mg65 1.926 . S
O66 Mg67 1.986 . S
O66 Mg68 1.917 . S
Mg67 O66 1.986 . S
Mg67 O74 2.042 . S
Mg67 O76 2.041 . S
Mg67 O82 2.038 . S
Mg67 O90 2.238 . S
Mg68 O66 1.917 . S
Mg68 O69 1.917 . S
Mg68 O79 2.106 . S
Mg68 O81 2.079 . S
Mg68 O90 2.106 . S
Mg68 O91 2.079 . S
O69 Mg68 1.917 . S
O69 Mg70 1.926 . S
O69 Mg71 1.986 . S
Mg70 O69 1.926 . S
Mg70 O84 1.984 . S
Mg70 O87 1.988 . S
Mg70 O88 2.061 . S
Mg71 O69 1.986 . S
Mg71 O79 2.238 . S
Mg71 O83 2.042 . S
Mg71 O85 2.041 . S
Mg71 O92 2.038 . S
C72 O78 1.247 . S
C72 O79 1.289 . S
C73 O91 1.245 . S
C73 O92 1.274 . S
O74 C62 1.241 . S
O74 Mg67 2.042 . S
O75 C62 1.280 . S
O75 Mg65 1.984 . S
O76 C63 1.277 . S
O76 Mg67 2.041 . S
O77 C63 1.245 . S
O77 Mg65 1.988 . S
O78 Mg65 2.061 . S
O78 C72 1.247 . S
O79 Mg68 2.106 . S
O79 Mg71 2.238 . S
O79 C72 1.289 . S
C80 O81 1.245 . S
C80 O82 1.274 . S
O81 Mg68 2.079 . S
O81 C80 1.245 . S
O82 Mg67 2.038 . S
O82 C80 1.274 . S
O83 Mg71 2.042 . S
O83 C86 1.241 . S
O84 Mg70 1.984 . S
O84 C86 1.280 . S
O85 Mg71 2.041 . S
O85 C89 1.277 . S
C86 O83 1.241 . S
C86 O84 1.280 . S
O87 Mg70 1.988 . S
O87 C89 1.245 . S
O88 C64 1.247 . S
O88 Mg70 2.061 . S
C89 O85 1.277 . S
C89 O87 1.245 . S
O90 C64 1.289 . S
O90 Mg67 2.238 . S
O90 Mg68 2.106 . S
O91 Mg68 2.079 . S
O91 C73 1.245 . S
O92 Mg71 2.038 . S
O92 C73 1.274 . S
C93 O105 1.241 . S
C93 O106 1.280 . S
C94 O107 1.277 . S
C94 O108 1.245 . S
C95 O119 1.247 . S
C95 O121 1.289 . S
Mg96 O97 1.926 . S
Mg96 O106 1.984 . S
Mg96 O108 1.988 . S
Mg96 O109 2.061 . S
O97 Mg96 1.926 . S
O97 Mg98 1.986 . S
O97 Mg99 1.917 . S
Mg98 O97 1.986 . S
Mg98 O105 2.042 . S
Mg98 O107 2.041 . S
Mg98 O113 2.038 . S
Mg98 O121 2.238 . S
Mg99 O97 1.917 . S
Mg99 O100 1.917 . S
Mg99 O110 2.106 . S
Mg99 O112 2.079 . S
Mg99 O121 2.106 . S
Mg99 O122 2.079 . S
O100 Mg99 1.917 . S
O100 Mg101 1.926 . S
O100 Mg102 1.986 . S
Mg101 O100 1.926 . S
Mg101 O115 1.984 . S
Mg101 O118 1.988 . S
Mg101 O119 2.061 . S
Mg102 O100 1.986 . S
Mg102 O110 2.238 . S
Mg102 O114 2.042 . S
Mg102 O116 2.041 . S
Mg102 O123 2.038 . S
C103 O109 1.247 . S
C103 O110 1.289 . S
C104 O122 1.245 . S
C104 O123 1.274 . S
O105 C93 1.241 . S
O105 Mg98 2.042 . S
O106 C93 1.280 . S
O106 Mg96 1.984 . S
O107 C94 1.277 . S
O107 Mg98 2.041 . S
O108 C94 1.245 . S
O108 Mg96 1.988 . S
O109 Mg96 2.061 . S
O109 C103 1.247 . S
O110 Mg99 2.106 . S
O110 Mg102 2.238 . S
O110 C103 1.289 . S
C111 O112 1.245 . S
C111 O113 1.274 . S
O112 Mg99 2.079 . S
O112 C111 1.245 . S
O113 Mg98 2.038 . S
O113 C111 1.274 . S
O114 Mg102 2.042 . S
O114 C117 1.241 . S
O115 Mg101 1.984 . S
O115 C117 1.280 . S
O116 Mg102 2.041 . S
O116 C120 1.277 . S
C117 O114 1.241 . S
C117 O115 1.280 . S
O118 Mg101 1.988 . S
O118 C120 1.245 . S
O119 C95 1.247 . S
O119 Mg101 2.061 . S
C120 O116 1.277 . S
C120 O118 1.245 . S
O121 C95 1.289 . S
O121 Mg98 2.238 . S
O121 Mg99 2.106 . S
O122 Mg99 2.079 . S
O122 C104 1.245 . S
O123 Mg102 2.038 . S
O123 C104 1.274 . S
C124 O136 1.241 . S
C124 O137 1.280 . S
C125 O138 1.277 . S
C125 O139 1.245 . S
C126 O150 1.247 . S
C126 O152 1.289 . S
Mg127 O128 1.926 . S
Mg127 O137 1.984 . S
Mg127 O139 1.988 . S
Mg127 O140 2.061 . S
O128 Mg127 1.926 . S
O128 Mg129 1.986 . S
O128 Mg130 1.917 . S
Mg129 O128 1.986 . S
Mg129 O136 2.042 . S
Mg129 O138 2.041 . S
Mg129 O144 2.038 . S
Mg129 O152 2.238 . S
Mg130 O128 1.917 . S
Mg130 O131 1.917 . S
Mg130 O141 2.106 . S
Mg130 O143 2.079 . S
Mg130 O152 2.106 . S
Mg130 O153 2.079 . S
O131 Mg130 1.917 . S
O131 Mg132 1.926 . S
O131 Mg133 1.986 . S
Mg132 O131 1.926 . S
Mg132 O146 1.984 . S
Mg132 O149 1.988 . S
Mg132 O150 2.061 . S
Mg133 O131 1.986 . S
Mg133 O141 2.238 . S
Mg133 O145 2.042 . S
Mg133 O147 2.041 . S
Mg133 O154 2.038 . S
C134 O140 1.247 . S
C134 O141 1.289 . S
C135 O153 1.245 . S
C135 O154 1.274 . S
O136 C124 1.241 . S
O136 Mg129 2.042 . S
O137 C124 1.280 . S
O137 Mg127 1.984 . S
O138 C125 1.277 . S
O138 Mg129 2.041 . S
O139 C125 1.245 . S
O139 Mg127 1.988 . S
O140 Mg127 2.061 . S
O140 C134 1.247 . S
O141 Mg130 2.106 . S
O141 Mg133 2.238 . S
O141 C134 1.289 . S
C142 O143 1.245 . S
C142 O144 1.274 . S
O143 Mg130 2.079 . S
O143 C142 1.245 . S
O144 Mg129 2.038 . S
O144 C142 1.274 . S
O145 Mg133 2.042 . S
O145 C148 1.241 . S
O146 Mg132 1.984 . S
O146 C148 1.280 . S
O147 Mg133 2.041 . S
O147 C151 1.277 . S
C148 O145 1.241 . S
C148 O146 1.280 . S
O149 Mg132 1.988 . S
O149 C151 1.245 . S
O150 C126 1.247 . S
O150 Mg132 2.061 . S
C151 O147 1.277 . S
C151 O149 1.245 . S
O152 C126 1.289 . S
O152 Mg129 2.238 . S
O152 Mg130 2.106 . S
O153 Mg130 2.079 . S
O153 C135 1.245 . S
O154 Mg133 2.038 . S
O154 C135 1.274 . S
C155 O167 1.241 . S
C155 O168 1.280 . S
C156 O169 1.277 . S
C156 O170 1.245 . S
C157 O181 1.247 . S
C157 O183 1.289 . S
Mg158 O159 1.926 . S
Mg158 O168 1.984 . S
Mg158 O170 1.988 . S
Mg158 O171 2.061 . S
O159 Mg158 1.926 . S
O159 Mg160 1.986 . S
O159 Mg161 1.917 . S
Mg160 O159 1.986 . S
Mg160 O167 2.042 . S
Mg160 O169 2.041 . S
Mg160 O175 2.038 . S
Mg160 O183 2.238 . S
Mg161 O159 1.917 . S
Mg161 O162 1.917 . S
Mg161 O172 2.106 . S
Mg161 O174 2.079 . S
Mg161 O183 2.106 . S
Mg161 O184 2.079 . S
O162 Mg161 1.917 . S
O162 Mg163 1.926 . S
O162 Mg164 1.986 . S
Mg163 O162 1.926 . S
Mg163 O177 1.984 . S
Mg163 O180 1.988 . S
Mg163 O181 2.061 . S
Mg164 O162 1.986 . S
Mg164 O172 2.238 . S
Mg164 O176 2.042 . S
Mg164 O178 2.041 . S
Mg164 O185 2.038 . S
C165 O171 1.247 . S
C165 O172 1.289 . S
C166 O184 1.245 . S
C166 O185 1.274 . S
O167 C155 1.241 . S
O167 Mg160 2.042 . S
O168 C155 1.280 . S
O168 Mg158 1.984 . S
O169 C156 1.277 . S
O169 Mg160 2.041 . S
O170 C156 1.245 . S
O170 Mg158 1.988 . S
O171 Mg158 2.061 . S
O171 C165 1.247 . S
O172 Mg161 2.106 . S
O172 Mg164 2.238 . S
O172 C165 1.289 . S
C173 O174 1.245 . S
C173 O175 1.274 . S
O174 Mg161 2.079 . S
O174 C173 1.245 . S
O175 Mg160 2.038 . S
O175 C173 1.274 . S
O176 Mg164 2.042 . S
O176 C179 1.241 . S
O177 Mg163 1.984 . S
O177 C179 1.280 . S
O178 Mg164 2.041 . S
O178 C182 1.277 . S
C179 O176 1.241 . S
C179 O177 1.280 . S
O180 Mg163 1.988 . S
O180 C182 1.245 . S
O181 C157 1.247 . S
O181 Mg163 2.061 . S
C182 O178 1.277 . S
C182 O180 1.245 . S
O183 C157 1.289 . S
O183 Mg160 2.238 . S
O183 Mg161 2.106 . S
O184 Mg161 2.079 . S
O184 C166 1.245 . S
O185 Mg164 2.038 . S
O185 C166 1.274 . S
C186 O198 1.241 . S
C186 O199 1.280 . S
C187 O200 1.277 . S
C187 O201 1.245 . S
C188 O212 1.247 . S
C188 O214 1.289 . S
Mg189 O190 1.926 . S
Mg189 O199 1.984 . S
Mg189 O201 1.988 . S
Mg189 O202 2.061 . S
O190 Mg189 1.926 . S
O190 Mg191 1.986 . S
O190 Mg192 1.917 . S
Mg191 O190 1.986 . S
Mg191 O198 2.042 . S
Mg191 O200 2.041 . S
Mg191 O206 2.038 . S
Mg191 O214 2.238 . S
Mg192 O190 1.917 . S
Mg192 O193 1.917 . S
Mg192 O203 2.106 . S
Mg192 O205 2.079 . S
Mg192 O214 2.106 . S
Mg192 O215 2.079 . S
O193 Mg192 1.917 . S
O193 Mg194 1.926 . S
O193 Mg195 1.986 . S
Mg194 O193 1.926 . S
Mg194 O208 1.984 . S
Mg194 O211 1.988 . S
Mg194 O212 2.061 . S
Mg195 O193 1.986 . S
Mg195 O203 2.238 . S
Mg195 O207 2.042 . S
Mg195 O209 2.041 . S
Mg195 O216 2.038 . S
C196 O202 1.247 . S
C196 O203 1.289 . S
C197 O215 1.245 . S
C197 O216 1.274 . S
O198 C186 1.241 . S
O198 Mg191 2.042 . S
O199 C186 1.280 . S
O199 Mg189 1.984 . S
O200 C187 1.277 . S
O200 Mg191 2.041 . S
O201 C187 1.245 . S
O201 Mg189 1.988 . S
O202 Mg189 2.061 . S
O202 C196 1.247 . S
O203 Mg192 2.106 . S
O203 Mg195 2.238 . S
O203 C196 1.289 . S
C204 O205 1.245 . S
C204 O206 1.274 . S
O205 Mg192 2.079 . S
O205 C204 1.245 . S
O206 Mg191 2.038 . S
O206 C204 1.274 . S
O207 Mg195 2.042 . S
O207 C210 1.241 . S
O208 Mg194 1.984 . S
O208 C210 1.280 . S
O209 Mg195 2.041 . S
O209 C213 1.277 . S
C210 O207 1.241 . S
C210 O208 1.280 . S
O211 Mg194 1.988 . S
O211 C213 1.245 . S
O212 C188 1.247 . S
O212 Mg194 2.061 . S
C213 O209 1.277 . S
C213 O211 1.245 . S
O214 C188 1.289 . S
O214 Mg191 2.238 . S
O214 Mg192 2.106 . S
O215 Mg192 2.079 . S
O215 C197 1.245 . S
O216 Mg195 2.038 . S
O216 C197 1.274 . S
C217 O229 1.241 . S
C217 O230 1.280 . S
C218 O231 1.277 . S
C218 O232 1.245 . S
C219 O243 1.247 . S
C219 O245 1.289 . S
Mg220 O221 1.926 . S
Mg220 O230 1.984 . S
Mg220 O232 1.988 . S
Mg220 O233 2.061 . S
O221 Mg220 1.926 . S
O221 Mg222 1.986 . S
O221 Mg223 1.917 . S
Mg222 O221 1.986 . S
Mg222 O229 2.042 . S
Mg222 O231 2.041 . S
Mg222 O237 2.038 . S
Mg222 O245 2.238 . S
Mg223 O221 1.917 . S
Mg223 O224 1.917 . S
Mg223 O234 2.106 . S
Mg223 O236 2.079 . S
Mg223 O245 2.106 . S
Mg223 O246 2.079 . S
O224 Mg223 1.917 . S
O224 Mg225 1.926 . S
O224 Mg226 1.986 . S
Mg225 O224 1.926 . S
Mg225 O239 1.984 . S
Mg225 O242 1.988 . S
Mg225 O243 2.061 . S
Mg226 O224 1.986 . S
Mg226 O234 2.238 . S
Mg226 O238 2.042 . S
Mg226 O240 2.041 . S
Mg226 O247 2.038 . S
C227 O233 1.247 . S
C227 O234 1.289 . S
C228 O246 1.245 . S
C228 O247 1.274 . S
O229 C217 1.241 . S
O229 Mg222 2.042 . S
O230 C217 1.280 . S
O230 Mg220 1.984 . S
O231 C218 1.277 . S
O231 Mg222 2.041 . S
O232 C218 1.245 . S
O232 Mg220 1.988 . S
O233 Mg220 2.061 . S
O233 C227 1.247 . S
O234 Mg223 2.106 . S
O234 Mg226 2.238 . S
O234 C227 1.289 . S
C235 O236 1.245 . S
C235 O237 1.274 . S
O236 Mg223 2.079 . S
O236 C235 1.245 . S
O237 Mg222 2.038 . S
O237 C235 1.274 . S
O238 Mg226 2.042 . S
O238 C241 1.241 . S
O239 Mg225 1.984 . S
O239 C241 1.280 . S
O240 Mg226 2.041 . S
O240 C244 1.277 . S
C241 O238 1.241 . S
C241 O239 1.280 . S
O242 Mg225 1.988 . S
O242 C244 1.245 . S
O243 C219 1.247 . S
O243 Mg225 2.061 . S
C244 O240 1.277 . S
C244 O242 1.245 . S
O245 C219 1.289 . S
O245 Mg222 2.238 . S
O245 Mg223 2.106 . S
O246 Mg223 2.079 . S
O246 C228 1.245 . S
O247 Mg226 2.038 . S
O247 C228 1.274 . S
C248 O260 1.241 . S
C248 O261 1.280 . S
C249 O262 1.277 . S
C249 O263 1.245 . S
C250 O274 1.247 . S
C250 O276 1.289 . S
Mg251 O252 1.926 . S
Mg251 O261 1.984 . S
Mg251 O263 1.988 . S
Mg251 O264 2.061 . S
O252 Mg251 1.926 . S
O252 Mg253 1.986 . S
O252 Mg254 1.917 . S
Mg253 O252 1.986 . S
Mg253 O260 2.042 . S
Mg253 O262 2.041 . S
Mg253 O268 2.038 . S
Mg253 O276 2.238 . S
Mg254 O252 1.917 . S
Mg254 O255 1.917 . S
Mg254 O265 2.106 . S
Mg254 O267 2.079 . S
Mg254 O276 2.106 . S
Mg254 O277 2.079 . S
O255 Mg254 1.917 . S
O255 Mg256 1.926 . S
O255 Mg257 1.986 . S
Mg256 O255 1.926 . S
Mg256 O270 1.984 . S
Mg256 O273 1.988 . S
Mg256 O274 2.061 . S
Mg257 O255 1.986 . S
Mg257 O265 2.238 . S
Mg257 O269 2.042 . S
Mg257 O271 2.041 . S
Mg257 O278 2.038 . S
C258 O264 1.247 . S
C258 O265 1.289 . S
C259 O277 1.245 . S
C259 O278 1.274 . S
O260 C248 1.241 . S
O260 Mg253 2.042 . S
O261 C248 1.280 . S
O261 Mg251 1.984 . S
O262 C249 1.277 . S
O262 Mg253 2.041 . S
O263 C249 1.245 . S
O263 Mg251 1.988 . S
O264 Mg251 2.061 . S
O264 C258 1.247 . S
O265 Mg254 2.106 . S
O265 Mg257 2.238 . S
O265 C258 1.289 . S
C266 O267 1.245 . S
C266 O268 1.274 . S
O267 Mg254 2.079 . S
O267 C266 1.245 . S
O268 Mg253 2.038 . S
O268 C266 1.274 . S
O269 Mg257 2.042 . S
O269 C272 1.241 . S
O270 Mg256 1.984 . S
O270 C272 1.280 . S
O271 Mg257 2.041 . S
O271 C275 1.277 . S
C272 O269 1.241 . S
C272 O270 1.280 . S
O273 Mg256 1.988 . S
O273 C275 1.245 . S
O274 C250 1.247 . S
O274 Mg256 2.061 . S
C275 O271 1.277 . S
C275 O273 1.245 . S
O276 C250 1.289 . S
O276 Mg253 2.238 . S
O276 Mg254 2.106 . S
O277 Mg254 2.079 . S
O277 C259 1.245 . S
O278 Mg257 2.038 . S
O278 C259 1.274 . S
C279 O291 1.241 . S
C279 O292 1.280 . S
C280 O293 1.277 . S
C280 O294 1.245 . S
C281 O305 1.247 . S
C281 O307 1.289 . S
Mg282 O283 1.926 . S
Mg282 O292 1.984 . S
Mg282 O294 1.988 . S
Mg282 O295 2.061 . S
O283 Mg282 1.926 . S
O283 Mg284 1.986 . S
O283 Mg285 1.917 . S
Mg284 O283 1.986 . S
Mg284 O291 2.042 . S
Mg284 O293 2.041 . S
Mg284 O299 2.038 . S
Mg284 O307 2.238 . S
Mg285 O283 1.917 . S
Mg285 O286 1.917 . S
Mg285 O296 2.106 . S
Mg285 O298 2.079 . S
Mg285 O307 2.106 . S
Mg285 O308 2.079 . S
O286 Mg285 1.917 . S
O286 Mg287 1.926 . S
O286 Mg288 1.986 . S
Mg287 O286 1.926 . S
Mg287 O301 1.984 . S
Mg287 O304 1.988 . S
Mg287 O305 2.061 . S
Mg288 O286 1.986 . S
Mg288 O296 2.238 . S
Mg288 O300 2.042 . S
Mg288 O302 2.041 . S
Mg288 O309 2.038 . S
C289 O295 1.247 . S
C289 O296 1.289 . S
C290 O308 1.245 . S
C290 O309 1.274 . S
O291 C279 1.241 . S
O291 Mg284 2.042 . S
O292 C279 1.280 . S
O292 Mg282 1.984 . S
O293 C280 1.277 . S
O293 Mg284 2.041 . S
O294 C280 1.245 . S
O294 Mg282 1.988 . S
O295 Mg282 2.061 . S
O295 C289 1.247 . S
O296 Mg285 2.106 . S
O296 Mg288 2.238 . S
O296 C289 1.289 . S
C297 O298 1.245 . S
C297 O299 1.274 . S
O298 Mg285 2.079 . S
O298 C297 1.245 . S
O299 Mg284 2.038 . S
O299 C297 1.274 . S
O300 Mg288 2.042 . S
O300 C303 1.241 . S
O301 Mg287 1.984 . S
O301 C303 1.280 . S
O302 Mg288 2.041 . S
O302 C306 1.277 . S
C303 O300 1.241 . S
C303 O301 1.280 . S
O304 Mg287 1.988 . S
O304 C306 1.245 . S
O305 C281 1.247 . S
O305 Mg287 2.061 . S
C306 O302 1.277 . S
C306 O304 1.245 . S
O307 C281 1.289 . S
O307 Mg284 2.238 . S
O307 Mg285 2.106 . S
O308 Mg285 2.079 . S
O308 C290 1.245 . S
O309 Mg288 2.038 . S
O309 C290 1.274 . S
C310 O322 1.241 . S
C310 O323 1.280 . S
C311 O324 1.277 . S
C311 O325 1.245 . S
C312 O336 1.247 . S
C312 O338 1.289 . S
Mg313 O314 1.926 . S
Mg313 O323 1.984 . S
Mg313 O325 1.988 . S
Mg313 O326 2.061 . S
O314 Mg313 1.926 . S
O314 Mg315 1.986 . S
O314 Mg316 1.917 . S
Mg315 O314 1.986 . S
Mg315 O322 2.042 . S
Mg315 O324 2.041 . S
Mg315 O330 2.038 . S
Mg315 O338 2.238 . S
Mg316 O314 1.917 . S
Mg316 O317 1.917 . S
Mg316 O327 2.106 . S
Mg316 O329 2.079 . S
Mg316 O338 2.106 . S
Mg316 O339 2.079 . S
O317 Mg316 1.917 . S
O317 Mg318 1.926 . S
O317 Mg319 1.986 . S
Mg318 O317 1.926 . S
Mg318 O332 1.984 . S
Mg318 O335 1.988 . S
Mg318 O336 2.061 . S
Mg319 O317 1.986 . S
Mg319 O327 2.238 . S
Mg319 O331 2.042 . S
Mg319 O333 2.041 . S
Mg319 O340 2.038 . S
C320 O326 1.247 . S
C320 O327 1.289 . S
C321 O339 1.245 . S
C321 O340 1.274 . S
O322 C310 1.241 . S
O322 Mg315 2.042 . S
O323 C310 1.280 . S
O323 Mg313 1.984 . S
O324 C311 1.277 . S
O324 Mg315 2.041 . S
O325 C311 1.245 . S
O325 Mg313 1.988 . S
O326 Mg313 2.061 . S
O326 C320 1.247 . S
O327 Mg316 2.106 . S
O327 Mg319 2.238 . S
O327 C320 1.289 . S
C328 O329 1.245 . S
C328 O330 1.274 . S
O329 Mg316 2.079 . S
O329 C328 1.245 . S
O330 Mg315 2.038 . S
O330 C328 1.274 . S
O331 Mg319 2.042 . S
O331 C334 1.241 . S
O332 Mg318 1.984 . S
O332 C334 1.280 . S
O333 Mg319 2.041 . S
O333 C337 1.277 . S
C334 O331 1.241 . S
C334 O332 1.280 . S
O335 Mg318 1.988 . S
O335 C337 1.245 . S
O336 C312 1.247 . S
O336 Mg318 2.061 . S
C337 O333 1.277 . S
C337 O335 1.245 . S
O338 C312 1.289 . S
O338 Mg315 2.238 . S
O338 Mg316 2.106 . S
O339 Mg316 2.079 . S
O339 C321 1.245 . S
O340 Mg319 2.038 . S
O340 C321 1.274 . S
C341 O353 1.241 . S
C341 O354 1.280 . S
C342 O355 1.277 . S
C342 O356 1.245 . S
C343 O367 1.247 . S
C343 O369 1.289 . S
Mg344 O345 1.926 . S
Mg344 O354 1.984 . S
Mg344 O356 1.988 . S
Mg344 O357 2.061 . S
O345 Mg344 1.926 . S
O345 Mg346 1.986 . S
O345 Mg347 1.917 . S
Mg346 O345 1.986 . S
Mg346 O353 2.042 . S
Mg346 O355 2.041 . S
Mg346 O361 2.038 . S
Mg346 O369 2.238 . S
Mg347 O345 1.917 . S
Mg347 O348 1.917 . S
Mg347 O358 2.106 . S
Mg347 O360 2.079 . S
Mg347 O369 2.106 . S
Mg347 O370 2.079 . S
O348 Mg347 1.917 . S
O348 Mg349 1.926 . S
O348 Mg350 1.986 . S
Mg349 O348 1.926 . S
Mg349 O363 1.984 . S
Mg349 O366 1.988 . S
Mg349 O367 2.061 . S
Mg350 O348 1.986 . S
Mg350 O358 2.238 . S
Mg350 O362 2.042 . S
Mg350 O364 2.041 . S
Mg350 O371 2.038 . S
C351 O357 1.247 . S
C351 O358 1.289 . S
C352 O370 1.245 . S
C352 O371 1.274 . S
O353 C341 1.241 . S
O353 Mg346 2.042 . S
O354 C341 1.280 . S
O354 Mg344 1.984 . S
O355 C342 1.277 . S
O355 Mg346 2.041 . S
O356 C342 1.245 . S
O356 Mg344 1.988 . S
O357 Mg344 2.061 . S
O357 C351 1.247 . S
O358 Mg347 2.106 . S
O358 Mg350 2.238 . S
O358 C351 1.289 . S
C359 O360 1.245 . S
C359 O361 1.274 . S
O360 Mg347 2.079 . S
O360 C359 1.245 . S
O361 Mg346 2.038 . S
O361 C359 1.274 . S
O362 Mg350 2.042 . S
O362 C365 1.241 . S
O363 Mg349 1.984 . S
O363 C365 1.280 . S
O364 Mg350 2.041 . S
O364 C368 1.277 . S
C365 O362 1.241 . S
C365 O363 1.280 . S
O366 Mg349 1.988 . S
O366 C368 1.245 . S
O367 C343 1.247 . S
O367 Mg349 2.061 . S
C368 O364 1.277 . S
C368 O366 1.245 . S
O369 C343 1.289 . S
O369 Mg346 2.238 . S
O369 Mg347 2.106 . S
O370 Mg347 2.079 . S
O370 C352 1.245 . S
O371 Mg350 2.038 . S
O371 C352 1.274 . S
C372 O384 1.241 . S
C372 O385 1.280 . S
C373 O386 1.277 . S
C373 O387 1.245 . S
C374 O398 1.247 . S
C374 O400 1.289 . S
Mg375 O376 1.926 . S
Mg375 O385 1.984 . S
Mg375 O387 1.988 . S
Mg375 O388 2.061 . S
O376 Mg375 1.926 . S
O376 Mg377 1.986 . S
O376 Mg378 1.917 . S
Mg377 O376 1.986 . S
Mg377 O384 2.042 . S
Mg377 O386 2.041 . S
Mg377 O392 2.038 . S
Mg377 O400 2.238 . S
Mg378 O376 1.917 . S
Mg378 O379 1.917 . S
Mg378 O389 2.106 . S
Mg378 O391 2.079 . S
Mg378 O400 2.106 . S
Mg378 O401 2.079 . S
O379 Mg378 1.917 . S
O379 Mg380 1.926 . S
O379 Mg381 1.986 . S
Mg380 O379 1.926 . S
Mg380 O394 1.984 . S
Mg380 O397 1.988 . S
Mg380 O398 2.061 . S
Mg381 O379 1.986 . S
Mg381 O389 2.238 . S
Mg381 O393 2.042 . S
Mg381 O395 2.041 . S
Mg381 O402 2.038 . S
C382 O388 1.247 . S
C382 O389 1.289 . S
C383 O401 1.245 . S
C383 O402 1.274 . S
O384 C372 1.241 . S
O384 Mg377 2.042 . S
O385 C372 1.280 . S
O385 Mg375 1.984 . S
O386 C373 1.277 . S
O386 Mg377 2.041 . S
O387 C373 1.245 . S
O387 Mg375 1.988 . S
O388 Mg375 2.061 . S
O388 C382 1.247 . S
O389 Mg378 2.106 . S
O389 Mg381 2.238 . S
O389 C382 1.289 . S
C390 O391 1.245 . S
C390 O392 1.274 . S
O391 Mg378 2.079 . S
O391 C390 1.245 . S
O392 Mg377 2.038 . S
O392 C390 1.274 . S
O393 Mg381 2.042 . S
O393 C396 1.241 . S
O394 Mg380 1.984 . S
O394 C396 1.280 . S
O395 Mg381 2.041 . S
O395 C399 1.277 . S
C396 O393 1.241 . S
C396 O394 1.280 . S
O397 Mg380 1.988 . S
O397 C399 1.245 . S
O398 C374 1.247 . S
O398 Mg380 2.061 . S
C399 O395 1.277 . S
C399 O397 1.245 . S
O400 C374 1.289 . S
O400 Mg377 2.238 . S
O400 Mg378 2.106 . S
O401 Mg378 2.079 . S
O401 C383 1.245 . S
O402 Mg381 2.038 . S
O402 C383 1.274 . S
C403 O415 1.241 . S
C403 O416 1.280 . S
C404 O417 1.277 . S
C404 O418 1.245 . S
C405 O429 1.247 . S
C405 O431 1.289 . S
Mg406 O407 1.926 . S
Mg406 O416 1.984 . S
Mg406 O418 1.988 . S
Mg406 O419 2.061 . S
O407 Mg406 1.926 . S
O407 Mg408 1.986 . S
O407 Mg409 1.917 . S
Mg408 O407 1.986 . S
Mg408 O415 2.042 . S
Mg408 O417 2.041 . S
Mg408 O423 2.038 . S
Mg408 O431 2.238 . S
Mg409 O407 1.917 . S
Mg409 O410 1.917 . S
Mg409 O420 2.106 . S
Mg409 O422 2.079 . S
Mg409 O431 2.106 . S
Mg409 O432 2.079 . S
O410 Mg409 1.917 . S
O410 Mg411 1.926 . S
O410 Mg412 1.986 . S
Mg411 O410 1.926 . S
Mg411 O425 1.984 . S
Mg411 O428 1.988 . S
Mg411 O429 2.061 . S
Mg412 O410 1.986 . S
Mg412 O420 2.238 . S
Mg412 O424 2.042 . S
Mg412 O426 2.041 . S
Mg412 O433 2.038 . S
C413 O419 1.247 . S
C413 O420 1.289 . S
C414 O432 1.245 . S
C414 O433 1.274 . S
O415 C403 1.241 . S
O415 Mg408 2.042 . S
O416 C403 1.280 . S
O416 Mg406 1.984 . S
O417 C404 1.277 . S
O417 Mg408 2.041 . S
O418 C404 1.245 . S
O418 Mg406 1.988 . S
O419 Mg406 2.061 . S
O419 C413 1.247 . S
O420 Mg409 2.106 . S
O420 Mg412 2.238 . S
O420 C413 1.289 . S
C421 O422 1.245 . S
C421 O423 1.274 . S
O422 Mg409 2.079 . S
O422 C421 1.245 . S
O423 Mg408 2.038 . S
O423 C421 1.274 . S
O424 Mg412 2.042 . S
O424 C427 1.241 . S
O425 Mg411 1.984 . S
O425 C427 1.280 . S
O426 Mg412 2.041 . S
O426 C430 1.277 . S
C427 O424 1.241 . S
C427 O425 1.280 . S
O428 Mg411 1.988 . S
O428 C430 1.245 . S
O429 C405 1.247 . S
O429 Mg411 2.061 . S
C430 O426 1.277 . S
C430 O428 1.245 . S
O431 C405 1.289 . S
O431 Mg408 2.238 . S
O431 Mg409 2.106 . S
O432 Mg409 2.079 . S
O432 C414 1.245 . S
O433 Mg412 2.038 . S
O433 C414 1.274 . S
C434 O446 1.241 . S
C434 O447 1.280 . S
C435 O448 1.277 . S
C435 O449 1.245 . S
C436 O460 1.247 . S
C436 O462 1.289 . S
Mg437 O438 1.926 . S
Mg437 O447 1.984 . S
Mg437 O449 1.988 . S
Mg437 O450 2.061 . S
O438 Mg437 1.926 . S
O438 Mg439 1.986 . S
O438 Mg440 1.917 . S
Mg439 O438 1.986 . S
Mg439 O446 2.042 . S
Mg439 O448 2.041 . S
Mg439 O454 2.038 . S
Mg439 O462 2.238 . S
Mg440 O438 1.917 . S
Mg440 O441 1.917 . S
Mg440 O451 2.106 . S
Mg440 O453 2.079 . S
Mg440 O462 2.106 . S
Mg440 O463 2.079 . S
O441 Mg440 1.917 . S
O441 Mg442 1.926 . S
O441 Mg443 1.986 . S
Mg442 O441 1.926 . S
Mg442 O456 1.984 . S
Mg442 O459 1.988 . S
Mg442 O460 2.061 . S
Mg443 O441 1.986 . S
Mg443 O451 2.238 . S
Mg443 O455 2.042 . S
Mg443 O457 2.041 . S
Mg443 O464 2.038 . S
C444 O450 1.247 . S
C444 O451 1.289 . S
C445 O463 1.245 . S
C445 O464 1.274 . S
O446 C434 1.241 . S
O446 Mg439 2.042 . S
O447 C434 1.280 . S
O447 Mg437 1.984 . S
O448 C435 1.277 . S
O448 Mg439 2.041 . S
O449 C435 1.245 . S
O449 Mg437 1.988 . S
O450 Mg437 2.061 . S
O450 C444 1.247 . S
O451 Mg440 2.106 . S
O451 Mg443 2.238 . S
O451 C444 1.289 . S
C452 O453 1.245 . S
C452 O454 1.274 . S
O453 Mg440 2.079 . S
O453 C452 1.245 . S
O454 Mg439 2.038 . S
O454 C452 1.274 . S
O455 Mg443 2.042 . S
O455 C458 1.241 . S
O456 Mg442 1.984 . S
O456 C458 1.280 . S
O457 Mg443 2.041 . S
O457 C461 1.277 . S
C458 O455 1.241 . S
C458 O456 1.280 . S
O459 Mg442 1.988 . S
O459 C461 1.245 . S
O460 C436 1.247 . S
O460 Mg442 2.061 . S
C461 O457 1.277 . S
C461 O459 1.245 . S
O462 C436 1.289 . S
O462 Mg439 2.238 . S
O462 Mg440 2.106 . S
O463 Mg440 2.079 . S
O463 C445 1.245 . S
O464 Mg443 2.038 . S
O464 C445 1.274 . S
C465 O477 1.241 . S
C465 O478 1.280 . S
C466 O479 1.277 . S
C466 O480 1.245 . S
C467 O491 1.247 . S
C467 O493 1.289 . S
Mg468 O469 1.926 . S
Mg468 O478 1.984 . S
Mg468 O480 1.988 . S
Mg468 O481 2.061 . S
O469 Mg468 1.926 . S
O469 Mg470 1.986 . S
O469 Mg471 1.917 . S
Mg470 O469 1.986 . S
Mg470 O477 2.042 . S
Mg470 O479 2.041 . S
Mg470 O485 2.038 . S
Mg470 O493 2.238 . S
Mg471 O469 1.917 . S
Mg471 O472 1.917 . S
Mg471 O482 2.106 . S
Mg471 O484 2.079 . S
Mg471 O493 2.106 . S
Mg471 O494 2.079 . S
O472 Mg471 1.917 . S
O472 Mg473 1.926 . S
O472 Mg474 1.986 . S
Mg473 O472 1.926 . S
Mg473 O487 1.984 . S
Mg473 O490 1.988 . S
Mg473 O491 2.061 . S
Mg474 O472 1.986 . S
Mg474 O482 2.238 . S
Mg474 O486 2.042 . S
Mg474 O488 2.041 . S
Mg474 O495 2.038 . S
C475 O481 1.247 . S
C475 O482 1.289 . S
C476 O494 1.245 . S
C476 O495 1.274 . S
O477 C465 1.241 . S
O477 Mg470 2.042 . S
O478 C465 1.280 . S
O478 Mg468 1.984 . S
O479 C466 1.277 . S
O479 Mg470 2.041 . S
O480 C466 1.245 . S
O480 Mg468 1.988 . S
O481 Mg468 2.061 . S
O481 C475 1.247 . S
O482 Mg471 2.106 . S
O482 Mg474 2.238 . S
O482 C475 1.289 . S
C483 O484 1.245 . S
C483 O485 1.274 . S
O484 Mg471 2.079 . S
O484 C483 1.245 . S
O485 Mg470 2.038 . S
O485 C483 1.274 . S
O486 Mg474 2.042 . S
O486 C489 1.241 . S
O487 Mg473 1.984 . S
O487 C489 1.280 . S
O488 Mg474 2.041 . S
O488 C492 1.277 . S
C489 O486 1.241 . S
C489 O487 1.280 . S
O490 Mg473 1.988 . S
O490 C492 1.245 . S
O491 C467 1.247 . S
O491 Mg473 2.061 . S
C492 O488 1.277 . S
C492 O490 1.245 . S
O493 C467 1.289 . S
O493 Mg470 2.238 . S
O493 Mg471 2.106 . S
O494 Mg471 2.079 . S
O494 C476 1.245 . S
O495 Mg474 2.038 . S
O495 C476 1.274 . S
C496 O508 1.241 . S
C496 O509 1.280 . S
C497 O510 1.277 . S
C497 O511 1.245 . S
C498 O522 1.247 . S
C498 O524 1.289 . S
Mg499 O500 1.926 . S
Mg499 O509 1.984 . S
Mg499 O511 1.988 . S
Mg499 O512 2.061 . S
O500 Mg499 1.926 . S
O500 Mg501 1.986 . S
O500 Mg502 1.917 . S
Mg501 O500 1.986 . S
Mg501 O508 2.042 . S
Mg501 O510 2.041 . S
Mg501 O516 2.038 . S
Mg501 O524 2.238 . S
Mg502 O500 1.917 . S
Mg502 O503 1.917 . S
Mg502 O513 2.106 . S
Mg502 O515 2.079 . S
Mg502 O524 2.106 . S
Mg502 O525 2.079 . S
O503 Mg502 1.917 . S
O503 Mg504 1.926 . S
O503 Mg505 1.986 . S
Mg504 O503 1.926 . S
Mg504 O518 1.984 . S
Mg504 O521 1.988 . S
Mg504 O522 2.061 . S
Mg505 O503 1.986 . S
Mg505 O513 2.238 . S
Mg505 O517 2.042 . S
Mg505 O519 2.041 . S
Mg505 O526 2.038 . S
C506 O512 1.247 . S
C506 O513 1.289 . S
C507 O525 1.245 . S
C507 O526 1.274 . S
O508 C496 1.241 . S
O508 Mg501 2.042 . S
O509 C496 1.280 . S
O509 Mg499 1.984 . S
O510 C497 1.277 . S
O510 Mg501 2.041 . S
O511 C497 1.245 . S
O511 Mg499 1.988 . S
O512 Mg499 2.061 . S
O512 C506 1.247 . S
O513 Mg502 2.106 . S
O513 Mg505 2.238 . S
O513 C506 1.289 . S
C514 O515 1.245 . S
C514 O516 1.274 . S
O515 Mg502 2.079 . S
O515 C514 1.245 . S
O516 Mg501 2.038 . S
O516 C514 1.274 . S
O517 Mg505 2.042 . S
O517 C520 1.241 . S
O518 Mg504 1.984 . S
O518 C520 1.280 . S
O519 Mg505 2.041 . S
O519 C523 1.277 . S
C520 O517 1.241 . S
C520 O518 1.280 . S
O521 Mg504 1.988 . S
O521 C523 1.245 . S
O522 C498 1.247 . S
O522 Mg504 2.061 . S
C523 O519 1.277 . S
C523 O521 1.245 . S
O524 C498 1.289 . S
O524 Mg501 2.238 . S
O524 Mg502 2.106 . S
O525 Mg502 2.079 . S
O525 C507 1.245 . S
O526 Mg505 2.038 . S
O526 C507 1.274 . S
C527 O539 1.241 . S
C527 O540 1.280 . S
C528 O541 1.277 . S
C528 O542 1.245 . S
C529 O553 1.247 . S
C529 O555 1.289 . S
Mg530 O531 1.926 . S
Mg530 O540 1.984 . S
Mg530 O542 1.988 . S
Mg530 O543 2.061 . S
O531 Mg530 1.926 . S
O531 Mg532 1.986 . S
O531 Mg533 1.917 . S
Mg532 O531 1.986 . S
Mg532 O539 2.042 . S
Mg532 O541 2.041 . S
Mg532 O547 2.038 . S
Mg532 O555 2.238 . S
Mg533 O531 1.917 . S
Mg533 O534 1.917 . S
Mg533 O544 2.106 . S
Mg533 O546 2.079 . S
Mg533 O555 2.106 . S
Mg533 O556 2.079 . S
O534 Mg533 1.917 . S
O534 Mg535 1.926 . S
O534 Mg536 1.986 . S
Mg535 O534 1.926 . S
Mg535 O549 1.984 . S
Mg535 O552 1.988 . S
Mg535 O553 2.061 . S
Mg536 O534 1.986 . S
Mg536 O544 2.238 . S
Mg536 O548 2.042 . S
Mg536 O550 2.041 . S
Mg536 O557 2.038 . S
C537 O543 1.247 . S
C537 O544 1.289 . S
C538 O556 1.245 . S
C538 O557 1.274 . S
O539 C527 1.241 . S
O539 Mg532 2.042 . S
O540 C527 1.280 . S
O540 Mg530 1.984 . S
O541 C528 1.277 . S
O541 Mg532 2.041 . S
O542 C528 1.245 . S
O542 Mg530 1.988 . S
O543 Mg530 2.061 . S
O543 C537 1.247 . S
O544 Mg533 2.106 . S
O544 Mg536 2.238 . S
O544 C537 1.289 . S
C545 O546 1.245 . S
C545 O547 1.274 . S
O546 Mg533 2.079 . S
O546 C545 1.245 . S
O547 Mg532 2.038 . S
O547 C545 1.274 . S
O548 Mg536 2.042 . S
O548 C551 1.241 . S
O549 Mg535 1.984 . S
O549 C551 1.280 . S
O550 Mg536 2.041 . S
O550 C554 1.277 . S
C551 O548 1.241 . S
C551 O549 1.280 . S
O552 Mg535 1.988 . S
O552 C554 1.245 . S
O553 C529 1.247 . S
O553 Mg535 2.061 . S
C554 O550 1.277 . S
C554 O552 1.245 . S
O555 C529 1.289 . S
O555 Mg532 2.238 . S
O555 Mg533 2.106 . S
O556 Mg533 2.079 . S
O556 C538 1.245 . S
O557 Mg536 2.038 . S
O557 C538 1.274 . S
C558 O570 1.241 . S
C558 O571 1.280 . S
C559 O572 1.277 . S
C559 O573 1.245 . S
C560 O584 1.247 . S
C560 O586 1.289 . S
Mg561 O562 1.926 . S
Mg561 O571 1.984 . S
Mg561 O573 1.988 . S
Mg561 O574 2.061 . S
O562 Mg561 1.926 . S
O562 Mg563 1.986 . S
O562 Mg564 1.917 . S
Mg563 O562 1.986 . S
Mg563 O570 2.042 . S
Mg563 O572 2.041 . S
Mg563 O578 2.038 . S
Mg563 O586 2.238 . S
Mg564 O562 1.917 . S
Mg564 O565 1.917 . S
Mg564 O575 2.106 . S
Mg564 O577 2.079 . S
Mg564 O586 2.106 . S
Mg564 O587 2.079 . S
O565 Mg564 1.917 . S
O565 Mg566 1.926 . S
O565 Mg567 1.986 . S
Mg566 O565 1.926 . S
Mg566 O580 1.984 . S
Mg566 O583 1.988 . S
Mg566 O584 2.061 . S
Mg567 O565 1.986 . S
Mg567 O575 2.238 . S
Mg567 O579 2.042 . S
Mg567 O581 2.041 . S
Mg567 O588 2.038 . S
C568 O574 1.247 . S
C568 O575 1.289 . S
C569 O587 1.245 . S
C569 O588 1.274 . S
O570 C558 1.241 . S
O570 Mg563 2.042 . S
O571 C558 1.280 . S
O571 Mg561 1.984 . S
O572 C559 1.277 . S
O572 Mg563 2.041 . S
O573 C559 1.245 . S
O573 Mg561 1.988 . S
O574 Mg561 2.061 . S
O574 C568 1.247 . S
O575 Mg564 2.106 . S
O575 Mg567 2.238 . S
O575 C568 1.289 . S
C576 O577 1.245 . S
C576 O578 1.274 . S
O577 Mg564 2.079 . S
O577 C576 1.245 . S
O578 Mg563 2.038 . S
O578 C576 1.274 . S
O579 Mg567 2.042 . S
O579 C582 1.241 . S
O580 Mg566 1.984 . S
O580 C582 1.280 . S
O581 Mg567 2.041 . S
O581 C585 1.277 . S
C582 O579 1.241 . S
C582 O580 1.280 . S
O583 Mg566 1.988 . S
O583 C585 1.245 . S
O584 C560 1.247 . S
O584 Mg566 2.061 . S
C585 O581 1.277 . S
C585 O583 1.245 . S
O586 C560 1.289 . S
O586 Mg563 2.238 . S
O586 Mg564 2.106 . S
O587 Mg564 2.079 . S
O587 C569 1.245 . S
O588 Mg567 2.038 . S
O588 C569 1.274 . S
C589 O601 1.241 . S
C589 O602 1.280 . S
C590 O603 1.277 . S
C590 O604 1.245 . S
C591 O615 1.247 . S
C591 O617 1.289 . S
Mg592 O593 1.926 . S
Mg592 O602 1.984 . S
Mg592 O604 1.988 . S
Mg592 O605 2.061 . S
O593 Mg592 1.926 . S
O593 Mg594 1.986 . S
O593 Mg595 1.917 . S
Mg594 O593 1.986 . S
Mg594 O601 2.042 . S
Mg594 O603 2.041 . S
Mg594 O609 2.038 . S
Mg594 O617 2.238 . S
Mg595 O593 1.917 . S
Mg595 O596 1.917 . S
Mg595 O606 2.106 . S
Mg595 O608 2.079 . S
Mg595 O617 2.106 . S
Mg595 O618 2.079 . S
O596 Mg595 1.917 . S
O596 Mg597 1.926 . S
O596 Mg598 1.986 . S
Mg597 O596 1.926 . S
Mg597 O611 1.984 . S
Mg597 O614 1.988 . S
Mg597 O615 2.061 . S
Mg598 O596 1.986 . S
Mg598 O606 2.238 . S
Mg598 O610 2.042 . S
Mg598 O612 2.041 . S
Mg598 O619 2.038 . S
C599 O605 1.247 . S
C599 O606 1.289 . S
C600 O618 1.245 . S
C600 O619 1.274 . S
O601 C589 1.241 . S
O601 Mg594 2.042 . S
O602 C589 1.280 . S
O602 Mg592 1.984 . S
O603 C590 1.277 . S
O603 Mg594 2.041 . S
O604 C590 1.245 . S
O604 Mg592 1.988 . S
O605 Mg592 2.061 . S
O605 C599 1.247 . S
O606 Mg595 2.106 . S
O606 Mg598 2.238 . S
O606 C599 1.289 . S
C607 O608 1.245 . S
C607 O609 1.274 . S
O608 Mg595 2.079 . S
O608 C607 1.245 . S
O609 Mg594 2.038 . S
O609 C607 1.274 . S
O610 Mg598 2.042 . S
O610 C613 1.241 . S
O611 Mg597 1.984 . S
O611 C613 1.280 . S
O612 Mg598 2.041 . S
O612 C616 1.277 . S
C613 O610 1.241 . S
C613 O611 1.280 . S
O614 Mg597 1.988 . S
O614 C616 1.245 . S
O615 C591 1.247 . S
O615 Mg597 2.061 . S
C616 O612 1.277 . S
C616 O614 1.245 . S
O617 C591 1.289 . S
O617 Mg594 2.238 . S
O617 Mg595 2.106 . S
O618 Mg595 2.079 . S
O618 C600 1.245 . S
O619 Mg598 2.038 . S
O619 C600 1.274 . S
C620 O632 1.241 . S
C620 O633 1.280 . S
C621 O634 1.277 . S
C621 O635 1.245 . S
C622 O646 1.247 . S
C622 O648 1.289 . S
Mg623 O624 1.926 . S
Mg623 O633 1.984 . S
Mg623 O635 1.988 . S
Mg623 O636 2.061 . S
O624 Mg623 1.926 . S
O624 Mg625 1.986 . S
O624 Mg626 1.917 . S
Mg625 O624 1.986 . S
Mg625 O632 2.042 . S
Mg625 O634 2.041 . S
Mg625 O640 2.038 . S
Mg625 O648 2.238 . S
Mg626 O624 1.917 . S
Mg626 O627 1.917 . S
Mg626 O637 2.106 . S
Mg626 O639 2.079 . S
Mg626 O648 2.106 . S
Mg626 O649 2.079 . S
O627 Mg626 1.917 . S
O627 Mg628 1.926 . S
O627 Mg629 1.986 . S
Mg628 O627 1.926 . S
Mg628 O642 1.984 . S
Mg628 O645 1.988 . S
Mg628 O646 2.061 . S
Mg629 O627 1.986 . S
Mg629 O637 2.238 . S
Mg629 O641 2.042 . S
Mg629 O643 2.041 . S
Mg629 O650 2.038 . S
C630 O636 1.247 . S
C630 O637 1.289 . S
C631 O649 1.245 . S
C631 O650 1.274 . S
O632 C620 1.241 . S
O632 Mg625 2.042 . S
O633 C620 1.280 . S
O633 Mg623 1.984 . S
O634 C621 1.277 . S
O634 Mg625 2.041 . S
O635 C621 1.245 . S
O635 Mg623 1.988 . S
O636 Mg623 2.061 . S
O636 C630 1.247 . S
O637 Mg626 2.106 . S
O637 Mg629 2.238 . S
O637 C630 1.289 . S
C638 O639 1.245 . S
C638 O640 1.274 . S
O639 Mg626 2.079 . S
O639 C638 1.245 . S
O640 Mg625 2.038 . S
O640 C638 1.274 . S
O641 Mg629 2.042 . S
O641 C644 1.241 . S
O642 Mg628 1.984 . S
O642 C644 1.280 . S
O643 Mg629 2.041 . S
O643 C647 1.277 . S
C644 O641 1.241 . S
C644 O642 1.280 . S
O645 Mg628 1.988 . S
O645 C647 1.245 . S
O646 C622 1.247 . S
O646 Mg628 2.061 . S
C647 O643 1.277 . S
C647 O645 1.245 . S
O648 C622 1.289 . S
O648 Mg625 2.238 . S
O648 Mg626 2.106 . S
O649 Mg626 2.079 . S
O649 C631 1.245 . S
O650 Mg629 2.038 . S
O650 C631 1.274 . S
C651 O663 1.241 . S
C651 O664 1.280 . S
C652 O665 1.277 . S
C652 O666 1.245 . S
C653 O677 1.247 . S
C653 O679 1.289 . S
Mg654 O655 1.926 . S
Mg654 O664 1.984 . S
Mg654 O666 1.988 . S
Mg654 O667 2.061 . S
O655 Mg654 1.926 . S
O655 Mg656 1.986 . S
O655 Mg657 1.917 . S
Mg656 O655 1.986 . S
Mg656 O663 2.042 . S
Mg656 O665 2.041 . S
Mg656 O671 2.038 . S
Mg656 O679 2.238 . S
Mg657 O655 1.917 . S
Mg657 O658 1.917 . S
Mg657 O668 2.106 . S
Mg657 O670 2.079 . S
Mg657 O679 2.106 . S
Mg657 O680 2.079 . S
O658 Mg657 1.917 . S
O658 Mg659 1.926 . S
O658 Mg660 1.986 . S
Mg659 O658 1.926 . S
Mg659 O673 1.984 . S
Mg659 O676 1.988 . S
Mg659 O677 2.061 . S
Mg660 O658 1.986 . S
Mg660 O668 2.238 . S
Mg660 O672 2.042 . S
Mg660 O674 2.041 . S
Mg660 O681 2.038 . S
C661 O667 1.247 . S
C661 O668 1.289 . S
C662 O680 1.245 . S
C662 O681 1.274 . S
O663 C651 1.241 . S
O663 Mg656 2.042 . S
O664 C651 1.280 . S
O664 Mg654 1.984 . S
O665 C652 1.277 . S
O665 Mg656 2.041 . S
O666 C652 1.245 . S
O666 Mg654 1.988 . S
O667 Mg654 2.061 . S
O667 C661 1.247 . S
O668 Mg657 2.106 . S
O668 Mg660 2.238 . S
O668 C661 1.289 . S
C669 O670 1.245 . S
C669 O671 1.274 . S
O670 Mg657 2.079 . S
O670 C669 1.245 . S
O671 Mg656 2.038 . S
O671 C669 1.274 . S
O672 Mg660 2.042 . S
O672 C675 1.241 . S
O673 Mg659 1.984 . S
O673 C675 1.280 . S
O674 Mg660 2.041 . S
O674 C678 1.277 . S
C675 O672 1.241 . S
C675 O673 1.280 . S
O676 Mg659 1.988 . S
O676 C678 1.245 . S
O677 C653 1.247 . S
O677 Mg659 2.061 . S
C678 O674 1.277 . S
C678 O676 1.245 . S
O679 C653 1.289 . S
O679 Mg656 2.238 . S
O679 Mg657 2.106 . S
O680 Mg657 2.079 . S
O680 C662 1.245 . S
O681 Mg660 2.038 . S
O681 C662 1.274 . S
C682 O694 1.241 . S
C682 O695 1.280 . S
C683 O696 1.277 . S
C683 O697 1.245 . S
C684 O708 1.247 . S
C684 O710 1.289 . S
Mg685 O686 1.926 . S
Mg685 O695 1.984 . S
Mg685 O697 1.988 . S
Mg685 O698 2.061 . S
O686 Mg685 1.926 . S
O686 Mg687 1.986 . S
O686 Mg688 1.917 . S
Mg687 O686 1.986 . S
Mg687 O694 2.042 . S
Mg687 O696 2.041 . S
Mg687 O702 2.038 . S
Mg687 O710 2.238 . S
Mg688 O686 1.917 . S
Mg688 O689 1.917 . S
Mg688 O699 2.106 . S
Mg688 O701 2.079 . S
Mg688 O710 2.106 . S
Mg688 O711 2.079 . S
O689 Mg688 1.917 . S
O689 Mg690 1.926 . S
O689 Mg691 1.986 . S
Mg690 O689 1.926 . S
Mg690 O704 1.984 . S
Mg690 O707 1.988 . S
Mg690 O708 2.061 . S
Mg691 O689 1.986 . S
Mg691 O699 2.238 . S
Mg691 O703 2.042 . S
Mg691 O705 2.041 . S
Mg691 O712 2.038 . S
C692 O698 1.247 . S
C692 O699 1.289 . S
C693 O711 1.245 . S
C693 O712 1.274 . S
O694 C682 1.241 . S
O694 Mg687 2.042 . S
O695 C682 1.280 . S
O695 Mg685 1.984 . S
O696 C683 1.277 . S
O696 Mg687 2.041 . S
O697 C683 1.245 . S
O697 Mg685 1.988 . S
O698 Mg685 2.061 . S
O698 C692 1.247 . S
O699 Mg688 2.106 . S
O699 Mg691 2.238 . S
O699 C692 1.289 . S
C700 O701 1.245 . S
C700 O702 1.274 . S
O701 Mg688 2.079 . S
O701 C700 1.245 . S
O702 Mg687 2.038 . S
O702 C700 1.274 . S
O703 Mg691 2.042 . S
O703 C706 1.241 . S
O704 Mg690 1.984 . S
O704 C706 1.280 . S
O705 Mg691 2.041 . S
O705 C709 1.277 . S
C706 O703 1.241 . S
C706 O704 1.280 . S
O707 Mg690 1.988 . S
O707 C709 1.245 . S
O708 C684 1.247 . S
O708 Mg690 2.061 . S
C709 O705 1.277 . S
C709 O707 1.245 . S
O710 C684 1.289 . S
O710 Mg687 2.238 . S
O710 Mg688 2.106 . S
O711 Mg688 2.079 . S
O711 C693 1.245 . S
O712 Mg691 2.038 . S
O712 C693 1.274 . S
C713 O725 1.241 . S
C713 O726 1.280 . S
C714 O727 1.277 . S
C714 O728 1.245 . S
C715 O739 1.247 . S
C715 O741 1.289 . S
Mg716 O717 1.926 . S
Mg716 O726 1.984 . S
Mg716 O728 1.988 . S
Mg716 O729 2.061 . S
O717 Mg716 1.926 . S
O717 Mg718 1.986 . S
O717 Mg719 1.917 . S
Mg718 O717 1.986 . S
Mg718 O725 2.042 . S
Mg718 O727 2.041 . S
Mg718 O733 2.038 . S
Mg718 O741 2.238 . S
Mg719 O717 1.917 . S
Mg719 O720 1.917 . S
Mg719 O730 2.106 . S
Mg719 O732 2.079 . S
Mg719 O741 2.106 . S
Mg719 O742 2.079 . S
O720 Mg719 1.917 . S
O720 Mg721 1.926 . S
O720 Mg722 1.986 . S
Mg721 O720 1.926 . S
Mg721 O735 1.984 . S
Mg721 O738 1.988 . S
Mg721 O739 2.061 . S
Mg722 O720 1.986 . S
Mg722 O730 2.238 . S
Mg722 O734 2.042 . S
Mg722 O736 2.041 . S
Mg722 O743 2.038 . S
C723 O729 1.247 . S
C723 O730 1.289 . S
C724 O742 1.245 . S
C724 O743 1.274 . S
O725 C713 1.241 . S
O725 Mg718 2.042 . S
O726 C713 1.280 . S
O726 Mg716 1.984 . S
O727 C714 1.277 . S
O727 Mg718 2.041 . S
O728 C714 1.245 . S
O728 Mg716 1.988 . S
O729 Mg716 2.061 . S
O729 C723 1.247 . S
O730 Mg719 2.106 . S
O730 Mg722 2.238 . S
O730 C723 1.289 . S
C731 O732 1.245 . S
C731 O733 1.274 . S
O732 Mg719 2.079 . S
O732 C731 1.245 . S
O733 Mg718 2.038 . S
O733 C731 1.274 . S
O734 Mg722 2.042 . S
O734 C737 1.241 . S
O735 Mg721 1.984 . S
O735 C737 1.280 . S
O736 Mg722 2.041 . S
O736 C740 1.277 . S
C737 O734 1.241 . S
C737 O735 1.280 . S
O738 Mg721 1.988 . S
O738 C740 1.245 . S
O739 C715 1.247 . S
O739 Mg721 2.061 . S
C740 O736 1.277 . S
C740 O738 1.245 . S
O741 C715 1.289 . S
O741 Mg718 2.238 . S
O741 Mg719 2.106 . S
O742 Mg719 2.079 . S
O742 C724 1.245 . S
O743 Mg722 2.038 . S
O743 C724 1.274 . S
C744 C745 1.349 . S
C744 C746 1.327 . S
C744 H769 0.950 . S
C745 C744 1.349 . S
C745 C761 1.349 . S
C746 C744 1.327 . S
C746 C765 1.429 . S
C746 H770 0.950 . S
C747 C764 1.574 . S
C747 C766 1.368 . S
C747 H771 0.949 . S
H748 C752 0.949 . S
C749 C750 1.349 . S
C749 C751 1.327 . S
C749 H772 0.950 . S
C750 C749 1.349 . S
C750 C762 1.349 . S
C751 C749 1.327 . S
C751 C767 1.429 . S
C751 H773 0.950 . S
C752 H748 0.949 . S
C752 C760 1.574 . S
C752 C768 1.368 . S
H753 C761 0.950 . S
H754 C759 0.950 . S
H755 C760 0.949 . S
H756 C762 0.950 . S
H757 C763 0.950 . S
H758 C764 0.949 . S
C759 H754 0.950 . S
C759 C761 1.327 . S
C759 C765 1.429 . S
C760 C752 1.574 . S
C760 H755 0.949 . S
C760 C766 1.368 . S
C761 C745 1.349 . S
C761 H753 0.950 . S
C761 C759 1.327 . S
C762 C750 1.349 . S
C762 H756 0.950 . S
C762 C763 1.327 . S
C763 H757 0.950 . S
C763 C762 1.327 . S
C763 C767 1.429 . S
C764 C747 1.574 . S
C764 H758 0.949 . S
C764 C768 1.368 . S
C765 C746 1.429 . S
C765 C759 1.429 . S
C765 C766 1.523 . S
C766 C747 1.368 . S
C766 C760 1.368 . S
C766 C765 1.523 . S
C767 C751 1.429 . S
C767 C763 1.429 . S
C767 C768 1.523 . S
C768 C752 1.368 . S
C768 C764 1.368 . S
C768 C767 1.523 . S
H769 C744 0.950 . S
H770 C746 0.950 . S
H771 C747 0.949 . S
H772 C749 0.950 . S
H773 C751 0.950 . S
C774 C775 1.349 . S
C774 C776 1.327 . S
C774 H799 0.950 . S
C775 C774 1.349 . S
C775 C791 1.349 . S
C776 C774 1.327 . S
C776 C795 1.429 . S
C776 H800 0.950 . S
C777 C794 1.574 . S
C777 C796 1.368 . S
C777 H801 0.949 . S
H778 C782 0.949 . S
C779 C780 1.349 . S
C779 C781 1.327 . S
C779 H802 0.950 . S
C780 C779 1.349 . S
C780 C792 1.349 . S
C781 C779 1.327 . S
C781 C797 1.429 . S
C781 H803 0.950 . S
C782 H778 0.949 . S
C782 C790 1.574 . S
C782 C798 1.368 . S
H783 C791 0.950 . S
H784 C789 0.950 . S
H785 C790 0.949 . S
H786 C792 0.950 . S
H787 C793 0.950 . S
H788 C794 0.949 . S
C789 H784 0.950 . S
C789 C791 1.327 . S
C789 C795 1.429 . S
C790 C782 1.574 . S
C790 H785 0.949 . S
C790 C796 1.368 . S
C791 C775 1.349 . S
C791 H783 0.950 . S
C791 C789 1.327 . S
C792 C780 1.349 . S
C792 H786 0.950 . S
C792 C793 1.327 . S
C793 H787 0.950 . S
C793 C792 1.327 . S
C793 C797 1.429 . S
C794 C777 1.574 . S
C794 H788 0.949 . S
C794 C798 1.368 . S
C795 C776 1.429 . S
C795 C789 1.429 . S
C795 C796 1.523 . S
C796 C777 1.368 . S
C796 C790 1.368 . S
C796 C795 1.523 . S
C797 C781 1.429 . S
C797 C793 1.429 . S
C797 C798 1.523 . S
C798 C782 1.368 . S
C798 C794 1.368 . S
C798 C797 1.523 . S
H799 C774 0.950 . S
H800 C776 0.950 . S
H801 C777 0.949 . S
H802 C779 0.950 . S
H803 C781 0.950 . S
C804 C805 1.349 . S
C804 C806 1.327 1_565 S
C804 H829 0.950 . S
C805 C804 1.349 . S
C805 C821 1.349 . S
C806 C804 1.327 1_545 S
C806 C825 1.429 . S
C806 H830 0.950 . S
C807 C824 1.574 . S
C807 C826 1.368 . S
C807 H831 0.949 . S
H808 C812 0.949 . S
C809 C810 1.349 . S
C809 C811 1.327 . S
C809 H832 0.950 . S
C810 C809 1.349 . S
C810 C822 1.349 . S
C811 C809 1.327 . S
C811 C827 1.429 . S
C811 H833 0.950 . S
C812 H808 0.949 . S
C812 C820 1.574 . S
C812 C828 1.368 . S
H813 C821 0.950 . S
H814 C819 0.950 . S
H815 C820 0.949 . S
H816 C822 0.950 . S
H817 C823 0.950 . S
H818 C824 0.949 . S
C819 H814 0.950 . S
C819 C821 1.327 1_545 S
C819 C825 1.429 . S
C820 C812 1.574 . S
C820 H815 0.949 . S
C820 C826 1.368 . S
C821 C805 1.349 . S
C821 H813 0.950 . S
C821 C819 1.327 1_565 S
C822 C810 1.349 . S
C822 H816 0.950 . S
C822 C823 1.327 . S
C823 H817 0.950 . S
C823 C822 1.327 . S
C823 C827 1.429 . S
C824 C807 1.574 . S
C824 H818 0.949 . S
C824 C828 1.368 . S
C825 C806 1.429 . S
C825 C819 1.429 . S
C825 C826 1.523 . S
C826 C807 1.368 . S
C826 C820 1.368 . S
C826 C825 1.523 . S
C827 C811 1.429 . S
C827 C823 1.429 . S
C827 C828 1.523 . S
C828 C812 1.368 . S
C828 C824 1.368 . S
C828 C827 1.523 . S
H829 C804 0.950 . S
H830 C806 0.950 . S
H831 C807 0.949 . S
H832 C809 0.950 . S
H833 C811 0.950 . S
C834 C835 1.349 . S
C834 C836 1.327 . S
C834 H859 0.950 . S
C835 C834 1.349 . S
C835 C851 1.349 . S
C836 C834 1.327 . S
C836 C855 1.429 . S
C836 H860 0.950 . S
C837 C854 1.574 . S
C837 C856 1.368 . S
C837 H861 0.949 . S
H838 C842 0.949 . S
C839 C840 1.349 . S
C839 C841 1.327 . S
C839 H862 0.950 . S
C840 C839 1.349 . S
C840 C852 1.349 . S
C841 C839 1.327 . S
C841 C857 1.429 1_545 S
C841 H863 0.950 . S
C842 H838 0.949 . S
C842 C850 1.574 . S
C842 C858 1.368 . S
H843 C851 0.950 . S
H844 C849 0.950 . S
H845 C850 0.949 . S
H846 C852 0.950 . S
H847 C853 0.950 . S
H848 C854 0.949 . S
C849 H844 0.950 . S
C849 C851 1.327 . S
C849 C855 1.429 . S
C850 C842 1.574 . S
C850 H845 0.949 . S
C850 C856 1.368 . S
C851 C835 1.349 . S
C851 H843 0.950 . S
C851 C849 1.327 . S
C852 C840 1.349 . S
C852 H846 0.950 . S
C852 C853 1.327 1_545 S
C853 H847 0.950 . S
C853 C852 1.327 1_565 S
C853 C857 1.429 . S
C854 C837 1.574 . S
C854 H848 0.949 . S
C854 C858 1.368 . S
C855 C836 1.429 . S
C855 C849 1.429 . S
C855 C856 1.523 . S
C856 C837 1.368 . S
C856 C850 1.368 . S
C856 C855 1.523 . S
C857 C841 1.429 1_565 S
C857 C853 1.429 . S
C857 C858 1.523 . S
C858 C842 1.368 . S
C858 C854 1.368 . S
C858 C857 1.523 . S
H859 C834 0.950 . S
H860 C836 0.950 . S
H861 C837 0.949 . S
H862 C839 0.950 . S
H863 C841 0.950 . S
C864 C865 1.349 . S
C864 C866 1.327 . S
C864 H889 0.950 . S
C865 C864 1.349 . S
C865 C881 1.349 . S
C866 C864 1.327 . S
C866 C885 1.429 . S
C866 H890 0.950 . S
C867 C884 1.574 . S
C867 C886 1.368 . S
C867 H891 0.949 . S
H868 C872 0.949 . S
C869 C870 1.349 . S
C869 C871 1.327 . S
C869 H892 0.950 . S
C870 C869 1.349 . S
C870 C882 1.349 . S
C871 C869 1.327 . S
C871 C887 1.429 . S
C871 H893 0.950 . S
C872 H868 0.949 . S
C872 C880 1.574 . S
C872 C888 1.368 . S
H873 C881 0.950 . S
H874 C879 0.950 . S
H875 C880 0.949 . S
H876 C882 0.950 . S
H877 C883 0.950 . S
H878 C884 0.949 . S
C879 H874 0.950 . S
C879 C881 1.327 . S
C879 C885 1.429 . S
C880 C872 1.574 . S
C880 H875 0.949 . S
C880 C886 1.368 . S
C881 C865 1.349 . S
C881 H873 0.950 . S
C881 C879 1.327 . S
C882 C870 1.349 . S
C882 H876 0.950 . S
C882 C883 1.327 . S
C883 H877 0.950 . S
C883 C882 1.327 . S
C883 C887 1.429 . S
C884 C867 1.574 . S
C884 H878 0.949 . S
C884 C888 1.368 . S
C885 C866 1.429 . S
C885 C879 1.429 . S
C885 C886 1.523 . S
C886 C867 1.368 . S
C886 C880 1.368 . S
C886 C885 1.523 . S
C887 C871 1.429 . S
C887 C883 1.429 . S
C887 C888 1.523 . S
C888 C872 1.368 . S
C888 C884 1.368 . S
C888 C887 1.523 . S
H889 C864 0.950 . S
H890 C866 0.950 . S
H891 C867 0.949 . S
H892 C869 0.950 . S
H893 C871 0.950 . S
C894 C895 1.349 . S
C894 C896 1.327 1_554 S
C894 H919 0.950 . S
C895 C894 1.349 . S
C895 C911 1.349 . S
C896 C894 1.327 1_556 S
C896 C915 1.429 . S
C896 H920 0.950 . S
C897 C914 1.574 . S
C897 C916 1.368 . S
C897 H921 0.949 . S
H898 C902 0.949 . S
C899 C900 1.349 . S
C899 C901 1.327 . S
C899 H922 0.950 . S
C900 C899 1.349 . S
C900 C912 1.349 . S
C901 C899 1.327 . S
C901 C917 1.429 . S
C901 H923 0.950 . S
C902 H898 0.949 . S
C902 C910 1.574 . S
C902 C918 1.368 . S
H903 C911 0.950 . S
H904 C909 0.957 . S
H905 C910 0.949 . S
H906 C912 0.950 . S
H907 C913 0.950 . S
H908 C914 0.949 . S
C909 H904 0.957 . S
C909 C911 1.327 . S
C909 C915 1.429 1_554 S
C910 C902 1.574 . S
C910 H905 0.949 . S
C910 C916 1.368 . S
C911 C895 1.349 . S
C911 H903 0.950 . S
C911 C909 1.327 . S
C912 C900 1.349 . S
C912 H906 0.950 . S
C912 C913 1.327 . S
C913 H907 0.950 . S
C913 C912 1.327 . S
C913 C917 1.429 . S
C914 C897 1.574 . S
C914 H908 0.949 . S
C914 C918 1.368 . S
C915 C896 1.429 . S
C915 C909 1.429 1_556 S
C915 C916 1.523 . S
C916 C897 1.368 . S
C916 C910 1.368 . S
C916 C915 1.523 . S
C917 C901 1.429 . S
C917 C913 1.429 . S
C917 C918 1.523 . S
C918 C902 1.368 . S
C918 C914 1.368 . S
C918 C917 1.523 . S
H919 C894 0.950 . S
H920 C896 0.950 . S
H921 C897 0.949 . S
H922 C899 0.950 . S
H923 C901 0.950 . S
C924 C925 1.349 . S
C924 C926 1.327 . S
C924 H949 0.950 . S
C925 C924 1.349 . S
C925 C941 1.349 . S
C926 C924 1.327 . S
C926 C945 1.429 . S
C926 H950 0.950 . S
C927 C944 1.574 . S
C927 C946 1.368 . S
C927 H951 0.949 . S
H928 C932 0.949 . S
C929 C930 1.349 . S
C929 C931 1.327 . S
C929 H952 0.950 . S
C930 C929 1.349 . S
C930 C942 1.349 . S
C931 C929 1.327 . S
C931 C947 1.429 . S
C931 H953 0.950 . S
C932 H928 0.949 . S
C932 C940 1.574 . S
C932 C948 1.368 . S
H933 C941 0.950 . S
H934 C939 0.950 . S
H935 C940 0.949 . S
H936 C942 0.950 . S
H937 C943 0.950 . S
H938 C944 0.949 . S
C939 H934 0.950 . S
C939 C941 1.327 . S
C939 C945 1.429 . S
C940 C932 1.574 . S
C940 H935 0.949 . S
C940 C946 1.368 . S
C941 C925 1.349 . S
C941 H933 0.950 . S
C941 C939 1.327 . S
C942 C930 1.349 . S
C942 H936 0.950 . S
C942 C943 1.327 . S
C943 H937 0.950 . S
C943 C942 1.327 . S
C943 C947 1.429 . S
C944 C927 1.574 . S
C944 H938 0.949 . S
C944 C948 1.368 . S
C945 C926 1.429 . S
C945 C939 1.429 . S
C945 C946 1.523 . S
C946 C927 1.368 . S
C946 C940 1.368 . S
C946 C945 1.523 . S
C947 C931 1.429 . S
C947 C943 1.429 . S
C947 C948 1.523 . S
C948 C932 1.368 . S
C948 C944 1.368 . S
C948 C947 1.523 . S
H949 C924 0.950 . S
H950 C926 0.950 . S
H951 C927 0.949 . S
H952 C929 0.950 . S
H953 C931 0.950 . S
C954 C955 1.349 . S
C954 C956 1.327 1_556 S
C954 H979 0.950 . S
C955 C954 1.349 . S
C955 C971 1.349 . S
C956 C954 1.327 1_554 S
C956 C975 1.429 . S
C956 H980 0.950 . S
C957 C974 1.574 . S
C957 C976 1.368 . S
C957 H981 0.949 . S
H958 C962 0.949 . S
C959 C960 1.349 . S
C959 C961 1.327 . S
C959 H982 0.950 . S
C960 C959 1.349 . S
C960 C972 1.349 . S
C961 C959 1.327 . S
C961 C977 1.429 . S
C961 H983 0.950 . S
C962 H958 0.949 . S
C962 C970 1.574 . S
C962 C978 1.368 . S
H963 C971 0.950 . S
H964 C969 0.953 . S
H965 C970 0.949 . S
H966 C972 0.950 . S
H967 C973 0.950 . S
H968 C974 0.949 . S
C969 H964 0.953 . S
C969 C971 1.327 . S
C969 C975 1.429 1_556 S
C970 C962 1.574 . S
C970 H965 0.949 . S
C970 C976 1.368 . S
C971 C955 1.349 . S
C971 H963 0.950 . S
C971 C969 1.327 . S
C972 C960 1.349 . S
C972 H966 0.950 . S
C972 C973 1.327 . S
C973 H967 0.950 . S
C973 C972 1.327 . S
C973 C977 1.429 . S
C974 C957 1.574 . S
C974 H968 0.949 . S
C974 C978 1.368 . S
C975 C956 1.429 . S
C975 C969 1.429 1_554 S
C975 C976 1.523 . S
C976 C957 1.368 . S
C976 C970 1.368 . S
C976 C975 1.523 . S
C977 C961 1.429 . S
C977 C973 1.429 . S
C977 C978 1.523 . S
C978 C962 1.368 . S
C978 C974 1.368 . S
C978 C977 1.523 . S
H979 C954 0.950 . S
H980 C956 0.950 . S
H981 C957 0.949 . S
H982 C959 0.950 . S
H983 C961 0.950 . S
C984 C985 1.349 . S
C984 C986 1.327 . S
C984 H1009 0.950 . S
C985 C984 1.349 . S
C985 C1001 1.349 . S
C986 C984 1.327 . S
C986 C1005 1.429 . S
C986 H1010 0.950 . S
C987 C1004 1.574 . S
C987 C1006 1.368 . S
C987 H1011 0.949 . S
H988 C992 0.949 . S
C989 C990 1.349 . S
C989 C991 1.327 . S
C989 H1012 0.950 . S
C990 C989 1.349 . S
C990 C1002 1.349 . S
C991 C989 1.327 . S
C991 C1007 1.429 . S
C991 H1013 0.950 . S
C992 H988 0.949 . S
C992 C1000 1.574 . S
C992 C1008 1.368 . S
H993 C1001 0.950 . S
H994 C999 0.950 . S
H995 C1000 0.949 . S
H996 C1002 0.950 . S
H997 C1003 0.950 . S
H998 C1004 0.949 . S
C999 H994 0.950 . S
C999 C1001 1.327 . S
C999 C1005 1.429 . S
C1000 C992 1.574 . S
C1000 H995 0.949 . S
C1000 C1006 1.368 . S
C1001 C985 1.349 . S
C1001 H993 0.950 . S
C1001 C999 1.327 . S
C1002 C990 1.349 . S
C1002 H996 0.950 . S
C1002 C1003 1.327 . S
C1003 H997 0.950 . S
C1003 C1002 1.327 . S
C1003 C1007 1.429 . S
C1004 C987 1.574 . S
C1004 H998 0.949 . S
C1004 C1008 1.368 . S
C1005 C986 1.429 . S
C1005 C999 1.429 . S
C1005 C1006 1.523 . S
C1006 C987 1.368 . S
C1006 C1000 1.368 . S
C1006 C1005 1.523 . S
C1007 C991 1.429 . S
C1007 C1003 1.429 . S
C1007 C1008 1.523 . S
C1008 C992 1.368 . S
C1008 C1004 1.368 . S
C1008 C1007 1.523 . S
H1009 C984 0.950 . S
H1010 C986 0.950 . S
H1011 C987 0.949 . S
H1012 C989 0.950 . S
H1013 C991 0.950 . S
C1014 C1015 1.349 . S
C1014 C1016 1.327 . S
C1014 H1039 0.950 . S
C1015 C1014 1.349 . S
C1015 C1031 1.349 . S
C1016 C1014 1.327 . S
C1016 C1035 1.429 1_455 S
C1016 H1040 0.951 . S
C1017 C1034 1.574 . S
C1017 C1036 1.368 . S
C1017 H1041 0.949 . S
H1018 C1022 0.949 . S
C1019 C1020 1.349 . S
C1019 C1021 1.327 . S
C1019 H1042 0.950 . S
C1020 C1019 1.349 . S
C1020 C1032 1.349 . S
C1021 C1019 1.327 . S
C1021 C1037 1.429 . S
C1021 H1043 0.950 . S
C1022 H1018 0.949 . S
C1022 C1030 1.574 . S
C1022 C1038 1.368 . S
H1023 C1031 0.950 . S
H1024 C1029 0.950 . S
H1025 C1030 0.949 . S
H1026 C1032 0.950 . S
H1027 C1033 0.950 . S
H1028 C1034 0.949 . S
C1029 H1024 0.950 . S
C1029 C1031 1.327 1_655 S
C1029 C1035 1.429 . S
C1030 C1022 1.574 . S
C1030 H1025 0.949 . S
C1030 C1036 1.368 . S
C1031 C1015 1.349 . S
C1031 H1023 0.950 . S
C1031 C1029 1.327 1_455 S
C1032 C1020 1.349 . S
C1032 H1026 0.950 . S
C1032 C1033 1.327 . S
C1033 H1027 0.950 . S
C1033 C1032 1.327 . S
C1033 C1037 1.429 . S
C1034 C1017 1.574 . S
C1034 H1028 0.949 . S
C1034 C1038 1.368 . S
C1035 C1016 1.429 1_655 S
C1035 C1029 1.429 . S
C1035 C1036 1.523 . S
C1036 C1017 1.368 . S
C1036 C1030 1.368 . S
C1036 C1035 1.523 . S
C1037 C1021 1.429 . S
C1037 C1033 1.429 . S
C1037 C1038 1.523 . S
C1038 C1022 1.368 . S
C1038 C1034 1.368 . S
C1038 C1037 1.523 . S
H1039 C1014 0.950 . S
H1040 C1016 0.951 . S
H1041 C1017 0.949 . S
H1042 C1019 0.950 . S
H1043 C1021 0.950 . S
C1044 C1045 1.349 . S
C1044 C1046 1.327 . S
C1044 H1069 0.950 . S
C1045 C1044 1.349 . S
C1045 C1061 1.349 . S
C1046 C1044 1.327 . S
C1046 C1065 1.429 . S
C1046 H1070 0.950 . S
C1047 C1064 1.574 . S
C1047 C1066 1.368 . S
C1047 H1071 0.949 . S
H1048 C1052 0.949 . S
C1049 C1050 1.349 . S
C1049 C1051 1.327 . S
C1049 H1072 0.950 . S
C1050 C1049 1.349 . S
C1050 C1062 1.349 . S
C1051 C1049 1.327 . S
C1051 C1067 1.429 . S
C1051 H1073 0.950 . S
C1052 H1048 0.949 . S
C1052 C1060 1.574 . S
C1052 C1068 1.368 . S
H1053 C1061 0.950 . S
H1054 C1059 0.950 . S
H1055 C1060 0.949 . S
H1056 C1062 0.950 . S
H1057 C1063 0.950 . S
H1058 C1064 0.949 . S
C1059 H1054 0.950 . S
C1059 C1061 1.327 . S
C1059 C1065 1.429 . S
C1060 C1052 1.574 . S
C1060 H1055 0.949 . S
C1060 C1066 1.368 . S
C1061 C1045 1.349 . S
C1061 H1053 0.950 . S
C1061 C1059 1.327 . S
C1062 C1050 1.349 . S
C1062 H1056 0.950 . S
C1062 C1063 1.327 . S
C1063 H1057 0.950 . S
C1063 C1062 1.327 . S
C1063 C1067 1.429 . S
C1064 C1047 1.574 . S
C1064 H1058 0.949 . S
C1064 C1068 1.368 . S
C1065 C1046 1.429 . S
C1065 C1059 1.429 . S
C1065 C1066 1.523 . S
C1066 C1047 1.368 . S
C1066 C1060 1.368 . S
C1066 C1065 1.523 . S
C1067 C1051 1.429 . S
C1067 C1063 1.429 . S
C1067 C1068 1.523 . S
C1068 C1052 1.368 . S
C1068 C1064 1.368 . S
C1068 C1067 1.523 . S
H1069 C1044 0.950 . S
H1070 C1046 0.950 . S
H1071 C1047 0.949 . S
H1072 C1049 0.950 . S
H1073 C1051 0.950 . S
C1074 C1075 1.349 . S
C1074 C1076 1.327 1_655 S
C1074 H1099 0.950 . S
C1075 C1074 1.349 . S
C1075 C1091 1.349 . S
C1076 C1074 1.327 1_455 S
C1076 C1095 1.429 . S
C1076 H1100 0.950 . S
C1077 C1094 1.574 . S
C1077 C1096 1.368 . S
C1077 H1101 0.949 . S
H1078 C1082 0.949 . S
C1079 C1080 1.349 . S
C1079 C1081 1.327 . S
C1079 H1102 0.950 . S
C1080 C1079 1.349 . S
C1080 C1092 1.349 . S
C1081 C1079 1.327 . S
C1081 C1097 1.429 . S
C1081 H1103 0.950 . S
C1082 H1078 0.949 . S
C1082 C1090 1.574 . S
C1082 C1098 1.368 . S
H1083 C1091 0.950 . S
H1084 C1089 0.950 . S
H1085 C1090 0.949 . S
H1086 C1092 0.950 . S
H1087 C1093 0.950 . S
H1088 C1094 0.949 . S
C1089 H1084 0.950 . S
C1089 C1091 1.327 1_455 S
C1089 C1095 1.429 . S
C1090 C1082 1.574 . S
C1090 H1085 0.949 . S
C1090 C1096 1.368 . S
C1091 C1075 1.349 . S
C1091 H1083 0.950 . S
C1091 C1089 1.327 1_655 S
C1092 C1080 1.349 . S
C1092 H1086 0.950 . S
C1092 C1093 1.327 . S
C1093 H1087 0.950 . S
C1093 C1092 1.327 . S
C1093 C1097 1.429 . S
C1094 C1077 1.574 . S
C1094 H1088 0.949 . S
C1094 C1098 1.368 . S
C1095 C1076 1.429 . S
C1095 C1089 1.429 . S
C1095 C1096 1.523 . S
C1096 C1077 1.368 . S
C1096 C1090 1.368 . S
C1096 C1095 1.523 . S
C1097 C1081 1.429 . S
C1097 C1093 1.429 . S
C1097 C1098 1.523 . S
C1098 C1082 1.368 . S
C1098 C1094 1.368 . S
C1098 C1097 1.523 . S
H1099 C1074 0.950 . S
H1100 C1076 0.950 . S
H1101 C1077 0.949 . S
H1102 C1079 0.950 . S
H1103 C1081 0.950 . S
C1104 C1105 1.349 . S
C1104 C1106 1.327 . S
C1104 H1129 0.950 . S
C1105 C1104 1.349 . S
C1105 C1121 1.349 . S
C1106 C1104 1.327 . S
C1106 C1125 1.429 . S
C1106 H1130 0.950 . S
C1107 C1124 1.574 . S
C1107 C1126 1.368 . S
C1107 H1131 0.949 . S
H1108 C1112 0.949 . S
C1109 C1110 1.349 . S
C1109 C1111 1.327 . S
C1109 H1132 0.950 . S
C1110 C1109 1.349 . S
C1110 C1122 1.349 . S
C1111 C1109 1.327 . S
C1111 C1127 1.429 . S
C1111 H1133 0.950 . S
C1112 H1108 0.949 . S
C1112 C1120 1.574 . S
C1112 C1128 1.368 . S
H1113 C1121 0.950 . S
H1114 C1119 0.950 . S
H1115 C1120 0.949 . S
H1116 C1122 0.950 . S
H1117 C1123 0.950 . S
H1118 C1124 0.949 . S
C1119 H1114 0.950 . S
C1119 C1121 1.327 . S
C1119 C1125 1.429 . S
C1120 C1112 1.574 . S
C1120 H1115 0.949 . S
C1120 C1126 1.368 . S
C1121 C1105 1.349 . S
C1121 H1113 0.950 . S
C1121 C1119 1.327 . S
C1122 C1110 1.349 . S
C1122 H1116 0.950 . S
C1122 C1123 1.327 . S
C1123 H1117 0.950 . S
C1123 C1122 1.327 . S
C1123 C1127 1.429 . S
C1124 C1107 1.574 . S
C1124 H1118 0.949 . S
C1124 C1128 1.368 . S
C1125 C1106 1.429 . S
C1125 C1119 1.429 . S
C1125 C1126 1.523 . S
C1126 C1107 1.368 . S
C1126 C1120 1.368 . S
C1126 C1125 1.523 . S
C1127 C1111 1.429 . S
C1127 C1123 1.429 . S
C1127 C1128 1.523 . S
C1128 C1112 1.368 . S
C1128 C1124 1.368 . S
C1128 C1127 1.523 . S
H1129 C1104 0.950 . S
H1130 C1106 0.950 . S
H1131 C1107 0.949 . S
H1132 C1109 0.950 . S
H1133 C1111 0.950 . S
C1134 C1135 1.349 . S
C1134 C1136 1.327 . S
C1134 H1159 0.950 . S
C1135 C1134 1.349 . S
C1135 C1151 1.349 . S
C1136 C1134 1.327 . S
C1136 C1155 1.429 . S
C1136 H1160 0.950 . S
C1137 C1154 1.574 . S
C1137 C1156 1.368 . S
C1137 H1161 0.949 . S
H1138 C1142 0.949 . S
C1139 C1140 1.349 . S
C1139 C1141 1.327 . S
C1139 H1162 0.950 . S
C1140 C1139 1.349 . S
C1140 C1152 1.349 . S
C1141 C1139 1.327 . S
C1141 C1157 1.429 . S
C1141 H1163 0.950 . S
C1142 H1138 0.949 . S
C1142 C1150 1.574 . S
C1142 C1158 1.368 . S
H1143 C1151 0.950 . S
H1144 C1149 0.950 . S
H1145 C1150 0.949 . S
H1146 C1152 0.950 . S
H1147 C1153 0.950 . S
H1148 C1154 0.949 . S
C1149 H1144 0.950 . S
C1149 C1151 1.327 . S
C1149 C1155 1.429 . S
C1150 C1142 1.574 . S
C1150 H1145 0.949 . S
C1150 C1156 1.368 . S
C1151 C1135 1.349 . S
C1151 H1143 0.950 . S
C1151 C1149 1.327 . S
C1152 C1140 1.349 . S
C1152 H1146 0.950 . S
C1152 C1153 1.327 . S
C1153 H1147 0.950 . S
C1153 C1152 1.327 . S
C1153 C1157 1.429 . S
C1154 C1137 1.574 . S
C1154 H1148 0.949 . S
C1154 C1158 1.368 . S
C1155 C1136 1.429 . S
C1155 C1149 1.429 . S
C1155 C1156 1.523 . S
C1156 C1137 1.368 . S
C1156 C1150 1.368 . S
C1156 C1155 1.523 . S
C1157 C1141 1.429 . S
C1157 C1153 1.429 . S
C1157 C1158 1.523 . S
C1158 C1142 1.368 . S
C1158 C1154 1.368 . S
C1158 C1157 1.523 . S
H1159 C1134 0.950 . S
H1160 C1136 0.950 . S
H1161 C1137 0.949 . S
H1162 C1139 0.950 . S
H1163 C1141 0.950 . S
C1164 C1165 1.349 . S
C1164 C1166 1.327 . S
C1164 H1189 0.950 . S
C1165 C1164 1.349 . S
C1165 C1181 1.349 . S
C1166 C1164 1.327 . S
C1166 C1185 1.429 1_545 S
C1166 H1190 0.950 . S
C1167 C1184 1.574 . S
C1167 C1186 1.368 . S
C1167 H1191 0.949 . S
H1168 C1172 0.949 . S
C1169 C1170 1.349 . S
C1169 C1171 1.327 . S
C1169 H1192 0.950 . S
C1170 C1169 1.349 . S
C1170 C1182 1.349 . S
C1171 C1169 1.327 . S
C1171 C1187 1.429 . S
C1171 H1193 0.950 . S
C1172 H1168 0.949 . S
C1172 C1180 1.574 . S
C1172 C1188 1.368 . S
H1173 C1181 0.950 . S
H1174 C1179 0.950 . S
H1175 C1180 0.949 . S
H1176 C1182 0.950 . S
H1177 C1183 0.950 . S
H1178 C1184 0.949 . S
C1179 H1174 0.950 . S
C1179 C1181 1.327 1_565 S
C1179 C1185 1.429 . S
C1180 C1172 1.574 . S
C1180 H1175 0.949 . S
C1180 C1186 1.368 . S
C1181 C1165 1.349 . S
C1181 H1173 0.950 . S
C1181 C1179 1.327 1_545 S
C1182 C1170 1.349 . S
C1182 H1176 0.950 . S
C1182 C1183 1.327 . S
C1183 H1177 0.950 . S
C1183 C1182 1.327 . S
C1183 C1187 1.429 . S
C1184 C1167 1.574 . S
C1184 H1178 0.949 . S
C1184 C1188 1.368 . S
C1185 C1166 1.429 1_565 S
C1185 C1179 1.429 . S
C1185 C1186 1.523 . S
C1186 C1167 1.368 . S
C1186 C1180 1.368 . S
C1186 C1185 1.523 . S
C1187 C1171 1.429 . S
C1187 C1183 1.429 . S
C1187 C1188 1.523 . S
C1188 C1172 1.368 . S
C1188 C1184 1.368 . S
C1188 C1187 1.523 . S
H1189 C1164 0.950 . S
H1190 C1166 0.950 . S
H1191 C1167 0.949 . S
H1192 C1169 0.950 . S
H1193 C1171 0.950 . S
C1194 C1195 1.349 . S
C1194 C1196 1.327 . S
C1194 H1219 0.950 . S
C1195 C1194 1.349 . S
C1195 C1211 1.349 . S
C1196 C1194 1.327 . S
C1196 C1215 1.429 . S
C1196 H1220 0.950 . S
C1197 C1214 1.574 . S
C1197 C1216 1.368 . S
C1197 H1221 0.949 . S
H1198 C1202 0.949 . S
C1199 C1200 1.349 . S
C1199 C1201 1.329 . S
C1199 H1222 0.950 . S
C1200 C1199 1.349 . S
C1200 C1212 1.349 . S
C1201 C1199 1.329 . S
C1201 C1217 1.427 1_565 S
C1201 H1223 0.949 1_565 S
C1202 H1198 0.949 . S
C1202 C1210 1.574 . S
C1202 C1218 1.368 . S
H1203 C1211 0.950 . S
H1204 C1209 0.950 . S
H1205 C1210 0.949 . S
H1206 C1212 0.950 . S
H1207 C1213 0.950 . S
H1208 C1214 0.949 . S
C1209 H1204 0.950 . S
C1209 C1211 1.327 . S
C1209 C1215 1.429 . S
C1210 C1202 1.574 . S
C1210 H1205 0.949 . S
C1210 C1216 1.368 . S
C1211 C1195 1.349 . S
C1211 H1203 0.950 . S
C1211 C1209 1.327 . S
C1212 C1200 1.349 . S
C1212 H1206 0.950 . S
C1212 C1213 1.327 1_565 S
C1213 H1207 0.950 . S
C1213 C1212 1.327 1_545 S
C1213 C1217 1.429 . S
C1214 C1197 1.574 . S
C1214 H1208 0.949 . S
C1214 C1218 1.368 . S
C1215 C1196 1.429 . S
C1215 C1209 1.429 . S
C1215 C1216 1.523 . S
C1216 C1197 1.368 . S
C1216 C1210 1.368 . S
C1216 C1215 1.523 . S
C1217 C1201 1.427 1_545 S
C1217 C1213 1.429 . S
C1217 C1218 1.523 . S
C1218 C1202 1.368 . S
C1218 C1214 1.368 . S
C1218 C1217 1.523 . S
H1219 C1194 0.950 . S
H1220 C1196 0.950 . S
H1221 C1197 0.949 . S
H1222 C1199 0.950 . S
H1223 C1201 0.949 1_545 S
C1224 C1225 1.349 . S
C1224 C1226 1.327 . S
C1224 H1249 0.950 . S
C1225 C1224 1.349 . S
C1225 C1241 1.349 . S
C1226 C1224 1.327 . S
C1226 C1245 1.429 . S
C1226 H1250 0.950 . S
C1227 C1244 1.574 . S
C1227 C1246 1.368 . S
C1227 H1251 0.949 . S
H1228 C1232 0.949 . S
C1229 C1230 1.349 . S
C1229 C1231 1.327 . S
C1229 H1252 0.950 . S
C1230 C1229 1.349 . S
C1230 C1242 1.349 . S
C1231 C1229 1.327 . S
C1231 C1247 1.429 . S
C1231 H1253 0.950 . S
C1232 H1228 0.949 . S
C1232 C1240 1.574 . S
C1232 C1248 1.368 . S
H1233 C1241 0.950 . S
H1234 C1239 0.950 . S
H1235 C1240 0.949 . S
H1236 C1242 0.950 . S
H1237 C1243 0.950 . S
H1238 C1244 0.949 . S
C1239 H1234 0.950 . S
C1239 C1241 1.327 . S
C1239 C1245 1.429 . S
C1240 C1232 1.574 . S
C1240 H1235 0.949 . S
C1240 C1246 1.368 . S
C1241 C1225 1.349 . S
C1241 H1233 0.950 . S
C1241 C1239 1.327 . S
C1242 C1230 1.349 . S
C1242 H1236 0.950 . S
C1242 C1243 1.327 . S
C1243 H1237 0.950 . S
C1243 C1242 1.327 . S
C1243 C1247 1.429 . S
C1244 C1227 1.574 . S
C1244 H1238 0.949 . S
C1244 C1248 1.368 . S
C1245 C1226 1.429 . S
C1245 C1239 1.429 . S
C1245 C1246 1.523 . S
C1246 C1227 1.368 . S
C1246 C1240 1.368 . S
C1246 C1245 1.523 . S
C1247 C1231 1.429 . S
C1247 C1243 1.429 . S
C1247 C1248 1.523 . S
C1248 C1232 1.368 . S
C1248 C1244 1.368 . S
C1248 C1247 1.523 . S
H1249 C1224 0.950 . S
H1250 C1226 0.950 . S
H1251 C1227 0.949 . S
H1252 C1229 0.950 . S
H1253 C1231 0.950 . S
C1254 C1255 1.349 . S
C1254 C1256 1.327 . S
C1254 H1279 0.950 . S
C1255 C1254 1.349 . S
C1255 C1271 1.349 . S
C1256 C1254 1.327 . S
C1256 C1275 1.429 . S
C1256 H1280 0.950 . S
C1257 C1274 1.574 . S
C1257 C1276 1.368 . S
C1257 H1281 0.949 . S
H1258 C1262 0.949 . S
C1259 C1260 1.349 . S
C1259 C1261 1.327 1_556 S
C1259 H1282 0.950 . S
C1260 C1259 1.349 . S
C1260 C1272 1.349 . S
C1261 C1259 1.327 1_554 S
C1261 C1277 1.429 . S
C1261 H1283 0.950 . S
C1262 H1258 0.949 . S
C1262 C1270 1.574 . S
C1262 C1278 1.368 . S
H1263 C1271 0.950 . S
H1264 C1269 0.950 . S
H1265 C1270 0.949 . S
H1266 C1272 0.950 . S
H1267 C1273 0.949 1_554 S
H1268 C1274 0.949 . S
C1269 H1264 0.950 . S
C1269 C1271 1.327 . S
C1269 C1275 1.429 . S
C1270 C1262 1.574 . S
C1270 H1265 0.949 . S
C1270 C1276 1.368 . S
C1271 C1255 1.349 . S
C1271 H1263 0.950 . S
C1271 C1269 1.327 . S
C1272 C1260 1.349 . S
C1272 H1266 0.950 . S
C1272 C1273 1.327 . S
C1273 H1267 0.949 1_556 S
C1273 C1272 1.327 . S
C1273 C1277 1.429 1_556 S
C1274 C1257 1.574 . S
C1274 H1268 0.949 . S
C1274 C1278 1.368 . S
C1275 C1256 1.429 . S
C1275 C1269 1.429 . S
C1275 C1276 1.523 . S
C1276 C1257 1.368 . S
C1276 C1270 1.368 . S
C1276 C1275 1.523 . S
C1277 C1261 1.429 . S
C1277 C1273 1.429 1_554 S
C1277 C1278 1.523 . S
C1278 C1262 1.368 . S
C1278 C1274 1.368 . S
C1278 C1277 1.523 . S
H1279 C1254 0.950 . S
H1280 C1256 0.950 . S
H1281 C1257 0.949 . S
H1282 C1259 0.950 . S
H1283 C1261 0.950 . S
C1284 C1285 1.349 . S
C1284 C1286 1.327 . S
C1284 H1309 0.950 . S
C1285 C1284 1.349 . S
C1285 C1301 1.349 . S
C1286 C1284 1.327 . S
C1286 C1305 1.429 . S
C1286 H1310 0.950 . S
C1287 C1304 1.574 . S
C1287 C1306 1.368 . S
C1287 H1311 0.949 . S
H1288 C1292 0.949 . S
C1289 C1290 1.349 . S
C1289 C1291 1.327 . S
C1289 H1312 0.950 . S
C1290 C1289 1.349 . S
C1290 C1302 1.349 . S
C1291 C1289 1.327 . S
C1291 C1307 1.429 . S
C1291 H1313 0.950 . S
C1292 H1288 0.949 . S
C1292 C1300 1.574 . S
C1292 C1308 1.368 . S
H1293 C1301 0.950 . S
H1294 C1299 0.950 . S
H1295 C1300 0.949 . S
H1296 C1302 0.950 . S
H1297 C1303 0.950 . S
H1298 C1304 0.949 . S
C1299 H1294 0.950 . S
C1299 C1301 1.327 . S
C1299 C1305 1.429 . S
C1300 C1292 1.574 . S
C1300 H1295 0.949 . S
C1300 C1306 1.368 . S
C1301 C1285 1.349 . S
C1301 H1293 0.950 . S
C1301 C1299 1.327 . S
C1302 C1290 1.349 . S
C1302 H1296 0.950 . S
C1302 C1303 1.327 . S
C1303 H1297 0.950 . S
C1303 C1302 1.327 . S
C1303 C1307 1.429 . S
C1304 C1287 1.574 . S
C1304 H1298 0.949 . S
C1304 C1308 1.368 . S
C1305 C1286 1.429 . S
C1305 C1299 1.429 . S
C1305 C1306 1.523 . S
C1306 C1287 1.368 . S
C1306 C1300 1.368 . S
C1306 C1305 1.523 . S
C1307 C1291 1.429 . S
C1307 C1303 1.429 . S
C1307 C1308 1.523 . S
C1308 C1292 1.368 . S
C1308 C1304 1.368 . S
C1308 C1307 1.523 . S
H1309 C1284 0.950 . S
H1310 C1286 0.950 . S
H1311 C1287 0.949 . S
H1312 C1289 0.950 . S
H1313 C1291 0.950 . S
C1314 C1315 1.349 . S
C1314 C1316 1.327 1_554 S
C1314 H1339 0.950 . S
C1315 C1314 1.349 . S
C1315 C1331 1.349 . S
C1316 C1314 1.327 1_556 S
C1316 C1335 1.429 . S
C1316 H1340 0.950 . S
C1317 C1334 1.574 . S
C1317 C1336 1.368 . S
C1317 H1341 0.949 . S
H1318 C1322 0.949 . S
C1319 C1320 1.349 . S
C1319 C1321 1.327 . S
C1319 H1342 0.950 . S
C1320 C1319 1.349 . S
C1320 C1332 1.349 . S
C1321 C1319 1.327 . S
C1321 C1337 1.429 . S
C1321 H1343 0.950 . S
C1322 H1318 0.949 . S
C1322 C1330 1.574 . S
C1322 C1338 1.368 . S
H1323 C1331 0.950 . S
H1324 C1329 0.950 . S
H1325 C1330 0.949 . S
H1326 C1332 0.950 . S
H1327 C1333 0.950 . S
H1328 C1334 0.949 . S
C1329 H1324 0.950 . S
C1329 C1331 1.327 1_556 S
C1329 C1335 1.429 . S
C1330 C1322 1.574 . S
C1330 H1325 0.949 . S
C1330 C1336 1.368 . S
C1331 C1315 1.349 . S
C1331 H1323 0.950 . S
C1331 C1329 1.327 1_554 S
C1332 C1320 1.349 . S
C1332 H1326 0.950 . S
C1332 C1333 1.327 . S
C1333 H1327 0.950 . S
C1333 C1332 1.327 . S
C1333 C1337 1.429 . S
C1334 C1317 1.574 . S
C1334 H1328 0.949 . S
C1334 C1338 1.368 . S
C1335 C1316 1.429 . S
C1335 C1329 1.429 . S
C1335 C1336 1.523 . S
C1336 C1317 1.368 . S
C1336 C1330 1.368 . S
C1336 C1335 1.523 . S
C1337 C1321 1.429 . S
C1337 C1333 1.429 . S
C1337 C1338 1.523 . S
C1338 C1322 1.368 . S
C1338 C1334 1.368 . S
C1338 C1337 1.523 . S
H1339 C1314 0.950 . S
H1340 C1316 0.950 . S
H1341 C1317 0.949 . S
H1342 C1319 0.950 . S
H1343 C1321 0.950 . S
C1344 C1345 1.349 . S
C1344 C1346 1.327 . S
C1344 H1369 0.950 . S
C1345 C1344 1.349 . S
C1345 C1361 1.349 . S
C1346 C1344 1.327 . S
C1346 C1365 1.429 . S
C1346 H1370 0.950 . S
C1347 C1364 1.574 . S
C1347 C1366 1.368 . S
C1347 H1371 0.949 . S
H1348 C1352 0.949 . S
C1349 C1350 1.349 . S
C1349 C1351 1.327 . S
C1349 H1372 0.950 . S
C1350 C1349 1.349 . S
C1350 C1362 1.349 . S
C1351 C1349 1.327 . S
C1351 C1367 1.429 . S
C1351 H1373 0.950 . S
C1352 H1348 0.949 . S
C1352 C1360 1.574 . S
C1352 C1368 1.368 . S
H1353 C1361 0.950 . S
H1354 C1359 0.950 . S
H1355 C1360 0.949 . S
H1356 C1362 0.950 . S
H1357 C1363 0.950 . S
H1358 C1364 0.949 . S
C1359 H1354 0.950 . S
C1359 C1361 1.327 . S
C1359 C1365 1.429 . S
C1360 C1352 1.574 . S
C1360 H1355 0.949 . S
C1360 C1366 1.368 . S
C1361 C1345 1.349 . S
C1361 H1353 0.950 . S
C1361 C1359 1.327 . S
C1362 C1350 1.349 . S
C1362 H1356 0.950 . S
C1362 C1363 1.327 . S
C1363 H1357 0.950 . S
C1363 C1362 1.327 . S
C1363 C1367 1.429 . S
C1364 C1347 1.574 . S
C1364 H1358 0.949 . S
C1364 C1368 1.368 . S
C1365 C1346 1.429 . S
C1365 C1359 1.429 . S
C1365 C1366 1.523 . S
C1366 C1347 1.368 . S
C1366 C1360 1.368 . S
C1366 C1365 1.523 . S
C1367 C1351 1.429 . S
C1367 C1363 1.429 . S
C1367 C1368 1.523 . S
C1368 C1352 1.368 . S
C1368 C1364 1.368 . S
C1368 C1367 1.523 . S
H1369 C1344 0.950 . S
H1370 C1346 0.950 . S
H1371 C1347 0.949 . S
H1372 C1349 0.950 . S
H1373 C1351 0.950 . S
C1374 C1375 1.349 . S
C1374 C1376 1.327 1_655 S
C1374 H1399 0.950 . S
C1375 C1374 1.349 . S
C1375 C1391 1.349 . S
C1376 C1374 1.327 1_455 S
C1376 C1395 1.429 . S
C1376 H1400 0.950 . S
C1377 C1394 1.574 . S
C1377 C1396 1.368 . S
C1377 H1401 0.949 . S
H1378 C1382 0.949 . S
C1379 C1380 1.349 . S
C1379 C1381 1.327 . S
C1379 H1402 0.950 . S
C1380 C1379 1.349 . S
C1380 C1392 1.349 . S
C1381 C1379 1.327 . S
C1381 C1397 1.429 . S
C1381 H1403 0.950 . S
C1382 H1378 0.949 . S
C1382 C1390 1.574 . S
C1382 C1398 1.368 . S
H1383 C1391 0.950 . S
H1384 C1389 0.950 . S
H1385 C1390 0.949 . S
H1386 C1392 0.950 . S
H1387 C1393 0.950 . S
H1388 C1394 0.949 . S
C1389 H1384 0.950 . S
C1389 C1391 1.327 1_455 S
C1389 C1395 1.429 . S
C1390 C1382 1.574 . S
C1390 H1385 0.949 . S
C1390 C1396 1.368 . S
C1391 C1375 1.349 . S
C1391 H1383 0.950 . S
C1391 C1389 1.327 1_655 S
C1392 C1380 1.349 . S
C1392 H1386 0.950 . S
C1392 C1393 1.327 . S
C1393 H1387 0.950 . S
C1393 C1392 1.327 . S
C1393 C1397 1.429 . S
C1394 C1377 1.574 . S
C1394 H1388 0.949 . S
C1394 C1398 1.368 . S
C1395 C1376 1.429 . S
C1395 C1389 1.429 . S
C1395 C1396 1.523 . S
C1396 C1377 1.368 . S
C1396 C1390 1.368 . S
C1396 C1395 1.523 . S
C1397 C1381 1.429 . S
C1397 C1393 1.429 . S
C1397 C1398 1.523 . S
C1398 C1382 1.368 . S
C1398 C1394 1.368 . S
C1398 C1397 1.523 . S
H1399 C1374 0.950 . S
H1400 C1376 0.950 . S
H1401 C1377 0.949 . S
H1402 C1379 0.950 . S
H1403 C1381 0.950 . S
C1404 C1405 1.349 . S
C1404 C1406 1.327 . S
C1404 H1429 0.950 . S
C1405 C1404 1.349 . S
C1405 C1421 1.349 . S
C1406 C1404 1.327 . S
C1406 C1425 1.429 . S
C1406 H1430 0.950 . S
C1407 C1424 1.574 . S
C1407 C1426 1.368 . S
C1407 H1431 0.949 . S
H1408 C1412 0.949 . S
C1409 C1410 1.349 . S
C1409 C1411 1.327 . S
C1409 H1432 0.950 . S
C1410 C1409 1.349 . S
C1410 C1422 1.349 . S
C1411 C1409 1.327 . S
C1411 C1427 1.429 . S
C1411 H1433 0.950 . S
C1412 H1408 0.949 . S
C1412 C1420 1.574 . S
C1412 C1428 1.368 . S
H1413 C1421 0.950 . S
H1414 C1419 0.950 . S
H1415 C1420 0.949 . S
H1416 C1422 0.950 . S
H1417 C1423 0.950 . S
H1418 C1424 0.949 . S
C1419 H1414 0.950 . S
C1419 C1421 1.327 . S
C1419 C1425 1.429 . S
C1420 C1412 1.574 . S
C1420 H1415 0.949 . S
C1420 C1426 1.368 . S
C1421 C1405 1.349 . S
C1421 H1413 0.950 . S
C1421 C1419 1.327 . S
C1422 C1410 1.349 . S
C1422 H1416 0.950 . S
C1422 C1423 1.327 . S
C1423 H1417 0.950 . S
C1423 C1422 1.327 . S
C1423 C1427 1.429 . S
C1424 C1407 1.574 . S
C1424 H1418 0.949 . S
C1424 C1428 1.368 . S
C1425 C1406 1.429 . S
C1425 C1419 1.429 . S
C1425 C1426 1.523 . S
C1426 C1407 1.368 . S
C1426 C1420 1.368 . S
C1426 C1425 1.523 . S
C1427 C1411 1.429 . S
C1427 C1423 1.429 . S
C1427 C1428 1.523 . S
C1428 C1412 1.368 . S
C1428 C1424 1.368 . S
C1428 C1427 1.523 . S
H1429 C1404 0.950 . S
H1430 C1406 0.950 . S
H1431 C1407 0.949 . S
H1432 C1409 0.950 . S
H1433 C1411 0.950 . S
C1434 C1435 1.349 . S
C1434 C1436 1.327 . S
C1434 H1459 0.950 . S
C1435 C1434 1.349 . S
C1435 C1451 1.349 . S
C1436 C1434 1.327 . S
C1436 C1455 1.429 . S
C1436 H1460 0.950 . S
C1437 C1454 1.574 . S
C1437 C1456 1.368 . S
C1437 H1461 0.949 . S
H1438 C1442 0.949 . S
C1439 C1440 1.349 . S
C1439 C1441 1.321 1_455 S
C1439 H1462 0.950 . S
C1440 C1439 1.349 . S
C1440 C1452 1.349 . S
C1441 C1439 1.321 1_655 S
C1441 C1457 1.433 . S
C1441 H1463 0.952 . S
C1442 H1438 0.949 . S
C1442 C1450 1.574 . S
C1442 C1458 1.368 . S
H1443 C1451 0.950 . S
H1444 C1449 0.950 . S
H1445 C1450 0.949 . S
H1446 C1452 0.950 . S
H1447 C1453 0.950 . S
H1448 C1454 0.949 . S
C1449 H1444 0.950 . S
C1449 C1451 1.327 . S
C1449 C1455 1.429 . S
C1450 C1442 1.574 . S
C1450 H1445 0.949 . S
C1450 C1456 1.368 . S
C1451 C1435 1.349 . S
C1451 H1443 0.950 . S
C1451 C1449 1.327 . S
C1452 C1440 1.349 . S
C1452 H1446 0.950 . S
C1452 C1453 1.327 1_455 S
C1453 H1447 0.950 . S
C1453 C1452 1.327 1_655 S
C1453 C1457 1.429 . S
C1454 C1437 1.574 . S
C1454 H1448 0.949 . S
C1454 C1458 1.368 . S
C1455 C1436 1.429 . S
C1455 C1449 1.429 . S
C1455 C1456 1.523 . S
C1456 C1437 1.368 . S
C1456 C1450 1.368 . S
C1456 C1455 1.523 . S
C1457 C1441 1.433 . S
C1457 C1453 1.429 . S
C1457 C1458 1.523 . S
C1458 C1442 1.368 . S
C1458 C1454 1.368 . S
C1458 C1457 1.523 . S
H1459 C1434 0.950 . S
H1460 C1436 0.950 . S
H1461 C1437 0.949 . S
H1462 C1439 0.950 . S
H1463 C1441 0.952 . S
C1464 C1465 1.349 . S
C1464 C1466 1.327 . S
C1464 H1489 0.950 . S
C1465 C1464 1.349 . S
C1465 C1481 1.349 . S
C1466 C1464 1.327 . S
C1466 C1485 1.429 . S
C1466 H1490 0.950 . S
C1467 C1484 1.574 . S
C1467 C1486 1.368 . S
C1467 H1491 0.949 . S
H1468 C1472 0.949 . S
C1469 C1470 1.349 . S
C1469 C1471 1.327 . S
C1469 H1492 0.950 . S
C1470 C1469 1.349 . S
C1470 C1482 1.349 . S
C1471 C1469 1.327 . S
C1471 C1487 1.429 . S
C1471 H1493 0.950 . S
C1472 H1468 0.949 . S
C1472 C1480 1.574 . S
C1472 C1488 1.368 . S
H1473 C1481 0.950 . S
H1474 C1479 0.950 . S
H1475 C1480 0.949 . S
H1476 C1482 0.950 . S
H1477 C1483 0.950 . S
H1478 C1484 0.949 . S
C1479 H1474 0.950 . S
C1479 C1481 1.327 . S
C1479 C1485 1.429 . S
C1480 C1472 1.574 . S
C1480 H1475 0.949 . S
C1480 C1486 1.368 . S
C1481 C1465 1.349 . S
C1481 H1473 0.950 . S
C1481 C1479 1.327 . S
C1482 C1470 1.349 . S
C1482 H1476 0.950 . S
C1482 C1483 1.327 . S
C1483 H1477 0.950 . S
C1483 C1482 1.327 . S
C1483 C1487 1.429 . S
C1484 C1467 1.574 . S
C1484 H1478 0.949 . S
C1484 C1488 1.368 . S
C1485 C1466 1.429 . S
C1485 C1479 1.429 . S
C1485 C1486 1.523 . S
C1486 C1467 1.368 . S
C1486 C1480 1.368 . S
C1486 C1485 1.523 . S
C1487 C1471 1.429 . S
C1487 C1483 1.429 . S
C1487 C1488 1.523 . S
C1488 C1472 1.368 . S
C1488 C1484 1.368 . S
C1488 C1487 1.523 . S
H1489 C1464 0.950 . S
H1490 C1466 0.950 . S
H1491 C1467 0.949 . S
H1492 C1469 0.950 . S
H1493 C1471 0.950 . S
C1494 C1495 1.349 . S
C1494 C1496 1.327 . S
C1494 H1519 0.950 . S
C1495 C1494 1.349 . S
C1495 C1511 1.349 . S
C1496 C1494 1.327 . S
C1496 C1515 1.429 . S
C1496 H1520 0.950 . S
C1497 C1514 1.574 . S
C1497 C1516 1.368 . S
C1497 H1521 0.949 . S
H1498 C1502 0.949 . S
C1499 C1500 1.349 . S
C1499 C1501 1.327 . S
C1499 H1522 0.950 . S
C1500 C1499 1.349 . S
C1500 C1512 1.349 . S
C1501 C1499 1.327 . S
C1501 C1517 1.429 . S
C1501 H1523 0.950 . S
C1502 H1498 0.949 . S
C1502 C1510 1.574 . S
C1502 C1518 1.368 . S
H1503 C1511 0.950 . S
H1504 C1509 0.950 . S
H1505 C1510 0.949 . S
H1506 C1512 0.950 . S
H1507 C1513 0.950 . S
H1508 C1514 0.949 . S
C1509 H1504 0.950 . S
C1509 C1511 1.327 . S
C1509 C1515 1.429 . S
C1510 C1502 1.574 . S
C1510 H1505 0.949 . S
C1510 C1516 1.368 . S
C1511 C1495 1.349 . S
C1511 H1503 0.950 . S
C1511 C1509 1.327 . S
C1512 C1500 1.349 . S
C1512 H1506 0.950 . S
C1512 C1513 1.327 . S
C1513 H1507 0.950 . S
C1513 C1512 1.327 . S
C1513 C1517 1.429 . S
C1514 C1497 1.574 . S
C1514 H1508 0.949 . S
C1514 C1518 1.368 . S
C1515 C1496 1.429 . S
C1515 C1509 1.429 . S
C1515 C1516 1.523 . S
C1516 C1497 1.368 . S
C1516 C1510 1.368 . S
C1516 C1515 1.523 . S
C1517 C1501 1.429 . S
C1517 C1513 1.429 . S
C1517 C1518 1.523 . S
C1518 C1502 1.368 . S
C1518 C1514 1.368 . S
C1518 C1517 1.523 . S
H1519 C1494 0.950 . S
H1520 C1496 0.950 . S
H1521 C1497 0.949 . S
H1522 C1499 0.950 . S
H1523 C1501 0.950 . S
C1524 C1525 1.349 . S
C1524 C1526 1.327 . S
C1524 H1549 0.950 . S
C1525 C1524 1.349 . S
C1525 C1541 1.349 . S
C1526 C1524 1.327 . S
C1526 C1545 1.429 . S
C1526 H1550 0.950 . S
C1527 C1544 1.574 . S
C1527 C1546 1.368 . S
C1527 H1551 0.949 . S
H1528 C1532 0.949 . S
C1529 C1530 1.349 . S
C1529 C1531 1.327 . S
C1529 H1552 0.950 . S
C1530 C1529 1.349 . S
C1530 C1542 1.349 . S
C1531 C1529 1.327 . S
C1531 C1547 1.429 . S
C1531 H1553 0.950 . S
C1532 H1528 0.949 . S
C1532 C1540 1.574 . S
C1532 C1548 1.368 . S
H1533 C1541 0.950 . S
H1534 C1539 0.950 . S
H1535 C1540 0.949 . S
H1536 C1542 0.950 . S
H1537 C1543 0.950 . S
H1538 C1544 0.949 . S
C1539 H1534 0.950 . S
C1539 C1541 1.327 . S
C1539 C1545 1.429 . S
C1540 C1532 1.574 . S
C1540 H1535 0.949 . S
C1540 C1546 1.368 . S
C1541 C1525 1.349 . S
C1541 H1533 0.950 . S
C1541 C1539 1.327 . S
C1542 C1530 1.349 . S
C1542 H1536 0.950 . S
C1542 C1543 1.327 . S
C1543 H1537 0.950 . S
C1543 C1542 1.327 . S
C1543 C1547 1.429 . S
C1544 C1527 1.574 . S
C1544 H1538 0.949 . S
C1544 C1548 1.368 . S
C1545 C1526 1.429 . S
C1545 C1539 1.429 . S
C1545 C1546 1.523 . S
C1546 C1527 1.368 . S
C1546 C1540 1.368 . S
C1546 C1545 1.523 . S
C1547 C1531 1.429 . S
C1547 C1543 1.429 . S
C1547 C1548 1.523 . S
C1548 C1532 1.368 . S
C1548 C1544 1.368 . S
C1548 C1547 1.523 . S
H1549 C1524 0.950 . S
H1550 C1526 0.950 . S
H1551 C1527 0.949 . S
H1552 C1529 0.950 . S
H1553 C1531 0.950 . S
C1554 C1555 1.349 . S
C1554 C1556 1.327 . S
C1554 H1579 0.950 . S
C1555 C1554 1.349 . S
C1555 C1571 1.349 . S
C1556 C1554 1.327 . S
C1556 C1575 1.429 . S
C1556 H1580 0.950 . S
C1557 C1574 1.574 . S
C1557 C1576 1.368 . S
C1557 H1581 0.949 . S
H1558 C1562 0.949 . S
C1559 C1560 1.349 . S
C1559 C1561 1.327 . S
C1559 H1582 0.950 . S
C1560 C1559 1.349 . S
C1560 C1572 1.349 . S
C1561 C1559 1.327 . S
C1561 C1577 1.429 . S
C1561 H1583 0.950 . S
C1562 H1558 0.949 . S
C1562 C1570 1.574 . S
C1562 C1578 1.368 . S
H1563 C1571 0.950 . S
H1564 C1569 0.950 . S
H1565 C1570 0.949 . S
H1566 C1572 0.950 . S
H1567 C1573 0.950 . S
H1568 C1574 0.949 . S
C1569 H1564 0.950 . S
C1569 C1571 1.327 . S
C1569 C1575 1.429 . S
C1570 C1562 1.574 . S
C1570 H1565 0.949 . S
C1570 C1576 1.368 . S
C1571 C1555 1.349 . S
C1571 H1563 0.950 . S
C1571 C1569 1.327 . S
C1572 C1560 1.349 . S
C1572 H1566 0.950 . S
C1572 C1573 1.327 . S
C1573 H1567 0.950 . S
C1573 C1572 1.327 . S
C1573 C1577 1.429 . S
C1574 C1557 1.574 . S
C1574 H1568 0.949 . S
C1574 C1578 1.368 . S
C1575 C1556 1.429 . S
C1575 C1569 1.429 . S
C1575 C1576 1.523 . S
C1576 C1557 1.368 . S
C1576 C1570 1.368 . S
C1576 C1575 1.523 . S
C1577 C1561 1.429 . S
C1577 C1573 1.429 . S
C1577 C1578 1.523 . S
C1578 C1562 1.368 . S
C1578 C1574 1.368 . S
C1578 C1577 1.523 . S
H1579 C1554 0.950 . S
H1580 C1556 0.950 . S
H1581 C1557 0.949 . S
H1582 C1559 0.950 . S
H1583 C1561 0.950 . S
C1584 C1585 1.349 . S
C1584 C1586 1.327 . S
C1584 H1609 0.950 . S
C1585 C1584 1.349 . S
C1585 C1601 1.349 . S
C1586 C1584 1.327 . S
C1586 C1605 1.429 . S
C1586 H1610 0.950 . S
C1587 C1604 1.574 . S
C1587 C1606 1.368 . S
C1587 H1611 0.949 . S
H1588 C1592 0.949 . S
C1589 C1590 1.349 . S
C1589 C1591 1.327 . S
C1589 H1612 0.950 . S
C1590 C1589 1.349 . S
C1590 C1602 1.349 . S
C1591 C1589 1.327 . S
C1591 C1607 1.429 . S
C1591 H1613 0.950 . S
C1592 H1588 0.949 . S
C1592 C1600 1.574 . S
C1592 C1608 1.368 . S
H1593 C1601 0.950 . S
H1594 C1599 0.950 . S
H1595 C1600 0.949 . S
H1596 C1602 0.950 . S
H1597 C1603 0.950 . S
H1598 C1604 0.949 . S
C1599 H1594 0.950 . S
C1599 C1601 1.327 . S
C1599 C1605 1.429 . S
C1600 C1592 1.574 . S
C1600 H1595 0.949 . S
C1600 C1606 1.368 . S
C1601 C1585 1.349 . S
C1601 H1593 0.950 . S
C1601 C1599 1.327 . S
C1602 C1590 1.349 . S
C1602 H1596 0.950 . S
C1602 C1603 1.327 . S
C1603 H1597 0.950 . S
C1603 C1602 1.327 . S
C1603 C1607 1.429 . S
C1604 C1587 1.574 . S
C1604 H1598 0.949 . S
C1604 C1608 1.368 . S
C1605 C1586 1.429 . S
C1605 C1599 1.429 . S
C1605 C1606 1.523 . S
C1606 C1587 1.368 . S
C1606 C1600 1.368 . S
C1606 C1605 1.523 . S
C1607 C1591 1.429 . S
C1607 C1603 1.429 . S
C1607 C1608 1.523 . S
C1608 C1592 1.368 . S
C1608 C1604 1.368 . S
C1608 C1607 1.523 . S
H1609 C1584 0.950 . S
H1610 C1586 0.950 . S
H1611 C1587 0.949 . S
H1612 C1589 0.950 . S
H1613 C1591 0.950 . S
C1614 C1615 1.349 . S
C1614 C1616 1.327 . S
C1614 H1639 0.950 . S
C1615 C1614 1.349 . S
C1615 C1631 1.349 . S
C1616 C1614 1.327 . S
C1616 C1635 1.429 . S
C1616 H1640 0.950 . S
C1617 C1634 1.574 . S
C1617 C1636 1.368 . S
C1617 H1641 0.949 . S
H1618 C1622 0.949 . S
C1619 C1620 1.349 . S
C1619 C1621 1.327 . S
C1619 H1642 0.950 . S
C1620 C1619 1.349 . S
C1620 C1632 1.349 . S
C1621 C1619 1.327 . S
C1621 C1637 1.429 . S
C1621 H1643 0.950 . S
C1622 H1618 0.949 . S
C1622 C1630 1.574 . S
C1622 C1638 1.368 . S
H1623 C1631 0.950 . S
H1624 C1629 0.950 . S
H1625 C1630 0.949 . S
H1626 C1632 0.950 . S
H1627 C1633 0.950 . S
H1628 C1634 0.949 . S
C1629 H1624 0.950 . S
C1629 C1631 1.327 . S
C1629 C1635 1.429 . S
C1630 C1622 1.574 . S
C1630 H1625 0.949 . S
C1630 C1636 1.368 . S
C1631 C1615 1.349 . S
C1631 H1623 0.950 . S
C1631 C1629 1.327 . S
C1632 C1620 1.349 . S
C1632 H1626 0.950 . S
C1632 C1633 1.327 . S
C1633 H1627 0.950 . S
C1633 C1632 1.327 . S
C1633 C1637 1.429 . S
C1634 C1617 1.574 . S
C1634 H1628 0.949 . S
C1634 C1638 1.368 . S
C1635 C1616 1.429 . S
C1635 C1629 1.429 . S
C1635 C1636 1.523 . S
C1636 C1617 1.368 . S
C1636 C1630 1.368 . S
C1636 C1635 1.523 . S
C1637 C1621 1.429 . S
C1637 C1633 1.429 . S
C1637 C1638 1.523 . S
C1638 C1622 1.368 . S
C1638 C1634 1.368 . S
C1638 C1637 1.523 . S
H1639 C1614 0.950 . S
H1640 C1616 0.950 . S
H1641 C1617 0.949 . S
H1642 C1619 0.950 . S
H1643 C1621 0.950 . S
C1644 C1645 1.349 . S
C1644 C1646 1.327 . S
C1644 H1669 0.950 . S
C1645 C1644 1.349 . S
C1645 C1661 1.349 . S
C1646 C1644 1.327 . S
C1646 C1665 1.429 . S
C1646 H1670 0.950 . S
C1647 C1664 1.574 . S
C1647 C1666 1.368 . S
C1647 H1671 0.949 . S
H1648 C1652 0.949 . S
C1649 C1650 1.349 . S
C1649 C1651 1.327 . S
C1649 H1672 0.950 . S
C1650 C1649 1.349 . S
C1650 C1662 1.349 . S
C1651 C1649 1.327 . S
C1651 C1667 1.429 . S
C1651 H1673 0.950 . S
C1652 H1648 0.949 . S
C1652 C1660 1.574 . S
C1652 C1668 1.368 . S
H1653 C1661 0.950 . S
H1654 C1659 0.950 . S
H1655 C1660 0.949 . S
H1656 C1662 0.950 . S
H1657 C1663 0.950 . S
H1658 C1664 0.949 . S
C1659 H1654 0.950 . S
C1659 C1661 1.327 . S
C1659 C1665 1.429 . S
C1660 C1652 1.574 . S
C1660 H1655 0.949 . S
C1660 C1666 1.368 . S
C1661 C1645 1.349 . S
C1661 H1653 0.950 . S
C1661 C1659 1.327 . S
C1662 C1650 1.349 . S
C1662 H1656 0.950 . S
C1662 C1663 1.327 . S
C1663 H1657 0.950 . S
C1663 C1662 1.327 . S
C1663 C1667 1.429 . S
C1664 C1647 1.574 . S
C1664 H1658 0.949 . S
C1664 C1668 1.368 . S
C1665 C1646 1.429 . S
C1665 C1659 1.429 . S
C1665 C1666 1.523 . S
C1666 C1647 1.368 . S
C1666 C1660 1.368 . S
C1666 C1665 1.523 . S
C1667 C1651 1.429 . S
C1667 C1663 1.429 . S
C1667 C1668 1.523 . S
C1668 C1652 1.368 . S
C1668 C1664 1.368 . S
C1668 C1667 1.523 . S
H1669 C1644 0.950 . S
H1670 C1646 0.950 . S
H1671 C1647 0.949 . S
H1672 C1649 0.950 . S
H1673 C1651 0.950 . S
C1674 C1675 1.349 . S
C1674 C1676 1.327 . S
C1674 H1699 0.950 . S
C1675 C1674 1.349 . S
C1675 C1691 1.349 . S
C1676 C1674 1.327 . S
C1676 C1695 1.429 . S
C1676 H1700 0.950 . S
C1677 C1694 1.574 . S
C1677 C1696 1.368 . S
C1677 H1701 0.949 . S
H1678 C1682 0.949 . S
C1679 C1680 1.349 . S
C1679 C1681 1.327 . S
C1679 H1702 0.950 . S
C1680 C1679 1.349 . S
C1680 C1692 1.349 . S
C1681 C1679 1.327 . S
C1681 C1697 1.429 . S
C1681 H1703 0.950 . S
C1682 H1678 0.949 . S
C1682 C1690 1.574 . S
C1682 C1698 1.368 . S
H1683 C1691 0.950 . S
H1684 C1689 0.950 . S
H1685 C1690 0.949 . S
H1686 C1692 0.950 . S
H1687 C1693 0.950 . S
H1688 C1694 0.949 . S
C1689 H1684 0.950 . S
C1689 C1691 1.327 . S
C1689 C1695 1.429 . S
C1690 C1682 1.574 . S
C1690 H1685 0.949 . S
C1690 C1696 1.368 . S
C1691 C1675 1.349 . S
C1691 H1683 0.950 . S
C1691 C1689 1.327 . S
C1692 C1680 1.349 . S
C1692 H1686 0.950 . S
C1692 C1693 1.327 . S
C1693 H1687 0.950 . S
C1693 C1692 1.327 . S
C1693 C1697 1.429 . S
C1694 C1677 1.574 . S
C1694 H1688 0.949 . S
C1694 C1698 1.368 . S
C1695 C1676 1.429 . S
C1695 C1689 1.429 . S
C1695 C1696 1.523 . S
C1696 C1677 1.368 . S
C1696 C1690 1.368 . S
C1696 C1695 1.523 . S
C1697 C1681 1.429 . S
C1697 C1693 1.429 . S
C1697 C1698 1.523 . S
C1698 C1682 1.368 . S
C1698 C1694 1.368 . S
C1698 C1697 1.523 . S
H1699 C1674 0.950 . S
H1700 C1676 0.950 . S
H1701 C1677 0.949 . S
H1702 C1679 0.950 . S
H1703 C1681 0.950 . S
C1704 C1705 1.349 . S
C1704 C1706 1.327 . S
C1704 H1729 0.950 . S
C1705 C1704 1.349 . S
C1705 C1721 1.349 . S
C1706 C1704 1.327 . S
C1706 C1725 1.429 . S
C1706 H1730 0.950 . S
C1707 C1724 1.574 . S
C1707 C1726 1.368 . S
C1707 H1731 0.949 . S
H1708 C1712 0.949 . S
C1709 C1710 1.349 . S
C1709 C1711 1.327 . S
C1709 H1732 0.950 . S
C1710 C1709 1.349 . S
C1710 C1722 1.349 . S
C1711 C1709 1.327 . S
C1711 C1727 1.429 . S
C1711 H1733 0.950 . S
C1712 H1708 0.949 . S
C1712 C1720 1.574 . S
C1712 C1728 1.368 . S
H1713 C1721 0.950 . S
H1714 C1719 0.950 . S
H1715 C1720 0.949 . S
H1716 C1722 0.950 . S
H1717 C1723 0.950 . S
H1718 C1724 0.949 . S
C1719 H1714 0.950 . S
C1719 C1721 1.327 . S
C1719 C1725 1.429 . S
C1720 C1712 1.574 . S
C1720 H1715 0.949 . S
C1720 C1726 1.368 . S
C1721 C1705 1.349 . S
C1721 H1713 0.950 . S
C1721 C1719 1.327 . S
C1722 C1710 1.349 . S
C1722 H1716 0.950 . S
C1722 C1723 1.327 . S
C1723 H1717 0.950 . S
C1723 C1722 1.327 . S
C1723 C1727 1.429 . S
C1724 C1707 1.574 . S
C1724 H1718 0.949 . S
C1724 C1728 1.368 . S
C1725 C1706 1.429 . S
C1725 C1719 1.429 . S
C1725 C1726 1.523 . S
C1726 C1707 1.368 . S
C1726 C1720 1.368 . S
C1726 C1725 1.523 . S
C1727 C1711 1.429 . S
C1727 C1723 1.429 . S
C1727 C1728 1.523 . S
C1728 C1712 1.368 . S
C1728 C1724 1.368 . S
C1728 C1727 1.523 . S
H1729 C1704 0.950 . S
H1730 C1706 0.950 . S
H1731 C1707 0.949 . S
H1732 C1709 0.950 . S
H1733 C1711 0.950 . S
C1734 C1735 1.349 . S
C1734 C1736 1.327 . S
C1734 H1759 0.950 . S
C1735 C1734 1.349 . S
C1735 C1751 1.349 . S
C1736 C1734 1.327 . S
C1736 C1755 1.429 . S
C1736 H1760 0.950 . S
C1737 C1754 1.574 . S
C1737 C1756 1.368 . S
C1737 H1761 0.949 . S
H1738 C1742 0.949 . S
C1739 C1740 1.349 . S
C1739 C1741 1.327 . S
C1739 H1762 0.950 . S
C1740 C1739 1.349 . S
C1740 C1752 1.349 . S
C1741 C1739 1.327 . S
C1741 C1757 1.429 . S
C1741 H1763 0.950 . S
C1742 H1738 0.949 . S
C1742 C1750 1.574 . S
C1742 C1758 1.368 . S
H1743 C1751 0.950 . S
H1744 C1749 0.950 . S
H1745 C1750 0.949 . S
H1746 C1752 0.950 . S
H1747 C1753 0.950 . S
H1748 C1754 0.949 . S
C1749 H1744 0.950 . S
C1749 C1751 1.327 . S
C1749 C1755 1.429 . S
C1750 C1742 1.574 . S
C1750 H1745 0.949 . S
C1750 C1756 1.368 . S
C1751 C1735 1.349 . S
C1751 H1743 0.950 . S
C1751 C1749 1.327 . S
C1752 C1740 1.349 . S
C1752 H1746 0.950 . S
C1752 C1753 1.327 . S
C1753 H1747 0.950 . S
C1753 C1752 1.327 . S
C1753 C1757 1.429 . S
C1754 C1737 1.574 . S
C1754 H1748 0.949 . S
C1754 C1758 1.368 . S
C1755 C1736 1.429 . S
C1755 C1749 1.429 . S
C1755 C1756 1.523 . S
C1756 C1737 1.368 . S
C1756 C1750 1.368 . S
C1756 C1755 1.523 . S
C1757 C1741 1.429 . S
C1757 C1753 1.429 . S
C1757 C1758 1.523 . S
C1758 C1742 1.368 . S
C1758 C1754 1.368 . S
C1758 C1757 1.523 . S
H1759 C1734 0.950 . S
H1760 C1736 0.950 . S
H1761 C1737 0.949 . S
H1762 C1739 0.950 . S
H1763 C1741 0.950 . S
C1764 C1765 1.349 . S
C1764 C1766 1.327 . S
C1764 H1789 0.950 . S
C1765 C1764 1.349 . S
C1765 C1781 1.349 . S
C1766 C1764 1.327 . S
C1766 C1785 1.429 . S
C1766 H1790 0.950 . S
C1767 C1784 1.574 . S
C1767 C1786 1.368 . S
C1767 H1791 0.949 . S
H1768 C1772 0.949 . S
C1769 C1770 1.349 . S
C1769 C1771 1.327 . S
C1769 H1792 0.950 . S
C1770 C1769 1.349 . S
C1770 C1782 1.349 . S
C1771 C1769 1.327 . S
C1771 C1787 1.429 . S
C1771 H1793 0.950 . S
C1772 H1768 0.949 . S
C1772 C1780 1.574 . S
C1772 C1788 1.368 . S
H1773 C1781 0.950 . S
H1774 C1779 0.950 . S
H1775 C1780 0.949 . S
H1776 C1782 0.950 . S
H1777 C1783 0.950 . S
H1778 C1784 0.949 . S
C1779 H1774 0.950 . S
C1779 C1781 1.327 . S
C1779 C1785 1.429 . S
C1780 C1772 1.574 . S
C1780 H1775 0.949 . S
C1780 C1786 1.368 . S
C1781 C1765 1.349 . S
C1781 H1773 0.950 . S
C1781 C1779 1.327 . S
C1782 C1770 1.349 . S
C1782 H1776 0.950 . S
C1782 C1783 1.327 . S
C1783 H1777 0.950 . S
C1783 C1782 1.327 . S
C1783 C1787 1.429 . S
C1784 C1767 1.574 . S
C1784 H1778 0.949 . S
C1784 C1788 1.368 . S
C1785 C1766 1.429 . S
C1785 C1779 1.429 . S
C1785 C1786 1.523 . S
C1786 C1767 1.368 . S
C1786 C1780 1.368 . S
C1786 C1785 1.523 . S
C1787 C1771 1.429 . S
C1787 C1783 1.429 . S
C1787 C1788 1.523 . S
C1788 C1772 1.368 . S
C1788 C1784 1.368 . S
C1788 C1787 1.523 . S
H1789 C1764 0.950 . S
H1790 C1766 0.950 . S
H1791 C1767 0.949 . S
H1792 C1769 0.950 . S
H1793 C1771 0.950 . S
C1794 C1795 1.349 . S
C1794 C1796 1.327 . S
C1794 H1819 0.950 . S
C1795 C1794 1.349 . S
C1795 C1811 1.349 . S
C1796 C1794 1.327 . S
C1796 C1815 1.429 . S
C1796 H1820 0.950 . S
C1797 C1814 1.574 . S
C1797 C1816 1.368 . S
C1797 H1821 0.949 . S
H1798 C1802 0.949 . S
C1799 C1800 1.349 . S
C1799 C1801 1.327 . S
C1799 H1822 0.950 . S
C1800 C1799 1.349 . S
C1800 C1812 1.349 . S
C1801 C1799 1.327 . S
C1801 C1817 1.429 . S
C1801 H1823 0.950 . S
C1802 H1798 0.949 . S
C1802 C1810 1.574 . S
C1802 C1818 1.368 . S
H1803 C1811 0.950 . S
H1804 C1809 0.950 . S
H1805 C1810 0.949 . S
H1806 C1812 0.950 . S
H1807 C1813 0.950 . S
H1808 C1814 0.949 . S
C1809 H1804 0.950 . S
C1809 C1811 1.327 . S
C1809 C1815 1.429 . S
C1810 C1802 1.574 . S
C1810 H1805 0.949 . S
C1810 C1816 1.368 . S
C1811 C1795 1.349 . S
C1811 H1803 0.950 . S
C1811 C1809 1.327 . S
C1812 C1800 1.349 . S
C1812 H1806 0.950 . S
C1812 C1813 1.327 . S
C1813 H1807 0.950 . S
C1813 C1812 1.327 . S
C1813 C1817 1.429 . S
C1814 C1797 1.574 . S
C1814 H1808 0.949 . S
C1814 C1818 1.368 . S
C1815 C1796 1.429 . S
C1815 C1809 1.429 . S
C1815 C1816 1.523 . S
C1816 C1797 1.368 . S
C1816 C1810 1.368 . S
C1816 C1815 1.523 . S
C1817 C1801 1.429 . S
C1817 C1813 1.429 . S
C1817 C1818 1.523 . S
C1818 C1802 1.368 . S
C1818 C1814 1.368 . S
C1818 C1817 1.523 . S
H1819 C1794 0.950 . S
H1820 C1796 0.950 . S
H1821 C1797 0.949 . S
H1822 C1799 0.950 . S
H1823 C1801 0.950 . S
C1824 C1825 1.349 . S
C1824 C1826 1.327 . S
C1824 H1849 0.950 . S
C1825 C1824 1.349 . S
C1825 C1841 1.349 . S
C1826 C1824 1.327 . S
C1826 C1845 1.429 . S
C1826 H1850 0.950 . S
C1827 C1844 1.574 . S
C1827 C1846 1.368 . S
C1827 H1851 0.949 . S
H1828 C1832 0.949 . S
C1829 C1830 1.349 . S
C1829 C1831 1.327 . S
C1829 H1852 0.950 . S
C1830 C1829 1.349 . S
C1830 C1842 1.349 . S
C1831 C1829 1.327 . S
C1831 C1847 1.429 . S
C1831 H1853 0.950 . S
C1832 H1828 0.949 . S
C1832 C1840 1.574 . S
C1832 C1848 1.368 . S
H1833 C1841 0.950 . S
H1834 C1839 0.950 . S
H1835 C1840 0.949 . S
H1836 C1842 0.950 . S
H1837 C1843 0.950 . S
H1838 C1844 0.949 . S
C1839 H1834 0.950 . S
C1839 C1841 1.327 . S
C1839 C1845 1.429 . S
C1840 C1832 1.574 . S
C1840 H1835 0.949 . S
C1840 C1846 1.368 . S
C1841 C1825 1.349 . S
C1841 H1833 0.950 . S
C1841 C1839 1.327 . S
C1842 C1830 1.349 . S
C1842 H1836 0.950 . S
C1842 C1843 1.327 . S
C1843 H1837 0.950 . S
C1843 C1842 1.327 . S
C1843 C1847 1.429 . S
C1844 C1827 1.574 . S
C1844 H1838 0.949 . S
C1844 C1848 1.368 . S
C1845 C1826 1.429 . S
C1845 C1839 1.429 . S
C1845 C1846 1.523 . S
C1846 C1827 1.368 . S
C1846 C1840 1.368 . S
C1846 C1845 1.523 . S
C1847 C1831 1.429 . S
C1847 C1843 1.429 . S
C1847 C1848 1.523 . S
C1848 C1832 1.368 . S
C1848 C1844 1.368 . S
C1848 C1847 1.523 . S
H1849 C1824 0.950 . S
H1850 C1826 0.950 . S
H1851 C1827 0.949 . S
H1852 C1829 0.950 . S
H1853 C1831 0.950 . S
C1854 C1855 1.349 . S
C1854 C1856 1.327 . S
C1854 H1879 0.950 . S
C1855 C1854 1.349 . S
C1855 C1871 1.349 . S
C1856 C1854 1.327 . S
C1856 C1875 1.429 . S
C1856 H1880 0.950 . S
C1857 C1874 1.574 . S
C1857 C1876 1.368 . S
C1857 H1881 0.949 . S
H1858 C1862 0.949 . S
C1859 C1860 1.349 . S
C1859 C1861 1.327 . S
C1859 H1882 0.950 . S
C1860 C1859 1.349 . S
C1860 C1872 1.349 . S
C1861 C1859 1.327 . S
C1861 C1877 1.429 . S
C1861 H1883 0.950 . S
C1862 H1858 0.949 . S
C1862 C1870 1.574 . S
C1862 C1878 1.368 . S
H1863 C1871 0.950 . S
H1864 C1869 0.950 . S
H1865 C1870 0.949 . S
H1866 C1872 0.950 . S
H1867 C1873 0.950 . S
H1868 C1874 0.949 . S
C1869 H1864 0.950 . S
C1869 C1871 1.327 . S
C1869 C1875 1.429 . S
C1870 C1862 1.574 . S
C1870 H1865 0.949 . S
C1870 C1876 1.368 . S
C1871 C1855 1.349 . S
C1871 H1863 0.950 . S
C1871 C1869 1.327 . S
C1872 C1860 1.349 . S
C1872 H1866 0.950 . S
C1872 C1873 1.327 . S
C1873 H1867 0.950 . S
C1873 C1872 1.327 . S
C1873 C1877 1.429 . S
C1874 C1857 1.574 . S
C1874 H1868 0.949 . S
C1874 C1878 1.368 . S
C1875 C1856 1.429 . S
C1875 C1869 1.429 . S
C1875 C1876 1.523 . S
C1876 C1857 1.368 . S
C1876 C1870 1.368 . S
C1876 C1875 1.523 . S
C1877 C1861 1.429 . S
C1877 C1873 1.429 . S
C1877 C1878 1.523 . S
C1878 C1862 1.368 . S
C1878 C1874 1.368 . S
C1878 C1877 1.523 . S
H1879 C1854 0.950 . S
H1880 C1856 0.950 . S
H1881 C1857 0.949 . S
H1882 C1859 0.950 . S
H1883 C1861 0.950 . S
C1884 C1885 1.349 . S
C1884 C1886 1.327 . S
C1884 H1909 0.950 . S
C1885 C1884 1.349 . S
C1885 C1901 1.349 . S
C1886 C1884 1.327 . S
C1886 C1905 1.429 . S
C1886 H1910 0.950 . S
C1887 C1904 1.574 . S
C1887 C1906 1.368 . S
C1887 H1911 0.949 . S
H1888 C1892 0.949 . S
C1889 C1890 1.349 . S
C1889 C1891 1.327 . S
C1889 H1912 0.950 . S
C1890 C1889 1.349 . S
C1890 C1902 1.349 . S
C1891 C1889 1.327 . S
C1891 C1907 1.429 . S
C1891 H1913 0.950 . S
C1892 H1888 0.949 . S
C1892 C1900 1.574 . S
C1892 C1908 1.368 . S
H1893 C1901 0.950 . S
H1894 C1899 0.950 . S
H1895 C1900 0.949 . S
H1896 C1902 0.950 . S
H1897 C1903 0.950 . S
H1898 C1904 0.949 . S
C1899 H1894 0.950 . S
C1899 C1901 1.327 . S
C1899 C1905 1.429 . S
C1900 C1892 1.574 . S
C1900 H1895 0.949 . S
C1900 C1906 1.368 . S
C1901 C1885 1.349 . S
C1901 H1893 0.950 . S
C1901 C1899 1.327 . S
C1902 C1890 1.349 . S
C1902 H1896 0.950 . S
C1902 C1903 1.327 . S
C1903 H1897 0.950 . S
C1903 C1902 1.327 . S
C1903 C1907 1.429 . S
C1904 C1887 1.574 . S
C1904 H1898 0.949 . S
C1904 C1908 1.368 . S
C1905 C1886 1.429 . S
C1905 C1899 1.429 . S
C1905 C1906 1.523 . S
C1906 C1887 1.368 . S
C1906 C1900 1.368 . S
C1906 C1905 1.523 . S
C1907 C1891 1.429 . S
C1907 C1903 1.429 . S
C1907 C1908 1.523 . S
C1908 C1892 1.368 . S
C1908 C1904 1.368 . S
C1908 C1907 1.523 . S
H1909 C1884 0.950 . S
H1910 C1886 0.950 . S
H1911 C1887 0.949 . S
H1912 C1889 0.950 . S
H1913 C1891 0.950 . S
C1914 C1915 1.349 . S
C1914 C1916 1.327 . S
C1914 H1939 0.950 . S
C1915 C1914 1.349 . S
C1915 C1931 1.349 . S
C1916 C1914 1.327 . S
C1916 C1935 1.429 . S
C1916 H1940 0.950 . S
C1917 C1934 1.574 . S
C1917 C1936 1.368 . S
C1917 H1941 0.949 . S
H1918 C1922 0.949 . S
C1919 C1920 1.349 . S
C1919 C1921 1.327 . S
C1919 H1942 0.950 . S
C1920 C1919 1.349 . S
C1920 C1932 1.349 . S
C1921 C1919 1.327 . S
C1921 C1937 1.429 . S
C1921 H1943 0.950 . S
C1922 H1918 0.949 . S
C1922 C1930 1.574 . S
C1922 C1938 1.368 . S
H1923 C1931 0.950 . S
H1924 C1929 0.950 . S
H1925 C1930 0.949 . S
H1926 C1932 0.950 . S
H1927 C1933 0.950 . S
H1928 C1934 0.949 . S
C1929 H1924 0.950 . S
C1929 C1931 1.327 . S
C1929 C1935 1.429 . S
C1930 C1922 1.574 . S
C1930 H1925 0.949 . S
C1930 C1936 1.368 . S
C1931 C1915 1.349 . S
C1931 H1923 0.950 . S
C1931 C1929 1.327 . S
C1932 C1920 1.349 . S
C1932 H1926 0.950 . S
C1932 C1933 1.327 . S
C1933 H1927 0.950 . S
C1933 C1932 1.327 . S
C1933 C1937 1.429 . S
C1934 C1917 1.574 . S
C1934 H1928 0.949 . S
C1934 C1938 1.368 . S
C1935 C1916 1.429 . S
C1935 C1929 1.429 . S
C1935 C1936 1.523 . S
C1936 C1917 1.368 . S
C1936 C1930 1.368 . S
C1936 C1935 1.523 . S
C1937 C1921 1.429 . S
C1937 C1933 1.429 . S
C1937 C1938 1.523 . S
C1938 C1922 1.368 . S
C1938 C1934 1.368 . S
C1938 C1937 1.523 . S
H1939 C1914 0.950 . S
H1940 C1916 0.950 . S
H1941 C1917 0.949 . S
H1942 C1919 0.950 . S
H1943 C1921 0.950 . S
C1944 C1945 1.349 . S
C1944 C1946 1.327 . S
C1944 H1969 0.950 . S
C1945 C1944 1.349 . S
C1945 C1961 1.349 . S
C1946 C1944 1.327 . S
C1946 C1965 1.429 . S
C1946 H1970 0.950 . S
C1947 C1964 1.574 . S
C1947 C1966 1.368 . S
C1947 H1971 0.949 . S
H1948 C1952 0.949 . S
C1949 C1950 1.349 . S
C1949 C1951 1.327 . S
C1949 H1972 0.950 . S
C1950 C1949 1.349 . S
C1950 C1962 1.349 . S
C1951 C1949 1.327 . S
C1951 C1967 1.429 . S
C1951 H1973 0.950 . S
C1952 H1948 0.949 . S
C1952 C1960 1.574 . S
C1952 C1968 1.368 . S
H1953 C1961 0.950 . S
H1954 C1959 0.950 . S
H1955 C1960 0.949 . S
H1956 C1962 0.950 . S
H1957 C1963 0.950 . S
H1958 C1964 0.949 . S
C1959 H1954 0.950 . S
C1959 C1961 1.327 . S
C1959 C1965 1.429 . S
C1960 C1952 1.574 . S
C1960 H1955 0.949 . S
C1960 C1966 1.368 . S
C1961 C1945 1.349 . S
C1961 H1953 0.950 . S
C1961 C1959 1.327 . S
C1962 C1950 1.349 . S
C1962 H1956 0.950 . S
C1962 C1963 1.327 . S
C1963 H1957 0.950 . S
C1963 C1962 1.327 . S
C1963 C1967 1.429 . S
C1964 C1947 1.574 . S
C1964 H1958 0.949 . S
C1964 C1968 1.368 . S
C1965 C1946 1.429 . S
C1965 C1959 1.429 . S
C1965 C1966 1.523 . S
C1966 C1947 1.368 . S
C1966 C1960 1.368 . S
C1966 C1965 1.523 . S
C1967 C1951 1.429 . S
C1967 C1963 1.429 . S
C1967 C1968 1.523 . S
C1968 C1952 1.368 . S
C1968 C1964 1.368 . S
C1968 C1967 1.523 . S
H1969 C1944 0.950 . S
H1970 C1946 0.950 . S
H1971 C1947 0.949 . S
H1972 C1949 0.950 . S
H1973 C1951 0.950 . S
C1974 C1975 1.349 . S
C1974 C1976 1.327 . S
C1974 H1999 0.950 . S
C1975 C1974 1.349 . S
C1975 C1991 1.349 . S
C1976 C1974 1.327 . S
C1976 C1995 1.429 . S
C1976 H2000 0.950 . S
C1977 C1994 1.574 . S
C1977 C1996 1.368 . S
C1977 H2001 0.949 . S
H1978 C1982 0.949 . S
C1979 C1980 1.349 . S
C1979 C1981 1.327 . S
C1979 H2002 0.950 . S
C1980 C1979 1.349 . S
C1980 C1992 1.349 . S
C1981 C1979 1.327 . S
C1981 C1997 1.429 . S
C1981 H2003 0.950 . S
C1982 H1978 0.949 . S
C1982 C1990 1.574 . S
C1982 C1998 1.368 . S
H1983 C1991 0.950 . S
H1984 C1989 0.950 . S
H1985 C1990 0.949 . S
H1986 C1992 0.950 . S
H1987 C1993 0.950 . S
H1988 C1994 0.949 . S
C1989 H1984 0.950 . S
C1989 C1991 1.327 . S
C1989 C1995 1.429 . S
C1990 C1982 1.574 . S
C1990 H1985 0.949 . S
C1990 C1996 1.368 . S
C1991 C1975 1.349 . S
C1991 H1983 0.950 . S
C1991 C1989 1.327 . S
C1992 C1980 1.349 . S
C1992 H1986 0.950 . S
C1992 C1993 1.327 . S
C1993 H1987 0.950 . S
C1993 C1992 1.327 . S
C1993 C1997 1.429 . S
C1994 C1977 1.574 . S
C1994 H1988 0.949 . S
C1994 C1998 1.368 . S
C1995 C1976 1.429 . S
C1995 C1989 1.429 . S
C1995 C1996 1.523 . S
C1996 C1977 1.368 . S
C1996 C1990 1.368 . S
C1996 C1995 1.523 . S
C1997 C1981 1.429 . S
C1997 C1993 1.429 . S
C1997 C1998 1.523 . S
C1998 C1982 1.368 . S
C1998 C1994 1.368 . S
C1998 C1997 1.523 . S
H1999 C1974 0.950 . S
H2000 C1976 0.950 . S
H2001 C1977 0.949 . S
H2002 C1979 0.950 . S
H2003 C1981 0.950 . S
C2004 C2005 1.349 . S
C2004 C2006 1.327 . S
C2004 H2029 0.950 . S
C2005 C2004 1.349 . S
C2005 C2021 1.349 . S
C2006 C2004 1.327 . S
C2006 C2025 1.429 . S
C2006 H2030 0.950 . S
C2007 C2024 1.574 . S
C2007 C2026 1.368 . S
C2007 H2031 0.949 . S
H2008 C2012 0.949 . S
C2009 C2010 1.349 . S
C2009 C2011 1.327 . S
C2009 H2032 0.950 . S
C2010 C2009 1.349 . S
C2010 C2022 1.349 . S
C2011 C2009 1.327 . S
C2011 C2027 1.429 . S
C2011 H2033 0.950 . S
C2012 H2008 0.949 . S
C2012 C2020 1.574 . S
C2012 C2028 1.368 . S
H2013 C2021 0.950 . S
H2014 C2019 0.950 . S
H2015 C2020 0.949 . S
H2016 C2022 0.950 . S
H2017 C2023 0.950 . S
H2018 C2024 0.949 . S
C2019 H2014 0.950 . S
C2019 C2021 1.327 . S
C2019 C2025 1.429 . S
C2020 C2012 1.574 . S
C2020 H2015 0.949 . S
C2020 C2026 1.368 . S
C2021 C2005 1.349 . S
C2021 H2013 0.950 . S
C2021 C2019 1.327 . S
C2022 C2010 1.349 . S
C2022 H2016 0.950 . S
C2022 C2023 1.327 . S
C2023 H2017 0.950 . S
C2023 C2022 1.327 . S
C2023 C2027 1.429 . S
C2024 C2007 1.574 . S
C2024 H2018 0.949 . S
C2024 C2028 1.368 . S
C2025 C2006 1.429 . S
C2025 C2019 1.429 . S
C2025 C2026 1.523 . S
C2026 C2007 1.368 . S
C2026 C2020 1.368 . S
C2026 C2025 1.523 . S
C2027 C2011 1.429 . S
C2027 C2023 1.429 . S
C2027 C2028 1.523 . S
C2028 C2012 1.368 . S
C2028 C2024 1.368 . S
C2028 C2027 1.523 . S
H2029 C2004 0.950 . S
H2030 C2006 0.950 . S
H2031 C2007 0.949 . S
H2032 C2009 0.950 . S
H2033 C2011 0.950 . S
C2034 C2035 1.349 . S
C2034 C2036 1.327 . S
C2034 H2059 0.950 . S
C2035 C2034 1.349 . S
C2035 C2051 1.349 . S
C2036 C2034 1.327 . S
C2036 C2055 1.429 . S
C2036 H2060 0.950 . S
C2037 C2054 1.574 . S
C2037 C2056 1.368 . S
C2037 H2061 0.949 . S
H2038 C2042 0.949 . S
C2039 C2040 1.349 . S
C2039 C2041 1.327 . S
C2039 H2062 0.950 . S
C2040 C2039 1.349 . S
C2040 C2052 1.349 . S
C2041 C2039 1.327 . S
C2041 C2057 1.429 . S
C2041 H2063 0.950 . S
C2042 H2038 0.949 . S
C2042 C2050 1.574 . S
C2042 C2058 1.368 . S
H2043 C2051 0.950 . S
H2044 C2049 0.950 . S
H2045 C2050 0.949 . S
H2046 C2052 0.950 . S
H2047 C2053 0.950 . S
H2048 C2054 0.949 . S
C2049 H2044 0.950 . S
C2049 C2051 1.327 . S
C2049 C2055 1.429 . S
C2050 C2042 1.574 . S
C2050 H2045 0.949 . S
C2050 C2056 1.368 . S
C2051 C2035 1.349 . S
C2051 H2043 0.950 . S
C2051 C2049 1.327 . S
C2052 C2040 1.349 . S
C2052 H2046 0.950 . S
C2052 C2053 1.327 . S
C2053 H2047 0.950 . S
C2053 C2052 1.327 . S
C2053 C2057 1.429 . S
C2054 C2037 1.574 . S
C2054 H2048 0.949 . S
C2054 C2058 1.368 . S
C2055 C2036 1.429 . S
C2055 C2049 1.429 . S
C2055 C2056 1.523 . S
C2056 C2037 1.368 . S
C2056 C2050 1.368 . S
C2056 C2055 1.523 . S
C2057 C2041 1.429 . S
C2057 C2053 1.429 . S
C2057 C2058 1.523 . S
C2058 C2042 1.368 . S
C2058 C2054 1.368 . S
C2058 C2057 1.523 . S
H2059 C2034 0.950 . S
H2060 C2036 0.950 . S
H2061 C2037 0.949 . S
H2062 C2039 0.950 . S
H2063 C2041 0.950 . S
C2064 C2065 1.349 . S
C2064 C2066 1.327 . S
C2064 H2089 0.950 . S
C2065 C2064 1.349 . S
C2065 C2081 1.349 . S
C2066 C2064 1.327 . S
C2066 C2085 1.429 . S
C2066 H2090 0.950 . S
C2067 C2084 1.574 . S
C2067 C2086 1.368 . S
C2067 H2091 0.949 . S
H2068 C2072 0.949 . S
C2069 C2070 1.349 . S
C2069 C2071 1.327 . S
C2069 H2092 0.950 . S
C2070 C2069 1.349 . S
C2070 C2082 1.349 . S
C2071 C2069 1.327 . S
C2071 C2087 1.429 . S
C2071 H2093 0.950 . S
C2072 H2068 0.949 . S
C2072 C2080 1.574 . S
C2072 C2088 1.368 . S
H2073 C2081 0.950 . S
H2074 C2079 0.950 . S
H2075 C2080 0.949 . S
H2076 C2082 0.950 . S
H2077 C2083 0.950 . S
H2078 C2084 0.949 . S
C2079 H2074 0.950 . S
C2079 C2081 1.327 . S
C2079 C2085 1.429 . S
C2080 C2072 1.574 . S
C2080 H2075 0.949 . S
C2080 C2086 1.368 . S
C2081 C2065 1.349 . S
C2081 H2073 0.950 . S
C2081 C2079 1.327 . S
C2082 C2070 1.349 . S
C2082 H2076 0.950 . S
C2082 C2083 1.327 . S
C2083 H2077 0.950 . S
C2083 C2082 1.327 . S
C2083 C2087 1.429 . S
C2084 C2067 1.574 . S
C2084 H2078 0.949 . S
C2084 C2088 1.368 . S
C2085 C2066 1.429 . S
C2085 C2079 1.429 . S
C2085 C2086 1.523 . S
C2086 C2067 1.368 . S
C2086 C2080 1.368 . S
C2086 C2085 1.523 . S
C2087 C2071 1.429 . S
C2087 C2083 1.429 . S
C2087 C2088 1.523 . S
C2088 C2072 1.368 . S
C2088 C2084 1.368 . S
C2088 C2087 1.523 . S
H2089 C2064 0.950 . S
H2090 C2066 0.950 . S
H2091 C2067 0.949 . S
H2092 C2069 0.950 . S
H2093 C2071 0.950 . S
C2094 C2095 1.349 . S
C2094 C2096 1.327 . S
C2094 H2119 0.950 . S
C2095 C2094 1.349 . S
C2095 C2111 1.349 . S
C2096 C2094 1.327 . S
C2096 C2115 1.429 . S
C2096 H2120 0.950 . S
C2097 C2114 1.574 . S
C2097 C2116 1.368 . S
C2097 H2121 0.949 . S
H2098 C2102 0.949 . S
C2099 C2100 1.349 . S
C2099 C2101 1.327 . S
C2099 H2122 0.950 . S
C2100 C2099 1.349 . S
C2100 C2112 1.349 . S
C2101 C2099 1.327 . S
C2101 C2117 1.429 . S
C2101 H2123 0.950 . S
C2102 H2098 0.949 . S
C2102 C2110 1.574 . S
C2102 C2118 1.368 . S
H2103 C2111 0.950 . S
H2104 C2109 0.950 . S
H2105 C2110 0.949 . S
H2106 C2112 0.950 . S
H2107 C2113 0.950 . S
H2108 C2114 0.949 . S
C2109 H2104 0.950 . S
C2109 C2111 1.327 . S
C2109 C2115 1.429 . S
C2110 C2102 1.574 . S
C2110 H2105 0.949 . S
C2110 C2116 1.368 . S
C2111 C2095 1.349 . S
C2111 H2103 0.950 . S
C2111 C2109 1.327 . S
C2112 C2100 1.349 . S
C2112 H2106 0.950 . S
C2112 C2113 1.327 . S
C2113 H2107 0.950 . S
C2113 C2112 1.327 . S
C2113 C2117 1.429 . S
C2114 C2097 1.574 . S
C2114 H2108 0.949 . S
C2114 C2118 1.368 . S
C2115 C2096 1.429 . S
C2115 C2109 1.429 . S
C2115 C2116 1.523 . S
C2116 C2097 1.368 . S
C2116 C2110 1.368 . S
C2116 C2115 1.523 . S
C2117 C2101 1.429 . S
C2117 C2113 1.429 . S
C2117 C2118 1.523 . S
C2118 C2102 1.368 . S
C2118 C2114 1.368 . S
C2118 C2117 1.523 . S
H2119 C2094 0.950 . S
H2120 C2096 0.950 . S
H2121 C2097 0.949 . S
H2122 C2099 0.950 . S
H2123 C2101 0.950 . S
C2124 C2125 1.349 . S
C2124 C2126 1.327 . S
C2124 H2149 0.950 . S
C2125 C2124 1.349 . S
C2125 C2141 1.349 . S
C2126 C2124 1.327 . S
C2126 C2145 1.429 . S
C2126 H2150 0.950 . S
C2127 C2144 1.574 . S
C2127 C2146 1.368 . S
C2127 H2151 0.949 . S
H2128 C2132 0.949 . S
C2129 C2130 1.349 . S
C2129 C2131 1.327 . S
C2129 H2152 0.950 . S
C2130 C2129 1.349 . S
C2130 C2142 1.349 . S
C2131 C2129 1.327 . S
C2131 C2147 1.429 . S
C2131 H2153 0.950 . S
C2132 H2128 0.949 . S
C2132 C2140 1.574 . S
C2132 C2148 1.368 . S
H2133 C2141 0.950 . S
H2134 C2139 0.950 . S
H2135 C2140 0.949 . S
H2136 C2142 0.950 . S
H2137 C2143 0.950 . S
H2138 C2144 0.949 . S
C2139 H2134 0.950 . S
C2139 C2141 1.327 . S
C2139 C2145 1.429 . S
C2140 C2132 1.574 . S
C2140 H2135 0.949 . S
C2140 C2146 1.368 . S
C2141 C2125 1.349 . S
C2141 H2133 0.950 . S
C2141 C2139 1.327 . S
C2142 C2130 1.349 . S
C2142 H2136 0.950 . S
C2142 C2143 1.327 . S
C2143 H2137 0.950 . S
C2143 C2142 1.327 . S
C2143 C2147 1.429 . S
C2144 C2127 1.574 . S
C2144 H2138 0.949 . S
C2144 C2148 1.368 . S
C2145 C2126 1.429 . S
C2145 C2139 1.429 . S
C2145 C2146 1.523 . S
C2146 C2127 1.368 . S
C2146 C2140 1.368 . S
C2146 C2145 1.523 . S
C2147 C2131 1.429 . S
C2147 C2143 1.429 . S
C2147 C2148 1.523 . S
C2148 C2132 1.368 . S
C2148 C2144 1.368 . S
C2148 C2147 1.523 . S
H2149 C2124 0.950 . S
H2150 C2126 0.950 . S
H2151 C2127 0.949 . S
H2152 C2129 0.950 . S
H2153 C2131 0.950 . S
C2154 C2155 1.349 . S
C2154 C2156 1.327 . S
C2154 H2179 0.950 . S
C2155 C2154 1.349 . S
C2155 C2171 1.349 . S
C2156 C2154 1.327 . S
C2156 C2175 1.429 . S
C2156 H2180 0.950 . S
C2157 C2174 1.574 . S
C2157 C2176 1.368 . S
C2157 H2181 0.949 . S
H2158 C2162 0.949 . S
C2159 C2160 1.349 . S
C2159 C2161 1.327 . S
C2159 H2182 0.950 . S
C2160 C2159 1.349 . S
C2160 C2172 1.349 . S
C2161 C2159 1.327 . S
C2161 C2177 1.429 . S
C2161 H2183 0.950 . S
C2162 H2158 0.949 . S
C2162 C2170 1.574 . S
C2162 C2178 1.368 . S
H2163 C2171 0.950 . S
H2164 C2169 0.950 . S
H2165 C2170 0.949 . S
H2166 C2172 0.950 . S
H2167 C2173 0.950 . S
H2168 C2174 0.949 . S
C2169 H2164 0.950 . S
C2169 C2171 1.327 . S
C2169 C2175 1.429 . S
C2170 C2162 1.574 . S
C2170 H2165 0.949 . S
C2170 C2176 1.368 . S
C2171 C2155 1.349 . S
C2171 H2163 0.950 . S
C2171 C2169 1.327 . S
C2172 C2160 1.349 . S
C2172 H2166 0.950 . S
C2172 C2173 1.327 . S
C2173 H2167 0.950 . S
C2173 C2172 1.327 . S
C2173 C2177 1.429 . S
C2174 C2157 1.574 . S
C2174 H2168 0.949 . S
C2174 C2178 1.368 . S
C2175 C2156 1.429 . S
C2175 C2169 1.429 . S
C2175 C2176 1.523 . S
C2176 C2157 1.368 . S
C2176 C2170 1.368 . S
C2176 C2175 1.523 . S
C2177 C2161 1.429 . S
C2177 C2173 1.429 . S
C2177 C2178 1.523 . S
C2178 C2162 1.368 . S
C2178 C2174 1.368 . S
C2178 C2177 1.523 . S
H2179 C2154 0.950 . S
H2180 C2156 0.950 . S
H2181 C2157 0.949 . S
H2182 C2159 0.950 . S
H2183 C2161 0.950 . S
C2184 C2185 1.349 . S
C2184 C2186 1.327 . S
C2184 H2209 0.950 . S
C2185 C2184 1.349 . S
C2185 C2201 1.349 . S
C2186 C2184 1.327 . S
C2186 C2205 1.429 . S
C2186 H2210 0.950 . S
C2187 C2204 1.574 . S
C2187 C2206 1.368 . S
C2187 H2211 0.949 . S
H2188 C2192 0.949 . S
C2189 C2190 1.349 . S
C2189 C2191 1.327 . S
C2189 H2212 0.950 . S
C2190 C2189 1.349 . S
C2190 C2202 1.349 . S
C2191 C2189 1.327 . S
C2191 C2207 1.429 . S
C2191 H2213 0.950 . S
C2192 H2188 0.949 . S
C2192 C2200 1.574 . S
C2192 C2208 1.368 . S
H2193 C2201 0.950 . S
H2194 C2199 0.950 . S
H2195 C2200 0.949 . S
H2196 C2202 0.950 . S
H2197 C2203 0.950 . S
H2198 C2204 0.949 . S
C2199 H2194 0.950 . S
C2199 C2201 1.327 . S
C2199 C2205 1.429 . S
C2200 C2192 1.574 . S
C2200 H2195 0.949 . S
C2200 C2206 1.368 . S
C2201 C2185 1.349 . S
C2201 H2193 0.950 . S
C2201 C2199 1.327 . S
C2202 C2190 1.349 . S
C2202 H2196 0.950 . S
C2202 C2203 1.327 . S
C2203 H2197 0.950 . S
C2203 C2202 1.327 . S
C2203 C2207 1.429 . S
C2204 C2187 1.574 . S
C2204 H2198 0.949 . S
C2204 C2208 1.368 . S
C2205 C2186 1.429 . S
C2205 C2199 1.429 . S
C2205 C2206 1.523 . S
C2206 C2187 1.368 . S
C2206 C2200 1.368 . S
C2206 C2205 1.523 . S
C2207 C2191 1.429 . S
C2207 C2203 1.429 . S
C2207 C2208 1.523 . S
C2208 C2192 1.368 . S
C2208 C2204 1.368 . S
C2208 C2207 1.523 . S
H2209 C2184 0.950 . S
H2210 C2186 0.950 . S
H2211 C2187 0.949 . S
H2212 C2189 0.950 . S
H2213 C2191 0.950 . S
C2214 C2215 1.349 . S
C2214 C2216 1.327 . S
C2214 H2239 0.950 . S
C2215 C2214 1.349 . S
C2215 C2231 1.349 . S
C2216 C2214 1.327 . S
C2216 C2235 1.429 . S
C2216 H2240 0.950 . S
C2217 C2234 1.574 . S
C2217 C2236 1.368 . S
C2217 H2241 0.949 . S
H2218 C2222 0.949 . S
C2219 C2220 1.349 . S
C2219 C2221 1.327 . S
C2219 H2242 0.950 . S
C2220 C2219 1.349 . S
C2220 C2232 1.349 . S
C2221 C2219 1.327 . S
C2221 C2237 1.429 . S
C2221 H2243 0.950 . S
C2222 H2218 0.949 . S
C2222 C2230 1.574 . S
C2222 C2238 1.368 . S
H2223 C2231 0.950 . S
H2224 C2229 0.950 . S
H2225 C2230 0.949 . S
H2226 C2232 0.950 . S
H2227 C2233 0.950 . S
H2228 C2234 0.949 1_556 S
C2229 H2224 0.950 . S
C2229 C2231 1.327 . S
C2229 C2235 1.429 . S
C2230 C2222 1.574 . S
C2230 H2225 0.949 . S
C2230 C2236 1.368 . S
C2231 C2215 1.349 . S
C2231 H2223 0.950 . S
C2231 C2229 1.327 . S
C2232 C2220 1.349 . S
C2232 H2226 0.950 . S
C2232 C2233 1.327 1_556 S
C2233 H2227 0.950 . S
C2233 C2232 1.327 1_554 S
C2233 C2237 1.429 1_554 S
C2234 C2217 1.574 . S
C2234 H2228 0.949 1_554 S
C2234 C2238 1.368 . S
C2235 C2216 1.429 . S
C2235 C2229 1.429 . S
C2235 C2236 1.523 . S
C2236 C2217 1.368 . S
C2236 C2230 1.368 . S
C2236 C2235 1.523 . S
C2237 C2221 1.429 . S
C2237 C2233 1.429 1_556 S
C2237 C2238 1.523 1_556 S
C2238 C2222 1.368 . S
C2238 C2234 1.368 . S
C2238 C2237 1.523 1_554 S
H2239 C2214 0.950 . S
H2240 C2216 0.950 . S
H2241 C2217 0.949 . S
H2242 C2219 0.950 . S
H2243 C2221 0.950 . S
C2244 C2245 1.349 . S
C2244 C2246 1.327 . S
C2244 H2269 0.950 . S
C2245 C2244 1.349 . S
C2245 C2261 1.349 . S
C2246 C2244 1.327 . S
C2246 C2265 1.429 . S
C2246 H2270 0.950 . S
C2247 C2264 1.574 . S
C2247 C2266 1.368 . S
C2247 H2271 0.949 . S
H2248 C2252 0.949 . S
C2249 C2250 1.349 . S
C2249 C2251 1.327 . S
C2249 H2272 0.950 1_545 S
C2250 C2249 1.349 . S
C2250 C2262 1.349 . S
C2251 C2249 1.327 . S
C2251 C2267 1.429 . S
C2251 H2273 0.950 . S
C2252 H2248 0.949 . S
C2252 C2260 1.574 . S
C2252 C2268 1.368 . S
H2253 C2261 0.950 . S
H2254 C2259 0.950 . S
H2255 C2260 0.949 . S
H2256 C2262 0.950 . S
H2257 C2263 0.950 . S
H2258 C2264 0.949 . S
C2259 H2254 0.950 . S
C2259 C2261 1.327 . S
C2259 C2265 1.429 . S
C2260 C2252 1.574 . S
C2260 H2255 0.949 . S
C2260 C2266 1.368 . S
C2261 C2245 1.349 . S
C2261 H2253 0.950 . S
C2261 C2259 1.327 . S
C2262 C2250 1.349 . S
C2262 H2256 0.950 . S
C2262 C2263 1.327 . S
C2263 H2257 0.950 . S
C2263 C2262 1.327 . S
C2263 C2267 1.429 . S
C2264 C2247 1.574 . S
C2264 H2258 0.949 . S
C2264 C2268 1.368 . S
C2265 C2246 1.429 . S
C2265 C2259 1.429 . S
C2265 C2266 1.523 . S
C2266 C2247 1.368 . S
C2266 C2260 1.368 . S
C2266 C2265 1.523 . S
C2267 C2251 1.429 . S
C2267 C2263 1.429 . S
C2267 C2268 1.523 . S
C2268 C2252 1.368 . S
C2268 C2264 1.368 . S
C2268 C2267 1.523 . S
H2269 C2244 0.950 . S
H2270 C2246 0.950 . S
H2271 C2247 0.949 . S
H2272 C2249 0.950 1_565 S
H2273 C2251 0.950 . S
C2274 C2275 1.349 . S
C2274 C2276 1.327 1_554 S
C2274 H2299 0.950 1_554 S
C2275 C2274 1.349 . S
C2275 C2291 1.349 . S
C2276 C2274 1.327 1_556 S
C2276 C2295 1.429 1_556 S
C2276 H2300 0.950 . S
C2277 C2294 1.568 1_554 S
C2277 C2296 1.362 1_554 S
C2277 H2301 0.960 . S
H2278 C2282 0.949 . S
C2279 C2280 1.349 . S
C2279 C2281 1.327 . S
C2279 H2302 0.950 1_565 S
C2280 C2279 1.349 . S
C2280 C2292 1.349 . S
C2281 C2279 1.327 . S
C2281 C2297 1.429 . S
C2281 H2303 0.950 . S
C2282 H2278 0.949 . S
C2282 C2290 1.574 . S
C2282 C2298 1.368 . S
H2283 C2291 0.950 . S
H2284 C2289 0.950 . S
H2285 C2290 0.949 . S
H2286 C2292 0.950 . S
H2287 C2293 0.950 . S
H2288 C2294 0.949 . S
C2289 H2284 0.950 . S
C2289 C2291 1.327 . S
C2289 C2295 1.429 . S
C2290 C2282 1.574 . S
C2290 H2285 0.949 . S
C2290 C2296 1.368 . S
C2291 C2275 1.349 . S
C2291 H2283 0.950 . S
C2291 C2289 1.327 . S
C2292 C2280 1.349 . S
C2292 H2286 0.950 . S
C2292 C2293 1.327 . S
C2293 H2287 0.950 . S
C2293 C2292 1.327 . S
C2293 C2297 1.429 . S
C2294 C2277 1.568 1_556 S
C2294 H2288 0.949 . S
C2294 C2298 1.368 . S
C2295 C2276 1.429 1_554 S
C2295 C2289 1.429 . S
C2295 C2296 1.523 1_554 S
C2296 C2277 1.362 1_556 S
C2296 C2290 1.368 . S
C2296 C2295 1.523 1_556 S
C2297 C2281 1.429 . S
C2297 C2293 1.429 . S
C2297 C2298 1.523 . S
C2298 C2282 1.368 . S
C2298 C2294 1.368 . S
C2298 C2297 1.523 . S
H2299 C2274 0.950 1_556 S
H2300 C2276 0.950 . S
H2301 C2277 0.960 . S
H2302 C2279 0.950 1_545 S
H2303 C2281 0.950 . S
C2304 C2305 1.349 . S
C2304 C2306 1.327 . S
C2304 H2329 0.950 . S
C2305 C2304 1.349 . S
C2305 C2321 1.349 . S
C2306 C2304 1.327 . S
C2306 C2325 1.429 . S
C2306 H2330 0.950 . S
C2307 C2324 1.574 . S
C2307 C2326 1.368 . S
C2307 H2331 0.949 . S
H2308 C2312 0.949 . S
C2309 C2310 1.349 . S
C2309 C2311 1.327 . S
C2309 H2332 0.950 . S
C2310 C2309 1.349 . S
C2310 C2322 1.349 . S
C2311 C2309 1.327 . S
C2311 C2327 1.429 . S
C2311 H2333 0.950 . S
C2312 H2308 0.949 . S
C2312 C2320 1.574 . S
C2312 C2328 1.368 . S
H2313 C2321 0.950 . S
H2314 C2319 0.950 . S
H2315 C2320 0.949 . S
H2316 C2322 0.950 . S
H2317 C2323 0.950 . S
H2318 C2324 0.949 . S
C2319 H2314 0.950 . S
C2319 C2321 1.327 . S
C2319 C2325 1.429 . S
C2320 C2312 1.574 . S
C2320 H2315 0.949 . S
C2320 C2326 1.368 . S
C2321 C2305 1.349 . S
C2321 H2313 0.950 . S
C2321 C2319 1.327 . S
C2322 C2310 1.349 . S
C2322 H2316 0.950 . S
C2322 C2323 1.327 . S
C2323 H2317 0.950 . S
C2323 C2322 1.327 . S
C2323 C2327 1.429 . S
C2324 C2307 1.574 . S
C2324 H2318 0.949 . S
C2324 C2328 1.368 . S
C2325 C2306 1.429 . S
C2325 C2319 1.429 . S
C2325 C2326 1.523 . S
C2326 C2307 1.368 . S
C2326 C2320 1.368 . S
C2326 C2325 1.523 . S
C2327 C2311 1.429 . S
C2327 C2323 1.429 . S
C2327 C2328 1.523 . S
C2328 C2312 1.368 . S
C2328 C2324 1.368 . S
C2328 C2327 1.523 . S
H2329 C2304 0.950 . S
H2330 C2306 0.950 . S
H2331 C2307 0.949 . S
H2332 C2309 0.950 . S
H2333 C2311 0.950 . S
C2334 C2335 1.349 . S
C2334 C2336 1.327 . S
C2334 H2359 0.950 1_556 S
C2335 C2334 1.349 . S
C2335 C2351 1.349 . S
C2336 C2334 1.327 . S
C2336 C2355 1.429 . S
C2336 H2360 0.950 . S
C2337 C2354 1.574 . S
C2337 C2356 1.368 . S
C2337 H2361 0.949 . S
H2338 C2342 0.978 . S
C2339 C2340 1.349 . S
C2339 C2341 1.327 . S
C2339 H2362 0.950 . S
C2340 C2339 1.349 . S
C2340 C2352 1.349 . S
C2341 C2339 1.327 . S
C2341 C2357 1.429 . S
C2341 H2363 0.950 1_455 S
C2342 H2338 0.978 . S
C2342 C2350 1.574 . S
C2342 C2358 1.368 . S
H2343 C2351 0.950 . S
H2344 C2349 0.950 . S
H2345 C2350 0.949 . S
H2346 C2352 0.950 . S
H2347 C2353 0.950 . S
H2348 C2354 0.949 . S
C2349 H2344 0.950 . S
C2349 C2351 1.327 . S
C2349 C2355 1.429 . S
C2350 C2342 1.574 . S
C2350 H2345 0.949 . S
C2350 C2356 1.368 . S
C2351 C2335 1.349 . S
C2351 H2343 0.950 . S
C2351 C2349 1.327 . S
C2352 C2340 1.349 . S
C2352 H2346 0.950 . S
C2352 C2353 1.327 . S
C2353 H2347 0.950 . S
C2353 C2352 1.327 . S
C2353 C2357 1.429 . S
C2354 C2337 1.574 . S
C2354 H2348 0.949 . S
C2354 C2358 1.368 . S
C2355 C2336 1.429 . S
C2355 C2349 1.429 . S
C2355 C2356 1.523 . S
C2356 C2337 1.368 . S
C2356 C2350 1.368 . S
C2356 C2355 1.523 . S
C2357 C2341 1.429 . S
C2357 C2353 1.429 . S
C2357 C2358 1.523 1_455 S
C2358 C2342 1.368 . S
C2358 C2354 1.368 . S
C2358 C2357 1.523 1_655 S
H2359 C2334 0.950 1_554 S
H2360 C2336 0.950 . S
H2361 C2337 0.949 . S
H2362 C2339 0.950 . S
H2363 C2341 0.950 1_655 S
C2364 C2365 1.349 . S
C2364 C2366 1.327 . S
C2364 H2389 0.950 . S
C2365 C2364 1.349 . S
C2365 C2381 1.349 . S
C2366 C2364 1.327 . S
C2366 C2385 1.429 . S
C2366 H2390 0.950 . S
C2367 C2384 1.574 . S
C2367 C2386 1.368 . S
C2367 H2391 0.949 . S
H2368 C2372 0.949 1_655 S
C2369 C2370 1.349 . S
C2369 C2371 1.327 1_655 S
C2369 H2392 0.950 . S
C2370 C2369 1.349 . S
C2370 C2382 1.349 . S
C2371 C2369 1.327 1_455 S
C2371 C2387 1.429 1_455 S
C2371 H2393 0.950 . S
C2372 H2368 0.949 1_455 S
C2372 C2380 1.574 . S
C2372 C2388 1.368 . S
H2373 C2381 0.950 . S
H2374 C2379 0.950 . S
H2375 C2380 0.949 . S
H2376 C2382 0.950 . S
H2377 C2383 0.950 . S
H2378 C2384 0.949 . S
C2379 H2374 0.950 . S
C2379 C2381 1.327 . S
C2379 C2385 1.429 . S
C2380 C2372 1.574 . S
C2380 H2375 0.949 . S
C2380 C2386 1.368 . S
C2381 C2365 1.349 . S
C2381 H2373 0.950 . S
C2381 C2379 1.327 . S
C2382 C2370 1.349 . S
C2382 H2376 0.950 . S
C2382 C2383 1.327 . S
C2383 H2377 0.950 . S
C2383 C2382 1.327 . S
C2383 C2387 1.429 . S
C2384 C2367 1.574 . S
C2384 H2378 0.949 . S
C2384 C2388 1.368 . S
C2385 C2366 1.429 . S
C2385 C2379 1.429 . S
C2385 C2386 1.523 . S
C2386 C2367 1.368 . S
C2386 C2380 1.368 . S
C2386 C2385 1.523 . S
C2387 C2371 1.429 1_655 S
C2387 C2383 1.429 . S
C2387 C2388 1.523 1_655 S
C2388 C2372 1.368 . S
C2388 C2384 1.368 . S
C2388 C2387 1.523 1_455 S
H2389 C2364 0.950 . S
H2390 C2366 0.950 . S
H2391 C2367 0.949 . S
H2392 C2369 0.950 . S
H2393 C2371 0.950 . S
C2394 C2395 1.349 . S
C2394 C2396 1.327 . S
C2394 H2419 0.950 . S
C2395 C2394 1.349 . S
C2395 C2411 1.349 . S
C2396 C2394 1.327 . S
C2396 C2415 1.429 . S
C2396 H2420 0.950 . S
C2397 C2414 1.574 . S
C2397 C2416 1.368 . S
C2397 H2421 0.949 . S
H2398 C2402 0.949 . S
C2399 C2400 1.349 . S
C2399 C2401 1.327 . S
C2399 H2422 0.950 . S
C2400 C2399 1.349 . S
C2400 C2412 1.349 . S
C2401 C2399 1.327 . S
C2401 C2417 1.429 . S
C2401 H2423 0.950 . S
C2402 H2398 0.949 . S
C2402 C2410 1.574 . S
C2402 C2418 1.368 . S
H2403 C2411 0.950 . S
H2404 C2409 0.950 . S
H2405 C2410 0.949 . S
H2406 C2412 0.950 . S
H2407 C2413 0.950 . S
H2408 C2414 0.949 . S
C2409 H2404 0.950 . S
C2409 C2411 1.327 . S
C2409 C2415 1.429 . S
C2410 C2402 1.574 . S
C2410 H2405 0.949 . S
C2410 C2416 1.368 . S
C2411 C2395 1.349 . S
C2411 H2403 0.950 . S
C2411 C2409 1.327 . S
C2412 C2400 1.349 . S
C2412 H2406 0.950 . S
C2412 C2413 1.327 . S
C2413 H2407 0.950 . S
C2413 C2412 1.327 . S
C2413 C2417 1.429 . S
C2414 C2397 1.574 . S
C2414 H2408 0.949 . S
C2414 C2418 1.368 . S
C2415 C2396 1.429 . S
C2415 C2409 1.429 . S
C2415 C2416 1.523 . S
C2416 C2397 1.368 . S
C2416 C2410 1.368 . S
C2416 C2415 1.523 . S
C2417 C2401 1.429 . S
C2417 C2413 1.429 . S
C2417 C2418 1.523 . S
C2418 C2402 1.368 . S
C2418 C2414 1.368 . S
C2418 C2417 1.523 . S
H2419 C2394 0.950 . S
H2420 C2396 0.950 . S
H2421 C2397 0.949 . S
H2422 C2399 0.950 . S
H2423 C2401 0.950 . S
C2424 C2425 1.349 . S
C2424 C2426 1.327 . S
C2424 H2449 0.950 . S
C2425 C2424 1.349 . S
C2425 C2441 1.349 . S
C2426 C2424 1.327 . S
C2426 C2445 1.429 . S
C2426 H2450 0.950 . S
C2427 C2444 1.574 . S
C2427 C2446 1.368 . S
C2427 H2451 0.949 . S
H2428 C2432 0.949 . S
C2429 C2430 1.349 . S
C2429 C2431 1.327 . S
C2429 H2452 0.950 . S
C2430 C2429 1.349 . S
C2430 C2442 1.349 . S
C2431 C2429 1.327 . S
C2431 C2447 1.429 . S
C2431 H2453 0.950 . S
C2432 H2428 0.949 . S
C2432 C2440 1.574 . S
C2432 C2448 1.368 . S
H2433 C2441 0.950 . S
H2434 C2439 0.950 . S
H2435 C2440 0.949 . S
H2436 C2442 0.950 . S
H2437 C2443 0.950 . S
H2438 C2444 0.949 . S
C2439 H2434 0.950 . S
C2439 C2441 1.327 . S
C2439 C2445 1.429 . S
C2440 C2432 1.574 . S
C2440 H2435 0.949 . S
C2440 C2446 1.368 . S
C2441 C2425 1.349 . S
C2441 H2433 0.950 . S
C2441 C2439 1.327 . S
C2442 C2430 1.349 . S
C2442 H2436 0.950 . S
C2442 C2443 1.327 . S
C2443 H2437 0.950 . S
C2443 C2442 1.327 . S
C2443 C2447 1.429 . S
C2444 C2427 1.574 . S
C2444 H2438 0.949 . S
C2444 C2448 1.368 . S
C2445 C2426 1.429 . S
C2445 C2439 1.429 . S
C2445 C2446 1.523 . S
C2446 C2427 1.368 . S
C2446 C2440 1.368 . S
C2446 C2445 1.523 . S
C2447 C2431 1.429 . S
C2447 C2443 1.429 . S
C2447 C2448 1.523 . S
C2448 C2432 1.368 . S
C2448 C2444 1.368 . S
C2448 C2447 1.523 . S
H2449 C2424 0.950 . S
H2450 C2426 0.950 . S
H2451 C2427 0.949 . S
H2452 C2429 0.950 . S
H2453 C2431 0.950 . S
C2454 C2455 1.349 . S
C2454 C2456 1.325 1_545 S
C2454 H2479 0.950 . S
C2455 C2454 1.349 . S
C2455 C2471 1.349 . S
C2456 C2454 1.325 1_565 S
C2456 C2475 1.428 1_565 S
C2456 H2480 0.952 . S
C2457 C2474 1.574 . S
C2457 C2476 1.368 . S
C2457 H2481 0.949 1_565 S
H2458 C2462 0.949 . S
C2459 C2460 1.349 . S
C2459 C2461 1.327 . S
C2459 H2482 0.950 . S
C2460 C2459 1.349 . S
C2460 C2472 1.349 . S
C2461 C2459 1.327 . S
C2461 C2477 1.429 . S
C2461 H2483 0.950 . S
C2462 H2458 0.949 . S
C2462 C2470 1.574 . S
C2462 C2478 1.368 . S
H2463 C2471 0.950 . S
H2464 C2469 0.950 . S
H2465 C2470 0.949 . S
H2466 C2472 0.950 . S
H2467 C2473 0.950 . S
H2468 C2474 0.949 . S
C2469 H2464 0.950 . S
C2469 C2471 1.327 . S
C2469 C2475 1.429 . S
C2470 C2462 1.574 . S
C2470 H2465 0.949 . S
C2470 C2476 1.368 . S
C2471 C2455 1.349 . S
C2471 H2463 0.950 . S
C2471 C2469 1.327 . S
C2472 C2460 1.349 . S
C2472 H2466 0.950 . S
C2472 C2473 1.327 . S
C2473 H2467 0.950 . S
C2473 C2472 1.327 . S
C2473 C2477 1.429 . S
C2474 C2457 1.574 . S
C2474 H2468 0.949 . S
C2474 C2478 1.368 . S
C2475 C2456 1.428 1_545 S
C2475 C2469 1.429 . S
C2475 C2476 1.523 1_545 S
C2476 C2457 1.368 . S
C2476 C2470 1.368 . S
C2476 C2475 1.523 1_565 S
C2477 C2461 1.429 . S
C2477 C2473 1.429 . S
C2477 C2478 1.523 . S
C2478 C2462 1.368 . S
C2478 C2474 1.368 . S
C2478 C2477 1.523 . S
H2479 C2454 0.950 . S
H2480 C2456 0.952 . S
H2481 C2457 0.949 1_545 S
H2482 C2459 0.950 . S
H2483 C2461 0.950 . S
C2484 C2485 1.349 . S
C2484 C2486 1.327 . S
C2484 H2509 0.950 . S
C2485 C2484 1.349 . S
C2485 C2501 1.349 . S
C2486 C2484 1.327 . S
C2486 C2505 1.429 . S
C2486 H2510 0.950 . S
C2487 C2504 1.574 . S
C2487 C2506 1.368 . S
C2487 H2511 0.949 . S
H2488 C2492 0.949 . S
C2489 C2490 1.349 . S
C2489 C2491 1.327 . S
C2489 H2512 0.950 . S
C2490 C2489 1.349 . S
C2490 C2502 1.349 . S
C2491 C2489 1.327 . S
C2491 C2507 1.429 . S
C2491 H2513 0.950 . S
C2492 H2488 0.949 . S
C2492 C2500 1.574 . S
C2492 C2508 1.368 . S
H2493 C2501 0.950 . S
H2494 C2499 0.950 . S
H2495 C2500 0.949 . S
H2496 C2502 0.950 . S
H2497 C2503 0.950 . S
H2498 C2504 0.949 . S
C2499 H2494 0.950 . S
C2499 C2501 1.327 . S
C2499 C2505 1.429 . S
C2500 C2492 1.574 . S
C2500 H2495 0.949 . S
C2500 C2506 1.368 . S
C2501 C2485 1.349 . S
C2501 H2493 0.950 . S
C2501 C2499 1.327 . S
C2502 C2490 1.349 . S
C2502 H2496 0.950 . S
C2502 C2503 1.327 . S
C2503 H2497 0.950 . S
C2503 C2502 1.327 . S
C2503 C2507 1.429 . S
C2504 C2487 1.574 . S
C2504 H2498 0.949 . S
C2504 C2508 1.368 . S
C2505 C2486 1.429 . S
C2505 C2499 1.429 . S
C2505 C2506 1.523 . S
C2506 C2487 1.368 . S
C2506 C2500 1.368 . S
C2506 C2505 1.523 . S
C2507 C2491 1.429 . S
C2507 C2503 1.429 . S
C2507 C2508 1.523 1_565 S
C2508 C2492 1.368 . S
C2508 C2504 1.368 . S
C2508 C2507 1.523 1_545 S
H2509 C2484 0.950 . S
H2510 C2486 0.950 . S
H2511 C2487 0.949 . S
H2512 C2489 0.950 . S
H2513 C2491 0.950 . S
C2514 C2515 1.349 . S
C2514 C2516 1.327 . S
C2514 H2539 0.950 . S
C2515 C2514 1.349 . S
C2515 C2531 1.349 . S
C2516 C2514 1.327 . S
C2516 C2535 1.429 . S
C2516 H2540 0.950 . S
C2517 C2534 1.574 . S
C2517 C2536 1.368 . S
C2517 H2541 0.949 . S
H2518 C2522 0.949 . S
C2519 C2520 1.349 . S
C2519 C2521 1.327 . S
C2519 H2542 0.950 . S
C2520 C2519 1.349 . S
C2520 C2532 1.349 . S
C2521 C2519 1.327 . S
C2521 C2537 1.429 . S
C2521 H2543 0.950 . S
C2522 H2518 0.949 . S
C2522 C2530 1.574 . S
C2522 C2538 1.368 . S
H2523 C2531 0.950 . S
H2524 C2529 0.950 . S
H2525 C2530 0.949 . S
H2526 C2532 0.970 . S
H2527 C2533 0.950 . S
H2528 C2534 0.949 . S
C2529 H2524 0.950 . S
C2529 C2531 1.327 . S
C2529 C2535 1.429 . S
C2530 C2522 1.574 . S
C2530 H2525 0.949 . S
C2530 C2536 1.368 . S
C2531 C2515 1.349 . S
C2531 H2523 0.950 . S
C2531 C2529 1.327 . S
C2532 C2520 1.349 . S
C2532 H2526 0.970 . S
C2532 C2533 1.327 . S
C2533 H2527 0.950 . S
C2533 C2532 1.327 . S
C2533 C2537 1.429 . S
C2534 C2517 1.574 . S
C2534 H2528 0.949 . S
C2534 C2538 1.368 . S
C2535 C2516 1.429 . S
C2535 C2529 1.429 . S
C2535 C2536 1.523 . S
C2536 C2517 1.368 . S
C2536 C2530 1.368 . S
C2536 C2535 1.523 . S
C2537 C2521 1.429 . S
C2537 C2533 1.429 . S
C2537 C2538 1.523 . S
C2538 C2522 1.368 . S
C2538 C2534 1.368 . S
C2538 C2537 1.523 . S
H2539 C2514 0.950 . S
H2540 C2516 0.950 . S
H2541 C2517 0.949 . S
H2542 C2519 0.950 . S
H2543 C2521 0.950 . S
C2544 C2545 1.349 . S
C2544 C2546 1.327 . S
C2544 H2569 0.950 . S
C2545 C2544 1.349 . S
C2545 C2561 1.349 . S
C2546 C2544 1.327 . S
C2546 C2565 1.429 . S
C2546 H2570 0.950 . S
C2547 C2564 1.574 . S
C2547 C2566 1.368 . S
C2547 H2571 0.949 . S
H2548 C2552 0.949 . S
C2549 C2550 1.349 . S
C2549 C2551 1.327 . S
C2549 H2572 0.950 . S
C2550 C2549 1.349 . S
C2550 C2562 1.349 . S
C2551 C2549 1.327 . S
C2551 C2567 1.429 . S
C2551 H2573 0.950 . S
C2552 H2548 0.949 . S
C2552 C2560 1.574 . S
C2552 C2568 1.368 . S
H2553 C2561 0.950 . S
H2554 C2559 0.950 . S
H2555 C2560 0.949 . S
H2556 C2562 0.950 . S
H2557 C2563 0.950 . S
H2558 C2564 0.949 . S
C2559 H2554 0.950 . S
C2559 C2561 1.327 . S
C2559 C2565 1.429 . S
C2560 C2552 1.574 . S
C2560 H2555 0.949 . S
C2560 C2566 1.368 . S
C2561 C2545 1.349 . S
C2561 H2553 0.950 . S
C2561 C2559 1.327 . S
C2562 C2550 1.349 . S
C2562 H2556 0.950 . S
C2562 C2563 1.327 . S
C2563 H2557 0.950 . S
C2563 C2562 1.327 . S
C2563 C2567 1.429 . S
C2564 C2547 1.574 . S
C2564 H2558 0.949 . S
C2564 C2568 1.368 . S
C2565 C2546 1.429 . S
C2565 C2559 1.429 . S
C2565 C2566 1.523 . S
C2566 C2547 1.368 . S
C2566 C2560 1.368 . S
C2566 C2565 1.523 . S
C2567 C2551 1.429 . S
C2567 C2563 1.429 . S
C2567 C2568 1.523 . S
C2568 C2552 1.368 . S
C2568 C2564 1.368 . S
C2568 C2567 1.523 . S
H2569 C2544 0.950 . S
H2570 C2546 0.950 . S
H2571 C2547 0.949 . S
H2572 C2549 0.950 . S
H2573 C2551 0.950 . S
C2574 C2575 1.349 . S
C2574 C2576 1.327 . S
C2574 H2599 0.950 . S
C2575 C2574 1.349 . S
C2575 C2591 1.349 . S
C2576 C2574 1.327 . S
C2576 C2595 1.429 . S
C2576 H2600 0.950 . S
C2577 C2594 1.574 . S
C2577 C2596 1.368 . S
C2577 H2601 0.949 . S
H2578 C2582 0.949 . S
C2579 C2580 1.349 . S
C2579 C2581 1.327 . S
C2579 H2602 0.950 . S
C2580 C2579 1.349 . S
C2580 C2592 1.349 . S
C2581 C2579 1.327 . S
C2581 C2597 1.429 . S
C2581 H2603 0.950 . S
C2582 H2578 0.949 . S
C2582 C2590 1.574 . S
C2582 C2598 1.368 . S
H2583 C2591 0.950 . S
H2584 C2589 0.950 . S
H2585 C2590 0.949 . S
H2586 C2592 0.950 . S
H2587 C2593 0.950 1_556 S
H2588 C2594 0.949 . S
C2589 H2584 0.950 . S
C2589 C2591 1.327 . S
C2589 C2595 1.429 . S
C2590 C2582 1.574 . S
C2590 H2585 0.949 . S
C2590 C2596 1.368 . S
C2591 C2575 1.349 . S
C2591 H2583 0.950 . S
C2591 C2589 1.327 . S
C2592 C2580 1.349 . S
C2592 H2586 0.950 . S
C2592 C2593 1.327 . S
C2593 H2587 0.950 1_554 S
C2593 C2592 1.327 . S
C2593 C2597 1.429 . S
C2594 C2577 1.574 . S
C2594 H2588 0.949 . S
C2594 C2598 1.368 . S
C2595 C2576 1.429 . S
C2595 C2589 1.429 . S
C2595 C2596 1.523 . S
C2596 C2577 1.368 . S
C2596 C2590 1.368 . S
C2596 C2595 1.523 . S
C2597 C2581 1.429 . S
C2597 C2593 1.429 . S
C2597 C2598 1.523 1_554 S
C2598 C2582 1.368 . S
C2598 C2594 1.368 . S
C2598 C2597 1.523 1_556 S
H2599 C2574 0.950 . S
H2600 C2576 0.950 . S
H2601 C2577 0.949 . S
H2602 C2579 0.950 . S
H2603 C2581 0.950 . S
C2604 C2605 1.349 . S
C2604 C2606 1.327 . S
C2604 H2629 0.950 . S
C2605 C2604 1.349 . S
C2605 C2621 1.349 . S
C2606 C2604 1.327 . S
C2606 C2625 1.429 . S
C2606 H2630 0.950 . S
C2607 C2624 1.574 . S
C2607 C2626 1.368 . S
C2607 H2631 0.949 . S
H2608 C2612 0.949 . S
C2609 C2610 1.349 . S
C2609 C2611 1.327 . S
C2609 H2632 0.950 . S
C2610 C2609 1.349 . S
C2610 C2622 1.349 . S
C2611 C2609 1.327 . S
C2611 C2627 1.429 . S
C2611 H2633 0.950 . S
C2612 H2608 0.949 . S
C2612 C2620 1.574 . S
C2612 C2628 1.368 . S
H2613 C2621 0.950 1_545 S
H2614 C2619 0.950 . S
H2615 C2620 0.949 . S
H2616 C2622 0.950 . S
H2617 C2623 0.950 . S
H2618 C2624 0.949 . S
C2619 H2614 0.950 . S
C2619 C2621 1.327 . S
C2619 C2625 1.429 . S
C2620 C2612 1.574 . S
C2620 H2615 0.949 . S
C2620 C2626 1.368 . S
C2621 C2605 1.349 . S
C2621 H2613 0.950 1_565 S
C2621 C2619 1.327 . S
C2622 C2610 1.349 . S
C2622 H2616 0.950 . S
C2622 C2623 1.327 . S
C2623 H2617 0.950 . S
C2623 C2622 1.327 . S
C2623 C2627 1.429 . S
C2624 C2607 1.574 . S
C2624 H2618 0.949 . S
C2624 C2628 1.368 . S
C2625 C2606 1.429 . S
C2625 C2619 1.429 . S
C2625 C2626 1.523 . S
C2626 C2607 1.368 . S
C2626 C2620 1.368 . S
C2626 C2625 1.523 . S
C2627 C2611 1.429 . S
C2627 C2623 1.429 . S
C2627 C2628 1.523 . S
C2628 C2612 1.368 . S
C2628 C2624 1.368 . S
C2628 C2627 1.523 . S
H2629 C2604 0.950 . S
H2630 C2606 0.950 . S
H2631 C2607 0.949 . S
H2632 C2609 0.950 . S
H2633 C2611 0.950 . S
C2634 C2635 1.349 . S
C2634 C2636 1.327 . S
C2634 H2659 0.950 1_545 S
C2635 C2634 1.349 . S
C2635 C2651 1.349 . S
C2636 C2634 1.327 . S
C2636 C2655 1.429 . S
C2636 H2660 0.950 . S
C2637 C2654 1.574 . S
C2637 C2656 1.368 . S
C2637 H2661 0.949 . S
H2638 C2642 0.949 1_556 S
C2639 C2640 1.349 . S
C2639 C2641 1.321 1_556 S
C2639 H2662 0.950 . S
C2640 C2639 1.349 . S
C2640 C2652 1.349 . S
C2641 C2639 1.321 1_554 S
C2641 C2657 1.428 1_554 S
C2641 H2663 0.957 . S
C2642 H2638 0.949 1_554 S
C2642 C2650 1.574 . S
C2642 C2658 1.368 . S
H2643 C2651 0.950 . S
H2644 C2649 0.950 . S
H2645 C2650 0.949 . S
H2646 C2652 0.950 . S
H2647 C2653 0.950 . S
H2648 C2654 0.949 . S
C2649 H2644 0.950 . S
C2649 C2651 1.327 . S
C2649 C2655 1.429 . S
C2650 C2642 1.574 . S
C2650 H2645 0.949 . S
C2650 C2656 1.368 . S
C2651 C2635 1.349 . S
C2651 H2643 0.950 . S
C2651 C2649 1.327 . S
C2652 C2640 1.349 . S
C2652 H2646 0.950 . S
C2652 C2653 1.327 . S
C2653 H2647 0.950 . S
C2653 C2652 1.327 . S
C2653 C2657 1.429 . S
C2654 C2637 1.574 . S
C2654 H2648 0.949 . S
C2654 C2658 1.368 . S
C2655 C2636 1.429 . S
C2655 C2649 1.429 . S
C2655 C2656 1.523 . S
C2656 C2637 1.368 . S
C2656 C2650 1.368 . S
C2656 C2655 1.523 . S
C2657 C2641 1.428 1_556 S
C2657 C2653 1.429 . S
C2657 C2658 1.523 1_556 S
C2658 C2642 1.368 . S
C2658 C2654 1.368 . S
C2658 C2657 1.523 1_554 S
H2659 C2634 0.950 1_565 S
H2660 C2636 0.950 . S
H2661 C2637 0.949 . S
H2662 C2639 0.950 . S
H2663 C2641 0.957 . S
C2664 C2665 1.349 . S
C2664 C2666 1.327 . S
C2664 H2689 0.950 . S
C2665 C2664 1.349 . S
C2665 C2681 1.349 . S
C2666 C2664 1.327 . S
C2666 C2685 1.429 . S
C2666 H2690 0.950 . S
C2667 C2684 1.574 . S
C2667 C2686 1.368 . S
C2667 H2691 0.949 . S
H2668 C2672 0.949 . S
C2669 C2670 1.349 . S
C2669 C2671 1.327 . S
C2669 H2692 0.950 . S
C2670 C2669 1.349 . S
C2670 C2682 1.349 . S
C2671 C2669 1.327 . S
C2671 C2687 1.429 . S
C2671 H2693 0.950 . S
C2672 H2668 0.949 . S
C2672 C2680 1.574 . S
C2672 C2688 1.368 . S
H2673 C2681 0.950 . S
H2674 C2679 0.950 . S
H2675 C2680 0.949 . S
H2676 C2682 0.950 . S
H2677 C2683 0.950 . S
H2678 C2684 0.949 . S
C2679 H2674 0.950 . S
C2679 C2681 1.327 . S
C2679 C2685 1.429 . S
C2680 C2672 1.574 . S
C2680 H2675 0.949 . S
C2680 C2686 1.368 . S
C2681 C2665 1.349 . S
C2681 H2673 0.950 . S
C2681 C2679 1.327 . S
C2682 C2670 1.349 . S
C2682 H2676 0.950 . S
C2682 C2683 1.327 . S
C2683 H2677 0.950 . S
C2683 C2682 1.327 . S
C2683 C2687 1.429 . S
C2684 C2667 1.574 . S
C2684 H2678 0.949 . S
C2684 C2688 1.368 . S
C2685 C2666 1.429 . S
C2685 C2679 1.429 . S
C2685 C2686 1.523 . S
C2686 C2667 1.368 . S
C2686 C2680 1.368 . S
C2686 C2685 1.523 . S
C2687 C2671 1.429 . S
C2687 C2683 1.429 . S
C2687 C2688 1.523 . S
C2688 C2672 1.368 . S
C2688 C2684 1.368 . S
C2688 C2687 1.523 . S
H2689 C2664 0.950 . S
H2690 C2666 0.950 . S
H2691 C2667 0.949 . S
H2692 C2669 0.950 . S
H2693 C2671 0.950 . S
C2694 C2695 1.349 . S
C2694 C2696 1.327 1_655 S
C2694 H2719 0.950 . S
C2695 C2694 1.349 . S
C2695 C2711 1.349 . S
C2696 C2694 1.327 1_455 S
C2696 C2715 1.429 1_455 S
C2696 H2720 0.950 . S
C2697 C2714 1.574 . S
C2697 C2716 1.368 . S
C2697 H2721 0.949 1_455 S
H2698 C2702 0.949 . S
C2699 C2700 1.349 . S
C2699 C2701 1.327 . S
C2699 H2722 0.950 1_554 S
C2700 C2699 1.349 . S
C2700 C2712 1.349 . S
C2701 C2699 1.327 . S
C2701 C2717 1.429 . S
C2701 H2723 0.950 . S
C2702 H2698 0.949 . S
C2702 C2710 1.574 . S
C2702 C2718 1.368 . S
H2703 C2711 0.950 . S
H2704 C2709 0.950 . S
H2705 C2710 0.949 . S
H2706 C2712 0.950 . S
H2707 C2713 0.950 . S
H2708 C2714 0.949 . S
C2709 H2704 0.950 . S
C2709 C2711 1.327 . S
C2709 C2715 1.429 . S
C2710 C2702 1.574 . S
C2710 H2705 0.949 . S
C2710 C2716 1.368 . S
C2711 C2695 1.349 . S
C2711 H2703 0.950 . S
C2711 C2709 1.327 . S
C2712 C2700 1.349 . S
C2712 H2706 0.950 . S
C2712 C2713 1.327 . S
C2713 H2707 0.950 . S
C2713 C2712 1.327 . S
C2713 C2717 1.429 . S
C2714 C2697 1.574 . S
C2714 H2708 0.949 . S
C2714 C2718 1.368 . S
C2715 C2696 1.429 1_655 S
C2715 C2709 1.429 . S
C2715 C2716 1.523 1_655 S
C2716 C2697 1.368 . S
C2716 C2710 1.368 . S
C2716 C2715 1.523 1_455 S
C2717 C2701 1.429 . S
C2717 C2713 1.429 . S
C2717 C2718 1.523 . S
C2718 C2702 1.368 . S
C2718 C2714 1.368 . S
C2718 C2717 1.523 . S
H2719 C2694 0.950 . S
H2720 C2696 0.950 . S
H2721 C2697 0.949 1_655 S
H2722 C2699 0.950 1_556 S
H2723 C2701 0.950 . S
C2724 C2725 1.349 . S
C2724 C2726 1.327 . S
C2724 H2749 0.950 . S
C2725 C2724 1.349 . S
C2725 C2741 1.349 . S
C2726 C2724 1.327 . S
C2726 C2745 1.429 . S
C2726 H2750 0.950 1_455 S
C2727 C2744 1.574 . S
C2727 C2746 1.368 . S
C2727 H2751 0.949 . S
H2728 C2732 0.949 . S
C2729 C2730 1.349 . S
C2729 C2731 1.327 . S
C2729 H2752 0.950 . S
C2730 C2729 1.349 . S
C2730 C2742 1.349 . S
C2731 C2729 1.327 . S
C2731 C2747 1.429 . S
C2731 H2753 0.950 . S
C2732 H2728 0.949 . S
C2732 C2740 1.574 . S
C2732 C2748 1.368 . S
H2733 C2741 0.950 . S
H2734 C2739 0.950 . S
H2735 C2740 0.949 . S
H2736 C2742 0.950 . S
H2737 C2743 0.950 . S
H2738 C2744 0.949 . S
C2739 H2734 0.950 . S
C2739 C2741 1.327 . S
C2739 C2745 1.429 . S
C2740 C2732 1.574 . S
C2740 H2735 0.949 . S
C2740 C2746 1.368 . S
C2741 C2725 1.349 . S
C2741 H2733 0.950 . S
C2741 C2739 1.327 . S
C2742 C2730 1.349 . S
C2742 H2736 0.950 . S
C2742 C2743 1.327 . S
C2743 H2737 0.950 . S
C2743 C2742 1.327 . S
C2743 C2747 1.429 . S
C2744 C2727 1.574 . S
C2744 H2738 0.949 . S
C2744 C2748 1.368 . S
C2745 C2726 1.429 . S
C2745 C2739 1.429 . S
C2745 C2746 1.523 1_455 S
C2746 C2727 1.368 . S
C2746 C2740 1.368 . S
C2746 C2745 1.523 1_655 S
C2747 C2731 1.429 . S
C2747 C2743 1.429 . S
C2747 C2748 1.523 . S
C2748 C2732 1.368 . S
C2748 C2744 1.368 . S
C2748 C2747 1.523 . S
H2749 C2724 0.950 . S
H2750 C2726 0.950 1_655 S
H2751 C2727 0.949 . S
H2752 C2729 0.950 . S
H2753 C2731 0.950 . S
C2754 C2755 1.349 . S
C2754 C2756 1.327 . S
C2754 H2779 0.950 . S
C2755 C2754 1.349 . S
C2755 C2771 1.349 . S
C2756 C2754 1.327 . S
C2756 C2775 1.429 . S
C2756 H2780 0.950 . S
C2757 C2774 1.574 . S
C2757 C2776 1.368 . S
C2757 H2781 0.949 . S
H2758 C2762 0.949 . S
C2759 C2760 1.349 . S
C2759 C2761 1.327 . S
C2759 H2782 0.950 1_556 S
C2760 C2759 1.349 . S
C2760 C2772 1.349 . S
C2761 C2759 1.327 . S
C2761 C2777 1.429 . S
C2761 H2783 0.950 . S
C2762 H2758 0.949 . S
C2762 C2770 1.574 . S
C2762 C2778 1.368 . S
H2763 C2771 0.950 . S
H2764 C2769 0.950 . S
H2765 C2770 0.949 . S
H2766 C2772 0.950 . S
H2767 C2773 0.950 . S
H2768 C2774 0.949 . S
C2769 H2764 0.950 . S
C2769 C2771 1.327 . S
C2769 C2775 1.429 . S
C2770 C2762 1.574 . S
C2770 H2765 0.949 . S
C2770 C2776 1.368 . S
C2771 C2755 1.349 . S
C2771 H2763 0.950 . S
C2771 C2769 1.327 . S
C2772 C2760 1.349 . S
C2772 H2766 0.950 . S
C2772 C2773 1.327 . S
C2773 H2767 0.950 . S
C2773 C2772 1.327 . S
C2773 C2777 1.429 . S
C2774 C2757 1.574 . S
C2774 H2768 0.949 . S
C2774 C2778 1.368 . S
C2775 C2756 1.429 . S
C2775 C2769 1.429 . S
C2775 C2776 1.523 . S
C2776 C2757 1.368 . S
C2776 C2770 1.368 . S
C2776 C2775 1.523 . S
C2777 C2761 1.429 . S
C2777 C2773 1.429 . S
C2777 C2778 1.523 . S
C2778 C2762 1.368 . S
C2778 C2774 1.368 . S
C2778 C2777 1.523 . S
H2779 C2754 0.950 . S
H2780 C2756 0.950 . S
H2781 C2757 0.949 . S
H2782 C2759 0.950 1_554 S
H2783 C2761 0.950 . S
C2784 C2785 1.349 . S
C2784 C2786 1.327 . S
C2784 H2809 0.950 . S
C2785 C2784 1.349 . S
C2785 C2801 1.349 . S
C2786 C2784 1.327 . S
C2786 C2805 1.429 . S
C2786 H2810 0.950 . S
C2787 C2804 1.574 . S
C2787 C2806 1.368 . S
C2787 H2811 0.949 . S
H2788 C2792 0.949 . S
C2789 C2790 1.349 . S
C2789 C2791 1.327 . S
C2789 H2812 0.950 . S
C2790 C2789 1.349 . S
C2790 C2802 1.349 . S
C2791 C2789 1.327 . S
C2791 C2807 1.429 . S
C2791 H2813 0.950 . S
C2792 H2788 0.949 . S
C2792 C2800 1.574 . S
C2792 C2808 1.368 . S
H2793 C2801 0.950 . S
H2794 C2799 0.950 . S
H2795 C2800 0.949 . S
H2796 C2802 0.950 . S
H2797 C2803 0.950 . S
H2798 C2804 0.949 . S
C2799 H2794 0.950 . S
C2799 C2801 1.327 . S
C2799 C2805 1.429 . S
C2800 C2792 1.574 . S
C2800 H2795 0.949 . S
C2800 C2806 1.368 . S
C2801 C2785 1.349 . S
C2801 H2793 0.950 . S
C2801 C2799 1.327 . S
C2802 C2790 1.349 . S
C2802 H2796 0.950 . S
C2802 C2803 1.327 . S
C2803 H2797 0.950 . S
C2803 C2802 1.327 . S
C2803 C2807 1.429 . S
C2804 C2787 1.574 . S
C2804 H2798 0.949 . S
C2804 C2808 1.368 . S
C2805 C2786 1.429 . S
C2805 C2799 1.429 . S
C2805 C2806 1.523 . S
C2806 C2787 1.368 . S
C2806 C2800 1.368 . S
C2806 C2805 1.523 . S
C2807 C2791 1.429 . S
C2807 C2803 1.429 . S
C2807 C2808 1.523 . S
C2808 C2792 1.368 . S
C2808 C2804 1.368 . S
C2808 C2807 1.523 . S
H2809 C2784 0.950 . S
H2810 C2786 0.950 . S
H2811 C2787 0.949 . S
H2812 C2789 0.950 . S
H2813 C2791 0.950 . S
C2814 C2815 1.349 . S
C2814 C2816 1.327 . S
C2814 H2839 0.950 . S
C2815 C2814 1.349 . S
C2815 C2831 1.349 . S
C2816 C2814 1.327 . S
C2816 C2835 1.429 . S
C2816 H2840 0.950 . S
C2817 C2834 1.574 . S
C2817 C2836 1.368 . S
C2817 H2841 0.949 . S
H2818 C2822 0.949 1_565 S
C2819 C2820 1.349 . S
C2819 C2821 1.327 1_565 S
C2819 H2842 0.950 . S
C2820 C2819 1.349 . S
C2820 C2832 1.349 . S
C2821 C2819 1.327 1_545 S
C2821 C2837 1.429 1_545 S
C2821 H2843 0.950 . S
C2822 H2818 0.949 1_545 S
C2822 C2830 1.574 . S
C2822 C2838 1.368 . S
H2823 C2831 0.950 . S
H2824 C2829 0.950 . S
H2825 C2830 0.949 . S
H2826 C2832 0.950 . S
H2827 C2833 0.950 . S
H2828 C2834 0.949 . S
C2829 H2824 0.950 . S
C2829 C2831 1.327 . S
C2829 C2835 1.429 . S
C2830 C2822 1.574 . S
C2830 H2825 0.949 . S
C2830 C2836 1.368 . S
C2831 C2815 1.349 . S
C2831 H2823 0.950 . S
C2831 C2829 1.327 . S
C2832 C2820 1.349 . S
C2832 H2826 0.950 . S
C2832 C2833 1.327 . S
C2833 H2827 0.950 . S
C2833 C2832 1.327 . S
C2833 C2837 1.429 . S
C2834 C2817 1.574 . S
C2834 H2828 0.949 . S
C2834 C2838 1.368 . S
C2835 C2816 1.429 . S
C2835 C2829 1.429 . S
C2835 C2836 1.523 . S
C2836 C2817 1.368 . S
C2836 C2830 1.368 . S
C2836 C2835 1.523 . S
C2837 C2821 1.429 1_565 S
C2837 C2833 1.429 . S
C2837 C2838 1.523 1_565 S
C2838 C2822 1.368 . S
C2838 C2834 1.368 . S
C2838 C2837 1.523 1_545 S
H2839 C2814 0.950 . S
H2840 C2816 0.950 . S
H2841 C2817 0.949 . S
H2842 C2819 0.950 . S
H2843 C2821 0.950 . S
C2844 C2845 1.349 . S
C2844 C2846 1.327 . S
C2844 H2869 0.950 . S
C2845 C2844 1.349 . S
C2845 C2861 1.349 . S
C2846 C2844 1.327 . S
C2846 C2865 1.429 . S
C2846 H2870 0.950 . S
C2847 C2864 1.574 . S
C2847 C2866 1.368 . S
C2847 H2871 0.949 . S
H2848 C2852 0.949 1_545 S
C2849 C2850 1.349 . S
C2849 C2851 1.327 1_545 S
C2849 H2872 0.964 . S
C2850 C2849 1.349 . S
C2850 C2862 1.349 . S
C2851 C2849 1.327 1_565 S
C2851 C2867 1.429 1_565 S
C2851 H2873 0.950 . S
C2852 H2848 0.949 1_565 S
C2852 C2860 1.574 . S
C2852 C2868 1.368 . S
H2853 C2861 0.950 . S
H2854 C2859 0.950 . S
H2855 C2860 0.949 . S
H2856 C2862 0.950 . S
H2857 C2863 0.950 . S
H2858 C2864 0.949 . S
C2859 H2854 0.950 . S
C2859 C2861 1.327 . S
C2859 C2865 1.429 . S
C2860 C2852 1.574 . S
C2860 H2855 0.949 . S
C2860 C2866 1.368 . S
C2861 C2845 1.349 . S
C2861 H2853 0.950 . S
C2861 C2859 1.327 . S
C2862 C2850 1.349 . S
C2862 H2856 0.950 . S
C2862 C2863 1.327 . S
C2863 H2857 0.950 . S
C2863 C2862 1.327 . S
C2863 C2867 1.429 . S
C2864 C2847 1.574 . S
C2864 H2858 0.949 . S
C2864 C2868 1.368 . S
C2865 C2846 1.429 . S
C2865 C2859 1.429 . S
C2865 C2866 1.523 . S
C2866 C2847 1.368 . S
C2866 C2860 1.368 . S
C2866 C2865 1.523 . S
C2867 C2851 1.429 1_545 S
C2867 C2863 1.429 . S
C2867 C2868 1.523 1_545 S
C2868 C2852 1.368 . S
C2868 C2864 1.368 . S
C2868 C2867 1.523 1_565 S
H2869 C2844 0.950 . S
H2870 C2846 0.950 . S
H2871 C2847 0.949 . S
H2872 C2849 0.964 . S
H2873 C2851 0.950 . S
C2874 C2875 1.349 . S
C2874 C2876 1.327 . S
C2874 H2899 0.950 1_655 S
C2875 C2874 1.349 . S
C2875 C2891 1.349 . S
C2876 C2874 1.327 . S
C2876 C2895 1.429 . S
C2876 H2900 0.950 . S
C2877 C2894 1.574 . S
C2877 C2896 1.368 . S
C2877 H2901 0.949 . S
H2878 C2882 0.949 . S
C2879 C2880 1.349 . S
C2879 C2881 1.327 . S
C2879 H2902 0.950 . S
C2880 C2879 1.349 . S
C2880 C2892 1.349 . S
C2881 C2879 1.327 . S
C2881 C2897 1.429 . S
C2881 H2903 0.950 . S
C2882 H2878 0.949 . S
C2882 C2890 1.574 . S
C2882 C2898 1.368 . S
H2883 C2891 0.950 . S
H2884 C2889 0.950 . S
H2885 C2890 0.949 . S
H2886 C2892 0.950 . S
H2887 C2893 0.950 . S
H2888 C2894 0.949 . S
C2889 H2884 0.950 . S
C2889 C2891 1.327 . S
C2889 C2895 1.429 . S
C2890 C2882 1.574 . S
C2890 H2885 0.949 . S
C2890 C2896 1.368 . S
C2891 C2875 1.349 . S
C2891 H2883 0.950 . S
C2891 C2889 1.327 . S
C2892 C2880 1.349 . S
C2892 H2886 0.950 . S
C2892 C2893 1.327 . S
C2893 H2887 0.950 . S
C2893 C2892 1.327 . S
C2893 C2897 1.429 . S
C2894 C2877 1.574 . S
C2894 H2888 0.949 . S
C2894 C2898 1.368 . S
C2895 C2876 1.429 . S
C2895 C2889 1.429 . S
C2895 C2896 1.523 . S
C2896 C2877 1.368 . S
C2896 C2890 1.368 . S
C2896 C2895 1.523 . S
C2897 C2881 1.429 . S
C2897 C2893 1.429 . S
C2897 C2898 1.523 . S
C2898 C2882 1.368 . S
C2898 C2894 1.368 . S
C2898 C2897 1.523 . S
H2899 C2874 0.950 1_455 S
H2900 C2876 0.950 . S
H2901 C2877 0.949 . S
H2902 C2879 0.950 . S
H2903 C2881 0.950 . S
C2904 C2905 1.349 . S
C2904 C2906 1.327 . S
C2904 H2929 0.950 . S
C2905 C2904 1.349 . S
C2905 C2921 1.349 . S
C2906 C2904 1.327 . S
C2906 C2925 1.429 . S
C2906 H2930 0.950 . S
C2907 C2924 1.574 . S
C2907 C2926 1.368 . S
C2907 H2931 0.949 . S
H2908 C2912 0.949 . S
C2909 C2910 1.349 . S
C2909 C2911 1.327 . S
C2909 H2932 0.950 . S
C2910 C2909 1.349 . S
C2910 C2922 1.349 . S
C2911 C2909 1.327 . S
C2911 C2927 1.429 . S
C2911 H2933 0.950 . S
C2912 H2908 0.949 . S
C2912 C2920 1.574 . S
C2912 C2928 1.368 . S
H2913 C2921 0.950 . S
H2914 C2919 0.950 . S
H2915 C2920 0.949 . S
H2916 C2922 0.950 . S
H2917 C2923 0.950 . S
H2918 C2924 0.949 . S
C2919 H2914 0.950 . S
C2919 C2921 1.327 . S
C2919 C2925 1.429 . S
C2920 C2912 1.574 . S
C2920 H2915 0.949 . S
C2920 C2926 1.368 . S
C2921 C2905 1.349 . S
C2921 H2913 0.950 . S
C2921 C2919 1.327 . S
C2922 C2910 1.349 . S
C2922 H2916 0.950 . S
C2922 C2923 1.327 . S
C2923 H2917 0.950 . S
C2923 C2922 1.327 . S
C2923 C2927 1.429 . S
C2924 C2907 1.574 . S
C2924 H2918 0.949 . S
C2924 C2928 1.368 . S
C2925 C2906 1.429 . S
C2925 C2919 1.429 . S
C2925 C2926 1.523 . S
C2926 C2907 1.368 . S
C2926 C2920 1.368 . S
C2926 C2925 1.523 . S
C2927 C2911 1.429 . S
C2927 C2923 1.429 . S
C2927 C2928 1.523 . S
C2928 C2912 1.368 . S
C2928 C2924 1.368 . S
C2928 C2927 1.523 . S
H2929 C2904 0.950 . S
H2930 C2906 0.950 . S
H2931 C2907 0.949 . S
H2932 C2909 0.950 . S
H2933 C2911 0.950 . S
C2934 C2935 1.349 . S
C2934 C2936 1.327 . S
C2934 H2959 0.950 . S
C2935 C2934 1.349 . S
C2935 C2951 1.349 . S
C2936 C2934 1.327 . S
C2936 C2955 1.429 . S
C2936 H2960 0.950 . S
C2937 C2954 1.574 . S
C2937 C2956 1.368 . S
C2937 H2961 0.949 . S
H2938 C2942 0.949 . S
C2939 C2940 1.349 . S
C2939 C2941 1.327 . S
C2939 H2962 0.950 . S
C2940 C2939 1.349 . S
C2940 C2952 1.349 . S
C2941 C2939 1.327 . S
C2941 C2957 1.469 . S
C2941 H2963 0.950 . S
C2942 H2938 0.949 . S
C2942 C2950 1.574 . S
C2942 C2958 1.368 . S
H2943 C2951 0.950 . S
H2944 C2949 0.950 . S
H2945 C2950 0.949 . S
H2946 C2952 0.950 . S
H2947 C2953 0.950 . S
H2948 C2954 0.949 1_556 S
C2949 H2944 0.950 . S
C2949 C2951 1.327 . S
C2949 C2955 1.429 . S
C2950 C2942 1.574 . S
C2950 H2945 0.949 . S
C2950 C2956 1.368 . S
C2951 C2935 1.349 . S
C2951 H2943 0.950 . S
C2951 C2949 1.327 . S
C2952 C2940 1.349 . S
C2952 H2946 0.950 . S
C2952 C2953 1.327 1_556 S
C2953 H2947 0.950 . S
C2953 C2952 1.327 1_554 S
C2953 C2957 1.420 1_554 S
C2954 C2937 1.574 . S
C2954 H2948 0.949 1_554 S
C2954 C2958 1.368 . S
C2955 C2936 1.429 . S
C2955 C2949 1.429 . S
C2955 C2956 1.523 . S
C2956 C2937 1.368 . S
C2956 C2950 1.368 . S
C2956 C2955 1.523 . S
C2957 C2941 1.469 . S
C2957 C2953 1.420 1_556 S
C2957 C2958 1.495 1_556 S
C2958 C2942 1.368 . S
C2958 C2954 1.368 . S
C2958 C2957 1.495 1_554 S
H2959 C2934 0.950 . S
H2960 C2936 0.950 . S
H2961 C2937 0.949 . S
H2962 C2939 0.950 . S
H2963 C2941 0.950 . S
C2964 C2965 1.349 . S
C2964 C2966 1.327 . S
C2964 H2989 0.950 . S
C2965 C2964 1.349 . S
C2965 C2981 1.349 . S
C2966 C2964 1.327 . S
C2966 C2985 1.429 . S
C2966 H2990 0.950 . S
C2967 C2984 1.574 . S
C2967 C2986 1.368 . S
C2967 H2991 0.949 . S
H2968 C2972 0.949 . S
C2969 C2970 1.349 . S
C2969 C2971 1.327 . S
C2969 H2992 0.950 . S
C2970 C2969 1.349 . S
C2970 C2982 1.349 . S
C2971 C2969 1.327 . S
C2971 C2987 1.429 . S
C2971 H2993 0.950 . S
C2972 H2968 0.949 . S
C2972 C2980 1.574 . S
C2972 C2988 1.368 . S
H2973 C2981 0.950 . S
H2974 C2979 0.950 . S
H2975 C2980 0.949 . S
H2976 C2982 0.950 . S
H2977 C2983 0.950 . S
H2978 C2984 0.949 . S
C2979 H2974 0.950 . S
C2979 C2981 1.327 . S
C2979 C2985 1.429 . S
C2980 C2972 1.574 . S
C2980 H2975 0.949 . S
C2980 C2986 1.368 . S
C2981 C2965 1.349 . S
C2981 H2973 0.950 . S
C2981 C2979 1.327 . S
C2982 C2970 1.349 . S
C2982 H2976 0.950 . S
C2982 C2983 1.327 . S
C2983 H2977 0.950 . S
C2983 C2982 1.327 . S
C2983 C2987 1.429 . S
C2984 C2967 1.574 . S
C2984 H2978 0.949 . S
C2984 C2988 1.368 . S
C2985 C2966 1.429 . S
C2985 C2979 1.429 . S
C2985 C2986 1.523 . S
C2986 C2967 1.368 . S
C2986 C2980 1.368 . S
C2986 C2985 1.523 . S
C2987 C2971 1.429 . S
C2987 C2983 1.429 . S
C2987 C2988 1.523 . S
C2988 C2972 1.368 . S
C2988 C2984 1.368 . S
C2988 C2987 1.523 . S
H2989 C2964 0.950 . S
H2990 C2966 0.950 . S
H2991 C2967 0.949 . S
H2992 C2969 0.950 . S
H2993 C2971 0.950 . S
C2994 C2995 1.349 . S
C2994 C2996 1.327 . S
C2994 H3019 0.950 . S
C2995 C2994 1.349 . S
C2995 C3011 1.349 . S
C2996 C2994 1.327 . S
C2996 C3015 1.429 . S
C2996 H3020 0.950 . S
C2997 C3014 1.574 . S
C2997 C3016 1.368 . S
C2997 H3021 0.949 . S
H2998 C3002 0.949 1_554 S
C2999 C3000 1.349 . S
C2999 C3001 1.327 1_554 S
C2999 H3022 0.931 1_554 S
C3000 C2999 1.349 . S
C3000 C3012 1.349 . S
C3001 C2999 1.327 1_556 S
C3001 C3017 1.412 1_556 S
C3001 H3023 0.950 . S
C3002 H2998 0.949 1_556 S
C3002 C3010 1.574 . S
C3002 C3018 1.368 . S
H3003 C3011 0.950 . S
H3004 C3009 0.950 . S
H3005 C3010 0.949 . S
H3006 C3012 0.950 . S
H3007 C3013 0.950 . S
H3008 C3014 0.949 . S
C3009 H3004 0.950 . S
C3009 C3011 1.327 . S
C3009 C3015 1.429 . S
C3010 C3002 1.574 . S
C3010 H3005 0.949 . S
C3010 C3016 1.368 . S
C3011 C2995 1.349 . S
C3011 H3003 0.950 . S
C3011 C3009 1.327 . S
C3012 C3000 1.349 . S
C3012 H3006 0.950 . S
C3012 C3013 1.327 . S
C3013 H3007 0.950 . S
C3013 C3012 1.327 . S
C3013 C3017 1.477 . S
C3014 C2997 1.574 . S
C3014 H3008 0.949 . S
C3014 C3018 1.368 . S
C3015 C2996 1.429 . S
C3015 C3009 1.429 . S
C3015 C3016 1.523 . S
C3016 C2997 1.368 . S
C3016 C3010 1.368 . S
C3016 C3015 1.523 . S
C3017 C3001 1.412 1_554 S
C3017 C3013 1.477 . S
C3017 C3018 1.495 1_554 S
C3018 C3002 1.368 . S
C3018 C3014 1.368 . S
C3018 C3017 1.495 1_556 S
H3019 C2994 0.950 . S
H3020 C2996 0.950 . S
H3021 C2997 0.949 . S
H3022 C2999 0.931 1_556 S
H3023 C3001 0.950 . S
C3024 C3025 1.349 . S
C3024 C3026 1.327 . S
C3024 H3049 0.950 . S
C3025 C3024 1.349 . S
C3025 C3041 1.349 . S
C3026 C3024 1.327 . S
C3026 C3045 1.429 . S
C3026 H3050 0.950 . S
C3027 C3044 1.574 . S
C3027 C3046 1.368 . S
C3027 H3051 0.949 . S
H3028 C3032 0.949 . S
C3029 C3030 1.349 . S
C3029 C3031 1.327 . S
C3029 H3052 0.950 . S
C3030 C3029 1.349 . S
C3030 C3042 1.349 . S
C3031 C3029 1.327 . S
C3031 C3047 1.429 . S
C3031 H3053 0.950 . S
C3032 H3028 0.949 . S
C3032 C3040 1.574 . S
C3032 C3048 1.368 . S
H3033 C3041 0.950 . S
H3034 C3039 0.950 . S
H3035 C3040 0.949 . S
H3036 C3042 0.950 . S
H3037 C3043 0.950 . S
H3038 C3044 0.949 . S
C3039 H3034 0.950 . S
C3039 C3041 1.327 . S
C3039 C3045 1.429 . S
C3040 C3032 1.574 . S
C3040 H3035 0.949 . S
C3040 C3046 1.368 . S
C3041 C3025 1.349 . S
C3041 H3033 0.950 . S
C3041 C3039 1.327 . S
C3042 C3030 1.349 . S
C3042 H3036 0.950 . S
C3042 C3043 1.327 . S
C3043 H3037 0.950 . S
C3043 C3042 1.327 . S
C3043 C3047 1.429 . S
C3044 C3027 1.574 . S
C3044 H3038 0.949 . S
C3044 C3048 1.368 . S
C3045 C3026 1.429 . S
C3045 C3039 1.429 . S
C3045 C3046 1.523 . S
C3046 C3027 1.368 . S
C3046 C3040 1.368 . S
C3046 C3045 1.523 . S
C3047 C3031 1.429 . S
C3047 C3043 1.429 . S
C3047 C3048 1.523 . S
C3048 C3032 1.368 . S
C3048 C3044 1.368 . S
C3048 C3047 1.523 . S
H3049 C3024 0.950 . S
H3050 C3026 0.950 . S
H3051 C3027 0.949 . S
H3052 C3029 0.950 . S
H3053 C3031 0.950 . S
C3054 C3055 1.349 . S
C3054 C3056 1.327 . S
C3054 H3079 0.950 . S
C3055 C3054 1.349 . S
C3055 C3071 1.349 . S
C3056 C3054 1.327 . S
C3056 C3075 1.429 . S
C3056 H3080 0.950 . S
C3057 C3074 1.574 . S
C3057 C3076 1.368 . S
C3057 H3081 0.949 . S
H3058 C3062 0.949 . S
C3059 C3060 1.349 . S
C3059 C3061 1.327 . S
C3059 H3082 0.950 . S
C3060 C3059 1.349 . S
C3060 C3072 1.349 . S
C3061 C3059 1.327 . S
C3061 C3077 1.439 . S
C3061 H3083 0.948 1_455 S
C3062 H3058 0.949 . S
C3062 C3070 1.574 . S
C3062 C3078 1.368 . S
H3063 C3071 0.950 . S
H3064 C3069 0.950 . S
H3065 C3070 0.949 . S
H3066 C3072 0.950 . S
H3067 C3073 0.950 . S
H3068 C3074 0.949 . S
C3069 H3064 0.950 . S
C3069 C3071 1.327 . S
C3069 C3075 1.429 . S
C3070 C3062 1.574 . S
C3070 H3065 0.949 . S
C3070 C3076 1.368 . S
C3071 C3055 1.349 . S
C3071 H3063 0.950 . S
C3071 C3069 1.327 . S
C3072 C3060 1.349 . S
C3072 H3066 0.950 . S
C3072 C3073 1.327 . S
C3073 H3067 0.950 . S
C3073 C3072 1.327 . S
C3073 C3077 1.450 . S
C3074 C3057 1.574 . S
C3074 H3068 0.949 . S
C3074 C3078 1.368 . S
C3075 C3056 1.429 . S
C3075 C3069 1.429 . S
C3075 C3076 1.523 . S
C3076 C3057 1.368 . S
C3076 C3070 1.368 . S
C3076 C3075 1.523 . S
C3077 C3061 1.439 . S
C3077 C3073 1.450 . S
C3077 C3078 1.495 1_455 S
C3078 C3062 1.368 . S
C3078 C3074 1.368 . S
C3078 C3077 1.495 1_655 S
H3079 C3054 0.950 . S
H3080 C3056 0.950 . S
H3081 C3057 0.949 . S
H3082 C3059 0.950 . S
H3083 C3061 0.948 1_655 S
C3084 C3085 1.349 . S
C3084 C3086 1.327 . S
C3084 H3109 0.950 . S
C3085 C3084 1.349 . S
C3085 C3101 1.349 . S
C3086 C3084 1.327 . S
C3086 C3105 1.432 . S
C3086 H3110 0.950 1_655 S
C3087 C3104 1.574 . S
C3087 C3106 1.368 . S
C3087 H3111 0.949 . S
H3088 C3092 0.949 . S
C3089 C3090 1.349 . S
C3089 C3091 1.327 . S
C3089 H3112 0.950 . S
C3090 C3089 1.349 . S
C3090 C3102 1.349 . S
C3091 C3089 1.327 . S
C3091 C3107 1.429 . S
C3091 H3113 0.950 . S
C3092 H3088 0.949 . S
C3092 C3100 1.574 . S
C3092 C3108 1.368 . S
H3093 C3101 0.950 . S
H3094 C3099 0.950 . S
H3095 C3100 0.949 . S
H3096 C3102 0.950 . S
H3097 C3103 0.950 . S
H3098 C3104 0.949 . S
C3099 H3094 0.950 . S
C3099 C3101 1.327 . S
C3099 C3105 1.457 . S
C3100 C3092 1.574 . S
C3100 H3095 0.949 . S
C3100 C3106 1.368 . S
C3101 C3085 1.349 . S
C3101 H3093 0.950 . S
C3101 C3099 1.327 . S
C3102 C3090 1.349 . S
C3102 H3096 0.950 . S
C3102 C3103 1.327 . S
C3103 H3097 0.950 . S
C3103 C3102 1.327 . S
C3103 C3107 1.429 . S
C3104 C3087 1.574 . S
C3104 H3098 0.949 . S
C3104 C3108 1.368 . S
C3105 C3086 1.432 . S
C3105 C3099 1.457 . S
C3105 C3106 1.495 1_655 S
C3106 C3087 1.368 . S
C3106 C3100 1.368 . S
C3106 C3105 1.495 1_455 S
C3107 C3091 1.429 . S
C3107 C3103 1.429 . S
C3107 C3108 1.523 . S
C3108 C3092 1.368 . S
C3108 C3104 1.368 . S
C3108 C3107 1.523 . S
H3109 C3084 0.950 . S
H3110 C3086 0.950 1_455 S
H3111 C3087 0.949 . S
H3112 C3089 0.950 . S
H3113 C3091 0.950 . S
C3114 C3115 1.349 . S
C3114 C3116 1.327 . S
C3114 H3139 0.950 . S
C3115 C3114 1.349 . S
C3115 C3131 1.349 . S
C3116 C3114 1.327 . S
C3116 C3135 1.429 . S
C3116 H3140 0.950 . S
C3117 C3134 1.574 . S
C3117 C3136 1.368 . S
C3117 H3141 0.949 . S
H3118 C3122 0.949 . S
C3119 C3120 1.349 . S
C3119 C3121 1.327 . S
C3119 H3142 0.950 . S
C3120 C3119 1.349 . S
C3120 C3132 1.349 . S
C3121 C3119 1.327 . S
C3121 C3137 1.429 . S
C3121 H3143 0.950 . S
C3122 H3118 0.949 . S
C3122 C3130 1.574 . S
C3122 C3138 1.368 . S
H3123 C3131 0.950 . S
H3124 C3129 0.950 . S
H3125 C3130 0.949 . S
H3126 C3132 0.950 . S
H3127 C3133 0.950 . S
H3128 C3134 0.949 . S
C3129 H3124 0.950 . S
C3129 C3131 1.327 . S
C3129 C3135 1.429 . S
C3130 C3122 1.574 . S
C3130 H3125 0.949 . S
C3130 C3136 1.368 . S
C3131 C3115 1.349 . S
C3131 H3123 0.950 . S
C3131 C3129 1.327 . S
C3132 C3120 1.349 . S
C3132 H3126 0.950 . S
C3132 C3133 1.327 . S
C3133 H3127 0.950 . S
C3133 C3132 1.327 . S
C3133 C3137 1.429 . S
C3134 C3117 1.574 . S
C3134 H3128 0.949 . S
C3134 C3138 1.368 . S
C3135 C3116 1.429 . S
C3135 C3129 1.429 . S
C3135 C3136 1.523 . S
C3136 C3117 1.368 . S
C3136 C3130 1.368 . S
C3136 C3135 1.523 . S
C3137 C3121 1.429 . S
C3137 C3133 1.429 . S
C3137 C3138 1.523 . S
C3138 C3122 1.368 . S
C3138 C3134 1.368 . S
C3138 C3137 1.523 . S
H3139 C3114 0.950 . S
H3140 C3116 0.950 . S
H3141 C3117 0.949 . S
H3142 C3119 0.950 . S
H3143 C3121 0.950 . S
C3144 C3145 1.349 . S
C3144 C3146 1.327 . S
C3144 H3169 0.950 . S
C3145 C3144 1.349 . S
C3145 C3161 1.349 . S
C3146 C3144 1.327 . S
C3146 C3165 1.429 . S
C3146 H3170 0.950 . S
C3147 C3164 1.574 . S
C3147 C3166 1.368 . S
C3147 H3171 0.949 . S
H3148 C3152 0.949 . S
C3149 C3150 1.349 . S
C3149 C3151 1.327 . S
C3149 H3172 0.950 . S
C3150 C3149 1.349 . S
C3150 C3162 1.349 . S
C3151 C3149 1.327 . S
C3151 C3167 1.429 . S
C3151 H3173 0.950 . S
C3152 H3148 0.949 . S
C3152 C3160 1.574 . S
C3152 C3168 1.368 . S
H3153 C3161 0.950 . S
H3154 C3159 0.950 . S
H3155 C3160 0.949 . S
H3156 C3162 0.950 . S
H3157 C3163 0.950 . S
H3158 C3164 0.949 . S
C3159 H3154 0.950 . S
C3159 C3161 1.327 . S
C3159 C3165 1.429 . S
C3160 C3152 1.574 . S
C3160 H3155 0.949 . S
C3160 C3166 1.368 . S
C3161 C3145 1.349 . S
C3161 H3153 0.950 . S
C3161 C3159 1.327 . S
C3162 C3150 1.349 . S
C3162 H3156 0.950 . S
C3162 C3163 1.327 . S
C3163 H3157 0.950 . S
C3163 C3162 1.327 . S
C3163 C3167 1.429 . S
C3164 C3147 1.574 . S
C3164 H3158 0.949 . S
C3164 C3168 1.368 . S
C3165 C3146 1.429 . S
C3165 C3159 1.429 . S
C3165 C3166 1.523 . S
C3166 C3147 1.368 . S
C3166 C3160 1.368 . S
C3166 C3165 1.523 . S
C3167 C3151 1.429 . S
C3167 C3163 1.429 . S
C3167 C3168 1.523 . S
C3168 C3152 1.368 . S
C3168 C3164 1.368 . S
C3168 C3167 1.523 . S
H3169 C3144 0.950 . S
H3170 C3146 0.950 . S
H3171 C3147 0.949 . S
H3172 C3149 0.950 . S
H3173 C3151 0.950 . S
C3174 C3175 1.349 . S
C3174 C3176 1.327 . S
C3174 H3199 0.950 . S
C3175 C3174 1.349 . S
C3175 C3191 1.349 . S
C3176 C3174 1.327 . S
C3176 C3195 1.429 . S
C3176 H3200 0.950 . S
C3177 C3194 1.574 . S
C3177 C3196 1.368 . S
C3177 H3201 0.949 . S
H3178 C3182 0.949 1_545 S
C3179 C3180 1.349 . S
C3179 C3181 1.327 1_545 S
C3179 H3202 0.930 1_545 S
C3180 C3179 1.349 . S
C3180 C3192 1.349 . S
C3181 C3179 1.327 1_565 S
C3181 C3197 1.412 1_565 S
C3181 H3203 0.950 . S
C3182 H3178 0.949 1_565 S
C3182 C3190 1.574 . S
C3182 C3198 1.368 . S
H3183 C3191 0.950 . S
H3184 C3189 0.950 . S
H3185 C3190 0.949 . S
H3186 C3192 0.950 . S
H3187 C3193 0.950 . S
H3188 C3194 0.949 . S
C3189 H3184 0.950 . S
C3189 C3191 1.327 . S
C3189 C3195 1.429 . S
C3190 C3182 1.574 . S
C3190 H3185 0.949 . S
C3190 C3196 1.368 . S
C3191 C3175 1.349 . S
C3191 H3183 0.950 . S
C3191 C3189 1.327 . S
C3192 C3180 1.349 . S
C3192 H3186 0.950 . S
C3192 C3193 1.327 . S
C3193 H3187 0.950 . S
C3193 C3192 1.327 . S
C3193 C3197 1.477 . S
C3194 C3177 1.574 . S
C3194 H3188 0.949 . S
C3194 C3198 1.368 . S
C3195 C3176 1.429 . S
C3195 C3189 1.429 . S
C3195 C3196 1.523 . S
C3196 C3177 1.368 . S
C3196 C3190 1.368 . S
C3196 C3195 1.523 . S
C3197 C3181 1.412 1_545 S
C3197 C3193 1.477 . S
C3197 C3198 1.495 1_545 S
C3198 C3182 1.368 . S
C3198 C3194 1.368 . S
C3198 C3197 1.495 1_565 S
H3199 C3174 0.950 . S
H3200 C3176 0.950 . S
H3201 C3177 0.949 . S
H3202 C3179 0.930 1_565 S
H3203 C3181 0.950 . S
C3204 C3205 1.349 . S
C3204 C3206 1.327 . S
C3204 H3229 0.950 . S
C3205 C3204 1.349 . S
C3205 C3221 1.349 . S
C3206 C3204 1.327 . S
C3206 C3225 1.478 . S
C3206 H3230 0.950 . S
C3207 C3224 1.574 . S
C3207 C3226 1.368 . S
C3207 H3231 0.949 . S
H3208 C3212 0.949 . S
C3209 C3210 1.349 . S
C3209 C3211 1.327 . S
C3209 H3232 0.950 . S
C3210 C3209 1.349 . S
C3210 C3222 1.349 . S
C3211 C3209 1.327 . S
C3211 C3227 1.429 . S
C3211 H3233 0.950 . S
C3212 H3208 0.949 . S
C3212 C3220 1.574 . S
C3212 C3228 1.368 . S
H3213 C3221 0.950 1_545 S
H3214 C3219 0.950 . S
H3215 C3220 0.949 1_565 S
H3216 C3222 0.950 . S
H3217 C3223 0.950 . S
H3218 C3224 0.949 . S
C3219 H3214 0.950 . S
C3219 C3221 1.327 1_545 S
C3219 C3225 1.410 1_545 S
C3220 C3212 1.574 . S
C3220 H3215 0.949 1_545 S
C3220 C3226 1.368 . S
C3221 C3205 1.349 . S
C3221 H3213 0.950 1_565 S
C3221 C3219 1.327 1_565 S
C3222 C3210 1.349 . S
C3222 H3216 0.950 . S
C3222 C3223 1.327 . S
C3223 H3217 0.950 . S
C3223 C3222 1.327 . S
C3223 C3227 1.429 . S
C3224 C3207 1.574 . S
C3224 H3218 0.949 . S
C3224 C3228 1.368 . S
C3225 C3206 1.478 . S
C3225 C3219 1.410 1_565 S
C3225 C3226 1.495 1_565 S
C3226 C3207 1.368 . S
C3226 C3220 1.368 . S
C3226 C3225 1.495 1_545 S
C3227 C3211 1.429 . S
C3227 C3223 1.429 . S
C3227 C3228 1.523 . S
C3228 C3212 1.368 . S
C3228 C3224 1.368 . S
C3228 C3227 1.523 . S
H3229 C3204 0.950 . S
H3230 C3206 0.950 . S
H3231 C3207 0.949 . S
H3232 C3209 0.950 . S
H3233 C3211 0.950 . S
C3234 C3235 1.349 . S
C3234 C3236 1.327 . S
C3234 H3259 0.950 . S
C3235 C3234 1.349 . S
C3235 C3251 1.349 . S
C3236 C3234 1.327 . S
C3236 C3255 1.429 . S
C3236 H3260 0.950 . S
C3237 C3254 1.574 . S
C3237 C3256 1.368 . S
C3237 H3261 0.949 . S
H3238 C3242 0.949 . S
C3239 C3240 1.349 . S
C3239 C3241 1.327 . S
C3239 H3262 0.950 . S
C3240 C3239 1.349 . S
C3240 C3252 1.349 . S
C3241 C3239 1.327 . S
C3241 C3257 1.429 . S
C3241 H3263 0.950 . S
C3242 H3238 0.949 . S
C3242 C3250 1.574 . S
C3242 C3258 1.368 . S
H3243 C3251 0.950 . S
H3244 C3249 0.950 . S
H3245 C3250 0.949 . S
H3246 C3252 0.950 . S
H3247 C3253 0.950 . S
H3248 C3254 0.949 . S
C3249 H3244 0.950 . S
C3249 C3251 1.327 . S
C3249 C3255 1.429 . S
C3250 C3242 1.574 . S
C3250 H3245 0.949 . S
C3250 C3256 1.368 . S
C3251 C3235 1.349 . S
C3251 H3243 0.950 . S
C3251 C3249 1.327 . S
C3252 C3240 1.349 . S
C3252 H3246 0.950 . S
C3252 C3253 1.327 . S
C3253 H3247 0.950 . S
C3253 C3252 1.327 . S
C3253 C3257 1.429 . S
C3254 C3237 1.574 . S
C3254 H3248 0.949 . S
C3254 C3258 1.368 . S
C3255 C3236 1.429 . S
C3255 C3249 1.429 . S
C3255 C3256 1.523 . S
C3256 C3237 1.368 . S
C3256 C3250 1.368 . S
C3256 C3255 1.523 . S
C3257 C3241 1.429 . S
C3257 C3253 1.429 . S
C3257 C3258 1.523 . S
C3258 C3242 1.368 . S
C3258 C3254 1.368 . S
C3258 C3257 1.523 . S
H3259 C3234 0.950 . S
H3260 C3236 0.950 . S
H3261 C3237 0.949 . S
H3262 C3239 0.950 . S
H3263 C3241 0.950 . S
C3264 C3265 1.349 . S
C3264 C3266 1.327 . S
C3264 H3289 0.950 . S
C3265 C3264 1.349 . S
C3265 C3281 1.349 . S
C3266 C3264 1.327 . S
C3266 C3285 1.429 . S
C3266 H3290 0.950 . S
C3267 C3284 1.574 . S
C3267 C3286 1.368 . S
C3267 H3291 0.949 . S
H3268 C3272 0.949 . S
C3269 C3270 1.349 . S
C3269 C3271 1.327 . S
C3269 H3292 0.950 . S
C3270 C3269 1.349 . S
C3270 C3282 1.349 . S
C3271 C3269 1.327 . S
C3271 C3287 1.429 . S
C3271 H3293 0.950 . S
C3272 H3268 0.949 . S
C3272 C3280 1.574 . S
C3272 C3288 1.368 . S
H3273 C3281 0.950 . S
H3274 C3279 0.950 . S
H3275 C3280 0.949 . S
H3276 C3282 0.950 . S
H3277 C3283 0.950 . S
H3278 C3284 0.949 . S
C3279 H3274 0.950 . S
C3279 C3281 1.327 . S
C3279 C3285 1.429 . S
C3280 C3272 1.574 . S
C3280 H3275 0.949 . S
C3280 C3286 1.368 . S
C3281 C3265 1.349 . S
C3281 H3273 0.950 . S
C3281 C3279 1.327 . S
C3282 C3270 1.349 . S
C3282 H3276 0.950 . S
C3282 C3283 1.327 . S
C3283 H3277 0.950 . S
C3283 C3282 1.327 . S
C3283 C3287 1.429 . S
C3284 C3267 1.574 . S
C3284 H3278 0.949 . S
C3284 C3288 1.368 . S
C3285 C3266 1.429 . S
C3285 C3279 1.429 . S
C3285 C3286 1.523 . S
C3286 C3267 1.368 . S
C3286 C3280 1.368 . S
C3286 C3285 1.523 . S
C3287 C3271 1.429 . S
C3287 C3283 1.429 . S
C3287 C3288 1.523 . S
C3288 C3272 1.368 . S
C3288 C3284 1.368 . S
C3288 C3287 1.523 . S
H3289 C3264 0.950 . S
H3290 C3266 0.950 . S
H3291 C3267 0.949 . S
H3292 C3269 0.950 . S
H3293 C3271 0.950 . S
C3294 C3295 1.349 . S
C3294 C3296 1.327 1_554 S
C3294 H3319 0.950 . S
C3295 C3294 1.349 . S
C3295 C3311 1.349 . S
C3296 C3294 1.327 1_556 S
C3296 C3315 1.425 1_556 S
C3296 H3320 0.950 . S
C3297 C3314 1.574 . S
C3297 C3316 1.368 . S
C3297 H3321 0.949 1_556 S
H3298 C3302 0.949 . S
C3299 C3300 1.349 . S
C3299 C3301 1.327 . S
C3299 H3322 0.950 . S
C3300 C3299 1.349 . S
C3300 C3312 1.349 . S
C3301 C3299 1.327 . S
C3301 C3317 1.429 . S
C3301 H3323 0.950 . S
C3302 H3298 0.949 . S
C3302 C3310 1.574 . S
C3302 C3318 1.368 . S
H3303 C3311 0.950 . S
H3304 C3309 0.950 . S
H3305 C3310 0.949 . S
H3306 C3312 0.950 . S
H3307 C3313 0.950 . S
H3308 C3314 0.949 . S
C3309 H3304 0.950 . S
C3309 C3311 1.327 . S
C3309 C3315 1.464 . S
C3310 C3302 1.574 . S
C3310 H3305 0.949 . S
C3310 C3316 1.368 . S
C3311 C3295 1.349 . S
C3311 H3303 0.950 . S
C3311 C3309 1.327 . S
C3312 C3300 1.349 . S
C3312 H3306 0.950 . S
C3312 C3313 1.327 . S
C3313 H3307 0.950 . S
C3313 C3312 1.327 . S
C3313 C3317 1.429 . S
C3314 C3297 1.574 . S
C3314 H3308 0.949 . S
C3314 C3318 1.368 . S
C3315 C3296 1.425 1_554 S
C3315 C3309 1.464 . S
C3315 C3316 1.495 1_554 S
C3316 C3297 1.368 . S
C3316 C3310 1.368 . S
C3316 C3315 1.495 1_556 S
C3317 C3301 1.429 . S
C3317 C3313 1.429 . S
C3317 C3318 1.523 . S
C3318 C3302 1.368 . S
C3318 C3314 1.368 . S
C3318 C3317 1.523 . S
H3319 C3294 0.950 . S
H3320 C3296 0.950 . S
H3321 C3297 0.949 1_554 S
H3322 C3299 0.950 . S
H3323 C3301 0.950 . S
C3324 C3325 1.349 . S
C3324 C3326 1.327 . S
C3324 H3349 0.950 . S
C3325 C3324 1.349 . S
C3325 C3341 1.349 . S
C3326 C3324 1.327 . S
C3326 C3345 1.429 . S
C3326 H3350 0.950 . S
C3327 C3344 1.574 . S
C3327 C3346 1.368 . S
C3327 H3351 0.949 . S
H3328 C3332 0.949 . S
C3329 C3330 1.349 . S
C3329 C3331 1.327 . S
C3329 H3352 0.950 . S
C3330 C3329 1.349 . S
C3330 C3342 1.349 . S
C3331 C3329 1.327 . S
C3331 C3347 1.429 . S
C3331 H3353 0.950 . S
C3332 H3328 0.949 . S
C3332 C3340 1.574 . S
C3332 C3348 1.368 . S
H3333 C3341 0.950 . S
H3334 C3339 0.950 . S
H3335 C3340 0.949 . S
H3336 C3342 0.950 . S
H3337 C3343 0.950 . S
H3338 C3344 0.949 . S
C3339 H3334 0.950 . S
C3339 C3341 1.327 . S
C3339 C3345 1.429 . S
C3340 C3332 1.574 . S
C3340 H3335 0.949 . S
C3340 C3346 1.368 . S
C3341 C3325 1.349 . S
C3341 H3333 0.950 . S
C3341 C3339 1.327 . S
C3342 C3330 1.349 . S
C3342 H3336 0.950 . S
C3342 C3343 1.327 . S
C3343 H3337 0.950 . S
C3343 C3342 1.327 . S
C3343 C3347 1.429 . S
C3344 C3327 1.574 . S
C3344 H3338 0.949 . S
C3344 C3348 1.368 . S
C3345 C3326 1.429 . S
C3345 C3339 1.429 . S
C3345 C3346 1.523 . S
C3346 C3327 1.368 . S
C3346 C3340 1.368 . S
C3346 C3345 1.523 . S
C3347 C3331 1.429 . S
C3347 C3343 1.429 . S
C3347 C3348 1.523 . S
C3348 C3332 1.368 . S
C3348 C3344 1.368 . S
C3348 C3347 1.523 . S
H3349 C3324 0.950 . S
H3350 C3326 0.950 . S
H3351 C3327 0.949 . S
H3352 C3329 0.950 . S
H3353 C3331 0.950 . S
C3354 C3355 1.349 . S
C3354 C3356 1.327 . S
C3354 H3379 0.950 . S
C3355 C3354 1.349 . S
C3355 C3371 1.349 . S
C3356 C3354 1.327 . S
C3356 C3375 1.429 . S
C3356 H3380 0.950 . S
C3357 C3374 1.574 . S
C3357 C3376 1.368 . S
C3357 H3381 0.949 . S
H3358 C3362 0.949 . S
C3359 C3360 1.349 . S
C3359 C3361 1.327 . S
C3359 H3382 0.950 . S
C3360 C3359 1.349 . S
C3360 C3372 1.349 . S
C3361 C3359 1.327 . S
C3361 C3377 1.443 . S
C3361 H3383 0.950 . S
C3362 H3358 0.949 . S
C3362 C3370 1.574 . S
C3362 C3378 1.368 . S
H3363 C3371 0.950 . S
H3364 C3369 0.950 . S
H3365 C3370 0.949 . S
H3366 C3372 0.950 . S
H3367 C3373 0.950 . S
H3368 C3374 0.949 . S
C3369 H3364 0.950 . S
C3369 C3371 1.327 . S
C3369 C3375 1.429 . S
C3370 C3362 1.574 . S
C3370 H3365 0.949 . S
C3370 C3376 1.368 . S
C3371 C3355 1.349 . S
C3371 H3363 0.950 . S
C3371 C3369 1.327 . S
C3372 C3360 1.349 . S
C3372 H3366 0.950 . S
C3372 C3373 1.327 . S
C3373 H3367 0.950 . S
C3373 C3372 1.327 . S
C3373 C3377 1.446 . S
C3374 C3357 1.574 . S
C3374 H3368 0.949 . S
C3374 C3378 1.368 . S
C3375 C3356 1.429 . S
C3375 C3369 1.429 . S
C3375 C3376 1.523 . S
C3376 C3357 1.368 . S
C3376 C3370 1.368 . S
C3376 C3375 1.523 . S
C3377 C3361 1.443 . S
C3377 C3373 1.446 . S
C3377 C3378 1.495 1_556 S
C3378 C3362 1.368 . S
C3378 C3374 1.368 . S
C3378 C3377 1.495 1_554 S
H3379 C3354 0.950 . S
H3380 C3356 0.950 . S
H3381 C3357 0.949 . S
H3382 C3359 0.950 . S
H3383 C3361 0.950 . S
C3384 C3385 1.349 . S
C3384 C3386 1.327 . S
C3384 H3409 0.950 . S
C3385 C3384 1.349 . S
C3385 C3401 1.349 . S
C3386 C3384 1.327 . S
C3386 C3405 1.429 . S
C3386 H3410 0.950 . S
C3387 C3404 1.574 . S
C3387 C3406 1.368 . S
C3387 H3411 0.949 . S
H3388 C3392 0.949 . S
C3389 C3390 1.349 . S
C3389 C3391 1.327 . S
C3389 H3412 0.950 . S
C3390 C3389 1.349 . S
C3390 C3402 1.349 . S
C3391 C3389 1.327 . S
C3391 C3407 1.429 . S
C3391 H3413 0.950 . S
C3392 H3388 0.949 . S
C3392 C3400 1.574 . S
C3392 C3408 1.368 . S
H3393 C3401 0.950 . S
H3394 C3399 0.950 . S
H3395 C3400 0.949 . S
H3396 C3402 0.950 . S
H3397 C3403 0.950 . S
H3398 C3404 0.949 . S
C3399 H3394 0.950 . S
C3399 C3401 1.327 . S
C3399 C3405 1.429 . S
C3400 C3392 1.574 . S
C3400 H3395 0.949 . S
C3400 C3406 1.368 . S
C3401 C3385 1.349 . S
C3401 H3393 0.950 . S
C3401 C3399 1.327 . S
C3402 C3390 1.349 . S
C3402 H3396 0.950 . S
C3402 C3403 1.327 . S
C3403 H3397 0.950 . S
C3403 C3402 1.327 . S
C3403 C3407 1.429 . S
C3404 C3387 1.574 . S
C3404 H3398 0.949 . S
C3404 C3408 1.368 . S
C3405 C3386 1.429 . S
C3405 C3399 1.429 . S
C3405 C3406 1.523 . S
C3406 C3387 1.368 . S
C3406 C3400 1.368 . S
C3406 C3405 1.523 . S
C3407 C3391 1.429 . S
C3407 C3403 1.429 . S
C3407 C3408 1.523 . S
C3408 C3392 1.368 . S
C3408 C3404 1.368 . S
C3408 C3407 1.523 . S
H3409 C3384 0.950 . S
H3410 C3386 0.950 . S
H3411 C3387 0.949 . S
H3412 C3389 0.950 . S
H3413 C3391 0.950 . S
C3414 C3415 1.349 . S
C3414 C3416 1.327 . S
C3414 H3439 0.950 . S
C3415 C3414 1.349 . S
C3415 C3431 1.349 . S
C3416 C3414 1.327 . S
C3416 C3435 1.472 . S
C3416 H3440 0.950 . S
C3417 C3434 1.574 . S
C3417 C3436 1.368 . S
C3417 H3441 0.949 . S
H3418 C3422 0.949 . S
C3419 C3420 1.349 . S
C3419 C3421 1.327 . S
C3419 H3442 0.950 . S
C3420 C3419 1.349 . S
C3420 C3432 1.349 . S
C3421 C3419 1.327 . S
C3421 C3437 1.429 . S
C3421 H3443 0.950 . S
C3422 H3418 0.949 . S
C3422 C3430 1.574 . S
C3422 C3438 1.368 . S
H3423 C3431 0.950 . S
H3424 C3429 0.950 . S
H3425 C3430 0.949 1_655 S
H3426 C3432 0.950 . S
H3427 C3433 0.950 . S
H3428 C3434 0.949 . S
C3429 H3424 0.950 . S
C3429 C3431 1.327 1_455 S
C3429 C3435 1.416 1_455 S
C3430 C3422 1.574 . S
C3430 H3425 0.949 1_455 S
C3430 C3436 1.368 . S
C3431 C3415 1.349 . S
C3431 H3423 0.950 . S
C3431 C3429 1.327 1_655 S
C3432 C3420 1.349 . S
C3432 H3426 0.950 . S
C3432 C3433 1.327 . S
C3433 H3427 0.950 . S
C3433 C3432 1.327 . S
C3433 C3437 1.429 . S
C3434 C3417 1.574 . S
C3434 H3428 0.949 . S
C3434 C3438 1.368 . S
C3435 C3416 1.472 . S
C3435 C3429 1.416 1_655 S
C3435 C3436 1.495 1_655 S
C3436 C3417 1.368 . S
C3436 C3430 1.368 . S
C3436 C3435 1.495 1_455 S
C3437 C3421 1.429 . S
C3437 C3433 1.429 . S
C3437 C3438 1.523 . S
C3438 C3422 1.368 . S
C3438 C3434 1.368 . S
C3438 C3437 1.523 . S
H3439 C3414 0.950 . S
H3440 C3416 0.950 . S
H3441 C3417 0.949 . S
H3442 C3419 0.950 . S
H3443 C3421 0.950 . S
C3444 C3445 1.349 . S
C3444 C3446 1.327 1_455 S
C3444 H3469 0.950 . S
C3445 C3444 1.349 . S
C3445 C3461 1.349 . S
C3446 C3444 1.327 1_655 S
C3446 C3465 1.417 1_655 S
C3446 H3470 0.950 . S
C3447 C3464 1.574 . S
C3447 C3466 1.368 . S
C3447 H3471 0.949 1_655 S
H3448 C3452 0.949 . S
C3449 C3450 1.349 . S
C3449 C3451 1.327 . S
C3449 H3472 0.950 . S
C3450 C3449 1.349 . S
C3450 C3462 1.349 . S
C3451 C3449 1.327 . S
C3451 C3467 1.429 . S
C3451 H3473 0.950 . S
C3452 H3448 0.949 . S
C3452 C3460 1.574 . S
C3452 C3468 1.368 . S
H3453 C3461 0.950 . S
H3454 C3459 0.950 . S
H3455 C3460 0.949 . S
H3456 C3462 0.950 . S
H3457 C3463 0.950 . S
H3458 C3464 0.949 . S
C3459 H3454 0.950 . S
C3459 C3461 1.327 . S
C3459 C3465 1.472 . S
C3460 C3452 1.574 . S
C3460 H3455 0.949 . S
C3460 C3466 1.368 . S
C3461 C3445 1.349 . S
C3461 H3453 0.950 . S
C3461 C3459 1.327 . S
C3462 C3450 1.349 . S
C3462 H3456 0.950 . S
C3462 C3463 1.327 . S
C3463 H3457 0.950 . S
C3463 C3462 1.327 . S
C3463 C3467 1.429 . S
C3464 C3447 1.574 . S
C3464 H3458 0.949 . S
C3464 C3468 1.368 . S
C3465 C3446 1.417 1_455 S
C3465 C3459 1.472 . S
C3465 C3466 1.495 1_455 S
C3466 C3447 1.368 . S
C3466 C3460 1.368 . S
C3466 C3465 1.495 1_655 S
C3467 C3451 1.429 . S
C3467 C3463 1.429 . S
C3467 C3468 1.523 . S
C3468 C3452 1.368 . S
C3468 C3464 1.368 . S
C3468 C3467 1.523 . S
H3469 C3444 0.950 . S
H3470 C3446 0.950 . S
H3471 C3447 0.949 1_455 S
H3472 C3449 0.950 . S
H3473 C3451 0.950 . S
C3474 C3475 1.349 . S
C3474 C3476 1.327 . S
C3474 H3499 0.950 . S
C3475 C3474 1.349 . S
C3475 C3491 1.349 . S
C3476 C3474 1.327 . S
C3476 C3495 1.429 . S
C3476 H3500 0.950 . S
C3477 C3494 1.574 . S
C3477 C3496 1.368 . S
C3477 H3501 0.949 . S
H3478 C3482 0.949 . S
C3479 C3480 1.349 . S
C3479 C3481 1.327 . S
C3479 H3502 0.950 . S
C3480 C3479 1.349 . S
C3480 C3492 1.349 . S
C3481 C3479 1.327 . S
C3481 C3497 1.429 . S
C3481 H3503 0.950 . S
C3482 H3478 0.949 . S
C3482 C3490 1.574 . S
C3482 C3498 1.368 . S
H3483 C3491 0.950 . S
H3484 C3489 0.950 . S
H3485 C3490 0.949 . S
H3486 C3492 0.950 . S
H3487 C3493 0.950 . S
H3488 C3494 0.949 . S
C3489 H3484 0.950 . S
C3489 C3491 1.327 . S
C3489 C3495 1.429 . S
C3490 C3482 1.574 . S
C3490 H3485 0.949 . S
C3490 C3496 1.368 . S
C3491 C3475 1.349 . S
C3491 H3483 0.950 . S
C3491 C3489 1.327 . S
C3492 C3480 1.349 . S
C3492 H3486 0.950 . S
C3492 C3493 1.327 . S
C3493 H3487 0.950 . S
C3493 C3492 1.327 . S
C3493 C3497 1.429 . S
C3494 C3477 1.574 . S
C3494 H3488 0.949 . S
C3494 C3498 1.368 . S
C3495 C3476 1.429 . S
C3495 C3489 1.429 . S
C3495 C3496 1.523 . S
C3496 C3477 1.368 . S
C3496 C3490 1.368 . S
C3496 C3495 1.523 . S
C3497 C3481 1.429 . S
C3497 C3493 1.429 . S
C3497 C3498 1.523 . S
C3498 C3482 1.368 . S
C3498 C3494 1.368 . S
C3498 C3497 1.523 . S
H3499 C3474 0.950 . S
H3500 C3476 0.950 . S
H3501 C3477 0.949 . S
H3502 C3479 0.950 . S
H3503 C3481 0.950 . S
C3504 C3505 1.349 . S
C3504 C3506 1.327 . S
C3504 H3529 0.950 . S
C3505 C3504 1.349 . S
C3505 C3521 1.349 . S
C3506 C3504 1.327 . S
C3506 C3525 1.429 . S
C3506 H3530 0.950 . S
C3507 C3524 1.574 . S
C3507 C3526 1.368 . S
C3507 H3531 0.949 . S
H3508 C3512 0.949 . S
C3509 C3510 1.349 . S
C3509 C3511 1.327 . S
C3509 H3532 0.950 . S
C3510 C3509 1.349 . S
C3510 C3522 1.349 . S
C3511 C3509 1.327 . S
C3511 C3527 1.429 . S
C3511 H3533 0.950 . S
C3512 H3508 0.949 . S
C3512 C3520 1.574 . S
C3512 C3528 1.368 . S
H3513 C3521 0.950 . S
H3514 C3519 0.950 . S
H3515 C3520 0.949 . S
H3516 C3522 0.950 . S
H3517 C3523 0.950 . S
H3518 C3524 0.949 . S
C3519 H3514 0.950 . S
C3519 C3521 1.327 . S
C3519 C3525 1.429 . S
C3520 C3512 1.574 . S
C3520 H3515 0.949 . S
C3520 C3526 1.368 . S
C3521 C3505 1.349 . S
C3521 H3513 0.950 . S
C3521 C3519 1.327 . S
C3522 C3510 1.349 . S
C3522 H3516 0.950 . S
C3522 C3523 1.327 . S
C3523 H3517 0.950 . S
C3523 C3522 1.327 . S
C3523 C3527 1.429 . S
C3524 C3507 1.574 . S
C3524 H3518 0.949 . S
C3524 C3528 1.368 . S
C3525 C3506 1.429 . S
C3525 C3519 1.429 . S
C3525 C3526 1.523 . S
C3526 C3507 1.368 . S
C3526 C3520 1.368 . S
C3526 C3525 1.523 . S
C3527 C3511 1.429 . S
C3527 C3523 1.429 . S
C3527 C3528 1.523 . S
C3528 C3512 1.368 . S
C3528 C3524 1.368 . S
C3528 C3527 1.523 . S
H3529 C3504 0.950 . S
H3530 C3506 0.950 . S
H3531 C3507 0.949 . S
H3532 C3509 0.950 . S
H3533 C3511 0.950 . S
C3534 C3535 1.349 . S
C3534 C3536 1.327 1_565 S
C3534 H3559 0.950 . S
C3535 C3534 1.349 . S
C3535 C3551 1.349 . S
C3536 C3534 1.327 1_545 S
C3536 C3555 1.415 1_545 S
C3536 H3560 0.950 . S
C3537 C3554 1.574 . S
C3537 C3556 1.368 . S
C3537 H3561 0.949 1_545 S
H3538 C3542 0.949 . S
C3539 C3540 1.349 . S
C3539 C3541 1.327 . S
C3539 H3562 0.950 . S
C3540 C3539 1.349 . S
C3540 C3552 1.349 . S
C3541 C3539 1.327 . S
C3541 C3557 1.429 . S
C3541 H3563 0.950 . S
C3542 H3538 0.949 . S
C3542 C3550 1.574 . S
C3542 C3558 1.368 . S
H3543 C3551 0.950 . S
H3544 C3549 0.950 . S
H3545 C3550 0.949 . S
H3546 C3552 0.950 . S
H3547 C3553 0.950 . S
H3548 C3554 0.949 . S
C3549 H3544 0.950 . S
C3549 C3551 1.327 . S
C3549 C3555 1.473 . S
C3550 C3542 1.574 . S
C3550 H3545 0.949 . S
C3550 C3556 1.368 . S
C3551 C3535 1.349 . S
C3551 H3543 0.950 . S
C3551 C3549 1.327 . S
C3552 C3540 1.349 . S
C3552 H3546 0.950 . S
C3552 C3553 1.327 . S
C3553 H3547 0.950 . S
C3553 C3552 1.327 . S
C3553 C3557 1.429 . S
C3554 C3537 1.574 . S
C3554 H3548 0.949 . S
C3554 C3558 1.368 . S
C3555 C3536 1.415 1_565 S
C3555 C3549 1.473 . S
C3555 C3556 1.495 1_565 S
C3556 C3537 1.368 . S
C3556 C3550 1.368 . S
C3556 C3555 1.495 1_545 S
C3557 C3541 1.429 . S
C3557 C3553 1.429 . S
C3557 C3558 1.523 . S
C3558 C3542 1.368 . S
C3558 C3554 1.368 . S
C3558 C3557 1.523 . S
H3559 C3534 0.950 . S
H3560 C3536 0.950 . S
H3561 C3537 0.949 1_565 S
H3562 C3539 0.950 . S
H3563 C3541 0.950 . S
C3564 C3565 1.349 . S
C3564 C3566 1.327 . S
C3564 H3589 0.950 . S
C3565 C3564 1.349 . S
C3565 C3581 1.349 . S
C3566 C3564 1.327 . S
C3566 C3585 1.476 . S
C3566 H3590 0.950 . S
C3567 C3584 1.574 . S
C3567 C3586 1.368 . S
C3567 H3591 0.949 . S
H3568 C3572 0.949 . S
C3569 C3570 1.349 . S
C3569 C3571 1.327 . S
C3569 H3592 0.950 . S
C3570 C3569 1.349 . S
C3570 C3582 1.349 . S
C3571 C3569 1.327 . S
C3571 C3587 1.429 . S
C3571 H3593 0.950 . S
C3572 H3568 0.949 . S
C3572 C3580 1.574 . S
C3572 C3588 1.368 . S
H3573 C3581 0.937 1_565 S
H3574 C3579 0.950 . S
H3575 C3580 0.949 1_545 S
H3576 C3582 0.950 . S
H3577 C3583 0.950 . S
H3578 C3584 0.949 . S
C3579 H3574 0.950 . S
C3579 C3581 1.327 1_565 S
C3579 C3585 1.412 1_565 S
C3580 C3572 1.574 . S
C3580 H3575 0.949 1_565 S
C3580 C3586 1.368 . S
C3581 C3565 1.349 . S
C3581 H3573 0.937 1_545 S
C3581 C3579 1.327 1_545 S
C3582 C3570 1.349 . S
C3582 H3576 0.950 . S
C3582 C3583 1.327 . S
C3583 H3577 0.950 . S
C3583 C3582 1.327 . S
C3583 C3587 1.429 . S
C3584 C3567 1.574 . S
C3584 H3578 0.949 . S
C3584 C3588 1.368 . S
C3585 C3566 1.476 . S
C3585 C3579 1.412 1_545 S
C3585 C3586 1.495 1_545 S
C3586 C3567 1.368 . S
C3586 C3580 1.368 . S
C3586 C3585 1.495 1_565 S
C3587 C3571 1.429 . S
C3587 C3583 1.429 . S
C3587 C3588 1.523 . S
C3588 C3572 1.368 . S
C3588 C3584 1.368 . S
C3588 C3587 1.523 . S
H3589 C3564 0.950 . S
H3590 C3566 0.950 . S
H3591 C3567 0.949 . S
H3592 C3569 0.950 . S
H3593 C3571 0.950 . S
C3594 C3595 1.349 . S
C3594 C3596 1.327 . S
C3594 H3619 0.950 . S
C3595 C3594 1.349 . S
C3595 C3611 1.349 . S
C3596 C3594 1.327 . S
C3596 C3615 1.429 . S
C3596 H3620 0.950 . S
C3597 C3614 1.574 . S
C3597 C3616 1.368 . S
C3597 H3621 0.949 . S
H3598 C3602 0.949 . S
C3599 C3600 1.349 . S
C3599 C3601 1.327 . S
C3599 H3622 0.950 . S
C3600 C3599 1.349 . S
C3600 C3612 1.349 . S
C3601 C3599 1.327 . S
C3601 C3617 1.429 . S
C3601 H3623 0.950 . S
C3602 H3598 0.949 . S
C3602 C3610 1.574 . S
C3602 C3618 1.368 . S
H3603 C3611 0.950 . S
H3604 C3609 0.950 . S
H3605 C3610 0.949 . S
H3606 C3612 0.950 . S
H3607 C3613 0.950 . S
H3608 C3614 0.949 . S
C3609 H3604 0.950 . S
C3609 C3611 1.327 . S
C3609 C3615 1.429 . S
C3610 C3602 1.574 . S
C3610 H3605 0.949 . S
C3610 C3616 1.368 . S
C3611 C3595 1.349 . S
C3611 H3603 0.950 . S
C3611 C3609 1.327 . S
C3612 C3600 1.349 . S
C3612 H3606 0.950 . S
C3612 C3613 1.327 . S
C3613 H3607 0.950 . S
C3613 C3612 1.327 . S
C3613 C3617 1.429 . S
C3614 C3597 1.574 . S
C3614 H3608 0.949 . S
C3614 C3618 1.368 . S
C3615 C3596 1.429 . S
C3615 C3609 1.429 . S
C3615 C3616 1.523 . S
C3616 C3597 1.368 . S
C3616 C3610 1.368 . S
C3616 C3615 1.523 . S
C3617 C3601 1.429 . S
C3617 C3613 1.429 . S
C3617 C3618 1.523 . S
C3618 C3602 1.368 . S
C3618 C3614 1.368 . S
C3618 C3617 1.523 . S
H3619 C3594 0.950 . S
H3620 C3596 0.950 . S
H3621 C3597 0.949 . S
H3622 C3599 0.950 . S
H3623 C3601 0.950 . S
C745 C582 0.986 . S
C750 C18 0.955 . S
C775 C49 0.955 . S
C780 C613 0.986 . S
C805 C520 0.986 . S
C810 C80 0.955 . S
C835 C111 0.955 . S
C840 C551 0.986 . S
C865 C706 0.986 . S
C870 C142 0.955 . S
C895 C675 0.986 . S
C900 C173 0.955 . S
C925 C737 0.986 . S
C930 C204 0.955 . S
C955 C644 0.986 . S
C960 C235 0.955 . S
C985 C266 0.955 . S
C990 C427 0.986 . S
C1015 C489 0.986 . S
C1020 C297 0.955 . S
C1045 C328 0.955 . S
C1050 C458 0.986 . S
C1075 C396 0.986 . S
C1080 C359 0.955 . S
C1105 C186 0.986 . S
C1110 C383 0.955 . S
C1135 C217 0.986 . S
C1140 C414 0.955 . S
C1165 C124 0.986 . S
C1170 C445 0.955 . S
C1195 C476 0.955 . S
C1200 C155 0.986 . S
C1225 C310 0.986 . S
C1230 C507 0.955 . S
C1255 C538 0.955 . S
C1260 C279 0.986 . S
C1285 C341 0.986 . S
C1290 C569 0.955 . S
C1315 C248 0.986 . S
C1320 C600 0.955 . S
C1345 C631 0.955 . S
C1350 C31 0.986 . S
C1375 C93 0.986 . S
C1380 C662 0.955 . S
C1405 C693 0.955 . S
C1410 C62 0.986 . S
C1435 C724 0.955 . S
C1440 C0 0.986 . S
C1465 C272 1.419 . S
C1470 C27 1.536 . S
C1495 C58 1.536 . S
C1500 C365 1.419 . S
C1525 C89 1.536 . S
C1530 C303 1.419 . S
C1555 C120 1.536 . S
C1560 C334 1.419 . S
C1585 C151 1.536 . S
C1590 C24 1.419 . S
C1615 C182 1.536 . S
C1620 C55 1.419 . S
C1645 C86 1.419 . S
C1650 C213 1.536 . S
C1675 C244 1.536 . S
C1680 C117 1.419 . S
C1705 C148 1.419 . S
C1710 C275 1.536 . S
C1735 C306 1.536 . S
C1740 C210 1.419 . S
C1765 C241 1.419 . S
C1770 C337 1.536 . S
C1795 C179 1.419 . S
C1800 C368 1.536 . S
C1825 C620 1.419 . S
C1830 C373 1.536 . S
C1855 C404 1.536 . S
C1860 C713 1.419 . S
C1885 C651 1.419 . S
C1890 C435 1.536 . S
C1915 C466 1.536 . S
C1920 C682 1.419 . S
C1945 C372 1.419 . S
C1950 C497 1.536 . S
C1975 C403 1.419 . S
C1980 C528 1.536 . S
C2005 C559 1.536 . S
C2010 C434 1.419 . S
C2035 C465 1.419 . S
C2040 C590 1.536 . S
C2065 C496 1.419 . S
C2070 C621 1.536 . S
C2095 C652 1.536 . S
C2100 C558 1.419 . S
C2125 C683 1.536 . S
C2130 C589 1.419 . S
C2155 C714 1.536 . S
C2160 C527 1.419 . S
C2185 C2 1.144 . S
C2190 C342 1.124 . S
C2215 C249 1.124 . S
C2220 C33 1.144 . S
C2245 C64 1.144 . S
C2250 C311 1.124 1_545 S
C2275 C95 1.144 . S
C2280 C280 1.124 1_565 S
C2305 C63 1.124 . S
C2310 C126 1.144 . S
C2335 C94 1.124 1_556 S
C2340 C157 1.144 . S
C2365 C1 1.124 . S
C2370 C188 1.144 . S
C2395 C219 1.144 . S
C2400 C32 1.124 1_554 S
C2425 C218 1.124 . S
C2430 C250 1.144 . S
C2455 C281 1.144 . S
C2460 C156 1.124 1_655 S
C2485 C125 1.124 . S
C2490 C312 1.144 . S
C2515 C343 1.144 . S
C2520 C187 1.124 1_455 S
C2545 C740 1.124 . S
C2550 C382 1.144 . S
C2575 C647 1.124 . S
C2580 C413 1.144 . S
C2605 C709 1.124 1_565 S
C2610 C444 1.144 . S
C2635 C678 1.124 1_545 S
C2640 C475 1.144 . S
C2665 C506 1.144 . S
C2670 C461 1.124 . S
C2695 C537 1.144 . S
C2700 C492 1.124 1_554 S
C2725 C568 1.144 . S
C2730 C399 1.124 . S
C2755 C599 1.144 . S
C2760 C430 1.124 1_556 S
C2785 C616 1.124 . S
C2790 C630 1.144 . S
C2815 C554 1.124 1_455 S
C2820 C661 1.144 . S
C2845 C523 1.124 . S
C2850 C692 1.144 . S
C2875 C585 1.124 1_655 S
C2880 C723 1.144 . S
C2905 C684 1.792 . S
C2910 C11 1.802 . S
C2935 C653 1.792 . S
C2940 C42 1.802 . S
C2965 C73 1.802 . S
C2970 C715 1.792 . S
C2995 C622 1.792 . S
C3000 C104 1.802 . S
C3025 C135 1.802 . S
C3030 C405 1.792 . S
C3055 C374 1.792 . S
C3060 C166 1.802 . S
C3085 C197 1.802 . S
C3090 C467 1.792 . S
C3115 C228 1.802 . S
C3120 C436 1.792 . S
C3145 C560 1.792 . S
C3150 C259 1.802 . S
C3175 C498 1.792 . S
C3180 C290 1.802 . S
C3205 C321 1.802 . S
C3210 C529 1.792 . S
C3235 C352 1.802 . S
C3240 C591 1.792 . S
C3265 C390 1.802 . S
C3270 C320 1.792 . S
C3295 C421 1.802 . S
C3300 C289 1.792 . S
C3325 C351 1.792 . S
C3330 C452 1.802 . S
C3355 C258 1.792 . S
C3360 C483 1.802 . S
C3385 C514 1.802 . S
C3390 C41 1.792 . S
C3415 C545 1.802 . S
C3420 C10 1.792 . S
C3445 C576 1.802 . S
C3450 C103 1.792 . S
C3475 C607 1.802 . S
C3480 C72 1.792 . S
C3505 C638 1.802 . S
C3510 C196 1.792 . S
C3535 C669 1.802 . S
C3540 C134 1.792 . S
C3565 C700 1.802 . S
C3570 C165 1.792 . S
C3595 C227 1.792 . S
C3600 C731 1.802 . S
