# Generated by pormake.
# Topology wlr, (5)-cn, num edge types: 1
# Building blocks:
#     Node 0, Type 0, BuildingBlock: XOMCOT_clean_sbu_1, # of connection points: 5
#     Node 1, Type 0, BuildingBlock: XOMCOT_clean_sbu_1, # of connection points: 5
#     Node 2, Type 0, BuildingBlock: XOMCOT_clean_sbu_1, # of connection points: 5
#     Node 3, Type 0, BuildingBlock: XOMCOT_clean_sbu_1, # of connection points: 5
#     Node 4, Type 0, BuildingBlock: XOMCOT_clean_sbu_1, # of connection points: 5
#     Node 5, Type 0, BuildingBlock: XOMCOT_clean_sbu_1, # of connection points: 5
#     Node 6, Type 0, BuildingBlock: XOMCOT_clean_sbu_1, # of connection points: 5
#     Node 7, Type 0, BuildingBlock: XOMCOT_clean_sbu_1, # of connection points: 5
#     Node 8, Type 0, BuildingBlock: XOMCOT_clean_sbu_1, # of connection points: 5
#     Node 9, Type 0, BuildingBlock: XOMCOT_clean_sbu_1, # of connection points: 5
#     Node 10, Type 0, BuildingBlock: XOMCOT_clean_sbu_1, # of connection points: 5
#     Node 11, Type 0, BuildingBlock: XOMCOT_clean_sbu_1, # of connection points: 5
#     Node 12, Type 0, BuildingBlock: XOMCOT_clean_sbu_1, # of connection points: 5
#     Node 13, Type 0, BuildingBlock: XOMCOT_clean_sbu_1, # of connection points: 5
#     Node 14, Type 0, BuildingBlock: XOMCOT_clean_sbu_1, # of connection points: 5
#     Node 15, Type 0, BuildingBlock: XOMCOT_clean_sbu_1, # of connection points: 5
#     Node 16, Type 0, BuildingBlock: XOMCOT_clean_sbu_1, # of connection points: 5
#     Node 17, Type 0, BuildingBlock: XOMCOT_clean_sbu_1, # of connection points: 5
#     Node 18, Type 0, BuildingBlock: XOMCOT_clean_sbu_1, # of connection points: 5
#     Node 19, Type 0, BuildingBlock: XOMCOT_clean_sbu_1, # of connection points: 5
#     Node 20, Type 0, BuildingBlock: XOMCOT_clean_sbu_1, # of connection points: 5
#     Node 21, Type 0, BuildingBlock: XOMCOT_clean_sbu_1, # of connection points: 5
#     Node 22, Type 0, BuildingBlock: XOMCOT_clean_sbu_1, # of connection points: 5
#     Node 23, Type 0, BuildingBlock: XOMCOT_clean_sbu_1, # of connection points: 5
#     Node 24, Type 0, BuildingBlock: XOMCOT_clean_sbu_1, # of connection points: 5
#     Node 25, Type 0, BuildingBlock: XOMCOT_clean_sbu_1, # of connection points: 5
#     Node 26, Type 0, BuildingBlock: XOMCOT_clean_sbu_1, # of connection points: 5
#     Node 27, Type 0, BuildingBlock: XOMCOT_clean_sbu_1, # of connection points: 5
#     Node 28, Type 0, BuildingBlock: XOMCOT_clean_sbu_1, # of connection points: 5
#     Node 29, Type 0, BuildingBlock: XOMCOT_clean_sbu_1, # of connection points: 5
#     Node 30, Type 0, BuildingBlock: XOMCOT_clean_sbu_1, # of connection points: 5
#     Node 31, Type 0, BuildingBlock: XOMCOT_clean_sbu_1, # of connection points: 5
#     Node 32, Type 0, BuildingBlock: XOMCOT_clean_sbu_1, # of connection points: 5
#     Node 33, Type 0, BuildingBlock: XOMCOT_clean_sbu_1, # of connection points: 5
#     Node 34, Type 0, BuildingBlock: XOMCOT_clean_sbu_1, # of connection points: 5
#     Node 35, Type 0, BuildingBlock: XOMCOT_clean_sbu_1, # of connection points: 5
#     Edge 36, Type (0, 0), BuildingBlock: CIFDUS_clean_linker_0, # of connection points: 2
#     Edge 37, Type (0, 0), BuildingBlock: CIFDUS_clean_linker_0, # of connection points: 2
#     Edge 38, Type (0, 0), BuildingBlock: CIFDUS_clean_linker_0, # of connection points: 2
#     Edge 39, Type (0, 0), BuildingBlock: CIFDUS_clean_linker_0, # of connection points: 2
#     Edge 40, Type (0, 0), BuildingBlock: CIFDUS_clean_linker_0, # of connection points: 2
#     Edge 41, Type (0, 0), BuildingBlock: CIFDUS_clean_linker_0, # of connection points: 2
#     Edge 42, Type (0, 0), BuildingBlock: CIFDUS_clean_linker_0, # of connection points: 2
#     Edge 43, Type (0, 0), BuildingBlock: CIFDUS_clean_linker_0, # of connection points: 2
#     Edge 44, Type (0, 0), BuildingBlock: CIFDUS_clean_linker_0, # of connection points: 2
#     Edge 45, Type (0, 0), BuildingBlock: CIFDUS_clean_linker_0, # of connection points: 2
#     Edge 46, Type (0, 0), BuildingBlock: CIFDUS_clean_linker_0, # of connection points: 2
#     Edge 47, Type (0, 0), BuildingBlock: CIFDUS_clean_linker_0, # of connection points: 2
#     Edge 48, Type (0, 0), BuildingBlock: CIFDUS_clean_linker_0, # of connection points: 2
#     Edge 49, Type (0, 0), BuildingBlock: CIFDUS_clean_linker_0, # of connection points: 2
#     Edge 50, Type (0, 0), BuildingBlock: CIFDUS_clean_linker_0, # of connection points: 2
#     Edge 51, Type (0, 0), BuildingBlock: CIFDUS_clean_linker_0, # of connection points: 2
#     Edge 52, Type (0, 0), BuildingBlock: CIFDUS_clean_linker_0, # of connection points: 2
#     Edge 53, Type (0, 0), BuildingBlock: CIFDUS_clean_linker_0, # of connection points: 2
#     Edge 54, Type (0, 0), BuildingBlock: CIFDUS_clean_linker_0, # of connection points: 2
#     Edge 55, Type (0, 0), BuildingBlock: CIFDUS_clean_linker_0, # of connection points: 2
#     Edge 56, Type (0, 0), BuildingBlock: CIFDUS_clean_linker_0, # of connection points: 2
#     Edge 57, Type (0, 0), BuildingBlock: CIFDUS_clean_linker_0, # of connection points: 2
#     Edge 58, Type (0, 0), BuildingBlock: CIFDUS_clean_linker_0, # of connection points: 2
#     Edge 59, Type (0, 0), BuildingBlock: CIFDUS_clean_linker_0, # of connection points: 2
#     Edge 60, Type (0, 0), BuildingBlock: CIFDUS_clean_linker_0, # of connection points: 2
#     Edge 61, Type (0, 0), BuildingBlock: CIFDUS_clean_linker_0, # of connection points: 2
#     Edge 62, Type (0, 0), BuildingBlock: CIFDUS_clean_linker_0, # of connection points: 2
#     Edge 63, Type (0, 0), BuildingBlock: CIFDUS_clean_linker_0, # of connection points: 2
#     Edge 64, Type (0, 0), BuildingBlock: CIFDUS_clean_linker_0, # of connection points: 2
#     Edge 65, Type (0, 0), BuildingBlock: CIFDUS_clean_linker_0, # of connection points: 2
#     Edge 66, Type (0, 0), BuildingBlock: CIFDUS_clean_linker_0, # of connection points: 2
#     Edge 67, Type (0, 0), BuildingBlock: CIFDUS_clean_linker_0, # of connection points: 2
#     Edge 68, Type (0, 0), BuildingBlock: CIFDUS_clean_linker_0, # of connection points: 2
#     Edge 69, Type (0, 0), BuildingBlock: CIFDUS_clean_linker_0, # of connection points: 2
#     Edge 70, Type (0, 0), BuildingBlock: CIFDUS_clean_linker_0, # of connection points: 2
#     Edge 71, Type (0, 0), BuildingBlock: CIFDUS_clean_linker_0, # of connection points: 2
#     Edge 72, Type (0, 0), BuildingBlock: CIFDUS_clean_linker_0, # of connection points: 2
#     Edge 73, Type (0, 0), BuildingBlock: CIFDUS_clean_linker_0, # of connection points: 2
#     Edge 74, Type (0, 0), BuildingBlock: CIFDUS_clean_linker_0, # of connection points: 2
#     Edge 75, Type (0, 0), BuildingBlock: CIFDUS_clean_linker_0, # of connection points: 2
#     Edge 76, Type (0, 0), BuildingBlock: CIFDUS_clean_linker_0, # of connection points: 2
#     Edge 77, Type (0, 0), BuildingBlock: CIFDUS_clean_linker_0, # of connection points: 2
#     Edge 78, Type (0, 0), BuildingBlock: CIFDUS_clean_linker_0, # of connection points: 2
#     Edge 79, Type (0, 0), BuildingBlock: CIFDUS_clean_linker_0, # of connection points: 2
#     Edge 80, Type (0, 0), BuildingBlock: CIFDUS_clean_linker_0, # of connection points: 2
#     Edge 81, Type (0, 0), BuildingBlock: CIFDUS_clean_linker_0, # of connection points: 2
#     Edge 82, Type (0, 0), BuildingBlock: CIFDUS_clean_linker_0, # of connection points: 2
#     Edge 83, Type (0, 0), BuildingBlock: CIFDUS_clean_linker_0, # of connection points: 2
#     Edge 84, Type (0, 0), BuildingBlock: CIFDUS_clean_linker_0, # of connection points: 2
#     Edge 85, Type (0, 0), BuildingBlock: CIFDUS_clean_linker_0, # of connection points: 2
#     Edge 86, Type (0, 0), BuildingBlock: CIFDUS_clean_linker_0, # of connection points: 2
#     Edge 87, Type (0, 0), BuildingBlock: CIFDUS_clean_linker_0, # of connection points: 2
#     Edge 88, Type (0, 0), BuildingBlock: CIFDUS_clean_linker_0, # of connection points: 2
#     Edge 89, Type (0, 0), BuildingBlock: CIFDUS_clean_linker_0, # of connection points: 2
#     Edge 90, Type (0, 0), BuildingBlock: CIFDUS_clean_linker_0, # of connection points: 2
#     Edge 91, Type (0, 0), BuildingBlock: CIFDUS_clean_linker_0, # of connection points: 2
#     Edge 92, Type (0, 0), BuildingBlock: CIFDUS_clean_linker_0, # of connection points: 2
#     Edge 93, Type (0, 0), BuildingBlock: CIFDUS_clean_linker_0, # of connection points: 2
#     Edge 94, Type (0, 0), BuildingBlock: CIFDUS_clean_linker_0, # of connection points: 2
#     Edge 95, Type (0, 0), BuildingBlock: CIFDUS_clean_linker_0, # of connection points: 2
#     Edge 96, Type (0, 0), BuildingBlock: CIFDUS_clean_linker_0, # of connection points: 2
#     Edge 97, Type (0, 0), BuildingBlock: CIFDUS_clean_linker_0, # of connection points: 2
#     Edge 98, Type (0, 0), BuildingBlock: CIFDUS_clean_linker_0, # of connection points: 2
#     Edge 99, Type (0, 0), BuildingBlock: CIFDUS_clean_linker_0, # of connection points: 2
#     Edge 100, Type (0, 0), BuildingBlock: CIFDUS_clean_linker_0, # of connection points: 2
#     Edge 101, Type (0, 0), BuildingBlock: CIFDUS_clean_linker_0, # of connection points: 2
#     Edge 102, Type (0, 0), BuildingBlock: CIFDUS_clean_linker_0, # of connection points: 2
#     Edge 103, Type (0, 0), BuildingBlock: CIFDUS_clean_linker_0, # of connection points: 2
#     Edge 104, Type (0, 0), BuildingBlock: CIFDUS_clean_linker_0, # of connection points: 2
#     Edge 105, Type (0, 0), BuildingBlock: CIFDUS_clean_linker_0, # of connection points: 2
#     Edge 106, Type (0, 0), BuildingBlock: CIFDUS_clean_linker_0, # of connection points: 2
#     Edge 107, Type (0, 0), BuildingBlock: CIFDUS_clean_linker_0, # of connection points: 2
#     Edge 108, Type (0, 0), BuildingBlock: CIFDUS_clean_linker_0, # of connection points: 2
#     Edge 109, Type (0, 0), BuildingBlock: CIFDUS_clean_linker_0, # of connection points: 2
#     Edge 110, Type (0, 0), BuildingBlock: CIFDUS_clean_linker_0, # of connection points: 2
#     Edge 111, Type (0, 0), BuildingBlock: CIFDUS_clean_linker_0, # of connection points: 2
#     Edge 112, Type (0, 0), BuildingBlock: CIFDUS_clean_linker_0, # of connection points: 2
#     Edge 113, Type (0, 0), BuildingBlock: CIFDUS_clean_linker_0, # of connection points: 2
#     Edge 114, Type (0, 0), BuildingBlock: CIFDUS_clean_linker_0, # of connection points: 2
#     Edge 115, Type (0, 0), BuildingBlock: CIFDUS_clean_linker_0, # of connection points: 2
#     Edge 116, Type (0, 0), BuildingBlock: CIFDUS_clean_linker_0, # of connection points: 2
#     Edge 117, Type (0, 0), BuildingBlock: CIFDUS_clean_linker_0, # of connection points: 2
#     Edge 118, Type (0, 0), BuildingBlock: CIFDUS_clean_linker_0, # of connection points: 2
#     Edge 119, Type (0, 0), BuildingBlock: CIFDUS_clean_linker_0, # of connection points: 2
#     Edge 120, Type (0, 0), BuildingBlock: CIFDUS_clean_linker_0, # of connection points: 2
#     Edge 121, Type (0, 0), BuildingBlock: CIFDUS_clean_linker_0, # of connection points: 2
#     Edge 122, Type (0, 0), BuildingBlock: CIFDUS_clean_linker_0, # of connection points: 2
#     Edge 123, Type (0, 0), BuildingBlock: CIFDUS_clean_linker_0, # of connection points: 2
#     Edge 124, Type (0, 0), BuildingBlock: CIFDUS_clean_linker_0, # of connection points: 2
#     Edge 125, Type (0, 0), BuildingBlock: CIFDUS_clean_linker_0, # of connection points: 2
# Relax obj value: 0.173
# Max RMSD: 0.139
# Mean RMSD: 0.139
data_MOF--net-wlr--node1-XOMCOT_clean_sbu_1--edge1-CIFDUS_clean_linker_0
_symmetry_space_group_name_H-M    P1
_symmetry_Int_Tables_number       1
_symmetry_cell_setting            triclinic
loop_
_symmetry_equiv_pos_as_xyz
'x, y, z'
_cell_length_a     70.388728
_cell_length_b     70.217688
_cell_length_c     30.314357
_cell_angle_alpha  89.882803
_cell_angle_beta   89.952346
_cell_angle_gamma 120.04457
loop_
_atom_site_label
_atom_site_type_symbol
_atom_site_fract_x
_atom_site_fract_y
_atom_site_fract_z
_atom_type_partial_charge
C0 C 0.25283 0.16773 0.13708 0.0
C1 C 0.26769 0.16276 0.15502 0.0
N2 N 0.28796 0.1784 0.14246 0.0
N3 N 0.26362 0.18641 0.11329 0.0
C4 C 0.28504 0.19264 0.11729 0.0
H5 H 0.23516 0.15788 0.1397 0.0
Co6 Co 0.24924 0.19719 0.07936 0.0
C7 C 0.27953 0.21919 1.00236 0.0
O8 O 0.26237 0.20975 0.97621 0.0
N9 N 0.23385 0.20809 0.04701 0.0
C10 C 0.22617 0.23366 0.02389 0.0
C11 C 0.24262 0.22933 0.03424 0.0
C12 C 0.21186 0.20002 0.04495 0.0
N13 N 0.20687 0.21521 0.03057 0.0
O14 O 0.25696 0.2208 0.12189 0.0
H15 H 0.25983 0.24159 0.03636 0.0
H16 H 0.19974 0.18427 0.05815 0.0
O17 O 0.27671 0.21596 0.04426 0.0
C18 C 0.24683 0.21484 0.15885 0.0
O19 O 0.23241 0.19398 0.16519 0.0
N20 N 0.24062 0.17249 0.04118 0.0
C21 C 0.23028 0.12923 0.02209 0.0
C22 C 0.25118 0.147 0.01317 0.0
C23 C 0.2561 0.16838 0.02326 0.0
C24 C 0.21967 0.15541 0.047 0.0
C25 C 0.21409 0.13366 0.03727 0.0
H26 H 0.27317 0.18087 0.02227 0.0
H27 H 0.20792 0.158 0.06482 0.0
H28 H 0.29816 0.20698 0.10125 0.0
H29 H 0.26376 0.14819 0.17409 0.0
H30 H 0.22816 0.24951 0.01505 0.0
H31 H 0.26429 0.14418 1.00266 0.0
H32 H 0.19794 0.12029 0.04599 0.0
C33 C 0.83533 0.08842 0.13657 0.0
C34 C 0.84019 0.10691 0.16019 0.0
N35 N 0.82683 0.11434 0.14662 0.0
N36 N 0.8189 0.08401 0.10831 0.0
C37 C 0.81386 0.09995 0.11536 0.0
H38 H 0.84361 0.07899 0.13903 0.0
Co39 Co 0.80896 0.06071 0.06915 0.0
C40 C 0.79329 0.0758 0.99159 0.0
O41 O 0.80642 0.07177 0.96749 0.0
N42 N 0.79869 0.03579 0.03194 0.0
C43 C 0.7747 0.00613 0.99461 0.0
C44 C 0.78055 0.02714 1.00633 0.0
C45 C 0.80294 0.019 0.03655 0.0
N46 N 0.78846 1.00071 0.01424 0.0
O47 O 0.78418 0.04335 0.10861 0.0
H48 H 0.7703 0.03423 1.00043 0.0
H49 H 0.81487 0.01936 0.05956 0.0
O50 O 0.79189 0.07186 0.03352 0.0
C51 C 0.78978 0.03504 0.14023 0.0
O52 O 0.80971 0.03795 0.14023 0.0
N53 N 0.83503 0.07812 0.03483 0.0
C54 C 0.87879 0.10883 0.01253 0.0
C55 C 0.86261 0.11484 0.0133 0.0
C56 C 0.84112 0.09952 0.02516 0.0
C57 C 0.85029 0.07157 0.03187 0.0
C58 C 0.87224 0.08662 0.0204 0.0
H59 H 0.82983 0.1055 0.02976 0.0
H60 H 0.84603 0.05514 0.04188 0.0
H61 H 0.80162 0.1015 0.09665 0.0
H62 H 0.85276 0.11434 0.1852 0.0
H63 H 0.76023 0.99504 0.97597 0.0
H64 H 0.86673 0.13169 1.00712 0.0
H65 H 0.88422 0.08125 0.02076 0.0
C66 C 0.92857 0.75493 0.15547 0.0
C67 C 0.90944 0.74327 0.17889 0.0
N68 N 0.89667 0.7242 0.15765 0.0
N69 N 0.92795 0.74331 0.11971 0.0
C70 C 0.90835 0.72458 0.12182 0.0
H71 H 0.94205 0.77109 0.16346 0.0
Co72 Co 0.95075 0.75505 0.07999 0.0
C73 C 0.93782 0.72296 1.005 0.0
O74 O 0.94512 0.73985 0.97796 0.0
N75 N 0.97527 0.76837 0.04177 0.0
C76 C 1.00695 0.775 0.01202 0.0
C77 C 0.98676 0.75897 0.0271 0.0
C78 C 0.9891 0.79022 0.03571 0.0
N79 N 0.00859 0.79479 0.01796 0.0
O80 O 0.9668 0.74643 0.11981 0.0
H81 H 0.98173 0.74178 0.03104 0.0
H82 H 0.98583 0.80269 0.04782 0.0
O83 O 0.93862 0.72635 0.04693 0.0
C84 C 0.98267 0.76136 0.14213 0.0
O85 O 0.99 0.78207 0.13195 0.0
N86 N 0.93439 0.76464 0.04588 0.0
C87 C 0.90447 0.77927 0.02876 0.0
C88 C 0.89936 0.75777 0.01818 0.0
C89 C 0.91434 0.75069 0.02755 0.0
C90 C 0.93985 0.7858 0.0549 0.0
C91 C 0.92543 0.79356 0.04578 0.0
H92 H 0.90854 0.73336 0.02443 0.0
H93 H 0.95435 0.79612 0.07392 0.0
H94 H 0.90271 0.71163 0.0975 0.0
H95 H 0.90504 0.74872 0.20855 0.0
H96 H 0.02011 0.7723 1.00154 0.0
H97 H 0.88317 0.74587 1.00641 0.0
H98 H 0.93019 0.81027 0.05482 0.0
C99 C 0.17652 0.26025 0.39669 0.0
C100 C 0.17198 0.27492 0.37617 0.0
N101 N 0.18714 0.29537 0.3887 0.0
N102 N 0.19448 0.27131 0.42209 0.0
C103 C 0.20069 0.29275 0.41654 0.0
H104 H 0.16692 0.24252 0.39443 0.0
Co105 Co 0.2048 0.25657 0.45675 0.0
C106 C 0.22264 0.28466 0.53679 0.0
O107 O 0.21101 0.26647 0.5596 0.0
N108 N 0.21531 0.24053 0.48886 0.0
C109 C 0.23816 0.23149 0.52111 0.0
C110 C 0.2342 0.24834 0.51183 0.0
C111 C 0.20896 0.21903 0.48242 0.0
N112 N 0.22224 0.2129 0.5026 0.0
O113 O 0.22875 0.26468 0.4153 0.0
H114 H 0.24557 0.26548 0.51835 0.0
H115 H 0.19571 0.20844 0.46068 0.0
O116 O 0.22243 0.28366 0.49431 0.0
C117 C 0.222 0.25199 0.38168 0.0
O118 O 0.20137 0.2363 0.38039 0.0
N119 N 0.17954 0.24712 0.49388 0.0
C120 C 0.13543 0.23211 0.51583 0.0
C121 C 0.15108 0.25463 0.51683 0.0
C122 C 0.17301 0.26176 0.50618 0.0
C123 C 0.16487 0.22512 0.49635 0.0
C124 C 0.14303 0.21731 0.50837 0.0
H125 H 0.18412 0.27925 0.50314 0.0
H126 H 0.16921 0.21333 0.48512 0.0
H127 H 0.21456 0.30609 0.43313 0.0
H128 H 0.15802 0.27076 0.35515 0.0
H129 H 0.25263 0.23328 0.53745 0.0
H130 H 0.14627 0.26688 0.52204 0.0
H131 H 0.13189 0.19972 0.50859 0.0
C132 C 0.75776 0.92889 0.36352 0.0
C133 C 0.74477 0.91103 0.33767 0.0
N134 N 0.72414 0.90156 0.35339 0.0
N135 N 0.74537 0.93089 0.39508 0.0
C136 C 0.72488 0.91392 0.38819 0.0
H137 H 0.77536 0.93919 0.36074 0.0
Co138 Co 0.75774 0.95212 0.43866 0.0
C139 C 0.71971 0.94771 0.49365 0.0
O140 O 0.72831 0.96917 0.49494 0.0
N141 N 0.77157 0.97406 0.48164 0.0
C142 C 0.78351 0.99213 0.54504 0.0
C143 C 0.76939 0.97215 0.52597 0.0
C144 C 0.78762 0.99512 0.47473 0.0
N145 N 0.79503 0.00649 0.51269 0.0
O146 O 0.75119 0.9714 0.40283 0.0
H147 H 0.75845 0.9571 0.54337 0.0
H148 H 0.79394 1.00204 0.44253 0.0
O149 O 0.72926 0.93939 0.47122 0.0
C150 C 0.76518 0.98087 0.37169 0.0
O151 O 0.78252 0.9785 0.37027 0.0
N152 N 0.76531 0.9335 0.46961 0.0
C153 C 0.77951 0.90358 0.48951 0.0
C154 C 0.75709 0.89708 0.49077 0.0
C155 C 0.75033 0.9123 0.4809 0.0
C156 C 0.78717 0.94051 0.47104 0.0
C157 C 0.79462 0.92595 0.48157 0.0
H158 H 0.73295 0.90647 0.47877 0.0
H159 H 0.7989 0.95718 0.46121 0.0
H160 H 0.71096 0.91023 0.409 0.0
H161 H 0.75029 0.90473 0.31102 0.0
H162 H 0.7856 0.9957 0.58 0.0
H163 H 0.74469 0.88006 0.49624 0.0
H164 H 0.81211 0.93205 0.48133 0.0
C165 C 0.08609 0.83684 0.37997 0.0
C166 C 0.10493 0.84449 0.35557 0.0
N167 N 0.11618 0.835 0.37088 0.0
N168 N 0.08535 0.82259 0.41062 0.0
C169 C 0.10392 0.82173 0.40444 0.0
H170 H 0.07355 0.8413 0.37573 0.0
Co171 Co 0.06124 0.80912 0.44743 0.0
C172 C 0.0722 0.78808 0.52126 0.0
O173 O 0.06278 0.79587 0.54731 0.0
N174 N 0.03544 0.79548 0.48237 0.0
C175 C 1.00302 0.76784 0.5043 0.0
C176 C 0.02381 0.77359 0.49037 0.0
C177 C 0.02117 0.8026 0.4917 0.0
N178 N 1.0014 0.7861 0.50504 0.0
O179 O 0.04701 0.7862 0.40315 0.0
H180 H 0.02939 0.76215 0.48268 0.0
H181 H 0.02413 0.81888 0.48413 0.0
O182 O 0.07299 0.79183 0.47938 0.0
C183 C 0.03107 0.78508 0.38081 0.0
O184 O 0.02258 0.7972 0.3927 0.0
N185 N 0.07607 0.8334 0.48654 0.0
C186 C 0.1044 0.87578 0.51954 0.0
C187 C 0.10976 0.85913 0.52265 0.0
C188 C 0.09579 0.83841 0.50501 0.0
C189 C 0.07047 0.84939 0.48356 0.0
C190 C 0.08427 0.87061 0.50019 0.0
H191 H 0.10219 0.82738 0.50256 0.0
H192 H 0.05636 0.84649 0.46445 0.0
H193 H 0.1082 0.81141 0.42361 0.0
H194 H 0.11008 0.85636 0.32896 0.0
H195 H 0.98965 0.75132 0.51047 0.0
H196 H 0.12557 0.86257 0.53518 0.0
H197 H 0.07972 0.88312 0.49593 0.0
C198 C 0.76128 0.84107 0.86559 0.0
C199 C 0.74816 0.84647 0.8417 0.0
N200 N 0.728 0.83602 0.85969 0.0
N201 N 0.74946 0.82691 0.89815 0.0
C202 C 0.72918 0.82436 0.89415 0.0
H203 H 0.77867 0.84777 0.86044 0.0
Co204 Co 0.76265 0.81689 0.93805 0.0
C205 C 0.72609 0.78361 0.9981 0.0
O206 O 0.73587 0.77202 1.00351 0.0
N207 N 0.77754 0.80793 0.97688 0.0
C208 C 0.79446 0.80405 0.03532 0.0
C209 C 0.77919 0.80955 0.02124 0.0
C210 C 0.79216 0.80171 0.96487 0.0
N211 N 0.80267 0.79916 0.99969 0.0
O212 O 0.75483 0.79155 0.89981 0.0
H213 H 0.77028 0.81494 0.04201 0.0
H214 H 0.79596 0.8002 0.93102 0.0
O215 O 0.73461 0.8004 0.97223 0.0
C216 C 0.76754 0.79623 0.86631 0.0
O217 O 0.78486 0.81596 0.8634 0.0
N218 N 0.77141 0.84258 0.97155 0.0
C219 C 0.7844 0.88535 1.00001 0.0
C220 C 0.76503 0.86712 0.01599 0.0
C221 C 0.75867 0.84592 1.001 0.0
C222 C 0.7911 0.85974 0.95842 0.0
C223 C 0.79786 0.88125 0.97196 0.0
H224 H 0.74306 0.83256 1.01186 0.0
H225 H 0.80094 0.85689 0.93482 0.0
H226 H 0.71565 0.81449 0.91617 0.0
H227 H 0.75325 0.85798 0.81441 0.0
H228 H 0.79933 0.80398 0.06914 0.0
H229 H 0.75434 0.86924 0.03866 0.0
H230 H 0.81286 0.89461 0.9583 0.0
C231 C 0.17682 0.92213 0.88139 0.0
C232 C 0.17338 0.90449 0.85642 0.0
N233 N 0.18636 0.89701 0.87185 0.0
N234 N 0.19196 0.92597 0.91252 0.0
C235 C 0.19751 0.91029 0.90614 0.0
H236 H 0.16854 0.93149 0.87758 0.0
Co237 Co 0.19973 0.94939 0.95056 0.0
C238 C 0.21567 0.93943 0.03336 0.0
O239 O 0.2026 0.94527 0.05247 0.0
N240 N 0.20762 0.97459 0.98593 0.0
C241 C 0.23035 0.00673 0.01752 0.0
C242 C 0.22733 0.98657 1.00568 0.0
C243 C 0.19945 0.98849 0.98459 0.0
N244 N 0.21287 0.00815 1.00405 0.0
O245 O 0.22489 0.96742 0.91327 0.0
H246 H 0.23981 0.98194 1.00767 0.0
H247 H 0.18493 0.98507 0.96635 0.0
O248 O 0.21714 0.94028 0.99078 0.0
C249 C 0.21927 0.97649 0.88333 0.0
O250 O 0.19938 0.97366 0.88441 0.0
N251 N 0.17326 0.93101 0.98249 0.0
C252 C 0.13001 0.89673 0.99521 0.0
C253 C 0.14775 0.89352 1.00322 0.0
C254 C 0.16909 0.91063 0.99609 0.0
C255 C 0.15613 0.93478 0.97722 0.0
C256 C 0.13434 0.91791 0.98395 0.0
H257 H 0.18187 0.90644 0.99662 0.0
H258 H 0.15893 0.95003 0.96297 0.0
H259 H 0.20937 0.90864 0.92603 0.0
H260 H 0.16175 0.89732 0.82965 0.0
H261 H 0.24528 0.02002 0.03131 0.0
H262 H 0.1451 0.87734 1.01145 0.0
H263 H 0.12101 0.92089 0.97649 0.0
C264 C 0.09045 0.25573 0.89849 0.0
C265 C 0.11011 0.27018 0.87915 0.0
N266 N 0.11524 0.29077 0.89027 0.0
N267 N 0.08301 0.26705 0.9216 0.0
C268 C 0.09844 0.28841 0.91595 0.0
H269 H 0.08256 0.23798 0.89767 0.0
Co270 Co 0.05846 0.25304 0.95793 0.0
C271 C 0.06041 0.29488 0.98995 0.0
O272 O 0.04451 0.2919 0.96314 0.0
N273 N 0.03365 0.23814 0.99398 0.0
C274 C 0.01105 0.2276 0.05147 0.0
C275 C 0.03186 0.24224 0.03674 0.0
C276 C 0.01382 0.22068 0.9836 0.0
N277 N 0.99965 0.21401 0.01806 0.0
O278 O 0.04115 0.25818 0.91387 0.0
H279 H 0.0449 0.25499 0.05613 0.0
H280 H 0.00974 0.21325 0.95121 0.0
O281 O 0.06708 0.28097 0.99006 0.0
C282 C 0.03645 0.2459 0.87976 0.0
O283 O 0.0426 0.23108 0.87857 0.0
N284 N 0.07525 0.24664 0.99729 0.0
C285 C 0.10613 0.23629 0.03059 0.0
C286 C 0.1099 0.25792 0.03212 0.0
C287 C 0.09433 0.26276 0.01538 0.0
C288 C 0.07058 0.22532 0.99787 0.0
C289 C 0.08574 0.21974 0.01459 0.0
H290 H 0.09869 0.27982 0.01351 0.0
H291 H 0.05571 0.21278 0.98241 0.0
H292 H 0.09774 0.30188 0.93155 0.0
H293 H 0.12041 0.26572 0.86046 0.0
H294 H 1.00484 0.22689 0.08447 0.0
H295 H 0.12545 0.27142 0.04314 0.0
H296 H 0.08185 0.20276 0.01321 0.0
C297 C 0.83228 0.74744 0.64144 0.0
C298 C 0.835 0.73171 0.6624 0.0
N299 N 0.822 0.71225 0.64276 0.0
N300 N 0.81742 0.7381 0.60891 0.0
C301 C 0.81136 0.71653 0.61042 0.0
H302 H 0.84179 0.76492 0.64753 0.0
Co303 Co 0.81289 0.75591 0.56983 0.0
C304 C 0.79236 0.72652 0.49008 0.0
O305 O 0.80734 0.74221 0.46546 0.0
N306 N 0.80918 0.77581 0.5317 0.0
C307 C 0.81486 0.80103 0.48035 0.0
C308 C 0.81939 0.78496 0.49308 0.0
C309 C 0.79875 0.78717 0.54168 0.0
N310 N 0.80204 0.80271 0.51122 0.0
O311 O 0.78835 0.75201 0.60683 0.0
H312 H 0.83064 0.78135 0.47587 0.0
H313 H 0.78992 0.78511 0.572 0.0
O314 O 0.79234 0.72958 0.53203 0.0
C315 C 0.79466 0.76429 0.64112 0.0
O316 O 0.81549 0.77917 0.64483 0.0
N317 N 0.83838 0.76047 0.53882 0.0
C318 C 0.87999 0.76747 0.51438 0.0
C319 C 0.86118 0.74652 0.51157 0.0
C320 C 0.84071 0.74335 0.52416 0.0
C321 C 0.85645 0.78094 0.54229 0.0
C322 C 0.87729 0.78489 0.52949 0.0
H323 H 0.82704 0.72674 0.52466 0.0
H324 H 0.85481 0.79417 0.55647 0.0
H325 H 0.80041 0.7045 0.58682 0.0
H326 H 0.84697 0.73472 0.68782 0.0
H327 H 0.82122 0.81114 0.45109 0.0
H328 H 0.8623 0.73227 0.50199 0.0
H329 H 0.89118 0.80138 0.53243 0.0
C330 C 0.25302 0.08246 0.64395 0.0
C331 C 0.26748 0.10142 0.66535 0.0
N332 N 0.28779 0.10792 0.64997 0.0
N333 N 0.26413 0.077 0.61528 0.0
C334 C 0.28534 0.09271 0.61986 0.0
H335 H 0.23538 0.07355 0.64792 0.0
Co336 Co 0.24983 0.05363 0.5773 0.0
C337 C 0.28088 0.06338 0.5016 0.0
O338 O 0.26407 0.05725 0.475 0.0
N339 N 0.2341 0.02884 0.54111 0.0
C340 C 0.22474 0.99638 0.51092 0.0
C341 C 0.2419 0.01615 0.52476 0.0
C342 C 0.212 0.01593 0.53818 0.0
N343 N 0.206 0.99635 0.51921 0.0
O344 O 0.25571 0.03564 0.61751 0.0
H345 H 0.25881 0.02006 0.52657 0.0
H346 H 0.20044 0.01963 0.55378 0.0
O347 O 0.27771 0.06249 0.54361 0.0
C348 C 0.24187 0.02766 0.64915 0.0
O349 O 0.2252 0.03113 0.6496 0.0
N350 N 0.24324 0.07208 0.54153 0.0
C351 C 0.23547 0.1068 0.52339 0.0
C352 C 0.25622 0.10926 0.51675 0.0
C353 C 0.25984 0.09193 0.52645 0.0
C354 C 0.22256 0.06906 0.54566 0.0
C355 C 0.21825 0.08616 0.53629 0.0
H356 H 0.27669 0.09581 0.52711 0.0
H357 H 0.20986 0.05444 0.5614 0.0
H358 H 0.29856 0.09361 0.60004 0.0
H359 H 0.26331 0.10993 0.68983 0.0
H360 H 0.2258 0.98242 0.49899 0.0
H361 H 0.27006 0.12517 0.50809 0.0
H362 H 0.20215 0.08388 0.54323 0.0
C363 C 0.92633 0.17413 0.65184 0.0
C364 C 0.90674 0.16827 0.67173 0.0
N365 N 0.89742 0.17823 0.65016 0.0
N366 N 0.92969 0.188 0.61808 0.0
C367 C 0.91178 0.1904 0.61797 0.0
H368 H 0.93664 0.16725 0.65946 0.0
Co369 Co 0.95258 0.1943 0.57955 0.0
C370 C 0.94499 0.21503 0.49882 0.0
O371 O 0.94888 0.20178 0.47522 0.0
N372 N 0.97697 0.19956 0.54213 0.0
C373 C 0.99763 0.19391 0.49376 0.0
C374 C 0.97671 0.18846 0.50541 0.0
C375 C 0.99871 0.2115 0.55209 0.0
N376 N 0.0116 0.20814 0.52364 0.0
O377 O 0.97201 0.21924 0.61734 0.0
H378 H 0.96223 0.17614 0.48865 0.0
H379 H 1.00503 0.22142 0.58125 0.0
O380 O 0.94542 0.21395 0.5413 0.0
C381 C 0.97962 0.21372 0.65035 0.0
O382 O 0.97635 0.19362 0.65211 0.0
N383 N 0.93296 0.1685 0.54806 0.0
C384 C 0.90053 0.12609 0.52366 0.0
C385 C 0.89728 0.14403 0.51772 0.0
C386 C 0.91367 0.1651 0.53014 0.0
C387 C 0.93625 0.1511 0.55438 0.0
C388 C 0.92049 0.12984 0.54138 0.0
H389 H 0.91009 0.17831 0.52796 0.0
H390 H 0.95093 0.15365 0.57104 0.0
H391 H 0.90845 0.19929 0.59279 0.0
H392 H 0.89939 0.15665 0.69863 0.0
H393 H 1.00195 0.18709 0.46616 0.0
H394 H 0.88189 0.14166 0.50486 0.0
H395 H 0.92337 0.11628 0.54736 0.0
C396 C 0.92308 0.50172 0.47035 0.0
C397 C 0.93793 0.49733 0.49049 0.0
N398 N 0.9583 0.51356 0.48004 0.0
N399 N 0.93399 0.52062 0.44731 0.0
C400 C 0.95543 0.52758 0.45406 0.0
H401 H 0.9054 0.49158 0.47167 0.0
Co402 Co 0.92021 0.53195 0.41287 0.0
C403 C 0.95172 0.55406 0.33782 0.0
O404 O 0.93498 0.54402 0.3108 0.0
N405 N 0.90554 0.54364 0.38002 0.0
C406 C 0.8993 0.56936 0.35215 0.0
C407 C 0.91508 0.56455 0.36504 0.0
C408 C 0.88371 0.53647 0.3776 0.0
N409 N 0.87941 0.55171 0.36006 0.0
O410 O 0.92704 0.55451 0.45716 0.0
H411 H 0.9324 0.57642 0.3669 0.0
H412 H 0.87127 0.52109 0.39153 0.0
O413 O 0.94834 0.55114 0.37971 0.0
C414 C 0.91379 0.54655 0.48982 0.0
O415 O 0.89795 0.52595 0.48794 0.0
N416 N 0.91216 0.50792 0.37323 0.0
C417 C 0.90038 0.46495 0.34796 0.0
C418 C 0.92219 0.48202 0.3452 0.0
C419 C 0.92776 0.50329 0.35808 0.0
C420 C 0.89065 0.49159 0.374 0.0
C421 C 0.88435 0.47008 0.36077 0.0
H422 H 0.94499 0.51519 0.36074 0.0
H423 H 0.87853 0.49434 0.3897 0.0
H424 H 0.96865 0.54221 0.43901 0.0
H425 H 0.93396 0.48322 0.51112 0.0
H426 H 0.90243 0.58535 0.34121 0.0
H427 H 0.9351 0.47862 0.33626 0.0
H428 H 0.8674 0.45719 0.36453 0.0
C429 C 0.5059 0.41809 0.47825 0.0
C430 C 0.51338 0.4379 0.49874 0.0
N431 N 0.50192 0.4471 0.48332 0.0
N432 N 0.48955 0.41449 0.45028 0.0
C433 C 0.48738 0.43249 0.45419 0.0
H434 H 0.51292 0.40754 0.4815 0.0
Co435 Co 0.47919 0.39108 0.41109 0.0
C436 C 0.44661 0.39509 0.35005 0.0
O437 O 0.43491 0.37377 0.3436 0.0
N438 N 0.47004 0.36695 0.37314 0.0
C439 C 0.46715 0.34547 0.31659 0.0
C440 C 0.47209 0.36638 0.32894 0.0
C441 C 0.46405 0.34633 0.38676 0.0
N442 N 0.46212 0.33289 0.35316 0.0
O443 O 0.4538 0.37387 0.44938 0.0
H444 H 0.47776 0.38049 0.30734 0.0
H445 H 0.46256 0.34156 0.42103 0.0
O446 O 0.46314 0.40284 0.37628 0.0
C447 C 0.45855 0.3667 0.48409 0.0
O448 O 0.47856 0.37015 0.48861 0.0
N449 N 0.50484 0.40779 0.37746 0.0
C450 C 0.54885 0.4379 0.35842 0.0
C451 C 0.53235 0.44312 0.34998 0.0
C452 C 0.51044 0.42786 0.35976 0.0
C453 C 0.52031 0.40172 0.38248 0.0
C454 C 0.54239 0.41646 0.37291 0.0
H455 H 0.49849 0.43314 0.357 0.0
H456 H 0.51578 0.38601 0.3975 0.0
H457 H 0.47651 0.43552 0.43407 0.0
H458 H 0.52678 0.4453 0.52206 0.0
H459 H 0.46774 0.34012 0.28342 0.0
H460 H 0.53644 0.45947 0.33932 0.0
H461 H 0.55442 0.41148 0.37917 0.0
C462 C 0.60114 0.07715 0.47737 0.0
C463 C 0.58223 0.06121 0.49663 0.0
N464 N 0.57076 0.04563 0.46635 0.0
N465 N 0.60197 0.07175 0.43507 0.0
C466 C 0.58317 0.05238 0.42919 0.0
H467 H 0.61276 0.09247 0.49269 0.0
Co468 Co 0.62319 0.09167 0.39633 0.0
C469 C 0.62075 0.06649 0.31266 0.0
O470 O 0.63014 0.08504 0.29052 0.0
N471 N 0.64561 0.11375 0.35872 0.0
C472 C 0.66349 0.14473 0.31896 0.0
C473 C 0.64326 0.12746 0.33053 0.0
C474 C 0.6678 0.123 0.3622 0.0
N475 N 0.67893 0.14204 0.33926 0.0
O476 O 0.64518 0.08852 0.42954 0.0
H477 H 0.62788 0.12584 0.32006 0.0
H478 H 0.67586 0.11689 0.38348 0.0
O479 O 0.61766 0.06682 0.35451 0.0
C480 C 0.6538 0.10349 0.45909 0.0
O481 O 0.64928 0.11951 0.45867 0.0
N482 N 0.60107 0.09563 0.36992 0.0
C483 C 0.56488 0.1008 0.3516 0.0
C484 C 0.56704 0.08388 0.33199 0.0
C485 C 0.58499 0.08133 0.34216 0.0
C486 C 0.59958 0.11254 0.38842 0.0
C487 C 0.58175 0.11555 0.37946 0.0
H488 H 0.58484 0.06693 0.32999 0.0
H489 H 0.61194 0.12324 0.41176 0.0
H490 H 0.57821 0.04399 0.39784 0.0
H491 H 0.57666 0.06197 0.52952 0.0
H492 H 0.66659 0.15865 0.29848 0.0
H493 H 0.55447 0.07205 0.31029 0.0
H494 H 0.58066 0.1286 0.39612 0.0
C495 C 0.84636 0.58755 0.70958 0.0
C496 C 0.84098 0.6018 0.68996 0.0
N497 N 0.84867 0.61995 0.71518 0.0
N498 N 0.85755 0.59655 0.747 0.0
C499 C 0.85882 0.61637 0.74954 0.0
H500 H 0.84104 0.57099 0.69873 0.0
Co501 Co 0.86314 0.58 0.78729 0.0
C502 C 0.88656 0.61034 0.86446 0.0
O503 O 0.87816 0.59346 0.89149 0.0
N504 N 0.8679 0.56131 0.82719 0.0
C505 C 0.85998 0.53382 0.87461 0.0
C506 C 0.85481 0.54938 0.86128 0.0
C507 C 0.88138 0.55277 0.82167 0.0
N508 N 0.87659 0.53586 0.84948 0.0
O509 O 0.88783 0.58442 0.7507 0.0
H510 H 0.84158 0.55106 0.87506 0.0
H511 H 0.89357 0.55769 0.79594 0.0
O512 O 0.88236 0.6071 0.82293 0.0
C513 C 0.8818 0.56913 0.72201 0.0
O514 O 0.86186 0.5521 0.72471 0.0
N515 N 0.83747 0.57469 0.81761 0.0
C516 C 0.79495 0.5657 0.83854 0.0
C517 C 0.81342 0.58557 0.85136 0.0
C518 C 0.83452 0.58986 0.8402 0.0
C519 C 0.81975 0.55511 0.80582 0.0
C520 C 0.79843 0.55016 0.81643 0.0
H521 H 0.84811 0.60601 0.84701 0.0
H522 H 0.8222 0.54359 0.78643 0.0
H523 H 0.86605 0.62741 0.77714 0.0
H524 H 0.83085 0.59826 0.66092 0.0
H525 H 0.85162 0.52139 0.89977 0.0
H526 H 0.81158 0.59831 0.86743 0.0
H527 H 0.78477 0.53452 0.80612 0.0
C528 C 0.41888 0.25185 0.71863 0.0
C529 C 0.40452 0.23226 0.69904 0.0
N530 N 0.38425 0.22575 0.71462 0.0
N531 N 0.40773 0.2577 0.74636 0.0
C532 C 0.38662 0.24154 0.74314 0.0
H533 H 0.43645 0.26108 0.71368 0.0
Co534 Co 0.4214 0.2824 0.7813 0.0
C535 C 0.39098 0.2731 0.85834 0.0
O536 O 0.40814 0.28122 0.88452 0.0
N537 N 0.43616 0.30836 0.81475 0.0
C538 C 0.44343 0.34139 0.83826 0.0
C539 C 0.42717 0.32072 0.82642 0.0
C540 C 0.45806 0.32215 0.8193 0.0
N541 N 0.4628 0.34221 0.83384 0.0
O542 O 0.41324 0.29816 0.73968 0.0
H543 H 0.41003 0.31576 0.8226 0.0
H544 H 0.47046 0.31858 0.80788 0.0
O545 O 0.39382 0.27257 0.81651 0.0
C546 C 0.42631 0.3054 0.70668 0.0
O547 O 0.44299 0.30195 0.70542 0.0
N548 N 0.4308 0.26671 0.81802 0.0
C549 C 0.44518 0.23726 0.84255 0.0
C550 C 0.42389 0.23286 0.85283 0.0
C551 C 0.41687 0.24747 0.83944 0.0
C552 C 0.45169 0.27148 0.80879 0.0
C553 C 0.45924 0.25721 0.82096 0.0
H554 H 0.39967 0.24207 0.84289 0.0
H555 H 0.46187 0.28516 0.78743 0.0
H556 H 0.37338 0.24097 0.76233 0.0
H557 H 0.40873 0.22348 0.67527 0.0
H558 H 0.44134 0.35524 0.8465 0.0
H559 H 0.41227 0.2177 0.86914 0.0
H560 H 0.47549 0.26112 0.81035 0.0
C561 C 0.75442 0.17542 0.6966 0.0
C562 C 0.77414 0.18306 0.67557 0.0
N563 N 0.78412 0.17266 0.69272 0.0
N564 N 0.75171 0.16006 0.72666 0.0
C565 C 0.77015 0.15871 0.72359 0.0
H566 H 0.74337 0.18174 0.69207 0.0
Co567 Co 0.72878 0.14935 0.76706 0.0
C568 C 0.73094 0.11395 0.82118 0.0
O569 O 0.70952 0.10231 0.82559 0.0
N570 N 0.70534 0.1398 0.80693 0.0
C571 C 0.68524 0.1341 0.8674 0.0
C572 C 0.70585 0.14019 0.85144 0.0
C573 C 0.68437 0.13382 0.79673 0.0
N574 N 0.6717 0.13015 0.83287 0.0
O575 O 0.71088 0.12526 0.72659 0.0
H576 H 0.72036 0.14494 0.87108 0.0
H577 H 0.6787 0.13315 0.76339 0.0
O578 O 0.73957 0.13136 0.79715 0.0
C579 C 0.70286 0.13073 0.69436 0.0
O580 O 0.70497 0.15039 0.69424 0.0
N581 N 0.74661 0.17389 0.80295 0.0
C582 C 0.78123 0.21537 0.82516 0.0
C583 C 0.78105 0.19629 0.83928 0.0
C584 C 0.76358 0.17567 0.828 0.0
C585 C 0.74539 0.1922 0.79293 0.0
C586 C 0.76261 0.21323 0.80378 0.0
H587 H 0.76495 0.16153 0.83665 0.0
H588 H 0.73206 0.19063 0.7726 0.0
H589 H 0.77391 0.14883 0.74534 0.0
H590 H 0.7809 0.19576 0.65049 0.0
H591 H 0.68072 0.13292 0.90184 0.0
H592 H 0.79506 0.19732 0.85637 0.0
H593 H 0.76218 0.22762 0.79225 0.0
C594 C 0.42183 0.173 0.22388 0.0
C595 C 0.40735 0.17837 0.20533 0.0
N596 N 0.38691 0.16324 0.21814 0.0
N597 N 0.4106 0.15459 0.24831 0.0
C598 C 0.38935 0.14887 0.24384 0.0
H599 H 0.43953 0.18243 0.2214 0.0
Co600 Co 0.42396 0.14313 0.28346 0.0
C601 C 0.39281 0.12355 0.36002 0.0
O602 O 0.40965 0.13406 0.38663 0.0
N603 N 0.43833 0.13139 0.31704 0.0
C604 C 0.44455 0.10649 0.34924 0.0
C605 C 0.42883 0.11156 0.33732 0.0
C606 C 0.4599 0.13746 0.31529 0.0
N607 N 0.46416 0.12268 0.33501 0.0
O608 O 0.41592 0.11961 0.24104 0.0
H609 H 0.41139 0.10037 0.34011 0.0
H610 H 0.47192 0.15126 0.29618 0.0
O611 O 0.39606 0.12534 0.31802 0.0
C612 C 0.42915 0.12665 0.20825 0.0
O613 O 0.44562 0.14697 0.20917 0.0
N614 N 0.43327 0.16805 0.32107 0.0
C615 C 0.44728 0.21242 0.33929 0.0
C616 C 0.42532 0.19605 0.34545 0.0
C617 C 0.41861 0.1741 0.33579 0.0
C618 C 0.45498 0.18357 0.31815 0.0
C619 C 0.46235 0.20572 0.3275 0.0
H620 H 0.4012 0.16267 0.33493 0.0
H621 H 0.46642 0.17948 0.30357 0.0
H622 H 0.37599 0.13481 0.26006 0.0
H623 H 0.41168 0.19291 0.18581 0.0
H624 H 0.44152 0.09141 0.36519 0.0
H625 H 0.41293 0.20034 0.35344 0.0
H626 H 0.47952 0.2177 0.32245 0.0
C627 C 0.84658 0.25996 0.22986 0.0
C628 C 0.84044 0.24022 0.20981 0.0
N629 N 0.85144 0.23131 0.22909 0.0
N630 N 0.86126 0.26345 0.26175 0.0
C631 C 0.86408 0.24582 0.2604 0.0
H632 H 0.84073 0.27116 0.22186 0.0
Co633 Co 0.87287 0.28824 0.29638 0.0
C634 C 0.88892 0.27761 0.37897 0.0
O635 O 0.87907 0.28681 0.39935 0.0
N636 N 0.88505 0.31466 0.3296 0.0
C637 C 0.91187 0.3456 0.35851 0.0
C638 C 0.90612 0.32506 0.34337 0.0
C639 C 0.8786 0.3298 0.33551 0.0
N640 N 0.89465 0.34876 0.35342 0.0
O641 O 0.89765 0.30205 0.25542 0.0
H642 H 0.91719 0.31867 0.33995 0.0
H643 H 0.86303 0.32758 0.32458 0.0
O644 O 0.88831 0.27676 0.33637 0.0
C645 C 0.89825 0.31698 0.23004 0.0
O646 O 0.88476 0.32437 0.23801 0.0
N647 N 0.8466 0.27391 0.33077 0.0
C648 C 0.80154 0.24472 0.34667 0.0
C649 C 0.81752 0.23955 0.35998 0.0
C650 C 0.83969 0.25392 0.35057 0.0
C651 C 0.83144 0.27981 0.31985 0.0
C652 C 0.80896 0.26558 0.32752 0.0
H653 H 0.85069 0.2476 0.35517 0.0
H654 H 0.83638 0.29442 0.3003 0.0
H655 H 0.87487 0.24349 0.28232 0.0
H656 H 0.82905 0.23316 0.18264 0.0
H657 H 0.92807 0.35787 0.36951 0.0
H658 H 0.81296 0.22388 0.37519 0.0
H659 H 0.79749 0.27032 0.31525 0.0
C660 C 0.75306 0.58915 0.20047 0.0
C661 C 0.77072 0.60356 0.1756 0.0
N662 N 0.77705 0.62404 0.1895 0.0
N663 N 0.748 0.60045 0.22954 0.0
C664 C 0.76309 0.62178 0.22239 0.0
H665 H 0.74488 0.57141 0.19863 0.0
Co666 Co 0.72544 0.58577 0.26992 0.0
C667 C 0.72634 0.62092 0.33173 0.0
O668 O 0.70539 0.60931 0.34165 0.0
N669 N 0.70223 0.56937 0.30928 0.0
C670 C 0.68218 0.55064 0.36745 0.0
C671 C 0.70262 0.56688 0.3534 0.0
C672 C 0.68154 0.55432 0.29738 0.0
N673 N 0.66893 0.54274 0.33201 0.0
O674 O 0.70609 0.59086 0.23139 0.0
H675 H 0.71698 0.57587 0.37388 0.0
H676 H 0.67604 0.55103 0.26358 0.0
O677 O 0.73463 0.61355 0.30339 0.0
C678 C 0.69994 0.57835 0.19745 0.0
O679 O 0.70505 0.56279 0.19484 0.0
N680 N 0.74457 0.58001 0.30359 0.0
C681 C 0.77866 0.5722 0.32505 0.0
C682 C 0.78079 0.59289 0.3321 0.0
C683 C 0.76362 0.59652 0.32108 0.0
C684 C 0.74152 0.5593 0.29979 0.0
C685 C 0.75838 0.55496 0.31063 0.0
H686 H 0.76669 0.61316 0.32293 0.0
H687 H 0.72665 0.54652 0.28475 0.0
H688 H 0.76419 0.63531 0.24134 0.0
H689 H 0.77905 0.59928 0.15088 0.0
H690 H 0.67756 0.54494 0.40105 0.0
H691 H 0.79621 0.60661 0.34322 0.0
H692 H 0.75618 0.5388 0.30437 0.0
C693 C 0.49375 0.08615 0.99853 0.0
C694 C 0.50028 0.07345 0.02082 0.0
N695 N 0.49656 0.05641 0.99493 0.0
N696 N 0.48572 0.0772 0.95872 0.0
C697 C 0.48748 0.05887 0.95754 0.0
H698 H 0.49615 0.10178 1.00972 0.0
Co699 Co 0.48051 0.0931 0.91599 0.0
C700 C 0.45975 0.06279 0.83768 0.0
O701 O 0.46926 0.07986 0.81125 0.0
N702 N 0.47612 0.11127 0.87386 0.0
C703 C 0.4851 0.13921 0.82697 0.0
C704 C 0.49025 0.12382 0.84155 0.0
C705 C 0.46202 0.11921 0.87676 0.0
N706 N 0.46746 0.13642 0.8494 0.0
O707 O 0.4547 0.08798 0.94944 0.0
H708 H 0.50427 0.12282 0.83023 0.0
H709 H 0.44894 0.11379 0.90066 0.0
O710 O 0.46271 0.0657 0.87964 0.0
C711 C 0.4595 0.10381 0.97628 0.0
O712 O 0.47889 0.12162 0.9731 0.0
N713 N 0.50722 0.09933 0.88924 0.0
C714 C 0.55098 0.11049 0.8755 0.0
C715 C 0.53363 0.0905 0.85975 0.0
C716 C 0.51182 0.08512 0.86725 0.0
C717 C 0.52386 0.11906 0.90351 0.0
C718 C 0.54575 0.1251 0.89642 0.0
H719 H 0.49892 0.06893 0.85816 0.0
H720 H 0.52003 0.12983 0.92217 0.0
H721 H 0.48376 0.04849 0.92879 0.0
H722 H 0.50799 0.07696 0.05295 0.0
H723 H 0.49431 0.15221 0.8033 0.0
H724 H 0.53681 0.0785 0.84422 0.0
H725 H 0.55848 0.14085 0.90865 0.0
C726 C 0.9306 0.42029 0.99256 0.0
C727 C 0.94484 0.44013 1.01171 0.0
N728 N 0.96375 0.4494 0.98855 0.0
N729 N 0.94048 0.41717 0.95753 0.0
C730 C 0.96067 0.43511 0.9559 0.0
H731 H 0.91409 0.40878 1.0034 0.0
Co732 Co 0.92702 0.39267 0.92247 0.0
C733 C 0.95698 0.40244 0.84415 0.0
O734 O 0.93953 0.39354 0.81874 0.0
N735 N 0.91258 0.36683 0.88833 0.0
C736 C 0.90555 0.3345 0.86156 0.0
C737 C 0.92158 0.3545 0.87699 0.0
C738 C 0.89089 0.35371 0.87988 0.0
N739 N 0.88607 0.33381 0.86361 0.0
O740 O 0.93628 0.37775 0.96459 0.0
H741 H 0.93853 0.35914 0.88261 0.0
H742 H 0.87867 0.35807 0.88822 0.0
O743 O 0.9545 0.40317 0.88612 0.0
C744 C 0.9216 0.3623 0.98851 0.0
O745 O 0.90085 0.35453 0.97872 0.0
N746 N 0.91672 0.40791 0.88672 0.0
C747 C 0.90094 0.43637 0.86298 0.0
C748 C 0.92192 0.44073 0.84991 0.0
C749 C 0.92969 0.42668 0.86304 0.0
C750 C 0.89617 0.40321 0.89895 0.0
C751 C 0.88795 0.417 0.88729 0.0
H752 H 0.94676 0.43221 0.8572 0.0
H753 H 0.88685 0.38984 0.92169 0.0
H754 H 0.97275 0.43788 0.93088 0.0
H755 H 0.94164 0.44702 0.04078 0.0
H756 H 0.90802 0.32097 0.85278 0.0
H757 H 0.93277 0.45544 0.83143 0.0
H758 H 0.87206 0.41315 0.90008 0.0
C759 C 0.58905 0.50392 0.9661 0.0
C760 C 0.56982 0.4989 0.98706 0.0
N761 N 0.56333 0.51288 0.97251 0.0
N762 N 0.59484 0.52109 0.93864 0.0
C763 C 0.57896 0.52633 0.94351 0.0
H764 H 0.59746 0.49462 0.96832 0.0
Co765 Co 0.61711 0.52946 0.89741 0.0
C766 C 0.6161 0.56491 0.84021 0.0
O767 O 0.63742 0.57573 0.83376 0.0
N768 N 0.6397 0.53672 0.85663 0.0
C769 C 0.65785 0.53962 0.79471 0.0
C770 C 0.6383 0.53603 0.81224 0.0
C771 C 0.66011 0.54034 0.86529 0.0
N772 N 0.67158 0.54219 0.82811 0.0
O773 O 0.63671 0.5539 0.93534 0.0
H774 H 0.62377 0.53253 0.79377 0.0
H775 H 0.666 0.54043 0.89826 0.0
O776 O 0.60743 0.54793 0.8654 0.0
C777 C 0.64335 0.54788 0.96904 0.0
O778 O 0.63809 0.52718 0.97262 0.0
N779 N 0.59786 0.50468 0.8637 0.0
C780 C 0.56546 0.46324 0.83398 0.0
C781 C 0.56226 0.48143 0.83231 0.0
C782 C 0.57856 0.50192 0.84729 0.0
C783 C 0.60175 0.48752 0.86401 0.0
C784 C 0.58583 0.46666 0.84908 0.0
H785 H 0.57479 0.51503 0.84852 0.0
H786 H 0.61685 0.48974 0.8781 0.0
H787 H 0.57825 0.53898 0.92452 0.0
H788 H 0.56054 0.48499 1.00875 0.0
H789 H 0.66144 0.53991 0.75993 0.0
H790 H 0.54673 0.47967 0.8221 0.0
H791 H 0.5892 0.45324 0.85067 0.0
C792 C 0.59617 0.85207 0.82173 0.0
C793 C 0.61086 0.84942 0.84663 0.0
N794 N 0.63024 0.85909 0.82536 0.0
N795 N 0.60613 0.86364 0.785 0.0
C796 C 0.627 0.86765 0.7879 0.0
H797 H 0.5789 0.84497 0.82897 0.0
Co798 Co 0.58916 0.8677 0.74322 0.0
C799 C 0.61791 0.88612 0.66269 0.0
O800 O 0.60152 0.87112 0.6396 0.0
N801 N 0.56995 0.87102 0.70241 0.0
C802 C 0.54271 0.86231 0.65427 0.0
C803 C 0.55853 0.85771 0.66832 0.0
C804 C 0.56079 0.88399 0.70728 0.0
N805 N 0.54406 0.87876 0.67898 0.0
O806 O 0.59336 0.89309 0.77712 0.0
H807 H 0.5606 0.84458 0.65523 0.0
H808 H 0.5651 0.89612 0.73289 0.0
O809 O 0.61566 0.88696 0.70477 0.0
C810 C 0.57897 0.88772 0.80764 0.0
O811 O 0.56193 0.86773 0.80784 0.0
N812 N 0.58435 0.8413 0.71609 0.0
C813 C 0.57718 0.79883 0.70125 0.0
C814 C 0.59776 0.81739 0.69317 0.0
C815 C 0.60109 0.8384 0.70129 0.0
C816 C 0.56415 0.82338 0.72392 0.0
C817 C 0.56006 0.80201 0.71574 0.0
H818 H 0.6176 0.85208 0.69878 0.0
H819 H 0.55139 0.82565 0.7385 0.0
H820 H 0.6393 0.87593 0.76253 0.0
H821 H 0.60719 0.83991 0.87677 0.0
H822 H 0.53054 0.85362 0.62902 0.0
H823 H 0.61152 0.81562 0.68272 0.0
H824 H 0.54408 0.78808 0.72344 0.0
C825 C 0.18053 0.7531 0.81192 0.0
C826 C 0.18738 0.7719 0.83614 0.0
N827 N 0.17714 0.78239 0.82064 0.0
N828 N 0.16602 0.75165 0.78131 0.0
C829 C 0.16421 0.76974 0.78731 0.0
H830 H 0.18562 0.74102 0.81644 0.0
Co831 Co 0.15278 0.72733 0.74503 0.0
C832 C 0.13212 0.73845 0.67058 0.0
O833 O 0.14102 0.73008 0.64458 0.0
N834 N 0.1391 0.70122 0.71065 0.0
C835 C 0.11112 0.67042 0.68389 0.0
C836 C 0.11757 0.69093 0.70015 0.0
C837 C 0.14511 0.68595 0.70188 0.0
N838 N 0.12835 0.66709 0.68512 0.0
O839 O 0.12993 0.71323 0.78952 0.0
H840 H 0.10668 0.69726 0.70693 0.0
H841 H 0.16093 0.68797 0.71025 0.0
O842 O 0.1353 0.73881 0.71262 0.0
C843 C 0.12872 0.6975 0.81296 0.0
O844 O 0.14048 0.68852 0.80163 0.0
N845 N 0.1771 0.74235 0.70551 0.0
C846 C 0.21956 0.77183 0.67373 0.0
C847 C 0.20279 0.77698 0.67168 0.0
C848 C 0.18208 0.76246 0.68868 0.0
C849 C 0.19312 0.73676 0.70692 0.0
C850 C 0.21446 0.75124 0.6912 0.0
H851 H 0.17095 0.76869 0.69205 0.0
H852 H 0.19005 0.72197 0.72395 0.0
H853 H 0.15341 0.77338 0.76828 0.0
H854 H 0.19916 0.77754 0.86282 0.0
H855 H 0.09451 0.65824 0.67498 0.0
H856 H 0.20612 0.79302 0.66042 0.0
H857 H 0.22706 0.74677 0.69441 0.0
C858 C 0.25564 0.42269 0.80267 0.0
C859 C 0.23601 0.40832 0.82222 0.0
N860 N 0.23074 0.3877 0.81099 0.0
N861 N 0.26296 0.41132 0.77938 0.0
C862 C 0.24743 0.38999 0.78508 0.0
H863 H 0.26354 0.44044 0.80332 0.0
Co864 Co 0.28723 0.42547 0.7421 0.0
C865 C 0.282 0.38136 0.7165 0.0
O866 O 0.29251 0.38093 0.75191 0.0
N867 N 0.31161 0.44043 0.70509 0.0
C868 C 0.33371 0.45032 0.64684 0.0
C869 C 0.31301 0.43591 0.66239 0.0
C870 C 0.33155 0.45792 0.71459 0.0
N871 N 0.3454 0.46418 0.67964 0.0
O872 O 0.30527 0.42093 0.78528 0.0
H873 H 0.29982 0.42295 0.64366 0.0
H874 H 0.33598 0.46558 0.74675 0.0
O875 O 0.27905 0.39769 0.71017 0.0
C876 C 0.30972 0.43253 0.82034 0.0
O877 O 0.30288 0.44675 0.82368 0.0
N878 N 0.26982 0.43123 0.70333 0.0
C879 C 0.23815 0.4406 0.67066 0.0
C880 C 0.23483 0.41913 0.66928 0.0
C881 C 0.2508 0.41479 0.6857 0.0
C882 C 0.27403 0.45241 0.70258 0.0
C883 C 0.25848 0.45749 0.68617 0.0
H884 H 0.24681 0.39784 0.6877 0.0
H885 H 0.28888 0.46521 0.71764 0.0
H886 H 0.24787 0.37646 0.7692 0.0
H887 H 0.2258 0.41286 0.84099 0.0
H888 H 0.33971 0.45066 0.61378 0.0
H889 H 0.21936 0.40539 0.65861 0.0
H890 H 0.26201 0.47436 0.6874 0.0
C891 C 0.51627 0.9248 0.03502 0.0
C892 C 0.5093 0.93688 0.01198 0.0
N893 N 0.51623 0.95608 0.03309 0.0
N894 N 0.52808 0.9363 0.07023 0.0
C895 C 0.52784 0.95545 0.06823 0.0
H896 H 0.51166 0.908 0.02783 0.0
Co897 Co 0.53647 0.92255 0.11229 0.0
C898 C 0.57492 0.95809 0.15988 0.0
O899 O 0.58519 0.94717 0.1518 0.0
N900 N 0.54377 0.90713 0.15378 0.0
C901 C 0.54757 0.89298 0.21673 0.0
C902 C 0.54425 0.90901 0.19814 0.0
C903 C 0.54675 0.88976 0.14639 0.0
N904 N 0.5491 0.88082 0.18407 0.0
O905 O 0.56055 0.9269 0.07333 0.0
H906 H 0.54169 0.92087 0.21593 0.0
H907 H 0.54616 0.88299 0.11421 0.0
O908 O 0.55566 0.95091 0.14384 0.0
C909 C 0.55563 0.91201 0.04409 0.0
O910 O 0.53616 0.89427 0.04526 0.0
N911 N 0.51188 0.91733 0.14661 0.0
C912 C 0.47069 0.90843 0.17821 0.0
C913 C 0.48927 0.92956 0.18169 0.0
C914 C 0.50964 0.93365 0.16596 0.0
C915 C 0.49435 0.89652 0.14429 0.0
C916 C 0.47366 0.89166 0.16016 0.0
H917 H 0.52316 0.95033 0.16703 0.0
H918 H 0.49621 0.8838 0.12819 0.0
H919 H 0.53472 0.96797 0.09348 0.0
H920 H 0.49916 0.93149 0.98274 0.0
H921 H 0.54848 0.89033 0.25166 0.0
H922 H 0.488 0.94329 0.1943 0.0
H923 H 0.46006 0.875 0.15725 0.0
C924 C 0.09234 0.59611 0.05394 0.0
C925 C 0.07787 0.57696 0.0329 0.0
N926 N 0.05831 0.56835 0.05357 0.0
N927 N 0.08197 0.59951 0.08767 0.0
C928 C 0.06122 0.58245 0.08653 0.0
H929 H 0.10939 0.60691 0.04541 0.0
Co930 Co 0.09602 0.6234 0.12422 0.0
C931 C 0.06452 0.61524 0.19863 0.0
O932 O 0.08126 0.62266 0.22581 0.0
N933 N 0.1114 0.64885 0.15931 0.0
C934 C 0.12044 0.68226 0.18376 0.0
C935 C 0.10349 0.66222 0.1705 0.0
C936 C 0.13338 0.66143 0.1656 0.0
N937 N 0.13918 0.68171 0.18073 0.0
O938 O 0.0898 0.6401 0.08113 0.0
H939 H 0.08678 0.65847 0.1652 0.0
H940 H 0.14518 0.65694 0.15453 0.0
O941 O 0.06792 0.61489 0.15693 0.0
C942 C 0.10536 0.65458 0.05732 0.0
O943 O 0.12571 0.66058 0.06762 0.0
N944 N 0.10278 0.60581 0.16215 0.0
C945 C 0.11134 0.57249 0.19003 0.0
C946 C 0.09054 0.57028 0.19536 0.0
C947 C 0.08653 0.58677 0.18069 0.0
C948 C 0.12331 0.60852 0.15754 0.0
C949 C 0.12801 0.59223 0.17165 0.0
H950 H 0.06966 0.58276 0.18022 0.0
H951 H 0.13564 0.62234 0.13904 0.0
H952 H 0.04867 0.58008 0.11008 0.0
H953 H 0.08149 0.57002 1.00447 0.0
H954 H 0.11934 0.69672 0.19154 0.0
H955 H 0.0768 0.55507 0.2074 0.0
H956 H 0.14429 0.59469 0.16622 0.0
C957 C 0.4255 0.50709 0.05751 0.0
C958 C 0.44411 0.51022 0.03689 0.0
N959 N 0.44835 0.49449 0.05075 0.0
N960 N 0.41777 0.48938 0.0842 0.0
C961 C 0.43204 0.48194 0.07946 0.0
H962 H 0.41861 0.51779 0.05512 0.0
Co963 Co 0.39427 0.48271 0.12132 0.0
C964 C 0.40515 0.46223 0.19962 0.0
O965 O 0.40546 0.47729 0.22551 0.0
N966 N 0.36958 0.47681 0.15729 0.0
C967 C 0.34785 0.47834 0.20909 0.0
C968 C 0.36881 0.48316 0.19901 0.0
C969 C 0.34867 0.46866 0.14262 0.0
N970 N 0.33507 0.46939 0.17339 0.0
O971 O 0.37514 0.45838 0.08194 0.0
H972 H 0.38275 0.49265 0.21997 0.0
H973 H 0.34379 0.46368 0.10898 0.0
O974 O 0.4007 0.4622 0.15831 0.0
C975 C 0.3713 0.46468 0.04493 0.0
O976 O 0.37886 0.48575 0.03847 0.0
N977 N 0.41353 0.50801 0.15507 0.0
C978 C 0.44632 0.55037 0.1806 0.0
C979 C 0.45015 0.53259 0.18102 0.0
C980 C 0.43377 0.51175 0.16775 0.0
C981 C 0.40932 0.525 0.15493 0.0
C982 C 0.42536 0.54623 0.16803 0.0
H983 H 0.43799 0.49901 0.16478 0.0
H984 H 0.39382 0.52239 0.1423 0.0
H985 H 0.43103 0.46829 0.09804 0.0
H986 H 0.4545 0.52391 0.01552 0.0
H987 H 0.34282 0.48216 0.23997 0.0
H988 H 0.46619 0.53493 0.18881 0.0
H989 H 0.42157 0.55938 0.16694 0.0
C990 C 0.09445 0.51097 0.55675 0.0
C991 C 0.07974 0.51564 0.5367 0.0
N992 N 0.05938 0.5005 0.54989 0.0
N993 N 0.0834 0.49312 0.5827 0.0
C994 C 0.06206 0.48695 0.57758 0.0
H995 H 0.1121 0.52005 0.55302 0.0
Co996 Co 0.0967 0.48136 0.61665 0.0
C997 C 0.06659 0.46034 0.69407 0.0
O998 O 0.08405 0.4695 0.71945 0.0
N999 N 0.11088 0.46909 0.64943 0.0
C1000 C 0.1169 0.44228 0.67172 0.0
C1001 C 0.10121 0.44746 0.65973 0.0
C1002 C 0.13262 0.47662 0.65531 0.0
N1003 N 0.13661 0.46064 0.66892 0.0
O1004 O 0.08762 0.45799 0.57286 0.0
H1005 H 0.08402 0.43568 0.65491 0.0
H1006 H 0.1455 0.49266 0.6451 0.0
O1007 O 0.06901 0.46345 0.65204 0.0
C1008 C 0.10208 0.45716 0.54858 0.0
O1009 O 0.12292 0.47006 0.55785 0.0
N1010 N 0.1065 0.50614 0.655 0.0
C1011 C 0.12003 0.54964 0.68 0.0
C1012 C 0.09828 0.53285 0.686 0.0
C1013 C 0.09182 0.51134 0.67312 0.0
C1014 C 0.12793 0.52232 0.6501 0.0
C1015 C 0.13514 0.54405 0.66327 0.0
H1016 H 0.07447 0.49967 0.67314 0.0
H1017 H 0.13902 0.51919 0.63116 0.0
H1018 H 0.04877 0.47309 0.59447 0.0
H1019 H 0.08372 0.52901 0.51389 0.0
H1020 H 0.11421 0.426 0.67902 0.0
H1021 H 0.08599 0.53662 0.69774 0.0
H1022 H 0.15192 0.55671 0.65662 0.0
C1023 C 0.50387 0.58944 0.53991 0.0
C1024 C 0.49577 0.56947 0.5196 0.0
N1025 N 0.50715 0.56 0.53414 0.0
N1026 N 0.52037 0.59272 0.56706 0.0
C1027 C 0.52219 0.57456 0.56264 0.0
H1028 H 0.49749 0.60054 0.53655 0.0
Co1029 Co 0.53263 0.61692 0.60396 0.0
C1030 C 0.55289 0.60579 0.67862 0.0
O1031 O 0.54224 0.61236 0.7043 0.0
N1032 N 0.54496 0.64259 0.63892 0.0
C1033 C 0.57138 0.67404 0.66692 0.0
C1034 C 0.56608 0.65352 0.65233 0.0
C1035 C 0.5381 0.65739 0.64423 0.0
N1036 N 0.55382 0.67667 0.66173 0.0
O1037 O 0.55583 0.63293 0.56051 0.0
H1038 H 0.57764 0.64779 0.6482 0.0
H1039 H 0.52257 0.65479 0.6323 0.0
O1040 O 0.55097 0.60644 0.63636 0.0
C1041 C 0.55028 0.64207 0.53057 0.0
O1042 O 0.53106 0.64075 0.53361 0.0
N1043 N 0.50809 0.60064 0.64282 0.0
C1044 C 0.46542 0.57007 0.6719 0.0
C1045 C 0.48231 0.56505 0.6732 0.0
C1046 C 0.50323 0.58025 0.65787 0.0
C1047 C 0.49198 0.6061 0.64286 0.0
C1048 C 0.47065 0.59122 0.65787 0.0
H1049 H 0.51477 0.57452 0.65442 0.0
H1050 H 0.49481 0.62105 0.62707 0.0
H1051 H 0.53338 0.57151 0.58175 0.0
H1052 H 0.48223 0.56229 0.49656 0.0
H1053 H 0.5876 0.68665 0.67698 0.0
H1054 H 0.47907 0.54891 0.68345 0.0
H1055 H 0.45799 0.59562 0.65509 0.0
C1056 C 0.41736 0.92913 0.53209 0.0
C1057 C 0.4372 0.94234 0.51197 0.0
N1058 N 0.45006 0.95843 0.54028 0.0
N1059 N 0.41755 0.93686 0.57282 0.0
C1060 C 0.4377 0.95478 0.57695 0.0
H1061 H 0.40394 0.91427 0.51847 0.0
Co1062 Co 0.39456 0.92183 0.61211 0.0
C1063 C 0.40462 0.95197 0.69061 0.0
O1064 O 0.39736 0.93467 0.71651 0.0
N1065 N 0.37021 0.90547 0.64984 0.0
C1066 C 0.33748 0.89518 0.67965 0.0
C1067 C 0.35691 0.91272 0.66512 0.0
C1068 C 0.35821 0.88329 0.65498 0.0
N1069 N 0.33837 0.87671 0.67334 0.0
O1070 O 0.37614 0.92861 0.57473 0.0
H1071 H 0.36022 0.92946 0.66205 0.0
H1072 H 0.3628 0.87195 0.64141 0.0
O1073 O 0.40449 0.94934 0.64848 0.0
C1074 C 0.3638 0.9121 0.5504 0.0
O1075 O 0.36428 0.89378 0.55575 0.0
N1076 N 0.41249 0.91345 0.64379 0.0
C1077 C 0.4424 0.89926 0.66494 0.0
C1078 C 0.44564 0.91962 0.6799 0.0
C1079 C 0.4308 0.92661 0.66822 0.0
C1080 C 0.40901 0.89358 0.62941 0.0
C1081 C 0.42355 0.88615 0.63969 0.0
H1082 H 0.43517 0.94321 0.67639 0.0
H1083 H 0.39573 0.88413 0.60675 0.0
H1084 H 0.44338 0.96462 0.60657 0.0
H1085 H 0.44212 0.93964 0.47984 0.0
H1086 H 0.32314 0.89573 0.6907 0.0
H1087 H 0.45994 0.93051 0.69918 0.0
H1088 H 0.42057 0.87075 0.62558 0.0
C1089 C 0.17157 0.42372 0.30221 0.0
C1090 C 0.1787 0.41054 0.32058 0.0
N1091 N 0.16753 0.39045 0.30198 0.0
N1092 N 0.15606 0.41213 0.27197 0.0
C1093 C 0.15379 0.39187 0.27263 0.0
H1094 H 0.1776 0.44086 0.30965 0.0
Co1095 Co 0.14365 0.42502 0.23855 0.0
C1096 C 0.12236 0.39583 0.16074 0.0
O1097 O 0.13043 0.41396 0.13715 0.0
N1098 N 0.13095 0.43923 0.20657 0.0
C1099 C 0.10423 0.446 0.18784 0.0
C1100 C 0.10911 0.43001 0.19975 0.0
C1101 C 0.13893 0.46095 0.19823 0.0
N1102 N 0.12302 0.46541 0.18686 0.0
O1103 O 0.12056 0.41551 0.28303 0.0
H1104 H 0.09719 0.41301 0.20672 0.0
H1105 H 0.15553 0.47373 0.20464 0.0
O1106 O 0.12623 0.39727 0.20254 0.0
C1107 C 0.12116 0.43061 0.30765 0.0
O1108 O 0.13484 0.45125 0.29749 0.0
N1109 N 0.16831 0.43562 0.20032 0.0
C1110 C 0.2129 0.45056 0.18299 0.0
C1111 C 0.19657 0.42922 0.1711 0.0
C1112 C 0.17441 0.42205 0.18009 0.0
C1113 C 0.18389 0.45675 0.20966 0.0
C1114 C 0.206 0.46474 0.19986 0.0
H1115 H 0.16284 0.40478 0.17596 0.0
H1116 H 0.17983 0.46668 0.23031 0.0
H1117 H 0.1424 0.37853 0.25185 0.0
H1118 H 0.19158 0.41565 0.34491 0.0
H1119 H 0.088 0.44378 0.18304 0.0
H1120 H 0.20089 0.4174 0.15891 0.0
H1121 H 0.21777 0.48145 0.20922 0.0
C1122 C 0.59215 0.75224 0.31152 0.0
C1123 C 0.60522 0.77048 0.33628 0.0
N1124 N 0.62519 0.78117 0.31727 0.0
N1125 N 0.60376 0.75128 0.27713 0.0
C1126 C 0.62393 0.76915 0.2814 0.0
H1127 H 0.57496 0.74072 0.31738 0.0
Co1128 Co 0.5901 0.72922 0.23593 0.0
C1129 C 0.62142 0.74137 0.16004 0.0
O1130 O 0.60456 0.73707 0.13483 0.0
N1131 N 0.57485 0.70545 0.19645 0.0
C1132 C 0.56648 0.67336 0.16562 0.0
C1133 C 0.58322 0.69339 0.17942 0.0
C1134 C 0.55279 0.692 0.19316 0.0
N1135 N 0.54737 0.67252 0.17428 0.0
O1136 O 0.59496 0.7097 0.27449 0.0
H1137 H 0.60023 0.69767 0.18154 0.0
H1138 H 0.54091 0.69507 0.20929 0.0
O1139 O 0.61861 0.73899 0.20226 0.0
C1140 C 0.57806 0.69808 0.2986 0.0
O1141 O 0.56048 0.69972 0.29229 0.0
N1142 N 0.58378 0.74862 0.2028 0.0
C1143 C 0.57367 0.78136 0.17944 0.0
C1144 C 0.59507 0.78507 0.17523 0.0
C1145 C 0.59988 0.76882 0.18814 0.0
C1146 C 0.56277 0.74468 0.20655 0.0
C1147 C 0.55734 0.76073 0.19489 0.0
H1148 H 0.61694 0.77337 0.18944 0.0
H1149 H 0.55044 0.72981 0.22227 0.0
H1150 H 0.63724 0.7735 0.25834 0.0
H1151 H 0.60012 0.77597 0.36495 0.0
H1152 H 0.56812 0.65969 0.15393 0.0
H1153 H 0.60837 0.80102 0.16508 0.0
H1154 H 0.54066 0.7573 0.19958 0.0
C1155 C 0.25762 0.8401 0.30332 0.0
C1156 C 0.23909 0.83478 0.32709 0.0
N1157 N 0.23208 0.84874 0.31554 0.0
N1158 N 0.26248 0.85741 0.27687 0.0
C1159 C 0.24648 0.86232 0.28472 0.0
H1160 H 0.26715 0.83192 0.3053 0.0
Co1161 Co 0.28797 0.86905 0.2434 0.0
C1162 C 0.2816 0.88955 0.16304 0.0
O1163 O 0.29094 0.8799 0.14244 0.0
N1164 N 0.31498 0.8808 0.21254 0.0
C1165 C 0.34842 0.90734 0.19259 0.0
C1166 C 0.3276 0.90256 0.20386 0.0
C1167 C 0.32885 0.8728 0.20679 0.0
N1168 N 0.34919 0.88864 0.19442 0.0
O1169 O 0.30256 0.8926 0.28646 0.0
H1170 H 0.32246 0.91457 0.20869 0.0
H1171 H 0.32497 0.85633 0.21541 0.0
O1172 O 0.27893 0.88712 0.20529 0.0
C1173 C 0.30992 0.88647 0.31879 0.0
O1174 O 0.30747 0.86668 0.31792 0.0
N1175 N 0.27303 0.84424 0.20529 0.0
C1176 C 0.24306 0.80153 0.17568 0.0
C1177 C 0.23897 0.81894 0.16972 0.0
C1178 C 0.25377 0.83986 0.18549 0.0
C1179 C 0.27752 0.82756 0.21067 0.0
C1180 C 0.26289 0.80617 0.19578 0.0
H1181 H 0.24835 0.85175 0.18564 0.0
H1182 H 0.29128 0.83012 0.23057 0.0
H1183 H 0.24565 0.87574 0.26902 0.0
H1184 H 0.23119 0.8215 0.35078 0.0
H1185 H 0.36229 0.92352 0.18585 0.0
H1186 H 0.2235 0.8161 0.15634 0.0
H1187 H 0.26659 0.79318 0.20201 0.0
H1188 H 0.37866 0.182 0.14879 0.0
H1189 H 0.35043 0.14598 0.26943 0.0
H1190 H 0.3173 0.14794 0.25677 0.0
H1191 H 0.29663 0.16041 0.21227 0.0
H1192 H 0.32465 0.1964 0.09159 0.0
H1193 H 0.35801 0.19472 0.10442 0.0
C1194 C 0.36534 0.17472 0.17248 0.0
C1195 C 0.36706 0.1638 0.2099 0.0
C1196 C 0.34644 0.17617 0.16533 0.0
C1197 C 0.34947 0.15415 0.23994 0.0
C1198 C 0.33057 0.15545 0.23296 0.0
C1199 C 0.30996 0.16775 0.18859 0.0
C1200 C 0.30809 0.17846 0.15101 0.0
C1201 C 0.32891 0.16644 0.19582 0.0
C1202 C 0.32572 0.1883 0.12109 0.0
C1203 C 0.34474 0.18717 0.1282 0.0
H1204 H 0.86146 0.1501 0.18196 0.0
H1205 H 0.79402 0.12398 0.14235 0.0
H1206 H 0.79567 0.15815 0.16494 0.0
H1207 H 0.8163 0.19536 0.19615 0.0
H1208 H 0.88351 0.22099 0.23654 0.0
H1209 H 0.88166 0.18664 0.21477 0.0
C1210 C 0.84696 0.15163 0.17881 0.0
C1211 C 0.8276 0.13435 0.16052 0.0
C1212 C 0.84796 0.17119 0.19228 0.0
C1213 C 0.8092 0.13703 0.15583 0.0
C1214 C 0.8101 0.15653 0.169 0.0
C1215 C 0.83058 0.19348 0.19992 0.0
C1216 C 0.85006 0.21076 0.21776 0.0
C1217 C 0.82942 0.17373 0.18714 0.0
C1218 C 0.86828 0.20789 0.2233 0.0
C1219 C 0.86727 0.18831 0.21058 0.0
H1220 H 0.80652 0.65548 0.24233 0.0
H1221 H 0.79208 0.63537 0.10667 0.0
H1222 H 0.82816 0.6654 0.08405 0.0
H1223 H 0.86445 0.69605 0.10365 0.0
H1224 H 0.87961 0.71484 0.24013 0.0
H1225 H 0.84261 0.68684 0.26173 0.0
C1226 C 0.81119 0.65805 0.2078 0.0
C1227 C 0.7968 0.64345 0.17608 0.0
C1228 C 0.83214 0.67492 0.19532 0.0
C1229 C 0.80305 0.64653 0.13147 0.0
C1230 C 0.82364 0.66358 0.11864 0.0
C1231 C 0.85973 0.69391 0.13813 0.0
C1232 C 0.87484 0.70749 0.17017 0.0
C1233 C 0.8385 0.67759 0.15041 0.0
C1234 C 0.86827 0.70476 0.21468 0.0
C1235 C 0.84712 0.6887 0.22713 0.0
H1236 H 0.18512 0.38328 0.37507 0.0
H1237 H 0.15642 0.35529 0.2488 0.0
H1238 H 0.16083 0.32367 0.2641 0.0
H1239 H 0.17247 0.30376 0.3135 0.0
H1240 H 0.20151 0.33181 0.43923 0.0
H1241 H 0.1982 0.36415 0.42305 0.0
C1242 C 0.18007 0.37048 0.35052 0.0
C1243 C 0.17032 0.37177 0.31086 0.0
C1244 C 0.18294 0.35244 0.35923 0.0
C1245 C 0.16359 0.35469 0.27993 0.0
C1246 C 0.16628 0.33663 0.28848 0.0
C1247 C 0.17804 0.31693 0.33739 0.0
C1248 C 0.18709 0.3153 0.37762 0.0
C1249 C 0.17582 0.33529 0.3281 0.0
C1250 C 0.19467 0.33273 0.40787 0.0
C1251 C 0.19259 0.35113 0.39879 0.0
H1252 H 0.65504 0.81317 0.26471 0.0
H1253 H 0.63519 0.79649 0.40046 0.0
H1254 H 0.66347 0.83311 0.42368 0.0
H1255 H 0.69401 0.86985 0.40544 0.0
H1256 H 0.71453 0.88644 0.27012 0.0
H1257 H 0.68589 0.8499 0.24651 0.0
C1258 C 0.65714 0.81747 0.29938 0.0
C1259 C 0.64305 0.80216 0.3308 0.0
C1260 C 0.67341 0.83859 0.31248 0.0
C1261 C 0.6457 0.80808 0.37561 0.0
C1262 C 0.66187 0.829 0.38892 0.0
C1263 C 0.69195 0.86553 0.37076 0.0
C1264 C 0.70618 0.88077 0.33948 0.0
C1265 C 0.67571 0.84444 0.35762 0.0
C1266 C 0.70372 0.87487 0.29471 0.0
C1267 C 0.6874 0.85402 0.28126 0.0
H1268 H 0.14797 0.83325 0.41702 0.0
H1269 H 0.13125 0.84523 0.28711 0.0
H1270 H 0.16678 0.85263 0.2589 0.0
H1271 H 0.20234 0.85438 0.2705 0.0
H1272 H 0.21852 0.84143 0.39991 0.0
H1273 H 0.1837 0.83583 0.429 0.0
C1274 C 0.15205 0.8373 0.3825 0.0
C1275 C 0.13696 0.83867 0.3543 0.0
C1276 C 0.17253 0.8415 0.36642 0.0
C1277 C 0.14265 0.84429 0.30971 0.0
C1278 C 0.16296 0.84848 0.29346 0.0
C1279 C 0.19831 0.85071 0.30515 0.0
C1280 C 0.21287 0.84828 0.33304 0.0
C1281 C 0.17805 0.8471 0.32148 0.0
C1282 C 0.20742 0.84321 0.37782 0.0
C1283 C 0.18753 0.83997 0.39444 0.0
H1284 H 0.70095 0.84194 0.91293 0.0
H1285 H 0.71548 0.83747 0.77666 0.0
H1286 H 0.68706 0.84566 0.75313 0.0
H1287 H 0.65783 0.85389 0.77166 0.0
H1288 H 0.64412 0.8594 0.90814 0.0
H1289 H 0.67252 0.85126 0.93141 0.0
C1290 C 0.69761 0.84248 0.87818 0.0
C1291 C 0.71002 0.83892 0.84651 0.0
C1292 C 0.68161 0.84769 0.86499 0.0
C1293 C 0.70599 0.84013 0.80149 0.0
C1294 C 0.68984 0.84489 0.78808 0.0
C1295 C 0.66138 0.85371 0.80639 0.0
C1296 C 0.64893 0.85723 0.83813 0.0
C1297 C 0.67764 0.84885 0.81954 0.0
C1298 C 0.65343 0.85659 0.88314 0.0
C1299 C 0.66961 0.85188 0.89647 0.0
H1300 H 0.17566 0.81394 0.77299 0.0
H1301 H 0.18488 0.79694 0.90477 0.0
H1302 H 0.1903 0.83199 0.93236 0.0
H1303 H 0.19115 0.86715 0.9193 0.0
H1304 H 0.18195 0.88392 0.78729 0.0
H1305 H 0.17785 0.84948 0.75949 0.0
C1306 C 0.17869 0.81788 0.80775 0.0
C1307 C 0.17978 0.80286 0.83677 0.0
C1308 C 0.1819 0.83811 0.82333 0.0
C1309 C 0.18412 0.80832 0.88169 0.0
C1310 C 0.18718 0.82834 0.89751 0.0
C1311 C 0.18863 0.86337 0.88441 0.0
C1312 C 0.18673 0.87797 0.85545 0.0
C1313 C 0.18608 0.84338 0.86866 0.0
C1314 C 0.1832 0.87279 0.8103 0.0
C1315 C 0.18085 0.85311 0.79437 0.0
H1316 H 0.14209 0.29796 0.82106 0.0
H1317 H 0.13471 0.3284 0.93839 0.0
H1318 H 0.17023 0.3611 0.9244 0.0
H1319 H 0.2038 0.3806 0.88006 0.0
H1320 H 0.21113 0.35012 0.7627 0.0
H1321 H 0.1756 0.31748 0.77665 0.0
C1322 C 0.14827 0.31166 0.84378 0.0
C1323 C 0.13566 0.31062 0.88077 0.0
C1324 C 0.16888 0.33028 0.83593 0.0
C1325 C 0.14383 0.32877 0.90935 0.0
C1326 C 0.16428 0.34743 0.90161 0.0
C1327 C 0.1976 0.36691 0.85731 0.0
C1328 C 0.21024 0.36792 0.82037 0.0
C1329 C 0.17698 0.3483 0.86513 0.0
C1330 C 0.20203 0.34978 0.79174 0.0
C1331 C 0.18157 0.33114 0.79946 0.0
H1332 H 0.83684 0.63166 0.63944 0.0
H1333 H 0.85004 0.64857 0.77736 0.0
H1334 H 0.84143 0.67782 0.76734 0.0
H1335 H 0.83041 0.69881 0.71947 0.0
H1336 H 0.81692 0.68177 0.58197 0.0
H1337 H 0.82421 0.65149 0.59244 0.0
C1338 C 0.83761 0.64148 0.66758 0.0
C1339 C 0.84419 0.63776 0.70913 0.0
C1340 C 0.83219 0.65803 0.66183 0.0
C1341 C 0.84543 0.65112 0.74482 0.0
C1342 C 0.84026 0.66777 0.73924 0.0
C1343 C 0.829 0.68841 0.69183 0.0
C1344 C 0.82321 0.69261 0.64998 0.0
C1345 C 0.83367 0.67137 0.69791 0.0
C1346 C 0.82108 0.67877 0.61462 0.0
C1347 C 0.82552 0.66162 0.6205 0.0
H1348 H 0.29092 0.14607 0.67491 0.0
H1349 H 0.32919 0.11488 0.64851 0.0
H1350 H 0.36285 0.14907 0.66627 0.0
H1351 H 0.38112 0.18749 0.69027 0.0
H1352 H 0.34278 0.21867 0.71631 0.0
H1353 H 0.30916 0.18446 0.69888 0.0
C1354 C 0.30658 0.14665 0.67359 0.0
C1355 C 0.30757 0.12795 0.66069 0.0
C1356 C 0.32575 0.16626 0.68396 0.0
C1357 C 0.32805 0.12912 0.65805 0.0
C1358 C 0.34725 0.1486 0.66839 0.0
C1359 C 0.36545 0.18689 0.69166 0.0
C1360 C 0.36445 0.20562 0.70441 0.0
C1361 C 0.34627 0.16726 0.68134 0.0
C1362 C 0.34396 0.20442 0.70701 0.0
C1363 C 0.32476 0.18492 0.69682 0.0
H1364 H 0.79875 0.14401 0.6959 0.0
H1365 H 0.81864 0.21158 0.66683 0.0
H1366 H 0.85554 0.21918 0.64844 0.0
H1367 H 0.88262 0.20673 0.64236 0.0
H1368 H 0.86247 0.13917 0.67218 0.0
H1369 H 0.8254 0.13146 0.68863 0.0
C1370 C 0.81122 0.1604 0.68581 0.0
C1371 C 0.80594 0.17713 0.68259 0.0
C1372 C 0.83242 0.16467 0.6754 0.0
C1373 C 0.82219 0.19829 0.66894 0.0
C1374 C 0.84334 0.2027 0.65861 0.0
C1375 C 0.87 0.19034 0.65207 0.0
C1376 C 0.8753 0.17366 0.65662 0.0
C1377 C 0.84867 0.18601 0.66173 0.0
C1378 C 0.85888 0.15242 0.66935 0.0
C1379 C 0.83765 0.14795 0.6786 0.0
H1380 H 0.96457 0.47977 0.50068 0.0
H1381 H 0.99825 0.5504 0.48623 0.0
H1382 H 0.03291 0.55257 0.50595 0.0
H1383 H 0.05346 0.53439 0.52853 0.0
H1384 H 0.01951 0.46384 0.54391 0.0
H1385 H 0.98493 0.46169 0.5237 0.0
C1386 C 0.97939 0.49569 0.50237 0.0
C1387 C 0.97873 0.5149 0.49209 0.0
C1388 C 0.99918 0.49682 0.5141 0.0
C1389 C 0.99828 0.53533 0.49351 0.0
C1390 C 0.0181 0.53659 0.50502 0.0
C1391 C 0.03853 0.51854 0.52704 0.0
C1392 C 0.03906 0.4993 0.53766 0.0
C1393 C 0.01873 0.51744 0.51537 0.0
C1394 C 0.0195 0.4789 0.53637 0.0
C1395 C 0.99975 0.47766 0.52459 0.0
H1396 H 0.47284 0.46136 0.48377 0.0
H1397 H 0.54123 0.48239 0.50331 0.0
H1398 H 0.54888 0.51929 0.52177 0.0
H1399 H 0.53622 0.54578 0.5323 0.0
H1400 H 0.46784 0.52487 0.51304 0.0
H1401 H 0.46018 0.488 0.494 0.0
C1402 C 0.4894 0.47409 0.49176 0.0
C1403 C 0.50634 0.46905 0.49261 0.0
C1404 C 0.49373 0.49536 0.50232 0.0
C1405 C 0.52777 0.48568 0.5033 0.0
C1406 C 0.53221 0.50685 0.51362 0.0
C1407 C 0.51964 0.5331 0.52426 0.0
C1408 C 0.50271 0.53814 0.52385 0.0
C1409 C 0.51531 0.51186 0.51349 0.0
C1410 C 0.48129 0.52157 0.51287 0.0
C1411 C 0.47685 0.50041 0.50221 0.0
H1412 H 0.47023 0.97592 0.46293 0.0
H1413 H 0.48144 0.97694 0.60304 0.0
H1414 H 0.52037 1.00314 0.59183 0.0
H1415 H 0.55109 0.0256 0.54241 0.0
H1416 H 0.53988 0.02568 0.40247 0.0
H1417 H 0.50122 0.99833 0.41322 0.0
C1418 C 0.48122 0.98176 0.49098 0.0
C1419 C 0.47288 0.97452 0.5338 0.0
C1420 C 0.50361 0.99673 0.48424 0.0
C1421 C 0.48731 0.9825 0.56986 0.0
C1422 C 0.50962 0.99732 0.56341 0.0
C1423 C 0.54022 0.01976 0.51421 0.0
C1424 C 0.54847 0.02786 0.47172 0.0
C1425 C 0.51792 1.00455 0.52078 0.0
C1426 C 0.53415 0.01963 0.43548 0.0
C1427 C 0.51195 1.00415 0.44167 0.0
H1428 H 0.53791 0.99929 0.05392 0.0
H1429 H 0.47973 0.9491 0.98914 0.0
H1430 H 0.46919 0.97601 0.96943 0.0
H1431 H 0.47587 0.01386 0.97155 0.0
H1432 H 0.53312 0.06389 0.03841 0.0
H1433 H 0.54443 0.03715 0.05663 0.0
C1434 C 0.52288 0.99424 0.03576 0.0
C1435 C 0.50989 0.9722 0.02266 0.0
C1436 C 0.51663 0.00982 0.02491 0.0
C1437 C 0.49045 0.96599 0.99886 0.0
C1438 C 0.48424 0.98137 0.98776 0.0
C1439 C 0.49088 0.01885 0.98978 0.0
C1440 C 0.50353 0.04071 1.00383 0.0
C1441 C 0.4972 1.00334 1.00052 0.0
C1442 C 0.5229 0.04703 0.02782 0.0
C1443 C 0.52944 0.03178 0.03811 0.0
H1444 H 0.96564 0.48498 0.02614 0.0
H1445 H 1.00563 0.46058 0.96971 0.0
H1446 H 0.03866 0.49573 0.98425 0.0
H1447 H 0.05616 0.53292 0.01464 0.0
H1448 H 0.01629 0.55754 0.07078 0.0
H1449 H 0.98319 0.5225 0.05571 0.0
C1450 C 0.9816 0.4873 0.01738 0.0
C1451 C 0.98317 0.47018 0.99695 0.0
C1452 C 1.00051 0.5075 0.02601 0.0
C1453 C 1.00394 0.47357 0.98502 0.0
C1454 C 0.02285 0.49361 0.99355 0.0
C1455 C 0.04024 0.53077 0.02308 0.0
C1456 C 0.03875 0.54787 0.04379 0.0
C1457 C 0.02131 0.51066 0.01408 0.0
C1458 C 0.01796 0.54458 0.0553 0.0
C1459 C 0.99901 0.52459 0.04648 0.0
H1460 H 0.47245 0.50879 0.97684 0.0
H1461 H 0.46895 0.4792 0.10364 0.0
H1462 H 0.50474 0.48243 0.0905 0.0
H1463 H 0.53785 0.49564 0.04462 0.0
H1464 H 0.54114 0.52569 0.91828 0.0
H1465 H 0.50498 0.52125 0.93061 0.0
C1466 C 0.47953 0.5031 1.0017 0.0
C1467 C 0.4681 0.49392 0.04127 0.0
C1468 C 0.50026 0.50554 0.99442 0.0
C1469 C 0.47727 0.48614 0.07271 0.0
C1470 C 0.49785 0.48822 0.06542 0.0
C1471 C 0.53061 0.50109 0.01965 0.0
C1472 C 0.54235 0.51113 0.98072 0.0
C1473 C 0.50962 0.4982 0.02666 0.0
C1474 C 0.53279 0.51834 0.94895 0.0
C1475 C 0.51195 0.51556 0.95572 0.0
H1476 H 0.20353 0.0923 0.97298 0.0
H1477 H 0.25049 0.11602 0.07915 0.0
H1478 H 0.24793 0.08015 0.08526 0.0
H1479 H 0.23359 0.04267 0.05912 0.0
H1480 H 0.18849 0.01879 0.94965 0.0
H1481 H 0.1886 0.05364 0.94692 0.0
C1482 C 0.21305 0.08945 0.99749 0.0
C1483 C 0.22729 0.10677 0.02542 0.0
C1484 C 0.21179 0.06873 1.00035 0.0
C1485 C 0.23958 0.10296 0.05709 0.0
C1486 C 0.23809 0.08246 0.06065 0.0
C1487 C 0.22387 0.04502 0.03434 0.0
C1488 C 0.21126 0.02798 1.00438 0.0
C1489 C 0.22449 0.06532 0.03214 0.0
C1490 C 0.1983 0.03137 0.97341 0.0
C1491 C 0.19849 0.05146 0.97158 0.0
H1492 H 0.89944 0.14889 0.05167 0.0
H1493 H 0.91152 0.10783 0.96398 0.0
H1494 H 0.95004 0.13703 0.95655 0.0
H1495 H 0.9805 0.17465 0.97546 0.0
H1496 H 0.96726 0.21464 0.06398 0.0
H1497 H 0.92904 0.18566 0.07001 0.0
C1498 C 0.91038 0.14635 0.03041 0.0
C1499 C 0.90243 0.12622 1.00794 0.0
C1500 C 0.93239 0.16313 0.02641 0.0
C1501 C 0.91713 0.1231 0.98168 0.0
C1502 C 0.93916 0.13986 0.97728 0.0
C1503 C 0.96916 0.17702 0.99572 0.0
C1504 C 0.97683 0.19683 0.0194 0.0
C1505 C 0.947 0.16002 0.99945 0.0
C1506 C 0.96194 0.19953 0.04591 0.0
C1507 C 0.94002 0.18296 0.04926 0.0
H1508 H 0.87199 0.76872 0.96714 0.0
H1509 H 0.89749 0.80402 0.08919 0.0
H1510 H 0.86862 0.81341 0.09064 0.0
H1511 H 0.8356 0.81116 0.05847 0.0
H1512 H 0.80915 0.77513 0.93773 0.0
H1513 H 0.83868 0.76644 0.93483 0.0
C1514 C 0.87123 0.77844 0.99409 0.0
C1515 C 0.88721 0.7858 0.0277 0.0
C1516 C 0.85426 0.7836 0.99517 0.0
C1517 C 0.8859 0.79852 0.06219 0.0
C1518 C 0.86918 0.80374 0.06338 0.0
C1519 C 0.83613 0.80123 0.03172 0.0
C1520 C 0.82004 0.7938 0.99845 0.0
C1521 C 0.85319 0.79628 0.03023 0.0
C1522 C 0.82136 0.78128 0.9636 0.0
C1523 C 0.83824 0.77621 0.962 0.0
H1524 H 0.03333 0.18944 0.48686 0.0
H1525 H 0.04264 0.2431 0.57055 0.0
H1526 H 0.08149 0.25452 0.57831 0.0
H1527 H 0.11308 0.24954 0.56001 0.0
H1528 H 0.10298 0.1973 0.4707 0.0
H1529 H 0.06426 0.18511 0.46715 0.0
C1530 C 0.04372 0.20386 0.50632 0.0
C1531 C 0.03479 0.2154 0.52775 0.0
C1532 C 0.06606 0.21052 0.51013 0.0
C1533 C 0.04881 0.23371 0.55379 0.0
C1534 C 0.07114 0.24033 0.55814 0.0
C1535 C 0.10249 0.23554 0.53961 0.0
C1536 C 0.11129 0.22426 0.51636 0.0
C1537 C 0.07999 0.22888 0.53629 0.0
C1538 C 0.09696 0.20603 0.49038 0.0
C1539 C 0.07468 0.19914 0.48768 0.0
H1540 H 0.7622 0.86501 0.53822 0.0
H1541 H 0.81336 0.90405 0.44411 0.0
H1542 H 0.82509 0.87696 0.44407 0.0
H1543 H 0.82066 0.84197 0.46871 0.0
H1544 H 0.76836 0.80113 0.5589 0.0
H1545 H 0.75735 0.82906 0.5622 0.0
C1546 C 0.77586 0.8676 0.51752 0.0
C1547 C 0.78696 0.88694 0.49167 0.0
C1548 C 0.78234 0.85153 0.51669 0.0
C1549 C 0.80477 0.88985 0.46543 0.0
C1550 C 0.8114 0.87415 0.4649 0.0
C1551 C 0.80665 0.83887 0.48873 0.0
C1552 C 0.79534 0.81918 0.51325 0.0
C1553 C 0.80024 0.85488 0.49011 0.0
C1554 C 0.77757 0.81606 0.53982 0.0
C1555 C 0.77117 0.83205 0.54159 0.0
H1556 H 0.11627 0.9134 0.47261 0.0
H1557 H 0.13088 0.88977 0.5921 0.0
H1558 H 0.16308 0.92591 0.60436 0.0
H1559 H 0.18935 0.96315 0.57686 0.0
H1560 H 0.17506 0.98695 0.45797 0.0
H1561 H 0.14033 0.95203 0.44975 0.0
C1562 C 0.12613 0.91631 0.50198 0.0
C1563 C 0.12123 0.89879 0.53119 0.0
C1564 C 0.14482 0.93714 0.5086 0.0
C1565 C 0.13442 0.90286 0.56879 0.0
C1566 C 0.15287 0.92352 0.57582 0.0
C1567 C 0.17831 0.96067 0.54974 0.0
C1568 C 0.18446 0.97733 0.518 0.0
C1569 C 0.15858 0.94058 0.54529 0.0
C1570 C 0.17036 0.97422 0.48272 0.0
C1571 C 0.15065 0.95428 0.47803 0.0
H1572 H 0.75525 0.8999 1.0082 0.0
H1573 H 0.82478 0.9231 1.01075 0.0
H1574 H 0.83242 0.96102 0.01736 0.0
H1575 H 0.81913 0.98801 0.01838 0.0
H1576 H 0.74935 0.96332 0.01864 0.0
H1577 H 0.74216 0.92575 0.01611 0.0
C1578 C 0.77212 0.91307 1.01135 0.0
C1579 C 0.78935 0.90839 1.00887 0.0
C1580 C 0.77641 0.93479 0.01542 0.0
C1581 C 0.8111 0.92605 1.01186 0.0
C1582 C 0.81551 0.94781 0.01587 0.0
C1583 C 0.80241 0.97435 0.01842 0.0
C1584 C 0.78484 0.97859 0.01763 0.0
C1585 C 0.79828 0.95246 0.01701 0.0
C1586 C 0.76322 0.96067 0.01791 0.0
C1587 C 0.75905 0.93909 0.01674 0.0
H1588 H 0.09219 0.88924 0.03689 0.0
H1589 H 0.11768 0.86054 0.9455 0.0
H1590 H 0.08193 0.82709 0.94189 0.0
H1591 H 0.04398 0.80524 0.96708 0.0
H1592 H 0.01858 0.83268 0.06188 0.0
H1593 H 0.05328 0.86727 0.06083 0.0
C1594 C 0.08978 0.87569 0.016 0.0
C1595 C 0.1076 0.87725 0.99192 0.0
C1596 C 0.06913 0.85622 0.01455 0.0
C1597 C 0.10429 0.85959 0.96489 0.0
C1598 C 0.08383 0.84047 0.96269 0.0
C1599 C 0.04597 0.8187 0.98768 0.0
C1600 C 0.0285 0.81603 0.01464 0.0
C1601 C 0.06623 0.83845 0.9879 0.0
C1602 C 0.03144 0.83404 0.04033 0.0
C1603 C 0.05146 0.85391 0.0401 0.0
H1604 H 0.19461 0.23868 0.08006 0.0
H1605 H 0.17209 0.18856 0.98047 0.0
H1606 H 0.13767 0.18934 0.9734 0.0
H1607 H 0.11581 0.20692 0.99114 0.0
H1608 H 0.13763 0.25548 0.09484 0.0
H1609 H 0.1705 0.25273 0.10472 0.0
C1610 C 0.18196 0.22778 0.05729 0.0
C1611 C 0.18574 0.2137 0.03049 0.0
C1612 C 0.16226 0.22822 0.0539 0.0
C1613 C 0.16934 0.19945 1.00132 0.0
C1614 C 0.14979 0.20001 0.99723 0.0
C1615 C 0.12739 0.21652 0.01673 0.0
C1616 C 0.12425 0.23174 0.04155 0.0
C1617 C 0.14624 0.21464 0.02279 0.0
C1618 C 0.13976 0.24409 0.07427 0.0
C1619 C 0.15858 0.24246 0.08017 0.0
H1620 H 0.91971 0.79542 0.55376 0.0
H1621 H 0.89067 0.74639 0.4513 0.0
H1622 H 0.92549 0.74767 0.44006 0.0
H1623 H 0.96397 0.7615 0.46108 0.0
H1624 H 0.99423 0.81257 0.55833 0.0
H1625 H 0.95935 0.8121 0.56923 0.0
C1626 C 0.921 0.78531 0.52831 0.0
C1627 C 0.90219 0.77048 0.50413 0.0
C1628 C 0.94135 0.78644 0.52118 0.0
C1629 C 0.90448 0.75748 0.47152 0.0
C1630 C 0.9245 0.75828 0.46475 0.0
C1631 C 0.96283 0.77252 0.48456 0.0
C1632 C 0.98139 0.78682 0.50943 0.0
C1633 C 0.94293 0.7724 0.48988 0.0
C1634 C 0.98002 0.80139 0.5391 0.0
C1635 C 0.96011 0.80106 0.54531 0.0
H1636 H 0.21156 0.11895 0.47055 0.0
H1637 H 0.25505 0.13942 0.58245 0.0
H1638 H 0.25409 0.17364 0.58713 0.0
H1639 H 0.24176 0.19809 0.55872 0.0
H1640 H 0.19995 0.17928 0.44406 0.0
H1641 H 0.19906 0.14411 0.44167 0.0
C1642 C 0.22065 0.13091 0.49601 0.0
C1643 C 0.23339 0.12678 0.52608 0.0
C1644 C 0.22035 0.15086 0.49805 0.0
C1645 C 0.24522 0.14237 0.55887 0.0
C1646 C 0.24468 0.16192 0.56156 0.0
C1647 C 0.23261 0.1865 0.53283 0.0
C1648 C 0.22109 0.19168 0.5015 0.0
C1649 C 0.2325 0.16645 0.53107 0.0
C1650 C 0.20888 0.17594 0.46896 0.0
C1651 C 0.20845 0.15576 0.46736 0.0
H1652 H 0.86005 0.10538 0.56048 0.0
H1653 H 0.901 0.09588 0.4679 0.0
H1654 H 0.87138 0.05808 0.45433 0.0
H1655 H 0.83389 0.02739 0.47029 0.0
H1656 H 0.79432 0.0362 0.56745 0.0
H1657 H 0.82317 0.07454 0.57792 0.0
C1658 C 0.86236 0.09502 0.53713 0.0
C1659 C 0.88252 0.10336 0.51483 0.0
C1660 C 0.84551 0.07318 0.53051 0.0
C1661 C 0.88556 0.08975 0.48527 0.0
C1662 C 0.86864 0.06818 0.47754 0.0
C1663 C 0.83162 0.03783 0.49346 0.0
C1664 C 0.81201 0.02911 0.51793 0.0
C1665 C 0.84856 0.05968 0.50011 0.0
C1666 C 0.80933 0.0426 0.54845 0.0
C1667 C 0.82578 0.06449 0.55433 0.0
H1668 H 0.87281 0.36557 0.30822 0.0
H1669 H 0.91798 0.37877 0.41547 0.0
H1670 H 0.92366 0.41575 0.42281 0.0
H1671 H 0.91745 0.44517 0.39676 0.0
H1672 H 0.87128 0.43258 0.29227 0.0
H1673 H 0.86416 0.39462 0.28597 0.0
C1674 C 0.88357 0.37641 0.33366 0.0
C1675 C 0.89521 0.36941 0.36082 0.0
C1676 C 0.88675 0.39788 0.33789 0.0
C1677 C 0.90917 0.3838 0.39352 0.0
C1678 C 0.91241 0.40499 0.39784 0.0
C1679 C 0.90584 0.43409 0.37256 0.0
C1680 C 0.89518 0.4417 0.34448 0.0
C1681 C 0.90166 0.41235 0.3697 0.0
C1682 C 0.8798 0.42709 0.31397 0.0
C1683 C 0.87575 0.40541 0.31043 0.0
H1684 H 0.56986 0.47186 0.29906 0.0
H1685 H 0.58127 0.44375 0.41588 0.0
H1686 H 0.61929 0.47341 0.41777 0.0
H1687 H 0.64926 0.50803 0.38779 0.0
H1688 H 0.63779 0.53688 0.27243 0.0
H1689 H 0.59999 0.50648 0.2688 0.0
C1690 C 0.58063 0.4722 0.32499 0.0
C1691 C 0.57255 0.45536 0.35706 0.0
C1692 C 0.60254 0.48961 0.3264 0.0
C1693 C 0.58697 0.4561 0.39011 0.0
C1694 C 0.60875 0.47326 0.39157 0.0
C1695 C 0.63846 0.50779 0.36208 0.0
C1696 C 0.64645 0.52483 0.33052 0.0
C1697 C 0.61668 0.49021 0.36015 0.0
C1698 C 0.63223 0.52394 0.29694 0.0
C1699 C 0.61054 0.50657 0.29492 0.0
H1700 H 0.56003 0.13716 0.34301 0.0
H1701 H 0.52296 0.06618 0.34961 0.0
H1702 H 0.48887 0.0668 0.34323 0.0
H1703 H 0.46936 0.08715 0.3374 0.0
H1704 H 0.5054 0.15807 0.33387 0.0
H1705 H 0.54005 0.15779 0.33722 0.0
C1706 C 0.54449 0.12184 0.34319 0.0
C1707 C 0.54422 0.10165 0.34635 0.0
C1708 C 0.52472 0.12227 0.34013 0.0
C1709 C 0.52386 0.08196 0.34618 0.0
C1710 C 0.50426 0.08228 0.34295 0.0
C1711 C 0.48472 0.1026 0.33788 0.0
C1712 C 0.48468 0.12262 0.33587 0.0
C1713 C 0.50448 0.1023 0.34017 0.0
C1714 C 0.50491 0.14242 0.33522 0.0
C1715 C 0.52473 0.14226 0.33734 0.0
H1716 H 0.76079 0.54698 0.78091 0.0
H1717 H 0.77814 0.57654 0.91001 0.0
H1718 H 0.74149 0.57194 0.91834 0.0
H1719 H 0.70455 0.55998 0.88822 0.0
H1720 H 0.68754 0.52949 0.75979 0.0
H1721 H 0.72391 0.53395 0.75223 0.0
C1722 C 0.75651 0.55209 0.81127 0.0
C1723 C 0.77228 0.56199 0.84486 0.0
C1724 C 0.73542 0.54937 0.81589 0.0
C1725 C 0.76646 0.56901 0.88342 0.0
C1726 C 0.74544 0.56632 0.88829 0.0
C1727 C 0.70871 0.55413 0.85875 0.0
C1728 C 0.69319 0.54457 0.82451 0.0
C1729 C 0.72979 0.55659 0.85462 0.0
C1730 C 0.6991 0.53731 0.78639 0.0
C1731 C 0.71993 0.5397 0.7821 0.0
H1732 H 0.42005 0.19196 0.83938 0.0
H1733 H 0.48632 0.24458 0.8631 0.0
H1734 H 0.49891 0.21806 0.86655 0.0
H1735 H 0.4916 0.18003 0.85995 0.0
H1736 H 0.42537 0.12701 0.84273 0.0
H1737 H 0.41214 0.15348 0.84064 0.0
C1738 C 0.43717 0.19771 0.84631 0.0
C1739 C 0.45219 0.22052 0.85022 0.0
C1740 C 0.44434 0.18224 0.84923 0.0
C1741 C 0.47437 0.22734 0.85868 0.0
C1742 C 0.48163 0.21213 0.86096 0.0
C1743 C 0.47427 0.17436 0.85579 0.0
C1744 C 0.45946 0.15172 0.85074 0.0
C1745 C 0.46686 0.1896 0.85554 0.0
C1746 C 0.437 0.1444 0.84639 0.0
C1747 C 0.42951 0.15953 0.84515 0.0
H1748 H 0.87697 0.29694 0.81871 0.0
H1749 H 0.84611 0.32682 0.89222 0.0
H1750 H 0.81067 0.29335 0.88471 0.0
H1751 H 0.78844 0.25436 0.86088 0.0
H1752 H 0.82048 0.2244 0.79232 0.0
H1753 H 0.85537 0.25887 0.79517 0.0
C1754 C 0.86265 0.29625 0.83359 0.0
C1755 C 0.86462 0.3146 0.85649 0.0
C1756 C 0.84237 0.27668 0.83039 0.0
C1757 C 0.84544 0.31323 0.8742 0.0
C1758 C 0.82504 0.29393 0.87022 0.0
C1759 C 0.8031 0.25551 0.84654 0.0
C1760 C 0.80198 0.23683 0.82689 0.0
C1761 C 0.82333 0.2754 0.84894 0.0
C1762 C 0.82104 0.23847 0.80827 0.0
C1763 C 0.84097 0.2582 0.8097 0.0
H1764 H 0.47776 0.31255 0.30122 0.0
H1765 H 0.43626 0.30254 0.41373 0.0
H1766 H 0.42879 0.26472 0.42108 0.0
H1767 H 0.43356 0.23413 0.39472 0.0
H1768 H 0.47488 0.24431 0.28153 0.0
H1769 H 0.48309 0.28228 0.2758 0.0
C1770 C 0.46694 0.30204 0.3271 0.0
C1771 C 0.4575 0.3104 0.35671 0.0
C1772 C 0.46283 0.28031 0.33134 0.0
C1773 C 0.44385 0.29662 0.39063 0.0
C1774 C 0.43953 0.27494 0.3948 0.0
C1775 C 0.44439 0.24465 0.36884 0.0
C1776 C 0.45367 0.23622 0.33886 0.0
C1777 C 0.44889 0.26656 0.36529 0.0
C1778 C 0.46782 0.2503 0.30575 0.0
C1779 C 0.47236 0.27204 0.30207 0.0
H1780 H 0.78183 0.19956 0.33975 0.0
H1781 H 0.76638 0.25137 0.35812 0.0
H1782 H 0.72736 0.22433 0.35587 0.0
H1783 H 0.69734 0.18592 0.34806 0.0
H1784 H 0.71259 0.13393 0.33642 0.0
H1785 H 0.75198 0.16105 0.33802 0.0
C1786 C 0.7701 0.20509 0.34434 0.0
C1787 C 0.77747 0.22781 0.34888 0.0
C1788 C 0.74752 0.18933 0.3442 0.0
C1789 C 0.76155 0.23425 0.35363 0.0
C1790 C 0.7391 0.21871 0.35267 0.0
C1791 C 0.70933 0.18058 0.3457 0.0
C1792 C 0.7021 0.15797 0.34147 0.0
C1793 C 0.73189 0.19624 0.34759 0.0
C1794 C 0.71778 0.15122 0.33954 0.0
C1795 C 0.74027 0.16674 0.34038 0.0
H1796 H 0.87061 0.57802 0.30948 0.0
H1797 H 0.84042 0.52345 0.4007 0.0
H1798 H 0.80608 0.52405 0.39638 0.0
H1799 H 0.78493 0.5415 0.36933 0.0
H1800 H 0.81685 0.59759 0.28229 0.0
H1801 H 0.85022 0.59524 0.28322 0.0
C1802 C 0.85671 0.56636 0.32897 0.0
C1803 C 0.85849 0.55092 0.35581 0.0
C1804 C 0.83721 0.56719 0.32737 0.0
C1805 C 0.83979 0.53554 0.37954 0.0
C1806 C 0.82008 0.53595 0.37734 0.0
C1807 C 0.79922 0.55312 0.35058 0.0
C1808 C 0.79851 0.56985 0.32618 0.0
C1809 C 0.81865 0.5519 0.35177 0.0
C1810 C 0.81711 0.5848 0.30191 0.0
C1811 C 0.83617 0.58341 0.30224 0.0
H1812 H 0.57207 0.10212 0.80831 0.0
H1813 H 0.58231 0.12961 0.93927 0.0
H1814 H 0.62033 0.13818 0.93744 0.0
H1815 H 0.65088 0.13822 0.89899 0.0
H1816 H 0.64084 0.10961 0.76926 0.0
H1817 H 0.60272 0.10117 0.77045 0.0
C1818 C 0.58257 0.10986 0.83656 0.0
C1819 C 0.57425 0.11544 0.87361 0.0
C1820 C 0.60455 0.11459 0.83558 0.0
C1821 C 0.58826 0.12558 0.90979 0.0
C1822 C 0.61003 0.13035 0.90899 0.0
C1823 C 0.64037 0.12991 0.87112 0.0
C1824 C 0.64892 0.12464 0.83408 0.0
C1825 C 0.61839 0.12498 0.87208 0.0
C1826 C 0.63493 0.11417 0.79803 0.0
C1827 C 0.61303 0.10922 0.79876 0.0
H1828 H 0.85255 0.49187 0.84662 0.0
H1829 H 0.91899 0.54588 0.84866 0.0
H1830 H 0.93279 0.5199 0.85164 0.0
H1831 H 0.92555 0.48177 0.85826 0.0
H1832 H 0.85877 0.42784 0.84921 0.0
H1833 H 0.84554 0.45382 0.84495 0.0
C1834 C 0.87005 0.49788 0.84762 0.0
C1835 C 0.88478 0.5207 0.84811 0.0
C1836 C 0.87776 0.48286 0.84843 0.0
C1837 C 0.90742 0.52838 0.84844 0.0
C1838 C 0.91524 0.51351 0.85025 0.0
C1839 C 0.90813 0.47555 0.85436 0.0
C1840 C 0.89326 0.45259 0.85493 0.0
C1841 C 0.90053 0.49067 0.85076 0.0
C1842 C 0.8707 0.44523 0.85029 0.0
C1843 C 0.86305 0.46013 0.84749 0.0
H1844 H 0.47591 0.37826 0.7847 0.0
H1845 H 0.49689 0.34978 0.8856 0.0
H1846 H 0.53176 0.38466 0.89299 0.0
H1847 H 0.55463 0.42407 0.87456 0.0
H1848 H 0.53422 0.45158 0.76965 0.0
H1849 H 0.50076 0.41631 0.75995 0.0
C1850 C 0.48829 0.37978 0.80796 0.0
C1851 C 0.48398 0.3618 0.83501 0.0
C1852 C 0.50824 0.39969 0.81144 0.0
C1853 C 0.50005 0.36358 0.86466 0.0
C1854 C 0.51986 0.38348 0.86888 0.0
C1855 C 0.54318 0.4223 0.84882 0.0
C1856 C 0.5469 0.44076 0.82349 0.0
C1857 C 0.52398 0.40179 0.84292 0.0
C1858 C 0.53163 0.43795 0.79053 0.0
C1859 C 0.51248 0.41772 0.78476 0.0
H1860 H 0.58163 0.71154 0.71125 0.0
H1861 H 0.52524 0.6882 0.62592 0.0
H1862 H 0.52668 0.72351 0.63241 0.0
H1863 H 0.54532 0.76211 0.65925 0.0
H1864 H 0.60311 0.78544 0.74017 0.0
H1865 H 0.60003 0.7493 0.7375 0.0
C1866 C 0.56973 0.71408 0.69354 0.0
C1867 C 0.55353 0.69703 0.66768 0.0
C1868 C 0.57103 0.73466 0.69629 0.0
C1869 C 0.5379 0.70075 0.64628 0.0
C1870 C 0.53879 0.7211 0.6497 0.0
C1871 C 0.55715 0.75917 0.67635 0.0
C1872 C 0.57455 0.77648 0.69951 0.0
C1873 C 0.55547 0.73831 0.67415 0.0
C1874 C 0.58978 0.77249 0.72154 0.0
C1875 C 0.58797 0.7518 0.72023 0.0
H1876 H 0.30519 0.85886 0.61607 0.0
H1877 H 0.3299 0.84587 0.73508 0.0
H1878 H 0.29578 0.81031 0.74361 0.0
H1879 H 0.25736 0.78486 0.72075 0.0
H1880 H 0.23304 0.79838 0.60113 0.0
H1881 H 0.26847 0.83151 0.58877 0.0
C1882 C 0.30311 0.84796 0.64333 0.0
C1883 C 0.31982 0.85475 0.67496 0.0
C1884 C 0.28348 0.82771 0.64793 0.0
C1885 C 0.31717 0.84075 0.71037 0.0
C1886 C 0.29767 0.82053 0.71524 0.0
C1887 C 0.26002 0.79472 0.69137 0.0
C1888 C 0.24244 0.78917 0.66208 0.0
C1889 C 0.28048 0.81403 0.68471 0.0
C1890 C 0.24616 0.80236 0.62443 0.0
C1891 C 0.26642 0.82136 0.61737 0.0
H1892 H 0.22778 0.46935 0.71047 0.0
H1893 H 0.20657 0.42082 0.60681 0.0
H1894 H 0.17333 0.42291 0.59707 0.0
H1895 H 0.14897 0.43673 0.62115 0.0
H1896 H 0.17093 0.48697 0.72044 0.0
H1897 H 0.20544 0.4864 0.72825 0.0
C1898 C 0.21622 0.45959 0.68496 0.0
C1899 C 0.21968 0.44463 0.66001 0.0
C1900 C 0.19716 0.4611 0.67898 0.0
C1901 C 0.20421 0.43205 0.62742 0.0
C1902 C 0.18518 0.43329 0.62161 0.0
C1903 C 0.16146 0.4476 0.64423 0.0
C1904 C 0.1575 0.46166 0.6707 0.0
C1905 C 0.18125 0.44737 0.64787 0.0
C1906 C 0.17377 0.476 0.69999 0.0
C1907 C 0.19339 0.47561 0.70443 0.0
H1908 H 0.38637 0.91185 0.2399 0.0
H1909 H 0.35581 0.86211 0.14025 0.0
H1910 H 0.3907 0.86286 0.12729 0.0
H1911 H 0.43058 0.8801 0.14054 0.0
H1912 H 0.46008 0.92787 0.2451 0.0
H1913 H 0.42504 0.92561 0.25963 0.0
C1914 C 0.38741 0.90104 0.21573 0.0
C1915 C 0.36875 0.88707 0.19072 0.0
C1916 C 0.40737 0.90143 0.20902 0.0
C1917 C 0.37004 0.87292 0.15982 0.0
C1918 C 0.38998 0.87347 0.15235 0.0
C1919 C 0.42937 0.88969 0.16721 0.0
C1920 C 0.44838 0.90455 0.19089 0.0
C1921 C 0.40889 0.88796 0.17626 0.0
C1922 C 0.44614 0.91684 0.22514 0.0
C1923 C 0.42598 0.91544 0.23382 0.0
H1924 H 0.10329 0.48101 0.239 0.0
H1925 H 0.14746 0.49771 0.12901 0.0
H1926 H 0.14912 0.53342 0.12143 0.0
H1927 H 0.13585 0.55865 0.14354 0.0
H1928 H 0.09365 0.5426 0.25759 0.0
H1929 H 0.09341 0.508 0.26628 0.0
C1930 C 0.1133 0.49259 0.21354 0.0
C1931 C 0.12498 0.48679 0.1841 0.0
C1932 C 0.11447 0.51314 0.21012 0.0
C1933 C 0.13827 0.50193 0.15172 0.0
C1934 C 0.13918 0.52227 0.14747 0.0
C1935 C 0.127 0.54789 0.17095 0.0
C1936 C 0.11446 0.55325 0.19936 0.0
C1937 C 0.12712 0.52796 0.1762 0.0
C1938 C 0.10302 0.53881 0.23447 0.0
C1939 C 0.1029 0.51897 0.23961 0.0
H1940 H 0.45552 0.58916 0.13998 0.0
H1941 H 0.47893 0.56308 0.24209 0.0
H1942 H 0.51198 0.59887 0.25003 0.0
H1943 H 0.5357 0.63697 0.22418 0.0
H1944 H 0.51206 0.66395 0.1254 0.0
H1945 H 0.47746 0.62861 0.12033 0.0
C1946 C 0.46756 0.59136 0.1647 0.0
C1947 C 0.46476 0.57316 0.18981 0.0
C1948 C 0.48659 0.61217 0.16947 0.0
C1949 C 0.48078 0.57651 0.22144 0.0
C1950 C 0.49971 0.59705 0.2262 0.0
C1951 C 0.52277 0.63506 0.20205 0.0
C1952 C 0.52625 0.65278 0.17495 0.0
C1953 C 0.50302 0.61484 0.19971 0.0
C1954 C 0.50954 0.6504 0.14647 0.0
C1955 C 0.48988 0.63022 0.14354 0.0
H1956 H 0.15097 0.64946 0.72453 0.0
H1957 H 0.10288 0.63758 0.62415 0.0
H1958 H 0.09616 0.60034 0.61407 0.0
H1959 H 0.10224 0.57027 0.63614 0.0
H1960 H 0.15126 0.58154 0.73344 0.0
H1961 H 0.15945 0.61976 0.74223 0.0
C1962 C 0.13934 0.63885 0.69994 0.0
C1963 C 0.1272 0.64631 0.67561 0.0
C1964 C 0.13553 0.61721 0.69409 0.0
C1965 C 0.11212 0.6322 0.64396 0.0
C1966 C 0.10827 0.61086 0.63808 0.0
C1967 C 0.11473 0.58114 0.65928 0.0
C1968 C 0.12589 0.57307 0.68465 0.0
C1969 C 0.11952 0.60304 0.66354 0.0
C1970 C 0.14235 0.58739 0.71382 0.0
C1971 C 0.14701 0.60921 0.7188 0.0
H1972 H 0.44529 0.52822 0.64135 0.0
H1973 H 0.43314 0.57233 0.71922 0.0
H1974 H 0.39494 0.54307 0.7306 0.0
H1975 H 0.36462 0.50474 0.71688 0.0
H1976 H 0.37756 0.46182 0.63682 0.0
H1977 H 0.4158 0.49062 0.62839 0.0
C1978 C 0.43441 0.5314 0.6614 0.0
C1979 C 0.4422 0.55241 0.67987 0.0
C1980 C 0.41253 0.51463 0.66737 0.0
C1981 C 0.42761 0.55633 0.70463 0.0
C1982 C 0.40577 0.53957 0.71124 0.0
C1983 C 0.37593 0.50172 0.69801 0.0
C1984 C 0.36823 0.48115 0.67739 0.0
C1985 C 0.39799 0.51862 0.69264 0.0
C1986 C 0.383 0.47753 0.65259 0.0
C1987 C 0.40489 0.49399 0.64784 0.0
H1988 H 0.48749 0.92512 0.67066 0.0
H1989 H 0.43514 0.85736 0.67696 0.0
H1990 H 0.46195 0.84524 0.68097 0.0
H1991 H 0.50029 0.85353 0.68012 0.0
H1992 H 0.55275 0.92084 0.68056 0.0
H1993 H 0.52592 0.93354 0.67759 0.0
C1994 C 0.48182 0.90771 0.67384 0.0
C1995 C 0.45909 0.89224 0.67263 0.0
C1996 C 0.49741 0.90074 0.67724 0.0
C1997 C 0.45238 0.86973 0.67641 0.0
C1998 C 0.46775 0.86272 0.67906 0.0
C1999 C 0.50577 0.87097 0.67958 0.0
C2000 C 0.5284 0.88628 0.67984 0.0
C2001 C 0.49027 0.87803 0.67878 0.0
C2002 C 0.53539 0.90883 0.68017 0.0
C2003 C 0.52006 0.91603 0.67839 0.0
H2004 H 0.23615 0.43833 0.127 0.0
H2005 H 0.24356 0.47652 0.24411 0.0
H2006 H 0.28161 0.48624 0.24981 0.0
H2007 H 0.31273 0.48356 0.22364 0.0
H2008 H 0.30578 0.44333 0.11054 0.0
H2009 H 0.26782 0.43482 0.10163 0.0
C2010 C 0.24602 0.44874 0.15385 0.0
C2011 C 0.23672 0.45696 0.18441 0.0
C2012 C 0.26811 0.45388 0.15799 0.0
C2013 C 0.25008 0.47047 0.2189 0.0
C2014 C 0.27195 0.47587 0.2227 0.0
C2015 C 0.30303 0.4727 0.19726 0.0
C2016 C 0.31243 0.46411 0.16801 0.0
C2017 C 0.28111 0.46759 0.19267 0.0
C2018 C 0.2993 0.45043 0.13349 0.0
C2019 C 0.27745 0.44545 0.12845 0.0
H2020 H 0.5683 0.86603 0.12673 0.0
H2021 H 0.53442 0.85155 0.25163 0.0
H2022 H 0.53797 0.8189 0.26005 0.0
H2023 H 0.55149 0.79477 0.23298 0.0
H2024 H 0.58631 0.80966 0.1092 0.0
H2025 H 0.58141 0.84154 0.09906 0.0
C2026 C 0.56154 0.85563 0.1556 0.0
C2027 C 0.55117 0.86138 0.18855 0.0
C2028 C 0.56376 0.83685 0.1604 0.0
C2029 C 0.54276 0.8478 0.22604 0.0
C2030 C 0.54466 0.82899 0.23076 0.0
C2031 C 0.55771 0.80481 0.20347 0.0
C2032 C 0.56911 0.79971 0.17173 0.0
C2033 C 0.5552 0.82339 0.19828 0.0
C2034 C 0.57748 0.8132 0.13414 0.0
C2035 C 0.5747 0.83145 0.12835 0.0
H2036 H 0.15605 0.71479 0.12273 0.0
H2037 H 0.17038 0.69104 0.24166 0.0
H2038 H 0.20548 0.72571 0.24891 0.0
H2039 H 0.23012 0.76411 0.22478 0.0
H2040 H 0.2158 0.78722 0.10416 0.0
H2041 H 0.1828 0.75153 0.09388 0.0
C2042 C 0.16713 0.71723 0.14975 0.0
C2043 C 0.16084 0.70065 0.18178 0.0
C2044 C 0.18714 0.73711 0.15348 0.0
C2045 C 0.17511 0.70369 0.21673 0.0
C2046 C 0.19505 0.7235 0.22086 0.0
C2047 C 0.22013 0.7612 0.19563 0.0
C2048 C 0.22539 0.77855 0.1656 0.0
C2049 C 0.20104 0.74053 0.18989 0.0
C2050 C 0.212 0.77438 0.12826 0.0
C2051 C 0.1931 0.75394 0.12229 0.0
H2052 H 0.26097 0.21649 0.24234 0.0
H2053 H 0.23617 0.24705 0.15415 0.0
H2054 H 0.22937 0.26491 0.21684 0.0
H2055 H 0.22447 0.2662 0.29767 0.0
H2056 H 0.24992 0.23614 0.38551 0.0
H2057 H 0.26301 0.22413 0.32238 0.0
C2058 C 0.25487 0.22776 0.23682 0.0
C2059 C 0.24921 0.23061 0.19374 0.0
C2060 C 0.25099 0.2379 0.27311 0.0
C2061 C 0.24099 0.24493 0.18691 0.0
C2062 C 0.23689 0.25493 0.22286 0.0
C2063 C 0.2338 0.25792 0.30289 0.0
C2064 C 0.2366 0.25238 0.34618 0.0
C2065 C 0.24102 0.25084 0.26625 0.0
C2066 C 0.2481 0.24106 0.3526 0.0
C2067 C 0.25528 0.23392 0.31642 0.0
H2068 H 0.79219 0.05066 0.22255 0.0
H2069 H 0.75726 0.99222 0.14395 0.0
H2070 H 0.74282 0.96987 0.21106 0.0
H2071 H 0.74582 0.96645 0.29201 0.0
H2072 H 0.78188 0.02494 0.37004 0.0
H2073 H 0.78979 0.04783 0.30392 0.0
C2074 C 0.78062 0.03316 0.2202 0.0
C2075 C 0.77541 0.02315 0.17831 0.0
C2076 C 0.7728 0.02039 0.2591 0.0
C2077 C 0.76102 1.00036 0.1757 0.0
C2078 C 0.75301 0.98755 0.21418 0.0
C2079 C 0.7545 0.98424 0.29469 0.0
C2080 C 0.76279 0.99403 0.33609 0.0
C2081 C 0.75949 0.99728 0.2561 0.0
C2082 C 0.7748 0.01707 0.33886 0.0
C2083 C 0.77959 0.03014 0.30087 0.0
H2084 H 0.99099 0.75683 0.34635 0.0
H2085 H 0.05982 0.7934 0.31403 0.0
H2086 H 0.05111 0.78702 0.23535 0.0
H2087 H 0.02346 0.77618 0.17582 0.0
H2088 H 0.95476 0.73727 0.20801 0.0
H2089 H 0.96374 0.73898 0.28643 0.0
C2090 C 1.00407 0.76268 0.32207 0.0
C2091 C 0.02602 0.77553 0.3359 0.0
C2092 C 0.99891 0.75872 0.27682 0.0
C2093 C 0.04284 0.78321 0.3042 0.0
C2094 C 0.03783 0.77977 0.25916 0.0
C2095 C 0.01055 0.76739 0.19993 0.0
C2096 C 0.98849 0.7566 0.18617 0.0
C2097 C 0.01588 0.76826 0.24502 0.0
C2098 C 0.97186 0.74543 0.2177 0.0
C2099 C 0.977 0.74663 0.26264 0.0
H2100 H 0.75196 0.79446 0.78414 0.0
H2101 H 0.77886 0.76461 0.86876 0.0
H2102 H 0.78662 0.74845 0.80451 0.0
H2103 H 0.79207 0.74895 0.72376 0.0
H2104 H 0.76563 0.7792 0.63898 0.0
H2105 H 0.75096 0.78873 0.7033 0.0
C2106 C 0.75856 0.78354 0.78853 0.0
C2107 C 0.76445 0.78034 0.83119 0.0
C2108 C 0.76337 0.7747 0.75118 0.0
C2109 C 0.77367 0.7668 0.83643 0.0
C2110 C 0.77839 0.75784 0.79957 0.0
C2111 C 0.78225 0.75678 0.71937 0.0
C2112 C 0.77965 0.7631 0.67666 0.0
C2113 C 0.77419 0.76248 0.75669 0.0
C2114 C 0.76744 0.77376 0.67136 0.0
C2115 C 0.75929 0.77945 0.70827 0.0
H2116 H 0.25687 0.04421 0.73 0.0
H2117 H 0.23087 0.98468 0.65401 0.0
H2118 H 0.22517 0.96324 0.72173 0.0
H2119 H 0.22162 0.96098 0.80322 0.0
H2120 H 0.24635 0.02051 0.87887 0.0
H2121 H 0.25903 0.04251 0.81116 0.0
C2122 C 0.25077 0.02665 0.7283 0.0
C2123 C 0.2446 0.01602 0.68716 0.0
C2124 C 0.24717 0.01445 0.76752 0.0
C2125 C 0.23615 0.99322 0.68525 0.0
C2126 C 0.23268 0.98096 0.72405 0.0
C2127 C 0.23072 0.97881 0.80486 0.0
C2128 C 0.23356 0.98919 0.84601 0.0
C2129 C 0.23735 0.99129 0.7655 0.0
C2130 C 0.24457 0.01224 0.84771 0.0
C2131 C 0.25152 0.02479 0.80889 0.0
H2132 H 0.05092 0.25618 0.79597 0.0
H2133 H 0.99387 0.2366 0.87721 0.0
H2134 H 0.97094 0.22799 0.81098 0.0
H2135 H 0.96649 0.22011 0.73044 0.0
H2136 H 0.02384 0.23974 0.65004 0.0
H2137 H 0.04735 0.2547 0.71486 0.0
C2138 C 0.03359 0.25083 0.79902 0.0
C2139 C 0.02411 0.24725 0.84137 0.0
C2140 C 0.02055 0.24574 0.76076 0.0
C2141 C 1.0016 0.2399 0.84501 0.0
C2142 C 0.98846 0.23473 0.80708 0.0
C2143 C 0.9842 0.22858 0.72695 0.0
C2144 C 0.99345 0.22923 0.68526 0.0
C2145 C 0.99763 0.23681 0.76481 0.0
C2146 C 0.01636 0.23953 0.6814 0.0
C2147 C 0.0298 0.24783 0.71868 0.0
H2148 H 0.91633 0.53419 0.57225 0.0
H2149 H 0.91449 0.58582 0.49908 0.0
H2150 H 0.90793 0.60028 0.56775 0.0
H2151 H 0.89656 0.5941 0.64705 0.0
H2152 H 0.89772 0.54151 0.71809 0.0
H2153 H 0.91119 0.53185 0.65248 0.0
C2154 C 0.91517 0.54903 0.57159 0.0
C2155 C 0.91593 0.55897 0.53079 0.0
C2156 C 0.91116 0.55698 0.61101 0.0
C2157 C 0.91425 0.57807 0.53018 0.0
C2158 C 0.91027 0.58618 0.56944 0.0
C2159 C 0.90071 0.58118 0.64849 0.0
C2160 C 0.89652 0.56874 0.68758 0.0
C2161 C 0.9079 0.57528 0.60991 0.0
C2162 C 0.90121 0.55154 0.68868 0.0
C2163 C 0.90867 0.54585 0.65098 0.0
H2164 H 0.45428 0.37909 0.56595 0.0
H2165 H 0.42863 0.32322 0.47924 0.0
H2166 H 0.41264 0.29829 0.54237 0.0
H2167 H 0.41249 0.29264 0.62311 0.0
H2168 H 0.4384 0.34854 0.70982 0.0
H2169 H 0.4474 0.37326 0.64627 0.0
C2170 C 0.44427 0.36149 0.56082 0.0
C2171 C 0.44229 0.35297 0.51797 0.0
C2172 C 0.4355 0.34728 0.59751 0.0
C2173 C 0.4299 0.33014 0.51175 0.0
C2174 C 0.42104 0.31588 0.54799 0.0
C2175 C 0.41921 0.31016 0.62802 0.0
C2176 C 0.4245 0.31879 0.67103 0.0
C2177 C 0.4246 0.32426 0.59116 0.0
C2178 C 0.43375 0.34153 0.67709 0.0
C2179 C 0.43914 0.35567 0.64068 0.0
H2180 H 0.72041 0.13892 0.61316 0.0
H2181 H 0.6632 0.09295 0.68646 0.0
H2182 H 0.64352 0.07696 0.61722 0.0
H2183 H 0.64084 0.08081 0.53622 0.0
H2184 H 0.69787 0.1282 0.4642 0.0
H2185 H 0.7196 0.13854 0.53195 0.0
C2186 C 0.70389 0.12484 0.61383 0.0
C2187 C 0.69331 0.1169 0.65472 0.0
C2188 C 0.69264 0.11612 0.57392 0.0
C2189 C 0.67178 0.09901 0.65538 0.0
C2190 C 0.66048 0.09006 0.61574 0.0
C2191 C 0.65828 0.09264 0.53518 0.0
C2192 C 0.66791 0.10339 0.49508 0.0
C2193 C 0.67048 0.09904 0.5748 0.0
C2194 C 0.69029 0.11932 0.49439 0.0
C2195 C 0.70262 0.12545 0.53329 0.0
H2196 H 0.42383 0.13722 0.12607 0.0
H2197 H 0.42971 0.08806 0.20002 0.0
H2198 H 0.43583 0.07333 0.13128 0.0
H2199 H 0.4461 0.0791 0.05153 0.0
H2200 H 0.44135 0.12952 0.97963 0.0
H2201 H 0.42766 0.13876 0.04551 0.0
C2202 C 0.42567 0.12277 0.12689 0.0
C2203 C 0.42619 0.11362 0.16787 0.0
C2204 C 0.42954 0.11474 0.08741 0.0
C2205 C 0.4289 0.09513 0.16877 0.0
C2206 C 0.43264 0.08689 0.12946 0.0
C2207 C 0.44107 0.09138 0.04997 0.0
C2208 C 0.44435 0.10339 1.01059 0.0
C2209 C 0.43386 0.09712 0.08869 0.0
C2210 C 0.43856 0.11982 1.00931 0.0
C2211 C 0.43098 0.12528 0.04715 0.0
H2212 H 0.92634 0.35686 0.19365 0.0
H2213 H 0.89146 0.28743 0.16579 0.0
H2214 H 0.89784 0.29519 0.08666 0.0
H2215 H 0.90794 0.32202 0.02516 0.0
H2216 H 0.94507 0.3914 0.05303 0.0
H2217 H 0.94366 0.3835 0.13208 0.0
C2218 C 0.92095 0.34345 0.17031 0.0
C2219 C 0.90858 0.32158 0.18563 0.0
C2220 C 0.92485 0.34808 0.12473 0.0
C2221 C 0.90137 0.30436 0.15498 0.0
C2222 C 0.90477 0.30883 0.10961 0.0
C2223 C 0.91644 0.33535 0.04847 0.0
C2224 C 0.92667 0.35728 0.03319 0.0
C2225 C 0.91574 0.33064 0.094 0.0
C2226 C 0.93739 0.37441 0.0638 0.0
C2227 C 0.93635 0.36988 0.10913 0.0
H2228 H 0.62935 0.55044 0.05057 0.0
H2229 H 0.68708 0.5772 0.96867 0.0
H2230 H 0.71042 0.59278 0.03386 0.0
H2231 H 0.71421 0.59278 0.11501 0.0
H2232 H 0.65653 0.56553 0.19708 0.0
H2233 H 0.63328 0.55654 0.13138 0.0
C2234 C 0.64702 0.5605 0.04696 0.0
C2235 C 0.65653 0.56302 1.00486 0.0
C2236 C 0.66029 0.56907 0.0848 0.0
C2237 C 0.67942 0.57551 1.00057 0.0
C2238 C 0.69275 0.58417 0.03796 0.0
C2239 C 0.69661 0.58576 0.11843 0.0
C2240 C 0.68707 0.58016 0.16079 0.0
C2241 C 0.68339 0.58028 0.08037 0.0
C2242 C 0.66423 0.57048 0.16492 0.0
C2243 C 0.65094 0.56507 0.12726 0.0
H2244 H 0.556 0.92972 0.96476 0.0
H2245 H 0.58481 0.8977 0.03704 0.0
H2246 H 0.59849 0.8907 0.96814 0.0
H2247 H 0.59624 0.88777 0.88686 0.0
H2248 H 0.56528 0.91758 0.81441 0.0
H2249 H 0.55881 0.93178 0.88325 0.0
C2250 C 0.56614 0.92211 0.96542 0.0
C2251 C 0.5699 0.91471 1.00596 0.0
C2252 C 0.57327 0.91748 0.92538 0.0
C2253 C 0.58227 0.90408 1.00637 0.0
C2254 C 0.58983 0.89982 0.96687 0.0
C2255 C 0.58894 0.89819 0.88613 0.0
C2256 C 0.58167 0.90207 0.8456 0.0
C2257 C 0.58465 0.90564 0.92608 0.0
C2258 C 0.5715 0.91489 0.84507 0.0
C2259 C 0.56756 0.92276 0.88454 0.0
H2260 H 0.12198 0.69488 0.01888 0.0
H2261 H 0.08057 0.6256 0.99394 0.0
H2262 H 0.08217 0.6328 0.91457 0.0
H2263 H 0.10015 0.65844 0.85183 0.0
H2264 H 0.13898 0.72799 0.87688 0.0
H2265 H 0.13334 0.72123 0.95637 0.0
C2266 C 0.11268 0.68148 0.99609 0.0
C2267 C 0.10114 0.65975 0.0122 0.0
C2268 C 0.11344 0.68581 0.95044 0.0
C2269 C 0.08931 0.64248 0.9824 0.0
C2270 C 0.09043 0.64658 0.93693 0.0
C2271 C 0.1067 0.67212 0.87471 0.0
C2272 C 0.11993 0.69368 0.85857 0.0
C2273 C 0.10309 0.6681 0.92045 0.0
C2274 C 0.12851 0.71129 0.88848 0.0
C2275 C 0.12547 0.7074 0.934 0.0
H2276 H 0.2973 0.41941 0.90461 0.0
H2277 H 0.35322 0.44594 0.81764 0.0
H2278 H 0.37783 0.45559 0.88128 0.0
H2279 H 0.38344 0.46213 0.96172 0.0
H2280 H 0.32755 0.43471 0.04881 0.0
H2281 H 0.30284 0.41933 0.98545 0.0
C2282 C 0.31483 0.42652 0.89966 0.0
C2283 C 0.32347 0.43179 0.85652 0.0
C2284 C 0.32884 0.43207 0.93654 0.0
C2285 C 0.3462 0.44136 0.85043 0.0
C2286 C 0.36027 0.44711 0.8869 0.0
C2287 C 0.36588 0.452 0.96684 0.0
C2288 C 0.35731 0.4494 1.00991 0.0
C2289 C 0.35182 0.44331 0.93012 0.0
C2290 C 0.33454 0.43662 0.01615 0.0
C2291 C 0.32041 0.42806 0.9798 0.0
H2292 H 0.11499 0.42988 0.51297 0.0
H2293 H 0.07819 0.46232 0.48436 0.0
H2294 H 0.0783 0.45446 0.40568 0.0
H2295 H 0.09428 0.44369 0.34421 0.0
H2296 H 0.12879 0.40896 0.37306 0.0
H2297 H 0.12383 0.4119 0.45227 0.0
C2298 C 0.10631 0.4345 0.48962 0.0
C2299 C 0.09655 0.44663 0.50445 0.0
C2300 C 0.10624 0.42967 0.44438 0.0
C2301 C 0.08554 0.4527 0.47387 0.0
C2302 C 0.08582 0.44841 0.42877 0.0
C2303 C 0.09991 0.436 0.36787 0.0
C2304 C 0.11175 0.42597 0.35281 0.0
C2305 C 0.09683 0.43763 0.41347 0.0
C2306 C 0.11928 0.41637 0.38378 0.0
C2307 C 0.11669 0.41832 0.42914 0.0
H2308 H 0.6012 0.70801 0.37609 0.0
H2309 H 0.55072 0.65445 0.30147 0.0
H2310 H 0.5396 0.63086 0.36673 0.0
H2311 H 0.53998 0.62748 0.44736 0.0
H2312 H 0.58932 0.68082 0.52395 0.0
H2313 H 0.60532 0.70236 0.4562 0.0
C2314 C 0.58844 0.69089 0.37384 0.0
C2315 C 0.57703 0.68285 0.33372 0.0
C2316 C 0.58164 0.67751 0.41225 0.0
C2317 C 0.55999 0.66086 0.33167 0.0
C2318 C 0.55345 0.64743 0.36918 0.0
C2319 C 0.55472 0.64353 0.44898 0.0
C2320 C 0.56363 0.65247 0.49046 0.0
C2321 C 0.56353 0.65584 0.40999 0.0
C2322 C 0.58244 0.67344 0.49232 0.0
C2323 C 0.59142 0.68583 0.45356 0.0
H2324 H 0.29418 0.87797 0.40149 0.0
H2325 H 0.34972 0.92427 0.32467 0.0
H2326 H 0.37106 0.93973 0.3925 0.0
H2327 H 0.37561 0.93529 0.47288 0.0
H2328 H 0.31988 0.88771 0.54786 0.0
H2329 H 0.29677 0.87792 0.48228 0.0
C2330 C 0.31069 0.89202 0.39982 0.0
C2331 C 0.3203 0.90017 0.35829 0.0
C2332 C 0.32288 0.90047 0.43887 0.0
C2333 C 0.34184 0.91804 0.35633 0.0
C2334 C 0.35411 0.92668 0.39515 0.0
C2335 C 0.35818 0.92354 0.47511 0.0
C2336 C 0.34933 0.91248 0.51537 0.0
C2337 C 0.34507 0.91746 0.43658 0.0
C2338 C 0.32692 0.8967 0.51749 0.0
C2339 C 0.31376 0.89091 0.47983 0.0
H2340 H 0.29048 0.22529 0.91476 0.0
H2341 H 0.31944 0.24014 0.04458 0.0
H2342 H 0.35611 0.25838 1.01152 0.0
H2343 H 0.38005 0.26945 0.94585 0.0
H2344 H 0.35109 0.25397 0.81604 0.0
H2345 H 0.31442 0.23671 0.84907 0.0
C2346 C 0.30477 0.2326 0.93599 0.0
C2347 C 0.30202 0.23129 0.98236 0.0
C2348 C 0.32589 0.24294 0.91668 0.0
C2349 C 0.32089 0.24086 1.00897 0.0
C2350 C 0.34193 0.25129 0.99 0.0
C2351 C 0.36576 0.26239 0.9246 0.0
C2352 C 0.36851 0.2631 0.87826 0.0
C2353 C 0.34465 0.25233 0.9439 0.0
C2354 C 0.34964 0.25375 0.85164 0.0
C2355 C 0.3286 0.24384 0.87058 0.0
H2356 H 0.80256 0.09803 0.91416 0.0
H2357 H 0.75286 0.07017 0.01538 0.0
H2358 H 0.72894 0.07887 0.97104 0.0
H2359 H 0.72171 0.09331 0.90177 0.0
H2360 H 0.77263 0.12283 0.8031 0.0
H2361 H 0.79639 0.11442 0.8479 0.0
C2362 C 0.78653 0.09395 0.92678 0.0
C2363 C 0.7795 0.0833 0.96812 0.0
C2364 C 0.77298 0.09912 0.90119 0.0
C2365 C 0.75878 0.07843 0.98395 0.0
C2366 C 0.74503 0.08328 0.95836 0.0
C2367 C 0.73797 0.09778 0.88994 0.0
C2368 C 0.74521 0.10842 0.84856 0.0
C2369 C 0.75184 0.09336 0.9166 0.0
C2370 C 0.76654 0.11454 0.83444 0.0
C2371 C 0.78016 0.10975 0.86017 0.0
H2372 H 0.89323 0.62196 0.95171 0.0
H2373 H 0.90545 0.65018 0.82094 0.0
H2374 H 0.9224 0.68709 0.85289 0.0
H2375 H 0.93316 0.7114 0.91784 0.0
H2376 H 0.92028 0.6832 0.04864 0.0
H2377 H 0.90417 0.64631 0.0167 0.0
C2378 C 0.8997 0.63615 0.92999 0.0
C2379 C 0.89805 0.63308 0.88367 0.0
C2380 C 0.90925 0.6574 0.94869 0.0
C2381 C 0.90649 0.65184 0.8565 0.0
C2382 C 0.91616 0.67302 0.87485 0.0
C2383 C 0.92688 0.69724 0.93957 0.0
C2384 C 0.92803 0.70027 0.98588 0.0
C2385 C 0.91753 0.676 0.92089 0.0
C2386 C 0.91971 0.68154 0.01308 0.0
C2387 C 0.91047 0.66038 0.99474 0.0
H2388 H 0.239 0.28931 0.61915 0.0
H2389 H 0.23511 0.32725 0.51127 0.0
H2390 H 0.25287 0.36063 0.55705 0.0
H2391 H 0.26835 0.37876 0.62976 0.0
H2392 H 0.2731 0.33986 0.73506 0.0
H2393 H 0.25613 0.30733 0.68854 0.0
C2394 C 0.24213 0.3049 0.60539 0.0
C2395 C 0.2356 0.30568 0.56175 0.0
C2396 C 0.25242 0.32393 0.63177 0.0
C2397 C 0.24006 0.32613 0.54455 0.0
C2398 C 0.25009 0.3452 0.57093 0.0
C2399 C 0.2657 0.36316 0.64243 0.0
C2400 C 0.272 0.3619 0.68624 0.0
C2401 C 0.25614 0.34429 0.6149 0.0
C2402 C 0.26856 0.34151 0.70174 0.0
C2403 C 0.25879 0.32279 0.67508 0.0
H2404 H 0.63274 0.87571 0.58916 0.0
H2405 H 0.65089 0.92837 0.68219 0.0
H2406 H 0.68362 0.9522 0.63769 0.0
H2407 H 0.70645 0.95837 0.57045 0.0
H2408 H 0.68902 0.90445 0.48085 0.0
H2409 H 0.65666 0.8809 0.52566 0.0
C2410 C 0.64388 0.89239 0.59994 0.0
C2411 C 0.63915 0.90027 0.63896 0.0
C2412 C 0.66275 0.90584 0.57444 0.0
C2413 C 0.65405 0.92183 0.65253 0.0
C2414 C 0.67272 0.93549 0.62685 0.0
C2415 C 0.69552 0.94148 0.56063 0.0
C2416 C 0.70008 0.93335 0.52167 0.0
C2417 C 0.67712 0.92776 0.5874 0.0
C2418 C 0.68594 0.91125 0.51023 0.0
C2419 C 0.6674 0.89775 0.53596 0.0
H2420 H 0.07692 0.78284 0.60915 0.0
H2421 H 0.09404 0.76942 0.48074 0.0
H2422 H 0.11368 0.75283 0.5158 0.0
H2423 H 0.12627 0.74248 0.58272 0.0
H2424 H 0.1099 0.75668 0.71114 0.0
H2425 H 0.08969 0.77268 0.67609 0.0
C2426 C 0.08485 0.77624 0.5886 0.0
C2427 C 0.08383 0.77737 0.54205 0.0
C2428 C 0.09631 0.76691 0.60906 0.0
C2429 C 0.09441 0.76878 0.51641 0.0
C2430 C 0.10569 0.7593 0.53654 0.0
C2431 C 0.11828 0.74902 0.60328 0.0
C2432 C 0.11965 0.74825 0.64982 0.0
C2433 C 0.10679 0.75832 0.58282 0.0
C2434 C 0.10917 0.75696 0.67547 0.0
C2435 C 0.0976 0.76612 0.65535 0.0
H2436 H 0.7136 0.76278 0.07857 0.0
H2437 H 0.69306 0.79193 0.97755 0.0
H2438 H 0.65959 0.78201 0.01916 0.0
H2439 H 0.63548 0.76413 0.0831 0.0
H2440 H 0.65651 0.73693 0.18702 0.0
H2441 H 0.69046 0.7472 0.14591 0.0
C2442 C 0.70177 0.76693 0.06559 0.0
C2443 C 0.70584 0.77789 0.02439 0.0
C2444 C 0.68265 0.76158 0.09043 0.0
C2445 C 0.69047 0.78349 1.00879 0.0
C2446 C 0.67125 0.77778 0.03267 0.0
C2447 C 0.64753 0.76051 0.09699 0.0
C2448 C 0.64327 0.74955 0.13813 0.0
C2449 C 0.66709 0.76671 0.07336 0.0
C2450 C 0.65929 0.74535 0.15567 0.0
C2451 C 0.67867 0.75113 0.13194 0.0
H2452 H 0.25096 0.90187 0.1845 0.0
H2453 H 0.29174 0.90249 0.07758 0.0
H2454 H 0.27537 0.91746 0.02788 0.0
H2455 H 0.24843 0.92965 0.01304 0.0
H2456 H 0.20804 0.92938 0.12055 0.0
H2457 H 0.22504 0.91526 0.17038 0.0
C2458 C 0.25646 0.90554 0.15052 0.0
C2459 C 0.27261 0.90091 0.13521 0.0
C2460 C 0.24682 0.91417 0.12146 0.0
C2461 C 0.27929 0.90569 0.09068 0.0
C2462 C 0.26988 0.91428 0.0619 0.0
C2463 C 0.24336 0.92652 0.04733 0.0
C2464 C 0.22686 0.93068 0.06247 0.0
C2465 C 0.25341 0.9184 0.07663 0.0
C2466 C 0.22069 0.9265 0.10738 0.0
C2467 C 0.23043 0.91836 0.1363 0.0
H2468 H 0.08158 0.30116 0.07039 0.0
H2469 H 0.06294 0.33408 0.97398 0.0
H2470 H 0.07976 0.36741 0.0184 0.0
H2471 H 0.10017 0.38774 0.08375 0.0
H2472 H 0.11754 0.35537 0.18349 0.0
H2473 H 0.10066 0.32145 0.13935 0.0
C2474 C 0.08126 0.31566 0.05914 0.0
C2475 C 0.07104 0.31501 0.01846 0.0
C2476 C 0.09063 0.33491 0.0857 0.0
C2477 C 0.07058 0.33394 1.0049 0.0
C2478 C 0.08023 0.3531 0.03037 0.0
C2479 C 0.1002 0.37325 0.09611 0.0
C2480 C 0.11023 0.37425 0.13702 0.0
C2481 C 0.09031 0.35382 0.07074 0.0
C2482 C 0.10985 0.35514 0.15241 0.0
C2483 C 0.1003 0.33575 0.12692 0.0
H2484 H 0.71878 0.63436 0.41204 0.0
H2485 H 0.76699 0.65434 0.308 0.0
H2486 H 0.79115 0.68805 0.3479 0.0
H2487 H 0.79879 0.71209 0.41165 0.0
H2488 H 0.75217 0.69223 0.51856 0.0
H2489 H 0.72737 0.65823 0.47857 0.0
C2490 C 0.73452 0.64616 0.39793 0.0
C2491 C 0.74082 0.64176 0.35643 0.0
C2492 C 0.7487 0.66551 0.42178 0.0
C2493 C 0.76152 0.65715 0.3394 0.0
C2494 C 0.77541 0.6765 0.36236 0.0
C2495 C 0.78318 0.7004 0.42645 0.0
C2496 C 0.77734 0.70497 0.46814 0.0
C2497 C 0.76919 0.68087 0.40347 0.0
C2498 C 0.75717 0.68928 0.4867 0.0
C2499 C 0.74294 0.66984 0.46365 0.0
H2500 H 0.38157 0.11545 0.44719 0.0
H2501 H 0.3532 0.10197 0.31684 0.0
H2502 H 0.31642 0.08162 0.34917 0.0
H2503 H 0.29224 0.0685 0.41437 0.0
H2504 H 0.32056 0.08224 0.54477 0.0
H2505 H 0.35739 0.10149 0.5124 0.0
C2506 C 0.36739 0.10802 0.42569 0.0
C2507 C 0.37031 0.11037 0.37941 0.0
C2508 C 0.34622 0.09635 0.44458 0.0
C2509 C 0.35159 0.1005 0.3524 0.0
C2510 C 0.3305 0.08885 0.37094 0.0
C2511 C 0.30643 0.07557 0.43589 0.0
C2512 C 0.30346 0.07386 0.48219 0.0
C2513 C 0.32761 0.08678 0.41698 0.0
C2514 C 0.3222 0.0832 0.50919 0.0
C2515 C 0.34331 0.09429 0.49062 0.0
H2516 H 0.91833 0.26387 0.356 0.0
H2517 H 0.88093 0.2668 0.46591 0.0
H2518 H 0.89563 0.24945 0.51368 0.0
H2519 H 0.91847 0.232 0.52484 0.0
H2520 H 0.95638 0.2298 0.41515 0.0
H2521 H 0.94256 0.24822 0.36808 0.0
C2522 C 0.9134 0.26071 0.39035 0.0
C2523 C 0.89842 0.26671 0.40684 0.0
C2524 C 0.9222 0.25083 0.41838 0.0
C2525 C 0.89245 0.26253 0.45183 0.0
C2526 C 0.90088 0.25254 0.47951 0.0
C2527 C 0.924 0.23592 0.49092 0.0
C2528 C 0.93848 0.22937 0.47391 0.0
C2529 C 0.91578 0.24653 0.46331 0.0
C2530 C 0.94517 0.23445 0.42945 0.0
C2531 C 0.93721 0.24499 0.40218 0.0
H2532 H 0.05257 0.61054 0.2856 0.0
H2533 H 0.02506 0.59514 0.15455 0.0
H2534 H 0.98805 0.57553 0.18608 0.0
H2535 H 0.9635 0.56178 0.25079 0.0
H2536 H 0.99105 0.57656 0.38183 0.0
H2537 H 0.02799 0.59736 0.35028 0.0
C2538 C 0.03852 0.60303 0.26374 0.0
C2539 C 0.04178 0.60444 0.21749 0.0
C2540 C 0.01723 0.59156 0.28218 0.0
C2541 C 0.02321 0.59447 0.19008 0.0
C2542 C 1.00199 0.58317 0.20818 0.0
C2543 C 0.97753 0.5696 0.27263 0.0
C2544 C 0.97432 0.5675 0.31888 0.0
C2545 C 0.9988 0.58146 0.25418 0.0
C2546 C 0.99287 0.57782 0.34629 0.0
C2547 C 0.01405 0.58973 0.32818 0.0
H2548 H 0.4309 0.46988 0.27129 0.0
H2549 H 0.39519 0.42042 0.17293 0.0
H2550 H 0.40453 0.39517 0.21097 0.0
H2551 H 0.42203 0.38686 0.27422 0.0
H2552 H 0.45906 0.43779 0.36938 0.0
H2553 H 0.4499 0.4626 0.33076 0.0
C2554 C 0.42511 0.45358 0.25792 0.0
C2555 C 0.41208 0.44704 0.21935 0.0
C2556 C 0.43071 0.43932 0.27975 0.0
C2557 C 0.40518 0.42596 0.2024 0.0
C2558 C 0.41046 0.41148 0.22438 0.0
C2559 C 0.42806 0.40338 0.2866 0.0
C2560 C 0.44107 0.41024 0.32536 0.0
C2561 C 0.42304 0.41789 0.26344 0.0
C2562 C 0.44899 0.43188 0.34013 0.0
C2563 C 0.44374 0.44615 0.31792 0.0
H2564 H 0.56483 0.99101 0.17402 0.0
H2565 H 0.60735 0.96734 0.21955 0.0
H2566 H 0.6238 0.99701 0.27333 0.0
H2567 H 0.62739 0.03098 0.3067 0.0
H2568 H 0.58728 0.05645 0.25641 0.0
H2569 H 0.56874 0.02515 0.2066 0.0
C2570 C 0.57767 0.99232 0.19572 0.0
C2571 C 0.58479 0.97682 0.19221 0.0
C2572 C 0.58753 0.00987 0.22645 0.0
C2573 C 0.60156 0.97901 0.22082 0.0
C2574 C 0.611 0.99601 0.25196 0.0
C2575 C 0.61432 0.02942 0.2854 0.0
C2576 C 0.60833 0.0458 0.28643 0.0
C2577 C 0.60425 0.01168 0.25508 0.0
C2578 C 0.59185 0.04384 0.25736 0.0
C2579 C 0.58133 0.02599 0.2284 0.0
H2580 H 0.40923 0.96226 0.77865 0.0
H2581 H 0.42322 0.99243 0.6496 0.0
H2582 H 0.44075 0.02889 0.68374 0.0
H2583 H 0.45279 0.0523 0.75001 0.0
H2584 H 0.4395 0.02228 0.87916 0.0
H2585 H 0.421 0.98575 0.84512 0.0
C2586 C 0.41602 0.97676 0.75779 0.0
C2587 C 0.41477 0.97438 0.71127 0.0
C2588 C 0.42626 0.99778 0.77777 0.0
C2589 C 0.4238 0.99356 0.68525 0.0
C2590 C 0.43389 0.01448 0.70486 0.0
C2591 C 0.4458 0.03782 0.77096 0.0
C2592 C 0.44761 0.04026 0.81744 0.0
C2593 C 0.43531 0.0168 0.75106 0.0
C2594 C 0.43839 0.0211 0.84354 0.0
C2595 C 0.42782 1.00014 0.82398 0.0
H2596 H 0.05677 0.4543 0.78218 0.0
H2597 H 0.02612 0.4385 0.65394 0.0
H2598 H 0.98991 0.41895 0.68901 0.0
H2599 H 0.96685 0.40674 0.75602 0.0
H2600 H 0.99748 0.42325 0.88425 0.0
H2601 H 0.03372 0.44204 0.84917 0.0
C2602 C 0.04221 0.44654 0.76171 0.0
C2603 C 0.04436 0.44793 0.71518 0.0
C2604 C 0.02137 0.43543 0.78219 0.0
C2605 C 0.02514 0.43776 0.68961 0.0
C2606 C 1.00437 0.42656 0.70974 0.0
C2607 C 0.98141 0.41436 0.77648 0.0
C2608 C 0.97926 0.41343 0.82301 0.0
C2609 C 1.00227 0.42533 0.756 0.0
C2610 C 0.99848 0.42356 0.84857 0.0
C2611 C 0.01926 0.43437 0.82844 0.0
H2612 H 0.54561 0.58574 0.75814 0.0
H2613 H 0.59059 0.60721 0.64826 0.0
H2614 H 0.61447 0.59709 0.68899 0.0
H2615 H 0.62315 0.58327 0.75754 0.0
H2616 H 0.57647 0.5598 0.86469 0.0
H2617 H 0.5528 0.56965 0.82358 0.0
C2618 C 0.5606 0.58811 0.74289 0.0
C2619 C 0.56636 0.5974 0.7002 0.0
C2620 C 0.57406 0.58205 0.76633 0.0
C2621 C 0.58568 0.60003 0.68087 0.0
C2622 C 0.59941 0.59438 0.70436 0.0
C2623 C 0.60784 0.58042 0.77195 0.0
C2624 C 0.6018 0.57107 0.81466 0.0
C2625 C 0.59392 0.58563 0.74741 0.0
C2626 C 0.58164 0.56702 0.83224 0.0
C2627 C 0.56806 0.57266 0.80864 0.0
loop_
_geom_bond_atom_site_label_1
_geom_bond_atom_site_label_2
_geom_bond_distance
_geom_bond_site_symmetry_2
_ccdc_geom_bond_type
C0 C1 1.351 . S
C0 N3 1.368 . S
C0 H5 0.931 . S
C1 C0 1.351 . S
C1 N2 1.373 . S
C1 H29 0.930 . S
N2 C1 1.373 . S
N2 C4 1.340 . S
N3 C0 1.368 . S
N3 C4 1.321 . S
N3 Co6 2.135 . S
C4 N2 1.340 . S
C4 N3 1.321 . S
C4 H28 0.930 . S
H5 C0 0.931 . S
Co6 N3 2.135 . S
Co6 N9 2.121 . S
Co6 O14 2.055 . S
Co6 O17 2.039 . S
Co6 N20 2.140 . S
C7 O8 1.227 1_554 S
C7 O17 1.265 . S
O8 C7 1.227 1_556 S
N9 Co6 2.121 . S
N9 C11 1.375 1_554 S
N9 C12 1.313 . S
C10 C11 1.338 . S
C10 N13 1.377 1_556 S
C10 H30 0.930 . S
C11 N9 1.375 1_556 S
C11 C10 1.338 . S
C11 H15 0.931 . S
C12 N9 1.313 . S
C12 N13 1.344 . S
C12 H16 0.930 . S
N13 C10 1.377 1_554 S
N13 C12 1.344 . S
O14 Co6 2.055 . S
O14 C18 1.253 . S
H15 C11 0.931 . S
H16 C12 0.930 . S
O17 Co6 2.039 . S
O17 C7 1.265 . S
C18 O14 1.253 . S
C18 O19 1.227 . S
O19 C18 1.227 . S
N20 Co6 2.140 . S
N20 C23 1.346 . S
N20 C24 1.345 . S
C21 C22 1.387 . S
C21 C25 1.391 . S
C22 C21 1.387 . S
C22 C23 1.369 . S
C22 H31 0.929 . S
C23 N20 1.346 . S
C23 C22 1.369 . S
C23 H26 0.928 . S
C24 N20 1.345 . S
C24 C25 1.371 . S
C24 H27 0.931 . S
C25 C21 1.391 . S
C25 C24 1.371 . S
C25 H32 0.930 . S
H26 C23 0.928 . S
H27 C24 0.931 . S
H28 C4 0.930 . S
H29 C1 0.930 . S
H30 C10 0.930 . S
H31 C22 0.929 . S
H32 C25 0.930 . S
C33 C34 1.351 . S
C33 N36 1.368 . S
C33 H38 0.931 . S
C34 C33 1.351 . S
C34 N35 1.373 . S
C34 H62 0.930 . S
N35 C34 1.373 . S
N35 C37 1.340 . S
N36 C33 1.368 . S
N36 C37 1.321 . S
N36 Co39 2.135 . S
C37 N35 1.340 . S
C37 N36 1.321 . S
C37 H61 0.930 . S
H38 C33 0.931 . S
Co39 N36 2.135 . S
Co39 N42 2.121 . S
Co39 O47 2.055 . S
Co39 O50 2.039 . S
Co39 N53 2.140 . S
C40 O41 1.227 1_554 S
C40 O50 1.265 . S
O41 C40 1.227 1_556 S
N42 Co39 2.121 . S
N42 C44 1.375 1_554 S
N42 C45 1.313 . S
C43 C44 1.338 . S
C43 N46 1.377 1_556 S
C43 H63 0.930 . S
C44 N42 1.375 1_556 S
C44 C43 1.338 . S
C44 H48 0.931 . S
C45 N42 1.313 . S
C45 N46 1.344 . S
C45 H49 0.930 . S
N46 C43 1.377 1_554 S
N46 C45 1.344 . S
O47 Co39 2.055 . S
O47 C51 1.253 . S
H48 C44 0.931 . S
H49 C45 0.930 . S
O50 Co39 2.039 . S
O50 C40 1.265 . S
C51 O47 1.253 . S
C51 O52 1.227 . S
O52 C51 1.227 . S
N53 Co39 2.140 . S
N53 C56 1.346 . S
N53 C57 1.345 . S
C54 C55 1.387 . S
C54 C58 1.391 . S
C55 C54 1.387 . S
C55 C56 1.369 . S
C55 H64 0.929 . S
C56 N53 1.346 . S
C56 C55 1.369 . S
C56 H59 0.928 . S
C57 N53 1.345 . S
C57 C58 1.371 . S
C57 H60 0.931 . S
C58 C54 1.391 . S
C58 C57 1.371 . S
C58 H65 0.930 . S
H59 C56 0.928 . S
H60 C57 0.931 . S
H61 C37 0.930 . S
H62 C34 0.930 . S
H63 C43 0.930 . S
H64 C55 0.929 . S
H65 C58 0.930 . S
C66 C67 1.351 . S
C66 N69 1.368 . S
C66 H71 0.931 . S
C67 C66 1.351 . S
C67 N68 1.373 . S
C67 H95 0.930 . S
N68 C67 1.373 . S
N68 C70 1.340 . S
N69 C66 1.368 . S
N69 C70 1.321 . S
N69 Co72 2.135 . S
C70 N68 1.340 . S
C70 N69 1.321 . S
C70 H94 0.930 . S
H71 C66 0.931 . S
Co72 N69 2.135 . S
Co72 N75 2.121 . S
Co72 O80 2.055 . S
Co72 O83 2.039 . S
Co72 N86 2.140 . S
C73 O74 1.227 1_554 S
C73 O83 1.265 . S
O74 C73 1.227 1_556 S
N75 Co72 2.121 . S
N75 C77 1.375 1_554 S
N75 C78 1.313 . S
C76 C77 1.338 . S
C76 N79 1.377 1_556 S
C76 H96 0.930 . S
C77 N75 1.375 1_556 S
C77 C76 1.338 . S
C77 H81 0.931 . S
C78 N75 1.313 . S
C78 N79 1.344 . S
C78 H82 0.930 . S
N79 C76 1.377 1_554 S
N79 C78 1.344 . S
O80 Co72 2.055 . S
O80 C84 1.253 . S
H81 C77 0.931 . S
H82 C78 0.930 . S
O83 Co72 2.039 . S
O83 C73 1.265 . S
C84 O80 1.253 . S
C84 O85 1.227 . S
O85 C84 1.227 . S
N86 Co72 2.140 . S
N86 C89 1.346 . S
N86 C90 1.345 . S
C87 C88 1.387 . S
C87 C91 1.391 . S
C88 C87 1.387 . S
C88 C89 1.369 . S
C88 H97 0.929 . S
C89 N86 1.346 . S
C89 C88 1.369 . S
C89 H92 0.928 . S
C90 N86 1.345 . S
C90 C91 1.371 . S
C90 H93 0.931 . S
C91 C87 1.391 . S
C91 C90 1.371 . S
C91 H98 0.930 . S
H92 C89 0.928 . S
H93 C90 0.931 . S
H94 C70 0.930 . S
H95 C67 0.930 . S
H96 C76 0.930 . S
H97 C88 0.929 . S
H98 C91 0.930 . S
C99 C100 1.351 . S
C99 N102 1.368 . S
C99 H104 0.931 . S
C100 C99 1.351 . S
C100 N101 1.373 . S
C100 H128 0.930 . S
N101 C100 1.373 . S
N101 C103 1.340 . S
N102 C99 1.368 . S
N102 C103 1.321 . S
N102 Co105 2.135 . S
C103 N101 1.340 . S
C103 N102 1.321 . S
C103 H127 0.930 . S
H104 C99 0.931 . S
Co105 N102 2.135 . S
Co105 N108 2.121 . S
Co105 O113 2.055 . S
Co105 O116 2.039 . S
Co105 N119 2.140 . S
C106 O107 1.227 . S
C106 O116 1.265 . S
O107 C106 1.227 . S
N108 Co105 2.121 . S
N108 C110 1.375 . S
N108 C111 1.313 . S
C109 C110 1.338 . S
C109 N112 1.377 . S
C109 H129 0.930 . S
C110 N108 1.375 . S
C110 C109 1.338 . S
C110 H114 0.931 . S
C111 N108 1.313 . S
C111 N112 1.344 . S
C111 H115 0.930 . S
N112 C109 1.377 . S
N112 C111 1.344 . S
O113 Co105 2.055 . S
O113 C117 1.253 . S
H114 C110 0.931 . S
H115 C111 0.930 . S
O116 Co105 2.039 . S
O116 C106 1.265 . S
C117 O113 1.253 . S
C117 O118 1.227 . S
O118 C117 1.227 . S
N119 Co105 2.140 . S
N119 C122 1.346 . S
N119 C123 1.345 . S
C120 C121 1.387 . S
C120 C124 1.391 . S
C121 C120 1.387 . S
C121 C122 1.369 . S
C121 H130 0.929 . S
C122 N119 1.346 . S
C122 C121 1.369 . S
C122 H125 0.928 . S
C123 N119 1.345 . S
C123 C124 1.371 . S
C123 H126 0.931 . S
C124 C120 1.391 . S
C124 C123 1.371 . S
C124 H131 0.930 . S
H125 C122 0.928 . S
H126 C123 0.931 . S
H127 C103 0.930 . S
H128 C100 0.930 . S
H129 C109 0.930 . S
H130 C121 0.929 . S
H131 C124 0.930 . S
C132 C133 1.351 . S
C132 N135 1.368 . S
C132 H137 0.931 . S
C133 C132 1.351 . S
C133 N134 1.373 . S
C133 H161 0.930 . S
N134 C133 1.373 . S
N134 C136 1.340 . S
N135 C132 1.368 . S
N135 C136 1.321 . S
N135 Co138 2.135 . S
C136 N134 1.340 . S
C136 N135 1.321 . S
C136 H160 0.930 . S
H137 C132 0.931 . S
Co138 N135 2.135 . S
Co138 N141 2.121 . S
Co138 O146 2.055 . S
Co138 O149 2.039 . S
Co138 N152 2.140 . S
C139 O140 1.227 . S
C139 O149 1.265 . S
O140 C139 1.227 . S
N141 Co138 2.121 . S
N141 C143 1.375 . S
N141 C144 1.313 . S
C142 C143 1.338 . S
C142 N145 1.377 . S
C142 H162 0.930 . S
C143 N141 1.375 . S
C143 C142 1.338 . S
C143 H147 0.931 . S
C144 N141 1.313 . S
C144 N145 1.344 . S
C144 H148 0.930 . S
N145 C142 1.377 . S
N145 C144 1.344 . S
O146 Co138 2.055 . S
O146 C150 1.253 . S
H147 C143 0.931 . S
H148 C144 0.930 . S
O149 Co138 2.039 . S
O149 C139 1.265 . S
C150 O146 1.253 . S
C150 O151 1.227 . S
O151 C150 1.227 . S
N152 Co138 2.140 . S
N152 C155 1.346 . S
N152 C156 1.345 . S
C153 C154 1.387 . S
C153 C157 1.391 . S
C154 C153 1.387 . S
C154 C155 1.369 . S
C154 H163 0.929 . S
C155 N152 1.346 . S
C155 C154 1.369 . S
C155 H158 0.928 . S
C156 N152 1.345 . S
C156 C157 1.371 . S
C156 H159 0.931 . S
C157 C153 1.391 . S
C157 C156 1.371 . S
C157 H164 0.930 . S
H158 C155 0.928 . S
H159 C156 0.931 . S
H160 C136 0.930 . S
H161 C133 0.930 . S
H162 C142 0.930 . S
H163 C154 0.929 . S
H164 C157 0.930 . S
C165 C166 1.351 . S
C165 N168 1.368 . S
C165 H170 0.931 . S
C166 C165 1.351 . S
C166 N167 1.373 . S
C166 H194 0.930 . S
N167 C166 1.373 . S
N167 C169 1.340 . S
N168 C165 1.368 . S
N168 C169 1.321 . S
N168 Co171 2.135 . S
C169 N167 1.340 . S
C169 N168 1.321 . S
C169 H193 0.930 . S
H170 C165 0.931 . S
Co171 N168 2.135 . S
Co171 N174 2.121 . S
Co171 O179 2.055 . S
Co171 O182 2.039 . S
Co171 N185 2.140 . S
C172 O173 1.227 . S
C172 O182 1.265 . S
O173 C172 1.227 . S
N174 Co171 2.121 . S
N174 C176 1.375 . S
N174 C177 1.313 . S
C175 C176 1.338 . S
C175 N178 1.377 . S
C175 H195 0.930 . S
C176 N174 1.375 . S
C176 C175 1.338 . S
C176 H180 0.931 . S
C177 N174 1.313 . S
C177 N178 1.344 . S
C177 H181 0.930 . S
N178 C175 1.377 . S
N178 C177 1.344 . S
O179 Co171 2.055 . S
O179 C183 1.253 . S
H180 C176 0.931 . S
H181 C177 0.930 . S
O182 Co171 2.039 . S
O182 C172 1.265 . S
C183 O179 1.253 . S
C183 O184 1.227 . S
O184 C183 1.227 . S
N185 Co171 2.140 . S
N185 C188 1.346 . S
N185 C189 1.345 . S
C186 C187 1.387 . S
C186 C190 1.391 . S
C187 C186 1.387 . S
C187 C188 1.369 . S
C187 H196 0.929 . S
C188 N185 1.346 . S
C188 C187 1.369 . S
C188 H191 0.928 . S
C189 N185 1.345 . S
C189 C190 1.371 . S
C189 H192 0.931 . S
C190 C186 1.391 . S
C190 C189 1.371 . S
C190 H197 0.930 . S
H191 C188 0.928 . S
H192 C189 0.931 . S
H193 C169 0.930 . S
H194 C166 0.930 . S
H195 C175 0.930 . S
H196 C187 0.929 . S
H197 C190 0.930 . S
C198 C199 1.351 . S
C198 N201 1.368 . S
C198 H203 0.931 . S
C199 C198 1.351 . S
C199 N200 1.373 . S
C199 H227 0.930 . S
N200 C199 1.373 . S
N200 C202 1.340 . S
N201 C198 1.368 . S
N201 C202 1.321 . S
N201 Co204 2.135 . S
C202 N200 1.340 . S
C202 N201 1.321 . S
C202 H226 0.930 . S
H203 C198 0.931 . S
Co204 N201 2.135 . S
Co204 N207 2.121 . S
Co204 O212 2.055 . S
Co204 O215 2.039 . S
Co204 N218 2.140 . S
C205 O206 1.227 1_556 S
C205 O215 1.265 . S
O206 C205 1.227 1_554 S
N207 Co204 2.121 . S
N207 C209 1.375 1_556 S
N207 C210 1.313 . S
C208 C209 1.338 . S
C208 N211 1.377 1_554 S
C208 H228 0.930 . S
C209 N207 1.375 1_554 S
C209 C208 1.338 . S
C209 H213 0.931 . S
C210 N207 1.313 . S
C210 N211 1.344 . S
C210 H214 0.930 . S
N211 C208 1.377 1_556 S
N211 C210 1.344 . S
O212 Co204 2.055 . S
O212 C216 1.253 . S
H213 C209 0.931 . S
H214 C210 0.930 . S
O215 Co204 2.039 . S
O215 C205 1.265 . S
C216 O212 1.253 . S
C216 O217 1.227 . S
O217 C216 1.227 . S
N218 Co204 2.140 . S
N218 C221 1.346 . S
N218 C222 1.345 . S
C219 C220 1.387 . S
C219 C223 1.391 . S
C220 C219 1.387 . S
C220 C221 1.369 . S
C220 H229 0.929 . S
C221 N218 1.346 . S
C221 C220 1.369 . S
C221 H224 0.928 . S
C222 N218 1.345 . S
C222 C223 1.371 . S
C222 H225 0.931 . S
C223 C219 1.391 . S
C223 C222 1.371 . S
C223 H230 0.930 . S
H224 C221 0.928 . S
H225 C222 0.931 . S
H226 C202 0.930 . S
H227 C199 0.930 . S
H228 C208 0.930 . S
H229 C220 0.929 . S
H230 C223 0.930 . S
C231 C232 1.351 . S
C231 N234 1.368 . S
C231 H236 0.931 . S
C232 C231 1.351 . S
C232 N233 1.373 . S
C232 H260 0.930 . S
N233 C232 1.373 . S
N233 C235 1.340 . S
N234 C231 1.368 . S
N234 C235 1.321 . S
N234 Co237 2.135 . S
C235 N233 1.340 . S
C235 N234 1.321 . S
C235 H259 0.930 . S
H236 C231 0.931 . S
Co237 N234 2.135 . S
Co237 N240 2.121 . S
Co237 O245 2.055 . S
Co237 O248 2.039 . S
Co237 N251 2.140 . S
C238 O239 1.227 1_556 S
C238 O248 1.265 . S
O239 C238 1.227 1_554 S
N240 Co237 2.121 . S
N240 C242 1.375 1_556 S
N240 C243 1.313 . S
C241 C242 1.338 . S
C241 N244 1.377 1_554 S
C241 H261 0.930 . S
C242 N240 1.375 1_554 S
C242 C241 1.338 . S
C242 H246 0.931 . S
C243 N240 1.313 . S
C243 N244 1.344 . S
C243 H247 0.930 . S
N244 C241 1.377 1_556 S
N244 C243 1.344 . S
O245 Co237 2.055 . S
O245 C249 1.253 . S
H246 C242 0.931 . S
H247 C243 0.930 . S
O248 Co237 2.039 . S
O248 C238 1.265 . S
C249 O245 1.253 . S
C249 O250 1.227 . S
O250 C249 1.227 . S
N251 Co237 2.140 . S
N251 C254 1.346 . S
N251 C255 1.345 . S
C252 C253 1.387 . S
C252 C256 1.391 . S
C253 C252 1.387 . S
C253 C254 1.369 . S
C253 H262 0.929 . S
C254 N251 1.346 . S
C254 C253 1.369 . S
C254 H257 0.928 . S
C255 N251 1.345 . S
C255 C256 1.371 . S
C255 H258 0.931 . S
C256 C252 1.391 . S
C256 C255 1.371 . S
C256 H263 0.930 . S
H257 C254 0.928 . S
H258 C255 0.931 . S
H259 C235 0.930 . S
H260 C232 0.930 . S
H261 C241 0.930 . S
H262 C253 0.929 . S
H263 C256 0.930 . S
C264 C265 1.351 . S
C264 N267 1.368 . S
C264 H269 0.931 . S
C265 C264 1.351 . S
C265 N266 1.373 . S
C265 H293 0.930 . S
N266 C265 1.373 . S
N266 C268 1.340 . S
N267 C264 1.368 . S
N267 C268 1.321 . S
N267 Co270 2.135 . S
C268 N266 1.340 . S
C268 N267 1.321 . S
C268 H292 0.930 . S
H269 C264 0.931 . S
Co270 N267 2.135 . S
Co270 N273 2.121 . S
Co270 O278 2.055 . S
Co270 O281 2.039 . S
Co270 N284 2.140 . S
C271 O272 1.227 1_556 S
C271 O281 1.265 . S
O272 C271 1.227 1_554 S
N273 Co270 2.121 . S
N273 C275 1.375 1_556 S
N273 C276 1.313 . S
C274 C275 1.338 . S
C274 N277 1.377 1_554 S
C274 H294 0.930 . S
C275 N273 1.375 1_554 S
C275 C274 1.338 . S
C275 H279 0.931 . S
C276 N273 1.313 . S
C276 N277 1.344 . S
C276 H280 0.930 . S
N277 C274 1.377 1_556 S
N277 C276 1.344 . S
O278 Co270 2.055 . S
O278 C282 1.253 . S
H279 C275 0.931 . S
H280 C276 0.930 . S
O281 Co270 2.039 . S
O281 C271 1.265 . S
C282 O278 1.253 . S
C282 O283 1.227 . S
O283 C282 1.227 . S
N284 Co270 2.140 . S
N284 C287 1.346 . S
N284 C288 1.345 . S
C285 C286 1.387 . S
C285 C289 1.391 . S
C286 C285 1.387 . S
C286 C287 1.369 . S
C286 H295 0.929 . S
C287 N284 1.346 . S
C287 C286 1.369 . S
C287 H290 0.928 . S
C288 N284 1.345 . S
C288 C289 1.371 . S
C288 H291 0.931 . S
C289 C285 1.391 . S
C289 C288 1.371 . S
C289 H296 0.930 . S
H290 C287 0.928 . S
H291 C288 0.931 . S
H292 C268 0.930 . S
H293 C265 0.930 . S
H294 C274 0.930 . S
H295 C286 0.929 . S
H296 C289 0.930 . S
C297 C298 1.351 . S
C297 N300 1.368 . S
C297 H302 0.931 . S
C298 C297 1.351 . S
C298 N299 1.373 . S
C298 H326 0.930 . S
N299 C298 1.373 . S
N299 C301 1.340 . S
N300 C297 1.368 . S
N300 C301 1.321 . S
N300 Co303 2.135 . S
C301 N299 1.340 . S
C301 N300 1.321 . S
C301 H325 0.930 . S
H302 C297 0.931 . S
Co303 N300 2.135 . S
Co303 N306 2.121 . S
Co303 O311 2.055 . S
Co303 O314 2.039 . S
Co303 N317 2.140 . S
C304 O305 1.227 . S
C304 O314 1.265 . S
O305 C304 1.227 . S
N306 Co303 2.121 . S
N306 C308 1.375 . S
N306 C309 1.313 . S
C307 C308 1.338 . S
C307 N310 1.377 . S
C307 H327 0.930 . S
C308 N306 1.375 . S
C308 C307 1.338 . S
C308 H312 0.931 . S
C309 N306 1.313 . S
C309 N310 1.344 . S
C309 H313 0.930 . S
N310 C307 1.377 . S
N310 C309 1.344 . S
O311 Co303 2.055 . S
O311 C315 1.253 . S
H312 C308 0.931 . S
H313 C309 0.930 . S
O314 Co303 2.039 . S
O314 C304 1.265 . S
C315 O311 1.253 . S
C315 O316 1.227 . S
O316 C315 1.227 . S
N317 Co303 2.140 . S
N317 C320 1.346 . S
N317 C321 1.345 . S
C318 C319 1.387 . S
C318 C322 1.391 . S
C319 C318 1.387 . S
C319 C320 1.369 . S
C319 H328 0.929 . S
C320 N317 1.346 . S
C320 C319 1.369 . S
C320 H323 0.928 . S
C321 N317 1.345 . S
C321 C322 1.371 . S
C321 H324 0.931 . S
C322 C318 1.391 . S
C322 C321 1.371 . S
C322 H329 0.930 . S
H323 C320 0.928 . S
H324 C321 0.931 . S
H325 C301 0.930 . S
H326 C298 0.930 . S
H327 C307 0.930 . S
H328 C319 0.929 . S
H329 C322 0.930 . S
C330 C331 1.351 . S
C330 N333 1.368 . S
C330 H335 0.931 . S
C331 C330 1.351 . S
C331 N332 1.373 . S
C331 H359 0.930 . S
N332 C331 1.373 . S
N332 C334 1.340 . S
N333 C330 1.368 . S
N333 C334 1.321 . S
N333 Co336 2.135 . S
C334 N332 1.340 . S
C334 N333 1.321 . S
C334 H358 0.930 . S
H335 C330 0.931 . S
Co336 N333 2.135 . S
Co336 N339 2.121 . S
Co336 O344 2.055 . S
Co336 O347 2.039 . S
Co336 N350 2.140 . S
C337 O338 1.227 . S
C337 O347 1.265 . S
O338 C337 1.227 . S
N339 Co336 2.121 . S
N339 C341 1.375 . S
N339 C342 1.313 . S
C340 C341 1.338 . S
C340 N343 1.377 . S
C340 H360 0.930 . S
C341 N339 1.375 . S
C341 C340 1.338 . S
C341 H345 0.931 . S
C342 N339 1.313 . S
C342 N343 1.344 . S
C342 H346 0.930 . S
N343 C340 1.377 . S
N343 C342 1.344 . S
O344 Co336 2.055 . S
O344 C348 1.253 . S
H345 C341 0.931 . S
H346 C342 0.930 . S
O347 Co336 2.039 . S
O347 C337 1.265 . S
C348 O344 1.253 . S
C348 O349 1.227 . S
O349 C348 1.227 . S
N350 Co336 2.140 . S
N350 C353 1.346 . S
N350 C354 1.345 . S
C351 C352 1.387 . S
C351 C355 1.391 . S
C352 C351 1.387 . S
C352 C353 1.369 . S
C352 H361 0.929 . S
C353 N350 1.346 . S
C353 C352 1.369 . S
C353 H356 0.928 . S
C354 N350 1.345 . S
C354 C355 1.371 . S
C354 H357 0.931 . S
C355 C351 1.391 . S
C355 C354 1.371 . S
C355 H362 0.930 . S
H356 C353 0.928 . S
H357 C354 0.931 . S
H358 C334 0.930 . S
H359 C331 0.930 . S
H360 C340 0.930 . S
H361 C352 0.929 . S
H362 C355 0.930 . S
C363 C364 1.351 . S
C363 N366 1.368 . S
C363 H368 0.931 . S
C364 C363 1.351 . S
C364 N365 1.373 . S
C364 H392 0.930 . S
N365 C364 1.373 . S
N365 C367 1.340 . S
N366 C363 1.368 . S
N366 C367 1.321 . S
N366 Co369 2.135 . S
C367 N365 1.340 . S
C367 N366 1.321 . S
C367 H391 0.930 . S
H368 C363 0.931 . S
Co369 N366 2.135 . S
Co369 N372 2.121 . S
Co369 O377 2.055 . S
Co369 O380 2.039 . S
Co369 N383 2.140 . S
C370 O371 1.227 . S
C370 O380 1.265 . S
O371 C370 1.227 . S
N372 Co369 2.121 . S
N372 C374 1.375 . S
N372 C375 1.313 . S
C373 C374 1.338 . S
C373 N376 1.377 . S
C373 H393 0.930 . S
C374 N372 1.375 . S
C374 C373 1.338 . S
C374 H378 0.931 . S
C375 N372 1.313 . S
C375 N376 1.344 . S
C375 H379 0.930 . S
N376 C373 1.377 . S
N376 C375 1.344 . S
O377 Co369 2.055 . S
O377 C381 1.253 . S
H378 C374 0.931 . S
H379 C375 0.930 . S
O380 Co369 2.039 . S
O380 C370 1.265 . S
C381 O377 1.253 . S
C381 O382 1.227 . S
O382 C381 1.227 . S
N383 Co369 2.140 . S
N383 C386 1.346 . S
N383 C387 1.345 . S
C384 C385 1.387 . S
C384 C388 1.391 . S
C385 C384 1.387 . S
C385 C386 1.369 . S
C385 H394 0.929 . S
C386 N383 1.346 . S
C386 C385 1.369 . S
C386 H389 0.928 . S
C387 N383 1.345 . S
C387 C388 1.371 . S
C387 H390 0.931 . S
C388 C384 1.391 . S
C388 C387 1.371 . S
C388 H395 0.930 . S
H389 C386 0.928 . S
H390 C387 0.931 . S
H391 C367 0.930 . S
H392 C364 0.930 . S
H393 C373 0.930 . S
H394 C385 0.929 . S
H395 C388 0.930 . S
C396 C397 1.351 . S
C396 N399 1.368 . S
C396 H401 0.931 . S
C397 C396 1.351 . S
C397 N398 1.373 . S
C397 H425 0.930 . S
N398 C397 1.373 . S
N398 C400 1.340 . S
N399 C396 1.368 . S
N399 C400 1.321 . S
N399 Co402 2.135 . S
C400 N398 1.340 . S
C400 N399 1.321 . S
C400 H424 0.930 . S
H401 C396 0.931 . S
Co402 N399 2.135 . S
Co402 N405 2.121 . S
Co402 O410 2.055 . S
Co402 O413 2.039 . S
Co402 N416 2.140 . S
C403 O404 1.227 . S
C403 O413 1.265 . S
O404 C403 1.227 . S
N405 Co402 2.121 . S
N405 C407 1.375 . S
N405 C408 1.313 . S
C406 C407 1.338 . S
C406 N409 1.377 . S
C406 H426 0.930 . S
C407 N405 1.375 . S
C407 C406 1.338 . S
C407 H411 0.931 . S
C408 N405 1.313 . S
C408 N409 1.344 . S
C408 H412 0.930 . S
N409 C406 1.377 . S
N409 C408 1.344 . S
O410 Co402 2.055 . S
O410 C414 1.253 . S
H411 C407 0.931 . S
H412 C408 0.930 . S
O413 Co402 2.039 . S
O413 C403 1.265 . S
C414 O410 1.253 . S
C414 O415 1.227 . S
O415 C414 1.227 . S
N416 Co402 2.140 . S
N416 C419 1.346 . S
N416 C420 1.345 . S
C417 C418 1.387 . S
C417 C421 1.391 . S
C418 C417 1.387 . S
C418 C419 1.369 . S
C418 H427 0.929 . S
C419 N416 1.346 . S
C419 C418 1.369 . S
C419 H422 0.928 . S
C420 N416 1.345 . S
C420 C421 1.371 . S
C420 H423 0.931 . S
C421 C417 1.391 . S
C421 C420 1.371 . S
C421 H428 0.930 . S
H422 C419 0.928 . S
H423 C420 0.931 . S
H424 C400 0.930 . S
H425 C397 0.930 . S
H426 C406 0.930 . S
H427 C418 0.929 . S
H428 C421 0.930 . S
C429 C430 1.351 . S
C429 N432 1.368 . S
C429 H434 0.931 . S
C430 C429 1.351 . S
C430 N431 1.373 . S
C430 H458 0.930 . S
N431 C430 1.373 . S
N431 C433 1.340 . S
N432 C429 1.368 . S
N432 C433 1.321 . S
N432 Co435 2.135 . S
C433 N431 1.340 . S
C433 N432 1.321 . S
C433 H457 0.930 . S
H434 C429 0.931 . S
Co435 N432 2.135 . S
Co435 N438 2.121 . S
Co435 O443 2.055 . S
Co435 O446 2.039 . S
Co435 N449 2.140 . S
C436 O437 1.227 . S
C436 O446 1.265 . S
O437 C436 1.227 . S
N438 Co435 2.121 . S
N438 C440 1.375 . S
N438 C441 1.313 . S
C439 C440 1.338 . S
C439 N442 1.377 . S
C439 H459 0.930 . S
C440 N438 1.375 . S
C440 C439 1.338 . S
C440 H444 0.931 . S
C441 N438 1.313 . S
C441 N442 1.344 . S
C441 H445 0.930 . S
N442 C439 1.377 . S
N442 C441 1.344 . S
O443 Co435 2.055 . S
O443 C447 1.253 . S
H444 C440 0.931 . S
H445 C441 0.930 . S
O446 Co435 2.039 . S
O446 C436 1.265 . S
C447 O443 1.253 . S
C447 O448 1.227 . S
O448 C447 1.227 . S
N449 Co435 2.140 . S
N449 C452 1.346 . S
N449 C453 1.345 . S
C450 C451 1.387 . S
C450 C454 1.391 . S
C451 C450 1.387 . S
C451 C452 1.369 . S
C451 H460 0.929 . S
C452 N449 1.346 . S
C452 C451 1.369 . S
C452 H455 0.928 . S
C453 N449 1.345 . S
C453 C454 1.371 . S
C453 H456 0.931 . S
C454 C450 1.391 . S
C454 C453 1.371 . S
C454 H461 0.930 . S
H455 C452 0.928 . S
H456 C453 0.931 . S
H457 C433 0.930 . S
H458 C430 0.930 . S
H459 C439 0.930 . S
H460 C451 0.929 . S
H461 C454 0.930 . S
C462 C463 1.351 . S
C462 N465 1.368 . S
C462 H467 0.931 . S
C463 C462 1.351 . S
C463 N464 1.373 . S
C463 H491 0.930 . S
N464 C463 1.373 . S
N464 C466 1.340 . S
N465 C462 1.368 . S
N465 C466 1.321 . S
N465 Co468 2.135 . S
C466 N464 1.340 . S
C466 N465 1.321 . S
C466 H490 0.930 . S
H467 C462 0.931 . S
Co468 N465 2.135 . S
Co468 N471 2.121 . S
Co468 O476 2.055 . S
Co468 O479 2.039 . S
Co468 N482 2.140 . S
C469 O470 1.227 . S
C469 O479 1.265 . S
O470 C469 1.227 . S
N471 Co468 2.121 . S
N471 C473 1.375 . S
N471 C474 1.313 . S
C472 C473 1.338 . S
C472 N475 1.377 . S
C472 H492 0.930 . S
C473 N471 1.375 . S
C473 C472 1.338 . S
C473 H477 0.931 . S
C474 N471 1.313 . S
C474 N475 1.344 . S
C474 H478 0.930 . S
N475 C472 1.377 . S
N475 C474 1.344 . S
O476 Co468 2.055 . S
O476 C480 1.253 . S
H477 C473 0.931 . S
H478 C474 0.930 . S
O479 Co468 2.039 . S
O479 C469 1.265 . S
C480 O476 1.253 . S
C480 O481 1.227 . S
O481 C480 1.227 . S
N482 Co468 2.140 . S
N482 C485 1.346 . S
N482 C486 1.345 . S
C483 C484 1.387 . S
C483 C487 1.391 . S
C484 C483 1.387 . S
C484 C485 1.369 . S
C484 H493 0.929 . S
C485 N482 1.346 . S
C485 C484 1.369 . S
C485 H488 0.928 . S
C486 N482 1.345 . S
C486 C487 1.371 . S
C486 H489 0.931 . S
C487 C483 1.391 . S
C487 C486 1.371 . S
C487 H494 0.930 . S
H488 C485 0.928 . S
H489 C486 0.931 . S
H490 C466 0.930 . S
H491 C463 0.930 . S
H492 C472 0.930 . S
H493 C484 0.929 . S
H494 C487 0.930 . S
C495 C496 1.351 . S
C495 N498 1.368 . S
C495 H500 0.931 . S
C496 C495 1.351 . S
C496 N497 1.373 . S
C496 H524 0.930 . S
N497 C496 1.373 . S
N497 C499 1.340 . S
N498 C495 1.368 . S
N498 C499 1.321 . S
N498 Co501 2.135 . S
C499 N497 1.340 . S
C499 N498 1.321 . S
C499 H523 0.930 . S
H500 C495 0.931 . S
Co501 N498 2.135 . S
Co501 N504 2.121 . S
Co501 O509 2.055 . S
Co501 O512 2.039 . S
Co501 N515 2.140 . S
C502 O503 1.227 . S
C502 O512 1.265 . S
O503 C502 1.227 . S
N504 Co501 2.121 . S
N504 C506 1.375 . S
N504 C507 1.313 . S
C505 C506 1.338 . S
C505 N508 1.377 . S
C505 H525 0.930 . S
C506 N504 1.375 . S
C506 C505 1.338 . S
C506 H510 0.931 . S
C507 N504 1.313 . S
C507 N508 1.344 . S
C507 H511 0.930 . S
N508 C505 1.377 . S
N508 C507 1.344 . S
O509 Co501 2.055 . S
O509 C513 1.253 . S
H510 C506 0.931 . S
H511 C507 0.930 . S
O512 Co501 2.039 . S
O512 C502 1.265 . S
C513 O509 1.253 . S
C513 O514 1.227 . S
O514 C513 1.227 . S
N515 Co501 2.140 . S
N515 C518 1.346 . S
N515 C519 1.345 . S
C516 C517 1.387 . S
C516 C520 1.391 . S
C517 C516 1.387 . S
C517 C518 1.369 . S
C517 H526 0.929 . S
C518 N515 1.346 . S
C518 C517 1.369 . S
C518 H521 0.928 . S
C519 N515 1.345 . S
C519 C520 1.371 . S
C519 H522 0.931 . S
C520 C516 1.391 . S
C520 C519 1.371 . S
C520 H527 0.930 . S
H521 C518 0.928 . S
H522 C519 0.931 . S
H523 C499 0.930 . S
H524 C496 0.930 . S
H525 C505 0.930 . S
H526 C517 0.929 . S
H527 C520 0.930 . S
C528 C529 1.351 . S
C528 N531 1.368 . S
C528 H533 0.931 . S
C529 C528 1.351 . S
C529 N530 1.373 . S
C529 H557 0.930 . S
N530 C529 1.373 . S
N530 C532 1.340 . S
N531 C528 1.368 . S
N531 C532 1.321 . S
N531 Co534 2.135 . S
C532 N530 1.340 . S
C532 N531 1.321 . S
C532 H556 0.930 . S
H533 C528 0.931 . S
Co534 N531 2.135 . S
Co534 N537 2.121 . S
Co534 O542 2.055 . S
Co534 O545 2.039 . S
Co534 N548 2.140 . S
C535 O536 1.227 . S
C535 O545 1.265 . S
O536 C535 1.227 . S
N537 Co534 2.121 . S
N537 C539 1.375 . S
N537 C540 1.313 . S
C538 C539 1.338 . S
C538 N541 1.377 . S
C538 H558 0.930 . S
C539 N537 1.375 . S
C539 C538 1.338 . S
C539 H543 0.931 . S
C540 N537 1.313 . S
C540 N541 1.344 . S
C540 H544 0.930 . S
N541 C538 1.377 . S
N541 C540 1.344 . S
O542 Co534 2.055 . S
O542 C546 1.253 . S
H543 C539 0.931 . S
H544 C540 0.930 . S
O545 Co534 2.039 . S
O545 C535 1.265 . S
C546 O542 1.253 . S
C546 O547 1.227 . S
O547 C546 1.227 . S
N548 Co534 2.140 . S
N548 C551 1.346 . S
N548 C552 1.345 . S
C549 C550 1.387 . S
C549 C553 1.391 . S
C550 C549 1.387 . S
C550 C551 1.369 . S
C550 H559 0.929 . S
C551 N548 1.346 . S
C551 C550 1.369 . S
C551 H554 0.928 . S
C552 N548 1.345 . S
C552 C553 1.371 . S
C552 H555 0.931 . S
C553 C549 1.391 . S
C553 C552 1.371 . S
C553 H560 0.930 . S
H554 C551 0.928 . S
H555 C552 0.931 . S
H556 C532 0.930 . S
H557 C529 0.930 . S
H558 C538 0.930 . S
H559 C550 0.929 . S
H560 C553 0.930 . S
C561 C562 1.351 . S
C561 N564 1.368 . S
C561 H566 0.931 . S
C562 C561 1.351 . S
C562 N563 1.373 . S
C562 H590 0.930 . S
N563 C562 1.373 . S
N563 C565 1.340 . S
N564 C561 1.368 . S
N564 C565 1.321 . S
N564 Co567 2.135 . S
C565 N563 1.340 . S
C565 N564 1.321 . S
C565 H589 0.930 . S
H566 C561 0.931 . S
Co567 N564 2.135 . S
Co567 N570 2.121 . S
Co567 O575 2.055 . S
Co567 O578 2.039 . S
Co567 N581 2.140 . S
C568 O569 1.227 . S
C568 O578 1.265 . S
O569 C568 1.227 . S
N570 Co567 2.121 . S
N570 C572 1.375 . S
N570 C573 1.313 . S
C571 C572 1.338 . S
C571 N574 1.377 . S
C571 H591 0.930 . S
C572 N570 1.375 . S
C572 C571 1.338 . S
C572 H576 0.931 . S
C573 N570 1.313 . S
C573 N574 1.344 . S
C573 H577 0.930 . S
N574 C571 1.377 . S
N574 C573 1.344 . S
O575 Co567 2.055 . S
O575 C579 1.253 . S
H576 C572 0.931 . S
H577 C573 0.930 . S
O578 Co567 2.039 . S
O578 C568 1.265 . S
C579 O575 1.253 . S
C579 O580 1.227 . S
O580 C579 1.227 . S
N581 Co567 2.140 . S
N581 C584 1.346 . S
N581 C585 1.345 . S
C582 C583 1.387 . S
C582 C586 1.391 . S
C583 C582 1.387 . S
C583 C584 1.369 . S
C583 H592 0.929 . S
C584 N581 1.346 . S
C584 C583 1.369 . S
C584 H587 0.928 . S
C585 N581 1.345 . S
C585 C586 1.371 . S
C585 H588 0.931 . S
C586 C582 1.391 . S
C586 C585 1.371 . S
C586 H593 0.930 . S
H587 C584 0.928 . S
H588 C585 0.931 . S
H589 C565 0.930 . S
H590 C562 0.930 . S
H591 C571 0.930 . S
H592 C583 0.929 . S
H593 C586 0.930 . S
C594 C595 1.351 . S
C594 N597 1.368 . S
C594 H599 0.931 . S
C595 C594 1.351 . S
C595 N596 1.373 . S
C595 H623 0.930 . S
N596 C595 1.373 . S
N596 C598 1.340 . S
N597 C594 1.368 . S
N597 C598 1.321 . S
N597 Co600 2.135 . S
C598 N596 1.340 . S
C598 N597 1.321 . S
C598 H622 0.930 . S
H599 C594 0.931 . S
Co600 N597 2.135 . S
Co600 N603 2.121 . S
Co600 O608 2.055 . S
Co600 O611 2.039 . S
Co600 N614 2.140 . S
C601 O602 1.227 . S
C601 O611 1.265 . S
O602 C601 1.227 . S
N603 Co600 2.121 . S
N603 C605 1.375 . S
N603 C606 1.313 . S
C604 C605 1.338 . S
C604 N607 1.377 . S
C604 H624 0.930 . S
C605 N603 1.375 . S
C605 C604 1.338 . S
C605 H609 0.931 . S
C606 N603 1.313 . S
C606 N607 1.344 . S
C606 H610 0.930 . S
N607 C604 1.377 . S
N607 C606 1.344 . S
O608 Co600 2.055 . S
O608 C612 1.253 . S
H609 C605 0.931 . S
H610 C606 0.930 . S
O611 Co600 2.039 . S
O611 C601 1.265 . S
C612 O608 1.253 . S
C612 O613 1.227 . S
O613 C612 1.227 . S
N614 Co600 2.140 . S
N614 C617 1.346 . S
N614 C618 1.345 . S
C615 C616 1.387 . S
C615 C619 1.391 . S
C616 C615 1.387 . S
C616 C617 1.369 . S
C616 H625 0.929 . S
C617 N614 1.346 . S
C617 C616 1.369 . S
C617 H620 0.928 . S
C618 N614 1.345 . S
C618 C619 1.371 . S
C618 H621 0.931 . S
C619 C615 1.391 . S
C619 C618 1.371 . S
C619 H626 0.930 . S
H620 C617 0.928 . S
H621 C618 0.931 . S
H622 C598 0.930 . S
H623 C595 0.930 . S
H624 C604 0.930 . S
H625 C616 0.929 . S
H626 C619 0.930 . S
C627 C628 1.351 . S
C627 N630 1.368 . S
C627 H632 0.931 . S
C628 C627 1.351 . S
C628 N629 1.373 . S
C628 H656 0.930 . S
N629 C628 1.373 . S
N629 C631 1.340 . S
N630 C627 1.368 . S
N630 C631 1.321 . S
N630 Co633 2.135 . S
C631 N629 1.340 . S
C631 N630 1.321 . S
C631 H655 0.930 . S
H632 C627 0.931 . S
Co633 N630 2.135 . S
Co633 N636 2.121 . S
Co633 O641 2.055 . S
Co633 O644 2.039 . S
Co633 N647 2.140 . S
C634 O635 1.227 . S
C634 O644 1.265 . S
O635 C634 1.227 . S
N636 Co633 2.121 . S
N636 C638 1.375 . S
N636 C639 1.313 . S
C637 C638 1.338 . S
C637 N640 1.377 . S
C637 H657 0.930 . S
C638 N636 1.375 . S
C638 C637 1.338 . S
C638 H642 0.931 . S
C639 N636 1.313 . S
C639 N640 1.344 . S
C639 H643 0.930 . S
N640 C637 1.377 . S
N640 C639 1.344 . S
O641 Co633 2.055 . S
O641 C645 1.253 . S
H642 C638 0.931 . S
H643 C639 0.930 . S
O644 Co633 2.039 . S
O644 C634 1.265 . S
C645 O641 1.253 . S
C645 O646 1.227 . S
O646 C645 1.227 . S
N647 Co633 2.140 . S
N647 C650 1.346 . S
N647 C651 1.345 . S
C648 C649 1.387 . S
C648 C652 1.391 . S
C649 C648 1.387 . S
C649 C650 1.369 . S
C649 H658 0.929 . S
C650 N647 1.346 . S
C650 C649 1.369 . S
C650 H653 0.928 . S
C651 N647 1.345 . S
C651 C652 1.371 . S
C651 H654 0.931 . S
C652 C648 1.391 . S
C652 C651 1.371 . S
C652 H659 0.930 . S
H653 C650 0.928 . S
H654 C651 0.931 . S
H655 C631 0.930 . S
H656 C628 0.930 . S
H657 C637 0.930 . S
H658 C649 0.929 . S
H659 C652 0.930 . S
C660 C661 1.351 . S
C660 N663 1.368 . S
C660 H665 0.931 . S
C661 C660 1.351 . S
C661 N662 1.373 . S
C661 H689 0.930 . S
N662 C661 1.373 . S
N662 C664 1.340 . S
N663 C660 1.368 . S
N663 C664 1.321 . S
N663 Co666 2.135 . S
C664 N662 1.340 . S
C664 N663 1.321 . S
C664 H688 0.930 . S
H665 C660 0.931 . S
Co666 N663 2.135 . S
Co666 N669 2.121 . S
Co666 O674 2.055 . S
Co666 O677 2.039 . S
Co666 N680 2.140 . S
C667 O668 1.227 . S
C667 O677 1.265 . S
O668 C667 1.227 . S
N669 Co666 2.121 . S
N669 C671 1.375 . S
N669 C672 1.313 . S
C670 C671 1.338 . S
C670 N673 1.377 . S
C670 H690 0.930 . S
C671 N669 1.375 . S
C671 C670 1.338 . S
C671 H675 0.931 . S
C672 N669 1.313 . S
C672 N673 1.344 . S
C672 H676 0.930 . S
N673 C670 1.377 . S
N673 C672 1.344 . S
O674 Co666 2.055 . S
O674 C678 1.253 . S
H675 C671 0.931 . S
H676 C672 0.930 . S
O677 Co666 2.039 . S
O677 C667 1.265 . S
C678 O674 1.253 . S
C678 O679 1.227 . S
O679 C678 1.227 . S
N680 Co666 2.140 . S
N680 C683 1.346 . S
N680 C684 1.345 . S
C681 C682 1.387 . S
C681 C685 1.391 . S
C682 C681 1.387 . S
C682 C683 1.369 . S
C682 H691 0.929 . S
C683 N680 1.346 . S
C683 C682 1.369 . S
C683 H686 0.928 . S
C684 N680 1.345 . S
C684 C685 1.371 . S
C684 H687 0.931 . S
C685 C681 1.391 . S
C685 C684 1.371 . S
C685 H692 0.930 . S
H686 C683 0.928 . S
H687 C684 0.931 . S
H688 C664 0.930 . S
H689 C661 0.930 . S
H690 C670 0.930 . S
H691 C682 0.929 . S
H692 C685 0.930 . S
C693 C694 1.351 . S
C693 N696 1.368 . S
C693 H698 0.931 . S
C694 C693 1.351 . S
C694 N695 1.373 . S
C694 H722 0.930 1_556 S
N695 C694 1.373 . S
N695 C697 1.340 . S
N696 C693 1.368 . S
N696 C697 1.321 . S
N696 Co699 2.135 . S
C697 N695 1.340 . S
C697 N696 1.321 . S
C697 H721 0.930 . S
H698 C693 0.931 . S
Co699 N696 2.135 . S
Co699 N702 2.121 . S
Co699 O707 2.055 . S
Co699 O710 2.039 . S
Co699 N713 2.140 . S
C700 O701 1.227 . S
C700 O710 1.265 . S
O701 C700 1.227 . S
N702 Co699 2.121 . S
N702 C704 1.375 . S
N702 C705 1.313 . S
C703 C704 1.338 . S
C703 N706 1.377 . S
C703 H723 0.930 . S
C704 N702 1.375 . S
C704 C703 1.338 . S
C704 H708 0.931 . S
C705 N702 1.313 . S
C705 N706 1.344 . S
C705 H709 0.930 . S
N706 C703 1.377 . S
N706 C705 1.344 . S
O707 Co699 2.055 . S
O707 C711 1.253 . S
H708 C704 0.931 . S
H709 C705 0.930 . S
O710 Co699 2.039 . S
O710 C700 1.265 . S
C711 O707 1.253 . S
C711 O712 1.227 . S
O712 C711 1.227 . S
N713 Co699 2.140 . S
N713 C716 1.346 . S
N713 C717 1.345 . S
C714 C715 1.387 . S
C714 C718 1.391 . S
C715 C714 1.387 . S
C715 C716 1.369 . S
C715 H724 0.929 . S
C716 N713 1.346 . S
C716 C715 1.369 . S
C716 H719 0.928 . S
C717 N713 1.345 . S
C717 C718 1.371 . S
C717 H720 0.931 . S
C718 C714 1.391 . S
C718 C717 1.371 . S
C718 H725 0.930 . S
H719 C716 0.928 . S
H720 C717 0.931 . S
H721 C697 0.930 . S
H722 C694 0.930 1_554 S
H723 C703 0.930 . S
H724 C715 0.929 . S
H725 C718 0.930 . S
C726 C727 1.351 . S
C726 N729 1.368 . S
C726 H731 0.931 . S
C727 C726 1.351 . S
C727 N728 1.373 . S
C727 H755 0.930 1_556 S
N728 C727 1.373 . S
N728 C730 1.340 . S
N729 C726 1.368 . S
N729 C730 1.321 . S
N729 Co732 2.135 . S
C730 N728 1.340 . S
C730 N729 1.321 . S
C730 H754 0.930 . S
H731 C726 0.931 . S
Co732 N729 2.135 . S
Co732 N735 2.121 . S
Co732 O740 2.055 . S
Co732 O743 2.039 . S
Co732 N746 2.140 . S
C733 O734 1.227 . S
C733 O743 1.265 . S
O734 C733 1.227 . S
N735 Co732 2.121 . S
N735 C737 1.375 . S
N735 C738 1.313 . S
C736 C737 1.338 . S
C736 N739 1.377 . S
C736 H756 0.930 . S
C737 N735 1.375 . S
C737 C736 1.338 . S
C737 H741 0.931 . S
C738 N735 1.313 . S
C738 N739 1.344 . S
C738 H742 0.930 . S
N739 C736 1.377 . S
N739 C738 1.344 . S
O740 Co732 2.055 . S
O740 C744 1.253 . S
H741 C737 0.931 . S
H742 C738 0.930 . S
O743 Co732 2.039 . S
O743 C733 1.265 . S
C744 O740 1.253 . S
C744 O745 1.227 . S
O745 C744 1.227 . S
N746 Co732 2.140 . S
N746 C749 1.346 . S
N746 C750 1.345 . S
C747 C748 1.387 . S
C747 C751 1.391 . S
C748 C747 1.387 . S
C748 C749 1.369 . S
C748 H757 0.929 . S
C749 N746 1.346 . S
C749 C748 1.369 . S
C749 H752 0.928 . S
C750 N746 1.345 . S
C750 C751 1.371 . S
C750 H753 0.931 . S
C751 C747 1.391 . S
C751 C750 1.371 . S
C751 H758 0.930 . S
H752 C749 0.928 . S
H753 C750 0.931 . S
H754 C730 0.930 . S
H755 C727 0.930 1_554 S
H756 C736 0.930 . S
H757 C748 0.929 . S
H758 C751 0.930 . S
C759 C760 1.351 . S
C759 N762 1.368 . S
C759 H764 0.931 . S
C760 C759 1.351 . S
C760 N761 1.373 . S
C760 H788 0.930 1_556 S
N761 C760 1.373 . S
N761 C763 1.340 . S
N762 C759 1.368 . S
N762 C763 1.321 . S
N762 Co765 2.135 . S
C763 N761 1.340 . S
C763 N762 1.321 . S
C763 H787 0.930 . S
H764 C759 0.931 . S
Co765 N762 2.135 . S
Co765 N768 2.121 . S
Co765 O773 2.055 . S
Co765 O776 2.039 . S
Co765 N779 2.140 . S
C766 O767 1.227 . S
C766 O776 1.265 . S
O767 C766 1.227 . S
N768 Co765 2.121 . S
N768 C770 1.375 . S
N768 C771 1.313 . S
C769 C770 1.338 . S
C769 N772 1.377 . S
C769 H789 0.930 . S
C770 N768 1.375 . S
C770 C769 1.338 . S
C770 H774 0.931 . S
C771 N768 1.313 . S
C771 N772 1.344 . S
C771 H775 0.930 . S
N772 C769 1.377 . S
N772 C771 1.344 . S
O773 Co765 2.055 . S
O773 C777 1.253 . S
H774 C770 0.931 . S
H775 C771 0.930 . S
O776 Co765 2.039 . S
O776 C766 1.265 . S
C777 O773 1.253 . S
C777 O778 1.227 . S
O778 C777 1.227 . S
N779 Co765 2.140 . S
N779 C782 1.346 . S
N779 C783 1.345 . S
C780 C781 1.387 . S
C780 C784 1.391 . S
C781 C780 1.387 . S
C781 C782 1.369 . S
C781 H790 0.929 . S
C782 N779 1.346 . S
C782 C781 1.369 . S
C782 H785 0.928 . S
C783 N779 1.345 . S
C783 C784 1.371 . S
C783 H786 0.931 . S
C784 C780 1.391 . S
C784 C783 1.371 . S
C784 H791 0.930 . S
H785 C782 0.928 . S
H786 C783 0.931 . S
H787 C763 0.930 . S
H788 C760 0.930 1_554 S
H789 C769 0.930 . S
H790 C781 0.929 . S
H791 C784 0.930 . S
C792 C793 1.351 . S
C792 N795 1.368 . S
C792 H797 0.931 . S
C793 C792 1.351 . S
C793 N794 1.373 . S
C793 H821 0.930 . S
N794 C793 1.373 . S
N794 C796 1.340 . S
N795 C792 1.368 . S
N795 C796 1.321 . S
N795 Co798 2.135 . S
C796 N794 1.340 . S
C796 N795 1.321 . S
C796 H820 0.930 . S
H797 C792 0.931 . S
Co798 N795 2.135 . S
Co798 N801 2.121 . S
Co798 O806 2.055 . S
Co798 O809 2.039 . S
Co798 N812 2.140 . S
C799 O800 1.227 . S
C799 O809 1.265 . S
O800 C799 1.227 . S
N801 Co798 2.121 . S
N801 C803 1.375 . S
N801 C804 1.313 . S
C802 C803 1.338 . S
C802 N805 1.377 . S
C802 H822 0.930 . S
C803 N801 1.375 . S
C803 C802 1.338 . S
C803 H807 0.931 . S
C804 N801 1.313 . S
C804 N805 1.344 . S
C804 H808 0.930 . S
N805 C802 1.377 . S
N805 C804 1.344 . S
O806 Co798 2.055 . S
O806 C810 1.253 . S
H807 C803 0.931 . S
H808 C804 0.930 . S
O809 Co798 2.039 . S
O809 C799 1.265 . S
C810 O806 1.253 . S
C810 O811 1.227 . S
O811 C810 1.227 . S
N812 Co798 2.140 . S
N812 C815 1.346 . S
N812 C816 1.345 . S
C813 C814 1.387 . S
C813 C817 1.391 . S
C814 C813 1.387 . S
C814 C815 1.369 . S
C814 H823 0.929 . S
C815 N812 1.346 . S
C815 C814 1.369 . S
C815 H818 0.928 . S
C816 N812 1.345 . S
C816 C817 1.371 . S
C816 H819 0.931 . S
C817 C813 1.391 . S
C817 C816 1.371 . S
C817 H824 0.930 . S
H818 C815 0.928 . S
H819 C816 0.931 . S
H820 C796 0.930 . S
H821 C793 0.930 . S
H822 C802 0.930 . S
H823 C814 0.929 . S
H824 C817 0.930 . S
C825 C826 1.351 . S
C825 N828 1.368 . S
C825 H830 0.931 . S
C826 C825 1.351 . S
C826 N827 1.373 . S
C826 H854 0.930 . S
N827 C826 1.373 . S
N827 C829 1.340 . S
N828 C825 1.368 . S
N828 C829 1.321 . S
N828 Co831 2.135 . S
C829 N827 1.340 . S
C829 N828 1.321 . S
C829 H853 0.930 . S
H830 C825 0.931 . S
Co831 N828 2.135 . S
Co831 N834 2.121 . S
Co831 O839 2.055 . S
Co831 O842 2.039 . S
Co831 N845 2.140 . S
C832 O833 1.227 . S
C832 O842 1.265 . S
O833 C832 1.227 . S
N834 Co831 2.121 . S
N834 C836 1.375 . S
N834 C837 1.313 . S
C835 C836 1.338 . S
C835 N838 1.377 . S
C835 H855 0.930 . S
C836 N834 1.375 . S
C836 C835 1.338 . S
C836 H840 0.931 . S
C837 N834 1.313 . S
C837 N838 1.344 . S
C837 H841 0.930 . S
N838 C835 1.377 . S
N838 C837 1.344 . S
O839 Co831 2.055 . S
O839 C843 1.253 . S
H840 C836 0.931 . S
H841 C837 0.930 . S
O842 Co831 2.039 . S
O842 C832 1.265 . S
C843 O839 1.253 . S
C843 O844 1.227 . S
O844 C843 1.227 . S
N845 Co831 2.140 . S
N845 C848 1.346 . S
N845 C849 1.345 . S
C846 C847 1.387 . S
C846 C850 1.391 . S
C847 C846 1.387 . S
C847 C848 1.369 . S
C847 H856 0.929 . S
C848 N845 1.346 . S
C848 C847 1.369 . S
C848 H851 0.928 . S
C849 N845 1.345 . S
C849 C850 1.371 . S
C849 H852 0.931 . S
C850 C846 1.391 . S
C850 C849 1.371 . S
C850 H857 0.930 . S
H851 C848 0.928 . S
H852 C849 0.931 . S
H853 C829 0.930 . S
H854 C826 0.930 . S
H855 C835 0.930 . S
H856 C847 0.929 . S
H857 C850 0.930 . S
C858 C859 1.351 . S
C858 N861 1.368 . S
C858 H863 0.931 . S
C859 C858 1.351 . S
C859 N860 1.373 . S
C859 H887 0.930 . S
N860 C859 1.373 . S
N860 C862 1.340 . S
N861 C858 1.368 . S
N861 C862 1.321 . S
N861 Co864 2.135 . S
C862 N860 1.340 . S
C862 N861 1.321 . S
C862 H886 0.930 . S
H863 C858 0.931 . S
Co864 N861 2.135 . S
Co864 N867 2.121 . S
Co864 O872 2.055 . S
Co864 O875 2.039 . S
Co864 N878 2.140 . S
C865 O866 1.227 . S
C865 O875 1.265 . S
O866 C865 1.227 . S
N867 Co864 2.121 . S
N867 C869 1.375 . S
N867 C870 1.313 . S
C868 C869 1.338 . S
C868 N871 1.377 . S
C868 H888 0.930 . S
C869 N867 1.375 . S
C869 C868 1.338 . S
C869 H873 0.931 . S
C870 N867 1.313 . S
C870 N871 1.344 . S
C870 H874 0.930 . S
N871 C868 1.377 . S
N871 C870 1.344 . S
O872 Co864 2.055 . S
O872 C876 1.253 . S
H873 C869 0.931 . S
H874 C870 0.930 . S
O875 Co864 2.039 . S
O875 C865 1.265 . S
C876 O872 1.253 . S
C876 O877 1.227 . S
O877 C876 1.227 . S
N878 Co864 2.140 . S
N878 C881 1.346 . S
N878 C882 1.345 . S
C879 C880 1.387 . S
C879 C883 1.391 . S
C880 C879 1.387 . S
C880 C881 1.369 . S
C880 H889 0.929 . S
C881 N878 1.346 . S
C881 C880 1.369 . S
C881 H884 0.928 . S
C882 N878 1.345 . S
C882 C883 1.371 . S
C882 H885 0.931 . S
C883 C879 1.391 . S
C883 C882 1.371 . S
C883 H890 0.930 . S
H884 C881 0.928 . S
H885 C882 0.931 . S
H886 C862 0.930 . S
H887 C859 0.930 . S
H888 C868 0.930 . S
H889 C880 0.929 . S
H890 C883 0.930 . S
C891 C892 1.351 . S
C891 N894 1.368 . S
C891 H896 0.931 . S
C892 C891 1.351 . S
C892 N893 1.373 . S
C892 H920 0.930 1_554 S
N893 C892 1.373 . S
N893 C895 1.340 . S
N894 C891 1.368 . S
N894 C895 1.321 . S
N894 Co897 2.135 . S
C895 N893 1.340 . S
C895 N894 1.321 . S
C895 H919 0.930 . S
H896 C891 0.931 . S
Co897 N894 2.135 . S
Co897 N900 2.121 . S
Co897 O905 2.055 . S
Co897 O908 2.039 . S
Co897 N911 2.140 . S
C898 O899 1.227 . S
C898 O908 1.265 . S
O899 C898 1.227 . S
N900 Co897 2.121 . S
N900 C902 1.375 . S
N900 C903 1.313 . S
C901 C902 1.338 . S
C901 N904 1.377 . S
C901 H921 0.930 . S
C902 N900 1.375 . S
C902 C901 1.338 . S
C902 H906 0.931 . S
C903 N900 1.313 . S
C903 N904 1.344 . S
C903 H907 0.930 . S
N904 C901 1.377 . S
N904 C903 1.344 . S
O905 Co897 2.055 . S
O905 C909 1.253 . S
H906 C902 0.931 . S
H907 C903 0.930 . S
O908 Co897 2.039 . S
O908 C898 1.265 . S
C909 O905 1.253 . S
C909 O910 1.227 . S
O910 C909 1.227 . S
N911 Co897 2.140 . S
N911 C914 1.346 . S
N911 C915 1.345 . S
C912 C913 1.387 . S
C912 C916 1.391 . S
C913 C912 1.387 . S
C913 C914 1.369 . S
C913 H922 0.929 . S
C914 N911 1.346 . S
C914 C913 1.369 . S
C914 H917 0.928 . S
C915 N911 1.345 . S
C915 C916 1.371 . S
C915 H918 0.931 . S
C916 C912 1.391 . S
C916 C915 1.371 . S
C916 H923 0.930 . S
H917 C914 0.928 . S
H918 C915 0.931 . S
H919 C895 0.930 . S
H920 C892 0.930 1_556 S
H921 C901 0.930 . S
H922 C913 0.929 . S
H923 C916 0.930 . S
C924 C925 1.351 . S
C924 N927 1.368 . S
C924 H929 0.931 . S
C925 C924 1.351 . S
C925 N926 1.373 . S
C925 H953 0.930 1_554 S
N926 C925 1.373 . S
N926 C928 1.340 . S
N927 C924 1.368 . S
N927 C928 1.321 . S
N927 Co930 2.135 . S
C928 N926 1.340 . S
C928 N927 1.321 . S
C928 H952 0.930 . S
H929 C924 0.931 . S
Co930 N927 2.135 . S
Co930 N933 2.121 . S
Co930 O938 2.055 . S
Co930 O941 2.039 . S
Co930 N944 2.140 . S
C931 O932 1.227 . S
C931 O941 1.265 . S
O932 C931 1.227 . S
N933 Co930 2.121 . S
N933 C935 1.375 . S
N933 C936 1.313 . S
C934 C935 1.338 . S
C934 N937 1.377 . S
C934 H954 0.930 . S
C935 N933 1.375 . S
C935 C934 1.338 . S
C935 H939 0.931 . S
C936 N933 1.313 . S
C936 N937 1.344 . S
C936 H940 0.930 . S
N937 C934 1.377 . S
N937 C936 1.344 . S
O938 Co930 2.055 . S
O938 C942 1.253 . S
H939 C935 0.931 . S
H940 C936 0.930 . S
O941 Co930 2.039 . S
O941 C931 1.265 . S
C942 O938 1.253 . S
C942 O943 1.227 . S
O943 C942 1.227 . S
N944 Co930 2.140 . S
N944 C947 1.346 . S
N944 C948 1.345 . S
C945 C946 1.387 . S
C945 C949 1.391 . S
C946 C945 1.387 . S
C946 C947 1.369 . S
C946 H955 0.929 . S
C947 N944 1.346 . S
C947 C946 1.369 . S
C947 H950 0.928 . S
C948 N944 1.345 . S
C948 C949 1.371 . S
C948 H951 0.931 . S
C949 C945 1.391 . S
C949 C948 1.371 . S
C949 H956 0.930 . S
H950 C947 0.928 . S
H951 C948 0.931 . S
H952 C928 0.930 . S
H953 C925 0.930 1_556 S
H954 C934 0.930 . S
H955 C946 0.929 . S
H956 C949 0.930 . S
C957 C958 1.351 . S
C957 N960 1.368 . S
C957 H962 0.931 . S
C958 C957 1.351 . S
C958 N959 1.373 . S
C958 H986 0.930 1_554 S
N959 C958 1.373 . S
N959 C961 1.340 . S
N960 C957 1.368 . S
N960 C961 1.321 . S
N960 Co963 2.135 . S
C961 N959 1.340 . S
C961 N960 1.321 . S
C961 H985 0.930 . S
H962 C957 0.931 . S
Co963 N960 2.135 . S
Co963 N966 2.121 . S
Co963 O971 2.055 . S
Co963 O974 2.039 . S
Co963 N977 2.140 . S
C964 O965 1.227 . S
C964 O974 1.265 . S
O965 C964 1.227 . S
N966 Co963 2.121 . S
N966 C968 1.375 . S
N966 C969 1.313 . S
C967 C968 1.338 . S
C967 N970 1.377 . S
C967 H987 0.930 . S
C968 N966 1.375 . S
C968 C967 1.338 . S
C968 H972 0.931 . S
C969 N966 1.313 . S
C969 N970 1.344 . S
C969 H973 0.930 . S
N970 C967 1.377 . S
N970 C969 1.344 . S
O971 Co963 2.055 . S
O971 C975 1.253 . S
H972 C968 0.931 . S
H973 C969 0.930 . S
O974 Co963 2.039 . S
O974 C964 1.265 . S
C975 O971 1.253 . S
C975 O976 1.227 . S
O976 C975 1.227 . S
N977 Co963 2.140 . S
N977 C980 1.346 . S
N977 C981 1.345 . S
C978 C979 1.387 . S
C978 C982 1.391 . S
C979 C978 1.387 . S
C979 C980 1.369 . S
C979 H988 0.929 . S
C980 N977 1.346 . S
C980 C979 1.369 . S
C980 H983 0.928 . S
C981 N977 1.345 . S
C981 C982 1.371 . S
C981 H984 0.931 . S
C982 C978 1.391 . S
C982 C981 1.371 . S
C982 H989 0.930 . S
H983 C980 0.928 . S
H984 C981 0.931 . S
H985 C961 0.930 . S
H986 C958 0.930 1_556 S
H987 C967 0.930 . S
H988 C979 0.929 . S
H989 C982 0.930 . S
C990 C991 1.351 . S
C990 N993 1.368 . S
C990 H995 0.931 . S
C991 C990 1.351 . S
C991 N992 1.373 . S
C991 H1019 0.930 . S
N992 C991 1.373 . S
N992 C994 1.340 . S
N993 C990 1.368 . S
N993 C994 1.321 . S
N993 Co996 2.135 . S
C994 N992 1.340 . S
C994 N993 1.321 . S
C994 H1018 0.930 . S
H995 C990 0.931 . S
Co996 N993 2.135 . S
Co996 N999 2.121 . S
Co996 O1004 2.055 . S
Co996 O1007 2.039 . S
Co996 N1010 2.140 . S
C997 O998 1.227 . S
C997 O1007 1.265 . S
O998 C997 1.227 . S
N999 Co996 2.121 . S
N999 C1001 1.375 . S
N999 C1002 1.313 . S
C1000 C1001 1.338 . S
C1000 N1003 1.377 . S
C1000 H1020 0.930 . S
C1001 N999 1.375 . S
C1001 C1000 1.338 . S
C1001 H1005 0.931 . S
C1002 N999 1.313 . S
C1002 N1003 1.344 . S
C1002 H1006 0.930 . S
N1003 C1000 1.377 . S
N1003 C1002 1.344 . S
O1004 Co996 2.055 . S
O1004 C1008 1.253 . S
H1005 C1001 0.931 . S
H1006 C1002 0.930 . S
O1007 Co996 2.039 . S
O1007 C997 1.265 . S
C1008 O1004 1.253 . S
C1008 O1009 1.227 . S
O1009 C1008 1.227 . S
N1010 Co996 2.140 . S
N1010 C1013 1.346 . S
N1010 C1014 1.345 . S
C1011 C1012 1.387 . S
C1011 C1015 1.391 . S
C1012 C1011 1.387 . S
C1012 C1013 1.369 . S
C1012 H1021 0.929 . S
C1013 N1010 1.346 . S
C1013 C1012 1.369 . S
C1013 H1016 0.928 . S
C1014 N1010 1.345 . S
C1014 C1015 1.371 . S
C1014 H1017 0.931 . S
C1015 C1011 1.391 . S
C1015 C1014 1.371 . S
C1015 H1022 0.930 . S
H1016 C1013 0.928 . S
H1017 C1014 0.931 . S
H1018 C994 0.930 . S
H1019 C991 0.930 . S
H1020 C1000 0.930 . S
H1021 C1012 0.929 . S
H1022 C1015 0.930 . S
C1023 C1024 1.351 . S
C1023 N1026 1.368 . S
C1023 H1028 0.931 . S
C1024 C1023 1.351 . S
C1024 N1025 1.373 . S
C1024 H1052 0.930 . S
N1025 C1024 1.373 . S
N1025 C1027 1.340 . S
N1026 C1023 1.368 . S
N1026 C1027 1.321 . S
N1026 Co1029 2.135 . S
C1027 N1025 1.340 . S
C1027 N1026 1.321 . S
C1027 H1051 0.930 . S
H1028 C1023 0.931 . S
Co1029 N1026 2.135 . S
Co1029 N1032 2.121 . S
Co1029 O1037 2.055 . S
Co1029 O1040 2.039 . S
Co1029 N1043 2.140 . S
C1030 O1031 1.227 . S
C1030 O1040 1.265 . S
O1031 C1030 1.227 . S
N1032 Co1029 2.121 . S
N1032 C1034 1.375 . S
N1032 C1035 1.313 . S
C1033 C1034 1.338 . S
C1033 N1036 1.377 . S
C1033 H1053 0.930 . S
C1034 N1032 1.375 . S
C1034 C1033 1.338 . S
C1034 H1038 0.931 . S
C1035 N1032 1.313 . S
C1035 N1036 1.344 . S
C1035 H1039 0.930 . S
N1036 C1033 1.377 . S
N1036 C1035 1.344 . S
O1037 Co1029 2.055 . S
O1037 C1041 1.253 . S
H1038 C1034 0.931 . S
H1039 C1035 0.930 . S
O1040 Co1029 2.039 . S
O1040 C1030 1.265 . S
C1041 O1037 1.253 . S
C1041 O1042 1.227 . S
O1042 C1041 1.227 . S
N1043 Co1029 2.140 . S
N1043 C1046 1.346 . S
N1043 C1047 1.345 . S
C1044 C1045 1.387 . S
C1044 C1048 1.391 . S
C1045 C1044 1.387 . S
C1045 C1046 1.369 . S
C1045 H1054 0.929 . S
C1046 N1043 1.346 . S
C1046 C1045 1.369 . S
C1046 H1049 0.928 . S
C1047 N1043 1.345 . S
C1047 C1048 1.371 . S
C1047 H1050 0.931 . S
C1048 C1044 1.391 . S
C1048 C1047 1.371 . S
C1048 H1055 0.930 . S
H1049 C1046 0.928 . S
H1050 C1047 0.931 . S
H1051 C1027 0.930 . S
H1052 C1024 0.930 . S
H1053 C1033 0.930 . S
H1054 C1045 0.929 . S
H1055 C1048 0.930 . S
C1056 C1057 1.351 . S
C1056 N1059 1.368 . S
C1056 H1061 0.931 . S
C1057 C1056 1.351 . S
C1057 N1058 1.373 . S
C1057 H1085 0.930 . S
N1058 C1057 1.373 . S
N1058 C1060 1.340 . S
N1059 C1056 1.368 . S
N1059 C1060 1.321 . S
N1059 Co1062 2.135 . S
C1060 N1058 1.340 . S
C1060 N1059 1.321 . S
C1060 H1084 0.930 . S
H1061 C1056 0.931 . S
Co1062 N1059 2.135 . S
Co1062 N1065 2.121 . S
Co1062 O1070 2.055 . S
Co1062 O1073 2.039 . S
Co1062 N1076 2.140 . S
C1063 O1064 1.227 . S
C1063 O1073 1.265 . S
O1064 C1063 1.227 . S
N1065 Co1062 2.121 . S
N1065 C1067 1.375 . S
N1065 C1068 1.313 . S
C1066 C1067 1.338 . S
C1066 N1069 1.377 . S
C1066 H1086 0.930 . S
C1067 N1065 1.375 . S
C1067 C1066 1.338 . S
C1067 H1071 0.931 . S
C1068 N1065 1.313 . S
C1068 N1069 1.344 . S
C1068 H1072 0.930 . S
N1069 C1066 1.377 . S
N1069 C1068 1.344 . S
O1070 Co1062 2.055 . S
O1070 C1074 1.253 . S
H1071 C1067 0.931 . S
H1072 C1068 0.930 . S
O1073 Co1062 2.039 . S
O1073 C1063 1.265 . S
C1074 O1070 1.253 . S
C1074 O1075 1.227 . S
O1075 C1074 1.227 . S
N1076 Co1062 2.140 . S
N1076 C1079 1.346 . S
N1076 C1080 1.345 . S
C1077 C1078 1.387 . S
C1077 C1081 1.391 . S
C1078 C1077 1.387 . S
C1078 C1079 1.369 . S
C1078 H1087 0.929 . S
C1079 N1076 1.346 . S
C1079 C1078 1.369 . S
C1079 H1082 0.928 . S
C1080 N1076 1.345 . S
C1080 C1081 1.371 . S
C1080 H1083 0.931 . S
C1081 C1077 1.391 . S
C1081 C1080 1.371 . S
C1081 H1088 0.930 . S
H1082 C1079 0.928 . S
H1083 C1080 0.931 . S
H1084 C1060 0.930 . S
H1085 C1057 0.930 . S
H1086 C1066 0.930 . S
H1087 C1078 0.929 . S
H1088 C1081 0.930 . S
C1089 C1090 1.351 . S
C1089 N1092 1.368 . S
C1089 H1094 0.931 . S
C1090 C1089 1.351 . S
C1090 N1091 1.373 . S
C1090 H1118 0.930 . S
N1091 C1090 1.373 . S
N1091 C1093 1.340 . S
N1092 C1089 1.368 . S
N1092 C1093 1.321 . S
N1092 Co1095 2.135 . S
C1093 N1091 1.340 . S
C1093 N1092 1.321 . S
C1093 H1117 0.930 . S
H1094 C1089 0.931 . S
Co1095 N1092 2.135 . S
Co1095 N1098 2.121 . S
Co1095 O1103 2.055 . S
Co1095 O1106 2.039 . S
Co1095 N1109 2.140 . S
C1096 O1097 1.227 . S
C1096 O1106 1.265 . S
O1097 C1096 1.227 . S
N1098 Co1095 2.121 . S
N1098 C1100 1.375 . S
N1098 C1101 1.313 . S
C1099 C1100 1.338 . S
C1099 N1102 1.377 . S
C1099 H1119 0.930 . S
C1100 N1098 1.375 . S
C1100 C1099 1.338 . S
C1100 H1104 0.931 . S
C1101 N1098 1.313 . S
C1101 N1102 1.344 . S
C1101 H1105 0.930 . S
N1102 C1099 1.377 . S
N1102 C1101 1.344 . S
O1103 Co1095 2.055 . S
O1103 C1107 1.253 . S
H1104 C1100 0.931 . S
H1105 C1101 0.930 . S
O1106 Co1095 2.039 . S
O1106 C1096 1.265 . S
C1107 O1103 1.253 . S
C1107 O1108 1.227 . S
O1108 C1107 1.227 . S
N1109 Co1095 2.140 . S
N1109 C1112 1.346 . S
N1109 C1113 1.345 . S
C1110 C1111 1.387 . S
C1110 C1114 1.391 . S
C1111 C1110 1.387 . S
C1111 C1112 1.369 . S
C1111 H1120 0.929 . S
C1112 N1109 1.346 . S
C1112 C1111 1.369 . S
C1112 H1115 0.928 . S
C1113 N1109 1.345 . S
C1113 C1114 1.371 . S
C1113 H1116 0.931 . S
C1114 C1110 1.391 . S
C1114 C1113 1.371 . S
C1114 H1121 0.930 . S
H1115 C1112 0.928 . S
H1116 C1113 0.931 . S
H1117 C1093 0.930 . S
H1118 C1090 0.930 . S
H1119 C1099 0.930 . S
H1120 C1111 0.929 . S
H1121 C1114 0.930 . S
C1122 C1123 1.351 . S
C1122 N1125 1.368 . S
C1122 H1127 0.931 . S
C1123 C1122 1.351 . S
C1123 N1124 1.373 . S
C1123 H1151 0.930 . S
N1124 C1123 1.373 . S
N1124 C1126 1.340 . S
N1125 C1122 1.368 . S
N1125 C1126 1.321 . S
N1125 Co1128 2.135 . S
C1126 N1124 1.340 . S
C1126 N1125 1.321 . S
C1126 H1150 0.930 . S
H1127 C1122 0.931 . S
Co1128 N1125 2.135 . S
Co1128 N1131 2.121 . S
Co1128 O1136 2.055 . S
Co1128 O1139 2.039 . S
Co1128 N1142 2.140 . S
C1129 O1130 1.227 . S
C1129 O1139 1.265 . S
O1130 C1129 1.227 . S
N1131 Co1128 2.121 . S
N1131 C1133 1.375 . S
N1131 C1134 1.313 . S
C1132 C1133 1.338 . S
C1132 N1135 1.377 . S
C1132 H1152 0.930 . S
C1133 N1131 1.375 . S
C1133 C1132 1.338 . S
C1133 H1137 0.931 . S
C1134 N1131 1.313 . S
C1134 N1135 1.344 . S
C1134 H1138 0.930 . S
N1135 C1132 1.377 . S
N1135 C1134 1.344 . S
O1136 Co1128 2.055 . S
O1136 C1140 1.253 . S
H1137 C1133 0.931 . S
H1138 C1134 0.930 . S
O1139 Co1128 2.039 . S
O1139 C1129 1.265 . S
C1140 O1136 1.253 . S
C1140 O1141 1.227 . S
O1141 C1140 1.227 . S
N1142 Co1128 2.140 . S
N1142 C1145 1.346 . S
N1142 C1146 1.345 . S
C1143 C1144 1.387 . S
C1143 C1147 1.391 . S
C1144 C1143 1.387 . S
C1144 C1145 1.369 . S
C1144 H1153 0.929 . S
C1145 N1142 1.346 . S
C1145 C1144 1.369 . S
C1145 H1148 0.928 . S
C1146 N1142 1.345 . S
C1146 C1147 1.371 . S
C1146 H1149 0.931 . S
C1147 C1143 1.391 . S
C1147 C1146 1.371 . S
C1147 H1154 0.930 . S
H1148 C1145 0.928 . S
H1149 C1146 0.931 . S
H1150 C1126 0.930 . S
H1151 C1123 0.930 . S
H1152 C1132 0.930 . S
H1153 C1144 0.929 . S
H1154 C1147 0.930 . S
C1155 C1156 1.351 . S
C1155 N1158 1.368 . S
C1155 H1160 0.931 . S
C1156 C1155 1.351 . S
C1156 N1157 1.373 . S
C1156 H1184 0.930 . S
N1157 C1156 1.373 . S
N1157 C1159 1.340 . S
N1158 C1155 1.368 . S
N1158 C1159 1.321 . S
N1158 Co1161 2.135 . S
C1159 N1157 1.340 . S
C1159 N1158 1.321 . S
C1159 H1183 0.930 . S
H1160 C1155 0.931 . S
Co1161 N1158 2.135 . S
Co1161 N1164 2.121 . S
Co1161 O1169 2.055 . S
Co1161 O1172 2.039 . S
Co1161 N1175 2.140 . S
C1162 O1163 1.227 . S
C1162 O1172 1.265 . S
O1163 C1162 1.227 . S
N1164 Co1161 2.121 . S
N1164 C1166 1.375 . S
N1164 C1167 1.313 . S
C1165 C1166 1.338 . S
C1165 N1168 1.377 . S
C1165 H1185 0.930 . S
C1166 N1164 1.375 . S
C1166 C1165 1.338 . S
C1166 H1170 0.931 . S
C1167 N1164 1.313 . S
C1167 N1168 1.344 . S
C1167 H1171 0.930 . S
N1168 C1165 1.377 . S
N1168 C1167 1.344 . S
O1169 Co1161 2.055 . S
O1169 C1173 1.253 . S
H1170 C1166 0.931 . S
H1171 C1167 0.930 . S
O1172 Co1161 2.039 . S
O1172 C1162 1.265 . S
C1173 O1169 1.253 . S
C1173 O1174 1.227 . S
O1174 C1173 1.227 . S
N1175 Co1161 2.140 . S
N1175 C1178 1.346 . S
N1175 C1179 1.345 . S
C1176 C1177 1.387 . S
C1176 C1180 1.391 . S
C1177 C1176 1.387 . S
C1177 C1178 1.369 . S
C1177 H1186 0.929 . S
C1178 N1175 1.346 . S
C1178 C1177 1.369 . S
C1178 H1181 0.928 . S
C1179 N1175 1.345 . S
C1179 C1180 1.371 . S
C1179 H1182 0.931 . S
C1180 C1176 1.391 . S
C1180 C1179 1.371 . S
C1180 H1187 0.930 . S
H1181 C1178 0.928 . S
H1182 C1179 0.931 . S
H1183 C1159 0.930 . S
H1184 C1156 0.930 . S
H1185 C1165 0.930 . S
H1186 C1177 0.929 . S
H1187 C1180 0.930 . S
H1188 C1194 0.930 . S
H1189 C1197 0.930 . S
H1190 C1198 0.930 . S
H1191 C1199 0.930 . S
H1192 C1202 0.930 . S
H1193 C1203 0.930 . S
C1194 H1188 0.930 . S
C1194 C1195 1.355 . S
C1194 C1196 1.415 . S
C1195 C1194 1.355 . S
C1195 C1197 1.419 . S
C1196 C1194 1.415 . S
C1196 C1201 1.425 . S
C1196 C1203 1.409 . S
C1197 H1189 0.930 . S
C1197 C1195 1.419 . S
C1197 C1198 1.362 . S
C1198 H1190 0.930 . S
C1198 C1197 1.362 . S
C1198 C1201 1.409 . S
C1199 H1191 0.930 . S
C1199 C1200 1.355 . S
C1199 C1201 1.415 . S
C1200 C1199 1.355 . S
C1200 C1202 1.419 . S
C1201 C1196 1.425 . S
C1201 C1198 1.409 . S
C1201 C1199 1.415 . S
C1202 H1192 0.930 . S
C1202 C1200 1.419 . S
C1202 C1203 1.362 . S
C1203 H1193 0.930 . S
C1203 C1196 1.409 . S
C1203 C1202 1.362 . S
H1204 C1210 0.930 . S
H1205 C1213 0.930 . S
H1206 C1214 0.930 . S
H1207 C1215 0.930 . S
H1208 C1218 0.930 . S
H1209 C1219 0.930 . S
C1210 H1204 0.930 . S
C1210 C1211 1.355 . S
C1210 C1212 1.415 . S
C1211 C1210 1.355 . S
C1211 C1213 1.419 . S
C1212 C1210 1.415 . S
C1212 C1217 1.425 . S
C1212 C1219 1.409 . S
C1213 H1205 0.930 . S
C1213 C1211 1.419 . S
C1213 C1214 1.362 . S
C1214 H1206 0.930 . S
C1214 C1213 1.362 . S
C1214 C1217 1.409 . S
C1215 H1207 0.930 . S
C1215 C1216 1.355 . S
C1215 C1217 1.415 . S
C1216 C1215 1.355 . S
C1216 C1218 1.419 . S
C1217 C1212 1.425 . S
C1217 C1214 1.409 . S
C1217 C1215 1.415 . S
C1218 H1208 0.930 . S
C1218 C1216 1.419 . S
C1218 C1219 1.362 . S
C1219 H1209 0.930 . S
C1219 C1212 1.409 . S
C1219 C1218 1.362 . S
H1220 C1226 0.930 . S
H1221 C1229 0.930 . S
H1222 C1230 0.930 . S
H1223 C1231 0.930 . S
H1224 C1234 0.930 . S
H1225 C1235 0.930 . S
C1226 H1220 0.930 . S
C1226 C1227 1.355 . S
C1226 C1228 1.415 . S
C1227 C1226 1.355 . S
C1227 C1229 1.419 . S
C1228 C1226 1.415 . S
C1228 C1233 1.425 . S
C1228 C1235 1.409 . S
C1229 H1221 0.930 . S
C1229 C1227 1.419 . S
C1229 C1230 1.362 . S
C1230 H1222 0.930 . S
C1230 C1229 1.362 . S
C1230 C1233 1.409 . S
C1231 H1223 0.930 . S
C1231 C1232 1.355 . S
C1231 C1233 1.415 . S
C1232 C1231 1.355 . S
C1232 C1234 1.419 . S
C1233 C1228 1.425 . S
C1233 C1230 1.409 . S
C1233 C1231 1.415 . S
C1234 H1224 0.930 . S
C1234 C1232 1.419 . S
C1234 C1235 1.362 . S
C1235 H1225 0.930 . S
C1235 C1228 1.409 . S
C1235 C1234 1.362 . S
H1236 C1242 0.930 . S
H1237 C1245 0.930 . S
H1238 C1246 0.930 . S
H1239 C1247 0.930 . S
H1240 C1250 0.930 . S
H1241 C1251 0.930 . S
C1242 H1236 0.930 . S
C1242 C1243 1.355 . S
C1242 C1244 1.415 . S
C1243 C1242 1.355 . S
C1243 C1245 1.419 . S
C1244 C1242 1.415 . S
C1244 C1249 1.425 . S
C1244 C1251 1.409 . S
C1245 H1237 0.930 . S
C1245 C1243 1.419 . S
C1245 C1246 1.362 . S
C1246 H1238 0.930 . S
C1246 C1245 1.362 . S
C1246 C1249 1.409 . S
C1247 H1239 0.930 . S
C1247 C1248 1.355 . S
C1247 C1249 1.415 . S
C1248 C1247 1.355 . S
C1248 C1250 1.419 . S
C1249 C1244 1.425 . S
C1249 C1246 1.409 . S
C1249 C1247 1.415 . S
C1250 H1240 0.930 . S
C1250 C1248 1.419 . S
C1250 C1251 1.362 . S
C1251 H1241 0.930 . S
C1251 C1244 1.409 . S
C1251 C1250 1.362 . S
H1252 C1258 0.930 . S
H1253 C1261 0.930 . S
H1254 C1262 0.930 . S
H1255 C1263 0.930 . S
H1256 C1266 0.930 . S
H1257 C1267 0.930 . S
C1258 H1252 0.930 . S
C1258 C1259 1.355 . S
C1258 C1260 1.415 . S
C1259 C1258 1.355 . S
C1259 C1261 1.419 . S
C1260 C1258 1.415 . S
C1260 C1265 1.425 . S
C1260 C1267 1.409 . S
C1261 H1253 0.930 . S
C1261 C1259 1.419 . S
C1261 C1262 1.362 . S
C1262 H1254 0.930 . S
C1262 C1261 1.362 . S
C1262 C1265 1.409 . S
C1263 H1255 0.930 . S
C1263 C1264 1.355 . S
C1263 C1265 1.415 . S
C1264 C1263 1.355 . S
C1264 C1266 1.419 . S
C1265 C1260 1.425 . S
C1265 C1262 1.409 . S
C1265 C1263 1.415 . S
C1266 H1256 0.930 . S
C1266 C1264 1.419 . S
C1266 C1267 1.362 . S
C1267 H1257 0.930 . S
C1267 C1260 1.409 . S
C1267 C1266 1.362 . S
H1268 C1274 0.930 . S
H1269 C1277 0.930 . S
H1270 C1278 0.930 . S
H1271 C1279 0.930 . S
H1272 C1282 0.930 . S
H1273 C1283 0.930 . S
C1274 H1268 0.930 . S
C1274 C1275 1.355 . S
C1274 C1276 1.415 . S
C1275 C1274 1.355 . S
C1275 C1277 1.419 . S
C1276 C1274 1.415 . S
C1276 C1281 1.425 . S
C1276 C1283 1.409 . S
C1277 H1269 0.930 . S
C1277 C1275 1.419 . S
C1277 C1278 1.362 . S
C1278 H1270 0.930 . S
C1278 C1277 1.362 . S
C1278 C1281 1.409 . S
C1279 H1271 0.930 . S
C1279 C1280 1.355 . S
C1279 C1281 1.415 . S
C1280 C1279 1.355 . S
C1280 C1282 1.419 . S
C1281 C1276 1.425 . S
C1281 C1278 1.409 . S
C1281 C1279 1.415 . S
C1282 H1272 0.930 . S
C1282 C1280 1.419 . S
C1282 C1283 1.362 . S
C1283 H1273 0.930 . S
C1283 C1276 1.409 . S
C1283 C1282 1.362 . S
H1284 C1290 0.930 . S
H1285 C1293 0.930 . S
H1286 C1294 0.930 . S
H1287 C1295 0.930 . S
H1288 C1298 0.930 . S
H1289 C1299 0.930 . S
C1290 H1284 0.930 . S
C1290 C1291 1.355 . S
C1290 C1292 1.415 . S
C1291 C1290 1.355 . S
C1291 C1293 1.419 . S
C1292 C1290 1.415 . S
C1292 C1297 1.425 . S
C1292 C1299 1.409 . S
C1293 H1285 0.930 . S
C1293 C1291 1.419 . S
C1293 C1294 1.362 . S
C1294 H1286 0.930 . S
C1294 C1293 1.362 . S
C1294 C1297 1.409 . S
C1295 H1287 0.930 . S
C1295 C1296 1.355 . S
C1295 C1297 1.415 . S
C1296 C1295 1.355 . S
C1296 C1298 1.419 . S
C1297 C1292 1.425 . S
C1297 C1294 1.409 . S
C1297 C1295 1.415 . S
C1298 H1288 0.930 . S
C1298 C1296 1.419 . S
C1298 C1299 1.362 . S
C1299 H1289 0.930 . S
C1299 C1292 1.409 . S
C1299 C1298 1.362 . S
H1300 C1306 0.930 . S
H1301 C1309 0.930 . S
H1302 C1310 0.930 . S
H1303 C1311 0.930 . S
H1304 C1314 0.930 . S
H1305 C1315 0.930 . S
C1306 H1300 0.930 . S
C1306 C1307 1.355 . S
C1306 C1308 1.415 . S
C1307 C1306 1.355 . S
C1307 C1309 1.419 . S
C1308 C1306 1.415 . S
C1308 C1313 1.425 . S
C1308 C1315 1.409 . S
C1309 H1301 0.930 . S
C1309 C1307 1.419 . S
C1309 C1310 1.362 . S
C1310 H1302 0.930 . S
C1310 C1309 1.362 . S
C1310 C1313 1.409 . S
C1311 H1303 0.930 . S
C1311 C1312 1.355 . S
C1311 C1313 1.415 . S
C1312 C1311 1.355 . S
C1312 C1314 1.419 . S
C1313 C1308 1.425 . S
C1313 C1310 1.409 . S
C1313 C1311 1.415 . S
C1314 H1304 0.930 . S
C1314 C1312 1.419 . S
C1314 C1315 1.362 . S
C1315 H1305 0.930 . S
C1315 C1308 1.409 . S
C1315 C1314 1.362 . S
H1316 C1322 0.930 . S
H1317 C1325 0.930 . S
H1318 C1326 0.930 . S
H1319 C1327 0.930 . S
H1320 C1330 0.930 . S
H1321 C1331 0.930 . S
C1322 H1316 0.930 . S
C1322 C1323 1.355 . S
C1322 C1324 1.415 . S
C1323 C1322 1.355 . S
C1323 C1325 1.419 . S
C1324 C1322 1.415 . S
C1324 C1329 1.425 . S
C1324 C1331 1.409 . S
C1325 H1317 0.930 . S
C1325 C1323 1.419 . S
C1325 C1326 1.362 . S
C1326 H1318 0.930 . S
C1326 C1325 1.362 . S
C1326 C1329 1.409 . S
C1327 H1319 0.930 . S
C1327 C1328 1.355 . S
C1327 C1329 1.415 . S
C1328 C1327 1.355 . S
C1328 C1330 1.419 . S
C1329 C1324 1.425 . S
C1329 C1326 1.409 . S
C1329 C1327 1.415 . S
C1330 H1320 0.930 . S
C1330 C1328 1.419 . S
C1330 C1331 1.362 . S
C1331 H1321 0.930 . S
C1331 C1324 1.409 . S
C1331 C1330 1.362 . S
H1332 C1338 0.930 . S
H1333 C1341 0.930 . S
H1334 C1342 0.930 . S
H1335 C1343 0.930 . S
H1336 C1346 0.930 . S
H1337 C1347 0.930 . S
C1338 H1332 0.930 . S
C1338 C1339 1.355 . S
C1338 C1340 1.415 . S
C1339 C1338 1.355 . S
C1339 C1341 1.419 . S
C1340 C1338 1.415 . S
C1340 C1345 1.425 . S
C1340 C1347 1.409 . S
C1341 H1333 0.930 . S
C1341 C1339 1.419 . S
C1341 C1342 1.362 . S
C1342 H1334 0.930 . S
C1342 C1341 1.362 . S
C1342 C1345 1.409 . S
C1343 H1335 0.930 . S
C1343 C1344 1.355 . S
C1343 C1345 1.415 . S
C1344 C1343 1.355 . S
C1344 C1346 1.419 . S
C1345 C1340 1.425 . S
C1345 C1342 1.409 . S
C1345 C1343 1.415 . S
C1346 H1336 0.930 . S
C1346 C1344 1.419 . S
C1346 C1347 1.362 . S
C1347 H1337 0.930 . S
C1347 C1340 1.409 . S
C1347 C1346 1.362 . S
H1348 C1354 0.930 . S
H1349 C1357 0.930 . S
H1350 C1358 0.930 . S
H1351 C1359 0.930 . S
H1352 C1362 0.930 . S
H1353 C1363 0.930 . S
C1354 H1348 0.930 . S
C1354 C1355 1.355 . S
C1354 C1356 1.415 . S
C1355 C1354 1.355 . S
C1355 C1357 1.419 . S
C1356 C1354 1.415 . S
C1356 C1361 1.425 . S
C1356 C1363 1.409 . S
C1357 H1349 0.930 . S
C1357 C1355 1.419 . S
C1357 C1358 1.362 . S
C1358 H1350 0.930 . S
C1358 C1357 1.362 . S
C1358 C1361 1.409 . S
C1359 H1351 0.930 . S
C1359 C1360 1.355 . S
C1359 C1361 1.415 . S
C1360 C1359 1.355 . S
C1360 C1362 1.419 . S
C1361 C1356 1.425 . S
C1361 C1358 1.409 . S
C1361 C1359 1.415 . S
C1362 H1352 0.930 . S
C1362 C1360 1.419 . S
C1362 C1363 1.362 . S
C1363 H1353 0.930 . S
C1363 C1356 1.409 . S
C1363 C1362 1.362 . S
H1364 C1370 0.930 . S
H1365 C1373 0.930 . S
H1366 C1374 0.930 . S
H1367 C1375 0.930 . S
H1368 C1378 0.930 . S
H1369 C1379 0.930 . S
C1370 H1364 0.930 . S
C1370 C1371 1.355 . S
C1370 C1372 1.415 . S
C1371 C1370 1.355 . S
C1371 C1373 1.419 . S
C1372 C1370 1.415 . S
C1372 C1377 1.425 . S
C1372 C1379 1.409 . S
C1373 H1365 0.930 . S
C1373 C1371 1.419 . S
C1373 C1374 1.362 . S
C1374 H1366 0.930 . S
C1374 C1373 1.362 . S
C1374 C1377 1.409 . S
C1375 H1367 0.930 . S
C1375 C1376 1.355 . S
C1375 C1377 1.415 . S
C1376 C1375 1.355 . S
C1376 C1378 1.419 . S
C1377 C1372 1.425 . S
C1377 C1374 1.409 . S
C1377 C1375 1.415 . S
C1378 H1368 0.930 . S
C1378 C1376 1.419 . S
C1378 C1379 1.362 . S
C1379 H1369 0.930 . S
C1379 C1372 1.409 . S
C1379 C1378 1.362 . S
H1380 C1386 0.930 . S
H1381 C1389 0.930 . S
H1382 C1390 0.930 . S
H1383 C1391 0.930 . S
H1384 C1394 0.930 . S
H1385 C1395 0.930 . S
C1386 H1380 0.930 . S
C1386 C1387 1.355 . S
C1386 C1388 1.415 . S
C1387 C1386 1.355 . S
C1387 C1389 1.419 . S
C1388 C1386 1.415 . S
C1388 C1393 1.425 1_655 S
C1388 C1395 1.409 . S
C1389 H1381 0.930 . S
C1389 C1387 1.419 . S
C1389 C1390 1.362 1_655 S
C1390 H1382 0.930 . S
C1390 C1389 1.362 1_455 S
C1390 C1393 1.409 . S
C1391 H1383 0.930 . S
C1391 C1392 1.355 . S
C1391 C1393 1.415 . S
C1392 C1391 1.355 . S
C1392 C1394 1.419 . S
C1393 C1388 1.425 1_455 S
C1393 C1390 1.409 . S
C1393 C1391 1.415 . S
C1394 H1384 0.930 . S
C1394 C1392 1.419 . S
C1394 C1395 1.362 1_455 S
C1395 H1385 0.930 . S
C1395 C1388 1.409 . S
C1395 C1394 1.362 1_655 S
H1396 C1402 0.930 . S
H1397 C1405 0.930 . S
H1398 C1406 0.930 . S
H1399 C1407 0.930 . S
H1400 C1410 0.930 . S
H1401 C1411 0.930 . S
C1402 H1396 0.930 . S
C1402 C1403 1.355 . S
C1402 C1404 1.415 . S
C1403 C1402 1.355 . S
C1403 C1405 1.419 . S
C1404 C1402 1.415 . S
C1404 C1409 1.425 . S
C1404 C1411 1.409 . S
C1405 H1397 0.930 . S
C1405 C1403 1.419 . S
C1405 C1406 1.362 . S
C1406 H1398 0.930 . S
C1406 C1405 1.362 . S
C1406 C1409 1.409 . S
C1407 H1399 0.930 . S
C1407 C1408 1.355 . S
C1407 C1409 1.415 . S
C1408 C1407 1.355 . S
C1408 C1410 1.419 . S
C1409 C1404 1.425 . S
C1409 C1406 1.409 . S
C1409 C1407 1.415 . S
C1410 H1400 0.930 . S
C1410 C1408 1.419 . S
C1410 C1411 1.362 . S
C1411 H1401 0.930 . S
C1411 C1404 1.409 . S
C1411 C1410 1.362 . S
H1412 C1418 0.930 . S
H1413 C1421 0.930 . S
H1414 C1422 0.930 . S
H1415 C1423 0.930 . S
H1416 C1426 0.930 . S
H1417 C1427 0.930 . S
C1418 H1412 0.930 . S
C1418 C1419 1.355 . S
C1418 C1420 1.415 . S
C1419 C1418 1.355 . S
C1419 C1421 1.419 . S
C1420 C1418 1.415 . S
C1420 C1425 1.425 1_565 S
C1420 C1427 1.409 . S
C1421 H1413 0.930 . S
C1421 C1419 1.419 . S
C1421 C1422 1.362 1_565 S
C1422 H1414 0.930 . S
C1422 C1421 1.362 1_545 S
C1422 C1425 1.409 . S
C1423 H1415 0.930 . S
C1423 C1424 1.355 . S
C1423 C1425 1.415 . S
C1424 C1423 1.355 . S
C1424 C1426 1.419 . S
C1425 C1420 1.425 1_545 S
C1425 C1422 1.409 . S
C1425 C1423 1.415 . S
C1426 H1416 0.930 . S
C1426 C1424 1.419 . S
C1426 C1427 1.362 1_545 S
C1427 H1417 0.930 . S
C1427 C1420 1.409 . S
C1427 C1426 1.362 1_565 S
H1428 C1434 0.930 . S
H1429 C1437 0.930 . S
H1430 C1438 0.930 . S
H1431 C1439 0.930 . S
H1432 C1442 0.930 . S
H1433 C1443 0.930 . S
C1434 H1428 0.930 . S
C1434 C1435 1.355 . S
C1434 C1436 1.415 1_565 S
C1435 C1434 1.355 . S
C1435 C1437 1.419 1_554 S
C1436 C1434 1.415 1_545 S
C1436 C1441 1.425 1_544 S
C1436 C1443 1.409 . S
C1437 H1429 0.930 . S
C1437 C1435 1.419 1_556 S
C1437 C1438 1.362 . S
C1438 H1430 0.930 . S
C1438 C1437 1.362 . S
C1438 C1441 1.409 . S
C1439 H1431 0.930 . S
C1439 C1440 1.355 . S
C1439 C1441 1.415 1_545 S
C1440 C1439 1.355 . S
C1440 C1442 1.419 1_556 S
C1441 C1436 1.425 1_566 S
C1441 C1438 1.409 . S
C1441 C1439 1.415 1_565 S
C1442 H1432 0.930 . S
C1442 C1440 1.419 1_554 S
C1442 C1443 1.362 . S
C1443 H1433 0.930 . S
C1443 C1436 1.409 . S
C1443 C1442 1.362 . S
H1444 C1450 0.930 . S
H1445 C1453 0.930 . S
H1446 C1454 0.930 . S
H1447 C1455 0.930 . S
H1448 C1458 0.930 . S
H1449 C1459 0.930 . S
C1450 H1444 0.930 . S
C1450 C1451 1.355 . S
C1450 C1452 1.415 . S
C1451 C1450 1.355 . S
C1451 C1453 1.419 . S
C1452 C1450 1.415 . S
C1452 C1457 1.425 1_656 S
C1452 C1459 1.409 . S
C1453 H1445 0.930 . S
C1453 C1451 1.419 . S
C1453 C1454 1.362 1_656 S
C1454 H1446 0.930 . S
C1454 C1453 1.362 1_454 S
C1454 C1457 1.409 . S
C1455 H1447 0.930 . S
C1455 C1456 1.355 . S
C1455 C1457 1.415 . S
C1456 C1455 1.355 . S
C1456 C1458 1.419 . S
C1457 C1452 1.425 1_454 S
C1457 C1454 1.409 . S
C1457 C1455 1.415 . S
C1458 H1448 0.930 . S
C1458 C1456 1.419 . S
C1458 C1459 1.362 1_454 S
C1459 H1449 0.930 . S
C1459 C1452 1.409 . S
C1459 C1458 1.362 1_656 S
H1460 C1466 0.930 1_556 S
H1461 C1469 0.930 . S
H1462 C1470 0.930 . S
H1463 C1471 0.930 1_554 S
H1464 C1474 0.930 . S
H1465 C1475 0.930 . S
C1466 H1460 0.930 1_554 S
C1466 C1467 1.355 . S
C1466 C1468 1.415 1_554 S
C1467 C1466 1.355 . S
C1467 C1469 1.419 . S
C1468 C1466 1.415 1_556 S
C1468 C1473 1.425 1_556 S
C1468 C1475 1.409 . S
C1469 H1461 0.930 . S
C1469 C1467 1.419 . S
C1469 C1470 1.362 . S
C1470 H1462 0.930 . S
C1470 C1469 1.362 . S
C1470 C1473 1.409 . S
C1471 H1463 0.930 1_556 S
C1471 C1472 1.355 . S
C1471 C1473 1.415 1_556 S
C1472 C1471 1.355 . S
C1472 C1474 1.419 . S
C1473 C1468 1.425 1_554 S
C1473 C1470 1.409 . S
C1473 C1471 1.415 1_554 S
C1474 H1464 0.930 . S
C1474 C1472 1.419 . S
C1474 C1475 1.362 . S
C1475 H1465 0.930 . S
C1475 C1468 1.409 . S
C1475 C1474 1.362 . S
H1476 C1482 0.930 . S
H1477 C1485 0.930 . S
H1478 C1486 0.930 . S
H1479 C1487 0.930 . S
H1480 C1490 0.930 1_565 S
H1481 C1491 0.930 . S
C1482 H1476 0.930 . S
C1482 C1483 1.355 . S
C1482 C1484 1.415 . S
C1483 C1482 1.355 . S
C1483 C1485 1.419 . S
C1484 C1482 1.415 . S
C1484 C1489 1.425 . S
C1484 C1491 1.409 1_554 S
C1485 H1477 0.930 . S
C1485 C1483 1.419 . S
C1485 C1486 1.362 . S
C1486 H1478 0.930 . S
C1486 C1485 1.362 . S
C1486 C1489 1.409 . S
C1487 H1479 0.930 . S
C1487 C1488 1.355 1_554 S
C1487 C1489 1.415 . S
C1488 C1487 1.355 1_556 S
C1488 C1490 1.419 . S
C1489 C1484 1.425 . S
C1489 C1486 1.409 . S
C1489 C1487 1.415 . S
C1490 H1480 0.930 1_545 S
C1490 C1488 1.419 . S
C1490 C1491 1.362 . S
C1491 H1481 0.930 . S
C1491 C1484 1.409 1_556 S
C1491 C1490 1.362 . S
H1492 C1498 0.930 . S
H1493 C1501 0.930 . S
H1494 C1502 0.930 . S
H1495 C1503 0.930 . S
H1496 C1506 0.930 . S
H1497 C1507 0.930 . S
C1498 H1492 0.930 . S
C1498 C1499 1.355 . S
C1498 C1500 1.415 . S
C1499 C1498 1.355 . S
C1499 C1501 1.419 1_554 S
C1500 C1498 1.415 . S
C1500 C1505 1.424 1_554 S
C1500 C1507 1.409 . S
C1501 H1493 0.930 . S
C1501 C1499 1.419 1_556 S
C1501 C1502 1.362 . S
C1502 H1494 0.930 . S
C1502 C1501 1.362 . S
C1502 C1505 1.410 . S
C1503 H1495 0.930 . S
C1503 C1504 1.355 1_556 S
C1503 C1505 1.415 . S
C1504 C1503 1.355 1_554 S
C1504 C1506 1.419 . S
C1505 C1500 1.424 1_556 S
C1505 C1502 1.410 . S
C1505 C1503 1.415 . S
C1506 H1496 0.930 . S
C1506 C1504 1.419 . S
C1506 C1507 1.362 . S
C1507 H1497 0.930 . S
C1507 C1500 1.409 . S
C1507 C1506 1.362 . S
H1508 C1514 0.930 . S
H1509 C1517 0.930 . S
H1510 C1518 0.930 . S
H1511 C1519 0.930 . S
H1512 C1522 0.930 . S
H1513 C1523 0.930 . S
C1514 H1508 0.930 . S
C1514 C1515 1.355 . S
C1514 C1516 1.415 . S
C1515 C1514 1.355 . S
C1515 C1517 1.419 . S
C1516 C1514 1.415 . S
C1516 C1521 1.425 . S
C1516 C1523 1.409 1_554 S
C1517 H1509 0.930 . S
C1517 C1515 1.419 . S
C1517 C1518 1.362 . S
C1518 H1510 0.930 . S
C1518 C1517 1.362 . S
C1518 C1521 1.409 . S
C1519 H1511 0.930 . S
C1519 C1520 1.355 . S
C1519 C1521 1.415 . S
C1520 C1519 1.355 . S
C1520 C1522 1.419 1_554 S
C1521 C1516 1.425 . S
C1521 C1518 1.409 . S
C1521 C1519 1.415 . S
C1522 H1512 0.930 . S
C1522 C1520 1.419 1_556 S
C1522 C1523 1.362 . S
C1523 H1513 0.930 . S
C1523 C1516 1.409 1_556 S
C1523 C1522 1.362 . S
H1524 C1530 0.930 . S
H1525 C1533 0.930 . S
H1526 C1534 0.930 . S
H1527 C1535 0.930 . S
H1528 C1538 0.930 . S
H1529 C1539 0.930 . S
C1530 H1524 0.930 . S
C1530 C1531 1.355 . S
C1530 C1532 1.415 . S
C1531 C1530 1.355 . S
C1531 C1533 1.419 . S
C1532 C1530 1.415 . S
C1532 C1537 1.425 . S
C1532 C1539 1.409 . S
C1533 H1525 0.930 . S
C1533 C1531 1.419 . S
C1533 C1534 1.362 . S
C1534 H1526 0.930 . S
C1534 C1533 1.362 . S
C1534 C1537 1.409 . S
C1535 H1527 0.930 . S
C1535 C1536 1.355 . S
C1535 C1537 1.415 . S
C1536 C1535 1.355 . S
C1536 C1538 1.419 . S
C1537 C1532 1.425 . S
C1537 C1534 1.409 . S
C1537 C1535 1.415 . S
C1538 H1528 0.930 . S
C1538 C1536 1.419 . S
C1538 C1539 1.362 . S
C1539 H1529 0.930 . S
C1539 C1532 1.409 . S
C1539 C1538 1.362 . S
H1540 C1546 0.930 . S
H1541 C1549 0.930 . S
H1542 C1550 0.930 . S
H1543 C1551 0.930 . S
H1544 C1554 0.930 . S
H1545 C1555 0.930 . S
C1546 H1540 0.930 . S
C1546 C1547 1.355 . S
C1546 C1548 1.415 . S
C1547 C1546 1.355 . S
C1547 C1549 1.419 . S
C1548 C1546 1.415 . S
C1548 C1553 1.425 . S
C1548 C1555 1.409 . S
C1549 H1541 0.930 . S
C1549 C1547 1.419 . S
C1549 C1550 1.362 . S
C1550 H1542 0.930 . S
C1550 C1549 1.362 . S
C1550 C1553 1.409 . S
C1551 H1543 0.930 . S
C1551 C1552 1.355 . S
C1551 C1553 1.415 . S
C1552 C1551 1.355 . S
C1552 C1554 1.419 . S
C1553 C1548 1.425 . S
C1553 C1550 1.409 . S
C1553 C1551 1.415 . S
C1554 H1544 0.930 . S
C1554 C1552 1.419 . S
C1554 C1555 1.362 . S
C1555 H1545 0.930 . S
C1555 C1548 1.409 . S
C1555 C1554 1.362 . S
H1556 C1562 0.930 . S
H1557 C1565 0.930 . S
H1558 C1566 0.930 . S
H1559 C1567 0.930 . S
H1560 C1570 0.930 1_545 S
H1561 C1571 0.930 . S
C1562 H1556 0.930 . S
C1562 C1563 1.355 . S
C1562 C1564 1.415 . S
C1563 C1562 1.355 . S
C1563 C1565 1.419 . S
C1564 C1562 1.415 . S
C1564 C1569 1.425 . S
C1564 C1571 1.409 . S
C1565 H1557 0.930 . S
C1565 C1563 1.419 . S
C1565 C1566 1.362 . S
C1566 H1558 0.930 . S
C1566 C1565 1.362 . S
C1566 C1569 1.409 . S
C1567 H1559 0.930 . S
C1567 C1568 1.355 . S
C1567 C1569 1.415 . S
C1568 C1567 1.355 . S
C1568 C1570 1.419 . S
C1569 C1564 1.425 . S
C1569 C1566 1.409 . S
C1569 C1567 1.415 . S
C1570 H1560 0.930 1_565 S
C1570 C1568 1.419 . S
C1570 C1571 1.362 . S
C1571 H1561 0.930 . S
C1571 C1564 1.409 . S
C1571 C1570 1.362 . S
H1572 C1578 0.930 . S
H1573 C1581 0.930 1_554 S
H1574 C1582 0.930 . S
H1575 C1583 0.930 . S
H1576 C1586 0.930 . S
H1577 C1587 0.930 . S
C1578 H1572 0.930 . S
C1578 C1579 1.355 . S
C1578 C1580 1.415 . S
C1579 C1578 1.355 . S
C1579 C1581 1.419 . S
C1580 C1578 1.415 . S
C1580 C1585 1.425 . S
C1580 C1587 1.409 . S
C1581 H1573 0.930 1_556 S
C1581 C1579 1.419 . S
C1581 C1582 1.362 1_556 S
C1582 H1574 0.930 . S
C1582 C1581 1.362 1_554 S
C1582 C1585 1.409 1_554 S
C1583 H1575 0.930 . S
C1583 C1584 1.355 1_554 S
C1583 C1585 1.415 1_554 S
C1584 C1583 1.355 1_556 S
C1584 C1586 1.419 . S
C1585 C1580 1.425 . S
C1585 C1582 1.409 1_556 S
C1585 C1583 1.415 1_556 S
C1586 H1576 0.930 . S
C1586 C1584 1.419 . S
C1586 C1587 1.362 . S
C1587 H1577 0.930 . S
C1587 C1580 1.409 . S
C1587 C1586 1.362 . S
H1588 C1594 0.921 1_554 S
H1589 C1597 0.930 . S
H1590 C1598 0.930 . S
H1591 C1599 0.930 . S
H1592 C1602 0.957 . S
H1593 C1603 0.930 . S
C1594 H1588 0.921 1_556 S
C1594 C1595 1.364 . S
C1594 C1596 1.415 . S
C1595 C1594 1.364 . S
C1595 C1597 1.419 . S
C1596 C1594 1.415 . S
C1596 C1601 1.425 . S
C1596 C1603 1.409 1_556 S
C1597 H1589 0.930 . S
C1597 C1595 1.419 . S
C1597 C1598 1.362 . S
C1598 H1590 0.930 . S
C1598 C1597 1.362 . S
C1598 C1601 1.409 . S
C1599 H1591 0.930 . S
C1599 C1600 1.352 1_556 S
C1599 C1601 1.415 . S
C1600 C1599 1.352 1_554 S
C1600 C1602 1.421 . S
C1601 C1596 1.425 . S
C1601 C1598 1.409 . S
C1601 C1599 1.415 . S
C1602 H1592 0.957 . S
C1602 C1600 1.421 . S
C1602 C1603 1.362 . S
C1603 H1593 0.930 . S
C1603 C1596 1.409 1_554 S
C1603 C1602 1.362 . S
H1604 C1610 0.930 . S
H1605 C1613 0.930 . S
H1606 C1614 0.930 . S
H1607 C1615 0.930 . S
H1608 C1618 0.930 . S
H1609 C1619 0.930 . S
C1610 H1604 0.930 . S
C1610 C1611 1.355 1_554 S
C1610 C1612 1.415 . S
C1611 C1610 1.355 1_556 S
C1611 C1613 1.419 . S
C1612 C1610 1.415 . S
C1612 C1617 1.425 1_554 S
C1612 C1619 1.409 . S
C1613 H1605 0.930 . S
C1613 C1611 1.419 . S
C1613 C1614 1.362 . S
C1614 H1606 0.930 . S
C1614 C1613 1.362 . S
C1614 C1617 1.409 . S
C1615 H1607 0.930 . S
C1615 C1616 1.355 . S
C1615 C1617 1.415 . S
C1616 C1615 1.355 . S
C1616 C1618 1.419 1_556 S
C1617 C1612 1.425 1_556 S
C1617 C1614 1.409 . S
C1617 C1615 1.415 . S
C1618 H1608 0.930 . S
C1618 C1616 1.419 1_554 S
C1618 C1619 1.362 . S
C1619 H1609 0.930 . S
C1619 C1612 1.409 . S
C1619 C1618 1.362 . S
H1620 C1626 0.930 . S
H1621 C1629 0.930 . S
H1622 C1630 0.930 . S
H1623 C1631 0.930 . S
H1624 C1634 0.930 . S
H1625 C1635 0.930 . S
C1626 H1620 0.930 . S
C1626 C1627 1.355 . S
C1626 C1628 1.415 . S
C1627 C1626 1.355 . S
C1627 C1629 1.419 . S
C1628 C1626 1.415 . S
C1628 C1633 1.425 . S
C1628 C1635 1.409 . S
C1629 H1621 0.930 . S
C1629 C1627 1.419 . S
C1629 C1630 1.362 . S
C1630 H1622 0.930 . S
C1630 C1629 1.362 . S
C1630 C1633 1.409 . S
C1631 H1623 0.930 . S
C1631 C1632 1.355 . S
C1631 C1633 1.415 . S
C1632 C1631 1.355 . S
C1632 C1634 1.419 . S
C1633 C1628 1.425 . S
C1633 C1630 1.409 . S
C1633 C1631 1.415 . S
C1634 H1624 0.930 . S
C1634 C1632 1.419 . S
C1634 C1635 1.362 . S
C1635 H1625 0.930 . S
C1635 C1628 1.409 . S
C1635 C1634 1.362 . S
H1636 C1642 0.930 . S
H1637 C1645 0.930 . S
H1638 C1646 0.930 . S
H1639 C1647 0.930 . S
H1640 C1650 0.930 . S
H1641 C1651 0.930 . S
C1642 H1636 0.930 . S
C1642 C1643 1.355 . S
C1642 C1644 1.415 . S
C1643 C1642 1.355 . S
C1643 C1645 1.419 . S
C1644 C1642 1.415 . S
C1644 C1649 1.425 . S
C1644 C1651 1.409 . S
C1645 H1637 0.930 . S
C1645 C1643 1.419 . S
C1645 C1646 1.362 . S
C1646 H1638 0.930 . S
C1646 C1645 1.362 . S
C1646 C1649 1.409 . S
C1647 H1639 0.930 . S
C1647 C1648 1.355 . S
C1647 C1649 1.415 . S
C1648 C1647 1.355 . S
C1648 C1650 1.419 . S
C1649 C1644 1.425 . S
C1649 C1646 1.409 . S
C1649 C1647 1.415 . S
C1650 H1640 0.930 . S
C1650 C1648 1.419 . S
C1650 C1651 1.362 . S
C1651 H1641 0.930 . S
C1651 C1644 1.409 . S
C1651 C1650 1.362 . S
H1652 C1658 0.930 . S
H1653 C1661 0.930 . S
H1654 C1662 0.930 . S
H1655 C1663 0.930 . S
H1656 C1666 0.930 . S
H1657 C1667 0.930 . S
C1658 H1652 0.930 . S
C1658 C1659 1.355 . S
C1658 C1660 1.415 . S
C1659 C1658 1.355 . S
C1659 C1661 1.419 . S
C1660 C1658 1.415 . S
C1660 C1665 1.425 . S
C1660 C1667 1.409 . S
C1661 H1653 0.930 . S
C1661 C1659 1.419 . S
C1661 C1662 1.362 . S
C1662 H1654 0.930 . S
C1662 C1661 1.362 . S
C1662 C1665 1.409 . S
C1663 H1655 0.930 . S
C1663 C1664 1.355 . S
C1663 C1665 1.415 . S
C1664 C1663 1.355 . S
C1664 C1666 1.419 . S
C1665 C1660 1.425 . S
C1665 C1662 1.409 . S
C1665 C1663 1.415 . S
C1666 H1656 0.930 . S
C1666 C1664 1.419 . S
C1666 C1667 1.362 . S
C1667 H1657 0.930 . S
C1667 C1660 1.409 . S
C1667 C1666 1.362 . S
H1668 C1674 0.930 . S
H1669 C1677 0.930 . S
H1670 C1678 0.930 . S
H1671 C1679 0.930 . S
H1672 C1682 0.930 . S
H1673 C1683 0.930 . S
C1674 H1668 0.930 . S
C1674 C1675 1.355 . S
C1674 C1676 1.415 . S
C1675 C1674 1.355 . S
C1675 C1677 1.419 . S
C1676 C1674 1.415 . S
C1676 C1681 1.425 . S
C1676 C1683 1.409 . S
C1677 H1669 0.930 . S
C1677 C1675 1.419 . S
C1677 C1678 1.362 . S
C1678 H1670 0.930 . S
C1678 C1677 1.362 . S
C1678 C1681 1.409 . S
C1679 H1671 0.930 . S
C1679 C1680 1.355 . S
C1679 C1681 1.415 . S
C1680 C1679 1.355 . S
C1680 C1682 1.419 . S
C1681 C1676 1.425 . S
C1681 C1678 1.409 . S
C1681 C1679 1.415 . S
C1682 H1672 0.930 . S
C1682 C1680 1.419 . S
C1682 C1683 1.362 . S
C1683 H1673 0.930 . S
C1683 C1676 1.409 . S
C1683 C1682 1.362 . S
H1684 C1690 0.930 . S
H1685 C1693 0.930 . S
H1686 C1694 0.930 . S
H1687 C1695 0.930 . S
H1688 C1698 0.930 . S
H1689 C1699 0.930 . S
C1690 H1684 0.930 . S
C1690 C1691 1.355 . S
C1690 C1692 1.415 . S
C1691 C1690 1.355 . S
C1691 C1693 1.419 . S
C1692 C1690 1.415 . S
C1692 C1697 1.425 . S
C1692 C1699 1.409 . S
C1693 H1685 0.930 . S
C1693 C1691 1.419 . S
C1693 C1694 1.362 . S
C1694 H1686 0.930 . S
C1694 C1693 1.362 . S
C1694 C1697 1.409 . S
C1695 H1687 0.930 . S
C1695 C1696 1.355 . S
C1695 C1697 1.415 . S
C1696 C1695 1.355 . S
C1696 C1698 1.419 . S
C1697 C1692 1.425 . S
C1697 C1694 1.409 . S
C1697 C1695 1.415 . S
C1698 H1688 0.930 . S
C1698 C1696 1.419 . S
C1698 C1699 1.362 . S
C1699 H1689 0.930 . S
C1699 C1692 1.409 . S
C1699 C1698 1.362 . S
H1700 C1706 0.930 . S
H1701 C1709 0.930 . S
H1702 C1710 0.930 . S
H1703 C1711 0.930 . S
H1704 C1714 0.930 . S
H1705 C1715 0.930 . S
C1706 H1700 0.930 . S
C1706 C1707 1.355 . S
C1706 C1708 1.415 . S
C1707 C1706 1.355 . S
C1707 C1709 1.419 . S
C1708 C1706 1.415 . S
C1708 C1713 1.425 . S
C1708 C1715 1.409 . S
C1709 H1701 0.930 . S
C1709 C1707 1.419 . S
C1709 C1710 1.362 . S
C1710 H1702 0.930 . S
C1710 C1709 1.362 . S
C1710 C1713 1.409 . S
C1711 H1703 0.930 . S
C1711 C1712 1.355 . S
C1711 C1713 1.415 . S
C1712 C1711 1.355 . S
C1712 C1714 1.419 . S
C1713 C1708 1.425 . S
C1713 C1710 1.409 . S
C1713 C1711 1.415 . S
C1714 H1704 0.930 . S
C1714 C1712 1.419 . S
C1714 C1715 1.362 . S
C1715 H1705 0.930 . S
C1715 C1708 1.409 . S
C1715 C1714 1.362 . S
H1716 C1722 0.930 . S
H1717 C1725 0.930 . S
H1718 C1726 0.930 . S
H1719 C1727 0.930 . S
H1720 C1730 0.930 . S
H1721 C1731 0.930 . S
C1722 H1716 0.930 . S
C1722 C1723 1.355 . S
C1722 C1724 1.415 . S
C1723 C1722 1.355 . S
C1723 C1725 1.419 . S
C1724 C1722 1.415 . S
C1724 C1729 1.425 . S
C1724 C1731 1.409 . S
C1725 H1717 0.930 . S
C1725 C1723 1.419 . S
C1725 C1726 1.362 . S
C1726 H1718 0.930 . S
C1726 C1725 1.362 . S
C1726 C1729 1.409 . S
C1727 H1719 0.930 . S
C1727 C1728 1.355 . S
C1727 C1729 1.415 . S
C1728 C1727 1.355 . S
C1728 C1730 1.419 . S
C1729 C1724 1.425 . S
C1729 C1726 1.409 . S
C1729 C1727 1.415 . S
C1730 H1720 0.930 . S
C1730 C1728 1.419 . S
C1730 C1731 1.362 . S
C1731 H1721 0.930 . S
C1731 C1724 1.409 . S
C1731 C1730 1.362 . S
H1732 C1738 0.930 . S
H1733 C1741 0.930 . S
H1734 C1742 0.930 . S
H1735 C1743 0.930 . S
H1736 C1746 0.930 . S
H1737 C1747 0.930 . S
C1738 H1732 0.930 . S
C1738 C1739 1.355 . S
C1738 C1740 1.415 . S
C1739 C1738 1.355 . S
C1739 C1741 1.419 . S
C1740 C1738 1.415 . S
C1740 C1745 1.425 . S
C1740 C1747 1.409 . S
C1741 H1733 0.930 . S
C1741 C1739 1.419 . S
C1741 C1742 1.362 . S
C1742 H1734 0.930 . S
C1742 C1741 1.362 . S
C1742 C1745 1.409 . S
C1743 H1735 0.930 . S
C1743 C1744 1.355 . S
C1743 C1745 1.415 . S
C1744 C1743 1.355 . S
C1744 C1746 1.419 . S
C1745 C1740 1.425 . S
C1745 C1742 1.409 . S
C1745 C1743 1.415 . S
C1746 H1736 0.930 . S
C1746 C1744 1.419 . S
C1746 C1747 1.362 . S
C1747 H1737 0.930 . S
C1747 C1740 1.409 . S
C1747 C1746 1.362 . S
H1748 C1754 0.930 . S
H1749 C1757 0.930 . S
H1750 C1758 0.930 . S
H1751 C1759 0.930 . S
H1752 C1762 0.930 . S
H1753 C1763 0.930 . S
C1754 H1748 0.930 . S
C1754 C1755 1.355 . S
C1754 C1756 1.415 . S
C1755 C1754 1.355 . S
C1755 C1757 1.419 . S
C1756 C1754 1.415 . S
C1756 C1761 1.425 . S
C1756 C1763 1.409 . S
C1757 H1749 0.930 . S
C1757 C1755 1.419 . S
C1757 C1758 1.362 . S
C1758 H1750 0.930 . S
C1758 C1757 1.362 . S
C1758 C1761 1.409 . S
C1759 H1751 0.930 . S
C1759 C1760 1.355 . S
C1759 C1761 1.415 . S
C1760 C1759 1.355 . S
C1760 C1762 1.419 . S
C1761 C1756 1.425 . S
C1761 C1758 1.409 . S
C1761 C1759 1.415 . S
C1762 H1752 0.930 . S
C1762 C1760 1.419 . S
C1762 C1763 1.362 . S
C1763 H1753 0.930 . S
C1763 C1756 1.409 . S
C1763 C1762 1.362 . S
H1764 C1770 0.930 . S
H1765 C1773 0.930 . S
H1766 C1774 0.930 . S
H1767 C1775 0.930 . S
H1768 C1778 0.930 . S
H1769 C1779 0.930 . S
C1770 H1764 0.930 . S
C1770 C1771 1.355 . S
C1770 C1772 1.415 . S
C1771 C1770 1.355 . S
C1771 C1773 1.419 . S
C1772 C1770 1.415 . S
C1772 C1777 1.425 . S
C1772 C1779 1.409 . S
C1773 H1765 0.930 . S
C1773 C1771 1.419 . S
C1773 C1774 1.362 . S
C1774 H1766 0.930 . S
C1774 C1773 1.362 . S
C1774 C1777 1.409 . S
C1775 H1767 0.930 . S
C1775 C1776 1.355 . S
C1775 C1777 1.415 . S
C1776 C1775 1.355 . S
C1776 C1778 1.419 . S
C1777 C1772 1.425 . S
C1777 C1774 1.409 . S
C1777 C1775 1.415 . S
C1778 H1768 0.930 . S
C1778 C1776 1.419 . S
C1778 C1779 1.362 . S
C1779 H1769 0.930 . S
C1779 C1772 1.409 . S
C1779 C1778 1.362 . S
H1780 C1786 0.930 . S
H1781 C1789 0.930 . S
H1782 C1790 0.930 . S
H1783 C1791 0.930 . S
H1784 C1794 0.930 . S
H1785 C1795 0.930 . S
C1786 H1780 0.930 . S
C1786 C1787 1.355 . S
C1786 C1788 1.415 . S
C1787 C1786 1.355 . S
C1787 C1789 1.419 . S
C1788 C1786 1.415 . S
C1788 C1793 1.425 . S
C1788 C1795 1.409 . S
C1789 H1781 0.930 . S
C1789 C1787 1.419 . S
C1789 C1790 1.362 . S
C1790 H1782 0.930 . S
C1790 C1789 1.362 . S
C1790 C1793 1.409 . S
C1791 H1783 0.930 . S
C1791 C1792 1.355 . S
C1791 C1793 1.415 . S
C1792 C1791 1.355 . S
C1792 C1794 1.419 . S
C1793 C1788 1.425 . S
C1793 C1790 1.409 . S
C1793 C1791 1.415 . S
C1794 H1784 0.930 . S
C1794 C1792 1.419 . S
C1794 C1795 1.362 . S
C1795 H1785 0.930 . S
C1795 C1788 1.409 . S
C1795 C1794 1.362 . S
H1796 C1802 0.930 . S
H1797 C1805 0.930 . S
H1798 C1806 0.930 . S
H1799 C1807 0.930 . S
H1800 C1810 0.930 . S
H1801 C1811 0.930 . S
C1802 H1796 0.930 . S
C1802 C1803 1.355 . S
C1802 C1804 1.415 . S
C1803 C1802 1.355 . S
C1803 C1805 1.419 . S
C1804 C1802 1.415 . S
C1804 C1809 1.425 . S
C1804 C1811 1.409 . S
C1805 H1797 0.930 . S
C1805 C1803 1.419 . S
C1805 C1806 1.362 . S
C1806 H1798 0.930 . S
C1806 C1805 1.362 . S
C1806 C1809 1.409 . S
C1807 H1799 0.930 . S
C1807 C1808 1.355 . S
C1807 C1809 1.415 . S
C1808 C1807 1.355 . S
C1808 C1810 1.419 . S
C1809 C1804 1.425 . S
C1809 C1806 1.409 . S
C1809 C1807 1.415 . S
C1810 H1800 0.930 . S
C1810 C1808 1.419 . S
C1810 C1811 1.362 . S
C1811 H1801 0.930 . S
C1811 C1804 1.409 . S
C1811 C1810 1.362 . S
H1812 C1818 0.930 . S
H1813 C1821 0.930 . S
H1814 C1822 0.930 . S
H1815 C1823 0.930 . S
H1816 C1826 0.930 . S
H1817 C1827 0.930 . S
C1818 H1812 0.930 . S
C1818 C1819 1.355 . S
C1818 C1820 1.415 . S
C1819 C1818 1.355 . S
C1819 C1821 1.419 . S
C1820 C1818 1.415 . S
C1820 C1825 1.425 . S
C1820 C1827 1.409 . S
C1821 H1813 0.930 . S
C1821 C1819 1.419 . S
C1821 C1822 1.362 . S
C1822 H1814 0.930 . S
C1822 C1821 1.362 . S
C1822 C1825 1.409 . S
C1823 H1815 0.930 . S
C1823 C1824 1.355 . S
C1823 C1825 1.415 . S
C1824 C1823 1.355 . S
C1824 C1826 1.419 . S
C1825 C1820 1.425 . S
C1825 C1822 1.409 . S
C1825 C1823 1.415 . S
C1826 H1816 0.930 . S
C1826 C1824 1.419 . S
C1826 C1827 1.362 . S
C1827 H1817 0.930 . S
C1827 C1820 1.409 . S
C1827 C1826 1.362 . S
H1828 C1834 0.930 . S
H1829 C1837 0.930 . S
H1830 C1838 0.930 . S
H1831 C1839 0.930 . S
H1832 C1842 0.930 . S
H1833 C1843 0.930 . S
C1834 H1828 0.930 . S
C1834 C1835 1.355 . S
C1834 C1836 1.415 . S
C1835 C1834 1.355 . S
C1835 C1837 1.419 . S
C1836 C1834 1.415 . S
C1836 C1841 1.425 . S
C1836 C1843 1.409 . S
C1837 H1829 0.930 . S
C1837 C1835 1.419 . S
C1837 C1838 1.362 . S
C1838 H1830 0.930 . S
C1838 C1837 1.362 . S
C1838 C1841 1.409 . S
C1839 H1831 0.930 . S
C1839 C1840 1.355 . S
C1839 C1841 1.415 . S
C1840 C1839 1.355 . S
C1840 C1842 1.419 . S
C1841 C1836 1.425 . S
C1841 C1838 1.409 . S
C1841 C1839 1.415 . S
C1842 H1832 0.930 . S
C1842 C1840 1.419 . S
C1842 C1843 1.362 . S
C1843 H1833 0.930 . S
C1843 C1836 1.409 . S
C1843 C1842 1.362 . S
H1844 C1850 0.930 . S
H1845 C1853 0.930 . S
H1846 C1854 0.930 . S
H1847 C1855 0.930 . S
H1848 C1858 0.930 . S
H1849 C1859 0.930 . S
C1850 H1844 0.930 . S
C1850 C1851 1.355 . S
C1850 C1852 1.415 . S
C1851 C1850 1.355 . S
C1851 C1853 1.419 . S
C1852 C1850 1.415 . S
C1852 C1857 1.425 . S
C1852 C1859 1.409 . S
C1853 H1845 0.930 . S
C1853 C1851 1.419 . S
C1853 C1854 1.362 . S
C1854 H1846 0.930 . S
C1854 C1853 1.362 . S
C1854 C1857 1.409 . S
C1855 H1847 0.930 . S
C1855 C1856 1.355 . S
C1855 C1857 1.415 . S
C1856 C1855 1.355 . S
C1856 C1858 1.419 . S
C1857 C1852 1.425 . S
C1857 C1854 1.409 . S
C1857 C1855 1.415 . S
C1858 H1848 0.930 . S
C1858 C1856 1.419 . S
C1858 C1859 1.362 . S
C1859 H1849 0.930 . S
C1859 C1852 1.409 . S
C1859 C1858 1.362 . S
H1860 C1866 0.930 . S
H1861 C1869 0.930 . S
H1862 C1870 0.930 . S
H1863 C1871 0.930 . S
H1864 C1874 0.930 . S
H1865 C1875 0.930 . S
C1866 H1860 0.930 . S
C1866 C1867 1.355 . S
C1866 C1868 1.415 . S
C1867 C1866 1.355 . S
C1867 C1869 1.419 . S
C1868 C1866 1.415 . S
C1868 C1873 1.425 . S
C1868 C1875 1.409 . S
C1869 H1861 0.930 . S
C1869 C1867 1.419 . S
C1869 C1870 1.362 . S
C1870 H1862 0.930 . S
C1870 C1869 1.362 . S
C1870 C1873 1.409 . S
C1871 H1863 0.930 . S
C1871 C1872 1.355 . S
C1871 C1873 1.415 . S
C1872 C1871 1.355 . S
C1872 C1874 1.419 . S
C1873 C1868 1.425 . S
C1873 C1870 1.409 . S
C1873 C1871 1.415 . S
C1874 H1864 0.930 . S
C1874 C1872 1.419 . S
C1874 C1875 1.362 . S
C1875 H1865 0.930 . S
C1875 C1868 1.409 . S
C1875 C1874 1.362 . S
H1876 C1882 0.930 . S
H1877 C1885 0.930 . S
H1878 C1886 0.930 . S
H1879 C1887 0.930 . S
H1880 C1890 0.930 . S
H1881 C1891 0.930 . S
C1882 H1876 0.930 . S
C1882 C1883 1.355 . S
C1882 C1884 1.415 . S
C1883 C1882 1.355 . S
C1883 C1885 1.419 . S
C1884 C1882 1.415 . S
C1884 C1889 1.425 . S
C1884 C1891 1.409 . S
C1885 H1877 0.930 . S
C1885 C1883 1.419 . S
C1885 C1886 1.362 . S
C1886 H1878 0.930 . S
C1886 C1885 1.362 . S
C1886 C1889 1.409 . S
C1887 H1879 0.930 . S
C1887 C1888 1.355 . S
C1887 C1889 1.415 . S
C1888 C1887 1.355 . S
C1888 C1890 1.419 . S
C1889 C1884 1.425 . S
C1889 C1886 1.409 . S
C1889 C1887 1.415 . S
C1890 H1880 0.930 . S
C1890 C1888 1.419 . S
C1890 C1891 1.362 . S
C1891 H1881 0.930 . S
C1891 C1884 1.409 . S
C1891 C1890 1.362 . S
H1892 C1898 0.930 . S
H1893 C1901 0.930 . S
H1894 C1902 0.930 . S
H1895 C1903 0.930 . S
H1896 C1906 0.930 . S
H1897 C1907 0.930 . S
C1898 H1892 0.930 . S
C1898 C1899 1.355 . S
C1898 C1900 1.415 . S
C1899 C1898 1.355 . S
C1899 C1901 1.419 . S
C1900 C1898 1.415 . S
C1900 C1905 1.425 . S
C1900 C1907 1.409 . S
C1901 H1893 0.930 . S
C1901 C1899 1.419 . S
C1901 C1902 1.362 . S
C1902 H1894 0.930 . S
C1902 C1901 1.362 . S
C1902 C1905 1.409 . S
C1903 H1895 0.930 . S
C1903 C1904 1.355 . S
C1903 C1905 1.415 . S
C1904 C1903 1.355 . S
C1904 C1906 1.419 . S
C1905 C1900 1.425 . S
C1905 C1902 1.409 . S
C1905 C1903 1.415 . S
C1906 H1896 0.930 . S
C1906 C1904 1.419 . S
C1906 C1907 1.362 . S
C1907 H1897 0.930 . S
C1907 C1900 1.409 . S
C1907 C1906 1.362 . S
H1908 C1914 0.930 . S
H1909 C1917 0.930 . S
H1910 C1918 0.930 . S
H1911 C1919 0.930 . S
H1912 C1922 0.930 . S
H1913 C1923 0.930 . S
C1914 H1908 0.930 . S
C1914 C1915 1.355 . S
C1914 C1916 1.415 . S
C1915 C1914 1.355 . S
C1915 C1917 1.419 . S
C1916 C1914 1.415 . S
C1916 C1921 1.425 . S
C1916 C1923 1.409 . S
C1917 H1909 0.930 . S
C1917 C1915 1.419 . S
C1917 C1918 1.362 . S
C1918 H1910 0.930 . S
C1918 C1917 1.362 . S
C1918 C1921 1.409 . S
C1919 H1911 0.930 . S
C1919 C1920 1.355 . S
C1919 C1921 1.415 . S
C1920 C1919 1.355 . S
C1920 C1922 1.419 . S
C1921 C1916 1.425 . S
C1921 C1918 1.409 . S
C1921 C1919 1.415 . S
C1922 H1912 0.930 . S
C1922 C1920 1.419 . S
C1922 C1923 1.362 . S
C1923 H1913 0.930 . S
C1923 C1916 1.409 . S
C1923 C1922 1.362 . S
H1924 C1930 0.930 . S
H1925 C1933 0.930 . S
H1926 C1934 0.930 . S
H1927 C1935 0.930 . S
H1928 C1938 0.930 . S
H1929 C1939 0.930 . S
C1930 H1924 0.930 . S
C1930 C1931 1.355 . S
C1930 C1932 1.415 . S
C1931 C1930 1.355 . S
C1931 C1933 1.419 . S
C1932 C1930 1.415 . S
C1932 C1937 1.425 . S
C1932 C1939 1.409 . S
C1933 H1925 0.930 . S
C1933 C1931 1.419 . S
C1933 C1934 1.362 . S
C1934 H1926 0.930 . S
C1934 C1933 1.362 . S
C1934 C1937 1.409 . S
C1935 H1927 0.930 . S
C1935 C1936 1.355 . S
C1935 C1937 1.415 . S
C1936 C1935 1.355 . S
C1936 C1938 1.419 . S
C1937 C1932 1.425 . S
C1937 C1934 1.409 . S
C1937 C1935 1.415 . S
C1938 H1928 0.930 . S
C1938 C1936 1.419 . S
C1938 C1939 1.362 . S
C1939 H1929 0.930 . S
C1939 C1932 1.409 . S
C1939 C1938 1.362 . S
H1940 C1946 0.930 . S
H1941 C1949 0.930 . S
H1942 C1950 0.930 . S
H1943 C1951 0.930 . S
H1944 C1954 0.930 . S
H1945 C1955 0.930 . S
C1946 H1940 0.930 . S
C1946 C1947 1.355 . S
C1946 C1948 1.415 . S
C1947 C1946 1.355 . S
C1947 C1949 1.419 . S
C1948 C1946 1.415 . S
C1948 C1953 1.425 . S
C1948 C1955 1.409 . S
C1949 H1941 0.930 . S
C1949 C1947 1.419 . S
C1949 C1950 1.362 . S
C1950 H1942 0.930 . S
C1950 C1949 1.362 . S
C1950 C1953 1.409 . S
C1951 H1943 0.930 . S
C1951 C1952 1.355 . S
C1951 C1953 1.415 . S
C1952 C1951 1.355 . S
C1952 C1954 1.419 . S
C1953 C1948 1.425 . S
C1953 C1950 1.409 . S
C1953 C1951 1.415 . S
C1954 H1944 0.930 . S
C1954 C1952 1.419 . S
C1954 C1955 1.362 . S
C1955 H1945 0.930 . S
C1955 C1948 1.409 . S
C1955 C1954 1.362 . S
H1956 C1962 0.930 . S
H1957 C1965 0.930 . S
H1958 C1966 0.930 . S
H1959 C1967 0.930 . S
H1960 C1970 0.930 . S
H1961 C1971 0.930 . S
C1962 H1956 0.930 . S
C1962 C1963 1.355 . S
C1962 C1964 1.415 . S
C1963 C1962 1.355 . S
C1963 C1965 1.419 . S
C1964 C1962 1.415 . S
C1964 C1969 1.425 . S
C1964 C1971 1.409 . S
C1965 H1957 0.930 . S
C1965 C1963 1.419 . S
C1965 C1966 1.362 . S
C1966 H1958 0.930 . S
C1966 C1965 1.362 . S
C1966 C1969 1.409 . S
C1967 H1959 0.930 . S
C1967 C1968 1.355 . S
C1967 C1969 1.415 . S
C1968 C1967 1.355 . S
C1968 C1970 1.419 . S
C1969 C1964 1.425 . S
C1969 C1966 1.409 . S
C1969 C1967 1.415 . S
C1970 H1960 0.930 . S
C1970 C1968 1.419 . S
C1970 C1971 1.362 . S
C1971 H1961 0.930 . S
C1971 C1964 1.409 . S
C1971 C1970 1.362 . S
H1972 C1978 0.930 . S
H1973 C1981 0.930 . S
H1974 C1982 0.930 . S
H1975 C1983 0.930 . S
H1976 C1986 0.930 . S
H1977 C1987 0.930 . S
C1978 H1972 0.930 . S
C1978 C1979 1.355 . S
C1978 C1980 1.415 . S
C1979 C1978 1.355 . S
C1979 C1981 1.419 . S
C1980 C1978 1.415 . S
C1980 C1985 1.425 . S
C1980 C1987 1.409 . S
C1981 H1973 0.930 . S
C1981 C1979 1.419 . S
C1981 C1982 1.362 . S
C1982 H1974 0.930 . S
C1982 C1981 1.362 . S
C1982 C1985 1.409 . S
C1983 H1975 0.930 . S
C1983 C1984 1.355 . S
C1983 C1985 1.415 . S
C1984 C1983 1.355 . S
C1984 C1986 1.419 . S
C1985 C1980 1.425 . S
C1985 C1982 1.409 . S
C1985 C1983 1.415 . S
C1986 H1976 0.930 . S
C1986 C1984 1.419 . S
C1986 C1987 1.362 . S
C1987 H1977 0.930 . S
C1987 C1980 1.409 . S
C1987 C1986 1.362 . S
H1988 C1994 0.930 . S
H1989 C1997 0.930 . S
H1990 C1998 0.930 . S
H1991 C1999 0.930 . S
H1992 C2002 0.930 . S
H1993 C2003 0.930 . S
C1994 H1988 0.930 . S
C1994 C1995 1.355 . S
C1994 C1996 1.415 . S
C1995 C1994 1.355 . S
C1995 C1997 1.419 . S
C1996 C1994 1.415 . S
C1996 C2001 1.425 . S
C1996 C2003 1.409 . S
C1997 H1989 0.930 . S
C1997 C1995 1.419 . S
C1997 C1998 1.362 . S
C1998 H1990 0.930 . S
C1998 C1997 1.362 . S
C1998 C2001 1.409 . S
C1999 H1991 0.930 . S
C1999 C2000 1.355 . S
C1999 C2001 1.415 . S
C2000 C1999 1.355 . S
C2000 C2002 1.419 . S
C2001 C1996 1.425 . S
C2001 C1998 1.409 . S
C2001 C1999 1.415 . S
C2002 H1992 0.930 . S
C2002 C2000 1.419 . S
C2002 C2003 1.362 . S
C2003 H1993 0.930 . S
C2003 C1996 1.409 . S
C2003 C2002 1.362 . S
H2004 C2010 0.930 . S
H2005 C2013 0.930 . S
H2006 C2014 0.930 . S
H2007 C2015 0.930 . S
H2008 C2018 0.930 . S
H2009 C2019 0.930 . S
C2010 H2004 0.930 . S
C2010 C2011 1.355 . S
C2010 C2012 1.415 . S
C2011 C2010 1.355 . S
C2011 C2013 1.419 . S
C2012 C2010 1.415 . S
C2012 C2017 1.425 . S
C2012 C2019 1.409 . S
C2013 H2005 0.930 . S
C2013 C2011 1.419 . S
C2013 C2014 1.362 . S
C2014 H2006 0.930 . S
C2014 C2013 1.362 . S
C2014 C2017 1.409 . S
C2015 H2007 0.930 . S
C2015 C2016 1.355 . S
C2015 C2017 1.415 . S
C2016 C2015 1.355 . S
C2016 C2018 1.419 . S
C2017 C2012 1.425 . S
C2017 C2014 1.409 . S
C2017 C2015 1.415 . S
C2018 H2008 0.930 . S
C2018 C2016 1.419 . S
C2018 C2019 1.362 . S
C2019 H2009 0.930 . S
C2019 C2012 1.409 . S
C2019 C2018 1.362 . S
H2020 C2026 0.930 . S
H2021 C2029 0.930 . S
H2022 C2030 0.930 . S
H2023 C2031 0.930 . S
H2024 C2034 0.930 . S
H2025 C2035 0.930 . S
C2026 H2020 0.930 . S
C2026 C2027 1.355 . S
C2026 C2028 1.415 . S
C2027 C2026 1.355 . S
C2027 C2029 1.419 . S
C2028 C2026 1.415 . S
C2028 C2033 1.425 . S
C2028 C2035 1.409 . S
C2029 H2021 0.930 . S
C2029 C2027 1.419 . S
C2029 C2030 1.362 . S
C2030 H2022 0.930 . S
C2030 C2029 1.362 . S
C2030 C2033 1.409 . S
C2031 H2023 0.930 . S
C2031 C2032 1.355 . S
C2031 C2033 1.415 . S
C2032 C2031 1.355 . S
C2032 C2034 1.419 . S
C2033 C2028 1.425 . S
C2033 C2030 1.409 . S
C2033 C2031 1.415 . S
C2034 H2024 0.930 . S
C2034 C2032 1.419 . S
C2034 C2035 1.362 . S
C2035 H2025 0.930 . S
C2035 C2028 1.409 . S
C2035 C2034 1.362 . S
H2036 C2042 0.930 . S
H2037 C2045 0.930 . S
H2038 C2046 0.930 . S
H2039 C2047 0.930 . S
H2040 C2050 0.930 . S
H2041 C2051 0.930 . S
C2042 H2036 0.930 . S
C2042 C2043 1.355 . S
C2042 C2044 1.415 . S
C2043 C2042 1.355 . S
C2043 C2045 1.419 . S
C2044 C2042 1.415 . S
C2044 C2049 1.425 . S
C2044 C2051 1.409 . S
C2045 H2037 0.930 . S
C2045 C2043 1.419 . S
C2045 C2046 1.362 . S
C2046 H2038 0.930 . S
C2046 C2045 1.362 . S
C2046 C2049 1.409 . S
C2047 H2039 0.930 . S
C2047 C2048 1.355 . S
C2047 C2049 1.415 . S
C2048 C2047 1.355 . S
C2048 C2050 1.419 . S
C2049 C2044 1.425 . S
C2049 C2046 1.409 . S
C2049 C2047 1.415 . S
C2050 H2040 0.930 . S
C2050 C2048 1.419 . S
C2050 C2051 1.362 . S
C2051 H2041 0.930 . S
C2051 C2044 1.409 . S
C2051 C2050 1.362 . S
H2052 C2058 0.930 . S
H2053 C2061 0.930 . S
H2054 C2062 0.930 . S
H2055 C2063 0.930 . S
H2056 C2066 0.930 . S
H2057 C2067 0.930 . S
C2058 H2052 0.930 . S
C2058 C2059 1.355 . S
C2058 C2060 1.415 . S
C2059 C2058 1.355 . S
C2059 C2061 1.419 . S
C2060 C2058 1.415 . S
C2060 C2065 1.425 . S
C2060 C2067 1.409 . S
C2061 H2053 0.930 . S
C2061 C2059 1.419 . S
C2061 C2062 1.362 . S
C2062 H2054 0.930 . S
C2062 C2061 1.362 . S
C2062 C2065 1.409 . S
C2063 H2055 0.930 . S
C2063 C2064 1.355 . S
C2063 C2065 1.415 . S
C2064 C2063 1.355 . S
C2064 C2066 1.419 . S
C2065 C2060 1.425 . S
C2065 C2062 1.409 . S
C2065 C2063 1.415 . S
C2066 H2056 0.930 . S
C2066 C2064 1.419 . S
C2066 C2067 1.362 . S
C2067 H2057 0.930 . S
C2067 C2060 1.409 . S
C2067 C2066 1.362 . S
H2068 C2074 0.930 . S
H2069 C2077 0.930 . S
H2070 C2078 0.930 . S
H2071 C2079 0.930 . S
H2072 C2082 0.930 . S
H2073 C2083 0.930 . S
C2074 H2068 0.930 . S
C2074 C2075 1.355 . S
C2074 C2076 1.415 . S
C2075 C2074 1.355 . S
C2075 C2077 1.419 . S
C2076 C2074 1.415 . S
C2076 C2081 1.425 1_545 S
C2076 C2083 1.409 . S
C2077 H2069 0.930 . S
C2077 C2075 1.419 . S
C2077 C2078 1.362 1_545 S
C2078 H2070 0.930 . S
C2078 C2077 1.362 1_565 S
C2078 C2081 1.409 . S
C2079 H2071 0.930 . S
C2079 C2080 1.355 . S
C2079 C2081 1.415 . S
C2080 C2079 1.355 . S
C2080 C2082 1.419 . S
C2081 C2076 1.425 1_565 S
C2081 C2078 1.409 . S
C2081 C2079 1.415 . S
C2082 H2072 0.930 . S
C2082 C2080 1.419 . S
C2082 C2083 1.362 1_565 S
C2083 H2073 0.930 . S
C2083 C2076 1.409 . S
C2083 C2082 1.362 1_545 S
H2084 C2090 0.930 1_655 S
H2085 C2093 0.930 . S
H2086 C2094 0.930 . S
H2087 C2095 0.930 1_455 S
H2088 C2098 0.930 . S
H2089 C2099 0.930 . S
C2090 H2084 0.930 1_455 S
C2090 C2091 1.355 . S
C2090 C2092 1.415 1_455 S
C2091 C2090 1.355 . S
C2091 C2093 1.419 . S
C2092 C2090 1.415 1_655 S
C2092 C2097 1.425 1_655 S
C2092 C2099 1.409 . S
C2093 H2085 0.930 . S
C2093 C2091 1.419 . S
C2093 C2094 1.362 . S
C2094 H2086 0.930 . S
C2094 C2093 1.362 . S
C2094 C2097 1.409 . S
C2095 H2087 0.930 1_655 S
C2095 C2096 1.355 . S
C2095 C2097 1.415 1_655 S
C2096 C2095 1.355 . S
C2096 C2098 1.419 . S
C2097 C2092 1.425 1_455 S
C2097 C2094 1.409 . S
C2097 C2095 1.415 1_455 S
C2098 H2088 0.930 . S
C2098 C2096 1.419 . S
C2098 C2099 1.362 . S
C2099 H2089 0.930 . S
C2099 C2092 1.409 . S
C2099 C2098 1.362 . S
H2100 C2106 0.930 . S
H2101 C2109 0.930 . S
H2102 C2110 0.930 . S
H2103 C2111 0.930 . S
H2104 C2114 0.930 . S
H2105 C2115 0.930 . S
C2106 H2100 0.930 . S
C2106 C2107 1.355 . S
C2106 C2108 1.415 . S
C2107 C2106 1.355 . S
C2107 C2109 1.419 . S
C2108 C2106 1.415 . S
C2108 C2113 1.425 . S
C2108 C2115 1.409 . S
C2109 H2101 0.930 . S
C2109 C2107 1.419 . S
C2109 C2110 1.362 . S
C2110 H2102 0.930 . S
C2110 C2109 1.362 . S
C2110 C2113 1.409 . S
C2111 H2103 0.930 . S
C2111 C2112 1.355 . S
C2111 C2113 1.415 . S
C2112 C2111 1.355 . S
C2112 C2114 1.419 . S
C2113 C2108 1.425 . S
C2113 C2110 1.409 . S
C2113 C2111 1.415 . S
C2114 H2104 0.930 . S
C2114 C2112 1.419 . S
C2114 C2115 1.362 . S
C2115 H2105 0.930 . S
C2115 C2108 1.409 . S
C2115 C2114 1.362 . S
H2116 C2122 0.930 . S
H2117 C2125 0.914 1_565 S
H2118 C2126 0.930 . S
H2119 C2127 0.930 . S
H2120 C2130 0.914 1_545 S
H2121 C2131 0.930 . S
C2122 H2116 0.930 . S
C2122 C2123 1.355 . S
C2122 C2124 1.415 . S
C2123 C2122 1.355 . S
C2123 C2125 1.419 . S
C2124 C2122 1.415 . S
C2124 C2129 1.425 1_545 S
C2124 C2131 1.409 . S
C2125 H2117 0.914 1_545 S
C2125 C2123 1.419 . S
C2125 C2126 1.362 1_545 S
C2126 H2118 0.930 . S
C2126 C2125 1.362 1_565 S
C2126 C2129 1.409 . S
C2127 H2119 0.930 . S
C2127 C2128 1.355 . S
C2127 C2129 1.415 . S
C2128 C2127 1.355 . S
C2128 C2130 1.419 . S
C2129 C2124 1.425 1_565 S
C2129 C2126 1.409 . S
C2129 C2127 1.415 . S
C2130 H2120 0.914 1_565 S
C2130 C2128 1.419 . S
C2130 C2131 1.362 1_565 S
C2131 H2121 0.930 . S
C2131 C2124 1.409 . S
C2131 C2130 1.362 1_545 S
H2132 C2138 0.930 . S
H2133 C2141 0.930 1_655 S
H2134 C2142 0.930 . S
H2135 C2143 0.930 . S
H2136 C2146 0.930 1_455 S
H2137 C2147 0.930 . S
C2138 H2132 0.930 . S
C2138 C2139 1.355 . S
C2138 C2140 1.415 . S
C2139 C2138 1.355 . S
C2139 C2141 1.419 . S
C2140 C2138 1.415 . S
C2140 C2145 1.425 1_455 S
C2140 C2147 1.409 . S
C2141 H2133 0.930 1_455 S
C2141 C2139 1.419 . S
C2141 C2142 1.362 1_455 S
C2142 H2134 0.930 . S
C2142 C2141 1.362 1_655 S
C2142 C2145 1.409 . S
C2143 H2135 0.930 . S
C2143 C2144 1.355 . S
C2143 C2145 1.415 . S
C2144 C2143 1.355 . S
C2144 C2146 1.419 . S
C2145 C2140 1.425 1_655 S
C2145 C2142 1.409 . S
C2145 C2143 1.415 . S
C2146 H2136 0.930 1_655 S
C2146 C2144 1.419 . S
C2146 C2147 1.362 1_655 S
C2147 H2137 0.930 . S
C2147 C2140 1.409 . S
C2147 C2146 1.362 1_455 S
H2148 C2154 0.930 . S
H2149 C2157 0.930 . S
H2150 C2158 0.930 . S
H2151 C2159 0.930 . S
H2152 C2162 0.930 . S
H2153 C2163 0.930 . S
C2154 H2148 0.930 . S
C2154 C2155 1.355 . S
C2154 C2156 1.415 . S
C2155 C2154 1.355 . S
C2155 C2157 1.419 . S
C2156 C2154 1.415 . S
C2156 C2161 1.425 . S
C2156 C2163 1.409 . S
C2157 H2149 0.930 . S
C2157 C2155 1.419 . S
C2157 C2158 1.362 . S
C2158 H2150 0.930 . S
C2158 C2157 1.362 . S
C2158 C2161 1.409 . S
C2159 H2151 0.930 . S
C2159 C2160 1.355 . S
C2159 C2161 1.415 . S
C2160 C2159 1.355 . S
C2160 C2162 1.419 . S
C2161 C2156 1.425 . S
C2161 C2158 1.409 . S
C2161 C2159 1.415 . S
C2162 H2152 0.930 . S
C2162 C2160 1.419 . S
C2162 C2163 1.362 . S
C2163 H2153 0.930 . S
C2163 C2156 1.409 . S
C2163 C2162 1.362 . S
H2164 C2170 0.930 . S
H2165 C2173 0.930 . S
H2166 C2174 0.930 . S
H2167 C2175 0.930 . S
H2168 C2178 0.930 . S
H2169 C2179 0.930 . S
C2170 H2164 0.930 . S
C2170 C2171 1.355 . S
C2170 C2172 1.415 . S
C2171 C2170 1.355 . S
C2171 C2173 1.419 . S
C2172 C2170 1.415 . S
C2172 C2177 1.425 . S
C2172 C2179 1.409 . S
C2173 H2165 0.930 . S
C2173 C2171 1.419 . S
C2173 C2174 1.362 . S
C2174 H2166 0.930 . S
C2174 C2173 1.362 . S
C2174 C2177 1.409 . S
C2175 H2167 0.930 . S
C2175 C2176 1.355 . S
C2175 C2177 1.415 . S
C2176 C2175 1.355 . S
C2176 C2178 1.419 . S
C2177 C2172 1.425 . S
C2177 C2174 1.409 . S
C2177 C2175 1.415 . S
C2178 H2168 0.930 . S
C2178 C2176 1.419 . S
C2178 C2179 1.362 . S
C2179 H2169 0.930 . S
C2179 C2172 1.409 . S
C2179 C2178 1.362 . S
H2180 C2186 0.930 . S
H2181 C2189 0.930 . S
H2182 C2190 0.930 . S
H2183 C2191 0.930 . S
H2184 C2194 0.930 . S
H2185 C2195 0.930 . S
C2186 H2180 0.930 . S
C2186 C2187 1.355 . S
C2186 C2188 1.415 . S
C2187 C2186 1.355 . S
C2187 C2189 1.419 . S
C2188 C2186 1.415 . S
C2188 C2193 1.425 . S
C2188 C2195 1.409 . S
C2189 H2181 0.930 . S
C2189 C2187 1.419 . S
C2189 C2190 1.362 . S
C2190 H2182 0.930 . S
C2190 C2189 1.362 . S
C2190 C2193 1.409 . S
C2191 H2183 0.930 . S
C2191 C2192 1.355 . S
C2191 C2193 1.415 . S
C2192 C2191 1.355 . S
C2192 C2194 1.419 . S
C2193 C2188 1.425 . S
C2193 C2190 1.409 . S
C2193 C2191 1.415 . S
C2194 H2184 0.930 . S
C2194 C2192 1.419 . S
C2194 C2195 1.362 . S
C2195 H2185 0.930 . S
C2195 C2188 1.409 . S
C2195 C2194 1.362 . S
H2196 C2202 0.930 . S
H2197 C2205 0.930 . S
H2198 C2206 0.930 . S
H2199 C2207 0.930 . S
H2200 C2210 0.930 . S
H2201 C2211 0.930 . S
C2202 H2196 0.930 . S
C2202 C2203 1.355 . S
C2202 C2204 1.415 . S
C2203 C2202 1.355 . S
C2203 C2205 1.419 . S
C2204 C2202 1.415 . S
C2204 C2209 1.425 . S
C2204 C2211 1.409 . S
C2205 H2197 0.930 . S
C2205 C2203 1.419 . S
C2205 C2206 1.362 . S
C2206 H2198 0.930 . S
C2206 C2205 1.362 . S
C2206 C2209 1.409 . S
C2207 H2199 0.930 . S
C2207 C2208 1.355 . S
C2207 C2209 1.415 . S
C2208 C2207 1.355 . S
C2208 C2210 1.419 . S
C2209 C2204 1.425 . S
C2209 C2206 1.409 . S
C2209 C2207 1.415 . S
C2210 H2200 0.930 . S
C2210 C2208 1.419 . S
C2210 C2211 1.362 . S
C2211 H2201 0.930 . S
C2211 C2204 1.409 . S
C2211 C2210 1.362 . S
H2212 C2218 0.930 . S
H2213 C2221 0.930 . S
H2214 C2222 0.930 . S
H2215 C2223 0.917 1_556 S
H2216 C2226 0.930 . S
H2217 C2227 0.930 . S
C2218 H2212 0.930 . S
C2218 C2219 1.355 . S
C2218 C2220 1.415 . S
C2219 C2218 1.355 . S
C2219 C2221 1.419 . S
C2220 C2218 1.415 . S
C2220 C2225 1.425 . S
C2220 C2227 1.409 . S
C2221 H2213 0.930 . S
C2221 C2219 1.419 . S
C2221 C2222 1.362 . S
C2222 H2214 0.930 . S
C2222 C2221 1.362 . S
C2222 C2225 1.409 . S
C2223 H2215 0.917 1_554 S
C2223 C2224 1.355 . S
C2223 C2225 1.415 . S
C2224 C2223 1.355 . S
C2224 C2226 1.419 . S
C2225 C2220 1.425 . S
C2225 C2222 1.409 . S
C2225 C2223 1.415 . S
C2226 H2216 0.930 . S
C2226 C2224 1.419 . S
C2226 C2227 1.362 . S
C2227 H2217 0.930 . S
C2227 C2220 1.409 . S
C2227 C2226 1.362 . S
H2228 C2234 0.930 . S
H2229 C2237 0.930 1_556 S
H2230 C2238 0.930 . S
H2231 C2239 0.930 . S
H2232 C2242 0.930 . S
H2233 C2243 0.930 . S
C2234 H2228 0.930 . S
C2234 C2235 1.355 . S
C2234 C2236 1.415 . S
C2235 C2234 1.355 . S
C2235 C2237 1.419 . S
C2236 C2234 1.415 . S
C2236 C2241 1.425 . S
C2236 C2243 1.409 . S
C2237 H2229 0.930 1_554 S
C2237 C2235 1.419 . S
C2237 C2238 1.362 . S
C2238 H2230 0.930 . S
C2238 C2237 1.362 . S
C2238 C2241 1.409 . S
C2239 H2231 0.930 . S
C2239 C2240 1.355 . S
C2239 C2241 1.415 . S
C2240 C2239 1.355 . S
C2240 C2242 1.419 . S
C2241 C2236 1.425 . S
C2241 C2238 1.409 . S
C2241 C2239 1.415 . S
C2242 H2232 0.930 . S
C2242 C2240 1.419 . S
C2242 C2243 1.362 . S
C2243 H2233 0.930 . S
C2243 C2236 1.409 . S
C2243 C2242 1.362 . S
H2244 C2250 0.930 . S
H2245 C2253 0.930 1_554 S
H2246 C2254 0.930 . S
H2247 C2255 0.930 . S
H2248 C2258 0.930 . S
H2249 C2259 0.930 . S
C2250 H2244 0.930 . S
C2250 C2251 1.355 . S
C2250 C2252 1.415 . S
C2251 C2250 1.355 . S
C2251 C2253 1.419 . S
C2252 C2250 1.415 . S
C2252 C2257 1.425 . S
C2252 C2259 1.409 . S
C2253 H2245 0.930 1_556 S
C2253 C2251 1.419 . S
C2253 C2254 1.362 . S
C2254 H2246 0.930 . S
C2254 C2253 1.362 . S
C2254 C2257 1.409 . S
C2255 H2247 0.930 . S
C2255 C2256 1.355 . S
C2255 C2257 1.415 . S
C2256 C2255 1.355 . S
C2256 C2258 1.419 . S
C2257 C2252 1.425 . S
C2257 C2254 1.409 . S
C2257 C2255 1.415 . S
C2258 H2248 0.930 . S
C2258 C2256 1.419 . S
C2258 C2259 1.362 . S
C2259 H2249 0.930 . S
C2259 C2252 1.409 . S
C2259 C2258 1.362 . S
H2260 C2266 0.930 . S
H2261 C2269 0.930 . S
H2262 C2270 0.930 . S
H2263 C2271 0.930 . S
H2264 C2274 0.930 . S
H2265 C2275 0.930 . S
C2266 H2260 0.930 . S
C2266 C2267 1.355 . S
C2266 C2268 1.415 . S
C2267 C2266 1.355 . S
C2267 C2269 1.419 . S
C2268 C2266 1.415 . S
C2268 C2273 1.425 . S
C2268 C2275 1.409 . S
C2269 H2261 0.930 . S
C2269 C2267 1.419 . S
C2269 C2270 1.362 . S
C2270 H2262 0.930 . S
C2270 C2269 1.362 . S
C2270 C2273 1.409 . S
C2271 H2263 0.930 . S
C2271 C2272 1.355 . S
C2271 C2273 1.415 . S
C2272 C2271 1.355 . S
C2272 C2274 1.419 . S
C2273 C2268 1.425 . S
C2273 C2270 1.409 . S
C2273 C2271 1.415 . S
C2274 H2264 0.930 . S
C2274 C2272 1.419 . S
C2274 C2275 1.362 . S
C2275 H2265 0.930 . S
C2275 C2268 1.409 . S
C2275 C2274 1.362 . S
H2276 C2282 0.930 . S
H2277 C2285 0.930 . S
H2278 C2286 0.930 . S
H2279 C2287 0.930 . S
H2280 C2290 0.930 1_554 S
H2281 C2291 0.930 . S
C2282 H2276 0.930 . S
C2282 C2283 1.355 . S
C2282 C2284 1.415 . S
C2283 C2282 1.355 . S
C2283 C2285 1.419 . S
C2284 C2282 1.415 . S
C2284 C2289 1.425 . S
C2284 C2291 1.409 . S
C2285 H2277 0.930 . S
C2285 C2283 1.419 . S
C2285 C2286 1.362 . S
C2286 H2278 0.930 . S
C2286 C2285 1.362 . S
C2286 C2289 1.409 . S
C2287 H2279 0.930 . S
C2287 C2288 1.355 . S
C2287 C2289 1.415 . S
C2288 C2287 1.355 . S
C2288 C2290 1.419 . S
C2289 C2284 1.425 . S
C2289 C2286 1.409 . S
C2289 C2287 1.415 . S
C2290 H2280 0.930 1_556 S
C2290 C2288 1.419 . S
C2290 C2291 1.362 . S
C2291 H2281 0.930 . S
C2291 C2284 1.409 . S
C2291 C2290 1.362 . S
H2292 C2298 0.930 . S
H2293 C2301 0.930 . S
H2294 C2302 0.930 . S
H2295 C2303 0.930 . S
H2296 C2306 0.930 . S
H2297 C2307 0.930 . S
C2298 H2292 0.930 . S
C2298 C2299 1.355 . S
C2298 C2300 1.415 . S
C2299 C2298 1.355 . S
C2299 C2301 1.419 . S
C2300 C2298 1.415 . S
C2300 C2305 1.425 . S
C2300 C2307 1.409 . S
C2301 H2293 0.930 . S
C2301 C2299 1.419 . S
C2301 C2302 1.362 . S
C2302 H2294 0.930 . S
C2302 C2301 1.362 . S
C2302 C2305 1.409 . S
C2303 H2295 0.930 . S
C2303 C2304 1.355 . S
C2303 C2305 1.415 . S
C2304 C2303 1.355 . S
C2304 C2306 1.419 . S
C2305 C2300 1.425 . S
C2305 C2302 1.409 . S
C2305 C2303 1.415 . S
C2306 H2296 0.930 . S
C2306 C2304 1.419 . S
C2306 C2307 1.362 . S
C2307 H2297 0.930 . S
C2307 C2300 1.409 . S
C2307 C2306 1.362 . S
H2308 C2314 0.930 . S
H2309 C2317 0.930 . S
H2310 C2318 0.930 . S
H2311 C2319 0.930 . S
H2312 C2322 0.930 . S
H2313 C2323 0.930 . S
C2314 H2308 0.930 . S
C2314 C2315 1.355 . S
C2314 C2316 1.415 . S
C2315 C2314 1.355 . S
C2315 C2317 1.419 . S
C2316 C2314 1.415 . S
C2316 C2321 1.425 . S
C2316 C2323 1.409 . S
C2317 H2309 0.930 . S
C2317 C2315 1.419 . S
C2317 C2318 1.362 . S
C2318 H2310 0.930 . S
C2318 C2317 1.362 . S
C2318 C2321 1.409 . S
C2319 H2311 0.930 . S
C2319 C2320 1.355 . S
C2319 C2321 1.415 . S
C2320 C2319 1.355 . S
C2320 C2322 1.419 . S
C2321 C2316 1.425 . S
C2321 C2318 1.409 . S
C2321 C2319 1.415 . S
C2322 H2312 0.930 . S
C2322 C2320 1.419 . S
C2322 C2323 1.362 . S
C2323 H2313 0.930 . S
C2323 C2316 1.409 . S
C2323 C2322 1.362 . S
H2324 C2330 0.930 . S
H2325 C2333 0.930 . S
H2326 C2334 0.930 . S
H2327 C2335 0.930 . S
H2328 C2338 0.930 . S
H2329 C2339 0.930 . S
C2330 H2324 0.930 . S
C2330 C2331 1.355 . S
C2330 C2332 1.415 . S
C2331 C2330 1.355 . S
C2331 C2333 1.419 . S
C2332 C2330 1.415 . S
C2332 C2337 1.425 . S
C2332 C2339 1.409 . S
C2333 H2325 0.930 . S
C2333 C2331 1.419 . S
C2333 C2334 1.362 . S
C2334 H2326 0.930 . S
C2334 C2333 1.362 . S
C2334 C2337 1.409 . S
C2335 H2327 0.930 . S
C2335 C2336 1.355 . S
C2335 C2337 1.415 . S
C2336 C2335 1.355 . S
C2336 C2338 1.419 . S
C2337 C2332 1.425 . S
C2337 C2334 1.409 . S
C2337 C2335 1.415 . S
C2338 H2328 0.930 . S
C2338 C2336 1.419 . S
C2338 C2339 1.362 . S
C2339 H2329 0.930 . S
C2339 C2332 1.409 . S
C2339 C2338 1.362 . S
H2340 C2346 0.930 . S
H2341 C2349 0.930 . S
H2342 C2350 0.930 . S
H2343 C2351 0.930 . S
H2344 C2354 0.930 . S
H2345 C2355 0.930 . S
C2346 H2340 0.930 . S
C2346 C2347 1.355 . S
C2346 C2348 1.415 . S
C2347 C2346 1.355 . S
C2347 C2349 1.419 . S
C2348 C2346 1.415 . S
C2348 C2353 1.425 . S
C2348 C2355 1.409 . S
C2349 H2341 0.930 . S
C2349 C2347 1.419 . S
C2349 C2350 1.362 . S
C2350 H2342 0.930 . S
C2350 C2349 1.362 . S
C2350 C2353 1.409 . S
C2351 H2343 0.930 . S
C2351 C2352 1.355 . S
C2351 C2353 1.415 . S
C2352 C2351 1.355 . S
C2352 C2354 1.419 . S
C2353 C2348 1.425 . S
C2353 C2350 1.409 . S
C2353 C2351 1.415 . S
C2354 H2344 0.930 . S
C2354 C2352 1.419 . S
C2354 C2355 1.362 . S
C2355 H2345 0.930 . S
C2355 C2348 1.409 . S
C2355 C2354 1.362 . S
H2356 C2362 0.930 . S
H2357 C2365 0.930 . S
H2358 C2366 0.930 . S
H2359 C2367 0.930 . S
H2360 C2370 0.930 . S
H2361 C2371 0.930 . S
C2362 H2356 0.930 . S
C2362 C2363 1.355 . S
C2362 C2364 1.415 . S
C2363 C2362 1.355 . S
C2363 C2365 1.419 . S
C2364 C2362 1.415 . S
C2364 C2369 1.425 . S
C2364 C2371 1.409 . S
C2365 H2357 0.930 . S
C2365 C2363 1.419 . S
C2365 C2366 1.362 . S
C2366 H2358 0.930 . S
C2366 C2365 1.362 . S
C2366 C2369 1.409 . S
C2367 H2359 0.930 . S
C2367 C2368 1.355 . S
C2367 C2369 1.415 . S
C2368 C2367 1.355 . S
C2368 C2370 1.419 . S
C2369 C2364 1.425 . S
C2369 C2366 1.409 . S
C2369 C2367 1.415 . S
C2370 H2360 0.930 . S
C2370 C2368 1.419 . S
C2370 C2371 1.362 . S
C2371 H2361 0.930 . S
C2371 C2364 1.409 . S
C2371 C2370 1.362 . S
H2372 C2378 0.930 . S
H2373 C2381 0.930 . S
H2374 C2382 0.930 . S
H2375 C2383 0.930 . S
H2376 C2386 0.930 . S
H2377 C2387 0.930 . S
C2378 H2372 0.930 . S
C2378 C2379 1.355 . S
C2378 C2380 1.415 . S
C2379 C2378 1.355 . S
C2379 C2381 1.419 . S
C2380 C2378 1.415 . S
C2380 C2385 1.425 . S
C2380 C2387 1.409 . S
C2381 H2373 0.930 . S
C2381 C2379 1.419 . S
C2381 C2382 1.362 . S
C2382 H2374 0.930 . S
C2382 C2381 1.362 . S
C2382 C2385 1.409 . S
C2383 H2375 0.930 . S
C2383 C2384 1.355 . S
C2383 C2385 1.415 . S
C2384 C2383 1.355 . S
C2384 C2386 1.419 . S
C2385 C2380 1.425 . S
C2385 C2382 1.409 . S
C2385 C2383 1.415 . S
C2386 H2376 0.930 . S
C2386 C2384 1.419 . S
C2386 C2387 1.362 . S
C2387 H2377 0.930 . S
C2387 C2380 1.409 . S
C2387 C2386 1.362 . S
H2388 C2394 0.930 . S
H2389 C2397 0.930 . S
H2390 C2398 0.930 . S
H2391 C2399 0.930 . S
H2392 C2402 0.930 . S
H2393 C2403 0.930 . S
C2394 H2388 0.930 . S
C2394 C2395 1.355 . S
C2394 C2396 1.415 . S
C2395 C2394 1.355 . S
C2395 C2397 1.419 . S
C2396 C2394 1.415 . S
C2396 C2401 1.425 . S
C2396 C2403 1.409 . S
C2397 H2389 0.930 . S
C2397 C2395 1.419 . S
C2397 C2398 1.362 . S
C2398 H2390 0.930 . S
C2398 C2397 1.362 . S
C2398 C2401 1.409 . S
C2399 H2391 0.930 . S
C2399 C2400 1.355 . S
C2399 C2401 1.415 . S
C2400 C2399 1.355 . S
C2400 C2402 1.419 . S
C2401 C2396 1.425 . S
C2401 C2398 1.409 . S
C2401 C2399 1.415 . S
C2402 H2392 0.930 . S
C2402 C2400 1.419 . S
C2402 C2403 1.362 . S
C2403 H2393 0.930 . S
C2403 C2396 1.409 . S
C2403 C2402 1.362 . S
H2404 C2410 0.930 . S
H2405 C2413 0.930 . S
H2406 C2414 0.930 . S
H2407 C2415 0.930 . S
H2408 C2418 0.930 . S
H2409 C2419 0.930 . S
C2410 H2404 0.930 . S
C2410 C2411 1.355 . S
C2410 C2412 1.415 . S
C2411 C2410 1.355 . S
C2411 C2413 1.419 . S
C2412 C2410 1.415 . S
C2412 C2417 1.425 . S
C2412 C2419 1.409 . S
C2413 H2405 0.930 . S
C2413 C2411 1.419 . S
C2413 C2414 1.362 . S
C2414 H2406 0.930 . S
C2414 C2413 1.362 . S
C2414 C2417 1.409 . S
C2415 H2407 0.930 . S
C2415 C2416 1.355 . S
C2415 C2417 1.415 . S
C2416 C2415 1.355 . S
C2416 C2418 1.419 . S
C2417 C2412 1.425 . S
C2417 C2414 1.409 . S
C2417 C2415 1.415 . S
C2418 H2408 0.930 . S
C2418 C2416 1.419 . S
C2418 C2419 1.362 . S
C2419 H2409 0.930 . S
C2419 C2412 1.409 . S
C2419 C2418 1.362 . S
H2420 C2426 0.930 . S
H2421 C2429 0.930 . S
H2422 C2430 0.930 . S
H2423 C2431 0.930 . S
H2424 C2434 0.930 . S
H2425 C2435 0.930 . S
C2426 H2420 0.930 . S
C2426 C2427 1.355 . S
C2426 C2428 1.415 . S
C2427 C2426 1.355 . S
C2427 C2429 1.419 . S
C2428 C2426 1.415 . S
C2428 C2433 1.425 . S
C2428 C2435 1.409 . S
C2429 H2421 0.930 . S
C2429 C2427 1.419 . S
C2429 C2430 1.362 . S
C2430 H2422 0.930 . S
C2430 C2429 1.362 . S
C2430 C2433 1.409 . S
C2431 H2423 0.930 . S
C2431 C2432 1.355 . S
C2431 C2433 1.415 . S
C2432 C2431 1.355 . S
C2432 C2434 1.419 . S
C2433 C2428 1.425 . S
C2433 C2430 1.409 . S
C2433 C2431 1.415 . S
C2434 H2424 0.930 . S
C2434 C2432 1.419 . S
C2434 C2435 1.362 . S
C2435 H2425 0.930 . S
C2435 C2428 1.409 . S
C2435 C2434 1.362 . S
H2436 C2442 0.930 . S
H2437 C2445 0.930 1_556 S
H2438 C2446 0.930 . S
H2439 C2447 0.930 . S
H2440 C2450 0.930 . S
H2441 C2451 0.930 . S
C2442 H2436 0.930 . S
C2442 C2443 1.355 . S
C2442 C2444 1.415 . S
C2443 C2442 1.355 . S
C2443 C2445 1.419 . S
C2444 C2442 1.415 . S
C2444 C2449 1.425 . S
C2444 C2451 1.409 . S
C2445 H2437 0.930 1_554 S
C2445 C2443 1.419 . S
C2445 C2446 1.362 . S
C2446 H2438 0.930 . S
C2446 C2445 1.362 . S
C2446 C2449 1.409 . S
C2447 H2439 0.930 . S
C2447 C2448 1.355 . S
C2447 C2449 1.415 . S
C2448 C2447 1.355 . S
C2448 C2450 1.419 . S
C2449 C2444 1.425 . S
C2449 C2446 1.409 . S
C2449 C2447 1.415 . S
C2450 H2440 0.930 . S
C2450 C2448 1.419 . S
C2450 C2451 1.362 . S
C2451 H2441 0.930 . S
C2451 C2444 1.409 . S
C2451 C2450 1.362 . S
H2452 C2458 0.930 . S
H2453 C2461 0.930 . S
H2454 C2462 0.930 . S
H2455 C2463 0.930 . S
H2456 C2466 0.930 . S
H2457 C2467 0.930 . S
C2458 H2452 0.930 . S
C2458 C2459 1.355 . S
C2458 C2460 1.415 . S
C2459 C2458 1.355 . S
C2459 C2461 1.419 . S
C2460 C2458 1.415 . S
C2460 C2465 1.425 . S
C2460 C2467 1.409 . S
C2461 H2453 0.930 . S
C2461 C2459 1.419 . S
C2461 C2462 1.362 . S
C2462 H2454 0.930 . S
C2462 C2461 1.362 . S
C2462 C2465 1.409 . S
C2463 H2455 0.930 . S
C2463 C2464 1.355 . S
C2463 C2465 1.415 . S
C2464 C2463 1.355 . S
C2464 C2466 1.419 . S
C2465 C2460 1.425 . S
C2465 C2462 1.409 . S
C2465 C2463 1.415 . S
C2466 H2456 0.930 . S
C2466 C2464 1.419 . S
C2466 C2467 1.362 . S
C2467 H2457 0.930 . S
C2467 C2460 1.409 . S
C2467 C2466 1.362 . S
H2468 C2474 0.930 . S
H2469 C2477 0.930 . S
H2470 C2478 0.930 . S
H2471 C2479 0.930 . S
H2472 C2482 0.930 . S
H2473 C2483 0.930 . S
C2474 H2468 0.930 . S
C2474 C2475 1.355 . S
C2474 C2476 1.415 . S
C2475 C2474 1.355 . S
C2475 C2477 1.419 . S
C2476 C2474 1.415 . S
C2476 C2481 1.425 . S
C2476 C2483 1.409 . S
C2477 H2469 0.930 . S
C2477 C2475 1.419 . S
C2477 C2478 1.362 . S
C2478 H2470 0.930 . S
C2478 C2477 1.362 . S
C2478 C2481 1.409 . S
C2479 H2471 0.930 . S
C2479 C2480 1.355 . S
C2479 C2481 1.415 . S
C2480 C2479 1.355 . S
C2480 C2482 1.419 . S
C2481 C2476 1.425 . S
C2481 C2478 1.409 . S
C2481 C2479 1.415 . S
C2482 H2472 0.930 . S
C2482 C2480 1.419 . S
C2482 C2483 1.362 . S
C2483 H2473 0.930 . S
C2483 C2476 1.409 . S
C2483 C2482 1.362 . S
H2484 C2490 0.930 . S
H2485 C2493 0.930 . S
H2486 C2494 0.930 . S
H2487 C2495 0.930 . S
H2488 C2498 0.930 . S
H2489 C2499 0.930 . S
C2490 H2484 0.930 . S
C2490 C2491 1.355 . S
C2490 C2492 1.415 . S
C2491 C2490 1.355 . S
C2491 C2493 1.419 . S
C2492 C2490 1.415 . S
C2492 C2497 1.425 . S
C2492 C2499 1.409 . S
C2493 H2485 0.930 . S
C2493 C2491 1.419 . S
C2493 C2494 1.362 . S
C2494 H2486 0.930 . S
C2494 C2493 1.362 . S
C2494 C2497 1.409 . S
C2495 H2487 0.930 . S
C2495 C2496 1.355 . S
C2495 C2497 1.415 . S
C2496 C2495 1.355 . S
C2496 C2498 1.419 . S
C2497 C2492 1.425 . S
C2497 C2494 1.409 . S
C2497 C2495 1.415 . S
C2498 H2488 0.930 . S
C2498 C2496 1.419 . S
C2498 C2499 1.362 . S
C2499 H2489 0.930 . S
C2499 C2492 1.409 . S
C2499 C2498 1.362 . S
H2500 C2506 0.930 . S
H2501 C2509 0.930 . S
H2502 C2510 0.930 . S
H2503 C2511 0.930 . S
H2504 C2514 0.930 . S
H2505 C2515 0.930 . S
C2506 H2500 0.930 . S
C2506 C2507 1.355 . S
C2506 C2508 1.415 . S
C2507 C2506 1.355 . S
C2507 C2509 1.419 . S
C2508 C2506 1.415 . S
C2508 C2513 1.425 . S
C2508 C2515 1.409 . S
C2509 H2501 0.930 . S
C2509 C2507 1.419 . S
C2509 C2510 1.362 . S
C2510 H2502 0.930 . S
C2510 C2509 1.362 . S
C2510 C2513 1.409 . S
C2511 H2503 0.930 . S
C2511 C2512 1.355 . S
C2511 C2513 1.415 . S
C2512 C2511 1.355 . S
C2512 C2514 1.419 . S
C2513 C2508 1.425 . S
C2513 C2510 1.409 . S
C2513 C2511 1.415 . S
C2514 H2504 0.930 . S
C2514 C2512 1.419 . S
C2514 C2515 1.362 . S
C2515 H2505 0.930 . S
C2515 C2508 1.409 . S
C2515 C2514 1.362 . S
H2516 C2522 0.930 . S
H2517 C2525 0.930 . S
H2518 C2526 0.930 . S
H2519 C2527 0.930 . S
H2520 C2530 0.930 . S
H2521 C2531 0.930 . S
C2522 H2516 0.930 . S
C2522 C2523 1.355 . S
C2522 C2524 1.415 . S
C2523 C2522 1.355 . S
C2523 C2525 1.419 . S
C2524 C2522 1.415 . S
C2524 C2529 1.425 . S
C2524 C2531 1.409 . S
C2525 H2517 0.930 . S
C2525 C2523 1.419 . S
C2525 C2526 1.362 . S
C2526 H2518 0.930 . S
C2526 C2525 1.362 . S
C2526 C2529 1.409 . S
C2527 H2519 0.930 . S
C2527 C2528 1.355 . S
C2527 C2529 1.415 . S
C2528 C2527 1.355 . S
C2528 C2530 1.419 . S
C2529 C2524 1.425 . S
C2529 C2526 1.409 . S
C2529 C2527 1.415 . S
C2530 H2520 0.930 . S
C2530 C2528 1.419 . S
C2530 C2531 1.362 . S
C2531 H2521 0.930 . S
C2531 C2524 1.409 . S
C2531 C2530 1.362 . S
H2532 C2538 0.930 . S
H2533 C2541 0.930 . S
H2534 C2542 0.930 . S
H2535 C2543 0.930 . S
H2536 C2546 0.930 . S
H2537 C2547 0.930 . S
C2538 H2532 0.930 . S
C2538 C2539 1.355 . S
C2538 C2540 1.415 . S
C2539 C2538 1.355 . S
C2539 C2541 1.419 . S
C2540 C2538 1.415 . S
C2540 C2545 1.425 1_455 S
C2540 C2547 1.409 . S
C2541 H2533 0.930 . S
C2541 C2539 1.419 . S
C2541 C2542 1.362 1_455 S
C2542 H2534 0.930 . S
C2542 C2541 1.362 1_655 S
C2542 C2545 1.409 . S
C2543 H2535 0.930 . S
C2543 C2544 1.355 . S
C2543 C2545 1.415 . S
C2544 C2543 1.355 . S
C2544 C2546 1.419 . S
C2545 C2540 1.425 1_655 S
C2545 C2542 1.409 . S
C2545 C2543 1.415 . S
C2546 H2536 0.930 . S
C2546 C2544 1.419 . S
C2546 C2547 1.362 1_655 S
C2547 H2537 0.930 . S
C2547 C2540 1.409 . S
C2547 C2546 1.362 1_455 S
H2548 C2554 0.930 . S
H2549 C2557 0.930 . S
H2550 C2558 0.930 . S
H2551 C2559 0.930 . S
H2552 C2562 0.930 . S
H2553 C2563 0.930 . S
C2554 H2548 0.930 . S
C2554 C2555 1.355 . S
C2554 C2556 1.415 . S
C2555 C2554 1.355 . S
C2555 C2557 1.419 . S
C2556 C2554 1.415 . S
C2556 C2561 1.425 . S
C2556 C2563 1.409 . S
C2557 H2549 0.930 . S
C2557 C2555 1.419 . S
C2557 C2558 1.362 . S
C2558 H2550 0.930 . S
C2558 C2557 1.362 . S
C2558 C2561 1.409 . S
C2559 H2551 0.930 . S
C2559 C2560 1.355 . S
C2559 C2561 1.415 . S
C2560 C2559 1.355 . S
C2560 C2562 1.419 . S
C2561 C2556 1.425 . S
C2561 C2558 1.409 . S
C2561 C2559 1.415 . S
C2562 H2552 0.930 . S
C2562 C2560 1.419 . S
C2562 C2563 1.362 . S
C2563 H2553 0.930 . S
C2563 C2556 1.409 . S
C2563 C2562 1.362 . S
H2564 C2570 0.930 . S
H2565 C2573 0.930 . S
H2566 C2574 0.930 . S
H2567 C2575 0.930 . S
H2568 C2578 0.930 . S
H2569 C2579 0.930 . S
C2570 H2564 0.930 . S
C2570 C2571 1.355 . S
C2570 C2572 1.415 1_565 S
C2571 C2570 1.355 . S
C2571 C2573 1.419 . S
C2572 C2570 1.415 1_545 S
C2572 C2577 1.425 1_545 S
C2572 C2579 1.409 . S
C2573 H2565 0.930 . S
C2573 C2571 1.419 . S
C2573 C2574 1.362 . S
C2574 H2566 0.930 . S
C2574 C2573 1.362 . S
C2574 C2577 1.409 . S
C2575 H2567 0.930 . S
C2575 C2576 1.355 . S
C2575 C2577 1.415 1_545 S
C2576 C2575 1.355 . S
C2576 C2578 1.419 . S
C2577 C2572 1.425 1_565 S
C2577 C2574 1.409 . S
C2577 C2575 1.415 1_565 S
C2578 H2568 0.930 . S
C2578 C2576 1.419 . S
C2578 C2579 1.362 . S
C2579 H2569 0.930 . S
C2579 C2572 1.409 . S
C2579 C2578 1.362 . S
H2580 C2586 0.930 . S
H2581 C2589 0.930 . S
H2582 C2590 0.930 . S
H2583 C2591 0.930 . S
H2584 C2594 0.930 . S
H2585 C2595 0.930 . S
C2586 H2580 0.930 . S
C2586 C2587 1.355 . S
C2586 C2588 1.415 . S
C2587 C2586 1.355 . S
C2587 C2589 1.419 . S
C2588 C2586 1.415 . S
C2588 C2593 1.425 1_565 S
C2588 C2595 1.409 . S
C2589 H2581 0.930 . S
C2589 C2587 1.419 . S
C2589 C2590 1.362 1_565 S
C2590 H2582 0.930 . S
C2590 C2589 1.362 1_545 S
C2590 C2593 1.409 . S
C2591 H2583 0.930 . S
C2591 C2592 1.355 . S
C2591 C2593 1.415 . S
C2592 C2591 1.355 . S
C2592 C2594 1.419 . S
C2593 C2588 1.425 1_545 S
C2593 C2590 1.409 . S
C2593 C2591 1.415 . S
C2594 H2584 0.930 . S
C2594 C2592 1.419 . S
C2594 C2595 1.362 1_545 S
C2595 H2585 0.930 . S
C2595 C2588 1.409 . S
C2595 C2594 1.362 1_565 S
H2596 C2602 0.930 . S
H2597 C2605 0.930 . S
H2598 C2606 0.930 . S
H2599 C2607 0.930 . S
H2600 C2610 0.930 . S
H2601 C2611 0.930 . S
C2602 H2596 0.930 . S
C2602 C2603 1.355 . S
C2602 C2604 1.415 . S
C2603 C2602 1.355 . S
C2603 C2605 1.419 . S
C2604 C2602 1.415 . S
C2604 C2609 1.425 1_455 S
C2604 C2611 1.409 . S
C2605 H2597 0.930 . S
C2605 C2603 1.419 . S
C2605 C2606 1.362 1_455 S
C2606 H2598 0.930 . S
C2606 C2605 1.362 1_655 S
C2606 C2609 1.409 . S
C2607 H2599 0.930 . S
C2607 C2608 1.355 . S
C2607 C2609 1.415 . S
C2608 C2607 1.355 . S
C2608 C2610 1.419 . S
C2609 C2604 1.425 1_655 S
C2609 C2606 1.409 . S
C2609 C2607 1.415 . S
C2610 H2600 0.930 . S
C2610 C2608 1.419 . S
C2610 C2611 1.362 1_655 S
C2611 H2601 0.930 . S
C2611 C2604 1.409 . S
C2611 C2610 1.362 1_455 S
H2612 C2618 0.930 . S
H2613 C2621 0.930 . S
H2614 C2622 0.930 . S
H2615 C2623 0.930 . S
H2616 C2626 0.930 . S
H2617 C2627 0.930 . S
C2618 H2612 0.930 . S
C2618 C2619 1.355 . S
C2618 C2620 1.415 . S
C2619 C2618 1.355 . S
C2619 C2621 1.419 . S
C2620 C2618 1.415 . S
C2620 C2625 1.425 . S
C2620 C2627 1.409 . S
C2621 H2613 0.930 . S
C2621 C2619 1.419 . S
C2621 C2622 1.362 . S
C2622 H2614 0.930 . S
C2622 C2621 1.362 . S
C2622 C2625 1.409 . S
C2623 H2615 0.930 . S
C2623 C2624 1.355 . S
C2623 C2625 1.415 . S
C2624 C2623 1.355 . S
C2624 C2626 1.419 . S
C2625 C2620 1.425 . S
C2625 C2622 1.409 . S
C2625 C2623 1.415 . S
C2626 H2616 0.930 . S
C2626 C2624 1.419 . S
C2626 C2627 1.362 . S
C2627 H2617 0.930 . S
C2627 C2620 1.409 . S
C2627 C2626 1.362 . S
C1195 N596 0.848 . S
C1200 N2 0.848 . S
C1211 N35 0.768 . S
C1216 N629 0.768 . S
C1227 N662 0.753 . S
C1232 N68 0.753 . S
C1243 N1091 0.827 . S
C1248 N101 0.827 . S
C1259 N1124 0.765 . S
C1264 N134 0.765 . S
C1275 N167 0.753 . S
C1280 N1157 0.753 . S
C1291 N200 0.768 . S
C1296 N794 0.768 . S
C1307 N827 0.752 . S
C1312 N233 0.752 . S
C1323 N266 0.836 . S
C1328 N860 0.836 . S
C1339 N497 0.834 . S
C1344 N299 0.834 . S
C1355 N332 0.801 . S
C1360 N530 0.801 . S
C1371 N563 0.769 . S
C1376 N365 0.769 . S
C1387 N398 0.812 . S
C1392 N992 0.812 . S
C1403 N431 0.765 . S
C1408 N1025 0.765 . S
C1419 N1058 0.848 . S
C1424 N464 0.848 . S
C1435 N893 0.770 . S
C1440 N695 0.770 . S
C1451 N728 0.799 . S
C1456 N926 0.799 . S
C1467 N959 0.840 . S
C1472 N761 0.840 . S
C1483 C21 1.185 . S
C1488 N244 1.245 1_545 S
C1499 C54 1.242 . S
C1504 N277 1.229 1_654 S
C1515 C87 1.248 . S
C1520 N211 1.235 1_554 S
C1531 N376 1.244 1_455 S
C1536 C120 1.231 . S
C1547 C153 1.233 . S
C1552 N310 1.243 . S
C1563 C186 1.186 . S
C1568 N343 1.237 1_565 S
C1579 C219 1.248 . S
C1584 N46 1.235 1_566 S
C1595 C252 1.182 . S
C1600 N79 1.242 1_455 S
C1611 N13 1.230 1_556 S
C1616 C285 1.207 . S
C1627 C318 1.232 . S
C1632 N178 1.228 1_655 S
C1643 C351 1.183 . S
C1648 N112 1.240 . S
C1659 C384 1.244 . S
C1664 N145 1.239 1_545 S
C1675 N640 1.230 . S
C1680 C417 1.245 . S
C1691 C450 1.246 . S
C1696 N673 1.238 . S
C1707 C483 1.199 . S
C1712 N607 1.247 . S
C1723 C516 1.182 . S
C1728 N772 1.241 . S
C1739 C549 1.217 . S
C1744 N706 1.228 . S
C1755 N739 1.247 . S
C1760 C582 1.207 . S
C1771 N442 1.238 . S
C1776 C615 1.245 . S
C1787 C648 1.234 . S
C1792 N475 1.228 . S
C1803 N409 1.245 . S
C1808 C681 1.228 . S
C1819 C714 1.237 . S
C1824 N574 1.242 . S
C1835 N508 1.228 . S
C1840 C747 1.226 . S
C1851 N541 1.233 . S
C1856 C780 1.193 . S
C1867 N1036 1.239 . S
C1872 C813 1.184 . S
C1883 N1069 1.233 . S
C1888 C846 1.195 . S
C1899 C879 1.205 . S
C1904 N1003 1.230 . S
C1915 N1168 1.228 . S
C1920 C912 1.225 . S
C1931 N1102 1.227 . S
C1936 C945 1.227 . S
C1947 C978 1.189 . S
C1952 N1135 1.235 . S
C1963 N838 1.232 . S
C1968 C1011 1.248 . S
C1979 C1044 1.247 . S
C1984 N871 1.236 . S
C1995 C1077 1.234 . S
C2000 N805 1.228 . S
C2011 C1110 1.188 . S
C2016 N970 1.246 . S
C2027 N904 1.242 . S
C2032 C1143 1.182 . S
C2043 N937 1.231 . S
C2048 C1176 1.201 . S
C2059 C18 1.687 . S
C2064 C117 1.682 . S
C2075 C51 1.679 . S
C2080 C150 1.688 . S
C2091 C183 1.684 . S
C2096 C84 1.679 . S
C2107 C216 1.683 . S
C2112 C315 1.687 . S
C2123 C348 1.688 . S
C2128 C249 1.681 . S
C2139 C282 1.688 . S
C2144 C381 1.681 . S
C2155 C414 1.687 . S
C2160 C513 1.682 . S
C2171 C447 1.678 . S
C2176 C546 1.686 . S
C2187 C579 1.688 . S
C2192 C480 1.680 . S
C2203 C612 1.680 . S
C2208 C711 1.688 1_554 S
C2219 C645 1.680 . S
C2224 C744 1.682 1_554 S
C2235 C777 1.687 1_554 S
C2240 C678 1.684 . S
C2251 C909 1.687 1_556 S
C2256 C810 1.683 . S
C2267 C942 1.685 1_556 S
C2272 C843 1.678 . S
C2283 C876 1.681 . S
C2288 C975 1.688 1_556 S
C2299 C1008 1.679 . S
C2304 C1107 1.684 . S
C2315 C1140 1.687 . S
C2320 C1041 1.679 . S
C2331 C1173 1.681 . S
C2336 C1074 1.688 . S
C2347 C7 1.910 1_556 S
C2352 C535 1.867 . S
C2363 C40 1.910 1_556 S
C2368 C568 1.869 . S
C2379 C502 1.910 . S
C2384 C73 1.873 1_556 S
C2395 C106 1.897 . S
C2400 C865 1.894 . S
C2411 C799 1.905 . S
C2416 C139 1.865 . S
C2427 C172 1.910 . S
C2432 C832 1.870 . S
C2443 C205 1.879 1_554 S
C2448 C1129 1.883 . S
C2459 C1162 1.876 . S
C2464 C238 1.908 1_554 S
C2475 C271 1.901 1_554 S
C2480 C1096 1.889 . S
C2491 C667 1.874 . S
C2496 C304 1.888 . S
C2507 C601 1.910 . S
C2512 C337 1.874 . S
C2523 C634 1.880 . S
C2528 C370 1.907 . S
C2539 C931 1.874 . S
C2544 C403 1.888 . S
C2555 C964 1.909 . S
C2560 C436 1.875 . S
C2571 C898 1.894 . S
C2576 C469 1.896 . S
C2587 C1063 1.892 . S
C2592 C700 1.871 . S
C2603 C997 1.885 . S
C2608 C733 1.877 . S
C2619 C1030 1.896 . S
C2624 C766 1.868 . S
