# Generated by pormake.
# Topology smt, (6)-cn, num edge types: 1
# Building blocks:
#     Node 0, Type 0, BuildingBlock: UKALOJ_clean_sbu_0, # of connection points: 6
#     Node 1, Type 0, BuildingBlock: UKALOJ_clean_sbu_0, # of connection points: 6
#     Node 2, Type 0, BuildingBlock: UKALOJ_clean_sbu_0, # of connection points: 6
#     Node 3, Type 0, BuildingBlock: UKALOJ_clean_sbu_0, # of connection points: 6
#     Node 4, Type 0, BuildingBlock: UKALOJ_clean_sbu_0, # of connection points: 6
#     Node 5, Type 0, BuildingBlock: UKALOJ_clean_sbu_0, # of connection points: 6
#     Edge 6, Type (0, 0), BuildingBlock: TEMPAE_clean_linker_10, # of connection points: 2
#     Edge 7, Type (0, 0), BuildingBlock: TEMPAE_clean_linker_10, # of connection points: 2
#     Edge 8, Type (0, 0), BuildingBlock: TEMPAE_clean_linker_10, # of connection points: 2
#     Edge 9, Type (0, 0), BuildingBlock: TEMPAE_clean_linker_10, # of connection points: 2
#     Edge 10, Type (0, 0), BuildingBlock: TEMPAE_clean_linker_10, # of connection points: 2
#     Edge 11, Type (0, 0), BuildingBlock: TEMPAE_clean_linker_10, # of connection points: 2
#     Edge 12, Type (0, 0), BuildingBlock: TEMPAE_clean_linker_10, # of connection points: 2
#     Edge 13, Type (0, 0), BuildingBlock: TEMPAE_clean_linker_10, # of connection points: 2
#     Edge 14, Type (0, 0), BuildingBlock: TEMPAE_clean_linker_10, # of connection points: 2
#     Edge 15, Type (0, 0), BuildingBlock: TEMPAE_clean_linker_10, # of connection points: 2
#     Edge 16, Type (0, 0), BuildingBlock: TEMPAE_clean_linker_10, # of connection points: 2
#     Edge 17, Type (0, 0), BuildingBlock: TEMPAE_clean_linker_10, # of connection points: 2
#     Edge 18, Type (0, 0), BuildingBlock: TEMPAE_clean_linker_10, # of connection points: 2
#     Edge 19, Type (0, 0), BuildingBlock: TEMPAE_clean_linker_10, # of connection points: 2
#     Edge 20, Type (0, 0), BuildingBlock: TEMPAE_clean_linker_10, # of connection points: 2
#     Edge 21, Type (0, 0), BuildingBlock: TEMPAE_clean_linker_10, # of connection points: 2
#     Edge 22, Type (0, 0), BuildingBlock: TEMPAE_clean_linker_10, # of connection points: 2
#     Edge 23, Type (0, 0), BuildingBlock: TEMPAE_clean_linker_10, # of connection points: 2
# Relax obj value: 0.353
# Max RMSD: 0.284
# Mean RMSD: 0.284
data_MOF--net-smt--node1-UKALOJ_clean_sbu_0--edge1-TEMPAE_clean_linker_10
_symmetry_space_group_name_H-M    P1
_symmetry_Int_Tables_number       1
_symmetry_cell_setting            triclinic
loop_
_symmetry_equiv_pos_as_xyz
'x, y, z'
_cell_length_a     38.617405
_cell_length_b     38.621746
_cell_length_c     25.701768
_cell_angle_alpha  90.091124
_cell_angle_beta   89.983157
_cell_angle_gamma 120.30899
loop_
_atom_site_label
_atom_site_type_symbol
_atom_site_fract_x
_atom_site_fract_y
_atom_site_fract_z
_atom_type_partial_charge
Zn0 Zn 0.50313 0.12795 0.98075 0.0
O1 O 0.48375 0.07965 0.03357 0.0
C2 C 0.42031 0.08893 0.94653 0.0
Zn3 Zn 0.47181 0.15318 0.02488 0.0
C4 C 0.46553 0.08074 0.07418 0.0
O5 O 0.45814 0.10895 0.08037 0.0
C6 C 0.51183 0.20226 0.93315 0.0
O7 O 0.52368 0.19297 0.06898 0.0
O8 O 0.55203 0.16351 0.0286 0.0
N9 N 0.436 0.16894 0.06413 0.0
C10 C 0.43568 0.20348 0.06941 0.0
C11 C 0.38008 0.15658 0.09908 0.0
N12 N 0.40163 0.13996 0.08317 0.0
N13 N 0.40086 0.19641 0.09103 0.0
C14 C 0.52971 0.07824 0.91403 0.0
C15 C 0.59066 0.12214 0.89874 0.0
N16 N 0.53817 0.11123 0.94167 0.0
N17 N 0.57624 0.1382 0.93282 0.0
N18 N 0.56211 0.08446 0.88635 0.0
H19 H 0.47005 0.03942 0.94416 0.0
H20 H 0.49058 0.01399 0.90914 0.0
H21 H 0.47421 0.04304 0.87378 0.0
C22 C 0.48877 0.04165 0.91028 0.0
C23 C 0.46751 0.2432 0.04888 0.0
H24 H 0.49648 0.24401 0.04487 0.0
H25 H 0.47162 0.26782 0.07509 0.0
H26 H 0.45795 0.24834 0.01038 0.0
O27 O 0.48705 0.19833 0.96844 0.0
O28 O 0.52282 0.17645 0.92942 0.0
C29 C 0.55405 0.18891 0.06164 0.0
O30 O 0.45351 0.09231 0.9333 0.0
O31 O 0.41996 0.11154 0.98223 0.0
Zn32 Zn 0.35944 0.48128 0.16972 0.0
O33 O 0.38494 0.46495 0.23064 0.0
C34 C 0.31981 0.39916 0.13383 0.0
Zn35 Zn 0.29918 0.44837 0.20577 0.0
C36 C 0.36264 0.44587 0.26898 0.0
O37 O 0.32574 0.43542 0.26834 0.0
C38 C 0.29738 0.48788 0.10903 0.0
O39 O 0.30736 0.50006 0.24755 0.0
O40 O 0.36749 0.52972 0.21261 0.0
N41 N 0.24417 0.41172 0.23785 0.0
C42 C 0.211 0.41435 0.24522 0.0
C43 C 0.1962 0.35492 0.26571 0.0
N44 N 0.23491 0.37487 0.25099 0.0
N45 N 0.18051 0.37903 0.26258 0.0
C46 C 0.44 0.50902 0.11311 0.0
C47 C 0.45564 0.5684 0.09145 0.0
N48 N 0.41339 0.51706 0.13571 0.0
N49 N 0.42345 0.55411 0.12274 0.0
N50 N 0.46654 0.54063 0.08418 0.0
H51 H 0.43007 0.45946 0.16178 0.0
H52 H 0.47214 0.47683 0.11773 0.0
H53 H 0.42142 0.44801 0.09387 0.0
C54 C 0.44116 0.47126 0.12226 0.0
C55 C 0.20771 0.45042 0.2323 0.0
H56 H 0.20489 0.4641 0.26883 0.0
H57 H 0.18035 0.44131 0.20871 0.0
H58 H 0.23444 0.47337 0.21125 0.0
O59 O 0.27353 0.46346 0.14281 0.0
O60 O 0.33418 0.49841 0.1109 0.0
C61 C 0.34172 0.53124 0.24151 0.0
O62 O 0.35118 0.43272 0.1263 0.0
O63 O 0.29306 0.39702 0.16473 0.0
Zn64 Zn 0.86349 0.36592 0.35583 0.0
O65 O 0.90402 0.39105 0.41923 0.0
C66 C 0.90358 0.32184 0.32893 0.0
Zn67 Zn 0.83334 0.30733 0.39632 0.0
C68 C 0.8992 0.36981 0.45933 0.0
O69 O 0.87117 0.33347 0.46027 0.0
C70 C 0.79578 0.3038 0.29421 0.0
O71 O 0.79046 0.32009 0.43236 0.0
O72 O 0.82405 0.37843 0.39311 0.0
N73 N 0.81019 0.25254 0.43099 0.0
C74 C 0.77393 0.21884 0.42912 0.0
C75 C 0.81473 0.20321 0.46248 0.0
N76 N 0.83532 0.2428 0.45237 0.0
N77 N 0.77611 0.18753 0.44837 0.0
C78 C 0.92446 0.44413 0.30015 0.0
C79 C 0.88601 0.46401 0.27021 0.0
N80 N 0.88744 0.41953 0.31903 0.0
N81 N 0.86369 0.43219 0.30088 0.0
N82 N 0.92425 0.47201 0.2686 0.0
H83 H 0.95832 0.43073 0.35509 0.0
H84 H 0.98841 0.47186 0.31169 0.0
H85 H 0.96396 0.42085 0.28855 0.0
C86 C 0.96092 0.44192 0.31485 0.0
C87 C 0.73738 0.21569 0.40431 0.0
H88 H 0.74072 0.24565 0.39862 0.0
H89 H 0.7107 0.19734 0.42897 0.0
H90 H 0.73211 0.20011 0.36637 0.0
O91 O 0.79475 0.28166 0.33138 0.0
O92 O 0.82241 0.34068 0.29433 0.0
C93 C 0.79556 0.35473 0.42249 0.0
O94 O 0.9028 0.35331 0.31776 0.0
O95 O 0.87805 0.29696 0.36096 0.0
Zn96 Zn 0.47928 0.86368 0.48392 0.0
O97 O 0.49311 0.91017 0.53787 0.0
C98 C 0.56363 0.90365 0.45141 0.0
Zn99 Zn 0.51245 0.8408 0.52908 0.0
C100 C 0.51565 0.91327 0.57576 0.0
O101 O 0.52758 0.88828 0.58067 0.0
C102 C 0.47389 0.79 0.43832 0.0
O103 O 0.46017 0.80305 0.57452 0.0
O104 O 0.42907 0.82612 0.52675 0.0
N105 N 0.54792 0.82602 0.57118 0.0
C106 C 0.54842 0.79168 0.57778 0.0
C107 C 0.60373 0.83923 0.60726 0.0
N108 N 0.5821 0.85541 0.59015 0.0
N109 N 0.5832 0.79926 0.60011 0.0
C110 C 0.45523 0.91143 0.41138 0.0
C111 C 0.39783 0.86558 0.38499 0.0
N112 N 0.44527 0.87838 0.43947 0.0
N113 N 0.40937 0.85005 0.42353 0.0
N114 N 0.4263 0.90395 0.3762 0.0
H115 H 0.50193 0.95496 0.46125 0.0
H116 H 0.48687 0.97606 0.40916 0.0
H117 H 0.51705 0.95385 0.39569 0.0
C118 C 0.49232 0.9514 0.42006 0.0
C119 C 0.51681 0.75157 0.5578 0.0
H120 H 0.48748 0.75015 0.55484 0.0
H121 H 0.51359 0.72722 0.58372 0.0
H122 H 0.52588 0.74656 0.51885 0.0
O123 O 0.49643 0.79315 0.47616 0.0
O124 O 0.46445 0.8167 0.43183 0.0
C125 C 0.42831 0.80353 0.56298 0.0
O126 O 0.53074 0.90203 0.44107 0.0
O127 O 0.56402 0.8797 0.48489 0.0
Zn128 Zn 0.62516 0.51305 0.66895 0.0
O129 O 0.59772 0.52748 0.72978 0.0
C130 C 0.66473 0.59615 0.6364 0.0
Zn131 Zn 0.68475 0.54609 0.707 0.0
C132 C 0.61938 0.54622 0.7688 0.0
O133 O 0.65637 0.5572 0.76882 0.0
C134 C 0.68935 0.50869 0.60975 0.0
O135 O 0.67636 0.49379 0.74727 0.0
O136 O 0.61691 0.46379 0.71033 0.0
N137 N 0.73862 0.5827 0.7421 0.0
C138 C 0.77418 0.58411 0.74172 0.0
C139 C 0.78235 0.63538 0.78374 0.0
N140 N 0.74378 0.61453 0.76832 0.0
N141 N 0.80218 0.61713 0.76707 0.0
C142 C 0.54506 0.48523 0.61053 0.0
C143 C 0.53009 0.42618 0.58784 0.0
N144 N 0.57201 0.47748 0.63269 0.0
N145 N 0.5624 0.44065 0.61902 0.0
N146 N 0.51867 0.45361 0.58136 0.0
H147 H 0.55483 0.53468 0.65958 0.0
H148 H 0.51242 0.51689 0.61601 0.0
H149 H 0.56293 0.54603 0.59164 0.0
C150 C 0.54353 0.52276 0.62013 0.0
C151 C 0.78079 0.55217 0.71898 0.0
H152 H 0.75252 0.52281 0.71882 0.0
H153 H 0.80396 0.5496 0.74136 0.0
H154 H 0.79142 0.56031 0.67835 0.0
O155 O 0.71222 0.53266 0.64471 0.0
O156 O 0.65239 0.49771 0.61023 0.0
C157 C 0.64244 0.46231 0.73976 0.0
O158 O 0.63373 0.56255 0.62726 0.0
O159 O 0.69114 0.59794 0.66761 0.0
Zn160 Zn 0.12193 0.6238 0.85529 0.0
O161 O 0.08583 0.597 0.92129 0.0
C162 C 0.07526 0.6625 0.83446 0.0
Zn163 Zn 0.15078 0.68354 0.89399 0.0
C164 C 0.09002 0.61874 0.96073 0.0
O165 O 0.11522 0.65613 0.95971 0.0
C166 C 0.1846 0.68794 0.78966 0.0
O167 O 0.19671 0.6743 0.92761 0.0
O168 O 0.16632 0.61623 0.88719 0.0
N169 N 0.17304 0.73878 0.9279 0.0
C170 C 0.20913 0.77269 0.92522 0.0
C171 C 0.16843 0.78815 0.95939 0.0
N172 N 0.14795 0.74844 0.94968 0.0
N173 N 0.20691 0.804 0.94456 0.0
C174 C 0.06472 0.54352 0.79907 0.0
C175 C 0.10679 0.52913 0.76702 0.0
N176 N 0.10107 0.57032 0.81798 0.0
N177 N 0.12708 0.561 0.79853 0.0
N178 N 0.06756 0.5177 0.76614 0.0
H179 H 0.02882 0.55256 0.85541 0.0
H180 H 0.00084 0.5105 0.81187 0.0
H181 H 0.02088 0.56109 0.78891 0.0
C182 C 0.02651 0.54164 0.81494 0.0
C183 C 0.24548 0.7761 0.89934 0.0
H184 H 0.24252 0.74632 0.89353 0.0
H185 H 0.27252 0.79499 0.92323 0.0
H186 H 0.24986 0.79121 0.86124 0.0
O187 O 0.18677 0.70995 0.82769 0.0
O188 O 0.15871 0.65087 0.79059 0.0
C189 C 0.19442 0.64107 0.91621 0.0
O190 O 0.07702 0.63136 0.824 0.0
O191 O 0.10302 0.69043 0.8613 0.0
C192 C 0.3829 0.02695 0.89257 0.0
C193 C 0.38252 0.05251 0.93111 0.0
C194 C 0.35163 0.98696 0.88875 0.0
C195 C 0.31928 0.97233 0.92432 0.0
C196 C 0.31684 -0.00095 0.95986 0.0
C197 C 0.34838 0.03894 0.96256 0.0
C198 C 0.35491 0.95965 0.84948 0.0
C199 C 0.28279 0.98472 -0.00164 0.0
C200 C 0.22661 0.86952 0.9064 0.0
C201 C 0.23534 0.84593 0.93903 0.0
C202 C 0.25395 0.91064 0.90031 0.0
C203 C 0.29048 0.92851 0.92835 0.0
C204 C 0.2993 0.90463 0.96155 0.0
C205 C 0.27161 0.86345 0.96621 0.0
C206 C 0.24374 0.93492 0.86408 0.0
C207 C 0.33775 0.92268 -0.00735 0.0
H208 H 0.40885 0.03742 0.86753 0.0
H209 H 0.34768 0.05845 -0.00759 0.0
H210 H 0.36262 0.9391 0.86982 0.0
H211 H 0.32583 0.94086 0.82938 0.0
H212 H 0.3784 0.97671 0.81986 0.0
H213 H 0.28265 0.01002 0.01878 0.0
H214 H 0.25348 0.96636 0.97864 0.0
H215 H 0.28569 0.9654 0.02789 0.0
H216 H 0.19844 0.8555 0.88533 0.0
H217 H 0.27787 0.84493 0.99167 0.0
H218 H 0.26762 0.94994 0.83438 0.0
H219 H 0.24225 0.95882 0.88619 0.0
H220 H 0.21462 0.91619 0.84392 0.0
H221 H 0.36396 0.93701 0.96614 0.0
H222 H 0.34003 0.89998 0.01659 0.0
H223 H 0.33961 0.94644 0.01884 0.0
C224 C 0.2991 0.32719 0.14386 0.0
C225 C 0.31895 0.3627 0.11493 0.0
C226 C 0.30772 0.29635 0.1361 0.0
C227 C 0.33648 0.30121 0.09824 0.0
C228 C 0.3535 0.33527 0.06548 0.0
C229 C 0.3445 0.36566 0.07427 0.0
C230 C 0.28881 0.26035 0.17162 0.0
C231 C 0.3838 0.34127 0.0241 0.0
C232 C 0.40211 0.25629 0.12541 0.0
C233 C 0.3846 0.22246 0.09338 0.0
C234 C 0.38634 0.28195 0.12777 0.0
C235 C 0.3524 0.2734 0.09707 0.0
C236 C 0.33449 0.23896 0.06489 0.0
C237 C 0.35074 0.2137 0.06371 0.0
C238 C 0.40606 0.31825 0.16295 0.0
C239 C 0.29859 0.22914 0.03131 0.0
H240 H 0.27938 0.32481 0.17542 0.0
H241 H 0.35946 0.3929 0.05135 0.0
H242 H 0.27836 0.23224 0.14917 0.0
H243 H 0.31153 0.26259 0.19997 0.0
H244 H 0.26303 0.25824 0.1936 0.0
H245 H 0.38997 0.36642 -0.00248 0.0
H246 H 0.41241 0.348 0.04289 0.0
H247 H 0.3732 0.31356 0.00071 0.0
H248 H 0.42793 0.26236 0.14878 0.0
H249 H 0.33745 0.18732 0.03902 0.0
H250 H 0.38382 0.31745 0.191 0.0
H251 H 0.41723 0.34599 0.13956 0.0
H252 H 0.43162 0.32004 0.1851 0.0
H253 H 0.27371 0.2266 0.05571 0.0
H254 H 0.28772 0.20071 0.00933 0.0
H255 H 0.30646 0.25378 0.00317 0.0
C256 C 0.95948 0.34017 0.26696 0.0
C257 C 0.93793 0.31837 0.31079 0.0
C258 C -0.00242 0.34599 0.25605 0.0
C259 C 0.01451 0.32968 0.28993 0.0
C260 C 0.99164 0.30508 0.33201 0.0
C261 C 0.95338 0.29953 0.34183 0.0
C262 C 0.02075 0.37196 0.21037 0.0
C263 C 0.00872 0.28717 0.36896 0.0
C264 C 0.10926 0.33131 0.24649 0.0
C265 C 0.13903 0.36673 0.26983 0.0
C266 C 0.06849 0.31856 0.25296 0.0
C267 C 0.05739 0.34161 0.28411 0.0
C268 C 0.08741 0.37706 0.3086 0.0
C269 C 0.12796 0.38921 0.30108 0.0
C270 C 0.03738 0.28086 0.22588 0.0
C271 C 0.0767 0.40223 0.34257 0.0
H272 H 0.9474 0.35448 0.24261 0.0
H273 H 0.93689 0.28288 0.37595 0.0
H274 H 0.04595 0.40083 0.22479 0.0
H275 H 0.03385 0.35721 0.18701 0.0
H276 H 0.0017 0.37855 0.1846 0.0
H277 H 0.98554 0.26493 0.39563 0.0
H278 H 0.02249 0.27236 0.34715 0.0
H279 H 0.03271 0.31142 0.39273 0.0
H280 H 0.11808 0.31398 0.22245 0.0
H281 H 0.15104 0.4159 0.32029 0.0
H282 H 0.02002 0.28822 0.19815 0.0
H283 H 0.0158 0.25949 0.25466 0.0
H284 H 0.05099 0.26577 0.2042 0.0
H285 H 0.0602 0.41349 0.31939 0.0
H286 H 0.10359 0.42832 0.35988 0.0
H287 H 0.05657 0.38366 0.37451 0.0
C288 C 0.7571 0.12215 0.41019 0.0
C289 C 0.74781 0.14563 0.44235 0.0
C290 C 0.73006 0.08099 0.40392 0.0
C291 C 0.69324 0.06303 0.43121 0.0
C292 C 0.6838 0.08682 0.46379 0.0
C293 C 0.71125 0.12801 0.46875 0.0
C294 C 0.74097 0.05674 0.36849 0.0
C295 C 0.64499 0.06863 0.49403 0.0
C296 C 0.60149 0.96417 0.39563 0.0
C297 C 0.60157 0.93934 0.43531 0.0
C298 C 0.6328 0.00404 0.39126 0.0
C299 C 0.66487 0.01917 0.42735 0.0
C300 C 0.66714 0.99299 0.46387 0.0
C301 C 0.63552 0.95323 0.46717 0.0
C302 C 0.62973 0.03078 0.35099 0.0
C303 C 0.70093 0.00788 0.50288 0.0
H304 H 0.78552 0.13625 0.38973 0.0
H305 H 0.7046 0.14645 0.49392 0.0
H306 H 0.74274 0.03329 0.39122 0.0
H307 H 0.71732 0.04115 0.33859 0.0
H308 H 0.77014 0.07561 0.34858 0.0
H309 H 0.64209 0.09135 0.51719 0.0
H310 H 0.6191 0.05377 0.46702 0.0
H311 H 0.64318 0.04529 0.52087 0.0
H312 H 0.57572 0.95323 0.37013 0.0
H313 H 0.63589 0.93421 0.4979 0.0
H314 H 0.65897 0.04946 0.33127 0.0
H315 H 0.62167 0.05143 0.37039 0.0
H316 H 0.60654 0.01327 0.32115 0.0
H317 H 0.73035 0.02644 0.48358 0.0
H318 H 0.70124 0.98282 0.52364 0.0
H319 H 0.69746 0.0271 0.53211 0.0
C320 C 0.63385 0.78261 0.57288 0.0
C321 C 0.59996 0.77363 0.60264 0.0
C322 C 0.65018 0.75741 0.57352 0.0
C323 C 0.63227 0.72273 0.60513 0.0
C324 C 0.59842 0.71405 0.63609 0.0
C325 C 0.58262 0.73971 0.63438 0.0
C326 C 0.68606 0.76746 0.53979 0.0
C327 C 0.57868 0.67748 0.67064 0.0
C328 C 0.63979 0.63053 0.57885 0.0
C329 C 0.6654 0.63286 0.61908 0.0
C330 C 0.63082 0.66108 0.57147 0.0
C331 C 0.64796 0.69469 0.60515 0.0
C332 C 0.67673 0.69895 0.64263 0.0
C333 C 0.68528 0.66795 0.64902 0.0
C334 C 0.60049 0.65573 0.53047 0.0
C335 C 0.69582 0.73449 0.67904 0.0
H336 H 0.647 0.80903 0.54838 0.0
H337 H 0.55678 0.73345 0.65783 0.0
H338 H 0.71077 0.76928 0.56385 0.0
H339 H 0.67799 0.74328 0.51073 0.0
H340 H 0.69725 0.79631 0.51884 0.0
H341 H 0.55327 0.67565 0.69321 0.0
H342 H 0.56728 0.64992 0.64668 0.0
H343 H 0.60095 0.67791 0.69829 0.0
H344 H 0.62485 0.60368 0.55511 0.0
H345 H 0.70506 0.66988 0.68024 0.0
H346 H 0.61127 0.68368 0.50767 0.0
H347 H 0.57203 0.64913 0.54959 0.0
H348 H 0.59399 0.63075 0.5033 0.0
H349 H 0.70636 0.76289 0.65736 0.0
H350 H 0.72157 0.7362 0.70062 0.0
H351 H 0.67319 0.73202 0.70771 0.0
C352 C 0.00162 0.62597 0.82593 0.0
C353 C 0.03789 0.6624 0.82258 0.0
C354 C 0.96503 0.62357 0.81557 0.0
C355 C 0.96449 0.65871 0.80187 0.0
C356 C 0.00095 0.69596 0.79921 0.0
C357 C 0.03745 0.69745 0.81006 0.0
C358 C 0.92689 0.58329 0.81966 0.0
C359 C 0.00132 0.73397 0.78467 0.0
C360 C 0.86787 0.63218 0.73283 0.0
C361 C 0.84412 0.63147 0.77443 0.0
C362 C 0.90833 0.64405 0.74035 0.0
C363 C 0.92527 0.65551 0.7907 0.0
C364 C 0.902 0.65729 0.8321 0.0
C365 C 0.86166 0.64541 0.82333 0.0
C366 C 0.93221 0.64204 0.69513 0.0
C367 C 0.91886 0.66913 0.88641 0.0
H368 H 0.00168 0.59921 0.8381 0.0
H369 H 0.06551 0.72573 0.80814 0.0
H370 H 0.90665 0.58473 0.84911 0.0
H371 H 0.91076 0.57532 0.78189 0.0
H372 H 0.93272 0.55888 0.83071 0.0
H373 H 0.03211 0.76051 0.78466 0.0
H374 H 0.98805 0.7307 0.74541 0.0
H375 H 0.98257 0.73952 0.81231 0.0
H376 H 0.85461 0.62295 0.69455 0.0
H377 H 0.84325 0.64538 0.85518 0.0
H378 H 0.93721 0.61639 0.70066 0.0
H379 H 0.96209 0.66968 0.69325 0.0
H380 H 0.91658 0.63802 0.6574 0.0
H381 H 0.92261 0.64485 0.90352 0.0
H382 H 0.89893 0.67442 0.91228 0.0
H383 H 0.94887 0.69664 0.88554 0.0
C384 C 0.44367 0.01139 0.10457 0.0
C385 C 0.45487 0.05116 0.11576 0.0
C386 C 0.43403 0.98354 0.14489 0.0
C387 C 0.43719 -0.00353 0.19719 0.0
C388 C 0.44801 0.03655 0.20839 0.0
C389 C 0.45616 0.06327 0.16742 0.0
C390 C 0.42139 0.94068 0.1316 0.0
C391 C 0.45273 0.05172 0.26367 0.0
C392 C 0.39445 0.92664 0.31267 0.0
C393 C 0.42859 0.92662 0.33086 0.0
C394 C 0.39614 0.94776 0.26746 0.0
C395 C 0.43301 0.96957 0.24059 0.0
C396 C 0.46718 0.96848 0.25791 0.0
C397 C 0.46426 0.94629 0.30221 0.0
C398 C 0.35886 0.94742 0.24905 0.0
C399 C 0.50715 0.99161 0.23055 0.0
H400 H 0.44218 0.00206 0.06441 0.0
H401 H 0.46501 0.09417 0.17592 0.0
H402 H 0.4459 0.9348 0.14157 0.0
H403 H 0.39468 0.91961 0.15467 0.0
H404 H 0.41431 0.93411 0.08958 0.0
H405 H 0.46005 0.08345 0.26556 0.0
H406 H 0.42478 0.03303 0.28598 0.0
H407 H 0.47708 0.04936 0.28325 0.0
H408 H 0.3666 0.91039 0.33414 0.0
H409 H 0.48988 0.94401 0.31405 0.0
H410 H 0.35385 0.93982 0.20703 0.0
H411 H 0.36272 0.97772 0.25379 0.0
H412 H 0.33176 0.92563 0.271 0.0
H413 H 0.50414 0.9821 0.18928 0.0
H414 H 0.53073 0.98735 0.24909 0.0
H415 H 0.51732 0.0241 0.23087 0.0
C416 C 0.41443 0.43629 0.31373 0.0
C417 C 0.38016 0.43982 0.3164 0.0
C418 C 0.43348 0.43457 0.35927 0.0
C419 C 0.41858 0.4379 0.40828 0.0
C420 C 0.38334 0.44041 0.4111 0.0
C421 C 0.36419 0.44073 0.36502 0.0
C422 C 0.47036 0.43067 0.35488 0.0
C423 C 0.36725 0.44518 0.46253 0.0
C424 C 0.45782 0.41312 0.52938 0.0
C425 C 0.49046 0.45079 0.54255 0.0
C426 C 0.43364 0.40837 0.48615 0.0
C427 C 0.44186 0.44233 0.45613 0.0
C428 C 0.47369 0.48068 0.47042 0.0
C429 C 0.49817 0.48426 0.51261 0.0
C430 C 0.40056 0.36687 0.47124 0.0
C431 C 0.48293 0.5178 0.43992 0.0
H432 H 0.42656 0.43532 0.27605 0.0
H433 H 0.33786 0.44388 0.36704 0.0
H434 H 0.49721 0.45919 0.36691 0.0
H435 H 0.46791 0.40683 0.38129 0.0
H436 H 0.47513 0.42354 0.31454 0.0
H437 H 0.3379 0.4437 0.45825 0.0
H438 H 0.36368 0.42163 0.49024 0.0
H439 H 0.38898 0.47458 0.47999 0.0
H440 H 0.45216 0.38709 0.55192 0.0
H441 H 0.52445 0.51304 0.52018 0.0
H442 H 0.40745 0.35854 0.43287 0.0
H443 H 0.37168 0.36627 0.46718 0.0
H444 H 0.39676 0.34388 0.5002 0.0
H445 H 0.4942 0.51643 0.40072 0.0
H446 H 0.50587 0.54575 0.45944 0.0
H447 H 0.45531 0.51948 0.43446 0.0
C448 C 0.04158 0.45775 0.71067 0.0
C449 C 0.03941 0.49105 0.72797 0.0
C450 C 0.01882 0.4349 0.66799 0.0
C451 C -0.00716 0.44533 0.64267 0.0
C452 C 0.98945 0.47801 0.66104 0.0
C453 C 0.01346 0.501 0.7026 0.0
C454 C 0.02383 0.40075 0.64866 0.0
C455 C 0.96161 0.48976 0.63553 0.0
C456 C 0.96319 0.42069 0.50117 0.0
C457 C 0.92449 0.38747 0.50568 0.0
C458 C 0.98666 0.4386 0.54554 0.0
C459 C 0.97045 0.42351 0.59541 0.0
C460 C 0.93162 0.38955 0.60004 0.0
C461 C 0.90926 0.3716 0.55499 0.0
C462 C 0.02838 0.47426 0.53912 0.0
C463 C 0.91298 0.37331 0.65258 0.0
H464 H 0.06218 0.45047 0.7296 0.0
H465 H 0.0132 0.5279 0.71321 0.0
H466 H -0.00572 0.37278 0.64601 0.0
H467 H 0.0368 0.40762 0.6089 0.0
H468 H 0.04375 0.39527 0.67425 0.0
H469 H 0.9595 0.51328 0.65785 0.0
H470 H 0.97251 0.50128 0.5958 0.0
H471 H 0.93106 0.46323 0.63161 0.0
H472 H 0.97508 0.43269 0.46297 0.0
H473 H 0.87919 0.346 0.55852 0.0
H474 H 0.05029 0.46973 0.56162 0.0
H475 H 0.0294 0.50156 0.55468 0.0
H476 H 0.03795 0.47966 0.49773 0.0
H477 H 0.93319 0.36732 0.6767 0.0
H478 H 0.88347 0.34523 0.64938 0.0
H479 H 0.90869 0.39603 0.67349 0.0
C480 C 0.56475 0.96104 0.63926 0.0
C481 C 0.52709 0.9445 0.6154 0.0
C482 C 0.57472 0.98736 0.68142 0.0
C483 C 0.54579 -0.0038 0.70088 0.0
C484 C 0.50815 0.98058 0.67575 0.0
C485 C 0.49943 0.95524 0.63261 0.0
C486 C 0.61562 0.00455 0.70616 0.0
C487 C 0.47639 0.98897 0.69601 0.0
C488 C 0.54956 0.0222 0.84356 0.0
C489 C 0.56254 0.06309 0.84097 0.0
C490 C 0.54438 3e-05 0.79811 0.0
C491 C 0.55388 0.01978 0.74935 0.0
C492 C 0.56967 0.06167 0.74695 0.0
C493 C 0.57351 0.08282 0.79291 0.0
C494 C 0.52735 0.95531 0.8021 0.0
C495 C 0.58121 0.08388 0.69578 0.0
H496 H 0.58622 0.95291 0.62535 0.0
H497 H 0.47024 0.94213 0.61415 0.0
H498 H 0.62961 0.03748 0.71115 0.0
H499 H 0.6126 0.99143 0.74541 0.0
H500 H 0.63607 -0.00166 0.68273 0.0
H501 H 0.44929 0.97573 0.67084 0.0
H502 H 0.46731 0.97643 0.73578 0.0
H503 H 0.48852 0.02176 0.69886 0.0
H504 H 0.5427 0.00749 0.88108 0.0
H505 H 0.58378 0.1146 0.7912 0.0
H506 H 0.54815 0.94688 0.78401 0.0
H507 H 0.49858 0.93933 0.78045 0.0
H508 H 0.52188 0.94469 0.84305 0.0
H509 H 0.60116 0.0764 0.67342 0.0
H510 H 0.5967 0.11692 0.70124 0.0
H511 H 0.55396 0.07448 0.6719 0.0
C512 C 0.48518 0.50921 0.01417 0.0
C513 C 0.49381 0.54295 0.04428 0.0
C514 C 0.50873 0.51226 0.97114 0.0
C515 C 0.54046 0.55038 0.9561 0.0
C516 C 0.54947 0.58467 0.98606 0.0
C517 C 0.52631 0.58043 0.03021 0.0
C518 C 0.49872 0.4748 0.94077 0.0
C519 C 0.5824 0.62596 0.97027 0.0
C520 C 0.61736 0.55084 0.86476 0.0
C521 C 0.6013 0.5516 0.81616 0.0
C522 C 0.59839 0.55146 0.91084 0.0
C523 C 0.56327 0.55414 0.90807 0.0
C524 C 0.54814 0.55711 0.85907 0.0
C525 C 0.567 0.55507 0.81348 0.0
C526 C 0.61467 0.54699 0.96226 0.0
C527 C 0.51139 0.56122 0.85478 0.0
H528 H 0.45892 0.48059 0.02233 0.0
H529 H 0.53263 0.60669 0.05282 0.0
H530 H 0.48713 0.47604 0.90176 0.0
H531 H 0.52609 0.47272 0.93484 0.0
H532 H 0.4758 0.4471 0.96065 0.0
H533 H 0.58643 0.64938 -0.00124 0.0
H534 H 0.61125 0.62649 0.96618 0.0
H535 H 0.57525 0.63372 0.93174 0.0
H536 H 0.64373 0.54777 0.86679 0.0
H537 H 0.55485 0.55595 0.7758 0.0
H538 H 0.59269 0.51803 0.98039 0.0
H539 H 0.61902 0.57115 0.98951 0.0
H540 H 0.64366 0.54774 0.95783 0.0
H541 H 0.48452 0.53293 0.86726 0.0
H542 H 0.50641 0.56798 0.81439 0.0
H543 H 0.51417 0.5854 0.88091 0.0
C544 C 0.02773 0.56796 0.00501 0.0
C545 C 0.06681 0.60064 0.00821 0.0
C546 C 0.00561 0.55012 0.05021 0.0
C547 C 0.02369 0.56458 0.09947 0.0
C548 C 0.0632 0.59764 0.10281 0.0
C549 C 0.08413 0.61573 0.05698 0.0
C550 C 0.96311 0.51553 0.04522 0.0
C551 C 0.08381 0.61298 0.15464 0.0
C552 C 0.95421 0.53334 0.21587 0.0
C553 C 0.95364 0.49829 0.23146 0.0
C554 C 0.97772 0.556 0.17369 0.0
C555 C 0.00181 0.54363 0.14728 0.0
C556 C 0.00283 0.50938 0.1643 0.0
C557 C 0.97797 0.48658 0.20528 0.0
C558 C 0.97512 0.59182 0.15572 0.0
C559 C 0.02873 0.49564 0.13768 0.0
H560 H 0.01434 0.55664 0.96714 0.0
H561 H 0.11457 0.64087 0.05924 0.0
H562 H 0.96115 0.48775 0.06049 0.0
H563 H 0.94252 0.52142 0.06877 0.0
H564 H 0.95249 0.51012 0.00424 0.0
H565 H 0.11421 0.63976 0.15049 0.0
H566 H 0.06562 0.62083 0.18016 0.0
H567 H 0.08662 0.58904 0.17458 0.0
H568 H 0.93496 0.54208 0.23553 0.0
H569 H 0.9762 0.45851 0.21465 0.0
H570 H 0.96136 0.58577 0.11642 0.0
H571 H 0.00552 0.6186 0.15248 0.0
H572 H 0.95692 0.5989 0.18244 0.0
H573 H 0.01664 0.48399 0.09833 0.0
H574 H 0.02995 0.47157 0.15979 0.0
H575 H 0.05975 0.52116 0.13276 0.0
C576 C 0.56498 0.24676 0.8703 0.0
C577 C 0.53189 0.23905 0.9013 0.0
C578 C 0.58725 0.28337 0.84424 0.0
C579 C 0.57597 0.31281 0.849 0.0
C580 C 0.54238 0.3051 0.87973 0.0
C581 C 0.52072 0.26827 0.90551 0.0
C582 C 0.62283 0.29055 0.81164 0.0
C583 C 0.52919 0.3357 0.88518 0.0
C584 C 0.64629 0.42203 0.81363 0.0
C585 C 0.6308 0.4238 0.76513 0.0
C586 C 0.62974 0.38556 0.84092 0.0
C587 C 0.5973 0.35052 0.81878 0.0
C588 C 0.58331 0.3519 0.7685 0.0
C589 C 0.60028 0.38849 0.74232 0.0
C590 C 0.64555 0.38491 0.89436 0.0
C591 C 0.54899 0.31519 0.74337 0.0
H592 H 0.57408 0.22448 0.86716 0.0
H593 H 0.49526 0.26255 0.92936 0.0
H594 H 0.61771 0.29518 0.7704 0.0
H595 H 0.65013 0.31823 0.82483 0.0
H596 H 0.62857 0.26514 0.81359 0.0
H597 H 0.50337 0.32563 0.91214 0.0
H598 H 0.5544 0.36449 0.89976 0.0
H599 H 0.52047 0.34167 0.84656 0.0
H600 H 0.66984 0.44933 0.83127 0.0
H601 H 0.58862 0.38968 0.70439 0.0
H602 H 0.65188 0.35998 0.89742 0.0
H603 H 0.62247 0.37958 0.92397 0.0
H604 H 0.67334 0.41354 0.90379 0.0
H605 H 0.55505 0.29001 0.74337 0.0
H606 H 0.54356 0.32086 0.70265 0.0
H607 H 0.52112 0.3054 0.76608 0.0
C608 C 0.23566 0.63897 0.98992 0.0
C609 C 0.2209 0.62805 0.9392 0.0
C610 C 0.25176 0.61832 0.01611 0.0
C611 C 0.25282 0.58621 0.99075 0.0
C612 C 0.24072 0.57727 0.93825 0.0
C613 C 0.22516 0.59849 0.91307 0.0
C614 C 0.26526 0.62914 0.07184 0.0
C615 C 0.24147 0.5434 0.90974 0.0
C616 C 0.31377 0.54284 0.04581 0.0
C617 C 0.28465 0.50967 0.07391 0.0
C618 C 0.30397 0.56832 0.01915 0.0
C619 C 0.26394 0.56006 0.01975 0.0
C620 C 0.23407 0.52588 0.04645 0.0
C621 C 0.24484 0.50118 0.07354 0.0
C622 C 0.33663 0.60462 0.9914 0.0
C623 C 0.19083 0.51572 0.04699 0.0
H624 H 0.23221 0.66168 0.01023 0.0
H625 H 0.2141 0.59029 0.87355 0.0
H626 H 0.2438 0.60488 0.09789 0.0
H627 H 0.29507 0.63199 0.07757 0.0
H628 H 0.26705 0.65766 0.0838 0.0
H629 H 0.23403 0.54248 0.86781 0.0
H630 H 0.27142 0.54624 0.9131 0.0
H631 H 0.2194 0.51437 0.92761 0.0
H632 H 0.34473 0.5499 0.04617 0.0
H633 H 0.22227 0.4758 0.0954 0.0
H634 H 0.33899 0.63231 0.00786 0.0
H635 H 0.32912 0.60359 0.94957 0.0
H636 H 0.36635 0.60679 -0.0053 0.0
H637 H 0.18856 0.5407 0.06475 0.0
H638 H 0.17121 0.48782 0.06905 0.0
H639 H 0.17937 0.51192 0.00656 0.0
C640 C 0.62642 0.21296 0.07462 0.0
C641 C 0.59133 0.21164 0.09208 0.0
C642 C 0.66118 0.23007 0.10506 0.0
C643 C 0.66085 0.24617 0.15432 0.0
C644 C 0.62608 0.24644 0.17142 0.0
C645 C 0.59163 0.22925 0.13988 0.0
C646 C 0.69777 0.22956 0.08526 0.0
C647 C 0.6248 0.26344 0.22383 0.0
C648 C 0.73302 0.24781 0.25555 0.0
C649 C 0.7634 0.28821 0.25491 0.0
C650 C 0.6994 0.23378 0.22309 0.0
C651 C 0.6963 0.26078 0.18888 0.0
C652 C 0.7274 0.30133 0.18685 0.0
C653 C 0.76062 0.31457 0.21991 0.0
C654 C 0.66692 0.19019 0.22599 0.0
C655 C 0.72525 0.33084 0.15044 0.0
H656 H 0.62652 0.19978 0.03737 0.0
H657 H 0.56455 0.22821 0.15352 0.0
H658 H 0.72447 0.26014 0.08685 0.0
H659 H 0.70404 0.21009 0.11052 0.0
H660 H 0.69392 0.21829 0.04465 0.0
H661 H 0.59644 0.26367 0.22996 0.0
H662 H 0.62777 0.24531 0.25508 0.0
H663 H 0.65039 0.29452 0.22786 0.0
H664 H 0.73508 0.22723 0.28215 0.0
H665 H 0.78391 0.3459 0.21921 0.0
H666 H 0.6629 0.17576 0.18738 0.0
H667 H 0.63793 0.18781 0.23655 0.0
H668 H 0.6738 0.1732 0.25501 0.0
H669 H 0.72191 0.32007 0.1097 0.0
H670 H 0.75231 0.3612 0.15299 0.0
H671 H 0.69848 0.33325 0.15968 0.0
C672 C 0.46425 0.72338 0.41186 0.0
C673 C 0.45379 0.75305 0.40676 0.0
C674 C 0.44237 0.68652 0.386 0.0
C675 C 0.4092 0.67925 0.35464 0.0
C676 C 0.39849 0.70904 0.34935 0.0
C677 C 0.42108 0.7457 0.37519 0.0
C678 C 0.45499 0.65553 0.3918 0.0
C679 C 0.36325 0.70225 0.31627 0.0
C680 C 0.38484 0.60476 0.24623 0.0
C681 C 0.35365 0.56943 0.26794 0.0
C682 C 0.40229 0.64091 0.27354 0.0
C683 C 0.38798 0.64185 0.32377 0.0
C684 C 0.35489 0.60686 0.34484 0.0
C685 C 0.33794 0.57079 0.31647 0.0
C686 C 0.43731 0.67761 0.24955 0.0
C687 C 0.33867 0.60714 0.39815 0.0
H688 H 0.48937 0.72884 0.43626 0.0
H689 H 0.41245 0.7683 0.3715 0.0
H690 H 0.42939 0.62683 0.4058 0.0
H691 H 0.46406 0.64956 0.35339 0.0
H692 H 0.48043 0.66525 0.41934 0.0
H693 H 0.35753 0.72766 0.3186 0.0
H694 H 0.3688 0.69808 0.27501 0.0
H695 H 0.33577 0.67446 0.32868 0.0
H696 H 0.39666 0.60387 0.20826 0.0
H697 H 0.31387 0.54345 0.33324 0.0
H698 H 0.46469 0.68701 0.27319 0.0
H699 H 0.43155 0.70298 0.2493 0.0
H700 H 0.44343 0.67216 0.20902 0.0
H701 H 0.36136 0.61186 0.42807 0.0
H702 H 0.31058 0.57862 0.4068 0.0
H703 H 0.33273 0.63232 0.4016 0.0
C704 C 0.75489 0.35878 0.49582 0.0
C705 C 0.7707 0.36973 0.44561 0.0
C706 C 0.7387 0.37976 0.52115 0.0
C707 C 0.73843 0.41209 0.49534 0.0
C708 C 0.75204 0.42136 0.44346 0.0
C709 C 0.76788 0.4 0.41925 0.0
C710 C 0.72388 0.3688 0.57635 0.0
C711 C 0.75203 0.45537 0.41444 0.0
C712 C 0.67511 0.45424 0.54627 0.0
C713 C 0.70329 0.48757 0.57515 0.0
C714 C 0.68602 0.42917 0.52054 0.0
C715 C 0.72617 0.43788 0.52317 0.0
C716 C 0.75511 0.47225 0.55058 0.0
C717 C 0.74329 0.49667 0.57635 0.0
C718 C 0.65437 0.39283 0.4916 0.0
C719 C 0.79844 0.48286 0.55339 0.0
H720 H 0.75723 0.33552 0.51627 0.0
H721 H 0.7797 0.40821 0.38009 0.0
H722 H 0.74424 0.39337 0.60296 0.0
H723 H 0.69362 0.36519 0.58033 0.0
H724 H 0.72251 0.34065 0.58907 0.0
H725 H 0.76102 0.4568 0.37308 0.0
H726 H 0.72185 0.45217 0.41574 0.0
H727 H 0.7732 0.4843 0.43342 0.0
H728 H 0.64402 0.44673 0.54531 0.0
H729 H 0.7652 0.52231 0.59847 0.0
H730 H 0.65178 0.3652 0.50849 0.0
H731 H 0.66314 0.39408 0.45025 0.0
H732 H 0.62446 0.39039 0.49313 0.0
H733 H 0.80051 0.45789 0.57142 0.0
H734 H 0.81719 0.51061 0.57631 0.0
H735 H 0.81111 0.48718 0.51359 0.0
C736 C 0.39024 0.76504 0.64185 0.0
C737 C 0.39065 0.78021 0.59229 0.0
C738 C 0.35514 0.74773 0.67205 0.0
C739 C 0.31994 0.74559 0.65188 0.0
C740 C 0.31978 0.75912 0.60094 0.0
C741 C 0.35509 0.77618 0.57176 0.0
C742 C 0.3561 0.7332 0.72623 0.0
C743 C 0.28279 0.75714 0.578 0.0
C744 C 0.2202 0.67683 0.71647 0.0
C745 C 0.21607 0.70359 0.74933 0.0
C746 C 0.25382 0.6901 0.6843 0.0
C747 C 0.28377 0.73111 0.68479 0.0
C748 C 0.27898 0.75857 0.71617 0.0
C749 C 0.2451 0.74445 0.74807 0.0
C750 C 0.2579 0.66006 0.65106 0.0
C751 C 0.31011 0.80269 0.71701 0.0
H752 H 0.41764 0.76811 0.6578 0.0
H753 H 0.35506 0.78741 0.53313 0.0
H754 H 0.35178 0.75202 0.75521 0.0
H755 H 0.33116 0.70192 0.73139 0.0
H756 H 0.38489 0.7344 0.73474 0.0
H757 H 0.28701 0.76667 0.53661 0.0
H758 H 0.2568 0.72619 0.58065 0.0
H759 H 0.27508 0.77687 0.60052 0.0
H760 H 0.19796 0.64514 0.71736 0.0
H761 H 0.24191 0.76527 0.77306 0.0
H762 H 0.28482 0.65883 0.66321 0.0
H763 H 0.2622 0.66949 0.60969 0.0
H764 H 0.23127 0.62944 0.65394 0.0
H765 H 0.33931 0.80685 0.73031 0.0
H766 H 0.30155 0.82013 0.74307 0.0
H767 H 0.31464 0.81528 0.67717 0.0
loop_
_geom_bond_atom_site_label_1
_geom_bond_atom_site_label_2
_geom_bond_distance
_geom_bond_site_symmetry_2
_ccdc_geom_bond_type
Zn0 O1 2.055 1_556 S
Zn0 O8 2.046 1_556 S
Zn0 N16 2.036 . S
Zn0 O28 2.053 . S
Zn0 O30 2.066 . S
O1 Zn0 2.055 1_554 S
O1 C4 1.259 . S
C2 O30 1.256 . S
C2 O31 1.244 1_556 S
Zn3 O5 2.046 . S
Zn3 O7 2.055 . S
Zn3 N9 2.036 . S
Zn3 O27 2.066 1_554 S
Zn3 O31 2.053 . S
C4 O1 1.259 . S
C4 O5 1.254 . S
O5 Zn3 2.046 . S
O5 C4 1.254 . S
C6 O27 1.256 . S
C6 O28 1.244 . S
O7 Zn3 2.055 . S
O7 C29 1.259 . S
O8 Zn0 2.046 1_554 S
O8 C29 1.254 . S
N9 Zn3 2.036 . S
N9 C10 1.298 . S
N9 N12 1.398 . S
C10 N9 1.298 . S
C10 N13 1.367 . S
C10 C23 1.481 . S
C11 N12 1.299 . S
C11 N13 1.379 . S
N12 N9 1.398 . S
N12 C11 1.299 . S
N13 C10 1.367 . S
N13 C11 1.379 . S
C14 N16 1.298 . S
C14 N18 1.367 . S
C14 C22 1.481 . S
C15 N17 1.299 . S
C15 N18 1.379 . S
N16 Zn0 2.036 . S
N16 C14 1.298 . S
N16 N17 1.398 . S
N17 C15 1.299 . S
N17 N16 1.398 . S
N18 C14 1.367 . S
N18 C15 1.379 . S
H19 C22 0.980 1_554 S
H20 C22 0.981 . S
H21 C22 0.981 . S
C22 C14 1.481 . S
C22 H19 0.980 1_556 S
C22 H20 0.981 . S
C22 H21 0.981 . S
C23 C10 1.481 . S
C23 H24 0.980 . S
C23 H25 0.981 . S
C23 H26 0.981 . S
H24 C23 0.980 . S
H25 C23 0.981 . S
H26 C23 0.981 . S
O27 Zn3 2.066 1_556 S
O27 C6 1.256 . S
O28 Zn0 2.053 . S
O28 C6 1.244 . S
C29 O7 1.259 . S
C29 O8 1.254 . S
O30 Zn0 2.066 . S
O30 C2 1.256 . S
O31 C2 1.244 1_554 S
O31 Zn3 2.053 . S
Zn32 O33 2.055 . S
Zn32 O40 2.046 . S
Zn32 N48 2.036 . S
Zn32 O60 2.053 . S
Zn32 O62 2.066 . S
O33 Zn32 2.055 . S
O33 C36 1.259 . S
C34 O62 1.256 . S
C34 O63 1.244 . S
Zn35 O37 2.046 . S
Zn35 O39 2.055 . S
Zn35 N41 2.036 . S
Zn35 O59 2.066 . S
Zn35 O63 2.053 . S
C36 O33 1.259 . S
C36 O37 1.254 . S
O37 Zn35 2.046 . S
O37 C36 1.254 . S
C38 O59 1.256 . S
C38 O60 1.244 . S
O39 Zn35 2.055 . S
O39 C61 1.259 . S
O40 Zn32 2.046 . S
O40 C61 1.254 . S
N41 Zn35 2.036 . S
N41 C42 1.298 . S
N41 N44 1.398 . S
C42 N41 1.298 . S
C42 N45 1.367 . S
C42 C55 1.481 . S
C43 N44 1.299 . S
C43 N45 1.379 . S
N44 N41 1.398 . S
N44 C43 1.299 . S
N45 C42 1.367 . S
N45 C43 1.379 . S
C46 N48 1.298 . S
C46 N50 1.367 . S
C46 C54 1.481 . S
C47 N49 1.299 . S
C47 N50 1.379 . S
N48 Zn32 2.036 . S
N48 C46 1.298 . S
N48 N49 1.398 . S
N49 C47 1.299 . S
N49 N48 1.398 . S
N50 C46 1.367 . S
N50 C47 1.379 . S
H51 C54 0.980 . S
H52 C54 0.981 . S
H53 C54 0.981 . S
C54 C46 1.481 . S
C54 H51 0.980 . S
C54 H52 0.981 . S
C54 H53 0.981 . S
C55 C42 1.481 . S
C55 H56 0.980 . S
C55 H57 0.981 . S
C55 H58 0.981 . S
H56 C55 0.980 . S
H57 C55 0.981 . S
H58 C55 0.981 . S
O59 Zn35 2.066 . S
O59 C38 1.256 . S
O60 Zn32 2.053 . S
O60 C38 1.244 . S
C61 O39 1.259 . S
C61 O40 1.254 . S
O62 Zn32 2.066 . S
O62 C34 1.256 . S
O63 C34 1.244 . S
O63 Zn35 2.053 . S
Zn64 O65 2.055 . S
Zn64 O72 2.046 . S
Zn64 N80 2.036 . S
Zn64 O92 2.053 . S
Zn64 O94 2.066 . S
O65 Zn64 2.055 . S
O65 C68 1.259 . S
C66 O94 1.256 . S
C66 O95 1.244 . S
Zn67 O69 2.046 . S
Zn67 O71 2.055 . S
Zn67 N73 2.036 . S
Zn67 O91 2.066 . S
Zn67 O95 2.053 . S
C68 O65 1.259 . S
C68 O69 1.254 . S
O69 Zn67 2.046 . S
O69 C68 1.254 . S
C70 O91 1.256 . S
C70 O92 1.244 . S
O71 Zn67 2.055 . S
O71 C93 1.259 . S
O72 Zn64 2.046 . S
O72 C93 1.254 . S
N73 Zn67 2.036 . S
N73 C74 1.298 . S
N73 N76 1.398 . S
C74 N73 1.298 . S
C74 N77 1.367 . S
C74 C87 1.481 . S
C75 N76 1.299 . S
C75 N77 1.379 . S
N76 N73 1.398 . S
N76 C75 1.299 . S
N77 C74 1.367 . S
N77 C75 1.379 . S
C78 N80 1.298 . S
C78 N82 1.367 . S
C78 C86 1.481 . S
C79 N81 1.299 . S
C79 N82 1.379 . S
N80 Zn64 2.036 . S
N80 C78 1.298 . S
N80 N81 1.398 . S
N81 C79 1.299 . S
N81 N80 1.398 . S
N82 C78 1.367 . S
N82 C79 1.379 . S
H83 C86 0.980 . S
H84 C86 0.981 . S
H85 C86 0.981 . S
C86 C78 1.481 . S
C86 H83 0.980 . S
C86 H84 0.981 . S
C86 H85 0.981 . S
C87 C74 1.481 . S
C87 H88 0.980 . S
C87 H89 0.981 . S
C87 H90 0.981 . S
H88 C87 0.980 . S
H89 C87 0.981 . S
H90 C87 0.981 . S
O91 Zn67 2.066 . S
O91 C70 1.256 . S
O92 Zn64 2.053 . S
O92 C70 1.244 . S
C93 O71 1.259 . S
C93 O72 1.254 . S
O94 Zn64 2.066 . S
O94 C66 1.256 . S
O95 C66 1.244 . S
O95 Zn67 2.053 . S
Zn96 O97 2.055 . S
Zn96 O104 2.046 . S
Zn96 N112 2.036 . S
Zn96 O124 2.053 . S
Zn96 O126 2.066 . S
O97 Zn96 2.055 . S
O97 C100 1.259 . S
C98 O126 1.256 . S
C98 O127 1.244 . S
Zn99 O101 2.046 . S
Zn99 O103 2.055 . S
Zn99 N105 2.036 . S
Zn99 O123 2.066 . S
Zn99 O127 2.053 . S
C100 O97 1.259 . S
C100 O101 1.254 . S
O101 Zn99 2.046 . S
O101 C100 1.254 . S
C102 O123 1.256 . S
C102 O124 1.244 . S
O103 Zn99 2.055 . S
O103 C125 1.259 . S
O104 Zn96 2.046 . S
O104 C125 1.254 . S
N105 Zn99 2.036 . S
N105 C106 1.298 . S
N105 N108 1.398 . S
C106 N105 1.298 . S
C106 N109 1.367 . S
C106 C119 1.481 . S
C107 N108 1.299 . S
C107 N109 1.379 . S
N108 N105 1.398 . S
N108 C107 1.299 . S
N109 C106 1.367 . S
N109 C107 1.379 . S
C110 N112 1.298 . S
C110 N114 1.367 . S
C110 C118 1.481 . S
C111 N113 1.299 . S
C111 N114 1.379 . S
N112 Zn96 2.036 . S
N112 C110 1.298 . S
N112 N113 1.398 . S
N113 C111 1.299 . S
N113 N112 1.398 . S
N114 C110 1.367 . S
N114 C111 1.379 . S
H115 C118 0.980 . S
H116 C118 0.981 . S
H117 C118 0.981 . S
C118 C110 1.481 . S
C118 H115 0.980 . S
C118 H116 0.981 . S
C118 H117 0.981 . S
C119 C106 1.481 . S
C119 H120 0.980 . S
C119 H121 0.981 . S
C119 H122 0.981 . S
H120 C119 0.980 . S
H121 C119 0.981 . S
H122 C119 0.981 . S
O123 Zn99 2.066 . S
O123 C102 1.256 . S
O124 Zn96 2.053 . S
O124 C102 1.244 . S
C125 O103 1.259 . S
C125 O104 1.254 . S
O126 Zn96 2.066 . S
O126 C98 1.256 . S
O127 C98 1.244 . S
O127 Zn99 2.053 . S
Zn128 O129 2.055 . S
Zn128 O136 2.046 . S
Zn128 N144 2.036 . S
Zn128 O156 2.053 . S
Zn128 O158 2.066 . S
O129 Zn128 2.055 . S
O129 C132 1.259 . S
C130 O158 1.256 . S
C130 O159 1.244 . S
Zn131 O133 2.046 . S
Zn131 O135 2.055 . S
Zn131 N137 2.036 . S
Zn131 O155 2.066 . S
Zn131 O159 2.053 . S
C132 O129 1.259 . S
C132 O133 1.254 . S
O133 Zn131 2.046 . S
O133 C132 1.254 . S
C134 O155 1.256 . S
C134 O156 1.244 . S
O135 Zn131 2.055 . S
O135 C157 1.259 . S
O136 Zn128 2.046 . S
O136 C157 1.254 . S
N137 Zn131 2.036 . S
N137 C138 1.298 . S
N137 N140 1.398 . S
C138 N137 1.298 . S
C138 N141 1.367 . S
C138 C151 1.481 . S
C139 N140 1.299 . S
C139 N141 1.379 . S
N140 N137 1.398 . S
N140 C139 1.299 . S
N141 C138 1.367 . S
N141 C139 1.379 . S
C142 N144 1.298 . S
C142 N146 1.367 . S
C142 C150 1.481 . S
C143 N145 1.299 . S
C143 N146 1.379 . S
N144 Zn128 2.036 . S
N144 C142 1.298 . S
N144 N145 1.398 . S
N145 C143 1.299 . S
N145 N144 1.398 . S
N146 C142 1.367 . S
N146 C143 1.379 . S
H147 C150 0.980 . S
H148 C150 0.981 . S
H149 C150 0.981 . S
C150 C142 1.481 . S
C150 H147 0.980 . S
C150 H148 0.981 . S
C150 H149 0.981 . S
C151 C138 1.481 . S
C151 H152 0.980 . S
C151 H153 0.981 . S
C151 H154 0.981 . S
H152 C151 0.980 . S
H153 C151 0.981 . S
H154 C151 0.981 . S
O155 Zn131 2.066 . S
O155 C134 1.256 . S
O156 Zn128 2.053 . S
O156 C134 1.244 . S
C157 O135 1.259 . S
C157 O136 1.254 . S
O158 Zn128 2.066 . S
O158 C130 1.256 . S
O159 C130 1.244 . S
O159 Zn131 2.053 . S
Zn160 O161 2.055 . S
Zn160 O168 2.046 . S
Zn160 N176 2.036 . S
Zn160 O188 2.053 . S
Zn160 O190 2.066 . S
O161 Zn160 2.055 . S
O161 C164 1.259 . S
C162 O190 1.256 . S
C162 O191 1.244 . S
Zn163 O165 2.046 . S
Zn163 O167 2.055 . S
Zn163 N169 2.036 . S
Zn163 O187 2.066 . S
Zn163 O191 2.053 . S
C164 O161 1.259 . S
C164 O165 1.254 . S
O165 Zn163 2.046 . S
O165 C164 1.254 . S
C166 O187 1.256 . S
C166 O188 1.244 . S
O167 Zn163 2.055 . S
O167 C189 1.259 . S
O168 Zn160 2.046 . S
O168 C189 1.254 . S
N169 Zn163 2.036 . S
N169 C170 1.298 . S
N169 N172 1.398 . S
C170 N169 1.298 . S
C170 N173 1.367 . S
C170 C183 1.481 . S
C171 N172 1.299 . S
C171 N173 1.379 . S
N172 N169 1.398 . S
N172 C171 1.299 . S
N173 C170 1.367 . S
N173 C171 1.379 . S
C174 N176 1.298 . S
C174 N178 1.367 . S
C174 C182 1.481 . S
C175 N177 1.299 . S
C175 N178 1.379 . S
N176 Zn160 2.036 . S
N176 C174 1.298 . S
N176 N177 1.398 . S
N177 C175 1.299 . S
N177 N176 1.398 . S
N178 C174 1.367 . S
N178 C175 1.379 . S
H179 C182 0.980 . S
H180 C182 0.981 . S
H181 C182 0.981 . S
C182 C174 1.481 . S
C182 H179 0.980 . S
C182 H180 0.981 . S
C182 H181 0.981 . S
C183 C170 1.481 . S
C183 H184 0.980 . S
C183 H185 0.981 . S
C183 H186 0.981 . S
H184 C183 0.980 . S
H185 C183 0.981 . S
H186 C183 0.981 . S
O187 Zn163 2.066 . S
O187 C166 1.256 . S
O188 Zn160 2.053 . S
O188 C166 1.244 . S
C189 O167 1.259 . S
C189 O168 1.254 . S
O190 Zn160 2.066 . S
O190 C162 1.256 . S
O191 C162 1.244 . S
O191 Zn163 2.053 . S
C192 C193 1.391 . S
C192 C194 1.394 1_545 S
C192 H208 0.931 . S
C193 C192 1.391 . S
C193 C197 1.376 . S
C194 C192 1.394 1_565 S
C194 C195 1.369 . S
C194 C198 1.531 1_556 S
C195 C194 1.369 . S
C195 C196 1.410 . S
C195 C203 1.503 . S
C196 C195 1.410 . S
C196 C197 1.392 1_565 S
C196 C199 1.511 . S
C197 C193 1.376 . S
C197 C196 1.392 1_545 S
C197 H209 0.929 . S
C198 C194 1.531 1_554 S
C198 H210 0.960 . S
C198 H211 0.962 1_554 S
C198 H212 0.960 . S
C199 C196 1.511 . S
C199 H213 0.961 1_565 S
C199 H214 0.961 . S
C199 H215 0.961 1_556 S
C200 C201 1.370 . S
C200 C202 1.363 . S
C200 H216 0.931 . S
C201 C200 1.370 . S
C201 C205 1.408 1_556 S
C202 C200 1.363 . S
C202 C203 1.370 . S
C202 C206 1.524 . S
C203 C195 1.503 . S
C203 C202 1.370 . S
C203 C204 1.403 1_556 S
C204 C203 1.403 1_554 S
C204 C205 1.404 . S
C204 C207 1.539 . S
C205 C201 1.408 1_554 S
C205 C204 1.404 . S
C205 H217 0.930 . S
C206 C202 1.524 . S
C206 H218 0.956 . S
C206 H219 0.961 . S
C206 H220 0.961 . S
C207 C204 1.539 . S
C207 H221 0.958 . S
C207 H222 0.961 . S
C207 H223 0.960 . S
H208 C192 0.931 . S
H209 C197 0.929 . S
H210 C198 0.960 . S
H211 C198 0.962 1_556 S
H212 C198 0.960 . S
H213 C199 0.961 1_545 S
H214 C199 0.961 . S
H215 C199 0.961 1_554 S
H216 C200 0.931 . S
H217 C205 0.930 . S
H218 C206 0.956 . S
H219 C206 0.961 . S
H220 C206 0.961 . S
H221 C207 0.958 . S
H222 C207 0.961 . S
H223 C207 0.960 . S
C224 C225 1.391 . S
C224 C226 1.394 . S
C224 H240 0.931 . S
C225 C224 1.391 . S
C225 C229 1.376 . S
C226 C224 1.394 . S
C226 C227 1.369 . S
C226 C230 1.531 . S
C227 C226 1.369 . S
C227 C228 1.410 . S
C227 C235 1.503 . S
C228 C227 1.410 . S
C228 C229 1.392 . S
C228 C231 1.511 . S
C229 C225 1.376 . S
C229 C228 1.392 . S
C229 H241 0.929 . S
C230 C226 1.531 . S
C230 H242 0.960 . S
C230 H243 0.962 . S
C230 H244 0.960 . S
C231 C228 1.511 . S
C231 H245 0.961 . S
C231 H246 0.961 . S
C231 H247 0.961 . S
C232 C233 1.370 . S
C232 C234 1.363 . S
C232 H248 0.931 . S
C233 C232 1.370 . S
C233 C237 1.408 . S
C234 C232 1.363 . S
C234 C235 1.370 . S
C234 C238 1.524 . S
C235 C227 1.503 . S
C235 C234 1.370 . S
C235 C236 1.403 . S
C236 C235 1.403 . S
C236 C237 1.404 . S
C236 C239 1.539 . S
C237 C233 1.408 . S
C237 C236 1.404 . S
C237 H249 0.930 . S
C238 C234 1.524 . S
C238 H250 0.956 . S
C238 H251 0.961 . S
C238 H252 0.961 . S
C239 C236 1.539 . S
C239 H253 0.958 . S
C239 H254 0.961 . S
C239 H255 0.960 . S
H240 C224 0.931 . S
H241 C229 0.929 . S
H242 C230 0.960 . S
H243 C230 0.962 . S
H244 C230 0.960 . S
H245 C231 0.961 . S
H246 C231 0.961 . S
H247 C231 0.961 . S
H248 C232 0.931 . S
H249 C237 0.930 . S
H250 C238 0.956 . S
H251 C238 0.961 . S
H252 C238 0.961 . S
H253 C239 0.958 . S
H254 C239 0.961 . S
H255 C239 0.960 . S
C256 C257 1.391 . S
C256 C258 1.394 1_655 S
C256 H272 0.931 . S
C257 C256 1.391 . S
C257 C261 1.376 . S
C258 C256 1.394 1_455 S
C258 C259 1.369 . S
C258 C262 1.531 . S
C259 C258 1.369 . S
C259 C260 1.410 . S
C259 C267 1.503 . S
C260 C259 1.410 . S
C260 C261 1.392 1_455 S
C260 C263 1.511 . S
C261 C257 1.376 . S
C261 C260 1.392 1_655 S
C261 H273 0.929 . S
C262 C258 1.531 . S
C262 H274 0.960 . S
C262 H275 0.962 . S
C262 H276 0.960 . S
C263 C260 1.511 . S
C263 H277 0.961 . S
C263 H278 0.961 . S
C263 H279 0.961 . S
C264 C265 1.370 . S
C264 C266 1.363 . S
C264 H280 0.931 . S
C265 C264 1.370 . S
C265 C269 1.408 . S
C266 C264 1.363 . S
C266 C267 1.370 . S
C266 C270 1.524 . S
C267 C259 1.503 . S
C267 C266 1.370 . S
C267 C268 1.403 . S
C268 C267 1.403 . S
C268 C269 1.404 . S
C268 C271 1.539 . S
C269 C265 1.408 . S
C269 C268 1.404 . S
C269 H281 0.930 . S
C270 C266 1.524 . S
C270 H282 0.956 . S
C270 H283 0.961 . S
C270 H284 0.961 . S
C271 C268 1.539 . S
C271 H285 0.958 . S
C271 H286 0.961 . S
C271 H287 0.960 . S
H272 C256 0.931 . S
H273 C261 0.929 . S
H274 C262 0.960 . S
H275 C262 0.962 . S
H276 C262 0.960 . S
H277 C263 0.961 . S
H278 C263 0.961 . S
H279 C263 0.961 . S
H280 C264 0.931 . S
H281 C269 0.930 . S
H282 C270 0.956 . S
H283 C270 0.961 . S
H284 C270 0.961 . S
H285 C271 0.958 . S
H286 C271 0.961 . S
H287 C271 0.960 . S
C288 C289 1.391 . S
C288 C290 1.394 . S
C288 H304 0.931 . S
C289 C288 1.391 . S
C289 C293 1.376 . S
C290 C288 1.394 . S
C290 C291 1.369 . S
C290 C294 1.531 . S
C291 C290 1.369 . S
C291 C292 1.410 . S
C291 C299 1.503 . S
C292 C291 1.410 . S
C292 C293 1.392 . S
C292 C295 1.511 . S
C293 C289 1.376 . S
C293 C292 1.392 . S
C293 H305 0.929 . S
C294 C290 1.531 . S
C294 H306 0.960 . S
C294 H307 0.962 . S
C294 H308 0.960 . S
C295 C292 1.511 . S
C295 H309 0.961 . S
C295 H310 0.961 . S
C295 H311 0.961 . S
C296 C297 1.370 . S
C296 C298 1.363 1_565 S
C296 H312 0.931 . S
C297 C296 1.370 . S
C297 C301 1.408 . S
C298 C296 1.363 1_545 S
C298 C299 1.370 . S
C298 C302 1.524 . S
C299 C291 1.503 . S
C299 C298 1.370 . S
C299 C300 1.403 . S
C300 C299 1.403 . S
C300 C301 1.404 1_545 S
C300 C303 1.539 . S
C301 C297 1.408 . S
C301 C300 1.404 1_565 S
C301 H313 0.930 . S
C302 C298 1.524 . S
C302 H314 0.956 . S
C302 H315 0.961 . S
C302 H316 0.961 . S
C303 C300 1.539 . S
C303 H317 0.958 . S
C303 H318 0.961 1_545 S
C303 H319 0.960 . S
H304 C288 0.931 . S
H305 C293 0.929 . S
H306 C294 0.960 . S
H307 C294 0.962 . S
H308 C294 0.960 . S
H309 C295 0.961 . S
H310 C295 0.961 . S
H311 C295 0.961 . S
H312 C296 0.931 . S
H313 C301 0.930 . S
H314 C302 0.956 . S
H315 C302 0.961 . S
H316 C302 0.961 . S
H317 C303 0.958 . S
H318 C303 0.961 1_565 S
H319 C303 0.960 . S
C320 C321 1.391 . S
C320 C322 1.394 . S
C320 H336 0.931 . S
C321 C320 1.391 . S
C321 C325 1.376 . S
C322 C320 1.394 . S
C322 C323 1.369 . S
C322 C326 1.531 . S
C323 C322 1.369 . S
C323 C324 1.410 . S
C323 C331 1.503 . S
C324 C323 1.410 . S
C324 C325 1.392 . S
C324 C327 1.511 . S
C325 C321 1.376 . S
C325 C324 1.392 . S
C325 H337 0.929 . S
C326 C322 1.531 . S
C326 H338 0.960 . S
C326 H339 0.962 . S
C326 H340 0.960 . S
C327 C324 1.511 . S
C327 H341 0.961 . S
C327 H342 0.961 . S
C327 H343 0.961 . S
C328 C329 1.370 . S
C328 C330 1.363 . S
C328 H344 0.931 . S
C329 C328 1.370 . S
C329 C333 1.408 . S
C330 C328 1.363 . S
C330 C331 1.370 . S
C330 C334 1.524 . S
C331 C323 1.503 . S
C331 C330 1.370 . S
C331 C332 1.403 . S
C332 C331 1.403 . S
C332 C333 1.404 . S
C332 C335 1.539 . S
C333 C329 1.408 . S
C333 C332 1.404 . S
C333 H345 0.930 . S
C334 C330 1.524 . S
C334 H346 0.956 . S
C334 H347 0.961 . S
C334 H348 0.961 . S
C335 C332 1.539 . S
C335 H349 0.958 . S
C335 H350 0.961 . S
C335 H351 0.960 . S
H336 C320 0.931 . S
H337 C325 0.929 . S
H338 C326 0.960 . S
H339 C326 0.962 . S
H340 C326 0.960 . S
H341 C327 0.961 . S
H342 C327 0.961 . S
H343 C327 0.961 . S
H344 C328 0.931 . S
H345 C333 0.930 . S
H346 C334 0.956 . S
H347 C334 0.961 . S
H348 C334 0.961 . S
H349 C335 0.958 . S
H350 C335 0.961 . S
H351 C335 0.960 . S
C352 C353 1.391 . S
C352 C354 1.394 1_455 S
C352 H368 0.931 . S
C353 C352 1.391 . S
C353 C357 1.376 . S
C354 C352 1.394 1_655 S
C354 C355 1.369 . S
C354 C358 1.531 . S
C355 C354 1.369 . S
C355 C356 1.410 . S
C355 C363 1.503 . S
C356 C355 1.410 . S
C356 C357 1.392 1_655 S
C356 C359 1.511 . S
C357 C353 1.376 . S
C357 C356 1.392 1_455 S
C357 H369 0.929 . S
C358 C354 1.531 . S
C358 H370 0.960 . S
C358 H371 0.962 . S
C358 H372 0.960 . S
C359 C356 1.511 . S
C359 H373 0.961 . S
C359 H374 0.961 . S
C359 H375 0.961 . S
C360 C361 1.370 . S
C360 C362 1.363 . S
C360 H376 0.931 . S
C361 C360 1.370 . S
C361 C365 1.408 . S
C362 C360 1.363 . S
C362 C363 1.370 . S
C362 C366 1.524 . S
C363 C355 1.503 . S
C363 C362 1.370 . S
C363 C364 1.403 . S
C364 C363 1.403 . S
C364 C365 1.404 . S
C364 C367 1.539 . S
C365 C361 1.408 . S
C365 C364 1.404 . S
C365 H377 0.930 . S
C366 C362 1.524 . S
C366 H378 0.956 . S
C366 H379 0.961 . S
C366 H380 0.961 . S
C367 C364 1.539 . S
C367 H381 0.958 . S
C367 H382 0.961 . S
C367 H383 0.960 . S
H368 C352 0.931 . S
H369 C357 0.929 . S
H370 C358 0.960 . S
H371 C358 0.962 . S
H372 C358 0.960 . S
H373 C359 0.961 . S
H374 C359 0.961 . S
H375 C359 0.961 . S
H376 C360 0.931 . S
H377 C365 0.930 . S
H378 C366 0.956 . S
H379 C366 0.961 . S
H380 C366 0.961 . S
H381 C367 0.958 . S
H382 C367 0.961 . S
H383 C367 0.960 . S
C384 C385 1.391 . S
C384 C386 1.394 . S
C384 H400 0.931 . S
C385 C384 1.391 . S
C385 C389 1.376 . S
C386 C384 1.394 . S
C386 C387 1.369 . S
C386 C390 1.531 1_545 S
C387 C386 1.369 . S
C387 C388 1.410 . S
C387 C395 1.503 . S
C388 C387 1.410 . S
C388 C389 1.392 . S
C388 C391 1.511 . S
C389 C385 1.376 . S
C389 C388 1.392 . S
C389 H401 0.929 . S
C390 C386 1.531 1_565 S
C390 H402 0.960 . S
C390 H403 0.962 . S
C390 H404 0.960 . S
C391 C388 1.511 . S
C391 H405 0.961 . S
C391 H406 0.961 . S
C391 H407 0.961 . S
C392 C393 1.370 . S
C392 C394 1.368 . S
C392 H408 0.931 . S
C393 C392 1.370 . S
C393 C397 1.408 . S
C394 C392 1.368 . S
C394 C395 1.373 1_565 S
C394 C398 1.516 1_565 S
C395 C387 1.503 . S
C395 C394 1.373 1_545 S
C395 C396 1.403 1_545 S
C396 C395 1.403 1_565 S
C396 C397 1.404 . S
C396 C399 1.539 . S
C397 C393 1.408 . S
C397 C396 1.404 . S
C397 H409 0.930 . S
C398 C394 1.516 1_545 S
C398 H410 0.956 . S
C398 H411 0.961 . S
C398 H412 0.961 . S
C399 C396 1.539 . S
C399 H413 0.958 . S
C399 H414 0.961 . S
C399 H415 0.960 1_565 S
H400 C384 0.931 . S
H401 C389 0.929 . S
H402 C390 0.960 . S
H403 C390 0.962 . S
H404 C390 0.960 . S
H405 C391 0.961 . S
H406 C391 0.961 . S
H407 C391 0.961 . S
H408 C392 0.931 . S
H409 C397 0.930 . S
H410 C398 0.956 . S
H411 C398 0.961 . S
H412 C398 0.961 . S
H413 C399 0.958 . S
H414 C399 0.961 . S
H415 C399 0.960 1_545 S
C416 C417 1.391 . S
C416 C418 1.394 . S
C416 H432 0.931 . S
C417 C416 1.391 . S
C417 C421 1.376 . S
C418 C416 1.394 . S
C418 C419 1.369 . S
C418 C422 1.531 . S
C419 C418 1.369 . S
C419 C420 1.410 . S
C419 C427 1.503 . S
C420 C419 1.410 . S
C420 C421 1.392 . S
C420 C423 1.511 . S
C421 C417 1.376 . S
C421 C420 1.392 . S
C421 H433 0.929 . S
C422 C418 1.531 . S
C422 H434 0.960 . S
C422 H435 0.962 . S
C422 H436 0.960 . S
C423 C420 1.511 . S
C423 H437 0.961 . S
C423 H438 0.961 . S
C423 H439 0.961 . S
C424 C425 1.370 . S
C424 C426 1.363 . S
C424 H440 0.931 . S
C425 C424 1.370 . S
C425 C429 1.408 . S
C426 C424 1.363 . S
C426 C427 1.370 . S
C426 C430 1.524 . S
C427 C419 1.503 . S
C427 C426 1.370 . S
C427 C428 1.403 . S
C428 C427 1.403 . S
C428 C429 1.404 . S
C428 C431 1.539 . S
C429 C425 1.408 . S
C429 C428 1.404 . S
C429 H441 0.930 . S
C430 C426 1.524 . S
C430 H442 0.956 . S
C430 H443 0.961 . S
C430 H444 0.961 . S
C431 C428 1.539 . S
C431 H445 0.958 . S
C431 H446 0.961 . S
C431 H447 0.960 . S
H432 C416 0.931 . S
H433 C421 0.929 . S
H434 C422 0.960 . S
H435 C422 0.962 . S
H436 C422 0.960 . S
H437 C423 0.961 . S
H438 C423 0.961 . S
H439 C423 0.961 . S
H440 C424 0.931 . S
H441 C429 0.930 . S
H442 C430 0.956 . S
H443 C430 0.961 . S
H444 C430 0.961 . S
H445 C431 0.958 . S
H446 C431 0.961 . S
H447 C431 0.960 . S
C448 C449 1.391 . S
C448 C450 1.394 . S
C448 H464 0.931 . S
C449 C448 1.391 . S
C449 C453 1.376 . S
C450 C448 1.394 . S
C450 C451 1.369 1_455 S
C450 C454 1.531 . S
C451 C450 1.369 1_655 S
C451 C452 1.410 . S
C451 C459 1.503 . S
C452 C451 1.410 . S
C452 C453 1.392 1_655 S
C452 C455 1.511 . S
C453 C449 1.376 . S
C453 C452 1.392 1_455 S
C453 H465 0.929 1_455 S
C454 C450 1.531 . S
C454 H466 0.960 . S
C454 H467 0.962 . S
C454 H468 0.960 . S
C455 C452 1.511 . S
C455 H469 0.961 . S
C455 H470 0.961 . S
C455 H471 0.961 . S
C456 C457 1.370 . S
C456 C458 1.363 . S
C456 H472 0.931 . S
C457 C456 1.370 . S
C457 C461 1.408 . S
C458 C456 1.363 . S
C458 C459 1.370 . S
C458 C462 1.524 1_655 S
C459 C451 1.503 . S
C459 C458 1.370 . S
C459 C460 1.403 . S
C460 C459 1.403 . S
C460 C461 1.404 . S
C460 C463 1.539 . S
C461 C457 1.408 . S
C461 C460 1.404 . S
C461 H473 0.930 . S
C462 C458 1.524 1_455 S
C462 H474 0.956 . S
C462 H475 0.961 . S
C462 H476 0.961 . S
C463 C460 1.539 . S
C463 H477 0.958 . S
C463 H478 0.961 . S
C463 H479 0.960 . S
H464 C448 0.931 . S
H465 C453 0.929 1_655 S
H466 C454 0.960 . S
H467 C454 0.962 . S
H468 C454 0.960 . S
H469 C455 0.961 . S
H470 C455 0.961 . S
H471 C455 0.961 . S
H472 C456 0.931 . S
H473 C461 0.930 . S
H474 C462 0.956 . S
H475 C462 0.961 . S
H476 C462 0.961 . S
H477 C463 0.958 . S
H478 C463 0.961 . S
H479 C463 0.960 . S
C480 C481 1.391 . S
C480 C482 1.394 . S
C480 H496 0.931 . S
C481 C480 1.391 . S
C481 C485 1.376 . S
C482 C480 1.394 . S
C482 C483 1.369 . S
C482 C486 1.531 1_565 S
C483 C482 1.369 . S
C483 C484 1.410 . S
C483 C491 1.492 1_565 S
C484 C483 1.410 . S
C484 C485 1.392 . S
C484 C487 1.511 . S
C485 C481 1.376 . S
C485 C484 1.392 . S
C485 H497 0.929 . S
C486 C482 1.531 1_545 S
C486 H498 0.960 . S
C486 H499 0.962 . S
C486 H500 0.960 . S
C487 C484 1.511 . S
C487 H501 0.961 . S
C487 H502 0.961 . S
C487 H503 0.961 . S
C488 C489 1.370 . S
C488 C490 1.363 1_545 S
C488 H504 0.931 . S
C489 C488 1.370 . S
C489 C493 1.408 . S
C490 C488 1.363 1_565 S
C490 C491 1.360 1_565 S
C490 C494 1.524 . S
C491 C483 1.492 1_545 S
C491 C490 1.360 1_545 S
C491 C492 1.425 . S
C492 C491 1.425 . S
C492 C493 1.404 . S
C492 C495 1.539 . S
C493 C489 1.408 . S
C493 C492 1.404 . S
C493 H505 0.930 . S
C494 C490 1.524 . S
C494 H506 0.956 . S
C494 H507 0.961 . S
C494 H508 0.961 . S
C495 C492 1.539 . S
C495 H509 0.958 . S
C495 H510 0.961 . S
C495 H511 0.960 . S
H496 C480 0.931 . S
H497 C485 0.929 . S
H498 C486 0.960 . S
H499 C486 0.962 . S
H500 C486 0.960 . S
H501 C487 0.961 . S
H502 C487 0.961 . S
H503 C487 0.961 . S
H504 C488 0.931 . S
H505 C493 0.930 . S
H506 C494 0.956 . S
H507 C494 0.961 . S
H508 C494 0.961 . S
H509 C495 0.958 . S
H510 C495 0.961 . S
H511 C495 0.960 . S
C512 C513 1.391 . S
C512 C514 1.394 1_554 S
C512 H528 0.931 . S
C513 C512 1.391 . S
C513 C517 1.376 1_554 S
C514 C512 1.394 1_556 S
C514 C515 1.369 . S
C514 C518 1.531 . S
C515 C514 1.369 . S
C515 C516 1.410 . S
C515 C523 1.503 . S
C516 C515 1.410 . S
C516 C517 1.392 . S
C516 C519 1.511 . S
C517 C513 1.376 1_556 S
C517 C516 1.392 . S
C517 H529 0.924 1_556 S
C518 C514 1.531 . S
C518 H530 0.960 . S
C518 H531 0.962 . S
C518 H532 0.960 . S
C519 C516 1.511 . S
C519 H533 0.961 . S
C519 H534 0.961 . S
C519 H535 0.961 . S
C520 C521 1.370 . S
C520 C522 1.363 . S
C520 H536 0.931 . S
C521 C520 1.370 . S
C521 C525 1.408 . S
C522 C520 1.363 . S
C522 C523 1.370 . S
C522 C526 1.524 . S
C523 C515 1.503 . S
C523 C522 1.370 . S
C523 C524 1.403 . S
C524 C523 1.403 . S
C524 C525 1.404 . S
C524 C527 1.539 . S
C525 C521 1.408 . S
C525 C524 1.404 . S
C525 H537 0.930 . S
C526 C522 1.524 . S
C526 H538 0.956 . S
C526 H539 0.961 . S
C526 H540 0.961 . S
C527 C524 1.539 . S
C527 H541 0.958 . S
C527 H542 0.961 . S
C527 H543 0.960 . S
H528 C512 0.931 . S
H529 C517 0.924 1_554 S
H530 C518 0.960 . S
H531 C518 0.962 . S
H532 C518 0.960 . S
H533 C519 0.961 . S
H534 C519 0.961 . S
H535 C519 0.961 . S
H536 C520 0.931 . S
H537 C525 0.930 . S
H538 C526 0.956 . S
H539 C526 0.961 . S
H540 C526 0.961 . S
H541 C527 0.958 . S
H542 C527 0.961 . S
H543 C527 0.960 . S
C544 C545 1.391 . S
C544 C546 1.394 1_556 S
C544 H560 0.931 . S
C545 C544 1.391 . S
C545 C549 1.376 1_556 S
C546 C544 1.394 1_554 S
C546 C547 1.369 . S
C546 C550 1.531 1_455 S
C547 C546 1.369 . S
C547 C548 1.410 . S
C547 C555 1.503 . S
C548 C547 1.410 . S
C548 C549 1.392 . S
C548 C551 1.511 . S
C549 C545 1.376 1_554 S
C549 C548 1.392 . S
C549 H561 0.929 . S
C550 C546 1.531 1_655 S
C550 H562 0.960 . S
C550 H563 0.962 . S
C550 H564 0.960 1_554 S
C551 C548 1.511 . S
C551 H565 0.961 . S
C551 H566 0.961 . S
C551 H567 0.961 . S
C552 C553 1.370 . S
C552 C554 1.363 . S
C552 H568 0.931 . S
C553 C552 1.370 . S
C553 C557 1.408 . S
C554 C552 1.363 . S
C554 C555 1.370 1_655 S
C554 C558 1.524 . S
C555 C547 1.503 . S
C555 C554 1.370 1_455 S
C555 C556 1.403 1_455 S
C556 C555 1.403 1_655 S
C556 C557 1.404 . S
C556 C559 1.539 1_655 S
C557 C553 1.408 . S
C557 C556 1.404 . S
C557 H569 0.930 . S
C558 C554 1.524 . S
C558 H570 0.956 . S
C558 H571 0.961 1_655 S
C558 H572 0.961 . S
C559 C556 1.539 1_455 S
C559 H573 0.958 1_455 S
C559 H574 0.961 . S
C559 H575 0.960 . S
H560 C544 0.931 . S
H561 C549 0.929 . S
H562 C550 0.960 . S
H563 C550 0.962 . S
H564 C550 0.960 1_556 S
H565 C551 0.961 . S
H566 C551 0.961 . S
H567 C551 0.961 . S
H568 C552 0.931 . S
H569 C557 0.930 . S
H570 C558 0.956 . S
H571 C558 0.961 1_455 S
H572 C558 0.961 . S
H573 C559 0.958 1_655 S
H574 C559 0.961 . S
H575 C559 0.960 . S
C576 C577 1.391 . S
C576 C578 1.394 . S
C576 H592 0.931 . S
C577 C576 1.391 . S
C577 C581 1.376 . S
C578 C576 1.394 . S
C578 C579 1.369 . S
C578 C582 1.531 . S
C579 C578 1.369 . S
C579 C580 1.410 . S
C579 C587 1.503 . S
C580 C579 1.410 . S
C580 C581 1.392 . S
C580 C583 1.511 . S
C581 C577 1.376 . S
C581 C580 1.392 . S
C581 H593 0.929 . S
C582 C578 1.531 . S
C582 H594 0.960 . S
C582 H595 0.962 . S
C582 H596 0.960 . S
C583 C580 1.511 . S
C583 H597 0.961 . S
C583 H598 0.961 . S
C583 H599 0.961 . S
C584 C585 1.370 . S
C584 C586 1.363 . S
C584 H600 0.931 . S
C585 C584 1.370 . S
C585 C589 1.408 . S
C586 C584 1.363 . S
C586 C587 1.370 . S
C586 C590 1.524 . S
C587 C579 1.503 . S
C587 C586 1.370 . S
C587 C588 1.403 . S
C588 C587 1.403 . S
C588 C589 1.404 . S
C588 C591 1.539 . S
C589 C585 1.408 . S
C589 C588 1.404 . S
C589 H601 0.930 . S
C590 C586 1.524 . S
C590 H602 0.956 . S
C590 H603 0.961 . S
C590 H604 0.961 . S
C591 C588 1.539 . S
C591 H605 0.958 . S
C591 H606 0.961 . S
C591 H607 0.960 . S
H592 C576 0.931 . S
H593 C581 0.929 . S
H594 C582 0.960 . S
H595 C582 0.962 . S
H596 C582 0.960 . S
H597 C583 0.961 . S
H598 C583 0.961 . S
H599 C583 0.961 . S
H600 C584 0.931 . S
H601 C589 0.930 . S
H602 C590 0.956 . S
H603 C590 0.961 . S
H604 C590 0.961 . S
H605 C591 0.958 . S
H606 C591 0.961 . S
H607 C591 0.960 . S
C608 C609 1.391 . S
C608 C610 1.394 1_556 S
C608 H624 0.931 . S
C609 C608 1.391 . S
C609 C613 1.376 . S
C610 C608 1.394 1_554 S
C610 C611 1.369 1_554 S
C610 C614 1.531 . S
C611 C610 1.369 1_556 S
C611 C612 1.410 . S
C611 C619 1.503 1_556 S
C612 C611 1.410 . S
C612 C613 1.392 . S
C612 C615 1.511 . S
C613 C609 1.376 . S
C613 C612 1.392 . S
C613 H625 0.929 . S
C614 C610 1.531 . S
C614 H626 0.960 . S
C614 H627 0.962 . S
C614 H628 0.960 . S
C615 C612 1.511 . S
C615 H629 0.961 . S
C615 H630 0.961 . S
C615 H631 0.961 . S
C616 C617 1.370 . S
C616 C618 1.363 . S
C616 H632 0.931 . S
C617 C616 1.370 . S
C617 C621 1.408 . S
C618 C616 1.363 . S
C618 C619 1.370 . S
C618 C622 1.524 . S
C619 C611 1.503 1_554 S
C619 C618 1.370 . S
C619 C620 1.403 . S
C620 C619 1.403 . S
C620 C621 1.404 . S
C620 C623 1.539 . S
C621 C617 1.408 . S
C621 C620 1.404 . S
C621 H633 0.930 . S
C622 C618 1.524 . S
C622 H634 0.956 . S
C622 H635 0.961 1_554 S
C622 H636 0.961 . S
C623 C620 1.539 . S
C623 H637 0.958 . S
C623 H638 0.961 . S
C623 H639 0.960 1_554 S
H624 C608 0.931 . S
H625 C613 0.929 . S
H626 C614 0.960 . S
H627 C614 0.962 . S
H628 C614 0.960 . S
H629 C615 0.961 . S
H630 C615 0.961 . S
H631 C615 0.961 . S
H632 C616 0.931 . S
H633 C621 0.930 . S
H634 C622 0.956 . S
H635 C622 0.961 1_556 S
H636 C622 0.961 . S
H637 C623 0.958 . S
H638 C623 0.961 . S
H639 C623 0.960 1_556 S
C640 C641 1.391 . S
C640 C642 1.394 . S
C640 H656 0.931 . S
C641 C640 1.391 . S
C641 C645 1.376 . S
C642 C640 1.394 . S
C642 C643 1.369 . S
C642 C646 1.531 . S
C643 C642 1.369 . S
C643 C644 1.410 . S
C643 C651 1.503 . S
C644 C643 1.410 . S
C644 C645 1.392 . S
C644 C647 1.511 . S
C645 C641 1.376 . S
C645 C644 1.392 . S
C645 H657 0.929 . S
C646 C642 1.531 . S
C646 H658 0.960 . S
C646 H659 0.962 . S
C646 H660 0.960 . S
C647 C644 1.511 . S
C647 H661 0.961 . S
C647 H662 0.961 . S
C647 H663 0.961 . S
C648 C649 1.370 . S
C648 C650 1.363 . S
C648 H664 0.931 . S
C649 C648 1.370 . S
C649 C653 1.408 . S
C650 C648 1.363 . S
C650 C651 1.370 . S
C650 C654 1.524 . S
C651 C643 1.503 . S
C651 C650 1.370 . S
C651 C652 1.403 . S
C652 C651 1.403 . S
C652 C653 1.404 . S
C652 C655 1.539 . S
C653 C649 1.408 . S
C653 C652 1.404 . S
C653 H665 0.930 . S
C654 C650 1.524 . S
C654 H666 0.956 . S
C654 H667 0.961 . S
C654 H668 0.961 . S
C655 C652 1.539 . S
C655 H669 0.958 . S
C655 H670 0.961 . S
C655 H671 0.960 . S
H656 C640 0.931 . S
H657 C645 0.929 . S
H658 C646 0.960 . S
H659 C646 0.962 . S
H660 C646 0.960 . S
H661 C647 0.961 . S
H662 C647 0.961 . S
H663 C647 0.961 . S
H664 C648 0.931 . S
H665 C653 0.930 . S
H666 C654 0.956 . S
H667 C654 0.961 . S
H668 C654 0.961 . S
H669 C655 0.958 . S
H670 C655 0.961 . S
H671 C655 0.960 . S
C672 C673 1.391 . S
C672 C674 1.394 . S
C672 H688 0.931 . S
C673 C672 1.391 . S
C673 C677 1.376 . S
C674 C672 1.394 . S
C674 C675 1.369 . S
C674 C678 1.531 . S
C675 C674 1.369 . S
C675 C676 1.410 . S
C675 C683 1.503 . S
C676 C675 1.410 . S
C676 C677 1.392 . S
C676 C679 1.511 . S
C677 C673 1.376 . S
C677 C676 1.392 . S
C677 H689 0.929 . S
C678 C674 1.531 . S
C678 H690 0.960 . S
C678 H691 0.962 . S
C678 H692 0.960 . S
C679 C676 1.511 . S
C679 H693 0.961 . S
C679 H694 0.961 . S
C679 H695 0.961 . S
C680 C681 1.370 . S
C680 C682 1.363 . S
C680 H696 0.931 . S
C681 C680 1.370 . S
C681 C685 1.408 . S
C682 C680 1.363 . S
C682 C683 1.370 . S
C682 C686 1.524 . S
C683 C675 1.503 . S
C683 C682 1.370 . S
C683 C684 1.403 . S
C684 C683 1.403 . S
C684 C685 1.404 . S
C684 C687 1.539 . S
C685 C681 1.408 . S
C685 C684 1.404 . S
C685 H697 0.930 . S
C686 C682 1.524 . S
C686 H698 0.956 . S
C686 H699 0.961 . S
C686 H700 0.961 . S
C687 C684 1.539 . S
C687 H701 0.958 . S
C687 H702 0.961 . S
C687 H703 0.960 . S
H688 C672 0.931 . S
H689 C677 0.929 . S
H690 C678 0.960 . S
H691 C678 0.962 . S
H692 C678 0.960 . S
H693 C679 0.961 . S
H694 C679 0.961 . S
H695 C679 0.961 . S
H696 C680 0.931 . S
H697 C685 0.930 . S
H698 C686 0.956 . S
H699 C686 0.961 . S
H700 C686 0.961 . S
H701 C687 0.958 . S
H702 C687 0.961 . S
H703 C687 0.960 . S
C704 C705 1.391 . S
C704 C706 1.394 . S
C704 H720 0.931 . S
C705 C704 1.391 . S
C705 C709 1.376 . S
C706 C704 1.394 . S
C706 C707 1.369 . S
C706 C710 1.531 . S
C707 C706 1.369 . S
C707 C708 1.410 . S
C707 C715 1.503 . S
C708 C707 1.410 . S
C708 C709 1.392 . S
C708 C711 1.511 . S
C709 C705 1.376 . S
C709 C708 1.392 . S
C709 H721 0.929 . S
C710 C706 1.531 . S
C710 H722 0.960 . S
C710 H723 0.962 . S
C710 H724 0.960 . S
C711 C708 1.511 . S
C711 H725 0.961 . S
C711 H726 0.961 . S
C711 H727 0.961 . S
C712 C713 1.370 . S
C712 C714 1.363 . S
C712 H728 0.931 . S
C713 C712 1.370 . S
C713 C717 1.408 . S
C714 C712 1.363 . S
C714 C715 1.370 . S
C714 C718 1.524 . S
C715 C707 1.503 . S
C715 C714 1.370 . S
C715 C716 1.403 . S
C716 C715 1.403 . S
C716 C717 1.404 . S
C716 C719 1.539 . S
C717 C713 1.408 . S
C717 C716 1.404 . S
C717 H729 0.930 . S
C718 C714 1.524 . S
C718 H730 0.956 . S
C718 H731 0.961 . S
C718 H732 0.961 . S
C719 C716 1.539 . S
C719 H733 0.958 . S
C719 H734 0.961 . S
C719 H735 0.960 . S
H720 C704 0.931 . S
H721 C709 0.929 . S
H722 C710 0.960 . S
H723 C710 0.962 . S
H724 C710 0.960 . S
H725 C711 0.961 . S
H726 C711 0.961 . S
H727 C711 0.961 . S
H728 C712 0.931 . S
H729 C717 0.930 . S
H730 C718 0.956 . S
H731 C718 0.961 . S
H732 C718 0.961 . S
H733 C719 0.958 . S
H734 C719 0.961 . S
H735 C719 0.960 . S
C736 C737 1.391 . S
C736 C738 1.394 . S
C736 H752 0.931 . S
C737 C736 1.391 . S
C737 C741 1.376 . S
C738 C736 1.394 . S
C738 C739 1.369 . S
C738 C742 1.531 . S
C739 C738 1.369 . S
C739 C740 1.410 . S
C739 C747 1.503 . S
C740 C739 1.410 . S
C740 C741 1.392 . S
C740 C743 1.511 . S
C741 C737 1.376 . S
C741 C740 1.392 . S
C741 H753 0.929 . S
C742 C738 1.531 . S
C742 H754 0.960 . S
C742 H755 0.962 . S
C742 H756 0.960 . S
C743 C740 1.511 . S
C743 H757 0.961 . S
C743 H758 0.961 . S
C743 H759 0.961 . S
C744 C745 1.370 . S
C744 C746 1.363 . S
C744 H760 0.931 . S
C745 C744 1.370 . S
C745 C749 1.408 . S
C746 C744 1.363 . S
C746 C747 1.370 . S
C746 C750 1.524 . S
C747 C739 1.503 . S
C747 C746 1.370 . S
C747 C748 1.403 . S
C748 C747 1.403 . S
C748 C749 1.404 . S
C748 C751 1.539 . S
C749 C745 1.408 . S
C749 C748 1.404 . S
C749 H761 0.930 . S
C750 C746 1.524 . S
C750 H762 0.956 . S
C750 H763 0.961 . S
C750 H764 0.961 . S
C751 C748 1.539 . S
C751 H765 0.958 . S
C751 H766 0.961 . S
C751 H767 0.960 . S
H752 C736 0.931 . S
H753 C741 0.929 . S
H754 C742 0.960 . S
H755 C742 0.962 . S
H756 C742 0.960 . S
H757 C743 0.961 . S
H758 C743 0.961 . S
H759 C743 0.961 . S
H760 C744 0.931 . S
H761 C749 0.930 . S
H762 C750 0.956 . S
H763 C750 0.961 . S
H764 C750 0.961 . S
H765 C751 0.958 . S
H766 C751 0.961 . S
H767 C751 0.960 . S
C193 C2 1.301 . S
C201 N173 1.349 . S
C225 C34 1.313 . S
C233 N13 1.346 . S
C257 C66 1.277 . S
C265 N45 1.356 . S
C289 N77 1.317 . S
C297 C98 1.331 . S
C321 N109 1.337 . S
C329 C130 1.319 . S
C353 C162 1.340 . S
C361 N141 1.338 . S
C385 C4 1.085 . S
C393 N114 1.062 . S
C417 C36 1.057 . S
C425 N146 1.080 . S
C449 N178 1.113 . S
C457 C68 1.079 . S
C481 C100 1.097 . S
C489 N18 1.057 . S
C513 N50 1.031 . S
C521 C132 1.095 . S
C545 C164 1.072 . S
C553 N82 1.069 . S
C577 C6 1.632 . S
C585 C157 1.542 . S
C609 C189 1.526 . S
C617 C38 1.631 . S
C641 C29 1.577 . S
C649 C70 1.627 . S
C673 C102 1.618 . S
C681 C61 1.547 . S
C705 C93 1.531 . S
C713 C134 1.624 . S
C737 C125 1.549 . S
C745 C166 1.631 . S
