# Generated by pormake.
# Topology sxb, (6)-cn, num edge types: 1
# Building blocks:
#     Node 0, Type 0, BuildingBlock: FUNLAD_clean_sbu_0, # of connection points: 6
#     Node 1, Type 0, BuildingBlock: FUNLAD_clean_sbu_0, # of connection points: 6
#     Node 2, Type 0, BuildingBlock: FUNLAD_clean_sbu_0, # of connection points: 6
#     Node 3, Type 0, BuildingBlock: FUNLAD_clean_sbu_0, # of connection points: 6
#     Edge 4, Type (0, 0), BuildingBlock: FUNLAD_clean_linker_1, # of connection points: 2
#     Edge 5, Type (0, 0), BuildingBlock: FUNLAD_clean_linker_1, # of connection points: 2
#     Edge 6, Type (0, 0), BuildingBlock: FUNLAD_clean_linker_1, # of connection points: 2
#     Edge 7, Type (0, 0), BuildingBlock: FUNLAD_clean_linker_1, # of connection points: 2
#     Edge 8, Type (0, 0), BuildingBlock: FUNLAD_clean_linker_1, # of connection points: 2
#     Edge 9, Type (0, 0), BuildingBlock: FUNLAD_clean_linker_1, # of connection points: 2
#     Edge 10, Type (0, 0), BuildingBlock: FUNLAD_clean_linker_1, # of connection points: 2
#     Edge 11, Type (0, 0), BuildingBlock: FUNLAD_clean_linker_1, # of connection points: 2
#     Edge 12, Type (0, 0), BuildingBlock: FUNLAD_clean_linker_1, # of connection points: 2
#     Edge 13, Type (0, 0), BuildingBlock: FUNLAD_clean_linker_1, # of connection points: 2
#     Edge 14, Type (0, 0), BuildingBlock: FUNLAD_clean_linker_1, # of connection points: 2
#     Edge 15, Type (0, 0), BuildingBlock: FUNLAD_clean_linker_1, # of connection points: 2
# Relax obj value: 0.111
# Max RMSD: 0.152
# Mean RMSD: 0.152
data_MOF--net-sxb--node1-FUNLAD_clean_sbu_0--edge1-FUNLAD_clean_linker_1
_symmetry_space_group_name_H-M    P1
_symmetry_Int_Tables_number       1
_symmetry_cell_setting            triclinic
loop_
_symmetry_equiv_pos_as_xyz
'x, y, z'
_cell_length_a     14.981026
_cell_length_b     27.837012
_cell_length_c     44.481596
_cell_angle_alpha  89.835042
_cell_angle_beta   92.237432
_cell_angle_gamma 89.786332
loop_
_atom_site_label
_atom_site_type_symbol
_atom_site_fract_x
_atom_site_fract_y
_atom_site_fract_z
_atom_type_partial_charge
C0 C 0.16055 0.04501 0.02912 0.0
N1 N 0.00458 0.0134 0.95263 0.0
C2 C 0.08152 0.99944 0.93987 0.0
C3 C 0.08774 0.99962 0.90866 0.0
C4 C 0.01393 0.01373 0.89035 0.0
C5 C 0.9357 0.02884 0.90412 0.0
C6 C 0.93252 0.02831 0.93546 0.0
Zn7 Zn -0.00312 0.01062 0.99835 0.0
C8 C 0.07074 0.91902 0.02336 0.0
N9 N -0.01906 0.00289 0.0938 0.0
C10 C 0.0081 0.04069 0.11113 0.0
C11 C 0.95076 0.96172 0.10636 0.0
C12 C 0.94749 0.95732 0.13754 0.0
C13 C -0.02524 0.99568 0.15603 0.0
C14 C 0.00577 0.03787 0.14245 0.0
Zn15 Zn -0.01181 0.00671 0.04817 0.0
O16 O 0.12226 0.0406 1.00336 0.0
C17 C 0.91692 0.09917 0.02328 0.0
O18 O 0.11869 0.03496 0.05258 0.0
H19 H 0.92973 0.93205 0.09218 0.0
H20 H 0.1381 0.98775 0.9539 0.0
H21 H 0.03259 0.07291 0.10066 0.0
O22 O 0.93867 0.08018 0.99867 0.0
O23 O 0.93096 0.07663 0.04792 0.0
H24 H 0.87226 0.03966 0.94608 0.0
O25 O 0.8597 0.97863 0.04293 0.0
O26 O 0.86951 0.97945 0.99377 0.0
O27 O 0.04489 0.93671 0.04781 0.0
O28 O 0.05839 0.94212 0.99892 0.0
C29 C 0.82526 0.97082 1.01688 0.0
H30 H 0.14938 0.98811 0.89889 0.0
H31 H 0.87784 0.04149 0.89107 0.0
H32 H 0.92369 0.92414 0.14713 0.0
H33 H 0.02993 0.06807 0.15561 0.0
C34 C 0.786 0.03571 0.52165 0.0
N35 N 0.9564 1.00123 0.5938 0.0
C36 C 0.884 0.98221 0.60696 0.0
C37 C 0.87887 0.98191 0.63819 0.0
C38 C 0.94895 1.00104 0.65616 0.0
C39 C 0.02335 0.02021 0.64198 0.0
C40 C 0.0257 0.01979 0.61062 0.0
Zn41 Zn 0.9572 0.00403 0.54797 0.0
C42 C 0.89436 0.9102 0.52055 0.0
N43 N 0.95696 0.00665 0.45199 0.0
C44 C 0.9257 0.04744 0.43829 0.0
C45 C -0.00949 0.96983 0.4358 0.0
C46 C -0.006 0.97336 0.40453 0.0
C47 C 0.96229 0.01524 0.38981 0.0
C48 C 0.92817 0.05255 0.40714 0.0
Zn49 Zn 0.95743 0.00285 0.49783 0.0
O50 O 0.82719 0.0295 0.54673 0.0
C51 C 0.02044 0.09666 0.52528 0.0
O52 O 0.82475 0.02758 0.49729 0.0
H53 H 0.01589 0.93793 0.4472 0.0
H54 H 0.82938 0.96782 0.59319 0.0
H55 H 0.89962 0.07637 0.45158 0.0
O56 O 0.00305 0.0758 0.54974 0.0
O57 O 0.00792 0.07471 0.50045 0.0
H58 H 0.08228 0.03506 0.59967 0.0
O59 O 0.08708 0.97718 0.49898 0.0
O60 O 0.09034 0.97913 0.54849 0.0
O61 O 0.91024 0.93138 0.49604 0.0
O62 O 0.90841 0.93185 0.54544 0.0
C63 C 0.12846 0.97066 0.52402 0.0
H64 H 0.82021 0.96707 0.64823 0.0
H65 H 0.07823 0.03655 0.65465 0.0
H66 H 0.02323 0.94405 0.39236 0.0
H67 H 0.90364 0.08548 0.39666 0.0
C68 C 0.62052 0.53108 0.02629 0.0
N69 N 0.44361 0.49723 0.95481 0.0
C70 C 0.47358 0.53795 0.94163 0.0
C71 C 0.47615 0.54147 0.91042 0.0
C72 C 0.44858 0.50266 0.89241 0.0
C73 C 0.41708 0.46102 0.90652 0.0
C74 C 0.41526 0.4591 0.93796 0.0
Zn75 Zn 0.4442 0.49563 1.00088 0.0
C76 C 0.51633 0.40428 0.02669 0.0
N77 N 0.45563 0.49768 0.09721 0.0
C78 C 0.48751 0.53593 0.11327 0.0
C79 C 0.41695 0.45989 0.11108 0.0
C80 C 0.40676 0.46022 0.14212 0.0
C81 C 0.43813 0.49928 0.15921 0.0
C82 C 0.47976 0.53743 0.1445 0.0
Zn83 Zn 0.45592 0.498 0.05115 0.0
O84 O 0.57526 0.52255 1.00223 0.0
C85 C 0.37987 0.58839 0.02517 0.0
O86 O 0.5867 0.52409 0.05167 0.0
H87 H 0.39199 0.42983 0.09796 0.0
H88 H 0.49594 0.56789 0.95536 0.0
H89 H 0.51701 0.56587 0.10176 0.0
O90 O 0.39079 0.56551 1.00099 0.0
O91 O 0.40368 0.5695 0.0503 0.0
H92 H 0.39112 0.42719 0.94888 0.0
O93 O 0.32411 0.47166 0.04961 0.0
O94 O 0.31472 0.47006 1.00013 0.0
O95 O 0.50807 0.42696 0.0512 0.0
O96 O 0.49424 0.42423 1.00175 0.0
C97 C 0.27942 0.46394 0.02531 0.0
H98 H 0.50037 0.57426 0.90045 0.0
H99 H 0.3929 0.43048 0.89367 0.0
H100 H 0.37417 0.43023 0.15268 0.0
H101 H 0.50316 0.56884 0.15669 0.0
C102 C 0.30742 0.52681 0.53043 0.0
N103 N 0.50143 0.49178 0.5972 0.0
C104 C 0.47044 0.52867 0.61393 0.0
C105 C 0.47112 0.52515 0.6453 0.0
C106 C 0.50422 0.48317 0.65958 0.0
C107 C 0.53692 0.44611 0.64174 0.0
C108 C 0.53537 0.45123 0.6105 0.0
Zn109 Zn 0.48971 0.4948 0.5512 0.0
C110 C 0.41691 0.403 0.52577 0.0
N111 N 0.45788 0.49936 0.45512 0.0
C112 C 0.41841 0.53678 0.43988 0.0
C113 C 0.49636 0.46252 0.44024 0.0
C114 C 0.49885 0.46309 0.40896 0.0
C115 C 0.45975 0.50134 0.39266 0.0
C116 C 0.41817 0.53842 0.40841 0.0
Zn117 Zn 0.46827 0.49801 0.5012 0.0
O118 O 0.35725 0.51916 0.55368 0.0
C119 C 0.5392 0.59017 0.52645 0.0
O120 O 0.3376 0.52115 0.50439 0.0
H121 H 0.52696 0.43295 0.45269 0.0
H122 H 0.44295 0.56039 0.60289 0.0
H123 H 0.38879 0.56588 0.45216 0.0
O124 O 0.53769 0.56681 0.55106 0.0
O125 O 0.51239 0.57047 0.50201 0.0
H126 H 0.55953 0.42226 0.59682 0.0
O127 O 0.60164 0.47456 0.49893 0.0
O128 O 0.6199 0.47083 0.54812 0.0
O129 O 0.42123 0.42614 0.50121 0.0
O130 O 0.44295 0.4226 0.5503 0.0
C131 C 0.6508 0.46597 0.52218 0.0
H132 H 0.44295 0.55432 0.65788 0.0
H133 H 0.56255 0.41314 0.65186 0.0
H134 H 0.53152 0.43391 0.39758 0.0
H135 H 0.38869 0.56913 0.39674 0.0
H136 H 0.28535 0.63958 1.00426 0.0
C137 C 0.33108 0.6342 0.02357 0.0
H138 H 0.38577 0.66325 0.0638 0.0
H139 H 0.13761 0.81983 0.97754 0.0
H140 H 0.23714 0.80207 0.93732 0.0
H141 H 0.36658 0.74796 0.94603 0.0
H142 H 0.39302 0.70892 0.99445 0.0
C143 C 0.34025 0.66872 0.04446 0.0
C144 C 0.28379 0.71315 0.04258 0.0
C145 C 0.27683 0.74035 1.01552 0.0
C146 C 0.20965 0.77622 1.01172 0.0
C147 C 0.19363 0.79622 0.98266 0.0
C148 C 0.24947 0.78576 0.95922 0.0
C149 C 0.32183 0.75503 0.96405 0.0
C150 C 0.33563 0.73246 0.99182 0.0
H151 H 0.19341 0.87927 1.01518 0.0
C152 C 0.12696 0.8759 0.02388 0.0
H153 H 0.03218 0.83106 0.043 0.0
H154 H 0.2786 0.66861 0.09766 0.0
H155 H 0.19145 0.69303 0.13963 0.0
H156 H 0.09238 0.76388 0.13577 0.0
H157 H 0.078 0.80987 0.08967 0.0
C158 C 0.099 0.83361 0.03447 0.0
C159 C 0.1597 0.79082 0.03668 0.0
C160 C 0.17077 0.76573 0.06445 0.0
C161 C 0.23102 0.72608 0.06713 0.0
C162 C 0.23619 0.69985 0.09452 0.0
C163 C 0.18625 0.71339 0.11886 0.0
C164 C 0.13033 0.7532 0.11666 0.0
C165 C 0.1225 0.77922 0.0899 0.0
H166 H 0.51581 0.32758 1.01469 0.0
C167 C 0.55262 0.35523 0.02702 0.0
H168 H 0.66898 0.37438 0.05171 0.0
H169 H 0.83 0.18026 0.09603 0.0
H170 H 0.81535 0.22494 0.14214 0.0
H171 H 0.73353 0.30195 0.14231 0.0
H172 H 0.66745 0.33514 0.09634 0.0
C173 C 0.63331 0.34571 0.03991 0.0
C174 C 0.67607 0.29705 0.03957 0.0
C175 C 0.71098 0.27697 0.06701 0.0
C176 C 0.75509 0.23157 0.06714 0.0
C177 C 0.79343 0.21381 0.09465 0.0
C178 C 0.78585 0.23919 0.12135 0.0
C179 C 0.74003 0.28259 0.12143 0.0
C180 C 0.7028 0.30138 0.09473 0.0
H181 H 0.89536 0.17288 1.00634 0.0
C182 C 0.87462 0.1469 0.02293 0.0
H183 H 0.78552 0.13056 0.05686 0.0
H184 H 0.63879 0.32869 0.98143 0.0
H185 H 0.6404 0.28086 0.93629 0.0
H186 H 0.68957 0.19624 0.9383 0.0
H187 H 0.74135 0.16013 0.98538 0.0
C188 C 0.80673 0.15724 0.04075 0.0
C189 C 0.76074 0.20503 0.04009 0.0
C190 C 0.72241 0.22416 1.01285 0.0
C191 C 0.68511 0.27128 1.01224 0.0
C192 C 0.6594 0.29165 0.98393 0.0
C193 C 0.66145 0.2648 0.95762 0.0
C194 C 0.68975 0.21734 0.95871 0.0
C195 C 0.7201 0.19716 0.9859 0.0
H196 H 0.02883 0.17191 0.54063 0.0
C197 C 0.05781 0.14549 0.52593 0.0
H198 H 0.15869 0.12844 0.49661 0.0
H199 H 0.2989 0.32478 0.45338 0.0
H200 H 0.25886 0.28398 0.40692 0.0
H201 H 0.1756 0.20776 0.4072 0.0
H202 H 0.13384 0.17137 0.45396 0.0
C203 C 0.131 0.15602 0.51069 0.0
C204 C 0.17437 0.20446 0.51102 0.0
C205 C 0.19422 0.22668 0.48327 0.0
C206 C 0.23857 0.27187 0.48302 0.0
C207 C 0.26258 0.29145 0.45501 0.0
C208 C 0.24031 0.2683 0.42807 0.0
C209 C 0.19369 0.22534 0.42823 0.0
C210 C 0.17059 0.20468 0.45537 0.0
H211 H 0.40556 0.32846 0.54218 0.0
C212 C 0.37761 0.35463 0.52624 0.0
H213 H 0.27562 0.37152 0.49427 0.0
H214 H 0.17148 0.16794 0.56868 0.0
H215 H 0.1933 0.21296 0.61483 0.0
H216 H 0.23416 0.29872 0.61359 0.0
H217 H 0.25897 0.3388 0.56625 0.0
C218 C 0.3033 0.34435 0.50958 0.0
C219 C 0.25802 0.29651 0.51039 0.0
C220 C 0.23293 0.27564 0.538 0.0
C221 C 0.19792 0.22816 0.53848 0.0
C222 C 0.18856 0.20545 0.56672 0.0
C223 C 0.20229 0.2307 0.59348 0.0
C224 C 0.22607 0.27882 0.5928 0.0
C225 C 0.24132 0.30121 0.56545 0.0
H226 H 0.88247 0.83651 0.50286 0.0
C227 C 0.8591 0.86088 0.51991 0.0
H228 H 0.77223 0.87241 0.55493 0.0
H229 H 0.66655 0.66611 0.481 0.0
H230 H 0.66155 0.71277 0.43492 0.0
H231 H 0.68851 0.80016 0.436 0.0
H232 H 0.72627 0.84053 0.48294 0.0
C233 C 0.79505 0.84702 0.5384 0.0
C234 C 0.75647 0.79739 0.53821 0.0
C235 C 0.72343 0.77583 0.51107 0.0
C236 C 0.69635 0.72684 0.51093 0.0
C237 C 0.67857 0.70426 0.48284 0.0
C238 C 0.67674 0.7305 0.45612 0.0
C239 C 0.6927 0.77958 0.4567 0.0
C240 C 0.71566 0.80218 0.48378 0.0
H241 H 0.5343 0.66626 0.51269 0.0
C242 C 0.5723 0.63985 0.52594 0.0
H243 H 0.68859 0.62431 0.55189 0.0
H244 H 0.81595 0.82647 0.59447 0.0
H245 H 0.80247 0.78296 0.64113 0.0
H246 H 0.73313 0.70281 0.64183 0.0
H247 H 0.6788 0.66526 0.59577 0.0
C248 C 0.65123 0.65169 0.53927 0.0
C249 C 0.68839 0.7016 0.53854 0.0
C250 C 0.71626 0.72414 0.56592 0.0
C251 C 0.75269 0.77138 0.56566 0.0
C252 C 0.78486 0.79153 0.59324 0.0
C253 C 0.77794 0.76682 0.6203 0.0
C254 C 0.73913 0.72166 0.62069 0.0
C255 C 0.70849 0.70044 0.59396 0.0
H256 H 0.29 0.05521 0.05334 0.0
C257 C 0.25783 0.04911 0.03135 0.0
H258 H 0.27438 0.02473 0.98678 0.0
H259 H 0.69491 0.04824 0.99299 0.0
H260 H 0.65277 0.10776 0.95544 0.0
H261 H 0.49502 0.13021 0.94582 0.0
H262 H 0.37762 0.09032 0.97234 0.0
C263 C 0.30575 0.03261 1.00866 0.0
C264 C 0.39964 0.01761 1.01355 0.0
C265 C 0.46709 0.04186 0.99829 0.0
C266 C 0.55787 0.02911 1.00404 0.0
C267 C 0.62441 0.05488 0.98897 0.0
C268 C 0.60133 0.09004 0.96769 0.0
C269 C 0.51244 0.10241 0.96209 0.0
C270 C 0.44581 0.07912 0.97742 0.0
H271 H 0.70284 0.95095 0.99108 0.0
C272 C 0.72931 0.96228 1.01303 0.0
H273 H 0.69985 0.99433 0.05458 0.0
H274 H 0.28367 0.95531 0.04006 0.0
H275 H 0.32371 0.88859 0.07297 0.0
H276 H 0.48191 0.86885 0.08499 0.0
H277 H 0.60079 0.91526 0.06344 0.0
C278 C 0.67431 0.98096 0.03298 0.0
C279 C 0.57993 0.99146 0.02473 0.0
C280 C 0.51195 0.96529 0.03855 0.0
C281 C 0.42123 0.9777 0.03245 0.0
C282 C 0.35396 0.94896 0.04495 0.0
C283 C 0.37602 0.91018 0.0637 0.0
C284 C 0.46504 0.899 0.07039 0.0
C285 C 0.53256 0.92603 0.05797 0.0
H286 H 0.25013 0.94349 0.50437 0.0
C287 C 0.22408 0.96168 0.52382 0.0
H288 H 0.25388 0.009 0.55991 0.0
H289 H 0.66556 0.94362 0.53923 0.0
H290 H 0.63402 0.88492 0.57805 0.0
H291 H 0.48195 0.87585 0.59629 0.0
H292 H 0.35999 0.92567 0.57618 0.0
C293 C 0.27918 0.98704 0.54192 0.0
C294 C 0.37132 0.99497 0.5328 0.0
C295 C 0.44116 0.96582 0.54493 0.0
C296 C 0.52858 0.9713 0.53445 0.0
C297 C 0.59776 0.94134 0.54664 0.0
C298 C 0.58063 0.90739 0.56877 0.0
C299 C 0.49487 0.90225 0.5791 0.0
C300 C 0.42557 0.93099 0.56736 0.0
H301 H 0.66189 0.06117 0.54057 0.0
C302 C 0.68988 0.04267 0.52157 0.0
H303 H 0.66509 0.99299 0.48634 0.0
H304 H 0.25078 0.05708 0.50516 0.0
H305 H 0.28204 0.11491 0.46584 0.0
H306 H 0.43431 0.12438 0.44791 0.0
H307 H 0.55653 0.07532 0.46858 0.0
C308 C 0.63745 0.01536 0.50371 0.0
C309 C 0.5452 0.00652 0.51225 0.0
C310 C 0.4753 0.03541 0.49995 0.0
C311 C 0.38786 0.02986 0.51036 0.0
C312 C 0.31863 0.05945 0.49787 0.0
C313 C 0.33563 0.09297 0.47547 0.0
C314 C 0.42147 0.09827 0.46528 0.0
C315 C 0.49091 0.06998 0.47735 0.0
H316 H 0.73865 0.55265 1.00224 0.0
C317 C 0.71557 0.54132 0.02404 0.0
H318 H 0.75275 0.50963 0.06589 0.0
H319 H 0.05085 0.40438 0.99025 0.0
H320 H 0.93233 0.34532 0.98518 0.0
H321 H 0.78252 0.36301 1.0031 0.0
H322 H 0.74973 0.4391 0.0268 0.0
C323 C 0.77476 0.52505 0.04497 0.0
C324 C 0.86627 0.51408 0.03594 0.0
C325 C 0.88394 0.46881 0.02277 0.0
C326 C -0.02993 0.45865 1.01234 0.0
C327 C -0.01359 0.41362 0.99883 0.0
C328 C 0.91905 0.37951 0.99569 0.0
C329 C 0.83457 0.38943 1.00585 0.0
C330 C 0.81676 0.43335 0.01933 0.0
H331 H 0.15644 0.44399 0.04732 0.0
C332 C 0.18309 0.45827 0.02673 0.0
H333 H 0.15626 0.50056 0.98785 0.0
H334 H 0.85273 0.60397 0.06003 0.0
H335 H -0.02917 0.66374 0.06398 0.0
H336 H 0.12056 0.64622 0.04545 0.0
H337 H 0.15369 0.56911 0.02314 0.0
C338 C 0.12932 0.48188 1.00697 0.0
C339 C 0.0377 0.49365 1.01526 0.0
C340 C 0.01986 0.53918 0.02798 0.0
C341 C 0.93374 0.54933 0.03852 0.0
C342 C 0.91727 0.59469 0.05153 0.0
C343 C -0.01564 0.62919 0.05397 0.0
C344 C 0.06876 0.61933 0.04359 0.0
C345 C 0.08682 0.5749 0.0308 0.0
H346 H 0.18844 0.53463 0.55693 0.0
C347 C 0.21189 0.53363 0.53409 0.0
H348 H 0.17608 0.5243 0.48807 0.0
H349 H 0.87118 0.38295 0.52555 0.0
H350 H -0.02862 0.32975 0.49963 0.0
H351 H 0.11345 0.3598 0.48096 0.0
H352 H 0.15811 0.44255 0.48897 0.0
C353 C 0.15337 0.52783 0.51088 0.0
C354 C 0.06179 0.51262 0.51713 0.0
C355 C 0.03725 0.46408 0.51187 0.0
C356 C 0.9546 0.44698 0.52191 0.0
C357 C 0.93241 0.398 0.51755 0.0
C358 C -0.01049 0.36703 0.50293 0.0
C359 C 0.06982 0.38391 0.49258 0.0
C360 C 0.09429 0.43165 0.4972 0.0
H361 H 0.77047 0.45837 0.49598 0.0
C362 C 0.74636 0.45886 0.51875 0.0
H363 H 0.78104 0.46681 0.56496 0.0
H364 H 0.08684 0.60845 0.52804 0.0
H365 H -0.01335 0.66156 0.55399 0.0
H366 H 0.84437 0.63151 0.57251 0.0
H367 H 0.79998 0.54871 0.56459 0.0
C368 C 0.80433 0.46375 0.54221 0.0
C369 C 0.89629 0.47874 0.53638 0.0
C370 C 0.92092 0.52723 0.54171 0.0
C371 C 0.00356 0.54435 0.53167 0.0
C372 C 0.02569 0.59334 0.53606 0.0
C373 C 0.96856 0.62427 0.55069 0.0
C374 C 0.8882 0.60739 0.56099 0.0
C375 C 0.86383 0.55963 0.55639 0.0
H376 H 0.96131 0.05877 0.34813 0.0
C377 C 0.96643 0.02223 0.3568 0.0
H378 H -0.02814 0.94884 0.34431 0.0
H379 H 0.80945 0.99759 0.21355 0.0
H380 H 0.68026 0.96267 0.2363 0.0
H381 H 0.68375 0.94224 0.29034 0.0
H382 H 0.81638 0.95696 0.32198 0.0
C383 C -0.02694 0.98606 0.33707 0.0
C384 C -0.02666 0.99601 0.30424 0.0
C385 C 0.89612 0.98605 0.28595 0.0
C386 C 0.89471 0.997 0.25471 0.0
C387 C 0.81526 0.98863 0.23721 0.0
C388 C 0.74031 0.96893 0.25004 0.0
C389 C 0.74223 0.95749 0.28047 0.0
C390 C 0.81887 0.96605 0.29836 0.0
H391 H 0.96759 0.95305 0.19786 0.0
C392 C -0.02769 0.98949 0.18915 0.0
H393 H -0.02393 0.06313 0.20139 0.0
H394 H 0.13382 0.01709 0.33275 0.0
H395 H 0.26311 0.05208 0.31003 0.0
H396 H 0.26053 0.07138 0.25584 0.0
H397 H 0.12869 0.0557 0.22402 0.0
C398 C -0.02761 0.02608 0.20881 0.0
C399 C -0.02852 0.01676 0.24172 0.0
C400 C 0.04855 0.02694 0.26006 0.0
C401 C 0.04973 0.01625 0.29134 0.0
C402 C 0.12857 0.02541 0.30898 0.0
C403 C 0.20348 0.04525 0.29619 0.0
C404 C 0.20206 0.05607 0.26568 0.0
C405 C 0.12585 0.04696 0.24768 0.0
H406 H 0.08859 0.01332 0.84844 0.0
C407 C 0.0218 0.01284 0.85721 0.0
H408 H 0.8837 0.00739 0.84533 0.0
H409 H 0.93516 0.09181 0.71448 0.0
H410 H 0.86022 0.15843 0.73797 0.0
H411 H 0.83169 0.157 0.79221 0.0
H412 H 0.87831 0.089 0.82331 0.0
C413 C 0.9515 0.00884 0.83767 0.0
C414 C 0.96417 0.00799 0.8047 0.0
C415 C 0.93495 0.0476 0.78677 0.0
C416 C 0.95037 0.04814 0.75543 0.0
C417 C 0.9233 0.08895 0.73824 0.0
C418 C 0.88067 0.1276 0.75148 0.0
C419 C 0.86469 0.12683 0.78202 0.0
C420 C 0.89169 0.08751 0.7996 0.0
H421 H 0.87343 0.99687 0.69783 0.0
C422 C 0.93977 0.00216 0.68928 0.0
H423 H 0.0767 0.01055 0.70208 0.0
H424 H 0.01938 0.92396 0.83201 0.0
H425 H 0.093 0.857 0.80842 0.0
H426 H 0.12258 0.85871 0.75426 0.0
H427 H 0.07812 0.92731 0.72333 0.0
C428 C 0.00843 0.00847 0.70922 0.0
C429 C -0.00637 0.00863 0.74205 0.0
C430 C 0.02199 0.96879 0.75992 0.0
C431 C 0.00633 0.96818 0.79124 0.0
C432 C 0.03197 0.927 0.80831 0.0
C433 C 0.07372 0.88812 0.795 0.0
C434 C 0.09026 0.88905 0.7645 0.0
C435 C 0.06455 0.92871 0.74702 0.0
H436 H 0.52558 0.48419 0.3505 0.0
C437 C 0.46815 0.50236 0.35958 0.0
H438 H 0.34807 0.53972 0.34863 0.0
H439 H 0.46063 0.61162 0.22086 0.0
H440 H 0.43969 0.68649 0.24738 0.0
H441 H 0.41117 0.68685 0.30161 0.0
H442 H 0.40217 0.61232 0.32958 0.0
C443 C 0.40676 0.52191 0.34032 0.0
C444 C 0.41953 0.5213 0.30719 0.0
C445 C 0.42592 0.56527 0.29125 0.0
C446 C 0.44442 0.56509 0.2601 0.0
C447 C 0.44834 0.60956 0.24463 0.0
C448 C 0.43626 0.65287 0.25956 0.0
C449 C 0.42008 0.65307 0.29009 0.0
C450 C 0.41499 0.60995 0.30587 0.0
H451 H 0.36514 0.48014 0.19972 0.0
C452 C 0.4223 0.49996 0.19191 0.0
H453 H 0.53553 0.54089 0.20526 0.0
H454 H 0.39201 0.4304 0.32894 0.0
H455 H 0.42111 0.35553 0.30336 0.0
H456 H 0.47434 0.35548 0.25156 0.0
H457 H 0.49548 0.43015 0.22476 0.0
C458 C 0.47729 0.52139 0.21234 0.0
C459 C 0.45828 0.52099 0.24503 0.0
C460 C 0.45283 0.47698 0.26109 0.0
C461 C 0.42927 0.47709 0.29176 0.0
C462 C 0.41555 0.43252 0.3063 0.0
C463 C 0.43116 0.38922 0.29178 0.0
C464 C 0.46059 0.38919 0.26257 0.0
C465 C 0.47156 0.4324 0.24732 0.0
H466 H 0.50238 0.43847 0.70073 0.0
C467 C 0.50069 0.47537 0.69257 0.0
H468 H 0.49553 0.54838 0.70572 0.0
H469 H 0.29611 0.5062 0.8254 0.0
H470 H 0.18007 0.54667 0.79532 0.0
H471 H 0.20223 0.5665 0.74205 0.0
H472 H 0.34037 0.5458 0.71852 0.0
C473 C 0.49646 0.51105 0.71279 0.0
C474 C 0.48566 0.50061 0.74532 0.0
C475 C 0.40495 0.51365 0.75886 0.0
C476 C 0.39259 0.50279 0.78969 0.0
C477 C 0.31008 0.51475 0.80232 0.0
C478 C 0.24258 0.53768 0.78525 0.0
C479 C 0.25501 0.54879 0.75525 0.0
C480 C 0.33485 0.5368 0.74205 0.0
H481 H 0.4594 0.544 0.85022 0.0
C482 C 0.45229 0.50787 0.85921 0.0
H483 H 0.45092 0.43402 0.84772 0.0
H484 H 0.65212 0.47488 0.72725 0.0
H485 H 0.76783 0.43423 0.75734 0.0
H486 H 0.74479 0.41357 0.81043 0.0
H487 H 0.60605 0.43378 0.8338 0.0
C488 C 0.45154 0.47091 0.83982 0.0
C489 C 0.46163 0.47965 0.80707 0.0
C490 C 0.54214 0.46637 0.79351 0.0
C491 C 0.55472 0.47742 0.76271 0.0
C492 C 0.63764 0.4659 0.75021 0.0
C493 C 0.70503 0.44291 0.76732 0.0
C494 C 0.69212 0.43135 0.79722 0.0
C495 C 0.61202 0.44308 0.81033 0.0
loop_
_geom_bond_atom_site_label_1
_geom_bond_atom_site_label_2
_geom_bond_distance
_geom_bond_site_symmetry_2
_ccdc_geom_bond_type
C0 O16 1.251 1_554 S
C0 O18 1.254 . S
N1 C2 1.335 1_655 S
N1 C6 1.304 1_545 S
N1 Zn7 2.020 1_545 S
C2 N1 1.335 1_455 S
C2 C3 1.379 . S
C2 H20 0.952 . S
C3 C2 1.379 . S
C3 C4 1.390 1_455 S
C3 H30 0.949 . S
C4 C3 1.390 1_655 S
C4 C5 1.357 1_545 S
C5 C4 1.357 1_565 S
C5 C6 1.370 . S
C5 H31 0.950 . S
C6 N1 1.304 1_565 S
C6 C5 1.370 . S
C6 H24 0.948 . S
Zn7 N1 2.020 1_565 S
Zn7 O16 2.039 1_665 S
Zn7 O22 2.034 1_565 S
Zn7 O26 2.025 . S
Zn7 O28 2.024 1_655 S
C8 O27 1.246 . S
C8 O28 1.249 1_554 S
N9 C10 1.307 1_565 S
N9 C11 1.333 1_455 S
N9 Zn15 2.020 1_565 S
C10 N9 1.307 1_545 S
C10 C14 1.370 . S
C10 H21 0.948 . S
C11 N9 1.333 1_655 S
C11 C12 1.379 . S
C11 H19 0.952 . S
C12 C11 1.379 . S
C12 C13 1.390 1_655 S
C12 H32 0.949 . S
C13 C12 1.390 1_455 S
C13 C14 1.357 1_565 S
C14 C10 1.370 . S
C14 C13 1.357 1_545 S
C14 H33 0.950 . S
Zn15 N9 2.020 1_545 S
Zn15 O18 2.025 . S
Zn15 O23 2.024 1_455 S
Zn15 O25 2.039 1_445 S
Zn15 O27 2.034 1_545 S
O16 C0 1.251 1_556 S
O16 Zn7 2.039 1_445 S
C17 O22 1.246 1_554 S
C17 O23 1.249 . S
O18 C0 1.254 . S
O18 Zn15 2.025 . S
H19 C11 0.952 . S
H20 C2 0.952 . S
H21 C10 0.948 . S
O22 Zn7 2.034 1_545 S
O22 C17 1.246 1_556 S
O23 Zn15 2.024 1_655 S
O23 C17 1.249 . S
H24 C6 0.948 . S
O25 Zn15 2.039 1_665 S
O25 C29 1.251 . S
O26 Zn7 2.025 . S
O26 C29 1.254 1_556 S
O27 C8 1.246 . S
O27 Zn15 2.034 1_565 S
O28 Zn7 2.024 1_455 S
O28 C8 1.249 1_556 S
C29 O25 1.251 . S
C29 O26 1.254 1_554 S
H30 C3 0.949 . S
H31 C5 0.950 . S
H32 C12 0.949 . S
H33 C14 0.950 . S
C34 O50 1.251 . S
C34 O52 1.254 . S
N35 C36 1.335 1_455 S
N35 C40 1.304 1_545 S
N35 Zn41 2.020 1_545 S
C36 N35 1.335 1_655 S
C36 C37 1.379 . S
C36 H54 0.952 . S
C37 C36 1.379 . S
C37 C38 1.390 1_655 S
C37 H64 0.949 . S
C38 C37 1.390 1_455 S
C38 C39 1.357 1_545 S
C39 C38 1.357 1_565 S
C39 C40 1.370 . S
C39 H65 0.950 . S
C40 N35 1.304 1_565 S
C40 C39 1.370 . S
C40 H58 0.948 . S
Zn41 N35 2.020 1_565 S
Zn41 O50 2.039 1_465 S
Zn41 O56 2.034 1_565 S
Zn41 O60 2.025 . S
Zn41 O62 2.024 1_455 S
C42 O61 1.246 . S
C42 O62 1.249 . S
N43 C44 1.307 1_565 S
N43 C45 1.333 1_655 S
N43 Zn49 2.020 1_565 S
C44 N43 1.307 1_545 S
C44 C48 1.370 . S
C44 H55 0.948 . S
C45 N43 1.333 1_455 S
C45 C46 1.379 . S
C45 H53 0.952 . S
C46 C45 1.379 . S
C46 C47 1.390 1_455 S
C46 H66 0.949 . S
C47 C46 1.390 1_655 S
C47 C48 1.357 1_565 S
C48 C44 1.370 . S
C48 C47 1.357 1_545 S
C48 H67 0.950 . S
Zn49 N43 2.020 1_545 S
Zn49 O52 2.025 . S
Zn49 O57 2.024 1_655 S
Zn49 O59 2.039 1_645 S
Zn49 O61 2.034 1_545 S
O50 C34 1.251 . S
O50 Zn41 2.039 1_645 S
C51 O56 1.246 . S
C51 O57 1.249 . S
O52 C34 1.254 . S
O52 Zn49 2.025 . S
H53 C45 0.952 . S
H54 C36 0.952 . S
H55 C44 0.948 . S
O56 Zn41 2.034 1_545 S
O56 C51 1.246 . S
O57 Zn49 2.024 1_455 S
O57 C51 1.249 . S
H58 C40 0.948 . S
O59 Zn49 2.039 1_465 S
O59 C63 1.251 . S
O60 Zn41 2.025 . S
O60 C63 1.254 . S
O61 C42 1.246 . S
O61 Zn49 2.034 1_565 S
O62 Zn41 2.024 1_655 S
O62 C42 1.249 . S
C63 O59 1.251 . S
C63 O60 1.254 . S
H64 C37 0.949 . S
H65 C39 0.950 . S
H66 C46 0.949 . S
H67 C48 0.950 . S
C68 O84 1.251 1_554 S
C68 O86 1.254 . S
N69 C70 1.333 . S
N69 C74 1.307 . S
N69 Zn75 2.020 . S
C70 N69 1.333 . S
C70 C71 1.379 . S
C70 H88 0.952 . S
C71 C70 1.379 . S
C71 C72 1.390 . S
C71 H98 0.949 . S
C72 C71 1.390 . S
C72 C73 1.357 . S
C73 C72 1.357 . S
C73 C74 1.370 . S
C73 H99 0.950 . S
C74 N69 1.307 . S
C74 C73 1.370 . S
C74 H92 0.948 . S
Zn75 N69 2.020 . S
Zn75 O84 2.039 . S
Zn75 O90 2.034 . S
Zn75 O94 2.025 . S
Zn75 O96 2.024 . S
C76 O95 1.246 . S
C76 O96 1.249 1_554 S
N77 C78 1.307 . S
N77 C79 1.333 . S
N77 Zn83 2.020 . S
C78 N77 1.307 . S
C78 C82 1.370 . S
C78 H89 0.948 . S
C79 N77 1.333 . S
C79 C80 1.379 . S
C79 H87 0.952 . S
C80 C79 1.379 . S
C80 C81 1.390 . S
C80 H100 0.949 . S
C81 C80 1.390 . S
C81 C82 1.357 . S
C82 C78 1.370 . S
C82 C81 1.357 . S
C82 H101 0.950 . S
Zn83 N77 2.020 . S
Zn83 O86 2.025 . S
Zn83 O91 2.024 . S
Zn83 O93 2.039 . S
Zn83 O95 2.034 . S
O84 C68 1.251 1_556 S
O84 Zn75 2.039 . S
C85 O90 1.246 1_554 S
C85 O91 1.249 . S
O86 C68 1.254 . S
O86 Zn83 2.025 . S
H87 C79 0.952 . S
H88 C70 0.952 . S
H89 C78 0.948 . S
O90 Zn75 2.034 . S
O90 C85 1.246 1_556 S
O91 Zn83 2.024 . S
O91 C85 1.249 . S
H92 C74 0.948 . S
O93 Zn83 2.039 . S
O93 C97 1.251 . S
O94 Zn75 2.025 . S
O94 C97 1.254 1_556 S
O95 C76 1.246 . S
O95 Zn83 2.034 . S
O96 Zn75 2.024 . S
O96 C76 1.249 1_556 S
C97 O93 1.251 . S
C97 O94 1.254 1_554 S
H98 C71 0.949 . S
H99 C73 0.950 . S
H100 C80 0.949 . S
H101 C82 0.950 . S
C102 O118 1.251 . S
C102 O120 1.254 . S
N103 C104 1.333 . S
N103 C108 1.307 . S
N103 Zn109 2.020 . S
C104 N103 1.333 . S
C104 C105 1.379 . S
C104 H122 0.952 . S
C105 C104 1.379 . S
C105 C106 1.390 . S
C105 H132 0.949 . S
C106 C105 1.390 . S
C106 C107 1.357 . S
C107 C106 1.357 . S
C107 C108 1.370 . S
C107 H133 0.950 . S
C108 N103 1.307 . S
C108 C107 1.370 . S
C108 H126 0.948 . S
Zn109 N103 2.020 . S
Zn109 O118 2.039 . S
Zn109 O124 2.034 . S
Zn109 O128 2.025 . S
Zn109 O130 2.024 . S
C110 O129 1.246 . S
C110 O130 1.249 . S
N111 C112 1.307 . S
N111 C113 1.333 . S
N111 Zn117 2.020 . S
C112 N111 1.307 . S
C112 C116 1.370 . S
C112 H123 0.948 . S
C113 N111 1.333 . S
C113 C114 1.379 . S
C113 H121 0.952 . S
C114 C113 1.379 . S
C114 C115 1.390 . S
C114 H134 0.949 . S
C115 C114 1.390 . S
C115 C116 1.357 . S
C116 C112 1.370 . S
C116 C115 1.357 . S
C116 H135 0.950 . S
Zn117 N111 2.020 . S
Zn117 O120 2.025 . S
Zn117 O125 2.024 . S
Zn117 O127 2.039 . S
Zn117 O129 2.034 . S
O118 C102 1.251 . S
O118 Zn109 2.039 . S
C119 O124 1.246 . S
C119 O125 1.249 . S
O120 C102 1.254 . S
O120 Zn117 2.025 . S
H121 C113 0.952 . S
H122 C104 0.952 . S
H123 C112 0.948 . S
O124 Zn109 2.034 . S
O124 C119 1.246 . S
O125 Zn117 2.024 . S
O125 C119 1.249 . S
H126 C108 0.948 . S
O127 Zn117 2.039 . S
O127 C131 1.251 . S
O128 Zn109 2.025 . S
O128 C131 1.254 . S
O129 C110 1.246 . S
O129 Zn117 2.034 . S
O130 Zn109 2.024 . S
O130 C110 1.249 . S
C131 O127 1.251 . S
C131 O128 1.254 . S
H132 C105 0.949 . S
H133 C107 0.950 . S
H134 C114 0.949 . S
H135 C116 0.950 . S
H136 C137 0.951 . S
C137 H136 0.951 . S
C137 C143 1.265 . S
H138 C143 0.950 . S
H139 C147 0.949 . S
H140 C148 0.950 . S
H141 C149 0.951 . S
H142 C150 0.951 . S
C143 C137 1.265 . S
C143 H138 0.950 . S
C143 C144 1.478 . S
C144 C143 1.478 . S
C144 C145 1.397 1_554 S
C144 C161 1.394 . S
C145 C144 1.397 1_556 S
C145 C146 1.438 . S
C145 C150 1.429 . S
C146 C145 1.438 . S
C146 C147 1.428 . S
C146 C159 1.394 1_556 S
C147 H139 0.949 . S
C147 C146 1.428 . S
C147 C148 1.345 . S
C148 H140 0.950 . S
C148 C147 1.345 . S
C148 C149 1.424 . S
C149 H141 0.951 . S
C149 C148 1.424 . S
C149 C150 1.347 . S
C150 H142 0.951 . S
C150 C145 1.429 . S
C150 C149 1.347 . S
H151 C152 0.951 . S
C152 H151 0.951 . S
C152 C158 1.265 . S
H153 C158 0.950 . S
H154 C162 0.949 . S
H155 C163 0.950 . S
H156 C164 0.951 . S
H157 C165 0.951 . S
C158 C152 1.265 . S
C158 H153 0.950 . S
C158 C159 1.478 . S
C159 C146 1.394 1_554 S
C159 C158 1.478 . S
C159 C160 1.397 . S
C160 C159 1.397 . S
C160 C161 1.438 . S
C160 C165 1.429 . S
C161 C144 1.394 . S
C161 C160 1.438 . S
C161 C162 1.428 . S
C162 H154 0.949 . S
C162 C161 1.428 . S
C162 C163 1.345 . S
C163 H155 0.950 . S
C163 C162 1.345 . S
C163 C164 1.424 . S
C164 H156 0.951 . S
C164 C163 1.424 . S
C164 C165 1.347 . S
C165 H157 0.951 . S
C165 C160 1.429 . S
C165 C164 1.347 . S
H166 C167 0.951 . S
C167 H166 0.951 . S
C167 C173 1.265 . S
H168 C173 0.950 . S
H169 C177 0.949 . S
H170 C178 0.950 . S
H171 C179 0.951 . S
H172 C180 0.951 . S
C173 C167 1.265 . S
C173 H168 0.950 . S
C173 C174 1.478 . S
C174 C173 1.478 . S
C174 C175 1.397 . S
C174 C191 1.394 1_554 S
C175 C174 1.397 . S
C175 C176 1.438 . S
C175 C180 1.429 . S
C176 C175 1.438 . S
C176 C177 1.428 . S
C176 C189 1.394 . S
C177 H169 0.949 . S
C177 C176 1.428 . S
C177 C178 1.345 . S
C178 H170 0.950 . S
C178 C177 1.345 . S
C178 C179 1.424 . S
C179 H171 0.951 . S
C179 C178 1.424 . S
C179 C180 1.347 . S
C180 H172 0.951 . S
C180 C175 1.429 . S
C180 C179 1.347 . S
H181 C182 0.951 . S
C182 H181 0.951 . S
C182 C188 1.265 . S
H183 C188 0.950 . S
H184 C192 0.949 . S
H185 C193 0.950 . S
H186 C194 0.951 . S
H187 C195 0.951 . S
C188 C182 1.265 . S
C188 H183 0.950 . S
C188 C189 1.478 . S
C189 C176 1.394 . S
C189 C188 1.478 . S
C189 C190 1.397 1_554 S
C190 C189 1.397 1_556 S
C190 C191 1.438 . S
C190 C195 1.429 . S
C191 C174 1.394 1_556 S
C191 C190 1.438 . S
C191 C192 1.428 . S
C192 H184 0.949 . S
C192 C191 1.428 . S
C192 C193 1.345 . S
C193 H185 0.950 . S
C193 C192 1.345 . S
C193 C194 1.424 . S
C194 H186 0.951 . S
C194 C193 1.424 . S
C194 C195 1.347 . S
C195 H187 0.951 . S
C195 C190 1.429 . S
C195 C194 1.347 . S
H196 C197 0.951 . S
C197 H196 0.951 . S
C197 C203 1.265 . S
H198 C203 0.950 . S
H199 C207 0.949 . S
H200 C208 0.950 . S
H201 C209 0.951 . S
H202 C210 0.951 . S
C203 C197 1.265 . S
C203 H198 0.950 . S
C203 C204 1.478 . S
C204 C203 1.478 . S
C204 C205 1.397 . S
C204 C221 1.394 . S
C205 C204 1.397 . S
C205 C206 1.438 . S
C205 C210 1.429 . S
C206 C205 1.438 . S
C206 C207 1.428 . S
C206 C219 1.394 . S
C207 H199 0.949 . S
C207 C206 1.428 . S
C207 C208 1.345 . S
C208 H200 0.950 . S
C208 C207 1.345 . S
C208 C209 1.424 . S
C209 H201 0.951 . S
C209 C208 1.424 . S
C209 C210 1.347 . S
C210 H202 0.951 . S
C210 C205 1.429 . S
C210 C209 1.347 . S
H211 C212 0.951 . S
C212 H211 0.951 . S
C212 C218 1.265 . S
H213 C218 0.950 . S
H214 C222 0.949 . S
H215 C223 0.950 . S
H216 C224 0.951 . S
H217 C225 0.951 . S
C218 C212 1.265 . S
C218 H213 0.950 . S
C218 C219 1.478 . S
C219 C206 1.394 . S
C219 C218 1.478 . S
C219 C220 1.397 . S
C220 C219 1.397 . S
C220 C221 1.438 . S
C220 C225 1.429 . S
C221 C204 1.394 . S
C221 C220 1.438 . S
C221 C222 1.428 . S
C222 H214 0.949 . S
C222 C221 1.428 . S
C222 C223 1.345 . S
C223 H215 0.950 . S
C223 C222 1.345 . S
C223 C224 1.424 . S
C224 H216 0.951 . S
C224 C223 1.424 . S
C224 C225 1.347 . S
C225 H217 0.951 . S
C225 C220 1.429 . S
C225 C224 1.347 . S
H226 C227 0.951 . S
C227 H226 0.951 . S
C227 C233 1.265 . S
H228 C233 0.950 . S
H229 C237 0.949 . S
H230 C238 0.950 . S
H231 C239 0.951 . S
H232 C240 0.951 . S
C233 C227 1.265 . S
C233 H228 0.950 . S
C233 C234 1.478 . S
C234 C233 1.478 . S
C234 C235 1.397 . S
C234 C251 1.394 . S
C235 C234 1.397 . S
C235 C236 1.438 . S
C235 C240 1.429 . S
C236 C235 1.438 . S
C236 C237 1.428 . S
C236 C249 1.394 . S
C237 H229 0.949 . S
C237 C236 1.428 . S
C237 C238 1.345 . S
C238 H230 0.950 . S
C238 C237 1.345 . S
C238 C239 1.424 . S
C239 H231 0.951 . S
C239 C238 1.424 . S
C239 C240 1.347 . S
C240 H232 0.951 . S
C240 C235 1.429 . S
C240 C239 1.347 . S
H241 C242 0.951 . S
C242 H241 0.951 . S
C242 C248 1.265 . S
H243 C248 0.950 . S
H244 C252 0.949 . S
H245 C253 0.950 . S
H246 C254 0.951 . S
H247 C255 0.951 . S
C248 C242 1.265 . S
C248 H243 0.950 . S
C248 C249 1.478 . S
C249 C236 1.394 . S
C249 C248 1.478 . S
C249 C250 1.397 . S
C250 C249 1.397 . S
C250 C251 1.438 . S
C250 C255 1.429 . S
C251 C234 1.394 . S
C251 C250 1.438 . S
C251 C252 1.428 . S
C252 H244 0.949 . S
C252 C251 1.428 . S
C252 C253 1.345 . S
C253 H245 0.950 . S
C253 C252 1.345 . S
C253 C254 1.424 . S
C254 H246 0.951 . S
C254 C253 1.424 . S
C254 C255 1.347 . S
C255 H247 0.951 . S
C255 C250 1.429 . S
C255 C254 1.347 . S
H256 C257 0.951 . S
C257 H256 0.951 . S
C257 C263 1.251 1_544 S
H258 C263 0.970 . S
H259 C267 0.949 . S
H260 C268 0.950 . S
H261 C269 0.951 . S
H262 C270 0.951 . S
C263 C257 1.251 1_566 S
C263 H258 0.970 . S
C263 C264 1.475 1_556 S
C264 C263 1.475 1_554 S
C264 C265 1.396 1_564 S
C264 C281 1.394 . S
C265 C264 1.396 1_546 S
C265 C266 1.438 . S
C265 C270 1.429 . S
C266 C265 1.438 . S
C266 C267 1.428 . S
C266 C279 1.395 1_556 S
C267 H259 0.949 . S
C267 C266 1.428 . S
C267 C268 1.345 . S
C268 H260 0.950 . S
C268 C267 1.345 . S
C268 C269 1.424 . S
C269 H261 0.951 . S
C269 C268 1.424 . S
C269 C270 1.347 . S
C270 H262 0.951 . S
C270 C265 1.429 . S
C270 C269 1.347 . S
H271 C272 0.951 1_556 S
C272 H271 0.951 1_554 S
C272 C278 1.265 1_565 S
H273 C278 0.950 . S
H274 C282 0.949 . S
H275 C283 0.950 . S
H276 C284 0.951 . S
H277 C285 0.951 . S
C278 C272 1.265 1_545 S
C278 H273 0.950 . S
C278 C279 1.478 . S
C279 C266 1.395 1_554 S
C279 C278 1.478 . S
C279 C280 1.396 1_545 S
C280 C279 1.396 1_565 S
C280 C281 1.438 . S
C280 C285 1.429 . S
C281 C264 1.394 . S
C281 C280 1.438 . S
C281 C282 1.428 . S
C282 H274 0.949 . S
C282 C281 1.428 . S
C282 C283 1.345 . S
C283 H275 0.950 . S
C283 C282 1.345 . S
C283 C284 1.424 . S
C284 H276 0.951 . S
C284 C283 1.424 . S
C284 C285 1.347 . S
C285 H277 0.951 . S
C285 C280 1.429 . S
C285 C284 1.347 . S
H286 C287 0.951 . S
C287 H286 0.951 . S
C287 C293 1.265 . S
H288 C293 0.950 1_545 S
H289 C297 0.949 . S
H290 C298 0.950 . S
H291 C299 0.951 . S
H292 C300 0.951 . S
C293 C287 1.265 . S
C293 H288 0.950 1_565 S
C293 C294 1.478 . S
C294 C293 1.478 . S
C294 C295 1.397 . S
C294 C311 1.394 1_565 S
C295 C294 1.397 . S
C295 C296 1.438 . S
C295 C300 1.429 . S
C296 C295 1.438 . S
C296 C297 1.428 . S
C296 C309 1.394 1_565 S
C297 H289 0.949 . S
C297 C296 1.428 . S
C297 C298 1.345 . S
C298 H290 0.950 . S
C298 C297 1.345 . S
C298 C299 1.424 . S
C299 H291 0.951 . S
C299 C298 1.424 . S
C299 C300 1.347 . S
C300 H292 0.951 . S
C300 C295 1.429 . S
C300 C299 1.347 . S
H301 C302 0.951 . S
C302 H301 0.951 . S
C302 C308 1.265 . S
H303 C308 0.950 1_565 S
H304 C312 0.949 . S
H305 C313 0.950 . S
H306 C314 0.951 . S
H307 C315 0.951 . S
C308 C302 1.265 . S
C308 H303 0.950 1_545 S
C308 C309 1.478 . S
C309 C296 1.394 1_545 S
C309 C308 1.478 . S
C309 C310 1.397 . S
C310 C309 1.397 . S
C310 C311 1.438 . S
C310 C315 1.429 . S
C311 C294 1.394 1_545 S
C311 C310 1.438 . S
C311 C312 1.428 . S
C312 H304 0.949 . S
C312 C311 1.428 . S
C312 C313 1.345 . S
C313 H305 0.950 . S
C313 C312 1.345 . S
C313 C314 1.424 . S
C314 H306 0.951 . S
C314 C313 1.424 . S
C314 C315 1.347 . S
C315 H307 0.951 . S
C315 C310 1.429 . S
C315 C314 1.347 . S
H316 C317 0.951 1_556 S
C317 H316 0.951 1_554 S
C317 C323 1.265 . S
H318 C323 0.950 . S
H319 C327 0.949 . S
H320 C328 0.950 . S
H321 C329 0.951 . S
H322 C330 0.951 . S
C323 C317 1.265 . S
C323 H318 0.950 . S
C323 C324 1.478 . S
C324 C323 1.478 . S
C324 C325 1.397 1_554 S
C324 C341 1.394 . S
C325 C324 1.397 1_556 S
C325 C326 1.438 1_655 S
C325 C330 1.429 . S
C326 C325 1.438 1_455 S
C326 C327 1.428 . S
C326 C339 1.394 1_556 S
C327 H319 0.949 . S
C327 C326 1.428 . S
C327 C328 1.345 . S
C328 H320 0.950 . S
C328 C327 1.345 . S
C328 C329 1.424 1_455 S
C329 H321 0.951 . S
C329 C328 1.424 1_655 S
C329 C330 1.347 . S
C330 H322 0.951 . S
C330 C325 1.429 . S
C330 C329 1.347 . S
H331 C332 0.951 . S
C332 H331 0.951 . S
C332 C338 1.265 . S
H333 C338 0.950 1_556 S
H334 C342 0.949 . S
H335 C343 0.950 . S
H336 C344 0.951 . S
H337 C345 0.951 . S
C338 C332 1.265 . S
C338 H333 0.950 1_554 S
C338 C339 1.478 . S
C339 C326 1.394 1_554 S
C339 C338 1.478 . S
C339 C340 1.397 . S
C340 C339 1.397 . S
C340 C341 1.438 1_455 S
C340 C345 1.429 . S
C341 C324 1.394 . S
C341 C340 1.438 1_655 S
C341 C342 1.428 . S
C342 H334 0.949 . S
C342 C341 1.428 . S
C342 C343 1.345 . S
C343 H335 0.950 . S
C343 C342 1.345 . S
C343 C344 1.424 1_655 S
C344 H336 0.951 . S
C344 C343 1.424 1_455 S
C344 C345 1.347 . S
C345 H337 0.951 . S
C345 C340 1.429 . S
C345 C344 1.347 . S
H346 C347 0.951 . S
C347 H346 0.951 . S
C347 C353 1.265 . S
H348 C353 0.950 . S
H349 C357 0.949 . S
H350 C358 0.950 . S
H351 C359 0.951 . S
H352 C360 0.951 . S
C353 C347 1.265 . S
C353 H348 0.950 . S
C353 C354 1.478 . S
C354 C353 1.478 . S
C354 C355 1.397 . S
C354 C371 1.394 . S
C355 C354 1.397 . S
C355 C356 1.438 1_455 S
C355 C360 1.429 . S
C356 C355 1.438 1_655 S
C356 C357 1.428 . S
C356 C369 1.394 . S
C357 H349 0.949 . S
C357 C356 1.428 . S
C357 C358 1.345 . S
C358 H350 0.950 . S
C358 C357 1.345 . S
C358 C359 1.424 1_655 S
C359 H351 0.951 . S
C359 C358 1.424 1_455 S
C359 C360 1.347 . S
C360 H352 0.951 . S
C360 C355 1.429 . S
C360 C359 1.347 . S
H361 C362 0.951 . S
C362 H361 0.951 . S
C362 C368 1.265 . S
H363 C368 0.950 . S
H364 C372 0.949 . S
H365 C373 0.950 . S
H366 C374 0.951 . S
H367 C375 0.951 . S
C368 C362 1.265 . S
C368 H363 0.950 . S
C368 C369 1.478 . S
C369 C356 1.394 . S
C369 C368 1.478 . S
C369 C370 1.397 . S
C370 C369 1.397 . S
C370 C371 1.438 1_655 S
C370 C375 1.429 . S
C371 C354 1.394 . S
C371 C370 1.438 1_455 S
C371 C372 1.428 . S
C372 H364 0.949 . S
C372 C371 1.428 . S
C372 C373 1.345 . S
C373 H365 0.950 . S
C373 C372 1.345 . S
C373 C374 1.424 1_455 S
C374 H366 0.951 . S
C374 C373 1.424 1_655 S
C374 C375 1.347 . S
C375 H367 0.951 . S
C375 C370 1.429 . S
C375 C374 1.347 . S
H376 C377 0.951 . S
C377 H376 0.951 . S
C377 C383 1.265 1_445 S
H378 C383 0.950 . S
H379 C387 0.949 . S
H380 C388 0.950 . S
H381 C389 0.951 . S
H382 C390 0.951 . S
C383 C377 1.265 1_665 S
C383 H378 0.950 . S
C383 C384 1.478 . S
C384 C383 1.478 . S
C384 C385 1.397 . S
C384 C401 1.394 1_665 S
C385 C384 1.397 . S
C385 C386 1.438 . S
C385 C390 1.429 . S
C386 C385 1.438 . S
C386 C387 1.428 . S
C386 C399 1.394 1_665 S
C387 H379 0.949 . S
C387 C386 1.428 . S
C387 C388 1.345 . S
C388 H380 0.950 . S
C388 C387 1.345 . S
C388 C389 1.424 . S
C389 H381 0.951 . S
C389 C388 1.424 . S
C389 C390 1.347 . S
C390 H382 0.951 . S
C390 C385 1.429 . S
C390 C389 1.347 . S
H391 C392 0.951 . S
C392 H391 0.951 . S
C392 C398 1.265 1_665 S
H393 C398 0.950 . S
H394 C402 0.949 . S
H395 C403 0.950 . S
H396 C404 0.951 . S
H397 C405 0.951 . S
C398 C392 1.265 1_445 S
C398 H393 0.950 . S
C398 C399 1.478 . S
C399 C386 1.394 1_445 S
C399 C398 1.478 . S
C399 C400 1.397 . S
C400 C399 1.397 . S
C400 C401 1.438 . S
C400 C405 1.429 . S
C401 C384 1.394 1_445 S
C401 C400 1.438 . S
C401 C402 1.428 . S
C402 H394 0.949 . S
C402 C401 1.428 . S
C402 C403 1.345 . S
C403 H395 0.950 . S
C403 C402 1.345 . S
C403 C404 1.424 . S
C404 H396 0.951 . S
C404 C403 1.424 . S
C404 C405 1.347 . S
C405 H397 0.951 . S
C405 C400 1.429 . S
C405 C404 1.347 . S
H406 C407 0.951 . S
C407 H406 0.951 . S
C407 C413 1.265 1_455 S
H408 C413 0.950 . S
H409 C417 0.949 . S
H410 C418 0.950 . S
H411 C419 0.951 . S
H412 C420 0.951 . S
C413 C407 1.265 1_655 S
C413 H408 0.950 . S
C413 C414 1.478 . S
C414 C413 1.478 . S
C414 C415 1.397 . S
C414 C431 1.394 1_645 S
C415 C414 1.397 . S
C415 C416 1.438 . S
C415 C420 1.429 . S
C416 C415 1.438 . S
C416 C417 1.428 . S
C416 C429 1.394 1_655 S
C417 H409 0.949 . S
C417 C416 1.428 . S
C417 C418 1.345 . S
C418 H410 0.950 . S
C418 C417 1.345 . S
C418 C419 1.424 . S
C419 H411 0.951 . S
C419 C418 1.424 . S
C419 C420 1.347 . S
C420 H412 0.951 . S
C420 C415 1.429 . S
C420 C419 1.347 . S
H421 C422 0.951 . S
C422 H421 0.951 . S
C422 C428 1.265 1_655 S
H423 C428 0.950 . S
H424 C432 0.949 . S
H425 C433 0.950 . S
H426 C434 0.951 . S
H427 C435 0.951 . S
C428 C422 1.265 1_455 S
C428 H423 0.950 . S
C428 C429 1.478 . S
C429 C416 1.394 1_455 S
C429 C428 1.478 . S
C429 C430 1.397 1_545 S
C430 C429 1.397 1_565 S
C430 C431 1.438 . S
C430 C435 1.429 . S
C431 C414 1.394 1_465 S
C431 C430 1.438 . S
C431 C432 1.428 . S
C432 H424 0.949 . S
C432 C431 1.428 . S
C432 C433 1.345 . S
C433 H425 0.950 . S
C433 C432 1.345 . S
C433 C434 1.424 . S
C434 H426 0.951 . S
C434 C433 1.424 . S
C434 C435 1.347 . S
C435 H427 0.951 . S
C435 C430 1.429 . S
C435 C434 1.347 . S
H436 C437 0.951 . S
C437 H436 0.951 . S
C437 C443 1.265 . S
H438 C443 0.950 . S
H439 C447 0.949 . S
H440 C448 0.950 . S
H441 C449 0.951 . S
H442 C450 0.951 . S
C443 C437 1.265 . S
C443 H438 0.950 . S
C443 C444 1.478 . S
C444 C443 1.478 . S
C444 C445 1.397 . S
C444 C461 1.394 . S
C445 C444 1.397 . S
C445 C446 1.438 . S
C445 C450 1.429 . S
C446 C445 1.438 . S
C446 C447 1.428 . S
C446 C459 1.394 . S
C447 H439 0.949 . S
C447 C446 1.428 . S
C447 C448 1.345 . S
C448 H440 0.950 . S
C448 C447 1.345 . S
C448 C449 1.424 . S
C449 H441 0.951 . S
C449 C448 1.424 . S
C449 C450 1.347 . S
C450 H442 0.951 . S
C450 C445 1.429 . S
C450 C449 1.347 . S
H451 C452 0.951 . S
C452 H451 0.951 . S
C452 C458 1.265 . S
H453 C458 0.950 . S
H454 C462 0.949 . S
H455 C463 0.950 . S
H456 C464 0.951 . S
H457 C465 0.951 . S
C458 C452 1.265 . S
C458 H453 0.950 . S
C458 C459 1.478 . S
C459 C446 1.394 . S
C459 C458 1.478 . S
C459 C460 1.397 . S
C460 C459 1.397 . S
C460 C461 1.438 . S
C460 C465 1.429 . S
C461 C444 1.394 . S
C461 C460 1.438 . S
C461 C462 1.428 . S
C462 H454 0.949 . S
C462 C461 1.428 . S
C462 C463 1.345 . S
C463 H455 0.950 . S
C463 C462 1.345 . S
C463 C464 1.424 . S
C464 H456 0.951 . S
C464 C463 1.424 . S
C464 C465 1.347 . S
C465 H457 0.951 . S
C465 C460 1.429 . S
C465 C464 1.347 . S
H466 C467 0.951 . S
C467 H466 0.951 . S
C467 C473 1.265 . S
H468 C473 0.950 . S
H469 C477 0.949 . S
H470 C478 0.950 . S
H471 C479 0.951 . S
H472 C480 0.951 . S
C473 C467 1.265 . S
C473 H468 0.950 . S
C473 C474 1.478 . S
C474 C473 1.478 . S
C474 C475 1.397 . S
C474 C491 1.394 . S
C475 C474 1.397 . S
C475 C476 1.438 . S
C475 C480 1.429 . S
C476 C475 1.438 . S
C476 C477 1.428 . S
C476 C489 1.394 . S
C477 H469 0.949 . S
C477 C476 1.428 . S
C477 C478 1.345 . S
C478 H470 0.950 . S
C478 C477 1.345 . S
C478 C479 1.424 . S
C479 H471 0.951 . S
C479 C478 1.424 . S
C479 C480 1.347 . S
C480 H472 0.951 . S
C480 C475 1.429 . S
C480 C479 1.347 . S
H481 C482 0.951 . S
C482 H481 0.951 . S
C482 C488 1.265 . S
H483 C488 0.950 . S
H484 C492 0.949 . S
H485 C493 0.950 . S
H486 C494 0.951 . S
H487 C495 0.951 . S
C488 C482 1.265 . S
C488 H483 0.950 . S
C488 C489 1.478 . S
C489 C476 1.394 . S
C489 C488 1.478 . S
C489 C490 1.397 . S
C490 C489 1.397 . S
C490 C491 1.438 . S
C490 C495 1.429 . S
C491 C474 1.394 . S
C491 C490 1.438 . S
C491 C492 1.428 . S
C492 H484 0.949 . S
C492 C491 1.428 . S
C492 C493 1.345 . S
C493 H485 0.950 . S
C493 C492 1.345 . S
C493 C494 1.424 . S
C494 H486 0.951 . S
C494 C493 1.424 . S
C494 C495 1.347 . S
C495 H487 0.951 . S
C495 C490 1.429 . S
C495 C494 1.347 . S
C137 C85 1.560 . S
C152 C8 1.562 . S
C167 C76 1.595 . S
C182 C17 1.593 . S
C197 C51 1.596 . S
C212 C110 1.593 . S
C227 C42 1.593 . S
C242 C119 1.596 . S
C257 C0 0.805 . S
C272 C29 0.805 . S
C287 C63 0.804 . S
C302 C34 0.804 . S
C317 C68 0.812 . S
C332 C97 0.812 . S
C347 C102 0.722 . S
C362 C131 0.722 . S
C377 C47 1.486 1_445 S
C392 C13 1.491 1_655 S
C407 C4 1.498 1_455 S
C422 C38 1.497 1_655 S
C437 C115 1.498 . S
C452 C81 1.497 . S
C467 C106 1.493 . S
C482 C72 1.496 . S
