# Generated by pormake.
# Topology zfx, (5)-cn, num edge types: 1
# Building blocks:
#     Node 0, Type 0, BuildingBlock: BEQFEK_clean_sbu_0, # of connection points: 5
#     Node 1, Type 0, BuildingBlock: BEQFEK_clean_sbu_0, # of connection points: 5
#     Node 2, Type 0, BuildingBlock: BEQFEK_clean_sbu_0, # of connection points: 5
#     Node 3, Type 0, BuildingBlock: BEQFEK_clean_sbu_0, # of connection points: 5
#     Node 4, Type 0, BuildingBlock: BEQFEK_clean_sbu_0, # of connection points: 5
#     Node 5, Type 0, BuildingBlock: BEQFEK_clean_sbu_0, # of connection points: 5
#     Node 6, Type 0, BuildingBlock: BEQFEK_clean_sbu_0, # of connection points: 5
#     Node 7, Type 0, BuildingBlock: BEQFEK_clean_sbu_0, # of connection points: 5
#     Node 8, Type 0, BuildingBlock: BEQFEK_clean_sbu_0, # of connection points: 5
#     Node 9, Type 0, BuildingBlock: BEQFEK_clean_sbu_0, # of connection points: 5
#     Node 10, Type 0, BuildingBlock: BEQFEK_clean_sbu_0, # of connection points: 5
#     Node 11, Type 0, BuildingBlock: BEQFEK_clean_sbu_0, # of connection points: 5
#     Node 12, Type 0, BuildingBlock: BEQFEK_clean_sbu_0, # of connection points: 5
#     Node 13, Type 0, BuildingBlock: BEQFEK_clean_sbu_0, # of connection points: 5
#     Node 14, Type 0, BuildingBlock: BEQFEK_clean_sbu_0, # of connection points: 5
#     Node 15, Type 0, BuildingBlock: BEQFEK_clean_sbu_0, # of connection points: 5
#     Edge 16, Type (0, 0), BuildingBlock: XIVTED_clean_linker_0, # of connection points: 2
#     Edge 17, Type (0, 0), BuildingBlock: XIVTED_clean_linker_0, # of connection points: 2
#     Edge 18, Type (0, 0), BuildingBlock: XIVTED_clean_linker_0, # of connection points: 2
#     Edge 19, Type (0, 0), BuildingBlock: XIVTED_clean_linker_0, # of connection points: 2
#     Edge 20, Type (0, 0), BuildingBlock: XIVTED_clean_linker_0, # of connection points: 2
#     Edge 21, Type (0, 0), BuildingBlock: XIVTED_clean_linker_0, # of connection points: 2
#     Edge 22, Type (0, 0), BuildingBlock: XIVTED_clean_linker_0, # of connection points: 2
#     Edge 23, Type (0, 0), BuildingBlock: XIVTED_clean_linker_0, # of connection points: 2
#     Edge 24, Type (0, 0), BuildingBlock: XIVTED_clean_linker_0, # of connection points: 2
#     Edge 25, Type (0, 0), BuildingBlock: XIVTED_clean_linker_0, # of connection points: 2
#     Edge 26, Type (0, 0), BuildingBlock: XIVTED_clean_linker_0, # of connection points: 2
#     Edge 27, Type (0, 0), BuildingBlock: XIVTED_clean_linker_0, # of connection points: 2
#     Edge 28, Type (0, 0), BuildingBlock: XIVTED_clean_linker_0, # of connection points: 2
#     Edge 29, Type (0, 0), BuildingBlock: XIVTED_clean_linker_0, # of connection points: 2
#     Edge 30, Type (0, 0), BuildingBlock: XIVTED_clean_linker_0, # of connection points: 2
#     Edge 31, Type (0, 0), BuildingBlock: XIVTED_clean_linker_0, # of connection points: 2
#     Edge 32, Type (0, 0), BuildingBlock: XIVTED_clean_linker_0, # of connection points: 2
#     Edge 33, Type (0, 0), BuildingBlock: XIVTED_clean_linker_0, # of connection points: 2
#     Edge 34, Type (0, 0), BuildingBlock: XIVTED_clean_linker_0, # of connection points: 2
#     Edge 35, Type (0, 0), BuildingBlock: XIVTED_clean_linker_0, # of connection points: 2
#     Edge 36, Type (0, 0), BuildingBlock: XIVTED_clean_linker_0, # of connection points: 2
#     Edge 37, Type (0, 0), BuildingBlock: XIVTED_clean_linker_0, # of connection points: 2
#     Edge 38, Type (0, 0), BuildingBlock: XIVTED_clean_linker_0, # of connection points: 2
#     Edge 39, Type (0, 0), BuildingBlock: XIVTED_clean_linker_0, # of connection points: 2
#     Edge 40, Type (0, 0), BuildingBlock: XIVTED_clean_linker_0, # of connection points: 2
#     Edge 41, Type (0, 0), BuildingBlock: XIVTED_clean_linker_0, # of connection points: 2
#     Edge 42, Type (0, 0), BuildingBlock: XIVTED_clean_linker_0, # of connection points: 2
#     Edge 43, Type (0, 0), BuildingBlock: XIVTED_clean_linker_0, # of connection points: 2
#     Edge 44, Type (0, 0), BuildingBlock: XIVTED_clean_linker_0, # of connection points: 2
#     Edge 45, Type (0, 0), BuildingBlock: XIVTED_clean_linker_0, # of connection points: 2
#     Edge 46, Type (0, 0), BuildingBlock: XIVTED_clean_linker_0, # of connection points: 2
#     Edge 47, Type (0, 0), BuildingBlock: XIVTED_clean_linker_0, # of connection points: 2
#     Edge 48, Type (0, 0), BuildingBlock: XIVTED_clean_linker_0, # of connection points: 2
#     Edge 49, Type (0, 0), BuildingBlock: XIVTED_clean_linker_0, # of connection points: 2
#     Edge 50, Type (0, 0), BuildingBlock: XIVTED_clean_linker_0, # of connection points: 2
#     Edge 51, Type (0, 0), BuildingBlock: XIVTED_clean_linker_0, # of connection points: 2
#     Edge 52, Type (0, 0), BuildingBlock: XIVTED_clean_linker_0, # of connection points: 2
#     Edge 53, Type (0, 0), BuildingBlock: XIVTED_clean_linker_0, # of connection points: 2
#     Edge 54, Type (0, 0), BuildingBlock: XIVTED_clean_linker_0, # of connection points: 2
#     Edge 55, Type (0, 0), BuildingBlock: XIVTED_clean_linker_0, # of connection points: 2
# Relax obj value: 0.596
# Max RMSD: 0.174
# Mean RMSD: 0.174
data_MOF--net-zfx--node1-BEQFEK_clean_sbu_0--edge1-XIVTED_clean_linker_0
_symmetry_space_group_name_H-M    P1
_symmetry_Int_Tables_number       1
_symmetry_cell_setting            triclinic
loop_
_symmetry_equiv_pos_as_xyz
'x, y, z'
_cell_length_a     58.566668
_cell_length_b     58.595174
_cell_length_c     25.118075
_cell_angle_alpha  90.009434
_cell_angle_beta   89.979338
_cell_angle_gamma 90.013789
loop_
_atom_site_label
_atom_site_type_symbol
_atom_site_fract_x
_atom_site_fract_y
_atom_site_fract_z
_atom_type_partial_charge
Co0 Co 0.49458 0.12308 0.43364 0.0
Co1 Co 0.54001 0.115 0.37617 0.0
C2 C 0.54069 0.14194 0.47465 0.0
O3 O 0.51936 0.13746 0.47913 0.0
O4 O 0.55198 0.13558 0.43359 0.0
C5 C 0.4592 0.11621 0.50305 0.0
O6 O 0.47462 0.10232 0.5228 0.0
C7 C 0.5813 0.11062 0.30603 0.0
C8 C 0.57453 0.07575 0.27605 0.0
C9 C 0.58963 0.09377 0.27186 0.0
N10 N 0.56204 0.10274 0.32865 0.0
N11 N 0.55841 0.08179 0.31109 0.0
C12 C 0.59029 0.13425 0.31427 0.0
H13 H 0.57802 0.14464 0.33769 0.0
H14 H 0.59361 0.14252 0.27529 0.0
H15 H 0.60665 0.13336 0.33642 0.0
C16 C 0.48101 0.14321 0.32995 0.0
N17 N 0.49615 0.13284 0.36228 0.0
N18 N 0.51542 0.1295 0.33667 0.0
C19 C 0.51325 0.13818 0.28693 0.0
C20 C 0.49128 0.1473 0.2808 0.0
C21 C 0.45674 0.14781 0.34537 0.0
H22 H 0.44997 0.13331 0.36891 0.0
H23 H 0.45609 0.16332 0.37068 0.0
H24 H 0.44572 0.15032 0.30995 0.0
O25 O 0.49575 0.08984 0.43644 0.0
O26 O 0.53138 0.08587 0.41177 0.0
H27 H 0.53546 0.12166 0.23162 0.0
H28 H 0.52871 0.15091 0.21428 0.0
C29 C 0.53239 0.13905 0.24758 0.0
H30 H 0.54814 0.14475 0.26788 0.0
H31 H 0.54438 0.07178 0.32149 0.0
O32 O 0.46457 0.12928 0.46465 0.0
C33 C 0.51316 0.07749 0.43056 0.0
Co34 Co 0.13834 0.22779 0.67985 0.0
Co35 Co 0.14575 0.27451 0.62608 0.0
C36 C 0.11721 0.27156 0.72382 0.0
O37 O 0.12119 0.25011 0.72624 0.0
O38 O 0.12491 0.28367 0.68549 0.0
C39 C 0.11627 0.1853 0.7134 0.0
O40 O 0.09625 0.19445 0.70331 0.0
C41 C 0.14516 0.31918 0.56979 0.0
C42 C 0.17426 0.31344 0.51526 0.0
C43 C 0.15736 0.32908 0.5279 0.0
N44 N 0.15418 0.29854 0.57968 0.0
N45 N 0.17184 0.29549 0.5478 0.0
C46 C 0.12613 0.3292 0.60191 0.0
H47 H 0.12682 0.32276 0.64332 0.0
H48 H 0.10953 0.32394 0.58447 0.0
H49 H 0.12727 0.3481 0.60279 0.0
C50 C 0.12252 0.21517 0.57077 0.0
N51 N 0.13077 0.23015 0.60676 0.0
N52 N 0.13269 0.25034 0.5844 0.0
C53 C 0.12471 0.24905 0.53395 0.0
C54 C 0.11815 0.22666 0.52352 0.0
C55 C 0.11805 0.19048 0.58202 0.0
H56 H 0.13167 0.18349 0.60789 0.0
H57 H 0.10137 0.18883 0.60242 0.0
H58 H 0.11722 0.18016 0.54518 0.0
O59 O 0.17094 0.23202 0.69122 0.0
O60 O 0.17578 0.26637 0.65741 0.0
H61 H 0.14128 0.27285 0.48259 0.0
H62 H 0.1131 0.26494 0.46093 0.0
C63 C 0.12374 0.26881 0.4963 0.0
H64 H 0.11686 0.28402 0.51713 0.0
H65 H 0.18184 0.28074 0.5472 0.0
O66 O 0.13425 0.19679 0.70563 0.0
C67 C 0.18362 0.24897 0.68127 0.0
Co68 Co 0.02874 0.87137 0.93042 0.0
Co69 Co 0.98378 0.88168 0.87233 0.0
C70 C 0.98279 0.85265 0.96879 0.0
O71 O 0.00435 0.85557 0.97298 0.0
O72 O 0.97156 0.86124 0.92995 0.0
C73 C 0.06109 0.87588 0.00551 0.0
O74 O 0.04358 0.88662 0.0265 0.0
C75 C 0.94277 0.88548 0.80243 0.0
C76 C 0.94569 0.92202 0.78118 0.0
C77 C 0.93256 0.90279 0.77273 0.0
N78 N 0.96108 0.89429 0.82713 0.0
N79 N 0.96245 0.91619 0.81476 0.0
C80 C 0.93671 0.8607 0.8036 0.0
H81 H 0.95036 0.85068 0.82344 0.0
H82 H 0.93401 0.85428 0.76249 0.0
H83 H 0.92056 0.85841 0.82607 0.0
C84 C 0.04237 0.85213 0.82663 0.0
N85 N 0.02732 0.86291 0.85838 0.0
N86 N 0.00837 0.86711 0.832 0.0
C87 C 0.01092 0.85886 0.78185 0.0
C88 C 0.03265 0.84913 0.77668 0.0
C89 C 0.0651 0.84365 0.84535 0.0
H90 H 0.07686 0.85837 0.85 0.0
H91 H 0.06319 0.83542 0.88488 0.0
H92 H 0.07267 0.8312 0.81713 0.0
O93 O 0.02744 0.90456 0.93815 0.0
O94 O 0.99276 0.9102 0.90865 0.0
H95 H 0.98474 0.87744 0.74094 0.0
H96 H 0.00052 0.85767 0.69938 0.0
C97 C 0.99308 0.86047 0.73949 0.0
H98 H 0.97987 0.84727 0.74682 0.0
H99 H 0.97535 0.92715 0.82764 0.0
O100 O 0.05849 0.86519 0.9619 0.0
C101 C 0.01063 0.9176 0.93083 0.0
Co102 Co 0.38939 0.76807 0.17876 0.0
Co103 Co 0.37904 0.72164 0.1255 0.0
C104 C 0.4101 0.72329 0.21923 0.0
O105 O 0.40736 0.74495 0.22143 0.0
O106 O 0.4005 0.71134 0.18289 0.0
C107 C 0.40995 0.81293 0.21338 0.0
O108 O 0.43096 0.80746 0.20031 0.0
C109 C 0.37618 0.6798 0.05754 0.0
C110 C 0.33978 0.68223 0.0347 0.0
C111 C 0.35937 0.66961 0.0263 0.0
N112 N 0.36684 0.69778 0.08259 0.0
N113 N 0.34498 0.69874 0.06954 0.0
C114 C 0.40105 0.6741 0.05954 0.0
H115 H 0.4107 0.68762 0.08081 0.0
H116 H 0.40787 0.67194 0.01861 0.0
H117 H 0.40335 0.65771 0.08099 0.0
C118 C 0.40414 0.78037 0.06898 0.0
N119 N 0.39534 0.76565 0.10482 0.0
N120 N 0.39212 0.74567 0.08192 0.0
C121 C 0.3995 0.74707 0.03085 0.0
C122 C 0.40742 0.76908 0.02126 0.0
C123 C 0.4099 0.80476 0.0802 0.0
H124 H 0.39705 0.81229 0.10734 0.0
H125 H 0.427 0.80556 0.09896 0.0
H126 H 0.41051 0.81497 0.04306 0.0
O127 O 0.35672 0.76525 0.19445 0.0
O128 O 0.35067 0.73109 0.16165 0.0
H129 H 0.38224 0.71939 0.99248 0.0
H130 H 0.40288 0.73392 0.95088 0.0
C131 C 0.39917 0.72783 0.99183 0.0
H132 H 0.41231 0.71517 0.00332 0.0
H133 H 0.33371 0.71139 0.08228 0.0
O134 O 0.39391 0.79883 0.20603 0.0
C135 C 0.34356 0.74855 0.18613 0.0
Co136 Co 0.49206 0.87149 0.56866 0.0
Co137 Co 0.53774 0.88001 0.62621 0.0
C138 C 0.53586 0.85187 0.52544 0.0
O139 O 0.51414 0.85391 0.52303 0.0
O140 O 0.54727 0.86096 0.56333 0.0
C141 C 0.44984 0.85268 0.52407 0.0
O142 O 0.45881 0.83215 0.52575 0.0
C143 C 0.58214 0.87769 0.68329 0.0
C144 C 0.57805 0.90796 0.73504 0.0
C145 C 0.59283 0.89017 0.72361 0.0
N146 N 0.56191 0.88752 0.67294 0.0
N147 N 0.55981 0.9058 0.70326 0.0
C148 C 0.59108 0.8576 0.65296 0.0
H149 H 0.58384 0.85725 0.61232 0.0
H150 H 0.58589 0.84165 0.67349 0.0
H151 H 0.60997 0.85829 0.64984 0.0
C152 C 0.47883 0.85274 0.67436 0.0
N153 N 0.49381 0.86286 0.64115 0.0
N154 N 0.51327 0.86611 0.6661 0.0
C155 C 0.51127 0.85797 0.71634 0.0
C156 C 0.48928 0.84927 0.7234 0.0
C157 C 0.45564 0.84474 0.65757 0.0
H158 H 0.45768 0.8314 0.62675 0.0
H159 H 0.44571 0.83724 0.69072 0.0
H160 H 0.44599 0.85919 0.64008 0.0
O161 O 0.49706 0.90438 0.55819 0.0
O162 O 0.52981 0.9104 0.59861 0.0
H163 H 0.52488 0.85088 0.79498 0.0
H164 H 0.54548 0.85077 0.74102 0.0
C165 C 0.5299 0.8591 0.75699 0.0
H166 H 0.53408 0.87723 0.76501 0.0
H167 H 0.54561 0.91655 0.70306 0.0
O168 O 0.46102 0.8695 0.54166 0.0
C169 C 0.51304 0.9177 0.57182 0.0
Co170 Co 0.38845 0.22844 0.81495 0.0
Co171 Co 0.38172 0.27303 0.87519 0.0
C172 C 0.4068 0.27466 0.77441 0.0
O173 O 0.40215 0.25344 0.76928 0.0
O174 O 0.40124 0.2855 0.81663 0.0
C175 C 0.38101 0.19836 0.73708 0.0
O176 O 0.37018 0.21674 0.72099 0.0
C177 C 0.37958 0.31516 0.94032 0.0
C178 C 0.34536 0.31034 0.97607 0.0
C179 C 0.36355 0.32539 0.97398 0.0
N180 N 0.37097 0.29519 0.92367 0.0
N181 N 0.35049 0.29254 0.94481 0.0
C182 C 0.40314 0.32305 0.92633 0.0
H183 H 0.41283 0.30923 0.90627 0.0
H184 H 0.41244 0.32844 0.9627 0.0
H185 H 0.40201 0.33778 0.89871 0.0
C186 C 0.41039 0.21361 0.91637 0.0
N187 N 0.39966 0.22903 0.88542 0.0
N188 N 0.39675 0.2481 0.91213 0.0
C189 C 0.4061 0.24553 0.96105 0.0
C190 C 0.41514 0.22349 0.9657 0.0
C191 C 0.41471 0.18947 0.89963 0.0
H192 H 0.40081 0.18348 0.87315 0.0
H193 H 0.43098 0.18869 0.87709 0.0
H194 H 0.41586 0.17796 0.93459 0.0
O195 O 0.3552 0.22976 0.81577 0.0
O196 O 0.35185 0.26513 0.84275 0.0
H197 H 0.39104 0.26552 0.0228 0.0
H198 H 0.42148 0.26135 0.03016 0.0
C199 C 0.40752 0.26435 0.00116 0.0
H200 H 0.41051 0.28081 0.98077 0.0
H201 H 0.34002 0.2784 0.93831 0.0
O202 O 0.39314 0.19935 0.77901 0.0
C203 C 0.34306 0.24717 0.82381 0.0
Co204 Co 0.03587 0.12062 0.06976 0.0
Co205 Co 0.98977 0.11659 0.1279 0.0
C206 C 0.99259 0.14282 0.02658 0.0
O207 O 0.01376 0.1377 0.02294 0.0
O208 O 0.9807 0.13655 0.06668 0.0
C209 C 0.07862 0.13759 0.02411 0.0
O210 O 0.07182 0.15863 0.03276 0.0
C211 C 0.9455 0.11965 0.18609 0.0
C212 C 0.95087 0.09112 0.24241 0.0
C213 C 0.93537 0.1079 0.22828 0.0
N214 N 0.9661 0.11033 0.17695 0.0
N215 N 0.96898 0.09311 0.21016 0.0
C216 C 0.93561 0.1384 0.15292 0.0
H217 H 0.94203 0.13725 0.11155 0.0
H218 H 0.94099 0.15511 0.1695 0.0
H219 H 0.91668 0.13744 0.1523 0.0
C220 C 0.05073 0.13969 0.17434 0.0
N221 N 0.03506 0.1305 0.14137 0.0
N222 N 0.01524 0.1295 0.16587 0.0
C223 C 0.01753 0.13877 0.21489 0.0
C224 C 0.04016 0.14544 0.22203 0.0
C225 C 0.07504 0.14415 0.15913 0.0
H226 H 0.08174 0.1297 0.13533 0.0
H227 H 0.07577 0.15989 0.13477 0.0
H228 H 0.08614 0.14674 0.19426 0.0
O229 O 0.02987 0.08817 0.06441 0.0
O230 O 0.99569 0.08537 0.10009 0.0
H231 H 0.99404 0.12362 0.26935 0.0
H232 H 0.00324 0.15171 0.28865 0.0
C233 C 0.99847 0.14085 0.25427 0.0
H234 H 0.98315 0.148 0.23439 0.0
H235 H 0.98357 0.0829 0.21128 0.0
O236 O 0.06627 0.12111 0.03896 0.0
C237 C 0.01263 0.07635 0.07677 0.0
Co238 Co 0.13726 0.76417 0.3219 0.0
Co239 Co 0.14613 0.71947 0.38069 0.0
C240 C 0.11846 0.71783 0.28368 0.0
O241 O 0.12298 0.73905 0.27847 0.0
O242 O 0.12502 0.70677 0.32486 0.0
C243 C 0.1413 0.79387 0.24292 0.0
O244 O 0.15178 0.77547 0.22571 0.0
C245 C 0.15077 0.67921 0.45301 0.0
C246 C 0.18721 0.68328 0.47429 0.0
C247 C 0.16826 0.66985 0.48361 0.0
N248 N 0.15918 0.69737 0.42698 0.0
N249 N 0.18104 0.6994 0.43936 0.0
C250 C 0.12612 0.67256 0.45239 0.0
H251 H 0.11579 0.68561 0.43128 0.0
H252 H 0.11976 0.67041 0.49373 0.0
H253 H 0.12424 0.65598 0.43152 0.0
C254 C 0.11708 0.77838 0.42489 0.0
N255 N 0.12772 0.76311 0.39342 0.0
N256 N 0.13169 0.74425 0.42025 0.0
C257 C 0.12344 0.74703 0.4703 0.0
C258 C 0.11392 0.76883 0.47501 0.0
C259 C 0.10925 0.80131 0.40607 0.0
H260 H 0.12424 0.81282 0.40282 0.0
H261 H 0.10154 0.79972 0.36591 0.0
H262 H 0.09659 0.80896 0.43366 0.0
O263 O 0.17059 0.76381 0.31789 0.0
O264 O 0.17472 0.72834 0.3433 0.0
H265 H 0.14221 0.72134 0.51236 0.0
H266 H 0.12202 0.73697 0.55304 0.0
C267 C 0.1251 0.72941 0.51317 0.0
H268 H 0.11214 0.71597 0.50582 0.0
H269 H 0.19171 0.71238 0.4257 0.0
O270 O 0.13073 0.79312 0.28709 0.0
C271 C 0.183 0.74643 0.32371 0.0
Co272 Co 0.88926 0.72694 0.32101 0.0
Co273 Co 0.88045 0.77268 0.37754 0.0
C274 C 0.90781 0.77138 0.27666 0.0
O275 O 0.90548 0.74972 0.27453 0.0
O276 O 0.89927 0.78293 0.31498 0.0
C277 C 0.90717 0.69232 0.25834 0.0
O278 O 0.9236 0.7072 0.25081 0.0
C279 C 0.88198 0.81676 0.43508 0.0
C280 C 0.85157 0.81232 0.48635 0.0
C281 C 0.86929 0.82722 0.47523 0.0
N282 N 0.87233 0.79649 0.42436 0.0
N283 N 0.85397 0.79417 0.45438 0.0
C284 C 0.9021 0.82597 0.40528 0.0
H285 H 0.90183 0.81993 0.36356 0.0
H286 H 0.91804 0.81966 0.42406 0.0
H287 H 0.90206 0.84491 0.40518 0.0
C288 C 0.9094 0.71447 0.42436 0.0
N289 N 0.89859 0.72925 0.39209 0.0
N290 N 0.89509 0.74857 0.41728 0.0
C291 C 0.90359 0.74662 0.4672 0.0
C292 C 0.91287 0.7248 0.47348 0.0
C293 C 0.91762 0.69149 0.40672 0.0
H294 H 0.90279 0.67979 0.40316 0.0
H295 H 0.9257 0.69294 0.36695 0.0
H296 H 0.9302 0.68413 0.43489 0.0
O297 O 0.85621 0.73048 0.31255 0.0
O298 O 0.85029 0.76401 0.34952 0.0
H299 H 0.8839 0.76919 0.51559 0.0
H300 H 0.91004 0.75987 0.54648 0.0
C301 C 0.9021 0.76504 0.50829 0.0
H302 H 0.91053 0.78069 0.49303 0.0
H303 H 0.84334 0.77987 0.45386 0.0
O304 O 0.89276 0.696 0.29458 0.0
C305 C 0.84293 0.74666 0.32486 0.0
Co306 Co 0.64217 0.26787 0.81826 0.0
Co307 Co 0.64705 0.2225 0.87748 0.0
C308 C 0.62113 0.22364 0.77584 0.0
O309 O 0.62599 0.24484 0.77164 0.0
O310 O 0.62732 0.21219 0.81666 0.0
C311 C 0.62101 0.30902 0.78019 0.0
O312 O 0.60135 0.3001 0.79443 0.0
C313 C 0.64638 0.17806 0.93442 0.0
C314 C 0.67196 0.18592 0.99657 0.0
C315 C 0.65735 0.16896 0.97887 0.0
N316 N 0.65396 0.19949 0.92744 0.0
N317 N 0.66951 0.20388 0.96406 0.0
C318 C 0.63017 0.1665 0.89712 0.0
H319 H 0.63305 0.17259 0.8559 0.0
H320 H 0.61239 0.17088 0.90852 0.0
H321 H 0.63242 0.1477 0.89806 0.0
C322 C 0.62265 0.28298 0.9235 0.0
N323 N 0.63197 0.26739 0.89026 0.0
N324 N 0.63332 0.24768 0.91507 0.0
C325 C 0.62422 0.25 0.96435 0.0
C326 C 0.61713 0.27245 0.97124 0.0
C327 C 0.62052 0.30794 0.91206 0.0
H328 H 0.6343 0.31358 0.88486 0.0
H329 H 0.60366 0.31136 0.89369 0.0
H330 H 0.6215 0.31801 0.94945 0.0
O331 O 0.67501 0.26341 0.81369 0.0
O332 O 0.6782 0.22939 0.85 0.0
H333 H 0.63771 0.22821 0.02463 0.0
H334 H 0.60793 0.23493 0.03302 0.0
C335 C 0.62136 0.2309 0.00327 0.0
H336 H 0.61688 0.21492 0.98201 0.0
H337 H 0.67818 0.21938 0.96735 0.0
O338 O 0.63925 0.29796 0.78717 0.0
C339 C 0.68709 0.24645 0.82682 0.0
Co340 Co 0.63798 0.72905 0.18501 0.0
Co341 Co 0.64666 0.77383 0.12443 0.0
C342 C 0.61821 0.77536 0.22093 0.0
O343 O 0.62197 0.75397 0.22603 0.0
O344 O 0.6262 0.78657 0.18134 0.0
C345 C 0.64505 0.7007 0.26404 0.0
O346 O 0.65378 0.72036 0.27892 0.0
C347 C 0.65112 0.81421 0.0514 0.0
C348 C 0.68597 0.80693 0.0219 0.0
C349 C 0.66806 0.82211 0.0169 0.0
N350 N 0.65885 0.79516 0.07509 0.0
N351 N 0.67979 0.79121 0.05772 0.0
C352 C 0.62752 0.82341 0.05897 0.0
H353 H 0.617 0.81141 0.08286 0.0
H354 H 0.61934 0.82642 0.01974 0.0
H355 H 0.62847 0.83995 0.08033 0.0
C356 C 0.61836 0.71402 0.08242 0.0
N357 N 0.62881 0.72943 0.11374 0.0
N358 N 0.63237 0.74839 0.08699 0.0
C359 C 0.62387 0.74565 0.03729 0.0
C360 C 0.61458 0.72373 0.03265 0.0
C361 C 0.61295 0.69018 0.09974 0.0
H362 H 0.62655 0.68376 0.12655 0.0
H363 H 0.59664 0.69024 0.12221 0.0
H364 H 0.61134 0.67853 0.06512 0.0
O365 O 0.67131 0.73104 0.18825 0.0
O366 O 0.67571 0.7661 0.16029 0.0
H367 H 0.64078 0.76741 0.98163 0.0
H368 H 0.61183 0.76007 0.96286 0.0
C369 C 0.62324 0.76429 0.99666 0.0
H370 H 0.61712 0.78021 0.01559 0.0
H371 H 0.68971 0.77723 0.06891 0.0
O372 O 0.63325 0.69987 0.22157 0.0
C373 C 0.68385 0.74819 0.18085 0.0
Co374 Co 0.89287 0.26696 0.68118 0.0
Co375 Co 0.88288 0.22045 0.62837 0.0
C376 C 0.91358 0.22145 0.72054 0.0
O377 O 0.90969 0.24293 0.72383 0.0
O378 O 0.90529 0.20949 0.68256 0.0
C379 C 0.91979 0.30775 0.70779 0.0
O380 O 0.93848 0.29715 0.69277 0.0
C381 C 0.87711 0.17878 0.56036 0.0
C382 C 0.84106 0.18404 0.53723 0.0
C383 C 0.8596 0.1699 0.529 0.0
N384 N 0.86919 0.19748 0.58523 0.0
N385 N 0.8475 0.20012 0.57205 0.0
C386 C 0.90138 0.17094 0.5631 0.0
H387 H 0.91189 0.18312 0.58643 0.0
H388 H 0.90846 0.16905 0.52233 0.0
H389 H 0.90205 0.15399 0.58271 0.0
C390 C 0.90687 0.27925 0.57149 0.0
N391 N 0.89822 0.26443 0.60716 0.0
N392 N 0.89576 0.24434 0.5846 0.0
C393 C 0.90386 0.24559 0.53411 0.0
C394 C 0.91148 0.26781 0.52438 0.0
C395 C 0.90902 0.30443 0.58041 0.0
H396 H 0.89589 0.31039 0.60902 0.0
H397 H 0.92624 0.30839 0.5961 0.0
H398 H 0.90688 0.31384 0.54238 0.0
O399 O 0.86048 0.26527 0.6979 0.0
O400 O 0.85528 0.23031 0.66846 0.0
H401 H 0.88895 0.2179 0.49095 0.0
H402 H 0.91398 0.22998 0.45935 0.0
C403 C 0.90606 0.22543 0.49797 0.0
H404 H 0.91681 0.21238 0.51763 0.0
H405 H 0.83727 0.21363 0.58475 0.0
O406 O 0.90077 0.29748 0.70599 0.0
C407 C 0.84788 0.24792 0.69217 0.0
Co408 Co 0.99186 0.62195 0.93146 0.0
Co409 Co 0.03859 0.61573 0.87822 0.0
C410 C 0.03568 0.64291 0.97725 0.0
O411 O 0.01425 0.63871 0.97947 0.0
O412 O 0.04775 0.6358 0.93836 0.0
C413 C 0.95092 0.64656 0.9561 0.0
O414 O 0.96199 0.66483 0.94007 0.0
C415 C 0.08343 0.61745 0.82353 0.0
C416 C 0.07873 0.58844 0.76824 0.0
C417 C 0.09395 0.6055 0.78226 0.0
N418 N 0.06285 0.60805 0.83214 0.0
N419 N 0.06036 0.5905 0.79969 0.0
C420 C 0.09283 0.63669 0.85604 0.0
H421 H 0.08686 0.6353 0.89772 0.0
H422 H 0.08657 0.65313 0.83969 0.0
H423 H 0.11178 0.63655 0.85591 0.0
C424 C 0.97924 0.63771 0.82146 0.0
N425 N 0.99424 0.63 0.85818 0.0
N426 N 0.01472 0.62936 0.83688 0.0
C427 C 0.01365 0.63808 0.78707 0.0
C428 C 0.99107 0.64358 0.77556 0.0
C429 C 0.95393 0.63907 0.82931 0.0
H430 H 0.94821 0.62618 0.85865 0.0
H431 H 0.9493 0.65644 0.84307 0.0
H432 H 0.94466 0.63602 0.79158 0.0
O433 O 0.99569 0.58919 0.94149 0.0
O434 O 0.03018 0.58521 0.90751 0.0
H435 H 0.03856 0.62349 0.73533 0.0
H436 H 0.02984 0.65184 0.71657 0.0
C437 C 0.03376 0.64055 0.75082 0.0
H438 H 0.04851 0.64746 0.77335 0.0
H439 H 0.04579 0.58026 0.79817 0.0
O440 O 0.96093 0.62743 0.95624 0.0
C441 C 0.01282 0.57683 0.9307 0.0
Co442 Co 0.53326 0.37432 0.43349 0.0
Co443 Co 0.48879 0.3817 0.37229 0.0
C444 C 0.48764 0.35573 0.47332 0.0
O445 O 0.50874 0.36053 0.47934 0.0
O446 O 0.47704 0.36136 0.43084 0.0
C447 C 0.56248 0.38334 0.51087 0.0
O448 O 0.54335 0.39349 0.52449 0.0
C449 C 0.44935 0.37882 0.29923 0.0
C450 C 0.44522 0.41536 0.27901 0.0
C451 C 0.43643 0.39393 0.26938 0.0
N452 N 0.4652 0.39085 0.32554 0.0
N453 N 0.46244 0.41269 0.31369 0.0
C454 C 0.44643 0.35352 0.30332 0.0
H455 H 0.45547 0.34681 0.33886 0.0
H456 H 0.45352 0.3452 0.26734 0.0
H457 H 0.428 0.34919 0.30535 0.0
C458 C 0.54802 0.35186 0.33344 0.0
N459 N 0.53253 0.36299 0.36335 0.0
N460 N 0.51444 0.36786 0.33449 0.0
C461 C 0.51832 0.36055 0.28409 0.0
C462 C 0.53974 0.34992 0.28157 0.0
C463 C 0.56977 0.34238 0.35554 0.0
H464 H 0.56761 0.33818 0.3983 0.0
H465 H 0.57507 0.32681 0.33364 0.0
H466 H 0.58342 0.35543 0.35203 0.0
O467 O 0.53128 0.40772 0.43163 0.0
O468 O 0.49587 0.4115 0.40526 0.0
H469 H 0.51263 0.3673 0.2008 0.0
H470 H 0.49078 0.35085 0.23327 0.0
C471 C 0.50275 0.36533 0.23823 0.0
H472 H 0.49282 0.38111 0.24543 0.0
H473 H 0.47267 0.42587 0.32815 0.0
O474 O 0.56265 0.37058 0.46985 0.0
C475 C 0.51392 0.42003 0.42431 0.0
Co476 Co 0.99269 0.3702 0.07037 0.0
Co477 Co 0.03925 0.37987 0.12516 0.0
C478 C 0.03875 0.35067 0.03021 0.0
O479 O 0.01724 0.35443 0.02674 0.0
O480 O 0.05052 0.35843 0.06914 0.0
C481 C 0.94222 0.35482 0.03201 0.0
O482 O 0.93045 0.34054 0.06153 0.0
C483 C 0.08074 0.38504 0.19479 0.0
C484 C 0.07429 0.42032 0.22223 0.0
C485 C 0.08899 0.40208 0.22855 0.0
N486 N 0.06186 0.39296 0.17052 0.0
N487 N 0.05849 0.4142 0.18642 0.0
C488 C 0.08946 0.3612 0.18867 0.0
H489 H 0.07755 0.35082 0.16428 0.0
H490 H 0.09183 0.35323 0.22838 0.0
H491 H 0.1063 0.36163 0.16846 0.0
C492 C 0.98071 0.3541 0.1784 0.0
N493 N 0.9955 0.36362 0.14388 0.0
N494 N 0.01544 0.36605 0.16712 0.0
C495 C 0.01411 0.3572 0.21689 0.0
C496 C 0.99198 0.34904 0.22546 0.0
C497 C 0.9558 0.35104 0.16777 0.0
H498 H 0.94939 0.36531 0.14304 0.0
H499 H 0.95325 0.33465 0.14657 0.0
H500 H 0.94588 0.35061 0.20541 0.0
O501 O 0.994 0.40299 0.05679 0.0
O502 O 0.0289 0.40794 0.08745 0.0
H503 H 0.04031 0.37208 0.26478 0.0
H504 H 0.02991 0.34497 0.28964 0.0
C505 C 0.03413 0.35486 0.25335 0.0
H506 H 0.04808 0.34602 0.23197 0.0
H507 H 0.04471 0.42428 0.17472 0.0
O508 O 0.96201 0.36087 0.04695 0.0
C509 C 0.01126 0.41561 0.06421 0.0
Co510 Co 0.5336 0.62358 0.56685 0.0
Co511 Co 0.48802 0.61758 0.62526 0.0
C512 C 0.48939 0.64498 0.5257 0.0
O513 O 0.51095 0.64166 0.52281 0.0
O514 O 0.47762 0.63675 0.56405 0.0
C515 C 0.57656 0.644 0.53572 0.0
O516 O 0.56883 0.66362 0.55356 0.0
C517 C 0.44348 0.61671 0.68238 0.0
C518 C 0.45288 0.59249 0.74626 0.0
C519 C 0.43506 0.60581 0.72768 0.0
N520 N 0.46531 0.61026 0.67566 0.0
N521 N 0.47063 0.59553 0.71342 0.0
C522 C 0.43102 0.63188 0.64433 0.0
H523 H 0.43745 0.62917 0.6033 0.0
H524 H 0.43418 0.64996 0.65519 0.0
H525 H 0.41239 0.62842 0.64524 0.0
C526 C 0.54878 0.64008 0.67392 0.0
N527 N 0.53304 0.63184 0.63968 0.0
N528 N 0.513 0.63159 0.66307 0.0
C529 C 0.51509 0.64104 0.71199 0.0
C530 C 0.53793 0.64683 0.72059 0.0
C531 C 0.57405 0.63868 0.66539 0.0
H532 H 0.57824 0.62474 0.63721 0.0
H533 H 0.58047 0.6551 0.64947 0.0
H534 H 0.58294 0.63544 0.70369 0.0
O535 O 0.52847 0.59113 0.55759 0.0
O536 O 0.4952 0.58668 0.59705 0.0
H537 H 0.49267 0.63099 0.77476 0.0
H538 H 0.49876 0.6611 0.77313 0.0
C539 C 0.49537 0.64585 0.74815 0.0
H540 H 0.47961 0.64867 0.7246 0.0
H541 H 0.48662 0.58784 0.71719 0.0
O542 O 0.56403 0.62648 0.53754 0.0
C543 C 0.51196 0.57856 0.57129 0.0
H544 H 0.47587 0.05254 0.46103 0.0
H545 H 0.54883 0.94759 0.56822 0.0
H546 H 0.54901 0.04788 0.44189 0.0
H547 H 0.47691 0.94214 0.53253 0.0
H548 H 0.54875 0.98632 0.53216 0.0
H549 H 0.47551 0.01363 0.49611 0.0
C550 C 0.49184 0.04331 0.46393 0.0
C551 C 0.51253 0.05349 0.44854 0.0
C552 C 0.533 0.97663 0.53229 0.0
C553 C 0.51221 0.00913 0.48927 0.0
C554 C 0.53297 0.9546 0.55321 0.0
C555 C 0.51284 0.94162 0.55333 0.0
C556 C 0.51268 0.98588 0.51205 0.0
C557 C 0.49283 0.95153 0.53304 0.0
C558 C 0.4916 0.02111 0.48393 0.0
C559 C 0.53269 0.04071 0.45321 0.0
N560 N 0.49323 0.97313 0.51336 0.0
N561 N 0.53204 0.01924 0.47355 0.0
H562 H 0.31707 0.21029 0.79623 0.0
H563 H 0.21343 0.28493 0.68732 0.0
H564 H 0.3143 0.28364 0.812 0.0
H565 H 0.20798 0.21271 0.7194 0.0
H566 H 0.25204 0.28454 0.72443 0.0
H567 H 0.27821 0.21064 0.76107 0.0
C568 C 0.30823 0.22646 0.79264 0.0
C569 C 0.31893 0.24698 0.80702 0.0
C570 C 0.24234 0.26881 0.72332 0.0
C571 C 0.27464 0.2475 0.7661 0.0
C572 C 0.22039 0.26897 0.70183 0.0
C573 C 0.20745 0.24883 0.70036 0.0
C574 C 0.25149 0.24832 0.74288 0.0
C575 C 0.21731 0.22866 0.71991 0.0
C576 C 0.28607 0.22664 0.77255 0.0
C577 C 0.30667 0.26742 0.80154 0.0
N578 N 0.23876 0.22891 0.74026 0.0
N579 N 0.28521 0.26718 0.78107 0.0
H580 H 0.9754 0.04809 0.06925 0.0
H581 H 0.04778 0.94123 0.96695 0.0
H582 H 0.04849 0.04968 0.04666 0.0
H583 H 0.97505 0.94746 0.94255 0.0
H584 H 0.0482 0.9794 0.00591 0.0
H585 H 0.9748 0.00908 0.034 0.0
C586 C 0.99132 0.04017 0.05741 0.0
C587 C 0.01201 0.05216 0.06059 0.0
C588 C 0.03217 0.97243 0.99187 0.0
C589 C 0.01142 0.00777 0.02028 0.0
C590 C 0.03192 0.95066 0.96959 0.0
C591 C 0.01136 0.94117 0.95139 0.0
C592 C 0.01168 0.98469 0.99659 0.0
C593 C 0.9913 0.95417 0.95586 0.0
C594 C 0.99094 0.01801 0.03697 0.0
C595 C 0.03213 0.04112 0.04453 0.0
N596 N 0.99194 0.97525 0.97832 0.0
N597 N 0.03133 0.01955 0.02506 0.0
H598 H 0.31856 0.78565 0.21841 0.0
H599 H 0.2133 0.71095 0.31975 0.0
H600 H 0.31468 0.71249 0.19978 0.0
H601 H 0.20745 0.78304 0.28655 0.0
H602 H 0.25246 0.71179 0.28648 0.0
H603 H 0.27942 0.78558 0.25311 0.0
C604 C 0.30949 0.76959 0.22168 0.0
C605 C 0.31987 0.74904 0.20622 0.0
C606 C 0.24258 0.72742 0.28648 0.0
C607 C 0.27537 0.74883 0.24632 0.0
C608 C 0.22026 0.72698 0.30568 0.0
C609 C 0.20704 0.74694 0.30583 0.0
C610 C 0.25186 0.748 0.26777 0.0
C611 C 0.217 0.76723 0.28709 0.0
C612 C 0.28718 0.76958 0.24132 0.0
C613 C 0.30732 0.72874 0.21105 0.0
N614 N 0.23886 0.76725 0.26889 0.0
N615 N 0.28579 0.72913 0.23099 0.0
H616 H 0.81747 0.70935 0.29722 0.0
H617 H 0.71503 0.78301 0.17952 0.0
H618 H 0.81436 0.78278 0.30945 0.0
H619 H 0.70713 0.71225 0.22436 0.0
H620 H 0.75379 0.78236 0.21549 0.0
H621 H 0.77871 0.70931 0.26056 0.0
C622 C 0.80858 0.72544 0.29241 0.0
C623 C 0.81906 0.7461 0.30649 0.0
C624 C 0.74352 0.76701 0.21742 0.0
C625 C 0.77511 0.74619 0.26379 0.0
C626 C 0.72146 0.76732 0.19667 0.0
C627 C 0.70779 0.74769 0.19915 0.0
C628 C 0.75203 0.74688 0.24031 0.0
C629 C 0.71706 0.7278 0.22169 0.0
C630 C 0.78652 0.72539 0.27154 0.0
C631 C 0.80682 0.76646 0.29949 0.0
N632 N 0.73864 0.7279 0.2414 0.0
N633 N 0.78554 0.76601 0.27817 0.0
H634 H 0.8235 0.28437 0.72974 0.0
H635 H 0.71634 0.20991 0.82281 0.0
H636 H 0.81908 0.21154 0.70525 0.0
H637 H 0.71351 0.28278 0.79809 0.0
H638 H 0.75611 0.2101 0.79245 0.0
H639 H 0.78494 0.28394 0.76686 0.0
C640 C 0.81444 0.26829 0.73221 0.0
C641 C 0.82449 0.24797 0.71418 0.0
C642 C 0.74675 0.22603 0.7939 0.0
C643 C 0.78048 0.24735 0.75704 0.0
C644 C 0.72413 0.22596 0.81147 0.0
C645 C 0.71156 0.24634 0.81265 0.0
C646 C 0.75691 0.24667 0.77809 0.0
C647 C 0.72249 0.26664 0.7974 0.0
C648 C 0.79243 0.26806 0.75334 0.0
C649 C 0.81194 0.22763 0.71838 0.0
N650 N 0.74453 0.26629 0.78076 0.0
N651 N 0.79059 0.22782 0.73955 0.0
H652 H 0.04882 0.54685 0.93213 0.0
H653 H 0.97441 0.44159 0.03584 0.0
H654 H 0.97686 0.55174 0.9681 0.0
H655 H 0.04792 0.44372 0.04782 0.0
H656 H 0.97478 0.4807 0.00192 0.0
H657 H 0.04858 0.50745 0.96462 0.0
C658 C 0.03295 0.53962 0.94654 0.0
C659 C 0.01283 0.55264 0.94748 0.0
C660 C 0.99082 0.4726 0.01203 0.0
C661 C 0.01247 0.50764 0.98459 0.0
C662 C 0.99062 0.45027 0.03127 0.0
C663 C 0.01115 0.43939 0.04467 0.0
C664 C 0.01171 0.48401 0.00537 0.0
C665 C 0.03167 0.4515 0.03817 0.0
C666 C 0.03287 0.51719 0.96533 0.0
C667 C 0.99279 0.54239 0.96676 0.0
N668 N 0.03144 0.47313 0.01867 0.0
N669 N 0.99312 0.5205 0.98444 0.0
H670 H 0.5503 0.44434 0.46206 0.0
H671 H 0.47529 0.54983 0.56058 0.0
H672 H 0.47796 0.44983 0.4309 0.0
H673 H 0.54854 0.55273 0.54223 0.0
H674 H 0.47566 0.51106 0.52385 0.0
H675 H 0.54969 0.48251 0.50074 0.0
C676 C 0.53432 0.45365 0.46289 0.0
C677 C 0.51415 0.44389 0.44309 0.0
C678 C 0.49163 0.52021 0.52806 0.0
C679 C 0.51332 0.48745 0.48806 0.0
C680 C 0.49145 0.54222 0.54938 0.0
C681 C 0.5119 0.5545 0.55415 0.0
C682 C 0.51243 0.51041 0.51222 0.0
C683 C 0.53236 0.54391 0.5388 0.0
C684 C 0.53399 0.47541 0.48511 0.0
C685 C 0.49392 0.45672 0.44553 0.0
N686 N 0.5321 0.52246 0.51857 0.0
N687 N 0.49399 0.47782 0.46796 0.0
H688 H 0.46599 0.1867 0.2804 0.0
H689 H 0.45347 0.19635 0.96454 0.0
H690 H 0.49327 0.13569 0.17433 0.0
H691 H 0.40475 0.2263 0.07263 0.0
H692 H 0.47232 0.17785 0.04018 0.0
H693 H 0.44762 0.20537 0.2044 0.0
C694 C 0.4681 0.17936 0.24113 0.0
C695 C 0.48111 0.15944 0.23398 0.0
C696 C 0.45751 0.18848 0.04732 0.0
C697 C 0.46051 0.18119 0.14626 0.0
C698 C 0.44663 0.19898 0.0041 0.0
C699 C 0.42733 0.21286 0.01194 0.0
C700 C 0.44935 0.19215 0.09921 0.0
C701 C 0.41971 0.21605 0.06452 0.0
C702 C 0.45765 0.19011 0.19772 0.0
C703 C 0.48363 0.15112 0.18181 0.0
N704 N 0.43076 0.20587 0.10603 0.0
N705 N 0.4735 0.16203 0.14001 0.0
H706 H 0.07606 0.13093 0.28209 0.0
H707 H 0.07749 0.23871 0.47798 0.0
H708 H 0.02841 0.1865 0.26647 0.0
H709 H 0.13411 0.19247 0.45997 0.0
H710 H 0.05782 0.21925 0.40429 0.0
H711 H 0.0957 0.15186 0.35301 0.0
C712 C 0.06972 0.14755 0.29386 0.0
C713 C 0.05073 0.1571 0.26832 0.0
C714 C 0.07462 0.21346 0.41621 0.0
C715 C 0.07298 0.18117 0.34958 0.0
C716 C 0.08587 0.22465 0.45793 0.0
C717 C 0.10735 0.21706 0.47502 0.0
C718 C 0.08488 0.19443 0.39189 0.0
C719 C 0.11744 0.19866 0.44821 0.0
C720 C 0.08094 0.15952 0.33418 0.0
C721 C 0.04297 0.17854 0.28544 0.0
N722 N 0.10605 0.18784 0.40835 0.0
N723 N 0.05413 0.18989 0.32502 0.0
H724 H 0.12476 0.80954 0.52121 0.0
H725 H 0.01646 0.81303 0.71751 0.0
H726 H 0.07756 0.75348 0.53464 0.0
H727 H 0.07359 0.85898 0.73016 0.0
H728 H 0.03643 0.79264 0.64537 0.0
H729 H 0.10465 0.82921 0.59346 0.0
C730 C 0.11019 0.80133 0.53968 0.0
C731 C 0.10283 0.77985 0.52197 0.0
C732 C 0.04456 0.80722 0.66382 0.0
C733 C 0.07938 0.80244 0.60444 0.0
C734 C 0.03308 0.81897 0.70463 0.0
C735 C 0.04338 0.83774 0.72976 0.0
C736 C 0.0664 0.81448 0.64754 0.0
C737 C 0.06506 0.84457 0.71193 0.0
C738 C 0.09869 0.81257 0.58092 0.0
C739 C 0.08387 0.76997 0.54736 0.0
N740 N 0.07578 0.83303 0.67202 0.0
N741 N 0.07269 0.7814 0.58698 0.0
H742 H 0.38987 0.79859 0.9485 0.0
H743 H 0.50554 0.81262 0.78031 0.0
H744 H 0.45121 0.76184 0.98777 0.0
H745 H 0.44951 0.86014 0.77381 0.0
H746 H 0.48583 0.79194 0.8522 0.0
H747 H 0.41056 0.81841 0.87722 0.0
C748 C 0.40765 0.79449 0.94139 0.0
C749 C 0.41885 0.77847 0.97339 0.0
C750 C 0.4779 0.80695 0.83518 0.0
C751 C 0.44286 0.80141 0.89298 0.0
C752 C 0.48922 0.81884 0.79451 0.0
C753 C 0.47905 0.83802 0.77092 0.0
C754 C 0.45613 0.81416 0.85188 0.0
C755 C 0.45781 0.84526 0.79048 0.0
C756 C 0.41953 0.80594 0.90116 0.0
C757 C 0.44196 0.7739 0.96326 0.0
N758 N 0.44697 0.83323 0.82932 0.0
N759 N 0.45326 0.78536 0.924 0.0
H760 H 0.61626 0.91899 0.78902 0.0
H761 H 0.6866 0.81805 0.91868 0.0
H762 H 0.61485 0.84859 0.73728 0.0
H763 H 0.64581 0.86379 0.0143 0.0
H764 H 0.6772 0.84043 0.8401 0.0
H765 H 0.64306 0.90811 0.85945 0.0
C766 C 0.62208 0.90147 0.79095 0.0
C767 C 0.6131 0.88474 0.7565 0.0
C768 C 0.67083 0.84584 0.8786 0.0
C769 C 0.64419 0.87266 0.83552 0.0
C770 C 0.67606 0.8331 0.92349 0.0
C771 C 0.66607 0.83851 0.97272 0.0
C772 C 0.65575 0.86421 0.88314 0.0
C773 C 0.65291 0.85841 0.97661 0.0
C774 C 0.63738 0.89542 0.83102 0.0
C775 C 0.62141 0.86238 0.761 0.0
N776 N 0.64772 0.87041 0.93193 0.0
N777 N 0.63638 0.857 0.80005 0.0
H778 H 0.89285 0.87761 0.76965 0.0
H779 H 0.91135 0.84697 0.4944 0.0
H780 H 0.93463 0.92334 0.67653 0.0
H781 H 0.83989 0.85204 0.53623 0.0
H782 H 0.92018 0.87499 0.56132 0.0
H783 H 0.87146 0.86784 0.68872 0.0
C784 C 0.89726 0.88582 0.73245 0.0
C785 C 0.91605 0.90052 0.72904 0.0
C786 C 0.90246 0.87057 0.55443 0.0
C787 C 0.89179 0.88977 0.63772 0.0
C788 C 0.89727 0.85466 0.5154 0.0
C789 C 0.87468 0.84737 0.50826 0.0
C790 C 0.88518 0.87842 0.5883 0.0
C791 C 0.85757 0.85714 0.54039 0.0
C792 C 0.88486 0.88057 0.68668 0.0
C793 C 0.92055 0.91149 0.68051 0.0
N794 N 0.86325 0.87171 0.5803 0.0
N795 N 0.90897 0.90532 0.63619 0.0
H796 H 0.91341 0.1494 0.24058 0.0
H797 H 0.88197 0.12862 0.52276 0.0
H798 H 0.91146 0.07906 0.29236 0.0
H799 H 0.84173 0.17605 0.43076 0.0
H800 H 0.89182 0.10848 0.44024 0.0
H801 H 0.88551 0.15884 0.30776 0.0
C802 C 0.90648 0.13564 0.2641 0.0
C803 C 0.9148 0.11327 0.26003 0.0
C804 C 0.88032 0.12293 0.43853 0.0
C805 C 0.88379 0.12451 0.3399 0.0
C806 C 0.87498 0.13457 0.48538 0.0
C807 C 0.86175 0.15443 0.48312 0.0
C808 C 0.87272 0.13166 0.38958 0.0
C809 C 0.85237 0.16101 0.43404 0.0
C810 C 0.89062 0.14118 0.30319 0.0
C811 C 0.90572 0.0966 0.29439 0.0
N812 N 0.85858 0.15004 0.38887 0.0
N813 N 0.89118 0.10267 0.33404 0.0
H814 H 0.63104 0.11651 0.27107 0.0
H815 H 0.61719 0.14429 0.98342 0.0
H816 H 0.5865 0.07536 0.17333 0.0
H817 H 0.68537 0.14727 0.0489 0.0
H818 H 0.60701 0.1165 0.05 0.0
H819 H 0.65328 0.12609 0.19149 0.0
C820 C 0.62606 0.10936 0.23311 0.0
C821 C 0.60632 0.09603 0.22828 0.0
C822 C 0.62445 0.12262 0.04867 0.0
C823 C 0.63171 0.10646 0.13805 0.0
C824 C 0.63044 0.13842 0.00989 0.0
C825 C 0.65232 0.14813 0.00986 0.0
C826 C 0.64007 0.11726 0.08906 0.0
C827 C 0.66821 0.14041 0.04779 0.0
C828 C 0.63896 0.11449 0.18795 0.0
C829 C 0.60129 0.0862 0.17865 0.0
N830 N 0.66159 0.12591 0.08699 0.0
N831 N 0.61352 0.09213 0.1351 0.0
H832 H 0.96028 0.6262 0.70481 0.0
H833 H 0.94843 0.74144 0.53366 0.0
H834 H -0.00025 0.68654 0.73807 0.0
H835 H 0.90293 0.68397 0.5197 0.0
H836 H 0.96854 0.72171 0.60626 0.0
H837 H 0.94089 0.64657 0.63266 0.0
C838 C 0.96494 0.64374 0.69654 0.0
C839 C 0.98149 0.65479 0.72748 0.0
C840 C 0.95408 0.71347 0.5875 0.0
C841 C 0.9594 0.67833 0.64501 0.0
C842 C 0.9425 0.72481 0.54643 0.0
C843 C 0.92398 0.71433 0.52079 0.0
C844 C 0.94716 0.69141 0.60274 0.0
C845 C 0.91722 0.6926 0.53823 0.0
C846 C 0.95384 0.6554 0.65549 0.0
C847 C 0.98711 0.67743 0.71489 0.0
N848 N 0.92884 0.68185 0.57781 0.0
N849 N 0.97603 0.68851 0.67474 0.0
H850 H 0.57438 0.69984 0.03342 0.0
H851 H 0.56938 0.68132 0.71836 0.0
H852 H 0.62713 0.72342 0.9271 0.0
H853 H 0.5305 0.64018 0.82808 0.0
H854 H 0.58802 0.70004 0.79355 0.0
H855 H 0.55542 0.68108 0.95832 0.0
C856 C 0.58201 0.70103 0.99425 0.0
C857 C 0.60244 0.71318 0.98661 0.0
C858 C 0.57545 0.68689 0.80127 0.0
C859 C 0.58054 0.69205 0.90011 0.0
C860 C 0.56487 0.67605 0.75829 0.0
C861 C 0.54851 0.6589 0.76676 0.0
C862 C 0.56943 0.68085 0.85348 0.0
C863 C 0.54286 0.65341 0.81958 0.0
C864 C 0.57113 0.69036 0.95137 0.0
C865 C 0.61128 0.71449 0.93475 0.0
N866 N 0.55328 0.66435 0.86091 0.0
N867 N 0.60028 0.70411 0.89352 0.0
H868 H 0.5743 0.29051 0.97347 0.0
H869 H 0.58526 0.35106 0.25361 0.0
H870 H 0.63297 0.27864 0.07294 0.0
H871 H 0.52057 0.32371 0.20188 0.0
H872 H 0.60402 0.33109 0.17996 0.0
H873 H 0.55505 0.30926 0.04886 0.0
C874 C 0.58305 0.29181 0.01134 0.0
C875 C 0.60513 0.2829 0.01735 0.0
C876 C 0.58571 0.3295 0.18488 0.0
C877 C 0.58356 0.30482 0.10298 0.0
C878 C 0.57495 0.34077 0.22716 0.0
C879 C 0.55122 0.33893 0.23475 0.0
C880 C 0.57264 0.31677 0.14872 0.0
C881 C 0.53879 0.32597 0.19752 0.0
C882 C 0.57209 0.30246 0.05421 0.0
C883 C 0.61585 0.28514 0.067 0.0
N884 N 0.5496 0.31554 0.15601 0.0
N885 N 0.60508 0.29611 0.10781 0.0
H886 H 0.90163 0.2654 0.41694 0.0
H887 H 0.99473 0.35798 0.33307 0.0
H888 H 0.95115 0.29197 0.52774 0.0
H889 H 0.96718 0.30964 0.22075 0.0
H890 H 0.97627 0.33664 0.40555 0.0
H891 H 0.92266 0.28393 0.34388 0.0
C892 C 0.91704 0.27487 0.42581 0.0
C893 C 0.92461 0.27718 0.4785 0.0
C894 C 0.97438 0.33067 0.36499 0.0
C895 C 0.94831 0.29895 0.39565 0.0
C896 C 0.98505 0.34276 0.32373 0.0
C897 C 0.98249 0.33562 0.27079 0.0
C898 C 0.96074 0.31155 0.3531 0.0
C899 C 0.96931 0.31599 0.26089 0.0
C900 C 0.92895 0.28557 0.38423 0.0
C901 C 0.94447 0.29007 0.48783 0.0
N902 N 0.95877 0.30479 0.30147 0.0
N903 N 0.95548 0.30061 0.44703 0.0
H904 H 0.08402 0.42026 0.32698 0.0
H905 H 0.18569 0.3511 0.45869 0.0
H906 H 0.13046 0.37951 0.23317 0.0
H907 H 0.116 0.3516 0.51565 0.0
H908 H 0.17421 0.37674 0.38645 0.0
H909 H 0.10598 0.411 0.40645 0.0
C910 C 0.09912 0.40974 0.3228 0.0
C911 C 0.10493 0.39985 0.27369 0.0
C912 C 0.1618 0.37175 0.41625 0.0
C913 C 0.13016 0.38964 0.36432 0.0
C914 C 0.16821 0.35713 0.45743 0.0
C915 C 0.15185 0.34901 0.49394 0.0
C916 C 0.13904 0.37871 0.41252 0.0
C917 C 0.12952 0.35755 0.4902 0.0
C918 C 0.11161 0.40455 0.36819 0.0
C919 C 0.12484 0.38663 0.27065 0.0
N920 N 0.12378 0.3718 0.44996 0.0
N921 N 0.13663 0.38156 0.31575 0.0
H922 H 0.34184 0.33232 0.06853 0.0
H923 H 0.39361 0.41071 0.25204 0.0
H924 H 0.3905 0.3641 0.96264 0.0
H925 H 0.44535 0.36669 0.1858 0.0
H926 H 0.36918 0.40268 0.17377 0.0
H927 H 0.35445 0.35766 0.13954 0.0
C928 C 0.35483 0.34491 0.05961 0.0
C929 C 0.36638 0.34492 0.01051 0.0
C930 C 0.38594 0.39499 0.17681 0.0
C931 C 0.38052 0.37377 0.09136 0.0
C932 C 0.39966 0.39929 0.22116 0.0
C933 C 0.421 0.38862 0.22558 0.0
C934 C 0.39432 0.38074 0.13657 0.0
C935 C 0.42862 0.37451 0.18444 0.0
C936 C 0.3618 0.35948 0.10017 0.0
C937 C 0.3825 0.36212 0.00104 0.0
N938 N 0.41526 0.37101 0.14137 0.0
N939 N 0.38986 0.37526 0.04197 0.0
H940 H 0.38447 0.62999 0.02217 0.0
H941 H 0.40817 0.64459 0.73066 0.0
H942 H 0.34093 0.67356 0.92801 0.0
H943 H 0.41504 0.57727 0.79908 0.0
H944 H 0.38085 0.65417 0.79915 0.0
H945 H 0.3943 0.60867 0.94133 0.0
C946 C 0.37682 0.63487 0.98464 0.0
C947 C 0.36248 0.65391 0.98124 0.0
C948 C 0.38775 0.63702 0.79811 0.0
C949 C 0.37341 0.62978 0.88947 0.0
C950 C 0.40328 0.63138 0.75831 0.0
C951 C 0.41406 0.61002 0.75877 0.0
C952 C 0.38371 0.62156 0.83968 0.0
C953 C 0.40741 0.59409 0.7977 0.0
C954 C 0.38214 0.62255 0.93877 0.0
C955 C 0.35236 0.65914 0.93209 0.0
N956 N 0.39318 0.60041 0.83767 0.0
N957 N 0.35849 0.64751 0.88775 0.0
H958 H 0.11419 0.64766 0.76771 0.0
H959 H 0.14498 0.62914 0.48854 0.0
H960 H 0.11892 0.57697 0.71962 0.0
H961 H 0.18743 0.67452 0.58085 0.0
H962 H 0.13581 0.6081 0.57032 0.0
H963 H 0.14203 0.65751 0.70091 0.0
C964 C 0.12179 0.63394 0.74527 0.0
C965 C 0.11436 0.61129 0.75041 0.0
C966 C 0.14767 0.62227 0.57213 0.0
C967 C 0.14519 0.62297 0.67068 0.0
C968 C 0.15259 0.63443 0.52581 0.0
C969 C 0.16624 0.654 0.5286 0.0
C970 C 0.1561 0.63021 0.62105 0.0
C971 C 0.17643 0.65974 0.57733 0.0
C972 C 0.13759 0.6397 0.70634 0.0
C973 C 0.12408 0.59467 0.7169 0.0
N974 N 0.17059 0.64831 0.62212 0.0
N975 N 0.13852 0.60094 0.67722 0.0
H976 H 0.39692 0.15588 0.76247 0.0
H977 H 0.42241 0.14153 0.4712 0.0
H978 H 0.36228 0.19332 0.63852 0.0
H979 H 0.44443 0.094 0.592 0.0
H980 H 0.38952 0.1512 0.526 0.0
H981 H 0.40286 0.12451 0.70045 0.0
C982 C 0.39031 0.15734 0.72233 0.0
C983 C 0.38031 0.17763 0.7045 0.0
C984 C 0.40122 0.13824 0.54012 0.0
C985 C 0.38733 0.14217 0.63325 0.0
C986 C 0.42011 0.13288 0.50895 0.0
C987 C 0.43679 0.11803 0.52876 0.0
C988 C 0.39962 0.12922 0.59189 0.0
C989 C 0.4325 0.10646 0.57654 0.0
C990 C 0.39348 0.13935 0.68698 0.0
C991 C 0.37106 0.17831 0.65306 0.0
N992 N 0.41465 0.11282 0.60738 0.0
N993 N 0.37542 0.16109 0.6186 0.0
H994 H 0.11443 0.16472 0.99453 0.0
H995 H 0.08234 0.15516 0.74029 0.0
H996 H 0.0828 0.09958 0.96246 0.0
H997 H 0.15485 0.16676 0.75632 0.0
H998 H 0.08413 0.12887 0.81546 0.0
H999 H 0.13443 0.162 0.90945 0.0
C1000 C 0.11231 0.14954 0.97043 0.0
C1001 C 0.09633 0.13286 0.98428 0.0
C1002 C 0.09984 0.13645 0.80099 0.0
C1003 C 0.11837 0.12997 0.88707 0.0
C1004 C 0.09874 0.15163 0.75845 0.0
C1005 C 0.1182 0.16405 0.74415 0.0
C1006 C 0.12025 0.13459 0.83007 0.0
C1007 C 0.13918 0.1583 0.76787 0.0
C1008 C 0.12384 0.14784 0.92216 0.0
C1009 C 0.0945 0.11322 0.95229 0.0
N1010 N 0.13951 0.14473 0.8115 0.0
N1011 N 0.10456 0.11278 0.90373 0.0
H1012 H 0.1021 0.85916 0.97096 0.0
H1013 H 0.16059 0.79952 0.14517 0.0
H1014 H 0.06968 0.89128 0.10579 0.0
H1015 H 0.12221 0.83535 0.2657 0.0
H1016 H 0.15363 0.83037 0.08373 0.0
H1017 H 0.13456 0.8498 0.02649 0.0
C1018 C 0.10194 0.86433 0.01238 0.0
C1019 C 0.08267 0.87467 0.03481 0.0
C1020 C 0.14676 0.83186 0.12346 0.0
C1021 C 0.11935 0.86339 0.0995 0.0
C1022 C 0.15079 0.81407 0.1588 0.0
C1023 C 0.14083 0.81436 0.20953 0.0
C1024 C 0.13217 0.84974 0.1388 0.0
C1025 C 0.12926 0.834 0.22597 0.0
C1026 C 0.12056 0.85898 0.04444 0.0
C1027 C 0.08378 0.88223 0.0876 0.0
N1028 N 0.12479 0.85071 0.19021 0.0
N1029 N 0.10155 0.87587 0.11859 0.0
H1030 H 0.37006 0.82268 0.26491 0.0
H1031 H 0.44042 0.89264 0.47324 0.0
H1032 H 0.43856 0.84815 0.24148 0.0
H1033 H 0.41545 0.82385 0.49359 0.0
H1034 H 0.4183 0.89584 0.39137 0.0
H1035 H 0.36723 0.84502 0.34633 0.0
C1036 C 0.38421 0.83367 0.27557 0.0
C1037 C 0.40519 0.83255 0.24827 0.0
C1038 C 0.41676 0.88056 0.41541 0.0
C1039 C 0.40141 0.85868 0.33967 0.0
C1040 C 0.42946 0.87855 0.46192 0.0
C1041 C 0.43051 0.85748 0.48863 0.0
C1042 C 0.40475 0.86158 0.39677 0.0
C1043 C 0.4157 0.84005 0.47287 0.0
C1044 C 0.38236 0.84659 0.32176 0.0
C1045 C 0.4225 0.84776 0.26281 0.0
N1046 N 0.4037 0.84232 0.42704 0.0
N1047 N 0.42044 0.85986 0.3086 0.0
H1048 H 0.58 0.85843 0.49234 0.0
H1049 H 0.58369 0.75776 0.28165 0.0
H1050 H 0.5198 0.81876 0.45731 0.0
H1051 H 0.62235 0.81952 0.2573 0.0
H1052 H 0.56326 0.77633 0.35515 0.0
H1053 H 0.59934 0.84062 0.41618 0.0
C1054 C 0.57091 0.84582 0.469 0.0
C1055 C 0.54821 0.84008 0.4814 0.0
C1056 C 0.57613 0.78584 0.33353 0.0
C1057 C 0.57039 0.81951 0.39439 0.0
C1058 C 0.58783 0.77527 0.29164 0.0
C1059 C 0.60473 0.78713 0.26309 0.0
C1060 C 0.58177 0.80825 0.3482 0.0
C1061 C 0.60935 0.8098 0.2779 0.0
C1062 C 0.58191 0.83583 0.42529 0.0
C1063 C 0.53726 0.82375 0.44926 0.0
N1064 N 0.59817 0.81952 0.31987 0.0
N1065 N 0.54851 0.81389 0.40762 0.0
H1066 H 0.94028 0.75432 0.20877 0.0
H1067 H 0.93888 0.85838 0.00539 0.0
H1068 H 0.90195 0.81552 0.24219 0.0
H1069 H -0.0005 0.81805 0.03064 0.0
H1070 H 0.92074 0.8389 0.08128 0.0
H1071 H 0.95823 0.77371 0.1329 0.0
C1072 C 0.93566 0.77184 0.20025 0.0
C1073 C 0.91966 0.78333 0.23217 0.0
C1074 C 0.93797 0.8343 0.06993 0.0
C1075 C 0.93972 0.8054 0.14445 0.0
C1076 C 0.94826 0.84524 0.02641 0.0
C1077 C 0.97075 0.83982 0.01158 0.0
C1078 C 0.95003 0.81739 0.09795 0.0
C1079 C 0.98217 0.82282 0.04072 0.0
C1080 C 0.94593 0.78288 0.15698 0.0
C1081 C 0.91433 0.80605 0.21902 0.0
N1082 N 0.97165 0.8121 0.08214 0.0
N1083 N 0.92414 0.81626 0.17587 0.0
H1084 H 0.93911 0.18194 0.71659 0.0
H1085 H 0.95386 0.16932 0.02943 0.0
H1086 H 0.91707 0.23483 0.82444 0.0
H1087 H 0.00554 0.14441 0.9217 0.0
H1088 H 0.93527 0.1888 0.95443 0.0
H1089 H 0.95903 0.16316 0.79101 0.0
C1090 C 0.93849 0.18962 0.7558 0.0
C1091 C 0.92653 0.21009 0.76415 0.0
C1092 C 0.95073 0.17911 0.94737 0.0
C1093 C 0.94873 0.1884 0.84951 0.0
C1094 C 0.96131 0.16796 0.99009 0.0
C1095 C 0.9814 0.15531 0.982 0.0
C1096 C 0.9599 0.17714 0.89586 0.0
C1097 C 0.99023 0.15413 0.92995 0.0
C1098 C 0.94988 0.17893 0.79814 0.0
C1099 C 0.92627 0.21922 0.81595 0.0
N1100 N 0.97931 0.16468 0.88882 0.0
N1101 N 0.93695 0.20821 0.85668 0.0
H1102 H 0.52791 0.14417 0.57948 0.0
H1103 H 0.62071 0.23533 0.67014 0.0
H1104 H 0.58035 0.16745 0.47175 0.0
H1105 H 0.59406 0.18518 0.77937 0.0
H1106 H 0.60163 0.21539 0.59659 0.0
H1107 H 0.54745 0.16375 0.65271 0.0
C1108 C 0.54348 0.15349 0.57108 0.0
C1109 C 0.55246 0.15412 0.51914 0.0
C1110 C 0.59995 0.20879 0.63667 0.0
C1111 C 0.57477 0.1769 0.60312 0.0
C1112 C 0.61071 0.22023 0.67878 0.0
C1113 C 0.60898 0.21197 0.73121 0.0
C1114 C 0.58683 0.18922 0.64698 0.0
C1115 C 0.59592 0.19216 0.7397 0.0
C1116 C 0.55467 0.16456 0.61305 0.0
C1117 C 0.57281 0.16641 0.51103 0.0
N1118 N 0.58518 0.18161 0.69821 0.0
N1119 N 0.58314 0.17747 0.55239 0.0
H1120 H 0.92607 0.61253 0.0027 0.0
H1121 H 0.88036 0.70955 0.18214 0.0
H1122 H 0.92371 0.68441 0.96549 0.0
H1123 H 0.91414 0.64773 0.23107 0.0
H1124 H 0.87263 0.69241 0.09508 0.0
H1125 H 0.89726 0.61846 0.07121 0.0
C1126 C 0.91897 0.62946 0.00771 0.0
C1127 C 0.92838 0.64839 0.98129 0.0
C1128 C 0.88093 0.68228 0.12554 0.0
C1129 C 0.8955 0.65501 0.05871 0.0
C1130 C 0.8856 0.69209 0.17468 0.0
C1131 C 0.89868 0.68015 0.21206 0.0
C1132 C 0.88985 0.66066 0.11399 0.0
C1133 C 0.90467 0.65756 0.20202 0.0
C1134 C 0.90235 0.63273 0.04646 0.0
C1135 C 0.9178 0.66962 0.98733 0.0
N1136 N 0.90063 0.64861 0.15312 0.0
N1137 N 0.90228 0.67254 0.02676 0.0
H1138 H 0.62214 0.65985 0.26093 0.0
H1139 H 0.61227 0.67396 0.53957 0.0
H1140 H 0.67505 0.69601 0.34566 0.0
H1141 H 0.59125 0.60986 0.47049 0.0
H1142 H 0.64371 0.67559 0.47631 0.0
H1143 H 0.6191 0.63332 0.33532 0.0
C1144 C 0.63352 0.66183 0.29461 0.0
C1145 C 0.64772 0.68092 0.29912 0.0
C1146 C 0.63268 0.66076 0.47594 0.0
C1147 C 0.64418 0.65112 0.38408 0.0
C1148 C 0.61456 0.66003 0.51169 0.0
C1149 C 0.59854 0.64245 0.50808 0.0
C1150 C 0.63393 0.64435 0.43508 0.0
C1151 C 0.60275 0.62429 0.4729 0.0
C1152 C 0.63199 0.64657 0.33696 0.0
C1153 C 0.66282 0.68222 0.34236 0.0
N1154 N 0.6196 0.62611 0.43622 0.0
N1155 N 0.66014 0.66797 0.38425 0.0
H1156 H 0.56707 0.41105 0.597 0.0
H1157 H 0.65433 0.32301 0.71214 0.0
H1158 H 0.60295 0.35976 0.50622 0.0
H1159 H 0.59045 0.34414 0.78231 0.0
H1160 H 0.65136 0.35429 0.64814 0.0
H1161 H 0.59322 0.40479 0.67095 0.0
C1162 C 0.58085 0.3989 0.59203 0.0
C1163 C 0.5821 0.38481 0.54693 0.0
C1164 C 0.63853 0.35257 0.67896 0.0
C1165 C 0.61202 0.37807 0.63057 0.0
C1166 C 0.64003 0.33467 0.71514 0.0
C1167 C 0.62203 0.33056 0.75082 0.0
C1168 C 0.61907 0.3664 0.67928 0.0
C1169 C 0.60419 0.34632 0.75392 0.0
C1170 C 0.59589 0.39561 0.63402 0.0
C1171 C 0.60083 0.37018 0.54147 0.0
N1172 N 0.60294 0.36342 0.71777 0.0
N1173 N 0.6148 0.36667 0.58372 0.0
H1174 H 0.90122 0.34407 0.98688 0.0
H1175 H 0.9576 0.3325 0.73683 0.0
H1176 H 0.96245 0.38349 0.95992 0.0
H1177 H 0.88393 0.33405 0.74026 0.0
H1178 H 0.95827 0.36067 0.80808 0.0
H1179 H 0.89109 0.34886 0.89383 0.0
C1180 C 0.91228 0.3542 0.96164 0.0
C1181 C 0.93326 0.36241 0.9803 0.0
C1182 C 0.94191 0.35549 0.79196 0.0
C1183 C 0.92192 0.3678 0.87377 0.0
C1184 C 0.94157 0.33926 0.75144 0.0
C1185 C 0.92072 0.32992 0.7352 0.0
C1186 C 0.92132 0.3616 0.81704 0.0
C1187 C 0.90045 0.33992 0.75395 0.0
C1188 C 0.90636 0.35719 0.90849 0.0
C1189 C 0.94659 0.376 0.94634 0.0
N1190 N 0.9012 0.35462 0.7955 0.0
N1191 N 0.94107 0.37765 0.89404 0.0
H1192 H 0.09232 0.31131 0.72133 0.0
H1193 H 0.07771 0.3243 0.03426 0.0
H1194 H 0.114 0.25783 0.82793 0.0
H1195 H 0.02643 0.349 0.92537 0.0
H1196 H 0.09648 0.30448 0.95962 0.0
H1197 H 0.07307 0.33023 0.79628 0.0
C1198 C 0.093 0.30352 0.76041 0.0
C1199 C 0.10465 0.28284 0.76819 0.0
C1200 C 0.08108 0.31421 0.9523 0.0
C1201 C 0.08316 0.30472 0.8543 0.0
C1202 C 0.0704 0.32555 0.99475 0.0
C1203 C 0.05034 0.33817 0.98618 0.0
C1204 C 0.07202 0.31606 0.90064 0.0
C1205 C 0.0417 0.33926 0.934 0.0
C1206 C 0.08199 0.31431 0.80309 0.0
C1207 C 0.10502 0.27361 0.81991 0.0
N1208 N 0.05269 0.32858 0.89322 0.0
N1209 N 0.09466 0.28471 0.86105 0.0
H1210 H 0.40791 0.26261 0.66899 0.0
H1211 H 0.49806 0.35646 0.57939 0.0
H1212 H 0.43185 0.31452 0.77726 0.0
H1213 H 0.44911 0.3286 0.46881 0.0
H1214 H 0.47792 0.33748 0.65252 0.0
H1215 H 0.42671 0.28272 0.59545 0.0
C1216 C 0.4172 0.27819 0.67742 0.0
C1217 C 0.41831 0.28683 0.72962 0.0
C1218 C 0.47157 0.33554 0.61228 0.0
C1219 C 0.44013 0.30981 0.64532 0.0
C1220 C 0.48312 0.34627 0.57039 0.0
C1221 C 0.47532 0.34411 0.51769 0.0
C1222 C 0.45232 0.32204 0.60156 0.0
C1223 C 0.45572 0.33079 0.50873 0.0
C1224 C 0.42781 0.28971 0.63529 0.0
C1225 C 0.43048 0.30722 0.7378 0.0
N1226 N 0.44504 0.32008 0.55011 0.0
N1227 N 0.44109 0.31787 0.69627 0.0
H1228 H 0.44602 0.63818 0.48834 0.0
H1229 H 0.4432 0.74151 0.28426 0.0
H1230 H 0.50596 0.67941 0.46193 0.0
H1231 H 0.40696 0.67882 0.25314 0.0
H1232 H 0.46295 0.72274 0.35865 0.0
H1233 H 0.42758 0.6568 0.41206 0.0
C1234 C 0.45521 0.65133 0.46689 0.0
C1235 C 0.47758 0.65726 0.48165 0.0
C1236 C 0.45077 0.7131 0.33526 0.0
C1237 C 0.45642 0.67881 0.39463 0.0
C1238 C 0.43946 0.72378 0.29283 0.0
C1239 C 0.42342 0.71172 0.26209 0.0
C1240 C 0.44558 0.69036 0.34813 0.0
C1241 C 0.41928 0.68877 0.27535 0.0
C1242 C 0.44474 0.6618 0.42313 0.0
C1243 C 0.48873 0.67427 0.4519 0.0
N1244 N 0.43004 0.67894 0.31768 0.0
N1245 N 0.47797 0.6846 0.41017 0.0
H1246 H 0.09185 0.67881 0.28779 0.0
H1247 H 0.07476 0.66862 0.97426 0.0
H1248 H 0.11647 0.73022 0.17906 0.0
H1249 H 0.02316 0.64424 0.08278 0.0
H1250 H 0.09463 0.68661 0.04931 0.0
H1251 H 0.07086 0.6609 0.21358 0.0
C1252 C 0.09293 0.68627 0.24842 0.0
C1253 C 0.10589 0.70612 0.2398 0.0
C1254 C 0.07891 0.67739 0.05663 0.0
C1255 C 0.08227 0.68554 0.1548 0.0
C1256 C 0.06756 0.66711 0.01383 0.0
C1257 C 0.04714 0.65503 0.02208 0.0
C1258 C 0.07019 0.6751 0.10849 0.0
C1259 C 0.0387 0.65359 0.07444 0.0
C1260 C 0.08087 0.67613 0.20622 0.0
C1261 C 0.1066 0.71505 0.18781 0.0
N1262 N 0.05036 0.66328 0.11571 0.0
N1263 N 0.09517 0.70462 0.14738 0.0
loop_
_geom_bond_atom_site_label_1
_geom_bond_atom_site_label_2
_geom_bond_distance
_geom_bond_site_symmetry_2
_ccdc_geom_bond_type
Co0 O3 1.970 . S
Co0 N17 1.989 . S
Co0 O25 1.967 . S
Co0 O32 1.920 . S
Co1 O4 1.966 . S
Co1 N10 2.022 . S
Co1 N18 1.993 . S
Co1 O26 1.941 . S
C2 O3 1.258 . S
C2 O4 1.263 . S
O3 Co0 1.970 . S
O3 C2 1.258 . S
O4 Co1 1.966 . S
O4 C2 1.263 . S
C5 O6 1.235 . S
C5 O32 1.289 . S
O6 C5 1.235 . S
C7 C9 1.400 . S
C7 N10 1.351 . S
C7 C12 1.501 . S
C8 C9 1.387 . S
C8 N11 1.341 . S
C9 C7 1.400 . S
C9 C8 1.387 . S
N10 Co1 2.022 . S
N10 C7 1.351 . S
N10 N11 1.365 . S
N11 C8 1.341 . S
N11 N10 1.365 . S
N11 H31 0.862 . S
C12 C7 1.501 . S
C12 H13 0.961 . S
C12 H14 0.961 . S
C12 H15 0.960 . S
H13 C12 0.961 . S
H14 C12 0.961 . S
H15 C12 0.960 . S
C16 N17 1.342 . S
C16 C20 1.401 . S
C16 C21 1.499 . S
N17 Co0 1.989 . S
N17 C16 1.342 . S
N17 N18 1.388 . S
N18 Co1 1.993 . S
N18 N17 1.388 . S
N18 C19 1.346 . S
C19 N18 1.346 . S
C19 C20 1.396 . S
C19 C29 1.510 . S
C20 C16 1.401 . S
C20 C19 1.396 . S
C21 C16 1.499 . S
C21 H22 0.959 . S
C21 H23 0.960 . S
C21 H24 0.961 . S
H22 C21 0.959 . S
H23 C21 0.960 . S
H24 C21 0.961 . S
O25 Co0 1.967 . S
O25 C33 1.258 . S
O26 Co1 1.941 . S
O26 C33 1.266 . S
H27 C29 0.959 . S
H28 C29 0.961 . S
C29 C19 1.510 . S
C29 H27 0.959 . S
C29 H28 0.961 . S
C29 H30 0.960 . S
H30 C29 0.960 . S
H31 N11 0.862 . S
O32 Co0 1.920 . S
O32 C5 1.289 . S
C33 O25 1.258 . S
C33 O26 1.266 . S
Co34 O37 1.970 . S
Co34 N51 1.989 . S
Co34 O59 1.967 . S
Co34 O66 1.920 . S
Co35 O38 1.966 . S
Co35 N44 2.022 . S
Co35 N52 1.993 . S
Co35 O60 1.941 . S
C36 O37 1.258 . S
C36 O38 1.263 . S
O37 Co34 1.970 . S
O37 C36 1.258 . S
O38 Co35 1.966 . S
O38 C36 1.263 . S
C39 O40 1.235 . S
C39 O66 1.289 . S
O40 C39 1.235 . S
C41 C43 1.400 . S
C41 N44 1.351 . S
C41 C46 1.501 . S
C42 C43 1.387 . S
C42 N45 1.341 . S
C43 C41 1.400 . S
C43 C42 1.387 . S
N44 Co35 2.022 . S
N44 C41 1.351 . S
N44 N45 1.365 . S
N45 C42 1.341 . S
N45 N44 1.365 . S
N45 H65 0.862 . S
C46 C41 1.501 . S
C46 H47 0.961 . S
C46 H48 0.961 . S
C46 H49 0.960 . S
H47 C46 0.961 . S
H48 C46 0.961 . S
H49 C46 0.960 . S
C50 N51 1.342 . S
C50 C54 1.401 . S
C50 C55 1.499 . S
N51 Co34 1.989 . S
N51 C50 1.342 . S
N51 N52 1.388 . S
N52 Co35 1.993 . S
N52 N51 1.388 . S
N52 C53 1.346 . S
C53 N52 1.346 . S
C53 C54 1.396 . S
C53 C63 1.510 . S
C54 C50 1.401 . S
C54 C53 1.396 . S
C55 C50 1.499 . S
C55 H56 0.959 . S
C55 H57 0.960 . S
C55 H58 0.961 . S
H56 C55 0.959 . S
H57 C55 0.960 . S
H58 C55 0.961 . S
O59 Co34 1.967 . S
O59 C67 1.258 . S
O60 Co35 1.941 . S
O60 C67 1.266 . S
H61 C63 0.959 . S
H62 C63 0.961 . S
C63 C53 1.510 . S
C63 H61 0.959 . S
C63 H62 0.961 . S
C63 H64 0.960 . S
H64 C63 0.960 . S
H65 N45 0.862 . S
O66 Co34 1.920 . S
O66 C39 1.289 . S
C67 O59 1.258 . S
C67 O60 1.266 . S
Co68 O71 1.970 . S
Co68 N85 1.989 . S
Co68 O93 1.967 . S
Co68 O100 1.920 . S
Co69 O72 1.966 . S
Co69 N78 2.022 . S
Co69 N86 1.993 1_655 S
Co69 O94 1.941 . S
C70 O71 1.258 1_655 S
C70 O72 1.263 . S
O71 Co68 1.970 . S
O71 C70 1.258 1_455 S
O72 Co69 1.966 . S
O72 C70 1.263 . S
C73 O74 1.235 1_554 S
C73 O100 1.289 1_554 S
O74 C73 1.235 1_556 S
C75 C77 1.400 . S
C75 N78 1.351 . S
C75 C80 1.501 . S
C76 C77 1.387 . S
C76 N79 1.341 . S
C77 C75 1.400 . S
C77 C76 1.387 . S
N78 Co69 2.022 . S
N78 C75 1.351 . S
N78 N79 1.365 . S
N79 C76 1.341 . S
N79 N78 1.365 . S
N79 H99 0.862 . S
C80 C75 1.501 . S
C80 H81 0.961 . S
C80 H82 0.961 . S
C80 H83 0.960 . S
H81 C80 0.961 . S
H82 C80 0.961 . S
H83 C80 0.960 . S
C84 N85 1.342 . S
C84 C88 1.401 . S
C84 C89 1.499 . S
N85 Co68 1.989 . S
N85 C84 1.342 . S
N85 N86 1.388 . S
N86 Co69 1.993 1_455 S
N86 N85 1.388 . S
N86 C87 1.346 . S
C87 N86 1.346 . S
C87 C88 1.396 . S
C87 C97 1.510 . S
C88 C84 1.401 . S
C88 C87 1.396 . S
C89 C84 1.499 . S
C89 H90 0.959 . S
C89 H91 0.960 . S
C89 H92 0.961 . S
H90 C89 0.959 . S
H91 C89 0.960 . S
H92 C89 0.961 . S
O93 Co68 1.967 . S
O93 C101 1.258 . S
O94 Co69 1.941 . S
O94 C101 1.266 1_655 S
H95 C97 0.959 . S
H96 C97 0.961 . S
C97 C87 1.510 . S
C97 H95 0.959 . S
C97 H96 0.961 . S
C97 H98 0.960 . S
H98 C97 0.960 . S
H99 N79 0.862 . S
O100 Co68 1.920 . S
O100 C73 1.289 1_556 S
C101 O93 1.258 . S
C101 O94 1.266 1_455 S
Co102 O105 1.970 . S
Co102 N119 1.989 . S
Co102 O127 1.967 . S
Co102 O134 1.920 . S
Co103 O106 1.966 . S
Co103 N112 2.022 . S
Co103 N120 1.993 . S
Co103 O128 1.941 . S
C104 O105 1.258 . S
C104 O106 1.263 . S
O105 Co102 1.970 . S
O105 C104 1.258 . S
O106 Co103 1.966 . S
O106 C104 1.263 . S
C107 O108 1.235 . S
C107 O134 1.289 . S
O108 C107 1.235 . S
C109 C111 1.400 1_554 S
C109 N112 1.351 . S
C109 C114 1.501 . S
C110 C111 1.387 . S
C110 N113 1.341 . S
C111 C109 1.400 1_556 S
C111 C110 1.387 . S
N112 Co103 2.022 . S
N112 C109 1.351 . S
N112 N113 1.365 1_554 S
N113 C110 1.341 . S
N113 N112 1.365 1_556 S
N113 H133 0.862 . S
C114 C109 1.501 . S
C114 H115 0.961 . S
C114 H116 0.961 . S
C114 H117 0.960 . S
H115 C114 0.961 . S
H116 C114 0.961 . S
H117 C114 0.960 . S
C118 N119 1.342 . S
C118 C122 1.401 . S
C118 C123 1.499 . S
N119 Co102 1.989 . S
N119 C118 1.342 . S
N119 N120 1.388 . S
N120 Co103 1.993 . S
N120 N119 1.388 . S
N120 C121 1.346 . S
C121 N120 1.346 . S
C121 C122 1.396 . S
C121 C131 1.510 1_554 S
C122 C118 1.401 . S
C122 C121 1.396 . S
C123 C118 1.499 . S
C123 H124 0.959 . S
C123 H125 0.960 . S
C123 H126 0.961 . S
H124 C123 0.959 . S
H125 C123 0.960 . S
H126 C123 0.961 . S
O127 Co102 1.967 . S
O127 C135 1.258 . S
O128 Co103 1.941 . S
O128 C135 1.266 . S
H129 C131 0.959 . S
H130 C131 0.961 . S
C131 C121 1.510 1_556 S
C131 H129 0.959 . S
C131 H130 0.961 . S
C131 H132 0.960 . S
H132 C131 0.960 . S
H133 N113 0.862 . S
O134 Co102 1.920 . S
O134 C107 1.289 . S
C135 O127 1.258 . S
C135 O128 1.266 . S
Co136 O139 1.970 . S
Co136 N153 1.989 . S
Co136 O161 1.967 . S
Co136 O168 1.920 . S
Co137 O140 1.966 . S
Co137 N146 2.022 . S
Co137 N154 1.993 . S
Co137 O162 1.941 . S
C138 O139 1.258 . S
C138 O140 1.263 . S
O139 Co136 1.970 . S
O139 C138 1.258 . S
O140 Co137 1.966 . S
O140 C138 1.263 . S
C141 O142 1.235 . S
C141 O168 1.289 . S
O142 C141 1.235 . S
C143 C145 1.400 . S
C143 N146 1.351 . S
C143 C148 1.501 . S
C144 C145 1.387 . S
C144 N147 1.341 . S
C145 C143 1.400 . S
C145 C144 1.387 . S
N146 Co137 2.022 . S
N146 C143 1.351 . S
N146 N147 1.365 . S
N147 C144 1.341 . S
N147 N146 1.365 . S
N147 H167 0.862 . S
C148 C143 1.501 . S
C148 H149 0.961 . S
C148 H150 0.961 . S
C148 H151 0.960 . S
H149 C148 0.961 . S
H150 C148 0.961 . S
H151 C148 0.960 . S
C152 N153 1.342 . S
C152 C156 1.401 . S
C152 C157 1.499 . S
N153 Co136 1.989 . S
N153 C152 1.342 . S
N153 N154 1.388 . S
N154 Co137 1.993 . S
N154 N153 1.388 . S
N154 C155 1.346 . S
C155 N154 1.346 . S
C155 C156 1.396 . S
C155 C165 1.510 . S
C156 C152 1.401 . S
C156 C155 1.396 . S
C157 C152 1.499 . S
C157 H158 0.959 . S
C157 H159 0.960 . S
C157 H160 0.961 . S
H158 C157 0.959 . S
H159 C157 0.960 . S
H160 C157 0.961 . S
O161 Co136 1.967 . S
O161 C169 1.258 . S
O162 Co137 1.941 . S
O162 C169 1.266 . S
H163 C165 0.959 . S
H164 C165 0.961 . S
C165 C155 1.510 . S
C165 H163 0.959 . S
C165 H164 0.961 . S
C165 H166 0.960 . S
H166 C165 0.960 . S
H167 N147 0.862 . S
O168 Co136 1.920 . S
O168 C141 1.289 . S
C169 O161 1.258 . S
C169 O162 1.266 . S
Co170 O173 1.970 . S
Co170 N187 1.989 . S
Co170 O195 1.967 . S
Co170 O202 1.920 . S
Co171 O174 1.966 . S
Co171 N180 2.022 . S
Co171 N188 1.993 . S
Co171 O196 1.941 . S
C172 O173 1.258 . S
C172 O174 1.263 . S
O173 Co170 1.970 . S
O173 C172 1.258 . S
O174 Co171 1.966 . S
O174 C172 1.263 . S
C175 O176 1.235 . S
C175 O202 1.289 . S
O176 C175 1.235 . S
C177 C179 1.400 1_556 S
C177 N180 1.351 . S
C177 C182 1.501 . S
C178 C179 1.387 . S
C178 N181 1.341 . S
C179 C177 1.400 1_554 S
C179 C178 1.387 . S
N180 Co171 2.022 . S
N180 C177 1.351 . S
N180 N181 1.365 1_556 S
N181 C178 1.341 . S
N181 N180 1.365 1_554 S
N181 H201 0.862 . S
C182 C177 1.501 . S
C182 H183 0.961 . S
C182 H184 0.961 . S
C182 H185 0.960 . S
H183 C182 0.961 . S
H184 C182 0.961 . S
H185 C182 0.960 . S
C186 N187 1.342 . S
C186 C190 1.401 . S
C186 C191 1.499 . S
N187 Co170 1.989 . S
N187 C186 1.342 . S
N187 N188 1.388 . S
N188 Co171 1.993 . S
N188 N187 1.388 . S
N188 C189 1.346 . S
C189 N188 1.346 . S
C189 C190 1.396 . S
C189 C199 1.510 1_556 S
C190 C186 1.401 . S
C190 C189 1.396 . S
C191 C186 1.499 . S
C191 H192 0.959 . S
C191 H193 0.960 . S
C191 H194 0.961 . S
H192 C191 0.959 . S
H193 C191 0.960 . S
H194 C191 0.961 . S
O195 Co170 1.967 . S
O195 C203 1.258 . S
O196 Co171 1.941 . S
O196 C203 1.266 . S
H197 C199 0.959 . S
H198 C199 0.961 . S
C199 C189 1.510 1_554 S
C199 H197 0.959 . S
C199 H198 0.961 . S
C199 H200 0.960 . S
H200 C199 0.960 . S
H201 N181 0.862 . S
O202 Co170 1.920 . S
O202 C175 1.289 . S
C203 O195 1.258 . S
C203 O196 1.266 . S
Co204 O207 1.970 . S
Co204 N221 1.989 . S
Co204 O229 1.967 . S
Co204 O236 1.920 . S
Co205 O208 1.966 . S
Co205 N214 2.022 . S
Co205 N222 1.993 1_655 S
Co205 O230 1.941 . S
C206 O207 1.258 1_655 S
C206 O208 1.263 . S
O207 Co204 1.970 . S
O207 C206 1.258 1_455 S
O208 Co205 1.966 . S
O208 C206 1.263 . S
C209 O210 1.235 1_556 S
C209 O236 1.289 1_556 S
O210 C209 1.235 1_554 S
C211 C213 1.400 . S
C211 N214 1.351 . S
C211 C216 1.501 . S
C212 C213 1.387 . S
C212 N215 1.341 . S
C213 C211 1.400 . S
C213 C212 1.387 . S
N214 Co205 2.022 . S
N214 C211 1.351 . S
N214 N215 1.365 . S
N215 C212 1.341 . S
N215 N214 1.365 . S
N215 H235 0.862 . S
C216 C211 1.501 . S
C216 H217 0.961 . S
C216 H218 0.961 . S
C216 H219 0.960 . S
H217 C216 0.961 . S
H218 C216 0.961 . S
H219 C216 0.960 . S
C220 N221 1.342 . S
C220 C224 1.401 . S
C220 C225 1.499 . S
N221 Co204 1.989 . S
N221 C220 1.342 . S
N221 N222 1.388 . S
N222 Co205 1.993 1_455 S
N222 N221 1.388 . S
N222 C223 1.346 . S
C223 N222 1.346 . S
C223 C224 1.396 . S
C223 C233 1.510 . S
C224 C220 1.401 . S
C224 C223 1.396 . S
C225 C220 1.499 . S
C225 H226 0.959 . S
C225 H227 0.960 . S
C225 H228 0.961 . S
H226 C225 0.959 . S
H227 C225 0.960 . S
H228 C225 0.961 . S
O229 Co204 1.967 . S
O229 C237 1.258 . S
O230 Co205 1.941 . S
O230 C237 1.266 1_655 S
H231 C233 0.959 . S
H232 C233 0.961 . S
C233 C223 1.510 . S
C233 H231 0.959 . S
C233 H232 0.961 . S
C233 H234 0.960 . S
H234 C233 0.960 . S
H235 N215 0.862 . S
O236 Co204 1.920 . S
O236 C209 1.289 1_554 S
C237 O229 1.258 . S
C237 O230 1.266 1_455 S
Co238 O241 1.970 . S
Co238 N255 1.989 . S
Co238 O263 1.967 . S
Co238 O270 1.920 . S
Co239 O242 1.966 . S
Co239 N248 2.022 . S
Co239 N256 1.993 . S
Co239 O264 1.941 . S
C240 O241 1.258 . S
C240 O242 1.263 . S
O241 Co238 1.970 . S
O241 C240 1.258 . S
O242 Co239 1.966 . S
O242 C240 1.263 . S
C243 O244 1.235 . S
C243 O270 1.289 . S
O244 C243 1.235 . S
C245 C247 1.400 . S
C245 N248 1.351 . S
C245 C250 1.501 . S
C246 C247 1.387 . S
C246 N249 1.341 . S
C247 C245 1.400 . S
C247 C246 1.387 . S
N248 Co239 2.022 . S
N248 C245 1.351 . S
N248 N249 1.365 . S
N249 C246 1.341 . S
N249 N248 1.365 . S
N249 H269 0.862 . S
C250 C245 1.501 . S
C250 H251 0.961 . S
C250 H252 0.961 . S
C250 H253 0.960 . S
H251 C250 0.961 . S
H252 C250 0.961 . S
H253 C250 0.960 . S
C254 N255 1.342 . S
C254 C258 1.401 . S
C254 C259 1.499 . S
N255 Co238 1.989 . S
N255 C254 1.342 . S
N255 N256 1.388 . S
N256 Co239 1.993 . S
N256 N255 1.388 . S
N256 C257 1.346 . S
C257 N256 1.346 . S
C257 C258 1.396 . S
C257 C267 1.510 . S
C258 C254 1.401 . S
C258 C257 1.396 . S
C259 C254 1.499 . S
C259 H260 0.959 . S
C259 H261 0.960 . S
C259 H262 0.961 . S
H260 C259 0.959 . S
H261 C259 0.960 . S
H262 C259 0.961 . S
O263 Co238 1.967 . S
O263 C271 1.258 . S
O264 Co239 1.941 . S
O264 C271 1.266 . S
H265 C267 0.959 . S
H266 C267 0.961 . S
C267 C257 1.510 . S
C267 H265 0.959 . S
C267 H266 0.961 . S
C267 H268 0.960 . S
H268 C267 0.960 . S
H269 N249 0.862 . S
O270 Co238 1.920 . S
O270 C243 1.289 . S
C271 O263 1.258 . S
C271 O264 1.266 . S
Co272 O275 1.970 . S
Co272 N289 1.989 . S
Co272 O297 1.967 . S
Co272 O304 1.920 . S
Co273 O276 1.966 . S
Co273 N282 2.022 . S
Co273 N290 1.993 . S
Co273 O298 1.941 . S
C274 O275 1.258 . S
C274 O276 1.263 . S
O275 Co272 1.970 . S
O275 C274 1.258 . S
O276 Co273 1.966 . S
O276 C274 1.263 . S
C277 O278 1.235 . S
C277 O304 1.289 . S
O278 C277 1.235 . S
C279 C281 1.400 . S
C279 N282 1.351 . S
C279 C284 1.501 . S
C280 C281 1.387 . S
C280 N283 1.341 . S
C281 C279 1.400 . S
C281 C280 1.387 . S
N282 Co273 2.022 . S
N282 C279 1.351 . S
N282 N283 1.365 . S
N283 C280 1.341 . S
N283 N282 1.365 . S
N283 H303 0.862 . S
C284 C279 1.501 . S
C284 H285 0.961 . S
C284 H286 0.961 . S
C284 H287 0.960 . S
H285 C284 0.961 . S
H286 C284 0.961 . S
H287 C284 0.960 . S
C288 N289 1.342 . S
C288 C292 1.401 . S
C288 C293 1.499 . S
N289 Co272 1.989 . S
N289 C288 1.342 . S
N289 N290 1.388 . S
N290 Co273 1.993 . S
N290 N289 1.388 . S
N290 C291 1.346 . S
C291 N290 1.346 . S
C291 C292 1.396 . S
C291 C301 1.510 . S
C292 C288 1.401 . S
C292 C291 1.396 . S
C293 C288 1.499 . S
C293 H294 0.959 . S
C293 H295 0.960 . S
C293 H296 0.961 . S
H294 C293 0.959 . S
H295 C293 0.960 . S
H296 C293 0.961 . S
O297 Co272 1.967 . S
O297 C305 1.258 . S
O298 Co273 1.941 . S
O298 C305 1.266 . S
H299 C301 0.959 . S
H300 C301 0.961 . S
C301 C291 1.510 . S
C301 H299 0.959 . S
C301 H300 0.961 . S
C301 H302 0.960 . S
H302 C301 0.960 . S
H303 N283 0.862 . S
O304 Co272 1.920 . S
O304 C277 1.289 . S
C305 O297 1.258 . S
C305 O298 1.266 . S
Co306 O309 1.970 . S
Co306 N323 1.989 . S
Co306 O331 1.967 . S
Co306 O338 1.920 . S
Co307 O310 1.966 . S
Co307 N316 2.022 . S
Co307 N324 1.993 . S
Co307 O332 1.941 . S
C308 O309 1.258 . S
C308 O310 1.263 . S
O309 Co306 1.970 . S
O309 C308 1.258 . S
O310 Co307 1.966 . S
O310 C308 1.263 . S
C311 O312 1.235 . S
C311 O338 1.289 . S
O312 C311 1.235 . S
C313 C315 1.400 1_556 S
C313 N316 1.351 . S
C313 C318 1.501 . S
C314 C315 1.387 . S
C314 N317 1.341 . S
C315 C313 1.400 1_554 S
C315 C314 1.387 . S
N316 Co307 2.022 . S
N316 C313 1.351 . S
N316 N317 1.365 1_556 S
N317 C314 1.341 . S
N317 N316 1.365 1_554 S
N317 H337 0.862 . S
C318 C313 1.501 . S
C318 H319 0.961 . S
C318 H320 0.961 . S
C318 H321 0.960 . S
H319 C318 0.961 . S
H320 C318 0.961 . S
H321 C318 0.960 . S
C322 N323 1.342 . S
C322 C326 1.401 . S
C322 C327 1.499 . S
N323 Co306 1.989 . S
N323 C322 1.342 . S
N323 N324 1.388 . S
N324 Co307 1.993 . S
N324 N323 1.388 . S
N324 C325 1.346 . S
C325 N324 1.346 . S
C325 C326 1.396 . S
C325 C335 1.510 1_556 S
C326 C322 1.401 . S
C326 C325 1.396 . S
C327 C322 1.499 . S
C327 H328 0.959 . S
C327 H329 0.960 . S
C327 H330 0.961 . S
H328 C327 0.959 . S
H329 C327 0.960 . S
H330 C327 0.961 . S
O331 Co306 1.967 . S
O331 C339 1.258 . S
O332 Co307 1.941 . S
O332 C339 1.266 . S
H333 C335 0.959 . S
H334 C335 0.961 . S
C335 C325 1.510 1_554 S
C335 H333 0.959 . S
C335 H334 0.961 . S
C335 H336 0.960 . S
H336 C335 0.960 . S
H337 N317 0.862 . S
O338 Co306 1.920 . S
O338 C311 1.289 . S
C339 O331 1.258 . S
C339 O332 1.266 . S
Co340 O343 1.970 . S
Co340 N357 1.989 . S
Co340 O365 1.967 . S
Co340 O372 1.920 . S
Co341 O344 1.966 . S
Co341 N350 2.022 . S
Co341 N358 1.993 . S
Co341 O366 1.941 . S
C342 O343 1.258 . S
C342 O344 1.263 . S
O343 Co340 1.970 . S
O343 C342 1.258 . S
O344 Co341 1.966 . S
O344 C342 1.263 . S
C345 O346 1.235 . S
C345 O372 1.289 . S
O346 C345 1.235 . S
C347 C349 1.400 1_554 S
C347 N350 1.351 . S
C347 C352 1.501 . S
C348 C349 1.387 . S
C348 N351 1.341 . S
C349 C347 1.400 1_556 S
C349 C348 1.387 . S
N350 Co341 2.022 . S
N350 C347 1.351 . S
N350 N351 1.365 1_554 S
N351 C348 1.341 . S
N351 N350 1.365 1_556 S
N351 H371 0.862 . S
C352 C347 1.501 . S
C352 H353 0.961 . S
C352 H354 0.961 . S
C352 H355 0.960 . S
H353 C352 0.961 . S
H354 C352 0.961 . S
H355 C352 0.960 . S
C356 N357 1.342 . S
C356 C360 1.401 . S
C356 C361 1.499 . S
N357 Co340 1.989 . S
N357 C356 1.342 . S
N357 N358 1.388 . S
N358 Co341 1.993 . S
N358 N357 1.388 . S
N358 C359 1.346 . S
C359 N358 1.346 . S
C359 C360 1.396 . S
C359 C369 1.510 1_554 S
C360 C356 1.401 . S
C360 C359 1.396 . S
C361 C356 1.499 . S
C361 H362 0.959 . S
C361 H363 0.960 . S
C361 H364 0.961 . S
H362 C361 0.959 . S
H363 C361 0.960 . S
H364 C361 0.961 . S
O365 Co340 1.967 . S
O365 C373 1.258 . S
O366 Co341 1.941 . S
O366 C373 1.266 . S
H367 C369 0.959 . S
H368 C369 0.961 . S
C369 C359 1.510 1_556 S
C369 H367 0.959 . S
C369 H368 0.961 . S
C369 H370 0.960 . S
H370 C369 0.960 . S
H371 N351 0.862 . S
O372 Co340 1.920 . S
O372 C345 1.289 . S
C373 O365 1.258 . S
C373 O366 1.266 . S
Co374 O377 1.970 . S
Co374 N391 1.989 . S
Co374 O399 1.967 . S
Co374 O406 1.920 . S
Co375 O378 1.966 . S
Co375 N384 2.022 . S
Co375 N392 1.993 . S
Co375 O400 1.941 . S
C376 O377 1.258 . S
C376 O378 1.263 . S
O377 Co374 1.970 . S
O377 C376 1.258 . S
O378 Co375 1.966 . S
O378 C376 1.263 . S
C379 O380 1.235 . S
C379 O406 1.289 . S
O380 C379 1.235 . S
C381 C383 1.400 . S
C381 N384 1.351 . S
C381 C386 1.501 . S
C382 C383 1.387 . S
C382 N385 1.341 . S
C383 C381 1.400 . S
C383 C382 1.387 . S
N384 Co375 2.022 . S
N384 C381 1.351 . S
N384 N385 1.365 . S
N385 C382 1.341 . S
N385 N384 1.365 . S
N385 H405 0.862 . S
C386 C381 1.501 . S
C386 H387 0.961 . S
C386 H388 0.961 . S
C386 H389 0.960 . S
H387 C386 0.961 . S
H388 C386 0.961 . S
H389 C386 0.960 . S
C390 N391 1.342 . S
C390 C394 1.401 . S
C390 C395 1.499 . S
N391 Co374 1.989 . S
N391 C390 1.342 . S
N391 N392 1.388 . S
N392 Co375 1.993 . S
N392 N391 1.388 . S
N392 C393 1.346 . S
C393 N392 1.346 . S
C393 C394 1.396 . S
C393 C403 1.510 . S
C394 C390 1.401 . S
C394 C393 1.396 . S
C395 C390 1.499 . S
C395 H396 0.959 . S
C395 H397 0.960 . S
C395 H398 0.961 . S
H396 C395 0.959 . S
H397 C395 0.960 . S
H398 C395 0.961 . S
O399 Co374 1.967 . S
O399 C407 1.258 . S
O400 Co375 1.941 . S
O400 C407 1.266 . S
H401 C403 0.959 . S
H402 C403 0.961 . S
C403 C393 1.510 . S
C403 H401 0.959 . S
C403 H402 0.961 . S
C403 H404 0.960 . S
H404 C403 0.960 . S
H405 N385 0.862 . S
O406 Co374 1.920 . S
O406 C379 1.289 . S
C407 O399 1.258 . S
C407 O400 1.266 . S
Co408 O411 1.970 1_655 S
Co408 N425 1.989 . S
Co408 O433 1.967 1_655 S
Co408 O440 1.920 . S
Co409 O412 1.966 . S
Co409 N418 2.022 . S
Co409 N426 1.993 . S
Co409 O434 1.941 . S
C410 O411 1.258 . S
C410 O412 1.263 . S
O411 Co408 1.970 1_455 S
O411 C410 1.258 . S
O412 Co409 1.966 . S
O412 C410 1.263 . S
C413 O414 1.235 1_554 S
C413 O440 1.289 1_554 S
O414 C413 1.235 1_556 S
C415 C417 1.400 . S
C415 N418 1.351 . S
C415 C420 1.501 . S
C416 C417 1.387 . S
C416 N419 1.341 . S
C417 C415 1.400 . S
C417 C416 1.387 . S
N418 Co409 2.022 . S
N418 C415 1.351 . S
N418 N419 1.365 . S
N419 C416 1.341 . S
N419 N418 1.365 . S
N419 H439 0.862 . S
C420 C415 1.501 . S
C420 H421 0.961 . S
C420 H422 0.961 . S
C420 H423 0.960 . S
H421 C420 0.961 . S
H422 C420 0.961 . S
H423 C420 0.960 . S
C424 N425 1.342 . S
C424 C428 1.401 . S
C424 C429 1.499 . S
N425 Co408 1.989 . S
N425 C424 1.342 . S
N425 N426 1.388 1_655 S
N426 Co409 1.993 . S
N426 N425 1.388 1_455 S
N426 C427 1.346 1_455 S
C427 N426 1.346 1_655 S
C427 C428 1.396 . S
C427 C437 1.510 1_655 S
C428 C424 1.401 . S
C428 C427 1.396 . S
C429 C424 1.499 . S
C429 H430 0.959 . S
C429 H431 0.960 . S
C429 H432 0.961 . S
H430 C429 0.959 . S
H431 C429 0.960 . S
H432 C429 0.961 . S
O433 Co408 1.967 1_455 S
O433 C441 1.258 . S
O434 Co409 1.941 . S
O434 C441 1.266 . S
H435 C437 0.959 . S
H436 C437 0.961 . S
C437 C427 1.510 1_455 S
C437 H435 0.959 . S
C437 H436 0.961 . S
C437 H438 0.960 . S
H438 C437 0.960 . S
H439 N419 0.862 . S
O440 Co408 1.920 . S
O440 C413 1.289 1_556 S
C441 O433 1.258 . S
C441 O434 1.266 . S
Co442 O445 1.970 . S
Co442 N459 1.989 . S
Co442 O467 1.967 . S
Co442 O474 1.920 . S
Co443 O446 1.966 . S
Co443 N452 2.022 . S
Co443 N460 1.993 . S
Co443 O468 1.941 . S
C444 O445 1.258 . S
C444 O446 1.263 . S
O445 Co442 1.970 . S
O445 C444 1.258 . S
O446 Co443 1.966 . S
O446 C444 1.263 . S
C447 O448 1.235 . S
C447 O474 1.289 . S
O448 C447 1.235 . S
C449 C451 1.400 . S
C449 N452 1.351 . S
C449 C454 1.501 . S
C450 C451 1.387 . S
C450 N453 1.341 . S
C451 C449 1.400 . S
C451 C450 1.387 . S
N452 Co443 2.022 . S
N452 C449 1.351 . S
N452 N453 1.365 . S
N453 C450 1.341 . S
N453 N452 1.365 . S
N453 H473 0.862 . S
C454 C449 1.501 . S
C454 H455 0.961 . S
C454 H456 0.961 . S
C454 H457 0.960 . S
H455 C454 0.961 . S
H456 C454 0.961 . S
H457 C454 0.960 . S
C458 N459 1.342 . S
C458 C462 1.401 . S
C458 C463 1.499 . S
N459 Co442 1.989 . S
N459 C458 1.342 . S
N459 N460 1.388 . S
N460 Co443 1.993 . S
N460 N459 1.388 . S
N460 C461 1.346 . S
C461 N460 1.346 . S
C461 C462 1.396 . S
C461 C471 1.510 . S
C462 C458 1.401 . S
C462 C461 1.396 . S
C463 C458 1.499 . S
C463 H464 0.959 . S
C463 H465 0.960 . S
C463 H466 0.961 . S
H464 C463 0.959 . S
H465 C463 0.960 . S
H466 C463 0.961 . S
O467 Co442 1.967 . S
O467 C475 1.258 . S
O468 Co443 1.941 . S
O468 C475 1.266 . S
H469 C471 0.959 . S
H470 C471 0.961 . S
C471 C461 1.510 . S
C471 H469 0.959 . S
C471 H470 0.961 . S
C471 H472 0.960 . S
H472 C471 0.960 . S
H473 N453 0.862 . S
O474 Co442 1.920 . S
O474 C447 1.289 . S
C475 O467 1.258 . S
C475 O468 1.266 . S
Co476 O479 1.970 1_655 S
Co476 N493 1.989 . S
Co476 O501 1.967 1_655 S
Co476 O508 1.920 . S
Co477 O480 1.966 . S
Co477 N486 2.022 . S
Co477 N494 1.993 . S
Co477 O502 1.941 . S
C478 O479 1.258 . S
C478 O480 1.263 . S
O479 Co476 1.970 1_455 S
O479 C478 1.258 . S
O480 Co477 1.966 . S
O480 C478 1.263 . S
C481 O482 1.235 1_556 S
C481 O508 1.289 1_556 S
O482 C481 1.235 1_554 S
C483 C485 1.400 . S
C483 N486 1.351 . S
C483 C488 1.501 . S
C484 C485 1.387 . S
C484 N487 1.341 . S
C485 C483 1.400 . S
C485 C484 1.387 . S
N486 Co477 2.022 . S
N486 C483 1.351 . S
N486 N487 1.365 . S
N487 C484 1.341 . S
N487 N486 1.365 . S
N487 H507 0.862 . S
C488 C483 1.501 . S
C488 H489 0.961 . S
C488 H490 0.961 . S
C488 H491 0.960 . S
H489 C488 0.961 . S
H490 C488 0.961 . S
H491 C488 0.960 . S
C492 N493 1.342 . S
C492 C496 1.401 . S
C492 C497 1.499 . S
N493 Co476 1.989 . S
N493 C492 1.342 . S
N493 N494 1.388 1_655 S
N494 Co477 1.993 . S
N494 N493 1.388 1_455 S
N494 C495 1.346 1_455 S
C495 N494 1.346 1_655 S
C495 C496 1.396 . S
C495 C505 1.510 1_655 S
C496 C492 1.401 . S
C496 C495 1.396 . S
C497 C492 1.499 . S
C497 H498 0.959 . S
C497 H499 0.960 . S
C497 H500 0.961 . S
H498 C497 0.959 . S
H499 C497 0.960 . S
H500 C497 0.961 . S
O501 Co476 1.967 1_455 S
O501 C509 1.258 . S
O502 Co477 1.941 . S
O502 C509 1.266 . S
H503 C505 0.959 . S
H504 C505 0.961 . S
C505 C495 1.510 1_455 S
C505 H503 0.959 . S
C505 H504 0.961 . S
C505 H506 0.960 . S
H506 C505 0.960 . S
H507 N487 0.862 . S
O508 Co476 1.920 . S
O508 C481 1.289 1_554 S
C509 O501 1.258 . S
C509 O502 1.266 . S
Co510 O513 1.970 . S
Co510 N527 1.989 . S
Co510 O535 1.967 . S
Co510 O542 1.920 . S
Co511 O514 1.966 . S
Co511 N520 2.022 . S
Co511 N528 1.993 . S
Co511 O536 1.941 . S
C512 O513 1.258 . S
C512 O514 1.263 . S
O513 Co510 1.970 . S
O513 C512 1.258 . S
O514 Co511 1.966 . S
O514 C512 1.263 . S
C515 O516 1.235 . S
C515 O542 1.289 . S
O516 C515 1.235 . S
C517 C519 1.400 . S
C517 N520 1.351 . S
C517 C522 1.501 . S
C518 C519 1.387 . S
C518 N521 1.341 . S
C519 C517 1.400 . S
C519 C518 1.387 . S
N520 Co511 2.022 . S
N520 C517 1.351 . S
N520 N521 1.365 . S
N521 C518 1.341 . S
N521 N520 1.365 . S
N521 H541 0.862 . S
C522 C517 1.501 . S
C522 H523 0.961 . S
C522 H524 0.961 . S
C522 H525 0.960 . S
H523 C522 0.961 . S
H524 C522 0.961 . S
H525 C522 0.960 . S
C526 N527 1.342 . S
C526 C530 1.401 . S
C526 C531 1.499 . S
N527 Co510 1.989 . S
N527 C526 1.342 . S
N527 N528 1.388 . S
N528 Co511 1.993 . S
N528 N527 1.388 . S
N528 C529 1.346 . S
C529 N528 1.346 . S
C529 C530 1.396 . S
C529 C539 1.510 . S
C530 C526 1.401 . S
C530 C529 1.396 . S
C531 C526 1.499 . S
C531 H532 0.959 . S
C531 H533 0.960 . S
C531 H534 0.961 . S
H532 C531 0.959 . S
H533 C531 0.960 . S
H534 C531 0.961 . S
O535 Co510 1.967 . S
O535 C543 1.258 . S
O536 Co511 1.941 . S
O536 C543 1.266 . S
H537 C539 0.959 . S
H538 C539 0.961 . S
C539 C529 1.510 . S
C539 H537 0.959 . S
C539 H538 0.961 . S
C539 H540 0.960 . S
H540 C539 0.960 . S
H541 N521 0.862 . S
O542 Co510 1.920 . S
O542 C515 1.289 . S
C543 O535 1.258 . S
C543 O536 1.266 . S
H544 C550 0.930 . S
H545 C554 0.930 . S
H546 C559 0.929 . S
H547 C557 0.929 . S
H548 C552 0.929 . S
H549 C558 0.929 . S
C550 H544 0.930 . S
C550 C551 1.367 . S
C550 C558 1.378 . S
C551 C550 1.367 . S
C551 C559 1.433 . S
C552 H548 0.929 . S
C552 C554 1.378 . S
C552 C556 1.350 . S
C553 C556 1.463 1_545 S
C553 C558 1.350 . S
C553 N561 1.427 . S
C554 H545 0.930 . S
C554 C552 1.378 . S
C554 C555 1.367 . S
C555 C554 1.367 . S
C555 C557 1.433 . S
C556 C552 1.350 . S
C556 C553 1.463 1_565 S
C556 N560 1.427 . S
C557 H547 0.929 . S
C557 C555 1.433 . S
C557 N560 1.384 . S
C558 H549 0.929 . S
C558 C550 1.378 . S
C558 C553 1.350 . S
C559 H546 0.929 . S
C559 C551 1.433 . S
C559 N561 1.384 . S
N560 C556 1.427 . S
N560 C557 1.384 . S
N561 C553 1.427 . S
N561 C559 1.384 . S
H562 C568 0.930 . S
H563 C572 0.930 . S
H564 C577 0.929 . S
H565 C575 0.929 . S
H566 C570 0.929 . S
H567 C576 0.929 . S
C568 H562 0.930 . S
C568 C569 1.367 . S
C568 C576 1.378 . S
C569 C568 1.367 . S
C569 C577 1.433 . S
C570 H566 0.929 . S
C570 C572 1.378 . S
C570 C574 1.350 . S
C571 C574 1.463 . S
C571 C576 1.350 . S
C571 N579 1.427 . S
C572 H563 0.930 . S
C572 C570 1.378 . S
C572 C573 1.367 . S
C573 C572 1.367 . S
C573 C575 1.433 . S
C574 C570 1.350 . S
C574 C571 1.463 . S
C574 N578 1.427 . S
C575 H565 0.929 . S
C575 C573 1.433 . S
C575 N578 1.384 . S
C576 H567 0.929 . S
C576 C568 1.378 . S
C576 C571 1.350 . S
C577 H564 0.929 . S
C577 C569 1.433 . S
C577 N579 1.384 . S
N578 C574 1.427 . S
N578 C575 1.384 . S
N579 C571 1.427 . S
N579 C577 1.384 . S
H580 C586 0.930 . S
H581 C590 0.930 . S
H582 C595 0.929 . S
H583 C593 0.929 . S
H584 C588 0.929 . S
H585 C594 0.929 . S
C586 H580 0.930 . S
C586 C587 1.367 1_655 S
C586 C594 1.378 . S
C587 C586 1.367 1_455 S
C587 C595 1.433 . S
C588 H584 0.929 . S
C588 C590 1.378 . S
C588 C592 1.350 . S
C589 C592 1.463 1_544 S
C589 C594 1.350 1_455 S
C589 N597 1.427 . S
C590 H581 0.930 . S
C590 C588 1.378 . S
C590 C591 1.367 . S
C591 C590 1.367 . S
C591 C593 1.433 1_455 S
C592 C588 1.350 . S
C592 C589 1.463 1_566 S
C592 N596 1.427 1_455 S
C593 H583 0.929 . S
C593 C591 1.433 1_655 S
C593 N596 1.384 . S
C594 H585 0.929 . S
C594 C586 1.378 . S
C594 C589 1.350 1_655 S
C595 H582 0.929 . S
C595 C587 1.433 . S
C595 N597 1.384 . S
N596 C592 1.427 1_655 S
N596 C593 1.384 . S
N597 C589 1.427 . S
N597 C595 1.384 . S
H598 C604 0.930 . S
H599 C608 0.930 . S
H600 C613 0.929 . S
H601 C611 0.929 . S
H602 C606 0.929 . S
H603 C612 0.929 . S
C604 H598 0.930 . S
C604 C605 1.367 . S
C604 C612 1.378 . S
C605 C604 1.367 . S
C605 C613 1.433 . S
C606 H602 0.929 . S
C606 C608 1.378 . S
C606 C610 1.350 . S
C607 C610 1.463 . S
C607 C612 1.350 . S
C607 N615 1.427 . S
C608 H599 0.930 . S
C608 C606 1.378 . S
C608 C609 1.367 . S
C609 C608 1.367 . S
C609 C611 1.433 . S
C610 C606 1.350 . S
C610 C607 1.463 . S
C610 N614 1.427 . S
C611 H601 0.929 . S
C611 C609 1.433 . S
C611 N614 1.384 . S
C612 H603 0.929 . S
C612 C604 1.378 . S
C612 C607 1.350 . S
C613 H600 0.929 . S
C613 C605 1.433 . S
C613 N615 1.384 . S
N614 C610 1.427 . S
N614 C611 1.384 . S
N615 C607 1.427 . S
N615 C613 1.384 . S
H616 C622 0.930 . S
H617 C626 0.930 . S
H618 C631 0.929 . S
H619 C629 0.929 . S
H620 C624 0.929 . S
H621 C630 0.929 . S
C622 H616 0.930 . S
C622 C623 1.367 . S
C622 C630 1.378 . S
C623 C622 1.367 . S
C623 C631 1.433 . S
C624 H620 0.929 . S
C624 C626 1.378 . S
C624 C628 1.350 . S
C625 C628 1.463 . S
C625 C630 1.350 . S
C625 N633 1.427 . S
C626 H617 0.930 . S
C626 C624 1.378 . S
C626 C627 1.367 . S
C627 C626 1.367 . S
C627 C629 1.433 . S
C628 C624 1.350 . S
C628 C625 1.463 . S
C628 N632 1.427 . S
C629 H619 0.929 . S
C629 C627 1.433 . S
C629 N632 1.384 . S
C630 H621 0.929 . S
C630 C622 1.378 . S
C630 C625 1.350 . S
C631 H618 0.929 . S
C631 C623 1.433 . S
C631 N633 1.384 . S
N632 C628 1.427 . S
N632 C629 1.384 . S
N633 C625 1.427 . S
N633 C631 1.384 . S
H634 C640 0.930 . S
H635 C644 0.930 . S
H636 C649 0.929 . S
H637 C647 0.929 . S
H638 C642 0.929 . S
H639 C648 0.929 . S
C640 H634 0.930 . S
C640 C641 1.367 . S
C640 C648 1.378 . S
C641 C640 1.367 . S
C641 C649 1.433 . S
C642 H638 0.929 . S
C642 C644 1.378 . S
C642 C646 1.350 . S
C643 C646 1.463 . S
C643 C648 1.350 . S
C643 N651 1.427 . S
C644 H635 0.930 . S
C644 C642 1.378 . S
C644 C645 1.367 . S
C645 C644 1.367 . S
C645 C647 1.433 . S
C646 C642 1.350 . S
C646 C643 1.463 . S
C646 N650 1.427 . S
C647 H637 0.929 . S
C647 C645 1.433 . S
C647 N650 1.384 . S
C648 H639 0.929 . S
C648 C640 1.378 . S
C648 C643 1.350 . S
C649 H636 0.929 . S
C649 C641 1.433 . S
C649 N651 1.384 . S
N650 C646 1.427 . S
N650 C647 1.384 . S
N651 C643 1.427 . S
N651 C649 1.384 . S
H652 C658 0.930 . S
H653 C662 0.930 1_655 S
H654 C667 0.929 1_655 S
H655 C665 0.929 . S
H656 C660 0.929 1_655 S
H657 C666 0.929 . S
C658 H652 0.930 . S
C658 C659 1.367 . S
C658 C666 1.378 . S
C659 C658 1.367 . S
C659 C667 1.433 . S
C660 H656 0.929 1_455 S
C660 C662 1.378 . S
C660 C664 1.350 . S
C661 C664 1.463 1_556 S
C661 C666 1.350 . S
C661 N669 1.427 . S
C662 H653 0.930 1_455 S
C662 C660 1.378 . S
C662 C663 1.367 . S
C663 C662 1.367 . S
C663 C665 1.433 . S
C664 C660 1.350 . S
C664 C661 1.463 1_554 S
C664 N668 1.427 . S
C665 H655 0.929 . S
C665 C663 1.433 . S
C665 N668 1.384 . S
C666 H657 0.929 . S
C666 C658 1.378 . S
C666 C661 1.350 . S
C667 H654 0.929 1_455 S
C667 C659 1.433 . S
C667 N669 1.384 . S
N668 C664 1.427 . S
N668 C665 1.384 . S
N669 C661 1.427 . S
N669 C667 1.384 . S
H670 C676 0.930 . S
H671 C680 0.930 . S
H672 C685 0.929 . S
H673 C683 0.929 . S
H674 C678 0.929 . S
H675 C684 0.929 . S
C676 H670 0.930 . S
C676 C677 1.367 . S
C676 C684 1.378 . S
C677 C676 1.367 . S
C677 C685 1.433 . S
C678 H674 0.929 . S
C678 C680 1.378 . S
C678 C682 1.350 . S
C679 C682 1.463 . S
C679 C684 1.350 . S
C679 N687 1.427 . S
C680 H671 0.930 . S
C680 C678 1.378 . S
C680 C681 1.367 . S
C681 C680 1.367 . S
C681 C683 1.433 . S
C682 C678 1.350 . S
C682 C679 1.463 . S
C682 N686 1.427 . S
C683 H673 0.929 . S
C683 C681 1.433 . S
C683 N686 1.384 . S
C684 H675 0.929 . S
C684 C676 1.378 . S
C684 C679 1.350 . S
C685 H672 0.929 . S
C685 C677 1.433 . S
C685 N687 1.384 . S
N686 C682 1.427 . S
N686 C683 1.384 . S
N687 C679 1.427 . S
N687 C685 1.384 . S
H688 C694 0.930 . S
H689 C698 0.930 1_556 S
H690 C703 0.929 . S
H691 C701 0.929 . S
H692 C696 0.929 . S
H693 C702 0.929 . S
C694 H688 0.930 . S
C694 C695 1.367 . S
C694 C702 1.378 . S
C695 C694 1.367 . S
C695 C703 1.433 . S
C696 H692 0.929 . S
C696 C698 1.378 . S
C696 C700 1.350 . S
C697 C700 1.463 . S
C697 C702 1.350 . S
C697 N705 1.427 . S
C698 H689 0.930 1_554 S
C698 C696 1.378 . S
C698 C699 1.367 . S
C699 C698 1.367 . S
C699 C701 1.433 . S
C700 C696 1.350 . S
C700 C697 1.463 . S
C700 N704 1.427 . S
C701 H691 0.929 . S
C701 C699 1.433 . S
C701 N704 1.384 . S
C702 H693 0.929 . S
C702 C694 1.378 . S
C702 C697 1.350 . S
C703 H690 0.929 . S
C703 C695 1.433 . S
C703 N705 1.384 . S
N704 C700 1.427 . S
N704 C701 1.384 . S
N705 C697 1.427 . S
N705 C703 1.384 . S
H706 C712 0.930 . S
H707 C716 0.930 . S
H708 C721 0.929 . S
H709 C719 0.929 . S
H710 C714 0.929 . S
H711 C720 0.929 . S
C712 H706 0.930 . S
C712 C713 1.367 . S
C712 C720 1.378 . S
C713 C712 1.367 . S
C713 C721 1.433 . S
C714 H710 0.929 . S
C714 C716 1.378 . S
C714 C718 1.350 . S
C715 C718 1.463 . S
C715 C720 1.350 . S
C715 N723 1.427 . S
C716 H707 0.930 . S
C716 C714 1.378 . S
C716 C717 1.367 . S
C717 C716 1.367 . S
C717 C719 1.433 . S
C718 C714 1.350 . S
C718 C715 1.463 . S
C718 N722 1.427 . S
C719 H709 0.929 . S
C719 C717 1.433 . S
C719 N722 1.384 . S
C720 H711 0.929 . S
C720 C712 1.378 . S
C720 C715 1.350 . S
C721 H708 0.929 . S
C721 C713 1.433 . S
C721 N723 1.384 . S
N722 C718 1.427 . S
N722 C719 1.384 . S
N723 C715 1.427 . S
N723 C721 1.384 . S
H724 C730 0.930 . S
H725 C734 0.930 . S
H726 C739 0.929 . S
H727 C737 0.929 . S
H728 C732 0.929 . S
H729 C738 0.929 . S
C730 H724 0.930 . S
C730 C731 1.367 . S
C730 C738 1.378 . S
C731 C730 1.367 . S
C731 C739 1.433 . S
C732 H728 0.929 . S
C732 C734 1.378 . S
C732 C736 1.350 . S
C733 C736 1.463 . S
C733 C738 1.350 . S
C733 N741 1.427 . S
C734 H725 0.930 . S
C734 C732 1.378 . S
C734 C735 1.367 . S
C735 C734 1.367 . S
C735 C737 1.433 . S
C736 C732 1.350 . S
C736 C733 1.463 . S
C736 N740 1.427 . S
C737 H727 0.929 . S
C737 C735 1.433 . S
C737 N740 1.384 . S
C738 H729 0.929 . S
C738 C730 1.378 . S
C738 C733 1.350 . S
C739 H726 0.929 . S
C739 C731 1.433 . S
C739 N741 1.384 . S
N740 C736 1.427 . S
N740 C737 1.384 . S
N741 C733 1.427 . S
N741 C739 1.384 . S
H742 C748 0.930 . S
H743 C752 0.930 . S
H744 C757 0.929 1_554 S
H745 C755 0.929 . S
H746 C750 0.929 . S
H747 C756 0.929 . S
C748 H742 0.930 . S
C748 C749 1.367 . S
C748 C756 1.378 . S
C749 C748 1.367 . S
C749 C757 1.433 . S
C750 H746 0.929 . S
C750 C752 1.378 . S
C750 C754 1.350 . S
C751 C754 1.463 . S
C751 C756 1.350 . S
C751 N759 1.427 . S
C752 H743 0.930 . S
C752 C750 1.378 . S
C752 C753 1.367 . S
C753 C752 1.367 . S
C753 C755 1.433 . S
C754 C750 1.350 . S
C754 C751 1.463 . S
C754 N758 1.427 . S
C755 H745 0.929 . S
C755 C753 1.433 . S
C755 N758 1.384 . S
C756 H747 0.929 . S
C756 C748 1.378 . S
C756 C751 1.350 . S
C757 H744 0.929 1_556 S
C757 C749 1.433 . S
C757 N759 1.384 . S
N758 C754 1.427 . S
N758 C755 1.384 . S
N759 C751 1.427 . S
N759 C757 1.384 . S
H760 C766 0.930 . S
H761 C770 0.930 . S
H762 C775 0.929 . S
H763 C773 0.929 1_554 S
H764 C768 0.929 . S
H765 C774 0.929 . S
C766 H760 0.930 . S
C766 C767 1.367 . S
C766 C774 1.378 . S
C767 C766 1.367 . S
C767 C775 1.433 . S
C768 H764 0.929 . S
C768 C770 1.378 . S
C768 C772 1.350 . S
C769 C772 1.463 . S
C769 C774 1.350 . S
C769 N777 1.427 . S
C770 H761 0.930 . S
C770 C768 1.378 . S
C770 C771 1.367 . S
C771 C770 1.367 . S
C771 C773 1.433 . S
C772 C768 1.350 . S
C772 C769 1.463 . S
C772 N776 1.427 . S
C773 H763 0.929 1_556 S
C773 C771 1.433 . S
C773 N776 1.384 . S
C774 H765 0.929 . S
C774 C766 1.378 . S
C774 C769 1.350 . S
C775 H762 0.929 . S
C775 C767 1.433 . S
C775 N777 1.384 . S
N776 C772 1.427 . S
N776 C773 1.384 . S
N777 C769 1.427 . S
N777 C775 1.384 . S
H778 C784 0.930 . S
H779 C788 0.930 . S
H780 C793 0.929 . S
H781 C791 0.929 . S
H782 C786 0.929 . S
H783 C792 0.929 . S
C784 H778 0.930 . S
C784 C785 1.367 . S
C784 C792 1.378 . S
C785 C784 1.367 . S
C785 C793 1.433 . S
C786 H782 0.929 . S
C786 C788 1.378 . S
C786 C790 1.350 . S
C787 C790 1.463 . S
C787 C792 1.350 . S
C787 N795 1.427 . S
C788 H779 0.930 . S
C788 C786 1.378 . S
C788 C789 1.367 . S
C789 C788 1.367 . S
C789 C791 1.433 . S
C790 C786 1.350 . S
C790 C787 1.463 . S
C790 N794 1.427 . S
C791 H781 0.929 . S
C791 C789 1.433 . S
C791 N794 1.384 . S
C792 H783 0.929 . S
C792 C784 1.378 . S
C792 C787 1.350 . S
C793 H780 0.929 . S
C793 C785 1.433 . S
C793 N795 1.384 . S
N794 C790 1.427 . S
N794 C791 1.384 . S
N795 C787 1.427 . S
N795 C793 1.384 . S
H796 C802 0.930 . S
H797 C806 0.930 . S
H798 C811 0.929 . S
H799 C809 0.929 . S
H800 C804 0.929 . S
H801 C810 0.929 . S
C802 H796 0.930 . S
C802 C803 1.367 . S
C802 C810 1.378 . S
C803 C802 1.367 . S
C803 C811 1.433 . S
C804 H800 0.929 . S
C804 C806 1.378 . S
C804 C808 1.350 . S
C805 C808 1.463 . S
C805 C810 1.350 . S
C805 N813 1.427 . S
C806 H797 0.930 . S
C806 C804 1.378 . S
C806 C807 1.367 . S
C807 C806 1.367 . S
C807 C809 1.433 . S
C808 C804 1.350 . S
C808 C805 1.463 . S
C808 N812 1.427 . S
C809 H799 0.929 . S
C809 C807 1.433 . S
C809 N812 1.384 . S
C810 H801 0.929 . S
C810 C802 1.378 . S
C810 C805 1.350 . S
C811 H798 0.929 . S
C811 C803 1.433 . S
C811 N813 1.384 . S
N812 C808 1.427 . S
N812 C809 1.384 . S
N813 C805 1.427 . S
N813 C811 1.384 . S
H814 C820 0.930 . S
H815 C824 0.930 . S
H816 C829 0.929 . S
H817 C827 0.929 . S
H818 C822 0.929 . S
H819 C828 0.929 . S
C820 H814 0.930 . S
C820 C821 1.367 . S
C820 C828 1.378 . S
C821 C820 1.367 . S
C821 C829 1.433 . S
C822 H818 0.929 . S
C822 C824 1.378 . S
C822 C826 1.350 . S
C823 C826 1.463 . S
C823 C828 1.350 . S
C823 N831 1.427 . S
C824 H815 0.930 . S
C824 C822 1.378 . S
C824 C825 1.367 . S
C825 C824 1.367 . S
C825 C827 1.433 . S
C826 C822 1.350 . S
C826 C823 1.463 . S
C826 N830 1.427 . S
C827 H817 0.929 . S
C827 C825 1.433 . S
C827 N830 1.384 . S
C828 H819 0.929 . S
C828 C820 1.378 . S
C828 C823 1.350 . S
C829 H816 0.929 . S
C829 C821 1.433 . S
C829 N831 1.384 . S
N830 C826 1.427 . S
N830 C827 1.384 . S
N831 C823 1.427 . S
N831 C829 1.384 . S
H832 C838 0.930 . S
H833 C842 0.930 . S
H834 C847 0.929 . S
H835 C845 0.929 . S
H836 C840 0.929 . S
H837 C846 0.929 . S
C838 H832 0.930 . S
C838 C839 1.367 . S
C838 C846 1.378 . S
C839 C838 1.367 . S
C839 C847 1.433 . S
C840 H836 0.929 . S
C840 C842 1.378 . S
C840 C844 1.350 . S
C841 C844 1.463 . S
C841 C846 1.350 . S
C841 N849 1.427 . S
C842 H833 0.930 . S
C842 C840 1.378 . S
C842 C843 1.367 . S
C843 C842 1.367 . S
C843 C845 1.433 . S
C844 C840 1.350 . S
C844 C841 1.463 . S
C844 N848 1.427 . S
C845 H835 0.929 . S
C845 C843 1.433 . S
C845 N848 1.384 . S
C846 H837 0.929 . S
C846 C838 1.378 . S
C846 C841 1.350 . S
C847 H834 0.929 . S
C847 C839 1.433 . S
C847 N849 1.384 . S
N848 C844 1.427 . S
N848 C845 1.384 . S
N849 C841 1.427 . S
N849 C847 1.384 . S
H850 C856 0.930 1_554 S
H851 C860 0.930 . S
H852 C865 0.929 . S
H853 C863 0.929 . S
H854 C858 0.929 . S
H855 C864 0.929 . S
C856 H850 0.930 1_556 S
C856 C857 1.367 . S
C856 C864 1.378 . S
C857 C856 1.367 . S
C857 C865 1.433 . S
C858 H854 0.929 . S
C858 C860 1.378 . S
C858 C862 1.350 . S
C859 C862 1.463 . S
C859 C864 1.350 . S
C859 N867 1.427 . S
C860 H851 0.930 . S
C860 C858 1.378 . S
C860 C861 1.367 . S
C861 C860 1.367 . S
C861 C863 1.433 . S
C862 C858 1.350 . S
C862 C859 1.463 . S
C862 N866 1.427 . S
C863 H853 0.929 . S
C863 C861 1.433 . S
C863 N866 1.384 . S
C864 H855 0.929 . S
C864 C856 1.378 . S
C864 C859 1.350 . S
C865 H852 0.929 . S
C865 C857 1.433 . S
C865 N867 1.384 . S
N866 C862 1.427 . S
N866 C863 1.384 . S
N867 C859 1.427 . S
N867 C865 1.384 . S
H868 C874 0.930 1_556 S
H869 C878 0.930 . S
H870 C883 0.929 . S
H871 C881 0.929 . S
H872 C876 0.929 . S
H873 C882 0.929 . S
C874 H868 0.930 1_554 S
C874 C875 1.367 . S
C874 C882 1.378 . S
C875 C874 1.367 . S
C875 C883 1.433 . S
C876 H872 0.929 . S
C876 C878 1.378 . S
C876 C880 1.350 . S
C877 C880 1.463 . S
C877 C882 1.350 . S
C877 N885 1.427 . S
C878 H869 0.930 . S
C878 C876 1.378 . S
C878 C879 1.367 . S
C879 C878 1.367 . S
C879 C881 1.433 . S
C880 C876 1.350 . S
C880 C877 1.463 . S
C880 N884 1.427 . S
C881 H871 0.929 . S
C881 C879 1.433 . S
C881 N884 1.384 . S
C882 H873 0.929 . S
C882 C874 1.378 . S
C882 C877 1.350 . S
C883 H870 0.929 . S
C883 C875 1.433 . S
C883 N885 1.384 . S
N884 C880 1.427 . S
N884 C881 1.384 . S
N885 C877 1.427 . S
N885 C883 1.384 . S
H886 C892 0.930 . S
H887 C896 0.930 . S
H888 C901 0.929 . S
H889 C899 0.929 . S
H890 C894 0.929 . S
H891 C900 0.929 . S
C892 H886 0.930 . S
C892 C893 1.367 . S
C892 C900 1.378 . S
C893 C892 1.367 . S
C893 C901 1.433 . S
C894 H890 0.929 . S
C894 C896 1.378 . S
C894 C898 1.350 . S
C895 C898 1.463 . S
C895 C900 1.350 . S
C895 N903 1.427 . S
C896 H887 0.930 . S
C896 C894 1.378 . S
C896 C897 1.367 . S
C897 C896 1.367 . S
C897 C899 1.433 . S
C898 C894 1.350 . S
C898 C895 1.463 . S
C898 N902 1.427 . S
C899 H889 0.929 . S
C899 C897 1.433 . S
C899 N902 1.384 . S
C900 H891 0.929 . S
C900 C892 1.378 . S
C900 C895 1.350 . S
C901 H888 0.929 . S
C901 C893 1.433 . S
C901 N903 1.384 . S
N902 C898 1.427 . S
N902 C899 1.384 . S
N903 C895 1.427 . S
N903 C901 1.384 . S
H904 C910 0.930 . S
H905 C914 0.930 . S
H906 C919 0.929 . S
H907 C917 0.929 . S
H908 C912 0.929 . S
H909 C918 0.929 . S
C910 H904 0.930 . S
C910 C911 1.367 . S
C910 C918 1.378 . S
C911 C910 1.367 . S
C911 C919 1.433 . S
C912 H908 0.929 . S
C912 C914 1.378 . S
C912 C916 1.350 . S
C913 C916 1.463 . S
C913 C918 1.350 . S
C913 N921 1.427 . S
C914 H905 0.930 . S
C914 C912 1.378 . S
C914 C915 1.367 . S
C915 C914 1.367 . S
C915 C917 1.433 . S
C916 C912 1.350 . S
C916 C913 1.463 . S
C916 N920 1.427 . S
C917 H907 0.929 . S
C917 C915 1.433 . S
C917 N920 1.384 . S
C918 H909 0.929 . S
C918 C910 1.378 . S
C918 C913 1.350 . S
C919 H906 0.929 . S
C919 C911 1.433 . S
C919 N921 1.384 . S
N920 C916 1.427 . S
N920 C917 1.384 . S
N921 C913 1.427 . S
N921 C919 1.384 . S
H922 C928 0.930 . S
H923 C932 0.930 . S
H924 C937 0.929 . S
H925 C935 0.929 . S
H926 C930 0.929 . S
H927 C936 0.929 . S
C928 H922 0.930 . S
C928 C929 1.367 . S
C928 C936 1.378 . S
C929 C928 1.367 . S
C929 C937 1.433 . S
C930 H926 0.929 . S
C930 C932 1.378 . S
C930 C934 1.350 . S
C931 C934 1.463 . S
C931 C936 1.350 . S
C931 N939 1.427 . S
C932 H923 0.930 . S
C932 C930 1.378 . S
C932 C933 1.367 . S
C933 C932 1.367 . S
C933 C935 1.433 . S
C934 C930 1.350 . S
C934 C931 1.463 . S
C934 N938 1.427 . S
C935 H925 0.929 . S
C935 C933 1.433 . S
C935 N938 1.384 . S
C936 H927 0.929 . S
C936 C928 1.378 . S
C936 C931 1.350 . S
C937 H924 0.929 . S
C937 C929 1.433 . S
C937 N939 1.384 . S
N938 C934 1.427 . S
N938 C935 1.384 . S
N939 C931 1.427 . S
N939 C937 1.384 . S
H940 C946 0.930 1_554 S
H941 C950 0.930 . S
H942 C955 0.929 . S
H943 C953 0.929 . S
H944 C948 0.929 . S
H945 C954 0.929 . S
C946 H940 0.930 1_556 S
C946 C947 1.367 . S
C946 C954 1.378 . S
C947 C946 1.367 . S
C947 C955 1.433 . S
C948 H944 0.929 . S
C948 C950 1.378 . S
C948 C952 1.350 . S
C949 C952 1.463 . S
C949 C954 1.350 . S
C949 N957 1.427 . S
C950 H941 0.930 . S
C950 C948 1.378 . S
C950 C951 1.367 . S
C951 C950 1.367 . S
C951 C953 1.433 . S
C952 C948 1.350 . S
C952 C949 1.463 . S
C952 N956 1.427 . S
C953 H943 0.929 . S
C953 C951 1.433 . S
C953 N956 1.384 . S
C954 H945 0.929 . S
C954 C946 1.378 . S
C954 C949 1.350 . S
C955 H942 0.929 . S
C955 C947 1.433 . S
C955 N957 1.384 . S
N956 C952 1.427 . S
N956 C953 1.384 . S
N957 C949 1.427 . S
N957 C955 1.384 . S
H958 C964 0.930 . S
H959 C968 0.930 . S
H960 C973 0.929 . S
H961 C971 0.929 . S
H962 C966 0.929 . S
H963 C972 0.929 . S
C964 H958 0.930 . S
C964 C965 1.367 . S
C964 C972 1.378 . S
C965 C964 1.367 . S
C965 C973 1.433 . S
C966 H962 0.929 . S
C966 C968 1.378 . S
C966 C970 1.350 . S
C967 C970 1.463 . S
C967 C972 1.350 . S
C967 N975 1.427 . S
C968 H959 0.930 . S
C968 C966 1.378 . S
C968 C969 1.367 . S
C969 C968 1.367 . S
C969 C971 1.433 . S
C970 C966 1.350 . S
C970 C967 1.463 . S
C970 N974 1.427 . S
C971 H961 0.929 . S
C971 C969 1.433 . S
C971 N974 1.384 . S
C972 H963 0.929 . S
C972 C964 1.378 . S
C972 C967 1.350 . S
C973 H960 0.929 . S
C973 C965 1.433 . S
C973 N975 1.384 . S
N974 C970 1.427 . S
N974 C971 1.384 . S
N975 C967 1.427 . S
N975 C973 1.384 . S
H976 C982 0.930 . S
H977 C986 0.930 . S
H978 C991 0.929 . S
H979 C989 0.929 . S
H980 C984 0.929 . S
H981 C990 0.929 . S
C982 H976 0.930 . S
C982 C983 1.367 . S
C982 C990 1.378 . S
C983 C982 1.367 . S
C983 C991 1.433 . S
C984 H980 0.929 . S
C984 C986 1.378 . S
C984 C988 1.350 . S
C985 C988 1.463 . S
C985 C990 1.350 . S
C985 N993 1.427 . S
C986 H977 0.930 . S
C986 C984 1.378 . S
C986 C987 1.367 . S
C987 C986 1.367 . S
C987 C989 1.433 . S
C988 C984 1.350 . S
C988 C985 1.463 . S
C988 N992 1.427 . S
C989 H979 0.929 . S
C989 C987 1.433 . S
C989 N992 1.384 . S
C990 H981 0.929 . S
C990 C982 1.378 . S
C990 C985 1.350 . S
C991 H978 0.929 . S
C991 C983 1.433 . S
C991 N993 1.384 . S
N992 C988 1.427 . S
N992 C989 1.384 . S
N993 C985 1.427 . S
N993 C991 1.384 . S
H994 C1000 0.930 . S
H995 C1004 0.930 . S
H996 C1009 0.929 . S
H997 C1007 0.929 . S
H998 C1002 0.929 . S
H999 C1008 0.929 . S
C1000 H994 0.930 . S
C1000 C1001 1.367 . S
C1000 C1008 1.378 . S
C1001 C1000 1.367 . S
C1001 C1009 1.433 . S
C1002 H998 0.929 . S
C1002 C1004 1.378 . S
C1002 C1006 1.350 . S
C1003 C1006 1.463 . S
C1003 C1008 1.350 . S
C1003 N1011 1.427 . S
C1004 H995 0.930 . S
C1004 C1002 1.378 . S
C1004 C1005 1.367 . S
C1005 C1004 1.367 . S
C1005 C1007 1.433 . S
C1006 C1002 1.350 . S
C1006 C1003 1.463 . S
C1006 N1010 1.427 . S
C1007 H997 0.929 . S
C1007 C1005 1.433 . S
C1007 N1010 1.384 . S
C1008 H999 0.929 . S
C1008 C1000 1.378 . S
C1008 C1003 1.350 . S
C1009 H996 0.929 . S
C1009 C1001 1.433 . S
C1009 N1011 1.384 . S
N1010 C1006 1.427 . S
N1010 C1007 1.384 . S
N1011 C1003 1.427 . S
N1011 C1009 1.384 . S
H1012 C1018 0.930 . S
H1013 C1022 0.930 . S
H1014 C1027 0.929 . S
H1015 C1025 0.929 . S
H1016 C1020 0.929 . S
H1017 C1026 0.929 . S
C1018 H1012 0.930 . S
C1018 C1019 1.367 . S
C1018 C1026 1.378 . S
C1019 C1018 1.367 . S
C1019 C1027 1.433 . S
C1020 H1016 0.929 . S
C1020 C1022 1.378 . S
C1020 C1024 1.350 . S
C1021 C1024 1.463 . S
C1021 C1026 1.350 . S
C1021 N1029 1.427 . S
C1022 H1013 0.930 . S
C1022 C1020 1.378 . S
C1022 C1023 1.367 . S
C1023 C1022 1.367 . S
C1023 C1025 1.433 . S
C1024 C1020 1.350 . S
C1024 C1021 1.463 . S
C1024 N1028 1.427 . S
C1025 H1015 0.929 . S
C1025 C1023 1.433 . S
C1025 N1028 1.384 . S
C1026 H1017 0.929 . S
C1026 C1018 1.378 . S
C1026 C1021 1.350 . S
C1027 H1014 0.929 . S
C1027 C1019 1.433 . S
C1027 N1029 1.384 . S
N1028 C1024 1.427 . S
N1028 C1025 1.384 . S
N1029 C1021 1.427 . S
N1029 C1027 1.384 . S
H1030 C1036 0.930 . S
H1031 C1040 0.930 . S
H1032 C1045 0.929 . S
H1033 C1043 0.929 . S
H1034 C1038 0.929 . S
H1035 C1044 0.929 . S
C1036 H1030 0.930 . S
C1036 C1037 1.367 . S
C1036 C1044 1.378 . S
C1037 C1036 1.367 . S
C1037 C1045 1.433 . S
C1038 H1034 0.929 . S
C1038 C1040 1.378 . S
C1038 C1042 1.350 . S
C1039 C1042 1.463 . S
C1039 C1044 1.350 . S
C1039 N1047 1.427 . S
C1040 H1031 0.930 . S
C1040 C1038 1.378 . S
C1040 C1041 1.367 . S
C1041 C1040 1.367 . S
C1041 C1043 1.433 . S
C1042 C1038 1.350 . S
C1042 C1039 1.463 . S
C1042 N1046 1.427 . S
C1043 H1033 0.929 . S
C1043 C1041 1.433 . S
C1043 N1046 1.384 . S
C1044 H1035 0.929 . S
C1044 C1036 1.378 . S
C1044 C1039 1.350 . S
C1045 H1032 0.929 . S
C1045 C1037 1.433 . S
C1045 N1047 1.384 . S
N1046 C1042 1.427 . S
N1046 C1043 1.384 . S
N1047 C1039 1.427 . S
N1047 C1045 1.384 . S
H1048 C1054 0.930 . S
H1049 C1058 0.930 . S
H1050 C1063 0.929 . S
H1051 C1061 0.929 . S
H1052 C1056 0.929 . S
H1053 C1062 0.929 . S
C1054 H1048 0.930 . S
C1054 C1055 1.367 . S
C1054 C1062 1.378 . S
C1055 C1054 1.367 . S
C1055 C1063 1.433 . S
C1056 H1052 0.929 . S
C1056 C1058 1.378 . S
C1056 C1060 1.350 . S
C1057 C1060 1.463 . S
C1057 C1062 1.350 . S
C1057 N1065 1.427 . S
C1058 H1049 0.930 . S
C1058 C1056 1.378 . S
C1058 C1059 1.367 . S
C1059 C1058 1.367 . S
C1059 C1061 1.433 . S
C1060 C1056 1.350 . S
C1060 C1057 1.463 . S
C1060 N1064 1.427 . S
C1061 H1051 0.929 . S
C1061 C1059 1.433 . S
C1061 N1064 1.384 . S
C1062 H1053 0.929 . S
C1062 C1054 1.378 . S
C1062 C1057 1.350 . S
C1063 H1050 0.929 . S
C1063 C1055 1.433 . S
C1063 N1065 1.384 . S
N1064 C1060 1.427 . S
N1064 C1061 1.384 . S
N1065 C1057 1.427 . S
N1065 C1063 1.384 . S
H1066 C1072 0.930 . S
H1067 C1076 0.930 . S
H1068 C1081 0.929 . S
H1069 C1079 0.929 . S
H1070 C1074 0.929 . S
H1071 C1080 0.929 . S
C1072 H1066 0.930 . S
C1072 C1073 1.367 . S
C1072 C1080 1.378 . S
C1073 C1072 1.367 . S
C1073 C1081 1.433 . S
C1074 H1070 0.929 . S
C1074 C1076 1.378 . S
C1074 C1078 1.350 . S
C1075 C1078 1.463 . S
C1075 C1080 1.350 . S
C1075 N1083 1.427 . S
C1076 H1067 0.930 . S
C1076 C1074 1.378 . S
C1076 C1077 1.367 . S
C1077 C1076 1.367 . S
C1077 C1079 1.433 . S
C1078 C1074 1.350 . S
C1078 C1075 1.463 . S
C1078 N1082 1.427 . S
C1079 H1069 0.929 . S
C1079 C1077 1.433 . S
C1079 N1082 1.384 . S
C1080 H1071 0.929 . S
C1080 C1072 1.378 . S
C1080 C1075 1.350 . S
C1081 H1068 0.929 . S
C1081 C1073 1.433 . S
C1081 N1083 1.384 . S
N1082 C1078 1.427 . S
N1082 C1079 1.384 . S
N1083 C1075 1.427 . S
N1083 C1081 1.384 . S
H1084 C1090 0.930 . S
H1085 C1094 0.930 1_554 S
H1086 C1099 0.929 . S
H1087 C1097 0.929 . S
H1088 C1092 0.929 . S
H1089 C1098 0.929 . S
C1090 H1084 0.930 . S
C1090 C1091 1.367 . S
C1090 C1098 1.378 . S
C1091 C1090 1.367 . S
C1091 C1099 1.433 . S
C1092 H1088 0.929 . S
C1092 C1094 1.378 . S
C1092 C1096 1.350 . S
C1093 C1096 1.463 . S
C1093 C1098 1.350 . S
C1093 N1101 1.427 . S
C1094 H1085 0.930 1_556 S
C1094 C1092 1.378 . S
C1094 C1095 1.367 . S
C1095 C1094 1.367 . S
C1095 C1097 1.433 . S
C1096 C1092 1.350 . S
C1096 C1093 1.463 . S
C1096 N1100 1.427 . S
C1097 H1087 0.929 . S
C1097 C1095 1.433 . S
C1097 N1100 1.384 . S
C1098 H1089 0.929 . S
C1098 C1090 1.378 . S
C1098 C1093 1.350 . S
C1099 H1086 0.929 . S
C1099 C1091 1.433 . S
C1099 N1101 1.384 . S
N1100 C1096 1.427 . S
N1100 C1097 1.384 . S
N1101 C1093 1.427 . S
N1101 C1099 1.384 . S
H1102 C1108 0.930 . S
H1103 C1112 0.930 . S
H1104 C1117 0.929 . S
H1105 C1115 0.929 . S
H1106 C1110 0.929 . S
H1107 C1116 0.929 . S
C1108 H1102 0.930 . S
C1108 C1109 1.367 . S
C1108 C1116 1.378 . S
C1109 C1108 1.367 . S
C1109 C1117 1.433 . S
C1110 H1106 0.929 . S
C1110 C1112 1.378 . S
C1110 C1114 1.350 . S
C1111 C1114 1.463 . S
C1111 C1116 1.350 . S
C1111 N1119 1.427 . S
C1112 H1103 0.930 . S
C1112 C1110 1.378 . S
C1112 C1113 1.367 . S
C1113 C1112 1.367 . S
C1113 C1115 1.433 . S
C1114 C1110 1.350 . S
C1114 C1111 1.463 . S
C1114 N1118 1.427 . S
C1115 H1105 0.929 . S
C1115 C1113 1.433 . S
C1115 N1118 1.384 . S
C1116 H1107 0.929 . S
C1116 C1108 1.378 . S
C1116 C1111 1.350 . S
C1117 H1104 0.929 . S
C1117 C1109 1.433 . S
C1117 N1119 1.384 . S
N1118 C1114 1.427 . S
N1118 C1115 1.384 . S
N1119 C1111 1.427 . S
N1119 C1117 1.384 . S
H1120 C1126 0.930 . S
H1121 C1130 0.930 . S
H1122 C1135 0.929 1_556 S
H1123 C1133 0.929 . S
H1124 C1128 0.929 . S
H1125 C1134 0.929 . S
C1126 H1120 0.930 . S
C1126 C1127 1.367 . S
C1126 C1134 1.378 . S
C1127 C1126 1.367 . S
C1127 C1135 1.433 . S
C1128 H1124 0.929 . S
C1128 C1130 1.378 . S
C1128 C1132 1.350 . S
C1129 C1132 1.463 . S
C1129 C1134 1.350 . S
C1129 N1137 1.427 . S
C1130 H1121 0.930 . S
C1130 C1128 1.378 . S
C1130 C1131 1.367 . S
C1131 C1130 1.367 . S
C1131 C1133 1.433 . S
C1132 C1128 1.350 . S
C1132 C1129 1.463 . S
C1132 N1136 1.427 . S
C1133 H1123 0.929 . S
C1133 C1131 1.433 . S
C1133 N1136 1.384 . S
C1134 H1125 0.929 . S
C1134 C1126 1.378 . S
C1134 C1129 1.350 . S
C1135 H1122 0.929 1_554 S
C1135 C1127 1.433 . S
C1135 N1137 1.384 . S
N1136 C1132 1.427 . S
N1136 C1133 1.384 . S
N1137 C1129 1.427 . S
N1137 C1135 1.384 . S
H1138 C1144 0.930 . S
H1139 C1148 0.930 . S
H1140 C1153 0.929 . S
H1141 C1151 0.929 . S
H1142 C1146 0.929 . S
H1143 C1152 0.929 . S
C1144 H1138 0.930 . S
C1144 C1145 1.367 . S
C1144 C1152 1.378 . S
C1145 C1144 1.367 . S
C1145 C1153 1.433 . S
C1146 H1142 0.929 . S
C1146 C1148 1.378 . S
C1146 C1150 1.350 . S
C1147 C1150 1.463 . S
C1147 C1152 1.350 . S
C1147 N1155 1.427 . S
C1148 H1139 0.930 . S
C1148 C1146 1.378 . S
C1148 C1149 1.367 . S
C1149 C1148 1.367 . S
C1149 C1151 1.433 . S
C1150 C1146 1.350 . S
C1150 C1147 1.463 . S
C1150 N1154 1.427 . S
C1151 H1141 0.929 . S
C1151 C1149 1.433 . S
C1151 N1154 1.384 . S
C1152 H1143 0.929 . S
C1152 C1144 1.378 . S
C1152 C1147 1.350 . S
C1153 H1140 0.929 . S
C1153 C1145 1.433 . S
C1153 N1155 1.384 . S
N1154 C1150 1.427 . S
N1154 C1151 1.384 . S
N1155 C1147 1.427 . S
N1155 C1153 1.384 . S
H1156 C1162 0.930 . S
H1157 C1166 0.930 . S
H1158 C1171 0.929 . S
H1159 C1169 0.929 . S
H1160 C1164 0.929 . S
H1161 C1170 0.929 . S
C1162 H1156 0.930 . S
C1162 C1163 1.367 . S
C1162 C1170 1.378 . S
C1163 C1162 1.367 . S
C1163 C1171 1.433 . S
C1164 H1160 0.929 . S
C1164 C1166 1.378 . S
C1164 C1168 1.350 . S
C1165 C1168 1.463 . S
C1165 C1170 1.350 . S
C1165 N1173 1.427 . S
C1166 H1157 0.930 . S
C1166 C1164 1.378 . S
C1166 C1167 1.367 . S
C1167 C1166 1.367 . S
C1167 C1169 1.433 . S
C1168 C1164 1.350 . S
C1168 C1165 1.463 . S
C1168 N1172 1.427 . S
C1169 H1159 0.929 . S
C1169 C1167 1.433 . S
C1169 N1172 1.384 . S
C1170 H1161 0.929 . S
C1170 C1162 1.378 . S
C1170 C1165 1.350 . S
C1171 H1158 0.929 . S
C1171 C1163 1.433 . S
C1171 N1173 1.384 . S
N1172 C1168 1.427 . S
N1172 C1169 1.384 . S
N1173 C1165 1.427 . S
N1173 C1171 1.384 . S
H1174 C1180 0.930 . S
H1175 C1184 0.930 . S
H1176 C1189 0.929 . S
H1177 C1187 0.929 . S
H1178 C1182 0.929 . S
H1179 C1188 0.929 . S
C1180 H1174 0.930 . S
C1180 C1181 1.367 . S
C1180 C1188 1.378 . S
C1181 C1180 1.367 . S
C1181 C1189 1.433 . S
C1182 H1178 0.929 . S
C1182 C1184 1.378 . S
C1182 C1186 1.350 . S
C1183 C1186 1.463 . S
C1183 C1188 1.350 . S
C1183 N1191 1.427 . S
C1184 H1175 0.930 . S
C1184 C1182 1.378 . S
C1184 C1185 1.367 . S
C1185 C1184 1.367 . S
C1185 C1187 1.433 . S
C1186 C1182 1.350 . S
C1186 C1183 1.463 . S
C1186 N1190 1.427 . S
C1187 H1177 0.929 . S
C1187 C1185 1.433 . S
C1187 N1190 1.384 . S
C1188 H1179 0.929 . S
C1188 C1180 1.378 . S
C1188 C1183 1.350 . S
C1189 H1176 0.929 . S
C1189 C1181 1.433 . S
C1189 N1191 1.384 . S
N1190 C1186 1.427 . S
N1190 C1187 1.384 . S
N1191 C1183 1.427 . S
N1191 C1189 1.384 . S
H1192 C1198 0.930 . S
H1193 C1202 0.930 1_554 S
H1194 C1207 0.929 . S
H1195 C1205 0.929 . S
H1196 C1200 0.929 . S
H1197 C1206 0.929 . S
C1198 H1192 0.930 . S
C1198 C1199 1.367 . S
C1198 C1206 1.378 . S
C1199 C1198 1.367 . S
C1199 C1207 1.433 . S
C1200 H1196 0.929 . S
C1200 C1202 1.378 . S
C1200 C1204 1.350 . S
C1201 C1204 1.463 . S
C1201 C1206 1.350 . S
C1201 N1209 1.427 . S
C1202 H1193 0.930 1_556 S
C1202 C1200 1.378 . S
C1202 C1203 1.367 . S
C1203 C1202 1.367 . S
C1203 C1205 1.433 . S
C1204 C1200 1.350 . S
C1204 C1201 1.463 . S
C1204 N1208 1.427 . S
C1205 H1195 0.929 . S
C1205 C1203 1.433 . S
C1205 N1208 1.384 . S
C1206 H1197 0.929 . S
C1206 C1198 1.378 . S
C1206 C1201 1.350 . S
C1207 H1194 0.929 . S
C1207 C1199 1.433 . S
C1207 N1209 1.384 . S
N1208 C1204 1.427 . S
N1208 C1205 1.384 . S
N1209 C1201 1.427 . S
N1209 C1207 1.384 . S
H1210 C1216 0.930 . S
H1211 C1220 0.930 . S
H1212 C1225 0.929 . S
H1213 C1223 0.929 . S
H1214 C1218 0.929 . S
H1215 C1224 0.929 . S
C1216 H1210 0.930 . S
C1216 C1217 1.367 . S
C1216 C1224 1.378 . S
C1217 C1216 1.367 . S
C1217 C1225 1.433 . S
C1218 H1214 0.929 . S
C1218 C1220 1.378 . S
C1218 C1222 1.350 . S
C1219 C1222 1.463 . S
C1219 C1224 1.350 . S
C1219 N1227 1.427 . S
C1220 H1211 0.930 . S
C1220 C1218 1.378 . S
C1220 C1221 1.367 . S
C1221 C1220 1.367 . S
C1221 C1223 1.433 . S
C1222 C1218 1.350 . S
C1222 C1219 1.463 . S
C1222 N1226 1.427 . S
C1223 H1213 0.929 . S
C1223 C1221 1.433 . S
C1223 N1226 1.384 . S
C1224 H1215 0.929 . S
C1224 C1216 1.378 . S
C1224 C1219 1.350 . S
C1225 H1212 0.929 . S
C1225 C1217 1.433 . S
C1225 N1227 1.384 . S
N1226 C1222 1.427 . S
N1226 C1223 1.384 . S
N1227 C1219 1.427 . S
N1227 C1225 1.384 . S
H1228 C1234 0.930 . S
H1229 C1238 0.930 . S
H1230 C1243 0.929 . S
H1231 C1241 0.929 . S
H1232 C1236 0.929 . S
H1233 C1242 0.929 . S
C1234 H1228 0.930 . S
C1234 C1235 1.367 . S
C1234 C1242 1.378 . S
C1235 C1234 1.367 . S
C1235 C1243 1.433 . S
C1236 H1232 0.929 . S
C1236 C1238 1.378 . S
C1236 C1240 1.350 . S
C1237 C1240 1.463 . S
C1237 C1242 1.350 . S
C1237 N1245 1.427 . S
C1238 H1229 0.930 . S
C1238 C1236 1.378 . S
C1238 C1239 1.367 . S
C1239 C1238 1.367 . S
C1239 C1241 1.433 . S
C1240 C1236 1.350 . S
C1240 C1237 1.463 . S
C1240 N1244 1.427 . S
C1241 H1231 0.929 . S
C1241 C1239 1.433 . S
C1241 N1244 1.384 . S
C1242 H1233 0.929 . S
C1242 C1234 1.378 . S
C1242 C1237 1.350 . S
C1243 H1230 0.929 . S
C1243 C1235 1.433 . S
C1243 N1245 1.384 . S
N1244 C1240 1.427 . S
N1244 C1241 1.384 . S
N1245 C1237 1.427 . S
N1245 C1243 1.384 . S
H1246 C1252 0.930 . S
H1247 C1256 0.930 1_556 S
H1248 C1261 0.929 . S
H1249 C1259 0.929 . S
H1250 C1254 0.929 . S
H1251 C1260 0.929 . S
C1252 H1246 0.930 . S
C1252 C1253 1.367 . S
C1252 C1260 1.378 . S
C1253 C1252 1.367 . S
C1253 C1261 1.433 . S
C1254 H1250 0.929 . S
C1254 C1256 1.378 . S
C1254 C1258 1.350 . S
C1255 C1258 1.463 . S
C1255 C1260 1.350 . S
C1255 N1263 1.427 . S
C1256 H1247 0.930 1_554 S
C1256 C1254 1.378 . S
C1256 C1257 1.367 . S
C1257 C1256 1.367 . S
C1257 C1259 1.433 . S
C1258 C1254 1.350 . S
C1258 C1255 1.463 . S
C1258 N1262 1.427 . S
C1259 H1249 0.929 . S
C1259 C1257 1.433 . S
C1259 N1262 1.384 . S
C1260 H1251 0.929 . S
C1260 C1252 1.378 . S
C1260 C1255 1.350 . S
C1261 H1248 0.929 . S
C1261 C1253 1.433 . S
C1261 N1263 1.384 . S
N1262 C1258 1.427 . S
N1262 C1259 1.384 . S
N1263 C1255 1.427 . S
N1263 C1261 1.384 . S
C551 C33 0.393 . S
C555 C169 0.391 . S
C569 C203 0.414 . S
C573 C67 0.410 . S
C587 C237 0.404 . S
C591 C101 0.408 . S
C605 C135 0.426 . S
C609 C271 0.424 . S
C623 C305 0.428 . S
C627 C373 0.426 . S
C641 C407 0.410 . S
C645 C339 0.406 . S
C659 C441 0.420 . S
C663 C509 0.423 . S
C677 C475 0.391 . S
C681 C543 0.389 . S
C695 C20 2.192 . S
C699 C190 2.194 1_554 S
C713 C224 2.196 . S
C717 C54 2.190 . S
C731 C258 2.196 . S
C735 C88 2.190 . S
C749 C122 2.195 1_556 S
C753 C156 2.191 . S
C767 C145 0.798 . S
C771 C349 0.796 . S
C785 C77 0.804 . S
C789 C281 0.800 . S
C803 C213 0.801 . S
C807 C383 0.804 . S
C821 C9 0.805 . S
C825 C315 0.801 . S
C839 C428 2.196 . S
C843 C292 2.190 . S
C857 C360 2.194 1_556 S
C861 C530 2.192 . S
C875 C326 2.191 1_554 S
C879 C462 2.195 . S
C893 C394 2.193 . S
C897 C496 2.194 . S
C911 C485 0.796 . S
C915 C43 0.800 . S
C929 C179 0.797 . S
C933 C451 0.801 . S
C947 C111 0.805 . S
C951 C519 0.802 . S
C965 C417 0.800 . S
C969 C247 0.804 . S
C983 C175 1.112 . S
C987 C5 1.098 . S
C1001 C209 1.117 . S
C1005 C39 1.097 . S
C1019 C73 1.119 . S
C1023 C243 1.098 . S
C1037 C107 1.112 . S
C1041 C141 1.115 . S
C1055 C138 2.684 . S
C1059 C342 2.679 . S
C1073 C274 2.679 . S
C1077 C70 2.683 1_554 S
C1091 C376 2.681 . S
C1095 C206 2.682 1_556 S
C1109 C2 2.680 . S
C1113 C308 2.682 . S
C1127 C413 1.120 . S
C1131 C277 1.105 . S
C1145 C345 1.110 . S
C1149 C515 1.099 . S
C1163 C447 1.110 . S
C1167 C311 1.117 . S
C1181 C481 1.118 . S
C1185 C379 1.097 . S
C1199 C36 2.682 . S
C1203 C478 2.682 1_556 S
C1217 C172 2.679 . S
C1221 C444 2.682 . S
C1235 C512 2.683 . S
C1239 C104 2.679 . S
C1253 C240 2.683 . S
C1257 C410 2.681 1_554 S
