# Generated by pormake.
# Topology ghw, (5)-cn, num edge types: 1
# Building blocks:
#     Node 0, Type 0, BuildingBlock: BEQFEK_clean_sbu_0, # of connection points: 5
#     Node 1, Type 0, BuildingBlock: BEQFEK_clean_sbu_0, # of connection points: 5
#     Node 2, Type 0, BuildingBlock: BEQFEK_clean_sbu_0, # of connection points: 5
#     Node 3, Type 0, BuildingBlock: BEQFEK_clean_sbu_0, # of connection points: 5
#     Node 4, Type 0, BuildingBlock: BEQFEK_clean_sbu_0, # of connection points: 5
#     Node 5, Type 0, BuildingBlock: BEQFEK_clean_sbu_0, # of connection points: 5
#     Node 6, Type 0, BuildingBlock: BEQFEK_clean_sbu_0, # of connection points: 5
#     Node 7, Type 0, BuildingBlock: BEQFEK_clean_sbu_0, # of connection points: 5
#     Node 8, Type 0, BuildingBlock: BEQFEK_clean_sbu_0, # of connection points: 5
#     Node 9, Type 0, BuildingBlock: BEQFEK_clean_sbu_0, # of connection points: 5
#     Node 10, Type 0, BuildingBlock: BEQFEK_clean_sbu_0, # of connection points: 5
#     Node 11, Type 0, BuildingBlock: BEQFEK_clean_sbu_0, # of connection points: 5
#     Node 12, Type 0, BuildingBlock: BEQFEK_clean_sbu_0, # of connection points: 5
#     Node 13, Type 0, BuildingBlock: BEQFEK_clean_sbu_0, # of connection points: 5
#     Node 14, Type 0, BuildingBlock: BEQFEK_clean_sbu_0, # of connection points: 5
#     Node 15, Type 0, BuildingBlock: BEQFEK_clean_sbu_0, # of connection points: 5
#     Edge 16, Type (0, 0), None
#     Edge 17, Type (0, 0), None
#     Edge 18, Type (0, 0), None
#     Edge 19, Type (0, 0), None
#     Edge 20, Type (0, 0), None
#     Edge 21, Type (0, 0), None
#     Edge 22, Type (0, 0), None
#     Edge 23, Type (0, 0), None
#     Edge 24, Type (0, 0), None
#     Edge 25, Type (0, 0), None
#     Edge 26, Type (0, 0), None
#     Edge 27, Type (0, 0), None
#     Edge 28, Type (0, 0), None
#     Edge 29, Type (0, 0), None
#     Edge 30, Type (0, 0), None
#     Edge 31, Type (0, 0), None
#     Edge 32, Type (0, 0), None
#     Edge 33, Type (0, 0), None
#     Edge 34, Type (0, 0), None
#     Edge 35, Type (0, 0), None
#     Edge 36, Type (0, 0), None
#     Edge 37, Type (0, 0), None
#     Edge 38, Type (0, 0), None
#     Edge 39, Type (0, 0), None
#     Edge 40, Type (0, 0), None
#     Edge 41, Type (0, 0), None
#     Edge 42, Type (0, 0), None
#     Edge 43, Type (0, 0), None
#     Edge 44, Type (0, 0), None
#     Edge 45, Type (0, 0), None
#     Edge 46, Type (0, 0), None
#     Edge 47, Type (0, 0), None
#     Edge 48, Type (0, 0), None
#     Edge 49, Type (0, 0), None
#     Edge 50, Type (0, 0), None
#     Edge 51, Type (0, 0), None
#     Edge 52, Type (0, 0), None
#     Edge 53, Type (0, 0), None
#     Edge 54, Type (0, 0), None
#     Edge 55, Type (0, 0), None
# Relax obj value: 0.624
# Max RMSD: 0.348
# Mean RMSD: 0.348
data_MOF--net-ghw--node1-BEQFEK_clean_sbu_0--edge1-none
_symmetry_space_group_name_H-M    P1
_symmetry_Int_Tables_number       1
_symmetry_cell_setting            triclinic
loop_
_symmetry_equiv_pos_as_xyz
'x, y, z'
_cell_length_a     19.478397
_cell_length_b     22.133067
_cell_length_c     13.480563
_cell_angle_alpha  105.99783
_cell_angle_beta   89.951899
_cell_angle_gamma 90.071503
loop_
_atom_site_label
_atom_site_type_symbol
_atom_site_fract_x
_atom_site_fract_y
_atom_site_fract_z
_atom_type_partial_charge
Co0 Co 0.20729 0.01283 0.30095 0.0
Co1 Co 0.09096 0.09781 0.28955 0.0
C2 C 0.16181 0.04733 0.10011 0.0
O3 O 0.20405 0.02402 0.15191 0.0
O4 O 0.1066 0.07161 0.14165 0.0
C5 C 0.326 -0.04414 0.34852 0.0
O6 O 0.31581 -0.00644 0.44123 0.0
C7 C 0.95205 0.14842 0.26705 0.0
C8 C 0.94319 0.18487 0.43244 0.0
C9 C 0.90461 0.16926 0.34516 0.0
N10 N 0.01473 0.14959 0.31036 0.0
N11 N 0.00893 0.17464 0.40928 0.0
C12 C 0.93594 0.11568 0.1585 0.0
H13 H 0.98487 0.10611 0.11625 0.0
H14 H 0.90631 0.07217 0.15324 0.0
H15 H 0.90287 0.14541 0.12462 0.0
C16 C 0.097 -0.04609 0.41707 0.0
N17 N 0.12085 -0.0022 0.37155 0.0
N18 N 0.06864 0.03075 0.35513 0.0
C19 C 0.00971 0.00531 0.38111 0.0
C20 C 0.02323 -0.04594 0.42159 0.0
C21 C 0.14599 0.91689 0.4617 0.0
H22 H 0.19134 -0.0535 0.49202 0.0
H23 H 0.16551 0.87605 0.40062 0.0
H24 H 0.12149 0.90201 0.52508 0.0
O25 O 0.25307 0.08855 0.38041 0.0
O26 O 0.17218 0.15425 0.36054 0.0
H27 H 0.92294 0.06113 0.40072 0.0
H28 H 0.90546 -0.01957 0.33042 0.0
C29 C 0.94233 0.01981 0.3432 0.0
H30 H 0.94967 0.03004 0.26876 0.0
H31 H 0.04707 0.17033 0.46058 0.0
O32 O 0.27738 -0.05299 0.28373 0.0
C33 C 0.23219 0.14405 0.39154 0.0
Co34 Co 0.21825 0.08258 0.80321 0.0
Co35 Co 0.09687 -0.00722 0.78303 0.0
C36 C 0.16997 0.03908 -0.01251 0.0
O37 O 0.21119 0.07317 -0.04747 0.0
O38 O 0.12354 0.00853 0.9296 0.0
C39 C 0.33785 0.14493 0.85156 0.0
O40 O 0.3254 0.12204 0.92951 0.0
C41 C 0.95938 -0.02665 0.84872 0.0
C42 C 0.91833 0.90363 0.71518 0.0
C43 C 0.90018 -0.05838 0.81113 0.0
N44 N 0.01025 -0.04518 0.78011 0.0
N45 N 0.98574 0.91172 0.70095 0.0
C46 C 0.96461 0.02554 -0.05678 0.0
H47 H 0.0144 0.04884 -0.05149 0.0
H48 H 0.92412 0.06089 -0.05593 0.0
H49 H 0.95766 0.00566 0.00951 0.0
C50 C 0.11074 0.16145 0.73106 0.0
N51 N 0.13288 0.10789 0.75101 0.0
N52 N 0.08279 0.06753 0.73565 0.0
C53 C 0.02815 0.09238 0.69865 0.0
C54 C 0.0398 0.1555 0.69802 0.0
C55 C 0.16005 0.21532 0.75059 0.0
H56 H 0.18742 0.2192 0.82421 0.0
H57 H 0.13696 0.2605 0.75553 0.0
H58 H 0.19928 0.20533 0.68842 0.0
O59 O 0.25571 0.00118 0.71959 0.0
O60 O 0.16945 -0.06596 0.70619 0.0
H61 H 0.95013 0.07107 0.58843 0.0
H62 H 0.9302 0.05152 0.70933 0.0
C63 C 0.96981 0.05276 0.65105 0.0
H64 H 0.98796 0.00429 0.61879 0.0
H65 H 0.01525 0.89029 0.63692 0.0
O66 O 0.29288 0.13881 0.78238 0.0
C67 C 0.23221 -0.05433 0.69052 0.0
Co68 Co 0.79311 0.83309 0.55531 0.0
Co69 Co 0.91472 0.74418 0.53633 0.0
C70 C 0.84208 0.79163 0.74191 0.0
O71 O 0.80057 0.82472 0.70563 0.0
O72 O 0.88865 0.76085 0.68442 0.0
C73 C 0.67474 0.89596 0.60528 0.0
O74 O 0.68818 0.87412 0.68398 0.0
C75 C 0.05326 0.72388 0.5988 0.0
C76 C 0.09185 0.65207 0.46603 0.0
C77 C 0.1116 0.69088 0.5605 0.0
N78 N 1.00145 0.70563 0.53176 0.0
N79 N 0.0245 0.6612 0.45311 0.0
C80 C 0.04955 0.77606 0.69352 0.0
H81 H 0.99925 0.79856 0.70209 0.0
H82 H 0.08949 0.81168 0.6925 0.0
H83 H 0.05897 0.75594 0.75869 0.0
C84 C 0.8997 0.91233 0.48119 0.0
N85 N 0.87784 0.85886 0.50219 0.0
N86 N 0.9282 0.81884 0.4877 0.0
C87 C 0.98272 0.84393 0.45068 0.0
C88 C 0.97051 0.90671 0.44866 0.0
C89 C 0.85097 -0.03351 0.50003 0.0
H90 H 0.82452 -0.02835 0.57478 0.0
H91 H 0.87471 0.01123 0.5022 0.0
H92 H 0.811 -0.04406 0.43902 0.0
O93 O 0.7556 0.7514 0.4714 0.0
O94 O 0.84214 0.68486 0.45854 0.0
H95 H 0.06597 0.82546 0.35044 0.0
H96 H 0.07973 0.80473 0.47104 0.0
C97 C 0.04303 0.80561 0.40882 0.0
H98 H 0.02653 0.75687 0.37273 0.0
H99 H 0.99408 0.63931 0.39031 0.0
O100 O 0.71866 0.88887 0.53446 0.0
C101 C 0.7794 0.69602 0.44201 0.0
Co102 Co 0.8016 0.76139 0.05163 0.0
Co103 Co 0.91968 0.84799 0.0489 0.0
C104 C 0.84847 0.79965 0.8551 0.0
O105 O 0.80568 0.77495 0.90421 0.0
O106 O 0.90311 0.82384 0.89935 0.0
C107 C 0.68247 0.70372 0.09897 0.0
O108 O 0.69282 0.74005 0.19269 0.0
C109 C 0.05872 0.89838 0.0202 0.0
C110 C 0.07789 -0.07275 0.18444 0.0
C111 C 0.11094 0.91528 0.09227 0.0
N112 N 0.99872 0.89827 0.07066 0.0
N113 N 0.01085 0.91821 0.16925 0.0
C114 C 0.07002 0.86399 0.91095 0.0
H115 H 0.02018 0.85647 0.87106 0.0
H116 H 0.09593 0.81881 0.90653 0.0
H117 H 0.10493 0.89085 0.87397 0.0
C118 C 0.91052 0.69805 0.16417 0.0
N119 N 0.88689 0.74349 0.12168 0.0
N120 N 0.93871 0.77924 0.11316 0.0
C121 C 0.99707 0.75412 0.14091 0.0
C122 C 0.98417 0.70047 0.17456 0.0
C123 C 0.86113 0.65868 0.2038 0.0
H124 H 0.81354 0.68592 0.22956 0.0
H125 H 0.84569 0.61691 0.14113 0.0
H126 H 0.88346 0.64501 0.26981 0.0
O127 O 0.7569 0.83697 0.13248 0.0
O128 O 0.83871 0.90377 0.11849 0.0
H129 H 0.08006 0.81242 0.18042 0.0
H130 H 0.10274 0.73519 0.0982 0.0
C131 C 0.06479 0.77359 0.11463 0.0
H132 H 0.06072 0.78876 0.04427 0.0
H133 H 0.9763 0.91059 0.22328 0.0
O134 O 0.7301 0.69728 0.03331 0.0
C135 C 0.77798 0.89266 0.14594 0.0
Co136 Co 0.21087 0.51639 0.80193 0.0
Co137 Co 0.0933 0.60158 0.79226 0.0
C138 C 0.16287 0.54906 0.60218 0.0
O139 O 0.20626 0.52651 0.65316 0.0
O140 O 0.10818 0.57365 0.64487 0.0
C141 C 0.32935 0.45835 0.85069 0.0
O142 O 0.31974 0.49592 -0.05633 0.0
C143 C 0.9534 0.65001 0.76651 0.0
C144 C 0.94402 0.69116 0.93084 0.0
C145 C 0.90559 0.67191 0.84367 0.0
N146 N 0.01606 0.65295 0.81045 0.0
N147 N 0.00999 0.68116 0.90826 0.0
C148 C 0.93756 0.6143 0.65937 0.0
H149 H 0.98666 0.60131 0.61889 0.0
H150 H 0.90549 0.57262 0.65772 0.0
H151 H 0.90703 0.64361 0.62123 0.0
C152 C 0.10171 0.45603 0.91636 0.0
N153 N 0.12532 0.50068 0.87234 0.0
N154 N 0.07326 0.53499 0.85972 0.0
C155 C 0.01455 0.50965 0.88619 0.0
C156 C 0.0281 0.45698 0.92279 0.0
C157 C 0.15071 0.41841 -0.04003 0.0
H158 H 0.19636 0.44761 -0.00964 0.0
H159 H 0.16969 0.37757 0.89844 0.0
H160 H 0.12638 0.40339 0.0234 0.0
O161 O 0.25572 0.59279 0.87972 0.0
O162 O 0.17456 0.65843 0.85984 0.0
H163 H 0.93045 0.56838 0.91126 0.0
H164 H 0.90903 0.48836 0.83915 0.0
C165 C 0.94729 0.52651 0.85212 0.0
H166 H 0.95414 0.53668 0.77779 0.0
H167 H 0.04851 0.67916 -0.03986 0.0
O168 O 0.28141 0.45149 0.78549 0.0
C169 C 0.23484 0.64822 0.88972 0.0
Co170 Co 0.21739 0.58195 0.30458 0.0
Co171 Co 0.09545 0.49195 0.28671 0.0
C172 C 0.16939 0.53986 0.48961 0.0
O173 O 0.21045 0.5732 0.45324 0.0
O174 O 0.12215 0.50942 0.43337 0.0
C175 C 0.33645 0.64376 0.35337 0.0
O176 O 0.32274 0.62122 0.43126 0.0
C177 C 0.95653 0.47181 0.34984 0.0
C178 C 0.91723 0.4033 0.21378 0.0
C179 C 0.89752 0.44057 0.30935 0.0
N180 N 0.00856 0.45368 0.28297 0.0
N181 N 0.98496 0.41116 0.20233 0.0
C182 C 0.96039 0.52359 0.44497 0.0
H183 H 0.01097 0.5458 0.45379 0.0
H184 H 0.92115 0.55964 0.44354 0.0
H185 H 0.94996 0.50365 0.51032 0.0
C186 C 0.10939 0.66026 0.23454 0.0
N187 N 0.13183 0.6065 0.25316 0.0
N188 N 0.08176 0.56621 0.23855 0.0
C189 C 0.02684 0.59123 0.20283 0.0
C190 C 0.03815 0.65432 0.20232 0.0
C191 C 0.15898 0.714 0.25552 0.0
H192 H 0.18821 0.71553 0.32674 0.0
H193 H 0.13608 0.75978 0.26625 0.0
H194 H 0.19667 0.70572 0.19136 0.0
O195 O 0.25464 0.50056 0.22283 0.0
O196 O 0.16869 0.43319 0.21061 0.0
H197 H 0.94885 0.57098 0.09433 0.0
H198 H 0.92925 0.55025 0.21424 0.0
C199 C 0.96856 0.55183 0.15573 0.0
H200 H 0.98689 0.50359 0.12199 0.0
H201 H 0.01526 0.39026 0.13888 0.0
O202 O 0.29235 0.6377 0.28299 0.0
C203 C 0.23147 0.44496 0.19503 0.0
Co204 Co 0.79871 0.33696 0.05273 0.0
Co205 Co 0.918 0.24643 0.03369 0.0
C206 C 0.84348 0.29118 0.23757 0.0
O207 O 0.80304 0.32555 0.20217 0.0
O208 O 0.89082 0.26158 0.18051 0.0
C209 C 0.67832 0.38247 0.08075 0.0
O210 O 0.68724 0.33822 0.12655 0.0
C211 C 0.05473 0.22349 0.09875 0.0
C212 C 0.09357 0.153 -0.03578 0.0
C213 C 0.11268 0.19001 0.06036 0.0
N214 N 1.00354 0.20695 0.03009 0.0
N215 N 0.02667 0.16338 -0.04964 0.0
C216 C 0.05152 0.27534 0.19429 0.0
H217 H 0.06164 0.25532 0.25961 0.0
H218 H 1.00139 0.29815 0.20385 0.0
H219 H 0.09136 0.31099 0.19289 0.0
C220 C 0.90493 0.41491 -0.01873 0.0
N221 N 0.88345 0.36123 0.00121 0.0
N222 N 0.93351 0.32103 -0.01395 0.0
C223 C 0.98796 0.34629 -0.05086 0.0
C224 C 0.9756 0.40934 -0.05148 0.0
C225 C 0.85534 0.46862 0.00168 0.0
H226 H 0.83131 0.47445 0.07837 0.0
H227 H 0.87671 0.5137 0.00147 0.0
H228 H 0.81392 0.45705 -0.05702 0.0
O229 O 0.75945 0.25644 -0.03466 0.0
O230 O 0.84464 0.18874 -0.04385 0.0
H231 H 0.06958 0.32742 0.84487 0.0
H232 H 0.08518 0.30585 -0.0351 0.0
C233 C 0.04752 0.30759 0.90426 0.0
H234 H 0.0302 0.25905 0.86852 0.0
H235 H 0.99663 0.14291 0.88638 0.0
O236 O 0.72931 0.399 0.03771 0.0
C237 C 0.78236 0.20063 -0.06172 0.0
Co238 Co 0.80221 0.26223 0.5491 0.0
Co239 Co 0.91971 0.34775 0.54261 0.0
C240 C 0.84995 0.29859 0.35044 0.0
O241 O 0.80653 0.27506 0.40047 0.0
O242 O 0.90495 0.3222 0.39393 0.0
C243 C 0.6814 0.2058 0.5984 0.0
O244 O 0.6918 0.24269 0.69168 0.0
C245 C 0.05873 0.39923 0.52107 0.0
C246 C 0.06794 0.43566 0.68672 0.0
C247 C 0.10626 0.42048 0.5991 0.0
N248 N 0.99628 0.39954 0.56494 0.0
N249 N 1.00224 0.42442 0.66391 0.0
C250 C 0.07508 0.36471 0.41314 0.0
H251 H 0.02631 0.35258 0.37127 0.0
H252 H 0.10619 0.32237 0.41013 0.0
H253 H 0.10674 0.39416 0.37668 0.0
C254 C 0.91252 0.20034 0.66267 0.0
N255 N 0.88848 0.24537 0.61966 0.0
N256 N 0.94042 0.28041 0.60856 0.0
C257 C 0.99935 0.25549 0.63546 0.0
C258 C 0.98632 0.20226 0.67091 0.0
C259 C 0.86352 0.16061 0.7021 0.0
H260 H 0.8157 0.18752 0.72763 0.0
H261 H 0.84838 0.11881 0.63929 0.0
H262 H 0.88609 0.14695 0.76799 0.0
O263 O 0.7575 0.33793 0.62956 0.0
O264 O 0.83869 0.40399 0.61143 0.0
H265 H 0.08425 0.31421 0.66387 0.0
H266 H 0.10492 0.23485 0.58898 0.0
C267 C 0.06697 0.27326 0.60324 0.0
H268 H 0.06075 0.28501 0.53013 0.0
H269 H 0.96438 0.41967 0.7155 0.0
O270 O 0.72914 0.19872 0.53259 0.0
C271 C 0.77843 0.39346 0.64106 0.0
Co272 Co 0.71133 0.0163 0.8021 0.0
Co273 Co 0.59357 0.10155 0.79275 0.0
C274 C 0.66327 0.04918 0.60249 0.0
O275 O 0.70668 0.02665 0.65345 0.0
O276 O 0.60852 0.07366 0.64522 0.0
C277 C 0.83014 -0.04197 0.85059 0.0
O278 O 0.82063 -0.00462 -0.05622 0.0
C279 C 0.45358 0.15025 0.76717 0.0
C280 C 0.44401 0.19046 0.93179 0.0
C281 C 0.40571 0.17166 0.84444 0.0
N282 N 0.51621 0.15297 0.81121 0.0
N283 N 0.51 0.18058 0.90923 0.0
C284 C 0.43776 0.11451 0.66005 0.0
H285 H 0.48687 0.10157 0.61959 0.0
H286 H 0.40581 0.07279 0.65852 0.0
H287 H 0.40711 0.14372 0.62189 0.0
C288 C 0.6018 -0.0447 0.91561 0.0
N289 N 0.62555 0.00016 0.87208 0.0
N290 N 0.57357 0.03476 0.8601 0.0
C291 C 0.51481 0.00945 0.88659 0.0
C292 C 0.52816 -0.04352 0.92248 0.0
C293 C 0.65076 0.91736 -0.04133 0.0
H294 H 0.69684 -0.05386 -0.01179 0.0
H295 H 0.66903 0.87624 0.89703 0.0
H296 H 0.62667 0.90274 0.02265 0.0
O297 O 0.75611 0.09282 0.88014 0.0
O298 O 0.67499 0.15842 0.85999 0.0
H299 H 0.43089 0.06843 0.91351 0.0
H300 H 0.40919 -0.01128 0.84012 0.0
C301 C 0.44751 0.02683 0.85357 0.0
H302 H 0.45413 0.03751 0.77966 0.0
H303 H 0.54836 0.17805 -0.03896 0.0
O304 O 0.78231 -0.04838 0.78532 0.0
C305 C 0.73532 0.14826 0.88979 0.0
Co306 Co 0.71719 0.08149 0.30431 0.0
Co307 Co 0.59499 -0.00826 0.28724 0.0
C308 C 0.66971 0.03982 0.48983 0.0
O309 O 0.71082 0.07302 0.45318 0.0
O310 O 0.62233 0.00941 0.43378 0.0
C311 C 0.83608 0.14411 0.35196 0.0
O312 O 0.82254 0.1226 0.431 0.0
C313 C 0.45595 -0.02853 0.35103 0.0
C314 C 0.41627 0.90421 0.21377 0.0
C315 C 0.39675 -0.05916 0.30987 0.0
N316 N 0.50791 -0.04632 0.28388 0.0
N317 N 0.48405 0.91189 0.20253 0.0
C318 C 0.4599 0.02274 0.44683 0.0
H319 H 0.51083 0.04427 0.45682 0.0
H320 H 0.4214 0.05937 0.44523 0.0
H321 H 0.44827 0.00266 0.51164 0.0
C322 C 0.60921 0.15995 0.23497 0.0
N323 N 0.63151 0.10613 0.25348 0.0
N324 N 0.58134 0.06594 0.23891 0.0
C325 C 0.52648 0.0911 0.20327 0.0
C326 C 0.53795 0.15418 0.2029 0.0
C327 C 0.65908 0.21347 0.25563 0.0
H328 H 0.68834 0.21494 0.3268 0.0
H329 H 0.63652 0.25936 0.26632 0.0
H330 H 0.6967 0.20495 0.19135 0.0
O331 O 0.754 1e-05 0.22262 0.0
O332 O 0.66795 -0.06724 0.21064 0.0
H333 H 0.44823 0.07126 0.09506 0.0
H334 H 0.42891 0.05003 0.21459 0.0
C335 C 0.46812 0.05184 0.15603 0.0
H336 H 0.48643 0.00367 0.12162 0.0
H337 H 0.51421 0.89151 0.13867 0.0
O338 O 0.79202 0.13693 0.28132 0.0
C339 C 0.73072 -0.05555 0.19484 0.0
Co340 Co 0.29803 0.83675 0.05293 0.0
Co341 Co 0.4176 0.74607 0.03314 0.0
C342 C 0.34382 0.79093 0.23742 0.0
O343 O 0.30331 0.8254 0.20236 0.0
O344 O 0.39094 0.76125 0.18005 0.0
C345 C 0.17749 0.88427 0.08518 0.0
O346 O 0.18713 0.84278 0.13638 0.0
C347 C 0.55431 0.72343 0.0975 0.0
C348 C 0.59281 0.65173 -0.03569 0.0
C349 C 0.61212 0.6896 0.05973 0.0
N350 N 0.50303 0.7064 0.02916 0.0
N351 N 0.52593 0.66209 -0.04975 0.0
C352 C 0.55111 0.77572 0.1924 0.0
H353 H 0.50125 0.799 0.20089 0.0
H354 H 0.5915 0.81092 0.19112 0.0
H355 H 0.56027 0.7559 0.2582 0.0
C356 C 0.40455 0.91458 -0.01906 0.0
N357 N 0.38294 0.86092 0.00085 0.0
N358 N 0.433 0.82072 -0.01422 0.0
C359 C 0.48754 0.84591 -0.05103 0.0
C360 C 0.47535 0.90898 -0.05173 0.0
C361 C 0.35489 -0.03176 0.00134 0.0
H362 H 0.33026 -0.02642 0.07749 0.0
H363 H 0.37633 0.01347 0.00223 0.0
H364 H 0.31383 -0.04313 -0.05796 0.0
O365 O 0.25872 0.75626 -0.03353 0.0
O366 O 0.34414 0.68862 -0.04417 0.0
H367 H 0.56862 0.8265 0.8439 0.0
H368 H 0.58494 0.8057 -0.03552 0.0
C369 C 0.54699 0.80707 0.90404 0.0
H370 H 0.52966 0.75842 0.8693 0.0
H371 H 0.49575 0.64098 0.88672 0.0
O372 O 0.2276 0.89788 0.0368 0.0
C373 C 0.28177 0.70053 -0.06139 0.0
Co374 Co 0.3029 0.76242 0.54926 0.0
Co375 Co 0.42017 0.8478 0.54185 0.0
C376 C 0.35055 0.79824 0.35015 0.0
O377 O 0.30713 0.77495 0.40049 0.0
O378 O 0.40561 0.82184 0.39336 0.0
C379 C 0.18222 0.70611 0.59873 0.0
O380 O 0.19265 0.74319 0.69186 0.0
C381 C 0.55905 0.89897 0.51992 0.0
C382 C 0.56767 -0.06298 0.68546 0.0
C383 C 0.60624 0.9208 0.59812 0.0
N384 N 0.49647 0.89972 0.5635 0.0
N385 N 0.50204 0.92565 0.66226 0.0
C386 C 0.57561 0.8643 0.41213 0.0
H387 H 0.5269 0.85209 0.37015 0.0
H388 H 0.6068 0.82202 0.40927 0.0
H389 H 0.60723 0.89378 0.37566 0.0
C390 C 0.41316 0.70128 0.66379 0.0
N391 N 0.38914 0.74603 0.62017 0.0
N392 N 0.44113 0.78082 0.60833 0.0
C393 C 0.50007 0.75598 0.63537 0.0
C394 C 0.48694 0.70308 0.67166 0.0
C395 C 0.36422 0.66164 0.70351 0.0
H396 H 0.31663 0.68878 0.72977 0.0
H397 H 0.34861 0.62005 0.64064 0.0
H398 H 0.38706 0.64763 0.76888 0.0
O399 O 0.25812 0.83807 0.62943 0.0
O400 O 0.33913 0.90411 0.61065 0.0
H401 H 0.58519 0.81455 0.66206 0.0
H402 H 0.60557 0.73482 0.5887 0.0
C403 C 0.56768 0.77326 0.60225 0.0
H404 H 0.56131 0.78436 0.5286 0.0
H405 H 0.46388 0.92158 0.71381 0.0
O406 O 0.23001 0.69877 0.53294 0.0
C407 C 0.27897 0.89359 0.64066 0.0
Co408 Co 0.70792 0.51242 0.30059 0.0
Co409 Co 0.59151 0.59742 0.28955 0.0
C410 C 0.66211 0.54712 0.10002 0.0
O411 O 0.70433 0.52371 0.15169 0.0
O412 O 0.60697 0.57154 0.14167 0.0
C413 C 0.82674 0.45555 0.34788 0.0
O414 O 0.81652 0.49309 0.44071 0.0
C415 C 0.45255 0.64849 0.26876 0.0
C416 C 0.44382 0.68299 0.43456 0.0
C417 C 0.40524 0.66854 0.34732 0.0
N418 N 0.51529 0.64925 0.31178 0.0
N419 N 0.50955 0.6731 0.41104 0.0
C420 C 0.43624 0.61606 0.16014 0.0
H421 H 0.48512 0.60597 0.11787 0.0
H422 H 0.40593 0.57291 0.15474 0.0
H423 H 0.40369 0.64613 0.12628 0.0
C424 C 0.59761 0.45334 0.41655 0.0
N425 N 0.6215 0.49722 0.37102 0.0
N426 N 0.56928 0.53002 0.35424 0.0
C427 C 0.51032 0.5045 0.37987 0.0
C428 C 0.52383 0.45344 0.4208 0.0
C429 C 0.64656 0.4162 0.46101 0.0
H430 H 0.69209 0.44565 0.491 0.0
H431 H 0.66579 0.37524 0.39989 0.0
H432 H 0.62213 0.40148 0.52457 0.0
O433 O 0.75382 0.58808 0.38011 0.0
O434 O 0.67282 0.65372 0.36046 0.0
H435 H 0.42294 0.55948 0.39728 0.0
H436 H 0.40652 0.47865 0.32753 0.0
C437 C 0.44309 0.51829 0.34048 0.0
H438 H 0.45089 0.52842 0.266 0.0
H439 H 0.54776 0.66829 0.46198 0.0
O440 O 0.77814 0.44672 0.28305 0.0
C441 C 0.73289 0.64356 0.3913 0.0
Co442 Co 0.71828 0.58258 0.80338 0.0
Co443 Co 0.59653 0.49322 0.78335 0.0
C444 C 0.67025 0.53895 -0.01257 0.0
O445 O 0.71153 0.57302 -0.04744 0.0
O446 O 0.62363 0.50868 0.92961 0.0
C447 C 0.83784 0.64517 0.85138 0.0
O448 O 0.8255 0.62282 0.92996 0.0
C449 C 0.45872 0.47364 0.84969 0.0
C450 C 0.41754 0.40526 0.71453 0.0
C451 C 0.39944 0.44238 0.81109 0.0
N452 N 0.5096 0.45576 0.78078 0.0
N453 N 0.48496 0.41348 0.70068 0.0
C454 C 0.46386 0.52487 -0.05442 0.0
H455 H 0.51412 0.54747 -0.04695 0.0
H456 H 0.42425 0.56097 -0.05364 0.0
H457 H 0.45518 0.50441 0.01086 0.0
C458 C 0.61106 0.66198 0.73177 0.0
N459 N 0.63303 0.60829 0.75151 0.0
N460 N 0.58285 0.568 0.73583 0.0
C461 C 0.52837 0.593 0.69869 0.0
C462 C 0.54021 0.65616 0.69854 0.0
C463 C 0.66038 0.71584 0.75154 0.0
H464 H 0.687 0.7201 0.82587 0.0
H465 H 0.63748 0.76095 0.75515 0.0
H466 H 0.7002 0.7055 0.69022 0.0
O467 O 0.75532 0.50107 0.71978 0.0
O468 O 0.66885 0.43413 0.70632 0.0
H469 H 0.45036 0.57225 0.5881 0.0
H470 H 0.43047 0.55177 0.70825 0.0
C471 C 0.47011 0.55352 0.65026 0.0
H472 H 0.4884 0.50517 0.61717 0.0
H473 H 0.51447 0.39272 0.63631 0.0
O474 O 0.7929 0.63853 0.78209 0.0
C475 C 0.73168 0.4456 0.69076 0.0
Co476 Co 0.29336 0.33345 0.55538 0.0
Co477 Co 0.41442 0.24406 0.536 0.0
C478 C 0.34281 0.29189 0.74207 0.0
O479 O 0.30135 0.32504 0.7058 0.0
O480 O 0.38912 0.26082 0.68442 0.0
C481 C 0.17473 0.39524 0.60527 0.0
O482 O 0.18808 0.37205 0.68254 0.0
C483 C 0.5526 0.22397 0.59762 0.0
C484 C 0.59098 0.1509 0.46639 0.0
C485 C 0.61082 0.1906 0.5601 0.0
N486 N 0.50079 0.20512 0.5309 0.0
N487 N 0.52365 0.15997 0.45317 0.0
C488 C 0.54868 0.27686 0.69131 0.0
H489 H 0.55534 0.25698 0.75734 0.0
H490 H 0.49911 0.30048 0.69706 0.0
H491 H 0.58995 0.31148 0.69143 0.0
C492 C 0.40017 0.4121 0.48026 0.0
N493 N 0.37807 0.3588 0.50158 0.0
N494 N 0.42829 0.31864 0.48735 0.0
C495 C 0.48299 0.34351 0.45036 0.0
C496 C 0.47099 0.40623 0.44792 0.0
C497 C 0.35178 0.46648 0.49874 0.0
H498 H 0.32498 0.47181 0.57329 0.0
H499 H 0.37603 0.51103 0.5011 0.0
H500 H 0.31203 0.45617 0.43739 0.0
O501 O 0.25523 0.25191 0.47157 0.0
O502 O 0.34148 0.18509 0.4587 0.0
H503 H 0.5662 0.32468 0.35026 0.0
H504 H 0.57999 0.30451 0.47127 0.0
C505 C 0.54328 0.30507 0.40893 0.0
H506 H 0.52682 0.25626 0.37337 0.0
H507 H 0.49314 0.13747 0.39082 0.0
O508 O 0.21904 0.38969 0.53531 0.0
C509 C 0.2788 0.19644 0.44223 0.0
Co510 Co 0.30205 0.26171 0.05179 0.0
Co511 Co 0.42033 0.34812 0.04941 0.0
C512 C 0.34914 0.2998 0.85527 0.0
O513 O 0.30632 0.27503 0.90422 0.0
O514 O 0.40369 0.32407 0.89974 0.0
C515 C 0.18305 0.20424 0.0994 0.0
O516 O 0.19349 0.24069 0.193 0.0
C517 C 0.55926 0.39801 0.01933 0.0
C518 C 0.58021 0.42576 0.18329 0.0
C519 C 0.61217 0.41418 0.09033 0.0
N520 N 0.49979 0.39788 0.07099 0.0
N521 N 0.513 0.41696 0.16937 0.0
C522 C 0.56963 0.3639 0.9097 0.0
H523 H 0.51969 0.3575 0.87004 0.0
H524 H 0.59434 0.3181 0.90462 0.0
H525 H 0.60523 0.39028 0.87286 0.0
C526 C 0.41047 0.19826 0.16486 0.0
N527 N 0.38705 0.24372 0.12224 0.0
N528 N 0.439 0.27928 0.1136 0.0
C529 C 0.49721 0.25399 0.1414 0.0
C530 C 0.48411 0.20044 0.17515 0.0
C531 C 0.36094 0.15899 0.20446 0.0
H532 H 0.31354 0.18644 0.23058 0.0
H533 H 0.34521 0.11739 0.14167 0.0
H534 H 0.38328 0.14504 0.2702 0.0
O535 O 0.25751 0.33748 0.13233 0.0
O536 O 0.3396 0.40423 0.11911 0.0
H537 H 0.58084 0.31159 0.18039 0.0
H538 H 0.6026 0.23428 0.09804 0.0
C539 C 0.56499 0.27296 0.11463 0.0
H540 H 0.56096 0.28824 0.04429 0.0
H541 H 0.47908 0.40876 0.22371 0.0
O542 O 0.2306 0.19765 0.03359 0.0
C543 C 0.27876 0.39316 0.1462 0.0
loop_
_geom_bond_atom_site_label_1
_geom_bond_atom_site_label_2
_geom_bond_distance
_geom_bond_site_symmetry_2
_ccdc_geom_bond_type
Co0 O3 1.970 . S
Co0 N17 1.989 . S
Co0 O25 1.967 . S
Co0 O32 1.920 . S
Co1 O4 1.966 . S
Co1 N10 2.022 1_455 S
Co1 N18 1.993 . S
Co1 O26 1.941 . S
C2 O3 1.258 . S
C2 O4 1.263 . S
O3 Co0 1.970 . S
O3 C2 1.258 . S
O4 Co1 1.966 . S
O4 C2 1.263 . S
C5 O6 1.235 . S
C5 O32 1.289 1_565 S
O6 C5 1.235 . S
C7 C9 1.400 . S
C7 N10 1.351 . S
C7 C12 1.501 . S
C8 C9 1.387 . S
C8 N11 1.341 . S
C9 C7 1.400 . S
C9 C8 1.387 . S
N10 Co1 2.022 1_655 S
N10 C7 1.351 . S
N10 N11 1.365 . S
N11 C8 1.341 . S
N11 N10 1.365 . S
N11 H31 0.862 . S
C12 C7 1.501 . S
C12 H13 0.961 . S
C12 H14 0.961 . S
C12 H15 0.960 . S
H13 C12 0.961 . S
H14 C12 0.961 . S
H15 C12 0.960 . S
C16 N17 1.342 . S
C16 C20 1.401 . S
C16 C21 1.499 1_545 S
N17 Co0 1.989 . S
N17 C16 1.342 . S
N17 N18 1.388 . S
N18 Co1 1.993 . S
N18 N17 1.388 . S
N18 C19 1.346 . S
C19 N18 1.346 . S
C19 C20 1.396 . S
C19 C29 1.510 1_455 S
C20 C16 1.401 . S
C20 C19 1.396 . S
C21 C16 1.499 1_565 S
C21 H22 0.959 . S
C21 H23 0.960 . S
C21 H24 0.961 . S
H22 C21 0.959 . S
H23 C21 0.960 . S
H24 C21 0.961 . S
O25 Co0 1.967 . S
O25 C33 1.258 . S
O26 Co1 1.941 . S
O26 C33 1.266 . S
H27 C29 0.959 . S
H28 C29 0.961 . S
C29 C19 1.510 1_655 S
C29 H27 0.959 . S
C29 H28 0.961 . S
C29 H30 0.960 . S
H30 C29 0.960 . S
H31 N11 0.862 . S
O32 Co0 1.920 . S
O32 C5 1.289 1_545 S
C33 O25 1.258 . S
C33 O26 1.266 . S
Co34 O37 1.970 1_556 S
Co34 N51 1.989 . S
Co34 O59 1.967 . S
Co34 O66 1.920 . S
Co35 O38 1.966 . S
Co35 N44 2.022 1_455 S
Co35 N52 1.993 . S
Co35 O60 1.941 1_545 S
C36 O37 1.258 . S
C36 O38 1.263 1_554 S
O37 Co34 1.970 1_554 S
O37 C36 1.258 . S
O38 Co35 1.966 . S
O38 C36 1.263 1_556 S
C39 O40 1.235 1_556 S
C39 O66 1.289 . S
O40 C39 1.235 1_554 S
C41 C43 1.400 . S
C41 N44 1.351 . S
C41 C46 1.496 1_556 S
C42 C43 1.387 1_565 S
C42 N45 1.341 . S
C43 C41 1.400 . S
C43 C42 1.387 1_545 S
N44 Co35 2.022 1_655 S
N44 C41 1.351 . S
N44 N45 1.365 1_545 S
N45 C42 1.341 . S
N45 N44 1.365 1_565 S
N45 H65 0.862 . S
C46 C41 1.496 1_554 S
C46 H47 0.962 . S
C46 H48 0.962 . S
C46 H49 0.964 . S
H47 C46 0.962 . S
H48 C46 0.962 . S
H49 C46 0.964 . S
C50 N51 1.342 . S
C50 C54 1.401 . S
C50 C55 1.499 . S
N51 Co34 1.989 . S
N51 C50 1.342 . S
N51 N52 1.388 . S
N52 Co35 1.993 . S
N52 N51 1.388 . S
N52 C53 1.346 . S
C53 N52 1.346 . S
C53 C54 1.396 . S
C53 C63 1.510 1_455 S
C54 C50 1.401 . S
C54 C53 1.396 . S
C55 C50 1.499 . S
C55 H56 0.959 . S
C55 H57 0.960 . S
C55 H58 0.961 . S
H56 C55 0.959 . S
H57 C55 0.960 . S
H58 C55 0.961 . S
O59 Co34 1.967 . S
O59 C67 1.258 1_545 S
O60 Co35 1.941 1_565 S
O60 C67 1.266 . S
H61 C63 0.959 . S
H62 C63 0.961 . S
C63 C53 1.510 1_655 S
C63 H61 0.959 . S
C63 H62 0.961 . S
C63 H64 0.960 . S
H64 C63 0.960 . S
H65 N45 0.862 . S
O66 Co34 1.920 . S
O66 C39 1.289 . S
C67 O59 1.258 1_565 S
C67 O60 1.266 . S
Co68 O71 1.970 . S
Co68 N85 1.989 . S
Co68 O93 1.967 . S
Co68 O100 1.920 . S
Co69 O72 1.966 . S
Co69 N78 2.022 1_655 S
Co69 N86 1.993 . S
Co69 O94 1.941 . S
C70 O71 1.258 . S
C70 O72 1.263 . S
O71 Co68 1.970 . S
O71 C70 1.258 . S
O72 Co69 1.966 . S
O72 C70 1.263 . S
C73 O74 1.235 . S
C73 O100 1.289 1_545 S
O74 C73 1.235 . S
C75 C77 1.400 . S
C75 N78 1.351 . S
C75 C80 1.501 . S
C76 C77 1.387 . S
C76 N79 1.341 . S
C77 C75 1.400 . S
C77 C76 1.387 . S
N78 Co69 2.022 1_455 S
N78 C75 1.351 . S
N78 N79 1.365 . S
N79 C76 1.341 . S
N79 N78 1.365 . S
N79 H99 0.862 . S
C80 C75 1.501 . S
C80 H81 0.961 . S
C80 H82 0.961 . S
C80 H83 0.960 . S
H81 C80 0.961 . S
H82 C80 0.961 . S
H83 C80 0.960 . S
C84 N85 1.342 . S
C84 C88 1.401 . S
C84 C89 1.499 1_565 S
N85 Co68 1.989 . S
N85 C84 1.342 . S
N85 N86 1.388 . S
N86 Co69 1.993 . S
N86 N85 1.388 . S
N86 C87 1.346 . S
C87 N86 1.346 . S
C87 C88 1.396 . S
C87 C97 1.510 1_655 S
C88 C84 1.401 . S
C88 C87 1.396 . S
C89 C84 1.499 1_545 S
C89 H90 0.959 . S
C89 H91 0.960 . S
C89 H92 0.961 . S
H90 C89 0.959 . S
H91 C89 0.960 . S
H92 C89 0.961 . S
O93 Co68 1.967 . S
O93 C101 1.258 . S
O94 Co69 1.941 . S
O94 C101 1.266 . S
H95 C97 0.959 . S
H96 C97 0.961 . S
C97 C87 1.510 1_455 S
C97 H95 0.959 . S
C97 H96 0.961 . S
C97 H98 0.960 . S
H98 C97 0.960 . S
H99 N79 0.862 . S
O100 Co68 1.920 . S
O100 C73 1.289 1_565 S
C101 O93 1.258 . S
C101 O94 1.266 . S
Co102 O105 1.970 1_554 S
Co102 N119 1.989 . S
Co102 O127 1.967 . S
Co102 O134 1.920 . S
Co103 O106 1.966 . S
Co103 N112 2.022 1_655 S
Co103 N120 1.993 . S
Co103 O128 1.941 1_565 S
C104 O105 1.258 . S
C104 O106 1.263 1_556 S
O105 Co102 1.970 1_556 S
O105 C104 1.258 . S
O106 Co103 1.966 . S
O106 C104 1.263 1_554 S
C107 O108 1.235 1_554 S
C107 O134 1.289 . S
O108 C107 1.235 1_556 S
C109 C111 1.400 . S
C109 N112 1.351 . S
C109 C114 1.496 1_554 S
C110 C111 1.387 1_545 S
C110 N113 1.341 . S
C111 C109 1.400 . S
C111 C110 1.387 1_565 S
N112 Co103 2.022 1_455 S
N112 C109 1.351 . S
N112 N113 1.365 1_565 S
N113 C110 1.341 . S
N113 N112 1.365 1_545 S
N113 H133 0.862 . S
C114 C109 1.496 1_556 S
C114 H115 0.962 . S
C114 H116 0.962 . S
C114 H117 0.964 . S
H115 C114 0.962 . S
H116 C114 0.962 . S
H117 C114 0.964 . S
C118 N119 1.342 . S
C118 C122 1.401 . S
C118 C123 1.499 . S
N119 Co102 1.989 . S
N119 C118 1.342 . S
N119 N120 1.388 . S
N120 Co103 1.993 . S
N120 N119 1.388 . S
N120 C121 1.346 . S
C121 N120 1.346 . S
C121 C122 1.396 . S
C121 C131 1.510 1_655 S
C122 C118 1.401 . S
C122 C121 1.396 . S
C123 C118 1.499 . S
C123 H124 0.959 . S
C123 H125 0.960 . S
C123 H126 0.961 . S
H124 C123 0.959 . S
H125 C123 0.960 . S
H126 C123 0.961 . S
O127 Co102 1.967 . S
O127 C135 1.258 1_565 S
O128 Co103 1.941 1_545 S
O128 C135 1.266 . S
H129 C131 0.959 . S
H130 C131 0.961 . S
C131 C121 1.510 1_455 S
C131 H129 0.959 . S
C131 H130 0.961 . S
C131 H132 0.960 . S
H132 C131 0.960 . S
H133 N113 0.862 . S
O134 Co102 1.920 . S
O134 C107 1.289 . S
C135 O127 1.258 1_545 S
C135 O128 1.266 . S
Co136 O139 1.970 . S
Co136 N153 1.989 . S
Co136 O161 1.967 . S
Co136 O168 1.920 . S
Co137 O140 1.966 . S
Co137 N146 2.022 1_455 S
Co137 N154 1.993 . S
Co137 O162 1.941 1_556 S
C138 O139 1.258 . S
C138 O140 1.263 . S
O139 Co136 1.970 . S
O139 C138 1.258 . S
O140 Co137 1.966 . S
O140 C138 1.263 . S
C141 O142 1.235 . S
C141 O168 1.289 . S
O142 C141 1.235 . S
C143 C145 1.400 . S
C143 N146 1.351 . S
C143 C148 1.501 . S
C144 C145 1.387 1_554 S
C144 N147 1.341 . S
C145 C143 1.400 . S
C145 C144 1.387 1_556 S
N146 Co137 2.022 1_655 S
N146 C143 1.351 . S
N146 N147 1.365 1_556 S
N147 C144 1.341 . S
N147 N146 1.365 1_554 S
N147 H167 0.862 . S
C148 C143 1.501 . S
C148 H149 0.961 . S
C148 H150 0.961 . S
C148 H151 0.960 . S
H149 C148 0.961 . S
H150 C148 0.961 . S
H151 C148 0.960 . S
C152 N153 1.342 . S
C152 C156 1.401 . S
C152 C157 1.499 . S
N153 Co136 1.989 . S
N153 C152 1.342 . S
N153 N154 1.388 . S
N154 Co137 1.993 . S
N154 N153 1.388 . S
N154 C155 1.346 . S
C155 N154 1.346 . S
C155 C156 1.396 . S
C155 C165 1.510 1_455 S
C156 C152 1.401 . S
C156 C155 1.396 . S
C157 C152 1.499 . S
C157 H158 0.959 . S
C157 H159 0.960 . S
C157 H160 0.961 1_556 S
H158 C157 0.959 . S
H159 C157 0.960 . S
H160 C157 0.961 1_554 S
O161 Co136 1.967 . S
O161 C169 1.258 1_556 S
O162 Co137 1.941 1_554 S
O162 C169 1.266 . S
H163 C165 0.959 1_554 S
H164 C165 0.961 . S
C165 C155 1.510 1_655 S
C165 H163 0.959 1_556 S
C165 H164 0.961 . S
C165 H166 0.960 . S
H166 C165 0.960 . S
H167 N147 0.862 . S
O168 Co136 1.920 . S
O168 C141 1.289 . S
C169 O161 1.258 1_554 S
C169 O162 1.266 . S
Co170 O173 1.970 . S
Co170 N187 1.989 . S
Co170 O195 1.967 . S
Co170 O202 1.920 . S
Co171 O174 1.966 . S
Co171 N180 2.022 1_455 S
Co171 N188 1.993 . S
Co171 O196 1.941 . S
C172 O173 1.258 . S
C172 O174 1.263 . S
O173 Co170 1.970 . S
O173 C172 1.258 . S
O174 Co171 1.966 . S
O174 C172 1.263 . S
C175 O176 1.235 . S
C175 O202 1.289 . S
O176 C175 1.235 . S
C177 C179 1.400 . S
C177 N180 1.351 . S
C177 C182 1.501 . S
C178 C179 1.387 . S
C178 N181 1.341 . S
C179 C177 1.400 . S
C179 C178 1.387 . S
N180 Co171 2.022 1_655 S
N180 C177 1.351 . S
N180 N181 1.365 . S
N181 C178 1.341 . S
N181 N180 1.365 . S
N181 H201 0.862 . S
C182 C177 1.501 . S
C182 H183 0.961 . S
C182 H184 0.961 . S
C182 H185 0.960 . S
H183 C182 0.961 . S
H184 C182 0.961 . S
H185 C182 0.960 . S
C186 N187 1.342 . S
C186 C190 1.401 . S
C186 C191 1.499 . S
N187 Co170 1.989 . S
N187 C186 1.342 . S
N187 N188 1.388 . S
N188 Co171 1.993 . S
N188 N187 1.388 . S
N188 C189 1.346 . S
C189 N188 1.346 . S
C189 C190 1.396 . S
C189 C199 1.510 1_455 S
C190 C186 1.401 . S
C190 C189 1.396 . S
C191 C186 1.499 . S
C191 H192 0.959 . S
C191 H193 0.960 . S
C191 H194 0.961 . S
H192 C191 0.959 . S
H193 C191 0.960 . S
H194 C191 0.961 . S
O195 Co170 1.967 . S
O195 C203 1.258 . S
O196 Co171 1.941 . S
O196 C203 1.266 . S
H197 C199 0.959 . S
H198 C199 0.961 . S
C199 C189 1.510 1_655 S
C199 H197 0.959 . S
C199 H198 0.961 . S
C199 H200 0.960 . S
H200 C199 0.960 . S
H201 N181 0.862 . S
O202 Co170 1.920 . S
O202 C175 1.289 . S
C203 O195 1.258 . S
C203 O196 1.266 . S
Co204 O207 1.970 . S
Co204 N221 1.989 . S
Co204 O229 1.967 . S
Co204 O236 1.920 . S
Co205 O208 1.966 . S
Co205 N214 2.022 1_655 S
Co205 N222 1.993 . S
Co205 O230 1.941 1_554 S
C206 O207 1.258 . S
C206 O208 1.263 . S
O207 Co204 1.970 . S
O207 C206 1.258 . S
O208 Co205 1.966 . S
O208 C206 1.263 . S
C209 O210 1.235 . S
C209 O236 1.289 . S
O210 C209 1.235 . S
C211 C213 1.400 . S
C211 N214 1.351 . S
C211 C216 1.501 . S
C212 C213 1.387 1_556 S
C212 N215 1.341 . S
C213 C211 1.400 . S
C213 C212 1.387 1_554 S
N214 Co205 2.022 1_455 S
N214 C211 1.351 . S
N214 N215 1.365 1_554 S
N215 C212 1.341 . S
N215 N214 1.365 1_556 S
N215 H235 0.862 . S
C216 C211 1.501 . S
C216 H217 0.961 . S
C216 H218 0.961 . S
C216 H219 0.960 . S
H217 C216 0.961 . S
H218 C216 0.961 . S
H219 C216 0.960 . S
C220 N221 1.342 . S
C220 C224 1.401 . S
C220 C225 1.499 . S
N221 Co204 1.989 . S
N221 C220 1.342 . S
N221 N222 1.388 . S
N222 Co205 1.993 . S
N222 N221 1.388 . S
N222 C223 1.346 . S
C223 N222 1.346 . S
C223 C224 1.396 . S
C223 C233 1.510 1_655 S
C224 C220 1.401 . S
C224 C223 1.396 . S
C225 C220 1.499 . S
C225 H226 0.959 . S
C225 H227 0.960 . S
C225 H228 0.961 1_554 S
H226 C225 0.959 . S
H227 C225 0.960 . S
H228 C225 0.961 1_556 S
O229 Co204 1.967 . S
O229 C237 1.258 1_554 S
O230 Co205 1.941 1_556 S
O230 C237 1.266 . S
H231 C233 0.959 1_556 S
H232 C233 0.961 . S
C233 C223 1.510 1_455 S
C233 H231 0.959 1_554 S
C233 H232 0.961 . S
C233 H234 0.960 . S
H234 C233 0.960 . S
H235 N215 0.862 . S
O236 Co204 1.920 . S
O236 C209 1.289 . S
C237 O229 1.258 1_556 S
C237 O230 1.266 . S
Co238 O241 1.970 . S
Co238 N255 1.989 . S
Co238 O263 1.967 . S
Co238 O270 1.920 . S
Co239 O242 1.966 . S
Co239 N248 2.022 1_655 S
Co239 N256 1.993 . S
Co239 O264 1.941 . S
C240 O241 1.258 . S
C240 O242 1.263 . S
O241 Co238 1.970 . S
O241 C240 1.258 . S
O242 Co239 1.966 . S
O242 C240 1.263 . S
C243 O244 1.235 . S
C243 O270 1.289 . S
O244 C243 1.235 . S
C245 C247 1.400 . S
C245 N248 1.351 . S
C245 C250 1.501 . S
C246 C247 1.387 . S
C246 N249 1.341 . S
C247 C245 1.400 . S
C247 C246 1.387 . S
N248 Co239 2.022 1_455 S
N248 C245 1.351 . S
N248 N249 1.365 . S
N249 C246 1.341 . S
N249 N248 1.365 . S
N249 H269 0.862 . S
C250 C245 1.501 . S
C250 H251 0.961 . S
C250 H252 0.961 . S
C250 H253 0.960 . S
H251 C250 0.961 . S
H252 C250 0.961 . S
H253 C250 0.960 . S
C254 N255 1.342 . S
C254 C258 1.401 . S
C254 C259 1.499 . S
N255 Co238 1.989 . S
N255 C254 1.342 . S
N255 N256 1.388 . S
N256 Co239 1.993 . S
N256 N255 1.388 . S
N256 C257 1.346 . S
C257 N256 1.346 . S
C257 C258 1.396 . S
C257 C267 1.510 1_655 S
C258 C254 1.401 . S
C258 C257 1.396 . S
C259 C254 1.499 . S
C259 H260 0.959 . S
C259 H261 0.960 . S
C259 H262 0.961 . S
H260 C259 0.959 . S
H261 C259 0.960 . S
H262 C259 0.961 . S
O263 Co238 1.967 . S
O263 C271 1.258 . S
O264 Co239 1.941 . S
O264 C271 1.266 . S
H265 C267 0.959 . S
H266 C267 0.961 . S
C267 C257 1.510 1_455 S
C267 H265 0.959 . S
C267 H266 0.961 . S
C267 H268 0.960 . S
H268 C267 0.960 . S
H269 N249 0.862 . S
O270 Co238 1.920 . S
O270 C243 1.289 . S
C271 O263 1.258 . S
C271 O264 1.266 . S
Co272 O275 1.970 . S
Co272 N289 1.989 . S
Co272 O297 1.967 . S
Co272 O304 1.920 . S
Co273 O276 1.966 . S
Co273 N282 2.022 . S
Co273 N290 1.993 . S
Co273 O298 1.941 1_556 S
C274 O275 1.258 . S
C274 O276 1.263 . S
O275 Co272 1.970 . S
O275 C274 1.258 . S
O276 Co273 1.966 . S
O276 C274 1.263 . S
C277 O278 1.235 . S
C277 O304 1.289 1_565 S
O278 C277 1.235 . S
C279 C281 1.400 . S
C279 N282 1.351 . S
C279 C284 1.501 . S
C280 C281 1.387 1_554 S
C280 N283 1.341 . S
C281 C279 1.400 . S
C281 C280 1.387 1_556 S
N282 Co273 2.022 . S
N282 C279 1.351 . S
N282 N283 1.365 1_556 S
N283 C280 1.341 . S
N283 N282 1.365 1_554 S
N283 H303 0.862 . S
C284 C279 1.501 . S
C284 H285 0.961 . S
C284 H286 0.961 . S
C284 H287 0.960 . S
H285 C284 0.961 . S
H286 C284 0.961 . S
H287 C284 0.960 . S
C288 N289 1.342 . S
C288 C292 1.401 . S
C288 C293 1.499 1_545 S
N289 Co272 1.989 . S
N289 C288 1.342 . S
N289 N290 1.388 . S
N290 Co273 1.993 . S
N290 N289 1.388 . S
N290 C291 1.346 . S
C291 N290 1.346 . S
C291 C292 1.396 . S
C291 C301 1.510 . S
C292 C288 1.401 . S
C292 C291 1.396 . S
C293 C288 1.499 1_565 S
C293 H294 0.959 . S
C293 H295 0.960 . S
C293 H296 0.961 1_556 S
H294 C293 0.959 . S
H295 C293 0.960 . S
H296 C293 0.961 1_554 S
O297 Co272 1.967 . S
O297 C305 1.258 1_556 S
O298 Co273 1.941 1_554 S
O298 C305 1.266 . S
H299 C301 0.959 1_554 S
H300 C301 0.961 . S
C301 C291 1.510 . S
C301 H299 0.959 1_556 S
C301 H300 0.961 . S
C301 H302 0.960 . S
H302 C301 0.960 . S
H303 N283 0.862 . S
O304 Co272 1.920 . S
O304 C277 1.289 1_545 S
C305 O297 1.258 1_554 S
C305 O298 1.266 . S
Co306 O309 1.970 . S
Co306 N323 1.989 . S
Co306 O331 1.967 . S
Co306 O338 1.920 . S
Co307 O310 1.966 . S
Co307 N316 2.022 . S
Co307 N324 1.993 . S
Co307 O332 1.941 1_545 S
C308 O309 1.258 . S
C308 O310 1.263 . S
O309 Co306 1.970 . S
O309 C308 1.258 . S
O310 Co307 1.966 . S
O310 C308 1.263 . S
C311 O312 1.235 . S
C311 O338 1.289 . S
O312 C311 1.235 . S
C313 C315 1.400 . S
C313 N316 1.351 . S
C313 C318 1.501 . S
C314 C315 1.387 1_565 S
C314 N317 1.341 . S
C315 C313 1.400 . S
C315 C314 1.387 1_545 S
N316 Co307 2.022 . S
N316 C313 1.351 . S
N316 N317 1.365 1_545 S
N317 C314 1.341 . S
N317 N316 1.365 1_565 S
N317 H337 0.862 . S
C318 C313 1.501 . S
C318 H319 0.961 . S
C318 H320 0.961 . S
C318 H321 0.960 . S
H319 C318 0.961 . S
H320 C318 0.961 . S
H321 C318 0.960 . S
C322 N323 1.342 . S
C322 C326 1.401 . S
C322 C327 1.499 . S
N323 Co306 1.989 . S
N323 C322 1.342 . S
N323 N324 1.388 . S
N324 Co307 1.993 . S
N324 N323 1.388 . S
N324 C325 1.346 . S
C325 N324 1.346 . S
C325 C326 1.396 . S
C325 C335 1.510 . S
C326 C322 1.401 . S
C326 C325 1.396 . S
C327 C322 1.499 . S
C327 H328 0.959 . S
C327 H329 0.960 . S
C327 H330 0.961 . S
H328 C327 0.959 . S
H329 C327 0.960 . S
H330 C327 0.961 . S
O331 Co306 1.967 . S
O331 C339 1.258 1_545 S
O332 Co307 1.941 1_565 S
O332 C339 1.266 . S
H333 C335 0.959 . S
H334 C335 0.961 . S
C335 C325 1.510 . S
C335 H333 0.959 . S
C335 H334 0.961 . S
C335 H336 0.960 . S
H336 C335 0.960 . S
H337 N317 0.862 . S
O338 Co306 1.920 . S
O338 C311 1.289 . S
C339 O331 1.258 1_565 S
C339 O332 1.266 . S
Co340 O343 1.970 . S
Co340 N357 1.989 . S
Co340 O365 1.967 . S
Co340 O372 1.920 . S
Co341 O344 1.966 . S
Co341 N350 2.022 . S
Co341 N358 1.993 . S
Co341 O366 1.941 1_554 S
C342 O343 1.258 . S
C342 O344 1.263 . S
O343 Co340 1.970 . S
O343 C342 1.258 . S
O344 Co341 1.966 . S
O344 C342 1.263 . S
C345 O346 1.235 . S
C345 O372 1.289 1_545 S
O346 C345 1.235 . S
C347 C349 1.400 . S
C347 N350 1.351 . S
C347 C352 1.501 . S
C348 C349 1.387 1_556 S
C348 N351 1.341 . S
C349 C347 1.400 . S
C349 C348 1.387 1_554 S
N350 Co341 2.022 . S
N350 C347 1.351 . S
N350 N351 1.365 1_554 S
N351 C348 1.341 . S
N351 N350 1.365 1_556 S
N351 H371 0.862 . S
C352 C347 1.501 . S
C352 H353 0.961 . S
C352 H354 0.961 . S
C352 H355 0.960 . S
H353 C352 0.961 . S
H354 C352 0.961 . S
H355 C352 0.960 . S
C356 N357 1.342 . S
C356 C360 1.401 . S
C356 C361 1.499 1_565 S
N357 Co340 1.989 . S
N357 C356 1.342 . S
N357 N358 1.388 . S
N358 Co341 1.993 . S
N358 N357 1.388 . S
N358 C359 1.346 . S
C359 N358 1.346 . S
C359 C360 1.396 . S
C359 C369 1.510 . S
C360 C356 1.401 . S
C360 C359 1.396 . S
C361 C356 1.499 1_545 S
C361 H362 0.959 . S
C361 H363 0.960 . S
C361 H364 0.961 1_554 S
H362 C361 0.959 . S
H363 C361 0.960 . S
H364 C361 0.961 1_556 S
O365 Co340 1.967 . S
O365 C373 1.258 1_554 S
O366 Co341 1.941 1_556 S
O366 C373 1.266 . S
H367 C369 0.959 1_556 S
H368 C369 0.961 . S
C369 C359 1.510 . S
C369 H367 0.959 1_554 S
C369 H368 0.961 . S
C369 H370 0.960 . S
H370 C369 0.960 . S
H371 N351 0.862 . S
O372 Co340 1.920 . S
O372 C345 1.289 1_565 S
C373 O365 1.258 1_556 S
C373 O366 1.266 . S
Co374 O377 1.970 . S
Co374 N391 1.989 . S
Co374 O399 1.967 . S
Co374 O406 1.920 . S
Co375 O378 1.966 . S
Co375 N384 2.022 . S
Co375 N392 1.993 . S
Co375 O400 1.941 1_565 S
C376 O377 1.258 . S
C376 O378 1.263 . S
O377 Co374 1.970 . S
O377 C376 1.258 . S
O378 Co375 1.966 . S
O378 C376 1.263 . S
C379 O380 1.235 . S
C379 O406 1.289 . S
O380 C379 1.235 . S
C381 C383 1.400 . S
C381 N384 1.351 . S
C381 C386 1.501 . S
C382 C383 1.387 1_545 S
C382 N385 1.341 . S
C383 C381 1.400 . S
C383 C382 1.387 1_565 S
N384 Co375 2.022 . S
N384 C381 1.351 . S
N384 N385 1.365 1_565 S
N385 C382 1.341 . S
N385 N384 1.365 1_545 S
N385 H405 0.862 . S
C386 C381 1.501 . S
C386 H387 0.961 . S
C386 H388 0.961 . S
C386 H389 0.960 . S
H387 C386 0.961 . S
H388 C386 0.961 . S
H389 C386 0.960 . S
C390 N391 1.342 . S
C390 C394 1.401 . S
C390 C395 1.499 . S
N391 Co374 1.989 . S
N391 C390 1.342 . S
N391 N392 1.388 . S
N392 Co375 1.993 . S
N392 N391 1.388 . S
N392 C393 1.346 . S
C393 N392 1.346 . S
C393 C394 1.396 . S
C393 C403 1.510 . S
C394 C390 1.401 . S
C394 C393 1.396 . S
C395 C390 1.499 . S
C395 H396 0.959 . S
C395 H397 0.960 . S
C395 H398 0.961 . S
H396 C395 0.959 . S
H397 C395 0.960 . S
H398 C395 0.961 . S
O399 Co374 1.967 . S
O399 C407 1.258 1_565 S
O400 Co375 1.941 1_545 S
O400 C407 1.266 . S
H401 C403 0.959 . S
H402 C403 0.961 . S
C403 C393 1.510 . S
C403 H401 0.959 . S
C403 H402 0.961 . S
C403 H404 0.960 . S
H404 C403 0.960 . S
H405 N385 0.862 . S
O406 Co374 1.920 . S
O406 C379 1.289 . S
C407 O399 1.258 1_545 S
C407 O400 1.266 . S
Co408 O411 1.970 . S
Co408 N425 1.989 . S
Co408 O433 1.967 . S
Co408 O440 1.920 . S
Co409 O412 1.966 . S
Co409 N418 2.022 . S
Co409 N426 1.993 . S
Co409 O434 1.941 . S
C410 O411 1.258 . S
C410 O412 1.263 . S
O411 Co408 1.970 . S
O411 C410 1.258 . S
O412 Co409 1.966 . S
O412 C410 1.263 . S
C413 O414 1.235 . S
C413 O440 1.289 . S
O414 C413 1.235 . S
C415 C417 1.400 . S
C415 N418 1.351 . S
C415 C420 1.501 . S
C416 C417 1.387 . S
C416 N419 1.341 . S
C417 C415 1.400 . S
C417 C416 1.387 . S
N418 Co409 2.022 . S
N418 C415 1.351 . S
N418 N419 1.365 . S
N419 C416 1.341 . S
N419 N418 1.365 . S
N419 H439 0.862 . S
C420 C415 1.501 . S
C420 H421 0.961 . S
C420 H422 0.961 . S
C420 H423 0.960 . S
H421 C420 0.961 . S
H422 C420 0.961 . S
H423 C420 0.960 . S
C424 N425 1.342 . S
C424 C428 1.401 . S
C424 C429 1.499 . S
N425 Co408 1.989 . S
N425 C424 1.342 . S
N425 N426 1.388 . S
N426 Co409 1.993 . S
N426 N425 1.388 . S
N426 C427 1.346 . S
C427 N426 1.346 . S
C427 C428 1.396 . S
C427 C437 1.510 . S
C428 C424 1.401 . S
C428 C427 1.396 . S
C429 C424 1.499 . S
C429 H430 0.959 . S
C429 H431 0.960 . S
C429 H432 0.961 . S
H430 C429 0.959 . S
H431 C429 0.960 . S
H432 C429 0.961 . S
O433 Co408 1.967 . S
O433 C441 1.258 . S
O434 Co409 1.941 . S
O434 C441 1.266 . S
H435 C437 0.959 . S
H436 C437 0.961 . S
C437 C427 1.510 . S
C437 H435 0.959 . S
C437 H436 0.961 . S
C437 H438 0.960 . S
H438 C437 0.960 . S
H439 N419 0.862 . S
O440 Co408 1.920 . S
O440 C413 1.289 . S
C441 O433 1.258 . S
C441 O434 1.266 . S
Co442 O445 1.970 1_556 S
Co442 N459 1.989 . S
Co442 O467 1.967 . S
Co442 O474 1.920 . S
Co443 O446 1.966 . S
Co443 N452 2.022 . S
Co443 N460 1.993 . S
Co443 O468 1.941 . S
C444 O445 1.258 . S
C444 O446 1.263 1_554 S
O445 Co442 1.970 1_554 S
O445 C444 1.258 . S
O446 Co443 1.966 . S
O446 C444 1.263 1_556 S
C447 O448 1.235 1_556 S
C447 O474 1.289 . S
O448 C447 1.235 1_554 S
C449 C451 1.400 . S
C449 N452 1.351 . S
C449 C454 1.496 1_556 S
C450 C451 1.387 . S
C450 N453 1.341 . S
C451 C449 1.400 . S
C451 C450 1.387 . S
N452 Co443 2.022 . S
N452 C449 1.351 . S
N452 N453 1.365 . S
N453 C450 1.341 . S
N453 N452 1.365 . S
N453 H473 0.862 . S
C454 C449 1.496 1_554 S
C454 H455 0.962 . S
C454 H456 0.962 . S
C454 H457 0.964 . S
H455 C454 0.962 . S
H456 C454 0.962 . S
H457 C454 0.964 . S
C458 N459 1.342 . S
C458 C462 1.401 . S
C458 C463 1.499 . S
N459 Co442 1.989 . S
N459 C458 1.342 . S
N459 N460 1.388 . S
N460 Co443 1.993 . S
N460 N459 1.388 . S
N460 C461 1.346 . S
C461 N460 1.346 . S
C461 C462 1.396 . S
C461 C471 1.510 . S
C462 C458 1.401 . S
C462 C461 1.396 . S
C463 C458 1.499 . S
C463 H464 0.959 . S
C463 H465 0.960 . S
C463 H466 0.961 . S
H464 C463 0.959 . S
H465 C463 0.960 . S
H466 C463 0.961 . S
O467 Co442 1.967 . S
O467 C475 1.258 . S
O468 Co443 1.941 . S
O468 C475 1.266 . S
H469 C471 0.959 . S
H470 C471 0.961 . S
C471 C461 1.510 . S
C471 H469 0.959 . S
C471 H470 0.961 . S
C471 H472 0.960 . S
H472 C471 0.960 . S
H473 N453 0.862 . S
O474 Co442 1.920 . S
O474 C447 1.289 . S
C475 O467 1.258 . S
C475 O468 1.266 . S
Co476 O479 1.970 . S
Co476 N493 1.989 . S
Co476 O501 1.967 . S
Co476 O508 1.920 . S
Co477 O480 1.966 . S
Co477 N486 2.022 . S
Co477 N494 1.993 . S
Co477 O502 1.941 . S
C478 O479 1.258 . S
C478 O480 1.263 . S
O479 Co476 1.970 . S
O479 C478 1.258 . S
O480 Co477 1.966 . S
O480 C478 1.263 . S
C481 O482 1.235 . S
C481 O508 1.289 . S
O482 C481 1.235 . S
C483 C485 1.400 . S
C483 N486 1.351 . S
C483 C488 1.501 . S
C484 C485 1.387 . S
C484 N487 1.341 . S
C485 C483 1.400 . S
C485 C484 1.387 . S
N486 Co477 2.022 . S
N486 C483 1.351 . S
N486 N487 1.365 . S
N487 C484 1.341 . S
N487 N486 1.365 . S
N487 H507 0.862 . S
C488 C483 1.501 . S
C488 H489 0.961 . S
C488 H490 0.961 . S
C488 H491 0.960 . S
H489 C488 0.961 . S
H490 C488 0.961 . S
H491 C488 0.960 . S
C492 N493 1.342 . S
C492 C496 1.401 . S
C492 C497 1.499 . S
N493 Co476 1.989 . S
N493 C492 1.342 . S
N493 N494 1.388 . S
N494 Co477 1.993 . S
N494 N493 1.388 . S
N494 C495 1.346 . S
C495 N494 1.346 . S
C495 C496 1.396 . S
C495 C505 1.510 . S
C496 C492 1.401 . S
C496 C495 1.396 . S
C497 C492 1.499 . S
C497 H498 0.959 . S
C497 H499 0.960 . S
C497 H500 0.961 . S
H498 C497 0.959 . S
H499 C497 0.960 . S
H500 C497 0.961 . S
O501 Co476 1.967 . S
O501 C509 1.258 . S
O502 Co477 1.941 . S
O502 C509 1.266 . S
H503 C505 0.959 . S
H504 C505 0.961 . S
C505 C495 1.510 . S
C505 H503 0.959 . S
C505 H504 0.961 . S
C505 H506 0.960 . S
H506 C505 0.960 . S
H507 N487 0.862 . S
O508 Co476 1.920 . S
O508 C481 1.289 . S
C509 O501 1.258 . S
C509 O502 1.266 . S
Co510 O513 1.970 1_554 S
Co510 N527 1.989 . S
Co510 O535 1.967 . S
Co510 O542 1.920 . S
Co511 O514 1.966 . S
Co511 N520 2.022 . S
Co511 N528 1.993 . S
Co511 O536 1.941 . S
C512 O513 1.258 . S
C512 O514 1.263 1_556 S
O513 Co510 1.970 1_556 S
O513 C512 1.258 . S
O514 Co511 1.966 . S
O514 C512 1.263 1_554 S
C515 O516 1.235 1_554 S
C515 O542 1.289 . S
O516 C515 1.235 1_556 S
C517 C519 1.400 . S
C517 N520 1.351 . S
C517 C522 1.496 1_554 S
C518 C519 1.387 . S
C518 N521 1.341 . S
C519 C517 1.400 . S
C519 C518 1.387 . S
N520 Co511 2.022 . S
N520 C517 1.351 . S
N520 N521 1.365 . S
N521 C518 1.341 . S
N521 N520 1.365 . S
N521 H541 0.862 . S
C522 C517 1.496 1_556 S
C522 H523 0.962 . S
C522 H524 0.962 . S
C522 H525 0.964 . S
H523 C522 0.962 . S
H524 C522 0.962 . S
H525 C522 0.964 . S
C526 N527 1.342 . S
C526 C530 1.401 . S
C526 C531 1.499 . S
N527 Co510 1.989 . S
N527 C526 1.342 . S
N527 N528 1.388 . S
N528 Co511 1.993 . S
N528 N527 1.388 . S
N528 C529 1.346 . S
C529 N528 1.346 . S
C529 C530 1.396 . S
C529 C539 1.510 . S
C530 C526 1.401 . S
C530 C529 1.396 . S
C531 C526 1.499 . S
C531 H532 0.959 . S
C531 H533 0.960 . S
C531 H534 0.961 . S
H532 C531 0.959 . S
H533 C531 0.960 . S
H534 C531 0.961 . S
O535 Co510 1.967 . S
O535 C543 1.258 . S
O536 Co511 1.941 . S
O536 C543 1.266 . S
H537 C539 0.959 . S
H538 C539 0.961 . S
C539 C529 1.510 . S
C539 H537 0.959 . S
C539 H538 0.961 . S
C539 H540 0.960 . S
H540 C539 0.960 . S
H541 N521 0.862 . S
O542 Co510 1.920 . S
O542 C515 1.289 . S
C543 O535 1.258 . S
C543 O536 1.266 . S
C5 C315 0.870 1_565 S
C9 C311 0.870 . S
C281 C39 0.870 . S
C43 C277 0.870 1_545 S
C73 C383 0.870 1_545 S
C77 C379 0.870 . S
C107 C349 0.870 . S
C111 C345 0.870 1_565 S
C141 C451 0.870 . S
C447 C145 0.870 . S
C417 C175 0.870 . S
C413 C179 0.870 . S
C519 C209 0.870 . S
C515 C213 0.870 . S
C485 C243 0.870 . S
C247 C481 0.870 . S
C2 C36 1.776 . S
C104 C70 1.776 . S
C172 C138 1.776 . S
C240 C206 1.776 . S
C308 C274 1.776 . S
C342 C376 1.776 . S
C444 C410 1.776 . S
C478 C512 1.776 . S
C509 C33 3.605 . S
C88 C20 2.795 1_665 S
C407 C67 3.606 1_545 S
C258 C54 2.795 1_655 S
C101 C441 3.605 . S
C339 C135 3.606 1_565 S
C122 C190 2.795 1_655 S
C373 C169 3.605 1_556 S
C156 C224 2.795 1_456 S
C203 C543 3.606 . S
C237 C305 3.606 1_556 S
C271 C475 3.606 . S
C360 C292 2.795 1_564 S
C530 C326 2.795 . S
C394 C462 2.794 . S
C428 C496 2.795 . S
