# Generated by pormake.
# Topology vcc, (6)-cn, num edge types: 1
# Building blocks:
#     Node 0, Type 0, BuildingBlock: UKALOJ_clean_sbu_0, # of connection points: 6
#     Node 1, Type 0, BuildingBlock: UKALOJ_clean_sbu_0, # of connection points: 6
#     Node 2, Type 0, BuildingBlock: UKALOJ_clean_sbu_0, # of connection points: 6
#     Node 3, Type 0, BuildingBlock: UKALOJ_clean_sbu_0, # of connection points: 6
#     Node 4, Type 0, BuildingBlock: UKALOJ_clean_sbu_0, # of connection points: 6
#     Node 5, Type 0, BuildingBlock: UKALOJ_clean_sbu_0, # of connection points: 6
#     Node 6, Type 0, BuildingBlock: UKALOJ_clean_sbu_0, # of connection points: 6
#     Node 7, Type 0, BuildingBlock: UKALOJ_clean_sbu_0, # of connection points: 6
#     Node 8, Type 0, BuildingBlock: UKALOJ_clean_sbu_0, # of connection points: 6
#     Node 9, Type 0, BuildingBlock: UKALOJ_clean_sbu_0, # of connection points: 6
#     Node 10, Type 0, BuildingBlock: UKALOJ_clean_sbu_0, # of connection points: 6
#     Node 11, Type 0, BuildingBlock: UKALOJ_clean_sbu_0, # of connection points: 6
#     Node 12, Type 0, BuildingBlock: UKALOJ_clean_sbu_0, # of connection points: 6
#     Node 13, Type 0, BuildingBlock: UKALOJ_clean_sbu_0, # of connection points: 6
#     Node 14, Type 0, BuildingBlock: UKALOJ_clean_sbu_0, # of connection points: 6
#     Node 15, Type 0, BuildingBlock: UKALOJ_clean_sbu_0, # of connection points: 6
#     Node 16, Type 0, BuildingBlock: UKALOJ_clean_sbu_0, # of connection points: 6
#     Node 17, Type 0, BuildingBlock: UKALOJ_clean_sbu_0, # of connection points: 6
#     Node 18, Type 0, BuildingBlock: UKALOJ_clean_sbu_0, # of connection points: 6
#     Node 19, Type 0, BuildingBlock: UKALOJ_clean_sbu_0, # of connection points: 6
#     Node 20, Type 0, BuildingBlock: UKALOJ_clean_sbu_0, # of connection points: 6
#     Node 21, Type 0, BuildingBlock: UKALOJ_clean_sbu_0, # of connection points: 6
#     Node 22, Type 0, BuildingBlock: UKALOJ_clean_sbu_0, # of connection points: 6
#     Node 23, Type 0, BuildingBlock: UKALOJ_clean_sbu_0, # of connection points: 6
#     Node 24, Type 0, BuildingBlock: UKALOJ_clean_sbu_0, # of connection points: 6
#     Node 25, Type 0, BuildingBlock: UKALOJ_clean_sbu_0, # of connection points: 6
#     Node 26, Type 0, BuildingBlock: UKALOJ_clean_sbu_0, # of connection points: 6
#     Node 27, Type 0, BuildingBlock: UKALOJ_clean_sbu_0, # of connection points: 6
#     Node 28, Type 0, BuildingBlock: UKALOJ_clean_sbu_0, # of connection points: 6
#     Node 29, Type 0, BuildingBlock: UKALOJ_clean_sbu_0, # of connection points: 6
#     Node 30, Type 0, BuildingBlock: UKALOJ_clean_sbu_0, # of connection points: 6
#     Node 31, Type 0, BuildingBlock: UKALOJ_clean_sbu_0, # of connection points: 6
#     Edge 32, Type (0, 0), None
#     Edge 33, Type (0, 0), None
#     Edge 34, Type (0, 0), None
#     Edge 35, Type (0, 0), None
#     Edge 36, Type (0, 0), None
#     Edge 37, Type (0, 0), None
#     Edge 38, Type (0, 0), None
#     Edge 39, Type (0, 0), None
#     Edge 40, Type (0, 0), None
#     Edge 41, Type (0, 0), None
#     Edge 42, Type (0, 0), None
#     Edge 43, Type (0, 0), None
#     Edge 44, Type (0, 0), None
#     Edge 45, Type (0, 0), None
#     Edge 46, Type (0, 0), None
#     Edge 47, Type (0, 0), None
#     Edge 48, Type (0, 0), None
#     Edge 49, Type (0, 0), None
#     Edge 50, Type (0, 0), None
#     Edge 51, Type (0, 0), None
#     Edge 52, Type (0, 0), None
#     Edge 53, Type (0, 0), None
#     Edge 54, Type (0, 0), None
#     Edge 55, Type (0, 0), None
#     Edge 56, Type (0, 0), None
#     Edge 57, Type (0, 0), None
#     Edge 58, Type (0, 0), None
#     Edge 59, Type (0, 0), None
#     Edge 60, Type (0, 0), None
#     Edge 61, Type (0, 0), None
#     Edge 62, Type (0, 0), None
#     Edge 63, Type (0, 0), None
#     Edge 64, Type (0, 0), None
#     Edge 65, Type (0, 0), None
#     Edge 66, Type (0, 0), None
#     Edge 67, Type (0, 0), None
#     Edge 68, Type (0, 0), None
#     Edge 69, Type (0, 0), None
#     Edge 70, Type (0, 0), None
#     Edge 71, Type (0, 0), None
#     Edge 72, Type (0, 0), None
#     Edge 73, Type (0, 0), None
#     Edge 74, Type (0, 0), None
#     Edge 75, Type (0, 0), None
#     Edge 76, Type (0, 0), None
#     Edge 77, Type (0, 0), None
#     Edge 78, Type (0, 0), None
#     Edge 79, Type (0, 0), None
#     Edge 80, Type (0, 0), None
#     Edge 81, Type (0, 0), None
#     Edge 82, Type (0, 0), None
#     Edge 83, Type (0, 0), None
#     Edge 84, Type (0, 0), None
#     Edge 85, Type (0, 0), None
#     Edge 86, Type (0, 0), None
#     Edge 87, Type (0, 0), None
#     Edge 88, Type (0, 0), None
#     Edge 89, Type (0, 0), None
#     Edge 90, Type (0, 0), None
#     Edge 91, Type (0, 0), None
#     Edge 92, Type (0, 0), None
#     Edge 93, Type (0, 0), None
#     Edge 94, Type (0, 0), None
#     Edge 95, Type (0, 0), None
#     Edge 96, Type (0, 0), None
#     Edge 97, Type (0, 0), None
#     Edge 98, Type (0, 0), None
#     Edge 99, Type (0, 0), None
#     Edge 100, Type (0, 0), None
#     Edge 101, Type (0, 0), None
#     Edge 102, Type (0, 0), None
#     Edge 103, Type (0, 0), None
#     Edge 104, Type (0, 0), None
#     Edge 105, Type (0, 0), None
#     Edge 106, Type (0, 0), None
#     Edge 107, Type (0, 0), None
#     Edge 108, Type (0, 0), None
#     Edge 109, Type (0, 0), None
#     Edge 110, Type (0, 0), None
#     Edge 111, Type (0, 0), None
#     Edge 112, Type (0, 0), None
#     Edge 113, Type (0, 0), None
#     Edge 114, Type (0, 0), None
#     Edge 115, Type (0, 0), None
#     Edge 116, Type (0, 0), None
#     Edge 117, Type (0, 0), None
#     Edge 118, Type (0, 0), None
#     Edge 119, Type (0, 0), None
#     Edge 120, Type (0, 0), None
#     Edge 121, Type (0, 0), None
#     Edge 122, Type (0, 0), None
#     Edge 123, Type (0, 0), None
#     Edge 124, Type (0, 0), None
#     Edge 125, Type (0, 0), None
#     Edge 126, Type (0, 0), None
#     Edge 127, Type (0, 0), None
# Relax obj value: 0.708
# Max RMSD: 0.146
# Mean RMSD: 0.140
data_MOF--net-vcc--node1-UKALOJ_clean_sbu_0--edge1-none
_symmetry_space_group_name_H-M    P1
_symmetry_Int_Tables_number       1
_symmetry_cell_setting            triclinic
loop_
_symmetry_equiv_pos_as_xyz
'x, y, z'
_cell_length_a     31.1391
_cell_length_b     29.626096
_cell_length_c     15.82456
_cell_angle_alpha  89.491444
_cell_angle_beta   90.337596
_cell_angle_gamma 90.548055
loop_
_atom_site_label
_atom_site_type_symbol
_atom_site_fract_x
_atom_site_fract_y
_atom_site_fract_z
_atom_type_partial_charge
Zn0 Zn 0.2883 0.198 0.12344 0.0
O1 O 0.25613 0.20083 0.25627 0.0
C2 C 0.35269 1.16266 0.22911 0.0
Zn3 Zn 0.27197 1.13198 0.1335 0.0
C4 C 0.22162 0.17807 0.26609 0.0
O5 O 0.21623 1.14658 0.21487 0.0
C6 C 0.32621 1.15531 0.97906 0.0
O7 O 0.23641 1.12893 1.04234 0.0
O8 O 0.22832 0.20096 0.06496 0.0
N9 N 0.25361 1.06784 0.16255 0.0
C10 C 0.28612 1.03996 0.155 0.0
C11 C 0.27308 1.04636 0.28623 0.0
N12 N 0.24195 1.067 0.24294 0.0
N13 N 0.30273 1.03176 0.23213 0.0
C14 C 0.29888 0.27445 0.20264 0.0
C15 C 0.23592 0.29332 0.16306 0.0
N16 N 0.29549 0.2661 0.1198 0.0
N17 N 0.25824 0.28255 0.09376 0.0
N18 N 0.26036 0.28649 0.23238 0.0
H19 H 0.34677 0.30021 0.2922 0.0
H20 H 0.36776 0.26544 0.21243 0.0
H21 H 0.33667 0.24177 0.29961 0.0
C22 C 0.33978 0.27006 0.25377 0.0
C23 C 0.27949 1.00178 0.09497 0.0
H24 H 0.24517 0.99111 0.09438 0.0
H25 H 0.29863 0.97208 0.11377 0.0
H26 H 0.28713 1.01351 1.03003 0.0
O27 O 0.31917 1.12123 1.02783 0.0
O28 O 0.31448 0.19377 1.00425 0.0
C29 C 0.21835 1.16534 1.02521 0.0
O30 O 0.35024 0.19116 0.17029 0.0
O31 O 0.32091 1.13537 0.2394 0.0
Zn32 Zn 0.9215 0.45823 0.1285 0.0
O33 O 0.95986 0.44057 1.04503 0.0
C34 C 0.86334 0.43557 0.97069 0.0
Zn35 Zn 0.90507 0.39084 0.11294 0.0
C36 C 0.96928 0.4026 1.01489 0.0
O37 O 0.95388 0.36632 1.0455 0.0
C38 C 0.84222 0.44313 0.21831 0.0
O39 O 0.94849 0.37869 0.22951 0.0
O40 O 0.97027 0.44707 0.22529 0.0
N41 N 0.87932 0.33518 0.13965 0.0
C42 C 0.86551 0.32502 0.21808 0.0
C43 C 0.8653 0.26551 0.14533 0.0
N44 N 0.87765 0.29879 0.09268 0.0
N45 N 0.85816 0.28135 0.22376 0.0
C46 C 0.91765 0.5489 0.11468 0.0
C47 C 0.94187 0.55561 0.23947 0.0
N48 N 0.95023 0.52102 0.1233 0.0
N49 N 0.96926 0.53038 0.19614 0.0
N50 N 0.90764 0.56514 0.19064 0.0
H51 H 0.95323 0.59099 1.02941 0.0
H52 H 0.90173 0.6116 0.05573 0.0
H53 H 0.90726 0.56354 0.98399 0.0
C54 C 0.91953 0.58066 1.0414 0.0
C55 C 0.86874 0.35364 0.29778 0.0
H56 H 0.88836 0.33732 0.3476 0.0
H57 H 0.83616 0.35705 0.32482 0.0
H58 H 0.88384 0.38679 0.29193 0.0
O59 O 0.8483 0.41223 0.16721 0.0
O60 O 0.87281 0.47168 0.22852 0.0
C61 C 0.97482 0.40841 0.25613 0.0
O62 O 0.87713 0.46974 1.0124 0.0
O63 O 0.87055 0.39674 1.0015 0.0
Zn64 Zn 0.28156 0.46516 0.23367 0.0
O65 O 0.22851 0.49935 0.26577 0.0
C66 C 0.32911 0.45735 0.40745 0.0
Zn67 Zn 0.26855 0.40476 0.29815 0.0
C68 C 0.21275 0.4819 0.33086 0.0
O69 O 0.22624 0.44426 0.35829 0.0
C70 C 0.34878 0.39424 0.19565 0.0
O71 O 0.21664 0.38761 0.20432 0.0
O72 O 0.24538 0.43934 0.12674 0.0
N73 N 0.247 0.35625 0.38155 0.0
C74 C 0.22486 0.32842 0.33254 0.0
C75 C 0.27761 0.29285 0.37877 0.0
N76 N 0.27768 0.33265 0.41793 0.0
N77 N 0.24766 0.29186 0.31676 0.0
C78 C 0.2951 0.55437 0.13744 0.0
C79 C 0.32601 0.52749 1.03145 0.0
N80 N 0.29199 0.50978 0.14351 0.0
N81 N 0.30769 0.49319 0.07294 0.0
N82 N 0.32404 0.56523 0.07781 0.0
H83 H 0.24581 0.59998 0.17229 0.0
H84 H 0.2982 0.61629 0.20841 0.0
H85 H 0.26924 0.57082 0.26053 0.0
C86 C 0.2764 0.58707 0.19889 0.0
C87 C 0.1769 0.32896 0.32645 0.0
H88 H 0.16456 0.36229 0.34567 0.0
H89 H 0.16357 0.30228 0.36856 0.0
H90 H 0.16614 0.32105 0.26126 0.0
O91 O 0.32085 0.36698 0.22811 0.0
O92 O 0.33947 0.43537 0.19477 0.0
C93 C 0.21703 0.40903 0.13514 0.0
O94 O 0.3193 0.49 0.35681 0.0
O95 O 0.31419 0.41894 0.38933 0.0
Zn96 Zn 0.9068 0.17849 0.30505 0.0
O97 O 0.93855 0.20404 0.17419 0.0
C98 C 0.83538 0.17379 0.18981 0.0
Zn99 Zn 0.90968 1.11944 0.24822 0.0
C100 C 0.96579 0.17686 0.14212 0.0
O101 O 0.96493 1.13715 0.17077 0.0
C102 C 0.854 1.12611 0.41453 0.0
O103 O 0.94895 1.08665 0.3255 0.0
O104 O 0.96402 1.15929 0.33624 0.0
N105 N 0.91285 1.07172 0.16041 0.0
C106 C 0.91066 1.02698 0.15584 0.0
C107 C 0.8953 1.05232 1.03506 0.0
N108 N 0.90777 1.08712 0.08228 0.0
N109 N 0.89038 1.01533 0.08385 0.0
C110 C 0.91523 0.2505 0.31033 0.0
C111 C 0.85406 0.25723 0.37075 0.0
N112 N 0.91819 0.23385 0.38721 0.0
N113 N 0.88245 0.2426 0.42863 0.0
N114 N 0.87386 0.25982 0.29562 0.0
H115 H -0.01825 0.25612 0.27588 0.0
H116 H 0.95924 0.3063 0.31575 0.0
H117 H 0.94667 0.28887 0.209 0.0
C118 C 0.95248 0.277 0.27452 0.0
C119 C 0.91978 0.99495 0.22752 0.0
H120 H 0.95375 0.98429 0.22316 0.0
H121 H 0.89934 0.96428 0.22243 0.0
H122 H 0.91568 1.01105 0.2898 0.0
O123 O 0.85138 1.10491 0.34382 0.0
O124 O 0.88366 1.15458 0.42007 0.0
C125 C 0.97482 1.11833 0.34207 0.0
O126 O 0.83744 0.18805 0.26474 0.0
O127 O 0.86725 1.1526 0.16248 0.0
Zn128 Zn 0.6753 0.17667 1.02929 0.0
O129 O 0.64511 0.255 1.04464 0.0
C130 C 0.6059 1.15119 0.16805 0.0
Zn131 Zn 0.61809 1.15232 0.98595 0.0
C132 C 0.60694 0.26331 1.0129 0.0
O133 O 0.59025 0.2283 0.97764 0.0
C134 C 0.66909 1.06481 0.97731 0.0
O135 O 0.65491 1.15198 0.86184 0.0
O136 O 0.70359 0.19734 0.91052 0.0
N137 N 0.57051 1.12726 0.94101 0.0
C138 C 0.54293 1.15093 0.89754 0.0
C139 C 0.50957 1.09535 0.95659 0.0
N140 N 0.5507 1.09299 0.97909 0.0
N141 N 0.50456 1.13222 0.90861 0.0
C142 C 0.75933 0.19015 0.15153 0.0
C143 C 0.80381 0.17533 0.05355 0.0
N144 N 0.73664 0.18719 0.07821 0.0
N145 N 0.76492 0.17867 1.01839 0.0
N146 N 0.80156 0.18191 0.13727 0.0
H147 H 0.70608 0.20667 0.23147 0.0
H148 H 0.75867 0.21678 0.27728 0.0
H149 H 0.73869 1.15997 0.26771 0.0
C150 C 0.73931 0.19378 0.23693 0.0
C151 C 0.55511 0.1867 0.8342 0.0
H152 H 0.54277 0.17772 0.77091 0.0
H153 H 0.59019 0.19154 0.82984 0.0
H154 H 0.54096 0.21885 0.85338 0.0
O155 O 0.63204 1.07943 0.99025 0.0
O156 O 0.6984 1.0955 0.99143 0.0
C157 C 0.69003 0.1738 0.85004 0.0
O158 O 0.64651 1.15774 0.15908 0.0
O159 O 0.58363 1.14886 0.10164 0.0
Zn160 Zn 0.0745 0.92487 0.9623 0.0
O161 O 0.04244 0.91809 0.83443 0.0
C162 C 0.01829 1.01572 0.96064 0.0
Zn163 Zn 0.01498 0.90614 1.02281 0.0
C164 C 0.00405 0.90202 0.83166 0.0
O165 O -0.01256 0.88971 0.90072 0.0
C166 C 0.08224 0.92923 0.158 0.0
O167 O 0.04872 0.82814 1.03256 0.0
O168 O 0.10497 0.85201 0.96406 0.0
N169 N 0.95244 0.88774 0.06957 0.0
C170 C 0.92888 0.87491 0.1386 0.0
C171 C 0.88439 0.88966 1.03991 0.0
N172 N 0.92393 0.89596 1.0092 0.0
N173 N 0.88576 0.87613 0.1212 0.0
C174 C 0.14185 0.96945 0.85096 0.0
C175 C 0.1763 1.00506 0.94485 0.0
N176 N 0.12548 0.95716 0.92518 0.0
N177 N 0.14546 0.98135 0.98336 0.0
N178 N 0.17613 0.9971 0.86128 0.0
H179 H 0.09479 0.96912 0.75226 0.0
H180 H 0.12039 0.91568 0.7698 0.0
H181 H 0.1486 0.96149 0.71592 0.0
C182 C 0.12582 0.95271 0.76721 0.0
C183 C 0.94777 0.86706 0.22455 0.0
H184 H -0.01686 0.86337 0.22094 0.0
H185 H 0.9332 0.83625 0.25322 0.0
H186 H 0.94012 0.89586 0.26596 0.0
O187 O 0.04176 0.92177 0.15236 0.0
O188 O 0.10299 0.93156 0.08948 0.0
C189 C 0.08688 0.8184 1.00246 0.0
O190 O 0.05469 0.99763 0.95183 0.0
O191 O -0.00943 0.98795 0.99532 0.0
Zn192 Zn 0.62216 0.91447 0.938 0.0
O193 O 0.65226 0.89886 0.06039 0.0
C194 C 0.67203 1.01283 0.94962 0.0
Zn195 Zn 0.67969 0.91106 0.86971 0.0
C196 C 0.69216 0.88946 0.05648 0.0
O197 O 0.71004 0.89255 0.98539 0.0
C198 C 0.61057 0.92783 0.7433 0.0
O199 O 0.64825 0.82771 0.86054 0.0
O200 O 0.59085 0.84587 0.92946 0.0
N201 N 0.74403 0.91746 0.8255 0.0
C202 C 0.76905 0.91635 0.75573 0.0
C203 C 0.8034 0.95616 0.84603 0.0
N204 N 0.76629 0.94196 0.88071 0.0
N205 N 0.80618 0.94107 0.76701 0.0
C206 C 0.54676 0.93433 1.03661 0.0
C207 C 0.52709 0.99459 0.97142 0.0
N208 N 0.57359 0.94203 0.97463 0.0
N209 N 0.56193 0.97933 0.93379 0.0
N210 N 0.51753 0.96698 1.03562 0.0
H211 H 0.58214 0.89119 0.12153 0.0
H212 H 0.5414 0.86335 0.06196 0.0
H213 H 0.5274 0.89834 0.15071 0.0
C214 C 0.54924 0.89474 0.09646 0.0
C215 C 0.7551 0.89512 0.67442 0.0
H216 H 0.72075 0.88493 0.67693 0.0
H217 H 0.77466 0.86465 0.66322 0.0
H218 H 0.76057 0.91902 0.62104 0.0
O219 O 0.65142 0.92583 0.74481 0.0
O220 O 0.59148 0.92667 0.81365 0.0
C221 C 0.61009 0.81473 0.89048 0.0
O222 O 0.6412 0.98704 0.96953 0.0
O223 O 0.69712 0.9936 0.89691 0.0
Zn224 Zn 0.06612 1.16518 0.94359 0.0
O225 O 0.03369 0.17446 0.06754 0.0
C226 C 0.01612 1.0696 0.94192 0.0
Zn227 Zn 0.00961 0.17787 0.87176 0.0
C228 C -0.0056 0.1864 0.06663 0.0
O229 O 0.97764 0.19307 0.99447 0.0
C230 C 0.08098 1.15757 0.74587 0.0
O231 O 0.04261 0.25809 0.85862 0.0
O232 O 0.09568 0.23712 0.93647 0.0
N233 N 0.94766 0.19439 0.81726 0.0
C234 C 0.92533 0.19306 0.74285 0.0
C235 C 0.88012 0.20779 0.838 0.0
N236 N 0.91882 0.20433 0.87511 0.0
N237 N 0.88262 0.20216 0.75386 0.0
C238 C 0.14464 0.1737 1.01715 0.0
C239 C 0.17329 1.12361 0.9401 0.0
N240 N 0.11477 1.14425 0.99425 0.0
N241 N 0.13205 1.11296 0.94669 0.0
N242 N 0.18193 1.16164 0.9835 0.0
H243 H 0.15198 0.19465 0.14617 0.0
H244 H 0.10381 0.21428 0.09664 0.0
H245 H 0.15499 0.23995 0.07 0.0
C246 C 0.13831 0.20777 0.08614 0.0
C247 C 0.94531 0.1809 0.66057 0.0
H248 H 0.97336 0.20342 0.64884 0.0
H249 H 0.92209 0.18427 0.60751 0.0
H250 H 0.95753 1.14594 0.66449 0.0
O251 O 0.04025 1.16332 0.74616 0.0
O252 O 0.09948 1.15591 0.81768 0.0
C253 C 0.0805 0.26867 0.89088 0.0
O254 O 0.04958 1.09186 0.96045 0.0
O255 O -0.01115 1.09391 0.89814 0.0
Zn256 Zn 0.28829 0.69802 0.62348 0.0
O257 O 0.25612 0.70083 0.75631 0.0
C258 C 0.35267 0.66267 0.72917 0.0
Zn259 Zn 0.27197 0.63199 0.63355 0.0
C260 C 0.22161 0.67808 0.76612 0.0
O261 O 0.21622 0.64659 0.71489 0.0
C262 C 0.32621 0.65533 0.47913 0.0
O263 O 0.2364 0.62895 0.54238 0.0
O264 O 0.22833 0.70098 0.565 0.0
N265 N 0.25361 0.56786 0.6626 0.0
C266 C 0.28612 0.53998 0.65504 0.0
C267 C 0.27308 0.54637 0.78627 0.0
N268 N 0.24195 0.56701 0.74298 0.0
N269 N 0.30273 0.53178 0.73217 0.0
C270 C 0.29886 0.77446 0.70269 0.0
C271 C 0.23591 0.79332 0.6631 0.0
N272 N 0.29548 0.76611 0.61985 0.0
N273 N 0.25824 0.78256 0.5938 0.0
N274 N 0.26034 0.78649 0.73243 0.0
H275 H 0.34675 0.80022 0.79226 0.0
H276 H 0.36775 0.76546 0.71249 0.0
H277 H 0.33665 0.74178 0.79967 0.0
C278 C 0.33977 0.77007 0.75383 0.0
C279 C 0.27948 0.5018 0.595 0.0
H280 H 0.24516 0.49113 0.59441 0.0
H281 H 0.29863 0.4721 0.6138 0.0
H282 H 0.28713 0.51353 0.53006 0.0
O283 O 0.31917 0.62125 0.52789 0.0
O284 O 0.31448 0.69379 0.50431 0.0
C285 C 0.21835 0.66536 0.52523 0.0
O286 O 0.35022 0.69117 0.67034 0.0
O287 O 0.32089 0.63539 0.73945 0.0
Zn288 Zn 0.92149 0.95822 0.62847 0.0
O289 O 0.95985 0.94053 0.54501 0.0
C290 C 0.86332 0.9356 0.47064 0.0
Zn291 Zn 0.90504 0.89083 0.61291 0.0
C292 C 0.96926 0.90257 0.51488 0.0
O293 O 0.95386 0.8663 0.54547 0.0
C294 C 0.84222 0.94317 0.71828 0.0
O295 O 0.94845 0.87867 0.72949 0.0
O296 O 0.97026 0.94705 0.72527 0.0
N297 N 0.87927 0.83519 0.63967 0.0
C298 C 0.86547 0.82503 0.71801 0.0
C299 C 0.86527 0.76551 0.64531 0.0
N300 N 0.87761 0.79876 0.59267 0.0
N301 N 0.85812 0.78133 0.72387 0.0
C302 C 0.91768 1.04887 0.61461 0.0
C303 C 0.94192 1.05558 0.73939 0.0
N304 N 0.95026 1.02099 0.62322 0.0
N305 N 0.9693 1.03036 0.69605 0.0
N306 N 0.90768 1.06512 0.69058 0.0
H307 H 0.95323 1.09098 0.52933 0.0
H308 H 0.90172 1.11155 0.55564 0.0
H309 H 0.90727 1.06349 0.48392 0.0
C310 C 0.91954 1.08061 0.54132 0.0
C311 C 0.86868 0.85366 0.79776 0.0
H312 H 0.88828 0.83735 0.84759 0.0
H313 H 0.8361 0.85709 0.82475 0.0
H314 H 0.8838 0.88681 0.79189 0.0
O315 O 0.84827 0.91224 0.66716 0.0
O316 O 0.8728 0.97169 0.72846 0.0
C317 C 0.97477 0.90839 0.75615 0.0
O318 O 0.87713 0.96975 0.51237 0.0
O319 O 0.87052 0.89676 0.50144 0.0
Zn320 Zn 0.28157 0.96516 0.73363 0.0
O321 O 0.22852 0.99935 0.76573 0.0
C322 C 0.32912 0.95736 0.90741 0.0
Zn323 Zn 0.26856 0.90476 0.79813 0.0
C324 C 0.21275 0.98189 0.83082 0.0
O325 O 0.22623 0.94426 0.85826 0.0
C326 C 0.3488 0.89425 0.69562 0.0
O327 O 0.21665 0.8876 0.7043 0.0
O328 O 0.24538 0.93933 0.62671 0.0
N329 N 0.24701 0.85626 0.88154 0.0
C330 C 0.22485 0.82843 0.83256 0.0
C331 C 0.27759 0.79284 0.87882 0.0
N332 N 0.27768 0.83266 0.91793 0.0
N333 N 0.24764 0.79186 0.8168 0.0
C334 C 0.29502 1.05436 0.63726 0.0
C335 C 0.32595 1.02748 0.53131 0.0
N336 N 0.29197 1.00977 0.64342 0.0
N337 N 0.30769 0.99317 0.57287 0.0
N338 N 0.32395 1.06523 0.57761 0.0
H339 H 0.2457 1.09997 0.67201 0.0
H340 H 0.29809 1.1163 0.70817 0.0
H341 H 0.26912 1.07085 0.7603 0.0
C342 C 0.27629 1.08707 0.69865 0.0
C343 C 0.17689 0.82899 0.82649 0.0
H344 H 0.16457 0.86232 0.84573 0.0
H345 H 0.16355 0.8023 0.86858 0.0
H346 H 0.16613 0.82109 0.76129 0.0
O347 O 0.32087 0.86699 0.7281 0.0
O348 O 0.33948 0.93538 0.69471 0.0
C349 C 0.21703 0.90902 0.63512 0.0
O350 O 0.31933 0.99001 0.85676 0.0
O351 O 0.31418 0.91896 0.88931 0.0
Zn352 Zn 0.90678 0.6785 0.80509 0.0
O353 O 0.93855 0.70403 0.67423 0.0
C354 C 0.83535 0.6738 0.6899 0.0
Zn355 Zn 0.90967 0.61944 0.74826 0.0
C356 C 0.96578 0.67686 0.64216 0.0
O357 O 0.96491 0.63714 0.6708 0.0
C358 C 0.85399 0.62612 0.91458 0.0
O359 O 0.94895 0.58665 0.82553 0.0
O360 O 0.964 0.65929 0.83629 0.0
N361 N 0.91281 0.5717 0.66046 0.0
C362 C 0.91058 0.52697 0.65592 0.0
C363 C 0.89521 0.55231 0.53514 0.0
N364 N 0.90772 0.5871 0.58233 0.0
N365 N 0.89027 0.51533 0.58394 0.0
C366 C 0.91519 0.7505 0.8104 0.0
C367 C 0.85403 0.75724 0.87081 0.0
N368 N 0.91817 0.73387 0.88719 0.0
N369 N 0.88239 0.74263 0.92866 0.0
N370 N 0.87381 0.75987 0.79554 0.0
H371 H -0.01829 0.75614 0.77592 0.0
H372 H 0.95919 0.80632 0.81576 0.0
H373 H 0.94663 0.78887 0.70903 0.0
C374 C 0.95243 0.77702 0.77453 0.0
C375 C 0.91972 0.49494 0.72758 0.0
H376 H 0.9537 0.48429 0.72319 0.0
H377 H 0.89931 0.46425 0.7225 0.0
H378 H 0.91563 0.51103 0.78987 0.0
O379 O 0.85138 0.60491 0.84388 0.0
O380 O 0.88364 0.6546 0.92012 0.0
C381 C 0.9748 0.61834 0.84212 0.0
O382 O 0.83742 0.68804 0.76475 0.0
O383 O 0.86724 0.65258 0.6625 0.0
Zn384 Zn 0.67529 0.67666 0.5293 0.0
O385 O 0.64512 0.75498 0.54465 0.0
C386 C 0.60587 0.65119 0.66807 0.0
Zn387 Zn 0.61809 0.65229 0.48599 0.0
C388 C 0.60695 0.76329 0.51289 0.0
O389 O 0.59026 0.72828 0.47764 0.0
C390 C 0.66908 0.5648 0.47737 0.0
O391 O 0.65492 0.65194 0.3619 0.0
O392 O 0.70359 0.69733 0.41053 0.0
N393 N 0.57052 0.62724 0.44098 0.0
C394 C 0.54293 0.65098 0.39767 0.0
C395 C 0.50956 0.59542 0.45674 0.0
N396 N 0.55069 0.59298 0.47909 0.0
N397 N 0.50454 0.63233 0.40885 0.0
C398 C 0.75931 0.69015 0.65158 0.0
C399 C 0.8038 0.67529 0.5536 0.0
N400 N 0.73663 0.68717 0.57822 0.0
N401 N 0.7649 0.67863 0.51843 0.0
N402 N 0.80155 0.68189 0.63725 0.0
H403 H 0.70607 0.70668 0.73148 0.0
H404 H 0.75866 0.71684 0.77726 0.0
H405 H 0.7387 0.66001 0.76779 0.0
C406 C 0.7393 0.69381 0.73694 0.0
C407 C 0.55512 0.68671 0.33424 0.0
H408 H 0.54278 0.67768 0.27097 0.0
H409 H 0.5902 0.69152 0.32985 0.0
H410 H 0.54099 0.71888 0.35334 0.0
O411 O 0.63203 0.57941 0.49033 0.0
O412 O 0.69839 0.59549 0.49145 0.0
C413 C 0.69004 0.67376 0.35008 0.0
O414 O 0.64649 0.65774 0.6591 0.0
O415 O 0.5836 0.64884 0.60165 0.0
Zn416 Zn 0.07453 0.42489 0.46231 0.0
O417 O 0.04247 0.41812 0.33443 0.0
C418 C 0.01833 0.51572 0.46065 0.0
Zn419 Zn 0.01501 0.40615 0.52277 0.0
C420 C 0.00408 0.40205 0.33166 0.0
O421 O -0.01253 0.38971 0.40069 0.0
C422 C 0.08226 0.42923 0.65799 0.0
O423 O 0.04873 0.32814 0.53253 0.0
O424 O 0.10499 0.35201 0.46405 0.0
N425 N 0.95248 0.38779 0.56948 0.0
C426 C 0.9289 0.3749 0.63845 0.0
C427 C 0.88443 0.38988 0.53984 0.0
N428 N 0.92397 0.39615 0.50915 0.0
N429 N 0.88579 0.37624 0.62106 0.0
C430 C 0.14187 0.46946 0.35095 0.0
C431 C 0.17636 0.50508 0.4449 0.0
N432 N 0.12551 0.45717 0.42519 0.0
N433 N 0.1455 0.48135 0.48338 0.0
N434 N 0.17613 0.4971 0.36136 0.0
H435 H 0.09482 0.46914 0.25225 0.0
H436 H 0.12042 0.4157 0.26975 0.0
H437 H 0.14863 0.46152 0.21591 0.0
C438 C 0.12585 0.45273 0.26719 0.0
C439 C 0.94778 0.36695 0.72438 0.0
H440 H -0.01686 0.36322 0.72075 0.0
H441 H 0.93318 0.33612 0.75294 0.0
H442 H 0.94016 0.39572 0.76589 0.0
O443 O 0.04178 0.42177 0.65233 0.0
O444 O 0.10302 0.43156 0.58949 0.0
C445 C 0.0869 0.31841 0.50243 0.0
O446 O 0.05474 0.49764 0.45186 0.0
O447 O -0.0094 0.48795 0.49528 0.0
Zn448 Zn 0.62217 0.41445 0.43806 0.0
O449 O 0.65226 0.39883 0.56045 0.0
C450 C 0.67202 0.51282 0.44968 0.0
Zn451 Zn 0.67968 0.41107 0.36974 0.0
C452 C 0.69217 0.38944 0.55652 0.0
O453 O 0.71004 0.39255 0.48543 0.0
C454 C 0.61056 0.42784 0.24334 0.0
O455 O 0.64826 0.32771 0.36056 0.0
O456 O 0.59086 0.34585 0.42948 0.0
N457 N 0.74402 0.41747 0.32553 0.0
C458 C 0.76907 0.41628 0.25581 0.0
C459 C 0.80339 0.45618 0.34605 0.0
N460 N 0.76626 0.44202 0.38071 0.0
N461 N 0.80622 0.44099 0.26714 0.0
C462 C 0.54675 0.43433 0.53666 0.0
C463 C 0.5271 0.4946 0.47147 0.0
N464 N 0.5736 0.44203 0.47469 0.0
N465 N 0.56195 0.47933 0.43386 0.0
N466 N 0.51754 0.46697 0.53566 0.0
H467 H 0.58214 0.39121 0.62161 0.0
H468 H 0.54141 0.36335 0.56202 0.0
H469 H 0.52739 0.39834 0.65075 0.0
C470 C 0.54924 0.39474 0.59652 0.0
C471 C 0.75515 0.39501 0.17455 0.0
H472 H 0.7208 0.38481 0.17704 0.0
H473 H 0.77472 0.36454 0.16342 0.0
H474 H 0.76062 0.41888 0.12112 0.0
O475 O 0.65141 0.42583 0.24483 0.0
O476 O 0.59148 0.42667 0.3137 0.0
C477 C 0.61009 0.31472 0.39049 0.0
O478 O 0.64121 0.48702 0.46963 0.0
O479 O 0.69709 0.4936 0.39692 0.0
Zn480 Zn 0.06612 0.66519 0.44362 0.0
O481 O 0.0337 0.67445 0.5676 0.0
C482 C 0.01614 0.5696 0.44194 0.0
Zn483 Zn 0.00962 0.67786 0.37178 0.0
C484 C -0.00559 0.68639 0.56668 0.0
O485 O 0.97766 0.69307 0.49451 0.0
C486 C 0.08097 0.65757 0.24589 0.0
O487 O 0.04261 0.75808 0.35861 0.0
O488 O 0.09567 0.73713 0.4365 0.0
N489 N 0.94765 0.69434 0.31734 0.0
C490 C 0.9253 0.69309 0.24293 0.0
C491 C 0.88008 0.70752 0.33825 0.0
N492 N 0.9188 0.70411 0.37527 0.0
N493 N 0.88257 0.70205 0.25407 0.0
C494 C 0.14465 0.67372 0.51716 0.0
C495 C 0.17331 0.62364 0.44009 0.0
N496 N 0.11479 0.64426 0.49425 0.0
N497 N 0.13206 0.61298 0.44668 0.0
N498 N 0.18194 0.66167 0.48351 0.0
H499 H 0.15198 0.69466 0.64618 0.0
H500 H 0.10381 0.71429 0.59665 0.0
H501 H 0.15499 0.73997 0.57001 0.0
C502 C 0.13831 0.70778 0.58614 0.0
C503 C 0.94527 0.68103 0.16059 0.0
H504 H 0.97331 0.70358 0.14892 0.0
H505 H 0.92204 0.68445 0.10755 0.0
H506 H 0.95751 0.64608 0.16435 0.0
O507 O 0.04024 0.66331 0.24617 0.0
O508 O 0.09948 0.65593 0.3177 0.0
C509 C 0.08049 0.76867 0.39088 0.0
O510 O 0.0496 0.59187 0.46048 0.0
O511 O -0.01113 0.5939 0.39817 0.0
Zn512 Zn 0.77029 0.17642 0.60372 0.0
O513 O 0.73709 0.19116 0.73003 0.0
C514 C 0.84814 0.18606 0.70862 0.0
Zn515 Zn 0.77776 1.11511 0.67261 0.0
C516 C 0.72026 1.16196 0.77987 0.0
O517 O 0.73248 1.12177 0.77247 0.0
C518 C 0.81989 1.12916 0.48214 0.0
O519 O 0.73312 1.07651 0.61753 0.0
O520 O 0.71657 1.14451 0.57384 0.0
N521 N 0.79652 1.05968 0.73517 0.0
C522 C 0.82876 1.05029 0.68467 0.0
C523 C 0.85522 1.07136 0.8035 0.0
N524 N 0.81229 1.06922 0.81097 0.0
N525 N 0.86606 1.06207 0.72335 0.0
C526 C 0.76375 0.26182 0.60082 0.0
C527 C 0.69805 0.25812 0.6365 0.0
N528 N 0.74437 0.23336 0.54874 0.0
N529 N 0.70266 0.23465 0.56486 0.0
N530 N 0.73661 0.27425 0.66125 0.0
H531 H 0.79278 0.32214 0.55075 0.0
H532 H 0.81995 0.27102 0.52511 0.0
H533 H 0.82458 0.29396 0.62972 0.0
C534 C 0.80267 0.28865 0.5755 0.0
C535 C 0.821 1.02704 0.60064 0.0
H536 H 0.79027 1.03659 0.57181 0.0
H537 H 0.81638 0.99061 0.60635 0.0
H538 H 0.84532 1.03494 0.55336 0.0
O539 O 0.82379 1.11032 0.55483 0.0
O540 O 0.79536 1.16269 0.47994 0.0
C541 C 0.70695 1.10326 0.58532 0.0
O542 O 0.83379 0.20598 0.6427 0.0
O543 O 0.82613 1.15361 0.73881 0.0
Zn544 Zn 0.41354 0.46914 0.65259 0.0
O545 O 0.4583 0.49748 0.58485 0.0
C546 C 0.36035 0.45703 0.48181 0.0
Zn547 Zn 0.40586 0.40189 0.60949 0.0
C548 C 0.47858 0.46304 0.56477 0.0
O549 O 0.46233 0.42408 0.56971 0.0
C550 C 0.33609 0.40864 0.7184 0.0
O551 O 0.44242 0.38158 0.73291 0.0
O552 O 0.46223 0.45122 0.74646 0.0
N553 N 0.41784 0.34531 0.53715 0.0
C554 C 0.39673 0.32035 0.59249 0.0
C555 C 0.46367 0.31145 0.61375 0.0
N556 N 0.45912 0.33564 0.54264 0.0
N557 N 0.42465 0.30264 0.64659 0.0
C558 C 0.3783 0.542 0.69331 0.0
C559 C 0.36562 0.52324 0.82119 0.0
N560 N 0.41371 0.52509 0.72459 0.0
N561 N 0.40744 0.51649 0.806 0.0
N562 N 0.34643 0.53807 0.75005 0.0
H563 H 0.41011 0.56392 0.57945 0.0
H564 H 0.37869 0.60523 0.62767 0.0
H565 H 0.35318 0.55972 0.5721 0.0
C566 C 0.37967 0.56912 0.61373 0.0
C567 C 0.35427 0.29908 0.57162 0.0
H568 H 0.35967 0.26668 0.53889 0.0
H569 H 0.33615 0.32167 0.52875 0.0
H570 H 0.33515 0.29234 0.62914 0.0
O571 O 0.34241 0.38207 0.6576 0.0
O572 O 0.36284 0.44073 0.73004 0.0
C573 C 0.46629 0.41077 0.77045 0.0
O574 O 0.36567 0.48678 0.53946 0.0
O575 O 0.37666 0.41921 0.49684 0.0
Zn576 Zn 0.78062 0.44728 0.73368 0.0
O577 O 0.74235 0.48368 0.80377 0.0
C578 C 0.83378 0.43652 0.89531 0.0
Zn579 Zn 0.78051 0.38325 0.78133 0.0
C580 C 0.71552 0.45386 0.8257 0.0
O581 O 0.72384 0.41206 0.82046 0.0
C582 C 0.85112 0.3814 0.67302 0.0
O583 O 0.74561 0.3635 0.6596 0.0
O584 O 0.72648 0.43303 0.65735 0.0
N585 N 0.76429 0.32598 0.84688 0.0
C586 C 0.73317 0.30952 0.79762 0.0
C587 C 0.78926 0.27178 0.77554 0.0
N588 N 0.79771 0.2991 0.84072 0.0
N589 N 0.74923 0.27917 0.74583 0.0
C590 C 0.82054 0.51138 0.65618 0.0
C591 C 0.82266 0.48279 0.53293 0.0
N592 N 0.78267 0.494 0.64187 0.0
N593 N 0.78262 0.47811 0.56352 0.0
N594 N 0.84766 0.50107 0.59285 0.0
H595 H 0.79388 0.55241 0.75338 0.0
H596 H 0.83285 0.5794 0.68729 0.0
H597 H 0.84906 0.53828 0.76677 0.0
C598 C 0.82465 0.54751 0.71966 0.0
C599 C 0.6864 0.31886 0.80681 0.0
H600 H 0.67372 0.33344 0.74715 0.0
H601 H 0.68051 0.3415 0.86087 0.0
H602 H 0.66892 0.28649 0.81752 0.0
O603 O 0.8443 0.35799 0.73918 0.0
O604 O 0.82409 0.41148 0.65431 0.0
C605 C 0.72048 0.39385 0.63125 0.0
O606 O 0.83531 0.46332 0.83057 0.0
O607 O 0.80939 0.40246 0.89073 0.0
Zn608 Zn 0.41429 1.14242 0.75688 0.0
O609 O 0.44437 1.11402 0.84638 0.0
C610 C 0.3558 1.1559 0.90547 0.0
Zn611 Zn 0.41054 0.20675 0.79353 0.0
C612 C 0.4693 1.14459 0.87129 0.0
O613 O 0.46481 0.18548 0.84924 0.0
C614 C 0.34464 0.19821 0.67223 0.0
O615 O 0.44939 0.2194 0.66665 0.0
O616 O 0.47517 1.15419 0.69217 0.0
N617 N 0.41882 0.26804 0.8567 0.0
C618 C 0.44216 0.27912 0.79024 0.0
C619 C 0.37923 0.30571 0.7724 0.0
N620 N 0.38154 0.28902 0.85132 0.0
N621 N 0.4164 0.2975 0.73258 0.0
C622 C 0.38173 1.07452 0.68329 0.0
C623 C 0.39672 1.0931 0.55599 0.0
N624 N 0.42148 1.08858 0.68346 0.0
N625 N 0.43212 1.09783 0.60388 0.0
N626 N 0.36377 1.08107 0.60586 0.0
H627 H 0.39375 1.03938 0.8003 0.0
H628 H 0.36038 1.01057 0.72596 0.0
H629 H 0.33977 1.05704 0.78474 0.0
C630 C 0.36784 1.0437 0.75237 0.0
C631 C 0.48993 0.28575 0.7941 0.0
H632 H 0.5015 0.28289 0.86038 0.0
H633 H 0.49941 0.31919 0.76859 0.0
H634 H 0.50592 0.26053 0.75435 0.0
O635 O 0.34791 0.22238 0.73748 0.0
O636 O 0.37497 0.17121 0.6571 0.0
C637 C 0.47793 0.19004 0.65033 0.0
O638 O 0.35575 1.12877 0.84228 0.0
O639 O 0.37927 0.19061 0.90111 0.0
Zn640 Zn 0.11955 1.16249 0.46909 0.0
O641 O 0.15324 0.16814 0.34187 0.0
C642 C 0.17029 1.06937 0.46818 0.0
Zn643 Zn 0.17751 0.1774 0.53098 0.0
C644 C 0.19232 0.18214 0.34162 0.0
O645 O 0.20824 0.19354 0.41163 0.0
C646 C 0.10677 1.15727 0.66359 0.0
O647 O 0.14658 0.25758 0.53616 0.0
O648 O 0.09014 0.23503 0.46651 0.0
N649 N 0.24022 0.18968 0.57759 0.0
C650 C 0.26656 0.20733 0.63814 0.0
C651 C 0.30653 0.17293 0.55125 0.0
N652 N 0.26594 0.16887 0.52443 0.0
N653 N 0.30843 0.19672 0.62298 0.0
C654 C 0.04559 1.14054 0.36785 0.0
C655 C 0.02213 1.08047 0.42984 0.0
N656 N 0.07084 1.13199 0.43205 0.0
N657 N 0.05707 1.09465 0.47089 0.0
N658 N 0.01411 1.10953 0.36677 0.0
H659 H 0.03639 0.17539 0.24891 0.0
H660 H 0.08293 0.19385 0.3076 0.0
H661 H 0.03117 0.20971 0.3421 0.0
C662 C 0.04938 0.18202 0.31286 0.0
C663 C 0.25068 0.22995 0.71587 0.0
H664 H 0.25675 0.20782 0.77156 0.0
H665 H 0.21575 0.23671 0.71056 0.0
H666 H 0.26864 0.26202 0.72566 0.0
O667 O 0.14766 1.16311 0.66085 0.0
O668 O 0.08736 1.15523 0.59302 0.0
C669 C 0.10878 0.26826 0.50374 0.0
O670 O 0.13632 1.0907 0.4561 0.0
O671 O 0.19885 1.0941 0.50705 0.0
Zn672 Zn 0.57203 0.91906 0.47224 0.0
O673 O 0.53481 0.91402 0.34799 0.0
C674 C 0.52173 1.0126 0.47619 0.0
Zn675 Zn 0.51244 0.90308 0.53438 0.0
C676 C 0.49533 0.90078 0.34598 0.0
O677 O 0.47858 0.88869 0.41567 0.0
C678 C 0.58549 0.92556 0.66157 0.0
O679 O 0.54589 0.8233 0.5416 0.0
O680 O 0.60089 0.84609 0.46925 0.0
N681 N 0.4528 0.88291 0.5981 0.0
C682 C 0.42191 0.90734 0.63648 0.0
C683 C 0.39919 0.83949 0.6368 0.0
N684 N 0.43824 0.84065 0.59895 0.0
N685 N 0.38744 0.88111 0.66076 0.0
C686 C 0.64323 0.94028 0.35732 0.0
C687 C 0.67818 0.98765 0.43215 0.0
N688 N 0.62227 0.94542 0.42851 0.0
N689 N 0.64309 0.97563 0.47482 0.0
N690 N 0.67863 0.9662 0.35829 0.0
H691 H 0.60016 0.93448 0.25326 0.0
H692 H 0.6122 0.88178 0.30441 0.0
H693 H 0.65108 0.90946 0.23511 0.0
C694 C 0.62616 0.91454 0.28329 0.0
C695 C 0.42807 0.9561 0.65735 0.0
H696 H 0.41858 0.96184 0.72377 0.0
H697 H 0.40787 0.97706 0.61473 0.0
H698 H 0.4622 0.96627 0.65047 0.0
O699 O 0.54487 0.91867 0.65894 0.0
O700 O 0.60528 0.92588 0.59217 0.0
C701 C 0.58348 0.81287 0.50922 0.0
O702 O 0.55666 0.99221 0.46545 0.0
O703 O 0.49196 0.98635 0.50866 0.0
Zn704 Zn 0.17308 0.90935 0.37306 0.0
O705 O 0.14226 0.8286 0.35714 0.0
C706 C 0.10623 0.93008 0.24178 0.0
Zn707 Zn 0.11617 0.92287 0.44153 0.0
C708 C 0.1046 0.81782 0.38965 0.0
O709 O 0.08918 0.84951 0.43292 0.0
C710 C 0.16788 1.01624 0.44695 0.0
O711 O 0.14722 0.91307 0.56693 0.0
O712 O 0.20202 0.89296 0.49238 0.0
N713 N 0.06396 0.94117 0.48851 0.0
C714 C 0.04081 0.90592 0.51393 0.0
C715 C 0.00716 0.93787 0.41394 0.0
N716 N 0.04253 0.96239 0.42848 0.0
N717 N 0.00421 0.90264 0.46878 0.0
C718 C 0.26053 0.88951 0.25961 0.0
C719 C 0.30072 0.92527 0.34642 0.0
N720 N 0.23552 0.90147 0.32598 0.0
N721 N 0.26132 0.92294 0.37925 0.0
N722 N 0.30167 0.90477 0.27119 0.0
H723 H 0.20928 0.85923 0.18698 0.0
H724 H 0.26309 0.84152 0.15931 0.0
H725 H 0.24501 0.89653 0.1285 0.0
C726 C 0.24317 0.87039 0.17908 0.0
C727 C 0.05082 0.88007 0.5943 0.0
H728 H 0.0512 0.90376 0.6482 0.0
H729 H 0.08313 0.86504 0.59112 0.0
H730 H 0.02737 0.85241 0.6064 0.0
O731 O 0.13216 0.99645 0.45983 0.0
O732 O 0.19426 0.99123 0.4047 0.0
C733 C 0.18625 0.9005 0.56414 0.0
O734 O 0.14679 0.92506 0.24583 0.0
O735 O 0.08638 0.93151 0.3114 0.0
Zn736 Zn 0.51638 0.17176 0.38494 0.0
O737 O 0.55038 0.25178 0.36498 0.0
C738 C 0.58356 1.15132 0.25261 0.0
Zn739 Zn 0.57602 1.1624 0.44625 0.0
C740 C 0.58892 0.26398 0.39371 0.0
O741 O 0.60698 0.23325 0.43848 0.0
C742 C 0.52257 1.06619 0.45566 0.0
O743 O 0.54438 0.17503 0.57306 0.0
O744 O 0.48766 0.19401 0.5015 0.0
N745 N 0.62565 1.13266 0.48577 0.0
C746 C 0.63712 1.11572 0.5604 0.0
C747 C 0.67425 1.08357 0.46788 0.0
N748 N 0.64691 1.1104 0.42778 0.0
N749 N 0.67085 1.08815 0.55183 0.0
C750 C 0.42796 0.18094 0.26994 0.0
C751 C 0.38861 1.14581 0.35988 0.0
N752 N 0.45262 0.17445 0.33975 0.0
N753 N 0.42747 1.153 0.39476 0.0
N754 N 0.38776 1.1628 0.28125 0.0
H755 H 0.48061 0.20425 0.19235 0.0
H756 H 0.42953 0.22954 0.16866 0.0
H757 H 0.43894 0.17254 0.13735 0.0
C758 C 0.44554 0.19774 0.1874 0.0
C759 C 0.62001 1.13095 0.64379 0.0
H760 H 0.64022 1.1184 0.69681 0.0
H761 H 0.58714 1.11703 0.65248 0.0
H762 H 0.6188 0.16836 0.64532 0.0
O763 O 0.55789 1.0874 0.46457 0.0
O764 O 0.49403 1.09111 0.41914 0.0
C765 C 0.50582 0.19003 0.57258 0.0
O766 O 0.54272 1.15298 0.25892 0.0
O767 O 0.60498 1.15425 0.32021 0.0
Zn768 Zn 0.77032 0.6764 0.10383 0.0
O769 O 0.73717 0.69113 0.23018 0.0
C770 C 0.8481 0.68599 0.20875 0.0
Zn771 Zn 0.77771 0.61506 0.17258 0.0
C772 C 0.72025 0.66192 0.2799 0.0
O773 O 0.73239 0.62171 0.27236 0.0
C774 C 0.81988 0.62915 0.98219 0.0
O775 O 0.73312 0.57647 0.11741 0.0
O776 O 0.71655 0.64452 0.07399 0.0
N777 N 0.79647 0.55963 0.23516 0.0
C778 C 0.82872 0.55026 0.18469 0.0
C779 C 0.85515 0.57133 0.30353 0.0
N780 N 0.81222 0.56917 0.31098 0.0
N781 N 0.86601 0.56206 0.22339 0.0
C782 C 0.76376 0.76182 0.1011 0.0
C783 C 0.69804 0.75809 0.13662 0.0
N784 N 0.74443 0.73336 1.04896 0.0
N785 N 0.7027 0.73463 0.06498 0.0
N786 N 0.73657 0.77424 0.16148 0.0
H787 H 0.79288 0.82216 1.05134 0.0
H788 H 0.81998 0.77105 1.02544 0.0
H789 H 0.82463 0.79383 0.13018 0.0
C790 C 0.80272 0.78863 0.07593 0.0
C791 C 0.82099 0.52701 0.10065 0.0
H792 H 0.79027 0.53655 0.07178 0.0
H793 H 0.81638 0.49058 0.10638 0.0
H794 H 0.84532 0.53492 1.05339 0.0
O795 O 0.82378 0.6103 0.05487 0.0
O796 O 0.79534 0.66267 0.98001 0.0
C797 C 0.70693 0.60325 0.08536 0.0
O798 O 0.83384 0.7059 0.14275 0.0
O799 O 0.82603 0.65358 0.2389 0.0
Zn800 Zn 0.41354 0.96913 0.15258 0.0
O801 O 0.4583 0.99747 0.08485 0.0
C802 C 0.36036 0.95703 0.98178 0.0
Zn803 Zn 0.40587 0.90188 0.10944 0.0
C804 C 0.47858 0.96303 0.06473 0.0
O805 O 0.46233 0.92408 0.06965 0.0
C806 C 0.33609 0.90861 0.21837 0.0
O807 O 0.44244 0.88157 0.23284 0.0
O808 O 0.46224 0.95121 0.24646 0.0
N809 N 0.41785 0.8453 1.03709 0.0
C810 C 0.39673 0.82033 0.09242 0.0
C811 C 0.46366 0.81144 0.11373 0.0
N812 N 0.45913 0.83563 1.04261 0.0
N813 N 0.42464 0.80264 0.14654 0.0
C814 C 0.3783 1.042 0.19329 0.0
C815 C 0.36561 1.02323 0.32116 0.0
N816 N 0.41371 1.02508 0.22457 0.0
N817 N 0.40744 1.01648 0.30598 0.0
N818 N 0.34642 1.03806 0.25002 0.0
H819 H 0.41011 1.0639 0.07941 0.0
H820 H 0.3787 1.10522 0.12762 0.0
H821 H 0.35318 1.05971 0.07208 0.0
C822 C 0.37967 1.06911 0.1137 0.0
C823 C 0.35427 0.79907 0.07152 0.0
H824 H 0.35968 0.76667 1.03877 0.0
H825 H 0.33615 0.82166 1.02868 0.0
H826 H 0.33515 0.79231 0.12904 0.0
O827 O 0.34242 0.88205 0.15758 0.0
O828 O 0.36283 0.94072 0.23003 0.0
C829 C 0.4663 0.91076 0.27042 0.0
O830 O 0.36567 0.98677 1.03944 0.0
O831 O 0.37666 0.91921 0.9968 0.0
Zn832 Zn 0.78062 0.94733 0.23355 0.0
O833 O 0.74234 0.98383 0.30346 0.0
C834 C 0.83374 0.93659 0.39529 0.0
Zn835 Zn 0.78043 0.88334 0.28138 0.0
C836 C 0.71547 0.95407 0.32545 0.0
O837 O 0.72376 0.91224 0.32039 0.0
C838 C 0.85109 0.88137 0.17314 0.0
O839 O 0.74555 0.86354 0.15968 0.0
O840 O 0.72651 0.9331 0.15718 0.0
N841 N 0.76415 0.82612 0.34699 0.0
C842 C 0.73305 0.8096 0.29774 0.0
C843 C 0.78914 0.77182 0.27592 0.0
N844 N 0.79756 0.79921 0.34099 0.0
N845 N 0.74912 0.7792 0.24607 0.0
C846 C 0.82063 1.01138 0.15599 0.0
C847 C 0.82281 0.98273 1.0328 0.0
N848 N 0.78277 0.99397 0.14164 0.0
N849 N 0.78276 0.97804 0.06333 0.0
N850 N 0.84778 1.00105 0.09272 0.0
H851 H 0.79392 1.0524 0.25316 0.0
H852 H 0.83289 1.07941 0.18711 0.0
H853 H 0.84911 1.0383 0.26661 0.0
C854 C 0.82471 1.04751 0.21947 0.0
C855 C 0.68628 0.81909 0.3066 0.0
H856 H 0.67376 0.83377 0.24691 0.0
H857 H 0.68036 0.84172 0.36067 0.0
H858 H 0.66868 0.78678 0.31709 0.0
O859 O 0.84423 0.858 0.23933 0.0
O860 O 0.82409 0.91146 0.15432 0.0
C861 C 0.72047 0.8939 0.13119 0.0
O862 O 0.83531 0.96335 0.3305 0.0
O863 O 0.80929 0.90256 0.39078 0.0
Zn864 Zn 0.41053 0.70677 0.29358 0.0
O865 O 0.44937 0.71941 0.16668 0.0
C866 C 0.34464 0.69818 0.17227 0.0
Zn867 Zn 0.4143 0.64244 0.25699 0.0
C868 C 0.47793 0.69006 0.15039 0.0
O869 O 0.47519 0.65423 0.1923 0.0
C870 C 0.3558 0.65593 0.40555 0.0
O871 O 0.44438 0.61411 0.34656 0.0
O872 O 0.46481 0.68557 0.34936 0.0
N873 N 0.42157 0.58855 0.18369 0.0
C874 C 0.38181 0.5745 0.1835 0.0
C875 C 0.39683 0.59304 0.0562 0.0
N876 N 0.43222 0.59777 0.10412 0.0
N877 N 0.36388 0.58104 0.10606 0.0
C878 C 0.44212 0.77915 0.29023 0.0
C879 C 0.37919 0.80573 0.27231 0.0
N880 N 0.41877 0.7681 0.35669 0.0
N881 N 0.38148 0.78906 0.35126 0.0
N882 N 0.41637 0.79751 0.23254 0.0
H883 H 0.50145 0.7829 0.36039 0.0
H884 H 0.49939 0.81918 0.26857 0.0
H885 H 0.50587 0.76052 0.25438 0.0
C886 C 0.48989 0.78575 0.2941 0.0
C887 C 0.36792 0.54365 0.25255 0.0
H888 H 0.39384 0.53927 0.30044 0.0
H889 H 0.3604 0.51054 0.22609 0.0
H890 H 0.33989 0.55702 0.28499 0.0
O891 O 0.35577 0.62878 0.34238 0.0
O892 O 0.37926 0.69065 0.40115 0.0
C893 C 0.46929 0.64468 0.37149 0.0
O894 O 0.34791 0.72235 0.23748 0.0
O895 O 0.37497 0.67117 0.15715 0.0
Zn896 Zn 0.17751 0.67739 1.03102 0.0
O897 O 0.14657 0.75758 1.03618 0.0
C898 C 0.10676 0.65727 0.16361 0.0
Zn899 Zn 0.11955 0.66249 0.96911 0.0
C900 C 0.10877 0.76826 1.00378 0.0
O901 O 0.09012 0.73503 0.96655 0.0
C902 C 0.17029 0.56937 0.96819 0.0
O903 O 0.15323 0.66816 0.84188 0.0
O904 O 0.20823 0.69352 0.91167 0.0
N905 N 0.07084 0.63199 0.93207 0.0
C906 C 0.04557 0.64055 0.86791 0.0
C907 C 0.02213 0.58047 0.92986 0.0
N908 N 0.05708 0.59464 0.97089 0.0
N909 N 0.0141 0.60955 0.86682 0.0
C910 C 0.26657 0.70732 0.13816 0.0
C911 C 0.30652 0.67286 1.05131 0.0
N912 N 0.24022 0.68965 0.07761 0.0
N913 N 0.26593 0.66882 1.02449 0.0
N914 N 0.30843 0.69666 0.12299 0.0
H915 H 0.25676 0.70785 0.27157 0.0
H916 H 0.21577 0.73674 0.21054 0.0
H917 H 0.26867 0.76204 0.2256 0.0
C918 C 0.25069 0.72997 0.21585 0.0
C919 C 0.04935 0.68205 0.81293 0.0
H920 H 0.03637 0.67542 0.74898 0.0
H921 H 0.0829 0.69388 0.80769 0.0
H922 H 0.03113 0.70972 0.84218 0.0
O923 O 0.13632 0.5907 0.95608 0.0
O924 O 0.19885 0.59409 1.0071 0.0
C925 C 0.19231 0.68214 0.84165 0.0
O926 O 0.14766 0.66311 0.16088 0.0
O927 O 0.08736 0.65522 0.09303 0.0
Zn928 Zn 0.51241 0.40309 1.03443 0.0
O929 O 0.54586 0.3233 1.04161 0.0
C930 C 0.58547 0.42558 0.16162 0.0
Zn931 Zn 0.57198 0.4191 0.97231 0.0
C932 C 0.58346 0.31289 1.00926 0.0
O933 O 0.60087 0.34613 0.96934 0.0
C934 C 0.52167 0.51263 0.97624 0.0
O935 O 0.53478 0.41404 0.84805 0.0
O936 O 0.47854 0.38871 0.91572 0.0
N937 N 0.62219 0.44546 0.92859 0.0
C938 C 0.64328 0.44002 0.85765 0.0
C939 C 0.67813 0.48767 0.93216 0.0
N940 N 0.64294 0.47582 0.97468 0.0
N941 N 0.67869 0.4659 0.85865 0.0
C942 C 0.4219 0.40733 0.13655 0.0
C943 C 0.39917 0.33949 0.13679 0.0
N944 N 0.45278 0.38291 0.09814 0.0
N945 N 0.43821 0.34065 0.09894 0.0
N946 N 0.38742 0.3811 0.1608 0.0
H947 H 0.41859 0.4618 0.22389 0.0
H948 H 0.40787 0.47706 0.11487 0.0
H949 H 0.4622 0.46624 0.15058 0.0
C950 C 0.42807 0.45609 0.15746 0.0
C951 C 0.62625 0.41418 0.7837 0.0
H952 H 0.60027 0.43408 0.75353 0.0
H953 H 0.61227 0.38145 0.80494 0.0
H954 H 0.65119 0.40903 0.73558 0.0
O955 O 0.5566 0.49223 0.96548 0.0
O956 O 0.49192 0.48637 1.00874 0.0
C957 C 0.4953 0.40081 0.84604 0.0
O958 O 0.54485 0.41866 0.159 0.0
O959 O 0.60525 0.42595 0.0922 0.0
Zn960 Zn 0.11618 0.42287 0.94152 0.0
O961 O 0.14723 0.41309 0.06693 0.0
C962 C 0.16788 0.51624 0.94696 0.0
Zn963 Zn 0.17308 0.40934 0.87309 0.0
C964 C 0.18625 0.4005 0.06415 0.0
O965 O 0.20203 0.39295 0.99241 0.0
C966 C 0.10624 0.43008 0.74179 0.0
O967 O 0.14227 0.32859 0.85716 0.0
O968 O 0.08918 0.34952 0.93291 0.0
N969 N 0.23551 0.40147 0.82601 0.0
C970 C 0.26053 0.38952 0.75963 0.0
C971 C 0.30071 0.42531 0.84642 0.0
N972 N 0.26131 0.42295 0.87928 0.0
N973 N 0.30164 0.40484 0.77114 0.0
C974 C 0.04082 0.40594 1.01391 0.0
C975 C 0.00717 0.43791 0.91395 0.0
N976 N 0.06397 0.44119 0.9885 0.0
N977 N 0.04254 0.46242 0.92848 0.0
N978 N 0.00422 0.40267 0.96878 0.0
H979 H 0.05122 0.40377 0.14818 0.0
H980 H 0.08314 0.36505 0.09109 0.0
H981 H 0.02739 0.35243 0.10638 0.0
C982 C 0.05083 0.38009 0.09428 0.0
C983 C 0.24316 0.37038 0.67911 0.0
H984 H 0.20928 0.35921 0.68703 0.0
H985 H 0.26309 0.34152 0.65937 0.0
H986 H 0.24499 0.39651 0.62852 0.0
O987 O 0.1468 0.42506 0.74585 0.0
O988 O 0.08638 0.43151 0.8114 0.0
C989 C 0.1046 0.31781 0.88966 0.0
O990 O 0.13216 0.49645 0.95982 0.0
O991 O 0.19426 0.49122 0.90473 0.0
Zn992 Zn 0.51635 0.67177 0.88498 0.0
O993 O 0.55037 0.75179 0.865 0.0
C994 C 0.58353 0.65132 0.75263 0.0
Zn995 Zn 0.576 0.66242 0.94628 0.0
C996 C 0.58891 0.76399 0.89371 0.0
O997 O 0.60696 0.73326 0.93849 0.0
C998 C 0.52253 0.56621 0.95572 0.0
O999 O 0.54437 0.67504 0.0731 0.0
O1000 O 0.48765 0.69404 1.00155 0.0
N1001 N 0.62563 0.63269 0.98578 0.0
C1002 C 0.6371 0.61576 0.06041 0.0
C1003 C 0.67423 0.5836 0.96789 0.0
N1004 N 0.64689 0.61043 0.92779 0.0
N1005 N 0.67082 0.58818 1.05184 0.0
C1006 C 0.42794 0.68096 0.77 0.0
C1007 C 0.38859 0.64584 0.85996 0.0
N1008 N 0.4526 0.67448 0.83982 0.0
N1009 N 0.42744 0.65303 0.89484 0.0
N1010 N 0.38774 0.66282 0.78131 0.0
H1011 H 0.48059 0.70427 0.69242 0.0
H1012 H 0.4295 0.72952 0.66867 0.0
H1013 H 0.43895 0.67252 0.63743 0.0
C1014 C 0.44553 0.69775 0.68745 0.0
C1015 C 0.62001 0.631 0.1438 0.0
H1016 H 0.64023 0.61846 0.19682 0.0
H1017 H 0.58713 0.61707 0.15252 0.0
H1018 H 0.61879 0.66841 0.14531 0.0
O1019 O 0.55785 0.58742 0.96461 0.0
O1020 O 0.49399 0.59113 0.91919 0.0
C1021 C 0.50581 0.69004 0.07263 0.0
O1022 O 0.54269 0.65299 0.75894 0.0
O1023 O 0.60494 0.65426 0.82023 0.0
loop_
_geom_bond_atom_site_label_1
_geom_bond_atom_site_label_2
_geom_bond_distance
_geom_bond_site_symmetry_2
_ccdc_geom_bond_type
Zn0 O1 2.055 . S
Zn0 O8 2.046 . S
Zn0 N16 2.036 . S
Zn0 O28 2.053 1_554 S
Zn0 O30 2.066 . S
O1 Zn0 2.055 . S
O1 C4 1.259 1_545 S
C2 O30 1.256 . S
C2 O31 1.244 1_545 S
Zn3 O5 2.046 . S
Zn3 O7 2.055 . S
Zn3 N9 2.036 . S
Zn3 O27 2.066 1_554 S
Zn3 O31 2.053 . S
C4 O1 1.259 1_565 S
C4 O5 1.254 . S
O5 Zn3 2.046 . S
O5 C4 1.254 . S
C6 O27 1.256 . S
C6 O28 1.244 1_565 S
O7 Zn3 2.055 . S
O7 C29 1.259 1_554 S
O8 Zn0 2.046 . S
O8 C29 1.254 1_544 S
N9 Zn3 2.036 . S
N9 C10 1.298 . S
N9 N12 1.398 . S
C10 N9 1.298 . S
C10 N13 1.367 . S
C10 C23 1.481 1_554 S
C11 N12 1.299 . S
C11 N13 1.379 . S
N12 N9 1.398 . S
N12 C11 1.299 . S
N13 C10 1.367 . S
N13 C11 1.379 . S
C14 N16 1.298 . S
C14 N18 1.367 . S
C14 C22 1.481 . S
C15 N17 1.299 . S
C15 N18 1.379 . S
N16 Zn0 2.036 . S
N16 C14 1.298 . S
N16 N17 1.398 . S
N17 C15 1.299 . S
N17 N16 1.398 . S
N18 C14 1.367 . S
N18 C15 1.379 . S
H19 C22 0.980 . S
H20 C22 0.981 . S
H21 C22 0.981 . S
C22 C14 1.481 . S
C22 H19 0.980 . S
C22 H20 0.981 . S
C22 H21 0.981 . S
C23 C10 1.481 1_556 S
C23 H24 0.980 . S
C23 H25 0.981 . S
C23 H26 0.981 . S
H24 C23 0.980 . S
H25 C23 0.981 . S
H26 C23 0.981 . S
O27 Zn3 2.066 1_556 S
O27 C6 1.256 . S
O28 Zn0 2.053 1_556 S
O28 C6 1.244 1_545 S
C29 O7 1.259 1_556 S
C29 O8 1.254 1_566 S
O30 Zn0 2.066 . S
O30 C2 1.256 . S
O31 C2 1.244 1_565 S
O31 Zn3 2.053 . S
Zn32 O33 2.055 . S
Zn32 O40 2.046 . S
Zn32 N48 2.036 . S
Zn32 O60 2.053 . S
Zn32 O62 2.066 1_554 S
O33 Zn32 2.055 . S
O33 C36 1.259 1_554 S
C34 O62 1.256 . S
C34 O63 1.244 . S
Zn35 O37 2.046 . S
Zn35 O39 2.055 . S
Zn35 N41 2.036 . S
Zn35 O59 2.066 . S
Zn35 O63 2.053 1_554 S
C36 O33 1.259 1_556 S
C36 O37 1.254 1_556 S
O37 Zn35 2.046 . S
O37 C36 1.254 1_554 S
C38 O59 1.256 . S
C38 O60 1.244 . S
O39 Zn35 2.055 . S
O39 C61 1.259 . S
O40 Zn32 2.046 . S
O40 C61 1.254 . S
N41 Zn35 2.036 . S
N41 C42 1.298 . S
N41 N44 1.398 . S
C42 N41 1.298 . S
C42 N45 1.367 . S
C42 C55 1.481 . S
C43 N44 1.299 . S
C43 N45 1.379 . S
N44 N41 1.398 . S
N44 C43 1.299 . S
N45 C42 1.367 . S
N45 C43 1.379 . S
C46 N48 1.298 . S
C46 N50 1.367 . S
C46 C54 1.481 1_554 S
C47 N49 1.299 . S
C47 N50 1.379 . S
N48 Zn32 2.036 . S
N48 C46 1.298 . S
N48 N49 1.398 . S
N49 C47 1.299 . S
N49 N48 1.398 . S
N50 C46 1.367 . S
N50 C47 1.379 . S
H51 C54 0.980 . S
H52 C54 0.981 . S
H53 C54 0.981 . S
C54 C46 1.481 1_556 S
C54 H51 0.980 . S
C54 H52 0.981 . S
C54 H53 0.981 . S
C55 C42 1.481 . S
C55 H56 0.980 . S
C55 H57 0.981 . S
C55 H58 0.981 . S
H56 C55 0.980 . S
H57 C55 0.981 . S
H58 C55 0.981 . S
O59 Zn35 2.066 . S
O59 C38 1.256 . S
O60 Zn32 2.053 . S
O60 C38 1.244 . S
C61 O39 1.259 . S
C61 O40 1.254 . S
O62 Zn32 2.066 1_556 S
O62 C34 1.256 . S
O63 C34 1.244 . S
O63 Zn35 2.053 1_556 S
Zn64 O65 2.055 . S
Zn64 O72 2.046 . S
Zn64 N80 2.036 . S
Zn64 O92 2.053 . S
Zn64 O94 2.066 . S
O65 Zn64 2.055 . S
O65 C68 1.259 . S
C66 O94 1.256 . S
C66 O95 1.244 . S
Zn67 O69 2.046 . S
Zn67 O71 2.055 . S
Zn67 N73 2.036 . S
Zn67 O91 2.066 . S
Zn67 O95 2.053 . S
C68 O65 1.259 . S
C68 O69 1.254 . S
O69 Zn67 2.046 . S
O69 C68 1.254 . S
C70 O91 1.256 . S
C70 O92 1.244 . S
O71 Zn67 2.055 . S
O71 C93 1.259 . S
O72 Zn64 2.046 . S
O72 C93 1.254 . S
N73 Zn67 2.036 . S
N73 C74 1.298 . S
N73 N76 1.398 . S
C74 N73 1.298 . S
C74 N77 1.367 . S
C74 C87 1.481 . S
C75 N76 1.299 . S
C75 N77 1.379 . S
N76 N73 1.398 . S
N76 C75 1.299 . S
N77 C74 1.367 . S
N77 C75 1.379 . S
C78 N80 1.298 . S
C78 N82 1.367 . S
C78 C86 1.481 . S
C79 N81 1.299 . S
C79 N82 1.379 . S
N80 Zn64 2.036 . S
N80 C78 1.298 . S
N80 N81 1.398 . S
N81 C79 1.299 . S
N81 N80 1.398 . S
N82 C78 1.367 . S
N82 C79 1.379 . S
H83 C86 0.980 . S
H84 C86 0.981 . S
H85 C86 0.981 . S
C86 C78 1.481 . S
C86 H83 0.980 . S
C86 H84 0.981 . S
C86 H85 0.981 . S
C87 C74 1.481 . S
C87 H88 0.980 . S
C87 H89 0.981 . S
C87 H90 0.981 . S
H88 C87 0.980 . S
H89 C87 0.981 . S
H90 C87 0.981 . S
O91 Zn67 2.066 . S
O91 C70 1.256 . S
O92 Zn64 2.053 . S
O92 C70 1.244 . S
C93 O71 1.259 . S
C93 O72 1.254 . S
O94 Zn64 2.066 . S
O94 C66 1.256 . S
O95 C66 1.244 . S
O95 Zn67 2.053 . S
Zn96 O97 2.055 . S
Zn96 O104 2.046 . S
Zn96 N112 2.036 . S
Zn96 O124 2.053 . S
Zn96 O126 2.066 . S
O97 Zn96 2.055 . S
O97 C100 1.259 1_545 S
C98 O126 1.256 . S
C98 O127 1.244 1_545 S
Zn99 O101 2.046 . S
Zn99 O103 2.055 . S
Zn99 N105 2.036 . S
Zn99 O123 2.066 . S
Zn99 O127 2.053 . S
C100 O97 1.259 1_565 S
C100 O101 1.254 . S
O101 Zn99 2.046 . S
O101 C100 1.254 . S
C102 O123 1.256 . S
C102 O124 1.244 1_565 S
O103 Zn99 2.055 . S
O103 C125 1.259 . S
O104 Zn96 2.046 . S
O104 C125 1.254 1_545 S
N105 Zn99 2.036 . S
N105 C106 1.298 . S
N105 N108 1.398 . S
C106 N105 1.298 . S
C106 N109 1.367 . S
C106 C119 1.481 . S
C107 N108 1.299 . S
C107 N109 1.379 . S
N108 N105 1.398 . S
N108 C107 1.299 . S
N109 C106 1.367 . S
N109 C107 1.379 . S
C110 N112 1.298 . S
C110 N114 1.367 . S
C110 C118 1.481 . S
C111 N113 1.299 . S
C111 N114 1.379 . S
N112 Zn96 2.036 . S
N112 C110 1.298 . S
N112 N113 1.398 . S
N113 C111 1.299 . S
N113 N112 1.398 . S
N114 C110 1.367 . S
N114 C111 1.379 . S
H115 C118 0.980 . S
H116 C118 0.981 . S
H117 C118 0.981 . S
C118 C110 1.481 . S
C118 H115 0.980 . S
C118 H116 0.981 . S
C118 H117 0.981 . S
C119 C106 1.481 . S
C119 H120 0.980 . S
C119 H121 0.981 . S
C119 H122 0.981 . S
H120 C119 0.980 . S
H121 C119 0.981 . S
H122 C119 0.981 . S
O123 Zn99 2.066 . S
O123 C102 1.256 . S
O124 Zn96 2.053 . S
O124 C102 1.244 1_545 S
C125 O103 1.259 . S
C125 O104 1.254 1_565 S
O126 Zn96 2.066 . S
O126 C98 1.256 . S
O127 C98 1.244 1_565 S
O127 Zn99 2.053 . S
Zn128 O129 2.055 . S
Zn128 O136 2.046 . S
Zn128 N144 2.036 1_546 S
Zn128 O156 2.053 1_545 S
Zn128 O158 2.066 1_546 S
O129 Zn128 2.055 . S
O129 C132 1.259 . S
C130 O158 1.255 1_545 S
C130 O159 1.244 . S
Zn131 O133 2.046 . S
Zn131 O135 2.055 . S
Zn131 N137 2.036 . S
Zn131 O155 2.066 1_545 S
Zn131 O159 2.053 1_556 S
C132 O129 1.259 . S
C132 O133 1.254 . S
O133 Zn131 2.046 . S
O133 C132 1.254 . S
C134 O155 1.256 . S
C134 O156 1.244 . S
O135 Zn131 2.055 . S
O135 C157 1.259 . S
O136 Zn128 2.046 . S
O136 C157 1.254 . S
N137 Zn131 2.036 . S
N137 C138 1.298 1_545 S
N137 N140 1.398 . S
C138 N137 1.298 1_565 S
C138 N141 1.367 . S
C138 C151 1.481 . S
C139 N140 1.300 . S
C139 N141 1.378 1_545 S
N140 N137 1.398 . S
N140 C139 1.300 . S
N141 C138 1.367 . S
N141 C139 1.378 1_565 S
C142 N144 1.298 1_545 S
C142 N146 1.355 1_545 S
C142 C150 1.481 . S
C143 N145 1.299 . S
C143 N146 1.400 . S
N144 Zn128 2.036 1_564 S
N144 C142 1.298 1_565 S
N144 N145 1.398 . S
N145 C143 1.299 . S
N145 N144 1.398 . S
N146 C142 1.355 1_565 S
N146 C143 1.400 . S
H147 C150 0.980 . S
H148 C150 0.981 . S
H149 C150 0.981 . S
C150 C142 1.481 . S
C150 H147 0.980 . S
C150 H148 0.981 . S
C150 H149 0.981 . S
C151 C138 1.481 . S
C151 H152 0.980 . S
C151 H153 0.981 . S
C151 H154 0.981 . S
H152 C151 0.980 . S
H153 C151 0.981 . S
H154 C151 0.981 . S
O155 Zn131 2.066 1_565 S
O155 C134 1.256 . S
O156 Zn128 2.053 1_565 S
O156 C134 1.244 . S
C157 O135 1.259 . S
C157 O136 1.254 . S
O158 Zn128 2.066 1_564 S
O158 C130 1.255 1_565 S
O159 C130 1.244 . S
O159 Zn131 2.053 1_554 S
Zn160 O161 2.055 . S
Zn160 O168 2.046 . S
Zn160 N176 2.036 . S
Zn160 O188 2.053 1_556 S
Zn160 O190 2.066 . S
O161 Zn160 2.055 . S
O161 C164 1.259 . S
C162 O190 1.256 . S
C162 O191 1.244 . S
Zn163 O165 2.046 . S
Zn163 O167 2.055 . S
Zn163 N169 2.036 1_456 S
Zn163 O187 2.066 1_556 S
Zn163 O191 2.053 . S
C164 O161 1.259 . S
C164 O165 1.254 . S
O165 Zn163 2.046 . S
O165 C164 1.254 . S
C166 O187 1.256 . S
C166 O188 1.244 . S
O167 Zn163 2.055 . S
O167 C189 1.259 . S
O168 Zn160 2.046 . S
O168 C189 1.254 . S
N169 Zn163 2.036 1_654 S
N169 C170 1.298 . S
N169 N172 1.398 . S
C170 N169 1.298 . S
C170 N173 1.367 . S
C170 C183 1.481 . S
C171 N172 1.299 . S
C171 N173 1.379 . S
N172 N169 1.398 . S
N172 C171 1.299 . S
N173 C170 1.367 . S
N173 C171 1.379 . S
C174 N176 1.298 . S
C174 N178 1.367 . S
C174 C182 1.481 . S
C175 N177 1.299 . S
C175 N178 1.379 . S
N176 Zn160 2.036 . S
N176 C174 1.298 . S
N176 N177 1.398 . S
N177 C175 1.299 . S
N177 N176 1.398 . S
N178 C174 1.367 . S
N178 C175 1.379 . S
H179 C182 0.980 . S
H180 C182 0.981 . S
H181 C182 0.981 . S
C182 C174 1.481 . S
C182 H179 0.980 . S
C182 H180 0.981 . S
C182 H181 0.981 . S
C183 C170 1.481 . S
C183 H184 0.980 . S
C183 H185 0.981 . S
C183 H186 0.981 . S
H184 C183 0.980 . S
H185 C183 0.981 . S
H186 C183 0.981 . S
O187 Zn163 2.066 1_554 S
O187 C166 1.256 . S
O188 Zn160 2.053 1_554 S
O188 C166 1.244 . S
C189 O167 1.259 . S
C189 O168 1.254 . S
O190 Zn160 2.066 . S
O190 C162 1.256 . S
O191 C162 1.244 . S
O191 Zn163 2.053 . S
Zn192 O193 2.055 . S
Zn192 O200 2.046 . S
Zn192 N208 2.036 . S
Zn192 O220 2.053 . S
Zn192 O222 2.066 . S
O193 Zn192 2.055 . S
O193 C196 1.259 . S
C194 O222 1.256 . S
C194 O223 1.244 . S
Zn195 O197 2.046 . S
Zn195 O199 2.055 . S
Zn195 N201 2.036 . S
Zn195 O219 2.066 . S
Zn195 O223 2.053 . S
C196 O193 1.259 . S
C196 O197 1.254 . S
O197 Zn195 2.046 . S
O197 C196 1.254 . S
C198 O219 1.256 . S
C198 O220 1.244 . S
O199 Zn195 2.055 . S
O199 C221 1.259 . S
O200 Zn192 2.046 . S
O200 C221 1.254 . S
N201 Zn195 2.036 . S
N201 C202 1.298 . S
N201 N204 1.398 . S
C202 N201 1.298 . S
C202 N205 1.367 . S
C202 C215 1.481 . S
C203 N204 1.299 . S
C203 N205 1.379 . S
N204 N201 1.398 . S
N204 C203 1.299 . S
N205 C202 1.367 . S
N205 C203 1.379 . S
C206 N208 1.298 1_554 S
C206 N210 1.367 1_554 S
C206 C214 1.481 . S
C207 N209 1.299 . S
C207 N210 1.389 . S
N208 Zn192 2.036 . S
N208 C206 1.298 1_556 S
N208 N209 1.398 . S
N209 C207 1.299 . S
N209 N208 1.398 . S
N210 C206 1.367 1_556 S
N210 C207 1.389 . S
H211 C214 0.980 . S
H212 C214 0.981 . S
H213 C214 0.981 . S
C214 C206 1.481 . S
C214 H211 0.980 . S
C214 H212 0.981 . S
C214 H213 0.981 . S
C215 C202 1.481 . S
C215 H216 0.980 . S
C215 H217 0.981 . S
C215 H218 0.981 . S
H216 C215 0.980 . S
H217 C215 0.981 . S
H218 C215 0.981 . S
O219 Zn195 2.066 . S
O219 C198 1.256 . S
O220 Zn192 2.053 . S
O220 C198 1.244 . S
C221 O199 1.259 . S
C221 O200 1.254 . S
O222 Zn192 2.066 . S
O222 C194 1.256 . S
O223 C194 1.244 . S
O223 Zn195 2.053 . S
Zn224 O225 2.055 . S
Zn224 O232 2.046 . S
Zn224 N240 2.036 . S
Zn224 O252 2.053 . S
Zn224 O254 2.066 1_545 S
O225 Zn224 2.055 . S
O225 C228 1.259 . S
C226 O254 1.256 . S
C226 O255 1.244 . S
Zn227 O229 2.046 . S
Zn227 O231 2.055 . S
Zn227 N233 2.036 1_445 S
Zn227 O251 2.066 1_545 S
Zn227 O255 2.053 1_545 S
C228 O225 1.259 . S
C228 O229 1.254 . S
O229 Zn227 2.046 . S
O229 C228 1.254 . S
C230 O251 1.255 1_545 S
C230 O252 1.244 . S
O231 Zn227 2.055 . S
O231 C253 1.259 . S
O232 Zn224 2.046 . S
O232 C253 1.254 . S
N233 Zn227 2.036 1_665 S
N233 C234 1.298 1_565 S
N233 N236 1.398 . S
C234 N233 1.298 1_545 S
C234 N237 1.355 1_545 S
C234 C247 1.481 . S
C235 N236 1.299 . S
C235 N237 1.400 . S
N236 N233 1.398 . S
N236 C235 1.299 . S
N237 C234 1.355 1_565 S
N237 C235 1.400 . S
C238 N240 1.298 1_564 S
C238 N242 1.367 1_554 S
C238 C246 1.481 . S
C239 N241 1.300 . S
C239 N242 1.389 1_545 S
N240 Zn224 2.036 . S
N240 C238 1.298 1_546 S
N240 N241 1.398 . S
N241 C239 1.300 . S
N241 N240 1.398 . S
N242 C238 1.367 1_556 S
N242 C239 1.389 1_565 S
H243 C246 0.980 . S
H244 C246 0.981 . S
H245 C246 0.981 . S
C246 C238 1.481 . S
C246 H243 0.980 . S
C246 H244 0.981 . S
C246 H245 0.981 . S
C247 C234 1.481 . S
C247 H248 0.980 . S
C247 H249 0.981 . S
C247 H250 0.981 . S
H248 C247 0.980 . S
H249 C247 0.981 . S
H250 C247 0.981 . S
O251 Zn227 2.066 1_565 S
O251 C230 1.255 1_565 S
O252 Zn224 2.053 . S
O252 C230 1.244 . S
C253 O231 1.259 . S
C253 O232 1.254 . S
O254 Zn224 2.066 1_565 S
O254 C226 1.256 . S
O255 C226 1.244 . S
O255 Zn227 2.053 1_565 S
Zn256 O257 2.055 . S
Zn256 O264 2.046 . S
Zn256 N272 2.036 . S
Zn256 O284 2.053 . S
Zn256 O286 2.066 . S
O257 Zn256 2.055 . S
O257 C260 1.259 . S
C258 O286 1.256 . S
C258 O287 1.244 . S
Zn259 O261 2.046 . S
Zn259 O263 2.055 . S
Zn259 N265 2.036 . S
Zn259 O283 2.066 . S
Zn259 O287 2.053 . S
C260 O257 1.259 . S
C260 O261 1.254 . S
O261 Zn259 2.046 . S
O261 C260 1.254 . S
C262 O283 1.256 . S
C262 O284 1.244 . S
O263 Zn259 2.055 . S
O263 C285 1.259 . S
O264 Zn256 2.046 . S
O264 C285 1.254 . S
N265 Zn259 2.036 . S
N265 C266 1.298 . S
N265 N268 1.398 . S
C266 N265 1.298 . S
C266 N269 1.367 . S
C266 C279 1.481 . S
C267 N268 1.299 . S
C267 N269 1.379 . S
N268 N265 1.398 . S
N268 C267 1.299 . S
N269 C266 1.367 . S
N269 C267 1.379 . S
C270 N272 1.298 . S
C270 N274 1.367 . S
C270 C278 1.481 . S
C271 N273 1.299 . S
C271 N274 1.379 . S
N272 Zn256 2.036 . S
N272 C270 1.298 . S
N272 N273 1.398 . S
N273 C271 1.299 . S
N273 N272 1.398 . S
N274 C270 1.367 . S
N274 C271 1.379 . S
H275 C278 0.980 . S
H276 C278 0.981 . S
H277 C278 0.981 . S
C278 C270 1.481 . S
C278 H275 0.980 . S
C278 H276 0.981 . S
C278 H277 0.981 . S
C279 C266 1.481 . S
C279 H280 0.980 . S
C279 H281 0.981 . S
C279 H282 0.981 . S
H280 C279 0.980 . S
H281 C279 0.981 . S
H282 C279 0.981 . S
O283 Zn259 2.066 . S
O283 C262 1.256 . S
O284 Zn256 2.053 . S
O284 C262 1.244 . S
C285 O263 1.259 . S
C285 O264 1.254 . S
O286 Zn256 2.066 . S
O286 C258 1.256 . S
O287 C258 1.244 . S
O287 Zn259 2.053 . S
Zn288 O289 2.055 . S
Zn288 O296 2.046 . S
Zn288 N304 2.036 . S
Zn288 O316 2.053 . S
Zn288 O318 2.066 . S
O289 Zn288 2.055 . S
O289 C292 1.259 . S
C290 O318 1.256 . S
C290 O319 1.244 . S
Zn291 O293 2.046 . S
Zn291 O295 2.055 . S
Zn291 N297 2.036 . S
Zn291 O315 2.066 . S
Zn291 O319 2.053 . S
C292 O289 1.259 . S
C292 O293 1.254 . S
O293 Zn291 2.046 . S
O293 C292 1.254 . S
C294 O315 1.256 . S
C294 O316 1.244 . S
O295 Zn291 2.055 . S
O295 C317 1.259 . S
O296 Zn288 2.046 . S
O296 C317 1.254 . S
N297 Zn291 2.036 . S
N297 C298 1.298 . S
N297 N300 1.398 . S
C298 N297 1.298 . S
C298 N301 1.367 . S
C298 C311 1.481 . S
C299 N300 1.299 . S
C299 N301 1.379 . S
N300 N297 1.398 . S
N300 C299 1.299 . S
N301 C298 1.367 . S
N301 C299 1.379 . S
C302 N304 1.298 . S
C302 N306 1.367 . S
C302 C310 1.481 . S
C303 N305 1.299 . S
C303 N306 1.379 . S
N304 Zn288 2.036 . S
N304 C302 1.298 . S
N304 N305 1.398 . S
N305 C303 1.299 . S
N305 N304 1.398 . S
N306 C302 1.367 . S
N306 C303 1.379 . S
H307 C310 0.980 . S
H308 C310 0.981 . S
H309 C310 0.981 . S
C310 C302 1.481 . S
C310 H307 0.980 . S
C310 H308 0.981 . S
C310 H309 0.981 . S
C311 C298 1.481 . S
C311 H312 0.980 . S
C311 H313 0.981 . S
C311 H314 0.981 . S
H312 C311 0.980 . S
H313 C311 0.981 . S
H314 C311 0.981 . S
O315 Zn291 2.066 . S
O315 C294 1.256 . S
O316 Zn288 2.053 . S
O316 C294 1.244 . S
C317 O295 1.259 . S
C317 O296 1.254 . S
O318 Zn288 2.066 . S
O318 C290 1.256 . S
O319 C290 1.244 . S
O319 Zn291 2.053 . S
Zn320 O321 2.055 . S
Zn320 O328 2.046 . S
Zn320 N336 2.036 . S
Zn320 O348 2.053 . S
Zn320 O350 2.066 . S
O321 Zn320 2.055 . S
O321 C324 1.259 . S
C322 O350 1.256 . S
C322 O351 1.244 . S
Zn323 O325 2.046 . S
Zn323 O327 2.055 . S
Zn323 N329 2.036 . S
Zn323 O347 2.066 . S
Zn323 O351 2.053 . S
C324 O321 1.259 . S
C324 O325 1.254 . S
O325 Zn323 2.046 . S
O325 C324 1.254 . S
C326 O347 1.256 . S
C326 O348 1.244 . S
O327 Zn323 2.055 . S
O327 C349 1.259 . S
O328 Zn320 2.046 . S
O328 C349 1.254 . S
N329 Zn323 2.036 . S
N329 C330 1.298 . S
N329 N332 1.398 . S
C330 N329 1.298 . S
C330 N333 1.367 . S
C330 C343 1.481 . S
C331 N332 1.299 . S
C331 N333 1.379 . S
N332 N329 1.398 . S
N332 C331 1.299 . S
N333 C330 1.367 . S
N333 C331 1.379 . S
C334 N336 1.298 . S
C334 N338 1.367 . S
C334 C342 1.481 . S
C335 N337 1.299 . S
C335 N338 1.379 . S
N336 Zn320 2.036 . S
N336 C334 1.298 . S
N336 N337 1.398 . S
N337 C335 1.299 . S
N337 N336 1.398 . S
N338 C334 1.367 . S
N338 C335 1.379 . S
H339 C342 0.980 . S
H340 C342 0.981 . S
H341 C342 0.981 . S
C342 C334 1.481 . S
C342 H339 0.980 . S
C342 H340 0.981 . S
C342 H341 0.981 . S
C343 C330 1.481 . S
C343 H344 0.980 . S
C343 H345 0.981 . S
C343 H346 0.981 . S
H344 C343 0.980 . S
H345 C343 0.981 . S
H346 C343 0.981 . S
O347 Zn323 2.066 . S
O347 C326 1.256 . S
O348 Zn320 2.053 . S
O348 C326 1.244 . S
C349 O327 1.259 . S
C349 O328 1.254 . S
O350 Zn320 2.066 . S
O350 C322 1.256 . S
O351 C322 1.244 . S
O351 Zn323 2.053 . S
Zn352 O353 2.055 . S
Zn352 O360 2.046 . S
Zn352 N368 2.036 . S
Zn352 O380 2.053 . S
Zn352 O382 2.066 . S
O353 Zn352 2.055 . S
O353 C356 1.259 . S
C354 O382 1.256 . S
C354 O383 1.244 . S
Zn355 O357 2.046 . S
Zn355 O359 2.055 . S
Zn355 N361 2.036 . S
Zn355 O379 2.066 . S
Zn355 O383 2.053 . S
C356 O353 1.259 . S
C356 O357 1.254 . S
O357 Zn355 2.046 . S
O357 C356 1.254 . S
C358 O379 1.256 . S
C358 O380 1.244 . S
O359 Zn355 2.055 . S
O359 C381 1.259 . S
O360 Zn352 2.046 . S
O360 C381 1.254 . S
N361 Zn355 2.036 . S
N361 C362 1.298 . S
N361 N364 1.398 . S
C362 N361 1.298 . S
C362 N365 1.367 . S
C362 C375 1.481 . S
C363 N364 1.299 . S
C363 N365 1.379 . S
N364 N361 1.398 . S
N364 C363 1.299 . S
N365 C362 1.367 . S
N365 C363 1.379 . S
C366 N368 1.298 . S
C366 N370 1.367 . S
C366 C374 1.481 . S
C367 N369 1.299 . S
C367 N370 1.379 . S
N368 Zn352 2.036 . S
N368 C366 1.298 . S
N368 N369 1.398 . S
N369 C367 1.299 . S
N369 N368 1.398 . S
N370 C366 1.367 . S
N370 C367 1.379 . S
H371 C374 0.980 . S
H372 C374 0.981 . S
H373 C374 0.981 . S
C374 C366 1.481 . S
C374 H371 0.980 . S
C374 H372 0.981 . S
C374 H373 0.981 . S
C375 C362 1.481 . S
C375 H376 0.980 . S
C375 H377 0.981 . S
C375 H378 0.981 . S
H376 C375 0.980 . S
H377 C375 0.981 . S
H378 C375 0.981 . S
O379 Zn355 2.066 . S
O379 C358 1.256 . S
O380 Zn352 2.053 . S
O380 C358 1.244 . S
C381 O359 1.259 . S
C381 O360 1.254 . S
O382 Zn352 2.066 . S
O382 C354 1.256 . S
O383 C354 1.244 . S
O383 Zn355 2.053 . S
Zn384 O385 2.055 . S
Zn384 O392 2.046 . S
Zn384 N400 2.036 . S
Zn384 O412 2.053 . S
Zn384 O414 2.066 . S
O385 Zn384 2.055 . S
O385 C388 1.259 . S
C386 O414 1.256 . S
C386 O415 1.244 . S
Zn387 O389 2.046 . S
Zn387 O391 2.055 . S
Zn387 N393 2.036 . S
Zn387 O411 2.066 . S
Zn387 O415 2.053 . S
C388 O385 1.259 . S
C388 O389 1.254 . S
O389 Zn387 2.046 . S
O389 C388 1.254 . S
C390 O411 1.256 . S
C390 O412 1.244 . S
O391 Zn387 2.055 . S
O391 C413 1.259 . S
O392 Zn384 2.046 . S
O392 C413 1.254 . S
N393 Zn387 2.036 . S
N393 C394 1.298 . S
N393 N396 1.398 . S
C394 N393 1.298 . S
C394 N397 1.367 . S
C394 C407 1.481 . S
C395 N396 1.299 . S
C395 N397 1.379 . S
N396 N393 1.398 . S
N396 C395 1.299 . S
N397 C394 1.367 . S
N397 C395 1.379 . S
C398 N400 1.298 . S
C398 N402 1.367 . S
C398 C406 1.481 . S
C399 N401 1.299 . S
C399 N402 1.379 . S
N400 Zn384 2.036 . S
N400 C398 1.298 . S
N400 N401 1.398 . S
N401 C399 1.299 . S
N401 N400 1.398 . S
N402 C398 1.367 . S
N402 C399 1.379 . S
H403 C406 0.980 . S
H404 C406 0.981 . S
H405 C406 0.981 . S
C406 C398 1.481 . S
C406 H403 0.980 . S
C406 H404 0.981 . S
C406 H405 0.981 . S
C407 C394 1.481 . S
C407 H408 0.980 . S
C407 H409 0.981 . S
C407 H410 0.981 . S
H408 C407 0.980 . S
H409 C407 0.981 . S
H410 C407 0.981 . S
O411 Zn387 2.066 . S
O411 C390 1.256 . S
O412 Zn384 2.053 . S
O412 C390 1.244 . S
C413 O391 1.259 . S
C413 O392 1.254 . S
O414 Zn384 2.066 . S
O414 C386 1.256 . S
O415 C386 1.244 . S
O415 Zn387 2.053 . S
Zn416 O417 2.055 . S
Zn416 O424 2.046 . S
Zn416 N432 2.036 . S
Zn416 O444 2.053 . S
Zn416 O446 2.066 . S
O417 Zn416 2.055 . S
O417 C420 1.259 . S
C418 O446 1.256 . S
C418 O447 1.244 . S
Zn419 O421 2.046 . S
Zn419 O423 2.055 . S
Zn419 N425 2.036 1_455 S
Zn419 O443 2.066 . S
Zn419 O447 2.053 . S
C420 O417 1.259 . S
C420 O421 1.254 . S
O421 Zn419 2.046 . S
O421 C420 1.254 . S
C422 O443 1.256 . S
C422 O444 1.244 . S
O423 Zn419 2.055 . S
O423 C445 1.259 . S
O424 Zn416 2.046 . S
O424 C445 1.254 . S
N425 Zn419 2.036 1_655 S
N425 C426 1.298 . S
N425 N428 1.398 . S
C426 N425 1.298 . S
C426 N429 1.367 . S
C426 C439 1.481 . S
C427 N428 1.299 . S
C427 N429 1.379 . S
N428 N425 1.398 . S
N428 C427 1.299 . S
N429 C426 1.367 . S
N429 C427 1.379 . S
C430 N432 1.298 . S
C430 N434 1.367 . S
C430 C438 1.481 . S
C431 N433 1.299 . S
C431 N434 1.379 . S
N432 Zn416 2.036 . S
N432 C430 1.298 . S
N432 N433 1.398 . S
N433 C431 1.299 . S
N433 N432 1.398 . S
N434 C430 1.367 . S
N434 C431 1.379 . S
H435 C438 0.980 . S
H436 C438 0.981 . S
H437 C438 0.981 . S
C438 C430 1.481 . S
C438 H435 0.980 . S
C438 H436 0.981 . S
C438 H437 0.981 . S
C439 C426 1.481 . S
C439 H440 0.980 . S
C439 H441 0.981 . S
C439 H442 0.981 . S
H440 C439 0.980 . S
H441 C439 0.981 . S
H442 C439 0.981 . S
O443 Zn419 2.066 . S
O443 C422 1.256 . S
O444 Zn416 2.053 . S
O444 C422 1.244 . S
C445 O423 1.259 . S
C445 O424 1.254 . S
O446 Zn416 2.066 . S
O446 C418 1.256 . S
O447 C418 1.244 . S
O447 Zn419 2.053 . S
Zn448 O449 2.055 . S
Zn448 O456 2.046 . S
Zn448 N464 2.036 . S
Zn448 O476 2.053 . S
Zn448 O478 2.066 . S
O449 Zn448 2.055 . S
O449 C452 1.259 . S
C450 O478 1.256 . S
C450 O479 1.244 . S
Zn451 O453 2.046 . S
Zn451 O455 2.055 . S
Zn451 N457 2.036 . S
Zn451 O475 2.066 . S
Zn451 O479 2.053 . S
C452 O449 1.259 . S
C452 O453 1.254 . S
O453 Zn451 2.046 . S
O453 C452 1.254 . S
C454 O475 1.256 . S
C454 O476 1.244 . S
O455 Zn451 2.055 . S
O455 C477 1.259 . S
O456 Zn448 2.046 . S
O456 C477 1.254 . S
N457 Zn451 2.036 . S
N457 C458 1.298 . S
N457 N460 1.398 . S
C458 N457 1.298 . S
C458 N461 1.367 . S
C458 C471 1.481 . S
C459 N460 1.299 . S
C459 N461 1.379 . S
N460 N457 1.398 . S
N460 C459 1.299 . S
N461 C458 1.367 . S
N461 C459 1.379 . S
C462 N464 1.298 . S
C462 N466 1.367 . S
C462 C470 1.481 . S
C463 N465 1.299 . S
C463 N466 1.379 . S
N464 Zn448 2.036 . S
N464 C462 1.298 . S
N464 N465 1.398 . S
N465 C463 1.299 . S
N465 N464 1.398 . S
N466 C462 1.367 . S
N466 C463 1.379 . S
H467 C470 0.980 . S
H468 C470 0.981 . S
H469 C470 0.981 . S
C470 C462 1.481 . S
C470 H467 0.980 . S
C470 H468 0.981 . S
C470 H469 0.981 . S
C471 C458 1.481 . S
C471 H472 0.980 . S
C471 H473 0.981 . S
C471 H474 0.981 . S
H472 C471 0.980 . S
H473 C471 0.981 . S
H474 C471 0.981 . S
O475 Zn451 2.066 . S
O475 C454 1.256 . S
O476 Zn448 2.053 . S
O476 C454 1.244 . S
C477 O455 1.259 . S
C477 O456 1.254 . S
O478 Zn448 2.066 . S
O478 C450 1.256 . S
O479 C450 1.244 . S
O479 Zn451 2.053 . S
Zn480 O481 2.055 . S
Zn480 O488 2.046 . S
Zn480 N496 2.036 . S
Zn480 O508 2.053 . S
Zn480 O510 2.066 . S
O481 Zn480 2.055 . S
O481 C484 1.259 . S
C482 O510 1.256 . S
C482 O511 1.244 . S
Zn483 O485 2.046 . S
Zn483 O487 2.055 . S
Zn483 N489 2.036 1_455 S
Zn483 O507 2.066 . S
Zn483 O511 2.053 . S
C484 O481 1.259 . S
C484 O485 1.254 . S
O485 Zn483 2.046 . S
O485 C484 1.254 . S
C486 O507 1.256 . S
C486 O508 1.244 . S
O487 Zn483 2.055 . S
O487 C509 1.259 . S
O488 Zn480 2.046 . S
O488 C509 1.254 . S
N489 Zn483 2.036 1_655 S
N489 C490 1.298 . S
N489 N492 1.398 . S
C490 N489 1.298 . S
C490 N493 1.367 . S
C490 C503 1.481 . S
C491 N492 1.299 . S
C491 N493 1.379 . S
N492 N489 1.398 . S
N492 C491 1.299 . S
N493 C490 1.367 . S
N493 C491 1.379 . S
C494 N496 1.298 . S
C494 N498 1.367 . S
C494 C502 1.481 . S
C495 N497 1.299 . S
C495 N498 1.379 . S
N496 Zn480 2.036 . S
N496 C494 1.298 . S
N496 N497 1.398 . S
N497 C495 1.299 . S
N497 N496 1.398 . S
N498 C494 1.367 . S
N498 C495 1.379 . S
H499 C502 0.980 . S
H500 C502 0.981 . S
H501 C502 0.981 . S
C502 C494 1.481 . S
C502 H499 0.980 . S
C502 H500 0.981 . S
C502 H501 0.981 . S
C503 C490 1.481 . S
C503 H504 0.980 . S
C503 H505 0.981 . S
C503 H506 0.981 . S
H504 C503 0.980 . S
H505 C503 0.981 . S
H506 C503 0.981 . S
O507 Zn483 2.066 . S
O507 C486 1.256 . S
O508 Zn480 2.053 . S
O508 C486 1.244 . S
C509 O487 1.259 . S
C509 O488 1.254 . S
O510 Zn480 2.066 . S
O510 C482 1.256 . S
O511 C482 1.244 . S
O511 Zn483 2.053 . S
Zn512 O513 2.055 . S
Zn512 O520 2.046 . S
Zn512 N528 2.036 . S
Zn512 O540 2.053 . S
Zn512 O542 2.066 . S
O513 Zn512 2.055 . S
O513 C516 1.259 1_545 S
C514 O542 1.256 . S
C514 O543 1.244 1_545 S
Zn515 O517 2.046 . S
Zn515 O519 2.055 . S
Zn515 N521 2.036 . S
Zn515 O539 2.066 . S
Zn515 O543 2.053 . S
C516 O513 1.259 1_565 S
C516 O517 1.254 . S
O517 Zn515 2.046 . S
O517 C516 1.254 . S
C518 O539 1.256 . S
C518 O540 1.244 1_565 S
O519 Zn515 2.055 . S
O519 C541 1.259 . S
O520 Zn512 2.046 . S
O520 C541 1.254 1_545 S
N521 Zn515 2.036 . S
N521 C522 1.298 . S
N521 N524 1.398 . S
C522 N521 1.298 . S
C522 N525 1.367 . S
C522 C535 1.481 . S
C523 N524 1.299 . S
C523 N525 1.379 . S
N524 N521 1.398 . S
N524 C523 1.299 . S
N525 C522 1.367 . S
N525 C523 1.379 . S
C526 N528 1.298 . S
C526 N530 1.367 . S
C526 C534 1.481 . S
C527 N529 1.299 . S
C527 N530 1.379 . S
N528 Zn512 2.036 . S
N528 C526 1.298 . S
N528 N529 1.398 . S
N529 C527 1.299 . S
N529 N528 1.398 . S
N530 C526 1.367 . S
N530 C527 1.379 . S
H531 C534 0.980 . S
H532 C534 0.981 . S
H533 C534 0.981 . S
C534 C526 1.481 . S
C534 H531 0.980 . S
C534 H532 0.981 . S
C534 H533 0.981 . S
C535 C522 1.481 . S
C535 H536 0.980 . S
C535 H537 0.981 . S
C535 H538 0.981 . S
H536 C535 0.980 . S
H537 C535 0.981 . S
H538 C535 0.981 . S
O539 Zn515 2.066 . S
O539 C518 1.256 . S
O540 Zn512 2.053 . S
O540 C518 1.244 1_545 S
C541 O519 1.259 . S
C541 O520 1.254 1_565 S
O542 Zn512 2.066 . S
O542 C514 1.256 . S
O543 C514 1.244 1_565 S
O543 Zn515 2.053 . S
Zn544 O545 2.055 . S
Zn544 O552 2.046 . S
Zn544 N560 2.036 . S
Zn544 O572 2.053 . S
Zn544 O574 2.066 . S
O545 Zn544 2.055 . S
O545 C548 1.259 . S
C546 O574 1.256 . S
C546 O575 1.244 . S
Zn547 O549 2.046 . S
Zn547 O551 2.055 . S
Zn547 N553 2.036 . S
Zn547 O571 2.066 . S
Zn547 O575 2.053 . S
C548 O545 1.259 . S
C548 O549 1.254 . S
O549 Zn547 2.046 . S
O549 C548 1.254 . S
C550 O571 1.256 . S
C550 O572 1.244 . S
O551 Zn547 2.055 . S
O551 C573 1.259 . S
O552 Zn544 2.046 . S
O552 C573 1.254 . S
N553 Zn547 2.036 . S
N553 C554 1.298 . S
N553 N556 1.398 . S
C554 N553 1.298 . S
C554 N557 1.367 . S
C554 C567 1.481 . S
C555 N556 1.299 . S
C555 N557 1.379 . S
N556 N553 1.398 . S
N556 C555 1.299 . S
N557 C554 1.367 . S
N557 C555 1.379 . S
C558 N560 1.298 . S
C558 N562 1.367 . S
C558 C566 1.481 . S
C559 N561 1.299 . S
C559 N562 1.379 . S
N560 Zn544 2.036 . S
N560 C558 1.298 . S
N560 N561 1.398 . S
N561 C559 1.299 . S
N561 N560 1.398 . S
N562 C558 1.367 . S
N562 C559 1.379 . S
H563 C566 0.980 . S
H564 C566 0.981 . S
H565 C566 0.981 . S
C566 C558 1.481 . S
C566 H563 0.980 . S
C566 H564 0.981 . S
C566 H565 0.981 . S
C567 C554 1.481 . S
C567 H568 0.980 . S
C567 H569 0.981 . S
C567 H570 0.981 . S
H568 C567 0.980 . S
H569 C567 0.981 . S
H570 C567 0.981 . S
O571 Zn547 2.066 . S
O571 C550 1.256 . S
O572 Zn544 2.053 . S
O572 C550 1.244 . S
C573 O551 1.259 . S
C573 O552 1.254 . S
O574 Zn544 2.066 . S
O574 C546 1.256 . S
O575 C546 1.244 . S
O575 Zn547 2.053 . S
Zn576 O577 2.055 . S
Zn576 O584 2.046 . S
Zn576 N592 2.036 . S
Zn576 O604 2.053 . S
Zn576 O606 2.066 . S
O577 Zn576 2.055 . S
O577 C580 1.259 . S
C578 O606 1.256 . S
C578 O607 1.244 . S
Zn579 O581 2.046 . S
Zn579 O583 2.055 . S
Zn579 N585 2.036 . S
Zn579 O603 2.066 . S
Zn579 O607 2.053 . S
C580 O577 1.259 . S
C580 O581 1.254 . S
O581 Zn579 2.046 . S
O581 C580 1.254 . S
C582 O603 1.256 . S
C582 O604 1.244 . S
O583 Zn579 2.055 . S
O583 C605 1.259 . S
O584 Zn576 2.046 . S
O584 C605 1.254 . S
N585 Zn579 2.036 . S
N585 C586 1.298 . S
N585 N588 1.398 . S
C586 N585 1.298 . S
C586 N589 1.367 . S
C586 C599 1.481 . S
C587 N588 1.299 . S
C587 N589 1.379 . S
N588 N585 1.398 . S
N588 C587 1.299 . S
N589 C586 1.367 . S
N589 C587 1.379 . S
C590 N592 1.298 . S
C590 N594 1.367 . S
C590 C598 1.481 . S
C591 N593 1.299 . S
C591 N594 1.379 . S
N592 Zn576 2.036 . S
N592 C590 1.298 . S
N592 N593 1.398 . S
N593 C591 1.299 . S
N593 N592 1.398 . S
N594 C590 1.367 . S
N594 C591 1.379 . S
H595 C598 0.980 . S
H596 C598 0.981 . S
H597 C598 0.981 . S
C598 C590 1.481 . S
C598 H595 0.980 . S
C598 H596 0.981 . S
C598 H597 0.981 . S
C599 C586 1.481 . S
C599 H600 0.980 . S
C599 H601 0.981 . S
C599 H602 0.981 . S
H600 C599 0.980 . S
H601 C599 0.981 . S
H602 C599 0.981 . S
O603 Zn579 2.066 . S
O603 C582 1.256 . S
O604 Zn576 2.053 . S
O604 C582 1.244 . S
C605 O583 1.259 . S
C605 O584 1.254 . S
O606 Zn576 2.066 . S
O606 C578 1.256 . S
O607 C578 1.244 . S
O607 Zn579 2.053 . S
Zn608 O609 2.055 . S
Zn608 O616 2.046 . S
Zn608 N624 2.036 . S
Zn608 O636 2.053 . S
Zn608 O638 2.066 . S
O609 Zn608 2.055 . S
O609 C612 1.259 . S
C610 O638 1.256 . S
C610 O639 1.244 1_565 S
Zn611 O613 2.046 . S
Zn611 O615 2.055 . S
Zn611 N617 2.036 . S
Zn611 O635 2.066 . S
Zn611 O639 2.053 . S
C612 O609 1.259 . S
C612 O613 1.254 1_565 S
O613 Zn611 2.046 . S
O613 C612 1.254 1_545 S
C614 O635 1.256 . S
C614 O636 1.244 1_545 S
O615 Zn611 2.055 . S
O615 C637 1.259 1_545 S
O616 Zn608 2.046 . S
O616 C637 1.254 . S
N617 Zn611 2.036 . S
N617 C618 1.298 . S
N617 N620 1.398 . S
C618 N617 1.298 . S
C618 N621 1.367 . S
C618 C631 1.481 . S
C619 N620 1.299 . S
C619 N621 1.379 . S
N620 N617 1.398 . S
N620 C619 1.299 . S
N621 C618 1.367 . S
N621 C619 1.379 . S
C622 N624 1.298 . S
C622 N626 1.367 . S
C622 C630 1.481 . S
C623 N625 1.299 . S
C623 N626 1.379 . S
N624 Zn608 2.036 . S
N624 C622 1.298 . S
N624 N625 1.398 . S
N625 C623 1.299 . S
N625 N624 1.398 . S
N626 C622 1.367 . S
N626 C623 1.379 . S
H627 C630 0.980 . S
H628 C630 0.981 . S
H629 C630 0.981 . S
C630 C622 1.481 . S
C630 H627 0.980 . S
C630 H628 0.981 . S
C630 H629 0.981 . S
C631 C618 1.481 . S
C631 H632 0.980 . S
C631 H633 0.981 . S
C631 H634 0.981 . S
H632 C631 0.980 . S
H633 C631 0.981 . S
H634 C631 0.981 . S
O635 Zn611 2.066 . S
O635 C614 1.256 . S
O636 Zn608 2.053 . S
O636 C614 1.244 1_565 S
C637 O615 1.259 1_565 S
C637 O616 1.254 . S
O638 Zn608 2.066 . S
O638 C610 1.256 . S
O639 C610 1.244 1_545 S
O639 Zn611 2.053 . S
Zn640 O641 2.055 . S
Zn640 O648 2.046 . S
Zn640 N656 2.036 . S
Zn640 O668 2.053 . S
Zn640 O670 2.066 1_545 S
O641 Zn640 2.055 . S
O641 C644 1.259 . S
C642 O670 1.256 . S
C642 O671 1.244 . S
Zn643 O645 2.046 . S
Zn643 O647 2.055 . S
Zn643 N649 2.036 1_545 S
Zn643 O667 2.066 1_545 S
Zn643 O671 2.053 1_545 S
C644 O641 1.259 . S
C644 O645 1.254 . S
O645 Zn643 2.046 . S
O645 C644 1.254 . S
C646 O667 1.255 1_545 S
C646 O668 1.244 . S
O647 Zn643 2.055 . S
O647 C669 1.259 . S
O648 Zn640 2.046 . S
O648 C669 1.254 . S
N649 Zn643 2.036 1_565 S
N649 C650 1.298 1_565 S
N649 N652 1.398 . S
C650 N649 1.298 1_545 S
C650 N653 1.355 1_545 S
C650 C663 1.481 . S
C651 N652 1.299 . S
C651 N653 1.400 . S
N652 N649 1.398 . S
N652 C651 1.299 . S
N653 C650 1.355 1_565 S
N653 C651 1.400 . S
C654 N656 1.298 1_565 S
C654 N658 1.367 1_455 S
C654 C662 1.481 . S
C655 N657 1.300 1_655 S
C655 N658 1.378 1_545 S
N656 Zn640 2.036 . S
N656 C654 1.298 1_545 S
N656 N657 1.398 . S
N657 C655 1.300 1_455 S
N657 N656 1.398 . S
N658 C654 1.367 1_655 S
N658 C655 1.378 1_565 S
H659 C662 0.980 . S
H660 C662 0.981 . S
H661 C662 0.981 . S
C662 C654 1.481 . S
C662 H659 0.980 . S
C662 H660 0.981 . S
C662 H661 0.981 . S
C663 C650 1.481 . S
C663 H664 0.980 . S
C663 H665 0.981 . S
C663 H666 0.981 . S
H664 C663 0.980 . S
H665 C663 0.981 . S
H666 C663 0.981 . S
O667 Zn643 2.066 1_565 S
O667 C646 1.255 1_565 S
O668 Zn640 2.053 . S
O668 C646 1.244 . S
C669 O647 1.259 . S
C669 O648 1.254 . S
O670 Zn640 2.066 1_565 S
O670 C642 1.256 . S
O671 C642 1.244 . S
O671 Zn643 2.053 1_565 S
Zn672 O673 2.055 . S
Zn672 O680 2.046 . S
Zn672 N688 2.036 . S
Zn672 O700 2.053 . S
Zn672 O702 2.066 . S
O673 Zn672 2.055 . S
O673 C676 1.259 . S
C674 O702 1.256 . S
C674 O703 1.244 . S
Zn675 O677 2.046 . S
Zn675 O679 2.055 . S
Zn675 N681 2.036 . S
Zn675 O699 2.066 . S
Zn675 O703 2.053 . S
C676 O673 1.259 . S
C676 O677 1.254 . S
O677 Zn675 2.046 . S
O677 C676 1.254 . S
C678 O699 1.256 . S
C678 O700 1.244 . S
O679 Zn675 2.055 . S
O679 C701 1.259 . S
O680 Zn672 2.046 . S
O680 C701 1.254 . S
N681 Zn675 2.036 . S
N681 C682 1.298 . S
N681 N684 1.398 . S
C682 N681 1.298 . S
C682 N685 1.367 . S
C682 C695 1.481 . S
C683 N684 1.299 . S
C683 N685 1.379 . S
N684 N681 1.398 . S
N684 C683 1.299 . S
N685 C682 1.367 . S
N685 C683 1.379 . S
C686 N688 1.298 . S
C686 N690 1.367 . S
C686 C694 1.481 . S
C687 N689 1.299 . S
C687 N690 1.379 . S
N688 Zn672 2.036 . S
N688 C686 1.298 . S
N688 N689 1.398 . S
N689 C687 1.299 . S
N689 N688 1.398 . S
N690 C686 1.367 . S
N690 C687 1.379 . S
H691 C694 0.980 . S
H692 C694 0.981 . S
H693 C694 0.981 . S
C694 C686 1.481 . S
C694 H691 0.980 . S
C694 H692 0.981 . S
C694 H693 0.981 . S
C695 C682 1.481 . S
C695 H696 0.980 . S
C695 H697 0.981 . S
C695 H698 0.981 . S
H696 C695 0.980 . S
H697 C695 0.981 . S
H698 C695 0.981 . S
O699 Zn675 2.066 . S
O699 C678 1.256 . S
O700 Zn672 2.053 . S
O700 C678 1.244 . S
C701 O679 1.259 . S
C701 O680 1.254 . S
O702 Zn672 2.066 . S
O702 C674 1.256 . S
O703 C674 1.244 . S
O703 Zn675 2.053 . S
Zn704 O705 2.055 . S
Zn704 O712 2.046 . S
Zn704 N720 2.036 . S
Zn704 O732 2.053 . S
Zn704 O734 2.066 . S
O705 Zn704 2.055 . S
O705 C708 1.259 . S
C706 O734 1.256 . S
C706 O735 1.244 . S
Zn707 O709 2.046 . S
Zn707 O711 2.055 . S
Zn707 N713 2.036 . S
Zn707 O731 2.066 . S
Zn707 O735 2.053 . S
C708 O705 1.259 . S
C708 O709 1.254 . S
O709 Zn707 2.046 . S
O709 C708 1.254 . S
C710 O731 1.256 . S
C710 O732 1.244 . S
O711 Zn707 2.055 . S
O711 C733 1.259 . S
O712 Zn704 2.046 . S
O712 C733 1.254 . S
N713 Zn707 2.036 . S
N713 C714 1.298 . S
N713 N716 1.398 . S
C714 N713 1.298 . S
C714 N717 1.367 1_455 S
C714 C727 1.481 . S
C715 N716 1.299 1_655 S
C715 N717 1.379 . S
N716 N713 1.398 . S
N716 C715 1.299 1_455 S
N717 C714 1.367 1_655 S
N717 C715 1.379 . S
C718 N720 1.298 . S
C718 N722 1.367 . S
C718 C726 1.481 . S
C719 N721 1.299 . S
C719 N722 1.379 . S
N720 Zn704 2.036 . S
N720 C718 1.298 . S
N720 N721 1.398 . S
N721 C719 1.299 . S
N721 N720 1.398 . S
N722 C718 1.367 . S
N722 C719 1.379 . S
H723 C726 0.980 . S
H724 C726 0.981 . S
H725 C726 0.981 . S
C726 C718 1.481 . S
C726 H723 0.980 . S
C726 H724 0.981 . S
C726 H725 0.981 . S
C727 C714 1.481 . S
C727 H728 0.980 . S
C727 H729 0.981 . S
C727 H730 0.981 . S
H728 C727 0.980 . S
H729 C727 0.981 . S
H730 C727 0.981 . S
O731 Zn707 2.066 . S
O731 C710 1.256 . S
O732 Zn704 2.053 . S
O732 C710 1.244 . S
C733 O711 1.259 . S
C733 O712 1.254 . S
O734 Zn704 2.066 . S
O734 C706 1.256 . S
O735 C706 1.244 . S
O735 Zn707 2.053 . S
Zn736 O737 2.055 . S
Zn736 O744 2.046 . S
Zn736 N752 2.036 1_545 S
Zn736 O764 2.053 1_545 S
Zn736 O766 2.066 1_545 S
O737 Zn736 2.055 . S
O737 C740 1.259 . S
C738 O766 1.255 1_545 S
C738 O767 1.244 . S
Zn739 O741 2.046 . S
Zn739 O743 2.055 . S
Zn739 N745 2.036 . S
Zn739 O763 2.066 1_545 S
Zn739 O767 2.053 . S
C740 O737 1.259 . S
C740 O741 1.254 . S
O741 Zn739 2.046 . S
O741 C740 1.254 . S
C742 O763 1.256 . S
C742 O764 1.244 . S
O743 Zn739 2.055 . S
O743 C765 1.259 . S
O744 Zn736 2.046 . S
O744 C765 1.254 . S
N745 Zn739 2.036 . S
N745 C746 1.298 1_545 S
N745 N748 1.398 . S
C746 N745 1.298 1_565 S
C746 N749 1.367 . S
C746 C759 1.481 . S
C747 N748 1.300 . S
C747 N749 1.378 1_545 S
N748 N745 1.398 . S
N748 C747 1.300 . S
N749 C746 1.367 . S
N749 C747 1.378 1_565 S
C750 N752 1.298 1_545 S
C750 N754 1.355 1_545 S
C750 C758 1.481 . S
C751 N753 1.299 . S
C751 N754 1.400 . S
N752 Zn736 2.036 1_565 S
N752 C750 1.298 1_565 S
N752 N753 1.398 . S
N753 C751 1.299 . S
N753 N752 1.398 . S
N754 C750 1.355 1_565 S
N754 C751 1.400 . S
H755 C758 0.980 . S
H756 C758 0.981 . S
H757 C758 0.981 . S
C758 C750 1.481 . S
C758 H755 0.980 . S
C758 H756 0.981 . S
C758 H757 0.981 . S
C759 C746 1.481 . S
C759 H760 0.980 . S
C759 H761 0.981 . S
C759 H762 0.981 . S
H760 C759 0.980 . S
H761 C759 0.981 . S
H762 C759 0.981 . S
O763 Zn739 2.066 1_565 S
O763 C742 1.256 . S
O764 Zn736 2.053 1_565 S
O764 C742 1.244 . S
C765 O743 1.259 . S
C765 O744 1.254 . S
O766 Zn736 2.066 1_565 S
O766 C738 1.255 1_565 S
O767 C738 1.244 . S
O767 Zn739 2.053 . S
Zn768 O769 2.055 . S
Zn768 O776 2.046 . S
Zn768 N784 2.036 . S
Zn768 O796 2.053 1_554 S
Zn768 O798 2.066 . S
O769 Zn768 2.055 . S
O769 C772 1.259 . S
C770 O798 1.256 . S
C770 O799 1.244 . S
Zn771 O773 2.046 . S
Zn771 O775 2.055 . S
Zn771 N777 2.036 . S
Zn771 O795 2.066 1_554 S
Zn771 O799 2.053 . S
C772 O769 1.259 . S
C772 O773 1.254 . S
O773 Zn771 2.046 . S
O773 C772 1.254 . S
C774 O795 1.256 . S
C774 O796 1.244 . S
O775 Zn771 2.055 . S
O775 C797 1.259 1_554 S
O776 Zn768 2.046 . S
O776 C797 1.254 1_554 S
N777 Zn771 2.036 . S
N777 C778 1.298 . S
N777 N780 1.398 . S
C778 N777 1.298 . S
C778 N781 1.367 . S
C778 C791 1.481 1_554 S
C779 N780 1.299 . S
C779 N781 1.379 . S
N780 N777 1.398 . S
N780 C779 1.299 . S
N781 C778 1.367 . S
N781 C779 1.379 . S
C782 N784 1.298 . S
C782 N786 1.367 . S
C782 C790 1.481 . S
C783 N785 1.299 . S
C783 N786 1.379 . S
N784 Zn768 2.036 . S
N784 C782 1.298 . S
N784 N785 1.398 . S
N785 C783 1.299 . S
N785 N784 1.398 . S
N786 C782 1.367 . S
N786 C783 1.379 . S
H787 C790 0.980 . S
H788 C790 0.981 . S
H789 C790 0.981 . S
C790 C782 1.481 . S
C790 H787 0.980 . S
C790 H788 0.981 . S
C790 H789 0.981 . S
C791 C778 1.481 1_556 S
C791 H792 0.980 . S
C791 H793 0.981 . S
C791 H794 0.981 . S
H792 C791 0.980 . S
H793 C791 0.981 . S
H794 C791 0.981 . S
O795 Zn771 2.066 1_556 S
O795 C774 1.256 . S
O796 Zn768 2.053 1_556 S
O796 C774 1.244 . S
C797 O775 1.259 1_556 S
C797 O776 1.254 1_556 S
O798 Zn768 2.066 . S
O798 C770 1.256 . S
O799 C770 1.244 . S
O799 Zn771 2.053 . S
Zn800 O801 2.055 . S
Zn800 O808 2.046 . S
Zn800 N816 2.036 . S
Zn800 O828 2.053 . S
Zn800 O830 2.066 1_554 S
O801 Zn800 2.055 . S
O801 C804 1.259 1_554 S
C802 O830 1.256 . S
C802 O831 1.244 . S
Zn803 O805 2.046 . S
Zn803 O807 2.055 . S
Zn803 N809 2.036 . S
Zn803 O827 2.066 . S
Zn803 O831 2.053 1_554 S
C804 O801 1.259 1_556 S
C804 O805 1.254 1_556 S
O805 Zn803 2.046 . S
O805 C804 1.254 1_554 S
C806 O827 1.256 . S
C806 O828 1.244 . S
O807 Zn803 2.055 . S
O807 C829 1.259 . S
O808 Zn800 2.046 . S
O808 C829 1.254 . S
N809 Zn803 2.036 . S
N809 C810 1.298 . S
N809 N812 1.398 . S
C810 N809 1.298 . S
C810 N813 1.367 . S
C810 C823 1.481 . S
C811 N812 1.299 . S
C811 N813 1.379 . S
N812 N809 1.398 . S
N812 C811 1.299 . S
N813 C810 1.367 . S
N813 C811 1.379 . S
C814 N816 1.298 . S
C814 N818 1.367 . S
C814 C822 1.481 1_554 S
C815 N817 1.299 . S
C815 N818 1.379 . S
N816 Zn800 2.036 . S
N816 C814 1.298 . S
N816 N817 1.398 . S
N817 C815 1.299 . S
N817 N816 1.398 . S
N818 C814 1.367 . S
N818 C815 1.379 . S
H819 C822 0.980 . S
H820 C822 0.981 . S
H821 C822 0.981 . S
C822 C814 1.481 1_556 S
C822 H819 0.980 . S
C822 H820 0.981 . S
C822 H821 0.981 . S
C823 C810 1.481 . S
C823 H824 0.980 . S
C823 H825 0.981 . S
C823 H826 0.981 . S
H824 C823 0.980 . S
H825 C823 0.981 . S
H826 C823 0.981 . S
O827 Zn803 2.066 . S
O827 C806 1.256 . S
O828 Zn800 2.053 . S
O828 C806 1.244 . S
C829 O807 1.259 . S
C829 O808 1.254 . S
O830 Zn800 2.066 1_556 S
O830 C802 1.256 . S
O831 C802 1.244 . S
O831 Zn803 2.053 1_556 S
Zn832 O833 2.055 . S
Zn832 O840 2.046 . S
Zn832 N848 2.036 . S
Zn832 O860 2.053 . S
Zn832 O862 2.066 . S
O833 Zn832 2.055 . S
O833 C836 1.259 . S
C834 O862 1.256 . S
C834 O863 1.244 . S
Zn835 O837 2.046 . S
Zn835 O839 2.055 . S
Zn835 N841 2.036 . S
Zn835 O859 2.066 . S
Zn835 O863 2.053 . S
C836 O833 1.259 . S
C836 O837 1.254 . S
O837 Zn835 2.046 . S
O837 C836 1.254 . S
C838 O859 1.256 . S
C838 O860 1.244 . S
O839 Zn835 2.055 . S
O839 C861 1.259 . S
O840 Zn832 2.046 . S
O840 C861 1.254 . S
N841 Zn835 2.036 . S
N841 C842 1.298 . S
N841 N844 1.398 . S
C842 N841 1.298 . S
C842 N845 1.367 . S
C842 C855 1.481 . S
C843 N844 1.299 . S
C843 N845 1.379 . S
N844 N841 1.398 . S
N844 C843 1.299 . S
N845 C842 1.367 . S
N845 C843 1.379 . S
C846 N848 1.298 . S
C846 N850 1.367 . S
C846 C854 1.481 . S
C847 N849 1.299 . S
C847 N850 1.379 . S
N848 Zn832 2.036 . S
N848 C846 1.298 . S
N848 N849 1.398 . S
N849 C847 1.299 . S
N849 N848 1.398 . S
N850 C846 1.367 . S
N850 C847 1.379 . S
H851 C854 0.980 . S
H852 C854 0.981 . S
H853 C854 0.981 . S
C854 C846 1.481 . S
C854 H851 0.980 . S
C854 H852 0.981 . S
C854 H853 0.981 . S
C855 C842 1.481 . S
C855 H856 0.980 . S
C855 H857 0.981 . S
C855 H858 0.981 . S
H856 C855 0.980 . S
H857 C855 0.981 . S
H858 C855 0.981 . S
O859 Zn835 2.066 . S
O859 C838 1.256 . S
O860 Zn832 2.053 . S
O860 C838 1.244 . S
C861 O839 1.259 . S
C861 O840 1.254 . S
O862 Zn832 2.066 . S
O862 C834 1.256 . S
O863 C834 1.244 . S
O863 Zn835 2.053 . S
Zn864 O865 2.055 . S
Zn864 O872 2.046 . S
Zn864 N880 2.036 . S
Zn864 O892 2.053 . S
Zn864 O894 2.066 . S
O865 Zn864 2.055 . S
O865 C868 1.259 . S
C866 O894 1.256 . S
C866 O895 1.244 . S
Zn867 O869 2.046 . S
Zn867 O871 2.055 . S
Zn867 N873 2.036 . S
Zn867 O891 2.066 . S
Zn867 O895 2.053 . S
C868 O865 1.259 . S
C868 O869 1.254 . S
O869 Zn867 2.046 . S
O869 C868 1.254 . S
C870 O891 1.256 . S
C870 O892 1.244 . S
O871 Zn867 2.055 . S
O871 C893 1.259 . S
O872 Zn864 2.046 . S
O872 C893 1.254 . S
N873 Zn867 2.036 . S
N873 C874 1.298 . S
N873 N876 1.398 . S
C874 N873 1.298 . S
C874 N877 1.367 . S
C874 C887 1.481 . S
C875 N876 1.299 . S
C875 N877 1.379 . S
N876 N873 1.398 . S
N876 C875 1.299 . S
N877 C874 1.367 . S
N877 C875 1.379 . S
C878 N880 1.298 . S
C878 N882 1.367 . S
C878 C886 1.481 . S
C879 N881 1.299 . S
C879 N882 1.379 . S
N880 Zn864 2.036 . S
N880 C878 1.298 . S
N880 N881 1.398 . S
N881 C879 1.299 . S
N881 N880 1.398 . S
N882 C878 1.367 . S
N882 C879 1.379 . S
H883 C886 0.980 . S
H884 C886 0.981 . S
H885 C886 0.981 . S
C886 C878 1.481 . S
C886 H883 0.980 . S
C886 H884 0.981 . S
C886 H885 0.981 . S
C887 C874 1.481 . S
C887 H888 0.980 . S
C887 H889 0.981 . S
C887 H890 0.981 . S
H888 C887 0.980 . S
H889 C887 0.981 . S
H890 C887 0.981 . S
O891 Zn867 2.066 . S
O891 C870 1.256 . S
O892 Zn864 2.053 . S
O892 C870 1.244 . S
C893 O871 1.259 . S
C893 O872 1.254 . S
O894 Zn864 2.066 . S
O894 C866 1.256 . S
O895 C866 1.244 . S
O895 Zn867 2.053 . S
Zn896 O897 2.055 . S
Zn896 O904 2.046 . S
Zn896 N912 2.036 1_556 S
Zn896 O924 2.053 . S
Zn896 O926 2.066 1_556 S
O897 Zn896 2.055 . S
O897 C900 1.259 . S
C898 O926 1.256 . S
C898 O927 1.244 . S
Zn899 O901 2.046 . S
Zn899 O903 2.055 . S
Zn899 N905 2.036 . S
Zn899 O923 2.066 . S
Zn899 O927 2.053 1_556 S
C900 O897 1.259 . S
C900 O901 1.254 . S
O901 Zn899 2.046 . S
O901 C900 1.254 . S
C902 O923 1.256 . S
C902 O924 1.244 . S
O903 Zn899 2.055 . S
O903 C925 1.259 . S
O904 Zn896 2.046 . S
O904 C925 1.254 . S
N905 Zn899 2.036 . S
N905 C906 1.298 . S
N905 N908 1.398 . S
C906 N905 1.298 . S
C906 N909 1.367 1_455 S
C906 C919 1.481 . S
C907 N908 1.299 1_655 S
C907 N909 1.379 . S
N908 N905 1.398 . S
N908 C907 1.299 1_455 S
N909 C906 1.367 1_655 S
N909 C907 1.379 . S
C910 N912 1.298 . S
C910 N914 1.367 . S
C910 C918 1.481 . S
C911 N913 1.299 . S
C911 N914 1.379 . S
N912 Zn896 2.036 1_554 S
N912 C910 1.298 . S
N912 N913 1.398 . S
N913 C911 1.299 . S
N913 N912 1.398 . S
N914 C910 1.367 . S
N914 C911 1.379 . S
H915 C918 0.980 . S
H916 C918 0.981 . S
H917 C918 0.981 . S
C918 C910 1.481 . S
C918 H915 0.980 . S
C918 H916 0.981 . S
C918 H917 0.981 . S
C919 C906 1.481 . S
C919 H920 0.980 . S
C919 H921 0.981 . S
C919 H922 0.981 . S
H920 C919 0.980 . S
H921 C919 0.981 . S
H922 C919 0.981 . S
O923 Zn899 2.066 . S
O923 C902 1.256 . S
O924 Zn896 2.053 . S
O924 C902 1.244 . S
C925 O903 1.259 . S
C925 O904 1.254 . S
O926 Zn896 2.066 1_554 S
O926 C898 1.256 . S
O927 C898 1.244 . S
O927 Zn899 2.053 1_554 S
Zn928 O929 2.055 . S
Zn928 O936 2.046 . S
Zn928 N944 2.036 1_556 S
Zn928 O956 2.053 . S
Zn928 O958 2.066 1_556 S
O929 Zn928 2.055 . S
O929 C932 1.259 . S
C930 O958 1.256 . S
C930 O959 1.244 . S
Zn931 O933 2.046 . S
Zn931 O935 2.055 . S
Zn931 N937 2.036 . S
Zn931 O955 2.066 . S
Zn931 O959 2.053 1_556 S
C932 O929 1.259 . S
C932 O933 1.254 . S
O933 Zn931 2.046 . S
O933 C932 1.254 . S
C934 O955 1.256 . S
C934 O956 1.244 . S
O935 Zn931 2.055 . S
O935 C957 1.259 . S
O936 Zn928 2.046 . S
O936 C957 1.254 . S
N937 Zn931 2.036 . S
N937 C938 1.298 . S
N937 N940 1.398 . S
C938 N937 1.298 . S
C938 N941 1.367 . S
C938 C951 1.481 . S
C939 N940 1.299 . S
C939 N941 1.379 . S
N940 N937 1.398 . S
N940 C939 1.299 . S
N941 C938 1.367 . S
N941 C939 1.379 . S
C942 N944 1.298 . S
C942 N946 1.367 . S
C942 C950 1.481 . S
C943 N945 1.299 . S
C943 N946 1.379 . S
N944 Zn928 2.036 1_554 S
N944 C942 1.298 . S
N944 N945 1.398 . S
N945 C943 1.299 . S
N945 N944 1.398 . S
N946 C942 1.367 . S
N946 C943 1.379 . S
H947 C950 0.980 . S
H948 C950 0.981 . S
H949 C950 0.981 . S
C950 C942 1.481 . S
C950 H947 0.980 . S
C950 H948 0.981 . S
C950 H949 0.981 . S
C951 C938 1.481 . S
C951 H952 0.980 . S
C951 H953 0.981 . S
C951 H954 0.981 . S
H952 C951 0.980 . S
H953 C951 0.981 . S
H954 C951 0.981 . S
O955 Zn931 2.066 . S
O955 C934 1.256 . S
O956 Zn928 2.053 . S
O956 C934 1.244 . S
C957 O935 1.259 . S
C957 O936 1.254 . S
O958 Zn928 2.066 1_554 S
O958 C930 1.256 . S
O959 C930 1.244 . S
O959 Zn931 2.053 1_554 S
Zn960 O961 2.055 . S
Zn960 O968 2.046 . S
Zn960 N976 2.036 . S
Zn960 O988 2.053 . S
Zn960 O990 2.066 . S
O961 Zn960 2.055 . S
O961 C964 1.259 . S
C962 O990 1.256 . S
C962 O991 1.244 . S
Zn963 O965 2.046 . S
Zn963 O967 2.055 . S
Zn963 N969 2.036 . S
Zn963 O987 2.066 . S
Zn963 O991 2.053 . S
C964 O961 1.259 . S
C964 O965 1.254 . S
O965 Zn963 2.046 . S
O965 C964 1.254 . S
C966 O987 1.256 . S
C966 O988 1.244 . S
O967 Zn963 2.055 . S
O967 C989 1.259 . S
O968 Zn960 2.046 . S
O968 C989 1.254 . S
N969 Zn963 2.036 . S
N969 C970 1.298 . S
N969 N972 1.398 . S
C970 N969 1.298 . S
C970 N973 1.367 . S
C970 C983 1.481 . S
C971 N972 1.299 . S
C971 N973 1.379 . S
N972 N969 1.398 . S
N972 C971 1.299 . S
N973 C970 1.367 . S
N973 C971 1.379 . S
C974 N976 1.298 1_554 S
C974 N978 1.367 1_454 S
C974 C982 1.481 . S
C975 N977 1.299 1_655 S
C975 N978 1.389 . S
N976 Zn960 2.036 . S
N976 C974 1.298 1_556 S
N976 N977 1.398 . S
N977 C975 1.299 1_455 S
N977 N976 1.398 . S
N978 C974 1.367 1_656 S
N978 C975 1.389 . S
H979 C982 0.980 . S
H980 C982 0.981 . S
H981 C982 0.981 . S
C982 C974 1.481 . S
C982 H979 0.980 . S
C982 H980 0.981 . S
C982 H981 0.981 . S
C983 C970 1.481 . S
C983 H984 0.980 . S
C983 H985 0.981 . S
C983 H986 0.981 . S
H984 C983 0.980 . S
H985 C983 0.981 . S
H986 C983 0.981 . S
O987 Zn963 2.066 . S
O987 C966 1.256 . S
O988 Zn960 2.053 . S
O988 C966 1.244 . S
C989 O967 1.259 . S
C989 O968 1.254 . S
O990 Zn960 2.066 . S
O990 C962 1.256 . S
O991 C962 1.244 . S
O991 Zn963 2.053 . S
Zn992 O993 2.055 . S
Zn992 O1000 2.046 . S
Zn992 N1008 2.036 . S
Zn992 O1020 2.053 . S
Zn992 O1022 2.066 . S
O993 Zn992 2.055 . S
O993 C996 1.259 . S
C994 O1022 1.256 . S
C994 O1023 1.244 . S
Zn995 O997 2.046 . S
Zn995 O999 2.055 . S
Zn995 N1001 2.036 . S
Zn995 O1019 2.066 . S
Zn995 O1023 2.053 . S
C996 O993 1.259 . S
C996 O997 1.254 . S
O997 Zn995 2.046 . S
O997 C996 1.254 . S
C998 O1019 1.256 . S
C998 O1020 1.244 . S
O999 Zn995 2.055 . S
O999 C1021 1.259 . S
O1000 Zn992 2.046 . S
O1000 C1021 1.254 . S
N1001 Zn995 2.036 . S
N1001 C1002 1.298 1_556 S
N1001 N1004 1.398 . S
C1002 N1001 1.298 1_554 S
C1002 N1005 1.367 1_554 S
C1002 C1015 1.481 . S
C1003 N1004 1.299 . S
C1003 N1005 1.389 . S
N1004 N1001 1.398 . S
N1004 C1003 1.299 . S
N1005 C1002 1.367 1_556 S
N1005 C1003 1.389 . S
C1006 N1008 1.298 . S
C1006 N1010 1.367 . S
C1006 C1014 1.481 . S
C1007 N1009 1.299 . S
C1007 N1010 1.379 . S
N1008 Zn992 2.036 . S
N1008 C1006 1.298 . S
N1008 N1009 1.398 . S
N1009 C1007 1.299 . S
N1009 N1008 1.398 . S
N1010 C1006 1.367 . S
N1010 C1007 1.379 . S
H1011 C1014 0.980 . S
H1012 C1014 0.981 . S
H1013 C1014 0.981 . S
C1014 C1006 1.481 . S
C1014 H1011 0.980 . S
C1014 H1012 0.981 . S
C1014 H1013 0.981 . S
C1015 C1002 1.481 . S
C1015 H1016 0.980 . S
C1015 H1017 0.981 . S
C1015 H1018 0.981 . S
H1016 C1015 0.980 . S
H1017 C1015 0.981 . S
H1018 C1015 0.981 . S
O1019 Zn995 2.066 . S
O1019 C998 1.256 . S
O1020 Zn992 2.053 . S
O1020 C998 1.244 . S
C1021 O999 1.259 . S
C1021 O1000 1.254 . S
O1022 Zn992 2.066 . S
O1022 C994 1.256 . S
O1023 C994 1.244 . S
O1023 Zn995 2.053 . S
N818 N13 1.796 . S
N781 N50 1.796 . S
N877 N82 1.796 . S
N850 N109 1.796 . S
C132 C932 4.997 . S
C189 C900 4.997 . S
C221 C996 4.997 . S
C989 C253 4.997 . S
N562 N269 1.796 . S
N525 N306 1.796 . S
N626 N338 1.796 . S
N594 N365 1.796 . S
C388 C701 4.997 . S
C669 C445 4.997 . S
C477 C740 4.997 . S
C708 C509 4.997 . S
C4 C644 2.979 1_565 S
C420 C61 2.979 1_455 S
C964 C93 2.979 1_556 S
C100 C228 2.979 1_664 S
C157 C516 2.979 1_545 S
C164 C317 2.979 1_455 S
C196 C861 2.979 1_556 S
C925 C260 2.979 . S
C733 C349 2.979 . S
C484 C356 2.979 1_455 S
C772 C413 2.979 . S
C452 C605 2.979 . S
C957 C573 2.979 . S
C637 C765 2.979 1_565 S
C829 C676 2.979 . S
C868 C1021 2.979 1_554 S
C6 C610 1.907 . S
C34 C578 1.907 . S
C66 C546 1.907 . S
C102 C518 1.907 . S
C130 C738 2.633 . S
C166 C706 2.633 . S
C198 C678 2.633 . S
C230 C646 2.633 . S
C262 C870 1.907 . S
C290 C834 1.907 . S
C322 C802 1.907 . S
C358 C774 1.907 . S
C994 C386 2.633 . S
C966 C422 2.633 . S
C930 C454 2.633 . S
C898 C486 2.633 . S
N77 N18 2.161 . S
N114 N45 2.161 . S
C194 C134 5.152 . S
C162 C226 5.152 . S
N333 N274 2.161 . S
N301 N370 2.161 . S
C450 C390 5.152 . S
C418 C482 5.152 . S
N530 N589 2.161 . S
N557 N621 2.161 . S
C710 C642 5.152 . S
C674 C742 5.152 . S
N786 N845 2.161 . S
N882 N813 2.161 . S
C902 C962 5.152 . S
C934 C998 5.152 . S
C29 N242 0.456 . S
N978 C36 0.456 . S
C68 N434 0.454 . S
C125 N658 0.454 . S
C98 N146 1.026 1_545 S
N173 C838 1.034 . S
C294 N205 1.034 . S
C514 N237 1.026 1_545 S
C285 N498 0.454 . S
N717 C292 0.454 . S
C324 N178 0.454 . S
N909 C381 0.454 . S
N402 C354 1.034 . S
N429 C582 1.034 . S
N461 C38 1.034 . S
C770 N493 1.034 . S
C541 N749 0.454 . S
C548 N466 0.454 . S
C580 N941 0.454 . S
C612 N141 0.454 . S
N653 C614 1.026 1_565 S
C326 N685 1.034 . S
C806 N722 1.034 . S
N754 C2 1.026 1_565 S
N1005 C797 0.456 . S
N210 C804 0.456 . S
N690 C836 0.454 . S
C893 N397 0.454 . S
C866 N914 1.034 . S
C70 N946 1.034 . S
C550 N973 1.034 . S
N1010 C258 1.034 . S
