# Generated by pormake.
# Topology wkx, (5)-cn, num edge types: 1
# Building blocks:
#     Node 0, Type 0, BuildingBlock: BEQFEK_clean_sbu_0, # of connection points: 5
#     Node 1, Type 0, BuildingBlock: BEQFEK_clean_sbu_0, # of connection points: 5
#     Node 2, Type 0, BuildingBlock: BEQFEK_clean_sbu_0, # of connection points: 5
#     Node 3, Type 0, BuildingBlock: BEQFEK_clean_sbu_0, # of connection points: 5
#     Node 4, Type 0, BuildingBlock: BEQFEK_clean_sbu_0, # of connection points: 5
#     Node 5, Type 0, BuildingBlock: BEQFEK_clean_sbu_0, # of connection points: 5
#     Node 6, Type 0, BuildingBlock: BEQFEK_clean_sbu_0, # of connection points: 5
#     Node 7, Type 0, BuildingBlock: BEQFEK_clean_sbu_0, # of connection points: 5
#     Node 8, Type 0, BuildingBlock: BEQFEK_clean_sbu_0, # of connection points: 5
#     Node 9, Type 0, BuildingBlock: BEQFEK_clean_sbu_0, # of connection points: 5
#     Node 10, Type 0, BuildingBlock: BEQFEK_clean_sbu_0, # of connection points: 5
#     Node 11, Type 0, BuildingBlock: BEQFEK_clean_sbu_0, # of connection points: 5
#     Edge 12, Type (0, 0), BuildingBlock: MIFKUJ_clean_linker_0, # of connection points: 2
#     Edge 13, Type (0, 0), BuildingBlock: MIFKUJ_clean_linker_0, # of connection points: 2
#     Edge 14, Type (0, 0), BuildingBlock: MIFKUJ_clean_linker_0, # of connection points: 2
#     Edge 15, Type (0, 0), BuildingBlock: MIFKUJ_clean_linker_0, # of connection points: 2
#     Edge 16, Type (0, 0), BuildingBlock: MIFKUJ_clean_linker_0, # of connection points: 2
#     Edge 17, Type (0, 0), BuildingBlock: MIFKUJ_clean_linker_0, # of connection points: 2
#     Edge 18, Type (0, 0), BuildingBlock: MIFKUJ_clean_linker_0, # of connection points: 2
#     Edge 19, Type (0, 0), BuildingBlock: MIFKUJ_clean_linker_0, # of connection points: 2
#     Edge 20, Type (0, 0), BuildingBlock: MIFKUJ_clean_linker_0, # of connection points: 2
#     Edge 21, Type (0, 0), BuildingBlock: MIFKUJ_clean_linker_0, # of connection points: 2
#     Edge 22, Type (0, 0), BuildingBlock: MIFKUJ_clean_linker_0, # of connection points: 2
#     Edge 23, Type (0, 0), BuildingBlock: MIFKUJ_clean_linker_0, # of connection points: 2
#     Edge 24, Type (0, 0), BuildingBlock: MIFKUJ_clean_linker_0, # of connection points: 2
#     Edge 25, Type (0, 0), BuildingBlock: MIFKUJ_clean_linker_0, # of connection points: 2
#     Edge 26, Type (0, 0), BuildingBlock: MIFKUJ_clean_linker_0, # of connection points: 2
#     Edge 27, Type (0, 0), BuildingBlock: MIFKUJ_clean_linker_0, # of connection points: 2
#     Edge 28, Type (0, 0), BuildingBlock: MIFKUJ_clean_linker_0, # of connection points: 2
#     Edge 29, Type (0, 0), BuildingBlock: MIFKUJ_clean_linker_0, # of connection points: 2
#     Edge 30, Type (0, 0), BuildingBlock: MIFKUJ_clean_linker_0, # of connection points: 2
#     Edge 31, Type (0, 0), BuildingBlock: MIFKUJ_clean_linker_0, # of connection points: 2
#     Edge 32, Type (0, 0), BuildingBlock: MIFKUJ_clean_linker_0, # of connection points: 2
#     Edge 33, Type (0, 0), BuildingBlock: MIFKUJ_clean_linker_0, # of connection points: 2
#     Edge 34, Type (0, 0), BuildingBlock: MIFKUJ_clean_linker_0, # of connection points: 2
#     Edge 35, Type (0, 0), BuildingBlock: MIFKUJ_clean_linker_0, # of connection points: 2
#     Edge 36, Type (0, 0), BuildingBlock: MIFKUJ_clean_linker_0, # of connection points: 2
#     Edge 37, Type (0, 0), BuildingBlock: MIFKUJ_clean_linker_0, # of connection points: 2
#     Edge 38, Type (0, 0), BuildingBlock: MIFKUJ_clean_linker_0, # of connection points: 2
#     Edge 39, Type (0, 0), BuildingBlock: MIFKUJ_clean_linker_0, # of connection points: 2
#     Edge 40, Type (0, 0), BuildingBlock: MIFKUJ_clean_linker_0, # of connection points: 2
#     Edge 41, Type (0, 0), BuildingBlock: MIFKUJ_clean_linker_0, # of connection points: 2
# Relax obj value: 0.414
# Max RMSD: 0.258
# Mean RMSD: 0.258
data_MOF--net-wkx--node1-BEQFEK_clean_sbu_0--edge1-MIFKUJ_clean_linker_0
_symmetry_space_group_name_H-M    P1
_symmetry_Int_Tables_number       1
_symmetry_cell_setting            triclinic
loop_
_symmetry_equiv_pos_as_xyz
'x, y, z'
_cell_length_a     43.598873
_cell_length_b     43.61979
_cell_length_c     99.020879
_cell_angle_alpha  89.987367
_cell_angle_beta   89.996304
_cell_angle_gamma 120.02791
loop_
_atom_site_label
_atom_site_type_symbol
_atom_site_fract_x
_atom_site_fract_y
_atom_site_fract_z
_atom_type_partial_charge
Co0 Co 0.24361 0.15654 0.42939 0.0
Co1 Co 0.32407 0.19227 0.43631 0.0
C2 C 0.27641 0.22054 0.44611 0.0
O3 O 0.25015 0.19855 0.43909 0.0
O4 O 0.3056 0.22036 0.44606 0.0
C5 C 0.17377 0.14172 0.42075 0.0
O6 O 0.18476 0.17527 0.42314 0.0
C7 C 0.39673 0.25042 0.43307 0.0
C8 C 0.42818 0.22726 0.44086 0.0
C9 C 0.43132 0.25761 0.43502 0.0
N10 N 0.37447 0.21729 0.43733 0.0
N11 N 0.39339 0.20363 0.44203 0.0
C12 C 0.3845 0.27452 0.42763 0.0
H13 H 0.35735 0.26617 0.43121 0.0
H14 H 0.38372 0.27304 0.41644 0.0
H15 H 0.40282 0.30232 0.43071 0.0
C16 C 0.27024 0.15663 0.40209 0.0
N17 N 0.27587 0.1675 0.41504 0.0
N18 N 0.3097 0.18144 0.41789 0.0
C19 C 0.32657 0.17896 0.40686 0.0
C20 C 0.30217 0.16343 0.39644 0.0
C21 C 0.23419 0.13491 0.396 0.0
H22 H 0.21964 0.10938 0.4015 0.0
H23 H 0.21917 0.14909 0.39715 0.0
H24 H 0.23559 0.12948 0.38514 0.0
O25 O 0.24851 0.12521 0.44278 0.0
O26 O 0.30616 0.14772 0.44645 0.0
H27 H 0.36886 0.17391 0.41549 0.0
H28 H 0.37108 0.1785 0.39727 0.0
C29 C 0.36425 0.18711 0.40679 0.0
H30 H 0.38201 0.21606 0.40788 0.0
H31 H 0.38255 0.17803 0.44592 0.0
O32 O 0.19461 0.12969 0.42267 0.0
C33 C 0.27408 0.12398 0.44849 0.0
Co34 Co 0.07542 0.22501 0.60012 0.0
Co35 Co 0.11723 0.30735 0.60133 0.0
C36 C 0.04465 0.26517 0.61333 0.0
O37 O 0.04288 0.23686 0.60913 0.0
O38 O 0.07212 0.29522 0.61122 0.0
C39 C 0.01702 0.1576 0.59294 0.0
O40 O 0.00277 0.17588 0.58833 0.0
C41 C 0.13255 0.37967 0.59637 0.0
C42 C 0.19093 0.41034 0.59799 0.0
C43 C 0.16146 0.41367 0.59553 0.0
N44 N 0.14439 0.35733 0.59924 0.0
N45 N 0.17927 0.3758 0.60028 0.0
C46 C 0.09455 0.36793 0.5935 0.0
H47 H 0.08061 0.34022 0.58976 0.0
H48 H 0.09234 0.38555 0.58595 0.0
H49 H 0.08153 0.36893 0.60298 0.0
C50 C 0.09766 0.23851 0.57165 0.0
N51 N 0.09315 0.24966 0.58377 0.0
N52 N 0.11055 0.2845 0.58407 0.0
C53 C 0.12656 0.29663 0.57199 0.0
C54 C 0.11908 0.26786 0.56373 0.0
C55 C 0.08457 0.20046 0.56827 0.0
H56 H 0.09475 0.18893 0.57582 0.0
H57 H 0.05525 0.18553 0.56883 0.0
H58 H 0.09261 0.19722 0.55799 0.0
O59 O 0.11516 0.23529 0.61233 0.0
O60 O 0.14534 0.29401 0.61319 0.0
H61 H 0.17613 0.34313 0.57604 0.0
H62 H 0.16259 0.33876 0.55861 0.0
C63 C 0.15312 0.33459 0.56921 0.0
H64 H 0.14106 0.35125 0.57128 0.0
H65 H 0.19516 0.36476 0.6024 0.0
O66 O 0.04831 0.17354 0.59765 0.0
C67 C 0.14117 0.26406 0.61667 0.0
Co68 Co 0.83742 0.07352 0.76536 0.0
Co69 Co 0.80671 0.12338 0.77013 0.0
C70 C 0.77113 0.04838 0.78084 0.0
O71 O 0.79308 0.04208 0.77481 0.0
O72 O 0.77359 0.0787 0.78007 0.0
C73 C 0.84417 0.01509 0.75465 0.0
O74 O 0.81237 0.00244 0.74946 0.0
C75 C 0.75188 0.1423 0.76792 0.0
C76 C 0.78153 0.20049 0.77026 0.0
C77 C 0.74793 0.17191 0.76804 0.0
N78 N 0.78613 0.15283 0.77003 0.0
N79 N 0.80374 0.1876 0.77154 0.0
C80 C 0.72446 0.105 0.76459 0.0
H81 H 0.73715 0.09075 0.76012 0.0
H82 H 0.70451 0.1044 0.75746 0.0
H83 H 0.71074 0.09115 0.77401 0.0
C84 C 0.84395 0.10003 0.73739 0.0
N85 N 0.83128 0.09579 0.75009 0.0
N86 N 0.81805 0.11675 0.75202 0.0
C87 C 0.82186 0.13499 0.74052 0.0
C88 C 0.83835 0.12501 0.73086 0.0
C89 C 0.8661 0.08494 0.73242 0.0
H90 H 0.88519 0.0875 0.74035 0.0
H91 H 0.84863 0.05638 0.73022 0.0
H92 H 0.88092 0.09834 0.72311 0.0
O93 O 0.87045 0.10981 0.77823 0.0
O94 O 0.85059 0.14738 0.78095 0.0
H95 H 0.83022 0.18607 0.74585 0.0
H96 H 0.81589 0.17334 0.72859 0.0
C97 C 0.81276 0.16368 0.73915 0.0
H98 H 0.78495 0.15349 0.74233 0.0
H99 H 0.83103 0.20258 0.77317 0.0
O100 O 0.85868 0.04444 0.76091 0.0
C101 C 0.87314 0.13772 0.78348 0.0
Co102 Co 0.76393 0.84477 0.92946 0.0
Co103 Co 0.68306 0.80587 0.93587 0.0
C104 C 0.73063 0.77994 0.94673 0.0
O105 O 0.75706 0.80442 0.94051 0.0
O106 O 0.69995 0.7767 0.94574 0.0
C107 C 0.83267 0.85587 0.92156 0.0
O108 O 0.81993 0.82223 0.9244 0.0
C109 C 0.60964 0.74862 0.93427 0.0
C110 C 0.58005 0.77672 0.93803 0.0
C111 C 0.57574 0.74382 0.93495 0.0
N112 N 0.63288 0.78279 0.93681 0.0
N113 N 0.61507 0.79939 0.93921 0.0
C114 C 0.62019 0.72234 0.92995 0.0
H115 H 0.64762 0.73616 0.92589 0.0
H116 H 0.6016 0.70411 0.9222 0.0
H117 H 0.61935 0.70642 0.93883 0.0
C118 C 0.73828 0.84385 0.9021 0.0
N119 N 0.73215 0.83188 0.91489 0.0
N120 N 0.69799 0.81624 0.9174 0.0
C121 C 0.68133 0.81812 0.90618 0.0
C122 C 0.70633 0.83564 0.8961 0.0
C123 C 0.77447 0.86786 0.89649 0.0
H124 H 0.78743 0.8928 0.90241 0.0
H125 H 0.79078 0.85498 0.89747 0.0
H126 H 0.77339 0.87413 0.88569 0.0
O127 O 0.7587 0.87829 0.94138 0.0
O128 O 0.70116 0.85055 0.946 0.0
H129 H 0.63917 0.82536 0.91338 0.0
H130 H 0.63582 0.81395 0.89567 0.0
C131 C 0.64342 0.80911 0.90581 0.0
H132 H 0.62616 0.78083 0.90846 0.0
H133 H 0.62688 0.82645 0.94125 0.0
O134 O 0.81312 0.86961 0.92292 0.0
C135 C 0.73219 0.87707 0.94732 0.0
Co136 Co 0.92585 0.76731 0.10025 0.0
Co137 Co 0.88078 0.68563 0.10321 0.0
C138 C 0.9549 0.72781 0.11452 0.0
O139 O 0.95889 0.75596 0.10914 0.0
O140 O 0.92585 0.69864 0.1133 0.0
C141 C 0.98278 0.83285 0.09021 0.0
O142 O 0.9948 0.81348 0.08474 0.0
C143 C 0.86309 0.61275 0.09764 0.0
C144 C 0.80655 0.58254 0.10341 0.0
C145 C 0.83395 0.57875 0.09818 0.0
N146 N 0.85309 0.6355 0.1021 0.0
N147 N 0.81933 0.6173 0.10559 0.0
C148 C 0.90012 0.62367 0.09337 0.0
H149 H 0.91929 0.64954 0.09785 0.0
H150 H 0.9022 0.62666 0.08223 0.0
H151 H 0.90709 0.60339 0.09636 0.0
C152 C 0.90061 0.75028 0.07201 0.0
N153 N 0.90553 0.74065 0.0844 0.0
N154 N 0.88674 0.70597 0.08555 0.0
C155 C 0.86905 0.69245 0.07387 0.0
C156 C 0.87741 0.72002 0.06488 0.0
C157 C 0.91296 0.78778 0.06794 0.0
H158 H 0.90931 0.8022 0.07644 0.0
H159 H 0.94161 0.80113 0.06549 0.0
H160 H 0.89848 0.78925 0.05898 0.0
O161 O 0.88833 0.7599 0.11338 0.0
O162 O 0.85385 0.70139 0.11442 0.0
H163 H 0.8206 0.64622 0.07951 0.0
H164 H 0.82997 0.64936 0.06159 0.0
C165 C 0.8418 0.65433 0.07184 0.0
H166 H 0.85431 0.63783 0.07317 0.0
H167 H 0.80495 0.62865 0.10938 0.0
O168 O 0.95356 0.81813 0.09657 0.0
C169 C 0.86107 0.73238 0.11788 0.0
Co170 Co 0.17 0.93691 0.26414 0.0
Co171 Co 0.19684 0.88445 0.2704 0.0
C172 C 0.23691 0.96244 0.27853 0.0
O173 O 0.21634 0.96958 0.2719 0.0
O174 O 0.23171 0.93097 0.27892 0.0
C175 C 0.14542 0.98292 0.26866 0.0
O176 O 0.16066 0.98406 0.28025 0.0
C177 C 0.24843 0.86204 0.26545 0.0
C178 C 0.22302 0.80847 0.2744 0.0
C179 C 0.25299 0.83302 0.26746 0.0
N180 N 0.21711 0.85465 0.27074 0.0
N181 N 0.20204 0.82264 0.27611 0.0
C182 C 0.27356 0.89679 0.25901 0.0
H183 H 0.26799 0.91771 0.26237 0.0
H184 H 0.27007 0.89436 0.24789 0.0
H185 H 0.30139 0.90464 0.26144 0.0
C186 C 0.15865 0.9044 0.23714 0.0
N187 N 0.17242 0.91021 0.24967 0.0
N188 N 0.18299 0.88741 0.25232 0.0
C189 C 0.17563 0.86582 0.24156 0.0
C190 C 0.16011 0.87594 0.23154 0.0
C191 C 0.13949 0.9221 0.23161 0.0
H192 H 0.11503 0.9137 0.23759 0.0
H193 H 0.15638 0.95122 0.2327 0.0
H194 H 0.13226 0.91531 0.22084 0.0
O195 O 0.13964 0.90504 0.27873 0.0
O196 O 0.15462 0.86393 0.2822 0.0
H197 H 0.16745 0.81752 0.25044 0.0
H198 H 0.16877 0.8178 0.23214 0.0
C199 C 0.18016 0.83398 0.24137 0.0
H200 H 0.20877 0.84273 0.2417 0.0
H201 H 0.1774 0.81044 0.2809 0.0
O202 O 0.14729 0.96444 0.25911 0.0
C203 C 0.13524 0.8774 0.28481 0.0
Co204 Co 0.82761 0.76657 0.40692 0.0
Co205 Co 0.80592 0.68804 0.4013 0.0
C206 C 0.76504 0.72271 0.39048 0.0
O207 O 0.78275 0.7508 0.39734 0.0
O208 O 0.77212 0.69769 0.39085 0.0
C209 C 0.84859 0.83773 0.40313 0.0
O210 O 0.83467 0.82504 0.39123 0.0
C211 C 0.75396 0.61357 0.4037 0.0
C212 C 0.78513 0.58692 0.40048 0.0
C213 C 0.75133 0.58059 0.40333 0.0
N214 N 0.78764 0.63826 0.40113 0.0
N215 N 0.80618 0.62223 0.3991 0.0
C216 C 0.72583 0.62202 0.40755 0.0
H217 H 0.73797 0.64914 0.41183 0.0
H218 H 0.7072 0.60251 0.41497 0.0
H219 H 0.71067 0.62094 0.39839 0.0
C220 C 0.83459 0.74656 0.43459 0.0
N221 N 0.82294 0.73782 0.42182 0.0
N222 N 0.81439 0.70479 0.41954 0.0
C223 C 0.82073 0.6915 0.43084 0.0
C224 C 0.83394 0.71763 0.44078 0.0
C225 C 0.8495 0.78311 0.44022 0.0
H226 H 0.83215 0.79396 0.43743 0.0
H227 H 0.85195 0.78318 0.45138 0.0
H228 H 0.87603 0.80053 0.43575 0.0
O229 O 0.86287 0.76707 0.39404 0.0
O230 O 0.85081 0.71163 0.39116 0.0
H231 H 0.83718 0.65642 0.42295 0.0
H232 H 0.83026 0.65278 0.44097 0.0
C233 C 0.82037 0.65701 0.43123 0.0
H234 H 0.79293 0.63502 0.42957 0.0
H235 H 0.8333 0.63543 0.39704 0.0
O236 O 0.8471 0.81643 0.4122 0.0
C237 C 0.87001 0.74465 0.38881 0.0
Co238 Co 0.07664 0.84156 0.57195 0.0
Co239 Co 0.11902 0.80242 0.56717 0.0
C240 C 0.04476 0.77377 0.55673 0.0
O241 O 0.04255 0.7985 0.56254 0.0
O242 O 0.07305 0.77209 0.5574 0.0
C243 C 0.02185 0.85254 0.58314 0.0
O244 O 0.01038 0.82217 0.58938 0.0
C245 C 0.13373 0.74433 0.57096 0.0
C246 C 0.18973 0.76899 0.56464 0.0
C247 C 0.16163 0.73771 0.56952 0.0
N248 N 0.14508 0.77801 0.56729 0.0
N249 N 0.17855 0.79258 0.5635 0.0
C250 C 0.09654 0.71907 0.57534 0.0
H251 H 0.07822 0.72808 0.5719 0.0
H252 H 0.0954 0.71787 0.58653 0.0
H253 H 0.08768 0.69211 0.57137 0.0
C254 C 0.10318 0.84636 0.59974 0.0
N255 N 0.0969 0.83262 0.58719 0.0
N256 N 0.1146 0.81583 0.5853 0.0
C257 C 0.13268 0.8183 0.59672 0.0
C258 C 0.12597 0.83762 0.60627 0.0
C259 C 0.09288 0.87262 0.60445 0.0
H260 H 0.09445 0.88988 0.59594 0.0
H261 H 0.06514 0.85815 0.60814 0.0
H262 H 0.11016 0.88943 0.61276 0.0
O263 O 0.11452 0.87241 0.55928 0.0
O264 O 0.14616 0.84591 0.55614 0.0
H265 H 0.17997 0.81888 0.59053 0.0
H266 H 0.16996 0.80976 0.60833 0.0
C267 C 0.15843 0.80526 0.59804 0.0
H268 H 0.14469 0.77649 0.59593 0.0
H269 H 0.19375 0.81864 0.56012 0.0
O270 O 0.04992 0.86562 0.5761 0.0
C271 C 0.1405 0.87141 0.55386 0.0
Co272 Co 0.23387 0.08562 0.73809 0.0
Co273 Co 0.3158 0.12405 0.73383 0.0
C274 C 0.26722 0.05201 0.72197 0.0
O275 O 0.24056 0.05159 0.72735 0.0
O276 O 0.29836 0.07827 0.72364 0.0
C277 C 0.16216 0.02975 0.74256 0.0
O278 O 0.17458 0.0084 0.7401 0.0
C279 C 0.38793 0.13693 0.73825 0.0
C280 C 0.42034 0.1929 0.73203 0.0
C281 C 0.42273 0.16455 0.73711 0.0
N282 N 0.36623 0.14873 0.73423 0.0
N283 N 0.38576 0.18215 0.73049 0.0
C284 C 0.37514 0.09961 0.74264 0.0
H285 H 0.34822 0.08163 0.73867 0.0
H286 H 0.37369 0.09821 0.75383 0.0
H287 H 0.39359 0.09065 0.73918 0.0
C288 C 0.25514 0.10596 0.76626 0.0
N289 N 0.26294 0.10148 0.75352 0.0
N290 N 0.29752 0.11888 0.75184 0.0
C291 C 0.31279 0.13566 0.7635 0.0
C292 C 0.28647 0.12778 0.77306 0.0
C293 C 0.21841 0.09491 0.77097 0.0
H294 H 0.20103 0.06607 0.76927 0.0
H295 H 0.21782 0.10094 0.78182 0.0
H296 H 0.20775 0.10889 0.76491 0.0
O297 O 0.24398 0.12651 0.72648 0.0
O298 O 0.30211 0.15377 0.72323 0.0
H299 H 0.3591 0.18295 0.75698 0.0
H300 H 0.35729 0.17537 0.77502 0.0
C301 C 0.35126 0.1625 0.76495 0.0
H302 H 0.36715 0.14931 0.76361 0.0
H303 H 0.37547 0.19769 0.72693 0.0
O304 O 0.18324 0.06302 0.74277 0.0
C305 C 0.27216 0.15141 0.72125 0.0
Co306 Co 0.15581 0.23178 0.90853 0.0
Co307 Co 0.19271 0.31304 0.90289 0.0
C308 C 0.22039 0.26757 0.89128 0.0
O309 O 0.19694 0.24043 0.89749 0.0
O310 O 0.22199 0.29742 0.89248 0.0
C311 C 0.14594 0.16243 0.9141 0.0
O312 O 0.17906 0.17594 0.91027 0.0
C313 C 0.24969 0.38631 0.9061 0.0
C314 C 0.22355 0.41652 0.90017 0.0
C315 C 0.25528 0.42049 0.9049 0.0
N316 N 0.21611 0.36339 0.90252 0.0
N317 N 0.20067 0.38158 0.89891 0.0
C318 C 0.27571 0.37521 0.91028 0.0
H319 H 0.27596 0.37357 0.92146 0.0
H320 H 0.30277 0.39466 0.90675 0.0
H321 H 0.26799 0.34867 0.90623 0.0
C322 C 0.1552 0.25521 0.93621 0.0
N323 N 0.16736 0.26242 0.92343 0.0
N324 N 0.18232 0.29665 0.92121 0.0
C325 C 0.17995 0.31239 0.93261 0.0
C326 C 0.16267 0.28667 0.94252 0.0
C327 C 0.13095 0.21838 0.94122 0.0
H328 H 0.10749 0.20522 0.9345 0.0
H329 H 0.14489 0.20298 0.94075 0.0
H330 H 0.12181 0.21794 0.95169 0.0
O331 O 0.12206 0.237 0.89669 0.0
O332 O 0.14788 0.29484 0.89274 0.0
H333 H 0.17552 0.3567 0.92597 0.0
H334 H 0.1856 0.35775 0.94377 0.0
C335 C 0.19047 0.35067 0.93356 0.0
H336 H 0.21907 0.3672 0.9313 0.0
H337 H 0.17439 0.37013 0.8957 0.0
O338 O 0.13193 0.18193 0.91439 0.0
C339 C 0.12221 0.26341 0.89111 0.0
Co340 Co 0.90911 0.14708 0.0739 0.0
Co341 Co 0.87161 0.19068 0.06841 0.0
C342 C 0.94368 0.21416 0.05734 0.0
O343 O 0.94304 0.18747 0.0628 0.0
O344 O 0.91796 0.21994 0.05884 0.0
C345 C 0.96612 0.13376 0.07933 0.0
O346 O 0.98681 0.16751 0.07661 0.0
C347 C 0.85701 0.2491 0.06931 0.0
C348 C 0.79863 0.22092 0.06746 0.0
C349 C 0.82809 0.25422 0.06906 0.0
N350 N 0.84516 0.21436 0.0679 0.0
N351 N 0.81031 0.19767 0.06666 0.0
C352 C 0.89484 0.27596 0.07214 0.0
H353 H 0.9087 0.26303 0.07675 0.0
H354 H 0.89661 0.29697 0.07897 0.0
H355 H 0.90825 0.28841 0.0625 0.0
C356 C 0.88687 0.14892 0.10167 0.0
N357 N 0.89218 0.16068 0.08884 0.0
N358 N 0.8759 0.17875 0.08673 0.0
C359 C 0.85967 0.17914 0.09831 0.0
C360 C 0.86601 0.1602 0.10816 0.0
C361 C 0.89616 0.12214 0.10665 0.0
H362 H 0.88516 0.09927 0.09962 0.0
H363 H 0.9254 0.13414 0.10665 0.0
H364 H 0.88583 0.11246 0.11694 0.0
O365 O 0.86894 0.11477 0.06241 0.0
O366 O 0.84399 0.14709 0.05762 0.0
H367 H 0.81163 0.1786 0.09354 0.0
H368 H 0.82836 0.19492 0.11028 0.0
C369 C 0.83592 0.19455 0.09961 0.0
H370 H 0.84962 0.22199 0.09565 0.0
H371 H 0.79442 0.17028 0.06559 0.0
O372 O 0.93272 0.12067 0.07935 0.0
C373 C 0.84546 0.11883 0.05638 0.0
Co374 Co 0.75893 0.91275 0.23857 0.0
Co375 Co 0.67737 0.87352 0.23366 0.0
C376 C 0.72385 0.94668 0.22323 0.0
O377 O 0.75049 0.94692 0.22858 0.0
O378 O 0.69287 0.91984 0.22439 0.0
C379 C 0.82321 0.96388 0.25215 0.0
O380 O 0.80333 0.97402 0.2585 0.0
C381 C 0.60295 0.85583 0.23471 0.0
C382 C 0.57512 0.79733 0.23402 0.0
C383 C 0.56956 0.82584 0.23509 0.0
N384 N 0.62709 0.84546 0.23348 0.0
N385 N 0.61027 0.8105 0.23291 0.0
C386 C 0.61223 0.89343 0.23695 0.0
H387 H 0.63935 0.909 0.24119 0.0
H388 H 0.59294 0.89482 0.24388 0.0
H389 H 0.61153 0.90531 0.22713 0.0
C390 C 0.73545 0.88493 0.26606 0.0
N391 N 0.72885 0.8924 0.25357 0.0
N392 N 0.69447 0.87811 0.25188 0.0
C393 C 0.67811 0.86257 0.26359 0.0
C394 C 0.70352 0.86608 0.27299 0.0
C395 C 0.7706 0.88961 0.27024 0.0
H396 H 0.78578 0.88961 0.26127 0.0
H397 H 0.78597 0.91523 0.2756 0.0
H398 H 0.76729 0.86803 0.27709 0.0
O399 O 0.75242 0.87501 0.22624 0.0
O400 O 0.69444 0.84674 0.22256 0.0
H401 H 0.62652 0.8175 0.26093 0.0
H402 H 0.63199 0.84131 0.27652 0.0
C403 C 0.63886 0.84414 0.26563 0.0
H404 H 0.62797 0.85946 0.26073 0.0
H405 H 0.62291 0.79559 0.23216 0.0
O406 O 0.80924 0.93848 0.24376 0.0
C407 C 0.72496 0.85034 0.22058 0.0
H408 H 0.11947 0.15589 0.41738 0.0
H409 H 0.05754 0.11336 0.41182 0.0
H410 H 0.08327 0.03001 0.40924 0.0
H411 H 0.14475 0.07204 0.41442 0.0
H412 H 0.03931 0.02269 0.38982 0.0
H413 H 0.04843 0.0453 0.43823 0.0
H414 H 0.06189 0.08342 0.45831 0.0
H415 H 0.98605 0.11288 0.44551 0.0
H416 H 0.97249 0.07524 0.42526 0.0
H417 H 0.88771 0.8723 0.42536 0.0
H418 H 0.93514 0.93384 0.42652 0.0
H419 H 0.90868 0.95232 0.3865 0.0
H420 H 0.86173 0.89046 0.3851 0.0
H421 H 0.94796 0.00065 0.42433 0.0
H422 H 0.9849 0.99715 0.369 0.0
H423 H 0.97515 0.95363 0.35113 0.0
H424 H 0.96454 0.87802 0.38123 0.0
H425 H 0.97443 0.92108 0.3992 0.0
C426 C 0.11193 0.12856 0.41547 0.0
C427 C 0.13693 0.11726 0.41647 0.0
C428 C 0.07656 0.10432 0.41232 0.0
C429 C 0.06575 0.06847 0.41022 0.0
C430 C 0.091 0.05755 0.41076 0.0
C431 C 0.12617 0.08163 0.41383 0.0
C432 C 0.02803 0.0414 0.40825 0.0
C433 C 0.01916 0.01832 0.39722 0.0
C434 C 0.0018 0.03544 0.41798 0.0
C435 C 0.0098 0.05787 0.43017 0.0
C436 C 0.03483 0.06012 0.43966 0.0
C437 C 0.04244 0.0816 0.45108 0.0
C438 C 0.02492 0.10065 0.45316 0.0
C439 C -0.00034 0.09818 0.44386 0.0
C440 C 0.99201 0.07679 0.43242 0.0
C441 C 0.8914 0.88961 0.41692 0.0
C442 C 0.87144 0.87631 0.40503 0.0
C443 C 0.91841 0.9249 0.41763 0.0
C444 C 0.92582 0.94745 0.4065 0.0
C445 C 0.90368 0.93517 0.39513 0.0
C446 C 0.87681 0.89979 0.39436 0.0
C447 C 0.95967 0.98152 0.40611 0.0
C448 C 0.96775 0.00587 0.41665 0.0
C449 C 0.98564 0.98807 0.39619 0.0
C450 C 0.97991 0.96213 0.38542 0.0
C451 C 0.98048 0.97121 0.37177 0.0
C452 C 0.97491 0.94663 0.36163 0.0
C453 C 0.96902 0.91301 0.36504 0.0
C454 C 0.96885 0.90395 0.37859 0.0
C455 C 0.97441 0.92841 0.38875 0.0
H456 H 0.96474 0.89403 0.35719 0.0
H457 H 0.03085 0.11726 0.46201 0.0
H458 H 0.00287 0.87589 0.60529 0.0
H459 H 0.97994 0.91691 0.60544 0.0
H460 H 0.97168 0.91065 0.56191 0.0
H461 H 0.99684 0.87158 0.56181 0.0
H462 H 0.00609 0.97414 0.56801 0.0
H463 H 0.89671 0.88204 0.58411 0.0
H464 H 0.85514 0.83113 0.59799 0.0
H465 H 0.8899 0.89604 0.63357 0.0
H466 H 0.93208 0.94724 0.61995 0.0
H467 H 0.97205 0.11549 0.57318 0.0
H468 H 0.94928 0.05169 0.57034 0.0
H469 H 0.99564 0.04911 0.6085 0.0
H470 H 0.01915 0.11269 0.61119 0.0
H471 H 0.92662 0.98421 0.60134 0.0
H472 H 0.0472 0.06806 0.58444 0.0
H473 H 0.08709 0.11946 0.57037 0.0
H474 H 0.02588 0.06657 0.53516 0.0
H475 H 0.98521 0.01512 0.54911 0.0
C476 C 0.99528 0.88273 0.59584 0.0
C477 C 0.00169 0.87108 0.58355 0.0
C478 C 0.98188 0.9059 0.59589 0.0
C479 C 0.97377 0.91681 0.58367 0.0
C480 C 0.97784 0.90284 0.57146 0.0
C481 C 0.99216 0.88055 0.57139 0.0
C482 C 0.96665 0.94673 0.58349 0.0
C483 C 0.98772 0.9756 0.57501 0.0
C484 C 0.94307 0.9492 0.5927 0.0
C485 C 0.91771 0.9185 0.60099 0.0
C486 C 0.89569 0.88543 0.59491 0.0
C487 C 0.87198 0.85651 0.60273 0.0
C488 C 0.86991 0.86034 0.61665 0.0
C489 C 0.89152 0.89312 0.62278 0.0
C490 C 0.91529 0.92212 0.615 0.0
C491 C 0.97646 0.10099 0.5811 0.0
C492 C 0.99778 0.1188 0.59227 0.0
C493 C 0.9633 0.06466 0.57951 0.0
C494 C 0.97084 0.0459 0.58923 0.0
C495 C 0.98935 0.06315 0.60097 0.0
C496 C 0.00311 0.09947 0.60241 0.0
C497 C 0.96636 0.01088 0.58608 0.0
C498 C 0.94361 0.98157 0.594 0.0
C499 C 0.98797 0.0076 0.57625 0.0
C500 C 0.013 0.038 0.56782 0.0
C501 C 0.04216 0.06752 0.57371 0.0
C502 C 0.06489 0.09664 0.56577 0.0
C503 C 0.05897 0.09633 0.55189 0.0
C504 C 0.03038 0.06681 0.54592 0.0
C505 C 0.00747 0.03768 0.55384 0.0
H506 H 0.07657 0.11892 0.54575 0.0
H507 H 0.85154 0.83792 0.62269 0.0
H508 H 0.89204 0.01567 0.77202 0.0
H509 H 0.93373 0.9951 0.76783 0.0
H510 H 0.88411 0.95247 0.72936 0.0
H511 H 0.84176 0.97308 0.7336 0.0
H512 H 0.93626 0.93469 0.76113 0.0
H513 H 0.95443 0.98336 0.70727 0.0
H514 H 0.93844 0.01862 0.69234 0.0
H515 H 0.94316 0.08282 0.72604 0.0
H516 H 0.95971 0.0483 0.74108 0.0
H517 H 0.10833 0.96087 0.74 0.0
H518 H 0.04445 0.93948 0.73966 0.0
H519 H 0.06546 0.04584 0.74678 0.0
H520 H 0.12881 0.06735 0.74713 0.0
H521 H 0.0189 0.01342 0.7258 0.0
H522 H 0.03869 0.98736 0.77203 0.0
H523 H 0.05657 0.95775 0.78894 0.0
H524 H 0.97957 0.8562 0.77319 0.0
H525 H 0.96154 0.8853 0.75608 0.0
C526 C 0.88945 0.00116 0.7628 0.0
C527 C 0.86425 0.99651 0.753 0.0
C528 C 0.913 0.98902 0.7605 0.0
C529 C 0.91213 0.9725 0.74826 0.0
C530 C 0.88511 0.96518 0.73888 0.0
C531 C 0.86109 0.97702 0.74128 0.0
C532 C 0.94352 0.96979 0.74458 0.0
C533 C 0.95398 0.95103 0.75315 0.0
C534 C 0.96673 0.99145 0.73428 0.0
C535 C 0.95783 0.01301 0.72528 0.0
C536 C 0.95216 0.00509 0.71145 0.0
C537 C 0.94303 0.02495 0.70298 0.0
C538 C 0.93967 0.05286 0.70825 0.0
C539 C 0.94569 0.06115 0.72198 0.0
C540 C 0.95498 0.04148 0.73047 0.0
C541 C 0.09927 0.97961 0.7416 0.0
C542 C 0.12362 0.01584 0.74354 0.0
C543 C 0.06283 0.96735 0.74135 0.0
C544 C 0.05039 0.99118 0.74304 0.0
C545 C 0.07462 0.02713 0.74527 0.0
C546 C 0.11083 0.03933 0.74555 0.0
C547 C 0.01218 0.97938 0.74268 0.0
C548 C 0.00056 0.99551 0.73332 0.0
C549 C 0.98826 0.95588 0.75242 0.0
C550 C -0.00086 0.93848 0.76267 0.0
C551 C 0.02581 0.95873 0.7721 0.0
C552 C 0.03592 0.94205 0.78173 0.0
C553 C 0.01931 0.90512 0.78211 0.0
C554 C 0.99248 0.8848 0.77287 0.0
C555 C 0.98231 0.90137 0.7632 0.0
H556 H 0.02715 0.89225 0.78958 0.0
H557 H 0.93248 0.06811 0.70169 0.0
H558 H 0.88575 0.83926 0.92136 0.0
H559 H 0.94908 0.88001 0.91735 0.0
H560 H 0.92711 0.96449 0.9095 0.0
H561 H 0.86441 0.9242 0.91314 0.0
H562 H 0.97647 0.96931 0.8928 0.0
H563 H 0.9512 0.94928 0.94153 0.0
H564 H 0.93154 0.91141 0.96185 0.0
H565 H 0.01012 0.88144 0.9546 0.0
H566 H 0.02998 0.91891 0.93416 0.0
H567 H 0.07962 0.12801 0.92473 0.0
H568 H 0.03806 0.06451 0.9244 0.0
H569 H 0.11878 0.04587 0.9079 0.0
H570 H 0.1609 0.10988 0.90805 0.0
H571 H 0.05308 0.99641 0.93324 0.0
H572 H 0.08381 0.02958 0.88518 0.0
H573 H 0.1013 0.07384 0.86694 0.0
H574 H 0.00941 0.08316 0.87477 0.0
H575 H 0.99167 0.03925 0.89315 0.0
C576 C 0.89446 0.86639 0.91855 0.0
C577 C 0.87018 0.87866 0.91774 0.0
C578 C 0.9306 0.88961 0.91629 0.0
C579 C 0.94282 0.92534 0.91325 0.0
C580 C 0.91831 0.93701 0.91179 0.0
C581 C 0.88241 0.91396 0.91399 0.0
C582 C 0.98106 0.95192 0.9127 0.0
C583 C 0.99357 0.97464 0.9015 0.0
C584 C 0.00358 0.95878 0.92398 0.0
C585 C 0.99173 0.93646 0.93626 0.0
C586 C 0.96411 0.93442 0.94425 0.0
C587 C 0.95296 0.91308 0.95578 0.0
C588 C 0.96949 0.89393 0.95949 0.0
C589 C 0.99728 0.8962 0.95169 0.0
C590 C 0.00849 0.91748 0.94014 0.0
C591 C 0.08885 0.11047 0.92126 0.0
C592 C 0.12335 0.12396 0.91621 0.0
C593 C 0.06513 0.07421 0.92116 0.0
C594 C 0.07547 0.0508 0.91605 0.0
C595 C 0.11052 0.06373 0.91188 0.0
C596 C 0.13444 0.10022 0.91197 0.0
C597 C 0.04773 0.01394 0.91352 0.0
C598 C 0.03693 0.98965 0.92419 0.0
C599 C 0.02653 0.00574 0.90183 0.0
C600 C 0.03654 0.03129 0.89054 0.0
C601 C 0.06745 0.04119 0.88303 0.0
C602 C 0.07738 0.06619 0.87267 0.0
C603 C 0.0565 0.08134 0.86971 0.0
C604 C 0.02556 0.0714 0.87706 0.0
C605 C 0.01552 0.04642 0.88743 0.0
H606 H 0.06427 0.10073 0.8617 0.0
H607 H 0.96082 0.87742 0.96842 0.0
H608 H 0.98443 0.88048 0.10797 0.0
H609 H 0.00548 0.94292 0.10387 0.0
H610 H 0.0443 0.93498 0.06469 0.0
H611 H 0.0234 0.87196 0.06885 0.0
H612 H 0.06601 0.00608 0.09613 0.0
H613 H 0.00919 0.97154 0.04347 0.0
H614 H 0.97131 0.9192 0.02941 0.0
H615 H 0.91177 0.86304 0.0645 0.0
H616 H 0.94896 0.91521 0.07869 0.0
H617 H 0.03508 0.14987 0.07579 0.0
H618 H 0.05727 0.10807 0.07521 0.0
H619 H 0.95255 0.02239 0.08467 0.0
H620 H 0.93026 0.06352 0.08526 0.0
H621 H 0.98187 0.00772 0.06279 0.0
H622 H 0.01485 0.05615 0.10849 0.0
H623 H 0.0469 0.10455 0.12486 0.0
H624 H 0.14602 0.1286 0.10678 0.0
H625 H 0.11445 0.08054 0.09019 0.0
C626 C 0.99829 0.89227 0.09862 0.0
C627 C 0.00175 0.87148 0.0886 0.0
C628 C 0.01072 0.92803 0.09636 0.0
C629 C 0.02623 0.94343 0.08395 0.0
C630 C 0.03246 0.92347 0.07434 0.0
C631 C 0.0204 0.88757 0.0767 0.0
C632 C 0.02846 0.97729 0.08035 0.0
C633 C 0.04848 0.00698 0.08857 0.0
C634 C 0.0052 0.97815 0.07061 0.0
C635 C 0.9821 0.94704 0.06212 0.0
C636 C 0.98793 0.94803 0.04815 0.0
C637 C 0.96659 0.91842 0.04017 0.0
C638 C 0.93924 0.88776 0.04607 0.0
C639 C 0.93301 0.88674 0.05995 0.0
C640 C 0.95419 0.91632 0.06796 0.0
C641 C 0.01692 0.12216 0.07789 0.0
C642 C 0.98086 0.10992 0.08049 0.0
C643 C 0.02962 0.09838 0.0775 0.0
C644 C 0.0064 0.06218 0.07972 0.0
C645 C 0.97074 0.0502 0.08274 0.0
C646 C 0.95811 0.0738 0.08315 0.0
C647 C 0.01842 0.03605 0.07893 0.0
C648 C 0.00096 0.0078 0.06985 0.0
C649 C 0.04343 0.03629 0.08808 0.0
C650 C 0.0623 0.06516 0.098 0.0
C651 C 0.04346 0.07199 0.10793 0.0
C652 C 0.06153 0.0993 0.11726 0.0
C653 C 0.09847 0.11973 0.11683 0.0
C654 C 0.11741 0.11282 0.10708 0.0
C655 C 0.09944 0.08556 0.09772 0.0
H656 H 0.11242 0.14085 0.12406 0.0
H657 H 0.92284 0.86482 0.03988 0.0
H658 H 0.12936 0.01657 0.28831 0.0
H659 H 0.08233 0.03154 0.28772 0.0
H660 H 0.06038 0.99734 0.24621 0.0
H661 H 0.10742 0.98248 0.24666 0.0
H662 H 0.05304 0.05545 0.25107 0.0
H663 H 0.01777 0.94091 0.27119 0.0
H664 H 0.02153 0.901 0.28791 0.0
H665 H 0.00165 0.95509 0.31995 0.0
H666 H 0.99859 0.99591 0.30342 0.0
H667 H 0.87355 0.96448 0.23596 0.0
H668 H 0.93569 0.98664 0.24124 0.0
H669 H 0.92152 0.02194 0.28023 0.0
H670 H 0.85878 -9e-05 0.27491 0.0
H671 H 0.95222 0.97847 0.28106 0.0
H672 H 0.97305 0.08357 0.25904 0.0
H673 H 0.96668 0.11976 0.24135 0.0
H674 H 0.01066 0.08001 0.21204 0.0
H675 H 0.01681 0.04315 0.2295 0.0
C676 C 0.11503 0.01293 0.27896 0.0
C677 C 0.12169 0.99781 0.26758 0.0
C678 C 0.08818 0.0215 0.27866 0.0
C679 C 0.06762 0.01503 0.267 0.0
C680 C 0.07597 0.00247 0.25532 0.0
C681 C 0.10275 0.99383 0.25561 0.0
C682 C 0.03499 0.01742 0.26726 0.0
C683 C 0.031 0.03881 0.25766 0.0
C684 C 0.00667 0.99636 0.27614 0.0
C685 C 0.00856 0.97185 0.28609 0.0
C686 C 0.01461 0.94457 0.28181 0.0
C687 C 0.01657 0.92175 0.29125 0.0
C688 C 0.012 0.92562 0.30498 0.0
C689 C 0.00535 0.95225 0.30931 0.0
C690 C 0.00357 0.97527 0.29991 0.0
C691 C 0.8837 0.97736 0.2456 0.0
C692 C 0.86136 0.98036 0.25506 0.0
C693 C 0.91928 0.99026 0.24856 0.0
C694 C 0.93321 0.00622 0.26107 0.0
C695 C 0.91121 0.00994 0.27048 0.0
C696 C 0.87552 0.99743 0.26743 0.0
C697 C 0.96983 0.01557 0.26454 0.0
C698 C 0.97461 0.99621 0.27481 0.0
C699 C -0.0013 0.03818 0.25617 0.0
C700 C 0.9953 0.06049 0.2456 0.0
C701 C 0.98117 0.08236 0.24881 0.0
C702 C 0.97762 0.10303 0.23882 0.0
C703 C 0.98824 0.10217 0.22558 0.0
C704 C 0.00248 0.08068 0.22231 0.0
C705 C 0.00607 0.05994 0.23226 0.0
H706 H 0.98546 0.11818 0.21786 0.0
H707 H 0.01352 0.90792 0.31226 0.0
H708 H 0.74681 0.52778 0.4193 0.0
H709 H 0.69358 0.47148 0.42475 0.0
H710 H 0.63204 0.49852 0.39823 0.0
H711 H 0.68494 0.55524 0.39321 0.0
H712 H 0.59753 0.47398 0.42017 0.0
H713 H 0.65745 0.43485 0.39024 0.0
H714 H 0.7071 0.42834 0.38179 0.0
H715 H 0.70689 0.37599 0.41855 0.0
H716 H 0.65751 0.3826 0.4273 0.0
H717 H 0.44582 0.30324 0.41361 0.0
H718 H 0.50133 0.35725 0.40872 0.0
H719 H 0.55048 0.3374 0.44279 0.0
H720 H 0.49431 0.28387 0.44817 0.0
H721 H 0.5913 0.35735 0.41797 0.0
H722 H 0.52888 0.39625 0.44713 0.0
H723 H 0.47726 0.40109 0.45425 0.0
H724 H 0.48072 0.45275 0.41689 0.0
H725 H 0.53204 0.44772 0.40947 0.0
C726 C 0.72188 0.52148 0.41461 0.0
C727 C 0.71973 0.54586 0.40598 0.0
C728 C 0.69153 0.48928 0.41766 0.0
C729 C 0.65875 0.48053 0.41182 0.0
C730 C 0.65691 0.50471 0.40295 0.0
C731 C 0.68709 0.53712 0.4001 0.0
C732 C 0.62607 0.44687 0.41527 0.0
C733 C 0.59615 0.44849 0.41949 0.0
C734 C 0.62433 0.41356 0.41471 0.0
C735 C 0.65403 0.40956 0.40948 0.0
C736 C 0.66818 0.4222 0.39657 0.0
C737 C 0.69623 0.41845 0.39172 0.0
C738 C 0.71021 0.40186 0.39965 0.0
C739 C 0.69608 0.38889 0.41243 0.0
C740 C 0.66804 0.39261 0.41733 0.0
C741 C 0.46795 0.31076 0.42034 0.0
C742 C 0.46515 0.28995 0.43163 0.0
C743 C 0.49989 0.34139 0.41738 0.0
C744 C 0.52977 0.35146 0.42551 0.0
C745 C 0.52758 0.33008 0.43645 0.0
C746 C 0.49549 0.29961 0.43951 0.0
C747 C 0.56308 0.38474 0.42266 0.0
C748 C 0.59297 0.38297 0.41861 0.0
C749 C 0.56471 0.41789 0.42318 0.0
C750 C 0.5341 0.42131 0.4277 0.0
C751 C 0.51846 0.40839 0.44039 0.0
C752 C 0.48928 0.41121 0.44449 0.0
C753 C 0.47566 0.42714 0.43601 0.0
C754 C 0.49127 0.44038 0.42344 0.0
C755 C 0.52042 0.43758 0.41929 0.0
H756 H 0.45307 0.42929 0.4392 0.0
H757 H 0.73193 0.39897 0.39587 0.0
H758 H 0.11726 0.43569 0.60538 0.0
H759 H 0.11853 0.4912 0.60048 0.0
H760 H 0.20837 0.52258 0.57416 0.0
H761 H 0.20765 0.46729 0.57935 0.0
H762 H 0.21855 0.57647 0.58867 0.0
H763 H 0.12291 0.49165 0.56174 0.0
H764 H 0.0674 0.43614 0.55697 0.0
H765 H 0.01124 0.46679 0.58441 0.0
H766 H 0.06655 0.52227 0.58951 0.0
H767 H 0.20025 0.71387 0.55625 0.0
H768 H 0.20184 0.65933 0.56043 0.0
H769 H 0.12725 0.63291 0.59305 0.0
H770 H 0.12674 0.68788 0.58939 0.0
H771 H 0.1098 0.57678 0.57411 0.0
H772 H 0.20825 0.66198 0.60098 0.0
H773 H 0.26451 0.71755 0.60475 0.0
H774 H 0.31604 0.68593 0.5755 0.0
H775 H 0.25991 0.63036 0.57142 0.0
C776 C 0.13693 0.45422 0.59841 0.0
C777 C 0.16187 0.44697 0.5925 0.0
C778 C 0.1377 0.48596 0.59562 0.0
C779 C 0.16307 0.51076 0.58671 0.0
C780 C 0.18844 0.50378 0.58101 0.0
C781 C 0.18797 0.47222 0.58394 0.0
C782 C 0.16333 0.54411 0.58349 0.0
C783 C 0.19488 0.57646 0.58528 0.0
C784 C 0.13236 0.5442 0.57922 0.0
C785 C 0.09896 0.51099 0.5761 0.0
C786 C 0.09877 0.48645 0.56683 0.0
C787 C 0.06734 0.455 0.56406 0.0
C788 C 0.03583 0.44791 0.57041 0.0
C789 C 0.03568 0.4723 0.57951 0.0
C790 C 0.06706 0.50377 0.58234 0.0
C791 C 0.18424 0.69648 0.56434 0.0
C792 C 0.16245 0.70472 0.57219 0.0
C793 C 0.18518 0.66537 0.56669 0.0
C794 C 0.16442 0.64206 0.57696 0.0
C795 C 0.14303 0.65038 0.58493 0.0
C796 C 0.1424 0.68165 0.58269 0.0
C797 C 0.16484 0.60885 0.57941 0.0
C798 C 0.13343 0.57661 0.57744 0.0
C799 C 0.19602 0.60886 0.58331 0.0
C800 C 0.22979 0.6422 0.58579 0.0
C801 C 0.2315 0.66703 0.59526 0.0
C802 C 0.26338 0.69849 0.59747 0.0
C803 C 0.29381 0.70531 0.59034 0.0
C804 C 0.29244 0.68063 0.581 0.0
C805 C 0.2606 0.64914 0.57874 0.0
H806 H 0.31847 0.72968 0.59206 0.0
H807 H 0.01152 0.42354 0.56825 0.0
H808 H 0.48643 0.2035 0.72478 0.0
H809 H 0.54253 0.20677 0.73037 0.0
H810 H 0.49119 0.13114 0.7625 0.0
H811 H 0.43564 0.12942 0.7575 0.0
H812 H 0.55241 0.18213 0.77082 0.0
H813 H 0.51247 0.10761 0.73174 0.0
H814 H 0.49083 0.09065 0.70841 0.0
H815 H 0.58611 0.17958 0.69321 0.0
H816 H 0.60813 0.19736 0.71648 0.0
H817 H 0.68206 0.129 0.77843 0.0
H818 H 0.62773 0.13041 0.77348 0.0
H819 H 0.68644 0.22016 0.74722 0.0
H820 H 0.74098 0.21891 0.75219 0.0
H821 H 0.6228 0.16337 0.7358 0.0
H822 H 0.6627 0.23576 0.77568 0.0
H823 H 0.68345 0.24978 0.79923 0.0
H824 H 0.58655 0.16048 0.81311 0.0
H825 H 0.56542 0.14561 0.78961 0.0
C826 C 0.48707 0.1875 0.73302 0.0
C827 C 0.45623 0.1653 0.7404 0.0
C828 C 0.51911 0.18923 0.73615 0.0
C829 C 0.5209 0.16857 0.74666 0.0
C830 C 0.49033 0.14696 0.75423 0.0
C831 C 0.45834 0.14548 0.75118 0.0
C832 C 0.55478 0.16991 0.74988 0.0
C833 C 0.56754 0.17757 0.76319 0.0
C834 C 0.57491 0.16466 0.73987 0.0
C835 C 0.56178 0.15402 0.72586 0.0
C836 C 0.52869 0.12371 0.72343 0.0
C837 C 0.51637 0.11392 0.71021 0.0
C838 C 0.53704 0.13408 0.69933 0.0
C839 C 0.57011 0.16402 0.70165 0.0
C840 C 0.58253 0.17395 0.71485 0.0
C841 C 0.68329 0.1489 0.77156 0.0
C842 C 0.71547 0.17355 0.76553 0.0
C843 C 0.65238 0.14986 0.76883 0.0
C844 C 0.65319 0.17539 0.75999 0.0
C845 C 0.68538 0.20025 0.75405 0.0
C846 C 0.71642 0.1996 0.75693 0.0
C847 C 0.62017 0.17544 0.75669 0.0
C848 C 0.60761 0.16801 0.74338 0.0
C849 C 0.60003 0.18044 0.76672 0.0
C850 C 0.61263 0.18937 0.78087 0.0
C851 C 0.64595 0.21892 0.78374 0.0
C852 C 0.65775 0.22706 0.79708 0.0
C853 C 0.63637 0.20598 0.80766 0.0
C854 C 0.6031 0.17676 0.80491 0.0
C855 C 0.59118 0.16848 0.79158 0.0
H856 H 0.64555 0.21233 0.81798 0.0
H857 H 0.52746 0.12645 0.68911 0.0
H858 H 0.27803 0.48382 0.89244 0.0
H859 H 0.33075 0.54058 0.89761 0.0
H860 H 0.3575 0.49108 0.92969 0.0
H861 H 0.30379 0.43518 0.92519 0.0
H862 H 0.3687 0.552 0.93781 0.0
H863 H 0.39928 0.51068 0.89789 0.0
H864 H 0.39211 0.48887 0.87448 0.0
H865 H 0.39842 0.58463 0.85996 0.0
H866 H 0.40515 0.60682 0.88332 0.0
H867 H 0.55347 0.67647 0.94356 0.0
H868 H 0.497 0.62304 0.93841 0.0
H869 H 0.4652 0.68524 0.9146 0.0
H870 H 0.52154 0.73886 0.91984 0.0
H871 H 0.45598 0.62046 0.90195 0.0
H872 H 0.42849 0.66195 0.94268 0.0
H873 H 0.43797 0.68274 0.96627 0.0
H874 H 0.42863 0.58458 0.9794 0.0
H875 H 0.41962 0.56341 0.95584 0.0
C876 C 0.29517 0.48509 0.9006 0.0
C877 C 0.28741 0.45463 0.90806 0.0
C878 C 0.32541 0.51747 0.90348 0.0
C879 C 0.3486 0.51991 0.91382 0.0
C880 C 0.34029 0.48976 0.92154 0.0
C881 C 0.30986 0.45752 0.91877 0.0
C882 C 0.38146 0.55383 0.91667 0.0
C883 C 0.38792 0.56671 0.92998 0.0
C884 C 0.40628 0.57348 0.90642 0.0
C885 C 0.40234 0.56024 0.89236 0.0
C886 C 0.39887 0.52697 0.88971 0.0
C887 C 0.39493 0.51456 0.87645 0.0
C888 C 0.39471 0.53531 0.86574 0.0
C889 C 0.39853 0.56856 0.86827 0.0
C890 C 0.40243 0.58108 0.88151 0.0
C891 C 0.53453 0.67864 0.93715 0.0
C892 C 0.54185 0.71157 0.93196 0.0
C893 C 0.50228 0.64824 0.9343 0.0
C894 C 0.47709 0.65036 0.92614 0.0
C895 C 0.48441 0.6832 0.9209 0.0
C896 C 0.51642 0.7137 0.92394 0.0
C897 C 0.44314 0.61813 0.92305 0.0
C898 C 0.43656 0.60568 0.90972 0.0
C899 C 0.41846 0.59863 0.93329 0.0
C900 C 0.42374 0.61124 0.94748 0.0
C901 C 0.42879 0.64493 0.95058 0.0
C902 C 0.43401 0.65675 0.96395 0.0
C903 C 0.434 0.63503 0.97433 0.0
C904 C 0.42867 0.6014 0.97135 0.0
C905 C 0.42348 0.58946 0.95799 0.0
H906 H 0.43803 0.64423 0.98467 0.0
H907 H 0.39166 0.52565 0.85548 0.0
H908 H 0.78241 0.26369 0.08462 0.0
H909 H 0.78188 0.31873 0.08859 0.0
H910 H 0.87084 0.37388 0.06156 0.0
H911 H 0.87204 0.31897 0.05793 0.0
H912 H 0.88147 0.41182 0.0829 0.0
H913 H 0.78391 0.35102 0.05264 0.0
H914 H 0.72783 0.30135 0.04413 0.0
H915 H 0.67385 0.30555 0.07974 0.0
H916 H 0.72973 0.35495 0.08856 0.0
H917 H 0.8664 0.56597 0.0769 0.0
H918 H 0.86404 0.51038 0.0713 0.0
H919 H 0.79068 0.45845 0.10401 0.0
H920 H 0.7939 0.51449 0.11001 0.0
H921 H 0.77218 0.41985 0.0792 0.0
H922 H 0.87233 0.48104 0.10921 0.0
H923 H 0.92874 0.53231 0.11658 0.0
H924 H 0.97825 0.52856 0.07961 0.0
H925 H 0.92193 0.47758 0.07192 0.0
C926 C 0.80173 0.28759 0.07951 0.0
C927 C 0.8275 0.28734 0.0711 0.0
C928 C 0.80131 0.31896 0.08171 0.0
C929 C 0.82604 0.35037 0.07523 0.0
C930 C 0.85158 0.34999 0.0667 0.0
C931 C 0.85235 0.31871 0.06466 0.0
C932 C 0.82598 0.38385 0.0777 0.0
C933 C 0.85766 0.41365 0.08187 0.0
C934 C 0.79478 0.38615 0.0766 0.0
C935 C 0.76109 0.35649 0.07131 0.0
C936 C 0.76014 0.34119 0.0587 0.0
C937 C 0.72838 0.31311 0.05382 0.0
C938 C 0.69732 0.30025 0.06141 0.0
C939 C 0.69794 0.31551 0.07388 0.0
C940 C 0.72964 0.34358 0.07882 0.0
C941 C 0.85048 0.54304 0.08313 0.0
C942 C 0.83144 0.54492 0.09424 0.0
C943 C 0.84875 0.51117 0.07978 0.0
C944 C 0.8276 0.48058 0.08737 0.0
C945 C 0.80728 0.48192 0.09808 0.0
C946 C 0.80922 0.51389 0.1015 0.0
C947 C 0.82754 0.44742 0.08437 0.0
C948 C 0.7959 0.41782 0.08014 0.0
C949 C 0.85883 0.44539 0.08524 0.0
C950 C 0.89283 0.47571 0.08994 0.0
C951 C 0.89517 0.49131 0.10261 0.0
C952 C 0.92714 0.5203 0.10685 0.0
C953 C 0.95704 0.53374 0.09856 0.0
C954 C 0.95506 0.51815 0.08602 0.0
C955 C 0.92313 0.48919 0.08172 0.0
H956 H 0.98176 0.55619 0.10186 0.0
H957 H 0.67276 0.27851 0.05761 0.0
H958 H 0.29448 0.85779 0.24466 0.0
H959 H 0.34609 0.85291 0.23904 0.0
H960 H 0.32877 0.78862 0.27449 0.0
H961 H 0.2784 0.79577 0.28074 0.0
H962 H 0.39537 0.83464 0.27274 0.0
H963 H 0.3101 0.75353 0.24165 0.0
H964 H 0.26387 0.73278 0.22409 0.0
H965 H 0.33767 0.81117 0.1966 0.0
H966 H 0.38424 0.83273 0.21406 0.0
H967 H 0.51721 0.77997 0.25172 0.0
H968 H 0.46076 0.77718 0.25662 0.0
H969 H 0.48747 0.86289 0.22872 0.0
H970 H 0.54412 0.86593 0.22383 0.0
H971 H 0.4151 0.80231 0.22681 0.0
H972 H 0.49925 0.884 0.25937 0.0
H973 H 0.54452 0.90136 0.27716 0.0
H974 H 0.47006 0.81614 0.30224 0.0
H975 H 0.42449 0.79791 0.28448 0.0
C976 C 0.3021 0.84344 0.25149 0.0
C977 C 0.28308 0.8283 0.26343 0.0
C978 C 0.33122 0.83992 0.24807 0.0
C979 C 0.34123 0.82016 0.25627 0.0
C980 C 0.32164 0.80411 0.26801 0.0
C981 C 0.29277 0.80807 0.27154 0.0
C982 C 0.37298 0.8175 0.25287 0.0
C983 C 0.39929 0.82694 0.26276 0.0
C984 C 0.37847 0.80796 0.23978 0.0
C985 C 0.35059 0.79494 0.22921 0.0
C986 C 0.31641 0.76651 0.23189 0.0
C987 C 0.29016 0.75458 0.22195 0.0
C988 C 0.29781 0.7707 0.20925 0.0
C989 C 0.33178 0.79872 0.20645 0.0
C990 C 0.35813 0.81079 0.21636 0.0
C991 C 0.51092 0.79808 0.24659 0.0
C992 C 0.53514 0.82355 0.23757 0.0
C993 C 0.47878 0.79648 0.2494 0.0
C994 C 0.47021 0.81998 0.24308 0.0
C995 C 0.49379 0.84463 0.23371 0.0
C996 C 0.52619 0.84657 0.23104 0.0
C997 C 0.43716 0.81967 0.24664 0.0
C998 C 0.41078 0.8097 0.23679 0.0
C999 C 0.43133 0.82818 0.2598 0.0
C1000 C 0.45859 0.83936 0.27054 0.0
C1001 C 0.49262 0.86877 0.26862 0.0
C1002 C 0.51832 0.8788 0.27871 0.0
C1003 C 0.5102 0.85981 0.29081 0.0
C1004 C 0.47633 0.83079 0.29285 0.0
C1005 C 0.45055 0.82061 0.28278 0.0
H1006 H 0.53013 0.86761 0.29861 0.0
H1007 H 0.27744 0.76143 0.20157 0.0
H1008 H 0.27058 0.95252 0.30003 0.0
H1009 H 0.29516 0.99169 0.31954 0.0
H1010 H 0.28289 0.0719 0.29888 0.0
H1011 H 0.25845 0.03308 0.2793 0.0
H1012 H 0.34128 0.10088 0.31635 0.0
H1013 H 0.21697 0.01569 0.31676 0.0
H1014 H 0.16537 0.9556 0.31448 0.0
H1015 H 0.20237 0.92018 0.34791 0.0
H1016 H 0.25463 0.97999 0.35021 0.0
H1017 H 0.298 0.18191 0.37056 0.0
H1018 H 0.29905 0.15151 0.3498 0.0
H1019 H 0.31464 0.07753 0.37359 0.0
H1020 H 0.31395 0.10819 0.3943 0.0
H1021 H 0.25892 0.04521 0.35494 0.0
H1022 H 0.38136 0.13644 0.35558 0.0
H1023 H 0.43095 0.19791 0.35684 0.0
H1024 H 0.3941 0.22404 0.32081 0.0
H1025 H 0.34395 0.16282 0.31944 0.0
C1026 C 0.27433 0.97897 0.2994 0.0
C1027 C 0.26188 0.98937 0.28819 0.0
C1028 C 0.28825 0.00129 0.31061 0.0
C1029 C 0.29005 0.03435 0.31076 0.0
C1030 C 0.28151 0.04641 0.299 0.0
C1031 C 0.26746 0.02408 0.28782 0.0
C1032 C 0.29538 0.05376 0.32365 0.0
C1033 C 0.32329 0.08881 0.32479 0.0
C1034 C 0.27181 0.03794 0.33464 0.0
C1035 C 0.23993 0.00219 0.33356 0.0
C1036 C 0.21422 0.99503 0.32357 0.0
C1037 C 0.18486 0.96103 0.32227 0.0
C1038 C 0.18066 0.93406 0.33101 0.0
C1039 C 0.20572 0.94109 0.34112 0.0
C1040 C 0.23523 0.97503 0.34243 0.0
C1041 C 0.30228 0.15955 0.37127 0.0
C1042 C 0.3063 0.14749 0.38391 0.0
C1043 C 0.30288 0.14222 0.35946 0.0
C1044 C 0.30714 0.11238 0.36016 0.0
C1045 C 0.31147 0.10057 0.37282 0.0
C1046 C 0.31126 0.11813 0.38461 0.0
C1047 C 0.30507 0.09235 0.34774 0.0
C1048 C 0.27738 0.05717 0.34662 0.0
C1049 C 0.32848 0.10832 0.33672 0.0
C1050 C 0.35872 0.1451 0.33747 0.0
C1051 C 0.38366 0.15536 0.34798 0.0
C1052 C 0.4119 0.19015 0.34871 0.0
C1053 C 0.41563 0.21489 0.33893 0.0
C1054 C 0.39116 0.20486 0.32839 0.0
C1055 C 0.36284 0.1701 0.32762 0.0
H1056 H 0.43752 0.24181 0.3395 0.0
H1057 H 0.15798 0.90774 0.32994 0.0
H1058 H 0.30732 0.24075 0.47087 0.0
H1059 H 0.28415 0.25772 0.49021 0.0
H1060 H 0.20691 0.26254 0.46453 0.0
H1061 H 0.22909 0.2443 0.44517 0.0
H1062 H 0.24692 0.31933 0.48945 0.0
H1063 H 0.1695 0.19613 0.47553 0.0
H1064 H 0.16003 0.13809 0.46806 0.0
H1065 H 0.20948 0.12963 0.50422 0.0
H1066 H 0.22028 0.18823 0.51174 0.0
H1067 H 0.11727 0.29553 0.5392 0.0
H1068 H 0.14769 0.29502 0.51836 0.0
H1069 H 0.19388 0.24133 0.53948 0.0
H1070 H 0.16307 0.24139 0.56015 0.0
H1071 H 0.16983 0.21098 0.51603 0.0
H1072 H 0.24193 0.33065 0.53131 0.0
H1073 H 0.25416 0.38961 0.53881 0.0
H1074 H 0.21707 0.40589 0.5008 0.0
H1075 H 0.20409 0.34675 0.49314 0.0
C1076 C 0.28629 0.2467 0.46921 0.0
C1077 C 0.26991 0.24104 0.4565 0.0
C1078 C 0.273 0.25626 0.48029 0.0
C1079 C 0.24373 0.26114 0.47877 0.0
C1080 C 0.22959 0.25897 0.46586 0.0
C1081 C 0.24229 0.24856 0.45482 0.0
C1082 C 0.22475 0.26295 0.49087 0.0
C1083 C 0.22967 0.29569 0.4952 0.0
C1084 C 0.20289 0.23213 0.49846 0.0
C1085 C 0.19616 0.19678 0.49409 0.0
C1086 C 0.17882 0.18213 0.4818 0.0
C1087 C 0.1732 0.14913 0.47757 0.0
C1088 C 0.18441 0.13031 0.48563 0.0
C1089 C 0.20113 0.14441 0.49796 0.0
C1090 C 0.20702 0.17751 0.50221 0.0
C1091 C 0.13401 0.28373 0.53932 0.0
C1092 C 0.13774 0.26829 0.55118 0.0
C1093 C 0.15149 0.28357 0.52746 0.0
C1094 C 0.17335 0.26835 0.52735 0.0
C1095 C 0.17711 0.2531 0.53927 0.0
C1096 C 0.15955 0.25314 0.55107 0.0
C1097 C 0.19178 0.26755 0.51479 0.0
C1098 C 0.18687 0.23481 0.51034 0.0
C1099 C 0.21371 0.29847 0.50715 0.0
C1100 C 0.2217 0.33412 0.5117 0.0
C1101 C 0.23612 0.34669 0.52459 0.0
C1102 C 0.24323 0.38015 0.52886 0.0
C1103 C 0.23631 0.40144 0.5203 0.0
C1104 C 0.22237 0.38934 0.50743 0.0
C1105 C 0.21515 0.35586 0.50311 0.0
H1106 H 0.24184 0.42735 0.52363 0.0
H1107 H 0.17997 0.10472 0.48237 0.0
H1108 H 0.88684 0.19453 0.72687 0.0
H1109 H 0.91702 0.22312 0.7058 0.0
H1110 H 0.85595 0.12403 0.68465 0.0
H1111 H 0.82672 0.09525 0.7059 0.0
H1112 H 0.92096 0.15161 0.67758 0.0
H1113 H 0.84207 0.19772 0.68123 0.0
H1114 H 0.81357 0.22772 0.69228 0.0
H1115 H 0.91441 0.32304 0.6957 0.0
H1116 H 0.94361 0.29345 0.68485 0.0
H1117 H 0.97539 0.21389 0.613 0.0
H1118 H 0.93426 0.19596 0.63197 0.0
H1119 H 0.0095 0.28792 0.65433 0.0
H1120 H 0.05077 0.30642 0.63519 0.0
H1121 H 0.93651 0.26544 0.66038 0.0
H1122 H 0.01478 0.21693 0.65759 0.0
H1123 H 0.04205 0.18703 0.64557 0.0
H1124 H 0.93953 0.09502 0.63998 0.0
H1125 H 0.91159 0.12465 0.65177 0.0
C1126 C 0.87955 0.17909 0.71766 0.0
C1127 C 0.85426 0.14285 0.71791 0.0
C1128 C 0.8967 0.19544 0.7056 0.0
C1129 C 0.88845 0.17595 0.69352 0.0
C1130 C 0.86277 0.13972 0.69379 0.0
C1131 C 0.84597 0.1233 0.70589 0.0
C1132 C 0.90799 0.19271 0.68078 0.0
C1133 C 0.92373 0.17618 0.67375 0.0
C1134 C 0.91258 0.22533 0.67587 0.0
C1135 C 0.89507 0.24325 0.68234 0.0
C1136 C 0.85821 0.225 0.68443 0.0
C1137 C 0.84192 0.24194 0.69064 0.0
C1138 C 0.86218 0.27724 0.69472 0.0
C1139 C 0.89876 0.29569 0.69255 0.0
C1140 C 0.91519 0.27885 0.68636 0.0
C1141 C 0.98267 0.23104 0.62175 0.0
C1142 C 0.01646 0.26134 0.62268 0.0
C1143 C 0.95917 0.22068 0.63261 0.0
C1144 C 0.9692 0.24014 0.64468 0.0
C1145 C 0.00133 0.27244 0.64512 0.0
C1146 C 0.02485 0.28306 0.63416 0.0
C1147 C 0.94881 0.22399 0.65724 0.0
C1148 C 0.9333 0.24073 0.66425 0.0
C1149 C 0.94418 0.19142 0.66214 0.0
C1150 C 0.96107 0.17312 0.65546 0.0
C1151 C 0.99804 0.19038 0.65375 0.0
C1152 C 0.01362 0.17349 0.64697 0.0
C1153 C 0.99252 0.13917 0.64198 0.0
C1154 C 0.95583 0.12162 0.64383 0.0
C1155 C 0.94011 0.13843 0.65057 0.0
H1156 H 0.00462 0.12616 0.63672 0.0
H1157 H 0.84952 0.29031 0.69952 0.0
H1158 H 0.74911 0.06179 0.80474 0.0
H1159 H 0.72678 0.02185 0.82419 0.0
H1160 H 0.71882 0.93652 0.79968 0.0
H1161 H 0.74213 0.97656 0.78026 0.0
H1162 H 0.66239 0.91714 0.82091 0.0
H1163 H 0.78877 0.97783 0.81354 0.0
H1164 H 0.8478 0.02997 0.80986 0.0
H1165 H 0.84129 0.07258 0.84814 0.0
H1166 H 0.78149 0.0214 0.85177 0.0
H1167 H 0.68516 0.80984 0.87062 0.0
H1168 H 0.68549 0.84329 0.85055 0.0
H1169 H 0.71987 0.9365 0.8752 0.0
H1170 H 0.72005 0.90318 0.8951 0.0
H1171 H 0.76036 0.95177 0.85372 0.0
H1172 H 0.63551 0.89074 0.86186 0.0
H1173 H 0.57628 0.83902 0.86577 0.0
H1174 H 0.58003 0.79681 0.82703 0.0
H1175 H 0.63956 0.84806 0.82297 0.0
C1176 C 0.74132 0.0342 0.80334 0.0
C1177 C 0.74757 0.02234 0.791 0.0
C1178 C 0.72874 0.01147 0.81449 0.0
C1179 C 0.72155 0.97639 0.81338 0.0
C1180 C 0.72421 0.9635 0.80072 0.0
C1181 C 0.73753 0.9864 0.78965 0.0
C1182 C 0.71657 0.95502 0.82568 0.0
C1183 C 0.68378 0.92448 0.82807 0.0
C1184 C 0.74447 0.96498 0.83507 0.0
C1185 C 0.78029 0.99607 0.8328 0.0
C1186 C 0.79958 0.99864 0.82105 0.0
C1187 C 0.83322 0.02803 0.81897 0.0
C1188 C 0.84817 0.05474 0.8287 0.0
C1189 C 0.82953 0.05206 0.84054 0.0
C1190 C 0.7957 0.02293 0.84259 0.0
C1191 C 0.69221 0.83731 0.87169 0.0
C1192 C 0.70249 0.8541 0.88429 0.0
C1193 C 0.69231 0.85638 0.86028 0.0
C1194 C 0.70254 0.89244 0.86136 0.0
C1195 C 0.71192 0.90879 0.87409 0.0
C1196 C 0.71189 0.88979 0.88544 0.0
C1197 C 0.70592 0.91387 0.84916 0.0
C1198 C 0.73868 0.94445 0.8467 0.0
C1199 C 0.67796 0.90393 0.83978 0.0
C1200 C 0.64216 0.87308 0.84217 0.0
C1201 C 0.62385 0.87029 0.85422 0.0
C1202 C 0.59019 0.84108 0.85646 0.0
C1203 C 0.57444 0.8146 0.84667 0.0
C1204 C 0.59229 0.81732 0.83461 0.0
C1205 C 0.62598 0.84646 0.83233 0.0
H1206 H 0.54837 0.79202 0.84841 0.0
H1207 H 0.87429 0.07738 0.82711 0.0
H1208 H 0.78884 0.77226 0.94873 0.0
H1209 H 0.80738 0.75177 0.9683 0.0
H1210 H 0.70803 0.72187 0.98798 0.0
H1211 H 0.68935 0.74282 0.96839 0.0
H1212 H 0.76312 0.76441 0.00377 0.0
H1213 H 0.72949 0.65921 0.97856 0.0
H1214 H 0.72684 0.62352 0.95882 0.0
H1215 H 0.83959 0.66748 0.96051 0.0
H1216 H 0.84301 0.70384 0.98015 0.0
H1217 H 0.80731 0.69685 0.06142 0.0
H1218 H 0.77732 0.6983 0.04065 0.0
H1219 H 0.87635 0.7425 0.01903 0.0
H1220 H 0.90645 0.74133 0.03989 0.0
H1221 H 0.817 0.68762 0.00467 0.0
H1222 H 0.85115 0.79617 0.02833 0.0
H1223 H 0.85468 0.83249 0.04798 0.0
H1224 H 0.74124 0.7826 0.0489 0.0
H1225 H 0.73698 0.74548 0.02938 0.0
C1226 C 0.77046 0.76047 0.95706 0.0
C1227 C 0.73765 0.75939 0.957 0.0
C1228 C 0.78111 0.74865 0.96826 0.0
C1229 C 0.75916 0.73529 0.97966 0.0
C1230 C 0.72546 0.73215 0.97932 0.0
C1231 C 0.71468 0.74386 0.96805 0.0
C1232 C 0.77302 0.72822 0.99232 0.0
C1233 C 0.77414 0.74695 0.00403 0.0
C1234 C 0.78845 0.70633 0.99258 0.0
C1235 C 0.78653 0.68446 0.98078 0.0
C1236 C 0.75377 0.66149 0.97466 0.0
C1237 C 0.75212 0.64109 0.9635 0.0
C1238 C 0.78303 0.64329 0.9584 0.0
C1239 C 0.81566 0.66583 0.96447 0.0
C1240 C 0.81747 0.6863 0.97563 0.0
C1241 C 0.82249 0.7064 0.05217 0.0
C1242 C 0.85903 0.71868 0.05214 0.0
C1243 C 0.80542 0.70735 0.04036 0.0
C1244 C 0.82462 0.72051 0.02831 0.0
C1245 C 0.86103 0.73205 0.0282 0.0
C1246 C 0.87818 0.73148 0.04008 0.0
C1247 C 0.80701 0.72381 0.016 0.0
C1248 C 0.80544 0.7046 0.0044 0.0
C1249 C 0.79124 0.74533 0.0158 0.0
C1250 C 0.79372 0.76772 0.0275 0.0
C1251 C 0.82693 0.79268 0.0328 0.0
C1252 C 0.82908 0.81346 0.0439 0.0
C1253 C 0.79821 0.80979 0.04971 0.0
C1254 C 0.76513 0.78537 0.04441 0.0
C1255 C 0.76283 0.76445 0.03332 0.0
H1256 H 0.79992 0.82592 0.05829 0.0
H1257 H 0.7817 0.62747 0.94976 0.0
H1258 H 0.94658 0.68516 0.13618 0.0
H1259 H 0.98565 0.70188 0.15588 0.0
H1260 H 0.06288 0.79638 0.13528 0.0
H1261 H 0.02422 0.7798 0.11558 0.0
H1262 H 0.09458 0.77032 0.15264 0.0
H1263 H 0.00216 0.80075 0.15344 0.0
H1264 H 0.93997 0.78653 0.15158 0.0
H1265 H 0.91167 0.71444 0.18496 0.0
H1266 H 0.97358 0.72788 0.18687 0.0
H1267 H 0.17461 0.89769 0.20538 0.0
H1268 H 0.14266 0.86466 0.18509 0.0
H1269 H 0.07129 0.77634 0.21003 0.0
H1270 H 0.10326 0.80941 0.23028 0.0
H1271 H 0.03614 0.7935 0.19117 0.0
H1272 H 0.13262 0.77061 0.19194 0.0
H1273 H 0.19525 0.78609 0.19307 0.0
H1274 H 0.21704 0.84611 0.15642 0.0
H1275 H 0.15462 0.83143 0.15517 0.0
C1276 C 0.97246 0.70876 0.13563 0.0
C1277 C 0.98207 0.73143 0.12439 0.0
C1278 C 0.99467 0.71842 0.14695 0.0
C1279 C 0.02682 0.75079 0.14715 0.0
C1280 C 0.03813 0.77141 0.13539 0.0
C1281 C 0.01592 0.7619 0.12413 0.0
C1282 C 0.04604 0.76576 0.16004 0.0
C1283 C 0.08189 0.77546 0.16106 0.0
C1284 C 0.0294 0.7723 0.17106 0.0
C1285 C 0.99238 0.76503 0.17021 0.0
C1286 C 0.98261 0.78176 0.16034 0.0
C1287 C 0.94742 0.77385 0.15928 0.0
C1288 C 0.92183 0.74953 0.16812 0.0
C1289 C 0.93145 0.73324 0.1781 0.0
C1290 C 0.9666 0.741 0.17919 0.0
C1291 C 0.15223 0.87115 0.20645 0.0
C1292 C 0.14147 0.85585 0.21929 0.0
C1293 C 0.13409 0.85226 0.1949 0.0
C1294 C 0.10479 0.81785 0.19603 0.0
C1295 C 0.09389 0.80274 0.20891 0.0
C1296 C 0.11219 0.82152 0.22044 0.0
C1297 C 0.08481 0.79814 0.18382 0.0
C1298 C 0.0488 0.78783 0.18287 0.0
C1299 C 0.10145 0.79139 0.17285 0.0
C1300 C 0.13899 0.80016 0.17353 0.0
C1301 C 0.15082 0.78735 0.18418 0.0
C1302 C 0.18628 0.79593 0.18483 0.0
C1303 C 0.21012 0.81713 0.17484 0.0
C1304 C 0.19854 0.82972 0.16416 0.0
C1305 C 0.16312 0.82124 0.16347 0.0
H1306 H 0.23756 0.82375 0.17536 0.0
H1307 H 0.89459 0.74337 0.16723 0.0
H1308 H 0.04925 0.73983 0.53414 0.0
H1309 H 0.00774 0.71953 0.51511 0.0
H1310 H 0.9347 0.73748 0.53843 0.0
H1311 H 0.97602 0.75812 0.55737 0.0
H1312 H 0.93467 0.67153 0.5087 0.0
H1313 H 0.9162 0.79055 0.51982 0.0
H1314 H 0.94683 0.84727 0.53219 0.0
H1315 H 0.04694 0.85339 0.52515 0.0
H1316 H 0.01697 0.79701 0.51261 0.0
H1317 H 0.80805 0.67241 0.46231 0.0
H1318 H 0.84014 0.67335 0.48289 0.0
H1319 H 0.93443 0.76459 0.46769 0.0
H1320 H 0.90253 0.76357 0.44725 0.0
H1321 H 0.92409 0.77423 0.49335 0.0
H1322 H 0.92523 0.68239 0.46709 0.0
H1323 H 0.89871 0.62671 0.4541 0.0
H1324 H 0.84096 0.56879 0.48921 0.0
H1325 H 0.86672 0.62424 0.50236 0.0
C1326 C 0.02376 0.73812 0.5354 0.0
C1327 C 0.01616 0.75114 0.54717 0.0
C1328 C 7e-05 0.72654 0.5245 0.0
C1329 C 0.96851 0.72773 0.52528 0.0
C1330 C 0.95914 0.73682 0.53757 0.0
C1331 C 0.98281 0.74859 0.54839 0.0
C1332 C 0.94846 0.72536 0.51284 0.0
C1333 C 0.93212 0.69383 0.50535 0.0
C1334 C 0.94587 0.75479 0.50832 0.0
C1335 C 0.96428 0.78943 0.51539 0.0
C1336 C 0.94477 0.80414 0.52084 0.0
C1337 C 0.962 0.83619 0.5279 0.0
C1338 C -0.00121 0.85387 0.52948 0.0
C1339 C 0.01844 0.83964 0.52395 0.0
C1340 C 0.00134 0.80763 0.51687 0.0
C1341 C 0.83562 0.69258 0.46343 0.0
C1342 C 0.85277 0.71811 0.4533 0.0
C1343 C 0.85395 0.69306 0.47513 0.0
C1344 C 0.88978 0.71898 0.47682 0.0
C1345 C 0.90679 0.74447 0.46667 0.0
C1346 C 0.88853 0.74396 0.45502 0.0
C1347 C 0.90966 0.72014 0.4892 0.0
C1348 C 0.92619 0.75166 0.49669 0.0
C1349 C 0.91293 0.69091 0.49352 0.0
C1350 C 0.89762 0.65752 0.48567 0.0
C1351 C 0.90666 0.65782 0.47201 0.0
C1352 C 0.8918 0.6263 0.46462 0.0
C1353 C 0.86809 0.59424 0.47082 0.0
C1354 C 0.85928 0.59364 0.48442 0.0
C1355 C 0.87402 0.62511 0.49185 0.0
H1356 H 0.85662 0.56986 0.46508 0.0
H1357 H 0.01206 0.87862 0.53498 0.0
H1358 H 0.09751 0.83344 0.6311 0.0
H1359 H 0.12863 0.86493 0.65172 0.0
H1360 H 0.22847 0.90914 0.63066 0.0
H1361 H 0.19733 0.87801 0.61003 0.0
H1362 H 0.18186 0.86638 0.66768 0.0
H1363 H 0.27847 0.99667 0.64081 0.0
H1364 H 0.28271 0.02837 0.61962 0.0
H1365 H 0.16925 0.97695 0.61752 0.0
H1366 H 0.16437 0.94545 0.63879 0.0
H1367 H 0.31208 0.05136 0.70255 0.0
H1368 H 0.2961 0.00922 0.68384 0.0
H1369 H 0.19072 0.94725 0.70021 0.0
H1370 H 0.20656 0.98848 0.71892 0.0
H1371 H 0.24793 0.99759 0.66517 0.0
H1372 H 0.15165 0.86259 0.69067 0.0
H1373 H 0.14672 0.83122 0.71199 0.0
H1374 H 0.25944 0.89256 0.71735 0.0
H1375 H 0.26514 0.92396 0.69597 0.0
C1376 C 0.12614 0.84945 0.63099 0.0
C1377 C 0.1451 0.85313 0.61907 0.0
C1378 C 0.14389 0.86732 0.64275 0.0
C1379 C 0.18086 0.88954 0.64271 0.0
C1380 C 0.19994 0.89228 0.6309 0.0
C1381 C 0.18219 0.87431 0.61917 0.0
C1382 C 0.19901 0.91168 0.65473 0.0
C1383 C 0.19619 0.89507 0.66718 0.0
C1384 C 0.21851 0.94911 0.65398 0.0
C1385 C 0.2211 0.96836 0.6413 0.0
C1386 C 0.25445 0.99223 0.63584 0.0
C1387 C 0.25696 0.01017 0.62382 0.0
C1388 C 0.22627 0.00458 0.6172 0.0
C1389 C 0.193 0.98117 0.62262 0.0
C1390 C 0.19035 0.96324 0.63466 0.0
C1391 C 0.28584 0.02819 0.70237 0.0
C1392 C 0.26056 0.02345 0.71222 0.0
C1393 C 0.27666 0.00424 0.69161 0.0
C1394 C 0.24221 0.97494 0.6906 0.0
C1395 C 0.21762 0.96924 0.70082 0.0
C1396 C 0.22672 0.99307 0.71152 0.0
C1397 C 0.23051 0.95238 0.67825 0.0
C1398 C 0.23431 0.96891 0.6657 0.0
C1399 C 0.21189 0.91489 0.67893 0.0
C1400 C 0.20877 0.89582 0.69174 0.0
C1401 C 0.17541 0.86926 0.69635 0.0
C1402 C 0.17248 0.8515 0.70846 0.0
C1403 C 0.20274 0.85995 0.71603 0.0
C1404 C 0.23601 0.88612 0.7115 0.0
C1405 C 0.2391 0.90396 0.69939 0.0
H1406 H 0.2004 0.84618 0.72541 0.0
H1407 H 0.22827 0.01845 0.60788 0.0
H1408 H 0.23476 0.21353 0.88939 0.0
H1409 H 0.25743 0.19756 0.86968 0.0
H1410 H 0.2751 0.2925 0.84935 0.0
H1411 H 0.25257 0.30881 0.86911 0.0
H1412 H 0.23351 0.23222 0.83465 0.0
H1413 H 0.34445 0.28388 0.8574 0.0
H1414 H 0.38551 0.29506 0.87631 0.0
H1415 H 0.35809 0.18581 0.87611 0.0
H1416 H 0.31644 0.17383 0.85731 0.0
H1417 H 0.30292 0.19622 0.77569 0.0
H1418 H 0.30136 0.22642 0.7964 0.0
H1419 H 0.27454 0.13241 0.8195 0.0
H1420 H 0.27562 0.10205 0.7987 0.0
H1421 H 0.32548 0.1971 0.83234 0.0
H1422 H 0.21181 0.14479 0.81082 0.0
H1423 H 0.17014 0.133 0.79209 0.0
H1424 H 0.20162 0.24327 0.79046 0.0
H1425 H 0.24419 0.25589 0.80898 0.0
C1426 C 0.24438 0.23154 0.88087 0.0
C1427 C 0.24173 0.2624 0.88081 0.0
C1428 C 0.25739 0.22238 0.8696 0.0
C1429 C 0.26787 0.24377 0.85801 0.0
C1430 C 0.26713 0.27559 0.85819 0.0
C1431 C 0.25449 0.28502 0.86954 0.0
C1432 C 0.2759 0.23092 0.84533 0.0
C1433 C 0.25417 0.22531 0.83406 0.0
C1434 C 0.30212 0.22088 0.84468 0.0
C1435 C 0.32707 0.2279 0.85602 0.0
C1436 C 0.34692 0.26215 0.86147 0.0
C1437 C 0.37036 0.26865 0.87215 0.0
C1438 C 0.37435 0.24115 0.87743 0.0
C1439 C 0.35495 0.20709 0.87201 0.0
C1440 C 0.33144 0.20044 0.86133 0.0
C1441 C 0.29729 0.18233 0.78525 0.0
C1442 C 0.28959 0.14702 0.78573 0.0
C1443 C 0.2963 0.19948 0.79703 0.0
C1444 C 0.28773 0.1816 0.80947 0.0
C1445 C 0.28137 0.14671 0.81001 0.0
C1446 C 0.28193 0.1294 0.79818 0.0
C1447 C 0.28311 0.19849 0.82173 0.0
C1448 C 0.30523 0.20457 0.83291 0.0
C1449 C 0.25716 0.20889 0.82233 0.0
C1450 C 0.23163 0.20138 0.81116 0.0
C1451 C 0.21022 0.16662 0.80636 0.0
C1452 C 0.18637 0.15976 0.79579 0.0
C1453 C 0.18333 0.18739 0.79006 0.0
C1454 C 0.2041 0.22192 0.79489 0.0
C1455 C 0.22813 0.22895 0.80541 0.0
H1456 H 0.16479 0.18202 0.7819 0.0
H1457 H 0.39252 0.24623 0.8857 0.0
H1458 H 0.00687 0.21597 0.05488 0.0
H1459 H 0.04886 0.24038 0.0363 0.0
H1460 H 0.98845 0.28425 0.01892 0.0
H1461 H 0.94573 0.25931 0.03752 0.0
H1462 H 4e-05 0.24525 1.00084 0.0
H1463 H 0.07251 0.33833 0.03137 0.0
H1464 H 0.10316 0.36457 0.05282 0.0
H1465 H 0.16506 0.31358 0.04834 0.0
H1466 H 0.13444 0.2866 0.02696 0.0
H1467 H 0.1179 0.31275 0.9456 0.0
H1468 H 0.0861 0.31229 0.96606 0.0
H1469 H 0.13738 0.26532 0.98828 0.0
H1470 H 0.17005 0.2668 0.96784 0.0
H1471 H 0.13124 0.31314 0.00369 0.0
H1472 H 0.05499 0.2148 0.97526 0.0
H1473 H 0.02409 0.18609 0.95412 0.0
H1474 H 0.96868 0.24432 0.95517 0.0
H1475 H -0.00027 0.27384 0.97622 0.0
C1476 C 0.00282 0.23147 0.04729 0.0
C1477 C 0.97274 0.23547 0.04767 0.0
C1478 C 0.02705 0.2456 0.03667 0.0
C1479 C 0.02196 0.26428 0.02619 0.0
C1480 C 0.99295 0.26994 0.02689 0.0
C1481 C 0.96867 0.25587 0.03758 0.0
C1482 C 0.04487 0.27452 0.01396 0.0
C1483 C 0.02871 0.26087 1.00143 0.0
C1484 C 0.08234 0.29391 0.01476 0.0
C1485 C 0.10099 0.31026 0.02759 0.0
C1486 C 0.09248 0.3325 0.035 0.0
C1487 C 0.10989 0.34755 0.04715 0.0
C1488 C 0.136 0.3407 0.05195 0.0
C1489 C 0.14482 0.31885 0.04461 0.0
C1490 C 0.12749 0.30373 0.03246 0.0
C1491 C 0.12298 0.30313 0.95494 0.0
C1492 C 0.14648 0.28993 0.95521 0.0
C1493 C 0.10458 0.30258 0.96659 0.0
C1494 C 0.10896 0.28832 0.97868 0.0
C1495 C 0.13355 0.27645 0.97908 0.0
C1496 C 0.15209 0.27717 0.96743 0.0
C1497 C 0.08635 0.2837 0.99065 0.0
C1498 C 0.10256 0.29814 0.0031 0.0
C1499 C 0.04888 0.26474 0.98983 0.0
C1500 C 0.02999 0.24683 0.97723 0.0
C1501 C 0.03643 0.22169 0.97093 0.0
C1502 C 0.01886 0.20524 0.95897 0.0
C1503 C 0.99451 0.21345 0.95329 0.0
C1504 C 0.98761 0.23805 0.95957 0.0
C1505 C 0.00518 0.25464 0.97152 0.0
H1506 H 0.98092 0.20068 0.94403 0.0
H1507 H 0.14943 0.35237 0.06136 0.0
H1508 H 0.78441 0.01063 0.22082 0.0
H1509 H 0.80055 0.05294 0.20245 0.0
H1510 H 0.6954 0.99197 0.1858 0.0
H1511 H 0.67912 0.94881 0.20415 0.0
H1512 H 0.74364 0.00355 0.16726 0.0
H1513 H 0.72695 0.07715 0.19829 0.0
H1514 H 0.73287 0.1083 0.21974 0.0
H1515 H 0.84563 0.16903 0.21439 0.0
H1516 H 0.84048 0.13791 0.19299 0.0
H1517 H 0.79473 0.12241 0.11221 0.0
H1518 H 0.76349 0.09264 0.13301 0.0
H1519 H 0.86345 0.13582 0.15392 0.0
H1520 H 0.89469 0.16595 0.13311 0.0
H1521 H 0.81037 0.13473 0.17002 0.0
H1522 H 0.82747 0.05571 0.14101 0.0
H1523 H 0.82262 0.02452 0.11966 0.0
H1524 H 0.70917 0.97349 0.12166 0.0
H1525 H 0.71338 0.00494 0.14292 0.0
C1526 C 0.76435 0.00654 0.21345 0.0
C1527 C 0.73051 0.97609 0.21392 0.0
C1528 C 0.77362 0.03098 0.20295 0.0
C1529 C 0.74921 0.0258 0.19272 0.0
C1530 C 0.7147 0.99654 0.19358 0.0
C1531 C 0.70535 0.97199 0.20413 0.0
C1532 C 0.7612 0.04861 0.18044 0.0
C1533 C 0.75739 0.03223 0.16786 0.0
C1534 C 0.78007 0.08609 0.1812 0.0
C1535 C 0.78332 0.10501 0.19406 0.0
C1536 C 0.75304 0.09697 0.20173 0.0
C1537 C 0.75626 0.11466 0.21388 0.0
C1538 C 0.78961 0.14059 0.21844 0.0
C1539 C 0.81981 0.14894 0.21084 0.0
C1540 C 0.81675 0.13132 0.19869 0.0
C1541 C 0.80989 0.12622 0.12134 0.0
C1542 C 0.84705 0.14643 0.12112 0.0
C1543 C 0.79208 0.10906 0.13319 0.0
C1544 C 0.81116 0.11173 0.14498 0.0
C1545 C 0.8482 0.13344 0.14494 0.0
C1546 C 0.86601 0.15053 0.13308 0.0
C1547 C 0.79295 0.08956 0.15699 0.0
C1548 C 0.79587 0.10605 0.16947 0.0
C1549 C 0.77332 0.05214 0.15618 0.0
C1550 C 0.77075 0.03301 0.14346 0.0
C1551 C 0.80149 0.03808 0.13684 0.0
C1552 C 0.79887 0.02032 0.12476 0.0
C1553 C 0.76561 0.99711 0.11929 0.0
C1554 C 0.73491 0.99154 0.1259 0.0
C1555 C 0.7374 0.00933 0.13796 0.0
H1556 H 0.76362 0.98336 0.10994 0.0
H1557 H 0.79204 0.15425 0.22785 0.0
H1558 H 0.76883 0.70947 0.36419 0.0
H1559 H 0.74635 0.72793 0.34527 0.0
H1560 H 0.68722 0.75553 0.37289 0.0
H1561 H 0.71315 0.74054 0.39198 0.0
H1562 H 0.69494 0.7172 0.33265 0.0
H1563 H 0.67854 0.82275 0.36193 0.0
H1564 H 0.70161 0.85998 0.38233 0.0
H1565 H 0.79748 0.85537 0.37966 0.0
H1566 H 0.77515 0.8184 0.3592 0.0
H1567 H 0.65249 0.79886 0.28069 0.0
H1568 H 0.64844 0.76923 0.30204 0.0
H1569 H 0.74226 0.86285 0.31621 0.0
H1570 H 0.74327 0.89394 0.29567 0.0
H1571 H 0.70791 0.83647 0.33629 0.0
H1572 H 0.73903 0.78395 0.3002 0.0
H1573 H 0.73206 0.75383 0.27838 0.0
H1574 H 0.63502 0.66469 0.29227 0.0
H1575 H 0.64123 0.69451 0.31413 0.0
C1576 C 0.75035 0.7187 0.3662 0.0
C1577 C 0.74272 0.72365 0.37951 0.0
C1578 C 0.73746 0.72936 0.35534 0.0
C1579 C 0.71576 0.74426 0.35754 0.0
C1580 C 0.70505 0.74556 0.37086 0.0
C1581 C 0.71931 0.7364 0.38177 0.0
C1582 C 0.70716 0.76087 0.34601 0.0
C1583 C 0.69774 0.74327 0.3335 0.0
C1584 C 0.71124 0.79521 0.34688 0.0
C1585 C 0.72495 0.81745 0.35916 0.0
C1586 C 0.70455 0.82973 0.3657 0.0
C1587 C 0.71751 0.85077 0.37727 0.0
C1588 C 0.75094 0.85989 0.38232 0.0
C1589 C 0.77156 0.84814 0.37578 0.0
C1590 C 0.75876 0.82713 0.3642 0.0
C1591 C 0.67138 0.81362 0.28856 0.0
C1592 C 0.69836 0.84881 0.28642 0.0
C1593 C 0.66957 0.79631 0.3007 0.0
C1594 C 0.69576 0.81317 0.31068 0.0
C1595 C 0.72174 0.84887 0.30875 0.0
C1596 C 0.72262 0.86659 0.29688 0.0
C1597 C 0.6975 0.79356 0.32278 0.0
C1598 C 0.70503 0.81036 0.33544 0.0
C1599 C 0.69424 0.7596 0.32183 0.0
C1600 C 0.69035 0.74163 0.30871 0.0
C1601 C 0.71609 0.75803 0.29856 0.0
C1602 C 0.71229 0.74101 0.2862 0.0
C1603 C 0.68305 0.70742 0.28393 0.0
C1604 C 0.6576 0.69075 0.29403 0.0
C1605 C 0.66124 0.70769 0.30641 0.0
H1606 H 0.68017 0.69428 0.27435 0.0
H1607 H 0.76093 0.87616 0.39129 0.0
H1608 H 0.2145 0.08922 0.46368 0.0
H1609 H 0.20307 0.04739 0.48204 0.0
H1610 H 0.30346 0.05362 0.4746 0.0
H1611 H 0.31584 0.09677 0.45643 0.0
H1612 H 0.22681 0.97813 0.47829 0.0
H1613 H 0.31545 0.08919 0.49773 0.0
H1614 H 0.34228 0.15278 0.50284 0.0
H1615 H 0.2486 0.13266 0.52442 0.0
H1616 H 0.22064 0.06906 0.51898 0.0
H1617 H 0.19541 0.87653 0.53852 0.0
H1618 H 0.22894 0.92076 0.52113 0.0
H1619 H 0.16991 0.97361 0.52979 0.0
H1620 H 0.13682 0.93016 0.54722 0.0
H1621 H 0.23809 0.02081 0.52549 0.0
H1622 H 0.1464 0.91493 0.5039 0.0
H1623 H 0.1146 0.85123 0.4984 0.0
H1624 H 0.2094 0.8612 0.48099 0.0
H1625 H 0.24188 0.92492 0.48656 0.0
C1626 C 0.23403 0.08146 0.46585 0.0
C1627 C 0.26606 0.0962 0.45864 0.0
C1628 C 0.22751 0.05771 0.47635 0.0
C1629 C 0.25255 0.04775 0.47965 0.0
C1630 C 0.28398 0.06125 0.47217 0.0
C1631 C 0.29096 0.0858 0.46184 0.0
C1632 C 0.24563 0.02376 0.49117 0.0
C1633 C 0.23013 0.98741 0.48864 0.0
C1634 C 0.2492 0.03608 0.50459 0.0
C1635 C 0.26575 0.07439 0.50776 0.0
C1636 C 0.30029 0.09838 0.50334 0.0
C1637 C 0.31574 0.13443 0.50632 0.0
C1638 C 0.29707 0.14678 0.51388 0.0
C1639 C 0.26296 0.12307 0.51851 0.0
C1640 C 0.24726 0.08703 0.51544 0.0
C1641 C 0.18988 0.89782 0.53683 0.0
C1642 C 0.16319 0.8996 0.54419 0.0
C1643 C 0.209 0.923 0.52687 0.0
C1644 C 0.20163 0.95023 0.52408 0.0
C1645 C 0.17606 0.95285 0.53179 0.0
C1646 C 0.15702 0.92782 0.54172 0.0
C1647 C 0.21877 0.97494 0.51265 0.0
C1648 C 0.2358 0.01148 0.51518 0.0
C1649 C 0.21618 0.96274 0.49922 0.0
C1650 C 0.19666 0.92454 0.4958 0.0
C1651 C 0.16052 0.90346 0.49899 0.0
C1652 C 0.14237 0.86738 0.49585 0.0
C1653 C 0.16 0.85215 0.48939 0.0
C1654 C 0.1958 0.87302 0.48602 0.0
C1655 C 0.21409 0.90911 0.48916 0.0
H1656 H 0.14591 0.82421 0.48696 0.0
H1657 H 0.30909 0.17469 0.51621 0.0
H1658 H 0.19543 0.31889 0.6305 0.0
H1659 H 0.2335 0.31492 0.64779 0.0
H1660 H 0.18084 0.20173 0.64222 0.0
H1661 H 0.14309 0.20538 0.62495 0.0
H1662 H 0.21339 0.28069 0.67148 0.0
H1663 H 0.236 0.17129 0.64743 0.0
H1664 H 0.24697 0.15472 0.62489 0.0
H1665 H 0.28906 0.26181 0.61125 0.0
H1666 H 0.27885 0.27919 0.63375 0.0
H1667 H 0.21407 0.15783 0.71623 0.0
H1668 H 0.20738 0.19349 0.69884 0.0
H1669 H 0.3171 0.2374 0.68763 0.0
H1670 H 0.32405 0.2014 0.70501 0.0
H1671 H 0.27511 0.21187 0.6662 0.0
H1672 H 0.29002 0.2911 0.70129 0.0
H1673 H 0.28178 0.31035 0.72374 0.0
H1674 H 0.17163 0.27009 0.71514 0.0
H1675 H 0.17903 0.25011 0.69272 0.0
C1676 C 0.19228 0.29321 0.63284 0.0
C1677 C 0.16612 0.26242 0.62637 0.0
C1678 C 0.21402 0.29102 0.64272 0.0
C1679 C 0.21023 0.25811 0.64618 0.0
C1680 C 0.18467 0.2275 0.63954 0.0
C1681 C 0.16291 0.22962 0.62972 0.0
C1682 C 0.23079 0.25485 0.65742 0.0
C1683 C 0.22731 0.26606 0.67033 0.0
C1684 C 0.24984 0.23669 0.65583 0.0
C1685 C 0.2565 0.22651 0.64229 0.0
C1686 C 0.24782 0.19138 0.63965 0.0
C1687 C 0.25385 0.18182 0.62687 0.0
C1688 C 0.26865 0.20718 0.61664 0.0
C1689 C 0.27752 0.24217 0.61917 0.0
C1690 C 0.27156 0.25188 0.63194 0.0
C1691 C 0.23699 0.17546 0.71023 0.0
C1692 C 0.26951 0.17651 0.71193 0.0
C1693 C 0.23318 0.19607 0.70035 0.0
C1694 C 0.26182 0.2183 0.692 0.0
C1695 C 0.29472 0.22048 0.694 0.0
C1696 C 0.29861 0.19992 0.70394 0.0
C1697 C 0.25591 0.23594 0.68033 0.0
C1698 C 0.26207 0.22736 0.66734 0.0
C1699 C 0.23979 0.25695 0.68183 0.0
C1700 C 0.2351 0.26899 0.69532 0.0
C1701 C 0.26398 0.28614 0.70421 0.0
C1702 C 0.25946 0.29722 0.71693 0.0
C1703 C 0.2262 0.29143 0.72087 0.0
C1704 C 0.19739 0.27459 0.71208 0.0
C1705 C 0.20175 0.26344 0.69935 0.0
H1706 H 0.22276 0.30002 0.73072 0.0
H1707 H 0.27327 0.19972 0.60675 0.0
H1708 H 0.92251 0.12177 0.7927 0.0
H1709 H 0.96532 0.15079 0.81077 0.0
H1710 H 0.93185 0.22815 0.81486 0.0
H1711 H 0.88824 0.19882 0.79686 0.0
H1712 H 0.02107 0.21558 0.81466 0.0
H1713 H 0.93461 0.24643 0.8497 0.0
H1714 H 0.87156 0.22749 0.85323 0.0
H1715 H 0.84136 0.12489 0.83713 0.0
H1716 H 0.90427 0.14274 0.83396 0.0
H1717 H 0.12231 0.30859 0.87194 0.0
H1718 H 0.07931 0.29427 0.85374 0.0
H1719 H 0.01496 0.18934 0.87011 0.0
H1720 H 0.05791 0.2032 0.88828 0.0
H1721 H 0.97544 0.22088 0.86002 0.0
H1722 H 0.06858 0.19707 0.84697 0.0
H1723 H 0.13072 0.21261 0.84344 0.0
H1724 H 0.14536 0.29448 0.81567 0.0
H1725 H 0.08339 0.27974 0.81919 0.0
C1726 C 0.92441 0.14517 0.79731 0.0
C1727 C 0.90168 0.15776 0.79341 0.0
C1728 C 0.94904 0.16181 0.80762 0.0
C1729 C 0.95148 0.19136 0.81425 0.0
C1730 C 0.93003 0.20507 0.80998 0.0
C1731 C 0.9052 0.18831 0.79968 0.0
C1732 C 0.97513 0.20625 0.8261 0.0
C1733 C 0.01114 0.2171 0.82454 0.0
C1734 C 0.96207 0.20786 0.83903 0.0
C1735 C 0.92416 0.19613 0.84142 0.0
C1736 C 0.91453 0.21972 0.84702 0.0
C1737 C 0.87882 0.20914 0.84899 0.0
C1738 C 0.85249 0.17499 0.8454 0.0
C1739 C 0.86182 0.15126 0.83994 0.0
C1740 C 0.89749 0.16158 0.83807 0.0
C1741 C 0.09866 0.2827 0.87184 0.0
C1742 C 0.09367 0.25688 0.88147 0.0
C1743 C 0.07419 0.27458 0.86142 0.0
C1744 C 0.04422 0.2407 0.86056 0.0
C1745 C 0.03797 0.21565 0.87064 0.0
C1746 C 0.06261 0.22358 0.88096 0.0
C1747 C 0.02118 0.23014 0.84851 0.0
C1748 C 0.98539 0.22002 0.85007 0.0
C1749 C 0.03426 0.2287 0.8356 0.0
C1750 C 0.0715 0.2376 0.83347 0.0
C1751 C 0.08515 0.21861 0.84021 0.0
C1752 C 0.12032 0.22723 0.83819 0.0
C1753 C 0.14201 0.25458 0.82937 0.0
C1754 C 0.12855 0.27334 0.82252 0.0
C1755 C 0.09341 0.26487 0.82452 0.0
H1756 H 0.16922 0.26118 0.8278 0.0
H1757 H 0.82486 0.16692 0.84685 0.0
H1758 H 0.81954 0.04762 0.05752 0.0
H1759 H 0.79008 0.00486 0.0393 0.0
H1760 H 0.79238 0.08741 0.01449 0.0
H1761 H 0.81969 0.12956 0.03298 0.0
H1762 H 0.73693 0.02839 0.00813 0.0
H1763 H 0.86092 0.06608 0.01426 0.0
H1764 H 0.91298 0.07469 0.02722 0.0
H1765 H 0.86311 0.96262 0.03404 0.0
H1766 H 0.81055 0.95341 0.02125 0.0
H1767 H 0.79309 0.94017 0.95126 0.0
H1768 H 0.80535 0.98292 0.96928 0.0
H1769 H 0.69777 0.92042 0.98352 0.0
H1770 H 0.68501 0.8779 0.96535 0.0
H1771 H 0.80485 0.96966 0.99498 0.0
H1772 H 0.67449 0.97397 1.00088 0.0
H1773 H 0.62676 0.97106 0.98658 0.0
H1774 H 0.69742 0.00882 0.9526 0.0
H1775 H 0.74567 0.01242 0.96673 0.0
C1776 C 0.81289 0.05632 0.04829 0.0
C1777 C 0.82226 0.09189 0.04654 0.0
C1778 C 0.79624 0.03198 0.03787 0.0
C1779 C 0.79009 0.04321 0.02537 0.0
C1780 C 0.79705 0.07816 0.024 0.0
C1781 C 0.81275 0.10226 0.03456 0.0
C1782 C 0.78014 0.01993 0.01334 0.0
C1783 C 0.75163 0.01538 0.00528 0.0
C1784 C 0.79988 0.00365 0.00942 0.0
C1785 C 0.83171 0.0091 0.01691 0.0
C1786 C 0.86103 0.0433 0.01857 0.0
C1787 C 0.8906 0.04829 0.02589 0.0
C1788 C 0.89132 0.01923 0.03148 0.0
C1789 C 0.8625 0.98511 0.02972 0.0
C1790 C 0.83282 0.97999 0.02243 0.0
C1791 C 0.77183 0.93581 0.95807 0.0
C1792 C 0.73817 0.90545 0.95694 0.0
C1793 C 0.77891 0.96024 0.96838 0.0
C1794 C 0.75253 0.95479 0.97777 0.0
C1795 C 0.71843 0.92537 0.97631 0.0
C1796 C 0.71123 0.90101 0.96593 0.0
C1797 C 0.76167 0.97813 0.98973 0.0
C1798 C 0.78999 0.98254 0.99782 0.0
C1799 C 0.7424 0.99501 0.99342 0.0
C1800 C 0.71357 0.99306 0.98484 0.0
C1801 C 0.67986 0.98173 0.99037 0.0
C1802 C 0.65271 0.97996 0.98229 0.0
C1803 C 0.65902 0.98962 0.96868 0.0
C1804 C 0.69252 0.00119 0.96313 0.0
C1805 C 0.71976 0.00303 0.97116 0.0
H1806 H 0.63797 0.98823 0.96244 0.0
H1807 H 0.91422 0.02315 0.03715 0.0
H1808 H 0.8813 0.78489 0.1364 0.0
H1809 H 0.84479 0.79033 0.15394 0.0
H1810 H 0.75339 0.69516 0.13957 0.0
H1811 H 0.79015 0.68874 0.12219 0.0
H1812 H 0.75588 0.77207 0.14534 0.0
H1813 H 0.76402 0.67354 0.16315 0.0
H1814 H 0.79452 0.64088 0.16937 0.0
H1815 H 0.86231 0.72459 0.19639 0.0
H1816 H 0.83299 0.7583 0.19 0.0
H1817 H 0.67536 0.8007 0.20342 0.0
H1818 H 0.68535 0.7664 0.18612 0.0
H1819 H 0.79436 0.81302 0.19876 0.0
H1820 H 0.78461 0.84668 0.21607 0.0
H1821 H 0.76757 0.74455 0.19305 0.0
H1822 H 0.77 0.84715 0.17237 0.0
H1823 H 0.74405 0.88417 0.16621 0.0
H1824 H 0.66012 0.79658 0.14492 0.0
H1825 H 0.6854 0.75893 0.15111 0.0
C1826 C 0.8534 0.76522 0.13692 0.0
C1827 C 0.83846 0.73646 0.12794 0.0
C1828 C 0.83268 0.76827 0.14696 0.0
C1829 C 0.79661 0.74302 0.14802 0.0
C1830 C 0.78129 0.71472 0.13889 0.0
C1831 C 0.80225 0.71114 0.12902 0.0
C1832 C 0.77545 0.74694 0.15876 0.0
C1833 C 0.75742 0.76515 0.15575 0.0
C1834 C 0.77829 0.73847 0.1723 0.0
C1835 C 0.79656 0.71865 0.17595 0.0
C1836 C 0.78584 0.68528 0.17023 0.0
C1837 C 0.80286 0.66652 0.17382 0.0
C1838 C 0.83039 0.68067 0.18325 0.0
C1839 C 0.84099 0.71365 0.18909 0.0
C1840 C 0.82425 0.73265 0.18545 0.0
C1841 C 0.7013 0.80322 0.20262 0.0
C1842 C 0.7293 0.82673 0.21102 0.0
C1843 C 0.70697 0.78369 0.19272 0.0
C1844 C 0.74069 0.78747 0.19108 0.0
C1845 C 0.76811 0.80965 0.19986 0.0
C1846 C 0.76252 0.82908 0.20971 0.0
C1847 C 0.74877 0.7706 0.17971 0.0
C1848 C 0.76471 0.75027 0.18261 0.0
C1849 C 0.74441 0.77752 0.16609 0.0
C1850 C 0.72929 0.80013 0.16235 0.0
C1851 C 0.74586 0.83573 0.16647 0.0
C1852 C 0.73131 0.85683 0.16296 0.0
C1853 C 0.70039 0.8427 0.15522 0.0
C1854 C 0.68402 0.80746 0.15094 0.0
C1855 C 0.69844 0.78623 0.15445 0.0
H1856 H 0.68917 0.85907 0.15251 0.0
H1857 H 0.84344 0.66605 0.18605 0.0
H1858 H 0.91444 0.81269 0.38065 0.0
H1859 H 0.96035 0.83314 0.36335 0.0
H1860 H 0.93906 0.72628 0.3576 0.0
H1861 H 0.89315 0.70541 0.37505 0.0
H1862 H 0.01117 0.77618 0.35769 0.0
H1863 H 0.90431 0.76027 0.33638 0.0
H1864 H 0.85331 0.7697 0.33401 0.0
H1865 H 0.92396 0.88163 0.32982 0.0
H1866 H 0.97533 0.87292 0.3324 0.0
H1867 H 0.10412 0.81043 0.29545 0.0
H1868 H 0.05929 0.78581 0.31329 0.0
H1869 H 0.06186 0.88578 0.31659 0.0
H1870 H 0.10525 0.90987 0.29844 0.0
H1871 H 0.9976 0.83651 0.31755 0.0
H1872 H 0.10309 0.85668 0.34028 0.0
H1873 H 0.15671 0.85213 0.34379 0.0
H1874 H 0.09268 0.73901 0.34672 0.0
H1875 H 0.03873 0.74289 0.34302 0.0
C1876 C 0.91968 0.79349 0.37583 0.0
C1877 C 0.8999 0.75733 0.37918 0.0
C1878 C 0.94585 0.80526 0.3659 0.0
C1879 C 0.95264 0.78113 0.35907 0.0
C1880 C 0.93404 0.74526 0.36273 0.0
C1881 C 0.90778 0.7334 0.37268 0.0
C1882 C 0.97837 0.79332 0.34779 0.0
C1883 C 0.00802 0.78892 0.3488 0.0
C1884 C 0.97465 0.81083 0.33641 0.0
C1885 C 0.94368 0.81595 0.33468 0.0
C1886 C 0.90896 0.78691 0.33504 0.0
C1887 C 0.87997 0.79212 0.33365 0.0
C1888 C 0.88537 0.82624 0.33178 0.0
C1889 C 0.91978 0.8552 0.33125 0.0
C1890 C 0.94884 0.85013 0.33266 0.0
C1891 C 0.09503 0.82706 0.29998 0.0
C1892 C 0.10811 0.86201 0.29552 0.0
C1893 C 0.06958 0.81307 0.31024 0.0
C1894 C 0.05751 0.83408 0.31644 0.0
C1895 C 0.07062 0.86898 0.31196 0.0
C1896 C 0.09549 0.88273 0.30157 0.0
C1897 C 0.03082 0.81979 0.32746 0.0
C1898 C 0.00084 0.82369 0.32639 0.0
C1899 C 0.03465 0.80251 0.33891 0.0
C1900 C 0.06696 0.80006 0.34122 0.0
C1901 C 0.10051 0.83084 0.34156 0.0
C1902 C 0.13094 0.82838 0.3436 0.0
C1903 C 0.12811 0.7953 0.34543 0.0
C1904 C 0.09483 0.76461 0.34527 0.0
C1905 C 0.06432 0.76692 0.34321 0.0
H1906 H 0.15169 0.79344 0.34701 0.0
H1907 H 0.8629 0.83022 0.33073 0.0
loop_
_geom_bond_atom_site_label_1
_geom_bond_atom_site_label_2
_geom_bond_distance
_geom_bond_site_symmetry_2
_ccdc_geom_bond_type
Co0 O3 1.970 . S
Co0 N17 1.989 . S
Co0 O25 1.967 . S
Co0 O32 1.920 . S
Co1 O4 1.966 . S
Co1 N10 2.022 . S
Co1 N18 1.993 . S
Co1 O26 1.941 . S
C2 O3 1.258 . S
C2 O4 1.263 . S
O3 Co0 1.970 . S
O3 C2 1.258 . S
O4 Co1 1.966 . S
O4 C2 1.263 . S
C5 O6 1.235 . S
C5 O32 1.289 . S
O6 C5 1.235 . S
C7 C9 1.400 . S
C7 N10 1.351 . S
C7 C12 1.501 . S
C8 C9 1.387 . S
C8 N11 1.341 . S
C9 C7 1.400 . S
C9 C8 1.387 . S
N10 Co1 2.022 . S
N10 C7 1.351 . S
N10 N11 1.365 . S
N11 C8 1.341 . S
N11 N10 1.365 . S
N11 H31 0.862 . S
C12 C7 1.501 . S
C12 H13 0.961 . S
C12 H14 0.961 . S
C12 H15 0.960 . S
H13 C12 0.961 . S
H14 C12 0.961 . S
H15 C12 0.960 . S
C16 N17 1.342 . S
C16 C20 1.401 . S
C16 C21 1.499 . S
N17 Co0 1.989 . S
N17 C16 1.342 . S
N17 N18 1.388 . S
N18 Co1 1.993 . S
N18 N17 1.388 . S
N18 C19 1.346 . S
C19 N18 1.346 . S
C19 C20 1.396 . S
C19 C29 1.510 . S
C20 C16 1.401 . S
C20 C19 1.396 . S
C21 C16 1.499 . S
C21 H22 0.959 . S
C21 H23 0.960 . S
C21 H24 0.961 . S
H22 C21 0.959 . S
H23 C21 0.960 . S
H24 C21 0.961 . S
O25 Co0 1.967 . S
O25 C33 1.258 . S
O26 Co1 1.941 . S
O26 C33 1.266 . S
H27 C29 0.959 . S
H28 C29 0.961 . S
C29 C19 1.510 . S
C29 H27 0.959 . S
C29 H28 0.961 . S
C29 H30 0.960 . S
H30 C29 0.960 . S
H31 N11 0.862 . S
O32 Co0 1.920 . S
O32 C5 1.289 . S
C33 O25 1.258 . S
C33 O26 1.266 . S
Co34 O37 1.970 . S
Co34 N51 1.989 . S
Co34 O59 1.967 . S
Co34 O66 1.920 . S
Co35 O38 1.966 . S
Co35 N44 2.022 . S
Co35 N52 1.993 . S
Co35 O60 1.941 . S
C36 O37 1.258 . S
C36 O38 1.263 . S
O37 Co34 1.970 . S
O37 C36 1.258 . S
O38 Co35 1.966 . S
O38 C36 1.263 . S
C39 O40 1.235 . S
C39 O66 1.289 . S
O40 C39 1.235 . S
C41 C43 1.400 . S
C41 N44 1.351 . S
C41 C46 1.501 . S
C42 C43 1.387 . S
C42 N45 1.341 . S
C43 C41 1.400 . S
C43 C42 1.387 . S
N44 Co35 2.022 . S
N44 C41 1.351 . S
N44 N45 1.365 . S
N45 C42 1.341 . S
N45 N44 1.365 . S
N45 H65 0.862 . S
C46 C41 1.501 . S
C46 H47 0.961 . S
C46 H48 0.961 . S
C46 H49 0.960 . S
H47 C46 0.961 . S
H48 C46 0.961 . S
H49 C46 0.960 . S
C50 N51 1.342 . S
C50 C54 1.401 . S
C50 C55 1.499 . S
N51 Co34 1.989 . S
N51 C50 1.342 . S
N51 N52 1.388 . S
N52 Co35 1.993 . S
N52 N51 1.388 . S
N52 C53 1.346 . S
C53 N52 1.346 . S
C53 C54 1.396 . S
C53 C63 1.510 . S
C54 C50 1.401 . S
C54 C53 1.396 . S
C55 C50 1.499 . S
C55 H56 0.959 . S
C55 H57 0.960 . S
C55 H58 0.961 . S
H56 C55 0.959 . S
H57 C55 0.960 . S
H58 C55 0.961 . S
O59 Co34 1.967 . S
O59 C67 1.258 . S
O60 Co35 1.941 . S
O60 C67 1.266 . S
H61 C63 0.959 . S
H62 C63 0.961 . S
C63 C53 1.510 . S
C63 H61 0.959 . S
C63 H62 0.961 . S
C63 H64 0.960 . S
H64 C63 0.960 . S
H65 N45 0.862 . S
O66 Co34 1.920 . S
O66 C39 1.289 . S
C67 O59 1.258 . S
C67 O60 1.266 . S
Co68 O71 1.970 . S
Co68 N85 1.989 . S
Co68 O93 1.967 . S
Co68 O100 1.920 . S
Co69 O72 1.966 . S
Co69 N78 2.022 . S
Co69 N86 1.993 . S
Co69 O94 1.941 . S
C70 O71 1.258 . S
C70 O72 1.263 . S
O71 Co68 1.970 . S
O71 C70 1.258 . S
O72 Co69 1.966 . S
O72 C70 1.263 . S
C73 O74 1.235 . S
C73 O100 1.289 . S
O74 C73 1.235 . S
C75 C77 1.400 . S
C75 N78 1.351 . S
C75 C80 1.501 . S
C76 C77 1.387 . S
C76 N79 1.341 . S
C77 C75 1.400 . S
C77 C76 1.387 . S
N78 Co69 2.022 . S
N78 C75 1.351 . S
N78 N79 1.365 . S
N79 C76 1.341 . S
N79 N78 1.365 . S
N79 H99 0.862 . S
C80 C75 1.501 . S
C80 H81 0.961 . S
C80 H82 0.961 . S
C80 H83 0.960 . S
H81 C80 0.961 . S
H82 C80 0.961 . S
H83 C80 0.960 . S
C84 N85 1.342 . S
C84 C88 1.401 . S
C84 C89 1.499 . S
N85 Co68 1.989 . S
N85 C84 1.342 . S
N85 N86 1.388 . S
N86 Co69 1.993 . S
N86 N85 1.388 . S
N86 C87 1.346 . S
C87 N86 1.346 . S
C87 C88 1.396 . S
C87 C97 1.510 . S
C88 C84 1.401 . S
C88 C87 1.396 . S
C89 C84 1.499 . S
C89 H90 0.959 . S
C89 H91 0.960 . S
C89 H92 0.961 . S
H90 C89 0.959 . S
H91 C89 0.960 . S
H92 C89 0.961 . S
O93 Co68 1.967 . S
O93 C101 1.258 . S
O94 Co69 1.941 . S
O94 C101 1.266 . S
H95 C97 0.959 . S
H96 C97 0.961 . S
C97 C87 1.510 . S
C97 H95 0.959 . S
C97 H96 0.961 . S
C97 H98 0.960 . S
H98 C97 0.960 . S
H99 N79 0.862 . S
O100 Co68 1.920 . S
O100 C73 1.289 . S
C101 O93 1.258 . S
C101 O94 1.266 . S
Co102 O105 1.970 . S
Co102 N119 1.989 . S
Co102 O127 1.967 . S
Co102 O134 1.920 . S
Co103 O106 1.966 . S
Co103 N112 2.022 . S
Co103 N120 1.993 . S
Co103 O128 1.941 . S
C104 O105 1.258 . S
C104 O106 1.263 . S
O105 Co102 1.970 . S
O105 C104 1.258 . S
O106 Co103 1.966 . S
O106 C104 1.263 . S
C107 O108 1.235 . S
C107 O134 1.289 . S
O108 C107 1.235 . S
C109 C111 1.400 . S
C109 N112 1.351 . S
C109 C114 1.501 . S
C110 C111 1.387 . S
C110 N113 1.341 . S
C111 C109 1.400 . S
C111 C110 1.387 . S
N112 Co103 2.022 . S
N112 C109 1.351 . S
N112 N113 1.365 . S
N113 C110 1.341 . S
N113 N112 1.365 . S
N113 H133 0.862 . S
C114 C109 1.501 . S
C114 H115 0.961 . S
C114 H116 0.961 . S
C114 H117 0.960 . S
H115 C114 0.961 . S
H116 C114 0.961 . S
H117 C114 0.960 . S
C118 N119 1.342 . S
C118 C122 1.401 . S
C118 C123 1.499 . S
N119 Co102 1.989 . S
N119 C118 1.342 . S
N119 N120 1.388 . S
N120 Co103 1.993 . S
N120 N119 1.388 . S
N120 C121 1.346 . S
C121 N120 1.346 . S
C121 C122 1.396 . S
C121 C131 1.510 . S
C122 C118 1.401 . S
C122 C121 1.396 . S
C123 C118 1.499 . S
C123 H124 0.959 . S
C123 H125 0.960 . S
C123 H126 0.961 . S
H124 C123 0.959 . S
H125 C123 0.960 . S
H126 C123 0.961 . S
O127 Co102 1.967 . S
O127 C135 1.258 . S
O128 Co103 1.941 . S
O128 C135 1.266 . S
H129 C131 0.959 . S
H130 C131 0.961 . S
C131 C121 1.510 . S
C131 H129 0.959 . S
C131 H130 0.961 . S
C131 H132 0.960 . S
H132 C131 0.960 . S
H133 N113 0.862 . S
O134 Co102 1.920 . S
O134 C107 1.289 . S
C135 O127 1.258 . S
C135 O128 1.266 . S
Co136 O139 1.970 . S
Co136 N153 1.989 . S
Co136 O161 1.967 . S
Co136 O168 1.920 . S
Co137 O140 1.966 . S
Co137 N146 2.022 . S
Co137 N154 1.993 . S
Co137 O162 1.941 . S
C138 O139 1.258 . S
C138 O140 1.263 . S
O139 Co136 1.970 . S
O139 C138 1.258 . S
O140 Co137 1.966 . S
O140 C138 1.263 . S
C141 O142 1.235 . S
C141 O168 1.289 . S
O142 C141 1.235 . S
C143 C145 1.400 . S
C143 N146 1.351 . S
C143 C148 1.501 . S
C144 C145 1.387 . S
C144 N147 1.341 . S
C145 C143 1.400 . S
C145 C144 1.387 . S
N146 Co137 2.022 . S
N146 C143 1.351 . S
N146 N147 1.365 . S
N147 C144 1.341 . S
N147 N146 1.365 . S
N147 H167 0.862 . S
C148 C143 1.501 . S
C148 H149 0.961 . S
C148 H150 0.961 . S
C148 H151 0.960 . S
H149 C148 0.961 . S
H150 C148 0.961 . S
H151 C148 0.960 . S
C152 N153 1.342 . S
C152 C156 1.401 . S
C152 C157 1.499 . S
N153 Co136 1.989 . S
N153 C152 1.342 . S
N153 N154 1.388 . S
N154 Co137 1.993 . S
N154 N153 1.388 . S
N154 C155 1.346 . S
C155 N154 1.346 . S
C155 C156 1.396 . S
C155 C165 1.510 . S
C156 C152 1.401 . S
C156 C155 1.396 . S
C157 C152 1.499 . S
C157 H158 0.959 . S
C157 H159 0.960 . S
C157 H160 0.961 . S
H158 C157 0.959 . S
H159 C157 0.960 . S
H160 C157 0.961 . S
O161 Co136 1.967 . S
O161 C169 1.258 . S
O162 Co137 1.941 . S
O162 C169 1.266 . S
H163 C165 0.959 . S
H164 C165 0.961 . S
C165 C155 1.510 . S
C165 H163 0.959 . S
C165 H164 0.961 . S
C165 H166 0.960 . S
H166 C165 0.960 . S
H167 N147 0.862 . S
O168 Co136 1.920 . S
O168 C141 1.289 . S
C169 O161 1.258 . S
C169 O162 1.266 . S
Co170 O173 1.970 . S
Co170 N187 1.989 . S
Co170 O195 1.967 . S
Co170 O202 1.920 . S
Co171 O174 1.966 . S
Co171 N180 2.022 . S
Co171 N188 1.993 . S
Co171 O196 1.941 . S
C172 O173 1.258 . S
C172 O174 1.263 . S
O173 Co170 1.970 . S
O173 C172 1.258 . S
O174 Co171 1.966 . S
O174 C172 1.263 . S
C175 O176 1.235 . S
C175 O202 1.289 . S
O176 C175 1.235 . S
C177 C179 1.400 . S
C177 N180 1.351 . S
C177 C182 1.501 . S
C178 C179 1.387 . S
C178 N181 1.341 . S
C179 C177 1.400 . S
C179 C178 1.387 . S
N180 Co171 2.022 . S
N180 C177 1.351 . S
N180 N181 1.365 . S
N181 C178 1.341 . S
N181 N180 1.365 . S
N181 H201 0.862 . S
C182 C177 1.501 . S
C182 H183 0.961 . S
C182 H184 0.961 . S
C182 H185 0.960 . S
H183 C182 0.961 . S
H184 C182 0.961 . S
H185 C182 0.960 . S
C186 N187 1.342 . S
C186 C190 1.401 . S
C186 C191 1.499 . S
N187 Co170 1.989 . S
N187 C186 1.342 . S
N187 N188 1.388 . S
N188 Co171 1.993 . S
N188 N187 1.388 . S
N188 C189 1.346 . S
C189 N188 1.346 . S
C189 C190 1.396 . S
C189 C199 1.510 . S
C190 C186 1.401 . S
C190 C189 1.396 . S
C191 C186 1.499 . S
C191 H192 0.959 . S
C191 H193 0.960 . S
C191 H194 0.961 . S
H192 C191 0.959 . S
H193 C191 0.960 . S
H194 C191 0.961 . S
O195 Co170 1.967 . S
O195 C203 1.258 . S
O196 Co171 1.941 . S
O196 C203 1.266 . S
H197 C199 0.959 . S
H198 C199 0.961 . S
C199 C189 1.510 . S
C199 H197 0.959 . S
C199 H198 0.961 . S
C199 H200 0.960 . S
H200 C199 0.960 . S
H201 N181 0.862 . S
O202 Co170 1.920 . S
O202 C175 1.289 . S
C203 O195 1.258 . S
C203 O196 1.266 . S
Co204 O207 1.970 . S
Co204 N221 1.989 . S
Co204 O229 1.967 . S
Co204 O236 1.920 . S
Co205 O208 1.966 . S
Co205 N214 2.022 . S
Co205 N222 1.993 . S
Co205 O230 1.941 . S
C206 O207 1.258 . S
C206 O208 1.263 . S
O207 Co204 1.970 . S
O207 C206 1.258 . S
O208 Co205 1.966 . S
O208 C206 1.263 . S
C209 O210 1.235 . S
C209 O236 1.289 . S
O210 C209 1.235 . S
C211 C213 1.400 . S
C211 N214 1.351 . S
C211 C216 1.501 . S
C212 C213 1.387 . S
C212 N215 1.341 . S
C213 C211 1.400 . S
C213 C212 1.387 . S
N214 Co205 2.022 . S
N214 C211 1.351 . S
N214 N215 1.365 . S
N215 C212 1.341 . S
N215 N214 1.365 . S
N215 H235 0.862 . S
C216 C211 1.501 . S
C216 H217 0.961 . S
C216 H218 0.961 . S
C216 H219 0.960 . S
H217 C216 0.961 . S
H218 C216 0.961 . S
H219 C216 0.960 . S
C220 N221 1.342 . S
C220 C224 1.401 . S
C220 C225 1.499 . S
N221 Co204 1.989 . S
N221 C220 1.342 . S
N221 N222 1.388 . S
N222 Co205 1.993 . S
N222 N221 1.388 . S
N222 C223 1.346 . S
C223 N222 1.346 . S
C223 C224 1.396 . S
C223 C233 1.510 . S
C224 C220 1.401 . S
C224 C223 1.396 . S
C225 C220 1.499 . S
C225 H226 0.959 . S
C225 H227 0.960 . S
C225 H228 0.961 . S
H226 C225 0.959 . S
H227 C225 0.960 . S
H228 C225 0.961 . S
O229 Co204 1.967 . S
O229 C237 1.258 . S
O230 Co205 1.941 . S
O230 C237 1.266 . S
H231 C233 0.959 . S
H232 C233 0.961 . S
C233 C223 1.510 . S
C233 H231 0.959 . S
C233 H232 0.961 . S
C233 H234 0.960 . S
H234 C233 0.960 . S
H235 N215 0.862 . S
O236 Co204 1.920 . S
O236 C209 1.289 . S
C237 O229 1.258 . S
C237 O230 1.266 . S
Co238 O241 1.970 . S
Co238 N255 1.989 . S
Co238 O263 1.967 . S
Co238 O270 1.920 . S
Co239 O242 1.966 . S
Co239 N248 2.022 . S
Co239 N256 1.993 . S
Co239 O264 1.941 . S
C240 O241 1.258 . S
C240 O242 1.263 . S
O241 Co238 1.970 . S
O241 C240 1.258 . S
O242 Co239 1.966 . S
O242 C240 1.263 . S
C243 O244 1.235 . S
C243 O270 1.289 . S
O244 C243 1.235 . S
C245 C247 1.400 . S
C245 N248 1.351 . S
C245 C250 1.501 . S
C246 C247 1.387 . S
C246 N249 1.341 . S
C247 C245 1.400 . S
C247 C246 1.387 . S
N248 Co239 2.022 . S
N248 C245 1.351 . S
N248 N249 1.365 . S
N249 C246 1.341 . S
N249 N248 1.365 . S
N249 H269 0.862 . S
C250 C245 1.501 . S
C250 H251 0.961 . S
C250 H252 0.961 . S
C250 H253 0.960 . S
H251 C250 0.961 . S
H252 C250 0.961 . S
H253 C250 0.960 . S
C254 N255 1.342 . S
C254 C258 1.401 . S
C254 C259 1.499 . S
N255 Co238 1.989 . S
N255 C254 1.342 . S
N255 N256 1.388 . S
N256 Co239 1.993 . S
N256 N255 1.388 . S
N256 C257 1.346 . S
C257 N256 1.346 . S
C257 C258 1.396 . S
C257 C267 1.510 . S
C258 C254 1.401 . S
C258 C257 1.396 . S
C259 C254 1.499 . S
C259 H260 0.959 . S
C259 H261 0.960 . S
C259 H262 0.961 . S
H260 C259 0.959 . S
H261 C259 0.960 . S
H262 C259 0.961 . S
O263 Co238 1.967 . S
O263 C271 1.258 . S
O264 Co239 1.941 . S
O264 C271 1.266 . S
H265 C267 0.959 . S
H266 C267 0.961 . S
C267 C257 1.510 . S
C267 H265 0.959 . S
C267 H266 0.961 . S
C267 H268 0.960 . S
H268 C267 0.960 . S
H269 N249 0.862 . S
O270 Co238 1.920 . S
O270 C243 1.289 . S
C271 O263 1.258 . S
C271 O264 1.266 . S
Co272 O275 1.970 . S
Co272 N289 1.989 . S
Co272 O297 1.967 . S
Co272 O304 1.920 . S
Co273 O276 1.966 . S
Co273 N282 2.022 . S
Co273 N290 1.993 . S
Co273 O298 1.941 . S
C274 O275 1.258 . S
C274 O276 1.263 . S
O275 Co272 1.970 . S
O275 C274 1.258 . S
O276 Co273 1.966 . S
O276 C274 1.263 . S
C277 O278 1.235 . S
C277 O304 1.289 . S
O278 C277 1.235 . S
C279 C281 1.400 . S
C279 N282 1.351 . S
C279 C284 1.501 . S
C280 C281 1.387 . S
C280 N283 1.341 . S
C281 C279 1.400 . S
C281 C280 1.387 . S
N282 Co273 2.022 . S
N282 C279 1.351 . S
N282 N283 1.365 . S
N283 C280 1.341 . S
N283 N282 1.365 . S
N283 H303 0.862 . S
C284 C279 1.501 . S
C284 H285 0.961 . S
C284 H286 0.961 . S
C284 H287 0.960 . S
H285 C284 0.961 . S
H286 C284 0.961 . S
H287 C284 0.960 . S
C288 N289 1.342 . S
C288 C292 1.401 . S
C288 C293 1.499 . S
N289 Co272 1.989 . S
N289 C288 1.342 . S
N289 N290 1.388 . S
N290 Co273 1.993 . S
N290 N289 1.388 . S
N290 C291 1.346 . S
C291 N290 1.346 . S
C291 C292 1.396 . S
C291 C301 1.510 . S
C292 C288 1.401 . S
C292 C291 1.396 . S
C293 C288 1.499 . S
C293 H294 0.959 . S
C293 H295 0.960 . S
C293 H296 0.961 . S
H294 C293 0.959 . S
H295 C293 0.960 . S
H296 C293 0.961 . S
O297 Co272 1.967 . S
O297 C305 1.258 . S
O298 Co273 1.941 . S
O298 C305 1.266 . S
H299 C301 0.959 . S
H300 C301 0.961 . S
C301 C291 1.510 . S
C301 H299 0.959 . S
C301 H300 0.961 . S
C301 H302 0.960 . S
H302 C301 0.960 . S
H303 N283 0.862 . S
O304 Co272 1.920 . S
O304 C277 1.289 . S
C305 O297 1.258 . S
C305 O298 1.266 . S
Co306 O309 1.970 . S
Co306 N323 1.989 . S
Co306 O331 1.967 . S
Co306 O338 1.920 . S
Co307 O310 1.966 . S
Co307 N316 2.022 . S
Co307 N324 1.993 . S
Co307 O332 1.941 . S
C308 O309 1.258 . S
C308 O310 1.263 . S
O309 Co306 1.970 . S
O309 C308 1.258 . S
O310 Co307 1.966 . S
O310 C308 1.263 . S
C311 O312 1.235 . S
C311 O338 1.289 . S
O312 C311 1.235 . S
C313 C315 1.400 . S
C313 N316 1.351 . S
C313 C318 1.501 . S
C314 C315 1.387 . S
C314 N317 1.341 . S
C315 C313 1.400 . S
C315 C314 1.387 . S
N316 Co307 2.022 . S
N316 C313 1.351 . S
N316 N317 1.365 . S
N317 C314 1.341 . S
N317 N316 1.365 . S
N317 H337 0.862 . S
C318 C313 1.501 . S
C318 H319 0.961 . S
C318 H320 0.961 . S
C318 H321 0.960 . S
H319 C318 0.961 . S
H320 C318 0.961 . S
H321 C318 0.960 . S
C322 N323 1.342 . S
C322 C326 1.401 . S
C322 C327 1.499 . S
N323 Co306 1.989 . S
N323 C322 1.342 . S
N323 N324 1.388 . S
N324 Co307 1.993 . S
N324 N323 1.388 . S
N324 C325 1.346 . S
C325 N324 1.346 . S
C325 C326 1.396 . S
C325 C335 1.510 . S
C326 C322 1.401 . S
C326 C325 1.396 . S
C327 C322 1.499 . S
C327 H328 0.959 . S
C327 H329 0.960 . S
C327 H330 0.961 . S
H328 C327 0.959 . S
H329 C327 0.960 . S
H330 C327 0.961 . S
O331 Co306 1.967 . S
O331 C339 1.258 . S
O332 Co307 1.941 . S
O332 C339 1.266 . S
H333 C335 0.959 . S
H334 C335 0.961 . S
C335 C325 1.510 . S
C335 H333 0.959 . S
C335 H334 0.961 . S
C335 H336 0.960 . S
H336 C335 0.960 . S
H337 N317 0.862 . S
O338 Co306 1.920 . S
O338 C311 1.289 . S
C339 O331 1.258 . S
C339 O332 1.266 . S
Co340 O343 1.970 . S
Co340 N357 1.989 . S
Co340 O365 1.967 . S
Co340 O372 1.920 . S
Co341 O344 1.966 . S
Co341 N350 2.022 . S
Co341 N358 1.993 . S
Co341 O366 1.941 . S
C342 O343 1.258 . S
C342 O344 1.263 . S
O343 Co340 1.970 . S
O343 C342 1.258 . S
O344 Co341 1.966 . S
O344 C342 1.263 . S
C345 O346 1.235 . S
C345 O372 1.289 . S
O346 C345 1.235 . S
C347 C349 1.400 . S
C347 N350 1.351 . S
C347 C352 1.501 . S
C348 C349 1.387 . S
C348 N351 1.341 . S
C349 C347 1.400 . S
C349 C348 1.387 . S
N350 Co341 2.022 . S
N350 C347 1.351 . S
N350 N351 1.365 . S
N351 C348 1.341 . S
N351 N350 1.365 . S
N351 H371 0.862 . S
C352 C347 1.501 . S
C352 H353 0.961 . S
C352 H354 0.961 . S
C352 H355 0.960 . S
H353 C352 0.961 . S
H354 C352 0.961 . S
H355 C352 0.960 . S
C356 N357 1.342 . S
C356 C360 1.401 . S
C356 C361 1.499 . S
N357 Co340 1.989 . S
N357 C356 1.342 . S
N357 N358 1.388 . S
N358 Co341 1.993 . S
N358 N357 1.388 . S
N358 C359 1.346 . S
C359 N358 1.346 . S
C359 C360 1.396 . S
C359 C369 1.510 . S
C360 C356 1.401 . S
C360 C359 1.396 . S
C361 C356 1.499 . S
C361 H362 0.959 . S
C361 H363 0.960 . S
C361 H364 0.961 . S
H362 C361 0.959 . S
H363 C361 0.960 . S
H364 C361 0.961 . S
O365 Co340 1.967 . S
O365 C373 1.258 . S
O366 Co341 1.941 . S
O366 C373 1.266 . S
H367 C369 0.959 . S
H368 C369 0.961 . S
C369 C359 1.510 . S
C369 H367 0.959 . S
C369 H368 0.961 . S
C369 H370 0.960 . S
H370 C369 0.960 . S
H371 N351 0.862 . S
O372 Co340 1.920 . S
O372 C345 1.289 . S
C373 O365 1.258 . S
C373 O366 1.266 . S
Co374 O377 1.970 . S
Co374 N391 1.989 . S
Co374 O399 1.967 . S
Co374 O406 1.920 . S
Co375 O378 1.966 . S
Co375 N384 2.022 . S
Co375 N392 1.993 . S
Co375 O400 1.941 . S
C376 O377 1.258 . S
C376 O378 1.263 . S
O377 Co374 1.970 . S
O377 C376 1.258 . S
O378 Co375 1.966 . S
O378 C376 1.263 . S
C379 O380 1.235 . S
C379 O406 1.289 . S
O380 C379 1.235 . S
C381 C383 1.400 . S
C381 N384 1.351 . S
C381 C386 1.501 . S
C382 C383 1.387 . S
C382 N385 1.341 . S
C383 C381 1.400 . S
C383 C382 1.387 . S
N384 Co375 2.022 . S
N384 C381 1.351 . S
N384 N385 1.365 . S
N385 C382 1.341 . S
N385 N384 1.365 . S
N385 H405 0.862 . S
C386 C381 1.501 . S
C386 H387 0.961 . S
C386 H388 0.961 . S
C386 H389 0.960 . S
H387 C386 0.961 . S
H388 C386 0.961 . S
H389 C386 0.960 . S
C390 N391 1.342 . S
C390 C394 1.401 . S
C390 C395 1.499 . S
N391 Co374 1.989 . S
N391 C390 1.342 . S
N391 N392 1.388 . S
N392 Co375 1.993 . S
N392 N391 1.388 . S
N392 C393 1.346 . S
C393 N392 1.346 . S
C393 C394 1.396 . S
C393 C403 1.510 . S
C394 C390 1.401 . S
C394 C393 1.396 . S
C395 C390 1.499 . S
C395 H396 0.959 . S
C395 H397 0.960 . S
C395 H398 0.961 . S
H396 C395 0.959 . S
H397 C395 0.960 . S
H398 C395 0.961 . S
O399 Co374 1.967 . S
O399 C407 1.258 . S
O400 Co375 1.941 . S
O400 C407 1.266 . S
H401 C403 0.959 . S
H402 C403 0.961 . S
C403 C393 1.510 . S
C403 H401 0.959 . S
C403 H402 0.961 . S
C403 H404 0.960 . S
H404 C403 0.960 . S
H405 N385 0.862 . S
O406 Co374 1.920 . S
O406 C379 1.289 . S
C407 O399 1.258 . S
C407 O400 1.266 . S
H408 C426 0.951 . S
H409 C428 0.951 . S
H410 C430 0.950 . S
H411 C431 0.950 . S
H412 C433 0.950 . S
H413 C436 0.950 . S
H414 C437 0.950 . S
H415 C439 0.950 1_655 S
H416 C440 0.950 . S
H417 C441 0.951 . S
H418 C443 0.951 . S
H419 C445 0.950 . S
H420 C446 0.950 . S
H421 C448 0.950 1_655 S
H422 C451 0.950 . S
H423 C452 0.950 . S
H424 C454 0.950 . S
H425 C455 0.950 . S
C426 H408 0.951 . S
C426 C427 1.366 . S
C426 C428 1.388 . S
C427 C426 1.366 . S
C427 C431 1.385 . S
C428 H409 0.951 . S
C428 C426 1.388 . S
C428 C429 1.366 . S
C429 C428 1.366 . S
C429 C430 1.414 . S
C429 C432 1.499 1_545 S
C430 H410 0.950 . S
C430 C429 1.414 . S
C430 C431 1.374 . S
C431 H411 0.950 . S
C431 C427 1.385 . S
C431 C430 1.374 . S
C432 C429 1.499 1_565 S
C432 C433 1.373 . S
C432 C434 1.389 . S
C433 H412 0.950 . S
C433 C432 1.373 . S
C433 C449 1.377 . S
C434 C432 1.389 . S
C434 C435 1.524 1_565 S
C434 C448 1.377 . S
C435 C434 1.524 1_545 S
C435 C436 1.397 . S
C435 C440 1.363 . S
C436 H413 0.950 . S
C436 C435 1.397 . S
C436 C437 1.334 . S
C437 H414 0.950 . S
C437 C436 1.334 . S
C437 C438 1.287 . S
C438 C437 1.287 . S
C438 C439 1.524 . S
C438 H457 0.913 . S
C439 H415 0.950 1_455 S
C439 C438 1.524 . S
C439 C440 1.415 . S
C440 H416 0.950 . S
C440 C435 1.363 . S
C440 C439 1.415 . S
C441 H417 0.951 . S
C441 C442 1.366 . S
C441 C443 1.388 . S
C442 C441 1.366 . S
C442 C446 1.385 . S
C443 H418 0.951 . S
C443 C441 1.388 . S
C443 C444 1.366 . S
C444 C443 1.366 . S
C444 C445 1.414 . S
C444 C447 1.499 1_655 S
C445 H419 0.950 . S
C445 C444 1.414 . S
C445 C446 1.374 . S
C446 H420 0.950 . S
C446 C442 1.385 . S
C446 C445 1.374 . S
C447 C444 1.499 1_455 S
C447 C448 1.373 . S
C447 C449 1.389 . S
C448 H421 0.950 1_455 S
C448 C434 1.377 . S
C448 C447 1.373 . S
C449 C433 1.377 . S
C449 C447 1.389 . S
C449 C450 1.524 . S
C450 C449 1.524 . S
C450 C451 1.397 . S
C450 C455 1.363 . S
C451 H422 0.950 . S
C451 C450 1.397 . S
C451 C452 1.334 . S
C452 H423 0.950 . S
C452 C451 1.334 . S
C452 C453 1.287 . S
C453 C452 1.287 . S
C453 C454 1.524 . S
C453 H456 0.999 . S
C454 H424 0.950 . S
C454 C453 1.524 . S
C454 C455 1.415 . S
C455 H425 0.950 . S
C455 C450 1.363 . S
C455 C454 1.415 . S
H456 C453 0.999 . S
H457 C438 0.913 . S
H458 C476 0.951 . S
H459 C478 0.951 . S
H460 C480 0.950 . S
H461 C481 0.950 . S
H462 C483 0.950 . S
H463 C486 0.950 . S
H464 C487 0.950 . S
H465 C489 0.950 . S
H466 C490 0.962 . S
H467 C491 0.951 . S
H468 C493 0.951 . S
H469 C495 0.950 . S
H470 C496 0.950 . S
H471 C498 0.950 . S
H472 C501 0.950 . S
H473 C502 0.950 . S
H474 C504 0.950 . S
H475 C505 0.950 . S
C476 H458 0.951 . S
C476 C477 1.366 . S
C476 C478 1.388 . S
C477 C476 1.366 . S
C477 C481 1.385 . S
C478 H459 0.951 . S
C478 C476 1.388 . S
C478 C479 1.366 . S
C479 C478 1.366 . S
C479 C480 1.414 . S
C479 C482 1.499 1_565 S
C480 H460 0.950 . S
C480 C479 1.414 . S
C480 C481 1.374 . S
C481 H461 0.950 . S
C481 C477 1.385 . S
C481 C480 1.374 . S
C482 C479 1.499 1_545 S
C482 C483 1.373 . S
C482 C484 1.389 . S
C483 H462 0.950 . S
C483 C482 1.373 . S
C483 C499 1.377 . S
C484 C482 1.389 . S
C484 C485 1.524 1_545 S
C484 C498 1.377 . S
C485 C484 1.524 1_565 S
C485 C486 1.397 . S
C485 C490 1.363 . S
C486 H463 0.950 . S
C486 C485 1.397 . S
C486 C487 1.334 1_455 S
C487 H464 0.950 . S
C487 C486 1.334 1_655 S
C487 C488 1.287 . S
C488 C487 1.287 . S
C488 C489 1.524 . S
C488 H507 0.913 . S
C489 H465 0.950 . S
C489 C488 1.524 . S
C489 C490 1.415 1_655 S
C490 H466 0.962 . S
C490 C485 1.363 . S
C490 C489 1.415 1_455 S
C491 H467 0.951 . S
C491 C492 1.366 . S
C491 C493 1.388 . S
C492 C491 1.366 . S
C492 C496 1.385 . S
C493 H468 0.951 . S
C493 C491 1.388 . S
C493 C494 1.366 . S
C494 C493 1.366 . S
C494 C495 1.414 . S
C494 C497 1.499 . S
C495 H469 0.950 . S
C495 C494 1.414 . S
C495 C496 1.374 . S
C496 H470 0.950 . S
C496 C492 1.385 . S
C496 C495 1.374 . S
C497 C494 1.499 . S
C497 C498 1.373 . S
C497 C499 1.389 . S
C498 H471 0.950 . S
C498 C484 1.377 . S
C498 C497 1.373 . S
C499 C483 1.377 . S
C499 C497 1.389 . S
C499 C500 1.524 . S
C500 C499 1.524 . S
C500 C501 1.397 . S
C500 C505 1.363 . S
C501 H472 0.950 . S
C501 C500 1.397 . S
C501 C502 1.334 . S
C502 H473 0.950 . S
C502 C501 1.334 . S
C502 C503 1.287 . S
C503 C502 1.287 . S
C503 C504 1.524 . S
C503 H506 0.999 . S
C504 H474 0.950 . S
C504 C503 1.524 . S
C504 C505 1.415 . S
C505 H475 0.950 . S
C505 C500 1.363 . S
C505 C504 1.415 . S
H506 C503 0.999 . S
H507 C488 0.913 . S
H508 C526 0.951 . S
H509 C528 0.951 . S
H510 C530 0.950 . S
H511 C531 0.950 . S
H512 C533 0.950 1_655 S
H513 C536 0.950 1_655 S
H514 C537 0.950 1_655 S
H515 C539 0.950 . S
H516 C540 0.950 . S
H517 C541 0.951 . S
H518 C543 0.951 . S
H519 C545 0.950 . S
H520 C546 0.950 . S
H521 C548 0.950 . S
H522 C551 0.950 . S
H523 C552 0.950 . S
H524 C554 0.950 . S
H525 C555 0.950 . S
C526 H508 0.951 . S
C526 C527 1.366 . S
C526 C528 1.388 . S
C527 C526 1.366 . S
C527 C531 1.385 . S
C528 H509 0.951 . S
C528 C526 1.388 . S
C528 C529 1.366 . S
C529 C528 1.366 . S
C529 C530 1.414 . S
C529 C532 1.499 1_655 S
C530 H510 0.950 . S
C530 C529 1.414 . S
C530 C531 1.374 . S
C531 H511 0.950 . S
C531 C527 1.385 . S
C531 C530 1.374 . S
C532 C529 1.499 1_455 S
C532 C533 1.373 . S
C532 C534 1.389 . S
C533 H512 0.950 1_455 S
C533 C532 1.373 . S
C533 C549 1.377 . S
C534 C532 1.389 . S
C534 C535 1.524 . S
C534 C548 1.377 . S
C535 C534 1.524 . S
C535 C536 1.397 . S
C535 C540 1.363 . S
C536 H513 0.950 1_455 S
C536 C535 1.397 . S
C536 C537 1.334 . S
C537 H514 0.950 1_455 S
C537 C536 1.334 . S
C537 C538 1.287 . S
C538 C537 1.287 . S
C538 C539 1.524 . S
C538 H557 0.913 . S
C539 H515 0.950 . S
C539 C538 1.524 . S
C539 C540 1.415 . S
C540 H516 0.950 . S
C540 C535 1.363 . S
C540 C539 1.415 . S
C541 H517 0.951 . S
C541 C542 1.366 . S
C541 C543 1.388 . S
C542 C541 1.366 . S
C542 C546 1.385 . S
C543 H518 0.951 . S
C543 C541 1.388 . S
C543 C544 1.366 . S
C544 C543 1.366 . S
C544 C545 1.414 . S
C544 C547 1.499 . S
C545 H519 0.950 . S
C545 C544 1.414 . S
C545 C546 1.374 . S
C546 H520 0.950 . S
C546 C542 1.385 . S
C546 C545 1.374 . S
C547 C544 1.499 . S
C547 C548 1.373 . S
C547 C549 1.389 . S
C548 H521 0.950 . S
C548 C534 1.377 . S
C548 C547 1.373 . S
C549 C533 1.377 . S
C549 C547 1.389 . S
C549 C550 1.524 . S
C550 C549 1.524 . S
C550 C551 1.397 . S
C550 C555 1.363 1_545 S
C551 H522 0.950 . S
C551 C550 1.397 . S
C551 C552 1.334 . S
C552 H523 0.950 . S
C552 C551 1.334 . S
C552 C553 1.287 1_545 S
C553 C552 1.287 1_565 S
C553 C554 1.524 . S
C553 H556 0.999 . S
C554 H524 0.950 . S
C554 C553 1.524 . S
C554 C555 1.415 . S
C555 H525 0.950 . S
C555 C550 1.363 1_565 S
C555 C554 1.415 . S
H556 C553 0.999 . S
H557 C538 0.913 . S
H558 C576 0.951 . S
H559 C578 0.951 . S
H560 C580 0.950 . S
H561 C581 0.950 . S
H562 C583 0.950 . S
H563 C586 0.950 . S
H564 C587 0.950 . S
H565 C589 0.950 1_455 S
H566 C590 0.950 . S
H567 C591 0.951 . S
H568 C593 0.951 . S
H569 C595 0.950 . S
H570 C596 0.950 . S
H571 C598 0.950 1_455 S
H572 C601 0.950 . S
H573 C602 0.950 . S
H574 C604 0.950 . S
H575 C605 0.950 . S
C576 H558 0.951 . S
C576 C577 1.366 . S
C576 C578 1.388 . S
C577 C576 1.366 . S
C577 C581 1.385 . S
C578 H559 0.951 . S
C578 C576 1.388 . S
C578 C579 1.366 . S
C579 C578 1.366 . S
C579 C580 1.414 . S
C579 C582 1.499 1_565 S
C580 H560 0.950 . S
C580 C579 1.414 . S
C580 C581 1.374 . S
C581 H561 0.950 . S
C581 C577 1.385 . S
C581 C580 1.374 . S
C582 C579 1.499 1_545 S
C582 C583 1.373 . S
C582 C584 1.389 . S
C583 H562 0.950 . S
C583 C582 1.373 . S
C583 C599 1.377 . S
C584 C582 1.389 . S
C584 C585 1.524 1_545 S
C584 C598 1.377 . S
C585 C584 1.524 1_565 S
C585 C586 1.397 . S
C585 C590 1.363 . S
C586 H563 0.950 . S
C586 C585 1.397 . S
C586 C587 1.334 . S
C587 H564 0.950 . S
C587 C586 1.334 . S
C587 C588 1.287 . S
C588 C587 1.287 . S
C588 C589 1.524 . S
C588 H607 0.913 . S
C589 H565 0.950 1_655 S
C589 C588 1.524 . S
C589 C590 1.415 . S
C590 H566 0.950 . S
C590 C585 1.363 . S
C590 C589 1.415 . S
C591 H567 0.951 . S
C591 C592 1.366 . S
C591 C593 1.388 . S
C592 C591 1.366 . S
C592 C596 1.385 . S
C593 H568 0.951 . S
C593 C591 1.388 . S
C593 C594 1.366 . S
C594 C593 1.366 . S
C594 C595 1.414 . S
C594 C597 1.499 1_455 S
C595 H569 0.950 . S
C595 C594 1.414 . S
C595 C596 1.374 . S
C596 H570 0.950 . S
C596 C592 1.385 . S
C596 C595 1.374 . S
C597 C594 1.499 1_655 S
C597 C598 1.373 . S
C597 C599 1.389 . S
C598 H571 0.950 1_655 S
C598 C584 1.377 . S
C598 C597 1.373 . S
C599 C583 1.377 . S
C599 C597 1.389 . S
C599 C600 1.524 . S
C600 C599 1.524 . S
C600 C601 1.397 . S
C600 C605 1.363 . S
C601 H572 0.950 . S
C601 C600 1.397 . S
C601 C602 1.334 . S
C602 H573 0.950 . S
C602 C601 1.334 . S
C602 C603 1.287 . S
C603 C602 1.287 . S
C603 C604 1.524 . S
C603 H606 0.999 . S
C604 H574 0.950 . S
C604 C603 1.524 . S
C604 C605 1.415 . S
C605 H575 0.950 . S
C605 C600 1.363 . S
C605 C604 1.415 . S
H606 C603 0.999 . S
H607 C588 0.913 . S
H608 C626 0.951 . S
H609 C628 0.951 . S
H610 C630 0.950 . S
H611 C631 0.950 . S
H612 C633 0.950 . S
H613 C636 0.950 . S
H614 C637 0.950 . S
H615 C639 0.950 . S
H616 C640 0.950 . S
H617 C641 0.951 . S
H618 C643 0.951 . S
H619 C645 0.950 . S
H620 C646 0.950 . S
H621 C648 0.950 . S
H622 C651 0.950 . S
H623 C652 0.950 . S
H624 C654 0.950 . S
H625 C655 0.950 1_455 S
C626 H608 0.951 . S
C626 C627 1.366 . S
C626 C628 1.388 . S
C627 C626 1.366 . S
C627 C631 1.385 . S
C628 H609 0.951 . S
C628 C626 1.388 . S
C628 C629 1.366 . S
C629 C628 1.366 . S
C629 C630 1.414 . S
C629 C632 1.499 . S
C630 H610 0.950 . S
C630 C629 1.414 . S
C630 C631 1.374 . S
C631 H611 0.950 . S
C631 C627 1.385 . S
C631 C630 1.374 . S
C632 C629 1.499 . S
C632 C633 1.373 . S
C632 C634 1.389 . S
C633 H612 0.950 . S
C633 C632 1.373 . S
C633 C649 1.377 . S
C634 C632 1.389 . S
C634 C635 1.524 . S
C634 C648 1.377 . S
C635 C634 1.524 . S
C635 C636 1.397 . S
C635 C640 1.363 . S
C636 H613 0.950 . S
C636 C635 1.397 . S
C636 C637 1.334 . S
C637 H614 0.950 . S
C637 C636 1.334 . S
C637 C638 1.287 . S
C638 C637 1.287 . S
C638 C639 1.524 . S
C638 H657 0.913 . S
C639 H615 0.950 . S
C639 C638 1.524 . S
C639 C640 1.415 . S
C640 H616 0.950 . S
C640 C635 1.363 . S
C640 C639 1.415 . S
C641 H617 0.951 . S
C641 C642 1.366 . S
C641 C643 1.388 . S
C642 C641 1.366 . S
C642 C646 1.385 . S
C643 H618 0.951 . S
C643 C641 1.388 . S
C643 C644 1.366 . S
C644 C643 1.366 . S
C644 C645 1.414 . S
C644 C647 1.499 1_545 S
C645 H619 0.950 . S
C645 C644 1.414 . S
C645 C646 1.374 . S
C646 H620 0.950 . S
C646 C642 1.385 . S
C646 C645 1.374 . S
C647 C644 1.499 1_565 S
C647 C648 1.373 . S
C647 C649 1.389 . S
C648 H621 0.950 . S
C648 C634 1.377 . S
C648 C647 1.373 . S
C649 C633 1.377 . S
C649 C647 1.389 . S
C649 C650 1.524 1_565 S
C650 C649 1.524 1_545 S
C650 C651 1.397 . S
C650 C655 1.363 . S
C651 H622 0.950 . S
C651 C650 1.397 . S
C651 C652 1.334 . S
C652 H623 0.950 . S
C652 C651 1.334 . S
C652 C653 1.287 . S
C653 C652 1.287 . S
C653 C654 1.524 1_655 S
C653 H656 0.999 1_655 S
C654 H624 0.950 . S
C654 C653 1.524 1_455 S
C654 C655 1.415 1_455 S
C655 H625 0.950 1_655 S
C655 C650 1.363 . S
C655 C654 1.415 1_655 S
H656 C653 0.999 1_455 S
H657 C638 0.913 . S
H658 C676 0.951 . S
H659 C678 0.951 . S
H660 C680 0.950 . S
H661 C681 0.950 . S
H662 C683 0.950 1_455 S
H663 C686 0.950 . S
H664 C687 0.950 . S
H665 C689 0.950 . S
H666 C690 0.950 . S
H667 C691 0.951 . S
H668 C693 0.951 . S
H669 C695 0.950 . S
H670 C696 0.950 . S
H671 C698 0.950 . S
H672 C701 0.950 . S
H673 C702 0.950 . S
H674 C704 0.952 . S
H675 C705 0.950 . S
C676 H658 0.951 . S
C676 C677 1.366 . S
C676 C678 1.388 . S
C677 C676 1.366 . S
C677 C681 1.385 . S
C678 H659 0.951 . S
C678 C676 1.388 . S
C678 C679 1.366 . S
C679 C678 1.366 . S
C679 C680 1.414 . S
C679 C682 1.499 1_455 S
C680 H660 0.950 . S
C680 C679 1.414 . S
C680 C681 1.374 . S
C681 H661 0.950 . S
C681 C677 1.385 . S
C681 C680 1.374 . S
C682 C679 1.499 1_655 S
C682 C683 1.373 . S
C682 C684 1.389 . S
C683 H662 0.950 1_655 S
C683 C682 1.373 . S
C683 C699 1.377 . S
C684 C682 1.389 . S
C684 C685 1.524 . S
C684 C698 1.377 . S
C685 C684 1.524 . S
C685 C686 1.397 . S
C685 C690 1.363 . S
C686 H663 0.950 . S
C686 C685 1.397 . S
C686 C687 1.334 . S
C687 H664 0.950 . S
C687 C686 1.334 . S
C687 C688 1.287 . S
C688 C687 1.287 . S
C688 C689 1.524 . S
C688 H707 0.913 . S
C689 H665 0.950 . S
C689 C688 1.524 . S
C689 C690 1.415 . S
C690 H666 0.950 . S
C690 C685 1.363 . S
C690 C689 1.415 . S
C691 H667 0.951 . S
C691 C692 1.366 . S
C691 C693 1.388 . S
C692 C691 1.366 . S
C692 C696 1.385 . S
C693 H668 0.951 . S
C693 C691 1.388 . S
C693 C694 1.366 . S
C694 C693 1.366 . S
C694 C695 1.414 . S
C694 C697 1.499 . S
C695 H669 0.950 . S
C695 C694 1.414 . S
C695 C696 1.374 . S
C696 H670 0.950 . S
C696 C692 1.385 . S
C696 C695 1.374 . S
C697 C694 1.499 . S
C697 C698 1.373 . S
C697 C699 1.389 . S
C698 H671 0.950 . S
C698 C684 1.377 . S
C698 C697 1.373 . S
C699 C683 1.377 . S
C699 C697 1.389 . S
C699 C700 1.524 . S
C700 C699 1.524 . S
C700 C701 1.397 . S
C700 C705 1.363 . S
C701 H672 0.950 . S
C701 C700 1.397 . S
C701 C702 1.334 1_565 S
C702 H673 0.950 . S
C702 C701 1.334 1_545 S
C702 C703 1.287 . S
C703 C702 1.287 . S
C703 C704 1.524 . S
C703 H706 0.999 . S
C704 H674 0.952 . S
C704 C703 1.524 . S
C704 C705 1.415 1_545 S
C705 H675 0.950 . S
C705 C700 1.363 . S
C705 C704 1.415 1_565 S
H706 C703 0.999 . S
H707 C688 0.913 . S
H708 C726 0.951 . S
H709 C728 0.951 . S
H710 C730 0.950 . S
H711 C731 0.950 . S
H712 C733 0.950 . S
H713 C736 0.950 . S
H714 C737 0.950 . S
H715 C739 0.950 . S
H716 C740 0.950 . S
H717 C741 0.951 . S
H718 C743 0.951 . S
H719 C745 0.950 . S
H720 C746 0.950 . S
H721 C748 0.950 . S
H722 C751 0.950 . S
H723 C752 0.950 . S
H724 C754 0.950 . S
H725 C755 0.950 . S
C726 H708 0.951 . S
C726 C727 1.366 . S
C726 C728 1.388 . S
C727 C726 1.366 . S
C727 C731 1.385 . S
C728 H709 0.951 . S
C728 C726 1.388 . S
C728 C729 1.366 . S
C729 C728 1.366 . S
C729 C730 1.414 . S
C729 C732 1.499 . S
C730 H710 0.950 . S
C730 C729 1.414 . S
C730 C731 1.374 . S
C731 H711 0.950 . S
C731 C727 1.385 . S
C731 C730 1.374 . S
C732 C729 1.499 . S
C732 C733 1.373 . S
C732 C734 1.389 . S
C733 H712 0.950 . S
C733 C732 1.373 . S
C733 C749 1.377 . S
C734 C732 1.389 . S
C734 C735 1.524 . S
C734 C748 1.377 . S
C735 C734 1.524 . S
C735 C736 1.397 . S
C735 C740 1.363 . S
C736 H713 0.950 . S
C736 C735 1.397 . S
C736 C737 1.334 . S
C737 H714 0.950 . S
C737 C736 1.334 . S
C737 C738 1.287 . S
C738 C737 1.287 . S
C738 C739 1.524 . S
C738 H757 0.913 . S
C739 H715 0.950 . S
C739 C738 1.524 . S
C739 C740 1.415 . S
C740 H716 0.950 . S
C740 C735 1.363 . S
C740 C739 1.415 . S
C741 H717 0.951 . S
C741 C742 1.366 . S
C741 C743 1.388 . S
C742 C741 1.366 . S
C742 C746 1.385 . S
C743 H718 0.951 . S
C743 C741 1.388 . S
C743 C744 1.366 . S
C744 C743 1.366 . S
C744 C745 1.414 . S
C744 C747 1.499 . S
C745 H719 0.950 . S
C745 C744 1.414 . S
C745 C746 1.374 . S
C746 H720 0.950 . S
C746 C742 1.385 . S
C746 C745 1.374 . S
C747 C744 1.499 . S
C747 C748 1.373 . S
C747 C749 1.389 . S
C748 H721 0.950 . S
C748 C734 1.377 . S
C748 C747 1.373 . S
C749 C733 1.377 . S
C749 C747 1.389 . S
C749 C750 1.524 . S
C750 C749 1.524 . S
C750 C751 1.397 . S
C750 C755 1.363 . S
C751 H722 0.950 . S
C751 C750 1.397 . S
C751 C752 1.334 . S
C752 H723 0.950 . S
C752 C751 1.334 . S
C752 C753 1.287 . S
C753 C752 1.287 . S
C753 C754 1.524 . S
C753 H756 0.999 . S
C754 H724 0.950 . S
C754 C753 1.524 . S
C754 C755 1.415 . S
C755 H725 0.950 . S
C755 C750 1.363 . S
C755 C754 1.415 . S
H756 C753 0.999 . S
H757 C738 0.913 . S
H758 C776 0.951 . S
H759 C778 0.951 . S
H760 C780 0.950 . S
H761 C781 0.950 . S
H762 C783 0.950 . S
H763 C786 0.950 . S
H764 C787 0.950 . S
H765 C789 0.950 1_655 S
H766 C790 0.950 . S
H767 C791 0.951 . S
H768 C793 0.951 . S
H769 C795 0.950 . S
H770 C796 0.950 . S
H771 C798 0.950 . S
H772 C801 0.950 . S
H773 C802 0.950 . S
H774 C804 0.950 . S
H775 C805 0.950 . S
C776 H758 0.951 . S
C776 C777 1.366 . S
C776 C778 1.388 . S
C777 C776 1.366 . S
C777 C781 1.385 . S
C778 H759 0.951 . S
C778 C776 1.388 . S
C778 C779 1.366 . S
C779 C778 1.366 . S
C779 C780 1.414 . S
C779 C782 1.499 . S
C780 H760 0.950 . S
C780 C779 1.414 . S
C780 C781 1.374 . S
C781 H761 0.950 . S
C781 C777 1.385 . S
C781 C780 1.374 . S
C782 C779 1.499 . S
C782 C783 1.373 . S
C782 C784 1.389 . S
C783 H762 0.950 . S
C783 C782 1.373 . S
C783 C799 1.377 . S
C784 C782 1.389 . S
C784 C785 1.524 . S
C784 C798 1.377 . S
C785 C784 1.524 . S
C785 C786 1.397 . S
C785 C790 1.363 . S
C786 H763 0.950 . S
C786 C785 1.397 . S
C786 C787 1.334 . S
C787 H764 0.950 . S
C787 C786 1.334 . S
C787 C788 1.287 . S
C788 C787 1.287 . S
C788 C789 1.524 . S
C788 H807 0.913 1_455 S
C789 H765 0.950 1_455 S
C789 C788 1.524 . S
C789 C790 1.415 . S
C790 H766 0.950 . S
C790 C785 1.363 . S
C790 C789 1.415 . S
C791 H767 0.951 . S
C791 C792 1.366 . S
C791 C793 1.388 . S
C792 C791 1.366 . S
C792 C796 1.385 . S
C793 H768 0.951 . S
C793 C791 1.388 . S
C793 C794 1.366 . S
C794 C793 1.366 . S
C794 C795 1.414 . S
C794 C797 1.499 . S
C795 H769 0.950 . S
C795 C794 1.414 . S
C795 C796 1.374 . S
C796 H770 0.950 . S
C796 C792 1.385 . S
C796 C795 1.374 . S
C797 C794 1.499 . S
C797 C798 1.373 . S
C797 C799 1.389 . S
C798 H771 0.950 . S
C798 C784 1.377 . S
C798 C797 1.373 . S
C799 C783 1.377 . S
C799 C797 1.389 . S
C799 C800 1.524 . S
C800 C799 1.524 . S
C800 C801 1.397 . S
C800 C805 1.363 . S
C801 H772 0.950 . S
C801 C800 1.397 . S
C801 C802 1.334 . S
C802 H773 0.950 . S
C802 C801 1.334 . S
C802 C803 1.287 . S
C803 C802 1.287 . S
C803 C804 1.524 . S
C803 H806 0.999 . S
C804 H774 0.950 . S
C804 C803 1.524 . S
C804 C805 1.415 . S
C805 H775 0.950 . S
C805 C800 1.363 . S
C805 C804 1.415 . S
H806 C803 0.999 . S
H807 C788 0.913 1_655 S
H808 C826 0.951 . S
H809 C828 0.951 . S
H810 C830 0.950 . S
H811 C831 0.950 . S
H812 C833 0.950 . S
H813 C836 0.950 . S
H814 C837 0.950 . S
H815 C839 0.950 . S
H816 C840 0.950 . S
H817 C841 0.951 . S
H818 C843 0.951 . S
H819 C845 0.950 . S
H820 C846 0.950 . S
H821 C848 0.950 . S
H822 C851 0.950 . S
H823 C852 0.950 . S
H824 C854 0.950 . S
H825 C855 0.950 . S
C826 H808 0.951 . S
C826 C827 1.366 . S
C826 C828 1.388 . S
C827 C826 1.366 . S
C827 C831 1.385 . S
C828 H809 0.951 . S
C828 C826 1.388 . S
C828 C829 1.366 . S
C829 C828 1.366 . S
C829 C830 1.414 . S
C829 C832 1.499 . S
C830 H810 0.950 . S
C830 C829 1.414 . S
C830 C831 1.374 . S
C831 H811 0.950 . S
C831 C827 1.385 . S
C831 C830 1.374 . S
C832 C829 1.499 . S
C832 C833 1.373 . S
C832 C834 1.389 . S
C833 H812 0.950 . S
C833 C832 1.373 . S
C833 C849 1.377 . S
C834 C832 1.389 . S
C834 C835 1.524 . S
C834 C848 1.377 . S
C835 C834 1.524 . S
C835 C836 1.397 . S
C835 C840 1.363 . S
C836 H813 0.950 . S
C836 C835 1.397 . S
C836 C837 1.334 . S
C837 H814 0.950 . S
C837 C836 1.334 . S
C837 C838 1.287 . S
C838 C837 1.287 . S
C838 C839 1.524 . S
C838 H857 0.913 . S
C839 H815 0.950 . S
C839 C838 1.524 . S
C839 C840 1.415 . S
C840 H816 0.950 . S
C840 C835 1.363 . S
C840 C839 1.415 . S
C841 H817 0.951 . S
C841 C842 1.366 . S
C841 C843 1.388 . S
C842 C841 1.366 . S
C842 C846 1.385 . S
C843 H818 0.951 . S
C843 C841 1.388 . S
C843 C844 1.366 . S
C844 C843 1.366 . S
C844 C845 1.414 . S
C844 C847 1.499 . S
C845 H819 0.950 . S
C845 C844 1.414 . S
C845 C846 1.374 . S
C846 H820 0.950 . S
C846 C842 1.385 . S
C846 C845 1.374 . S
C847 C844 1.499 . S
C847 C848 1.373 . S
C847 C849 1.389 . S
C848 H821 0.950 . S
C848 C834 1.377 . S
C848 C847 1.373 . S
C849 C833 1.377 . S
C849 C847 1.389 . S
C849 C850 1.524 . S
C850 C849 1.524 . S
C850 C851 1.397 . S
C850 C855 1.363 . S
C851 H822 0.950 . S
C851 C850 1.397 . S
C851 C852 1.334 . S
C852 H823 0.950 . S
C852 C851 1.334 . S
C852 C853 1.287 . S
C853 C852 1.287 . S
C853 C854 1.524 . S
C853 H856 0.999 . S
C854 H824 0.950 . S
C854 C853 1.524 . S
C854 C855 1.415 . S
C855 H825 0.950 . S
C855 C850 1.363 . S
C855 C854 1.415 . S
H856 C853 0.999 . S
H857 C838 0.913 . S
H858 C876 0.951 . S
H859 C878 0.951 . S
H860 C880 0.950 . S
H861 C881 0.950 . S
H862 C883 0.950 . S
H863 C886 0.950 . S
H864 C887 0.950 . S
H865 C889 0.950 . S
H866 C890 0.950 . S
H867 C891 0.951 . S
H868 C893 0.951 . S
H869 C895 0.950 . S
H870 C896 0.950 . S
H871 C898 0.950 . S
H872 C901 0.950 . S
H873 C902 0.950 . S
H874 C904 0.950 . S
H875 C905 0.950 . S
C876 H858 0.951 . S
C876 C877 1.366 . S
C876 C878 1.388 . S
C877 C876 1.366 . S
C877 C881 1.385 . S
C878 H859 0.951 . S
C878 C876 1.388 . S
C878 C879 1.366 . S
C879 C878 1.366 . S
C879 C880 1.414 . S
C879 C882 1.499 . S
C880 H860 0.950 . S
C880 C879 1.414 . S
C880 C881 1.374 . S
C881 H861 0.950 . S
C881 C877 1.385 . S
C881 C880 1.374 . S
C882 C879 1.499 . S
C882 C883 1.373 . S
C882 C884 1.389 . S
C883 H862 0.950 . S
C883 C882 1.373 . S
C883 C899 1.377 . S
C884 C882 1.389 . S
C884 C885 1.524 . S
C884 C898 1.377 . S
C885 C884 1.524 . S
C885 C886 1.397 . S
C885 C890 1.363 . S
C886 H863 0.950 . S
C886 C885 1.397 . S
C886 C887 1.334 . S
C887 H864 0.950 . S
C887 C886 1.334 . S
C887 C888 1.287 . S
C888 C887 1.287 . S
C888 C889 1.524 . S
C888 H907 0.913 . S
C889 H865 0.950 . S
C889 C888 1.524 . S
C889 C890 1.415 . S
C890 H866 0.950 . S
C890 C885 1.363 . S
C890 C889 1.415 . S
C891 H867 0.951 . S
C891 C892 1.366 . S
C891 C893 1.388 . S
C892 C891 1.366 . S
C892 C896 1.385 . S
C893 H868 0.951 . S
C893 C891 1.388 . S
C893 C894 1.366 . S
C894 C893 1.366 . S
C894 C895 1.414 . S
C894 C897 1.499 . S
C895 H869 0.950 . S
C895 C894 1.414 . S
C895 C896 1.374 . S
C896 H870 0.950 . S
C896 C892 1.385 . S
C896 C895 1.374 . S
C897 C894 1.499 . S
C897 C898 1.373 . S
C897 C899 1.389 . S
C898 H871 0.950 . S
C898 C884 1.377 . S
C898 C897 1.373 . S
C899 C883 1.377 . S
C899 C897 1.389 . S
C899 C900 1.524 . S
C900 C899 1.524 . S
C900 C901 1.397 . S
C900 C905 1.363 . S
C901 H872 0.950 . S
C901 C900 1.397 . S
C901 C902 1.334 . S
C902 H873 0.950 . S
C902 C901 1.334 . S
C902 C903 1.287 . S
C903 C902 1.287 . S
C903 C904 1.524 . S
C903 H906 0.999 . S
C904 H874 0.950 . S
C904 C903 1.524 . S
C904 C905 1.415 . S
C905 H875 0.950 . S
C905 C900 1.363 . S
C905 C904 1.415 . S
H906 C903 0.999 . S
H907 C888 0.913 . S
H908 C926 0.951 . S
H909 C928 0.951 . S
H910 C930 0.950 . S
H911 C931 0.950 . S
H912 C933 0.950 . S
H913 C936 0.950 . S
H914 C937 0.950 . S
H915 C939 0.950 . S
H916 C940 0.950 . S
H917 C941 0.951 . S
H918 C943 0.951 . S
H919 C945 0.950 . S
H920 C946 0.950 . S
H921 C948 0.950 . S
H922 C951 0.950 . S
H923 C952 0.950 . S
H924 C954 0.950 1_455 S
H925 C955 0.950 . S
C926 H908 0.951 . S
C926 C927 1.366 . S
C926 C928 1.388 . S
C927 C926 1.366 . S
C927 C931 1.385 . S
C928 H909 0.951 . S
C928 C926 1.388 . S
C928 C929 1.366 . S
C929 C928 1.366 . S
C929 C930 1.414 . S
C929 C932 1.499 . S
C930 H910 0.950 . S
C930 C929 1.414 . S
C930 C931 1.374 . S
C931 H911 0.950 . S
C931 C927 1.385 . S
C931 C930 1.374 . S
C932 C929 1.499 . S
C932 C933 1.373 . S
C932 C934 1.389 . S
C933 H912 0.950 . S
C933 C932 1.373 . S
C933 C949 1.377 . S
C934 C932 1.389 . S
C934 C935 1.524 . S
C934 C948 1.377 . S
C935 C934 1.524 . S
C935 C936 1.397 . S
C935 C940 1.363 . S
C936 H913 0.950 . S
C936 C935 1.397 . S
C936 C937 1.334 . S
C937 H914 0.950 . S
C937 C936 1.334 . S
C937 C938 1.287 . S
C938 C937 1.287 . S
C938 C939 1.524 . S
C938 H957 0.913 . S
C939 H915 0.950 . S
C939 C938 1.524 . S
C939 C940 1.415 . S
C940 H916 0.950 . S
C940 C935 1.363 . S
C940 C939 1.415 . S
C941 H917 0.951 . S
C941 C942 1.366 . S
C941 C943 1.388 . S
C942 C941 1.366 . S
C942 C946 1.385 . S
C943 H918 0.951 . S
C943 C941 1.388 . S
C943 C944 1.366 . S
C944 C943 1.366 . S
C944 C945 1.414 . S
C944 C947 1.499 . S
C945 H919 0.950 . S
C945 C944 1.414 . S
C945 C946 1.374 . S
C946 H920 0.950 . S
C946 C942 1.385 . S
C946 C945 1.374 . S
C947 C944 1.499 . S
C947 C948 1.373 . S
C947 C949 1.389 . S
C948 H921 0.950 . S
C948 C934 1.377 . S
C948 C947 1.373 . S
C949 C933 1.377 . S
C949 C947 1.389 . S
C949 C950 1.524 . S
C950 C949 1.524 . S
C950 C951 1.397 . S
C950 C955 1.363 . S
C951 H922 0.950 . S
C951 C950 1.397 . S
C951 C952 1.334 . S
C952 H923 0.950 . S
C952 C951 1.334 . S
C952 C953 1.287 . S
C953 C952 1.287 . S
C953 C954 1.524 . S
C953 H956 0.999 1_655 S
C954 H924 0.950 1_655 S
C954 C953 1.524 . S
C954 C955 1.415 . S
C955 H925 0.950 . S
C955 C950 1.363 . S
C955 C954 1.415 . S
H956 C953 0.999 1_455 S
H957 C938 0.913 . S
H958 C976 0.951 . S
H959 C978 0.951 . S
H960 C980 0.950 . S
H961 C981 0.950 . S
H962 C983 0.950 . S
H963 C986 0.950 . S
H964 C987 0.950 . S
H965 C989 0.950 . S
H966 C990 0.950 . S
H967 C991 0.951 . S
H968 C993 0.951 . S
H969 C995 0.950 . S
H970 C996 0.950 . S
H971 C998 0.950 . S
H972 C1001 0.950 . S
H973 C1002 0.950 . S
H974 C1004 0.950 . S
H975 C1005 0.950 . S
C976 H958 0.951 . S
C976 C977 1.366 . S
C976 C978 1.388 . S
C977 C976 1.366 . S
C977 C981 1.385 . S
C978 H959 0.951 . S
C978 C976 1.388 . S
C978 C979 1.366 . S
C979 C978 1.366 . S
C979 C980 1.414 . S
C979 C982 1.499 . S
C980 H960 0.950 . S
C980 C979 1.414 . S
C980 C981 1.374 . S
C981 H961 0.950 . S
C981 C977 1.385 . S
C981 C980 1.374 . S
C982 C979 1.499 . S
C982 C983 1.373 . S
C982 C984 1.389 . S
C983 H962 0.950 . S
C983 C982 1.373 . S
C983 C999 1.377 . S
C984 C982 1.389 . S
C984 C985 1.524 . S
C984 C998 1.377 . S
C985 C984 1.524 . S
C985 C986 1.397 . S
C985 C990 1.363 . S
C986 H963 0.950 . S
C986 C985 1.397 . S
C986 C987 1.334 . S
C987 H964 0.950 . S
C987 C986 1.334 . S
C987 C988 1.287 . S
C988 C987 1.287 . S
C988 C989 1.524 . S
C988 H1007 0.913 . S
C989 H965 0.950 . S
C989 C988 1.524 . S
C989 C990 1.415 . S
C990 H966 0.950 . S
C990 C985 1.363 . S
C990 C989 1.415 . S
C991 H967 0.951 . S
C991 C992 1.366 . S
C991 C993 1.388 . S
C992 C991 1.366 . S
C992 C996 1.385 . S
C993 H968 0.951 . S
C993 C991 1.388 . S
C993 C994 1.366 . S
C994 C993 1.366 . S
C994 C995 1.414 . S
C994 C997 1.499 . S
C995 H969 0.950 . S
C995 C994 1.414 . S
C995 C996 1.374 . S
C996 H970 0.950 . S
C996 C992 1.385 . S
C996 C995 1.374 . S
C997 C994 1.499 . S
C997 C998 1.373 . S
C997 C999 1.389 . S
C998 H971 0.950 . S
C998 C984 1.377 . S
C998 C997 1.373 . S
C999 C983 1.377 . S
C999 C997 1.389 . S
C999 C1000 1.524 . S
C1000 C999 1.524 . S
C1000 C1001 1.397 . S
C1000 C1005 1.363 . S
C1001 H972 0.950 . S
C1001 C1000 1.397 . S
C1001 C1002 1.334 . S
C1002 H973 0.950 . S
C1002 C1001 1.334 . S
C1002 C1003 1.287 . S
C1003 C1002 1.287 . S
C1003 C1004 1.524 . S
C1003 H1006 0.999 . S
C1004 H974 0.950 . S
C1004 C1003 1.524 . S
C1004 C1005 1.415 . S
C1005 H975 0.950 . S
C1005 C1000 1.363 . S
C1005 C1004 1.415 . S
H1006 C1003 0.999 . S
H1007 C988 0.913 . S
H1008 C1026 0.951 . S
H1009 C1028 0.951 . S
H1010 C1030 0.950 . S
H1011 C1031 0.950 . S
H1012 C1033 0.950 . S
H1013 C1036 0.950 . S
H1014 C1037 0.950 . S
H1015 C1039 0.950 . S
H1016 C1040 0.950 . S
H1017 C1041 0.951 . S
H1018 C1043 0.951 . S
H1019 C1045 0.950 . S
H1020 C1046 0.950 . S
H1021 C1048 0.950 . S
H1022 C1051 0.950 . S
H1023 C1052 0.950 . S
H1024 C1054 0.950 . S
H1025 C1055 0.950 . S
C1026 H1008 0.951 . S
C1026 C1027 1.366 . S
C1026 C1028 1.388 . S
C1027 C1026 1.366 . S
C1027 C1031 1.385 . S
C1028 H1009 0.951 . S
C1028 C1026 1.388 . S
C1028 C1029 1.366 . S
C1029 C1028 1.366 . S
C1029 C1030 1.414 1_565 S
C1029 C1032 1.499 1_565 S
C1030 H1010 0.950 . S
C1030 C1029 1.414 1_545 S
C1030 C1031 1.374 1_545 S
C1031 H1011 0.950 . S
C1031 C1027 1.385 . S
C1031 C1030 1.374 1_565 S
C1032 C1029 1.499 1_545 S
C1032 C1033 1.373 . S
C1032 C1034 1.389 . S
C1033 H1012 0.950 . S
C1033 C1032 1.373 . S
C1033 C1049 1.377 . S
C1034 C1032 1.389 . S
C1034 C1035 1.524 1_545 S
C1034 C1048 1.377 . S
C1035 C1034 1.524 1_565 S
C1035 C1036 1.397 . S
C1035 C1040 1.363 . S
C1036 H1013 0.950 . S
C1036 C1035 1.397 . S
C1036 C1037 1.334 . S
C1037 H1014 0.950 . S
C1037 C1036 1.334 . S
C1037 C1038 1.287 . S
C1038 C1037 1.287 . S
C1038 C1039 1.524 . S
C1038 H1057 0.913 . S
C1039 H1015 0.950 . S
C1039 C1038 1.524 . S
C1039 C1040 1.415 . S
C1040 H1016 0.950 . S
C1040 C1035 1.363 . S
C1040 C1039 1.415 . S
C1041 H1017 0.951 . S
C1041 C1042 1.366 . S
C1041 C1043 1.388 . S
C1042 C1041 1.366 . S
C1042 C1046 1.385 . S
C1043 H1018 0.951 . S
C1043 C1041 1.388 . S
C1043 C1044 1.366 . S
C1044 C1043 1.366 . S
C1044 C1045 1.414 . S
C1044 C1047 1.499 . S
C1045 H1019 0.950 . S
C1045 C1044 1.414 . S
C1045 C1046 1.374 . S
C1046 H1020 0.950 . S
C1046 C1042 1.385 . S
C1046 C1045 1.374 . S
C1047 C1044 1.499 . S
C1047 C1048 1.373 . S
C1047 C1049 1.389 . S
C1048 H1021 0.950 . S
C1048 C1034 1.377 . S
C1048 C1047 1.373 . S
C1049 C1033 1.377 . S
C1049 C1047 1.389 . S
C1049 C1050 1.524 . S
C1050 C1049 1.524 . S
C1050 C1051 1.397 . S
C1050 C1055 1.363 . S
C1051 H1022 0.950 . S
C1051 C1050 1.397 . S
C1051 C1052 1.334 . S
C1052 H1023 0.950 . S
C1052 C1051 1.334 . S
C1052 C1053 1.287 . S
C1053 C1052 1.287 . S
C1053 C1054 1.524 . S
C1053 H1056 0.999 . S
C1054 H1024 0.950 . S
C1054 C1053 1.524 . S
C1054 C1055 1.415 . S
C1055 H1025 0.950 . S
C1055 C1050 1.363 . S
C1055 C1054 1.415 . S
H1056 C1053 0.999 . S
H1057 C1038 0.913 . S
H1058 C1076 0.951 . S
H1059 C1078 0.951 . S
H1060 C1080 0.950 . S
H1061 C1081 0.950 . S
H1062 C1083 0.950 . S
H1063 C1086 0.950 . S
H1064 C1087 0.950 . S
H1065 C1089 0.950 . S
H1066 C1090 0.950 . S
H1067 C1091 0.951 . S
H1068 C1093 0.951 . S
H1069 C1095 0.950 . S
H1070 C1096 0.950 . S
H1071 C1098 0.950 . S
H1072 C1101 0.950 . S
H1073 C1102 0.950 . S
H1074 C1104 0.950 . S
H1075 C1105 0.950 . S
C1076 H1058 0.951 . S
C1076 C1077 1.366 . S
C1076 C1078 1.388 . S
C1077 C1076 1.366 . S
C1077 C1081 1.385 . S
C1078 H1059 0.951 . S
C1078 C1076 1.388 . S
C1078 C1079 1.366 . S
C1079 C1078 1.366 . S
C1079 C1080 1.414 . S
C1079 C1082 1.499 . S
C1080 H1060 0.950 . S
C1080 C1079 1.414 . S
C1080 C1081 1.374 . S
C1081 H1061 0.950 . S
C1081 C1077 1.385 . S
C1081 C1080 1.374 . S
C1082 C1079 1.499 . S
C1082 C1083 1.373 . S
C1082 C1084 1.389 . S
C1083 H1062 0.950 . S
C1083 C1082 1.373 . S
C1083 C1099 1.377 . S
C1084 C1082 1.389 . S
C1084 C1085 1.524 . S
C1084 C1098 1.377 . S
C1085 C1084 1.524 . S
C1085 C1086 1.397 . S
C1085 C1090 1.363 . S
C1086 H1063 0.950 . S
C1086 C1085 1.397 . S
C1086 C1087 1.334 . S
C1087 H1064 0.950 . S
C1087 C1086 1.334 . S
C1087 C1088 1.287 . S
C1088 C1087 1.287 . S
C1088 C1089 1.524 . S
C1088 H1107 0.913 . S
C1089 H1065 0.950 . S
C1089 C1088 1.524 . S
C1089 C1090 1.415 . S
C1090 H1066 0.950 . S
C1090 C1085 1.363 . S
C1090 C1089 1.415 . S
C1091 H1067 0.951 . S
C1091 C1092 1.366 . S
C1091 C1093 1.388 . S
C1092 C1091 1.366 . S
C1092 C1096 1.385 . S
C1093 H1068 0.951 . S
C1093 C1091 1.388 . S
C1093 C1094 1.366 . S
C1094 C1093 1.366 . S
C1094 C1095 1.414 . S
C1094 C1097 1.499 . S
C1095 H1069 0.950 . S
C1095 C1094 1.414 . S
C1095 C1096 1.374 . S
C1096 H1070 0.950 . S
C1096 C1092 1.385 . S
C1096 C1095 1.374 . S
C1097 C1094 1.499 . S
C1097 C1098 1.373 . S
C1097 C1099 1.389 . S
C1098 H1071 0.950 . S
C1098 C1084 1.377 . S
C1098 C1097 1.373 . S
C1099 C1083 1.377 . S
C1099 C1097 1.389 . S
C1099 C1100 1.524 . S
C1100 C1099 1.524 . S
C1100 C1101 1.397 . S
C1100 C1105 1.363 . S
C1101 H1072 0.950 . S
C1101 C1100 1.397 . S
C1101 C1102 1.334 . S
C1102 H1073 0.950 . S
C1102 C1101 1.334 . S
C1102 C1103 1.287 . S
C1103 C1102 1.287 . S
C1103 C1104 1.524 . S
C1103 H1106 0.999 . S
C1104 H1074 0.950 . S
C1104 C1103 1.524 . S
C1104 C1105 1.415 . S
C1105 H1075 0.950 . S
C1105 C1100 1.363 . S
C1105 C1104 1.415 . S
H1106 C1103 0.999 . S
H1107 C1088 0.913 . S
H1108 C1126 0.951 . S
H1109 C1128 0.951 . S
H1110 C1130 0.950 . S
H1111 C1131 0.950 . S
H1112 C1133 0.950 . S
H1113 C1136 0.950 . S
H1114 C1137 0.950 . S
H1115 C1139 0.950 1_455 S
H1116 C1140 0.950 1_455 S
H1117 C1141 0.951 1_655 S
H1118 C1143 0.951 . S
H1119 C1145 0.950 . S
H1120 C1146 0.950 . S
H1121 C1148 0.950 . S
H1122 C1151 0.950 1_455 S
H1123 C1152 0.950 1_455 S
H1124 C1154 0.950 . S
H1125 C1155 0.950 . S
C1126 H1108 0.951 . S
C1126 C1127 1.366 . S
C1126 C1128 1.388 . S
C1127 C1126 1.366 . S
C1127 C1131 1.385 . S
C1128 H1109 0.951 . S
C1128 C1126 1.388 . S
C1128 C1129 1.366 . S
C1129 C1128 1.366 . S
C1129 C1130 1.414 . S
C1129 C1132 1.499 . S
C1130 H1110 0.950 . S
C1130 C1129 1.414 . S
C1130 C1131 1.374 . S
C1131 H1111 0.950 . S
C1131 C1127 1.385 . S
C1131 C1130 1.374 . S
C1132 C1129 1.499 . S
C1132 C1133 1.373 . S
C1132 C1134 1.389 . S
C1133 H1112 0.950 . S
C1133 C1132 1.373 . S
C1133 C1149 1.377 . S
C1134 C1132 1.389 . S
C1134 C1135 1.524 . S
C1134 C1148 1.377 . S
C1135 C1134 1.524 . S
C1135 C1136 1.397 . S
C1135 C1140 1.363 . S
C1136 H1113 0.950 . S
C1136 C1135 1.397 . S
C1136 C1137 1.334 . S
C1137 H1114 0.950 . S
C1137 C1136 1.334 . S
C1137 C1138 1.287 . S
C1138 C1137 1.287 . S
C1138 C1139 1.524 . S
C1138 H1157 0.913 . S
C1139 H1115 0.950 1_655 S
C1139 C1138 1.524 . S
C1139 C1140 1.415 . S
C1140 H1116 0.950 1_655 S
C1140 C1135 1.363 . S
C1140 C1139 1.415 . S
C1141 H1117 0.951 1_455 S
C1141 C1142 1.366 . S
C1141 C1143 1.388 1_455 S
C1142 C1141 1.366 . S
C1142 C1146 1.385 . S
C1143 H1118 0.951 . S
C1143 C1141 1.388 1_655 S
C1143 C1144 1.366 1_655 S
C1144 C1143 1.366 1_455 S
C1144 C1145 1.414 . S
C1144 C1147 1.499 1_455 S
C1145 H1119 0.950 . S
C1145 C1144 1.414 . S
C1145 C1146 1.374 . S
C1146 H1120 0.950 . S
C1146 C1142 1.385 . S
C1146 C1145 1.374 . S
C1147 C1144 1.499 1_655 S
C1147 C1148 1.373 . S
C1147 C1149 1.389 . S
C1148 H1121 0.950 . S
C1148 C1134 1.377 . S
C1148 C1147 1.373 . S
C1149 C1133 1.377 . S
C1149 C1147 1.389 . S
C1149 C1150 1.524 . S
C1150 C1149 1.524 . S
C1150 C1151 1.397 . S
C1150 C1155 1.363 . S
C1151 H1122 0.950 1_655 S
C1151 C1150 1.397 . S
C1151 C1152 1.334 . S
C1152 H1123 0.950 1_655 S
C1152 C1151 1.334 . S
C1152 C1153 1.287 . S
C1153 C1152 1.287 . S
C1153 C1154 1.524 . S
C1153 H1156 0.999 . S
C1154 H1124 0.950 . S
C1154 C1153 1.524 . S
C1154 C1155 1.415 . S
C1155 H1125 0.950 . S
C1155 C1150 1.363 . S
C1155 C1154 1.415 . S
H1156 C1153 0.999 . S
H1157 C1138 0.913 . S
H1158 C1176 0.951 . S
H1159 C1178 0.951 . S
H1160 C1180 0.950 . S
H1161 C1181 0.950 1_565 S
H1162 C1183 0.950 . S
H1163 C1186 0.937 1_565 S
H1164 C1187 0.950 . S
H1165 C1189 0.950 . S
H1166 C1190 0.950 . S
H1167 C1191 0.951 . S
H1168 C1193 0.951 . S
H1169 C1195 0.950 . S
H1170 C1196 0.950 . S
H1171 C1198 0.950 . S
H1172 C1201 0.950 . S
H1173 C1202 0.950 . S
H1174 C1204 0.950 . S
H1175 C1205 0.950 . S
C1176 H1158 0.951 . S
C1176 C1177 1.366 . S
C1176 C1178 1.388 . S
C1177 C1176 1.366 . S
C1177 C1181 1.385 . S
C1178 H1159 0.951 . S
C1178 C1176 1.388 . S
C1178 C1179 1.366 . S
C1179 C1178 1.366 . S
C1179 C1180 1.414 1_545 S
C1179 C1182 1.499 1_545 S
C1180 H1160 0.950 . S
C1180 C1179 1.414 1_565 S
C1180 C1181 1.374 1_565 S
C1181 H1161 0.950 1_545 S
C1181 C1177 1.385 . S
C1181 C1180 1.374 1_545 S
C1182 C1179 1.499 1_565 S
C1182 C1183 1.373 . S
C1182 C1184 1.389 . S
C1183 H1162 0.950 . S
C1183 C1182 1.373 . S
C1183 C1199 1.377 . S
C1184 C1182 1.389 . S
C1184 C1185 1.524 1_565 S
C1184 C1198 1.377 . S
C1185 C1184 1.524 1_545 S
C1185 C1186 1.409 . S
C1185 C1190 1.363 . S
C1186 H1163 0.937 1_545 S
C1186 C1185 1.409 . S
C1186 C1187 1.335 . S
C1187 H1164 0.950 . S
C1187 C1186 1.335 . S
C1187 C1188 1.287 . S
C1188 C1187 1.287 . S
C1188 C1189 1.524 . S
C1188 H1207 0.913 . S
C1189 H1165 0.950 . S
C1189 C1188 1.524 . S
C1189 C1190 1.415 . S
C1190 H1166 0.950 . S
C1190 C1185 1.363 . S
C1190 C1189 1.415 . S
C1191 H1167 0.951 . S
C1191 C1192 1.366 . S
C1191 C1193 1.388 . S
C1192 C1191 1.366 . S
C1192 C1196 1.385 . S
C1193 H1168 0.951 . S
C1193 C1191 1.388 . S
C1193 C1194 1.366 . S
C1194 C1193 1.366 . S
C1194 C1195 1.414 . S
C1194 C1197 1.499 . S
C1195 H1169 0.950 . S
C1195 C1194 1.414 . S
C1195 C1196 1.374 . S
C1196 H1170 0.950 . S
C1196 C1192 1.385 . S
C1196 C1195 1.374 . S
C1197 C1194 1.499 . S
C1197 C1198 1.373 . S
C1197 C1199 1.389 . S
C1198 H1171 0.950 . S
C1198 C1184 1.377 . S
C1198 C1197 1.373 . S
C1199 C1183 1.377 . S
C1199 C1197 1.389 . S
C1199 C1200 1.524 . S
C1200 C1199 1.524 . S
C1200 C1201 1.397 . S
C1200 C1205 1.363 . S
C1201 H1172 0.950 . S
C1201 C1200 1.397 . S
C1201 C1202 1.334 . S
C1202 H1173 0.950 . S
C1202 C1201 1.334 . S
C1202 C1203 1.287 . S
C1203 C1202 1.287 . S
C1203 C1204 1.524 . S
C1203 H1206 0.999 . S
C1204 H1174 0.950 . S
C1204 C1203 1.524 . S
C1204 C1205 1.415 . S
C1205 H1175 0.950 . S
C1205 C1200 1.363 . S
C1205 C1204 1.415 . S
H1206 C1203 0.999 . S
H1207 C1188 0.913 . S
H1208 C1226 0.951 . S
H1209 C1228 0.951 . S
H1210 C1230 0.950 . S
H1211 C1231 0.950 . S
H1212 C1233 0.950 . S
H1213 C1236 0.950 . S
H1214 C1237 0.950 . S
H1215 C1239 0.950 . S
H1216 C1240 0.950 . S
H1217 C1241 0.951 . S
H1218 C1243 0.951 . S
H1219 C1245 0.950 . S
H1220 C1246 0.950 . S
H1221 C1248 0.950 . S
H1222 C1251 0.950 . S
H1223 C1252 0.950 . S
H1224 C1254 0.950 . S
H1225 C1255 0.950 . S
C1226 H1208 0.951 . S
C1226 C1227 1.366 . S
C1226 C1228 1.388 . S
C1227 C1226 1.366 . S
C1227 C1231 1.385 . S
C1228 H1209 0.951 . S
C1228 C1226 1.388 . S
C1228 C1229 1.366 . S
C1229 C1228 1.366 . S
C1229 C1230 1.414 . S
C1229 C1232 1.499 . S
C1230 H1210 0.950 . S
C1230 C1229 1.414 . S
C1230 C1231 1.374 . S
C1231 H1211 0.950 . S
C1231 C1227 1.385 . S
C1231 C1230 1.374 . S
C1232 C1229 1.499 . S
C1232 C1233 1.373 . S
C1232 C1234 1.389 . S
C1233 H1212 0.950 . S
C1233 C1232 1.373 . S
C1233 C1249 1.377 1_556 S
C1234 C1232 1.389 . S
C1234 C1235 1.524 . S
C1234 C1248 1.403 . S
C1235 C1234 1.524 . S
C1235 C1236 1.397 . S
C1235 C1240 1.363 . S
C1236 H1213 0.950 . S
C1236 C1235 1.397 . S
C1236 C1237 1.334 . S
C1237 H1214 0.950 . S
C1237 C1236 1.334 . S
C1237 C1238 1.287 . S
C1238 C1237 1.287 . S
C1238 C1239 1.524 . S
C1238 H1257 0.913 . S
C1239 H1215 0.950 . S
C1239 C1238 1.524 . S
C1239 C1240 1.415 . S
C1240 H1216 0.950 . S
C1240 C1235 1.363 . S
C1240 C1239 1.415 . S
C1241 H1217 0.951 . S
C1241 C1242 1.366 . S
C1241 C1243 1.388 . S
C1242 C1241 1.366 . S
C1242 C1246 1.385 . S
C1243 H1218 0.951 . S
C1243 C1241 1.388 . S
C1243 C1244 1.366 . S
C1244 C1243 1.366 . S
C1244 C1245 1.414 . S
C1244 C1247 1.499 . S
C1245 H1219 0.950 . S
C1245 C1244 1.414 . S
C1245 C1246 1.374 . S
C1246 H1220 0.950 . S
C1246 C1242 1.385 . S
C1246 C1245 1.374 . S
C1247 C1244 1.499 . S
C1247 C1248 1.347 1_554 S
C1247 C1249 1.389 . S
C1248 H1221 0.950 . S
C1248 C1234 1.403 . S
C1248 C1247 1.347 1_556 S
C1249 C1233 1.377 1_554 S
C1249 C1247 1.389 . S
C1249 C1250 1.524 . S
C1250 C1249 1.524 . S
C1250 C1251 1.397 . S
C1250 C1255 1.363 . S
C1251 H1222 0.950 . S
C1251 C1250 1.397 . S
C1251 C1252 1.334 . S
C1252 H1223 0.950 . S
C1252 C1251 1.334 . S
C1252 C1253 1.287 . S
C1253 C1252 1.287 . S
C1253 C1254 1.524 . S
C1253 H1256 0.999 . S
C1254 H1224 0.950 . S
C1254 C1253 1.524 . S
C1254 C1255 1.415 . S
C1255 H1225 0.950 . S
C1255 C1250 1.363 . S
C1255 C1254 1.415 . S
H1256 C1253 0.999 . S
H1257 C1238 0.913 . S
H1258 C1276 0.951 . S
H1259 C1278 0.951 . S
H1260 C1280 0.950 . S
H1261 C1281 0.950 1_455 S
H1262 C1283 0.950 . S
H1263 C1286 0.950 1_455 S
H1264 C1287 0.950 . S
H1265 C1289 0.950 . S
H1266 C1290 0.950 . S
H1267 C1291 0.951 . S
H1268 C1293 0.951 . S
H1269 C1295 0.950 . S
H1270 C1296 0.950 . S
H1271 C1298 0.950 . S
H1272 C1301 0.950 . S
H1273 C1302 0.950 . S
H1274 C1304 0.950 . S
H1275 C1305 0.950 . S
C1276 H1258 0.951 . S
C1276 C1277 1.366 . S
C1276 C1278 1.388 . S
C1277 C1276 1.366 . S
C1277 C1281 1.385 . S
C1278 H1259 0.951 . S
C1278 C1276 1.388 . S
C1278 C1279 1.366 . S
C1279 C1278 1.366 . S
C1279 C1280 1.414 1_655 S
C1279 C1282 1.499 1_655 S
C1280 H1260 0.950 . S
C1280 C1279 1.414 1_455 S
C1280 C1281 1.374 1_455 S
C1281 H1261 0.950 1_655 S
C1281 C1277 1.385 . S
C1281 C1280 1.374 1_655 S
C1282 C1279 1.499 1_455 S
C1282 C1283 1.373 . S
C1282 C1284 1.389 . S
C1283 H1262 0.950 . S
C1283 C1282 1.373 . S
C1283 C1299 1.377 . S
C1284 C1282 1.389 . S
C1284 C1285 1.524 1_455 S
C1284 C1298 1.377 . S
C1285 C1284 1.524 1_655 S
C1285 C1286 1.397 . S
C1285 C1290 1.363 . S
C1286 H1263 0.950 1_655 S
C1286 C1285 1.397 . S
C1286 C1287 1.334 . S
C1287 H1264 0.950 . S
C1287 C1286 1.334 . S
C1287 C1288 1.287 . S
C1288 C1287 1.287 . S
C1288 C1289 1.524 . S
C1288 H1307 0.913 . S
C1289 H1265 0.950 . S
C1289 C1288 1.524 . S
C1289 C1290 1.415 . S
C1290 H1266 0.950 . S
C1290 C1285 1.363 . S
C1290 C1289 1.415 . S
C1291 H1267 0.951 . S
C1291 C1292 1.366 . S
C1291 C1293 1.388 . S
C1292 C1291 1.366 . S
C1292 C1296 1.385 . S
C1293 H1268 0.951 . S
C1293 C1291 1.388 . S
C1293 C1294 1.366 . S
C1294 C1293 1.366 . S
C1294 C1295 1.414 . S
C1294 C1297 1.499 . S
C1295 H1269 0.950 . S
C1295 C1294 1.414 . S
C1295 C1296 1.374 . S
C1296 H1270 0.950 . S
C1296 C1292 1.385 . S
C1296 C1295 1.374 . S
C1297 C1294 1.499 . S
C1297 C1298 1.373 . S
C1297 C1299 1.389 . S
C1298 H1271 0.950 . S
C1298 C1284 1.377 . S
C1298 C1297 1.373 . S
C1299 C1283 1.377 . S
C1299 C1297 1.389 . S
C1299 C1300 1.524 . S
C1300 C1299 1.524 . S
C1300 C1301 1.397 . S
C1300 C1305 1.363 . S
C1301 H1272 0.950 . S
C1301 C1300 1.397 . S
C1301 C1302 1.334 . S
C1302 H1273 0.950 . S
C1302 C1301 1.334 . S
C1302 C1303 1.287 . S
C1303 C1302 1.287 . S
C1303 C1304 1.524 . S
C1303 H1306 0.999 . S
C1304 H1274 0.950 . S
C1304 C1303 1.524 . S
C1304 C1305 1.415 . S
C1305 H1275 0.950 . S
C1305 C1300 1.363 . S
C1305 C1304 1.415 . S
H1306 C1303 0.999 . S
H1307 C1288 0.913 . S
H1308 C1326 0.951 . S
H1309 C1328 0.951 . S
H1310 C1330 0.950 . S
H1311 C1331 0.950 . S
H1312 C1333 0.950 . S
H1313 C1336 0.950 . S
H1314 C1337 0.950 . S
H1315 C1339 0.950 . S
H1316 C1340 0.950 1_455 S
H1317 C1341 0.951 . S
H1318 C1343 0.951 . S
H1319 C1345 0.950 . S
H1320 C1346 0.950 . S
H1321 C1348 0.950 . S
H1322 C1351 0.950 . S
H1323 C1352 0.950 . S
H1324 C1354 0.950 . S
H1325 C1355 0.950 . S
C1326 H1308 0.951 . S
C1326 C1327 1.366 . S
C1326 C1328 1.388 . S
C1327 C1326 1.366 . S
C1327 C1331 1.385 . S
C1328 H1309 0.951 . S
C1328 C1326 1.388 . S
C1328 C1329 1.386 . S
C1329 C1328 1.386 . S
C1329 C1330 1.415 1_455 S
C1329 C1332 1.480 1_455 S
C1330 H1310 0.950 . S
C1330 C1329 1.415 1_655 S
C1330 C1331 1.374 1_655 S
C1331 H1311 0.950 . S
C1331 C1327 1.385 . S
C1331 C1330 1.374 1_455 S
C1332 C1329 1.480 1_655 S
C1332 C1333 1.373 . S
C1332 C1334 1.389 . S
C1333 H1312 0.950 . S
C1333 C1332 1.373 . S
C1333 C1349 1.377 . S
C1334 C1332 1.389 . S
C1334 C1335 1.524 . S
C1334 C1348 1.377 . S
C1335 C1334 1.524 . S
C1335 C1336 1.397 . S
C1335 C1340 1.363 . S
C1336 H1313 0.950 . S
C1336 C1335 1.397 . S
C1336 C1337 1.334 . S
C1337 H1314 0.950 . S
C1337 C1336 1.334 . S
C1337 C1338 1.287 . S
C1338 C1337 1.287 . S
C1338 C1339 1.524 1_655 S
C1338 H1357 0.913 . S
C1339 H1315 0.950 . S
C1339 C1338 1.524 1_455 S
C1339 C1340 1.415 1_455 S
C1340 H1316 0.950 1_655 S
C1340 C1335 1.363 . S
C1340 C1339 1.415 1_655 S
C1341 H1317 0.951 . S
C1341 C1342 1.366 . S
C1341 C1343 1.388 . S
C1342 C1341 1.366 . S
C1342 C1346 1.385 . S
C1343 H1318 0.951 . S
C1343 C1341 1.388 . S
C1343 C1344 1.366 . S
C1344 C1343 1.366 . S
C1344 C1345 1.414 . S
C1344 C1347 1.499 . S
C1345 H1319 0.950 . S
C1345 C1344 1.414 . S
C1345 C1346 1.374 . S
C1346 H1320 0.950 . S
C1346 C1342 1.385 . S
C1346 C1345 1.374 . S
C1347 C1344 1.499 . S
C1347 C1348 1.373 . S
C1347 C1349 1.389 . S
C1348 H1321 0.950 . S
C1348 C1334 1.377 . S
C1348 C1347 1.373 . S
C1349 C1333 1.377 . S
C1349 C1347 1.389 . S
C1349 C1350 1.524 . S
C1350 C1349 1.524 . S
C1350 C1351 1.397 . S
C1350 C1355 1.363 . S
C1351 H1322 0.950 . S
C1351 C1350 1.397 . S
C1351 C1352 1.334 . S
C1352 H1323 0.950 . S
C1352 C1351 1.334 . S
C1352 C1353 1.287 . S
C1353 C1352 1.287 . S
C1353 C1354 1.524 . S
C1353 H1356 0.999 . S
C1354 H1324 0.950 . S
C1354 C1353 1.524 . S
C1354 C1355 1.415 . S
C1355 H1325 0.950 . S
C1355 C1350 1.363 . S
C1355 C1354 1.415 . S
H1356 C1353 0.999 . S
H1357 C1338 0.913 . S
H1358 C1376 0.951 . S
H1359 C1378 0.951 . S
H1360 C1380 0.950 . S
H1361 C1381 0.950 . S
H1362 C1383 0.950 . S
H1363 C1386 0.950 . S
H1364 C1387 0.950 . S
H1365 C1389 0.950 . S
H1366 C1390 0.950 . S
H1367 C1391 0.951 . S
H1368 C1393 0.951 . S
H1369 C1395 0.950 . S
H1370 C1396 0.950 . S
H1371 C1398 0.950 1_545 S
H1372 C1401 0.950 . S
H1373 C1402 0.950 . S
H1374 C1404 0.950 . S
H1375 C1405 0.950 . S
C1376 H1358 0.951 . S
C1376 C1377 1.366 . S
C1376 C1378 1.388 . S
C1377 C1376 1.366 . S
C1377 C1381 1.385 . S
C1378 H1359 0.951 . S
C1378 C1376 1.388 . S
C1378 C1379 1.366 . S
C1379 C1378 1.366 . S
C1379 C1380 1.414 . S
C1379 C1382 1.499 . S
C1380 H1360 0.950 . S
C1380 C1379 1.414 . S
C1380 C1381 1.374 . S
C1381 H1361 0.950 . S
C1381 C1377 1.385 . S
C1381 C1380 1.374 . S
C1382 C1379 1.499 . S
C1382 C1383 1.373 . S
C1382 C1384 1.389 . S
C1383 H1362 0.950 . S
C1383 C1382 1.373 . S
C1383 C1399 1.377 . S
C1384 C1382 1.389 . S
C1384 C1385 1.524 . S
C1384 C1398 1.377 . S
C1385 C1384 1.524 . S
C1385 C1386 1.397 . S
C1385 C1390 1.363 1_565 S
C1386 H1363 0.950 . S
C1386 C1385 1.397 . S
C1386 C1387 1.334 1_565 S
C1387 H1364 0.950 . S
C1387 C1386 1.334 1_545 S
C1387 C1388 1.287 . S
C1388 C1387 1.287 . S
C1388 C1389 1.524 . S
C1388 H1407 0.913 . S
C1389 H1365 0.950 . S
C1389 C1388 1.524 . S
C1389 C1390 1.415 . S
C1390 H1366 0.950 . S
C1390 C1385 1.363 1_545 S
C1390 C1389 1.415 . S
C1391 H1367 0.951 . S
C1391 C1392 1.366 . S
C1391 C1393 1.388 1_545 S
C1392 C1391 1.366 . S
C1392 C1396 1.385 . S
C1393 H1368 0.951 . S
C1393 C1391 1.388 1_565 S
C1393 C1394 1.355 1_565 S
C1394 C1393 1.355 1_545 S
C1394 C1395 1.438 . S
C1394 C1397 1.487 1_545 S
C1395 H1369 0.950 . S
C1395 C1394 1.438 . S
C1395 C1396 1.374 . S
C1396 H1370 0.950 . S
C1396 C1392 1.385 . S
C1396 C1395 1.374 . S
C1397 C1394 1.487 1_565 S
C1397 C1398 1.373 . S
C1397 C1399 1.389 . S
C1398 H1371 0.950 1_565 S
C1398 C1384 1.377 . S
C1398 C1397 1.373 . S
C1399 C1383 1.377 . S
C1399 C1397 1.389 . S
C1399 C1400 1.524 . S
C1400 C1399 1.524 . S
C1400 C1401 1.397 . S
C1400 C1405 1.363 . S
C1401 H1372 0.950 . S
C1401 C1400 1.397 . S
C1401 C1402 1.334 . S
C1402 H1373 0.950 . S
C1402 C1401 1.334 . S
C1402 C1403 1.287 . S
C1403 C1402 1.287 . S
C1403 C1404 1.524 . S
C1403 H1406 0.999 . S
C1404 H1374 0.950 . S
C1404 C1403 1.524 . S
C1404 C1405 1.415 . S
C1405 H1375 0.950 . S
C1405 C1400 1.363 . S
C1405 C1404 1.415 . S
H1406 C1403 0.999 . S
H1407 C1388 0.913 . S
H1408 C1426 0.951 . S
H1409 C1428 0.951 . S
H1410 C1430 0.950 . S
H1411 C1431 0.950 . S
H1412 C1433 0.950 . S
H1413 C1436 0.950 . S
H1414 C1437 0.950 . S
H1415 C1439 0.950 . S
H1416 C1440 0.950 . S
H1417 C1441 0.951 . S
H1418 C1443 0.951 . S
H1419 C1445 0.950 . S
H1420 C1446 0.950 . S
H1421 C1448 0.950 . S
H1422 C1451 0.950 . S
H1423 C1452 0.950 . S
H1424 C1454 0.950 . S
H1425 C1455 0.950 . S
C1426 H1408 0.951 . S
C1426 C1427 1.366 . S
C1426 C1428 1.388 . S
C1427 C1426 1.366 . S
C1427 C1431 1.385 . S
C1428 H1409 0.951 . S
C1428 C1426 1.388 . S
C1428 C1429 1.366 . S
C1429 C1428 1.366 . S
C1429 C1430 1.414 . S
C1429 C1432 1.499 . S
C1430 H1410 0.950 . S
C1430 C1429 1.414 . S
C1430 C1431 1.374 . S
C1431 H1411 0.950 . S
C1431 C1427 1.385 . S
C1431 C1430 1.374 . S
C1432 C1429 1.499 . S
C1432 C1433 1.373 . S
C1432 C1434 1.389 . S
C1433 H1412 0.950 . S
C1433 C1432 1.373 . S
C1433 C1449 1.377 . S
C1434 C1432 1.389 . S
C1434 C1435 1.524 . S
C1434 C1448 1.377 . S
C1435 C1434 1.524 . S
C1435 C1436 1.397 . S
C1435 C1440 1.363 . S
C1436 H1413 0.950 . S
C1436 C1435 1.397 . S
C1436 C1437 1.334 . S
C1437 H1414 0.950 . S
C1437 C1436 1.334 . S
C1437 C1438 1.287 . S
C1438 C1437 1.287 . S
C1438 C1439 1.524 . S
C1438 H1457 0.913 . S
C1439 H1415 0.950 . S
C1439 C1438 1.524 . S
C1439 C1440 1.415 . S
C1440 H1416 0.950 . S
C1440 C1435 1.363 . S
C1440 C1439 1.415 . S
C1441 H1417 0.951 . S
C1441 C1442 1.366 . S
C1441 C1443 1.388 . S
C1442 C1441 1.366 . S
C1442 C1446 1.385 . S
C1443 H1418 0.951 . S
C1443 C1441 1.388 . S
C1443 C1444 1.366 . S
C1444 C1443 1.366 . S
C1444 C1445 1.414 . S
C1444 C1447 1.499 . S
C1445 H1419 0.950 . S
C1445 C1444 1.414 . S
C1445 C1446 1.374 . S
C1446 H1420 0.950 . S
C1446 C1442 1.385 . S
C1446 C1445 1.374 . S
C1447 C1444 1.499 . S
C1447 C1448 1.373 . S
C1447 C1449 1.389 . S
C1448 H1421 0.950 . S
C1448 C1434 1.377 . S
C1448 C1447 1.373 . S
C1449 C1433 1.377 . S
C1449 C1447 1.389 . S
C1449 C1450 1.524 . S
C1450 C1449 1.524 . S
C1450 C1451 1.397 . S
C1450 C1455 1.363 . S
C1451 H1422 0.950 . S
C1451 C1450 1.397 . S
C1451 C1452 1.334 . S
C1452 H1423 0.950 . S
C1452 C1451 1.334 . S
C1452 C1453 1.287 . S
C1453 C1452 1.287 . S
C1453 C1454 1.524 . S
C1453 H1456 0.999 . S
C1454 H1424 0.950 . S
C1454 C1453 1.524 . S
C1454 C1455 1.415 . S
C1455 H1425 0.950 . S
C1455 C1450 1.363 . S
C1455 C1454 1.415 . S
H1456 C1453 0.999 . S
H1457 C1438 0.913 . S
H1458 C1476 0.951 . S
H1459 C1478 0.951 . S
H1460 C1480 0.950 1_455 S
H1461 C1481 0.950 . S
H1462 C1483 0.950 1_655 S
H1463 C1486 0.950 . S
H1464 C1487 0.950 . S
H1465 C1489 0.950 . S
H1466 C1490 0.950 . S
H1467 C1491 0.951 . S
H1468 C1493 0.951 . S
H1469 C1495 0.950 . S
H1470 C1496 0.950 . S
H1471 C1498 0.950 . S
H1472 C1501 0.950 . S
H1473 C1502 0.950 1_655 S
H1474 C1504 0.950 . S
H1475 C1505 0.950 . S
C1476 H1458 0.951 . S
C1476 C1477 1.366 . S
C1476 C1478 1.388 . S
C1477 C1476 1.366 . S
C1477 C1481 1.385 . S
C1478 H1459 0.951 . S
C1478 C1476 1.388 . S
C1478 C1479 1.365 . S
C1479 C1478 1.365 . S
C1479 C1480 1.421 . S
C1479 C1482 1.493 1_655 S
C1480 H1460 0.950 1_655 S
C1480 C1479 1.421 . S
C1480 C1481 1.374 . S
C1481 H1461 0.950 . S
C1481 C1477 1.385 . S
C1481 C1480 1.374 . S
C1482 C1479 1.493 1_455 S
C1482 C1483 1.373 . S
C1482 C1484 1.389 . S
C1483 H1462 0.950 1_455 S
C1483 C1482 1.373 . S
C1483 C1499 1.377 1_554 S
C1484 C1482 1.389 . S
C1484 C1485 1.524 . S
C1484 C1498 1.377 1_554 S
C1485 C1484 1.524 . S
C1485 C1486 1.397 . S
C1485 C1490 1.363 . S
C1486 H1463 0.950 . S
C1486 C1485 1.397 . S
C1486 C1487 1.334 . S
C1487 H1464 0.950 . S
C1487 C1486 1.334 . S
C1487 C1488 1.287 . S
C1488 C1487 1.287 . S
C1488 C1489 1.524 . S
C1488 H1507 0.913 . S
C1489 H1465 0.950 . S
C1489 C1488 1.524 . S
C1489 C1490 1.415 . S
C1490 H1466 0.950 . S
C1490 C1485 1.363 . S
C1490 C1489 1.415 . S
C1491 H1467 0.951 . S
C1491 C1492 1.366 . S
C1491 C1493 1.388 . S
C1492 C1491 1.366 . S
C1492 C1496 1.385 . S
C1493 H1468 0.951 . S
C1493 C1491 1.388 . S
C1493 C1494 1.366 . S
C1494 C1493 1.366 . S
C1494 C1495 1.414 . S
C1494 C1497 1.499 . S
C1495 H1469 0.950 . S
C1495 C1494 1.414 . S
C1495 C1496 1.374 . S
C1496 H1470 0.950 . S
C1496 C1492 1.385 . S
C1496 C1495 1.374 . S
C1497 C1494 1.499 . S
C1497 C1498 1.373 . S
C1497 C1499 1.389 . S
C1498 H1471 0.950 . S
C1498 C1484 1.377 1_556 S
C1498 C1497 1.373 . S
C1499 C1483 1.377 1_556 S
C1499 C1497 1.389 . S
C1499 C1500 1.524 . S
C1500 C1499 1.524 . S
C1500 C1501 1.397 . S
C1500 C1505 1.363 . S
C1501 H1472 0.950 . S
C1501 C1500 1.397 . S
C1501 C1502 1.334 . S
C1502 H1473 0.950 1_455 S
C1502 C1501 1.334 . S
C1502 C1503 1.287 1_455 S
C1503 C1502 1.287 1_655 S
C1503 C1504 1.524 1_655 S
C1503 H1506 0.999 . S
C1504 H1474 0.950 . S
C1504 C1503 1.524 1_455 S
C1504 C1505 1.415 . S
C1505 H1475 0.950 . S
C1505 C1500 1.363 . S
C1505 C1504 1.415 . S
H1506 C1503 0.999 . S
H1507 C1488 0.913 . S
H1508 C1526 0.951 . S
H1509 C1528 0.951 . S
H1510 C1530 0.950 . S
H1511 C1531 0.950 . S
H1512 C1533 0.950 1_565 S
H1513 C1536 0.950 . S
H1514 C1537 0.950 . S
H1515 C1539 0.950 . S
H1516 C1540 0.950 . S
H1517 C1541 0.951 . S
H1518 C1543 0.951 . S
H1519 C1545 0.950 . S
H1520 C1546 0.950 . S
H1521 C1548 0.950 . S
H1522 C1551 0.950 . S
H1523 C1552 0.950 . S
H1524 C1554 0.950 . S
H1525 C1555 0.950 . S
C1526 H1508 0.951 . S
C1526 C1527 1.366 . S
C1526 C1528 1.388 1_565 S
C1527 C1526 1.366 . S
C1527 C1531 1.385 . S
C1528 H1509 0.951 . S
C1528 C1526 1.388 1_545 S
C1528 C1529 1.373 1_545 S
C1529 C1528 1.373 1_565 S
C1529 C1530 1.423 . S
C1529 C1532 1.484 1_565 S
C1530 H1510 0.950 . S
C1530 C1529 1.423 . S
C1530 C1531 1.374 . S
C1531 H1511 0.950 . S
C1531 C1527 1.385 . S
C1531 C1530 1.374 . S
C1532 C1529 1.484 1_545 S
C1532 C1533 1.373 . S
C1532 C1534 1.389 . S
C1533 H1512 0.950 1_545 S
C1533 C1532 1.373 . S
C1533 C1549 1.377 . S
C1534 C1532 1.389 . S
C1534 C1535 1.524 . S
C1534 C1548 1.377 . S
C1535 C1534 1.524 . S
C1535 C1536 1.397 . S
C1535 C1540 1.363 . S
C1536 H1513 0.950 . S
C1536 C1535 1.397 . S
C1536 C1537 1.334 . S
C1537 H1514 0.950 . S
C1537 C1536 1.334 . S
C1537 C1538 1.287 . S
C1538 C1537 1.287 . S
C1538 C1539 1.524 . S
C1538 H1557 0.913 . S
C1539 H1515 0.950 . S
C1539 C1538 1.524 . S
C1539 C1540 1.415 . S
C1540 H1516 0.950 . S
C1540 C1535 1.363 . S
C1540 C1539 1.415 . S
C1541 H1517 0.951 . S
C1541 C1542 1.366 . S
C1541 C1543 1.388 . S
C1542 C1541 1.366 . S
C1542 C1546 1.385 . S
C1543 H1518 0.951 . S
C1543 C1541 1.388 . S
C1543 C1544 1.366 . S
C1544 C1543 1.366 . S
C1544 C1545 1.414 . S
C1544 C1547 1.499 . S
C1545 H1519 0.950 . S
C1545 C1544 1.414 . S
C1545 C1546 1.374 . S
C1546 H1520 0.950 . S
C1546 C1542 1.385 . S
C1546 C1545 1.374 . S
C1547 C1544 1.499 . S
C1547 C1548 1.373 . S
C1547 C1549 1.389 . S
C1548 H1521 0.950 . S
C1548 C1534 1.377 . S
C1548 C1547 1.373 . S
C1549 C1533 1.377 . S
C1549 C1547 1.389 . S
C1549 C1550 1.524 . S
C1550 C1549 1.524 . S
C1550 C1551 1.397 . S
C1550 C1555 1.363 1_545 S
C1551 H1522 0.950 . S
C1551 C1550 1.397 . S
C1551 C1552 1.334 1_545 S
C1552 H1523 0.950 . S
C1552 C1551 1.334 1_565 S
C1552 C1553 1.287 . S
C1553 C1552 1.287 . S
C1553 C1554 1.524 . S
C1553 H1556 0.999 . S
C1554 H1524 0.950 . S
C1554 C1553 1.524 . S
C1554 C1555 1.415 . S
C1555 H1525 0.950 . S
C1555 C1550 1.363 1_565 S
C1555 C1554 1.415 . S
H1556 C1553 0.999 . S
H1557 C1538 0.913 . S
H1558 C1576 0.951 . S
H1559 C1578 0.951 . S
H1560 C1580 0.950 . S
H1561 C1581 0.950 . S
H1562 C1583 0.950 . S
H1563 C1586 0.950 . S
H1564 C1587 0.950 . S
H1565 C1589 0.950 . S
H1566 C1590 0.950 . S
H1567 C1591 0.951 . S
H1568 C1593 0.951 . S
H1569 C1595 0.950 . S
H1570 C1596 0.950 . S
H1571 C1598 0.950 . S
H1572 C1601 0.950 . S
H1573 C1602 0.950 . S
H1574 C1604 0.950 . S
H1575 C1605 0.950 . S
C1576 H1558 0.951 . S
C1576 C1577 1.366 . S
C1576 C1578 1.388 . S
C1577 C1576 1.366 . S
C1577 C1581 1.385 . S
C1578 H1559 0.951 . S
C1578 C1576 1.388 . S
C1578 C1579 1.366 . S
C1579 C1578 1.366 . S
C1579 C1580 1.414 . S
C1579 C1582 1.499 . S
C1580 H1560 0.950 . S
C1580 C1579 1.414 . S
C1580 C1581 1.374 . S
C1581 H1561 0.950 . S
C1581 C1577 1.385 . S
C1581 C1580 1.374 . S
C1582 C1579 1.499 . S
C1582 C1583 1.373 . S
C1582 C1584 1.389 . S
C1583 H1562 0.950 . S
C1583 C1582 1.373 . S
C1583 C1599 1.377 . S
C1584 C1582 1.389 . S
C1584 C1585 1.524 . S
C1584 C1598 1.377 . S
C1585 C1584 1.524 . S
C1585 C1586 1.397 . S
C1585 C1590 1.363 . S
C1586 H1563 0.950 . S
C1586 C1585 1.397 . S
C1586 C1587 1.334 . S
C1587 H1564 0.950 . S
C1587 C1586 1.334 . S
C1587 C1588 1.287 . S
C1588 C1587 1.287 . S
C1588 C1589 1.524 . S
C1588 H1607 0.913 . S
C1589 H1565 0.950 . S
C1589 C1588 1.524 . S
C1589 C1590 1.415 . S
C1590 H1566 0.950 . S
C1590 C1585 1.363 . S
C1590 C1589 1.415 . S
C1591 H1567 0.951 . S
C1591 C1592 1.366 . S
C1591 C1593 1.388 . S
C1592 C1591 1.366 . S
C1592 C1596 1.385 . S
C1593 H1568 0.951 . S
C1593 C1591 1.388 . S
C1593 C1594 1.366 . S
C1594 C1593 1.366 . S
C1594 C1595 1.414 . S
C1594 C1597 1.499 . S
C1595 H1569 0.950 . S
C1595 C1594 1.414 . S
C1595 C1596 1.374 . S
C1596 H1570 0.950 . S
C1596 C1592 1.385 . S
C1596 C1595 1.374 . S
C1597 C1594 1.499 . S
C1597 C1598 1.373 . S
C1597 C1599 1.389 . S
C1598 H1571 0.950 . S
C1598 C1584 1.377 . S
C1598 C1597 1.373 . S
C1599 C1583 1.377 . S
C1599 C1597 1.389 . S
C1599 C1600 1.524 . S
C1600 C1599 1.524 . S
C1600 C1601 1.397 . S
C1600 C1605 1.363 . S
C1601 H1572 0.950 . S
C1601 C1600 1.397 . S
C1601 C1602 1.334 . S
C1602 H1573 0.950 . S
C1602 C1601 1.334 . S
C1602 C1603 1.287 . S
C1603 C1602 1.287 . S
C1603 C1604 1.524 . S
C1603 H1606 0.999 . S
C1604 H1574 0.950 . S
C1604 C1603 1.524 . S
C1604 C1605 1.415 . S
C1605 H1575 0.950 . S
C1605 C1600 1.363 . S
C1605 C1604 1.415 . S
H1606 C1603 0.999 . S
H1607 C1588 0.913 . S
H1608 C1626 0.951 . S
H1609 C1628 0.951 . S
H1610 C1630 0.950 . S
H1611 C1631 0.950 . S
H1612 C1633 0.950 . S
H1613 C1636 0.950 . S
H1614 C1637 0.950 . S
H1615 C1639 0.950 . S
H1616 C1640 0.950 . S
H1617 C1641 0.951 . S
H1618 C1643 0.951 . S
H1619 C1645 0.950 . S
H1620 C1646 0.950 . S
H1621 C1648 0.950 . S
H1622 C1651 0.950 . S
H1623 C1652 0.950 . S
H1624 C1654 0.950 . S
H1625 C1655 0.950 . S
C1626 H1608 0.951 . S
C1626 C1627 1.366 . S
C1626 C1628 1.388 . S
C1627 C1626 1.366 . S
C1627 C1631 1.385 . S
C1628 H1609 0.951 . S
C1628 C1626 1.388 . S
C1628 C1629 1.366 . S
C1629 C1628 1.366 . S
C1629 C1630 1.414 . S
C1629 C1632 1.499 . S
C1630 H1610 0.950 . S
C1630 C1629 1.414 . S
C1630 C1631 1.374 . S
C1631 H1611 0.950 . S
C1631 C1627 1.385 . S
C1631 C1630 1.374 . S
C1632 C1629 1.499 . S
C1632 C1633 1.373 1_545 S
C1632 C1634 1.389 . S
C1633 H1612 0.950 . S
C1633 C1632 1.373 1_565 S
C1633 C1649 1.377 . S
C1634 C1632 1.389 . S
C1634 C1635 1.524 . S
C1634 C1648 1.377 . S
C1635 C1634 1.524 . S
C1635 C1636 1.397 . S
C1635 C1640 1.363 . S
C1636 H1613 0.950 . S
C1636 C1635 1.397 . S
C1636 C1637 1.334 . S
C1637 H1614 0.950 . S
C1637 C1636 1.334 . S
C1637 C1638 1.287 . S
C1638 C1637 1.287 . S
C1638 C1639 1.524 . S
C1638 H1657 0.913 . S
C1639 H1615 0.950 . S
C1639 C1638 1.524 . S
C1639 C1640 1.415 . S
C1640 H1616 0.950 . S
C1640 C1635 1.363 . S
C1640 C1639 1.415 . S
C1641 H1617 0.951 . S
C1641 C1642 1.366 . S
C1641 C1643 1.388 . S
C1642 C1641 1.366 . S
C1642 C1646 1.385 . S
C1643 H1618 0.951 . S
C1643 C1641 1.388 . S
C1643 C1644 1.366 . S
C1644 C1643 1.366 . S
C1644 C1645 1.414 . S
C1644 C1647 1.499 . S
C1645 H1619 0.950 . S
C1645 C1644 1.414 . S
C1645 C1646 1.374 . S
C1646 H1620 0.950 . S
C1646 C1642 1.385 . S
C1646 C1645 1.374 . S
C1647 C1644 1.499 . S
C1647 C1648 1.373 1_565 S
C1647 C1649 1.389 . S
C1648 H1621 0.950 . S
C1648 C1634 1.377 . S
C1648 C1647 1.373 1_545 S
C1649 C1633 1.377 . S
C1649 C1647 1.389 . S
C1649 C1650 1.524 . S
C1650 C1649 1.524 . S
C1650 C1651 1.397 . S
C1650 C1655 1.363 . S
C1651 H1622 0.950 . S
C1651 C1650 1.397 . S
C1651 C1652 1.334 . S
C1652 H1623 0.950 . S
C1652 C1651 1.334 . S
C1652 C1653 1.287 . S
C1653 C1652 1.287 . S
C1653 C1654 1.524 . S
C1653 H1656 0.999 . S
C1654 H1624 0.950 . S
C1654 C1653 1.524 . S
C1654 C1655 1.415 . S
C1655 H1625 0.950 . S
C1655 C1650 1.363 . S
C1655 C1654 1.415 . S
H1656 C1653 0.999 . S
H1657 C1638 0.913 . S
H1658 C1676 0.951 . S
H1659 C1678 0.951 . S
H1660 C1680 0.950 . S
H1661 C1681 0.950 . S
H1662 C1683 0.950 . S
H1663 C1686 0.950 . S
H1664 C1687 0.950 . S
H1665 C1689 0.950 . S
H1666 C1690 0.950 . S
H1667 C1691 0.951 . S
H1668 C1693 0.951 . S
H1669 C1695 0.950 . S
H1670 C1696 0.950 . S
H1671 C1698 0.950 . S
H1672 C1701 0.950 . S
H1673 C1702 0.950 . S
H1674 C1704 0.950 . S
H1675 C1705 0.950 . S
C1676 H1658 0.951 . S
C1676 C1677 1.366 . S
C1676 C1678 1.388 . S
C1677 C1676 1.366 . S
C1677 C1681 1.385 . S
C1678 H1659 0.951 . S
C1678 C1676 1.388 . S
C1678 C1679 1.366 . S
C1679 C1678 1.366 . S
C1679 C1680 1.414 . S
C1679 C1682 1.499 . S
C1680 H1660 0.950 . S
C1680 C1679 1.414 . S
C1680 C1681 1.374 . S
C1681 H1661 0.950 . S
C1681 C1677 1.385 . S
C1681 C1680 1.374 . S
C1682 C1679 1.499 . S
C1682 C1683 1.373 . S
C1682 C1684 1.389 . S
C1683 H1662 0.950 . S
C1683 C1682 1.373 . S
C1683 C1699 1.377 . S
C1684 C1682 1.389 . S
C1684 C1685 1.524 . S
C1684 C1698 1.377 . S
C1685 C1684 1.524 . S
C1685 C1686 1.397 . S
C1685 C1690 1.363 . S
C1686 H1663 0.950 . S
C1686 C1685 1.397 . S
C1686 C1687 1.334 . S
C1687 H1664 0.950 . S
C1687 C1686 1.334 . S
C1687 C1688 1.287 . S
C1688 C1687 1.287 . S
C1688 C1689 1.524 . S
C1688 H1707 0.913 . S
C1689 H1665 0.950 . S
C1689 C1688 1.524 . S
C1689 C1690 1.415 . S
C1690 H1666 0.950 . S
C1690 C1685 1.363 . S
C1690 C1689 1.415 . S
C1691 H1667 0.951 . S
C1691 C1692 1.366 . S
C1691 C1693 1.388 . S
C1692 C1691 1.366 . S
C1692 C1696 1.385 . S
C1693 H1668 0.951 . S
C1693 C1691 1.388 . S
C1693 C1694 1.366 . S
C1694 C1693 1.366 . S
C1694 C1695 1.414 . S
C1694 C1697 1.499 . S
C1695 H1669 0.950 . S
C1695 C1694 1.414 . S
C1695 C1696 1.374 . S
C1696 H1670 0.950 . S
C1696 C1692 1.385 . S
C1696 C1695 1.374 . S
C1697 C1694 1.499 . S
C1697 C1698 1.373 . S
C1697 C1699 1.389 . S
C1698 H1671 0.950 . S
C1698 C1684 1.377 . S
C1698 C1697 1.373 . S
C1699 C1683 1.377 . S
C1699 C1697 1.389 . S
C1699 C1700 1.524 . S
C1700 C1699 1.524 . S
C1700 C1701 1.397 . S
C1700 C1705 1.363 . S
C1701 H1672 0.950 . S
C1701 C1700 1.397 . S
C1701 C1702 1.334 . S
C1702 H1673 0.950 . S
C1702 C1701 1.334 . S
C1702 C1703 1.287 . S
C1703 C1702 1.287 . S
C1703 C1704 1.524 . S
C1703 H1706 0.999 . S
C1704 H1674 0.950 . S
C1704 C1703 1.524 . S
C1704 C1705 1.415 . S
C1705 H1675 0.950 . S
C1705 C1700 1.363 . S
C1705 C1704 1.415 . S
H1706 C1703 0.999 . S
H1707 C1688 0.913 . S
H1708 C1726 0.951 . S
H1709 C1728 0.951 . S
H1710 C1730 0.950 . S
H1711 C1731 0.950 . S
H1712 C1733 0.950 . S
H1713 C1736 0.950 . S
H1714 C1737 0.950 . S
H1715 C1739 0.950 . S
H1716 C1740 0.946 1_455 S
H1717 C1741 0.951 . S
H1718 C1743 0.951 . S
H1719 C1745 0.950 . S
H1720 C1746 0.950 . S
H1721 C1748 0.950 . S
H1722 C1751 0.950 . S
H1723 C1752 0.950 . S
H1724 C1754 0.950 . S
H1725 C1755 0.948 1_655 S
C1726 H1708 0.951 . S
C1726 C1727 1.366 . S
C1726 C1728 1.388 . S
C1727 C1726 1.366 . S
C1727 C1731 1.385 . S
C1728 H1709 0.951 . S
C1728 C1726 1.388 . S
C1728 C1729 1.366 . S
C1729 C1728 1.366 . S
C1729 C1730 1.414 . S
C1729 C1732 1.499 . S
C1730 H1710 0.950 . S
C1730 C1729 1.414 . S
C1730 C1731 1.374 . S
C1731 H1711 0.950 . S
C1731 C1727 1.385 . S
C1731 C1730 1.374 . S
C1732 C1729 1.499 . S
C1732 C1733 1.373 . S
C1732 C1734 1.389 . S
C1733 H1712 0.950 . S
C1733 C1732 1.373 . S
C1733 C1749 1.377 1_655 S
C1734 C1732 1.389 . S
C1734 C1735 1.524 . S
C1734 C1748 1.377 1_655 S
C1735 C1734 1.524 . S
C1735 C1736 1.397 . S
C1735 C1740 1.363 . S
C1736 H1713 0.950 . S
C1736 C1735 1.397 . S
C1736 C1737 1.334 . S
C1737 H1714 0.950 . S
C1737 C1736 1.334 . S
C1737 C1738 1.287 . S
C1738 C1737 1.287 . S
C1738 C1739 1.524 . S
C1738 H1757 0.913 . S
C1739 H1715 0.950 . S
C1739 C1738 1.524 . S
C1739 C1740 1.415 . S
C1740 H1716 0.946 1_655 S
C1740 C1735 1.363 . S
C1740 C1739 1.415 . S
C1741 H1717 0.951 . S
C1741 C1742 1.366 . S
C1741 C1743 1.388 . S
C1742 C1741 1.366 . S
C1742 C1746 1.385 . S
C1743 H1718 0.951 . S
C1743 C1741 1.388 . S
C1743 C1744 1.366 . S
C1744 C1743 1.366 . S
C1744 C1745 1.414 . S
C1744 C1747 1.499 . S
C1745 H1719 0.950 . S
C1745 C1744 1.414 . S
C1745 C1746 1.374 . S
C1746 H1720 0.950 . S
C1746 C1742 1.385 . S
C1746 C1745 1.374 . S
C1747 C1744 1.499 . S
C1747 C1748 1.373 . S
C1747 C1749 1.389 . S
C1748 H1721 0.950 . S
C1748 C1734 1.377 1_455 S
C1748 C1747 1.373 . S
C1749 C1733 1.377 1_455 S
C1749 C1747 1.389 . S
C1749 C1750 1.524 . S
C1750 C1749 1.524 . S
C1750 C1751 1.397 . S
C1750 C1755 1.363 . S
C1751 H1722 0.950 . S
C1751 C1750 1.397 . S
C1751 C1752 1.334 . S
C1752 H1723 0.950 . S
C1752 C1751 1.334 . S
C1752 C1753 1.287 . S
C1753 C1752 1.287 . S
C1753 C1754 1.524 . S
C1753 H1756 0.999 . S
C1754 H1724 0.950 . S
C1754 C1753 1.524 . S
C1754 C1755 1.415 . S
C1755 H1725 0.948 1_455 S
C1755 C1750 1.363 . S
C1755 C1754 1.415 . S
H1756 C1753 0.999 . S
H1757 C1738 0.913 . S
H1758 C1776 0.951 . S
H1759 C1778 0.951 . S
H1760 C1780 0.950 . S
H1761 C1781 0.950 . S
H1762 C1783 0.950 . S
H1763 C1786 0.950 1_545 S
H1764 C1787 0.948 1_545 S
H1765 C1789 0.950 . S
H1766 C1790 0.950 . S
H1767 C1791 0.951 . S
H1768 C1793 0.951 . S
H1769 C1795 0.950 . S
H1770 C1796 0.950 . S
H1771 C1798 0.950 . S
H1772 C1801 0.950 1_565 S
H1773 C1802 0.948 1_565 S
H1774 C1804 0.950 . S
H1775 C1805 0.950 . S
C1776 H1758 0.951 . S
C1776 C1777 1.366 . S
C1776 C1778 1.388 . S
C1777 C1776 1.366 . S
C1777 C1781 1.385 . S
C1778 H1759 0.951 . S
C1778 C1776 1.388 . S
C1778 C1779 1.366 . S
C1779 C1778 1.366 . S
C1779 C1780 1.414 . S
C1779 C1782 1.499 . S
C1780 H1760 0.950 . S
C1780 C1779 1.414 . S
C1780 C1781 1.374 . S
C1781 H1761 0.950 . S
C1781 C1777 1.385 . S
C1781 C1780 1.374 . S
C1782 C1779 1.499 . S
C1782 C1783 1.373 1_554 S
C1782 C1784 1.389 1_545 S
C1783 H1762 0.950 . S
C1783 C1782 1.373 1_556 S
C1783 C1799 1.377 . S
C1784 C1782 1.389 1_565 S
C1784 C1785 1.524 . S
C1784 C1798 1.377 . S
C1785 C1784 1.524 . S
C1785 C1786 1.397 . S
C1785 C1790 1.363 . S
C1786 H1763 0.950 1_565 S
C1786 C1785 1.397 . S
C1786 C1787 1.334 . S
C1787 H1764 0.948 1_565 S
C1787 C1786 1.334 . S
C1787 C1788 1.287 . S
C1788 C1787 1.287 . S
C1788 C1789 1.524 . S
C1788 H1807 0.913 . S
C1789 H1765 0.950 . S
C1789 C1788 1.524 . S
C1789 C1790 1.415 . S
C1790 H1766 0.950 . S
C1790 C1785 1.363 . S
C1790 C1789 1.415 . S
C1791 H1767 0.951 . S
C1791 C1792 1.366 . S
C1791 C1793 1.388 . S
C1792 C1791 1.366 . S
C1792 C1796 1.385 . S
C1793 H1768 0.951 . S
C1793 C1791 1.388 . S
C1793 C1794 1.366 . S
C1794 C1793 1.366 . S
C1794 C1795 1.414 . S
C1794 C1797 1.499 . S
C1795 H1769 0.950 . S
C1795 C1794 1.414 . S
C1795 C1796 1.374 . S
C1796 H1770 0.950 . S
C1796 C1792 1.385 . S
C1796 C1795 1.374 . S
C1797 C1794 1.499 . S
C1797 C1798 1.373 1_556 S
C1797 C1799 1.389 1_565 S
C1798 H1771 0.950 . S
C1798 C1784 1.377 . S
C1798 C1797 1.373 1_554 S
C1799 C1783 1.377 . S
C1799 C1797 1.389 1_545 S
C1799 C1800 1.524 . S
C1800 C1799 1.524 . S
C1800 C1801 1.397 . S
C1800 C1805 1.363 . S
C1801 H1772 0.950 1_545 S
C1801 C1800 1.397 . S
C1801 C1802 1.334 . S
C1802 H1773 0.948 1_545 S
C1802 C1801 1.334 . S
C1802 C1803 1.287 . S
C1803 C1802 1.287 . S
C1803 C1804 1.524 . S
C1803 H1806 0.999 . S
C1804 H1774 0.950 . S
C1804 C1803 1.524 . S
C1804 C1805 1.415 . S
C1805 H1775 0.950 . S
C1805 C1800 1.363 . S
C1805 C1804 1.415 . S
H1806 C1803 0.999 . S
H1807 C1788 0.913 . S
H1808 C1826 0.951 . S
H1809 C1828 0.951 . S
H1810 C1830 0.950 . S
H1811 C1831 0.950 . S
H1812 C1833 0.950 . S
H1813 C1836 0.950 . S
H1814 C1837 0.950 . S
H1815 C1839 0.950 . S
H1816 C1840 0.950 . S
H1817 C1841 0.951 . S
H1818 C1843 0.951 . S
H1819 C1845 0.950 . S
H1820 C1846 0.950 . S
H1821 C1848 0.950 . S
H1822 C1851 0.950 . S
H1823 C1852 0.950 . S
H1824 C1854 0.950 . S
H1825 C1855 0.950 . S
C1826 H1808 0.951 . S
C1826 C1827 1.366 . S
C1826 C1828 1.388 . S
C1827 C1826 1.366 . S
C1827 C1831 1.385 . S
C1828 H1809 0.951 . S
C1828 C1826 1.388 . S
C1828 C1829 1.366 . S
C1829 C1828 1.366 . S
C1829 C1830 1.414 . S
C1829 C1832 1.499 . S
C1830 H1810 0.950 . S
C1830 C1829 1.414 . S
C1830 C1831 1.374 . S
C1831 H1811 0.950 . S
C1831 C1827 1.385 . S
C1831 C1830 1.374 . S
C1832 C1829 1.499 . S
C1832 C1833 1.373 . S
C1832 C1834 1.389 . S
C1833 H1812 0.950 . S
C1833 C1832 1.373 . S
C1833 C1849 1.377 . S
C1834 C1832 1.389 . S
C1834 C1835 1.524 . S
C1834 C1848 1.377 . S
C1835 C1834 1.524 . S
C1835 C1836 1.397 . S
C1835 C1840 1.363 . S
C1836 H1813 0.950 . S
C1836 C1835 1.397 . S
C1836 C1837 1.334 . S
C1837 H1814 0.950 . S
C1837 C1836 1.334 . S
C1837 C1838 1.287 . S
C1838 C1837 1.287 . S
C1838 C1839 1.524 . S
C1838 H1857 0.913 . S
C1839 H1815 0.950 . S
C1839 C1838 1.524 . S
C1839 C1840 1.415 . S
C1840 H1816 0.950 . S
C1840 C1835 1.363 . S
C1840 C1839 1.415 . S
C1841 H1817 0.951 . S
C1841 C1842 1.366 . S
C1841 C1843 1.388 . S
C1842 C1841 1.366 . S
C1842 C1846 1.385 . S
C1843 H1818 0.951 . S
C1843 C1841 1.388 . S
C1843 C1844 1.366 . S
C1844 C1843 1.366 . S
C1844 C1845 1.414 . S
C1844 C1847 1.499 . S
C1845 H1819 0.950 . S
C1845 C1844 1.414 . S
C1845 C1846 1.374 . S
C1846 H1820 0.950 . S
C1846 C1842 1.385 . S
C1846 C1845 1.374 . S
C1847 C1844 1.499 . S
C1847 C1848 1.373 . S
C1847 C1849 1.389 . S
C1848 H1821 0.950 . S
C1848 C1834 1.377 . S
C1848 C1847 1.373 . S
C1849 C1833 1.377 . S
C1849 C1847 1.389 . S
C1849 C1850 1.524 . S
C1850 C1849 1.524 . S
C1850 C1851 1.397 . S
C1850 C1855 1.363 . S
C1851 H1822 0.950 . S
C1851 C1850 1.397 . S
C1851 C1852 1.334 . S
C1852 H1823 0.950 . S
C1852 C1851 1.334 . S
C1852 C1853 1.287 . S
C1853 C1852 1.287 . S
C1853 C1854 1.524 . S
C1853 H1856 0.999 . S
C1854 H1824 0.950 . S
C1854 C1853 1.524 . S
C1854 C1855 1.415 . S
C1855 H1825 0.950 . S
C1855 C1850 1.363 . S
C1855 C1854 1.415 . S
H1856 C1853 0.999 . S
H1857 C1838 0.913 . S
H1858 C1876 0.951 . S
H1859 C1878 0.951 . S
H1860 C1880 0.950 . S
H1861 C1881 0.950 . S
H1862 C1883 0.950 . S
H1863 C1886 0.950 . S
H1864 C1887 0.950 . S
H1865 C1889 0.950 . S
H1866 C1890 0.950 . S
H1867 C1891 0.951 . S
H1868 C1893 0.951 . S
H1869 C1895 0.950 . S
H1870 C1896 0.950 . S
H1871 C1898 0.950 . S
H1872 C1901 0.950 . S
H1873 C1902 0.950 . S
H1874 C1904 0.950 . S
H1875 C1905 0.950 . S
C1876 H1858 0.951 . S
C1876 C1877 1.366 . S
C1876 C1878 1.388 . S
C1877 C1876 1.366 . S
C1877 C1881 1.385 . S
C1878 H1859 0.951 . S
C1878 C1876 1.388 . S
C1878 C1879 1.366 . S
C1879 C1878 1.366 . S
C1879 C1880 1.414 . S
C1879 C1882 1.499 . S
C1880 H1860 0.950 . S
C1880 C1879 1.414 . S
C1880 C1881 1.374 . S
C1881 H1861 0.950 . S
C1881 C1877 1.385 . S
C1881 C1880 1.374 . S
C1882 C1879 1.499 . S
C1882 C1883 1.373 1_655 S
C1882 C1884 1.389 . S
C1883 H1862 0.950 . S
C1883 C1882 1.373 1_455 S
C1883 C1899 1.377 . S
C1884 C1882 1.389 . S
C1884 C1885 1.524 . S
C1884 C1898 1.377 . S
C1885 C1884 1.524 . S
C1885 C1886 1.397 . S
C1885 C1890 1.363 . S
C1886 H1863 0.950 . S
C1886 C1885 1.397 . S
C1886 C1887 1.334 . S
C1887 H1864 0.950 . S
C1887 C1886 1.334 . S
C1887 C1888 1.287 . S
C1888 C1887 1.287 . S
C1888 C1889 1.524 . S
C1888 H1907 0.913 . S
C1889 H1865 0.950 . S
C1889 C1888 1.524 . S
C1889 C1890 1.415 . S
C1890 H1866 0.950 . S
C1890 C1885 1.363 . S
C1890 C1889 1.415 . S
C1891 H1867 0.951 . S
C1891 C1892 1.366 . S
C1891 C1893 1.388 . S
C1892 C1891 1.366 . S
C1892 C1896 1.385 . S
C1893 H1868 0.951 . S
C1893 C1891 1.388 . S
C1893 C1894 1.366 . S
C1894 C1893 1.366 . S
C1894 C1895 1.414 . S
C1894 C1897 1.499 . S
C1895 H1869 0.950 . S
C1895 C1894 1.414 . S
C1895 C1896 1.374 . S
C1896 H1870 0.950 . S
C1896 C1892 1.385 . S
C1896 C1895 1.374 . S
C1897 C1894 1.499 . S
C1897 C1898 1.373 1_455 S
C1897 C1899 1.389 . S
C1898 H1871 0.950 . S
C1898 C1884 1.377 . S
C1898 C1897 1.373 1_655 S
C1899 C1883 1.377 . S
C1899 C1897 1.389 . S
C1899 C1900 1.524 . S
C1900 C1899 1.524 . S
C1900 C1901 1.397 . S
C1900 C1905 1.363 . S
C1901 H1872 0.950 . S
C1901 C1900 1.397 . S
C1901 C1902 1.334 . S
C1902 H1873 0.950 . S
C1902 C1901 1.334 . S
C1902 C1903 1.287 . S
C1903 C1902 1.287 . S
C1903 C1904 1.524 . S
C1903 H1906 0.999 . S
C1904 H1874 0.950 . S
C1904 C1903 1.524 . S
C1904 C1905 1.415 . S
C1905 H1875 0.950 . S
C1905 C1900 1.363 . S
C1905 C1904 1.415 . S
H1906 C1903 0.999 . S
H1907 C1888 0.913 . S
C427 C5 0.346 . S
C442 C209 0.346 . S
C477 C243 0.346 . S
C492 C39 0.347 . S
C527 C73 0.347 . S
C542 C277 0.347 . S
C577 C107 0.346 . S
C592 C311 0.346 . S
C627 C141 0.347 . S
C642 C345 0.347 . S
C677 C175 0.347 . S
C692 C379 0.346 . S
C727 C213 1.191 . S
C742 C9 1.190 . S
C777 C43 1.190 . S
C792 C247 1.191 . S
C827 C281 1.190 . S
C842 C77 1.192 . S
C877 C315 1.191 . S
C892 C111 1.192 . S
C927 C349 1.192 . S
C942 C145 1.190 . S
C977 C179 1.191 . S
C992 C383 1.190 . S
C1027 C172 1.384 . S
C1042 C20 1.363 . S
C1077 C2 1.384 . S
C1092 C54 1.364 . S
C1127 C88 1.363 . S
C1142 C36 1.384 . S
C1177 C70 1.383 . S
C1192 C122 1.363 . S
C1227 C104 1.382 . S
C1242 C156 1.364 . S
C1277 C138 1.384 . S
C1292 C190 1.363 . S
C1327 C240 1.383 . S
C1342 C224 1.363 . S
C1377 C258 1.364 . S
C1392 C274 1.383 . S
C1427 C308 1.383 . S
C1442 C292 1.364 . S
C1477 C342 1.383 . S
C1492 C326 1.364 . S
C1527 C376 1.383 . S
C1542 C360 1.364 . S
C1577 C206 1.383 . S
C1592 C394 1.363 . S
C1627 C33 1.227 . S
C1642 C271 1.227 . S
C1677 C67 1.228 . S
C1692 C305 1.227 . S
C1727 C101 1.228 . S
C1742 C339 1.227 . S
C1777 C373 1.228 . S
C1792 C135 1.227 . S
C1827 C169 1.227 . S
C1842 C407 1.227 . S
C1877 C237 1.227 . S
C1892 C203 1.227 . S
