# Generated by pormake.
# Topology zfp, (5)-cn, num edge types: 1
# Building blocks:
#     Node 0, Type 0, BuildingBlock: BEQFEK_clean_sbu_0, # of connection points: 5
#     Node 1, Type 0, BuildingBlock: BEQFEK_clean_sbu_0, # of connection points: 5
#     Node 2, Type 0, BuildingBlock: BEQFEK_clean_sbu_0, # of connection points: 5
#     Node 3, Type 0, BuildingBlock: BEQFEK_clean_sbu_0, # of connection points: 5
#     Node 4, Type 0, BuildingBlock: BEQFEK_clean_sbu_0, # of connection points: 5
#     Node 5, Type 0, BuildingBlock: BEQFEK_clean_sbu_0, # of connection points: 5
#     Node 6, Type 0, BuildingBlock: BEQFEK_clean_sbu_0, # of connection points: 5
#     Node 7, Type 0, BuildingBlock: BEQFEK_clean_sbu_0, # of connection points: 5
#     Node 8, Type 0, BuildingBlock: BEQFEK_clean_sbu_0, # of connection points: 5
#     Node 9, Type 0, BuildingBlock: BEQFEK_clean_sbu_0, # of connection points: 5
#     Node 10, Type 0, BuildingBlock: BEQFEK_clean_sbu_0, # of connection points: 5
#     Node 11, Type 0, BuildingBlock: BEQFEK_clean_sbu_0, # of connection points: 5
#     Node 12, Type 0, BuildingBlock: BEQFEK_clean_sbu_0, # of connection points: 5
#     Node 13, Type 0, BuildingBlock: BEQFEK_clean_sbu_0, # of connection points: 5
#     Node 14, Type 0, BuildingBlock: BEQFEK_clean_sbu_0, # of connection points: 5
#     Node 15, Type 0, BuildingBlock: BEQFEK_clean_sbu_0, # of connection points: 5
#     Edge 16, Type (0, 0), BuildingBlock: EZIPEK_clean_linker_0, # of connection points: 2
#     Edge 17, Type (0, 0), BuildingBlock: EZIPEK_clean_linker_0, # of connection points: 2
#     Edge 18, Type (0, 0), BuildingBlock: EZIPEK_clean_linker_0, # of connection points: 2
#     Edge 19, Type (0, 0), BuildingBlock: EZIPEK_clean_linker_0, # of connection points: 2
#     Edge 20, Type (0, 0), BuildingBlock: EZIPEK_clean_linker_0, # of connection points: 2
#     Edge 21, Type (0, 0), BuildingBlock: EZIPEK_clean_linker_0, # of connection points: 2
#     Edge 22, Type (0, 0), BuildingBlock: EZIPEK_clean_linker_0, # of connection points: 2
#     Edge 23, Type (0, 0), BuildingBlock: EZIPEK_clean_linker_0, # of connection points: 2
#     Edge 24, Type (0, 0), BuildingBlock: EZIPEK_clean_linker_0, # of connection points: 2
#     Edge 25, Type (0, 0), BuildingBlock: EZIPEK_clean_linker_0, # of connection points: 2
#     Edge 26, Type (0, 0), BuildingBlock: EZIPEK_clean_linker_0, # of connection points: 2
#     Edge 27, Type (0, 0), BuildingBlock: EZIPEK_clean_linker_0, # of connection points: 2
#     Edge 28, Type (0, 0), BuildingBlock: EZIPEK_clean_linker_0, # of connection points: 2
#     Edge 29, Type (0, 0), BuildingBlock: EZIPEK_clean_linker_0, # of connection points: 2
#     Edge 30, Type (0, 0), BuildingBlock: EZIPEK_clean_linker_0, # of connection points: 2
#     Edge 31, Type (0, 0), BuildingBlock: EZIPEK_clean_linker_0, # of connection points: 2
#     Edge 32, Type (0, 0), BuildingBlock: EZIPEK_clean_linker_0, # of connection points: 2
#     Edge 33, Type (0, 0), BuildingBlock: EZIPEK_clean_linker_0, # of connection points: 2
#     Edge 34, Type (0, 0), BuildingBlock: EZIPEK_clean_linker_0, # of connection points: 2
#     Edge 35, Type (0, 0), BuildingBlock: EZIPEK_clean_linker_0, # of connection points: 2
#     Edge 36, Type (0, 0), BuildingBlock: EZIPEK_clean_linker_0, # of connection points: 2
#     Edge 37, Type (0, 0), BuildingBlock: EZIPEK_clean_linker_0, # of connection points: 2
#     Edge 38, Type (0, 0), BuildingBlock: EZIPEK_clean_linker_0, # of connection points: 2
#     Edge 39, Type (0, 0), BuildingBlock: EZIPEK_clean_linker_0, # of connection points: 2
#     Edge 40, Type (0, 0), BuildingBlock: EZIPEK_clean_linker_0, # of connection points: 2
#     Edge 41, Type (0, 0), BuildingBlock: EZIPEK_clean_linker_0, # of connection points: 2
#     Edge 42, Type (0, 0), BuildingBlock: EZIPEK_clean_linker_0, # of connection points: 2
#     Edge 43, Type (0, 0), BuildingBlock: EZIPEK_clean_linker_0, # of connection points: 2
#     Edge 44, Type (0, 0), BuildingBlock: EZIPEK_clean_linker_0, # of connection points: 2
#     Edge 45, Type (0, 0), BuildingBlock: EZIPEK_clean_linker_0, # of connection points: 2
#     Edge 46, Type (0, 0), BuildingBlock: EZIPEK_clean_linker_0, # of connection points: 2
#     Edge 47, Type (0, 0), BuildingBlock: EZIPEK_clean_linker_0, # of connection points: 2
#     Edge 48, Type (0, 0), BuildingBlock: EZIPEK_clean_linker_0, # of connection points: 2
#     Edge 49, Type (0, 0), BuildingBlock: EZIPEK_clean_linker_0, # of connection points: 2
#     Edge 50, Type (0, 0), BuildingBlock: EZIPEK_clean_linker_0, # of connection points: 2
#     Edge 51, Type (0, 0), BuildingBlock: EZIPEK_clean_linker_0, # of connection points: 2
#     Edge 52, Type (0, 0), BuildingBlock: EZIPEK_clean_linker_0, # of connection points: 2
#     Edge 53, Type (0, 0), BuildingBlock: EZIPEK_clean_linker_0, # of connection points: 2
#     Edge 54, Type (0, 0), BuildingBlock: EZIPEK_clean_linker_0, # of connection points: 2
#     Edge 55, Type (0, 0), BuildingBlock: EZIPEK_clean_linker_0, # of connection points: 2
# Relax obj value: 0.101
# Max RMSD: 0.149
# Mean RMSD: 0.149
data_MOF--net-zfp--node1-BEQFEK_clean_sbu_0--edge1-EZIPEK_clean_linker_0
_symmetry_space_group_name_H-M    P1
_symmetry_Int_Tables_number       1
_symmetry_cell_setting            triclinic
loop_
_symmetry_equiv_pos_as_xyz
'x, y, z'
_cell_length_a     22.680641
_cell_length_b     22.687672
_cell_length_c     62.09824
_cell_angle_alpha  90.13123
_cell_angle_beta   90.019452
_cell_angle_gamma 89.863093
loop_
_atom_site_label
_atom_site_type_symbol
_atom_site_fract_x
_atom_site_fract_y
_atom_site_fract_z
_atom_type_partial_charge
Co0 Co 0.16414 0.32554 0.15869 0.0
Co1 Co 0.16105 0.34991 0.10897 0.0
C2 C 0.07598 0.26676 0.12933 0.0
O3 O 0.09749 0.27571 0.14807 0.0
O4 O 0.10011 0.28756 0.1124 0.0
C5 C 0.14134 0.31415 0.20337 0.0
O6 O 0.08617 0.30992 0.1971 0.0
C7 C 0.16423 0.33495 0.06174 0.0
C8 C 0.18776 0.42497 0.05131 0.0
C9 C 0.17423 0.3693 0.0437 0.0
N10 N 0.17135 0.36892 0.07932 0.0
N11 N 0.18546 0.42264 0.07295 0.0
C12 C 0.1472 0.27142 0.06228 0.0
H13 H 0.0986 0.26825 0.06398 0.0
H14 H 0.16767 0.24961 0.07642 0.0
H15 H 0.16057 0.24867 0.0472 0.0
C16 C 0.29046 0.30759 0.14898 0.0
N17 N 0.23482 0.31951 0.14271 0.0
N18 N 0.23456 0.33214 0.12208 0.0
C19 C 0.29042 0.32981 0.11462 0.0
C20 C 0.32778 0.31408 0.13145 0.0
C21 C 0.30731 0.2895 0.17131 0.0
H22 H 0.30168 0.32768 0.18232 0.0
H23 H 0.27756 0.2539 0.17687 0.0
H24 H 0.35373 0.27408 0.17208 0.0
O25 O 0.13102 0.40535 0.15767 0.0
O26 O 0.12319 0.419 0.12237 0.0
H27 H 0.29531 0.38707 0.08744 0.0
H28 H 0.35568 0.33523 0.08924 0.0
C29 C 0.3076 0.34128 0.09176 0.0
H30 H 0.28302 0.31098 0.08098 0.0
H31 H 0.1931 0.45785 0.08341 0.0
O32 O 0.18202 0.31536 0.18939 0.0
C33 C 0.11246 0.43465 0.14166 0.0
Co34 Co 0.67312 0.14432 0.65799 0.0
Co35 Co 0.6449 0.14805 0.60908 0.0
C36 C 0.74053 0.06763 0.63023 0.0
O37 O 0.73915 0.09094 0.64901 0.0
O38 O 0.70625 0.08725 0.61563 0.0
C39 C 0.70443 0.16182 0.70382 0.0
O40 O 0.76003 0.1601 0.6979 0.0
C41 C 0.68318 0.16177 0.56422 0.0
C42 C 0.59743 0.1605 0.54728 0.0
C43 C 0.65763 0.16404 0.54403 0.0
N44 N 0.63983 0.15747 0.57887 0.0
N45 N 0.58871 0.15695 0.56865 0.0
C46 C 0.74754 0.16205 0.56937 0.0
H47 H 0.75482 0.16155 0.58704 0.0
H48 H 0.76837 0.20183 0.56237 0.0
H49 H 0.76891 0.12308 0.56183 0.0
C50 C 0.68248 0.27677 0.64956 0.0
N51 N 0.67213 0.22026 0.64347 0.0
N52 N 0.65715 0.22059 0.623 0.0
C53 C 0.65561 0.27653 0.61573 0.0
C54 C 0.6711 0.31409 0.63235 0.0
C55 C 0.70879 0.29558 0.6705 0.0
H56 H 0.72405 0.25727 0.67986 0.0
H57 H 0.7467 0.32534 0.66752 0.0
H58 H 0.67567 0.32122 0.67977 0.0
O59 O 0.60527 0.0923 0.65055 0.0
O60 O 0.57091 0.11258 0.61807 0.0
H61 H 0.63519 0.34191 0.59154 0.0
H62 H 0.68011 0.28082 0.58264 0.0
C63 C 0.64239 0.29367 0.593 0.0
H64 H 0.60265 0.26997 0.58728 0.0
H65 H 0.5479 0.15318 0.57624 0.0
O66 O 0.66433 0.15486 0.68978 0.0
C67 C 0.56863 0.08327 0.63539 0.0
Co68 Co 0.86204 0.71242 0.15665 0.0
Co69 Co 0.87239 0.68306 0.10737 0.0
C70 C 0.94923 0.77418 0.13184 0.0
O71 O 0.91718 0.77632 0.14872 0.0
O72 O 0.93477 0.74242 0.11566 0.0
C73 C 0.87136 0.69153 0.20194 0.0
O74 O 0.92375 0.6714 0.1967 0.0
C75 C 0.86396 0.71124 0.06061 0.0
C76 C 0.86883 0.62151 0.04676 0.0
C77 C 0.86385 0.68031 0.04129 0.0
N78 N 0.86855 0.67217 0.07682 0.0
N79 N 0.87145 0.6187 0.06836 0.0
C80 C 0.86136 0.77652 0.06357 0.0
H81 H 0.85135 0.78778 0.08059 0.0
H82 H 0.82762 0.79587 0.05272 0.0
H83 H 0.90468 0.79565 0.05916 0.0
C84 C 0.73537 0.71687 0.1452 0.0
N85 N 0.79263 0.71148 0.13968 0.0
N86 N 0.7963 0.69471 0.11948 0.0
C87 C 0.74142 0.68538 0.11184 0.0
C88 C 0.70044 0.69981 0.12782 0.0
C89 C 0.71483 0.73772 0.16682 0.0
H90 H 0.74374 0.77384 0.17262 0.0
H91 H 0.66847 0.75338 0.16618 0.0
H92 H 0.71805 0.7009 0.17849 0.0
O93 O 0.91111 0.6395 0.15283 0.0
O94 O 0.9066 0.61081 0.11866 0.0
H95 H 0.68284 0.6428 0.08906 0.0
H96 H 0.73744 0.69153 0.07758 0.0
C97 C 0.72905 0.65838 0.0903 0.0
H98 H 0.7594 0.62073 0.08754 0.0
H99 H 0.87532 0.58013 0.07735 0.0
O100 O 0.83864 0.71423 0.18754 0.0
C101 C 0.92531 0.6041 0.13776 0.0
Co102 Co 0.30937 0.83965 0.6581 0.0
Co103 Co 0.3192 0.84419 0.60791 0.0
C104 C 0.24474 0.93109 0.63187 0.0
O105 O 0.25587 0.90645 0.64991 0.0
O106 O 0.26406 0.91005 0.61419 0.0
C107 C 0.27216 0.81057 0.70254 0.0
O108 O 0.22039 0.79445 0.69512 0.0
C109 C 0.29122 0.84684 0.56159 0.0
C110 C 0.37421 0.81156 0.54794 0.0
C111 C 0.31923 0.83316 0.54243 0.0
N112 N 0.32821 0.83386 0.57782 0.0
N113 N 0.37767 0.8128 0.56954 0.0
C114 C 0.23104 0.87259 0.56446 0.0
H115 H 0.23514 0.92075 0.56723 0.0
H116 H 0.2096 0.85305 0.57883 0.0
H117 H 0.2035 0.86515 0.54993 0.0
C118 C 0.28965 0.71117 0.64803 0.0
N119 N 0.29769 0.76799 0.64229 0.0
N120 N 0.29971 0.7708 0.62112 0.0
C121 C 0.29157 0.71619 0.61286 0.0
C122 C 0.28571 0.67655 0.62969 0.0
C123 C 0.2866 0.68905 0.67061 0.0
H124 H 0.31659 0.71469 0.68085 0.0
H125 H 0.24087 0.69386 0.67666 0.0
H126 H 0.29901 0.64175 0.67149 0.0
O127 O 0.38825 0.87011 0.65305 0.0
O128 O 0.39619 0.87431 0.61783 0.0
H129 H 0.3329 0.70527 0.58224 0.0
H130 H 0.27093 0.65711 0.58655 0.0
C131 C 0.28818 0.70222 0.58934 0.0
H132 H 0.25927 0.73469 0.58117 0.0
H133 H 0.41394 0.79958 0.57868 0.0
O134 O 0.31093 0.82996 0.68973 0.0
C135 C 0.41785 0.88297 0.63646 0.0
Co136 Co 0.64662 0.19078 0.8402 0.0
Co137 Co 0.65358 0.17572 0.89022 0.0
C138 C 0.57023 0.26399 0.86815 0.0
O139 O 0.58927 0.25405 0.84907 0.0
O140 O 0.59308 0.23695 0.88407 0.0
C141 C 0.65922 0.21918 0.79362 0.0
O142 O 0.65626 0.2754 0.79865 0.0
C143 C 0.66944 0.21341 0.93528 0.0
C144 C 0.67792 0.12667 0.95118 0.0
C145 C 0.6762 0.18662 0.95509 0.0
N146 N 0.66722 0.17092 0.92019 0.0
N147 N 0.67266 0.11926 0.92981 0.0
C148 C 0.66472 0.27796 0.93092 0.0
H149 H 0.66534 0.28676 0.91336 0.0
H150 H 0.70183 0.30133 0.93884 0.0
H151 H 0.62328 0.29525 0.93805 0.0
C152 C 0.77873 0.20689 0.84747 0.0
N153 N 0.72301 0.1959 0.85424 0.0
N154 N 0.72497 0.18551 0.87509 0.0
C155 C 0.78143 0.1873 0.88192 0.0
C156 C 0.81742 0.20048 0.86463 0.0
C157 C 0.79543 0.22897 0.82569 0.0
H158 H 0.75614 0.24193 0.81639 0.0
H159 H 0.82501 0.26765 0.82732 0.0
H160 H 0.82061 0.19424 0.81706 0.0
O161 O 0.60265 0.11804 0.84787 0.0
O162 O 0.61485 0.10223 0.8828 0.0
H163 H 0.78184 0.13912 0.91149 0.0
H164 H 0.84923 0.17906 0.90628 0.0
C165 C 0.80046 0.18036 0.90484 0.0
H166 H 0.78338 0.21796 0.91444 0.0
H167 H 0.67182 0.07884 0.92178 0.0
O168 O 0.65531 0.18076 0.80837 0.0
C169 C 0.59343 0.08779 0.86473 0.0
Co170 Co 0.82053 0.65764 0.33483 0.0
Co171 Co 0.83771 0.64893 0.38486 0.0
C172 C 0.75197 0.57261 0.35898 0.0
O173 O 0.75451 0.60403 0.34201 0.0
O174 O 0.77975 0.58693 0.37608 0.0
C175 C 0.79512 0.64777 0.28927 0.0
O176 O 0.75966 0.60476 0.29486 0.0
C177 C 0.80374 0.6524 0.43101 0.0
C178 C 0.89165 0.66007 0.44615 0.0
C179 C 0.8322 0.65601 0.45074 0.0
N180 N 0.84482 0.6541 0.4154 0.0
N181 N 0.89719 0.65872 0.4246 0.0
C182 C 0.73904 0.64676 0.42707 0.0
H183 H 0.72636 0.59973 0.42855 0.0
H184 H 0.72785 0.66201 0.41059 0.0
H185 H 0.71391 0.67237 0.43927 0.0
C186 C 0.81227 0.78474 0.3457 0.0
N187 N 0.81963 0.72788 0.35137 0.0
N188 N 0.82613 0.72463 0.37237 0.0
C189 C 0.82367 0.7796 0.3807 0.0
C190 C 0.81481 0.81961 0.36406 0.0
C191 C 0.7991 0.80465 0.32328 0.0
H192 H 0.75868 0.7821 0.31758 0.0
H193 H 0.79249 0.85306 0.32242 0.0
H194 H 0.83592 0.79168 0.3125 0.0
O195 O 0.89187 0.60824 0.34 0.0
O196 O 0.91173 0.61337 0.37499 0.0
H197 H 0.82764 0.84169 0.4072 0.0
H198 H 0.79028 0.77298 0.41274 0.0
C199 C 0.82797 0.79344 0.40421 0.0
H200 H 0.86917 0.77422 0.4108 0.0
H201 H 0.93683 0.6608 0.41614 0.0
O202 O 0.82243 0.67676 0.30365 0.0
C203 C 0.92328 0.59436 0.3562 0.0
Co204 Co 0.3472 0.83169 0.83703 0.0
Co205 Co 0.35671 0.80658 0.88625 0.0
C206 C 0.4335 0.74103 0.85693 0.0
O207 O 0.40935 0.76996 0.8417 0.0
O208 O 0.41414 0.74627 0.87614 0.0
C209 C 0.30884 0.79921 0.7946 0.0
O210 O 0.29304 0.74978 0.80393 0.0
C211 C 0.3578 0.76525 0.93148 0.0
C212 C 0.32326 0.84543 0.94751 0.0
C213 C 0.34359 0.789 0.9514 0.0
N214 N 0.34657 0.80633 0.91646 0.0
N215 N 0.32584 0.85395 0.92616 0.0
C216 C 0.38185 0.70522 0.92676 0.0
H217 H 0.35825 0.68595 0.91276 0.0
H218 H 0.37778 0.67588 0.94096 0.0
H219 H 0.42905 0.70911 0.92228 0.0
C220 C 0.2186 0.82367 0.84754 0.0
N221 N 0.27624 0.81983 0.85278 0.0
N222 N 0.28064 0.80366 0.87303 0.0
C223 C 0.22588 0.79403 0.88092 0.0
C224 C 0.18476 0.80704 0.86503 0.0
C225 C 0.1954 0.84796 0.82691 0.0
H226 H 0.22031 0.88843 0.82305 0.0
H227 H 0.201 0.81517 0.81385 0.0
H228 H 0.14784 0.8591 0.82816 0.0
O229 O 0.38693 0.90343 0.84587 0.0
O230 O 0.39899 0.88175 0.88048 0.0
H231 H 0.21437 0.80916 0.91457 0.0
H232 H 0.16852 0.75151 0.90382 0.0
C233 C 0.21299 0.77174 0.90306 0.0
H234 H 0.24682 0.73898 0.90791 0.0
H235 H 0.31364 0.89246 0.91813 0.0
O236 O 0.33279 0.83951 0.80573 0.0
C237 C 0.40858 0.91456 0.86426 0.0
Co238 Co 0.19783 0.35116 0.33561 0.0
Co239 Co 0.17973 0.35245 0.38558 0.0
C240 C 0.26177 0.43667 0.36517 0.0
O241 O 0.24891 0.41704 0.34644 0.0
O242 O 0.24461 0.41061 0.38225 0.0
C243 C 0.20325 0.37573 0.29098 0.0
O244 O 0.20354 0.43086 0.29752 0.0
C245 C 0.19622 0.34542 0.43277 0.0
C246 C 0.10472 0.32896 0.4434 0.0
C247 C 0.16145 0.3377 0.45088 0.0
N248 N 0.16145 0.34153 0.41527 0.0
N249 N 0.10688 0.33151 0.42177 0.0
C250 C 0.26076 0.35814 0.43212 0.0
H251 H 0.2672 0.40659 0.43155 0.0
H252 H 0.2806 0.33865 0.41738 0.0
H253 H 0.28307 0.34077 0.44671 0.0
C254 C 0.21142 0.22324 0.34402 0.0
N255 N 0.20304 0.2791 0.35089 0.0
N256 N 0.19436 0.27894 0.37181 0.0
C257 C 0.19679 0.22279 0.37892 0.0
C258 C 0.20725 0.18545 0.3615 0.0
C259 C 0.2244 0.20667 0.32117 0.0
H260 H 0.26149 0.23374 0.31509 0.0
H261 H 0.23575 0.15924 0.31962 0.0
H262 H 0.18517 0.21638 0.31109 0.0
O263 O 0.11894 0.38593 0.33757 0.0
O264 O 0.11067 0.39395 0.37309 0.0
H265 H 0.19394 0.15699 0.40415 0.0
H266 H 0.22285 0.22833 0.41194 0.0
C267 C 0.18941 0.20532 0.40198 0.0
H268 H 0.14522 0.21939 0.40766 0.0
H269 H 0.07093 0.32718 0.41141 0.0
O270 O 0.20656 0.33467 0.30473 0.0
C271 C 0.09244 0.40512 0.35416 0.0
Co272 Co 0.85161 0.68733 0.83463 0.0
Co273 Co 0.85221 0.67884 0.88514 0.0
C274 C 0.93336 0.75996 0.86007 0.0
O275 O 0.90474 0.75435 0.84246 0.0
O276 O 0.91558 0.73595 0.87747 0.0
C277 C 0.83662 0.72352 0.78937 0.0
O278 O 0.84466 0.77832 0.79552 0.0
C279 C 0.85634 0.70924 0.93179 0.0
C280 C 0.81376 0.63021 0.94551 0.0
C281 C 0.84037 0.68284 0.95109 0.0
N282 N 0.84017 0.67336 0.91553 0.0
N283 N 0.81468 0.62635 0.9239 0.0
C284 C 0.88746 0.76663 0.92881 0.0
H285 H 0.86601 0.79191 0.91567 0.0
H286 H 0.88745 0.79287 0.94392 0.0
H287 H 0.93368 0.75786 0.92387 0.0
C288 C 0.72264 0.68826 0.84213 0.0
N289 N 0.77858 0.68758 0.84943 0.0
N290 N 0.77823 0.68971 0.87057 0.0
C291 C 0.72165 0.69484 0.87733 0.0
C292 C 0.68426 0.69376 0.85948 0.0
C293 C 0.70617 0.68259 0.8189 0.0
H294 H 0.73321 0.64773 0.81116 0.0
H295 H 0.71534 0.72492 0.81075 0.0
H296 H 0.65882 0.67169 0.81689 0.0
O297 O 0.89976 0.61804 0.84156 0.0
O298 O 0.89212 0.60397 0.87685 0.0
H299 H 0.70341 0.65907 0.90837 0.0
H300 H 0.65894 0.72221 0.90155 0.0
C301 C 0.70373 0.70267 0.90034 0.0
H302 H 0.73589 0.73128 0.90882 0.0
H303 H 0.7985 0.59121 0.91482 0.0
O304 O 0.83854 0.68206 0.80305 0.0
C305 C 0.91326 0.58999 0.85853 0.0
Co306 Co 0.34517 0.85204 0.33763 0.0
Co307 Co 0.32757 0.85386 0.38751 0.0
C308 C 0.25876 0.93403 0.3626 0.0
O309 O 0.28769 0.91745 0.34594 0.0
O310 O 0.25981 0.90411 0.37992 0.0
C311 C 0.31246 0.82957 0.2922 0.0
O312 O 0.25807 0.82193 0.2989 0.0
C313 C 0.29475 0.85031 0.43352 0.0
C314 C 0.38139 0.82899 0.44797 0.0
C315 C 0.32324 0.84111 0.45294 0.0
N316 N 0.33456 0.84381 0.41766 0.0
N317 N 0.38617 0.83111 0.42642 0.0
C318 C 0.23162 0.86664 0.4301 0.0
H319 H 0.22875 0.91462 0.4268 0.0
H320 H 0.21401 0.84292 0.41584 0.0
H321 H 0.20475 0.85645 0.44455 0.0
C322 C 0.33177 0.72017 0.34634 0.0
N323 N 0.33403 0.77761 0.35239 0.0
N324 N 0.32699 0.78005 0.37343 0.0
C325 C 0.3197 0.72515 0.38125 0.0
C326 C 0.32301 0.68527 0.36438 0.0
C327 C 0.33704 0.69781 0.3238 0.0
H328 H 0.31444 0.72775 0.31255 0.0
H329 H 0.31783 0.65307 0.32216 0.0
H330 H 0.38444 0.69499 0.3196 0.0
O331 O 0.4204 0.88931 0.34579 0.0
O332 O 0.39613 0.9026 0.37998 0.0
H333 H 0.34722 0.72118 0.4141 0.0
H334 H 0.29597 0.66422 0.40667 0.0
C335 C 0.30746 0.71129 0.40437 0.0
H336 H 0.27082 0.73942 0.41029 0.0
H337 H 0.42482 0.8244 0.41764 0.0
O338 O 0.35242 0.8428 0.30569 0.0
C339 C 0.42884 0.91375 0.36396 0.0
Co340 Co 0.15961 0.31813 0.83734 0.0
Co341 Co 0.15053 0.34716 0.88697 0.0
C342 C 0.06597 0.26366 0.86541 0.0
O343 O 0.09069 0.26961 0.84706 0.0
O344 O 0.08746 0.28706 0.88242 0.0
C345 C 0.15341 0.27071 0.79342 0.0
O346 O 0.11435 0.23337 0.80093 0.0
C347 C 0.15982 0.3327 0.93428 0.0
C348 C 0.1578 0.42576 0.94488 0.0
C349 C 0.16099 0.36853 0.95237 0.0
N350 N 0.15612 0.36732 0.91677 0.0
N351 N 0.15498 0.42288 0.92327 0.0
C352 C 0.16152 0.26693 0.93369 0.0
H353 H 0.11903 0.24954 0.93982 0.0
H354 H 0.16873 0.25086 0.91699 0.0
H355 H 0.19704 0.25051 0.94444 0.0
C356 C 0.28541 0.30047 0.84981 0.0
N357 N 0.22861 0.31164 0.85488 0.0
N358 N 0.22569 0.32776 0.87521 0.0
C359 C 0.28084 0.32972 0.8834 0.0
C360 C 0.32084 0.31206 0.8676 0.0
C361 C 0.30508 0.27838 0.82834 0.0
H362 H 0.27835 0.23917 0.82412 0.0
H363 H 0.35246 0.26611 0.82834 0.0
H364 H 0.2971 0.31295 0.81606 0.0
O365 O 0.12703 0.39929 0.8381 0.0
O366 O 0.11718 0.41666 0.87297 0.0
H367 H 0.34311 0.36015 0.90742 0.0
H368 H 0.28134 0.31835 0.91748 0.0
C369 C 0.29523 0.35172 0.90551 0.0
H370 H 0.27055 0.39302 0.90877 0.0
H371 H 0.15202 0.45892 0.91293 0.0
O372 O 0.17895 0.30618 0.80623 0.0
C373 C 0.10878 0.43146 0.85349 0.0
Co374 Co 0.67377 0.15197 0.3405 0.0
Co375 Co 0.69415 0.16054 0.39017 0.0
C376 C 0.75495 0.06858 0.3665 0.0
O377 O 0.72804 0.08553 0.3495 0.0
O378 O 0.75243 0.09811 0.38397 0.0
C379 C 0.70558 0.17856 0.29614 0.0
O380 O 0.7544 0.20007 0.30437 0.0
C381 C 0.71968 0.1614 0.4369 0.0
C382 C 0.64714 0.21943 0.44797 0.0
C383 C 0.69322 0.18473 0.45517 0.0
N384 N 0.68989 0.18116 0.41965 0.0
N385 N 0.64689 0.21599 0.4264 0.0
C386 C 0.77001 0.11886 0.43582 0.0
H387 H 0.80327 0.13516 0.42417 0.0
H388 H 0.79064 0.11271 0.45187 0.0
H389 H 0.75376 0.0758 0.42974 0.0
C390 C 0.68967 0.28356 0.3454 0.0
N391 N 0.69054 0.22772 0.35298 0.0
N392 N 0.70421 0.22955 0.37357 0.0
C393 C 0.71538 0.28584 0.37936 0.0
C394 C 0.70557 0.32191 0.36179 0.0
C395 C 0.66924 0.30134 0.32351 0.0
H396 H 0.70726 0.30206 0.31231 0.0
H397 H 0.64976 0.34628 0.32387 0.0
H398 H 0.63594 0.26973 0.31771 0.0
O399 O 0.59727 0.12405 0.35024 0.0
O400 O 0.61656 0.12299 0.385 0.0
H401 H 0.69753 0.3174 0.41112 0.0
H402 H 0.76476 0.34459 0.39974 0.0
C403 C 0.73617 0.30512 0.40112 0.0
H404 H 0.76089 0.26913 0.40915 0.0
H405 H 0.61623 0.23607 0.41623 0.0
O406 O 0.66791 0.15498 0.3085 0.0
C407 C 0.58242 0.11124 0.36938 0.0
Co408 Co 0.37343 0.80914 0.15531 0.0
Co409 Co 0.36907 0.81156 0.10463 0.0
C410 C 0.44936 0.72818 0.12797 0.0
O411 O 0.43213 0.7457 0.14656 0.0
O412 O 0.4249 0.74823 0.11109 0.0
C413 C 0.34336 0.78388 0.20107 0.0
O414 O 0.32028 0.73367 0.19477 0.0
C415 C 0.35436 0.77199 0.05965 0.0
C416 C 0.35038 0.85791 0.043 0.0
C417 C 0.35038 0.79772 0.03956 0.0
N418 N 0.3567 0.81527 0.07446 0.0
N419 N 0.3539 0.86646 0.06439 0.0
C420 C 0.35631 0.70754 0.06447 0.0
H421 H 0.35494 0.6996 0.08208 0.0
H422 H 0.31834 0.68538 0.05663 0.0
H423 H 0.39701 0.68813 0.0575 0.0
C424 C 0.24084 0.80897 0.14786 0.0
N425 N 0.29742 0.80742 0.14094 0.0
N426 N 0.29683 0.80626 0.11972 0.0
C427 C 0.24052 0.80511 0.11264 0.0
C428 C 0.20301 0.8073 0.13024 0.0
C429 C 0.22211 0.81323 0.17085 0.0
H430 H 0.25297 0.84156 0.17976 0.0
H431 H 0.22209 0.76863 0.17808 0.0
H432 H 0.17694 0.83182 0.17224 0.0
O433 O 0.41585 0.8808 0.14775 0.0
O434 O 0.41373 0.88332 0.11199 0.0
H435 H 0.23756 0.83984 0.0807 0.0
H436 H 0.17464 0.79496 0.08761 0.0
C437 C 0.22301 0.79994 0.08949 0.0
H438 H 0.24523 0.76115 0.08223 0.0
H439 H 0.35567 0.9073 0.0721 0.0
O440 O 0.36753 0.81733 0.18732 0.0
C441 C 0.43048 0.90404 0.13 0.0
Co442 Co 0.15779 0.34309 0.65798 0.0
Co443 Co 0.14915 0.34519 0.60736 0.0
C444 C 0.2287 0.42734 0.63237 0.0
O445 O 0.22171 0.3997 0.65009 0.0
O446 O 0.20522 0.40942 0.61488 0.0
C447 C 0.19256 0.30773 0.70171 0.0
O448 O 0.24013 0.28574 0.69266 0.0
C449 C 0.17992 0.34711 0.56081 0.0
C450 C 0.09872 0.30863 0.547 0.0
C451 C 0.15307 0.33156 0.54155 0.0
N452 N 0.14281 0.33387 0.57699 0.0
N453 N 0.09443 0.311 0.56857 0.0
C454 C 0.23906 0.37477 0.56381 0.0
H455 H 0.23311 0.42264 0.56686 0.0
H456 H 0.2612 0.35546 0.57811 0.0
H457 H 0.26689 0.36879 0.54926 0.0
C458 C 0.16732 0.21213 0.64856 0.0
N459 N 0.16198 0.26929 0.6426 0.0
N460 N 0.16331 0.27172 0.6214 0.0
C461 C 0.17189 0.21685 0.61344 0.0
C462 C 0.17425 0.17737 0.63039 0.0
C463 C 0.16497 0.18934 0.67108 0.0
H464 H 0.13779 0.21853 0.68124 0.0
H465 H 0.21035 0.18618 0.67761 0.0
H466 H 0.14588 0.14432 0.67134 0.0
O467 O 0.08588 0.38838 0.65109 0.0
O468 O 0.07295 0.38047 0.61577 0.0
H469 H 0.13709 0.2041 0.58185 0.0
H470 H 0.19945 0.15782 0.58795 0.0
C471 C 0.18039 0.20255 0.59012 0.0
H472 H 0.20984 0.23557 0.5826 0.0
H473 H 0.05827 0.29715 0.57762 0.0
O474 O 0.15494 0.33385 0.68995 0.0
C475 C 0.05757 0.40072 0.63403 0.0
Co476 Co 0.66378 0.17884 0.1587 0.0
Co477 Co 0.66178 0.17535 0.10829 0.0
C478 C 0.57597 0.24928 0.13206 0.0
O479 O 0.59579 0.2315 0.15021 0.0
O480 O 0.60209 0.23682 0.11446 0.0
C481 C 0.6875 0.21401 0.20412 0.0
O482 O 0.69687 0.26822 0.19761 0.0
C483 C 0.67103 0.21169 0.06323 0.0
C484 C 0.68034 0.12524 0.04703 0.0
C485 C 0.67633 0.18515 0.04327 0.0
N486 N 0.67167 0.16913 0.07821 0.0
N487 N 0.67735 0.11761 0.06845 0.0
C488 C 0.66445 0.27594 0.06801 0.0
H489 H 0.68522 0.28656 0.08373 0.0
H490 H 0.68432 0.30288 0.055 0.0
H491 H 0.61684 0.28688 0.06913 0.0
C492 C 0.79277 0.20302 0.14933 0.0
N493 N 0.73642 0.19221 0.14335 0.0
N494 N 0.73504 0.18645 0.12224 0.0
C495 C 0.79018 0.19128 0.11433 0.0
C496 C 0.82854 0.20213 0.1312 0.0
C497 C 0.81219 0.21757 0.17168 0.0
H498 H 0.79373 0.18525 0.18299 0.0
H499 H 0.79541 0.26193 0.17606 0.0
H500 H 0.86096 0.21763 0.17312 0.0
O501 O 0.63239 0.09973 0.15246 0.0
O502 O 0.62355 0.10208 0.11691 0.0
H503 H 0.78818 0.146 0.08408 0.0
H504 H 0.8544 0.18839 0.08855 0.0
C505 C 0.80593 0.18741 0.09098 0.0
H506 H 0.78582 0.22506 0.0823 0.0
H507 H 0.67857 0.07719 0.07642 0.0
O508 O 0.67354 0.17457 0.19055 0.0
C509 C 0.61382 0.07778 0.13491 0.0
Co510 Co 0.79042 0.65236 0.65669 0.0
Co511 Co 0.80538 0.64737 0.60643 0.0
C512 C 0.72534 0.56444 0.62848 0.0
O513 O 0.73967 0.58511 0.64691 0.0
O514 O 0.73928 0.59081 0.61106 0.0
C515 C 0.80127 0.63915 0.70239 0.0
O516 O 0.82044 0.58615 0.6974 0.0
C517 C 0.78605 0.65352 0.5593 0.0
C518 C 0.87768 0.6643 0.54786 0.0
C519 C 0.82006 0.65905 0.54088 0.0
N520 N 0.82211 0.65558 0.57649 0.0
N521 N 0.87677 0.66204 0.5695 0.0
C522 C 0.72093 0.64468 0.56054 0.0
H523 H 0.71164 0.59669 0.56096 0.0
H524 H 0.70335 0.6648 0.57554 0.0
H525 H 0.6987 0.66384 0.54623 0.0
C526 C 0.77623 0.78008 0.64669 0.0
N527 N 0.78371 0.72346 0.64045 0.0
N528 N 0.79464 0.72207 0.6197 0.0
C529 C 0.79699 0.77783 0.61221 0.0
C530 C 0.78483 0.81692 0.62904 0.0
C531 C 0.76116 0.79838 0.6692 0.0
H532 H 0.7256 0.76975 0.67553 0.0
H533 H 0.74671 0.84511 0.6699 0.0
H534 H 0.80048 0.79253 0.67962 0.0
O535 O 0.86953 0.61617 0.65407 0.0
O536 O 0.87336 0.60516 0.61852 0.0
H537 H 0.81924 0.84146 0.58746 0.0
H538 H 0.77982 0.77666 0.57836 0.0
C539 C 0.81396 0.79327 0.58962 0.0
H540 H 0.85624 0.77136 0.58556 0.0
H541 H 0.91358 0.66438 0.57954 0.0
O542 O 0.78201 0.67268 0.68762 0.0
C543 C 0.89341 0.59483 0.63723 0.0
C544 C 0.12718 0.37627 0.23646 0.0
C545 C 0.15602 0.32851 0.22602 0.0
C546 C 0.22209 0.31807 0.25704 0.0
C547 C 0.18829 0.36072 0.26841 0.0
N548 N 0.09796 0.41767 0.27062 0.0
N549 N 0.22426 0.24687 0.22791 0.0
C550 C 0.13775 0.38628 0.25864 0.0
C551 C 0.20168 0.29732 0.23675 0.0
N552 N 0.09205 0.41419 0.22512 0.0
N553 N 0.27462 0.29883 0.26525 0.0
H554 H 0.20934 0.22948 0.21333 0.0
H555 H 0.25351 0.21925 0.23601 0.0
H556 H 0.29178 0.31416 0.2798 0.0
H557 H 0.30381 0.27218 0.25667 0.0
H558 H 0.07488 0.45278 0.2318 0.0
H559 H 0.0856 0.41118 0.20854 0.0
H560 H 0.05772 0.43214 0.26443 0.0
H561 H 0.10154 0.42333 0.28722 0.0
C562 C 0.63151 0.22558 0.75451 0.0
C563 C 0.66755 0.20047 0.77077 0.0
C564 C 0.71705 0.14016 0.74318 0.0
C565 C 0.68855 0.17297 0.72678 0.0
N566 N 0.62194 0.25244 0.71712 0.0
N567 N 0.75001 0.13716 0.78008 0.0
C568 C 0.64639 0.21698 0.73249 0.0
C569 C 0.71159 0.15838 0.76501 0.0
N570 N 0.58126 0.25543 0.76003 0.0
N571 N 0.74728 0.08983 0.73806 0.0
H572 H 0.74767 0.14758 0.79634 0.0
H573 H 0.7874 0.11265 0.77613 0.0
H574 H 0.75018 0.07346 0.72238 0.0
H575 H 0.76366 0.06076 0.74958 0.0
H576 H 0.55006 0.26928 0.7488 0.0
H577 H 0.56722 0.26044 0.77592 0.0
H578 H 0.59723 0.28991 0.72082 0.0
H579 H 0.62978 0.24768 0.70074 0.0
C580 C 0.80028 0.71416 0.25705 0.0
C581 C 0.80961 0.65779 0.26631 0.0
C582 C 0.84851 0.62175 0.23197 0.0
C583 C 0.84764 0.68015 0.22379 0.0
N584 N 0.82934 0.78387 0.22956 0.0
N585 N 0.85241 0.56032 0.26366 0.0
C586 C 0.82502 0.72698 0.23655 0.0
C587 C 0.83619 0.61207 0.25406 0.0
N588 N 0.76618 0.75474 0.26755 0.0
N589 N 0.85881 0.57515 0.21848 0.0
H590 H 0.84562 0.55154 0.27994 0.0
H591 H 0.87779 0.52832 0.25592 0.0
H592 H 0.8654 0.58003 0.20196 0.0
H593 H 0.85423 0.53137 0.22322 0.0
H594 H 0.75329 0.79467 0.26075 0.0
H595 H 0.74557 0.74567 0.28218 0.0
H596 H 0.81929 0.82016 0.2392 0.0
H597 H 0.84792 0.79521 0.21478 0.0
C598 C 0.33574 0.76808 0.75717 0.0
C599 C 0.30313 0.80585 0.77096 0.0
C600 C 0.25047 0.8467 0.73986 0.0
C601 C 0.28445 0.81032 0.72599 0.0
N602 N 0.37222 0.75041 0.72124 0.0
N603 N 0.24352 0.89372 0.77468 0.0
C604 C 0.33094 0.77513 0.73453 0.0
C605 C 0.26459 0.84894 0.76212 0.0
N606 N 0.37211 0.72591 0.76566 0.0
N607 N 0.20537 0.88016 0.7318 0.0
H608 H 0.25598 0.89935 0.79061 0.0
H609 H 0.21972 0.9294 0.76869 0.0
H610 H 0.19708 0.88488 0.71538 0.0
H611 H 0.17413 0.90094 0.74151 0.0
H612 H 0.39039 0.69191 0.75652 0.0
H613 H 0.38169 0.72282 0.78204 0.0
H614 H 0.41013 0.72944 0.72683 0.0
H615 H 0.37291 0.75653 0.7047 0.0
C616 C 0.87611 0.67892 0.75537 0.0
C617 C 0.82966 0.70839 0.76629 0.0
C618 C 0.76362 0.6904 0.73572 0.0
C619 C 0.81086 0.6634 0.72435 0.0
N620 N 0.91593 0.64744 0.72108 0.0
N621 N 0.73402 0.75481 0.76502 0.0
C622 C 0.86826 0.66183 0.73354 0.0
C623 C 0.77495 0.71834 0.75584 0.0
N624 N 0.92787 0.66725 0.76585 0.0
N625 N 0.70745 0.68696 0.72782 0.0
H626 H 0.74125 0.77657 0.77958 0.0
H627 H 0.69559 0.76815 0.75723 0.0
H628 H 0.6971 0.6657 0.71341 0.0
H629 H 0.67043 0.70031 0.73649 0.0
H630 H 0.96025 0.63931 0.75967 0.0
H631 H 0.93715 0.68279 0.78131 0.0
H632 H 0.95935 0.65137 0.72635 0.0
H633 H 0.91282 0.63773 0.7047 0.0
C634 C 0.29978 0.86 0.25357 0.0
C635 C 0.32702 0.82259 0.26893 0.0
C636 C 0.3694 0.7629 0.23966 0.0
C637 C 0.34257 0.80063 0.2243 0.0
N638 N 0.29918 0.8963 0.21703 0.0
N639 N 0.40256 0.74989 0.27634 0.0
C640 C 0.31294 0.85266 0.23132 0.0
C641 C 0.36643 0.77754 0.26193 0.0
N642 N 0.2615 0.90302 0.26021 0.0
N643 N 0.39833 0.71314 0.233 0.0
H644 H 0.40387 0.76055 0.29259 0.0
H645 H 0.43613 0.72095 0.27188 0.0
H646 H 0.40725 0.70389 0.21686 0.0
H647 H 0.41121 0.6796 0.24343 0.0
H648 H 0.23397 0.92595 0.24971 0.0
H649 H 0.25484 0.91386 0.27635 0.0
H650 H 0.28273 0.93731 0.22165 0.0
H651 H 0.31061 0.89502 0.20085 0.0
C652 C 0.12322 0.28843 0.73329 0.0
C653 C 0.18129 0.29894 0.72524 0.0
C654 C 0.2204 0.27886 0.76128 0.0
C655 C 0.16253 0.27726 0.7698 0.0
N656 N 0.05881 0.29669 0.76413 0.0
N657 N 0.2829 0.32141 0.73411 0.0
C658 C 0.11382 0.2867 0.7559 0.0
C659 C 0.22936 0.29913 0.73996 0.0
N660 N 0.0771 0.27732 0.71972 0.0
N661 N 0.26678 0.25891 0.7732 0.0
H662 H 0.29027 0.34204 0.71938 0.0
H663 H 0.31758 0.32636 0.74499 0.0
H664 H 0.26074 0.23902 0.78812 0.0
H665 H 0.30941 0.25509 0.76706 0.0
H666 H 0.03594 0.2637 0.72525 0.0
H667 H 0.08074 0.27489 0.70308 0.0
H668 H 0.02328 0.30978 0.7546 0.0
H669 H 0.04998 0.29851 0.78059 0.0
C670 C 0.7371 0.15331 0.25846 0.0
C671 C 0.69569 0.18053 0.27246 0.0
C672 C 0.64718 0.22717 0.24148 0.0
C673 C 0.68829 0.19958 0.22747 0.0
N674 N 0.76019 0.12183 0.22221 0.0
N675 N 0.59994 0.22683 0.27635 0.0
C676 C 0.72956 0.15814 0.23579 0.0
C677 C 0.64721 0.21244 0.26373 0.0
N678 N 0.78351 0.12224 0.2668 0.0
N679 N 0.60747 0.26707 0.23355 0.0
H680 H 0.5959 0.21404 0.29231 0.0
H681 H 0.56115 0.24514 0.27034 0.0
H682 H 0.60159 0.27489 0.21716 0.0
H683 H 0.58234 0.29475 0.24334 0.0
H684 H 0.81962 0.10876 0.25766 0.0
H685 H 0.78737 0.11209 0.28311 0.0
H686 H 0.78637 0.08697 0.22749 0.0
H687 H 0.75461 0.12178 0.20561 0.0
C688 C 0.22172 0.34411 0.0086 0.0
C689 C 0.16942 0.35309 0.02065 0.0
C690 C 0.11092 0.35003 0.98747 0.0
C691 C 0.16385 0.35188 0.97539 0.0
N692 N 0.26987 0.34893 0.97372 0.0
N693 N 0.06375 0.36377 0.02221 0.0
C694 C 0.21941 0.34736 0.98574 0.0
C695 C 0.11366 0.35466 0.0103 0.0
N696 N 0.27336 0.33238 0.01913 0.0
N697 N 0.05823 0.34408 0.97701 0.0
H698 H 0.06395 0.36562 0.03899 0.0
H699 H 0.02256 0.37249 0.01553 0.0
H700 H 0.05522 0.34087 0.96028 0.0
H701 H 0.01826 0.33717 0.98482 0.0
H702 H 0.31229 0.32041 0.01138 0.0
H703 H 0.27596 0.32965 0.03588 0.0
H704 H 0.31191 0.3529 0.98027 0.0
H705 H 0.2695 0.34888 0.95693 0.0
C706 C 0.68601 0.11793 0.48722 0.0
C707 C 0.70434 0.17225 0.47814 0.0
C708 C 0.70702 0.2179 0.51383 0.0
C709 C 0.68634 0.16436 0.52272 0.0
N710 N 0.67553 0.0593 0.51961 0.0
N711 N 0.74977 0.26702 0.48286 0.0
C712 C 0.68285 0.11281 0.50994 0.0
C713 C 0.72119 0.21983 0.49158 0.0
N714 N 0.66706 0.073 0.47428 0.0
N715 N 0.70932 0.26763 0.52625 0.0
H716 H 0.76072 0.26886 0.46655 0.0
H717 H 0.76748 0.30118 0.49202 0.0
H718 H 0.69962 0.2676 0.54265 0.0
H719 H 0.71748 0.30946 0.52007 0.0
H720 H 0.64657 0.03527 0.48014 0.0
H721 H 0.66796 0.07491 0.45754 0.0
H722 H 0.67772 0.01941 0.5113 0.0
H723 H 0.6733 0.05471 0.53632 0.0
C724 C 0.80101 0.71749 0.9864 0.0
C725 C 0.85055 0.70231 0.97362 0.0
C726 C 0.91221 0.69958 0.00602 0.0
C727 C 0.86062 0.70212 0.01882 0.0
N728 N 0.75557 0.71552 0.02177 0.0
N729 N 0.95419 0.67934 0.97087 0.0
C730 C 0.80496 0.71302 0.0092 0.0
C731 C 0.90683 0.69488 0.98326 0.0
N732 N 0.75024 0.73569 0.97657 0.0
N733 N 0.96617 0.70095 0.01579 0.0
H734 H 0.95217 0.67622 0.95414 0.0
H735 H 0.99468 0.66633 0.97719 0.0
H736 H 0.97079 0.70454 0.03247 0.0
H737 H 0.00578 0.70426 0.00742 0.0
H738 H 0.71382 0.75201 0.98488 0.0
H739 H 0.74675 0.73956 0.95987 0.0
H740 H 0.71286 0.71616 0.01563 0.0
H741 H 0.7573 0.71421 0.03854 0.0
C742 C 0.28244 0.79218 0.48559 0.0
C743 C 0.29982 0.84465 0.47506 0.0
C744 C 0.30981 0.8957 0.50955 0.0
C745 C 0.2986 0.84154 0.5201 0.0
N746 N 0.25766 0.74403 0.51936 0.0
N747 N 0.31241 0.94974 0.47578 0.0
C748 C 0.27887 0.7917 0.50843 0.0
C749 C 0.30709 0.89781 0.48671 0.0
N750 N 0.27251 0.74238 0.47371 0.0
N751 N 0.32651 0.94382 0.52133 0.0
H752 H 0.31068 0.95183 0.45901 0.0
H753 H 0.3135 0.99093 0.48317 0.0
H754 H 0.32676 0.94403 0.53813 0.0
H755 H 0.34203 0.98278 0.51462 0.0
H756 H 0.2661 0.7008 0.48034 0.0
H757 H 0.27228 0.74256 0.45691 0.0
H758 H 0.23879 0.70745 0.51197 0.0
H759 H 0.25463 0.74336 0.53613 0.0
C760 C 0.6212 0.21755 0.01081 0.0
C761 C 0.67576 0.212 0.02168 0.0
C762 C 0.72913 0.22103 0.98769 0.0
C763 C 0.67503 0.21305 0.97677 0.0
N764 N 0.569 0.21246 0.97666 0.0
N765 N 0.78143 0.21855 0.02191 0.0
C766 C 0.62065 0.21572 0.98795 0.0
C767 C 0.72981 0.21835 0.01054 0.0
N768 N 0.57034 0.22266 0.02246 0.0
N769 N 0.77944 0.22942 0.97601 0.0
H770 H 0.78224 0.2192 0.03871 0.0
H771 H 0.8231 0.21747 0.01494 0.0
H772 H 0.77899 0.23154 0.95921 0.0
H773 H 0.82049 0.23829 0.98272 0.0
H774 H 0.52908 0.23058 0.01573 0.0
H775 H 0.57012 0.22327 0.03925 0.0
H776 H 0.52767 0.20774 0.98368 0.0
H777 H 0.5677 0.21332 0.95987 0.0
C778 C 0.79323 0.70959 0.50661 0.0
C779 C 0.80208 0.65626 0.51797 0.0
C780 C 0.80451 0.60124 0.48398 0.0
C781 C 0.80747 0.65548 0.4728 0.0
N782 N 0.7991 0.76114 0.47238 0.0
N783 N 0.81078 0.55056 0.51837 0.0
C784 C 0.79887 0.70967 0.48378 0.0
C785 C 0.8048 0.6016 0.5069 0.0
N786 N 0.7802 0.75991 0.5178 0.0
N787 N 0.80238 0.54971 0.47257 0.0
H788 H 0.80843 0.54944 0.53514 0.0
H789 H 0.81982 0.50969 0.51148 0.0
H790 H 0.80249 0.54873 0.45577 0.0
H791 H 0.79582 0.50853 0.47948 0.0
H792 H 0.76909 0.79978 0.51061 0.0
H793 H 0.77593 0.76045 0.53453 0.0
H794 H 0.79973 0.80283 0.47938 0.0
H795 H 0.8003 0.76198 0.45558 0.0
C796 C 0.29765 0.75752 0.00749 0.0
C797 C 0.35148 0.76958 0.01813 0.0
C798 C 0.40474 0.76859 0.98398 0.0
C799 C 0.34989 0.76392 0.97319 0.0
N800 N 0.24837 0.73461 0.97368 0.0
N801 N 0.45736 0.76666 0.01809 0.0
C802 C 0.29772 0.75116 0.98473 0.0
C803 C 0.4056 0.7677 0.00684 0.0
N804 N 0.24645 0.75579 0.01906 0.0
N805 N 0.45501 0.7784 0.97242 0.0
H806 H 0.45849 0.76639 0.03489 0.0
H807 H 0.49852 0.76086 0.01098 0.0
H808 H 0.45583 0.77762 0.95564 0.0
H809 H 0.49535 0.78933 0.97933 0.0
H810 H 0.20472 0.75354 0.01216 0.0
H811 H 0.24591 0.75832 0.03585 0.0
H812 H 0.20943 0.72111 0.981 0.0
H813 H 0.24846 0.7297 0.95695 0.0
C814 C 0.1942 0.28802 0.50787 0.0
C815 C 0.17425 0.3386 0.51914 0.0
C816 C 0.16957 0.3939 0.48534 0.0
C817 C 0.17814 0.34044 0.47392 0.0
N818 N 0.2027 0.23722 0.4735 0.0
N819 N 0.14558 0.44087 0.51942 0.0
C820 C 0.19284 0.2878 0.48496 0.0
C821 C 0.16398 0.39237 0.50815 0.0
N822 N 0.214 0.24036 0.51921 0.0
N823 N 0.16633 0.44578 0.47426 0.0
H824 H 0.14312 0.44169 0.53619 0.0
H825 H 0.13042 0.47943 0.51225 0.0
H826 H 0.17009 0.44775 0.45753 0.0
H827 H 0.16504 0.48705 0.48159 0.0
H828 H 0.2334 0.20345 0.51217 0.0
H829 H 0.21555 0.24002 0.53602 0.0
H830 H 0.20695 0.19574 0.48044 0.0
H831 H 0.20453 0.23649 0.45671 0.0
C832 C 0.07885 0.53698 0.13495 0.0
C833 C 0.06885 0.4822 0.14502 0.0
C834 C 0.96803 0.51293 0.15439 0.0
C835 C 0.9752 0.56329 0.1413 0.0
N836 N 0.03708 0.62407 0.11863 0.0
N837 N 1.0017 0.41455 0.1627 0.0
C838 C 0.03064 0.57572 0.13151 0.0
C839 C 0.01327 0.46951 0.15473 0.0
N840 N 0.1349 0.55201 0.12899 0.0
N841 N 0.91759 0.506 0.16615 0.0
H842 H 0.03226 0.38033 0.16302 0.0
H843 H 0.95982 0.40083 0.16734 0.0
H844 H 0.882 0.53506 0.16521 0.0
H845 H 0.91277 0.474 0.17802 0.0
H846 H 0.14661 0.5932 0.12305 0.0
H847 H 0.17117 0.52472 0.13186 0.0
H848 H 0.07369 0.63144 0.10891 0.0
H849 H 0.00453 0.65593 0.11672 0.0
C850 C 0.47674 0.95791 0.6571 0.0
C851 C 0.47122 0.92113 0.6387 0.0
C852 C 0.54145 0.9845 0.6197 0.0
C853 C 0.53353 0.02833 0.63604 0.0
N854 N 0.4888 0.05787 0.66966 0.0
N855 N 0.51019 0.89078 0.60445 0.0
C856 C 0.49995 0.01526 0.65461 0.0
C857 C 0.50733 0.93193 0.62052 0.0
N858 N 0.46328 0.93712 0.67711 0.0
N859 N 0.58359 0.99153 0.60416 0.0
H860 H 0.49409 0.84809 0.60649 0.0
H861 H 0.52805 0.89848 0.58929 0.0
H862 H 0.61301 0.02657 0.60379 0.0
H863 H 0.59301 0.96051 0.59232 0.0
H864 H 0.47 0.9616 0.69112 0.0
H865 H 0.45489 0.89265 0.67996 0.0
H866 H 0.45975 0.05155 0.68245 0.0
H867 H 0.50376 0.10111 0.66814 0.0
C868 C 0.44087 0.01979 0.86426 0.0
C869 C 0.45546 0.95927 0.86559 0.0
C870 C 0.56115 0.98266 0.86446 0.0
C871 C 0.54645 0.0432 0.86441 0.0
N872 N 0.4738 0.12086 0.86757 0.0
N873 N 0.52859 0.88189 0.86899 0.0
C874 C 0.48667 0.06224 0.86517 0.0
C875 C 0.51541 0.94034 0.86639 0.0
N876 N 0.38326 0.03655 0.86186 0.0
N877 N 0.61869 0.96581 0.86188 0.0
H878 H 0.49693 0.84876 0.86909 0.0
H879 H 0.57071 0.86613 0.87237 0.0
H880 H 0.65318 0.99599 0.86068 0.0
H881 H 0.63213 0.92246 0.85935 0.0
H882 H 0.37014 0.07934 0.85815 0.0
H883 H 0.34832 0.00676 0.86234 0.0
H884 H 0.43168 0.13703 0.87069 0.0
H885 H 0.50594 0.15356 0.86799 0.0
C886 C 0.98949 0.44045 0.35978 0.0
C887 C 0.04658 0.45089 0.3516 0.0
C888 C 0.01957 0.55329 0.34313 0.0
C889 C 0.96543 0.54494 0.35397 0.0
N890 N 0.89796 0.48129 0.37314 0.0
N891 N 0.11903 0.51839 0.33711 0.0
C892 C 0.95003 0.48862 0.36239 0.0
C893 C 0.06231 0.50739 0.3434 0.0
N894 N 0.97264 0.38405 0.36445 0.0
N895 N 0.03022 0.60517 0.33268 0.0
H896 H 0.15216 0.48659 0.33697 0.0
H897 H 0.13487 0.56033 0.33363 0.0
H898 H 1.00106 0.64078 0.33305 0.0
H899 H 0.06579 0.61153 0.32235 0.0
H900 H 0.92968 0.3721 0.36834 0.0
H901 H 1.00075 0.34793 0.36251 0.0
H902 H 0.88737 0.4437 0.38189 0.0
H903 H 0.86599 0.51405 0.37433 0.0
C904 C 0.01971 0.56746 0.86609 0.0
C905 C 0.96462 0.54974 0.85712 0.0
C906 C 0.01425 0.46993 0.83762 0.0
C907 C 0.06667 0.48079 0.8496 0.0
N908 N 0.12195 0.54288 0.87359 0.0
N909 N 0.90796 0.48069 0.83626 0.0
C910 C 0.07013 0.53091 0.86322 0.0
C911 C 0.96159 0.50013 0.84334 0.0
N912 N 0.02443 0.62017 0.87667 0.0
N913 N 0.01463 0.43221 0.82043 0.0
H914 H 0.86845 0.50161 0.84032 0.0
H915 H 0.90211 0.44076 0.82823 0.0
H916 H 0.05278 0.41333 0.8142 0.0
H917 H 0.97849 0.42626 0.81031 0.0
H918 H 0.06433 0.63869 0.8814 0.0
H919 H 0.98884 0.648 0.87958 0.0
H920 H 0.12605 0.57319 0.8861 0.0
H921 H 0.16108 0.52066 0.86993 0.0
C922 C 0.53517 0.02428 0.38752 0.0
C923 C 0.53093 0.07126 0.37254 0.0
C924 C 0.4511 0.01867 0.35414 0.0
C925 C 0.46675 0.96652 0.36565 0.0
N926 N 0.52601 0.91912 0.39284 0.0
N927 N 0.47599 0.11923 0.34449 0.0
C928 C 0.50943 0.96924 0.38226 0.0
C929 C 0.48576 0.07031 0.35679 0.0
N930 N 0.56026 0.03297 0.40726 0.0
N931 N 0.40157 0.01995 0.34159 0.0
H932 H 0.49498 0.1599 0.3482 0.0
H933 H 0.45016 0.11946 0.33063 0.0
H934 H 0.37509 0.98341 0.33884 0.0
H935 H 0.38384 0.05834 0.33509 0.0
H936 H 0.56109 1.00076 0.41919 0.0
H937 H 0.57162 0.07466 0.41294 0.0
H938 H 0.56088 0.91789 0.40376 0.0
H939 H 0.50851 0.87778 0.3892 0.0
C940 C 0.46449 0.00507 0.13934 0.0
C941 C 0.47697 0.94903 0.13052 0.0
C942 C 0.58051 0.97624 0.12529 0.0
C943 C 0.56899 0.03091 0.13549 0.0
N944 N 0.5018 0.09504 0.15503 0.0
N945 N 0.54826 0.8762 0.1189 0.0
C946 C 0.51161 0.04448 0.14351 0.0
C947 C 0.53534 0.93317 0.12445 0.0
N948 N 0.4072 0.02145 0.14288 0.0
N949 N 0.6345 0.96565 0.11625 0.0
H950 H 0.51662 0.84307 0.1179 0.0
H951 H 0.59114 0.86055 0.11706 0.0
H952 H 0.66996 0.99457 0.11781 0.0
H953 H 0.64319 0.92984 0.10621 0.0
H954 H 0.39435 0.06419 0.14687 0.0
H955 H 0.37166 0.99345 0.13992 0.0
H956 H 0.46304 0.10334 0.1635 0.0
H957 H 0.53326 0.12773 0.15733 0.0
C958 C 0.9619 0.44395 0.64681 0.0
C959 C 0.01488 0.45012 0.63499 0.0
C960 C 0.99339 0.55529 0.62915 0.0
C961 C 0.93801 0.54758 0.63916 0.0
N962 N 0.86495 0.48274 0.65475 0.0
N963 N 0.08078 0.51072 0.61376 0.0
C964 C 0.92117 0.4916 0.64748 0.0
C965 C 0.03048 0.50552 0.62576 0.0
N966 N 0.9504 0.39241 0.65738 0.0
N967 N 0.0109 0.61079 0.62343 0.0
H968 H 0.11194 0.47735 0.61215 0.0
H969 H 0.09084 0.54736 0.60443 0.0
H970 H 0.98491 0.64809 0.62616 0.0
H971 H 0.05258 0.62107 0.61759 0.0
H972 H 0.9164 0.3877 0.66851 0.0
H973 H 0.97709 0.35508 0.65605 0.0
H974 H 0.84777 0.44131 0.65821 0.0
H975 H 0.83341 0.51599 0.65577 0.0
C976 C 0.47077 0.23013 0.12149 0.0
C977 C 0.51325 0.269 0.13076 0.0
C978 C 0.43382 0.3381 0.14051 0.0
C979 C 0.39203 0.3001 0.13053 0.0
N980 N 0.37061 0.2132 0.10951 0.0
N981 N 0.53708 0.36237 0.14682 0.0
C982 C 0.41063 0.24737 0.1203 0.0
C983 C 0.49521 0.32368 0.13971 0.0
N984 N 0.48713 0.17479 0.11502 0.0
N985 N 0.41452 0.38765 0.15095 0.0
H986 H 0.58207 0.3527 0.14643 0.0
H987 H 0.52811 0.40532 0.15174 0.0
H988 H 0.37057 0.40129 0.15077 0.0
H989 H 0.44115 0.41399 0.16061 0.0
H990 H 0.45751 0.14152 0.11105 0.0
H991 H 0.53028 0.15962 0.11531 0.0
H992 H 0.3824 0.1797 0.09885 0.0
H993 H 0.32523 0.22014 0.11009 0.0
C994 C 0.64015 0.42042 0.63732 0.0
C995 C 0.68336 0.37855 0.63085 0.0
C996 C 0.74843 0.45851 0.6192 0.0
C997 C 0.70744 0.50104 0.62737 0.0
N998 N 0.61647 0.52259 0.64576 0.0
N999 N 0.78208 0.357 0.61898 0.0
C1000 C 0.65387 0.48192 0.6369 0.0
C1001 C 0.73827 0.39743 0.62262 0.0
N1002 N 0.58558 0.40129 0.64345 0.0
N1003 N 0.79752 0.47594 0.60815 0.0
H1004 H 0.77628 0.31171 0.62081 0.0
H1005 H 0.82577 0.36838 0.61599 0.0
H1006 H 0.81059 0.51941 0.60639 0.0
H1007 H 0.82386 0.4471 0.59929 0.0
H1008 H 0.54992 0.42923 0.64622 0.0
H1009 H 0.57471 0.35671 0.64441 0.0
H1010 H 0.58016 0.51168 0.65517 0.0
H1011 H 0.62344 0.5679 0.64453 0.0
C1012 C 0.53844 0.67223 0.14313 0.0
C1013 C 0.50905 0.69921 0.12549 0.0
C1014 C 0.60403 0.72302 0.10924 0.0
C1015 C 0.63438 0.69668 0.1267 0.0
N1016 N 0.62918 0.62752 0.15616 0.0
N1017 N 0.51781 0.71422 0.087 0.0
C1018 C 0.60123 0.6655 0.1425 0.0
C1019 C 0.54296 0.7129 0.10693 0.0
N1020 N 0.50651 0.65207 0.16018 0.0
N1021 N 0.63225 0.75985 0.0953 0.0
H1022 H 0.47548 0.69814 0.08424 0.0
H1023 H 0.5422 0.72176 0.07303 0.0
H1024 H 0.676 0.77269 0.09732 0.0
H1025 H 0.60983 0.78287 0.08328 0.0
H1026 H 0.52558 0.63899 0.17468 0.0
H1027 H 0.46061 0.64915 0.15972 0.0
H1028 H 0.60694 0.6002 0.16686 0.0
H1029 H 0.67427 0.61883 0.15516 0.0
C1030 C 0.29898 0.50899 0.62187 0.0
C1031 C 0.24789 0.49013 0.63309 0.0
C1032 C 0.21747 0.59339 0.63775 0.0
C1033 C 0.27164 0.61234 0.62895 0.0
N1034 N 0.36817 0.58848 0.61515 0.0
N1035 N 0.16373 0.51612 0.65543 0.0
C1036 C 0.31363 0.57024 0.6216 0.0
C1037 C 0.20898 0.53283 0.64227 0.0
N1038 N 0.33327 0.4685 0.6114 0.0
N1039 N 0.17296 0.63319 0.64106 0.0
H1040 H 0.15391 0.47267 0.65908 0.0
H1041 H 0.13881 0.54593 0.66442 0.0
H1042 H 0.17667 0.67773 0.63717 0.0
H1043 H 0.13039 0.62119 0.64551 0.0
H1044 H 0.36722 0.47996 0.60094 0.0
H1045 H 0.32539 0.42326 0.61223 0.0
H1046 H 0.40273 0.55961 0.61176 0.0
H1047 H 0.3803 0.63276 0.61473 0.0
C1048 C 0.98589 0.18632 0.86196 0.0
C1049 C 0.00275 0.24553 0.86588 0.0
C1050 C 0.89854 0.27354 0.87065 0.0
C1051 C 0.88142 0.21545 0.86519 0.0
N1052 N 0.90701 0.11733 0.85359 0.0
N1053 N 0.97425 0.34793 0.8696 0.0
C1054 C 0.92466 0.17198 0.86025 0.0
C1055 C 0.95882 0.28973 0.86915 0.0
N1056 N 0.02843 0.14377 0.86043 0.0
N1057 N 0.85718 0.3134 0.87749 0.0
H1058 H 0.01754 0.36234 0.86839 0.0
H1059 H 0.94388 0.38239 0.86917 0.0
H1060 H 0.8121 0.30453 0.87781 0.0
H1061 H 0.8678 0.35386 0.8844 0.0
H1062 H 0.01953 0.09885 0.85968 0.0
H1063 H 0.07334 0.15333 0.86144 0.0
H1064 H 0.93565 0.08533 0.84763 0.0
H1065 H 0.86276 0.10506 0.85277 0.0
C1066 C 0.84251 0.92596 0.35745 0.0
C1067 C 0.80195 0.88401 0.36571 0.0
C1068 C 0.73712 0.96411 0.37773 0.0
C1069 C 0.77456 0.00596 0.36753 0.0
N1070 N 0.85982 0.02684 0.34585 0.0
N1071 N 0.70544 0.86253 0.37993 0.0
C1072 C 0.82645 0.98688 0.35683 0.0
C1073 C 0.74802 0.90292 0.37495 0.0
N1074 N 0.89688 0.90763 0.35067 0.0
N1075 N 0.69075 0.98256 0.39011 0.0
H1076 H 0.71094 0.81725 0.37786 0.0
H1077 H 0.66251 0.87405 0.38419 0.0
H1078 H 0.67832 0.02646 0.39178 0.0
H1079 H 0.66731 0.95452 0.40022 0.0
H1080 H 0.93067 0.93633 0.34643 0.0
H1081 H 0.90988 0.8635 0.35087 0.0
H1082 H 0.89447 0.01513 0.3357 0.0
H1083 H 0.85054 0.07192 0.34593 0.0
C1084 C 0.01767 0.82362 0.87327 0.0
C1085 C 0.99668 0.77832 0.85938 0.0
C1086 C 0.09911 0.74705 0.85261 0.0
C1087 C 0.12 0.79548 0.86473 0.0
N1088 N 0.10036 0.88429 0.88475 0.0
N1089 N 0.0197 0.70291 0.83265 0.0
C1090 C 0.07959 0.83504 0.8746 0.0
C1091 C 0.03802 0.74227 0.84795 0.0
N1092 N 0.9784 0.85533 0.88533 0.0
N1093 N 0.13754 0.70367 0.84634 0.0
H1094 H 0.97603 0.69442 0.82887 0.0
H1095 H 0.04859 0.68166 0.82213 0.0
H1096 H 0.1826 0.70497 0.84967 0.0
H1097 H 0.12407 0.6634 0.83995 0.0
H1098 H 0.99084 0.88393 0.89764 0.0
H1099 H 0.93284 0.85082 0.88366 0.0
H1100 H 0.07334 0.91825 0.89027 0.0
H1101 H 0.14528 0.89297 0.88644 0.0
C1102 C 0.26977 0.09913 0.37222 0.0
C1103 C 0.21852 0.12054 0.36188 0.0
C1104 C 0.19249 0.01894 0.35145 0.0
C1105 C 0.24041 0.99728 0.36386 0.0
N1106 N 0.317 0.01805 0.39021 0.0
N1107 N 0.12627 0.10087 0.344 0.0
C1108 C 0.27651 0.03768 0.37557 0.0
C1109 C 0.17843 0.08043 0.35211 0.0
N1110 N 0.31361 0.13729 0.37805 0.0
N1111 N 0.16075 0.9809 0.33895 0.0
H1112 H 0.11475 0.14541 0.3442 0.0
H1113 H 0.0926 0.07342 0.33862 0.0
H1114 H 0.16817 0.93548 0.33897 0.0
H1115 H 0.12957 0.99462 0.32771 0.0
H1116 H 0.35513 0.12333 0.38315 0.0
H1117 H 0.311 0.18268 0.37561 0.0
H1118 H 0.33971 0.04609 0.4006 0.0
H1119 H 0.32365 0.97399 0.39389 0.0
C1120 C 0.51715 0.67139 0.86774 0.0
C1121 C 0.49418 0.71499 0.85352 0.0
C1122 C 0.59474 0.74638 0.84524 0.0
C1123 C 0.61851 0.70144 0.85845 0.0
N1124 N 0.60158 0.61145 0.87812 0.0
N1125 N 0.51589 0.76946 0.82084 0.0
C1126 C 0.57949 0.66097 0.86857 0.0
C1127 C 0.53425 0.74485 0.83974 0.0
N1128 N 0.4794 0.63924 0.88011 0.0
N1129 N 0.62933 0.79165 0.83824 0.0
H1130 H 0.4747 0.76084 0.81414 0.0
H1131 H 0.54499 0.78931 0.81009 0.0
H1132 H 0.67332 0.79634 0.84283 0.0
H1133 H 0.61216 0.82781 0.82997 0.0
H1134 H 0.49324 0.61261 0.8928 0.0
H1135 H 0.43382 0.64031 0.87781 0.0
H1136 H 0.57519 0.57764 0.88402 0.0
H1137 H 0.64649 0.60164 0.87844 0.0
C1138 C 0.23789 0.54288 0.37254 0.0
C1139 C 0.28075 0.4994 0.36689 0.0
C1140 C 0.3537 0.57805 0.36139 0.0
C1141 C 0.30903 0.62104 0.36496 0.0
N1142 N 0.20577 0.64405 0.36885 0.0
N1143 N 0.37775 0.47547 0.35379 0.0
C1144 C 0.2504 0.60335 0.36916 0.0
C1145 C 0.33823 0.51701 0.36062 0.0
N1146 N 0.18488 0.52694 0.38121 0.0
N1147 N 0.411 0.59555 0.35927 0.0
H1148 H 0.36859 0.43042 0.35406 0.0
H1149 H 0.41811 0.48569 0.34676 0.0
H1150 H 0.42356 0.63975 0.35957 0.0
H1151 H 0.44648 0.56639 0.35877 0.0
H1152 H 0.15563 0.5571 0.38805 0.0
H1153 H 0.17144 0.48361 0.38319 0.0
H1154 H 0.16128 0.63271 0.36912 0.0
H1155 H 0.21262 0.68882 0.36608 0.0
C1156 C 0.48596 0.33023 0.855 0.0
C1157 C 0.51145 0.29451 0.87136 0.0
C1158 C 0.41304 0.27341 0.88552 0.0
C1159 C 0.38678 0.30815 0.86919 0.0
N1160 N 0.39971 0.38438 0.84258 0.0
N1161 N 0.49788 0.26472 0.90851 0.0
C1162 C 0.42371 0.34114 0.85512 0.0
C1163 C 0.47474 0.27632 0.88868 0.0
N1164 N 0.52128 0.35472 0.83967 0.0
N1165 N 0.37985 0.23586 0.89763 0.0
H1166 H 0.54106 0.27568 0.91254 0.0
H1167 H 0.47174 0.25407 0.92175 0.0
H1168 H 0.33477 0.22987 0.89521 0.0
H1169 H 0.39864 0.20619 0.90847 0.0
H1170 H 0.50517 0.37413 0.82566 0.0
H1171 H 0.56712 0.35522 0.84108 0.0
H1172 H 0.42467 0.41333 0.83335 0.0
H1173 H 0.35497 0.39502 0.84295 0.0
C1174 C 0.76214 0.40854 0.34812 0.0
C1175 C 0.71426 0.38679 0.36028 0.0
C1176 C 0.68728 0.48806 0.37065 0.0
C1177 C 0.73263 0.51006 0.35714 0.0
N1178 N 0.80636 0.49025 0.32956 0.0
N1179 N 0.62524 0.40508 0.38039 0.0
C1180 C 0.76745 0.47007 0.34465 0.0
C1181 C 0.67499 0.42636 0.37078 0.0
N1182 N 0.80487 0.37062 0.3409 0.0
N1183 N 0.65662 0.52608 0.38358 0.0
H1184 H 0.61508 0.36028 0.38081 0.0
H1185 H 0.59183 0.43193 0.38646 0.0
H1186 H 0.66219 0.57169 0.38292 0.0
H1187 H 0.62801 0.51235 0.39567 0.0
H1188 H 0.84489 0.38461 0.33449 0.0
H1189 H 0.80329 0.32517 0.34328 0.0
H1190 H 0.82677 0.46282 0.31833 0.0
H1191 H 0.81504 0.5344 0.32674 0.0
C1192 C 0.03763 0.83537 0.12074 0.0
C1193 C 0.01284 0.79033 0.13368 0.0
C1194 C 0.1122 0.75293 0.14152 0.0
C1195 C 0.13734 0.8014 0.13063 0.0
N1196 N 0.1238 0.89513 0.113 0.0
N1197 N 0.02884 0.71568 0.16103 0.0
C1198 C 0.1 0.8446 0.12109 0.0
C1199 C 0.05083 0.75245 0.14564 0.0
N1200 N 1.00177 0.8689 0.10803 0.0
N1201 N 0.14643 0.70563 0.14708 0.0
H1202 H 0.98462 0.71407 0.16515 0.0
H1203 H 0.05551 0.69161 0.1715 0.0
H1204 H 0.19112 0.70254 0.14328 0.0
H1205 H 0.1292 0.66667 0.15328 0.0
H1206 H 0.01765 0.89803 0.09647 0.0
H1207 H 0.95593 0.86493 0.10825 0.0
H1208 H 0.09846 0.93061 0.10771 0.0
H1209 H 0.16897 0.90358 0.11324 0.0
C1210 C 0.14954 0.06963 0.62512 0.0
C1211 C 0.19174 0.11397 0.62988 0.0
C1212 C 0.26596 0.03815 0.63767 0.0
C1213 C 0.22467 0.99357 0.6319 0.0
N1214 N 0.13036 0.96622 0.6173 0.0
N1215 N 0.29252 0.1416 0.63672 0.0
C1216 C 0.16734 0.00916 0.62473 0.0
C1217 C 0.25059 0.0985 0.6351 0.0
N1218 N 0.09215 0.08535 0.62155 0.0
N1219 N 0.32011 0.02288 0.64569 0.0
H1220 H 0.28316 0.18634 0.63494 0.0
H1221 H 0.33752 0.13312 0.63794 0.0
H1222 H 0.33535 0.97964 0.64651 0.0
H1223 H 0.3489 0.05272 0.65286 0.0
H1224 H 0.05781 0.05521 0.62024 0.0
H1225 H 0.0781 0.12916 0.62124 0.0
H1226 H 0.09038 0.97484 0.60969 0.0
H1227 H 0.14148 0.92156 0.61757 0.0
C1228 C 0.90902 0.27327 0.12206 0.0
C1229 C 0.89237 0.21706 0.12981 0.0
C1230 C 0.99694 0.18965 0.1341 0.0
C1231 C 0.01337 0.24744 0.12792 0.0
N1232 N 0.98456 0.34736 0.11893 0.0
N1233 N 0.9186 0.12226 0.14442 0.0
C1234 C 0.96932 0.28986 0.12243 0.0
C1235 C 0.93587 0.17531 0.13616 0.0
N1236 N 0.86704 0.31124 0.11436 0.0
N1237 N 0.03988 0.14826 0.13739 0.0
H1238 H 0.87456 0.10934 0.14522 0.0
H1239 H 0.94726 0.09219 0.15153 0.0
H1240 H 0.08469 0.15777 0.13592 0.0
H1241 H 0.03155 0.10378 0.14001 0.0
H1242 H 0.87684 0.34876 0.10545 0.0
H1243 H 0.82188 0.30374 0.11566 0.0
H1244 H 0.95427 0.38178 0.11793 0.0
H1245 H 0.02774 0.36235 0.11881 0.0
C1246 C 0.74836 0.97195 0.60952 0.0
C1247 C 0.76956 0.00811 0.62657 0.0
C1248 C 0.81697 0.91915 0.64165 0.0
C1249 C 0.78114 0.88306 0.62815 0.0
N1250 N 0.70439 0.87813 0.60117 0.0
N1251 N 0.8354 0.01621 0.65693 0.0
C1252 C 0.74441 0.91035 0.61264 0.0
C1253 C 0.80736 0.98168 0.64214 0.0
N1254 N 0.7349 0.99559 0.58995 0.0
N1255 N 0.86192 0.8942 0.65313 0.0
H1256 H 0.8378 0.0619 0.65538 0.0
H1257 H 0.85639 0.9995 0.67054 0.0
H1258 H 0.87183 0.84936 0.65231 0.0
H1259 H 0.89278 0.91845 0.66181 0.0
H1260 H 0.72219 0.96992 0.5768 0.0
H1261 H 0.74573 0.03885 0.586 0.0
H1262 H 0.67482 0.89727 0.59041 0.0
H1263 H 0.69677 0.8335 0.60397 0.0
loop_
_geom_bond_atom_site_label_1
_geom_bond_atom_site_label_2
_geom_bond_distance
_geom_bond_site_symmetry_2
_ccdc_geom_bond_type
Co0 O3 1.970 . S
Co0 N17 1.989 . S
Co0 O25 1.967 . S
Co0 O32 1.920 . S
Co1 O4 1.966 . S
Co1 N10 2.022 . S
Co1 N18 1.993 . S
Co1 O26 1.941 . S
C2 O3 1.258 . S
C2 O4 1.263 . S
O3 Co0 1.970 . S
O3 C2 1.258 . S
O4 Co1 1.966 . S
O4 C2 1.263 . S
C5 O6 1.235 . S
C5 O32 1.289 . S
O6 C5 1.235 . S
C7 C9 1.400 . S
C7 N10 1.351 . S
C7 C12 1.501 . S
C8 C9 1.387 . S
C8 N11 1.341 . S
C9 C7 1.400 . S
C9 C8 1.387 . S
N10 Co1 2.022 . S
N10 C7 1.351 . S
N10 N11 1.365 . S
N11 C8 1.341 . S
N11 N10 1.365 . S
N11 H31 0.862 . S
C12 C7 1.501 . S
C12 H13 0.961 . S
C12 H14 0.961 . S
C12 H15 0.960 . S
H13 C12 0.961 . S
H14 C12 0.961 . S
H15 C12 0.960 . S
C16 N17 1.342 . S
C16 C20 1.401 . S
C16 C21 1.499 . S
N17 Co0 1.989 . S
N17 C16 1.342 . S
N17 N18 1.388 . S
N18 Co1 1.993 . S
N18 N17 1.388 . S
N18 C19 1.346 . S
C19 N18 1.346 . S
C19 C20 1.396 . S
C19 C29 1.510 . S
C20 C16 1.401 . S
C20 C19 1.396 . S
C21 C16 1.499 . S
C21 H22 0.959 . S
C21 H23 0.960 . S
C21 H24 0.961 . S
H22 C21 0.959 . S
H23 C21 0.960 . S
H24 C21 0.961 . S
O25 Co0 1.967 . S
O25 C33 1.258 . S
O26 Co1 1.941 . S
O26 C33 1.266 . S
H27 C29 0.959 . S
H28 C29 0.961 . S
C29 C19 1.510 . S
C29 H27 0.959 . S
C29 H28 0.961 . S
C29 H30 0.960 . S
H30 C29 0.960 . S
H31 N11 0.862 . S
O32 Co0 1.920 . S
O32 C5 1.289 . S
C33 O25 1.258 . S
C33 O26 1.266 . S
Co34 O37 1.970 . S
Co34 N51 1.989 . S
Co34 O59 1.967 . S
Co34 O66 1.920 . S
Co35 O38 1.966 . S
Co35 N44 2.022 . S
Co35 N52 1.993 . S
Co35 O60 1.941 . S
C36 O37 1.258 . S
C36 O38 1.263 . S
O37 Co34 1.970 . S
O37 C36 1.258 . S
O38 Co35 1.966 . S
O38 C36 1.263 . S
C39 O40 1.235 . S
C39 O66 1.289 . S
O40 C39 1.235 . S
C41 C43 1.400 . S
C41 N44 1.351 . S
C41 C46 1.501 . S
C42 C43 1.387 . S
C42 N45 1.341 . S
C43 C41 1.400 . S
C43 C42 1.387 . S
N44 Co35 2.022 . S
N44 C41 1.351 . S
N44 N45 1.365 . S
N45 C42 1.341 . S
N45 N44 1.365 . S
N45 H65 0.862 . S
C46 C41 1.501 . S
C46 H47 0.961 . S
C46 H48 0.961 . S
C46 H49 0.960 . S
H47 C46 0.961 . S
H48 C46 0.961 . S
H49 C46 0.960 . S
C50 N51 1.342 . S
C50 C54 1.401 . S
C50 C55 1.499 . S
N51 Co34 1.989 . S
N51 C50 1.342 . S
N51 N52 1.388 . S
N52 Co35 1.993 . S
N52 N51 1.388 . S
N52 C53 1.346 . S
C53 N52 1.346 . S
C53 C54 1.396 . S
C53 C63 1.510 . S
C54 C50 1.401 . S
C54 C53 1.396 . S
C55 C50 1.499 . S
C55 H56 0.959 . S
C55 H57 0.960 . S
C55 H58 0.961 . S
H56 C55 0.959 . S
H57 C55 0.960 . S
H58 C55 0.961 . S
O59 Co34 1.967 . S
O59 C67 1.258 . S
O60 Co35 1.941 . S
O60 C67 1.266 . S
H61 C63 0.959 . S
H62 C63 0.961 . S
C63 C53 1.510 . S
C63 H61 0.959 . S
C63 H62 0.961 . S
C63 H64 0.960 . S
H64 C63 0.960 . S
H65 N45 0.862 . S
O66 Co34 1.920 . S
O66 C39 1.289 . S
C67 O59 1.258 . S
C67 O60 1.266 . S
Co68 O71 1.970 . S
Co68 N85 1.989 . S
Co68 O93 1.967 . S
Co68 O100 1.920 . S
Co69 O72 1.966 . S
Co69 N78 2.022 . S
Co69 N86 1.993 . S
Co69 O94 1.941 . S
C70 O71 1.258 . S
C70 O72 1.263 . S
O71 Co68 1.970 . S
O71 C70 1.258 . S
O72 Co69 1.966 . S
O72 C70 1.263 . S
C73 O74 1.235 . S
C73 O100 1.289 . S
O74 C73 1.235 . S
C75 C77 1.400 . S
C75 N78 1.351 . S
C75 C80 1.501 . S
C76 C77 1.387 . S
C76 N79 1.341 . S
C77 C75 1.400 . S
C77 C76 1.387 . S
N78 Co69 2.022 . S
N78 C75 1.351 . S
N78 N79 1.365 . S
N79 C76 1.341 . S
N79 N78 1.365 . S
N79 H99 0.862 . S
C80 C75 1.501 . S
C80 H81 0.961 . S
C80 H82 0.961 . S
C80 H83 0.960 . S
H81 C80 0.961 . S
H82 C80 0.961 . S
H83 C80 0.960 . S
C84 N85 1.342 . S
C84 C88 1.401 . S
C84 C89 1.499 . S
N85 Co68 1.989 . S
N85 C84 1.342 . S
N85 N86 1.388 . S
N86 Co69 1.993 . S
N86 N85 1.388 . S
N86 C87 1.346 . S
C87 N86 1.346 . S
C87 C88 1.396 . S
C87 C97 1.510 . S
C88 C84 1.401 . S
C88 C87 1.396 . S
C89 C84 1.499 . S
C89 H90 0.959 . S
C89 H91 0.960 . S
C89 H92 0.961 . S
H90 C89 0.959 . S
H91 C89 0.960 . S
H92 C89 0.961 . S
O93 Co68 1.967 . S
O93 C101 1.258 . S
O94 Co69 1.941 . S
O94 C101 1.266 . S
H95 C97 0.959 . S
H96 C97 0.961 . S
C97 C87 1.510 . S
C97 H95 0.959 . S
C97 H96 0.961 . S
C97 H98 0.960 . S
H98 C97 0.960 . S
H99 N79 0.862 . S
O100 Co68 1.920 . S
O100 C73 1.289 . S
C101 O93 1.258 . S
C101 O94 1.266 . S
Co102 O105 1.970 . S
Co102 N119 1.989 . S
Co102 O127 1.967 . S
Co102 O134 1.920 . S
Co103 O106 1.966 . S
Co103 N112 2.022 . S
Co103 N120 1.993 . S
Co103 O128 1.941 . S
C104 O105 1.258 . S
C104 O106 1.263 . S
O105 Co102 1.970 . S
O105 C104 1.258 . S
O106 Co103 1.966 . S
O106 C104 1.263 . S
C107 O108 1.235 . S
C107 O134 1.289 . S
O108 C107 1.235 . S
C109 C111 1.400 . S
C109 N112 1.351 . S
C109 C114 1.501 . S
C110 C111 1.387 . S
C110 N113 1.341 . S
C111 C109 1.400 . S
C111 C110 1.387 . S
N112 Co103 2.022 . S
N112 C109 1.351 . S
N112 N113 1.365 . S
N113 C110 1.341 . S
N113 N112 1.365 . S
N113 H133 0.862 . S
C114 C109 1.501 . S
C114 H115 0.961 . S
C114 H116 0.961 . S
C114 H117 0.960 . S
H115 C114 0.961 . S
H116 C114 0.961 . S
H117 C114 0.960 . S
C118 N119 1.342 . S
C118 C122 1.401 . S
C118 C123 1.499 . S
N119 Co102 1.989 . S
N119 C118 1.342 . S
N119 N120 1.388 . S
N120 Co103 1.993 . S
N120 N119 1.388 . S
N120 C121 1.346 . S
C121 N120 1.346 . S
C121 C122 1.396 . S
C121 C131 1.510 . S
C122 C118 1.401 . S
C122 C121 1.396 . S
C123 C118 1.499 . S
C123 H124 0.959 . S
C123 H125 0.960 . S
C123 H126 0.961 . S
H124 C123 0.959 . S
H125 C123 0.960 . S
H126 C123 0.961 . S
O127 Co102 1.967 . S
O127 C135 1.258 . S
O128 Co103 1.941 . S
O128 C135 1.266 . S
H129 C131 0.959 . S
H130 C131 0.961 . S
C131 C121 1.510 . S
C131 H129 0.959 . S
C131 H130 0.961 . S
C131 H132 0.960 . S
H132 C131 0.960 . S
H133 N113 0.862 . S
O134 Co102 1.920 . S
O134 C107 1.289 . S
C135 O127 1.258 . S
C135 O128 1.266 . S
Co136 O139 1.970 . S
Co136 N153 1.989 . S
Co136 O161 1.967 . S
Co136 O168 1.920 . S
Co137 O140 1.966 . S
Co137 N146 2.022 . S
Co137 N154 1.993 . S
Co137 O162 1.941 . S
C138 O139 1.258 . S
C138 O140 1.263 . S
O139 Co136 1.970 . S
O139 C138 1.258 . S
O140 Co137 1.966 . S
O140 C138 1.263 . S
C141 O142 1.235 . S
C141 O168 1.289 . S
O142 C141 1.235 . S
C143 C145 1.400 . S
C143 N146 1.351 . S
C143 C148 1.501 . S
C144 C145 1.387 . S
C144 N147 1.341 . S
C145 C143 1.400 . S
C145 C144 1.387 . S
N146 Co137 2.022 . S
N146 C143 1.351 . S
N146 N147 1.365 . S
N147 C144 1.341 . S
N147 N146 1.365 . S
N147 H167 0.862 . S
C148 C143 1.501 . S
C148 H149 0.961 . S
C148 H150 0.961 . S
C148 H151 0.960 . S
H149 C148 0.961 . S
H150 C148 0.961 . S
H151 C148 0.960 . S
C152 N153 1.342 . S
C152 C156 1.401 . S
C152 C157 1.499 . S
N153 Co136 1.989 . S
N153 C152 1.342 . S
N153 N154 1.388 . S
N154 Co137 1.993 . S
N154 N153 1.388 . S
N154 C155 1.346 . S
C155 N154 1.346 . S
C155 C156 1.396 . S
C155 C165 1.510 . S
C156 C152 1.401 . S
C156 C155 1.396 . S
C157 C152 1.499 . S
C157 H158 0.959 . S
C157 H159 0.960 . S
C157 H160 0.961 . S
H158 C157 0.959 . S
H159 C157 0.960 . S
H160 C157 0.961 . S
O161 Co136 1.967 . S
O161 C169 1.258 . S
O162 Co137 1.941 . S
O162 C169 1.266 . S
H163 C165 0.959 . S
H164 C165 0.961 . S
C165 C155 1.510 . S
C165 H163 0.959 . S
C165 H164 0.961 . S
C165 H166 0.960 . S
H166 C165 0.960 . S
H167 N147 0.862 . S
O168 Co136 1.920 . S
O168 C141 1.289 . S
C169 O161 1.258 . S
C169 O162 1.266 . S
Co170 O173 1.970 . S
Co170 N187 1.989 . S
Co170 O195 1.967 . S
Co170 O202 1.920 . S
Co171 O174 1.966 . S
Co171 N180 2.022 . S
Co171 N188 1.993 . S
Co171 O196 1.941 . S
C172 O173 1.258 . S
C172 O174 1.263 . S
O173 Co170 1.970 . S
O173 C172 1.258 . S
O174 Co171 1.966 . S
O174 C172 1.263 . S
C175 O176 1.235 . S
C175 O202 1.289 . S
O176 C175 1.235 . S
C177 C179 1.400 . S
C177 N180 1.351 . S
C177 C182 1.501 . S
C178 C179 1.387 . S
C178 N181 1.341 . S
C179 C177 1.400 . S
C179 C178 1.387 . S
N180 Co171 2.022 . S
N180 C177 1.351 . S
N180 N181 1.365 . S
N181 C178 1.341 . S
N181 N180 1.365 . S
N181 H201 0.862 . S
C182 C177 1.501 . S
C182 H183 0.961 . S
C182 H184 0.961 . S
C182 H185 0.960 . S
H183 C182 0.961 . S
H184 C182 0.961 . S
H185 C182 0.960 . S
C186 N187 1.342 . S
C186 C190 1.401 . S
C186 C191 1.499 . S
N187 Co170 1.989 . S
N187 C186 1.342 . S
N187 N188 1.388 . S
N188 Co171 1.993 . S
N188 N187 1.388 . S
N188 C189 1.346 . S
C189 N188 1.346 . S
C189 C190 1.396 . S
C189 C199 1.510 . S
C190 C186 1.401 . S
C190 C189 1.396 . S
C191 C186 1.499 . S
C191 H192 0.959 . S
C191 H193 0.960 . S
C191 H194 0.961 . S
H192 C191 0.959 . S
H193 C191 0.960 . S
H194 C191 0.961 . S
O195 Co170 1.967 . S
O195 C203 1.258 . S
O196 Co171 1.941 . S
O196 C203 1.266 . S
H197 C199 0.959 . S
H198 C199 0.961 . S
C199 C189 1.510 . S
C199 H197 0.959 . S
C199 H198 0.961 . S
C199 H200 0.960 . S
H200 C199 0.960 . S
H201 N181 0.862 . S
O202 Co170 1.920 . S
O202 C175 1.289 . S
C203 O195 1.258 . S
C203 O196 1.266 . S
Co204 O207 1.970 . S
Co204 N221 1.989 . S
Co204 O229 1.967 . S
Co204 O236 1.920 . S
Co205 O208 1.966 . S
Co205 N214 2.022 . S
Co205 N222 1.993 . S
Co205 O230 1.941 . S
C206 O207 1.258 . S
C206 O208 1.263 . S
O207 Co204 1.970 . S
O207 C206 1.258 . S
O208 Co205 1.966 . S
O208 C206 1.263 . S
C209 O210 1.235 . S
C209 O236 1.289 . S
O210 C209 1.235 . S
C211 C213 1.400 . S
C211 N214 1.351 . S
C211 C216 1.501 . S
C212 C213 1.387 . S
C212 N215 1.341 . S
C213 C211 1.400 . S
C213 C212 1.387 . S
N214 Co205 2.022 . S
N214 C211 1.351 . S
N214 N215 1.365 . S
N215 C212 1.341 . S
N215 N214 1.365 . S
N215 H235 0.862 . S
C216 C211 1.501 . S
C216 H217 0.961 . S
C216 H218 0.961 . S
C216 H219 0.960 . S
H217 C216 0.961 . S
H218 C216 0.961 . S
H219 C216 0.960 . S
C220 N221 1.342 . S
C220 C224 1.401 . S
C220 C225 1.499 . S
N221 Co204 1.989 . S
N221 C220 1.342 . S
N221 N222 1.388 . S
N222 Co205 1.993 . S
N222 N221 1.388 . S
N222 C223 1.346 . S
C223 N222 1.346 . S
C223 C224 1.396 . S
C223 C233 1.510 . S
C224 C220 1.401 . S
C224 C223 1.396 . S
C225 C220 1.499 . S
C225 H226 0.959 . S
C225 H227 0.960 . S
C225 H228 0.961 . S
H226 C225 0.959 . S
H227 C225 0.960 . S
H228 C225 0.961 . S
O229 Co204 1.967 . S
O229 C237 1.258 . S
O230 Co205 1.941 . S
O230 C237 1.266 . S
H231 C233 0.959 . S
H232 C233 0.961 . S
C233 C223 1.510 . S
C233 H231 0.959 . S
C233 H232 0.961 . S
C233 H234 0.960 . S
H234 C233 0.960 . S
H235 N215 0.862 . S
O236 Co204 1.920 . S
O236 C209 1.289 . S
C237 O229 1.258 . S
C237 O230 1.266 . S
Co238 O241 1.970 . S
Co238 N255 1.989 . S
Co238 O263 1.967 . S
Co238 O270 1.920 . S
Co239 O242 1.966 . S
Co239 N248 2.022 . S
Co239 N256 1.993 . S
Co239 O264 1.941 . S
C240 O241 1.258 . S
C240 O242 1.263 . S
O241 Co238 1.970 . S
O241 C240 1.258 . S
O242 Co239 1.966 . S
O242 C240 1.263 . S
C243 O244 1.235 . S
C243 O270 1.289 . S
O244 C243 1.235 . S
C245 C247 1.400 . S
C245 N248 1.351 . S
C245 C250 1.501 . S
C246 C247 1.387 . S
C246 N249 1.341 . S
C247 C245 1.400 . S
C247 C246 1.387 . S
N248 Co239 2.022 . S
N248 C245 1.351 . S
N248 N249 1.365 . S
N249 C246 1.341 . S
N249 N248 1.365 . S
N249 H269 0.862 . S
C250 C245 1.501 . S
C250 H251 0.961 . S
C250 H252 0.961 . S
C250 H253 0.960 . S
H251 C250 0.961 . S
H252 C250 0.961 . S
H253 C250 0.960 . S
C254 N255 1.342 . S
C254 C258 1.401 . S
C254 C259 1.499 . S
N255 Co238 1.989 . S
N255 C254 1.342 . S
N255 N256 1.388 . S
N256 Co239 1.993 . S
N256 N255 1.388 . S
N256 C257 1.346 . S
C257 N256 1.346 . S
C257 C258 1.396 . S
C257 C267 1.510 . S
C258 C254 1.401 . S
C258 C257 1.396 . S
C259 C254 1.499 . S
C259 H260 0.959 . S
C259 H261 0.960 . S
C259 H262 0.961 . S
H260 C259 0.959 . S
H261 C259 0.960 . S
H262 C259 0.961 . S
O263 Co238 1.967 . S
O263 C271 1.258 . S
O264 Co239 1.941 . S
O264 C271 1.266 . S
H265 C267 0.959 . S
H266 C267 0.961 . S
C267 C257 1.510 . S
C267 H265 0.959 . S
C267 H266 0.961 . S
C267 H268 0.960 . S
H268 C267 0.960 . S
H269 N249 0.862 . S
O270 Co238 1.920 . S
O270 C243 1.289 . S
C271 O263 1.258 . S
C271 O264 1.266 . S
Co272 O275 1.970 . S
Co272 N289 1.989 . S
Co272 O297 1.967 . S
Co272 O304 1.920 . S
Co273 O276 1.966 . S
Co273 N282 2.022 . S
Co273 N290 1.993 . S
Co273 O298 1.941 . S
C274 O275 1.258 . S
C274 O276 1.263 . S
O275 Co272 1.970 . S
O275 C274 1.258 . S
O276 Co273 1.966 . S
O276 C274 1.263 . S
C277 O278 1.235 . S
C277 O304 1.289 . S
O278 C277 1.235 . S
C279 C281 1.400 . S
C279 N282 1.351 . S
C279 C284 1.501 . S
C280 C281 1.387 . S
C280 N283 1.341 . S
C281 C279 1.400 . S
C281 C280 1.387 . S
N282 Co273 2.022 . S
N282 C279 1.351 . S
N282 N283 1.365 . S
N283 C280 1.341 . S
N283 N282 1.365 . S
N283 H303 0.862 . S
C284 C279 1.501 . S
C284 H285 0.961 . S
C284 H286 0.961 . S
C284 H287 0.960 . S
H285 C284 0.961 . S
H286 C284 0.961 . S
H287 C284 0.960 . S
C288 N289 1.342 . S
C288 C292 1.401 . S
C288 C293 1.499 . S
N289 Co272 1.989 . S
N289 C288 1.342 . S
N289 N290 1.388 . S
N290 Co273 1.993 . S
N290 N289 1.388 . S
N290 C291 1.346 . S
C291 N290 1.346 . S
C291 C292 1.396 . S
C291 C301 1.510 . S
C292 C288 1.401 . S
C292 C291 1.396 . S
C293 C288 1.499 . S
C293 H294 0.959 . S
C293 H295 0.960 . S
C293 H296 0.961 . S
H294 C293 0.959 . S
H295 C293 0.960 . S
H296 C293 0.961 . S
O297 Co272 1.967 . S
O297 C305 1.258 . S
O298 Co273 1.941 . S
O298 C305 1.266 . S
H299 C301 0.959 . S
H300 C301 0.961 . S
C301 C291 1.510 . S
C301 H299 0.959 . S
C301 H300 0.961 . S
C301 H302 0.960 . S
H302 C301 0.960 . S
H303 N283 0.862 . S
O304 Co272 1.920 . S
O304 C277 1.289 . S
C305 O297 1.258 . S
C305 O298 1.266 . S
Co306 O309 1.970 . S
Co306 N323 1.989 . S
Co306 O331 1.967 . S
Co306 O338 1.920 . S
Co307 O310 1.966 . S
Co307 N316 2.022 . S
Co307 N324 1.993 . S
Co307 O332 1.941 . S
C308 O309 1.258 . S
C308 O310 1.263 . S
O309 Co306 1.970 . S
O309 C308 1.258 . S
O310 Co307 1.966 . S
O310 C308 1.263 . S
C311 O312 1.235 . S
C311 O338 1.289 . S
O312 C311 1.235 . S
C313 C315 1.400 . S
C313 N316 1.351 . S
C313 C318 1.501 . S
C314 C315 1.387 . S
C314 N317 1.341 . S
C315 C313 1.400 . S
C315 C314 1.387 . S
N316 Co307 2.022 . S
N316 C313 1.351 . S
N316 N317 1.365 . S
N317 C314 1.341 . S
N317 N316 1.365 . S
N317 H337 0.862 . S
C318 C313 1.501 . S
C318 H319 0.961 . S
C318 H320 0.961 . S
C318 H321 0.960 . S
H319 C318 0.961 . S
H320 C318 0.961 . S
H321 C318 0.960 . S
C322 N323 1.342 . S
C322 C326 1.401 . S
C322 C327 1.499 . S
N323 Co306 1.989 . S
N323 C322 1.342 . S
N323 N324 1.388 . S
N324 Co307 1.993 . S
N324 N323 1.388 . S
N324 C325 1.346 . S
C325 N324 1.346 . S
C325 C326 1.396 . S
C325 C335 1.510 . S
C326 C322 1.401 . S
C326 C325 1.396 . S
C327 C322 1.499 . S
C327 H328 0.959 . S
C327 H329 0.960 . S
C327 H330 0.961 . S
H328 C327 0.959 . S
H329 C327 0.960 . S
H330 C327 0.961 . S
O331 Co306 1.967 . S
O331 C339 1.258 . S
O332 Co307 1.941 . S
O332 C339 1.266 . S
H333 C335 0.959 . S
H334 C335 0.961 . S
C335 C325 1.510 . S
C335 H333 0.959 . S
C335 H334 0.961 . S
C335 H336 0.960 . S
H336 C335 0.960 . S
H337 N317 0.862 . S
O338 Co306 1.920 . S
O338 C311 1.289 . S
C339 O331 1.258 . S
C339 O332 1.266 . S
Co340 O343 1.970 . S
Co340 N357 1.989 . S
Co340 O365 1.967 . S
Co340 O372 1.920 . S
Co341 O344 1.966 . S
Co341 N350 2.022 . S
Co341 N358 1.993 . S
Co341 O366 1.941 . S
C342 O343 1.258 . S
C342 O344 1.263 . S
O343 Co340 1.970 . S
O343 C342 1.258 . S
O344 Co341 1.966 . S
O344 C342 1.263 . S
C345 O346 1.235 . S
C345 O372 1.289 . S
O346 C345 1.235 . S
C347 C349 1.400 . S
C347 N350 1.351 . S
C347 C352 1.501 . S
C348 C349 1.387 . S
C348 N351 1.341 . S
C349 C347 1.400 . S
C349 C348 1.387 . S
N350 Co341 2.022 . S
N350 C347 1.351 . S
N350 N351 1.365 . S
N351 C348 1.341 . S
N351 N350 1.365 . S
N351 H371 0.862 . S
C352 C347 1.501 . S
C352 H353 0.961 . S
C352 H354 0.961 . S
C352 H355 0.960 . S
H353 C352 0.961 . S
H354 C352 0.961 . S
H355 C352 0.960 . S
C356 N357 1.342 . S
C356 C360 1.401 . S
C356 C361 1.499 . S
N357 Co340 1.989 . S
N357 C356 1.342 . S
N357 N358 1.388 . S
N358 Co341 1.993 . S
N358 N357 1.388 . S
N358 C359 1.346 . S
C359 N358 1.346 . S
C359 C360 1.396 . S
C359 C369 1.510 . S
C360 C356 1.401 . S
C360 C359 1.396 . S
C361 C356 1.499 . S
C361 H362 0.959 . S
C361 H363 0.960 . S
C361 H364 0.961 . S
H362 C361 0.959 . S
H363 C361 0.960 . S
H364 C361 0.961 . S
O365 Co340 1.967 . S
O365 C373 1.258 . S
O366 Co341 1.941 . S
O366 C373 1.266 . S
H367 C369 0.959 . S
H368 C369 0.961 . S
C369 C359 1.510 . S
C369 H367 0.959 . S
C369 H368 0.961 . S
C369 H370 0.960 . S
H370 C369 0.960 . S
H371 N351 0.862 . S
O372 Co340 1.920 . S
O372 C345 1.289 . S
C373 O365 1.258 . S
C373 O366 1.266 . S
Co374 O377 1.970 . S
Co374 N391 1.989 . S
Co374 O399 1.967 . S
Co374 O406 1.920 . S
Co375 O378 1.966 . S
Co375 N384 2.022 . S
Co375 N392 1.993 . S
Co375 O400 1.941 . S
C376 O377 1.258 . S
C376 O378 1.263 . S
O377 Co374 1.970 . S
O377 C376 1.258 . S
O378 Co375 1.966 . S
O378 C376 1.263 . S
C379 O380 1.235 . S
C379 O406 1.289 . S
O380 C379 1.235 . S
C381 C383 1.400 . S
C381 N384 1.351 . S
C381 C386 1.501 . S
C382 C383 1.387 . S
C382 N385 1.341 . S
C383 C381 1.400 . S
C383 C382 1.387 . S
N384 Co375 2.022 . S
N384 C381 1.351 . S
N384 N385 1.365 . S
N385 C382 1.341 . S
N385 N384 1.365 . S
N385 H405 0.862 . S
C386 C381 1.501 . S
C386 H387 0.961 . S
C386 H388 0.961 . S
C386 H389 0.960 . S
H387 C386 0.961 . S
H388 C386 0.961 . S
H389 C386 0.960 . S
C390 N391 1.342 . S
C390 C394 1.401 . S
C390 C395 1.499 . S
N391 Co374 1.989 . S
N391 C390 1.342 . S
N391 N392 1.388 . S
N392 Co375 1.993 . S
N392 N391 1.388 . S
N392 C393 1.346 . S
C393 N392 1.346 . S
C393 C394 1.396 . S
C393 C403 1.510 . S
C394 C390 1.401 . S
C394 C393 1.396 . S
C395 C390 1.499 . S
C395 H396 0.959 . S
C395 H397 0.960 . S
C395 H398 0.961 . S
H396 C395 0.959 . S
H397 C395 0.960 . S
H398 C395 0.961 . S
O399 Co374 1.967 . S
O399 C407 1.258 . S
O400 Co375 1.941 . S
O400 C407 1.266 . S
H401 C403 0.959 . S
H402 C403 0.961 . S
C403 C393 1.510 . S
C403 H401 0.959 . S
C403 H402 0.961 . S
C403 H404 0.960 . S
H404 C403 0.960 . S
H405 N385 0.862 . S
O406 Co374 1.920 . S
O406 C379 1.289 . S
C407 O399 1.258 . S
C407 O400 1.266 . S
Co408 O411 1.970 . S
Co408 N425 1.989 . S
Co408 O433 1.967 . S
Co408 O440 1.920 . S
Co409 O412 1.966 . S
Co409 N418 2.022 . S
Co409 N426 1.993 . S
Co409 O434 1.941 . S
C410 O411 1.258 . S
C410 O412 1.263 . S
O411 Co408 1.970 . S
O411 C410 1.258 . S
O412 Co409 1.966 . S
O412 C410 1.263 . S
C413 O414 1.235 . S
C413 O440 1.289 . S
O414 C413 1.235 . S
C415 C417 1.400 . S
C415 N418 1.351 . S
C415 C420 1.501 . S
C416 C417 1.387 . S
C416 N419 1.341 . S
C417 C415 1.400 . S
C417 C416 1.387 . S
N418 Co409 2.022 . S
N418 C415 1.351 . S
N418 N419 1.365 . S
N419 C416 1.341 . S
N419 N418 1.365 . S
N419 H439 0.862 . S
C420 C415 1.501 . S
C420 H421 0.961 . S
C420 H422 0.961 . S
C420 H423 0.960 . S
H421 C420 0.961 . S
H422 C420 0.961 . S
H423 C420 0.960 . S
C424 N425 1.342 . S
C424 C428 1.401 . S
C424 C429 1.499 . S
N425 Co408 1.989 . S
N425 C424 1.342 . S
N425 N426 1.388 . S
N426 Co409 1.993 . S
N426 N425 1.388 . S
N426 C427 1.346 . S
C427 N426 1.346 . S
C427 C428 1.396 . S
C427 C437 1.510 . S
C428 C424 1.401 . S
C428 C427 1.396 . S
C429 C424 1.499 . S
C429 H430 0.959 . S
C429 H431 0.960 . S
C429 H432 0.961 . S
H430 C429 0.959 . S
H431 C429 0.960 . S
H432 C429 0.961 . S
O433 Co408 1.967 . S
O433 C441 1.258 . S
O434 Co409 1.941 . S
O434 C441 1.266 . S
H435 C437 0.959 . S
H436 C437 0.961 . S
C437 C427 1.510 . S
C437 H435 0.959 . S
C437 H436 0.961 . S
C437 H438 0.960 . S
H438 C437 0.960 . S
H439 N419 0.862 . S
O440 Co408 1.920 . S
O440 C413 1.289 . S
C441 O433 1.258 . S
C441 O434 1.266 . S
Co442 O445 1.970 . S
Co442 N459 1.989 . S
Co442 O467 1.967 . S
Co442 O474 1.920 . S
Co443 O446 1.966 . S
Co443 N452 2.022 . S
Co443 N460 1.993 . S
Co443 O468 1.941 . S
C444 O445 1.258 . S
C444 O446 1.263 . S
O445 Co442 1.970 . S
O445 C444 1.258 . S
O446 Co443 1.966 . S
O446 C444 1.263 . S
C447 O448 1.235 . S
C447 O474 1.289 . S
O448 C447 1.235 . S
C449 C451 1.400 . S
C449 N452 1.351 . S
C449 C454 1.501 . S
C450 C451 1.387 . S
C450 N453 1.341 . S
C451 C449 1.400 . S
C451 C450 1.387 . S
N452 Co443 2.022 . S
N452 C449 1.351 . S
N452 N453 1.365 . S
N453 C450 1.341 . S
N453 N452 1.365 . S
N453 H473 0.862 . S
C454 C449 1.501 . S
C454 H455 0.961 . S
C454 H456 0.961 . S
C454 H457 0.960 . S
H455 C454 0.961 . S
H456 C454 0.961 . S
H457 C454 0.960 . S
C458 N459 1.342 . S
C458 C462 1.401 . S
C458 C463 1.499 . S
N459 Co442 1.989 . S
N459 C458 1.342 . S
N459 N460 1.388 . S
N460 Co443 1.993 . S
N460 N459 1.388 . S
N460 C461 1.346 . S
C461 N460 1.346 . S
C461 C462 1.396 . S
C461 C471 1.510 . S
C462 C458 1.401 . S
C462 C461 1.396 . S
C463 C458 1.499 . S
C463 H464 0.959 . S
C463 H465 0.960 . S
C463 H466 0.961 . S
H464 C463 0.959 . S
H465 C463 0.960 . S
H466 C463 0.961 . S
O467 Co442 1.967 . S
O467 C475 1.258 . S
O468 Co443 1.941 . S
O468 C475 1.266 . S
H469 C471 0.959 . S
H470 C471 0.961 . S
C471 C461 1.510 . S
C471 H469 0.959 . S
C471 H470 0.961 . S
C471 H472 0.960 . S
H472 C471 0.960 . S
H473 N453 0.862 . S
O474 Co442 1.920 . S
O474 C447 1.289 . S
C475 O467 1.258 . S
C475 O468 1.266 . S
Co476 O479 1.970 . S
Co476 N493 1.989 . S
Co476 O501 1.967 . S
Co476 O508 1.920 . S
Co477 O480 1.966 . S
Co477 N486 2.022 . S
Co477 N494 1.993 . S
Co477 O502 1.941 . S
C478 O479 1.258 . S
C478 O480 1.263 . S
O479 Co476 1.970 . S
O479 C478 1.258 . S
O480 Co477 1.966 . S
O480 C478 1.263 . S
C481 O482 1.235 . S
C481 O508 1.289 . S
O482 C481 1.235 . S
C483 C485 1.400 . S
C483 N486 1.351 . S
C483 C488 1.501 . S
C484 C485 1.387 . S
C484 N487 1.341 . S
C485 C483 1.400 . S
C485 C484 1.387 . S
N486 Co477 2.022 . S
N486 C483 1.351 . S
N486 N487 1.365 . S
N487 C484 1.341 . S
N487 N486 1.365 . S
N487 H507 0.862 . S
C488 C483 1.501 . S
C488 H489 0.961 . S
C488 H490 0.961 . S
C488 H491 0.960 . S
H489 C488 0.961 . S
H490 C488 0.961 . S
H491 C488 0.960 . S
C492 N493 1.342 . S
C492 C496 1.401 . S
C492 C497 1.499 . S
N493 Co476 1.989 . S
N493 C492 1.342 . S
N493 N494 1.388 . S
N494 Co477 1.993 . S
N494 N493 1.388 . S
N494 C495 1.346 . S
C495 N494 1.346 . S
C495 C496 1.396 . S
C495 C505 1.510 . S
C496 C492 1.401 . S
C496 C495 1.396 . S
C497 C492 1.499 . S
C497 H498 0.959 . S
C497 H499 0.960 . S
C497 H500 0.961 . S
H498 C497 0.959 . S
H499 C497 0.960 . S
H500 C497 0.961 . S
O501 Co476 1.967 . S
O501 C509 1.258 . S
O502 Co477 1.941 . S
O502 C509 1.266 . S
H503 C505 0.959 . S
H504 C505 0.961 . S
C505 C495 1.510 . S
C505 H503 0.959 . S
C505 H504 0.961 . S
C505 H506 0.960 . S
H506 C505 0.960 . S
H507 N487 0.862 . S
O508 Co476 1.920 . S
O508 C481 1.289 . S
C509 O501 1.258 . S
C509 O502 1.266 . S
Co510 O513 1.970 . S
Co510 N527 1.989 . S
Co510 O535 1.967 . S
Co510 O542 1.920 . S
Co511 O514 1.966 . S
Co511 N520 2.022 . S
Co511 N528 1.993 . S
Co511 O536 1.941 . S
C512 O513 1.258 . S
C512 O514 1.263 . S
O513 Co510 1.970 . S
O513 C512 1.258 . S
O514 Co511 1.966 . S
O514 C512 1.263 . S
C515 O516 1.235 . S
C515 O542 1.289 . S
O516 C515 1.235 . S
C517 C519 1.400 . S
C517 N520 1.351 . S
C517 C522 1.501 . S
C518 C519 1.387 . S
C518 N521 1.341 . S
C519 C517 1.400 . S
C519 C518 1.387 . S
N520 Co511 2.022 . S
N520 C517 1.351 . S
N520 N521 1.365 . S
N521 C518 1.341 . S
N521 N520 1.365 . S
N521 H541 0.862 . S
C522 C517 1.501 . S
C522 H523 0.961 . S
C522 H524 0.961 . S
C522 H525 0.960 . S
H523 C522 0.961 . S
H524 C522 0.961 . S
H525 C522 0.960 . S
C526 N527 1.342 . S
C526 C530 1.401 . S
C526 C531 1.499 . S
N527 Co510 1.989 . S
N527 C526 1.342 . S
N527 N528 1.388 . S
N528 Co511 1.993 . S
N528 N527 1.388 . S
N528 C529 1.346 . S
C529 N528 1.346 . S
C529 C530 1.396 . S
C529 C539 1.510 . S
C530 C526 1.401 . S
C530 C529 1.396 . S
C531 C526 1.499 . S
C531 H532 0.959 . S
C531 H533 0.960 . S
C531 H534 0.961 . S
H532 C531 0.959 . S
H533 C531 0.960 . S
H534 C531 0.961 . S
O535 Co510 1.967 . S
O535 C543 1.258 . S
O536 Co511 1.941 . S
O536 C543 1.266 . S
H537 C539 0.959 . S
H538 C539 0.961 . S
C539 C529 1.510 . S
C539 H537 0.959 . S
C539 H538 0.961 . S
C539 H540 0.960 . S
H540 C539 0.960 . S
H541 N521 0.862 . S
O542 Co510 1.920 . S
O542 C515 1.289 . S
C543 O535 1.258 . S
C543 O536 1.266 . S
C544 C545 1.363 . S
C544 C550 1.379 . S
C544 N552 1.356 . S
C545 C544 1.363 . S
C545 C551 1.363 . S
C546 C547 1.363 . S
C546 C551 1.379 . S
C546 N553 1.356 . S
C547 C546 1.363 . S
C547 C550 1.363 . S
N548 C550 1.356 . S
N548 H560 0.984 . S
N548 H561 0.985 . S
N549 C551 1.356 . S
N549 H554 0.984 . S
N549 H555 0.985 . S
C550 C544 1.379 . S
C550 C547 1.363 . S
C550 N548 1.356 . S
C551 C545 1.363 . S
C551 C546 1.379 . S
C551 N549 1.356 . S
N552 C544 1.356 . S
N552 H558 0.984 . S
N552 H559 0.984 . S
N553 C546 1.356 . S
N553 H556 0.984 . S
N553 H557 0.985 . S
H554 N549 0.984 . S
H555 N549 0.985 . S
H556 N553 0.984 . S
H557 N553 0.985 . S
H558 N552 0.984 . S
H559 N552 0.984 . S
H560 N548 0.984 . S
H561 N548 0.985 . S
C562 C563 1.363 . S
C562 C568 1.379 . S
C562 N570 1.356 . S
C563 C562 1.363 . S
C563 C569 1.363 . S
C564 C565 1.363 . S
C564 C569 1.379 . S
C564 N571 1.356 . S
C565 C564 1.363 . S
C565 C568 1.363 . S
N566 C568 1.356 . S
N566 H578 0.984 . S
N566 H579 0.985 . S
N567 C569 1.356 . S
N567 H572 0.984 . S
N567 H573 0.985 . S
C568 C562 1.379 . S
C568 C565 1.363 . S
C568 N566 1.356 . S
C569 C563 1.363 . S
C569 C564 1.379 . S
C569 N567 1.356 . S
N570 C562 1.356 . S
N570 H576 0.984 . S
N570 H577 0.984 . S
N571 C564 1.356 . S
N571 H574 0.984 . S
N571 H575 0.985 . S
H572 N567 0.984 . S
H573 N567 0.985 . S
H574 N571 0.984 . S
H575 N571 0.985 . S
H576 N570 0.984 . S
H577 N570 0.984 . S
H578 N566 0.984 . S
H579 N566 0.985 . S
C580 C581 1.363 . S
C580 C586 1.379 . S
C580 N588 1.356 . S
C581 C580 1.363 . S
C581 C587 1.363 . S
C582 C583 1.363 . S
C582 C587 1.379 . S
C582 N589 1.356 . S
C583 C582 1.363 . S
C583 C586 1.363 . S
N584 C586 1.356 . S
N584 H596 0.984 . S
N584 H597 0.985 . S
N585 C587 1.356 . S
N585 H590 0.984 . S
N585 H591 0.985 . S
C586 C580 1.379 . S
C586 C583 1.363 . S
C586 N584 1.356 . S
C587 C581 1.363 . S
C587 C582 1.379 . S
C587 N585 1.356 . S
N588 C580 1.356 . S
N588 H594 0.984 . S
N588 H595 0.984 . S
N589 C582 1.356 . S
N589 H592 0.984 . S
N589 H593 0.985 . S
H590 N585 0.984 . S
H591 N585 0.985 . S
H592 N589 0.984 . S
H593 N589 0.985 . S
H594 N588 0.984 . S
H595 N588 0.984 . S
H596 N584 0.984 . S
H597 N584 0.985 . S
C598 C599 1.363 . S
C598 C604 1.379 . S
C598 N606 1.356 . S
C599 C598 1.363 . S
C599 C605 1.363 . S
C600 C601 1.363 . S
C600 C605 1.379 . S
C600 N607 1.356 . S
C601 C600 1.363 . S
C601 C604 1.363 . S
N602 C604 1.356 . S
N602 H614 0.984 . S
N602 H615 0.985 . S
N603 C605 1.356 . S
N603 H608 0.984 . S
N603 H609 0.985 . S
C604 C598 1.379 . S
C604 C601 1.363 . S
C604 N602 1.356 . S
C605 C599 1.363 . S
C605 C600 1.379 . S
C605 N603 1.356 . S
N606 C598 1.356 . S
N606 H612 0.984 . S
N606 H613 0.984 . S
N607 C600 1.356 . S
N607 H610 0.984 . S
N607 H611 0.985 . S
H608 N603 0.984 . S
H609 N603 0.985 . S
H610 N607 0.984 . S
H611 N607 0.985 . S
H612 N606 0.984 . S
H613 N606 0.984 . S
H614 N602 0.984 . S
H615 N602 0.985 . S
C616 C617 1.363 . S
C616 C622 1.379 . S
C616 N624 1.356 . S
C617 C616 1.363 . S
C617 C623 1.363 . S
C618 C619 1.363 . S
C618 C623 1.379 . S
C618 N625 1.356 . S
C619 C618 1.363 . S
C619 C622 1.363 . S
N620 C622 1.356 . S
N620 H632 0.984 . S
N620 H633 0.985 . S
N621 C623 1.356 . S
N621 H626 0.984 . S
N621 H627 0.985 . S
C622 C616 1.379 . S
C622 C619 1.363 . S
C622 N620 1.356 . S
C623 C617 1.363 . S
C623 C618 1.379 . S
C623 N621 1.356 . S
N624 C616 1.356 . S
N624 H630 0.984 . S
N624 H631 0.984 . S
N625 C618 1.356 . S
N625 H628 0.984 . S
N625 H629 0.985 . S
H626 N621 0.984 . S
H627 N621 0.985 . S
H628 N625 0.984 . S
H629 N625 0.985 . S
H630 N624 0.984 . S
H631 N624 0.984 . S
H632 N620 0.984 . S
H633 N620 0.985 . S
C634 C635 1.363 . S
C634 C640 1.379 . S
C634 N642 1.356 . S
C635 C634 1.363 . S
C635 C641 1.363 . S
C636 C637 1.363 . S
C636 C641 1.379 . S
C636 N643 1.356 . S
C637 C636 1.363 . S
C637 C640 1.363 . S
N638 C640 1.356 . S
N638 H650 0.984 . S
N638 H651 0.985 . S
N639 C641 1.356 . S
N639 H644 0.984 . S
N639 H645 0.985 . S
C640 C634 1.379 . S
C640 C637 1.363 . S
C640 N638 1.356 . S
C641 C635 1.363 . S
C641 C636 1.379 . S
C641 N639 1.356 . S
N642 C634 1.356 . S
N642 H648 0.984 . S
N642 H649 0.984 . S
N643 C636 1.356 . S
N643 H646 0.984 . S
N643 H647 0.985 . S
H644 N639 0.984 . S
H645 N639 0.985 . S
H646 N643 0.984 . S
H647 N643 0.985 . S
H648 N642 0.984 . S
H649 N642 0.984 . S
H650 N638 0.984 . S
H651 N638 0.985 . S
C652 C653 1.363 . S
C652 C658 1.379 . S
C652 N660 1.356 . S
C653 C652 1.363 . S
C653 C659 1.363 . S
C654 C655 1.363 . S
C654 C659 1.379 . S
C654 N661 1.356 . S
C655 C654 1.363 . S
C655 C658 1.363 . S
N656 C658 1.356 . S
N656 H668 0.984 . S
N656 H669 0.985 . S
N657 C659 1.356 . S
N657 H662 0.984 . S
N657 H663 0.985 . S
C658 C652 1.379 . S
C658 C655 1.363 . S
C658 N656 1.356 . S
C659 C653 1.363 . S
C659 C654 1.379 . S
C659 N657 1.356 . S
N660 C652 1.356 . S
N660 H666 0.984 . S
N660 H667 0.984 . S
N661 C654 1.356 . S
N661 H664 0.984 . S
N661 H665 0.985 . S
H662 N657 0.984 . S
H663 N657 0.985 . S
H664 N661 0.984 . S
H665 N661 0.985 . S
H666 N660 0.984 . S
H667 N660 0.984 . S
H668 N656 0.984 . S
H669 N656 0.985 . S
C670 C671 1.363 . S
C670 C676 1.379 . S
C670 N678 1.356 . S
C671 C670 1.363 . S
C671 C677 1.363 . S
C672 C673 1.363 . S
C672 C677 1.379 . S
C672 N679 1.356 . S
C673 C672 1.363 . S
C673 C676 1.363 . S
N674 C676 1.356 . S
N674 H686 0.984 . S
N674 H687 0.985 . S
N675 C677 1.356 . S
N675 H680 0.984 . S
N675 H681 0.985 . S
C676 C670 1.379 . S
C676 C673 1.363 . S
C676 N674 1.356 . S
C677 C671 1.363 . S
C677 C672 1.379 . S
C677 N675 1.356 . S
N678 C670 1.356 . S
N678 H684 0.984 . S
N678 H685 0.984 . S
N679 C672 1.356 . S
N679 H682 0.984 . S
N679 H683 0.985 . S
H680 N675 0.984 . S
H681 N675 0.985 . S
H682 N679 0.984 . S
H683 N679 0.985 . S
H684 N678 0.984 . S
H685 N678 0.984 . S
H686 N674 0.984 . S
H687 N674 0.985 . S
C688 C689 1.363 . S
C688 C694 1.379 1_554 S
C688 N696 1.356 . S
C689 C688 1.363 . S
C689 C695 1.363 . S
C690 C691 1.363 . S
C690 C695 1.379 1_556 S
C690 N697 1.356 . S
C691 C690 1.363 . S
C691 C694 1.363 . S
N692 C694 1.356 . S
N692 H704 0.984 . S
N692 H705 0.985 . S
N693 C695 1.356 . S
N693 H698 0.984 . S
N693 H699 0.985 . S
C694 C688 1.379 1_556 S
C694 C691 1.363 . S
C694 N692 1.356 . S
C695 C689 1.363 . S
C695 C690 1.379 1_554 S
C695 N693 1.356 . S
N696 C688 1.356 . S
N696 H702 0.984 . S
N696 H703 0.984 . S
N697 C690 1.356 . S
N697 H700 0.984 . S
N697 H701 0.985 . S
H698 N693 0.984 . S
H699 N693 0.985 . S
H700 N697 0.984 . S
H701 N697 0.985 . S
H702 N696 0.984 . S
H703 N696 0.984 . S
H704 N692 0.984 . S
H705 N692 0.985 . S
C706 C707 1.363 . S
C706 C712 1.379 . S
C706 N714 1.356 . S
C707 C706 1.363 . S
C707 C713 1.363 . S
C708 C709 1.363 . S
C708 C713 1.379 . S
C708 N715 1.356 . S
C709 C708 1.363 . S
C709 C712 1.363 . S
N710 C712 1.356 . S
N710 H722 0.984 . S
N710 H723 0.985 . S
N711 C713 1.356 . S
N711 H716 0.984 . S
N711 H717 0.985 . S
C712 C706 1.379 . S
C712 C709 1.363 . S
C712 N710 1.356 . S
C713 C707 1.363 . S
C713 C708 1.379 . S
C713 N711 1.356 . S
N714 C706 1.356 . S
N714 H720 0.984 . S
N714 H721 0.984 . S
N715 C708 1.356 . S
N715 H718 0.984 . S
N715 H719 0.985 . S
H716 N711 0.984 . S
H717 N711 0.985 . S
H718 N715 0.984 . S
H719 N715 0.985 . S
H720 N714 0.984 . S
H721 N714 0.984 . S
H722 N710 0.984 . S
H723 N710 0.985 . S
C724 C725 1.363 . S
C724 C730 1.379 1_556 S
C724 N732 1.356 . S
C725 C724 1.363 . S
C725 C731 1.363 . S
C726 C727 1.363 . S
C726 C731 1.379 1_554 S
C726 N733 1.356 . S
C727 C726 1.363 . S
C727 C730 1.363 . S
N728 C730 1.356 . S
N728 H740 0.984 . S
N728 H741 0.985 . S
N729 C731 1.356 . S
N729 H734 0.984 . S
N729 H735 0.985 . S
C730 C724 1.379 1_554 S
C730 C727 1.363 . S
C730 N728 1.356 . S
C731 C725 1.363 . S
C731 C726 1.379 1_556 S
C731 N729 1.356 . S
N732 C724 1.356 . S
N732 H738 0.984 . S
N732 H739 0.984 . S
N733 C726 1.356 . S
N733 H736 0.984 . S
N733 H737 0.985 . S
H734 N729 0.984 . S
H735 N729 0.985 . S
H736 N733 0.984 . S
H737 N733 0.985 . S
H738 N732 0.984 . S
H739 N732 0.984 . S
H740 N728 0.984 . S
H741 N728 0.985 . S
C742 C743 1.363 . S
C742 C748 1.379 . S
C742 N750 1.356 . S
C743 C742 1.363 . S
C743 C749 1.363 . S
C744 C745 1.363 . S
C744 C749 1.379 . S
C744 N751 1.356 . S
C745 C744 1.363 . S
C745 C748 1.363 . S
N746 C748 1.356 . S
N746 H758 0.984 . S
N746 H759 0.985 . S
N747 C749 1.356 . S
N747 H752 0.984 . S
N747 H753 0.985 . S
C748 C742 1.379 . S
C748 C745 1.363 . S
C748 N746 1.356 . S
C749 C743 1.363 . S
C749 C744 1.379 . S
C749 N747 1.356 . S
N750 C742 1.356 . S
N750 H756 0.984 . S
N750 H757 0.984 . S
N751 C744 1.356 . S
N751 H754 0.984 . S
N751 H755 0.985 . S
H752 N747 0.984 . S
H753 N747 0.985 . S
H754 N751 0.984 . S
H755 N751 0.985 . S
H756 N750 0.984 . S
H757 N750 0.984 . S
H758 N746 0.984 . S
H759 N746 0.985 . S
C760 C761 1.363 . S
C760 C766 1.379 1_554 S
C760 N768 1.356 . S
C761 C760 1.363 . S
C761 C767 1.363 . S
C762 C763 1.363 . S
C762 C767 1.379 1_556 S
C762 N769 1.356 . S
C763 C762 1.363 . S
C763 C766 1.363 . S
N764 C766 1.356 . S
N764 H776 0.984 . S
N764 H777 0.985 . S
N765 C767 1.356 . S
N765 H770 0.984 . S
N765 H771 0.985 . S
C766 C760 1.379 1_556 S
C766 C763 1.363 . S
C766 N764 1.356 . S
C767 C761 1.363 . S
C767 C762 1.379 1_554 S
C767 N765 1.356 . S
N768 C760 1.356 . S
N768 H774 0.984 . S
N768 H775 0.984 . S
N769 C762 1.356 . S
N769 H772 0.984 . S
N769 H773 0.985 . S
H770 N765 0.984 . S
H771 N765 0.985 . S
H772 N769 0.984 . S
H773 N769 0.985 . S
H774 N768 0.984 . S
H775 N768 0.984 . S
H776 N764 0.984 . S
H777 N764 0.985 . S
C778 C779 1.363 . S
C778 C784 1.379 . S
C778 N786 1.356 . S
C779 C778 1.363 . S
C779 C785 1.363 . S
C780 C781 1.363 . S
C780 C785 1.379 . S
C780 N787 1.356 . S
C781 C780 1.363 . S
C781 C784 1.363 . S
N782 C784 1.356 . S
N782 H794 0.984 . S
N782 H795 0.985 . S
N783 C785 1.356 . S
N783 H788 0.984 . S
N783 H789 0.985 . S
C784 C778 1.379 . S
C784 C781 1.363 . S
C784 N782 1.356 . S
C785 C779 1.363 . S
C785 C780 1.379 . S
C785 N783 1.356 . S
N786 C778 1.356 . S
N786 H792 0.984 . S
N786 H793 0.984 . S
N787 C780 1.356 . S
N787 H790 0.984 . S
N787 H791 0.985 . S
H788 N783 0.984 . S
H789 N783 0.985 . S
H790 N787 0.984 . S
H791 N787 0.985 . S
H792 N786 0.984 . S
H793 N786 0.984 . S
H794 N782 0.984 . S
H795 N782 0.985 . S
C796 C797 1.363 . S
C796 C802 1.379 1_554 S
C796 N804 1.356 . S
C797 C796 1.363 . S
C797 C803 1.363 . S
C798 C799 1.363 . S
C798 C803 1.379 1_556 S
C798 N805 1.356 . S
C799 C798 1.363 . S
C799 C802 1.363 . S
N800 C802 1.356 . S
N800 H812 0.984 . S
N800 H813 0.985 . S
N801 C803 1.356 . S
N801 H806 0.984 . S
N801 H807 0.985 . S
C802 C796 1.379 1_556 S
C802 C799 1.363 . S
C802 N800 1.356 . S
C803 C797 1.363 . S
C803 C798 1.379 1_554 S
C803 N801 1.356 . S
N804 C796 1.356 . S
N804 H810 0.984 . S
N804 H811 0.984 . S
N805 C798 1.356 . S
N805 H808 0.984 . S
N805 H809 0.985 . S
H806 N801 0.984 . S
H807 N801 0.985 . S
H808 N805 0.984 . S
H809 N805 0.985 . S
H810 N804 0.984 . S
H811 N804 0.984 . S
H812 N800 0.984 . S
H813 N800 0.985 . S
C814 C815 1.363 . S
C814 C820 1.379 . S
C814 N822 1.356 . S
C815 C814 1.363 . S
C815 C821 1.363 . S
C816 C817 1.363 . S
C816 C821 1.379 . S
C816 N823 1.356 . S
C817 C816 1.363 . S
C817 C820 1.363 . S
N818 C820 1.356 . S
N818 H830 0.984 . S
N818 H831 0.985 . S
N819 C821 1.356 . S
N819 H824 0.984 . S
N819 H825 0.985 . S
C820 C814 1.379 . S
C820 C817 1.363 . S
C820 N818 1.356 . S
C821 C815 1.363 . S
C821 C816 1.379 . S
C821 N819 1.356 . S
N822 C814 1.356 . S
N822 H828 0.984 . S
N822 H829 0.984 . S
N823 C816 1.356 . S
N823 H826 0.984 . S
N823 H827 0.985 . S
H824 N819 0.984 . S
H825 N819 0.985 . S
H826 N823 0.984 . S
H827 N823 0.985 . S
H828 N822 0.984 . S
H829 N822 0.984 . S
H830 N818 0.984 . S
H831 N818 0.985 . S
C832 C833 1.363 . S
C832 C838 1.379 1_455 S
C832 N840 1.356 . S
C833 C832 1.363 . S
C833 C839 1.363 . S
C834 C835 1.363 . S
C834 C839 1.379 1_655 S
C834 N841 1.356 . S
C835 C834 1.363 . S
C835 C838 1.363 . S
N836 C838 1.356 . S
N836 H848 0.984 . S
N836 H849 0.985 . S
N837 C839 1.356 . S
N837 H842 0.984 . S
N837 H843 0.985 . S
C838 C832 1.379 1_655 S
C838 C835 1.363 . S
C838 N836 1.356 . S
C839 C833 1.363 . S
C839 C834 1.379 1_455 S
C839 N837 1.356 . S
N840 C832 1.356 . S
N840 H846 0.984 . S
N840 H847 0.984 . S
N841 C834 1.356 . S
N841 H844 0.984 . S
N841 H845 0.985 . S
H842 N837 0.984 . S
H843 N837 0.985 . S
H844 N841 0.984 . S
H845 N841 0.985 . S
H846 N840 0.984 . S
H847 N840 0.984 . S
H848 N836 0.984 . S
H849 N836 0.985 . S
C850 C851 1.363 . S
C850 C856 1.379 1_565 S
C850 N858 1.356 . S
C851 C850 1.363 . S
C851 C857 1.363 . S
C852 C853 1.363 . S
C852 C857 1.379 1_545 S
C852 N859 1.356 . S
C853 C852 1.363 . S
C853 C856 1.363 . S
N854 C856 1.356 . S
N854 H866 0.984 . S
N854 H867 0.985 . S
N855 C857 1.356 . S
N855 H860 0.984 . S
N855 H861 0.985 . S
C856 C850 1.379 1_545 S
C856 C853 1.363 . S
C856 N854 1.356 . S
C857 C851 1.363 . S
C857 C852 1.379 1_565 S
C857 N855 1.356 . S
N858 C850 1.356 . S
N858 H864 0.984 . S
N858 H865 0.984 . S
N859 C852 1.356 . S
N859 H862 0.984 . S
N859 H863 0.985 . S
H860 N855 0.984 . S
H861 N855 0.985 . S
H862 N859 0.984 . S
H863 N859 0.985 . S
H864 N858 0.984 . S
H865 N858 0.984 . S
H866 N854 0.984 . S
H867 N854 0.985 . S
C868 C869 1.363 1_545 S
C868 C874 1.379 . S
C868 N876 1.356 1_545 S
C869 C868 1.363 1_565 S
C869 C875 1.363 . S
C870 C871 1.363 1_565 S
C870 C875 1.379 . S
C870 N877 1.356 1_565 S
C871 C870 1.363 1_545 S
C871 C874 1.363 . S
N872 C874 1.356 . S
N872 H884 0.984 . S
N872 H885 0.985 . S
N873 C875 1.356 . S
N873 H878 0.984 . S
N873 H879 0.985 . S
C874 C868 1.379 . S
C874 C871 1.363 . S
C874 N872 1.356 . S
C875 C869 1.363 . S
C875 C870 1.379 . S
C875 N873 1.356 . S
N876 C868 1.356 1_565 S
N876 H882 0.984 1_565 S
N876 H883 0.984 . S
N877 C870 1.356 1_545 S
N877 H880 0.984 . S
N877 H881 0.985 1_545 S
H878 N873 0.984 . S
H879 N873 0.985 . S
H880 N877 0.984 . S
H881 N877 0.985 1_565 S
H882 N876 0.984 1_545 S
H883 N876 0.984 . S
H884 N872 0.984 . S
H885 N872 0.985 . S
C886 C887 1.363 1_655 S
C886 C892 1.379 . S
C886 N894 1.356 1_655 S
C887 C886 1.363 1_455 S
C887 C893 1.363 . S
C888 C889 1.363 1_455 S
C888 C893 1.379 . S
C888 N895 1.356 1_455 S
C889 C888 1.363 1_655 S
C889 C892 1.363 . S
N890 C892 1.356 . S
N890 H902 0.984 . S
N890 H903 0.985 . S
N891 C893 1.356 . S
N891 H896 0.984 . S
N891 H897 0.985 . S
C892 C886 1.379 . S
C892 C889 1.363 . S
C892 N890 1.356 . S
C893 C887 1.363 . S
C893 C888 1.379 . S
C893 N891 1.356 . S
N894 C886 1.356 1_455 S
N894 H900 0.984 1_455 S
N894 H901 0.984 . S
N895 C888 1.356 1_655 S
N895 H898 0.984 . S
N895 H899 0.985 1_655 S
H896 N891 0.984 . S
H897 N891 0.985 . S
H898 N895 0.984 . S
H899 N895 0.985 1_455 S
H900 N894 0.984 1_655 S
H901 N894 0.984 . S
H902 N890 0.984 . S
H903 N890 0.985 . S
C904 C905 1.363 . S
C904 C910 1.379 1_655 S
C904 N912 1.356 . S
C905 C904 1.363 . S
C905 C911 1.363 . S
C906 C907 1.363 . S
C906 C911 1.379 1_455 S
C906 N913 1.356 . S
C907 C906 1.363 . S
C907 C910 1.363 . S
N908 C910 1.356 . S
N908 H920 0.984 . S
N908 H921 0.985 . S
N909 C911 1.356 . S
N909 H914 0.984 . S
N909 H915 0.985 . S
C910 C904 1.379 1_455 S
C910 C907 1.363 . S
C910 N908 1.356 . S
C911 C905 1.363 . S
C911 C906 1.379 1_655 S
C911 N909 1.356 . S
N912 C904 1.356 . S
N912 H918 0.984 . S
N912 H919 0.984 . S
N913 C906 1.356 . S
N913 H916 0.984 . S
N913 H917 0.985 . S
H914 N909 0.984 . S
H915 N909 0.985 . S
H916 N913 0.984 . S
H917 N913 0.985 . S
H918 N912 0.984 . S
H919 N912 0.984 . S
H920 N908 0.984 . S
H921 N908 0.985 . S
C922 C923 1.363 . S
C922 C928 1.379 1_545 S
C922 N930 1.356 . S
C923 C922 1.363 . S
C923 C929 1.363 . S
C924 C925 1.363 . S
C924 C929 1.379 1_565 S
C924 N931 1.356 . S
C925 C924 1.363 . S
C925 C928 1.363 . S
N926 C928 1.356 . S
N926 H938 0.984 . S
N926 H939 0.985 . S
N927 C929 1.356 . S
N927 H932 0.984 . S
N927 H933 0.985 . S
C928 C922 1.379 1_565 S
C928 C925 1.363 . S
C928 N926 1.356 . S
C929 C923 1.363 . S
C929 C924 1.379 1_545 S
C929 N927 1.356 . S
N930 C922 1.356 . S
N930 H936 0.984 . S
N930 H937 0.984 . S
N931 C924 1.356 . S
N931 H934 0.984 . S
N931 H935 0.985 . S
H932 N927 0.984 . S
H933 N927 0.985 . S
H934 N931 0.984 . S
H935 N931 0.985 . S
H936 N930 0.984 . S
H937 N930 0.984 . S
H938 N926 0.984 . S
H939 N926 0.985 . S
C940 C941 1.363 1_545 S
C940 C946 1.379 . S
C940 N948 1.356 1_545 S
C941 C940 1.363 1_565 S
C941 C947 1.363 . S
C942 C943 1.363 1_565 S
C942 C947 1.379 . S
C942 N949 1.356 1_565 S
C943 C942 1.363 1_545 S
C943 C946 1.363 . S
N944 C946 1.356 . S
N944 H956 0.984 . S
N944 H957 0.985 . S
N945 C947 1.356 . S
N945 H950 0.984 . S
N945 H951 0.985 . S
C946 C940 1.379 . S
C946 C943 1.363 . S
C946 N944 1.356 . S
C947 C941 1.363 . S
C947 C942 1.379 . S
C947 N945 1.356 . S
N948 C940 1.356 1_565 S
N948 H954 0.984 1_565 S
N948 H955 0.984 . S
N949 C942 1.356 1_545 S
N949 H952 0.984 . S
N949 H953 0.985 1_545 S
H950 N945 0.984 . S
H951 N945 0.985 . S
H952 N949 0.984 . S
H953 N949 0.985 1_565 S
H954 N948 0.984 1_545 S
H955 N948 0.984 . S
H956 N944 0.984 . S
H957 N944 0.985 . S
C958 C959 1.363 1_655 S
C958 C964 1.379 . S
C958 N966 1.356 1_655 S
C959 C958 1.363 1_455 S
C959 C965 1.363 . S
C960 C961 1.363 1_455 S
C960 C965 1.379 . S
C960 N967 1.356 1_455 S
C961 C960 1.363 1_655 S
C961 C964 1.363 . S
N962 C964 1.356 . S
N962 H974 0.984 . S
N962 H975 0.985 . S
N963 C965 1.356 . S
N963 H968 0.984 . S
N963 H969 0.985 . S
C964 C958 1.379 . S
C964 C961 1.363 . S
C964 N962 1.356 . S
C965 C959 1.363 . S
C965 C960 1.379 . S
C965 N963 1.356 . S
N966 C958 1.356 1_455 S
N966 H972 0.984 1_455 S
N966 H973 0.984 . S
N967 C960 1.356 1_655 S
N967 H970 0.984 . S
N967 H971 0.985 1_655 S
H968 N963 0.984 . S
H969 N963 0.985 . S
H970 N967 0.984 . S
H971 N967 0.985 1_455 S
H972 N966 0.984 1_655 S
H973 N966 0.984 . S
H974 N962 0.984 . S
H975 N962 0.985 . S
C976 C977 1.363 . S
C976 C982 1.379 . S
C976 N984 1.356 . S
C977 C976 1.363 . S
C977 C983 1.363 . S
C978 C979 1.363 . S
C978 C983 1.379 . S
C978 N985 1.356 . S
C979 C978 1.363 . S
C979 C982 1.363 . S
N980 C982 1.356 . S
N980 H992 0.984 . S
N980 H993 0.985 . S
N981 C983 1.356 . S
N981 H986 0.984 . S
N981 H987 0.985 . S
C982 C976 1.379 . S
C982 C979 1.363 . S
C982 N980 1.356 . S
C983 C977 1.363 . S
C983 C978 1.379 . S
C983 N981 1.356 . S
N984 C976 1.356 . S
N984 H990 0.984 . S
N984 H991 0.984 . S
N985 C978 1.356 . S
N985 H988 0.984 . S
N985 H989 0.985 . S
H986 N981 0.984 . S
H987 N981 0.985 . S
H988 N985 0.984 . S
H989 N985 0.985 . S
H990 N984 0.984 . S
H991 N984 0.984 . S
H992 N980 0.984 . S
H993 N980 0.985 . S
C994 C995 1.363 . S
C994 C1000 1.379 . S
C994 N1002 1.356 . S
C995 C994 1.363 . S
C995 C1001 1.363 . S
C996 C997 1.363 . S
C996 C1001 1.379 . S
C996 N1003 1.356 . S
C997 C996 1.363 . S
C997 C1000 1.363 . S
N998 C1000 1.356 . S
N998 H1010 0.984 . S
N998 H1011 0.985 . S
N999 C1001 1.356 . S
N999 H1004 0.984 . S
N999 H1005 0.985 . S
C1000 C994 1.379 . S
C1000 C997 1.363 . S
C1000 N998 1.356 . S
C1001 C995 1.363 . S
C1001 C996 1.379 . S
C1001 N999 1.356 . S
N1002 C994 1.356 . S
N1002 H1008 0.984 . S
N1002 H1009 0.984 . S
N1003 C996 1.356 . S
N1003 H1006 0.984 . S
N1003 H1007 0.985 . S
H1004 N999 0.984 . S
H1005 N999 0.985 . S
H1006 N1003 0.984 . S
H1007 N1003 0.985 . S
H1008 N1002 0.984 . S
H1009 N1002 0.984 . S
H1010 N998 0.984 . S
H1011 N998 0.985 . S
C1012 C1013 1.363 . S
C1012 C1018 1.379 . S
C1012 N1020 1.356 . S
C1013 C1012 1.363 . S
C1013 C1019 1.363 . S
C1014 C1015 1.363 . S
C1014 C1019 1.379 . S
C1014 N1021 1.356 . S
C1015 C1014 1.363 . S
C1015 C1018 1.363 . S
N1016 C1018 1.356 . S
N1016 H1028 0.984 . S
N1016 H1029 0.985 . S
N1017 C1019 1.356 . S
N1017 H1022 0.984 . S
N1017 H1023 0.985 . S
C1018 C1012 1.379 . S
C1018 C1015 1.363 . S
C1018 N1016 1.356 . S
C1019 C1013 1.363 . S
C1019 C1014 1.379 . S
C1019 N1017 1.356 . S
N1020 C1012 1.356 . S
N1020 H1026 0.984 . S
N1020 H1027 0.984 . S
N1021 C1014 1.356 . S
N1021 H1024 0.984 . S
N1021 H1025 0.985 . S
H1022 N1017 0.984 . S
H1023 N1017 0.985 . S
H1024 N1021 0.984 . S
H1025 N1021 0.985 . S
H1026 N1020 0.984 . S
H1027 N1020 0.984 . S
H1028 N1016 0.984 . S
H1029 N1016 0.985 . S
C1030 C1031 1.363 . S
C1030 C1036 1.379 . S
C1030 N1038 1.356 . S
C1031 C1030 1.363 . S
C1031 C1037 1.363 . S
C1032 C1033 1.363 . S
C1032 C1037 1.379 . S
C1032 N1039 1.356 . S
C1033 C1032 1.363 . S
C1033 C1036 1.363 . S
N1034 C1036 1.356 . S
N1034 H1046 0.984 . S
N1034 H1047 0.985 . S
N1035 C1037 1.356 . S
N1035 H1040 0.984 . S
N1035 H1041 0.985 . S
C1036 C1030 1.379 . S
C1036 C1033 1.363 . S
C1036 N1034 1.356 . S
C1037 C1031 1.363 . S
C1037 C1032 1.379 . S
C1037 N1035 1.356 . S
N1038 C1030 1.356 . S
N1038 H1044 0.984 . S
N1038 H1045 0.984 . S
N1039 C1032 1.356 . S
N1039 H1042 0.984 . S
N1039 H1043 0.985 . S
H1040 N1035 0.984 . S
H1041 N1035 0.985 . S
H1042 N1039 0.984 . S
H1043 N1039 0.985 . S
H1044 N1038 0.984 . S
H1045 N1038 0.984 . S
H1046 N1034 0.984 . S
H1047 N1034 0.985 . S
C1048 C1049 1.363 . S
C1048 C1054 1.379 . S
C1048 N1056 1.356 . S
C1049 C1048 1.363 . S
C1049 C1055 1.363 . S
C1050 C1051 1.363 . S
C1050 C1055 1.379 . S
C1050 N1057 1.356 . S
C1051 C1050 1.363 . S
C1051 C1054 1.363 . S
N1052 C1054 1.356 . S
N1052 H1064 0.984 . S
N1052 H1065 0.985 . S
N1053 C1055 1.356 . S
N1053 H1058 0.984 . S
N1053 H1059 0.985 . S
C1054 C1048 1.379 . S
C1054 C1051 1.363 . S
C1054 N1052 1.356 . S
C1055 C1049 1.363 . S
C1055 C1050 1.379 . S
C1055 N1053 1.356 . S
N1056 C1048 1.356 . S
N1056 H1062 0.984 . S
N1056 H1063 0.984 1_655 S
N1057 C1050 1.356 . S
N1057 H1060 0.984 . S
N1057 H1061 0.985 . S
H1058 N1053 0.984 . S
H1059 N1053 0.985 . S
H1060 N1057 0.984 . S
H1061 N1057 0.985 . S
H1062 N1056 0.984 . S
H1063 N1056 0.984 1_455 S
H1064 N1052 0.984 . S
H1065 N1052 0.985 . S
C1066 C1067 1.363 . S
C1066 C1072 1.379 . S
C1066 N1074 1.356 . S
C1067 C1066 1.363 . S
C1067 C1073 1.363 . S
C1068 C1069 1.363 . S
C1068 C1073 1.379 . S
C1068 N1075 1.356 . S
C1069 C1068 1.363 . S
C1069 C1072 1.363 . S
N1070 C1072 1.356 . S
N1070 H1082 0.984 . S
N1070 H1083 0.985 1_565 S
N1071 C1073 1.356 . S
N1071 H1076 0.984 . S
N1071 H1077 0.985 . S
C1072 C1066 1.379 . S
C1072 C1069 1.363 . S
C1072 N1070 1.356 . S
C1073 C1067 1.363 . S
C1073 C1068 1.379 . S
C1073 N1071 1.356 . S
N1074 C1066 1.356 . S
N1074 H1080 0.984 . S
N1074 H1081 0.984 . S
N1075 C1068 1.356 . S
N1075 H1078 0.984 1_565 S
N1075 H1079 0.985 . S
H1076 N1071 0.984 . S
H1077 N1071 0.985 . S
H1078 N1075 0.984 1_545 S
H1079 N1075 0.985 . S
H1080 N1074 0.984 . S
H1081 N1074 0.984 . S
H1082 N1070 0.984 . S
H1083 N1070 0.985 1_545 S
C1084 C1085 1.363 . S
C1084 C1090 1.379 . S
C1084 N1092 1.356 . S
C1085 C1084 1.363 . S
C1085 C1091 1.363 . S
C1086 C1087 1.363 . S
C1086 C1091 1.379 . S
C1086 N1093 1.356 . S
C1087 C1086 1.363 . S
C1087 C1090 1.363 . S
N1088 C1090 1.356 . S
N1088 H1100 0.984 . S
N1088 H1101 0.985 . S
N1089 C1091 1.356 . S
N1089 H1094 0.984 . S
N1089 H1095 0.985 . S
C1090 C1084 1.379 . S
C1090 C1087 1.363 . S
C1090 N1088 1.356 . S
C1091 C1085 1.363 . S
C1091 C1086 1.379 . S
C1091 N1089 1.356 . S
N1092 C1084 1.356 . S
N1092 H1098 0.984 . S
N1092 H1099 0.984 1_455 S
N1093 C1086 1.356 . S
N1093 H1096 0.984 . S
N1093 H1097 0.985 . S
H1094 N1089 0.984 . S
H1095 N1089 0.985 . S
H1096 N1093 0.984 . S
H1097 N1093 0.985 . S
H1098 N1092 0.984 . S
H1099 N1092 0.984 1_655 S
H1100 N1088 0.984 . S
H1101 N1088 0.985 . S
C1102 C1103 1.363 . S
C1102 C1108 1.379 . S
C1102 N1110 1.356 . S
C1103 C1102 1.363 . S
C1103 C1109 1.363 . S
C1104 C1105 1.363 . S
C1104 C1109 1.379 . S
C1104 N1111 1.356 . S
C1105 C1104 1.363 . S
C1105 C1108 1.363 . S
N1106 C1108 1.356 . S
N1106 H1118 0.984 . S
N1106 H1119 0.985 1_545 S
N1107 C1109 1.356 . S
N1107 H1112 0.984 . S
N1107 H1113 0.985 . S
C1108 C1102 1.379 . S
C1108 C1105 1.363 . S
C1108 N1106 1.356 . S
C1109 C1103 1.363 . S
C1109 C1104 1.379 . S
C1109 N1107 1.356 . S
N1110 C1102 1.356 . S
N1110 H1116 0.984 . S
N1110 H1117 0.984 . S
N1111 C1104 1.356 . S
N1111 H1114 0.984 1_545 S
N1111 H1115 0.985 . S
H1112 N1107 0.984 . S
H1113 N1107 0.985 . S
H1114 N1111 0.984 1_565 S
H1115 N1111 0.985 . S
H1116 N1110 0.984 . S
H1117 N1110 0.984 . S
H1118 N1106 0.984 . S
H1119 N1106 0.985 1_565 S
C1120 C1121 1.363 . S
C1120 C1126 1.379 . S
C1120 N1128 1.356 . S
C1121 C1120 1.363 . S
C1121 C1127 1.363 . S
C1122 C1123 1.363 . S
C1122 C1127 1.379 . S
C1122 N1129 1.356 . S
C1123 C1122 1.363 . S
C1123 C1126 1.363 . S
N1124 C1126 1.356 . S
N1124 H1136 0.984 . S
N1124 H1137 0.985 . S
N1125 C1127 1.356 . S
N1125 H1130 0.984 . S
N1125 H1131 0.985 . S
C1126 C1120 1.379 . S
C1126 C1123 1.363 . S
C1126 N1124 1.356 . S
C1127 C1121 1.363 . S
C1127 C1122 1.379 . S
C1127 N1125 1.356 . S
N1128 C1120 1.356 . S
N1128 H1134 0.984 . S
N1128 H1135 0.984 . S
N1129 C1122 1.356 . S
N1129 H1132 0.984 . S
N1129 H1133 0.985 . S
H1130 N1125 0.984 . S
H1131 N1125 0.985 . S
H1132 N1129 0.984 . S
H1133 N1129 0.985 . S
H1134 N1128 0.984 . S
H1135 N1128 0.984 . S
H1136 N1124 0.984 . S
H1137 N1124 0.985 . S
C1138 C1139 1.363 . S
C1138 C1144 1.379 . S
C1138 N1146 1.356 . S
C1139 C1138 1.363 . S
C1139 C1145 1.363 . S
C1140 C1141 1.363 . S
C1140 C1145 1.379 . S
C1140 N1147 1.356 . S
C1141 C1140 1.363 . S
C1141 C1144 1.363 . S
N1142 C1144 1.356 . S
N1142 H1154 0.984 . S
N1142 H1155 0.985 . S
N1143 C1145 1.356 . S
N1143 H1148 0.984 . S
N1143 H1149 0.985 . S
C1144 C1138 1.379 . S
C1144 C1141 1.363 . S
C1144 N1142 1.356 . S
C1145 C1139 1.363 . S
C1145 C1140 1.379 . S
C1145 N1143 1.356 . S
N1146 C1138 1.356 . S
N1146 H1152 0.984 . S
N1146 H1153 0.984 . S
N1147 C1140 1.356 . S
N1147 H1150 0.984 . S
N1147 H1151 0.985 . S
H1148 N1143 0.984 . S
H1149 N1143 0.985 . S
H1150 N1147 0.984 . S
H1151 N1147 0.985 . S
H1152 N1146 0.984 . S
H1153 N1146 0.984 . S
H1154 N1142 0.984 . S
H1155 N1142 0.985 . S
C1156 C1157 1.363 . S
C1156 C1162 1.379 . S
C1156 N1164 1.356 . S
C1157 C1156 1.363 . S
C1157 C1163 1.363 . S
C1158 C1159 1.363 . S
C1158 C1163 1.379 . S
C1158 N1165 1.356 . S
C1159 C1158 1.363 . S
C1159 C1162 1.363 . S
N1160 C1162 1.356 . S
N1160 H1172 0.984 . S
N1160 H1173 0.985 . S
N1161 C1163 1.356 . S
N1161 H1166 0.984 . S
N1161 H1167 0.985 . S
C1162 C1156 1.379 . S
C1162 C1159 1.363 . S
C1162 N1160 1.356 . S
C1163 C1157 1.363 . S
C1163 C1158 1.379 . S
C1163 N1161 1.356 . S
N1164 C1156 1.356 . S
N1164 H1170 0.984 . S
N1164 H1171 0.984 . S
N1165 C1158 1.356 . S
N1165 H1168 0.984 . S
N1165 H1169 0.985 . S
H1166 N1161 0.984 . S
H1167 N1161 0.985 . S
H1168 N1165 0.984 . S
H1169 N1165 0.985 . S
H1170 N1164 0.984 . S
H1171 N1164 0.984 . S
H1172 N1160 0.984 . S
H1173 N1160 0.985 . S
C1174 C1175 1.363 . S
C1174 C1180 1.379 . S
C1174 N1182 1.356 . S
C1175 C1174 1.363 . S
C1175 C1181 1.363 . S
C1176 C1177 1.363 . S
C1176 C1181 1.379 . S
C1176 N1183 1.356 . S
C1177 C1176 1.363 . S
C1177 C1180 1.363 . S
N1178 C1180 1.356 . S
N1178 H1190 0.984 . S
N1178 H1191 0.985 . S
N1179 C1181 1.356 . S
N1179 H1184 0.984 . S
N1179 H1185 0.985 . S
C1180 C1174 1.379 . S
C1180 C1177 1.363 . S
C1180 N1178 1.356 . S
C1181 C1175 1.363 . S
C1181 C1176 1.379 . S
C1181 N1179 1.356 . S
N1182 C1174 1.356 . S
N1182 H1188 0.984 . S
N1182 H1189 0.984 . S
N1183 C1176 1.356 . S
N1183 H1186 0.984 . S
N1183 H1187 0.985 . S
H1184 N1179 0.984 . S
H1185 N1179 0.985 . S
H1186 N1183 0.984 . S
H1187 N1183 0.985 . S
H1188 N1182 0.984 . S
H1189 N1182 0.984 . S
H1190 N1178 0.984 . S
H1191 N1178 0.985 . S
C1192 C1193 1.363 . S
C1192 C1198 1.379 . S
C1192 N1200 1.356 . S
C1193 C1192 1.363 . S
C1193 C1199 1.363 . S
C1194 C1195 1.363 . S
C1194 C1199 1.379 . S
C1194 N1201 1.356 . S
C1195 C1194 1.363 . S
C1195 C1198 1.363 . S
N1196 C1198 1.356 . S
N1196 H1208 0.984 . S
N1196 H1209 0.985 . S
N1197 C1199 1.356 . S
N1197 H1202 1.004 . S
N1197 H1203 0.985 . S
C1198 C1192 1.379 . S
C1198 C1195 1.363 . S
C1198 N1196 1.356 . S
C1199 C1193 1.363 . S
C1199 C1194 1.379 . S
C1199 N1197 1.356 . S
N1200 C1192 1.356 . S
N1200 H1206 0.984 . S
N1200 H1207 0.984 1_455 S
N1201 C1194 1.356 . S
N1201 H1204 0.984 . S
N1201 H1205 0.985 . S
H1202 N1197 1.004 . S
H1203 N1197 0.985 . S
H1204 N1201 0.984 . S
H1205 N1201 0.985 . S
H1206 N1200 0.984 . S
H1207 N1200 0.984 1_655 S
H1208 N1196 0.984 . S
H1209 N1196 0.985 . S
C1210 C1211 1.363 . S
C1210 C1216 1.379 . S
C1210 N1218 1.356 . S
C1211 C1210 1.363 . S
C1211 C1217 1.363 . S
C1212 C1213 1.363 . S
C1212 C1217 1.379 . S
C1212 N1219 1.356 . S
C1213 C1212 1.363 . S
C1213 C1216 1.363 . S
N1214 C1216 1.356 . S
N1214 H1226 0.984 . S
N1214 H1227 0.985 1_545 S
N1215 C1217 1.356 . S
N1215 H1220 0.984 . S
N1215 H1221 0.985 . S
C1216 C1210 1.379 . S
C1216 C1213 1.363 . S
C1216 N1214 1.356 . S
C1217 C1211 1.363 . S
C1217 C1212 1.379 . S
C1217 N1215 1.356 . S
N1218 C1210 1.356 . S
N1218 H1224 0.984 . S
N1218 H1225 0.984 . S
N1219 C1212 1.356 . S
N1219 H1222 0.984 . S
N1219 H1223 0.985 . S
H1220 N1215 0.984 . S
H1221 N1215 0.985 . S
H1222 N1219 0.984 . S
H1223 N1219 0.985 . S
H1224 N1218 0.984 . S
H1225 N1218 0.984 . S
H1226 N1214 0.984 . S
H1227 N1214 0.985 1_565 S
C1228 C1229 1.363 . S
C1228 C1234 1.379 . S
C1228 N1236 1.356 . S
C1229 C1228 1.363 . S
C1229 C1235 1.363 . S
C1230 C1231 1.363 . S
C1230 C1235 1.379 . S
C1230 N1237 1.356 . S
C1231 C1230 1.363 . S
C1231 C1234 1.363 . S
N1232 C1234 1.356 . S
N1232 H1244 0.984 . S
N1232 H1245 0.985 . S
N1233 C1235 1.356 . S
N1233 H1238 0.984 . S
N1233 H1239 0.985 . S
C1234 C1228 1.379 . S
C1234 C1231 1.363 . S
C1234 N1232 1.356 . S
C1235 C1229 1.363 . S
C1235 C1230 1.379 . S
C1235 N1233 1.356 . S
N1236 C1228 1.356 . S
N1236 H1242 0.984 . S
N1236 H1243 0.984 . S
N1237 C1230 1.356 . S
N1237 H1240 0.984 1_655 S
N1237 H1241 0.985 . S
H1238 N1233 0.984 . S
H1239 N1233 0.985 . S
H1240 N1237 0.984 1_455 S
H1241 N1237 0.985 . S
H1242 N1236 0.984 . S
H1243 N1236 0.984 . S
H1244 N1232 0.984 . S
H1245 N1232 0.985 . S
C1246 C1247 1.363 . S
C1246 C1252 1.379 . S
C1246 N1254 1.356 . S
C1247 C1246 1.363 . S
C1247 C1253 1.363 . S
C1248 C1249 1.363 . S
C1248 C1253 1.379 . S
C1248 N1255 1.356 . S
C1249 C1248 1.363 . S
C1249 C1252 1.363 . S
N1250 C1252 1.356 . S
N1250 H1262 0.984 . S
N1250 H1263 0.985 . S
N1251 C1253 1.356 . S
N1251 H1256 0.984 1_565 S
N1251 H1257 0.985 . S
C1252 C1246 1.379 . S
C1252 C1249 1.363 . S
C1252 N1250 1.356 . S
C1253 C1247 1.363 . S
C1253 C1248 1.379 . S
C1253 N1251 1.356 . S
N1254 C1246 1.356 . S
N1254 H1260 0.984 . S
N1254 H1261 0.984 1_565 S
N1255 C1248 1.356 . S
N1255 H1258 0.984 . S
N1255 H1259 0.985 . S
H1256 N1251 0.984 1_545 S
H1257 N1251 0.985 . S
H1258 N1255 0.984 . S
H1259 N1255 0.985 . S
H1260 N1254 0.984 . S
H1261 N1254 0.984 1_545 S
H1262 N1250 0.984 . S
H1263 N1250 0.985 . S
C545 C5 1.785 . S
C547 C243 1.785 . S
C563 C141 1.785 . S
C565 C39 1.785 . S
C581 C175 1.785 . S
C583 C73 1.785 . S
C599 C209 1.785 . S
C601 C107 1.785 . S
C617 C277 1.785 . S
C619 C515 1.785 . S
C635 C311 1.785 . S
C637 C413 1.785 . S
C653 C447 1.785 . S
C655 C345 1.785 . S
C671 C379 1.785 . S
C673 C481 1.785 . S
C689 C9 1.487 . S
C691 C349 1.487 . S
C707 C383 1.487 . S
C709 C43 1.487 . S
C725 C281 1.487 . S
C727 C77 1.487 . S
C743 C315 1.487 . S
C745 C111 1.487 . S
C761 C485 1.487 . S
C763 C145 1.487 . S
C779 C519 1.487 . S
C781 C179 1.487 . S
C797 C417 1.487 . S
C799 C213 1.487 . S
C815 C451 1.487 . S
C817 C247 1.487 . S
C833 C33 0.985 . S
C835 C101 0.985 . S
C851 C135 0.985 . S
C853 C67 0.985 . S
C869 C237 0.985 . S
C871 C169 0.985 . S
C887 C271 0.985 . S
C889 C203 0.985 . S
C905 C305 0.985 . S
C907 C373 0.985 . S
C923 C407 0.985 . S
C925 C339 0.985 . S
C941 C441 0.985 . S
C943 C509 0.985 . S
C959 C475 0.985 . S
C961 C543 0.985 . S
C977 C478 1.422 . S
C979 C20 1.438 . S
C995 C54 1.438 . S
C997 C512 1.422 . S
C1013 C410 1.422 . S
C1015 C88 1.438 . S
C1031 C444 1.422 . S
C1033 C122 1.438 . S
C1049 C342 1.422 1_655 S
C1051 C156 1.438 . S
C1067 C190 1.438 . S
C1069 C376 1.422 1_565 S
C1085 C274 1.422 1_455 S
C1087 C224 1.438 . S
C1103 C258 1.438 . S
C1105 C308 1.422 1_545 S
C1121 C206 1.422 . S
C1123 C292 1.438 . S
C1139 C240 1.422 . S
C1141 C326 1.438 . S
C1157 C138 1.422 . S
C1159 C360 1.438 . S
C1175 C394 1.438 . S
C1177 C172 1.422 . S
C1193 C70 1.422 1_455 S
C1195 C428 1.438 . S
C1211 C462 1.438 . S
C1213 C104 1.422 1_545 S
C1229 C496 1.438 . S
C1231 C2 1.422 1_655 S
C1247 C36 1.422 1_565 S
C1249 C530 1.438 . S
