# Generated by pormake.
# Topology whp, (6)-cn, num edge types: 1
# Building blocks:
#     Node 0, Type 0, BuildingBlock: OJICUG_clean_sbu_0, # of connection points: 6
#     Node 1, Type 0, BuildingBlock: OJICUG_clean_sbu_0, # of connection points: 6
#     Node 2, Type 0, BuildingBlock: OJICUG_clean_sbu_0, # of connection points: 6
#     Node 3, Type 0, BuildingBlock: OJICUG_clean_sbu_0, # of connection points: 6
#     Node 4, Type 0, BuildingBlock: OJICUG_clean_sbu_0, # of connection points: 6
#     Node 5, Type 0, BuildingBlock: OJICUG_clean_sbu_0, # of connection points: 6
#     Node 6, Type 0, BuildingBlock: OJICUG_clean_sbu_0, # of connection points: 6
#     Node 7, Type 0, BuildingBlock: OJICUG_clean_sbu_0, # of connection points: 6
#     Node 8, Type 0, BuildingBlock: OJICUG_clean_sbu_0, # of connection points: 6
#     Node 9, Type 0, BuildingBlock: OJICUG_clean_sbu_0, # of connection points: 6
#     Node 10, Type 0, BuildingBlock: OJICUG_clean_sbu_0, # of connection points: 6
#     Node 11, Type 0, BuildingBlock: OJICUG_clean_sbu_0, # of connection points: 6
#     Node 12, Type 0, BuildingBlock: OJICUG_clean_sbu_0, # of connection points: 6
#     Node 13, Type 0, BuildingBlock: OJICUG_clean_sbu_0, # of connection points: 6
#     Node 14, Type 0, BuildingBlock: OJICUG_clean_sbu_0, # of connection points: 6
#     Node 15, Type 0, BuildingBlock: OJICUG_clean_sbu_0, # of connection points: 6
#     Edge 16, Type (0, 0), BuildingBlock: AJUNOK_clean_linker_0, # of connection points: 2
#     Edge 17, Type (0, 0), BuildingBlock: AJUNOK_clean_linker_0, # of connection points: 2
#     Edge 18, Type (0, 0), BuildingBlock: AJUNOK_clean_linker_0, # of connection points: 2
#     Edge 19, Type (0, 0), BuildingBlock: AJUNOK_clean_linker_0, # of connection points: 2
#     Edge 20, Type (0, 0), BuildingBlock: AJUNOK_clean_linker_0, # of connection points: 2
#     Edge 21, Type (0, 0), BuildingBlock: AJUNOK_clean_linker_0, # of connection points: 2
#     Edge 22, Type (0, 0), BuildingBlock: AJUNOK_clean_linker_0, # of connection points: 2
#     Edge 23, Type (0, 0), BuildingBlock: AJUNOK_clean_linker_0, # of connection points: 2
#     Edge 24, Type (0, 0), BuildingBlock: AJUNOK_clean_linker_0, # of connection points: 2
#     Edge 25, Type (0, 0), BuildingBlock: AJUNOK_clean_linker_0, # of connection points: 2
#     Edge 26, Type (0, 0), BuildingBlock: AJUNOK_clean_linker_0, # of connection points: 2
#     Edge 27, Type (0, 0), BuildingBlock: AJUNOK_clean_linker_0, # of connection points: 2
#     Edge 28, Type (0, 0), BuildingBlock: AJUNOK_clean_linker_0, # of connection points: 2
#     Edge 29, Type (0, 0), BuildingBlock: AJUNOK_clean_linker_0, # of connection points: 2
#     Edge 30, Type (0, 0), BuildingBlock: AJUNOK_clean_linker_0, # of connection points: 2
#     Edge 31, Type (0, 0), BuildingBlock: AJUNOK_clean_linker_0, # of connection points: 2
#     Edge 32, Type (0, 0), BuildingBlock: AJUNOK_clean_linker_0, # of connection points: 2
#     Edge 33, Type (0, 0), BuildingBlock: AJUNOK_clean_linker_0, # of connection points: 2
#     Edge 34, Type (0, 0), BuildingBlock: AJUNOK_clean_linker_0, # of connection points: 2
#     Edge 35, Type (0, 0), BuildingBlock: AJUNOK_clean_linker_0, # of connection points: 2
#     Edge 36, Type (0, 0), BuildingBlock: AJUNOK_clean_linker_0, # of connection points: 2
#     Edge 37, Type (0, 0), BuildingBlock: AJUNOK_clean_linker_0, # of connection points: 2
#     Edge 38, Type (0, 0), BuildingBlock: AJUNOK_clean_linker_0, # of connection points: 2
#     Edge 39, Type (0, 0), BuildingBlock: AJUNOK_clean_linker_0, # of connection points: 2
#     Edge 40, Type (0, 0), BuildingBlock: AJUNOK_clean_linker_0, # of connection points: 2
#     Edge 41, Type (0, 0), BuildingBlock: AJUNOK_clean_linker_0, # of connection points: 2
#     Edge 42, Type (0, 0), BuildingBlock: AJUNOK_clean_linker_0, # of connection points: 2
#     Edge 43, Type (0, 0), BuildingBlock: AJUNOK_clean_linker_0, # of connection points: 2
#     Edge 44, Type (0, 0), BuildingBlock: AJUNOK_clean_linker_0, # of connection points: 2
#     Edge 45, Type (0, 0), BuildingBlock: AJUNOK_clean_linker_0, # of connection points: 2
#     Edge 46, Type (0, 0), BuildingBlock: AJUNOK_clean_linker_0, # of connection points: 2
#     Edge 47, Type (0, 0), BuildingBlock: AJUNOK_clean_linker_0, # of connection points: 2
#     Edge 48, Type (0, 0), BuildingBlock: AJUNOK_clean_linker_0, # of connection points: 2
#     Edge 49, Type (0, 0), BuildingBlock: AJUNOK_clean_linker_0, # of connection points: 2
#     Edge 50, Type (0, 0), BuildingBlock: AJUNOK_clean_linker_0, # of connection points: 2
#     Edge 51, Type (0, 0), BuildingBlock: AJUNOK_clean_linker_0, # of connection points: 2
#     Edge 52, Type (0, 0), BuildingBlock: AJUNOK_clean_linker_0, # of connection points: 2
#     Edge 53, Type (0, 0), BuildingBlock: AJUNOK_clean_linker_0, # of connection points: 2
#     Edge 54, Type (0, 0), BuildingBlock: AJUNOK_clean_linker_0, # of connection points: 2
#     Edge 55, Type (0, 0), BuildingBlock: AJUNOK_clean_linker_0, # of connection points: 2
#     Edge 56, Type (0, 0), BuildingBlock: AJUNOK_clean_linker_0, # of connection points: 2
#     Edge 57, Type (0, 0), BuildingBlock: AJUNOK_clean_linker_0, # of connection points: 2
#     Edge 58, Type (0, 0), BuildingBlock: AJUNOK_clean_linker_0, # of connection points: 2
#     Edge 59, Type (0, 0), BuildingBlock: AJUNOK_clean_linker_0, # of connection points: 2
#     Edge 60, Type (0, 0), BuildingBlock: AJUNOK_clean_linker_0, # of connection points: 2
#     Edge 61, Type (0, 0), BuildingBlock: AJUNOK_clean_linker_0, # of connection points: 2
#     Edge 62, Type (0, 0), BuildingBlock: AJUNOK_clean_linker_0, # of connection points: 2
#     Edge 63, Type (0, 0), BuildingBlock: AJUNOK_clean_linker_0, # of connection points: 2
# Relax obj value: 0.276
# Max RMSD: 0.243
# Mean RMSD: 0.243
data_MOF--net-whp--node1-OJICUG_clean_sbu_0--edge1-AJUNOK_clean_linker_0
_symmetry_space_group_name_H-M    P1
_symmetry_Int_Tables_number       1
_symmetry_cell_setting            triclinic
loop_
_symmetry_equiv_pos_as_xyz
'x, y, z'
_cell_length_a     36.57624
_cell_length_b     36.560048
_cell_length_c     23.009303
_cell_angle_alpha  90.014446
_cell_angle_beta   89.984571
_cell_angle_gamma 89.99592
loop_
_atom_site_label
_atom_site_type_symbol
_atom_site_fract_x
_atom_site_fract_y
_atom_site_fract_z
_atom_type_partial_charge
Sc0 Sc 0.30223 0.57126 0.38544 0.0
Sc1 Sc 0.35333 0.51359 0.2959 0.0
Sc2 Sc 0.26293 0.49058 0.33418 0.0
O3 O 0.30627 0.525 0.33833 0.0
C4 C 0.2564 0.51486 0.46342 0.0
C5 C 0.38014 0.54337 0.42025 0.0
C6 C 0.33025 0.43502 0.34072 0.0
C7 C 0.35369 0.5984 0.28074 0.0
C8 C 0.22685 0.57086 0.32269 0.0
C9 C 0.29094 0.49213 0.20363 0.0
O10 O 0.26789 0.54679 0.45142 0.0
O11 O 0.3869 0.53042 0.36981 0.0
O12 O 0.29599 0.44112 0.34014 0.0
O13 O 0.33609 0.6036 0.32768 0.0
O14 O 0.22432 0.53606 0.32654 0.0
O15 O 0.3244 0.49741 0.21704 0.0
O16 O 0.25544 0.58831 0.33717 0.0
O17 O 0.35815 0.56692 0.2589 0.0
O18 O 0.26556 0.49028 0.24129 0.0
O19 O 0.34908 0.5559 0.43515 0.0
O20 O 0.25716 0.48867 0.42725 0.0
O21 O 0.35402 0.45913 0.32899 0.0
Sc22 Sc 0.92907 0.30127 0.886 0.0
Sc23 Sc 0.98481 0.35292 0.79328 0.0
Sc24 Sc 0.01016 0.26305 0.83299 0.0
O25 O 0.97483 0.30592 0.8374 0.0
C26 C 0.9873 0.25722 0.9636 0.0
C27 C 0.95748 0.38012 0.91886 0.0
C28 C 0.06478 0.33094 0.83539 0.0
C29 C 0.89909 0.35173 0.78201 0.0
C30 C 0.93067 0.22549 0.82284 0.0
C31 C 0.00457 0.28985 0.70155 0.0
O32 O 0.95526 0.26895 0.95304 0.0
O33 O 0.9713 0.38648 0.86884 0.0
O34 O 0.05892 0.2968 0.83998 0.0
O35 O 0.89476 0.33277 0.82775 0.0
O36 O 0.96554 0.22369 0.82457 0.0
O37 O 0.99726 0.32315 0.71356 0.0
O38 O 0.91283 0.25328 0.83992 0.0
O39 O 0.93033 0.35888 0.76122 0.0
O40 O 0.01029 0.26569 0.74016 0.0
O41 O 0.94341 0.34958 0.93322 0.0
O42 O 0.01253 0.2568 0.92581 0.0
O43 O 0.04052 0.35378 0.82041 0.0
Sc44 Sc 0.23694 0.00909 0.3358 0.0
Sc45 Sc 0.14555 0.98784 0.29699 0.0
Sc46 Sc 0.1959 0.92775 0.3847 0.0
O47 O 0.19267 0.97503 0.3393 0.0
C48 C 0.27309 0.92914 0.32341 0.0
C49 C 0.20818 0.00804 0.20517 0.0
C50 C 0.14512 0.90195 0.27933 0.0
C51 C 0.171 0.06615 0.34256 0.0
C52 C 0.24018 0.98363 0.46626 0.0
C53 C 0.11693 0.95695 0.41868 0.0
O54 O 0.27478 0.96397 0.32306 0.0
O55 O 0.17505 0.00064 0.21773 0.0
O56 O 0.16617 0.89551 0.32198 0.0
O57 O 0.20487 0.05878 0.34701 0.0
O58 O 0.225 0.95319 0.45505 0.0
O59 O 0.11155 0.9746 0.37166 0.0
O60 O 0.2453 0.0083 0.42831 0.0
O61 O 0.14725 0.04316 0.32618 0.0
O62 O 0.14637 0.93996 0.43013 0.0
O63 O 0.23304 0.01203 0.24319 0.0
O64 O 0.24542 0.91172 0.34188 0.0
O65 O 0.13693 0.93404 0.26319 0.0
Sc66 Sc 0.49049 0.23633 0.83517 0.0
Sc67 Sc 0.51401 0.14635 0.79312 0.0
Sc68 Sc 0.57216 0.19683 0.88355 0.0
O69 O 0.52539 0.19302 0.83728 0.0
C70 C 0.57034 0.27314 0.8223 0.0
C71 C 0.49352 0.21008 0.70296 0.0
C72 C 0.59956 0.14609 0.77823 0.0
C73 C 0.43496 0.16912 0.83855 0.0
C74 C 0.51628 0.24176 0.96451 0.0
C75 C 0.5427 0.11854 0.91741 0.0
O76 O 0.53549 0.27508 0.82504 0.0
O77 O 0.50097 0.1767 0.71422 0.0
O78 O 0.6051 0.16514 0.82356 0.0
O79 O 0.44138 0.20313 0.84401 0.0
O80 O 0.54761 0.22892 0.95205 0.0
O81 O 0.5279 0.11227 0.86807 0.0
O82 O 0.49016 0.24263 0.92825 0.0
O83 O 0.45868 0.14617 0.82195 0.0
O84 O 0.55799 0.14864 0.93068 0.0
O85 O 0.48843 0.23398 0.74225 0.0
O86 O 0.58815 0.24501 0.83793 0.0
O87 O 0.56782 0.13978 0.75886 0.0
Sc88 Sc 0.80126 0.42748 0.11464 0.0
Sc89 Sc 0.85131 0.48139 0.21086 0.0
Sc90 Sc 0.76134 0.50679 0.17215 0.0
O91 O 0.80463 0.4721 0.16589 0.0
C92 C 0.75538 0.48585 0.04052 0.0
C93 C 0.87982 0.45572 0.08517 0.0
C94 C 0.82978 0.56101 0.16748 0.0
C95 C 0.84977 0.39642 0.21964 0.0
C96 C 0.72524 0.42644 0.17851 0.0
C97 C 0.78914 0.5027 0.30273 0.0
O98 O 0.76951 0.4546 0.04887 0.0
O99 O 0.88596 0.46637 0.13712 0.0
O100 O 0.79539 0.55558 0.16544 0.0
O101 O 0.83418 0.39308 0.1706 0.0
O102 O 0.72341 0.46133 0.1801 0.0
O103 O 0.82232 0.49604 0.28983 0.0
O104 O 0.75304 0.40928 0.1594 0.0
O105 O 0.854 0.42694 0.24474 0.0
O106 O 0.76426 0.50648 0.26482 0.0
O107 O 0.84891 0.44405 0.06815 0.0
O108 O 0.75292 0.50996 0.07992 0.0
O109 O 0.85284 0.53656 0.18116 0.0
Sc110 Sc 0.99014 0.76215 0.68076 0.0
Sc111 Sc 0.01502 0.85363 0.71061 0.0
Sc112 Sc 0.07122 0.79963 0.62131 0.0
O113 O 0.02539 0.80516 0.6706 0.0
C114 C 0.06905 0.72438 0.68972 0.0
C115 C 0.9956 0.79507 0.80914 0.0
C116 C 0.10159 0.85104 0.72301 0.0
C117 C 0.93497 0.82856 0.6711 0.0
C118 C 0.01243 0.75449 0.54717 0.0
C119 C 0.04226 0.87912 0.58578 0.0
O120 O 0.03479 0.72525 0.6992 0.0
O121 O 0.00677 0.8264 0.79284 0.0
O122 O 0.10652 0.82747 0.68307 0.0
O123 O 0.94173 0.79475 0.66448 0.0
O124 O 0.0424 0.77167 0.55268 0.0
O125 O 0.02437 0.88527 0.63226 0.0
O126 O 0.99038 0.74898 0.58898 0.0
O127 O 0.95839 0.8516 0.68859 0.0
O128 O 0.0602 0.84989 0.57656 0.0
O129 O 0.98631 0.77 0.77376 0.0
O130 O 0.08621 0.74891 0.66179 0.0
O131 O 0.07018 0.86261 0.73703 0.0
Sc132 Sc 0.73828 0.99192 0.17314 0.0
Sc133 Sc 0.64812 0.018 0.21035 0.0
Sc134 Sc 0.69934 0.07237 0.11574 0.0
O135 O 0.69524 0.02728 0.16635 0.0
C136 C 0.77601 0.07146 0.17831 0.0
C137 C 0.70952 0.99669 0.30367 0.0
C138 C 0.65046 0.1036 0.22028 0.0
C139 C 0.67015 0.93776 0.16875 0.0
C140 C 0.74423 0.01334 0.04075 0.0
C141 C 0.61999 0.04452 0.08528 0.0
O142 O 0.7765 0.03667 0.18211 0.0
O143 O 0.67701 0.0054 0.28967 0.0
O144 O 0.66824 0.10747 0.17324 0.0
O145 O 0.7044 0.94337 0.16511 0.0
O146 O 0.72944 0.04434 0.0489 0.0
O147 O 0.614 0.03143 0.13578 0.0
O148 O 0.74757 0.98956 0.0806 0.0
O149 O 0.64722 0.96219 0.18305 0.0
O150 O 0.65052 0.05802 0.0699 0.0
O151 O 0.73458 0.99096 0.2665 0.0
O152 O 0.74874 0.08933 0.15892 0.0
O153 O 0.64375 0.0727 0.24264 0.0
Sc154 Sc 0.42928 0.70172 0.62226 0.0
Sc155 Sc 0.48545 0.64703 0.71052 0.0
Sc156 Sc 0.51109 0.73826 0.68043 0.0
O157 O 0.47534 0.69564 0.67082 0.0
C158 C 0.48796 0.74687 0.54751 0.0
C159 C 0.45695 0.62213 0.58574 0.0
C160 C 0.5656 0.67092 0.67002 0.0
C161 C 0.39914 0.64996 0.724 0.0
C162 C 0.43226 0.77684 0.69039 0.0
C163 C 0.50571 0.70555 0.80913 0.0
O164 O 0.45729 0.7312 0.55449 0.0
O165 O 0.47419 0.61555 0.63269 0.0
O166 O 0.55942 0.70501 0.66554 0.0
O167 O 0.39425 0.67281 0.68304 0.0
O168 O 0.46679 0.77612 0.6976 0.0
O169 O 0.49545 0.67395 0.7926 0.0
O170 O 0.41448 0.75182 0.66463 0.0
O171 O 0.43057 0.63904 0.73913 0.0
O172 O 0.51408 0.731 0.77379 0.0
O173 O 0.44027 0.65201 0.57575 0.0
O174 O 0.51133 0.75054 0.58805 0.0
O175 O 0.54174 0.64794 0.68612 0.0
Sc176 Sc 0.73723 0.50789 0.67273 0.0
Sc177 Sc 0.64595 0.48471 0.7103 0.0
Sc178 Sc 0.69745 0.42677 0.6203 0.0
O179 O 0.69345 0.47325 0.66768 0.0
C180 C 0.74229 0.48373 0.54139 0.0
C181 C 0.67062 0.56385 0.66641 0.0
C182 C 0.61834 0.45607 0.58685 0.0
C183 C 0.70764 0.50536 0.80312 0.0
C184 C 0.77422 0.42832 0.68357 0.0
C185 C 0.64702 0.39848 0.72492 0.0
O186 O 0.74732 0.50759 0.58064 0.0
O187 O 0.64737 0.54056 0.68364 0.0
O188 O 0.64784 0.43918 0.57537 0.0
O189 O 0.73228 0.51087 0.76522 0.0
O190 O 0.74727 0.41083 0.66259 0.0
O191 O 0.63761 0.43014 0.74167 0.0
O192 O 0.77521 0.46313 0.68639 0.0
O193 O 0.67494 0.49644 0.79035 0.0
O194 O 0.6683 0.39328 0.68208 0.0
O195 O 0.70447 0.5569 0.66041 0.0
O196 O 0.72616 0.45352 0.55057 0.0
O197 O 0.61248 0.47282 0.63454 0.0
Sc198 Sc 0.98923 0.73638 0.17688 0.0
Sc199 Sc 0.01556 0.64645 0.21478 0.0
Sc200 Sc 0.07155 0.69962 0.12476 0.0
O201 O 0.02536 0.69408 0.17224 0.0
C202 C 0.01398 0.74418 0.04649 0.0
C203 C 0.93573 0.66786 0.17075 0.0
C204 C 0.04412 0.62052 0.08996 0.0
C205 C 0.99299 0.70776 0.30822 0.0
C206 C 0.068 0.77578 0.18671 0.0
C207 C 0.10122 0.64868 0.22842 0.0
O208 O 0.98823 0.74435 0.0836 0.0
O209 O 0.96014 0.64528 0.18613 0.0
O210 O 0.05848 0.65114 0.07687 0.0
O211 O 0.98741 0.73269 0.27058 0.0
O212 O 0.08676 0.74841 0.17021 0.0
O213 O 0.06987 0.64064 0.24802 0.0
O214 O 0.03311 0.77586 0.18702 0.0
O215 O 0.00198 0.6752 0.29435 0.0
O216 O 0.10565 0.66853 0.18366 0.0
O217 O 0.94109 0.70212 0.16717 0.0
O218 O 0.04553 0.73143 0.05752 0.0
O219 O 0.02984 0.6136 0.13933 0.0
Sc220 Sc 0.80146 0.07285 0.6198 0.0
Sc221 Sc 0.85379 0.01595 0.70961 0.0
Sc222 Sc 0.76381 0.99138 0.67107 0.0
O223 O 0.8065 0.02667 0.66711 0.0
C224 C 0.72553 0.07067 0.68069 0.0
C225 C 0.85294 0.10136 0.72374 0.0
C226 C 0.7913 0.99475 0.8019 0.0
C227 C 0.87987 0.04465 0.58461 0.0
C228 C 0.75782 0.01502 0.54143 0.0
C229 C 0.83134 0.93663 0.66612 0.0
O230 O 0.75372 0.0891 0.66715 0.0
O231 O 0.85945 0.06992 0.74447 0.0
O232 O 0.76623 0.99137 0.76397 0.0
O233 O 0.8491 0.05844 0.5709 0.0
O234 O 0.75864 0.98917 0.57814 0.0
O235 O 0.8547 0.96091 0.67888 0.0
O236 O 0.76823 0.04737 0.55312 0.0
O237 O 0.88686 0.03112 0.63454 0.0
O238 O 0.79712 0.94241 0.66531 0.0
O239 O 0.83409 0.10607 0.67795 0.0
O240 O 0.72446 0.03582 0.67784 0.0
O241 O 0.82463 0.0012 0.78891 0.0
Sc242 Sc 0.42782 0.79972 0.12355 0.0
Sc243 Sc 0.48378 0.8541 0.21158 0.0
Sc244 Sc 0.50975 0.76332 0.17863 0.0
O245 O 0.47386 0.80577 0.17131 0.0
C246 C 0.43087 0.72425 0.18762 0.0
C247 C 0.39803 0.85194 0.22551 0.0
C248 C 0.5048 0.79428 0.30835 0.0
C249 C 0.45515 0.87848 0.08609 0.0
C250 C 0.48639 0.75466 0.04751 0.0
C251 C 0.56379 0.83138 0.17082 0.0
O252 O 0.41234 0.75155 0.17038 0.0
O253 O 0.42943 0.86062 0.2441 0.0
O254 O 0.51043 0.76828 0.2725 0.0
O255 O 0.44061 0.84776 0.07408 0.0
O256 O 0.5117 0.75463 0.08542 0.0
O257 O 0.53927 0.85451 0.18341 0.0
O258 O 0.4546 0.76729 0.05747 0.0
O259 O 0.46996 0.88576 0.1349 0.0
O260 O 0.55831 0.79708 0.16983 0.0
O261 O 0.39342 0.83125 0.18171 0.0
O262 O 0.46575 0.72387 0.18832 0.0
O263 O 0.49679 0.82669 0.29236 0.0
Sc264 Sc 0.23875 0.49236 0.83072 0.0
Sc265 Sc 0.14784 0.51847 0.7975 0.0
Sc266 Sc 0.20008 0.5719 0.89182 0.0
O267 O 0.19556 0.52741 0.84006 0.0
C268 C 0.24599 0.51238 0.96394 0.0
C269 C 0.1706 0.43802 0.83712 0.0
C270 C 0.12104 0.54406 0.92359 0.0
C271 C 0.20782 0.49819 0.70145 0.0
C272 C 0.27548 0.57237 0.82473 0.0
C273 C 0.14972 0.60419 0.79009 0.0
O274 O 0.24956 0.48928 0.92307 0.0
O275 O 0.14745 0.46246 0.82373 0.0
O276 O 0.15181 0.55714 0.93867 0.0
O277 O 0.2335 0.49192 0.73732 0.0
O278 O 0.24868 0.58939 0.84732 0.0
O279 O 0.14292 0.57353 0.76682 0.0
O280 O 0.27665 0.53758 0.82023 0.0
O281 O 0.17556 0.50658 0.71707 0.0
O282 O 0.16841 0.6075 0.83628 0.0
O283 O 0.20492 0.44368 0.83967 0.0
O284 O 0.23077 0.54325 0.95704 0.0
O285 O 0.11459 0.53136 0.87306 0.0
Sc286 Sc 0.92757 0.19853 0.38161 0.0
Sc287 Sc 0.98732 0.1468 0.29536 0.0
Sc288 Sc 0.00957 0.23838 0.32996 0.0
O289 O 0.97493 0.19456 0.33595 0.0
C290 C 0.93053 0.27568 0.31851 0.0
C291 C 0.90073 0.14783 0.27778 0.0
C292 C 0.00736 0.20695 0.2002 0.0
C293 C 0.95694 0.1189 0.41625 0.0
C294 C 0.98384 0.24238 0.4624 0.0
C295 C 0.06627 0.17299 0.33878 0.0
O296 O 0.91319 0.25029 0.34408 0.0
O297 O 0.93273 0.13655 0.26691 0.0
O298 O 0.01564 0.23161 0.23701 0.0
O299 O 0.93731 0.14719 0.42374 0.0
O300 O 0.00652 0.2503 0.42234 0.0
O301 O 0.04374 0.14986 0.31885 0.0
O302 O 0.9547 0.22441 0.45321 0.0
O303 O 0.97767 0.11415 0.37244 0.0
O304 O 0.05837 0.20638 0.34767 0.0
O305 O 0.89429 0.1721 0.31603 0.0
O306 O 0.96493 0.27512 0.31026 0.0
O307 O 0.99603 0.17532 0.21463 0.0
Sc308 Sc 0.30056 0.92853 0.89256 0.0
Sc309 Sc 0.35009 0.9821 0.79515 0.0
Sc310 Sc 0.2605 0.00781 0.83602 0.0
O311 O 0.30377 0.97307 0.84125 0.0
C312 C 0.22477 0.92728 0.82848 0.0
C313 C 0.34993 0.89706 0.78862 0.0
C314 C 0.28696 0.00265 0.70487 0.0
C315 C 0.37904 0.95693 0.9208 0.0
C316 C 0.25486 0.98676 0.96739 0.0
C317 C 0.32883 0.06218 0.83818 0.0
O318 O 0.25265 0.91013 0.84726 0.0
O319 O 0.35323 0.9273 0.76229 0.0
O320 O 0.26285 0.00762 0.74361 0.0
O321 O 0.34814 0.94561 0.93855 0.0
O322 O 0.25271 0.01104 0.92829 0.0
O323 O 0.35171 0.03775 0.82351 0.0
O324 O 0.26853 0.95535 0.95851 0.0
O325 O 0.38496 0.96746 0.86871 0.0
O326 O 0.29454 0.05656 0.84218 0.0
O327 O 0.33395 0.89412 0.83739 0.0
O328 O 0.22259 0.96219 0.82816 0.0
O329 O 0.32028 0.99573 0.71648 0.0
Sc330 Sc 0.49096 0.26165 0.33023 0.0
Sc331 Sc 0.51464 0.3531 0.29684 0.0
Sc332 Sc 0.57235 0.30071 0.38529 0.0
O333 O 0.52583 0.30518 0.33783 0.0
C334 C 0.51453 0.25755 0.4639 0.0
C335 C 0.43477 0.32735 0.33696 0.0
C336 C 0.54312 0.38087 0.4185 0.0
C337 C 0.49609 0.29319 0.20093 0.0
C338 C 0.56966 0.22365 0.32137 0.0
C339 C 0.60141 0.35054 0.28217 0.0
O340 O 0.49287 0.24915 0.42266 0.0
O341 O 0.45769 0.35015 0.31714 0.0
O342 O 0.56283 0.35264 0.42625 0.0
O343 O 0.48599 0.26884 0.23708 0.0
O344 O 0.58662 0.24842 0.34905 0.0
O345 O 0.56996 0.36335 0.27126 0.0
O346 O 0.53553 0.2248 0.3109 0.0
O347 O 0.50778 0.32455 0.21597 0.0
O348 O 0.60674 0.32582 0.32004 0.0
O349 O 0.44239 0.29406 0.34718 0.0
O350 O 0.54364 0.27587 0.4562 0.0
O351 O 0.52262 0.38551 0.37444 0.0
C352 C 0.43667 0.57725 0.44337 0.0
C353 C 0.41037 0.55133 0.46039 0.0
C354 C 0.45567 0.59779 0.48509 0.0
C355 C 0.44966 0.59216 0.54477 0.0
H356 H 0.43936 0.58478 0.39802 0.0
H357 H 0.47257 0.62039 0.47066 0.0
S358 S 0.38833 0.52319 0.61095 0.0
N359 N 0.38255 0.51807 0.5402 0.0
N360 N 0.41943 0.55561 0.6186 0.0
C361 C 0.42689 0.56324 0.56201 0.0
C362 C 0.40688 0.54302 0.51967 0.0
C363 C 0.93797 0.42478 0.06121 0.0
C364 C 0.91045 0.44954 0.04488 0.0
C365 C 0.95751 0.4052 0.01895 0.0
C366 C 0.95066 0.41052 0.95937 0.0
H367 H 0.9412 0.4171 0.10641 0.0
H368 H 0.97529 0.38317 0.03294 0.0
S369 S 0.88671 0.47777 0.89499 0.0
N370 N 0.88125 0.48241 0.96589 0.0
N371 N 0.91878 0.44639 0.88645 0.0
C372 C 0.92691 0.43882 0.94281 0.0
C373 C 0.90652 0.45818 0.98574 0.0
C374 C 0.07073 0.938 0.55961 0.0
C375 C 0.04794 0.90872 0.54361 0.0
C376 C 0.09003 0.95777 0.51732 0.0
C377 C 0.08624 0.94942 0.45799 0.0
H378 H 0.0771 0.94272 0.60499 0.0
H379 H 0.1107 0.97709 0.53137 0.0
S380 S 0.02536 0.87933 0.39387 0.0
N381 N 0.01936 0.8752 0.46476 0.0
N382 N 0.05454 0.91338 0.38514 0.0
C383 C 0.06012 0.92333 0.44137 0.0
C384 C 0.0412 0.90262 0.48437 0.0
C385 C 0.57317 0.06068 0.94338 0.0
C386 C 0.54861 0.08857 0.95891 0.0
C387 C 0.5936 0.04241 0.98604 0.0
C388 C 0.58927 0.05089 0.04529 0.0
H389 H 0.58008 0.05627 0.89811 0.0
H390 H 0.61539 0.02427 0.97231 0.0
S391 S 0.5235 0.11693 0.10819 0.0
N392 N 0.51746 0.12026 0.03724 0.0
N393 N 0.55489 0.08497 0.11753 0.0
C394 C 0.56131 0.07513 0.06149 0.0
C395 C 0.54113 0.09426 0.01809 0.0
C396 C 0.54137 0.40642 0.518 0.0
C397 C 0.54953 0.41125 0.45882 0.0
C398 C 0.56026 0.42613 0.56081 0.0
C399 C 0.5884 0.45044 0.54538 0.0
H400 H 0.52299 0.38476 0.53141 0.0
H401 H 0.55601 0.41891 0.606 0.0
S402 S 0.61645 0.47619 0.39632 0.0
N403 N 0.58388 0.44545 0.3868 0.0
N404 N 0.62031 0.48163 0.46735 0.0
C405 C 0.594 0.45825 0.48635 0.0
C406 C 0.57427 0.43878 0.44288 0.0
C407 C 0.0954 0.54372 0.02319 0.0
C408 C 0.09057 0.55106 0.9637 0.0
C409 C 0.07543 0.56292 0.0653 0.0
C410 C 0.05085 0.59057 0.0489 0.0
H411 H 0.11722 0.52575 0.03732 0.0
H412 H 0.08258 0.55925 0.11063 0.0
S413 S 0.02378 0.61541 0.89904 0.0
N414 N 0.05525 0.58343 0.89054 0.0
N415 N 0.01872 0.62053 0.96993 0.0
C416 C 0.04282 0.59514 0.98975 0.0
C417 C 0.06248 0.57501 0.9469 0.0
C418 C 0.95765 0.09395 0.51603 0.0
C419 C 0.95012 0.08869 0.45672 0.0
C420 C 0.93803 0.07486 0.55872 0.0
C421 C 0.90973 0.0508 0.54303 0.0
H422 H 0.97609 0.11554 0.52953 0.0
H423 H 0.94199 0.08232 0.60388 0.0
S424 S 0.88327 0.02383 0.39372 0.0
N425 N 0.91624 0.05419 0.38448 0.0
N426 N 0.87845 0.01917 0.46474 0.0
C427 C 0.90469 0.04254 0.484 0.0
C428 C 0.9252 0.06134 0.44068 0.0
C429 C 0.43539 0.92283 0.94307 0.0
C430 C 0.40988 0.94955 0.9599 0.0
C431 C 0.45389 0.90203 0.98496 0.0
C432 C 0.44822 0.90825 0.0446 0.0
H433 H 0.4376 0.91479 0.89787 0.0
H434 H 0.47004 0.87883 0.97075 0.0
S435 S 0.38959 0.97986 0.11003 0.0
N436 N 0.38366 0.98454 0.03925 0.0
N437 N 0.41965 0.94651 0.11803 0.0
C438 C 0.4266 0.93814 0.06154 0.0
C439 C 0.4071 0.95865 0.019 0.0
C440 C 0.36817 0.39294 0.39871 0.0
C441 C 0.34445 0.39805 0.35137 0.0
C442 C 0.39465 0.36525 0.39792 0.0
C443 C 0.39829 0.34204 0.3496 0.0
H444 H 0.36886 0.41284 0.43362 0.0
H445 H 0.41499 0.36473 0.43217 0.0
S446 S 0.33974 0.34123 0.21847 0.0
N447 N 0.32336 0.37511 0.2583 0.0
N448 N 0.37355 0.32319 0.25651 0.0
C449 C 0.37225 0.34437 0.30499 0.0
C450 C 0.34511 0.37244 0.30597 0.0
C451 C 0.12717 0.34828 0.80382 0.0
C452 C 0.10093 0.34633 0.84838 0.0
C453 C 0.15419 0.37562 0.8043 0.0
C454 C 0.15545 0.40163 0.84927 0.0
H455 H 0.12433 0.33131 0.76547 0.0
H456 H 0.17138 0.37891 0.7663 0.0
S457 S 0.09628 0.40459 0.97974 0.0
N458 N 0.08071 0.36955 0.94175 0.0
N459 N 0.13129 0.42096 0.94253 0.0
C460 C 0.13188 0.39736 0.89688 0.0
C461 C 0.10459 0.36961 0.89646 0.0
C462 C 0.13343 0.10816 0.40119 0.0
C463 C 0.15727 0.10323 0.35392 0.0
C464 C 0.10665 0.13558 0.40024 0.0
C465 C 0.1029 0.15878 0.35193 0.0
H466 H 0.13277 0.08818 0.43598 0.0
H467 H 0.08618 0.13586 0.43432 0.0
S468 S 0.16177 0.16014 0.22112 0.0
N469 N 0.17832 0.12637 0.26098 0.0
N470 N 0.12775 0.1779 0.25906 0.0
C471 C 0.12911 0.15673 0.30753 0.0
C472 C 0.15647 0.12887 0.30857 0.0
C473 C 0.36867 0.1019 0.89698 0.0
C474 C 0.3442 0.09853 0.85024 0.0
C475 C 0.39543 0.12929 0.89736 0.0
C476 C 0.39857 0.15405 0.85094 0.0
H477 H 0.36958 0.08099 0.93035 0.0
H478 H 0.41623 0.12856 0.93091 0.0
S479 S 0.33807 0.15955 0.72233 0.0
N480 N 0.32202 0.12452 0.7599 0.0
N481 N 0.3726 0.1761 0.7605 0.0
C482 C 0.37186 0.15337 0.80718 0.0
C483 C 0.34452 0.12547 0.80684 0.0
C484 C 0.87225 0.65153 0.19835 0.0
C485 C 0.90002 0.65205 0.15609 0.0
C486 C 0.84508 0.62432 0.19738 0.0
C487 C 0.84522 0.59711 0.15418 0.0
H488 H 0.87388 0.66954 0.23566 0.0
H489 H 0.82661 0.62211 0.23404 0.0
S490 S 0.9087 0.59033 0.02928 0.0
N491 N 0.92323 0.62625 0.06623 0.0
N492 N 0.87232 0.57522 0.06443 0.0
C493 C 0.87036 0.60002 0.10837 0.0
C494 C 0.89783 0.62754 0.10935 0.0
C495 C 0.8725 0.84617 0.70056 0.0
C496 C 0.899 0.84356 0.65652 0.0
C497 C 0.8461 0.87406 0.6994 0.0
C498 C 0.84588 0.9 0.65435 0.0
H499 H 0.87478 0.82936 0.73918 0.0
H500 H 0.82872 0.87784 0.73707 0.0
S501 S 0.90569 0.90107 0.52459 0.0
N502 N 0.92024 0.86583 0.56312 0.0
N503 N 0.87089 0.91842 0.56119 0.0
C504 C 0.86952 0.89502 0.60704 0.0
C505 C 0.89611 0.86662 0.60805 0.0
C506 C 0.60315 0.87089 0.11127 0.0
C507 C 0.60008 0.84651 0.15819 0.0
C508 C 0.63018 0.89797 0.11075 0.0
C509 C 0.6549 0.9014 0.1571 0.0
H510 H 0.58219 0.87155 0.07798 0.0
H511 H 0.62924 0.91868 0.07708 0.0
S512 S 0.66139 0.84106 0.28578 0.0
N513 N 0.62646 0.82461 0.24844 0.0
N514 N 0.6775 0.87573 0.24744 0.0
C515 C 0.65468 0.87471 0.20089 0.0
C516 C 0.6271 0.84707 0.20143 0.0
C517 C 0.62865 0.65421 0.69877 0.0
C518 C 0.6016 0.6557 0.65546 0.0
C519 C 0.65562 0.62681 0.69773 0.0
C520 C 0.65606 0.60035 0.65339 0.0
H521 H 0.62648 0.67152 0.73685 0.0
H522 H 0.6734 0.62382 0.7351 0.0
S523 S 0.59451 0.59604 0.52594 0.0
N524 N 0.57967 0.63151 0.5637 0.0
N525 N 0.63023 0.58009 0.56183 0.0
C526 C 0.63172 0.60422 0.60674 0.0
C527 C 0.60442 0.63196 0.60776 0.0
C528 C 0.23401 0.5114 0.06985 0.0
C529 C 0.25753 0.50285 0.02356 0.0
C530 C 0.24473 0.50619 0.12752 0.0
C531 C 0.27978 0.4929 0.14158 0.0
H532 H 0.20715 0.52274 0.06142 0.0
H533 H 0.22571 0.51411 0.16139 0.0
S534 S 0.35118 0.46497 0.03588 0.0
N535 N 0.31677 0.47885 0.99488 0.0
N536 N 0.33756 0.46991 0.10394 0.0
C537 C 0.30338 0.48343 0.09559 0.0
C538 C 0.29206 0.48808 0.03644 0.0
C539 C 0.01247 0.29927 0.59365 0.0
C540 C 0.00162 0.27707 0.64056 0.0
C541 C 0.00795 0.28747 0.53581 0.0
C542 C 0.9915 0.25355 0.52311 0.0
H543 H 0.02446 0.32588 0.6017 0.0
H544 H 0.01632 0.30546 0.50085 0.0
S545 S 0.95799 0.18543 0.63038 0.0
N546 N 0.97378 0.21948 0.67017 0.0
N547 N 0.96497 0.19774 0.56229 0.0
C548 C 0.98077 0.23111 0.56974 0.0
C549 C 0.98589 0.24276 0.62822 0.0
C550 C 0.26551 0.98563 0.07356 0.0
C551 C 0.24291 0.99549 0.02685 0.0
C552 C 0.25445 0.99143 0.1309 0.0
C553 C 0.21997 0.00653 0.14381 0.0
H554 H 0.29191 0.97308 0.06571 0.0
H555 H 0.2726 0.98265 0.16542 0.0
S556 S 0.15104 0.03778 0.03666 0.0
N557 N 0.1852 0.02231 0.99655 0.0
N558 N 0.16368 0.03214 0.10504 0.0
C559 C 0.19725 0.017 0.09744 0.0
C560 C 0.20897 0.01184 0.03874 0.0
C561 C 0.49143 0.21172 0.53699 0.0
C562 C 0.50574 0.24657 0.52431 0.0
C563 C 0.48684 0.20001 0.59488 0.0
C564 C 0.49548 0.22316 0.64189 0.0
H565 H 0.48508 0.1929 0.50204 0.0
H566 H 0.4768 0.1726 0.60289 0.0
S567 S 0.53233 0.31779 0.63132 0.0
N568 N 0.52738 0.30445 0.56327 0.0
N569 N 0.51842 0.28299 0.67123 0.0
C570 C 0.50869 0.25854 0.6294 0.0
C571 C 0.51389 0.2701 0.57086 0.0
C572 C 0.74274 0.48703 0.37755 0.0
C573 C 0.77754 0.50127 0.36427 0.0
C574 C 0.73161 0.48186 0.43503 0.0
C575 C 0.75445 0.4915 0.48159 0.0
H576 H 0.7243 0.47856 0.34323 0.0
H577 H 0.70491 0.47005 0.4431 0.0
S578 S 0.84742 0.53131 0.47079 0.0
N579 N 0.83451 0.52563 0.40256 0.0
N580 N 0.81294 0.51694 0.51122 0.0
C581 C 0.78883 0.50684 0.46928 0.0
C582 C 0.80058 0.51138 0.41046 0.0
C583 C 0.9714 0.7641 0.89887 0.0
C584 C 0.9984 0.78551 0.87154 0.0
C585 C 0.97575 0.75201 0.95656 0.0
C586 C 0.0078 0.75992 0.98799 0.0
H587 H 0.94696 0.75635 0.8753 0.0
H588 H 0.95458 0.73521 0.97585 0.0
S589 S 0.08674 0.81459 0.93588 0.0
N590 N 0.05799 0.81436 0.8806 0.0
N591 N 0.06664 0.7908 0.98784 0.0
C592 C 0.0348 0.78147 0.96118 0.0
C593 C 0.02998 0.79449 0.90327 0.0
C594 C 0.70347 0.024 0.4025 0.0
C595 C 0.71972 0.99773 0.3659 0.0
C596 C 0.71577 0.02915 0.45959 0.0
C597 C 0.744 0.00755 0.48257 0.0
H598 H 0.68215 0.04183 0.38621 0.0
H599 H 0.70329 0.05039 0.48582 0.0
S600 S 0.79472 0.93422 0.40616 0.0
N601 N 0.76526 0.94948 0.3574 0.0
N602 N 0.78737 0.95844 0.46565 0.0
C603 C 0.75968 0.9804 0.44741 0.0
C604 C 0.7478 0.97569 0.38877 0.0
C605 C 0.52398 0.75005 0.95631 0.0
C606 C 0.49342 0.73907 0.98913 0.0
C607 C 0.52844 0.7385 0.89831 0.0
C608 C 0.50313 0.71465 0.87193 0.0
H609 H 0.5437 0.76887 0.97474 0.0
H610 H 0.55159 0.74863 0.87373 0.0
S611 S 0.41931 0.67698 0.94055 0.0
N612 N 0.43795 0.70265 0.99163 0.0
N613 N 0.44684 0.68002 0.88388 0.0
C614 C 0.47319 0.70255 0.90522 0.0
C615 C 0.46821 0.71501 0.96348 0.0
C616 C 0.75486 0.49146 0.87724 0.0
C617 C 0.71946 0.5043 0.86448 0.0
C618 C 0.7663 0.48627 0.93451 0.0
C619 C 0.74313 0.49453 0.98129 0.0
H620 H 0.77354 0.48396 0.84265 0.0
H621 H 0.79341 0.47534 0.94227 0.0
S622 S 0.64869 0.53071 0.972 0.0
N623 N 0.66164 0.5261 0.90355 0.0
N624 N 0.68382 0.51741 0.01193 0.0
C625 C 0.7082 0.50866 0.9696 0.0
C626 C 0.69614 0.51318 0.91097 0.0
C627 C 0.01186 0.69603 0.41153 0.0
C628 C 0.99299 0.71804 0.371 0.0
C629 C 0.01693 0.70741 0.46926 0.0
C630 C 0.00289 0.74091 0.48886 0.0
H631 H 0.02426 0.67049 0.39808 0.0
H632 H 0.03285 0.69038 0.49833 0.0
S633 S 0.94886 0.80742 0.40328 0.0
N634 N 0.95827 0.77428 0.35677 0.0
N635 N 0.9678 0.79515 0.46545 0.0
C636 C 0.98273 0.7625 0.4501 0.0
C637 C 0.97772 0.75117 0.39116 0.0
C638 C 0.73301 0.013 0.93462 0.0
C639 C 0.75633 0.00468 0.98119 0.0
C640 C 0.7443 0.00818 0.87711 0.0
C641 C 0.77974 0.99562 0.86369 0.0
H642 H 0.70585 0.02374 0.94271 0.0
H643 H 0.7254 0.01573 0.84288 0.0
S644 S 0.85102 0.96929 0.97048 0.0
N645 N 0.81593 0.98216 0.01088 0.0
N646 N 0.83781 0.97404 0.9022 0.0
C647 C 0.80323 0.98666 0.91 0.0
C648 C 0.79132 0.99087 0.9689 0.0
C649 C 0.52563 0.75739 0.3947 0.0
C650 C 0.5037 0.78555 0.37149 0.0
C651 C 0.52196 0.74624 0.453 0.0
C652 C 0.49571 0.76235 0.48955 0.0
H653 H 0.54529 0.74343 0.36735 0.0
H654 H 0.53863 0.72386 0.46882 0.0
S655 S 0.43169 0.83697 0.45097 0.0
N656 N 0.45533 0.82971 0.39091 0.0
N657 N 0.44796 0.8079 0.49941 0.0
C658 C 0.47413 0.79081 0.46741 0.0
C659 C 0.47828 0.80268 0.40868 0.0
C660 C 0.24262 0.47576 0.61447 0.0
C661 C 0.21697 0.50003 0.63889 0.0
C662 C 0.25414 0.47962 0.55651 0.0
C663 C 0.24122 0.50854 0.52189 0.0
H664 H 0.25416 0.45396 0.64053 0.0
H665 H 0.27435 0.46079 0.53944 0.0
S666 S 0.17367 0.57911 0.56468 0.0
N667 N 0.17834 0.55333 0.62313 0.0
N668 N 0.20098 0.56115 0.51517 0.0
C669 C 0.21529 0.53261 0.54546 0.0
C670 C 0.20288 0.5282 0.60374 0.0
C671 C 0.97598 0.20502 0.10431 0.0
C672 C 0.00566 0.21725 0.13808 0.0
C673 C 0.97046 0.21795 0.04769 0.0
C674 C 0.99496 0.24277 0.02217 0.0
H675 H 0.95593 0.18648 0.1226 0.0
H676 H 0.9467 0.20861 0.02379 0.0
S677 S 0.07786 0.28193 0.09072 0.0
N678 N 0.06024 0.25515 0.14135 0.0
N679 N 0.0506 0.2783 0.03375 0.0
C680 C 0.02547 0.25424 0.05446 0.0
C681 C 0.0306 0.24182 0.11278 0.0
C682 C 0.28458 0.00774 0.53986 0.0
C683 C 0.25111 0.99059 0.52689 0.0
C684 C 0.29622 0.01194 0.59769 0.0
C685 C 0.27421 1.00007 0.64413 0.0
H686 H 0.30233 0.01692 0.5051 0.0
H687 H 0.32253 0.02447 0.60611 0.0
S688 S 0.18354 0.95464 0.63274 0.0
N689 N 0.19584 0.96244 0.56485 0.0
N690 N 0.21718 0.97077 0.67308 0.0
C691 C 0.24026 0.9837 0.63148 0.0
C692 C 0.22883 0.97886 0.57294 0.0
C693 C 0.47692 0.25173 0.05252 0.0
C694 C 0.51052 0.25665 0.02362 0.0
C695 C 0.47196 0.26395 0.10996 0.0
C696 C 0.50004 0.28255 0.13941 0.0
H697 H 0.45472 0.2374 0.03126 0.0
H698 H 0.44612 0.25879 0.13146 0.0
S699 S 0.5928 0.30296 0.08285 0.0
N700 N 0.57213 0.2815 0.02892 0.0
N701 N 0.56243 0.30527 0.13579 0.0
C702 C 0.5334 0.28831 0.11055 0.0
C703 C 0.53874 0.27515 0.0529 0.0
C704 C 0.15961 0.57805 0.30592 0.0
C705 C 0.19523 0.59203 0.30031 0.0
C706 C 0.12937 0.59729 0.28442 0.0
C707 C 0.13353 0.63103 0.25552 0.0
H708 H 0.15499 0.55202 0.32717 0.0
H709 H 0.10257 0.58501 0.28911 0.0
S710 S 0.22099 0.67991 0.23014 0.0
N711 N 0.23294 0.64216 0.26463 0.0
N712 N 0.17608 0.678 0.22361 0.0
C713 C 0.16896 0.64553 0.25007 0.0
C714 C 0.19977 0.62616 0.27265 0.0
C715 C 0.90377 0.12852 0.7823 0.0
C716 C 0.87089 0.13337 0.75126 0.0
C717 C 0.92304 0.1584 0.8051 0.0
C718 C 0.90982 0.19425 0.79879 0.0
H719 H 0.91531 0.10145 0.78785 0.0
H720 H 0.94838 0.15333 0.8281 0.0
S721 S 0.82498 0.22196 0.72173 0.0
N722 N 0.82599 0.17697 0.71556 0.0
N723 N 0.86186 0.23308 0.75913 0.0
C724 C 0.87675 0.19952 0.76852 0.0
C725 C 0.85741 0.16913 0.74455 0.0
C726 C 0.33989 0.92302 0.30233 0.0
C727 C 0.30454 0.90799 0.30039 0.0
C728 C 0.36995 0.90408 0.27961 0.0
C729 C 0.36587 0.8696 0.25302 0.0
H730 H 0.34443 0.94967 0.32162 0.0
H731 H 0.39652 0.91713 0.28159 0.0
S732 S 0.2791 0.81802 0.23701 0.0
N733 N 0.26716 0.85618 0.27041 0.0
N734 N 0.32371 0.8209 0.22687 0.0
C735 C 0.33072 0.8541 0.25102 0.0
C736 C 0.3001 0.87317 0.27498 0.0
C737 C 0.5761 0.34014 0.80175 0.0
C738 C 0.59117 0.3048 0.7993 0.0
C739 C 0.59502 0.37037 0.77949 0.0
C740 C 0.62954 0.36643 0.75299 0.0
H741 H 0.54944 0.34455 0.82104 0.0
H742 H 0.58192 0.39691 0.78165 0.0
S743 S 0.68125 0.27976 0.73581 0.0
N744 N 0.64305 0.26763 0.7688 0.0
N745 N 0.67832 0.32443 0.7265 0.0
C746 C 0.64509 0.3313 0.75063 0.0
C747 C 0.62601 0.30053 0.77391 0.0
C748 C 0.6595 0.42214 0.20704 0.0
C749 C 0.69383 0.40518 0.2016 0.0
C750 C 0.62977 0.40378 0.23165 0.0
C751 C 0.63308 0.36773 0.2526 0.0
H752 H 0.6555 0.45006 0.19257 0.0
H753 H 0.60417 0.41848 0.23567 0.0
S754 S 0.71665 0.31032 0.24707 0.0
N755 N 0.72919 0.3496 0.2178 0.0
N756 N 0.67313 0.3152 0.26454 0.0
C757 C 0.66704 0.3501 0.24665 0.0
C758 C 0.69738 0.36874 0.22094 0.0
C759 C 0.10968 0.67005 0.68022 0.0
C760 C 0.09042 0.69465 0.71569 0.0
C761 C 0.12959 0.64112 0.7047 0.0
C762 C 0.13182 0.63676 0.76535 0.0
H763 H 0.10861 0.6727 0.63335 0.0
H764 H 0.14321 0.62195 0.67607 0.0
S765 S 0.08754 0.69549 0.8766 0.0
N766 N 0.0752 0.71364 0.81385 0.0
N767 N 0.11369 0.66009 0.8602 0.0
C768 C 0.11353 0.662 0.80119 0.0
C769 C 0.09251 0.69078 0.77622 0.0
C770 C 0.80446 0.12677 0.22424 0.0
C771 C 0.8084 0.0919 0.19906 0.0
C772 C 0.83451 0.14513 0.24858 0.0
C773 C 0.86972 0.12955 0.24775 0.0
H774 H 0.77775 0.13948 0.2269 0.0
H775 H 0.82998 0.1715 0.26881 0.0
S776 S 0.89477 0.03968 0.18286 0.0
N777 N 0.85036 0.04328 0.17196 0.0
N778 N 0.90677 0.07748 0.21702 0.0
C779 C 0.87411 0.09514 0.22072 0.0
C780 C 0.8435 0.0764 0.19662 0.0
C781 C 0.36753 0.85717 0.70492 0.0
C782 C 0.36922 0.86501 0.7647 0.0
C783 C 0.3878 0.82823 0.68103 0.0
C784 C 0.41138 0.80724 0.71585 0.0
H785 H 0.35036 0.87344 0.67656 0.0
H786 H 0.38557 0.82267 0.63491 0.0
S787 S 0.42599 0.81696 0.87444 0.0
N788 N 0.39598 0.84916 0.85818 0.0
N789 N 0.43516 0.79581 0.81268 0.0
C790 C 0.41349 0.8149 0.77548 0.0
C791 C 0.39209 0.84356 0.8001 0.0
C792 C 0.87097 0.40384 0.72825 0.0
C793 C 0.86694 0.36931 0.75463 0.0
C794 C 0.84089 0.42261 0.7053 0.0
C795 C 0.80565 0.40731 0.70672 0.0
H796 H 0.89748 0.41702 0.72666 0.0
H797 H 0.84532 0.44933 0.68621 0.0
S798 S 0.78049 0.31718 0.76962 0.0
N799 N 0.82502 0.32036 0.78035 0.0
N800 N 0.76844 0.35525 0.73606 0.0
C801 C 0.80129 0.37245 0.73195 0.0
C802 C 0.8319 0.3536 0.75628 0.0
C803 C 0.14281 0.83618 0.24935 0.0
C804 C 0.12623 0.87084 0.25127 0.0
C805 C 0.12404 0.80578 0.22727 0.0
C806 C 0.08772 0.80875 0.20733 0.0
H807 H 0.17041 0.83246 0.26541 0.0
H808 H 0.13786 0.77957 0.22719 0.0
S809 S 0.03199 0.89361 0.2032 0.0
N810 N 0.0715 0.90652 0.23104 0.0
N811 N 0.03619 0.84944 0.19005 0.0
C812 C 0.07097 0.84338 0.20857 0.0
C813 C 0.09024 0.8744 0.23032 0.0
C814 C 0.6968 0.12419 0.73117 0.0
C815 C 0.69286 0.09051 0.70208 0.0
C816 C 0.66649 0.14239 0.75491 0.0
C817 C 0.631 0.12794 0.74944 0.0
H818 H 0.72365 0.13615 0.73709 0.0
H819 H 0.67093 0.16783 0.77799 0.0
S820 S 0.6058 0.0414 0.67456 0.0
N821 N 0.6506 0.04409 0.66738 0.0
N822 N 0.59366 0.07824 0.71123 0.0
C823 C 0.62661 0.09476 0.71896 0.0
C824 C 0.65751 0.07604 0.69556 0.0
C825 C 0.37711 0.69578 0.23721 0.0
C826 C 0.41089 0.69168 0.20857 0.0
C827 C 0.3584 0.66543 0.25968 0.0
C828 C 0.37238 0.62983 0.25312 0.0
H829 H 0.36548 0.72273 0.24365 0.0
H830 H 0.33289 0.66991 0.28254 0.0
S831 S 0.45894 0.60434 0.17883 0.0
N832 N 0.45698 0.6493 0.17321 0.0
N833 N 0.4217 0.5922 0.21448 0.0
C834 C 0.40566 0.62531 0.22309 0.0
C835 C 0.42497 0.65625 0.20115 0.0
C836 C 0.37127 0.59697 0.77583 0.0
C837 C 0.36721 0.6323 0.75215 0.0
C838 C 0.34157 0.57808 0.79954 0.0
C839 C 0.30659 0.59387 0.80153 0.0
H840 H 0.39751 0.58324 0.77476 0.0
H841 H 0.34611 0.55078 0.81639 0.0
S842 S 0.28129 0.68611 0.74703 0.0
N843 N 0.32545 0.68261 0.73306 0.0
N844 N 0.26951 0.64727 0.77854 0.0
C845 C 0.30215 0.6295 0.77917 0.0
C846 C 0.33243 0.64861 0.75416 0.0
C847 C 0.89398 0.34522 0.2118 0.0
C848 C 0.86803 0.3644 0.24501 0.0
C849 C 0.91467 0.31694 0.23641 0.0
C850 C 0.90932 0.30636 0.29449 0.0
H851 H 0.89907 0.35286 0.16701 0.0
H852 H 0.93467 0.30298 0.20964 0.0
S853 S 0.84405 0.34749 0.39902 0.0
N854 N 0.83813 0.37117 0.33859 0.0
N855 N 0.87582 0.3167 0.38426 0.0
C856 C 0.8829 0.32481 0.32774 0.0
C857 C 0.86258 0.35427 0.30314 0.0
C858 C 0.12954 0.9039 0.77512 0.0
C859 C 0.13345 0.86845 0.75185 0.0
C860 C 0.15903 0.92233 0.80033 0.0
C861 C 0.19373 0.906 0.8042 0.0
H862 H 0.10357 0.91807 0.77274 0.0
H863 H 0.15452 0.94974 0.81673 0.0
S864 S 0.2184 0.81306 0.75156 0.0
N865 N 0.17463 0.81734 0.7353 0.0
N866 N 0.23025 0.85181 0.78331 0.0
C867 C 0.19799 0.87023 0.78213 0.0
C868 C 0.16788 0.85156 0.75571 0.0
C869 C 0.60987 0.15778 0.21204 0.0
C870 C 0.63276 0.13575 0.24644 0.0
C871 C 0.589 0.18584 0.23699 0.0
C872 C 0.59113 0.19333 0.29681 0.0
H873 H 0.60713 0.15247 0.16591 0.0
H874 H 0.5713 0.20199 0.20925 0.0
S875 S 0.64772 0.14417 0.4051 0.0
N876 N 0.65635 0.12313 0.34302 0.0
N877 N 0.61843 0.17719 0.38956 0.0
C878 C 0.61459 0.17213 0.33138 0.0
C879 C 0.63504 0.1429 0.30626 0.0
loop_
_geom_bond_atom_site_label_1
_geom_bond_atom_site_label_2
_geom_bond_distance
_geom_bond_site_symmetry_2
_ccdc_geom_bond_type
Sc0 O3 2.025 . S
Sc0 O10 2.105 . S
Sc0 O13 2.105 . S
Sc0 O16 2.105 . S
Sc0 O19 2.105 . S
Sc1 O3 2.025 . S
Sc1 O11 2.105 . S
Sc1 O15 2.105 . S
Sc1 O17 2.105 . S
Sc1 O21 2.105 . S
Sc2 O3 2.025 . S
Sc2 O12 2.105 . S
Sc2 O14 2.105 . S
Sc2 O18 2.105 . S
Sc2 O20 2.105 . S
O3 Sc0 2.025 . S
O3 Sc1 2.025 . S
O3 Sc2 2.025 . S
C4 O10 1.268 . S
C4 O20 1.268 . S
C5 O11 1.268 . S
C5 O19 1.268 . S
C6 O12 1.268 . S
C6 O21 1.268 . S
C7 O13 1.268 . S
C7 O17 1.268 . S
C8 O14 1.268 . S
C8 O16 1.268 . S
C9 O15 1.268 . S
C9 O18 1.268 . S
O10 Sc0 2.105 . S
O10 C4 1.268 . S
O11 Sc1 2.105 . S
O11 C5 1.268 . S
O12 Sc2 2.105 . S
O12 C6 1.268 . S
O13 Sc0 2.105 . S
O13 C7 1.268 . S
O14 Sc2 2.105 . S
O14 C8 1.268 . S
O15 Sc1 2.105 . S
O15 C9 1.268 . S
O16 Sc0 2.105 . S
O16 C8 1.268 . S
O17 Sc1 2.105 . S
O17 C7 1.268 . S
O18 Sc2 2.105 . S
O18 C9 1.268 . S
O19 Sc0 2.105 . S
O19 C5 1.268 . S
O20 Sc2 2.105 . S
O20 C4 1.268 . S
O21 Sc1 2.105 . S
O21 C6 1.268 . S
Sc22 O25 2.025 . S
Sc22 O32 2.105 . S
Sc22 O35 2.105 . S
Sc22 O38 2.105 . S
Sc22 O41 2.105 . S
Sc23 O25 2.025 . S
Sc23 O33 2.105 . S
Sc23 O37 2.105 . S
Sc23 O39 2.105 . S
Sc23 O43 2.105 1_655 S
Sc24 O25 2.025 1_455 S
Sc24 O34 2.105 . S
Sc24 O36 2.105 1_455 S
Sc24 O40 2.105 . S
Sc24 O42 2.105 . S
O25 Sc22 2.025 . S
O25 Sc23 2.025 . S
O25 Sc24 2.025 1_655 S
C26 O32 1.268 . S
C26 O42 1.268 1_655 S
C27 O33 1.268 . S
C27 O41 1.268 . S
C28 O34 1.268 . S
C28 O43 1.268 . S
C29 O35 1.268 . S
C29 O39 1.268 . S
C30 O36 1.268 . S
C30 O38 1.268 . S
C31 O37 1.268 . S
C31 O40 1.268 1_655 S
O32 Sc22 2.105 . S
O32 C26 1.268 . S
O33 Sc23 2.105 . S
O33 C27 1.268 . S
O34 Sc24 2.105 . S
O34 C28 1.268 . S
O35 Sc22 2.105 . S
O35 C29 1.268 . S
O36 Sc24 2.105 1_655 S
O36 C30 1.268 . S
O37 Sc23 2.105 . S
O37 C31 1.268 . S
O38 Sc22 2.105 . S
O38 C30 1.268 . S
O39 Sc23 2.105 . S
O39 C29 1.268 . S
O40 Sc24 2.105 . S
O40 C31 1.268 1_455 S
O41 Sc22 2.105 . S
O41 C27 1.268 . S
O42 Sc24 2.105 . S
O42 C26 1.268 1_455 S
O43 Sc23 2.105 1_455 S
O43 C28 1.268 . S
Sc44 O47 2.025 1_545 S
Sc44 O54 2.105 1_545 S
Sc44 O57 2.105 . S
Sc44 O60 2.105 . S
Sc44 O63 2.105 . S
Sc45 O47 2.025 . S
Sc45 O55 2.105 . S
Sc45 O59 2.105 . S
Sc45 O61 2.105 1_565 S
Sc45 O65 2.105 . S
Sc46 O47 2.025 . S
Sc46 O56 2.105 . S
Sc46 O58 2.105 . S
Sc46 O62 2.105 . S
Sc46 O64 2.105 . S
O47 Sc44 2.025 1_565 S
O47 Sc45 2.025 . S
O47 Sc46 2.025 . S
C48 O54 1.268 . S
C48 O64 1.268 . S
C49 O55 1.268 . S
C49 O63 1.268 1_565 S
C50 O56 1.268 . S
C50 O65 1.268 . S
C51 O57 1.268 . S
C51 O61 1.268 . S
C52 O58 1.268 . S
C52 O60 1.268 1_565 S
C53 O59 1.268 . S
C53 O62 1.268 . S
O54 Sc44 2.105 1_565 S
O54 C48 1.268 . S
O55 Sc45 2.105 . S
O55 C49 1.268 . S
O56 Sc46 2.105 . S
O56 C50 1.268 . S
O57 Sc44 2.105 . S
O57 C51 1.268 . S
O58 Sc46 2.105 . S
O58 C52 1.268 . S
O59 Sc45 2.105 . S
O59 C53 1.268 . S
O60 Sc44 2.105 . S
O60 C52 1.268 1_545 S
O61 Sc45 2.105 1_545 S
O61 C51 1.268 . S
O62 Sc46 2.105 . S
O62 C53 1.268 . S
O63 Sc44 2.105 . S
O63 C49 1.268 1_545 S
O64 Sc46 2.105 . S
O64 C48 1.268 . S
O65 Sc45 2.105 . S
O65 C50 1.268 . S
Sc66 O69 2.025 . S
Sc66 O76 2.105 . S
Sc66 O79 2.105 . S
Sc66 O82 2.105 . S
Sc66 O85 2.105 . S
Sc67 O69 2.025 . S
Sc67 O77 2.105 . S
Sc67 O81 2.105 . S
Sc67 O83 2.105 . S
Sc67 O87 2.105 . S
Sc68 O69 2.025 . S
Sc68 O78 2.105 . S
Sc68 O80 2.105 . S
Sc68 O84 2.105 . S
Sc68 O86 2.105 . S
O69 Sc66 2.025 . S
O69 Sc67 2.025 . S
O69 Sc68 2.025 . S
C70 O76 1.268 . S
C70 O86 1.268 . S
C71 O77 1.268 . S
C71 O85 1.268 . S
C72 O78 1.268 . S
C72 O87 1.268 . S
C73 O79 1.268 . S
C73 O83 1.268 . S
C74 O80 1.268 . S
C74 O82 1.268 . S
C75 O81 1.268 . S
C75 O84 1.268 . S
O76 Sc66 2.105 . S
O76 C70 1.268 . S
O77 Sc67 2.105 . S
O77 C71 1.268 . S
O78 Sc68 2.105 . S
O78 C72 1.268 . S
O79 Sc66 2.105 . S
O79 C73 1.268 . S
O80 Sc68 2.105 . S
O80 C74 1.268 . S
O81 Sc67 2.105 . S
O81 C75 1.268 . S
O82 Sc66 2.105 . S
O82 C74 1.268 . S
O83 Sc67 2.105 . S
O83 C73 1.268 . S
O84 Sc68 2.105 . S
O84 C75 1.268 . S
O85 Sc66 2.105 . S
O85 C71 1.268 . S
O86 Sc68 2.105 . S
O86 C70 1.268 . S
O87 Sc67 2.105 . S
O87 C72 1.268 . S
Sc88 O91 2.025 . S
Sc88 O98 2.105 . S
Sc88 O101 2.105 . S
Sc88 O104 2.105 . S
Sc88 O107 2.105 . S
Sc89 O91 2.025 . S
Sc89 O99 2.105 . S
Sc89 O103 2.105 . S
Sc89 O105 2.105 . S
Sc89 O109 2.105 . S
Sc90 O91 2.025 . S
Sc90 O100 2.105 . S
Sc90 O102 2.105 . S
Sc90 O106 2.105 . S
Sc90 O108 2.105 . S
O91 Sc88 2.025 . S
O91 Sc89 2.025 . S
O91 Sc90 2.025 . S
C92 O98 1.268 . S
C92 O108 1.268 . S
C93 O99 1.268 . S
C93 O107 1.268 . S
C94 O100 1.268 . S
C94 O109 1.268 . S
C95 O101 1.268 . S
C95 O105 1.268 . S
C96 O102 1.268 . S
C96 O104 1.268 . S
C97 O103 1.268 . S
C97 O106 1.268 . S
O98 Sc88 2.105 . S
O98 C92 1.268 . S
O99 Sc89 2.105 . S
O99 C93 1.268 . S
O100 Sc90 2.105 . S
O100 C94 1.268 . S
O101 Sc88 2.105 . S
O101 C95 1.268 . S
O102 Sc90 2.105 . S
O102 C96 1.268 . S
O103 Sc89 2.105 . S
O103 C97 1.268 . S
O104 Sc88 2.105 . S
O104 C96 1.268 . S
O105 Sc89 2.105 . S
O105 C95 1.268 . S
O106 Sc90 2.105 . S
O106 C97 1.268 . S
O107 Sc88 2.105 . S
O107 C93 1.268 . S
O108 Sc90 2.105 . S
O108 C92 1.268 . S
O109 Sc89 2.105 . S
O109 C94 1.268 . S
Sc110 O113 2.025 1_655 S
Sc110 O120 2.105 1_655 S
Sc110 O123 2.105 . S
Sc110 O126 2.105 . S
Sc110 O129 2.105 . S
Sc111 O113 2.025 . S
Sc111 O121 2.105 . S
Sc111 O125 2.105 . S
Sc111 O127 2.105 1_455 S
Sc111 O131 2.105 . S
Sc112 O113 2.025 . S
Sc112 O122 2.105 . S
Sc112 O124 2.105 . S
Sc112 O128 2.105 . S
Sc112 O130 2.105 . S
O113 Sc110 2.025 1_455 S
O113 Sc111 2.025 . S
O113 Sc112 2.025 . S
C114 O120 1.268 . S
C114 O130 1.268 . S
C115 O121 1.268 . S
C115 O129 1.268 1_455 S
C116 O122 1.268 . S
C116 O131 1.268 . S
C117 O123 1.268 . S
C117 O127 1.268 . S
C118 O124 1.268 . S
C118 O126 1.268 1_455 S
C119 O125 1.268 . S
C119 O128 1.268 . S
O120 Sc110 2.105 1_455 S
O120 C114 1.268 . S
O121 Sc111 2.105 . S
O121 C115 1.268 . S
O122 Sc112 2.105 . S
O122 C116 1.268 . S
O123 Sc110 2.105 . S
O123 C117 1.268 . S
O124 Sc112 2.105 . S
O124 C118 1.268 . S
O125 Sc111 2.105 . S
O125 C119 1.268 . S
O126 Sc110 2.105 . S
O126 C118 1.268 1_655 S
O127 Sc111 2.105 1_655 S
O127 C117 1.268 . S
O128 Sc112 2.105 . S
O128 C119 1.268 . S
O129 Sc110 2.105 . S
O129 C115 1.268 1_655 S
O130 Sc112 2.105 . S
O130 C114 1.268 . S
O131 Sc111 2.105 . S
O131 C116 1.268 . S
Sc132 O135 2.025 1_565 S
Sc132 O142 2.105 1_565 S
Sc132 O145 2.105 . S
Sc132 O148 2.105 . S
Sc132 O151 2.105 . S
Sc133 O135 2.025 . S
Sc133 O143 2.105 . S
Sc133 O147 2.105 . S
Sc133 O149 2.105 1_545 S
Sc133 O153 2.105 . S
Sc134 O135 2.025 . S
Sc134 O144 2.105 . S
Sc134 O146 2.105 . S
Sc134 O150 2.105 . S
Sc134 O152 2.105 . S
O135 Sc132 2.025 1_545 S
O135 Sc133 2.025 . S
O135 Sc134 2.025 . S
C136 O142 1.268 . S
C136 O152 1.268 . S
C137 O143 1.268 . S
C137 O151 1.268 1_545 S
C138 O144 1.268 . S
C138 O153 1.268 . S
C139 O145 1.268 . S
C139 O149 1.268 . S
C140 O146 1.268 . S
C140 O148 1.268 1_545 S
C141 O147 1.268 . S
C141 O150 1.268 . S
O142 Sc132 2.105 1_545 S
O142 C136 1.268 . S
O143 Sc133 2.105 . S
O143 C137 1.268 . S
O144 Sc134 2.105 . S
O144 C138 1.268 . S
O145 Sc132 2.105 . S
O145 C139 1.268 . S
O146 Sc134 2.105 . S
O146 C140 1.268 . S
O147 Sc133 2.105 . S
O147 C141 1.268 . S
O148 Sc132 2.105 . S
O148 C140 1.268 1_565 S
O149 Sc133 2.105 1_565 S
O149 C139 1.268 . S
O150 Sc134 2.105 . S
O150 C141 1.268 . S
O151 Sc132 2.105 . S
O151 C137 1.268 1_565 S
O152 Sc134 2.105 . S
O152 C136 1.268 . S
O153 Sc133 2.105 . S
O153 C138 1.268 . S
Sc154 O157 2.025 . S
Sc154 O164 2.105 . S
Sc154 O167 2.105 . S
Sc154 O170 2.105 . S
Sc154 O173 2.105 . S
Sc155 O157 2.025 . S
Sc155 O165 2.105 . S
Sc155 O169 2.105 . S
Sc155 O171 2.105 . S
Sc155 O175 2.105 . S
Sc156 O157 2.025 . S
Sc156 O166 2.105 . S
Sc156 O168 2.105 . S
Sc156 O172 2.105 . S
Sc156 O174 2.105 . S
O157 Sc154 2.025 . S
O157 Sc155 2.025 . S
O157 Sc156 2.025 . S
C158 O164 1.268 . S
C158 O174 1.268 . S
C159 O165 1.268 . S
C159 O173 1.268 . S
C160 O166 1.268 . S
C160 O175 1.268 . S
C161 O167 1.268 . S
C161 O171 1.268 . S
C162 O168 1.268 . S
C162 O170 1.268 . S
C163 O169 1.268 . S
C163 O172 1.268 . S
O164 Sc154 2.105 . S
O164 C158 1.268 . S
O165 Sc155 2.105 . S
O165 C159 1.268 . S
O166 Sc156 2.105 . S
O166 C160 1.268 . S
O167 Sc154 2.105 . S
O167 C161 1.268 . S
O168 Sc156 2.105 . S
O168 C162 1.268 . S
O169 Sc155 2.105 . S
O169 C163 1.268 . S
O170 Sc154 2.105 . S
O170 C162 1.268 . S
O171 Sc155 2.105 . S
O171 C161 1.268 . S
O172 Sc156 2.105 . S
O172 C163 1.268 . S
O173 Sc154 2.105 . S
O173 C159 1.268 . S
O174 Sc156 2.105 . S
O174 C158 1.268 . S
O175 Sc155 2.105 . S
O175 C160 1.268 . S
Sc176 O179 2.025 . S
Sc176 O186 2.105 . S
Sc176 O189 2.105 . S
Sc176 O192 2.105 . S
Sc176 O195 2.105 . S
Sc177 O179 2.025 . S
Sc177 O187 2.105 . S
Sc177 O191 2.105 . S
Sc177 O193 2.105 . S
Sc177 O197 2.105 . S
Sc178 O179 2.025 . S
Sc178 O188 2.105 . S
Sc178 O190 2.105 . S
Sc178 O194 2.105 . S
Sc178 O196 2.105 . S
O179 Sc176 2.025 . S
O179 Sc177 2.025 . S
O179 Sc178 2.025 . S
C180 O186 1.268 . S
C180 O196 1.268 . S
C181 O187 1.268 . S
C181 O195 1.268 . S
C182 O188 1.268 . S
C182 O197 1.268 . S
C183 O189 1.268 . S
C183 O193 1.268 . S
C184 O190 1.268 . S
C184 O192 1.268 . S
C185 O191 1.268 . S
C185 O194 1.268 . S
O186 Sc176 2.105 . S
O186 C180 1.268 . S
O187 Sc177 2.105 . S
O187 C181 1.268 . S
O188 Sc178 2.105 . S
O188 C182 1.268 . S
O189 Sc176 2.105 . S
O189 C183 1.268 . S
O190 Sc178 2.105 . S
O190 C184 1.268 . S
O191 Sc177 2.105 . S
O191 C185 1.268 . S
O192 Sc176 2.105 . S
O192 C184 1.268 . S
O193 Sc177 2.105 . S
O193 C183 1.268 . S
O194 Sc178 2.105 . S
O194 C185 1.268 . S
O195 Sc176 2.105 . S
O195 C181 1.268 . S
O196 Sc178 2.105 . S
O196 C180 1.268 . S
O197 Sc177 2.105 . S
O197 C182 1.268 . S
Sc198 O201 2.025 1_655 S
Sc198 O208 2.105 . S
Sc198 O211 2.105 . S
Sc198 O214 2.105 1_655 S
Sc198 O217 2.105 . S
Sc199 O201 2.025 . S
Sc199 O209 2.105 1_455 S
Sc199 O213 2.105 . S
Sc199 O215 2.105 . S
Sc199 O219 2.105 . S
Sc200 O201 2.025 . S
Sc200 O210 2.105 . S
Sc200 O212 2.105 . S
Sc200 O216 2.105 . S
Sc200 O218 2.105 . S
O201 Sc198 2.025 1_455 S
O201 Sc199 2.025 . S
O201 Sc200 2.025 . S
C202 O208 1.268 1_455 S
C202 O218 1.268 . S
C203 O209 1.268 . S
C203 O217 1.268 . S
C204 O210 1.268 . S
C204 O219 1.268 . S
C205 O211 1.268 1_455 S
C205 O215 1.268 . S
C206 O212 1.268 . S
C206 O214 1.268 . S
C207 O213 1.268 . S
C207 O216 1.268 . S
O208 Sc198 2.105 . S
O208 C202 1.268 1_655 S
O209 Sc199 2.105 1_655 S
O209 C203 1.268 . S
O210 Sc200 2.105 . S
O210 C204 1.268 . S
O211 Sc198 2.105 . S
O211 C205 1.268 1_655 S
O212 Sc200 2.105 . S
O212 C206 1.268 . S
O213 Sc199 2.105 . S
O213 C207 1.268 . S
O214 Sc198 2.105 1_455 S
O214 C206 1.268 . S
O215 Sc199 2.105 . S
O215 C205 1.268 . S
O216 Sc200 2.105 . S
O216 C207 1.268 . S
O217 Sc198 2.105 . S
O217 C203 1.268 . S
O218 Sc200 2.105 . S
O218 C202 1.268 . S
O219 Sc199 2.105 . S
O219 C204 1.268 . S
Sc220 O223 2.025 . S
Sc220 O230 2.105 . S
Sc220 O233 2.105 . S
Sc220 O236 2.105 . S
Sc220 O239 2.105 . S
Sc221 O223 2.025 . S
Sc221 O231 2.105 . S
Sc221 O235 2.105 1_545 S
Sc221 O237 2.105 . S
Sc221 O241 2.105 . S
Sc222 O223 2.025 1_565 S
Sc222 O232 2.105 . S
Sc222 O234 2.105 . S
Sc222 O238 2.105 . S
Sc222 O240 2.105 1_565 S
O223 Sc220 2.025 . S
O223 Sc221 2.025 . S
O223 Sc222 2.025 1_545 S
C224 O230 1.268 . S
C224 O240 1.268 . S
C225 O231 1.268 . S
C225 O239 1.268 . S
C226 O232 1.268 1_545 S
C226 O241 1.268 . S
C227 O233 1.268 . S
C227 O237 1.268 . S
C228 O234 1.268 1_545 S
C228 O236 1.268 . S
C229 O235 1.268 . S
C229 O238 1.268 . S
O230 Sc220 2.105 . S
O230 C224 1.268 . S
O231 Sc221 2.105 . S
O231 C225 1.268 . S
O232 Sc222 2.105 . S
O232 C226 1.268 1_565 S
O233 Sc220 2.105 . S
O233 C227 1.268 . S
O234 Sc222 2.105 . S
O234 C228 1.268 1_565 S
O235 Sc221 2.105 1_565 S
O235 C229 1.268 . S
O236 Sc220 2.105 . S
O236 C228 1.268 . S
O237 Sc221 2.105 . S
O237 C227 1.268 . S
O238 Sc222 2.105 . S
O238 C229 1.268 . S
O239 Sc220 2.105 . S
O239 C225 1.268 . S
O240 Sc222 2.105 1_545 S
O240 C224 1.268 . S
O241 Sc221 2.105 . S
O241 C226 1.268 . S
Sc242 O245 2.025 . S
Sc242 O252 2.105 . S
Sc242 O255 2.105 . S
Sc242 O258 2.105 . S
Sc242 O261 2.105 . S
Sc243 O245 2.025 . S
Sc243 O253 2.105 . S
Sc243 O257 2.105 . S
Sc243 O259 2.105 . S
Sc243 O263 2.105 . S
Sc244 O245 2.025 . S
Sc244 O254 2.105 . S
Sc244 O256 2.105 . S
Sc244 O260 2.105 . S
Sc244 O262 2.105 . S
O245 Sc242 2.025 . S
O245 Sc243 2.025 . S
O245 Sc244 2.025 . S
C246 O252 1.268 . S
C246 O262 1.268 . S
C247 O253 1.268 . S
C247 O261 1.268 . S
C248 O254 1.268 . S
C248 O263 1.268 . S
C249 O255 1.268 . S
C249 O259 1.268 . S
C250 O256 1.268 . S
C250 O258 1.268 . S
C251 O257 1.268 . S
C251 O260 1.268 . S
O252 Sc242 2.105 . S
O252 C246 1.268 . S
O253 Sc243 2.105 . S
O253 C247 1.268 . S
O254 Sc244 2.105 . S
O254 C248 1.268 . S
O255 Sc242 2.105 . S
O255 C249 1.268 . S
O256 Sc244 2.105 . S
O256 C250 1.268 . S
O257 Sc243 2.105 . S
O257 C251 1.268 . S
O258 Sc242 2.105 . S
O258 C250 1.268 . S
O259 Sc243 2.105 . S
O259 C249 1.268 . S
O260 Sc244 2.105 . S
O260 C251 1.268 . S
O261 Sc242 2.105 . S
O261 C247 1.268 . S
O262 Sc244 2.105 . S
O262 C246 1.268 . S
O263 Sc243 2.105 . S
O263 C248 1.268 . S
Sc264 O267 2.025 . S
Sc264 O274 2.105 . S
Sc264 O277 2.105 . S
Sc264 O280 2.105 . S
Sc264 O283 2.105 . S
Sc265 O267 2.025 . S
Sc265 O275 2.105 . S
Sc265 O279 2.105 . S
Sc265 O281 2.105 . S
Sc265 O285 2.105 . S
Sc266 O267 2.025 . S
Sc266 O276 2.105 . S
Sc266 O278 2.105 . S
Sc266 O282 2.105 . S
Sc266 O284 2.105 . S
O267 Sc264 2.025 . S
O267 Sc265 2.025 . S
O267 Sc266 2.025 . S
C268 O274 1.268 . S
C268 O284 1.268 . S
C269 O275 1.268 . S
C269 O283 1.268 . S
C270 O276 1.268 . S
C270 O285 1.268 . S
C271 O277 1.268 . S
C271 O281 1.268 . S
C272 O278 1.268 . S
C272 O280 1.268 . S
C273 O279 1.268 . S
C273 O282 1.268 . S
O274 Sc264 2.105 . S
O274 C268 1.268 . S
O275 Sc265 2.105 . S
O275 C269 1.268 . S
O276 Sc266 2.105 . S
O276 C270 1.268 . S
O277 Sc264 2.105 . S
O277 C271 1.268 . S
O278 Sc266 2.105 . S
O278 C272 1.268 . S
O279 Sc265 2.105 . S
O279 C273 1.268 . S
O280 Sc264 2.105 . S
O280 C272 1.268 . S
O281 Sc265 2.105 . S
O281 C271 1.268 . S
O282 Sc266 2.105 . S
O282 C273 1.268 . S
O283 Sc264 2.105 . S
O283 C269 1.268 . S
O284 Sc266 2.105 . S
O284 C268 1.268 . S
O285 Sc265 2.105 . S
O285 C270 1.268 . S
Sc286 O289 2.025 . S
Sc286 O296 2.105 . S
Sc286 O299 2.105 . S
Sc286 O302 2.105 . S
Sc286 O305 2.105 . S
Sc287 O289 2.025 . S
Sc287 O297 2.105 . S
Sc287 O301 2.105 1_655 S
Sc287 O303 2.105 . S
Sc287 O307 2.105 . S
Sc288 O289 2.025 1_455 S
Sc288 O298 2.105 . S
Sc288 O300 2.105 . S
Sc288 O304 2.105 . S
Sc288 O306 2.105 1_455 S
O289 Sc286 2.025 . S
O289 Sc287 2.025 . S
O289 Sc288 2.025 1_655 S
C290 O296 1.268 . S
C290 O306 1.268 . S
C291 O297 1.268 . S
C291 O305 1.268 . S
C292 O298 1.268 1_655 S
C292 O307 1.268 . S
C293 O299 1.268 . S
C293 O303 1.268 . S
C294 O300 1.268 1_655 S
C294 O302 1.268 . S
C295 O301 1.268 . S
C295 O304 1.268 . S
O296 Sc286 2.105 . S
O296 C290 1.268 . S
O297 Sc287 2.105 . S
O297 C291 1.268 . S
O298 Sc288 2.105 . S
O298 C292 1.268 1_455 S
O299 Sc286 2.105 . S
O299 C293 1.268 . S
O300 Sc288 2.105 . S
O300 C294 1.268 1_455 S
O301 Sc287 2.105 1_455 S
O301 C295 1.268 . S
O302 Sc286 2.105 . S
O302 C294 1.268 . S
O303 Sc287 2.105 . S
O303 C293 1.268 . S
O304 Sc288 2.105 . S
O304 C295 1.268 . S
O305 Sc286 2.105 . S
O305 C291 1.268 . S
O306 Sc288 2.105 1_655 S
O306 C290 1.268 . S
O307 Sc287 2.105 . S
O307 C292 1.268 . S
Sc308 O311 2.025 . S
Sc308 O318 2.105 . S
Sc308 O321 2.105 . S
Sc308 O324 2.105 . S
Sc308 O327 2.105 . S
Sc309 O311 2.025 . S
Sc309 O319 2.105 . S
Sc309 O323 2.105 1_565 S
Sc309 O325 2.105 . S
Sc309 O329 2.105 . S
Sc310 O311 2.025 1_545 S
Sc310 O320 2.105 . S
Sc310 O322 2.105 . S
Sc310 O326 2.105 . S
Sc310 O328 2.105 1_545 S
O311 Sc308 2.025 . S
O311 Sc309 2.025 . S
O311 Sc310 2.025 1_565 S
C312 O318 1.268 . S
C312 O328 1.268 . S
C313 O319 1.268 . S
C313 O327 1.268 . S
C314 O320 1.268 1_565 S
C314 O329 1.268 . S
C315 O321 1.268 . S
C315 O325 1.268 . S
C316 O322 1.268 1_565 S
C316 O324 1.268 . S
C317 O323 1.268 . S
C317 O326 1.268 . S
O318 Sc308 2.105 . S
O318 C312 1.268 . S
O319 Sc309 2.105 . S
O319 C313 1.268 . S
O320 Sc310 2.105 . S
O320 C314 1.268 1_545 S
O321 Sc308 2.105 . S
O321 C315 1.268 . S
O322 Sc310 2.105 . S
O322 C316 1.268 1_545 S
O323 Sc309 2.105 1_545 S
O323 C317 1.268 . S
O324 Sc308 2.105 . S
O324 C316 1.268 . S
O325 Sc309 2.105 . S
O325 C315 1.268 . S
O326 Sc310 2.105 . S
O326 C317 1.268 . S
O327 Sc308 2.105 . S
O327 C313 1.268 . S
O328 Sc310 2.105 1_565 S
O328 C312 1.268 . S
O329 Sc309 2.105 . S
O329 C314 1.268 . S
Sc330 O333 2.025 . S
Sc330 O340 2.105 . S
Sc330 O343 2.105 . S
Sc330 O346 2.105 . S
Sc330 O349 2.105 . S
Sc331 O333 2.025 . S
Sc331 O341 2.105 . S
Sc331 O345 2.105 . S
Sc331 O347 2.105 . S
Sc331 O351 2.105 . S
Sc332 O333 2.025 . S
Sc332 O342 2.105 . S
Sc332 O344 2.105 . S
Sc332 O348 2.105 . S
Sc332 O350 2.105 . S
O333 Sc330 2.025 . S
O333 Sc331 2.025 . S
O333 Sc332 2.025 . S
C334 O340 1.268 . S
C334 O350 1.268 . S
C335 O341 1.268 . S
C335 O349 1.268 . S
C336 O342 1.268 . S
C336 O351 1.268 . S
C337 O343 1.268 . S
C337 O347 1.268 . S
C338 O344 1.268 . S
C338 O346 1.268 . S
C339 O345 1.268 . S
C339 O348 1.268 . S
O340 Sc330 2.105 . S
O340 C334 1.268 . S
O341 Sc331 2.105 . S
O341 C335 1.268 . S
O342 Sc332 2.105 . S
O342 C336 1.268 . S
O343 Sc330 2.105 . S
O343 C337 1.268 . S
O344 Sc332 2.105 . S
O344 C338 1.268 . S
O345 Sc331 2.105 . S
O345 C339 1.268 . S
O346 Sc330 2.105 . S
O346 C338 1.268 . S
O347 Sc331 2.105 . S
O347 C337 1.268 . S
O348 Sc332 2.105 . S
O348 C339 1.268 . S
O349 Sc330 2.105 . S
O349 C335 1.268 . S
O350 Sc332 2.105 . S
O350 C334 1.268 . S
O351 Sc331 2.105 . S
O351 C336 1.268 . S
C352 C353 1.369 . S
C352 C354 1.419 . S
C352 H356 0.930 . S
C353 C352 1.369 . S
C353 C362 1.429 . S
C354 C352 1.419 . S
C354 C355 1.363 . S
C354 H357 0.929 . S
C355 C354 1.363 . S
C355 C361 1.428 . S
H356 C352 0.930 . S
H357 C354 0.929 . S
S358 N359 1.613 . S
S358 N360 1.610 . S
N359 S358 1.613 . S
N359 C362 1.350 . S
N360 S358 1.610 . S
N360 C361 1.351 . S
C361 C355 1.428 . S
C361 N360 1.351 . S
C361 C362 1.434 . S
C362 C353 1.429 . S
C362 N359 1.350 . S
C362 C361 1.434 . S
C363 C364 1.369 . S
C363 C365 1.406 1_554 S
C363 H367 0.930 . S
C364 C363 1.369 . S
C364 C373 1.432 . S
C365 C363 1.406 1_556 S
C365 C366 1.376 . S
C365 H368 0.929 1_556 S
C366 C365 1.376 . S
C366 C372 1.428 . S
H367 C363 0.930 . S
H368 C365 0.929 1_554 S
S369 N370 1.613 . S
S369 N371 1.610 . S
N370 S369 1.613 . S
N370 C373 1.350 1_556 S
N371 S369 1.610 . S
N371 C372 1.351 . S
C372 C366 1.428 . S
C372 N371 1.351 . S
C372 C373 1.430 1_556 S
C373 C364 1.432 . S
C373 N370 1.350 1_554 S
C373 C372 1.430 1_554 S
C374 C375 1.369 . S
C374 C376 1.419 . S
C374 H378 0.930 . S
C375 C374 1.369 . S
C375 C384 1.429 . S
C376 C374 1.419 . S
C376 C377 1.363 . S
C376 H379 0.929 . S
C377 C376 1.363 . S
C377 C383 1.428 . S
H378 C374 0.930 . S
H379 C376 0.929 . S
S380 N381 1.613 . S
S380 N382 1.610 . S
N381 S380 1.613 . S
N381 C384 1.350 . S
N382 S380 1.610 . S
N382 C383 1.351 . S
C383 C377 1.428 . S
C383 N382 1.351 . S
C383 C384 1.434 . S
C384 C375 1.429 . S
C384 N381 1.350 . S
C384 C383 1.434 . S
C385 C386 1.369 . S
C385 C387 1.419 . S
C385 H389 0.930 . S
C386 C385 1.369 . S
C386 C395 1.429 1_556 S
C387 C385 1.419 . S
C387 C388 1.363 1_556 S
C387 H390 0.929 . S
C388 C387 1.363 1_554 S
C388 C394 1.428 . S
H389 C385 0.930 . S
H390 C387 0.929 . S
S391 N392 1.613 . S
S391 N393 1.610 . S
N392 S391 1.613 . S
N392 C395 1.350 . S
N393 S391 1.610 . S
N393 C394 1.351 . S
C394 C388 1.428 . S
C394 N393 1.351 . S
C394 C395 1.434 . S
C395 C386 1.429 1_554 S
C395 N392 1.350 . S
C395 C394 1.434 . S
C396 C397 1.369 . S
C396 C398 1.419 . S
C396 H400 0.930 . S
C397 C396 1.369 . S
C397 C406 1.429 . S
C398 C396 1.419 . S
C398 C399 1.363 . S
C398 H401 0.929 . S
C399 C398 1.363 . S
C399 C405 1.428 . S
H400 C396 0.930 . S
H401 C398 0.929 . S
S402 N403 1.613 . S
S402 N404 1.610 . S
N403 S402 1.613 . S
N403 C406 1.350 . S
N404 S402 1.610 . S
N404 C405 1.351 . S
C405 C399 1.428 . S
C405 N404 1.351 . S
C405 C406 1.434 . S
C406 C397 1.429 . S
C406 N403 1.350 . S
C406 C405 1.434 . S
C407 C408 1.369 . S
C407 C409 1.419 1_556 S
C407 H411 0.930 . S
C408 C407 1.369 . S
C408 C417 1.429 . S
C409 C407 1.419 1_554 S
C409 C410 1.363 . S
C409 H412 0.929 . S
C410 C409 1.363 . S
C410 C416 1.428 . S
H411 C407 0.930 . S
H412 C409 0.929 . S
S413 N414 1.613 . S
S413 N415 1.610 1_556 S
N414 S413 1.613 . S
N414 C417 1.350 . S
N415 S413 1.610 1_554 S
N415 C416 1.351 . S
C416 C410 1.428 . S
C416 N415 1.351 . S
C416 C417 1.434 1_554 S
C417 C408 1.429 . S
C417 N414 1.350 . S
C417 C416 1.434 1_556 S
C418 C419 1.369 . S
C418 C420 1.419 . S
C418 H422 0.930 . S
C419 C418 1.369 . S
C419 C428 1.429 . S
C420 C418 1.419 . S
C420 C421 1.363 . S
C420 H423 0.929 . S
C421 C420 1.363 . S
C421 C427 1.428 . S
H422 C418 0.930 . S
H423 C420 0.929 . S
S424 N425 1.613 . S
S424 N426 1.610 . S
N425 S424 1.613 . S
N425 C428 1.350 . S
N426 S424 1.610 . S
N426 C427 1.351 . S
C427 C421 1.428 . S
C427 N426 1.351 . S
C427 C428 1.434 . S
C428 C419 1.429 . S
C428 N425 1.350 . S
C428 C427 1.434 . S
C429 C430 1.369 . S
C429 C431 1.419 . S
C429 H433 0.930 . S
C430 C429 1.369 . S
C430 C439 1.429 1_556 S
C431 C429 1.419 . S
C431 C432 1.363 1_556 S
C431 H434 0.929 . S
C432 C431 1.363 1_554 S
C432 C438 1.428 . S
H433 C429 0.930 . S
H434 C431 0.929 . S
S435 N436 1.613 . S
S435 N437 1.610 . S
N436 S435 1.613 . S
N436 C439 1.350 . S
N437 S435 1.610 . S
N437 C438 1.351 . S
C438 C432 1.428 . S
C438 N437 1.351 . S
C438 C439 1.434 . S
C439 C430 1.429 1_554 S
C439 N436 1.350 . S
C439 C438 1.434 . S
C440 C441 1.369 . S
C440 C442 1.419 . S
C440 H444 0.930 . S
C441 C440 1.369 . S
C441 C450 1.429 . S
C442 C440 1.419 . S
C442 C443 1.363 . S
C442 H445 0.929 . S
C443 C442 1.363 . S
C443 C449 1.428 . S
H444 C440 0.930 . S
H445 C442 0.929 . S
S446 N447 1.613 . S
S446 N448 1.610 . S
N447 S446 1.613 . S
N447 C450 1.350 . S
N448 S446 1.610 . S
N448 C449 1.351 . S
C449 C443 1.428 . S
C449 N448 1.351 . S
C449 C450 1.434 . S
C450 C441 1.429 . S
C450 N447 1.350 . S
C450 C449 1.434 . S
C451 C452 1.369 . S
C451 C453 1.419 . S
C451 H455 0.930 . S
C452 C451 1.369 . S
C452 C461 1.429 . S
C453 C451 1.419 . S
C453 C454 1.363 . S
C453 H456 0.929 . S
C454 C453 1.363 . S
C454 C460 1.428 . S
H455 C451 0.930 . S
H456 C453 0.929 . S
S457 N458 1.613 . S
S457 N459 1.610 . S
N458 S457 1.613 . S
N458 C461 1.350 . S
N459 S457 1.610 . S
N459 C460 1.351 . S
C460 C454 1.428 . S
C460 N459 1.351 . S
C460 C461 1.434 . S
C461 C452 1.429 . S
C461 N458 1.350 . S
C461 C460 1.434 . S
C462 C463 1.369 . S
C462 C464 1.419 . S
C462 H466 0.930 . S
C463 C462 1.369 . S
C463 C472 1.429 . S
C464 C462 1.419 . S
C464 C465 1.363 . S
C464 H467 0.929 . S
C465 C464 1.363 . S
C465 C471 1.428 . S
H466 C462 0.930 . S
H467 C464 0.929 . S
S468 N469 1.613 . S
S468 N470 1.610 . S
N469 S468 1.613 . S
N469 C472 1.350 . S
N470 S468 1.610 . S
N470 C471 1.351 . S
C471 C465 1.428 . S
C471 N470 1.351 . S
C471 C472 1.434 . S
C472 C463 1.429 . S
C472 N469 1.350 . S
C472 C471 1.434 . S
C473 C474 1.369 . S
C473 C475 1.419 . S
C473 H477 0.930 . S
C474 C473 1.369 . S
C474 C483 1.429 . S
C475 C473 1.419 . S
C475 C476 1.363 . S
C475 H478 0.929 . S
C476 C475 1.363 . S
C476 C482 1.428 . S
H477 C473 0.930 . S
H478 C475 0.929 . S
S479 N480 1.613 . S
S479 N481 1.610 . S
N480 S479 1.613 . S
N480 C483 1.350 . S
N481 S479 1.610 . S
N481 C482 1.351 . S
C482 C476 1.428 . S
C482 N481 1.351 . S
C482 C483 1.434 . S
C483 C474 1.429 . S
C483 N480 1.350 . S
C483 C482 1.434 . S
C484 C485 1.369 . S
C484 C486 1.419 . S
C484 H488 0.930 . S
C485 C484 1.369 . S
C485 C494 1.429 . S
C486 C484 1.419 . S
C486 C487 1.363 . S
C486 H489 0.929 . S
C487 C486 1.363 . S
C487 C493 1.428 . S
H488 C484 0.930 . S
H489 C486 0.929 . S
S490 N491 1.613 . S
S490 N492 1.610 . S
N491 S490 1.613 . S
N491 C494 1.350 . S
N492 S490 1.610 . S
N492 C493 1.351 . S
C493 C487 1.428 . S
C493 N492 1.351 . S
C493 C494 1.434 . S
C494 C485 1.429 . S
C494 N491 1.350 . S
C494 C493 1.434 . S
C495 C496 1.369 . S
C495 C497 1.419 . S
C495 H499 0.930 . S
C496 C495 1.369 . S
C496 C505 1.429 . S
C497 C495 1.419 . S
C497 C498 1.363 . S
C497 H500 0.929 . S
C498 C497 1.363 . S
C498 C504 1.428 . S
H499 C495 0.930 . S
H500 C497 0.929 . S
S501 N502 1.613 . S
S501 N503 1.610 . S
N502 S501 1.613 . S
N502 C505 1.350 . S
N503 S501 1.610 . S
N503 C504 1.351 . S
C504 C498 1.428 . S
C504 N503 1.351 . S
C504 C505 1.434 . S
C505 C496 1.429 . S
C505 N502 1.350 . S
C505 C504 1.434 . S
C506 C507 1.369 . S
C506 C508 1.419 . S
C506 H510 0.930 . S
C507 C506 1.369 . S
C507 C516 1.429 . S
C508 C506 1.419 . S
C508 C509 1.363 . S
C508 H511 0.929 . S
C509 C508 1.363 . S
C509 C515 1.428 . S
H510 C506 0.930 . S
H511 C508 0.929 . S
S512 N513 1.613 . S
S512 N514 1.610 . S
N513 S512 1.613 . S
N513 C516 1.350 . S
N514 S512 1.610 . S
N514 C515 1.351 . S
C515 C509 1.428 . S
C515 N514 1.351 . S
C515 C516 1.434 . S
C516 C507 1.429 . S
C516 N513 1.350 . S
C516 C515 1.434 . S
C517 C518 1.369 . S
C517 C519 1.419 . S
C517 H521 0.930 . S
C518 C517 1.369 . S
C518 C527 1.429 . S
C519 C517 1.419 . S
C519 C520 1.363 . S
C519 H522 0.929 . S
C520 C519 1.363 . S
C520 C526 1.428 . S
H521 C517 0.930 . S
H522 C519 0.929 . S
S523 N524 1.613 . S
S523 N525 1.610 . S
N524 S523 1.613 . S
N524 C527 1.350 . S
N525 S523 1.610 . S
N525 C526 1.351 . S
C526 C520 1.428 . S
C526 N525 1.351 . S
C526 C527 1.434 . S
C527 C518 1.429 . S
C527 N524 1.350 . S
C527 C526 1.434 . S
C528 C529 1.369 . S
C528 C530 1.419 . S
C528 H532 0.930 . S
C529 C528 1.369 . S
C529 C538 1.429 . S
C530 C528 1.419 . S
C530 C531 1.363 . S
C530 H533 0.929 . S
C531 C530 1.363 . S
C531 C537 1.428 . S
H532 C528 0.930 . S
H533 C530 0.929 . S
S534 N535 1.613 1_554 S
S534 N536 1.610 . S
N535 S534 1.613 1_556 S
N535 C538 1.350 1_556 S
N536 S534 1.610 . S
N536 C537 1.351 . S
C537 C531 1.428 . S
C537 N536 1.351 . S
C537 C538 1.434 . S
C538 C529 1.429 . S
C538 N535 1.350 1_554 S
C538 C537 1.434 . S
C539 C540 1.369 1_455 S
C539 C541 1.419 . S
C539 H543 0.930 . S
C540 C539 1.369 1_655 S
C540 C549 1.429 . S
C541 C539 1.419 . S
C541 C542 1.363 1_455 S
C541 H544 0.929 . S
C542 C541 1.363 1_655 S
C542 C548 1.428 . S
H543 C539 0.930 . S
H544 C541 0.929 . S
S545 N546 1.613 . S
S545 N547 1.610 . S
N546 S545 1.613 . S
N546 C549 1.350 . S
N547 S545 1.610 . S
N547 C548 1.351 . S
C548 C542 1.428 . S
C548 N547 1.351 . S
C548 C549 1.434 . S
C549 C540 1.429 . S
C549 N546 1.350 . S
C549 C548 1.434 . S
C550 C551 1.369 . S
C550 C552 1.419 . S
C550 H554 0.930 . S
C551 C550 1.369 . S
C551 C560 1.429 1_565 S
C552 C550 1.419 . S
C552 C553 1.363 . S
C552 H555 0.929 . S
C553 C552 1.363 . S
C553 C559 1.428 1_565 S
H554 C550 0.930 . S
H555 C552 0.929 . S
S556 N557 1.613 1_554 S
S556 N558 1.610 . S
N557 S556 1.613 1_556 S
N557 C560 1.350 1_556 S
N558 S556 1.610 . S
N558 C559 1.351 . S
C559 C553 1.428 1_545 S
C559 N558 1.351 . S
C559 C560 1.434 . S
C560 C551 1.429 1_545 S
C560 N557 1.350 1_554 S
C560 C559 1.434 . S
C561 C562 1.369 . S
C561 C563 1.419 . S
C561 H565 0.930 . S
C562 C561 1.369 . S
C562 C571 1.429 . S
C563 C561 1.419 . S
C563 C564 1.363 . S
C563 H566 0.929 . S
C564 C563 1.363 . S
C564 C570 1.428 . S
H565 C561 0.930 . S
H566 C563 0.929 . S
S567 N568 1.613 . S
S567 N569 1.610 . S
N568 S567 1.613 . S
N568 C571 1.350 . S
N569 S567 1.610 . S
N569 C570 1.351 . S
C570 C564 1.428 . S
C570 N569 1.351 . S
C570 C571 1.434 . S
C571 C562 1.429 . S
C571 N568 1.350 . S
C571 C570 1.434 . S
C572 C573 1.369 . S
C572 C574 1.419 . S
C572 H576 0.930 . S
C573 C572 1.369 . S
C573 C582 1.429 . S
C574 C572 1.419 . S
C574 C575 1.363 . S
C574 H577 0.929 . S
C575 C574 1.363 . S
C575 C581 1.428 . S
H576 C572 0.930 . S
H577 C574 0.929 . S
S578 N579 1.613 . S
S578 N580 1.610 . S
N579 S578 1.613 . S
N579 C582 1.350 . S
N580 S578 1.610 . S
N580 C581 1.351 . S
C581 C575 1.428 . S
C581 N580 1.351 . S
C581 C582 1.434 . S
C582 C573 1.429 . S
C582 N579 1.350 . S
C582 C581 1.434 . S
C583 C584 1.369 1_655 S
C583 C585 1.419 . S
C583 H587 0.930 . S
C584 C583 1.369 1_455 S
C584 C593 1.429 . S
C585 C583 1.419 . S
C585 C586 1.363 1_655 S
C585 H588 0.929 . S
C586 C585 1.363 1_455 S
C586 C592 1.428 . S
H587 C583 0.930 . S
H588 C585 0.929 . S
S589 N590 1.613 . S
S589 N591 1.610 . S
N590 S589 1.613 . S
N590 C593 1.350 . S
N591 S589 1.610 . S
N591 C592 1.351 . S
C592 C586 1.428 . S
C592 N591 1.351 . S
C592 C593 1.434 . S
C593 C584 1.429 . S
C593 N590 1.350 . S
C593 C592 1.434 . S
C594 C595 1.369 . S
C594 C596 1.419 . S
C594 H598 0.930 . S
C595 C594 1.369 . S
C595 C604 1.429 . S
C596 C594 1.419 . S
C596 C597 1.363 . S
C596 H599 0.929 . S
C597 C596 1.363 . S
C597 C603 1.428 . S
H598 C594 0.930 . S
H599 C596 0.929 . S
S600 N601 1.614 . S
S600 N602 1.610 1_565 S
N601 S600 1.614 . S
N601 C604 1.348 1_565 S
N602 S600 1.610 1_545 S
N602 C603 1.351 . S
C603 C597 1.428 . S
C603 N602 1.351 . S
C603 C604 1.434 . S
C604 C595 1.429 . S
C604 N601 1.348 1_545 S
C604 C603 1.434 . S
C605 C606 1.369 . S
C605 C607 1.419 . S
C605 H609 0.930 . S
C606 C605 1.369 . S
C606 C615 1.429 . S
C607 C605 1.419 . S
C607 C608 1.363 . S
C607 H610 0.929 . S
C608 C607 1.363 . S
C608 C614 1.428 . S
H609 C605 0.930 . S
H610 C607 0.929 . S
S611 N612 1.613 . S
S611 N613 1.610 . S
N612 S611 1.613 . S
N612 C615 1.350 . S
N613 S611 1.610 . S
N613 C614 1.351 . S
C614 C608 1.428 . S
C614 N613 1.351 . S
C614 C615 1.434 . S
C615 C606 1.429 . S
C615 N612 1.350 . S
C615 C614 1.434 . S
C616 C617 1.369 . S
C616 C618 1.419 . S
C616 H620 0.930 . S
C617 C616 1.369 . S
C617 C626 1.429 . S
C618 C616 1.419 . S
C618 C619 1.363 . S
C618 H621 0.929 . S
C619 C618 1.363 . S
C619 C625 1.428 . S
H620 C616 0.930 . S
H621 C618 0.929 . S
S622 N623 1.613 . S
S622 N624 1.610 1_556 S
N623 S622 1.613 . S
N623 C626 1.350 . S
N624 S622 1.610 1_554 S
N624 C625 1.351 1_554 S
C625 C619 1.428 . S
C625 N624 1.351 1_556 S
C625 C626 1.434 . S
C626 C617 1.429 . S
C626 N623 1.350 . S
C626 C625 1.434 . S
C627 C628 1.369 . S
C627 C629 1.419 . S
C627 H631 0.930 . S
C628 C627 1.369 . S
C628 C637 1.429 1_455 S
C629 C627 1.419 . S
C629 C630 1.363 . S
C629 H632 0.929 . S
C630 C629 1.363 . S
C630 C636 1.428 1_455 S
H631 C627 0.930 . S
H632 C629 0.929 . S
S633 N634 1.613 . S
S633 N635 1.610 . S
N634 S633 1.613 . S
N634 C637 1.350 . S
N635 S633 1.610 . S
N635 C636 1.351 . S
C636 C630 1.428 1_655 S
C636 N635 1.351 . S
C636 C637 1.434 . S
C637 C628 1.429 1_655 S
C637 N634 1.350 . S
C637 C636 1.434 . S
C638 C639 1.372 . S
C638 C640 1.418 . S
C638 H642 0.928 1_545 S
C639 C638 1.372 . S
C639 C648 1.429 . S
C640 C638 1.418 . S
C640 C641 1.363 . S
C640 H643 0.929 1_545 S
C641 C640 1.363 . S
C641 C647 1.428 . S
H642 C638 0.928 1_565 S
H643 C640 0.929 1_565 S
S644 N645 1.613 1_556 S
S644 N646 1.610 . S
N645 S644 1.613 1_554 S
N645 C648 1.350 1_554 S
N646 S644 1.610 . S
N646 C647 1.351 . S
C647 C641 1.428 . S
C647 N646 1.351 . S
C647 C648 1.434 . S
C648 C639 1.429 . S
C648 N645 1.350 1_556 S
C648 C647 1.434 . S
C649 C650 1.369 . S
C649 C651 1.419 . S
C649 H653 0.930 . S
C650 C649 1.369 . S
C650 C659 1.429 . S
C651 C649 1.419 . S
C651 C652 1.363 . S
C651 H654 0.929 . S
C652 C651 1.363 . S
C652 C658 1.428 . S
H653 C649 0.930 . S
H654 C651 0.929 . S
S655 N656 1.613 . S
S655 N657 1.610 . S
N656 S655 1.613 . S
N656 C659 1.350 . S
N657 S655 1.610 . S
N657 C658 1.351 . S
C658 C652 1.428 . S
C658 N657 1.351 . S
C658 C659 1.434 . S
C659 C650 1.429 . S
C659 N656 1.350 . S
C659 C658 1.434 . S
C660 C661 1.369 . S
C660 C662 1.419 . S
C660 H664 0.930 . S
C661 C660 1.369 . S
C661 C670 1.429 . S
C662 C660 1.419 . S
C662 C663 1.363 . S
C662 H665 0.929 . S
C663 C662 1.363 . S
C663 C669 1.428 . S
H664 C660 0.930 . S
H665 C662 0.929 . S
S666 N667 1.613 . S
S666 N668 1.610 . S
N667 S666 1.613 . S
N667 C670 1.350 . S
N668 S666 1.610 . S
N668 C669 1.351 . S
C669 C663 1.428 . S
C669 N668 1.351 . S
C669 C670 1.434 . S
C670 C661 1.429 . S
C670 N667 1.350 . S
C670 C669 1.434 . S
C671 C672 1.369 . S
C671 C673 1.419 . S
C671 H675 0.930 . S
C672 C671 1.369 . S
C672 C681 1.429 1_655 S
C673 C671 1.419 . S
C673 C674 1.363 . S
C673 H676 0.929 . S
C674 C673 1.363 . S
C674 C680 1.428 1_655 S
H675 C671 0.930 . S
H676 C673 0.929 . S
S677 N678 1.613 . S
S677 N679 1.610 . S
N678 S677 1.613 . S
N678 C681 1.350 . S
N679 S677 1.610 . S
N679 C680 1.351 . S
C680 C674 1.428 1_455 S
C680 N679 1.351 . S
C680 C681 1.434 . S
C681 C672 1.429 1_455 S
C681 N678 1.350 . S
C681 C680 1.434 . S
C682 C683 1.369 . S
C682 C684 1.419 . S
C682 H686 0.930 . S
C683 C682 1.369 . S
C683 C692 1.429 1_565 S
C684 C682 1.419 . S
C684 C685 1.363 . S
C684 H687 0.929 . S
C685 C684 1.363 . S
C685 C691 1.428 1_565 S
H686 C682 0.930 . S
H687 C684 0.929 . S
S688 N689 1.613 . S
S688 N690 1.610 . S
N689 S688 1.613 . S
N689 C692 1.350 . S
N690 S688 1.610 . S
N690 C691 1.351 . S
C691 C685 1.428 1_545 S
C691 N690 1.351 . S
C691 C692 1.434 . S
C692 C683 1.429 1_545 S
C692 N689 1.350 . S
C692 C691 1.434 . S
C693 C694 1.369 . S
C693 C695 1.419 . S
C693 H697 0.930 . S
C694 C693 1.369 . S
C694 C703 1.429 . S
C695 C693 1.419 . S
C695 C696 1.363 . S
C695 H698 0.929 . S
C696 C695 1.363 . S
C696 C702 1.428 . S
H697 C693 0.930 . S
H698 C695 0.929 . S
S699 N700 1.613 . S
S699 N701 1.610 . S
N700 S699 1.613 . S
N700 C703 1.350 . S
N701 S699 1.610 . S
N701 C702 1.351 . S
C702 C696 1.428 . S
C702 N701 1.351 . S
C702 C703 1.434 . S
C703 C694 1.429 . S
C703 N700 1.350 . S
C703 C702 1.434 . S
C704 C705 1.369 . S
C704 C706 1.419 . S
C704 H708 0.930 . S
C705 C704 1.369 . S
C705 C714 1.429 . S
C706 C704 1.419 . S
C706 C707 1.363 . S
C706 H709 0.929 . S
C707 C706 1.363 . S
C707 C713 1.428 . S
H708 C704 0.930 . S
H709 C706 0.929 . S
S710 N711 1.613 . S
S710 N712 1.610 . S
N711 S710 1.613 . S
N711 C714 1.350 . S
N712 S710 1.610 . S
N712 C713 1.351 . S
C713 C707 1.428 . S
C713 N712 1.351 . S
C713 C714 1.434 . S
C714 C705 1.429 . S
C714 N711 1.350 . S
C714 C713 1.434 . S
C715 C716 1.369 . S
C715 C717 1.419 . S
C715 H719 0.930 . S
C716 C715 1.369 . S
C716 C725 1.429 . S
C717 C715 1.419 . S
C717 C718 1.363 . S
C717 H720 0.929 . S
C718 C717 1.363 . S
C718 C724 1.428 . S
H719 C715 0.930 . S
H720 C717 0.929 . S
S721 N722 1.613 . S
S721 N723 1.610 . S
N722 S721 1.613 . S
N722 C725 1.350 . S
N723 S721 1.610 . S
N723 C724 1.351 . S
C724 C718 1.428 . S
C724 N723 1.351 . S
C724 C725 1.434 . S
C725 C716 1.429 . S
C725 N722 1.350 . S
C725 C724 1.434 . S
C726 C727 1.369 . S
C726 C728 1.419 . S
C726 H730 0.930 . S
C727 C726 1.369 . S
C727 C736 1.429 . S
C728 C726 1.419 . S
C728 C729 1.363 . S
C728 H731 0.929 . S
C729 C728 1.363 . S
C729 C735 1.428 . S
H730 C726 0.930 . S
H731 C728 0.929 . S
S732 N733 1.613 . S
S732 N734 1.610 . S
N733 S732 1.613 . S
N733 C736 1.350 . S
N734 S732 1.610 . S
N734 C735 1.351 . S
C735 C729 1.428 . S
C735 N734 1.351 . S
C735 C736 1.434 . S
C736 C727 1.429 . S
C736 N733 1.350 . S
C736 C735 1.434 . S
C737 C738 1.369 . S
C737 C739 1.419 . S
C737 H741 0.930 . S
C738 C737 1.369 . S
C738 C747 1.429 . S
C739 C737 1.419 . S
C739 C740 1.363 . S
C739 H742 0.929 . S
C740 C739 1.363 . S
C740 C746 1.428 . S
H741 C737 0.930 . S
H742 C739 0.929 . S
S743 N744 1.613 . S
S743 N745 1.610 . S
N744 S743 1.613 . S
N744 C747 1.350 . S
N745 S743 1.610 . S
N745 C746 1.351 . S
C746 C740 1.428 . S
C746 N745 1.351 . S
C746 C747 1.434 . S
C747 C738 1.429 . S
C747 N744 1.350 . S
C747 C746 1.434 . S
C748 C749 1.369 . S
C748 C750 1.419 . S
C748 H752 0.930 . S
C749 C748 1.369 . S
C749 C758 1.429 . S
C750 C748 1.419 . S
C750 C751 1.363 . S
C750 H753 0.929 . S
C751 C750 1.363 . S
C751 C757 1.428 . S
H752 C748 0.930 . S
H753 C750 0.929 . S
S754 N755 1.613 . S
S754 N756 1.610 . S
N755 S754 1.613 . S
N755 C758 1.350 . S
N756 S754 1.610 . S
N756 C757 1.351 . S
C757 C751 1.428 . S
C757 N756 1.351 . S
C757 C758 1.434 . S
C758 C749 1.429 . S
C758 N755 1.350 . S
C758 C757 1.434 . S
C759 C760 1.369 . S
C759 C761 1.419 . S
C759 H763 0.930 . S
C760 C759 1.369 . S
C760 C769 1.429 . S
C761 C759 1.419 . S
C761 C762 1.363 . S
C761 H764 0.929 . S
C762 C761 1.363 . S
C762 C768 1.428 . S
H763 C759 0.930 . S
H764 C761 0.929 . S
S765 N766 1.613 . S
S765 N767 1.610 . S
N766 S765 1.613 . S
N766 C769 1.350 . S
N767 S765 1.610 . S
N767 C768 1.351 . S
C768 C762 1.428 . S
C768 N767 1.351 . S
C768 C769 1.434 . S
C769 C760 1.429 . S
C769 N766 1.350 . S
C769 C768 1.434 . S
C770 C771 1.369 . S
C770 C772 1.419 . S
C770 H774 0.930 . S
C771 C770 1.369 . S
C771 C780 1.429 . S
C772 C770 1.419 . S
C772 C773 1.363 . S
C772 H775 0.929 . S
C773 C772 1.363 . S
C773 C779 1.428 . S
H774 C770 0.930 . S
H775 C772 0.929 . S
S776 N777 1.613 . S
S776 N778 1.610 . S
N777 S776 1.613 . S
N777 C780 1.350 . S
N778 S776 1.610 . S
N778 C779 1.351 . S
C779 C773 1.428 . S
C779 N778 1.351 . S
C779 C780 1.434 . S
C780 C771 1.429 . S
C780 N777 1.350 . S
C780 C779 1.434 . S
C781 C782 1.369 . S
C781 C783 1.419 . S
C781 H785 0.930 . S
C782 C781 1.369 . S
C782 C791 1.429 . S
C783 C781 1.419 . S
C783 C784 1.363 . S
C783 H786 0.929 . S
C784 C783 1.363 . S
C784 C790 1.428 . S
H785 C781 0.930 . S
H786 C783 0.929 . S
S787 N788 1.613 . S
S787 N789 1.610 . S
N788 S787 1.613 . S
N788 C791 1.350 . S
N789 S787 1.610 . S
N789 C790 1.351 . S
C790 C784 1.428 . S
C790 N789 1.351 . S
C790 C791 1.434 . S
C791 C782 1.429 . S
C791 N788 1.350 . S
C791 C790 1.434 . S
C792 C793 1.369 . S
C792 C794 1.419 . S
C792 H796 0.930 . S
C793 C792 1.369 . S
C793 C802 1.429 . S
C794 C792 1.419 . S
C794 C795 1.363 . S
C794 H797 0.929 . S
C795 C794 1.363 . S
C795 C801 1.428 . S
H796 C792 0.930 . S
H797 C794 0.929 . S
S798 N799 1.613 . S
S798 N800 1.610 . S
N799 S798 1.613 . S
N799 C802 1.350 . S
N800 S798 1.610 . S
N800 C801 1.351 . S
C801 C795 1.428 . S
C801 N800 1.351 . S
C801 C802 1.434 . S
C802 C793 1.429 . S
C802 N799 1.350 . S
C802 C801 1.434 . S
C803 C804 1.369 . S
C803 C805 1.419 . S
C803 H807 0.930 . S
C804 C803 1.369 . S
C804 C813 1.429 . S
C805 C803 1.419 . S
C805 C806 1.363 . S
C805 H808 0.929 . S
C806 C805 1.363 . S
C806 C812 1.428 . S
H807 C803 0.930 . S
H808 C805 0.929 . S
S809 N810 1.613 . S
S809 N811 1.610 . S
N810 S809 1.613 . S
N810 C813 1.350 . S
N811 S809 1.610 . S
N811 C812 1.351 . S
C812 C806 1.428 . S
C812 N811 1.351 . S
C812 C813 1.434 . S
C813 C804 1.429 . S
C813 N810 1.350 . S
C813 C812 1.434 . S
C814 C815 1.369 . S
C814 C816 1.419 . S
C814 H818 0.930 . S
C815 C814 1.369 . S
C815 C824 1.429 . S
C816 C814 1.419 . S
C816 C817 1.363 . S
C816 H819 0.929 . S
C817 C816 1.363 . S
C817 C823 1.428 . S
H818 C814 0.930 . S
H819 C816 0.929 . S
S820 N821 1.613 . S
S820 N822 1.610 . S
N821 S820 1.613 . S
N821 C824 1.350 . S
N822 S820 1.610 . S
N822 C823 1.351 . S
C823 C817 1.428 . S
C823 N822 1.351 . S
C823 C824 1.434 . S
C824 C815 1.429 . S
C824 N821 1.350 . S
C824 C823 1.434 . S
C825 C826 1.369 . S
C825 C827 1.419 . S
C825 H829 0.930 . S
C826 C825 1.369 . S
C826 C835 1.429 . S
C827 C825 1.419 . S
C827 C828 1.363 . S
C827 H830 0.929 . S
C828 C827 1.363 . S
C828 C834 1.428 . S
H829 C825 0.930 . S
H830 C827 0.929 . S
S831 N832 1.613 . S
S831 N833 1.610 . S
N832 S831 1.613 . S
N832 C835 1.350 . S
N833 S831 1.610 . S
N833 C834 1.351 . S
C834 C828 1.428 . S
C834 N833 1.351 . S
C834 C835 1.434 . S
C835 C826 1.429 . S
C835 N832 1.350 . S
C835 C834 1.434 . S
C836 C837 1.369 . S
C836 C838 1.419 . S
C836 H840 0.930 . S
C837 C836 1.369 . S
C837 C846 1.429 . S
C838 C836 1.419 . S
C838 C839 1.363 . S
C838 H841 0.929 . S
C839 C838 1.363 . S
C839 C845 1.428 . S
H840 C836 0.930 . S
H841 C838 0.929 . S
S842 N843 1.613 . S
S842 N844 1.610 . S
N843 S842 1.613 . S
N843 C846 1.350 . S
N844 S842 1.610 . S
N844 C845 1.351 . S
C845 C839 1.428 . S
C845 N844 1.351 . S
C845 C846 1.434 . S
C846 C837 1.429 . S
C846 N843 1.350 . S
C846 C845 1.434 . S
C847 C848 1.369 . S
C847 C849 1.419 . S
C847 H851 0.930 . S
C848 C847 1.369 . S
C848 C857 1.429 . S
C849 C847 1.419 . S
C849 C850 1.363 . S
C849 H852 0.929 . S
C850 C849 1.363 . S
C850 C856 1.428 . S
H851 C847 0.930 . S
H852 C849 0.929 . S
S853 N854 1.613 . S
S853 N855 1.610 . S
N854 S853 1.613 . S
N854 C857 1.350 . S
N855 S853 1.610 . S
N855 C856 1.351 . S
C856 C850 1.428 . S
C856 N855 1.351 . S
C856 C857 1.434 . S
C857 C848 1.429 . S
C857 N854 1.350 . S
C857 C856 1.434 . S
C858 C859 1.369 . S
C858 C860 1.419 . S
C858 H862 0.930 . S
C859 C858 1.369 . S
C859 C868 1.429 . S
C860 C858 1.419 . S
C860 C861 1.363 . S
C860 H863 0.929 . S
C861 C860 1.363 . S
C861 C867 1.428 . S
H862 C858 0.930 . S
H863 C860 0.929 . S
S864 N865 1.613 . S
S864 N866 1.610 . S
N865 S864 1.613 . S
N865 C868 1.350 . S
N866 S864 1.610 . S
N866 C867 1.351 . S
C867 C861 1.428 . S
C867 N866 1.351 . S
C867 C868 1.434 . S
C868 C859 1.429 . S
C868 N865 1.350 . S
C868 C867 1.434 . S
C869 C870 1.369 . S
C869 C871 1.419 . S
C869 H873 0.930 . S
C870 C869 1.369 . S
C870 C879 1.429 . S
C871 C869 1.419 . S
C871 C872 1.363 . S
C871 H874 0.929 . S
C872 C871 1.363 . S
C872 C878 1.428 . S
H873 C869 0.930 . S
H874 C871 0.929 . S
S875 N876 1.613 . S
S875 N877 1.610 . S
N876 S875 1.613 . S
N876 C879 1.350 . S
N877 S875 1.610 . S
N877 C878 1.351 . S
C878 C872 1.428 . S
C878 N877 1.351 . S
C878 C879 1.434 . S
C879 C870 1.429 . S
C879 N876 1.350 . S
C879 C878 1.434 . S
C353 C5 1.087 . S
C355 C159 1.083 . S
C364 C93 1.075 . S
C366 C27 1.075 . S
C375 C119 1.076 . S
C377 C53 1.075 . S
C386 C75 1.086 . S
C388 C141 1.080 . S
C397 C336 1.075 . S
C399 C182 1.082 . S
C408 C270 1.083 . S
C410 C204 1.086 . S
C419 C293 1.075 . S
C421 C227 1.076 . S
C430 C315 1.087 . S
C432 C249 1.080 . S
C441 C6 1.443 . S
C443 C335 1.443 . S
C452 C28 1.447 . S
C454 C269 1.447 . S
C463 C51 1.447 . S
C465 C295 1.447 . S
C474 C317 1.446 . S
C476 C73 1.446 . S
C485 C203 1.449 . S
C487 C94 1.448 . S
C496 C117 1.450 . S
C498 C229 1.450 . S
C507 C251 1.443 . S
C509 C139 1.444 . S
C518 C160 1.446 . S
C520 C181 1.447 . S
C529 C268 1.622 1_554 S
C531 C9 1.653 . S
C540 C31 1.649 . S
C542 C294 1.623 . S
C551 C316 1.621 1_554 S
C553 C49 1.653 . S
C562 C334 1.624 . S
C564 C71 1.650 . S
C573 C97 1.653 . S
C575 C180 1.620 . S
C584 C115 1.651 . S
C586 C202 1.619 1_556 S
C595 C137 1.650 . S
C597 C228 1.624 . S
C606 C250 1.618 1_556 S
C608 C163 1.652 . S
C617 C183 1.653 . S
C619 C92 1.620 1_556 S
C628 C205 1.649 . S
C630 C118 1.624 . S
C639 C140 1.618 1_556 S
C641 C226 1.653 . S
C650 C248 1.653 . S
C652 C158 1.619 . S
C661 C271 1.652 . S
C663 C4 1.619 . S
C672 C292 1.650 . S
C674 C26 1.624 1_554 S
C683 C52 1.625 . S
C685 C314 1.650 . S
C694 C74 1.622 1_554 S
C696 C337 1.650 . S
C705 C8 1.560 . S
C707 C207 1.461 . S
C716 C225 1.451 . S
C718 C30 1.564 . S
C727 C48 1.560 . S
C729 C247 1.460 . S
C738 C70 1.560 . S
C740 C185 1.460 . S
C749 C96 1.560 . S
C751 C339 1.462 . S
C760 C114 1.565 . S
C762 C273 1.453 . S
C771 C136 1.564 . S
C773 C291 1.456 . S
C782 C313 1.452 . S
C784 C162 1.564 . S
C793 C29 1.459 . S
C795 C184 1.562 . S
C804 C50 1.452 . S
C806 C206 1.564 . S
C815 C224 1.566 . S
C817 C72 1.452 . S
C826 C246 1.561 . S
C828 C7 1.459 . S
C837 C161 1.460 . S
C839 C272 1.561 . S
C848 C95 1.461 . S
C850 C290 1.561 . S
C859 C116 1.461 . S
C861 C312 1.561 . S
C870 C138 1.460 . S
C872 C338 1.561 . S
