# Generated by pormake.
# Topology fcu, (12)-cn, num edge types: 1
# Building blocks:
#     Node 0, Type 0, BuildingBlock: EZIPEK_clean_sbu_0, # of connection points: 12
#     Node 1, Type 0, BuildingBlock: EZIPEK_clean_sbu_0, # of connection points: 12
#     Node 2, Type 0, BuildingBlock: EZIPEK_clean_sbu_0, # of connection points: 12
#     Node 3, Type 0, BuildingBlock: EZIPEK_clean_sbu_0, # of connection points: 12
#     Edge 4, Type (0, 0), BuildingBlock: UVAHIK_clean_linker_0, # of connection points: 2
#     Edge 5, Type (0, 0), BuildingBlock: UVAHIK_clean_linker_0, # of connection points: 2
#     Edge 6, Type (0, 0), BuildingBlock: UVAHIK_clean_linker_0, # of connection points: 2
#     Edge 7, Type (0, 0), BuildingBlock: UVAHIK_clean_linker_0, # of connection points: 2
#     Edge 8, Type (0, 0), BuildingBlock: UVAHIK_clean_linker_0, # of connection points: 2
#     Edge 9, Type (0, 0), BuildingBlock: UVAHIK_clean_linker_0, # of connection points: 2
#     Edge 10, Type (0, 0), BuildingBlock: UVAHIK_clean_linker_0, # of connection points: 2
#     Edge 11, Type (0, 0), BuildingBlock: UVAHIK_clean_linker_0, # of connection points: 2
#     Edge 12, Type (0, 0), BuildingBlock: UVAHIK_clean_linker_0, # of connection points: 2
#     Edge 13, Type (0, 0), BuildingBlock: UVAHIK_clean_linker_0, # of connection points: 2
#     Edge 14, Type (0, 0), BuildingBlock: UVAHIK_clean_linker_0, # of connection points: 2
#     Edge 15, Type (0, 0), BuildingBlock: UVAHIK_clean_linker_0, # of connection points: 2
#     Edge 16, Type (0, 0), BuildingBlock: UVAHIK_clean_linker_0, # of connection points: 2
#     Edge 17, Type (0, 0), BuildingBlock: UVAHIK_clean_linker_0, # of connection points: 2
#     Edge 18, Type (0, 0), BuildingBlock: UVAHIK_clean_linker_0, # of connection points: 2
#     Edge 19, Type (0, 0), BuildingBlock: UVAHIK_clean_linker_0, # of connection points: 2
#     Edge 20, Type (0, 0), BuildingBlock: UVAHIK_clean_linker_0, # of connection points: 2
#     Edge 21, Type (0, 0), BuildingBlock: UVAHIK_clean_linker_0, # of connection points: 2
#     Edge 22, Type (0, 0), BuildingBlock: UVAHIK_clean_linker_0, # of connection points: 2
#     Edge 23, Type (0, 0), BuildingBlock: UVAHIK_clean_linker_0, # of connection points: 2
#     Edge 24, Type (0, 0), BuildingBlock: UVAHIK_clean_linker_0, # of connection points: 2
#     Edge 25, Type (0, 0), BuildingBlock: UVAHIK_clean_linker_0, # of connection points: 2
#     Edge 26, Type (0, 0), BuildingBlock: UVAHIK_clean_linker_0, # of connection points: 2
#     Edge 27, Type (0, 0), BuildingBlock: UVAHIK_clean_linker_0, # of connection points: 2
# Relax obj value: 0.000
# Max RMSD: 0.000
# Mean RMSD: 0.000
data_MOF--net-fcu--node1-EZIPEK_clean_sbu_0--edge1-UVAHIK_clean_linker_0
_symmetry_space_group_name_H-M    P1
_symmetry_Int_Tables_number       1
_symmetry_cell_setting            triclinic
loop_
_symmetry_equiv_pos_as_xyz
'x, y, z'
_cell_length_a     33.383443
_cell_length_b     33.388412
_cell_length_c     33.388433
_cell_angle_alpha  89.990803
_cell_angle_beta   90.005367
_cell_angle_gamma 90.003426
loop_
_atom_site_label
_atom_site_type_symbol
_atom_site_fract_x
_atom_site_fract_y
_atom_site_fract_z
_atom_type_partial_charge
C0 C 0.00313 0.90562 0.09996 0.0
C1 C 1.003 0.90601 0.90567 0.0
C2 C 0.00312 0.09996 0.10039 0.0
C3 C 0.00306 0.10035 0.90602 0.0
C4 C 0.90591 0.10016 0.00319 0.0
C5 C 0.90593 0.90586 1.00292 0.0
C6 C 0.10026 0.10016 0.00314 0.0
C7 C 0.10025 0.90586 1.0028 0.0
C8 C 0.10019 0.00316 0.90578 0.0
C9 C 0.90583 0.00314 0.90595 0.0
C10 C 0.10034 1.00284 0.1001 0.0
C11 C 0.90599 1.00286 0.10026 0.0
Eu12 Eu 0.00309 0.92725 1.00286 0.0
O13 O 0.96744 0.96749 0.96733 0.0
O14 O 0.03873 0.96734 0.03858 0.0
Eu15 Eu 0.92731 0.003 0.00309 0.0
Eu16 Eu 0.07886 0.003 0.00296 0.0
O17 O 0.9675 0.96734 0.03863 0.0
O18 O 0.03869 0.96748 0.96726 0.0
Eu19 Eu 0.00314 1.00283 0.07886 0.0
Eu20 Eu 1.00302 0.00312 0.92717 0.0
O21 O 0.96755 0.03857 0.03874 0.0
O22 O 0.9675 0.03869 0.9675 0.0
O23 O 0.03861 0.0387 0.96744 0.0
O24 O 0.03868 0.03856 0.03867 0.0
Eu25 Eu 0.00308 0.07885 0.00316 0.0
O26 O 0.00318 0.89356 0.06182 0.0
O27 O 1.00302 0.8938 0.94378 0.0
O28 O 1.003 0.1122 0.0623 0.0
O29 O 0.00313 0.11244 0.94416 0.0
O30 O 0.89376 0.06204 0.00324 0.0
O31 O 0.89377 0.94397 0.0031 0.0
O32 O 0.11241 0.06204 1.00295 0.0
O33 O 0.1124 0.94397 1.00295 0.0
O34 O 0.06206 0.00313 0.89363 0.0
O35 O 0.94393 0.0031 0.89374 0.0
O36 O 0.06223 1.00268 0.1123 0.0
O37 O 0.94411 1.00275 0.11241 0.0
O38 O 0.06215 0.11234 0.00331 0.0
O39 O 0.94402 0.11234 0.00312 0.0
O40 O 0.06213 0.89371 1.0027 0.0
O41 O 0.94405 0.8937 1.00278 0.0
O42 O 1.003 0.94413 0.89356 0.0
O43 O 1.00298 0.06226 0.89379 0.0
O44 O 0.00308 0.9437 0.11222 0.0
O45 O 0.00323 0.06182 0.11248 0.0
O46 O 0.89381 0.003 0.06215 0.0
O47 O 0.89371 0.00316 0.94408 0.0
O48 O 0.11245 0.00303 0.06198 0.0
O49 O 0.11236 0.00315 0.9439 0.0
C50 C 0.00306 0.40606 0.60038 0.0
C51 C 1.00303 0.60035 0.59999 0.0
C52 C 0.0031 0.40561 0.40605 0.0
C53 C 0.00311 0.59998 0.40564 0.0
C54 C 0.10032 0.50284 0.4059 0.0
C55 C 0.10019 0.50317 0.6002 0.0
C56 C 0.90596 0.50288 0.40579 0.0
C57 C 0.90588 0.50314 0.6001 0.0
C58 C 0.9059 0.60015 0.5028 0.0
C59 C 0.10025 0.60017 0.50287 0.0
C60 C 0.90592 0.40584 0.5031 0.0
C61 C 0.10027 0.40585 0.50321 0.0
Eu62 Eu 0.00305 0.50317 0.57875 0.0
O63 O 0.03869 0.53874 0.53853 0.0
O64 O 0.96746 0.46742 0.53864 0.0
Eu65 Eu 0.07887 0.50301 0.50304 0.0
Eu66 Eu 0.92731 0.503 0.50296 0.0
O67 O 0.03868 0.46743 0.53868 0.0
O68 O 0.96744 0.53874 0.5385 0.0
Eu69 Eu 0.00309 0.42716 0.50318 0.0
Eu70 Eu 0.00308 0.57885 0.50287 0.0
O71 O 0.03868 0.46731 0.46746 0.0
O72 O 0.03865 0.53854 0.46732 0.0
O73 O 0.96755 0.53853 0.46728 0.0
O74 O 0.96754 0.46731 0.46743 0.0
Eu75 Eu 0.00313 0.50284 0.42715 0.0
O76 O 0.00307 0.44421 0.61244 0.0
O77 O 1.00301 0.56225 0.61219 0.0
O78 O 0.00306 0.4437 0.3938 0.0
O79 O 0.00321 0.56184 0.39355 0.0
O80 O 0.11244 0.50302 0.44402 0.0
O81 O 0.11237 0.50301 0.5621 0.0
O82 O 0.8938 0.50301 0.4439 0.0
O83 O 0.89374 0.50299 0.56198 0.0
O84 O 0.94402 0.61233 0.50286 0.0
O85 O 0.06214 0.61234 0.50287 0.0
O86 O 0.94403 0.39367 0.50326 0.0
O87 O 0.06216 0.39368 0.50334 0.0
O88 O 0.94408 0.50276 0.39363 0.0
O89 O 0.06221 0.50269 0.3937 0.0
O90 O 0.944 0.50326 0.61226 0.0
O91 O 0.06206 0.5033 0.61233 0.0
O92 O 0.00306 0.61246 0.56186 0.0
O93 O 1.00302 0.61221 0.44373 0.0
O94 O 0.00305 0.39381 0.56231 0.0
O95 O 0.00316 0.39352 0.44419 0.0
O96 O 0.11241 0.44397 0.50304 0.0
O97 O 0.1124 0.56205 0.50291 0.0
O98 O 0.89377 0.44396 0.50292 0.0
O99 O 0.89376 0.56203 0.5028 0.0
C100 C 0.50301 0.9058 0.60012 0.0
C101 C 0.50304 0.1001 0.60024 0.0
C102 C 0.50316 0.90591 0.40577 0.0
C103 C 0.50314 0.10027 0.40592 0.0
C104 C 0.60034 0.00307 0.40595 0.0
C105 C 0.60016 1.00293 0.60026 0.0
C106 C 0.40597 0.00305 0.40581 0.0
C107 C 0.40587 0.00297 0.60011 0.0
C108 C 0.4059 0.10015 0.50302 0.0
C109 C 0.60026 0.10016 0.50313 0.0
C110 C 0.40592 0.90583 0.50289 0.0
C111 C 0.60027 0.90584 0.503 0.0
Eu112 Eu 0.50303 0.00296 0.57877 0.0
O113 O 0.53868 0.03864 0.53865 0.0
O114 O 0.46746 0.96731 0.53856 0.0
Eu115 Eu 0.57887 0.003 0.5031 0.0
Eu116 Eu 0.42731 0.00299 0.50299 0.0
O117 O 0.53867 0.96732 0.53862 0.0
O118 O 0.46744 0.03864 0.5386 0.0
Eu119 Eu 0.5031 0.92716 0.50296 0.0
Eu120 Eu 0.50308 0.07885 0.50307 0.0
O121 O 0.53868 0.96743 0.46739 0.0
O122 O 0.53868 0.03864 0.46745 0.0
O123 O 0.46753 0.03863 0.46739 0.0
O124 O 0.46755 0.96742 0.46734 0.0
Eu125 Eu 0.50314 0.00307 0.42716 0.0
O126 O 0.50294 0.94391 0.61228 0.0
O127 O 0.50304 0.06197 0.61236 0.0
O128 O 0.50313 0.94404 0.39363 0.0
O129 O 0.50317 0.06217 0.39373 0.0
O130 O 0.61246 0.00296 0.44408 0.0
O131 O 0.61235 1.00289 0.56216 0.0
O132 O 0.3938 1.00294 0.44392 0.0
O133 O 0.39373 1.00289 0.56199 0.0
O134 O 0.44401 0.11232 0.50298 0.0
O135 O 0.56214 0.11233 0.50303 0.0
O136 O 0.44404 0.89366 0.50282 0.0
O137 O 0.56215 0.89367 0.50289 0.0
O138 O 0.44409 0.00316 0.39366 0.0
O139 O 0.56224 0.00316 0.39375 0.0
O140 O 0.44398 0.00305 0.61228 0.0
O141 O 0.56203 0.00299 0.61237 0.0
O142 O 0.50305 0.1123 0.56214 0.0
O143 O 0.50309 0.1124 0.44404 0.0
O144 O 0.50311 0.89364 0.56201 0.0
O145 O 0.50317 0.89372 0.44387 0.0
O146 O 0.61241 0.94396 0.50314 0.0
O147 O 0.6124 0.06204 0.50321 0.0
O148 O 0.39377 0.94395 0.503 0.0
O149 O 0.39376 0.06203 0.50305 0.0
C150 C 0.50301 0.60012 0.90578 0.0
C151 C 0.50317 0.60029 0.10008 0.0
C152 C 0.50306 0.40577 0.9059 0.0
C153 C 0.50313 0.40595 0.10026 0.0
C154 C 0.60028 0.40589 0.00304 0.0
C155 C 0.60023 0.6002 1.00287 0.0
C156 C 0.40592 0.40586 0.0031 0.0
C157 C 0.40592 0.60017 0.00297 0.0
C158 C 0.40598 0.50307 0.10022 0.0
C159 C 0.60033 0.50307 0.10008 0.0
C160 C 0.40585 0.50296 0.9059 0.0
C161 C 0.60021 0.50301 0.90577 0.0
Eu162 Eu 0.50307 0.57878 1.00295 0.0
O163 O 0.53873 0.53865 0.0386 0.0
O164 O 0.46746 0.53857 0.96734 0.0
Eu165 Eu 0.57887 0.50305 1.00293 0.0
Eu166 Eu 0.42731 0.50303 0.00304 0.0
O167 O 0.53866 0.53859 0.96729 0.0
O168 O 0.46747 0.53865 0.03866 0.0
Eu169 Eu 0.50304 0.50297 0.92715 0.0
Eu170 Eu 0.50314 0.50311 0.07884 0.0
O171 O 0.53865 0.46736 0.96738 0.0
O172 O 0.53867 0.46745 0.03861 0.0
O173 O 0.46756 0.46743 0.03865 0.0
O174 O 0.4675 0.46736 0.96744 0.0
Eu175 Eu 0.5031 0.42717 0.00306 0.0
O176 O 0.50298 0.61228 0.94389 0.0
O177 O 0.50309 0.61239 0.06194 0.0
O178 O 0.50311 0.39364 0.94402 0.0
O179 O 0.50311 0.39376 0.06216 0.0
O180 O 0.61242 0.44401 1.00288 0.0
O181 O 0.61239 0.56209 1.00283 0.0
O182 O 0.39377 0.44398 0.00315 0.0
O183 O 0.39376 0.56206 1.00295 0.0
O184 O 0.4441 0.50318 0.11237 0.0
O185 O 0.56222 0.50317 0.11228 0.0
O186 O 0.44395 0.5029 0.8937 0.0
O187 O 0.56208 0.50289 0.89361 0.0
O188 O 0.44403 0.39369 0.00303 0.0
O189 O 0.56217 0.39371 0.00317 0.0
O190 O 0.44404 0.61232 0.003 0.0
O191 O 0.5621 0.61234 1.00294 0.0
O192 O 0.50321 0.56219 0.11228 0.0
O193 O 0.50314 0.44408 0.11239 0.0
O194 O 0.50306 0.56201 0.89362 0.0
O195 O 0.50301 0.44388 0.8937 0.0
O196 O 0.61237 0.50311 0.94388 0.0
O197 O 0.61245 0.50298 0.06196 0.0
O198 O 0.39373 0.50304 0.94402 0.0
O199 O 0.39381 0.50298 0.0621 0.0
C200 C 1.00187 0.17219 0.12154 0.0
C201 C 0.00311 0.13135 0.1319 0.0
C202 C 1.00181 0.20172 0.1512 0.0
C203 C 0.0278 0.2191 0.25731 0.0
H204 H 0.95819 0.31141 0.24621 0.0
C205 C 0.00431 0.3333 0.38516 0.0
C206 C 0.00308 0.3741 0.37467 0.0
C207 C 0.0043 0.30366 0.35559 0.0
C208 C 0.97813 0.28605 0.24955 0.0
H209 H 0.00522 0.08977 0.18193 0.0
H210 H 0.00479 0.14128 0.23346 0.0
H211 H 0.9582 0.25978 0.19457 0.0
H212 H 1.00094 0.41551 0.3245 0.0
H213 H 1.00126 0.36384 0.27314 0.0
H214 H 0.04774 0.24537 0.31229 0.0
C215 C 0.00432 0.15042 0.20234 0.0
C216 C 0.97813 0.25645 0.21995 0.0
C217 C 0.00432 0.12085 0.1727 0.0
C218 C 1.00183 0.38446 0.33383 0.0
C219 C 1.00177 0.3548 0.30429 0.0
C220 C 0.02779 0.2487 0.28691 0.0
C221 C 0.00304 0.19119 0.19194 0.0
C222 C 1.00298 0.22264 0.22347 0.0
C223 C 1.00301 0.31406 0.31482 0.0
C224 C 1.00297 0.28253 0.28337 0.0
H225 H 1.001 0.18152 0.09049 0.0
H226 H 1.00132 0.23287 0.14216 0.0
H227 H 0.04775 0.19374 0.26064 0.0
H228 H 0.00522 0.32407 0.41624 0.0
H229 H 0.00479 0.27254 0.36473 0.0
C230 C 0.83374 0.00468 0.12134 0.0
C231 C 0.87456 1.00285 0.13172 0.0
C232 C 0.80418 0.00473 0.15098 0.0
C233 C 0.78641 0.9777 0.25677 0.0
H234 H 0.69497 0.0486 0.24651 0.0
C235 C 0.67262 1.00128 0.38497 0.0
C236 C 0.63182 0.00308 0.37454 0.0
C237 C 0.70223 1.00123 0.35537 0.0
C238 C 0.72009 0.0283 0.24961 0.0
H239 H 0.91606 0.99965 0.18176 0.0
H240 H 0.8645 1.00007 0.23325 0.0
H241 H 0.74659 0.04852 0.19485 0.0
H242 H 0.59038 0.00624 0.32444 0.0
H243 H 0.642 0.00584 0.27303 0.0
H244 H 0.7599 0.95748 0.31153 0.0
C245 C 0.8554 1.00102 0.20213 0.0
C246 C 0.74968 0.02825 0.21999 0.0
C247 C 0.885 1.00103 0.17252 0.0
C248 C 0.62144 0.00488 0.33373 0.0
C249 C 0.65107 0.0049 0.30416 0.0
C250 C 0.75682 0.97774 0.28639 0.0
C251 C 0.81465 1.00289 0.19171 0.0
C252 C 0.78318 1.00295 0.22322 0.0
C253 C 0.69181 0.00306 0.31463 0.0
C254 C 0.7233 0.00304 0.28315 0.0
H255 H 0.82446 0.00604 0.09029 0.0
H256 H 0.77304 0.0057 0.14192 0.0
H257 H 0.81152 0.9574 0.25986 0.0
H258 H 0.68186 0.99992 0.41603 0.0
H259 H 0.73336 1.00028 0.36447 0.0
C260 C 1.00162 0.88445 0.17217 0.0
C261 C 0.00311 0.87411 0.13134 0.0
C262 C 1.00155 0.85479 0.20171 0.0
C263 C 0.02802 0.74884 0.21925 0.0
H264 H 0.95781 0.75952 0.31116 0.0
C265 C 0.00457 0.62088 0.33334 0.0
C266 C 0.0031 0.63136 0.37413 0.0
C267 C 0.00457 0.65044 0.3037 0.0
C268 C 0.97792 0.75631 0.2859 0.0
H269 H 0.00569 0.82411 0.08978 0.0
H270 H 0.00525 0.77255 0.14129 0.0
H271 H 0.95781 0.81116 0.2595 0.0
H272 H 1.00052 0.68152 0.41552 0.0
H273 H 1.00084 0.73287 0.36384 0.0
H274 H 0.04813 0.694 0.24566 0.0
C275 C 0.00457 0.80367 0.15042 0.0
C276 C 0.97791 0.7859 0.2563 0.0
C277 C 0.00458 0.83331 0.12086 0.0
C278 C 1.00161 0.67219 0.38448 0.0
C279 C 1.00154 0.70173 0.35481 0.0
C280 C 0.02802 0.71925 0.24886 0.0
C281 C 1.00303 0.81406 0.19119 0.0
C282 C 1.00298 0.78253 0.22263 0.0
C283 C 1.00303 0.69121 0.31408 0.0
C284 C 1.00298 0.72264 0.28255 0.0
H285 H 1.00053 0.9155 0.1815 0.0
H286 H 1.00085 0.86382 0.23285 0.0
H287 H 0.04813 0.74564 0.194 0.0
H288 H 0.00568 0.5898 0.32413 0.0
H289 H 0.00525 0.64131 0.27258 0.0
C290 C 0.38498 0.0046 0.33354 0.0
C291 C 0.37454 0.00304 0.37435 0.0
C292 C 0.35538 0.0046 0.30394 0.0
C293 C 0.24955 0.97776 0.28618 0.0
H294 H 0.26008 0.04811 0.19435 0.0
C295 C 0.12142 1.00125 0.17234 0.0
C296 C 0.13181 1.00282 0.13152 0.0
C297 C 0.15105 1.00121 0.20191 0.0
C298 C 0.25691 0.02796 0.21958 0.0
H299 H 0.32443 1.00027 0.41579 0.0
H300 H 0.273 1.00058 0.36416 0.0
H301 H 0.3117 0.04818 0.24602 0.0
H302 H 0.18187 0.00553 0.09002 0.0
H303 H 0.23336 0.00516 0.1416 0.0
H304 H 0.19475 0.95754 0.25974 0.0
C305 C 0.30415 1.00137 0.3551 0.0
C306 C 0.2865 0.028 0.2492 0.0
C307 C 0.33372 1.00144 0.38473 0.0
C308 C 0.17262 0.00437 0.12109 0.0
C309 C 0.20223 0.0044 0.15069 0.0
C310 C 0.21996 0.97772 0.25656 0.0
C311 C 0.31463 0.00296 0.31436 0.0
C312 C 0.28316 1.00291 0.28285 0.0
C313 C 0.19179 1.00281 0.19144 0.0
C314 C 0.22329 1.00282 0.22292 0.0
H315 H 0.41605 0.0058 0.3243 0.0
H316 H 0.36449 0.00535 0.27281 0.0
H317 H 0.24638 0.95762 0.31141 0.0
H318 H 0.09036 1.00009 0.18162 0.0
H319 H 0.14198 1.00046 0.23304 0.0
C320 C 1.00283 0.83375 0.88458 0.0
C321 C 1.00296 0.8746 0.87419 0.0
C322 C 1.00278 0.8042 0.85494 0.0
C323 C 0.02679 0.78737 0.74825 0.0
H324 H 0.95967 0.69342 0.76094 0.0
C325 C 0.00309 0.67266 0.62092 0.0
C326 C 1.003 0.63183 0.6314 0.0
C327 C 0.00307 0.70228 0.6505 0.0
C328 C 0.97892 0.71926 0.75714 0.0
H329 H 0.00304 0.91617 0.82411 0.0
H330 H 1.00261 0.86463 0.77262 0.0
H331 H 0.95966 0.74505 0.81257 0.0
H332 H 1.00289 0.59037 0.68156 0.0
H333 H 0.0032 0.64201 0.73294 0.0
H334 H 0.04606 0.76157 0.69283 0.0
C335 C 0.00304 0.8555 0.80375 0.0
C336 C 0.97892 0.74885 0.78674 0.0
C337 C 0.00305 0.88508 0.83336 0.0
C338 C 1.00286 0.62144 0.67224 0.0
C339 C 1.0028 0.65108 0.7018 0.0
C340 C 0.0268 0.75777 0.71865 0.0
C341 C 1.00289 0.81471 0.81418 0.0
C342 C 1.00286 0.78326 0.78266 0.0
C343 C 1.00291 0.69184 0.69129 0.0
C344 C 1.00287 0.72336 0.72275 0.0
H345 H 1.00286 0.82443 0.91565 0.0
H346 H 0.00318 0.77305 0.864 0.0
H347 H 0.04605 0.8132 0.74446 0.0
H348 H 0.00309 0.68192 0.58983 0.0
H349 H 1.00265 0.73341 0.64138 0.0
C350 C 0.1212 1.00149 0.83352 0.0
C351 C 0.13162 0.0032 0.87433 0.0
C352 C 0.1508 1.00146 0.80393 0.0
C353 C 0.25663 0.02836 0.78611 0.0
H354 H 0.24619 0.9577 0.69453 0.0
C355 C 0.38481 0.00469 0.67236 0.0
C356 C 0.37441 0.00298 0.63155 0.0
C357 C 0.35518 0.00476 0.70193 0.0
C358 C 0.24933 0.97794 0.71969 0.0
H359 H 0.18172 0.00621 0.91578 0.0
H360 H 0.23316 0.00583 0.86417 0.0
H361 H 0.19454 0.95776 0.74618 0.0
H362 H 0.32434 1.00002 0.59006 0.0
H363 H 0.27286 1.00047 0.64164 0.0
H364 H 0.31143 0.04853 0.75963 0.0
C365 C 0.20202 0.00496 0.8551 0.0
C366 C 0.21973 0.97797 0.74929 0.0
C367 C 0.17244 0.00492 0.88472 0.0
C368 C 0.33359 1.00131 0.62112 0.0
C369 C 0.304 1.00131 0.65073 0.0
C370 C 0.28624 0.02833 0.75651 0.0
C371 C 0.19156 0.00321 0.81436 0.0
C372 C 0.22303 0.00318 0.78286 0.0
C373 C 0.31443 0.00306 0.69147 0.0
C374 C 0.28294 0.00311 0.72295 0.0
H375 H 0.09013 1.0002 0.82427 0.0
H376 H 0.14171 1.00059 0.7728 0.0
H377 H 0.25978 0.04859 0.81127 0.0
H378 H 0.41587 0.00595 0.68163 0.0
H379 H 0.36426 0.00563 0.73306 0.0
C380 C 0.00369 0.38518 0.67271 0.0
C381 C 0.00307 0.37468 0.6319 0.0
C382 C 0.00371 0.35562 0.70235 0.0
C383 C 0.02657 0.24864 0.71903 0.0
H384 H 0.96097 0.26226 0.81391 0.0
C385 C 1.00246 0.1215 0.83379 0.0
C386 C 0.00306 0.13186 0.87464 0.0
C387 C 1.0025 0.15116 0.80425 0.0
C388 C 0.9798 0.2582 0.78781 0.0
H389 H 1.00183 0.3245 0.59048 0.0
H390 H 1.0015 0.27316 0.64216 0.0
H391 H 0.96099 0.31392 0.76228 0.0
H392 H 0.00427 0.18189 0.91623 0.0
H393 H 0.00469 0.23342 0.86471 0.0
H394 H 0.04538 0.19293 0.74455 0.0
C395 C 1.0025 0.3043 0.65119 0.0
C396 C 0.97981 0.28781 0.75821 0.0
C397 C 1.00246 0.33383 0.62153 0.0
C398 C 0.00367 0.17267 0.88514 0.0
C399 C 0.00369 0.20231 0.85558 0.0
C400 C 0.02657 0.21903 0.74862 0.0
C401 C 0.00313 0.31483 0.69194 0.0
C402 C 0.00318 0.28338 0.72347 0.0
C403 C 0.00311 0.19191 0.81479 0.0
C404 C 0.00317 0.22345 0.78335 0.0
H405 H 0.0043 0.41627 0.68193 0.0
H406 H 0.00472 0.36474 0.73346 0.0
H407 H 0.0454 0.24458 0.69293 0.0
H408 H 1.00185 0.09044 0.82445 0.0
H409 H 1.00152 0.14214 0.77311 0.0
C410 C 0.62112 0.00455 0.67254 0.0
C411 C 0.63157 1.00292 0.63174 0.0
C412 C 0.65071 0.00458 0.70215 0.0
C413 C 0.75656 0.97779 0.71997 0.0
H414 H 0.74604 0.04833 0.81164 0.0
C415 C 0.88472 1.00152 0.83372 0.0
C416 C 0.87434 0.00314 0.87453 0.0
C417 C 0.85508 1.00145 0.80415 0.0
C418 C 0.7492 0.02813 0.78646 0.0
H419 H 0.68169 1.00008 0.59031 0.0
H420 H 0.73311 1.00046 0.64196 0.0
H421 H 0.69439 0.04827 0.75998 0.0
H422 H 0.8243 0.00595 0.91604 0.0
H423 H 0.77279 0.00551 0.86448 0.0
H424 H 0.81137 0.95766 0.74644 0.0
C425 C 0.70196 1.00126 0.65101 0.0
C426 C 0.7196 0.0281 0.75685 0.0
C427 C 0.6724 1.00129 0.62137 0.0
C428 C 0.83354 0.00473 0.88498 0.0
C429 C 0.80392 0.00473 0.85538 0.0
C430 C 0.78616 0.97783 0.74958 0.0
C431 C 0.69147 1.00293 0.69174 0.0
C432 C 0.72294 1.00294 0.72325 0.0
C433 C 0.81434 0.00306 0.81463 0.0
C434 C 0.78283 0.003 0.78317 0.0
H435 H 0.59005 0.00577 0.68177 0.0
H436 H 0.6416 0.00539 0.73327 0.0
H437 H 0.75973 0.9576 0.69479 0.0
H438 H 0.91578 1.00032 0.82443 0.0
H439 H 0.86414 1.00064 0.77302 0.0
C440 C 0.33366 0.38482 0.00493 0.0
C441 C 0.37447 0.37442 0.00314 0.0
C442 C 0.30408 0.3552 0.00499 0.0
C443 C 0.28629 0.24943 0.97795 0.0
H444 H 0.19478 0.25965 0.04875 0.0
C445 C 0.17253 0.12119 1.00143 0.0
C446 C 0.13172 0.1316 0.00318 0.0
C447 C 0.20212 0.1508 1.00141 0.0
C448 C 0.21992 0.25657 0.02848 0.0
H449 H 0.41595 0.32436 1.00003 0.0
H450 H 0.36436 0.2729 1.00045 0.0
H451 H 0.24641 0.31132 0.04873 0.0
H452 H 0.09026 0.18167 0.00627 0.0
H453 H 0.14186 0.23312 0.00593 0.0
H454 H 0.2598 0.19467 0.95769 0.0
C455 C 0.35527 0.30402 1.00137 0.0
C456 C 0.24951 0.28618 0.02847 0.0
C457 C 0.38488 0.33362 1.00138 0.0
C458 C 0.12132 0.1724 0.00495 0.0
C459 C 0.15093 0.20199 0.00501 0.0
C460 C 0.2567 0.21981 0.97796 0.0
C461 C 0.31453 0.31446 0.00319 0.0
C462 C 0.28305 0.28296 0.0032 0.0
C463 C 0.19168 0.19154 0.00322 0.0
C464 C 0.22317 0.22303 0.00322 0.0
H465 H 0.3244 0.41587 0.00627 0.0
H466 H 0.27294 0.36427 0.00593 0.0
H467 H 0.31143 0.24634 0.95767 0.0
H468 H 0.18179 0.09013 1.00009 0.0
H469 H 0.23326 0.14173 1.0005 0.0
C470 C 0.33366 0.62121 1.00121 0.0
C471 C 0.37447 0.63162 1.00293 0.0
C472 C 0.30407 0.65083 1.00114 0.0
C473 C 0.28632 0.75666 0.028 0.0
H474 H 0.19467 0.74624 0.95739 0.0
C475 C 0.17251 0.88482 0.00445 0.0
C476 C 0.13169 0.87441 1.00277 0.0
C477 C 0.2021 0.8552 0.00447 0.0
C478 C 0.21985 0.74938 0.97761 0.0
H479 H 0.41595 0.68168 0.00589 0.0
H480 H 0.36436 0.73314 0.00544 0.0
H481 H 0.24631 0.69459 0.95743 0.0
H482 H 0.09021 0.82434 0.99984 0.0
H483 H 0.14181 0.77288 1.00021 0.0
H484 H 0.25986 0.81144 0.04818 0.0
C485 C 0.35528 0.70201 0.0046 0.0
C486 C 0.24945 0.71977 0.97763 0.0
C487 C 0.38489 0.67242 0.0046 0.0
C488 C 0.12128 0.8336 1.00109 0.0
C489 C 0.15089 0.80401 1.00106 0.0
C490 C 0.25672 0.78626 0.02798 0.0
C491 C 0.31452 0.69157 1.00285 0.0
C492 C 0.28304 0.72306 1.00282 0.0
C493 C 0.19165 0.81446 1.00277 0.0
C494 C 0.22313 0.78297 1.00278 0.0
H495 H 0.32439 0.59015 0.99994 0.0
H496 H 0.27294 0.64175 1.00026 0.0
H497 H 0.3115 0.75979 0.04822 0.0
H498 H 0.18178 0.91588 0.00571 0.0
H499 H 0.23323 0.86428 0.00532 0.0
C500 C 0.67256 0.38486 1.00152 0.0
C501 C 0.63174 0.37445 0.00309 0.0
C502 C 0.70215 0.35525 1.00153 0.0
C503 C 0.71982 0.24938 0.02833 0.0
H504 H 0.81162 0.25986 0.95794 0.0
C505 C 0.83364 0.1212 0.00482 0.0
C506 C 0.87446 0.13161 0.00322 0.0
C507 C 0.80406 0.15082 0.00486 0.0
C508 C 0.7864 0.2567 0.9781 0.0
H509 H 0.59026 0.32437 0.00588 0.0
H510 H 0.64185 0.27292 0.00558 0.0
H511 H 0.76 0.31153 0.95793 0.0
H512 H 0.91595 0.18168 1.00044 0.0
H513 H 0.86437 0.23314 1.00083 0.0
H514 H 0.74622 0.19454 0.0485 0.0
C515 C 0.65094 0.30405 0.00478 0.0
C516 C 0.75681 0.28632 0.97809 0.0
C517 C 0.62132 0.33364 0.00471 0.0
C518 C 0.88488 0.17242 1.00163 0.0
C519 C 0.85527 0.20201 1.00161 0.0
C520 C 0.7494 0.21976 0.02834 0.0
C521 C 0.69169 0.3145 0.00318 0.0
C522 C 0.72317 0.28301 0.00321 0.0
C523 C 0.81452 0.19157 0.00323 0.0
C524 C 0.78304 0.22307 0.00322 0.0
H525 H 0.68183 0.41592 1.00032 0.0
H526 H 0.73329 0.36433 1.00077 0.0
H527 H 0.6946 0.24622 0.04849 0.0
H528 H 0.82437 0.09014 0.00601 0.0
H529 H 0.77292 0.14175 0.00564 0.0
C530 C 0.88489 0.83361 1.00106 0.0
C531 C 0.87448 0.87441 1.00289 0.0
C532 C 0.85527 0.80402 1.00099 0.0
C533 C 0.7495 0.78619 0.02809 0.0
H534 H 0.75972 0.69476 0.95721 0.0
C535 C 0.62126 0.67245 0.00462 0.0
C536 C 0.63167 0.63165 1.00283 0.0
C537 C 0.65088 0.70204 0.00463 0.0
C538 C 0.75664 0.71987 0.9775 0.0
H539 H 0.82441 0.91587 0.00606 0.0
H540 H 0.77295 0.86428 0.00562 0.0
H541 H 0.81138 0.7464 0.95723 0.0
H542 H 0.68174 0.59019 0.99964 0.0
H543 H 0.7332 0.64179 0.99998 0.0
H544 H 0.69477 0.75967 0.04836 0.0
C545 C 0.80408 0.8552 0.00468 0.0
C546 C 0.78625 0.74947 0.97751 0.0
C547 C 0.83367 0.88481 0.00468 0.0
C548 C 0.67248 0.62124 1.001 0.0
C549 C 0.70207 0.65086 1.00094 0.0
C550 C 0.71989 0.7566 0.02807 0.0
C551 C 0.81452 0.81446 1.00283 0.0
C552 C 0.78303 0.78298 1.00281 0.0
C553 C 0.69162 0.6916 1.00278 0.0
C554 C 0.72311 0.72309 1.00278 0.0
H555 H 0.91595 0.82435 0.9997 0.0
H556 H 0.86434 0.77289 1.00003 0.0
H557 H 0.74642 0.81131 0.04838 0.0
H558 H 0.5902 0.6817 0.006 0.0
H559 H 0.6418 0.73316 0.00558 0.0
C560 C 0.67246 0.50476 0.88472 0.0
C561 C 0.63165 0.50303 0.87431 0.0
C562 C 0.70204 0.50482 0.8551 0.0
C563 C 0.7198 0.47792 0.74928 0.0
H564 H 0.8114 0.54859 0.75965 0.0
C565 C 0.83362 0.50144 0.62112 0.0
C566 C 0.87443 0.50316 0.63153 0.0
C567 C 0.80402 0.50141 0.65072 0.0
C568 C 0.78624 0.52836 0.75653 0.0
H569 H 0.59016 0.50003 0.82425 0.0
H570 H 0.64175 0.50046 0.77279 0.0
H571 H 0.75976 0.54856 0.8113 0.0
H572 H 0.91589 0.50618 0.68161 0.0
H573 H 0.86429 0.50581 0.73305 0.0
H574 H 0.74627 0.45772 0.69451 0.0
C575 C 0.65083 0.50132 0.80392 0.0
C576 C 0.75664 0.52834 0.78613 0.0
C577 C 0.62123 0.50133 0.83351 0.0
C578 C 0.88483 0.50489 0.67234 0.0
C579 C 0.85521 0.50493 0.70192 0.0
C580 C 0.7494 0.47794 0.71968 0.0
C581 C 0.69159 0.50309 0.81435 0.0
C582 C 0.72307 0.50312 0.78286 0.0
C583 C 0.81446 0.50317 0.69147 0.0
C584 C 0.78297 0.50316 0.72295 0.0
H585 H 0.68174 0.50603 0.91577 0.0
H586 H 0.73318 0.50571 0.86417 0.0
H587 H 0.69463 0.45768 0.74616 0.0
H588 H 0.82436 0.50014 0.59006 0.0
H589 H 0.77289 0.50053 0.64164 0.0
C590 C 0.17243 0.50142 0.6213 0.0
C591 C 0.13161 0.50318 0.63167 0.0
C592 C 0.202 0.50137 0.65093 0.0
C593 C 0.21975 0.52833 0.75672 0.0
H594 H 0.31123 0.45749 0.74646 0.0
C595 C 0.33357 0.50476 0.88491 0.0
C596 C 0.37437 0.50297 0.87448 0.0
C597 C 0.30396 0.50481 0.85532 0.0
C598 C 0.2861 0.47777 0.74955 0.0
H599 H 0.0901 0.50626 0.6817 0.0
H600 H 0.14167 0.50585 0.7332 0.0
H601 H 0.25959 0.45755 0.6948 0.0
H602 H 0.41581 0.49985 0.82439 0.0
H603 H 0.36418 0.50026 0.77297 0.0
H604 H 0.24626 0.54855 0.81148 0.0
C605 C 0.15077 0.50495 0.70208 0.0
C606 C 0.25651 0.47781 0.71994 0.0
C607 C 0.12117 0.50493 0.67247 0.0
C608 C 0.38475 0.5012 0.83367 0.0
C609 C 0.35512 0.50118 0.8041 0.0
C610 C 0.24935 0.52829 0.78634 0.0
C611 C 0.19152 0.50314 0.69167 0.0
C612 C 0.22299 0.50309 0.72317 0.0
C613 C 0.31438 0.503 0.81457 0.0
C614 C 0.28288 0.50302 0.7831 0.0
H615 H 0.18172 0.5001 0.59025 0.0
H616 H 0.23314 0.50045 0.64188 0.0
H617 H 0.19462 0.54861 0.75982 0.0
H618 H 0.32433 0.50611 0.91598 0.0
H619 H 0.27283 0.50575 0.86441 0.0
C620 C 0.1214 0.50108 0.33366 0.0
C621 C 0.13179 0.50282 0.37448 0.0
C622 C 0.15103 0.50105 0.3041 0.0
C623 C 0.25682 0.52809 0.28634 0.0
H624 H 0.2465 0.45741 0.19476 0.0
C625 C 0.38497 0.50478 0.17248 0.0
C626 C 0.37454 0.50304 0.13167 0.0
C627 C 0.35538 0.50477 0.20208 0.0
C628 C 0.24961 0.47765 0.21991 0.0
H629 H 0.18185 0.50588 0.41597 0.0
H630 H 0.23333 0.5055 0.3644 0.0
H631 H 0.19488 0.45735 0.24642 0.0
H632 H 0.32445 0.49994 0.09023 0.0
H633 H 0.27302 0.50025 0.14186 0.0
H634 H 0.31155 0.54839 0.25983 0.0
C635 C 0.2022 0.5046 0.35531 0.0
C636 C 0.22002 0.47761 0.24952 0.0
C637 C 0.1726 0.50457 0.38491 0.0
C638 C 0.33373 0.50125 0.12129 0.0
C639 C 0.30416 0.50118 0.15092 0.0
C640 C 0.28641 0.52812 0.25673 0.0
C641 C 0.19177 0.50282 0.31456 0.0
C642 C 0.22327 0.50283 0.28309 0.0
C643 C 0.31462 0.50295 0.19166 0.0
C644 C 0.28316 0.50291 0.22316 0.0
H645 H 0.09034 0.49978 0.32438 0.0
H646 H 0.14196 0.50015 0.27296 0.0
H647 H 0.25992 0.54832 0.3115 0.0
H648 H 0.41604 0.50612 0.18172 0.0
H649 H 0.36448 0.50567 0.2332 0.0
C650 C 0.6726 0.50124 0.12109 0.0
C651 C 0.6318 0.50307 0.13151 0.0
C652 C 0.7022 0.50119 0.1507 0.0
C653 C 0.72006 0.52833 0.25643 0.0
H654 H 0.81143 0.45733 0.24629 0.0
C655 C 0.83371 0.50472 0.38472 0.0
C656 C 0.87452 0.50287 0.37434 0.0
C657 C 0.80414 0.50477 0.35509 0.0
C658 C 0.78633 0.47765 0.24934 0.0
H659 H 0.59035 0.50627 0.18158 0.0
H660 H 0.64196 0.50587 0.23302 0.0
H661 H 0.7598 0.4574 0.19461 0.0
H662 H 0.91601 0.49963 0.3243 0.0
H663 H 0.86444 0.50004 0.27282 0.0
H664 H 0.74658 0.54858 0.31116 0.0
C665 C 0.65103 0.50491 0.20189 0.0
C666 C 0.75674 0.47769 0.21973 0.0
C667 C 0.6214 0.50489 0.17231 0.0
C668 C 0.88495 0.50103 0.33354 0.0
C669 C 0.85534 0.50101 0.30394 0.0
C670 C 0.74965 0.52828 0.28604 0.0
C671 C 0.69177 0.50305 0.19144 0.0
C672 C 0.72326 0.50303 0.22292 0.0
C673 C 0.8146 0.5029 0.31436 0.0
C674 C 0.78313 0.50294 0.28286 0.0
H675 H 0.68185 0.49986 0.09003 0.0
H676 H 0.73333 0.50022 0.14162 0.0
H677 H 0.69496 0.54865 0.25949 0.0
H678 H 0.82444 0.50611 0.41577 0.0
H679 H 0.773 0.50576 0.36415 0.0
C680 C 0.33366 0.8848 0.50457 0.0
C681 C 0.37447 0.87439 0.50285 0.0
C682 C 0.30407 0.85519 0.50458 0.0
C683 C 0.28627 0.74943 0.47752 0.0
H684 H 0.19474 0.75967 0.5483 0.0
C685 C 0.17251 0.6212 0.50105 0.0
C686 C 0.1317 0.63161 0.50283 0.0
C687 C 0.2021 0.65082 0.50099 0.0
C688 C 0.21989 0.75659 0.52803 0.0
H689 H 0.41594 0.82432 0.49978 0.0
H690 H 0.36433 0.77287 0.50011 0.0
H691 H 0.24638 0.81133 0.54829 0.0
H692 H 0.09023 0.68167 0.50591 0.0
H693 H 0.14183 0.73313 0.50549 0.0
H694 H 0.25978 0.69468 0.45726 0.0
C695 C 0.35526 0.804 0.50102 0.0
C696 C 0.24948 0.78619 0.52803 0.0
C697 C 0.38488 0.83359 0.50108 0.0
C698 C 0.12129 0.67241 0.50457 0.0
C699 C 0.15091 0.702 0.50459 0.0
C700 C 0.25668 0.71982 0.47752 0.0
C701 C 0.31451 0.81445 0.50279 0.0
C702 C 0.28302 0.78297 0.50278 0.0
C703 C 0.19165 0.69156 0.50278 0.0
C704 C 0.22313 0.72305 0.50278 0.0
H705 H 0.3244 0.91586 0.5059 0.0
H706 H 0.27293 0.86427 0.50548 0.0
H707 H 0.31142 0.74634 0.45726 0.0
H708 H 0.18177 0.59015 0.49972 0.0
H709 H 0.23324 0.64175 0.50007 0.0
C710 C 0.17254 0.38483 0.50171 0.0
C711 C 0.13172 0.37441 0.50325 0.0
C712 C 0.20213 0.35521 0.50168 0.0
C713 C 0.21981 0.2493 0.5283 0.0
H714 H 0.31159 0.2599 0.4579 0.0
C715 C 0.33363 0.12118 0.50461 0.0
C716 C 0.37445 0.13159 0.50303 0.0
C717 C 0.30405 0.15079 0.50467 0.0
C718 C 0.28637 0.25671 0.47806 0.0
H719 H 0.09024 0.32433 0.50596 0.0
H720 H 0.14183 0.27288 0.50559 0.0
H721 H 0.25997 0.31157 0.45798 0.0
H722 H 0.41594 0.18167 0.5003 0.0
H723 H 0.36435 0.23312 0.50073 0.0
H724 H 0.24621 0.19444 0.54838 0.0
C725 C 0.15092 0.30401 0.50485 0.0
C726 C 0.25679 0.28632 0.47811 0.0
C727 C 0.1213 0.3336 0.50481 0.0
C728 C 0.38487 0.1724 0.50148 0.0
C729 C 0.35526 0.20199 0.50148 0.0
C730 C 0.24939 0.21968 0.52825 0.0
C731 C 0.19167 0.31446 0.50326 0.0
C732 C 0.22315 0.28297 0.50323 0.0
C733 C 0.3145 0.19154 0.50309 0.0
C734 C 0.28303 0.22304 0.50313 0.0
H735 H 0.18181 0.41589 0.50056 0.0
H736 H 0.23327 0.36429 0.50094 0.0
H737 H 0.19459 0.24611 0.54846 0.0
H738 H 0.32436 0.09011 0.50577 0.0
H739 H 0.27291 0.14172 0.50544 0.0
C740 C 0.83364 0.62119 0.501 0.0
C741 C 0.87445 0.63159 0.50276 0.0
C742 C 0.80406 0.65081 0.50096 0.0
C743 C 0.78631 0.75658 0.52802 0.0
H744 H 0.6947 0.74634 0.45734 0.0
C745 C 0.67253 0.88481 0.50468 0.0
C746 C 0.63172 0.8744 0.50296 0.0
C747 C 0.70212 0.8552 0.50467 0.0
C748 C 0.71987 0.74943 0.47757 0.0
H749 H 0.91593 0.68166 0.5058 0.0
H750 H 0.86434 0.73312 0.5054 0.0
H751 H 0.74633 0.69468 0.45729 0.0
H752 H 0.59024 0.82434 0.4999 0.0
H753 H 0.64183 0.77288 0.5002 0.0
H754 H 0.75985 0.81132 0.54831 0.0
C755 C 0.85526 0.70199 0.50451 0.0
C756 C 0.74946 0.71982 0.47755 0.0
C757 C 0.88487 0.6724 0.50448 0.0
C758 C 0.6213 0.8336 0.5012 0.0
C759 C 0.65092 0.80401 0.50112 0.0
C760 C 0.75672 0.78619 0.52805 0.0
C761 C 0.81451 0.69155 0.50274 0.0
C762 C 0.78303 0.72304 0.50277 0.0
C763 C 0.69167 0.81445 0.50287 0.0
C764 C 0.72315 0.78297 0.50283 0.0
H765 H 0.82438 0.59013 0.49969 0.0
H766 H 0.77292 0.64173 0.50006 0.0
H767 H 0.81148 0.75966 0.54826 0.0
H768 H 0.6818 0.91587 0.50601 0.0
H769 H 0.73326 0.86427 0.50556 0.0
C770 C 0.62129 0.17241 0.5015 0.0
C771 C 0.63171 0.1316 0.50315 0.0
C772 C 0.65091 0.202 0.50148 0.0
C773 C 0.75674 0.21976 0.52835 0.0
H774 H 0.74628 0.31144 0.4578 0.0
C775 C 0.88488 0.33359 0.5048 0.0
C776 C 0.87446 0.3744 0.50313 0.0
C777 C 0.85526 0.30401 0.50486 0.0
C778 C 0.74943 0.28625 0.478 0.0
H779 H 0.68179 0.09013 0.50604 0.0
H780 H 0.73325 0.14174 0.50568 0.0
H781 H 0.69465 0.25978 0.45779 0.0
H782 H 0.82439 0.41587 0.50025 0.0
H783 H 0.77292 0.36427 0.50066 0.0
H784 H 0.81152 0.24623 0.54856 0.0
C785 C 0.70211 0.15081 0.50485 0.0
C786 C 0.71983 0.25664 0.47799 0.0
C787 C 0.67252 0.12119 0.50481 0.0
C788 C 0.83365 0.38481 0.50149 0.0
C789 C 0.80406 0.3552 0.50148 0.0
C790 C 0.78633 0.24937 0.52836 0.0
C791 C 0.69166 0.19155 0.50317 0.0
C792 C 0.72314 0.22304 0.50317 0.0
C793 C 0.81451 0.31445 0.50318 0.0
C794 C 0.78303 0.28297 0.50318 0.0
H795 H 0.59023 0.18167 0.50026 0.0
H796 H 0.64182 0.23313 0.50065 0.0
H797 H 0.75988 0.19457 0.54855 0.0
H798 H 0.91594 0.32433 0.50604 0.0
H799 H 0.86434 0.27287 0.50569 0.0
C800 C 0.50281 0.38471 0.83363 0.0
C801 C 0.50304 0.3743 0.87447 0.0
C802 C 0.50282 0.35508 0.80407 0.0
C803 C 0.47942 0.24822 0.78739 0.0
H804 H 0.54578 0.2614 0.69298 0.0
C805 C 0.50329 0.12104 0.67255 0.0
C806 C 0.50304 0.13151 0.63172 0.0
C807 C 0.50328 0.15063 0.70216 0.0
C808 C 0.52674 0.25746 0.71895 0.0
H809 H 0.50356 0.32421 0.91603 0.0
H810 H 0.50394 0.27274 0.86447 0.0
H811 H 0.54577 0.31304 0.7446 0.0
H812 H 0.50249 0.18167 0.59025 0.0
H813 H 0.50213 0.23305 0.64188 0.0
H814 H 0.46039 0.19264 0.76173 0.0
C815 C 0.50325 0.30387 0.85536 0.0
C816 C 0.52674 0.28706 0.74854 0.0
C817 C 0.50327 0.33348 0.88494 0.0
C818 C 0.5028 0.17235 0.62132 0.0
C819 C 0.50283 0.20192 0.65095 0.0
C820 C 0.47943 0.21861 0.75779 0.0
C821 C 0.50305 0.31431 0.81457 0.0
C822 C 0.50307 0.2828 0.78311 0.0
C823 C 0.50306 0.19141 0.69171 0.0
C824 C 0.50308 0.22288 0.72322 0.0
H825 H 0.50251 0.41578 0.82432 0.0
H826 H 0.50214 0.36415 0.77293 0.0
H827 H 0.46038 0.24428 0.81335 0.0
H828 H 0.50359 0.08995 0.68181 0.0
H829 H 0.50398 0.14152 0.73328 0.0
C830 C 0.50184 0.88477 0.67239 0.0
C831 C 0.50299 0.87435 0.63157 0.0
C832 C 0.5018 0.85515 0.70197 0.0
C833 C 0.52774 0.74904 0.71944 0.0
H834 H 0.45827 0.76021 0.81184 0.0
C835 C 0.50411 0.62114 0.83351 0.0
C836 C 0.50299 0.63157 0.87433 0.0
C837 C 0.50412 0.65076 0.80392 0.0
C838 C 0.47817 0.75686 0.78645 0.0
H839 H 0.50494 0.82425 0.59007 0.0
H840 H 0.50454 0.7728 0.64166 0.0
H841 H 0.45827 0.81186 0.7602 0.0
H842 H 0.50103 0.68167 0.91582 0.0
H843 H 0.50139 0.73311 0.86422 0.0
H844 H 0.54764 0.69405 0.74568 0.0
C845 C 0.50413 0.80394 0.65075 0.0
C846 C 0.47817 0.78646 0.75685 0.0
C847 C 0.50412 0.83353 0.62114 0.0
C848 C 0.50184 0.67239 0.88475 0.0
C849 C 0.5018 0.70198 0.85514 0.0
C850 C 0.52773 0.71944 0.74903 0.0
C851 C 0.50296 0.81439 0.69151 0.0
C852 C 0.50295 0.7829 0.72299 0.0
C853 C 0.50296 0.69151 0.81438 0.0
C854 C 0.50295 0.723 0.78289 0.0
H855 H 0.50103 0.91584 0.68166 0.0
H856 H 0.50138 0.86423 0.73311 0.0
H857 H 0.54764 0.74569 0.69404 0.0
H858 H 0.50493 0.59007 0.82424 0.0
H859 H 0.50453 0.64167 0.77278 0.0
C860 C 0.50243 0.67259 0.12102 0.0
C861 C 0.50321 0.63176 0.13149 0.0
C862 C 0.50244 0.70219 0.15061 0.0
C863 C 0.5278 0.7195 0.25692 0.0
H864 H 0.45913 0.81245 0.24521 0.0
C865 C 0.504 0.83365 0.38469 0.0
C866 C 0.50319 0.87449 0.3743 0.0
C867 C 0.50406 0.80409 0.35506 0.0
C868 C 0.47881 0.7869 0.24872 0.0
H869 H 0.50456 0.59029 0.18164 0.0
H870 H 0.50424 0.64192 0.23303 0.0
H871 H 0.45915 0.76083 0.19356 0.0
H872 H 0.50186 0.91604 0.32422 0.0
H873 H 0.50229 0.86449 0.27273 0.0
H874 H 0.54746 0.74557 0.31208 0.0
C875 C 0.50409 0.65099 0.20189 0.0
C876 C 0.47882 0.75731 0.21911 0.0
C877 C 0.50403 0.62136 0.17233 0.0
C878 C 0.50241 0.88496 0.33347 0.0
C879 C 0.50242 0.85537 0.30386 0.0
C880 C 0.52779 0.74909 0.28653 0.0
C881 C 0.50328 0.69175 0.19139 0.0
C882 C 0.50331 0.72326 0.22286 0.0
C883 C 0.50326 0.8146 0.3143 0.0
C884 C 0.50329 0.78314 0.28278 0.0
H885 H 0.50187 0.68184 0.08994 0.0
H886 H 0.50231 0.73333 0.1415 0.0
H887 H 0.54748 0.69395 0.26043 0.0
H888 H 0.50453 0.82434 0.41576 0.0
H889 H 0.50421 0.77294 0.36413 0.0
C890 C 0.5026 0.17256 0.38495 0.0
C891 C 0.50315 0.13174 0.37449 0.0
C892 C 0.50261 0.20217 0.35536 0.0
C893 C 0.47968 0.21883 0.24841 0.0
H894 H 0.54542 0.31363 0.26197 0.0
C895 C 0.50371 0.33369 0.12132 0.0
C896 C 0.50314 0.37453 0.13173 0.0
C897 C 0.50369 0.30412 0.15095 0.0
C898 C 0.52655 0.28755 0.25793 0.0
H899 H 0.50425 0.09026 0.32436 0.0
H900 H 0.50462 0.1419 0.27296 0.0
H901 H 0.54542 0.26198 0.31361 0.0
H902 H 0.50202 0.41607 0.18181 0.0
H903 H 0.50164 0.36449 0.23328 0.0
H904 H 0.46082 0.24439 0.19273 0.0
C905 C 0.50368 0.15096 0.30409 0.0
C906 C 0.52655 0.25794 0.28753 0.0
C907 C 0.5037 0.12133 0.33366 0.0
C908 C 0.50259 0.38499 0.17255 0.0
C909 C 0.5026 0.35539 0.20216 0.0
C910 C 0.47968 0.24843 0.21881 0.0
C911 C 0.50314 0.19173 0.31458 0.0
C912 C 0.50312 0.22323 0.28311 0.0
C913 C 0.50314 0.31461 0.19171 0.0
C914 C 0.50312 0.28314 0.22321 0.0
H915 H 0.50204 0.18182 0.41603 0.0
H916 H 0.50166 0.23329 0.36446 0.0
H917 H 0.46082 0.19275 0.24436 0.0
H918 H 0.50428 0.32439 0.09025 0.0
H919 H 0.50465 0.27299 0.14189 0.0
loop_
_geom_bond_atom_site_label_1
_geom_bond_atom_site_label_2
_geom_bond_distance
_geom_bond_site_symmetry_2
_ccdc_geom_bond_type
C0 O26 1.283 . S
C0 O44 1.283 . S
C1 O27 1.283 . S
C1 O42 1.283 . S
C2 O28 1.283 . S
C2 O45 1.283 . S
C3 O29 1.283 . S
C3 O43 1.283 . S
C4 O30 1.283 . S
C4 O39 1.283 . S
C5 O31 1.283 . S
C5 O41 1.283 . S
C6 O32 1.283 . S
C6 O38 1.283 . S
C7 O33 1.283 . S
C7 O40 1.283 . S
C8 O34 1.283 . S
C8 O49 1.283 . S
C9 O35 1.283 . S
C9 O47 1.283 . S
C10 O36 1.283 . S
C10 O48 1.283 . S
C11 O37 1.283 . S
C11 O46 1.283 . S
Eu12 O13 2.370 1_454 S
Eu12 O14 2.370 . S
Eu12 O17 2.370 1_455 S
Eu12 O18 2.370 1_554 S
Eu12 O26 2.363 . S
Eu12 O27 2.363 1_554 S
Eu12 O40 2.363 . S
Eu12 O41 2.363 1_455 S
O13 Eu12 2.370 1_656 S
O13 Eu15 2.370 1_566 S
O13 Eu20 2.370 1_665 S
O14 Eu12 2.370 . S
O14 Eu16 2.370 1_565 S
O14 Eu19 2.370 1_565 S
Eu15 O13 2.370 1_544 S
Eu15 O17 2.370 1_545 S
Eu15 O21 2.370 . S
Eu15 O22 2.370 1_554 S
Eu15 O30 2.363 . S
Eu15 O31 2.363 1_545 S
Eu15 O46 2.363 . S
Eu15 O47 2.363 1_554 S
Eu16 O14 2.370 1_545 S
Eu16 O18 2.370 1_544 S
Eu16 O23 2.370 1_554 S
Eu16 O24 2.370 . S
Eu16 O32 2.363 . S
Eu16 O33 2.363 1_545 S
Eu16 O48 2.363 . S
Eu16 O49 2.363 1_554 S
O17 Eu12 2.370 1_655 S
O17 Eu15 2.370 1_565 S
O17 Eu19 2.370 1_665 S
O18 Eu12 2.370 1_556 S
O18 Eu16 2.370 1_566 S
O18 Eu20 2.370 1_565 S
Eu19 O14 2.370 1_545 S
Eu19 O17 2.370 1_445 S
Eu19 O21 2.370 1_455 S
Eu19 O24 2.370 . S
Eu19 O36 2.363 . S
Eu19 O37 2.363 1_455 S
Eu19 O44 2.363 1_545 S
Eu19 O45 2.363 . S
Eu20 O13 2.370 1_445 S
Eu20 O18 2.370 1_545 S
Eu20 O22 2.370 1_455 S
Eu20 O23 2.370 . S
Eu20 O34 2.363 . S
Eu20 O35 2.363 1_455 S
Eu20 O42 2.363 1_545 S
Eu20 O43 2.363 . S
O21 Eu15 2.370 . S
O21 Eu19 2.370 1_655 S
O21 Eu25 2.370 1_655 S
O22 Eu15 2.370 1_556 S
O22 Eu20 2.370 1_655 S
O22 Eu25 2.370 1_656 S
O23 Eu16 2.370 1_556 S
O23 Eu20 2.370 . S
O23 Eu25 2.370 1_556 S
O24 Eu16 2.370 . S
O24 Eu19 2.370 . S
O24 Eu25 2.370 . S
Eu25 O21 2.370 1_455 S
Eu25 O22 2.370 1_454 S
Eu25 O23 2.370 1_554 S
Eu25 O24 2.370 . S
Eu25 O28 2.363 . S
Eu25 O29 2.363 1_554 S
Eu25 O38 2.363 . S
Eu25 O39 2.363 1_455 S
O26 C0 1.283 . S
O26 Eu12 2.363 . S
O27 C1 1.283 . S
O27 Eu12 2.363 1_556 S
O28 C2 1.283 . S
O28 Eu25 2.363 . S
O29 C3 1.283 . S
O29 Eu25 2.363 1_556 S
O30 C4 1.283 . S
O30 Eu15 2.363 . S
O31 C5 1.283 . S
O31 Eu15 2.363 1_565 S
O32 C6 1.283 . S
O32 Eu16 2.363 . S
O33 C7 1.283 . S
O33 Eu16 2.363 1_565 S
O34 C8 1.283 . S
O34 Eu20 2.363 . S
O35 C9 1.283 . S
O35 Eu20 2.363 1_655 S
O36 C10 1.283 . S
O36 Eu19 2.363 . S
O37 C11 1.283 . S
O37 Eu19 2.363 1_655 S
O38 C6 1.283 . S
O38 Eu25 2.363 . S
O39 C4 1.283 . S
O39 Eu25 2.363 1_655 S
O40 C7 1.283 . S
O40 Eu12 2.363 . S
O41 C5 1.283 . S
O41 Eu12 2.363 1_655 S
O42 C1 1.283 . S
O42 Eu20 2.363 1_565 S
O43 C3 1.283 . S
O43 Eu20 2.363 . S
O44 C0 1.283 . S
O44 Eu19 2.363 1_565 S
O45 C2 1.283 . S
O45 Eu19 2.363 . S
O46 C11 1.283 . S
O46 Eu15 2.363 . S
O47 C9 1.283 . S
O47 Eu15 2.363 1_556 S
O48 C10 1.283 . S
O48 Eu16 2.363 . S
O49 C8 1.283 . S
O49 Eu16 2.363 1_556 S
C50 O76 1.283 . S
C50 O94 1.283 . S
C51 O77 1.283 . S
C51 O92 1.283 . S
C52 O78 1.283 . S
C52 O95 1.283 . S
C53 O79 1.283 . S
C53 O93 1.283 . S
C54 O80 1.283 . S
C54 O89 1.283 . S
C55 O81 1.283 . S
C55 O91 1.283 . S
C56 O82 1.283 . S
C56 O88 1.283 . S
C57 O83 1.283 . S
C57 O90 1.283 . S
C58 O84 1.283 . S
C58 O99 1.283 . S
C59 O85 1.283 . S
C59 O97 1.283 . S
C60 O86 1.283 . S
C60 O98 1.283 . S
C61 O87 1.283 . S
C61 O96 1.283 . S
Eu62 O63 2.370 . S
Eu62 O64 2.370 1_455 S
Eu62 O67 2.370 . S
Eu62 O68 2.370 1_455 S
Eu62 O76 2.363 . S
Eu62 O77 2.363 . S
Eu62 O90 2.363 1_455 S
Eu62 O91 2.363 . S
O63 Eu62 2.370 . S
O63 Eu65 2.370 . S
O63 Eu70 2.370 . S
O64 Eu62 2.370 1_655 S
O64 Eu66 2.370 . S
O64 Eu69 2.370 1_655 S
Eu65 O63 2.370 . S
Eu65 O67 2.370 . S
Eu65 O71 2.370 . S
Eu65 O72 2.370 . S
Eu65 O80 2.363 . S
Eu65 O81 2.363 . S
Eu65 O96 2.363 . S
Eu65 O97 2.363 . S
Eu66 O64 2.370 . S
Eu66 O68 2.370 . S
Eu66 O73 2.370 . S
Eu66 O74 2.370 . S
Eu66 O82 2.363 . S
Eu66 O83 2.363 . S
Eu66 O98 2.363 . S
Eu66 O99 2.363 . S
O67 Eu62 2.370 . S
O67 Eu65 2.370 . S
O67 Eu69 2.370 . S
O68 Eu62 2.370 1_655 S
O68 Eu66 2.370 . S
O68 Eu70 2.370 1_655 S
Eu69 O64 2.370 1_455 S
Eu69 O67 2.370 . S
Eu69 O71 2.370 . S
Eu69 O74 2.370 1_455 S
Eu69 O86 2.363 1_455 S
Eu69 O87 2.363 . S
Eu69 O94 2.363 . S
Eu69 O95 2.363 . S
Eu70 O63 2.370 . S
Eu70 O68 2.370 1_455 S
Eu70 O72 2.370 . S
Eu70 O73 2.370 1_455 S
Eu70 O84 2.363 1_455 S
Eu70 O85 2.363 . S
Eu70 O92 2.363 . S
Eu70 O93 2.363 . S
O71 Eu65 2.370 . S
O71 Eu69 2.370 . S
O71 Eu75 2.370 . S
O72 Eu65 2.370 . S
O72 Eu70 2.370 . S
O72 Eu75 2.370 . S
O73 Eu66 2.370 . S
O73 Eu70 2.370 1_655 S
O73 Eu75 2.370 1_655 S
O74 Eu66 2.370 . S
O74 Eu69 2.370 1_655 S
O74 Eu75 2.370 1_655 S
Eu75 O71 2.370 . S
Eu75 O72 2.370 . S
Eu75 O73 2.370 1_455 S
Eu75 O74 2.370 1_455 S
Eu75 O78 2.363 . S
Eu75 O79 2.363 . S
Eu75 O88 2.363 1_455 S
Eu75 O89 2.363 . S
O76 C50 1.283 . S
O76 Eu62 2.363 . S
O77 C51 1.283 . S
O77 Eu62 2.363 . S
O78 C52 1.283 . S
O78 Eu75 2.363 . S
O79 C53 1.283 . S
O79 Eu75 2.363 . S
O80 C54 1.283 . S
O80 Eu65 2.363 . S
O81 C55 1.283 . S
O81 Eu65 2.363 . S
O82 C56 1.283 . S
O82 Eu66 2.363 . S
O83 C57 1.283 . S
O83 Eu66 2.363 . S
O84 C58 1.283 . S
O84 Eu70 2.363 1_655 S
O85 C59 1.283 . S
O85 Eu70 2.363 . S
O86 C60 1.283 . S
O86 Eu69 2.363 1_655 S
O87 C61 1.283 . S
O87 Eu69 2.363 . S
O88 C56 1.283 . S
O88 Eu75 2.363 1_655 S
O89 C54 1.283 . S
O89 Eu75 2.363 . S
O90 C57 1.283 . S
O90 Eu62 2.363 1_655 S
O91 C55 1.283 . S
O91 Eu62 2.363 . S
O92 C51 1.283 . S
O92 Eu70 2.363 . S
O93 C53 1.283 . S
O93 Eu70 2.363 . S
O94 C50 1.283 . S
O94 Eu69 2.363 . S
O95 C52 1.283 . S
O95 Eu69 2.363 . S
O96 C61 1.283 . S
O96 Eu65 2.363 . S
O97 C59 1.283 . S
O97 Eu65 2.363 . S
O98 C60 1.283 . S
O98 Eu66 2.363 . S
O99 C58 1.283 . S
O99 Eu66 2.363 . S
C100 O126 1.283 . S
C100 O144 1.283 . S
C101 O127 1.283 . S
C101 O142 1.283 . S
C102 O128 1.283 . S
C102 O145 1.283 . S
C103 O129 1.283 . S
C103 O143 1.283 . S
C104 O130 1.283 . S
C104 O139 1.283 . S
C105 O131 1.283 . S
C105 O141 1.283 . S
C106 O132 1.283 . S
C106 O138 1.283 . S
C107 O133 1.283 . S
C107 O140 1.283 . S
C108 O134 1.283 . S
C108 O149 1.283 . S
C109 O135 1.283 . S
C109 O147 1.283 . S
C110 O136 1.283 . S
C110 O148 1.283 . S
C111 O137 1.283 . S
C111 O146 1.283 . S
Eu112 O113 2.370 . S
Eu112 O114 2.370 1_545 S
Eu112 O117 2.370 1_545 S
Eu112 O118 2.370 . S
Eu112 O126 2.363 1_545 S
Eu112 O127 2.363 . S
Eu112 O140 2.363 . S
Eu112 O141 2.363 . S
O113 Eu112 2.370 . S
O113 Eu115 2.370 . S
O113 Eu120 2.370 . S
O114 Eu112 2.370 1_565 S
O114 Eu116 2.370 1_565 S
O114 Eu119 2.370 . S
Eu115 O113 2.370 . S
Eu115 O117 2.370 1_545 S
Eu115 O121 2.370 1_545 S
Eu115 O122 2.370 . S
Eu115 O130 2.363 . S
Eu115 O131 2.363 . S
Eu115 O146 2.363 1_545 S
Eu115 O147 2.363 . S
Eu116 O114 2.370 1_545 S
Eu116 O118 2.370 . S
Eu116 O123 2.370 . S
Eu116 O124 2.370 1_545 S
Eu116 O132 2.363 . S
Eu116 O133 2.363 . S
Eu116 O148 2.363 1_545 S
Eu116 O149 2.363 . S
O117 Eu112 2.370 1_565 S
O117 Eu115 2.370 1_565 S
O117 Eu119 2.370 . S
O118 Eu112 2.370 . S
O118 Eu116 2.370 . S
O118 Eu120 2.370 . S
Eu119 O114 2.370 . S
Eu119 O117 2.370 . S
Eu119 O121 2.370 . S
Eu119 O124 2.370 . S
Eu119 O136 2.363 . S
Eu119 O137 2.363 . S
Eu119 O144 2.363 . S
Eu119 O145 2.363 . S
Eu120 O113 2.370 . S
Eu120 O118 2.370 . S
Eu120 O122 2.370 . S
Eu120 O123 2.370 . S
Eu120 O134 2.363 . S
Eu120 O135 2.363 . S
Eu120 O142 2.363 . S
Eu120 O143 2.363 . S
O121 Eu115 2.370 1_565 S
O121 Eu119 2.370 . S
O121 Eu125 2.370 1_565 S
O122 Eu115 2.370 . S
O122 Eu120 2.370 . S
O122 Eu125 2.370 . S
O123 Eu116 2.370 . S
O123 Eu120 2.370 . S
O123 Eu125 2.370 . S
O124 Eu116 2.370 1_565 S
O124 Eu119 2.370 . S
O124 Eu125 2.370 1_565 S
Eu125 O121 2.370 1_545 S
Eu125 O122 2.370 . S
Eu125 O123 2.370 . S
Eu125 O124 2.370 1_545 S
Eu125 O128 2.363 1_545 S
Eu125 O129 2.363 . S
Eu125 O138 2.363 . S
Eu125 O139 2.363 . S
O126 C100 1.283 . S
O126 Eu112 2.363 1_565 S
O127 C101 1.283 . S
O127 Eu112 2.363 . S
O128 C102 1.283 . S
O128 Eu125 2.363 1_565 S
O129 C103 1.283 . S
O129 Eu125 2.363 . S
O130 C104 1.283 . S
O130 Eu115 2.363 . S
O131 C105 1.283 . S
O131 Eu115 2.363 . S
O132 C106 1.283 . S
O132 Eu116 2.363 . S
O133 C107 1.283 . S
O133 Eu116 2.363 . S
O134 C108 1.283 . S
O134 Eu120 2.363 . S
O135 C109 1.283 . S
O135 Eu120 2.363 . S
O136 C110 1.283 . S
O136 Eu119 2.363 . S
O137 C111 1.283 . S
O137 Eu119 2.363 . S
O138 C106 1.283 . S
O138 Eu125 2.363 . S
O139 C104 1.283 . S
O139 Eu125 2.363 . S
O140 C107 1.283 . S
O140 Eu112 2.363 . S
O141 C105 1.283 . S
O141 Eu112 2.363 . S
O142 C101 1.283 . S
O142 Eu120 2.363 . S
O143 C103 1.283 . S
O143 Eu120 2.363 . S
O144 C100 1.283 . S
O144 Eu119 2.363 . S
O145 C102 1.283 . S
O145 Eu119 2.363 . S
O146 C111 1.283 . S
O146 Eu115 2.363 1_565 S
O147 C109 1.283 . S
O147 Eu115 2.363 . S
O148 C110 1.283 . S
O148 Eu116 2.363 1_565 S
O149 C108 1.283 . S
O149 Eu116 2.363 . S
C150 O176 1.283 . S
C150 O194 1.283 . S
C151 O177 1.283 . S
C151 O192 1.283 . S
C152 O178 1.283 . S
C152 O195 1.283 . S
C153 O179 1.283 . S
C153 O193 1.283 . S
C154 O180 1.283 . S
C154 O189 1.283 . S
C155 O181 1.283 . S
C155 O191 1.283 . S
C156 O182 1.283 . S
C156 O188 1.283 . S
C157 O183 1.283 . S
C157 O190 1.283 . S
C158 O184 1.283 . S
C158 O199 1.283 . S
C159 O185 1.283 . S
C159 O197 1.283 . S
C160 O186 1.283 . S
C160 O198 1.283 . S
C161 O187 1.283 . S
C161 O196 1.283 . S
Eu162 O163 2.370 . S
Eu162 O164 2.370 1_554 S
Eu162 O167 2.370 1_554 S
Eu162 O168 2.370 . S
Eu162 O176 2.363 1_554 S
Eu162 O177 2.363 . S
Eu162 O190 2.363 . S
Eu162 O191 2.363 . S
O163 Eu162 2.370 . S
O163 Eu165 2.370 . S
O163 Eu170 2.370 . S
O164 Eu162 2.370 1_556 S
O164 Eu166 2.370 1_556 S
O164 Eu169 2.370 . S
Eu165 O163 2.370 . S
Eu165 O167 2.370 1_554 S
Eu165 O171 2.370 1_554 S
Eu165 O172 2.370 . S
Eu165 O180 2.363 . S
Eu165 O181 2.363 . S
Eu165 O196 2.363 1_554 S
Eu165 O197 2.363 . S
Eu166 O164 2.370 1_554 S
Eu166 O168 2.370 . S
Eu166 O173 2.370 . S
Eu166 O174 2.370 1_554 S
Eu166 O182 2.363 . S
Eu166 O183 2.363 . S
Eu166 O198 2.363 1_554 S
Eu166 O199 2.363 . S
O167 Eu162 2.370 1_556 S
O167 Eu165 2.370 1_556 S
O167 Eu169 2.370 . S
O168 Eu162 2.370 . S
O168 Eu166 2.370 . S
O168 Eu170 2.370 . S
Eu169 O164 2.370 . S
Eu169 O167 2.370 . S
Eu169 O171 2.370 . S
Eu169 O174 2.370 . S
Eu169 O186 2.363 . S
Eu169 O187 2.363 . S
Eu169 O194 2.363 . S
Eu169 O195 2.363 . S
Eu170 O163 2.370 . S
Eu170 O168 2.370 . S
Eu170 O172 2.370 . S
Eu170 O173 2.370 . S
Eu170 O184 2.363 . S
Eu170 O185 2.363 . S
Eu170 O192 2.363 . S
Eu170 O193 2.363 . S
O171 Eu165 2.370 1_556 S
O171 Eu169 2.370 . S
O171 Eu175 2.370 1_556 S
O172 Eu165 2.370 . S
O172 Eu170 2.370 . S
O172 Eu175 2.370 . S
O173 Eu166 2.370 . S
O173 Eu170 2.370 . S
O173 Eu175 2.370 . S
O174 Eu166 2.370 1_556 S
O174 Eu169 2.370 . S
O174 Eu175 2.370 1_556 S
Eu175 O171 2.370 1_554 S
Eu175 O172 2.370 . S
Eu175 O173 2.370 . S
Eu175 O174 2.370 1_554 S
Eu175 O178 2.363 1_554 S
Eu175 O179 2.363 . S
Eu175 O188 2.363 . S
Eu175 O189 2.363 . S
O176 C150 1.283 . S
O176 Eu162 2.363 1_556 S
O177 C151 1.283 . S
O177 Eu162 2.363 . S
O178 C152 1.283 . S
O178 Eu175 2.363 1_556 S
O179 C153 1.283 . S
O179 Eu175 2.363 . S
O180 C154 1.283 . S
O180 Eu165 2.363 . S
O181 C155 1.283 . S
O181 Eu165 2.363 . S
O182 C156 1.283 . S
O182 Eu166 2.363 . S
O183 C157 1.283 . S
O183 Eu166 2.363 . S
O184 C158 1.283 . S
O184 Eu170 2.363 . S
O185 C159 1.283 . S
O185 Eu170 2.363 . S
O186 C160 1.283 . S
O186 Eu169 2.363 . S
O187 C161 1.283 . S
O187 Eu169 2.363 . S
O188 C156 1.283 . S
O188 Eu175 2.363 . S
O189 C154 1.283 . S
O189 Eu175 2.363 . S
O190 C157 1.283 . S
O190 Eu162 2.363 . S
O191 C155 1.283 . S
O191 Eu162 2.363 . S
O192 C151 1.283 . S
O192 Eu170 2.363 . S
O193 C153 1.283 . S
O193 Eu170 2.363 . S
O194 C150 1.283 . S
O194 Eu169 2.363 . S
O195 C152 1.283 . S
O195 Eu169 2.363 . S
O196 C161 1.283 . S
O196 Eu165 2.363 1_556 S
O197 C159 1.283 . S
O197 Eu165 2.363 . S
O198 C160 1.283 . S
O198 Eu166 2.363 1_556 S
O199 C158 1.283 . S
O199 Eu166 2.363 . S
C200 C201 1.349 1_655 S
C200 C202 1.327 . S
C200 H225 0.950 . S
C201 C200 1.349 1_455 S
C201 C217 1.349 . S
C202 C200 1.327 . S
C202 C221 1.429 1_655 S
C202 H226 0.950 . S
C203 C220 1.574 . S
C203 C222 1.368 . S
C203 H227 0.949 . S
H204 C208 0.949 . S
C205 C206 1.349 . S
C205 C207 1.327 . S
C205 H228 0.950 . S
C206 C205 1.349 . S
C206 C218 1.349 1_455 S
C207 C205 1.327 . S
C207 C223 1.429 . S
C207 H229 0.950 . S
C208 H204 0.949 . S
C208 C216 1.574 . S
C208 C224 1.368 1_655 S
H209 C217 0.950 . S
H210 C215 0.950 . S
H211 C216 0.949 . S
H212 C218 0.950 . S
H213 C219 0.950 . S
H214 C220 0.949 . S
C215 H210 0.950 . S
C215 C217 1.327 . S
C215 C221 1.429 . S
C216 C208 1.574 . S
C216 H211 0.949 . S
C216 C222 1.368 1_655 S
C217 C201 1.349 . S
C217 H209 0.950 . S
C217 C215 1.327 . S
C218 C206 1.349 1_655 S
C218 H212 0.950 . S
C218 C219 1.327 . S
C219 H213 0.950 . S
C219 C218 1.327 . S
C219 C223 1.429 1_655 S
C220 C203 1.574 . S
C220 H214 0.949 . S
C220 C224 1.368 . S
C221 C202 1.429 1_455 S
C221 C215 1.429 . S
C221 C222 1.523 . S
C222 C203 1.368 . S
C222 C216 1.368 1_455 S
C222 C221 1.523 . S
C223 C207 1.429 . S
C223 C219 1.429 1_455 S
C223 C224 1.523 . S
C224 C208 1.368 1_455 S
C224 C220 1.368 . S
C224 C223 1.523 . S
H225 C200 0.950 . S
H226 C202 0.950 . S
H227 C203 0.949 . S
H228 C205 0.950 . S
H229 C207 0.950 . S
C230 C231 1.349 . S
C230 C232 1.327 . S
C230 H255 0.950 . S
C231 C230 1.349 . S
C231 C247 1.349 1_545 S
C232 C230 1.327 . S
C232 C251 1.429 . S
C232 H256 0.950 . S
C233 C250 1.574 . S
C233 C252 1.368 1_565 S
C233 H257 0.949 . S
H234 C238 0.949 . S
C235 C236 1.349 1_565 S
C235 C237 1.327 . S
C235 H258 0.950 . S
C236 C235 1.349 1_545 S
C236 C248 1.349 . S
C237 C235 1.327 . S
C237 C253 1.429 1_565 S
C237 H259 0.950 . S
C238 H234 0.949 . S
C238 C246 1.574 . S
C238 C254 1.368 . S
H239 C247 0.950 . S
H240 C245 0.950 . S
H241 C246 0.949 . S
H242 C248 0.950 . S
H243 C249 0.950 . S
H244 C250 0.949 . S
C245 H240 0.950 . S
C245 C247 1.327 . S
C245 C251 1.429 1_565 S
C246 C238 1.574 . S
C246 H241 0.949 . S
C246 C252 1.368 . S
C247 C231 1.349 1_565 S
C247 H239 0.950 . S
C247 C245 1.327 . S
C248 C236 1.349 . S
C248 H242 0.950 . S
C248 C249 1.327 . S
C249 H243 0.950 . S
C249 C248 1.327 . S
C249 C253 1.429 . S
C250 C233 1.574 . S
C250 H244 0.949 . S
C250 C254 1.368 1_565 S
C251 C232 1.429 . S
C251 C245 1.429 1_545 S
C251 C252 1.523 . S
C252 C233 1.368 1_545 S
C252 C246 1.368 . S
C252 C251 1.523 . S
C253 C237 1.429 1_545 S
C253 C249 1.429 . S
C253 C254 1.523 . S
C254 C238 1.368 . S
C254 C250 1.368 1_545 S
C254 C253 1.523 . S
H255 C230 0.950 . S
H256 C232 0.950 . S
H257 C233 0.949 . S
H258 C235 0.950 . S
H259 C237 0.950 . S
C260 C261 1.349 1_655 S
C260 C262 1.327 . S
C260 H285 0.950 . S
C261 C260 1.349 1_455 S
C261 C277 1.349 . S
C262 C260 1.327 . S
C262 C281 1.429 1_655 S
C262 H286 0.950 . S
C263 C280 1.574 . S
C263 C282 1.368 . S
C263 H287 0.949 . S
H264 C268 0.949 . S
C265 C266 1.349 . S
C265 C267 1.327 . S
C265 H288 0.950 . S
C266 C265 1.349 . S
C266 C278 1.349 1_455 S
C267 C265 1.327 . S
C267 C283 1.429 . S
C267 H289 0.950 . S
C268 H264 0.949 . S
C268 C276 1.574 . S
C268 C284 1.368 1_655 S
H269 C277 0.950 . S
H270 C275 0.950 . S
H271 C276 0.949 . S
H272 C278 0.950 . S
H273 C279 0.950 . S
H274 C280 0.949 . S
C275 H270 0.950 . S
C275 C277 1.327 . S
C275 C281 1.429 . S
C276 C268 1.574 . S
C276 H271 0.949 . S
C276 C282 1.368 1_655 S
C277 C261 1.349 . S
C277 H269 0.950 . S
C277 C275 1.327 . S
C278 C266 1.349 1_655 S
C278 H272 0.950 . S
C278 C279 1.327 . S
C279 H273 0.950 . S
C279 C278 1.327 . S
C279 C283 1.429 1_655 S
C280 C263 1.574 . S
C280 H274 0.949 . S
C280 C284 1.368 . S
C281 C262 1.429 1_455 S
C281 C275 1.429 . S
C281 C282 1.523 . S
C282 C263 1.368 . S
C282 C276 1.368 1_455 S
C282 C281 1.523 . S
C283 C267 1.429 . S
C283 C279 1.429 1_455 S
C283 C284 1.523 . S
C284 C268 1.368 1_455 S
C284 C280 1.368 . S
C284 C283 1.523 . S
H285 C260 0.950 . S
H286 C262 0.950 . S
H287 C263 0.949 . S
H288 C265 0.950 . S
H289 C267 0.950 . S
C290 C291 1.349 . S
C290 C292 1.327 . S
C290 H315 0.950 . S
C291 C290 1.349 . S
C291 C307 1.349 1_545 S
C292 C290 1.327 . S
C292 C311 1.429 . S
C292 H316 0.950 . S
C293 C310 1.574 . S
C293 C312 1.368 1_565 S
C293 H317 0.949 . S
H294 C298 0.949 . S
C295 C296 1.349 1_565 S
C295 C297 1.327 . S
C295 H318 0.950 . S
C296 C295 1.349 1_545 S
C296 C308 1.349 . S
C297 C295 1.327 . S
C297 C313 1.429 1_565 S
C297 H319 0.950 . S
C298 H294 0.949 . S
C298 C306 1.574 . S
C298 C314 1.368 . S
H299 C307 0.950 . S
H300 C305 0.950 . S
H301 C306 0.949 . S
H302 C308 0.950 . S
H303 C309 0.950 . S
H304 C310 0.949 . S
C305 H300 0.950 . S
C305 C307 1.327 . S
C305 C311 1.429 1_565 S
C306 C298 1.574 . S
C306 H301 0.949 . S
C306 C312 1.368 . S
C307 C291 1.349 1_565 S
C307 H299 0.950 . S
C307 C305 1.327 . S
C308 C296 1.349 . S
C308 H302 0.950 . S
C308 C309 1.327 . S
C309 H303 0.950 . S
C309 C308 1.327 . S
C309 C313 1.429 . S
C310 C293 1.574 . S
C310 H304 0.949 . S
C310 C314 1.368 1_565 S
C311 C292 1.429 . S
C311 C305 1.429 1_545 S
C311 C312 1.523 . S
C312 C293 1.368 1_545 S
C312 C306 1.368 . S
C312 C311 1.523 . S
C313 C297 1.429 1_545 S
C313 C309 1.429 . S
C313 C314 1.523 . S
C314 C298 1.368 . S
C314 C310 1.368 1_545 S
C314 C313 1.523 . S
H315 C290 0.950 . S
H316 C292 0.950 . S
H317 C293 0.949 . S
H318 C295 0.950 . S
H319 C297 0.950 . S
C320 C321 1.349 1_655 S
C320 C322 1.327 . S
C320 H345 0.950 . S
C321 C320 1.349 1_455 S
C321 C337 1.349 . S
C322 C320 1.327 . S
C322 C341 1.429 1_655 S
C322 H346 0.950 . S
C323 C340 1.574 . S
C323 C342 1.368 . S
C323 H347 0.949 . S
H324 C328 0.949 . S
C325 C326 1.349 . S
C325 C327 1.327 . S
C325 H348 0.950 . S
C326 C325 1.349 . S
C326 C338 1.349 1_455 S
C327 C325 1.327 . S
C327 C343 1.429 . S
C327 H349 0.950 . S
C328 H324 0.949 . S
C328 C336 1.574 . S
C328 C344 1.368 1_655 S
H329 C337 0.950 . S
H330 C335 0.950 . S
H331 C336 0.949 . S
H332 C338 0.950 . S
H333 C339 0.950 . S
H334 C340 0.949 . S
C335 H330 0.950 . S
C335 C337 1.327 . S
C335 C341 1.429 . S
C336 C328 1.574 . S
C336 H331 0.949 . S
C336 C342 1.368 1_655 S
C337 C321 1.349 . S
C337 H329 0.950 . S
C337 C335 1.327 . S
C338 C326 1.349 1_655 S
C338 H332 0.950 . S
C338 C339 1.327 . S
C339 H333 0.950 . S
C339 C338 1.327 . S
C339 C343 1.429 1_655 S
C340 C323 1.574 . S
C340 H334 0.949 . S
C340 C344 1.368 . S
C341 C322 1.429 1_455 S
C341 C335 1.429 . S
C341 C342 1.523 . S
C342 C323 1.368 . S
C342 C336 1.368 1_455 S
C342 C341 1.523 . S
C343 C327 1.429 . S
C343 C339 1.429 1_455 S
C343 C344 1.523 . S
C344 C328 1.368 1_455 S
C344 C340 1.368 . S
C344 C343 1.523 . S
H345 C320 0.950 . S
H346 C322 0.950 . S
H347 C323 0.949 . S
H348 C325 0.950 . S
H349 C327 0.950 . S
C350 C351 1.349 1_565 S
C350 C352 1.327 . S
C350 H375 0.950 . S
C351 C350 1.349 1_545 S
C351 C367 1.349 . S
C352 C350 1.327 . S
C352 C371 1.429 1_565 S
C352 H376 0.950 . S
C353 C370 1.574 . S
C353 C372 1.368 . S
C353 H377 0.949 . S
H354 C358 0.949 . S
C355 C356 1.349 . S
C355 C357 1.327 . S
C355 H378 0.950 . S
C356 C355 1.349 . S
C356 C368 1.349 1_545 S
C357 C355 1.327 . S
C357 C373 1.429 . S
C357 H379 0.950 . S
C358 H354 0.949 . S
C358 C366 1.574 . S
C358 C374 1.368 1_565 S
H359 C367 0.950 . S
H360 C365 0.950 . S
H361 C366 0.949 . S
H362 C368 0.950 . S
H363 C369 0.950 . S
H364 C370 0.949 . S
C365 H360 0.950 . S
C365 C367 1.327 . S
C365 C371 1.429 . S
C366 C358 1.574 . S
C366 H361 0.949 . S
C366 C372 1.368 1_565 S
C367 C351 1.349 . S
C367 H359 0.950 . S
C367 C365 1.327 . S
C368 C356 1.349 1_565 S
C368 H362 0.950 . S
C368 C369 1.327 . S
C369 H363 0.950 . S
C369 C368 1.327 . S
C369 C373 1.429 1_565 S
C370 C353 1.574 . S
C370 H364 0.949 . S
C370 C374 1.368 . S
C371 C352 1.429 1_545 S
C371 C365 1.429 . S
C371 C372 1.523 . S
C372 C353 1.368 . S
C372 C366 1.368 1_545 S
C372 C371 1.523 . S
C373 C357 1.429 . S
C373 C369 1.429 1_545 S
C373 C374 1.523 . S
C374 C358 1.368 1_545 S
C374 C370 1.368 . S
C374 C373 1.523 . S
H375 C350 0.950 . S
H376 C352 0.950 . S
H377 C353 0.949 . S
H378 C355 0.950 . S
H379 C357 0.950 . S
C380 C381 1.349 1_655 S
C380 C382 1.327 . S
C380 H405 0.950 . S
C381 C380 1.349 1_455 S
C381 C397 1.349 . S
C382 C380 1.327 . S
C382 C401 1.429 1_655 S
C382 H406 0.950 . S
C383 C400 1.574 . S
C383 C402 1.368 . S
C383 H407 0.949 . S
H384 C388 0.949 . S
C385 C386 1.349 . S
C385 C387 1.327 . S
C385 H408 0.950 . S
C386 C385 1.349 . S
C386 C398 1.349 1_455 S
C387 C385 1.327 . S
C387 C403 1.429 . S
C387 H409 0.950 . S
C388 H384 0.949 . S
C388 C396 1.574 . S
C388 C404 1.368 1_655 S
H389 C397 0.950 . S
H390 C395 0.950 . S
H391 C396 0.949 . S
H392 C398 0.950 . S
H393 C399 0.950 . S
H394 C400 0.949 . S
C395 H390 0.950 . S
C395 C397 1.327 . S
C395 C401 1.429 . S
C396 C388 1.574 . S
C396 H391 0.949 . S
C396 C402 1.368 1_655 S
C397 C381 1.349 . S
C397 H389 0.950 . S
C397 C395 1.327 . S
C398 C386 1.349 1_655 S
C398 H392 0.950 . S
C398 C399 1.327 . S
C399 H393 0.950 . S
C399 C398 1.327 . S
C399 C403 1.429 1_655 S
C400 C383 1.574 . S
C400 H394 0.949 . S
C400 C404 1.368 . S
C401 C382 1.429 1_455 S
C401 C395 1.429 . S
C401 C402 1.523 . S
C402 C383 1.368 . S
C402 C396 1.368 1_455 S
C402 C401 1.523 . S
C403 C387 1.429 . S
C403 C399 1.429 1_455 S
C403 C404 1.523 . S
C404 C388 1.368 1_455 S
C404 C400 1.368 . S
C404 C403 1.523 . S
H405 C380 0.950 . S
H406 C382 0.950 . S
H407 C383 0.949 . S
H408 C385 0.950 . S
H409 C387 0.950 . S
C410 C411 1.349 . S
C410 C412 1.327 . S
C410 H435 0.950 . S
C411 C410 1.349 . S
C411 C427 1.349 1_545 S
C412 C410 1.327 . S
C412 C431 1.429 . S
C412 H436 0.950 . S
C413 C430 1.574 . S
C413 C432 1.368 1_565 S
C413 H437 0.949 . S
H414 C418 0.949 . S
C415 C416 1.349 1_565 S
C415 C417 1.327 . S
C415 H438 0.950 . S
C416 C415 1.349 1_545 S
C416 C428 1.349 . S
C417 C415 1.327 . S
C417 C433 1.429 1_565 S
C417 H439 0.950 . S
C418 H414 0.949 . S
C418 C426 1.574 . S
C418 C434 1.368 . S
H419 C427 0.950 . S
H420 C425 0.950 . S
H421 C426 0.949 . S
H422 C428 0.950 . S
H423 C429 0.950 . S
H424 C430 0.949 . S
C425 H420 0.950 . S
C425 C427 1.327 . S
C425 C431 1.429 1_565 S
C426 C418 1.574 . S
C426 H421 0.949 . S
C426 C432 1.368 . S
C427 C411 1.349 1_565 S
C427 H419 0.950 . S
C427 C425 1.327 . S
C428 C416 1.349 . S
C428 H422 0.950 . S
C428 C429 1.327 . S
C429 H423 0.950 . S
C429 C428 1.327 . S
C429 C433 1.429 . S
C430 C413 1.574 . S
C430 H424 0.949 . S
C430 C434 1.368 1_565 S
C431 C412 1.429 . S
C431 C425 1.429 1_545 S
C431 C432 1.523 . S
C432 C413 1.368 1_545 S
C432 C426 1.368 . S
C432 C431 1.523 . S
C433 C417 1.429 1_545 S
C433 C429 1.429 . S
C433 C434 1.523 . S
C434 C418 1.368 . S
C434 C430 1.368 1_545 S
C434 C433 1.523 . S
H435 C410 0.950 . S
H436 C412 0.950 . S
H437 C413 0.949 . S
H438 C415 0.950 . S
H439 C417 0.950 . S
C440 C441 1.349 . S
C440 C442 1.327 . S
C440 H465 0.950 . S
C441 C440 1.349 . S
C441 C457 1.349 1_554 S
C442 C440 1.327 . S
C442 C461 1.429 . S
C442 H466 0.950 . S
C443 C460 1.574 . S
C443 C462 1.368 1_556 S
C443 H467 0.949 . S
H444 C448 0.949 . S
C445 C446 1.349 1_556 S
C445 C447 1.327 . S
C445 H468 0.950 . S
C446 C445 1.349 1_554 S
C446 C458 1.349 . S
C447 C445 1.327 . S
C447 C463 1.429 1_556 S
C447 H469 0.950 . S
C448 H444 0.949 . S
C448 C456 1.574 . S
C448 C464 1.368 . S
H449 C457 0.950 . S
H450 C455 0.950 . S
H451 C456 0.949 . S
H452 C458 0.950 . S
H453 C459 0.950 . S
H454 C460 0.949 . S
C455 H450 0.950 . S
C455 C457 1.327 . S
C455 C461 1.429 1_556 S
C456 C448 1.574 . S
C456 H451 0.949 . S
C456 C462 1.368 . S
C457 C441 1.349 1_556 S
C457 H449 0.950 . S
C457 C455 1.327 . S
C458 C446 1.349 . S
C458 H452 0.950 . S
C458 C459 1.327 . S
C459 H453 0.950 . S
C459 C458 1.327 . S
C459 C463 1.429 . S
C460 C443 1.574 . S
C460 H454 0.949 . S
C460 C464 1.368 1_556 S
C461 C442 1.429 . S
C461 C455 1.429 1_554 S
C461 C462 1.523 . S
C462 C443 1.368 1_554 S
C462 C456 1.368 . S
C462 C461 1.523 . S
C463 C447 1.429 1_554 S
C463 C459 1.429 . S
C463 C464 1.523 . S
C464 C448 1.368 . S
C464 C460 1.368 1_554 S
C464 C463 1.523 . S
H465 C440 0.950 . S
H466 C442 0.950 . S
H467 C443 0.949 . S
H468 C445 0.950 . S
H469 C447 0.950 . S
C470 C471 1.349 1_556 S
C470 C472 1.327 . S
C470 H495 0.950 . S
C471 C470 1.349 1_554 S
C471 C487 1.349 . S
C472 C470 1.327 . S
C472 C491 1.429 1_556 S
C472 H496 0.950 . S
C473 C490 1.574 . S
C473 C492 1.368 . S
C473 H497 0.949 . S
H474 C478 0.949 . S
C475 C476 1.349 . S
C475 C477 1.327 . S
C475 H498 0.950 . S
C476 C475 1.349 . S
C476 C488 1.349 1_554 S
C477 C475 1.327 . S
C477 C493 1.429 . S
C477 H499 0.950 . S
C478 H474 0.949 . S
C478 C486 1.574 . S
C478 C494 1.368 1_556 S
H479 C487 0.950 . S
H480 C485 0.950 . S
H481 C486 0.949 . S
H482 C488 0.950 . S
H483 C489 0.950 . S
H484 C490 0.949 . S
C485 H480 0.950 . S
C485 C487 1.327 . S
C485 C491 1.429 . S
C486 C478 1.574 . S
C486 H481 0.949 . S
C486 C492 1.368 1_556 S
C487 C471 1.349 . S
C487 H479 0.950 . S
C487 C485 1.327 . S
C488 C476 1.349 1_556 S
C488 H482 0.950 . S
C488 C489 1.327 . S
C489 H483 0.950 . S
C489 C488 1.327 . S
C489 C493 1.429 1_556 S
C490 C473 1.574 . S
C490 H484 0.949 . S
C490 C494 1.368 . S
C491 C472 1.429 1_554 S
C491 C485 1.429 . S
C491 C492 1.523 . S
C492 C473 1.368 . S
C492 C486 1.368 1_554 S
C492 C491 1.523 . S
C493 C477 1.429 . S
C493 C489 1.429 1_554 S
C493 C494 1.523 . S
C494 C478 1.368 1_554 S
C494 C490 1.368 . S
C494 C493 1.523 . S
H495 C470 0.950 . S
H496 C472 0.950 . S
H497 C473 0.949 . S
H498 C475 0.950 . S
H499 C477 0.950 . S
C500 C501 1.349 1_556 S
C500 C502 1.327 . S
C500 H525 0.950 . S
C501 C500 1.349 1_554 S
C501 C517 1.349 . S
C502 C500 1.327 . S
C502 C521 1.429 1_556 S
C502 H526 0.950 . S
C503 C520 1.574 . S
C503 C522 1.368 . S
C503 H527 0.949 . S
H504 C508 0.949 . S
C505 C506 1.349 . S
C505 C507 1.327 . S
C505 H528 0.950 . S
C506 C505 1.349 . S
C506 C518 1.349 1_554 S
C507 C505 1.327 . S
C507 C523 1.429 . S
C507 H529 0.950 . S
C508 H504 0.949 . S
C508 C516 1.574 . S
C508 C524 1.368 1_556 S
H509 C517 0.950 . S
H510 C515 0.950 . S
H511 C516 0.949 . S
H512 C518 0.950 . S
H513 C519 0.950 . S
H514 C520 0.949 . S
C515 H510 0.950 . S
C515 C517 1.327 . S
C515 C521 1.429 . S
C516 C508 1.574 . S
C516 H511 0.949 . S
C516 C522 1.368 1_556 S
C517 C501 1.349 . S
C517 H509 0.950 . S
C517 C515 1.327 . S
C518 C506 1.349 1_556 S
C518 H512 0.950 . S
C518 C519 1.327 . S
C519 H513 0.950 . S
C519 C518 1.327 . S
C519 C523 1.429 1_556 S
C520 C503 1.574 . S
C520 H514 0.949 . S
C520 C524 1.368 . S
C521 C502 1.429 1_554 S
C521 C515 1.429 . S
C521 C522 1.523 . S
C522 C503 1.368 . S
C522 C516 1.368 1_554 S
C522 C521 1.523 . S
C523 C507 1.429 . S
C523 C519 1.429 1_554 S
C523 C524 1.523 . S
C524 C508 1.368 1_554 S
C524 C520 1.368 . S
C524 C523 1.523 . S
H525 C500 0.950 . S
H526 C502 0.950 . S
H527 C503 0.949 . S
H528 C505 0.950 . S
H529 C507 0.950 . S
C530 C531 1.349 1_556 S
C530 C532 1.327 . S
C530 H555 0.950 . S
C531 C530 1.349 1_554 S
C531 C547 1.349 . S
C532 C530 1.327 . S
C532 C551 1.429 1_556 S
C532 H556 0.950 . S
C533 C550 1.574 . S
C533 C552 1.368 . S
C533 H557 0.949 . S
H534 C538 0.949 . S
C535 C536 1.349 . S
C535 C537 1.327 . S
C535 H558 0.950 . S
C536 C535 1.349 . S
C536 C548 1.349 1_554 S
C537 C535 1.327 . S
C537 C553 1.429 . S
C537 H559 0.950 . S
C538 H534 0.949 . S
C538 C546 1.574 . S
C538 C554 1.368 1_556 S
H539 C547 0.950 . S
H540 C545 0.950 . S
H541 C546 0.949 . S
H542 C548 0.950 . S
H543 C549 0.950 . S
H544 C550 0.949 . S
C545 H540 0.950 . S
C545 C547 1.327 . S
C545 C551 1.429 . S
C546 C538 1.574 . S
C546 H541 0.949 . S
C546 C552 1.368 1_556 S
C547 C531 1.349 . S
C547 H539 0.950 . S
C547 C545 1.327 . S
C548 C536 1.349 1_556 S
C548 H542 0.950 . S
C548 C549 1.327 . S
C549 H543 0.950 . S
C549 C548 1.327 . S
C549 C553 1.429 1_556 S
C550 C533 1.574 . S
C550 H544 0.949 . S
C550 C554 1.368 . S
C551 C532 1.429 1_554 S
C551 C545 1.429 . S
C551 C552 1.523 . S
C552 C533 1.368 . S
C552 C546 1.368 1_554 S
C552 C551 1.523 . S
C553 C537 1.429 . S
C553 C549 1.429 1_554 S
C553 C554 1.523 . S
C554 C538 1.368 1_554 S
C554 C550 1.368 . S
C554 C553 1.523 . S
H555 C530 0.950 . S
H556 C532 0.950 . S
H557 C533 0.949 . S
H558 C535 0.950 . S
H559 C537 0.950 . S
C560 C561 1.349 . S
C560 C562 1.327 . S
C560 H585 0.950 . S
C561 C560 1.349 . S
C561 C577 1.349 . S
C562 C560 1.327 . S
C562 C581 1.429 . S
C562 H586 0.950 . S
C563 C580 1.574 . S
C563 C582 1.368 . S
C563 H587 0.949 . S
H564 C568 0.949 . S
C565 C566 1.349 . S
C565 C567 1.327 . S
C565 H588 0.950 . S
C566 C565 1.349 . S
C566 C578 1.349 . S
C567 C565 1.327 . S
C567 C583 1.429 . S
C567 H589 0.950 . S
C568 H564 0.949 . S
C568 C576 1.574 . S
C568 C584 1.368 . S
H569 C577 0.950 . S
H570 C575 0.950 . S
H571 C576 0.949 . S
H572 C578 0.950 . S
H573 C579 0.950 . S
H574 C580 0.949 . S
C575 H570 0.950 . S
C575 C577 1.327 . S
C575 C581 1.429 . S
C576 C568 1.574 . S
C576 H571 0.949 . S
C576 C582 1.368 . S
C577 C561 1.349 . S
C577 H569 0.950 . S
C577 C575 1.327 . S
C578 C566 1.349 . S
C578 H572 0.950 . S
C578 C579 1.327 . S
C579 H573 0.950 . S
C579 C578 1.327 . S
C579 C583 1.429 . S
C580 C563 1.574 . S
C580 H574 0.949 . S
C580 C584 1.368 . S
C581 C562 1.429 . S
C581 C575 1.429 . S
C581 C582 1.523 . S
C582 C563 1.368 . S
C582 C576 1.368 . S
C582 C581 1.523 . S
C583 C567 1.429 . S
C583 C579 1.429 . S
C583 C584 1.523 . S
C584 C568 1.368 . S
C584 C580 1.368 . S
C584 C583 1.523 . S
H585 C560 0.950 . S
H586 C562 0.950 . S
H587 C563 0.949 . S
H588 C565 0.950 . S
H589 C567 0.950 . S
C590 C591 1.349 . S
C590 C592 1.327 . S
C590 H615 0.950 . S
C591 C590 1.349 . S
C591 C607 1.349 . S
C592 C590 1.327 . S
C592 C611 1.429 . S
C592 H616 0.950 . S
C593 C610 1.574 . S
C593 C612 1.368 . S
C593 H617 0.949 . S
H594 C598 0.949 . S
C595 C596 1.349 . S
C595 C597 1.327 . S
C595 H618 0.950 . S
C596 C595 1.349 . S
C596 C608 1.349 . S
C597 C595 1.327 . S
C597 C613 1.429 . S
C597 H619 0.950 . S
C598 H594 0.949 . S
C598 C606 1.574 . S
C598 C614 1.368 . S
H599 C607 0.950 . S
H600 C605 0.950 . S
H601 C606 0.949 . S
H602 C608 0.950 . S
H603 C609 0.950 . S
H604 C610 0.949 . S
C605 H600 0.950 . S
C605 C607 1.327 . S
C605 C611 1.429 . S
C606 C598 1.574 . S
C606 H601 0.949 . S
C606 C612 1.368 . S
C607 C591 1.349 . S
C607 H599 0.950 . S
C607 C605 1.327 . S
C608 C596 1.349 . S
C608 H602 0.950 . S
C608 C609 1.327 . S
C609 H603 0.950 . S
C609 C608 1.327 . S
C609 C613 1.429 . S
C610 C593 1.574 . S
C610 H604 0.949 . S
C610 C614 1.368 . S
C611 C592 1.429 . S
C611 C605 1.429 . S
C611 C612 1.523 . S
C612 C593 1.368 . S
C612 C606 1.368 . S
C612 C611 1.523 . S
C613 C597 1.429 . S
C613 C609 1.429 . S
C613 C614 1.523 . S
C614 C598 1.368 . S
C614 C610 1.368 . S
C614 C613 1.523 . S
H615 C590 0.950 . S
H616 C592 0.950 . S
H617 C593 0.949 . S
H618 C595 0.950 . S
H619 C597 0.950 . S
C620 C621 1.349 . S
C620 C622 1.327 . S
C620 H645 0.950 . S
C621 C620 1.349 . S
C621 C637 1.349 . S
C622 C620 1.327 . S
C622 C641 1.429 . S
C622 H646 0.950 . S
C623 C640 1.574 . S
C623 C642 1.368 . S
C623 H647 0.949 . S
H624 C628 0.949 . S
C625 C626 1.349 . S
C625 C627 1.327 . S
C625 H648 0.950 . S
C626 C625 1.349 . S
C626 C638 1.349 . S
C627 C625 1.327 . S
C627 C643 1.429 . S
C627 H649 0.950 . S
C628 H624 0.949 . S
C628 C636 1.574 . S
C628 C644 1.368 . S
H629 C637 0.950 . S
H630 C635 0.950 . S
H631 C636 0.949 . S
H632 C638 0.950 . S
H633 C639 0.950 . S
H634 C640 0.949 . S
C635 H630 0.950 . S
C635 C637 1.327 . S
C635 C641 1.429 . S
C636 C628 1.574 . S
C636 H631 0.949 . S
C636 C642 1.368 . S
C637 C621 1.349 . S
C637 H629 0.950 . S
C637 C635 1.327 . S
C638 C626 1.349 . S
C638 H632 0.950 . S
C638 C639 1.327 . S
C639 H633 0.950 . S
C639 C638 1.327 . S
C639 C643 1.429 . S
C640 C623 1.574 . S
C640 H634 0.949 . S
C640 C644 1.368 . S
C641 C622 1.429 . S
C641 C635 1.429 . S
C641 C642 1.523 . S
C642 C623 1.368 . S
C642 C636 1.368 . S
C642 C641 1.523 . S
C643 C627 1.429 . S
C643 C639 1.429 . S
C643 C644 1.523 . S
C644 C628 1.368 . S
C644 C640 1.368 . S
C644 C643 1.523 . S
H645 C620 0.950 . S
H646 C622 0.950 . S
H647 C623 0.949 . S
H648 C625 0.950 . S
H649 C627 0.950 . S
C650 C651 1.349 . S
C650 C652 1.327 . S
C650 H675 0.950 . S
C651 C650 1.349 . S
C651 C667 1.349 . S
C652 C650 1.327 . S
C652 C671 1.429 . S
C652 H676 0.950 . S
C653 C670 1.574 . S
C653 C672 1.368 . S
C653 H677 0.949 . S
H654 C658 0.949 . S
C655 C656 1.349 . S
C655 C657 1.327 . S
C655 H678 0.950 . S
C656 C655 1.349 . S
C656 C668 1.349 . S
C657 C655 1.327 . S
C657 C673 1.429 . S
C657 H679 0.950 . S
C658 H654 0.949 . S
C658 C666 1.574 . S
C658 C674 1.368 . S
H659 C667 0.950 . S
H660 C665 0.950 . S
H661 C666 0.949 . S
H662 C668 0.950 . S
H663 C669 0.950 . S
H664 C670 0.949 . S
C665 H660 0.950 . S
C665 C667 1.327 . S
C665 C671 1.429 . S
C666 C658 1.574 . S
C666 H661 0.949 . S
C666 C672 1.368 . S
C667 C651 1.349 . S
C667 H659 0.950 . S
C667 C665 1.327 . S
C668 C656 1.349 . S
C668 H662 0.950 . S
C668 C669 1.327 . S
C669 H663 0.950 . S
C669 C668 1.327 . S
C669 C673 1.429 . S
C670 C653 1.574 . S
C670 H664 0.949 . S
C670 C674 1.368 . S
C671 C652 1.429 . S
C671 C665 1.429 . S
C671 C672 1.523 . S
C672 C653 1.368 . S
C672 C666 1.368 . S
C672 C671 1.523 . S
C673 C657 1.429 . S
C673 C669 1.429 . S
C673 C674 1.523 . S
C674 C658 1.368 . S
C674 C670 1.368 . S
C674 C673 1.523 . S
H675 C650 0.950 . S
H676 C652 0.950 . S
H677 C653 0.949 . S
H678 C655 0.950 . S
H679 C657 0.950 . S
C680 C681 1.349 . S
C680 C682 1.327 . S
C680 H705 0.950 . S
C681 C680 1.349 . S
C681 C697 1.349 . S
C682 C680 1.327 . S
C682 C701 1.429 . S
C682 H706 0.950 . S
C683 C700 1.574 . S
C683 C702 1.368 . S
C683 H707 0.949 . S
H684 C688 0.949 . S
C685 C686 1.349 . S
C685 C687 1.327 . S
C685 H708 0.950 . S
C686 C685 1.349 . S
C686 C698 1.349 . S
C687 C685 1.327 . S
C687 C703 1.429 . S
C687 H709 0.950 . S
C688 H684 0.949 . S
C688 C696 1.574 . S
C688 C704 1.368 . S
H689 C697 0.950 . S
H690 C695 0.950 . S
H691 C696 0.949 . S
H692 C698 0.950 . S
H693 C699 0.950 . S
H694 C700 0.949 . S
C695 H690 0.950 . S
C695 C697 1.327 . S
C695 C701 1.429 . S
C696 C688 1.574 . S
C696 H691 0.949 . S
C696 C702 1.368 . S
C697 C681 1.349 . S
C697 H689 0.950 . S
C697 C695 1.327 . S
C698 C686 1.349 . S
C698 H692 0.950 . S
C698 C699 1.327 . S
C699 H693 0.950 . S
C699 C698 1.327 . S
C699 C703 1.429 . S
C700 C683 1.574 . S
C700 H694 0.949 . S
C700 C704 1.368 . S
C701 C682 1.429 . S
C701 C695 1.429 . S
C701 C702 1.523 . S
C702 C683 1.368 . S
C702 C696 1.368 . S
C702 C701 1.523 . S
C703 C687 1.429 . S
C703 C699 1.429 . S
C703 C704 1.523 . S
C704 C688 1.368 . S
C704 C700 1.368 . S
C704 C703 1.523 . S
H705 C680 0.950 . S
H706 C682 0.950 . S
H707 C683 0.949 . S
H708 C685 0.950 . S
H709 C687 0.950 . S
C710 C711 1.349 . S
C710 C712 1.327 . S
C710 H735 0.950 . S
C711 C710 1.349 . S
C711 C727 1.349 . S
C712 C710 1.327 . S
C712 C731 1.429 . S
C712 H736 0.950 . S
C713 C730 1.574 . S
C713 C732 1.368 . S
C713 H737 0.949 . S
H714 C718 0.949 . S
C715 C716 1.349 . S
C715 C717 1.327 . S
C715 H738 0.950 . S
C716 C715 1.349 . S
C716 C728 1.349 . S
C717 C715 1.327 . S
C717 C733 1.429 . S
C717 H739 0.950 . S
C718 H714 0.949 . S
C718 C726 1.574 . S
C718 C734 1.368 . S
H719 C727 0.950 . S
H720 C725 0.950 . S
H721 C726 0.949 . S
H722 C728 0.950 . S
H723 C729 0.950 . S
H724 C730 0.949 . S
C725 H720 0.950 . S
C725 C727 1.327 . S
C725 C731 1.429 . S
C726 C718 1.574 . S
C726 H721 0.949 . S
C726 C732 1.368 . S
C727 C711 1.349 . S
C727 H719 0.950 . S
C727 C725 1.327 . S
C728 C716 1.349 . S
C728 H722 0.950 . S
C728 C729 1.327 . S
C729 H723 0.950 . S
C729 C728 1.327 . S
C729 C733 1.429 . S
C730 C713 1.574 . S
C730 H724 0.949 . S
C730 C734 1.368 . S
C731 C712 1.429 . S
C731 C725 1.429 . S
C731 C732 1.523 . S
C732 C713 1.368 . S
C732 C726 1.368 . S
C732 C731 1.523 . S
C733 C717 1.429 . S
C733 C729 1.429 . S
C733 C734 1.523 . S
C734 C718 1.368 . S
C734 C730 1.368 . S
C734 C733 1.523 . S
H735 C710 0.950 . S
H736 C712 0.950 . S
H737 C713 0.949 . S
H738 C715 0.950 . S
H739 C717 0.950 . S
C740 C741 1.349 . S
C740 C742 1.327 . S
C740 H765 0.950 . S
C741 C740 1.349 . S
C741 C757 1.349 . S
C742 C740 1.327 . S
C742 C761 1.429 . S
C742 H766 0.950 . S
C743 C760 1.574 . S
C743 C762 1.368 . S
C743 H767 0.949 . S
H744 C748 0.949 . S
C745 C746 1.349 . S
C745 C747 1.327 . S
C745 H768 0.950 . S
C746 C745 1.349 . S
C746 C758 1.349 . S
C747 C745 1.327 . S
C747 C763 1.429 . S
C747 H769 0.950 . S
C748 H744 0.949 . S
C748 C756 1.574 . S
C748 C764 1.368 . S
H749 C757 0.950 . S
H750 C755 0.950 . S
H751 C756 0.949 . S
H752 C758 0.950 . S
H753 C759 0.950 . S
H754 C760 0.949 . S
C755 H750 0.950 . S
C755 C757 1.327 . S
C755 C761 1.429 . S
C756 C748 1.574 . S
C756 H751 0.949 . S
C756 C762 1.368 . S
C757 C741 1.349 . S
C757 H749 0.950 . S
C757 C755 1.327 . S
C758 C746 1.349 . S
C758 H752 0.950 . S
C758 C759 1.327 . S
C759 H753 0.950 . S
C759 C758 1.327 . S
C759 C763 1.429 . S
C760 C743 1.574 . S
C760 H754 0.949 . S
C760 C764 1.368 . S
C761 C742 1.429 . S
C761 C755 1.429 . S
C761 C762 1.523 . S
C762 C743 1.368 . S
C762 C756 1.368 . S
C762 C761 1.523 . S
C763 C747 1.429 . S
C763 C759 1.429 . S
C763 C764 1.523 . S
C764 C748 1.368 . S
C764 C760 1.368 . S
C764 C763 1.523 . S
H765 C740 0.950 . S
H766 C742 0.950 . S
H767 C743 0.949 . S
H768 C745 0.950 . S
H769 C747 0.950 . S
C770 C771 1.349 . S
C770 C772 1.327 . S
C770 H795 0.950 . S
C771 C770 1.349 . S
C771 C787 1.349 . S
C772 C770 1.327 . S
C772 C791 1.429 . S
C772 H796 0.950 . S
C773 C790 1.574 . S
C773 C792 1.368 . S
C773 H797 0.949 . S
H774 C778 0.949 . S
C775 C776 1.349 . S
C775 C777 1.327 . S
C775 H798 0.950 . S
C776 C775 1.349 . S
C776 C788 1.349 . S
C777 C775 1.327 . S
C777 C793 1.429 . S
C777 H799 0.950 . S
C778 H774 0.949 . S
C778 C786 1.574 . S
C778 C794 1.368 . S
H779 C787 0.950 . S
H780 C785 0.950 . S
H781 C786 0.949 . S
H782 C788 0.950 . S
H783 C789 0.950 . S
H784 C790 0.949 . S
C785 H780 0.950 . S
C785 C787 1.327 . S
C785 C791 1.429 . S
C786 C778 1.574 . S
C786 H781 0.949 . S
C786 C792 1.368 . S
C787 C771 1.349 . S
C787 H779 0.950 . S
C787 C785 1.327 . S
C788 C776 1.349 . S
C788 H782 0.950 . S
C788 C789 1.327 . S
C789 H783 0.950 . S
C789 C788 1.327 . S
C789 C793 1.429 . S
C790 C773 1.574 . S
C790 H784 0.949 . S
C790 C794 1.368 . S
C791 C772 1.429 . S
C791 C785 1.429 . S
C791 C792 1.523 . S
C792 C773 1.368 . S
C792 C786 1.368 . S
C792 C791 1.523 . S
C793 C777 1.429 . S
C793 C789 1.429 . S
C793 C794 1.523 . S
C794 C778 1.368 . S
C794 C790 1.368 . S
C794 C793 1.523 . S
H795 C770 0.950 . S
H796 C772 0.950 . S
H797 C773 0.949 . S
H798 C775 0.950 . S
H799 C777 0.950 . S
C800 C801 1.349 . S
C800 C802 1.327 . S
C800 H825 0.950 . S
C801 C800 1.349 . S
C801 C817 1.349 . S
C802 C800 1.327 . S
C802 C821 1.429 . S
C802 H826 0.950 . S
C803 C820 1.574 . S
C803 C822 1.368 . S
C803 H827 0.949 . S
H804 C808 0.949 . S
C805 C806 1.349 . S
C805 C807 1.327 . S
C805 H828 0.950 . S
C806 C805 1.349 . S
C806 C818 1.349 . S
C807 C805 1.327 . S
C807 C823 1.429 . S
C807 H829 0.950 . S
C808 H804 0.949 . S
C808 C816 1.574 . S
C808 C824 1.368 . S
H809 C817 0.950 . S
H810 C815 0.950 . S
H811 C816 0.949 . S
H812 C818 0.950 . S
H813 C819 0.950 . S
H814 C820 0.949 . S
C815 H810 0.950 . S
C815 C817 1.327 . S
C815 C821 1.429 . S
C816 C808 1.574 . S
C816 H811 0.949 . S
C816 C822 1.368 . S
C817 C801 1.349 . S
C817 H809 0.950 . S
C817 C815 1.327 . S
C818 C806 1.349 . S
C818 H812 0.950 . S
C818 C819 1.327 . S
C819 H813 0.950 . S
C819 C818 1.327 . S
C819 C823 1.429 . S
C820 C803 1.574 . S
C820 H814 0.949 . S
C820 C824 1.368 . S
C821 C802 1.429 . S
C821 C815 1.429 . S
C821 C822 1.523 . S
C822 C803 1.368 . S
C822 C816 1.368 . S
C822 C821 1.523 . S
C823 C807 1.429 . S
C823 C819 1.429 . S
C823 C824 1.523 . S
C824 C808 1.368 . S
C824 C820 1.368 . S
C824 C823 1.523 . S
H825 C800 0.950 . S
H826 C802 0.950 . S
H827 C803 0.949 . S
H828 C805 0.950 . S
H829 C807 0.950 . S
C830 C831 1.349 . S
C830 C832 1.327 . S
C830 H855 0.950 . S
C831 C830 1.349 . S
C831 C847 1.349 . S
C832 C830 1.327 . S
C832 C851 1.429 . S
C832 H856 0.950 . S
C833 C850 1.574 . S
C833 C852 1.368 . S
C833 H857 0.949 . S
H834 C838 0.949 . S
C835 C836 1.349 . S
C835 C837 1.327 . S
C835 H858 0.950 . S
C836 C835 1.349 . S
C836 C848 1.349 . S
C837 C835 1.327 . S
C837 C853 1.429 . S
C837 H859 0.950 . S
C838 H834 0.949 . S
C838 C846 1.574 . S
C838 C854 1.368 . S
H839 C847 0.950 . S
H840 C845 0.950 . S
H841 C846 0.949 . S
H842 C848 0.950 . S
H843 C849 0.950 . S
H844 C850 0.949 . S
C845 H840 0.950 . S
C845 C847 1.327 . S
C845 C851 1.429 . S
C846 C838 1.574 . S
C846 H841 0.949 . S
C846 C852 1.368 . S
C847 C831 1.349 . S
C847 H839 0.950 . S
C847 C845 1.327 . S
C848 C836 1.349 . S
C848 H842 0.950 . S
C848 C849 1.327 . S
C849 H843 0.950 . S
C849 C848 1.327 . S
C849 C853 1.429 . S
C850 C833 1.574 . S
C850 H844 0.949 . S
C850 C854 1.368 . S
C851 C832 1.429 . S
C851 C845 1.429 . S
C851 C852 1.523 . S
C852 C833 1.368 . S
C852 C846 1.368 . S
C852 C851 1.523 . S
C853 C837 1.429 . S
C853 C849 1.429 . S
C853 C854 1.523 . S
C854 C838 1.368 . S
C854 C850 1.368 . S
C854 C853 1.523 . S
H855 C830 0.950 . S
H856 C832 0.950 . S
H857 C833 0.949 . S
H858 C835 0.950 . S
H859 C837 0.950 . S
C860 C861 1.349 . S
C860 C862 1.327 . S
C860 H885 0.950 . S
C861 C860 1.349 . S
C861 C877 1.349 . S
C862 C860 1.327 . S
C862 C881 1.429 . S
C862 H886 0.950 . S
C863 C880 1.574 . S
C863 C882 1.368 . S
C863 H887 0.949 . S
H864 C868 0.949 . S
C865 C866 1.349 . S
C865 C867 1.327 . S
C865 H888 0.950 . S
C866 C865 1.349 . S
C866 C878 1.349 . S
C867 C865 1.327 . S
C867 C883 1.429 . S
C867 H889 0.950 . S
C868 H864 0.949 . S
C868 C876 1.574 . S
C868 C884 1.368 . S
H869 C877 0.950 . S
H870 C875 0.950 . S
H871 C876 0.949 . S
H872 C878 0.950 . S
H873 C879 0.950 . S
H874 C880 0.949 . S
C875 H870 0.950 . S
C875 C877 1.327 . S
C875 C881 1.429 . S
C876 C868 1.574 . S
C876 H871 0.949 . S
C876 C882 1.368 . S
C877 C861 1.349 . S
C877 H869 0.950 . S
C877 C875 1.327 . S
C878 C866 1.349 . S
C878 H872 0.950 . S
C878 C879 1.327 . S
C879 H873 0.950 . S
C879 C878 1.327 . S
C879 C883 1.429 . S
C880 C863 1.574 . S
C880 H874 0.949 . S
C880 C884 1.368 . S
C881 C862 1.429 . S
C881 C875 1.429 . S
C881 C882 1.523 . S
C882 C863 1.368 . S
C882 C876 1.368 . S
C882 C881 1.523 . S
C883 C867 1.429 . S
C883 C879 1.429 . S
C883 C884 1.523 . S
C884 C868 1.368 . S
C884 C880 1.368 . S
C884 C883 1.523 . S
H885 C860 0.950 . S
H886 C862 0.950 . S
H887 C863 0.949 . S
H888 C865 0.950 . S
H889 C867 0.950 . S
C890 C891 1.349 . S
C890 C892 1.327 . S
C890 H915 0.950 . S
C891 C890 1.349 . S
C891 C907 1.349 . S
C892 C890 1.327 . S
C892 C911 1.429 . S
C892 H916 0.950 . S
C893 C910 1.574 . S
C893 C912 1.368 . S
C893 H917 0.949 . S
H894 C898 0.949 . S
C895 C896 1.349 . S
C895 C897 1.327 . S
C895 H918 0.950 . S
C896 C895 1.349 . S
C896 C908 1.349 . S
C897 C895 1.327 . S
C897 C913 1.429 . S
C897 H919 0.950 . S
C898 H894 0.949 . S
C898 C906 1.574 . S
C898 C914 1.368 . S
H899 C907 0.950 . S
H900 C905 0.950 . S
H901 C906 0.949 . S
H902 C908 0.950 . S
H903 C909 0.950 . S
H904 C910 0.949 . S
C905 H900 0.950 . S
C905 C907 1.327 . S
C905 C911 1.429 . S
C906 C898 1.574 . S
C906 H901 0.949 . S
C906 C912 1.368 . S
C907 C891 1.349 . S
C907 H899 0.950 . S
C907 C905 1.327 . S
C908 C896 1.349 . S
C908 H902 0.950 . S
C908 C909 1.327 . S
C909 H903 0.950 . S
C909 C908 1.327 . S
C909 C913 1.429 . S
C910 C893 1.574 . S
C910 H904 0.949 . S
C910 C914 1.368 . S
C911 C892 1.429 . S
C911 C905 1.429 . S
C911 C912 1.523 . S
C912 C893 1.368 . S
C912 C906 1.368 . S
C912 C911 1.523 . S
C913 C897 1.429 . S
C913 C909 1.429 . S
C913 C914 1.523 . S
C914 C898 1.368 . S
C914 C910 1.368 . S
C914 C913 1.523 . S
H915 C890 0.950 . S
H916 C892 0.950 . S
H917 C893 0.949 . S
H918 C895 0.950 . S
H919 C897 0.950 . S
C201 C2 1.500 . S
C206 C52 1.495 . S
C231 C11 1.500 . S
C236 C104 1.500 . S
C261 C0 1.500 . S
C266 C53 1.500 . S
C291 C106 1.500 . S
C296 C10 1.495 . S
C321 C1 1.500 . S
C326 C51 1.505 . S
C351 C8 1.500 . S
C356 C107 1.500 . S
C381 C50 1.500 . S
C386 C3 1.500 . S
C411 C105 1.500 . S
C416 C9 1.505 . S
C441 C156 1.500 . S
C446 C6 1.495 . S
C471 C157 1.500 . S
C476 C7 1.500 . S
C501 C154 1.500 . S
C506 C4 1.500 . S
C531 C5 1.500 . S
C536 C155 1.505 . S
C561 C161 1.500 . S
C566 C57 1.505 . S
C591 C55 1.500 . S
C596 C160 1.500 . S
C621 C54 1.500 . S
C626 C158 1.495 . S
C651 C159 1.500 . S
C656 C56 1.500 . S
C681 C110 1.500 . S
C686 C59 1.500 . S
C711 C61 1.500 . S
C716 C108 1.495 . S
C741 C58 1.500 . S
C746 C111 1.505 . S
C771 C109 1.500 . S
C776 C60 1.500 . S
C801 C152 1.500 . S
C806 C101 1.500 . S
C831 C100 1.500 . S
C836 C150 1.505 . S
C861 C151 1.500 . S
C866 C102 1.500 . S
C891 C103 1.500 . S
C896 C153 1.495 . S
