# Generated by pormake.
# Topology afw, (4)-cn, num edge types: 1
# Building blocks:
#     Node 0, Type 0, BuildingBlock: AZAVOO_clean_sbu_0, # of connection points: 4
#     Node 1, Type 0, BuildingBlock: AZAVOO_clean_sbu_0, # of connection points: 4
#     Node 2, Type 0, BuildingBlock: AZAVOO_clean_sbu_0, # of connection points: 4
#     Node 3, Type 0, BuildingBlock: AZAVOO_clean_sbu_0, # of connection points: 4
#     Node 4, Type 0, BuildingBlock: AZAVOO_clean_sbu_0, # of connection points: 4
#     Node 5, Type 0, BuildingBlock: AZAVOO_clean_sbu_0, # of connection points: 4
#     Node 6, Type 0, BuildingBlock: AZAVOO_clean_sbu_0, # of connection points: 4
#     Node 7, Type 0, BuildingBlock: AZAVOO_clean_sbu_0, # of connection points: 4
#     Node 8, Type 0, BuildingBlock: AZAVOO_clean_sbu_0, # of connection points: 4
#     Edge 9, Type (0, 0), BuildingBlock: CIFDUS_clean_linker_0, # of connection points: 2
#     Edge 10, Type (0, 0), BuildingBlock: CIFDUS_clean_linker_0, # of connection points: 2
#     Edge 11, Type (0, 0), BuildingBlock: CIFDUS_clean_linker_0, # of connection points: 2
#     Edge 12, Type (0, 0), BuildingBlock: CIFDUS_clean_linker_0, # of connection points: 2
#     Edge 13, Type (0, 0), BuildingBlock: CIFDUS_clean_linker_0, # of connection points: 2
#     Edge 14, Type (0, 0), BuildingBlock: CIFDUS_clean_linker_0, # of connection points: 2
#     Edge 15, Type (0, 0), BuildingBlock: CIFDUS_clean_linker_0, # of connection points: 2
#     Edge 16, Type (0, 0), BuildingBlock: CIFDUS_clean_linker_0, # of connection points: 2
#     Edge 17, Type (0, 0), BuildingBlock: CIFDUS_clean_linker_0, # of connection points: 2
#     Edge 18, Type (0, 0), BuildingBlock: CIFDUS_clean_linker_0, # of connection points: 2
#     Edge 19, Type (0, 0), BuildingBlock: CIFDUS_clean_linker_0, # of connection points: 2
#     Edge 20, Type (0, 0), BuildingBlock: CIFDUS_clean_linker_0, # of connection points: 2
#     Edge 21, Type (0, 0), BuildingBlock: CIFDUS_clean_linker_0, # of connection points: 2
#     Edge 22, Type (0, 0), BuildingBlock: CIFDUS_clean_linker_0, # of connection points: 2
#     Edge 23, Type (0, 0), BuildingBlock: CIFDUS_clean_linker_0, # of connection points: 2
#     Edge 24, Type (0, 0), BuildingBlock: CIFDUS_clean_linker_0, # of connection points: 2
#     Edge 25, Type (0, 0), BuildingBlock: CIFDUS_clean_linker_0, # of connection points: 2
#     Edge 26, Type (0, 0), BuildingBlock: CIFDUS_clean_linker_0, # of connection points: 2
# Relax obj value: 0.305
# Max RMSD: 0.286
# Mean RMSD: 0.261
data_MOF--net-afw--node1-AZAVOO_clean_sbu_0--edge1-CIFDUS_clean_linker_0
_symmetry_space_group_name_H-M    P1
_symmetry_Int_Tables_number       1
_symmetry_cell_setting            triclinic
loop_
_symmetry_equiv_pos_as_xyz
'x, y, z'
_cell_length_a     34.815706
_cell_length_b     32.923035
_cell_length_c     32.895192
_cell_angle_alpha  89.298956
_cell_angle_beta   91.120739
_cell_angle_gamma 119.60061
loop_
_atom_site_label
_atom_site_type_symbol
_atom_site_fract_x
_atom_site_fract_y
_atom_site_fract_z
_atom_type_partial_charge
Mg0 Mg 0.04629 0.27255 0.01814 0.0
O1 O 0.98009 0.20396 0.01861 0.0
O2 O 0.9256 0.22119 0.01423 0.0
Mg3 Mg 0.95625 0.30052 0.01361 0.0
C4 C 0.93903 0.1915 0.01668 0.0
C5 C 0.12423 0.25643 -0.00276 0.0
O6 O 0.14284 0.30218 -0.00452 0.0
O7 O 0.03772 0.28287 0.95056 0.0
O8 O 0.98645 0.30497 0.95164 0.0
O9 O 0.04579 0.27829 0.08607 0.0
O10 O 0.01647 0.3075 0.04291 0.0
C11 C 0.01398 0.29755 0.93258 0.0
C12 C 0.02403 0.30038 0.07992 0.0
O13 O 0.08339 0.23279 0.00554 0.0
Mg14 Mg 0.78958 0.81225 -0.0165 0.0
O15 O 0.81221 0.88734 -0.00071 0.0
O16 O 0.75429 0.89868 0.001 0.0
Mg17 Mg 0.69354 0.82939 -0.01895 0.0
C18 C 0.79568 0.91363 0.00506 0.0
C19 C 0.88144 0.81848 -0.01704 0.0
O20 O 0.86836 0.80439 0.94547 0.0
O21 O 0.75896 0.78709 0.04485 0.0
O22 O 0.6954 0.7882 0.03724 0.0
O23 O 0.79733 0.82898 0.91728 0.0
O24 O 0.73603 0.80705 0.95114 0.0
C25 C 0.72056 0.77663 0.05695 0.0
C26 C 0.75632 0.81889 0.91718 0.0
O27 O 0.85563 0.82345 0.00649 0.0
Mg28 Mg 0.24128 0.99783 -0.00419 0.0
O29 O 0.22114 0.05403 -0.01041 0.0
O30 O 0.28135 0.12356 -0.01734 0.0
Mg31 Mg 0.34082 0.11115 -0.01396 0.0
C32 C 0.23948 0.09816 -0.01496 0.0
C33 C 0.14143 0.93521 0.00967 0.0
O34 O 0.15437 0.95657 0.04488 0.0
O35 O 0.25822 1.00223 0.92955 0.0
O36 O 0.32168 0.07004 0.92561 0.0
O37 O 0.24725 0.00727 0.06262 0.0
O38 O 0.30275 0.04501 0.02042 0.0
C39 C 0.29152 0.03211 0.9097 0.0
C40 C 0.28852 0.03736 0.0571 0.0
O41 O 0.17001 0.94383 -0.01736 0.0
Mg42 Mg 0.57404 0.52915 0.27749 0.0
O43 O 0.64406 0.54074 0.27562 0.0
O44 O 0.69408 0.616 0.26811 0.0
Mg45 Mg 0.65386 0.65412 0.26392 0.0
C46 C 0.68401 0.57334 0.27263 0.0
C47 C 0.51512 0.42024 0.29821 0.0
O48 O 0.48188 0.42485 0.2842 0.0
O49 O 0.58865 0.55792 0.34177 0.0
O50 O 0.63576 0.63357 0.32979 0.0
O51 O 0.56864 0.52487 0.20922 0.0
O52 O 0.59386 0.58994 0.24497 0.0
C53 C 0.61354 0.59975 0.35409 0.0
C54 C 0.58672 0.56993 0.21028 0.0
O55 O 0.55355 0.4557 0.29966 0.0
Mg56 Mg 0.51358 0.09904 0.28992 0.0
O57 O 0.49198 0.15291 0.30433 0.0
O58 O 0.41826 0.11786 0.29919 0.0
Mg59 Mg 0.39263 0.04094 0.28429 0.0
C60 C 0.45584 0.15409 0.30561 0.0
C61 C 0.61237 0.13632 0.31409 0.0
O62 O 0.60028 0.09248 0.30652 0.0
O63 O 0.49244 0.06604 0.35295 0.0
O64 O 0.41918 0.03068 0.34518 0.0
O65 O 0.51579 0.11764 0.22436 0.0
O66 O 0.45605 0.0631 0.25473 0.0
C67 C 0.45359 0.0404 0.3666 0.0
C68 C 0.47376 0.08865 0.22305 0.0
O69 O 0.58353 0.14927 0.31202 0.0
Mg70 Mg 0.92879 0.46709 0.29051 0.0
O71 O 0.86697 0.39697 0.30252 0.0
O72 O 0.88545 0.34149 0.31107 0.0
Mg73 Mg 0.96043 0.37653 0.30373 0.0
C74 C 0.85653 0.35459 0.30954 0.0
C75 C 0.89667 0.54102 0.2835 0.0
O76 O 0.93432 0.56521 0.26464 0.0
O77 O 0.94843 0.47325 0.35777 0.0
O78 O 0.97187 0.42087 0.36012 0.0
O79 O 0.92239 0.4516 0.22409 0.0
O80 O 0.96055 0.4329 0.26725 0.0
C81 C 0.9662 0.45239 0.37654 0.0
C82 C 0.94563 0.43129 0.23091 0.0
O83 O 0.88707 0.50165 0.29901 0.0
Mg84 Mg 0.39988 0.90669 0.67548 0.0
O85 O 0.33118 0.8416 0.6698 0.0
O86 O 0.27996 0.86365 0.66648 0.0
Mg87 Mg 0.31639 0.94355 0.66737 0.0
C88 C 0.29085 0.83188 0.66742 0.0
C89 C 0.47178 0.88162 0.65242 0.0
O90 O 0.49267 0.92694 0.64592 0.0
O91 O 0.3993 0.92311 0.6081 0.0
O92 O 0.3478 0.94507 0.60622 0.0
O93 O 0.39123 0.904 0.74243 0.0
O94 O 0.37227 0.9442 0.70016 0.0
C95 C 0.37616 0.93754 0.58876 0.0
C96 C 0.37295 0.92964 0.73646 0.0
O97 O 0.43196 0.86194 0.66406 0.0
Mg98 Mg 0.12248 0.44976 0.64214 0.0
O99 O 0.14754 0.52574 0.65838 0.0
O100 O 0.09313 0.54278 0.65406 0.0
Mg101 Mg 0.03094 0.47374 0.63676 0.0
C102 C 0.1336 0.55483 0.6608 0.0
C103 C 0.21184 0.4477 0.65302 0.0
O104 O 0.20119 0.4278 0.61708 0.0
O105 O 0.08922 0.4253 0.70187 0.0
O106 O 0.03198 0.4381 0.69785 0.0
O107 O 0.13699 0.4712 0.57812 0.0
O108 O 0.07233 0.44926 0.6065 0.0
C109 C 0.05471 0.4228 0.71685 0.0
C110 C 0.09755 0.46585 0.57539 0.0
O111 O 0.18582 0.45852 0.67011 0.0
Mg112 Mg 0.5687 0.60749 0.68453 0.0
O113 O 0.55107 0.66497 0.67062 0.0
O114 O 0.61277 0.73133 0.65638 0.0
Mg115 Mg 0.66958 0.71504 0.65776 0.0
C116 C 0.57105 0.70837 0.66149 0.0
C117 C 0.46747 0.55465 0.70186 0.0
O118 O 0.4802 0.58632 0.73057 0.0
O119 O 0.57558 0.5992 0.61783 0.0
O120 O 0.63744 0.66561 0.60389 0.0
O121 O 0.58229 0.63214 0.74847 0.0
O122 O 0.6324 0.65736 0.70007 0.0
C123 C 0.60492 0.6263 0.59301 0.0
C124 C 0.62198 0.66094 0.73652 0.0
O125 O 0.49629 0.5537 0.67954 0.0
H126 H 0.26558 0.19094 0.97708 0.0
H127 H 0.14968 0.05564 -0.00728 0.0
H128 H 0.10378 0.09228 -0.00326 0.0
H129 H 0.09663 0.16295 -0.00157 0.0
H130 H 0.21261 0.29811 -0.01709 0.0
H131 H 0.25803 0.26122 0.97618 0.0
C132 C 0.23026 0.16935 -0.01888 0.0
C133 C 0.21135 0.12054 -0.01527 0.0
C134 C 0.2039 0.19064 -0.01638 0.0
C135 C 0.16537 0.09329 -0.01012 0.0
C136 C 0.13898 0.11421 -0.00773 0.0
C137 C 0.13181 0.18435 -0.00659 0.0
C138 C 0.1511 0.2333 -0.00861 0.0
C139 C 0.15792 0.1629 -0.01039 0.0
C140 C 0.19677 0.26038 -0.01529 0.0
C141 C 0.22288 0.23932 -0.01913 0.0
H142 H 0.77809 0.98587 0.00282 0.0
H143 H 0.88283 0.95397 0.02656 0.0
H144 H 0.93588 0.03676 0.03356 0.0
H145 H 0.95365 0.11834 0.02906 0.0
H146 H 0.84953 0.151 0.00469 0.0
H147 H 0.79538 0.06791 0.00197 0.0
C148 C 0.81239 0.99697 0.01003 0.0
C149 C 0.82636 0.96363 0.01383 0.0
C150 C 0.84306 0.04487 0.01356 0.0
C151 C 0.87107 0.97877 0.02312 0.0
C152 C 0.90156 0.02619 0.02709 0.0
C153 C 0.91912 0.1074 0.02325 0.0
C154 C 0.90589 0.14102 0.01674 0.0
C155 C 0.88809 0.05957 0.02163 0.0
C156 C 0.86082 0.12599 0.00965 0.0
C157 C 0.82974 0.07841 0.00808 0.0
H158 H 0.94818 0.82388 0.93747 0.0
H159 H 0.91806 0.8487 0.05829 0.0
H160 H 0.99574 0.88366 0.07812 0.0
H161 H 0.07274 0.9132 0.05956 0.0
H162 H 0.10341 0.89045 0.93828 0.0
H163 H 0.02488 0.8483 0.92041 0.0
C164 C 0.9585 0.8364 0.96828 0.0
C165 C 0.92743 0.83412 -0.00381 0.0
C166 C 0.00335 0.85713 -0.02064 0.0
C167 C 0.94134 0.85033 0.03607 0.0
C168 C 0.98579 0.87043 0.04746 0.0
C169 C 0.06228 0.89864 0.02933 0.0
C170 C 0.09391 0.90541 0.0002 0.0
C171 C 0.01718 0.87499 0.01908 0.0
C172 C 0.07974 0.88601 0.96124 0.0
C173 C 0.03484 0.86195 0.95095 0.0
H174 H 0.80986 0.48865 0.30045 0.0
H175 H 0.9079 0.62703 0.26258 0.0
H176 H 0.85081 0.64969 0.25609 0.0
H177 H 0.77252 0.62925 0.2596 0.0
H178 H 0.67512 0.48928 0.29511 0.0
H179 H 0.7326 0.46828 0.30374 0.0
C180 C 0.81894 0.52395 0.29113 0.0
C181 C 0.86311 0.55616 0.2822 0.0
C182 C 0.78597 0.53636 0.28665 0.0
C183 C 0.87411 0.60157 0.2697 0.0
C184 C 0.84148 0.61451 0.26588 0.0
C185 C 0.76388 0.59417 0.26922 0.0
C186 C 0.71946 0.56097 0.2766 0.0
C187 C 0.79719 0.58203 0.27395 0.0
C188 C 0.70891 0.51559 0.28895 0.0
C189 C 0.7418 0.50348 0.29408 0.0
H190 H 0.52795 0.23768 0.3244 0.0
H191 H 0.38822 0.17364 0.29722 0.0
H192 H 0.3935 0.2503 0.29565 0.0
H193 H 0.43905 0.33598 0.29572 0.0
H194 H 0.57887 0.39949 0.32234 0.0
H195 H 0.57204 0.32264 0.33059 0.0
C196 C 0.4985 0.24034 0.31859 0.0
C197 C 0.45789 0.19986 0.31048 0.0
C198 C 0.50178 0.28457 0.31729 0.0
C199 C 0.42002 0.20412 0.30343 0.0
C200 C 0.423 0.24803 0.30234 0.0
C201 C 0.46793 0.33303 0.30376 0.0
C202 C 0.50945 0.37352 0.30786 0.0
C203 C 0.46391 0.28857 0.30823 0.0
C204 C 0.54648 0.36898 0.31865 0.0
C205 C 0.54268 0.32498 0.32334 0.0
H206 H 0.64913 0.23079 0.31775 0.0
H207 H 0.68225 0.12054 0.32178 0.0
H208 H 0.76082 0.17844 0.32301 0.0
H209 H 0.82 0.26015 0.31835 0.0
H210 H 0.78637 0.37009 0.31234 0.0
H211 H 0.70821 0.31242 0.31654 0.0
C212 C 0.67347 0.21934 0.31937 0.0
C213 C 0.65974 0.17133 0.31945 0.0
C214 C 0.71859 0.25278 0.31936 0.0
C215 C 0.69184 0.15724 0.32152 0.0
C216 C 0.73682 0.19035 0.32212 0.0
C217 C 0.79565 0.2716 0.31824 0.0
C218 C 0.80924 0.31948 0.31471 0.0
C219 C 0.75057 0.23819 0.32028 0.0
C220 C 0.77705 0.33352 0.31474 0.0
C221 C 0.73223 0.30055 0.31717 0.0
H222 H 0.43931 0.78844 0.66604 0.0
H223 H 0.55747 0.91428 0.63102 0.0
H224 H 0.59798 0.87149 0.62926 0.0
H225 H 0.60089 0.79934 0.64037 0.0
H226 H 0.48294 0.67337 0.67574 0.0
H227 H 0.44148 0.71527 0.67442 0.0
C228 C 0.47386 0.80648 0.65779 0.0
C229 C 0.49531 0.85462 0.6489 0.0
C230 C 0.49713 0.78169 0.65701 0.0
C231 C 0.54008 0.87732 0.63814 0.0
C232 C 0.56336 0.85288 0.63716 0.0
C233 C 0.56607 0.78088 0.64763 0.0
C234 C 0.54527 0.73325 0.65836 0.0
C235 C 0.54237 0.8052 0.64699 0.0
C236 C 0.49998 0.71002 0.66745 0.0
C237 C 0.47617 0.73398 0.66677 0.0
H238 H 0.2994 0.75533 0.68273 0.0
H239 H 0.2027 0.79651 0.65031 0.0
H240 H 0.1449 0.71462 0.64798 0.0
H241 H 0.12226 0.63106 0.65265 0.0
H242 H 0.21962 0.59072 0.6851 0.0
H243 H 0.27637 0.67247 0.69028 0.0
C244 C 0.26571 0.7465 0.67511 0.0
C245 C 0.2556 0.78215 0.66641 0.0
C246 C 0.23258 0.69939 0.67398 0.0
C247 C 0.21157 0.76988 0.65705 0.0
C248 C 0.17842 0.723 0.65572 0.0
C249 C 0.15575 0.64011 0.66133 0.0
C250 C 0.16652 0.6046 0.66826 0.0
C251 C 0.18858 0.68742 0.66389 0.0
C252 C 0.21026 0.61716 0.67936 0.0
C253 C 0.24288 0.66399 0.68226 0.0
H254 H 0.27826 0.43636 0.62303 0.0
H255 H 0.24472 0.4944 0.72442 0.0
H256 H 0.32026 0.52927 0.75052 0.0
H257 H 0.39731 0.54954 0.7412 0.0
H258 H 0.43126 0.49239 0.63944 0.0
H259 H 0.35411 0.45064 0.61725 0.0
C260 C 0.28733 0.45613 0.65109 0.0
C261 C 0.25601 0.46324 0.67136 0.0
C262 C 0.33102 0.47657 0.66582 0.0
C263 C 0.26824 0.48866 0.70793 0.0
C264 C 0.3115 0.50876 0.72291 0.0
C265 C 0.38778 0.52751 0.71445 0.0
C266 C 0.4201 0.52463 0.69178 0.0
C267 C 0.34341 0.50392 0.70156 0.0
C268 C 0.40711 0.49556 0.65736 0.0
C269 C 0.36297 0.47171 0.64454 0.0
H270 H 0.97449 0.33642 0.88716 0.0
H271 H 0.07226 0.29217 0.88104 0.0
H272 H 0.09266 0.32651 0.81327 0.0
H273 H 0.08606 0.37318 0.75812 0.0
H274 H 0.98934 0.41878 0.76474 0.0
H275 H 0.96547 0.3799 0.83058 0.0
C276 C 0.99996 0.33373 0.87095 0.0
C277 C 0.02202 0.31198 0.8894 0.0
C278 C 0.01214 0.35433 0.83243 0.0
C279 C 0.05478 0.30876 0.86769 0.0
C280 C 0.06665 0.32863 0.82903 0.0
C281 C 0.05979 0.37479 0.7739 0.0
C282 C 0.03985 0.39936 0.75668 0.0
C283 C 0.04619 0.35233 0.81156 0.0
C284 C 0.00544 0.4004 0.77738 0.0
C285 C 0.99172 0.37809 0.81497 0.0
H286 H 0.78005 0.80625 0.84264 0.0
H287 H 0.67298 0.80558 0.90709 0.0
H288 H 0.62093 0.75811 0.85393 0.0
H289 H 0.60417 0.70454 0.79649 0.0
H290 H 0.71111 0.70424 0.73273 0.0
H291 H 0.76485 0.76392 0.77848 0.0
C292 C 0.74563 0.79717 0.84434 0.0
C293 C 0.73015 0.8082 0.87922 0.0
C294 C 0.7156 0.76829 0.81451 0.0
C295 C 0.68556 0.7967 0.88082 0.0
C296 C 0.65564 0.76908 0.85067 0.0
C297 C 0.63927 0.71784 0.7926 0.0
C298 C 0.65381 0.69929 0.7623 0.0
C299 C 0.66995 0.75235 0.81875 0.0
C300 C 0.69929 0.71763 0.75647 0.0
C301 C 0.73001 0.75183 0.78245 0.0
H302 H 0.36603 0.00719 0.74507 0.0
H303 H 0.33154 0.87492 0.8017 0.0
H304 H 0.29686 0.89278 0.85751 0.0
H305 H 0.2814 0.9482 0.89239 0.0
H306 H 0.32471 0.08478 0.84093 0.0
H307 H 0.35037 0.06301 0.78028 0.0
C308 C 0.35059 0.98223 0.76955 0.0
C309 C 0.35124 0.93988 0.76954 0.0
C310 C 0.33223 0.99352 0.80217 0.0
C311 C 0.33166 0.90789 0.80143 0.0
C312 C 0.31172 0.91801 0.83316 0.0
C313 C 0.29552 0.97278 0.86742 0.0
C314 C 0.30054 0.01768 0.87053 0.0
C315 C 0.31238 0.96095 0.83409 0.0
C316 C 0.32014 0.04985 0.83875 0.0
C317 C 0.33502 0.0375 0.80434 0.0
H318 H 0.38952 0.07277 0.22327 0.0
H319 H 0.49799 0.1057 0.14374 0.0
H320 H 0.45135 0.09949 0.08472 0.0
H321 H 0.37767 0.07657 0.05597 0.0
H322 H 0.26858 0.03923 0.13643 0.0
H323 H 0.31779 0.05558 0.19531 0.0
C324 C 0.40286 0.0778 0.19317 0.0
C325 C 0.4466 0.08792 0.1878 0.0
C326 C 0.37582 0.07372 0.15967 0.0
C327 C 0.4641 0.09712 0.14852 0.0
C328 C 0.43748 0.09358 0.11485 0.0
C329 C 0.36485 0.07294 0.08639 0.0
C330 C 0.3195 0.05636 0.09192 0.0
C331 C 0.39299 0.08085 0.12006 0.0
C332 C 0.30332 0.0517 0.13145 0.0
C333 C 0.33136 0.06077 0.16509 0.0
H334 H 0.97473 0.3433 0.07437 0.0
H335 H 0.04073 0.29855 0.16141 0.0
H336 H 0.02159 0.33476 0.21613 0.0
H337 H 0.98987 0.38263 0.23793 0.0
H338 H 0.92053 0.42344 0.151 0.0
H339 H 0.93742 0.3848 0.09695 0.0
C340 C 0.98422 0.3404 0.10528 0.0
C341 C 0.00896 0.31795 0.11371 0.0
C342 C 0.97285 0.36088 0.1364 0.0
C343 C 0.02154 0.31547 0.15408 0.0
C344 C 0.01073 0.33629 0.18533 0.0
C345 C 0.97761 0.38239 0.20742 0.0
C346 C 0.95372 0.40574 0.19864 0.0
C347 C 0.98688 0.35957 0.17668 0.0
C348 C 0.93893 0.40571 0.15862 0.0
C349 C 0.94858 0.38364 0.12771 0.0
H350 H 0.67177 0.63003 0.19774 0.0
H351 H 0.54223 0.5764 0.14373 0.0
H352 H 0.57228 0.63878 0.09221 0.0
H353 H 0.63497 0.71083 0.06564 0.0
H354 H 0.76439 0.76416 0.12101 0.0
H355 H 0.73442 0.70043 0.17064 0.0
C356 C 0.65028 0.63196 0.17454 0.0
C357 C 0.6051 0.59921 0.17427 0.0
C358 C 0.66753 0.66846 0.14633 0.0
C359 C 0.57734 0.60114 0.14386 0.0
C360 C 0.59438 0.63712 0.11498 0.0
C361 C 0.65643 0.70898 0.08905 0.0
C362 C 0.70166 0.74256 0.09027 0.0
C363 C 0.63925 0.67158 0.11662 0.0
C364 C 0.72939 0.73901 0.11992 0.0
C365 C 0.71239 0.70242 0.14796 0.0
H366 H 0.01596 0.45513 0.55928 0.0
H367 H 0.14369 0.50227 0.50608 0.0
H368 H 0.11496 0.51003 0.44012 0.0
H369 H 0.05136 0.49224 0.39601 0.0
H370 H 0.92301 0.44286 0.44746 0.0
H371 H 0.95426 0.44812 0.51613 0.0
C372 C 0.03772 0.46794 0.53345 0.0
C373 C 0.08169 0.4773 0.53741 0.0
C374 C 0.02082 0.47181 0.49541 0.0
C375 C 0.10956 0.49421 0.50373 0.0
C376 C 0.09319 0.49868 0.46598 0.0
C377 C 0.03064 0.48403 0.4225 0.0
C378 C 0.98525 0.46728 0.41726 0.0
C379 C 0.04859 0.48599 0.46126 0.0
C380 C 0.95822 0.45631 0.45125 0.0
C381 C 0.97601 0.45883 0.49029 0.0
H382 H 0.56342 0.54323 0.41564 0.0
H383 H 0.67383 0.68026 0.39076 0.0
H384 H 0.68111 0.69958 0.4624 0.0
H385 H 0.65589 0.67885 0.53145 0.0
H386 H 0.54494 0.54299 0.55801 0.0
H387 H 0.5383 0.522 0.48616 0.0
C388 C 0.58914 0.57721 0.42596 0.0
C389 C 0.61785 0.61022 0.39785 0.0
C390 C 0.5931 0.58841 0.46737 0.0
C391 C 0.651 0.6542 0.41166 0.0
C392 C 0.65533 0.66537 0.45266 0.0
C393 C 0.6303 0.64451 0.52172 0.0
C394 C 0.601 0.61259 0.55002 0.0
C395 C 0.62646 0.63287 0.48066 0.0
C396 C 0.56793 0.56831 0.53675 0.0
C397 C 0.5641 0.55626 0.49571 0.0
H398 H 0.45377 0.97418 0.5482 0.0
H399 H 0.31462 0.92641 0.53196 0.0
H400 H 0.32647 0.95231 0.46128 0.0
H401 H 0.37625 0.99242 0.4059 0.0
H402 H 0.51638 0.04481 0.42146 0.0
H403 H 0.50429 0.01341 0.49085 0.0
C404 C 0.42607 0.96887 0.52888 0.0
C405 C 0.38338 0.9484 0.54507 0.0
C406 C 0.43335 0.98519 0.48849 0.0
C407 C 0.34777 0.94224 0.52008 0.0
C408 C 0.35452 0.95712 0.47976 0.0
C409 C 0.40433 0.99695 0.42423 0.0
C410 C 0.44722 0.02115 0.40844 0.0
C411 C 0.39722 0.97939 0.46394 0.0
C412 C 0.48303 0.02656 0.43289 0.0
C413 C 0.47612 0.00851 0.47253 0.0
loop_
_geom_bond_atom_site_label_1
_geom_bond_atom_site_label_2
_geom_bond_distance
_geom_bond_site_symmetry_2
_ccdc_geom_bond_type
Mg0 O1 2.028 1_455 S
Mg0 O7 1.986 1_554 S
Mg0 O9 2.114 . S
Mg0 O10 2.251 1_455 S
Mg0 O13 2.010 . S
O1 Mg0 2.028 1_655 S
O1 C4 1.250 1_554 S
O2 Mg3 2.028 . S
O2 C4 1.248 . S
Mg3 O2 2.028 . S
Mg3 O8 2.032 . S
Mg3 O10 2.079 1_556 S
C4 O1 1.250 1_556 S
C4 O2 1.248 . S
C5 O6 1.264 . S
C5 O13 1.249 . S
O6 C5 1.264 . S
O7 Mg0 1.986 1_556 S
O7 C11 1.246 . S
O8 Mg3 2.032 . S
O8 C11 1.259 1_655 S
O9 Mg0 2.114 . S
O9 C12 1.252 1_455 S
O10 Mg0 2.251 1_655 S
O10 Mg3 2.079 1_554 S
O10 C12 1.273 . S
C11 O7 1.246 . S
C11 O8 1.259 1_455 S
C12 O9 1.252 1_655 S
C12 O10 1.273 . S
O13 Mg0 2.010 . S
O13 C5 1.249 . S
Mg14 O15 2.028 . S
Mg14 O21 1.986 . S
Mg14 O23 2.114 1_554 S
Mg14 O24 2.251 1_554 S
Mg14 O27 2.010 . S
O15 Mg14 2.028 . S
O15 C18 1.250 . S
O16 Mg17 2.028 . S
O16 C18 1.248 . S
Mg17 O16 2.028 . S
Mg17 O22 2.032 . S
Mg17 O24 2.079 1_554 S
C18 O15 1.250 . S
C18 O16 1.248 . S
C19 O20 1.264 . S
C19 O27 1.249 1_556 S
O20 C19 1.264 . S
O21 Mg14 1.986 . S
O21 C25 1.246 . S
O22 Mg17 2.032 . S
O22 C25 1.259 . S
O23 Mg14 2.114 1_556 S
O23 C26 1.252 . S
O24 Mg14 2.251 1_556 S
O24 Mg17 2.079 1_556 S
O24 C26 1.273 . S
C25 O21 1.246 . S
C25 O22 1.259 . S
C26 O23 1.252 . S
C26 O24 1.273 . S
O27 Mg14 2.010 . S
O27 C19 1.249 1_554 S
Mg28 O29 2.028 1_565 S
Mg28 O35 1.986 1_554 S
Mg28 O37 2.114 1_565 S
Mg28 O38 2.251 1_565 S
Mg28 O41 2.010 . S
O29 Mg28 2.028 1_545 S
O29 C32 1.250 1_554 S
O30 Mg31 2.028 . S
O30 C32 1.248 . S
Mg31 O30 2.028 . S
Mg31 O36 2.032 . S
Mg31 O38 2.079 1_556 S
C32 O29 1.250 1_556 S
C32 O30 1.248 . S
C33 O34 1.264 . S
C33 O41 1.249 . S
O34 C33 1.264 . S
O35 Mg28 1.986 1_556 S
O35 C39 1.246 1_565 S
O36 Mg31 2.032 . S
O36 C39 1.259 . S
O37 Mg28 2.114 1_545 S
O37 C40 1.252 . S
O38 Mg28 2.251 1_545 S
O38 Mg31 2.079 1_554 S
O38 C40 1.273 . S
C39 O35 1.246 1_545 S
C39 O36 1.259 . S
C40 O37 1.252 . S
C40 O38 1.273 . S
O41 Mg28 2.010 . S
O41 C33 1.249 . S
Mg42 O43 2.028 . S
Mg42 O49 1.986 . S
Mg42 O51 2.114 . S
Mg42 O52 2.251 . S
Mg42 O55 2.010 . S
O43 Mg42 2.028 . S
O43 C46 1.250 . S
O44 Mg45 2.028 . S
O44 C46 1.248 . S
Mg45 O44 2.028 . S
Mg45 O50 2.032 . S
Mg45 O52 2.079 . S
C46 O43 1.250 . S
C46 O44 1.248 . S
C47 O48 1.264 . S
C47 O55 1.249 . S
O48 C47 1.264 . S
O49 Mg42 1.986 . S
O49 C53 1.246 . S
O50 Mg45 2.032 . S
O50 C53 1.259 . S
O51 Mg42 2.114 . S
O51 C54 1.252 . S
O52 Mg42 2.251 . S
O52 Mg45 2.079 . S
O52 C54 1.273 . S
C53 O49 1.246 . S
C53 O50 1.259 . S
C54 O51 1.252 . S
C54 O52 1.273 . S
O55 Mg42 2.010 . S
O55 C47 1.249 . S
Mg56 O57 2.028 . S
Mg56 O63 1.986 . S
Mg56 O65 2.114 . S
Mg56 O66 2.251 . S
Mg56 O69 2.010 . S
O57 Mg56 2.028 . S
O57 C60 1.250 . S
O58 Mg59 2.028 . S
O58 C60 1.248 . S
Mg59 O58 2.028 . S
Mg59 O64 2.032 . S
Mg59 O66 2.079 . S
C60 O57 1.250 . S
C60 O58 1.248 . S
C61 O62 1.264 . S
C61 O69 1.249 . S
O62 C61 1.264 . S
O63 Mg56 1.986 . S
O63 C67 1.246 . S
O64 Mg59 2.032 . S
O64 C67 1.259 . S
O65 Mg56 2.114 . S
O65 C68 1.252 . S
O66 Mg56 2.251 . S
O66 Mg59 2.079 . S
O66 C68 1.273 . S
C67 O63 1.246 . S
C67 O64 1.259 . S
C68 O65 1.252 . S
C68 O66 1.273 . S
O69 Mg56 2.010 . S
O69 C61 1.249 . S
Mg70 O71 2.028 . S
Mg70 O77 1.986 . S
Mg70 O79 2.114 . S
Mg70 O80 2.251 . S
Mg70 O83 2.010 . S
O71 Mg70 2.028 . S
O71 C74 1.250 . S
O72 Mg73 2.028 . S
O72 C74 1.248 . S
Mg73 O72 2.028 . S
Mg73 O78 2.032 . S
Mg73 O80 2.079 . S
C74 O71 1.250 . S
C74 O72 1.248 . S
C75 O76 1.264 . S
C75 O83 1.249 . S
O76 C75 1.264 . S
O77 Mg70 1.986 . S
O77 C81 1.246 . S
O78 Mg73 2.032 . S
O78 C81 1.259 . S
O79 Mg70 2.114 . S
O79 C82 1.252 . S
O80 Mg70 2.251 . S
O80 Mg73 2.079 . S
O80 C82 1.273 . S
C81 O77 1.246 . S
C81 O78 1.259 . S
C82 O79 1.252 . S
C82 O80 1.273 . S
O83 Mg70 2.010 . S
O83 C75 1.249 . S
Mg84 O85 2.028 . S
Mg84 O91 1.986 . S
Mg84 O93 2.114 . S
Mg84 O94 2.251 . S
Mg84 O97 2.010 . S
O85 Mg84 2.028 . S
O85 C88 1.250 . S
O86 Mg87 2.028 . S
O86 C88 1.248 . S
Mg87 O86 2.028 . S
Mg87 O92 2.032 . S
Mg87 O94 2.079 . S
C88 O85 1.250 . S
C88 O86 1.248 . S
C89 O90 1.264 . S
C89 O97 1.249 . S
O90 C89 1.264 . S
O91 Mg84 1.986 . S
O91 C95 1.246 . S
O92 Mg87 2.032 . S
O92 C95 1.259 . S
O93 Mg84 2.114 . S
O93 C96 1.252 . S
O94 Mg84 2.251 . S
O94 Mg87 2.079 . S
O94 C96 1.273 . S
C95 O91 1.246 . S
C95 O92 1.259 . S
C96 O93 1.252 . S
C96 O94 1.273 . S
O97 Mg84 2.010 . S
O97 C89 1.249 . S
Mg98 O99 2.028 . S
Mg98 O105 1.986 . S
Mg98 O107 2.114 . S
Mg98 O108 2.251 . S
Mg98 O111 2.010 . S
O99 Mg98 2.028 . S
O99 C102 1.250 . S
O100 Mg101 2.028 . S
O100 C102 1.248 . S
Mg101 O100 2.028 . S
Mg101 O106 2.032 . S
Mg101 O108 2.079 . S
C102 O99 1.250 . S
C102 O100 1.248 . S
C103 O104 1.264 . S
C103 O111 1.249 . S
O104 C103 1.264 . S
O105 Mg98 1.986 . S
O105 C109 1.246 . S
O106 Mg101 2.032 . S
O106 C109 1.259 . S
O107 Mg98 2.114 . S
O107 C110 1.252 . S
O108 Mg98 2.251 . S
O108 Mg101 2.079 . S
O108 C110 1.273 . S
C109 O105 1.246 . S
C109 O106 1.259 . S
C110 O107 1.252 . S
C110 O108 1.273 . S
O111 Mg98 2.010 . S
O111 C103 1.249 . S
Mg112 O113 2.028 . S
Mg112 O119 1.986 . S
Mg112 O121 2.114 . S
Mg112 O122 2.251 . S
Mg112 O125 2.010 . S
O113 Mg112 2.028 . S
O113 C116 1.250 . S
O114 Mg115 2.028 . S
O114 C116 1.248 . S
Mg115 O114 2.028 . S
Mg115 O120 2.032 . S
Mg115 O122 2.079 . S
C116 O113 1.250 . S
C116 O114 1.248 . S
C117 O118 1.264 . S
C117 O125 1.249 . S
O118 C117 1.264 . S
O119 Mg112 1.986 . S
O119 C123 1.246 . S
O120 Mg115 2.032 . S
O120 C123 1.259 . S
O121 Mg112 2.114 . S
O121 C124 1.252 . S
O122 Mg112 2.251 . S
O122 Mg115 2.079 . S
O122 C124 1.273 . S
C123 O119 1.246 . S
C123 O120 1.259 . S
C124 O121 1.252 . S
C124 O122 1.273 . S
O125 Mg112 2.010 . S
O125 C117 1.249 . S
H126 C132 0.930 . S
H127 C135 0.930 . S
H128 C136 0.930 . S
H129 C137 0.930 . S
H130 C140 0.930 . S
H131 C141 0.930 . S
C132 H126 0.930 . S
C132 C133 1.355 . S
C132 C134 1.414 1_556 S
C133 C132 1.355 . S
C133 C135 1.419 1_556 S
C134 C132 1.414 1_554 S
C134 C139 1.425 . S
C134 C141 1.409 . S
C135 H127 0.930 . S
C135 C133 1.419 1_554 S
C135 C136 1.362 . S
C136 H128 0.930 . S
C136 C135 1.362 . S
C136 C139 1.409 . S
C137 H129 0.930 . S
C137 C138 1.355 . S
C137 C139 1.415 . S
C138 C137 1.355 . S
C138 C140 1.419 . S
C139 C134 1.425 . S
C139 C136 1.409 . S
C139 C137 1.415 . S
C140 H130 0.930 . S
C140 C138 1.419 . S
C140 C141 1.362 . S
C141 H131 0.930 . S
C141 C134 1.409 . S
C141 C140 1.362 . S
H142 C148 0.922 1_556 S
H143 C151 0.930 . S
H144 C152 0.934 1_545 S
H145 C153 0.930 . S
H146 C156 0.930 . S
H147 C157 0.930 . S
C148 H142 0.922 1_554 S
C148 C149 1.355 . S
C148 C150 1.415 1_565 S
C149 C148 1.355 . S
C149 C151 1.419 . S
C150 C148 1.415 1_545 S
C150 C155 1.425 . S
C150 C157 1.409 1_554 S
C151 H143 0.930 . S
C151 C149 1.419 . S
C151 C152 1.373 . S
C152 H144 0.934 1_565 S
C152 C151 1.373 . S
C152 C155 1.396 1_565 S
C153 H145 0.930 . S
C153 C154 1.355 1_554 S
C153 C155 1.415 . S
C154 C153 1.355 1_556 S
C154 C156 1.419 . S
C155 C150 1.425 . S
C155 C152 1.396 1_545 S
C155 C153 1.415 . S
C156 H146 0.930 . S
C156 C154 1.419 . S
C156 C157 1.362 . S
C157 H147 0.930 . S
C157 C150 1.409 1_556 S
C157 C156 1.362 . S
H158 C164 0.930 . S
H159 C167 0.930 . S
H160 C168 0.930 . S
H161 C169 0.930 . S
H162 C172 0.930 . S
H163 C173 0.930 . S
C164 H158 0.930 . S
C164 C165 1.355 . S
C164 C166 1.415 1_655 S
C165 C164 1.355 . S
C165 C167 1.419 1_556 S
C166 C164 1.415 1_455 S
C166 C171 1.425 1_556 S
C166 C173 1.409 . S
C167 H159 0.930 . S
C167 C165 1.419 1_554 S
C167 C168 1.362 . S
C168 H160 0.930 . S
C168 C167 1.362 . S
C168 C171 1.409 1_655 S
C169 H161 0.930 . S
C169 C170 1.355 . S
C169 C171 1.415 . S
C170 C169 1.355 . S
C170 C172 1.419 1_554 S
C171 C166 1.425 1_554 S
C171 C168 1.409 1_455 S
C171 C169 1.415 . S
C172 H162 0.930 . S
C172 C170 1.419 1_556 S
C172 C173 1.362 . S
C173 H163 0.930 . S
C173 C166 1.409 . S
C173 C172 1.362 . S
H174 C180 0.930 . S
H175 C183 0.930 . S
H176 C184 0.930 . S
H177 C185 0.930 . S
H178 C188 0.930 . S
H179 C189 0.930 . S
C180 H174 0.930 . S
C180 C181 1.355 . S
C180 C182 1.415 . S
C181 C180 1.355 . S
C181 C183 1.419 . S
C182 C180 1.415 . S
C182 C187 1.425 . S
C182 C189 1.409 . S
C183 H175 0.930 . S
C183 C181 1.419 . S
C183 C184 1.362 . S
C184 H176 0.930 . S
C184 C183 1.362 . S
C184 C187 1.409 . S
C185 H177 0.930 . S
C185 C186 1.355 . S
C185 C187 1.415 . S
C186 C185 1.355 . S
C186 C188 1.419 . S
C187 C182 1.425 . S
C187 C184 1.409 . S
C187 C185 1.415 . S
C188 H178 0.930 . S
C188 C186 1.419 . S
C188 C189 1.362 . S
C189 H179 0.930 . S
C189 C182 1.409 . S
C189 C188 1.362 . S
H190 C196 0.930 . S
H191 C199 0.930 . S
H192 C200 0.930 . S
H193 C201 0.930 . S
H194 C204 0.930 . S
H195 C205 0.930 . S
C196 H190 0.930 . S
C196 C197 1.355 . S
C196 C198 1.415 . S
C197 C196 1.355 . S
C197 C199 1.419 . S
C198 C196 1.415 . S
C198 C203 1.425 . S
C198 C205 1.409 . S
C199 H191 0.930 . S
C199 C197 1.419 . S
C199 C200 1.362 . S
C200 H192 0.930 . S
C200 C199 1.362 . S
C200 C203 1.409 . S
C201 H193 0.930 . S
C201 C202 1.355 . S
C201 C203 1.415 . S
C202 C201 1.355 . S
C202 C204 1.419 . S
C203 C198 1.425 . S
C203 C200 1.409 . S
C203 C201 1.415 . S
C204 H194 0.930 . S
C204 C202 1.419 . S
C204 C205 1.362 . S
C205 H195 0.930 . S
C205 C198 1.409 . S
C205 C204 1.362 . S
H206 C212 0.930 . S
H207 C215 0.930 . S
H208 C216 0.930 . S
H209 C217 0.930 . S
H210 C220 0.930 . S
H211 C221 0.930 . S
C212 H206 0.930 . S
C212 C213 1.355 . S
C212 C214 1.415 . S
C213 C212 1.355 . S
C213 C215 1.419 . S
C214 C212 1.415 . S
C214 C219 1.425 . S
C214 C221 1.409 . S
C215 H207 0.930 . S
C215 C213 1.419 . S
C215 C216 1.362 . S
C216 H208 0.930 . S
C216 C215 1.362 . S
C216 C219 1.409 . S
C217 H209 0.930 . S
C217 C218 1.355 . S
C217 C219 1.415 . S
C218 C217 1.355 . S
C218 C220 1.419 . S
C219 C214 1.425 . S
C219 C216 1.409 . S
C219 C217 1.415 . S
C220 H210 0.930 . S
C220 C218 1.419 . S
C220 C221 1.362 . S
C221 H211 0.930 . S
C221 C214 1.409 . S
C221 C220 1.362 . S
H222 C228 0.930 . S
H223 C231 0.930 . S
H224 C232 0.930 . S
H225 C233 0.930 . S
H226 C236 0.930 . S
H227 C237 0.930 . S
C228 H222 0.930 . S
C228 C229 1.355 . S
C228 C230 1.415 . S
C229 C228 1.355 . S
C229 C231 1.419 . S
C230 C228 1.415 . S
C230 C235 1.425 . S
C230 C237 1.409 . S
C231 H223 0.930 . S
C231 C229 1.419 . S
C231 C232 1.362 . S
C232 H224 0.930 . S
C232 C231 1.362 . S
C232 C235 1.409 . S
C233 H225 0.930 . S
C233 C234 1.355 . S
C233 C235 1.415 . S
C234 C233 1.355 . S
C234 C236 1.419 . S
C235 C230 1.425 . S
C235 C232 1.409 . S
C235 C233 1.415 . S
C236 H226 0.930 . S
C236 C234 1.419 . S
C236 C237 1.362 . S
C237 H227 0.930 . S
C237 C230 1.409 . S
C237 C236 1.362 . S
H238 C244 0.930 . S
H239 C247 0.930 . S
H240 C248 0.930 . S
H241 C249 0.930 . S
H242 C252 0.930 . S
H243 C253 0.930 . S
C244 H238 0.930 . S
C244 C245 1.355 . S
C244 C246 1.415 . S
C245 C244 1.355 . S
C245 C247 1.419 . S
C246 C244 1.415 . S
C246 C251 1.425 . S
C246 C253 1.409 . S
C247 H239 0.930 . S
C247 C245 1.419 . S
C247 C248 1.362 . S
C248 H240 0.930 . S
C248 C247 1.362 . S
C248 C251 1.409 . S
C249 H241 0.930 . S
C249 C250 1.355 . S
C249 C251 1.415 . S
C250 C249 1.355 . S
C250 C252 1.419 . S
C251 C246 1.425 . S
C251 C248 1.409 . S
C251 C249 1.415 . S
C252 H242 0.930 . S
C252 C250 1.419 . S
C252 C253 1.362 . S
C253 H243 0.930 . S
C253 C246 1.409 . S
C253 C252 1.362 . S
H254 C260 0.930 . S
H255 C263 0.930 . S
H256 C264 0.930 . S
H257 C265 0.930 . S
H258 C268 0.930 . S
H259 C269 0.930 . S
C260 H254 0.930 . S
C260 C261 1.355 . S
C260 C262 1.415 . S
C261 C260 1.355 . S
C261 C263 1.419 . S
C262 C260 1.415 . S
C262 C267 1.425 . S
C262 C269 1.409 . S
C263 H255 0.930 . S
C263 C261 1.419 . S
C263 C264 1.362 . S
C264 H256 0.930 . S
C264 C263 1.362 . S
C264 C267 1.409 . S
C265 H257 0.930 . S
C265 C266 1.355 . S
C265 C267 1.415 . S
C266 C265 1.355 . S
C266 C268 1.419 . S
C267 C262 1.425 . S
C267 C264 1.409 . S
C267 C265 1.415 . S
C268 H258 0.930 . S
C268 C266 1.419 . S
C268 C269 1.362 . S
C269 H259 0.930 . S
C269 C262 1.409 . S
C269 C268 1.362 . S
H270 C276 0.930 1_655 S
H271 C279 0.930 . S
H272 C280 0.930 . S
H273 C281 0.930 . S
H274 C284 0.930 . S
H275 C285 0.930 . S
C276 H270 0.930 1_455 S
C276 C277 1.355 . S
C276 C278 1.415 . S
C277 C276 1.355 . S
C277 C279 1.419 . S
C278 C276 1.415 . S
C278 C283 1.425 . S
C278 C285 1.409 . S
C279 H271 0.930 . S
C279 C277 1.419 . S
C279 C280 1.362 . S
C280 H272 0.930 . S
C280 C279 1.362 . S
C280 C283 1.409 . S
C281 H273 0.930 . S
C281 C282 1.355 . S
C281 C283 1.415 . S
C282 C281 1.355 . S
C282 C284 1.419 . S
C283 C278 1.425 . S
C283 C280 1.409 . S
C283 C281 1.415 . S
C284 H274 0.930 . S
C284 C282 1.419 . S
C284 C285 1.362 . S
C285 H275 0.930 . S
C285 C278 1.409 . S
C285 C284 1.362 . S
H286 C292 0.930 . S
H287 C295 0.930 . S
H288 C296 0.930 . S
H289 C297 0.930 . S
H290 C300 0.930 . S
H291 C301 0.930 . S
C292 H286 0.930 . S
C292 C293 1.355 . S
C292 C294 1.415 . S
C293 C292 1.355 . S
C293 C295 1.419 . S
C294 C292 1.415 . S
C294 C299 1.425 . S
C294 C301 1.409 . S
C295 H287 0.930 . S
C295 C293 1.419 . S
C295 C296 1.362 . S
C296 H288 0.930 . S
C296 C295 1.362 . S
C296 C299 1.409 . S
C297 H289 0.930 . S
C297 C298 1.355 . S
C297 C299 1.415 . S
C298 C297 1.355 . S
C298 C300 1.419 . S
C299 C294 1.425 . S
C299 C296 1.409 . S
C299 C297 1.415 . S
C300 H290 0.930 . S
C300 C298 1.419 . S
C300 C301 1.362 . S
C301 H291 0.930 . S
C301 C294 1.409 . S
C301 C300 1.362 . S
H302 C308 0.930 . S
H303 C311 0.930 . S
H304 C312 0.930 . S
H305 C313 0.930 . S
H306 C316 0.930 . S
H307 C317 0.930 . S
C308 H302 0.930 . S
C308 C309 1.355 . S
C308 C310 1.415 . S
C309 C308 1.355 . S
C309 C311 1.419 . S
C310 C308 1.415 . S
C310 C315 1.425 . S
C310 C317 1.409 1_565 S
C311 H303 0.930 . S
C311 C309 1.419 . S
C311 C312 1.362 . S
C312 H304 0.930 . S
C312 C311 1.362 . S
C312 C315 1.409 . S
C313 H305 0.930 . S
C313 C314 1.355 . S
C313 C315 1.415 . S
C314 C313 1.355 . S
C314 C316 1.419 1_565 S
C315 C310 1.425 . S
C315 C312 1.409 . S
C315 C313 1.415 . S
C316 H306 0.930 . S
C316 C314 1.419 1_545 S
C316 C317 1.362 . S
C317 H307 0.930 . S
C317 C310 1.409 1_545 S
C317 C316 1.362 . S
H318 C324 0.930 . S
H319 C327 0.930 . S
H320 C328 0.930 . S
H321 C329 0.930 . S
H322 C332 0.930 . S
H323 C333 0.930 . S
C324 H318 0.930 . S
C324 C325 1.355 . S
C324 C326 1.415 . S
C325 C324 1.355 . S
C325 C327 1.419 . S
C326 C324 1.415 . S
C326 C331 1.425 . S
C326 C333 1.409 . S
C327 H319 0.930 . S
C327 C325 1.419 . S
C327 C328 1.362 . S
C328 H320 0.930 . S
C328 C327 1.362 . S
C328 C331 1.409 . S
C329 H321 0.930 . S
C329 C330 1.355 . S
C329 C331 1.415 . S
C330 C329 1.355 . S
C330 C332 1.419 . S
C331 C326 1.425 . S
C331 C328 1.409 . S
C331 C329 1.415 . S
C332 H322 0.930 . S
C332 C330 1.419 . S
C332 C333 1.362 . S
C333 H323 0.930 . S
C333 C326 1.409 . S
C333 C332 1.362 . S
H334 C340 0.930 . S
H335 C343 0.930 . S
H336 C344 0.930 . S
H337 C345 0.930 . S
H338 C348 0.930 . S
H339 C349 0.930 . S
C340 H334 0.930 . S
C340 C341 1.355 . S
C340 C342 1.415 . S
C341 C340 1.355 . S
C341 C343 1.419 1_655 S
C342 C340 1.415 . S
C342 C347 1.425 . S
C342 C349 1.409 . S
C343 H335 0.930 . S
C343 C341 1.419 1_455 S
C343 C344 1.362 . S
C344 H336 0.930 . S
C344 C343 1.362 . S
C344 C347 1.409 1_455 S
C345 H337 0.930 . S
C345 C346 1.355 . S
C345 C347 1.415 . S
C346 C345 1.355 . S
C346 C348 1.419 . S
C347 C342 1.425 . S
C347 C344 1.409 1_655 S
C347 C345 1.415 . S
C348 H338 0.930 . S
C348 C346 1.419 . S
C348 C349 1.362 . S
C349 H339 0.930 . S
C349 C342 1.409 . S
C349 C348 1.362 . S
H350 C356 0.930 . S
H351 C359 0.930 . S
H352 C360 0.930 . S
H353 C361 0.930 . S
H354 C364 0.930 . S
H355 C365 0.930 . S
C356 H350 0.930 . S
C356 C357 1.355 . S
C356 C358 1.415 . S
C357 C356 1.355 . S
C357 C359 1.419 . S
C358 C356 1.415 . S
C358 C363 1.425 . S
C358 C365 1.409 . S
C359 H351 0.930 . S
C359 C357 1.419 . S
C359 C360 1.362 . S
C360 H352 0.930 . S
C360 C359 1.362 . S
C360 C363 1.409 . S
C361 H353 0.930 . S
C361 C362 1.355 . S
C361 C363 1.415 . S
C362 C361 1.355 . S
C362 C364 1.419 . S
C363 C358 1.425 . S
C363 C360 1.409 . S
C363 C361 1.415 . S
C364 H354 0.930 . S
C364 C362 1.419 . S
C364 C365 1.362 . S
C365 H355 0.930 . S
C365 C358 1.409 . S
C365 C364 1.362 . S
H366 C372 0.930 1_655 S
H367 C375 0.930 . S
H368 C376 0.930 . S
H369 C377 0.930 . S
H370 C380 0.930 . S
H371 C381 0.930 . S
C372 H366 0.930 1_455 S
C372 C373 1.355 . S
C372 C374 1.415 1_455 S
C373 C372 1.355 . S
C373 C375 1.419 . S
C374 C372 1.415 1_655 S
C374 C379 1.425 1_655 S
C374 C381 1.409 . S
C375 H367 0.930 . S
C375 C373 1.419 . S
C375 C376 1.362 . S
C376 H368 0.930 . S
C376 C375 1.362 . S
C376 C379 1.409 . S
C377 H369 0.930 . S
C377 C378 1.355 1_455 S
C377 C379 1.415 . S
C378 C377 1.355 1_655 S
C378 C380 1.419 . S
C379 C374 1.425 1_455 S
C379 C376 1.409 . S
C379 C377 1.415 . S
C380 H370 0.930 . S
C380 C378 1.419 . S
C380 C381 1.362 . S
C381 H371 0.930 . S
C381 C374 1.409 . S
C381 C380 1.362 . S
H382 C388 0.930 . S
H383 C391 0.930 . S
H384 C392 0.930 . S
H385 C393 0.930 . S
H386 C396 0.930 . S
H387 C397 0.930 . S
C388 H382 0.930 . S
C388 C389 1.355 . S
C388 C390 1.415 . S
C389 C388 1.355 . S
C389 C391 1.419 . S
C390 C388 1.415 . S
C390 C395 1.425 . S
C390 C397 1.409 . S
C391 H383 0.930 . S
C391 C389 1.419 . S
C391 C392 1.362 . S
C392 H384 0.930 . S
C392 C391 1.362 . S
C392 C395 1.409 . S
C393 H385 0.930 . S
C393 C394 1.355 . S
C393 C395 1.415 . S
C394 C393 1.355 . S
C394 C396 1.419 . S
C395 C390 1.425 . S
C395 C392 1.409 . S
C395 C393 1.415 . S
C396 H386 0.930 . S
C396 C394 1.419 . S
C396 C397 1.362 . S
C397 H387 0.930 . S
C397 C390 1.409 . S
C397 C396 1.362 . S
H398 C404 0.930 . S
H399 C407 0.930 . S
H400 C408 0.930 . S
H401 C409 0.930 . S
H402 C412 0.930 . S
H403 C413 0.930 . S
C404 H398 0.930 . S
C404 C405 1.355 1_545 S
C404 C406 1.415 . S
C405 C404 1.355 1_565 S
C405 C407 1.419 . S
C406 C404 1.415 . S
C406 C411 1.425 . S
C406 C413 1.409 . S
C407 H399 0.930 . S
C407 C405 1.419 . S
C407 C408 1.362 . S
C408 H400 0.930 . S
C408 C407 1.362 . S
C408 C411 1.409 1_565 S
C409 H401 0.930 . S
C409 C410 1.355 . S
C409 C411 1.415 . S
C410 C409 1.355 . S
C410 C412 1.419 . S
C411 C406 1.425 . S
C411 C408 1.409 1_545 S
C411 C409 1.415 . S
C412 H402 0.930 . S
C412 C410 1.419 . S
C412 C413 1.362 . S
C413 H403 0.930 . S
C413 C406 1.409 . S
C413 C412 1.362 . S
C133 C32 1.168 . S
C138 C5 1.034 . S
C149 C18 1.188 . S
C154 C4 1.181 . S
C165 C19 0.961 . S
C170 C33 0.894 . S
C181 C75 1.042 . S
C186 C46 1.145 . S
C197 C60 1.072 . S
C202 C47 1.070 . S
C213 C61 1.099 . S
C218 C74 1.192 . S
C229 C89 0.946 . S
C234 C116 1.042 . S
C245 C88 1.263 . S
C250 C102 1.269 . S
C261 C103 0.958 . S
C266 C117 0.966 . S
C277 C11 1.387 . S
C282 C109 1.374 . S
C293 C26 1.322 . S
C298 C124 1.324 . S
C309 C96 1.325 . S
C314 C39 1.315 1_565 S
C325 C68 1.337 . S
C330 C40 1.332 . S
C341 C12 1.444 . S
C346 C82 1.433 . S
C357 C54 1.348 . S
C362 C25 1.346 . S
C373 C110 1.346 . S
C378 C81 1.350 . S
C389 C53 1.252 . S
C394 C123 1.258 . S
C405 C95 1.354 . S
C410 C67 1.363 . S
