# Generated by pormake.
# Topology can, (4)-cn, num edge types: 1
# Building blocks:
#     Node 0, Type 0, BuildingBlock: GALJAG_clean_sbu_0, # of connection points: 4
#     Node 1, Type 0, BuildingBlock: GALJAG_clean_sbu_0, # of connection points: 4
#     Node 2, Type 0, BuildingBlock: GALJAG_clean_sbu_0, # of connection points: 4
#     Node 3, Type 0, BuildingBlock: GALJAG_clean_sbu_0, # of connection points: 4
#     Node 4, Type 0, BuildingBlock: GALJAG_clean_sbu_0, # of connection points: 4
#     Node 5, Type 0, BuildingBlock: GALJAG_clean_sbu_0, # of connection points: 4
#     Node 6, Type 0, BuildingBlock: GALJAG_clean_sbu_0, # of connection points: 4
#     Node 7, Type 0, BuildingBlock: GALJAG_clean_sbu_0, # of connection points: 4
#     Node 8, Type 0, BuildingBlock: GALJAG_clean_sbu_0, # of connection points: 4
#     Node 9, Type 0, BuildingBlock: GALJAG_clean_sbu_0, # of connection points: 4
#     Node 10, Type 0, BuildingBlock: GALJAG_clean_sbu_0, # of connection points: 4
#     Node 11, Type 0, BuildingBlock: GALJAG_clean_sbu_0, # of connection points: 4
#     Edge 12, Type (0, 0), BuildingBlock: EZIPEK_clean_linker_0, # of connection points: 2
#     Edge 13, Type (0, 0), BuildingBlock: EZIPEK_clean_linker_0, # of connection points: 2
#     Edge 14, Type (0, 0), BuildingBlock: EZIPEK_clean_linker_0, # of connection points: 2
#     Edge 15, Type (0, 0), BuildingBlock: EZIPEK_clean_linker_0, # of connection points: 2
#     Edge 16, Type (0, 0), BuildingBlock: EZIPEK_clean_linker_0, # of connection points: 2
#     Edge 17, Type (0, 0), BuildingBlock: EZIPEK_clean_linker_0, # of connection points: 2
#     Edge 18, Type (0, 0), BuildingBlock: EZIPEK_clean_linker_0, # of connection points: 2
#     Edge 19, Type (0, 0), BuildingBlock: EZIPEK_clean_linker_0, # of connection points: 2
#     Edge 20, Type (0, 0), BuildingBlock: EZIPEK_clean_linker_0, # of connection points: 2
#     Edge 21, Type (0, 0), BuildingBlock: EZIPEK_clean_linker_0, # of connection points: 2
#     Edge 22, Type (0, 0), BuildingBlock: EZIPEK_clean_linker_0, # of connection points: 2
#     Edge 23, Type (0, 0), BuildingBlock: EZIPEK_clean_linker_0, # of connection points: 2
#     Edge 24, Type (0, 0), BuildingBlock: EZIPEK_clean_linker_0, # of connection points: 2
#     Edge 25, Type (0, 0), BuildingBlock: EZIPEK_clean_linker_0, # of connection points: 2
#     Edge 26, Type (0, 0), BuildingBlock: EZIPEK_clean_linker_0, # of connection points: 2
#     Edge 27, Type (0, 0), BuildingBlock: EZIPEK_clean_linker_0, # of connection points: 2
#     Edge 28, Type (0, 0), BuildingBlock: EZIPEK_clean_linker_0, # of connection points: 2
#     Edge 29, Type (0, 0), BuildingBlock: EZIPEK_clean_linker_0, # of connection points: 2
#     Edge 30, Type (0, 0), BuildingBlock: EZIPEK_clean_linker_0, # of connection points: 2
#     Edge 31, Type (0, 0), BuildingBlock: EZIPEK_clean_linker_0, # of connection points: 2
#     Edge 32, Type (0, 0), BuildingBlock: EZIPEK_clean_linker_0, # of connection points: 2
#     Edge 33, Type (0, 0), BuildingBlock: EZIPEK_clean_linker_0, # of connection points: 2
#     Edge 34, Type (0, 0), BuildingBlock: EZIPEK_clean_linker_0, # of connection points: 2
#     Edge 35, Type (0, 0), BuildingBlock: EZIPEK_clean_linker_0, # of connection points: 2
# Relax obj value: 0.108
# Max RMSD: 0.101
# Mean RMSD: 0.101
data_MOF--net-can--node1-GALJAG_clean_sbu_0--edge1-EZIPEK_clean_linker_0
_symmetry_space_group_name_H-M    P1
_symmetry_Int_Tables_number       1
_symmetry_cell_setting            triclinic
loop_
_symmetry_equiv_pos_as_xyz
'x, y, z'
_cell_length_a     39.043348
_cell_length_b     39.075015
_cell_length_c     20.963787
_cell_angle_alpha  89.993614
_cell_angle_beta   89.968815
_cell_angle_gamma 120.01189
loop_
_atom_site_label
_atom_site_type_symbol
_atom_site_fract_x
_atom_site_fract_y
_atom_site_fract_z
_atom_type_partial_charge
In0 In 0.04 0.37649 0.25409 0.0
O1 O 0.1049 0.39685 0.24286 0.0
O2 O 0.06483 0.33505 0.25683 0.0
C3 C 0.03927 0.44466 0.25262 0.0
C4 C 0.00727 0.34815 0.14006 0.0
C5 C 0.01866 0.35672 0.37596 0.0
O6 O 0.07103 0.44356 0.24966 0.0
O7 O 0.00795 0.41153 0.25599 0.0
O8 O -0.00325 0.33602 0.3305 0.0
O9 O 0.05082 0.38661 0.35977 0.0
C10 C 0.1 0.36252 0.24861 0.0
O11 O 0.98913 0.33202 0.19124 0.0
O12 O 0.04126 0.37776 0.14673 0.0
In13 In 0.66114 0.04079 0.74124 0.0
O14 O 0.69988 0.10724 0.74736 0.0
O15 O 0.72819 0.07298 0.7351 0.0
C16 C 0.59153 0.0388 0.74301 0.0
C17 C 0.66202 0.01442 0.6227 0.0
C18 C 0.65762 0.01018 0.85774 0.0
O19 O 0.62407 0.07063 0.73769 0.0
O20 O 0.59387 0.00778 0.74682 0.0
O21 O 0.65099 0.98976 0.80766 0.0
O22 O 0.667 0.04565 0.84876 0.0
C23 C 0.73174 0.10673 0.74103 0.0
O24 O 0.67138 0.00151 0.67104 0.0
O25 O 0.65204 0.03981 0.63464 0.0
In26 In 0.59881 0.65596 0.25774 0.0
O27 O 0.57175 0.69489 0.24474 0.0
O28 O 0.63371 0.72268 0.2646 0.0
C29 C 0.53215 0.58565 0.25793 0.0
C30 C 0.62918 0.65878 0.14102 0.0
C31 C 0.62131 0.65346 0.37821 0.0
O32 O 0.53206 0.61776 0.264 0.0
O33 O 0.56584 0.58889 0.2521 0.0
O34 O 0.63509 0.64369 0.33133 0.0
O35 O 0.59745 0.66501 0.36373 0.0
C36 C 0.60403 0.72657 0.2538 0.0
O37 O 0.65029 0.66727 0.19079 0.0
O38 O 0.59359 0.64885 0.15085 0.0
In39 In 0.94008 0.61133 0.75482 0.0
O40 O 0.87374 0.58328 0.74672 0.0
O41 O 0.90838 0.64638 0.75344 0.0
C42 C 0.94791 0.54711 0.75293 0.0
C43 C 0.96838 0.64193 0.63897 0.0
C44 C 0.96072 0.63171 0.87741 0.0
O45 O 0.91456 0.54496 0.75565 0.0
O46 O 0.97737 0.58164 0.75062 0.0
O47 O 0.98526 0.6483 0.8324 0.0
O48 O 0.92635 0.60643 0.86008 0.0
C49 C 0.87451 0.61599 0.74902 0.0
O50 O 0.98286 0.6621 0.68928 0.0
O51 O 0.94019 0.60727 0.64781 0.0
In52 In 0.32362 0.94472 0.25098 0.0
O53 O 0.31233 0.98176 0.17781 0.0
O54 O 0.33295 0.94371 0.14501 0.0
C55 C 0.32801 0.9742 0.36815 0.0
C56 C 0.25321 0.87871 0.25331 0.0
C57 C 0.39536 0.95223 0.25166 0.0
O58 O 0.32935 -0.00644 0.31884 0.0
O59 O 0.32421 0.94074 0.35802 0.0
O60 O 0.36412 0.91897 0.25566 0.0
O61 O 0.39052 0.9818 0.24735 0.0
C62 C 0.32253 0.96849 0.13081 0.0
O63 O 0.28518 0.87808 0.25057 0.0
O64 O 0.25664 0.91255 0.255 0.0
In65 In 0.37543 0.32582 0.74006 0.0
O66 O 0.3362 0.3306 0.6631 0.0
O67 O 0.3804 0.31679 0.63499 0.0
C68 C 0.34883 0.32832 0.85681 0.0
C69 C 0.36783 0.2546 0.74961 0.0
C70 C 0.44046 0.39738 0.74002 0.0
O71 O 0.32859 0.32512 0.80756 0.0
O72 O 0.38131 0.32976 0.84661 0.0
O73 O 0.44206 0.36589 0.73895 0.0
O74 O 0.40613 0.39287 0.74012 0.0
C75 C 0.35336 0.32348 0.61798 0.0
O76 O 0.40118 0.28585 0.7504 0.0
O77 O 0.33807 0.25913 0.7446 0.0
In78 In 0.60572 0.94264 0.24416 0.0
O79 O 0.57452 0.87601 0.25049 0.0
O80 O 0.63783 0.90799 0.24747 0.0
C81 C 0.54262 0.95248 0.24705 0.0
C82 C 0.63741 0.96978 0.35985 0.0
C83 C 0.62809 0.96394 0.12231 0.0
O84 O 0.5396 0.9188 0.24452 0.0
O85 O 0.57752 0.9814 0.24838 0.0
O86 O 0.64435 0.98803 0.16786 0.0
O87 O 0.60191 0.92973 0.13871 0.0
C88 C 0.60633 0.87493 0.25041 0.0
O89 O 0.6578 0.98312 0.30944 0.0
O90 O 0.6019 0.94345 0.35119 0.0
In91 In 0.65702 0.61143 0.75981 0.0
O92 O 0.69677 0.58484 0.76366 0.0
O93 O 0.72383 0.64723 0.75016 0.0
C94 C 0.58678 0.54515 0.75695 0.0
C95 C 0.65758 0.63849 0.87852 0.0
C96 C 0.65191 0.63526 0.64193 0.0
O97 O 0.61884 0.54472 0.76071 0.0
O98 O 0.58996 0.57893 0.75546 0.0
O99 O 0.64917 0.65264 0.69103 0.0
O100 O 0.65792 0.60697 0.65253 0.0
C101 C 0.72816 0.61748 0.75587 0.0
O102 O 0.66553 0.66044 0.82997 0.0
O103 O 0.64968 0.60371 0.86676 0.0
In104 In 0.0398 0.66107 0.25731 0.0
O105 O 0.10628 0.69934 0.24754 0.0
O106 O 0.0728 0.7279 0.26566 0.0
C107 C 0.0379 0.59156 0.25637 0.0
C108 C 0.01392 0.66278 0.37601 0.0
C109 C 0.00827 0.65785 0.14167 0.0
O110 O 0.06968 0.62408 0.26236 0.0
O111 O 0.00688 0.59386 0.25138 0.0
O112 O 0.9881 0.65061 0.19222 0.0
O113 O 0.04393 0.66755 0.14975 0.0
C114 C 0.10627 0.73124 0.25656 0.0
O115 O 0.00206 0.67337 0.32779 0.0
O116 O 0.03788 0.65096 0.36383 0.0
In117 In 0.37903 0.04579 0.75182 0.0
O118 O 0.40436 0.112 0.75264 0.0
O119 O 0.3415 0.07497 0.75679 0.0
C120 C 0.44534 0.04157 0.75169 0.0
C121 C 0.35017 0.01625 0.86787 0.0
C122 C 0.35626 0.02256 0.6312 0.0
O123 O 0.44572 0.0739 0.75784 0.0
O124 O 0.41155 0.01121 0.74633 0.0
O125 O 0.33798 0.00036 0.67797 0.0
O126 O 0.38511 0.05584 0.64553 0.0
C127 C 0.37089 0.10952 0.75534 0.0
O128 O 0.33022 0.001 0.81774 0.0
O129 O 0.38413 0.04563 0.85889 0.0
In130 In 0.31674 0.36892 0.24167 0.0
O131 O 0.27372 0.39133 0.24818 0.0
O132 O 0.24993 0.32899 0.23814 0.0
C133 C 0.38518 0.43748 0.24779 0.0
C134 C 0.32068 0.33981 0.35571 0.0
C135 C 0.32094 0.34998 0.11983 0.0
O136 O 0.35212 0.43596 0.24691 0.0
O137 O 0.38385 0.40456 0.2457 0.0
O138 O 0.31905 0.32785 0.16542 0.0
O139 O 0.32041 0.38075 0.13588 0.0
C140 C 0.24351 0.35747 0.24363 0.0
O141 O 0.32403 0.32478 0.30427 0.0
O142 O 0.31454 0.36833 0.34929 0.0
In143 In 0.93931 0.3274 0.75503 0.0
O144 O 0.98343 0.33381 0.83276 0.0
O145 O 0.9244 0.31725 0.85958 0.0
C146 C 0.96916 0.3314 0.63866 0.0
C147 C 0.87671 0.25552 0.74506 0.0
C148 C 0.94602 0.39892 0.75746 0.0
O149 O 0.9857 0.32723 0.68775 0.0
O150 O 0.93817 0.33298 0.64881 0.0
O151 O 0.91276 0.36751 0.75665 0.0
O152 O 0.97571 0.39422 0.75698 0.0
C153 C 0.95857 0.32573 0.87734 0.0
O154 O 0.87375 0.28629 0.74443 0.0
O155 O 0.91137 0.26094 0.74986 0.0
C156 C 0.0024 0.31629 0.03437 0.0
C157 C 0.98948 0.33604 0.07622 0.0
C158 C 0.95805 0.35042 0.98766 0.0
C159 C 0.96889 0.32863 0.94595 0.0
N160 N -0.00657 0.28331 0.93268 0.0
N161 N 0.94789 0.36411 0.09653 0.0
C162 C 0.98887 0.3094 0.97012 0.0
C163 C 0.96471 0.35027 0.0541 0.0
N164 N 0.02806 0.30467 0.05583 0.0
N165 N 0.94393 0.37355 0.96367 0.0
H166 H 0.95278 0.36523 0.14557 0.0
H167 H 0.92627 0.37103 0.0838 0.0
H168 H 0.9399 0.37615 0.91521 0.0
H169 H 0.94003 0.39351 0.99126 0.0
H170 H 0.04237 0.29454 0.02584 0.0
H171 H 0.03674 0.30725 0.10349 0.0
H172 H 0.00434 0.26557 0.94966 0.0
H173 H 0.98278 0.27652 0.88609 0.0
C174 C 0.64346 0.95266 0.47217 0.0
C175 C 0.65304 0.98237 0.42538 0.0
C176 C 0.68173 0.03257 0.50897 0.0
C177 C 0.66379 0.00257 0.55605 0.0
N178 N 0.62448 0.93302 0.58169 0.0
N179 N 0.67928 0.05146 0.40003 0.0
C180 C 0.64433 0.96222 0.53772 0.0
C181 C 0.67225 0.0227 0.44368 0.0
N182 N 0.63401 0.91541 0.4538 0.0
N183 N 0.70836 0.07039 0.5267 0.0
H184 H 0.67247 0.04579 0.3518 0.0
H185 H 0.68901 0.08069 0.41275 0.0
H186 H 0.71728 0.07808 0.57396 0.0
H187 H 0.72487 0.0928 0.49405 0.0
H188 H 0.62992 0.89335 0.48599 0.0
H189 H 0.63486 0.90809 0.40617 0.0
H190 H 0.60617 0.9035 0.56919 0.0
H191 H 0.62344 0.93842 0.63007 0.0
C192 C 0.63255 0.67849 0.0267 0.0
C193 C 0.64408 0.66079 0.07504 0.0
C194 C 0.67586 0.64117 0.99351 0.0
C195 C 0.65723 0.65148 0.94502 0.0
N196 N 0.61349 0.6762 0.91651 0.0
N197 N 0.67349 0.62109 0.10321 0.0
C198 C 0.63486 0.6697 0.96165 0.0
C199 C 0.66542 0.64147 0.05839 0.0
N200 N 0.61977 0.70413 0.0429 0.0
N201 N 0.70395 0.63155 0.97759 0.0
H202 H 0.66565 0.61944 0.15104 0.0
H203 H 0.6849 0.60279 0.09177 0.0
H204 H 0.71302 0.63198 0.93065 0.0
H205 H 0.72117 0.62743 0.01128 0.0
H206 H 0.61471 0.72084 0.00947 0.0
H207 H 0.61838 0.7119 0.09 0.0
H208 H 0.59315 0.68513 0.92778 0.0
H209 H 0.61315 0.66933 0.86845 0.0
C210 C 0.03269 0.68144 0.49 0.0
C211 C 0.00261 0.66536 0.44274 0.0
C212 C 0.95306 0.64934 0.5262 0.0
C213 C 0.98204 0.65681 0.57335 0.0
N214 N 0.05004 0.67756 0.59934 0.0
N215 N 0.93284 0.6305 0.41691 0.0
C216 C 0.02221 0.67282 0.55533 0.0
C217 C 0.96238 0.64888 0.46084 0.0
N218 N 0.07122 0.70559 0.47248 0.0
N219 N 0.91674 0.64317 0.54406 0.0
H220 H 0.93796 0.62832 0.36874 0.0
H221 H 0.90304 0.61429 0.42938 0.0
H222 H 0.90983 0.64517 0.59152 0.0
H223 H 0.89547 0.64077 0.51154 0.0
H224 H 0.09391 0.72086 0.50529 0.0
H225 H 0.07968 0.71396 0.42522 0.0
H226 H 0.07873 0.68475 0.58691 0.0
H227 H 0.04388 0.67127 0.64763 0.0
C228 C 0.3201 0.96216 0.95071 0.0
C229 C 0.33534 0.00224 0.93327 0.0
C230 C 0.33943 0.0207 0.04586 0.0
C231 C 0.32259 0.98032 0.06339 0.0
N232 N 0.28522 0.91191 0.03065 0.0
N233 N 0.34651 0.06671 0.9626 0.0
C234 C 0.30911 0.9508 0.01515 0.0
C235 C 0.34071 0.03055 0.98041 0.0
N236 N 0.31832 0.93528 0.9072 0.0
N237 N 0.35673 0.04998 0.09047 0.0
H238 H 0.34591 0.07421 0.91499 0.0
H239 H 0.34721 0.08724 0.99508 0.0
H240 H 0.35842 0.04474 0.13871 0.0
H241 H 0.37302 0.07983 0.07847 0.0
H242 H 0.31166 0.90679 0.91972 0.0
H243 H 0.3269 0.94225 0.85974 0.0
H244 H 0.27163 0.88967 0.99657 0.0
H245 H 0.2754 0.90247 0.07702 0.0
C246 C 0.29662 0.30749 0.46231 0.0
C247 C 0.32836 0.32891 0.41934 0.0
C248 C 0.37593 0.34774 0.50652 0.0
C249 C 0.34441 0.32488 0.54956 0.0
N250 N 0.2758 0.27578 0.56571 0.0
N251 N 0.39816 0.36105 0.39679 0.0
C252 C 0.30495 0.30268 0.52676 0.0
C253 C 0.36799 0.34608 0.44025 0.0
N254 N 0.25857 0.2921 0.44152 0.0
N255 N 0.41306 0.37314 0.52905 0.0
H256 H 0.3935 0.36085 0.34779 0.0
H257 H 0.4274 0.37026 0.40873 0.0
H258 H 0.42033 0.37664 0.57728 0.0
H259 H 0.43588 0.39381 0.50046 0.0
H260 H 0.23421 0.28051 0.47195 0.0
H261 H 0.25159 0.29258 0.39361 0.0
H262 H 0.2473 0.25604 0.55 0.0
H263 H 0.28099 0.27055 0.61252 0.0
C264 C 0.96189 0.60627 0.98683 0.0
C265 C 0.97139 0.63895 0.946 0.0
C266 C 0.00238 0.68446 0.03586 0.0
C267 C -0.00877 0.65164 0.07685 0.0
N268 N 0.95347 0.58129 0.09481 0.0
N269 N -0.00689 0.70826 0.93403 0.0
C270 C 0.96854 0.61255 0.05345 0.0
C271 C 0.98965 0.67789 0.9711 0.0
N272 N 0.94877 0.56946 0.96169 0.0
N273 N 0.02533 0.72191 0.0589 0.0
H274 H 0.98325 0.70442 0.88695 0.0
H275 H 0.00248 0.73655 0.95137 0.0
H276 H 0.03235 0.72776 0.10715 0.0
H277 H 0.03878 0.74693 0.03002 0.0
H278 H 0.94625 0.54571 0.98804 0.0
H279 H 0.94387 0.56316 0.91322 0.0
H280 H 0.93299 0.55248 0.08147 0.0
H281 H 0.95863 0.58441 0.14379 0.0
C282 C 0.30452 0.98936 0.47015 0.0
C283 C 0.33562 0.99076 0.4332 0.0
C284 C 0.3777 0.00812 0.52772 0.0
C285 C 0.3478 0.00964 0.56399 0.0
N286 N 0.28515 0.00769 0.5688 0.0
N287 N 0.40417 0.0091 0.42286 0.0
C288 C 0.31176 0.00186 0.53502 0.0
C289 C 0.37298 0.00257 0.46085 0.0
N290 N 0.26787 0.97504 0.44372 0.0
N291 N 0.40975 0.01006 0.55765 0.0
H292 H 0.40181 0.00568 0.37344 0.0
H293 H 0.43312 0.02152 0.43937 0.0
H294 H 0.41353 0.01254 0.607 0.0
H295 H 0.43052 0.00514 0.53454 0.0
H296 H 0.2428 0.96899 0.46995 0.0
H297 H 0.26206 0.96696 0.39579 0.0
H298 H 0.26029 0.00657 0.54848 0.0
H299 H 0.28944 0.01654 0.61647 0.0
C300 C 0.36486 0.36983 0.95398 0.0
C301 C 0.33834 0.33439 0.92191 0.0
C302 C 0.29824 0.30949 0.01907 0.0
C303 C 0.3273 0.34308 0.05263 0.0
N304 N 0.39211 0.4014 0.05515 0.0
N305 N 0.28233 0.26826 0.92467 0.0
C306 C 0.36166 0.37227 0.02091 0.0
C307 C 0.30553 0.30359 0.9545 0.0
N308 N 0.39254 0.40161 0.92009 0.0
N309 N 0.26324 0.28402 0.04814 0.0
H310 H 0.28647 0.26319 0.87719 0.0
H311 H 0.26077 0.24319 0.94811 0.0
H312 H 0.25702 0.28736 0.09538 0.0
H313 H 0.23926 0.2614 0.02412 0.0
H314 H 0.4101 0.4295 0.94001 0.0
H315 H 0.39517 0.40126 0.87061 0.0
H316 H 0.41949 0.42111 0.03532 0.0
H317 H 0.39162 0.40342 0.10472 0.0
C318 C -0.00374 0.37489 0.54396 0.0
C319 C 0.98637 0.3386 0.57398 0.0
C320 C 0.0011 0.31497 0.47508 0.0
C321 C 0.00631 0.34939 0.44348 0.0
N322 N 0.00193 0.40888 0.44476 0.0
N323 N 0.9752 0.27219 0.56776 0.0
C324 C 0.00214 0.37857 0.47712 0.0
C325 C 0.98788 0.30811 0.53963 0.0
N326 N 0.00094 0.40622 0.57975 0.0
N327 N 0.00989 0.28955 0.44407 0.0
H328 H 0.96601 0.26644 0.61523 0.0
H329 H 0.97131 0.24739 0.54303 0.0
H330 H 0.01939 0.2936 0.39673 0.0
H331 H 0.01072 0.26622 0.46656 0.0
H332 H 0.01193 0.43459 0.56142 0.0
H333 H -0.00225 0.40488 0.62924 0.0
H334 H -0.0051 0.42869 0.46597 0.0
H335 H 0.00484 0.41199 0.39534 0.0
C336 C 0.68305 0.0048 0.96499 0.0
C337 C 0.6507 -0.0065 0.92289 0.0
C338 C 0.6044 0.96599 0.01217 0.0
C339 C 0.63647 0.97499 0.05402 0.0
N340 N 0.7055 -0.00421 0.06826 0.0
N341 N 0.58043 0.95581 0.90351 0.0
C342 C 0.67568 0.99253 0.02997 0.0
C343 C 0.61133 0.97145 0.94555 0.0
N344 N 0.72081 0.02742 0.94281 0.0
N345 N 0.56763 0.95456 0.03625 0.0
H346 H 0.58411 0.95976 0.85433 0.0
H347 H 0.55141 0.93594 0.91689 0.0
H348 H 0.56122 0.95143 0.08485 0.0
H349 H 0.54437 0.95213 0.0086 0.0
H350 H 0.74552 0.04085 0.97238 0.0
H351 H 0.72723 0.03424 0.89459 0.0
H352 H 0.73388 0.00462 0.05173 0.0
H353 H 0.7011 0.98636 0.11562 0.0
C354 C 0.59812 0.62999 0.48956 0.0
C355 C 0.63006 0.64964 0.4459 0.0
C356 C 0.67711 0.66116 0.53217 0.0
C357 C 0.64528 0.64449 0.57631 0.0
N358 N 0.5763 0.61981 0.5995 0.0
N359 N 0.70027 0.69076 0.42795 0.0
C360 C 0.60609 0.63133 0.55581 0.0
C361 C 0.66973 0.66705 0.46771 0.0
N362 N 0.5602 0.60788 0.46756 0.0
N363 N 0.71435 0.67113 0.55176 0.0
H364 H 0.69609 0.69666 0.38099 0.0
H365 H 0.72949 0.70751 0.4431 0.0
H366 H 0.72129 0.66946 0.59931 0.0
H367 H 0.73782 0.67886 0.52041 0.0
H368 H 0.53641 0.58931 0.4966 0.0
H369 H 0.55286 0.6046 0.41933 0.0
H370 H 0.548 0.61408 0.58767 0.0
H371 H 0.58057 0.6192 0.64846 0.0
C372 C 0.04942 0.54133 0.31082 0.0
C373 C 0.03723 0.55346 0.25572 0.0
C374 C 0.02351 0.49268 0.2002 0.0
C375 C 0.03876 0.48215 0.25345 0.0
N376 N 0.06996 0.49758 0.357 0.0
N377 N 0.01782 0.54422 0.14504 0.0
C378 C 0.05297 0.50691 0.30798 0.0
C379 C 0.02535 0.52996 0.19968 0.0
N380 N 0.05578 0.56172 0.36672 0.0
N381 N 0.00749 0.46711 0.15002 0.0
H382 H 0.01943 0.57164 0.14256 0.0
H383 H 0.01306 0.53052 0.10077 0.0
H384 H 0.00821 0.44087 0.14647 0.0
H385 H -0.00851 0.4707 0.11351 0.0
H386 H 0.06043 0.55202 0.41037 0.0
H387 H 0.05304 0.58684 0.37086 0.0
H388 H 0.08513 0.51672 0.39443 0.0
H389 H 0.07119 0.47155 0.35855 0.0
C390 C 0.50718 0.05519 0.6948 0.0
C391 C 0.48209 0.03965 0.74883 0.0
C392 C 0.5296 0.02496 0.80028 0.0
C393 C 0.55339 0.03808 0.74454 0.0
N394 N 0.56198 0.05889 0.63459 0.0
N395 N 0.46607 0.00498 0.84943 0.0
C396 C 0.54147 0.05144 0.69064 0.0
C397 C 0.49216 0.0228 0.80033 0.0
N398 N 0.49837 0.07373 0.6476 0.0
N399 N 0.54379 0.01671 0.85429 0.0
H400 H 0.43933 0.00479 0.8531 0.0
H401 H 0.46965 0.98814 0.88446 0.0
H402 H 0.57155 0.01901 0.85656 0.0
H403 H 0.52975 0.01093 0.89843 0.0
H404 H 0.51785 0.0898 0.61096 0.0
H405 H 0.47249 0.0753 0.64697 0.0
H406 H 0.55237 0.0645 0.59161 0.0
H407 H 0.587 0.05602 0.62948 0.0
C408 C 0.48606 0.51855 0.303 0.0
C409 C 0.49519 0.54713 0.25434 0.0
C410 C 0.43368 0.50208 0.19844 0.0
C411 C 0.42291 0.47522 0.25012 0.0
N412 N 0.43519 0.45986 0.35605 0.0
N413 N 0.47733 0.5679 0.15746 0.0
C414 C 0.4482 0.48384 0.30351 0.0
C415 C 0.46877 0.53948 0.2027 0.0
N416 N 0.5135 0.52449 0.34866 0.0
N417 N 0.41134 0.49104 0.14401 0.0
H418 H 0.50424 0.59433 0.15533 0.0
H419 H 0.45702 0.56623 0.12367 0.0
H420 H 0.38542 0.46388 0.13898 0.0
H421 H 0.41997 0.50727 0.10184 0.0
H422 H 0.51027 0.50282 0.38095 0.0
H423 H 0.54102 0.55012 0.35154 0.0
H424 H 0.45046 0.46661 0.39912 0.0
H425 H 0.40722 0.43471 0.35874 0.0
C426 C 0.93373 0.48418 0.69997 0.0
C427 C 0.95186 0.51145 0.7507 0.0
C428 C 0.97004 0.46658 0.80316 0.0
C429 C 0.94985 0.43845 0.75414 0.0
N430 N 0.92201 0.42373 0.64829 0.0
N431 N 0.98777 0.53021 0.85012 0.0
C432 C 0.93416 0.44806 0.70049 0.0
C433 C 0.97085 0.50342 0.80163 0.0
N434 N 0.91576 0.49278 0.6515 0.0
N435 N 0.98864 0.45808 0.85075 0.0
H436 H -0.00942 0.55814 0.84941 0.0
H437 H -0.00185 0.52493 0.89247 0.0
H438 H 0.98726 0.43089 0.8552 0.0
H439 H 0.00709 0.47818 0.88477 0.0
H440 H 0.89719 0.47224 0.61797 0.0
H441 H 0.91821 0.52043 0.64585 0.0
H442 H 0.91419 0.43078 0.60489 0.0
H443 H 0.92301 0.39758 0.646 0.0
C444 C 0.44694 0.94374 0.3077 0.0
C445 C 0.4349 0.95614 0.25279 0.0
C446 C 0.49789 0.97463 0.20029 0.0
C447 C 0.50749 0.9572 0.25152 0.0
N448 N 0.49192 0.92491 0.35421 0.0
N449 N 0.44644 0.97994 0.14427 0.0
C450 C 0.48222 0.94172 0.30538 0.0
C451 C 0.45989 0.97115 0.19861 0.0
N452 N 0.42536 0.93539 0.36277 0.0
N453 N 0.52495 -0.00563 0.15319 0.0
H454 H 0.41874 0.97769 0.14092 0.0
H455 H 0.46131 0.98648 0.1008 0.0
H456 H 0.55272 -0.00326 0.15174 0.0
H457 H 0.5213 0.01125 0.11833 0.0
H458 H 0.43469 0.93033 0.40647 0.0
H459 H 0.39946 0.93683 0.36631 0.0
H460 H 0.47248 0.90848 0.39064 0.0
H461 H 0.51908 0.9259 0.35707 0.0
C462 C 0.52562 0.49879 0.69703 0.0
C463 C 0.54819 0.50849 0.75394 0.0
C464 C 0.49953 0.44574 0.80236 0.0
C465 C 0.47629 0.43658 0.74611 0.0
N466 N 0.46258 0.45729 0.64544 0.0
N467 N 0.55393 0.49577 0.86472 0.0
C468 C 0.48779 0.46413 0.69526 0.0
C469 C 0.53443 0.48321 0.80777 0.0
N470 N 0.54124 0.5216 0.64369 0.0
N471 N 0.48817 0.41864 0.85065 0.0
H472 H 0.57949 0.52318 0.87044 0.0
H473 H 0.54321 0.48069 0.90759 0.0
H474 H 0.46116 0.39227 0.85112 0.0
H475 H 0.5062 0.42134 0.88911 0.0
H476 H 0.52816 0.51381 0.59881 0.0
H477 H 0.56916 0.5469 0.64286 0.0
H478 H 0.46756 0.47818 0.61041 0.0
H479 H 0.43491 0.43192 0.64174 0.0
C480 C 0.14589 0.34403 0.30093 0.0
C481 C 0.13337 0.35522 0.24517 0.0
C482 C 0.19084 0.36308 0.18612 0.0
C483 C 0.20358 0.35225 0.24198 0.0
N484 N 0.19068 0.32501 0.34815 0.0
N485 N 0.13776 0.36643 0.13171 0.0
C486 C 0.18007 0.34004 0.29793 0.0
C487 C 0.15402 0.36203 0.18673 0.0
N488 N 0.12644 0.33943 0.3574 0.0
N489 N 0.21443 0.37517 0.13306 0.0
H490 H 0.11057 0.36545 0.13062 0.0
H491 H 0.14932 0.36765 0.08648 0.0
H492 H 0.24048 0.37398 0.1296 0.0
H493 H 0.20931 0.3881 0.09353 0.0
H494 H 0.13666 0.33574 0.40124 0.0
H495 H 0.10107 0.34178 0.36139 0.0
H496 H 0.17283 0.31184 0.38783 0.0
H497 H 0.21633 0.32302 0.34809 0.0
C498 C 0.83152 0.18991 0.79465 0.0
C499 C 0.84166 0.21583 0.74171 0.0
C500 C 0.77993 0.16989 0.68795 0.0
C501 C 0.7704 0.1433 0.73982 0.0
N502 N 0.78894 0.12446 0.8379 0.0
N503 N 0.83062 0.22778 0.63295 0.0
C504 C 0.79697 0.15208 0.7915 0.0
C505 C 0.81729 0.20506 0.68685 0.0
N506 N 0.85357 0.20236 0.84932 0.0
N507 N 0.75311 0.16173 0.64009 0.0
H508 H 0.85821 0.25346 0.63025 0.0
H509 H 0.81613 0.21949 0.58921 0.0
H510 H 0.72626 0.13528 0.63718 0.0
H511 H 0.75631 0.18205 0.60515 0.0
H512 H 0.84514 0.18671 0.89206 0.0
H513 H 0.87904 0.22993 0.85382 0.0
H514 H 0.80929 0.1272 0.87248 0.0
H515 H 0.76271 0.09739 0.83963 0.0
C516 C 0.58554 0.77338 0.30259 0.0
C517 C 0.60638 0.76536 0.25485 0.0
C518 C 0.62542 0.82834 0.20259 0.0
C519 C 0.60663 0.83743 0.25235 0.0
N520 N 0.57507 0.8225 0.35562 0.0
N521 N 0.65224 0.78773 0.1664 0.0
C522 C 0.58823 0.81096 0.30393 0.0
C523 C 0.62842 0.79374 0.20722 0.0
N524 N 0.56334 0.74516 0.34687 0.0
N525 N 0.63837 0.85155 0.14916 0.0
H526 H 0.65437 0.7622 0.16659 0.0
H527 H 0.6724 0.80941 0.13567 0.0
H528 H 0.63582 0.87665 0.14293 0.0
H529 H 0.64824 0.84397 0.10829 0.0
H530 H 0.54338 0.74719 0.37736 0.0
H531 H 0.56329 0.71855 0.35131 0.0
H532 H 0.56554 0.80642 0.39787 0.0
H533 H 0.57673 0.84992 0.3587 0.0
C534 C 0.81174 0.60292 0.6965 0.0
C535 C 0.83807 0.61836 0.74895 0.0
C536 C 0.79529 0.63936 0.80033 0.0
C537 C 0.76701 0.62014 0.75135 0.0
N538 N 0.74658 0.5823 0.65379 0.0
N539 N 0.85281 0.64592 0.85521 0.0
C540 C 0.77472 0.60147 0.6997 0.0
C541 C 0.82954 0.63554 0.80185 0.0
N542 N 0.82284 0.59114 0.64267 0.0
N543 N 0.78935 0.66107 0.84561 0.0
H544 H 0.87775 0.64285 0.85907 0.0
H545 H 0.84556 0.6543 0.89799 0.0
H546 H 0.76385 0.66323 0.84799 0.0
H547 H 0.81098 0.67947 0.87799 0.0
H548 H 0.80704 0.5838 0.60011 0.0
H549 H 0.84969 0.59161 0.6386 0.0
H550 H 0.74814 0.56374 0.61974 0.0
H551 H 0.72048 0.58341 0.65127 0.0
C552 C 0.20601 0.81586 0.30778 0.0
C553 C 0.2145 0.84221 0.25593 0.0
C554 C 0.14981 0.79778 0.20855 0.0
C555 C 0.14302 0.76978 0.25714 0.0
N556 N 0.1647 0.75017 0.35108 0.0
N557 N 0.19688 0.85796 0.15425 0.0
C558 C 0.1712 0.7782 0.30615 0.0
C559 C 0.18687 0.83334 0.20587 0.0
N560 N 0.2303 0.82772 0.35999 0.0
N561 N 0.12093 0.79024 0.16472 0.0
H562 H 0.22334 0.88474 0.15108 0.0
H563 H 0.18027 0.85094 0.11254 0.0
H564 H 0.09461 0.76332 0.16193 0.0
H565 H 0.12191 0.81128 0.13319 0.0
H566 H 0.22369 0.81168 0.40227 0.0
H567 H 0.25567 0.85548 0.36346 0.0
H568 H 0.18619 0.75253 0.38299 0.0
H569 H 0.13833 0.72328 0.35457 0.0
C570 C 0.35111 0.19016 0.69947 0.0
C571 C 0.36427 0.21542 0.75343 0.0
C572 C 0.38052 0.17052 0.80952 0.0
C573 C 0.36657 0.14479 0.75614 0.0
N574 N 0.33308 0.1262 0.65443 0.0
N575 N 0.38352 0.22675 0.86396 0.0
C576 C 0.3498 0.15323 0.7026 0.0
C577 C 0.37671 0.20477 0.80974 0.0
N578 N 0.34213 0.20252 0.64409 0.0
N579 N 0.39776 0.1624 0.85964 0.0
H580 H 0.38045 0.25177 0.86585 0.0
H581 H 0.3888 0.21848 0.90844 0.0
H582 H 0.39896 0.1364 0.86313 0.0
H583 H 0.41282 0.18229 0.89629 0.0
H584 H 0.33697 0.18769 0.60081 0.0
H585 H 0.3425 0.22929 0.63988 0.0
H586 H 0.31614 0.12846 0.61812 0.0
H587 H 0.33392 0.09997 0.6525 0.0
loop_
_geom_bond_atom_site_label_1
_geom_bond_atom_site_label_2
_geom_bond_distance
_geom_bond_site_symmetry_2
_ccdc_geom_bond_type
In0 O1 2.294 . S
In0 O2 2.326 . S
In0 O6 2.266 . S
In0 O7 2.326 1_455 S
In0 O8 2.266 1_455 S
In0 O9 2.326 . S
In0 O11 2.294 1_455 S
In0 O12 2.326 . S
O1 In0 2.294 . S
O1 C10 1.240 . S
O2 In0 2.326 . S
O2 C10 1.252 . S
C3 O6 1.252 . S
C3 O7 1.260 1_455 S
C4 O11 1.240 1_455 S
C4 O12 1.252 . S
C5 O8 1.252 1_455 S
C5 O9 1.260 . S
O6 In0 2.266 . S
O6 C3 1.252 . S
O7 In0 2.326 1_655 S
O7 C3 1.260 1_655 S
O8 In0 2.266 1_655 S
O8 C5 1.252 1_655 S
O9 In0 2.326 . S
O9 C5 1.260 . S
C10 O1 1.240 . S
C10 O2 1.252 . S
O11 In0 2.294 1_655 S
O11 C4 1.240 1_655 S
O12 In0 2.326 . S
O12 C4 1.252 . S
In13 O14 2.294 . S
In13 O15 2.326 . S
In13 O19 2.266 . S
In13 O20 2.326 1_545 S
In13 O21 2.266 1_545 S
In13 O22 2.326 . S
In13 O24 2.294 1_545 S
In13 O25 2.326 . S
O14 In13 2.294 . S
O14 C23 1.240 . S
O15 In13 2.326 . S
O15 C23 1.252 . S
C16 O19 1.252 . S
C16 O20 1.260 1_545 S
C17 O24 1.240 1_545 S
C17 O25 1.252 . S
C18 O21 1.252 1_545 S
C18 O22 1.260 . S
O19 In13 2.266 . S
O19 C16 1.252 . S
O20 In13 2.326 1_565 S
O20 C16 1.260 1_565 S
O21 In13 2.266 1_565 S
O21 C18 1.252 1_565 S
O22 In13 2.326 . S
O22 C18 1.260 . S
C23 O14 1.240 . S
C23 O15 1.252 . S
O24 In13 2.294 1_565 S
O24 C17 1.240 1_565 S
O25 In13 2.326 . S
O25 C17 1.252 . S
In26 O27 2.294 . S
In26 O28 2.326 . S
In26 O32 2.266 . S
In26 O33 2.326 . S
In26 O34 2.266 . S
In26 O35 2.326 . S
In26 O37 2.294 . S
In26 O38 2.326 . S
O27 In26 2.294 . S
O27 C36 1.240 . S
O28 In26 2.326 . S
O28 C36 1.252 . S
C29 O32 1.252 . S
C29 O33 1.260 . S
C30 O37 1.240 . S
C30 O38 1.252 . S
C31 O34 1.252 . S
C31 O35 1.260 . S
O32 In26 2.266 . S
O32 C29 1.252 . S
O33 In26 2.326 . S
O33 C29 1.260 . S
O34 In26 2.266 . S
O34 C31 1.252 . S
O35 In26 2.326 . S
O35 C31 1.260 . S
C36 O27 1.240 . S
C36 O28 1.252 . S
O37 In26 2.294 . S
O37 C30 1.240 . S
O38 In26 2.326 . S
O38 C30 1.252 . S
In39 O40 2.294 . S
In39 O41 2.326 . S
In39 O45 2.266 . S
In39 O46 2.326 1_655 S
In39 O47 2.266 1_655 S
In39 O48 2.326 . S
In39 O50 2.294 1_655 S
In39 O51 2.326 . S
O40 In39 2.294 . S
O40 C49 1.240 . S
O41 In39 2.326 . S
O41 C49 1.252 . S
C42 O45 1.252 . S
C42 O46 1.260 1_655 S
C43 O50 1.240 1_655 S
C43 O51 1.252 . S
C44 O47 1.252 1_655 S
C44 O48 1.260 . S
O45 In39 2.266 . S
O45 C42 1.252 . S
O46 In39 2.326 1_455 S
O46 C42 1.260 1_455 S
O47 In39 2.266 1_455 S
O47 C44 1.252 1_455 S
O48 In39 2.326 . S
O48 C44 1.260 . S
C49 O40 1.240 . S
C49 O41 1.252 . S
O50 In39 2.294 1_455 S
O50 C43 1.240 1_455 S
O51 In39 2.326 . S
O51 C43 1.252 . S
In52 O53 2.294 1_565 S
In52 O54 2.326 . S
In52 O58 2.266 1_565 S
In52 O59 2.326 . S
In52 O60 2.266 . S
In52 O61 2.326 1_565 S
In52 O63 2.294 . S
In52 O64 2.326 . S
O53 In52 2.294 1_545 S
O53 C62 1.240 1_545 S
O54 In52 2.326 . S
O54 C62 1.252 . S
C55 O58 1.252 1_565 S
C55 O59 1.260 . S
C56 O63 1.240 . S
C56 O64 1.252 . S
C57 O60 1.252 . S
C57 O61 1.260 1_565 S
O58 In52 2.266 1_545 S
O58 C55 1.252 1_545 S
O59 In52 2.326 . S
O59 C55 1.260 . S
O60 In52 2.266 . S
O60 C57 1.252 . S
O61 In52 2.326 1_545 S
O61 C57 1.260 1_545 S
C62 O53 1.240 1_565 S
C62 O54 1.252 . S
O63 In52 2.294 . S
O63 C56 1.240 . S
O64 In52 2.326 . S
O64 C56 1.252 . S
In65 O66 2.294 . S
In65 O67 2.326 . S
In65 O71 2.266 . S
In65 O72 2.326 . S
In65 O73 2.266 . S
In65 O74 2.326 . S
In65 O76 2.294 . S
In65 O77 2.326 . S
O66 In65 2.294 . S
O66 C75 1.240 . S
O67 In65 2.326 . S
O67 C75 1.252 . S
C68 O71 1.252 . S
C68 O72 1.260 . S
C69 O76 1.240 . S
C69 O77 1.252 . S
C70 O73 1.252 . S
C70 O74 1.260 . S
O71 In65 2.266 . S
O71 C68 1.252 . S
O72 In65 2.326 . S
O72 C68 1.260 . S
O73 In65 2.266 . S
O73 C70 1.252 . S
O74 In65 2.326 . S
O74 C70 1.260 . S
C75 O66 1.240 . S
C75 O67 1.252 . S
O76 In65 2.294 . S
O76 C69 1.240 . S
O77 In65 2.326 . S
O77 C69 1.252 . S
In78 O79 2.294 . S
In78 O80 2.326 . S
In78 O84 2.266 . S
In78 O85 2.326 1_565 S
In78 O86 2.266 1_565 S
In78 O87 2.326 . S
In78 O89 2.294 1_565 S
In78 O90 2.326 . S
O79 In78 2.294 . S
O79 C88 1.240 . S
O80 In78 2.326 . S
O80 C88 1.252 . S
C81 O84 1.252 . S
C81 O85 1.260 1_565 S
C82 O89 1.240 1_565 S
C82 O90 1.252 . S
C83 O86 1.252 1_565 S
C83 O87 1.260 . S
O84 In78 2.266 . S
O84 C81 1.252 . S
O85 In78 2.326 1_545 S
O85 C81 1.260 1_545 S
O86 In78 2.266 1_545 S
O86 C83 1.252 1_545 S
O87 In78 2.326 . S
O87 C83 1.260 . S
C88 O79 1.240 . S
C88 O80 1.252 . S
O89 In78 2.294 1_545 S
O89 C82 1.240 1_545 S
O90 In78 2.326 . S
O90 C82 1.252 . S
In91 O92 2.294 . S
In91 O93 2.326 . S
In91 O97 2.266 . S
In91 O98 2.326 . S
In91 O99 2.266 . S
In91 O100 2.326 . S
In91 O102 2.294 . S
In91 O103 2.326 . S
O92 In91 2.294 . S
O92 C101 1.240 . S
O93 In91 2.326 . S
O93 C101 1.252 . S
C94 O97 1.252 . S
C94 O98 1.260 . S
C95 O102 1.240 . S
C95 O103 1.252 . S
C96 O99 1.252 . S
C96 O100 1.260 . S
O97 In91 2.266 . S
O97 C94 1.252 . S
O98 In91 2.326 . S
O98 C94 1.260 . S
O99 In91 2.266 . S
O99 C96 1.252 . S
O100 In91 2.326 . S
O100 C96 1.260 . S
C101 O92 1.240 . S
C101 O93 1.252 . S
O102 In91 2.294 . S
O102 C95 1.240 . S
O103 In91 2.326 . S
O103 C95 1.252 . S
In104 O105 2.294 . S
In104 O106 2.326 . S
In104 O110 2.266 . S
In104 O111 2.326 1_455 S
In104 O112 2.266 1_455 S
In104 O113 2.326 . S
In104 O115 2.294 1_455 S
In104 O116 2.326 . S
O105 In104 2.294 . S
O105 C114 1.240 . S
O106 In104 2.326 . S
O106 C114 1.252 . S
C107 O110 1.252 . S
C107 O111 1.260 1_455 S
C108 O115 1.240 1_455 S
C108 O116 1.252 . S
C109 O112 1.252 1_455 S
C109 O113 1.260 . S
O110 In104 2.266 . S
O110 C107 1.252 . S
O111 In104 2.326 1_655 S
O111 C107 1.260 1_655 S
O112 In104 2.266 1_655 S
O112 C109 1.252 1_655 S
O113 In104 2.326 . S
O113 C109 1.260 . S
C114 O105 1.240 . S
C114 O106 1.252 . S
O115 In104 2.294 1_655 S
O115 C108 1.240 1_655 S
O116 In104 2.326 . S
O116 C108 1.252 . S
In117 O118 2.294 . S
In117 O119 2.326 . S
In117 O123 2.266 . S
In117 O124 2.326 1_545 S
In117 O125 2.266 1_545 S
In117 O126 2.326 . S
In117 O128 2.294 1_545 S
In117 O129 2.326 . S
O118 In117 2.294 . S
O118 C127 1.240 . S
O119 In117 2.326 . S
O119 C127 1.252 . S
C120 O123 1.252 . S
C120 O124 1.260 1_545 S
C121 O128 1.240 1_545 S
C121 O129 1.252 . S
C122 O125 1.252 1_545 S
C122 O126 1.260 . S
O123 In117 2.266 . S
O123 C120 1.252 . S
O124 In117 2.326 1_565 S
O124 C120 1.260 1_565 S
O125 In117 2.266 1_565 S
O125 C122 1.252 1_565 S
O126 In117 2.326 . S
O126 C122 1.260 . S
C127 O118 1.240 . S
C127 O119 1.252 . S
O128 In117 2.294 1_565 S
O128 C121 1.240 1_565 S
O129 In117 2.326 . S
O129 C121 1.252 . S
In130 O131 2.294 . S
In130 O132 2.326 . S
In130 O136 2.266 . S
In130 O137 2.326 . S
In130 O138 2.266 . S
In130 O139 2.326 . S
In130 O141 2.294 . S
In130 O142 2.326 . S
O131 In130 2.294 . S
O131 C140 1.240 . S
O132 In130 2.326 . S
O132 C140 1.252 . S
C133 O136 1.252 . S
C133 O137 1.260 . S
C134 O141 1.240 . S
C134 O142 1.252 . S
C135 O138 1.252 . S
C135 O139 1.260 . S
O136 In130 2.266 . S
O136 C133 1.252 . S
O137 In130 2.326 . S
O137 C133 1.260 . S
O138 In130 2.266 . S
O138 C135 1.252 . S
O139 In130 2.326 . S
O139 C135 1.260 . S
C140 O131 1.240 . S
C140 O132 1.252 . S
O141 In130 2.294 . S
O141 C134 1.240 . S
O142 In130 2.326 . S
O142 C134 1.252 . S
In143 O144 2.294 1_655 S
In143 O145 2.326 . S
In143 O149 2.266 1_655 S
In143 O150 2.326 . S
In143 O151 2.266 . S
In143 O152 2.326 1_655 S
In143 O154 2.294 . S
In143 O155 2.326 . S
O144 In143 2.294 1_455 S
O144 C153 1.240 1_455 S
O145 In143 2.326 . S
O145 C153 1.252 . S
C146 O149 1.252 1_655 S
C146 O150 1.260 . S
C147 O154 1.240 . S
C147 O155 1.252 . S
C148 O151 1.252 . S
C148 O152 1.260 1_655 S
O149 In143 2.266 1_455 S
O149 C146 1.252 1_455 S
O150 In143 2.326 . S
O150 C146 1.260 . S
O151 In143 2.266 . S
O151 C148 1.252 . S
O152 In143 2.326 1_455 S
O152 C148 1.260 1_455 S
C153 O144 1.240 1_655 S
C153 O145 1.252 . S
O154 In143 2.294 . S
O154 C147 1.240 . S
O155 In143 2.326 . S
O155 C147 1.252 . S
C156 C157 1.363 . S
C156 C162 1.379 1_554 S
C156 N164 1.356 . S
C157 C156 1.363 . S
C157 C163 1.363 1_455 S
C158 C159 1.363 . S
C158 C163 1.379 1_556 S
C158 N165 1.356 . S
C159 C158 1.363 . S
C159 C162 1.363 1_655 S
N160 C162 1.356 . S
N160 H172 0.984 . S
N160 H173 0.985 . S
N161 C163 1.356 . S
N161 H166 0.985 . S
N161 H167 0.985 . S
C162 C156 1.379 1_556 S
C162 C159 1.363 1_455 S
C162 N160 1.356 . S
C163 C157 1.363 1_655 S
C163 C158 1.379 1_554 S
C163 N161 1.356 . S
N164 C156 1.356 . S
N164 H170 0.984 . S
N164 H171 0.984 . S
N165 C158 1.356 . S
N165 H168 0.984 . S
N165 H169 0.985 . S
H166 N161 0.985 . S
H167 N161 0.985 . S
H168 N165 0.984 . S
H169 N165 0.985 . S
H170 N164 0.984 . S
H171 N164 0.984 . S
H172 N160 0.984 . S
H173 N160 0.985 . S
C174 C175 1.363 . S
C174 C180 1.379 . S
C174 N182 1.356 . S
C175 C174 1.363 . S
C175 C181 1.363 1_565 S
C176 C177 1.363 . S
C176 C181 1.379 . S
C176 N183 1.356 . S
C177 C176 1.363 . S
C177 C180 1.363 1_545 S
N178 C180 1.356 . S
N178 H190 0.984 . S
N178 H191 0.985 . S
N179 C181 1.356 . S
N179 H184 0.984 . S
N179 H185 0.985 . S
C180 C174 1.379 . S
C180 C177 1.363 1_565 S
C180 N178 1.356 . S
C181 C175 1.363 1_545 S
C181 C176 1.379 . S
C181 N179 1.356 . S
N182 C174 1.356 . S
N182 H188 0.984 . S
N182 H189 0.984 . S
N183 C176 1.356 . S
N183 H186 0.984 . S
N183 H187 0.985 . S
H184 N179 0.984 . S
H185 N179 0.985 . S
H186 N183 0.984 . S
H187 N183 0.985 . S
H188 N182 0.984 . S
H189 N182 0.984 . S
H190 N178 0.984 . S
H191 N178 0.985 . S
C192 C193 1.363 . S
C192 C198 1.379 1_554 S
C192 N200 1.356 . S
C193 C192 1.363 . S
C193 C199 1.363 . S
C194 C195 1.363 . S
C194 C199 1.379 1_556 S
C194 N201 1.356 . S
C195 C194 1.363 . S
C195 C198 1.363 . S
N196 C198 1.356 . S
N196 H208 0.984 . S
N196 H209 0.985 . S
N197 C199 1.356 . S
N197 H202 0.984 . S
N197 H203 0.985 . S
C198 C192 1.379 1_556 S
C198 C195 1.363 . S
C198 N196 1.356 . S
C199 C193 1.363 . S
C199 C194 1.379 1_554 S
C199 N197 1.356 . S
N200 C192 1.356 . S
N200 H206 0.984 . S
N200 H207 0.984 . S
N201 C194 1.356 . S
N201 H204 0.984 . S
N201 H205 0.985 . S
H202 N197 0.984 . S
H203 N197 0.985 . S
H204 N201 0.984 . S
H205 N201 0.985 . S
H206 N200 0.984 . S
H207 N200 0.984 . S
H208 N196 0.984 . S
H209 N196 0.985 . S
C210 C211 1.363 . S
C210 C216 1.379 . S
C210 N218 1.356 . S
C211 C210 1.363 . S
C211 C217 1.363 1_455 S
C212 C213 1.363 . S
C212 C217 1.379 . S
C212 N219 1.356 . S
C213 C212 1.363 . S
C213 C216 1.363 1_655 S
N214 C216 1.356 . S
N214 H226 0.984 . S
N214 H227 0.985 . S
N215 C217 1.356 . S
N215 H220 0.984 . S
N215 H221 0.985 . S
C216 C210 1.379 . S
C216 C213 1.363 1_455 S
C216 N214 1.356 . S
C217 C211 1.363 1_655 S
C217 C212 1.379 . S
C217 N215 1.356 . S
N218 C210 1.356 . S
N218 H224 0.984 . S
N218 H225 0.984 . S
N219 C212 1.356 . S
N219 H222 0.984 . S
N219 H223 0.985 . S
H220 N215 0.984 . S
H221 N215 0.985 . S
H222 N219 0.984 . S
H223 N219 0.985 . S
H224 N218 0.984 . S
H225 N218 0.984 . S
H226 N214 0.984 . S
H227 N214 0.985 . S
C228 C229 1.363 1_565 S
C228 C234 1.379 1_556 S
C228 N236 1.356 . S
C229 C228 1.363 1_545 S
C229 C235 1.363 . S
C230 C231 1.363 1_545 S
C230 C235 1.379 1_554 S
C230 N237 1.356 . S
C231 C230 1.363 1_565 S
C231 C234 1.363 . S
N232 C234 1.356 . S
N232 H244 0.984 . S
N232 H245 0.985 . S
N233 C235 1.356 . S
N233 H238 0.984 . S
N233 H239 0.985 . S
C234 C228 1.379 1_554 S
C234 C231 1.363 . S
C234 N232 1.356 . S
C235 C229 1.363 . S
C235 C230 1.379 1_556 S
C235 N233 1.356 . S
N236 C228 1.356 . S
N236 H242 0.984 . S
N236 H243 0.984 . S
N237 C230 1.356 . S
N237 H240 0.984 . S
N237 H241 0.985 . S
H238 N233 0.984 . S
H239 N233 0.985 . S
H240 N237 0.984 . S
H241 N237 0.985 . S
H242 N236 0.984 . S
H243 N236 0.984 . S
H244 N232 0.984 . S
H245 N232 0.985 . S
C246 C247 1.363 . S
C246 C252 1.379 . S
C246 N254 1.356 . S
C247 C246 1.363 . S
C247 C253 1.363 . S
C248 C249 1.363 . S
C248 C253 1.379 . S
C248 N255 1.356 . S
C249 C248 1.363 . S
C249 C252 1.363 . S
N250 C252 1.356 . S
N250 H262 0.984 . S
N250 H263 0.985 . S
N251 C253 1.356 . S
N251 H256 0.984 . S
N251 H257 0.985 . S
C252 C246 1.379 . S
C252 C249 1.363 . S
C252 N250 1.356 . S
C253 C247 1.363 . S
C253 C248 1.379 . S
C253 N251 1.356 . S
N254 C246 1.356 . S
N254 H260 0.984 . S
N254 H261 0.984 . S
N255 C248 1.356 . S
N255 H258 0.984 . S
N255 H259 0.985 . S
H256 N251 0.984 . S
H257 N251 0.985 . S
H258 N255 0.984 . S
H259 N255 0.985 . S
H260 N254 0.984 . S
H261 N254 0.984 . S
H262 N250 0.984 . S
H263 N250 0.985 . S
C264 C265 1.364 1_655 S
C264 C270 1.379 1_556 S
C264 N272 1.356 . S
C265 C264 1.364 1_455 S
C265 C271 1.362 . S
C266 C267 1.364 1_455 S
C266 C271 1.379 1_554 S
C266 N273 1.356 . S
C267 C266 1.364 1_655 S
C267 C270 1.362 . S
N268 C270 1.356 . S
N268 H280 0.984 . S
N268 H281 0.985 . S
N269 C271 1.356 . S
N269 H274 0.984 . S
N269 H275 0.985 . S
C270 C264 1.379 1_554 S
C270 C267 1.362 . S
C270 N268 1.356 . S
C271 C265 1.362 . S
C271 C266 1.379 1_556 S
C271 N269 1.356 . S
N272 C264 1.356 . S
N272 H278 0.984 . S
N272 H279 0.984 . S
N273 C266 1.356 . S
N273 H276 0.984 . S
N273 H277 0.985 . S
H274 N269 0.984 . S
H275 N269 0.985 . S
H276 N273 0.984 . S
H277 N273 0.985 . S
H278 N272 0.984 . S
H279 N272 0.984 . S
H280 N268 0.984 . S
H281 N268 0.985 . S
C282 C283 1.364 1_565 S
C282 C288 1.379 . S
C282 N290 1.356 . S
C283 C282 1.364 1_545 S
C283 C289 1.362 . S
C284 C285 1.364 1_545 S
C284 C289 1.379 . S
C284 N291 1.356 . S
C285 C284 1.364 1_565 S
C285 C288 1.362 . S
N286 C288 1.356 . S
N286 H298 0.984 . S
N286 H299 0.985 . S
N287 C289 1.356 . S
N287 H292 0.984 . S
N287 H293 0.985 . S
C288 C282 1.379 . S
C288 C285 1.362 . S
C288 N286 1.356 . S
C289 C283 1.362 . S
C289 C284 1.379 . S
C289 N287 1.356 . S
N290 C282 1.356 . S
N290 H296 0.984 . S
N290 H297 0.984 . S
N291 C284 1.356 . S
N291 H294 0.984 . S
N291 H295 0.985 . S
H292 N287 0.984 . S
H293 N287 0.985 . S
H294 N291 0.984 . S
H295 N291 0.985 . S
H296 N290 0.984 . S
H297 N290 0.984 . S
H298 N286 0.984 . S
H299 N286 0.985 . S
C300 C301 1.363 . S
C300 C306 1.379 1_556 S
C300 N308 1.356 . S
C301 C300 1.363 . S
C301 C307 1.363 . S
C302 C303 1.363 . S
C302 C307 1.379 1_554 S
C302 N309 1.356 . S
C303 C302 1.363 . S
C303 C306 1.363 . S
N304 C306 1.356 . S
N304 H316 0.984 . S
N304 H317 0.985 . S
N305 C307 1.356 . S
N305 H310 0.984 . S
N305 H311 0.985 . S
C306 C300 1.379 1_554 S
C306 C303 1.363 . S
C306 N304 1.356 . S
C307 C301 1.363 . S
C307 C302 1.379 1_556 S
C307 N305 1.356 . S
N308 C300 1.356 . S
N308 H314 0.984 . S
N308 H315 0.984 . S
N309 C302 1.356 . S
N309 H312 0.984 . S
N309 H313 0.985 . S
H310 N305 0.984 . S
H311 N305 0.985 . S
H312 N309 0.984 . S
H313 N309 0.985 . S
H314 N308 0.984 . S
H315 N308 0.984 . S
H316 N304 0.984 . S
H317 N304 0.985 . S
C318 C319 1.364 1_655 S
C318 C324 1.379 . S
C318 N326 1.356 . S
C319 C318 1.364 1_455 S
C319 C325 1.362 . S
C320 C321 1.364 1_455 S
C320 C325 1.379 . S
C320 N327 1.356 . S
C321 C320 1.364 1_655 S
C321 C324 1.362 . S
N322 C324 1.356 . S
N322 H334 0.984 . S
N322 H335 0.985 . S
N323 C325 1.356 . S
N323 H328 0.984 . S
N323 H329 0.985 . S
C324 C318 1.379 . S
C324 C321 1.362 . S
C324 N322 1.356 . S
C325 C319 1.362 . S
C325 C320 1.379 . S
C325 N323 1.356 . S
N326 C318 1.356 . S
N326 H332 0.984 . S
N326 H333 0.984 . S
N327 C320 1.356 . S
N327 H330 0.984 . S
N327 H331 0.985 . S
H328 N323 0.984 . S
H329 N323 0.985 . S
H330 N327 0.984 . S
H331 N327 0.985 . S
H332 N326 0.984 . S
H333 N326 0.984 . S
H334 N322 0.984 . S
H335 N322 0.985 . S
C336 C337 1.364 1_545 S
C336 C342 1.379 1_556 S
C336 N344 1.356 . S
C337 C336 1.364 1_565 S
C337 C343 1.362 . S
C338 C339 1.364 1_565 S
C338 C343 1.379 1_554 S
C338 N345 1.356 . S
C339 C338 1.364 1_545 S
C339 C342 1.362 . S
N340 C342 1.356 . S
N340 H352 0.984 . S
N340 H353 0.985 . S
N341 C343 1.356 . S
N341 H346 0.984 . S
N341 H347 0.985 . S
C342 C336 1.379 1_554 S
C342 C339 1.362 . S
C342 N340 1.356 . S
C343 C337 1.362 . S
C343 C338 1.379 1_556 S
C343 N341 1.356 . S
N344 C336 1.356 . S
N344 H350 0.984 . S
N344 H351 0.984 . S
N345 C338 1.356 . S
N345 H348 0.984 . S
N345 H349 0.985 . S
H346 N341 0.984 . S
H347 N341 0.985 . S
H348 N345 0.984 . S
H349 N345 0.985 . S
H350 N344 0.984 . S
H351 N344 0.984 . S
H352 N340 0.984 . S
H353 N340 0.985 . S
C354 C355 1.363 . S
C354 C360 1.379 . S
C354 N362 1.356 . S
C355 C354 1.363 . S
C355 C361 1.363 . S
C356 C357 1.363 . S
C356 C361 1.379 . S
C356 N363 1.356 . S
C357 C356 1.363 . S
C357 C360 1.363 . S
N358 C360 1.356 . S
N358 H370 0.984 . S
N358 H371 0.985 . S
N359 C361 1.356 . S
N359 H364 0.984 . S
N359 H365 0.985 . S
C360 C354 1.379 . S
C360 C357 1.363 . S
C360 N358 1.356 . S
C361 C355 1.363 . S
C361 C356 1.379 . S
C361 N359 1.356 . S
N362 C354 1.356 . S
N362 H368 0.984 . S
N362 H369 0.984 . S
N363 C356 1.356 . S
N363 H366 0.984 . S
N363 H367 0.985 . S
H364 N359 0.984 . S
H365 N359 0.985 . S
H366 N363 0.984 . S
H367 N363 0.985 . S
H368 N362 0.984 . S
H369 N362 0.984 . S
H370 N358 0.984 . S
H371 N358 0.985 . S
C372 C373 1.363 . S
C372 C378 1.379 . S
C372 N380 1.356 . S
C373 C372 1.363 . S
C373 C379 1.363 1_455 S
C374 C375 1.363 1_655 S
C374 C379 1.379 . S
C374 N381 1.356 . S
C375 C374 1.363 1_455 S
C375 C378 1.363 . S
N376 C378 1.356 . S
N376 H388 0.984 . S
N376 H389 0.985 . S
N377 C379 1.356 . S
N377 H382 0.984 . S
N377 H383 0.985 . S
C378 C372 1.379 . S
C378 C375 1.363 . S
C378 N376 1.356 . S
C379 C373 1.363 1_655 S
C379 C374 1.379 . S
C379 N377 1.356 . S
N380 C372 1.356 . S
N380 H386 0.984 . S
N380 H387 0.984 . S
N381 C374 1.356 . S
N381 H384 0.984 . S
N381 H385 0.985 . S
H382 N377 0.984 . S
H383 N377 0.985 . S
H384 N381 0.984 . S
H385 N381 0.985 . S
H386 N380 0.984 . S
H387 N380 0.984 . S
H388 N376 0.984 . S
H389 N376 0.985 . S
C390 C391 1.363 . S
C390 C396 1.379 . S
C390 N398 1.356 . S
C391 C390 1.363 . S
C391 C397 1.352 1_545 S
C392 C393 1.359 1_565 S
C392 C397 1.379 . S
C392 N399 1.367 . S
C393 C392 1.359 1_545 S
C393 C396 1.363 . S
N394 C396 1.356 . S
N394 H406 0.984 . S
N394 H407 0.985 . S
N395 C397 1.357 . S
N395 H400 0.984 . S
N395 H401 0.985 . S
C396 C390 1.379 . S
C396 C393 1.363 . S
C396 N394 1.356 . S
C397 C391 1.352 1_565 S
C397 C392 1.379 . S
C397 N395 1.357 . S
N398 C390 1.356 . S
N398 H404 0.984 . S
N398 H405 0.984 . S
N399 C392 1.367 . S
N399 H402 0.984 . S
N399 H403 0.985 . S
H400 N395 0.984 . S
H401 N395 0.985 . S
H402 N399 0.984 . S
H403 N399 0.985 . S
H404 N398 0.984 . S
H405 N398 0.984 . S
H406 N394 0.984 . S
H407 N394 0.985 . S
C408 C409 1.363 . S
C408 C414 1.379 . S
C408 N416 1.356 . S
C409 C408 1.363 . S
C409 C415 1.363 . S
C410 C411 1.363 . S
C410 C415 1.379 . S
C410 N417 1.356 . S
C411 C410 1.363 . S
C411 C414 1.363 . S
N412 C414 1.356 . S
N412 H424 0.984 . S
N412 H425 0.985 . S
N413 C415 1.356 . S
N413 H418 0.984 . S
N413 H419 0.985 . S
C414 C408 1.379 . S
C414 C411 1.363 . S
C414 N412 1.356 . S
C415 C409 1.363 . S
C415 C410 1.379 . S
C415 N413 1.356 . S
N416 C408 1.356 . S
N416 H422 0.984 . S
N416 H423 0.984 . S
N417 C410 1.356 . S
N417 H420 0.984 . S
N417 H421 0.985 . S
H418 N413 0.984 . S
H419 N413 0.985 . S
H420 N417 0.984 . S
H421 N417 0.985 . S
H422 N416 0.984 . S
H423 N416 0.984 . S
H424 N412 0.984 . S
H425 N412 0.985 . S
C426 C427 1.363 . S
C426 C432 1.379 . S
C426 N434 1.356 . S
C427 C426 1.363 . S
C427 C433 1.363 1_655 S
C428 C429 1.363 1_455 S
C428 C433 1.379 . S
C428 N435 1.356 . S
C429 C428 1.363 1_655 S
C429 C432 1.363 . S
N430 C432 1.356 . S
N430 H442 0.984 . S
N430 H443 0.985 . S
N431 C433 1.356 . S
N431 H436 0.984 . S
N431 H437 0.985 . S
C432 C426 1.379 . S
C432 C429 1.363 . S
C432 N430 1.356 . S
C433 C427 1.363 1_455 S
C433 C428 1.379 . S
C433 N431 1.356 . S
N434 C426 1.356 . S
N434 H440 0.984 . S
N434 H441 0.984 . S
N435 C428 1.356 . S
N435 H438 0.984 . S
N435 H439 0.985 . S
H436 N431 0.984 . S
H437 N431 0.985 . S
H438 N435 0.984 . S
H439 N435 0.985 . S
H440 N434 0.984 . S
H441 N434 0.984 . S
H442 N430 0.984 . S
H443 N430 0.985 . S
C444 C445 1.363 . S
C444 C450 1.379 . S
C444 N452 1.356 . S
C445 C444 1.363 . S
C445 C451 1.360 1_565 S
C446 C447 1.357 1_545 S
C446 C451 1.379 . S
C446 N453 1.357 . S
C447 C446 1.357 1_565 S
C447 C450 1.363 . S
N448 C450 1.356 . S
N448 H460 0.984 . S
N448 H461 0.985 . S
N449 C451 1.362 . S
N449 H454 0.984 . S
N449 H455 0.985 . S
C450 C444 1.379 . S
C450 C447 1.363 . S
C450 N448 1.356 . S
C451 C445 1.360 1_545 S
C451 C446 1.379 . S
C451 N449 1.362 . S
N452 C444 1.356 . S
N452 H458 0.984 . S
N452 H459 0.984 . S
N453 C446 1.357 . S
N453 H456 0.984 . S
N453 H457 0.985 . S
H454 N449 0.984 . S
H455 N449 0.985 . S
H456 N453 0.984 . S
H457 N453 0.985 . S
H458 N452 0.984 . S
H459 N452 0.984 . S
H460 N448 0.984 . S
H461 N448 0.985 . S
C462 C463 1.363 . S
C462 C468 1.379 . S
C462 N470 1.356 . S
C463 C462 1.363 . S
C463 C469 1.363 . S
C464 C465 1.363 . S
C464 C469 1.379 . S
C464 N471 1.356 . S
C465 C464 1.363 . S
C465 C468 1.363 . S
N466 C468 1.356 . S
N466 H478 0.984 . S
N466 H479 0.985 . S
N467 C469 1.356 . S
N467 H472 0.984 . S
N467 H473 0.985 . S
C468 C462 1.379 . S
C468 C465 1.363 . S
C468 N466 1.356 . S
C469 C463 1.363 . S
C469 C464 1.379 . S
C469 N467 1.356 . S
N470 C462 1.356 . S
N470 H476 0.984 . S
N470 H477 0.984 . S
N471 C464 1.356 . S
N471 H474 0.984 . S
N471 H475 0.985 . S
H472 N467 0.984 . S
H473 N467 0.985 . S
H474 N471 0.984 . S
H475 N471 0.985 . S
H476 N470 0.984 . S
H477 N470 0.984 . S
H478 N466 0.984 . S
H479 N466 0.985 . S
C480 C481 1.363 . S
C480 C486 1.379 . S
C480 N488 1.356 . S
C481 C480 1.363 . S
C481 C487 1.363 . S
C482 C483 1.363 . S
C482 C487 1.379 . S
C482 N489 1.356 . S
C483 C482 1.363 . S
C483 C486 1.363 . S
N484 C486 1.356 . S
N484 H496 0.984 . S
N484 H497 0.985 . S
N485 C487 1.356 . S
N485 H490 0.984 . S
N485 H491 0.985 . S
C486 C480 1.379 . S
C486 C483 1.363 . S
C486 N484 1.356 . S
C487 C481 1.363 . S
C487 C482 1.379 . S
C487 N485 1.356 . S
N488 C480 1.356 . S
N488 H494 0.984 . S
N488 H495 0.984 . S
N489 C482 1.356 . S
N489 H492 0.984 . S
N489 H493 0.985 . S
H490 N485 0.984 . S
H491 N485 0.985 . S
H492 N489 0.984 . S
H493 N489 0.985 . S
H494 N488 0.984 . S
H495 N488 0.984 . S
H496 N484 0.984 . S
H497 N484 0.985 . S
C498 C499 1.363 . S
C498 C504 1.379 . S
C498 N506 1.356 . S
C499 C498 1.363 . S
C499 C505 1.363 . S
C500 C501 1.363 . S
C500 C505 1.379 . S
C500 N507 1.356 . S
C501 C500 1.363 . S
C501 C504 1.363 . S
N502 C504 1.356 . S
N502 H514 0.984 . S
N502 H515 0.985 . S
N503 C505 1.356 . S
N503 H508 0.984 . S
N503 H509 0.985 . S
C504 C498 1.379 . S
C504 C501 1.363 . S
C504 N502 1.356 . S
C505 C499 1.363 . S
C505 C500 1.379 . S
C505 N503 1.356 . S
N506 C498 1.356 . S
N506 H512 0.984 . S
N506 H513 0.984 . S
N507 C500 1.356 . S
N507 H510 0.984 . S
N507 H511 0.985 . S
H508 N503 0.984 . S
H509 N503 0.985 . S
H510 N507 0.984 . S
H511 N507 0.985 . S
H512 N506 0.984 . S
H513 N506 0.984 . S
H514 N502 0.984 . S
H515 N502 0.985 . S
C516 C517 1.363 . S
C516 C522 1.379 . S
C516 N524 1.356 . S
C517 C516 1.363 . S
C517 C523 1.363 . S
C518 C519 1.363 . S
C518 C523 1.379 . S
C518 N525 1.356 . S
C519 C518 1.363 . S
C519 C522 1.363 . S
N520 C522 1.356 . S
N520 H532 0.984 . S
N520 H533 0.985 . S
N521 C523 1.356 . S
N521 H526 0.984 . S
N521 H527 0.985 . S
C522 C516 1.379 . S
C522 C519 1.363 . S
C522 N520 1.356 . S
C523 C517 1.363 . S
C523 C518 1.379 . S
C523 N521 1.356 . S
N524 C516 1.356 . S
N524 H530 0.984 . S
N524 H531 0.984 . S
N525 C518 1.356 . S
N525 H528 0.984 . S
N525 H529 0.985 . S
H526 N521 0.984 . S
H527 N521 0.985 . S
H528 N525 0.984 . S
H529 N525 0.985 . S
H530 N524 0.984 . S
H531 N524 0.984 . S
H532 N520 0.984 . S
H533 N520 0.985 . S
C534 C535 1.363 . S
C534 C540 1.379 . S
C534 N542 1.356 . S
C535 C534 1.363 . S
C535 C541 1.363 . S
C536 C537 1.363 . S
C536 C541 1.379 . S
C536 N543 1.356 . S
C537 C536 1.363 . S
C537 C540 1.363 . S
N538 C540 1.356 . S
N538 H550 0.984 . S
N538 H551 0.985 . S
N539 C541 1.356 . S
N539 H544 0.984 . S
N539 H545 0.985 . S
C540 C534 1.379 . S
C540 C537 1.363 . S
C540 N538 1.356 . S
C541 C535 1.363 . S
C541 C536 1.379 . S
C541 N539 1.356 . S
N542 C534 1.356 . S
N542 H548 0.984 . S
N542 H549 0.984 . S
N543 C536 1.356 . S
N543 H546 0.984 . S
N543 H547 0.985 . S
H544 N539 0.984 . S
H545 N539 0.985 . S
H546 N543 0.984 . S
H547 N543 0.985 . S
H548 N542 0.984 . S
H549 N542 0.984 . S
H550 N538 0.984 . S
H551 N538 0.985 . S
C552 C553 1.363 . S
C552 C558 1.379 . S
C552 N560 1.356 . S
C553 C552 1.363 . S
C553 C559 1.363 . S
C554 C555 1.363 . S
C554 C559 1.379 . S
C554 N561 1.356 . S
C555 C554 1.363 . S
C555 C558 1.363 . S
N556 C558 1.356 . S
N556 H568 0.984 . S
N556 H569 0.985 . S
N557 C559 1.356 . S
N557 H562 0.984 . S
N557 H563 0.985 . S
C558 C552 1.379 . S
C558 C555 1.363 . S
C558 N556 1.356 . S
C559 C553 1.363 . S
C559 C554 1.379 . S
C559 N557 1.356 . S
N560 C552 1.356 . S
N560 H566 0.984 . S
N560 H567 0.984 . S
N561 C554 1.356 . S
N561 H564 0.984 . S
N561 H565 0.985 . S
H562 N557 0.984 . S
H563 N557 0.985 . S
H564 N561 0.984 . S
H565 N561 0.985 . S
H566 N560 0.984 . S
H567 N560 0.984 . S
H568 N556 0.984 . S
H569 N556 0.985 . S
C570 C571 1.363 . S
C570 C576 1.379 . S
C570 N578 1.356 . S
C571 C570 1.363 . S
C571 C577 1.363 . S
C572 C573 1.363 . S
C572 C577 1.379 . S
C572 N579 1.356 . S
C573 C572 1.363 . S
C573 C576 1.363 . S
N574 C576 1.356 . S
N574 H586 0.984 . S
N574 H587 0.985 . S
N575 C577 1.356 . S
N575 H580 0.984 . S
N575 H581 0.985 . S
C576 C570 1.379 . S
C576 C573 1.363 . S
C576 N574 1.356 . S
C577 C571 1.363 . S
C577 C572 1.379 . S
C577 N575 1.356 . S
N578 C570 1.356 . S
N578 H584 0.984 . S
N578 H585 0.984 . S
N579 C572 1.356 . S
N579 H582 0.984 . S
N579 H583 0.985 . S
H580 N575 0.984 . S
H581 N575 0.985 . S
H582 N579 0.984 . S
H583 N579 0.985 . S
H584 N578 0.984 . S
H585 N578 0.984 . S
H586 N574 0.984 . S
H587 N574 0.985 . S
C157 C4 1.442 . S
C159 C153 1.442 . S
C175 C82 1.442 . S
C177 C17 1.442 . S
C193 C30 1.442 . S
C195 C95 1.442 . S
C211 C108 1.442 . S
C213 C43 1.442 . S
C229 C121 1.442 . S
C231 C62 1.442 . S
C247 C134 1.442 . S
C249 C75 1.442 . S
C265 C44 1.422 1_455 S
C267 C109 1.422 1_655 S
C283 C55 1.422 1_545 S
C285 C122 1.422 1_565 S
C301 C68 1.422 . S
C303 C135 1.422 . S
C319 C146 1.422 1_455 S
C321 C5 1.422 1_655 S
C337 C18 1.422 1_565 S
C339 C83 1.422 1_545 S
C355 C31 1.422 . S
C357 C96 1.422 . S
C373 C107 1.683 . S
C375 C3 1.683 . S
C391 C120 1.683 . S
C393 C16 1.683 . S
C409 C29 1.684 . S
C411 C133 1.684 . S
C427 C42 1.684 . S
C429 C148 1.684 . S
C445 C57 1.684 . S
C447 C81 1.684 . S
C463 C94 1.684 . S
C465 C70 1.684 . S
C481 C10 1.682 . S
C483 C140 1.682 . S
C499 C147 1.682 . S
C501 C23 1.682 . S
C517 C36 1.682 . S
C519 C88 1.682 . S
C535 C49 1.682 . S
C537 C101 1.682 . S
C553 C56 1.682 . S
C555 C114 1.682 . S
C571 C69 1.682 . S
C573 C127 1.682 . S
