# Generated by pormake.
# Topology kag, (6)-cn, num edge types: 1
# Building blocks:
#     Node 0, Type 0, BuildingBlock: LEVNOQ01_clean_sbu_1, # of connection points: 6
#     Node 1, Type 0, BuildingBlock: LEVNOQ01_clean_sbu_1, # of connection points: 6
#     Node 2, Type 0, BuildingBlock: LEVNOQ01_clean_sbu_1, # of connection points: 6
#     Edge 3, Type (0, 0), BuildingBlock: XUDNAN_clean_linker_2, # of connection points: 2
#     Edge 4, Type (0, 0), BuildingBlock: XUDNAN_clean_linker_2, # of connection points: 2
#     Edge 5, Type (0, 0), BuildingBlock: XUDNAN_clean_linker_2, # of connection points: 2
#     Edge 6, Type (0, 0), BuildingBlock: XUDNAN_clean_linker_2, # of connection points: 2
#     Edge 7, Type (0, 0), BuildingBlock: XUDNAN_clean_linker_2, # of connection points: 2
#     Edge 8, Type (0, 0), BuildingBlock: XUDNAN_clean_linker_2, # of connection points: 2
#     Edge 9, Type (0, 0), BuildingBlock: XUDNAN_clean_linker_2, # of connection points: 2
#     Edge 10, Type (0, 0), BuildingBlock: XUDNAN_clean_linker_2, # of connection points: 2
#     Edge 11, Type (0, 0), BuildingBlock: XUDNAN_clean_linker_2, # of connection points: 2
# Relax obj value: 0.109
# Max RMSD: 0.157
# Mean RMSD: 0.150
data_MOF--net-kag--node1-LEVNOQ01_clean_sbu_1--edge1-XUDNAN_clean_linker_2
_symmetry_space_group_name_H-M    P1
_symmetry_Int_Tables_number       1
_symmetry_cell_setting            triclinic
loop_
_symmetry_equiv_pos_as_xyz
'x, y, z'
_cell_length_a     30.96687
_cell_length_b     30.734031
_cell_length_c     15.727512
_cell_angle_alpha  89.623117
_cell_angle_beta   101.79332
_cell_angle_gamma 119.81895
loop_
_atom_site_label
_atom_site_type_symbol
_atom_site_fract_x
_atom_site_fract_y
_atom_site_fract_z
_atom_type_partial_charge
O0 O 0.89965 0.4063 0.92182 0.0
Mg1 Mg 0.92687 0.47963 0.88355 0.0
O2 O 0.96864 0.42198 0.02364 0.0
Mg3 Mg 0.02554 0.50795 0.02721 0.0
O4 O 0.00024 0.50574 0.87877 0.0
O5 O 0.93887 0.49001 0.7602 0.0
O6 O 0.07914 0.59373 0.02493 0.0
O7 O 0.0782 0.47975 0.97557 0.0
Mg8 Mg 0.1023 0.523 0.11506 0.0
O9 O 0.05112 0.51502 0.18521 0.0
O10 O 0.14396 0.58221 0.04194 0.0
O11 O 0.10333 0.45681 0.09814 0.0
O12 O 0.13641 0.55506 0.23892 0.0
C13 C 0.93452 0.53995 0.032 0.0
C14 C 0.9238 0.39125 0.9777 0.0
C15 C -0.0139 0.50454 0.79502 0.0
C16 C 0.12504 0.60989 0.02145 0.0
C17 C 0.09823 0.45558 0.01666 0.0
C18 C 0.09105 0.53807 0.2505 0.0
O19 O 0.91865 0.53284 0.94984 0.0
O20 O 0.96781 0.52846 0.06857 0.0
O21 O 0.60266 0.93448 0.96214 0.0
Mg22 Mg 0.53126 0.92997 0.91704 0.0
O23 O 0.57113 0.94466 0.06627 0.0
Mg24 Mg 0.54802 0.00391 0.00091 0.0
O25 O 0.52854 0.98341 0.84544 0.0
O26 O 0.50407 0.90515 0.78941 0.0
O27 O 0.5295 0.06583 0.95454 0.0
O28 O 0.63281 0.0525 0.98205 0.0
Mg29 Mg 0.6179 0.08588 0.11708 0.0
O30 O 0.55627 0.02706 0.14864 0.0
O31 O 0.59911 0.13175 0.03306 0.0
O32 O 0.67822 0.07287 0.11548 0.0
O33 O 0.61286 0.09748 0.23973 0.0
C34 C 0.4438 0.90445 -0.00275 0.0
C35 C 0.59843 0.92972 0.04 0.0
C36 C 0.51062 0.94946 0.77879 0.0
C37 C 0.55756 0.11341 0.97498 0.0
C38 C 0.67585 0.06767 0.03518 0.0
C39 C 0.5723 0.05329 0.2246 0.0
O40 O 0.46831 0.8855 0.974 0.0
O41 O 0.46368 0.95212 0.00628 0.0
O42 O 0.40284 0.48122 0.83639 0.0
Mg43 Mg 0.47736 0.53319 0.89813 0.0
O44 O 0.41934 0.46097 0.96735 0.0
Mg45 Mg 0.50996 0.48813 -0.0042 0.0
O46 O 0.52866 0.51748 0.85905 0.0
O47 O 0.5114 0.57712 0.8096 0.0
O48 O 0.59225 0.50345 0.03331 0.0
O49 O 0.4867 0.40904 0.92334 0.0
Mg50 Mg 0.49587 0.40749 0.08289 0.0
O51 O 0.50111 0.46886 0.13991 0.0
O52 O 0.57219 0.42801 0.07568 0.0
O53 O 0.42817 0.35923 0.98739 0.0
O54 O 0.48583 0.39906 0.2056 0.0
C55 C 0.52503 0.59877 0.05527 0.0
C56 C 0.38664 0.45716 0.89864 0.0
C57 C 0.53273 0.5508 0.80462 0.0
C58 C 0.6053 0.47154 0.061 0.0
C59 C 0.45094 0.36455 0.92711 0.0
C60 C 0.49476 0.44482 0.20903 0.0
O61 O 0.48665 0.58711 -0.00586 0.0
O62 O 0.54362 0.56992 0.06328 0.0
H63 H 0.96671 0.44341 0.65523 0.0
H64 H 0.08044 0.58813 0.80169 0.0
H65 H 0.12502 0.61099 0.67964 0.0
H66 H 0.0564 0.42855 0.54009 0.0
H67 H 0.00561 0.39806 0.44317 0.0
H68 H -0.00887 0.39018 0.54951 0.0
H69 H 0.92715 0.4214 0.49974 0.0
H70 H 0.94265 0.43138 0.39469 0.0
H71 H 0.94945 0.48279 0.46167 0.0
H72 H 0.14801 0.62178 0.53135 0.0
H73 H 0.1521 0.61749 0.37618 0.0
H74 H 0.01946 0.46664 0.32735 0.0
C75 C 0.00212 0.47915 0.66266 0.0
C76 C 0.02053 0.51411 0.7369 0.0
C77 C 0.06644 0.56078 0.7452 0.0
C78 C 0.09169 0.574 0.67615 0.0
C79 C 0.07065 0.53956 0.60097 0.0
C80 C 0.02755 0.49253 0.59506 0.0
C81 C 0.00953 0.46389 0.50532 0.0
C82 C 0.01607 0.41743 0.5098 0.0
C83 C 0.95392 0.44905 0.46292 0.0
C84 C 0.04676 0.50342 0.4591 0.0
C85 C 0.08266 0.5463 0.51571 0.0
C86 C 0.12048 0.58815 0.48701 0.0
C87 C 0.12223 0.58554 0.39886 0.0
C88 C 0.08562 0.54195 0.34029 0.0
C89 C 0.04726 0.50065 0.3707 0.0
H90 H 0.5954 0.10044 0.38731 0.0
H91 H 0.48638 0.96102 0.21942 0.0
H92 H 0.4455 0.92546 0.34175 0.0
H93 H 0.61979 0.04832 0.56328 0.0
H94 H 0.62568 0.09316 0.64473 0.0
H95 H 0.63795 0.11192 0.54 0.0
H96 H 0.57013 0.13954 0.51825 0.0
H97 H 0.55752 0.12052 0.62339 0.0
H98 H 0.50586 0.09516 0.52701 0.0
H99 H 0.42891 0.89929 0.48572 0.0
H100 H 0.43872 0.88388 0.64052 0.0
H101 H 0.55697 0.04064 0.71612 0.0
C102 C 0.56202 0.06291 0.37544 0.0
C103 C 0.54415 0.03338 0.29401 0.0
C104 C 0.50075 0.98428 0.28135 0.0
C105 C 0.47699 0.96398 0.35023 0.0
C106 C 0.49667 -0.00644 0.43067 0.0
C107 C 0.53794 0.04225 0.44334 0.0
C108 C 0.55643 0.0636 0.53867 0.0
C109 C 0.61328 0.08016 0.57366 0.0
C110 C 0.54689 0.10729 0.55261 0.0
C111 C 0.52183 0.01789 0.57865 0.0
C112 C 0.48662 0.97838 0.51496 0.0
C113 C 0.4553 0.93024 0.53603 0.0
C114 C 0.46144 0.92176 0.62398 0.0
C115 C 0.4986 0.96122 0.68955 0.0
C116 C 0.52761 0.01025 0.66702 0.0
H117 H 0.53736 0.47547 0.72383 0.0
H118 H 0.56782 0.62851 0.70484 0.0
H119 H 0.56983 0.62077 0.55018 0.0
H120 H 0.61188 0.47651 0.55214 0.0
H121 H 0.56467 0.41138 0.51431 0.0
H122 H 0.58074 0.43428 0.62813 0.0
H123 H 0.48487 0.4011 0.61923 0.0
H124 H 0.46847 0.38006 0.50494 0.0
H125 H 0.45113 0.42355 0.54126 0.0
H126 H 0.54833 0.59013 0.39211 0.0
H127 H 0.51852 0.5426 0.2458 0.0
H128 H 0.4998 0.40898 0.3679 0.0
C129 C 0.54732 0.50822 0.68842 0.0
C130 C 0.5523 0.55244 0.72598 0.0
C131 C 0.56389 0.59421 0.67708 0.0
C132 C 0.56503 0.59017 0.58907 0.0
C133 C 0.55529 0.54439 0.5515 0.0
C134 C 0.5483 0.50463 0.60022 0.0
C135 C 0.5326 0.45768 0.54221 0.0
C136 C 0.575 0.44418 0.56026 0.0
C137 C 0.48122 0.41302 0.55255 0.0
C138 C 0.52783 0.47611 0.45325 0.0
C139 C 0.5422 0.52649 0.45985 0.0
C140 C 0.53816 0.55094 0.38609 0.0
C141 C 0.52056 0.5235 0.30331 0.0
C142 C 0.5067 0.47208 0.29528 0.0
C143 C 0.50996 0.44822 0.37155 0.0
H144 H 0.16576 0.42914 0.10125 0.0
H145 H 0.09354 0.44002 0.84129 0.0
H146 H 0.14994 0.42002 0.77952 0.0
H147 H 0.28514 0.4975 0.07556 0.0
H148 H 0.31109 0.4639 0.14127 0.0
H149 H 0.25619 0.46396 0.1615 0.0
H150 H 0.2051 0.36633 0.1412 0.0
H151 H 0.26008 0.3657 0.1211 0.0
H152 H 0.19957 0.33275 0.04235 0.0
H153 H 0.22273 0.41355 0.74976 0.0
H154 H 0.30981 0.43122 0.75399 0.0
H155 H 0.33891 0.43144 0.03574 0.0
C156 C 0.16028 0.42546 0.03088 0.0
C157 C 0.12474 0.4355 0.97586 0.0
C158 C 0.12006 0.43188 0.8845 0.0
C159 C 0.15178 0.42027 0.84899 0.0
C160 C 0.18793 0.41261 0.90582 0.0
C161 C 0.19235 0.41527 -0.00498 0.0
C162 C 0.23983 0.41512 0.04382 0.0
C163 C 0.27512 0.46296 0.10928 0.0
C164 C 0.22527 0.3671 0.0898 0.0
C165 C 0.26335 0.41488 0.96854 0.0
C166 C 0.2318 0.41149 0.88928 0.0
C167 C 0.2473 0.41548 0.81119 0.0
C168 C 0.29703 0.42572 0.81441 0.0
C169 C 0.33127 0.43302 0.8954 0.0
C170 C 0.31335 0.42524 0.97289 0.0
H171 H 0.69015 0.11734 0.89135 0.0
H172 H 0.76999 0.08508 0.11938 0.0
H173 H 0.85121 0.15965 0.10792 0.0
H174 H 0.80711 0.18982 0.78077 0.0
H175 H 0.78528 0.2333 0.74861 0.0
H176 H 0.73951 0.16765 0.75044 0.0
H177 H 0.69848 0.19456 0.85112 0.0
H178 H 0.74489 0.25979 0.85303 0.0
H179 H 0.73725 0.23214 0.95425 0.0
H180 H 0.91484 0.24931 0.10376 0.0
H181 H 0.95791 0.34135 0.09451 0.0
H182 H 0.83561 0.3169 0.8732 0.0
C183 C 0.72533 0.12409 0.93499 0.0
C184 C 0.72404 0.09582 0.00628 0.0
C185 C 0.77042 0.1064 0.06411 0.0
C186 C 0.81676 0.14878 0.05808 0.0
C187 C 0.81601 0.17967 -0.00678 0.0
C188 C 0.77164 0.16698 0.9307 0.0
C189 C 0.77806 0.21094 0.87969 0.0
C190 C 0.77748 0.19974 0.78423 0.0
C191 C 0.7373 0.22516 0.88499 0.0
C192 C 0.83077 0.25133 0.92868 0.0
C193 C 0.85284 0.23246 0.99206 0.0
C194 C 0.89871 0.26423 0.05239 0.0
C195 C 0.92261 0.31651 0.04743 0.0
C196 C 0.90002 0.33638 0.98353 0.0
C197 C 0.85402 0.30302 0.92284 0.0
H198 H 0.53757 0.8545 0.12477 0.0
H199 H 0.68121 0.91925 0.04573 0.0
H200 H 0.6872 0.84381 0.08167 0.0
H201 H 0.56322 0.7727 0.29499 0.0
H202 H 0.49768 0.72246 0.25941 0.0
H203 H 0.51327 0.78735 0.25881 0.0
H204 H 0.46747 0.76924 0.09485 0.0
H205 H 0.45215 0.70485 0.09483 0.0
H206 H 0.48702 0.74316 0.01826 0.0
H207 H 0.66957 0.75649 0.09646 0.0
H208 H 0.62618 0.66364 0.07197 0.0
H209 H 0.48935 0.65206 0.12527 0.0
C210 C 0.57176 0.85397 0.12045 0.0
C211 C 0.6098 0.89321 0.08538 0.0
C212 C 0.65251 0.89011 0.075 0.0
C213 C 0.65618 0.84738 0.09538 0.0
C214 C 0.61662 0.80791 0.12554 0.0
C215 C 0.57513 0.81086 0.13817 0.0
C216 C 0.53284 0.7599 0.15295 0.0
C217 C 0.52639 0.76066 0.24715 0.0
C218 C 0.48195 0.74335 0.08619 0.0
C219 C 0.55506 0.72707 0.13888 0.0
C220 C 0.6045 0.75588 0.12796 0.0
C221 C 0.63142 0.7337 0.10715 0.0
C222 C 0.60657 0.68088 0.09379 0.0
C223 C 0.55479 0.65098 0.09818 0.0
C224 C 0.52935 0.67429 0.12369 0.0
H225 H 0.8847 0.59148 0.98782 0.0
H226 H 0.91036 0.5022 0.18428 0.0
H227 H 0.83222 0.48539 0.22946 0.0
H228 H 0.81613 0.6377 0.11319 0.0
H229 H 0.77404 0.63285 0.01119 0.0
H230 H 0.83944 0.65087 0.01457 0.0
H231 H 0.80682 0.57812 0.89328 0.0
H232 H 0.74147 0.55827 0.89158 0.0
H233 H 0.76389 0.51424 0.91126 0.0
H234 H 0.74097 0.45721 0.22104 0.0
H235 H 0.65012 0.43318 0.18079 0.0
H236 H 0.68308 0.54229 0.99188 0.0
C237 C 0.87541 0.57091 0.0438 0.0
C238 C 0.90343 0.54815 0.08258 0.0
C239 C 0.88986 0.52058 0.15449 0.0
C240 C 0.84519 0.51049 0.18007 0.0
C241 C 0.81555 0.52939 0.1345 0.0
C242 C 0.83106 0.56065 0.06996 0.0
C243 C 0.78939 0.57056 0.02305 0.0
C244 C 0.80572 0.62631 0.04166 0.0
C245 C 0.77454 0.55429 0.92401 0.0
C246 C 0.74666 0.53689 0.06653 0.0
C247 C 0.76271 0.51393 0.13131 0.0
C248 C 0.72847 0.47633 0.1728 0.0
C249 C 0.6768 0.46245 0.14861 0.0
C250 C 0.65978 0.48623 0.08374 0.0
C251 C 0.69532 0.52426 0.0429 0.0
H252 H 0.19383 0.63819 0.92253 0.0
H253 H 0.1335 0.69697 0.0858 0.0
H254 H 0.20574 0.78363 0.08648 0.0
H255 H 0.31637 0.70615 0.02698 0.0
H256 H 0.34385 0.71746 0.93291 0.0
H257 H 0.28228 0.66283 0.92834 0.0
H258 H 0.24158 0.68966 0.79262 0.0
H259 H 0.30358 0.74383 0.79526 0.0
H260 H 0.2501 0.75213 0.79697 0.0
H261 H 0.29366 0.86152 0.08927 0.0
H262 H 0.38379 0.92245 0.08403 0.0
H263 H 0.38316 0.80897 0.92043 0.0
C264 C 0.19484 0.66968 0.95537 0.0
C265 C 0.15842 0.66152 0.00353 0.0
C266 C 0.16088 0.70303 0.04723 0.0
C267 C 0.20185 0.7522 0.04826 0.0
C268 C 0.23897 0.7588 0.00366 0.0
C269 C 0.23491 0.71858 0.95619 0.0
C270 C 0.28168 0.73394 0.92095 0.0
C271 C 0.30753 0.70329 0.95436 0.0
C272 C 0.26842 0.72964 0.82049 0.0
C273 C 0.31402 0.78828 0.95997 0.0
C274 C 0.28889 0.80265 0.00623 0.0
C275 C 0.31325 0.85083 0.05176 0.0
C276 C 0.36438 0.88504 0.04892 0.0
C277 C 0.3904 0.8702 0.00236 0.0
C278 C 0.36449 0.82137 0.95725 0.0
H279 H 0.49706 0.32921 0.04493 0.0
H280 H 0.42714 0.30817 0.76896 0.0
H281 H 0.44626 0.23953 0.74731 0.0
H282 H 0.60117 0.31546 0.01843 0.0
H283 H 0.60278 0.28529 0.11677 0.0
H284 H 0.58053 0.3296 0.10828 0.0
H285 H 0.49509 0.26221 0.14327 0.0
H286 H 0.51701 0.21767 0.1523 0.0
H287 H 0.45742 0.20182 0.07767 0.0
H288 H 0.47072 0.16885 0.76273 0.0
H289 H 0.50447 0.11165 0.80922 0.0
H290 H 0.56535 0.18989 0.07125 0.0
C291 C 0.48565 0.31024 0.97973 0.0
C292 C 0.46019 0.32334 0.90869 0.0
C293 C 0.4463 0.29808 0.82424 0.0
C294 C 0.45704 0.25924 0.81165 0.0
C295 C 0.48248 0.24733 0.88397 0.0
C296 C 0.49709 0.2729 0.96604 0.0
C297 C 0.52589 0.25568 0.03326 0.0
C298 C 0.58084 0.29908 0.07137 0.0
C299 C 0.49712 0.23299 0.10585 0.0
C300 C 0.52521 0.21581 0.9769 0.0
C301 C 0.49942 0.21057 0.8912 0.0
C302 C 0.49163 0.17337 0.82933 0.0
C303 C 0.51079 0.14108 0.8561 0.0
C304 C 0.53835 0.14728 0.94319 0.0
C305 C 0.54563 0.18524 0.00362 0.0
loop_
_geom_bond_atom_site_label_1
_geom_bond_atom_site_label_2
_geom_bond_distance
_geom_bond_site_symmetry_2
_ccdc_geom_bond_type
O0 Mg1 1.990 . S
O0 C14 1.253 . S
Mg1 O0 1.990 . S
Mg1 O4 2.180 1_655 S
Mg1 O5 2.117 . S
Mg1 O19 2.030 . S
O2 Mg3 2.072 1_655 S
O2 C14 1.260 1_554 S
Mg3 O2 2.072 1_455 S
Mg3 O4 2.099 1_554 S
Mg3 O6 2.079 . S
Mg3 O7 2.072 1_554 S
Mg3 O9 2.099 . S
Mg3 O20 2.079 1_455 S
O4 Mg1 2.180 1_455 S
O4 Mg3 2.099 1_556 S
O4 C15 1.279 . S
O5 Mg1 2.117 . S
O5 C15 1.250 1_655 S
O6 Mg3 2.079 . S
O6 C16 1.264 . S
O7 Mg3 2.072 1_556 S
O7 C17 1.260 1_556 S
Mg8 O9 2.180 . S
Mg8 O10 2.030 . S
Mg8 O11 1.990 . S
Mg8 O12 2.117 . S
O9 Mg3 2.099 . S
O9 Mg8 2.180 . S
O9 C18 1.279 . S
O10 Mg8 2.030 . S
O10 C16 1.248 . S
O11 Mg8 1.990 . S
O11 C17 1.253 . S
O12 Mg8 2.117 . S
O12 C18 1.250 . S
C13 O19 1.248 . S
C13 O20 1.264 1_556 S
C14 O0 1.253 . S
C14 O2 1.260 1_556 S
C15 O4 1.279 . S
C15 O5 1.250 1_455 S
C16 O6 1.264 . S
C16 O10 1.248 . S
C17 O7 1.260 1_554 S
C17 O11 1.253 . S
C18 O9 1.279 . S
C18 O12 1.250 . S
O19 Mg1 2.030 . S
O19 C13 1.248 . S
O20 Mg3 2.079 1_655 S
O20 C13 1.264 1_554 S
O21 Mg22 1.990 . S
O21 C35 1.253 1_556 S
Mg22 O21 1.990 . S
Mg22 O25 2.180 . S
Mg22 O26 2.117 . S
Mg22 O40 2.030 . S
O23 Mg24 2.072 1_565 S
O23 C35 1.260 . S
Mg24 O23 2.072 1_545 S
Mg24 O25 2.099 1_544 S
Mg24 O27 2.079 1_554 S
Mg24 O28 2.072 . S
Mg24 O30 2.099 . S
Mg24 O41 2.079 1_545 S
O25 Mg22 2.180 . S
O25 Mg24 2.099 1_566 S
O25 C36 1.279 . S
O26 Mg22 2.117 . S
O26 C36 1.250 . S
O27 Mg24 2.079 1_556 S
O27 C37 1.264 1_556 S
O28 Mg24 2.072 . S
O28 C38 1.260 . S
Mg29 O30 2.180 . S
Mg29 O31 2.030 . S
Mg29 O32 1.990 . S
Mg29 O33 2.117 . S
O30 Mg24 2.099 . S
O30 Mg29 2.180 . S
O30 C39 1.279 . S
O31 Mg29 2.030 . S
O31 C37 1.248 . S
O32 Mg29 1.990 . S
O32 C38 1.253 . S
O33 Mg29 2.117 . S
O33 C39 1.250 . S
C34 O40 1.248 . S
C34 O41 1.264 1_556 S
C35 O21 1.253 1_554 S
C35 O23 1.260 . S
C36 O25 1.279 . S
C36 O26 1.250 . S
C37 O27 1.264 1_554 S
C37 O31 1.248 . S
C38 O28 1.260 . S
C38 O32 1.253 . S
C39 O30 1.279 . S
C39 O33 1.250 . S
O40 Mg22 2.030 . S
O40 C34 1.248 . S
O41 Mg24 2.079 1_565 S
O41 C34 1.264 1_554 S
O42 Mg43 1.990 . S
O42 C56 1.253 . S
Mg43 O42 1.990 . S
Mg43 O46 2.180 . S
Mg43 O47 2.117 . S
Mg43 O61 2.030 . S
O44 Mg45 2.072 . S
O44 C56 1.260 1_554 S
Mg45 O44 2.072 . S
Mg45 O46 2.099 1_554 S
Mg45 O48 2.079 . S
Mg45 O49 2.072 1_554 S
Mg45 O51 2.099 . S
Mg45 O62 2.079 . S
O46 Mg43 2.180 . S
O46 Mg45 2.099 1_556 S
O46 C57 1.279 . S
O47 Mg43 2.117 . S
O47 C57 1.250 . S
O48 Mg45 2.079 . S
O48 C58 1.264 . S
O49 Mg45 2.072 1_556 S
O49 C59 1.260 1_556 S
Mg50 O51 2.180 . S
Mg50 O52 2.030 . S
Mg50 O53 1.990 . S
Mg50 O54 2.117 . S
O51 Mg45 2.099 . S
O51 Mg50 2.180 . S
O51 C60 1.279 . S
O52 Mg50 2.030 . S
O52 C58 1.248 . S
O53 Mg50 1.990 . S
O53 C59 1.253 . S
O54 Mg50 2.117 . S
O54 C60 1.250 . S
C55 O61 1.248 1_554 S
C55 O62 1.264 . S
C56 O42 1.253 . S
C56 O44 1.260 1_556 S
C57 O46 1.279 . S
C57 O47 1.250 . S
C58 O48 1.264 . S
C58 O52 1.248 . S
C59 O49 1.260 1_554 S
C59 O53 1.253 . S
C60 O51 1.279 . S
C60 O54 1.250 . S
O61 Mg43 2.030 . S
O61 C55 1.248 1_556 S
O62 Mg45 2.079 . S
O62 C55 1.264 . S
H63 C75 0.930 . S
H64 C77 0.930 . S
H65 C78 0.930 . S
H66 C82 0.959 . S
H67 C82 0.959 . S
H68 C82 0.961 . S
H69 C83 0.960 . S
H70 C83 0.961 . S
H71 C83 0.959 . S
H72 C86 0.929 . S
H73 C87 0.931 . S
H74 C89 0.930 . S
C75 H63 0.930 . S
C75 C76 1.399 . S
C75 C80 1.399 . S
C76 C75 1.399 . S
C76 C77 1.376 . S
C77 H64 0.930 . S
C77 C76 1.376 . S
C77 C78 1.388 . S
C78 H65 0.930 . S
C78 C77 1.388 . S
C78 C79 1.390 . S
C79 C78 1.390 . S
C79 C80 1.394 . S
C79 C85 1.465 . S
C80 C75 1.399 . S
C80 C79 1.394 . S
C80 C81 1.516 . S
C81 C80 1.516 . S
C81 C82 1.502 . S
C81 C83 1.561 1_455 S
C81 C84 1.526 . S
C82 H66 0.959 . S
C82 H67 0.959 . S
C82 H68 0.961 . S
C82 C81 1.502 . S
C83 H69 0.960 . S
C83 H70 0.961 . S
C83 H71 0.959 . S
C83 C81 1.561 1_655 S
C84 C81 1.526 . S
C84 C85 1.396 . S
C84 C89 1.390 . S
C85 C79 1.465 . S
C85 C84 1.396 . S
C85 C86 1.399 . S
C86 H72 0.929 . S
C86 C85 1.399 . S
C86 C87 1.385 . S
C87 H73 0.931 . S
C87 C86 1.385 . S
C87 C88 1.389 . S
C88 C87 1.389 . S
C88 C89 1.387 . S
C89 H74 0.930 . S
C89 C84 1.390 . S
C89 C88 1.387 . S
H90 C102 0.930 . S
H91 C104 0.930 . S
H92 C105 0.930 . S
H93 C109 0.959 . S
H94 C109 0.959 . S
H95 C109 0.961 . S
H96 C110 0.960 . S
H97 C110 0.961 . S
H98 C110 0.959 . S
H99 C113 0.929 . S
H100 C114 0.931 . S
H101 C116 0.930 . S
C102 H90 0.930 . S
C102 C103 1.399 1_545 S
C102 C107 1.399 . S
C103 C102 1.399 1_565 S
C103 C104 1.376 . S
C104 H91 0.930 . S
C104 C103 1.376 . S
C104 C105 1.388 . S
C105 H92 0.930 . S
C105 C104 1.388 . S
C105 C106 1.390 . S
C106 C105 1.390 . S
C106 C107 1.394 1_565 S
C106 C112 1.465 . S
C107 C102 1.399 . S
C107 C106 1.394 1_545 S
C107 C108 1.516 . S
C108 C107 1.516 . S
C108 C109 1.502 . S
C108 C110 1.561 . S
C108 C111 1.526 . S
C109 H93 0.959 . S
C109 H94 0.959 . S
C109 H95 0.961 . S
C109 C108 1.502 . S
C110 H96 0.960 . S
C110 H97 0.961 . S
C110 H98 0.959 . S
C110 C108 1.561 . S
C111 C108 1.526 . S
C111 C112 1.396 1_545 S
C111 C116 1.390 . S
C112 C106 1.465 . S
C112 C111 1.396 1_565 S
C112 C113 1.399 . S
C113 H99 0.929 . S
C113 C112 1.399 . S
C113 C114 1.385 . S
C114 H100 0.931 . S
C114 C113 1.385 . S
C114 C115 1.389 1_565 S
C115 C114 1.389 1_545 S
C115 C116 1.387 . S
C116 H101 0.930 . S
C116 C111 1.390 . S
C116 C115 1.387 . S
H117 C129 0.930 . S
H118 C131 0.930 . S
H119 C132 0.930 . S
H120 C136 0.959 . S
H121 C136 0.959 . S
H122 C136 0.961 . S
H123 C137 0.960 . S
H124 C137 0.961 . S
H125 C137 0.959 . S
H126 C140 0.929 . S
H127 C141 0.931 . S
H128 C143 0.930 . S
C129 H117 0.930 . S
C129 C130 1.399 . S
C129 C134 1.399 . S
C130 C129 1.399 . S
C130 C131 1.376 . S
C131 H118 0.930 . S
C131 C130 1.376 . S
C131 C132 1.388 . S
C132 H119 0.930 . S
C132 C131 1.388 . S
C132 C133 1.390 . S
C133 C132 1.390 . S
C133 C134 1.394 . S
C133 C139 1.465 . S
C134 C129 1.399 . S
C134 C133 1.394 . S
C134 C135 1.516 . S
C135 C134 1.516 . S
C135 C136 1.502 . S
C135 C137 1.561 . S
C135 C138 1.526 . S
C136 H120 0.959 . S
C136 H121 0.959 . S
C136 H122 0.961 . S
C136 C135 1.502 . S
C137 H123 0.960 . S
C137 H124 0.961 . S
C137 H125 0.959 . S
C137 C135 1.561 . S
C138 C135 1.526 . S
C138 C139 1.396 . S
C138 C143 1.390 . S
C139 C133 1.465 . S
C139 C138 1.396 . S
C139 C140 1.399 . S
C140 H126 0.929 . S
C140 C139 1.399 . S
C140 C141 1.385 . S
C141 H127 0.931 . S
C141 C140 1.385 . S
C141 C142 1.389 . S
C142 C141 1.389 . S
C142 C143 1.387 . S
C143 H128 0.930 . S
C143 C138 1.390 . S
C143 C142 1.387 . S
H144 C156 0.930 . S
H145 C158 0.930 . S
H146 C159 0.930 . S
H147 C163 0.959 . S
H148 C163 0.959 . S
H149 C163 0.961 . S
H150 C164 0.960 . S
H151 C164 0.961 . S
H152 C164 0.959 . S
H153 C167 0.929 . S
H154 C168 0.931 . S
H155 C170 0.930 . S
C156 H144 0.930 . S
C156 C157 1.399 . S
C156 C161 1.399 . S
C157 C156 1.399 . S
C157 C158 1.376 1_554 S
C158 H145 0.930 . S
C158 C157 1.376 1_556 S
C158 C159 1.388 . S
C159 H146 0.930 . S
C159 C158 1.388 . S
C159 C160 1.390 . S
C160 C159 1.390 . S
C160 C161 1.394 1_556 S
C160 C166 1.465 . S
C161 C156 1.399 . S
C161 C160 1.394 1_554 S
C161 C162 1.516 . S
C162 C161 1.516 . S
C162 C163 1.502 . S
C162 C164 1.561 . S
C162 C165 1.526 . S
C163 H147 0.959 . S
C163 H148 0.959 . S
C163 H149 0.961 . S
C163 C162 1.502 . S
C164 H150 0.960 . S
C164 H151 0.961 . S
C164 H152 0.959 . S
C164 C162 1.561 . S
C165 C162 1.526 . S
C165 C166 1.396 1_554 S
C165 C170 1.390 . S
C166 C160 1.465 . S
C166 C165 1.396 1_556 S
C166 C167 1.399 . S
C167 H153 0.929 . S
C167 C166 1.399 . S
C167 C168 1.385 . S
C168 H154 0.931 . S
C168 C167 1.385 . S
C168 C169 1.389 1_556 S
C169 C168 1.389 1_554 S
C169 C170 1.387 . S
C170 H155 0.930 . S
C170 C165 1.390 . S
C170 C169 1.387 . S
H171 C183 0.930 . S
H172 C185 0.930 . S
H173 C186 0.930 . S
H174 C190 0.959 . S
H175 C190 0.959 . S
H176 C190 0.961 . S
H177 C191 0.960 . S
H178 C191 0.961 . S
H179 C191 0.959 . S
H180 C194 0.929 . S
H181 C195 0.931 . S
H182 C197 0.930 . S
C183 H171 0.930 . S
C183 C184 1.399 1_556 S
C183 C188 1.399 . S
C184 C183 1.399 1_554 S
C184 C185 1.376 . S
C185 H172 0.930 . S
C185 C184 1.376 . S
C185 C186 1.388 . S
C186 H173 0.930 . S
C186 C185 1.388 . S
C186 C187 1.390 . S
C187 C186 1.390 . S
C187 C188 1.394 1_554 S
C187 C193 1.465 . S
C188 C183 1.399 . S
C188 C187 1.394 1_556 S
C188 C189 1.516 . S
C189 C188 1.516 . S
C189 C190 1.502 . S
C189 C191 1.561 . S
C189 C192 1.526 . S
C190 H174 0.959 . S
C190 H175 0.959 . S
C190 H176 0.961 . S
C190 C189 1.502 . S
C191 H177 0.960 . S
C191 H178 0.961 . S
C191 H179 0.959 . S
C191 C189 1.561 . S
C192 C189 1.526 . S
C192 C193 1.396 1_556 S
C192 C197 1.390 . S
C193 C187 1.465 . S
C193 C192 1.396 1_554 S
C193 C194 1.399 . S
C194 H180 0.929 . S
C194 C193 1.399 . S
C194 C195 1.385 . S
C195 H181 0.931 . S
C195 C194 1.385 . S
C195 C196 1.389 . S
C196 C195 1.389 . S
C196 C197 1.387 1_554 S
C197 H182 0.930 . S
C197 C192 1.390 . S
C197 C196 1.387 1_556 S
H198 C210 0.930 . S
H199 C212 0.930 . S
H200 C213 0.930 . S
H201 C217 0.959 . S
H202 C217 0.959 . S
H203 C217 0.961 . S
H204 C218 0.960 . S
H205 C218 0.961 . S
H206 C218 0.959 . S
H207 C221 0.929 . S
H208 C222 0.931 . S
H209 C224 0.930 . S
C210 H198 0.930 . S
C210 C211 1.399 . S
C210 C215 1.399 . S
C211 C210 1.399 . S
C211 C212 1.376 1_554 S
C212 H199 0.930 . S
C212 C211 1.376 1_556 S
C212 C213 1.388 . S
C213 H200 0.930 . S
C213 C212 1.388 . S
C213 C214 1.390 1_556 S
C214 C213 1.390 1_554 S
C214 C215 1.394 . S
C214 C220 1.465 . S
C215 C210 1.399 . S
C215 C214 1.394 . S
C215 C216 1.516 . S
C216 C215 1.516 . S
C216 C217 1.502 . S
C216 C218 1.561 . S
C216 C219 1.526 . S
C217 H201 0.959 . S
C217 H202 0.959 . S
C217 H203 0.961 . S
C217 C216 1.502 . S
C218 H204 0.960 . S
C218 H205 0.961 . S
C218 H206 0.959 . S
C218 C216 1.561 . S
C219 C216 1.526 . S
C219 C220 1.396 . S
C219 C224 1.390 . S
C220 C214 1.465 . S
C220 C219 1.396 . S
C220 C221 1.399 1_554 S
C221 H207 0.929 . S
C221 C220 1.399 1_556 S
C221 C222 1.385 . S
C222 H208 0.931 . S
C222 C221 1.385 . S
C222 C223 1.389 1_556 S
C223 C222 1.389 1_554 S
C223 C224 1.387 . S
C224 H209 0.930 . S
C224 C219 1.390 . S
C224 C223 1.387 . S
H225 C237 0.930 . S
H226 C239 0.930 . S
H227 C240 0.930 . S
H228 C244 0.959 . S
H229 C244 0.959 . S
H230 C244 0.961 . S
H231 C245 0.960 . S
H232 C245 0.961 . S
H233 C245 0.959 . S
H234 C248 0.929 . S
H235 C249 0.931 . S
H236 C251 0.930 . S
C237 H225 0.930 . S
C237 C238 1.399 . S
C237 C242 1.399 . S
C238 C237 1.399 . S
C238 C239 1.376 1_554 S
C239 H226 0.930 . S
C239 C238 1.376 1_556 S
C239 C240 1.388 . S
C240 H227 0.930 . S
C240 C239 1.388 . S
C240 C241 1.390 . S
C241 C240 1.390 . S
C241 C242 1.394 1_556 S
C241 C247 1.465 . S
C242 C237 1.399 . S
C242 C241 1.394 1_554 S
C242 C243 1.516 . S
C243 C242 1.516 . S
C243 C244 1.502 . S
C243 C245 1.561 1_554 S
C243 C246 1.526 . S
C244 H228 0.959 . S
C244 H229 0.959 . S
C244 H230 0.961 . S
C244 C243 1.502 . S
C245 H231 0.960 . S
C245 H232 0.961 . S
C245 H233 0.959 . S
C245 C243 1.561 1_556 S
C246 C243 1.526 . S
C246 C247 1.396 1_554 S
C246 C251 1.390 . S
C247 C241 1.465 . S
C247 C246 1.396 1_556 S
C247 C248 1.399 . S
C248 H234 0.929 . S
C248 C247 1.399 . S
C248 C249 1.385 . S
C249 H235 0.931 . S
C249 C248 1.385 . S
C249 C250 1.389 1_556 S
C250 C249 1.389 1_554 S
C250 C251 1.387 . S
C251 H236 0.930 . S
C251 C246 1.390 . S
C251 C250 1.387 . S
H252 C264 0.930 . S
H253 C266 0.930 . S
H254 C267 0.930 . S
H255 C271 0.959 . S
H256 C271 0.959 . S
H257 C271 0.961 . S
H258 C272 0.960 . S
H259 C272 0.961 . S
H260 C272 0.959 . S
H261 C275 0.929 . S
H262 C276 0.931 . S
H263 C278 0.930 . S
C264 H252 0.930 . S
C264 C265 1.399 1_556 S
C264 C269 1.399 . S
C265 C264 1.399 1_554 S
C265 C266 1.376 . S
C266 H253 0.930 . S
C266 C265 1.376 . S
C266 C267 1.388 . S
C267 H254 0.930 . S
C267 C266 1.388 . S
C267 C268 1.390 . S
C268 C267 1.390 . S
C268 C269 1.394 1_554 S
C268 C274 1.465 . S
C269 C264 1.399 . S
C269 C268 1.394 1_556 S
C269 C270 1.516 . S
C270 C269 1.516 . S
C270 C271 1.502 . S
C270 C272 1.561 . S
C270 C273 1.526 . S
C271 H255 0.959 . S
C271 H256 0.959 . S
C271 H257 0.961 . S
C271 C270 1.502 . S
C272 H258 0.960 . S
C272 H259 0.961 . S
C272 H260 0.959 . S
C272 C270 1.561 . S
C273 C270 1.526 . S
C273 C274 1.396 1_556 S
C273 C278 1.390 . S
C274 C268 1.465 . S
C274 C273 1.396 1_554 S
C274 C275 1.399 . S
C275 H261 0.929 . S
C275 C274 1.399 . S
C275 C276 1.385 . S
C276 H262 0.931 . S
C276 C275 1.385 . S
C276 C277 1.389 . S
C277 C276 1.389 . S
C277 C278 1.387 1_554 S
C278 H263 0.930 . S
C278 C273 1.390 . S
C278 C277 1.387 1_556 S
H279 C291 0.930 . S
H280 C293 0.930 . S
H281 C294 0.930 . S
H282 C298 0.959 . S
H283 C298 0.959 . S
H284 C298 0.961 . S
H285 C299 0.960 . S
H286 C299 0.961 . S
H287 C299 0.959 . S
H288 C302 0.929 . S
H289 C303 0.931 . S
H290 C305 0.930 . S
C291 H279 0.930 . S
C291 C292 1.399 1_554 S
C291 C296 1.399 . S
C292 C291 1.399 1_556 S
C292 C293 1.376 . S
C293 H280 0.930 . S
C293 C292 1.376 . S
C293 C294 1.388 . S
C294 H281 0.930 . S
C294 C293 1.388 . S
C294 C295 1.390 . S
C295 C294 1.390 . S
C295 C296 1.394 1_556 S
C295 C301 1.465 . S
C296 C291 1.399 . S
C296 C295 1.394 1_554 S
C296 C297 1.516 . S
C297 C296 1.516 . S
C297 C298 1.502 . S
C297 C299 1.561 . S
C297 C300 1.526 . S
C298 H282 0.959 . S
C298 H283 0.959 . S
C298 H284 0.961 . S
C298 C297 1.502 . S
C299 H285 0.960 . S
C299 H286 0.961 . S
C299 H287 0.959 . S
C299 C297 1.561 . S
C300 C297 1.526 . S
C300 C301 1.396 1_554 S
C300 C305 1.390 . S
C301 C295 1.465 . S
C301 C300 1.396 1_556 S
C301 C302 1.399 . S
C302 H288 0.929 . S
C302 C301 1.399 . S
C302 C303 1.385 . S
C303 H289 0.931 . S
C303 C302 1.385 . S
C303 C304 1.389 . S
C304 C303 1.389 . S
C304 C305 1.387 1_556 S
C305 H290 0.930 . S
C305 C300 1.390 . S
C305 C304 1.387 1_554 S
C76 C15 1.279 . S
C88 C18 1.282 . S
C103 C39 1.322 1_565 S
C115 C36 1.207 1_545 S
C130 C57 1.192 . S
C142 C60 1.344 . S
C157 C17 1.223 . S
C169 C56 1.129 1_554 S
C184 C38 1.128 . S
C196 C14 1.208 1_554 S
C211 C35 1.094 . S
C223 C55 1.100 . S
C238 C13 1.080 1_554 S
C250 C58 1.111 . S
C265 C16 1.133 . S
C277 C34 1.180 1_554 S
C292 C59 1.203 1_556 S
C304 C37 1.212 1_556 S
