# Generated by pormake.
# Topology crr, (4)-cn, num edge types: 1
# Building blocks:
#     Node 0, Type 0, BuildingBlock: NAWXER_clean_sbu_0, # of connection points: 4
#     Node 1, Type 0, BuildingBlock: NAWXER_clean_sbu_0, # of connection points: 4
#     Node 2, Type 0, BuildingBlock: NAWXER_clean_sbu_0, # of connection points: 4
#     Node 3, Type 0, BuildingBlock: NAWXER_clean_sbu_0, # of connection points: 4
#     Node 4, Type 0, BuildingBlock: NAWXER_clean_sbu_0, # of connection points: 4
#     Node 5, Type 0, BuildingBlock: NAWXER_clean_sbu_0, # of connection points: 4
#     Node 6, Type 0, BuildingBlock: NAWXER_clean_sbu_0, # of connection points: 4
#     Node 7, Type 0, BuildingBlock: NAWXER_clean_sbu_0, # of connection points: 4
#     Node 8, Type 0, BuildingBlock: NAWXER_clean_sbu_0, # of connection points: 4
#     Node 9, Type 0, BuildingBlock: NAWXER_clean_sbu_0, # of connection points: 4
#     Node 10, Type 0, BuildingBlock: NAWXER_clean_sbu_0, # of connection points: 4
#     Node 11, Type 0, BuildingBlock: NAWXER_clean_sbu_0, # of connection points: 4
#     Edge 12, Type (0, 0), BuildingBlock: AJUNOK_clean_linker_0, # of connection points: 2
#     Edge 13, Type (0, 0), BuildingBlock: AJUNOK_clean_linker_0, # of connection points: 2
#     Edge 14, Type (0, 0), BuildingBlock: AJUNOK_clean_linker_0, # of connection points: 2
#     Edge 15, Type (0, 0), BuildingBlock: AJUNOK_clean_linker_0, # of connection points: 2
#     Edge 16, Type (0, 0), BuildingBlock: AJUNOK_clean_linker_0, # of connection points: 2
#     Edge 17, Type (0, 0), BuildingBlock: AJUNOK_clean_linker_0, # of connection points: 2
#     Edge 18, Type (0, 0), BuildingBlock: AJUNOK_clean_linker_0, # of connection points: 2
#     Edge 19, Type (0, 0), BuildingBlock: AJUNOK_clean_linker_0, # of connection points: 2
#     Edge 20, Type (0, 0), BuildingBlock: AJUNOK_clean_linker_0, # of connection points: 2
#     Edge 21, Type (0, 0), BuildingBlock: AJUNOK_clean_linker_0, # of connection points: 2
#     Edge 22, Type (0, 0), BuildingBlock: AJUNOK_clean_linker_0, # of connection points: 2
#     Edge 23, Type (0, 0), BuildingBlock: AJUNOK_clean_linker_0, # of connection points: 2
#     Edge 24, Type (0, 0), BuildingBlock: AJUNOK_clean_linker_0, # of connection points: 2
#     Edge 25, Type (0, 0), BuildingBlock: AJUNOK_clean_linker_0, # of connection points: 2
#     Edge 26, Type (0, 0), BuildingBlock: AJUNOK_clean_linker_0, # of connection points: 2
#     Edge 27, Type (0, 0), BuildingBlock: AJUNOK_clean_linker_0, # of connection points: 2
#     Edge 28, Type (0, 0), BuildingBlock: AJUNOK_clean_linker_0, # of connection points: 2
#     Edge 29, Type (0, 0), BuildingBlock: AJUNOK_clean_linker_0, # of connection points: 2
#     Edge 30, Type (0, 0), BuildingBlock: AJUNOK_clean_linker_0, # of connection points: 2
#     Edge 31, Type (0, 0), BuildingBlock: AJUNOK_clean_linker_0, # of connection points: 2
#     Edge 32, Type (0, 0), BuildingBlock: AJUNOK_clean_linker_0, # of connection points: 2
#     Edge 33, Type (0, 0), BuildingBlock: AJUNOK_clean_linker_0, # of connection points: 2
#     Edge 34, Type (0, 0), BuildingBlock: AJUNOK_clean_linker_0, # of connection points: 2
#     Edge 35, Type (0, 0), BuildingBlock: AJUNOK_clean_linker_0, # of connection points: 2
# Relax obj value: 0.065
# Max RMSD: 0.110
# Mean RMSD: 0.110
data_MOF--net-crr--node1-NAWXER_clean_sbu_0--edge1-AJUNOK_clean_linker_0
_symmetry_space_group_name_H-M    P1
_symmetry_Int_Tables_number       1
_symmetry_cell_setting            triclinic
loop_
_symmetry_equiv_pos_as_xyz
'x, y, z'
_cell_length_a     29.477175
_cell_length_b     29.194156
_cell_length_c     29.250621
_cell_angle_alpha  89.699323
_cell_angle_beta   90.219336
_cell_angle_gamma 89.907919
loop_
_atom_site_label
_atom_site_type_symbol
_atom_site_fract_x
_atom_site_fract_y
_atom_site_fract_z
_atom_type_partial_charge
C0 C 0.09545 0.36189 0.49056 0.0
C1 C 0.18233 0.41197 0.35662 0.0
O2 O 0.12702 0.39155 0.49004 0.0
Zn3 Zn 0.14043 0.38918 0.42487 0.0
O4 O 0.08386 0.34238 0.45324 0.0
Zn5 Zn 0.1015 0.34296 0.38326 0.0
O6 O 0.1241 0.28161 0.37357 0.0
O7 O 0.16994 0.32305 0.41627 0.0
O8 O 0.15156 0.3822 0.34839 0.0
O9 O 0.18822 0.4264 0.39726 0.0
O10 O 0.08073 0.41779 0.39375 0.0
O11 O 0.04618 0.36388 0.35365 0.0
C12 C 0.16109 0.28544 0.39581 0.0
C13 C 0.04803 0.40491 0.36788 0.0
C14 C 0.36076 0.86236 0.70206 0.0
C15 C 0.33576 0.934 0.55166 0.0
O16 O 0.33441 0.89732 0.70389 0.0
Zn17 Zn 0.30747 0.94834 0.65753 0.0
O18 O 0.37844 0.85149 0.66402 0.0
Zn19 Zn 0.35133 0.89884 0.62648 0.0
O20 O 0.38427 0.95873 0.64984 0.0
O21 O 0.33327 0.00583 0.67895 0.0
O22 O 0.36155 0.90019 0.56088 0.0
O23 O 0.31483 0.95412 0.58435 0.0
O24 O 0.24273 0.93637 0.66356 0.0
O25 O 0.28152 0.8815 0.62919 0.0
C26 C 0.37416 0.99678 0.66875 0.0
C27 C 0.24387 0.89779 0.64354 0.0
C28 C 0.94018 0.56564 0.33246 0.0
C29 C 0.86449 0.71314 0.35288 0.0
O30 O 0.95834 0.5981 0.30912 0.0
Zn31 Zn 0.94851 0.67048 0.29718 0.0
O32 O 0.90539 0.57416 0.35655 0.0
Zn33 Zn 0.90097 0.63865 0.3426 0.0
O34 O 0.88175 0.63963 0.27283 0.0
O35 O 0.93433 0.6749 0.23205 0.0
O36 O 0.85441 0.6747 0.37073 0.0
O37 O 0.89818 0.7158 0.32536 0.0
O38 O 0.00527 0.69483 0.32157 0.0
O39 O 0.96004 0.66483 0.37398 0.0
C40 C 0.89646 0.65421 0.23432 0.0
C41 C 0.99693 0.68497 0.36311 0.0
C42 C 0.64315 0.12404 0.75261 0.0
C43 C 0.64805 0.04005 0.608 0.0
O44 O 0.66351 0.08627 0.74559 0.0
Zn45 Zn 0.64869 0.08256 0.68063 0.0
O46 O 0.62322 0.14465 0.71929 0.0
Zn47 Zn 0.61097 0.13553 0.64752 0.0
O48 O 0.54535 0.1346 0.64584 0.0
O49 O 0.57588 0.07592 0.68255 0.0
O50 O 0.62767 0.07875 0.60475 0.0
O51 O 0.66585 0.02829 0.64595 0.0
O52 O 0.68914 0.13767 0.65295 0.0
O53 O 0.64245 0.18682 0.6202 0.0
C54 C 0.54055 0.09765 0.66855 0.0
C55 C 0.68268 0.17542 0.63113 0.0
C56 C 0.17089 0.62105 0.67054 0.0
C57 C 0.09246 0.66946 0.53155 0.0
O58 O 0.17884 0.61002 0.62946 0.0
Zn59 Zn 0.12837 0.64192 0.60077 0.0
O60 O 0.13563 0.64524 0.67925 0.0
Zn61 Zn 0.08086 0.67656 0.64162 0.0
O62 O 0.02694 0.64575 0.66184 0.0
O63 O 0.068 0.6029 0.61588 0.0
O64 O 0.07199 0.68291 0.56784 0.0
O65 O 0.12718 0.64378 0.53522 0.0
O66 O 0.14189 0.71334 0.61451 0.0
O67 O 0.08719 0.73995 0.65874 0.0
C68 C 0.03209 0.60883 0.63984 0.0
C69 C 0.1234 0.74655 0.63626 0.0
C70 C 0.6044 0.95916 0.32654 0.0
C71 C 0.73293 0.85941 0.36423 0.0
O72 O 0.59413 0.9247 0.35174 0.0
Zn73 Zn 0.62659 0.86793 0.38487 0.0
O74 O 0.64519 0.96534 0.31385 0.0
Zn75 Zn 0.67015 0.91149 0.34447 0.0
O76 O 0.63964 0.85576 0.30819 0.0
O77 O 0.59743 0.81538 0.35563 0.0
O78 O 0.73428 0.89571 0.33997 0.0
O79 O 0.69534 0.84697 0.38208 0.0
O80 O 0.6185 0.88238 0.44987 0.0
O81 O 0.66242 0.93166 0.41373 0.0
C82 C 0.61335 0.8216 0.31562 0.0
C83 C 0.64209 0.91888 0.4502 0.0
C84 C 0.84361 0.37982 0.7387 0.0
C85 C 0.96156 0.3414 0.62958 0.0
O86 O 0.83361 0.39204 0.69772 0.0
Zn87 Zn 0.86309 0.38804 0.63084 0.0
O88 O 0.88131 0.35998 0.7466 0.0
Zn89 Zn 0.90241 0.35834 0.68463 0.0
O90 O 0.91601 0.42896 0.67089 0.0
O91 O 0.87247 0.45159 0.61335 0.0
O92 O 0.96147 0.33215 0.67205 0.0
O93 O 0.92709 0.36062 0.61085 0.0
O94 O 0.81855 0.35108 0.59888 0.0
O95 O 0.85378 0.31297 0.65373 0.0
C96 C 0.90322 0.46011 0.64271 0.0
C97 C 0.82356 0.31442 0.62205 0.0
C98 C 0.44571 0.07417 0.31931 0.0
C99 C 0.30871 0.157 0.3673 0.0
O100 O 0.44457 0.10985 0.34413 0.0
Zn101 Zn 0.37899 0.11841 0.34433 0.0
O102 O 0.4085 0.05807 0.3034 0.0
Zn103 Zn 0.33741 0.07089 0.30561 0.0
O104 O 0.32055 0.0881 0.2425 0.0
O105 O 0.36399 0.13922 0.2766 0.0
O106 O 0.30148 0.12255 0.34148 0.0
O107 O 0.34937 0.16734 0.37813 0.0
O108 O 0.35619 0.0604 0.38141 0.0
O109 O 0.31573 0.01518 0.3366 0.0
C110 C 0.34133 0.12633 0.24159 0.0
C111 C 0.33308 0.02388 0.37556 0.0
C112 C 0.29716 0.44221 0.0647 0.0
C113 C 0.31869 0.29104 0.13622 0.0
O114 O 0.32771 0.44213 0.09602 0.0
Zn115 Zn 0.35718 0.39413 0.14343 0.0
O116 O 0.27508 0.40569 0.05673 0.0
Zn117 Zn 0.30517 0.36665 0.1014 0.0
O118 O 0.28313 0.39374 0.16599 0.0
O119 O 0.34338 0.41917 0.20268 0.0
O120 O 0.28881 0.30168 0.1065 0.0
O121 O 0.34498 0.3222 0.15194 0.0
O122 O 0.41926 0.39322 0.12467 0.0
O123 O 0.37284 0.36316 0.0735 0.0
C124 C 0.30087 0.41248 0.20142 0.0
C125 C 0.41306 0.37419 0.08618 0.0
C126 C 0.31118 0.6101 0.80995 0.0
C127 C 0.44332 0.632 0.91175 0.0
O128 O 0.30469 0.63674 0.84396 0.0
Zn129 Zn 0.34013 0.66523 0.90079 0.0
O130 O 0.3502 0.59212 0.80426 0.0
Zn131 Zn 0.37917 0.61965 0.85803 0.0
O132 O 0.34241 0.58741 0.91223 0.0
O133 O 0.30612 0.64002 0.95222 0.0
O134 O 0.44274 0.60856 0.87516 0.0
O135 O 0.40765 0.65381 0.92379 0.0
O136 O 0.33881 0.73049 0.88433 0.0
O137 O 0.37972 0.68924 0.83699 0.0
C138 C 0.31616 0.59817 0.94532 0.0
C139 C 0.36339 0.72804 0.84869 0.0
C140 C 0.61795 0.68084 0.17575 0.0
C141 C 0.66647 0.54069 0.09951 0.0
O142 O 0.60931 0.63951 0.1861 0.0
Zn143 Zn 0.63764 0.61014 0.13435 0.0
O144 O 0.63862 0.68938 0.13806 0.0
Zn145 Zn 0.66744 0.65044 0.08238 0.0
O146 O 0.63265 0.66478 0.02787 0.0
O147 O 0.59376 0.6225 0.0764 0.0
O148 O 0.67679 0.57701 0.07694 0.0
O149 O 0.64228 0.54411 0.13525 0.0
O150 O 0.70853 0.62681 0.14285 0.0
O151 O 0.73035 0.66996 0.08454 0.0
C152 C 0.59663 0.64319 0.03768 0.0
C153 C 0.73969 0.64874 0.12147 0.0
C154 C 0.64958 0.2433 0.90787 0.0
C155 C 0.68738 0.37215 0.00742 0.0
O156 O 0.63238 0.28167 0.8954 0.0
Zn157 Zn 0.63089 0.35087 0.91602 0.0
O158 O 0.67327 0.24114 0.94427 0.0
Zn159 Zn 0.66944 0.3062 0.96031 0.0
O160 O 0.6005 0.31773 0.9801 0.0
O161 O 0.56777 0.36274 0.92879 0.0
O162 O 0.69975 0.33087 0.01445 0.0
O163 O 0.66291 0.38254 0.9727 0.0
O164 O 0.66006 0.38143 0.86564 0.0
O165 O 0.70679 0.33781 0.90585 0.0
C166 C 0.56585 0.34055 0.96625 0.0
C167 C 0.69973 0.36544 0.87233 0.0
C168 C 0.24124 0.25973 0.40809 0.0
C169 C 0.19655 0.24933 0.39415 0.0
C170 C 0.27705 0.2289 0.40128 0.0
C171 C 0.26966 0.18632 0.38045 0.0
H172 H 0.24919 0.29279 0.42268 0.0
H173 H 0.31102 0.23939 0.41085 0.0
S174 S 0.15788 0.13989 0.34351 0.0
N175 N 0.14624 0.19165 0.3626 0.0
N176 N 0.21312 0.13338 0.35024 0.0
C177 C 0.2246 0.17431 0.36894 0.0
C178 C 0.18822 0.20589 0.37566 0.0
C179 C 0.17677 0.85729 0.67602 0.0
C180 C 0.20341 0.8691 0.638 0.0
C181 C 0.14783 0.81907 0.67448 0.0
C182 C 0.14528 0.79182 0.635 0.0
H183 H 0.18112 0.87518 0.7081 0.0
H184 H 0.13013 0.80889 0.70528 0.0
S185 S 0.20113 0.81468 0.52387 0.0
N186 N 0.22012 0.85527 0.55803 0.0
N187 N 0.16599 0.78369 0.55508 0.0
C188 C 0.16843 0.80615 0.59562 0.0
C189 C 0.19747 0.84486 0.59715 0.0
C190 C 0.80479 0.82684 0.33243 0.0
C191 C 0.77207 0.82761 0.36726 0.0
C192 C 0.83608 0.7907 0.32931 0.0
C193 C 0.8357 0.754 0.36084 0.0
H194 H 0.80457 0.85279 0.30583 0.0
H195 H 0.85917 0.79044 0.30059 0.0
S196 S 0.76246 0.74443 0.46329 0.0
N197 N 0.74539 0.79191 0.43757 0.0
N198 N 0.80387 0.72404 0.43145 0.0
C199 C 0.80543 0.75623 0.39774 0.0
C200 C 0.77376 0.79304 0.40104 0.0
C201 C 0.74761 0.28348 0.59839 0.0
C202 C 0.79098 0.27579 0.61729 0.0
C203 C 0.71343 0.25008 0.60115 0.0
C204 C 0.72122 0.20744 0.62266 0.0
H205 H 0.73916 0.31642 0.5834 0.0
H206 H 0.68012 0.25857 0.58778 0.0
S207 S 0.83108 0.16781 0.67175 0.0
N208 N 0.84125 0.22055 0.65402 0.0
N209 N 0.77743 0.15784 0.65897 0.0
C210 C 0.7654 0.19823 0.63898 0.0
C211 C 0.80009 0.23234 0.63637 0.0
C212 C 0.36725 0.22982 0.1699 0.0
C213 C 0.32429 0.24348 0.15368 0.0
C214 C 0.37313 0.18893 0.19432 0.0
C215 C 0.33633 0.15983 0.20369 0.0
H216 H 0.39639 0.252 0.16557 0.0
H217 H 0.40636 0.18148 0.20853 0.0
S218 S 0.21762 0.17727 0.16499 0.0
N219 N 0.24492 0.22255 0.14512 0.0
N220 N 0.256 0.14552 0.1917 0.0
C221 C 0.29381 0.1711 0.1847 0.0
C222 C 0.28777 0.21302 0.15954 0.0
C223 C 0.28294 0.59361 0.73033 0.0
C224 C 0.27376 0.60448 0.77617 0.0
C225 C 0.24886 0.59657 0.69659 0.0
C226 C 0.20433 0.61051 0.70746 0.0
H227 H 0.31716 0.58515 0.71995 0.0
H228 H 0.25813 0.59005 0.66143 0.0
S229 S 0.16108 0.63523 0.82386 0.0
N230 N 0.21547 0.62406 0.83153 0.0
N231 N 0.15193 0.62982 0.76847 0.0
C232 C 0.19409 0.61825 0.75372 0.0
C233 C 0.22863 0.61518 0.78795 0.0
C234 C 0.59809 0.70752 0.25499 0.0
C235 C 0.60909 0.71822 0.20924 0.0
C236 C 0.59665 0.74152 0.2889 0.0
C237 C 0.60622 0.7876 0.27846 0.0
H238 H 0.59262 0.67228 0.26529 0.0
H239 H 0.59038 0.73116 0.32392 0.0
S240 S 0.62927 0.83503 0.16275 0.0
N241 N 0.62419 0.77938 0.1546 0.0
N242 N 0.62145 0.84294 0.21799 0.0
C243 C 0.61408 0.79921 0.23233 0.0
C244 C 0.61552 0.76467 0.19786 0.0
C245 C 0.78052 0.35625 0.8487 0.0
C246 C 0.73745 0.37571 0.84045 0.0
C247 C 0.81552 0.36011 0.81677 0.0
C248 C 0.809 0.38353 0.77517 0.0
H249 H 0.78698 0.33637 0.8794 0.0
H250 H 0.84728 0.34275 0.82405 0.0
S251 S 0.70482 0.44648 0.73973 0.0
N252 N 0.69182 0.42352 0.78966 0.0
N253 N 0.75768 0.43093 0.72961 0.0
C254 C 0.76708 0.40581 0.76773 0.0
C255 C 0.73135 0.40184 0.80037 0.0
C256 C 0.33525 0.83472 0.77926 0.0
C257 C 0.36681 0.83267 0.74317 0.0
C258 C 0.33615 0.8027 0.81533 0.0
C259 C 0.36873 0.76747 0.81676 0.0
H260 H 0.30814 0.8598 0.77855 0.0
H261 H 0.30956 0.80405 0.84075 0.0
S262 S 0.46399 0.7522 0.73533 0.0
N263 N 0.43508 0.79611 0.71452 0.0
N264 N 0.43712 0.73637 0.78221 0.0
C265 C 0.40257 0.76729 0.7828 0.0
C266 C 0.40151 0.7997 0.74604 0.0
C267 C 0.81256 0.68763 0.14284 0.0
C268 C 0.78612 0.64764 0.14028 0.0
C269 C 0.85217 0.68863 0.16985 0.0
C270 C 0.86621 0.64959 0.19456 0.0
H271 H 0.80078 0.71907 0.12689 0.0
H272 H 0.86952 0.72097 0.17453 0.0
S273 S 0.81401 0.53434 0.19099 0.0
N274 N 0.78075 0.5665 0.15851 0.0
N275 N 0.85475 0.56854 0.20916 0.0
C276 C 0.84251 0.60848 0.18837 0.0
C277 C 0.80248 0.60746 0.16122 0.0
C278 C 0.60575 0.17498 0.80863 0.0
C279 C 0.64225 0.14587 0.7982 0.0
C280 C 0.60692 0.20339 0.84687 0.0
C281 C 0.64471 0.20408 0.87633 0.0
H282 H 0.57674 0.17745 0.78586 0.0
H283 H 0.57894 0.22693 0.85194 0.0
S284 S 0.74696 0.13053 0.86728 0.0
N285 N 0.71546 0.11602 0.82281 0.0
N286 N 0.71786 0.17001 0.89496 0.0
C287 C 0.67996 0.17254 0.8685 0.0
C288 C 0.6787 0.14328 0.82931 0.0
C289 C 0.22436 0.42197 0.23598 0.0
C290 C 0.27178 0.42268 0.24143 0.0
C291 C 0.1955 0.42287 0.27375 0.0
C292 C 0.21277 0.4246 0.31859 0.0
H293 H 0.20927 0.41845 0.20235 0.0
H294 H 0.15934 0.41955 0.26783 0.0
S295 S 0.33393 0.43318 0.3516 0.0
N296 N 0.33461 0.43024 0.29522 0.0
N297 N 0.27992 0.43169 0.36637 0.0
C298 C 0.25982 0.42925 0.32458 0.0
C299 C 0.28946 0.42829 0.28593 0.0
C300 C 0.00638 0.30816 0.56655 0.0
C301 C 0.00338 0.33912 0.60277 0.0
C302 C 0.03888 0.31402 0.53224 0.0
C303 C 0.06881 0.35175 0.53235 0.0
H304 H 0.98178 0.2808 0.56331 0.0
H305 H 0.0387 0.29014 0.50402 0.0
S306 S 0.07486 0.44164 0.62141 0.0
N307 N 0.03365 0.40741 0.63852 0.0
N308 N 0.09451 0.41913 0.57369 0.0
C309 C 0.06764 0.38154 0.56999 0.0
C310 C 0.03478 0.37515 0.6052 0.0
C311 C 0.30379 0.01372 0.45375 0.0
C312 C 0.32573 0.99455 0.41592 0.0
C313 C 0.30573 0.99269 0.49681 0.0
C314 C 0.33054 0.95195 0.50411 0.0
H315 H 0.28667 0.04648 0.45047 0.0
H316 H 0.28915 0.00979 0.52497 0.0
S317 S 0.39221 0.8869 0.4148 0.0
N318 N 0.37121 0.93178 0.38727 0.0
N319 N 0.37537 0.89181 0.46839 0.0
C320 C 0.3511 0.93134 0.46585 0.0
C321 C 0.34862 0.95277 0.42172 0.0
C322 C 0.08974 0.65907 0.44649 0.0
C323 C 0.07416 0.6819 0.48582 0.0
C324 C 0.06765 0.66452 0.40421 0.0
C325 C 0.02958 0.69315 0.39999 0.0
H326 H 0.1173 0.63458 0.44888 0.0
H327 H 0.07799 0.64332 0.37578 0.0
S328 S 0.98001 0.76656 0.4897 0.0
N329 N 0.02203 0.7393 0.51563 0.0
N330 N 0.98031 0.74844 0.43633 0.0
C331 C 0.01613 0.71905 0.43775 0.0
C332 C 0.03852 0.71376 0.48068 0.0
C333 C 0.64867 0.96109 0.57342 0.0
C334 C 0.64879 0.00911 0.56783 0.0
C335 C 0.64565 0.93167 0.53545 0.0
C336 C 0.64379 0.94933 0.49063 0.0
H337 H 0.6498 0.94616 0.60739 0.0
H338 H 0.64535 0.89498 0.54116 0.0
S339 S 0.64324 0.07232 0.45747 0.0
N340 N 0.64665 0.07265 0.51379 0.0
N341 N 0.64183 0.01781 0.44294 0.0
C342 C 0.64433 0.99721 0.4847 0.0
C343 C 0.64664 0.02697 0.52313 0.0
C344 C 0.53011 0.06451 0.33025 0.0
C345 C 0.48859 0.04791 0.31283 0.0
C346 C 0.56928 0.03688 0.33096 0.0
C347 C 0.56804 0.99172 0.31464 0.0
H348 H 0.53192 0.09826 0.34531 0.0
H349 H 0.59977 0.04984 0.34711 0.0
S350 S 0.47022 0.93305 0.26129 0.0
N351 N 0.45065 0.9842 0.27481 0.0
N352 N 0.52386 0.93265 0.27761 0.0
C353 C 0.52784 0.97561 0.29489 0.0
C354 C 0.48823 1.00365 0.29351 0.0
C355 C 0.98645 0.54849 0.60068 0.0
C356 C 0.99628 0.57345 0.64054 0.0
C357 C 0.9533 0.51403 0.6007 0.0
C358 C 0.92971 0.50274 0.64084 0.0
H359 H 0.00473 0.55542 0.56933 0.0
H360 H 0.94784 0.49449 0.56977 0.0
S361 S 0.9426 0.55772 0.75396 0.0
N362 N 0.97874 0.58532 0.72075 0.0
N363 N 0.91796 0.51906 0.72117 0.0
C364 C 0.9388 0.5277 0.68068 0.0
C365 C 0.97166 0.56353 0.68042 0.0
C366 C 0.45737 0.09255 0.65007 0.0
C367 C 0.49496 0.07748 0.67609 0.0
C368 C 0.41607 0.06855 0.65091 0.0
C369 C 0.41118 0.029 0.67792 0.0
H370 H 0.46059 0.12138 0.62686 0.0
H371 H 0.38901 0.07912 0.62799 0.0
S372 S 0.49597 0.97935 0.75761 0.0
N373 N 0.52198 0.02362 0.73417 0.0
N374 N 0.44477 0.97842 0.73459 0.0
C375 C 0.44707 0.01556 0.70645 0.0
C376 C 0.48888 0.03991 0.70593 0.0
C377 C 0.9507 0.48874 0.36992 0.0
C378 C 0.96285 0.52015 0.33526 0.0
C379 C 0.97674 0.44926 0.3785 0.0
C380 C 0.01529 0.43958 0.35228 0.0
H381 H 0.92239 0.49588 0.39229 0.0
H382 H 0.96802 0.42746 0.40723 0.0
S383 S 0.05941 0.50725 0.25489 0.0
N384 N 0.01446 0.53612 0.27218 0.0
N385 N 0.06304 0.46203 0.28885 0.0
C386 C 0.02639 0.46893 0.31605 0.0
C387 C 0.00016 0.50915 0.30728 0.0
C388 C 0.30315 0.52698 0.05271 0.0
C389 C 0.292 0.48346 0.03528 0.0
C390 C 0.30704 0.56538 0.02382 0.0
C391 C 0.3009 0.56128 0.97639 0.0
H392 H 0.31078 0.53102 0.08873 0.0
H393 H 0.31801 0.59763 0.03827 0.0
S394 S 0.26731 0.45639 0.91394 0.0
N395 N 0.27106 0.43976 0.96789 0.0
N396 N 0.27968 0.51154 0.9136 0.0
C397 C 0.28732 0.51868 0.95886 0.0
C398 C 0.28244 0.47985 0.98831 0.0
C399 C 0.47697 0.6347 0.99 0.0
C400 C 0.48354 0.63324 0.94235 0.0
C401 C 0.51372 0.63761 0.02043 0.0
C402 C 0.55853 0.64053 0.00444 0.0
H403 H 0.44302 0.63322 0.004 0.0
H404 H 0.50688 0.63829 0.05679 0.0
S405 S 0.59423 0.63782 0.88288 0.0
N406 N 0.53834 0.63404 0.8806 0.0
N407 N 0.60755 0.64103 0.9377 0.0
C408 C 0.56567 0.63921 0.95684 0.0
C409 C 0.52817 0.63509 0.92583 0.0
C410 C 0.66955 0.41227 0.07927 0.0
C411 C 0.69647 0.40905 0.03992 0.0
C412 C 0.6621 0.45473 0.10035 0.0
C413 C 0.68131 0.49522 0.08254 0.0
H414 H 0.65089 0.3827 0.09131 0.0
H415 H 0.63875 0.45615 0.12881 0.0
S416 S 0.76133 0.50249 0.98486 0.0
N417 N 0.74689 0.44793 0.98742 0.0
N418 N 0.73436 0.52756 0.02733 0.0
C419 C 0.71201 0.49129 0.0459 0.0
C420 C 0.71923 0.44819 0.0245 0.0
C421 C 0.44665 0.36571 0.00832 0.0
C422 C 0.4519 0.3641 0.05616 0.0
C423 C 0.48345 0.35733 0.9792 0.0
C424 C 0.5264 0.34579 0.99695 0.0
H425 H 0.41413 0.37458 0.99328 0.0
H426 H 0.47827 0.36008 0.9426 0.0
S427 S 0.55703 0.33498 0.11995 0.0
N428 N 0.50282 0.34919 0.11998 0.0
N429 N 0.57164 0.33223 0.06563 0.0
C430 C 0.53165 0.34288 0.04481 0.0
C431 C 0.4945 0.35241 0.07432 0.0
loop_
_geom_bond_atom_site_label_1
_geom_bond_atom_site_label_2
_geom_bond_distance
_geom_bond_site_symmetry_2
_ccdc_geom_bond_type
C0 O2 1.247 . S
C0 O4 1.254 1_455 S
C1 O8 1.247 . S
C1 O9 1.258 . S
O2 C0 1.247 . S
O2 Zn3 2.028 . S
Zn3 O2 2.028 . S
Zn3 O7 2.035 . S
Zn3 O9 2.035 . S
Zn3 O10 2.028 . S
O4 C0 1.254 1_655 S
O4 Zn5 2.032 1_655 S
Zn5 O4 2.032 1_455 S
Zn5 O6 2.028 . S
Zn5 O8 2.028 . S
Zn5 O11 2.032 1_455 S
O6 Zn5 2.028 . S
O6 C12 1.247 . S
O7 Zn3 2.035 . S
O7 C12 1.258 . S
O8 C1 1.247 . S
O8 Zn5 2.028 . S
O9 C1 1.258 . S
O9 Zn3 2.035 . S
O10 Zn3 2.028 . S
O10 C13 1.247 . S
O11 Zn5 2.032 1_655 S
O11 C13 1.254 1_655 S
C12 O6 1.247 . S
C12 O7 1.258 . S
C13 O10 1.247 . S
C13 O11 1.254 1_455 S
C14 O16 1.247 . S
C14 O18 1.258 . S
C15 O22 1.247 . S
C15 O23 1.254 1_565 S
O16 C14 1.247 . S
O16 Zn17 2.028 . S
Zn17 O16 2.028 . S
Zn17 O21 2.032 1_565 S
Zn17 O23 2.032 1_565 S
Zn17 O24 2.028 . S
O18 C14 1.258 . S
O18 Zn19 2.035 . S
Zn19 O18 2.035 . S
Zn19 O20 2.028 . S
Zn19 O22 2.028 . S
Zn19 O25 2.035 . S
O20 Zn19 2.028 . S
O20 C26 1.247 . S
O21 Zn17 2.032 1_545 S
O21 C26 1.254 1_545 S
O22 C15 1.247 . S
O22 Zn19 2.028 . S
O23 C15 1.254 1_545 S
O23 Zn17 2.032 1_545 S
O24 Zn17 2.028 . S
O24 C27 1.247 . S
O25 Zn19 2.035 . S
O25 C27 1.258 . S
C26 O20 1.247 . S
C26 O21 1.254 1_565 S
C27 O24 1.247 . S
C27 O25 1.258 . S
C28 O30 1.243 1_655 S
C28 O32 1.258 . S
C29 O36 1.247 . S
C29 O37 1.258 . S
O30 C28 1.243 1_455 S
O30 Zn31 2.025 1_455 S
Zn31 O30 2.025 1_655 S
Zn31 O35 2.035 . S
Zn31 O37 2.035 . S
Zn31 O38 2.025 1_655 S
O32 C28 1.258 . S
O32 Zn33 2.035 . S
Zn33 O32 2.035 . S
Zn33 O34 2.028 . S
Zn33 O36 2.028 . S
Zn33 O39 2.035 . S
O34 Zn33 2.028 . S
O34 C40 1.247 . S
O35 Zn31 2.035 . S
O35 C40 1.258 . S
O36 C29 1.247 . S
O36 Zn33 2.028 . S
O37 C29 1.258 . S
O37 Zn31 2.035 . S
O38 Zn31 2.025 1_455 S
O38 C41 1.243 1_455 S
O39 Zn33 2.035 . S
O39 C41 1.258 . S
C40 O34 1.247 . S
C40 O35 1.258 . S
C41 O38 1.243 1_655 S
C41 O39 1.258 . S
C42 O44 1.247 . S
C42 O46 1.258 . S
C43 O50 1.247 . S
C43 O51 1.254 1_545 S
O44 C42 1.247 . S
O44 Zn45 2.028 . S
Zn45 O44 2.028 . S
Zn45 O49 2.032 1_545 S
Zn45 O51 2.032 1_545 S
Zn45 O52 2.028 . S
O46 C42 1.258 . S
O46 Zn47 2.035 . S
Zn47 O46 2.035 . S
Zn47 O48 2.028 . S
Zn47 O50 2.028 . S
Zn47 O53 2.035 . S
O48 Zn47 2.028 . S
O48 C54 1.247 . S
O49 Zn45 2.032 1_565 S
O49 C54 1.254 1_565 S
O50 C43 1.247 . S
O50 Zn47 2.028 . S
O51 C43 1.254 1_565 S
O51 Zn45 2.032 1_565 S
O52 Zn45 2.028 . S
O52 C55 1.247 . S
O53 Zn47 2.035 . S
O53 C55 1.258 . S
C54 O48 1.247 . S
C54 O49 1.254 1_545 S
C55 O52 1.247 . S
C55 O53 1.258 . S
C56 O58 1.247 . S
C56 O60 1.258 . S
C57 O64 1.243 1_455 S
C57 O65 1.258 . S
O58 C56 1.247 . S
O58 Zn59 2.028 . S
Zn59 O58 2.028 . S
Zn59 O63 2.035 . S
Zn59 O65 2.035 . S
Zn59 O66 2.028 . S
O60 C56 1.258 . S
O60 Zn61 2.035 . S
Zn61 O60 2.035 . S
Zn61 O62 2.025 1_455 S
Zn61 O64 2.025 1_455 S
Zn61 O67 2.035 . S
O62 Zn61 2.025 1_655 S
O62 C68 1.243 1_655 S
O63 Zn59 2.035 . S
O63 C68 1.258 . S
O64 C57 1.243 1_655 S
O64 Zn61 2.025 1_655 S
O65 C57 1.258 . S
O65 Zn59 2.035 . S
O66 Zn59 2.028 . S
O66 C69 1.247 . S
O67 Zn61 2.035 . S
O67 C69 1.258 . S
C68 O62 1.243 1_455 S
C68 O63 1.258 . S
C69 O66 1.247 . S
C69 O67 1.258 . S
C70 O72 1.247 . S
C70 O74 1.254 1_565 S
C71 O78 1.247 . S
C71 O79 1.258 . S
O72 C70 1.247 . S
O72 Zn73 2.028 . S
Zn73 O72 2.028 . S
Zn73 O77 2.035 . S
Zn73 O79 2.035 . S
Zn73 O80 2.028 . S
O74 C70 1.254 1_545 S
O74 Zn75 2.032 1_545 S
Zn75 O74 2.032 1_565 S
Zn75 O76 2.028 . S
Zn75 O78 2.028 . S
Zn75 O81 2.032 1_565 S
O76 Zn75 2.028 . S
O76 C82 1.247 . S
O77 Zn73 2.035 . S
O77 C82 1.258 . S
O78 C71 1.247 . S
O78 Zn75 2.028 . S
O79 C71 1.258 . S
O79 Zn73 2.035 . S
O80 Zn73 2.028 . S
O80 C83 1.247 . S
O81 Zn75 2.032 1_545 S
O81 C83 1.254 1_545 S
C82 O76 1.247 . S
C82 O77 1.258 . S
C83 O80 1.247 . S
C83 O81 1.254 1_565 S
C84 O86 1.247 . S
C84 O88 1.258 . S
C85 O92 1.243 1_655 S
C85 O93 1.258 . S
O86 C84 1.247 . S
O86 Zn87 2.028 . S
Zn87 O86 2.028 . S
Zn87 O91 2.035 . S
Zn87 O93 2.035 . S
Zn87 O94 2.028 . S
O88 C84 1.258 . S
O88 Zn89 2.035 . S
Zn89 O88 2.035 . S
Zn89 O90 2.025 1_655 S
Zn89 O92 2.025 1_655 S
Zn89 O95 2.035 . S
O90 Zn89 2.025 1_455 S
O90 C96 1.243 1_455 S
O91 Zn87 2.035 . S
O91 C96 1.258 . S
O92 C85 1.243 1_455 S
O92 Zn89 2.025 1_455 S
O93 C85 1.258 . S
O93 Zn87 2.035 . S
O94 Zn87 2.028 . S
O94 C97 1.247 . S
O95 Zn89 2.035 . S
O95 C97 1.258 . S
C96 O90 1.243 1_655 S
C96 O91 1.258 . S
C97 O94 1.247 . S
C97 O95 1.258 . S
C98 O100 1.247 . S
C98 O102 1.254 1_545 S
C99 O106 1.247 . S
C99 O107 1.258 . S
O100 C98 1.247 . S
O100 Zn101 2.028 . S
Zn101 O100 2.028 . S
Zn101 O105 2.035 . S
Zn101 O107 2.035 . S
Zn101 O108 2.028 . S
O102 C98 1.254 1_565 S
O102 Zn103 2.032 1_565 S
Zn103 O102 2.032 1_545 S
Zn103 O104 2.028 . S
Zn103 O106 2.028 . S
Zn103 O109 2.032 1_545 S
O104 Zn103 2.028 . S
O104 C110 1.247 . S
O105 Zn101 2.035 . S
O105 C110 1.258 . S
O106 C99 1.247 . S
O106 Zn103 2.028 . S
O107 C99 1.258 . S
O107 Zn101 2.035 . S
O108 Zn101 2.028 . S
O108 C111 1.247 . S
O109 Zn103 2.032 1_565 S
O109 C111 1.254 1_565 S
C110 O104 1.247 . S
C110 O105 1.258 . S
C111 O108 1.247 . S
C111 O109 1.254 1_545 S
C112 O114 1.247 . S
C112 O116 1.254 1_554 S
C113 O120 1.247 . S
C113 O121 1.258 . S
O114 C112 1.247 . S
O114 Zn115 2.028 . S
Zn115 O114 2.028 . S
Zn115 O119 2.035 . S
Zn115 O121 2.035 . S
Zn115 O122 2.028 . S
O116 C112 1.254 1_556 S
O116 Zn117 2.032 1_556 S
Zn117 O116 2.032 1_554 S
Zn117 O118 2.028 . S
Zn117 O120 2.028 . S
Zn117 O123 2.032 1_554 S
O118 Zn117 2.028 . S
O118 C124 1.247 . S
O119 Zn115 2.035 . S
O119 C124 1.258 . S
O120 C113 1.247 . S
O120 Zn117 2.028 . S
O121 C113 1.258 . S
O121 Zn115 2.035 . S
O122 Zn115 2.028 . S
O122 C125 1.247 . S
O123 Zn117 2.032 1_556 S
O123 C125 1.254 1_556 S
C124 O118 1.247 . S
C124 O119 1.258 . S
C125 O122 1.247 . S
C125 O123 1.254 1_554 S
C126 O128 1.247 . S
C126 O130 1.258 . S
C127 O134 1.247 . S
C127 O135 1.254 1_556 S
O128 C126 1.247 . S
O128 Zn129 2.028 . S
Zn129 O128 2.028 . S
Zn129 O133 2.032 1_556 S
Zn129 O135 2.032 1_556 S
Zn129 O136 2.028 . S
O130 C126 1.258 . S
O130 Zn131 2.035 . S
Zn131 O130 2.035 . S
Zn131 O132 2.028 . S
Zn131 O134 2.028 . S
Zn131 O137 2.035 . S
O132 Zn131 2.028 . S
O132 C138 1.247 . S
O133 Zn129 2.032 1_554 S
O133 C138 1.254 1_554 S
O134 C127 1.247 . S
O134 Zn131 2.028 . S
O135 C127 1.254 1_554 S
O135 Zn129 2.032 1_554 S
O136 Zn129 2.028 . S
O136 C139 1.247 . S
O137 Zn131 2.035 . S
O137 C139 1.258 . S
C138 O132 1.247 . S
C138 O133 1.254 1_556 S
C139 O136 1.247 . S
C139 O137 1.258 . S
C140 O142 1.247 . S
C140 O144 1.258 . S
C141 O148 1.243 1_554 S
C141 O149 1.258 . S
O142 C140 1.247 . S
O142 Zn143 2.028 . S
Zn143 O142 2.028 . S
Zn143 O147 2.035 . S
Zn143 O149 2.035 . S
Zn143 O150 2.028 . S
O144 C140 1.258 . S
O144 Zn145 2.035 . S
Zn145 O144 2.035 . S
Zn145 O146 2.025 1_554 S
Zn145 O148 2.025 1_554 S
Zn145 O151 2.035 . S
O146 Zn145 2.025 1_556 S
O146 C152 1.243 1_556 S
O147 Zn143 2.035 . S
O147 C152 1.258 . S
O148 C141 1.243 1_556 S
O148 Zn145 2.025 1_556 S
O149 C141 1.258 . S
O149 Zn143 2.035 . S
O150 Zn143 2.028 . S
O150 C153 1.247 . S
O151 Zn145 2.035 . S
O151 C153 1.258 . S
C152 O146 1.243 1_554 S
C152 O147 1.258 . S
C153 O150 1.247 . S
C153 O151 1.258 . S
C154 O156 1.247 . S
C154 O158 1.258 . S
C155 O162 1.243 1_556 S
C155 O163 1.258 . S
O156 C154 1.247 . S
O156 Zn157 2.028 . S
Zn157 O156 2.028 . S
Zn157 O161 2.035 . S
Zn157 O163 2.035 . S
Zn157 O164 2.028 . S
O158 C154 1.258 . S
O158 Zn159 2.035 . S
Zn159 O158 2.035 . S
Zn159 O160 2.025 1_556 S
Zn159 O162 2.025 1_556 S
Zn159 O165 2.035 . S
O160 Zn159 2.025 1_554 S
O160 C166 1.243 1_554 S
O161 Zn157 2.035 . S
O161 C166 1.258 . S
O162 C155 1.243 1_554 S
O162 Zn159 2.025 1_554 S
O163 C155 1.258 . S
O163 Zn157 2.035 . S
O164 Zn157 2.028 . S
O164 C167 1.247 . S
O165 Zn159 2.035 . S
O165 C167 1.258 . S
C166 O160 1.243 1_556 S
C166 O161 1.258 . S
C167 O164 1.247 . S
C167 O165 1.258 . S
C168 C169 1.369 . S
C168 C170 1.419 . S
C168 H172 0.930 . S
C169 C168 1.369 . S
C169 C178 1.429 . S
C170 C168 1.419 . S
C170 C171 1.363 . S
C170 H173 0.929 . S
C171 C170 1.363 . S
C171 C177 1.428 . S
H172 C168 0.930 . S
H173 C170 0.929 . S
S174 N175 1.613 . S
S174 N176 1.610 . S
N175 S174 1.613 . S
N175 C178 1.350 . S
N176 S174 1.610 . S
N176 C177 1.351 . S
C177 C171 1.428 . S
C177 N176 1.351 . S
C177 C178 1.434 . S
C178 C169 1.429 . S
C178 N175 1.350 . S
C178 C177 1.434 . S
C179 C180 1.369 . S
C179 C181 1.419 . S
C179 H183 0.930 . S
C180 C179 1.369 . S
C180 C189 1.429 . S
C181 C179 1.419 . S
C181 C182 1.363 . S
C181 H184 0.929 . S
C182 C181 1.363 . S
C182 C188 1.428 . S
H183 C179 0.930 . S
H184 C181 0.929 . S
S185 N186 1.613 . S
S185 N187 1.610 . S
N186 S185 1.613 . S
N186 C189 1.350 . S
N187 S185 1.610 . S
N187 C188 1.351 . S
C188 C182 1.428 . S
C188 N187 1.351 . S
C188 C189 1.434 . S
C189 C180 1.429 . S
C189 N186 1.350 . S
C189 C188 1.434 . S
C190 C191 1.369 . S
C190 C192 1.419 . S
C190 H194 0.930 . S
C191 C190 1.369 . S
C191 C200 1.429 . S
C192 C190 1.419 . S
C192 C193 1.363 . S
C192 H195 0.929 . S
C193 C192 1.363 . S
C193 C199 1.428 . S
H194 C190 0.930 . S
H195 C192 0.929 . S
S196 N197 1.613 . S
S196 N198 1.610 . S
N197 S196 1.613 . S
N197 C200 1.350 . S
N198 S196 1.610 . S
N198 C199 1.351 . S
C199 C193 1.428 . S
C199 N198 1.351 . S
C199 C200 1.434 . S
C200 C191 1.429 . S
C200 N197 1.350 . S
C200 C199 1.434 . S
C201 C202 1.369 . S
C201 C203 1.419 . S
C201 H205 0.930 . S
C202 C201 1.369 . S
C202 C211 1.429 . S
C203 C201 1.419 . S
C203 C204 1.363 . S
C203 H206 0.929 . S
C204 C203 1.363 . S
C204 C210 1.428 . S
H205 C201 0.930 . S
H206 C203 0.929 . S
S207 N208 1.613 . S
S207 N209 1.610 . S
N208 S207 1.613 . S
N208 C211 1.350 . S
N209 S207 1.610 . S
N209 C210 1.351 . S
C210 C204 1.428 . S
C210 N209 1.351 . S
C210 C211 1.434 . S
C211 C202 1.429 . S
C211 N208 1.350 . S
C211 C210 1.434 . S
C212 C213 1.369 . S
C212 C214 1.419 . S
C212 H216 0.930 . S
C213 C212 1.369 . S
C213 C222 1.429 . S
C214 C212 1.419 . S
C214 C215 1.363 . S
C214 H217 0.929 . S
C215 C214 1.363 . S
C215 C221 1.428 . S
H216 C212 0.930 . S
H217 C214 0.929 . S
S218 N219 1.613 . S
S218 N220 1.610 . S
N219 S218 1.613 . S
N219 C222 1.350 . S
N220 S218 1.610 . S
N220 C221 1.351 . S
C221 C215 1.428 . S
C221 N220 1.351 . S
C221 C222 1.434 . S
C222 C213 1.429 . S
C222 N219 1.350 . S
C222 C221 1.434 . S
C223 C224 1.369 . S
C223 C225 1.419 . S
C223 H227 0.930 . S
C224 C223 1.369 . S
C224 C233 1.429 . S
C225 C223 1.419 . S
C225 C226 1.363 . S
C225 H228 0.929 . S
C226 C225 1.363 . S
C226 C232 1.428 . S
H227 C223 0.930 . S
H228 C225 0.929 . S
S229 N230 1.613 . S
S229 N231 1.610 . S
N230 S229 1.613 . S
N230 C233 1.350 . S
N231 S229 1.610 . S
N231 C232 1.351 . S
C232 C226 1.428 . S
C232 N231 1.351 . S
C232 C233 1.434 . S
C233 C224 1.429 . S
C233 N230 1.350 . S
C233 C232 1.434 . S
C234 C235 1.369 . S
C234 C236 1.419 . S
C234 H238 0.930 . S
C235 C234 1.369 . S
C235 C244 1.429 . S
C236 C234 1.419 . S
C236 C237 1.363 . S
C236 H239 0.929 . S
C237 C236 1.363 . S
C237 C243 1.428 . S
H238 C234 0.930 . S
H239 C236 0.929 . S
S240 N241 1.613 . S
S240 N242 1.610 . S
N241 S240 1.613 . S
N241 C244 1.350 . S
N242 S240 1.610 . S
N242 C243 1.351 . S
C243 C237 1.428 . S
C243 N242 1.351 . S
C243 C244 1.434 . S
C244 C235 1.429 . S
C244 N241 1.350 . S
C244 C243 1.434 . S
C245 C246 1.369 . S
C245 C247 1.419 . S
C245 H249 0.930 . S
C246 C245 1.369 . S
C246 C255 1.429 . S
C247 C245 1.419 . S
C247 C248 1.363 . S
C247 H250 0.929 . S
C248 C247 1.363 . S
C248 C254 1.428 . S
H249 C245 0.930 . S
H250 C247 0.929 . S
S251 N252 1.613 . S
S251 N253 1.610 . S
N252 S251 1.613 . S
N252 C255 1.350 . S
N253 S251 1.610 . S
N253 C254 1.351 . S
C254 C248 1.428 . S
C254 N253 1.351 . S
C254 C255 1.434 . S
C255 C246 1.429 . S
C255 N252 1.350 . S
C255 C254 1.434 . S
C256 C257 1.369 . S
C256 C258 1.419 . S
C256 H260 0.930 . S
C257 C256 1.369 . S
C257 C266 1.429 . S
C258 C256 1.419 . S
C258 C259 1.363 . S
C258 H261 0.929 . S
C259 C258 1.363 . S
C259 C265 1.428 . S
H260 C256 0.930 . S
H261 C258 0.929 . S
S262 N263 1.613 . S
S262 N264 1.610 . S
N263 S262 1.613 . S
N263 C266 1.350 . S
N264 S262 1.610 . S
N264 C265 1.351 . S
C265 C259 1.428 . S
C265 N264 1.351 . S
C265 C266 1.434 . S
C266 C257 1.429 . S
C266 N263 1.350 . S
C266 C265 1.434 . S
C267 C268 1.369 . S
C267 C269 1.419 . S
C267 H271 0.930 . S
C268 C267 1.369 . S
C268 C277 1.429 . S
C269 C267 1.419 . S
C269 C270 1.363 . S
C269 H272 0.929 . S
C270 C269 1.363 . S
C270 C276 1.428 . S
H271 C267 0.930 . S
H272 C269 0.929 . S
S273 N274 1.613 . S
S273 N275 1.610 . S
N274 S273 1.613 . S
N274 C277 1.350 . S
N275 S273 1.610 . S
N275 C276 1.351 . S
C276 C270 1.428 . S
C276 N275 1.351 . S
C276 C277 1.434 . S
C277 C268 1.429 . S
C277 N274 1.350 . S
C277 C276 1.434 . S
C278 C279 1.369 . S
C278 C280 1.419 . S
C278 H282 0.930 . S
C279 C278 1.369 . S
C279 C288 1.429 . S
C280 C278 1.419 . S
C280 C281 1.363 . S
C280 H283 0.929 . S
C281 C280 1.363 . S
C281 C287 1.428 . S
H282 C278 0.930 . S
H283 C280 0.929 . S
S284 N285 1.613 . S
S284 N286 1.610 . S
N285 S284 1.613 . S
N285 C288 1.350 . S
N286 S284 1.610 . S
N286 C287 1.351 . S
C287 C281 1.428 . S
C287 N286 1.351 . S
C287 C288 1.434 . S
C288 C279 1.429 . S
C288 N285 1.350 . S
C288 C287 1.434 . S
C289 C290 1.369 . S
C289 C291 1.419 . S
C289 H293 0.930 . S
C290 C289 1.369 . S
C290 C299 1.429 . S
C291 C289 1.419 . S
C291 C292 1.363 . S
C291 H294 0.929 . S
C292 C291 1.363 . S
C292 C298 1.428 . S
H293 C289 0.930 . S
H294 C291 0.929 . S
S295 N296 1.613 . S
S295 N297 1.610 . S
N296 S295 1.613 . S
N296 C299 1.350 . S
N297 S295 1.610 . S
N297 C298 1.351 . S
C298 C292 1.428 . S
C298 N297 1.351 . S
C298 C299 1.434 . S
C299 C290 1.429 . S
C299 N296 1.350 . S
C299 C298 1.434 . S
C300 C301 1.369 1_455 S
C300 C302 1.419 . S
C300 H304 0.930 . S
C301 C300 1.369 1_655 S
C301 C310 1.429 . S
C302 C300 1.419 . S
C302 C303 1.363 . S
C302 H305 0.929 . S
C303 C302 1.363 . S
C303 C309 1.428 1_455 S
H304 C300 0.930 . S
H305 C302 0.929 . S
S306 N307 1.613 . S
S306 N308 1.610 . S
N307 S306 1.613 . S
N307 C310 1.350 . S
N308 S306 1.610 . S
N308 C309 1.351 . S
C309 C303 1.428 1_655 S
C309 N308 1.351 . S
C309 C310 1.434 . S
C310 C301 1.429 . S
C310 N307 1.350 . S
C310 C309 1.434 . S
C311 C312 1.369 . S
C311 C313 1.419 . S
C311 H315 0.930 . S
C312 C311 1.369 . S
C312 C321 1.429 1_545 S
C313 C311 1.419 . S
C313 C314 1.363 1_545 S
C313 H316 0.929 . S
C314 C313 1.363 1_565 S
C314 C320 1.428 . S
H315 C311 0.930 . S
H316 C313 0.929 . S
S317 N318 1.613 . S
S317 N319 1.610 . S
N318 S317 1.613 . S
N318 C321 1.350 . S
N319 S317 1.610 . S
N319 C320 1.351 . S
C320 C314 1.428 . S
C320 N319 1.351 . S
C320 C321 1.434 . S
C321 C312 1.429 1_565 S
C321 N318 1.350 . S
C321 C320 1.434 . S
C322 C323 1.369 1_655 S
C322 C324 1.419 . S
C322 H326 0.930 . S
C323 C322 1.369 1_455 S
C323 C332 1.429 . S
C324 C322 1.419 . S
C324 C325 1.363 . S
C324 H327 0.929 . S
C325 C324 1.363 . S
C325 C331 1.428 1_655 S
H326 C322 0.930 . S
H327 C324 0.929 . S
S328 N329 1.613 . S
S328 N330 1.610 . S
N329 S328 1.613 . S
N329 C332 1.350 . S
N330 S328 1.610 . S
N330 C331 1.351 . S
C331 C325 1.428 1_455 S
C331 N330 1.351 . S
C331 C332 1.434 . S
C332 C323 1.429 . S
C332 N329 1.350 . S
C332 C331 1.434 . S
C333 C334 1.369 1_565 S
C333 C335 1.419 . S
C333 H337 0.930 . S
C334 C333 1.369 1_545 S
C334 C343 1.429 . S
C335 C333 1.419 . S
C335 C336 1.363 . S
C335 H338 0.929 . S
C336 C335 1.363 . S
C336 C342 1.428 1_565 S
H337 C333 0.930 . S
H338 C335 0.929 . S
S339 N340 1.613 . S
S339 N341 1.610 . S
N340 S339 1.613 . S
N340 C343 1.350 . S
N341 S339 1.610 . S
N341 C342 1.351 . S
C342 C336 1.428 1_545 S
C342 N341 1.351 . S
C342 C343 1.434 . S
C343 C334 1.429 . S
C343 N340 1.350 . S
C343 C342 1.434 . S
C344 C345 1.369 . S
C344 C346 1.419 . S
C344 H348 0.930 . S
C345 C344 1.369 . S
C345 C354 1.429 1_545 S
C346 C344 1.419 . S
C346 C347 1.363 1_545 S
C346 H349 0.929 . S
C347 C346 1.363 1_565 S
C347 C353 1.428 . S
H348 C344 0.930 . S
H349 C346 0.929 . S
S350 N351 1.613 . S
S350 N352 1.610 . S
N351 S350 1.613 . S
N351 C354 1.350 . S
N352 S350 1.610 . S
N352 C353 1.351 . S
C353 C347 1.428 . S
C353 N352 1.351 . S
C353 C354 1.434 . S
C354 C345 1.429 1_565 S
C354 N351 1.350 . S
C354 C353 1.434 . S
C355 C356 1.369 . S
C355 C357 1.419 . S
C355 H359 0.930 . S
C356 C355 1.369 . S
C356 C365 1.429 1_455 S
C357 C355 1.419 . S
C357 C358 1.363 1_455 S
C357 H360 0.929 . S
C358 C357 1.363 1_655 S
C358 C364 1.428 . S
H359 C355 0.930 . S
H360 C357 0.929 . S
S361 N362 1.613 . S
S361 N363 1.610 . S
N362 S361 1.613 . S
N362 C365 1.350 . S
N363 S361 1.610 . S
N363 C364 1.351 . S
C364 C358 1.428 . S
C364 N363 1.351 . S
C364 C365 1.434 . S
C365 C356 1.429 1_655 S
C365 N362 1.350 . S
C365 C364 1.434 . S
C366 C367 1.369 1_565 S
C366 C368 1.419 . S
C366 H370 0.930 . S
C367 C366 1.369 1_545 S
C367 C376 1.429 . S
C368 C366 1.419 . S
C368 C369 1.363 . S
C368 H371 0.929 . S
C369 C368 1.363 . S
C369 C375 1.428 1_565 S
H370 C366 0.930 . S
H371 C368 0.929 . S
S372 N373 1.613 . S
S372 N374 1.610 . S
N373 S372 1.613 . S
N373 C376 1.350 . S
N374 S372 1.610 . S
N374 C375 1.351 . S
C375 C369 1.428 1_545 S
C375 N374 1.351 . S
C375 C376 1.434 . S
C376 C367 1.429 . S
C376 N373 1.350 . S
C376 C375 1.434 . S
C377 C378 1.369 . S
C377 C379 1.419 . S
C377 H381 0.930 . S
C378 C377 1.369 . S
C378 C387 1.429 1_655 S
C379 C377 1.419 . S
C379 C380 1.363 1_655 S
C379 H382 0.929 . S
C380 C379 1.363 1_455 S
C380 C386 1.428 . S
H381 C377 0.930 . S
H382 C379 0.929 . S
S383 N384 1.613 . S
S383 N385 1.610 . S
N384 S383 1.613 . S
N384 C387 1.350 . S
N385 S383 1.610 . S
N385 C386 1.351 . S
C386 C380 1.428 . S
C386 N385 1.351 . S
C386 C387 1.434 . S
C387 C378 1.429 1_455 S
C387 N384 1.350 . S
C387 C386 1.434 . S
C388 C389 1.369 . S
C388 C390 1.419 . S
C388 H392 0.930 . S
C389 C388 1.369 . S
C389 C398 1.429 1_554 S
C390 C388 1.419 . S
C390 C391 1.363 1_554 S
C390 H393 0.929 . S
C391 C390 1.363 1_556 S
C391 C397 1.428 . S
H392 C388 0.930 . S
H393 C390 0.929 . S
S394 N395 1.613 . S
S394 N396 1.610 . S
N395 S394 1.613 . S
N395 C398 1.350 . S
N396 S394 1.610 . S
N396 C397 1.351 . S
C397 C391 1.428 . S
C397 N396 1.351 . S
C397 C398 1.434 . S
C398 C389 1.429 1_556 S
C398 N395 1.350 . S
C398 C397 1.434 . S
C399 C400 1.369 1_554 S
C399 C401 1.419 . S
C399 H403 0.930 . S
C400 C399 1.369 1_556 S
C400 C409 1.429 . S
C401 C399 1.419 . S
C401 C402 1.363 . S
C401 H404 0.929 . S
C402 C401 1.363 . S
C402 C408 1.428 1_554 S
H403 C399 0.930 . S
H404 C401 0.929 . S
S405 N406 1.613 . S
S405 N407 1.610 . S
N406 S405 1.613 . S
N406 C409 1.350 . S
N407 S405 1.610 . S
N407 C408 1.351 . S
C408 C402 1.428 1_556 S
C408 N407 1.351 . S
C408 C409 1.434 . S
C409 C400 1.429 . S
C409 N406 1.350 . S
C409 C408 1.434 . S
C410 C411 1.369 1_554 S
C410 C412 1.419 . S
C410 H414 0.930 . S
C411 C410 1.369 1_556 S
C411 C420 1.429 . S
C412 C410 1.419 . S
C412 C413 1.363 . S
C412 H415 0.929 . S
C413 C412 1.363 . S
C413 C419 1.428 1_554 S
H414 C410 0.930 . S
H415 C412 0.929 . S
S416 N417 1.613 . S
S416 N418 1.610 . S
N417 S416 1.613 . S
N417 C420 1.350 . S
N418 S416 1.610 . S
N418 C419 1.351 . S
C419 C413 1.428 1_556 S
C419 N418 1.351 . S
C419 C420 1.434 . S
C420 C411 1.429 . S
C420 N417 1.350 . S
C420 C419 1.434 . S
C421 C422 1.369 1_556 S
C421 C423 1.419 . S
C421 H425 0.930 . S
C422 C421 1.369 1_554 S
C422 C431 1.429 . S
C423 C421 1.419 . S
C423 C424 1.363 . S
C423 H426 0.929 . S
C424 C423 1.363 . S
C424 C430 1.428 1_556 S
H425 C421 0.930 . S
H426 C423 0.929 . S
S427 N428 1.613 . S
S427 N429 1.610 . S
N428 S427 1.613 . S
N428 C431 1.350 . S
N429 S427 1.610 . S
N429 C430 1.351 . S
C430 C424 1.428 1_554 S
C430 N429 1.351 . S
C430 C431 1.434 . S
C431 C422 1.429 . S
C431 N428 1.350 . S
C431 C430 1.434 . S
C169 C12 1.493 . S
C171 C99 1.493 . S
C180 C27 1.490 . S
C182 C69 1.489 . S
C191 C71 1.490 . S
C193 C29 1.489 . S
C202 C97 1.492 . S
C204 C55 1.493 . S
C213 C113 1.493 . S
C215 C110 1.493 . S
C224 C126 1.492 . S
C226 C56 1.491 . S
C235 C140 1.489 . S
C237 C82 1.490 . S
C246 C167 1.489 . S
C248 C84 1.489 . S
C257 C14 1.490 . S
C259 C139 1.491 . S
C268 C153 1.489 . S
C270 C40 1.489 . S
C279 C42 1.494 . S
C281 C154 1.492 . S
C290 C124 1.490 . S
C292 C1 1.490 . S
C301 C85 1.707 . S
C303 C0 1.709 . S
C312 C111 1.710 . S
C314 C15 1.705 . S
C323 C57 1.709 . S
C325 C41 1.709 . S
C334 C43 1.705 . S
C336 C83 1.708 . S
C345 C98 1.708 . S
C347 C70 1.705 . S
C356 C68 1.708 . S
C358 C96 1.709 . S
C367 C54 1.707 . S
C369 C26 1.707 . S
C378 C28 1.710 . S
C380 C13 1.706 . S
C389 C112 1.708 . S
C391 C138 1.706 . S
C400 C127 1.703 . S
C402 C152 1.712 . S
C411 C155 1.706 . S
C413 C141 1.712 . S
C422 C125 1.703 . S
C424 C166 1.712 . S
