# Generated by pormake.
# Topology vbn, (6)-cn, num edge types: 1
# Building blocks:
#     Node 0, Type 0, BuildingBlock: IZENUY_clean_sbu_0, # of connection points: 6
#     Node 1, Type 0, BuildingBlock: IZENUY_clean_sbu_0, # of connection points: 6
#     Node 2, Type 0, BuildingBlock: IZENUY_clean_sbu_0, # of connection points: 6
#     Node 3, Type 0, BuildingBlock: IZENUY_clean_sbu_0, # of connection points: 6
#     Node 4, Type 0, BuildingBlock: IZENUY_clean_sbu_0, # of connection points: 6
#     Node 5, Type 0, BuildingBlock: IZENUY_clean_sbu_0, # of connection points: 6
#     Node 6, Type 0, BuildingBlock: IZENUY_clean_sbu_0, # of connection points: 6
#     Node 7, Type 0, BuildingBlock: IZENUY_clean_sbu_0, # of connection points: 6
#     Edge 8, Type (0, 0), BuildingBlock: MIFKUJ_clean_linker_0, # of connection points: 2
#     Edge 9, Type (0, 0), BuildingBlock: MIFKUJ_clean_linker_0, # of connection points: 2
#     Edge 10, Type (0, 0), BuildingBlock: MIFKUJ_clean_linker_0, # of connection points: 2
#     Edge 11, Type (0, 0), BuildingBlock: MIFKUJ_clean_linker_0, # of connection points: 2
#     Edge 12, Type (0, 0), BuildingBlock: MIFKUJ_clean_linker_0, # of connection points: 2
#     Edge 13, Type (0, 0), BuildingBlock: MIFKUJ_clean_linker_0, # of connection points: 2
#     Edge 14, Type (0, 0), BuildingBlock: MIFKUJ_clean_linker_0, # of connection points: 2
#     Edge 15, Type (0, 0), BuildingBlock: MIFKUJ_clean_linker_0, # of connection points: 2
#     Edge 16, Type (0, 0), BuildingBlock: MIFKUJ_clean_linker_0, # of connection points: 2
#     Edge 17, Type (0, 0), BuildingBlock: MIFKUJ_clean_linker_0, # of connection points: 2
#     Edge 18, Type (0, 0), BuildingBlock: MIFKUJ_clean_linker_0, # of connection points: 2
#     Edge 19, Type (0, 0), BuildingBlock: MIFKUJ_clean_linker_0, # of connection points: 2
#     Edge 20, Type (0, 0), BuildingBlock: MIFKUJ_clean_linker_0, # of connection points: 2
#     Edge 21, Type (0, 0), BuildingBlock: MIFKUJ_clean_linker_0, # of connection points: 2
#     Edge 22, Type (0, 0), BuildingBlock: MIFKUJ_clean_linker_0, # of connection points: 2
#     Edge 23, Type (0, 0), BuildingBlock: MIFKUJ_clean_linker_0, # of connection points: 2
#     Edge 24, Type (0, 0), BuildingBlock: MIFKUJ_clean_linker_0, # of connection points: 2
#     Edge 25, Type (0, 0), BuildingBlock: MIFKUJ_clean_linker_0, # of connection points: 2
#     Edge 26, Type (0, 0), BuildingBlock: MIFKUJ_clean_linker_0, # of connection points: 2
#     Edge 27, Type (0, 0), BuildingBlock: MIFKUJ_clean_linker_0, # of connection points: 2
#     Edge 28, Type (0, 0), BuildingBlock: MIFKUJ_clean_linker_0, # of connection points: 2
#     Edge 29, Type (0, 0), BuildingBlock: MIFKUJ_clean_linker_0, # of connection points: 2
#     Edge 30, Type (0, 0), BuildingBlock: MIFKUJ_clean_linker_0, # of connection points: 2
#     Edge 31, Type (0, 0), BuildingBlock: MIFKUJ_clean_linker_0, # of connection points: 2
# Relax obj value: 0.241
# Max RMSD: 0.242
# Mean RMSD: 0.242
data_MOF--net-vbn--node1-IZENUY_clean_sbu_0--edge1-MIFKUJ_clean_linker_0
_symmetry_space_group_name_H-M    P1
_symmetry_Int_Tables_number       1
_symmetry_cell_setting            triclinic
loop_
_symmetry_equiv_pos_as_xyz
'x, y, z'
_cell_length_a     32.841868
_cell_length_b     36.086205
_cell_length_c     59.535311
_cell_angle_alpha  89.984873
_cell_angle_beta   90.008063
_cell_angle_gamma 89.966722
loop_
_atom_site_label
_atom_site_type_symbol
_atom_site_fract_x
_atom_site_fract_y
_atom_site_fract_z
_atom_type_partial_charge
Fe0 Fe 0.42016 0.33291 0.40086 0.0
Fe1 Fe 0.38641 0.28324 0.438 0.0
O2 O 0.38255 0.30201 0.41069 0.0
Fe3 Fe 0.34089 0.29039 0.3932 0.0
O4 O 0.32472 0.33809 0.39222 0.0
O5 O 0.38459 0.36067 0.38356 0.0
O6 O 0.40935 0.36504 0.42295 0.0
C7 C 0.41427 0.3578 0.44337 0.0
C8 C 0.40845 0.29248 0.36302 0.0
O9 O 0.41169 0.32464 0.45047 0.0
C10 C 0.3557 0.223 0.41163 0.0
O11 O 0.4624 0.31148 0.41699 0.0
O12 O 0.43458 0.26173 0.43148 0.0
O13 O 0.37022 0.29417 0.3665 0.0
O14 O 0.43306 0.30237 0.37806 0.0
C15 C 0.30523 0.29612 0.43682 0.0
O16 O 0.3618 0.23873 0.43046 0.0
O17 O 0.35443 0.2418 0.39376 0.0
C18 C 0.46587 0.28014 0.42655 0.0
O19 O 0.33858 0.30345 0.44621 0.0
O20 O 0.3042 0.28457 0.41666 0.0
C21 C 0.3466 0.36511 0.38653 0.0
Fe22 Fe 0.16663 0.21271 0.89501 0.0
Fe23 Fe 0.0875 0.17125 0.90508 0.0
O24 O 0.126 0.20242 0.91346 0.0
Fe25 Fe 0.12396 0.22293 0.94033 0.0
O26 O 0.17201 0.20283 0.94818 0.0
O27 O 0.20479 0.21982 0.91768 0.0
O28 O 0.18235 0.165 0.8948 0.0
C29 C 0.1601 0.13783 0.8899 0.0
C30 C 0.15349 0.28125 0.91201 0.0
O31 O 0.12184 0.14201 0.88784 0.0
C32 C 0.04406 0.2265 0.92999 0.0
O33 O 0.13574 0.20741 0.86896 0.0
O34 O 0.07349 0.20035 0.88172 0.0
O35 O 0.14848 0.26683 0.93133 0.0
O36 O 0.15338 0.26125 0.89464 0.0
C37 C 0.09707 0.14869 0.9481 0.0
O38 O 0.04632 0.19422 0.92148 0.0
O39 O 0.07597 0.24451 0.93401 0.0
C40 C 0.09735 0.20902 0.86603 0.0
O41 O 0.09951 0.14042 0.92769 0.0
O42 O 0.09908 0.18244 0.95424 0.0
C43 C 0.20485 0.20975 0.93816 0.0
Fe44 Fe 0.92251 0.1746 0.60634 0.0
Fe45 Fe 0.88667 0.22993 0.57302 0.0
O46 O 0.88397 0.20653 0.59898 0.0
Fe47 Fe 0.84257 0.21425 0.61739 0.0
O48 O 0.82791 0.1661 0.61584 0.0
O49 O 0.8887 0.14383 0.62264 0.0
O50 O 0.91057 0.14595 0.58249 0.0
C51 C 0.91232 0.15688 0.56249 0.0
C52 C 0.91175 0.20895 0.64648 0.0
O53 O 0.91206 0.19126 0.5579 0.0
C54 C 0.8548 0.28478 0.6031 0.0
O55 O 0.96355 0.199 0.59088 0.0
O56 O 0.93463 0.25094 0.58047 0.0
O57 O 0.87336 0.20723 0.64335 0.0
O58 O 0.93604 0.20152 0.63071 0.0
C59 C 0.80569 0.21479 0.57385 0.0
O60 O 0.86136 0.27251 0.5834 0.0
O61 O 0.85433 0.26302 0.61967 0.0
C62 C 0.96634 0.23198 0.58352 0.0
O63 O 0.83919 0.21022 0.564 0.0
O64 O 0.80471 0.2228 0.59467 0.0
C65 C 0.85073 0.139 0.62018 0.0
Fe66 Fe 0.58987 0.33285 0.10788 0.0
Fe67 Fe 0.63043 0.2854 0.07186 0.0
O68 O 0.6301 0.30363 0.09938 0.0
Fe69 Fe 0.67037 0.2934 0.11816 0.0
O70 O 0.68362 0.34174 0.12049 0.0
O71 O 0.62152 0.36183 0.12657 0.0
O72 O 0.60194 0.36589 0.08634 0.0
C73 C 0.60204 0.35892 0.0657 0.0
C74 C 0.59924 0.29221 0.14594 0.0
O75 O 0.60438 0.32569 0.05882 0.0
C76 C 0.66173 0.22592 0.09863 0.0
O77 O 0.55089 0.30976 0.09018 0.0
O78 O 0.58293 0.26143 0.07643 0.0
O79 O 0.63773 0.29485 0.14372 0.0
O80 O 0.57588 0.30154 0.13014 0.0
C81 C 0.71022 0.30366 0.07601 0.0
O82 O 0.65712 0.24194 0.07976 0.0
O83 O 0.65988 0.24424 0.11664 0.0
C84 C 0.55017 0.27832 0.08052 0.0
O85 O 0.67735 0.30867 0.06565 0.0
O86 O 0.71006 0.2905 0.09587 0.0
C87 C 0.65962 0.36751 0.12572 0.0
Fe88 Fe 0.58365 0.67683 0.61194 0.0
Fe89 Fe 0.62359 0.72689 0.57691 0.0
O90 O 0.62504 0.70452 0.6032 0.0
Fe91 Fe 0.66816 0.70917 0.62078 0.0
O92 O 0.67779 0.66006 0.61888 0.0
O93 O 0.61561 0.64339 0.62779 0.0
O94 O 0.58975 0.64647 0.58842 0.0
C95 C 0.58667 0.65663 0.56832 0.0
C96 C 0.60119 0.71071 0.6513 0.0
O97 O 0.59367 0.69 0.56268 0.0
C98 C 0.66117 0.78002 0.60605 0.0
O99 O 0.5443 0.70436 0.597 0.0
O100 O 0.57848 0.75225 0.58459 0.0
O101 O 0.6388 0.70468 0.64747 0.0
O102 O 0.57529 0.70591 0.63601 0.0
C103 C 0.70273 0.70614 0.57681 0.0
O104 O 0.65321 0.76761 0.58651 0.0
O105 O 0.66102 0.75872 0.62289 0.0
C106 C 0.54502 0.73657 0.5884 0.0
O107 O 0.66851 0.7029 0.56758 0.0
O108 O 0.70523 0.71474 0.59747 0.0
C109 C 0.65256 0.63521 0.6239 0.0
Fe110 Fe 0.91906 0.83335 0.1128 0.0
Fe111 Fe 0.88084 0.78206 0.07786 0.0
O112 O 0.87994 0.80246 0.10478 0.0
Fe113 Fe 0.8396 0.79287 0.12363 0.0
O114 O 0.82473 0.8411 0.12375 0.0
O115 O 0.88585 0.86244 0.1306 0.0
O116 O 0.90634 0.86455 0.09044 0.0
C117 C 0.9061 0.8564 0.06995 0.0
C118 C 0.91006 0.79562 0.15184 0.0
O119 O 0.90454 0.8227 0.06373 0.0
C120 C 0.8519 0.72384 0.1066 0.0
O121 O 0.95932 0.81067 0.0958 0.0
O122 O 0.92938 0.76057 0.08326 0.0
O123 O 0.87158 0.79786 0.14929 0.0
O124 O 0.93359 0.80382 0.13588 0.0
C125 C 0.80003 0.79605 0.08102 0.0
O126 O 0.8569 0.73815 0.08724 0.0
O127 O 0.85181 0.74394 0.12398 0.0
C128 C 0.96134 0.77886 0.08672 0.0
O129 O 0.83258 0.80219 0.07063 0.0
O130 O 0.80054 0.786 0.10146 0.0
C131 C 0.84792 0.86789 0.1282 0.0
Fe132 Fe 0.08696 0.832 0.41056 0.0
Fe133 Fe 0.12613 0.77866 0.444 0.0
O134 O 0.12711 0.80167 0.41781 0.0
Fe135 Fe 0.16842 0.79504 0.39916 0.0
O136 O 0.18089 0.84359 0.39982 0.0
O137 O 0.11892 0.86415 0.39407 0.0
O138 O 0.0979 0.86129 0.43427 0.0
C139 C 0.09728 0.8506 0.45435 0.0
C140 C 0.09848 0.79733 0.37048 0.0
O141 O 0.0989 0.81632 0.45906 0.0
C142 C 0.16046 0.7245 0.41431 0.0
O143 O 0.0475 0.80588 0.42621 0.0
O144 O 0.07927 0.7554 0.43695 0.0
O145 O 0.13684 0.79998 0.37335 0.0
O146 O 0.07425 0.80448 0.38631 0.0
C147 C 0.20583 0.79847 0.44241 0.0
O148 O 0.1538 0.73696 0.43395 0.0
O149 O 0.159 0.74583 0.39757 0.0
C150 C 0.04661 0.77291 0.43372 0.0
O151 O 0.17238 0.8009 0.45254 0.0
O152 O 0.20703 0.78918 0.42178 0.0
C153 C 0.15692 0.86982 0.39555 0.0
Fe154 Fe 0.38361 0.72959 0.94221 0.0
Fe155 Fe 0.34199 0.714 0.89714 0.0
O156 O 0.38178 0.70558 0.91647 0.0
Fe157 Fe 0.41965 0.67245 0.91016 0.0
O158 O 0.40508 0.64484 0.93383 0.0
O159 O 0.4062 0.69032 0.95826 0.0
O160 O 0.33477 0.71198 0.95045 0.0
C161 C 0.30234 0.71805 0.93988 0.0
C162 C 0.46395 0.72909 0.9334 0.0
O163 O 0.30303 0.72479 0.9189 0.0
C164 C 0.41272 0.70597 0.86959 0.0
O165 O 0.36108 0.77273 0.93076 0.0
O166 O 0.35608 0.7621 0.89448 0.0
O167 O 0.46072 0.69598 0.9263 0.0
O168 O 0.43266 0.74881 0.93554 0.0
C169 C 0.34735 0.63856 0.89553 0.0
O170 O 0.37412 0.70505 0.87192 0.0
O171 O 0.4357 0.69841 0.88591 0.0
C172 C 0.35677 0.78445 0.91074 0.0
O173 O 0.32531 0.66649 0.89908 0.0
O174 O 0.38561 0.64227 0.89349 0.0
C175 C 0.40586 0.65584 0.95381 0.0
H176 H 0.23465 0.8887 0.38486 0.0
H177 H 0.26622 0.94961 0.3878 0.0
H178 H 0.15034 0.99746 0.4058 0.0
H179 H 0.11817 0.93625 0.40247 0.0
H180 H 0.19339 0.04387 0.3791 0.0
H181 H 0.21674 0.97599 0.44607 0.0
H182 H 0.23664 0.92134 0.46839 0.0
H183 H 0.35918 0.93019 0.44384 0.0
H184 H 0.33983 0.98449 0.421 0.0
H185 H 0.33098 0.17936 0.44685 0.0
H186 H 0.29584 0.11967 0.4447 0.0
H187 H 0.3113 0.11905 0.37276 0.0
H188 H 0.34576 0.17887 0.3747 0.0
H189 H 0.312 0.05126 0.43065 0.0
H190 H 0.22633 0.08674 0.34783 0.0
H191 H 0.20079 0.14206 0.32793 0.0
H192 H 0.19328 0.20113 0.39039 0.0
H193 H 0.21817 0.14604 0.4107 0.0
C194 C 0.21566 0.91226 0.38906 0.0
C195 C 0.17393 0.90765 0.39352 0.0
C196 C 0.23382 0.94705 0.39085 0.0
C197 C 0.21085 0.97794 0.39751 0.0
C198 C 0.16868 0.97393 0.40074 0.0
C199 C 0.15031 0.93901 0.39874 0.0
C200 C 0.23158 0.01375 0.40212 0.0
C201 C 0.2193 0.0455 0.39036 0.0
C202 C 0.26459 0.01616 0.41741 0.0
C203 C 0.27675 0.9842 0.43168 0.0
C204 C 0.2479 0.9662 0.44534 0.0
C205 C 0.25908 0.93526 0.45808 0.0
C206 C 0.29914 0.92225 0.4575 0.0
C207 C 0.32815 0.94028 0.44426 0.0
C208 C 0.3171 0.97117 0.43142 0.0
C209 C 0.32754 0.16624 0.4306 0.0
C210 C 0.34086 0.18414 0.41091 0.0
C211 C 0.30734 0.13211 0.4294 0.0
C212 C 0.3001 0.11523 0.40852 0.0
C213 C 0.31566 0.13193 0.38902 0.0
C214 C 0.3356 0.16608 0.39017 0.0
C215 C 0.27485 0.08108 0.40692 0.0
C216 C 0.28612 0.04966 0.41938 0.0
C217 C 0.24015 0.07925 0.39278 0.0
C218 C 0.22448 0.11234 0.38074 0.0
C219 C 0.21903 0.11148 0.35733 0.0
C220 C 0.2047 0.14281 0.34597 0.0
C221 C 0.19554 0.17512 0.35788 0.0
C222 C 0.20052 0.17613 0.38118 0.0
C223 C 0.21478 0.14487 0.39261 0.0
H224 H 0.1845 0.19935 0.34905 0.0
H225 H 0.30771 0.89823 0.46733 0.0
H226 H 0.17263 0.3186 0.87351 0.0
H227 H 0.20619 0.37839 0.87007 0.0
H228 H 0.20144 0.39232 0.94199 0.0
H229 H 0.16882 0.3316 0.94569 0.0
H230 H 0.1879 0.44585 0.87854 0.0
H231 H 0.28707 0.44086 0.95949 0.0
H232 H 0.31828 0.39428 0.9845 0.0
H233 H 0.31926 0.31517 0.93066 0.0
H234 H 0.28896 0.36151 0.90518 0.0
H235 H 0.26714 0.62208 0.90169 0.0
H236 H 0.23541 0.56136 0.90363 0.0
H237 H 0.35107 0.50948 0.88978 0.0
H238 H 0.38363 0.57066 0.88842 0.0
H239 H 0.31309 0.47294 0.92219 0.0
H240 H 0.27631 0.51507 0.84918 0.0
H241 H 0.24974 0.55854 0.82077 0.0
H242 H 0.13249 0.55695 0.85265 0.0
H243 H 0.15851 0.51384 0.88145 0.0
C244 C 0.17834 0.3344 0.88865 0.0
C245 C 0.16827 0.32002 0.90992 0.0
C246 C 0.19758 0.36872 0.88663 0.0
C247 C 0.2071 0.38967 0.90577 0.0
C248 C 0.19526 0.37632 0.92698 0.0
C249 C 0.17623 0.34173 0.92906 0.0
C250 C 0.22991 0.42512 0.90334 0.0
C251 C 0.21521 0.45173 0.88815 0.0
C252 C 0.26626 0.43254 0.91541 0.0
C253 C 0.28521 0.40459 0.9305 0.0
C254 C 0.29411 0.41359 0.95295 0.0
C255 C 0.31167 0.38722 0.96721 0.0
C256 C 0.32057 0.35173 0.9592 0.0
C257 C 0.3122 0.34262 0.93686 0.0
C258 C 0.29484 0.36894 0.92251 0.0
C259 C 0.28595 0.59788 0.8988 0.0
C260 C 0.32798 0.60139 0.89464 0.0
C261 C 0.26764 0.56305 0.8999 0.0
C262 C 0.29065 0.53075 0.89656 0.0
C263 C 0.33264 0.53401 0.89237 0.0
C264 C 0.35115 0.56901 0.89141 0.0
C265 C 0.27059 0.49377 0.89768 0.0
C266 C 0.28577 0.46696 0.91262 0.0
C267 C 0.23533 0.48561 0.88491 0.0
C268 C 0.21947 0.51145 0.86758 0.0
C269 C 0.24494 0.5242 0.85022 0.0
C270 C 0.22996 0.54874 0.83404 0.0
C271 C 0.18948 0.56056 0.83493 0.0
C272 C 0.16385 0.54779 0.85199 0.0
C273 C 0.17869 0.52327 0.86824 0.0
H274 H 0.17794 0.57957 0.82238 0.0
H275 H 0.33405 0.33132 0.97028 0.0
H276 H 0.68648 0.60181 0.58821 0.0
H277 H 0.71582 0.53953 0.58602 0.0
H278 H 0.68089 0.51927 0.65477 0.0
H279 H 0.64993 0.58158 0.65671 0.0
H280 H 0.76674 0.50737 0.64379 0.0
H281 H 0.63491 0.47353 0.61935 0.0
H282 H 0.57115 0.47081 0.59767 0.0
H283 H 0.6382 0.44324 0.5381 0.0
H284 H 0.70261 0.44753 0.55912 0.0
H285 H 0.83362 0.3188 0.64254 0.0
H286 H 0.7981 0.3776 0.64725 0.0
H287 H 0.80415 0.39657 0.57579 0.0
H288 H 0.83895 0.33722 0.57083 0.0
H289 H 0.72964 0.40747 0.59047 0.0
H290 H 0.86198 0.44727 0.61448 0.0
H291 H 0.92506 0.44448 0.63689 0.0
H292 H 0.85573 0.45709 0.69756 0.0
H293 H 0.79215 0.45945 0.67552 0.0
C294 C 0.68444 0.58377 0.60272 0.0
C295 C 0.66604 0.59628 0.62263 0.0
C296 C 0.70108 0.54822 0.60143 0.0
C297 C 0.70049 0.52476 0.62021 0.0
C298 C 0.68148 0.53696 0.64007 0.0
C299 C 0.66377 0.57236 0.64117 0.0
C300 C 0.72281 0.48897 0.61937 0.0
C301 C 0.75821 0.4852 0.63241 0.0
C302 C 0.71228 0.46055 0.60404 0.0
C303 C 0.67383 0.46133 0.59084 0.0
C304 C 0.63627 0.46783 0.60151 0.0
C305 C 0.59993 0.46584 0.58934 0.0
C306 C 0.60062 0.45681 0.56653 0.0
C307 C 0.6377 0.45021 0.55578 0.0
C308 C 0.67417 0.45275 0.56778 0.0
C309 C 0.82803 0.33568 0.62781 0.0
C310 C 0.83913 0.3231 0.60626 0.0
C311 C 0.80777 0.36947 0.63057 0.0
C312 C 0.79855 0.39173 0.6119 0.0
C313 C 0.81086 0.37988 0.59046 0.0
C314 C 0.83102 0.346 0.58766 0.0
C315 C 0.77384 0.42611 0.61454 0.0
C316 C 0.73806 0.42965 0.60183 0.0
C317 C 0.78404 0.45433 0.63009 0.0
C318 C 0.82226 0.45317 0.64336 0.0
C319 C 0.86015 0.44917 0.63261 0.0
C320 C 0.896 0.44771 0.64525 0.0
C321 C 0.89439 0.4505 0.66864 0.0
C322 C 0.85693 0.45488 0.67944 0.0
C323 C 0.82097 0.45632 0.66688 0.0
H324 H 0.92218 0.44934 0.67839 0.0
H325 H 0.57243 0.455 0.55717 0.0
H326 H 0.65643 0.1774 0.13366 0.0
H327 H 0.69012 0.11741 0.13755 0.0
H328 H 0.73909 0.12814 0.07062 0.0
H329 H 0.70391 0.18762 0.06631 0.0
H330 H 0.72253 0.05956 0.0769 0.0
H331 H 0.79698 0.14783 0.11879 0.0
H332 H 0.80856 0.19829 0.14596 0.0
H333 H 0.76745 0.12824 0.19968 0.0
H334 H 0.75505 0.07751 0.17277 0.0
H335 H 0.88907 0.93419 0.13105 0.0
H336 H 0.86102 0.9965 0.12524 0.0
H337 H 0.74057 0.95019 0.11905 0.0
H338 H 0.76807 0.88819 0.12479 0.0
H339 H 0.80368 0.03975 0.14625 0.0
H340 H 0.69304 0.99224 0.07492 0.0
H341 H 0.69112 0.94388 0.04565 0.0
H342 H 0.82168 0.9377 0.04617 0.0
H343 H 0.82447 0.98644 0.07509 0.0
C344 C 0.67388 0.16674 0.11964 0.0
C345 C 0.67761 0.1874 0.09972 0.0
C346 C 0.69348 0.13252 0.12195 0.0
C347 C 0.71822 0.11853 0.10463 0.0
C348 C 0.72045 0.1383 0.0843 0.0
C349 C 0.70022 0.17232 0.08184 0.0
C350 C 0.74248 0.0839 0.10809 0.0
C351 C 0.74022 0.05534 0.09207 0.0
C352 C 0.76714 0.07863 0.12742 0.0
C353 C 0.77479 0.10895 0.14373 0.0
C354 C 0.79017 0.14326 0.13638 0.0
C355 C 0.7969 0.1719 0.15173 0.0
C356 C 0.78867 0.1665 0.17452 0.0
C357 C 0.77378 0.1324 0.18201 0.0
C358 C 0.76693 0.10367 0.16672 0.0
C359 C 0.85651 0.93734 0.12891 0.0
C360 C 0.83089 0.90607 0.12837 0.0
C361 C 0.84055 0.97299 0.12551 0.0
C362 C 0.79878 0.97795 0.12135 0.0
C363 C 0.77297 0.94699 0.12188 0.0
C364 C 0.78879 0.91151 0.12531 0.0
C365 C 0.78195 0.01509 0.11563 0.0
C366 C 0.78593 0.04412 0.13111 0.0
C367 C 0.76028 0.02129 0.09539 0.0
C368 C 0.75887 0.9928 0.07739 0.0
C369 C 0.72134 0.98076 0.06869 0.0
C370 C 0.72012 0.95323 0.05216 0.0
C371 C 0.75624 0.93762 0.04413 0.0
C372 C 0.7937 0.94964 0.0525 0.0
C373 C 0.79511 0.97721 0.06897 0.0
H374 H 0.75518 0.91625 0.03139 0.0
H375 H 0.7939 0.18871 0.18639 0.0
H376 H 0.77081 0.12005 0.61547 0.0
H377 H 0.74123 0.05832 0.61476 0.0
H378 H 0.85937 0.01038 0.62734 0.0
H379 H 0.88975 0.07249 0.62746 0.0
H380 H 0.82111 0.97239 0.59554 0.0
H381 H 0.78665 0.01466 0.669 0.0
H382 H 0.75975 0.05801 0.69738 0.0
H383 H 0.64113 0.05172 0.6673 0.0
H384 H 0.66743 0.00872 0.63854 0.0
H385 H 0.68606 0.81393 0.6448 0.0
H386 H 0.7206 0.87336 0.64867 0.0
H387 H 0.70921 0.89191 0.57736 0.0
H388 H 0.67528 0.83196 0.57323 0.0
H389 H 0.6995 0.94188 0.6414 0.0
H390 H 0.79417 0.94068 0.55876 0.0
H391 H 0.82463 0.89524 0.53274 0.0
H392 H 0.82991 0.81462 0.58571 0.0
H393 H 0.80033 0.85978 0.61216 0.0
C394 C 0.79062 0.09651 0.61833 0.0
C395 C 0.83268 0.10137 0.62178 0.0
C396 C 0.77355 0.06112 0.61795 0.0
C397 C 0.79793 0.02965 0.62129 0.0
C398 C 0.83995 0.03428 0.62478 0.0
C399 C 0.8572 0.06981 0.62504 0.0
C400 C 0.77931 0.99207 0.62075 0.0
C401 C 0.79459 0.96565 0.6056 0.0
C402 C 0.74513 0.98298 0.63416 0.0
C403 C 0.7291 0.00866 0.65152 0.0
C404 C 0.75488 0.02271 0.66835 0.0
C405 C 0.73973 0.04719 0.68452 0.0
C406 C 0.69878 0.05766 0.68412 0.0
C407 C 0.67285 0.0436 0.66758 0.0
C408 C 0.68785 0.01913 0.65136 0.0
C409 C 0.69062 0.83066 0.62991 0.0
C410 C 0.67806 0.81795 0.60866 0.0
C411 C 0.71042 0.86472 0.63217 0.0
C412 C 0.71817 0.88688 0.61327 0.0
C413 C 0.70434 0.87496 0.59214 0.0
C414 C 0.68462 0.84078 0.58983 0.0
C415 C 0.74064 0.92243 0.61581 0.0
C416 C 0.72607 0.9485 0.63135 0.0
C417 C 0.77595 0.9308 0.60308 0.0
C418 C 0.7945 0.90355 0.58739 0.0
C419 C 0.802 0.91333 0.56489 0.0
C420 C 0.81913 0.88761 0.55006 0.0
C421 C 0.82904 0.85202 0.55754 0.0
C422 C 0.82208 0.84215 0.57991 0.0
C423 C 0.80511 0.86781 0.59483 0.0
H424 H 0.8422 0.83214 0.54602 0.0
H425 H 0.68711 0.07663 0.69664 0.0
H426 H 0.83232 0.67504 0.07281 0.0
H427 H 0.80027 0.6141 0.07666 0.0
H428 H 0.80797 0.62295 0.14876 0.0
H429 H 0.83954 0.68386 0.14512 0.0
H430 H 0.81896 0.54766 0.09504 0.0
H431 H 0.72068 0.59094 0.17186 0.0
H432 H 0.69009 0.64768 0.18771 0.0
H433 H 0.68831 0.69749 0.12221 0.0
H434 H 0.71827 0.64089 0.10593 0.0
H435 H 0.73581 0.38596 0.13992 0.0
H436 H 0.76799 0.44689 0.13832 0.0
H437 H 0.65501 0.49491 0.11544 0.0
H438 H 0.62215 0.43406 0.11795 0.0
H439 H 0.69333 0.54277 0.14136 0.0
H440 H 0.73003 0.46867 0.07799 0.0
H441 H 0.75434 0.4106 0.06069 0.0
H442 H 0.87038 0.424 0.09287 0.0
H443 H 0.84657 0.48185 0.11067 0.0
C444 C 0.82779 0.66381 0.08949 0.0
C445 C 0.83818 0.68466 0.10866 0.0
C446 C 0.80944 0.6289 0.09166 0.0
C447 C 0.80099 0.61417 0.113 0.0
C448 C 0.81344 0.63399 0.13211 0.0
C449 C 0.83168 0.66884 0.12998 0.0
C450 C 0.77725 0.57918 0.11543 0.0
C451 C 0.79155 0.54661 0.10517 0.0
C452 C 0.74076 0.57784 0.12814 0.0
C453 C 0.72211 0.61179 0.13774 0.0
C454 C 0.71359 0.61395 0.16084 0.0
C455 C 0.69638 0.64609 0.16989 0.0
C456 C 0.68739 0.67621 0.15599 0.0
C457 C 0.69542 0.6742 0.13298 0.0
C458 C 0.71255 0.6421 0.12383 0.0
C459 C 0.71756 0.40965 0.13505 0.0
C460 C 0.67649 0.40519 0.12896 0.0
C461 C 0.73608 0.44445 0.13396 0.0
C462 C 0.7143 0.47538 0.12613 0.0
C463 C 0.67257 0.47146 0.12139 0.0
C464 C 0.65376 0.43667 0.1229 0.0
C465 C 0.73572 0.51104 0.12159 0.0
C466 C 0.72083 0.54378 0.13129 0.0
C467 C 0.77094 0.51271 0.10781 0.0
C468 C 0.78639 0.47945 0.09582 0.0
C469 C 0.76076 0.45925 0.08136 0.0
C470 C 0.77439 0.42632 0.07153 0.0
C471 C 0.81375 0.41348 0.07584 0.0
C472 C 0.83982 0.4339 0.08966 0.0
C473 C 0.8263 0.46681 0.09959 0.0
H474 H 0.82407 0.38776 0.06842 0.0
H475 H 0.67411 0.70108 0.16304 0.0
H476 H 0.26662 0.3828 0.39269 0.0
H477 H 0.23637 0.44405 0.39566 0.0
H478 H 0.3525 0.49398 0.38055 0.0
H479 H 0.38358 0.43228 0.3782 0.0
H480 H 0.31951 0.52838 0.41448 0.0
H481 H 0.27198 0.49336 0.34198 0.0
H482 H 0.23975 0.45329 0.31354 0.0
H483 H 0.12689 0.45724 0.34986 0.0
H484 H 0.1586 0.49695 0.37869 0.0
H485 H 0.1768 0.68968 0.37462 0.0
H486 H 0.21043 0.63041 0.36878 0.0
H487 H 0.21607 0.61332 0.44045 0.0
H488 H 0.18321 0.67351 0.44649 0.0
H489 H 0.19095 0.56379 0.37642 0.0
H490 H 0.29846 0.55908 0.45364 0.0
H491 H 0.34218 0.59926 0.47692 0.0
H492 H 0.3446 0.6807 0.42433 0.0
H493 H 0.30178 0.6405 0.40054 0.0
C494 C 0.28579 0.40669 0.38963 0.0
C495 C 0.32762 0.40246 0.38505 0.0
C496 C 0.2683 0.44185 0.3913 0.0
C497 C 0.29193 0.4738 0.38811 0.0
C498 C 0.33356 0.46977 0.38307 0.0
C499 C 0.35124 0.43445 0.38153 0.0
C500 C 0.27336 0.51122 0.39103 0.0
C501 C 0.29141 0.53616 0.40614 0.0
C502 C 0.23701 0.52172 0.37992 0.0
C503 C 0.21778 0.49789 0.3626 0.0
C504 C 0.24037 0.48547 0.34399 0.0
C505 C 0.22218 0.46286 0.32778 0.0
C506 C 0.18133 0.45266 0.32992 0.0
C507 C 0.15855 0.46514 0.34824 0.0
C508 C 0.1766 0.48773 0.36451 0.0
C509 C 0.18497 0.67336 0.38921 0.0
C510 C 0.17718 0.68652 0.41105 0.0
C511 C 0.20429 0.63933 0.38582 0.0
C512 C 0.21634 0.61737 0.40413 0.0
C513 C 0.2078 0.62995 0.426 0.0
C514 C 0.18852 0.66422 0.42944 0.0
C515 C 0.23693 0.58108 0.40004 0.0
C516 C 0.21905 0.55615 0.38481 0.0
C517 C 0.27404 0.57106 0.41059 0.0
C518 C 0.29686 0.59679 0.42537 0.0
C519 C 0.3084 0.58553 0.44706 0.0
C520 C 0.33315 0.60823 0.4603 0.0
C521 C 0.34648 0.64235 0.45201 0.0
C522 C 0.33444 0.65415 0.43065 0.0
C523 C 0.30986 0.63143 0.41731 0.0
H524 H 0.36593 0.65976 0.4622 0.0
H525 H 0.1673 0.43516 0.31735 0.0
H526 H 0.24099 0.12198 0.89219 0.0
H527 H 0.27346 0.06167 0.89304 0.0
H528 H 0.15695 0.00875 0.88365 0.0
H529 H 0.12357 0.06973 0.88349 0.0
H530 H 0.19858 0.97354 0.91523 0.0
H531 H 0.22819 0.01265 0.84069 0.0
H532 H 0.25121 0.05498 0.81077 0.0
H533 H 0.37127 0.05677 0.8393 0.0
H534 H 0.34884 0.01484 0.86959 0.0
H535 H 0.33671 0.81632 0.87053 0.0
H536 H 0.30426 0.87619 0.86441 0.0
H537 H 0.31545 0.90109 0.935 0.0
H538 H 0.34683 0.84052 0.94146 0.0
H539 H 0.32148 0.94672 0.86944 0.0
H540 H 0.23572 0.94187 0.95345 0.0
H541 H 0.21365 0.89361 0.98028 0.0
H542 H 0.19854 0.8164 0.92608 0.0
H543 H 0.22079 0.86404 0.89899 0.0
C544 C 0.22206 0.09767 0.89 0.0
C545 C 0.17955 0.10085 0.88758 0.0
C546 C 0.24084 0.06305 0.89044 0.0
C547 C 0.21783 0.03056 0.8881 0.0
C548 C 0.17538 0.03345 0.88541 0.0
C549 C 0.15638 0.06832 0.88512 0.0
C550 C 0.23847 0.99385 0.88919 0.0
C551 C 0.22526 0.96769 0.90509 0.0
C552 C 0.27302 0.98568 0.87577 0.0
C553 C 0.28674 0.01078 0.85751 0.0
C554 C 0.25944 0.02226 0.84067 0.0
C555 C 0.27239 0.04616 0.82363 0.0
C556 C 0.31266 0.05861 0.82316 0.0
C557 C 0.34008 0.04711 0.8397 0.0
C558 C 0.32728 0.02323 0.85679 0.0
C559 C 0.33276 0.83462 0.88478 0.0
C560 C 0.34384 0.82328 0.90659 0.0
C561 C 0.31423 0.86897 0.8812 0.0
C562 C 0.30654 0.89281 0.8993 0.0
C563 C 0.32017 0.88273 0.92085 0.0
C564 C 0.33839 0.84819 0.9245 0.0
C565 C 0.28219 0.92711 0.8958 0.0
C566 C 0.29467 0.95267 0.87946 0.0
C567 C 0.24632 0.9342 0.90827 0.0
C568 C 0.22991 0.90649 0.92425 0.0
C569 C 0.22724 0.91472 0.94726 0.0
C570 C 0.21498 0.88742 0.96251 0.0
C571 C 0.20465 0.85204 0.95486 0.0
C572 C 0.20649 0.84384 0.93196 0.0
C573 C 0.21902 0.87093 0.91668 0.0
H574 H 0.19534 0.83093 0.96665 0.0
H575 H 0.32262 0.07712 0.80995 0.0
H576 H 0.4025 0.3743 0.48818 0.0
H577 H 0.43198 0.42735 0.50873 0.0
H578 H 0.4989 0.45909 0.44941 0.0
H579 H 0.46972 0.40716 0.42905 0.0
H580 H 0.54553 0.46424 0.48737 0.0
H581 H 0.41533 0.50185 0.45981 0.0
H582 H 0.34111 0.49761 0.45441 0.0
H583 H 0.32265 0.50927 0.52547 0.0
H584 H 0.39695 0.51256 0.53136 0.0
H585 H 0.59656 0.64931 0.52252 0.0
H586 H 0.56534 0.60137 0.49846 0.0
H587 H 0.49941 0.55899 0.55564 0.0
H588 H 0.53023 0.60579 0.57941 0.0
H589 H 0.4526 0.56151 0.51644 0.0
H590 H 0.58743 0.52702 0.54218 0.0
H591 H 0.66176 0.53448 0.54477 0.0
H592 H 0.67233 0.52005 0.47342 0.0
H593 H 0.59777 0.51374 0.47029 0.0
C594 C 0.42378 0.39251 0.47973 0.0
C595 C 0.43337 0.38707 0.45702 0.0
C596 C 0.44048 0.42272 0.49137 0.0
C597 C 0.46739 0.44719 0.48045 0.0
C598 C 0.47825 0.4406 0.45811 0.0
C599 C 0.46124 0.41105 0.44649 0.0
C600 C 0.48299 0.48089 0.49167 0.0
C601 C 0.52528 0.48567 0.4936 0.0
C602 C 0.45646 0.50889 0.49951 0.0
C603 C 0.41175 0.50691 0.49607 0.0
C604 C 0.39549 0.50304 0.47433 0.0
C605 C 0.3534 0.50085 0.47117 0.0
C606 C 0.32717 0.50308 0.48959 0.0
C607 C 0.34301 0.50747 0.51122 0.0
C608 C 0.38513 0.50943 0.51448 0.0
C609 C 0.57505 0.62994 0.52975 0.0
C610 C 0.5664 0.63072 0.55283 0.0
C611 C 0.55724 0.60275 0.51608 0.0
C612 C 0.53028 0.57664 0.5254 0.0
C613 C 0.52006 0.57889 0.54815 0.0
C614 C 0.53812 0.60543 0.56174 0.0
C615 C 0.51511 0.54466 0.5124 0.0
C616 C 0.47287 0.54016 0.51013 0.0
C617 C 0.54179 0.51721 0.50394 0.0
C618 C 0.58679 0.52039 0.50596 0.0
C619 C 0.60545 0.52591 0.52697 0.0
C620 C 0.64768 0.52998 0.52855 0.0
C621 C 0.67176 0.52783 0.50926 0.0
C622 C 0.65363 0.52174 0.48836 0.0
C623 C 0.61135 0.51802 0.48667 0.0
H624 H 0.70448 0.5308 0.51053 0.0
H625 H 0.29457 0.50153 0.4871 0.0
H626 H 0.89936 0.93015 0.07781 0.0
H627 H 0.92862 0.98017 0.05609 0.0
H628 H 0.96193 0.90289 1.00388 0.0
H629 H 0.93454 0.85171 0.02645 0.0
H630 H 0.02485 0.94187 0.01568 0.0
H631 H 0.88811 0.97676 0.99469 0.0
H632 H 0.81574 0.98957 1.00279 0.0
H633 H 0.85032 0.07581 0.04864 0.0
H634 H 0.92289 0.06339 0.04086 0.0
H635 H 0.0954 0.07496 0.93921 0.0
H636 H 0.06122 0.02672 0.9602 0.0
H637 H 0.03522 0.10422 0.01338 0.0
H638 H 0.06718 0.15418 0.99145 0.0
H639 H 0.96665 0.06592 1.00044 0.0
H640 H 0.10401 0.03379 0.02026 0.0
H641 H 0.17631 0.01822 0.01421 0.0
H642 H 0.14151 0.92427 0.97433 0.0
H643 H 0.06927 0.93953 0.97985 0.0
C644 C 0.91235 0.92368 0.06154 0.0
C645 C 0.91532 0.88677 0.05403 0.0
C646 C 0.92867 0.95257 0.04895 0.0
C647 C 0.94739 0.9455 0.02824 0.0
C648 C 0.94768 0.90901 0.01987 0.0
C649 C 0.93181 0.87979 0.03268 0.0
C650 C 0.97085 0.97537 0.01689 0.0
C651 C 0.01201 0.96883 0.01213 0.0
C652 C 0.95444 0.01104 0.01294 0.0
C653 C 0.91086 0.01932 0.01709 0.0
C654 C 0.88023 0.99854 1.00644 0.0
C655 C 0.8392 0.00574 0.01096 0.0
C656 C 0.82844 0.03362 0.02613 0.0
C657 C 0.85869 0.05435 0.03681 0.0
C658 C 0.89977 0.04735 0.03228 0.0
C659 C 0.08266 0.08203 0.95544 0.0
C660 C 0.0835 0.11877 0.96347 0.0
C661 C 0.06325 0.05414 0.96751 0.0
C662 C 0.0451 0.06186 0.98827 0.0
C663 C 0.04806 0.09793 0.9971 0.0
C664 C 0.06693 0.12629 0.98475 0.0
C665 C 0.02111 0.03255 0.9998 0.0
C666 C 0.97974 0.03914 1.0044 0.0
C667 C 0.03748 0.99687 1.00391 0.0
C668 C 0.08116 0.98807 1.00028 0.0
C669 C 0.11181 0.01004 0.01 0.0
C670 C 0.15284 1.00119 1.00672 0.0
C671 C 0.16359 0.97032 0.99385 0.0
C672 C 0.13332 0.9482 0.98427 0.0
C673 C 0.09231 0.95694 0.98748 0.0
H674 H 0.19537 0.96351 0.99136 0.0
H675 H 0.79667 0.03902 0.0297 0.0
H676 H 0.87646 0.09101 0.55402 0.0
H677 H 0.90706 0.03837 0.53432 0.0
H678 H 0.00989 0.1065 0.51615 0.0
H679 H 0.97842 0.15957 0.53524 0.0
H680 H 0.99228 0.05645 0.48336 0.0
H681 H 0.01051 0.05325 0.56457 0.0
H682 H 0.98385 0.0544 0.60331 0.0
H683 H 0.91292 0.95693 0.58993 0.0
H684 H 0.93891 0.95541 0.55103 0.0
H685 H 0.13101 0.91809 0.46 0.0
H686 H 0.1016 0.97027 0.4805 0.0
H687 H 0.00661 0.89899 0.50575 0.0
H688 H 0.0371 0.84621 0.48588 0.0
H689 H 0.01824 0.95038 0.53459 0.0
H690 H 0.99706 0.95117 0.45488 0.0
H691 H 0.01897 0.94865 0.41527 0.0
H692 H 0.08832 0.04839 0.42422 0.0
H693 H 0.06722 0.05126 0.46397 0.0
C694 C 0.90484 0.09499 0.54505 0.0
C695 C 0.92498 0.12925 0.5458 0.0
C696 C 0.92251 0.06488 0.53404 0.0
C697 C 0.96126 0.06825 0.52429 0.0
C698 C 0.98004 0.10324 0.52362 0.0
C699 C 0.96194 0.13361 0.53432 0.0
C700 C 0.98378 0.03482 0.51671 0.0
C701 C 0.99836 0.03344 0.49461 0.0
C702 C 0.99077 1.00431 0.53124 0.0
C703 C 0.97653 1.0043 0.55489 0.0
C704 C 0.98925 0.03206 0.56991 0.0
C705 C 0.97423 0.0328 0.59188 0.0
C706 C 0.94674 0.00574 0.59908 0.0
C707 C 0.93429 0.97782 0.58434 0.0
C708 C 0.94922 0.97696 0.56235 0.0
C709 C 0.10457 0.91339 0.47052 0.0
C710 C 0.08604 0.87839 0.47129 0.0
C711 C 0.08749 0.94327 0.48201 0.0
C712 C 0.05063 0.93896 0.4937 0.0
C713 C 0.0344 0.90316 0.49632 0.0
C714 C 0.05201 0.87297 0.48516 0.0
C715 C 0.02718 0.97204 0.50122 0.0
C716 C 0.01228 0.97335 0.5233 0.0
C717 C 0.0192 1.00221 0.48653 0.0
C718 C 0.03078 1.00129 0.46243 0.0
C719 C 0.01702 0.97254 0.4484 0.0
C720 C 0.02932 0.97103 0.42593 0.0
C721 C 0.05503 0.99834 0.41724 0.0
C722 C 0.06838 0.02729 0.43098 0.0
C723 C 0.05622 0.0289 0.45347 0.0
H724 H 0.0646 0.99707 0.39986 0.0
H725 H 0.93516 0.00639 0.61609 0.0
H726 H 0.45204 0.66409 0.99178 0.0
H727 H 0.48453 0.61346 0.01291 0.0
H728 H 0.41813 0.53349 0.97349 0.0
H729 H 0.38473 0.58351 0.95319 0.0
H730 H 0.42846 0.50627 0.01269 0.0
H731 H 0.51518 0.56324 0.95849 0.0
H732 H 0.55324 0.61294 0.93933 0.0
H733 H 0.61985 0.63508 0.99991 0.0
H734 H 0.5818 0.58573 0.01954 0.0
H735 H 0.56297 0.35498 0.02503 0.0
H736 H 0.53065 0.40712 1.00512 0.0
H737 H 0.58202 0.48348 0.05296 0.0
H738 H 0.61489 0.43218 0.07251 0.0
H739 H 0.57937 0.51179 0.00961 0.0
H740 H 0.48975 0.44684 0.06182 0.0
H741 H 0.45441 0.39111 0.0758 0.0
H742 H 0.39362 0.37902 0.01236 0.0
H743 H 0.42929 0.4342 0.99784 0.0
C744 C 0.44326 0.63574 0.98837 0.0
C745 C 0.41633 0.62764 0.97076 0.0
C746 C 0.46219 0.60689 1.00016 0.0
C747 C 0.45469 0.56974 0.99429 0.0
C748 C 0.42476 0.56185 0.97821 0.0
C749 C 0.4057 0.59051 0.9666 0.0
C750 C 0.48041 0.53921 1.00316 0.0
C751 C 0.46143 0.50745 0.01187 0.0
C752 C 0.52349 0.54049 1.00197 0.0
C753 C 0.54546 0.571 0.99051 0.0
C754 C 0.53765 0.57896 0.96779 0.0
C755 C 0.55926 0.60699 0.95684 0.0
C756 C 0.58902 0.62701 0.96838 0.0
C757 C 0.59686 0.61943 0.99099 0.0
C758 C 0.57529 0.59144 1.00204 0.0
C759 C 0.56826 0.38299 0.03085 0.0
C760 C 0.5907 0.38954 0.05052 0.0
C761 C 0.54955 0.41257 0.01963 0.0
C762 C 0.55306 0.44881 0.02801 0.0
C763 C 0.57857 0.45566 0.04639 0.0
C764 C 0.59719 0.42628 0.05757 0.0
C765 C 0.52738 0.47916 0.01915 0.0
C766 C 0.54639 0.51083 0.01048 0.0
C767 C 0.48433 0.47733 0.01978 0.0
C768 C 0.46244 0.4445 0.02869 0.0
C769 C 0.46906 0.43216 0.05081 0.0
C770 C 0.44897 0.40066 0.05883 0.0
C771 C 0.42179 0.38156 0.04498 0.0
C772 C 0.41466 0.39388 0.02308 0.0
C773 C 0.43484 0.42522 0.01494 0.0
H774 H 0.40617 0.35728 0.05123 0.0
H775 H 0.6063 0.64812 0.95974 0.0
H776 H 0.51886 0.28031 0.15489 0.0
H777 H 0.48603 0.27389 0.19132 0.0
H778 H 0.603 0.27881 0.22405 0.0
H779 H 0.63651 0.28521 0.18734 0.0
H780 H 0.55092 0.22656 0.2435 0.0
H781 H 0.54599 0.35465 0.22204 0.0
H782 H 0.53149 0.40727 0.19685 0.0
H783 H 0.40456 0.37882 0.19657 0.0
H784 H 0.4184 0.32565 0.22151 0.0
H785 H 0.48794 0.28072 0.35207 0.0
H786 H 0.51779 0.27381 0.31499 0.0
H787 H 0.39825 0.27829 0.28511 0.0
H788 H 0.36784 0.28609 0.32253 0.0
H789 H 0.4497 0.32325 0.26352 0.0
H790 H 0.45421 0.19674 0.28684 0.0
H791 H 0.4691 0.14449 0.31224 0.0
H792 H 0.59671 0.16989 0.30936 0.0
H793 H 0.58254 0.22265 0.28419 0.0
C794 C 0.53786 0.27973 0.16976 0.0
C795 C 0.58044 0.28375 0.16812 0.0
C796 C 0.5189 0.27612 0.19063 0.0
C797 C 0.54191 0.27654 0.21047 0.0
C798 C 0.58459 0.27861 0.20895 0.0
C799 C 0.60372 0.28227 0.18796 0.0
C800 C 0.52101 0.27653 0.23269 0.0
C801 C 0.52914 0.24791 0.24801 0.0
C802 C 0.49176 0.30387 0.23836 0.0
C803 C 0.4833 0.33594 0.22346 0.0
C804 C 0.51503 0.35943 0.21646 0.0
C805 C 0.50693 0.38939 0.20225 0.0
C806 C 0.46714 0.39633 0.19506 0.0
C807 C 0.43537 0.37337 0.20212 0.0
C808 C 0.44332 0.34334 0.21631 0.0
C809 C 0.46773 0.27991 0.3377 0.0
C810 C 0.42535 0.28413 0.34036 0.0
C811 C 0.48497 0.27567 0.31642 0.0
C812 C 0.46037 0.27512 0.29716 0.0
C813 C 0.41791 0.27853 0.29971 0.0
C814 C 0.40051 0.2828 0.32112 0.0
C815 C 0.47951 0.27323 0.27445 0.0
C816 C 0.47118 0.30164 0.25901 0.0
C817 C 0.50857 0.24571 0.26872 0.0
C818 C 0.51726 0.21384 0.28375 0.0
C819 C 0.48542 0.19136 0.29174 0.0
C820 C 0.49374 0.16161 0.30608 0.0
C821 C 0.53382 0.15392 0.31245 0.0
C822 C 0.56567 0.1759 0.30443 0.0
C823 C 0.55752 0.2057 0.2901 0.0
H824 H 0.54019 0.13089 0.32355 0.0
H825 H 0.46093 0.41954 0.18407 0.0
H826 H 0.01729 0.21962 0.85566 0.0
H827 H 0.98613 0.22449 0.81869 0.0
H828 H 0.10459 0.21832 0.78772 0.0
H829 H 0.13641 0.21365 0.82499 0.0
H830 H 0.05461 0.26955 0.76675 0.0
H831 H 0.04536 0.14245 0.78987 0.0
H832 H 0.0283 0.09109 0.81552 0.0
H833 H 0.90217 0.12232 0.81351 0.0
H834 H 0.91857 0.17423 0.78809 0.0
H835 H 0.99192 0.21607 0.6578 0.0
H836 H 0.02178 0.22126 0.69503 0.0
H837 H 0.9019 0.22083 0.72458 0.0
H838 H 0.87147 0.21488 0.68707 0.0
H839 H 0.95158 0.17463 0.74664 0.0
H840 H 0.96024 0.30058 0.72244 0.0
H841 H 0.97722 0.35188 0.69674 0.0
H842 H 0.10393 0.32315 0.7006 0.0
H843 H 0.08765 0.27133 0.72609 0.0
C844 C 0.03696 0.21951 0.84106 0.0
C845 C 0.07947 0.21579 0.84338 0.0
C846 C 0.01896 0.22222 0.81986 0.0
C847 C 0.04286 0.22106 0.80035 0.0
C848 C 0.08547 0.21906 0.80253 0.0
C849 C 0.10363 0.21638 0.82386 0.0
C850 C 0.02298 0.22064 0.77781 0.0
C851 C 0.03248 0.24854 0.76223 0.0
C852 C 0.99325 0.19379 0.77208 0.0
C853 C 0.98326 0.16245 0.78725 0.0
C854 C 0.01403 0.13854 0.79503 0.0
C855 C 1.00447 0.1093 0.80951 0.0
C856 C 0.96419 0.10351 0.81618 0.0
C857 C 0.93336 0.12688 0.80835 0.0
C858 C 0.94277 0.1562 0.79389 0.0
C859 C 0.97166 0.21732 0.67213 0.0
C860 C 0.92913 0.21497 0.66933 0.0
C861 C 0.98892 0.22053 0.6935 0.0
C862 C 0.9642 0.22188 0.7127 0.0
C863 C 0.92167 0.21995 0.71003 0.0
C864 C 0.90427 0.2167 0.68855 0.0
C865 C 0.98311 0.22359 0.7355 0.0
C866 C 0.97353 0.19582 0.75114 0.0
C867 C 0.01272 0.25058 0.74127 0.0
C868 C 0.02267 0.28187 0.72604 0.0
C869 C 0.9917 0.30503 0.71769 0.0
C870 C 1.0012 0.33423 0.70317 0.0
C871 C 0.04162 0.34072 0.697 0.0
C872 C 0.07263 0.31807 0.70538 0.0
C873 C 0.06329 0.28881 0.71989 0.0
H874 H 0.04891 0.36333 0.68576 0.0
H875 H 0.95685 0.08085 0.82739 0.0
H876 H 0.49374 0.70458 0.85944 0.0
H877 H 0.52592 0.71008 0.82288 0.0
H878 H 0.40838 0.72562 0.79194 0.0
H879 H 0.37546 0.71917 0.82877 0.0
H880 H 0.45249 0.67792 0.76839 0.0
H881 H 0.47719 0.79837 0.79882 0.0
H882 H 0.49989 0.8438 0.82709 0.0
H883 H 0.62182 0.80135 0.82291 0.0
H884 H 0.59973 0.75529 0.79483 0.0
H885 H 0.52505 0.73311 0.66301 0.0
H886 H 0.49537 0.73656 0.70038 0.0
H887 H 0.61099 0.70708 0.72966 0.0
H888 H 0.64136 0.70348 0.69192 0.0
H889 H 0.56841 0.76284 0.7539 0.0
H890 H 0.54264 0.64172 0.72385 0.0
H891 H 0.51952 0.59698 0.69528 0.0
H892 H 0.39858 0.64192 0.69867 0.0
H893 H 0.42115 0.68735 0.72703 0.0
C894 C 0.4745 0.70937 0.84495 0.0
C895 C 0.43182 0.7114 0.84715 0.0
C896 C 0.49313 0.71276 0.82398 0.0
C897 C 0.46976 0.71883 0.8046 0.0
C898 C 0.42713 0.72108 0.80666 0.0
C899 C 0.40833 0.71749 0.82773 0.0
C900 C 0.48996 0.72125 0.7822 0.0
C901 C 0.47735 0.69697 0.76515 0.0
C902 C 0.52327 0.74535 0.77806 0.0
C903 C 0.53671 0.77316 0.79485 0.0
C904 C 0.50878 0.79854 0.80404 0.0
C905 C 0.52155 0.82443 0.82002 0.0
C906 C 0.56225 0.8254 0.82683 0.0
C907 C 0.59029 0.80054 0.81764 0.0
C908 C 0.57768 0.77456 0.80167 0.0
C909 C 0.54448 0.72762 0.67734 0.0
C910 C 0.58557 0.7175 0.67439 0.0
C911 C 0.52733 0.72958 0.69874 0.0
C912 C 0.5507 0.7214 0.7178 0.0
C913 C 0.59233 0.71329 0.71514 0.0
C914 C 0.60966 0.71127 0.69358 0.0
C915 C 0.53075 0.71965 0.74022 0.0
C916 C 0.54345 0.74393 0.75722 0.0
C917 C 0.49742 0.69566 0.74433 0.0
C918 C 0.48368 0.66817 0.72741 0.0
C919 C 0.51119 0.64226 0.71838 0.0
C920 C 0.49817 0.61675 0.70224 0.0
C921 C 0.45763 0.61667 0.69513 0.0
C922 C 0.42999 0.64205 0.70418 0.0
C923 C 0.44287 0.66767 0.7203 0.0
H924 H 0.44761 0.59689 0.68263 0.0
H925 H 0.57207 0.84547 0.8392 0.0
H926 H 0.9908 0.78986 0.16232 0.0
H927 H 0.02188 0.78484 0.19926 0.0
H928 H 0.90288 0.78123 0.22981 0.0
H929 H 0.87123 0.78712 0.19263 0.0
H930 H 0.9506 0.82858 0.25157 0.0
H931 H 0.9654 0.70332 0.22664 0.0
H932 H 0.98483 0.65318 0.20063 0.0
H933 H 0.1099 0.68727 0.20426 0.0
H934 H 0.09114 0.73796 0.23006 0.0
H935 H 0.01892 0.78416 0.36009 0.0
H936 H 0.98792 0.77888 0.3231 0.0
H937 H 0.1059 0.79016 0.29211 0.0
H938 H 0.13758 0.79522 0.32939 0.0
H939 H 0.0584 0.73753 0.27084 0.0
H940 H 0.04323 0.86365 0.29476 0.0
H941 H 0.024 0.91383 0.32079 0.0
H942 H 0.89943 0.87791 0.31886 0.0
H943 H 0.91803 0.82715 0.29306 0.0
C944 C 0.97102 0.78768 0.17681 0.0
C945 C 0.92835 0.789 0.1744 0.0
C946 C 0.98898 0.78458 0.19801 0.0
C947 C 0.96486 0.78225 0.21741 0.0
C948 C 0.92221 0.78292 0.2151 0.0
C949 C 0.90412 0.78612 0.19381 0.0
C950 C 0.98435 0.78105 0.24007 0.0
C951 C 0.97362 0.80821 0.25589 0.0
C952 C 0.01538 0.75522 0.24557 0.0
C953 C 0.02679 0.72465 0.23014 0.0
C954 C 0.99701 0.7003 0.22177 0.0
C955 C 0.00791 0.67175 0.20708 0.0
C956 C 0.04856 0.66709 0.20076 0.0
C957 C 0.07841 0.69093 0.20915 0.0
C958 C 0.06767 0.71955 0.22383 0.0
C959 C 0.03852 0.78533 0.34548 0.0
C960 C 0.08083 0.79057 0.34779 0.0
C961 C 0.02062 0.78237 0.32428 0.0
C962 C 0.0444 0.78483 0.30477 0.0
C963 C 0.08688 0.7884 0.30693 0.0
C964 C 0.10495 0.79131 0.32826 0.0
C965 C 0.02446 0.78493 0.28226 0.0
C966 C 0.03521 0.75772 0.2665 0.0
C967 C 0.99343 0.8107 0.27676 0.0
C968 C 0.9821 0.84138 0.29214 0.0
C969 C 0.01179 0.86628 0.30001 0.0
C970 C 1.001 0.89485 0.31471 0.0
C971 C 0.96054 0.899 0.32152 0.0
C972 C 0.93076 0.87464 0.31359 0.0
C973 C 0.94141 0.84598 0.29892 0.0
H974 H 0.95224 0.92114 0.3329 0.0
H975 H 0.05693 0.64497 0.18938 0.0
H976 H 0.53528 0.32192 0.43125 0.0
H977 H 0.59367 0.30855 0.45553 0.0
H978 H 0.54131 0.20262 0.47259 0.0
H979 H 0.48368 0.21523 0.44802 0.0
H980 H 0.59498 0.29888 0.49978 0.0
H981 H 0.61409 0.14095 0.48556 0.0
H982 H 0.60632 0.09517 0.45508 0.0
H983 H 0.62645 0.18037 0.40597 0.0
H984 H 0.63489 0.22654 0.43614 0.0
H985 H 0.726 0.22888 0.58648 0.0
H986 H 0.66707 0.23707 0.5615 0.0
H987 H 0.7437 0.21555 0.50407 0.0
H988 H 0.80136 0.2057 0.52858 0.0
H989 H 0.6769 0.18349 0.49729 0.0
H990 H 0.71405 0.30613 0.52367 0.0
H991 H 0.72544 0.35401 0.55263 0.0
H992 H 0.60074 0.34509 0.57353 0.0
H993 H 0.58878 0.2967 0.54502 0.0
C994 C 0.53672 0.29536 0.43969 0.0
C995 C 0.50474 0.26964 0.43761 0.0
C996 C 0.5699 0.28794 0.45379 0.0
C997 C 0.57192 0.25461 0.46595 0.0
C998 C 0.54078 0.22836 0.46323 0.0
C999 C 0.50776 0.23566 0.44913 0.0
C1000 C 0.60567 0.24769 0.48212 0.0
C1001 C 0.61305 0.27372 0.49919 0.0
C1002 C 0.62927 0.2149 0.4814 0.0
C1003 C 0.62471 0.18725 0.46312 0.0
C1004 C 0.61701 0.14988 0.46826 0.0
C1005 C 0.61246 0.12387 0.45104 0.0
C1006 C 0.61575 0.13488 0.42861 0.0
C1007 C 0.62375 0.1719 0.42335 0.0
C1008 C 0.62836 0.19801 0.4405 0.0
C1009 C 0.73003 0.22542 0.56855 0.0
C1010 C 0.76855 0.2168 0.55962 0.0
C1011 C 0.69642 0.23044 0.55425 0.0
C1012 C 0.70097 0.22755 0.53078 0.0
C1013 C 0.73916 0.21794 0.52204 0.0
C1014 C 0.77233 0.21242 0.5362 0.0
C1015 C 0.66671 0.23485 0.51493 0.0
C1016 C 0.65894 0.20872 0.49795 0.0
C1017 C 0.64348 0.26797 0.51546 0.0
C1018 C 0.65067 0.29743 0.5324 0.0
C1019 C 0.68914 0.3142 0.53455 0.0
C1020 C 0.69569 0.34143 0.55088 0.0
C1021 C 0.66388 0.35238 0.56498 0.0
C1022 C 0.62538 0.33641 0.56266 0.0
C1023 C 0.61871 0.30909 0.54644 0.0
H1024 H 0.66897 0.37322 0.57771 0.0
H1025 H 0.61219 0.11471 0.4153 0.0
H1026 H 0.03013 0.2946 0.94807 0.0
H1027 H 0.97505 0.31272 0.97288 0.0
H1028 H 0.91553 0.20791 0.96107 0.0
H1029 H 0.97215 0.18867 0.93692 0.0
H1030 H 0.90066 0.32585 0.97189 0.0
H1031 H 0.86349 0.18026 1.00559 0.0
H1032 H 0.89556 0.12078 0.01537 0.0
H1033 H 0.01137 0.17475 0.02237 0.0
H1034 H 0.97991 0.23469 0.01239 0.0
H1035 H 0.71747 0.32574 0.0325 0.0
H1036 H 0.77605 0.32019 0.00827 0.0
H1037 H 0.84927 0.28508 0.06463 0.0
H1038 H 0.78921 0.28833 0.08906 0.0
H1039 H 0.86108 0.24026 0.03325 0.0
H1040 H 0.86596 0.37258 0.03358 0.0
H1041 H 0.83938 0.43646 0.03083 0.0
H1042 H 0.79937 0.4155 0.96339 0.0
H1043 H 0.82575 0.35158 0.96571 0.0
C1044 C 0.00517 0.27541 0.95049 0.0
C1045 C 0.00595 0.23989 0.9407 0.0
C1046 C 0.9735 0.28592 0.96474 0.0
C1047 C 0.94146 0.26142 0.96941 0.0
C1048 C 0.9405 0.22696 0.95831 0.0
C1049 C 0.9726 0.21616 0.94421 0.0
C1050 C 0.9102 0.27182 0.98645 0.0
C1051 C 0.89205 0.30708 0.98531 0.0
C1052 C 0.89941 0.24797 1.00437 0.0
C1053 C 0.91941 0.21179 0.00815 0.0
C1054 C 0.89588 0.17933 0.009 0.0
C1055 C 0.91392 0.14557 0.01463 0.0
C1056 C 0.9554 0.14401 0.0197 0.0
C1057 C 0.97922 0.17603 0.01847 0.0
C1058 C 0.96134 0.20989 0.0127 0.0
C1059 C 0.74607 0.31727 0.03998 0.0
C1060 C 0.74836 0.30682 0.06276 0.0
C1061 C 0.77993 0.31461 0.02601 0.0
C1062 C 0.81746 0.30254 0.03451 0.0
C1063 C 0.8206 0.29435 0.0576 0.0
C1064 C 0.78631 0.29634 0.0716 0.0
C1065 C 0.85155 0.29425 0.01876 0.0
C1066 C 0.86993 0.25924 0.01998 0.0
C1067 C 0.86344 0.31882 1.00137 0.0
C1068 C 0.8475 0.35722 0.99991 0.0
C1069 C 0.85121 0.38154 0.01824 0.0
C1070 C 0.83626 0.41775 0.01674 0.0
C1071 C 0.81747 0.42993 0.99702 0.0
C1072 C 0.81386 0.40601 0.97868 0.0
C1073 C 0.82895 0.36984 0.98004 0.0
H1074 H 0.80585 0.45794 0.99592 0.0
H1075 H 0.9689 0.11807 0.02484 0.0
H1076 H 0.97753 0.29391 0.55776 0.0
H1077 H 0.03538 0.30805 0.53356 0.0
H1078 H 0.09936 0.21265 0.55908 0.0
H1079 H 0.04104 0.19753 0.58314 0.0
H1080 H 0.14579 0.28648 0.5537 0.0
H1081 H 0.06222 0.19588 0.51208 0.0
H1082 H 0.99776 0.17339 0.49563 0.0
H1083 H 0.9829 0.27631 0.46044 0.0
H1084 H 0.04765 0.29916 0.47632 0.0
H1085 H 0.30261 0.26076 0.47653 0.0
H1086 H 0.24498 0.25369 0.50185 0.0
H1087 H 0.1695 0.31632 0.45611 0.0
H1088 H 0.22723 0.32129 0.42985 0.0
H1089 H 0.12643 0.26455 0.47207 0.0
H1090 H 0.21082 0.35353 0.50746 0.0
H1091 H 0.27413 0.38079 0.52235 0.0
H1092 H 0.28443 0.29187 0.56996 0.0
H1093 H 0.22148 0.26377 0.55514 0.0
C1094 C 1.00409 0.27616 0.55861 0.0
C1095 C 1.00445 0.24438 0.57238 0.0
C1096 C 0.03705 0.28426 0.54464 0.0
C1097 C 0.07131 0.26116 0.54438 0.0
C1098 C 0.07301 0.23072 0.55903 0.0
C1099 C 0.03973 0.22222 0.57282 0.0
C1100 C 0.10448 0.26797 0.52806 0.0
C1101 C 0.14192 0.28132 0.53587 0.0
C1102 C 0.09858 0.26285 0.50476 0.0
C1103 C 0.05946 0.24933 0.49554 0.0
C1104 C 0.04502 0.21379 0.50097 0.0
C1105 C 0.00852 0.20095 0.49172 0.0
C1106 C 0.98606 0.22352 0.47721 0.0
C1107 C 1.00025 0.25889 0.47174 0.0
C1108 C 0.03693 0.27173 0.48076 0.0
C1109 C 0.27369 0.27308 0.4719 0.0
C1110 C 0.26934 0.29202 0.45144 0.0
C1111 C 0.2408 0.26929 0.48648 0.0
C1112 C 0.20306 0.28555 0.48137 0.0
C1113 C 0.19837 0.30384 0.4606 0.0
C1114 C 0.23124 0.30675 0.44562 0.0
C1115 C 0.16865 0.28251 0.49761 0.0
C1116 C 0.1307 0.27001 0.48983 0.0
C1117 C 0.17383 0.28943 0.52093 0.0
C1118 C 0.21155 0.3064 0.53006 0.0
C1119 C 0.22671 0.33966 0.52101 0.0
C1120 C 0.26252 0.35528 0.52945 0.0
C1121 C 0.28333 0.33804 0.54706 0.0
C1122 C 0.26829 0.30519 0.55631 0.0
C1123 C 0.23251 0.28943 0.54792 0.0
H1124 H 0.31106 0.35016 0.55356 0.0
H1125 H 0.95778 0.21353 0.47011 0.0
H1126 H 0.5429 0.22291 0.04947 0.0
H1127 H 0.48415 0.20868 0.02599 0.0
H1128 H 0.41309 0.2904 0.0613 0.0
H1129 H 0.47234 0.30586 0.08464 0.0
H1130 H 0.37225 0.21903 0.05177 0.0
H1131 H 0.4458 0.3175 0.01401 0.0
H1132 H 0.5062 0.34738 0.99759 0.0
H1133 H 0.52409 0.25411 0.95397 0.0
H1134 H 0.46326 0.22381 0.97 0.0
H1135 H 0.20802 0.24279 0.97867 0.0
H1136 H 0.26678 0.25162 1.00294 0.0
H1137 H 0.34311 0.19646 0.95426 0.0
H1138 H 0.28402 0.18961 0.9291 0.0
H1139 H 0.38303 0.25068 0.97083 0.0
H1140 H 0.30723 0.15338 1.00519 0.0
H1141 H 0.24651 0.12225 0.02059 0.0
H1142 H 0.23492 0.20707 0.07076 0.0
H1143 H 0.29526 0.239 0.05547 0.0
C1144 C 0.51471 0.23764 0.05255 0.0
C1145 C 0.5125 0.26571 0.06896 0.0
C1146 C 0.48119 0.22952 0.03899 0.0
C1147 C 0.44451 0.24884 0.04171 0.0
C1148 C 0.44131 0.2754 0.05885 0.0
C1149 C 0.47514 0.28408 0.07222 0.0
C1150 C 0.41021 0.24231 0.02598 0.0
C1151 C 0.37431 0.22625 0.03411 0.0
C1152 C 0.41356 0.2505 1.00282 0.0
C1153 C 0.45032 0.26831 0.99335 0.0
C1154 C 0.46279 0.3033 1.00103 0.0
C1155 C 0.49705 0.32033 0.99176 0.0
C1156 C 0.51925 0.30258 0.97487 0.0
C1157 C 0.50697 0.26781 0.9671 0.0
C1158 C 0.47249 0.25075 0.9762 0.0
C1159 C 0.23733 0.2324 0.97316 0.0
C1160 C 0.24146 0.21492 0.95219 0.0
C1161 C 0.27092 0.23726 0.98713 0.0
C1162 C 0.30928 0.22356 0.98089 0.0
C1163 C 0.31375 0.20689 0.95962 0.0
C1164 C 0.2801 0.2029 0.94527 0.0
C1165 C 0.34451 0.2274 0.99652 0.0
C1166 C 0.38077 0.243 0.98841 0.0
C1167 C 0.34166 0.21808 0.01966 0.0
C1168 C 0.30563 0.19872 0.02908 0.0
C1169 C 0.29161 0.1655 0.01944 0.0
C1170 C 0.25727 0.14771 0.02815 0.0
C1171 C 0.23683 0.16271 0.04661 0.0
C1172 C 0.25077 0.19548 0.05645 0.0
C1173 C 0.28508 0.21342 0.04779 0.0
H1174 H 0.21023 0.14891 0.05332 0.0
H1175 H 0.54583 0.31585 0.96776 0.0
H1176 H 0.54516 0.77651 0.54993 0.0
H1177 H 0.48822 0.79095 0.52576 0.0
H1178 H 0.40552 0.74321 0.57416 0.0
H1179 H 0.46374 0.7257 0.59786 0.0
H1180 H 0.3815 0.72268 0.53692 0.0
H1181 H 0.41604 0.84276 0.56237 0.0
H1182 H 0.45932 0.8965 0.57149 0.0
H1183 H 0.49169 0.90787 0.50196 0.0
H1184 H 0.44905 0.85387 0.49244 0.0
H1185 H 0.21024 0.81089 0.48741 0.0
H1186 H 0.26931 0.80548 0.51168 0.0
H1187 H 0.34593 0.78643 0.45409 0.0
H1188 H 0.28612 0.7906 0.42924 0.0
H1189 H 0.37065 0.842 0.49586 0.0
H1190 H 0.32417 0.71845 0.47365 0.0
H1191 H 0.26926 0.67244 0.46946 0.0
H1192 H 0.24842 0.67451 0.5406 0.0
H1193 H 0.30169 0.72204 0.5451 0.0
C1194 C 0.51483 0.76967 0.55576 0.0
C1195 C 0.50893 0.7504 0.57605 0.0
C1196 C 0.48205 0.77817 0.54185 0.0
C1197 C 0.44213 0.76914 0.54822 0.0
C1198 C 0.43595 0.75066 0.56881 0.0
C1199 C 0.46913 0.74095 0.58247 0.0
C1200 C 0.40754 0.77716 0.53266 0.0
C1201 C 0.37906 0.749 0.52823 0.0
C1202 C 0.40392 0.81147 0.5211 0.0
C1203 C 0.4296 0.84404 0.52672 0.0
C1204 C 0.43261 0.85655 0.54904 0.0
C1205 C 0.457 0.88709 0.55428 0.0
C1206 C 0.47832 0.90553 0.53732 0.0
C1207 C 0.4752 0.89353 0.51508 0.0
C1208 C 0.45088 0.86299 0.50975 0.0
C1209 C 0.23958 0.80585 0.47968 0.0
C1210 C 0.24326 0.8005 0.4563 0.0
C1211 C 0.27332 0.8029 0.49368 0.0
C1212 C 0.31165 0.79514 0.48467 0.0
C1213 C 0.31632 0.79229 0.46127 0.0
C1214 C 0.2822 0.7946 0.44714 0.0
C1215 C 0.34583 0.78741 0.50009 0.0
C1216 C 0.37375 0.81572 0.50457 0.0
C1217 C 0.34783 0.7539 0.51238 0.0
C1218 C 0.31671 0.72428 0.50966 0.0
C1219 C 0.30752 0.70958 0.48837 0.0
C1220 C 0.27668 0.68317 0.48593 0.0
C1221 C 0.25547 0.67049 0.50474 0.0
C1222 C 0.2649 0.68434 0.52603 0.0
C1223 C 0.2953 0.71114 0.52851 0.0
H1224 H 0.23174 0.64993 0.50283 0.0
H1225 H 0.49719 0.92916 0.54142 0.0
H1226 H 0.03991 0.80377 0.09255 0.0
H1227 H 0.09857 0.79115 0.06824 0.0
H1228 H 0.02438 0.71843 0.02775 0.0
H1229 H 0.96714 0.72882 0.05265 0.0
H1230 H 0.09343 0.69102 0.02786 0.0
H1231 H 0.04554 0.8148 0.01704 0.0
H1232 H 0.02789 0.87869 0.02746 0.0
H1233 H 0.15278 0.90089 0.04392 0.0
H1234 H 0.17095 0.83635 0.03471 0.0
H1235 H 0.22189 0.70506 0.92881 0.0
H1236 H 0.1621 0.7142 0.95338 0.0
H1237 H 0.24039 0.75643 1.00557 0.0
H1238 H 0.29948 0.7468 0.98167 0.0
H1239 H 0.1686 0.79926 0.99783 0.0
H1240 H 0.21266 0.67242 0.01022 0.0
H1241 H 0.22882 0.60895 0.99772 0.0
H1242 H 0.10686 0.59596 0.97293 0.0
H1243 H 0.09018 0.65963 0.985 0.0
C1244 C 0.03649 0.78448 0.07875 0.0
C1245 C 0.99875 0.76751 0.07453 0.0
C1246 C 0.0699 0.77757 0.06468 0.0
C1247 C 0.06575 0.75464 0.04565 0.0
C1248 C 0.0286 0.73633 0.04217 0.0
C1249 C 0.9957 0.74238 0.05652 0.0
C1250 C 0.09913 0.75063 0.02879 0.0
C1251 C 0.10929 0.7149 0.0211 0.0
C1252 C 0.12038 0.78159 0.01987 0.0
C1253 C 0.10948 0.82046 0.02551 0.0
C1254 C 0.0692 0.83311 0.02316 0.0
C1255 C 0.0591 0.86951 0.02886 0.0
C1256 C 0.08918 0.89393 0.03635 0.0
C1257 C 0.12947 0.88191 0.03821 0.0
C1258 C 0.13964 0.84533 0.03288 0.0
C1259 C 0.22609 0.71638 0.9455 0.0
C1260 C 0.26532 0.7247 0.95344 0.0
C1261 C 0.19209 0.72153 0.95949 0.0
C1262 C 0.197 0.7358 0.98132 0.0
C1263 C 0.23596 0.74533 0.98884 0.0
C1264 C 0.26972 0.73954 0.97516 0.0
C1265 C 0.16214 0.74008 0.99692 0.0
C1266 C 0.15204 0.77571 1.00443 0.0
C1267 C 0.14041 0.70928 1.00528 0.0
C1268 C 0.15032 0.67091 0.99827 0.0
C1269 C 0.1894 0.65614 1.00193 0.0
C1270 C 0.19863 0.62012 0.99496 0.0
C1271 C 0.16892 0.59848 0.98447 0.0
C1272 C 0.12987 0.61278 0.98101 0.0
C1273 C 0.1205 0.64882 0.98793 0.0
H1274 H 0.17613 0.57059 0.97908 0.0
H1275 H 0.08135 0.92216 0.04071 0.0
H1276 H 0.9666 0.7878 0.42364 0.0
H1277 H 0.90673 0.77194 0.44634 0.0
H1278 H 0.98449 0.71599 0.49406 0.0
H1279 H 0.04321 0.7291 0.4707 0.0
H1280 H 0.92125 0.67988 0.49293 0.0
H1281 H 0.9453 0.81152 0.4979 0.0
H1282 H 0.95258 0.87535 0.48363 0.0
H1283 H 0.82996 0.87297 0.45892 0.0
H1284 H 0.82219 0.80871 0.47235 0.0
H1285 H 0.78376 0.70743 0.58892 0.0
H1286 H 0.84266 0.71503 0.56376 0.0
H1287 H 0.76229 0.71752 0.50656 0.0
H1288 H 0.70388 0.70893 0.53112 0.0
H1289 H 0.82522 0.78051 0.51331 0.0
H1290 H 0.80491 0.64684 0.50789 0.0
H1291 H 0.79817 0.58457 0.52454 0.0
H1292 H 0.91675 0.5949 0.5543 0.0
H1293 H 0.92388 0.65754 0.53809 0.0
C1294 C 0.97058 0.77141 0.43873 0.0
C1295 C 0.00955 0.75961 0.44531 0.0
C1296 C 0.93647 0.76275 0.45188 0.0
C1297 C 0.94101 0.74361 0.47237 0.0
C1298 C 0.97985 0.73077 0.47843 0.0
C1299 C 0.01357 0.73829 0.46497 0.0
C1300 C 0.90601 0.73757 0.48794 0.0
C1301 C 0.9007 0.70218 0.49749 0.0
C1302 C 0.87857 0.76637 0.49395 0.0
C1303 C 0.88333 0.80509 0.48592 0.0
C1304 C 0.91998 0.82447 0.48927 0.0
C1305 C 0.9242 0.86074 0.48135 0.0
C1306 C 0.89181 0.8782 0.47043 0.0
C1307 C 0.85507 0.8594 0.46736 0.0
C1308 C 0.85076 0.82301 0.47506 0.0
C1309 C 0.77876 0.70911 0.57097 0.0
C1310 C 0.7391 0.70746 0.56209 0.0
C1311 C 0.81233 0.71355 0.55667 0.0
C1312 C 0.80656 0.71698 0.53338 0.0
C1313 C 0.76722 0.71502 0.5245 0.0
C1314 C 0.7339 0.70988 0.53863 0.0
C1315 C 0.84127 0.72331 0.51807 0.0
C1316 C 0.84625 0.7586 0.50867 0.0
C1317 C 0.8688 0.69479 0.51251 0.0
C1318 C 0.86471 0.65702 0.52201 0.0
C1319 C 0.82936 0.63598 0.51817 0.0
C1320 C 0.82551 0.60059 0.52748 0.0
C1321 C 0.85696 0.58583 0.54054 0.0
C1322 C 0.89238 0.6064 0.54422 0.0
C1323 C 0.89635 0.64183 0.53497 0.0
H1324 H 0.85392 0.55843 0.54774 0.0
H1325 H 0.89518 0.90631 0.46436 0.0
H1326 H 0.79414 0.75496 0.0437 0.0
H1327 H 0.73643 0.74909 0.01832 0.0
H1328 H 0.66567 0.82139 0.06095 0.0
H1329 H 0.72368 0.82596 0.08717 0.0
H1330 H 0.61937 0.76827 0.04619 0.0
H1331 H 0.70833 0.85227 0.01043 0.0
H1332 H 0.77324 0.87692 0.99598 0.0
H1333 H 0.78225 0.78578 0.94991 0.0
H1334 H 0.71768 0.76022 0.96429 0.0
H1335 H 0.47369 0.79146 0.95875 0.0
H1336 H 0.53047 0.80705 0.98323 0.0
H1337 H 0.59701 0.71231 0.95915 0.0
H1338 H 0.53918 0.69501 0.93503 0.0
H1339 H 0.64293 0.7841 0.96436 0.0
H1340 H 0.55783 0.69692 0.00849 0.0
H1341 H 0.49295 0.67591 0.02508 0.0
H1342 H 0.47444 0.78319 0.05438 0.0
H1343 H 0.53987 0.80456 0.03855 0.0
C1344 C 0.76618 0.76948 0.04771 0.0
C1345 C 0.76327 0.79116 0.06721 0.0
C1346 C 0.73331 0.76638 0.03309 0.0
C1347 C 0.69705 0.78574 0.03728 0.0
C1348 C 0.69352 0.80652 0.05723 0.0
C1349 C 0.72645 0.80907 0.07221 0.0
C1350 C 0.66308 0.78343 0.02081 0.0
C1351 C 0.6245 0.77246 0.02837 0.0
C1352 C 0.66951 0.78875 0.99744 0.0
C1353 C 0.70823 0.80418 0.98855 0.0
C1354 C 0.72426 0.83733 0.99731 0.0
C1355 C 0.76099 0.85149 0.98913 0.0
C1356 C 0.78188 0.8329 0.97208 0.0
C1357 C 0.76603 0.80015 0.96313 0.0
C1358 C 0.72933 0.78583 0.97127 0.0
C1359 C 0.50045 0.77392 0.95835 0.0
C1360 C 0.50161 0.74168 0.94496 0.0
C1361 C 0.53285 0.78292 0.97248 0.0
C1362 C 0.56748 0.76037 0.97327 0.0
C1363 C 0.57009 0.72958 0.95894 0.0
C1364 C 0.5372 0.71996 0.94508 0.0
C1365 C 0.60002 0.76813 0.98984 0.0
C1366 C 0.6381 0.78029 0.98224 0.0
C1367 C 0.59295 0.76489 0.01318 0.0
C1368 C 0.55336 0.75239 0.02219 0.0
C1369 C 0.53974 0.71606 0.01835 0.0
C1370 C 0.50297 0.70407 0.02765 0.0
C1371 C 0.47934 0.72828 0.04052 0.0
C1372 C 0.49268 0.76449 0.04434 0.0
C1373 C 0.52971 0.77649 0.03534 0.0
H1374 H 0.45083 0.7189 0.04764 0.0
H1375 H 0.81032 0.8439 0.96577 0.0
loop_
_geom_bond_atom_site_label_1
_geom_bond_atom_site_label_2
_geom_bond_distance
_geom_bond_site_symmetry_2
_ccdc_geom_bond_type
Fe0 O2 1.918 . S
Fe0 O5 1.997 . S
Fe0 O6 2.002 . S
Fe0 O11 1.976 . S
Fe0 O14 1.996 . S
Fe1 O2 1.918 . S
Fe1 O9 1.997 . S
Fe1 O12 1.996 . S
Fe1 O16 1.976 . S
Fe1 O19 2.002 . S
O2 Fe0 1.918 . S
O2 Fe1 1.918 . S
O2 Fe3 1.918 . S
Fe3 O2 1.918 . S
Fe3 O4 2.002 . S
Fe3 O13 1.976 . S
Fe3 O17 1.996 . S
Fe3 O20 1.997 . S
O4 Fe3 2.002 . S
O4 C21 1.295 . S
O5 Fe0 1.997 . S
O5 C21 1.235 . S
O6 Fe0 2.002 . S
O6 C7 1.295 . S
C7 O6 1.295 . S
C7 O9 1.235 . S
C8 O13 1.287 . S
C8 O14 1.255 . S
O9 Fe1 1.997 . S
O9 C7 1.235 . S
C10 O16 1.287 . S
C10 O17 1.255 . S
O11 Fe0 1.976 . S
O11 C18 1.287 . S
O12 Fe1 1.996 . S
O12 C18 1.255 . S
O13 Fe3 1.976 . S
O13 C8 1.287 . S
O14 Fe0 1.996 . S
O14 C8 1.255 . S
C15 O19 1.295 . S
C15 O20 1.235 . S
O16 Fe1 1.976 . S
O16 C10 1.287 . S
O17 Fe3 1.996 . S
O17 C10 1.255 . S
C18 O11 1.287 . S
C18 O12 1.255 . S
O19 Fe1 2.002 . S
O19 C15 1.295 . S
O20 Fe3 1.997 . S
O20 C15 1.235 . S
C21 O4 1.295 . S
C21 O5 1.235 . S
Fe22 O24 1.918 . S
Fe22 O27 1.997 . S
Fe22 O28 2.002 . S
Fe22 O33 1.976 . S
Fe22 O36 1.996 . S
Fe23 O24 1.918 . S
Fe23 O31 1.997 . S
Fe23 O34 1.996 . S
Fe23 O38 1.976 . S
Fe23 O41 2.002 . S
O24 Fe22 1.918 . S
O24 Fe23 1.918 . S
O24 Fe25 1.918 . S
Fe25 O24 1.918 . S
Fe25 O26 2.002 . S
Fe25 O35 1.976 . S
Fe25 O39 1.996 . S
Fe25 O42 1.997 . S
O26 Fe25 2.002 . S
O26 C43 1.295 . S
O27 Fe22 1.997 . S
O27 C43 1.235 . S
O28 Fe22 2.002 . S
O28 C29 1.295 . S
C29 O28 1.295 . S
C29 O31 1.235 . S
C30 O35 1.287 . S
C30 O36 1.255 . S
O31 Fe23 1.997 . S
O31 C29 1.235 . S
C32 O38 1.287 . S
C32 O39 1.255 . S
O33 Fe22 1.976 . S
O33 C40 1.287 . S
O34 Fe23 1.996 . S
O34 C40 1.255 . S
O35 Fe25 1.976 . S
O35 C30 1.287 . S
O36 Fe22 1.996 . S
O36 C30 1.255 . S
C37 O41 1.295 . S
C37 O42 1.235 . S
O38 Fe23 1.976 . S
O38 C32 1.287 . S
O39 Fe25 1.996 . S
O39 C32 1.255 . S
C40 O33 1.287 . S
C40 O34 1.255 . S
O41 Fe23 2.002 . S
O41 C37 1.295 . S
O42 Fe25 1.997 . S
O42 C37 1.235 . S
C43 O26 1.295 . S
C43 O27 1.235 . S
Fe44 O46 1.918 . S
Fe44 O49 1.997 . S
Fe44 O50 2.002 . S
Fe44 O55 1.976 . S
Fe44 O58 1.996 . S
Fe45 O46 1.918 . S
Fe45 O53 1.997 . S
Fe45 O56 1.996 . S
Fe45 O60 1.976 . S
Fe45 O63 2.002 . S
O46 Fe44 1.918 . S
O46 Fe45 1.918 . S
O46 Fe47 1.918 . S
Fe47 O46 1.918 . S
Fe47 O48 2.002 . S
Fe47 O57 1.976 . S
Fe47 O61 1.996 . S
Fe47 O64 1.997 . S
O48 Fe47 2.002 . S
O48 C65 1.295 . S
O49 Fe44 1.997 . S
O49 C65 1.235 . S
O50 Fe44 2.002 . S
O50 C51 1.295 . S
C51 O50 1.295 . S
C51 O53 1.235 . S
C52 O57 1.287 . S
C52 O58 1.255 . S
O53 Fe45 1.997 . S
O53 C51 1.235 . S
C54 O60 1.287 . S
C54 O61 1.255 . S
O55 Fe44 1.976 . S
O55 C62 1.287 . S
O56 Fe45 1.996 . S
O56 C62 1.255 . S
O57 Fe47 1.976 . S
O57 C52 1.287 . S
O58 Fe44 1.996 . S
O58 C52 1.255 . S
C59 O63 1.295 . S
C59 O64 1.235 . S
O60 Fe45 1.976 . S
O60 C54 1.287 . S
O61 Fe47 1.996 . S
O61 C54 1.255 . S
C62 O55 1.287 . S
C62 O56 1.255 . S
O63 Fe45 2.002 . S
O63 C59 1.295 . S
O64 Fe47 1.997 . S
O64 C59 1.235 . S
C65 O48 1.295 . S
C65 O49 1.235 . S
Fe66 O68 1.918 . S
Fe66 O71 1.997 . S
Fe66 O72 2.002 . S
Fe66 O77 1.976 . S
Fe66 O80 1.996 . S
Fe67 O68 1.918 . S
Fe67 O75 1.997 . S
Fe67 O78 1.996 . S
Fe67 O82 1.976 . S
Fe67 O85 2.002 . S
O68 Fe66 1.918 . S
O68 Fe67 1.918 . S
O68 Fe69 1.918 . S
Fe69 O68 1.918 . S
Fe69 O70 2.002 . S
Fe69 O79 1.976 . S
Fe69 O83 1.996 . S
Fe69 O86 1.997 . S
O70 Fe69 2.002 . S
O70 C87 1.295 . S
O71 Fe66 1.997 . S
O71 C87 1.235 . S
O72 Fe66 2.002 . S
O72 C73 1.295 . S
C73 O72 1.295 . S
C73 O75 1.235 . S
C74 O79 1.287 . S
C74 O80 1.255 . S
O75 Fe67 1.997 . S
O75 C73 1.235 . S
C76 O82 1.287 . S
C76 O83 1.255 . S
O77 Fe66 1.976 . S
O77 C84 1.287 . S
O78 Fe67 1.996 . S
O78 C84 1.255 . S
O79 Fe69 1.976 . S
O79 C74 1.287 . S
O80 Fe66 1.996 . S
O80 C74 1.255 . S
C81 O85 1.295 . S
C81 O86 1.235 . S
O82 Fe67 1.976 . S
O82 C76 1.287 . S
O83 Fe69 1.996 . S
O83 C76 1.255 . S
C84 O77 1.287 . S
C84 O78 1.255 . S
O85 Fe67 2.002 . S
O85 C81 1.295 . S
O86 Fe69 1.997 . S
O86 C81 1.235 . S
C87 O70 1.295 . S
C87 O71 1.235 . S
Fe88 O90 1.918 . S
Fe88 O93 1.997 . S
Fe88 O94 2.002 . S
Fe88 O99 1.976 . S
Fe88 O102 1.996 . S
Fe89 O90 1.918 . S
Fe89 O97 1.997 . S
Fe89 O100 1.996 . S
Fe89 O104 1.976 . S
Fe89 O107 2.002 . S
O90 Fe88 1.918 . S
O90 Fe89 1.918 . S
O90 Fe91 1.918 . S
Fe91 O90 1.918 . S
Fe91 O92 2.002 . S
Fe91 O101 1.976 . S
Fe91 O105 1.996 . S
Fe91 O108 1.997 . S
O92 Fe91 2.002 . S
O92 C109 1.295 . S
O93 Fe88 1.997 . S
O93 C109 1.235 . S
O94 Fe88 2.002 . S
O94 C95 1.295 . S
C95 O94 1.295 . S
C95 O97 1.235 . S
C96 O101 1.287 . S
C96 O102 1.255 . S
O97 Fe89 1.997 . S
O97 C95 1.235 . S
C98 O104 1.287 . S
C98 O105 1.255 . S
O99 Fe88 1.976 . S
O99 C106 1.287 . S
O100 Fe89 1.996 . S
O100 C106 1.255 . S
O101 Fe91 1.976 . S
O101 C96 1.287 . S
O102 Fe88 1.996 . S
O102 C96 1.255 . S
C103 O107 1.295 . S
C103 O108 1.235 . S
O104 Fe89 1.976 . S
O104 C98 1.287 . S
O105 Fe91 1.996 . S
O105 C98 1.255 . S
C106 O99 1.287 . S
C106 O100 1.255 . S
O107 Fe89 2.002 . S
O107 C103 1.295 . S
O108 Fe91 1.997 . S
O108 C103 1.235 . S
C109 O92 1.295 . S
C109 O93 1.235 . S
Fe110 O112 1.918 . S
Fe110 O115 1.997 . S
Fe110 O116 2.002 . S
Fe110 O121 1.976 . S
Fe110 O124 1.996 . S
Fe111 O112 1.918 . S
Fe111 O119 1.997 . S
Fe111 O122 1.996 . S
Fe111 O126 1.976 . S
Fe111 O129 2.002 . S
O112 Fe110 1.918 . S
O112 Fe111 1.918 . S
O112 Fe113 1.918 . S
Fe113 O112 1.918 . S
Fe113 O114 2.002 . S
Fe113 O123 1.976 . S
Fe113 O127 1.996 . S
Fe113 O130 1.997 . S
O114 Fe113 2.002 . S
O114 C131 1.295 . S
O115 Fe110 1.997 . S
O115 C131 1.235 . S
O116 Fe110 2.002 . S
O116 C117 1.295 . S
C117 O116 1.295 . S
C117 O119 1.235 . S
C118 O123 1.287 . S
C118 O124 1.255 . S
O119 Fe111 1.997 . S
O119 C117 1.235 . S
C120 O126 1.287 . S
C120 O127 1.255 . S
O121 Fe110 1.976 . S
O121 C128 1.287 . S
O122 Fe111 1.996 . S
O122 C128 1.255 . S
O123 Fe113 1.976 . S
O123 C118 1.287 . S
O124 Fe110 1.996 . S
O124 C118 1.255 . S
C125 O129 1.295 . S
C125 O130 1.235 . S
O126 Fe111 1.976 . S
O126 C120 1.287 . S
O127 Fe113 1.996 . S
O127 C120 1.255 . S
C128 O121 1.287 . S
C128 O122 1.255 . S
O129 Fe111 2.002 . S
O129 C125 1.295 . S
O130 Fe113 1.997 . S
O130 C125 1.235 . S
C131 O114 1.295 . S
C131 O115 1.235 . S
Fe132 O134 1.918 . S
Fe132 O137 1.997 . S
Fe132 O138 2.002 . S
Fe132 O143 1.976 . S
Fe132 O146 1.996 . S
Fe133 O134 1.918 . S
Fe133 O141 1.997 . S
Fe133 O144 1.996 . S
Fe133 O148 1.976 . S
Fe133 O151 2.002 . S
O134 Fe132 1.918 . S
O134 Fe133 1.918 . S
O134 Fe135 1.918 . S
Fe135 O134 1.918 . S
Fe135 O136 2.002 . S
Fe135 O145 1.976 . S
Fe135 O149 1.996 . S
Fe135 O152 1.997 . S
O136 Fe135 2.002 . S
O136 C153 1.295 . S
O137 Fe132 1.997 . S
O137 C153 1.235 . S
O138 Fe132 2.002 . S
O138 C139 1.295 . S
C139 O138 1.295 . S
C139 O141 1.235 . S
C140 O145 1.287 . S
C140 O146 1.255 . S
O141 Fe133 1.997 . S
O141 C139 1.235 . S
C142 O148 1.287 . S
C142 O149 1.255 . S
O143 Fe132 1.976 . S
O143 C150 1.287 . S
O144 Fe133 1.996 . S
O144 C150 1.255 . S
O145 Fe135 1.976 . S
O145 C140 1.287 . S
O146 Fe132 1.996 . S
O146 C140 1.255 . S
C147 O151 1.295 . S
C147 O152 1.235 . S
O148 Fe133 1.976 . S
O148 C142 1.287 . S
O149 Fe135 1.996 . S
O149 C142 1.255 . S
C150 O143 1.287 . S
C150 O144 1.255 . S
O151 Fe133 2.002 . S
O151 C147 1.295 . S
O152 Fe135 1.997 . S
O152 C147 1.235 . S
C153 O136 1.295 . S
C153 O137 1.235 . S
Fe154 O156 1.918 . S
Fe154 O159 1.997 . S
Fe154 O160 2.002 . S
Fe154 O165 1.976 . S
Fe154 O168 1.996 . S
Fe155 O156 1.918 . S
Fe155 O163 1.997 . S
Fe155 O166 1.996 . S
Fe155 O170 1.976 . S
Fe155 O173 2.002 . S
O156 Fe154 1.918 . S
O156 Fe155 1.918 . S
O156 Fe157 1.918 . S
Fe157 O156 1.918 . S
Fe157 O158 2.002 . S
Fe157 O167 1.976 . S
Fe157 O171 1.996 . S
Fe157 O174 1.997 . S
O158 Fe157 2.002 . S
O158 C175 1.295 . S
O159 Fe154 1.997 . S
O159 C175 1.235 . S
O160 Fe154 2.002 . S
O160 C161 1.295 . S
C161 O160 1.295 . S
C161 O163 1.235 . S
C162 O167 1.287 . S
C162 O168 1.255 . S
O163 Fe155 1.997 . S
O163 C161 1.235 . S
C164 O170 1.287 . S
C164 O171 1.255 . S
O165 Fe154 1.976 . S
O165 C172 1.287 . S
O166 Fe155 1.996 . S
O166 C172 1.255 . S
O167 Fe157 1.976 . S
O167 C162 1.287 . S
O168 Fe154 1.996 . S
O168 C162 1.255 . S
C169 O173 1.295 . S
C169 O174 1.235 . S
O170 Fe155 1.976 . S
O170 C164 1.287 . S
O171 Fe157 1.996 . S
O171 C164 1.255 . S
C172 O165 1.287 . S
C172 O166 1.255 . S
O173 Fe155 2.002 . S
O173 C169 1.295 . S
O174 Fe157 1.997 . S
O174 C169 1.235 . S
C175 O158 1.295 . S
C175 O159 1.235 . S
H176 C194 0.951 . S
H177 C196 0.951 . S
H178 C198 0.950 1_545 S
H179 C199 0.950 . S
H180 C201 0.950 . S
H181 C204 0.950 . S
H182 C205 0.950 . S
H183 C207 0.950 . S
H184 C208 0.950 . S
H185 C209 0.951 . S
H186 C211 0.951 . S
H187 C213 0.950 . S
H188 C214 0.950 . S
H189 C216 0.950 . S
H190 C219 0.950 . S
H191 C220 0.950 . S
H192 C222 0.950 . S
H193 C223 0.950 . S
C194 H176 0.951 . S
C194 C195 1.366 . S
C194 C196 1.388 . S
C195 C194 1.366 . S
C195 C199 1.385 . S
C196 H177 0.951 . S
C196 C194 1.388 . S
C196 C197 1.366 . S
C197 C196 1.366 . S
C197 C198 1.414 . S
C197 C200 1.499 1_565 S
C198 H178 0.950 1_565 S
C198 C197 1.414 . S
C198 C199 1.374 . S
C199 H179 0.950 . S
C199 C195 1.385 . S
C199 C198 1.374 . S
C200 C197 1.499 1_545 S
C200 C201 1.373 . S
C200 C202 1.389 . S
C201 H180 0.950 . S
C201 C200 1.373 . S
C201 C217 1.377 . S
C202 C200 1.389 . S
C202 C203 1.524 1_545 S
C202 C216 1.377 . S
C203 C202 1.524 1_565 S
C203 C204 1.397 . S
C203 C208 1.363 . S
C204 H181 0.950 . S
C204 C203 1.397 . S
C204 C205 1.334 . S
C205 H182 0.950 . S
C205 C204 1.334 . S
C205 C206 1.287 . S
C206 C205 1.287 . S
C206 C207 1.524 . S
C206 H225 0.913 . S
C207 H183 0.950 . S
C207 C206 1.524 . S
C207 C208 1.415 . S
C208 H184 0.950 . S
C208 C203 1.363 . S
C208 C207 1.415 . S
C209 H185 0.951 . S
C209 C210 1.366 . S
C209 C211 1.388 . S
C210 C209 1.366 . S
C210 C214 1.385 . S
C211 H186 0.951 . S
C211 C209 1.388 . S
C211 C212 1.366 . S
C212 C211 1.366 . S
C212 C213 1.414 . S
C212 C215 1.499 . S
C213 H187 0.950 . S
C213 C212 1.414 . S
C213 C214 1.374 . S
C214 H188 0.950 . S
C214 C210 1.385 . S
C214 C213 1.374 . S
C215 C212 1.499 . S
C215 C216 1.373 . S
C215 C217 1.389 . S
C216 H189 0.950 . S
C216 C202 1.377 . S
C216 C215 1.373 . S
C217 C201 1.377 . S
C217 C215 1.389 . S
C217 C218 1.524 . S
C218 C217 1.524 . S
C218 C219 1.397 . S
C218 C223 1.363 . S
C219 H190 0.950 . S
C219 C218 1.397 . S
C219 C220 1.334 . S
C220 H191 0.950 . S
C220 C219 1.334 . S
C220 C221 1.287 . S
C221 C220 1.287 . S
C221 C222 1.524 . S
C221 H224 0.999 . S
C222 H192 0.950 . S
C222 C221 1.524 . S
C222 C223 1.415 . S
C223 H193 0.950 . S
C223 C218 1.363 . S
C223 C222 1.415 . S
H224 C221 0.999 . S
H225 C206 0.913 . S
H226 C244 0.951 . S
H227 C246 0.951 . S
H228 C248 0.950 . S
H229 C249 0.950 . S
H230 C251 0.950 . S
H231 C254 0.950 . S
H232 C255 0.950 . S
H233 C257 0.950 . S
H234 C258 0.950 . S
H235 C259 0.951 . S
H236 C261 0.951 . S
H237 C263 0.950 . S
H238 C264 0.950 . S
H239 C266 0.950 . S
H240 C269 0.950 . S
H241 C270 0.950 . S
H242 C272 0.950 . S
H243 C273 0.950 . S
C244 H226 0.951 . S
C244 C245 1.366 . S
C244 C246 1.388 . S
C245 C244 1.366 . S
C245 C249 1.385 . S
C246 H227 0.951 . S
C246 C244 1.388 . S
C246 C247 1.366 . S
C247 C246 1.366 . S
C247 C248 1.414 . S
C247 C250 1.499 . S
C248 H228 0.950 . S
C248 C247 1.414 . S
C248 C249 1.374 . S
C249 H229 0.950 . S
C249 C245 1.385 . S
C249 C248 1.374 . S
C250 C247 1.499 . S
C250 C251 1.373 . S
C250 C252 1.389 . S
C251 H230 0.950 . S
C251 C250 1.373 . S
C251 C267 1.377 . S
C252 C250 1.389 . S
C252 C253 1.524 . S
C252 C266 1.377 . S
C253 C252 1.524 . S
C253 C254 1.397 . S
C253 C258 1.363 . S
C254 H231 0.950 . S
C254 C253 1.397 . S
C254 C255 1.334 . S
C255 H232 0.950 . S
C255 C254 1.334 . S
C255 C256 1.287 . S
C256 C255 1.287 . S
C256 C257 1.524 . S
C256 H275 0.913 . S
C257 H233 0.950 . S
C257 C256 1.524 . S
C257 C258 1.415 . S
C258 H234 0.950 . S
C258 C253 1.363 . S
C258 C257 1.415 . S
C259 H235 0.951 . S
C259 C260 1.366 . S
C259 C261 1.388 . S
C260 C259 1.366 . S
C260 C264 1.385 . S
C261 H236 0.951 . S
C261 C259 1.388 . S
C261 C262 1.366 . S
C262 C261 1.366 . S
C262 C263 1.414 . S
C262 C265 1.499 . S
C263 H237 0.950 . S
C263 C262 1.414 . S
C263 C264 1.374 . S
C264 H238 0.950 . S
C264 C260 1.385 . S
C264 C263 1.374 . S
C265 C262 1.499 . S
C265 C266 1.373 . S
C265 C267 1.389 . S
C266 H239 0.950 . S
C266 C252 1.377 . S
C266 C265 1.373 . S
C267 C251 1.377 . S
C267 C265 1.389 . S
C267 C268 1.524 . S
C268 C267 1.524 . S
C268 C269 1.397 . S
C268 C273 1.363 . S
C269 H240 0.950 . S
C269 C268 1.397 . S
C269 C270 1.334 . S
C270 H241 0.950 . S
C270 C269 1.334 . S
C270 C271 1.287 . S
C271 C270 1.287 . S
C271 C272 1.524 . S
C271 H274 0.999 . S
C272 H242 0.950 . S
C272 C271 1.524 . S
C272 C273 1.415 . S
C273 H243 0.950 . S
C273 C268 1.363 . S
C273 C272 1.415 . S
H274 C271 0.999 . S
H275 C256 0.913 . S
H276 C294 0.951 . S
H277 C296 0.951 . S
H278 C298 0.950 . S
H279 C299 0.950 . S
H280 C301 0.950 . S
H281 C304 0.950 . S
H282 C305 0.950 . S
H283 C307 0.950 . S
H284 C308 0.950 . S
H285 C309 0.951 . S
H286 C311 0.951 . S
H287 C313 0.950 . S
H288 C314 0.950 . S
H289 C316 0.950 . S
H290 C319 0.950 . S
H291 C320 0.950 . S
H292 C322 0.950 . S
H293 C323 0.950 . S
C294 H276 0.951 . S
C294 C295 1.366 . S
C294 C296 1.388 . S
C295 C294 1.366 . S
C295 C299 1.385 . S
C296 H277 0.951 . S
C296 C294 1.388 . S
C296 C297 1.366 . S
C297 C296 1.366 . S
C297 C298 1.414 . S
C297 C300 1.499 . S
C298 H278 0.950 . S
C298 C297 1.414 . S
C298 C299 1.374 . S
C299 H279 0.950 . S
C299 C295 1.385 . S
C299 C298 1.374 . S
C300 C297 1.499 . S
C300 C301 1.373 . S
C300 C302 1.389 . S
C301 H280 0.950 . S
C301 C300 1.373 . S
C301 C317 1.377 . S
C302 C300 1.389 . S
C302 C303 1.524 . S
C302 C316 1.377 . S
C303 C302 1.524 . S
C303 C304 1.397 . S
C303 C308 1.363 . S
C304 H281 0.950 . S
C304 C303 1.397 . S
C304 C305 1.334 . S
C305 H282 0.950 . S
C305 C304 1.334 . S
C305 C306 1.287 . S
C306 C305 1.287 . S
C306 C307 1.524 . S
C306 H325 0.913 . S
C307 H283 0.950 . S
C307 C306 1.524 . S
C307 C308 1.415 . S
C308 H284 0.950 . S
C308 C303 1.363 . S
C308 C307 1.415 . S
C309 H285 0.951 . S
C309 C310 1.366 . S
C309 C311 1.388 . S
C310 C309 1.366 . S
C310 C314 1.385 . S
C311 H286 0.951 . S
C311 C309 1.388 . S
C311 C312 1.366 . S
C312 C311 1.366 . S
C312 C313 1.414 . S
C312 C315 1.499 . S
C313 H287 0.950 . S
C313 C312 1.414 . S
C313 C314 1.374 . S
C314 H288 0.950 . S
C314 C310 1.385 . S
C314 C313 1.374 . S
C315 C312 1.499 . S
C315 C316 1.373 . S
C315 C317 1.389 . S
C316 H289 0.950 . S
C316 C302 1.377 . S
C316 C315 1.373 . S
C317 C301 1.377 . S
C317 C315 1.389 . S
C317 C318 1.524 . S
C318 C317 1.524 . S
C318 C319 1.397 . S
C318 C323 1.363 . S
C319 H290 0.950 . S
C319 C318 1.397 . S
C319 C320 1.334 . S
C320 H291 0.950 . S
C320 C319 1.334 . S
C320 C321 1.287 . S
C321 C320 1.287 . S
C321 C322 1.524 . S
C321 H324 0.999 . S
C322 H292 0.950 . S
C322 C321 1.524 . S
C322 C323 1.415 . S
C323 H293 0.950 . S
C323 C318 1.363 . S
C323 C322 1.415 . S
H324 C321 0.999 . S
H325 C306 0.913 . S
H326 C344 0.951 . S
H327 C346 0.951 . S
H328 C348 0.950 . S
H329 C349 0.950 . S
H330 C351 0.950 . S
H331 C354 0.950 . S
H332 C355 0.950 . S
H333 C357 0.950 . S
H334 C358 0.950 . S
H335 C359 0.951 . S
H336 C361 0.951 . S
H337 C363 0.950 . S
H338 C364 0.950 . S
H339 C366 0.950 . S
H340 C369 0.950 . S
H341 C370 0.950 . S
H342 C372 0.950 1_545 S
H343 C373 0.950 . S
C344 H326 0.951 . S
C344 C345 1.366 . S
C344 C346 1.388 . S
C345 C344 1.366 . S
C345 C349 1.385 . S
C346 H327 0.951 . S
C346 C344 1.388 . S
C346 C347 1.366 . S
C347 C346 1.366 . S
C347 C348 1.414 . S
C347 C350 1.499 . S
C348 H328 0.950 . S
C348 C347 1.414 . S
C348 C349 1.374 . S
C349 H329 0.950 . S
C349 C345 1.385 . S
C349 C348 1.374 . S
C350 C347 1.499 . S
C350 C351 1.373 . S
C350 C352 1.389 . S
C351 H330 0.950 . S
C351 C350 1.373 . S
C351 C367 1.377 . S
C352 C350 1.389 . S
C352 C353 1.524 . S
C352 C366 1.377 . S
C353 C352 1.524 . S
C353 C354 1.397 . S
C353 C358 1.363 . S
C354 H331 0.950 . S
C354 C353 1.397 . S
C354 C355 1.334 . S
C355 H332 0.950 . S
C355 C354 1.334 . S
C355 C356 1.287 . S
C356 C355 1.287 . S
C356 C357 1.524 . S
C356 H375 0.913 . S
C357 H333 0.950 . S
C357 C356 1.524 . S
C357 C358 1.415 . S
C358 H334 0.950 . S
C358 C353 1.363 . S
C358 C357 1.415 . S
C359 H335 0.951 . S
C359 C360 1.366 . S
C359 C361 1.388 . S
C360 C359 1.366 . S
C360 C364 1.385 . S
C361 H336 0.951 . S
C361 C359 1.388 . S
C361 C362 1.366 . S
C362 C361 1.366 . S
C362 C363 1.414 . S
C362 C365 1.499 1_565 S
C363 H337 0.950 . S
C363 C362 1.414 . S
C363 C364 1.374 . S
C364 H338 0.950 . S
C364 C360 1.385 . S
C364 C363 1.374 . S
C365 C362 1.499 1_545 S
C365 C366 1.373 . S
C365 C367 1.389 . S
C366 H339 0.950 . S
C366 C352 1.377 . S
C366 C365 1.373 . S
C367 C351 1.377 . S
C367 C365 1.389 . S
C367 C368 1.524 . S
C368 C367 1.524 . S
C368 C369 1.397 1_545 S
C368 C373 1.363 . S
C369 H340 0.950 . S
C369 C368 1.397 1_565 S
C369 C370 1.334 . S
C370 H341 0.950 . S
C370 C369 1.334 . S
C370 C371 1.287 . S
C371 C370 1.287 . S
C371 C372 1.524 . S
C371 H374 0.999 . S
C372 H342 0.950 1_565 S
C372 C371 1.524 . S
C372 C373 1.415 1_565 S
C373 H343 0.950 . S
C373 C368 1.363 . S
C373 C372 1.415 1_545 S
H374 C371 0.999 . S
H375 C356 0.913 . S
H376 C394 0.951 . S
H377 C396 0.951 . S
H378 C398 0.950 1_565 S
H379 C399 0.950 . S
H380 C401 0.950 . S
H381 C404 0.950 . S
H382 C405 0.950 . S
H383 C407 0.950 . S
H384 C408 0.952 1_565 S
H385 C409 0.951 . S
H386 C411 0.951 . S
H387 C413 0.950 . S
H388 C414 0.950 . S
H389 C416 0.950 . S
H390 C419 0.950 . S
H391 C420 0.950 . S
H392 C422 0.950 . S
H393 C423 0.950 . S
C394 H376 0.951 . S
C394 C395 1.366 . S
C394 C396 1.388 . S
C395 C394 1.366 . S
C395 C399 1.385 . S
C396 H377 0.951 . S
C396 C394 1.388 . S
C396 C397 1.366 . S
C397 C396 1.366 . S
C397 C398 1.414 . S
C397 C400 1.499 1_545 S
C398 H378 0.950 1_545 S
C398 C397 1.414 . S
C398 C399 1.374 . S
C399 H379 0.950 . S
C399 C395 1.385 . S
C399 C398 1.374 . S
C400 C397 1.499 1_565 S
C400 C401 1.373 . S
C400 C402 1.389 . S
C401 H380 0.950 . S
C401 C400 1.373 . S
C401 C417 1.377 . S
C402 C400 1.389 . S
C402 C403 1.528 . S
C402 C416 1.377 . S
C403 C402 1.528 . S
C403 C404 1.395 1_565 S
C403 C408 1.361 1_565 S
C404 H381 0.950 . S
C404 C403 1.395 1_545 S
C404 C405 1.334 . S
C405 H382 0.950 . S
C405 C404 1.334 . S
C405 C406 1.287 . S
C406 C405 1.287 . S
C406 C407 1.524 . S
C406 H425 0.913 . S
C407 H383 0.950 . S
C407 C406 1.524 . S
C407 C408 1.415 . S
C408 H384 0.952 1_545 S
C408 C403 1.361 1_545 S
C408 C407 1.415 . S
C409 H385 0.951 . S
C409 C410 1.366 . S
C409 C411 1.388 . S
C410 C409 1.366 . S
C410 C414 1.385 . S
C411 H386 0.951 . S
C411 C409 1.388 . S
C411 C412 1.366 . S
C412 C411 1.366 . S
C412 C413 1.414 . S
C412 C415 1.499 . S
C413 H387 0.950 . S
C413 C412 1.414 . S
C413 C414 1.374 . S
C414 H388 0.950 . S
C414 C410 1.385 . S
C414 C413 1.374 . S
C415 C412 1.499 . S
C415 C416 1.373 . S
C415 C417 1.389 . S
C416 H389 0.950 . S
C416 C402 1.377 . S
C416 C415 1.373 . S
C417 C401 1.377 . S
C417 C415 1.389 . S
C417 C418 1.524 . S
C418 C417 1.524 . S
C418 C419 1.397 . S
C418 C423 1.363 . S
C419 H390 0.950 . S
C419 C418 1.397 . S
C419 C420 1.334 . S
C420 H391 0.950 . S
C420 C419 1.334 . S
C420 C421 1.287 . S
C421 C420 1.287 . S
C421 C422 1.524 . S
C421 H424 0.999 . S
C422 H392 0.950 . S
C422 C421 1.524 . S
C422 C423 1.415 . S
C423 H393 0.950 . S
C423 C418 1.363 . S
C423 C422 1.415 . S
H424 C421 0.999 . S
H425 C406 0.913 . S
H426 C444 0.951 . S
H427 C446 0.951 . S
H428 C448 0.950 . S
H429 C449 0.950 . S
H430 C451 0.950 . S
H431 C454 0.950 . S
H432 C455 0.950 . S
H433 C457 0.950 . S
H434 C458 0.950 . S
H435 C459 0.951 . S
H436 C461 0.951 . S
H437 C463 0.950 . S
H438 C464 0.950 . S
H439 C466 0.950 . S
H440 C469 0.950 . S
H441 C470 0.950 . S
H442 C472 0.950 . S
H443 C473 0.950 . S
C444 H426 0.951 . S
C444 C445 1.366 . S
C444 C446 1.388 . S
C445 C444 1.366 . S
C445 C449 1.385 . S
C446 H427 0.951 . S
C446 C444 1.388 . S
C446 C447 1.366 . S
C447 C446 1.366 . S
C447 C448 1.414 . S
C447 C450 1.499 . S
C448 H428 0.950 . S
C448 C447 1.414 . S
C448 C449 1.374 . S
C449 H429 0.950 . S
C449 C445 1.385 . S
C449 C448 1.374 . S
C450 C447 1.499 . S
C450 C451 1.373 . S
C450 C452 1.389 . S
C451 H430 0.950 . S
C451 C450 1.373 . S
C451 C467 1.377 . S
C452 C450 1.389 . S
C452 C453 1.524 . S
C452 C466 1.377 . S
C453 C452 1.524 . S
C453 C454 1.397 . S
C453 C458 1.363 . S
C454 H431 0.950 . S
C454 C453 1.397 . S
C454 C455 1.334 . S
C455 H432 0.950 . S
C455 C454 1.334 . S
C455 C456 1.287 . S
C456 C455 1.287 . S
C456 C457 1.524 . S
C456 H475 0.913 . S
C457 H433 0.950 . S
C457 C456 1.524 . S
C457 C458 1.415 . S
C458 H434 0.950 . S
C458 C453 1.363 . S
C458 C457 1.415 . S
C459 H435 0.951 . S
C459 C460 1.366 . S
C459 C461 1.388 . S
C460 C459 1.366 . S
C460 C464 1.385 . S
C461 H436 0.951 . S
C461 C459 1.388 . S
C461 C462 1.366 . S
C462 C461 1.366 . S
C462 C463 1.414 . S
C462 C465 1.499 . S
C463 H437 0.950 . S
C463 C462 1.414 . S
C463 C464 1.374 . S
C464 H438 0.950 . S
C464 C460 1.385 . S
C464 C463 1.374 . S
C465 C462 1.499 . S
C465 C466 1.373 . S
C465 C467 1.389 . S
C466 H439 0.950 . S
C466 C452 1.377 . S
C466 C465 1.373 . S
C467 C451 1.377 . S
C467 C465 1.389 . S
C467 C468 1.524 . S
C468 C467 1.524 . S
C468 C469 1.397 . S
C468 C473 1.363 . S
C469 H440 0.950 . S
C469 C468 1.397 . S
C469 C470 1.334 . S
C470 H441 0.950 . S
C470 C469 1.334 . S
C470 C471 1.287 . S
C471 C470 1.287 . S
C471 C472 1.524 . S
C471 H474 0.999 . S
C472 H442 0.950 . S
C472 C471 1.524 . S
C472 C473 1.415 . S
C473 H443 0.950 . S
C473 C468 1.363 . S
C473 C472 1.415 . S
H474 C471 0.999 . S
H475 C456 0.913 . S
H476 C494 0.951 . S
H477 C496 0.951 . S
H478 C498 0.950 . S
H479 C499 0.950 . S
H480 C501 0.950 . S
H481 C504 0.950 . S
H482 C505 0.950 . S
H483 C507 0.950 . S
H484 C508 0.950 . S
H485 C509 0.951 . S
H486 C511 0.951 . S
H487 C513 0.950 . S
H488 C514 0.950 . S
H489 C516 0.950 . S
H490 C519 0.950 . S
H491 C520 0.950 . S
H492 C522 0.950 . S
H493 C523 0.950 . S
C494 H476 0.951 . S
C494 C495 1.366 . S
C494 C496 1.388 . S
C495 C494 1.366 . S
C495 C499 1.385 . S
C496 H477 0.951 . S
C496 C494 1.388 . S
C496 C497 1.366 . S
C497 C496 1.366 . S
C497 C498 1.414 . S
C497 C500 1.499 . S
C498 H478 0.950 . S
C498 C497 1.414 . S
C498 C499 1.374 . S
C499 H479 0.950 . S
C499 C495 1.385 . S
C499 C498 1.374 . S
C500 C497 1.499 . S
C500 C501 1.373 . S
C500 C502 1.389 . S
C501 H480 0.950 . S
C501 C500 1.373 . S
C501 C517 1.377 . S
C502 C500 1.389 . S
C502 C503 1.524 . S
C502 C516 1.377 . S
C503 C502 1.524 . S
C503 C504 1.397 . S
C503 C508 1.363 . S
C504 H481 0.950 . S
C504 C503 1.397 . S
C504 C505 1.334 . S
C505 H482 0.950 . S
C505 C504 1.334 . S
C505 C506 1.287 . S
C506 C505 1.287 . S
C506 C507 1.524 . S
C506 H525 0.913 . S
C507 H483 0.950 . S
C507 C506 1.524 . S
C507 C508 1.415 . S
C508 H484 0.950 . S
C508 C503 1.363 . S
C508 C507 1.415 . S
C509 H485 0.951 . S
C509 C510 1.366 . S
C509 C511 1.388 . S
C510 C509 1.366 . S
C510 C514 1.385 . S
C511 H486 0.951 . S
C511 C509 1.388 . S
C511 C512 1.366 . S
C512 C511 1.366 . S
C512 C513 1.414 . S
C512 C515 1.499 . S
C513 H487 0.950 . S
C513 C512 1.414 . S
C513 C514 1.374 . S
C514 H488 0.950 . S
C514 C510 1.385 . S
C514 C513 1.374 . S
C515 C512 1.499 . S
C515 C516 1.373 . S
C515 C517 1.389 . S
C516 H489 0.950 . S
C516 C502 1.377 . S
C516 C515 1.373 . S
C517 C501 1.377 . S
C517 C515 1.389 . S
C517 C518 1.524 . S
C518 C517 1.524 . S
C518 C519 1.397 . S
C518 C523 1.363 . S
C519 H490 0.950 . S
C519 C518 1.397 . S
C519 C520 1.334 . S
C520 H491 0.950 . S
C520 C519 1.334 . S
C520 C521 1.287 . S
C521 C520 1.287 . S
C521 C522 1.524 . S
C521 H524 0.999 . S
C522 H492 0.950 . S
C522 C521 1.524 . S
C522 C523 1.415 . S
C523 H493 0.950 . S
C523 C518 1.363 . S
C523 C522 1.415 . S
H524 C521 0.999 . S
H525 C506 0.913 . S
H526 C544 0.951 . S
H527 C546 0.951 . S
H528 C548 0.950 1_565 S
H529 C549 0.950 . S
H530 C551 0.950 . S
H531 C554 0.950 1_565 S
H532 C555 0.950 . S
H533 C557 0.950 . S
H534 C558 0.950 1_565 S
H535 C559 0.951 . S
H536 C561 0.951 . S
H537 C563 0.950 . S
H538 C564 0.950 . S
H539 C566 0.950 . S
H540 C569 0.950 . S
H541 C570 0.950 . S
H542 C572 0.950 . S
H543 C573 0.950 . S
C544 H526 0.951 . S
C544 C545 1.366 . S
C544 C546 1.388 . S
C545 C544 1.366 . S
C545 C549 1.385 . S
C546 H527 0.951 . S
C546 C544 1.388 . S
C546 C547 1.366 . S
C547 C546 1.366 . S
C547 C548 1.414 . S
C547 C550 1.499 1_545 S
C548 H528 0.950 1_545 S
C548 C547 1.414 . S
C548 C549 1.374 . S
C549 H529 0.950 . S
C549 C545 1.385 . S
C549 C548 1.374 . S
C550 C547 1.499 1_565 S
C550 C551 1.373 . S
C550 C552 1.389 . S
C551 H530 0.950 . S
C551 C550 1.373 . S
C551 C567 1.377 . S
C552 C550 1.389 . S
C552 C553 1.524 . S
C552 C566 1.377 . S
C553 C552 1.524 . S
C553 C554 1.397 1_565 S
C553 C558 1.363 1_565 S
C554 H531 0.950 1_545 S
C554 C553 1.397 1_545 S
C554 C555 1.334 . S
C555 H532 0.950 . S
C555 C554 1.334 . S
C555 C556 1.287 . S
C556 C555 1.287 . S
C556 C557 1.524 . S
C556 H575 0.913 . S
C557 H533 0.950 . S
C557 C556 1.524 . S
C557 C558 1.415 . S
C558 H534 0.950 1_545 S
C558 C553 1.363 1_545 S
C558 C557 1.415 . S
C559 H535 0.951 . S
C559 C560 1.366 . S
C559 C561 1.388 . S
C560 C559 1.366 . S
C560 C564 1.385 . S
C561 H536 0.951 . S
C561 C559 1.388 . S
C561 C562 1.366 . S
C562 C561 1.366 . S
C562 C563 1.414 . S
C562 C565 1.499 . S
C563 H537 0.950 . S
C563 C562 1.414 . S
C563 C564 1.374 . S
C564 H538 0.950 . S
C564 C560 1.385 . S
C564 C563 1.374 . S
C565 C562 1.499 . S
C565 C566 1.373 . S
C565 C567 1.389 . S
C566 H539 0.950 . S
C566 C552 1.377 . S
C566 C565 1.373 . S
C567 C551 1.377 . S
C567 C565 1.389 . S
C567 C568 1.524 . S
C568 C567 1.524 . S
C568 C569 1.397 . S
C568 C573 1.363 . S
C569 H540 0.950 . S
C569 C568 1.397 . S
C569 C570 1.334 . S
C570 H541 0.950 . S
C570 C569 1.334 . S
C570 C571 1.287 . S
C571 C570 1.287 . S
C571 C572 1.524 . S
C571 H574 0.999 . S
C572 H542 0.950 . S
C572 C571 1.524 . S
C572 C573 1.415 . S
C573 H543 0.950 . S
C573 C568 1.363 . S
C573 C572 1.415 . S
H574 C571 0.999 . S
H575 C556 0.913 . S
H576 C594 0.951 . S
H577 C596 0.951 . S
H578 C598 0.950 . S
H579 C599 0.950 . S
H580 C601 0.950 . S
H581 C604 0.950 . S
H582 C605 0.950 . S
H583 C607 0.950 . S
H584 C608 0.950 . S
H585 C609 0.951 . S
H586 C611 0.951 . S
H587 C613 0.950 . S
H588 C614 0.950 . S
H589 C616 0.950 . S
H590 C619 0.950 . S
H591 C620 0.950 . S
H592 C622 0.950 . S
H593 C623 0.950 . S
C594 H576 0.951 . S
C594 C595 1.366 . S
C594 C596 1.388 . S
C595 C594 1.366 . S
C595 C599 1.385 . S
C596 H577 0.951 . S
C596 C594 1.388 . S
C596 C597 1.366 . S
C597 C596 1.366 . S
C597 C598 1.414 . S
C597 C600 1.499 . S
C598 H578 0.950 . S
C598 C597 1.414 . S
C598 C599 1.374 . S
C599 H579 0.950 . S
C599 C595 1.385 . S
C599 C598 1.374 . S
C600 C597 1.499 . S
C600 C601 1.373 . S
C600 C602 1.389 . S
C601 H580 0.950 . S
C601 C600 1.373 . S
C601 C617 1.377 . S
C602 C600 1.389 . S
C602 C603 1.524 . S
C602 C616 1.377 . S
C603 C602 1.524 . S
C603 C604 1.397 . S
C603 C608 1.363 . S
C604 H581 0.950 . S
C604 C603 1.397 . S
C604 C605 1.334 . S
C605 H582 0.950 . S
C605 C604 1.334 . S
C605 C606 1.287 . S
C606 C605 1.287 . S
C606 C607 1.524 . S
C606 H625 0.913 . S
C607 H583 0.950 . S
C607 C606 1.524 . S
C607 C608 1.415 . S
C608 H584 0.950 . S
C608 C603 1.363 . S
C608 C607 1.415 . S
C609 H585 0.951 . S
C609 C610 1.366 . S
C609 C611 1.388 . S
C610 C609 1.366 . S
C610 C614 1.385 . S
C611 H586 0.951 . S
C611 C609 1.388 . S
C611 C612 1.366 . S
C612 C611 1.366 . S
C612 C613 1.414 . S
C612 C615 1.499 . S
C613 H587 0.950 . S
C613 C612 1.414 . S
C613 C614 1.374 . S
C614 H588 0.950 . S
C614 C610 1.385 . S
C614 C613 1.374 . S
C615 C612 1.499 . S
C615 C616 1.373 . S
C615 C617 1.389 . S
C616 H589 0.950 . S
C616 C602 1.377 . S
C616 C615 1.373 . S
C617 C601 1.377 . S
C617 C615 1.389 . S
C617 C618 1.524 . S
C618 C617 1.524 . S
C618 C619 1.397 . S
C618 C623 1.363 . S
C619 H590 0.950 . S
C619 C618 1.397 . S
C619 C620 1.334 . S
C620 H591 0.950 . S
C620 C619 1.334 . S
C620 C621 1.287 . S
C621 C620 1.287 . S
C621 C622 1.524 . S
C621 H624 0.999 . S
C622 H592 0.950 . S
C622 C621 1.524 . S
C622 C623 1.415 . S
C623 H593 0.950 . S
C623 C618 1.363 . S
C623 C622 1.415 . S
H624 C621 0.999 . S
H625 C606 0.913 . S
H626 C644 0.951 . S
H627 C646 0.951 . S
H628 C648 0.950 1_556 S
H629 C649 0.950 . S
H630 C651 0.950 . S
H631 C654 0.950 1_565 S
H632 C655 0.950 . S
H633 C657 0.950 . S
H634 C658 0.950 . S
H635 C659 0.951 . S
H636 C661 0.951 . S
H637 C663 0.950 1_554 S
H638 C664 0.950 . S
H639 C666 0.950 . S
H640 C669 0.950 1_545 S
H641 C670 0.950 . S
H642 C672 0.950 . S
H643 C673 0.950 . S
C644 H626 0.951 . S
C644 C645 1.366 . S
C644 C646 1.388 . S
C645 C644 1.366 . S
C645 C649 1.385 . S
C646 H627 0.951 . S
C646 C644 1.388 . S
C646 C647 1.366 . S
C647 C646 1.366 . S
C647 C648 1.414 . S
C647 C650 1.499 . S
C648 H628 0.950 1_554 S
C648 C647 1.414 . S
C648 C649 1.374 . S
C649 H629 0.950 . S
C649 C645 1.385 . S
C649 C648 1.374 . S
C650 C647 1.499 . S
C650 C651 1.373 1_654 S
C650 C652 1.389 1_565 S
C651 H630 0.950 . S
C651 C650 1.373 1_456 S
C651 C667 1.377 . S
C652 C650 1.389 1_545 S
C652 C653 1.524 . S
C652 C666 1.377 . S
C653 C652 1.524 . S
C653 C654 1.397 . S
C653 C658 1.363 . S
C654 H631 0.950 1_545 S
C654 C653 1.397 . S
C654 C655 1.334 . S
C655 H632 0.950 . S
C655 C654 1.334 . S
C655 C656 1.287 . S
C656 C655 1.287 . S
C656 C657 1.524 . S
C656 H675 0.913 . S
C657 H633 0.950 . S
C657 C656 1.524 . S
C657 C658 1.415 . S
C658 H634 0.950 . S
C658 C653 1.363 . S
C658 C657 1.415 . S
C659 H635 0.951 . S
C659 C660 1.366 . S
C659 C661 1.388 . S
C660 C659 1.366 . S
C660 C664 1.385 . S
C661 H636 0.951 . S
C661 C659 1.388 . S
C661 C662 1.366 . S
C662 C661 1.366 . S
C662 C663 1.414 . S
C662 C665 1.499 . S
C663 H637 0.950 1_556 S
C663 C662 1.414 . S
C663 C664 1.374 . S
C664 H638 0.950 . S
C664 C660 1.385 . S
C664 C663 1.374 . S
C665 C662 1.499 . S
C665 C666 1.373 1_456 S
C665 C667 1.389 1_545 S
C666 H639 0.950 . S
C666 C652 1.377 . S
C666 C665 1.373 1_654 S
C667 C651 1.377 . S
C667 C665 1.389 1_565 S
C667 C668 1.524 . S
C668 C667 1.524 . S
C668 C669 1.397 . S
C668 C673 1.363 . S
C669 H640 0.950 1_565 S
C669 C668 1.397 . S
C669 C670 1.334 . S
C670 H641 0.950 . S
C670 C669 1.334 . S
C670 C671 1.287 . S
C671 C670 1.287 . S
C671 C672 1.524 . S
C671 H674 0.999 . S
C672 H642 0.950 . S
C672 C671 1.524 . S
C672 C673 1.415 . S
C673 H643 0.950 . S
C673 C668 1.363 . S
C673 C672 1.415 . S
H674 C671 0.999 . S
H675 C656 0.913 . S
H676 C694 0.951 . S
H677 C696 0.951 . S
H678 C698 0.950 1_455 S
H679 C699 0.950 . S
H680 C701 0.950 . S
H681 C704 0.950 . S
H682 C705 0.950 . S
H683 C707 0.950 . S
H684 C708 0.950 . S
H685 C709 0.951 . S
H686 C711 0.951 . S
H687 C713 0.950 1_655 S
H688 C714 0.950 . S
H689 C716 0.950 . S
H690 C719 0.950 . S
H691 C720 0.950 . S
H692 C722 0.950 . S
H693 C723 0.950 . S
C694 H676 0.951 . S
C694 C695 1.366 . S
C694 C696 1.388 . S
C695 C694 1.366 . S
C695 C699 1.385 . S
C696 H677 0.951 . S
C696 C694 1.388 . S
C696 C697 1.366 . S
C697 C696 1.366 . S
C697 C698 1.414 . S
C697 C700 1.499 . S
C698 H678 0.950 1_655 S
C698 C697 1.414 . S
C698 C699 1.374 . S
C699 H679 0.950 . S
C699 C695 1.385 . S
C699 C698 1.374 . S
C700 C697 1.499 . S
C700 C701 1.373 1_655 S
C700 C702 1.389 1_545 S
C701 H680 0.950 . S
C701 C700 1.373 1_455 S
C701 C717 1.377 . S
C702 C700 1.389 1_565 S
C702 C703 1.524 . S
C702 C716 1.377 . S
C703 C702 1.524 . S
C703 C704 1.397 1_565 S
C703 C708 1.363 . S
C704 H681 0.950 . S
C704 C703 1.397 1_545 S
C704 C705 1.334 . S
C705 H682 0.950 . S
C705 C704 1.334 . S
C705 C706 1.287 1_545 S
C706 C705 1.287 1_565 S
C706 C707 1.524 . S
C706 H725 0.913 . S
C707 H683 0.950 . S
C707 C706 1.524 . S
C707 C708 1.415 . S
C708 H684 0.950 . S
C708 C703 1.363 . S
C708 C707 1.415 . S
C709 H685 0.951 . S
C709 C710 1.366 . S
C709 C711 1.388 . S
C710 C709 1.366 . S
C710 C714 1.385 . S
C711 H686 0.951 . S
C711 C709 1.388 . S
C711 C712 1.366 . S
C712 C711 1.366 . S
C712 C713 1.414 . S
C712 C715 1.499 . S
C713 H687 0.950 1_455 S
C713 C712 1.414 . S
C713 C714 1.374 . S
C714 H688 0.950 . S
C714 C710 1.385 . S
C714 C713 1.374 . S
C715 C712 1.499 . S
C715 C716 1.373 1_455 S
C715 C717 1.389 1_565 S
C716 H689 0.950 . S
C716 C702 1.377 . S
C716 C715 1.373 1_655 S
C717 C701 1.377 . S
C717 C715 1.389 1_545 S
C717 C718 1.524 . S
C718 C717 1.524 . S
C718 C719 1.397 1_545 S
C718 C723 1.363 . S
C719 H690 0.950 . S
C719 C718 1.397 1_565 S
C719 C720 1.334 . S
C720 H691 0.950 . S
C720 C719 1.334 . S
C720 C721 1.287 1_565 S
C721 C720 1.287 1_545 S
C721 C722 1.524 . S
C721 H724 0.999 . S
C722 H692 0.950 . S
C722 C721 1.524 . S
C722 C723 1.415 . S
C723 H693 0.950 . S
C723 C718 1.363 . S
C723 C722 1.415 . S
H724 C721 0.999 . S
H725 C706 0.913 . S
H726 C744 0.951 . S
H727 C746 0.951 . S
H728 C748 0.950 . S
H729 C749 0.950 . S
H730 C751 0.950 . S
H731 C754 0.950 . S
H732 C755 0.950 . S
H733 C757 0.950 . S
H734 C758 0.950 . S
H735 C759 0.951 . S
H736 C761 0.951 . S
H737 C763 0.950 . S
H738 C764 0.950 . S
H739 C766 0.950 . S
H740 C769 0.950 . S
H741 C770 0.950 . S
H742 C772 0.950 . S
H743 C773 0.950 . S
C744 H726 0.951 . S
C744 C745 1.366 . S
C744 C746 1.388 . S
C745 C744 1.366 . S
C745 C749 1.385 . S
C746 H727 0.951 . S
C746 C744 1.388 . S
C746 C747 1.366 . S
C747 C746 1.366 . S
C747 C748 1.414 . S
C747 C750 1.499 . S
C748 H728 0.950 . S
C748 C747 1.414 . S
C748 C749 1.374 . S
C749 H729 0.950 . S
C749 C745 1.385 . S
C749 C748 1.374 . S
C750 C747 1.499 . S
C750 C751 1.373 1_556 S
C750 C752 1.389 . S
C751 H730 0.950 . S
C751 C750 1.373 1_554 S
C751 C767 1.377 . S
C752 C750 1.389 . S
C752 C753 1.524 . S
C752 C766 1.377 . S
C753 C752 1.524 . S
C753 C754 1.397 . S
C753 C758 1.363 . S
C754 H731 0.950 . S
C754 C753 1.397 . S
C754 C755 1.334 . S
C755 H732 0.950 . S
C755 C754 1.334 . S
C755 C756 1.287 . S
C756 C755 1.287 . S
C756 C757 1.524 . S
C756 H775 0.913 . S
C757 H733 0.950 . S
C757 C756 1.524 . S
C757 C758 1.415 . S
C758 H734 0.950 . S
C758 C753 1.363 . S
C758 C757 1.415 . S
C759 H735 0.951 . S
C759 C760 1.366 . S
C759 C761 1.388 . S
C760 C759 1.366 . S
C760 C764 1.385 . S
C761 H736 0.951 . S
C761 C759 1.388 . S
C761 C762 1.366 . S
C762 C761 1.366 . S
C762 C763 1.414 . S
C762 C765 1.499 . S
C763 H737 0.950 . S
C763 C762 1.414 . S
C763 C764 1.374 . S
C764 H738 0.950 . S
C764 C760 1.385 . S
C764 C763 1.374 . S
C765 C762 1.499 . S
C765 C766 1.373 1_554 S
C765 C767 1.389 . S
C766 H739 0.950 . S
C766 C752 1.377 . S
C766 C765 1.373 1_556 S
C767 C751 1.377 . S
C767 C765 1.389 . S
C767 C768 1.524 . S
C768 C767 1.524 . S
C768 C769 1.397 . S
C768 C773 1.363 . S
C769 H740 0.950 . S
C769 C768 1.397 . S
C769 C770 1.334 . S
C770 H741 0.950 . S
C770 C769 1.334 . S
C770 C771 1.287 . S
C771 C770 1.287 . S
C771 C772 1.524 . S
C771 H774 0.999 . S
C772 H742 0.950 . S
C772 C771 1.524 . S
C772 C773 1.415 . S
C773 H743 0.950 . S
C773 C768 1.363 . S
C773 C772 1.415 . S
H774 C771 0.999 . S
H775 C756 0.913 . S
H776 C794 0.951 . S
H777 C796 0.951 . S
H778 C798 0.950 . S
H779 C799 0.950 . S
H780 C801 0.950 . S
H781 C804 0.950 . S
H782 C805 0.950 . S
H783 C807 0.950 . S
H784 C808 0.950 . S
H785 C809 0.951 . S
H786 C811 0.951 . S
H787 C813 0.950 . S
H788 C814 0.950 . S
H789 C816 0.950 . S
H790 C819 0.950 . S
H791 C820 0.950 . S
H792 C822 0.950 . S
H793 C823 0.950 . S
C794 H776 0.951 . S
C794 C795 1.366 . S
C794 C796 1.388 . S
C795 C794 1.366 . S
C795 C799 1.385 . S
C796 H777 0.951 . S
C796 C794 1.388 . S
C796 C797 1.366 . S
C797 C796 1.366 . S
C797 C798 1.414 . S
C797 C800 1.499 . S
C798 H778 0.950 . S
C798 C797 1.414 . S
C798 C799 1.374 . S
C799 H779 0.950 . S
C799 C795 1.385 . S
C799 C798 1.374 . S
C800 C797 1.499 . S
C800 C801 1.373 . S
C800 C802 1.389 . S
C801 H780 0.950 . S
C801 C800 1.373 . S
C801 C817 1.377 . S
C802 C800 1.389 . S
C802 C803 1.524 . S
C802 C816 1.377 . S
C803 C802 1.524 . S
C803 C804 1.397 . S
C803 C808 1.363 . S
C804 H781 0.950 . S
C804 C803 1.397 . S
C804 C805 1.334 . S
C805 H782 0.950 . S
C805 C804 1.334 . S
C805 C806 1.287 . S
C806 C805 1.287 . S
C806 C807 1.524 . S
C806 H825 0.913 . S
C807 H783 0.950 . S
C807 C806 1.524 . S
C807 C808 1.415 . S
C808 H784 0.950 . S
C808 C803 1.363 . S
C808 C807 1.415 . S
C809 H785 0.951 . S
C809 C810 1.366 . S
C809 C811 1.388 . S
C810 C809 1.366 . S
C810 C814 1.385 . S
C811 H786 0.951 . S
C811 C809 1.388 . S
C811 C812 1.366 . S
C812 C811 1.366 . S
C812 C813 1.414 . S
C812 C815 1.499 . S
C813 H787 0.950 . S
C813 C812 1.414 . S
C813 C814 1.374 . S
C814 H788 0.950 . S
C814 C810 1.385 . S
C814 C813 1.374 . S
C815 C812 1.499 . S
C815 C816 1.373 . S
C815 C817 1.389 . S
C816 H789 0.950 . S
C816 C802 1.377 . S
C816 C815 1.373 . S
C817 C801 1.377 . S
C817 C815 1.389 . S
C817 C818 1.524 . S
C818 C817 1.524 . S
C818 C819 1.397 . S
C818 C823 1.363 . S
C819 H790 0.950 . S
C819 C818 1.397 . S
C819 C820 1.334 . S
C820 H791 0.950 . S
C820 C819 1.334 . S
C820 C821 1.287 . S
C821 C820 1.287 . S
C821 C822 1.524 . S
C821 H824 0.999 . S
C822 H792 0.950 . S
C822 C821 1.524 . S
C822 C823 1.415 . S
C823 H793 0.950 . S
C823 C818 1.363 . S
C823 C822 1.415 . S
H824 C821 0.999 . S
H825 C806 0.913 . S
H826 C844 0.951 . S
H827 C846 0.951 1_655 S
H828 C848 0.950 . S
H829 C849 0.950 . S
H830 C851 0.950 . S
H831 C854 0.950 1_455 S
H832 C855 0.950 1_455 S
H833 C857 0.950 . S
H834 C858 0.950 . S
H835 C859 0.951 . S
H836 C861 0.951 1_455 S
H837 C863 0.950 . S
H838 C864 0.950 . S
H839 C866 0.950 . S
H840 C869 0.950 1_655 S
H841 C870 0.950 1_655 S
H842 C872 0.950 . S
H843 C873 0.950 . S
C844 H826 0.951 . S
C844 C845 1.366 . S
C844 C846 1.388 . S
C845 C844 1.366 . S
C845 C849 1.385 . S
C846 H827 0.951 1_455 S
C846 C844 1.388 . S
C846 C847 1.366 . S
C847 C846 1.366 . S
C847 C848 1.414 . S
C847 C850 1.499 . S
C848 H828 0.950 . S
C848 C847 1.414 . S
C848 C849 1.374 . S
C849 H829 0.950 . S
C849 C845 1.385 . S
C849 C848 1.374 . S
C850 C847 1.499 . S
C850 C851 1.373 . S
C850 C852 1.389 1_455 S
C851 H830 0.950 . S
C851 C850 1.373 . S
C851 C867 1.377 . S
C852 C850 1.389 1_655 S
C852 C853 1.524 . S
C852 C866 1.377 . S
C853 C852 1.524 . S
C853 C854 1.397 . S
C853 C858 1.363 . S
C854 H831 0.950 1_655 S
C854 C853 1.397 . S
C854 C855 1.334 . S
C855 H832 0.950 1_655 S
C855 C854 1.334 . S
C855 C856 1.287 . S
C856 C855 1.287 . S
C856 C857 1.524 . S
C856 H875 0.913 . S
C857 H833 0.950 . S
C857 C856 1.524 . S
C857 C858 1.415 . S
C858 H834 0.950 . S
C858 C853 1.363 . S
C858 C857 1.415 . S
C859 H835 0.951 . S
C859 C860 1.366 . S
C859 C861 1.388 . S
C860 C859 1.366 . S
C860 C864 1.385 . S
C861 H836 0.951 1_655 S
C861 C859 1.388 . S
C861 C862 1.366 . S
C862 C861 1.366 . S
C862 C863 1.414 . S
C862 C865 1.499 . S
C863 H837 0.950 . S
C863 C862 1.414 . S
C863 C864 1.374 . S
C864 H838 0.950 . S
C864 C860 1.385 . S
C864 C863 1.374 . S
C865 C862 1.499 . S
C865 C866 1.373 . S
C865 C867 1.389 1_655 S
C866 H839 0.950 . S
C866 C852 1.377 . S
C866 C865 1.373 . S
C867 C851 1.377 . S
C867 C865 1.389 1_455 S
C867 C868 1.524 . S
C868 C867 1.524 . S
C868 C869 1.397 . S
C868 C873 1.363 . S
C869 H840 0.950 1_455 S
C869 C868 1.397 . S
C869 C870 1.334 . S
C870 H841 0.950 1_455 S
C870 C869 1.334 . S
C870 C871 1.287 . S
C871 C870 1.287 . S
C871 C872 1.524 . S
C871 H874 0.999 . S
C872 H842 0.950 . S
C872 C871 1.524 . S
C872 C873 1.415 . S
C873 H843 0.950 . S
C873 C868 1.363 . S
C873 C872 1.415 . S
H874 C871 0.999 . S
H875 C856 0.913 . S
H876 C894 0.951 . S
H877 C896 0.951 . S
H878 C898 0.950 . S
H879 C899 0.950 . S
H880 C901 0.950 . S
H881 C904 0.950 . S
H882 C905 0.950 . S
H883 C907 0.950 . S
H884 C908 0.950 . S
H885 C909 0.951 . S
H886 C911 0.951 . S
H887 C913 0.950 . S
H888 C914 0.950 . S
H889 C916 0.950 . S
H890 C919 0.950 . S
H891 C920 0.950 . S
H892 C922 0.950 . S
H893 C923 0.950 . S
C894 H876 0.951 . S
C894 C895 1.366 . S
C894 C896 1.388 . S
C895 C894 1.366 . S
C895 C899 1.385 . S
C896 H877 0.951 . S
C896 C894 1.388 . S
C896 C897 1.366 . S
C897 C896 1.366 . S
C897 C898 1.414 . S
C897 C900 1.499 . S
C898 H878 0.950 . S
C898 C897 1.414 . S
C898 C899 1.374 . S
C899 H879 0.950 . S
C899 C895 1.385 . S
C899 C898 1.374 . S
C900 C897 1.499 . S
C900 C901 1.373 . S
C900 C902 1.389 . S
C901 H880 0.950 . S
C901 C900 1.373 . S
C901 C917 1.377 . S
C902 C900 1.389 . S
C902 C903 1.524 . S
C902 C916 1.377 . S
C903 C902 1.524 . S
C903 C904 1.397 . S
C903 C908 1.363 . S
C904 H881 0.950 . S
C904 C903 1.397 . S
C904 C905 1.334 . S
C905 H882 0.950 . S
C905 C904 1.334 . S
C905 C906 1.287 . S
C906 C905 1.287 . S
C906 C907 1.524 . S
C906 H925 0.913 . S
C907 H883 0.950 . S
C907 C906 1.524 . S
C907 C908 1.415 . S
C908 H884 0.950 . S
C908 C903 1.363 . S
C908 C907 1.415 . S
C909 H885 0.951 . S
C909 C910 1.366 . S
C909 C911 1.388 . S
C910 C909 1.366 . S
C910 C914 1.385 . S
C911 H886 0.951 . S
C911 C909 1.388 . S
C911 C912 1.366 . S
C912 C911 1.366 . S
C912 C913 1.414 . S
C912 C915 1.499 . S
C913 H887 0.950 . S
C913 C912 1.414 . S
C913 C914 1.374 . S
C914 H888 0.950 . S
C914 C910 1.385 . S
C914 C913 1.374 . S
C915 C912 1.499 . S
C915 C916 1.373 . S
C915 C917 1.389 . S
C916 H889 0.950 . S
C916 C902 1.377 . S
C916 C915 1.373 . S
C917 C901 1.377 . S
C917 C915 1.389 . S
C917 C918 1.524 . S
C918 C917 1.524 . S
C918 C919 1.397 . S
C918 C923 1.363 . S
C919 H890 0.950 . S
C919 C918 1.397 . S
C919 C920 1.334 . S
C920 H891 0.950 . S
C920 C919 1.334 . S
C920 C921 1.287 . S
C921 C920 1.287 . S
C921 C922 1.524 . S
C921 H924 0.999 . S
C922 H892 0.950 . S
C922 C921 1.524 . S
C922 C923 1.415 . S
C923 H893 0.950 . S
C923 C918 1.363 . S
C923 C922 1.415 . S
H924 C921 0.999 . S
H925 C906 0.913 . S
H926 C944 0.951 . S
H927 C946 0.951 1_455 S
H928 C948 0.950 . S
H929 C949 0.950 . S
H930 C951 0.950 . S
H931 C954 0.950 1_655 S
H932 C955 0.950 . S
H933 C957 0.950 . S
H934 C958 0.950 . S
H935 C959 0.951 . S
H936 C961 0.951 1_655 S
H937 C963 0.950 . S
H938 C964 0.950 . S
H939 C966 0.950 . S
H940 C969 0.950 1_455 S
H941 C970 0.950 . S
H942 C972 0.950 . S
H943 C973 0.950 . S
C944 H926 0.951 . S
C944 C945 1.366 . S
C944 C946 1.388 . S
C945 C944 1.366 . S
C945 C949 1.385 . S
C946 H927 0.951 1_655 S
C946 C944 1.388 . S
C946 C947 1.366 . S
C947 C946 1.366 . S
C947 C948 1.414 . S
C947 C950 1.499 . S
C948 H928 0.950 . S
C948 C947 1.414 . S
C948 C949 1.374 . S
C949 H929 0.950 . S
C949 C945 1.385 . S
C949 C948 1.374 . S
C950 C947 1.499 . S
C950 C951 1.373 . S
C950 C952 1.389 1_655 S
C951 H930 0.950 . S
C951 C950 1.373 . S
C951 C967 1.377 . S
C952 C950 1.389 1_455 S
C952 C953 1.524 . S
C952 C966 1.377 . S
C953 C952 1.524 . S
C953 C954 1.397 . S
C953 C958 1.363 . S
C954 H931 0.950 1_455 S
C954 C953 1.397 . S
C954 C955 1.334 . S
C955 H932 0.950 . S
C955 C954 1.334 . S
C955 C956 1.287 . S
C956 C955 1.287 . S
C956 C957 1.524 . S
C956 H975 0.913 . S
C957 H933 0.950 . S
C957 C956 1.524 . S
C957 C958 1.415 . S
C958 H934 0.950 . S
C958 C953 1.363 . S
C958 C957 1.415 . S
C959 H935 0.951 . S
C959 C960 1.366 . S
C959 C961 1.388 . S
C960 C959 1.366 . S
C960 C964 1.385 . S
C961 H936 0.951 1_455 S
C961 C959 1.388 . S
C961 C962 1.366 . S
C962 C961 1.366 . S
C962 C963 1.414 . S
C962 C965 1.499 . S
C963 H937 0.950 . S
C963 C962 1.414 . S
C963 C964 1.374 . S
C964 H938 0.950 . S
C964 C960 1.385 . S
C964 C963 1.374 . S
C965 C962 1.499 . S
C965 C966 1.373 . S
C965 C967 1.389 1_455 S
C966 H939 0.950 . S
C966 C952 1.377 . S
C966 C965 1.373 . S
C967 C951 1.377 . S
C967 C965 1.389 1_655 S
C967 C968 1.524 . S
C968 C967 1.524 . S
C968 C969 1.397 . S
C968 C973 1.363 . S
C969 H940 0.950 1_655 S
C969 C968 1.397 . S
C969 C970 1.334 . S
C970 H941 0.950 . S
C970 C969 1.334 . S
C970 C971 1.287 . S
C971 C970 1.287 . S
C971 C972 1.524 . S
C971 H974 0.999 . S
C972 H942 0.950 . S
C972 C971 1.524 . S
C972 C973 1.415 . S
C973 H943 0.950 . S
C973 C968 1.363 . S
C973 C972 1.415 . S
H974 C971 0.999 . S
H975 C956 0.913 . S
H976 C994 0.951 . S
H977 C996 0.951 . S
H978 C998 0.950 . S
H979 C999 0.950 . S
H980 C1001 0.950 . S
H981 C1004 0.950 . S
H982 C1005 0.950 . S
H983 C1007 0.950 . S
H984 C1008 0.950 . S
H985 C1009 0.951 . S
H986 C1011 0.951 . S
H987 C1013 0.950 . S
H988 C1014 0.950 . S
H989 C1016 0.950 . S
H990 C1019 0.950 . S
H991 C1020 0.950 . S
H992 C1022 0.950 . S
H993 C1023 0.950 . S
C994 H976 0.951 . S
C994 C995 1.366 . S
C994 C996 1.388 . S
C995 C994 1.366 . S
C995 C999 1.385 . S
C996 H977 0.951 . S
C996 C994 1.388 . S
C996 C997 1.366 . S
C997 C996 1.366 . S
C997 C998 1.414 . S
C997 C1000 1.499 . S
C998 H978 0.950 . S
C998 C997 1.414 . S
C998 C999 1.374 . S
C999 H979 0.950 . S
C999 C995 1.385 . S
C999 C998 1.374 . S
C1000 C997 1.499 . S
C1000 C1001 1.373 . S
C1000 C1002 1.389 . S
C1001 H980 0.950 . S
C1001 C1000 1.373 . S
C1001 C1017 1.377 . S
C1002 C1000 1.389 . S
C1002 C1003 1.524 . S
C1002 C1016 1.377 . S
C1003 C1002 1.524 . S
C1003 C1004 1.397 . S
C1003 C1008 1.363 . S
C1004 H981 0.950 . S
C1004 C1003 1.397 . S
C1004 C1005 1.334 . S
C1005 H982 0.950 . S
C1005 C1004 1.334 . S
C1005 C1006 1.287 . S
C1006 C1005 1.287 . S
C1006 C1007 1.524 . S
C1006 H1025 0.913 . S
C1007 H983 0.950 . S
C1007 C1006 1.524 . S
C1007 C1008 1.415 . S
C1008 H984 0.950 . S
C1008 C1003 1.363 . S
C1008 C1007 1.415 . S
C1009 H985 0.951 . S
C1009 C1010 1.366 . S
C1009 C1011 1.388 . S
C1010 C1009 1.366 . S
C1010 C1014 1.385 . S
C1011 H986 0.951 . S
C1011 C1009 1.388 . S
C1011 C1012 1.366 . S
C1012 C1011 1.366 . S
C1012 C1013 1.414 . S
C1012 C1015 1.499 . S
C1013 H987 0.950 . S
C1013 C1012 1.414 . S
C1013 C1014 1.374 . S
C1014 H988 0.950 . S
C1014 C1010 1.385 . S
C1014 C1013 1.374 . S
C1015 C1012 1.499 . S
C1015 C1016 1.373 . S
C1015 C1017 1.389 . S
C1016 H989 0.950 . S
C1016 C1002 1.377 . S
C1016 C1015 1.373 . S
C1017 C1001 1.377 . S
C1017 C1015 1.389 . S
C1017 C1018 1.524 . S
C1018 C1017 1.524 . S
C1018 C1019 1.397 . S
C1018 C1023 1.363 . S
C1019 H990 0.950 . S
C1019 C1018 1.397 . S
C1019 C1020 1.334 . S
C1020 H991 0.950 . S
C1020 C1019 1.334 . S
C1020 C1021 1.287 . S
C1021 C1020 1.287 . S
C1021 C1022 1.524 . S
C1021 H1024 0.999 . S
C1022 H992 0.950 . S
C1022 C1021 1.524 . S
C1022 C1023 1.415 . S
C1023 H993 0.950 . S
C1023 C1018 1.363 . S
C1023 C1022 1.415 . S
H1024 C1021 0.999 . S
H1025 C1006 0.913 . S
H1026 C1044 0.951 1_455 S
H1027 C1046 0.951 . S
H1028 C1048 0.950 . S
H1029 C1049 0.950 . S
H1030 C1051 0.950 . S
H1031 C1054 0.950 . S
H1032 C1055 0.950 . S
H1033 C1057 0.950 . S
H1034 C1058 0.950 . S
H1035 C1059 0.951 . S
H1036 C1061 0.951 1_556 S
H1037 C1063 0.950 . S
H1038 C1064 0.950 . S
H1039 C1066 0.950 . S
H1040 C1069 0.950 1_554 S
H1041 C1070 0.975 . S
H1042 C1072 0.950 . S
H1043 C1073 0.950 . S
C1044 H1026 0.951 1_655 S
C1044 C1045 1.366 . S
C1044 C1046 1.388 . S
C1045 C1044 1.366 . S
C1045 C1049 1.385 . S
C1046 H1027 0.951 . S
C1046 C1044 1.388 . S
C1046 C1047 1.366 . S
C1047 C1046 1.366 . S
C1047 C1048 1.414 . S
C1047 C1050 1.499 . S
C1048 H1028 0.950 . S
C1048 C1047 1.414 . S
C1048 C1049 1.374 . S
C1049 H1029 0.950 . S
C1049 C1045 1.385 . S
C1049 C1048 1.374 . S
C1050 C1047 1.499 . S
C1050 C1051 1.373 . S
C1050 C1052 1.389 . S
C1051 H1030 0.950 . S
C1051 C1050 1.373 . S
C1051 C1067 1.377 . S
C1052 C1050 1.389 . S
C1052 C1053 1.524 1_556 S
C1052 C1066 1.377 1_556 S
C1053 C1052 1.524 1_554 S
C1053 C1054 1.397 1_554 S
C1053 C1058 1.363 . S
C1054 H1031 0.950 . S
C1054 C1053 1.397 1_556 S
C1054 C1055 1.334 . S
C1055 H1032 0.950 . S
C1055 C1054 1.334 . S
C1055 C1056 1.287 1_556 S
C1056 C1055 1.287 1_554 S
C1056 C1057 1.524 . S
C1056 H1075 0.913 . S
C1057 H1033 0.950 . S
C1057 C1056 1.524 . S
C1057 C1058 1.415 . S
C1058 H1034 0.950 . S
C1058 C1053 1.363 . S
C1058 C1057 1.415 . S
C1059 H1035 0.951 . S
C1059 C1060 1.366 . S
C1059 C1061 1.388 . S
C1060 C1059 1.366 . S
C1060 C1064 1.385 . S
C1061 H1036 0.951 1_554 S
C1061 C1059 1.388 . S
C1061 C1062 1.366 . S
C1062 C1061 1.366 . S
C1062 C1063 1.414 . S
C1062 C1065 1.499 . S
C1063 H1037 0.950 . S
C1063 C1062 1.414 . S
C1063 C1064 1.374 . S
C1064 H1038 0.950 . S
C1064 C1060 1.385 . S
C1064 C1063 1.374 . S
C1065 C1062 1.499 . S
C1065 C1066 1.373 . S
C1065 C1067 1.389 1_554 S
C1066 H1039 0.950 . S
C1066 C1052 1.377 1_554 S
C1066 C1065 1.373 . S
C1067 C1051 1.377 . S
C1067 C1065 1.389 1_556 S
C1067 C1068 1.524 . S
C1068 C1067 1.524 . S
C1068 C1069 1.397 . S
C1068 C1073 1.363 . S
C1069 H1040 0.950 1_556 S
C1069 C1068 1.397 . S
C1069 C1070 1.334 . S
C1070 H1041 0.975 . S
C1070 C1069 1.334 . S
C1070 C1071 1.287 . S
C1071 C1070 1.287 . S
C1071 C1072 1.524 . S
C1071 H1074 0.999 . S
C1072 H1042 0.950 . S
C1072 C1071 1.524 . S
C1072 C1073 1.415 . S
C1073 H1043 0.950 . S
C1073 C1068 1.363 . S
C1073 C1072 1.415 . S
H1074 C1071 0.999 . S
H1075 C1056 0.913 . S
H1076 C1094 0.951 1_655 S
H1077 C1096 0.951 . S
H1078 C1098 0.950 . S
H1079 C1099 0.950 . S
H1080 C1101 0.950 . S
H1081 C1104 0.950 . S
H1082 C1105 0.950 1_655 S
H1083 C1107 0.950 1_655 S
H1084 C1108 0.950 . S
H1085 C1109 0.951 . S
H1086 C1111 0.951 . S
H1087 C1113 0.950 . S
H1088 C1114 0.950 . S
H1089 C1116 0.950 . S
H1090 C1119 0.950 . S
H1091 C1120 0.950 . S
H1092 C1122 0.950 . S
H1093 C1123 0.950 . S
C1094 H1076 0.951 1_455 S
C1094 C1095 1.366 . S
C1094 C1096 1.388 . S
C1095 C1094 1.366 . S
C1095 C1099 1.385 . S
C1096 H1077 0.951 . S
C1096 C1094 1.388 . S
C1096 C1097 1.366 . S
C1097 C1096 1.366 . S
C1097 C1098 1.414 . S
C1097 C1100 1.499 . S
C1098 H1078 0.950 . S
C1098 C1097 1.414 . S
C1098 C1099 1.374 . S
C1099 H1079 0.950 . S
C1099 C1095 1.385 . S
C1099 C1098 1.374 . S
C1100 C1097 1.499 . S
C1100 C1101 1.373 . S
C1100 C1102 1.389 . S
C1101 H1080 0.950 . S
C1101 C1100 1.373 . S
C1101 C1117 1.377 . S
C1102 C1100 1.389 . S
C1102 C1103 1.524 . S
C1102 C1116 1.377 . S
C1103 C1102 1.524 . S
C1103 C1104 1.397 . S
C1103 C1108 1.363 . S
C1104 H1081 0.950 . S
C1104 C1103 1.397 . S
C1104 C1105 1.334 . S
C1105 H1082 0.950 1_455 S
C1105 C1104 1.334 . S
C1105 C1106 1.287 1_455 S
C1106 C1105 1.287 1_655 S
C1106 C1107 1.524 1_655 S
C1106 H1125 0.913 . S
C1107 H1083 0.950 1_455 S
C1107 C1106 1.524 1_455 S
C1107 C1108 1.415 . S
C1108 H1084 0.950 . S
C1108 C1103 1.363 . S
C1108 C1107 1.415 . S
C1109 H1085 0.951 . S
C1109 C1110 1.366 . S
C1109 C1111 1.388 . S
C1110 C1109 1.366 . S
C1110 C1114 1.385 . S
C1111 H1086 0.951 . S
C1111 C1109 1.388 . S
C1111 C1112 1.366 . S
C1112 C1111 1.366 . S
C1112 C1113 1.414 . S
C1112 C1115 1.499 . S
C1113 H1087 0.950 . S
C1113 C1112 1.414 . S
C1113 C1114 1.374 . S
C1114 H1088 0.950 . S
C1114 C1110 1.385 . S
C1114 C1113 1.374 . S
C1115 C1112 1.499 . S
C1115 C1116 1.373 . S
C1115 C1117 1.389 . S
C1116 H1089 0.950 . S
C1116 C1102 1.377 . S
C1116 C1115 1.373 . S
C1117 C1101 1.377 . S
C1117 C1115 1.389 . S
C1117 C1118 1.524 . S
C1118 C1117 1.524 . S
C1118 C1119 1.397 . S
C1118 C1123 1.363 . S
C1119 H1090 0.950 . S
C1119 C1118 1.397 . S
C1119 C1120 1.334 . S
C1120 H1091 0.950 . S
C1120 C1119 1.334 . S
C1120 C1121 1.287 . S
C1121 C1120 1.287 . S
C1121 C1122 1.524 . S
C1121 H1124 0.999 . S
C1122 H1092 0.950 . S
C1122 C1121 1.524 . S
C1122 C1123 1.415 . S
C1123 H1093 0.950 . S
C1123 C1118 1.363 . S
C1123 C1122 1.415 . S
H1124 C1121 0.999 . S
H1125 C1106 0.913 . S
H1126 C1144 0.951 . S
H1127 C1146 0.951 . S
H1128 C1148 0.950 . S
H1129 C1149 0.950 . S
H1130 C1151 0.950 . S
H1131 C1154 0.950 1_554 S
H1132 C1155 0.950 . S
H1133 C1157 0.950 . S
H1134 C1158 0.950 . S
H1135 C1159 0.951 . S
H1136 C1161 0.951 . S
H1137 C1163 0.950 . S
H1138 C1164 0.950 . S
H1139 C1166 0.950 . S
H1140 C1169 0.950 . S
H1141 C1170 0.950 . S
H1142 C1172 0.950 . S
H1143 C1173 0.950 . S
C1144 H1126 0.951 . S
C1144 C1145 1.366 . S
C1144 C1146 1.388 . S
C1145 C1144 1.366 . S
C1145 C1149 1.385 . S
C1146 H1127 0.951 . S
C1146 C1144 1.388 . S
C1146 C1147 1.366 . S
C1147 C1146 1.366 . S
C1147 C1148 1.414 . S
C1147 C1150 1.499 . S
C1148 H1128 0.950 . S
C1148 C1147 1.414 . S
C1148 C1149 1.374 . S
C1149 H1129 0.950 . S
C1149 C1145 1.385 . S
C1149 C1148 1.374 . S
C1150 C1147 1.499 . S
C1150 C1151 1.373 . S
C1150 C1152 1.396 . S
C1151 H1130 0.950 . S
C1151 C1150 1.373 . S
C1151 C1167 1.377 . S
C1152 C1150 1.396 . S
C1152 C1153 1.521 1_554 S
C1152 C1166 1.372 1_554 S
C1153 C1152 1.521 1_556 S
C1153 C1154 1.397 . S
C1153 C1158 1.363 . S
C1154 H1131 0.950 1_556 S
C1154 C1153 1.397 . S
C1154 C1155 1.334 . S
C1155 H1132 0.950 . S
C1155 C1154 1.334 . S
C1155 C1156 1.287 . S
C1156 C1155 1.287 . S
C1156 C1157 1.524 . S
C1156 H1175 0.913 . S
C1157 H1133 0.950 . S
C1157 C1156 1.524 . S
C1157 C1158 1.415 . S
C1158 H1134 0.950 . S
C1158 C1153 1.363 . S
C1158 C1157 1.415 . S
C1159 H1135 0.951 . S
C1159 C1160 1.366 . S
C1159 C1161 1.388 . S
C1160 C1159 1.366 . S
C1160 C1164 1.385 . S
C1161 H1136 0.951 . S
C1161 C1159 1.388 . S
C1161 C1162 1.366 . S
C1162 C1161 1.366 . S
C1162 C1163 1.414 . S
C1162 C1165 1.499 . S
C1163 H1137 0.950 . S
C1163 C1162 1.414 . S
C1163 C1164 1.374 . S
C1164 H1138 0.950 . S
C1164 C1160 1.385 . S
C1164 C1163 1.374 . S
C1165 C1162 1.499 . S
C1165 C1166 1.373 . S
C1165 C1167 1.389 1_556 S
C1166 H1139 0.950 . S
C1166 C1152 1.372 1_556 S
C1166 C1165 1.373 . S
C1167 C1151 1.377 . S
C1167 C1165 1.389 1_554 S
C1167 C1168 1.524 . S
C1168 C1167 1.524 . S
C1168 C1169 1.397 . S
C1168 C1173 1.363 . S
C1169 H1140 0.950 . S
C1169 C1168 1.397 . S
C1169 C1170 1.334 . S
C1170 H1141 0.950 . S
C1170 C1169 1.334 . S
C1170 C1171 1.287 . S
C1171 C1170 1.287 . S
C1171 C1172 1.524 . S
C1171 H1174 0.999 . S
C1172 H1142 0.950 . S
C1172 C1171 1.524 . S
C1172 C1173 1.415 . S
C1173 H1143 0.950 . S
C1173 C1168 1.363 . S
C1173 C1172 1.415 . S
H1174 C1171 0.999 . S
H1175 C1156 0.913 . S
H1176 C1194 0.951 . S
H1177 C1196 0.951 . S
H1178 C1198 0.950 . S
H1179 C1199 0.950 . S
H1180 C1201 0.950 . S
H1181 C1204 0.950 . S
H1182 C1205 0.950 . S
H1183 C1207 0.950 . S
H1184 C1208 0.950 . S
H1185 C1209 0.951 . S
H1186 C1211 0.951 . S
H1187 C1213 0.950 . S
H1188 C1214 0.950 . S
H1189 C1216 0.950 . S
H1190 C1219 0.950 . S
H1191 C1220 0.950 . S
H1192 C1222 0.950 . S
H1193 C1223 0.950 . S
C1194 H1176 0.951 . S
C1194 C1195 1.366 . S
C1194 C1196 1.388 . S
C1195 C1194 1.366 . S
C1195 C1199 1.385 . S
C1196 H1177 0.951 . S
C1196 C1194 1.388 . S
C1196 C1197 1.366 . S
C1197 C1196 1.366 . S
C1197 C1198 1.414 . S
C1197 C1200 1.499 . S
C1198 H1178 0.950 . S
C1198 C1197 1.414 . S
C1198 C1199 1.374 . S
C1199 H1179 0.950 . S
C1199 C1195 1.385 . S
C1199 C1198 1.374 . S
C1200 C1197 1.499 . S
C1200 C1201 1.373 . S
C1200 C1202 1.389 . S
C1201 H1180 0.950 . S
C1201 C1200 1.373 . S
C1201 C1217 1.377 . S
C1202 C1200 1.389 . S
C1202 C1203 1.524 . S
C1202 C1216 1.377 . S
C1203 C1202 1.524 . S
C1203 C1204 1.397 . S
C1203 C1208 1.363 . S
C1204 H1181 0.950 . S
C1204 C1203 1.397 . S
C1204 C1205 1.334 . S
C1205 H1182 0.950 . S
C1205 C1204 1.334 . S
C1205 C1206 1.287 . S
C1206 C1205 1.287 . S
C1206 C1207 1.524 . S
C1206 H1225 0.913 . S
C1207 H1183 0.950 . S
C1207 C1206 1.524 . S
C1207 C1208 1.415 . S
C1208 H1184 0.950 . S
C1208 C1203 1.363 . S
C1208 C1207 1.415 . S
C1209 H1185 0.951 . S
C1209 C1210 1.366 . S
C1209 C1211 1.388 . S
C1210 C1209 1.366 . S
C1210 C1214 1.385 . S
C1211 H1186 0.951 . S
C1211 C1209 1.388 . S
C1211 C1212 1.366 . S
C1212 C1211 1.366 . S
C1212 C1213 1.414 . S
C1212 C1215 1.499 . S
C1213 H1187 0.950 . S
C1213 C1212 1.414 . S
C1213 C1214 1.374 . S
C1214 H1188 0.950 . S
C1214 C1210 1.385 . S
C1214 C1213 1.374 . S
C1215 C1212 1.499 . S
C1215 C1216 1.373 . S
C1215 C1217 1.389 . S
C1216 H1189 0.950 . S
C1216 C1202 1.377 . S
C1216 C1215 1.373 . S
C1217 C1201 1.377 . S
C1217 C1215 1.389 . S
C1217 C1218 1.524 . S
C1218 C1217 1.524 . S
C1218 C1219 1.397 . S
C1218 C1223 1.363 . S
C1219 H1190 0.950 . S
C1219 C1218 1.397 . S
C1219 C1220 1.334 . S
C1220 H1191 0.950 . S
C1220 C1219 1.334 . S
C1220 C1221 1.287 . S
C1221 C1220 1.287 . S
C1221 C1222 1.524 . S
C1221 H1224 0.999 . S
C1222 H1192 0.950 . S
C1222 C1221 1.524 . S
C1222 C1223 1.415 . S
C1223 H1193 0.950 . S
C1223 C1218 1.363 . S
C1223 C1222 1.415 . S
H1224 C1221 0.999 . S
H1225 C1206 0.913 . S
H1226 C1244 0.951 . S
H1227 C1246 0.951 . S
H1228 C1248 0.950 . S
H1229 C1249 0.950 1_655 S
H1230 C1251 0.950 . S
H1231 C1254 0.950 . S
H1232 C1255 0.950 . S
H1233 C1257 0.950 . S
H1234 C1258 0.950 . S
H1235 C1259 0.951 . S
H1236 C1261 0.951 . S
H1237 C1263 0.995 . S
H1238 C1264 0.950 . S
H1239 C1266 0.950 . S
H1240 C1269 0.950 1_554 S
H1241 C1270 0.950 . S
H1242 C1272 0.950 . S
H1243 C1273 0.950 . S
C1244 H1226 0.951 . S
C1244 C1245 1.366 . S
C1244 C1246 1.388 . S
C1245 C1244 1.366 . S
C1245 C1249 1.385 . S
C1246 H1227 0.951 . S
C1246 C1244 1.388 . S
C1246 C1247 1.366 . S
C1247 C1246 1.366 . S
C1247 C1248 1.414 . S
C1247 C1250 1.499 . S
C1248 H1228 0.950 . S
C1248 C1247 1.414 . S
C1248 C1249 1.374 . S
C1249 H1229 0.950 1_455 S
C1249 C1245 1.385 . S
C1249 C1248 1.374 . S
C1250 C1247 1.499 . S
C1250 C1251 1.373 . S
C1250 C1252 1.389 . S
C1251 H1230 0.950 . S
C1251 C1250 1.373 . S
C1251 C1267 1.387 . S
C1252 C1250 1.389 . S
C1252 C1253 1.524 . S
C1252 C1266 1.377 . S
C1253 C1252 1.524 . S
C1253 C1254 1.397 . S
C1253 C1258 1.363 . S
C1254 H1231 0.950 . S
C1254 C1253 1.397 . S
C1254 C1255 1.334 . S
C1255 H1232 0.950 . S
C1255 C1254 1.334 . S
C1255 C1256 1.287 . S
C1256 C1255 1.287 . S
C1256 C1257 1.524 . S
C1256 H1275 0.913 . S
C1257 H1233 0.950 . S
C1257 C1256 1.524 . S
C1257 C1258 1.415 . S
C1258 H1234 0.950 . S
C1258 C1253 1.363 . S
C1258 C1257 1.415 . S
C1259 H1235 0.951 . S
C1259 C1260 1.366 . S
C1259 C1261 1.388 . S
C1260 C1259 1.366 . S
C1260 C1264 1.385 . S
C1261 H1236 0.951 . S
C1261 C1259 1.388 . S
C1261 C1262 1.366 . S
C1262 C1261 1.366 . S
C1262 C1263 1.414 . S
C1262 C1265 1.499 . S
C1263 H1237 0.995 . S
C1263 C1262 1.414 . S
C1263 C1264 1.374 . S
C1264 H1238 0.950 . S
C1264 C1260 1.385 . S
C1264 C1263 1.374 . S
C1265 C1262 1.499 . S
C1265 C1266 1.373 1_556 S
C1265 C1267 1.386 1_556 S
C1266 H1239 0.950 . S
C1266 C1252 1.377 . S
C1266 C1265 1.373 1_554 S
C1267 C1251 1.387 . S
C1267 C1265 1.386 1_554 S
C1267 C1268 1.519 1_554 S
C1268 C1267 1.519 1_556 S
C1268 C1269 1.397 . S
C1268 C1273 1.363 . S
C1269 H1240 0.950 1_556 S
C1269 C1268 1.397 . S
C1269 C1270 1.334 . S
C1270 H1241 0.950 . S
C1270 C1269 1.334 . S
C1270 C1271 1.287 . S
C1271 C1270 1.287 . S
C1271 C1272 1.524 . S
C1271 H1274 0.999 . S
C1272 H1242 0.950 . S
C1272 C1271 1.524 . S
C1272 C1273 1.415 . S
C1273 H1243 0.950 . S
C1273 C1268 1.363 . S
C1273 C1272 1.415 . S
H1274 C1271 0.999 . S
H1275 C1256 0.913 . S
H1276 C1294 0.951 . S
H1277 C1296 0.951 . S
H1278 C1298 0.950 . S
H1279 C1299 0.950 1_455 S
H1280 C1301 0.950 . S
H1281 C1304 0.950 . S
H1282 C1305 0.950 . S
H1283 C1307 0.950 . S
H1284 C1308 0.950 . S
H1285 C1309 0.951 . S
H1286 C1311 0.951 . S
H1287 C1313 0.950 . S
H1288 C1314 0.950 . S
H1289 C1316 0.950 . S
H1290 C1319 0.950 . S
H1291 C1320 0.950 . S
H1292 C1322 0.950 . S
H1293 C1323 0.950 . S
C1294 H1276 0.951 . S
C1294 C1295 1.366 . S
C1294 C1296 1.388 . S
C1295 C1294 1.366 . S
C1295 C1299 1.385 . S
C1296 H1277 0.951 . S
C1296 C1294 1.388 . S
C1296 C1297 1.366 . S
C1297 C1296 1.366 . S
C1297 C1298 1.414 . S
C1297 C1300 1.499 . S
C1298 H1278 0.950 . S
C1298 C1297 1.414 . S
C1298 C1299 1.374 . S
C1299 H1279 0.950 1_655 S
C1299 C1295 1.385 . S
C1299 C1298 1.374 . S
C1300 C1297 1.499 . S
C1300 C1301 1.373 . S
C1300 C1302 1.389 . S
C1301 H1280 0.950 . S
C1301 C1300 1.373 . S
C1301 C1317 1.377 . S
C1302 C1300 1.389 . S
C1302 C1303 1.524 . S
C1302 C1316 1.377 . S
C1303 C1302 1.524 . S
C1303 C1304 1.397 . S
C1303 C1308 1.363 . S
C1304 H1281 0.950 . S
C1304 C1303 1.397 . S
C1304 C1305 1.334 . S
C1305 H1282 0.950 . S
C1305 C1304 1.334 . S
C1305 C1306 1.287 . S
C1306 C1305 1.287 . S
C1306 C1307 1.524 . S
C1306 H1325 0.913 . S
C1307 H1283 0.950 . S
C1307 C1306 1.524 . S
C1307 C1308 1.415 . S
C1308 H1284 0.950 . S
C1308 C1303 1.363 . S
C1308 C1307 1.415 . S
C1309 H1285 0.951 . S
C1309 C1310 1.366 . S
C1309 C1311 1.388 . S
C1310 C1309 1.366 . S
C1310 C1314 1.385 . S
C1311 H1286 0.951 . S
C1311 C1309 1.388 . S
C1311 C1312 1.366 . S
C1312 C1311 1.366 . S
C1312 C1313 1.414 . S
C1312 C1315 1.499 . S
C1313 H1287 0.950 . S
C1313 C1312 1.414 . S
C1313 C1314 1.374 . S
C1314 H1288 0.950 . S
C1314 C1310 1.385 . S
C1314 C1313 1.374 . S
C1315 C1312 1.499 . S
C1315 C1316 1.373 . S
C1315 C1317 1.389 . S
C1316 H1289 0.950 . S
C1316 C1302 1.377 . S
C1316 C1315 1.373 . S
C1317 C1301 1.377 . S
C1317 C1315 1.389 . S
C1317 C1318 1.524 . S
C1318 C1317 1.524 . S
C1318 C1319 1.397 . S
C1318 C1323 1.363 . S
C1319 H1290 0.950 . S
C1319 C1318 1.397 . S
C1319 C1320 1.334 . S
C1320 H1291 0.950 . S
C1320 C1319 1.334 . S
C1320 C1321 1.287 . S
C1321 C1320 1.287 . S
C1321 C1322 1.524 . S
C1321 H1324 0.999 . S
C1322 H1292 0.950 . S
C1322 C1321 1.524 . S
C1322 C1323 1.415 . S
C1323 H1293 0.950 . S
C1323 C1318 1.363 . S
C1323 C1322 1.415 . S
H1324 C1321 0.999 . S
H1325 C1306 0.913 . S
H1326 C1344 0.951 . S
H1327 C1346 0.951 . S
H1328 C1348 0.950 . S
H1329 C1349 0.950 . S
H1330 C1351 0.950 . S
H1331 C1354 0.950 . S
H1332 C1355 0.950 . S
H1333 C1357 0.950 . S
H1334 C1358 0.950 . S
H1335 C1359 0.951 . S
H1336 C1361 0.951 . S
H1337 C1363 0.950 . S
H1338 C1364 0.950 . S
H1339 C1366 0.950 . S
H1340 C1369 0.950 1_556 S
H1341 C1370 0.950 . S
H1342 C1372 0.950 . S
H1343 C1373 0.950 . S
C1344 H1326 0.951 . S
C1344 C1345 1.366 . S
C1344 C1346 1.388 . S
C1345 C1344 1.366 . S
C1345 C1349 1.385 . S
C1346 H1327 0.951 . S
C1346 C1344 1.388 . S
C1346 C1347 1.366 . S
C1347 C1346 1.366 . S
C1347 C1348 1.414 . S
C1347 C1350 1.499 . S
C1348 H1328 0.950 . S
C1348 C1347 1.414 . S
C1348 C1349 1.374 . S
C1349 H1329 0.950 . S
C1349 C1345 1.385 . S
C1349 C1348 1.374 . S
C1350 C1347 1.499 . S
C1350 C1351 1.373 . S
C1350 C1352 1.389 1_554 S
C1351 H1330 0.950 . S
C1351 C1350 1.373 . S
C1351 C1367 1.374 1_554 S
C1352 C1350 1.389 1_556 S
C1352 C1353 1.524 . S
C1352 C1366 1.377 . S
C1353 C1352 1.524 . S
C1353 C1354 1.397 . S
C1353 C1358 1.363 . S
C1354 H1331 0.950 . S
C1354 C1353 1.397 . S
C1354 C1355 1.334 . S
C1355 H1332 0.950 . S
C1355 C1354 1.334 . S
C1355 C1356 1.287 . S
C1356 C1355 1.287 . S
C1356 C1357 1.524 . S
C1356 H1375 0.913 . S
C1357 H1333 0.950 . S
C1357 C1356 1.524 . S
C1357 C1358 1.415 . S
C1358 H1334 0.950 . S
C1358 C1353 1.363 . S
C1358 C1357 1.415 . S
C1359 H1335 0.951 . S
C1359 C1360 1.366 . S
C1359 C1361 1.388 . S
C1360 C1359 1.366 . S
C1360 C1364 1.385 . S
C1361 H1336 0.951 . S
C1361 C1359 1.388 . S
C1361 C1362 1.366 . S
C1362 C1361 1.366 . S
C1362 C1363 1.414 . S
C1362 C1365 1.499 . S
C1363 H1337 0.950 . S
C1363 C1362 1.414 . S
C1363 C1364 1.374 . S
C1364 H1338 0.950 . S
C1364 C1360 1.385 . S
C1364 C1363 1.374 . S
C1365 C1362 1.499 . S
C1365 C1366 1.373 . S
C1365 C1367 1.393 . S
C1366 H1339 0.950 . S
C1366 C1352 1.377 . S
C1366 C1365 1.373 . S
C1367 C1351 1.374 1_556 S
C1367 C1365 1.393 . S
C1367 C1368 1.523 1_556 S
C1368 C1367 1.523 1_554 S
C1368 C1369 1.397 . S
C1368 C1373 1.363 . S
C1369 H1340 0.950 1_554 S
C1369 C1368 1.397 . S
C1369 C1370 1.334 . S
C1370 H1341 0.950 . S
C1370 C1369 1.334 . S
C1370 C1371 1.287 . S
C1371 C1370 1.287 . S
C1371 C1372 1.524 . S
C1371 H1374 0.999 . S
C1372 H1342 0.950 . S
C1372 C1371 1.524 . S
C1372 C1373 1.415 . S
C1373 H1343 0.950 . S
C1373 C1368 1.363 . S
C1373 C1372 1.415 . S
H1374 C1371 0.999 . S
H1375 C1356 0.913 . S
C195 C153 1.497 . S
C210 C10 1.481 . S
C245 C30 1.481 . S
C260 C169 1.497 . S
C295 C109 1.497 . S
C310 C54 1.481 . S
C345 C76 1.481 . S
C360 C131 1.497 . S
C395 C65 1.497 . S
C410 C98 1.481 . S
C445 C120 1.481 . S
C460 C87 1.497 . S
C495 C21 1.497 . S
C510 C142 1.481 . S
C545 C29 1.497 . S
C560 C172 1.481 . S
C595 C7 0.767 . S
C610 C95 0.767 . S
C645 C117 0.767 . S
C660 C37 0.767 . S
C695 C51 0.768 . S
C710 C139 0.768 . S
C745 C175 0.769 . S
C760 C73 0.769 . S
C795 C74 1.551 . S
C810 C8 1.551 . S
C845 C40 1.551 . S
C860 C52 1.551 . S
C895 C164 1.551 . S
C910 C96 1.551 . S
C945 C118 1.551 . S
C960 C140 1.551 . S
C995 C18 1.422 . S
C1010 C59 1.445 . S
C1045 C32 1.422 1_655 S
C1060 C81 1.444 . S
C1095 C62 1.422 1_455 S
C1110 C15 1.444 . S
C1145 C84 1.422 . S
C1160 C43 1.444 . S
C1195 C106 1.421 . S
C1210 C147 1.445 . S
C1245 C128 1.422 1_455 S
C1260 C161 1.444 . S
C1295 C150 1.422 1_655 S
C1310 C103 1.444 . S
C1345 C125 1.444 . S
C1360 C162 1.422 . S
