# Generated by pormake.
# Topology snp, (6)-cn, num edge types: 1
# Building blocks:
#     Node 0, Type 0, BuildingBlock: BETDAH_clean_sbu_0, # of connection points: 6
#     Node 1, Type 0, BuildingBlock: BETDAH_clean_sbu_0, # of connection points: 6
#     Node 2, Type 0, BuildingBlock: BETDAH_clean_sbu_0, # of connection points: 6
#     Node 3, Type 0, BuildingBlock: BETDAH_clean_sbu_0, # of connection points: 6
#     Edge 4, Type (0, 0), BuildingBlock: ZUJKAS_clean_linker_0, # of connection points: 2
#     Edge 5, Type (0, 0), BuildingBlock: ZUJKAS_clean_linker_0, # of connection points: 2
#     Edge 6, Type (0, 0), BuildingBlock: ZUJKAS_clean_linker_0, # of connection points: 2
#     Edge 7, Type (0, 0), BuildingBlock: ZUJKAS_clean_linker_0, # of connection points: 2
#     Edge 8, Type (0, 0), BuildingBlock: ZUJKAS_clean_linker_0, # of connection points: 2
#     Edge 9, Type (0, 0), BuildingBlock: ZUJKAS_clean_linker_0, # of connection points: 2
#     Edge 10, Type (0, 0), BuildingBlock: ZUJKAS_clean_linker_0, # of connection points: 2
#     Edge 11, Type (0, 0), BuildingBlock: ZUJKAS_clean_linker_0, # of connection points: 2
#     Edge 12, Type (0, 0), BuildingBlock: ZUJKAS_clean_linker_0, # of connection points: 2
#     Edge 13, Type (0, 0), BuildingBlock: ZUJKAS_clean_linker_0, # of connection points: 2
#     Edge 14, Type (0, 0), BuildingBlock: ZUJKAS_clean_linker_0, # of connection points: 2
#     Edge 15, Type (0, 0), BuildingBlock: ZUJKAS_clean_linker_0, # of connection points: 2
# Relax obj value: 0.532
# Max RMSD: 0.174
# Mean RMSD: 0.174
data_MOF--net-snp--node1-BETDAH_clean_sbu_0--edge1-ZUJKAS_clean_linker_0
_symmetry_space_group_name_H-M    P1
_symmetry_Int_Tables_number       1
_symmetry_cell_setting            triclinic
loop_
_symmetry_equiv_pos_as_xyz
'x, y, z'
_cell_length_a     32.325857
_cell_length_b     32.36861
_cell_length_c     38.029292
_cell_angle_alpha  90.090646
_cell_angle_beta   90.152997
_cell_angle_gamma 90.121129
loop_
_atom_site_label
_atom_site_type_symbol
_atom_site_fract_x
_atom_site_fract_y
_atom_site_fract_z
_atom_type_partial_charge
Ho0 Ho 0.23804 0.97207 0.13343 0.0
Ho1 Ho 0.21969 0.05659 1.1101 0.0
C2 C 0.20156 0.03964 0.19243 0.0
C3 C 0.27747 0.90749 0.15516 0.0
C4 C 0.30127 0.88881 0.18389 0.0
C5 C 0.33341 0.86163 0.17529 0.0
C6 C 0.35343 0.83904 0.20149 0.0
C7 C 0.34161 0.84332 0.2368 0.0
C8 C 0.31063 0.87213 0.24551 0.0
C9 C 0.29059 0.89473 0.21923 0.0
C10 C 0.15955 0.97881 0.11225 0.0
C11 C 0.22116 0.98518 1.04792 0.0
C12 C 0.19987 0.12765 1.08404 0.0
C13 C 0.22079 0.15919 1.06238 0.0
C14 C 0.23025 0.15158 1.02696 0.0
C15 C 0.24953 0.18188 1.00675 0.0
C16 C 0.26001 0.22047 1.02146 0.0
C17 C 0.25083 0.22793 1.057 0.0
C18 C 0.2313 0.19761 1.07722 0.0
C19 C 0.30251 0.04177 0.1241 0.0
O20 O 0.22617 0.00661 0.18737 0.0
O21 O 0.18926 0.06039 0.16421 0.0
O22 O 0.23784 0.91323 0.16004 0.0
O23 O 0.29511 0.93758 0.13786 0.0
O24 O 0.18019 0.94445 0.11243 0.0
O25 O 0.17992 0.00637 0.12877 0.0
O26 O 0.21342 0.02429 1.05648 0.0
O27 O 0.23431 0.95916 1.07299 0.0
O28 O 0.21435 0.12284 0.11582 0.0
O29 O 0.19076 0.09246 1.06893 0.0
O30 O 0.28268 0.0747 0.13292 0.0
O31 O 0.27739 0.01881 1.10787 0.0
H32 H 0.34209 0.85681 0.14808 0.0
H33 H 0.37746 0.81749 0.19402 0.0
H34 H 0.30047 0.8758 0.27244 0.0
H35 H 0.26586 0.91563 0.22639 0.0
H36 H 0.22239 0.1224 1.01462 0.0
H37 H 0.25508 0.17538 0.97922 0.0
H38 H 0.25855 0.25724 1.06915 0.0
H39 H 0.22424 0.20427 1.10448 0.0
Ho40 Ho 0.05198 0.21288 0.628 0.0
Ho41 Ho 0.97264 0.23674 0.60035 0.0
C42 C 0.98227 0.21141 0.68616 0.0
C43 C 0.13046 0.21706 0.64089 0.0
C44 C 0.15687 0.24072 0.66492 0.0
C45 C 0.1996 0.23384 0.66533 0.0
C46 C 0.22501 0.25617 0.68832 0.0
C47 C 0.20795 0.28577 0.71117 0.0
C48 C 0.16511 0.29329 0.70989 0.0
C49 C 0.13976 0.27092 0.68694 0.0
C50 C -0.00131 0.14899 0.61884 0.0
C51 C 0.03978 0.20245 0.54113 0.0
C52 C 0.89519 0.25185 0.58787 0.0
C53 C 0.87017 0.28528 0.57318 0.0
C54 C 0.82704 0.28184 0.57389 0.0
C55 C 0.80261 0.31023 0.55577 0.0
C56 C 0.82107 0.3424 0.53652 0.0
C57 C 0.86427 0.34765 0.53833 0.0
C58 C 0.8887 0.31918 0.55653 0.0
C59 C 0.02379 0.30373 0.60624 0.0
O60 O 0.02231 0.2185 0.68183 0.0
O61 O 0.95793 0.21221 0.65747 0.0
O62 O 0.106 0.18966 0.6553 0.0
O63 O 0.11183 0.23906 0.61683 0.0
O64 O 0.02777 0.14822 0.64252 0.0
O65 O 0.00435 0.17935 0.59942 0.0
O66 O 0.0003 0.21348 0.54683 0.0
O67 O 0.06527 0.20153 0.56877 0.0
O68 O 0.9133 0.25964 0.61777 0.0
O69 O 0.91944 0.23274 0.56587 0.0
O70 O 0.00077 0.29489 0.57953 0.0
O71 O 0.0198 0.27496 0.62896 0.0
H72 H 0.21326 0.21093 0.64813 0.0
H73 H 0.2579 0.24987 0.68858 0.0
H74 H 0.1509 0.31531 0.72758 0.0
H75 H 0.10676 0.27675 0.68669 0.0
H76 H 0.81235 0.25593 0.58691 0.0
H77 H 0.76954 0.30492 0.55453 0.0
H78 H 0.87929 0.37228 0.52391 0.0
H79 H 0.92205 0.32249 0.55616 0.0
Ho80 Ho 0.82455 0.08817 0.13291 0.0
Ho81 Ho 0.84053 0.00331 1.10869 0.0
C82 C 0.86076 0.01957 0.19157 0.0
C83 C 0.78513 0.15164 0.15694 0.0
C84 C 0.7681 0.17063 0.18893 0.0
C85 C 0.72661 0.1833 0.18891 0.0
C86 C 0.71058 0.20551 0.21728 0.0
C87 C 0.73589 0.21559 0.24613 0.0
C88 C 0.77723 0.20192 0.24641 0.0
C89 C 0.79317 0.17957 0.21813 0.0
C90 C 0.90256 0.07975 0.11144 0.0
C91 C 0.83999 0.07563 1.04733 0.0
C92 C 0.85978 0.93216 1.08227 0.0
C93 C 0.83677 0.89853 1.06541 0.0
C94 C 0.7957 0.90415 1.05444 0.0
C95 C 0.77483 0.87243 1.03676 0.0
C96 C 0.79473 0.83464 1.03002 0.0
C97 C 0.83525 0.82866 1.04259 0.0
C98 C 0.8561 0.86042 1.06011 0.0
C99 C 0.75827 0.01953 0.12295 0.0
O100 O 0.83975 0.05503 0.18677 0.0
O101 O 0.86943 0.99689 0.16341 0.0
O102 O 0.82538 0.15017 0.15376 0.0
O103 O 0.76667 0.11833 0.14528 0.0
O104 O 0.88294 0.11475 0.11236 0.0
O105 O 0.88162 0.05243 0.12765 0.0
O106 O 0.84847 0.03664 1.05574 0.0
O107 O 0.82624 0.10126 1.07248 0.0
O108 O 0.85161 0.93799 0.11542 0.0
O109 O 0.86196 0.96674 1.06471 0.0
O110 O 0.77734 0.98583 0.1308 0.0
O111 O 0.78375 0.04237 1.1071 0.0
H112 H 0.70679 0.17683 0.16653 0.0
H113 H 0.67851 0.21509 0.21645 0.0
H114 H 0.7978 0.20967 0.26797 0.0
H115 H 0.82535 0.17033 0.21877 0.0
H116 H 0.78019 0.93335 1.05882 0.0
H117 H 0.74361 0.87783 1.02748 0.0
H118 H 0.85169 0.80021 1.03727 0.0
H119 H 0.88771 0.85559 1.0687 0.0
Ho120 Ho 0.01284 0.84099 0.62379 0.0
Ho121 Ho 0.0959 0.83102 0.60012 0.0
C122 C 0.08445 0.85227 0.68399 0.0
C123 C 0.93863 0.8302 0.64752 0.0
C124 C 0.91482 0.80729 0.67371 0.0
C125 C 0.93417 0.78369 0.69984 0.0
C126 C 0.91023 0.76184 0.72416 0.0
C127 C 0.86671 0.76331 0.72252 0.0
C128 C 0.84771 0.78624 0.69564 0.0
C129 C 0.87161 0.80804 0.67147 0.0
C130 C 0.04879 0.9139 0.60489 0.0
C131 C 0.0221 0.85257 0.53968 0.0
C132 C 0.16927 0.83052 0.57281 0.0
C133 C 0.20057 0.79997 0.56222 0.0
C134 C 0.19124 0.76823 0.53824 0.0
C135 C 0.22278 0.7435 0.52471 0.0
C136 C 0.26417 0.74994 0.535 0.0
C137 C 0.27276 0.77942 0.56124 0.0
C138 C 0.24126 0.80436 0.57455 0.0
C139 C 0.06373 0.75613 0.62066 0.0
O140 O 0.04572 0.83974 0.67807 0.0
O141 O 0.10905 0.85677 0.65609 0.0
O142 O 0.96342 0.85931 0.65888 0.0
O143 O 0.95496 0.80793 0.62255 0.0
O144 O 0.00997 0.90527 0.6005 0.0
O145 O 0.06571 0.88477 0.62093 0.0
O146 O 0.06228 0.84719 0.54686 0.0
O147 O 0.99543 0.84865 0.56582 0.0
O148 O 0.16247 0.834 0.60638 0.0
O149 O 0.1353 0.83226 0.55428 0.0
O150 O 0.10074 0.76933 0.62623 0.0
O151 O 0.04457 0.78389 0.60337 0.0
H152 H 0.96761 0.78253 0.7016 0.0
H153 H 0.92575 0.74491 0.74487 0.0
H154 H 0.81433 0.78763 0.69348 0.0
H155 H 0.85629 0.8257 0.65106 0.0
H156 H 0.15998 0.76379 0.52863 0.0
H157 H 0.215 0.72143 0.50429 0.0
H158 H 0.30421 0.78475 0.57007 0.0
H159 H 0.24902 0.82834 0.59338 0.0
H160 H 0.93727 0.00622 1.09266 0.0
H161 H 0.97001 0.99019 1.03734 0.0
H162 H 0.95576 0.11747 1.00416 0.0
H163 H 0.92688 0.13384 1.0611 0.0
H164 H 0.01439 0.10361 0.97294 0.0
H165 H 0.9628 0.95688 0.94104 0.0
H166 H 0.92853 0.98768 0.96781 0.0
H167 H 0.95944 0.94668 0.98705 0.0
C168 C 0.942 0.03077 1.07374 0.0
C169 C 0.92945 0.07104 1.08118 0.0
C170 C 0.95948 0.02151 1.04122 0.0
C171 C 0.964 0.05218 1.0149 0.0
C172 C 0.95257 0.09285 1.02319 0.0
H173 H 0.13747 0.92558 1.0603 0.0
H174 H 0.10403 0.94209 1.00501 0.0
C175 C 0.93637 0.1023 1.05614 0.0
C176 C 0.98712 0.04312 0.98177 0.0
H177 H 0.03877 0.95348 0.98175 0.0
C178 C 0.01957 0.07059 0.97381 0.0
C179 C 0.99417 0.00135 0.97321 0.0
C180 C 0.95891 0.97174 0.96714 0.0
C181 C 0.06028 0.05607 0.97612 0.0
C182 C 0.06601 0.01477 0.98702 0.0
C183 C 0.0343 0.98642 0.97867 0.0
C184 C 0.09189 0.00599 1.01849 0.0
C185 C 0.09591 0.08581 0.97285 0.0
C186 C 0.09558 0.03589 1.04552 0.0
C187 C 0.11577 0.02677 1.07699 0.0
C188 C 0.13153 0.98722 1.0826 0.0
C189 C 0.12557 0.95656 1.05673 0.0
C190 C 0.10677 0.96606 1.02477 0.0
H191 H 0.09452 0.10104 0.94674 0.0
H192 H 0.0933 0.11055 0.99297 0.0
H193 H 0.1262 0.06999 0.97564 0.0
H194 H 0.0821 0.06628 1.04292 0.0
H195 H 0.11957 0.05074 1.09665 0.0
H196 H 0.10318 0.90665 0.54854 0.0
H197 H 0.08602 0.94848 0.49689 0.0
H198 H 0.04084 0.04369 0.56538 0.0
H199 H 0.04612 -0.00294 0.61535 0.0
H200 H 0.99337 0.94518 0.52157 0.0
H201 H 0.02897 0.09149 0.45957 0.0
H202 H 0.06827 0.05273 0.46776 0.0
H203 H 0.05589 0.09053 0.50103 0.0
C204 C 0.08833 0.93598 0.55235 0.0
C205 C 0.07022 0.94631 0.58474 0.0
C206 C 0.08031 0.96066 0.52294 0.0
C207 C 0.05759 -0.00296 0.52726 0.0
C208 C 0.05509 0.01384 0.56137 0.0
H209 H 0.00163 0.06544 0.63315 0.0
H210 H 0.97216 0.01357 0.59394 0.0
C211 C 0.05828 0.98731 0.59016 0.0
C212 C 0.01999 0.00315 0.50561 0.0
H213 H 0.96858 0.0936 0.50382 0.0
C214 C 0.98698 0.97691 0.5149 0.0
C215 C 0.01024 0.04344 0.49491 0.0
C216 C 0.04287 0.07099 0.47971 0.0
C217 C 0.9497 0.99393 0.52677 0.0
C218 C 0.9465 0.03727 0.52826 0.0
C219 C 0.97255 0.06043 0.50596 0.0
C220 C 0.9371 0.05734 0.56251 0.0
C221 C 0.91854 0.96654 0.54461 0.0
C222 C 0.92103 0.09743 0.56229 0.0
C223 C 0.93711 0.12676 0.58547 0.0
C224 C 0.96925 0.11623 0.6088 0.0
C225 C 0.97787 0.07454 0.6146 0.0
C226 C 0.96069 0.04485 0.59201 0.0
H227 H 0.91054 0.94023 0.52708 0.0
H228 H 0.93225 0.95341 0.56894 0.0
H229 H 0.8899 0.98368 0.55138 0.0
H230 H 0.90176 0.10771 0.54066 0.0
H231 H 0.92846 0.15864 0.58179 0.0
H232 H 0.70825 0.07176 1.08377 0.0
H233 H 0.63243 0.07528 1.08274 0.0
H234 H 0.62673 0.98232 0.16371 0.0
H235 H 0.70223 0.97703 0.16298 0.0
H236 H 0.5689 0.96541 0.12325 0.0
H237 H 0.55312 0.13373 0.14106 0.0
H238 H 0.58149 0.12235 1.10187 0.0
H239 H 0.6025 0.10838 0.14424 0.0
C240 C 0.69083 0.05226 1.10152 0.0
C241 C 0.71176 0.02423 0.12359 0.0
C242 C 0.64708 0.05455 1.10122 0.0
C243 C 0.62263 0.02983 0.12377 0.0
C244 C 0.64388 0.002 0.14592 0.0
H245 H 0.35869 0.08459 0.16439 0.0
H246 H 0.43432 0.07995 0.16469 0.0
C247 C 0.68746 -0.00092 0.14565 0.0
C248 C 0.57535 0.03165 0.12375 0.0
H249 H 0.492 0.09753 0.12423 0.0
C250 C 0.55235 0.9945 0.12371 0.0
C251 C 0.55251 0.0692 0.12496 0.0
C252 C 0.57367 0.1106 0.12843 0.0
C253 C 0.50843 0.99374 0.12465 0.0
C254 C 0.48557 0.0313 0.12399 0.0
C255 C 0.50856 0.06845 0.12426 0.0
C256 C 0.43829 0.03301 0.12415 0.0
C257 C 0.48734 0.95228 0.12783 0.0
C258 C 0.41377 0.00848 1.10134 0.0
C259 C 0.37003 0.01038 1.10187 0.0
C260 C 0.34911 0.03785 0.12443 0.0
C261 C 0.37346 0.06294 0.1467 0.0
C262 C 0.41709 0.06039 0.14672 0.0
H263 H 0.50805 0.92907 0.14018 0.0
H264 H 0.45868 0.95433 0.14375 0.0
H265 H 0.47926 0.94075 1.10119 0.0
H266 H 0.42836 0.98813 1.08253 0.0
H267 H 0.35258 0.99097 1.08394 0.0
H268 H 0.05351 0.35998 0.55995 0.0
H269 H 0.05845 0.435 0.56582 0.0
H270 H 0.01522 0.42612 0.6727 0.0
H271 H 0.01237 0.35043 0.6672 0.0
H272 H 0.00534 0.49099 0.57252 0.0
H273 H 0.10289 0.50694 0.69131 0.0
H274 H 0.0953 0.45789 0.6698 0.0
H275 H 0.05693 0.4776 0.69975 0.0
C276 C 0.04626 0.37385 0.58513 0.0
C277 C 0.03349 0.34865 0.61331 0.0
C278 C 0.04861 0.41718 0.58839 0.0
C279 C 0.03767 0.43746 0.61985 0.0
C280 C 0.02521 0.41215 0.64832 0.0
H281 H 0.99013 0.71214 0.60719 0.0
H282 H 0.97979 0.63659 0.60849 0.0
C283 C 0.02356 0.36846 0.64522 0.0
C284 C 0.0378 0.48467 0.62174 0.0
H285 H 0.07085 0.56798 0.67054 0.0
C286 C 0.01989 0.50761 0.59403 0.0
C287 C 0.05684 0.50749 0.64941 0.0
C288 C 0.07944 0.48626 0.67905 0.0
C289 C 0.02091 0.55149 0.59291 0.0
C290 C 0.03909 0.57434 0.62099 0.0
C291 C 0.05649 0.55138 0.64893 0.0
C292 C 0.04357 0.6214 0.62089 0.0
C293 C 0.00395 0.57263 0.56064 0.0
C294 C 0.08215 0.63948 0.62875 0.0
C295 C 0.0877 0.68259 0.62889 0.0
C296 C 0.05511 0.71002 0.62079 0.0
C297 C 0.01618 0.69235 0.61315 0.0
C298 C 0.01041 0.64877 0.61357 0.0
H299 H 0.00245 0.55128 0.53776 0.0
H300 H 0.97203 0.58338 0.56607 0.0
H301 H 0.02315 0.59971 0.55326 0.0
H302 H 0.10859 0.6201 0.63449 0.0
H303 H 0.11824 0.6944 0.63506 0.0
H304 H 0.11545 0.1662 0.52372 0.0
H305 H 0.14133 0.13976 0.46744 0.0
H306 H 0.02817 0.1766 0.41697 0.0
H307 H 0.00168 0.20242 0.47367 0.0
H308 H 0.11525 0.07729 0.42107 0.0
H309 H 0.11106 0.22365 0.34659 0.0
H310 H 0.10665 0.22225 0.39389 0.0
H311 H 0.06282 0.20965 0.36673 0.0
C312 C 0.09572 0.16912 0.50082 0.0
C313 C 0.05587 0.18718 0.50455 0.0
C314 C 0.11088 0.1536 0.468 0.0
C315 C 0.0877 0.15588 0.43636 0.0
C316 C 0.04799 0.17442 0.43986 0.0
H317 H 0.13753 0.09379 0.20869 0.0
H318 H 0.11154 0.11849 0.26515 0.0
C319 C 0.03243 0.18926 0.47295 0.0
C320 C 0.1046 0.13817 0.4007 0.0
H321 H 0.1274 0.16364 0.31437 0.0
C322 C 0.11771 0.0965 0.39788 0.0
C323 C 0.10856 0.16187 0.36921 0.0
C324 C 0.09693 0.20692 0.36906 0.0
C325 C 0.13271 0.07826 0.36574 0.0
C326 C 0.13752 0.10216 0.33422 0.0
C327 C 0.12455 0.14402 0.33728 0.0
C328 C 0.15449 0.08485 0.29815 0.0
C329 C 0.1413 0.03252 0.36601 0.0
C330 C 0.18839 0.05682 0.29514 0.0
C331 C 0.20313 0.04152 0.26189 0.0
C332 C 0.18569 0.05407 0.22933 0.0
C333 C 0.15248 0.0826 0.23233 0.0
C334 C 0.13737 0.09727 0.26541 0.0
H335 H 0.12311 0.01653 0.3867 0.0
H336 H 0.13373 0.01806 0.34031 0.0
H337 H 0.17451 0.0274 0.37196 0.0
H338 H 0.20453 0.04703 0.31858 0.0
H339 H 0.22899 0.02032 0.26179 0.0
H340 H 0.90122 0.19185 0.70891 0.0
H341 H 0.8766 0.17141 0.76767 0.0
H342 H 0.001 0.18013 0.80749 0.0
H343 H 0.02524 0.20154 0.74944 0.0
H344 H 0.883 0.11129 0.81179 0.0
H345 H 0.95252 0.23961 0.88662 0.0
H346 H 0.95234 0.23896 0.83926 0.0
H347 H 0.99132 0.21107 0.86353 0.0
C348 C 0.92351 0.18999 0.73015 0.0
C349 C 0.96565 0.19935 0.72327 0.0
C350 C 0.90922 0.17791 0.76436 0.0
C351 C 0.93609 0.17464 0.79394 0.0
C352 C 0.9783 0.18338 0.78675 0.0
H353 H 0.83988 0.15604 1.0179 0.0
H354 H 0.86122 0.17883 0.95881 0.0
C355 C 0.99252 0.19553 0.75271 0.0
C356 C 0.92046 0.1613 0.83133 0.0
H357 H 0.92751 0.18313 0.9206 0.0
C358 C 0.89297 0.12742 0.83533 0.0
C359 C 0.9318 0.18167 0.86346 0.0
C360 C 0.95823 0.22008 0.86308 0.0
C361 C 0.8779 0.1134 0.86885 0.0
C362 C 0.89065 0.13269 0.90107 0.0
C363 C 0.9174 0.16713 0.89703 0.0
C364 C 0.87646 0.11817 0.93853 0.0
C365 C 0.84704 0.07843 0.86892 0.0
C366 C 0.87747 0.07615 0.94912 0.0
C367 C 0.86458 0.06291 0.98322 0.0
C368 C 0.85035 0.09077 1.00942 0.0
C369 C 0.84971 0.13291 0.99914 0.0
C370 C 0.8625 0.14618 0.96482 0.0
H371 H 0.83002 0.07649 0.84354 0.0
H372 H 0.8637 0.0488 0.87258 0.0
H373 H 0.82416 0.08197 0.89041 0.0
H374 H 0.88921 0.05306 0.93117 0.0
H375 H 0.86674 0.03033 0.98931 0.0
H376 H 0.06614 0.8779 0.47909 0.0
H377 H 0.04017 0.90755 0.42372 0.0
H378 H 0.91517 0.88817 0.45868 0.0
H379 H 0.94106 0.86085 0.51442 0.0
H380 H 0.00305 0.89108 0.3678 0.0
H381 H 0.89118 -0.0015 0.42603 0.0
H382 H 0.92716 0.96999 0.45271 0.0
H383 H 0.87901 0.94669 0.43882 0.0
C384 C 0.03302 0.88001 0.4753 0.0
C385 C 0.00633 0.86683 0.5027 0.0
C386 C 0.0178 0.89729 0.44296 0.0
C387 C 0.97484 0.90227 0.43568 0.0
C388 C 0.94828 0.88728 0.46257 0.0
H389 H 0.8885 0.9415 0.21074 0.0
H390 H 0.9138 0.91486 0.26666 0.0
C391 C 0.96345 0.87052 0.49498 0.0
C392 C 0.95823 0.92168 0.40032 0.0
H393 H 0.88353 0.98636 0.36442 0.0
C394 C 0.9769 0.91197 0.36761 0.0
C395 C 0.92461 0.95048 0.39802 0.0
C396 C 0.90463 0.96744 0.43076 0.0
C397 C 0.96316 0.92838 0.33437 0.0
C398 C 0.92775 0.95498 0.3318 0.0
C399 C 0.90979 0.96563 0.36463 0.0
C400 C 0.90957 0.97208 0.29608 0.0
C401 C 0.98861 0.91797 0.30241 0.0
C402 C 0.89503 0.01339 0.29186 0.0
C403 C 0.87885 0.02884 0.25907 0.0
C404 C 0.8763 0.004 0.22829 0.0
C405 C 0.89003 0.96265 0.2328 0.0
C406 C 0.90546 0.94714 0.26549 0.0
H407 H 0.02128 0.91153 0.30967 0.0
H408 H 0.976 0.88962 0.2899 0.0
H409 H 0.9884 0.94347 0.28294 0.0
H410 H 0.89668 0.03438 0.314 0.0
H411 H 0.8689 0.06072 0.25781 0.0
H412 H 0.16168 0.88198 0.70664 0.0
H413 H 0.18506 0.90284 0.76545 0.0
H414 H 0.06572 0.87146 0.8076 0.0
H415 H 0.042 0.85128 0.7485 0.0
H416 H 0.08851 0.93746 0.84131 0.0
H417 H 0.22874 0.84123 0.84647 0.0
H418 H 0.2299 0.87602 0.80988 0.0
H419 H 0.19113 0.83596 0.81167 0.0
C420 C 0.14019 0.87905 0.72828 0.0
C421 C 0.09958 0.86416 0.72162 0.0
C422 C 0.15396 0.89089 0.76267 0.0
C423 C 0.12811 0.88838 0.79277 0.0
C424 C 0.0873 0.87398 0.78599 0.0
H425 H 0.22301 0.90524 1.0175 0.0
H426 H 0.20109 0.88268 0.95832 0.0
C427 C 0.07353 0.86207 0.75158 0.0
C428 C 0.14287 0.90149 0.8305 0.0
H429 H 0.22241 0.89201 0.89147 0.0
C430 C 0.11792 0.92725 0.85188 0.0
C431 C 0.18093 0.88841 0.84631 0.0
C432 C 0.20904 0.85855 0.8276 0.0
C433 C 0.1297 0.94046 0.8866 0.0
C434 C 0.16849 0.92876 0.90186 0.0
C435 C 0.19303 0.90221 0.88084 0.0
C436 C 0.18356 0.94315 0.93915 0.0
C437 C 0.09915 0.96575 0.90724 0.0
C438 C 0.18276 0.98515 0.94987 0.0
C439 C 0.19574 -0.00175 0.98406 0.0
C440 C 0.21064 0.97032 1.00992 0.0
C441 C 0.21229 0.92836 0.9991 0.0
C442 C 0.1994 0.91524 0.96469 0.0
H443 H 0.06698 0.96091 0.89771 0.0
H444 H 0.10049 0.9577 0.93554 0.0
H445 H 0.10659 -0.00097 0.90427 0.0
H446 H 0.17223 0.00846 0.93159 0.0
H447 H 0.19356 0.03079 0.99035 0.0
H448 H 0.79285 0.75001 1.0362 0.0
H449 H 0.7807 0.70079 0.98812 0.0
H450 H 0.74485 0.8014 0.92038 0.0
H451 H 0.756 0.85014 0.96803 0.0
H452 H 0.70632 0.72631 0.90186 0.0
H453 H 0.87695 0.70804 0.92032 0.0
H454 H 0.84286 0.69202 0.95492 0.0
H455 H 0.84875 0.74603 0.94513 0.0
C456 C 0.78109 0.76132 1.01132 0.0
C457 C 0.77629 0.80399 1.00557 0.0
C458 C 0.77412 0.7332 0.98394 0.0
C459 C 0.76308 0.74762 0.95043 0.0
C460 C 0.75351 0.78956 0.94601 0.0
H461 H 0.80061 0.79708 0.75578 0.0
H462 H 0.76622 0.77203 0.80806 0.0
C463 C 0.75998 0.81752 0.97335 0.0
C464 C 0.77 0.72249 0.91844 0.0
H465 H 0.85051 0.6993 0.86443 0.0
C466 C 0.73764 0.71887 0.89391 0.0
C467 C 0.81075 0.71189 0.90823 0.0
C468 C 0.84696 0.71466 0.93335 0.0
C469 C 0.7458 0.71018 0.85844 0.0
C470 C 0.78731 0.70584 0.84738 0.0
C471 C 0.81872 0.7033 0.87279 0.0
C472 C 0.80021 0.71443 0.81072 0.0
C473 C 0.71018 0.70873 0.83281 0.0
C474 C 0.83088 0.69049 0.79436 0.0
C475 C 0.85131 0.70529 0.76452 0.0
C476 C 0.84127 0.7442 0.75053 0.0
C477 C 0.80869 0.76672 0.76556 0.0
C478 C 0.78858 0.75212 0.79539 0.0
H479 H 0.68306 0.69317 0.8449 0.0
H480 H 0.70063 0.74073 0.82622 0.0
H481 H 0.71851 0.69227 0.8082 0.0
H482 H 0.84068 0.66152 0.80588 0.0
H483 H 0.87598 0.68705 0.75319 0.0
H484 H 0.35561 0.76016 0.23161 0.0
H485 H 0.37108 0.71237 0.27964 0.0
H486 H 0.37956 0.815 0.35175 0.0
H487 H 0.3654 0.86304 0.30379 0.0
H488 H 0.43639 0.74489 0.36613 0.0
H489 H 0.27105 0.69941 0.34669 0.0
H490 H 0.3069 0.69405 0.31091 0.0
H491 H 0.2918 0.7446 0.32539 0.0
C492 C 0.3622 0.77269 0.25745 0.0
C493 C 0.35858 0.81536 0.2641 0.0
C494 C 0.3709 0.74527 0.28485 0.0
C495 C 0.37592 0.76016 0.31923 0.0
C496 C 0.3758 0.80292 0.32533 0.0
H497 H 0.33358 0.789 0.5124 0.0
H498 H 0.37553 0.76948 0.46297 0.0
C499 C 0.3672 0.83031 0.29802 0.0
C500 C 0.37375 0.73221 0.34984 0.0
H501 H 0.29962 0.69004 0.40195 0.0
C502 C 0.40693 0.73154 0.37369 0.0
C503 C 0.33569 0.71372 0.35927 0.0
C504 C 0.29917 0.71283 0.3344 0.0
C505 C 0.40142 0.71732 0.40822 0.0
C506 C 0.36148 0.70501 0.41922 0.0
C507 C 0.33017 0.70008 0.39386 0.0
C508 C 0.3481 0.70873 0.45643 0.0
C509 C 0.43771 0.71837 0.43315 0.0
C510 C 0.31965 0.68052 0.47077 0.0
C511 C 0.29474 0.69211 0.49915 0.0
C512 C 0.29812 0.73199 0.51367 0.0
C513 C 0.33023 0.75793 0.50217 0.0
C514 C 0.35475 0.74653 0.47376 0.0
H515 H 0.466 0.70716 0.41967 0.0
H516 H 0.44375 0.75075 0.44139 0.0
H517 H 0.43223 0.69916 0.45686 0.0
H518 H 0.31396 0.65113 0.45795 0.0
H519 H 0.27074 0.67113 0.5079 0.0
H520 H 0.26591 0.24872 0.75231 0.0
H521 H 0.29574 0.27542 0.80647 0.0
H522 H 0.2379 0.39343 0.78814 0.0
H523 H 0.20737 0.36659 0.73352 0.0
H524 H 0.34226 0.34427 0.83364 0.0
H525 H 0.1758 0.34729 0.87293 0.0
H526 H 0.19133 0.32444 0.83184 0.0
H527 H 0.19272 0.37956 0.83736 0.0
C528 C 0.26066 0.28081 0.75901 0.0
C529 C 0.23358 0.30529 0.73903 0.0
C530 C 0.27786 0.29612 0.79003 0.0
C531 C 0.26836 0.33614 0.80164 0.0
C532 C 0.24499 0.3622 0.77989 0.0
H533 H 0.24131 0.30317 1.02161 0.0
H534 H 0.25664 0.35278 0.97521 0.0
C535 C 0.22744 0.34678 0.74885 0.0
C536 C 0.27596 0.34618 0.83906 0.0
H537 H 0.22449 0.33809 0.91661 0.0
C538 C 0.31663 0.34439 0.852 0.0
C539 C 0.24256 0.34732 0.86303 0.0
C540 C 0.19809 0.34968 0.85083 0.0
C541 C 0.32446 0.33872 0.888 0.0
C542 C 0.29071 0.33363 0.91122 0.0
C543 C 0.25049 0.34134 0.89886 0.0
C544 C 0.29453 0.31077 0.94491 0.0
C545 C 0.36868 0.33569 0.90035 0.0
C546 C 0.31287 0.27145 0.94462 0.0
C547 C 0.30478 0.24329 0.97143 0.0
C548 C 0.27736 0.25347 0.99869 0.0
C549 C 0.26247 0.2942 1.00095 0.0
C550 C 0.27119 0.32268 0.97435 0.0
H551 H 0.38812 0.35897 0.88667 0.0
H552 H 0.37151 0.34047 0.92918 0.0
H553 H 0.38112 0.30478 0.89349 0.0
H554 H 0.33028 0.26086 0.92208 0.0
H555 H 0.31765 0.21251 0.96943 0.0
H556 H 0.6848 0.28332 0.24214 0.0
H557 H 0.66518 0.32993 0.29011 0.0
H558 H 0.73362 0.25434 0.36325 0.0
H559 H 0.75103 0.20665 0.31623 0.0
H560 H 0.66145 0.2827 0.39126 0.0
H561 H 0.74736 0.4126 0.32846 0.0
H562 H 0.70398 0.3898 0.30592 0.0
H563 H 0.75096 0.36089 0.31111 0.0
C564 C 0.69479 0.27615 0.26863 0.0
C565 C 0.72008 0.2416 0.27531 0.0
C566 C 0.68392 0.3031 0.29592 0.0
C567 C 0.69859 0.29611 0.33013 0.0
C568 C 0.72198 0.26049 0.33702 0.0
H569 H 0.84342 0.35538 0.46893 0.0
H570 H 0.79701 0.3655 0.41998 0.0
C571 C 0.7324 0.23345 0.31001 0.0
C572 C 0.69339 0.3266 0.35888 0.0
H573 H 0.74153 0.41332 0.38938 0.0
C574 C 0.67776 0.31203 0.3909 0.0
C575 C 0.71349 0.36545 0.35791 0.0
C576 C 0.73003 0.38334 0.32412 0.0
C577 C 0.68837 0.33114 0.42278 0.0
C578 C 0.71403 0.36677 0.42219 0.0
C579 C 0.72266 0.38556 0.38973 0.0
C580 C 0.7425 0.37577 0.45196 0.0
C581 C 0.67672 0.30959 0.45655 0.0
C582 C 0.72832 0.38173 0.48648 0.0
C583 C 0.7551 0.37507 0.51493 0.0
C584 C 0.7965 0.36362 0.50902 0.0
C585 C 0.81178 0.36411 0.47452 0.0
C586 C 0.78502 0.36992 0.44631 0.0
H587 H 0.65812 0.28119 0.45186 0.0
H588 H 0.70496 0.30073 0.47137 0.0
H589 H 0.65812 0.33066 0.47319 0.0
H590 H 0.696 0.38795 0.49151 0.0
H591 H 0.74275 0.37577 0.54138 0.0
loop_
_geom_bond_atom_site_label_1
_geom_bond_atom_site_label_2
_geom_bond_distance
_geom_bond_site_symmetry_2
_ccdc_geom_bond_type
Ho0 C3 2.811 1_545 S
Ho0 O20 2.322 . S
Ho0 O22 2.378 1_545 S
Ho0 O23 2.524 . S
Ho0 O24 2.381 . S
Ho0 O25 2.669 1_554 S
Ho0 O27 2.346 1_554 S
Ho0 O31 2.305 . S
Ho1 C12 2.811 . S
Ho1 O21 2.346 1_556 S
Ho1 O25 2.305 . S
Ho1 O26 2.322 . S
Ho1 O28 2.378 . S
Ho1 O29 2.524 . S
Ho1 O30 2.381 . S
Ho1 O31 2.669 1_556 S
C2 O20 1.259 . S
C2 O21 1.268 . S
C3 Ho0 2.811 1_565 S
C3 C4 1.488 . S
C3 O22 1.215 . S
C3 O23 1.289 1_565 S
C4 C3 1.488 . S
C4 C5 1.348 . S
C4 C9 1.413 . S
C5 C4 1.348 . S
C5 C6 1.442 . S
C5 H32 0.933 . S
C6 C5 1.442 . S
C6 C7 1.381 . S
C6 H33 0.931 . S
C7 C6 1.381 . S
C7 C8 1.321 . S
C8 C7 1.321 . S
C8 C9 1.403 . S
C8 H34 0.934 . S
C9 C4 1.413 . S
C9 C8 1.403 . S
C9 H35 0.930 . S
C10 O24 1.275 . S
C10 O25 1.256 1_554 S
C11 O26 1.259 . S
C11 O27 1.268 . S
C12 Ho1 2.811 . S
C12 C13 1.488 . S
C12 O28 1.215 . S
C12 O29 1.289 . S
C13 C12 1.488 . S
C13 C14 1.348 . S
C13 C18 1.413 . S
C14 C13 1.348 . S
C14 C15 1.442 . S
C14 H36 0.930 . S
C15 C14 1.442 . S
C15 C16 1.381 . S
C15 H37 0.931 . S
C16 C15 1.381 . S
C16 C17 1.321 . S
C17 C16 1.321 . S
C17 C18 1.403 . S
C17 H38 0.934 . S
C18 C13 1.413 . S
C18 C17 1.403 . S
C18 H39 0.930 . S
C19 O30 1.275 1_554 S
C19 O31 1.256 . S
O20 Ho0 2.322 . S
O20 C2 1.259 . S
O21 Ho1 2.346 1_554 S
O21 C2 1.268 . S
O22 Ho0 2.378 1_565 S
O22 C3 1.215 . S
O23 Ho0 2.524 . S
O23 C3 1.289 1_545 S
O24 Ho0 2.381 . S
O24 C10 1.275 . S
O25 Ho0 2.669 1_556 S
O25 Ho1 2.305 . S
O25 C10 1.256 1_556 S
O26 Ho1 2.322 . S
O26 C11 1.259 . S
O27 Ho0 2.346 1_556 S
O27 C11 1.268 . S
O28 Ho1 2.378 . S
O28 C12 1.215 . S
O29 Ho1 2.524 . S
O29 C12 1.289 . S
O30 Ho1 2.381 . S
O30 C19 1.275 1_556 S
O31 Ho0 2.305 . S
O31 Ho1 2.669 1_554 S
O31 C19 1.256 . S
H32 C5 0.933 . S
H33 C6 0.931 . S
H34 C8 0.934 . S
H35 C9 0.930 . S
H36 C14 0.930 . S
H37 C15 0.931 . S
H38 C17 0.934 . S
H39 C18 0.930 . S
Ho40 C43 2.811 . S
Ho40 O60 2.322 1_455 S
Ho40 O62 2.378 . S
Ho40 O63 2.524 . S
Ho40 O64 2.381 . S
Ho40 O65 2.669 1_455 S
Ho40 O67 2.346 . S
Ho40 O71 2.305 . S
Ho41 C52 2.811 . S
Ho41 O61 2.346 . S
Ho41 O65 2.305 . S
Ho41 O66 2.322 1_655 S
Ho41 O68 2.378 . S
Ho41 O69 2.524 . S
Ho41 O70 2.381 . S
Ho41 O71 2.669 1_655 S
C42 O60 1.259 . S
C42 O61 1.268 . S
C43 Ho40 2.811 . S
C43 C44 1.488 . S
C43 O62 1.215 . S
C43 O63 1.289 . S
C44 C43 1.488 . S
C44 C45 1.348 . S
C44 C49 1.413 . S
C45 C44 1.348 . S
C45 C46 1.442 . S
C45 H72 0.930 . S
C46 C45 1.442 . S
C46 C47 1.381 . S
C46 H73 0.931 . S
C47 C46 1.381 . S
C47 C48 1.321 . S
C48 C47 1.321 . S
C48 C49 1.403 . S
C48 H74 0.934 . S
C49 C44 1.413 . S
C49 C48 1.403 . S
C49 H75 0.930 . S
C50 O64 1.275 . S
C50 O65 1.256 1_455 S
C51 O66 1.259 . S
C51 O67 1.268 . S
C52 Ho41 2.811 . S
C52 C53 1.488 . S
C52 O68 1.215 . S
C52 O69 1.289 . S
C53 C52 1.488 . S
C53 C54 1.348 . S
C53 C58 1.413 . S
C54 C53 1.348 . S
C54 C55 1.442 . S
C54 H76 0.930 . S
C55 C54 1.442 . S
C55 C56 1.381 . S
C55 H77 0.931 . S
C56 C55 1.381 . S
C56 C57 1.321 . S
C57 C56 1.321 . S
C57 C58 1.403 . S
C57 H78 0.934 . S
C58 C53 1.413 . S
C58 C57 1.403 . S
C58 H79 0.930 . S
C59 O70 1.275 . S
C59 O71 1.256 1_655 S
O60 Ho40 2.322 1_655 S
O60 C42 1.259 . S
O61 Ho41 2.346 . S
O61 C42 1.268 . S
O62 Ho40 2.378 . S
O62 C43 1.215 . S
O63 Ho40 2.524 . S
O63 C43 1.289 . S
O64 Ho40 2.381 . S
O64 C50 1.275 . S
O65 Ho40 2.669 1_655 S
O65 Ho41 2.305 . S
O65 C50 1.256 1_655 S
O66 Ho41 2.322 1_455 S
O66 C51 1.259 . S
O67 Ho40 2.346 . S
O67 C51 1.268 . S
O68 Ho41 2.378 . S
O68 C52 1.215 . S
O69 Ho41 2.524 . S
O69 C52 1.289 . S
O70 Ho41 2.381 . S
O70 C59 1.275 . S
O71 Ho40 2.305 . S
O71 Ho41 2.669 1_455 S
O71 C59 1.256 1_455 S
H72 C45 0.930 . S
H73 C46 0.931 . S
H74 C48 0.934 . S
H75 C49 0.930 . S
H76 C54 0.930 . S
H77 C55 0.931 . S
H78 C57 0.934 . S
H79 C58 0.930 . S
Ho80 C83 2.811 . S
Ho80 O100 2.322 1_545 S
Ho80 O102 2.378 . S
Ho80 O103 2.524 . S
Ho80 O104 2.381 . S
Ho80 O105 2.669 1_544 S
Ho80 O107 2.346 1_554 S
Ho80 O111 2.305 . S
Ho81 C92 2.811 . S
Ho81 O101 2.346 1_556 S
Ho81 O105 2.305 . S
Ho81 O106 2.322 1_565 S
Ho81 O108 2.378 . S
Ho81 O109 2.524 . S
Ho81 O110 2.381 . S
Ho81 O111 2.669 1_566 S
C82 O100 1.259 . S
C82 O101 1.268 . S
C83 Ho80 2.811 . S
C83 C84 1.488 . S
C83 O102 1.215 . S
C83 O103 1.289 . S
C84 C83 1.488 . S
C84 C85 1.348 . S
C84 C89 1.413 . S
C85 C84 1.348 . S
C85 C86 1.442 . S
C85 H112 0.930 . S
C86 C85 1.442 . S
C86 C87 1.381 . S
C86 H113 0.931 . S
C87 C86 1.381 . S
C87 C88 1.321 . S
C88 C87 1.321 . S
C88 C89 1.403 . S
C88 H114 0.934 . S
C89 C84 1.413 . S
C89 C88 1.403 . S
C89 H115 0.930 . S
C90 O104 1.275 . S
C90 O105 1.256 1_544 S
C91 O106 1.259 . S
C91 O107 1.268 . S
C92 Ho81 2.811 . S
C92 C93 1.488 . S
C92 O108 1.215 . S
C92 O109 1.289 . S
C93 C92 1.488 . S
C93 C94 1.348 . S
C93 C98 1.413 . S
C94 C93 1.348 . S
C94 C95 1.442 . S
C94 H116 0.930 . S
C95 C94 1.442 . S
C95 C96 1.381 . S
C95 H117 0.931 . S
C96 C95 1.381 . S
C96 C97 1.321 . S
C97 C96 1.321 . S
C97 C98 1.403 . S
C97 H118 0.934 . S
C98 C93 1.413 . S
C98 C97 1.403 . S
C98 H119 0.930 . S
C99 O110 1.275 1_554 S
C99 O111 1.256 1_565 S
O100 Ho80 2.322 1_565 S
O100 C82 1.259 . S
O101 Ho81 2.346 1_554 S
O101 C82 1.268 . S
O102 Ho80 2.378 . S
O102 C83 1.215 . S
O103 Ho80 2.524 . S
O103 C83 1.289 . S
O104 Ho80 2.381 . S
O104 C90 1.275 . S
O105 Ho80 2.669 1_566 S
O105 Ho81 2.305 . S
O105 C90 1.256 1_566 S
O106 Ho81 2.322 1_545 S
O106 C91 1.259 . S
O107 Ho80 2.346 1_556 S
O107 C91 1.268 . S
O108 Ho81 2.378 . S
O108 C92 1.215 . S
O109 Ho81 2.524 . S
O109 C92 1.289 . S
O110 Ho81 2.381 . S
O110 C99 1.275 1_556 S
O111 Ho80 2.305 . S
O111 Ho81 2.669 1_544 S
O111 C99 1.256 1_545 S
H112 C85 0.930 . S
H113 C86 0.931 . S
H114 C88 0.934 . S
H115 C89 0.930 . S
H116 C94 0.930 . S
H117 C95 0.931 . S
H118 C97 0.934 . S
H119 C98 0.930 . S
Ho120 C123 2.811 1_455 S
Ho120 O140 2.322 . S
Ho120 O142 2.378 1_455 S
Ho120 O143 2.524 . S
Ho120 O144 2.381 . S
Ho120 O145 2.669 . S
Ho120 O147 2.346 . S
Ho120 O151 2.305 . S
Ho121 C132 2.811 . S
Ho121 O141 2.346 . S
Ho121 O145 2.305 . S
Ho121 O146 2.322 . S
Ho121 O148 2.378 . S
Ho121 O149 2.524 . S
Ho121 O150 2.381 . S
Ho121 O151 2.669 . S
C122 O140 1.259 . S
C122 O141 1.268 . S
C123 Ho120 2.811 1_655 S
C123 C124 1.488 . S
C123 O142 1.215 . S
C123 O143 1.289 1_655 S
C124 C123 1.488 . S
C124 C125 1.348 . S
C124 C129 1.413 . S
C125 C124 1.348 . S
C125 C126 1.442 . S
C125 H152 0.933 . S
C126 C125 1.442 . S
C126 C127 1.381 . S
C126 H153 0.931 . S
C127 C126 1.381 . S
C127 C128 1.321 . S
C128 C127 1.321 . S
C128 C129 1.403 . S
C128 H154 0.934 . S
C129 C124 1.413 . S
C129 C128 1.403 . S
C129 H155 0.930 . S
C130 O144 1.275 . S
C130 O145 1.256 . S
C131 O146 1.259 . S
C131 O147 1.268 . S
C132 Ho121 2.811 . S
C132 C133 1.488 . S
C132 O148 1.215 . S
C132 O149 1.289 . S
C133 C132 1.488 . S
C133 C134 1.348 . S
C133 C138 1.413 . S
C134 C133 1.348 . S
C134 C135 1.442 . S
C134 H156 0.930 . S
C135 C134 1.442 . S
C135 C136 1.381 . S
C135 H157 0.931 . S
C136 C135 1.381 . S
C136 C137 1.321 . S
C137 C136 1.321 . S
C137 C138 1.403 . S
C137 H158 0.934 . S
C138 C133 1.413 . S
C138 C137 1.403 . S
C138 H159 0.930 . S
C139 O150 1.275 . S
C139 O151 1.256 . S
O140 Ho120 2.322 . S
O140 C122 1.259 . S
O141 Ho121 2.346 . S
O141 C122 1.268 . S
O142 Ho120 2.378 1_655 S
O142 C123 1.215 . S
O143 Ho120 2.524 . S
O143 C123 1.289 1_455 S
O144 Ho120 2.381 . S
O144 C130 1.275 . S
O145 Ho120 2.669 . S
O145 Ho121 2.305 . S
O145 C130 1.256 . S
O146 Ho121 2.322 . S
O146 C131 1.259 . S
O147 Ho120 2.346 . S
O147 C131 1.268 . S
O148 Ho121 2.378 . S
O148 C132 1.215 . S
O149 Ho121 2.524 . S
O149 C132 1.289 . S
O150 Ho121 2.381 . S
O150 C139 1.275 . S
O151 Ho120 2.305 . S
O151 Ho121 2.669 . S
O151 C139 1.256 . S
H152 C125 0.933 . S
H153 C126 0.931 . S
H154 C128 0.934 . S
H155 C129 0.930 . S
H156 C134 0.930 . S
H157 C135 0.931 . S
H158 C137 0.934 . S
H159 C138 0.930 . S
H160 C168 0.929 . S
H161 C170 0.930 . S
H162 C172 0.930 . S
H163 C175 0.929 . S
H164 C178 0.930 . S
H165 C180 0.970 . S
H166 C180 0.960 . S
H167 C180 0.960 . S
C168 H160 0.929 . S
C168 C169 1.377 1_554 S
C168 C170 1.384 . S
C169 C168 1.377 1_556 S
C169 C175 1.390 1_565 S
C170 H161 0.930 . S
C170 C168 1.384 . S
C170 C171 1.372 1_564 S
C171 C170 1.372 1_546 S
C171 C172 1.400 . S
C171 C176 1.490 . S
C172 H162 0.930 . S
C172 C171 1.400 . S
C172 C175 1.386 . S
H173 C189 0.930 . S
H174 C190 0.931 . S
C175 H163 0.929 . S
C175 C169 1.390 1_545 S
C175 C172 1.386 . S
C176 C171 1.490 . S
C176 C178 1.395 1_645 S
C176 C179 1.403 1_656 S
H177 C183 0.930 . S
C178 H164 0.930 . S
C178 C176 1.395 1_465 S
C178 C181 1.401 1_565 S
C179 C176 1.403 1_454 S
C179 C180 1.524 1_455 S
C179 C183 1.400 . S
C180 H165 0.970 . S
C180 H166 0.960 . S
C180 H167 0.960 . S
C180 C179 1.524 1_655 S
C181 C178 1.401 1_545 S
C181 C182 1.404 . S
C181 C185 1.486 1_545 S
C182 C181 1.404 . S
C182 C183 1.385 1_556 S
C182 C184 1.478 . S
C183 H177 0.930 . S
C183 C179 1.400 . S
C183 C182 1.385 1_554 S
C184 C182 1.478 . S
C184 C186 1.381 1_556 S
C184 C190 1.383 . S
C185 C181 1.486 1_565 S
C185 H191 0.959 . S
C185 H192 0.961 . S
C185 H193 0.960 . S
C186 C184 1.381 1_554 S
C186 C187 1.394 . S
C186 H194 0.935 . S
C187 C186 1.394 . S
C187 C188 1.383 1_554 S
C187 H195 0.929 . S
C188 C187 1.383 1_556 S
C188 C189 1.377 . S
C189 H173 0.930 . S
C189 C188 1.377 . S
C189 C190 1.379 . S
C190 H174 0.931 . S
C190 C184 1.383 . S
C190 C189 1.379 . S
H191 C185 0.959 . S
H192 C185 0.961 . S
H193 C185 0.960 . S
H194 C186 0.935 . S
H195 C187 0.929 . S
H196 C204 0.929 . S
H197 C206 0.930 . S
H198 C208 0.930 . S
H199 C211 0.929 . S
H200 C214 0.930 1_665 S
H201 C216 0.960 . S
H202 C216 0.960 1_565 S
H203 C216 0.960 1_565 S
C204 H196 0.929 . S
C204 C205 1.377 . S
C204 C206 1.384 . S
C205 C204 1.377 . S
C205 C211 1.390 . S
C206 H197 0.930 . S
C206 C204 1.384 . S
C206 C207 1.372 . S
C207 C206 1.372 . S
C207 C208 1.400 . S
C207 C212 1.490 . S
C208 H198 0.930 . S
C208 C207 1.400 . S
C208 C211 1.386 . S
H209 C225 0.930 . S
H210 C226 0.931 . S
C211 H199 0.929 . S
C211 C205 1.390 . S
C211 C208 1.386 . S
C212 C207 1.490 . S
C212 C214 1.395 1_565 S
C212 C215 1.403 1_565 S
H213 C219 0.930 . S
C214 H200 0.930 1_445 S
C214 C212 1.395 1_545 S
C214 C217 1.403 1_455 S
C215 C212 1.403 1_545 S
C215 C216 1.524 . S
C215 C219 1.400 . S
C216 H201 0.960 . S
C216 H202 0.960 1_545 S
C216 H203 0.960 1_545 S
C216 C215 1.524 . S
C217 C214 1.403 1_655 S
C217 C218 1.392 1_655 S
C217 C221 1.495 . S
C218 C217 1.392 1_455 S
C218 C219 1.385 . S
C218 C220 1.478 . S
C219 H213 0.930 . S
C219 C215 1.400 . S
C219 C218 1.385 . S
C220 C218 1.478 . S
C220 C222 1.381 1_455 S
C220 C226 1.383 . S
C221 C217 1.495 . S
C221 H227 0.959 . S
C221 H228 0.961 . S
C221 H229 0.960 . S
C222 C220 1.381 1_655 S
C222 C223 1.394 . S
C222 H230 0.930 . S
C223 C222 1.394 . S
C223 C224 1.383 . S
C223 H231 0.929 . S
C224 C223 1.383 . S
C224 C225 1.377 1_655 S
C225 H209 0.930 . S
C225 C224 1.377 1_455 S
C225 C226 1.379 . S
C226 H210 0.931 . S
C226 C220 1.383 . S
C226 C225 1.379 . S
H227 C221 0.959 . S
H228 C221 0.961 . S
H229 C221 0.960 . S
H230 C222 0.930 . S
H231 C223 0.929 . S
H232 C240 0.929 . S
H233 C242 0.930 . S
H234 C244 0.930 . S
H235 C247 0.929 . S
H236 C250 0.927 1_556 S
H237 C252 0.960 . S
H238 C252 0.960 1_556 S
H239 C252 0.960 . S
C240 H232 0.929 . S
C240 C241 1.377 1_556 S
C240 C242 1.384 . S
C241 C240 1.377 1_554 S
C241 C247 1.390 1_565 S
C242 H233 0.930 . S
C242 C240 1.384 . S
C242 C243 1.372 1_566 S
C243 C242 1.372 1_544 S
C243 C244 1.400 . S
C243 C248 1.490 . S
C244 H234 0.930 . S
C244 C243 1.400 . S
C244 C247 1.386 . S
H245 C261 0.930 . S
H246 C262 0.931 . S
C247 H235 0.929 . S
C247 C241 1.390 1_545 S
C247 C244 1.386 . S
C248 C243 1.490 . S
C248 C250 1.395 1_545 S
C248 C251 1.403 . S
H249 C255 0.930 . S
C250 H236 0.927 1_554 S
C250 C248 1.395 1_565 S
C250 C253 1.403 . S
C251 C248 1.403 . S
C251 C252 1.524 . S
C251 C255 1.400 . S
C252 H237 0.960 . S
C252 H238 0.960 1_554 S
C252 H239 0.960 . S
C252 C251 1.524 . S
C253 C250 1.403 . S
C253 C254 1.392 1_565 S
C253 C257 1.495 1_554 S
C254 C253 1.392 1_545 S
C254 C255 1.385 . S
C254 C256 1.478 . S
C255 H249 0.930 . S
C255 C251 1.400 . S
C255 C254 1.385 . S
C256 C254 1.478 . S
C256 C258 1.381 1_554 S
C256 C262 1.383 . S
C257 C253 1.495 1_556 S
C257 H263 0.959 . S
C257 H264 0.961 1_556 S
C257 H265 0.960 . S
C258 C256 1.381 1_556 S
C258 C259 1.394 . S
C258 H266 0.930 . S
C259 C258 1.394 . S
C259 C260 1.383 1_556 S
C259 H267 0.929 . S
C260 C259 1.383 1_554 S
C260 C261 1.377 . S
C261 H245 0.930 . S
C261 C260 1.377 . S
C261 C262 1.379 . S
C262 H246 0.931 . S
C262 C256 1.383 . S
C262 C261 1.379 . S
H263 C257 0.959 . S
H264 C257 0.961 1_554 S
H265 C257 0.960 . S
H266 C258 0.930 . S
H267 C259 0.929 . S
H268 C276 0.929 . S
H269 C278 0.930 . S
H270 C280 0.930 . S
H271 C283 0.929 . S
H272 C286 0.930 . S
H273 C288 0.960 . S
H274 C288 0.960 . S
H275 C288 0.960 1_655 S
C276 H268 0.929 . S
C276 C277 1.377 1_455 S
C276 C278 1.384 . S
C277 C276 1.377 1_655 S
C277 C283 1.390 . S
C278 H269 0.930 . S
C278 C276 1.384 . S
C278 C279 1.372 . S
C279 C278 1.372 . S
C279 C280 1.400 1_455 S
C279 C284 1.490 . S
C280 H270 0.930 . S
C280 C279 1.400 1_655 S
C280 C283 1.386 . S
H281 C297 0.930 . S
H282 C298 0.931 1_655 S
C283 H271 0.929 . S
C283 C277 1.390 . S
C283 C280 1.386 . S
C284 C279 1.490 . S
C284 C286 1.395 . S
C284 C287 1.403 . S
H285 C291 0.930 . S
C286 H272 0.930 . S
C286 C284 1.395 . S
C286 C289 1.403 . S
C287 C284 1.403 . S
C287 C288 1.524 . S
C287 C291 1.400 . S
C288 H273 0.960 . S
C288 H274 0.960 . S
C288 H275 0.960 1_455 S
C288 C287 1.524 . S
C289 C286 1.403 . S
C289 C290 1.392 . S
C289 C293 1.495 . S
C290 C289 1.392 . S
C290 C291 1.385 . S
C290 C292 1.478 . S
C291 H285 0.930 . S
C291 C287 1.400 . S
C291 C290 1.385 . S
C292 C290 1.478 . S
C292 C294 1.381 . S
C292 C298 1.383 . S
C293 C289 1.495 . S
C293 H299 0.959 . S
C293 H300 0.961 . S
C293 H301 0.960 . S
C294 C292 1.381 . S
C294 C295 1.394 . S
C294 H302 0.930 . S
C295 C294 1.394 . S
C295 C296 1.383 . S
C295 H303 0.929 . S
C296 C295 1.383 . S
C296 C297 1.377 . S
C297 H281 0.930 . S
C297 C296 1.377 . S
C297 C298 1.379 . S
C298 H282 0.931 1_455 S
C298 C292 1.383 . S
C298 C297 1.379 . S
H299 C293 0.959 . S
H300 C293 0.961 . S
H301 C293 0.960 . S
H302 C294 0.930 . S
H303 C295 0.929 . S
H304 C312 0.929 . S
H305 C314 0.930 . S
H306 C316 0.930 . S
H307 C319 0.929 . S
H308 C322 0.930 . S
H309 C324 0.960 . S
H310 C324 0.960 . S
H311 C324 0.960 . S
C312 H304 0.929 . S
C312 C313 1.377 . S
C312 C314 1.384 . S
C313 C312 1.377 . S
C313 C319 1.390 . S
C314 H305 0.930 . S
C314 C312 1.384 . S
C314 C315 1.372 . S
C315 C314 1.372 . S
C315 C316 1.400 . S
C315 C320 1.490 . S
C316 H306 0.930 . S
C316 C315 1.400 . S
C316 C319 1.386 . S
H317 C333 0.930 . S
H318 C334 0.931 . S
C319 H307 0.929 . S
C319 C313 1.390 . S
C319 C316 1.386 . S
C320 C315 1.490 . S
C320 C322 1.395 . S
C320 C323 1.403 . S
H321 C327 0.930 . S
C322 H308 0.930 . S
C322 C320 1.395 . S
C322 C325 1.403 . S
C323 C320 1.403 . S
C323 C324 1.524 . S
C323 C327 1.400 . S
C324 H309 0.960 . S
C324 H310 0.960 . S
C324 H311 0.960 . S
C324 C323 1.524 . S
C325 C322 1.403 . S
C325 C326 1.392 . S
C325 C329 1.495 . S
C326 C325 1.392 . S
C326 C327 1.385 . S
C326 C328 1.478 . S
C327 H321 0.930 . S
C327 C323 1.400 . S
C327 C326 1.385 . S
C328 C326 1.478 . S
C328 C330 1.381 . S
C328 C334 1.383 . S
C329 C325 1.495 . S
C329 H335 0.959 . S
C329 H336 0.961 . S
C329 H337 0.960 . S
C330 C328 1.381 . S
C330 C331 1.394 . S
C330 H338 0.930 . S
C331 C330 1.394 . S
C331 C332 1.383 . S
C331 H339 0.929 . S
C332 C331 1.383 . S
C332 C333 1.377 . S
C333 H317 0.930 . S
C333 C332 1.377 . S
C333 C334 1.379 . S
C334 H318 0.931 . S
C334 C328 1.383 . S
C334 C333 1.379 . S
H335 C329 0.959 . S
H336 C329 0.961 . S
H337 C329 0.960 . S
H338 C330 0.930 . S
H339 C331 0.929 . S
H340 C348 0.929 . S
H341 C350 0.930 . S
H342 C352 0.930 . S
H343 C355 0.929 . S
H344 C358 0.930 . S
H345 C360 0.960 . S
H346 C360 0.960 . S
H347 C360 0.960 . S
C348 H340 0.929 . S
C348 C349 1.377 . S
C348 C350 1.384 . S
C349 C348 1.377 . S
C349 C355 1.390 . S
C350 H341 0.930 . S
C350 C348 1.384 . S
C350 C351 1.372 . S
C351 C350 1.372 . S
C351 C352 1.400 . S
C351 C356 1.490 . S
C352 H342 0.930 . S
C352 C351 1.400 . S
C352 C355 1.386 . S
H353 C369 0.930 . S
H354 C370 0.931 . S
C355 H343 0.929 . S
C355 C349 1.390 . S
C355 C352 1.386 . S
C356 C351 1.490 . S
C356 C358 1.395 . S
C356 C359 1.403 . S
H357 C363 0.930 . S
C358 H344 0.930 . S
C358 C356 1.395 . S
C358 C361 1.403 . S
C359 C356 1.403 . S
C359 C360 1.524 . S
C359 C363 1.400 . S
C360 H345 0.960 . S
C360 H346 0.960 . S
C360 H347 0.960 . S
C360 C359 1.524 . S
C361 C358 1.403 . S
C361 C362 1.392 . S
C361 C365 1.495 . S
C362 C361 1.392 . S
C362 C363 1.385 . S
C362 C364 1.478 . S
C363 H357 0.930 . S
C363 C359 1.400 . S
C363 C362 1.385 . S
C364 C362 1.478 . S
C364 C366 1.381 . S
C364 C370 1.383 . S
C365 C361 1.495 . S
C365 H371 0.959 . S
C365 H372 0.961 . S
C365 H373 0.960 . S
C366 C364 1.381 . S
C366 C367 1.394 . S
C366 H374 0.930 . S
C367 C366 1.394 . S
C367 C368 1.383 . S
C367 H375 0.929 . S
C368 C367 1.383 . S
C368 C369 1.377 . S
C369 H353 0.930 . S
C369 C368 1.377 . S
C369 C370 1.379 . S
C370 H354 0.931 . S
C370 C364 1.383 . S
C370 C369 1.379 . S
H371 C365 0.959 . S
H372 C365 0.961 . S
H373 C365 0.960 . S
H374 C366 0.930 . S
H375 C367 0.929 . S
H376 C384 0.929 1_455 S
H377 C386 0.930 . S
H378 C388 0.930 . S
H379 C391 0.929 . S
H380 C394 0.930 . S
H381 C396 0.960 . S
H382 C396 0.960 . S
H383 C396 0.960 . S
C384 H376 0.929 1_655 S
C384 C385 1.377 . S
C384 C386 1.384 . S
C385 C384 1.377 . S
C385 C391 1.390 . S
C386 H377 0.930 . S
C386 C384 1.384 . S
C386 C387 1.372 . S
C387 C386 1.372 . S
C387 C388 1.400 . S
C387 C392 1.490 . S
C388 H378 0.930 . S
C388 C387 1.400 . S
C388 C391 1.386 . S
H389 C405 0.930 . S
H390 C406 0.931 . S
C391 H379 0.929 . S
C391 C385 1.390 . S
C391 C388 1.386 . S
C392 C387 1.490 . S
C392 C394 1.395 . S
C392 C395 1.403 . S
H393 C399 0.930 . S
C394 H380 0.930 . S
C394 C392 1.395 . S
C394 C397 1.403 . S
C395 C392 1.403 . S
C395 C396 1.524 . S
C395 C399 1.400 . S
C396 H381 0.960 . S
C396 H382 0.960 . S
C396 H383 0.960 . S
C396 C395 1.524 . S
C397 C394 1.403 . S
C397 C398 1.392 . S
C397 C401 1.495 . S
C398 C397 1.392 . S
C398 C399 1.385 . S
C398 C400 1.478 . S
C399 H393 0.930 . S
C399 C395 1.400 . S
C399 C398 1.385 . S
C400 C398 1.478 . S
C400 C402 1.381 . S
C400 C406 1.383 . S
C401 C397 1.495 . S
C401 H407 0.959 1_655 S
C401 H408 0.961 . S
C401 H409 0.960 . S
C402 C400 1.381 . S
C402 C403 1.394 . S
C402 H410 0.930 . S
C403 C402 1.394 . S
C403 C404 1.383 . S
C403 H411 0.929 . S
C404 C403 1.383 . S
C404 C405 1.377 . S
C405 H389 0.930 . S
C405 C404 1.377 . S
C405 C406 1.379 . S
C406 H390 0.931 . S
C406 C400 1.383 . S
C406 C405 1.379 . S
H407 C401 0.959 1_455 S
H408 C401 0.961 . S
H409 C401 0.960 . S
H410 C402 0.930 . S
H411 C403 0.929 . S
H412 C420 0.929 . S
H413 C422 0.930 . S
H414 C424 0.930 . S
H415 C427 0.929 . S
H416 C430 0.930 . S
H417 C432 0.960 . S
H418 C432 0.960 . S
H419 C432 0.960 . S
C420 H412 0.929 . S
C420 C421 1.377 . S
C420 C422 1.384 . S
C421 C420 1.377 . S
C421 C427 1.390 . S
C422 H413 0.930 . S
C422 C420 1.384 . S
C422 C423 1.372 . S
C423 C422 1.372 . S
C423 C424 1.400 . S
C423 C428 1.490 . S
C424 H414 0.930 . S
C424 C423 1.400 . S
C424 C427 1.386 . S
H425 C441 0.930 . S
H426 C442 0.931 . S
C427 H415 0.929 . S
C427 C421 1.390 . S
C427 C424 1.386 . S
C428 C423 1.490 . S
C428 C430 1.395 . S
C428 C431 1.403 . S
H429 C435 0.930 . S
C430 H416 0.930 . S
C430 C428 1.395 . S
C430 C433 1.403 . S
C431 C428 1.403 . S
C431 C432 1.524 . S
C431 C435 1.400 . S
C432 H417 0.960 . S
C432 H418 0.960 . S
C432 H419 0.960 . S
C432 C431 1.524 . S
C433 C430 1.403 . S
C433 C434 1.392 . S
C433 C437 1.495 . S
C434 C433 1.392 . S
C434 C435 1.385 . S
C434 C436 1.478 . S
C435 H429 0.930 . S
C435 C431 1.400 . S
C435 C434 1.385 . S
C436 C434 1.478 . S
C436 C438 1.381 . S
C436 C442 1.383 . S
C437 C433 1.495 . S
C437 H443 0.959 1_565 S
C437 H444 0.961 . S
C437 H445 0.960 1_565 S
C438 C436 1.381 . S
C438 C439 1.394 1_565 S
C438 H446 0.930 1_565 S
C439 C438 1.394 1_545 S
C439 C440 1.383 1_545 S
C439 H447 0.929 . S
C440 C439 1.383 1_565 S
C440 C441 1.377 . S
C441 H425 0.930 . S
C441 C440 1.377 . S
C441 C442 1.379 . S
C442 H426 0.931 . S
C442 C436 1.383 . S
C442 C441 1.379 . S
H443 C437 0.959 1_545 S
H444 C437 0.961 . S
H445 C437 0.960 1_545 S
H446 C438 0.930 1_545 S
H447 C439 0.929 . S
H448 C456 0.929 . S
H449 C458 0.930 . S
H450 C460 0.930 . S
H451 C463 0.929 . S
H452 C466 0.930 . S
H453 C468 0.960 . S
H454 C468 0.960 . S
H455 C468 0.960 . S
C456 H448 0.929 . S
C456 C457 1.377 . S
C456 C458 1.384 . S
C457 C456 1.377 . S
C457 C463 1.390 . S
C458 H449 0.930 . S
C458 C456 1.384 . S
C458 C459 1.372 . S
C459 C458 1.372 . S
C459 C460 1.400 . S
C459 C464 1.490 . S
C460 H450 0.930 . S
C460 C459 1.400 . S
C460 C463 1.386 . S
H461 C477 0.930 1_455 S
H462 C478 0.931 . S
C463 H451 0.929 . S
C463 C457 1.390 . S
C463 C460 1.386 . S
C464 C459 1.490 . S
C464 C466 1.395 . S
C464 C467 1.403 . S
H465 C471 0.930 . S
C466 H452 0.930 . S
C466 C464 1.395 . S
C466 C469 1.403 . S
C467 C464 1.403 . S
C467 C468 1.524 . S
C467 C471 1.400 . S
C468 H453 0.960 . S
C468 H454 0.960 . S
C468 H455 0.960 . S
C468 C467 1.524 . S
C469 C466 1.403 . S
C469 C470 1.392 . S
C469 C473 1.495 . S
C470 C469 1.392 . S
C470 C471 1.385 . S
C470 C472 1.478 . S
C471 H465 0.930 . S
C471 C467 1.400 . S
C471 C470 1.385 . S
C472 C470 1.478 . S
C472 C474 1.381 . S
C472 C478 1.383 . S
C473 C469 1.495 . S
C473 H479 0.959 . S
C473 H480 0.961 . S
C473 H481 0.960 . S
C474 C472 1.381 . S
C474 C475 1.394 . S
C474 H482 0.930 . S
C475 C474 1.394 . S
C475 C476 1.383 . S
C475 H483 0.929 . S
C476 C475 1.383 . S
C476 C477 1.377 . S
C477 H461 0.930 1_655 S
C477 C476 1.377 . S
C477 C478 1.379 . S
C478 H462 0.931 . S
C478 C472 1.383 . S
C478 C477 1.379 . S
H479 C473 0.959 . S
H480 C473 0.961 . S
H481 C473 0.960 . S
H482 C474 0.930 . S
H483 C475 0.929 . S
H484 C492 0.929 . S
H485 C494 0.930 . S
H486 C496 0.930 . S
H487 C499 0.946 . S
H488 C502 0.930 . S
H489 C504 0.960 . S
H490 C504 0.960 . S
H491 C504 0.960 . S
C492 H484 0.929 . S
C492 C493 1.377 . S
C492 C494 1.384 . S
C493 C492 1.377 . S
C493 C499 1.390 . S
C494 H485 0.930 . S
C494 C492 1.384 . S
C494 C495 1.372 . S
C495 C494 1.372 . S
C495 C496 1.400 . S
C495 C500 1.490 . S
C496 H486 0.930 . S
C496 C495 1.400 . S
C496 C499 1.386 . S
H497 C513 0.930 . S
H498 C514 0.931 . S
C499 H487 0.946 . S
C499 C493 1.390 . S
C499 C496 1.386 . S
C500 C495 1.490 . S
C500 C502 1.395 . S
C500 C503 1.403 . S
H501 C507 0.930 . S
C502 H488 0.930 . S
C502 C500 1.395 . S
C502 C505 1.403 . S
C503 C500 1.403 . S
C503 C504 1.524 . S
C503 C507 1.400 . S
C504 H489 0.960 . S
C504 H490 0.960 . S
C504 H491 0.960 . S
C504 C503 1.524 . S
C505 C502 1.403 . S
C505 C506 1.392 . S
C505 C509 1.495 . S
C506 C505 1.392 . S
C506 C507 1.385 . S
C506 C508 1.478 . S
C507 H501 0.930 . S
C507 C503 1.400 . S
C507 C506 1.385 . S
C508 C506 1.478 . S
C508 C510 1.381 . S
C508 C514 1.383 . S
C509 C505 1.495 . S
C509 H515 0.959 . S
C509 H516 0.961 . S
C509 H517 0.960 . S
C510 C508 1.381 . S
C510 C511 1.394 . S
C510 H518 0.930 . S
C511 C510 1.394 . S
C511 C512 1.383 . S
C511 H519 0.929 . S
C512 C511 1.383 . S
C512 C513 1.377 . S
C513 H497 0.930 . S
C513 C512 1.377 . S
C513 C514 1.379 . S
C514 H498 0.931 . S
C514 C508 1.383 . S
C514 C513 1.379 . S
H515 C509 0.959 . S
H516 C509 0.961 . S
H517 C509 0.960 . S
H518 C510 0.930 . S
H519 C511 0.929 . S
H520 C528 0.929 . S
H521 C530 0.930 . S
H522 C532 0.930 . S
H523 C535 0.929 . S
H524 C538 0.930 . S
H525 C540 0.960 . S
H526 C540 0.960 . S
H527 C540 0.960 . S
C528 H520 0.929 . S
C528 C529 1.377 . S
C528 C530 1.384 . S
C529 C528 1.377 . S
C529 C535 1.390 . S
C530 H521 0.930 . S
C530 C528 1.384 . S
C530 C531 1.372 . S
C531 C530 1.372 . S
C531 C532 1.400 . S
C531 C536 1.490 . S
C532 H522 0.930 . S
C532 C531 1.400 . S
C532 C535 1.386 . S
H533 C549 0.930 . S
H534 C550 0.931 . S
C535 H523 0.929 . S
C535 C529 1.390 . S
C535 C532 1.386 . S
C536 C531 1.490 . S
C536 C538 1.395 . S
C536 C539 1.403 . S
H537 C543 0.930 . S
C538 H524 0.930 . S
C538 C536 1.395 . S
C538 C541 1.403 . S
C539 C536 1.403 . S
C539 C540 1.524 . S
C539 C543 1.400 . S
C540 H525 0.960 . S
C540 H526 0.960 . S
C540 H527 0.960 . S
C540 C539 1.524 . S
C541 C538 1.403 . S
C541 C542 1.392 . S
C541 C545 1.495 . S
C542 C541 1.392 . S
C542 C543 1.385 . S
C542 C544 1.478 . S
C543 H537 0.930 . S
C543 C539 1.400 . S
C543 C542 1.385 . S
C544 C542 1.478 . S
C544 C546 1.381 . S
C544 C550 1.383 . S
C545 C541 1.495 . S
C545 H551 0.959 . S
C545 H552 0.961 . S
C545 H553 0.960 . S
C546 C544 1.381 . S
C546 C547 1.394 . S
C546 H554 0.930 . S
C547 C546 1.394 . S
C547 C548 1.383 . S
C547 H555 0.929 . S
C548 C547 1.383 . S
C548 C549 1.377 . S
C549 H533 0.930 . S
C549 C548 1.377 . S
C549 C550 1.379 . S
C550 H534 0.931 . S
C550 C544 1.383 . S
C550 C549 1.379 . S
H551 C545 0.959 . S
H552 C545 0.961 . S
H553 C545 0.960 . S
H554 C546 0.930 . S
H555 C547 0.929 . S
H556 C564 0.929 . S
H557 C566 0.930 . S
H558 C568 0.930 . S
H559 C571 0.929 . S
H560 C574 0.930 . S
H561 C576 0.960 . S
H562 C576 0.960 . S
H563 C576 0.960 . S
C564 H556 0.929 . S
C564 C565 1.377 . S
C564 C566 1.384 . S
C565 C564 1.377 . S
C565 C571 1.390 . S
C566 H557 0.930 . S
C566 C564 1.384 . S
C566 C567 1.372 . S
C567 C566 1.372 . S
C567 C568 1.400 . S
C567 C572 1.490 . S
C568 H558 0.930 . S
C568 C567 1.400 . S
C568 C571 1.386 . S
H569 C585 0.930 . S
H570 C586 0.931 . S
C571 H559 0.929 . S
C571 C565 1.390 . S
C571 C568 1.386 . S
C572 C567 1.490 . S
C572 C574 1.395 . S
C572 C575 1.403 . S
H573 C579 0.930 . S
C574 H560 0.930 . S
C574 C572 1.395 . S
C574 C577 1.403 . S
C575 C572 1.403 . S
C575 C576 1.524 . S
C575 C579 1.400 . S
C576 H561 0.960 . S
C576 H562 0.960 . S
C576 H563 0.960 . S
C576 C575 1.524 . S
C577 C574 1.403 . S
C577 C578 1.392 . S
C577 C581 1.495 . S
C578 C577 1.392 . S
C578 C579 1.385 . S
C578 C580 1.478 . S
C579 H573 0.930 . S
C579 C575 1.400 . S
C579 C578 1.385 . S
C580 C578 1.478 . S
C580 C582 1.381 . S
C580 C586 1.383 . S
C581 C577 1.495 . S
C581 H587 0.959 . S
C581 H588 0.961 . S
C581 H589 0.960 . S
C582 C580 1.381 . S
C582 C583 1.394 . S
C582 H590 0.930 . S
C583 C582 1.394 . S
C583 C584 1.383 . S
C583 H591 0.929 . S
C584 C583 1.383 . S
C584 C585 1.377 . S
C585 H569 0.930 . S
C585 C584 1.377 . S
C585 C586 1.379 . S
C586 H570 0.931 . S
C586 C580 1.383 . S
C586 C585 1.379 . S
H587 C581 0.959 . S
H588 C581 0.961 . S
H589 C581 0.960 . S
H590 C582 0.930 . S
H591 C583 0.929 . S
C169 C90 0.981 1_566 S
C188 C10 0.975 1_556 S
C205 C130 0.989 . S
C224 C50 1.024 1_655 S
C241 C99 0.792 . S
C260 C19 0.808 . S
C277 C59 0.801 . S
C296 C139 0.765 . S
C313 C51 4.595 . S
C332 C2 4.477 . S
C349 C42 4.493 . S
C368 C91 4.590 . S
C385 C131 4.595 1_655 S
C404 C82 4.479 . S
C421 C122 4.492 . S
C440 C11 4.590 1_565 S
C457 C96 1.050 . S
C476 C127 1.052 . S
C493 C7 1.064 . S
C512 C136 1.081 . S
C529 C47 1.064 . S
C548 C16 1.080 . S
C565 C87 1.073 . S
C584 C56 1.037 . S
