# Generated by pormake.
# Topology una, (4)-cn, num edge types: 1
# Building blocks:
#     Node 0, Type 0, BuildingBlock: NAHDIM_clean_sbu_0, # of connection points: 4
#     Node 1, Type 0, BuildingBlock: NAHDIM_clean_sbu_0, # of connection points: 4
#     Node 2, Type 0, BuildingBlock: NAHDIM_clean_sbu_0, # of connection points: 4
#     Node 3, Type 0, BuildingBlock: NAHDIM_clean_sbu_0, # of connection points: 4
#     Node 4, Type 0, BuildingBlock: NAHDIM_clean_sbu_0, # of connection points: 4
#     Node 5, Type 0, BuildingBlock: NAHDIM_clean_sbu_0, # of connection points: 4
#     Node 6, Type 0, BuildingBlock: NAHDIM_clean_sbu_0, # of connection points: 4
#     Node 7, Type 0, BuildingBlock: NAHDIM_clean_sbu_0, # of connection points: 4
#     Node 8, Type 0, BuildingBlock: NAHDIM_clean_sbu_0, # of connection points: 4
#     Node 9, Type 0, BuildingBlock: NAHDIM_clean_sbu_0, # of connection points: 4
#     Node 10, Type 0, BuildingBlock: NAHDIM_clean_sbu_0, # of connection points: 4
#     Node 11, Type 0, BuildingBlock: NAHDIM_clean_sbu_0, # of connection points: 4
#     Edge 12, Type (0, 0), BuildingBlock: CIFDUS_clean_linker_0, # of connection points: 2
#     Edge 13, Type (0, 0), BuildingBlock: CIFDUS_clean_linker_0, # of connection points: 2
#     Edge 14, Type (0, 0), BuildingBlock: CIFDUS_clean_linker_0, # of connection points: 2
#     Edge 15, Type (0, 0), BuildingBlock: CIFDUS_clean_linker_0, # of connection points: 2
#     Edge 16, Type (0, 0), BuildingBlock: CIFDUS_clean_linker_0, # of connection points: 2
#     Edge 17, Type (0, 0), BuildingBlock: CIFDUS_clean_linker_0, # of connection points: 2
#     Edge 18, Type (0, 0), BuildingBlock: CIFDUS_clean_linker_0, # of connection points: 2
#     Edge 19, Type (0, 0), BuildingBlock: CIFDUS_clean_linker_0, # of connection points: 2
#     Edge 20, Type (0, 0), BuildingBlock: CIFDUS_clean_linker_0, # of connection points: 2
#     Edge 21, Type (0, 0), BuildingBlock: CIFDUS_clean_linker_0, # of connection points: 2
#     Edge 22, Type (0, 0), BuildingBlock: CIFDUS_clean_linker_0, # of connection points: 2
#     Edge 23, Type (0, 0), BuildingBlock: CIFDUS_clean_linker_0, # of connection points: 2
#     Edge 24, Type (0, 0), BuildingBlock: CIFDUS_clean_linker_0, # of connection points: 2
#     Edge 25, Type (0, 0), BuildingBlock: CIFDUS_clean_linker_0, # of connection points: 2
#     Edge 26, Type (0, 0), BuildingBlock: CIFDUS_clean_linker_0, # of connection points: 2
#     Edge 27, Type (0, 0), BuildingBlock: CIFDUS_clean_linker_0, # of connection points: 2
#     Edge 28, Type (0, 0), BuildingBlock: CIFDUS_clean_linker_0, # of connection points: 2
#     Edge 29, Type (0, 0), BuildingBlock: CIFDUS_clean_linker_0, # of connection points: 2
#     Edge 30, Type (0, 0), BuildingBlock: CIFDUS_clean_linker_0, # of connection points: 2
#     Edge 31, Type (0, 0), BuildingBlock: CIFDUS_clean_linker_0, # of connection points: 2
#     Edge 32, Type (0, 0), BuildingBlock: CIFDUS_clean_linker_0, # of connection points: 2
#     Edge 33, Type (0, 0), BuildingBlock: CIFDUS_clean_linker_0, # of connection points: 2
#     Edge 34, Type (0, 0), BuildingBlock: CIFDUS_clean_linker_0, # of connection points: 2
#     Edge 35, Type (0, 0), BuildingBlock: CIFDUS_clean_linker_0, # of connection points: 2
# Relax obj value: 0.122
# Max RMSD: 0.175
# Mean RMSD: 0.173
data_MOF--net-una--node1-NAHDIM_clean_sbu_0--edge1-CIFDUS_clean_linker_0
_symmetry_space_group_name_H-M    P1
_symmetry_Int_Tables_number       1
_symmetry_cell_setting            triclinic
loop_
_symmetry_equiv_pos_as_xyz
'x, y, z'
_cell_length_a     51.371726
_cell_length_b     50.552181
_cell_length_c     18.870703
_cell_angle_alpha  89.858015
_cell_angle_beta   89.990473
_cell_angle_gamma 120.46405
loop_
_atom_site_label
_atom_site_type_symbol
_atom_site_fract_x
_atom_site_fract_y
_atom_site_fract_z
_atom_type_partial_charge
C0 C 0.06972 0.39549 0.99283 0.0
O1 O 0.08847 0.42022 0.95696 0.0
O2 O 0.14921 0.43411 0.01214 0.0
Zn3 Zn 0.11818 0.42487 0.08823 0.0
O4 O 0.11646 0.46295 0.1095 0.0
C5 C 0.14717 0.39863 0.16531 0.0
O6 O 0.15063 0.39122 0.10077 0.0
O7 O 0.07736 0.39156 0.05427 0.0
C8 C 0.14065 0.48874 0.11534 0.0
O9 O 0.16682 0.49015 0.10996 0.0
C10 C 0.15895 0.45495 0.96489 0.0
O11 O 0.14787 0.47329 0.96056 0.0
O12 O 0.13209 0.412 0.17454 0.0
C13 C 0.73277 0.15206 0.29516 0.0
O14 O 0.74587 0.16269 0.2335 0.0
O15 O 0.64259 0.13173 0.23925 0.0
Zn16 Zn 0.67855 0.12812 0.21148 0.0
O17 O 0.70325 0.16 0.13794 0.0
C18 C 0.63834 0.06383 0.18297 0.0
O19 O 0.62062 0.06759 0.22684 0.0
O20 O 0.70415 0.13563 0.29823 0.0
C21 C 0.70063 0.15346 0.0724 0.0
O22 O 0.6803 0.12569 0.05198 0.0
C23 C 0.62684 0.13608 0.19392 0.0
O24 O 0.6344 0.13881 0.12667 0.0
O25 O 0.66466 0.08628 0.17063 0.0
C26 C 0.6087 0.68203 0.3155 0.0
O27 O 0.60654 0.70223 0.2759 0.0
O28 O 0.55882 0.71003 0.32677 0.0
Zn29 Zn 0.56482 0.68647 0.4046 0.0
O30 O 0.52536 0.64835 0.42781 0.0
C31 C 0.58687 0.74102 0.4907 0.0
O32 O 0.58742 0.75379 0.4296 0.0
O33 O 0.594 0.67321 0.37337 0.0
C34 C 0.50005 0.64706 0.42387 0.0
O35 O 0.49915 0.67151 0.404 0.0
C36 C 0.54297 0.69889 0.27131 0.0
O37 O 0.5286 0.66909 0.261 0.0
O38 O 0.57921 0.71282 0.49246 0.0
C39 C 0.92366 0.60607 0.42001 0.0
O40 O 0.90163 0.60633 0.38528 0.0
O41 O 0.84567 0.55214 0.4309 0.0
Zn42 Zn 0.87542 0.55996 0.50876 0.0
O43 O 0.87369 0.52046 0.53432 0.0
C44 C 0.84778 0.58752 0.59078 0.0
O45 O 0.83711 0.58929 0.52882 0.0
O46 O 0.91754 0.58906 0.47446 0.0
C47 C 0.85666 0.50237 0.58256 0.0
O48 O 0.83895 0.5093 0.61818 0.0
C49 C 0.8184 0.53031 0.43367 0.0
O50 O 0.8093 0.51152 0.48819 0.0
O51 O 0.86534 0.57672 0.59459 0.0
C52 C 0.24873 0.84761 0.79058 0.0
O53 O 0.2382 0.84326 0.72559 0.0
O54 O 0.34192 0.87233 0.74142 0.0
Zn55 Zn 0.30403 0.87214 0.71445 0.0
O56 O 0.28062 0.83837 0.64478 0.0
C57 C 0.32711 0.91694 0.60727 0.0
O58 O 0.33195 0.8958 0.58087 0.0
O59 O 0.27717 0.86214 0.8001 0.0
C60 C 0.29015 0.82455 0.60602 0.0
O61 O 0.31874 0.83242 0.60826 0.0
C62 C 0.34062 0.84885 0.76972 0.0
O63 O 0.31407 0.82449 0.78215 0.0
O64 O 0.31481 0.91247 0.66803 0.0
C65 C 0.42753 0.34516 0.73898 0.0
O66 O 0.45364 0.35012 0.71502 0.0
O67 O 0.45538 0.2959 0.77636 0.0
Zn68 Zn 0.44607 0.32013 0.84625 0.0
O69 O 0.48373 0.3593 0.87289 0.0
C70 C 0.41689 0.26588 0.93474 0.0
O71 O 0.41504 0.25202 0.87457 0.0
O72 O 0.41805 0.33162 0.79834 0.0
C73 C 0.50696 0.35994 0.89819 0.0
O74 O 0.50676 0.33406 0.90731 0.0
C75 C 0.47913 0.30592 0.73887 0.0
O76 O 0.50087 0.33462 0.74528 0.0
O77 O 0.42811 0.29483 0.93491 0.0
C78 C 0.57493 0.83336 0.81574 0.0
O79 O 0.57578 0.821 0.87632 0.0
O80 O 0.50178 0.84793 0.86958 0.0
Zn81 Zn 0.54244 0.85521 0.89957 0.0
O82 O 0.53799 0.82502 0.97561 0.0
C83 C 0.54936 0.90096 0.99137 0.0
O84 O 0.52249 0.87779 0.00736 0.0
O85 O 0.56323 0.85032 0.81365 0.0
C86 C 0.55828 0.83388 0.02301 0.0
O87 O 0.58115 0.8622 0.02113 0.0
C88 C 0.47657 0.82398 0.88277 0.0
O89 O 0.47601 0.80095 0.91658 0.0
O90 O 0.56432 0.8976 0.94201 0.0
C91 C 0.68221 0.59913 0.10661 0.0
O92 O 0.68123 0.57707 0.14552 0.0
O93 O 0.72944 0.56788 0.08068 0.0
Zn94 Zn 0.70305 0.57198 0.00771 0.0
O95 O 0.66568 0.531 0.99126 0.0
C96 C 0.75463 0.59736 0.91486 0.0
O97 O 0.76916 0.60257 0.97519 0.0
O98 O 0.69118 0.60207 0.04274 0.0
C99 C 0.6679 0.50789 0.97443 0.0
O100 O 0.69484 0.5111 0.96855 0.0
C101 C 0.72086 0.54648 0.12622 0.0
O102 O 0.69231 0.52478 0.12884 0.0
O103 O 0.72613 0.58574 0.91564 0.0
C104 C 0.09401 0.6683 0.30124 0.0
O105 O 0.11355 0.66218 0.33075 0.0
O106 O 0.1714 0.71192 0.28466 0.0
Zn107 Zn 0.14178 0.69399 0.20457 0.0
O108 O 0.14049 0.65538 0.17312 0.0
C109 C 0.17149 0.75381 0.14172 0.0
O110 O 0.17694 0.76189 0.20861 0.0
O111 O 0.10086 0.68276 0.24264 0.0
C112 C 0.15872 0.6549 0.12833 0.0
O113 O 0.17868 0.68055 0.0972 0.0
C114 C 0.19885 0.71889 0.28046 0.0
O115 O 0.20896 0.71377 0.22125 0.0
O116 O 0.15555 0.7255 0.12611 0.0
C117 C 0.40674 0.16386 0.26598 0.0
O118 O 0.40956 0.17826 0.32586 0.0
O119 O 0.46681 0.1339 0.32589 0.0
Zn120 Zn 0.42687 0.1297 0.35136 0.0
O121 O 0.43207 0.15692 0.43385 0.0
C122 C 0.39894 0.06379 0.35438 0.0
O123 O 0.41591 0.0687 0.29815 0.0
O124 O 0.41154 0.14152 0.2652 0.0
C125 C 0.45574 0.18264 0.44524 0.0
O126 O 0.47856 0.19275 0.40088 0.0
C127 C 0.48188 0.12842 0.37089 0.0
O128 O 0.47135 0.12042 0.43568 0.0
O129 O 0.39884 0.08635 0.38351 0.0
C130 C 0.33057 0.41475 0.5835 0.0
O131 O 0.34228 0.42966 0.52398 0.0
O132 O 0.2811 0.45939 0.65714 0.0
Zn133 Zn 0.29892 0.44788 0.57693 0.0
O134 O 0.33615 0.48573 0.54129 0.0
C135 C 0.23971 0.41581 0.51581 0.0
O136 O 0.23168 0.41275 0.58277 0.0
O137 O 0.31057 0.41815 0.61471 0.0
C138 C 0.33549 0.50311 0.49342 0.0
O139 O 0.30957 0.49617 0.4643 0.0
C140 C 0.27181 0.47826 0.65032 0.0
O141 O 0.27542 0.49234 0.58941 0.0
O142 O 0.26761 0.42904 0.49991 0.0
C143 C 0.91292 0.30663 0.78867 0.0
O144 O 0.89198 0.28289 0.82386 0.0
O145 O 0.83328 0.27732 0.78296 0.0
Zn146 Zn 0.86267 0.30227 0.7062 0.0
O147 O 0.85901 0.33927 0.68494 0.0
C148 C 0.83453 0.24796 0.6192 0.0
O149 O 0.82399 0.23427 0.68048 0.0
O150 O 0.90539 0.3174 0.73679 0.0
C151 C 0.83542 0.34056 0.69815 0.0
O152 O 0.81184 0.31669 0.72656 0.0
C153 C 0.83307 0.28694 0.84494 0.0
O154 O 0.85359 0.31506 0.86257 0.0
O155 O 0.85244 0.27684 0.61754 0.0
H156 H 0.13749 0.39996 0.30659 0.0
H157 H 0.19632 0.39183 0.15612 0.0
H158 H 0.22948 0.3947 0.252 0.0
H159 H 0.24405 0.40395 0.3775 0.0
H160 H 0.18435 0.41013 0.52865 0.0
H161 H 0.14917 0.40335 0.43381 0.0
C162 C 0.15738 0.39846 0.29497 0.0
C163 C 0.16461 0.39605 0.22438 0.0
C164 C 0.17631 0.39996 0.35041 0.0
C165 C 0.19024 0.39372 0.21006 0.0
C166 C 0.20933 0.39552 0.26481 0.0
C167 C 0.22318 0.40348 0.38965 0.0
C168 C 0.21695 0.40786 0.4597 0.0
C169 C 0.20294 0.39933 0.33498 0.0
C170 C 0.18966 0.40681 0.47504 0.0
C171 C 0.16959 0.40307 0.42082 0.0
H172 H 0.78448 0.19188 0.60298 0.0
H173 H 0.85706 0.2659 0.48545 0.0
H174 H 0.83343 0.24059 0.37407 0.0
H175 H 0.78976 0.20021 0.31046 0.0
H176 H 0.71549 0.12814 0.42823 0.0
H177 H 0.74235 0.14977 0.53921 0.0
C178 C 0.79539 0.20225 0.55305 0.0
C179 C 0.82238 0.23082 0.55246 0.0
C180 C 0.78125 0.18803 0.48926 0.0
C181 C 0.83615 0.24402 0.48729 0.0
C182 C 0.82264 0.22958 0.4236 0.0
C183 C 0.77964 0.18894 0.36031 0.0
C184 C 0.7506 0.16272 0.36116 0.0
C185 C 0.79481 0.20199 0.42397 0.0
C186 C 0.73774 0.14848 0.42622 0.0
C187 C 0.75306 0.16085 0.48969 0.0
H188 H 0.58887 0.7954 0.50709 0.0
H189 H 0.59351 0.72448 0.62445 0.0
H190 H 0.59375 0.74912 0.73578 0.0
H191 H 0.5876 0.78773 0.79954 0.0
H192 H 0.57979 0.85685 0.68238 0.0
H193 H 0.5862 0.83614 0.57113 0.0
C194 C 0.59038 0.78555 0.55695 0.0
C195 C 0.59094 0.75799 0.55743 0.0
C196 C 0.58974 0.79941 0.6208 0.0
C197 C 0.59284 0.74555 0.62258 0.0
C198 C 0.59294 0.7596 0.68628 0.0
C199 C 0.58774 0.79859 0.74979 0.0
C200 C 0.58298 0.82367 0.7493 0.0
C201 C 0.59062 0.78609 0.68602 0.0
C202 C 0.58321 0.83741 0.68426 0.0
C203 C 0.58681 0.82553 0.6206 0.0
H204 H 0.79852 0.59361 0.60559 0.0
H205 H 0.87219 0.59693 0.72315 0.0
H206 H 0.85129 0.60359 0.83341 0.0
H207 H 0.81005 0.60414 0.89717 0.0
H208 H 0.73456 0.59725 0.78068 0.0
H209 H 0.75839 0.59663 0.66906 0.0
C210 C 0.81023 0.59622 0.65521 0.0
C211 C 0.83681 0.59468 0.65624 0.0
C212 C 0.79767 0.59923 0.71859 0.0
C213 C 0.8516 0.59787 0.72101 0.0
C214 C 0.83966 0.60166 0.78407 0.0
C215 C 0.79899 0.60297 0.84734 0.0
C216 C 0.77054 0.60066 0.84722 0.0
C217 C 0.8124 0.60174 0.78362 0.0
C218 C 0.75642 0.59892 0.7822 0.0
C219 C 0.77001 0.59851 0.71839 0.0
H220 H 0.26023 0.85732 0.93179 0.0
H221 H 0.19113 0.79932 0.78244 0.0
H222 H 0.16016 0.76586 0.87864 0.0
H223 H 0.15483 0.75035 0.00389 0.0
H224 H 0.22299 0.80927 0.15387 0.0
H225 H 0.25204 0.84511 0.05896 0.0
C226 C 0.23821 0.83761 0.92048 0.0
C227 C 0.22819 0.83064 0.85003 0.0
C228 C 0.22043 0.81843 0.9761 0.0
C229 C 0.19944 0.80522 0.83621 0.0
C230 C 0.18175 0.78592 0.89116 0.0
C231 C 0.17589 0.7712 0.01577 0.0
C232 C 0.18693 0.77698 0.08549 0.0
C233 C 0.19236 0.79186 0.96106 0.0
C234 C 0.21402 0.80428 0.1005 0.0
C235 C 0.23072 0.82474 0.04624 0.0
H236 H 0.40667 0.21712 0.24666 0.0
H237 H 0.39735 0.1386 0.13374 0.0
H238 H 0.39661 0.16213 0.02117 0.0
H239 H 0.40338 0.20694 0.95456 0.0
H240 H 0.41514 0.28645 0.0675 0.0
H241 H 0.40987 0.26042 0.18028 0.0
C242 C 0.40406 0.20493 0.19755 0.0
C243 C 0.40233 0.17623 0.1987 0.0
C244 C 0.4043 0.21887 0.13291 0.0
C245 C 0.39893 0.16079 0.13444 0.0
C246 C 0.39856 0.17426 0.06998 0.0
C247 C 0.40438 0.21846 0.00377 0.0
C248 C 0.4099 0.24872 0.00249 0.0
C249 C 0.40197 0.20361 0.06851 0.0
C250 C 0.41112 0.26325 0.06688 0.0
C251 C 0.40816 0.24839 0.13146 0.0
H252 H 0.18344 0.54632 0.07668 0.0
H253 H 0.09449 0.49446 0.16895 0.0
H254 H 0.09199 0.54131 0.1799 0.0
H255 H 0.11534 0.59701 0.16441 0.0
H256 H 0.20335 0.64851 0.06704 0.0
H257 H 0.20582 0.60169 0.05619 0.0
C258 C 0.16359 0.54533 0.09953 0.0
C259 C 0.13932 0.51709 0.12269 0.0
C260 C 0.16206 0.57221 0.10426 0.0
C261 C 0.11349 0.51599 0.15096 0.0
C262 C 0.11204 0.54274 0.15718 0.0
C263 C 0.13502 0.59798 0.14056 0.0
C264 C 0.15918 0.62622 0.11687 0.0
C265 C 0.13621 0.57097 0.13407 0.0
C266 C 0.1844 0.62705 0.08552 0.0
C267 C 0.1859 0.60032 0.07961 0.0
H268 H 0.60286 0.1268 0.32653 0.0
H269 H 0.5897 0.14731 0.11177 0.0
H270 H 0.54418 0.14747 0.148 0.0
H271 H 0.50756 0.14077 0.23991 0.0
H272 H 0.52029 0.11957 0.45438 0.0
H273 H 0.56659 0.12079 0.41885 0.0
C274 C 0.59012 0.13142 0.28763 0.0
C275 C 0.5997 0.137 0.21649 0.0
C276 C 0.56385 0.13131 0.30871 0.0
C277 C 0.58285 0.14288 0.16684 0.0
C278 C 0.55679 0.14298 0.1875 0.0
C279 C 0.52049 0.13651 0.27902 0.0
C280 C 0.51041 0.13004 0.34971 0.0
C281 C 0.547 0.13707 0.25819 0.0
C282 C 0.52747 0.12456 0.39959 0.0
C283 C 0.55397 0.12525 0.37933 0.0
H284 H 0.39308 0.51834 0.52368 0.0
H285 H 0.34088 0.55151 0.41655 0.0
H286 H 0.38718 0.59914 0.38614 0.0
H287 H 0.44249 0.63166 0.39142 0.0
H288 H 0.49457 0.59755 0.49529 0.0
H289 H 0.44828 0.55002 0.52557 0.0
C290 C 0.39181 0.53598 0.49366 0.0
C291 C 0.36357 0.53144 0.47273 0.0
C292 C 0.4185 0.56318 0.47589 0.0
C293 C 0.36234 0.5544 0.43324 0.0
C294 C 0.38881 0.58169 0.41599 0.0
C295 C 0.44369 0.61385 0.42081 0.0
C296 C 0.47191 0.61822 0.4414 0.0
C297 C 0.417 0.58638 0.43733 0.0
C298 C 0.47313 0.59477 0.47875 0.0
C299 C 0.44667 0.56758 0.49619 0.0
H300 H 0.81602 0.45358 0.6612 0.0
H301 H 0.89764 0.48689 0.53798 0.0
H302 H 0.89828 0.43988 0.56322 0.0
H303 H 0.87585 0.38947 0.62025 0.0
H304 H 0.79343 0.35522 0.74069 0.0
H305 H 0.79291 0.40244 0.71636 0.0
C306 C 0.83398 0.45058 0.64002 0.0
C307 C 0.85679 0.47376 0.598 0.0
C308 C 0.83405 0.42332 0.6541 0.0
C309 C 0.87977 0.4694 0.57041 0.0
C310 C 0.88019 0.44253 0.58486 0.0
C311 C 0.85777 0.39232 0.64128 0.0
C312 C 0.83478 0.36889 0.68242 0.0
C313 C 0.85747 0.41937 0.62664 0.0
C314 C 0.81139 0.37287 0.70876 0.0
C315 C 0.8111 0.3999 0.695 0.0
H316 H 0.34585 0.80211 0.82633 0.0
H317 H 0.39863 0.89546 0.75056 0.0
H318 H 0.44508 0.89557 0.77738 0.0
H319 H 0.47077 0.86958 0.82303 0.0
H320 H 0.41851 0.77639 0.89981 0.0
H321 H 0.37179 0.77582 0.8715 0.0
C322 C 0.3675 0.82249 0.81571 0.0
C323 C 0.3687 0.84875 0.78659 0.0
C324 C 0.39423 0.82243 0.83124 0.0
C325 C 0.39699 0.87493 0.77304 0.0
C326 C 0.42361 0.87503 0.7883 0.0
C327 C 0.44919 0.84905 0.83339 0.0
C328 C 0.44818 0.82306 0.8635 0.0
C329 C 0.42249 0.84894 0.81743 0.0
C330 C 0.41997 0.79672 0.87668 0.0
C331 C 0.39323 0.79639 0.86058 0.0
H332 H 0.56401 0.37124 0.92074 0.0
H333 H 0.51103 0.41555 0.91182 0.0
H334 H 0.55598 0.46503 0.93633 0.0
H335 H 0.61039 0.49588 0.95835 0.0
H336 H 0.66392 0.45212 0.9628 0.0
H337 H 0.61869 0.40229 0.94196 0.0
C338 C 0.56228 0.3917 0.92452 0.0
C339 C 0.53421 0.38969 0.91461 0.0
C340 C 0.58832 0.4202 0.93759 0.0
C341 C 0.53239 0.41647 0.91904 0.0
C342 C 0.55807 0.44478 0.93311 0.0
C343 C 0.61217 0.47544 0.95499 0.0
C344 C 0.64048 0.47772 0.96219 0.0
C345 C 0.58617 0.44694 0.94216 0.0
C346 C 0.64241 0.45102 0.95722 0.0
C347 C 0.61655 0.4225 0.94541 0.0
H348 H 0.25525 0.44714 0.77459 0.0
H349 H 0.24649 0.51464 0.65285 0.0
H350 H 0.21164 0.51444 0.74139 0.0
H351 H 0.18136 0.4927 0.8498 0.0
H352 H 0.18956 0.42406 0.96838 0.0
H353 H 0.22693 0.42715 0.88434 0.0
C354 C 0.24598 0.46207 0.76758 0.0
C355 C 0.25334 0.48075 0.70701 0.0
C356 C 0.22563 0.46144 0.81782 0.0
C357 C 0.24113 0.49995 0.69895 0.0
C358 C 0.22112 0.49979 0.74942 0.0
C359 C 0.19143 0.47854 0.85742 0.0
C360 C 0.18247 0.45801 0.91497 0.0
C361 C 0.21282 0.48022 0.80847 0.0
C362 C 0.19583 0.43989 0.92422 0.0
C363 C 0.21727 0.44166 0.87627 0.0
H364 H 0.74674 0.21148 0.09822 0.0
H365 H 0.70204 0.1462 0.9296 0.0
H366 H 0.73878 0.18208 0.84452 0.0
H367 H 0.7844 0.231 0.81864 0.0
H368 H 0.82944 0.29657 0.9864 0.0
H369 H 0.79161 0.26146 0.07129 0.0
C370 C 0.7449 0.20516 0.04279 0.0
C371 C 0.72173 0.17612 0.02041 0.0
C372 C 0.76621 0.22585 0.99411 0.0
C373 C 0.71967 0.16835 0.94836 0.0
C374 C 0.74071 0.18883 0.89963 0.0
C375 C 0.78599 0.23769 0.87376 0.0
C376 C 0.80983 0.26629 0.89625 0.0
C377 C 0.76422 0.21747 0.92207 0.0
C378 C 0.81135 0.27466 0.96773 0.0
C379 C 0.78974 0.25459 0.0163 0.0
H380 H 0.57434 0.76094 0.27286 0.0
H381 H 0.50776 0.68371 0.15213 0.0
H382 H 0.50563 0.71875 0.06575 0.0
H383 H 0.52359 0.77147 0.02356 0.0
H384 H 0.59124 0.84812 0.14401 0.0
H385 H 0.59186 0.81302 0.23181 0.0
C386 C 0.55926 0.75167 0.2278 0.0
C387 C 0.54125 0.71974 0.21896 0.0
C388 C 0.55833 0.77186 0.17835 0.0
C389 C 0.52193 0.70821 0.16009 0.0
C390 C 0.52067 0.72822 0.11075 0.0
C391 C 0.5383 0.78046 0.0693 0.0
C392 C 0.55734 0.81234 0.07727 0.0
C393 C 0.53887 0.76011 0.11924 0.0
C394 C 0.57645 0.82367 0.13649 0.0
C395 C 0.57683 0.80363 0.18675 0.0
H396 H 0.82943 0.56785 0.32071 0.0
H397 H 0.75847 0.48691 0.42374 0.0
H398 H 0.72209 0.4843 0.3366 0.0
H399 H 0.71016 0.506 0.23339 0.0
H400 H 0.78135 0.58737 0.13201 0.0
H401 H 0.81786 0.58872 0.21643 0.0
C402 C 0.80604 0.54951 0.32399 0.0
C403 C 0.79669 0.52766 0.37878 0.0
C404 C 0.78523 0.54828 0.2742 0.0
C405 C 0.76628 0.50407 0.38215 0.0
C406 C 0.74544 0.50257 0.33241 0.0
C407 C 0.73367 0.52398 0.22963 0.0
C408 C 0.74294 0.54661 0.17663 0.0
C409 C 0.75461 0.52473 0.27858 0.0
C410 C 0.77353 0.56971 0.17244 0.0
C411 C 0.79447 0.57052 0.22067 0.0
H412 H 0.1849 0.73448 0.40584 0.0
H413 H 0.25968 0.7407 0.28721 0.0
H414 H 0.29457 0.77221 0.38063 0.0
H415 H 0.30411 0.80105 0.49205 0.0
H416 H 0.22892 0.79575 0.60713 0.0
H417 H 0.19392 0.76068 0.51902 0.0
C418 C 0.20879 0.74249 0.4005 0.0
C419 C 0.21969 0.73547 0.33939 0.0
C420 C 0.2287 0.76091 0.45364 0.0
C421 C 0.25071 0.74591 0.33363 0.0
C422 C 0.27069 0.76398 0.38694 0.0
C423 C 0.28005 0.79193 0.49817 0.0
C424 C 0.26917 0.8012 0.55565 0.0
C425 C 0.25999 0.77208 0.4466 0.0
C426 C 0.23792 0.78923 0.56293 0.0
C427 C 0.21786 0.76915 0.51262 0.0
H428 H 0.43722 0.2468 0.71013 0.0
H429 H 0.52496 0.32024 0.64447 0.0
H430 H 0.52602 0.28815 0.54913 0.0
H431 H 0.50094 0.23996 0.48132 0.0
H432 H 0.41278 0.16722 0.5471 0.0
H433 H 0.41308 0.19841 0.64551 0.0
C434 C 0.45669 0.25581 0.67529 0.0
C435 C 0.48089 0.28595 0.68424 0.0
C436 C 0.45703 0.2374 0.62032 0.0
C437 C 0.50596 0.29714 0.63868 0.0
C438 C 0.50657 0.27882 0.58404 0.0
C439 C 0.48186 0.23089 0.51736 0.0
C440 C 0.45682 0.20135 0.50651 0.0
C441 C 0.48205 0.24904 0.57384 0.0
C442 C 0.43231 0.18992 0.55388 0.0
C443 C 0.43243 0.20774 0.61029 0.0
H444 H 0.04943 0.39694 0.86154 0.0
H445 H 0.0228 0.34487 0.05649 0.0
H446 H 0.97232 0.31109 0.00823 0.0
H447 H 0.93493 0.29853 0.91322 0.0
H448 H 0.96202 0.35188 0.71996 0.0
H449 H 0.01327 0.38283 0.76502 0.0
C450 C 0.03268 0.37813 0.89352 0.0
C451 C 0.0398 0.37362 0.96276 0.0
C452 C 0.00376 0.35904 0.86576 0.0
C453 C 0.01786 0.34894 0.00311 0.0
C454 C 0.98899 0.32963 0.97558 0.0
C455 C 0.95213 0.31668 0.88064 0.0
C456 C 0.94457 0.32299 0.8135 0.0
C457 C 0.98156 0.33476 0.90732 0.0
C458 C 0.96715 0.34664 0.77201 0.0
C459 C 0.99648 0.36441 0.79774 0.0
H460 H 0.60642 0.95075 0.9849 0.0
H461 H 0.52052 0.91568 0.09073 0.0
H462 H 0.54076 0.96239 0.16063 0.0
H463 H 0.58245 0.01331 0.19123 0.0
H464 H 0.66852 0.049 0.08606 0.0
H465 H 0.64865 0.00187 0.01694 0.0
C466 C 0.59214 0.95339 0.02313 0.0
C467 C 0.56199 0.92976 0.03235 0.0
C468 C 0.60395 0.98035 0.06359 0.0
C469 C 0.54382 0.93347 0.08244 0.0
C470 C 0.55536 0.96019 0.12258 0.0
C471 C 0.59695 0.01077 0.15349 0.0
C472 C 0.62691 0.03466 0.14393 0.0
C473 C 0.58536 0.98376 0.11361 0.0
C474 C 0.64535 0.03095 0.09461 0.0
C475 C 0.63399 0.00403 0.05488 0.0
H476 H 0.66397 0.59922 0.24132 0.0
H477 H 0.67731 0.64444 0.039 0.0
H478 H 0.65764 0.67569 0.08744 0.0
H479 H 0.63415 0.68811 0.18545 0.0
H480 H 0.62003 0.64189 0.38675 0.0
H481 H 0.64281 0.61328 0.34045 0.0
C482 C 0.66272 0.61599 0.20776 0.0
C483 C 0.67189 0.61931 0.13647 0.0
C484 C 0.65124 0.6337 0.23576 0.0
C485 C 0.67029 0.64132 0.09399 0.0
C486 C 0.65903 0.65919 0.12164 0.0
C487 C 0.63633 0.67202 0.21947 0.0
C488 C 0.62523 0.66705 0.28938 0.0
C489 C 0.64909 0.6553 0.19222 0.0
C490 C 0.62823 0.64608 0.33265 0.0
C491 C 0.64121 0.62965 0.30619 0.0
H492 H 0.04685 0.67345 0.25126 0.0
H493 H 0.07439 0.63871 0.42767 0.0
H494 H 0.02482 0.61826 0.48183 0.0
H495 H 0.97305 0.60792 0.47673 0.0
H496 H 0.9445 0.64148 0.30006 0.0
H497 H 0.99517 0.66497 0.24892 0.0
C498 C 0.04205 0.66156 0.30172 0.0
C499 C 0.06427 0.65745 0.33501 0.0
C500 C 0.01332 0.64961 0.3326 0.0
C501 C 0.05769 0.64206 0.40055 0.0
C502 C 0.02933 0.63035 0.43171 0.0
C503 C 0.97789 0.62056 0.42728 0.0
C504 C 0.95493 0.62275 0.39212 0.0
C505 C 0.00688 0.63365 0.3978 0.0
C506 C 0.96172 0.63935 0.32822 0.0
C507 C 0.99068 0.65272 0.2988 0.0
H508 H 0.36871 0.04815 0.48026 0.0
H509 H 0.39449 0.01076 0.30643 0.0
H510 H 0.37341 0.96173 0.3685 0.0
H511 H 0.35035 0.9305 0.47444 0.0
H512 H 0.32522 0.96779 0.64954 0.0
H513 H 0.34336 0.01591 0.58437 0.0
C514 C 0.36946 0.0292 0.45555 0.0
C515 C 0.38332 0.03322 0.38884 0.0
C516 C 0.35763 0.00115 0.49196 0.0
C517 C 0.38406 0.00838 0.35774 0.0
C518 C 0.37207 0.98033 0.39329 0.0
C519 C 0.34872 0.94908 0.49842 0.0
C520 C 0.33666 0.94562 0.56705 0.0
C521 C 0.35928 0.97665 0.46086 0.0
C522 C 0.33451 0.96988 0.59693 0.0
C523 C 0.34489 0.9974 0.55969 0.0
H524 H 0.37663 0.40762 0.53699 0.0
H525 H 0.31214 0.38209 0.7075 0.0
H526 H 0.33542 0.35681 0.76926 0.0
H527 H 0.37607 0.34465 0.77819 0.0
H528 H 0.44096 0.37139 0.60806 0.0
H529 H 0.41546 0.39336 0.54303 0.0
C530 C 0.36746 0.3963 0.58735 0.0
C531 C 0.3428 0.39694 0.61768 0.0
C532 C 0.38116 0.38215 0.62302 0.0
C533 C 0.3312 0.38207 0.68298 0.0
C534 C 0.34453 0.36765 0.71848 0.0
C535 C 0.38449 0.35509 0.72668 0.0
C536 C 0.41053 0.35656 0.69841 0.0
C537 C 0.36984 0.36798 0.68955 0.0
C538 C 0.4211 0.37011 0.63145 0.0
C539 C 0.40652 0.3827 0.59406 0.0
loop_
_geom_bond_atom_site_label_1
_geom_bond_atom_site_label_2
_geom_bond_distance
_geom_bond_site_symmetry_2
_ccdc_geom_bond_type
C0 O1 1.160 . S
C0 O7 1.185 1_556 S
O1 C0 1.160 . S
O2 Zn3 1.899 1_556 S
O2 C10 1.284 . S
Zn3 O2 1.899 1_554 S
Zn3 O4 2.032 . S
Zn3 O7 2.086 . S
Zn3 O12 1.977 . S
O4 Zn3 2.032 . S
O4 C8 1.278 . S
C5 O6 1.203 . S
C5 O12 1.267 . S
O6 C5 1.203 . S
O7 C0 1.185 1_554 S
O7 Zn3 2.086 . S
C8 O4 1.278 . S
C8 O9 1.211 . S
O9 C8 1.211 . S
C10 O2 1.284 . S
C10 O11 1.273 . S
O11 C10 1.273 . S
O12 Zn3 1.977 . S
O12 C5 1.267 . S
C13 O14 1.160 . S
C13 O20 1.185 . S
O14 C13 1.160 . S
O15 Zn16 1.899 . S
O15 C23 1.284 . S
Zn16 O15 1.899 . S
Zn16 O17 2.032 . S
Zn16 O20 2.086 . S
Zn16 O25 1.977 . S
O17 Zn16 2.032 . S
O17 C21 1.278 . S
C18 O19 1.203 . S
C18 O25 1.267 . S
O19 C18 1.203 . S
O20 C13 1.185 . S
O20 Zn16 2.086 . S
C21 O17 1.278 . S
C21 O22 1.211 . S
O22 C21 1.211 . S
C23 O15 1.284 . S
C23 O24 1.273 . S
O24 C23 1.273 . S
O25 Zn16 1.977 . S
O25 C18 1.267 . S
C26 O27 1.160 . S
C26 O33 1.185 . S
O27 C26 1.160 . S
O28 Zn29 1.899 . S
O28 C36 1.284 . S
Zn29 O28 1.899 . S
Zn29 O30 2.032 . S
Zn29 O33 2.086 . S
Zn29 O38 1.977 . S
O30 Zn29 2.032 . S
O30 C34 1.278 . S
C31 O32 1.203 . S
C31 O38 1.267 . S
O32 C31 1.203 . S
O33 C26 1.185 . S
O33 Zn29 2.086 . S
C34 O30 1.278 . S
C34 O35 1.211 . S
O35 C34 1.211 . S
C36 O28 1.284 . S
C36 O37 1.273 . S
O37 C36 1.273 . S
O38 Zn29 1.977 . S
O38 C31 1.267 . S
C39 O40 1.160 . S
C39 O46 1.185 . S
O40 C39 1.160 . S
O41 Zn42 1.899 . S
O41 C49 1.284 . S
Zn42 O41 1.899 . S
Zn42 O43 2.032 . S
Zn42 O46 2.086 . S
Zn42 O51 1.977 . S
O43 Zn42 2.032 . S
O43 C47 1.278 . S
C44 O45 1.203 . S
C44 O51 1.267 . S
O45 C44 1.203 . S
O46 C39 1.185 . S
O46 Zn42 2.086 . S
C47 O43 1.278 . S
C47 O48 1.211 . S
O48 C47 1.211 . S
C49 O41 1.284 . S
C49 O50 1.273 . S
O50 C49 1.273 . S
O51 Zn42 1.977 . S
O51 C44 1.267 . S
C52 O53 1.160 . S
C52 O59 1.185 . S
O53 C52 1.160 . S
O54 Zn55 1.899 . S
O54 C62 1.284 . S
Zn55 O54 1.899 . S
Zn55 O56 2.032 . S
Zn55 O59 2.086 . S
Zn55 O64 1.977 . S
O56 Zn55 2.032 . S
O56 C60 1.278 . S
C57 O58 1.203 . S
C57 O64 1.267 . S
O58 C57 1.203 . S
O59 C52 1.185 . S
O59 Zn55 2.086 . S
C60 O56 1.278 . S
C60 O61 1.211 . S
O61 C60 1.211 . S
C62 O54 1.284 . S
C62 O63 1.273 . S
O63 C62 1.273 . S
O64 Zn55 1.977 . S
O64 C57 1.267 . S
C65 O66 1.160 . S
C65 O72 1.185 . S
O66 C65 1.160 . S
O67 Zn68 1.899 . S
O67 C75 1.284 . S
Zn68 O67 1.899 . S
Zn68 O69 2.032 . S
Zn68 O72 2.086 . S
Zn68 O77 1.977 . S
O69 Zn68 2.032 . S
O69 C73 1.278 . S
C70 O71 1.203 . S
C70 O77 1.267 . S
O71 C70 1.203 . S
O72 C65 1.185 . S
O72 Zn68 2.086 . S
C73 O69 1.278 . S
C73 O74 1.211 . S
O74 C73 1.211 . S
C75 O67 1.284 . S
C75 O76 1.273 . S
O76 C75 1.273 . S
O77 Zn68 1.977 . S
O77 C70 1.267 . S
C78 O79 1.160 . S
C78 O85 1.185 . S
O79 C78 1.160 . S
O80 Zn81 1.899 . S
O80 C88 1.284 . S
Zn81 O80 1.899 . S
Zn81 O82 2.032 . S
Zn81 O85 2.086 . S
Zn81 O90 1.977 . S
O82 Zn81 2.032 . S
O82 C86 1.278 . S
C83 O84 1.203 . S
C83 O90 1.267 . S
O84 C83 1.203 . S
O85 C78 1.185 . S
O85 Zn81 2.086 . S
C86 O82 1.278 . S
C86 O87 1.211 1_556 S
O87 C86 1.211 1_554 S
C88 O80 1.284 . S
C88 O89 1.273 . S
O89 C88 1.273 . S
O90 Zn81 1.977 . S
O90 C83 1.267 . S
C91 O92 1.160 . S
C91 O98 1.185 . S
O92 C91 1.160 . S
O93 Zn94 1.899 . S
O93 C101 1.284 . S
Zn94 O93 1.899 . S
Zn94 O95 2.032 . S
Zn94 O98 2.086 . S
Zn94 O103 1.977 1_554 S
O95 Zn94 2.032 . S
O95 C99 1.278 . S
C96 O97 1.203 . S
C96 O103 1.267 . S
O97 C96 1.203 . S
O98 C91 1.185 . S
O98 Zn94 2.086 . S
C99 O95 1.278 . S
C99 O100 1.211 1_554 S
O100 C99 1.211 1_556 S
C101 O93 1.284 . S
C101 O102 1.273 . S
O102 C101 1.273 . S
O103 Zn94 1.977 1_556 S
O103 C96 1.267 . S
C104 O105 1.160 . S
C104 O111 1.185 . S
O105 C104 1.160 . S
O106 Zn107 1.899 . S
O106 C114 1.284 . S
Zn107 O106 1.899 . S
Zn107 O108 2.032 . S
Zn107 O111 2.086 . S
Zn107 O116 1.977 . S
O108 Zn107 2.032 . S
O108 C112 1.278 . S
C109 O110 1.203 . S
C109 O116 1.267 . S
O110 C109 1.203 . S
O111 C104 1.185 . S
O111 Zn107 2.086 . S
C112 O108 1.278 . S
C112 O113 1.211 . S
O113 C112 1.211 . S
C114 O106 1.284 . S
C114 O115 1.273 . S
O115 C114 1.273 . S
O116 Zn107 1.977 . S
O116 C109 1.267 . S
C117 O118 1.160 . S
C117 O124 1.185 . S
O118 C117 1.160 . S
O119 Zn120 1.899 . S
O119 C127 1.284 . S
Zn120 O119 1.899 . S
Zn120 O121 2.032 . S
Zn120 O124 2.086 . S
Zn120 O129 1.977 . S
O121 Zn120 2.032 . S
O121 C125 1.278 . S
C122 O123 1.203 . S
C122 O129 1.267 . S
O123 C122 1.203 . S
O124 C117 1.185 . S
O124 Zn120 2.086 . S
C125 O121 1.278 . S
C125 O126 1.211 . S
O126 C125 1.211 . S
C127 O119 1.284 . S
C127 O128 1.273 . S
O128 C127 1.273 . S
O129 Zn120 1.977 . S
O129 C122 1.267 . S
C130 O131 1.160 . S
C130 O137 1.185 . S
O131 C130 1.160 . S
O132 Zn133 1.899 . S
O132 C140 1.284 . S
Zn133 O132 1.899 . S
Zn133 O134 2.032 . S
Zn133 O137 2.086 . S
Zn133 O142 1.977 . S
O134 Zn133 2.032 . S
O134 C138 1.278 . S
C135 O136 1.203 . S
C135 O142 1.267 . S
O136 C135 1.203 . S
O137 C130 1.185 . S
O137 Zn133 2.086 . S
C138 O134 1.278 . S
C138 O139 1.211 . S
O139 C138 1.211 . S
C140 O132 1.284 . S
C140 O141 1.273 . S
O141 C140 1.273 . S
O142 Zn133 1.977 . S
O142 C135 1.267 . S
C143 O144 1.160 . S
C143 O150 1.185 . S
O144 C143 1.160 . S
O145 Zn146 1.899 . S
O145 C153 1.284 . S
Zn146 O145 1.899 . S
Zn146 O147 2.032 . S
Zn146 O150 2.086 . S
Zn146 O155 1.977 . S
O147 Zn146 2.032 . S
O147 C151 1.278 . S
C148 O149 1.203 . S
C148 O155 1.267 . S
O149 C148 1.203 . S
O150 C143 1.185 . S
O150 Zn146 2.086 . S
C151 O147 1.278 . S
C151 O152 1.211 . S
O152 C151 1.211 . S
C153 O145 1.284 . S
C153 O154 1.273 . S
O154 C153 1.273 . S
O155 Zn146 1.977 . S
O155 C148 1.267 . S
H156 C162 0.930 . S
H157 C165 0.930 . S
H158 C166 0.930 . S
H159 C167 0.930 . S
H160 C170 0.930 . S
H161 C171 0.930 . S
C162 H156 0.930 . S
C162 C163 1.355 . S
C162 C164 1.415 . S
C163 C162 1.355 . S
C163 C165 1.419 . S
C164 C162 1.415 . S
C164 C169 1.425 . S
C164 C171 1.409 . S
C165 H157 0.930 . S
C165 C163 1.419 . S
C165 C166 1.362 . S
C166 H158 0.930 . S
C166 C165 1.362 . S
C166 C169 1.409 . S
C167 H159 0.930 . S
C167 C168 1.355 . S
C167 C169 1.415 . S
C168 C167 1.355 . S
C168 C170 1.419 . S
C169 C164 1.425 . S
C169 C166 1.409 . S
C169 C167 1.415 . S
C170 H160 0.930 . S
C170 C168 1.419 . S
C170 C171 1.362 . S
C171 H161 0.930 . S
C171 C164 1.409 . S
C171 C170 1.362 . S
H172 C178 0.930 . S
H173 C181 0.930 . S
H174 C182 0.930 . S
H175 C183 0.930 . S
H176 C186 0.930 . S
H177 C187 0.930 . S
C178 H172 0.930 . S
C178 C179 1.355 . S
C178 C180 1.415 . S
C179 C178 1.355 . S
C179 C181 1.419 . S
C180 C178 1.415 . S
C180 C185 1.425 . S
C180 C187 1.409 . S
C181 H173 0.930 . S
C181 C179 1.419 . S
C181 C182 1.362 . S
C182 H174 0.930 . S
C182 C181 1.362 . S
C182 C185 1.409 . S
C183 H175 0.930 . S
C183 C184 1.355 . S
C183 C185 1.415 . S
C184 C183 1.355 . S
C184 C186 1.419 . S
C185 C180 1.425 . S
C185 C182 1.409 . S
C185 C183 1.415 . S
C186 H176 0.930 . S
C186 C184 1.419 . S
C186 C187 1.362 . S
C187 H177 0.930 . S
C187 C180 1.409 . S
C187 C186 1.362 . S
H188 C194 0.930 . S
H189 C197 0.930 . S
H190 C198 0.930 . S
H191 C199 0.930 . S
H192 C202 0.930 . S
H193 C203 0.930 . S
C194 H188 0.930 . S
C194 C195 1.355 . S
C194 C196 1.415 . S
C195 C194 1.355 . S
C195 C197 1.419 . S
C196 C194 1.415 . S
C196 C201 1.425 . S
C196 C203 1.409 . S
C197 H189 0.930 . S
C197 C195 1.419 . S
C197 C198 1.362 . S
C198 H190 0.930 . S
C198 C197 1.362 . S
C198 C201 1.409 . S
C199 H191 0.930 . S
C199 C200 1.355 . S
C199 C201 1.415 . S
C200 C199 1.355 . S
C200 C202 1.419 . S
C201 C196 1.425 . S
C201 C198 1.409 . S
C201 C199 1.415 . S
C202 H192 0.930 . S
C202 C200 1.419 . S
C202 C203 1.362 . S
C203 H193 0.930 . S
C203 C196 1.409 . S
C203 C202 1.362 . S
H204 C210 0.930 . S
H205 C213 0.930 . S
H206 C214 0.930 . S
H207 C215 0.930 . S
H208 C218 0.930 . S
H209 C219 0.930 . S
C210 H204 0.930 . S
C210 C211 1.355 . S
C210 C212 1.415 . S
C211 C210 1.355 . S
C211 C213 1.419 . S
C212 C210 1.415 . S
C212 C217 1.425 . S
C212 C219 1.409 . S
C213 H205 0.930 . S
C213 C211 1.419 . S
C213 C214 1.362 . S
C214 H206 0.930 . S
C214 C213 1.362 . S
C214 C217 1.409 . S
C215 H207 0.930 . S
C215 C216 1.355 . S
C215 C217 1.415 . S
C216 C215 1.355 . S
C216 C218 1.419 . S
C217 C212 1.425 . S
C217 C214 1.409 . S
C217 C215 1.415 . S
C218 H208 0.930 . S
C218 C216 1.419 . S
C218 C219 1.362 . S
C219 H209 0.930 . S
C219 C212 1.409 . S
C219 C218 1.362 . S
H220 C226 0.930 . S
H221 C229 0.930 . S
H222 C230 0.930 . S
H223 C231 0.930 . S
H224 C234 0.930 . S
H225 C235 0.930 . S
C226 H220 0.930 . S
C226 C227 1.355 . S
C226 C228 1.415 . S
C227 C226 1.355 . S
C227 C229 1.419 . S
C228 C226 1.415 . S
C228 C233 1.425 . S
C228 C235 1.409 1_556 S
C229 H221 0.930 . S
C229 C227 1.419 . S
C229 C230 1.362 . S
C230 H222 0.930 . S
C230 C229 1.362 . S
C230 C233 1.409 . S
C231 H223 0.930 . S
C231 C232 1.355 1_556 S
C231 C233 1.415 . S
C232 C231 1.355 1_554 S
C232 C234 1.419 . S
C233 C228 1.425 . S
C233 C230 1.409 . S
C233 C231 1.415 . S
C234 H224 0.930 . S
C234 C232 1.419 . S
C234 C235 1.362 . S
C235 H225 0.930 . S
C235 C228 1.409 1_554 S
C235 C234 1.362 . S
H236 C242 0.930 . S
H237 C245 0.930 . S
H238 C246 0.930 . S
H239 C247 0.930 . S
H240 C250 0.930 . S
H241 C251 0.930 . S
C242 H236 0.930 . S
C242 C243 1.355 . S
C242 C244 1.415 . S
C243 C242 1.355 . S
C243 C245 1.419 . S
C244 C242 1.415 . S
C244 C249 1.425 . S
C244 C251 1.409 . S
C245 H237 0.930 . S
C245 C243 1.419 . S
C245 C246 1.362 . S
C246 H238 0.930 . S
C246 C245 1.362 . S
C246 C249 1.409 . S
C247 H239 0.930 . S
C247 C248 1.355 . S
C247 C249 1.415 . S
C248 C247 1.355 . S
C248 C250 1.419 . S
C249 C244 1.425 . S
C249 C246 1.409 . S
C249 C247 1.415 . S
C250 H240 0.930 . S
C250 C248 1.419 . S
C250 C251 1.362 . S
C251 H241 0.930 . S
C251 C244 1.409 . S
C251 C250 1.362 . S
H252 C258 0.930 . S
H253 C261 0.930 . S
H254 C262 0.930 . S
H255 C263 0.930 . S
H256 C266 0.930 . S
H257 C267 0.930 . S
C258 H252 0.930 . S
C258 C259 1.355 . S
C258 C260 1.415 . S
C259 C258 1.355 . S
C259 C261 1.419 . S
C260 C258 1.415 . S
C260 C265 1.425 . S
C260 C267 1.409 . S
C261 H253 0.930 . S
C261 C259 1.419 . S
C261 C262 1.362 . S
C262 H254 0.930 . S
C262 C261 1.362 . S
C262 C265 1.409 . S
C263 H255 0.930 . S
C263 C264 1.355 . S
C263 C265 1.415 . S
C264 C263 1.355 . S
C264 C266 1.419 . S
C265 C260 1.425 . S
C265 C262 1.409 . S
C265 C263 1.415 . S
C266 H256 0.930 . S
C266 C264 1.419 . S
C266 C267 1.362 . S
C267 H257 0.930 . S
C267 C260 1.409 . S
C267 C266 1.362 . S
H268 C274 0.930 . S
H269 C277 0.930 . S
H270 C278 0.930 . S
H271 C279 0.930 . S
H272 C282 0.930 . S
H273 C283 0.930 . S
C274 H268 0.930 . S
C274 C275 1.355 . S
C274 C276 1.415 . S
C275 C274 1.355 . S
C275 C277 1.419 . S
C276 C274 1.415 . S
C276 C281 1.425 . S
C276 C283 1.409 . S
C277 H269 0.930 . S
C277 C275 1.419 . S
C277 C278 1.362 . S
C278 H270 0.930 . S
C278 C277 1.362 . S
C278 C281 1.409 . S
C279 H271 0.930 . S
C279 C280 1.355 . S
C279 C281 1.415 . S
C280 C279 1.355 . S
C280 C282 1.419 . S
C281 C276 1.425 . S
C281 C278 1.409 . S
C281 C279 1.415 . S
C282 H272 0.930 . S
C282 C280 1.419 . S
C282 C283 1.362 . S
C283 H273 0.930 . S
C283 C276 1.409 . S
C283 C282 1.362 . S
H284 C290 0.930 . S
H285 C293 0.930 . S
H286 C294 0.930 . S
H287 C295 0.930 . S
H288 C298 0.930 . S
H289 C299 0.930 . S
C290 H284 0.930 . S
C290 C291 1.355 . S
C290 C292 1.415 . S
C291 C290 1.355 . S
C291 C293 1.419 . S
C292 C290 1.415 . S
C292 C297 1.425 . S
C292 C299 1.409 . S
C293 H285 0.930 . S
C293 C291 1.419 . S
C293 C294 1.362 . S
C294 H286 0.930 . S
C294 C293 1.362 . S
C294 C297 1.409 . S
C295 H287 0.930 . S
C295 C296 1.355 . S
C295 C297 1.415 . S
C296 C295 1.355 . S
C296 C298 1.419 . S
C297 C292 1.425 . S
C297 C294 1.409 . S
C297 C295 1.415 . S
C298 H288 0.930 . S
C298 C296 1.419 . S
C298 C299 1.362 . S
C299 H289 0.930 . S
C299 C292 1.409 . S
C299 C298 1.362 . S
H300 C306 0.930 . S
H301 C309 0.930 . S
H302 C310 0.930 . S
H303 C311 0.930 . S
H304 C314 0.930 . S
H305 C315 0.930 . S
C306 H300 0.930 . S
C306 C307 1.355 . S
C306 C308 1.415 . S
C307 C306 1.355 . S
C307 C309 1.419 . S
C308 C306 1.415 . S
C308 C313 1.425 . S
C308 C315 1.409 . S
C309 H301 0.930 . S
C309 C307 1.419 . S
C309 C310 1.362 . S
C310 H302 0.930 . S
C310 C309 1.362 . S
C310 C313 1.409 . S
C311 H303 0.930 . S
C311 C312 1.355 . S
C311 C313 1.415 . S
C312 C311 1.355 . S
C312 C314 1.419 . S
C313 C308 1.425 . S
C313 C310 1.409 . S
C313 C311 1.415 . S
C314 H304 0.930 . S
C314 C312 1.419 . S
C314 C315 1.362 . S
C315 H305 0.930 . S
C315 C308 1.409 . S
C315 C314 1.362 . S
H316 C322 0.930 . S
H317 C325 0.930 . S
H318 C326 0.930 . S
H319 C327 0.930 . S
H320 C330 0.930 . S
H321 C331 0.930 . S
C322 H316 0.930 . S
C322 C323 1.355 . S
C322 C324 1.415 . S
C323 C322 1.355 . S
C323 C325 1.419 . S
C324 C322 1.415 . S
C324 C329 1.425 . S
C324 C331 1.409 . S
C325 H317 0.930 . S
C325 C323 1.419 . S
C325 C326 1.362 . S
C326 H318 0.930 . S
C326 C325 1.362 . S
C326 C329 1.409 . S
C327 H319 0.930 . S
C327 C328 1.355 . S
C327 C329 1.415 . S
C328 C327 1.355 . S
C328 C330 1.419 . S
C329 C324 1.425 . S
C329 C326 1.409 . S
C329 C327 1.415 . S
C330 H320 0.930 . S
C330 C328 1.419 . S
C330 C331 1.362 . S
C331 H321 0.930 . S
C331 C324 1.409 . S
C331 C330 1.362 . S
H332 C338 0.930 . S
H333 C341 0.930 . S
H334 C342 0.930 . S
H335 C343 0.930 . S
H336 C346 0.930 . S
H337 C347 0.930 . S
C338 H332 0.930 . S
C338 C339 1.355 . S
C338 C340 1.415 . S
C339 C338 1.355 . S
C339 C341 1.419 . S
C340 C338 1.415 . S
C340 C345 1.425 . S
C340 C347 1.409 . S
C341 H333 0.930 . S
C341 C339 1.419 . S
C341 C342 1.362 . S
C342 H334 0.930 . S
C342 C341 1.362 . S
C342 C345 1.409 . S
C343 H335 0.930 . S
C343 C344 1.355 . S
C343 C345 1.415 . S
C344 C343 1.355 . S
C344 C346 1.419 . S
C345 C340 1.425 . S
C345 C342 1.409 . S
C345 C343 1.415 . S
C346 H336 0.930 . S
C346 C344 1.419 . S
C346 C347 1.362 . S
C347 H337 0.930 . S
C347 C340 1.409 . S
C347 C346 1.362 . S
H348 C354 0.930 . S
H349 C357 0.930 . S
H350 C358 0.930 . S
H351 C359 0.930 . S
H352 C362 0.930 . S
H353 C363 0.930 . S
C354 H348 0.930 . S
C354 C355 1.355 . S
C354 C356 1.415 . S
C355 C354 1.355 . S
C355 C357 1.419 . S
C356 C354 1.415 . S
C356 C361 1.425 . S
C356 C363 1.409 . S
C357 H349 0.930 . S
C357 C355 1.419 . S
C357 C358 1.362 . S
C358 H350 0.930 . S
C358 C357 1.362 . S
C358 C361 1.409 . S
C359 H351 0.930 . S
C359 C360 1.355 . S
C359 C361 1.415 . S
C360 C359 1.355 . S
C360 C362 1.419 . S
C361 C356 1.425 . S
C361 C358 1.409 . S
C361 C359 1.415 . S
C362 H352 0.930 . S
C362 C360 1.419 . S
C362 C363 1.362 . S
C363 H353 0.930 . S
C363 C356 1.409 . S
C363 C362 1.362 . S
H364 C370 0.930 . S
H365 C373 0.930 . S
H366 C374 0.930 . S
H367 C375 0.930 . S
H368 C378 0.930 . S
H369 C379 0.930 . S
C370 H364 0.930 . S
C370 C371 1.355 . S
C370 C372 1.415 . S
C371 C370 1.355 . S
C371 C373 1.419 1_554 S
C372 C370 1.415 . S
C372 C377 1.425 1_554 S
C372 C379 1.409 . S
C373 H365 0.930 . S
C373 C371 1.419 1_556 S
C373 C374 1.362 . S
C374 H366 0.930 . S
C374 C373 1.362 . S
C374 C377 1.409 . S
C375 H367 0.930 . S
C375 C376 1.355 . S
C375 C377 1.415 . S
C376 C375 1.355 . S
C376 C378 1.419 . S
C377 C372 1.425 1_556 S
C377 C374 1.409 . S
C377 C375 1.415 . S
C378 H368 0.930 . S
C378 C376 1.419 . S
C378 C379 1.362 1_556 S
C379 H369 0.930 . S
C379 C372 1.409 . S
C379 C378 1.362 1_554 S
H380 C386 0.930 . S
H381 C389 0.930 . S
H382 C390 0.930 . S
H383 C391 0.930 . S
H384 C394 0.930 . S
H385 C395 0.930 . S
C386 H380 0.930 . S
C386 C387 1.355 . S
C386 C388 1.415 . S
C387 C386 1.355 . S
C387 C389 1.419 . S
C388 C386 1.415 . S
C388 C393 1.425 . S
C388 C395 1.409 . S
C389 H381 0.930 . S
C389 C387 1.419 . S
C389 C390 1.362 . S
C390 H382 0.930 . S
C390 C389 1.362 . S
C390 C393 1.409 . S
C391 H383 0.930 . S
C391 C392 1.355 . S
C391 C393 1.415 . S
C392 C391 1.355 . S
C392 C394 1.419 . S
C393 C388 1.425 . S
C393 C390 1.409 . S
C393 C391 1.415 . S
C394 H384 0.930 . S
C394 C392 1.419 . S
C394 C395 1.362 . S
C395 H385 0.930 . S
C395 C388 1.409 . S
C395 C394 1.362 . S
H396 C402 0.930 . S
H397 C405 0.930 . S
H398 C406 0.930 . S
H399 C407 0.930 . S
H400 C410 0.930 . S
H401 C411 0.930 . S
C402 H396 0.930 . S
C402 C403 1.355 . S
C402 C404 1.415 . S
C403 C402 1.355 . S
C403 C405 1.419 . S
C404 C402 1.415 . S
C404 C409 1.425 . S
C404 C411 1.409 . S
C405 H397 0.930 . S
C405 C403 1.419 . S
C405 C406 1.362 . S
C406 H398 0.930 . S
C406 C405 1.362 . S
C406 C409 1.409 . S
C407 H399 0.930 . S
C407 C408 1.355 . S
C407 C409 1.415 . S
C408 C407 1.355 . S
C408 C410 1.419 . S
C409 C404 1.425 . S
C409 C406 1.409 . S
C409 C407 1.415 . S
C410 H400 0.930 . S
C410 C408 1.419 . S
C410 C411 1.362 . S
C411 H401 0.930 . S
C411 C404 1.409 . S
C411 C410 1.362 . S
H412 C418 0.930 . S
H413 C421 0.930 . S
H414 C422 0.930 . S
H415 C423 0.930 . S
H416 C426 0.930 . S
H417 C427 0.930 . S
C418 H412 0.930 . S
C418 C419 1.355 . S
C418 C420 1.415 . S
C419 C418 1.355 . S
C419 C421 1.419 . S
C420 C418 1.415 . S
C420 C425 1.425 . S
C420 C427 1.409 . S
C421 H413 0.930 . S
C421 C419 1.419 . S
C421 C422 1.362 . S
C422 H414 0.930 . S
C422 C421 1.362 . S
C422 C425 1.409 . S
C423 H415 0.930 . S
C423 C424 1.355 . S
C423 C425 1.415 . S
C424 C423 1.355 . S
C424 C426 1.419 . S
C425 C420 1.425 . S
C425 C422 1.409 . S
C425 C423 1.415 . S
C426 H416 0.930 . S
C426 C424 1.419 . S
C426 C427 1.362 . S
C427 H417 0.930 . S
C427 C420 1.409 . S
C427 C426 1.362 . S
H428 C434 0.930 . S
H429 C437 0.930 . S
H430 C438 0.930 . S
H431 C439 0.930 . S
H432 C442 0.930 . S
H433 C443 0.930 . S
C434 H428 0.930 . S
C434 C435 1.355 . S
C434 C436 1.415 . S
C435 C434 1.355 . S
C435 C437 1.419 . S
C436 C434 1.415 . S
C436 C441 1.425 . S
C436 C443 1.409 . S
C437 H429 0.930 . S
C437 C435 1.419 . S
C437 C438 1.362 . S
C438 H430 0.930 . S
C438 C437 1.362 . S
C438 C441 1.409 . S
C439 H431 0.930 . S
C439 C440 1.355 . S
C439 C441 1.415 . S
C440 C439 1.355 . S
C440 C442 1.419 . S
C441 C436 1.425 . S
C441 C438 1.409 . S
C441 C439 1.415 . S
C442 H432 0.930 . S
C442 C440 1.419 . S
C442 C443 1.362 . S
C443 H433 0.930 . S
C443 C436 1.409 . S
C443 C442 1.362 . S
H444 C450 0.930 . S
H445 C453 0.930 . S
H446 C454 0.930 . S
H447 C455 0.930 . S
H448 C458 0.930 . S
H449 C459 0.930 . S
C450 H444 0.930 . S
C450 C451 1.355 . S
C450 C452 1.415 . S
C451 C450 1.355 . S
C451 C453 1.419 . S
C452 C450 1.415 . S
C452 C457 1.425 1_455 S
C452 C459 1.409 1_455 S
C453 H445 0.930 . S
C453 C451 1.419 . S
C453 C454 1.362 . S
C454 H446 0.930 . S
C454 C453 1.362 . S
C454 C457 1.409 1_455 S
C455 H447 0.930 . S
C455 C456 1.355 . S
C455 C457 1.415 . S
C456 C455 1.355 . S
C456 C458 1.419 . S
C457 C452 1.425 1_655 S
C457 C454 1.409 1_655 S
C457 C455 1.415 . S
C458 H448 0.930 . S
C458 C456 1.419 . S
C458 C459 1.362 . S
C459 H449 0.930 . S
C459 C452 1.409 1_655 S
C459 C458 1.362 . S
H460 C466 0.930 . S
H461 C469 0.930 . S
H462 C470 0.930 . S
H463 C471 0.930 . S
H464 C474 0.930 . S
H465 C475 0.929 1_556 S
C466 H460 0.930 . S
C466 C467 1.355 . S
C466 C468 1.415 1_566 S
C467 C466 1.355 . S
C467 C469 1.419 1_556 S
C468 C466 1.415 1_544 S
C468 C473 1.425 1_545 S
C468 C475 1.409 . S
C469 H461 0.930 . S
C469 C467 1.419 1_554 S
C469 C470 1.362 . S
C470 H462 0.930 . S
C470 C469 1.362 . S
C470 C473 1.409 . S
C471 H463 0.930 . S
C471 C472 1.355 . S
C471 C473 1.415 1_545 S
C472 C471 1.355 . S
C472 C474 1.419 . S
C473 C468 1.425 1_565 S
C473 C470 1.409 . S
C473 C471 1.415 1_565 S
C474 H464 0.930 . S
C474 C472 1.419 . S
C474 C475 1.363 . S
C475 H465 0.929 1_554 S
C475 C468 1.409 . S
C475 C474 1.363 . S
H476 C482 0.930 . S
H477 C485 0.930 . S
H478 C486 0.930 . S
H479 C487 0.930 . S
H480 C490 0.930 . S
H481 C491 0.930 . S
C482 H476 0.930 . S
C482 C483 1.355 . S
C482 C484 1.415 . S
C483 C482 1.355 . S
C483 C485 1.419 . S
C484 C482 1.415 . S
C484 C489 1.425 . S
C484 C491 1.409 . S
C485 H477 0.930 . S
C485 C483 1.419 . S
C485 C486 1.362 . S
C486 H478 0.930 . S
C486 C485 1.362 . S
C486 C489 1.409 . S
C487 H479 0.930 . S
C487 C488 1.355 . S
C487 C489 1.415 . S
C488 C487 1.355 . S
C488 C490 1.419 . S
C489 C484 1.425 . S
C489 C486 1.409 . S
C489 C487 1.415 . S
C490 H480 0.930 . S
C490 C488 1.419 . S
C490 C491 1.362 . S
C491 H481 0.930 . S
C491 C484 1.409 . S
C491 C490 1.362 . S
H492 C498 0.930 . S
H493 C501 0.930 . S
H494 C502 0.930 . S
H495 C503 0.930 . S
H496 C506 0.930 . S
H497 C507 0.930 . S
C498 H492 0.930 . S
C498 C499 1.355 . S
C498 C500 1.404 1_455 S
C499 C498 1.355 . S
C499 C501 1.419 . S
C500 C498 1.404 1_655 S
C500 C505 1.426 . S
C500 C507 1.427 . S
C501 H493 0.930 . S
C501 C499 1.419 . S
C501 C502 1.362 . S
C502 H494 0.930 . S
C502 C501 1.362 . S
C502 C505 1.389 1_455 S
C503 H495 0.930 . S
C503 C504 1.355 . S
C503 C505 1.427 . S
C504 C503 1.355 . S
C504 C506 1.419 . S
C505 C500 1.426 . S
C505 C502 1.389 1_655 S
C505 C503 1.427 . S
C506 H496 0.930 . S
C506 C504 1.419 . S
C506 C507 1.362 . S
C507 H497 0.930 . S
C507 C500 1.427 . S
C507 C506 1.362 . S
H508 C514 0.930 . S
H509 C517 0.930 . S
H510 C518 0.930 . S
H511 C519 0.930 . S
H512 C522 0.930 . S
H513 C523 0.930 . S
C514 H508 0.930 . S
C514 C515 1.355 . S
C514 C516 1.415 . S
C515 C514 1.355 . S
C515 C517 1.419 . S
C516 C514 1.415 . S
C516 C521 1.425 1_545 S
C516 C523 1.409 . S
C517 H509 0.930 . S
C517 C515 1.419 . S
C517 C518 1.362 1_545 S
C518 H510 0.930 . S
C518 C517 1.362 1_565 S
C518 C521 1.409 . S
C519 H511 0.930 . S
C519 C520 1.355 . S
C519 C521 1.415 . S
C520 C519 1.355 . S
C520 C522 1.419 . S
C521 C516 1.425 1_565 S
C521 C518 1.409 . S
C521 C519 1.415 . S
C522 H512 0.930 . S
C522 C520 1.419 . S
C522 C523 1.362 1_565 S
C523 H513 0.930 . S
C523 C516 1.409 . S
C523 C522 1.362 1_545 S
H524 C530 0.930 . S
H525 C533 0.930 . S
H526 C534 0.930 . S
H527 C535 0.930 . S
H528 C538 0.930 . S
H529 C539 0.930 . S
C530 H524 0.930 . S
C530 C531 1.355 . S
C530 C532 1.415 . S
C531 C530 1.355 . S
C531 C533 1.419 . S
C532 C530 1.415 . S
C532 C537 1.425 . S
C532 C539 1.409 . S
C533 H525 0.930 . S
C533 C531 1.419 . S
C533 C534 1.362 . S
C534 H526 0.930 . S
C534 C533 1.362 . S
C534 C537 1.409 . S
C535 H527 0.930 . S
C535 C536 1.355 . S
C535 C537 1.415 . S
C536 C535 1.355 . S
C536 C538 1.419 . S
C537 C532 1.425 . S
C537 C534 1.409 . S
C537 C535 1.415 . S
C538 H528 0.930 . S
C538 C536 1.419 . S
C538 C539 1.362 . S
C539 H529 0.930 . S
C539 C532 1.409 . S
C539 C538 1.362 . S
C163 C5 1.141 . S
C168 C135 1.149 . S
C179 C148 1.209 . S
C184 C13 1.148 . S
C195 C31 1.209 . S
C200 C78 1.146 . S
C211 C44 1.205 . S
C216 C96 1.140 . S
C227 C52 1.162 . S
C232 C109 1.118 . S
C243 C117 1.217 . S
C248 C70 1.107 1_554 S
C259 C8 1.513 . S
C264 C112 1.494 . S
C275 C23 1.552 . S
C280 C127 1.562 . S
C291 C138 1.531 . S
C296 C34 1.547 . S
C307 C47 1.509 . S
C312 C151 1.492 . S
C323 C62 1.562 . S
C328 C88 1.557 . S
C339 C73 1.519 . S
C344 C99 1.501 1_556 S
C355 C140 1.181 . S
C360 C10 1.174 . S
C371 C21 1.119 . S
C376 C153 1.158 . S
C387 C36 1.140 . S
C392 C86 1.119 1_554 S
C403 C49 1.169 . S
C408 C101 1.185 . S
C419 C114 1.145 . S
C424 C60 1.145 . S
C435 C75 1.144 . S
C440 C125 1.143 . S
C451 C0 1.429 . S
C456 C143 1.427 . S
C467 C83 1.361 . S
C472 C18 1.359 . S
C483 C91 1.453 . S
C488 C26 1.454 . S
C499 C104 1.371 . S
C504 C39 1.372 . S
C515 C122 1.402 . S
C520 C57 1.441 . S
C531 C130 1.405 . S
C536 C65 1.403 . S
