# Generated by pormake.
# Topology kag, (6)-cn, num edge types: 1
# Building blocks:
#     Node 0, Type 0, BuildingBlock: HISSIN_clean_sbu_0, # of connection points: 6
#     Node 1, Type 0, BuildingBlock: HISSIN_clean_sbu_0, # of connection points: 6
#     Node 2, Type 0, BuildingBlock: HISSIN_clean_sbu_0, # of connection points: 6
#     Edge 3, Type (0, 0), BuildingBlock: TEMPAE_clean_linker_10, # of connection points: 2
#     Edge 4, Type (0, 0), BuildingBlock: TEMPAE_clean_linker_10, # of connection points: 2
#     Edge 5, Type (0, 0), BuildingBlock: TEMPAE_clean_linker_10, # of connection points: 2
#     Edge 6, Type (0, 0), BuildingBlock: TEMPAE_clean_linker_10, # of connection points: 2
#     Edge 7, Type (0, 0), BuildingBlock: TEMPAE_clean_linker_10, # of connection points: 2
#     Edge 8, Type (0, 0), BuildingBlock: TEMPAE_clean_linker_10, # of connection points: 2
#     Edge 9, Type (0, 0), BuildingBlock: TEMPAE_clean_linker_10, # of connection points: 2
#     Edge 10, Type (0, 0), BuildingBlock: TEMPAE_clean_linker_10, # of connection points: 2
#     Edge 11, Type (0, 0), BuildingBlock: TEMPAE_clean_linker_10, # of connection points: 2
# Relax obj value: 0.077
# Max RMSD: 0.187
# Mean RMSD: 0.109
data_MOF--net-kag--node1-HISSIN_clean_sbu_0--edge1-TEMPAE_clean_linker_10
_symmetry_space_group_name_H-M    P1
_symmetry_Int_Tables_number       1
_symmetry_cell_setting            triclinic
loop_
_symmetry_equiv_pos_as_xyz
'x, y, z'
_cell_length_a     42.873756
_cell_length_b     31.741742
_cell_length_c     15.521096
_cell_angle_alpha  92.448121
_cell_angle_beta   95.184421
_cell_angle_gamma 97.333205
loop_
_atom_site_label
_atom_site_type_symbol
_atom_site_fract_x
_atom_site_fract_y
_atom_site_fract_z
_atom_type_partial_charge
Eu0 Eu 1.00931 0.49903 0.95937 0.0
Eu1 Eu 0.02089 0.60314 0.97125 0.0
C2 C 0.01644 0.55094 0.14011 0.0
C3 C 0.96605 0.38998 0.97159 0.0
C4 C 0.94571 0.40639 0.02649 0.0
C5 C 0.92845 0.32595 0.94296 0.0
C6 C 0.91691 0.38274 0.03956 0.0
C7 C 0.95736 0.34956 0.93036 0.0
C8 C 0.90773 0.34239 -0.00282 0.0
C9 C 0.99469 0.41665 0.95085 0.0
O10 O 0.06823 0.58353 0.94613 0.0
O11 O 0.06238 0.51506 -0.00945 0.0
C12 C 0.08035 0.54922 0.96943 0.0
O13 O 0.02487 0.51971 0.83154 0.0
O14 O 0.02996 0.66394 0.0471 0.0
O15 O 0.02687 0.66301 0.90727 0.0
O16 O 1.00295 0.58126 0.83338 0.0
C17 C 0.01391 0.55074 0.79049 0.0
O18 O 0.96088 0.51957 0.93214 0.0
O19 O 0.9693 0.58779 -0.00691 0.0
O20 O 0.03401 0.58081 0.10412 0.0
O21 O 0.99052 0.4401 0.88484 0.0
O22 O 1.01203 0.43774 0.01619 0.0
O23 O 0.99864 0.52067 0.09201 0.0
C24 C 0.06604 0.71279 0.98429 0.0
C25 C 0.0908 0.69957 0.94101 0.0
C26 C 0.10102 0.77575 0.04272 0.0
C27 C 0.12034 0.72427 0.94819 0.0
C28 C 0.07133 0.75102 0.03522 0.0
C29 C 0.12588 0.76255 -0.00057 0.0
C30 C 0.03529 0.68575 0.97948 0.0
C31 C 0.95009 0.55359 0.96296 0.0
H32 H 0.95182 0.43787 0.05799 0.0
H33 H 0.92194 0.29535 0.9081 0.0
H34 H 0.90177 0.39621 0.0825 0.0
H35 H 0.97255 0.33674 0.88664 0.0
H36 H 0.08736 0.67005 0.9016 0.0
H37 H 0.10464 0.80488 0.08338 0.0
H38 H 0.13876 0.71358 0.91273 0.0
H39 H 0.05262 0.7615 0.06981 0.0
Eu40 Eu 0.55491 0.05725 -0.00571 0.0
Eu41 Eu 0.47806 1.04697 0.97499 0.0
C42 C 0.51608 1.05104 0.81069 0.0
C43 C 0.64329 0.10207 0.01713 0.0
C44 C 0.64293 0.13863 0.9692 0.0
C45 C 0.69685 0.12826 0.07762 0.0
C46 C 0.66965 0.1692 0.97382 0.0
C47 C 0.67024 0.09749 0.07234 0.0
C48 C 0.69704 0.16399 0.0271 0.0
C49 C 0.61671 0.06732 0.00654 0.0
O50 O 0.4898 0.97957 0.95175 0.0
O51 O 0.54031 0.98771 0.01907 0.0
C52 C 0.51453 0.96311 -0.01411 0.0
O53 O 0.53957 0.07531 0.1246 0.0
O54 O 0.43344 1.02861 0.8961 0.0
O55 O 0.43338 0.05506 0.02735 0.0
O56 O 0.49338 1.03047 0.11048 0.0
C57 C 0.51659 0.05296 0.15961 0.0
O58 O 0.54349 0.12367 0.96582 0.0
O59 O 0.49326 0.11764 0.00827 0.0
O60 O 0.49454 0.06862 0.84859 0.0
O61 O 0.60042 0.06042 0.07267 0.0
O62 O 0.59885 0.06421 0.93341 0.0
O63 O 0.5374 1.03347 0.8573 0.0
C64 C 0.38969 1.00434 0.97308 0.0
C65 C 0.3671 1.01479 0.02755 0.0
C66 C 0.35892 0.93476 0.93984 0.0
C67 C 0.34055 0.98563 0.03776 0.0
C68 C 0.38559 0.9638 0.93017 0.0
C69 C 0.33596 0.94556 -0.00701 0.0
C70 C 0.41634 1.03678 0.9587 0.0
C71 C 0.51884 0.14119 -0.01243 0.0
H72 H 0.62229 0.14312 0.92666 0.0
H73 H 0.71772 0.12326 0.11869 0.0
H74 H 0.66905 0.19668 0.93494 0.0
H75 H 0.671 0.06952 0.10975 0.0
H76 H 0.36968 1.04589 0.06099 0.0
H77 H 0.35613 0.90393 0.90528 0.0
H78 H 0.3231 0.99497 0.07849 0.0
H79 H 0.40269 0.95468 0.88804 0.0
Eu80 Eu 0.4771 0.54292 -0.01478 0.0
Eu81 Eu 0.55615 0.56154 0.00261 0.0
C82 C 0.51804 0.55317 0.16718 0.0
C83 C 0.3827 0.53713 0.96613 0.0
C84 C 0.3724 0.57007 0.01525 0.0
C85 C 0.32806 0.51496 0.90702 0.0
C86 C 0.34019 0.57491 0.01133 0.0
C87 C 0.36021 0.51018 0.91094 0.0
C88 C 0.31743 0.54683 0.95855 0.0
C89 C 0.41537 0.52601 0.98116 0.0
O90 O 0.54495 0.49024 0.01773 0.0
O91 O 0.49306 0.47829 0.95855 0.0
C92 C 0.51953 0.46409 -0.01296 0.0
O93 O 0.49164 0.56296 0.85519 0.0
O94 O 0.60203 0.55685 0.07345 0.0
O95 O 0.59996 0.59101 0.95542 0.0
O96 O 0.53971 0.53821 0.86479 0.0
C97 C 0.51566 0.55057 0.8184 0.0
O98 O 0.48817 0.61477 0.01138 0.0
O99 O 0.53959 0.62545 0.97615 0.0
O100 O 0.53945 0.5783 0.13194 0.0
O101 O 0.43102 0.51743 0.91558 0.0
O102 O 0.43371 0.54393 0.04788 0.0
O103 O 0.4966 0.52753 0.11814 0.0
C104 C 0.64945 0.56627 -0.00064 0.0
C105 C 0.66749 0.59069 0.94349 0.0
C106 C 0.695 0.52911 0.03611 0.0
C107 C 0.69893 0.58487 0.93482 0.0
C108 C 0.66349 0.535 0.04485 0.0
C109 C 0.71339 0.5545 0.98211 0.0
C110 C 0.61815 0.57814 0.01824 0.0
C111 C 0.5133 0.64024 -0.00669 0.0
H112 H 0.38905 0.59127 0.05893 0.0
H113 H 0.31138 0.49237 0.86638 0.0
H114 H 0.33307 0.60027 0.05088 0.0
H115 H 0.36733 0.48406 0.87346 0.0
H116 H 0.65765 0.61562 0.90882 0.0
H117 H 0.70509 0.505 0.0727 0.0
H118 H 0.71229 0.60552 0.89363 0.0
H119 H 0.65046 0.51587 0.08918 0.0
C120 C 0.03118 0.52374 0.65105 0.0
C121 C 0.01428 0.55146 0.69516 0.0
C122 C 0.03204 0.52417 0.56091 0.0
C123 C 0.01532 0.55269 0.51346 0.0
C124 C 0.99816 0.58071 0.55749 0.0
C125 C 0.99799 0.57993 0.64789 0.0
C126 C 0.05087 0.49407 0.51644 0.0
C127 C 0.97977 0.61128 0.509 0.0
C128 C 0.03871 0.57918 0.28938 0.0
C129 C 0.01624 0.55162 0.2356 0.0
C130 C 0.03871 0.57988 0.37996 0.0
C131 C 0.01546 0.55273 0.41756 0.0
C132 C 0.99255 0.52512 0.36357 0.0
C133 C 0.99332 0.52473 0.27334 0.0
C134 C 0.06373 0.60944 0.43546 0.0
C135 C 0.96719 0.49598 0.40112 0.0
H136 H 0.04402 0.50182 0.68707 0.0
H137 H 0.98481 0.60139 0.68141 0.0
H138 H 0.03504 0.47242 0.46861 0.0
H139 H 0.06877 0.51229 0.48025 0.0
H140 H 0.06314 0.47454 0.5629 0.0
H141 H 0.96765 0.631 0.5528 0.0
H142 H 0.99583 0.63273 0.47308 0.0
H143 H 0.96178 0.59339 0.46049 0.0
H144 H 0.05654 0.59998 0.26078 0.0
H145 H 0.97573 0.5035 0.2323 0.0
H146 H 0.07769 0.59079 0.47971 0.0
H147 H 0.05247 0.63146 0.47646 0.0
H148 H 0.08013 0.62856 0.3962 0.0
H149 H 0.97817 0.4737 0.44388 0.0
H150 H 0.9507 0.4771 0.35018 0.0
H151 H 0.95336 0.51487 0.44158 0.0
C152 C 0.53857 0.08154 0.30892 0.0
C153 C 0.51687 0.05283 0.25522 0.0
C154 C 0.5389 0.08178 0.39955 0.0
C155 C 0.51723 0.05234 0.43743 0.0
C156 C 0.49543 1.02311 0.38359 0.0
C157 C 0.49541 1.02384 0.29321 0.0
C158 C 0.56231 0.1137 0.45479 0.0
C159 C 0.47213 0.99098 0.42148 0.0
C160 C 0.53605 1.02705 0.67235 0.0
C161 C 0.51645 1.05136 0.71528 0.0
C162 C 0.53653 1.02703 0.58196 0.0
C163 C 0.51718 0.05226 0.5334 0.0
C164 C 0.49753 0.07711 0.57643 0.0
C165 C 0.49728 0.07619 0.66674 0.0
C166 C 0.55758 0.99979 0.53833 0.0
C167 C 0.47677 0.10472 0.52704 0.0
H168 H 0.55517 0.10413 0.28017 0.0
H169 H 0.47866 1.0014 0.2523 0.0
H170 H 0.54958 0.13396 0.49566 0.0
H171 H 0.57769 0.09694 0.49914 0.0
H172 H 0.5775 0.13456 0.41532 0.0
H173 H 0.45705 0.97 0.37076 0.0
H174 H 0.48493 0.97084 0.46528 0.0
H175 H 0.45662 1.00759 0.46093 0.0
H176 H 0.55088 1.00768 0.70929 0.0
H177 H 0.48218 0.09526 0.69937 0.0
H178 H 0.5745 1.01996 0.50247 0.0
H179 H 0.54313 0.9767 0.49029 0.0
H180 H 0.57115 0.98193 0.58529 0.0
H181 H 0.49141 0.12768 0.49042 0.0
H182 H 0.46329 0.12275 0.57031 0.0
H183 H 0.45977 0.08477 0.47908 0.0
C184 C 0.49445 0.57226 0.67326 0.0
C185 C 0.51594 0.55103 0.72284 0.0
C186 C 0.49492 0.57358 0.58297 0.0
C187 C 0.51716 0.55275 0.541 0.0
C188 C 0.53879 0.53109 0.59061 0.0
C189 C 0.53804 0.53069 0.68087 0.0
C190 C 0.47165 0.59735 0.53247 0.0
C191 C 0.56262 0.50807 0.54824 0.0
C192 C 0.49876 0.52146 0.30076 0.0
C193 C 0.51809 0.55315 0.26284 0.0
C194 C 0.49834 0.52089 0.39106 0.0
C195 C 0.51747 0.55303 0.44501 0.0
C196 C 0.53696 0.58521 0.40723 0.0
C197 C 0.53716 0.58477 0.31664 0.0
C198 C 0.47748 0.48576 0.42875 0.0
C199 C 0.55749 0.62024 0.46253 0.0
H200 H 0.47743 0.5883 0.70509 0.0
H201 H 0.55467 0.51407 0.71849 0.0
H202 H 0.48449 0.6223 0.49613 0.0
H203 H 0.45641 0.57525 0.48418 0.0
H204 H 0.45632 0.61262 0.57495 0.0
H205 H 0.57778 0.49268 0.59593 0.0
H206 H 0.55024 0.48329 0.50005 0.0
H207 H 0.57799 0.53066 0.51277 0.0
H208 H 0.48402 0.49678 0.25985 0.0
H209 H 0.55207 0.60947 0.28796 0.0
H210 H 0.46025 0.49951 0.46714 0.0
H211 H 0.49201 0.46805 0.47351 0.0
H212 H 0.46425 0.46291 0.37799 0.0
H213 H 0.54266 0.63781 0.50245 0.0
H214 H 0.571 0.6432 0.42316 0.0
H215 H 0.57444 0.6064 0.5078 0.0
C216 C 0.12908 0.51193 0.98279 0.0
C217 C 0.11526 0.54926 0.97002 0.0
C218 C 0.16192 0.51171 0.98157 0.0
C219 C 0.18162 0.54976 0.96769 0.0
C220 C 0.16786 0.58762 0.95569 0.0
C221 C 0.13499 0.58689 0.9568 0.0
C222 C 0.17553 0.47062 -0.00544 0.0
C223 C 0.18787 0.62899 0.94147 0.0
C224 C 0.27007 0.55787 0.03854 0.0
C225 C 0.28274 0.54928 0.96019 0.0
C226 C 0.23738 0.55835 0.04185 0.0
C227 C 0.21656 0.54992 0.96505 0.0
C228 C 0.22917 0.54164 0.88564 0.0
C229 C 0.26197 0.54146 0.88415 0.0
C230 C 0.22506 0.56741 0.12791 0.0
C231 C 0.20795 0.53275 0.80209 0.0
H232 H 0.11421 0.48266 -0.00702 0.0
H233 H 0.12479 0.61605 0.94739 0.0
H234 H 0.18743 0.46204 0.93695 0.0
H235 H 0.19368 0.47464 0.051 0.0
H236 H 0.15719 0.44386 0.00541 0.0
H237 H 0.17361 0.65562 0.93292 0.0
H238 H 0.20589 0.63759 -0.00255 0.0
H239 H 0.20071 0.62538 0.88321 0.0
H240 H 0.28566 0.56328 0.09802 0.0
H241 H 0.27138 0.53535 0.82302 0.0
H242 H 0.20844 0.53976 0.14393 0.0
H243 H 0.2117 0.5951 0.12411 0.0
H244 H 0.24431 0.57415 0.18147 0.0
H245 H 0.19027 0.50449 0.80761 0.0
H246 H 0.22135 0.52692 0.74572 0.0
H247 H 0.19472 0.56004 0.78937 0.0
C248 C 0.74436 0.2096 0.10355 0.0
C249 C 0.72638 0.19424 0.02605 0.0
C250 C 0.77323 0.236 0.10275 0.0
C251 C 0.78453 0.24672 0.02248 0.0
C252 C 0.76616 0.23193 0.94409 0.0
C253 C 0.73723 0.20605 0.94686 0.0
C254 C 0.79192 0.25172 0.18766 0.0
C255 C 0.77754 0.24227 0.85719 0.0
C256 C 0.84947 0.33911 0.01015 0.0
C257 C 0.87631 0.3181 0.00736 0.0
C258 C 0.81954 0.31644 0.01697 0.0
C259 C 0.81627 0.27161 0.02009 0.0
C260 C 0.84325 0.25024 0.01817 0.0
C261 C 0.87294 0.27374 0.01235 0.0
C262 C 0.79135 0.3404 0.01942 0.0
C263 C 0.84071 0.20242 0.02093 0.0
H264 H 0.73587 0.20081 0.16486 0.0
H265 H 0.72356 0.19381 0.8868 0.0
H266 H 0.81461 0.23826 0.19343 0.0
H267 H 0.79772 0.28686 0.18991 0.0
H268 H 0.77893 0.24277 0.24433 0.0
H269 H 0.75986 0.22973 0.80238 0.0
H270 H 0.78301 0.2772 0.85319 0.0
H271 H 0.79971 0.22845 0.8496 0.0
H272 H 0.85169 0.37328 0.00513 0.0
H273 H 0.89357 0.25729 0.01176 0.0
H274 H 0.77883 0.33245 0.07731 0.0
H275 H 0.77439 0.33069 0.96161 0.0
H276 H 0.79814 0.37542 0.0209 0.0
H277 H 0.83018 0.19191 0.08039 0.0
H278 H 0.86401 0.1907 0.01969 0.0
H279 H 0.8248 0.18724 0.96471 0.0
C280 C 0.49196 0.88826 0.92969 0.0
C281 C 0.51334 0.9156 -0.0126 0.0
C282 C 0.49113 0.84355 0.92939 0.0
C283 C 0.51161 0.82515 -0.0103 0.0
C284 C 0.53281 0.85261 0.04922 0.0
C285 C 0.53369 0.89722 0.04663 0.0
C286 C 0.46864 0.81596 0.86332 0.0
C287 C 0.55461 0.83483 0.11607 0.0
C288 C 0.49087 0.7073 0.03753 0.0
C289 C 0.5122 0.68736 -0.00862 0.0
C290 C 0.49052 0.75185 0.03803 0.0
C291 C 0.51142 0.77741 -0.01056 0.0
C292 C 0.53252 0.75727 0.94133 0.0
C293 C 0.53293 0.71289 0.94376 0.0
C294 C 0.46808 0.7717 0.09191 0.0
C295 C 0.55473 0.78264 0.88684 0.0
H296 H 0.4762 0.90188 0.88331 0.0
H297 H 0.55014 0.91778 0.09212 0.0
H298 H 0.48209 0.79661 0.82263 0.0
H299 H 0.45233 0.79351 0.89641 0.0
H300 H 0.4544 0.83495 0.8204 0.0
H301 H 0.5686 0.86012 0.16047 0.0
H302 H 0.54071 0.81221 0.15514 0.0
H303 H 0.57118 0.81685 0.08348 0.0
H304 H 0.47486 0.68815 0.07499 0.0
H305 H 0.54936 0.69803 0.90718 0.0
H306 H 0.45204 0.7887 0.05005 0.0
H307 H 0.4816 0.7956 0.14009 0.0
H308 H 0.45356 0.74776 0.12681 0.0
H309 H 0.54116 0.80062 0.84021 0.0
H310 H 0.56869 0.76218 0.8501 0.0
H311 H 0.57133 0.80625 0.92875 0.0
C312 C 0.8949 0.51417 0.94989 0.0
C313 C 0.91523 0.55273 0.96469 0.0
C314 C 0.86202 0.51255 0.95258 0.0
C315 C 0.84888 0.55043 0.96998 0.0
C316 C 0.86924 0.58945 0.98486 0.0
C317 C 0.90208 0.5901 0.98243 0.0
C318 C 0.84138 0.47015 0.93748 0.0
C319 C 0.85631 0.63062 0.00324 0.0
C320 C 0.76172 0.55551 0.89968 0.0
C321 C 0.74783 0.55095 0.97798 0.0
C322 C 0.79437 0.55488 0.89599 0.0
C323 C 0.81387 0.5494 0.97233 0.0
C324 C 0.79995 0.54386 0.0512 0.0
C325 C 0.76725 0.5448 0.05312 0.0
C326 C 0.80809 0.56064 0.8104 0.0
C327 C 0.81975 0.53778 0.13411 0.0
H328 H 0.90471 0.48496 0.93706 0.0
H329 H 0.91746 0.62005 -0.00603 0.0
H330 H 0.82945 0.4624 -0.00357 0.0
H331 H 0.82263 0.47167 0.88398 0.0
H332 H 0.85506 0.44391 0.92124 0.0
H333 H 0.87518 0.65829 0.01323 0.0
H334 H 0.83918 0.63658 0.94857 0.0
H335 H 0.84337 0.62835 0.06197 0.0
H336 H 0.74702 0.55959 0.84088 0.0
H337 H 0.75704 0.54185 0.1143 0.0
H338 H 0.82043 0.53312 0.79398 0.0
H339 H 0.82589 0.58948 0.8153 0.0
H340 H 0.78976 0.56384 0.75662 0.0
H341 H 0.83303 0.51036 0.12533 0.0
H342 H 0.80525 0.53222 0.18935 0.0
H343 H 0.83738 0.56634 0.15087 0.0
C344 C 0.15998 0.833 0.00196 0.0
C345 C 0.15744 0.78868 0.00641 0.0
C346 C 0.18959 0.85781 0.00389 0.0
C347 C 0.21735 0.83782 0.01034 0.0
C348 C 0.215 0.7932 0.0167 0.0
C349 C 0.18508 0.76918 0.01477 0.0
C350 C 0.19114 0.90532 -0.0032 0.0
C351 C 0.24405 0.77074 0.02404 0.0
C352 C 0.28956 0.89641 0.92272 0.0
C353 C 0.30654 0.91601 -0.00155 0.0
C354 C 0.26074 0.87036 0.92589 0.0
C355 C 0.2487 0.86351 0.00686 0.0
C356 C 0.26609 0.88239 0.08379 0.0
C357 C 0.29476 0.90862 0.07862 0.0
C358 C 0.24279 0.85101 0.84236 0.0
C359 C 0.25418 0.87542 0.17135 0.0
H360 H 0.13873 0.84823 -0.00546 0.0
H361 H 0.18332 0.73501 0.01968 0.0
H362 H 0.20658 0.92226 0.05208 0.0
H363 H 0.20169 0.91474 0.93665 0.0
H364 H 0.16747 0.91614 -0.00429 0.0
H365 H 0.23821 0.73603 0.03135 0.0
H366 H 0.25683 0.77542 0.96542 0.0
H367 H 0.26044 0.78457 0.08046 0.0
H368 H 0.2984 0.90246 0.86053 0.0
H369 H 0.308 0.9234 0.13735 0.0
H370 H 0.21963 0.86314 0.83304 0.0
H371 H 0.23793 0.81595 0.84534 0.0
H372 H 0.25587 0.85837 0.78508 0.0
H373 H 0.23149 0.88849 0.17438 0.0
H374 H 0.27122 0.89076 0.22522 0.0
H375 H 0.24951 0.84086 0.18134 0.0
C376 C 0.5421 0.39927 0.04244 0.0
C377 C 0.52046 0.41688 -0.01437 0.0
C378 C 0.54235 0.35478 0.04406 0.0
C379 C 0.521 0.32676 -0.01405 0.0
C380 C 0.49954 0.34446 0.92724 0.0
C381 C 0.49925 0.38897 0.92858 0.0
C382 C 0.56516 0.3377 0.10924 0.0
C383 C 0.47685 0.31629 0.86258 0.0
C384 C 0.54057 0.21347 0.93943 0.0
C385 C 0.51974 0.18871 -0.01197 0.0
C386 C 0.54105 0.25807 0.93755 0.0
C387 C 0.5208 0.27907 -0.01279 0.0
C388 C 0.50013 0.25428 0.03759 0.0
C389 C 0.49956 0.20962 0.03651 0.0
C390 C 0.56298 0.28268 0.88123 0.0
C391 C 0.47863 0.27499 0.09325 0.0
H392 H 0.55845 0.42029 0.08735 0.0
H393 H 0.48254 0.40201 0.88395 0.0
H394 H 0.55193 0.31597 0.15139 0.0
H395 H 0.58093 0.31889 0.07542 0.0
H396 H 0.57997 0.36343 0.15078 0.0
H397 H 0.46264 0.33488 0.81869 0.0
H398 H 0.49006 0.29617 0.82279 0.0
H399 H 0.46049 0.29457 0.89709 0.0
H400 H 0.55615 0.19785 0.90123 0.0
H401 H 0.48351 0.19106 0.07484 0.0
H402 H 0.57962 0.30693 0.92149 0.0
H403 H 0.54913 0.29989 0.83375 0.0
H404 H 0.57687 0.26179 0.84534 0.0
H405 H 0.49275 0.29967 0.13867 0.0
H406 H 0.46488 0.2517 0.13138 0.0
H407 H 0.46186 0.29118 0.05202 0.0
loop_
_geom_bond_atom_site_label_1
_geom_bond_atom_site_label_2
_geom_bond_distance
_geom_bond_site_symmetry_2
_ccdc_geom_bond_type
Eu0 C9 2.828 . S
Eu0 O11 2.392 1_655 S
Eu0 O13 2.418 . S
Eu0 O18 2.373 . S
Eu0 O21 2.488 . S
Eu0 O22 2.471 1_556 S
Eu0 O23 2.349 1_556 S
Eu1 O10 2.373 . S
Eu1 O14 2.488 . S
Eu1 O15 2.471 1_554 S
Eu1 O16 2.349 1_554 S
Eu1 O19 2.392 1_455 S
Eu1 O20 2.418 . S
Eu1 C30 2.828 . S
C2 O20 1.244 . S
C2 O23 1.265 1_455 S
C3 C4 1.386 . S
C3 C7 1.367 1_554 S
C3 C9 1.503 1_554 S
C4 C3 1.386 . S
C4 C6 1.369 . S
C4 H32 0.930 . S
C5 C7 1.383 . S
C5 C8 1.382 1_556 S
C5 H33 0.930 . S
C6 C4 1.369 . S
C6 C8 1.392 . S
C6 H34 0.930 . S
C7 C3 1.367 1_556 S
C7 C5 1.383 . S
C7 H35 0.931 . S
C8 C5 1.382 1_554 S
C8 C6 1.392 . S
C9 Eu0 2.828 . S
C9 C3 1.503 1_556 S
C9 O21 1.249 . S
C9 O22 1.244 1_556 S
O10 Eu1 2.373 . S
O10 C12 1.258 . S
O11 Eu0 2.392 1_455 S
O11 C12 1.242 1_556 S
C12 O10 1.258 . S
C12 O11 1.242 1_554 S
O13 Eu0 2.418 . S
O13 C17 1.244 . S
O14 Eu1 2.488 . S
O14 C30 1.249 . S
O15 Eu1 2.471 1_556 S
O15 C30 1.244 1_556 S
O16 Eu1 2.349 1_556 S
O16 C17 1.265 1_455 S
C17 O13 1.244 . S
C17 O16 1.265 1_655 S
O18 Eu0 2.373 . S
O18 C31 1.258 . S
O19 Eu1 2.392 1_655 S
O19 C31 1.242 1_554 S
O20 Eu1 2.418 . S
O20 C2 1.244 . S
O21 Eu0 2.488 . S
O21 C9 1.249 . S
O22 Eu0 2.471 1_554 S
O22 C9 1.244 1_554 S
O23 Eu0 2.349 1_554 S
O23 C2 1.265 1_655 S
C24 C25 1.380 1_554 S
C24 C28 1.372 . S
C24 C30 1.505 . S
C25 C24 1.380 1_556 S
C25 C27 1.369 . S
C25 H36 0.930 . S
C26 C28 1.383 . S
C26 C29 1.382 1_554 S
C26 H37 0.930 . S
C27 C25 1.369 . S
C27 C29 1.392 . S
C27 H38 0.930 . S
C28 C24 1.372 . S
C28 C26 1.383 . S
C28 H39 0.931 . S
C29 C26 1.382 1_556 S
C29 C27 1.392 . S
C30 Eu1 2.828 . S
C30 O14 1.249 . S
C30 O15 1.244 1_554 S
C30 C24 1.505 . S
C31 O18 1.258 . S
C31 O19 1.242 1_556 S
H32 C4 0.930 . S
H33 C5 0.930 . S
H34 C6 0.930 . S
H35 C7 0.931 . S
H36 C25 0.930 . S
H37 C26 0.930 . S
H38 C27 0.930 . S
H39 C28 0.931 . S
Eu40 C49 2.828 . S
Eu40 O51 2.392 1_545 S
Eu40 O53 2.418 . S
Eu40 O58 2.373 . S
Eu40 O61 2.488 . S
Eu40 O62 2.471 1_554 S
Eu40 O63 2.349 1_554 S
Eu41 O50 2.373 . S
Eu41 O54 2.488 . S
Eu41 O55 2.471 1_556 S
Eu41 O56 2.349 1_556 S
Eu41 O59 2.392 1_565 S
Eu41 O60 2.418 . S
Eu41 C70 2.828 . S
C42 O60 1.244 . S
C42 O63 1.265 1_565 S
C43 C44 1.379 1_554 S
C43 C47 1.373 . S
C43 C49 1.505 . S
C44 C43 1.379 1_556 S
C44 C46 1.369 . S
C44 H72 0.930 . S
C45 C47 1.383 . S
C45 C48 1.382 1_554 S
C45 H73 0.930 . S
C46 C44 1.369 . S
C46 C48 1.392 . S
C46 H74 0.930 . S
C47 C43 1.373 . S
C47 C45 1.383 . S
C47 H75 0.931 . S
C48 C45 1.382 1_556 S
C48 C46 1.392 . S
C49 Eu40 2.828 . S
C49 C43 1.505 . S
C49 O61 1.249 . S
C49 O62 1.244 1_554 S
O50 Eu41 2.373 . S
O50 C52 1.258 . S
O51 Eu40 2.392 1_565 S
O51 C52 1.242 1_554 S
C52 O50 1.258 . S
C52 O51 1.242 1_556 S
O53 Eu40 2.418 . S
O53 C57 1.244 . S
O54 Eu41 2.488 . S
O54 C70 1.249 . S
O55 Eu41 2.471 1_554 S
O55 C70 1.244 1_554 S
O56 Eu41 2.349 1_554 S
O56 C57 1.265 1_565 S
C57 O53 1.244 . S
C57 O56 1.265 1_545 S
O58 Eu40 2.373 . S
O58 C71 1.258 . S
O59 Eu41 2.392 1_545 S
O59 C71 1.242 1_556 S
O60 Eu41 2.418 . S
O60 C42 1.244 . S
O61 Eu40 2.488 . S
O61 C49 1.249 . S
O62 Eu40 2.471 1_556 S
O62 C49 1.244 1_556 S
O63 Eu40 2.349 1_556 S
O63 C42 1.265 1_545 S
C64 C65 1.379 1_556 S
C64 C68 1.373 . S
C64 C70 1.505 . S
C65 C64 1.379 1_554 S
C65 C67 1.369 . S
C65 H76 0.930 . S
C66 C68 1.383 . S
C66 C69 1.382 1_556 S
C66 H77 0.930 . S
C67 C65 1.369 . S
C67 C69 1.392 . S
C67 H78 0.930 . S
C68 C64 1.373 . S
C68 C66 1.383 . S
C68 H79 0.931 . S
C69 C66 1.382 1_554 S
C69 C67 1.392 . S
C70 Eu41 2.828 . S
C70 O54 1.249 . S
C70 O55 1.244 1_556 S
C70 C64 1.505 . S
C71 O58 1.258 . S
C71 O59 1.242 1_554 S
H72 C44 0.930 . S
H73 C45 0.930 . S
H74 C46 0.930 . S
H75 C47 0.931 . S
H76 C65 0.930 . S
H77 C66 0.930 . S
H78 C67 0.930 . S
H79 C68 0.931 . S
Eu80 C89 2.828 . S
Eu80 O91 2.392 . S
Eu80 O93 2.418 . S
Eu80 O98 2.373 . S
Eu80 O101 2.488 . S
Eu80 O102 2.471 1_556 S
Eu80 O103 2.349 1_556 S
Eu81 O90 2.373 . S
Eu81 O94 2.488 . S
Eu81 O95 2.471 1_554 S
Eu81 O96 2.349 1_554 S
Eu81 O99 2.392 . S
Eu81 O100 2.418 . S
Eu81 C110 2.828 . S
C82 O100 1.244 . S
C82 O103 1.265 . S
C83 C84 1.379 1_556 S
C83 C87 1.373 . S
C83 C89 1.505 . S
C84 C83 1.379 1_554 S
C84 C86 1.369 . S
C84 H112 0.930 . S
C85 C87 1.383 . S
C85 C88 1.382 1_556 S
C85 H113 0.930 . S
C86 C84 1.369 . S
C86 C88 1.392 . S
C86 H114 0.930 . S
C87 C83 1.373 . S
C87 C85 1.383 . S
C87 H115 0.931 . S
C88 C85 1.382 1_554 S
C88 C86 1.392 . S
C89 Eu80 2.828 . S
C89 C83 1.505 . S
C89 O101 1.249 . S
C89 O102 1.244 1_556 S
O90 Eu81 2.373 . S
O90 C92 1.258 . S
O91 Eu80 2.392 . S
O91 C92 1.242 1_556 S
C92 O90 1.258 . S
C92 O91 1.242 1_554 S
O93 Eu80 2.418 . S
O93 C97 1.244 . S
O94 Eu81 2.488 . S
O94 C110 1.249 . S
O95 Eu81 2.471 1_556 S
O95 C110 1.244 1_556 S
O96 Eu81 2.349 1_556 S
O96 C97 1.265 . S
C97 O93 1.244 . S
C97 O96 1.265 . S
O98 Eu80 2.373 . S
O98 C111 1.260 . S
O99 Eu81 2.392 . S
O99 C111 1.240 1_554 S
O100 Eu81 2.418 . S
O100 C82 1.244 . S
O101 Eu80 2.488 . S
O101 C89 1.249 . S
O102 Eu80 2.471 1_554 S
O102 C89 1.244 1_554 S
O103 Eu80 2.349 1_554 S
O103 C82 1.265 . S
C104 C105 1.379 1_554 S
C104 C108 1.373 . S
C104 C110 1.505 . S
C105 C104 1.379 1_556 S
C105 C107 1.369 . S
C105 H116 0.930 . S
C106 C108 1.383 . S
C106 C109 1.382 1_554 S
C106 H117 0.930 . S
C107 C105 1.369 . S
C107 C109 1.392 . S
C107 H118 0.930 . S
C108 C104 1.373 . S
C108 C106 1.383 . S
C108 H119 0.931 . S
C109 C106 1.382 1_556 S
C109 C107 1.392 . S
C110 Eu81 2.828 . S
C110 O94 1.249 . S
C110 O95 1.244 1_554 S
C110 C104 1.505 . S
C111 O98 1.260 . S
C111 O99 1.240 1_556 S
H112 C84 0.930 . S
H113 C85 0.930 . S
H114 C86 0.930 . S
H115 C87 0.931 . S
H116 C105 0.930 . S
H117 C106 0.930 . S
H118 C107 0.930 . S
H119 C108 0.931 . S
C120 C121 1.361 1_455 S
C120 C122 1.394 . S
C120 H136 0.931 . S
C121 C120 1.361 1_655 S
C121 C125 1.402 . S
C122 C120 1.394 . S
C122 C123 1.351 1_455 S
C122 C126 1.531 . S
C123 C122 1.351 1_655 S
C123 C124 1.431 . S
C123 C131 1.496 1_655 S
C124 C123 1.431 . S
C124 C125 1.392 . S
C124 C127 1.511 . S
C125 C121 1.402 . S
C125 C124 1.392 . S
C125 H137 0.929 . S
C126 C122 1.531 . S
C126 H138 0.960 . S
C126 H139 0.962 . S
C126 H140 0.960 . S
C127 C124 1.511 . S
C127 H141 0.961 . S
C127 H142 0.961 . S
C127 H143 0.961 . S
C128 C129 1.370 . S
C128 C130 1.363 . S
C128 H144 0.931 . S
C129 C128 1.370 . S
C129 C133 1.408 1_455 S
C130 C128 1.363 . S
C130 C131 1.382 . S
C130 C134 1.524 . S
C131 C123 1.496 1_455 S
C131 C130 1.382 . S
C131 C132 1.397 1_455 S
C132 C131 1.397 1_655 S
C132 C133 1.404 . S
C132 C135 1.539 . S
C133 C129 1.408 1_655 S
C133 C132 1.404 . S
C133 H145 0.930 . S
C134 C130 1.524 . S
C134 H146 0.956 . S
C134 H147 0.961 . S
C134 H148 0.961 . S
C135 C132 1.539 . S
C135 H149 0.958 . S
C135 H150 0.961 . S
C135 H151 0.960 . S
H136 C120 0.931 . S
H137 C125 0.929 . S
H138 C126 0.960 . S
H139 C126 0.962 . S
H140 C126 0.960 . S
H141 C127 0.961 . S
H142 C127 0.961 . S
H143 C127 0.961 . S
H144 C128 0.931 . S
H145 C133 0.930 . S
H146 C134 0.956 . S
H147 C134 0.961 . S
H148 C134 0.961 . S
H149 C135 0.958 . S
H150 C135 0.961 . S
H151 C135 0.960 . S
C152 C153 1.391 . S
C152 C154 1.394 . S
C152 H168 0.931 . S
C153 C152 1.391 . S
C153 C157 1.376 1_545 S
C154 C152 1.394 . S
C154 C155 1.369 . S
C154 C158 1.531 . S
C155 C154 1.369 . S
C155 C156 1.410 1_545 S
C155 C163 1.503 . S
C156 C155 1.410 1_565 S
C156 C157 1.392 . S
C156 C159 1.511 . S
C157 C153 1.376 1_565 S
C157 C156 1.392 . S
C157 H169 0.929 . S
C158 C154 1.531 . S
C158 H170 0.960 . S
C158 H171 0.962 . S
C158 H172 0.960 . S
C159 C156 1.511 . S
C159 H173 0.961 . S
C159 H174 0.961 . S
C159 H175 0.961 1_565 S
C160 C161 1.379 . S
C160 C162 1.363 . S
C160 H176 0.931 . S
C161 C160 1.379 . S
C161 C165 1.398 1_565 S
C162 C160 1.363 . S
C162 C163 1.370 1_565 S
C162 C166 1.524 . S
C163 C155 1.503 . S
C163 C162 1.370 1_545 S
C163 C164 1.403 . S
C164 C163 1.403 . S
C164 C165 1.404 . S
C164 C167 1.539 . S
C165 C161 1.398 1_545 S
C165 C164 1.404 . S
C165 H177 0.930 . S
C166 C162 1.524 . S
C166 H178 0.956 . S
C166 H179 0.961 . S
C166 H180 0.961 . S
C167 C164 1.539 . S
C167 H181 0.958 . S
C167 H182 0.961 . S
C167 H183 0.960 . S
H168 C152 0.931 . S
H169 C157 0.929 . S
H170 C158 0.960 . S
H171 C158 0.962 . S
H172 C158 0.960 . S
H173 C159 0.961 . S
H174 C159 0.961 . S
H175 C159 0.961 1_545 S
H176 C160 0.931 . S
H177 C165 0.930 . S
H178 C166 0.956 . S
H179 C166 0.961 . S
H180 C166 0.961 . S
H181 C167 0.958 . S
H182 C167 0.961 . S
H183 C167 0.960 . S
C184 C185 1.391 . S
C184 C186 1.394 . S
C184 H200 0.931 . S
C185 C184 1.391 . S
C185 C189 1.376 . S
C186 C184 1.394 . S
C186 C187 1.369 . S
C186 C190 1.531 . S
C187 C186 1.369 . S
C187 C188 1.410 . S
C187 C195 1.503 . S
C188 C187 1.410 . S
C188 C189 1.392 . S
C188 C191 1.511 . S
C189 C185 1.376 . S
C189 C188 1.392 . S
C189 H201 0.929 . S
C190 C186 1.531 . S
C190 H202 0.960 . S
C190 H203 0.962 . S
C190 H204 0.960 . S
C191 C188 1.511 . S
C191 H205 0.961 . S
C191 H206 0.961 . S
C191 H207 0.961 . S
C192 C193 1.370 . S
C192 C194 1.363 . S
C192 H208 0.931 . S
C193 C192 1.370 . S
C193 C197 1.408 . S
C194 C192 1.363 . S
C194 C195 1.370 . S
C194 C198 1.524 . S
C195 C187 1.503 . S
C195 C194 1.370 . S
C195 C196 1.403 . S
C196 C195 1.403 . S
C196 C197 1.404 . S
C196 C199 1.539 . S
C197 C193 1.408 . S
C197 C196 1.404 . S
C197 H209 0.930 . S
C198 C194 1.524 . S
C198 H210 0.956 . S
C198 H211 0.961 . S
C198 H212 0.961 . S
C199 C196 1.539 . S
C199 H213 0.958 . S
C199 H214 0.961 . S
C199 H215 0.960 . S
H200 C184 0.931 . S
H201 C189 0.929 . S
H202 C190 0.960 . S
H203 C190 0.962 . S
H204 C190 0.960 . S
H205 C191 0.961 . S
H206 C191 0.961 . S
H207 C191 0.961 . S
H208 C192 0.931 . S
H209 C197 0.930 . S
H210 C198 0.956 . S
H211 C198 0.961 . S
H212 C198 0.961 . S
H213 C199 0.958 . S
H214 C199 0.961 . S
H215 C199 0.960 . S
C216 C217 1.391 1_556 S
C216 C218 1.394 . S
C216 H232 0.931 . S
C217 C216 1.391 1_554 S
C217 C221 1.376 . S
C218 C216 1.394 . S
C218 C219 1.369 . S
C218 C222 1.531 . S
C219 C218 1.369 . S
C219 C220 1.410 1_556 S
C219 C227 1.503 1_556 S
C220 C219 1.410 1_554 S
C220 C221 1.392 . S
C220 C223 1.511 . S
C221 C217 1.376 . S
C221 C220 1.392 . S
C221 H233 0.929 . S
C222 C218 1.531 . S
C222 H234 0.960 . S
C222 H235 0.962 . S
C222 H236 0.960 . S
C223 C220 1.511 . S
C223 H237 0.961 . S
C223 H238 0.961 . S
C223 H239 0.971 . S
C224 C225 1.370 . S
C224 C226 1.363 . S
C224 H240 0.931 . S
C225 C224 1.370 . S
C225 C229 1.408 1_554 S
C226 C224 1.363 . S
C226 C227 1.370 . S
C226 C230 1.524 . S
C227 C219 1.503 1_554 S
C227 C226 1.370 . S
C227 C228 1.403 1_554 S
C228 C227 1.403 1_556 S
C228 C229 1.404 . S
C228 C231 1.539 . S
C229 C225 1.408 1_556 S
C229 C228 1.404 . S
C229 H241 0.930 . S
C230 C226 1.524 . S
C230 H242 0.956 . S
C230 H243 0.961 . S
C230 H244 0.961 . S
C231 C228 1.539 . S
C231 H245 0.958 . S
C231 H246 0.961 . S
C231 H247 0.960 . S
H232 C216 0.931 . S
H233 C221 0.929 . S
H234 C222 0.960 . S
H235 C222 0.962 . S
H236 C222 0.960 . S
H237 C223 0.961 . S
H238 C223 0.961 . S
H239 C223 0.971 . S
H240 C224 0.931 . S
H241 C229 0.930 . S
H242 C230 0.956 . S
H243 C230 0.961 . S
H244 C230 0.961 . S
H245 C231 0.958 . S
H246 C231 0.961 . S
H247 C231 0.960 . S
C248 C249 1.391 1_554 S
C248 C250 1.394 . S
C248 H264 0.931 . S
C249 C248 1.391 1_556 S
C249 C253 1.376 . S
C250 C248 1.394 . S
C250 C251 1.369 . S
C250 C254 1.531 . S
C251 C250 1.369 . S
C251 C252 1.410 1_554 S
C251 C259 1.503 . S
C252 C251 1.410 1_556 S
C252 C253 1.392 . S
C252 C255 1.511 . S
C253 C249 1.376 . S
C253 C252 1.392 . S
C253 H265 0.929 . S
C254 C250 1.531 . S
C254 H266 0.960 . S
C254 H267 0.962 . S
C254 H268 0.960 . S
C255 C252 1.511 . S
C255 H269 0.961 . S
C255 H270 0.961 . S
C255 H271 0.961 . S
C256 C257 1.370 . S
C256 C258 1.363 1_554 S
C256 H272 0.931 1_554 S
C257 C256 1.370 . S
C257 C261 1.408 . S
C258 C256 1.363 1_556 S
C258 C259 1.370 1_556 S
C258 C262 1.524 . S
C259 C251 1.503 . S
C259 C258 1.370 1_554 S
C259 C260 1.403 . S
C260 C259 1.403 . S
C260 C261 1.404 . S
C260 C263 1.539 . S
C261 C257 1.408 . S
C261 C260 1.404 . S
C261 H273 0.930 . S
C262 C258 1.524 . S
C262 H274 0.956 1_556 S
C262 H275 0.961 . S
C262 H276 0.961 . S
C263 C260 1.539 . S
C263 H277 0.958 . S
C263 H278 0.961 . S
C263 H279 0.960 . S
H264 C248 0.931 . S
H265 C253 0.929 . S
H266 C254 0.960 . S
H267 C254 0.962 . S
H268 C254 0.960 . S
H269 C255 0.961 . S
H270 C255 0.961 . S
H271 C255 0.961 . S
H272 C256 0.931 1_556 S
H273 C261 0.930 . S
H274 C262 0.956 1_554 S
H275 C262 0.961 . S
H276 C262 0.961 . S
H277 C263 0.958 . S
H278 C263 0.961 . S
H279 C263 0.960 . S
C280 C281 1.391 . S
C280 C282 1.394 . S
C280 H296 0.931 . S
C281 C280 1.391 . S
C281 C285 1.376 1_556 S
C282 C280 1.394 . S
C282 C283 1.369 . S
C282 C286 1.531 . S
C283 C282 1.369 . S
C283 C284 1.410 1_556 S
C283 C291 1.503 . S
C284 C283 1.410 1_554 S
C284 C285 1.392 . S
C284 C287 1.511 . S
C285 C281 1.376 1_554 S
C285 C284 1.392 . S
C285 H297 0.929 . S
C286 C282 1.531 . S
C286 H298 0.960 . S
C286 H299 0.962 . S
C286 H300 0.960 . S
C287 C284 1.511 . S
C287 H301 0.961 . S
C287 H302 0.961 . S
C287 H303 0.961 1_554 S
C288 C289 1.370 1_554 S
C288 C290 1.363 . S
C288 H304 0.931 . S
C289 C288 1.370 1_556 S
C289 C293 1.408 . S
C290 C288 1.363 . S
C290 C291 1.370 1_554 S
C290 C294 1.524 . S
C291 C283 1.503 . S
C291 C290 1.370 1_556 S
C291 C292 1.403 . S
C292 C291 1.403 . S
C292 C293 1.404 . S
C292 C295 1.539 . S
C293 C289 1.408 . S
C293 C292 1.404 . S
C293 H305 0.930 . S
C294 C290 1.524 . S
C294 H306 0.956 . S
C294 H307 0.961 . S
C294 H308 0.961 . S
C295 C292 1.539 . S
C295 H309 0.958 . S
C295 H310 0.961 . S
C295 H311 0.960 . S
H296 C280 0.931 . S
H297 C285 0.929 . S
H298 C286 0.960 . S
H299 C286 0.962 . S
H300 C286 0.960 . S
H301 C287 0.961 . S
H302 C287 0.961 . S
H303 C287 0.961 1_556 S
H304 C288 0.931 . S
H305 C293 0.930 . S
H306 C294 0.956 . S
H307 C294 0.961 . S
H308 C294 0.961 . S
H309 C295 0.958 . S
H310 C295 0.961 . S
H311 C295 0.960 . S
C312 C313 1.391 1_554 S
C312 C314 1.394 . S
C312 H328 0.931 . S
C313 C312 1.391 1_556 S
C313 C317 1.376 . S
C314 C312 1.394 . S
C314 C315 1.369 . S
C314 C318 1.531 . S
C315 C314 1.369 . S
C315 C316 1.410 1_554 S
C315 C323 1.503 1_554 S
C316 C315 1.410 1_556 S
C316 C317 1.392 . S
C316 C319 1.511 . S
C317 C313 1.376 . S
C317 C316 1.392 . S
C317 H329 0.929 . S
C318 C314 1.531 . S
C318 H330 0.960 . S
C318 H331 0.962 . S
C318 H332 0.960 . S
C319 C316 1.511 . S
C319 H333 0.961 . S
C319 H334 0.961 . S
C319 H335 0.961 . S
C320 C321 1.370 . S
C320 C322 1.363 . S
C320 H336 0.931 . S
C321 C320 1.370 . S
C321 C325 1.408 1_556 S
C322 C320 1.363 . S
C322 C323 1.370 . S
C322 C326 1.524 . S
C323 C315 1.503 1_556 S
C323 C322 1.370 . S
C323 C324 1.403 1_556 S
C324 C323 1.403 1_554 S
C324 C325 1.404 . S
C324 C327 1.539 . S
C325 C321 1.408 1_554 S
C325 C324 1.404 . S
C325 H337 0.930 . S
C326 C322 1.524 . S
C326 H338 0.956 . S
C326 H339 0.961 . S
C326 H340 0.961 . S
C327 C324 1.539 . S
C327 H341 0.958 . S
C327 H342 0.961 . S
C327 H343 0.960 . S
H328 C312 0.931 . S
H329 C317 0.929 . S
H330 C318 0.960 . S
H331 C318 0.962 . S
H332 C318 0.960 . S
H333 C319 0.961 . S
H334 C319 0.961 . S
H335 C319 0.961 . S
H336 C320 0.931 . S
H337 C325 0.930 . S
H338 C326 0.956 . S
H339 C326 0.961 . S
H340 C326 0.961 . S
H341 C327 0.958 . S
H342 C327 0.961 . S
H343 C327 0.960 . S
C344 C345 1.391 1_554 S
C344 C346 1.394 . S
C344 H360 0.931 . S
C345 C344 1.391 1_556 S
C345 C349 1.376 . S
C346 C344 1.394 . S
C346 C347 1.369 . S
C346 C350 1.531 . S
C347 C346 1.369 . S
C347 C348 1.410 1_554 S
C347 C355 1.503 . S
C348 C347 1.410 1_556 S
C348 C349 1.392 . S
C348 C351 1.511 . S
C349 C345 1.376 . S
C349 C348 1.392 . S
C349 H361 0.929 . S
C350 C346 1.531 . S
C350 H362 0.960 . S
C350 H363 0.962 . S
C350 H364 0.960 . S
C351 C348 1.511 . S
C351 H365 0.961 . S
C351 H366 0.961 . S
C351 H367 0.961 . S
C352 C353 1.370 1_556 S
C352 C354 1.363 . S
C352 H368 0.931 . S
C353 C352 1.370 1_554 S
C353 C357 1.408 . S
C354 C352 1.363 . S
C354 C355 1.370 1_556 S
C354 C358 1.524 . S
C355 C347 1.503 . S
C355 C354 1.370 1_554 S
C355 C356 1.403 . S
C356 C355 1.403 . S
C356 C357 1.404 . S
C356 C359 1.539 . S
C357 C353 1.408 . S
C357 C356 1.404 . S
C357 H369 0.930 . S
C358 C354 1.524 . S
C358 H370 0.956 . S
C358 H371 0.961 . S
C358 H372 0.961 . S
C359 C356 1.539 . S
C359 H373 0.958 . S
C359 H374 0.961 . S
C359 H375 0.960 . S
H360 C344 0.931 . S
H361 C349 0.929 . S
H362 C350 0.960 . S
H363 C350 0.962 . S
H364 C350 0.960 . S
H365 C351 0.961 . S
H366 C351 0.961 . S
H367 C351 0.961 . S
H368 C352 0.931 . S
H369 C357 0.930 . S
H370 C358 0.956 . S
H371 C358 0.961 . S
H372 C358 0.961 . S
H373 C359 0.958 . S
H374 C359 0.961 . S
H375 C359 0.960 . S
C376 C377 1.391 . S
C376 C378 1.394 . S
C376 H392 0.931 . S
C377 C376 1.391 . S
C377 C381 1.376 1_554 S
C378 C376 1.394 . S
C378 C379 1.369 . S
C378 C382 1.531 . S
C379 C378 1.369 . S
C379 C380 1.410 1_554 S
C379 C387 1.503 . S
C380 C379 1.410 1_556 S
C380 C381 1.392 . S
C380 C383 1.511 . S
C381 C377 1.376 1_556 S
C381 C380 1.392 . S
C381 H393 0.929 . S
C382 C378 1.531 . S
C382 H394 0.960 . S
C382 H395 0.962 . S
C382 H396 0.960 . S
C383 C380 1.511 . S
C383 H397 0.961 . S
C383 H398 0.961 . S
C383 H399 0.961 . S
C384 C385 1.370 1_556 S
C384 C386 1.363 . S
C384 H400 0.931 . S
C385 C384 1.370 1_554 S
C385 C389 1.408 . S
C386 C384 1.363 . S
C386 C387 1.370 1_556 S
C386 C390 1.524 . S
C387 C379 1.503 . S
C387 C386 1.370 1_554 S
C387 C388 1.403 . S
C388 C387 1.403 . S
C388 C389 1.404 . S
C388 C391 1.539 . S
C389 C385 1.408 . S
C389 C388 1.404 . S
C389 H401 0.930 . S
C390 C386 1.524 . S
C390 H402 0.956 . S
C390 H403 0.961 . S
C390 H404 0.961 . S
C391 C388 1.539 . S
C391 H405 0.958 . S
C391 H406 0.961 . S
C391 H407 0.960 . S
H392 C376 0.931 . S
H393 C381 0.929 . S
H394 C382 0.960 . S
H395 C382 0.962 . S
H396 C382 0.960 . S
H397 C383 0.961 . S
H398 C383 0.961 . S
H399 C383 0.961 . S
H400 C384 0.931 . S
H401 C389 0.930 . S
H402 C390 0.956 . S
H403 C390 0.961 . S
H404 C390 0.961 . S
H405 C391 0.958 . S
H406 C391 0.961 . S
H407 C391 0.960 . S
C121 C17 1.439 . S
C129 C2 1.475 . S
C153 C57 1.466 . S
C161 C42 1.459 . S
C185 C97 1.481 . S
C193 C82 1.447 . S
C217 C12 1.980 . S
C225 C88 1.916 . S
C249 C48 0.838 . S
C257 C8 0.888 . S
C281 C52 2.592 . S
C289 C111 2.564 . S
C313 C31 1.994 . S
C321 C109 1.902 . S
C345 C29 0.864 . S
C353 C69 0.892 . S
C377 C92 2.553 . S
C385 C71 2.596 . S
