# Generated by pormake.
# Topology umu, (4)-cn, num edge types: 1
# Building blocks:
#     Node 0, Type 0, BuildingBlock: CEKHIL_clean_sbu_0, # of connection points: 4
#     Node 1, Type 0, BuildingBlock: CEKHIL_clean_sbu_0, # of connection points: 4
#     Node 2, Type 0, BuildingBlock: CEKHIL_clean_sbu_0, # of connection points: 4
#     Node 3, Type 0, BuildingBlock: CEKHIL_clean_sbu_0, # of connection points: 4
#     Node 4, Type 0, BuildingBlock: CEKHIL_clean_sbu_0, # of connection points: 4
#     Node 5, Type 0, BuildingBlock: CEKHIL_clean_sbu_0, # of connection points: 4
#     Node 6, Type 0, BuildingBlock: CEKHIL_clean_sbu_0, # of connection points: 4
#     Node 7, Type 0, BuildingBlock: CEKHIL_clean_sbu_0, # of connection points: 4
#     Node 8, Type 0, BuildingBlock: CEKHIL_clean_sbu_0, # of connection points: 4
#     Node 9, Type 0, BuildingBlock: CEKHIL_clean_sbu_0, # of connection points: 4
#     Node 10, Type 0, BuildingBlock: CEKHIL_clean_sbu_0, # of connection points: 4
#     Node 11, Type 0, BuildingBlock: CEKHIL_clean_sbu_0, # of connection points: 4
#     Node 12, Type 0, BuildingBlock: CEKHIL_clean_sbu_0, # of connection points: 4
#     Node 13, Type 0, BuildingBlock: CEKHIL_clean_sbu_0, # of connection points: 4
#     Node 14, Type 0, BuildingBlock: CEKHIL_clean_sbu_0, # of connection points: 4
#     Node 15, Type 0, BuildingBlock: CEKHIL_clean_sbu_0, # of connection points: 4
#     Node 16, Type 0, BuildingBlock: CEKHIL_clean_sbu_0, # of connection points: 4
#     Node 17, Type 0, BuildingBlock: CEKHIL_clean_sbu_0, # of connection points: 4
#     Node 18, Type 0, BuildingBlock: CEKHIL_clean_sbu_0, # of connection points: 4
#     Node 19, Type 0, BuildingBlock: CEKHIL_clean_sbu_0, # of connection points: 4
#     Node 20, Type 0, BuildingBlock: CEKHIL_clean_sbu_0, # of connection points: 4
#     Node 21, Type 0, BuildingBlock: CEKHIL_clean_sbu_0, # of connection points: 4
#     Node 22, Type 0, BuildingBlock: CEKHIL_clean_sbu_0, # of connection points: 4
#     Node 23, Type 0, BuildingBlock: CEKHIL_clean_sbu_0, # of connection points: 4
#     Node 24, Type 0, BuildingBlock: CEKHIL_clean_sbu_0, # of connection points: 4
#     Node 25, Type 0, BuildingBlock: CEKHIL_clean_sbu_0, # of connection points: 4
#     Node 26, Type 0, BuildingBlock: CEKHIL_clean_sbu_0, # of connection points: 4
#     Node 27, Type 0, BuildingBlock: CEKHIL_clean_sbu_0, # of connection points: 4
#     Node 28, Type 0, BuildingBlock: CEKHIL_clean_sbu_0, # of connection points: 4
#     Node 29, Type 0, BuildingBlock: CEKHIL_clean_sbu_0, # of connection points: 4
#     Node 30, Type 0, BuildingBlock: CEKHIL_clean_sbu_0, # of connection points: 4
#     Node 31, Type 0, BuildingBlock: CEKHIL_clean_sbu_0, # of connection points: 4
#     Edge 32, Type (0, 0), BuildingBlock: EZIPEK_clean_linker_0, # of connection points: 2
#     Edge 33, Type (0, 0), BuildingBlock: EZIPEK_clean_linker_0, # of connection points: 2
#     Edge 34, Type (0, 0), BuildingBlock: EZIPEK_clean_linker_0, # of connection points: 2
#     Edge 35, Type (0, 0), BuildingBlock: EZIPEK_clean_linker_0, # of connection points: 2
#     Edge 36, Type (0, 0), BuildingBlock: EZIPEK_clean_linker_0, # of connection points: 2
#     Edge 37, Type (0, 0), BuildingBlock: EZIPEK_clean_linker_0, # of connection points: 2
#     Edge 38, Type (0, 0), BuildingBlock: EZIPEK_clean_linker_0, # of connection points: 2
#     Edge 39, Type (0, 0), BuildingBlock: EZIPEK_clean_linker_0, # of connection points: 2
#     Edge 40, Type (0, 0), BuildingBlock: EZIPEK_clean_linker_0, # of connection points: 2
#     Edge 41, Type (0, 0), BuildingBlock: EZIPEK_clean_linker_0, # of connection points: 2
#     Edge 42, Type (0, 0), BuildingBlock: EZIPEK_clean_linker_0, # of connection points: 2
#     Edge 43, Type (0, 0), BuildingBlock: EZIPEK_clean_linker_0, # of connection points: 2
#     Edge 44, Type (0, 0), BuildingBlock: EZIPEK_clean_linker_0, # of connection points: 2
#     Edge 45, Type (0, 0), BuildingBlock: EZIPEK_clean_linker_0, # of connection points: 2
#     Edge 46, Type (0, 0), BuildingBlock: EZIPEK_clean_linker_0, # of connection points: 2
#     Edge 47, Type (0, 0), BuildingBlock: EZIPEK_clean_linker_0, # of connection points: 2
#     Edge 48, Type (0, 0), BuildingBlock: EZIPEK_clean_linker_0, # of connection points: 2
#     Edge 49, Type (0, 0), BuildingBlock: EZIPEK_clean_linker_0, # of connection points: 2
#     Edge 50, Type (0, 0), BuildingBlock: EZIPEK_clean_linker_0, # of connection points: 2
#     Edge 51, Type (0, 0), BuildingBlock: EZIPEK_clean_linker_0, # of connection points: 2
#     Edge 52, Type (0, 0), BuildingBlock: EZIPEK_clean_linker_0, # of connection points: 2
#     Edge 53, Type (0, 0), BuildingBlock: EZIPEK_clean_linker_0, # of connection points: 2
#     Edge 54, Type (0, 0), BuildingBlock: EZIPEK_clean_linker_0, # of connection points: 2
#     Edge 55, Type (0, 0), BuildingBlock: EZIPEK_clean_linker_0, # of connection points: 2
#     Edge 56, Type (0, 0), BuildingBlock: EZIPEK_clean_linker_0, # of connection points: 2
#     Edge 57, Type (0, 0), BuildingBlock: EZIPEK_clean_linker_0, # of connection points: 2
#     Edge 58, Type (0, 0), BuildingBlock: EZIPEK_clean_linker_0, # of connection points: 2
#     Edge 59, Type (0, 0), BuildingBlock: EZIPEK_clean_linker_0, # of connection points: 2
#     Edge 60, Type (0, 0), BuildingBlock: EZIPEK_clean_linker_0, # of connection points: 2
#     Edge 61, Type (0, 0), BuildingBlock: EZIPEK_clean_linker_0, # of connection points: 2
#     Edge 62, Type (0, 0), BuildingBlock: EZIPEK_clean_linker_0, # of connection points: 2
#     Edge 63, Type (0, 0), BuildingBlock: EZIPEK_clean_linker_0, # of connection points: 2
#     Edge 64, Type (0, 0), BuildingBlock: EZIPEK_clean_linker_0, # of connection points: 2
#     Edge 65, Type (0, 0), BuildingBlock: EZIPEK_clean_linker_0, # of connection points: 2
#     Edge 66, Type (0, 0), BuildingBlock: EZIPEK_clean_linker_0, # of connection points: 2
#     Edge 67, Type (0, 0), BuildingBlock: EZIPEK_clean_linker_0, # of connection points: 2
#     Edge 68, Type (0, 0), BuildingBlock: EZIPEK_clean_linker_0, # of connection points: 2
#     Edge 69, Type (0, 0), BuildingBlock: EZIPEK_clean_linker_0, # of connection points: 2
#     Edge 70, Type (0, 0), BuildingBlock: EZIPEK_clean_linker_0, # of connection points: 2
#     Edge 71, Type (0, 0), BuildingBlock: EZIPEK_clean_linker_0, # of connection points: 2
#     Edge 72, Type (0, 0), BuildingBlock: EZIPEK_clean_linker_0, # of connection points: 2
#     Edge 73, Type (0, 0), BuildingBlock: EZIPEK_clean_linker_0, # of connection points: 2
#     Edge 74, Type (0, 0), BuildingBlock: EZIPEK_clean_linker_0, # of connection points: 2
#     Edge 75, Type (0, 0), BuildingBlock: EZIPEK_clean_linker_0, # of connection points: 2
#     Edge 76, Type (0, 0), BuildingBlock: EZIPEK_clean_linker_0, # of connection points: 2
#     Edge 77, Type (0, 0), BuildingBlock: EZIPEK_clean_linker_0, # of connection points: 2
#     Edge 78, Type (0, 0), BuildingBlock: EZIPEK_clean_linker_0, # of connection points: 2
#     Edge 79, Type (0, 0), BuildingBlock: EZIPEK_clean_linker_0, # of connection points: 2
#     Edge 80, Type (0, 0), BuildingBlock: EZIPEK_clean_linker_0, # of connection points: 2
#     Edge 81, Type (0, 0), BuildingBlock: EZIPEK_clean_linker_0, # of connection points: 2
#     Edge 82, Type (0, 0), BuildingBlock: EZIPEK_clean_linker_0, # of connection points: 2
#     Edge 83, Type (0, 0), BuildingBlock: EZIPEK_clean_linker_0, # of connection points: 2
#     Edge 84, Type (0, 0), BuildingBlock: EZIPEK_clean_linker_0, # of connection points: 2
#     Edge 85, Type (0, 0), BuildingBlock: EZIPEK_clean_linker_0, # of connection points: 2
#     Edge 86, Type (0, 0), BuildingBlock: EZIPEK_clean_linker_0, # of connection points: 2
#     Edge 87, Type (0, 0), BuildingBlock: EZIPEK_clean_linker_0, # of connection points: 2
#     Edge 88, Type (0, 0), BuildingBlock: EZIPEK_clean_linker_0, # of connection points: 2
#     Edge 89, Type (0, 0), BuildingBlock: EZIPEK_clean_linker_0, # of connection points: 2
#     Edge 90, Type (0, 0), BuildingBlock: EZIPEK_clean_linker_0, # of connection points: 2
#     Edge 91, Type (0, 0), BuildingBlock: EZIPEK_clean_linker_0, # of connection points: 2
#     Edge 92, Type (0, 0), BuildingBlock: EZIPEK_clean_linker_0, # of connection points: 2
#     Edge 93, Type (0, 0), BuildingBlock: EZIPEK_clean_linker_0, # of connection points: 2
#     Edge 94, Type (0, 0), BuildingBlock: EZIPEK_clean_linker_0, # of connection points: 2
#     Edge 95, Type (0, 0), BuildingBlock: EZIPEK_clean_linker_0, # of connection points: 2
# Relax obj value: 0.129
# Max RMSD: 0.096
# Mean RMSD: 0.096
data_MOF--net-umu--node1-CEKHIL_clean_sbu_0--edge1-EZIPEK_clean_linker_0
_symmetry_space_group_name_H-M    P1
_symmetry_Int_Tables_number       1
_symmetry_cell_setting            triclinic
loop_
_symmetry_equiv_pos_as_xyz
'x, y, z'
_cell_length_a     59.604355
_cell_length_b     59.805494
_cell_length_c     18.57283
_cell_angle_alpha  90.023251
_cell_angle_beta   90.004495
_cell_angle_gamma 89.943668
loop_
_atom_site_label
_atom_site_type_symbol
_atom_site_fract_x
_atom_site_fract_y
_atom_site_fract_z
_atom_type_partial_charge
Co0 Co 0.22294 0.16621 0.09497 0.0
O1 O 0.2165 0.13499 0.07133 0.0
O2 O 0.1928 0.16274 0.0546 0.0
C3 C 0.23989 0.15976 0.20339 0.0
O4 O 0.22303 0.20065 0.11022 0.0
Co5 Co 0.27222 0.18338 0.11633 0.0
O6 O 0.25808 0.21284 0.13389 0.0
C7 C 0.25511 0.17243 0.97168 0.0
C8 C 0.19732 0.14163 0.04576 0.0
C9 C 0.23721 0.21648 0.12452 0.0
O10 O 0.23505 0.17036 0.99571 0.0
O11 O 0.27234 0.17568 0.0114 0.0
O12 O 0.21806 0.16073 0.1993 0.0
O13 O 0.2502 0.16125 0.14306 0.0
Co14 Co 0.1054 0.96999 0.34049 0.0
O15 O 0.13663 0.96505 0.31109 0.0
O16 O 0.10994 0.93982 0.30258 0.0
C17 C 0.11267 0.98834 0.44693 0.0
O18 O 0.07148 0.96755 0.36336 0.0
Co19 Co 0.08459 0.01758 0.35932 0.0
O20 O 0.05546 1.00172 0.36539 0.0
C21 C 0.09821 1.00147 0.21791 0.0
C22 C 0.13067 0.94519 0.28973 0.0
C23 C 0.05412 0.9805 0.36788 0.0
O24 O 0.09867 0.98123 0.24103 0.0
O25 O 0.09566 0.01857 0.2582 0.0
O26 O 0.11328 0.96654 0.444 0.0
O27 O 0.10914 0.99793 0.38613 0.0
Co28 Co 0.3073 0.86084 0.60806 0.0
O29 O 0.31231 0.89217 0.58214 0.0
O30 O 0.33628 0.86488 0.56105 0.0
C31 C 0.29255 0.8669 0.72011 0.0
O32 O 0.30936 0.82678 0.62384 0.0
Co33 Co 0.25969 0.84121 0.64298 0.0
O34 O 0.27544 0.81201 0.6486 0.0
C35 C 0.27163 0.85509 0.49654 0.0
C36 C 0.33121 0.88588 0.55339 0.0
C37 C 0.29642 0.80996 0.63711 0.0
O38 O 0.2926 0.85566 0.51258 0.0
O39 O 0.2559 0.85284 0.5428 0.0
O40 O 0.31427 0.8669 0.71112 0.0
O41 O 0.28107 0.86467 0.66239 0.0
Co42 Co 0.41766 0.05725 0.86124 0.0
O43 O 0.38676 0.06294 0.83043 0.0
O44 O 0.41525 0.08531 0.80785 0.0
C45 C 0.40916 0.0453 0.97445 0.0
O46 O 0.45174 0.05783 0.88099 0.0
Co47 Co 0.43483 1.00989 0.91185 0.0
O48 O 0.46429 0.02476 0.92331 0.0
C49 C 0.42427 0.01914 0.75974 0.0
C50 C 0.39404 0.08102 0.79944 0.0
C51 C 0.46767 0.0448 0.90293 0.0
O52 O 0.42332 0.04034 0.77063 0.0
O53 O 0.42594 1.00443 0.80947 0.0
O54 O 0.41038 0.06669 0.96094 0.0
O55 O 0.412 0.03257 0.91988 0.0
Co56 Co 0.2162 0.86146 0.07394 0.0
O57 O 0.20851 0.89256 0.09565 0.0
O58 O 0.18589 0.86407 0.11371 0.0
C59 C 0.23302 0.86786 0.96539 0.0
O60 O 0.2175 0.82691 0.06092 0.0
Co61 Co 0.26584 0.84536 0.05225 0.0
O62 O 0.2525 0.81569 0.03223 0.0
C63 C 0.2485 0.85589 0.1974 0.0
C64 C 0.18955 0.88539 0.12131 0.0
C65 C 0.2319 0.81146 0.0443 0.0
O66 O 0.22848 0.85839 0.1734 0.0
O67 O 0.26568 0.85233 0.15768 0.0
O68 O 0.21124 0.86609 0.96928 0.0
O69 O 0.24333 0.86706 0.02583 0.0
Co70 Co 0.4139 0.97042 0.33267 0.0
O71 O 0.38303 0.96608 0.36514 0.0
O72 O 0.40853 0.93945 0.36176 0.0
C73 C 0.40486 0.99262 0.23545 0.0
O74 O 0.44746 0.96798 0.30453 0.0
Co75 Co 0.43614 0.01772 0.32204 0.0
O76 O 0.46244 1.00191 0.28232 0.0
C77 C 0.42591 0.99698 0.46248 0.0
C78 C 0.38837 0.94554 0.38029 0.0
C79 C 0.46401 0.98071 0.28553 0.0
O80 O 0.42249 0.97787 0.43339 0.0
O81 O 0.42936 0.01503 0.42724 0.0
O82 O 0.40436 0.97084 0.23052 0.0
O83 O 0.41036 0.99962 0.29813 0.0
Co84 Co 0.31329 0.16315 0.56152 0.0
O85 O 0.31854 0.13199 0.58942 0.0
O86 O 0.34222 0.15955 0.60945 0.0
C87 C 0.29888 0.15621 0.44954 0.0
O88 O 0.31496 0.19723 0.54412 0.0
Co89 Co 0.26565 0.18222 0.52323 0.0
O90 O 0.28125 0.21136 0.51304 0.0
C91 C 0.27731 0.17002 0.67184 0.0
C92 C 0.33733 0.13855 0.61809 0.0
C93 C 0.30203 0.21379 0.52724 0.0
O94 O 0.29829 0.16877 0.65618 0.0
O95 O 0.26167 0.17224 0.62523 0.0
O96 O 0.32058 0.15663 0.45905 0.0
O97 O 0.28723 0.1587 0.50679 0.0
Co98 Co 0.11582 0.05926 0.80898 0.0
O99 O 0.14655 0.065 0.84117 0.0
O100 O 0.11835 0.0883 0.85663 0.0
C101 C 0.12413 0.04512 0.69777 0.0
O102 O 0.08191 0.06012 0.78545 0.0
Co103 Co 0.09847 1.01114 0.76947 0.0
O104 O 0.06904 0.02594 0.7552 0.0
C105 C 0.10638 0.02396 0.92025 0.0
C106 C 0.13939 0.08377 0.86816 0.0
C107 C 0.06581 0.04662 0.76828 0.0
O108 O 0.10907 0.04461 0.90335 0.0
O109 O 0.10415 1.00802 0.87493 0.0
O110 O 0.12363 0.06669 0.7081 0.0
O111 O 0.12149 0.03337 0.75482 0.0
Co112 Co 0.80792 0.85783 0.0485 0.0
O113 O 0.8121 0.88921 0.07543 0.0
O114 O 0.83702 0.86262 0.09402 0.0
C115 C 0.79237 0.86389 0.93755 0.0
O116 O 0.81078 0.82382 0.03157 0.0
Co117 Co 0.76059 0.83714 0.01568 0.0
O118 O 0.77706 0.80838 0.00796 0.0
C119 C 0.77327 0.85024 0.16243 0.0
C120 C 0.83131 0.88341 0.10307 0.0
C121 C 0.79812 0.80675 0.01858 0.0
O122 O 0.79403 0.85188 0.14461 0.0
O123 O 0.75724 0.8475 0.1175 0.0
O124 O 0.81413 0.86442 0.94533 0.0
O125 O 0.78128 0.86115 0.99582 0.0
Co126 Co 0.9199 0.05618 0.81124 0.0
O127 O 0.88869 0.06072 0.84163 0.0
O128 O 0.9151 0.08624 0.85029 0.0
C129 C 0.9125 0.03825 0.70437 0.0
O130 O 0.95381 0.05876 0.78804 0.0
Co131 Co 0.94065 1.00853 0.79021 0.0
O132 O 0.96973 0.02451 0.78513 0.0
C133 C 0.9278 0.02436 0.93263 0.0
C134 C 0.89443 0.08061 0.86309 0.0
C135 C 0.97113 0.04574 0.78339 0.0
O136 O 0.92702 0.04461 0.90977 0.0
O137 O 0.93033 1.00731 0.89214 0.0
O138 O 0.91178 0.06003 0.70812 0.0
O139 O 0.9162 0.02844 0.76469 0.0
Co140 Co 0.71993 0.16167 0.56242 0.0
O141 O 0.71652 0.13042 0.59196 0.0
O142 O 0.68979 0.15575 0.59856 0.0
C143 C 0.73906 0.15576 0.45646 0.0
O144 O 0.71595 0.1952 0.54021 0.0
Co145 Co 0.76698 0.18429 0.54692 0.0
O146 O 0.74952 0.21256 0.54445 0.0
C147 C 0.75011 0.17111 0.68778 0.0
C148 C 0.69626 0.13546 0.61268 0.0
C149 C 0.72822 0.21301 0.5397 0.0
O150 O 0.73017 0.16907 0.66246 0.0
O151 O 0.76753 0.17434 0.64923 0.0
O152 O 0.71726 0.15385 0.45863 0.0
O153 O 0.74828 0.15938 0.51785 0.0
Co154 Co 0.6089 0.96081 0.2996 0.0
O155 O 0.63985 0.95419 0.32865 0.0
O156 O 0.61107 0.93205 0.34914 0.0
C157 C 0.61706 0.97406 0.18673 0.0
O158 O 0.57463 0.96051 0.28115 0.0
Co159 Co 0.59167 1.00856 0.25721 0.0
O160 O 0.56175 0.99436 0.24766 0.0
C161 C 0.60272 0.99772 0.40774 0.0
C162 C 0.63235 0.93585 0.35755 0.0
C163 C 0.5585 0.97388 0.26317 0.0
O164 O 0.60389 0.97669 0.39345 0.0
O165 O 0.6004 0.01302 0.36023 0.0
O166 O 0.61546 0.95257 0.19784 0.0
O167 O 0.61471 0.98621 0.243 0.0
Co168 Co 0.80973 0.16182 0.09339 0.0
O169 O 0.81576 0.13131 0.06056 0.0
O170 O 0.83873 0.15964 0.04439 0.0
C171 C 0.79629 0.15241 0.20453 0.0
O172 O 0.81007 0.19574 0.11751 0.0
Co173 Co 0.76159 0.17837 0.13732 0.0
O174 O 0.77617 0.20758 0.15581 0.0
C175 C 0.77321 0.16986 0.98563 0.0
C176 C 0.83448 0.13858 0.03342 0.0
C177 C 0.79656 0.21136 0.13925 0.0
O178 O 0.79424 0.16836 0.00022 0.0
O179 O 0.75765 0.17148 0.03271 0.0
O180 O 0.81786 0.15376 0.19355 0.0
O181 O 0.78415 0.15546 0.14845 0.0
Co182 Co 0.61311 0.05089 0.83283 0.0
O183 O 0.64437 0.05558 0.80433 0.0
O184 O 0.61793 0.08121 0.79656 0.0
C185 C 0.62008 0.03223 0.93829 0.0
O186 O 0.579 0.05293 0.85452 0.0
Co187 Co 0.59287 1.0029 0.85051 0.0
O188 O 0.56482 0.01868 0.87713 0.0
C189 C 0.60344 0.02081 0.70671 0.0
C190 C 0.6386 0.07552 0.7835 0.0
C191 C 0.56251 0.03979 0.87101 0.0
O192 O 0.60643 0.04048 0.73263 0.0
O193 O 0.60008 1.00337 0.74507 0.0
O194 O 0.62056 0.05403 0.93659 0.0
O195 O 0.617 0.02281 0.877 0.0
Co196 Co 0.71756 0.85469 0.58224 0.0
O197 O 0.70938 0.88546 0.55781 0.0
O198 O 0.68765 0.85626 0.53912 0.0
C199 C 0.73316 0.86219 0.69185 0.0
O200 O 0.71937 0.82036 0.59788 0.0
Co201 Co 0.76728 0.83977 0.60983 0.0
O202 O 0.75432 0.80993 0.62988 0.0
C203 C 0.75127 0.84923 0.46268 0.0
C204 C 0.69084 0.87762 0.53099 0.0
C205 C 0.73389 0.80528 0.61643 0.0
O206 O 0.73094 0.85115 0.48449 0.0
O207 O 0.76816 0.8464 0.50424 0.0
O208 O 0.71146 0.85993 0.68599 0.0
O209 O 0.74406 0.86117 0.63254 0.0
Co210 Co 0.90966 0.9677 0.34207 0.0
O211 O 0.87899 0.9622 0.30894 0.0
O212 O 0.9071 0.93866 0.29474 0.0
C213 C 0.90122 0.9819 0.45288 0.0
O214 O 0.94344 0.96656 0.36692 0.0
Co215 Co 0.92718 0.01576 0.38121 0.0
O216 O 0.9566 1.00083 0.39444 0.0
C217 C 0.91931 1.00294 0.23077 0.0
C218 C 0.88614 0.94332 0.28268 0.0
C219 C 0.95967 0.98004 0.38292 0.0
O220 O 0.91685 0.98227 0.24784 0.0
O221 O 0.92131 0.01893 0.27592 0.0
O222 O 0.90152 0.96033 0.44263 0.0
O223 O 0.90404 0.99365 0.39589 0.0
Co224 Co 0.71594 0.65974 0.58711 0.0
O225 O 0.70754 0.62906 0.56308 0.0
O226 O 0.68642 0.65853 0.54143 0.0
C227 C 0.7301 0.65241 0.69855 0.0
O228 O 0.71837 0.69406 0.60142 0.0
Co229 Co 0.76552 0.67387 0.62174 0.0
O230 O 0.75242 0.70354 0.64431 0.0
C231 C 0.75101 0.6654 0.47186 0.0
C232 C 0.68929 0.63705 0.53465 0.0
C233 C 0.73263 0.70876 0.62442 0.0
O234 O 0.73045 0.66291 0.4908 0.0
O235 O 0.76734 0.66826 0.51561 0.0
O236 O 0.70853 0.65505 0.69004 0.0
O237 O 0.7417 0.65292 0.64058 0.0
Co238 Co 0.61107 0.46577 0.82957 0.0
O239 O 0.6418 0.46215 0.79451 0.0
O240 O 0.61568 0.43621 0.78738 0.0
C241 C 0.61981 0.48309 0.93631 0.0
O242 O 0.57776 0.46263 0.85802 0.0
Co243 Co 0.59015 0.51337 0.86253 0.0
O244 O 0.56257 0.4963 0.88394 0.0
C245 C 0.59824 0.49819 0.71385 0.0
C246 C 0.63609 0.4423 0.77264 0.0
C247 C 0.56089 0.47525 0.87481 0.0
O248 O 0.60192 0.47796 0.73386 0.0
O249 O 0.59557 0.51475 0.75656 0.0
O250 O 0.62124 0.46141 0.93034 0.0
O251 O 0.61471 0.49292 0.87738 0.0
Co252 Co 0.80908 0.35672 0.08942 0.0
O253 O 0.81522 0.38711 0.05587 0.0
O254 O 0.83822 0.35864 0.04123 0.0
C255 C 0.7954 0.36628 0.19982 0.0
O256 O 0.80932 0.32293 0.11513 0.0
Co257 Co 0.76064 0.34058 0.13114 0.0
O258 O 0.77484 0.31105 0.14729 0.0
C259 C 0.77283 0.34898 0.98036 0.0
C260 C 0.834 0.37967 0.02961 0.0
C261 C 0.79549 0.30728 0.13423 0.0
O262 O 0.79381 0.35002 0.99595 0.0
O263 O 0.75703 0.34756 0.02665 0.0
O264 O 0.817 0.36501 0.18939 0.0
O265 O 0.78337 0.36327 0.14346 0.0
Co266 Co 0.91391 0.55335 0.32764 0.0
O267 O 0.88254 0.55609 0.29695 0.0
O268 O 0.90754 0.58309 0.28964 0.0
C269 C 0.90788 0.53484 0.43435 0.0
O270 O 0.94738 0.5582 0.35103 0.0
Co271 Co 0.93783 0.50718 0.34822 0.0
O272 O 0.96573 0.5252 0.35169 0.0
C273 C 0.92421 0.52228 0.20572 0.0
C274 C 0.88729 0.57633 0.27613 0.0
C275 C 0.96557 0.54647 0.35431 0.0
O276 O 0.92184 0.54242 0.2287 0.0
O277 O 0.92781 0.50542 0.24617 0.0
O278 O 0.9056 0.55652 0.43091 0.0
O279 O 0.91208 0.52536 0.3738 0.0
Co280 Co 0.71939 0.35673 0.55775 0.0
O281 O 0.71574 0.38821 0.58471 0.0
O282 O 0.68931 0.36269 0.59458 0.0
C283 C 0.7381 0.36226 0.45105 0.0
O284 O 0.71544 0.32302 0.53761 0.0
Co285 Co 0.7663 0.33388 0.54055 0.0
O286 O 0.74898 0.30556 0.53943 0.0
C287 C 0.75038 0.3479 0.68179 0.0
C288 C 0.69553 0.3832 0.60588 0.0
C289 C 0.72765 0.30515 0.53632 0.0
O290 O 0.73026 0.35007 0.65783 0.0
O291 O 0.76749 0.3442 0.6423 0.0
O292 O 0.71628 0.36391 0.45367 0.0
O293 O 0.74756 0.35887 0.51218 0.0
Co294 Co 0.91403 0.46371 0.79582 0.0
O295 O 0.88362 0.45668 0.8279 0.0
O296 O 0.91275 0.43448 0.84275 0.0
C297 C 0.90453 0.4776 0.68565 0.0
O298 O 0.94799 0.46446 0.77129 0.0
Co299 Co 0.92902 0.51261 0.75767 0.0
O300 O 0.9592 0.4994 0.74351 0.0
C301 C 0.92123 0.49924 0.90774 0.0
C302 C 0.89152 0.43812 0.85409 0.0
C303 C 0.96345 0.47881 0.75477 0.0
O304 O 0.92015 0.47847 0.89047 0.0
O305 O 0.9225 0.51534 0.86273 0.0
O306 O 0.90628 0.45606 0.69519 0.0
O307 O 0.90696 0.48941 0.74272 0.0
Co308 Co 0.80629 0.66219 0.05332 0.0
O309 O 0.81005 0.63078 0.08022 0.0
O310 O 0.83593 0.65665 0.0943 0.0
C311 C 0.78907 0.65645 0.94477 0.0
O312 O 0.80962 0.6961 0.03507 0.0
Co313 Co 0.75888 0.68383 0.02883 0.0
O314 O 0.77568 0.71232 0.02136 0.0
C315 C 0.77358 0.66987 0.17264 0.0
C316 C 0.82979 0.63607 0.10484 0.0
C317 C 0.79697 0.71347 0.02629 0.0
O318 O 0.79405 0.66845 0.15157 0.0
O319 O 0.75692 0.67304 0.13046 0.0
O320 O 0.81088 0.65524 0.9496 0.0
O321 O 0.77884 0.6595 0.00459 0.0
Co322 Co 0.60623 0.55512 0.30288 0.0
O323 O 0.63662 0.55945 0.34016 0.0
O324 O 0.60985 0.5848 0.34537 0.0
C325 C 0.61638 0.53809 0.19685 0.0
O326 O 0.57297 0.55739 0.27211 0.0
Co327 Co 0.58687 0.50704 0.26804 0.0
O328 O 0.55894 0.52334 0.24494 0.0
C329 C 0.59517 0.52187 0.41682 0.0
C330 C 0.63031 0.57919 0.36152 0.0
C331 C 0.55659 0.54434 0.25383 0.0
O332 O 0.597 0.54245 0.39785 0.0
O333 O 0.59366 0.50541 0.37319 0.0
O334 O 0.61702 0.55981 0.20292 0.0
O335 O 0.61098 0.52812 0.2552 0.0
Co336 Co 0.30792 0.35877 0.56431 0.0
O337 O 0.31209 0.39024 0.59049 0.0
O338 O 0.33753 0.36398 0.60597 0.0
C339 C 0.29085 0.36448 0.45527 0.0
O340 O 0.31102 0.32479 0.54668 0.0
Co341 Co 0.26049 0.33737 0.53903 0.0
O342 O 0.27709 0.3087 0.53241 0.0
C343 C 0.27483 0.35159 0.68292 0.0
C344 C 0.33172 0.38471 0.61559 0.0
C345 C 0.29836 0.30746 0.53774 0.0
O346 O 0.29538 0.35285 0.66247 0.0
O347 O 0.25829 0.34847 0.64024 0.0
O348 O 0.31267 0.36545 0.46041 0.0
O349 O 0.28054 0.36162 0.515 0.0
Co350 Co 0.41213 0.55713 0.30177 0.0
O351 O 0.38175 0.56378 0.3354 0.0
O352 O 0.41085 0.58519 0.35553 0.0
C353 C 0.40248 0.54505 0.18931 0.0
O354 O 0.44592 0.5573 0.27641 0.0
Co355 Co 0.42816 0.50952 0.25289 0.0
O356 O 0.4573 0.52412 0.23202 0.0
C357 C 0.42117 0.51961 0.40633 0.0
C358 C 0.38962 0.58159 0.36664 0.0
C359 C 0.4613 0.5442 0.25098 0.0
O360 O 0.41859 0.54056 0.39319 0.0
O361 O 0.42323 0.50448 0.35814 0.0
O362 O 0.4041 0.56642 0.20266 0.0
O363 O 0.4053 0.53234 0.24409 0.0
Co364 Co 0.22064 0.66521 0.07976 0.0
O365 O 0.21463 0.63394 0.10349 0.0
O366 O 0.1903 0.66129 0.1182 0.0
C367 C 0.23807 0.65876 0.97252 0.0
O368 O 0.22051 0.69964 0.06447 0.0
Co369 Co 0.26979 0.68299 0.05902 0.0
O370 O 0.25514 0.71178 0.03499 0.0
C371 C 0.25224 0.67214 0.20344 0.0
C372 C 0.19512 0.64024 0.12713 0.0
C373 C 0.23441 0.71543 0.04712 0.0
O374 O 0.23226 0.66981 0.17913 0.0
O375 O 0.26956 0.67542 0.16415 0.0
O376 O 0.21622 0.65956 0.9755 0.0
O377 O 0.24812 0.66047 0.03321 0.0
Co378 Co 0.10925 0.467 0.80716 0.0
O379 O 0.13969 0.46105 0.84193 0.0
O380 O 0.11108 0.43832 0.85749 0.0
C381 C 0.11917 0.47988 0.69586 0.0
O382 O 0.07541 0.46647 0.78083 0.0
Co383 Co 0.09281 0.51476 0.76049 0.0
O384 O 0.06362 0.5001 0.74112 0.0
C385 C 0.10097 0.50401 0.91284 0.0
C386 C 0.13215 0.44252 0.86932 0.0
C387 C 0.05981 0.4798 0.7578 0.0
O388 O 0.10229 0.48296 0.89933 0.0
O389 O 0.09947 0.51928 0.86495 0.0
O390 O 0.11784 0.45843 0.70785 0.0
O391 O 0.11588 0.49223 0.75125 0.0
Co392 Co 0.31032 0.66521 0.61253 0.0
O393 O 0.31622 0.63375 0.59042 0.0
O394 O 0.33856 0.66108 0.5611 0.0
C395 C 0.29698 0.6599 0.72667 0.0
O396 O 0.31173 0.69948 0.6247 0.0
Co397 Co 0.26271 0.68424 0.65147 0.0
O398 O 0.27799 0.7137 0.65505 0.0
C399 C 0.27348 0.67084 0.50343 0.0
C400 C 0.33439 0.63979 0.55705 0.0
C401 C 0.29869 0.7161 0.63988 0.0
O402 O 0.29448 0.66912 0.51829 0.0
O403 O 0.25807 0.67388 0.55032 0.0
O404 O 0.31859 0.66038 0.7153 0.0
O405 O 0.28483 0.66136 0.67018 0.0
Co406 Co 0.10918 0.55624 0.33842 0.0
O407 O 0.1405 0.56034 0.30951 0.0
O408 O 0.11468 0.58663 0.30501 0.0
C409 C 0.11526 0.53651 0.44307 0.0
O410 O 0.07549 0.55971 0.36062 0.0
Co411 Co 0.08686 0.50916 0.35023 0.0
O412 O 0.0583 0.52624 0.35247 0.0
C413 C 0.09977 0.52705 0.21045 0.0
C414 C 0.13514 0.58063 0.29063 0.0
C415 C 0.0577 0.54741 0.35923 0.0
O416 O 0.10207 0.5467 0.23735 0.0
O417 O 0.09634 0.50943 0.24752 0.0
O418 O 0.11684 0.55827 0.44239 0.0
O419 O 0.1118 0.52766 0.38099 0.0
Co420 Co 0.21692 0.36178 0.09831 0.0
O421 O 0.20851 0.3925 0.07419 0.0
O422 O 0.18724 0.36314 0.05358 0.0
C423 C 0.23155 0.36906 0.20935 0.0
O424 O 0.21929 0.32743 0.11266 0.0
Co425 Co 0.26657 0.3474 0.13103 0.0
O426 O 0.25348 0.3178 0.15418 0.0
C427 C 0.25157 0.35605 0.98172 0.0
C428 C 0.19018 0.38458 0.04616 0.0
C429 C 0.23358 0.31267 0.13524 0.0
O430 O 0.23107 0.35854 0.00142 0.0
O431 O 0.26804 0.35315 0.02493 0.0
O432 O 0.20993 0.36657 0.20159 0.0
O433 O 0.24291 0.36848 0.1509 0.0
Co434 Co 0.41612 0.46916 0.83239 0.0
O435 O 0.38476 0.46538 0.8028 0.0
O436 O 0.41036 0.43893 0.7971 0.0
C437 C 0.40964 0.48865 0.93726 0.0
O438 O 0.44979 0.46533 0.85645 0.0
Co439 Co 0.439 0.51584 0.84691 0.0
O440 O 0.46739 0.49868 0.85519 0.0
C441 C 0.42569 0.49897 0.70621 0.0
C442 C 0.38991 0.4451 0.78331 0.0
C443 C 0.4677 0.47747 0.86032 0.0
O444 O 0.42359 0.47913 0.7319 0.0
O445 O 0.42915 0.51636 0.74445 0.0
O446 O 0.408 0.46689 0.93591 0.0
O447 O 0.41357 0.49763 0.8757 0.0
C448 C 0.17512 0.10637 0.88674 0.0
C449 C 0.15419 0.09867 0.91371 0.0
C450 C 0.16081 0.12032 0.02558 0.0
C451 C 0.18254 0.12646 0.00109 0.0
N452 N 0.21164 0.12259 0.91124 0.0
N453 N 0.12931 0.09476 0.01543 0.0
C454 C 0.19009 0.11854 0.93272 0.0
C455 C 0.14757 0.1048 0.98483 0.0
N456 N 0.18026 0.10313 0.81574 0.0
N457 N 0.15274 0.12925 0.08818 0.0
H458 H 0.11963 0.08281 0.98893 0.0
H459 H 0.12501 0.09656 0.06946 0.0
H460 H 0.16231 0.13954 0.12154 0.0
H461 H 0.13611 0.12769 0.1046 0.0
H462 H 0.19396 0.11049 0.79037 0.0
H463 H 0.16964 0.09482 0.78005 0.0
H464 H 0.219 0.11499 0.86664 0.0
H465 H 0.22285 0.13229 0.94067 0.0
C466 C 0.15326 0.93617 0.17662 0.0
C467 C 0.1461 0.93001 0.24718 0.0
C468 C 0.16832 0.89517 0.23657 0.0
C469 C 0.17401 0.90047 0.16392 0.0
N470 N 0.16892 0.92454 0.06143 0.0
N471 N 0.14459 0.90216 0.34069 0.0
C472 C 0.16577 0.92067 0.13328 0.0
C473 C 0.15287 0.90899 0.27571 0.0
N474 N 0.148 0.95688 0.1505 0.0
N475 N 0.17874 0.87766 0.27012 0.0
H476 H 0.13459 0.91229 0.37328 0.0
H477 H 0.14642 0.88594 0.36027 0.0
H478 H 0.19045 0.8674 0.24478 0.0
H479 H 0.17743 0.87449 0.32507 0.0
H480 H 0.15497 0.9636 0.10389 0.0
H481 H 0.13765 0.96806 0.17774 0.0
H482 H 0.16135 0.9376 0.03342 0.0
H483 H 0.17753 0.91349 0.02788 0.0
C484 C 0.36502 0.91015 0.39439 0.0
C485 C 0.37312 0.93055 0.42385 0.0
C486 C 0.35475 0.9211 0.5398 0.0
C487 C 0.3455 0.90145 0.50882 0.0
N488 N 0.3383 0.87959 0.40215 0.0
N489 N 0.37343 0.95678 0.523 0.0
C490 C 0.34978 0.89655 0.43495 0.0
C491 C 0.36716 0.93646 0.49591 0.0
N492 N 0.37185 0.90368 0.32727 0.0
N493 N 0.35271 0.92454 0.61231 0.0
H494 H 0.38379 0.96787 0.49562 0.0
H495 H 0.36725 0.96335 0.57097 0.0
H496 H 0.34394 0.91371 0.64611 0.0
H497 H 0.36122 0.93701 0.64028 0.0
H498 H 0.36898 0.8878 0.30626 0.0
H499 H 0.38161 0.91376 0.29391 0.0
H500 H 0.33853 0.87676 0.34684 0.0
H501 H 0.32681 0.8695 0.42909 0.0
C502 C 0.37983 0.09336 0.67661 0.0
C503 C 0.37914 0.09542 0.75302 0.0
C504 C 0.35172 0.1262 0.74072 0.0
C505 C 0.35152 0.12339 0.66445 0.0
N506 N 0.36301 0.10225 0.56051 0.0
N507 N 0.362 0.11142 0.85838 0.0
C508 C 0.36485 0.10629 0.63273 0.0
C509 C 0.36433 0.11114 0.78513 0.0
N510 N 0.39519 0.07931 0.64579 0.0
N511 N 0.34008 0.14355 0.7709 0.0
H512 H 0.37146 0.10126 0.89249 0.0
H513 H 0.34965 0.12046 0.88528 0.0
H514 H 0.32996 0.15433 0.74117 0.0
H515 H 0.34147 0.14822 0.82469 0.0
H516 H 0.39839 0.07864 0.59076 0.0
H517 H 0.40593 0.0692 0.67581 0.0
H518 H 0.37014 0.0885 0.53488 0.0
H519 H 0.353 0.11191 0.52649 0.0
C520 C 0.85293 0.91978 0.12116 0.0
C521 C 0.84502 0.8991 0.1492 0.0
C522 C 0.86476 0.90706 0.26373 0.0
C523 C 0.87147 0.92833 0.2374 0.0
N524 N 0.86971 0.95618 0.14368 0.0
N525 N 0.8395 0.87544 0.25295 0.0
C526 C 0.86474 0.93509 0.16701 0.0
C527 C 0.84997 0.89336 0.22199 0.0
N528 N 0.85016 0.92431 0.04956 0.0
N529 N 0.87257 0.89983 0.3289 0.0
H530 H 0.82822 0.86527 0.22542 0.0
H531 H 0.84024 0.87189 0.30777 0.0
H532 H 0.88224 0.90979 0.36299 0.0
H533 H 0.87072 0.88347 0.34716 0.0
H534 H 0.8576 0.9378 0.02348 0.0
H535 H 0.84188 0.91351 0.0144 0.0
H536 H 0.8631 0.9632 0.09697 0.0
H537 H 0.87939 0.96736 0.17343 0.0
C538 C 0.86707 0.11324 0.87257 0.0
C539 C 0.87882 0.09539 0.90623 0.0
C540 C 0.86041 0.10492 0.02197 0.0
C541 C 0.84981 0.12371 0.98952 0.0
N542 N 0.84392 0.14664 0.88436 0.0
N543 N 0.88914 0.07616 0.01525 0.0
C544 C 0.8535 0.12815 0.91494 0.0
C545 C 0.87603 0.09171 0.9815 0.0
N546 N 0.86833 0.11547 0.7994 0.0
N547 N 0.85556 0.09964 0.0919 0.0
H548 H 0.90067 0.06627 0.98784 0.0
H549 H 0.89 0.07419 0.07084 0.0
H550 H 0.84571 0.1097 0.1251 0.0
H551 H 0.86019 0.08463 0.11609 0.0
H552 H 0.85847 0.12644 0.76957 0.0
H553 H 0.8783 0.10513 0.76733 0.0
H554 H 0.84792 0.15253 0.83326 0.0
H555 H 0.83257 0.1569 0.91141 0.0
C556 C 0.67473 0.12611 0.72748 0.0
C557 C 0.68203 0.11968 0.65712 0.0
C558 C 0.66109 0.08416 0.67018 0.0
C559 C 0.65425 0.09038 0.74101 0.0
N560 N 0.6572 0.11561 0.84121 0.0
N561 N 0.68426 0.09144 0.56484 0.0
C562 C 0.66169 0.11099 0.77049 0.0
C563 C 0.67593 0.09829 0.62981 0.0
N564 N 0.68043 0.1467 0.75381 0.0
N565 N 0.65247 0.06518 0.63983 0.0
H566 H 0.69348 0.10183 0.53088 0.0
H567 H 0.68312 0.07512 0.54584 0.0
H568 H 0.64209 0.05417 0.66753 0.0
H569 H 0.6543 0.06092 0.58583 0.0
H570 H 0.67324 0.15384 0.79937 0.0
H571 H 0.69192 0.15724 0.72877 0.0
H572 H 0.66404 0.12899 0.86943 0.0
H573 H 0.64784 0.10497 0.87401 0.0
C574 C 0.65815 0.90223 0.36969 0.0
C575 C 0.647 0.92063 0.40223 0.0
C576 C 0.66274 0.90948 0.52055 0.0
C577 C 0.67517 0.89205 0.48706 0.0
N578 N 0.68679 0.8734 0.37803 0.0
N579 N 0.6391 0.94247 0.50814 0.0
C580 C 0.67331 0.88877 0.41119 0.0
C581 C 0.64945 0.92442 0.47761 0.0
N582 N 0.65384 0.89728 0.29915 0.0
N583 N 0.66295 0.91117 0.594 0.0
H584 H 0.628 0.95263 0.47983 0.0
H585 H 0.64217 0.94808 0.56023 0.0
H586 H 0.67244 0.90061 0.62673 0.0
H587 H 0.65265 0.92187 0.62326 0.0
H588 H 0.65918 0.88268 0.27393 0.0
H589 H 0.64345 0.90709 0.26678 0.0
H590 H 0.68846 0.87202 0.32244 0.0
H591 H 0.69765 0.8629 0.40602 0.0
C592 C 0.66895 0.62788 0.41763 0.0
C593 C 0.67359 0.62257 0.49099 0.0
C594 C 0.65135 0.58789 0.47748 0.0
C595 C 0.64531 0.59412 0.40598 0.0
N596 N 0.64601 0.62163 0.31128 0.0
N597 N 0.66621 0.59926 0.59392 0.0
C598 C 0.6533 0.61467 0.37737 0.0
C599 C 0.66406 0.60295 0.52159 0.0
N600 N 0.68058 0.64471 0.38464 0.0
N601 N 0.64488 0.56752 0.50359 0.0
H602 H 0.67493 0.61005 0.62801 0.0
H603 H 0.65774 0.58669 0.62149 0.0
H604 H 0.63435 0.55672 0.47546 0.0
H605 H 0.65099 0.56068 0.55125 0.0
H606 H 0.67997 0.64775 0.32949 0.0
H607 H 0.69256 0.65441 0.41087 0.0
H608 H 0.64886 0.63763 0.29122 0.0
H609 H 0.6358 0.61191 0.27817 0.0
C610 C 0.67181 0.41937 0.76038 0.0
C611 C 0.65171 0.42774 0.72923 0.0
C612 C 0.66017 0.40683 0.61734 0.0
C613 C 0.68086 0.39937 0.64704 0.0
N614 N 0.7075 0.4003 0.74479 0.0
N615 N 0.62877 0.43276 0.62364 0.0
C616 C 0.68705 0.40633 0.71779 0.0
C617 C 0.64641 0.42229 0.65655 0.0
N618 N 0.67578 0.4229 0.83203 0.0
N619 N 0.65354 0.39902 0.55152 0.0
H620 H 0.61848 0.44425 0.64996 0.0
H621 H 0.62543 0.43162 0.56876 0.0
H622 H 0.66369 0.38896 0.51919 0.0
H623 H 0.63751 0.4014 0.53059 0.0
H624 H 0.68865 0.41524 0.86073 0.0
H625 H 0.66509 0.43227 0.86475 0.0
H626 H 0.71439 0.40697 0.79157 0.0
H627 H 0.71829 0.38941 0.71817 0.0
C628 C 0.85736 0.41309 0.86851 0.0
C629 C 0.87718 0.42252 0.89836 0.0
C630 C 0.86989 0.402 0.01181 0.0
C631 C 0.84911 0.39415 0.9841 0.0
N632 N 0.82205 0.39368 0.88772 0.0
N633 N 0.90027 0.42893 0.00303 0.0
C634 C 0.84255 0.40023 0.91298 0.0
C635 C 0.88299 0.41763 0.97114 0.0
N636 N 0.85321 0.41551 0.79651 0.0
N637 N 0.8772 0.39448 0.07723 0.0
H638 H 0.90997 0.44076 0.97609 0.0
H639 H 0.90379 0.42813 0.05787 0.0
H640 H 0.86769 0.38392 0.10987 0.0
H641 H 0.89329 0.39736 0.09691 0.0
H642 H 0.84047 0.40715 0.7693 0.0
H643 H 0.86375 0.42444 0.76218 0.0
H644 H 0.81487 0.39979 0.84055 0.0
H645 H 0.81153 0.38298 0.9162 0.0
C646 C 0.85178 0.59977 0.11926 0.0
C647 C 0.84366 0.62008 0.14952 0.0
C648 C 0.86136 0.60985 0.26594 0.0
C649 C 0.8711 0.59061 0.23378 0.0
N650 N 0.87738 0.56819 0.12792 0.0
N651 N 0.84101 0.64483 0.252 0.0
C652 C 0.86659 0.58572 0.16008 0.0
C653 C 0.8486 0.62521 0.22297 0.0
N654 N 0.84541 0.59388 0.05112 0.0
N655 N 0.86361 0.61294 0.33856 0.0
H656 H 0.82998 0.65553 0.22544 0.0
H657 H 0.84629 0.65113 0.30138 0.0
H658 H 0.87279 0.60208 0.37123 0.0
H659 H 0.85508 0.62511 0.36779 0.0
H660 H 0.84825 0.57816 0.02888 0.0
H661 H 0.83604 0.60431 0.01767 0.0
H662 H 0.87717 0.56509 0.0728 0.0
H663 H 0.88795 0.55742 0.15594 0.0
C664 C 0.35171 0.39541 0.73171 0.0
C665 C 0.34597 0.40068 0.65914 0.0
C666 C 0.36655 0.43641 0.67141 0.0
C667 C 0.37395 0.4302 0.74176 0.0
N668 N 0.37522 0.40262 0.83615 0.0
N669 N 0.34996 0.42513 0.55715 0.0
C670 C 0.36705 0.40931 0.77082 0.0
C671 C 0.35375 0.42103 0.62857 0.0
N672 N 0.34151 0.37774 0.76495 0.0
N673 N 0.37204 0.45699 0.64484 0.0
H674 H 0.34088 0.41431 0.52416 0.0
H675 H 0.35718 0.43829 0.5288 0.0
H676 H 0.38295 0.46781 0.67109 0.0
H677 H 0.36492 0.46389 0.59876 0.0
H678 H 0.3428 0.37449 0.81984 0.0
H679 H 0.32996 0.36741 0.73921 0.0
H680 H 0.37341 0.38645 0.8561 0.0
H681 H 0.385 0.41287 0.86895 0.0
C682 C 0.37052 0.63074 0.48727 0.0
C683 C 0.34892 0.62383 0.51229 0.0
C684 C 0.35681 0.58733 0.45467 0.0
C685 C 0.37552 0.59621 0.4164 0.0
N686 N 0.39569 0.63006 0.3855 0.0
N687 N 0.31979 0.5953 0.49869 0.0
C688 C 0.38105 0.61902 0.42932 0.0
C689 C 0.34147 0.6021 0.48992 0.0
N690 N 0.38187 0.64762 0.52067 0.0
N691 N 0.35401 0.56479 0.46148 0.0
H692 H 0.30696 0.60527 0.51828 0.0
H693 H 0.31389 0.58029 0.47717 0.0
H694 H 0.36589 0.55323 0.44422 0.0
H695 H 0.34153 0.55782 0.49381 0.0
H696 H 0.39815 0.65212 0.50599 0.0
H697 H 0.37673 0.65452 0.56945 0.0
H698 H 0.39887 0.64713 0.391 0.0
H699 H 0.40216 0.62313 0.33843 0.0
C700 C 0.1722 0.60149 0.27647 0.0
C701 C 0.15083 0.59554 0.24821 0.0
C702 C 0.15928 0.61749 0.13791 0.0
C703 C 0.17996 0.62455 0.16824 0.0
N704 N 0.20539 0.62502 0.26916 0.0
N705 N 0.12371 0.59812 0.1518 0.0
C706 C 0.1863 0.61683 0.23801 0.0
C707 C 0.14428 0.60372 0.17898 0.0
N708 N 0.17907 0.59251 0.3405 0.0
N709 N 0.1545 0.62308 0.06814 0.0
H710 H 0.11333 0.58612 0.17495 0.0
H711 H 0.11642 0.60581 0.10736 0.0
H712 H 0.16499 0.63312 0.03692 0.0
H713 H 0.14109 0.61665 0.03897 0.0
H714 H 0.19542 0.59353 0.35983 0.0
H715 H 0.16868 0.58294 0.37339 0.0
H716 H 0.20978 0.62251 0.32276 0.0
H717 H 0.21639 0.63571 0.24265 0.0
C718 C 0.15339 0.43432 0.98532 0.0
C719 C 0.14663 0.42745 0.91513 0.0
C720 C 0.16923 0.39306 0.92942 0.0
C721 C 0.17454 0.39903 0.00183 0.0
N722 N 0.16836 0.42373 0.10234 0.0
N723 N 0.14547 0.39866 0.82455 0.0
C724 C 0.16578 0.4193 0.0306 0.0
C725 C 0.15364 0.40625 0.88881 0.0
N726 N 0.14796 0.45529 0.00898 0.0
N727 N 0.1802 0.3756 0.89736 0.0
H728 H 0.13507 0.40821 0.79145 0.0
H729 H 0.14766 0.38231 0.80649 0.0
H730 H 0.19227 0.36596 0.9235 0.0
H731 H 0.17904 0.37199 0.84264 0.0
H732 H 0.15461 0.46243 0.05545 0.0
H733 H 0.13786 0.46623 0.97968 0.0
H734 H 0.16044 0.43692 0.12869 0.0
H735 H 0.17678 0.41298 0.13736 0.0
C736 C 0.2507 0.18758 0.84761 0.0
C737 C 0.25874 0.17052 0.89383 0.0
C738 C 0.27618 0.15134 0.79182 0.0
C739 C 0.27077 0.16997 0.74795 0.0
N740 N 0.25593 0.20744 0.73579 0.0
N741 N 0.27953 0.13631 0.91237 0.0
C742 C 0.25872 0.18848 0.77607 0.0
C743 C 0.27166 0.15244 0.86665 0.0
N744 N 0.23532 0.20284 0.87158 0.0
N745 N 0.28465 0.13228 0.7614 0.0
H746 H 0.27488 0.13537 0.96644 0.0
H747 H 0.29147 0.12445 0.89762 0.0
H748 H 0.2877 0.13069 0.70636 0.0
H749 H 0.28687 0.11736 0.78936 0.0
H750 H 0.22711 0.21406 0.8377 0.0
H751 H 0.22907 0.20306 0.92389 0.0
H752 H 0.24979 0.2224 0.75678 0.0
H753 H 0.26165 0.20904 0.68303 0.0
C754 C 0.08158 1.0044 0.09591 0.0
C755 C 0.10073 1.00561 0.14081 0.0
C756 C 0.12396 0.01789 0.03996 0.0
C757 C 0.10447 0.0182 0.99641 0.0
N758 N 0.06433 0.01505 0.98285 0.0
N759 N 0.13948 0.01562 0.16029 0.0
C760 C 0.08314 0.01225 0.02419 0.0
C761 C 0.12178 0.01295 0.11419 0.0
N762 N 0.06197 0.99576 0.12201 0.0
N763 N 0.14456 0.02161 0.00976 0.0
H764 H 0.13884 1.01108 0.2145 0.0
H765 H 0.15444 0.02343 0.14606 0.0
H766 H 0.14671 0.02569 0.95559 0.0
H767 H 0.15965 0.01916 0.03682 0.0
H768 H 0.04811 0.9921 0.09002 0.0
H769 H 0.05999 0.99081 0.17543 0.0
H770 H 0.04805 0.01337 0.00239 0.0
H771 H 0.06483 0.02081 0.92986 0.0
C772 C 0.24353 0.84033 0.32069 0.0
C773 C 0.2522 0.85729 0.27534 0.0
C774 C 0.2712 0.87465 0.37783 0.0
C775 C 0.26509 0.85598 0.42046 0.0
N776 N 0.24874 0.81908 0.42978 0.0
N777 N 0.27474 0.89042 0.25835 0.0
C778 C 0.25203 0.83832 0.39139 0.0
C779 C 0.26624 0.8744 0.3032 0.0
N780 N 0.22716 0.82614 0.29677 0.0
N781 N 0.28073 0.89303 0.40927 0.0
H782 H 0.26983 0.89209 0.20471 0.0
H783 H 0.28742 0.90145 0.27335 0.0
H784 H 0.28404 0.89407 0.46428 0.0
H785 H 0.28356 0.90802 0.38233 0.0
H786 H 0.21859 0.81517 0.33052 0.0
H787 H 0.22052 0.82663 0.24499 0.0
H788 H 0.24176 0.80466 0.40766 0.0
H789 H 0.25491 0.8166 0.48166 0.0
C790 C 0.44192 0.999 0.6572 0.0
C791 C 0.42351 0.01119 0.68547 0.0
C792 C 0.40514 0.01136 0.56837 0.0
C793 C 0.42347 0.99896 0.54049 0.0
N794 N 0.45546 0.97511 0.56162 0.0
N795 N 0.38525 0.024 0.67451 0.0
C796 C 0.44061 0.99078 0.58603 0.0
C797 C 0.40436 0.01592 0.64299 0.0
N798 N 0.4611 0.99631 0.69674 0.0
N799 N 0.38863 0.01891 0.52332 0.0
H800 H 0.38398 0.02709 0.72964 0.0
H801 H 0.37006 0.02581 0.64746 0.0
H802 H 0.3876 0.01427 0.46925 0.0
H803 H 0.37651 0.03052 0.53867 0.0
H804 H 0.47592 0.98986 0.6754 0.0
H805 H 0.46295 1.0023 0.74911 0.0
H806 H 0.46712 0.96717 0.59469 0.0
H807 H 0.45447 0.96817 0.51032 0.0
C808 C 0.7728 0.86919 0.28213 0.0
C809 C 0.76748 0.85034 0.23912 0.0
C810 C 0.74801 0.83282 0.34001 0.0
C811 C 0.75556 0.85039 0.38509 0.0
N812 N 0.77615 0.88478 0.40195 0.0
N813 N 0.75372 0.81244 0.22929 0.0
C814 C 0.76837 0.86839 0.35705 0.0
C815 C 0.756 0.83169 0.26848 0.0
N816 N 0.78103 0.88819 0.25082 0.0
N817 N 0.73315 0.81724 0.36508 0.0
H818 H 0.75956 0.81068 0.17671 0.0
H819 H 0.74797 0.79746 0.25109 0.0
H820 H 0.72718 0.81696 0.41773 0.0
H821 H 0.72518 0.80566 0.33191 0.0
H822 H 0.78313 0.90325 0.27813 0.0
H823 H 0.78399 0.88959 0.19569 0.0
H824 H 0.78799 0.89664 0.38654 0.0
H825 H 0.77161 0.88593 0.45607 0.0
C826 C 0.90391 0.01839 0.04026 0.0
C827 C 0.92562 0.02029 0.00977 0.0
C828 C 0.94304 1.00939 0.12331 0.0
C829 C 0.92137 1.00862 0.15469 0.0
N830 N 0.88155 0.01552 0.14881 0.0
N831 N 0.96589 0.0206 0.02152 0.0
C832 C 0.90187 0.01405 0.11486 0.0
C833 C 0.94524 0.01666 0.05112 0.0
N834 N 0.88532 0.02002 0.99734 0.0
N835 N 0.96136 1.00272 0.16225 0.0
H836 H 0.96806 0.02547 0.96805 0.0
H837 H 0.98078 0.02058 0.05076 0.0
H838 H 0.96044 0.99805 0.21627 0.0
H839 H 0.97726 1.00047 0.14029 0.0
H840 H 0.86916 0.01624 0.01467 0.0
H841 H 0.88616 0.02383 0.94259 0.0
H842 H 0.86715 0.02186 0.12454 0.0
H843 H 0.87937 0.01178 0.20323 0.0
C844 C 0.76371 0.1497 0.87292 0.0
C845 C 0.76642 0.1702 0.91012 0.0
C846 C 0.75674 0.19138 0.80226 0.0
C847 C 0.75332 0.17086 0.76572 0.0
N848 N 0.74949 0.13074 0.76691 0.0
N849 N 0.76232 0.2103 0.9163 0.0
C850 C 0.75548 0.15005 0.80139 0.0
C851 C 0.76191 0.19101 0.87666 0.0
N852 N 0.76953 0.13001 0.9055 0.0
N853 N 0.75563 0.21113 0.76522 0.0
H854 H 0.76674 0.21073 0.97063 0.0
H855 H 0.75688 0.22572 0.89702 0.0
H856 H 0.75092 0.21209 0.71123 0.0
H857 H 0.76052 0.22647 0.78649 0.0
H858 H 0.77035 0.11475 0.87868 0.0
H859 H 0.77505 0.12908 0.95873 0.0
H860 H 0.74846 0.11526 0.79228 0.0
H861 H 0.74382 0.13042 0.71381 0.0
C862 C 0.58623 0.02411 0.58501 0.0
C863 C 0.60469 0.01778 0.62835 0.0
C864 C 0.62361 1.00194 0.52329 0.0
C865 C 0.60358 1.00485 0.4833 0.0
N866 N 0.5648 0.01653 0.47722 0.0
N867 N 0.64101 1.00034 0.64098 0.0
C868 C 0.58461 0.01547 0.51426 0.0
C869 C 0.62345 1.0066 0.59811 0.0
N870 N 0.57048 0.03865 0.61089 0.0
N871 N 0.64295 0.99568 0.48919 0.0
H872 H 0.6422 1.00485 0.69513 0.0
H873 H 0.65382 0.98974 0.6238 0.0
H874 H 0.64369 0.99233 0.43411 0.0
H875 H 0.65859 0.99552 0.51415 0.0
H876 H 0.55769 0.04536 0.57936 0.0
H877 H 0.57165 0.04597 0.66165 0.0
H878 H 0.54977 0.02176 0.50041 0.0
H879 H 0.56287 1.01037 0.42505 0.0
C880 C 0.76892 0.64839 0.3638 0.0
C881 C 0.75618 0.66596 0.39487 0.0
C882 C 0.75801 0.68723 0.28309 0.0
C883 C 0.7688 0.66879 0.24991 0.0
N884 N 0.7816 0.63049 0.25417 0.0
N885 N 0.73537 0.70049 0.38213 0.0
C886 C 0.77364 0.64902 0.28906 0.0
C887 C 0.74965 0.68487 0.35387 0.0
N888 N 0.77637 0.63109 0.40561 0.0
N889 N 0.75663 0.70731 0.24804 0.0
H890 H 0.72922 0.69983 0.43458 0.0
H891 H 0.72812 0.71321 0.3517 0.0
H892 H 0.76295 0.70986 0.19633 0.0
H893 H 0.75124 0.72202 0.27263 0.0
H894 H 0.78808 0.61934 0.38812 0.0
H895 H 0.77184 0.62914 0.4595 0.0
H896 H 0.78326 0.61488 0.27839 0.0
H897 H 0.78482 0.63014 0.19907 0.0
C898 C 0.57604 0.5169 0.53415 0.0
C899 C 0.59606 0.51649 0.49326 0.0
C900 C 0.61761 0.50386 0.59724 0.0
C901 C 0.59735 0.50298 0.63696 0.0
N902 N 0.55699 0.50504 0.64296 0.0
N903 N 0.6353 0.50723 0.48042 0.0
C904 C 0.57643 0.50852 0.6054 0.0
C905 C 0.6167 0.50924 0.52317 0.0
N906 N 0.5568 0.52551 0.50496 0.0
N907 N 0.63773 0.50046 0.63106 0.0
H908 H 0.63561 0.51216 0.42654 0.0
H909 H 0.65007 0.49947 0.49689 0.0
H910 H 0.63905 0.49607 0.68524 0.0
H911 H 0.65321 0.50345 0.60706 0.0
H912 H 0.54222 0.52844 0.53432 0.0
H913 H 0.55584 0.53123 0.45198 0.0
H914 H 0.54105 0.50662 0.62062 0.0
H915 H 0.55675 0.49874 0.69536 0.0
C916 C 0.76026 0.369 0.79239 0.0
C917 C 0.75421 0.34853 0.75938 0.0
C918 C 0.76181 0.32813 0.87052 0.0
C919 C 0.76638 0.34882 0.9046 0.0
N920 N 0.76578 0.38916 0.90393 0.0
N921 N 0.74649 0.30902 0.76648 0.0
C922 C 0.76435 0.36936 0.86734 0.0
C923 C 0.75406 0.32819 0.79844 0.0
N924 N 0.76296 0.38786 0.75168 0.0
N925 N 0.76559 0.3085 0.90642 0.0
H926 H 0.7415 0.30836 0.71271 0.0
H927 H 0.74369 0.29415 0.79413 0.0
H928 H 0.77097 0.30788 0.95985 0.0
H929 H 0.76493 0.29283 0.88215 0.0
H930 H 0.76989 0.4026 0.77156 0.0
H931 H 0.7597 0.38833 0.6965 0.0
H932 H 0.76199 0.40458 0.88089 0.0
H933 H 0.76917 0.39005 0.95898 0.0
C934 C 0.90232 0.51181 0.09729 0.0
C935 C 0.92311 0.51803 0.12841 0.0
C936 C 0.94283 0.50994 0.01628 0.0
C937 C 0.92187 0.50505 0.984 0.0
N938 N 0.88146 0.5038 0.98827 0.0
N939 N 0.96271 0.52551 0.11853 0.0
C940 C 0.90151 0.50665 0.02293 0.0
C941 C 0.94327 0.51789 0.08808 0.0
N942 N 0.88355 0.51021 0.13942 0.0
N943 N 0.96228 0.50625 0.97889 0.0
H944 H 0.96372 0.53067 0.17206 0.0
H945 H 0.9775 0.52813 0.08997 0.0
H946 H 0.96255 0.50061 0.92572 0.0
H947 H 0.9782 0.50719 0.00167 0.0
H948 H 0.8685 0.50327 0.12196 0.0
H949 H 0.88334 0.5147 0.19371 0.0
H950 H 0.86596 0.50725 0.01162 0.0
H951 H 0.88029 0.49935 0.93407 0.0
C952 C 0.25853 0.33449 0.79264 0.0
C953 C 0.26976 0.35274 0.76005 0.0
C954 C 0.26959 0.37313 0.87402 0.0
C955 C 0.25656 0.35571 0.90453 0.0
N956 N 0.23507 0.32169 0.89017 0.0
N957 N 0.28292 0.39089 0.76499 0.0
C958 C 0.24985 0.33699 0.86296 0.0
C959 C 0.27462 0.37246 0.79947 0.0
N960 N 0.25706 0.31442 0.75754 0.0
N961 N 0.27702 0.39036 0.91619 0.0
H962 H 0.28642 0.39119 0.71005 0.0
H963 H 0.28461 0.40648 0.78933 0.0
H964 H 0.27221 0.3924 0.96979 0.0
H965 H 0.28892 0.40196 0.89926 0.0
H966 H 0.25134 0.29981 0.78192 0.0
H967 H 0.26361 0.31174 0.70619 0.0
H968 H 0.22775 0.30915 0.85913 0.0
H969 H 0.22854 0.3225 0.94211 0.0
C970 C 0.4433 0.50768 0.51325 0.0
C971 C 0.4222 0.51255 0.48164 0.0
C972 C 0.40342 0.50827 0.59729 0.0
C973 C 0.42426 0.50219 0.62832 0.0
N974 N 0.46357 0.49337 0.61671 0.0
N975 N 0.38182 0.51242 0.48785 0.0
C976 C 0.44408 0.50094 0.58639 0.0
C977 C 0.40212 0.51134 0.52196 0.0
N978 N 0.46255 0.51032 0.47405 0.0
N979 N 0.3851 0.51191 0.64006 0.0
H980 H 0.3803 0.51443 0.43225 0.0
H981 H 0.36661 0.50933 0.51358 0.0
H982 H 0.38525 0.50934 0.69563 0.0
H983 H 0.3702 0.51888 0.62118 0.0
H984 H 0.47858 0.50958 0.49613 0.0
H985 H 0.46255 0.51466 0.41966 0.0
H986 H 0.47803 0.48981 0.58746 0.0
H987 H 0.46488 0.48924 0.67109 0.0
C988 C 0.27097 0.65115 0.3856 0.0
C989 C 0.2667 0.67045 0.42764 0.0
C990 C 0.24842 0.68861 0.3256 0.0
C991 C 0.25558 0.6707 0.2813 0.0
N992 N 0.27409 0.63507 0.26633 0.0
N993 N 0.25407 0.70882 0.43667 0.0
C994 C 0.26702 0.65199 0.31046 0.0
C995 C 0.25599 0.68949 0.39764 0.0
N996 N 0.2778 0.63181 0.41813 0.0
N997 N 0.23431 0.70468 0.29918 0.0
H998 H 0.25938 0.71034 0.48988 0.0
H999 H 0.24899 0.72398 0.41444 0.0
H1000 H 0.22847 0.7048 0.24634 0.0
H1001 H 0.22669 0.71676 0.33138 0.0
H1002 H 0.27923 0.61655 0.39152 0.0
H1003 H 0.28001 0.63051 0.47365 0.0
H1004 H 0.28489 0.62239 0.28292 0.0
H1005 H 0.27004 0.63428 0.21174 0.0
C1006 C 0.12113 0.5214 0.09717 0.0
C1007 C 0.10025 0.52437 0.1323 0.0
C1008 C 0.07985 0.51411 0.02325 0.0
C1009 C 0.10073 0.51123 0.98798 0.0
N1010 N 0.14094 0.5155 0.98468 0.0
N1011 N 0.05997 0.52748 0.12886 0.0
C1012 C 0.12133 0.51594 0.02293 0.0
C1013 C 0.07963 0.52195 0.09521 0.0
N1014 N 0.14064 0.52295 0.13563 0.0
N1015 N 0.06035 0.50879 0.98832 0.0
H1016 H 0.05933 0.533 0.18211 0.0
H1017 H 0.04448 0.52822 0.10311 0.0
H1018 H 0.05987 0.50389 0.93445 0.0
H1019 H 0.04474 0.50805 0.01324 0.0
H1020 H 0.15629 0.51835 0.1156 0.0
H1021 H 0.14111 0.52782 0.18955 0.0
H1022 H 0.15625 0.52103 0.00487 0.0
H1023 H 0.14174 0.51089 0.93055 0.0
C1024 C 0.24111 0.2534 0.06301 0.0
C1025 C 0.23064 0.24063 0.11798 0.0
C1026 C 0.21558 0.27555 0.17042 0.0
C1027 C 0.22936 0.28821 0.12317 0.0
N1028 N 0.2553 0.28923 0.0233 0.0
N1029 N 0.20683 0.23909 0.22228 0.0
C1030 C 0.24185 0.27711 0.06846 0.0
C1031 C 0.21723 0.25157 0.17062 0.0
N1032 N 0.25028 0.2427 0.00492 0.0
N1033 N 0.20098 0.28648 0.2148 0.0
H1034 H 0.20673 0.22167 0.22101 0.0
H1035 H 0.19895 0.24585 0.26729 0.0
H1036 H 0.19933 0.30383 0.21432 0.0
H1037 H 0.18925 0.27847 0.24723 0.0
H1038 H 0.25581 0.25089 0.95877 0.0
H1039 H 0.25054 0.22534 -0.0 0.0
H1040 H 0.26718 0.28213 0.98916 0.0
H1041 H 0.25553 0.30665 0.02245 0.0
C1042 C 0.02048 0.97391 0.44473 0.0
C1043 C 0.03111 0.97112 0.37737 0.0
C1044 C 0.99431 0.96443 0.32096 0.0
C1045 C 0.98355 0.97196 0.38518 0.0
N1046 N 0.9864 0.98277 0.50987 0.0
N1047 N 0.02905 0.96145 0.25229 0.0
C1048 C 0.99668 0.976 0.44792 0.0
C1049 C 0.01827 0.96517 0.31608 0.0
N1050 N 0.03335 0.97453 0.50554 0.0
N1051 N 0.98172 0.95713 0.26413 0.0
H1052 H 0.0465 0.96035 0.24896 0.0
H1053 H 0.021 0.96008 0.20279 0.0
H1054 H 0.96427 0.957 0.26421 0.0
H1055 H 0.98846 0.94963 0.21844 0.0
H1056 H 0.02683 0.97494 0.55751 0.0
H1057 H 0.0507 0.9722 0.50368 0.0
H1058 H 0.99494 0.98873 0.55482 0.0
H1059 H 0.96903 0.98336 0.51487 0.0
C1060 C 0.31527 0.77557 0.68822 0.0
C1061 C 0.30511 0.78668 0.62919 0.0
C1062 C 0.30112 0.75082 0.56589 0.0
C1063 C 0.30672 0.73955 0.63049 0.0
N1064 N 0.32456 0.74009 0.74604 0.0
N1065 N 0.29218 0.786 0.50663 0.0
C1066 C 0.3157 0.75165 0.68948 0.0
C1067 C 0.29957 0.7746 0.56584 0.0
N1068 N 0.3246 0.78801 0.74206 0.0
N1069 N 0.29747 0.73858 0.50486 0.0
H1070 H 0.29271 0.80342 0.50359 0.0
H1071 H 0.28539 0.7785 0.46106 0.0
H1072 H 0.29934 0.72122 0.50386 0.0
H1073 H 0.29438 0.74542 0.45436 0.0
H1074 H 0.33247 0.7814 0.78723 0.0
H1075 H 0.32583 0.80536 0.73852 0.0
H1076 H 0.32974 0.74728 0.79421 0.0
H1077 H 0.32743 0.72292 0.74297 0.0
C1078 C 0.50595 0.05763 0.94624 0.0
C1079 C 0.49156 0.051 0.88925 0.0
C1080 C 0.52431 0.04209 0.81443 0.0
C1081 C 0.53883 0.04821 0.87189 0.0
N1082 N 0.54365 0.06858 0.98229 0.0
N1083 N 0.48704 0.04378 0.76244 0.0
C1084 C 0.52969 0.05827 0.93461 0.0
C1085 C 0.5008 0.04572 0.82095 0.0
N1086 N 0.49696 0.06263 0.01189 0.0
N1087 N 0.53286 0.03163 0.755 0.0
H1088 H 0.46974 0.04616 0.7654 0.0
H1089 H 0.49292 0.04198 0.70996 0.0
H1090 H 0.54998 0.02897 0.7476 0.0
H1091 H 0.52295 0.02421 0.71546 0.0
H1092 H 0.50658 0.06518 0.05797 0.0
H1093 H 0.47966 0.06319 0.02056 0.0
H1094 H 0.53801 0.07743 0.02708 0.0
H1095 H 0.56073 0.07045 0.97188 0.0
C1096 C 0.23672 0.77581 0.1127 0.0
C1097 C 0.22634 0.78717 0.05442 0.0
C1098 C 0.21437 0.75076 0.00429 0.0
C1099 C 0.228 0.73959 0.05581 0.0
N1100 N 0.2514 0.74122 0.16176 0.0
N1101 N 0.20304 0.78611 0.94913 0.0
C1102 C 0.2386 0.75208 0.11152 0.0
C1103 C 0.21418 0.7748 0.00198 0.0
N1104 N 0.24475 0.78792 0.16963 0.0
N1105 N 0.20177 0.73834 0.95772 0.0
H1106 H 0.20122 0.80344 0.95026 0.0
H1107 H 0.19576 0.7786 0.90437 0.0
H1108 H 0.20152 0.72092 0.95945 0.0
H1109 H 0.19046 0.74504 0.92097 0.0
H1110 H 0.2502 0.78089 0.21781 0.0
H1111 H 0.24426 0.80532 0.17113 0.0
H1112 H 0.26211 0.74924 0.19768 0.0
H1113 H 0.25221 0.72386 0.16566 0.0
C1114 C 0.49714 0.96526 0.21644 0.0
C1115 C 0.48733 0.97157 0.28304 0.0
C1116 C 0.52452 0.97013 0.34106 0.0
C1117 C 0.53455 0.96695 0.27271 0.0
N1118 N 0.53084 0.9539 0.15151 0.0
N1119 N 0.49126 0.9801 0.40928 0.0
C1120 C 0.52093 0.96219 0.21205 0.0
C1121 C 0.50088 0.97344 0.34594 0.0
N1122 N 0.48377 0.96328 0.15704 0.0
N1123 N 0.53774 0.97001 0.40121 0.0
H1124 H 0.47404 0.98249 0.41489 0.0
H1125 H 0.50021 0.98449 0.45522 0.0
H1126 H 0.55505 0.96758 0.3989 0.0
H1127 H 0.5316 0.97033 0.45361 0.0
H1128 H 0.48978 0.961 0.10499 0.0
H1129 H 0.46633 0.96464 0.15987 0.0
H1130 H 0.52221 0.94907 0.10541 0.0
H1131 H 0.54777 0.94955 0.15102 0.0
C1132 C 0.31763 0.24978 0.47693 0.0
C1133 C 0.30999 0.2373 0.53686 0.0
C1134 C 0.30539 0.27214 0.6056 0.0
C1135 C 0.30805 0.28447 0.541 0.0
N1136 N 0.32025 0.28605 0.41796 0.0
N1137 N 0.3002 0.23584 0.66232 0.0
C1138 C 0.31557 0.27359 0.47758 0.0
C1139 C 0.30539 0.24831 0.60297 0.0
N1140 N 0.32741 0.23877 0.42083 0.0
N1141 N 0.3028 0.28342 0.66908 0.0
H1142 H 0.30167 0.21845 0.66287 0.0
H1143 H 0.29414 0.24246 0.71033 0.0
H1144 H 0.30327 0.30085 0.6718 0.0
H1145 H 0.30203 0.27581 0.71934 0.0
H1146 H 0.33433 0.24663 0.37609 0.0
H1147 H 0.3308 0.2217 0.42358 0.0
H1148 H 0.32321 0.27931 0.36718 0.0
H1149 H 0.32105 0.30346 0.41992 0.0
C1150 C 1.00489 0.05377 0.70819 0.0
C1151 C 0.99425 0.05504 0.77607 0.0
C1152 C 0.03109 0.06006 0.83416 0.0
C1153 C 0.04184 0.05441 0.76801 0.0
N1154 N 0.03905 0.04661 0.64109 0.0
N1155 N 0.99638 0.06104 0.90358 0.0
C1156 C 0.02872 0.05185 0.70448 0.0
C1157 C 1.00713 0.05922 0.83884 0.0
N1158 N 0.992 0.05436 0.6474 0.0
N1159 N 0.04372 0.06556 0.89298 0.0
H1160 H 0.97892 0.0618 0.90754 0.0
H1161 H 1.00447 0.06106 0.9532 0.0
H1162 H 0.06118 0.06544 0.89299 0.0
H1163 H 0.03704 0.07177 0.94071 0.0
H1164 H 0.9985 0.05512 0.59546 0.0
H1165 H 0.97462 0.05637 0.64971 0.0
H1166 H 0.03056 0.04177 0.59467 0.0
H1167 H 0.05643 0.04613 0.63613 0.0
C1168 C 0.80433 0.74851 0.09494 0.0
C1169 C 0.80664 0.73643 0.0297 0.0
C1170 C 0.81444 0.77149 0.96549 0.0
C1171 C 0.80714 0.78359 0.02672 0.0
N1172 N 0.79892 0.78456 0.15334 0.0
N1173 N 0.81795 0.73535 0.90582 0.0
C1174 C 0.8037 0.77234 0.09306 0.0
C1175 C 0.81327 0.74762 0.9659 0.0
N1176 N 0.80256 0.73699 0.15822 0.0
N1177 N 0.82285 0.78296 0.90807 0.0
H1178 H 0.8194 0.71798 0.90771 0.0
H1179 H 0.82043 0.74217 0.85493 0.0
H1180 H 0.82537 0.8002 0.91029 0.0
H1181 H 0.82933 0.77547 0.862 0.0
H1182 H 0.80198 0.74442 0.20881 0.0
H1183 H 0.80343 0.71956 0.16025 0.0
H1184 H 0.79373 0.77773 0.20203 0.0
H1185 H 0.7999 0.80198 0.15405 0.0
C1186 C 0.71301 0.24752 0.59838 0.0
C1187 C 0.71779 0.23554 0.53426 0.0
C1188 C 0.71865 0.27059 0.46583 0.0
C1189 C 0.7172 0.28261 0.53146 0.0
N1190 N 0.70566 0.28356 0.65508 0.0
N1191 N 0.71839 0.23438 0.40529 0.0
C1192 C 0.7117 0.27133 0.59609 0.0
C1193 C 0.7182 0.24674 0.46713 0.0
N1194 N 0.71103 0.2361 0.66175 0.0
N1195 N 0.7212 0.28218 0.40305 0.0
H1196 H 0.71723 0.21697 0.40621 0.0
H1197 H 0.71796 0.24113 0.35372 0.0
H1198 H 0.71956 0.29954 0.40116 0.0
H1199 H 0.72473 0.27487 0.35351 0.0
H1200 H 0.71009 0.24367 0.71209 0.0
H1201 H 0.71083 0.21865 0.66373 0.0
H1202 H 0.70024 0.27664 0.70341 0.0
H1203 H 0.70437 0.30096 0.65332 0.0
C1204 C 0.79997 0.27135 0.20462 0.0
C1205 C 0.80291 0.28324 0.13895 0.0
C1206 C 0.80741 0.24726 0.07485 0.0
C1207 C 0.80376 0.23547 0.1404 0.0
N1208 N 0.80263 0.23617 0.26941 0.0
N1209 N 0.81439 0.28264 0.01433 0.0
C1210 C 0.80207 0.24758 0.20583 0.0
C1211 C 0.80855 0.27122 0.07522 0.0
N1212 N 0.79425 0.28278 0.2656 0.0
N1213 N 0.80809 0.23572 0.01134 0.0
H1214 H 0.81438 0.30001 0.01103 0.0
H1215 H 0.82097 0.275 0.9686 0.0
H1216 H 0.80797 0.21832 0.00859 0.0
H1217 H 0.80745 0.24328 0.96092 0.0
H1218 H 0.78893 0.27515 0.31298 0.0
H1219 H 0.79374 0.30016 0.26751 0.0
H1220 H 0.80349 0.24377 0.31975 0.0
H1221 H 0.80446 0.21887 0.271 0.0
C1222 C 0.74169 0.74474 0.56116 0.0
C1223 C 0.72837 0.73325 0.61292 0.0
C1224 C 0.7142 0.76951 0.6579 0.0
C1225 C 0.72856 0.78085 0.60892 0.0
N1226 N 0.75076 0.7795 0.50071 0.0
N1227 N 0.69823 0.73412 0.69881 0.0
C1228 C 0.7406 0.76846 0.55635 0.0
C1229 C 0.71332 0.74549 0.65738 0.0
N1230 N 0.75607 0.73296 0.51794 0.0
N1231 N 0.70203 0.78168 0.7063 0.0
H1232 H 0.69721 0.71673 0.69856 0.0
H1233 H 0.68564 0.74174 0.72887 0.0
H1234 H 0.70117 0.79907 0.70423 0.0
H1235 H 0.69324 0.77476 0.74923 0.0
H1236 H 0.76853 0.74032 0.4867 0.0
H1237 H 0.75637 0.71556 0.51563 0.0
H1238 H 0.75754 0.77158 0.45578 0.0
H1239 H 0.75068 0.79687 0.49606 0.0
C1240 C 0.52668 0.45937 0.81338 0.0
C1241 C 0.5376 0.46601 0.87819 0.0
C1242 C 0.50089 0.46912 0.93819 0.0
C1243 C 0.49022 0.46703 0.87044 0.0
N1244 N 0.49165 0.45676 0.74579 0.0
N1245 N 0.53576 0.47403 0.0048 0.0
C1246 C 0.50275 0.46054 0.80903 0.0
C1247 C 0.52482 0.46947 0.94181 0.0
N1248 N 0.53921 0.4527 0.75557 0.0
N1249 N 0.48792 0.47095 -0.00146 0.0
H1250 H 0.5532 0.47301 0.0092 0.0
H1251 H 0.52786 0.47908 0.05201 0.0
H1252 H 0.47045 0.47002 0.99618 0.0
H1253 H 0.4942 0.47155 0.05074 0.0
H1254 H 0.53253 0.44644 0.70798 0.0
H1255 H 0.55665 0.45196 0.75639 0.0
H1256 H 0.4994 0.45448 0.69617 0.0
H1257 H 0.47418 0.45616 0.74306 0.0
C1258 C 0.99899 0.55633 0.42853 0.0
C1259 C 0.98784 0.55745 0.36137 0.0
C1260 C 0.02383 0.56399 0.3008 0.0
C1261 C 0.03502 0.55763 0.36493 0.0
N1262 N 0.03431 0.55154 0.49259 0.0
N1263 N 0.98846 0.5662 0.23532 0.0
C1264 C 0.02287 0.5554 0.43011 0.0
C1265 C 0.99992 0.56304 0.29818 0.0
N1266 N 0.98651 0.55607 0.49015 0.0
N1267 N 0.03623 0.57036 0.24249 0.0
H1268 H 0.97096 0.56677 0.2337 0.0
H1269 H 0.99601 0.56797 0.18517 0.0
H1270 H 0.05371 0.57127 0.24432 0.0
H1271 H 0.02942 0.57623 0.19454 0.0
H1272 H 0.99326 0.55616 0.54179 0.0
H1273 H 0.96909 0.55784 0.4889 0.0
H1274 H 0.02674 0.54722 0.54109 0.0
H1275 H 0.05176 0.5526 0.49517 0.0
C1276 C 0.99946 0.46542 0.81429 0.0
C1277 C 0.98779 0.47209 0.75083 0.0
C1278 C 0.02408 0.47502 0.68746 0.0
C1279 C 0.03574 0.4723 0.75349 0.0
N1280 N 0.03448 0.46534 0.88134 0.0
N1281 N 0.98914 0.48328 0.6263 0.0
C1282 C 0.02345 0.46706 0.81704 0.0
C1283 C 1.0002 0.47659 0.687 0.0
N1284 N 0.98766 0.45809 0.8728 0.0
N1285 N 0.03604 0.47596 0.62484 0.0
H1286 H 0.97173 0.48344 0.62276 0.0
H1287 H 0.99708 0.48976 0.58097 0.0
H1288 H 0.05346 0.47471 0.62418 0.0
H1289 H 0.02881 0.47582 0.57382 0.0
H1290 H 0.99512 0.45068 0.91749 0.0
H1291 H 0.97022 0.45772 0.87485 0.0
H1292 H 0.02644 0.46487 0.93105 0.0
H1293 H 0.05189 0.4657 0.88583 0.0
C1294 C 0.49729 0.5566 0.31255 0.0
C1295 C 0.48536 0.55165 0.24803 0.0
C1296 C 0.52121 0.54926 0.18216 0.0
C1297 C 0.5331 0.55299 0.24725 0.0
N1298 N 0.53258 0.5668 0.36918 0.0
N1299 N 0.48554 0.54908 0.11893 0.0
C1300 C 0.52114 0.5591 0.31046 0.0
C1301 C 0.49727 0.54995 0.18194 0.0
N1302 N 0.4862 0.55707 0.37698 0.0
N1303 N 0.53296 0.5442 0.12106 0.0
H1304 H 0.4681 0.54967 0.11791 0.0
H1305 H 0.49287 0.54971 0.06813 0.0
H1306 H 0.55044 0.54518 0.11869 0.0
H1307 H 0.52561 0.53838 0.0738 0.0
H1308 H 0.49428 0.55738 0.42667 0.0
H1309 H 0.46886 0.55555 0.38168 0.0
H1310 H 0.52476 0.5736 0.41429 0.0
H1311 H 0.54995 0.56848 0.37026 0.0
C1312 C 0.26101 0.13697 0.29574 0.0
C1313 C 0.25305 0.15809 0.27154 0.0
C1314 C 0.28096 0.17665 0.34773 0.0
C1315 C 0.28715 0.15593 0.37853 0.0
N1316 N 0.28156 0.11618 0.38712 0.0
N1317 N 0.25173 0.19786 0.28861 0.0
C1318 C 0.27674 0.13598 0.35391 0.0
C1319 C 0.26197 0.17789 0.30173 0.0
N1320 N 0.25379 0.11792 0.26247 0.0
N1321 N 0.29362 0.19509 0.36137 0.0
H1322 H 0.23677 0.19877 0.25976 0.0
H1323 H 0.25644 0.21277 0.31338 0.0
H1324 H 0.30835 0.19393 0.39121 0.0
H1325 H 0.29103 0.21049 0.33645 0.0
H1326 H 0.26075 0.10222 0.27195 0.0
H1327 H 0.24151 0.11805 0.22242 0.0
H1328 H 0.27273 0.10146 0.37763 0.0
H1329 H 0.29385 0.11481 0.42693 0.0
C1330 C 0.10057 0.01936 0.52984 0.0
C1331 C 0.11618 1.00213 0.51379 0.0
C1332 C 0.13948 0.01543 0.61462 0.0
C1333 C 0.12444 0.03366 0.62611 0.0
N1334 N 0.09456 0.0564 0.5778 0.0
N1335 N 0.15299 0.98651 0.53329 0.0
C1336 C 0.10641 0.03688 0.5778 0.0
C1337 C 0.13639 1.00087 0.55415 0.0
N1338 N 0.07926 0.0179 0.50407 0.0
N1339 N 0.15676 0.01202 0.66169 0.0
H1340 H 0.15136 0.97566 0.48966 0.0
H1341 H 0.169 0.98653 0.55573 0.0
H1342 H 0.16076 0.02341 0.7023 0.0
H1343 H 0.16652 0.99757 0.66211 0.0
H1344 H 0.06655 0.02915 0.51718 0.0
H1345 H 0.07379 1.0034 0.47901 0.0
H1346 H 0.08262 0.06013 0.53853 0.0
H1347 H 0.09814 0.06972 0.61195 0.0
C1348 C 0.25254 0.84822 0.86421 0.0
C1349 C 0.24633 0.86861 0.89734 0.0
C1350 C 0.27308 0.88849 0.81879 0.0
C1351 C 0.28062 0.86771 0.79076 0.0
N1352 N 0.28172 0.82781 0.80191 0.0
N1353 N 0.25254 0.90813 0.9127 0.0
C1354 C 0.27155 0.84757 0.81811 0.0
C1355 C 0.25721 0.88877 0.8766 0.0
N1356 N 0.23998 0.82952 0.87564 0.0
N1357 N 0.28068 0.90792 0.7889 0.0
H1358 H 0.24012 0.90915 0.95219 0.0
H1359 H 0.26167 0.92282 0.90602 0.0
H1360 H 0.29309 0.9082 0.74925 0.0
H1361 H 0.27398 0.92357 0.80087 0.0
H1362 H 0.24263 0.81448 0.84863 0.0
H1363 H 0.22533 0.82998 0.90612 0.0
H1364 H 0.27707 0.81254 0.82439 0.0
H1365 H 0.29662 0.8274 0.77279 0.0
C1366 C 0.3894 0.01633 0.04869 0.0
C1367 C 0.4043 0.03493 0.0459 0.0
C1368 C 0.41034 0.03069 0.17511 0.0
C1369 C 0.40116 1.00861 0.17328 0.0
N1370 N 0.37764 0.98242 0.10903 0.0
N1371 N 0.43129 0.05814 0.10788 0.0
C1372 C 0.38949 1.00194 0.11003 0.0
C1373 C 0.41541 0.04173 0.10947 0.0
N1374 N 0.37425 0.01317 0.99432 0.0
N1375 N 0.4124 0.04214 0.23831 0.0
H1376 H 0.43602 0.06641 0.06095 0.0
H1377 H 0.4412 0.06196 0.15253 0.0
H1378 H 0.40461 0.03702 0.28564 0.0
H1379 H 0.41809 0.05861 0.24053 0.0
H1380 H 0.36163 1.00116 0.99576 0.0
H1381 H 0.37261 0.02427 0.9513 0.0
H1382 H 0.37201 0.97493 0.06172 0.0
H1383 H 0.37322 0.9738 0.15562 0.0
C1384 C 0.7715 0.8847 0.84005 0.0
C1385 C 0.7801 0.86426 0.86747 0.0
C1386 C 0.7529 0.84358 0.7941 0.0
C1387 C 0.74581 0.86365 0.76095 0.0
N1388 N 0.75007 0.90344 0.74628 0.0
N1389 N 0.78309 0.82448 0.85544 0.0
C1390 C 0.75565 0.88429 0.78215 0.0
C1391 C 0.77196 0.84376 0.83989 0.0
N1392 N 0.7781 0.90443 0.87036 0.0
N1393 N 0.74111 0.82437 0.78293 0.0
H1394 H 0.79809 0.82479 0.88408 0.0
H1395 H 0.77911 0.80905 0.83276 0.0
H1396 H 0.72637 0.82424 0.75285 0.0
H1397 H 0.74446 0.80946 0.8099 0.0
H1398 H 0.77063 0.91975 0.85867 0.0
H1399 H 0.79046 0.90525 0.9101 0.0
H1400 H 0.75843 0.91856 0.75333 0.0
H1401 H 0.73764 0.90387 0.70669 0.0
C1402 C 0.8888 0.02586 0.59711 0.0
C1403 C 0.90908 0.02472 0.63707 0.0
C1404 C 0.91916 0.99023 0.57226 0.0
C1405 C 0.90095 0.99331 0.52451 0.0
N1406 N 0.8684 0.01471 0.48964 0.0
N1407 N 0.94621 1.00945 0.64583 0.0
C1408 C 0.88576 0.01138 0.53646 0.0
C1409 C 0.92489 1.00774 0.62039 0.0
N1410 N 0.8721 0.04003 0.61849 0.0
N1411 N 0.9313 0.97088 0.57141 0.0
H1412 H 0.95159 0.02408 0.67042 0.0
H1413 H 0.95902 0.99828 0.63299 0.0
H1414 H 0.92785 0.95763 0.53685 0.0
H1415 H 0.94338 0.96721 0.61026 0.0
H1416 H 0.85605 0.03989 0.59633 0.0
H1417 H 0.87371 0.05084 0.6622 0.0
H1418 H 0.85849 0.02906 0.48967 0.0
H1419 H 0.8645 1.00339 0.44874 0.0
C1420 C 0.78715 0.16715 0.32739 0.0
C1421 C 0.78513 0.14988 0.27611 0.0
C1422 C 0.75329 0.13458 0.34601 0.0
C1423 C 0.75313 0.15414 0.38944 0.0
N1424 N 0.76596 0.19196 0.40291 0.0
N1425 N 0.76571 0.1169 0.23501 0.0
C1426 C 0.76916 0.17112 0.37556 0.0
C1427 C 0.76797 0.13349 0.28502 0.0
N1428 N 0.80593 0.18009 0.32993 0.0
N1429 N 0.74011 0.11678 0.36417 0.0
H1430 H 0.77728 0.11448 0.19354 0.0
H1431 H 0.75198 0.10616 0.23313 0.0
H1432 H 0.72922 0.117 0.40807 0.0
H1433 H 0.74122 0.10124 0.33909 0.0
H1434 H 0.80876 0.19159 0.37119 0.0
H1435 H 0.81957 0.17775 0.29572 0.0
H1436 H 0.77622 0.20554 0.39059 0.0
H1437 H 0.75089 0.19607 0.42749 0.0
C1438 C 0.59872 0.99432 0.0856 0.0
C1439 C 0.61855 0.98509 0.11466 0.0
C1440 C 0.64039 1.00708 0.02694 0.0
C1441 C 0.62051 0.01847 0.00555 0.0
N1442 N 0.58175 0.02653 0.02957 0.0
N1443 N 0.65887 0.98399 0.11734 0.0
C1444 C 0.59995 0.01311 0.03934 0.0
C1445 C 0.63963 0.9918 0.08637 0.0
N1446 N 0.57865 0.98462 0.10081 0.0
N1447 N 0.6599 1.01074 0.99029 0.0
H1448 H 0.65872 0.97205 0.15833 0.0
H1449 H 0.67476 0.99007 0.1048 0.0
H1450 H 0.66118 0.02255 0.94913 0.0
H1451 H 0.67439 1.0013 -0.00188 0.0
H1452 H 0.56356 0.98955 0.0772 0.0
H1453 H 0.57796 0.96982 0.13015 0.0
H1454 H 0.56664 0.02434 0.05694 0.0
H1455 H 0.58298 0.04143 0.00104 0.0
C1456 C 0.7702 0.63384 0.847 0.0
C1457 C 0.77588 0.65498 0.87653 0.0
C1458 C 0.74607 0.67251 0.8046 0.0
C1459 C 0.74205 0.65201 0.76897 0.0
N1460 N 0.75158 0.61324 0.75125 0.0
N1461 N 0.77322 0.69491 0.86864 0.0
C1462 C 0.75453 0.63267 0.78881 0.0
C1463 C 0.76484 0.67444 0.85125 0.0
N1464 N 0.77935 0.61487 0.87568 0.0
N1465 N 0.73197 0.69019 0.79392 0.0
H1466 H 0.78823 0.69639 0.89668 0.0
H1467 H 0.76715 0.70987 0.84745 0.0
H1468 H 0.71773 0.68899 0.7617 0.0
H1469 H 0.73307 0.70508 0.82284 0.0
H1470 H 0.77404 0.59882 0.86229 0.0
H1471 H 0.79152 0.61526 0.91607 0.0
H1472 H 0.76194 0.59932 0.75694 0.0
H1473 H 0.73924 0.61144 0.71179 0.0
C1474 C 0.62453 0.50122 0.13515 0.0
C1475 C 0.62056 0.52472 0.12924 0.0
C1476 C 0.62539 0.52018 -0.00065 0.0
C1477 C 0.62232 0.49653 0.00459 0.0
N1478 N 0.61452 0.46546 0.08562 0.0
N1479 N 0.61297 0.55549 0.04677 0.0
C1480 C 0.62059 0.48718 0.07473 0.0
C1481 C 0.61974 0.53402 0.05886 0.0
N1482 N 0.6332 0.4922 0.19669 0.0
N1483 N 0.63472 0.52955 0.93942 0.0
H1484 H 0.60687 0.56608 0.08653 0.0
H1485 H 0.61086 0.5618 0.99483 0.0
H1486 H 0.64207 0.52004 0.89869 0.0
H1487 H 0.63824 0.54661 0.936 0.0
H1488 H 0.63736 0.47529 0.20077 0.0
H1489 H 0.63948 0.50196 0.23861 0.0
H1490 H 0.61169 0.45907 0.13711 0.0
H1491 H 0.60966 0.45461 0.04487 0.0
C1492 C 0.76828 0.34708 0.37019 0.0
C1493 C 0.75204 0.36393 0.38388 0.0
C1494 C 0.76683 0.38482 0.28011 0.0
C1495 C 0.78411 0.36854 0.27116 0.0
N1496 N 0.80501 0.33813 0.3238 0.0
N1497 N 0.73865 0.40119 0.35894 0.0
C1498 C 0.78622 0.35114 0.32196 0.0
C1499 C 0.75205 0.38353 0.34074 0.0
N1500 N 0.76534 0.3263 0.3982 0.0
N1501 N 0.76452 0.4015 0.23043 0.0
H1502 H 0.72764 0.40081 0.40251 0.0
H1503 H 0.73965 0.41678 0.33419 0.0
H1504 H 0.77616 0.40409 0.18928 0.0
H1505 H 0.7507 0.41215 0.22848 0.0
H1506 H 0.77575 0.31276 0.38657 0.0
H1507 H 0.75039 0.32217 0.42331 0.0
H1508 H 0.80796 0.32653 0.36465 0.0
H1509 H 0.81857 0.34042 0.28927 0.0
C1510 C 0.9205 0.48788 0.56551 0.0
C1511 C 0.90246 0.48903 0.61456 0.0
C1512 C 0.88645 0.52021 0.54357 0.0
C1513 C 0.90641 0.52113 0.50197 0.0
N1514 N 0.94497 0.51008 0.49187 0.0
N1515 N 0.8682 0.50699 0.65261 0.0
C1516 C 0.92404 0.50594 0.51757 0.0
C1517 C 0.8854 0.50547 0.60423 0.0
N1518 N 0.93461 0.46992 0.56517 0.0
N1519 N 0.86828 0.53273 0.52392 0.0
H1520 H 0.8659 0.49536 0.69382 0.0
H1521 H 0.85682 0.52022 0.65351 0.0
H1522 H 0.86853 0.54375 0.48047 0.0
H1523 H 0.85251 0.53101 0.54741 0.0
H1524 H 0.94676 0.46761 0.52542 0.0
H1525 H 0.93283 0.45637 0.59985 0.0
H1526 H 0.95899 0.50046 0.50474 0.0
H1527 H 0.94852 0.52529 0.46777 0.0
C1528 C 0.2566 0.38849 0.29874 0.0
C1529 C 0.24378 0.36933 0.27941 0.0
C1530 C 0.26634 0.34669 0.362 0.0
C1531 C 0.2777 0.36602 0.38683 0.0
N1532 N 0.28176 0.40605 0.38507 0.0
N1533 N 0.23321 0.33136 0.30517 0.0
C1534 C 0.27232 0.38718 0.35684 0.0
C1535 C 0.24756 0.34883 0.31539 0.0
N1536 N 0.25392 0.40789 0.26086 0.0
N1537 N 0.27441 0.32613 0.37982 0.0
H1538 H 0.21896 0.33272 0.27303 0.0
H1539 H 0.2341 0.31652 0.33439 0.0
H1540 H 0.28939 0.32444 0.40788 0.0
H1541 H 0.26811 0.31122 0.35898 0.0
H1542 H 0.2645 0.42163 0.26616 0.0
H1543 H 0.24156 0.40983 0.22151 0.0
H1544 H 0.27667 0.42216 0.37142 0.0
H1545 H 0.29396 0.40555 0.42537 0.0
C1546 C 0.42273 0.52002 0.01743 0.0
C1547 C 0.40676 0.50297 0.00328 0.0
C1548 C 0.38479 0.51671 0.10651 0.0
C1549 C 0.40032 0.53457 0.11652 0.0
N1550 N 0.42924 0.55725 0.06305 0.0
N1551 N 0.36976 0.48828 0.02627 0.0
C1552 C 0.41753 0.5377 0.06546 0.0
C1553 C 0.38691 0.50218 0.04556 0.0
N1554 N 0.44385 0.51814 0.9905 0.0
N1555 N 0.36801 0.51361 0.1556 0.0
H1556 H 0.37061 0.4776 0.982 0.0
H1557 H 0.35402 0.48863 0.05059 0.0
H1558 H 0.36475 0.52506 0.19675 0.0
H1559 H 0.35794 0.49939 0.15694 0.0
H1560 H 0.45673 0.52934 0.00232 0.0
H1561 H 0.44904 0.50333 0.96671 0.0
H1562 H 0.4407 0.56078 0.02216 0.0
H1563 H 0.42578 0.57073 0.09673 0.0
C1564 C 0.2633 0.63807 0.88626 0.0
C1565 C 0.25155 0.65796 0.90506 0.0
C1566 C 0.27591 0.67924 0.82424 0.0
C1567 C 0.28574 0.65925 0.79841 0.0
N1568 N 0.28748 0.61908 0.80011 0.0
N1569 N 0.24363 0.69661 0.88004 0.0
C1570 C 0.27912 0.63845 0.82836 0.0
C1571 C 0.25693 0.67829 0.87028 0.0
N1572 N 0.25946 0.61888 0.92417 0.0
N1573 N 0.28535 0.6992 0.80654 0.0
H1574 H 0.22899 0.69596 0.91058 0.0
H1575 H 0.24574 0.71149 0.85169 0.0
H1576 H 0.30023 0.6998 0.77736 0.0
H1577 H 0.28016 0.71447 0.82784 0.0
H1578 H 0.26919 0.60451 0.91877 0.0
H1579 H 0.24711 0.61773 0.96385 0.0
H1580 H 0.28145 0.60329 0.81353 0.0
H1581 H 0.29988 0.61895 0.76042 0.0
C1582 C 0.13657 0.5227 0.55383 0.0
C1583 C 0.1172 0.52212 0.50929 0.0
C1584 C 0.105 0.48784 0.57129 0.0
C1585 C 0.12185 0.49069 0.62381 0.0
N1586 N 0.1541 0.51117 0.66604 0.0
N1587 N 0.07998 0.50763 0.4926 0.0
C1588 C 0.13779 0.50826 0.61524 0.0
C1589 C 0.10073 0.50544 0.5221 0.0
N1590 N 0.15413 0.53631 0.53627 0.0
N1591 N 0.09271 0.46865 0.5686 0.0
H1592 H 0.07547 0.5223 0.46673 0.0
H1593 H 0.06666 0.49691 0.50402 0.0
H1594 H 0.09531 0.45527 0.60344 0.0
H1595 H 0.08157 0.46523 0.52672 0.0
H1596 H 0.16959 0.53578 0.56232 0.0
H1597 H 0.15391 0.54693 0.49178 0.0
H1598 H 0.1644 0.52522 0.66823 0.0
H1599 H 0.15673 0.49978 0.70778 0.0
loop_
_geom_bond_atom_site_label_1
_geom_bond_atom_site_label_2
_geom_bond_distance
_geom_bond_site_symmetry_2
_ccdc_geom_bond_type
Co0 O1 2.216 . S
Co0 O2 2.091 . S
Co0 O4 2.004 . S
Co0 O10 2.021 1_554 S
Co0 O12 2.137 . S
Co0 O13 2.244 . S
O1 Co0 2.216 . S
O1 C8 1.247 . S
O2 Co0 2.091 . S
O2 C8 1.261 . S
C3 O12 1.247 . S
C3 O13 1.272 . S
O4 Co0 2.004 . S
O4 C9 1.259 . S
Co5 O6 2.061 . S
Co5 O11 2.052 1_554 S
Co5 O13 2.135 . S
O6 Co5 2.061 . S
O6 C9 1.235 . S
C7 O10 1.238 . S
C7 O11 1.241 . S
C8 O1 1.247 . S
C8 O2 1.261 . S
C9 O4 1.259 . S
C9 O6 1.235 . S
O10 Co0 2.021 1_556 S
O10 C7 1.238 . S
O11 Co5 2.052 1_556 S
O11 C7 1.241 . S
O12 Co0 2.137 . S
O12 C3 1.247 . S
O13 Co0 2.244 . S
O13 C3 1.272 . S
O13 Co5 2.135 . S
Co14 O15 2.216 . S
Co14 O16 2.091 . S
Co14 O18 2.004 . S
Co14 O24 2.021 . S
Co14 O26 2.137 . S
Co14 O27 2.244 . S
O15 Co14 2.216 . S
O15 C22 1.247 . S
O16 Co14 2.091 . S
O16 C22 1.261 . S
C17 O26 1.247 . S
C17 O27 1.272 . S
O18 Co14 2.004 . S
O18 C23 1.259 . S
Co19 O20 2.061 1_545 S
Co19 O25 2.052 . S
Co19 O27 2.135 1_545 S
O20 Co19 2.061 1_565 S
O20 C23 1.235 . S
C21 O24 1.238 . S
C21 O25 1.241 1_565 S
C22 O15 1.247 . S
C22 O16 1.261 . S
C23 O18 1.259 . S
C23 O20 1.235 . S
O24 Co14 2.021 . S
O24 C21 1.238 . S
O25 Co19 2.052 . S
O25 C21 1.241 1_545 S
O26 Co14 2.137 . S
O26 C17 1.247 . S
O27 Co14 2.244 . S
O27 C17 1.272 . S
O27 Co19 2.135 1_565 S
Co28 O29 2.216 . S
Co28 O30 2.091 . S
Co28 O32 2.004 . S
Co28 O38 2.021 . S
Co28 O40 2.137 . S
Co28 O41 2.244 . S
O29 Co28 2.216 . S
O29 C36 1.247 . S
O30 Co28 2.091 . S
O30 C36 1.261 . S
C31 O40 1.247 . S
C31 O41 1.272 . S
O32 Co28 2.004 . S
O32 C37 1.259 . S
Co33 O34 2.061 . S
Co33 O39 2.052 . S
Co33 O41 2.135 . S
O34 Co33 2.061 . S
O34 C37 1.235 . S
C35 O38 1.238 . S
C35 O39 1.241 . S
C36 O29 1.247 . S
C36 O30 1.261 . S
C37 O32 1.259 . S
C37 O34 1.235 . S
O38 Co28 2.021 . S
O38 C35 1.238 . S
O39 Co33 2.052 . S
O39 C35 1.241 . S
O40 Co28 2.137 . S
O40 C31 1.247 . S
O41 Co28 2.244 . S
O41 C31 1.272 . S
O41 Co33 2.135 . S
Co42 O43 2.216 . S
Co42 O44 2.091 . S
Co42 O46 2.004 . S
Co42 O52 2.021 . S
Co42 O54 2.137 . S
Co42 O55 2.244 . S
O43 Co42 2.216 . S
O43 C50 1.247 . S
O44 Co42 2.091 . S
O44 C50 1.261 . S
C45 O54 1.247 . S
C45 O55 1.272 . S
O46 Co42 2.004 . S
O46 C51 1.259 . S
Co47 O48 2.061 1_565 S
Co47 O53 2.052 . S
Co47 O55 2.135 1_565 S
O48 Co47 2.061 1_545 S
O48 C51 1.235 . S
C49 O52 1.238 . S
C49 O53 1.241 1_545 S
C50 O43 1.247 . S
C50 O44 1.261 . S
C51 O46 1.259 . S
C51 O48 1.235 . S
O52 Co42 2.021 . S
O52 C49 1.238 . S
O53 Co47 2.052 . S
O53 C49 1.241 1_565 S
O54 Co42 2.137 . S
O54 C45 1.247 . S
O55 Co42 2.244 . S
O55 C45 1.272 . S
O55 Co47 2.135 1_545 S
Co56 O57 2.216 . S
Co56 O58 2.091 . S
Co56 O60 2.004 . S
Co56 O66 2.021 . S
Co56 O68 2.137 1_554 S
Co56 O69 2.244 . S
O57 Co56 2.216 . S
O57 C64 1.247 . S
O58 Co56 2.091 . S
O58 C64 1.261 . S
C59 O68 1.247 . S
C59 O69 1.272 1_556 S
O60 Co56 2.004 . S
O60 C65 1.259 . S
Co61 O62 2.061 . S
Co61 O67 2.052 . S
Co61 O69 2.135 . S
O62 Co61 2.061 . S
O62 C65 1.235 . S
C63 O66 1.238 . S
C63 O67 1.241 . S
C64 O57 1.247 . S
C64 O58 1.261 . S
C65 O60 1.259 . S
C65 O62 1.235 . S
O66 Co56 2.021 . S
O66 C63 1.238 . S
O67 Co61 2.052 . S
O67 C63 1.241 . S
O68 Co56 2.137 1_556 S
O68 C59 1.247 . S
O69 Co56 2.244 . S
O69 C59 1.272 1_554 S
O69 Co61 2.135 . S
Co70 O71 2.216 . S
Co70 O72 2.091 . S
Co70 O74 2.004 . S
Co70 O80 2.021 . S
Co70 O82 2.137 . S
Co70 O83 2.244 . S
O71 Co70 2.216 . S
O71 C78 1.247 . S
O72 Co70 2.091 . S
O72 C78 1.261 . S
C73 O82 1.247 . S
C73 O83 1.272 . S
O74 Co70 2.004 . S
O74 C79 1.259 . S
Co75 O76 2.061 1_545 S
Co75 O81 2.052 . S
Co75 O83 2.135 1_545 S
O76 Co75 2.061 1_565 S
O76 C79 1.235 . S
C77 O80 1.238 . S
C77 O81 1.241 1_565 S
C78 O71 1.247 . S
C78 O72 1.261 . S
C79 O74 1.259 . S
C79 O76 1.235 . S
O80 Co70 2.021 . S
O80 C77 1.238 . S
O81 Co75 2.052 . S
O81 C77 1.241 1_545 S
O82 Co70 2.137 . S
O82 C73 1.247 . S
O83 Co70 2.244 . S
O83 C73 1.272 . S
O83 Co75 2.135 1_565 S
Co84 O85 2.216 . S
Co84 O86 2.091 . S
Co84 O88 2.004 . S
Co84 O94 2.021 . S
Co84 O96 2.137 . S
Co84 O97 2.244 . S
O85 Co84 2.216 . S
O85 C92 1.247 . S
O86 Co84 2.091 . S
O86 C92 1.261 . S
C87 O96 1.247 . S
C87 O97 1.272 . S
O88 Co84 2.004 . S
O88 C93 1.259 . S
Co89 O90 2.061 . S
Co89 O95 2.052 . S
Co89 O97 2.135 . S
O90 Co89 2.061 . S
O90 C93 1.235 . S
C91 O94 1.238 . S
C91 O95 1.241 . S
C92 O85 1.247 . S
C92 O86 1.261 . S
C93 O88 1.259 . S
C93 O90 1.235 . S
O94 Co84 2.021 . S
O94 C91 1.238 . S
O95 Co89 2.052 . S
O95 C91 1.241 . S
O96 Co84 2.137 . S
O96 C87 1.247 . S
O97 Co84 2.244 . S
O97 C87 1.272 . S
O97 Co89 2.135 . S
Co98 O99 2.216 . S
Co98 O100 2.091 . S
Co98 O102 2.004 . S
Co98 O108 2.021 . S
Co98 O110 2.137 . S
Co98 O111 2.244 . S
O99 Co98 2.216 . S
O99 C106 1.247 . S
O100 Co98 2.091 . S
O100 C106 1.261 . S
C101 O110 1.247 . S
C101 O111 1.272 . S
O102 Co98 2.004 . S
O102 C107 1.259 . S
Co103 O104 2.061 1_565 S
Co103 O109 2.052 . S
Co103 O111 2.135 1_565 S
O104 Co103 2.061 1_545 S
O104 C107 1.235 . S
C105 O108 1.238 . S
C105 O109 1.241 1_545 S
C106 O99 1.247 . S
C106 O100 1.261 . S
C107 O102 1.259 . S
C107 O104 1.235 . S
O108 Co98 2.021 . S
O108 C105 1.238 . S
O109 Co103 2.052 . S
O109 C105 1.241 1_565 S
O110 Co98 2.137 . S
O110 C101 1.247 . S
O111 Co98 2.244 . S
O111 C101 1.272 . S
O111 Co103 2.135 1_545 S
Co112 O113 2.216 . S
Co112 O114 2.091 . S
Co112 O116 2.004 . S
Co112 O122 2.021 . S
Co112 O124 2.137 1_554 S
Co112 O125 2.244 . S
O113 Co112 2.216 . S
O113 C120 1.247 . S
O114 Co112 2.091 . S
O114 C120 1.261 . S
C115 O124 1.247 . S
C115 O125 1.272 1_556 S
O116 Co112 2.004 . S
O116 C121 1.259 . S
Co117 O118 2.061 . S
Co117 O123 2.052 . S
Co117 O125 2.135 . S
O118 Co117 2.061 . S
O118 C121 1.235 . S
C119 O122 1.238 . S
C119 O123 1.241 . S
C120 O113 1.247 . S
C120 O114 1.261 . S
C121 O116 1.259 . S
C121 O118 1.235 . S
O122 Co112 2.021 . S
O122 C119 1.238 . S
O123 Co117 2.052 . S
O123 C119 1.241 . S
O124 Co112 2.137 1_556 S
O124 C115 1.247 . S
O125 Co112 2.244 . S
O125 C115 1.272 1_554 S
O125 Co117 2.135 . S
Co126 O127 2.216 . S
Co126 O128 2.091 . S
Co126 O130 2.004 . S
Co126 O136 2.021 . S
Co126 O138 2.137 . S
Co126 O139 2.244 . S
O127 Co126 2.216 . S
O127 C134 1.247 . S
O128 Co126 2.091 . S
O128 C134 1.261 . S
C129 O138 1.247 . S
C129 O139 1.272 . S
O130 Co126 2.004 . S
O130 C135 1.259 . S
Co131 O132 2.061 1_565 S
Co131 O137 2.052 . S
Co131 O139 2.135 1_565 S
O132 Co131 2.061 1_545 S
O132 C135 1.235 . S
C133 O136 1.238 . S
C133 O137 1.241 1_545 S
C134 O127 1.247 . S
C134 O128 1.261 . S
C135 O130 1.259 . S
C135 O132 1.235 . S
O136 Co126 2.021 . S
O136 C133 1.238 . S
O137 Co131 2.052 . S
O137 C133 1.241 1_565 S
O138 Co126 2.137 . S
O138 C129 1.247 . S
O139 Co126 2.244 . S
O139 C129 1.272 . S
O139 Co131 2.135 1_545 S
Co140 O141 2.216 . S
Co140 O142 2.091 . S
Co140 O144 2.004 . S
Co140 O150 2.021 . S
Co140 O152 2.137 . S
Co140 O153 2.244 . S
O141 Co140 2.216 . S
O141 C148 1.247 . S
O142 Co140 2.091 . S
O142 C148 1.261 . S
C143 O152 1.247 . S
C143 O153 1.272 . S
O144 Co140 2.004 . S
O144 C149 1.259 . S
Co145 O146 2.061 . S
Co145 O151 2.052 . S
Co145 O153 2.135 . S
O146 Co145 2.061 . S
O146 C149 1.235 . S
C147 O150 1.238 . S
C147 O151 1.241 . S
C148 O141 1.247 . S
C148 O142 1.261 . S
C149 O144 1.259 . S
C149 O146 1.235 . S
O150 Co140 2.021 . S
O150 C147 1.238 . S
O151 Co145 2.052 . S
O151 C147 1.241 . S
O152 Co140 2.137 . S
O152 C143 1.247 . S
O153 Co140 2.244 . S
O153 C143 1.272 . S
O153 Co145 2.135 . S
Co154 O155 2.216 . S
Co154 O156 2.091 . S
Co154 O158 2.004 . S
Co154 O164 2.021 . S
Co154 O166 2.137 . S
Co154 O167 2.244 . S
O155 Co154 2.216 . S
O155 C162 1.247 . S
O156 Co154 2.091 . S
O156 C162 1.261 . S
C157 O166 1.247 . S
C157 O167 1.272 . S
O158 Co154 2.004 . S
O158 C163 1.259 . S
Co159 O160 2.061 1_545 S
Co159 O165 2.052 . S
Co159 O167 2.135 1_545 S
O160 Co159 2.061 1_565 S
O160 C163 1.235 . S
C161 O164 1.238 . S
C161 O165 1.241 1_565 S
C162 O155 1.247 . S
C162 O156 1.261 . S
C163 O158 1.259 . S
C163 O160 1.235 . S
O164 Co154 2.021 . S
O164 C161 1.238 . S
O165 Co159 2.052 . S
O165 C161 1.241 1_545 S
O166 Co154 2.137 . S
O166 C157 1.247 . S
O167 Co154 2.244 . S
O167 C157 1.272 . S
O167 Co159 2.135 1_565 S
Co168 O169 2.216 . S
Co168 O170 2.091 . S
Co168 O172 2.004 . S
Co168 O178 2.021 1_554 S
Co168 O180 2.137 . S
Co168 O181 2.244 . S
O169 Co168 2.216 . S
O169 C176 1.247 . S
O170 Co168 2.091 . S
O170 C176 1.261 . S
C171 O180 1.247 . S
C171 O181 1.272 . S
O172 Co168 2.004 . S
O172 C177 1.259 . S
Co173 O174 2.061 . S
Co173 O179 2.052 1_554 S
Co173 O181 2.135 . S
O174 Co173 2.061 . S
O174 C177 1.235 . S
C175 O178 1.238 . S
C175 O179 1.241 . S
C176 O169 1.247 . S
C176 O170 1.261 . S
C177 O172 1.259 . S
C177 O174 1.235 . S
O178 Co168 2.021 1_556 S
O178 C175 1.238 . S
O179 Co173 2.052 1_556 S
O179 C175 1.241 . S
O180 Co168 2.137 . S
O180 C171 1.247 . S
O181 Co168 2.244 . S
O181 C171 1.272 . S
O181 Co173 2.135 . S
Co182 O183 2.216 . S
Co182 O184 2.091 . S
Co182 O186 2.004 . S
Co182 O192 2.021 . S
Co182 O194 2.137 . S
Co182 O195 2.244 . S
O183 Co182 2.216 . S
O183 C190 1.247 . S
O184 Co182 2.091 . S
O184 C190 1.261 . S
C185 O194 1.247 . S
C185 O195 1.272 . S
O186 Co182 2.004 . S
O186 C191 1.259 . S
Co187 O188 2.061 1_565 S
Co187 O193 2.052 . S
Co187 O195 2.135 1_565 S
O188 Co187 2.061 1_545 S
O188 C191 1.235 . S
C189 O192 1.238 . S
C189 O193 1.241 1_545 S
C190 O183 1.247 . S
C190 O184 1.261 . S
C191 O186 1.259 . S
C191 O188 1.235 . S
O192 Co182 2.021 . S
O192 C189 1.238 . S
O193 Co187 2.052 . S
O193 C189 1.241 1_565 S
O194 Co182 2.137 . S
O194 C185 1.247 . S
O195 Co182 2.244 . S
O195 C185 1.272 . S
O195 Co187 2.135 1_545 S
Co196 O197 2.216 . S
Co196 O198 2.091 . S
Co196 O200 2.004 . S
Co196 O206 2.021 . S
Co196 O208 2.137 . S
Co196 O209 2.244 . S
O197 Co196 2.216 . S
O197 C204 1.247 . S
O198 Co196 2.091 . S
O198 C204 1.261 . S
C199 O208 1.247 . S
C199 O209 1.272 . S
O200 Co196 2.004 . S
O200 C205 1.259 . S
Co201 O202 2.061 . S
Co201 O207 2.052 . S
Co201 O209 2.135 . S
O202 Co201 2.061 . S
O202 C205 1.235 . S
C203 O206 1.238 . S
C203 O207 1.241 . S
C204 O197 1.247 . S
C204 O198 1.261 . S
C205 O200 1.259 . S
C205 O202 1.235 . S
O206 Co196 2.021 . S
O206 C203 1.238 . S
O207 Co201 2.052 . S
O207 C203 1.241 . S
O208 Co196 2.137 . S
O208 C199 1.247 . S
O209 Co196 2.244 . S
O209 C199 1.272 . S
O209 Co201 2.135 . S
Co210 O211 2.216 . S
Co210 O212 2.091 . S
Co210 O214 2.004 . S
Co210 O220 2.021 . S
Co210 O222 2.137 . S
Co210 O223 2.244 . S
O211 Co210 2.216 . S
O211 C218 1.247 . S
O212 Co210 2.091 . S
O212 C218 1.261 . S
C213 O222 1.247 . S
C213 O223 1.272 . S
O214 Co210 2.004 . S
O214 C219 1.259 . S
Co215 O216 2.061 1_545 S
Co215 O221 2.052 . S
Co215 O223 2.135 1_545 S
O216 Co215 2.061 1_565 S
O216 C219 1.235 . S
C217 O220 1.238 . S
C217 O221 1.241 1_565 S
C218 O211 1.247 . S
C218 O212 1.261 . S
C219 O214 1.259 . S
C219 O216 1.235 . S
O220 Co210 2.021 . S
O220 C217 1.238 . S
O221 Co215 2.052 . S
O221 C217 1.241 1_545 S
O222 Co210 2.137 . S
O222 C213 1.247 . S
O223 Co210 2.244 . S
O223 C213 1.272 . S
O223 Co215 2.135 1_565 S
Co224 O225 2.216 . S
Co224 O226 2.091 . S
Co224 O228 2.004 . S
Co224 O234 2.021 . S
Co224 O236 2.137 . S
Co224 O237 2.244 . S
O225 Co224 2.216 . S
O225 C232 1.247 . S
O226 Co224 2.091 . S
O226 C232 1.261 . S
C227 O236 1.247 . S
C227 O237 1.272 . S
O228 Co224 2.004 . S
O228 C233 1.259 . S
Co229 O230 2.061 . S
Co229 O235 2.052 . S
Co229 O237 2.135 . S
O230 Co229 2.061 . S
O230 C233 1.235 . S
C231 O234 1.238 . S
C231 O235 1.241 . S
C232 O225 1.247 . S
C232 O226 1.261 . S
C233 O228 1.259 . S
C233 O230 1.235 . S
O234 Co224 2.021 . S
O234 C231 1.238 . S
O235 Co229 2.052 . S
O235 C231 1.241 . S
O236 Co224 2.137 . S
O236 C227 1.247 . S
O237 Co224 2.244 . S
O237 C227 1.272 . S
O237 Co229 2.135 . S
Co238 O239 2.216 . S
Co238 O240 2.091 . S
Co238 O242 2.004 . S
Co238 O248 2.021 . S
Co238 O250 2.137 . S
Co238 O251 2.244 . S
O239 Co238 2.216 . S
O239 C246 1.247 . S
O240 Co238 2.091 . S
O240 C246 1.261 . S
C241 O250 1.247 . S
C241 O251 1.272 . S
O242 Co238 2.004 . S
O242 C247 1.259 . S
Co243 O244 2.061 . S
Co243 O249 2.052 . S
Co243 O251 2.135 . S
O244 Co243 2.061 . S
O244 C247 1.235 . S
C245 O248 1.238 . S
C245 O249 1.241 . S
C246 O239 1.247 . S
C246 O240 1.261 . S
C247 O242 1.259 . S
C247 O244 1.235 . S
O248 Co238 2.021 . S
O248 C245 1.238 . S
O249 Co243 2.052 . S
O249 C245 1.241 . S
O250 Co238 2.137 . S
O250 C241 1.247 . S
O251 Co238 2.244 . S
O251 C241 1.272 . S
O251 Co243 2.135 . S
Co252 O253 2.216 . S
Co252 O254 2.091 . S
Co252 O256 2.004 . S
Co252 O262 2.021 1_554 S
Co252 O264 2.137 . S
Co252 O265 2.244 . S
O253 Co252 2.216 . S
O253 C260 1.247 . S
O254 Co252 2.091 . S
O254 C260 1.261 . S
C255 O264 1.247 . S
C255 O265 1.272 . S
O256 Co252 2.004 . S
O256 C261 1.259 . S
Co257 O258 2.061 . S
Co257 O263 2.052 1_554 S
Co257 O265 2.135 . S
O258 Co257 2.061 . S
O258 C261 1.235 . S
C259 O262 1.238 . S
C259 O263 1.241 . S
C260 O253 1.247 . S
C260 O254 1.261 . S
C261 O256 1.259 . S
C261 O258 1.235 . S
O262 Co252 2.021 1_556 S
O262 C259 1.238 . S
O263 Co257 2.052 1_556 S
O263 C259 1.241 . S
O264 Co252 2.137 . S
O264 C255 1.247 . S
O265 Co252 2.244 . S
O265 C255 1.272 . S
O265 Co257 2.135 . S
Co266 O267 2.216 . S
Co266 O268 2.091 . S
Co266 O270 2.004 . S
Co266 O276 2.021 . S
Co266 O278 2.137 . S
Co266 O279 2.244 . S
O267 Co266 2.216 . S
O267 C274 1.247 . S
O268 Co266 2.091 . S
O268 C274 1.261 . S
C269 O278 1.247 . S
C269 O279 1.272 . S
O270 Co266 2.004 . S
O270 C275 1.259 . S
Co271 O272 2.061 . S
Co271 O277 2.052 . S
Co271 O279 2.135 . S
O272 Co271 2.061 . S
O272 C275 1.235 . S
C273 O276 1.238 . S
C273 O277 1.241 . S
C274 O267 1.247 . S
C274 O268 1.261 . S
C275 O270 1.259 . S
C275 O272 1.235 . S
O276 Co266 2.021 . S
O276 C273 1.238 . S
O277 Co271 2.052 . S
O277 C273 1.241 . S
O278 Co266 2.137 . S
O278 C269 1.247 . S
O279 Co266 2.244 . S
O279 C269 1.272 . S
O279 Co271 2.135 . S
Co280 O281 2.216 . S
Co280 O282 2.091 . S
Co280 O284 2.004 . S
Co280 O290 2.021 . S
Co280 O292 2.137 . S
Co280 O293 2.244 . S
O281 Co280 2.216 . S
O281 C288 1.247 . S
O282 Co280 2.091 . S
O282 C288 1.261 . S
C283 O292 1.247 . S
C283 O293 1.272 . S
O284 Co280 2.004 . S
O284 C289 1.259 . S
Co285 O286 2.061 . S
Co285 O291 2.052 . S
Co285 O293 2.135 . S
O286 Co285 2.061 . S
O286 C289 1.235 . S
C287 O290 1.238 . S
C287 O291 1.241 . S
C288 O281 1.247 . S
C288 O282 1.261 . S
C289 O284 1.259 . S
C289 O286 1.235 . S
O290 Co280 2.021 . S
O290 C287 1.238 . S
O291 Co285 2.052 . S
O291 C287 1.241 . S
O292 Co280 2.137 . S
O292 C283 1.247 . S
O293 Co280 2.244 . S
O293 C283 1.272 . S
O293 Co285 2.135 . S
Co294 O295 2.216 . S
Co294 O296 2.091 . S
Co294 O298 2.004 . S
Co294 O304 2.021 . S
Co294 O306 2.137 . S
Co294 O307 2.244 . S
O295 Co294 2.216 . S
O295 C302 1.247 . S
O296 Co294 2.091 . S
O296 C302 1.261 . S
C297 O306 1.247 . S
C297 O307 1.272 . S
O298 Co294 2.004 . S
O298 C303 1.259 . S
Co299 O300 2.061 . S
Co299 O305 2.052 . S
Co299 O307 2.135 . S
O300 Co299 2.061 . S
O300 C303 1.235 . S
C301 O304 1.238 . S
C301 O305 1.241 . S
C302 O295 1.247 . S
C302 O296 1.261 . S
C303 O298 1.259 . S
C303 O300 1.235 . S
O304 Co294 2.021 . S
O304 C301 1.238 . S
O305 Co299 2.052 . S
O305 C301 1.241 . S
O306 Co294 2.137 . S
O306 C297 1.247 . S
O307 Co294 2.244 . S
O307 C297 1.272 . S
O307 Co299 2.135 . S
Co308 O309 2.216 . S
Co308 O310 2.091 . S
Co308 O312 2.004 . S
Co308 O318 2.021 . S
Co308 O320 2.137 1_554 S
Co308 O321 2.244 . S
O309 Co308 2.216 . S
O309 C316 1.247 . S
O310 Co308 2.091 . S
O310 C316 1.261 . S
C311 O320 1.247 . S
C311 O321 1.272 1_556 S
O312 Co308 2.004 . S
O312 C317 1.259 . S
Co313 O314 2.061 . S
Co313 O319 2.052 . S
Co313 O321 2.135 . S
O314 Co313 2.061 . S
O314 C317 1.235 . S
C315 O318 1.238 . S
C315 O319 1.241 . S
C316 O309 1.247 . S
C316 O310 1.261 . S
C317 O312 1.259 . S
C317 O314 1.235 . S
O318 Co308 2.021 . S
O318 C315 1.238 . S
O319 Co313 2.052 . S
O319 C315 1.241 . S
O320 Co308 2.137 1_556 S
O320 C311 1.247 . S
O321 Co308 2.244 . S
O321 C311 1.272 1_554 S
O321 Co313 2.135 . S
Co322 O323 2.216 . S
Co322 O324 2.091 . S
Co322 O326 2.004 . S
Co322 O332 2.021 . S
Co322 O334 2.137 . S
Co322 O335 2.244 . S
O323 Co322 2.216 . S
O323 C330 1.247 . S
O324 Co322 2.091 . S
O324 C330 1.261 . S
C325 O334 1.247 . S
C325 O335 1.272 . S
O326 Co322 2.004 . S
O326 C331 1.259 . S
Co327 O328 2.061 . S
Co327 O333 2.052 . S
Co327 O335 2.135 . S
O328 Co327 2.061 . S
O328 C331 1.235 . S
C329 O332 1.238 . S
C329 O333 1.241 . S
C330 O323 1.247 . S
C330 O324 1.261 . S
C331 O326 1.259 . S
C331 O328 1.235 . S
O332 Co322 2.021 . S
O332 C329 1.238 . S
O333 Co327 2.052 . S
O333 C329 1.241 . S
O334 Co322 2.137 . S
O334 C325 1.247 . S
O335 Co322 2.244 . S
O335 C325 1.272 . S
O335 Co327 2.135 . S
Co336 O337 2.216 . S
Co336 O338 2.091 . S
Co336 O340 2.004 . S
Co336 O346 2.021 . S
Co336 O348 2.137 . S
Co336 O349 2.244 . S
O337 Co336 2.216 . S
O337 C344 1.247 . S
O338 Co336 2.091 . S
O338 C344 1.261 . S
C339 O348 1.247 . S
C339 O349 1.272 . S
O340 Co336 2.004 . S
O340 C345 1.259 . S
Co341 O342 2.061 . S
Co341 O347 2.052 . S
Co341 O349 2.135 . S
O342 Co341 2.061 . S
O342 C345 1.235 . S
C343 O346 1.238 . S
C343 O347 1.241 . S
C344 O337 1.247 . S
C344 O338 1.261 . S
C345 O340 1.259 . S
C345 O342 1.235 . S
O346 Co336 2.021 . S
O346 C343 1.238 . S
O347 Co341 2.052 . S
O347 C343 1.241 . S
O348 Co336 2.137 . S
O348 C339 1.247 . S
O349 Co336 2.244 . S
O349 C339 1.272 . S
O349 Co341 2.135 . S
Co350 O351 2.216 . S
Co350 O352 2.091 . S
Co350 O354 2.004 . S
Co350 O360 2.021 . S
Co350 O362 2.137 . S
Co350 O363 2.244 . S
O351 Co350 2.216 . S
O351 C358 1.247 . S
O352 Co350 2.091 . S
O352 C358 1.261 . S
C353 O362 1.247 . S
C353 O363 1.272 . S
O354 Co350 2.004 . S
O354 C359 1.259 . S
Co355 O356 2.061 . S
Co355 O361 2.052 . S
Co355 O363 2.135 . S
O356 Co355 2.061 . S
O356 C359 1.235 . S
C357 O360 1.238 . S
C357 O361 1.241 . S
C358 O351 1.247 . S
C358 O352 1.261 . S
C359 O354 1.259 . S
C359 O356 1.235 . S
O360 Co350 2.021 . S
O360 C357 1.238 . S
O361 Co355 2.052 . S
O361 C357 1.241 . S
O362 Co350 2.137 . S
O362 C353 1.247 . S
O363 Co350 2.244 . S
O363 C353 1.272 . S
O363 Co355 2.135 . S
Co364 O365 2.216 . S
Co364 O366 2.091 . S
Co364 O368 2.004 . S
Co364 O374 2.021 . S
Co364 O376 2.137 1_554 S
Co364 O377 2.244 . S
O365 Co364 2.216 . S
O365 C372 1.247 . S
O366 Co364 2.091 . S
O366 C372 1.261 . S
C367 O376 1.247 . S
C367 O377 1.272 1_556 S
O368 Co364 2.004 . S
O368 C373 1.259 . S
Co369 O370 2.061 . S
Co369 O375 2.052 . S
Co369 O377 2.135 . S
O370 Co369 2.061 . S
O370 C373 1.235 . S
C371 O374 1.238 . S
C371 O375 1.241 . S
C372 O365 1.247 . S
C372 O366 1.261 . S
C373 O368 1.259 . S
C373 O370 1.235 . S
O374 Co364 2.021 . S
O374 C371 1.238 . S
O375 Co369 2.052 . S
O375 C371 1.241 . S
O376 Co364 2.137 1_556 S
O376 C367 1.247 . S
O377 Co364 2.244 . S
O377 C367 1.272 1_554 S
O377 Co369 2.135 . S
Co378 O379 2.216 . S
Co378 O380 2.091 . S
Co378 O382 2.004 . S
Co378 O388 2.021 . S
Co378 O390 2.137 . S
Co378 O391 2.244 . S
O379 Co378 2.216 . S
O379 C386 1.247 . S
O380 Co378 2.091 . S
O380 C386 1.261 . S
C381 O390 1.247 . S
C381 O391 1.272 . S
O382 Co378 2.004 . S
O382 C387 1.259 . S
Co383 O384 2.061 . S
Co383 O389 2.052 . S
Co383 O391 2.135 . S
O384 Co383 2.061 . S
O384 C387 1.235 . S
C385 O388 1.238 . S
C385 O389 1.241 . S
C386 O379 1.247 . S
C386 O380 1.261 . S
C387 O382 1.259 . S
C387 O384 1.235 . S
O388 Co378 2.021 . S
O388 C385 1.238 . S
O389 Co383 2.052 . S
O389 C385 1.241 . S
O390 Co378 2.137 . S
O390 C381 1.247 . S
O391 Co378 2.244 . S
O391 C381 1.272 . S
O391 Co383 2.135 . S
Co392 O393 2.216 . S
Co392 O394 2.091 . S
Co392 O396 2.004 . S
Co392 O402 2.021 . S
Co392 O404 2.137 . S
Co392 O405 2.244 . S
O393 Co392 2.216 . S
O393 C400 1.247 . S
O394 Co392 2.091 . S
O394 C400 1.261 . S
C395 O404 1.247 . S
C395 O405 1.272 . S
O396 Co392 2.004 . S
O396 C401 1.259 . S
Co397 O398 2.061 . S
Co397 O403 2.052 . S
Co397 O405 2.135 . S
O398 Co397 2.061 . S
O398 C401 1.235 . S
C399 O402 1.238 . S
C399 O403 1.241 . S
C400 O393 1.247 . S
C400 O394 1.261 . S
C401 O396 1.259 . S
C401 O398 1.235 . S
O402 Co392 2.021 . S
O402 C399 1.238 . S
O403 Co397 2.052 . S
O403 C399 1.241 . S
O404 Co392 2.137 . S
O404 C395 1.247 . S
O405 Co392 2.244 . S
O405 C395 1.272 . S
O405 Co397 2.135 . S
Co406 O407 2.216 . S
Co406 O408 2.091 . S
Co406 O410 2.004 . S
Co406 O416 2.021 . S
Co406 O418 2.137 . S
Co406 O419 2.244 . S
O407 Co406 2.216 . S
O407 C414 1.247 . S
O408 Co406 2.091 . S
O408 C414 1.261 . S
C409 O418 1.247 . S
C409 O419 1.272 . S
O410 Co406 2.004 . S
O410 C415 1.259 . S
Co411 O412 2.061 . S
Co411 O417 2.052 . S
Co411 O419 2.135 . S
O412 Co411 2.061 . S
O412 C415 1.235 . S
C413 O416 1.238 . S
C413 O417 1.241 . S
C414 O407 1.247 . S
C414 O408 1.261 . S
C415 O410 1.259 . S
C415 O412 1.235 . S
O416 Co406 2.021 . S
O416 C413 1.238 . S
O417 Co411 2.052 . S
O417 C413 1.241 . S
O418 Co406 2.137 . S
O418 C409 1.247 . S
O419 Co406 2.244 . S
O419 C409 1.272 . S
O419 Co411 2.135 . S
Co420 O421 2.216 . S
Co420 O422 2.091 . S
Co420 O424 2.004 . S
Co420 O430 2.021 1_554 S
Co420 O432 2.137 . S
Co420 O433 2.244 . S
O421 Co420 2.216 . S
O421 C428 1.247 . S
O422 Co420 2.091 . S
O422 C428 1.261 . S
C423 O432 1.247 . S
C423 O433 1.272 . S
O424 Co420 2.004 . S
O424 C429 1.259 . S
Co425 O426 2.061 . S
Co425 O431 2.052 1_554 S
Co425 O433 2.135 . S
O426 Co425 2.061 . S
O426 C429 1.235 . S
C427 O430 1.238 . S
C427 O431 1.241 . S
C428 O421 1.247 . S
C428 O422 1.261 . S
C429 O424 1.259 . S
C429 O426 1.235 . S
O430 Co420 2.021 1_556 S
O430 C427 1.238 . S
O431 Co425 2.052 1_556 S
O431 C427 1.241 . S
O432 Co420 2.137 . S
O432 C423 1.247 . S
O433 Co420 2.244 . S
O433 C423 1.272 . S
O433 Co425 2.135 . S
Co434 O435 2.216 . S
Co434 O436 2.091 . S
Co434 O438 2.004 . S
Co434 O444 2.021 . S
Co434 O446 2.137 . S
Co434 O447 2.244 . S
O435 Co434 2.216 . S
O435 C442 1.247 . S
O436 Co434 2.091 . S
O436 C442 1.261 . S
C437 O446 1.247 . S
C437 O447 1.272 . S
O438 Co434 2.004 . S
O438 C443 1.259 . S
Co439 O440 2.061 . S
Co439 O445 2.052 . S
Co439 O447 2.135 . S
O440 Co439 2.061 . S
O440 C443 1.235 . S
C441 O444 1.238 . S
C441 O445 1.241 . S
C442 O435 1.247 . S
C442 O436 1.261 . S
C443 O438 1.259 . S
C443 O440 1.235 . S
O444 Co434 2.021 . S
O444 C441 1.238 . S
O445 Co439 2.052 . S
O445 C441 1.241 . S
O446 Co434 2.137 . S
O446 C437 1.247 . S
O447 Co434 2.244 . S
O447 C437 1.272 . S
O447 Co439 2.135 . S
C448 C449 1.363 . S
C448 C454 1.379 . S
C448 N456 1.356 . S
C449 C448 1.363 . S
C449 C455 1.363 . S
C450 C451 1.367 . S
C450 C455 1.379 1_554 S
C450 N457 1.356 . S
C451 C450 1.367 . S
C451 C454 1.353 1_554 S
N452 C454 1.356 . S
N452 H464 0.984 . S
N452 H465 0.985 . S
N453 C455 1.356 . S
N453 H458 0.984 . S
N453 H459 0.985 1_556 S
C454 C448 1.379 . S
C454 C451 1.353 1_556 S
C454 N452 1.356 . S
C455 C449 1.363 . S
C455 C450 1.379 1_556 S
C455 N453 1.356 . S
N456 C448 1.356 . S
N456 H462 0.984 . S
N456 H463 0.984 . S
N457 C450 1.356 . S
N457 H460 0.984 . S
N457 H461 0.985 . S
H458 N453 0.984 . S
H459 N453 0.985 1_554 S
H460 N457 0.984 . S
H461 N457 0.985 . S
H462 N456 0.984 . S
H463 N456 0.984 . S
H464 N452 0.984 . S
H465 N452 0.985 . S
C466 C467 1.363 . S
C466 C472 1.379 . S
C466 N474 1.356 . S
C467 C466 1.363 . S
C467 C473 1.363 . S
C468 C469 1.363 . S
C468 C473 1.379 . S
C468 N475 1.356 . S
C469 C468 1.363 . S
C469 C472 1.363 . S
N470 C472 1.356 . S
N470 H482 0.984 . S
N470 H483 0.985 . S
N471 C473 1.356 . S
N471 H476 0.984 . S
N471 H477 0.985 . S
C472 C466 1.379 . S
C472 C469 1.363 . S
C472 N470 1.356 . S
C473 C467 1.363 . S
C473 C468 1.379 . S
C473 N471 1.356 . S
N474 C466 1.356 . S
N474 H480 0.984 . S
N474 H481 0.984 . S
N475 C468 1.356 . S
N475 H478 0.984 . S
N475 H479 0.985 . S
H476 N471 0.984 . S
H477 N471 0.985 . S
H478 N475 0.984 . S
H479 N475 0.985 . S
H480 N474 0.984 . S
H481 N474 0.984 . S
H482 N470 0.984 . S
H483 N470 0.985 . S
C484 C485 1.363 . S
C484 C490 1.379 . S
C484 N492 1.356 . S
C485 C484 1.363 . S
C485 C491 1.363 . S
C486 C487 1.363 . S
C486 C491 1.379 . S
C486 N493 1.356 . S
C487 C486 1.363 . S
C487 C490 1.363 . S
N488 C490 1.356 . S
N488 H500 0.984 . S
N488 H501 0.985 . S
N489 C491 1.356 . S
N489 H494 0.984 . S
N489 H495 0.985 . S
C490 C484 1.379 . S
C490 C487 1.363 . S
C490 N488 1.356 . S
C491 C485 1.363 . S
C491 C486 1.379 . S
C491 N489 1.356 . S
N492 C484 1.356 . S
N492 H498 0.984 . S
N492 H499 0.984 . S
N493 C486 1.356 . S
N493 H496 0.984 . S
N493 H497 0.985 . S
H494 N489 0.984 . S
H495 N489 0.985 . S
H496 N493 0.984 . S
H497 N493 0.985 . S
H498 N492 0.984 . S
H499 N492 0.984 . S
H500 N488 0.984 . S
H501 N488 0.985 . S
C502 C503 1.363 . S
C502 C508 1.379 . S
C502 N510 1.356 . S
C503 C502 1.363 . S
C503 C509 1.363 . S
C504 C505 1.363 . S
C504 C509 1.379 . S
C504 N511 1.356 . S
C505 C504 1.363 . S
C505 C508 1.363 . S
N506 C508 1.356 . S
N506 H518 0.984 . S
N506 H519 0.985 . S
N507 C509 1.356 . S
N507 H512 0.984 . S
N507 H513 0.985 . S
C508 C502 1.379 . S
C508 C505 1.363 . S
C508 N506 1.356 . S
C509 C503 1.363 . S
C509 C504 1.379 . S
C509 N507 1.356 . S
N510 C502 1.356 . S
N510 H516 0.984 . S
N510 H517 0.984 . S
N511 C504 1.356 . S
N511 H514 0.984 . S
N511 H515 0.985 . S
H512 N507 0.984 . S
H513 N507 0.985 . S
H514 N511 0.984 . S
H515 N511 0.985 . S
H516 N510 0.984 . S
H517 N510 0.984 . S
H518 N506 0.984 . S
H519 N506 0.985 . S
C520 C521 1.363 . S
C520 C526 1.379 . S
C520 N528 1.356 . S
C521 C520 1.363 . S
C521 C527 1.363 . S
C522 C523 1.363 . S
C522 C527 1.379 . S
C522 N529 1.356 . S
C523 C522 1.363 . S
C523 C526 1.363 . S
N524 C526 1.356 . S
N524 H536 0.984 . S
N524 H537 0.985 . S
N525 C527 1.356 . S
N525 H530 0.984 . S
N525 H531 0.985 . S
C526 C520 1.379 . S
C526 C523 1.363 . S
C526 N524 1.356 . S
C527 C521 1.363 . S
C527 C522 1.379 . S
C527 N525 1.356 . S
N528 C520 1.356 . S
N528 H534 0.984 . S
N528 H535 0.984 . S
N529 C522 1.356 . S
N529 H532 0.984 . S
N529 H533 0.985 . S
H530 N525 0.984 . S
H531 N525 0.985 . S
H532 N529 0.984 . S
H533 N529 0.985 . S
H534 N528 0.984 . S
H535 N528 0.984 . S
H536 N524 0.984 . S
H537 N524 0.985 . S
C538 C539 1.363 . S
C538 C544 1.379 . S
C538 N546 1.356 . S
C539 C538 1.363 . S
C539 C545 1.363 . S
C540 C541 1.362 1_556 S
C540 C545 1.379 . S
C540 N547 1.356 1_556 S
C541 C540 1.362 1_554 S
C541 C544 1.357 1_554 S
N542 C544 1.356 . S
N542 H554 0.984 . S
N542 H555 0.985 1_556 S
N543 C545 1.356 . S
N543 H548 0.984 . S
N543 H549 0.985 . S
C544 C538 1.379 . S
C544 C541 1.357 1_556 S
C544 N542 1.356 . S
C545 C539 1.363 . S
C545 C540 1.379 . S
C545 N543 1.356 . S
N546 C538 1.356 . S
N546 H552 0.984 . S
N546 H553 0.984 . S
N547 C540 1.356 1_554 S
N547 H550 0.984 . S
N547 H551 0.985 . S
H548 N543 0.984 . S
H549 N543 0.985 . S
H550 N547 0.984 . S
H551 N547 0.985 . S
H552 N546 0.984 . S
H553 N546 0.984 . S
H554 N542 0.984 . S
H555 N542 0.985 1_554 S
C556 C557 1.363 . S
C556 C562 1.379 . S
C556 N564 1.356 . S
C557 C556 1.363 . S
C557 C563 1.363 . S
C558 C559 1.363 . S
C558 C563 1.379 . S
C558 N565 1.356 . S
C559 C558 1.363 . S
C559 C562 1.363 . S
N560 C562 1.356 . S
N560 H572 0.984 . S
N560 H573 0.985 . S
N561 C563 1.356 . S
N561 H566 0.984 . S
N561 H567 0.985 . S
C562 C556 1.379 . S
C562 C559 1.363 . S
C562 N560 1.356 . S
C563 C557 1.363 . S
C563 C558 1.379 . S
C563 N561 1.356 . S
N564 C556 1.356 . S
N564 H570 0.984 . S
N564 H571 0.984 . S
N565 C558 1.356 . S
N565 H568 0.984 . S
N565 H569 0.985 . S
H566 N561 0.984 . S
H567 N561 0.985 . S
H568 N565 0.984 . S
H569 N565 0.985 . S
H570 N564 0.984 . S
H571 N564 0.984 . S
H572 N560 0.984 . S
H573 N560 0.985 . S
C574 C575 1.363 . S
C574 C580 1.379 . S
C574 N582 1.356 . S
C575 C574 1.363 . S
C575 C581 1.363 . S
C576 C577 1.363 . S
C576 C581 1.379 . S
C576 N583 1.356 . S
C577 C576 1.363 . S
C577 C580 1.363 . S
N578 C580 1.356 . S
N578 H590 0.984 . S
N578 H591 0.985 . S
N579 C581 1.356 . S
N579 H584 0.984 . S
N579 H585 0.985 . S
C580 C574 1.379 . S
C580 C577 1.363 . S
C580 N578 1.356 . S
C581 C575 1.363 . S
C581 C576 1.379 . S
C581 N579 1.356 . S
N582 C574 1.356 . S
N582 H588 0.984 . S
N582 H589 0.984 . S
N583 C576 1.356 . S
N583 H586 0.984 . S
N583 H587 0.985 . S
H584 N579 0.984 . S
H585 N579 0.985 . S
H586 N583 0.984 . S
H587 N583 0.985 . S
H588 N582 0.984 . S
H589 N582 0.984 . S
H590 N578 0.984 . S
H591 N578 0.985 . S
C592 C593 1.363 . S
C592 C598 1.379 . S
C592 N600 1.356 . S
C593 C592 1.363 . S
C593 C599 1.363 . S
C594 C595 1.363 . S
C594 C599 1.379 . S
C594 N601 1.356 . S
C595 C594 1.363 . S
C595 C598 1.363 . S
N596 C598 1.356 . S
N596 H608 0.984 . S
N596 H609 0.985 . S
N597 C599 1.356 . S
N597 H602 0.984 . S
N597 H603 0.985 . S
C598 C592 1.379 . S
C598 C595 1.363 . S
C598 N596 1.356 . S
C599 C593 1.363 . S
C599 C594 1.379 . S
C599 N597 1.356 . S
N600 C592 1.356 . S
N600 H606 0.984 . S
N600 H607 0.984 . S
N601 C594 1.356 . S
N601 H604 0.984 . S
N601 H605 0.985 . S
H602 N597 0.984 . S
H603 N597 0.985 . S
H604 N601 0.984 . S
H605 N601 0.985 . S
H606 N600 0.984 . S
H607 N600 0.984 . S
H608 N596 0.984 . S
H609 N596 0.985 . S
C610 C611 1.363 . S
C610 C616 1.379 . S
C610 N618 1.356 . S
C611 C610 1.363 . S
C611 C617 1.363 . S
C612 C613 1.363 . S
C612 C617 1.379 . S
C612 N619 1.356 . S
C613 C612 1.363 . S
C613 C616 1.363 . S
N614 C616 1.356 . S
N614 H626 0.984 . S
N614 H627 0.985 . S
N615 C617 1.356 . S
N615 H620 0.984 . S
N615 H621 0.985 . S
C616 C610 1.379 . S
C616 C613 1.363 . S
C616 N614 1.356 . S
C617 C611 1.363 . S
C617 C612 1.379 . S
C617 N615 1.356 . S
N618 C610 1.356 . S
N618 H624 0.984 . S
N618 H625 0.984 . S
N619 C612 1.356 . S
N619 H622 0.984 . S
N619 H623 0.985 . S
H620 N615 0.984 . S
H621 N615 0.985 . S
H622 N619 0.984 . S
H623 N619 0.985 . S
H624 N618 0.984 . S
H625 N618 0.984 . S
H626 N614 0.984 . S
H627 N614 0.985 . S
C628 C629 1.363 . S
C628 C634 1.379 . S
C628 N636 1.356 . S
C629 C628 1.363 . S
C629 C635 1.363 . S
C630 C631 1.366 . S
C630 C635 1.379 1_554 S
C630 N637 1.356 . S
C631 C630 1.366 . S
C631 C634 1.352 1_554 S
N632 C634 1.356 . S
N632 H644 0.984 . S
N632 H645 0.985 . S
N633 C635 1.356 . S
N633 H638 0.984 . S
N633 H639 0.985 1_556 S
C634 C628 1.379 . S
C634 C631 1.352 1_556 S
C634 N632 1.356 . S
C635 C629 1.363 . S
C635 C630 1.379 1_556 S
C635 N633 1.356 . S
N636 C628 1.356 . S
N636 H642 0.984 . S
N636 H643 0.984 . S
N637 C630 1.356 . S
N637 H640 0.984 . S
N637 H641 0.985 . S
H638 N633 0.984 . S
H639 N633 0.985 1_554 S
H640 N637 0.984 . S
H641 N637 0.985 . S
H642 N636 0.984 . S
H643 N636 0.984 . S
H644 N632 0.984 . S
H645 N632 0.985 . S
C646 C647 1.363 . S
C646 C652 1.379 . S
C646 N654 1.356 . S
C647 C646 1.363 . S
C647 C653 1.363 . S
C648 C649 1.363 . S
C648 C653 1.379 . S
C648 N655 1.356 . S
C649 C648 1.363 . S
C649 C652 1.363 . S
N650 C652 1.356 . S
N650 H662 0.984 . S
N650 H663 0.985 . S
N651 C653 1.356 . S
N651 H656 0.984 . S
N651 H657 0.985 . S
C652 C646 1.379 . S
C652 C649 1.363 . S
C652 N650 1.356 . S
C653 C647 1.363 . S
C653 C648 1.379 . S
C653 N651 1.356 . S
N654 C646 1.356 . S
N654 H660 0.984 . S
N654 H661 0.984 . S
N655 C648 1.356 . S
N655 H658 0.984 . S
N655 H659 0.985 . S
H656 N651 0.984 . S
H657 N651 0.985 . S
H658 N655 0.984 . S
H659 N655 0.985 . S
H660 N654 0.984 . S
H661 N654 0.984 . S
H662 N650 0.984 . S
H663 N650 0.985 . S
C664 C665 1.363 . S
C664 C670 1.379 . S
C664 N672 1.356 . S
C665 C664 1.363 . S
C665 C671 1.363 . S
C666 C667 1.363 . S
C666 C671 1.379 . S
C666 N673 1.356 . S
C667 C666 1.363 . S
C667 C670 1.363 . S
N668 C670 1.356 . S
N668 H680 0.984 . S
N668 H681 0.985 . S
N669 C671 1.356 . S
N669 H674 0.984 . S
N669 H675 0.985 . S
C670 C664 1.379 . S
C670 C667 1.363 . S
C670 N668 1.356 . S
C671 C665 1.363 . S
C671 C666 1.379 . S
C671 N669 1.356 . S
N672 C664 1.356 . S
N672 H678 0.984 . S
N672 H679 0.984 . S
N673 C666 1.356 . S
N673 H676 0.984 . S
N673 H677 0.985 . S
H674 N669 0.984 . S
H675 N669 0.985 . S
H676 N673 0.984 . S
H677 N673 0.985 . S
H678 N672 0.984 . S
H679 N672 0.984 . S
H680 N668 0.984 . S
H681 N668 0.985 . S
C682 C683 1.363 . S
C682 C688 1.379 . S
C682 N690 1.356 . S
C683 C682 1.363 . S
C683 C689 1.363 . S
C684 C685 1.363 . S
C684 C689 1.379 . S
C684 N691 1.356 . S
C685 C684 1.363 . S
C685 C688 1.363 . S
N686 C688 1.356 . S
N686 H698 0.984 . S
N686 H699 0.985 . S
N687 C689 1.356 . S
N687 H692 0.984 . S
N687 H693 0.985 . S
C688 C682 1.379 . S
C688 C685 1.363 . S
C688 N686 1.356 . S
C689 C683 1.363 . S
C689 C684 1.379 . S
C689 N687 1.356 . S
N690 C682 1.356 . S
N690 H696 0.984 . S
N690 H697 0.984 . S
N691 C684 1.356 . S
N691 H694 0.984 . S
N691 H695 0.985 . S
H692 N687 0.984 . S
H693 N687 0.985 . S
H694 N691 0.984 . S
H695 N691 0.985 . S
H696 N690 0.984 . S
H697 N690 0.984 . S
H698 N686 0.984 . S
H699 N686 0.985 . S
C700 C701 1.363 . S
C700 C706 1.379 . S
C700 N708 1.356 . S
C701 C700 1.363 . S
C701 C707 1.363 . S
C702 C703 1.363 . S
C702 C707 1.379 . S
C702 N709 1.356 . S
C703 C702 1.363 . S
C703 C706 1.363 . S
N704 C706 1.356 . S
N704 H716 0.984 . S
N704 H717 0.985 . S
N705 C707 1.356 . S
N705 H710 0.984 . S
N705 H711 0.985 . S
C706 C700 1.379 . S
C706 C703 1.363 . S
C706 N704 1.356 . S
C707 C701 1.363 . S
C707 C702 1.379 . S
C707 N705 1.356 . S
N708 C700 1.356 . S
N708 H714 0.984 . S
N708 H715 0.984 . S
N709 C702 1.356 . S
N709 H712 0.984 . S
N709 H713 0.985 . S
H710 N705 0.984 . S
H711 N705 0.985 . S
H712 N709 0.984 . S
H713 N709 0.985 . S
H714 N708 0.984 . S
H715 N708 0.984 . S
H716 N704 0.984 . S
H717 N704 0.985 . S
C718 C719 1.363 . S
C718 C724 1.379 1_556 S
C718 N726 1.356 . S
C719 C718 1.363 . S
C719 C725 1.363 . S
C720 C721 1.354 1_556 S
C720 C725 1.379 . S
C720 N727 1.356 . S
C721 C720 1.354 1_554 S
C721 C724 1.364 . S
N722 C724 1.356 . S
N722 H734 0.984 . S
N722 H735 0.985 . S
N723 C725 1.356 . S
N723 H728 0.984 . S
N723 H729 0.985 . S
C724 C718 1.379 1_554 S
C724 C721 1.364 . S
C724 N722 1.356 . S
C725 C719 1.363 . S
C725 C720 1.379 . S
C725 N723 1.356 . S
N726 C718 1.356 . S
N726 H732 0.984 . S
N726 H733 0.984 . S
N727 C720 1.356 . S
N727 H730 0.984 . S
N727 H731 0.985 . S
H728 N723 0.984 . S
H729 N723 0.985 . S
H730 N727 0.984 . S
H731 N727 0.985 . S
H732 N726 0.984 . S
H733 N726 0.984 . S
H734 N722 0.984 . S
H735 N722 0.985 . S
C736 C737 1.363 . S
C736 C742 1.379 . S
C736 N744 1.356 . S
C737 C736 1.363 . S
C737 C743 1.363 . S
C738 C739 1.363 . S
C738 C743 1.379 . S
C738 N745 1.356 . S
C739 C738 1.363 . S
C739 C742 1.363 . S
N740 C742 1.356 . S
N740 H752 0.984 . S
N740 H753 0.985 . S
N741 C743 1.356 . S
N741 H746 0.984 . S
N741 H747 0.985 . S
C742 C736 1.379 . S
C742 C739 1.363 . S
C742 N740 1.356 . S
C743 C737 1.363 . S
C743 C738 1.379 . S
C743 N741 1.356 . S
N744 C736 1.356 . S
N744 H750 0.984 . S
N744 H751 0.984 . S
N745 C738 1.356 . S
N745 H748 0.984 . S
N745 H749 0.985 . S
H746 N741 0.984 . S
H747 N741 0.985 . S
H748 N745 0.984 . S
H749 N745 0.985 . S
H750 N744 0.984 . S
H751 N744 0.984 . S
H752 N740 0.984 . S
H753 N740 0.985 . S
C754 C755 1.363 1_545 S
C754 C760 1.379 . S
C754 N762 1.356 . S
C755 C754 1.363 1_565 S
C755 C761 1.363 . S
C756 C757 1.363 1_565 S
C756 C761 1.379 . S
C756 N763 1.356 1_554 S
C757 C756 1.363 1_545 S
C757 C760 1.363 . S
N758 C760 1.356 . S
N758 H770 0.984 . S
N758 H771 0.985 1_554 S
N759 C761 1.356 . S
N759 H764 0.984 . S
N759 H765 0.985 . S
C760 C754 1.379 . S
C760 C757 1.363 . S
C760 N758 1.356 . S
C761 C755 1.363 . S
C761 C756 1.379 . S
C761 N759 1.356 . S
N762 C754 1.356 . S
N762 H768 0.984 . S
N762 H769 0.984 . S
N763 C756 1.356 1_556 S
N763 H766 0.984 . S
N763 H767 0.985 . S
H764 N759 0.984 . S
H765 N759 0.985 . S
H766 N763 0.984 . S
H767 N763 0.985 . S
H768 N762 0.984 . S
H769 N762 0.984 . S
H770 N758 0.984 . S
H771 N758 0.985 1_556 S
C772 C773 1.363 . S
C772 C778 1.379 . S
C772 N780 1.356 . S
C773 C772 1.363 . S
C773 C779 1.363 . S
C774 C775 1.363 . S
C774 C779 1.379 . S
C774 N781 1.356 . S
C775 C774 1.363 . S
C775 C778 1.363 . S
N776 C778 1.356 . S
N776 H788 0.984 . S
N776 H789 0.985 . S
N777 C779 1.356 . S
N777 H782 0.984 . S
N777 H783 0.985 . S
C778 C772 1.379 . S
C778 C775 1.363 . S
C778 N776 1.356 . S
C779 C773 1.363 . S
C779 C774 1.379 . S
C779 N777 1.356 . S
N780 C772 1.356 . S
N780 H786 0.984 . S
N780 H787 0.984 . S
N781 C774 1.356 . S
N781 H784 0.984 . S
N781 H785 0.985 . S
H782 N777 0.984 . S
H783 N777 0.985 . S
H784 N781 0.984 . S
H785 N781 0.985 . S
H786 N780 0.984 . S
H787 N780 0.984 . S
H788 N776 0.984 . S
H789 N776 0.985 . S
C790 C791 1.363 1_565 S
C790 C796 1.379 . S
C790 N798 1.356 . S
C791 C790 1.363 1_545 S
C791 C797 1.363 . S
C792 C793 1.363 1_545 S
C792 C797 1.379 . S
C792 N799 1.356 . S
C793 C792 1.363 1_565 S
C793 C796 1.363 . S
N794 C796 1.356 . S
N794 H806 0.984 . S
N794 H807 0.985 . S
N795 C797 1.356 . S
N795 H800 0.984 . S
N795 H801 0.985 . S
C796 C790 1.379 . S
C796 C793 1.363 . S
C796 N794 1.356 . S
C797 C791 1.363 . S
C797 C792 1.379 . S
C797 N795 1.356 . S
N798 C790 1.356 . S
N798 H804 0.984 . S
N798 H805 0.984 . S
N799 C792 1.356 . S
N799 H802 0.984 . S
N799 H803 0.985 . S
H800 N795 0.984 . S
H801 N795 0.985 . S
H802 N799 0.984 . S
H803 N799 0.985 . S
H804 N798 0.984 . S
H805 N798 0.984 . S
H806 N794 0.984 . S
H807 N794 0.985 . S
C808 C809 1.363 . S
C808 C814 1.379 . S
C808 N816 1.356 . S
C809 C808 1.363 . S
C809 C815 1.363 . S
C810 C811 1.363 . S
C810 C815 1.379 . S
C810 N817 1.356 . S
C811 C810 1.363 . S
C811 C814 1.363 . S
N812 C814 1.356 . S
N812 H824 0.984 . S
N812 H825 0.985 . S
N813 C815 1.356 . S
N813 H818 0.984 . S
N813 H819 0.985 . S
C814 C808 1.379 . S
C814 C811 1.363 . S
C814 N812 1.356 . S
C815 C809 1.363 . S
C815 C810 1.379 . S
C815 N813 1.356 . S
N816 C808 1.356 . S
N816 H822 0.984 . S
N816 H823 0.984 . S
N817 C810 1.356 . S
N817 H820 0.984 . S
N817 H821 0.985 . S
H818 N813 0.984 . S
H819 N813 0.985 . S
H820 N817 0.984 . S
H821 N817 0.985 . S
H822 N816 0.984 . S
H823 N816 0.984 . S
H824 N812 0.984 . S
H825 N812 0.985 . S
C826 C827 1.363 1_565 S
C826 C832 1.379 . S
C826 N834 1.356 1_554 S
C827 C826 1.363 1_545 S
C827 C833 1.363 . S
C828 C829 1.363 1_545 S
C828 C833 1.379 . S
C828 N835 1.356 . S
C829 C828 1.363 1_565 S
C829 C832 1.363 . S
N830 C832 1.356 . S
N830 H842 0.984 . S
N830 H843 0.985 . S
N831 C833 1.356 . S
N831 H836 0.984 1_554 S
N831 H837 0.985 . S
C832 C826 1.379 . S
C832 C829 1.363 . S
C832 N830 1.356 . S
C833 C827 1.363 . S
C833 C828 1.379 . S
C833 N831 1.356 . S
N834 C826 1.356 1_556 S
N834 H840 0.984 . S
N834 H841 0.984 . S
N835 C828 1.356 . S
N835 H838 0.984 . S
N835 H839 0.985 . S
H836 N831 0.984 1_556 S
H837 N831 0.985 . S
H838 N835 0.984 . S
H839 N835 0.985 . S
H840 N834 0.984 . S
H841 N834 0.984 . S
H842 N830 0.984 . S
H843 N830 0.985 . S
C844 C845 1.363 . S
C844 C850 1.379 . S
C844 N852 1.356 . S
C845 C844 1.363 . S
C845 C851 1.363 . S
C846 C847 1.363 . S
C846 C851 1.379 . S
C846 N853 1.356 . S
C847 C846 1.363 . S
C847 C850 1.363 . S
N848 C850 1.356 . S
N848 H860 0.984 . S
N848 H861 0.985 . S
N849 C851 1.356 . S
N849 H854 0.984 . S
N849 H855 0.985 . S
C850 C844 1.379 . S
C850 C847 1.363 . S
C850 N848 1.356 . S
C851 C845 1.363 . S
C851 C846 1.379 . S
C851 N849 1.356 . S
N852 C844 1.356 . S
N852 H858 0.984 . S
N852 H859 0.984 . S
N853 C846 1.356 . S
N853 H856 0.984 . S
N853 H857 0.985 . S
H854 N849 0.984 . S
H855 N849 0.985 . S
H856 N853 0.984 . S
H857 N853 0.985 . S
H858 N852 0.984 . S
H859 N852 0.984 . S
H860 N848 0.984 . S
H861 N848 0.985 . S
C862 C863 1.363 . S
C862 C868 1.379 . S
C862 N870 1.356 . S
C863 C862 1.363 . S
C863 C869 1.363 1_545 S
C864 C865 1.363 . S
C864 C869 1.379 . S
C864 N871 1.356 . S
C865 C864 1.363 . S
C865 C868 1.363 1_565 S
N866 C868 1.356 . S
N866 H878 0.984 . S
N866 H879 0.985 . S
N867 C869 1.356 . S
N867 H872 0.984 . S
N867 H873 0.985 . S
C868 C862 1.379 . S
C868 C865 1.363 1_545 S
C868 N866 1.356 . S
C869 C863 1.363 1_565 S
C869 C864 1.379 . S
C869 N867 1.356 . S
N870 C862 1.356 . S
N870 H876 0.984 . S
N870 H877 0.984 . S
N871 C864 1.356 . S
N871 H874 0.984 . S
N871 H875 0.985 . S
H872 N867 0.984 . S
H873 N867 0.985 . S
H874 N871 0.984 . S
H875 N871 0.985 . S
H876 N870 0.984 . S
H877 N870 0.984 . S
H878 N866 0.984 . S
H879 N866 0.985 . S
C880 C881 1.363 . S
C880 C886 1.379 . S
C880 N888 1.356 . S
C881 C880 1.363 . S
C881 C887 1.363 . S
C882 C883 1.363 . S
C882 C887 1.379 . S
C882 N889 1.356 . S
C883 C882 1.363 . S
C883 C886 1.363 . S
N884 C886 1.356 . S
N884 H896 0.984 . S
N884 H897 0.985 . S
N885 C887 1.356 . S
N885 H890 0.984 . S
N885 H891 0.985 . S
C886 C880 1.379 . S
C886 C883 1.363 . S
C886 N884 1.356 . S
C887 C881 1.363 . S
C887 C882 1.379 . S
C887 N885 1.356 . S
N888 C880 1.356 . S
N888 H894 0.984 . S
N888 H895 0.984 . S
N889 C882 1.356 . S
N889 H892 0.984 . S
N889 H893 0.985 . S
H890 N885 0.984 . S
H891 N885 0.985 . S
H892 N889 0.984 . S
H893 N889 0.985 . S
H894 N888 0.984 . S
H895 N888 0.984 . S
H896 N884 0.984 . S
H897 N884 0.985 . S
C898 C899 1.363 . S
C898 C904 1.379 . S
C898 N906 1.356 . S
C899 C898 1.363 . S
C899 C905 1.363 . S
C900 C901 1.363 . S
C900 C905 1.379 . S
C900 N907 1.356 . S
C901 C900 1.363 . S
C901 C904 1.363 . S
N902 C904 1.356 . S
N902 H914 0.984 . S
N902 H915 0.985 . S
N903 C905 1.356 . S
N903 H908 0.984 . S
N903 H909 0.985 . S
C904 C898 1.379 . S
C904 C901 1.363 . S
C904 N902 1.356 . S
C905 C899 1.363 . S
C905 C900 1.379 . S
C905 N903 1.356 . S
N906 C898 1.356 . S
N906 H912 0.984 . S
N906 H913 0.984 . S
N907 C900 1.356 . S
N907 H910 0.984 . S
N907 H911 0.985 . S
H908 N903 0.984 . S
H909 N903 0.985 . S
H910 N907 0.984 . S
H911 N907 0.985 . S
H912 N906 0.984 . S
H913 N906 0.984 . S
H914 N902 0.984 . S
H915 N902 0.985 . S
C916 C917 1.363 . S
C916 C922 1.379 . S
C916 N924 1.356 . S
C917 C916 1.363 . S
C917 C923 1.363 . S
C918 C919 1.363 . S
C918 C923 1.379 . S
C918 N925 1.356 . S
C919 C918 1.363 . S
C919 C922 1.363 . S
N920 C922 1.356 . S
N920 H932 0.984 . S
N920 H933 0.985 . S
N921 C923 1.356 . S
N921 H926 0.984 . S
N921 H927 0.985 . S
C922 C916 1.379 . S
C922 C919 1.363 . S
C922 N920 1.356 . S
C923 C917 1.363 . S
C923 C918 1.379 . S
C923 N921 1.356 . S
N924 C916 1.356 . S
N924 H930 0.984 . S
N924 H931 0.984 . S
N925 C918 1.356 . S
N925 H928 0.984 . S
N925 H929 0.985 . S
H926 N921 0.984 . S
H927 N921 0.985 . S
H928 N925 0.984 . S
H929 N925 0.985 . S
H930 N924 0.984 . S
H931 N924 0.984 . S
H932 N920 0.984 . S
H933 N920 0.985 . S
C934 C935 1.363 . S
C934 C940 1.379 . S
C934 N942 1.356 . S
C935 C934 1.363 . S
C935 C941 1.363 . S
C936 C937 1.363 . S
C936 C941 1.379 . S
C936 N943 1.356 . S
C937 C936 1.363 . S
C937 C940 1.363 . S
N938 C940 1.356 1_556 S
N938 H950 0.984 . S
N938 H951 0.985 . S
N939 C941 1.356 . S
N939 H944 0.984 . S
N939 H945 0.985 . S
C940 C934 1.379 . S
C940 C937 1.363 . S
C940 N938 1.356 1_554 S
C941 C935 1.363 . S
C941 C936 1.379 . S
C941 N939 1.356 . S
N942 C934 1.356 . S
N942 H948 0.984 . S
N942 H949 0.984 . S
N943 C936 1.356 . S
N943 H946 0.984 1_554 S
N943 H947 0.985 . S
H944 N939 0.984 . S
H945 N939 0.985 . S
H946 N943 0.984 1_556 S
H947 N943 0.985 . S
H948 N942 0.984 . S
H949 N942 0.984 . S
H950 N938 0.984 . S
H951 N938 0.985 . S
C952 C953 1.363 . S
C952 C958 1.379 . S
C952 N960 1.356 . S
C953 C952 1.363 . S
C953 C959 1.363 . S
C954 C955 1.363 . S
C954 C959 1.379 . S
C954 N961 1.356 . S
C955 C954 1.363 . S
C955 C958 1.363 . S
N956 C958 1.356 . S
N956 H968 0.984 . S
N956 H969 0.985 . S
N957 C959 1.356 . S
N957 H962 0.984 . S
N957 H963 0.985 . S
C958 C952 1.379 . S
C958 C955 1.363 . S
C958 N956 1.356 . S
C959 C953 1.363 . S
C959 C954 1.379 . S
C959 N957 1.356 . S
N960 C952 1.356 . S
N960 H966 0.984 . S
N960 H967 0.984 . S
N961 C954 1.356 . S
N961 H964 0.984 . S
N961 H965 0.985 . S
H962 N957 0.984 . S
H963 N957 0.985 . S
H964 N961 0.984 . S
H965 N961 0.985 . S
H966 N960 0.984 . S
H967 N960 0.984 . S
H968 N956 0.984 . S
H969 N956 0.985 . S
C970 C971 1.363 . S
C970 C976 1.379 . S
C970 N978 1.356 . S
C971 C970 1.363 . S
C971 C977 1.363 . S
C972 C973 1.363 . S
C972 C977 1.379 . S
C972 N979 1.356 . S
C973 C972 1.363 . S
C973 C976 1.363 . S
N974 C976 1.356 . S
N974 H986 0.984 . S
N974 H987 0.985 . S
N975 C977 1.356 . S
N975 H980 0.984 . S
N975 H981 0.985 . S
C976 C970 1.379 . S
C976 C973 1.363 . S
C976 N974 1.356 . S
C977 C971 1.363 . S
C977 C972 1.379 . S
C977 N975 1.356 . S
N978 C970 1.356 . S
N978 H984 0.984 . S
N978 H985 0.984 . S
N979 C972 1.356 . S
N979 H982 0.984 . S
N979 H983 0.985 . S
H980 N975 0.984 . S
H981 N975 0.985 . S
H982 N979 0.984 . S
H983 N979 0.985 . S
H984 N978 0.984 . S
H985 N978 0.984 . S
H986 N974 0.984 . S
H987 N974 0.985 . S
C988 C989 1.363 . S
C988 C994 1.379 . S
C988 N996 1.356 . S
C989 C988 1.363 . S
C989 C995 1.363 . S
C990 C991 1.363 . S
C990 C995 1.379 . S
C990 N997 1.356 . S
C991 C990 1.363 . S
C991 C994 1.363 . S
N992 C994 1.356 . S
N992 H1004 0.984 . S
N992 H1005 0.985 . S
N993 C995 1.356 . S
N993 H998 0.984 . S
N993 H999 0.985 . S
C994 C988 1.379 . S
C994 C991 1.363 . S
C994 N992 1.356 . S
C995 C989 1.363 . S
C995 C990 1.379 . S
C995 N993 1.356 . S
N996 C988 1.356 . S
N996 H1002 0.984 . S
N996 H1003 0.984 . S
N997 C990 1.356 . S
N997 H1000 0.984 . S
N997 H1001 0.985 . S
H998 N993 0.984 . S
H999 N993 0.985 . S
H1000 N997 0.984 . S
H1001 N997 0.985 . S
H1002 N996 0.984 . S
H1003 N996 0.984 . S
H1004 N992 0.984 . S
H1005 N992 0.985 . S
C1006 C1007 1.363 . S
C1006 C1012 1.379 . S
C1006 N1014 1.356 . S
C1007 C1006 1.363 . S
C1007 C1013 1.363 . S
C1008 C1009 1.363 . S
C1008 C1013 1.379 . S
C1008 N1015 1.356 1_554 S
C1009 C1008 1.363 . S
C1009 C1012 1.363 . S
N1010 C1012 1.356 . S
N1010 H1022 0.984 . S
N1010 H1023 0.985 1_554 S
N1011 C1013 1.356 . S
N1011 H1016 0.984 . S
N1011 H1017 0.985 . S
C1012 C1006 1.379 . S
C1012 C1009 1.363 . S
C1012 N1010 1.356 . S
C1013 C1007 1.363 . S
C1013 C1008 1.379 . S
C1013 N1011 1.356 . S
N1014 C1006 1.356 . S
N1014 H1020 0.984 . S
N1014 H1021 0.984 . S
N1015 C1008 1.356 1_556 S
N1015 H1018 0.984 . S
N1015 H1019 0.985 . S
H1016 N1011 0.984 . S
H1017 N1011 0.985 . S
H1018 N1015 0.984 . S
H1019 N1015 0.985 . S
H1020 N1014 0.984 . S
H1021 N1014 0.984 . S
H1022 N1010 0.984 . S
H1023 N1010 0.985 1_556 S
C1024 C1025 1.363 . S
C1024 C1030 1.379 . S
C1024 N1032 1.356 1_554 S
C1025 C1024 1.363 . S
C1025 C1031 1.363 . S
C1026 C1027 1.363 . S
C1026 C1031 1.379 . S
C1026 N1033 1.356 . S
C1027 C1026 1.363 . S
C1027 C1030 1.363 . S
N1028 C1030 1.356 1_556 S
N1028 H1040 0.984 . S
N1028 H1041 0.985 . S
N1029 C1031 1.356 . S
N1029 H1034 0.984 . S
N1029 H1035 0.985 . S
C1030 C1024 1.379 . S
C1030 C1027 1.363 . S
C1030 N1028 1.356 1_554 S
C1031 C1025 1.363 . S
C1031 C1026 1.379 . S
C1031 N1029 1.356 . S
N1032 C1024 1.356 1_556 S
N1032 H1038 0.984 . S
N1032 H1039 0.984 . S
N1033 C1026 1.356 . S
N1033 H1036 0.984 . S
N1033 H1037 0.985 . S
H1034 N1029 0.984 . S
H1035 N1029 0.985 . S
H1036 N1033 0.984 . S
H1037 N1033 0.985 . S
H1038 N1032 0.984 . S
H1039 N1032 0.984 . S
H1040 N1028 0.984 . S
H1041 N1028 0.985 . S
C1042 C1043 1.363 . S
C1042 C1048 1.379 1_455 S
C1042 N1050 1.356 . S
C1043 C1042 1.363 . S
C1043 C1049 1.363 . S
C1044 C1045 1.363 . S
C1044 C1049 1.379 1_655 S
C1044 N1051 1.356 . S
C1045 C1044 1.363 . S
C1045 C1048 1.363 . S
N1046 C1048 1.356 . S
N1046 H1058 0.984 . S
N1046 H1059 0.985 . S
N1047 C1049 1.356 . S
N1047 H1052 0.984 . S
N1047 H1053 0.985 . S
C1048 C1042 1.379 1_655 S
C1048 C1045 1.363 . S
C1048 N1046 1.356 . S
C1049 C1043 1.363 . S
C1049 C1044 1.379 1_455 S
C1049 N1047 1.356 . S
N1050 C1042 1.356 . S
N1050 H1056 0.984 . S
N1050 H1057 0.984 . S
N1051 C1044 1.356 . S
N1051 H1054 0.984 . S
N1051 H1055 0.985 . S
H1052 N1047 0.984 . S
H1053 N1047 0.985 . S
H1054 N1051 0.984 . S
H1055 N1051 0.985 . S
H1056 N1050 0.984 . S
H1057 N1050 0.984 . S
H1058 N1046 0.984 . S
H1059 N1046 0.985 . S
C1060 C1061 1.363 . S
C1060 C1066 1.379 . S
C1060 N1068 1.356 . S
C1061 C1060 1.363 . S
C1061 C1067 1.363 . S
C1062 C1063 1.363 . S
C1062 C1067 1.379 . S
C1062 N1069 1.356 . S
C1063 C1062 1.363 . S
C1063 C1066 1.363 . S
N1064 C1066 1.356 . S
N1064 H1076 0.984 . S
N1064 H1077 0.985 . S
N1065 C1067 1.356 . S
N1065 H1070 0.984 . S
N1065 H1071 0.985 . S
C1066 C1060 1.379 . S
C1066 C1063 1.363 . S
C1066 N1064 1.356 . S
C1067 C1061 1.363 . S
C1067 C1062 1.379 . S
C1067 N1065 1.356 . S
N1068 C1060 1.356 . S
N1068 H1074 0.984 . S
N1068 H1075 0.984 . S
N1069 C1062 1.356 . S
N1069 H1072 0.984 . S
N1069 H1073 0.985 . S
H1070 N1065 0.984 . S
H1071 N1065 0.985 . S
H1072 N1069 0.984 . S
H1073 N1069 0.985 . S
H1074 N1068 0.984 . S
H1075 N1068 0.984 . S
H1076 N1064 0.984 . S
H1077 N1064 0.985 . S
C1078 C1079 1.363 . S
C1078 C1084 1.379 . S
C1078 N1086 1.356 . S
C1079 C1078 1.363 . S
C1079 C1085 1.363 . S
C1080 C1081 1.363 . S
C1080 C1085 1.379 . S
C1080 N1087 1.356 . S
C1081 C1080 1.363 . S
C1081 C1084 1.363 . S
N1082 C1084 1.356 . S
N1082 H1094 0.984 . S
N1082 H1095 0.985 . S
N1083 C1085 1.356 . S
N1083 H1088 0.984 . S
N1083 H1089 0.985 . S
C1084 C1078 1.379 . S
C1084 C1081 1.363 . S
C1084 N1082 1.356 . S
C1085 C1079 1.363 . S
C1085 C1080 1.379 . S
C1085 N1083 1.356 . S
N1086 C1078 1.356 . S
N1086 H1092 0.984 . S
N1086 H1093 0.984 . S
N1087 C1080 1.356 . S
N1087 H1090 0.984 . S
N1087 H1091 0.985 . S
H1088 N1083 0.984 . S
H1089 N1083 0.985 . S
H1090 N1087 0.984 . S
H1091 N1087 0.985 . S
H1092 N1086 0.984 . S
H1093 N1086 0.984 . S
H1094 N1082 0.984 . S
H1095 N1082 0.985 . S
C1096 C1097 1.363 . S
C1096 C1102 1.379 . S
C1096 N1104 1.356 . S
C1097 C1096 1.363 . S
C1097 C1103 1.363 . S
C1098 C1099 1.363 . S
C1098 C1103 1.379 . S
C1098 N1105 1.356 1_554 S
C1099 C1098 1.363 . S
C1099 C1102 1.363 . S
N1100 C1102 1.356 . S
N1100 H1112 0.984 . S
N1100 H1113 0.985 . S
N1101 C1103 1.356 1_556 S
N1101 H1106 0.984 1_556 S
N1101 H1107 0.985 . S
C1102 C1096 1.379 . S
C1102 C1099 1.363 . S
C1102 N1100 1.356 . S
C1103 C1097 1.363 . S
C1103 C1098 1.379 . S
C1103 N1101 1.356 1_554 S
N1104 C1096 1.356 . S
N1104 H1110 0.984 . S
N1104 H1111 0.984 . S
N1105 C1098 1.356 1_556 S
N1105 H1108 0.984 1_556 S
N1105 H1109 0.985 . S
H1106 N1101 0.984 1_554 S
H1107 N1101 0.985 . S
H1108 N1105 0.984 1_554 S
H1109 N1105 0.985 . S
H1110 N1104 0.984 . S
H1111 N1104 0.984 . S
H1112 N1100 0.984 . S
H1113 N1100 0.985 . S
C1114 C1115 1.363 . S
C1114 C1120 1.379 . S
C1114 N1122 1.356 . S
C1115 C1114 1.363 . S
C1115 C1121 1.363 . S
C1116 C1117 1.363 . S
C1116 C1121 1.379 . S
C1116 N1123 1.356 . S
C1117 C1116 1.363 . S
C1117 C1120 1.363 . S
N1118 C1120 1.356 . S
N1118 H1130 0.984 . S
N1118 H1131 0.985 . S
N1119 C1121 1.356 . S
N1119 H1124 0.984 . S
N1119 H1125 0.985 1_565 S
C1120 C1114 1.379 . S
C1120 C1117 1.363 . S
C1120 N1118 1.356 . S
C1121 C1115 1.363 . S
C1121 C1116 1.379 . S
C1121 N1119 1.356 . S
N1122 C1114 1.356 . S
N1122 H1128 0.984 . S
N1122 H1129 0.984 . S
N1123 C1116 1.356 . S
N1123 H1126 0.984 . S
N1123 H1127 0.985 1_565 S
H1124 N1119 0.984 . S
H1125 N1119 0.985 1_545 S
H1126 N1123 0.984 . S
H1127 N1123 0.985 1_545 S
H1128 N1122 0.984 . S
H1129 N1122 0.984 . S
H1130 N1118 0.984 . S
H1131 N1118 0.985 . S
C1132 C1133 1.363 . S
C1132 C1138 1.379 . S
C1132 N1140 1.356 . S
C1133 C1132 1.363 . S
C1133 C1139 1.363 . S
C1134 C1135 1.363 . S
C1134 C1139 1.379 . S
C1134 N1141 1.356 . S
C1135 C1134 1.363 . S
C1135 C1138 1.363 . S
N1136 C1138 1.356 . S
N1136 H1148 0.984 . S
N1136 H1149 0.985 . S
N1137 C1139 1.356 . S
N1137 H1142 0.984 . S
N1137 H1143 0.985 . S
C1138 C1132 1.379 . S
C1138 C1135 1.363 . S
C1138 N1136 1.356 . S
C1139 C1133 1.363 . S
C1139 C1134 1.379 . S
C1139 N1137 1.356 . S
N1140 C1132 1.356 . S
N1140 H1146 0.984 . S
N1140 H1147 0.984 . S
N1141 C1134 1.356 . S
N1141 H1144 0.984 . S
N1141 H1145 0.985 . S
H1142 N1137 0.984 . S
H1143 N1137 0.985 . S
H1144 N1141 0.984 . S
H1145 N1141 0.985 . S
H1146 N1140 0.984 . S
H1147 N1140 0.984 . S
H1148 N1136 0.984 . S
H1149 N1136 0.985 . S
C1150 C1151 1.363 . S
C1150 C1156 1.379 1_655 S
C1150 N1158 1.356 . S
C1151 C1150 1.363 . S
C1151 C1157 1.363 . S
C1152 C1153 1.363 . S
C1152 C1157 1.379 1_455 S
C1152 N1159 1.356 . S
C1153 C1152 1.363 . S
C1153 C1156 1.363 . S
N1154 C1156 1.356 . S
N1154 H1166 0.984 1_545 S
N1154 H1167 0.985 . S
N1155 C1157 1.356 . S
N1155 H1160 0.984 . S
N1155 H1161 0.985 . S
C1156 C1150 1.379 1_455 S
C1156 C1153 1.363 . S
C1156 N1154 1.356 . S
C1157 C1151 1.363 . S
C1157 C1152 1.379 1_655 S
C1157 N1155 1.356 . S
N1158 C1150 1.356 . S
N1158 H1164 0.984 1_545 S
N1158 H1165 0.984 . S
N1159 C1152 1.356 . S
N1159 H1162 0.984 . S
N1159 H1163 0.985 . S
H1160 N1155 0.984 . S
H1161 N1155 0.985 . S
H1162 N1159 0.984 . S
H1163 N1159 0.985 . S
H1164 N1158 0.984 1_565 S
H1165 N1158 0.984 . S
H1166 N1154 0.984 1_565 S
H1167 N1154 0.985 . S
C1168 C1169 1.363 . S
C1168 C1174 1.379 . S
C1168 N1176 1.356 . S
C1169 C1168 1.363 . S
C1169 C1175 1.363 . S
C1170 C1171 1.363 . S
C1170 C1175 1.379 . S
C1170 N1177 1.356 1_554 S
C1171 C1170 1.363 . S
C1171 C1174 1.363 . S
N1172 C1174 1.356 . S
N1172 H1184 0.984 . S
N1172 H1185 0.985 . S
N1173 C1175 1.356 1_556 S
N1173 H1178 0.984 1_556 S
N1173 H1179 0.985 . S
C1174 C1168 1.379 . S
C1174 C1171 1.363 . S
C1174 N1172 1.356 . S
C1175 C1169 1.363 . S
C1175 C1170 1.379 . S
C1175 N1173 1.356 1_554 S
N1176 C1168 1.356 . S
N1176 H1182 0.984 . S
N1176 H1183 0.984 . S
N1177 C1170 1.356 1_556 S
N1177 H1180 0.984 1_556 S
N1177 H1181 0.985 . S
H1178 N1173 0.984 1_554 S
H1179 N1173 0.985 . S
H1180 N1177 0.984 1_554 S
H1181 N1177 0.985 . S
H1182 N1176 0.984 . S
H1183 N1176 0.984 . S
H1184 N1172 0.984 . S
H1185 N1172 0.985 . S
C1186 C1187 1.363 . S
C1186 C1192 1.379 . S
C1186 N1194 1.356 . S
C1187 C1186 1.363 . S
C1187 C1193 1.363 . S
C1188 C1189 1.363 . S
C1188 C1193 1.379 . S
C1188 N1195 1.356 . S
C1189 C1188 1.363 . S
C1189 C1192 1.363 . S
N1190 C1192 1.356 . S
N1190 H1202 0.984 . S
N1190 H1203 0.985 . S
N1191 C1193 1.356 . S
N1191 H1196 0.984 . S
N1191 H1197 0.985 . S
C1192 C1186 1.379 . S
C1192 C1189 1.363 . S
C1192 N1190 1.356 . S
C1193 C1187 1.363 . S
C1193 C1188 1.379 . S
C1193 N1191 1.356 . S
N1194 C1186 1.356 . S
N1194 H1200 0.984 . S
N1194 H1201 0.984 . S
N1195 C1188 1.356 . S
N1195 H1198 0.984 . S
N1195 H1199 0.985 . S
H1196 N1191 0.984 . S
H1197 N1191 0.985 . S
H1198 N1195 0.984 . S
H1199 N1195 0.985 . S
H1200 N1194 0.984 . S
H1201 N1194 0.984 . S
H1202 N1190 0.984 . S
H1203 N1190 0.985 . S
C1204 C1205 1.363 . S
C1204 C1210 1.379 . S
C1204 N1212 1.356 . S
C1205 C1204 1.363 . S
C1205 C1211 1.363 . S
C1206 C1207 1.363 . S
C1206 C1211 1.379 . S
C1206 N1213 1.356 1_554 S
C1207 C1206 1.363 . S
C1207 C1210 1.363 . S
N1208 C1210 1.356 . S
N1208 H1220 0.984 . S
N1208 H1221 0.985 . S
N1209 C1211 1.356 1_556 S
N1209 H1214 0.984 . S
N1209 H1215 0.985 . S
C1210 C1204 1.379 . S
C1210 C1207 1.363 . S
C1210 N1208 1.356 . S
C1211 C1205 1.363 . S
C1211 C1206 1.379 . S
C1211 N1209 1.356 1_554 S
N1212 C1204 1.356 . S
N1212 H1218 0.984 . S
N1212 H1219 0.984 . S
N1213 C1206 1.356 1_556 S
N1213 H1216 0.984 . S
N1213 H1217 0.985 . S
H1214 N1209 0.984 . S
H1215 N1209 0.985 . S
H1216 N1213 0.984 . S
H1217 N1213 0.985 . S
H1218 N1212 0.984 . S
H1219 N1212 0.984 . S
H1220 N1208 0.984 . S
H1221 N1208 0.985 . S
C1222 C1223 1.363 . S
C1222 C1228 1.379 . S
C1222 N1230 1.356 . S
C1223 C1222 1.363 . S
C1223 C1229 1.363 . S
C1224 C1225 1.363 . S
C1224 C1229 1.379 . S
C1224 N1231 1.356 . S
C1225 C1224 1.363 . S
C1225 C1228 1.363 . S
N1226 C1228 1.356 . S
N1226 H1238 0.984 . S
N1226 H1239 0.985 . S
N1227 C1229 1.356 . S
N1227 H1232 0.984 . S
N1227 H1233 0.985 . S
C1228 C1222 1.379 . S
C1228 C1225 1.363 . S
C1228 N1226 1.356 . S
C1229 C1223 1.363 . S
C1229 C1224 1.379 . S
C1229 N1227 1.356 . S
N1230 C1222 1.356 . S
N1230 H1236 0.984 . S
N1230 H1237 0.984 . S
N1231 C1224 1.356 . S
N1231 H1234 0.984 . S
N1231 H1235 0.985 . S
H1232 N1227 0.984 . S
H1233 N1227 0.985 . S
H1234 N1231 0.984 . S
H1235 N1231 0.985 . S
H1236 N1230 0.984 . S
H1237 N1230 0.984 . S
H1238 N1226 0.984 . S
H1239 N1226 0.985 . S
C1240 C1241 1.363 . S
C1240 C1246 1.379 . S
C1240 N1248 1.356 . S
C1241 C1240 1.363 . S
C1241 C1247 1.363 . S
C1242 C1243 1.363 . S
C1242 C1247 1.379 . S
C1242 N1249 1.356 . S
C1243 C1242 1.363 . S
C1243 C1246 1.363 . S
N1244 C1246 1.356 . S
N1244 H1256 0.984 . S
N1244 H1257 0.985 . S
N1245 C1247 1.356 . S
N1245 H1250 0.984 . S
N1245 H1251 0.985 . S
C1246 C1240 1.379 . S
C1246 C1243 1.363 . S
C1246 N1244 1.356 . S
C1247 C1241 1.363 . S
C1247 C1242 1.379 . S
C1247 N1245 1.356 . S
N1248 C1240 1.356 . S
N1248 H1254 0.984 . S
N1248 H1255 0.984 . S
N1249 C1242 1.356 . S
N1249 H1252 0.984 . S
N1249 H1253 0.985 . S
H1250 N1245 0.984 . S
H1251 N1245 0.985 . S
H1252 N1249 0.984 . S
H1253 N1249 0.985 . S
H1254 N1248 0.984 . S
H1255 N1248 0.984 . S
H1256 N1244 0.984 . S
H1257 N1244 0.985 . S
C1258 C1259 1.363 . S
C1258 C1264 1.379 1_655 S
C1258 N1266 1.356 . S
C1259 C1258 1.363 . S
C1259 C1265 1.363 . S
C1260 C1261 1.363 . S
C1260 C1265 1.379 1_455 S
C1260 N1267 1.356 . S
C1261 C1260 1.363 . S
C1261 C1264 1.363 . S
N1262 C1264 1.356 . S
N1262 H1274 0.984 . S
N1262 H1275 0.985 . S
N1263 C1265 1.356 . S
N1263 H1268 0.984 . S
N1263 H1269 0.985 . S
C1264 C1258 1.379 1_455 S
C1264 C1261 1.363 . S
C1264 N1262 1.356 . S
C1265 C1259 1.363 . S
C1265 C1260 1.379 1_655 S
C1265 N1263 1.356 . S
N1266 C1258 1.356 . S
N1266 H1272 0.984 . S
N1266 H1273 0.984 . S
N1267 C1260 1.356 . S
N1267 H1270 0.984 . S
N1267 H1271 0.985 . S
H1268 N1263 0.984 . S
H1269 N1263 0.985 . S
H1270 N1267 0.984 . S
H1271 N1267 0.985 . S
H1272 N1266 0.984 . S
H1273 N1266 0.984 . S
H1274 N1262 0.984 . S
H1275 N1262 0.985 . S
C1276 C1277 1.363 . S
C1276 C1282 1.379 1_655 S
C1276 N1284 1.356 . S
C1277 C1276 1.363 . S
C1277 C1283 1.363 . S
C1278 C1279 1.363 . S
C1278 C1283 1.379 1_455 S
C1278 N1285 1.356 . S
C1279 C1278 1.363 . S
C1279 C1282 1.363 . S
N1280 C1282 1.356 . S
N1280 H1292 0.984 . S
N1280 H1293 0.985 . S
N1281 C1283 1.356 . S
N1281 H1286 0.984 . S
N1281 H1287 0.985 . S
C1282 C1276 1.379 1_455 S
C1282 C1279 1.363 . S
C1282 N1280 1.356 . S
C1283 C1277 1.363 . S
C1283 C1278 1.379 1_655 S
C1283 N1281 1.356 . S
N1284 C1276 1.356 . S
N1284 H1290 0.984 . S
N1284 H1291 0.984 . S
N1285 C1278 1.356 . S
N1285 H1288 0.984 . S
N1285 H1289 0.985 . S
H1286 N1281 0.984 . S
H1287 N1281 0.985 . S
H1288 N1285 0.984 . S
H1289 N1285 0.985 . S
H1290 N1284 0.984 . S
H1291 N1284 0.984 . S
H1292 N1280 0.984 . S
H1293 N1280 0.985 . S
C1294 C1295 1.363 . S
C1294 C1300 1.379 . S
C1294 N1302 1.356 . S
C1295 C1294 1.363 . S
C1295 C1301 1.363 . S
C1296 C1297 1.363 . S
C1296 C1301 1.379 . S
C1296 N1303 1.356 . S
C1297 C1296 1.363 . S
C1297 C1300 1.363 . S
N1298 C1300 1.356 . S
N1298 H1310 0.984 . S
N1298 H1311 0.985 . S
N1299 C1301 1.356 . S
N1299 H1304 0.984 . S
N1299 H1305 0.985 . S
C1300 C1294 1.379 . S
C1300 C1297 1.363 . S
C1300 N1298 1.356 . S
C1301 C1295 1.363 . S
C1301 C1296 1.379 . S
C1301 N1299 1.356 . S
N1302 C1294 1.356 . S
N1302 H1308 0.984 . S
N1302 H1309 0.984 . S
N1303 C1296 1.356 . S
N1303 H1306 0.984 . S
N1303 H1307 0.985 . S
H1304 N1299 0.984 . S
H1305 N1299 0.985 . S
H1306 N1303 0.984 . S
H1307 N1303 0.985 . S
H1308 N1302 0.984 . S
H1309 N1302 0.984 . S
H1310 N1298 0.984 . S
H1311 N1298 0.985 . S
C1312 C1313 1.363 . S
C1312 C1318 1.379 . S
C1312 N1320 1.356 . S
C1313 C1312 1.363 . S
C1313 C1319 1.363 . S
C1314 C1315 1.363 . S
C1314 C1319 1.379 . S
C1314 N1321 1.356 . S
C1315 C1314 1.363 . S
C1315 C1318 1.363 . S
N1316 C1318 1.356 . S
N1316 H1328 0.984 . S
N1316 H1329 0.985 . S
N1317 C1319 1.356 . S
N1317 H1322 0.984 . S
N1317 H1323 0.985 . S
C1318 C1312 1.379 . S
C1318 C1315 1.363 . S
C1318 N1316 1.356 . S
C1319 C1313 1.363 . S
C1319 C1314 1.379 . S
C1319 N1317 1.356 . S
N1320 C1312 1.356 . S
N1320 H1326 0.984 . S
N1320 H1327 0.984 . S
N1321 C1314 1.356 . S
N1321 H1324 0.984 . S
N1321 H1325 0.985 . S
H1322 N1317 0.984 . S
H1323 N1317 0.985 . S
H1324 N1321 0.984 . S
H1325 N1321 0.985 . S
H1326 N1320 0.984 . S
H1327 N1320 0.984 . S
H1328 N1316 0.984 . S
H1329 N1316 0.985 . S
C1330 C1331 1.363 . S
C1330 C1336 1.379 1_565 S
C1330 N1338 1.356 . S
C1331 C1330 1.363 . S
C1331 C1337 1.363 . S
C1332 C1333 1.363 . S
C1332 C1337 1.379 1_545 S
C1332 N1339 1.356 . S
C1333 C1332 1.363 . S
C1333 C1336 1.363 . S
N1334 C1336 1.356 . S
N1334 H1346 0.984 . S
N1334 H1347 0.985 . S
N1335 C1337 1.356 . S
N1335 H1340 0.984 . S
N1335 H1341 0.985 . S
C1336 C1330 1.379 1_545 S
C1336 C1333 1.363 . S
C1336 N1334 1.356 . S
C1337 C1331 1.363 . S
C1337 C1332 1.379 1_565 S
C1337 N1335 1.356 . S
N1338 C1330 1.356 . S
N1338 H1344 0.984 . S
N1338 H1345 0.984 . S
N1339 C1332 1.356 . S
N1339 H1342 0.984 . S
N1339 H1343 0.985 . S
H1340 N1335 0.984 . S
H1341 N1335 0.985 . S
H1342 N1339 0.984 . S
H1343 N1339 0.985 . S
H1344 N1338 0.984 . S
H1345 N1338 0.984 . S
H1346 N1334 0.984 . S
H1347 N1334 0.985 . S
C1348 C1349 1.363 . S
C1348 C1354 1.379 . S
C1348 N1356 1.356 . S
C1349 C1348 1.363 . S
C1349 C1355 1.363 . S
C1350 C1351 1.363 . S
C1350 C1355 1.379 . S
C1350 N1357 1.356 . S
C1351 C1350 1.363 . S
C1351 C1354 1.363 . S
N1352 C1354 1.356 . S
N1352 H1364 0.984 . S
N1352 H1365 0.985 . S
N1353 C1355 1.356 . S
N1353 H1358 0.984 . S
N1353 H1359 0.985 . S
C1354 C1348 1.379 . S
C1354 C1351 1.363 . S
C1354 N1352 1.356 . S
C1355 C1349 1.363 . S
C1355 C1350 1.379 . S
C1355 N1353 1.356 . S
N1356 C1348 1.356 . S
N1356 H1362 0.984 . S
N1356 H1363 0.984 . S
N1357 C1350 1.356 . S
N1357 H1360 0.984 . S
N1357 H1361 0.985 . S
H1358 N1353 0.984 . S
H1359 N1353 0.985 . S
H1360 N1357 0.984 . S
H1361 N1357 0.985 . S
H1362 N1356 0.984 . S
H1363 N1356 0.984 . S
H1364 N1352 0.984 . S
H1365 N1352 0.985 . S
C1366 C1367 1.363 1_565 S
C1366 C1372 1.379 . S
C1366 N1374 1.356 1_554 S
C1367 C1366 1.363 1_545 S
C1367 C1373 1.363 . S
C1368 C1369 1.363 1_545 S
C1368 C1373 1.379 . S
C1368 N1375 1.356 . S
C1369 C1368 1.363 1_565 S
C1369 C1372 1.363 . S
N1370 C1372 1.356 . S
N1370 H1382 0.984 . S
N1370 H1383 0.985 . S
N1371 C1373 1.356 . S
N1371 H1376 0.984 1_554 S
N1371 H1377 0.985 . S
C1372 C1366 1.379 . S
C1372 C1369 1.363 . S
C1372 N1370 1.356 . S
C1373 C1367 1.363 . S
C1373 C1368 1.379 . S
C1373 N1371 1.356 . S
N1374 C1366 1.356 1_556 S
N1374 H1380 0.984 . S
N1374 H1381 0.984 . S
N1375 C1368 1.356 . S
N1375 H1378 0.984 . S
N1375 H1379 0.985 . S
H1376 N1371 0.984 1_556 S
H1377 N1371 0.985 . S
H1378 N1375 0.984 . S
H1379 N1375 0.985 . S
H1380 N1374 0.984 . S
H1381 N1374 0.984 . S
H1382 N1370 0.984 . S
H1383 N1370 0.985 . S
C1384 C1385 1.363 . S
C1384 C1390 1.379 . S
C1384 N1392 1.356 . S
C1385 C1384 1.363 . S
C1385 C1391 1.363 . S
C1386 C1387 1.363 . S
C1386 C1391 1.379 . S
C1386 N1393 1.356 . S
C1387 C1386 1.363 . S
C1387 C1390 1.363 . S
N1388 C1390 1.356 . S
N1388 H1400 0.984 . S
N1388 H1401 0.985 . S
N1389 C1391 1.356 . S
N1389 H1394 0.984 . S
N1389 H1395 0.985 . S
C1390 C1384 1.379 . S
C1390 C1387 1.363 . S
C1390 N1388 1.356 . S
C1391 C1385 1.363 . S
C1391 C1386 1.379 . S
C1391 N1389 1.356 . S
N1392 C1384 1.356 . S
N1392 H1398 0.984 . S
N1392 H1399 0.984 . S
N1393 C1386 1.356 . S
N1393 H1396 0.984 . S
N1393 H1397 0.985 . S
H1394 N1389 0.984 . S
H1395 N1389 0.985 . S
H1396 N1393 0.984 . S
H1397 N1393 0.985 . S
H1398 N1392 0.984 . S
H1399 N1392 0.984 . S
H1400 N1388 0.984 . S
H1401 N1388 0.985 . S
C1402 C1403 1.363 . S
C1402 C1408 1.379 . S
C1402 N1410 1.356 . S
C1403 C1402 1.363 . S
C1403 C1409 1.363 1_545 S
C1404 C1405 1.363 . S
C1404 C1409 1.379 . S
C1404 N1411 1.356 . S
C1405 C1404 1.363 . S
C1405 C1408 1.363 1_565 S
N1406 C1408 1.356 . S
N1406 H1418 0.984 . S
N1406 H1419 0.985 1_545 S
N1407 C1409 1.356 . S
N1407 H1412 0.984 1_565 S
N1407 H1413 0.985 . S
C1408 C1402 1.379 . S
C1408 C1405 1.363 1_545 S
C1408 N1406 1.356 . S
C1409 C1403 1.363 1_565 S
C1409 C1404 1.379 . S
C1409 N1407 1.356 . S
N1410 C1402 1.356 . S
N1410 H1416 0.984 . S
N1410 H1417 0.984 . S
N1411 C1404 1.356 . S
N1411 H1414 0.984 . S
N1411 H1415 0.985 . S
H1412 N1407 0.984 1_545 S
H1413 N1407 0.985 . S
H1414 N1411 0.984 . S
H1415 N1411 0.985 . S
H1416 N1410 0.984 . S
H1417 N1410 0.984 . S
H1418 N1406 0.984 . S
H1419 N1406 0.985 1_565 S
C1420 C1421 1.363 . S
C1420 C1426 1.379 . S
C1420 N1428 1.356 . S
C1421 C1420 1.363 . S
C1421 C1427 1.363 . S
C1422 C1423 1.363 . S
C1422 C1427 1.379 . S
C1422 N1429 1.356 . S
C1423 C1422 1.363 . S
C1423 C1426 1.363 . S
N1424 C1426 1.356 . S
N1424 H1436 0.984 . S
N1424 H1437 0.985 . S
N1425 C1427 1.356 . S
N1425 H1430 0.984 . S
N1425 H1431 0.985 . S
C1426 C1420 1.379 . S
C1426 C1423 1.363 . S
C1426 N1424 1.356 . S
C1427 C1421 1.363 . S
C1427 C1422 1.379 . S
C1427 N1425 1.356 . S
N1428 C1420 1.356 . S
N1428 H1434 0.984 . S
N1428 H1435 0.984 . S
N1429 C1422 1.356 . S
N1429 H1432 0.984 . S
N1429 H1433 0.985 . S
H1430 N1425 0.984 . S
H1431 N1425 0.985 . S
H1432 N1429 0.984 . S
H1433 N1429 0.985 . S
H1434 N1428 0.984 . S
H1435 N1428 0.984 . S
H1436 N1424 0.984 . S
H1437 N1424 0.985 . S
C1438 C1439 1.363 1_545 S
C1438 C1444 1.379 . S
C1438 N1446 1.356 . S
C1439 C1438 1.363 1_565 S
C1439 C1445 1.363 . S
C1440 C1441 1.363 1_565 S
C1440 C1445 1.379 . S
C1440 N1447 1.356 1_554 S
C1441 C1440 1.363 1_545 S
C1441 C1444 1.363 . S
N1442 C1444 1.356 . S
N1442 H1454 0.984 . S
N1442 H1455 0.985 1_554 S
N1443 C1445 1.356 . S
N1443 H1448 0.984 . S
N1443 H1449 0.985 . S
C1444 C1438 1.379 . S
C1444 C1441 1.363 . S
C1444 N1442 1.356 . S
C1445 C1439 1.363 . S
C1445 C1440 1.379 . S
C1445 N1443 1.356 . S
N1446 C1438 1.356 . S
N1446 H1452 0.984 . S
N1446 H1453 0.984 . S
N1447 C1440 1.356 1_556 S
N1447 H1450 0.984 . S
N1447 H1451 0.985 . S
H1448 N1443 0.984 . S
H1449 N1443 0.985 . S
H1450 N1447 0.984 . S
H1451 N1447 0.985 . S
H1452 N1446 0.984 . S
H1453 N1446 0.984 . S
H1454 N1442 0.984 . S
H1455 N1442 0.985 1_556 S
C1456 C1457 1.363 . S
C1456 C1462 1.379 . S
C1456 N1464 1.356 . S
C1457 C1456 1.363 . S
C1457 C1463 1.363 . S
C1458 C1459 1.363 . S
C1458 C1463 1.379 . S
C1458 N1465 1.356 . S
C1459 C1458 1.363 . S
C1459 C1462 1.363 . S
N1460 C1462 1.356 . S
N1460 H1472 0.984 . S
N1460 H1473 0.985 . S
N1461 C1463 1.356 . S
N1461 H1466 0.984 . S
N1461 H1467 0.985 . S
C1462 C1456 1.379 . S
C1462 C1459 1.363 . S
C1462 N1460 1.356 . S
C1463 C1457 1.363 . S
C1463 C1458 1.379 . S
C1463 N1461 1.356 . S
N1464 C1456 1.356 . S
N1464 H1470 0.984 . S
N1464 H1471 0.984 . S
N1465 C1458 1.356 . S
N1465 H1468 0.984 . S
N1465 H1469 0.985 . S
H1466 N1461 0.984 . S
H1467 N1461 0.985 . S
H1468 N1465 0.984 . S
H1469 N1465 0.985 . S
H1470 N1464 0.984 . S
H1471 N1464 0.984 . S
H1472 N1460 0.984 . S
H1473 N1460 0.985 . S
C1474 C1475 1.363 . S
C1474 C1480 1.379 . S
C1474 N1482 1.356 . S
C1475 C1474 1.363 . S
C1475 C1481 1.363 . S
C1476 C1477 1.363 . S
C1476 C1481 1.379 . S
C1476 N1483 1.356 1_554 S
C1477 C1476 1.363 . S
C1477 C1480 1.363 . S
N1478 C1480 1.356 . S
N1478 H1490 0.984 . S
N1478 H1491 0.985 1_554 S
N1479 C1481 1.356 . S
N1479 H1484 0.984 . S
N1479 H1485 0.985 . S
C1480 C1474 1.379 . S
C1480 C1477 1.363 . S
C1480 N1478 1.356 . S
C1481 C1475 1.363 . S
C1481 C1476 1.379 . S
C1481 N1479 1.356 . S
N1482 C1474 1.356 . S
N1482 H1488 0.984 . S
N1482 H1489 0.984 . S
N1483 C1476 1.356 1_556 S
N1483 H1486 0.984 . S
N1483 H1487 0.985 . S
H1484 N1479 0.984 . S
H1485 N1479 0.985 . S
H1486 N1483 0.984 . S
H1487 N1483 0.985 . S
H1488 N1482 0.984 . S
H1489 N1482 0.984 . S
H1490 N1478 0.984 . S
H1491 N1478 0.985 1_556 S
C1492 C1493 1.363 . S
C1492 C1498 1.379 . S
C1492 N1500 1.356 . S
C1493 C1492 1.363 . S
C1493 C1499 1.363 . S
C1494 C1495 1.363 . S
C1494 C1499 1.379 . S
C1494 N1501 1.356 . S
C1495 C1494 1.363 . S
C1495 C1498 1.363 . S
N1496 C1498 1.356 . S
N1496 H1508 0.984 . S
N1496 H1509 0.985 . S
N1497 C1499 1.356 . S
N1497 H1502 0.984 . S
N1497 H1503 0.985 . S
C1498 C1492 1.379 . S
C1498 C1495 1.363 . S
C1498 N1496 1.356 . S
C1499 C1493 1.363 . S
C1499 C1494 1.379 . S
C1499 N1497 1.356 . S
N1500 C1492 1.356 . S
N1500 H1506 0.984 . S
N1500 H1507 0.984 . S
N1501 C1494 1.356 . S
N1501 H1504 0.984 . S
N1501 H1505 0.985 . S
H1502 N1497 0.984 . S
H1503 N1497 0.985 . S
H1504 N1501 0.984 . S
H1505 N1501 0.985 . S
H1506 N1500 0.984 . S
H1507 N1500 0.984 . S
H1508 N1496 0.984 . S
H1509 N1496 0.985 . S
C1510 C1511 1.363 . S
C1510 C1516 1.379 . S
C1510 N1518 1.356 . S
C1511 C1510 1.363 . S
C1511 C1517 1.363 . S
C1512 C1513 1.363 . S
C1512 C1517 1.379 . S
C1512 N1519 1.356 . S
C1513 C1512 1.363 . S
C1513 C1516 1.363 . S
N1514 C1516 1.356 . S
N1514 H1526 0.984 . S
N1514 H1527 0.985 . S
N1515 C1517 1.356 . S
N1515 H1520 0.984 . S
N1515 H1521 0.985 . S
C1516 C1510 1.379 . S
C1516 C1513 1.363 . S
C1516 N1514 1.356 . S
C1517 C1511 1.363 . S
C1517 C1512 1.379 . S
C1517 N1515 1.356 . S
N1518 C1510 1.356 . S
N1518 H1524 0.984 . S
N1518 H1525 0.984 . S
N1519 C1512 1.356 . S
N1519 H1522 0.984 . S
N1519 H1523 0.985 . S
H1520 N1515 0.984 . S
H1521 N1515 0.985 . S
H1522 N1519 0.984 . S
H1523 N1519 0.985 . S
H1524 N1518 0.984 . S
H1525 N1518 0.984 . S
H1526 N1514 0.984 . S
H1527 N1514 0.985 . S
C1528 C1529 1.363 . S
C1528 C1534 1.379 . S
C1528 N1536 1.356 . S
C1529 C1528 1.363 . S
C1529 C1535 1.363 . S
C1530 C1531 1.363 . S
C1530 C1535 1.379 . S
C1530 N1537 1.356 . S
C1531 C1530 1.363 . S
C1531 C1534 1.363 . S
N1532 C1534 1.356 . S
N1532 H1544 0.984 . S
N1532 H1545 0.985 . S
N1533 C1535 1.356 . S
N1533 H1538 0.984 . S
N1533 H1539 0.985 . S
C1534 C1528 1.379 . S
C1534 C1531 1.363 . S
C1534 N1532 1.356 . S
C1535 C1529 1.363 . S
C1535 C1530 1.379 . S
C1535 N1533 1.356 . S
N1536 C1528 1.356 . S
N1536 H1542 0.984 . S
N1536 H1543 0.984 . S
N1537 C1530 1.356 . S
N1537 H1540 0.984 . S
N1537 H1541 0.985 . S
H1538 N1533 0.984 . S
H1539 N1533 0.985 . S
H1540 N1537 0.984 . S
H1541 N1537 0.985 . S
H1542 N1536 0.984 . S
H1543 N1536 0.984 . S
H1544 N1532 0.984 . S
H1545 N1532 0.985 . S
C1546 C1547 1.363 . S
C1546 C1552 1.379 . S
C1546 N1554 1.356 1_554 S
C1547 C1546 1.363 . S
C1547 C1553 1.363 . S
C1548 C1549 1.363 . S
C1548 C1553 1.379 . S
C1548 N1555 1.356 . S
C1549 C1548 1.363 . S
C1549 C1552 1.363 . S
N1550 C1552 1.356 . S
N1550 H1562 0.984 . S
N1550 H1563 0.985 . S
N1551 C1553 1.356 . S
N1551 H1556 0.984 1_554 S
N1551 H1557 0.985 . S
C1552 C1546 1.379 . S
C1552 C1549 1.363 . S
C1552 N1550 1.356 . S
C1553 C1547 1.363 . S
C1553 C1548 1.379 . S
C1553 N1551 1.356 . S
N1554 C1546 1.356 1_556 S
N1554 H1560 0.984 . S
N1554 H1561 0.984 . S
N1555 C1548 1.356 . S
N1555 H1558 0.984 . S
N1555 H1559 0.985 . S
H1556 N1551 0.984 1_556 S
H1557 N1551 0.985 . S
H1558 N1555 0.984 . S
H1559 N1555 0.985 . S
H1560 N1554 0.984 . S
H1561 N1554 0.984 . S
H1562 N1550 0.984 . S
H1563 N1550 0.985 . S
C1564 C1565 1.363 . S
C1564 C1570 1.379 . S
C1564 N1572 1.356 . S
C1565 C1564 1.363 . S
C1565 C1571 1.363 . S
C1566 C1567 1.363 . S
C1566 C1571 1.379 . S
C1566 N1573 1.356 . S
C1567 C1566 1.363 . S
C1567 C1570 1.363 . S
N1568 C1570 1.356 . S
N1568 H1580 0.984 . S
N1568 H1581 0.985 . S
N1569 C1571 1.356 . S
N1569 H1574 0.984 . S
N1569 H1575 0.985 . S
C1570 C1564 1.379 . S
C1570 C1567 1.363 . S
C1570 N1568 1.356 . S
C1571 C1565 1.363 . S
C1571 C1566 1.379 . S
C1571 N1569 1.356 . S
N1572 C1564 1.356 . S
N1572 H1578 0.984 . S
N1572 H1579 0.984 . S
N1573 C1566 1.356 . S
N1573 H1576 0.984 . S
N1573 H1577 0.985 . S
H1574 N1569 0.984 . S
H1575 N1569 0.985 . S
H1576 N1573 0.984 . S
H1577 N1573 0.985 . S
H1578 N1572 0.984 . S
H1579 N1572 0.984 . S
H1580 N1568 0.984 . S
H1581 N1568 0.985 . S
C1582 C1583 1.363 . S
C1582 C1588 1.379 . S
C1582 N1590 1.356 . S
C1583 C1582 1.363 . S
C1583 C1589 1.363 . S
C1584 C1585 1.363 . S
C1584 C1589 1.379 . S
C1584 N1591 1.356 . S
C1585 C1584 1.363 . S
C1585 C1588 1.363 . S
N1586 C1588 1.356 . S
N1586 H1598 0.984 . S
N1586 H1599 0.985 . S
N1587 C1589 1.356 . S
N1587 H1592 0.984 . S
N1587 H1593 0.985 . S
C1588 C1582 1.379 . S
C1588 C1585 1.363 . S
C1588 N1586 1.356 . S
C1589 C1583 1.363 . S
C1589 C1584 1.379 . S
C1589 N1587 1.356 . S
N1590 C1582 1.356 . S
N1590 H1596 0.984 . S
N1590 H1597 0.984 . S
N1591 C1584 1.356 . S
N1591 H1594 0.984 . S
N1591 H1595 0.985 . S
H1592 N1587 0.984 . S
H1593 N1587 0.985 . S
H1594 N1591 0.984 . S
H1595 N1591 0.985 . S
H1596 N1590 0.984 . S
H1597 N1590 0.984 . S
H1598 N1586 0.984 . S
H1599 N1586 0.985 . S
C449 C106 1.606 . S
C451 C8 1.611 . S
C467 C22 1.606 . S
C469 C64 1.606 . S
C485 C78 1.606 . S
C487 C36 1.606 . S
C503 C50 1.606 . S
C505 C92 1.606 . S
C521 C120 1.606 . S
C523 C218 1.606 . S
C539 C134 1.606 . S
C541 C176 1.611 . S
C557 C148 1.606 . S
C559 C190 1.606 . S
C575 C162 1.606 . S
C577 C204 1.606 . S
C593 C232 1.606 . S
C595 C330 1.606 . S
C611 C246 1.606 . S
C613 C288 1.606 . S
C629 C302 1.606 . S
C631 C260 1.612 . S
C647 C316 1.606 . S
C649 C274 1.606 . S
C665 C344 1.606 . S
C667 C442 1.606 . S
C683 C400 1.606 . S
C685 C358 1.606 . S
C701 C414 1.606 . S
C703 C372 1.606 . S
C719 C386 1.606 . S
C721 C428 1.612 . S
C737 C7 0.847 . S
C739 C91 0.847 . S
C755 C21 0.847 . S
C757 C105 0.847 1_554 S
C773 C63 0.847 . S
C775 C35 0.847 . S
C791 C49 0.847 . S
C793 C77 0.847 . S
C809 C119 0.847 . S
C811 C203 0.847 . S
C827 C133 0.847 1_554 S
C829 C217 0.847 . S
C845 C175 0.847 . S
C847 C147 0.847 . S
C863 C189 0.847 . S
C865 C161 0.847 . S
C881 C231 0.847 . S
C883 C315 0.847 . S
C899 C329 0.847 . S
C901 C245 0.847 . S
C917 C287 0.847 . S
C919 C259 0.847 . S
C935 C273 0.847 . S
C937 C301 0.847 1_554 S
C953 C343 0.847 . S
C955 C427 0.847 . S
C971 C357 0.847 . S
C973 C441 0.847 . S
C989 C399 0.847 . S
C991 C371 0.847 . S
C1007 C413 0.847 . S
C1009 C385 0.847 1_554 S
C1025 C9 1.512 . S
C1027 C429 1.512 . S
C1043 C23 1.513 . S
C1045 C219 1.513 . S
C1061 C37 1.512 . S
C1063 C401 1.512 . S
C1079 C51 1.513 . S
C1081 C191 1.513 . S
C1097 C65 1.512 . S
C1099 C373 1.512 . S
C1115 C79 1.512 . S
C1117 C163 1.512 . S
C1133 C93 1.512 . S
C1135 C345 1.512 . S
C1151 C135 1.512 . S
C1153 C107 1.512 . S
C1169 C317 1.512 . S
C1171 C121 1.512 . S
C1187 C149 1.512 . S
C1189 C289 1.512 . S
C1205 C261 1.512 . S
C1207 C177 1.512 . S
C1223 C233 1.512 . S
C1225 C205 1.512 . S
C1241 C247 1.512 . S
C1243 C443 1.512 . S
C1259 C275 1.513 . S
C1261 C415 1.513 . S
C1277 C303 1.512 . S
C1279 C387 1.512 . S
C1295 C359 1.512 . S
C1297 C331 1.512 . S
C1313 C3 1.593 . S
C1315 C87 1.593 . S
C1331 C17 1.593 . S
C1333 C101 1.593 . S
C1349 C59 1.593 . S
C1351 C31 1.593 . S
C1367 C45 1.593 1_554 S
C1369 C73 1.593 . S
C1385 C115 1.593 . S
C1387 C199 1.593 . S
C1403 C129 1.593 . S
C1405 C213 1.593 . S
C1421 C171 1.593 . S
C1423 C143 1.593 . S
C1439 C157 1.593 . S
C1441 C185 1.593 1_554 S
C1457 C311 1.593 . S
C1459 C227 1.593 . S
C1475 C325 1.593 . S
C1477 C241 1.593 1_554 S
C1493 C283 1.593 . S
C1495 C255 1.593 . S
C1511 C297 1.593 . S
C1513 C269 1.593 . S
C1529 C423 1.593 . S
C1531 C339 1.593 . S
C1547 C437 1.593 1_554 S
C1549 C353 1.593 . S
C1565 C367 1.593 . S
C1567 C395 1.593 . S
C1583 C409 1.593 . S
C1585 C381 1.593 . S
