# Generated by pormake.
# Topology uoh, (4)-cn, num edge types: 1
# Building blocks:
#     Node 0, Type 0, BuildingBlock: QUQFOY_clean_sbu_1, # of connection points: 4
#     Node 1, Type 0, BuildingBlock: QUQFOY_clean_sbu_1, # of connection points: 4
#     Node 2, Type 0, BuildingBlock: QUQFOY_clean_sbu_1, # of connection points: 4
#     Node 3, Type 0, BuildingBlock: QUQFOY_clean_sbu_1, # of connection points: 4
#     Node 4, Type 0, BuildingBlock: QUQFOY_clean_sbu_1, # of connection points: 4
#     Node 5, Type 0, BuildingBlock: QUQFOY_clean_sbu_1, # of connection points: 4
#     Node 6, Type 0, BuildingBlock: QUQFOY_clean_sbu_1, # of connection points: 4
#     Node 7, Type 0, BuildingBlock: QUQFOY_clean_sbu_1, # of connection points: 4
#     Node 8, Type 0, BuildingBlock: QUQFOY_clean_sbu_1, # of connection points: 4
#     Node 9, Type 0, BuildingBlock: QUQFOY_clean_sbu_1, # of connection points: 4
#     Node 10, Type 0, BuildingBlock: QUQFOY_clean_sbu_1, # of connection points: 4
#     Node 11, Type 0, BuildingBlock: QUQFOY_clean_sbu_1, # of connection points: 4
#     Node 12, Type 0, BuildingBlock: QUQFOY_clean_sbu_1, # of connection points: 4
#     Node 13, Type 0, BuildingBlock: QUQFOY_clean_sbu_1, # of connection points: 4
#     Node 14, Type 0, BuildingBlock: QUQFOY_clean_sbu_1, # of connection points: 4
#     Node 15, Type 0, BuildingBlock: QUQFOY_clean_sbu_1, # of connection points: 4
#     Node 16, Type 0, BuildingBlock: QUQFOY_clean_sbu_1, # of connection points: 4
#     Node 17, Type 0, BuildingBlock: QUQFOY_clean_sbu_1, # of connection points: 4
#     Node 18, Type 0, BuildingBlock: QUQFOY_clean_sbu_1, # of connection points: 4
#     Node 19, Type 0, BuildingBlock: QUQFOY_clean_sbu_1, # of connection points: 4
#     Node 20, Type 0, BuildingBlock: QUQFOY_clean_sbu_1, # of connection points: 4
#     Node 21, Type 0, BuildingBlock: QUQFOY_clean_sbu_1, # of connection points: 4
#     Node 22, Type 0, BuildingBlock: QUQFOY_clean_sbu_1, # of connection points: 4
#     Node 23, Type 0, BuildingBlock: QUQFOY_clean_sbu_1, # of connection points: 4
#     Node 24, Type 0, BuildingBlock: QUQFOY_clean_sbu_1, # of connection points: 4
#     Node 25, Type 0, BuildingBlock: QUQFOY_clean_sbu_1, # of connection points: 4
#     Node 26, Type 0, BuildingBlock: QUQFOY_clean_sbu_1, # of connection points: 4
#     Node 27, Type 0, BuildingBlock: QUQFOY_clean_sbu_1, # of connection points: 4
#     Node 28, Type 0, BuildingBlock: QUQFOY_clean_sbu_1, # of connection points: 4
#     Node 29, Type 0, BuildingBlock: QUQFOY_clean_sbu_1, # of connection points: 4
#     Node 30, Type 0, BuildingBlock: QUQFOY_clean_sbu_1, # of connection points: 4
#     Node 31, Type 0, BuildingBlock: QUQFOY_clean_sbu_1, # of connection points: 4
#     Node 32, Type 0, BuildingBlock: QUQFOY_clean_sbu_1, # of connection points: 4
#     Node 33, Type 0, BuildingBlock: QUQFOY_clean_sbu_1, # of connection points: 4
#     Node 34, Type 0, BuildingBlock: QUQFOY_clean_sbu_1, # of connection points: 4
#     Node 35, Type 0, BuildingBlock: QUQFOY_clean_sbu_1, # of connection points: 4
#     Edge 36, Type (0, 0), BuildingBlock: AJUNOK_clean_linker_0, # of connection points: 2
#     Edge 37, Type (0, 0), BuildingBlock: AJUNOK_clean_linker_0, # of connection points: 2
#     Edge 38, Type (0, 0), BuildingBlock: AJUNOK_clean_linker_0, # of connection points: 2
#     Edge 39, Type (0, 0), BuildingBlock: AJUNOK_clean_linker_0, # of connection points: 2
#     Edge 40, Type (0, 0), BuildingBlock: AJUNOK_clean_linker_0, # of connection points: 2
#     Edge 41, Type (0, 0), BuildingBlock: AJUNOK_clean_linker_0, # of connection points: 2
#     Edge 42, Type (0, 0), BuildingBlock: AJUNOK_clean_linker_0, # of connection points: 2
#     Edge 43, Type (0, 0), BuildingBlock: AJUNOK_clean_linker_0, # of connection points: 2
#     Edge 44, Type (0, 0), BuildingBlock: AJUNOK_clean_linker_0, # of connection points: 2
#     Edge 45, Type (0, 0), BuildingBlock: AJUNOK_clean_linker_0, # of connection points: 2
#     Edge 46, Type (0, 0), BuildingBlock: AJUNOK_clean_linker_0, # of connection points: 2
#     Edge 47, Type (0, 0), BuildingBlock: AJUNOK_clean_linker_0, # of connection points: 2
#     Edge 48, Type (0, 0), BuildingBlock: AJUNOK_clean_linker_0, # of connection points: 2
#     Edge 49, Type (0, 0), BuildingBlock: AJUNOK_clean_linker_0, # of connection points: 2
#     Edge 50, Type (0, 0), BuildingBlock: AJUNOK_clean_linker_0, # of connection points: 2
#     Edge 51, Type (0, 0), BuildingBlock: AJUNOK_clean_linker_0, # of connection points: 2
#     Edge 52, Type (0, 0), BuildingBlock: AJUNOK_clean_linker_0, # of connection points: 2
#     Edge 53, Type (0, 0), BuildingBlock: AJUNOK_clean_linker_0, # of connection points: 2
#     Edge 54, Type (0, 0), BuildingBlock: AJUNOK_clean_linker_0, # of connection points: 2
#     Edge 55, Type (0, 0), BuildingBlock: AJUNOK_clean_linker_0, # of connection points: 2
#     Edge 56, Type (0, 0), BuildingBlock: AJUNOK_clean_linker_0, # of connection points: 2
#     Edge 57, Type (0, 0), BuildingBlock: AJUNOK_clean_linker_0, # of connection points: 2
#     Edge 58, Type (0, 0), BuildingBlock: AJUNOK_clean_linker_0, # of connection points: 2
#     Edge 59, Type (0, 0), BuildingBlock: AJUNOK_clean_linker_0, # of connection points: 2
#     Edge 60, Type (0, 0), BuildingBlock: AJUNOK_clean_linker_0, # of connection points: 2
#     Edge 61, Type (0, 0), BuildingBlock: AJUNOK_clean_linker_0, # of connection points: 2
#     Edge 62, Type (0, 0), BuildingBlock: AJUNOK_clean_linker_0, # of connection points: 2
#     Edge 63, Type (0, 0), BuildingBlock: AJUNOK_clean_linker_0, # of connection points: 2
#     Edge 64, Type (0, 0), BuildingBlock: AJUNOK_clean_linker_0, # of connection points: 2
#     Edge 65, Type (0, 0), BuildingBlock: AJUNOK_clean_linker_0, # of connection points: 2
#     Edge 66, Type (0, 0), BuildingBlock: AJUNOK_clean_linker_0, # of connection points: 2
#     Edge 67, Type (0, 0), BuildingBlock: AJUNOK_clean_linker_0, # of connection points: 2
#     Edge 68, Type (0, 0), BuildingBlock: AJUNOK_clean_linker_0, # of connection points: 2
#     Edge 69, Type (0, 0), BuildingBlock: AJUNOK_clean_linker_0, # of connection points: 2
#     Edge 70, Type (0, 0), BuildingBlock: AJUNOK_clean_linker_0, # of connection points: 2
#     Edge 71, Type (0, 0), BuildingBlock: AJUNOK_clean_linker_0, # of connection points: 2
#     Edge 72, Type (0, 0), BuildingBlock: AJUNOK_clean_linker_0, # of connection points: 2
#     Edge 73, Type (0, 0), BuildingBlock: AJUNOK_clean_linker_0, # of connection points: 2
#     Edge 74, Type (0, 0), BuildingBlock: AJUNOK_clean_linker_0, # of connection points: 2
#     Edge 75, Type (0, 0), BuildingBlock: AJUNOK_clean_linker_0, # of connection points: 2
#     Edge 76, Type (0, 0), BuildingBlock: AJUNOK_clean_linker_0, # of connection points: 2
#     Edge 77, Type (0, 0), BuildingBlock: AJUNOK_clean_linker_0, # of connection points: 2
#     Edge 78, Type (0, 0), BuildingBlock: AJUNOK_clean_linker_0, # of connection points: 2
#     Edge 79, Type (0, 0), BuildingBlock: AJUNOK_clean_linker_0, # of connection points: 2
#     Edge 80, Type (0, 0), BuildingBlock: AJUNOK_clean_linker_0, # of connection points: 2
#     Edge 81, Type (0, 0), BuildingBlock: AJUNOK_clean_linker_0, # of connection points: 2
#     Edge 82, Type (0, 0), BuildingBlock: AJUNOK_clean_linker_0, # of connection points: 2
#     Edge 83, Type (0, 0), BuildingBlock: AJUNOK_clean_linker_0, # of connection points: 2
#     Edge 84, Type (0, 0), BuildingBlock: AJUNOK_clean_linker_0, # of connection points: 2
#     Edge 85, Type (0, 0), BuildingBlock: AJUNOK_clean_linker_0, # of connection points: 2
#     Edge 86, Type (0, 0), BuildingBlock: AJUNOK_clean_linker_0, # of connection points: 2
#     Edge 87, Type (0, 0), BuildingBlock: AJUNOK_clean_linker_0, # of connection points: 2
#     Edge 88, Type (0, 0), BuildingBlock: AJUNOK_clean_linker_0, # of connection points: 2
#     Edge 89, Type (0, 0), BuildingBlock: AJUNOK_clean_linker_0, # of connection points: 2
#     Edge 90, Type (0, 0), BuildingBlock: AJUNOK_clean_linker_0, # of connection points: 2
#     Edge 91, Type (0, 0), BuildingBlock: AJUNOK_clean_linker_0, # of connection points: 2
#     Edge 92, Type (0, 0), BuildingBlock: AJUNOK_clean_linker_0, # of connection points: 2
#     Edge 93, Type (0, 0), BuildingBlock: AJUNOK_clean_linker_0, # of connection points: 2
#     Edge 94, Type (0, 0), BuildingBlock: AJUNOK_clean_linker_0, # of connection points: 2
#     Edge 95, Type (0, 0), BuildingBlock: AJUNOK_clean_linker_0, # of connection points: 2
#     Edge 96, Type (0, 0), BuildingBlock: AJUNOK_clean_linker_0, # of connection points: 2
#     Edge 97, Type (0, 0), BuildingBlock: AJUNOK_clean_linker_0, # of connection points: 2
#     Edge 98, Type (0, 0), BuildingBlock: AJUNOK_clean_linker_0, # of connection points: 2
#     Edge 99, Type (0, 0), BuildingBlock: AJUNOK_clean_linker_0, # of connection points: 2
#     Edge 100, Type (0, 0), BuildingBlock: AJUNOK_clean_linker_0, # of connection points: 2
#     Edge 101, Type (0, 0), BuildingBlock: AJUNOK_clean_linker_0, # of connection points: 2
#     Edge 102, Type (0, 0), BuildingBlock: AJUNOK_clean_linker_0, # of connection points: 2
#     Edge 103, Type (0, 0), BuildingBlock: AJUNOK_clean_linker_0, # of connection points: 2
#     Edge 104, Type (0, 0), BuildingBlock: AJUNOK_clean_linker_0, # of connection points: 2
#     Edge 105, Type (0, 0), BuildingBlock: AJUNOK_clean_linker_0, # of connection points: 2
#     Edge 106, Type (0, 0), BuildingBlock: AJUNOK_clean_linker_0, # of connection points: 2
#     Edge 107, Type (0, 0), BuildingBlock: AJUNOK_clean_linker_0, # of connection points: 2
# Relax obj value: 0.083
# Max RMSD: 0.129
# Mean RMSD: 0.129
data_MOF--net-uoh--node1-QUQFOY_clean_sbu_1--edge1-AJUNOK_clean_linker_0
_symmetry_space_group_name_H-M    P1
_symmetry_Int_Tables_number       1
_symmetry_cell_setting            triclinic
loop_
_symmetry_equiv_pos_as_xyz
'x, y, z'
_cell_length_a     68.470632
_cell_length_b     68.487666
_cell_length_c     20.821332
_cell_angle_alpha  89.976029
_cell_angle_beta   89.998352
_cell_angle_gamma 120.02005
loop_
_atom_site_label
_atom_site_type_symbol
_atom_site_fract_x
_atom_site_fract_y
_atom_site_fract_z
_atom_type_partial_charge
O0 O 0.26339 0.17028 0.0841 0.0
Cd1 Cd 0.27737 0.18509 0.17153 0.0
Cd2 Cd 0.26328 0.14182 0.20162 0.0
O3 O 0.24669 0.13459 0.11431 0.0
O4 O 0.27774 0.21472 0.17869 0.0
O5 O 0.25571 0.18473 0.23735 0.0
C6 C 0.26191 0.2052 0.22098 0.0
C7 C 0.24745 0.12625 0.30136 0.0
C8 C 0.25084 0.14941 0.07135 0.0
C9 C 0.31338 0.17298 0.19461 0.0
O10 O 0.29717 0.15277 0.196 0.0
O11 O 0.30928 0.18919 0.19069 0.0
O12 O 0.25063 0.11456 0.25831 0.0
O13 O 0.25165 0.14622 0.28554 0.0
O14 O 0.87743 0.10133 0.09115 0.0
Cd15 Cd 0.8605 0.10069 0.17412 0.0
Cd16 Cd 0.9032 0.1301 0.20975 0.0
O17 O 0.91264 0.12243 0.12334 0.0
O18 O 0.83138 0.07091 0.17216 0.0
O19 O 0.8574 0.07994 0.24704 0.0
C20 C 0.83831 0.0652 0.22259 0.0
C21 C 0.91781 0.12888 0.3104 0.0
C22 C 0.89849 0.11081 0.07993 0.0
C23 C 0.87146 0.14852 0.19419 0.0
O24 O 0.89149 0.15247 0.20283 0.0
O25 O 0.85549 0.12827 0.18584 0.0
O26 O 0.92962 0.14455 0.2694 0.0
O27 O 0.89813 0.11308 0.29241 0.0
O28 O 0.94492 0.78635 0.09213 0.0
Cd29 Cd 0.94688 0.77063 0.17489 0.0
Cd30 Cd 0.91602 0.78159 0.21185 0.0
O31 O 0.9224 0.79855 0.12572 0.0
O32 O 0.97693 0.77199 0.16926 0.0
O33 O 0.9683 0.78842 0.24673 0.0
C34 C 0.983 0.7845 0.21994 0.0
C35 C 0.91734 0.79742 0.31215 0.0
C36 C 0.93419 0.79675 0.08145 0.0
C37 C 0.89986 0.73203 0.19634 0.0
O38 O 0.89473 0.74725 0.2059 0.0
O39 O 0.92041 0.73753 0.18694 0.0
O40 O 0.90112 0.79271 0.27233 0.0
O41 O 0.93355 0.79435 0.29309 0.0
O42 O 0.18175 0.25459 0.45501 0.0
Cd43 Cd 0.19665 0.26804 0.3673 0.0
Cd44 Cd 0.1534 0.2539 0.3364 0.0
O45 O 0.14605 0.23793 0.42479 0.0
O46 O 0.22614 0.26803 0.3605 0.0
O47 O 0.19596 0.24592 0.30268 0.0
C48 C 0.21641 0.25198 0.31896 0.0
C49 C 0.1381 0.23737 0.23694 0.0
C50 C 0.16086 0.24229 0.46797 0.0
C51 C 0.18468 0.30405 0.34237 0.0
O52 O 0.16446 0.28784 0.34057 0.0
O53 O 0.20087 0.29992 0.34696 0.0
O54 O 0.12627 0.24079 0.27896 0.0
O55 O 0.15808 0.24185 0.2536 0.0
O56 O 0.79574 0.93547 0.44796 0.0
Cd57 Cd 0.77955 0.93709 0.3659 0.0
Cd58 Cd 0.79068 0.90638 0.3285 0.0
O59 O 0.80804 0.91308 0.41402 0.0
O60 O 0.78057 0.96693 0.37237 0.0
O61 O 0.79695 0.95868 0.29389 0.0
C62 C 0.79295 0.97321 0.32142 0.0
C63 C 0.80629 0.90773 0.22776 0.0
C64 C 0.80636 0.92494 0.45827 0.0
C65 C 0.74109 0.88988 0.34602 0.0
O66 O 0.75638 0.88489 0.33572 0.0
O67 O 0.74648 0.9104 0.35522 0.0
O68 O 0.8018 0.89158 0.26767 0.0
O69 O 0.80308 0.92384 0.24688 0.0
O70 O 0.11074 0.86865 0.45411 0.0
Cd71 Cd 0.10994 0.85153 0.37134 0.0
Cd72 Cd 0.13932 0.89397 0.33494 0.0
O73 O 0.13126 0.90368 0.42013 0.0
O74 O 0.07996 0.82264 0.37262 0.0
O75 O 0.08955 0.84883 0.29784 0.0
C76 C 0.07458 0.82976 0.32193 0.0
C77 C 0.13967 0.90919 0.23404 0.0
C78 C 0.12004 0.88975 0.46445 0.0
C79 C 0.15757 0.86212 0.3521 0.0
O80 O 0.16155 0.88216 0.34364 0.0
O81 O 0.13729 0.84616 0.35987 0.0
O82 O 0.15489 0.9206 0.27651 0.0
O83 O 0.12335 0.88961 0.25071 0.0
O84 O 0.79412 0.86773 0.94812 0.0
Cd85 Cd 0.77803 0.85034 0.86541 0.0
Cd86 Cd 0.79129 0.89273 0.82754 0.0
O87 O 0.80818 0.90269 0.91391 0.0
O88 O 0.77871 0.82124 0.86876 0.0
O89 O 0.7956 0.8469 0.79287 0.0
C90 C 0.7912 0.82789 0.818 0.0
C91 C 0.8075 0.90711 0.72733 0.0
C92 C 0.80548 0.88887 0.9585 0.0
C93 C 0.74112 0.86104 0.84272 0.0
O94 O 0.75717 0.88102 0.8332 0.0
O95 O 0.74544 0.84519 0.8528 0.0
O96 O 0.80336 0.91897 0.76735 0.0
O97 O 0.80367 0.88754 0.74614 0.0
O98 O 0.17985 0.93516 0.95118 0.0
Cd99 Cd 0.19491 0.93658 0.86375 0.0
Cd100 Cd 0.15163 0.90719 0.83285 0.0
O101 O 0.14416 0.91572 0.92099 0.0
O102 O 0.22449 0.96603 0.85778 0.0
O103 O 0.19462 0.95816 0.79882 0.0
C104 C 0.21501 0.97246 0.81575 0.0
C105 C 0.13665 0.90896 0.73362 0.0
C106 C 0.15893 0.92641 0.96404 0.0
C107 C 0.1831 0.88859 0.83856 0.0
O108 O 0.16284 0.88442 0.83654 0.0
O109 O 0.19919 0.90894 0.84365 0.0
O110 O 0.12468 0.8934 0.77481 0.0
O111 O 0.15657 0.92437 0.75097 0.0
O112 O 0.11091 0.25032 0.95598 0.0
Cd113 Cd 0.11002 0.26657 0.87313 0.0
Cd114 Cd 0.14151 0.25591 0.83897 0.0
O115 O 0.13389 0.23835 0.92472 0.0
O116 O 0.07982 0.26496 0.87507 0.0
O117 O 0.08971 0.24899 0.79927 0.0
C118 C 0.07458 0.25275 0.82387 0.0
C119 C 0.14201 0.24105 0.73819 0.0
C120 C 0.12136 0.2397 0.96754 0.0
C121 C 0.15717 0.30537 0.85543 0.0
O122 O 0.1625 0.29025 0.84694 0.0
O123 O 0.13651 0.29976 0.86291 0.0
O124 O 0.15755 0.2455 0.78019 0.0
O125 O 0.12535 0.24371 0.75526 0.0
O126 O 0.8769 0.78436 0.59115 0.0
Cd127 Cd 0.85936 0.76817 0.67362 0.0
Cd128 Cd 0.9016 0.78123 0.71149 0.0
O129 O 0.91181 0.79858 0.62587 0.0
O130 O 0.83027 0.76878 0.66859 0.0
O131 O 0.85549 0.78579 0.7454 0.0
C132 C 0.83671 0.78149 0.71889 0.0
C133 C 0.91576 0.79705 0.81218 0.0
C134 C 0.89805 0.7959 0.58113 0.0
C135 C 0.86989 0.73113 0.69476 0.0
O136 O 0.88988 0.74714 0.7043 0.0
O137 O 0.85402 0.73549 0.68567 0.0
O138 O 0.9277 0.79303 0.77207 0.0
O139 O 0.8962 0.79325 0.79329 0.0
O140 O 0.26315 0.10169 0.58379 0.0
Cd141 Cd 0.27711 0.10074 0.67109 0.0
Cd142 Cd 0.26327 0.13006 0.70139 0.0
O143 O 0.24651 0.1207 0.61431 0.0
O144 O 0.27731 0.07139 0.67785 0.0
O145 O 0.2553 0.07938 0.73658 0.0
C146 C 0.26141 0.06506 0.71992 0.0
C147 C 0.24766 0.13 0.80134 0.0
C148 C 0.2506 0.11002 0.57125 0.0
C149 C 0.31333 0.14879 0.69378 0.0
O150 O 0.29718 0.15289 0.69521 0.0
O151 O 0.30911 0.12844 0.69011 0.0
O152 O 0.25085 0.14484 0.75818 0.0
O153 O 0.25173 0.11414 0.78556 0.0
O154 O 0.94564 0.16777 0.59241 0.0
Cd155 Cd 0.94705 0.18483 0.67588 0.0
Cd156 Cd 0.91583 0.14265 0.71014 0.0
O157 O 0.92271 0.13276 0.62331 0.0
O158 O 0.97704 0.21359 0.67132 0.0
O159 O 0.96833 0.18815 0.74778 0.0
C160 C 0.98305 0.20691 0.7216 0.0
C161 C 0.91676 0.1277 0.81032 0.0
C162 C 0.93504 0.14674 0.5804 0.0
C163 C 0.8999 0.17628 0.69622 0.0
O164 O 0.89463 0.15583 0.70445 0.0
O165 O 0.92052 0.19135 0.68799 0.0
O166 O 0.90077 0.11634 0.76977 0.0
O167 O 0.93303 0.14711 0.79208 0.0
O168 O 0.92961 0.50375 0.41222 0.0
Cd169 Cd 0.94381 0.51942 0.49852 0.0
Cd170 Cd 0.93229 0.47705 0.53059 0.0
O171 O 0.91483 0.46847 0.44467 0.0
O172 O 0.94305 0.54849 0.50426 0.0
O173 O 0.92226 0.51877 0.56537 0.0
C174 C 0.92768 0.53894 0.54777 0.0
C175 C 0.91726 0.46149 0.63104 0.0
C176 C 0.91791 0.48268 0.40077 0.0
C177 C 0.98184 0.51 0.51873 0.0
O178 O 0.96645 0.48944 0.52247 0.0
O179 O 0.97651 0.52535 0.515 0.0
O180 O 0.92103 0.45015 0.58821 0.0
O181 O 0.92062 0.48115 0.61488 0.0
O182 O 0.54659 0.43562 0.42629 0.0
Cd183 Cd 0.52892 0.43388 0.50884 0.0
Cd184 Cd 0.57078 0.46481 0.54587 0.0
O185 O 0.5813 0.45836 0.45975 0.0
O186 O 0.50025 0.40372 0.50498 0.0
O187 O 0.52566 0.41305 0.58183 0.0
C188 C 0.50686 0.39815 0.55629 0.0
C189 C 0.58533 0.46355 0.64622 0.0
C190 C 0.56773 0.44643 0.4156 0.0
C191 C 0.53737 0.48093 0.52976 0.0
O192 O 0.5577 0.48607 0.53976 0.0
O193 O 0.52234 0.46039 0.52016 0.0
O194 O 0.59684 0.47975 0.60631 0.0
O195 O 0.56604 0.44733 0.62723 0.0
O196 O 0.61302 0.11946 0.4252 0.0
Cd197 Cd 0.6147 0.10318 0.50699 0.0
Cd198 Cd 0.58379 0.11398 0.54499 0.0
O199 O 0.59047 0.13151 0.45963 0.0
O200 O 0.64481 0.10473 0.50119 0.0
O201 O 0.6359 0.12061 0.57962 0.0
C202 C 0.65073 0.11698 0.55238 0.0
C203 C 0.5842 0.1293 0.64574 0.0
C204 C 0.60238 0.13 0.4152 0.0
C205 C 0.56767 0.06446 0.52616 0.0
O206 O 0.56258 0.07965 0.53692 0.0
O207 O 0.58823 0.06997 0.51698 0.0
O208 O 0.56827 0.12459 0.60492 0.0
O209 O 0.60064 0.12641 0.62771 0.0
O210 O 0.84554 0.58592 0.78286 0.0
Cd211 Cd 0.86094 0.59996 0.69611 0.0
Cd212 Cd 0.81829 0.58827 0.66531 0.0
O213 O 0.81005 0.57168 0.75272 0.0
O214 O 0.89028 0.59965 0.69076 0.0
O215 O 0.86073 0.57854 0.62957 0.0
C216 C 0.88096 0.58424 0.64729 0.0
C217 C 0.80308 0.5723 0.56537 0.0
C218 C 0.82454 0.57462 0.79558 0.0
C219 C 0.85122 0.63786 0.675 0.0
O220 O 0.83066 0.62248 0.6712 0.0
O221 O 0.86658 0.63253 0.67934 0.0
O222 O 0.79148 0.57622 0.607 0.0
O223 O 0.8228 0.57611 0.58252 0.0
O224 O 0.46092 0.26809 0.78483 0.0
Cd225 Cd 0.44552 0.27016 0.70163 0.0
Cd226 Cd 0.45642 0.23926 0.66498 0.0
O227 O 0.4733 0.2457 0.75146 0.0
O228 O 0.44717 0.30033 0.70678 0.0
O229 O 0.46375 0.29151 0.63014 0.0
C230 C 0.45993 0.30633 0.65658 0.0
C231 C 0.47231 0.24003 0.56488 0.0
C232 C 0.47136 0.25742 0.79571 0.0
C233 C 0.40682 0.22329 0.68017 0.0
O234 O 0.42202 0.21809 0.67106 0.0
O235 O 0.41237 0.24386 0.68912 0.0
O236 O 0.46746 0.224 0.60547 0.0
O237 O 0.46929 0.25639 0.58289 0.0
O238 O 0.77882 0.20151 0.78642 0.0
Cd239 Cd 0.77786 0.18471 0.70276 0.0
Cd240 Cd 0.8073 0.2273 0.66738 0.0
O241 O 0.79949 0.23667 0.75359 0.0
O242 O 0.74798 0.15569 0.70401 0.0
O243 O 0.75721 0.18207 0.63006 0.0
C244 C 0.7424 0.16287 0.65382 0.0
C245 C 0.80707 0.24259 0.56714 0.0
C246 C 0.78828 0.22257 0.79759 0.0
C247 C 0.82549 0.19538 0.68157 0.0
O248 O 0.82957 0.21548 0.67405 0.0
O249 O 0.80521 0.17946 0.68972 0.0
O250 O 0.82246 0.25403 0.60915 0.0
O251 O 0.79089 0.22295 0.58402 0.0
O252 O 0.4613 0.2003 0.28447 0.0
Cd253 Cd 0.44526 0.1829 0.20177 0.0
Cd254 Cd 0.45633 0.22505 0.16623 0.0
O255 O 0.47336 0.23521 0.25255 0.0
O256 O 0.44669 0.15421 0.20547 0.0
O257 O 0.46289 0.17971 0.12885 0.0
C258 C 0.459 0.16092 0.15439 0.0
C259 C 0.47205 0.23936 0.06545 0.0
C260 C 0.47181 0.22138 0.29581 0.0
C261 C 0.40673 0.19157 0.18185 0.0
O262 O 0.42199 0.21195 0.17266 0.0
O263 O 0.41218 0.17645 0.19056 0.0
O264 O 0.46756 0.25104 0.10528 0.0
O265 O 0.46884 0.22006 0.08475 0.0
O266 O 0.84727 0.26949 0.28484 0.0
Cd267 Cd 0.86276 0.27092 0.19821 0.0
Cd268 Cd 0.82001 0.23994 0.16731 0.0
O269 O 0.81178 0.24831 0.25455 0.0
O270 O 0.8921 0.30063 0.19295 0.0
O271 O 0.86254 0.29217 0.1318 0.0
C272 C 0.88274 0.30673 0.14958 0.0
C273 C 0.80517 0.24121 0.06736 0.0
C274 C 0.82627 0.25985 0.29743 0.0
C275 C 0.85293 0.22327 0.17657 0.0
O276 O 0.83237 0.2181 0.17292 0.0
O277 O 0.86831 0.24394 0.18106 0.0
O278 O 0.79337 0.22547 0.10828 0.0
O279 O 0.82486 0.25698 0.08522 0.0
O280 O 0.77737 0.58589 0.28376 0.0
Cd281 Cd 0.77705 0.60212 0.20027 0.0
Cd282 Cd 0.80645 0.58865 0.16611 0.0
O283 O 0.79831 0.57149 0.25253 0.0
O284 O 0.74752 0.60193 0.20211 0.0
O285 O 0.75618 0.58457 0.12744 0.0
C286 C 0.74165 0.58925 0.15177 0.0
C287 C 0.80587 0.57308 0.06569 0.0
C288 C 0.78665 0.57416 0.29554 0.0
C289 C 0.82499 0.63881 0.18017 0.0
O290 O 0.82893 0.62269 0.17276 0.0
O291 O 0.80474 0.6346 0.18804 0.0
O292 O 0.82123 0.57678 0.10757 0.0
O293 O 0.78989 0.57681 0.08282 0.0
O294 O 0.54505 0.11772 0.92732 0.0
Cd295 Cd 0.52828 0.10218 1.01135 0.0
Cd296 Cd 0.57099 0.1154 0.04591 0.0
O297 O 0.58035 0.13188 0.95866 0.0
O298 O 0.49896 0.10234 1.00676 0.0
O299 O 0.52456 0.12025 0.08204 0.0
C300 C 0.50555 0.11547 0.05616 0.0
C301 C 0.58513 0.1318 0.14596 0.0
C302 C 0.56607 0.12909 0.91537 0.0
C303 C 0.53902 0.06528 0.03468 0.0
O304 O 0.55918 0.08128 0.04169 0.0
O305 O 0.52316 0.0697 0.02589 0.0
O306 O 0.5972 0.12783 0.10617 0.0
O307 O 0.56554 0.12781 0.12678 0.0
O308 O 0.9315 0.43607 0.91489 0.0
Cd309 Cd 0.94484 0.43484 1.00308 0.0
Cd310 Cd 0.93083 0.46423 0.03198 0.0
O311 O 0.91479 0.45516 0.94394 0.0
O312 O 0.9451 0.40549 1.01034 0.0
O313 O 0.92264 0.41327 0.06748 0.0
C314 C 0.92894 0.39904 0.05161 0.0
C315 C 0.9144 0.46297 0.13124 0.0
C316 C 0.91915 0.44454 0.90133 0.0
C317 C 0.98088 0.48292 0.02793 0.0
O318 O 0.96477 0.48706 0.02816 0.0
O319 O 0.97666 0.46256 0.02404 0.0
O320 O 0.91777 0.47827 0.08938 0.0
O321 O 0.91882 0.44745 0.11443 0.0
O322 O 0.6124 0.50387 0.9253 0.0
Cd323 Cd 0.61372 0.52132 1.00782 0.0
Cd324 Cd 0.5847 0.479 0.04574 0.0
O325 O 0.59191 0.46893 0.95998 0.0
O326 O 0.6434 0.55042 1.00273 0.0
O327 O 0.63524 0.52515 0.07943 0.0
C328 C 0.64971 0.54394 0.0529 0.0
C329 C 0.58645 0.46481 0.14634 0.0
C330 C 0.60291 0.48274 0.91525 0.0
C331 C 0.5661 0.51056 0.02953 0.0
O332 O 0.56222 0.49059 0.03888 0.0
O333 O 0.5863 0.5265 0.02027 0.0
O334 O 0.5705 0.45286 0.10623 0.0
O335 O 0.60217 0.48441 0.12748 0.0
O336 O 0.59342 0.83361 0.7601 0.0
Cd337 Cd 0.60937 0.85122 0.84254 0.0
Cd338 Cd 0.59841 0.80941 0.87965 0.0
O339 O 0.58118 0.79888 0.79374 0.0
O340 O 0.608 0.87987 0.83709 0.0
O341 O 0.59168 0.8548 0.91471 0.0
C342 C 0.59551 0.87339 0.88785 0.0
C343 C 0.5828 0.79444 0.98009 0.0
C344 C 0.58289 0.81247 0.74955 0.0
C345 C 0.64798 0.84278 0.86251 0.0
O346 O 0.63276 0.82246 0.87258 0.0
O347 O 0.6425 0.85785 0.85344 0.0
O348 O 0.58748 0.78318 0.93938 0.0
O349 O 0.58583 0.81382 0.96202 0.0
O350 O 0.21146 0.76842 0.75336 0.0
Cd351 Cd 0.19416 0.76724 0.83613 0.0
Cd352 Cd 0.23625 0.79877 0.87036 0.0
O353 O 0.24641 0.79137 0.78476 0.0
O354 O 0.16558 0.73707 0.83215 0.0
O355 O 0.19095 0.74633 0.90909 0.0
C356 C 0.17232 0.73135 0.88293 0.0
C357 C 0.25137 0.79909 0.97137 0.0
C358 C 0.23254 0.77891 0.74184 0.0
C359 C 0.2024 0.81435 0.85334 0.0
O360 O 0.22286 0.8197 0.86195 0.0
O361 O 0.18734 0.79367 0.84619 0.0
O362 O 0.26255 0.81471 0.92965 0.0
O363 O 0.23206 0.78246 0.95392 0.0
O364 O 0.27785 0.44848 0.75207 0.0
Cd365 Cd 0.27918 0.43535 0.84057 0.0
Cd366 Cd 0.24976 0.44905 0.86933 0.0
O367 O 0.25863 0.46505 0.78107 0.0
O368 O 0.30827 0.43464 0.84679 0.0
O369 O 0.30122 0.45748 0.90456 0.0
C370 C 0.31506 0.45071 0.88841 0.0
C371 C 0.25037 0.46522 0.96865 0.0
C372 C 0.26923 0.4607 0.73838 0.0
C373 C 0.23122 0.3991 0.86544 0.0
O374 O 0.22695 0.41512 0.86545 0.0
O375 O 0.25162 0.40346 0.8617 0.0
O376 O 0.23535 0.46189 0.92593 0.0
O377 O 0.26614 0.46104 0.95258 0.0
O378 O 0.51079 0.91666 0.1209 0.0
Cd379 Cd 0.52796 0.93293 0.03813 0.0
Cd380 Cd 0.48579 0.92227 1.00406 0.0
O381 O 0.47582 0.90478 0.08986 0.0
O382 O 0.55659 0.93141 0.04042 0.0
O383 O 0.53084 0.91541 0.96438 0.0
C384 C 0.5497 0.9192 0.98921 0.0
C385 C 0.4706 0.90739 0.90325 0.0
C386 C 0.48972 0.9061 0.13258 0.0
C387 C 0.51958 0.97171 0.02045 0.0
O388 O 0.49913 0.95659 1.01183 0.0
O389 O 0.53463 0.9661 0.02803 0.0
O390 O 0.45942 0.9118 0.945 0.0
O391 O 0.48991 0.91008 0.92065 0.0
O392 O 0.12919 0.60311 0.11872 0.0
Cd393 Cd 0.11312 0.60448 0.036 0.0
Cd394 Cd 0.12392 0.57333 0.99999 0.0
O395 O 0.14146 0.5806 0.08555 0.0
O396 O 0.11491 0.63476 0.03807 0.0
O397 O 0.1308 0.62481 0.96222 0.0
C398 C 0.1271 0.63997 0.9868 0.0
C399 C 0.1388 0.57263 0.89943 0.0
C400 C 0.13981 0.5926 0.12948 0.0
C401 C 0.07439 0.55742 1.01717 0.0
O402 O 0.08959 0.55224 1.00801 0.0
O403 O 0.07992 0.57803 0.02536 0.0
O404 O 0.13423 0.55713 0.94162 0.0
O405 O 0.13624 0.58938 0.91615 0.0
O406 O 0.44516 0.53471 0.11848 0.0
Cd407 Cd 0.44342 0.51874 0.03248 0.0
Cd408 Cd 0.47393 0.56105 0.99912 0.0
O409 O 0.46592 0.56991 0.08568 0.0
O410 O 0.4141 0.48905 0.02972 0.0
O411 O 0.42145 0.5178 0.96632 0.0
C412 C 0.40745 0.49758 0.98539 0.0
C413 C 0.47249 0.5756 0.89903 0.0
C414 C 0.45488 0.5558 0.12983 0.0
C415 C 0.49104 0.52858 1.01034 0.0
O416 O 0.49608 0.54907 1.00532 0.0
O417 O 0.47042 0.51319 1.01577 0.0
O418 O 0.48826 0.5875 0.9397 0.0
O419 O 0.45676 0.55592 0.91718 0.0
O420 O 0.12508 0.53224 0.6172 0.0
Cd421 Cd 0.11147 0.51711 0.52987 0.0
Cd422 Cd 0.12545 0.5603 0.49835 0.0
O423 O 0.14153 0.56788 0.58642 0.0
O424 O 0.11141 0.48757 0.52394 0.0
O425 O 0.13345 0.5175 0.46514 0.0
C426 C 0.12738 0.49712 0.48205 0.0
C427 C 0.14201 0.57524 0.39875 0.0
C428 C 0.13732 0.55317 0.62979 0.0
C429 C 0.07531 0.52891 0.50494 0.0
O430 O 0.09147 0.54914 0.50266 0.0
O431 O 0.0795 0.51277 0.50986 0.0
O432 O 0.1385 0.58722 0.44006 0.0
O433 O 0.13752 0.55533 0.41615 0.0
O434 O 0.51248 0.60206 0.61889 0.0
Cd435 Cd 0.52959 0.60326 0.53562 0.0
Cd436 Cd 0.48708 0.57402 0.49957 0.0
O437 O 0.47739 0.58156 0.5854 0.0
O438 O 0.55884 0.63279 0.54022 0.0
O439 O 0.53339 0.62489 0.46429 0.0
C440 C 0.55233 0.63922 0.49039 0.0
C441 C 0.47253 0.57518 0.39925 0.0
C442 C 0.49138 0.59265 0.62964 0.0
C443 C 0.5188 0.55562 0.5137 0.0
O444 O 0.49873 0.55161 0.50598 0.0
O445 O 0.53474 0.57586 0.52224 0.0
O446 O 0.46072 0.55944 0.44012 0.0
O447 O 0.49214 0.59109 0.41734 0.0
O448 O 0.44543 0.92167 0.61979 0.0
Cd449 Cd 0.44446 0.93547 0.53225 0.0
Cd450 Cd 0.47338 0.9212 0.50174 0.0
O451 O 0.46457 0.90511 0.58988 0.0
O452 O 0.4156 0.93667 0.52689 0.0
O453 O 0.42231 0.91392 0.46756 0.0
C454 C 0.40863 0.9208 0.48459 0.0
C455 C 0.47154 0.90452 0.40223 0.0
C456 C 0.45395 0.90933 0.63282 0.0
C457 C 0.49271 0.97132 0.50816 0.0
O458 O 0.49663 0.95507 0.50597 0.0
O459 O 0.47242 0.96727 0.5129 0.0
O460 O 0.48685 0.90771 0.44381 0.0
O461 O 0.45634 0.90938 0.41933 0.0
O462 O 0.20926 0.44982 0.25 0.0
Cd463 Cd 0.19367 0.43534 0.3362 0.0
Cd464 Cd 0.23626 0.44697 0.36743 0.0
O465 O 0.24467 0.46431 0.28117 0.0
O466 O 0.1644 0.43573 0.34158 0.0
O467 O 0.19389 0.45658 0.40336 0.0
C468 C 0.17371 0.45102 0.38535 0.0
C469 C 0.25181 0.46203 0.46791 0.0
C470 C 0.23029 0.46148 0.23806 0.0
C471 C 0.20333 0.3974 0.3558 0.0
O472 O 0.22388 0.41282 0.35953 0.0
O473 O 0.18794 0.40268 0.35213 0.0
O474 O 0.26318 0.4583 0.42506 0.0
O475 O 0.23213 0.45863 0.45175 0.0
O476 O 0.59517 0.76746 0.26097 0.0
Cd477 Cd 0.6114 0.76677 0.34404 0.0
Cd478 Cd 0.59789 0.79604 0.37958 0.0
O479 O 0.58107 0.78859 0.29286 0.0
O480 O 0.61103 0.73712 0.34133 0.0
O481 O 0.59389 0.74576 0.4167 0.0
C482 C 0.59842 0.73122 0.39185 0.0
C483 C 0.58169 0.79394 0.47998 0.0
C484 C 0.58366 0.77699 0.24952 0.0
C485 C 0.6481 0.81465 0.3655 0.0
O486 O 0.63198 0.81854 0.374 0.0
O487 O 0.64389 0.79447 0.35639 0.0
O488 O 0.58555 0.80989 0.43998 0.0
O489 O 0.58575 0.77838 0.46096 0.0
O490 O 0.27841 0.83864 0.25511 0.0
Cd491 Cd 0.27999 0.85364 0.34272 0.0
Cd492 Cd 0.24936 0.81092 0.37274 0.0
O493 O 0.25754 0.80303 0.28454 0.0
O494 O 0.30918 0.88341 0.34667 0.0
O495 O 0.30214 0.85415 0.40743 0.0
C496 C 0.31601 0.87457 0.38955 0.0
C497 C 0.25087 0.79589 0.47226 0.0
C498 C 0.26884 0.81771 0.24179 0.0
C499 C 0.23229 0.84346 0.36625 0.0
O500 O 0.22719 0.82291 0.36867 0.0
O501 O 0.25294 0.85889 0.36182 0.0
O502 O 0.23525 0.7841 0.43109 0.0
O503 O 0.26652 0.81572 0.45478 0.0
C504 C 0.24099 0.11712 0.91597 0.0
C505 C 0.24277 0.13282 0.86928 0.0
C506 C 0.24163 0.12178 0.98182 0.0
C507 C 0.24429 0.14243 1.00358 0.0
H508 H 0.24042 0.10163 0.90175 0.0
H509 H 0.24167 0.10977 1.01561 0.0
S510 S 0.2452 0.18735 0.90171 0.0
N511 N 0.2438 0.16841 0.85003 0.0
N512 N 0.24529 0.17722 0.9736 0.0
C513 C 0.24402 0.15737 0.95766 0.0
C514 C 0.24316 0.15255 0.89059 0.0
C515 C 0.93005 0.13505 0.92462 0.0
C516 C 0.91491 0.12021 0.87827 0.0
C517 C 0.92575 0.13081 0.99058 0.0
C518 C 0.90607 0.11162 1.01268 0.0
H519 H 0.94459 0.15083 0.9101 0.0
H520 H 0.93703 0.14355 0.02417 0.0
S521 S 0.86369 0.06502 0.91171 0.0
N522 N 0.88146 0.08363 0.85966 0.0
N523 N 0.87332 0.07586 0.9834 0.0
C524 C 0.89202 0.09557 0.96707 0.0
C525 C 0.89645 0.09981 0.89994 0.0
C526 C 0.94694 0.80246 0.96708 0.0
C527 C 0.9325 0.80309 1.01416 0.0
C528 C 0.94236 0.80239 0.90148 0.0
C529 C 0.92308 0.80283 0.88012 0.0
H530 H 0.9612 0.80063 0.98086 0.0
H531 H 0.9533 0.80051 0.86756 0.0
S532 S 0.88225 0.80899 0.98328 0.0
N533 N 0.89992 0.80757 0.03442 0.0
N534 N 0.8913 0.80735 0.9111 0.0
C535 C 0.90972 0.80569 0.92638 0.0
C536 C 0.91445 0.80588 0.99339 0.0
C537 C 0.13355 0.23446 0.55768 0.0
C538 C 0.1539 0.23633 0.53602 0.0
C539 C 0.12907 0.23437 0.62351 0.0
C540 C 0.14468 0.23598 0.67028 0.0
H541 H 0.12167 0.23466 0.5237 0.0
H542 H 0.11383 0.23435 0.63757 0.0
S543 S 0.19833 0.23648 0.63836 0.0
N544 N 0.18823 0.23646 0.56636 0.0
N545 N 0.17977 0.23601 0.68987 0.0
C546 C 0.16409 0.23567 0.64917 0.0
C547 C 0.16871 0.23593 0.58213 0.0
C548 C 0.8125 0.93802 0.57229 0.0
C549 C 0.81308 0.92354 0.52531 0.0
C550 C 0.81266 0.9336 0.63791 0.0
C551 C 0.81329 0.91444 0.65939 0.0
H552 H 0.81048 0.95216 0.55844 0.0
H553 H 0.81074 0.94453 0.67179 0.0
S554 S 0.81968 0.87373 0.55641 0.0
N555 N 0.81791 0.89118 0.50517 0.0
N556 N 0.81812 0.88283 0.62857 0.0
C557 C 0.81621 0.9011 0.61318 0.0
C558 C 0.81616 0.90568 0.54613 0.0
C559 C 0.11074 0.88677 0.64402 0.0
C560 C 0.12918 0.90711 0.66575 0.0
C561 C 0.10669 0.8821 0.57829 0.0
C562 C 0.1208 0.89762 0.53151 0.0
H563 H 0.10025 0.87362 0.67777 0.0
H564 H 0.0932 0.86558 0.56424 0.0
S565 S 0.16844 0.95533 0.56337 0.0
N566 N 0.1595 0.94438 0.63538 0.0
N567 N 0.15185 0.93566 0.51185 0.0
C568 C 0.13781 0.919 0.55258 0.0
C569 C 0.14202 0.92371 0.6197 0.0
C570 C 0.81099 0.8861 0.13837 0.0
C571 C 0.81195 0.90605 0.15979 0.0
C572 C 0.81094 0.88155 0.07278 0.0
C573 C 0.81198 0.89681 0.02574 0.0
H574 H 0.80879 0.87315 0.17227 0.0
H575 H 0.80869 0.8653 0.05894 0.0
S576 S 0.81925 0.95351 0.05668 0.0
N577 N 0.81737 0.94271 0.12885 0.0
N578 N 0.81736 0.93422 1.00551 0.0
C579 C 0.81529 0.91785 0.04652 0.0
C580 C 0.81522 0.92243 0.11355 0.0
C581 C 0.1269 0.9028 0.11931 0.0
C582 C 0.14243 0.91688 0.1661 0.0
C583 C 0.1315 0.90709 0.05351 0.0
C584 C 0.1519 0.92552 0.03193 0.0
H585 H 0.11162 0.8876 0.13338 0.0
H586 H 0.11966 0.89495 1.01957 0.0
S587 S 0.19618 0.96996 0.13422 0.0
N588 N 0.17751 0.95196 0.18572 0.0
N589 N 0.1862 0.95977 0.06223 0.0
C590 C 0.16663 0.94081 0.07799 0.0
C591 C 0.16188 0.93657 0.145 0.0
C592 C 0.14123 0.23209 0.05654 0.0
C593 C 0.12209 0.2327 0.03469 0.0
C594 C 0.14539 0.23172 0.12242 0.0
C595 C 0.13051 0.23181 0.16903 0.0
H596 H 0.15401 0.23366 0.02289 0.0
H597 H 0.16114 0.23285 0.13671 0.0
S598 S 0.07539 0.22804 0.13629 0.0
N599 N 0.08627 0.22952 0.06448 0.0
N600 N 0.09395 0.22865 0.18808 0.0
C601 C 0.11014 0.22996 0.14759 0.0
C602 C 0.10597 0.23046 0.0805 0.0
C603 C 0.89558 0.80197 0.40146 0.0
C604 C 0.9156 0.80304 0.3801 0.0
C605 C 0.89092 0.80171 0.46704 0.0
C606 C 0.90612 0.80266 0.5141 0.0
H607 H 0.88266 0.79981 0.36751 0.0
H608 H 0.87462 0.79937 0.48082 0.0
S609 S 0.96296 0.81023 0.48341 0.0
N610 N 0.95227 0.80851 0.41118 0.0
N611 N 0.94356 0.80812 0.53451 0.0
C612 C 0.92723 0.80612 0.49343 0.0
C613 C 0.93193 0.80625 0.42642 0.0
C614 C 0.24144 0.12851 0.48176 0.0
C615 C 0.24396 0.11044 0.50357 0.0
C616 C 0.2408 0.13252 0.4159 0.0
C617 C 0.24245 0.11852 0.36927 0.0
H618 H 0.24161 0.14062 0.51551 0.0
H619 H 0.24035 0.14751 0.40162 0.0
S620 S 0.24442 0.06619 0.40191 0.0
N621 N 0.24464 0.07648 0.47376 0.0
N622 N 0.24316 0.08379 0.35016 0.0
C623 C 0.24268 0.0991 0.39066 0.0
C624 C 0.24353 0.09514 0.45774 0.0
C625 C 0.91441 0.11989 0.49073 0.0
C626 C 0.93392 0.13923 0.51289 0.0
C627 C 0.9101 0.11569 0.42477 0.0
C628 C 0.9252 0.13061 0.37842 0.0
H629 H 0.90152 0.10878 0.5243 0.0
H630 H 0.89413 0.10141 0.41026 0.0
S631 S 0.98108 0.1809 0.41184 0.0
N632 N 0.97014 0.17139 0.48354 0.0
N633 N 0.9622 0.16348 0.35981 0.0
C634 C 0.94583 0.14872 0.40009 0.0
C635 C 0.95014 0.15303 0.46724 0.0
C636 C 0.91218 0.48603 0.22082 0.0
C637 C 0.90922 0.46526 0.19919 0.0
C638 C 0.91315 0.49087 0.28653 0.0
C639 C 0.91102 0.47508 0.33339 0.0
H640 H 0.91536 0.49931 0.18697 0.0
H641 H 0.9169 0.50763 0.30049 0.0
S642 S 0.89833 0.41647 0.30176 0.0
N643 N 0.90073 0.42752 0.22971 0.0
N644 N 0.90238 0.4365 0.35319 0.0
C645 C 0.90573 0.4534 0.31241 0.0
C646 C 0.9049 0.44854 0.24533 0.0
C647 C 0.56521 0.4382 0.23569 0.0
C648 C 0.58493 0.45748 0.21427 0.0
C649 C 0.5607 0.43363 0.30129 0.0
C650 C 0.57577 0.44808 0.34834 0.0
H651 H 0.55238 0.42726 0.20179 0.0
H652 H 0.5446 0.41938 0.3151 0.0
S653 S 0.63197 0.4983 0.31732 0.0
N654 N 0.62127 0.48924 0.24517 0.0
N655 N 0.61287 0.48064 0.36851 0.0
C656 C 0.59663 0.46612 0.32753 0.0
C657 C 0.60118 0.47084 0.2605 0.0
C658 C 0.61583 0.13684 0.30146 0.0
C659 C 0.60102 0.13688 0.34831 0.0
C660 C 0.61157 0.13719 0.23579 0.0
C661 C 0.59224 0.13748 0.2141 0.0
H662 H 0.63013 0.1351 0.31542 0.0
H663 H 0.62277 0.13569 0.20198 0.0
S664 S 0.55052 0.1423 0.31685 0.0
N665 N 0.56807 0.14075 0.36822 0.0
N666 N 0.56004 0.14134 0.24476 0.0
C667 C 0.57853 0.13984 0.26027 0.0
C668 C 0.58294 0.1396 0.32737 0.0
C669 C 0.79736 0.56732 0.88523 0.0
C670 C 0.81733 0.56836 0.86336 0.0
C671 C 0.79291 0.56713 0.9511 0.0
C672 C 0.80816 0.56782 0.9977 0.0
H673 H 0.78584 0.56829 0.85147 0.0
H674 H 0.77806 0.56782 0.96537 0.0
S675 S 0.86046 0.56575 0.96506 0.0
N676 N 0.85071 0.56658 0.89321 0.0
N677 N 0.8423 0.56597 1.01681 0.0
C678 C 0.82705 0.56659 0.97631 0.0
C679 C 0.83164 0.56694 0.90922 0.0
C680 C 0.47683 0.27015 0.9101 0.0
C681 C 0.47769 0.25581 0.86312 0.0
C682 C 0.47687 0.26568 0.97575 0.0
C683 C 0.47766 0.24661 0.99733 0.0
H684 H 0.47477 0.28426 0.89619 0.0
H685 H 0.47483 0.27654 1.00956 0.0
S686 S 0.48446 0.20611 0.89448 0.0
N687 N 0.4827 0.22355 0.84317 0.0
N688 N 0.4827 0.21512 0.96659 0.0
C689 C 0.48071 0.23334 0.95115 0.0
C690 C 0.48078 0.23797 0.88407 0.0
C691 C 0.77529 0.21444 0.91173 0.0
C692 C 0.78919 0.23018 0.86506 0.0
C693 C 0.77943 0.21895 0.97749 0.0
C694 C 0.79774 0.23935 0.99942 0.0
H695 H 0.76188 0.19789 0.89749 0.0
H696 H 0.76908 0.20567 1.01108 0.0
S697 S 0.83648 0.28803 0.8976 0.0
N698 N 0.81993 0.26841 0.84587 0.0
N699 N 0.82775 0.27683 0.96948 0.0
C700 C 0.8104 0.25611 0.95358 0.0
C701 C 0.8061 0.25156 0.88641 0.0
C702 C 0.4781 0.25301 0.45031 0.0
C703 C 0.47812 0.23817 0.49716 0.0
C704 C 0.47825 0.24861 0.38451 0.0
C705 C 0.47833 0.22915 0.36307 0.0
H706 H 0.47645 0.26735 0.46428 0.0
H707 H 0.47655 0.25965 0.35052 0.0
S708 S 0.48362 0.18774 0.46575 0.0
N709 N 0.48216 0.20533 0.5171 0.0
N710 N 0.48226 0.19704 0.39367 0.0
C711 C 0.48067 0.21547 0.40926 0.0
C712 C 0.48061 0.21998 0.47623 0.0
C713 C 0.79426 0.23586 0.45248 0.0
C714 C 0.80954 0.25027 0.49925 0.0
C715 C 0.79886 0.24015 0.38669 0.0
C716 C 0.81899 0.25893 0.36509 0.0
H717 H 0.77927 0.22039 0.46656 0.0
H718 H 0.78729 0.22775 0.3528 0.0
S719 S 0.86226 0.30434 0.46732 0.0
N720 N 0.84389 0.28603 0.51883 0.0
N721 N 0.85257 0.29388 0.39534 0.0
C722 C 0.83334 0.27456 0.41111 0.0
C723 C 0.82861 0.27029 0.47812 0.0
C724 C 0.81012 0.566 0.45117 0.0
C725 C 0.79551 0.56678 0.49745 0.0
C726 C 0.806 0.5662 0.38519 0.0
C727 C 0.78718 0.56733 0.36294 0.0
H728 H 0.82564 0.56669 0.46575 0.0
H729 H 0.8186 0.56723 0.3517 0.0
S730 S 0.74119 0.56463 0.46369 0.0
N731 N 0.75947 0.56487 0.51585 0.0
N732 N 0.75191 0.56546 0.39205 0.0
C733 C 0.77131 0.56583 0.40849 0.0
C734 C 0.77541 0.56548 0.47567 0.0
C735 C 0.59741 0.13553 0.76012 0.0
C736 C 0.58221 0.13496 0.71352 0.0
C737 C 0.59315 0.13578 0.82599 0.0
C738 C 0.57347 0.13533 0.84776 0.0
H739 H 0.612 0.13434 0.74592 0.0
H740 H 0.60452 0.13458 0.85985 0.0
S741 S 0.53084 0.13877 0.74581 0.0
N742 N 0.54861 0.13776 0.69415 0.0
N743 N 0.54057 0.13798 0.81773 0.0
C744 C 0.55931 0.13698 0.8018 0.0
C745 C 0.56369 0.13686 0.73475 0.0
C746 C 0.91021 0.46746 0.74549 0.0
C747 C 0.91228 0.4537 0.69889 0.0
C748 C 0.9105 0.46325 0.81134 0.0
C749 C 0.91307 0.44521 0.83322 0.0
H750 H 0.90965 0.48239 0.73125 0.0
H751 H 0.9103 0.47518 0.84512 0.0
S752 S 0.91464 0.40156 0.73141 0.0
N753 N 0.91351 0.41925 0.67968 0.0
N754 N 0.91432 0.41155 0.80329 0.0
C755 C 0.91312 0.43017 0.78731 0.0
C756 C 0.91264 0.43434 0.72021 0.0
C757 C 0.61154 0.4854 0.7356 0.0
C758 C 0.59269 0.46531 0.71418 0.0
C759 C 0.6159 0.49004 0.8012 0.0
C760 C 0.60168 0.47474 0.8482 0.0
H761 H 0.62224 0.49837 0.70169 0.0
H762 H 0.62976 0.50638 0.81503 0.0
S763 S 0.55273 0.41773 0.81733 0.0
N764 N 0.56166 0.42849 0.74514 0.0
N765 N 0.56991 0.43717 0.8685 0.0
C766 C 0.58415 0.45359 0.82747 0.0
C767 C 0.57963 0.4489 0.76044 0.0
C768 C 0.57671 0.81956 0.63563 0.0
C769 C 0.57624 0.80446 0.68238 0.0
C770 C 0.57653 0.81509 0.56992 0.0
C771 C 0.57599 0.79537 0.54809 0.0
H772 H 0.57863 0.83565 0.64973 0.0
H773 H 0.57834 0.82795 0.53623 0.0
S774 S 0.57002 0.74826 0.6504 0.0
N775 N 0.5717 0.76735 0.70194 0.0
N776 N 0.57145 0.759 0.57841 0.0
C777 C 0.57323 0.7791 0.5941 0.0
C778 C 0.5733 0.78361 0.66123 0.0
C779 C 0.26405 0.80343 0.58658 0.0
C780 C 0.24914 0.78839 0.54018 0.0
C781 C 0.25973 0.7992 0.65253 0.0
C782 C 0.24024 0.77981 0.67463 0.0
H783 H 0.27842 0.81935 0.5721 0.0
H784 H 0.27082 0.81209 0.68607 0.0
S785 S 0.1986 0.73268 0.57357 0.0
N786 N 0.21619 0.75146 0.52155 0.0
N787 N 0.20801 0.74365 0.64527 0.0
C788 C 0.22648 0.76357 0.62899 0.0
C789 C 0.23094 0.76781 0.56185 0.0
C790 C 0.24586 0.46908 0.58247 0.0
C791 C 0.25963 0.46705 0.53577 0.0
C792 C 0.2502 0.46894 0.64832 0.0
C793 C 0.26837 0.46657 0.67012 0.0
H794 H 0.23086 0.46952 0.56835 0.0
H795 H 0.23828 0.46912 0.6822 0.0
S796 S 0.312 0.46506 0.56793 0.0
N797 N 0.29417 0.46599 0.51634 0.0
N798 N 0.30208 0.46546 0.63989 0.0
C799 C 0.28337 0.46651 0.62405 0.0
C800 C 0.27908 0.46684 0.55697 0.0
C801 C 0.46257 0.89908 0.22205 0.0
C802 C 0.48205 0.89921 0.19978 0.0
C803 C 0.45828 0.89892 0.28802 0.0
C804 C 0.47321 0.89875 0.33429 0.0
H805 H 0.45145 0.90089 0.18863 0.0
H806 H 0.44391 0.90044 0.30263 0.0
S807 S 0.52377 0.89369 0.30042 0.0
N808 N 0.51431 0.8953 0.22882 0.0
N809 N 0.50619 0.89481 0.35261 0.0
C810 C 0.49141 0.89641 0.31245 0.0
C811 C 0.49584 0.8967 0.24527 0.0
C812 C 0.14554 0.60563 0.24372 0.0
C813 C 0.14669 0.59147 0.19664 0.0
C814 C 0.14604 0.60139 0.30938 0.0
C815 C 0.14759 0.58272 0.33083 0.0
H816 H 0.14282 0.61935 0.22995 0.0
H817 H 0.14361 0.61197 0.34333 0.0
S818 S 0.15578 0.54317 0.22772 0.0
N819 N 0.15306 0.56006 0.17649 0.0
N820 N 0.15391 0.55207 0.29988 0.0
C821 C 0.15106 0.56978 0.28451 0.0
C822 C 0.15066 0.57417 0.21745 0.0
C823 C 0.44235 0.54797 0.24435 0.0
C824 C 0.4562 0.56351 0.19729 0.0
C825 C 0.44666 0.5527 0.30995 0.0
C826 C 0.46513 0.57311 0.33129 0.0
H827 H 0.42879 0.53145 0.23057 0.0
H828 H 0.43626 0.53959 0.34391 0.0
S829 S 0.50407 0.62121 0.22811 0.0
N830 N 0.48724 0.60153 0.17699 0.0
N831 N 0.49541 0.61031 0.3003 0.0
C832 C 0.47785 0.58964 0.285 0.0
C833 C 0.47335 0.58488 0.21802 0.0
C834 C 0.14548 0.58534 0.78456 0.0
C835 C 0.14387 0.56982 0.83166 0.0
C836 C 0.14533 0.5807 0.71885 0.0
C837 C 0.14338 0.56028 0.69766 0.0
H838 H 0.14554 0.60063 0.79828 0.0
H839 H 0.14512 0.59251 0.68461 0.0
S840 S 0.14325 0.51607 0.80098 0.0
N841 N 0.14379 0.53476 0.85207 0.0
N842 N 0.14322 0.526 0.72876 0.0
C843 C 0.14379 0.54557 0.74409 0.0
C844 C 0.14413 0.55036 0.811 0.0
C845 C 0.49455 0.60154 0.80931 0.0
C846 C 0.47429 0.58297 0.83108 0.0
C847 C 0.49914 0.60573 0.7436 0.0
C848 C 0.48361 0.59164 0.69688 0.0
H849 H 0.50768 0.61208 0.843 0.0
H850 H 0.51559 0.61935 0.72947 0.0
S851 S 0.42613 0.54357 0.72887 0.0
N852 N 0.43712 0.55245 0.80085 0.0
N853 N 0.44568 0.56038 0.67732 0.0
C854 C 0.46232 0.57445 0.71802 0.0
C855 C 0.4577 0.57009 0.78512 0.0
C856 C 0.47716 0.90085 0.78876 0.0
C857 C 0.46304 0.90241 0.83521 0.0
C858 C 0.47301 0.90112 0.72284 0.0
C859 C 0.45465 0.90314 0.70079 0.0
H860 H 0.49232 0.90075 0.80317 0.0
H861 H 0.48519 0.90138 0.68915 0.0
S862 S 0.41009 0.90316 0.80208 0.0
N863 N 0.42797 0.9025 0.854 0.0
N864 N 0.4204 0.9033 0.73032 0.0
C865 C 0.43931 0.90266 0.74653 0.0
C866 C 0.44342 0.90221 0.81365 0.0
C867 C 0.25813 0.47025 0.14926 0.0
C868 C 0.23777 0.46841 0.17075 0.0
C869 C 0.26296 0.47107 0.08349 0.0
C870 C 0.24773 0.47024 0.03661 0.0
H871 H 0.26968 0.4694 0.18313 0.0
H872 H 0.27813 0.47092 0.06945 0.0
S873 S 0.19445 0.47046 0.0685 0.0
N874 N 0.20401 0.46942 0.14045 0.0
N875 N 0.21314 0.47119 1.01703 0.0
C876 C 0.22844 0.47076 0.05775 0.0
C877 C 0.22345 0.46976 0.12474 0.0
C878 C 0.57666 0.80153 0.09442 0.0
C879 C 0.57711 0.78683 0.04791 0.0
C880 C 0.57657 0.79714 0.16032 0.0
C881 C 0.57707 0.77794 0.18218 0.0
H882 H 0.57785 0.8173 0.08011 0.0
H883 H 0.57789 0.80978 0.19408 0.0
S884 S 0.57328 0.73168 0.08058 0.0
N885 N 0.57418 0.75037 0.02879 0.0
N886 N 0.57427 0.74232 0.15242 0.0
C887 C 0.57525 0.76204 0.13635 0.0
C888 C 0.5752 0.76642 0.06928 0.0
C889 C 0.24906 0.79059 0.15193 0.0
C890 C 0.26778 0.81073 0.17371 0.0
C891 C 0.24471 0.78616 0.08607 0.0
C892 C 0.25898 0.80162 0.03938 0.0
H893 H 0.23678 0.77885 0.18578 0.0
H894 H 0.22932 0.7711 0.07191 0.0
S895 S 0.31277 0.85459 0.0716 0.0
N896 N 0.30247 0.84462 0.14354 0.0
N897 N 0.2945 0.83626 1.02 0.0
C898 C 0.2789 0.82078 0.06062 0.0
C899 C 0.28323 0.82534 0.12769 0.0
C900 C 0.25123 0.25163 0.28176 0.0
C901 C 0.22783 0.24 0.29342 0.0
C902 C 0.26219 0.24035 0.2579 0.0
C903 C 0.25029 0.21691 0.24711 0.0
H904 H 0.26109 0.26963 0.2902 0.0
H905 H 0.28015 0.25001 0.24862 0.0
S906 S 0.18891 0.17862 0.27164 0.0
N907 N 0.19317 0.20373 0.2923 0.0
N908 N 0.21382 0.18249 0.2502 0.0
C909 C 0.22697 0.20507 0.25958 0.0
C910 C 0.21573 0.21663 0.28198 0.0
C911 C 0.8048 1.00111 0.23091 0.0
C912 C 0.80329 0.99672 0.29728 0.0
C913 C 0.81535 0.02334 0.20729 0.0
C914 C 0.82551 0.04199 0.24908 0.0
H915 H 0.79774 0.98725 0.19699 0.0
H916 H 0.81624 0.02594 0.1558 0.0
S917 S 0.82653 0.03961 0.42686 0.0
N918 N 0.81255 1.01289 0.40444 0.0
N919 N 0.83333 0.05456 0.35993 0.0
C920 C 0.82418 0.03782 0.31546 0.0
C921 C 0.81282 1.01522 0.33958 0.0
C922 C 1.0105 0.79645 0.31139 0.0
C923 C 1.00641 0.79493 0.24486 0.0
C924 C 0.03263 0.80699 0.33579 0.0
C925 C 0.05147 0.81713 0.29463 0.0
H926 H 0.9965 0.78939 0.34483 0.0
H927 H 0.035 0.80786 0.38737 0.0
S928 S 0.04989 0.81812 0.11673 0.0
N929 N 1.02307 0.80417 0.13824 0.0
N930 N 0.06455 0.82493 0.18418 0.0
C931 C 0.0476 0.81581 0.22809 0.0
C932 C 1.02511 0.80446 0.20319 0.0
C933 C 0.82166 0.79427 0.80969 0.0
C934 C 0.82369 0.79196 0.74326 0.0
C935 C 0.8103 0.80513 0.83345 0.0
C936 C 0.80131 0.81481 0.79164 0.0
H937 H 0.8289 0.78764 0.84355 0.0
H938 H 0.80924 0.80664 0.88496 0.0
S939 S 0.80234 0.81358 0.61372 0.0
N940 N 0.81537 0.79989 0.63609 0.0
N941 N 0.7951 0.82125 0.68074 0.0
C942 C 0.80328 0.81266 0.7252 0.0
C943 C 0.81418 0.80097 0.70103 0.0
C944 C 0.26139 0.03017 0.75815 0.0
C945 C 0.24955 0.04163 0.74528 0.0
C946 C 0.2502 1.00785 0.78145 0.0
C947 C 0.22665 0.99592 0.7904 0.0
H948 H 0.27948 0.03861 0.75102 0.0
H949 H 0.26002 0.99978 0.79166 0.0
S950 S 0.18781 1.01809 0.76176 0.0
N951 N 0.21297 0.03932 0.74307 0.0
N952 N 0.1919 0.99727 0.78405 0.0
C953 C 0.21461 1.0071 0.77665 0.0
C954 C 0.22606 0.02997 0.75486 0.0
C955 C 1.01052 0.22214 0.81315 0.0
C956 C 1.00646 0.21974 0.74661 0.0
C957 C 0.03264 0.23358 0.83761 0.0
C958 C 0.05149 0.24229 0.79648 0.0
H959 H 0.9965 0.21521 0.84654 0.0
H960 H 0.03499 0.23498 0.8892 0.0
S961 S 0.04995 0.24011 0.61854 0.0
N962 N 1.02313 0.2273 0.64 0.0
N963 N 0.06459 0.24775 0.68603 0.0
C964 C 0.04764 0.23989 0.72992 0.0
C965 C 1.02516 0.2289 0.70498 0.0
C966 C 0.91616 0.58447 0.61118 0.0
C967 C 0.89265 0.57263 0.62103 0.0
C968 C 0.92742 0.57356 0.58692 0.0
C969 C 0.91571 0.55026 0.57402 0.0
H970 H 0.92586 0.60236 0.62141 0.0
H971 H 0.94547 0.58337 0.57911 0.0
S972 S 0.85417 0.51152 0.59288 0.0
N973 N 0.8581 0.53633 0.61559 0.0
N974 N 0.87934 0.51574 0.57291 0.0
C975 C 0.89229 0.53821 0.58456 0.0
C976 C 0.88075 0.54941 0.60728 0.0
C977 C 0.47302 0.33408 0.56549 0.0
C978 C 0.4708 0.32982 0.63197 0.0
C979 C 0.48401 0.35626 0.54146 0.0
C980 C 0.4939 0.37499 0.58302 0.0
H981 H 0.46615 0.32016 0.53181 0.0
H982 H 0.48538 0.35876 0.48992 0.0
S983 S 0.49301 0.37295 0.76099 0.0
N984 N 0.47908 0.3462 0.73894 0.0
N985 N 0.50066 0.38777 0.69379 0.0
C986 C 0.49188 0.37095 0.64952 0.0
C987 C 0.48008 0.3484 0.67398 0.0
C988 C 0.67833 0.12871 0.64359 0.0
C989 C 0.67418 0.12756 0.57715 0.0
C990 C 0.70049 0.13942 0.66783 0.0
C991 C 0.71929 0.1501 0.62662 0.0
H992 H 0.66435 0.12121 0.67708 0.0
H993 H 0.70291 0.13998 0.71936 0.0
S994 S 0.71752 0.15219 0.4489 0.0
N995 N 0.69073 0.13773 0.47053 0.0
N996 N 0.73224 0.15877 0.51621 0.0
C997 C 0.71534 0.14914 0.56017 0.0
C998 C 0.69283 0.13763 0.5354 0.0
C999 C 0.47875 0.13881 0.1702 0.0
C1000 C 0.46948 0.14816 0.12821 0.0
C1001 C 0.49036 0.12819 0.14666 0.0
C1002 C 0.49236 0.12578 0.08029 0.0
H1003 H 0.47769 0.14038 0.22168 0.0
H1004 H 0.49778 0.12178 0.18065 0.0
S1005 S 0.47042 0.14662 0.95031 0.0
N1006 N 0.46304 0.15424 1.01717 0.0
N1007 N 0.48379 0.1333 0.97295 0.0
C1008 C 0.48261 0.13449 0.03786 0.0
C1009 C 0.47146 0.14594 0.0618 0.0
C1010 C 0.92898 0.36421 0.09021 0.0
C1011 C 0.91711 0.37564 0.07726 0.0
C1012 C 0.91784 0.34197 0.11412 0.0
C1013 C 0.89432 0.33009 0.12361 0.0
H1014 H 0.94705 0.37262 0.08274 0.0
H1015 H 0.92767 0.33392 0.12439 0.0
S1016 S 0.85543 0.35222 0.09538 0.0
N1017 N 0.88054 0.37336 0.07583 0.0
N1018 N 0.85957 0.33144 0.11788 0.0
C1019 C 0.88225 0.34123 0.10984 0.0
C1020 C 0.89365 0.36403 0.08745 0.0
C1021 C 0.69982 0.57071 0.16712 0.0
C1022 C 0.71848 0.57919 0.12529 0.0
C1023 C 0.67759 0.5594 0.14347 0.0
C1024 C 0.67322 0.55692 0.07707 0.0
H1025 H 0.70241 0.57213 0.21862 0.0
H1026 H 0.66372 0.55255 0.17737 0.0
S1027 S 0.71613 0.57676 0.94743 0.0
N1028 N 0.73107 0.58439 1.01439 0.0
N1029 N 0.68942 0.56421 0.96986 0.0
C1030 C 0.69173 0.56591 0.03476 0.0
C1031 C 0.71432 0.57675 0.05888 0.0
C1032 C 0.57254 0.90014 1.00336 0.0
C1033 C 0.5624 0.90879 0.96206 0.0
C1034 C 0.58325 0.88871 0.97912 0.0
C1035 C 0.58494 0.88625 0.91262 0.0
H1036 H 0.57157 0.90157 0.05494 0.0
H1037 H 0.59033 0.88182 1.01266 0.0
S1038 S 0.56185 0.90649 0.78414 0.0
N1039 N 0.55481 0.91416 0.85149 0.0
N1040 N 0.57586 0.89372 0.80585 0.0
C1041 C 0.57541 0.89536 0.87081 0.0
C1042 C 0.56389 0.90635 0.89554 0.0
C1043 C 0.14603 0.68195 0.99985 0.0
C1044 C 0.13748 0.66302 0.95906 0.0
C1045 C 0.1573 0.70403 0.97501 0.0
C1046 C 0.1597 0.70798 0.90841 0.0
H1047 H 0.1446 0.67969 0.05147 0.0
H1048 H 0.1641 0.7181 1.00817 0.0
S1049 S 0.13976 0.66427 0.7811 0.0
N1050 N 0.1322 0.64976 0.84883 0.0
N1051 N 0.15234 0.69112 0.80211 0.0
C1052 C 0.15073 0.68921 0.86711 0.0
C1053 C 0.1399 0.66677 0.89244 0.0
C1054 C 0.35015 0.48549 0.92382 0.0
C1055 C 0.33846 0.46201 0.91399 0.0
C1056 C 0.37263 0.49687 0.94529 0.0
C1057 C 0.38407 0.48512 0.95979 0.0
H1058 H 0.34202 0.49524 0.91365 0.0
H1059 H 0.38097 0.51497 0.9518 0.0
S1060 S 0.36091 0.42348 0.94333 0.0
N1061 N 0.34009 0.42742 0.9198 0.0
N1062 N 0.38194 0.44865 0.9631 0.0
C1063 C 0.37248 0.46161 0.95102 0.0
C1064 C 0.3498 0.4501 0.9273 0.0
C1065 C 0.12753 0.46211 0.44585 0.0
C1066 C 0.13925 0.48555 0.4568 0.0
C1067 C 0.1387 0.45101 0.42232 0.0
C1068 C 0.16213 0.46279 0.41126 0.0
H1069 H 0.10954 0.45235 0.45457 0.0
H1070 H 0.12898 0.43302 0.41353 0.0
S1071 S 0.20064 0.5242 0.43367 0.0
N1072 N 0.1756 0.52012 0.45447 0.0
N1073 N 0.19664 0.49917 0.41314 0.0
C1074 C 0.17407 0.48614 0.42299 0.0
C1075 C 0.16262 0.49753 0.44497 0.0
C1076 C 0.56745 0.66713 0.39971 0.0
C1077 C 0.5655 0.66272 0.46611 0.0
C1078 C 0.57898 0.68937 0.37609 0.0
C1079 C 0.58823 0.70799 0.41803 0.0
H1080 H 0.56001 0.6533 0.36578 0.0
H1081 H 0.57996 0.692 0.3246 0.0
S1082 S 0.58754 0.70556 0.5959 0.0
N1083 N 0.5742 0.67886 0.57337 0.0
N1084 N 0.59478 0.72054 0.52898 0.0
C1085 C 0.58635 0.70381 0.48443 0.0
C1086 C 0.57528 0.6812 0.50845 0.0
C1087 C 0.37352 0.88632 0.44796 0.0
C1088 C 0.38519 0.90971 0.45943 0.0
C1089 C 0.35099 0.87508 0.42696 0.0
C1090 C 0.33946 0.88688 0.41465 0.0
H1091 H 0.38171 0.87652 0.45647 0.0
H1092 H 0.34268 0.85704 0.41912 0.0
S1093 S 0.36252 0.94834 0.43588 0.0
N1094 N 0.38345 0.94428 0.45741 0.0
N1095 N 0.34148 0.92332 0.41503 0.0
C1096 C 0.35102 0.91032 0.42502 0.0
C1097 C 0.37377 0.92168 0.44824 0.0
C1098 C 0.35503 0.19892 0.1786 0.0
C1099 C 0.33706 0.17735 0.19392 0.0
C1100 C 0.37728 0.20316 0.17414 0.0
C1101 C 0.38269 0.18605 0.18495 0.0
H1102 H 0.3519 0.21267 0.16911 0.0
H1103 H 0.39036 0.22011 0.16204 0.0
S1104 S 0.34199 0.12669 0.2289 0.0
N1105 N 0.32634 0.13867 0.22154 0.0
N1106 N 0.36806 0.14668 0.21315 0.0
C1107 C 0.36492 0.16442 0.20088 0.0
C1108 C 0.3422 0.16008 0.20541 0.0
C1109 C 0.84134 0.18218 0.1696 0.0
C1110 C 0.85848 0.20476 0.17925 0.0
C1111 C 0.84558 0.16419 0.17519 0.0
C1112 C 0.86716 0.16787 0.19082 0.0
H1113 H 0.82435 0.17825 0.15776 0.0
H1114 H 0.83177 0.14724 0.16689 0.0
S1115 S 0.91802 0.22378 0.22186 0.0
N1116 N 0.89797 0.22971 0.2057 0.0
N1117 N 0.90599 0.19611 0.21638 0.0
C1118 C 0.88451 0.1904 0.20066 0.0
C1119 C 0.88018 0.20874 0.19476 0.0
C1120 C 0.84087 0.68022 0.20128 0.0
C1121 C 0.84434 0.66246 0.18259 0.0
C1122 C 0.85892 0.70244 0.20647 0.0
C1123 C 0.88135 0.70799 0.19317 0.0
H1124 H 0.82406 0.67699 0.21257 0.0
H1125 H 0.85515 0.71538 0.221 0.0
S1126 S 0.8997 0.66785 0.14078 0.0
N1127 N 0.87213 0.6521 0.14965 0.0
N1128 N 0.90588 0.69372 0.15951 0.0
C1129 C 0.88509 0.69041 0.17424 0.0
C1130 C 0.86669 0.66775 0.16887 0.0
C1131 C 0.21506 0.36802 0.36153 0.0
C1132 C 0.19782 0.37337 0.35287 0.0
C1133 C 0.2108 0.34576 0.35682 0.0
C1134 C 0.18907 0.32774 0.34321 0.0
H1135 H 0.23214 0.38115 0.3722 0.0
H1136 H 0.22466 0.34268 0.36468 0.0
S1137 S 0.138 0.33255 0.314 0.0
N1138 N 0.15815 0.35864 0.32849 0.0
N1139 N 0.15008 0.31694 0.31949 0.0
C1140 C 0.17166 0.33284 0.33382 0.0
C1141 C 0.17602 0.35555 0.33875 0.0
C1142 C 0.68944 0.83075 0.34217 0.0
C1143 C 0.67173 0.83406 0.36274 0.0
C1144 C 0.71158 0.8489 0.33609 0.0
C1145 C 0.71712 0.87125 0.35031 0.0
H1146 H 0.6862 0.81402 0.32997 0.0
H1147 H 0.72447 0.84526 0.32005 0.0
S1148 S 0.67715 0.88914 0.40803 0.0
N1149 N 0.66145 0.8616 0.39873 0.0
N1150 N 0.70292 0.89551 0.38717 0.0
C1151 C 0.69961 0.87482 0.37125 0.0
C1152 C 0.67703 0.85632 0.37756 0.0
C1153 C 0.19116 0.83177 0.37338 0.0
C1154 C 0.21377 0.84901 0.36486 0.0
C1155 C 0.17317 0.83606 0.36876 0.0
C1156 C 0.17692 0.85781 0.35527 0.0
H1157 H 0.1872 0.81465 0.38344 0.0
H1158 H 0.15619 0.82216 0.37593 0.0
S1159 S 0.23295 0.90904 0.32854 0.0
N1160 N 0.23882 0.8888 0.34225 0.0
N1161 N 0.20525 0.89694 0.3334 0.0
C1162 C 0.19949 0.87527 0.34681 0.0
C1163 C 0.2178 0.87088 0.35172 0.0
C1164 C 0.69981 0.83563 0.8661 0.0
C1165 C 0.71746 0.85671 0.84563 0.0
C1166 C 0.67764 0.83151 0.87225 0.0
C1167 C 0.672 0.84827 0.85825 0.0
H1168 H 0.70313 0.82217 0.8781 0.0
H1169 H 0.66479 0.81493 0.88816 0.0
S1170 S 0.71178 0.90629 0.80114 0.0
N1171 N 0.72758 0.89456 0.81016 0.0
N1172 N 0.68604 0.88676 0.82187 0.0
C1173 C 0.68945 0.86942 0.83749 0.0
C1174 C 0.71207 0.87363 0.83108 0.0
C1175 C 0.21368 0.85533 0.85998 0.0
C1176 C 0.19671 0.83274 0.84933 0.0
C1177 C 0.20929 0.87322 0.85499 0.0
C1178 C 0.18769 0.86942 0.83921 0.0
H1179 H 0.23065 0.85936 0.87252 0.0
H1180 H 0.22294 0.89015 0.86453 0.0
S1181 S 0.13737 0.81359 0.804 0.0
N1182 N 0.15746 0.80773 0.82048 0.0
N1183 N 0.14914 0.8412 0.81106 0.0
C1184 C 0.17056 0.84694 0.82768 0.0
C1185 C 0.17506 0.82869 0.8328 0.0
C1186 C 0.21598 0.35747 0.85139 0.0
C1187 C 0.21212 0.37531 0.86597 0.0
C1188 C 0.19813 0.33512 0.84767 0.0
C1189 C 0.17554 0.32948 0.8585 0.0
H1190 H 0.23291 0.36077 0.84177 0.0
H1191 H 0.20218 0.32214 0.83593 0.0
S1192 S 0.15629 0.36978 0.90133 0.0
N1193 N 0.18388 0.38567 0.89341 0.0
N1194 N 0.15049 0.34376 0.88638 0.0
C1195 C 0.17144 0.34712 0.87395 0.0
C1196 C 0.18965 0.36994 0.87773 0.0
C1197 C 0.84397 0.68964 0.67483 0.0
C1198 C 0.86554 0.70747 0.69095 0.0
C1199 C 0.83971 0.66741 0.66869 0.0
C1200 C 0.85681 0.66191 0.6782 0.0
H1201 H 0.83019 0.69283 0.6666 0.0
H1202 H 0.82273 0.6544 0.65652 0.0
S1203 S 0.91631 0.70224 0.72179 0.0
N1204 N 0.90432 0.71793 0.71673 0.0
N1205 N 0.89624 0.67632 0.70499 0.0
C1206 C 0.87849 0.67956 0.69415 0.0
C1207 C 0.88285 0.70222 0.70065 0.0
C1208 C 0.35493 0.16433 0.67721 0.0
C1209 C 0.33705 0.16803 0.69274 0.0
C1210 C 0.37721 0.18228 0.67249 0.0
C1211 C 0.38274 0.20484 0.68323 0.0
H1212 H 0.35171 0.14742 0.6678 0.0
H1213 H 0.39022 0.17833 0.66029 0.0
S1214 S 0.34229 0.22376 0.72755 0.0
N1215 N 0.32654 0.19614 0.7204 0.0
N1216 N 0.3683 0.22972 0.71151 0.0
C1217 C 0.36505 0.2088 0.69931 0.0
C1218 C 0.34231 0.19049 0.70411 0.0
C1219 C 0.85895 0.16505 0.70521 0.0
C1220 C 0.88149 0.18196 0.69342 0.0
C1221 C 0.84103 0.16941 0.70047 0.0
C1222 C 0.84474 0.19091 0.68372 0.0
H1223 H 0.855 0.14814 0.71819 0.0
H1224 H 0.82412 0.15578 0.7105 0.0
S1225 S 0.9005 0.24115 0.6467 0.0
N1226 N 0.9064 0.22111 0.66348 0.0
N1227 N 0.8729 0.22938 0.65444 0.0
C1228 C 0.86721 0.20802 0.67157 0.0
C1229 C 0.88548 0.20355 0.67651 0.0
C1230 C 0.03361 0.50271 0.51979 0.0
C1231 C 0.05158 0.52444 0.50593 0.0
C1232 C 1.01132 0.49839 0.52459 0.0
C1233 C 1.0059 0.51557 0.51579 0.0
H1234 H 0.03674 0.48889 0.52776 0.0
H1235 H 0.99823 0.48131 0.53543 0.0
S1236 S 0.04658 0.57538 0.47634 0.0
N1237 N 0.06226 0.56338 0.48188 0.0
N1238 N 1.02051 0.55519 0.49106 0.0
C1239 C 1.02368 0.53737 0.50146 0.0
C1240 C 0.04641 0.5418 0.49643 0.0
C1241 C 0.5444 0.53983 0.53504 0.0
C1242 C 0.52319 0.53634 0.51586 0.0
C1243 C 0.54861 0.52182 0.54022 0.0
C1244 C 0.53181 0.49941 0.52642 0.0
H1245 H 0.5579 0.55662 0.54678 0.0
H1246 H 0.56529 0.5256 0.55517 0.0
S1247 S 0.47343 0.48103 0.4725 0.0
N1248 N 0.48516 0.50856 0.48182 0.0
N1249 N 0.49313 0.47488 0.49167 0.0
C1250 C 0.51052 0.49565 0.50694 0.0
C1251 C 0.50622 0.51401 0.50158 0.0
C1252 C 0.52658 0.03501 0.53263 0.0
C1253 C 0.54909 0.04046 0.52152 0.0
C1254 C 0.50851 1.01283 0.52675 0.0
C1255 C 0.51206 0.99498 0.50963 0.0
H1256 H 0.52273 0.04799 0.54614 0.0
H1257 H 0.49164 1.00967 0.53668 0.0
S1258 S 0.56762 1.00008 0.47285 0.0
N1259 N 0.57377 0.02601 0.49086 0.0
N1260 N 0.53997 0.98443 0.47983 0.0
C1261 C 0.53447 1.00017 0.49769 0.0
C1262 C 0.5529 0.02281 0.50367 0.0
C1263 C 0.51303 0.02385 1.01515 0.0
C1264 C 0.5344 0.04152 0.03341 0.0
C1265 C 0.5086 1.00155 1.01049 0.0
C1266 C 0.52532 0.9958 0.02388 0.0
H1267 H 0.49958 0.02724 1.00364 0.0
H1268 H 0.49182 0.9887 0.99609 0.0
S1269 S 0.584 0.03559 0.07586 0.0
N1270 N 0.57246 0.05156 0.06649 0.0
N1271 N 0.56407 1.00975 0.05758 0.0
C1272 C 0.54675 1.01326 0.04262 0.0
C1273 C 0.55128 0.03602 0.04748 0.0
C1274 C 1.02254 0.49846 1.01308 0.0
C1275 C 1.00462 0.50212 0.02829 0.0
C1276 C 0.04484 0.51642 1.00913 0.0
C1277 C 0.05033 0.53894 0.02035 0.0
H1278 H 1.01935 0.48159 1.00314 0.0
H1279 H 0.05788 0.51251 0.99692 0.0
S1280 S 1.00977 0.5577 0.06481 0.0
N1281 N 0.99403 0.53011 0.0567 0.0
N1282 N 0.03583 0.56372 0.04923 0.0
C1283 C 0.03261 0.54285 0.03641 0.0
C1284 C 1.00985 0.52453 0.04043 0.0
C1285 C 0.55022 0.53615 1.00859 0.0
C1286 C 0.54669 0.51477 0.02608 0.0
C1287 C 0.53214 0.54025 1.00256 0.0
C1288 C 0.50963 0.52316 1.0136 0.0
H1289 H 0.56711 0.5499 0.99908 0.0
H1290 H 0.53595 0.55708 0.98922 0.0
S1291 S 0.49102 0.46417 0.0616 0.0
N1292 N 0.51868 0.47622 0.05511 0.0
N1293 N 0.48492 0.48397 0.04357 0.0
C1294 C 0.50581 0.50168 0.03107 0.0
C1295 C 0.52423 0.49749 0.03743 0.0
loop_
_geom_bond_atom_site_label_1
_geom_bond_atom_site_label_2
_geom_bond_distance
_geom_bond_site_symmetry_2
_ccdc_geom_bond_type
O0 Cd1 2.223 . S
O0 C8 1.315 . S
Cd1 O0 2.223 . S
Cd1 O4 2.297 . S
Cd1 O5 2.439 . S
Cd1 O11 2.240 . S
Cd2 O3 2.240 . S
Cd2 O10 2.223 . S
Cd2 O12 2.297 . S
Cd2 O13 2.439 . S
O3 Cd2 2.240 . S
O3 C8 1.279 . S
O4 Cd1 2.297 . S
O4 C6 1.247 . S
O5 Cd1 2.439 . S
O5 C6 1.208 . S
C6 O4 1.247 . S
C6 O5 1.208 . S
C7 O12 1.247 . S
C7 O13 1.208 . S
C8 O0 1.315 . S
C8 O3 1.279 . S
C9 O10 1.315 . S
C9 O11 1.279 . S
O10 Cd2 2.223 . S
O10 C9 1.315 . S
O11 Cd1 2.240 . S
O11 C9 1.279 . S
O12 Cd2 2.297 . S
O12 C7 1.247 . S
O13 Cd2 2.439 . S
O13 C7 1.208 . S
O14 Cd15 2.223 . S
O14 C22 1.315 . S
Cd15 O14 2.223 . S
Cd15 O18 2.297 . S
Cd15 O19 2.439 . S
Cd15 O25 2.240 . S
Cd16 O17 2.240 . S
Cd16 O24 2.223 . S
Cd16 O26 2.297 . S
Cd16 O27 2.439 . S
O17 Cd16 2.240 . S
O17 C22 1.279 . S
O18 Cd15 2.297 . S
O18 C20 1.247 . S
O19 Cd15 2.439 . S
O19 C20 1.208 . S
C20 O18 1.247 . S
C20 O19 1.208 . S
C21 O26 1.247 . S
C21 O27 1.208 . S
C22 O14 1.315 . S
C22 O17 1.279 . S
C23 O24 1.315 . S
C23 O25 1.279 . S
O24 Cd16 2.223 . S
O24 C23 1.315 . S
O25 Cd15 2.240 . S
O25 C23 1.279 . S
O26 Cd16 2.297 . S
O26 C21 1.247 . S
O27 Cd16 2.439 . S
O27 C21 1.208 . S
O28 Cd29 2.223 . S
O28 C36 1.315 . S
Cd29 O28 2.223 . S
Cd29 O32 2.297 . S
Cd29 O33 2.439 . S
Cd29 O39 2.240 . S
Cd30 O31 2.240 . S
Cd30 O38 2.223 . S
Cd30 O40 2.297 . S
Cd30 O41 2.439 . S
O31 Cd30 2.240 . S
O31 C36 1.279 . S
O32 Cd29 2.297 . S
O32 C34 1.247 . S
O33 Cd29 2.439 . S
O33 C34 1.208 . S
C34 O32 1.247 . S
C34 O33 1.208 . S
C35 O40 1.247 . S
C35 O41 1.208 . S
C36 O28 1.315 . S
C36 O31 1.279 . S
C37 O38 1.315 . S
C37 O39 1.279 . S
O38 Cd30 2.223 . S
O38 C37 1.315 . S
O39 Cd29 2.240 . S
O39 C37 1.279 . S
O40 Cd30 2.297 . S
O40 C35 1.247 . S
O41 Cd30 2.439 . S
O41 C35 1.208 . S
O42 Cd43 2.223 . S
O42 C50 1.315 . S
Cd43 O42 2.223 . S
Cd43 O46 2.297 . S
Cd43 O47 2.439 . S
Cd43 O53 2.240 . S
Cd44 O45 2.240 . S
Cd44 O52 2.223 . S
Cd44 O54 2.297 . S
Cd44 O55 2.439 . S
O45 Cd44 2.240 . S
O45 C50 1.279 . S
O46 Cd43 2.297 . S
O46 C48 1.247 . S
O47 Cd43 2.439 . S
O47 C48 1.208 . S
C48 O46 1.247 . S
C48 O47 1.208 . S
C49 O54 1.247 . S
C49 O55 1.208 . S
C50 O42 1.315 . S
C50 O45 1.279 . S
C51 O52 1.315 . S
C51 O53 1.279 . S
O52 Cd44 2.223 . S
O52 C51 1.315 . S
O53 Cd43 2.240 . S
O53 C51 1.279 . S
O54 Cd44 2.297 . S
O54 C49 1.247 . S
O55 Cd44 2.439 . S
O55 C49 1.208 . S
O56 Cd57 2.223 . S
O56 C64 1.315 . S
Cd57 O56 2.223 . S
Cd57 O60 2.297 . S
Cd57 O61 2.439 . S
Cd57 O67 2.240 . S
Cd58 O59 2.240 . S
Cd58 O66 2.223 . S
Cd58 O68 2.297 . S
Cd58 O69 2.439 . S
O59 Cd58 2.240 . S
O59 C64 1.279 . S
O60 Cd57 2.297 . S
O60 C62 1.247 . S
O61 Cd57 2.439 . S
O61 C62 1.208 . S
C62 O60 1.247 . S
C62 O61 1.208 . S
C63 O68 1.247 . S
C63 O69 1.208 . S
C64 O56 1.315 . S
C64 O59 1.279 . S
C65 O66 1.315 . S
C65 O67 1.279 . S
O66 Cd58 2.223 . S
O66 C65 1.315 . S
O67 Cd57 2.240 . S
O67 C65 1.279 . S
O68 Cd58 2.297 . S
O68 C63 1.247 . S
O69 Cd58 2.439 . S
O69 C63 1.208 . S
O70 Cd71 2.223 . S
O70 C78 1.315 . S
Cd71 O70 2.223 . S
Cd71 O74 2.297 . S
Cd71 O75 2.439 . S
Cd71 O81 2.240 . S
Cd72 O73 2.240 . S
Cd72 O80 2.223 . S
Cd72 O82 2.297 . S
Cd72 O83 2.439 . S
O73 Cd72 2.240 . S
O73 C78 1.279 . S
O74 Cd71 2.297 . S
O74 C76 1.247 . S
O75 Cd71 2.439 . S
O75 C76 1.208 . S
C76 O74 1.247 . S
C76 O75 1.208 . S
C77 O82 1.247 . S
C77 O83 1.208 . S
C78 O70 1.315 . S
C78 O73 1.279 . S
C79 O80 1.315 . S
C79 O81 1.279 . S
O80 Cd72 2.223 . S
O80 C79 1.315 . S
O81 Cd71 2.240 . S
O81 C79 1.279 . S
O82 Cd72 2.297 . S
O82 C77 1.247 . S
O83 Cd72 2.439 . S
O83 C77 1.208 . S
O84 Cd85 2.223 . S
O84 C92 1.315 . S
Cd85 O84 2.223 . S
Cd85 O88 2.297 . S
Cd85 O89 2.439 . S
Cd85 O95 2.240 . S
Cd86 O87 2.240 . S
Cd86 O94 2.223 . S
Cd86 O96 2.297 . S
Cd86 O97 2.439 . S
O87 Cd86 2.240 . S
O87 C92 1.279 . S
O88 Cd85 2.297 . S
O88 C90 1.247 . S
O89 Cd85 2.439 . S
O89 C90 1.208 . S
C90 O88 1.247 . S
C90 O89 1.208 . S
C91 O96 1.247 . S
C91 O97 1.208 . S
C92 O84 1.315 . S
C92 O87 1.279 . S
C93 O94 1.315 . S
C93 O95 1.279 . S
O94 Cd86 2.223 . S
O94 C93 1.315 . S
O95 Cd85 2.240 . S
O95 C93 1.279 . S
O96 Cd86 2.297 . S
O96 C91 1.247 . S
O97 Cd86 2.439 . S
O97 C91 1.208 . S
O98 Cd99 2.223 . S
O98 C106 1.315 . S
Cd99 O98 2.223 . S
Cd99 O102 2.297 . S
Cd99 O103 2.439 . S
Cd99 O109 2.240 . S
Cd100 O101 2.240 . S
Cd100 O108 2.223 . S
Cd100 O110 2.297 . S
Cd100 O111 2.439 . S
O101 Cd100 2.240 . S
O101 C106 1.279 . S
O102 Cd99 2.297 . S
O102 C104 1.247 . S
O103 Cd99 2.439 . S
O103 C104 1.208 . S
C104 O102 1.247 . S
C104 O103 1.208 . S
C105 O110 1.247 . S
C105 O111 1.208 . S
C106 O98 1.315 . S
C106 O101 1.279 . S
C107 O108 1.315 . S
C107 O109 1.279 . S
O108 Cd100 2.223 . S
O108 C107 1.315 . S
O109 Cd99 2.240 . S
O109 C107 1.279 . S
O110 Cd100 2.297 . S
O110 C105 1.247 . S
O111 Cd100 2.439 . S
O111 C105 1.208 . S
O112 Cd113 2.223 . S
O112 C120 1.315 . S
Cd113 O112 2.223 . S
Cd113 O116 2.297 . S
Cd113 O117 2.439 . S
Cd113 O123 2.240 . S
Cd114 O115 2.240 . S
Cd114 O122 2.223 . S
Cd114 O124 2.297 . S
Cd114 O125 2.439 . S
O115 Cd114 2.240 . S
O115 C120 1.279 . S
O116 Cd113 2.297 . S
O116 C118 1.247 . S
O117 Cd113 2.439 . S
O117 C118 1.208 . S
C118 O116 1.247 . S
C118 O117 1.208 . S
C119 O124 1.247 . S
C119 O125 1.208 . S
C120 O112 1.315 . S
C120 O115 1.279 . S
C121 O122 1.315 . S
C121 O123 1.279 . S
O122 Cd114 2.223 . S
O122 C121 1.315 . S
O123 Cd113 2.240 . S
O123 C121 1.279 . S
O124 Cd114 2.297 . S
O124 C119 1.247 . S
O125 Cd114 2.439 . S
O125 C119 1.208 . S
O126 Cd127 2.223 . S
O126 C134 1.315 . S
Cd127 O126 2.223 . S
Cd127 O130 2.297 . S
Cd127 O131 2.439 . S
Cd127 O137 2.240 . S
Cd128 O129 2.240 . S
Cd128 O136 2.223 . S
Cd128 O138 2.297 . S
Cd128 O139 2.439 . S
O129 Cd128 2.240 . S
O129 C134 1.279 . S
O130 Cd127 2.297 . S
O130 C132 1.247 . S
O131 Cd127 2.439 . S
O131 C132 1.208 . S
C132 O130 1.247 . S
C132 O131 1.208 . S
C133 O138 1.247 . S
C133 O139 1.208 . S
C134 O126 1.315 . S
C134 O129 1.279 . S
C135 O136 1.315 . S
C135 O137 1.279 . S
O136 Cd128 2.223 . S
O136 C135 1.315 . S
O137 Cd127 2.240 . S
O137 C135 1.279 . S
O138 Cd128 2.297 . S
O138 C133 1.247 . S
O139 Cd128 2.439 . S
O139 C133 1.208 . S
O140 Cd141 2.223 . S
O140 C148 1.315 . S
Cd141 O140 2.223 . S
Cd141 O144 2.297 . S
Cd141 O145 2.439 . S
Cd141 O151 2.240 . S
Cd142 O143 2.240 . S
Cd142 O150 2.223 . S
Cd142 O152 2.297 . S
Cd142 O153 2.439 . S
O143 Cd142 2.240 . S
O143 C148 1.279 . S
O144 Cd141 2.297 . S
O144 C146 1.247 . S
O145 Cd141 2.439 . S
O145 C146 1.208 . S
C146 O144 1.247 . S
C146 O145 1.208 . S
C147 O152 1.247 . S
C147 O153 1.208 . S
C148 O140 1.315 . S
C148 O143 1.279 . S
C149 O150 1.315 . S
C149 O151 1.279 . S
O150 Cd142 2.223 . S
O150 C149 1.315 . S
O151 Cd141 2.240 . S
O151 C149 1.279 . S
O152 Cd142 2.297 . S
O152 C147 1.247 . S
O153 Cd142 2.439 . S
O153 C147 1.208 . S
O154 Cd155 2.223 . S
O154 C162 1.315 . S
Cd155 O154 2.223 . S
Cd155 O158 2.297 . S
Cd155 O159 2.439 . S
Cd155 O165 2.240 . S
Cd156 O157 2.240 . S
Cd156 O164 2.223 . S
Cd156 O166 2.297 . S
Cd156 O167 2.439 . S
O157 Cd156 2.240 . S
O157 C162 1.279 . S
O158 Cd155 2.297 . S
O158 C160 1.247 . S
O159 Cd155 2.439 . S
O159 C160 1.208 . S
C160 O158 1.247 . S
C160 O159 1.208 . S
C161 O166 1.247 . S
C161 O167 1.208 . S
C162 O154 1.315 . S
C162 O157 1.279 . S
C163 O164 1.315 . S
C163 O165 1.279 . S
O164 Cd156 2.223 . S
O164 C163 1.315 . S
O165 Cd155 2.240 . S
O165 C163 1.279 . S
O166 Cd156 2.297 . S
O166 C161 1.247 . S
O167 Cd156 2.439 . S
O167 C161 1.208 . S
O168 Cd169 2.223 . S
O168 C176 1.315 . S
Cd169 O168 2.223 . S
Cd169 O172 2.297 . S
Cd169 O173 2.439 . S
Cd169 O179 2.240 . S
Cd170 O171 2.240 . S
Cd170 O178 2.223 . S
Cd170 O180 2.297 . S
Cd170 O181 2.439 . S
O171 Cd170 2.240 . S
O171 C176 1.279 . S
O172 Cd169 2.297 . S
O172 C174 1.247 . S
O173 Cd169 2.439 . S
O173 C174 1.208 . S
C174 O172 1.247 . S
C174 O173 1.208 . S
C175 O180 1.247 . S
C175 O181 1.208 . S
C176 O168 1.315 . S
C176 O171 1.279 . S
C177 O178 1.315 . S
C177 O179 1.279 . S
O178 Cd170 2.223 . S
O178 C177 1.315 . S
O179 Cd169 2.240 . S
O179 C177 1.279 . S
O180 Cd170 2.297 . S
O180 C175 1.247 . S
O181 Cd170 2.439 . S
O181 C175 1.208 . S
O182 Cd183 2.223 . S
O182 C190 1.315 . S
Cd183 O182 2.223 . S
Cd183 O186 2.297 . S
Cd183 O187 2.439 . S
Cd183 O193 2.240 . S
Cd184 O185 2.240 . S
Cd184 O192 2.223 . S
Cd184 O194 2.297 . S
Cd184 O195 2.439 . S
O185 Cd184 2.240 . S
O185 C190 1.279 . S
O186 Cd183 2.297 . S
O186 C188 1.247 . S
O187 Cd183 2.439 . S
O187 C188 1.208 . S
C188 O186 1.247 . S
C188 O187 1.208 . S
C189 O194 1.247 . S
C189 O195 1.208 . S
C190 O182 1.315 . S
C190 O185 1.279 . S
C191 O192 1.315 . S
C191 O193 1.279 . S
O192 Cd184 2.223 . S
O192 C191 1.315 . S
O193 Cd183 2.240 . S
O193 C191 1.279 . S
O194 Cd184 2.297 . S
O194 C189 1.247 . S
O195 Cd184 2.439 . S
O195 C189 1.208 . S
O196 Cd197 2.223 . S
O196 C204 1.315 . S
Cd197 O196 2.223 . S
Cd197 O200 2.297 . S
Cd197 O201 2.439 . S
Cd197 O207 2.240 . S
Cd198 O199 2.240 . S
Cd198 O206 2.223 . S
Cd198 O208 2.297 . S
Cd198 O209 2.439 . S
O199 Cd198 2.240 . S
O199 C204 1.279 . S
O200 Cd197 2.297 . S
O200 C202 1.247 . S
O201 Cd197 2.439 . S
O201 C202 1.208 . S
C202 O200 1.247 . S
C202 O201 1.208 . S
C203 O208 1.247 . S
C203 O209 1.208 . S
C204 O196 1.315 . S
C204 O199 1.279 . S
C205 O206 1.315 . S
C205 O207 1.279 . S
O206 Cd198 2.223 . S
O206 C205 1.315 . S
O207 Cd197 2.240 . S
O207 C205 1.279 . S
O208 Cd198 2.297 . S
O208 C203 1.247 . S
O209 Cd198 2.439 . S
O209 C203 1.208 . S
O210 Cd211 2.223 . S
O210 C218 1.315 . S
Cd211 O210 2.223 . S
Cd211 O214 2.297 . S
Cd211 O215 2.439 . S
Cd211 O221 2.240 . S
Cd212 O213 2.240 . S
Cd212 O220 2.223 . S
Cd212 O222 2.297 . S
Cd212 O223 2.439 . S
O213 Cd212 2.240 . S
O213 C218 1.279 . S
O214 Cd211 2.297 . S
O214 C216 1.247 . S
O215 Cd211 2.439 . S
O215 C216 1.208 . S
C216 O214 1.247 . S
C216 O215 1.208 . S
C217 O222 1.247 . S
C217 O223 1.208 . S
C218 O210 1.315 . S
C218 O213 1.279 . S
C219 O220 1.315 . S
C219 O221 1.279 . S
O220 Cd212 2.223 . S
O220 C219 1.315 . S
O221 Cd211 2.240 . S
O221 C219 1.279 . S
O222 Cd212 2.297 . S
O222 C217 1.247 . S
O223 Cd212 2.439 . S
O223 C217 1.208 . S
O224 Cd225 2.223 . S
O224 C232 1.315 . S
Cd225 O224 2.223 . S
Cd225 O228 2.297 . S
Cd225 O229 2.439 . S
Cd225 O235 2.240 . S
Cd226 O227 2.240 . S
Cd226 O234 2.223 . S
Cd226 O236 2.297 . S
Cd226 O237 2.439 . S
O227 Cd226 2.240 . S
O227 C232 1.279 . S
O228 Cd225 2.297 . S
O228 C230 1.247 . S
O229 Cd225 2.439 . S
O229 C230 1.208 . S
C230 O228 1.247 . S
C230 O229 1.208 . S
C231 O236 1.247 . S
C231 O237 1.208 . S
C232 O224 1.315 . S
C232 O227 1.279 . S
C233 O234 1.315 . S
C233 O235 1.279 . S
O234 Cd226 2.223 . S
O234 C233 1.315 . S
O235 Cd225 2.240 . S
O235 C233 1.279 . S
O236 Cd226 2.297 . S
O236 C231 1.247 . S
O237 Cd226 2.439 . S
O237 C231 1.208 . S
O238 Cd239 2.223 . S
O238 C246 1.315 . S
Cd239 O238 2.223 . S
Cd239 O242 2.297 . S
Cd239 O243 2.439 . S
Cd239 O249 2.240 . S
Cd240 O241 2.240 . S
Cd240 O248 2.223 . S
Cd240 O250 2.297 . S
Cd240 O251 2.439 . S
O241 Cd240 2.240 . S
O241 C246 1.279 . S
O242 Cd239 2.297 . S
O242 C244 1.247 . S
O243 Cd239 2.439 . S
O243 C244 1.208 . S
C244 O242 1.247 . S
C244 O243 1.208 . S
C245 O250 1.247 . S
C245 O251 1.208 . S
C246 O238 1.315 . S
C246 O241 1.279 . S
C247 O248 1.315 . S
C247 O249 1.279 . S
O248 Cd240 2.223 . S
O248 C247 1.315 . S
O249 Cd239 2.240 . S
O249 C247 1.279 . S
O250 Cd240 2.297 . S
O250 C245 1.247 . S
O251 Cd240 2.439 . S
O251 C245 1.208 . S
O252 Cd253 2.223 . S
O252 C260 1.315 . S
Cd253 O252 2.223 . S
Cd253 O256 2.297 . S
Cd253 O257 2.439 . S
Cd253 O263 2.240 . S
Cd254 O255 2.240 . S
Cd254 O262 2.223 . S
Cd254 O264 2.297 1_554 S
Cd254 O265 2.439 1_554 S
O255 Cd254 2.240 . S
O255 C260 1.279 . S
O256 Cd253 2.297 . S
O256 C258 1.247 . S
O257 Cd253 2.439 . S
O257 C258 1.208 . S
C258 O256 1.247 . S
C258 O257 1.208 . S
C259 O264 1.247 . S
C259 O265 1.208 . S
C260 O252 1.315 . S
C260 O255 1.279 . S
C261 O262 1.315 . S
C261 O263 1.279 . S
O262 Cd254 2.223 . S
O262 C261 1.315 . S
O263 Cd253 2.240 . S
O263 C261 1.279 . S
O264 Cd254 2.297 1_556 S
O264 C259 1.247 . S
O265 Cd254 2.439 1_556 S
O265 C259 1.208 . S
O266 Cd267 2.223 . S
O266 C274 1.315 . S
Cd267 O266 2.223 . S
Cd267 O270 2.297 . S
Cd267 O271 2.439 . S
Cd267 O277 2.240 . S
Cd268 O269 2.240 . S
Cd268 O276 2.223 . S
Cd268 O278 2.297 1_554 S
Cd268 O279 2.439 1_554 S
O269 Cd268 2.240 . S
O269 C274 1.279 . S
O270 Cd267 2.297 . S
O270 C272 1.247 . S
O271 Cd267 2.439 . S
O271 C272 1.208 . S
C272 O270 1.247 . S
C272 O271 1.208 . S
C273 O278 1.247 . S
C273 O279 1.208 . S
C274 O266 1.315 . S
C274 O269 1.279 . S
C275 O276 1.315 . S
C275 O277 1.279 . S
O276 Cd268 2.223 . S
O276 C275 1.315 . S
O277 Cd267 2.240 . S
O277 C275 1.279 . S
O278 Cd268 2.297 1_556 S
O278 C273 1.247 . S
O279 Cd268 2.439 1_556 S
O279 C273 1.208 . S
O280 Cd281 2.223 . S
O280 C288 1.315 . S
Cd281 O280 2.223 . S
Cd281 O284 2.297 . S
Cd281 O285 2.439 . S
Cd281 O291 2.240 . S
Cd282 O283 2.240 . S
Cd282 O290 2.223 . S
Cd282 O292 2.297 1_554 S
Cd282 O293 2.439 1_554 S
O283 Cd282 2.240 . S
O283 C288 1.279 . S
O284 Cd281 2.297 . S
O284 C286 1.247 . S
O285 Cd281 2.439 . S
O285 C286 1.208 . S
C286 O284 1.247 . S
C286 O285 1.208 . S
C287 O292 1.247 . S
C287 O293 1.208 . S
C288 O280 1.315 . S
C288 O283 1.279 . S
C289 O290 1.315 . S
C289 O291 1.279 . S
O290 Cd282 2.223 . S
O290 C289 1.315 . S
O291 Cd281 2.240 . S
O291 C289 1.279 . S
O292 Cd282 2.297 1_556 S
O292 C287 1.247 . S
O293 Cd282 2.439 1_556 S
O293 C287 1.208 . S
O294 Cd295 2.223 1_556 S
O294 C302 1.315 . S
Cd295 O294 2.223 1_554 S
Cd295 O298 2.297 . S
Cd295 O299 2.439 . S
Cd295 O305 2.240 . S
Cd296 O297 2.240 . S
Cd296 O304 2.223 . S
Cd296 O306 2.297 . S
Cd296 O307 2.439 . S
O297 Cd296 2.240 . S
O297 C302 1.279 1_554 S
O298 Cd295 2.297 . S
O298 C300 1.247 . S
O299 Cd295 2.439 . S
O299 C300 1.208 . S
C300 O298 1.247 . S
C300 O299 1.208 . S
C301 O306 1.247 . S
C301 O307 1.208 . S
C302 O294 1.315 . S
C302 O297 1.279 1_556 S
C303 O304 1.315 . S
C303 O305 1.279 . S
O304 Cd296 2.223 . S
O304 C303 1.315 . S
O305 Cd295 2.240 . S
O305 C303 1.279 . S
O306 Cd296 2.297 . S
O306 C301 1.247 . S
O307 Cd296 2.439 . S
O307 C301 1.208 . S
O308 Cd309 2.223 1_556 S
O308 C316 1.315 . S
Cd309 O308 2.223 1_554 S
Cd309 O312 2.297 . S
Cd309 O313 2.439 . S
Cd309 O319 2.240 . S
Cd310 O311 2.240 . S
Cd310 O318 2.223 . S
Cd310 O320 2.297 . S
Cd310 O321 2.439 . S
O311 Cd310 2.240 . S
O311 C316 1.279 1_554 S
O312 Cd309 2.297 . S
O312 C314 1.247 . S
O313 Cd309 2.439 . S
O313 C314 1.208 . S
C314 O312 1.247 . S
C314 O313 1.208 . S
C315 O320 1.247 . S
C315 O321 1.208 . S
C316 O308 1.315 . S
C316 O311 1.279 1_556 S
C317 O318 1.315 . S
C317 O319 1.279 . S
O318 Cd310 2.223 . S
O318 C317 1.315 . S
O319 Cd309 2.240 . S
O319 C317 1.279 . S
O320 Cd310 2.297 . S
O320 C315 1.247 . S
O321 Cd310 2.439 . S
O321 C315 1.208 . S
O322 Cd323 2.223 1_556 S
O322 C330 1.315 . S
Cd323 O322 2.223 1_554 S
Cd323 O326 2.297 . S
Cd323 O327 2.439 . S
Cd323 O333 2.240 . S
Cd324 O325 2.240 . S
Cd324 O332 2.223 . S
Cd324 O334 2.297 . S
Cd324 O335 2.439 . S
O325 Cd324 2.240 . S
O325 C330 1.279 1_554 S
O326 Cd323 2.297 . S
O326 C328 1.247 . S
O327 Cd323 2.439 . S
O327 C328 1.208 . S
C328 O326 1.247 . S
C328 O327 1.208 . S
C329 O334 1.247 . S
C329 O335 1.208 . S
C330 O322 1.315 . S
C330 O325 1.279 1_556 S
C331 O332 1.315 . S
C331 O333 1.279 . S
O332 Cd324 2.223 . S
O332 C331 1.315 . S
O333 Cd323 2.240 . S
O333 C331 1.279 . S
O334 Cd324 2.297 . S
O334 C329 1.247 . S
O335 Cd324 2.439 . S
O335 C329 1.208 . S
O336 Cd337 2.223 . S
O336 C344 1.315 . S
Cd337 O336 2.223 . S
Cd337 O340 2.297 . S
Cd337 O341 2.439 . S
Cd337 O347 2.240 . S
Cd338 O339 2.240 . S
Cd338 O346 2.223 . S
Cd338 O348 2.297 1_556 S
Cd338 O349 2.439 1_556 S
O339 Cd338 2.240 . S
O339 C344 1.279 . S
O340 Cd337 2.297 . S
O340 C342 1.247 . S
O341 Cd337 2.439 . S
O341 C342 1.208 . S
C342 O340 1.247 . S
C342 O341 1.208 . S
C343 O348 1.247 . S
C343 O349 1.208 . S
C344 O336 1.315 . S
C344 O339 1.279 . S
C345 O346 1.315 . S
C345 O347 1.279 . S
O346 Cd338 2.223 . S
O346 C345 1.315 . S
O347 Cd337 2.240 . S
O347 C345 1.279 . S
O348 Cd338 2.297 1_554 S
O348 C343 1.247 . S
O349 Cd338 2.439 1_554 S
O349 C343 1.208 . S
O350 Cd351 2.223 . S
O350 C358 1.315 . S
Cd351 O350 2.223 . S
Cd351 O354 2.297 . S
Cd351 O355 2.439 . S
Cd351 O361 2.240 . S
Cd352 O353 2.240 . S
Cd352 O360 2.223 . S
Cd352 O362 2.297 1_556 S
Cd352 O363 2.439 1_556 S
O353 Cd352 2.240 . S
O353 C358 1.279 . S
O354 Cd351 2.297 . S
O354 C356 1.247 . S
O355 Cd351 2.439 . S
O355 C356 1.208 . S
C356 O354 1.247 . S
C356 O355 1.208 . S
C357 O362 1.247 . S
C357 O363 1.208 . S
C358 O350 1.315 . S
C358 O353 1.279 . S
C359 O360 1.315 . S
C359 O361 1.279 . S
O360 Cd352 2.223 . S
O360 C359 1.315 . S
O361 Cd351 2.240 . S
O361 C359 1.279 . S
O362 Cd352 2.297 1_554 S
O362 C357 1.247 . S
O363 Cd352 2.439 1_554 S
O363 C357 1.208 . S
O364 Cd365 2.223 . S
O364 C372 1.315 . S
Cd365 O364 2.223 . S
Cd365 O368 2.297 . S
Cd365 O369 2.439 . S
Cd365 O375 2.240 . S
Cd366 O367 2.240 . S
Cd366 O374 2.223 . S
Cd366 O376 2.297 1_556 S
Cd366 O377 2.439 1_556 S
O367 Cd366 2.240 . S
O367 C372 1.279 . S
O368 Cd365 2.297 . S
O368 C370 1.247 . S
O369 Cd365 2.439 . S
O369 C370 1.208 . S
C370 O368 1.247 . S
C370 O369 1.208 . S
C371 O376 1.247 . S
C371 O377 1.208 . S
C372 O364 1.315 . S
C372 O367 1.279 . S
C373 O374 1.315 . S
C373 O375 1.279 . S
O374 Cd366 2.223 . S
O374 C373 1.315 . S
O375 Cd365 2.240 . S
O375 C373 1.279 . S
O376 Cd366 2.297 1_554 S
O376 C371 1.247 . S
O377 Cd366 2.439 1_554 S
O377 C371 1.208 . S
O378 Cd379 2.223 1_554 S
O378 C386 1.315 . S
Cd379 O378 2.223 1_556 S
Cd379 O382 2.297 . S
Cd379 O383 2.439 . S
Cd379 O389 2.240 . S
Cd380 O381 2.240 . S
Cd380 O388 2.223 . S
Cd380 O390 2.297 . S
Cd380 O391 2.439 . S
O381 Cd380 2.240 . S
O381 C386 1.279 1_556 S
O382 Cd379 2.297 . S
O382 C384 1.247 . S
O383 Cd379 2.439 . S
O383 C384 1.208 . S
C384 O382 1.247 . S
C384 O383 1.208 . S
C385 O390 1.247 . S
C385 O391 1.208 . S
C386 O378 1.315 . S
C386 O381 1.279 1_554 S
C387 O388 1.315 . S
C387 O389 1.279 . S
O388 Cd380 2.223 . S
O388 C387 1.315 . S
O389 Cd379 2.240 . S
O389 C387 1.279 . S
O390 Cd380 2.297 . S
O390 C385 1.247 . S
O391 Cd380 2.439 . S
O391 C385 1.208 . S
O392 Cd393 2.223 1_554 S
O392 C400 1.315 . S
Cd393 O392 2.223 1_556 S
Cd393 O396 2.297 . S
Cd393 O397 2.439 . S
Cd393 O403 2.240 . S
Cd394 O395 2.240 . S
Cd394 O402 2.223 . S
Cd394 O404 2.297 . S
Cd394 O405 2.439 . S
O395 Cd394 2.240 . S
O395 C400 1.279 1_556 S
O396 Cd393 2.297 . S
O396 C398 1.247 . S
O397 Cd393 2.439 . S
O397 C398 1.208 . S
C398 O396 1.247 . S
C398 O397 1.208 . S
C399 O404 1.247 . S
C399 O405 1.208 . S
C400 O392 1.315 . S
C400 O395 1.279 1_554 S
C401 O402 1.315 . S
C401 O403 1.279 . S
O402 Cd394 2.223 . S
O402 C401 1.315 . S
O403 Cd393 2.240 . S
O403 C401 1.279 . S
O404 Cd394 2.297 . S
O404 C399 1.247 . S
O405 Cd394 2.439 . S
O405 C399 1.208 . S
O406 Cd407 2.223 1_554 S
O406 C414 1.315 . S
Cd407 O406 2.223 1_556 S
Cd407 O410 2.297 . S
Cd407 O411 2.439 . S
Cd407 O417 2.240 . S
Cd408 O409 2.240 . S
Cd408 O416 2.223 . S
Cd408 O418 2.297 . S
Cd408 O419 2.439 . S
O409 Cd408 2.240 . S
O409 C414 1.279 1_556 S
O410 Cd407 2.297 . S
O410 C412 1.247 . S
O411 Cd407 2.439 . S
O411 C412 1.208 . S
C412 O410 1.247 . S
C412 O411 1.208 . S
C413 O418 1.247 . S
C413 O419 1.208 . S
C414 O406 1.315 . S
C414 O409 1.279 1_554 S
C415 O416 1.315 . S
C415 O417 1.279 . S
O416 Cd408 2.223 . S
O416 C415 1.315 . S
O417 Cd407 2.240 . S
O417 C415 1.279 . S
O418 Cd408 2.297 . S
O418 C413 1.247 . S
O419 Cd408 2.439 . S
O419 C413 1.208 . S
O420 Cd421 2.223 . S
O420 C428 1.315 . S
Cd421 O420 2.223 . S
Cd421 O424 2.297 . S
Cd421 O425 2.439 . S
Cd421 O431 2.240 . S
Cd422 O423 2.240 . S
Cd422 O430 2.223 . S
Cd422 O432 2.297 . S
Cd422 O433 2.439 . S
O423 Cd422 2.240 . S
O423 C428 1.279 . S
O424 Cd421 2.297 . S
O424 C426 1.247 . S
O425 Cd421 2.439 . S
O425 C426 1.208 . S
C426 O424 1.247 . S
C426 O425 1.208 . S
C427 O432 1.247 . S
C427 O433 1.208 . S
C428 O420 1.315 . S
C428 O423 1.279 . S
C429 O430 1.315 . S
C429 O431 1.279 . S
O430 Cd422 2.223 . S
O430 C429 1.315 . S
O431 Cd421 2.240 . S
O431 C429 1.279 . S
O432 Cd422 2.297 . S
O432 C427 1.247 . S
O433 Cd422 2.439 . S
O433 C427 1.208 . S
O434 Cd435 2.223 . S
O434 C442 1.315 . S
Cd435 O434 2.223 . S
Cd435 O438 2.297 . S
Cd435 O439 2.439 . S
Cd435 O445 2.240 . S
Cd436 O437 2.240 . S
Cd436 O444 2.223 . S
Cd436 O446 2.297 . S
Cd436 O447 2.439 . S
O437 Cd436 2.240 . S
O437 C442 1.279 . S
O438 Cd435 2.297 . S
O438 C440 1.247 . S
O439 Cd435 2.439 . S
O439 C440 1.208 . S
C440 O438 1.247 . S
C440 O439 1.208 . S
C441 O446 1.247 . S
C441 O447 1.208 . S
C442 O434 1.315 . S
C442 O437 1.279 . S
C443 O444 1.315 . S
C443 O445 1.279 . S
O444 Cd436 2.223 . S
O444 C443 1.315 . S
O445 Cd435 2.240 . S
O445 C443 1.279 . S
O446 Cd436 2.297 . S
O446 C441 1.247 . S
O447 Cd436 2.439 . S
O447 C441 1.208 . S
O448 Cd449 2.223 . S
O448 C456 1.315 . S
Cd449 O448 2.223 . S
Cd449 O452 2.297 . S
Cd449 O453 2.439 . S
Cd449 O459 2.240 . S
Cd450 O451 2.240 . S
Cd450 O458 2.223 . S
Cd450 O460 2.297 . S
Cd450 O461 2.439 . S
O451 Cd450 2.240 . S
O451 C456 1.279 . S
O452 Cd449 2.297 . S
O452 C454 1.247 . S
O453 Cd449 2.439 . S
O453 C454 1.208 . S
C454 O452 1.247 . S
C454 O453 1.208 . S
C455 O460 1.247 . S
C455 O461 1.208 . S
C456 O448 1.315 . S
C456 O451 1.279 . S
C457 O458 1.315 . S
C457 O459 1.279 . S
O458 Cd450 2.223 . S
O458 C457 1.315 . S
O459 Cd449 2.240 . S
O459 C457 1.279 . S
O460 Cd450 2.297 . S
O460 C455 1.247 . S
O461 Cd450 2.439 . S
O461 C455 1.208 . S
O462 Cd463 2.223 . S
O462 C470 1.315 . S
Cd463 O462 2.223 . S
Cd463 O466 2.297 . S
Cd463 O467 2.439 . S
Cd463 O473 2.240 . S
Cd464 O465 2.240 . S
Cd464 O472 2.223 . S
Cd464 O474 2.297 . S
Cd464 O475 2.439 . S
O465 Cd464 2.240 . S
O465 C470 1.279 . S
O466 Cd463 2.297 . S
O466 C468 1.247 . S
O467 Cd463 2.439 . S
O467 C468 1.208 . S
C468 O466 1.247 . S
C468 O467 1.208 . S
C469 O474 1.247 . S
C469 O475 1.208 . S
C470 O462 1.315 . S
C470 O465 1.279 . S
C471 O472 1.315 . S
C471 O473 1.279 . S
O472 Cd464 2.223 . S
O472 C471 1.315 . S
O473 Cd463 2.240 . S
O473 C471 1.279 . S
O474 Cd464 2.297 . S
O474 C469 1.247 . S
O475 Cd464 2.439 . S
O475 C469 1.208 . S
O476 Cd477 2.223 . S
O476 C484 1.315 . S
Cd477 O476 2.223 . S
Cd477 O480 2.297 . S
Cd477 O481 2.439 . S
Cd477 O487 2.240 . S
Cd478 O479 2.240 . S
Cd478 O486 2.223 . S
Cd478 O488 2.297 . S
Cd478 O489 2.439 . S
O479 Cd478 2.240 . S
O479 C484 1.279 . S
O480 Cd477 2.297 . S
O480 C482 1.247 . S
O481 Cd477 2.439 . S
O481 C482 1.208 . S
C482 O480 1.247 . S
C482 O481 1.208 . S
C483 O488 1.247 . S
C483 O489 1.208 . S
C484 O476 1.315 . S
C484 O479 1.279 . S
C485 O486 1.315 . S
C485 O487 1.279 . S
O486 Cd478 2.223 . S
O486 C485 1.315 . S
O487 Cd477 2.240 . S
O487 C485 1.279 . S
O488 Cd478 2.297 . S
O488 C483 1.247 . S
O489 Cd478 2.439 . S
O489 C483 1.208 . S
O490 Cd491 2.223 . S
O490 C498 1.315 . S
Cd491 O490 2.223 . S
Cd491 O494 2.297 . S
Cd491 O495 2.439 . S
Cd491 O501 2.240 . S
Cd492 O493 2.240 . S
Cd492 O500 2.223 . S
Cd492 O502 2.297 . S
Cd492 O503 2.439 . S
O493 Cd492 2.240 . S
O493 C498 1.279 . S
O494 Cd491 2.297 . S
O494 C496 1.247 . S
O495 Cd491 2.439 . S
O495 C496 1.208 . S
C496 O494 1.247 . S
C496 O495 1.208 . S
C497 O502 1.247 . S
C497 O503 1.208 . S
C498 O490 1.315 . S
C498 O493 1.279 . S
C499 O500 1.315 . S
C499 O501 1.279 . S
O500 Cd492 2.223 . S
O500 C499 1.315 . S
O501 Cd491 2.240 . S
O501 C499 1.279 . S
O502 Cd492 2.297 . S
O502 C497 1.247 . S
O503 Cd492 2.439 . S
O503 C497 1.208 . S
C504 C505 1.369 . S
C504 C506 1.419 1_556 S
C504 H508 0.930 . S
C505 C504 1.369 . S
C505 C514 1.429 . S
C506 C504 1.419 1_554 S
C506 C507 1.363 . S
C506 H509 0.929 . S
C507 C506 1.363 . S
C507 C513 1.428 . S
H508 C504 0.930 . S
H509 C506 0.929 . S
S510 N511 1.613 . S
S510 N512 1.610 1_556 S
N511 S510 1.613 . S
N511 C514 1.350 . S
N512 S510 1.610 1_554 S
N512 C513 1.351 . S
C513 C507 1.428 . S
C513 N512 1.351 . S
C513 C514 1.434 1_554 S
C514 C505 1.429 . S
C514 N511 1.350 . S
C514 C513 1.434 1_556 S
C515 C516 1.369 . S
C515 C517 1.419 1_556 S
C515 H519 0.930 . S
C516 C515 1.369 . S
C516 C525 1.429 . S
C517 C515 1.419 1_554 S
C517 C518 1.363 . S
C517 H520 0.929 . S
C518 C517 1.363 . S
C518 C524 1.428 . S
H519 C515 0.930 . S
H520 C517 0.929 . S
S521 N522 1.613 . S
S521 N523 1.610 1_556 S
N522 S521 1.613 . S
N522 C525 1.350 . S
N523 S521 1.610 1_554 S
N523 C524 1.351 . S
C524 C518 1.428 . S
C524 N523 1.351 . S
C524 C525 1.434 1_554 S
C525 C516 1.429 . S
C525 N522 1.350 . S
C525 C524 1.434 1_556 S
C526 C527 1.369 . S
C526 C528 1.419 1_554 S
C526 H530 0.930 . S
C527 C526 1.369 . S
C527 C536 1.429 . S
C528 C526 1.419 1_556 S
C528 C529 1.363 . S
C528 H531 0.929 . S
C529 C528 1.363 . S
C529 C535 1.428 . S
H530 C526 0.930 . S
H531 C528 0.929 . S
S532 N533 1.613 . S
S532 N534 1.610 1_554 S
N533 S532 1.613 . S
N533 C536 1.350 . S
N534 S532 1.610 1_556 S
N534 C535 1.351 . S
C535 C529 1.428 . S
C535 N534 1.351 . S
C535 C536 1.434 1_556 S
C536 C527 1.429 . S
C536 N533 1.350 . S
C536 C535 1.434 1_554 S
C537 C538 1.369 . S
C537 C539 1.419 . S
C537 H541 0.930 . S
C538 C537 1.369 . S
C538 C547 1.429 . S
C539 C537 1.419 . S
C539 C540 1.363 . S
C539 H542 0.929 . S
C540 C539 1.363 . S
C540 C546 1.428 . S
H541 C537 0.930 . S
H542 C539 0.929 . S
S543 N544 1.613 . S
S543 N545 1.610 . S
N544 S543 1.613 . S
N544 C547 1.350 . S
N545 S543 1.610 . S
N545 C546 1.351 . S
C546 C540 1.428 . S
C546 N545 1.351 . S
C546 C547 1.434 . S
C547 C538 1.429 . S
C547 N544 1.350 . S
C547 C546 1.434 . S
C548 C549 1.369 . S
C548 C550 1.419 . S
C548 H552 0.930 . S
C549 C548 1.369 . S
C549 C558 1.429 . S
C550 C548 1.419 . S
C550 C551 1.363 . S
C550 H553 0.929 . S
C551 C550 1.363 . S
C551 C557 1.428 . S
H552 C548 0.930 . S
H553 C550 0.929 . S
S554 N555 1.613 . S
S554 N556 1.610 . S
N555 S554 1.613 . S
N555 C558 1.350 . S
N556 S554 1.610 . S
N556 C557 1.351 . S
C557 C551 1.428 . S
C557 N556 1.351 . S
C557 C558 1.434 . S
C558 C549 1.429 . S
C558 N555 1.350 . S
C558 C557 1.434 . S
C559 C560 1.369 . S
C559 C561 1.419 . S
C559 H563 0.930 . S
C560 C559 1.369 . S
C560 C569 1.429 . S
C561 C559 1.419 . S
C561 C562 1.363 . S
C561 H564 0.929 . S
C562 C561 1.363 . S
C562 C568 1.428 . S
H563 C559 0.930 . S
H564 C561 0.929 . S
S565 N566 1.613 . S
S565 N567 1.610 . S
N566 S565 1.613 . S
N566 C569 1.350 . S
N567 S565 1.610 . S
N567 C568 1.351 . S
C568 C562 1.428 . S
C568 N567 1.351 . S
C568 C569 1.434 . S
C569 C560 1.429 . S
C569 N566 1.350 . S
C569 C568 1.434 . S
C570 C571 1.369 . S
C570 C572 1.419 1_554 S
C570 H574 0.930 . S
C571 C570 1.369 . S
C571 C580 1.429 . S
C572 C570 1.419 1_556 S
C572 C573 1.363 . S
C572 H575 0.929 . S
C573 C572 1.363 . S
C573 C579 1.428 . S
H574 C570 0.930 . S
H575 C572 0.929 . S
S576 N577 1.613 1_556 S
S576 N578 1.610 . S
N577 S576 1.613 1_554 S
N577 C580 1.350 . S
N578 S576 1.610 . S
N578 C579 1.351 . S
C579 C573 1.428 . S
C579 N578 1.351 . S
C579 C580 1.434 1_556 S
C580 C571 1.429 . S
C580 N577 1.350 . S
C580 C579 1.434 1_554 S
C581 C582 1.369 . S
C581 C583 1.419 1_554 S
C581 H585 0.930 . S
C582 C581 1.369 . S
C582 C591 1.429 . S
C583 C581 1.419 1_556 S
C583 C584 1.363 . S
C583 H586 0.929 . S
C584 C583 1.363 . S
C584 C590 1.428 . S
H585 C581 0.930 . S
H586 C583 0.929 . S
S587 N588 1.613 . S
S587 N589 1.610 1_554 S
N588 S587 1.613 . S
N588 C591 1.350 . S
N589 S587 1.610 1_556 S
N589 C590 1.351 . S
C590 C584 1.428 . S
C590 N589 1.351 . S
C590 C591 1.434 1_556 S
C591 C582 1.429 . S
C591 N588 1.350 . S
C591 C590 1.434 1_554 S
C592 C593 1.369 . S
C592 C594 1.419 1_556 S
C592 H596 0.930 . S
C593 C592 1.369 . S
C593 C602 1.429 . S
C594 C592 1.419 1_554 S
C594 C595 1.363 . S
C594 H597 0.929 . S
C595 C594 1.363 . S
C595 C601 1.428 . S
H596 C592 0.930 . S
H597 C594 0.929 . S
S598 N599 1.613 1_554 S
S598 N600 1.610 . S
N599 S598 1.613 1_556 S
N599 C602 1.350 . S
N600 S598 1.610 . S
N600 C601 1.351 . S
C601 C595 1.428 . S
C601 N600 1.351 . S
C601 C602 1.434 1_554 S
C602 C593 1.429 . S
C602 N599 1.350 . S
C602 C601 1.434 1_556 S
C603 C604 1.369 . S
C603 C605 1.419 . S
C603 H607 0.930 . S
C604 C603 1.369 . S
C604 C613 1.429 . S
C605 C603 1.419 . S
C605 C606 1.363 . S
C605 H608 0.929 . S
C606 C605 1.363 . S
C606 C612 1.428 . S
H607 C603 0.930 . S
H608 C605 0.929 . S
S609 N610 1.613 . S
S609 N611 1.610 . S
N610 S609 1.613 . S
N610 C613 1.350 . S
N611 S609 1.610 . S
N611 C612 1.351 . S
C612 C606 1.428 . S
C612 N611 1.351 . S
C612 C613 1.434 . S
C613 C604 1.429 . S
C613 N610 1.350 . S
C613 C612 1.434 . S
C614 C615 1.369 . S
C614 C616 1.419 . S
C614 H618 0.930 . S
C615 C614 1.369 . S
C615 C624 1.429 . S
C616 C614 1.419 . S
C616 C617 1.363 . S
C616 H619 0.929 . S
C617 C616 1.363 . S
C617 C623 1.428 . S
H618 C614 0.930 . S
H619 C616 0.929 . S
S620 N621 1.613 . S
S620 N622 1.610 . S
N621 S620 1.613 . S
N621 C624 1.350 . S
N622 S620 1.610 . S
N622 C623 1.351 . S
C623 C617 1.428 . S
C623 N622 1.351 . S
C623 C624 1.434 . S
C624 C615 1.429 . S
C624 N621 1.350 . S
C624 C623 1.434 . S
C625 C626 1.369 . S
C625 C627 1.419 . S
C625 H629 0.930 . S
C626 C625 1.369 . S
C626 C635 1.429 . S
C627 C625 1.419 . S
C627 C628 1.363 . S
C627 H630 0.929 . S
C628 C627 1.363 . S
C628 C634 1.428 . S
H629 C625 0.930 . S
H630 C627 0.929 . S
S631 N632 1.613 . S
S631 N633 1.610 . S
N632 S631 1.613 . S
N632 C635 1.350 . S
N633 S631 1.610 . S
N633 C634 1.351 . S
C634 C628 1.428 . S
C634 N633 1.351 . S
C634 C635 1.434 . S
C635 C626 1.429 . S
C635 N632 1.350 . S
C635 C634 1.434 . S
C636 C637 1.369 . S
C636 C638 1.419 . S
C636 H640 0.930 . S
C637 C636 1.369 . S
C637 C646 1.429 . S
C638 C636 1.419 . S
C638 C639 1.363 . S
C638 H641 0.929 . S
C639 C638 1.363 . S
C639 C645 1.428 . S
H640 C636 0.930 . S
H641 C638 0.929 . S
S642 N643 1.613 . S
S642 N644 1.610 . S
N643 S642 1.613 . S
N643 C646 1.350 . S
N644 S642 1.610 . S
N644 C645 1.351 . S
C645 C639 1.428 . S
C645 N644 1.351 . S
C645 C646 1.434 . S
C646 C637 1.429 . S
C646 N643 1.350 . S
C646 C645 1.434 . S
C647 C648 1.369 . S
C647 C649 1.419 . S
C647 H651 0.930 . S
C648 C647 1.369 . S
C648 C657 1.429 . S
C649 C647 1.419 . S
C649 C650 1.363 . S
C649 H652 0.929 . S
C650 C649 1.363 . S
C650 C656 1.428 . S
H651 C647 0.930 . S
H652 C649 0.929 . S
S653 N654 1.613 . S
S653 N655 1.610 . S
N654 S653 1.613 . S
N654 C657 1.350 . S
N655 S653 1.610 . S
N655 C656 1.351 . S
C656 C650 1.428 . S
C656 N655 1.351 . S
C656 C657 1.434 . S
C657 C648 1.429 . S
C657 N654 1.350 . S
C657 C656 1.434 . S
C658 C659 1.369 . S
C658 C660 1.419 . S
C658 H662 0.930 . S
C659 C658 1.369 . S
C659 C668 1.429 . S
C660 C658 1.419 . S
C660 C661 1.363 . S
C660 H663 0.929 . S
C661 C660 1.363 . S
C661 C667 1.428 . S
H662 C658 0.930 . S
H663 C660 0.929 . S
S664 N665 1.613 . S
S664 N666 1.610 . S
N665 S664 1.613 . S
N665 C668 1.350 . S
N666 S664 1.610 . S
N666 C667 1.351 . S
C667 C661 1.428 . S
C667 N666 1.351 . S
C667 C668 1.434 . S
C668 C659 1.429 . S
C668 N665 1.350 . S
C668 C667 1.434 . S
C669 C670 1.369 . S
C669 C671 1.419 . S
C669 H673 0.930 . S
C670 C669 1.369 . S
C670 C679 1.429 . S
C671 C669 1.419 . S
C671 C672 1.363 . S
C671 H674 0.929 . S
C672 C671 1.363 . S
C672 C678 1.428 . S
H673 C669 0.930 . S
H674 C671 0.929 . S
S675 N676 1.613 . S
S675 N677 1.610 . S
N676 S675 1.613 . S
N676 C679 1.350 . S
N677 S675 1.610 . S
N677 C678 1.351 . S
C678 C672 1.428 . S
C678 N677 1.351 . S
C678 C679 1.434 . S
C679 C670 1.429 . S
C679 N676 1.350 . S
C679 C678 1.434 . S
C680 C681 1.369 . S
C680 C682 1.419 . S
C680 H684 0.930 . S
C681 C680 1.369 . S
C681 C690 1.429 . S
C682 C680 1.419 . S
C682 C683 1.363 . S
C682 H685 0.929 . S
C683 C682 1.363 . S
C683 C689 1.428 . S
H684 C680 0.930 . S
H685 C682 0.929 . S
S686 N687 1.613 . S
S686 N688 1.610 . S
N687 S686 1.613 . S
N687 C690 1.350 . S
N688 S686 1.610 . S
N688 C689 1.351 . S
C689 C683 1.428 . S
C689 N688 1.351 . S
C689 C690 1.434 . S
C690 C681 1.429 . S
C690 N687 1.350 . S
C690 C689 1.434 . S
C691 C692 1.369 . S
C691 C693 1.419 . S
C691 H695 0.930 . S
C692 C691 1.369 . S
C692 C701 1.429 . S
C693 C691 1.419 . S
C693 C694 1.363 . S
C693 H696 0.929 . S
C694 C693 1.363 . S
C694 C700 1.428 . S
H695 C691 0.930 . S
H696 C693 0.929 . S
S697 N698 1.613 . S
S697 N699 1.610 . S
N698 S697 1.613 . S
N698 C701 1.350 . S
N699 S697 1.610 . S
N699 C700 1.351 . S
C700 C694 1.428 . S
C700 N699 1.351 . S
C700 C701 1.434 . S
C701 C692 1.429 . S
C701 N698 1.350 . S
C701 C700 1.434 . S
C702 C703 1.369 . S
C702 C704 1.419 . S
C702 H706 0.930 . S
C703 C702 1.369 . S
C703 C712 1.429 . S
C704 C702 1.419 . S
C704 C705 1.363 . S
C704 H707 0.929 . S
C705 C704 1.363 . S
C705 C711 1.428 . S
H706 C702 0.930 . S
H707 C704 0.929 . S
S708 N709 1.613 . S
S708 N710 1.610 . S
N709 S708 1.613 . S
N709 C712 1.350 . S
N710 S708 1.610 . S
N710 C711 1.351 . S
C711 C705 1.428 . S
C711 N710 1.351 . S
C711 C712 1.434 . S
C712 C703 1.429 . S
C712 N709 1.350 . S
C712 C711 1.434 . S
C713 C714 1.369 . S
C713 C715 1.419 . S
C713 H717 0.930 . S
C714 C713 1.369 . S
C714 C723 1.429 . S
C715 C713 1.419 . S
C715 C716 1.363 . S
C715 H718 0.929 . S
C716 C715 1.363 . S
C716 C722 1.428 . S
H717 C713 0.930 . S
H718 C715 0.929 . S
S719 N720 1.613 . S
S719 N721 1.610 . S
N720 S719 1.613 . S
N720 C723 1.350 . S
N721 S719 1.610 . S
N721 C722 1.351 . S
C722 C716 1.428 . S
C722 N721 1.351 . S
C722 C723 1.434 . S
C723 C714 1.429 . S
C723 N720 1.350 . S
C723 C722 1.434 . S
C724 C725 1.369 . S
C724 C726 1.419 . S
C724 H728 0.930 . S
C725 C724 1.369 . S
C725 C734 1.429 . S
C726 C724 1.419 . S
C726 C727 1.363 . S
C726 H729 0.929 . S
C727 C726 1.363 . S
C727 C733 1.428 . S
H728 C724 0.930 . S
H729 C726 0.929 . S
S730 N731 1.613 . S
S730 N732 1.610 . S
N731 S730 1.613 . S
N731 C734 1.350 . S
N732 S730 1.610 . S
N732 C733 1.351 . S
C733 C727 1.428 . S
C733 N732 1.351 . S
C733 C734 1.434 . S
C734 C725 1.429 . S
C734 N731 1.350 . S
C734 C733 1.434 . S
C735 C736 1.369 . S
C735 C737 1.419 . S
C735 H739 0.930 . S
C736 C735 1.369 . S
C736 C745 1.429 . S
C737 C735 1.419 . S
C737 C738 1.363 . S
C737 H740 0.929 . S
C738 C737 1.363 . S
C738 C744 1.428 . S
H739 C735 0.930 . S
H740 C737 0.929 . S
S741 N742 1.613 . S
S741 N743 1.610 . S
N742 S741 1.613 . S
N742 C745 1.350 . S
N743 S741 1.610 . S
N743 C744 1.351 . S
C744 C738 1.428 . S
C744 N743 1.351 . S
C744 C745 1.434 . S
C745 C736 1.429 . S
C745 N742 1.350 . S
C745 C744 1.434 . S
C746 C747 1.369 . S
C746 C748 1.419 . S
C746 H750 0.930 . S
C747 C746 1.369 . S
C747 C756 1.429 . S
C748 C746 1.419 . S
C748 C749 1.363 . S
C748 H751 0.929 . S
C749 C748 1.363 . S
C749 C755 1.428 . S
H750 C746 0.930 . S
H751 C748 0.929 . S
S752 N753 1.613 . S
S752 N754 1.610 . S
N753 S752 1.613 . S
N753 C756 1.350 . S
N754 S752 1.610 . S
N754 C755 1.351 . S
C755 C749 1.428 . S
C755 N754 1.351 . S
C755 C756 1.434 . S
C756 C747 1.429 . S
C756 N753 1.350 . S
C756 C755 1.434 . S
C757 C758 1.369 . S
C757 C759 1.419 . S
C757 H761 0.930 . S
C758 C757 1.369 . S
C758 C767 1.429 . S
C759 C757 1.419 . S
C759 C760 1.363 . S
C759 H762 0.929 . S
C760 C759 1.363 . S
C760 C766 1.428 . S
H761 C757 0.930 . S
H762 C759 0.929 . S
S763 N764 1.613 . S
S763 N765 1.610 . S
N764 S763 1.613 . S
N764 C767 1.350 . S
N765 S763 1.610 . S
N765 C766 1.351 . S
C766 C760 1.428 . S
C766 N765 1.351 . S
C766 C767 1.434 . S
C767 C758 1.429 . S
C767 N764 1.350 . S
C767 C766 1.434 . S
C768 C769 1.369 . S
C768 C770 1.419 . S
C768 H772 0.930 . S
C769 C768 1.369 . S
C769 C778 1.429 . S
C770 C768 1.419 . S
C770 C771 1.363 . S
C770 H773 0.929 . S
C771 C770 1.363 . S
C771 C777 1.428 . S
H772 C768 0.930 . S
H773 C770 0.929 . S
S774 N775 1.613 . S
S774 N776 1.610 . S
N775 S774 1.613 . S
N775 C778 1.350 . S
N776 S774 1.610 . S
N776 C777 1.351 . S
C777 C771 1.428 . S
C777 N776 1.351 . S
C777 C778 1.434 . S
C778 C769 1.429 . S
C778 N775 1.350 . S
C778 C777 1.434 . S
C779 C780 1.369 . S
C779 C781 1.419 . S
C779 H783 0.930 . S
C780 C779 1.369 . S
C780 C789 1.429 . S
C781 C779 1.419 . S
C781 C782 1.363 . S
C781 H784 0.929 . S
C782 C781 1.363 . S
C782 C788 1.428 . S
H783 C779 0.930 . S
H784 C781 0.929 . S
S785 N786 1.613 . S
S785 N787 1.610 . S
N786 S785 1.613 . S
N786 C789 1.350 . S
N787 S785 1.610 . S
N787 C788 1.351 . S
C788 C782 1.428 . S
C788 N787 1.351 . S
C788 C789 1.434 . S
C789 C780 1.429 . S
C789 N786 1.350 . S
C789 C788 1.434 . S
C790 C791 1.369 . S
C790 C792 1.419 . S
C790 H794 0.930 . S
C791 C790 1.369 . S
C791 C800 1.429 . S
C792 C790 1.419 . S
C792 C793 1.363 . S
C792 H795 0.929 . S
C793 C792 1.363 . S
C793 C799 1.428 . S
H794 C790 0.930 . S
H795 C792 0.929 . S
S796 N797 1.613 . S
S796 N798 1.610 . S
N797 S796 1.613 . S
N797 C800 1.350 . S
N798 S796 1.610 . S
N798 C799 1.351 . S
C799 C793 1.428 . S
C799 N798 1.351 . S
C799 C800 1.434 . S
C800 C791 1.429 . S
C800 N797 1.350 . S
C800 C799 1.434 . S
C801 C802 1.369 . S
C801 C803 1.419 . S
C801 H805 0.930 . S
C802 C801 1.369 . S
C802 C811 1.429 . S
C803 C801 1.419 . S
C803 C804 1.363 . S
C803 H806 0.929 . S
C804 C803 1.363 . S
C804 C810 1.428 . S
H805 C801 0.930 . S
H806 C803 0.929 . S
S807 N808 1.613 . S
S807 N809 1.610 . S
N808 S807 1.613 . S
N808 C811 1.350 . S
N809 S807 1.610 . S
N809 C810 1.351 . S
C810 C804 1.428 . S
C810 N809 1.351 . S
C810 C811 1.434 . S
C811 C802 1.429 . S
C811 N808 1.350 . S
C811 C810 1.434 . S
C812 C813 1.369 . S
C812 C814 1.419 . S
C812 H816 0.930 . S
C813 C812 1.369 . S
C813 C822 1.429 . S
C814 C812 1.419 . S
C814 C815 1.363 . S
C814 H817 0.929 . S
C815 C814 1.363 . S
C815 C821 1.428 . S
H816 C812 0.930 . S
H817 C814 0.929 . S
S818 N819 1.613 . S
S818 N820 1.610 . S
N819 S818 1.613 . S
N819 C822 1.350 . S
N820 S818 1.610 . S
N820 C821 1.351 . S
C821 C815 1.428 . S
C821 N820 1.351 . S
C821 C822 1.434 . S
C822 C813 1.429 . S
C822 N819 1.350 . S
C822 C821 1.434 . S
C823 C824 1.369 . S
C823 C825 1.419 . S
C823 H827 0.930 . S
C824 C823 1.369 . S
C824 C833 1.429 . S
C825 C823 1.419 . S
C825 C826 1.363 . S
C825 H828 0.929 . S
C826 C825 1.363 . S
C826 C832 1.428 . S
H827 C823 0.930 . S
H828 C825 0.929 . S
S829 N830 1.613 . S
S829 N831 1.610 . S
N830 S829 1.613 . S
N830 C833 1.350 . S
N831 S829 1.610 . S
N831 C832 1.351 . S
C832 C826 1.428 . S
C832 N831 1.351 . S
C832 C833 1.434 . S
C833 C824 1.429 . S
C833 N830 1.350 . S
C833 C832 1.434 . S
C834 C835 1.369 . S
C834 C836 1.419 . S
C834 H838 0.930 . S
C835 C834 1.369 . S
C835 C844 1.429 . S
C836 C834 1.419 . S
C836 C837 1.363 . S
C836 H839 0.929 . S
C837 C836 1.363 . S
C837 C843 1.428 . S
H838 C834 0.930 . S
H839 C836 0.929 . S
S840 N841 1.613 . S
S840 N842 1.610 . S
N841 S840 1.613 . S
N841 C844 1.350 . S
N842 S840 1.610 . S
N842 C843 1.351 . S
C843 C837 1.428 . S
C843 N842 1.351 . S
C843 C844 1.434 . S
C844 C835 1.429 . S
C844 N841 1.350 . S
C844 C843 1.434 . S
C845 C846 1.369 . S
C845 C847 1.419 . S
C845 H849 0.930 . S
C846 C845 1.369 . S
C846 C855 1.429 . S
C847 C845 1.419 . S
C847 C848 1.363 . S
C847 H850 0.929 . S
C848 C847 1.363 . S
C848 C854 1.428 . S
H849 C845 0.930 . S
H850 C847 0.929 . S
S851 N852 1.613 . S
S851 N853 1.610 . S
N852 S851 1.613 . S
N852 C855 1.350 . S
N853 S851 1.610 . S
N853 C854 1.351 . S
C854 C848 1.428 . S
C854 N853 1.351 . S
C854 C855 1.434 . S
C855 C846 1.429 . S
C855 N852 1.350 . S
C855 C854 1.434 . S
C856 C857 1.369 . S
C856 C858 1.419 . S
C856 H860 0.930 . S
C857 C856 1.369 . S
C857 C866 1.429 . S
C858 C856 1.419 . S
C858 C859 1.363 . S
C858 H861 0.929 . S
C859 C858 1.363 . S
C859 C865 1.428 . S
H860 C856 0.930 . S
H861 C858 0.929 . S
S862 N863 1.613 . S
S862 N864 1.610 . S
N863 S862 1.613 . S
N863 C866 1.350 . S
N864 S862 1.610 . S
N864 C865 1.351 . S
C865 C859 1.428 . S
C865 N864 1.351 . S
C865 C866 1.434 . S
C866 C857 1.429 . S
C866 N863 1.350 . S
C866 C865 1.434 . S
C867 C868 1.369 . S
C867 C869 1.419 . S
C867 H871 0.930 . S
C868 C867 1.369 . S
C868 C877 1.429 . S
C869 C867 1.419 . S
C869 C870 1.363 . S
C869 H872 0.929 . S
C870 C869 1.363 . S
C870 C876 1.428 . S
H871 C867 0.930 . S
H872 C869 0.929 . S
S873 N874 1.613 . S
S873 N875 1.610 . S
N874 S873 1.613 . S
N874 C877 1.350 . S
N875 S873 1.610 . S
N875 C876 1.351 . S
C876 C870 1.428 . S
C876 N875 1.351 . S
C876 C877 1.434 . S
C877 C868 1.429 . S
C877 N874 1.350 . S
C877 C876 1.434 . S
C878 C879 1.369 . S
C878 C880 1.419 . S
C878 H882 0.930 . S
C879 C878 1.369 . S
C879 C888 1.429 . S
C880 C878 1.419 . S
C880 C881 1.363 . S
C880 H883 0.929 . S
C881 C880 1.363 . S
C881 C887 1.428 . S
H882 C878 0.930 . S
H883 C880 0.929 . S
S884 N885 1.613 . S
S884 N886 1.610 . S
N885 S884 1.613 . S
N885 C888 1.350 . S
N886 S884 1.610 . S
N886 C887 1.351 . S
C887 C881 1.428 . S
C887 N886 1.351 . S
C887 C888 1.434 . S
C888 C879 1.429 . S
C888 N885 1.350 . S
C888 C887 1.434 . S
C889 C890 1.369 . S
C889 C891 1.419 . S
C889 H893 0.930 . S
C890 C889 1.369 . S
C890 C899 1.429 . S
C891 C889 1.419 . S
C891 C892 1.363 . S
C891 H894 0.929 . S
C892 C891 1.363 . S
C892 C898 1.428 . S
H893 C889 0.930 . S
H894 C891 0.929 . S
S895 N896 1.613 . S
S895 N897 1.610 . S
N896 S895 1.613 . S
N896 C899 1.350 . S
N897 S895 1.610 . S
N897 C898 1.351 . S
C898 C892 1.428 . S
C898 N897 1.351 . S
C898 C899 1.434 . S
C899 C890 1.429 . S
C899 N896 1.350 . S
C899 C898 1.434 . S
C900 C901 1.369 . S
C900 C902 1.419 . S
C900 H904 0.930 . S
C901 C900 1.369 . S
C901 C910 1.429 . S
C902 C900 1.419 . S
C902 C903 1.363 . S
C902 H905 0.929 . S
C903 C902 1.363 . S
C903 C909 1.428 . S
H904 C900 0.930 . S
H905 C902 0.929 . S
S906 N907 1.613 . S
S906 N908 1.610 . S
N907 S906 1.613 . S
N907 C910 1.350 . S
N908 S906 1.610 . S
N908 C909 1.351 . S
C909 C903 1.428 . S
C909 N908 1.351 . S
C909 C910 1.434 . S
C910 C901 1.429 . S
C910 N907 1.350 . S
C910 C909 1.434 . S
C911 C912 1.369 . S
C911 C913 1.419 1_565 S
C911 H915 0.930 . S
C912 C911 1.369 . S
C912 C921 1.429 . S
C913 C911 1.419 1_545 S
C913 C914 1.363 . S
C913 H916 0.929 . S
C914 C913 1.363 . S
C914 C920 1.428 . S
H915 C911 0.930 . S
H916 C913 0.929 . S
S917 N918 1.613 1_545 S
S917 N919 1.610 . S
N918 S917 1.613 1_565 S
N918 C921 1.350 . S
N919 S917 1.610 . S
N919 C920 1.351 . S
C920 C914 1.428 . S
C920 N919 1.351 . S
C920 C921 1.434 1_545 S
C921 C912 1.429 . S
C921 N918 1.350 . S
C921 C920 1.434 1_565 S
C922 C923 1.369 . S
C922 C924 1.419 1_655 S
C922 H926 0.930 . S
C923 C922 1.369 . S
C923 C932 1.429 . S
C924 C922 1.419 1_455 S
C924 C925 1.363 . S
C924 H927 0.929 . S
C925 C924 1.363 . S
C925 C931 1.428 . S
H926 C922 0.930 . S
H927 C924 0.929 . S
S928 N929 1.613 1_455 S
S928 N930 1.610 . S
N929 S928 1.613 1_655 S
N929 C932 1.350 . S
N930 S928 1.610 . S
N930 C931 1.351 . S
C931 C925 1.428 . S
C931 N930 1.351 . S
C931 C932 1.434 1_455 S
C932 C923 1.429 . S
C932 N929 1.350 . S
C932 C931 1.434 1_655 S
C933 C934 1.369 . S
C933 C935 1.419 . S
C933 H937 0.930 . S
C934 C933 1.369 . S
C934 C943 1.429 . S
C935 C933 1.419 . S
C935 C936 1.363 . S
C935 H938 0.929 . S
C936 C935 1.363 . S
C936 C942 1.428 . S
H937 C933 0.930 . S
H938 C935 0.929 . S
S939 N940 1.613 . S
S939 N941 1.610 . S
N940 S939 1.613 . S
N940 C943 1.350 . S
N941 S939 1.610 . S
N941 C942 1.351 . S
C942 C936 1.428 . S
C942 N941 1.351 . S
C942 C943 1.434 . S
C943 C934 1.429 . S
C943 N940 1.350 . S
C943 C942 1.434 . S
C944 C945 1.369 . S
C944 C946 1.419 1_545 S
C944 H948 0.930 . S
C945 C944 1.369 . S
C945 C954 1.429 . S
C946 C944 1.419 1_565 S
C946 C947 1.363 . S
C946 H949 0.929 . S
C947 C946 1.363 . S
C947 C953 1.428 . S
H948 C944 0.930 . S
H949 C946 0.929 . S
S950 N951 1.613 1_565 S
S950 N952 1.610 . S
N951 S950 1.613 1_545 S
N951 C954 1.350 . S
N952 S950 1.610 . S
N952 C953 1.351 . S
C953 C947 1.428 . S
C953 N952 1.351 . S
C953 C954 1.434 1_565 S
C954 C945 1.429 . S
C954 N951 1.350 . S
C954 C953 1.434 1_545 S
C955 C956 1.369 . S
C955 C957 1.419 1_655 S
C955 H959 0.930 . S
C956 C955 1.369 . S
C956 C965 1.429 . S
C957 C955 1.419 1_455 S
C957 C958 1.363 . S
C957 H960 0.929 . S
C958 C957 1.363 . S
C958 C964 1.428 . S
H959 C955 0.930 . S
H960 C957 0.929 . S
S961 N962 1.613 1_455 S
S961 N963 1.610 . S
N962 S961 1.613 1_655 S
N962 C965 1.350 . S
N963 S961 1.610 . S
N963 C964 1.351 . S
C964 C958 1.428 . S
C964 N963 1.351 . S
C964 C965 1.434 1_455 S
C965 C956 1.429 . S
C965 N962 1.350 . S
C965 C964 1.434 1_655 S
C966 C967 1.369 . S
C966 C968 1.419 . S
C966 H970 0.930 . S
C967 C966 1.369 . S
C967 C976 1.429 . S
C968 C966 1.419 . S
C968 C969 1.363 . S
C968 H971 0.929 . S
C969 C968 1.363 . S
C969 C975 1.428 . S
H970 C966 0.930 . S
H971 C968 0.929 . S
S972 N973 1.613 . S
S972 N974 1.610 . S
N973 S972 1.613 . S
N973 C976 1.350 . S
N974 S972 1.610 . S
N974 C975 1.351 . S
C975 C969 1.428 . S
C975 N974 1.351 . S
C975 C976 1.434 . S
C976 C967 1.429 . S
C976 N973 1.350 . S
C976 C975 1.434 . S
C977 C978 1.369 . S
C977 C979 1.419 . S
C977 H981 0.930 . S
C978 C977 1.369 . S
C978 C987 1.429 . S
C979 C977 1.419 . S
C979 C980 1.363 . S
C979 H982 0.929 . S
C980 C979 1.363 . S
C980 C986 1.428 . S
H981 C977 0.930 . S
H982 C979 0.929 . S
S983 N984 1.613 . S
S983 N985 1.610 . S
N984 S983 1.613 . S
N984 C987 1.350 . S
N985 S983 1.610 . S
N985 C986 1.351 . S
C986 C980 1.428 . S
C986 N985 1.351 . S
C986 C987 1.434 . S
C987 C978 1.429 . S
C987 N984 1.350 . S
C987 C986 1.434 . S
C988 C989 1.369 . S
C988 C990 1.419 . S
C988 H992 0.930 . S
C989 C988 1.369 . S
C989 C998 1.429 . S
C990 C988 1.419 . S
C990 C991 1.363 . S
C990 H993 0.929 . S
C991 C990 1.363 . S
C991 C997 1.428 . S
H992 C988 0.930 . S
H993 C990 0.929 . S
S994 N995 1.613 . S
S994 N996 1.610 . S
N995 S994 1.613 . S
N995 C998 1.350 . S
N996 S994 1.610 . S
N996 C997 1.351 . S
C997 C991 1.428 . S
C997 N996 1.351 . S
C997 C998 1.434 . S
C998 C989 1.429 . S
C998 N995 1.350 . S
C998 C997 1.434 . S
C999 C1000 1.369 . S
C999 C1001 1.419 . S
C999 H1003 0.930 . S
C1000 C999 1.369 . S
C1000 C1009 1.429 . S
C1001 C999 1.419 . S
C1001 C1002 1.363 . S
C1001 H1004 0.929 . S
C1002 C1001 1.363 . S
C1002 C1008 1.428 . S
H1003 C999 0.930 . S
H1004 C1001 0.929 . S
S1005 N1006 1.613 1_556 S
S1005 N1007 1.610 . S
N1006 S1005 1.613 1_554 S
N1006 C1009 1.350 . S
N1007 S1005 1.610 . S
N1007 C1008 1.351 1_556 S
C1008 C1002 1.428 . S
C1008 N1007 1.351 1_554 S
C1008 C1009 1.434 . S
C1009 C1000 1.429 . S
C1009 N1006 1.350 . S
C1009 C1008 1.434 . S
C1010 C1011 1.369 . S
C1010 C1012 1.419 . S
C1010 H1014 0.930 . S
C1011 C1010 1.369 . S
C1011 C1020 1.429 . S
C1012 C1010 1.419 . S
C1012 C1013 1.363 . S
C1012 H1015 0.929 . S
C1013 C1012 1.363 . S
C1013 C1019 1.428 . S
H1014 C1010 0.930 . S
H1015 C1012 0.929 . S
S1016 N1017 1.613 1_556 S
S1016 N1018 1.610 1_556 S
N1017 S1016 1.613 1_554 S
N1017 C1020 1.350 . S
N1018 S1016 1.610 1_554 S
N1018 C1019 1.351 . S
C1019 C1013 1.428 . S
C1019 N1018 1.351 . S
C1019 C1020 1.434 . S
C1020 C1011 1.429 . S
C1020 N1017 1.350 . S
C1020 C1019 1.434 . S
C1021 C1022 1.369 . S
C1021 C1023 1.419 . S
C1021 H1025 0.930 . S
C1022 C1021 1.369 . S
C1022 C1031 1.429 . S
C1023 C1021 1.419 . S
C1023 C1024 1.363 . S
C1023 H1026 0.929 . S
C1024 C1023 1.363 . S
C1024 C1030 1.428 . S
H1025 C1021 0.930 . S
H1026 C1023 0.929 . S
S1027 N1028 1.613 1_556 S
S1027 N1029 1.610 . S
N1028 S1027 1.613 1_554 S
N1028 C1031 1.350 . S
N1029 S1027 1.610 . S
N1029 C1030 1.351 1_556 S
C1030 C1024 1.428 . S
C1030 N1029 1.351 1_554 S
C1030 C1031 1.434 . S
C1031 C1022 1.429 . S
C1031 N1028 1.350 . S
C1031 C1030 1.434 . S
C1032 C1033 1.369 . S
C1032 C1034 1.419 . S
C1032 H1036 0.930 1_556 S
C1033 C1032 1.369 . S
C1033 C1042 1.429 . S
C1034 C1032 1.419 . S
C1034 C1035 1.363 . S
C1034 H1037 0.929 . S
C1035 C1034 1.363 . S
C1035 C1041 1.428 . S
H1036 C1032 0.930 1_554 S
H1037 C1034 0.929 . S
S1038 N1039 1.613 . S
S1038 N1040 1.610 . S
N1039 S1038 1.613 . S
N1039 C1042 1.350 . S
N1040 S1038 1.610 . S
N1040 C1041 1.351 . S
C1041 C1035 1.428 . S
C1041 N1040 1.351 . S
C1041 C1042 1.434 . S
C1042 C1033 1.429 . S
C1042 N1039 1.350 . S
C1042 C1041 1.434 . S
C1043 C1044 1.369 . S
C1043 C1045 1.419 . S
C1043 H1047 0.930 1_556 S
C1044 C1043 1.369 . S
C1044 C1053 1.429 . S
C1045 C1043 1.419 . S
C1045 C1046 1.363 . S
C1045 H1048 0.929 . S
C1046 C1045 1.363 . S
C1046 C1052 1.428 . S
H1047 C1043 0.930 1_554 S
H1048 C1045 0.929 . S
S1049 N1050 1.613 . S
S1049 N1051 1.610 . S
N1050 S1049 1.613 . S
N1050 C1053 1.350 . S
N1051 S1049 1.610 . S
N1051 C1052 1.351 . S
C1052 C1046 1.428 . S
C1052 N1051 1.351 . S
C1052 C1053 1.434 . S
C1053 C1044 1.429 . S
C1053 N1050 1.350 . S
C1053 C1052 1.434 . S
C1054 C1055 1.369 . S
C1054 C1056 1.419 . S
C1054 H1058 0.930 . S
C1055 C1054 1.369 . S
C1055 C1064 1.429 . S
C1056 C1054 1.419 . S
C1056 C1057 1.363 . S
C1056 H1059 0.929 . S
C1057 C1056 1.363 . S
C1057 C1063 1.428 . S
H1058 C1054 0.930 . S
H1059 C1056 0.929 . S
S1060 N1061 1.613 . S
S1060 N1062 1.610 . S
N1061 S1060 1.613 . S
N1061 C1064 1.350 . S
N1062 S1060 1.610 . S
N1062 C1063 1.351 . S
C1063 C1057 1.428 . S
C1063 N1062 1.351 . S
C1063 C1064 1.434 . S
C1064 C1055 1.429 . S
C1064 N1061 1.350 . S
C1064 C1063 1.434 . S
C1065 C1066 1.369 . S
C1065 C1067 1.419 . S
C1065 H1069 0.930 . S
C1066 C1065 1.369 . S
C1066 C1075 1.429 . S
C1067 C1065 1.419 . S
C1067 C1068 1.363 . S
C1067 H1070 0.929 . S
C1068 C1067 1.363 . S
C1068 C1074 1.428 . S
H1069 C1065 0.930 . S
H1070 C1067 0.929 . S
S1071 N1072 1.613 . S
S1071 N1073 1.610 . S
N1072 S1071 1.613 . S
N1072 C1075 1.350 . S
N1073 S1071 1.610 . S
N1073 C1074 1.351 . S
C1074 C1068 1.428 . S
C1074 N1073 1.351 . S
C1074 C1075 1.434 . S
C1075 C1066 1.429 . S
C1075 N1072 1.350 . S
C1075 C1074 1.434 . S
C1076 C1077 1.369 . S
C1076 C1078 1.419 . S
C1076 H1080 0.930 . S
C1077 C1076 1.369 . S
C1077 C1086 1.429 . S
C1078 C1076 1.419 . S
C1078 C1079 1.363 . S
C1078 H1081 0.929 . S
C1079 C1078 1.363 . S
C1079 C1085 1.428 . S
H1080 C1076 0.930 . S
H1081 C1078 0.929 . S
S1082 N1083 1.613 . S
S1082 N1084 1.610 . S
N1083 S1082 1.613 . S
N1083 C1086 1.350 . S
N1084 S1082 1.610 . S
N1084 C1085 1.351 . S
C1085 C1079 1.428 . S
C1085 N1084 1.351 . S
C1085 C1086 1.434 . S
C1086 C1077 1.429 . S
C1086 N1083 1.350 . S
C1086 C1085 1.434 . S
C1087 C1088 1.369 . S
C1087 C1089 1.419 . S
C1087 H1091 0.930 . S
C1088 C1087 1.369 . S
C1088 C1097 1.429 . S
C1089 C1087 1.419 . S
C1089 C1090 1.363 . S
C1089 H1092 0.929 . S
C1090 C1089 1.363 . S
C1090 C1096 1.428 . S
H1091 C1087 0.930 . S
H1092 C1089 0.929 . S
S1093 N1094 1.613 . S
S1093 N1095 1.610 . S
N1094 S1093 1.613 . S
N1094 C1097 1.350 . S
N1095 S1093 1.610 . S
N1095 C1096 1.351 . S
C1096 C1090 1.428 . S
C1096 N1095 1.351 . S
C1096 C1097 1.434 . S
C1097 C1088 1.429 . S
C1097 N1094 1.350 . S
C1097 C1096 1.434 . S
C1098 C1099 1.369 . S
C1098 C1100 1.419 . S
C1098 H1102 0.930 . S
C1099 C1098 1.369 . S
C1099 C1108 1.429 . S
C1100 C1098 1.419 . S
C1100 C1101 1.363 . S
C1100 H1103 0.929 . S
C1101 C1100 1.363 . S
C1101 C1107 1.428 . S
H1102 C1098 0.930 . S
H1103 C1100 0.929 . S
S1104 N1105 1.613 . S
S1104 N1106 1.610 . S
N1105 S1104 1.613 . S
N1105 C1108 1.350 . S
N1106 S1104 1.610 . S
N1106 C1107 1.351 . S
C1107 C1101 1.428 . S
C1107 N1106 1.351 . S
C1107 C1108 1.434 . S
C1108 C1099 1.429 . S
C1108 N1105 1.350 . S
C1108 C1107 1.434 . S
C1109 C1110 1.369 . S
C1109 C1111 1.419 . S
C1109 H1113 0.930 . S
C1110 C1109 1.369 . S
C1110 C1119 1.429 . S
C1111 C1109 1.419 . S
C1111 C1112 1.363 . S
C1111 H1114 0.929 . S
C1112 C1111 1.363 . S
C1112 C1118 1.428 . S
H1113 C1109 0.930 . S
H1114 C1111 0.929 . S
S1115 N1116 1.613 . S
S1115 N1117 1.610 . S
N1116 S1115 1.613 . S
N1116 C1119 1.350 . S
N1117 S1115 1.610 . S
N1117 C1118 1.351 . S
C1118 C1112 1.428 . S
C1118 N1117 1.351 . S
C1118 C1119 1.434 . S
C1119 C1110 1.429 . S
C1119 N1116 1.350 . S
C1119 C1118 1.434 . S
C1120 C1121 1.369 . S
C1120 C1122 1.419 . S
C1120 H1124 0.930 . S
C1121 C1120 1.369 . S
C1121 C1130 1.429 . S
C1122 C1120 1.419 . S
C1122 C1123 1.363 . S
C1122 H1125 0.929 . S
C1123 C1122 1.363 . S
C1123 C1129 1.428 . S
H1124 C1120 0.930 . S
H1125 C1122 0.929 . S
S1126 N1127 1.613 . S
S1126 N1128 1.610 . S
N1127 S1126 1.613 . S
N1127 C1130 1.350 . S
N1128 S1126 1.610 . S
N1128 C1129 1.351 . S
C1129 C1123 1.428 . S
C1129 N1128 1.351 . S
C1129 C1130 1.434 . S
C1130 C1121 1.429 . S
C1130 N1127 1.350 . S
C1130 C1129 1.434 . S
C1131 C1132 1.369 . S
C1131 C1133 1.419 . S
C1131 H1135 0.930 . S
C1132 C1131 1.369 . S
C1132 C1141 1.429 . S
C1133 C1131 1.419 . S
C1133 C1134 1.363 . S
C1133 H1136 0.929 . S
C1134 C1133 1.363 . S
C1134 C1140 1.428 . S
H1135 C1131 0.930 . S
H1136 C1133 0.929 . S
S1137 N1138 1.613 . S
S1137 N1139 1.610 . S
N1138 S1137 1.613 . S
N1138 C1141 1.350 . S
N1139 S1137 1.610 . S
N1139 C1140 1.351 . S
C1140 C1134 1.428 . S
C1140 N1139 1.351 . S
C1140 C1141 1.434 . S
C1141 C1132 1.429 . S
C1141 N1138 1.350 . S
C1141 C1140 1.434 . S
C1142 C1143 1.369 . S
C1142 C1144 1.419 . S
C1142 H1146 0.930 . S
C1143 C1142 1.369 . S
C1143 C1152 1.429 . S
C1144 C1142 1.419 . S
C1144 C1145 1.363 . S
C1144 H1147 0.929 . S
C1145 C1144 1.363 . S
C1145 C1151 1.428 . S
H1146 C1142 0.930 . S
H1147 C1144 0.929 . S
S1148 N1149 1.613 . S
S1148 N1150 1.610 . S
N1149 S1148 1.613 . S
N1149 C1152 1.350 . S
N1150 S1148 1.610 . S
N1150 C1151 1.351 . S
C1151 C1145 1.428 . S
C1151 N1150 1.351 . S
C1151 C1152 1.434 . S
C1152 C1143 1.429 . S
C1152 N1149 1.350 . S
C1152 C1151 1.434 . S
C1153 C1154 1.369 . S
C1153 C1155 1.419 . S
C1153 H1157 0.930 . S
C1154 C1153 1.369 . S
C1154 C1163 1.429 . S
C1155 C1153 1.419 . S
C1155 C1156 1.363 . S
C1155 H1158 0.929 . S
C1156 C1155 1.363 . S
C1156 C1162 1.428 . S
H1157 C1153 0.930 . S
H1158 C1155 0.929 . S
S1159 N1160 1.613 . S
S1159 N1161 1.610 . S
N1160 S1159 1.613 . S
N1160 C1163 1.350 . S
N1161 S1159 1.610 . S
N1161 C1162 1.351 . S
C1162 C1156 1.428 . S
C1162 N1161 1.351 . S
C1162 C1163 1.434 . S
C1163 C1154 1.429 . S
C1163 N1160 1.350 . S
C1163 C1162 1.434 . S
C1164 C1165 1.369 . S
C1164 C1166 1.419 . S
C1164 H1168 0.930 . S
C1165 C1164 1.369 . S
C1165 C1174 1.429 . S
C1166 C1164 1.419 . S
C1166 C1167 1.363 . S
C1166 H1169 0.929 . S
C1167 C1166 1.363 . S
C1167 C1173 1.428 . S
H1168 C1164 0.930 . S
H1169 C1166 0.929 . S
S1170 N1171 1.613 . S
S1170 N1172 1.610 . S
N1171 S1170 1.613 . S
N1171 C1174 1.350 . S
N1172 S1170 1.610 . S
N1172 C1173 1.351 . S
C1173 C1167 1.428 . S
C1173 N1172 1.351 . S
C1173 C1174 1.434 . S
C1174 C1165 1.429 . S
C1174 N1171 1.350 . S
C1174 C1173 1.434 . S
C1175 C1176 1.369 . S
C1175 C1177 1.419 . S
C1175 H1179 0.930 . S
C1176 C1175 1.369 . S
C1176 C1185 1.429 . S
C1177 C1175 1.419 . S
C1177 C1178 1.363 . S
C1177 H1180 0.929 . S
C1178 C1177 1.363 . S
C1178 C1184 1.428 . S
H1179 C1175 0.930 . S
H1180 C1177 0.929 . S
S1181 N1182 1.613 . S
S1181 N1183 1.610 . S
N1182 S1181 1.613 . S
N1182 C1185 1.350 . S
N1183 S1181 1.610 . S
N1183 C1184 1.351 . S
C1184 C1178 1.428 . S
C1184 N1183 1.351 . S
C1184 C1185 1.434 . S
C1185 C1176 1.429 . S
C1185 N1182 1.350 . S
C1185 C1184 1.434 . S
C1186 C1187 1.369 . S
C1186 C1188 1.419 . S
C1186 H1190 0.930 . S
C1187 C1186 1.369 . S
C1187 C1196 1.429 . S
C1188 C1186 1.419 . S
C1188 C1189 1.363 . S
C1188 H1191 0.929 . S
C1189 C1188 1.363 . S
C1189 C1195 1.428 . S
H1190 C1186 0.930 . S
H1191 C1188 0.929 . S
S1192 N1193 1.613 . S
S1192 N1194 1.610 . S
N1193 S1192 1.613 . S
N1193 C1196 1.350 . S
N1194 S1192 1.610 . S
N1194 C1195 1.351 . S
C1195 C1189 1.428 . S
C1195 N1194 1.351 . S
C1195 C1196 1.434 . S
C1196 C1187 1.429 . S
C1196 N1193 1.350 . S
C1196 C1195 1.434 . S
C1197 C1198 1.369 . S
C1197 C1199 1.419 . S
C1197 H1201 0.930 . S
C1198 C1197 1.369 . S
C1198 C1207 1.429 . S
C1199 C1197 1.419 . S
C1199 C1200 1.363 . S
C1199 H1202 0.929 . S
C1200 C1199 1.363 . S
C1200 C1206 1.428 . S
H1201 C1197 0.930 . S
H1202 C1199 0.929 . S
S1203 N1204 1.613 . S
S1203 N1205 1.610 . S
N1204 S1203 1.613 . S
N1204 C1207 1.350 . S
N1205 S1203 1.610 . S
N1205 C1206 1.351 . S
C1206 C1200 1.428 . S
C1206 N1205 1.351 . S
C1206 C1207 1.434 . S
C1207 C1198 1.429 . S
C1207 N1204 1.350 . S
C1207 C1206 1.434 . S
C1208 C1209 1.369 . S
C1208 C1210 1.419 . S
C1208 H1212 0.930 . S
C1209 C1208 1.369 . S
C1209 C1218 1.429 . S
C1210 C1208 1.419 . S
C1210 C1211 1.363 . S
C1210 H1213 0.929 . S
C1211 C1210 1.363 . S
C1211 C1217 1.428 . S
H1212 C1208 0.930 . S
H1213 C1210 0.929 . S
S1214 N1215 1.613 . S
S1214 N1216 1.610 . S
N1215 S1214 1.613 . S
N1215 C1218 1.350 . S
N1216 S1214 1.610 . S
N1216 C1217 1.351 . S
C1217 C1211 1.428 . S
C1217 N1216 1.351 . S
C1217 C1218 1.434 . S
C1218 C1209 1.429 . S
C1218 N1215 1.350 . S
C1218 C1217 1.434 . S
C1219 C1220 1.369 . S
C1219 C1221 1.419 . S
C1219 H1223 0.930 . S
C1220 C1219 1.369 . S
C1220 C1229 1.429 . S
C1221 C1219 1.419 . S
C1221 C1222 1.363 . S
C1221 H1224 0.929 . S
C1222 C1221 1.363 . S
C1222 C1228 1.428 . S
H1223 C1219 0.930 . S
H1224 C1221 0.929 . S
S1225 N1226 1.613 . S
S1225 N1227 1.610 . S
N1226 S1225 1.613 . S
N1226 C1229 1.350 . S
N1227 S1225 1.610 . S
N1227 C1228 1.351 . S
C1228 C1222 1.428 . S
C1228 N1227 1.351 . S
C1228 C1229 1.434 . S
C1229 C1220 1.429 . S
C1229 N1226 1.350 . S
C1229 C1228 1.434 . S
C1230 C1231 1.369 . S
C1230 C1232 1.419 1_455 S
C1230 H1234 0.930 . S
C1231 C1230 1.369 . S
C1231 C1240 1.429 . S
C1232 C1230 1.419 1_655 S
C1232 C1233 1.363 . S
C1232 H1235 0.929 . S
C1233 C1232 1.363 . S
C1233 C1239 1.428 . S
H1234 C1230 0.930 . S
H1235 C1232 0.929 . S
S1236 N1237 1.613 1_655 S
S1236 N1238 1.610 . S
N1237 S1236 1.613 1_455 S
N1237 C1240 1.350 . S
N1238 S1236 1.610 . S
N1238 C1239 1.351 . S
C1239 C1233 1.428 . S
C1239 N1238 1.351 . S
C1239 C1240 1.434 1_655 S
C1240 C1231 1.429 . S
C1240 N1237 1.350 . S
C1240 C1239 1.434 1_455 S
C1241 C1242 1.369 . S
C1241 C1243 1.419 . S
C1241 H1245 0.930 . S
C1242 C1241 1.369 . S
C1242 C1251 1.429 . S
C1243 C1241 1.419 . S
C1243 C1244 1.363 . S
C1243 H1246 0.929 . S
C1244 C1243 1.363 . S
C1244 C1250 1.428 . S
H1245 C1241 0.930 . S
H1246 C1243 0.929 . S
S1247 N1248 1.613 . S
S1247 N1249 1.610 . S
N1248 S1247 1.613 . S
N1248 C1251 1.350 . S
N1249 S1247 1.610 . S
N1249 C1250 1.351 . S
C1250 C1244 1.428 . S
C1250 N1249 1.351 . S
C1250 C1251 1.434 . S
C1251 C1242 1.429 . S
C1251 N1248 1.350 . S
C1251 C1250 1.434 . S
C1252 C1253 1.369 . S
C1252 C1254 1.419 1_545 S
C1252 H1256 0.930 . S
C1253 C1252 1.369 . S
C1253 C1262 1.429 . S
C1254 C1252 1.419 1_565 S
C1254 C1255 1.363 . S
C1254 H1257 0.929 . S
C1255 C1254 1.363 . S
C1255 C1261 1.428 . S
H1256 C1252 0.930 . S
H1257 C1254 0.929 . S
S1258 N1259 1.613 1_565 S
S1258 N1260 1.610 . S
N1259 S1258 1.613 1_545 S
N1259 C1262 1.350 . S
N1260 S1258 1.610 . S
N1260 C1261 1.351 . S
C1261 C1255 1.428 . S
C1261 N1260 1.351 . S
C1261 C1262 1.434 1_565 S
C1262 C1253 1.429 . S
C1262 N1259 1.350 . S
C1262 C1261 1.434 1_545 S
C1263 C1264 1.369 1_556 S
C1263 C1265 1.419 1_545 S
C1263 H1267 0.930 . S
C1264 C1263 1.369 1_554 S
C1264 C1273 1.429 . S
C1265 C1263 1.419 1_565 S
C1265 C1266 1.363 . S
C1265 H1268 0.929 . S
C1266 C1265 1.363 . S
C1266 C1272 1.428 1_556 S
H1267 C1263 0.930 . S
H1268 C1265 0.929 . S
S1269 N1270 1.613 1_565 S
S1269 N1271 1.610 . S
N1270 S1269 1.613 1_545 S
N1270 C1273 1.350 . S
N1271 S1269 1.610 . S
N1271 C1272 1.351 . S
C1272 C1266 1.428 1_554 S
C1272 N1271 1.351 . S
C1272 C1273 1.434 1_565 S
C1273 C1264 1.429 . S
C1273 N1270 1.350 . S
C1273 C1272 1.434 1_545 S
C1274 C1275 1.369 1_556 S
C1274 C1276 1.419 1_655 S
C1274 H1278 0.930 . S
C1275 C1274 1.369 1_554 S
C1275 C1284 1.429 . S
C1276 C1274 1.419 1_455 S
C1276 C1277 1.363 . S
C1276 H1279 0.929 . S
C1277 C1276 1.363 . S
C1277 C1283 1.428 1_556 S
H1278 C1274 0.930 . S
H1279 C1276 0.929 . S
S1280 N1281 1.613 1_455 S
S1280 N1282 1.610 . S
N1281 S1280 1.613 1_655 S
N1281 C1284 1.350 . S
N1282 S1280 1.610 . S
N1282 C1283 1.351 . S
C1283 C1277 1.428 1_554 S
C1283 N1282 1.351 . S
C1283 C1284 1.434 1_455 S
C1284 C1275 1.429 . S
C1284 N1281 1.350 . S
C1284 C1283 1.434 1_655 S
C1285 C1286 1.369 1_556 S
C1285 C1287 1.419 . S
C1285 H1289 0.930 . S
C1286 C1285 1.369 1_554 S
C1286 C1295 1.429 . S
C1287 C1285 1.419 . S
C1287 C1288 1.363 . S
C1287 H1290 0.929 . S
C1288 C1287 1.363 . S
C1288 C1294 1.428 1_556 S
H1289 C1285 0.930 . S
H1290 C1287 0.929 . S
S1291 N1292 1.613 . S
S1291 N1293 1.610 . S
N1292 S1291 1.613 . S
N1292 C1295 1.350 . S
N1293 S1291 1.610 . S
N1293 C1294 1.351 . S
C1294 C1288 1.428 1_554 S
C1294 N1293 1.351 . S
C1294 C1295 1.434 . S
C1295 C1286 1.429 . S
C1295 N1292 1.350 . S
C1295 C1294 1.434 . S
C505 C147 1.335 . S
C507 C8 1.268 . S
C516 C161 1.335 . S
C518 C22 1.272 . S
C527 C36 1.267 . S
C529 C133 1.337 . S
C538 C50 1.270 . S
C540 C119 1.335 . S
C549 C64 1.274 . S
C551 C91 1.338 . S
C560 C105 1.338 . S
C562 C78 1.277 . S
C571 C63 1.338 . S
C573 C92 1.276 . S
C582 C77 1.335 . S
C584 C106 1.269 . S
C593 C120 1.273 . S
C595 C49 1.335 . S
C604 C35 1.337 . S
C606 C134 1.277 . S
C615 C148 1.269 . S
C617 C7 1.335 . S
C626 C162 1.270 . S
C628 C21 1.338 . S
C637 C315 1.337 . S
C639 C176 1.277 . S
C648 C329 1.336 . S
C650 C190 1.277 . S
C659 C204 1.273 . S
C661 C301 1.338 . S
C670 C218 1.269 . S
C672 C287 1.335 . S
C681 C232 1.275 . S
C683 C259 1.338 . S
C692 C246 1.278 . S
C694 C273 1.337 . S
C703 C231 1.337 . S
C705 C260 1.268 . S
C714 C245 1.335 . S
C716 C274 1.269 . S
C725 C217 1.335 . S
C727 C288 1.272 . S
C736 C203 1.336 . S
C738 C302 1.276 . S
C747 C175 1.335 . S
C749 C316 1.269 . S
C758 C189 1.336 . S
C760 C330 1.277 . S
C769 C344 1.268 . S
C771 C483 1.337 . S
C780 C497 1.335 . S
C782 C358 1.272 . S
C791 C469 1.337 . S
C793 C372 1.269 . S
C802 C386 1.272 . S
C804 C455 1.335 . S
C813 C400 1.271 . S
C815 C427 1.338 . S
C824 C414 1.270 . S
C826 C441 1.338 . S
C835 C399 1.336 . S
C837 C428 1.268 . S
C846 C413 1.336 . S
C848 C442 1.277 . S
C857 C385 1.335 . S
C859 C456 1.273 . S
C868 C470 1.269 . S
C870 C371 1.337 . S
C879 C343 1.335 . S
C881 C484 1.272 . S
C890 C498 1.270 . S
C892 C357 1.335 . S
C901 C48 1.537 . S
C903 C6 1.536 . S
C912 C62 1.535 . S
C914 C20 1.534 . S
C923 C34 1.536 . S
C925 C76 1.536 . S
C934 C132 1.533 . S
C936 C90 1.533 . S
C945 C146 1.538 . S
C947 C104 1.537 . S
C956 C160 1.537 . S
C958 C118 1.536 . S
C967 C216 1.537 . S
C969 C174 1.536 . S
C978 C230 1.533 . S
C980 C188 1.533 . S
C989 C202 1.536 . S
C991 C244 1.535 . S
C1000 C258 1.535 . S
C1002 C300 1.535 . S
C1011 C314 1.538 . S
C1013 C272 1.537 . S
C1022 C286 1.533 . S
C1024 C328 1.533 . S
C1033 C384 1.534 . S
C1035 C342 1.534 . S
C1044 C398 1.535 . S
C1046 C356 1.535 . S
C1055 C370 1.533 . S
C1057 C412 1.533 . S
C1066 C426 1.537 . S
C1068 C468 1.536 . S
C1077 C440 1.534 . S
C1079 C482 1.534 . S
C1088 C454 1.533 . S
C1090 C496 1.533 . S
C1099 C9 1.534 . S
C1101 C261 1.537 . S
C1110 C275 1.539 . S
C1112 C23 1.534 . S
C1121 C289 1.534 . S
C1123 C37 1.538 . S
C1132 C471 1.537 . S
C1134 C51 1.535 . S
C1143 C485 1.536 . S
C1145 C65 1.536 . S
C1154 C499 1.538 . S
C1156 C79 1.534 . S
C1165 C93 1.533 . S
C1167 C345 1.539 . S
C1176 C359 1.534 . S
C1178 C107 1.537 . S
C1187 C373 1.535 . S
C1189 C121 1.537 . S
C1198 C135 1.533 . S
C1200 C219 1.538 . S
C1209 C149 1.533 . S
C1211 C233 1.538 . S
C1220 C163 1.538 . S
C1222 C247 1.534 . S
C1231 C429 1.534 . S
C1233 C177 1.537 . S
C1242 C443 1.533 . S
C1244 C191 1.539 . S
C1253 C205 1.537 . S
C1255 C457 1.535 . S
C1264 C303 1.534 . S
C1266 C387 1.537 . S
C1275 C317 1.535 . S
C1277 C401 1.537 . S
C1286 C331 1.537 . S
C1288 C415 1.535 . S
