# Generated by pormake.
# Topology unh, (4)-cn, num edge types: 1
# Building blocks:
#     Node 0, Type 0, BuildingBlock: MUDLON_clean_sbu_0, # of connection points: 4
#     Node 1, Type 0, BuildingBlock: MUDLON_clean_sbu_0, # of connection points: 4
#     Node 2, Type 0, BuildingBlock: MUDLON_clean_sbu_0, # of connection points: 4
#     Node 3, Type 0, BuildingBlock: MUDLON_clean_sbu_0, # of connection points: 4
#     Node 4, Type 0, BuildingBlock: MUDLON_clean_sbu_0, # of connection points: 4
#     Node 5, Type 0, BuildingBlock: MUDLON_clean_sbu_0, # of connection points: 4
#     Edge 6, Type (0, 0), BuildingBlock: MIFKUJ_clean_linker_0, # of connection points: 2
#     Edge 7, Type (0, 0), BuildingBlock: MIFKUJ_clean_linker_0, # of connection points: 2
#     Edge 8, Type (0, 0), BuildingBlock: MIFKUJ_clean_linker_0, # of connection points: 2
#     Edge 9, Type (0, 0), BuildingBlock: MIFKUJ_clean_linker_0, # of connection points: 2
#     Edge 10, Type (0, 0), BuildingBlock: MIFKUJ_clean_linker_0, # of connection points: 2
#     Edge 11, Type (0, 0), BuildingBlock: MIFKUJ_clean_linker_0, # of connection points: 2
#     Edge 12, Type (0, 0), BuildingBlock: MIFKUJ_clean_linker_0, # of connection points: 2
#     Edge 13, Type (0, 0), BuildingBlock: MIFKUJ_clean_linker_0, # of connection points: 2
#     Edge 14, Type (0, 0), BuildingBlock: MIFKUJ_clean_linker_0, # of connection points: 2
#     Edge 15, Type (0, 0), BuildingBlock: MIFKUJ_clean_linker_0, # of connection points: 2
#     Edge 16, Type (0, 0), BuildingBlock: MIFKUJ_clean_linker_0, # of connection points: 2
#     Edge 17, Type (0, 0), BuildingBlock: MIFKUJ_clean_linker_0, # of connection points: 2
# Relax obj value: 0.034
# Max RMSD: 0.245
# Mean RMSD: 0.245
data_MOF--net-unh--node1-MUDLON_clean_sbu_0--edge1-MIFKUJ_clean_linker_0
_symmetry_space_group_name_H-M    P1
_symmetry_Int_Tables_number       1
_symmetry_cell_setting            triclinic
loop_
_symmetry_equiv_pos_as_xyz
'x, y, z'
_cell_length_a     57.246208
_cell_length_b     57.007058
_cell_length_c     29.886253
_cell_angle_alpha  90.011057
_cell_angle_beta   90.099946
_cell_angle_gamma 119.92302
loop_
_atom_site_label
_atom_site_type_symbol
_atom_site_fract_x
_atom_site_fract_y
_atom_site_fract_z
_atom_type_partial_charge
Mg0 Mg 0.14994 0.57504 0.10844 0.0
C1 C 0.18489 0.61662 0.04124 0.0
O2 O 0.17789 0.59397 1.01963 0.0
C3 C 0.10386 0.57409 0.16315 0.0
O4 O 0.09448 0.57511 0.12351 0.0
C5 C 0.17261 0.54912 0.17025 0.0
O6 O 0.15013 0.54267 0.19148 0.0
O7 O 0.17715 0.56135 0.13289 0.0
O8 O 0.17578 0.61533 0.08055 0.0
O9 O 0.12192 0.54931 0.05632 0.0
C10 C 0.11263 0.56037 0.03025 0.0
O11 O 0.12074 0.58619 0.03565 0.0
O12 O 0.12647 0.57499 0.16606 0.0
Mg13 Mg 0.58962 0.147 0.26736 0.0
C14 C 0.56276 0.18267 0.25224 0.0
O15 O 0.55534 0.17767 0.29434 0.0
C16 C 0.54274 0.10353 0.32426 0.0
O17 O 0.52924 0.097 0.28641 0.0
C18 C 0.6348 0.19573 0.31051 0.0
O19 O 0.61505 0.20115 0.3119 0.0
O20 O 0.6305 0.17375 0.2922 0.0
O21 O 0.57587 0.17236 0.23494 0.0
O22 O 0.58753 0.11863 0.21618 0.0
C23 C 0.56767 0.11008 0.18927 0.0
O24 O 0.55057 0.11894 0.19407 0.0
O25 O 0.56661 0.12363 0.32527 0.0
Mg26 Mg 0.45394 0.5825 0.43633 0.0
C27 C 0.39241 0.55895 0.41996 0.0
O28 O 0.38961 0.55083 0.46173 0.0
C29 C 0.45611 0.53711 0.48652 0.0
O30 O 0.46178 0.53215 0.44626 0.0
C31 C 0.45474 0.62354 0.49774 0.0
O32 O 0.43369 0.60086 0.51093 0.0
O33 O 0.4686 0.62266 0.46518 0.0
O34 O 0.41585 0.57151 0.4029 0.0
O35 O 0.4811 0.58089 0.38648 0.0
C36 C 0.47064 0.56821 0.35021 0.0
O37 O 0.44464 0.55801 0.3439 0.0
O38 O 0.45057 0.55597 0.49163 0.0
Mg39 Mg 0.88307 0.44881 0.60589 0.0
C40 C 0.86356 0.39963 0.54537 0.0
O41 O 0.88565 0.41643 0.52384 0.0
C42 C 0.91518 0.43809 0.68091 0.0
O43 O 0.90205 0.41256 0.66861 0.0
C44 C 0.849 0.45761 0.67183 0.0
O45 O 0.86042 0.44734 0.6972 0.0
O46 O 0.85504 0.46135 0.63046 0.0
O47 O 0.85835 0.40716 0.58233 0.0
O48 O 0.9078 0.47355 0.55024 0.0
C49 C 0.93122 0.47633 0.54675 0.0
O50 O 0.93903 0.46487 0.57685 0.0
O51 O 0.91069 0.45514 0.66092 0.0
Mg52 Mg 0.44461 0.879 0.76671 0.0
C53 C 0.47702 0.85713 0.71704 0.0
O54 O 0.48881 0.88106 0.69796 0.0
C55 C 0.48837 0.91196 0.83968 0.0
O56 O 0.49994 0.89798 0.8278 0.0
C57 C 0.39861 0.85243 0.83261 0.0
O58 O 0.41734 0.87076 0.85861 0.0
O59 O 0.40381 0.85195 0.79131 0.0
O60 O 0.45968 0.85203 0.74761 0.0
O61 O 0.44601 0.90273 0.70825 0.0
C62 C 0.46808 0.92471 0.70207 0.0
O63 O 0.48775 0.93152 0.73101 0.0
O64 O 0.46688 0.90773 0.82007 0.0
Mg65 Mg 0.57631 0.43957 0.93375 0.0
C66 C 0.62306 0.46251 0.86857 0.0
O67 O 0.60425 0.46192 0.84257 0.0
C68 C 0.5875 0.47585 1.01863 0.0
O69 O 0.60948 0.47427 0.02362 0.0
C70 C 0.55401 0.3937 1.00167 0.0
O71 O 0.54836 0.41053 0.02257 0.0
O72 O 0.56455 0.39997 0.9629 0.0
O73 O 0.6175 0.45561 0.9094 0.0
O74 O 0.55098 0.43767 0.87712 0.0
C75 C 0.54281 0.45475 0.87568 0.0
O76 O 0.54861 0.47167 0.90922 0.0
O77 O 0.57212 0.46434 0.98531 0.0
H78 H 0.08849 0.50581 1.01172 0.0
H79 H 0.05374 0.48037 0.95515 0.0
H80 H 0.05645 0.55408 0.91316 0.0
H81 H 0.09067 0.5794 0.96949 0.0
H82 H 1.00564 0.51446 0.92341 0.0
H83 H 0.08602 0.52466 0.85193 0.0
H84 H 0.12622 0.51955 0.84606 0.0
H85 H 0.07637 0.43319 0.85519 0.0
H86 H 0.03588 0.43783 0.86169 0.0
H87 H 0.94607 0.48963 0.71207 0.0
H88 H 0.97805 0.50528 0.77392 0.0
H89 H 0.96152 0.42372 0.79677 0.0
H90 H 0.92946 0.40775 0.73405 0.0
H91 H 0.01573 0.46065 0.80228 0.0
H92 H 0.93481 0.45047 0.86573 0.0
H93 H 0.89474 0.45589 0.87001 0.0
H94 H 0.94554 0.54223 0.87605 0.0
H95 H 0.98593 0.53737 0.87113 0.0
C96 C 0.08174 0.51658 0.99028 0.0
C97 C 0.09236 0.54465 0.99522 0.0
C98 C 0.06192 0.50203 0.95789 0.0
C99 C 0.05251 0.51532 0.92977 0.0
C100 C 0.06327 0.54333 0.93456 0.0
C101 C 0.08295 0.55782 0.96679 0.0
C102 C 0.03114 0.50035 0.89571 0.0
C103 C 1.00796 0.50284 0.89678 0.0
C104 C 0.03367 0.4844 0.86178 0.0
C105 C 0.05797 0.48161 0.85785 0.0
C106 C 0.08366 0.5046 0.85308 0.0
C107 C 0.10649 0.50179 0.84956 0.0
C108 C 0.10386 0.47607 0.85041 0.0
C109 C 0.07838 0.4531 0.85464 0.0
C110 C 0.05549 0.45581 0.85822 0.0
C111 C 0.94915 0.47491 0.73011 0.0
C112 C 0.935 0.44736 0.71821 0.0
C113 C 0.96743 0.48392 0.76565 0.0
C114 C 0.97189 0.46563 0.79048 0.0
C115 C 0.9583 0.43817 0.77819 0.0
C116 C 0.93993 0.42908 0.74243 0.0
C117 C 0.99068 0.4755 0.82931 0.0
C118 C 1.01327 0.47197 0.82926 0.0
C119 C 0.98765 0.49052 0.86428 0.0
C120 C 0.9634 0.49354 0.86777 0.0
C121 C 0.93744 0.47062 0.86769 0.0
C122 C 0.91467 0.47359 0.87026 0.0
C123 C 0.91759 0.49939 0.87322 0.0
C124 C 0.94331 0.52226 0.87374 0.0
C125 C 0.96615 0.51941 0.87112 0.0
H126 H 0.89994 0.50164 0.87518 0.0
H127 H 0.12155 0.47393 0.84766 0.0
H128 H 0.46835 0.94304 0.87242 0.0
H129 H 0.48726 0.97742 0.93073 0.0
H130 H 0.55377 0.96276 0.94701 0.0
H131 H 0.53468 0.9278 0.88863 0.0
H132 H 0.53418 0.96775 0.02771 0.0
H133 H 0.56349 0.01871 0.89262 0.0
H134 H 0.55871 0.0326 0.81659 0.0
H135 H 0.50389 0.05736 0.86577 0.0
H136 H 0.50802 0.04325 0.94201 0.0
H137 H 0.59811 0.08628 0.16915 0.0
H138 H 0.59003 0.05365 0.1091 0.0
H139 H 0.51923 0.05667 0.06849 0.0
H140 H 0.52728 0.08926 0.12753 0.0
H141 H 0.54867 0.05965 0.99751 0.0
H142 H 0.51529 1.00367 0.13012 0.0
H143 H 0.51914 0.98901 0.20607 0.0
H144 H 0.58156 0.97371 0.16134 0.0
H145 H 0.5783 0.98862 0.08519 0.0
C146 C 0.48703 0.94706 0.88824 0.0
C147 C 0.50007 0.93272 0.87556 0.0
C148 C 0.49788 0.96685 0.92154 0.0
C149 C 0.52217 0.973 0.94279 0.0
C150 C 0.53507 0.95844 0.9309 0.0
C151 C 0.52417 0.93852 0.89745 0.0
C152 C 0.53374 0.99462 0.97747 0.0
C153 C 0.53788 0.98802 1.02092 0.0
C154 C 0.5383 0.02099 0.96878 0.0
C155 C 0.53595 0.02975 0.92301 0.0
C156 C 0.55028 0.02696 0.88718 0.0
C157 C 0.5477 0.03489 0.84405 0.0
C158 C 0.53097 0.04581 0.83634 0.0
C159 C 0.51684 0.04889 0.87179 0.0
C160 C 0.51932 0.04096 0.91499 0.0
C161 C 0.58085 0.07999 0.14736 0.0
C162 C 0.56334 0.09039 0.15321 0.0
C163 C 0.5762 0.06127 0.11316 0.0
C164 C 0.55392 0.05257 0.08439 0.0
C165 C 0.5366 0.06311 0.09012 0.0
C166 C 0.5412 0.08173 0.1241 0.0
C167 C 0.54831 0.03256 0.04807 0.0
C168 C 0.54537 0.03951 1.00419 0.0
C169 C 0.54485 1.00656 0.05643 0.0
C170 C 0.54679 0.99758 0.10214 0.0
C171 C 0.52999 0.9974 0.13658 0.0
C172 C 0.53204 0.989 0.17964 0.0
C173 C 0.55065 0.98052 0.18856 0.0
C174 C 0.56719 0.98034 0.1544 0.0
C175 C 0.56525 0.98875 0.11129 0.0
H176 H 0.55219 0.97402 0.22192 0.0
H177 H 0.529 0.05193 0.80292 0.0
H178 H 0.45427 0.54527 0.26793 0.0
H179 H 0.47856 0.53276 0.21516 0.0
H180 H 0.54736 0.56602 0.30354 0.0
H181 H 0.52312 0.579 0.35682 0.0
H182 H 0.56229 0.57761 0.21454 0.0
H183 H 0.50667 0.49948 0.30187 0.0
H184 H 0.46482 0.46518 0.33819 0.0
H185 H 0.4265 0.43942 0.20984 0.0
H186 H 0.46801 0.47386 0.17276 0.0
H187 H 0.6153 0.50368 0.09388 0.0
H188 H 0.59975 0.52261 0.15283 0.0
H189 H 0.52539 0.4962 0.0808 0.0
H190 H 0.54065 0.47739 0.02202 0.0
H191 H 0.51711 0.48104 0.16903 0.0
H192 H 0.57258 0.5618 0.08279 0.0
H193 H 0.61476 0.59623 0.04742 0.0
H194 H 0.65417 0.61646 0.17547 0.0
H195 H 0.6123 0.58186 0.21153 0.0
C196 C 0.47464 0.55015 0.2762 0.0
C197 C 0.48665 0.56293 0.31687 0.0
C198 C 0.48849 0.5429 0.24595 0.0
C199 C 0.5146 0.548 0.25574 0.0
C200 C 0.52717 0.56177 0.29543 0.0
C201 C 0.51328 0.56913 0.32583 0.0
C202 C 0.52803 0.53792 0.22496 0.0
C203 C 0.55268 0.55643 0.20516 0.0
C204 C 0.5154 0.51029 0.21244 0.0
C205 C 0.49041 0.4894 0.23456 0.0
C206 C 0.48926 0.48663 0.2814 0.0
C207 C 0.46561 0.46714 0.30213 0.0
C208 C 0.443 0.45016 0.27635 0.0
C209 C 0.44402 0.4526 0.22977 0.0
C210 C 0.46762 0.47208 0.20888 0.0
C211 C 0.59573 0.50211 0.09044 0.0
C212 C 0.57921 0.48894 0.05323 0.0
C213 C 0.58691 0.513 0.12411 0.0
C214 C 0.5614 0.51083 0.12119 0.0
C215 C 0.5451 0.49804 0.08381 0.0
C216 C 0.55393 0.48735 0.05013 0.0
C217 C 0.55098 0.52083 0.15764 0.0
C218 C 0.52689 0.5022 0.1787 0.0
C219 C 0.56425 0.54825 0.17142 0.0
C220 C 0.58941 0.56902 0.14977 0.0
C221 C 0.59032 0.57341 0.10334 0.0
C222 C 0.61415 0.59299 0.08318 0.0
C223 C 0.63716 0.60846 0.10916 0.0
C224 C 0.63635 0.60442 0.15537 0.0
C225 C 0.61257 0.58484 0.17569 0.0
H226 H 0.65559 0.62362 0.09349 0.0
H227 H 0.4247 0.43508 0.29246 0.0
H228 H 0.92053 0.4991 0.47399 0.0
H229 H 0.94963 0.52065 0.40909 0.0
H230 H 1.01086 0.50708 0.46741 0.0
H231 H 0.98225 0.486 0.5323 0.0
H232 H 0.033 0.55659 0.43139 0.0
H233 H 0.96805 0.46539 0.38586 0.0
H234 H 0.92226 0.42699 0.37299 0.0
H235 H 0.90587 0.47513 0.28158 0.0
H236 H 0.95147 0.51396 0.29442 0.0
H237 H 0.11297 0.56194 0.24766 0.0
H238 H 0.08346 0.55014 0.31258 0.0
H239 H 0.02731 0.56357 0.23577 0.0
H240 H 0.05645 0.57467 0.17015 0.0
H241 H 1.00109 0.51813 0.27994 0.0
H242 H 0.06791 0.60824 0.32015 0.0
H243 H 0.11386 0.64636 0.33293 0.0
H244 H 0.12697 0.60066 0.43407 0.0
H245 H 0.08122 0.56212 0.4215 0.0
C246 C 0.94027 0.50089 0.4731 0.0
C247 C 0.94899 0.49069 0.50826 0.0
C248 C 0.95684 0.51312 0.43592 0.0
C249 C 0.98235 0.51524 0.43314 0.0
C250 C 0.9913 0.50571 0.46876 0.0
C251 C 0.97482 0.49353 0.50582 0.0
C252 C 0.99959 0.52664 0.39282 0.0
C253 C 0.02609 0.54809 0.39829 0.0
C254 C 0.99038 0.51603 0.34943 0.0
C255 C 0.96304 0.49266 0.3415 0.0
C256 C 0.95461 0.46784 0.36328 0.0
C257 C 0.9287 0.44599 0.35595 0.0
C258 C 0.91114 0.44864 0.32659 0.0
C259 C 0.91947 0.47313 0.30439 0.0
C260 C 0.94535 0.49506 0.31166 0.0
C261 C 0.0945 0.5627 0.24464 0.0
C262 C 0.0871 0.56929 0.20365 0.0
C263 C 0.07765 0.55604 0.28194 0.0
C264 C 0.05325 0.55626 0.27937 0.0
C265 C 0.04603 0.56326 0.23866 0.0
C266 C 0.06276 0.5697 0.20119 0.0
C267 C 0.03472 0.54789 0.31851 0.0
C268 C 1.00796 0.52695 0.31286 0.0
C269 C 0.04371 0.55899 0.36175 0.0
C270 C 0.07118 0.58221 0.36965 0.0
C271 C 0.08065 0.60625 0.34492 0.0
C272 C 0.10665 0.62795 0.35216 0.0
C273 C 0.12334 0.62591 0.38423 0.0
C274 C 0.11403 0.6022 0.40923 0.0
C275 C 0.08804 0.58044 0.40211 0.0
H276 H 0.14347 0.64272 0.38977 0.0
H277 H 0.89109 0.4317 0.32095 0.0
H278 H 0.49134 0.06122 0.33708 0.0
H279 H 0.47465 0.0296 0.40029 0.0
H280 H 0.55248 0.07356 0.46398 0.0
H281 H 0.56923 0.10529 0.40146 0.0
H282 H 0.53282 0.01779 0.45835 0.0
H283 H 0.50213 0.07906 0.50445 0.0
H284 H 0.47748 0.10398 0.49573 0.0
H285 H 0.40305 0.02897 0.48142 0.0
H286 H 0.42735 1.00359 0.48943 0.0
H287 H 0.51434 0.97019 0.67798 0.0
H288 H 0.52252 0.99826 0.612 0.0
H289 H 0.44018 0.94707 0.5696 0.0
H290 H 0.4317 0.91861 0.63616 0.0
H291 H 0.45773 1.00223 0.55941 0.0
H292 H 0.48689 0.94055 0.51773 0.0
H293 H 0.5107 0.91475 0.52583 0.0
H294 H 0.58666 0.98885 0.52931 0.0
H295 H 0.56328 0.01514 0.52191 0.0
C296 C 0.50481 0.06434 0.36479 0.0
C297 C 0.53165 0.08578 0.36411 0.0
C298 C 0.49522 0.04626 0.40089 0.0
C299 C 0.51235 0.0492 0.43679 0.0
C300 C 0.53895 0.07087 0.43656 0.0
C301 C 0.54845 0.08908 0.40083 0.0
C302 C 0.50309 0.02916 0.47381 0.0
C303 C 0.51657 0.01457 0.48069 0.0
C304 C 0.48121 0.02422 0.5019 0.0
C305 C 0.46661 0.03944 0.49697 0.0
C306 C 0.48055 0.06788 0.49898 0.0
C307 C 0.46663 0.08209 0.49427 0.0
C308 C 0.43873 0.06807 0.48787 0.0
C309 C 0.42467 0.0398 0.48628 0.0
C310 C 0.43851 0.0255 0.49093 0.0
C311 C 0.49786 0.96482 0.65481 0.0
C312 C 0.47237 0.94201 0.66231 0.0
C313 C 0.50263 0.9809 0.61696 0.0
C314 C 0.48207 0.9746 0.58557 0.0
C315 C 0.45636 0.95224 0.59335 0.0
C316 C 0.45158 0.93597 0.63129 0.0
C317 C 0.48792 0.99136 0.54455 0.0
C318 C 0.47381 1.00525 0.5368 0.0
C319 C 0.50908 0.99553 0.5153 0.0
C320 C 0.5233 0.97983 0.51963 0.0
C321 C 0.50866 0.95136 0.52059 0.0
C322 C 0.52208 0.93664 0.52499 0.0
C323 C 0.55017 0.95016 0.52818 0.0
C324 C 0.5649 0.97842 0.52687 0.0
C325 C 0.55157 0.99324 0.52252 0.0
H326 H 0.56053 0.93873 0.53157 0.0
H327 H 0.42798 0.07911 0.48426 0.0
H328 H 0.51956 0.48616 0.86651 0.0
H329 H 0.50013 0.49382 0.79935 0.0
H330 H 0.51522 0.43744 0.72641 0.0
H331 H 0.53508 0.42981 0.7938 0.0
H332 H 0.53242 0.48421 0.68071 0.0
H333 H 0.45104 0.42093 0.75417 0.0
H334 H 0.41902 0.4019 0.81689 0.0
H335 H 0.41236 0.47362 0.82156 0.0
H336 H 0.44465 0.49326 0.75927 0.0
H337 H 0.46723 0.49564 0.48721 0.0
H338 H 0.47711 0.47585 0.55197 0.0
H339 H 0.46307 0.52757 0.63986 0.0
H340 H 0.45264 0.5471 0.57531 0.0
H341 H 0.44299 0.4783 0.6755 0.0
H342 H 0.52721 0.54338 0.60873 0.0
H343 H 0.56017 0.56388 0.54756 0.0
H344 H 0.56232 0.49009 0.53203 0.0
H345 H 0.52907 0.46903 0.59276 0.0
C346 C 0.51854 0.47513 0.83637 0.0
C347 C 0.5289 0.45735 0.83559 0.0
C348 C 0.50726 0.47945 0.79797 0.0
C349 C 0.50594 0.46603 0.75786 0.0
C350 C 0.51593 0.44796 0.75703 0.0
C351 C 0.52717 0.44353 0.79561 0.0
C352 C 0.49551 0.47216 0.71644 0.0
C353 C 0.51262 0.48236 0.67924 0.0
C354 C 0.46997 0.47044 0.71487 0.0
C355 C 0.45043 0.45865 0.75223 0.0
C356 C 0.44291 0.43273 0.76878 0.0
C357 C 0.42468 0.42182 0.80422 0.0
C358 C 0.4137 0.43656 0.82325 0.0
C359 C 0.42089 0.46223 0.8068 0.0
C360 C 0.43912 0.47324 0.77138 0.0
C361 C 0.46595 0.50262 0.52033 0.0
C362 C 0.45935 0.52314 0.52599 0.0
C363 C 0.47173 0.49135 0.55736 0.0
C364 C 0.47133 0.50054 0.60081 0.0
C365 C 0.46361 0.52019 0.60669 0.0
C366 C 0.45769 0.53138 0.56969 0.0
C367 C 0.48001 0.49058 0.63998 0.0
C368 C 0.46262 0.47977 0.67677 0.0
C369 C 0.50539 0.49189 0.64133 0.0
C370 C 0.52542 0.50454 0.60491 0.0
C371 C 0.53455 0.53146 0.59202 0.0
C372 C 0.55331 0.54319 0.55748 0.0
C373 C 0.56327 0.52827 0.53582 0.0
C374 C 0.55455 0.50161 0.54877 0.0
C375 C 0.53575 0.48977 0.58326 0.0
H376 H 0.5778 0.53739 0.50909 0.0
H377 H 0.3996 0.42808 0.85069 0.0
H378 H 0.16965 0.52547 0.25117 0.0
H379 H 0.20578 0.52361 0.29157 0.0
H380 H 0.25971 0.56259 0.18094 0.0
H381 H 0.22351 0.56433 0.13994 0.0
H382 H 0.26673 0.52239 0.21707 0.0
H383 H 0.26175 0.59917 0.27052 0.0
H384 H 0.23938 0.62296 0.30162 0.0
H385 H 0.21826 0.5737 0.41973 0.0
H386 H 0.2402 0.54934 0.38902 0.0
H387 H 0.39142 0.57229 0.33229 0.0
H388 H 0.35287 0.56686 0.2889 0.0
H389 H 0.30106 0.5302 0.40279 0.0
H390 H 0.33969 0.53589 0.44676 0.0
H391 H 0.29215 0.56775 0.36522 0.0
H392 H 0.29907 0.49212 0.31254 0.0
H393 H 0.32194 0.46892 0.28107 0.0
H394 H 0.34005 0.51649 0.16138 0.0
H395 H 0.31761 0.54026 0.1924 0.0
C396 C 0.18909 0.5334 0.23511 0.0
C397 C 0.19371 0.54527 0.1924 0.0
C398 C 0.20978 0.5324 0.25839 0.0
C399 C 0.2356 0.54337 0.23963 0.0
C400 C 0.23998 0.55409 0.19616 0.0
C401 C 0.21926 0.5551 0.17279 0.0
C402 C 0.25826 0.54474 0.2662 0.0
C403 C 0.27249 0.53255 0.24924 0.0
C404 C 0.26546 0.55755 0.30861 0.0
C405 C 0.25237 0.57224 0.32726 0.0
C406 C 0.25215 0.59327 0.30297 0.0
C407 C 0.23958 0.60687 0.32055 0.0
C408 C 0.22733 0.59979 0.36257 0.0
C409 C 0.22771 0.57913 0.38715 0.0
C410 C 0.24023 0.56543 0.36969 0.0
C411 C 0.37182 0.56293 0.34815 0.0
C412 C 0.36868 0.55453 0.3931 0.0
C413 C 0.34973 0.55971 0.32315 0.0
C414 C 0.32396 0.54786 0.34238 0.0
C415 C 0.32073 0.53935 0.38719 0.0
C416 C 0.34283 0.54255 0.41225 0.0
C417 C 0.30064 0.54532 0.31622 0.0
C418 C 0.28632 0.55741 0.3332 0.0
C419 C 0.29344 0.53248 0.27381 0.0
C420 C 0.30686 0.51815 0.25498 0.0
C421 C 0.30811 0.49779 0.27965 0.0
C422 C 0.32096 0.4845 0.26187 0.0
C423 C 0.3325 0.49127 0.2193 0.0
C424 C 0.33113 0.51129 0.19438 0.0
C425 C 0.31832 0.52466 0.21202 0.0
H426 H 0.34244 0.48096 0.2056 0.0
H427 H 0.21761 0.61035 0.37613 0.0
H428 H 0.65166 0.24688 0.34015 0.0
H429 H 0.69383 0.2778 0.3777 0.0
H430 H 0.7197 0.21876 0.36731 0.0
H431 H 0.67724 0.18744 0.32936 0.0
H432 H 0.72846 0.24227 0.45245 0.0
H433 H 0.74784 0.27127 0.30052 0.0
H434 H 0.73966 0.28524 0.22678 0.0
H435 H 0.74005 0.35386 0.28688 0.0
H436 H 0.74786 0.34008 0.36111 0.0
H437 H 0.86812 0.37863 0.46579 0.0
H438 H 0.8329 0.33994 0.4251 0.0
H439 H 0.77748 0.32462 0.53353 0.0
H440 H 0.81273 0.3631 0.57478 0.0
H441 H 0.78768 0.33496 0.39401 0.0
H442 H 0.7294 0.25788 0.53539 0.0
H443 H 0.73889 0.24307 0.60733 0.0
H444 H 0.81976 0.269 0.56465 0.0
H445 H 0.81066 0.28363 0.49224 0.0
C446 C 0.6663 0.24041 0.34561 0.0
C447 C 0.66108 0.21467 0.33162 0.0
C448 C 0.69046 0.25819 0.36703 0.0
C449 C 0.70999 0.25067 0.37509 0.0
C450 C 0.70489 0.22496 0.36138 0.0
C451 C 0.68071 0.20716 0.3395 0.0
C452 C 0.73553 0.26983 0.39816 0.0
C453 C 0.74153 0.2625 0.43963 0.0
C454 C 0.7528 0.29606 0.38106 0.0
C455 C 0.74825 0.30452 0.33644 0.0
C456 C 0.74599 0.28923 0.29807 0.0
C457 C 0.74145 0.29714 0.25617 0.0
C458 C 0.73929 0.3204 0.25216 0.0
C459 C 0.74172 0.33584 0.29004 0.0
C460 C 0.74624 0.32801 0.33203 0.0
C461 C 0.84858 0.36678 0.48139 0.0
C462 C 0.84325 0.37408 0.52353 0.0
C463 C 0.82842 0.34468 0.45797 0.0
C464 C 0.80251 0.32928 0.47618 0.0
C465 C 0.79739 0.33592 0.51897 0.0
C466 C 0.81758 0.35802 0.54249 0.0
C467 C 0.78036 0.30772 0.44903 0.0
C468 C 0.77487 0.31466 0.40677 0.0
C469 C 0.7638 0.28107 0.46524 0.0
C470 C 0.76939 0.27205 0.50851 0.0
C471 C 0.74917 0.26031 0.54127 0.0
C472 C 0.75449 0.25197 0.58215 0.0
C473 C 0.77993 0.25516 0.5906 0.0
C474 C 0.80009 0.26663 0.55813 0.0
C475 C 0.79487 0.27499 0.51718 0.0
H476 H 0.78401 0.24871 0.62228 0.0
H477 H 0.73577 0.32648 0.2197 0.0
H478 H 0.51497 0.86118 0.65681 0.0
H479 H 0.51822 0.82418 0.62146 0.0
H480 H 0.45046 0.76626 0.69933 0.0
H481 H 0.44775 0.80307 0.73585 0.0
H482 H 0.48552 0.75007 0.69326 0.0
H483 H 0.44503 0.78367 0.58699 0.0
H484 H 0.4439 0.81891 0.54066 0.0
H485 H 0.51569 0.83277 0.47264 0.0
H486 H 0.51742 0.79782 0.51897 0.0
H487 H 0.42775 0.63084 0.56633 0.0
H488 H 0.43818 0.6728 0.60402 0.0
H489 H 0.50768 0.71694 0.51942 0.0
H490 H 0.49708 0.67473 0.48073 0.0
H491 H 0.47923 0.74308 0.52771 0.0
H492 H 0.51554 0.70441 0.62844 0.0
H493 H 0.51534 0.66844 0.67452 0.0
H494 H 0.45023 0.66339 0.75297 0.0
H495 H 0.44977 0.69907 0.70697 0.0
C496 C 0.50098 0.84057 0.6668 0.0
C497 C 0.48098 0.8351 0.69895 0.0
C498 C 0.50275 0.8194 0.64634 0.0
C499 C 0.48422 0.79232 0.65695 0.0
C500 C 0.46497 0.78693 0.69038 0.0
C501 C 0.46341 0.80805 0.71124 0.0
C502 C 0.48398 0.76945 0.63235 0.0
C503 C 0.48398 0.7485 0.65708 0.0
C504 C 0.48276 0.76764 0.58499 0.0
C505 C 0.48151 0.78836 0.55675 0.0
C506 C 0.46065 0.79435 0.56231 0.0
C507 C 0.4599 0.81425 0.53605 0.0
C508 C 0.47976 0.82813 0.50383 0.0
C509 C 0.50035 0.82204 0.49767 0.0
C510 C 0.50122 0.80218 0.52389 0.0
C511 C 0.44535 0.6494 0.55568 0.0
C512 C 0.46165 0.64935 0.52056 0.0
C513 C 0.45136 0.67342 0.5775 0.0
C514 C 0.47398 0.69801 0.56512 0.0
C515 C 0.49021 0.69818 0.52973 0.0
C516 C 0.48416 0.67404 0.50772 0.0
C517 C 0.48004 0.72343 0.58874 0.0
C518 C 0.48116 0.74484 0.56384 0.0
C519 C 0.48213 0.72561 0.63597 0.0
C520 C 0.48253 0.70433 0.66405 0.0
C521 C 0.50107 0.69552 0.65535 0.0
C522 C 0.50109 0.67519 0.68148 0.0
C523 C 0.48276 0.66361 0.71661 0.0
C524 C 0.46442 0.67238 0.72575 0.0
C525 C 0.4643 0.69269 0.6997 0.0
H526 H 0.48279 0.64786 0.73678 0.0
H527 H 0.47916 0.84356 0.48357 0.0
H528 H 0.66488 0.46062 0.91026 0.0
H529 H 0.7056 0.46509 0.87564 0.0
H530 H 0.68103 0.48121 0.74818 0.0
H531 H 0.64018 0.47645 0.78234 0.0
H532 H 0.69513 0.44348 0.73984 0.0
H533 H 0.73412 0.5313 0.80678 0.0
H534 H 0.74454 0.56433 0.8676 0.0
H535 H 0.78484 0.52991 0.94063 0.0
H536 H 0.77434 0.49641 0.8805 0.0
H537 H 0.8163 0.4727 0.62797 0.0
H538 H 0.78025 0.47866 0.66024 0.0
H539 H 0.79876 0.46063 0.79133 0.0
H540 H 0.83484 0.45491 0.75958 0.0
H541 H 0.78852 0.50205 0.79499 0.0
H542 H 0.74676 0.41252 0.73138 0.0
H543 H 0.73609 0.3789 0.67145 0.0
H544 H 0.70065 0.41628 0.59306 0.0
H545 H 0.71146 0.45037 0.65234 0.0
C546 C 0.6683 0.46547 0.87499 0.0
C547 C 0.64918 0.46809 0.84909 0.0
C548 C 0.69166 0.46811 0.85524 0.0
C549 C 0.69647 0.47361 0.80927 0.0
C550 C 0.67775 0.47691 0.78365 0.0
C551 C 0.65441 0.47427 0.80333 0.0
C552 C 0.72017 0.47434 0.78738 0.0
C553 C 0.71559 0.45668 0.75141 0.0
C554 C 0.74684 0.49105 0.80307 0.0
C555 C 0.75322 0.51118 0.83929 0.0
C556 C 0.74501 0.53063 0.83597 0.0
C557 C 0.75097 0.54946 0.87029 0.0
C558 C 0.76528 0.54917 0.908 0.0
C559 C 0.77373 0.53009 0.91142 0.0
C560 C 0.7678 0.51119 0.8772 0.0
C561 C 0.81284 0.47024 0.66371 0.0
C562 C 0.82834 0.46313 0.69112 0.0
C563 C 0.79217 0.47356 0.68209 0.0
C564 C 0.78659 0.46979 0.72817 0.0
C565 C 0.80265 0.46362 0.75572 0.0
C566 C 0.82322 0.46023 0.73742 0.0
C567 C 0.76341 0.47118 0.74761 0.0
C568 C 0.76806 0.48911 0.78318 0.0
C569 C 0.73677 0.45467 0.73167 0.0
C570 C 0.7302 0.43418 0.69605 0.0
C571 C 0.7369 0.41371 0.7012 0.0
C572 C 0.73079 0.39454 0.66738 0.0
C573 C 0.71777 0.3955 0.62841 0.0
C574 C 0.71078 0.41559 0.62323 0.0
C575 C 0.71688 0.43483 0.65693 0.0
H576 H 0.71305 0.38065 0.60227 0.0
H577 H 0.76988 0.56378 0.93454 0.0
H578 H 0.38122 0.84912 0.91859 0.0
H579 H 0.34219 0.81139 0.95399 0.0
H580 H 0.31965 0.76866 0.8281 0.0
H581 H 0.35857 0.80662 0.79211 0.0
H582 H 0.27562 0.76154 0.87315 0.0
H583 H 0.35369 0.7542 0.90602 0.0
H584 H 0.39985 0.76969 0.93302 0.0
H585 H 0.37771 0.78207 0.06444 0.0
H586 H 0.33147 0.767 0.03803 0.0
H587 H 0.19927 0.62628 0.95341 0.0
H588 H 0.23242 0.66887 0.919 0.0
H589 H 0.24692 0.70908 0.04669 0.0
H590 H 0.21349 0.66641 0.0815 0.0
H591 H 0.29398 0.71884 1.003 0.0
H592 H 0.21414 0.72248 0.96935 0.0
H593 H 0.168 0.70537 0.94082 0.0
H594 H 0.19346 0.698 0.80907 0.0
H595 H 0.2397 0.71469 0.83695 0.0
C596 C 0.36783 0.83185 0.89821 0.0
C597 C 0.3732 0.83082 0.85255 0.0
C598 C 0.34555 0.81023 0.9186 0.0
C599 C 0.32825 0.78695 0.89393 0.0
C600 C 0.33279 0.78636 0.84786 0.0
C601 C 0.35507 0.80807 0.82734 0.0
C602 C 0.30626 0.76282 0.91668 0.0
C603 C 0.27967 0.75205 0.90126 0.0
C604 C 0.31143 0.75069 0.95392 0.0
C605 C 0.33921 0.75977 0.96992 0.0
C606 C 0.35872 0.76045 0.94058 0.0
C607 C 0.38489 0.76911 0.95579 0.0
C608 C 0.39174 0.77694 1.00038 0.0
C609 C 0.3724 0.77605 0.02988 0.0
C610 C 0.3462 0.76743 1.01482 0.0
C611 C 0.20933 0.64421 0.97419 0.0
C612 C 0.20378 0.64294 1.02025 0.0
C613 C 0.22819 0.66858 0.95438 0.0
C614 C 0.24204 0.69219 0.98021 0.0
C615 C 0.2364 0.6911 0.02614 0.0
C616 C 0.21725 0.66674 0.04593 0.0
C617 C 0.26337 0.71756 0.9595 0.0
C618 C 0.28989 0.7285 0.97518 0.0
C619 C 0.25813 0.72963 0.92228 0.0
C620 C 0.23035 0.71961 0.90536 0.0
C621 C 0.20986 0.71699 0.93438 0.0
C622 C 0.18369 0.70741 0.9183 0.0
C623 C 0.17779 0.70054 0.87318 0.0
C624 C 0.19806 0.7033 0.84402 0.0
C625 C 0.22426 0.71285 0.85994 0.0
H626 H 0.15752 0.69314 0.86079 0.0
H627 H 0.412 0.78363 1.01211 0.0
H628 H 0.53482 0.37658 0.08611 0.0
H629 H 0.5329 0.33867 0.12722 0.0
H630 H 0.56393 0.31749 1.01217 0.0
H631 H 0.56575 0.35539 0.97049 0.0
H632 H 0.52369 0.27251 0.05337 0.0
H633 H 0.60543 0.35218 0.09667 0.0
H634 H 0.63328 0.39888 0.12445 0.0
H635 H 0.58996 0.37673 0.24867 0.0
H636 H 0.56157 0.32994 0.22136 0.0
H637 H 0.57223 0.19431 0.16309 0.0
H638 H 0.5668 0.22771 0.12014 0.0
H639 H 0.53675 0.24788 0.2376 0.0
H640 H 0.5423 0.21453 0.28106 0.0
H641 H 0.57506 0.29278 0.19565 0.0
H642 H 0.49439 0.21213 0.15269 0.0
H643 H 0.46731 0.16546 0.12437 0.0
H644 H 0.50939 0.18932 0.99909 0.0
H645 H 0.53701 0.23608 0.02689 0.0
C646 C 0.54103 0.36376 0.06929 0.0
C647 C 0.55063 0.36919 0.02502 0.0
C648 C 0.54001 0.34212 0.09297 0.0
C649 C 0.54865 0.32546 0.07304 0.0
C650 C 0.55724 0.33013 0.02829 0.0
C651 C 0.55831 0.35184 1.00453 0.0
C652 C 0.5496 0.30382 0.09947 0.0
C653 C 0.53516 0.27697 0.08422 0.0
C654 C 0.56412 0.30954 0.14022 0.0
C655 C 0.58118 0.33764 0.15678 0.0
C656 C 0.60169 0.35732 0.12977 0.0
C657 C 0.6176 0.3838 0.14545 0.0
C658 C 0.61334 0.39079 0.18825 0.0
C659 C 0.5932 0.37129 0.2155 0.0
C660 C 0.57721 0.34479 0.19994 0.0
C661 C 0.56427 0.20568 0.17981 0.0
C662 C 0.55773 0.20173 0.22561 0.0
C663 C 0.56106 0.22471 0.15509 0.0
C664 C 0.55117 0.24019 0.17551 0.0
C665 C 0.54437 0.23613 0.22111 0.0
C666 C 0.54747 0.21699 0.24587 0.0
C667 C 0.54908 0.2614 0.14968 0.0
C668 C 0.56342 0.28825 0.16497 0.0
C669 C 0.53456 0.25566 0.10892 0.0
C670 C 0.51795 0.22757 0.09204 0.0
C671 C 0.49803 0.20738 0.11923 0.0
C672 C 0.48255 0.18092 0.10325 0.0
C673 C 0.48667 0.17441 0.06 0.0
C674 C 0.50624 0.19438 0.0326 0.0
C675 C 0.52179 0.22088 0.04844 0.0
H676 H 0.47467 0.15391 0.04768 0.0
H677 H 0.62569 0.4113 0.20034 0.0
loop_
_geom_bond_atom_site_label_1
_geom_bond_atom_site_label_2
_geom_bond_distance
_geom_bond_site_symmetry_2
_ccdc_geom_bond_type
Mg0 O7 2.141 . S
Mg0 O8 2.048 . S
Mg0 O9 2.048 . S
Mg0 O12 2.141 . S
C1 O2 1.313 . S
C1 O8 1.195 . S
O2 C1 1.313 . S
C3 O4 1.245 . S
C3 O12 1.289 . S
O4 C3 1.245 . S
C5 O6 1.245 . S
C5 O7 1.289 . S
O6 C5 1.245 . S
O7 Mg0 2.141 . S
O7 C5 1.289 . S
O8 Mg0 2.048 . S
O8 C1 1.195 . S
O9 Mg0 2.048 . S
O9 C10 1.195 . S
C10 O9 1.195 . S
C10 O11 1.313 . S
O11 C10 1.313 . S
O12 Mg0 2.141 . S
O12 C3 1.289 . S
Mg13 O20 2.141 . S
Mg13 O21 2.048 . S
Mg13 O22 2.048 . S
Mg13 O25 2.141 . S
C14 O15 1.313 . S
C14 O21 1.195 . S
O15 C14 1.313 . S
C16 O17 1.245 . S
C16 O25 1.289 . S
O17 C16 1.245 . S
C18 O19 1.245 . S
C18 O20 1.289 . S
O19 C18 1.245 . S
O20 Mg13 2.141 . S
O20 C18 1.289 . S
O21 Mg13 2.048 . S
O21 C14 1.195 . S
O22 Mg13 2.048 . S
O22 C23 1.195 . S
C23 O22 1.195 . S
C23 O24 1.313 . S
O24 C23 1.313 . S
O25 Mg13 2.141 . S
O25 C16 1.289 . S
Mg26 O33 2.141 . S
Mg26 O34 2.048 . S
Mg26 O35 2.048 . S
Mg26 O38 2.141 . S
C27 O28 1.313 . S
C27 O34 1.195 . S
O28 C27 1.313 . S
C29 O30 1.245 . S
C29 O38 1.289 . S
O30 C29 1.245 . S
C31 O32 1.245 . S
C31 O33 1.289 . S
O32 C31 1.245 . S
O33 Mg26 2.141 . S
O33 C31 1.289 . S
O34 Mg26 2.048 . S
O34 C27 1.195 . S
O35 Mg26 2.048 . S
O35 C36 1.195 . S
C36 O35 1.195 . S
C36 O37 1.313 . S
O37 C36 1.313 . S
O38 Mg26 2.141 . S
O38 C29 1.289 . S
Mg39 O46 2.141 . S
Mg39 O47 2.048 . S
Mg39 O48 2.048 . S
Mg39 O51 2.141 . S
C40 O41 1.313 . S
C40 O47 1.195 . S
O41 C40 1.313 . S
C42 O43 1.245 . S
C42 O51 1.289 . S
O43 C42 1.245 . S
C44 O45 1.245 . S
C44 O46 1.289 . S
O45 C44 1.245 . S
O46 Mg39 2.141 . S
O46 C44 1.289 . S
O47 Mg39 2.048 . S
O47 C40 1.195 . S
O48 Mg39 2.048 . S
O48 C49 1.195 . S
C49 O48 1.195 . S
C49 O50 1.313 . S
O50 C49 1.313 . S
O51 Mg39 2.141 . S
O51 C42 1.289 . S
Mg52 O59 2.141 . S
Mg52 O60 2.048 . S
Mg52 O61 2.048 . S
Mg52 O64 2.141 . S
C53 O54 1.313 . S
C53 O60 1.195 . S
O54 C53 1.313 . S
C55 O56 1.245 . S
C55 O64 1.289 . S
O56 C55 1.245 . S
C57 O58 1.245 . S
C57 O59 1.289 . S
O58 C57 1.245 . S
O59 Mg52 2.141 . S
O59 C57 1.289 . S
O60 Mg52 2.048 . S
O60 C53 1.195 . S
O61 Mg52 2.048 . S
O61 C62 1.195 . S
C62 O61 1.195 . S
C62 O63 1.313 . S
O63 C62 1.313 . S
O64 Mg52 2.141 . S
O64 C55 1.289 . S
Mg65 O72 2.141 . S
Mg65 O73 2.048 . S
Mg65 O74 2.048 . S
Mg65 O77 2.141 . S
C66 O67 1.313 . S
C66 O73 1.195 . S
O67 C66 1.313 . S
C68 O69 1.245 . S
C68 O77 1.289 . S
O69 C68 1.245 . S
C70 O71 1.245 . S
C70 O72 1.289 . S
O71 C70 1.245 . S
O72 Mg65 2.141 . S
O72 C70 1.289 . S
O73 Mg65 2.048 . S
O73 C66 1.195 . S
O74 Mg65 2.048 . S
O74 C75 1.195 . S
C75 O74 1.195 . S
C75 O76 1.313 . S
O76 C75 1.313 . S
O77 Mg65 2.141 . S
O77 C68 1.289 . S
H78 C96 0.951 . S
H79 C98 0.951 . S
H80 C100 0.950 . S
H81 C101 0.950 . S
H82 C103 0.950 . S
H83 C106 0.950 . S
H84 C107 0.950 . S
H85 C109 0.950 . S
H86 C110 0.950 . S
H87 C111 0.951 . S
H88 C113 0.951 . S
H89 C115 0.950 . S
H90 C116 0.950 . S
H91 C118 0.935 . S
H92 C121 0.950 . S
H93 C122 0.950 . S
H94 C124 0.950 . S
H95 C125 0.950 . S
C96 H78 0.951 . S
C96 C97 1.366 . S
C96 C98 1.388 . S
C97 C96 1.366 . S
C97 C101 1.385 . S
C98 H79 0.951 . S
C98 C96 1.388 . S
C98 C99 1.366 . S
C99 C98 1.366 . S
C99 C100 1.414 . S
C99 C102 1.499 . S
C100 H80 0.950 . S
C100 C99 1.414 . S
C100 C101 1.374 . S
C101 H81 0.950 . S
C101 C97 1.385 . S
C101 C100 1.374 . S
C102 C99 1.499 . S
C102 C103 1.373 . S
C102 C104 1.389 . S
C103 H82 0.950 . S
C103 C102 1.373 . S
C103 C119 1.377 1_455 S
C104 C102 1.389 . S
C104 C105 1.524 . S
C104 C118 1.377 . S
C105 C104 1.524 . S
C105 C106 1.397 . S
C105 C110 1.363 . S
C106 H83 0.950 . S
C106 C105 1.397 . S
C106 C107 1.334 . S
C107 H84 0.950 . S
C107 C106 1.334 . S
C107 C108 1.287 . S
C108 C107 1.287 . S
C108 C109 1.524 . S
C108 H127 0.913 . S
C109 H85 0.950 . S
C109 C108 1.524 . S
C109 C110 1.415 . S
C110 H86 0.950 . S
C110 C105 1.363 . S
C110 C109 1.415 . S
C111 H87 0.951 . S
C111 C112 1.366 . S
C111 C113 1.388 . S
C112 C111 1.366 . S
C112 C116 1.385 . S
C113 H88 0.951 . S
C113 C111 1.388 . S
C113 C114 1.366 . S
C114 C113 1.366 . S
C114 C115 1.414 . S
C114 C117 1.499 . S
C115 H89 0.950 . S
C115 C114 1.414 . S
C115 C116 1.374 . S
C116 H90 0.950 . S
C116 C112 1.385 . S
C116 C115 1.374 . S
C117 C114 1.499 . S
C117 C118 1.373 1_655 S
C117 C119 1.389 . S
C118 H91 0.935 . S
C118 C104 1.377 . S
C118 C117 1.373 1_455 S
C119 C103 1.377 1_655 S
C119 C117 1.389 . S
C119 C120 1.524 . S
C120 C119 1.524 . S
C120 C121 1.397 . S
C120 C125 1.363 . S
C121 H92 0.950 . S
C121 C120 1.397 . S
C121 C122 1.334 . S
C122 H93 0.950 . S
C122 C121 1.334 . S
C122 C123 1.287 . S
C123 C122 1.287 . S
C123 C124 1.524 . S
C123 H126 0.999 . S
C124 H94 0.950 . S
C124 C123 1.524 . S
C124 C125 1.415 . S
C125 H95 0.950 . S
C125 C120 1.363 . S
C125 C124 1.415 . S
H126 C123 0.999 . S
H127 C108 0.913 . S
H128 C146 0.951 . S
H129 C148 0.951 . S
H130 C150 0.950 . S
H131 C151 0.950 . S
H132 C153 0.950 . S
H133 C156 0.950 . S
H134 C157 0.950 . S
H135 C159 0.950 . S
H136 C160 0.950 . S
H137 C161 0.951 . S
H138 C163 0.951 . S
H139 C165 0.950 . S
H140 C166 0.950 . S
H141 C168 0.952 . S
H142 C171 0.950 . S
H143 C172 0.950 . S
H144 C174 0.950 . S
H145 C175 0.950 . S
C146 H128 0.951 . S
C146 C147 1.366 . S
C146 C148 1.388 . S
C147 C146 1.366 . S
C147 C151 1.385 . S
C148 H129 0.951 . S
C148 C146 1.388 . S
C148 C149 1.366 . S
C149 C148 1.366 . S
C149 C150 1.414 . S
C149 C152 1.499 . S
C150 H130 0.950 . S
C150 C149 1.414 . S
C150 C151 1.374 . S
C151 H131 0.950 . S
C151 C147 1.385 . S
C151 C150 1.374 . S
C152 C149 1.499 . S
C152 C153 1.373 1_556 S
C152 C154 1.389 1_565 S
C153 H132 0.950 . S
C153 C152 1.373 1_554 S
C153 C169 1.377 . S
C154 C152 1.389 1_545 S
C154 C155 1.524 . S
C154 C168 1.399 . S
C155 C154 1.524 . S
C155 C156 1.397 . S
C155 C160 1.363 . S
C156 H133 0.950 . S
C156 C155 1.397 . S
C156 C157 1.334 . S
C157 H134 0.950 . S
C157 C156 1.334 . S
C157 C158 1.287 . S
C158 C157 1.287 . S
C158 C159 1.524 . S
C158 H177 0.913 . S
C159 H135 0.950 . S
C159 C158 1.524 . S
C159 C160 1.415 . S
C160 H136 0.950 . S
C160 C155 1.363 . S
C160 C159 1.415 . S
C161 H137 0.951 . S
C161 C162 1.366 . S
C161 C163 1.388 . S
C162 C161 1.366 . S
C162 C166 1.385 . S
C163 H138 0.951 . S
C163 C161 1.388 . S
C163 C164 1.366 . S
C164 C163 1.366 . S
C164 C165 1.414 . S
C164 C167 1.499 . S
C165 H139 0.950 . S
C165 C164 1.414 . S
C165 C166 1.374 . S
C166 H140 0.950 . S
C166 C162 1.385 . S
C166 C165 1.374 . S
C167 C164 1.499 . S
C167 C168 1.350 1_554 S
C167 C169 1.389 1_545 S
C168 H141 0.952 . S
C168 C154 1.399 . S
C168 C167 1.350 1_556 S
C169 C153 1.377 . S
C169 C167 1.389 1_565 S
C169 C170 1.524 . S
C170 C169 1.524 . S
C170 C171 1.397 . S
C170 C175 1.363 . S
C171 H142 0.950 . S
C171 C170 1.397 . S
C171 C172 1.334 . S
C172 H143 0.950 . S
C172 C171 1.334 . S
C172 C173 1.287 . S
C173 C172 1.287 . S
C173 C174 1.524 . S
C173 H176 0.999 . S
C174 H144 0.950 . S
C174 C173 1.524 . S
C174 C175 1.415 . S
C175 H145 0.950 . S
C175 C170 1.363 . S
C175 C174 1.415 . S
H176 C173 0.999 . S
H177 C158 0.913 . S
H178 C196 0.951 . S
H179 C198 0.951 . S
H180 C200 0.950 . S
H181 C201 0.950 . S
H182 C203 0.950 . S
H183 C206 0.950 . S
H184 C207 0.950 . S
H185 C209 0.950 . S
H186 C210 0.950 . S
H187 C211 0.951 . S
H188 C213 0.951 . S
H189 C215 0.950 . S
H190 C216 0.931 1_556 S
H191 C218 0.950 . S
H192 C221 0.950 . S
H193 C222 0.950 . S
H194 C224 0.950 . S
H195 C225 0.950 . S
C196 H178 0.951 . S
C196 C197 1.366 . S
C196 C198 1.388 . S
C197 C196 1.366 . S
C197 C201 1.385 . S
C198 H179 0.951 . S
C198 C196 1.388 . S
C198 C199 1.366 . S
C199 C198 1.366 . S
C199 C200 1.414 . S
C199 C202 1.499 . S
C200 H180 0.950 . S
C200 C199 1.414 . S
C200 C201 1.374 . S
C201 H181 0.950 . S
C201 C197 1.385 . S
C201 C200 1.374 . S
C202 C199 1.499 . S
C202 C203 1.373 . S
C202 C204 1.389 . S
C203 H182 0.950 . S
C203 C202 1.373 . S
C203 C219 1.377 . S
C204 C202 1.389 . S
C204 C205 1.524 . S
C204 C218 1.377 . S
C205 C204 1.524 . S
C205 C206 1.397 . S
C205 C210 1.363 . S
C206 H183 0.950 . S
C206 C205 1.397 . S
C206 C207 1.334 . S
C207 H184 0.950 . S
C207 C206 1.334 . S
C207 C208 1.287 . S
C208 C207 1.287 . S
C208 C209 1.524 . S
C208 H227 0.913 . S
C209 H185 0.950 . S
C209 C208 1.524 . S
C209 C210 1.415 . S
C210 H186 0.950 . S
C210 C205 1.363 . S
C210 C209 1.415 . S
C211 H187 0.951 . S
C211 C212 1.366 . S
C211 C213 1.388 . S
C212 C211 1.366 . S
C212 C216 1.385 . S
C213 H188 0.951 . S
C213 C211 1.388 . S
C213 C214 1.366 . S
C214 C213 1.366 . S
C214 C215 1.414 . S
C214 C217 1.499 . S
C215 H189 0.950 . S
C215 C214 1.414 . S
C215 C216 1.374 . S
C216 H190 0.931 1_554 S
C216 C212 1.385 . S
C216 C215 1.374 . S
C217 C214 1.499 . S
C217 C218 1.373 . S
C217 C219 1.389 . S
C218 H191 0.950 . S
C218 C204 1.377 . S
C218 C217 1.373 . S
C219 C203 1.377 . S
C219 C217 1.389 . S
C219 C220 1.524 . S
C220 C219 1.524 . S
C220 C221 1.397 . S
C220 C225 1.363 . S
C221 H192 0.950 . S
C221 C220 1.397 . S
C221 C222 1.334 . S
C222 H193 0.950 . S
C222 C221 1.334 . S
C222 C223 1.287 . S
C223 C222 1.287 . S
C223 C224 1.524 . S
C223 H226 0.999 . S
C224 H194 0.950 . S
C224 C223 1.524 . S
C224 C225 1.415 . S
C225 H195 0.950 . S
C225 C220 1.363 . S
C225 C224 1.415 . S
H226 C223 0.999 . S
H227 C208 0.913 . S
H228 C246 0.951 . S
H229 C248 0.951 . S
H230 C250 0.950 . S
H231 C251 0.950 . S
H232 C253 0.950 . S
H233 C256 0.950 . S
H234 C257 0.950 . S
H235 C259 0.950 . S
H236 C260 0.950 . S
H237 C261 0.951 . S
H238 C263 0.951 . S
H239 C265 0.950 . S
H240 C266 0.950 . S
H241 C268 0.950 . S
H242 C271 0.950 . S
H243 C272 0.950 . S
H244 C274 0.950 . S
H245 C275 0.950 . S
C246 H228 0.951 . S
C246 C247 1.366 . S
C246 C248 1.388 . S
C247 C246 1.366 . S
C247 C251 1.385 . S
C248 H229 0.951 . S
C248 C246 1.388 . S
C248 C249 1.366 . S
C249 C248 1.366 . S
C249 C250 1.414 . S
C249 C252 1.499 . S
C250 H230 0.950 . S
C250 C249 1.414 . S
C250 C251 1.374 . S
C251 H231 0.950 . S
C251 C247 1.385 . S
C251 C250 1.374 . S
C252 C249 1.499 . S
C252 C253 1.373 1_655 S
C252 C254 1.389 . S
C253 H232 0.950 . S
C253 C252 1.373 1_455 S
C253 C269 1.377 . S
C254 C252 1.389 . S
C254 C255 1.524 . S
C254 C268 1.377 . S
C255 C254 1.524 . S
C255 C256 1.397 . S
C255 C260 1.363 . S
C256 H233 0.950 . S
C256 C255 1.397 . S
C256 C257 1.334 . S
C257 H234 0.950 . S
C257 C256 1.334 . S
C257 C258 1.287 . S
C258 C257 1.287 . S
C258 C259 1.524 . S
C258 H277 0.913 . S
C259 H235 0.950 . S
C259 C258 1.524 . S
C259 C260 1.415 . S
C260 H236 0.950 . S
C260 C255 1.363 . S
C260 C259 1.415 . S
C261 H237 0.951 . S
C261 C262 1.366 . S
C261 C263 1.388 . S
C262 C261 1.366 . S
C262 C266 1.385 . S
C263 H238 0.951 . S
C263 C261 1.388 . S
C263 C264 1.366 . S
C264 C263 1.366 . S
C264 C265 1.414 . S
C264 C267 1.499 . S
C265 H239 0.950 . S
C265 C264 1.414 . S
C265 C266 1.374 . S
C266 H240 0.950 . S
C266 C262 1.385 . S
C266 C265 1.374 . S
C267 C264 1.499 . S
C267 C268 1.373 1_455 S
C267 C269 1.389 . S
C268 H241 0.950 . S
C268 C254 1.377 . S
C268 C267 1.373 1_655 S
C269 C253 1.377 . S
C269 C267 1.389 . S
C269 C270 1.524 . S
C270 C269 1.524 . S
C270 C271 1.397 . S
C270 C275 1.363 . S
C271 H242 0.950 . S
C271 C270 1.397 . S
C271 C272 1.334 . S
C272 H243 0.950 . S
C272 C271 1.334 . S
C272 C273 1.287 . S
C273 C272 1.287 . S
C273 C274 1.524 . S
C273 H276 0.999 . S
C274 H244 0.950 . S
C274 C273 1.524 . S
C274 C275 1.415 . S
C275 H245 0.950 . S
C275 C270 1.363 . S
C275 C274 1.415 . S
H276 C273 0.999 . S
H277 C258 0.913 . S
H278 C296 0.951 . S
H279 C298 0.951 . S
H280 C300 0.950 . S
H281 C301 0.950 . S
H282 C303 0.950 . S
H283 C306 0.950 . S
H284 C307 0.950 . S
H285 C309 0.950 . S
H286 C310 0.950 . S
H287 C311 0.951 . S
H288 C313 0.951 . S
H289 C315 0.950 . S
H290 C316 0.950 . S
H291 C318 0.950 . S
H292 C321 0.950 . S
H293 C322 0.950 . S
H294 C324 0.950 . S
H295 C325 0.950 . S
C296 H278 0.951 . S
C296 C297 1.366 . S
C296 C298 1.388 . S
C297 C296 1.366 . S
C297 C301 1.385 . S
C298 H279 0.951 . S
C298 C296 1.388 . S
C298 C299 1.366 . S
C299 C298 1.366 . S
C299 C300 1.414 . S
C299 C302 1.499 . S
C300 H280 0.950 . S
C300 C299 1.414 . S
C300 C301 1.374 . S
C301 H281 0.950 . S
C301 C297 1.385 . S
C301 C300 1.374 . S
C302 C299 1.499 . S
C302 C303 1.373 1_545 S
C302 C304 1.389 . S
C303 H282 0.950 . S
C303 C302 1.373 1_565 S
C303 C319 1.377 . S
C304 C302 1.389 . S
C304 C305 1.524 . S
C304 C318 1.377 . S
C305 C304 1.524 . S
C305 C306 1.397 . S
C305 C310 1.363 . S
C306 H283 0.950 . S
C306 C305 1.397 . S
C306 C307 1.334 . S
C307 H284 0.950 . S
C307 C306 1.334 . S
C307 C308 1.287 . S
C308 C307 1.287 . S
C308 C309 1.524 . S
C308 H327 0.913 . S
C309 H285 0.950 . S
C309 C308 1.524 . S
C309 C310 1.415 . S
C310 H286 0.950 . S
C310 C305 1.363 . S
C310 C309 1.415 . S
C311 H287 0.951 . S
C311 C312 1.366 . S
C311 C313 1.388 . S
C312 C311 1.366 . S
C312 C316 1.385 . S
C313 H288 0.951 . S
C313 C311 1.388 . S
C313 C314 1.366 . S
C314 C313 1.366 . S
C314 C315 1.414 . S
C314 C317 1.499 . S
C315 H289 0.950 . S
C315 C314 1.414 . S
C315 C316 1.374 . S
C316 H290 0.950 . S
C316 C312 1.385 . S
C316 C315 1.374 . S
C317 C314 1.499 . S
C317 C318 1.373 1_565 S
C317 C319 1.389 . S
C318 H291 0.950 . S
C318 C304 1.377 . S
C318 C317 1.373 1_545 S
C319 C303 1.377 . S
C319 C317 1.389 . S
C319 C320 1.524 . S
C320 C319 1.524 . S
C320 C321 1.397 . S
C320 C325 1.363 . S
C321 H292 0.950 . S
C321 C320 1.397 . S
C321 C322 1.334 . S
C322 H293 0.950 . S
C322 C321 1.334 . S
C322 C323 1.287 . S
C323 C322 1.287 . S
C323 C324 1.524 . S
C323 H326 0.999 . S
C324 H294 0.950 . S
C324 C323 1.524 . S
C324 C325 1.415 . S
C325 H295 0.950 . S
C325 C320 1.363 . S
C325 C324 1.415 . S
H326 C323 0.999 . S
H327 C308 0.913 . S
H328 C346 0.951 . S
H329 C348 0.951 . S
H330 C350 0.950 . S
H331 C351 0.950 . S
H332 C353 0.950 . S
H333 C356 0.950 . S
H334 C357 0.950 . S
H335 C359 0.950 . S
H336 C360 0.950 . S
H337 C361 0.951 . S
H338 C363 0.951 . S
H339 C365 0.950 . S
H340 C366 0.950 . S
H341 C368 0.950 . S
H342 C371 0.950 . S
H343 C372 0.950 . S
H344 C374 0.950 . S
H345 C375 0.950 . S
C346 H328 0.951 . S
C346 C347 1.366 . S
C346 C348 1.388 . S
C347 C346 1.366 . S
C347 C351 1.385 . S
C348 H329 0.951 . S
C348 C346 1.388 . S
C348 C349 1.366 . S
C349 C348 1.366 . S
C349 C350 1.414 . S
C349 C352 1.499 . S
C350 H330 0.950 . S
C350 C349 1.414 . S
C350 C351 1.374 . S
C351 H331 0.950 . S
C351 C347 1.385 . S
C351 C350 1.374 . S
C352 C349 1.499 . S
C352 C353 1.373 . S
C352 C354 1.389 . S
C353 H332 0.950 . S
C353 C352 1.373 . S
C353 C369 1.377 . S
C354 C352 1.389 . S
C354 C355 1.524 . S
C354 C368 1.377 . S
C355 C354 1.524 . S
C355 C356 1.397 . S
C355 C360 1.363 . S
C356 H333 0.950 . S
C356 C355 1.397 . S
C356 C357 1.334 . S
C357 H334 0.950 . S
C357 C356 1.334 . S
C357 C358 1.287 . S
C358 C357 1.287 . S
C358 C359 1.524 . S
C358 H377 0.913 . S
C359 H335 0.950 . S
C359 C358 1.524 . S
C359 C360 1.415 . S
C360 H336 0.950 . S
C360 C355 1.363 . S
C360 C359 1.415 . S
C361 H337 0.951 . S
C361 C362 1.366 . S
C361 C363 1.388 . S
C362 C361 1.366 . S
C362 C366 1.385 . S
C363 H338 0.951 . S
C363 C361 1.388 . S
C363 C364 1.366 . S
C364 C363 1.366 . S
C364 C365 1.414 . S
C364 C367 1.499 . S
C365 H339 0.950 . S
C365 C364 1.414 . S
C365 C366 1.374 . S
C366 H340 0.950 . S
C366 C362 1.385 . S
C366 C365 1.374 . S
C367 C364 1.499 . S
C367 C368 1.373 . S
C367 C369 1.389 . S
C368 H341 0.950 . S
C368 C354 1.377 . S
C368 C367 1.373 . S
C369 C353 1.377 . S
C369 C367 1.389 . S
C369 C370 1.524 . S
C370 C369 1.524 . S
C370 C371 1.397 . S
C370 C375 1.363 . S
C371 H342 0.950 . S
C371 C370 1.397 . S
C371 C372 1.334 . S
C372 H343 0.950 . S
C372 C371 1.334 . S
C372 C373 1.287 . S
C373 C372 1.287 . S
C373 C374 1.524 . S
C373 H376 0.999 . S
C374 H344 0.950 . S
C374 C373 1.524 . S
C374 C375 1.415 . S
C375 H345 0.950 . S
C375 C370 1.363 . S
C375 C374 1.415 . S
H376 C373 0.999 . S
H377 C358 0.913 . S
H378 C396 0.951 . S
H379 C398 0.951 . S
H380 C400 0.950 . S
H381 C401 0.950 . S
H382 C403 0.950 . S
H383 C406 0.950 . S
H384 C407 0.950 . S
H385 C409 0.950 . S
H386 C410 0.950 . S
H387 C411 0.951 . S
H388 C413 0.951 . S
H389 C415 0.950 . S
H390 C416 0.950 . S
H391 C418 0.950 . S
H392 C421 0.950 . S
H393 C422 0.950 . S
H394 C424 0.950 . S
H395 C425 0.950 . S
C396 H378 0.951 . S
C396 C397 1.366 . S
C396 C398 1.388 . S
C397 C396 1.366 . S
C397 C401 1.385 . S
C398 H379 0.951 . S
C398 C396 1.388 . S
C398 C399 1.366 . S
C399 C398 1.366 . S
C399 C400 1.414 . S
C399 C402 1.499 . S
C400 H380 0.950 . S
C400 C399 1.414 . S
C400 C401 1.374 . S
C401 H381 0.950 . S
C401 C397 1.385 . S
C401 C400 1.374 . S
C402 C399 1.499 . S
C402 C403 1.373 . S
C402 C404 1.389 . S
C403 H382 0.950 . S
C403 C402 1.373 . S
C403 C419 1.377 . S
C404 C402 1.389 . S
C404 C405 1.524 . S
C404 C418 1.377 . S
C405 C404 1.524 . S
C405 C406 1.397 . S
C405 C410 1.363 . S
C406 H383 0.950 . S
C406 C405 1.397 . S
C406 C407 1.334 . S
C407 H384 0.950 . S
C407 C406 1.334 . S
C407 C408 1.287 . S
C408 C407 1.287 . S
C408 C409 1.524 . S
C408 H427 0.913 . S
C409 H385 0.950 . S
C409 C408 1.524 . S
C409 C410 1.415 . S
C410 H386 0.950 . S
C410 C405 1.363 . S
C410 C409 1.415 . S
C411 H387 0.951 . S
C411 C412 1.366 . S
C411 C413 1.388 . S
C412 C411 1.366 . S
C412 C416 1.385 . S
C413 H388 0.951 . S
C413 C411 1.388 . S
C413 C414 1.366 . S
C414 C413 1.366 . S
C414 C415 1.414 . S
C414 C417 1.499 . S
C415 H389 0.950 . S
C415 C414 1.414 . S
C415 C416 1.374 . S
C416 H390 0.950 . S
C416 C412 1.385 . S
C416 C415 1.374 . S
C417 C414 1.499 . S
C417 C418 1.373 . S
C417 C419 1.389 . S
C418 H391 0.950 . S
C418 C404 1.377 . S
C418 C417 1.373 . S
C419 C403 1.377 . S
C419 C417 1.389 . S
C419 C420 1.524 . S
C420 C419 1.524 . S
C420 C421 1.397 . S
C420 C425 1.363 . S
C421 H392 0.950 . S
C421 C420 1.397 . S
C421 C422 1.334 . S
C422 H393 0.950 . S
C422 C421 1.334 . S
C422 C423 1.287 . S
C423 C422 1.287 . S
C423 C424 1.524 . S
C423 H426 0.999 . S
C424 H394 0.950 . S
C424 C423 1.524 . S
C424 C425 1.415 . S
C425 H395 0.950 . S
C425 C420 1.363 . S
C425 C424 1.415 . S
H426 C423 0.999 . S
H427 C408 0.913 . S
H428 C446 0.951 . S
H429 C448 0.951 . S
H430 C450 0.950 . S
H431 C451 0.950 . S
H432 C453 0.950 . S
H433 C456 0.950 . S
H434 C457 0.950 . S
H435 C459 0.950 . S
H436 C460 0.950 . S
H437 C461 0.951 . S
H438 C463 0.951 . S
H439 C465 0.950 . S
H440 C466 0.950 . S
H441 C468 0.950 . S
H442 C471 0.950 . S
H443 C472 0.950 . S
H444 C474 0.950 . S
H445 C475 0.950 . S
C446 H428 0.951 . S
C446 C447 1.366 . S
C446 C448 1.388 . S
C447 C446 1.366 . S
C447 C451 1.385 . S
C448 H429 0.951 . S
C448 C446 1.388 . S
C448 C449 1.366 . S
C449 C448 1.366 . S
C449 C450 1.414 . S
C449 C452 1.499 . S
C450 H430 0.950 . S
C450 C449 1.414 . S
C450 C451 1.374 . S
C451 H431 0.950 . S
C451 C447 1.385 . S
C451 C450 1.374 . S
C452 C449 1.499 . S
C452 C453 1.373 . S
C452 C454 1.389 . S
C453 H432 0.950 . S
C453 C452 1.373 . S
C453 C469 1.377 . S
C454 C452 1.389 . S
C454 C455 1.524 . S
C454 C468 1.377 . S
C455 C454 1.524 . S
C455 C456 1.397 . S
C455 C460 1.363 . S
C456 H433 0.950 . S
C456 C455 1.397 . S
C456 C457 1.334 . S
C457 H434 0.950 . S
C457 C456 1.334 . S
C457 C458 1.287 . S
C458 C457 1.287 . S
C458 C459 1.524 . S
C458 H477 0.913 . S
C459 H435 0.950 . S
C459 C458 1.524 . S
C459 C460 1.415 . S
C460 H436 0.950 . S
C460 C455 1.363 . S
C460 C459 1.415 . S
C461 H437 0.951 . S
C461 C462 1.366 . S
C461 C463 1.388 . S
C462 C461 1.366 . S
C462 C466 1.385 . S
C463 H438 0.951 . S
C463 C461 1.388 . S
C463 C464 1.366 . S
C464 C463 1.366 . S
C464 C465 1.414 . S
C464 C467 1.499 . S
C465 H439 0.950 . S
C465 C464 1.414 . S
C465 C466 1.374 . S
C466 H440 0.950 . S
C466 C462 1.385 . S
C466 C465 1.374 . S
C467 C464 1.499 . S
C467 C468 1.373 . S
C467 C469 1.389 . S
C468 H441 0.950 . S
C468 C454 1.377 . S
C468 C467 1.373 . S
C469 C453 1.377 . S
C469 C467 1.389 . S
C469 C470 1.524 . S
C470 C469 1.524 . S
C470 C471 1.397 . S
C470 C475 1.363 . S
C471 H442 0.950 . S
C471 C470 1.397 . S
C471 C472 1.334 . S
C472 H443 0.950 . S
C472 C471 1.334 . S
C472 C473 1.287 . S
C473 C472 1.287 . S
C473 C474 1.524 . S
C473 H476 0.999 . S
C474 H444 0.950 . S
C474 C473 1.524 . S
C474 C475 1.415 . S
C475 H445 0.950 . S
C475 C470 1.363 . S
C475 C474 1.415 . S
H476 C473 0.999 . S
H477 C458 0.913 . S
H478 C496 0.951 . S
H479 C498 0.951 . S
H480 C500 0.950 . S
H481 C501 0.950 . S
H482 C503 0.950 . S
H483 C506 0.950 . S
H484 C507 0.950 . S
H485 C509 0.950 . S
H486 C510 0.950 . S
H487 C511 0.951 . S
H488 C513 0.951 . S
H489 C515 0.950 . S
H490 C516 0.950 . S
H491 C518 0.950 . S
H492 C521 0.950 . S
H493 C522 0.950 . S
H494 C524 0.950 . S
H495 C525 0.950 . S
C496 H478 0.951 . S
C496 C497 1.366 . S
C496 C498 1.388 . S
C497 C496 1.366 . S
C497 C501 1.385 . S
C498 H479 0.951 . S
C498 C496 1.388 . S
C498 C499 1.366 . S
C499 C498 1.366 . S
C499 C500 1.414 . S
C499 C502 1.499 . S
C500 H480 0.950 . S
C500 C499 1.414 . S
C500 C501 1.374 . S
C501 H481 0.950 . S
C501 C497 1.385 . S
C501 C500 1.374 . S
C502 C499 1.499 . S
C502 C503 1.373 . S
C502 C504 1.389 . S
C503 H482 0.950 . S
C503 C502 1.373 . S
C503 C519 1.377 . S
C504 C502 1.389 . S
C504 C505 1.524 . S
C504 C518 1.377 . S
C505 C504 1.524 . S
C505 C506 1.397 . S
C505 C510 1.363 . S
C506 H483 0.950 . S
C506 C505 1.397 . S
C506 C507 1.334 . S
C507 H484 0.950 . S
C507 C506 1.334 . S
C507 C508 1.287 . S
C508 C507 1.287 . S
C508 C509 1.524 . S
C508 H527 0.913 . S
C509 H485 0.950 . S
C509 C508 1.524 . S
C509 C510 1.415 . S
C510 H486 0.950 . S
C510 C505 1.363 . S
C510 C509 1.415 . S
C511 H487 0.951 . S
C511 C512 1.366 . S
C511 C513 1.388 . S
C512 C511 1.366 . S
C512 C516 1.385 . S
C513 H488 0.951 . S
C513 C511 1.388 . S
C513 C514 1.366 . S
C514 C513 1.366 . S
C514 C515 1.414 . S
C514 C517 1.499 . S
C515 H489 0.950 . S
C515 C514 1.414 . S
C515 C516 1.374 . S
C516 H490 0.950 . S
C516 C512 1.385 . S
C516 C515 1.374 . S
C517 C514 1.499 . S
C517 C518 1.373 . S
C517 C519 1.389 . S
C518 H491 0.950 . S
C518 C504 1.377 . S
C518 C517 1.373 . S
C519 C503 1.377 . S
C519 C517 1.389 . S
C519 C520 1.524 . S
C520 C519 1.524 . S
C520 C521 1.397 . S
C520 C525 1.363 . S
C521 H492 0.950 . S
C521 C520 1.397 . S
C521 C522 1.334 . S
C522 H493 0.950 . S
C522 C521 1.334 . S
C522 C523 1.287 . S
C523 C522 1.287 . S
C523 C524 1.524 . S
C523 H526 0.999 . S
C524 H494 0.950 . S
C524 C523 1.524 . S
C524 C525 1.415 . S
C525 H495 0.950 . S
C525 C520 1.363 . S
C525 C524 1.415 . S
H526 C523 0.999 . S
H527 C508 0.913 . S
H528 C546 0.951 . S
H529 C548 0.951 . S
H530 C550 0.950 . S
H531 C551 0.950 . S
H532 C553 0.950 . S
H533 C556 0.950 . S
H534 C557 0.950 . S
H535 C559 0.950 . S
H536 C560 0.950 . S
H537 C561 0.951 . S
H538 C563 0.951 . S
H539 C565 0.950 . S
H540 C566 0.950 . S
H541 C568 0.950 . S
H542 C571 0.950 . S
H543 C572 0.950 . S
H544 C574 0.950 . S
H545 C575 0.950 . S
C546 H528 0.951 . S
C546 C547 1.366 . S
C546 C548 1.388 . S
C547 C546 1.366 . S
C547 C551 1.385 . S
C548 H529 0.951 . S
C548 C546 1.388 . S
C548 C549 1.366 . S
C549 C548 1.366 . S
C549 C550 1.414 . S
C549 C552 1.499 . S
C550 H530 0.950 . S
C550 C549 1.414 . S
C550 C551 1.374 . S
C551 H531 0.950 . S
C551 C547 1.385 . S
C551 C550 1.374 . S
C552 C549 1.499 . S
C552 C553 1.373 . S
C552 C554 1.389 . S
C553 H532 0.950 . S
C553 C552 1.373 . S
C553 C569 1.377 . S
C554 C552 1.389 . S
C554 C555 1.524 . S
C554 C568 1.377 . S
C555 C554 1.524 . S
C555 C556 1.397 . S
C555 C560 1.363 . S
C556 H533 0.950 . S
C556 C555 1.397 . S
C556 C557 1.334 . S
C557 H534 0.950 . S
C557 C556 1.334 . S
C557 C558 1.287 . S
C558 C557 1.287 . S
C558 C559 1.524 . S
C558 H577 0.913 . S
C559 H535 0.950 . S
C559 C558 1.524 . S
C559 C560 1.415 . S
C560 H536 0.950 . S
C560 C555 1.363 . S
C560 C559 1.415 . S
C561 H537 0.951 . S
C561 C562 1.366 . S
C561 C563 1.388 . S
C562 C561 1.366 . S
C562 C566 1.385 . S
C563 H538 0.951 . S
C563 C561 1.388 . S
C563 C564 1.366 . S
C564 C563 1.366 . S
C564 C565 1.414 . S
C564 C567 1.499 . S
C565 H539 0.950 . S
C565 C564 1.414 . S
C565 C566 1.374 . S
C566 H540 0.950 . S
C566 C562 1.385 . S
C566 C565 1.374 . S
C567 C564 1.499 . S
C567 C568 1.373 . S
C567 C569 1.389 . S
C568 H541 0.950 . S
C568 C554 1.377 . S
C568 C567 1.373 . S
C569 C553 1.377 . S
C569 C567 1.389 . S
C569 C570 1.524 . S
C570 C569 1.524 . S
C570 C571 1.397 . S
C570 C575 1.363 . S
C571 H542 0.950 . S
C571 C570 1.397 . S
C571 C572 1.334 . S
C572 H543 0.950 . S
C572 C571 1.334 . S
C572 C573 1.287 . S
C573 C572 1.287 . S
C573 C574 1.524 . S
C573 H576 0.999 . S
C574 H544 0.950 . S
C574 C573 1.524 . S
C574 C575 1.415 . S
C575 H545 0.950 . S
C575 C570 1.363 . S
C575 C574 1.415 . S
H576 C573 0.999 . S
H577 C558 0.913 . S
H578 C596 0.951 . S
H579 C598 0.951 . S
H580 C600 0.950 . S
H581 C601 0.950 . S
H582 C603 0.950 . S
H583 C606 0.950 . S
H584 C607 0.950 . S
H585 C609 0.950 1_554 S
H586 C610 0.950 1_554 S
H587 C611 0.951 . S
H588 C613 0.951 . S
H589 C615 0.950 . S
H590 C616 0.950 . S
H591 C618 0.950 . S
H592 C621 0.950 . S
H593 C622 0.950 . S
H594 C624 0.950 . S
H595 C625 0.950 . S
C596 H578 0.951 . S
C596 C597 1.366 . S
C596 C598 1.388 . S
C597 C596 1.366 . S
C597 C601 1.385 . S
C598 H579 0.951 . S
C598 C596 1.388 . S
C598 C599 1.366 . S
C599 C598 1.366 . S
C599 C600 1.414 . S
C599 C602 1.499 . S
C600 H580 0.950 . S
C600 C599 1.414 . S
C600 C601 1.374 . S
C601 H581 0.950 . S
C601 C597 1.385 . S
C601 C600 1.374 . S
C602 C599 1.499 . S
C602 C603 1.373 . S
C602 C604 1.389 . S
C603 H582 0.950 . S
C603 C602 1.373 . S
C603 C619 1.377 . S
C604 C602 1.389 . S
C604 C605 1.524 . S
C604 C618 1.377 . S
C605 C604 1.524 . S
C605 C606 1.397 . S
C605 C610 1.363 . S
C606 H583 0.950 . S
C606 C605 1.397 . S
C606 C607 1.334 . S
C607 H584 0.950 . S
C607 C606 1.334 . S
C607 C608 1.287 . S
C608 C607 1.287 . S
C608 C609 1.524 . S
C608 H627 0.913 . S
C609 H585 0.950 1_556 S
C609 C608 1.524 . S
C609 C610 1.415 . S
C610 H586 0.950 1_556 S
C610 C605 1.363 . S
C610 C609 1.415 . S
C611 H587 0.951 . S
C611 C612 1.366 . S
C611 C613 1.388 . S
C612 C611 1.366 . S
C612 C616 1.385 1_556 S
C613 H588 0.951 . S
C613 C611 1.388 . S
C613 C614 1.366 . S
C614 C613 1.366 . S
C614 C615 1.414 1_556 S
C614 C617 1.499 . S
C615 H589 0.950 . S
C615 C614 1.414 1_554 S
C615 C616 1.374 . S
C616 H590 0.950 . S
C616 C612 1.385 1_554 S
C616 C615 1.374 . S
C617 C614 1.499 . S
C617 C618 1.373 . S
C617 C619 1.389 . S
C618 H591 0.950 . S
C618 C604 1.377 . S
C618 C617 1.373 . S
C619 C603 1.377 . S
C619 C617 1.389 . S
C619 C620 1.524 . S
C620 C619 1.524 . S
C620 C621 1.397 . S
C620 C625 1.363 . S
C621 H592 0.950 . S
C621 C620 1.397 . S
C621 C622 1.334 . S
C622 H593 0.950 . S
C622 C621 1.334 . S
C622 C623 1.287 . S
C623 C622 1.287 . S
C623 C624 1.524 . S
C623 H626 0.999 . S
C624 H594 0.950 . S
C624 C623 1.524 . S
C624 C625 1.415 . S
C625 H595 0.950 . S
C625 C620 1.363 . S
C625 C624 1.415 . S
H626 C623 0.999 . S
H627 C608 0.913 . S
H628 C646 0.951 . S
H629 C648 0.951 . S
H630 C650 0.950 . S
H631 C651 0.950 . S
H632 C653 0.950 . S
H633 C656 0.950 . S
H634 C657 0.950 . S
H635 C659 0.950 . S
H636 C660 0.950 . S
H637 C661 0.951 . S
H638 C663 0.951 . S
H639 C665 0.950 . S
H640 C666 0.950 . S
H641 C668 0.950 . S
H642 C671 0.950 . S
H643 C672 0.950 . S
H644 C674 0.950 . S
H645 C675 0.950 1_556 S
C646 H628 0.951 . S
C646 C647 1.366 . S
C646 C648 1.388 . S
C647 C646 1.366 . S
C647 C651 1.385 1_554 S
C648 H629 0.951 . S
C648 C646 1.388 . S
C648 C649 1.366 . S
C649 C648 1.366 . S
C649 C650 1.414 1_554 S
C649 C652 1.499 . S
C650 H630 0.950 . S
C650 C649 1.414 1_556 S
C650 C651 1.374 . S
C651 H631 0.950 . S
C651 C647 1.385 1_556 S
C651 C650 1.374 . S
C652 C649 1.499 . S
C652 C653 1.373 . S
C652 C654 1.389 . S
C653 H632 0.950 . S
C653 C652 1.373 . S
C653 C669 1.377 . S
C654 C652 1.389 . S
C654 C655 1.524 . S
C654 C668 1.377 . S
C655 C654 1.524 . S
C655 C656 1.397 . S
C655 C660 1.363 . S
C656 H633 0.950 . S
C656 C655 1.397 . S
C656 C657 1.334 . S
C657 H634 0.950 . S
C657 C656 1.334 . S
C657 C658 1.287 . S
C658 C657 1.287 . S
C658 C659 1.524 . S
C658 H677 0.913 . S
C659 H635 0.950 . S
C659 C658 1.524 . S
C659 C660 1.415 . S
C660 H636 0.950 . S
C660 C655 1.363 . S
C660 C659 1.415 . S
C661 H637 0.951 . S
C661 C662 1.366 . S
C661 C663 1.388 . S
C662 C661 1.366 . S
C662 C666 1.385 . S
C663 H638 0.951 . S
C663 C661 1.388 . S
C663 C664 1.366 . S
C664 C663 1.366 . S
C664 C665 1.414 . S
C664 C667 1.499 . S
C665 H639 0.950 . S
C665 C664 1.414 . S
C665 C666 1.374 . S
C666 H640 0.950 . S
C666 C662 1.385 . S
C666 C665 1.374 . S
C667 C664 1.499 . S
C667 C668 1.373 . S
C667 C669 1.389 . S
C668 H641 0.950 . S
C668 C654 1.377 . S
C668 C667 1.373 . S
C669 C653 1.377 . S
C669 C667 1.389 . S
C669 C670 1.524 . S
C670 C669 1.524 . S
C670 C671 1.397 . S
C670 C675 1.363 . S
C671 H642 0.950 . S
C671 C670 1.397 . S
C671 C672 1.334 . S
C672 H643 0.950 . S
C672 C671 1.334 . S
C672 C673 1.287 . S
C673 C672 1.287 . S
C673 C674 1.524 1_554 S
C673 H676 0.999 . S
C674 H644 0.950 . S
C674 C673 1.524 1_556 S
C674 C675 1.415 1_556 S
C675 H645 0.950 1_554 S
C675 C670 1.363 . S
C675 C674 1.415 1_554 S
H676 C673 0.999 . S
H677 C658 0.913 . S
C97 C10 1.984 1_556 S
C112 C42 1.924 . S
C147 C55 1.924 . S
C162 C23 1.984 . S
C197 C36 1.984 . S
C212 C68 1.924 1_554 S
C247 C49 1.984 . S
C262 C3 1.924 . S
C297 C16 1.924 . S
C312 C62 1.984 . S
C347 C75 1.984 . S
C362 C29 1.924 . S
C397 C5 1.565 . S
C412 C27 1.518 . S
C447 C18 1.565 . S
C462 C40 1.518 . S
C497 C53 1.518 . S
C512 C31 1.565 . S
C547 C66 1.518 . S
C562 C44 1.565 . S
C597 C57 1.565 . S
C612 C1 1.518 1_556 S
C647 C70 1.565 1_554 S
C662 C14 1.518 . S
